# Generated by pormake.
# Topology uli, (4)-cn, num edge types: 1
# Building blocks:
#     Node 0, Type 0, BuildingBlock: GALJAG_clean_sbu_0, # of connection points: 4
#     Node 1, Type 0, BuildingBlock: GALJAG_clean_sbu_0, # of connection points: 4
#     Node 2, Type 0, BuildingBlock: GALJAG_clean_sbu_0, # of connection points: 4
#     Node 3, Type 0, BuildingBlock: GALJAG_clean_sbu_0, # of connection points: 4
#     Node 4, Type 0, BuildingBlock: GALJAG_clean_sbu_0, # of connection points: 4
#     Node 5, Type 0, BuildingBlock: GALJAG_clean_sbu_0, # of connection points: 4
#     Node 6, Type 0, BuildingBlock: GALJAG_clean_sbu_0, # of connection points: 4
#     Node 7, Type 0, BuildingBlock: GALJAG_clean_sbu_0, # of connection points: 4
#     Node 8, Type 0, BuildingBlock: GALJAG_clean_sbu_0, # of connection points: 4
#     Node 9, Type 0, BuildingBlock: GALJAG_clean_sbu_0, # of connection points: 4
#     Node 10, Type 0, BuildingBlock: GALJAG_clean_sbu_0, # of connection points: 4
#     Node 11, Type 0, BuildingBlock: GALJAG_clean_sbu_0, # of connection points: 4
#     Node 12, Type 0, BuildingBlock: GALJAG_clean_sbu_0, # of connection points: 4
#     Node 13, Type 0, BuildingBlock: GALJAG_clean_sbu_0, # of connection points: 4
#     Node 14, Type 0, BuildingBlock: GALJAG_clean_sbu_0, # of connection points: 4
#     Node 15, Type 0, BuildingBlock: GALJAG_clean_sbu_0, # of connection points: 4
#     Node 16, Type 0, BuildingBlock: GALJAG_clean_sbu_0, # of connection points: 4
#     Node 17, Type 0, BuildingBlock: GALJAG_clean_sbu_0, # of connection points: 4
#     Node 18, Type 0, BuildingBlock: GALJAG_clean_sbu_0, # of connection points: 4
#     Node 19, Type 0, BuildingBlock: GALJAG_clean_sbu_0, # of connection points: 4
#     Node 20, Type 0, BuildingBlock: GALJAG_clean_sbu_0, # of connection points: 4
#     Node 21, Type 0, BuildingBlock: GALJAG_clean_sbu_0, # of connection points: 4
#     Node 22, Type 0, BuildingBlock: GALJAG_clean_sbu_0, # of connection points: 4
#     Node 23, Type 0, BuildingBlock: GALJAG_clean_sbu_0, # of connection points: 4
#     Node 24, Type 0, BuildingBlock: GALJAG_clean_sbu_0, # of connection points: 4
#     Node 25, Type 0, BuildingBlock: GALJAG_clean_sbu_0, # of connection points: 4
#     Node 26, Type 0, BuildingBlock: GALJAG_clean_sbu_0, # of connection points: 4
#     Node 27, Type 0, BuildingBlock: GALJAG_clean_sbu_0, # of connection points: 4
#     Node 28, Type 0, BuildingBlock: GALJAG_clean_sbu_0, # of connection points: 4
#     Node 29, Type 0, BuildingBlock: GALJAG_clean_sbu_0, # of connection points: 4
#     Node 30, Type 0, BuildingBlock: GALJAG_clean_sbu_0, # of connection points: 4
#     Node 31, Type 0, BuildingBlock: GALJAG_clean_sbu_0, # of connection points: 4
#     Node 32, Type 0, BuildingBlock: GALJAG_clean_sbu_0, # of connection points: 4
#     Node 33, Type 0, BuildingBlock: GALJAG_clean_sbu_0, # of connection points: 4
#     Node 34, Type 0, BuildingBlock: GALJAG_clean_sbu_0, # of connection points: 4
#     Node 35, Type 0, BuildingBlock: GALJAG_clean_sbu_0, # of connection points: 4
#     Node 36, Type 0, BuildingBlock: GALJAG_clean_sbu_0, # of connection points: 4
#     Node 37, Type 0, BuildingBlock: GALJAG_clean_sbu_0, # of connection points: 4
#     Node 38, Type 0, BuildingBlock: GALJAG_clean_sbu_0, # of connection points: 4
#     Node 39, Type 0, BuildingBlock: GALJAG_clean_sbu_0, # of connection points: 4
#     Node 40, Type 0, BuildingBlock: GALJAG_clean_sbu_0, # of connection points: 4
#     Node 41, Type 0, BuildingBlock: GALJAG_clean_sbu_0, # of connection points: 4
#     Node 42, Type 0, BuildingBlock: GALJAG_clean_sbu_0, # of connection points: 4
#     Node 43, Type 0, BuildingBlock: GALJAG_clean_sbu_0, # of connection points: 4
#     Node 44, Type 0, BuildingBlock: GALJAG_clean_sbu_0, # of connection points: 4
#     Node 45, Type 0, BuildingBlock: GALJAG_clean_sbu_0, # of connection points: 4
#     Node 46, Type 0, BuildingBlock: GALJAG_clean_sbu_0, # of connection points: 4
#     Node 47, Type 0, BuildingBlock: GALJAG_clean_sbu_0, # of connection points: 4
#     Edge 48, Type (0, 0), BuildingBlock: ZUJKAS_clean_linker_0, # of connection points: 2
#     Edge 49, Type (0, 0), BuildingBlock: ZUJKAS_clean_linker_0, # of connection points: 2
#     Edge 50, Type (0, 0), BuildingBlock: ZUJKAS_clean_linker_0, # of connection points: 2
#     Edge 51, Type (0, 0), BuildingBlock: ZUJKAS_clean_linker_0, # of connection points: 2
#     Edge 52, Type (0, 0), BuildingBlock: ZUJKAS_clean_linker_0, # of connection points: 2
#     Edge 53, Type (0, 0), BuildingBlock: ZUJKAS_clean_linker_0, # of connection points: 2
#     Edge 54, Type (0, 0), BuildingBlock: ZUJKAS_clean_linker_0, # of connection points: 2
#     Edge 55, Type (0, 0), BuildingBlock: ZUJKAS_clean_linker_0, # of connection points: 2
#     Edge 56, Type (0, 0), BuildingBlock: ZUJKAS_clean_linker_0, # of connection points: 2
#     Edge 57, Type (0, 0), BuildingBlock: ZUJKAS_clean_linker_0, # of connection points: 2
#     Edge 58, Type (0, 0), BuildingBlock: ZUJKAS_clean_linker_0, # of connection points: 2
#     Edge 59, Type (0, 0), BuildingBlock: ZUJKAS_clean_linker_0, # of connection points: 2
#     Edge 60, Type (0, 0), BuildingBlock: ZUJKAS_clean_linker_0, # of connection points: 2
#     Edge 61, Type (0, 0), BuildingBlock: ZUJKAS_clean_linker_0, # of connection points: 2
#     Edge 62, Type (0, 0), BuildingBlock: ZUJKAS_clean_linker_0, # of connection points: 2
#     Edge 63, Type (0, 0), BuildingBlock: ZUJKAS_clean_linker_0, # of connection points: 2
#     Edge 64, Type (0, 0), BuildingBlock: ZUJKAS_clean_linker_0, # of connection points: 2
#     Edge 65, Type (0, 0), BuildingBlock: ZUJKAS_clean_linker_0, # of connection points: 2
#     Edge 66, Type (0, 0), BuildingBlock: ZUJKAS_clean_linker_0, # of connection points: 2
#     Edge 67, Type (0, 0), BuildingBlock: ZUJKAS_clean_linker_0, # of connection points: 2
#     Edge 68, Type (0, 0), BuildingBlock: ZUJKAS_clean_linker_0, # of connection points: 2
#     Edge 69, Type (0, 0), BuildingBlock: ZUJKAS_clean_linker_0, # of connection points: 2
#     Edge 70, Type (0, 0), BuildingBlock: ZUJKAS_clean_linker_0, # of connection points: 2
#     Edge 71, Type (0, 0), BuildingBlock: ZUJKAS_clean_linker_0, # of connection points: 2
#     Edge 72, Type (0, 0), BuildingBlock: ZUJKAS_clean_linker_0, # of connection points: 2
#     Edge 73, Type (0, 0), BuildingBlock: ZUJKAS_clean_linker_0, # of connection points: 2
#     Edge 74, Type (0, 0), BuildingBlock: ZUJKAS_clean_linker_0, # of connection points: 2
#     Edge 75, Type (0, 0), BuildingBlock: ZUJKAS_clean_linker_0, # of connection points: 2
#     Edge 76, Type (0, 0), BuildingBlock: ZUJKAS_clean_linker_0, # of connection points: 2
#     Edge 77, Type (0, 0), BuildingBlock: ZUJKAS_clean_linker_0, # of connection points: 2
#     Edge 78, Type (0, 0), BuildingBlock: ZUJKAS_clean_linker_0, # of connection points: 2
#     Edge 79, Type (0, 0), BuildingBlock: ZUJKAS_clean_linker_0, # of connection points: 2
#     Edge 80, Type (0, 0), BuildingBlock: ZUJKAS_clean_linker_0, # of connection points: 2
#     Edge 81, Type (0, 0), BuildingBlock: ZUJKAS_clean_linker_0, # of connection points: 2
#     Edge 82, Type (0, 0), BuildingBlock: ZUJKAS_clean_linker_0, # of connection points: 2
#     Edge 83, Type (0, 0), BuildingBlock: ZUJKAS_clean_linker_0, # of connection points: 2
#     Edge 84, Type (0, 0), BuildingBlock: ZUJKAS_clean_linker_0, # of connection points: 2
#     Edge 85, Type (0, 0), BuildingBlock: ZUJKAS_clean_linker_0, # of connection points: 2
#     Edge 86, Type (0, 0), BuildingBlock: ZUJKAS_clean_linker_0, # of connection points: 2
#     Edge 87, Type (0, 0), BuildingBlock: ZUJKAS_clean_linker_0, # of connection points: 2
#     Edge 88, Type (0, 0), BuildingBlock: ZUJKAS_clean_linker_0, # of connection points: 2
#     Edge 89, Type (0, 0), BuildingBlock: ZUJKAS_clean_linker_0, # of connection points: 2
#     Edge 90, Type (0, 0), BuildingBlock: ZUJKAS_clean_linker_0, # of connection points: 2
#     Edge 91, Type (0, 0), BuildingBlock: ZUJKAS_clean_linker_0, # of connection points: 2
#     Edge 92, Type (0, 0), BuildingBlock: ZUJKAS_clean_linker_0, # of connection points: 2
#     Edge 93, Type (0, 0), BuildingBlock: ZUJKAS_clean_linker_0, # of connection points: 2
#     Edge 94, Type (0, 0), BuildingBlock: ZUJKAS_clean_linker_0, # of connection points: 2
#     Edge 95, Type (0, 0), BuildingBlock: ZUJKAS_clean_linker_0, # of connection points: 2
#     Edge 96, Type (0, 0), BuildingBlock: ZUJKAS_clean_linker_0, # of connection points: 2
#     Edge 97, Type (0, 0), BuildingBlock: ZUJKAS_clean_linker_0, # of connection points: 2
#     Edge 98, Type (0, 0), BuildingBlock: ZUJKAS_clean_linker_0, # of connection points: 2
#     Edge 99, Type (0, 0), BuildingBlock: ZUJKAS_clean_linker_0, # of connection points: 2
#     Edge 100, Type (0, 0), BuildingBlock: ZUJKAS_clean_linker_0, # of connection points: 2
#     Edge 101, Type (0, 0), BuildingBlock: ZUJKAS_clean_linker_0, # of connection points: 2
#     Edge 102, Type (0, 0), BuildingBlock: ZUJKAS_clean_linker_0, # of connection points: 2
#     Edge 103, Type (0, 0), BuildingBlock: ZUJKAS_clean_linker_0, # of connection points: 2
#     Edge 104, Type (0, 0), BuildingBlock: ZUJKAS_clean_linker_0, # of connection points: 2
#     Edge 105, Type (0, 0), BuildingBlock: ZUJKAS_clean_linker_0, # of connection points: 2
#     Edge 106, Type (0, 0), BuildingBlock: ZUJKAS_clean_linker_0, # of connection points: 2
#     Edge 107, Type (0, 0), BuildingBlock: ZUJKAS_clean_linker_0, # of connection points: 2
#     Edge 108, Type (0, 0), BuildingBlock: ZUJKAS_clean_linker_0, # of connection points: 2
#     Edge 109, Type (0, 0), BuildingBlock: ZUJKAS_clean_linker_0, # of connection points: 2
#     Edge 110, Type (0, 0), BuildingBlock: ZUJKAS_clean_linker_0, # of connection points: 2
#     Edge 111, Type (0, 0), BuildingBlock: ZUJKAS_clean_linker_0, # of connection points: 2
#     Edge 112, Type (0, 0), BuildingBlock: ZUJKAS_clean_linker_0, # of connection points: 2
#     Edge 113, Type (0, 0), BuildingBlock: ZUJKAS_clean_linker_0, # of connection points: 2
#     Edge 114, Type (0, 0), BuildingBlock: ZUJKAS_clean_linker_0, # of connection points: 2
#     Edge 115, Type (0, 0), BuildingBlock: ZUJKAS_clean_linker_0, # of connection points: 2
#     Edge 116, Type (0, 0), BuildingBlock: ZUJKAS_clean_linker_0, # of connection points: 2
#     Edge 117, Type (0, 0), BuildingBlock: ZUJKAS_clean_linker_0, # of connection points: 2
#     Edge 118, Type (0, 0), BuildingBlock: ZUJKAS_clean_linker_0, # of connection points: 2
#     Edge 119, Type (0, 0), BuildingBlock: ZUJKAS_clean_linker_0, # of connection points: 2
#     Edge 120, Type (0, 0), BuildingBlock: ZUJKAS_clean_linker_0, # of connection points: 2
#     Edge 121, Type (0, 0), BuildingBlock: ZUJKAS_clean_linker_0, # of connection points: 2
#     Edge 122, Type (0, 0), BuildingBlock: ZUJKAS_clean_linker_0, # of connection points: 2
#     Edge 123, Type (0, 0), BuildingBlock: ZUJKAS_clean_linker_0, # of connection points: 2
#     Edge 124, Type (0, 0), BuildingBlock: ZUJKAS_clean_linker_0, # of connection points: 2
#     Edge 125, Type (0, 0), BuildingBlock: ZUJKAS_clean_linker_0, # of connection points: 2
#     Edge 126, Type (0, 0), BuildingBlock: ZUJKAS_clean_linker_0, # of connection points: 2
#     Edge 127, Type (0, 0), BuildingBlock: ZUJKAS_clean_linker_0, # of connection points: 2
#     Edge 128, Type (0, 0), BuildingBlock: ZUJKAS_clean_linker_0, # of connection points: 2
#     Edge 129, Type (0, 0), BuildingBlock: ZUJKAS_clean_linker_0, # of connection points: 2
#     Edge 130, Type (0, 0), BuildingBlock: ZUJKAS_clean_linker_0, # of connection points: 2
#     Edge 131, Type (0, 0), BuildingBlock: ZUJKAS_clean_linker_0, # of connection points: 2
#     Edge 132, Type (0, 0), BuildingBlock: ZUJKAS_clean_linker_0, # of connection points: 2
#     Edge 133, Type (0, 0), BuildingBlock: ZUJKAS_clean_linker_0, # of connection points: 2
#     Edge 134, Type (0, 0), BuildingBlock: ZUJKAS_clean_linker_0, # of connection points: 2
#     Edge 135, Type (0, 0), BuildingBlock: ZUJKAS_clean_linker_0, # of connection points: 2
#     Edge 136, Type (0, 0), BuildingBlock: ZUJKAS_clean_linker_0, # of connection points: 2
#     Edge 137, Type (0, 0), BuildingBlock: ZUJKAS_clean_linker_0, # of connection points: 2
#     Edge 138, Type (0, 0), BuildingBlock: ZUJKAS_clean_linker_0, # of connection points: 2
#     Edge 139, Type (0, 0), BuildingBlock: ZUJKAS_clean_linker_0, # of connection points: 2
#     Edge 140, Type (0, 0), BuildingBlock: ZUJKAS_clean_linker_0, # of connection points: 2
#     Edge 141, Type (0, 0), BuildingBlock: ZUJKAS_clean_linker_0, # of connection points: 2
#     Edge 142, Type (0, 0), BuildingBlock: ZUJKAS_clean_linker_0, # of connection points: 2
#     Edge 143, Type (0, 0), BuildingBlock: ZUJKAS_clean_linker_0, # of connection points: 2
# Relax obj value: 0.561
# Max RMSD: 0.175
# Mean RMSD: 0.175
data_MOF--net-uli--node1-GALJAG_clean_sbu_0--edge1-ZUJKAS_clean_linker_0
_symmetry_space_group_name_H-M    P1
_symmetry_Int_Tables_number       1
_symmetry_cell_setting            triclinic
loop_
_symmetry_equiv_pos_as_xyz
'x, y, z'
_cell_length_a     85.69018
_cell_length_b     85.681948
_cell_length_c     85.69363
_cell_angle_alpha  90.006437
_cell_angle_beta   90.000934
_cell_angle_gamma 89.991918
loop_
_atom_site_label
_atom_site_type_symbol
_atom_site_fract_x
_atom_site_fract_y
_atom_site_fract_z
_atom_type_partial_charge
In0 In 0.09103 0.26516 0.20067 0.0
O1 O 0.10256 0.27963 0.21951 0.0
O2 O 0.08746 0.29146 0.20372 0.0
C3 C 0.10136 0.24265 0.22022 0.0
C4 C 0.06077 0.25822 0.19538 0.0
C5 C 0.1078 0.26564 0.17394 0.0
O6 O 0.11009 0.24946 0.21053 0.0
O7 O 0.08746 0.24745 0.22036 0.0
O8 O 0.10274 0.25326 0.18004 0.0
O9 O 0.10382 0.27795 0.18093 0.0
C10 C 0.09651 0.29239 0.21533 0.0
O11 O 0.07172 0.25227 0.18758 0.0
O12 O 0.06505 0.26832 0.20518 0.0
In13 In 0.72775 0.09256 0.20101 0.0
O14 O 0.71308 0.10538 0.21879 0.0
O15 O 0.70148 0.08876 0.20443 0.0
C16 C 0.74971 0.10408 0.22047 0.0
C17 C 0.73561 0.06223 0.19779 0.0
C18 C 0.72762 0.10746 0.17318 0.0
O19 O 0.74293 0.1123 0.21031 0.0
O20 O 0.74513 0.09012 0.22112 0.0
O21 O 0.73991 0.10366 0.18026 0.0
O22 O 0.7152 0.10317 0.17982 0.0
C23 C 0.70043 0.09873 0.21526 0.0
O24 O 0.74168 0.0729 0.18971 0.0
O25 O 0.72485 0.06675 0.20674 0.0
In26 In 0.90087 0.72009 0.20771 0.0
O27 O 0.92031 0.73132 0.19354 0.0
O28 O 0.92654 0.71876 0.21402 0.0
C29 C 0.87836 0.72184 0.18583 0.0
C30 C 0.90027 0.68996 0.21664 0.0
C31 C 0.89314 0.74401 0.22679 0.0
O32 O 0.89263 0.72091 0.18227 0.0
O33 O 0.87559 0.72178 0.20026 0.0
O34 O 0.88793 0.73038 0.22884 0.0
O35 O 0.90216 0.74545 0.2153 0.0
C36 C 0.93098 0.72729 0.20287 0.0
O37 O 0.90049 0.70112 0.22625 0.0
O38 O 0.90087 0.69399 0.20248 0.0
In39 In 0.27342 0.90455 0.19824 0.0
O40 O 0.25784 0.92438 0.19002 0.0
O41 O 0.27913 0.9304 0.20111 0.0
C42 C 0.2757 0.88819 0.17136 0.0
C43 C 0.3004 0.89994 0.21356 0.0
C44 C 0.24916 0.89348 0.21514 0.0
O45 O 0.269 0.90129 0.17202 0.0
O46 O 0.28185 0.88387 0.18398 0.0
O47 O 0.25389 0.88708 0.20278 0.0
O48 O 0.25692 0.90526 0.21926 0.0
C49 C 0.26642 0.93507 0.19532 0.0
O50 O 0.28735 0.89527 0.21859 0.0
O51 O 0.29987 0.90728 0.20076 0.0
In52 In 0.08796 0.73167 0.79937 0.0
O53 O 0.06735 0.74078 0.81362 0.0
O54 O 0.06267 0.72969 0.79196 0.0
C55 C 0.11098 0.72985 0.82073 0.0
C56 C 0.09066 0.70339 0.7862 0.0
C57 C 0.09453 0.75854 0.78427 0.0
O58 O 0.09677 0.72883 0.82457 0.0
O59 O 0.11335 0.73157 0.80633 0.0
O60 O 0.09554 0.7454 0.7777 0.0
O61 O 0.09029 0.75805 0.79833 0.0
C62 C 0.05731 0.73699 0.80354 0.0
O63 O 0.09331 0.71595 0.77896 0.0
O64 O 0.08619 0.70506 0.80017 0.0
In65 In 0.26865 0.09389 0.80438 0.0
O66 O 0.27879 0.10577 0.78304 0.0
O67 O 0.2943 0.09252 0.79722 0.0
C68 C 0.24283 0.10085 0.78767 0.0
C69 C 0.26527 0.06323 0.81048 0.0
C70 C 0.27163 0.11165 0.83035 0.0
O71 O 0.25062 0.11106 0.79488 0.0
O72 O 0.24825 0.08721 0.78859 0.0
O73 O 0.25877 0.10616 0.82583 0.0
O74 O 0.28316 0.10755 0.82222 0.0
C75 C 0.29255 0.10105 0.78531 0.0
O76 O 0.25864 0.07364 0.81849 0.0
O77 O 0.27456 0.06839 0.80031 0.0
In78 In 0.89746 0.27684 0.78969 0.0
O79 O 0.88779 0.29461 0.77275 0.0
O80 O 0.90052 0.30319 0.79232 0.0
C81 C 0.88397 0.25077 0.77842 0.0
C82 C 0.92685 0.27225 0.78001 0.0
C83 C 0.88455 0.27565 0.81829 0.0
O84 O 0.87911 0.26424 0.7749 0.0
O85 O 0.8954 0.25055 0.78766 0.0
O86 O 0.89844 0.27132 0.81587 0.0
O87 O 0.87758 0.28097 0.80648 0.0
C88 C 0.89294 0.30632 0.78007 0.0
O89 O 0.92371 0.27436 0.79428 0.0
O90 O 0.91533 0.27307 0.77091 0.0
In91 In 0.72582 0.90743 0.79122 0.0
O92 O 0.74371 0.92042 0.80586 0.0
O93 O 0.72583 0.93374 0.795 0.0
C94 C 0.72762 0.88328 0.81132 0.0
C95 C 0.6959 0.91014 0.78155 0.0
C96 C 0.74565 0.90031 0.76768 0.0
O97 O 0.72408 0.89687 0.81582 0.0
O98 O 0.73023 0.88206 0.79691 0.0
O99 O 0.73434 0.89166 0.77142 0.0
O100 O 0.74662 0.91274 0.77544 0.0
C101 C 0.7382 0.93378 0.80302 0.0
O102 O 0.70735 0.91349 0.77296 0.0
O103 O 0.69952 0.90602 0.79519 0.0
In104 In 0.20765 0.0968 0.28012 0.0
O105 O 0.22766 0.10333 0.29583 0.0
O106 O 0.20751 0.09361 0.30668 0.0
C107 C 0.2209 0.10653 0.25324 0.0
C108 C 0.20794 0.06606 0.27383 0.0
C109 C 0.18351 0.11683 0.28264 0.0
O110 O 0.22714 0.10879 0.26637 0.0
O111 O 0.20803 0.09945 0.25371 0.0
O112 O 0.18146 0.10222 0.28247 0.0
O113 O 0.19756 0.12108 0.28194 0.0
C114 C 0.22107 0.09922 0.30834 0.0
O115 O 0.19588 0.07429 0.27186 0.0
O116 O 0.21937 0.07317 0.27974 0.0
In117 In 0.89935 0.20858 0.27478 0.0
O118 O 0.9142 0.19614 0.25671 0.0
O119 O 0.9259 0.20731 0.27551 0.0
C120 C 0.87882 0.18508 0.27903 0.0
C121 C 0.89982 0.22343 0.30251 0.0
C122 C 0.89037 0.22738 0.25111 0.0
O123 O 0.89309 0.18257 0.27637 0.0
O124 O 0.87516 0.19929 0.27997 0.0
O125 O 0.88236 0.21594 0.25574 0.0
O126 O 0.90277 0.22964 0.25869 0.0
C127 C 0.92704 0.19995 0.26278 0.0
O128 O 0.89448 0.22944 0.29019 0.0
O129 O 0.90534 0.20987 0.30086 0.0
In130 In 0.78843 0.89978 0.2747 0.0
O131 O 0.7681 0.901 0.29172 0.0
O132 O 0.79092 0.8983 0.30114 0.0
C133 C 0.77084 0.89302 0.24935 0.0
C134 C 0.79519 0.92984 0.26877 0.0
C135 C 0.80994 0.87682 0.27471 0.0
O136 O 0.768 0.88727 0.26261 0.0
O137 O 0.78237 0.90209 0.24898 0.0
O138 O 0.81369 0.891 0.27616 0.0
O139 O 0.79551 0.87437 0.27333 0.0
C140 C 0.77645 0.89938 0.30374 0.0
O141 O 0.80377 0.91878 0.26415 0.0
O142 O 0.78385 0.92572 0.27721 0.0
In143 In 0.09208 0.79461 0.26868 0.0
O144 O 0.07147 0.80857 0.25926 0.0
O145 O 0.06673 0.78804 0.27235 0.0
C146 C 0.11494 0.81624 0.26822 0.0
C147 C 0.09527 0.78204 0.29723 0.0
C148 C 0.09745 0.77771 0.24261 0.0
O149 O 0.10089 0.81991 0.27078 0.0
O150 O 0.11723 0.80191 0.26601 0.0
O151 O 0.10197 0.77332 0.25592 0.0
O152 O 0.09034 0.79057 0.24247 0.0
C153 C 0.06135 0.79909 0.26425 0.0
O154 O 0.09614 0.77416 0.28481 0.0
O155 O 0.0923 0.79637 0.29531 0.0
In156 In 0.20121 0.90702 0.72937 0.0
O157 O 0.18837 0.92802 0.73942 0.0
O158 O 0.20811 0.93231 0.72519 0.0
C159 C 0.17362 0.89185 0.73096 0.0
C160 C 0.21511 0.89937 0.70233 0.0
C161 C 0.22021 0.89788 0.75289 0.0
O162 O 0.1793 0.89941 0.74221 0.0
O163 O 0.18158 0.89236 0.7186 0.0
O164 O 0.22087 0.91125 0.74686 0.0
O165 O 0.21024 0.88893 0.74681 0.0
C166 C 0.19779 0.93793 0.73403 0.0
O167 O 0.21917 0.89381 0.71535 0.0
O168 O 0.20388 0.90894 0.70286 0.0
In169 In 0.10312 0.20358 0.72172 0.0
O170 O 0.07671 0.19926 0.723 0.0
O171 O 0.08552 0.22215 0.72717 0.0
C172 C 0.1163 0.175 0.72094 0.0
C173 C 0.10823 0.21547 0.6932 0.0
C174 C 0.11594 0.21421 0.74837 0.0
O175 O 0.10259 0.17706 0.72599 0.0
O176 O 0.12279 0.18713 0.71578 0.0
O177 O 0.11967 0.21952 0.73515 0.0
O178 O 0.10597 0.2034 0.7481 0.0
C179 C 0.07379 0.21332 0.72652 0.0
O180 O 0.11594 0.2194 0.70512 0.0
O181 O 0.09777 0.20533 0.69559 0.0
In182 In 0.78669 0.08662 0.72699 0.0
O183 O 0.80252 0.07315 0.74341 0.0
O184 O 0.79012 0.06028 0.72619 0.0
C185 C 0.80529 0.11168 0.73099 0.0
C186 C 0.77903 0.08518 0.69643 0.0
C187 C 0.76279 0.09161 0.7471 0.0
O188 O 0.81078 0.09821 0.72855 0.0
O189 O 0.79061 0.11239 0.73132 0.0
O190 O 0.76572 0.10064 0.73587 0.0
O191 O 0.77152 0.07983 0.74784 0.0
C192 C 0.79912 0.05993 0.73788 0.0
O193 O 0.76974 0.08125 0.70713 0.0
O194 O 0.7924 0.08915 0.70111 0.0
In195 In 0.89853 0.79456 0.72363 0.0
O196 O 0.89523 0.77519 0.70592 0.0
O197 O 0.90223 0.79749 0.69743 0.0
C198 C 0.88991 0.77703 0.74837 0.0
C199 C 0.92798 0.80015 0.73321 0.0
C200 C 0.87574 0.81594 0.72036 0.0
O201 O 0.89335 0.77102 0.73536 0.0
O202 O 0.89048 0.79171 0.74867 0.0
O203 O 0.89001 0.81968 0.7206 0.0
O204 O 0.8731 0.80151 0.72163 0.0
C205 C 0.89855 0.78356 0.69425 0.0
O206 O 0.91666 0.80868 0.73712 0.0
O207 O 0.92458 0.7895 0.72366 0.0
In208 In 0.27162 0.20877 0.0932 0.0
O209 O 0.26097 0.19157 0.076 0.0
O210 O 0.27376 0.21072 0.06683 0.0
C211 C 0.2695 0.18934 0.11781 0.0
C212 C 0.30117 0.21952 0.09384 0.0
C213 C 0.24709 0.22802 0.09817 0.0
O214 O 0.27261 0.18445 0.10426 0.0
O215 O 0.26774 0.20391 0.11886 0.0
O216 O 0.26052 0.23091 0.1035 0.0
O217 O 0.24621 0.21568 0.09026 0.0
C218 C 0.26534 0.19896 0.06405 0.0
O219 O 0.28967 0.22811 0.09056 0.0
O220 O 0.29781 0.20539 0.09631 0.0
In221 In 0.27153 0.80083 0.90289 0.0
O222 O 0.26151 0.81065 0.92555 0.0
O223 O 0.27879 0.79306 0.92719 0.0
C224 C 0.27056 0.82942 0.88955 0.0
C225 C 0.29696 0.78616 0.89169 0.0
C226 C 0.24714 0.78333 0.89333 0.0
O227 O 0.25862 0.82252 0.89462 0.0
O228 O 0.28319 0.82226 0.89193 0.0
O229 O 0.2535 0.7935 0.88479 0.0
O230 O 0.25334 0.78168 0.90657 0.0
C231 C 0.26919 0.80165 0.93427 0.0
O232 O 0.28322 0.78229 0.88807 0.0
O233 O 0.29794 0.79745 0.90112 0.0
In234 In 0.21282 0.27204 0.90951 0.0
O235 O 0.22969 0.29202 0.91479 0.0
O236 O 0.20686 0.29785 0.90719 0.0
C237 C 0.23638 0.25173 0.90371 0.0
C238 C 0.2015 0.26114 0.93664 0.0
C239 C 0.19338 0.26804 0.88514 0.0
O240 O 0.23408 0.26368 0.89544 0.0
O241 O 0.22723 0.2504 0.91509 0.0
O242 O 0.18838 0.27037 0.8988 0.0
O243 O 0.20802 0.26795 0.88385 0.0
C244 C 0.22022 0.30264 0.91105 0.0
O245 O 0.19736 0.25581 0.92355 0.0
O246 O 0.21063 0.27271 0.93599 0.0
In247 In 0.73046 0.19799 0.9001 0.0
O248 O 0.71691 0.21945 0.89301 0.0
O249 O 0.70388 0.20003 0.90145 0.0
C250 C 0.7583 0.21149 0.89422 0.0
C251 C 0.73497 0.19437 0.93096 0.0
C252 C 0.7268 0.17563 0.87824 0.0
O253 O 0.74553 0.21858 0.89238 0.0
O254 O 0.75701 0.19756 0.89874 0.0
O255 O 0.72419 0.17303 0.89251 0.0
O256 O 0.7313 0.18928 0.87521 0.0
C257 C 0.70366 0.21374 0.89597 0.0
O258 O 0.73891 0.18409 0.92119 0.0
O259 O 0.72786 0.2059 0.92523 0.0
In260 In 0.79401 0.72427 0.90064 0.0
O261 O 0.7746 0.71018 0.88964 0.0
O262 O 0.79109 0.69784 0.90354 0.0
C263 C 0.77536 0.74729 0.88979 0.0
C264 C 0.79841 0.73076 0.93115 0.0
C265 C 0.82105 0.72431 0.88434 0.0
O266 O 0.78382 0.73907 0.88099 0.0
O267 O 0.77599 0.74365 0.90402 0.0
O268 O 0.81488 0.7365 0.88974 0.0
O269 O 0.81394 0.71187 0.8877 0.0
C270 C 0.77906 0.69722 0.89502 0.0
O271 O 0.80722 0.73594 0.92058 0.0
O272 O 0.78804 0.72145 0.92641 0.0
In273 In 0.72398 0.79304 0.09117 0.0
O274 O 0.70726 0.77268 0.08863 0.0
O275 O 0.69746 0.79541 0.091 0.0
C276 C 0.74797 0.77459 0.10024 0.0
C277 C 0.73233 0.79914 0.06152 0.0
C278 C 0.72266 0.81516 0.11355 0.0
O279 O 0.73422 0.7725 0.10507 0.0
O280 O 0.7495 0.7858 0.09091 0.0
O281 O 0.72276 0.81862 0.09922 0.0
O282 O 0.72308 0.80075 0.1164 0.0
C283 C 0.69508 0.78091 0.08964 0.0
O284 O 0.72202 0.78923 0.065 0.0
O285 O 0.7376 0.8068 0.07294 0.0
In286 In 0.2052 0.72273 0.09821 0.0
O287 O 0.2228 0.70716 0.10999 0.0
O288 O 0.20627 0.69623 0.09492 0.0
C289 C 0.21758 0.75064 0.1061 0.0
C290 C 0.20875 0.72638 0.06731 0.0
C291 C 0.17926 0.72092 0.11587 0.0
O292 O 0.22446 0.73791 0.10884 0.0
O293 O 0.2044 0.74923 0.09976 0.0
O294 O 0.17856 0.72167 0.10116 0.0
O295 O 0.19287 0.72089 0.12142 0.0
C296 C 0.21776 0.69465 0.10406 0.0
O297 O 0.19567 0.72817 0.07389 0.0
O298 O 0.2196 0.72192 0.07619 0.0
In299 In 0.79661 0.26433 0.09445 0.0
O300 O 0.80892 0.24962 0.07604 0.0
O301 O 0.79359 0.26741 0.06823 0.0
C302 C 0.82363 0.26497 0.11075 0.0
C303 C 0.78214 0.29149 0.10081 0.0
C304 C 0.77566 0.24247 0.1032 0.0
O305 O 0.81616 0.25262 0.10799 0.0
O306 O 0.8178 0.27709 0.10477 0.0
O307 O 0.78588 0.24785 0.11234 0.0
O308 O 0.77571 0.24843 0.08976 0.0
C309 C 0.80227 0.25608 0.06463 0.0
O310 O 0.77965 0.27908 0.10831 0.0
O311 O 0.79199 0.29027 0.08991 0.0
In312 In 0.59799 0.77881 0.70934 0.0
O313 O 0.60031 0.79699 0.72839 0.0
O314 O 0.59446 0.80491 0.70555 0.0
C315 C 0.60646 0.7531 0.72549 0.0
C316 C 0.56805 0.77046 0.70491 0.0
C317 C 0.62136 0.78094 0.68848 0.0
O318 O 0.60603 0.76643 0.73178 0.0
O319 O 0.60291 0.75295 0.71124 0.0
O320 O 0.60728 0.77954 0.68431 0.0
O321 O 0.62351 0.78149 0.70303 0.0
C322 C 0.59745 0.80845 0.71956 0.0
O323 O 0.57837 0.76838 0.69462 0.0
O324 O 0.57264 0.7777 0.71686 0.0
In325 In 0.22303 0.59743 0.71089 0.0
O326 O 0.2288 0.57545 0.69686 0.0
O327 O 0.21799 0.57288 0.71903 0.0
C328 C 0.22474 0.61366 0.68391 0.0
C329 C 0.19609 0.60442 0.72533 0.0
C330 C 0.24815 0.6053 0.72844 0.0
O331 O 0.23495 0.60387 0.68795 0.0
O332 O 0.21333 0.61473 0.69313 0.0
O333 O 0.2402 0.61521 0.72105 0.0
O334 O 0.24326 0.59151 0.72725 0.0
C335 C 0.2239 0.56628 0.70729 0.0
O336 O 0.20917 0.60934 0.73 0.0
O337 O 0.19656 0.59593 0.71329 0.0
In338 In 0.39956 0.23126 0.69627 0.0
O339 O 0.38544 0.2179 0.7141 0.0
O340 O 0.39922 0.2046 0.69829 0.0
C341 C 0.39489 0.25725 0.71334 0.0
C342 C 0.43091 0.2331 0.69651 0.0
C343 C 0.38177 0.23325 0.67027 0.0
O344 O 0.38921 0.24418 0.7171 0.0
O345 O 0.40278 0.25722 0.70091 0.0
O346 O 0.39272 0.22349 0.67143 0.0
O347 O 0.38003 0.24189 0.682 0.0
C348 C 0.38981 0.20457 0.70964 0.0
O349 O 0.42286 0.23777 0.6851 0.0
O350 O 0.42319 0.22656 0.70718 0.0
In351 In 0.76498 0.40541 0.70794 0.0
O352 O 0.7456 0.41795 0.69488 0.0
O353 O 0.76536 0.43127 0.70156 0.0
C354 C 0.76849 0.38147 0.68785 0.0
C355 C 0.79368 0.40884 0.72047 0.0
C356 C 0.74309 0.39782 0.72934 0.0
O357 O 0.76565 0.3952 0.68323 0.0
O358 O 0.7697 0.38 0.70245 0.0
O359 O 0.74773 0.38848 0.71897 0.0
O360 O 0.74982 0.4109 0.72925 0.0
C361 C 0.7519 0.43121 0.69556 0.0
O362 O 0.78143 0.40849 0.72859 0.0
O363 O 0.79145 0.40793 0.70596 0.0
In364 In 0.59721 0.22443 0.29454 0.0
O365 O 0.58116 0.24291 0.30457 0.0
O366 O 0.57055 0.22319 0.29399 0.0
C367 C 0.61539 0.21985 0.31983 0.0
C368 C 0.5977 0.19692 0.27931 0.0
C369 C 0.60931 0.24774 0.27711 0.0
O370 O 0.60138 0.22429 0.32097 0.0
O371 O 0.6199 0.21724 0.30609 0.0
O372 O 0.61548 0.24303 0.2896 0.0
O373 O 0.59718 0.24043 0.27313 0.0
C374 C 0.5687 0.23635 0.30036 0.0
O375 O 0.6023 0.20955 0.27335 0.0
O376 O 0.59235 0.19814 0.293 0.0
In377 In 0.77141 0.59544 0.30087 0.0
O378 O 0.78575 0.59367 0.27864 0.0
O379 O 0.79787 0.59289 0.30033 0.0
C380 C 0.74999 0.61125 0.28392 0.0
C381 C 0.75838 0.56716 0.3062 0.0
C382 C 0.77804 0.61431 0.32512 0.0
O383 O 0.75942 0.60178 0.27776 0.0
O384 O 0.75169 0.61299 0.29841 0.0
O385 O 0.77112 0.60141 0.32696 0.0
O386 O 0.78188 0.61734 0.31125 0.0
C387 C 0.79871 0.59288 0.28561 0.0
O388 O 0.75098 0.57977 0.30714 0.0
O389 O 0.77274 0.56878 0.30348 0.0
In390 In 0.4017 0.77062 0.29388 0.0
O391 O 0.41887 0.75338 0.30439 0.0
O392 O 0.42813 0.77372 0.29369 0.0
C393 C 0.38263 0.77469 0.31862 0.0
C394 C 0.39997 0.79787 0.27829 0.0
C395 C 0.39178 0.74629 0.27643 0.0
O396 O 0.39678 0.7709 0.32025 0.0
O397 O 0.37842 0.77681 0.3047 0.0
O398 O 0.38478 0.75085 0.28853 0.0
O399 O 0.40362 0.75425 0.27283 0.0
C400 C 0.43086 0.76077 0.30017 0.0
O401 O 0.39544 0.78504 0.27267 0.0
O402 O 0.40582 0.79697 0.29179 0.0
In403 In 0.22547 0.3999 0.2877 0.0
O404 O 0.23573 0.41868 0.30348 0.0
O405 O 0.22471 0.42593 0.28253 0.0
C406 C 0.22238 0.37693 0.30893 0.0
C407 C 0.19761 0.39694 0.27356 0.0
C408 C 0.2523 0.39379 0.27236 0.0
O409 O 0.22014 0.39109 0.31241 0.0
O410 O 0.2259 0.37452 0.29486 0.0
O411 O 0.23976 0.39684 0.26526 0.0
O412 O 0.25118 0.39367 0.28702 0.0
C413 C 0.23241 0.4298 0.29445 0.0
O414 O 0.21028 0.39268 0.26738 0.0
O415 O 0.19897 0.40314 0.28688 0.0
In416 In 0.70114 0.59349 0.76503 0.0
O417 O 0.68614 0.57604 0.75163 0.0
O418 O 0.7037 0.56704 0.76653 0.0
C419 C 0.67601 0.61255 0.76642 0.0
C420 C 0.71654 0.59605 0.79231 0.0
C421 C 0.72109 0.60388 0.74296 0.0
O422 O 0.68175 0.60772 0.75378 0.0
O423 O 0.68255 0.60729 0.7785 0.0
O424 O 0.71322 0.61292 0.7515 0.0
O425 O 0.71917 0.58956 0.74576 0.0
C426 C 0.69324 0.56417 0.75659 0.0
O427 O 0.72179 0.60119 0.77956 0.0
O428 O 0.70351 0.5892 0.79132 0.0
In429 In 0.40996 0.69692 0.76573 0.0
O430 O 0.40809 0.71891 0.7805 0.0
O431 O 0.40373 0.69721 0.79165 0.0
C432 C 0.40078 0.71677 0.74308 0.0
C433 C 0.44043 0.69051 0.76084 0.0
C434 C 0.39129 0.67165 0.76333 0.0
O435 O 0.39193 0.71278 0.75417 0.0
O436 O 0.41428 0.71093 0.74357 0.0
O437 O 0.39247 0.68187 0.75284 0.0
O438 O 0.39992 0.67387 0.77506 0.0
C439 C 0.40425 0.71188 0.79284 0.0
O440 O 0.4296 0.68368 0.75363 0.0
O441 O 0.43584 0.69967 0.77139 0.0
In442 In 0.2874 0.39516 0.77384 0.0
O443 O 0.26894 0.3895 0.79199 0.0
O444 O 0.28826 0.40323 0.79929 0.0
C445 C 0.27653 0.37671 0.7509 0.0
C446 C 0.28092 0.42274 0.76028 0.0
C447 C 0.31534 0.3811 0.77648 0.0
O448 O 0.26932 0.37835 0.76368 0.0
O449 O 0.28935 0.38389 0.75005 0.0
O450 O 0.31385 0.39454 0.77059 0.0
O451 O 0.30284 0.37512 0.78147 0.0
C452 C 0.27565 0.39659 0.80301 0.0
O453 O 0.29313 0.42093 0.76834 0.0
O454 O 0.27202 0.41111 0.75982 0.0
In455 In 0.5927 0.3036 0.76981 0.0
O456 O 0.60903 0.28684 0.78204 0.0
O457 O 0.59109 0.2972 0.79572 0.0
C458 C 0.60269 0.28561 0.74591 0.0
C459 C 0.56174 0.30484 0.76456 0.0
C460 C 0.60571 0.33233 0.77107 0.0
O461 O 0.61116 0.29585 0.75226 0.0
O462 O 0.58928 0.28423 0.7518 0.0
O463 O 0.60273 0.32538 0.75847 0.0
O464 O 0.60139 0.32513 0.78315 0.0
C465 C 0.60265 0.28807 0.79525 0.0
O466 O 0.57125 0.31377 0.75776 0.0
O467 O 0.56777 0.29618 0.77482 0.0
In468 In 0.71142 0.40329 0.22573 0.0
O469 O 0.69643 0.42351 0.23428 0.0
O470 O 0.7188 0.42871 0.22487 0.0
C471 C 0.68987 0.38036 0.22496 0.0
C472 C 0.724 0.40116 0.19704 0.0
C473 C 0.7271 0.39662 0.25224 0.0
O474 O 0.68621 0.3945 0.22302 0.0
O475 O 0.7042 0.37796 0.22714 0.0
O476 O 0.73234 0.39314 0.23893 0.0
O477 O 0.71406 0.4034 0.25214 0.0
C478 C 0.70663 0.43376 0.23145 0.0
O479 O 0.73183 0.3995 0.2094 0.0
O480 O 0.70978 0.40448 0.19913 0.0
In481 In 0.59439 0.71072 0.22057 0.0
O482 O 0.57447 0.69579 0.23012 0.0
O483 O 0.56904 0.71815 0.22083 0.0
C484 C 0.61831 0.69032 0.22086 0.0
C485 C 0.59425 0.71951 0.19047 0.0
C486 C 0.60231 0.72859 0.24531 0.0
O487 O 0.60435 0.68598 0.22283 0.0
O488 O 0.62004 0.70473 0.21849 0.0
O489 O 0.60398 0.73326 0.23144 0.0
O490 O 0.59671 0.71508 0.24658 0.0
C491 C 0.56419 0.70606 0.22768 0.0
O492 O 0.59569 0.72904 0.20162 0.0
O493 O 0.59239 0.70544 0.19453 0.0
In494 In 0.29521 0.58992 0.22892 0.0
O495 O 0.30668 0.57428 0.24698 0.0
O496 O 0.29673 0.56339 0.22708 0.0
C497 C 0.31821 0.61089 0.22413 0.0
C498 C 0.27982 0.59015 0.20152 0.0
C499 C 0.27688 0.59936 0.25273 0.0
O500 O 0.32111 0.59671 0.22696 0.0
O501 O 0.30391 0.61417 0.22335 0.0
O502 O 0.27329 0.58799 0.2441 0.0
O503 O 0.2895 0.60603 0.24918 0.0
C504 C 0.30329 0.5617 0.24016 0.0
O505 O 0.27385 0.59457 0.21422 0.0
O506 O 0.29363 0.58508 0.20263 0.0
In507 In 0.40789 0.29462 0.22517 0.0
O508 O 0.39984 0.27527 0.20899 0.0
O509 O 0.40998 0.2954 0.19858 0.0
C510 C 0.39779 0.27322 0.24597 0.0
C511 C 0.43763 0.30115 0.23334 0.0
C512 C 0.3896 0.32026 0.227 0.0
O513 O 0.38871 0.28252 0.23905 0.0
O514 O 0.41192 0.27434 0.242 0.0
O515 O 0.3941 0.31273 0.2388 0.0
O516 O 0.39468 0.31514 0.21417 0.0
C517 C 0.40369 0.28221 0.19659 0.0
O518 O 0.42608 0.30815 0.23911 0.0
O519 O 0.43425 0.29157 0.22271 0.0
In520 In 0.7726 0.70955 0.59043 0.0
O521 O 0.75859 0.69432 0.57376 0.0
O522 O 0.77293 0.71201 0.56398 0.0
C523 C 0.77256 0.68802 0.61335 0.0
C524 C 0.80226 0.71997 0.58919 0.0
C525 C 0.75042 0.73 0.59979 0.0
O526 O 0.7751 0.68439 0.59929 0.0
O527 O 0.77012 0.70233 0.61569 0.0
O528 O 0.7645 0.73121 0.60388 0.0
O529 O 0.74763 0.71869 0.59084 0.0
C530 C 0.763 0.70139 0.56163 0.0
O531 O 0.79071 0.72853 0.58601 0.0
O532 O 0.79888 0.70599 0.59234 0.0
In533 In 0.77263 0.29086 0.40687 0.0
O534 O 0.78928 0.27119 0.40136 0.0
O535 O 0.79917 0.2924 0.40974 0.0
C536 C 0.74641 0.27505 0.39929 0.0
C537 C 0.76697 0.2934 0.43762 0.0
C538 C 0.77367 0.31389 0.3854 0.0
O539 O 0.75985 0.2701 0.3959 0.0
O540 O 0.74624 0.28795 0.40634 0.0
O541 O 0.77406 0.31671 0.39985 0.0
O542 O 0.77294 0.29963 0.38195 0.0
C543 C 0.80148 0.27867 0.40484 0.0
O544 O 0.76372 0.30418 0.42811 0.0
O545 O 0.7738 0.28178 0.4317 0.0
In546 In 0.7015 0.77046 0.40344 0.0
O547 O 0.69041 0.75122 0.41799 0.0
O548 O 0.69935 0.77089 0.43001 0.0
C549 C 0.67934 0.77508 0.38161 0.0
C550 C 0.71347 0.7994 0.40554 0.0
C551 C 0.72181 0.74881 0.39277 0.0
O552 O 0.67611 0.76967 0.39495 0.0
O553 O 0.69354 0.77828 0.37952 0.0
O554 O 0.7249 0.75747 0.40426 0.0
O555 O 0.70875 0.75136 0.38653 0.0
C556 C 0.69323 0.75754 0.43094 0.0
O557 O 0.7216 0.78758 0.40216 0.0
O558 O 0.69931 0.79653 0.40851 0.0
In559 In 0.22673 0.69945 0.40242 0.0
O560 O 0.2382 0.68729 0.42314 0.0
O561 O 0.22213 0.70552 0.42782 0.0
C562 C 0.22615 0.6716 0.38759 0.0
C563 C 0.20065 0.715 0.39443 0.0
C564 C 0.25063 0.71785 0.39313 0.0
O565 O 0.23849 0.67789 0.39247 0.0
O566 O 0.21385 0.67903 0.39078 0.0
O567 O 0.24418 0.70805 0.38424 0.0
O568 O 0.24474 0.71871 0.40658 0.0
C569 C 0.23183 0.69588 0.43324 0.0
O570 O 0.21365 0.71719 0.38786 0.0
O571 O 0.20073 0.70483 0.40511 0.0
In572 In 0.29951 0.22982 0.40249 0.0
O573 O 0.28034 0.21395 0.3939 0.0
O574 O 0.29766 0.20372 0.40844 0.0
C575 C 0.27759 0.25032 0.39286 0.0
C576 C 0.30686 0.23987 0.43137 0.0
C577 C 0.3247 0.23022 0.38349 0.0
O578 O 0.28526 0.24188 0.38354 0.0
O579 O 0.28076 0.24822 0.40707 0.0
O580 O 0.31673 0.24213 0.38669 0.0
O581 O 0.32028 0.21792 0.39025 0.0
C582 C 0.2853 0.20183 0.4006 0.0
O583 O 0.31354 0.24492 0.41929 0.0
O584 O 0.29725 0.22899 0.42893 0.0
In585 In 0.22721 0.29186 0.58333 0.0
O586 O 0.21197 0.27094 0.58817 0.0
O587 O 0.20069 0.29155 0.58006 0.0
C588 C 0.24952 0.27048 0.58981 0.0
C589 C 0.23403 0.3034 0.55488 0.0
C590 C 0.22853 0.31377 0.60598 0.0
O591 O 0.24095 0.27647 0.60016 0.0
O592 O 0.24655 0.27492 0.57611 0.0
O593 O 0.2403 0.30936 0.59835 0.0
O594 O 0.21585 0.3076 0.60177 0.0
C595 C 0.19931 0.27759 0.58466 0.0
O596 O 0.23859 0.3098 0.5673 0.0
O597 O 0.22505 0.29192 0.55689 0.0
In598 In 0.70679 0.22036 0.60104 0.0
O599 O 0.69842 0.24029 0.58574 0.0
O600 O 0.70642 0.21978 0.57438 0.0
C601 C 0.68127 0.21862 0.61933 0.0
C602 C 0.71862 0.19119 0.59993 0.0
C603 C 0.72621 0.24153 0.61414 0.0
O604 O 0.68046 0.22275 0.60519 0.0
O605 O 0.69475 0.21489 0.62387 0.0
O606 O 0.71435 0.23618 0.62096 0.0
O607 O 0.72875 0.23572 0.60086 0.0
C608 C 0.70148 0.23359 0.57302 0.0
O609 O 0.72676 0.203 0.60324 0.0
O610 O 0.70454 0.19413 0.59678 0.0
In611 In 0.29654 0.77204 0.59334 0.0
O612 O 0.27635 0.78568 0.60337 0.0
O613 O 0.29411 0.79856 0.59162 0.0
C614 C 0.2798 0.74776 0.60467 0.0
C615 C 0.29843 0.76816 0.5622 0.0
C616 C 0.32409 0.77156 0.60875 0.0
O617 O 0.28607 0.75782 0.61338 0.0
O618 O 0.28172 0.7501 0.5903 0.0
O619 O 0.31921 0.76026 0.60071 0.0
O620 O 0.31543 0.78343 0.60842 0.0
C621 C 0.28135 0.79885 0.59906 0.0
O622 O 0.30909 0.7637 0.57132 0.0
O623 O 0.28752 0.77554 0.56872 0.0
H624 H 0.95583 0.20959 0.27227 0.0
H625 H 0.97837 0.21439 0.25547 0.0
H626 H 0.95418 0.19337 0.21667 0.0
H627 H 0.9315 0.18858 0.23338 0.0
H628 H 0.99761 0.19583 0.23432 0.0
H629 H 0.96045 0.24032 0.20474 0.0
H630 H 0.95503 0.23166 0.22315 0.0
H631 H 0.95328 0.22061 0.20545 0.0
C632 C 0.95547 0.20557 0.26029 0.0
C633 C 0.94184 0.19893 0.25407 0.0
C634 C 0.96834 0.20833 0.2507 0.0
C635 C 0.96775 0.20451 0.2348 0.0
C636 C 0.95472 0.19659 0.22888 0.0
H637 H 0.05049 0.23198 0.18049 0.0
H638 H 0.02646 0.21759 0.18628 0.0
C639 C 0.94183 0.1938 0.23847 0.0
C640 C 0.97996 0.21055 0.22426 0.0
H641 H 0.98702 0.23998 0.19833 0.0
C642 C 0.99531 0.20525 0.22618 0.0
C643 C 0.97682 0.22295 0.2138 0.0
C644 C 0.96054 0.22935 0.21165 0.0
C645 C 0.00775 0.21247 0.21838 0.0
C646 C 0.00467 0.22523 0.20835 0.0
C647 C 0.98925 0.23009 0.20592 0.0
C648 C 0.01746 0.23499 0.2022 0.0
C649 C 0.0242 0.20706 0.22168 0.0
C650 C 0.01981 0.24989 0.20853 0.0
C651 C 0.03345 0.25814 0.20524 0.0
C652 C 0.0449 0.2516 0.19551 0.0
C653 C 0.04187 0.23728 0.18807 0.0
C654 C 0.02822 0.229 0.19143 0.0
H655 H 0.02467 0.1983 0.23122 0.0
H656 H 0.02918 0.2017 0.211 0.0
H657 H 0.03169 0.21713 0.22492 0.0
H658 H 0.01157 0.25472 0.21682 0.0
H659 H 0.03545 0.26917 0.21108 0.0
H660 H 0.77952 0.95577 0.27819 0.0
H661 H 0.77471 0.9791 0.26251 0.0
H662 H 0.80693 0.9625 0.22762 0.0
H663 H 0.81191 0.93911 0.2433 0.0
H664 H 0.7953 0.00296 0.2461 0.0
H665 H 0.76099 0.96287 0.20794 0.0
H666 H 0.76644 0.95757 0.22759 0.0
H667 H 0.78089 0.95783 0.21247 0.0
C668 C 0.78599 0.95734 0.26744 0.0
C669 C 0.79594 0.94557 0.26187 0.0
C670 C 0.78322 0.97065 0.2585 0.0
C671 C 0.79028 0.97231 0.24384 0.0
C672 C 0.8013 0.96129 0.23888 0.0
H673 H 0.76337 0.0524 0.1857 0.0
H674 H 0.77821 0.0294 0.19396 0.0
C675 C 0.80419 0.94801 0.24789 0.0
C676 C 0.78445 0.98444 0.23311 0.0
H677 H 0.7586 0.98975 0.20324 0.0
C678 C 0.78756 0.00012 0.2365 0.0
C679 C 0.77421 0.98057 0.22075 0.0
C680 C 0.7703 0.96382 0.21691 0.0
C681 C 0.78025 0.01213 0.22811 0.0
C682 C 0.76959 0.00825 0.21612 0.0
C683 C 0.76689 0.99258 0.21237 0.0
C684 C 0.75986 0.02035 0.20871 0.0
C685 C 0.78329 0.02888 0.23263 0.0
C686 C 0.74442 0.02235 0.21373 0.0
C687 C 0.73594 0.03545 0.2091 0.0
C688 C 0.74278 0.04667 0.19931 0.0
C689 C 0.75779 0.04393 0.19324 0.0
C690 C 0.76632 0.03086 0.19799 0.0
H691 H 0.79107 0.02986 0.24295 0.0
H692 H 0.78882 0.03509 0.2227 0.0
H693 H 0.7721 0.03487 0.23526 0.0
H694 H 0.73928 0.01427 0.22199 0.0
H695 H 0.7244 0.03726 0.21393 0.0
H696 H 0.03693 0.78217 0.27532 0.0
H697 H 0.01357 0.77494 0.26064 0.0
H698 H 0.02672 0.80655 0.22379 0.0
H699 H 0.05009 0.81402 0.2385 0.0
H700 H 0.9878 0.79419 0.24271 0.0
H701 H 0.02951 0.75821 0.20791 0.0
H702 H 0.03428 0.76484 0.22734 0.0
H703 H 0.03381 0.77849 0.21151 0.0
C704 C 0.03455 0.78802 0.26437 0.0
C705 C 0.04537 0.79853 0.25797 0.0
C706 C 0.02123 0.78387 0.25599 0.0
C707 C 0.01863 0.79008 0.24109 0.0
C708 C 0.02864 0.80163 0.23528 0.0
H709 H 0.94009 0.753 0.18645 0.0
H710 H 0.9626 0.76962 0.19238 0.0
C711 C 0.04191 0.80593 0.24373 0.0
C712 C 0.00681 0.78276 0.23099 0.0
H713 H 0.00276 0.75356 0.20416 0.0
C714 C 0.99101 0.78558 0.23399 0.0
C715 C 0.01117 0.77144 0.21978 0.0
C716 C 0.0281 0.76794 0.21637 0.0
C717 C 0.97936 0.7769 0.22645 0.0
C718 C 0.98375 0.76512 0.21574 0.0
C719 C -0.00047 0.76271 0.21229 0.0
C720 C 0.97215 0.75397 0.2097 0.0
C721 C 0.96247 0.77971 0.23057 0.0
C722 C 0.97062 0.73939 0.21696 0.0
C723 C 0.9578 0.72992 0.21367 0.0
C724 C 0.9464 0.73489 0.203 0.0
C725 C 0.94873 0.74886 0.1947 0.0
C726 C 0.96151 0.75841 0.19811 0.0
H727 H 0.96108 0.78884 0.23967 0.0
H728 H 0.95599 0.78342 0.21999 0.0
H729 H 0.95707 0.76873 0.23482 0.0
H730 H 0.9788 0.73582 0.22593 0.0
H731 H 0.95631 0.71921 0.22022 0.0
H732 H 0.23845 0.94708 0.18597 0.0
H733 H 0.22559 0.97014 0.19688 0.0
H734 H 0.26749 0.98161 0.22223 0.0
H735 H 0.28048 0.95864 0.21138 0.0
H736 H 0.23613 0.97351 0.23954 0.0
H737 H 0.23336 0.02054 0.19463 0.0
H738 H 0.23049 0.00043 0.18903 0.0
H739 H 0.24941 0.00685 0.19518 0.0
C740 C 0.24511 0.95482 0.19342 0.0
C741 C 0.26042 0.95098 0.19797 0.0
C742 C 0.23773 0.96796 0.19965 0.0
C743 C 0.2456 0.97743 0.21039 0.0
C744 C 0.26128 0.97438 0.21392 0.0
H745 H 0.23127 0.04546 0.27958 0.0
H746 H 0.23762 0.02222 0.26445 0.0
C747 C 0.26869 0.9613 0.20766 0.0
C748 C 0.23693 0.98896 0.21973 0.0
H749 H 0.22289 0.02616 0.21944 0.0
C750 C 0.23311 0.985 0.23514 0.0
C751 C 0.23281 0.00373 0.2138 0.0
C752 C 0.23669 0.00829 0.19726 0.0
C753 C 0.22567 0.99569 0.24501 0.0
C754 C 0.22227 0.0108 0.23936 0.0
C755 C 0.2255 0.01453 0.22372 0.0
C756 C 0.21701 0.0234 0.24989 0.0
C757 C 0.22168 0.99079 0.26144 0.0
C758 C 0.20317 0.03163 0.24688 0.0
C759 C 0.19947 0.04494 0.25559 0.0
C760 C 0.20972 0.05029 0.26722 0.0
C761 C 0.22314 0.04156 0.27072 0.0
C762 C 0.22676 0.02825 0.26211 0.0
H763 H 0.22025 0.97793 0.26231 0.0
H764 H 0.23132 0.99424 0.26937 0.0
H765 H 0.21079 0.99649 0.26554 0.0
H766 H 0.19555 0.02808 0.23744 0.0
H767 H 0.18913 0.05154 0.25256 0.0
H768 H 0.95464 0.78488 0.72529 0.0
H769 H 0.97663 0.77925 0.74257 0.0
H770 H 0.95678 0.80907 0.77789 0.0
H771 H 0.93475 0.81493 0.76059 0.0
H772 H 0.99845 0.80051 0.76267 0.0
H773 H 0.95722 0.76094 0.79393 0.0
H774 H 0.95359 0.76711 0.77411 0.0
H775 H 0.9515 0.78077 0.78981 0.0
C776 C 0.95521 0.79064 0.73653 0.0
C777 C 0.94295 0.80023 0.74166 0.0
C778 C 0.96775 0.78741 0.74638 0.0
C779 C 0.96814 0.79361 0.76151 0.0
C780 C 0.95658 0.80416 0.76624 0.0
H781 H 0.04633 0.76188 0.8201 0.0
H782 H 0.02295 0.77716 0.81384 0.0
C783 C 0.94407 0.80754 0.75632 0.0
C784 C 0.97958 0.7874 0.77274 0.0
H785 H 0.98388 0.7584 0.79972 0.0
C786 C 0.99528 0.79161 0.7711 0.0
C787 C 0.97529 0.7757 0.78356 0.0
C788 C 0.95851 0.77075 0.78554 0.0
C789 C 0.00697 0.78385 0.77953 0.0
C790 C 0.00275 0.7716 0.78977 0.0
C791 C 0.98698 0.7679 0.79195 0.0
C792 C 0.0147 0.76107 0.79624 0.0
C793 C 0.02384 0.78805 0.7767 0.0
C794 C 0.01723 0.74663 0.78897 0.0
C795 C 0.03054 0.73795 0.79245 0.0
C796 C 0.04143 0.74355 0.80333 0.0
C797 C 0.03809 0.75727 0.8117 0.0
C798 C 0.02481 0.76605 0.80809 0.0
H799 H 0.02517 0.79727 0.76767 0.0
H800 H 0.02915 0.7923 0.78772 0.0
H801 H 0.03046 0.77756 0.77293 0.0
H802 H 0.00949 0.74263 0.77981 0.0
H803 H 0.03283 0.7274 0.78586 0.0
H804 H 0.27717 0.03904 0.79369 0.0
H805 H 0.26243 0.01634 0.78482 0.0
H806 H 0.22469 0.02853 0.8158 0.0
H807 H 0.23934 0.05138 0.8247 0.0
H808 H 0.24569 0.99014 0.79832 0.0
H809 H 0.2074 0.03487 0.77058 0.0
H810 H 0.22618 0.03969 0.77878 0.0
H811 H 0.20987 0.03601 0.79139 0.0
C812 C 0.26599 0.03658 0.79906 0.0
C813 C 0.25926 0.04713 0.80965 0.0
C814 C 0.25756 0.02363 0.79395 0.0
C815 C 0.24234 0.02108 0.79936 0.0
C816 C 0.23634 0.03053 0.8113 0.0
H817 H 0.1812 0.95029 0.75825 0.0
H818 H 0.18964 0.97197 0.77484 0.0
C819 C 0.24479 0.04348 0.81646 0.0
C820 C 0.23221 0.00999 0.79092 0.0
H821 H 0.20278 0.00865 0.76401 0.0
C822 C 0.23613 0.99412 0.79104 0.0
C823 C 0.21988 0.01534 0.78127 0.0
C824 C 0.21558 0.03241 0.78033 0.0
C825 C 0.22823 0.98346 0.78147 0.0
C826 C 0.21625 0.98889 0.77152 0.0
C827 C 0.21196 0.00464 0.77174 0.0
C828 C 0.209 0.9784 0.76002 0.0
C829 C 0.23305 0.96652 0.78158 0.0
C830 C 0.21664 0.97554 0.74585 0.0
C831 C 0.21186 0.96322 0.73634 0.0
C832 C 0.19941 0.9536 0.74095 0.0
C833 C 0.19083 0.95751 0.7544 0.0
C834 C 0.19566 0.96983 0.76393 0.0
H835 H 0.24162 0.96392 0.79096 0.0
H836 H 0.22266 0.95895 0.78318 0.0
H837 H 0.23837 0.96347 0.77017 0.0
H838 H 0.22695 0.98215 0.74269 0.0
H839 H 0.21868 0.96051 0.72605 0.0
H840 H 0.04599 0.19737 0.72598 0.0
H841 H 0.02027 0.20736 0.73385 0.0
H842 H 0.0409 0.25202 0.74456 0.0
H843 H 0.06631 0.24236 0.73643 0.0
H844 H 0.01123 0.21874 0.76245 0.0
H845 H 0.00447 0.26447 0.71735 0.0
H846 H 0.019 0.24928 0.71596 0.0
H847 H 0.02253 0.2663 0.72777 0.0
C848 C 0.04495 0.20936 0.72983 0.0
C849 C 0.0581 0.21912 0.73048 0.0
C850 C 0.03031 0.21503 0.73435 0.0
C851 C 0.02868 0.23051 0.73952 0.0
C852 C 0.04183 0.24018 0.74023 0.0
H853 H 0.95401 0.2691 0.79669 0.0
H854 H 0.97906 0.25911 0.787 0.0
C855 C 0.05636 0.23459 0.73564 0.0
C856 C 0.01341 0.23652 0.74483 0.0
H857 H 0.9878 0.26653 0.73966 0.0
C858 C 0.00599 0.2291 0.75739 0.0
C859 C 0.00658 0.24995 0.73809 0.0
C860 C 0.01348 0.25786 0.72394 0.0
C861 C 0.99205 0.23496 0.76364 0.0
C862 C 0.98563 0.24884 0.75739 0.0
C863 C 0.9929 0.25605 0.74461 0.0
C864 C 0.97091 0.25563 0.76332 0.0
C865 C 0.9842 0.2261 0.77668 0.0
C866 C 0.95833 0.25764 0.75307 0.0
C867 C 0.94422 0.26359 0.75848 0.0
C868 C 0.94238 0.2676 0.77427 0.0
C869 C 0.95511 0.26604 0.78447 0.0
C870 C 0.96934 0.26019 0.77899 0.0
H871 H 0.98825 0.21379 0.77723 0.0
H872 H 0.98708 0.23173 0.78799 0.0
H873 H 0.97132 0.22616 0.77528 0.0
H874 H 0.95933 0.25429 0.74092 0.0
H875 H 0.93462 0.26465 0.75032 0.0
H876 H 0.81375 0.05687 0.766 0.0
H877 H 0.8119 0.03445 0.78355 0.0
H878 H 0.78879 0.00812 0.7474 0.0
H879 H 0.79074 0.03035 0.7298 0.0
H880 H 0.78334 0.02473 0.79243 0.0
H881 H 0.81515 0.97469 0.76755 0.0
H882 H 0.81916 0.99457 0.76176 0.0
H883 H 0.80344 0.98382 0.75282 0.0
C884 C 0.80883 0.04609 0.76159 0.0
C885 C 0.80223 0.0454 0.74658 0.0
C886 C 0.80775 0.03331 0.77166 0.0
C887 C 0.80024 0.0196 0.76679 0.0
C888 C 0.7949 0.01846 0.75134 0.0
H889 H 0.72986 0.96363 0.79597 0.0
H890 H 0.74758 0.98559 0.7926 0.0
C891 C 0.79595 0.03122 0.74129 0.0
C892 C 0.79538 0.00769 0.77832 0.0
H893 H 0.79151 0.96835 0.78236 0.0
C894 C 0.7855 0.0124 0.79054 0.0
C895 C 0.79839 0.99164 0.77607 0.0
C896 C 0.80976 0.98592 0.76393 0.0
C897 C 0.77736 0.00142 0.79954 0.0
C898 C 0.779 0.9854 0.79606 0.0
C899 C 0.79006 0.98067 0.78491 0.0
C900 C 0.76781 0.97359 0.80187 0.0
C901 C 0.76654 0.00714 0.81219 0.0
C902 C 0.77316 0.95968 0.80865 0.0
C903 C 0.76301 0.94705 0.81055 0.0
C904 C 0.74743 0.94811 0.80549 0.0
C905 C 0.7418 0.96247 0.79998 0.0
C906 C 0.75192 0.97509 0.79813 0.0
H907 H 0.77089 0.01821 0.81735 0.0
H908 H 0.75489 0.00952 0.80706 0.0
H909 H 0.76519 0.99835 0.82162 0.0
H910 H 0.78538 0.95827 0.81156 0.0
H911 H 0.76769 0.93612 0.81483 0.0
H912 H 0.2397 0.1814 0.05731 0.0
H913 H 0.22328 0.18401 0.03409 0.0
H914 H 0.25769 0.21421 0.01318 0.0
H915 H 0.27406 0.21177 0.03634 0.0
H916 H 0.21278 0.2146 0.02712 0.0
H917 H 0.24188 0.18787 0.97606 0.0
H918 H 0.24601 0.18196 0.9959 0.0
H919 H 0.25506 0.19911 0.98784 0.0
C920 C 0.24405 0.18808 0.0475 0.0
C921 C 0.25809 0.19651 0.04865 0.0
C922 C 0.23462 0.1896 0.03428 0.0
C923 C 0.23929 0.19927 0.02195 0.0
C924 C 0.25398 0.20649 0.02249 0.0
H925 H 0.20938 0.2697 0.96624 0.0
H926 H 0.21328 0.25201 0.98821 0.0
C927 C 0.26332 0.20514 0.03575 0.0
C928 C 0.22797 0.20422 0.00994 0.0
H929 H 0.22486 0.20986 0.97074 0.0
C930 C 0.21512 0.21319 0.01476 0.0
C931 C 0.23096 0.20226 0.99387 0.0
C932 C 0.24415 0.19214 0.98809 0.0
C933 C 0.20603 0.22142 0.00392 0.0
C934 C 0.20997 0.22063 0.98795 0.0
C935 C 0.22192 0.21053 0.98304 0.0
C936 C 0.20366 0.23181 0.97646 0.0
C937 C 0.1928 0.23149 0.00968 0.0
C938 C 0.19639 0.22644 0.96283 0.0
C939 C 0.19404 0.23658 0.95029 0.0
C940 C 0.19925 0.25213 0.95113 0.0
C941 C 0.20526 0.25779 0.96528 0.0
C942 C 0.20745 0.24769 0.97786 0.0
H943 H 0.18815 0.22713 0.02097 0.0
H944 H 0.19715 0.24355 0.01154 0.0
H945 H 0.18316 0.23193 0.00103 0.0
H946 H 0.19346 0.21421 0.96154 0.0
H947 H 0.18939 0.23188 0.93952 0.0
H948 H 0.24372 0.81277 0.94977 0.0
H949 H 0.23217 0.8014 0.97324 0.0
H950 H 0.27241 0.77166 0.97871 0.0
H951 H 0.28392 0.78278 0.95512 0.0
H952 H 0.24407 0.75569 0.97536 0.0
H953 H 0.23961 0.80202 0.02058 0.0
H954 H 0.23249 0.80728 0.00156 0.0
H955 H 0.2529 0.80336 0.00427 0.0
C956 C 0.25037 0.80423 0.9563 0.0
C957 C 0.26464 0.79853 0.95055 0.0
C958 C 0.24375 0.79775 0.96972 0.0
C959 C 0.25143 0.78566 0.97764 0.0
C960 C 0.26631 0.78096 0.9727 0.0
H961 H 0.23452 0.72029 0.04998 0.0
H962 H 0.24285 0.73401 0.02647 0.0
C963 C 0.27289 0.78737 0.95927 0.0
C964 C 0.24313 0.77641 0.98959 0.0
H965 H 0.22663 0.77816 0.02575 0.0
C966 C 0.24028 0.76059 0.9864 0.0
C967 C 0.23796 0.78294 0.00381 0.0
C968 C 0.24097 0.7998 0.00788 0.0
C969 C 0.2326 0.75102 0.99718 0.0
C970 C 0.22783 0.75742 0.01159 0.0
C971 C 0.23027 0.77334 0.01463 0.0
C972 C 0.22163 0.74752 0.02425 0.0
C973 C 0.22969 0.73414 0.99311 0.0
C974 C 0.20679 0.75036 0.03056 0.0
C975 C 0.20195 0.74244 0.04398 0.0
C976 C 0.21202 0.7318 0.05135 0.0
C977 C 0.22651 0.72839 0.04449 0.0
C978 C 0.23128 0.7362 0.03106 0.0
H979 H 0.22982 0.73224 0.98028 0.0
H980 H 0.23903 0.72684 0.99831 0.0
H981 H 0.21831 0.7301 0.99781 0.0
H982 H 0.19923 0.75911 0.02545 0.0
H983 H 0.19078 0.74538 0.04911 0.0
H984 H 0.72602 0.21354 0.9546 0.0
H985 H 0.74086 0.21915 0.97831 0.0
H986 H 0.77337 0.18249 0.96685 0.0
H987 H 0.75849 0.17668 0.94311 0.0
H988 H 0.75385 0.19831 0.00475 0.0
H989 H 0.79702 0.22703 0.96536 0.0
H990 H 0.77721 0.22331 0.95924 0.0
H991 H 0.79071 0.20744 0.96102 0.0
C992 C 0.73603 0.20633 0.95738 0.0
C993 C 0.74119 0.19477 0.94698 0.0
C994 C 0.7445 0.20957 0.9709 0.0
C995 C 0.75827 0.20136 0.97412 0.0
C996 C 0.76278 0.18897 0.96444 0.0
H997 H 0.81357 0.22755 0.05618 0.0
H998 H 0.8059 0.21261 0.03305 0.0
C999 C 0.75422 0.18562 0.95096 0.0
C1000 C 0.76869 0.2071 0.98654 0.0
H1001 H 0.80019 0.23083 0.99233 0.0
C1002 C 0.76418 0.20513 0.00212 0.0
C1003 C 0.78203 0.21613 0.98291 0.0
C1004 C 0.7871 0.21873 0.96624 0.0
C1005 C 0.77244 0.21242 0.01422 0.0
C1006 C 0.78545 0.22188 0.01054 0.0
C1007 C 0.79027 0.22344 0.99501 0.0
C1008 C 0.79296 0.23157 0.0226 0.0
C1009 C 0.76677 0.21064 0.0308 0.0
C1010 C 0.78883 0.24735 0.02386 0.0
C1011 C 0.79312 0.2559 0.03704 0.0
C1012 C 0.80165 0.24876 0.04908 0.0
C1013 C 0.807 0.23336 0.04707 0.0
C1014 C 0.80259 0.22478 0.03393 0.0
H1015 H 0.75583 0.20371 0.03155 0.0
H1016 H 0.77587 0.20472 0.03787 0.0
H1017 H 0.76468 0.2223 0.03606 0.0
H1018 H 0.78141 0.25274 0.01516 0.0
H1019 H 0.78887 0.26774 0.03826 0.0
H1020 H 0.81352 0.75684 0.9413 0.0
H1021 H 0.80718 0.77206 0.96463 0.0
H1022 H 0.77529 0.7361 0.97949 0.0
H1023 H 0.78141 0.72089 0.95614 0.0
H1024 H 0.77423 0.78101 0.96903 0.0
H1025 H 0.79941 0.74989 0.02001 0.0
H1026 H 0.80717 0.74791 0.00048 0.0
H1027 H 0.78974 0.73764 0.00597 0.0
C1028 C 0.80555 0.75193 0.9498 0.0
C1029 C 0.79787 0.73771 0.94688 0.0
C1030 C 0.8019 0.76068 0.96307 0.0
C1031 C 0.79079 0.75518 0.97372 0.0
C1032 C 0.78403 0.74044 0.97145 0.0
H1033 H 0.72154 0.78646 0.03446 0.0
H1034 H 0.7373 0.77945 0.01171 0.0
C1035 C 0.78752 0.73177 0.95811 0.0
C1036 C 0.78459 0.76558 0.98598 0.0
H1037 H 0.77893 0.76813 0.02526 0.0
C1038 C 0.7755 0.77841 0.98135 0.0
C1039 C 0.7863 0.76213 0.00199 0.0
C1040 C 0.79629 0.74872 0.00748 0.0
C1041 C 0.76733 0.78737 0.99235 0.0
C1042 C 0.76839 0.7834 0.00828 0.0
C1043 C 0.77817 0.77112 0.01298 0.0
C1044 C 0.75827 0.79069 0.02014 0.0
C1045 C 0.75723 0.8007 0.9869 0.0
C1046 C 0.76475 0.79983 0.03205 0.0
C1047 C 0.7557 0.80406 0.04495 0.0
C1048 C 0.74019 0.79887 0.04622 0.0
C1049 C 0.73345 0.79065 0.03374 0.0
C1050 C 0.74243 0.78663 0.02076 0.0
H1051 H 0.76009 0.80427 0.97477 0.0
H1052 H 0.74481 0.79705 0.98726 0.0
H1053 H 0.75858 0.81094 0.99474 0.0
H1054 H 0.77699 0.80298 0.03176 0.0
H1055 H 0.76124 0.8103 0.05445 0.0
H1056 H 0.5601 0.74516 0.68737 0.0
H1057 H 0.53822 0.7274 0.69233 0.0
H1058 H 0.52059 0.75883 0.72743 0.0
H1059 H 0.54254 0.77649 0.72277 0.0
H1060 H 0.53428 0.71632 0.7267 0.0
H1061 H 0.48187 0.743 0.69916 0.0
H1062 H 0.50142 0.74614 0.69182 0.0
H1063 H 0.495 0.75605 0.70911 0.0
C1064 C 0.55127 0.74854 0.69576 0.0
C1065 C 0.553 0.76217 0.70474 0.0
C1066 C 0.53887 0.73834 0.69863 0.0
C1067 C 0.5279 0.74185 0.71024 0.0
C1068 C 0.52894 0.75602 0.71835 0.0
H1069 H 0.46594 0.70388 0.77435 0.0
H1070 H 0.48947 0.71241 0.76064 0.0
C1071 C 0.54144 0.76609 0.71567 0.0
C1072 C 0.51651 0.73004 0.71537 0.0
H1073 H 0.47745 0.72329 0.71822 0.0
C1074 C 0.52186 0.71761 0.72461 0.0
C1075 C 0.5004 0.73184 0.71259 0.0
C1076 C 0.49424 0.74491 0.70254 0.0
C1077 C 0.51135 0.70738 0.73188 0.0
C1078 C 0.49519 0.70967 0.72973 0.0
C1079 C 0.48989 0.72158 0.71979 0.0
C1080 C 0.48346 0.70105 0.73891 0.0
C1081 C 0.51748 0.69452 0.7422 0.0
C1082 C 0.47274 0.69126 0.73139 0.0
C1083 C 0.4594 0.6862 0.73926 0.0
C1084 C 0.45646 0.6912 0.75462 0.0
C1085 C 0.46791 0.69985 0.76253 0.0
C1086 C 0.48135 0.70473 0.75471 0.0
H1087 H 0.53007 0.69224 0.74009 0.0
H1088 H 0.51598 0.69794 0.7546 0.0
H1089 H 0.51082 0.68357 0.74027 0.0
H1090 H 0.47419 0.68838 0.71917 0.0
H1091 H 0.45076 0.67957 0.73284 0.0
H1092 H 0.26572 0.42373 0.73286 0.0
H1093 H 0.25766 0.44669 0.71816 0.0
H1094 H 0.27916 0.47636 0.75277 0.0
H1095 H 0.28806 0.45318 0.7671 0.0
H1096 H 0.23784 0.46694 0.72716 0.0
H1097 H 0.29258 0.49836 0.71416 0.0
H1098 H 0.29246 0.47853 0.72125 0.0
H1099 H 0.29086 0.49467 0.73467 0.0
C1100 C 0.26895 0.43517 0.73719 0.0
C1101 C 0.2774 0.43678 0.75112 0.0
C1102 C 0.26436 0.44827 0.72877 0.0
C1103 C 0.26788 0.46327 0.73426 0.0
C1104 C 0.27666 0.46491 0.74806 0.0
H1105 H 0.21442 0.54495 0.72863 0.0
H1106 H 0.22431 0.51856 0.73193 0.0
C1107 C 0.28162 0.45171 0.75632 0.0
C1108 C 0.26092 0.47703 0.72643 0.0
H1109 H 0.2689 0.51374 0.71333 0.0
C1110 C 0.24471 0.47706 0.72389 0.0
C1111 C 0.26985 0.49012 0.72181 0.0
C1112 C 0.28742 0.49035 0.72295 0.0
C1113 C 0.23711 0.49009 0.71763 0.0
C1114 C 0.24586 0.50366 0.71433 0.0
C1115 C 0.26216 0.50337 0.71603 0.0
C1116 C 0.23823 0.51873 0.71083 0.0
C1117 C 0.21975 0.48922 0.71482 0.0
C1118 C 0.24269 0.52761 0.6978 0.0
C1119 C 0.23713 0.54285 0.69596 0.0
C1120 C 0.22715 0.5494 0.7072 0.0
C1121 C 0.22205 0.54018 0.71974 0.0
C1122 C 0.22763 0.52504 0.7216 0.0
H1123 H 0.21607 0.47708 0.71213 0.0
H1124 H 0.21351 0.49289 0.72556 0.0
H1125 H 0.21609 0.49693 0.70507 0.0
H1126 H 0.25092 0.52296 0.68941 0.0
H1127 H 0.24131 0.54974 0.68622 0.0
H1128 H 0.45037 0.22419 0.71993 0.0
H1129 H 0.47387 0.23787 0.7284 0.0
H1130 H 0.47147 0.26749 0.68778 0.0
H1131 H 0.44779 0.25392 0.67926 0.0
H1132 H 0.50343 0.24541 0.71478 0.0
H1133 H 0.46604 0.29755 0.72546 0.0
H1134 H 0.45795 0.27846 0.72174 0.0
H1135 H 0.46595 0.28972 0.70599 0.0
C1136 C 0.45508 0.23332 0.71256 0.0
C1137 C 0.44715 0.23814 0.69905 0.0
C1138 C 0.46848 0.24115 0.71743 0.0
C1139 C 0.47412 0.25391 0.7089 0.0
C1140 C 0.46707 0.25784 0.69466 0.0
H1141 H 0.54833 0.31729 0.73846 0.0
H1142 H 0.526 0.30642 0.72429 0.0
C1143 C 0.45365 0.24998 0.68974 0.0
C1144 C 0.48641 0.26384 0.71577 0.0
H1145 H 0.49233 0.29925 0.73317 0.0
C1146 C 0.50108 0.25723 0.71866 0.0
C1147 C 0.4832 0.27924 0.72087 0.0
C1148 C 0.46742 0.2867 0.71849 0.0
C1149 C 0.5126 0.26554 0.72675 0.0
C1150 C 0.50922 0.28072 0.73228 0.0
C1151 C 0.49476 0.28756 0.72896 0.0
C1152 C 0.52052 0.28931 0.742 0.0
C1153 C 0.52826 0.25796 0.72951 0.0
C1154 C 0.52411 0.28385 0.75699 0.0
C1155 C 0.53676 0.29006 0.76513 0.0
C1156 C 0.54599 0.30179 0.75835 0.0
C1157 C 0.54143 0.30824 0.74396 0.0
C1158 C 0.52875 0.30201 0.73582 0.0
H1159 H 0.53017 0.24781 0.72167 0.0
H1160 H 0.53786 0.26648 0.72771 0.0
H1161 H 0.52888 0.25378 0.74175 0.0
H1162 H 0.51769 0.27418 0.762 0.0
H1163 H 0.53995 0.2849 0.77622 0.0
H1164 H 0.72134 0.43377 0.68705 0.0
H1165 H 0.70476 0.4567 0.69071 0.0
H1166 H 0.74522 0.48397 0.7031 0.0
H1167 H 0.76185 0.46119 0.69934 0.0
H1168 H 0.70286 0.46889 0.71996 0.0
H1169 H 0.7196 0.51545 0.67871 0.0
H1170 H 0.72422 0.49515 0.67531 0.0
H1171 H 0.73646 0.50693 0.6877 0.0
C1172 C 0.72679 0.44481 0.68995 0.0
C1173 C 0.74287 0.44567 0.69309 0.0
C1174 C 0.71728 0.45788 0.69207 0.0
C1175 C 0.72374 0.47203 0.69716 0.0
C1176 C 0.73999 0.47325 0.6989 0.0
H1177 H 0.70664 0.53685 0.76574 0.0
H1178 H 0.70935 0.5132 0.7501 0.0
C1179 C 0.7495 0.46018 0.69682 0.0
C1180 C 0.71358 0.48454 0.70339 0.0
H1181 H 0.70934 0.52408 0.70382 0.0
C1182 C 0.70394 0.48092 0.71615 0.0
C1183 C 0.71483 0.50018 0.69835 0.0
C1184 C 0.72422 0.50463 0.68415 0.0
C1185 C 0.69656 0.49269 0.72479 0.0
C1186 C 0.69904 0.50844 0.72063 0.0
C1187 C 0.70759 0.51198 0.7071 0.0
C1188 C 0.69475 0.52141 0.73118 0.0
C1189 C 0.68671 0.48821 0.73867 0.0
C1190 C 0.68536 0.53372 0.72588 0.0
C1191 C 0.68374 0.54725 0.73485 0.0
C1192 C 0.69172 0.54874 0.74912 0.0
C1193 C 0.70032 0.53601 0.75482 0.0
C1194 C 0.70183 0.52246 0.74591 0.0
H1195 H 0.68175 0.47632 0.73725 0.0
H1196 H 0.69412 0.48817 0.7493 0.0
H1197 H 0.67702 0.49663 0.74048 0.0
H1198 H 0.67988 0.53314 0.7145 0.0
H1199 H 0.67709 0.55691 0.73012 0.0
H1200 H 0.44568 0.31504 0.2608 0.0
H1201 H 0.46908 0.30963 0.27625 0.0
H1202 H 0.48768 0.28202 0.2385 0.0
H1203 H 0.46432 0.28728 0.22302 0.0
H1204 H 0.47586 0.27781 0.28368 0.0
H1205 H 0.52585 0.30695 0.25477 0.0
H1206 H 0.50589 0.31324 0.2521 0.0
H1207 H 0.51326 0.29669 0.24151 0.0
C1208 C 0.45499 0.30826 0.25558 0.0
C1209 C 0.45315 0.30147 0.24075 0.0
C1210 C 0.46831 0.30514 0.26445 0.0
C1211 C 0.48007 0.29546 0.25849 0.0
C1212 C 0.4788 0.2897 0.24322 0.0
H1213 H 0.5406 0.22578 0.28971 0.0
H1214 H 0.51786 0.24178 0.28328 0.0
C1215 C 0.46544 0.29268 0.2344 0.0
C1216 C 0.49248 0.28946 0.26882 0.0
H1217 H 0.53192 0.28512 0.27132 0.0
C1218 C 0.48814 0.27965 0.28121 0.0
C1219 C 0.50844 0.29198 0.26562 0.0
C1220 C 0.51368 0.30291 0.25286 0.0
C1221 C 0.49938 0.27151 0.28988 0.0
C1222 C 0.51529 0.27321 0.28597 0.0
C1223 C 0.51967 0.28378 0.27423 0.0
C1224 C 0.5275 0.26312 0.29277 0.0
C1225 C 0.49415 0.26083 0.30285 0.0
C1226 C 0.54022 0.26976 0.3006 0.0
C1227 C 0.55319 0.26063 0.30434 0.0
C1228 C 0.55371 0.24479 0.30006 0.0
C1229 C 0.54051 0.23794 0.29317 0.0
C1230 C 0.5275 0.24706 0.28953 0.0
H1231 H 0.48243 0.26415 0.3073 0.0
H1232 H 0.49342 0.24871 0.29834 0.0
H1233 H 0.50258 0.26098 0.31269 0.0
H1234 H 0.54043 0.28214 0.30314 0.0
H1235 H 0.5632 0.26624 0.30965 0.0
H1236 H 0.68699 0.44426 0.25416 0.0
H1237 H 0.69026 0.46802 0.26973 0.0
H1238 H 0.72831 0.48229 0.24006 0.0
H1239 H 0.72526 0.45852 0.22457 0.0
H1240 H 0.72086 0.47347 0.2847 0.0
H1241 H 0.70126 0.52266 0.24734 0.0
H1242 H 0.69433 0.50289 0.24474 0.0
H1243 H 0.71327 0.50842 0.23766 0.0
C1244 C 0.69572 0.45271 0.25065 0.0
C1245 C 0.70593 0.44955 0.2382 0.0
C1246 C 0.69761 0.46621 0.2596 0.0
C1247 C 0.70949 0.47685 0.256 0.0
C1248 C 0.71896 0.47426 0.2429 0.0
H1249 H 0.77111 0.53859 0.3 0.0
H1250 H 0.75696 0.51542 0.29119 0.0
C1251 C 0.71722 0.46069 0.23407 0.0
C1252 C 0.71341 0.48959 0.26689 0.0
H1253 H 0.71805 0.52902 0.26869 0.0
C1254 C 0.71998 0.48566 0.28138 0.0
C1255 C 0.71217 0.5054 0.26249 0.0
C1256 C 0.70476 0.51017 0.24726 0.0
C1257 C 0.72616 0.49716 0.29124 0.0
C1258 C 0.72575 0.51291 0.28642 0.0
C1259 C 0.71838 0.5169 0.27233 0.0
C1260 C 0.73404 0.52534 0.295 0.0
C1261 C 0.73342 0.49239 0.30654 0.0
C1262 C 0.72582 0.53836 0.30051 0.0
C1263 C 0.73387 0.55157 0.30559 0.0
C1264 C 0.75027 0.55203 0.30501 0.0
C1265 C 0.75849 0.53855 0.30062 0.0
C1266 C 0.75041 0.5253 0.2956 0.0
H1267 H 0.72909 0.48081 0.31046 0.0
H1268 H 0.74626 0.49158 0.30508 0.0
H1269 H 0.73096 0.50115 0.31578 0.0
H1270 H 0.71318 0.53859 0.30009 0.0
H1271 H 0.72721 0.56178 0.30894 0.0
H1272 H 0.53927 0.72443 0.22093 0.0
H1273 H 0.51608 0.72819 0.23709 0.0
H1274 H 0.53108 0.69108 0.26758 0.0
H1275 H 0.55435 0.68713 0.25134 0.0
H1276 H 0.49155 0.70566 0.24973 0.0
H1277 H 0.5305 0.73409 0.29349 0.0
H1278 H 0.53636 0.73161 0.2734 0.0
H1279 H 0.53559 0.71504 0.28614 0.0
C1280 C 0.53741 0.71676 0.2308 0.0
C1281 C 0.54863 0.70557 0.23496 0.0
C1282 C 0.52418 0.71894 0.24003 0.0
C1283 C 0.52206 0.71005 0.25359 0.0
C1284 C 0.53264 0.69809 0.25717 0.0
H1285 H 0.43842 0.73106 0.30876 0.0
H1286 H 0.46177 0.71665 0.30082 0.0
C1287 C 0.54583 0.6958 0.24784 0.0
C1288 C 0.50966 0.71456 0.26463 0.0
H1289 H 0.50348 0.73662 0.29724 0.0
C1290 C 0.49409 0.71211 0.26033 0.0
C1291 C 0.51315 0.72312 0.27831 0.0
C1292 C 0.52978 0.72624 0.28319 0.0
C1293 C 0.48184 0.71856 0.26906 0.0
C1294 C 0.48534 0.72761 0.28242 0.0
C1295 C 0.5009 0.72956 0.28706 0.0
C1296 C 0.47308 0.73666 0.29043 0.0
C1297 C 0.46528 0.71643 0.26343 0.0
C1298 C 0.47222 0.75283 0.28802 0.0
C1299 C 0.45894 0.7611 0.29253 0.0
C1300 C 0.44635 0.75329 0.29955 0.0
C1301 C 0.44791 0.73738 0.30331 0.0
C1302 C 0.46119 0.72911 0.29873 0.0
H1303 H 0.46473 0.71064 0.25184 0.0
H1304 H 0.45875 0.70914 0.27192 0.0
H1305 H 0.45928 0.72789 0.26263 0.0
H1306 H 0.48135 0.75884 0.28166 0.0
H1307 H 0.45809 0.77336 0.28954 0.0
H1308 H 0.31081 0.55642 0.27059 0.0
H1309 H 0.30403 0.53327 0.28582 0.0
H1310 H 0.28906 0.50996 0.24381 0.0
H1311 H 0.29572 0.53307 0.2285 0.0
H1312 H 0.27216 0.52411 0.28524 0.0
H1313 H 0.31115 0.47513 0.26904 0.0
H1314 H 0.31659 0.49536 0.26647 0.0
H1315 H 0.30404 0.48594 0.25254 0.0
C1316 C 0.30661 0.54616 0.26451 0.0
C1317 C 0.30363 0.54658 0.24838 0.0
C1318 C 0.30272 0.53297 0.27325 0.0
C1319 C 0.29607 0.51995 0.26593 0.0
C1320 C 0.29439 0.51984 0.24964 0.0
H1321 H 0.22495 0.45621 0.27848 0.0
H1322 H 0.24109 0.47959 0.27596 0.0
C1323 C 0.29815 0.53306 0.24091 0.0
C1324 C 0.28843 0.50768 0.27531 0.0
H1325 H 0.28585 0.46819 0.27925 0.0
C1326 C 0.27536 0.5119 0.28426 0.0
C1327 C 0.29269 0.49181 0.27407 0.0
C1328 C 0.30698 0.48677 0.26513 0.0
C1329 C 0.26579 0.50054 0.29109 0.0
C1330 C 0.26941 0.48463 0.28886 0.0
C1331 C 0.28309 0.48044 0.28087 0.0
C1332 C 0.25826 0.47216 0.29293 0.0
C1333 C 0.25153 0.50557 0.30009 0.0
C1334 C 0.26236 0.46052 0.30366 0.0
C1335 C 0.25305 0.44723 0.30525 0.0
C1336 C 0.23972 0.44529 0.29587 0.0
C1337 C 0.23514 0.45743 0.28587 0.0
C1338 C 0.24433 0.47079 0.28444 0.0
H1339 H 0.25261 0.51778 0.3043 0.0
H1340 H 0.24116 0.50489 0.29235 0.0
H1341 H 0.24947 0.49777 0.31024 0.0
H1342 H 0.27313 0.46139 0.31023 0.0
H1343 H 0.25692 0.438 0.31298 0.0
H1344 H 0.7365 0.68481 0.55561 0.0
H1345 H 0.7199 0.68714 0.53247 0.0
H1346 H 0.75431 0.71681 0.5108 0.0
H1347 H 0.77091 0.71456 0.53383 0.0
H1348 H 0.70869 0.71661 0.52377 0.0
H1349 H 0.74001 0.68874 0.4747 0.0
H1350 H 0.74413 0.68414 0.49488 0.0
H1351 H 0.75248 0.70124 0.48597 0.0
C1352 C 0.74075 0.6914 0.5457 0.0
C1353 C 0.75495 0.69959 0.54653 0.0
C1354 C 0.73123 0.69275 0.53253 0.0
C1355 C 0.73592 0.70208 0.51992 0.0
C1356 C 0.75059 0.70934 0.5203 0.0
H1357 H 0.70024 0.76804 0.46014 0.0
H1358 H 0.70613 0.75191 0.48285 0.0
C1359 C 0.76005 0.7081 0.5335 0.0
C1360 C 0.72476 0.7062 0.50743 0.0
H1361 H 0.72208 0.70952 0.46792 0.0
C1362 C 0.71137 0.71472 0.51154 0.0
C1363 C 0.72817 0.70357 0.49153 0.0
C1364 C 0.7419 0.69378 0.4865 0.0
C1365 C 0.70201 0.72177 0.50011 0.0
C1366 C 0.70626 0.72033 0.48426 0.0
C1367 C 0.7189 0.71073 0.48012 0.0
C1368 C 0.69922 0.73018 0.47197 0.0
C1369 C 0.68802 0.73118 0.50514 0.0
C1370 C 0.69295 0.72336 0.45848 0.0
C1371 C 0.68956 0.73258 0.44546 0.0
C1372 C 0.69262 0.74871 0.4457 0.0
C1373 C 0.69775 0.75565 0.45963 0.0
C1374 C 0.70106 0.74644 0.47265 0.0
H1375 H 0.68333 0.72693 0.51645 0.0
H1376 H 0.69155 0.74354 0.50672 0.0
H1377 H 0.6786 0.73073 0.49625 0.0
H1378 H 0.69152 0.71082 0.45772 0.0
H1379 H 0.68563 0.72689 0.43488 0.0
H1380 H 0.74375 0.31138 0.44988 0.0
H1381 H 0.7296 0.30656 0.47428 0.0
H1382 H 0.76162 0.26941 0.48554 0.0
H1383 H 0.77568 0.27399 0.46114 0.0
H1384 H 0.71644 0.27481 0.47966 0.0
H1385 H 0.75559 0.29534 0.52706 0.0
H1386 H 0.7565 0.30297 0.50741 0.0
H1387 H 0.76499 0.28433 0.51186 0.0
C1388 C 0.74805 0.30251 0.45779 0.0
C1389 C 0.76078 0.29301 0.45364 0.0
C1390 C 0.73992 0.29973 0.47165 0.0
C1391 C 0.74463 0.28768 0.48165 0.0
C1392 C 0.75793 0.27888 0.47801 0.0
H1393 H 0.70842 0.22212 0.54412 0.0
H1394 H 0.71545 0.23741 0.52106 0.0
C1395 C 0.76593 0.28149 0.46408 0.0
C1396 C 0.73473 0.28292 0.4949 0.0
H1397 H 0.73557 0.27727 0.53423 0.0
C1398 C 0.72043 0.27561 0.49164 0.0
C1399 C 0.73999 0.28405 0.51045 0.0
C1400 C 0.75505 0.29221 0.51449 0.0
C1401 C 0.71167 0.26858 0.50354 0.0
C1402 C 0.71741 0.2689 0.51898 0.0
C1403 C 0.73124 0.27702 0.52234 0.0
C1404 C 0.71013 0.25974 0.53161 0.0
C1405 C 0.69658 0.26047 0.49949 0.0
C1406 C 0.70443 0.26724 0.54497 0.0
C1407 C 0.70032 0.25854 0.55811 0.0
C1408 C 0.70212 0.24222 0.55815 0.0
C1409 C 0.70689 0.23467 0.54441 0.0
C1410 C 0.71087 0.24338 0.53122 0.0
H1411 H 0.69181 0.26463 0.48818 0.0
H1412 H 0.69873 0.24773 0.49852 0.0
H1413 H 0.68771 0.26234 0.50875 0.0
H1414 H 0.70386 0.27987 0.54547 0.0
H1415 H 0.6967 0.26469 0.56855 0.0
H1416 H 0.25748 0.68161 0.44561 0.0
H1417 H 0.2714 0.68964 0.46923 0.0
H1418 H 0.23432 0.72193 0.48009 0.0
H1419 H 0.22032 0.71388 0.45669 0.0
H1420 H 0.28146 0.72004 0.47201 0.0
H1421 H 0.24485 0.70439 0.52275 0.0
H1422 H 0.24242 0.69536 0.50385 0.0
H1423 H 0.2337 0.71405 0.50791 0.0
C1424 C 0.25202 0.68999 0.45336 0.0
C1425 C 0.23787 0.69722 0.44928 0.0
C1426 C 0.26004 0.69461 0.46679 0.0
C1427 C 0.25389 0.70635 0.4764 0.0
C1428 C 0.23917 0.71266 0.47298 0.0
H1429 H 0.27669 0.77636 0.54064 0.0
H1430 H 0.26854 0.76063 0.51832 0.0
C1431 C 0.23119 0.70809 0.45956 0.0
C1432 C 0.26362 0.71369 0.48859 0.0
H1433 H 0.26247 0.72619 0.52633 0.0
C1434 C 0.27753 0.7211 0.484 0.0
C1435 C 0.25844 0.71504 0.50418 0.0
C1436 C 0.24411 0.70664 0.51 0.0
C1437 C 0.28587 0.73062 0.49439 0.0
C1438 C 0.28011 0.73271 0.50964 0.0
C1439 C 0.26669 0.72467 0.51448 0.0
C1440 C 0.28722 0.74384 0.52065 0.0
C1441 C 0.30029 0.73904 0.48885 0.0
C1442 C 0.30088 0.73995 0.52877 0.0
C1443 C 0.30563 0.74897 0.54151 0.0
C1444 C 0.29665 0.76185 0.54631 0.0
C1445 C 0.2838 0.76647 0.53724 0.0
C1446 C 0.27909 0.75748 0.52454 0.0
H1447 H 0.30276 0.73683 0.47632 0.0
H1448 H 0.29892 0.7518 0.49068 0.0
H1449 H 0.3105 0.73517 0.49583 0.0
H1450 H 0.30723 0.7294 0.52592 0.0
H1451 H 0.31555 0.7451 0.54833 0.0
H1452 H 0.2264 0.29101 0.52667 0.0
H1453 H 0.24427 0.28773 0.50476 0.0
H1454 H 0.27772 0.31785 0.52725 0.0
H1455 H 0.25989 0.32118 0.54932 0.0
H1456 H 0.26329 0.30692 0.48387 0.0
H1457 H 0.29705 0.27288 0.52794 0.0
H1458 H 0.27728 0.27915 0.5315 0.0
H1459 H 0.29292 0.29305 0.53208 0.0
C1460 C 0.23729 0.29743 0.52669 0.0
C1461 C 0.24189 0.30608 0.53982 0.0
C1462 C 0.2475 0.29554 0.51416 0.0
C1463 C 0.26242 0.30225 0.51462 0.0
C1464 C 0.26631 0.31241 0.52684 0.0
H1465 H 0.32059 0.26802 0.43727 0.0
H1466 H 0.31415 0.28557 0.45889 0.0
C1467 C 0.25606 0.31437 0.53938 0.0
C1468 C 0.27443 0.29642 0.50373 0.0
H1469 H 0.30376 0.2695 0.50172 0.0
C1470 C 0.27245 0.29908 0.48773 0.0
C1471 C 0.28621 0.28605 0.50892 0.0
C1472 C 0.28854 0.28247 0.52602 0.0
C1473 C 0.28138 0.29095 0.47668 0.0
C1474 C 0.29262 0.28 0.48186 0.0
C1475 C 0.29522 0.27802 0.49787 0.0
C1476 C 0.29971 0.26873 0.47092 0.0
C1477 C 0.27791 0.29324 0.45955 0.0
C1478 C 0.29455 0.2532 0.47116 0.0
C1479 C 0.29822 0.24315 0.45889 0.0
C1480 C 0.30714 0.24852 0.44624 0.0
C1481 C 0.31364 0.26359 0.44685 0.0
C1482 C 0.3099 0.27366 0.45912 0.0
H1483 H 0.26768 0.30096 0.45759 0.0
H1484 H 0.28819 0.29856 0.45375 0.0
H1485 H 0.27563 0.28182 0.45386 0.0
H1486 H 0.28673 0.24918 0.48024 0.0
H1487 H 0.29312 0.23159 0.45877 0.0
H1488 H 0.15241 0.11139 0.27718 0.0
H1489 H 0.1325 0.13108 0.27099 0.0
H1490 H 0.16599 0.16765 0.2796 0.0
H1491 H 0.18574 0.14821 0.28596 0.0
H1492 H 0.13528 0.17503 0.2897 0.0
H1493 H 0.13758 0.15312 0.22845 0.0
H1494 H 0.13224 0.13935 0.24335 0.0
H1495 H 0.15165 0.14721 0.24294 0.0
C1496 C 0.15538 0.12364 0.27812 0.0
C1497 C 0.17067 0.12829 0.28183 0.0
C1498 C 0.14403 0.13485 0.27451 0.0
C1499 C 0.14788 0.15079 0.27458 0.0
C1500 C 0.1628 0.15542 0.27944 0.0
H1501 H 0.13051 0.23015 0.22098 0.0
H1502 H 0.13925 0.20727 0.23556 0.0
C1503 C 0.17409 0.14428 0.28301 0.0
C1504 C 0.13728 0.16269 0.26791 0.0
H1505 H 0.12428 0.1765 0.23288 0.0
C1506 C 0.13254 0.17522 0.27734 0.0
C1507 C 0.13393 0.16295 0.25174 0.0
C1508 C 0.13916 0.15003 0.24094 0.0
C1509 C 0.12513 0.18835 0.27089 0.0
C1510 C 0.12239 0.18885 0.25465 0.0
C1511 C 0.12643 0.176 0.24535 0.0
C1512 C 0.11699 0.20318 0.24673 0.0
C1513 C 0.12111 0.20199 0.28126 0.0
C1514 C 0.10159 0.2085 0.24833 0.0
C1515 C 0.09654 0.22161 0.23999 0.0
C1516 C 0.10684 0.22953 0.22995 0.0
C1517 C 0.12232 0.22431 0.22864 0.0
C1518 C 0.12732 0.21123 0.23693 0.0
H1519 H 0.12534 0.20034 0.29341 0.0
H1520 H 0.12625 0.21289 0.27649 0.0
H1521 H 0.10825 0.20353 0.28157 0.0
H1522 H 0.09343 0.20233 0.25575 0.0
H1523 H 0.08453 0.22536 0.24117 0.0
H1524 H 0.88268 0.15406 0.27225 0.0
H1525 H 0.8619 0.13511 0.2668 0.0
H1526 H 0.82729 0.16943 0.27936 0.0
H1527 H 0.84786 0.18824 0.28506 0.0
H1528 H 0.81925 0.13858 0.28831 0.0
H1529 H 0.83764 0.14313 0.22608 0.0
H1530 H 0.85218 0.13651 0.23968 0.0
H1531 H 0.84495 0.15615 0.24091 0.0
C1532 C 0.87065 0.1574 0.27423 0.0
C1533 C 0.86686 0.17269 0.27883 0.0
C1534 C 0.85881 0.14661 0.27105 0.0
C1535 C 0.84308 0.151 0.27239 0.0
C1536 C 0.83936 0.16583 0.27821 0.0
H1537 H 0.76142 0.13358 0.22069 0.0
H1538 H 0.78431 0.14307 0.23479 0.0
C1539 C 0.85114 0.17659 0.2814 0.0
C1540 C 0.83045 0.14114 0.26597 0.0
H1541 H 0.81475 0.12926 0.23135 0.0
C1542 C 0.81835 0.13627 0.2759 0.0
C1543 C 0.82926 0.13839 0.24972 0.0
C1544 C 0.84161 0.14388 0.23841 0.0
C1545 C 0.80485 0.12913 0.26992 0.0
C1546 C 0.80354 0.12678 0.25366 0.0
C1547 C 0.81587 0.13111 0.24382 0.0
C1548 C 0.78899 0.1211 0.24634 0.0
C1549 C 0.79177 0.12485 0.28089 0.0
C1550 C 0.78399 0.10565 0.24832 0.0
C1551 C 0.77087 0.10018 0.24027 0.0
C1552 C 0.76266 0.11011 0.23009 0.0
C1553 C 0.76751 0.12567 0.22845 0.0
C1554 C 0.78058 0.1311 0.23648 0.0
H1555 H 0.79375 0.12938 0.29287 0.0
H1556 H 0.7805 0.1295 0.27648 0.0
H1557 H 0.79074 0.11196 0.28151 0.0
H1558 H 0.79046 0.09772 0.25573 0.0
H1559 H 0.76742 0.08811 0.2417 0.0
H1560 H 0.90692 0.77254 0.22796 0.0
H1561 H 0.89717 0.796 0.24093 0.0
H1562 H 0.85823 0.76974 0.25911 0.0
H1563 H 0.86825 0.74612 0.24659 0.0
H1564 H 0.87061 0.80951 0.23379 0.0
H1565 H 0.8693 0.79532 0.29667 0.0
H1566 H 0.88001 0.7837 0.28273 0.0
H1567 H 0.85935 0.7808 0.28537 0.0
C1568 C 0.89646 0.77171 0.23501 0.0
C1569 C 0.88829 0.75755 0.23624 0.0
C1570 C 0.89091 0.78511 0.24242 0.0
C1571 C 0.87706 0.78463 0.25114 0.0
C1572 C 0.86916 0.77034 0.25281 0.0
H1573 H 0.80395 0.84571 0.27524 0.0
H1574 H 0.82243 0.82435 0.2714 0.0
C1575 C 0.87482 0.75687 0.24555 0.0
C1576 C 0.86987 0.79934 0.25677 0.0
H1577 H 0.85237 0.81635 0.28829 0.0
C1578 C 0.86693 0.81114 0.24579 0.0
C1579 C 0.86507 0.80146 0.27243 0.0
C1580 C 0.86875 0.7897 0.285 0.0
C1581 C 0.85862 0.82464 0.24983 0.0
C1582 C 0.85319 0.8264 0.26529 0.0
C1583 C 0.85658 0.81491 0.27644 0.0
C1584 C 0.84264 0.83934 0.26954 0.0
C1585 C 0.85502 0.83657 0.23738 0.0
C1586 C 0.848 0.85481 0.27011 0.0
C1587 C 0.83745 0.86708 0.27234 0.0
C1588 C 0.82142 0.864 0.27393 0.0
C1589 C 0.81622 0.84844 0.27395 0.0
C1590 C 0.82676 0.83622 0.27183 0.0
H1591 H 0.85854 0.83255 0.22556 0.0
H1592 H 0.84234 0.83925 0.23725 0.0
H1593 H 0.86135 0.84756 0.24 0.0
H1594 H 0.86026 0.85739 0.26841 0.0
H1595 H 0.84176 0.87896 0.27232 0.0
H1596 H 0.2353 0.90671 0.2407 0.0
H1597 H 0.21108 0.89838 0.25354 0.0
H1598 H 0.20724 0.85991 0.22129 0.0
H1599 H 0.23123 0.86822 0.20834 0.0
H1600 H 0.17955 0.87813 0.2249 0.0
H1601 H 0.205 0.85943 0.28176 0.0
H1602 H 0.20955 0.87876 0.27492 0.0
H1603 H 0.21684 0.86211 0.26454 0.0
C1604 C 0.22934 0.8964 0.23645 0.0
C1605 C 0.23515 0.88807 0.22355 0.0
C1606 C 0.21555 0.89166 0.2438 0.0
C1607 C 0.20746 0.8785 0.23839 0.0
C1608 C 0.21333 0.87013 0.2256 0.0
H1609 H 0.14579 0.8099 0.26587 0.0
H1610 H 0.16701 0.82817 0.2611 0.0
C1611 C 0.22705 0.87485 0.21826 0.0
C1612 C 0.19272 0.87336 0.24573 0.0
H1613 H 0.17834 0.8546 0.27776 0.0
C1614 C 0.17916 0.87324 0.23657 0.0
C1615 C 0.19235 0.86703 0.26095 0.0
C1616 C 0.20669 0.8667 0.27116 0.0
C1617 C 0.16541 0.86613 0.24187 0.0
C1618 C 0.16522 0.85917 0.25683 0.0
C1619 C 0.17853 0.86006 0.26634 0.0
C1620 C 0.15236 0.84873 0.26165 0.0
C1621 C 0.15155 0.86519 0.23104 0.0
C1622 C 0.13711 0.85429 0.26392 0.0
C1623 C 0.12486 0.8438 0.26663 0.0
C1624 C 0.12777 0.82766 0.26707 0.0
C1625 C 0.14316 0.82226 0.26548 0.0
C1626 C 0.15533 0.83269 0.26283 0.0
H1627 H 0.15433 0.86946 0.21912 0.0
H1628 H 0.14733 0.85296 0.23016 0.0
H1629 H 0.14189 0.8724 0.23578 0.0
H1630 H 0.13464 0.86667 0.26321 0.0
H1631 H 0.1131 0.84827 0.26788 0.0
H1632 H 0.10722 0.76253 0.75523 0.0
H1633 H 0.11658 0.78703 0.74372 0.0
H1634 H 0.10043 0.81227 0.78415 0.0
H1635 H 0.09123 0.78792 0.79579 0.0
H1636 H 0.10129 0.81761 0.73766 0.0
H1637 H 0.14857 0.81942 0.78208 0.0
H1638 H 0.13742 0.802 0.77811 0.0
H1639 H 0.12918 0.81735 0.78977 0.0
C1640 C 0.10551 0.77334 0.76157 0.0
C1641 C 0.0987 0.77332 0.77649 0.0
C1642 C 0.11079 0.7873 0.75496 0.0
C1643 C 0.10933 0.80137 0.76319 0.0
C1644 C 0.1018 0.80147 0.77772 0.0
H1645 H 0.15317 0.89131 0.75521 0.0
H1646 H 0.13471 0.87054 0.76151 0.0
C1647 C 0.09658 0.78756 0.78434 0.0
C1648 C 0.11683 0.81573 0.75731 0.0
H1649 H 0.14627 0.84118 0.76547 0.0
C1650 C 0.11112 0.82282 0.74369 0.0
C1651 C 0.12969 0.82237 0.76521 0.0
C1652 C 0.1367 0.81486 0.77953 0.0
C1653 C 0.11781 0.83665 0.73792 0.0
C1654 C 0.13062 0.84333 0.74591 0.0
C1655 C 0.13632 0.83614 0.75947 0.0
C1656 C 0.13886 0.85745 0.74032 0.0
C1657 C 0.111 0.84412 0.72352 0.0
C1658 C 0.14686 0.85727 0.72602 0.0
C1659 C 0.15734 0.86922 0.72233 0.0
C1660 C 0.16012 0.88136 0.733 0.0
C1661 C 0.15131 0.88205 0.7468 0.0
C1662 C 0.14076 0.8702 0.75041 0.0
H1663 H 0.09883 0.84018 0.7214 0.0
H1664 H 0.11111 0.85705 0.72449 0.0
H1665 H 0.11813 0.84079 0.71324 0.0
H1666 H 0.1458 0.84741 0.71819 0.0
H1667 H 0.16404 0.86837 0.71164 0.0
H1668 H 0.22211 0.08035 0.77468 0.0
H1669 H 0.19724 0.08653 0.76196 0.0
H1670 H 0.20591 0.13564 0.76892 0.0
H1671 H 0.23053 0.12955 0.78194 0.0
H1672 H 0.17649 0.12655 0.77807 0.0
H1673 H 0.18993 0.1046 0.71843 0.0
H1674 H 0.19227 0.09095 0.73419 0.0
H1675 H 0.20489 0.10763 0.73294 0.0
C1676 C 0.21874 0.09246 0.77338 0.0
C1677 C 0.22825 0.10449 0.77926 0.0
C1678 C 0.20457 0.09596 0.76606 0.0
C1679 C 0.19981 0.11154 0.76436 0.0
C1680 C 0.20938 0.12353 0.77012 0.0
H1681 H 0.14519 0.1684 0.7099 0.0
H1682 H 0.16289 0.14848 0.71966 0.0
C1683 C 0.22345 0.12005 0.77752 0.0
C1684 C 0.18469 0.1156 0.75704 0.0
H1685 H 0.16566 0.11683 0.72206 0.0
C1686 C 0.17397 0.12424 0.76588 0.0
C1687 C 0.18148 0.11248 0.74115 0.0
C1688 C 0.19275 0.1035 0.73103 0.0
C1689 C 0.1606 0.13074 0.75907 0.0
C1690 C 0.15764 0.12813 0.74301 0.0
C1691 C 0.16789 0.11868 0.73438 0.0
C1692 C 0.14574 0.13739 0.73452 0.0
C1693 C 0.15044 0.1413 0.76888 0.0
C1694 C 0.12993 0.13718 0.73889 0.0
C1695 C 0.11975 0.14875 0.73342 0.0
C1696 C 0.12528 0.16051 0.72341 0.0
C1697 C 0.14064 0.1596 0.71776 0.0
C1698 C 0.15078 0.14817 0.72329 0.0
H1699 H 0.15585 0.14408 0.78033 0.0
H1700 H 0.14808 0.15243 0.76268 0.0
H1701 H 0.13911 0.13547 0.77114 0.0
H1702 H 0.12572 0.12871 0.74726 0.0
H1703 H 0.10793 0.1491 0.73786 0.0
H1704 H 0.8951 0.22122 0.78158 0.0
H1705 H 0.8838 0.19713 0.77136 0.0
H1706 H 0.84577 0.2234 0.75135 0.0
H1707 H 0.85729 0.24764 0.76119 0.0
H1708 H 0.85615 0.18429 0.77818 0.0
H1709 H 0.85881 0.19672 0.71479 0.0
H1710 H 0.86914 0.20831 0.72902 0.0
H1711 H 0.84869 0.21159 0.7255 0.0
C1712 C 0.88438 0.22188 0.7749 0.0
C1713 C 0.87708 0.2363 0.77213 0.0
C1714 C 0.87796 0.20811 0.76907 0.0
C1715 C 0.86409 0.20849 0.76037 0.0
C1716 C 0.8567 0.22288 0.75767 0.0
H1717 H 0.79571 0.14184 0.73263 0.0
H1718 H 0.81143 0.16481 0.73889 0.0
C1719 C 0.86321 0.2367 0.76341 0.0
C1720 C 0.85697 0.19373 0.75488 0.0
H1721 H 0.84279 0.17515 0.72258 0.0
C1722 C 0.85342 0.18222 0.76599 0.0
C1723 C 0.85348 0.19101 0.73896 0.0
C1724 C 0.85787 0.2025 0.72636 0.0
C1725 C 0.846 0.16829 0.76168 0.0
C1726 C 0.84207 0.16584 0.74588 0.0
C1727 C 0.84585 0.17715 0.7347 0.0
C1728 C 0.83306 0.15202 0.741 0.0
C1729 C 0.84194 0.15645 0.77407 0.0
C1730 C 0.84017 0.13731 0.73992 0.0
C1731 C 0.83124 0.12414 0.73625 0.0
C1732 C 0.81508 0.12555 0.73377 0.0
C1733 C 0.80812 0.14039 0.73455 0.0
C1734 C 0.81706 0.15352 0.73807 0.0
H1735 H 0.84472 0.16068 0.78601 0.0
H1736 H 0.82932 0.15357 0.77349 0.0
H1737 H 0.84855 0.14552 0.77192 0.0
H1738 H 0.85255 0.13601 0.74213 0.0
H1739 H 0.83688 0.11284 0.73573 0.0
H1740 H 0.84464 0.81012 0.7182 0.0
H1741 H 0.82332 0.82887 0.72012 0.0
H1742 H 0.85652 0.8666 0.723 0.0
H1743 H 0.87804 0.84779 0.72121 0.0
H1744 H 0.8354 0.86618 0.74713 0.0
H1745 H 0.80405 0.86107 0.69098 0.0
H1746 H 0.80768 0.8424 0.69973 0.0
H1747 H 0.82386 0.8543 0.69358 0.0
C1748 C 0.84742 0.82243 0.71895 0.0
C1749 C 0.863 0.8275 0.71963 0.0
C1750 C 0.83521 0.83315 0.71989 0.0
C1751 C 0.83833 0.84915 0.72145 0.0
C1752 C 0.85388 0.85431 0.72163 0.0
H1753 H 0.77076 0.91715 0.7577 0.0
H1754 H 0.79354 0.90725 0.74358 0.0
C1755 C 0.86614 0.84357 0.72064 0.0
C1756 C 0.82539 0.86005 0.72493 0.0
H1757 H 0.78906 0.87099 0.71275 0.0
C1758 C 0.82541 0.86755 0.73947 0.0
C1759 C 0.81236 0.86174 0.71493 0.0
C1760 C 0.81203 0.85456 0.69887 0.0
C1761 C 0.81235 0.87587 0.74474 0.0
C1762 C 0.79904 0.87699 0.73503 0.0
C1763 C 0.79928 0.8701 0.72017 0.0
C1764 C 0.78431 0.88391 0.7408 0.0
C1765 C 0.81257 0.88255 0.76106 0.0
C1766 C 0.77124 0.87432 0.74306 0.0
C1767 C 0.75815 0.87997 0.75097 0.0
C1768 C 0.75798 0.89531 0.75676 0.0
C1769 C 0.77063 0.90523 0.75348 0.0
C1770 C 0.78367 0.89959 0.74549 0.0
H1771 H 0.82253 0.87805 0.76804 0.0
H1772 H 0.81366 0.89544 0.76039 0.0
H1773 H 0.80157 0.87977 0.76731 0.0
H1774 H 0.77149 0.86219 0.73947 0.0
H1775 H 0.74856 0.87208 0.75328 0.0
H1776 H 0.21 0.10168 0.2238 0.0
H1777 H 0.22034 0.11237 0.19945 0.0
H1778 H 0.25732 0.13503 0.22502 0.0
H1779 H 0.24719 0.12414 0.24941 0.0
H1780 H 0.22247 0.14331 0.19303 0.0
H1781 H 0.28084 0.11585 0.18837 0.0
H1782 H 0.26584 0.10855 0.20127 0.0
H1783 H 0.27752 0.12507 0.20689 0.0
C1784 C 0.22046 0.10876 0.22421 0.0
C1785 C 0.22778 0.11213 0.23849 0.0
C1786 C 0.22636 0.11483 0.2103 0.0
C1787 C 0.2397 0.12431 0.21041 0.0
C1788 C 0.24722 0.12744 0.22463 0.0
H1789 H 0.26367 0.19785 0.14777 0.0
H1790 H 0.25715 0.18089 0.1697 0.0
C1791 C 0.24135 0.12132 0.23856 0.0
C1792 C 0.24482 0.13216 0.19591 0.0
H1793 H 0.27624 0.13821 0.17213 0.0
C1794 C 0.23417 0.14205 0.18837 0.0
C1795 C 0.26004 0.13037 0.18976 0.0
C1796 C 0.27168 0.11926 0.1969 0.0
C1797 C 0.23849 0.15064 0.17516 0.0
C1798 C 0.25394 0.14949 0.16952 0.0
C1799 C 0.26445 0.13917 0.17665 0.0
C1800 C 0.25942 0.15945 0.15657 0.0
C1801 C 0.22651 0.16097 0.16742 0.0
C1802 C 0.2634 0.15292 0.14209 0.0
C1803 C 0.26719 0.16261 0.1295 0.0
C1804 C 0.26708 0.17892 0.13129 0.0
C1805 C 0.26374 0.18533 0.14601 0.0
C1806 C 0.25998 0.17568 0.15853 0.0
H1807 H 0.21442 0.15754 0.17062 0.0
H1808 H 0.22833 0.17321 0.17124 0.0
H1809 H 0.22768 0.16057 0.15452 0.0
H1810 H 0.26308 0.14039 0.14042 0.0
H1811 H 0.26977 0.15736 0.11829 0.0
H1812 H 0.83726 0.29055 0.12414 0.0
H1813 H 0.855 0.29061 0.1466 0.0
H1814 H 0.85655 0.2403 0.14543 0.0
H1815 H 0.83906 0.24017 0.12304 0.0
H1816 H 0.84619 0.27761 0.17402 0.0
H1817 H 0.90152 0.25059 0.15534 0.0
H1818 H 0.88769 0.25865 0.14159 0.0
H1819 H 0.88524 0.2391 0.14897 0.0
C1820 C 0.8418 0.27955 0.12838 0.0
C1821 C 0.83672 0.26535 0.12192 0.0
C1822 C 0.85191 0.2796 0.14121 0.0
C1823 C 0.85722 0.26547 0.1476 0.0
C1824 C 0.85291 0.25136 0.14051 0.0
H1825 H 0.86298 0.22641 0.23518 0.0
H1826 H 0.85665 0.23957 0.21074 0.0
C1827 C 0.84279 0.25129 0.12776 0.0
C1828 C 0.86506 0.26512 0.16301 0.0
H1829 H 0.89428 0.24657 0.18268 0.0
C1830 C 0.85695 0.2712 0.17588 0.0
C1831 C 0.87919 0.25696 0.16545 0.0
C1832 C 0.88898 0.25111 0.15205 0.0
C1833 C 0.86186 0.26813 0.19118 0.0
C1834 C 0.87507 0.25858 0.19362 0.0
C1835 C 0.88399 0.25369 0.18077 0.0
C1836 C 0.87863 0.25191 0.20913 0.0
C1837 C 0.85246 0.27456 0.2046 0.0
C1838 C 0.89315 0.25441 0.21627 0.0
C1839 C 0.8968 0.24689 0.23031 0.0
C1840 C 0.88606 0.23659 0.23723 0.0
C1841 C 0.87146 0.23432 0.23015 0.0
C1842 C 0.86779 0.24191 0.21623 0.0
H1843 H 0.84622 0.28541 0.2012 0.0
H1844 H 0.84357 0.26583 0.20813 0.0
H1845 H 0.85999 0.27708 0.21484 0.0
H1846 H 0.90172 0.26198 0.21087 0.0
H1847 H 0.90819 0.24876 0.23547 0.0
H1848 H 0.75066 0.86867 0.24526 0.0
H1849 H 0.73903 0.85988 0.22065 0.0
H1850 H 0.75948 0.89925 0.19685 0.0
H1851 H 0.77152 0.9078 0.22128 0.0
H1852 H 0.71907 0.87288 0.19885 0.0
H1853 H 0.77782 0.86271 0.1732 0.0
H1854 H 0.77502 0.86684 0.19363 0.0
H1855 H 0.77437 0.88237 0.17953 0.0
C1856 C 0.75253 0.87552 0.23481 0.0
C1857 C 0.76217 0.88877 0.2351 0.0
C1858 C 0.74588 0.87051 0.22077 0.0
C1859 C 0.74869 0.87873 0.20687 0.0
C1860 C 0.7575 0.89252 0.20736 0.0
H1861 H 0.72988 0.84624 0.11147 0.0
H1862 H 0.73397 0.86443 0.13328 0.0
C1863 C 0.76431 0.89741 0.22133 0.0
C1864 C 0.74319 0.87232 0.19178 0.0
H1865 H 0.75621 0.85728 0.15725 0.0
C1866 C 0.72717 0.86958 0.18969 0.0
C1867 C 0.75379 0.86804 0.17984 0.0
C1868 C 0.77122 0.87 0.18165 0.0
C1869 C 0.72151 0.86237 0.17611 0.0
C1870 C 0.73216 0.85773 0.16441 0.0
C1871 C 0.74808 0.861 0.16622 0.0
C1872 C 0.72742 0.84779 0.15111 0.0
C1873 C 0.70422 0.85954 0.17447 0.0
C1874 C 0.72229 0.83253 0.15397 0.0
C1875 C 0.72014 0.82214 0.14163 0.0
C1876 C 0.72304 0.82685 0.12619 0.0
C1877 C 0.72751 0.84235 0.12326 0.0
C1878 C 0.72983 0.85272 0.13567 0.0
H1879 H 0.69735 0.86759 0.18197 0.0
H1880 H 0.70042 0.86099 0.16216 0.0
H1881 H 0.70154 0.84741 0.17811 0.0
H1882 H 0.72066 0.82841 0.16581 0.0
H1883 H 0.71667 0.81027 0.14423 0.0
H1884 H 0.1178 0.75353 0.23891 0.0
H1885 H 0.12539 0.74092 0.21444 0.0
H1886 H 0.09194 0.76906 0.18945 0.0
H1887 H 0.08468 0.7821 0.21381 0.0
H1888 H 0.10996 0.72418 0.19175 0.0
H1889 H 0.1323 0.78031 0.16783 0.0
H1890 H 0.12665 0.77815 0.18797 0.0
H1891 H 0.11203 0.7803 0.17308 0.0
C1892 C 0.11199 0.75694 0.22821 0.0
C1893 C 0.10085 0.76895 0.22819 0.0
C1894 C 0.11629 0.7497 0.21425 0.0
C1895 C 0.10944 0.75428 0.20009 0.0
C1896 C 0.09764 0.76563 0.20019 0.0
H1897 H 0.15001 0.73163 0.10878 0.0
H1898 H 0.12904 0.73748 0.12744 0.0
C1899 C 0.09348 0.77302 0.21411 0.0
C1900 C 0.11546 0.74783 0.18522 0.0
H1901 H 0.13574 0.758 0.15248 0.0
C1902 C 0.11541 0.73158 0.18305 0.0
C1903 C 0.12253 0.75753 0.17385 0.0
C1904 C 0.12354 0.77502 0.17579 0.0
C1905 C 0.1228 0.72473 0.17013 0.0
C1906 C 0.13046 0.73439 0.15919 0.0
C1907 C 0.12973 0.75065 0.16087 0.0
C1908 C 0.14132 0.72803 0.14739 0.0
C1909 C 0.12275 0.70721 0.16852 0.0
C1910 C 0.15497 0.72055 0.15241 0.0
C1911 C 0.16696 0.7174 0.14188 0.0
C1912 C 0.16547 0.72162 0.12611 0.0
C1913 C 0.1514 0.72819 0.12086 0.0
C1914 C 0.13944 0.73154 0.13149 0.0
H1915 H 0.11257 0.70195 0.17459 0.0
H1916 H 0.12251 0.70366 0.15606 0.0
H1917 H 0.13351 0.70242 0.1739 0.0
H1918 H 0.15679 0.71804 0.16467 0.0
H1919 H 0.17768 0.71231 0.14622 0.0
H1920 H 0.24099 0.91594 0.76894 0.0
H1921 H 0.25523 0.90902 0.79277 0.0
H1922 H 0.23456 0.86313 0.79175 0.0
H1923 H 0.22048 0.86987 0.76791 0.0
H1924 H 0.24246 0.90044 0.82103 0.0
H1925 H 0.28058 0.85349 0.79865 0.0
H1926 H 0.27073 0.86711 0.78592 0.0
H1927 H 0.26057 0.8503 0.79341 0.0
C1928 C 0.23968 0.9043 0.77368 0.0
C1929 C 0.22969 0.8934 0.76655 0.0
C1930 C 0.24779 0.90039 0.78729 0.0
C1931 C 0.24614 0.8855 0.79388 0.0
C1932 C 0.23629 0.87457 0.78666 0.0
H1933 H 0.24435 0.84544 0.8816 0.0
H1934 H 0.24134 0.86314 0.85961 0.0
C1935 C 0.22818 0.87846 0.77308 0.0
C1936 C 0.25379 0.88157 0.80885 0.0
H1937 H 0.27523 0.85302 0.82634 0.0
C1938 C 0.2499 0.89026 0.82218 0.0
C1939 C 0.26379 0.86853 0.81029 0.0
C1940 C 0.2693 0.85943 0.79626 0.0
C1941 C 0.25477 0.88552 0.83709 0.0
C1942 C 0.2635 0.87159 0.83865 0.0
C1943 C 0.2684 0.86362 0.82519 0.0
C1944 C 0.26596 0.8639 0.85395 0.0
C1945 C 0.25016 0.89523 0.85102 0.0
C1946 C 0.28085 0.85864 0.85832 0.0
C1947 C 0.28259 0.84834 0.87087 0.0
C1948 C 0.26943 0.84308 0.87912 0.0
C1949 C 0.25471 0.8493 0.87547 0.0
C1950 C 0.25299 0.85954 0.86294 0.0
H1951 H 0.24917 0.90776 0.84781 0.0
H1952 H 0.23855 0.89136 0.85525 0.0
H1953 H 0.2587 0.89405 0.86069 0.0
H1954 H 0.29102 0.8618 0.8515 0.0
H1955 H 0.29408 0.84372 0.87341 0.0
H1956 H 0.10706 0.20688 0.77801 0.0
H1957 H 0.11713 0.21782 0.80239 0.0
H1958 H 0.14937 0.24637 0.77631 0.0
H1959 H 0.13909 0.23578 0.75188 0.0
H1960 H 0.14628 0.21629 0.81406 0.0
H1961 H 0.12996 0.2782 0.80524 0.0
H1962 H 0.12222 0.26265 0.79331 0.0
H1963 H 0.14126 0.2706 0.78934 0.0
C1964 C 0.11625 0.21555 0.77748 0.0
C1965 C 0.12227 0.22053 0.76306 0.0
C1966 C 0.12196 0.2218 0.7914 0.0
C1967 C 0.13376 0.23314 0.79114 0.0
C1968 C 0.13994 0.23797 0.77676 0.0
H1969 H 0.20172 0.26603 0.85464 0.0
H1970 H 0.18531 0.25837 0.83259 0.0
C1971 C 0.13417 0.2318 0.76282 0.0
C1972 C 0.14022 0.2393 0.80593 0.0
H1973 H 0.14898 0.27306 0.82526 0.0
C1974 C 0.14664 0.22868 0.81662 0.0
C1975 C 0.14057 0.25548 0.8093 0.0
C1976 C 0.13298 0.26738 0.79876 0.0
C1977 C 0.15404 0.23387 0.83025 0.0
C1978 C 0.15504 0.25003 0.83319 0.0
C1979 C 0.14819 0.26066 0.82284 0.0
C1980 C 0.16431 0.25602 0.84636 0.0
C1981 C 0.16124 0.22213 0.84122 0.0
C1982 C 0.15775 0.25745 0.86127 0.0
C1983 C 0.16708 0.26189 0.87392 0.0
C1984 C 0.18308 0.26482 0.87174 0.0
C1985 C 0.18944 0.26379 0.85667 0.0
C1986 C 0.18011 0.25946 0.84407 0.0
H1987 H 0.15911 0.20991 0.83745 0.0
H1988 H 0.17403 0.2241 0.84192 0.0
H1989 H 0.15639 0.22373 0.85313 0.0
H1990 H 0.14554 0.25478 0.86317 0.0
H1991 H 0.1619 0.26257 0.88543 0.0
H1992 H 0.75446 0.07377 0.77212 0.0
H1993 H 0.74075 0.08255 0.79557 0.0
H1994 H 0.7336 0.1277 0.77444 0.0
H1995 H 0.74688 0.11887 0.75089 0.0
H1996 H 0.75239 0.10496 0.81309 0.0
H1997 H 0.69278 0.12246 0.79651 0.0
H1998 H 0.70469 0.11016 0.78421 0.0
H1999 H 0.70668 0.1311 0.7835 0.0
C2000 C 0.74951 0.0854 0.7723 0.0
C2001 C 0.75181 0.09569 0.75973 0.0
C2002 C 0.74168 0.0904 0.7857 0.0
C2003 C 0.73601 0.10574 0.78675 0.0
C2004 C 0.73749 0.11569 0.7738 0.0
H2005 H 0.72853 0.1802 0.84699 0.0
H2006 H 0.72783 0.16056 0.82642 0.0
C2007 C 0.74521 0.11067 0.76036 0.0
C2008 C 0.731 0.1122 0.802 0.0
H2009 H 0.70421 0.13655 0.81861 0.0
C2010 C 0.74162 0.11147 0.81447 0.0
C2011 C 0.71695 0.12067 0.80382 0.0
C2012 C 0.70457 0.12099 0.79132 0.0
C2013 C 0.73918 0.12003 0.8282 0.0
C2014 C 0.7257 0.12944 0.82952 0.0
C2015 C 0.71457 0.12935 0.81751 0.0
C2016 C 0.72424 0.14112 0.84211 0.0
C2017 C 0.75158 0.11987 0.84072 0.0
C2018 C 0.72217 0.13668 0.85774 0.0
C2019 C 0.72258 0.14793 0.8696 0.0
C2020 C 0.72514 0.16372 0.86592 0.0
C2021 C 0.72666 0.16812 0.8502 0.0
C2022 C 0.72617 0.15693 0.83842 0.0
H2023 H 0.76206 0.11311 0.83719 0.0
H2024 H 0.75522 0.13198 0.84357 0.0
H2025 H 0.74675 0.11456 0.8515 0.0
H2026 H 0.72059 0.12451 0.86077 0.0
H2027 H 0.72131 0.14424 0.88162 0.0
H2028 H 0.8321 0.70081 0.86574 0.0
H2029 H 0.84972 0.70363 0.84337 0.0
H2030 H 0.85624 0.75225 0.85472 0.0
H2031 H 0.83886 0.74949 0.87704 0.0
H2032 H 0.84224 0.72307 0.81936 0.0
H2033 H 0.90003 0.73969 0.84232 0.0
H2034 H 0.88536 0.73044 0.85431 0.0
H2035 H 0.88492 0.75121 0.85107 0.0
C2036 C 0.8377 0.71196 0.86374 0.0
C2037 C 0.83406 0.72496 0.87307 0.0
C2038 C 0.84774 0.71356 0.85095 0.0
C2039 C 0.85442 0.72811 0.84746 0.0
C2040 C 0.85152 0.74083 0.85737 0.0
H2041 H 0.88275 0.78805 0.77719 0.0
H2042 H 0.87604 0.77309 0.80045 0.0
C2043 C 0.84148 0.73926 0.87007 0.0
C2044 C 0.86233 0.73082 0.83232 0.0
H2045 H 0.8937 0.74937 0.81631 0.0
C2046 C 0.85369 0.72841 0.81861 0.0
C2047 C 0.87726 0.73776 0.83138 0.0
C2048 C 0.88748 0.73977 0.84557 0.0
C2049 C 0.85901 0.73396 0.80415 0.0
C2050 C 0.87344 0.74192 0.80342 0.0
C2051 C 0.88258 0.74335 0.81694 0.0
C2052 C 0.87826 0.75056 0.78927 0.0
C2053 C 0.84866 0.73228 0.79 0.0
C2054 C 0.88181 0.74281 0.77528 0.0
C2055 C 0.88558 0.75137 0.76187 0.0
C2056 C 0.88588 0.76777 0.76233 0.0
C2057 C 0.88253 0.77543 0.77644 0.0
C2058 C 0.87878 0.7669 0.78977 0.0
H2059 H 0.83692 0.72768 0.79301 0.0
H2060 H 0.84724 0.74371 0.78406 0.0
H2061 H 0.85417 0.72411 0.7816 0.0
H2062 H 0.88162 0.73018 0.77472 0.0
H2063 H 0.88824 0.74517 0.75118 0.0
H2064 H 0.12489 0.29011 0.16255 0.0
H2065 H 0.14805 0.28835 0.14581 0.0
H2066 H 0.14049 0.2389 0.14047 0.0
H2067 H 0.11745 0.2405 0.15716 0.0
H2068 H 0.17007 0.24919 0.15467 0.0
H2069 H 0.15674 0.27802 0.09793 0.0
H2070 H 0.15055 0.28745 0.11569 0.0
H2071 H 0.14169 0.26941 0.10994 0.0
C2072 C 0.1279 0.27895 0.15741 0.0
C2073 C 0.11946 0.26541 0.16126 0.0
C2074 C 0.14111 0.27799 0.14785 0.0
C2075 C 0.14592 0.2635 0.14194 0.0
C2076 C 0.1369 0.25018 0.14491 0.0
H2077 H 0.21771 0.22428 0.0868 0.0
H2078 H 0.19376 0.23616 0.09669 0.0
C2079 C 0.12375 0.25113 0.15445 0.0
C2080 C 0.16144 0.26167 0.13467 0.0
H2081 H 0.18222 0.268 0.10128 0.0
C2082 C 0.17281 0.25342 0.14305 0.0
C2083 C 0.16486 0.26723 0.11954 0.0
C2084 C 0.15285 0.27598 0.11013 0.0
C2085 C 0.18744 0.25019 0.13656 0.0
C2086 C 0.19086 0.25556 0.12133 0.0
C2087 C 0.17959 0.26408 0.11302 0.0
C2088 C 0.20549 0.25094 0.11345 0.0
C2089 C 0.19888 0.24045 0.14578 0.0
C2090 C 0.22004 0.2558 0.11921 0.0
C2091 C 0.23378 0.24898 0.11361 0.0
C2092 C 0.23311 0.23723 0.1022 0.0
C2093 C 0.21858 0.23322 0.0957 0.0
C2094 C 0.20489 0.24004 0.10127 0.0
H2095 H 0.19339 0.23502 0.1562 0.0
H2096 H 0.20389 0.23106 0.13839 0.0
H2097 H 0.20862 0.24797 0.14983 0.0
H2098 H 0.22071 0.26431 0.12853 0.0
H2099 H 0.24482 0.25234 0.11877 0.0
H2100 H 0.231 0.76132 0.9099 0.0
H2101 H 0.20659 0.74836 0.90233 0.0
H2102 H 0.20707 0.77309 0.8585 0.0
H2103 H 0.23134 0.78607 0.86595 0.0
H2104 H 0.17814 0.77467 0.87701 0.0
H2105 H 0.20026 0.71426 0.86722 0.0
H2106 H 0.20553 0.72418 0.88499 0.0
H2107 H 0.21304 0.73102 0.86671 0.0
C2108 C 0.22596 0.76386 0.89859 0.0
C2109 C 0.23306 0.77469 0.88849 0.0
C2110 C 0.21206 0.75645 0.8943 0.0
C2111 C 0.20512 0.75976 0.87986 0.0
C2112 C 0.21229 0.7704 0.8697 0.0
H2113 H 0.14188 0.72817 0.81431 0.0
H2114 H 0.16354 0.73303 0.83207 0.0
C2115 C 0.22617 0.77777 0.87395 0.0
C2116 C 0.19008 0.75266 0.87532 0.0
H2117 H 0.17408 0.71926 0.8607 0.0
C2118 C 0.1771 0.76249 0.87371 0.0
C2119 C 0.1889 0.73678 0.87107 0.0
C2120 C 0.20264 0.72587 0.87248 0.0
C2121 C 0.16314 0.75705 0.86716 0.0
C2122 C 0.16213 0.74131 0.86228 0.0
C2123 C 0.17488 0.73128 0.86461 0.0
C2124 C 0.149 0.73587 0.8525 0.0
C2125 C 0.14993 0.76843 0.86457 0.0
C2126 C 0.13365 0.73533 0.85825 0.0
C2127 C 0.12117 0.73256 0.84806 0.0
C2128 C 0.12393 0.73034 0.83205 0.0
C2129 C 0.13938 0.72997 0.82657 0.0
C2130 C 0.15179 0.73267 0.83671 0.0
H2131 H 0.15339 0.78065 0.8672 0.0
H2132 H 0.14582 0.76786 0.85229 0.0
H2133 H 0.13999 0.7653 0.87224 0.0
H2134 H 0.13131 0.73762 0.87045 0.0
H2135 H 0.10937 0.73284 0.85259 0.0
H2136 H 0.24153 0.22442 0.91906 0.0
H2137 H 0.25422 0.20117 0.90873 0.0
H2138 H 0.26793 0.22678 0.86761 0.0
H2139 H 0.25488 0.25009 0.87776 0.0
H2140 H 0.25092 0.20174 0.86059 0.0
H2141 H 0.29732 0.18369 0.90158 0.0
H2142 H 0.27926 0.18736 0.91151 0.0
H2143 H 0.28909 0.2031 0.90165 0.0
C2144 C 0.24764 0.22525 0.90802 0.0
C2145 C 0.24708 0.23902 0.89913 0.0
C2146 C 0.25502 0.21195 0.90218 0.0
C2147 C 0.26214 0.21224 0.88744 0.0
C2148 C 0.26256 0.22632 0.87905 0.0
H2149 H 0.29668 0.13005 0.83751 0.0
H2150 H 0.29617 0.15427 0.85275 0.0
C2151 C 0.25512 0.23963 0.88486 0.0
C2152 C 0.2666 0.19739 0.87977 0.0
H2153 H 0.28662 0.16329 0.88511 0.0
C2154 C 0.25895 0.19347 0.86583 0.0
C2155 C 0.27708 0.18658 0.88658 0.0
C2156 C 0.28627 0.19047 0.90108 0.0
C2157 C 0.26098 0.17885 0.85886 0.0
C2158 C 0.2707 0.1677 0.86618 0.0
C2159 C 0.27894 0.17179 0.87972 0.0
C2160 C 0.27208 0.15173 0.85983 0.0
C2161 C 0.25252 0.17535 0.8438 0.0
C2162 C 0.25894 0.14198 0.85945 0.0
C2163 C 0.25916 0.12823 0.85073 0.0
C2164 C 0.27258 0.12398 0.84234 0.0
C2165 C 0.28617 0.13306 0.84385 0.0
C2166 C 0.2859 0.14689 0.85253 0.0
H2167 H 0.24868 0.1862 0.83782 0.0
H2168 H 0.26005 0.16859 0.83571 0.0
H2169 H 0.24199 0.16826 0.84638 0.0
H2170 H 0.24822 0.14547 0.86519 0.0
H2171 H 0.24855 0.1214 0.84988 0.0
H2172 H 0.7639 0.23968 0.88057 0.0
H2173 H 0.78926 0.25115 0.87421 0.0
H2174 H 0.81249 0.21173 0.89523 0.0
H2175 H 0.78714 0.19998 0.90122 0.0
H2176 H 0.81496 0.25974 0.89219 0.0
H2177 H 0.82983 0.21158 0.85115 0.0
H2178 H 0.81048 0.21403 0.85904 0.0
H2179 H 0.82572 0.20573 0.87084 0.0
C2180 C 0.77441 0.23348 0.88386 0.0
C2181 C 0.77357 0.21884 0.89117 0.0
C2182 C 0.78889 0.24007 0.8803 0.0
C2183 C 0.80274 0.23218 0.88404 0.0
C2184 C 0.80193 0.21786 0.89195 0.0
H2185 H 0.89261 0.25552 0.84171 0.0
H2186 H 0.87528 0.24584 0.86235 0.0
C2187 C 0.78746 0.21118 0.89538 0.0
C2188 C 0.81791 0.23862 0.87885 0.0
H2189 H 0.84761 0.23217 0.85314 0.0
C2190 C 0.82222 0.25364 0.8838 0.0
C2191 C 0.82742 0.23059 0.86799 0.0
C2192 C 0.82313 0.21465 0.86181 0.0
C2193 C 0.83548 0.2611 0.8777 0.0
C2194 C 0.84451 0.25337 0.86626 0.0
C2195 C 0.8407 0.23803 0.862 0.0
C2196 C 0.85635 0.26161 0.85677 0.0
C2197 C 0.83946 0.27732 0.88323 0.0
C2198 C 0.85161 0.27398 0.84716 0.0
C2199 C 0.8614 0.27942 0.83536 0.0
C2200 C 0.8761 0.27258 0.83296 0.0
C2201 C 0.88136 0.26105 0.84337 0.0
C2202 C 0.87147 0.2555 0.85513 0.0
H2203 H 0.83519 0.27933 0.8953 0.0
H2204 H 0.85225 0.27941 0.88288 0.0
H2205 H 0.8337 0.28597 0.87551 0.0
H2206 H 0.8399 0.27865 0.84799 0.0
H2207 H 0.85707 0.28833 0.82751 0.0
H2208 H 0.73378 0.85333 0.80321 0.0
H2209 H 0.73688 0.83088 0.82033 0.0
H2210 H 0.72732 0.85983 0.86039 0.0
H2211 H 0.72432 0.88261 0.84319 0.0
H2212 H 0.75391 0.84153 0.86355 0.0
H2213 H 0.70449 0.80521 0.84369 0.0
H2214 H 0.71604 0.81194 0.82759 0.0
H2215 H 0.70576 0.82585 0.83954 0.0
C2216 C 0.73218 0.85494 0.81565 0.0
C2217 C 0.72879 0.86972 0.82187 0.0
C2218 C 0.73382 0.84205 0.82541 0.0
C2219 C 0.73199 0.84362 0.84159 0.0
C2220 C 0.72857 0.85836 0.8479 0.0
H2221 H 0.75924 0.76878 0.90698 0.0
H2222 H 0.74638 0.7925 0.8974 0.0
C2223 C 0.72689 0.87133 0.83809 0.0
C2224 C 0.73495 0.83 0.85177 0.0
H2225 H 0.72606 0.79137 0.85568 0.0
C2226 C 0.74759 0.83065 0.86216 0.0
C2227 C 0.72664 0.81585 0.84994 0.0
C2228 C 0.71237 0.8147 0.8397 0.0
C2229 C 0.75285 0.81722 0.86991 0.0
C2230 C 0.74516 0.80286 0.86725 0.0
C2231 C 0.73198 0.8024 0.85758 0.0
C2232 C 0.75161 0.788 0.87312 0.0
C2233 C 0.76718 0.81823 0.8801 0.0
C2234 C 0.7584 0.77749 0.86257 0.0
C2235 C 0.76575 0.764 0.86797 0.0
C2236 C 0.76633 0.76076 0.88403 0.0
C2237 C 0.75899 0.77101 0.89454 0.0
C2238 C 0.75169 0.78456 0.88912 0.0
H2239 H 0.77285 0.82987 0.87946 0.0
H2240 H 0.76385 0.81599 0.89242 0.0
H2241 H 0.77581 0.8092 0.87664 0.0
H2242 H 0.75842 0.77998 0.85017 0.0
H2243 H 0.77127 0.7563 0.85961 0.0
H2244 H 0.7773 0.77446 0.08819 0.0
H2245 H 0.80037 0.76146 0.09877 0.0
H2246 H 0.77234 0.74169 0.13564 0.0
H2247 H 0.74912 0.75431 0.12481 0.0
H2248 H 0.81247 0.76746 0.12664 0.0
H2249 H 0.7984 0.70454 0.12352 0.0
H2250 H 0.78744 0.71909 0.11293 0.0
H2251 H 0.78341 0.71544 0.13323 0.0
C2252 C 0.77601 0.76709 0.09838 0.0
C2253 C 0.76144 0.7654 0.10572 0.0
C2254 C 0.78919 0.75967 0.1044 0.0
C2255 C 0.78806 0.75045 0.11788 0.0
C2256 C 0.77343 0.74841 0.12499 0.0
H2257 H 0.84713 0.72069 0.19107 0.0
H2258 H 0.82617 0.72613 0.17254 0.0
C2259 C 0.76019 0.75572 0.11887 0.0
C2260 C 0.80241 0.74444 0.12544 0.0
H2261 H 0.81892 0.71184 0.14136 0.0
C2262 C 0.81402 0.75525 0.12959 0.0
C2263 C 0.8044 0.72851 0.12929 0.0
C2264 C 0.79281 0.71621 0.12436 0.0
C2265 C 0.82721 0.75068 0.13809 0.0
C2266 C 0.82888 0.73487 0.14246 0.0
C2267 C 0.81755 0.72396 0.13795 0.0
C2268 C 0.8416 0.72986 0.15293 0.0
C2269 C 0.83893 0.76289 0.14297 0.0
C2270 C 0.85718 0.72983 0.14789 0.0
C2271 C 0.86922 0.72668 0.15846 0.0
C2272 C 0.86579 0.72363 0.1742 0.0
C2273 C 0.85013 0.7231 0.17903 0.0
C2274 C 0.83814 0.72614 0.16846 0.0
H2275 H 0.83487 0.77493 0.14037 0.0
H2276 H 0.84136 0.76199 0.15567 0.0
H2277 H 0.85008 0.76091 0.13667 0.0
H2278 H 0.86003 0.7326 0.13589 0.0
H2279 H 0.8812 0.72713 0.15443 0.0
H2280 H 0.24478 0.75675 0.12157 0.0
H2281 H 0.25587 0.78239 0.1277 0.0
H2282 H 0.21737 0.80476 0.10423 0.0
H2283 H 0.20605 0.77923 0.09836 0.0
H2284 H 0.26503 0.80723 0.1083 0.0
H2285 H 0.21627 0.82428 0.14759 0.0
H2286 H 0.21899 0.80451 0.14092 0.0
H2287 H 0.21045 0.81885 0.12821 0.0
C2288 C 0.23867 0.76714 0.11776 0.0
C2289 C 0.22446 0.76601 0.10966 0.0
C2290 C 0.24505 0.78176 0.1212 0.0
C2291 C 0.23733 0.79545 0.11659 0.0
C2292 C 0.22335 0.79433 0.10814 0.0
H2293 H 0.25576 0.8908 0.14662 0.0
H2294 H 0.24769 0.86961 0.12922 0.0
C2295 C 0.21692 0.77974 0.10479 0.0
C2296 C 0.24368 0.81088 0.12106 0.0
H2297 H 0.23591 0.84294 0.14334 0.0
C2298 C 0.25864 0.8151 0.11588 0.0
C2299 C 0.23528 0.82113 0.1309 0.0
C2300 C 0.21942 0.81696 0.13736 0.0
C2301 C 0.26554 0.82924 0.1205 0.0
C2302 C 0.25729 0.83928 0.13065 0.0
C2303 C 0.24214 0.83528 0.13541 0.0
C2304 C 0.26462 0.85307 0.13803 0.0
C2305 C 0.28162 0.83325 0.11461 0.0
C2306 C 0.27719 0.85094 0.1483 0.0
C2307 C 0.28178 0.86299 0.15825 0.0
C2308 C 0.27382 0.87733 0.15814 0.0
C2309 C 0.26213 0.87989 0.14693 0.0
C2310 C 0.25748 0.86778 0.13701 0.0
H2311 H 0.28421 0.82721 0.10342 0.0
H2312 H 0.28293 0.84603 0.11287 0.0
H2313 H 0.29041 0.82941 0.12331 0.0
H2314 H 0.28268 0.83962 0.14948 0.0
H2315 H 0.29083 0.86069 0.16678 0.0
H2316 H 0.70292 0.12228 0.15932 0.0
H2317 H 0.70436 0.14403 0.14078 0.0
H2318 H 0.75442 0.13893 0.13881 0.0
H2319 H 0.75303 0.11716 0.15696 0.0
H2320 H 0.7187 0.17055 0.1481 0.0
H2321 H 0.7452 0.14843 0.09395 0.0
H2322 H 0.73653 0.13557 0.10823 0.0
H2323 H 0.75646 0.142 0.11034 0.0
C2324 C 0.71416 0.12548 0.1545 0.0
C2325 C 0.72788 0.1181 0.15964 0.0
C2326 C 0.71497 0.13792 0.14394 0.0
C2327 C 0.72948 0.14303 0.13827 0.0
C2328 C 0.74305 0.13499 0.14268 0.0
H2329 H 0.77335 0.22838 0.13154 0.0
H2330 H 0.75827 0.20517 0.13818 0.0
C2331 C 0.74226 0.1226 0.15319 0.0
C2332 C 0.73094 0.15812 0.12994 0.0
H2333 H 0.75149 0.1756 0.10068 0.0
C2334 C 0.72549 0.17162 0.13748 0.0
C2335 C 0.73954 0.1596 0.11593 0.0
C2336 C 0.7446 0.14557 0.10658 0.0
C2337 C 0.72967 0.18653 0.13219 0.0
C2338 C 0.73977 0.18793 0.11923 0.0
C2339 C 0.74398 0.17451 0.11082 0.0
C2340 C 0.74758 0.20286 0.11539 0.0
C2341 C 0.7237 0.20062 0.1409 0.0
C2342 C 0.74674 0.20919 0.10031 0.0
C2343 C 0.75544 0.22245 0.09646 0.0
C2344 C 0.76525 0.22947 0.10759 0.0
C2345 C 0.76583 0.22328 0.12275 0.0
C2346 C 0.75713 0.21008 0.12659 0.0
H2347 H 0.71222 0.19817 0.14641 0.0
H2348 H 0.73202 0.20362 0.15036 0.0
H2349 H 0.72248 0.21087 0.13308 0.0
H2350 H 0.73956 0.2037 0.09147 0.0
H2351 H 0.75484 0.22693 0.08465 0.0
H2352 H 0.65897 0.62366 0.74209 0.0
H2353 H 0.64286 0.64718 0.74168 0.0
H2354 H 0.65021 0.65331 0.79108 0.0
H2355 H 0.66642 0.62969 0.7916 0.0
H2356 H 0.61544 0.65754 0.76025 0.0
H2357 H 0.66947 0.6928 0.7691 0.0
H2358 H 0.67026 0.67262 0.76313 0.0
H2359 H 0.66516 0.67749 0.78283 0.0
C2360 C 0.65691 0.62983 0.75293 0.0
C2361 C 0.66407 0.62495 0.76685 0.0
C2362 C 0.64768 0.64323 0.75268 0.0
C2363 C 0.64554 0.65204 0.7663 0.0
C2364 C 0.65187 0.6467 0.78043 0.0
H2365 H 0.61519 0.74984 0.75616 0.0
H2366 H 0.6225 0.72553 0.76956 0.0
C2367 C 0.66105 0.6332 0.78071 0.0
C2368 C 0.63797 0.6675 0.76515 0.0
H2369 H 0.64679 0.7062 0.76199 0.0
C2370 C 0.62218 0.66823 0.76094 0.0
C2371 C 0.64681 0.6814 0.76616 0.0
C2372 C 0.66389 0.68118 0.77048 0.0
C2373 C 0.61517 0.68248 0.75696 0.0
C2374 C 0.62432 0.69623 0.75683 0.0
C2375 C 0.63982 0.69563 0.76206 0.0
C2376 C 0.61876 0.7108 0.74938 0.0
C2377 C 0.59814 0.6826 0.7525 0.0
C2378 C 0.61447 0.71058 0.73359 0.0
C2379 C 0.61037 0.72434 0.72596 0.0
C2380 C 0.61061 0.73867 0.73392 0.0
C2381 C 0.61488 0.73894 0.74976 0.0
C2382 C 0.61901 0.72509 0.75742 0.0
H2383 H 0.59169 0.67308 0.75849 0.0
H2384 H 0.59255 0.69393 0.75541 0.0
H2385 H 0.59706 0.68064 0.73975 0.0
H2386 H 0.61464 0.69978 0.72702 0.0
H2387 H 0.60719 0.72374 0.71374 0.0
H2388 H 0.26793 0.58552 0.74369 0.0
H2389 H 0.29326 0.5919 0.75532 0.0
H2390 H 0.28659 0.64031 0.74324 0.0
H2391 H 0.26125 0.63407 0.73178 0.0
H2392 H 0.31808 0.60417 0.73941 0.0
H2393 H 0.30197 0.6433 0.78804 0.0
H2394 H 0.28801 0.6306 0.77864 0.0
H2395 H 0.29287 0.6492 0.77014 0.0
C2396 C 0.27175 0.59757 0.74377 0.0
C2397 C 0.26263 0.60932 0.73684 0.0
C2398 C 0.28621 0.60118 0.75042 0.0
C2399 C 0.29169 0.6166 0.75035 0.0
C2400 C 0.28241 0.62839 0.74376 0.0
H2401 H 0.37527 0.66235 0.7377 0.0
H2402 H 0.3527 0.6451 0.73678 0.0
C2403 C 0.26799 0.6248 0.73712 0.0
C2404 C 0.3077 0.62028 0.75571 0.0
H2405 H 0.32811 0.64648 0.77762 0.0
C2406 C 0.3203 0.61317 0.74803 0.0
C2407 C 0.31062 0.63178 0.76718 0.0
C2408 C 0.29764 0.63903 0.77659 0.0
C2409 C 0.33567 0.61818 0.75059 0.0
C2410 C 0.33842 0.63074 0.76092 0.0
C2411 C 0.32596 0.63696 0.76956 0.0
C2412 C 0.35355 0.63905 0.7613 0.0
C2413 C 0.34876 0.61037 0.74179 0.0
C2414 C 0.3616 0.64133 0.77539 0.0
C2415 C 0.37458 0.65123 0.77594 0.0
C2416 C 0.37948 0.65917 0.76245 0.0
C2417 C 0.37177 0.65636 0.74827 0.0
C2418 C 0.35893 0.64641 0.74771 0.0
H2419 H 0.34579 0.59807 0.73894 0.0
H2420 H 0.35071 0.61664 0.73062 0.0
H2421 H 0.35979 0.61057 0.74858 0.0
H2422 H 0.35751 0.63586 0.78603 0.0
H2423 H 0.38027 0.65328 0.78704 0.0
H2424 H 0.37581 0.26077 0.73855 0.0
H2425 H 0.36927 0.28505 0.75208 0.0
H2426 H 0.40122 0.31029 0.72249 0.0
H2427 H 0.40759 0.28608 0.70868 0.0
H2428 H 0.38724 0.30806 0.76806 0.0
H2429 H 0.359 0.33127 0.71427 0.0
H2430 H 0.36455 0.31106 0.71618 0.0
H2431 H 0.37912 0.32567 0.71251 0.0
C2432 C 0.38153 0.27147 0.73501 0.0
C2433 C 0.39202 0.2716 0.72242 0.0
C2434 C 0.37785 0.2853 0.74279 0.0
C2435 C 0.38461 0.29947 0.73813 0.0
C2436 C 0.39569 0.29951 0.72608 0.0
H2437 H 0.34234 0.38906 0.76144 0.0
H2438 H 0.36366 0.37138 0.75437 0.0
C2439 C 0.39931 0.28568 0.71822 0.0
C2440 C 0.37904 0.31424 0.74511 0.0
H2441 H 0.35687 0.34624 0.73691 0.0
C2442 C 0.38079 0.31655 0.76124 0.0
C2443 C 0.37072 0.32533 0.73615 0.0
C2444 C 0.36809 0.32324 0.71884 0.0
C2445 C 0.3739 0.32939 0.76875 0.0
C2446 C 0.36486 0.33999 0.75991 0.0
C2447 C 0.36387 0.33814 0.74366 0.0
C2448 C 0.35448 0.3517 0.76726 0.0
C2449 C 0.37609 0.33128 0.7861 0.0
C2450 C 0.34255 0.34666 0.77728 0.0
C2451 C 0.3304 0.35671 0.78133 0.0
C2452 C 0.32989 0.37195 0.7753 0.0
C2453 C 0.34243 0.37737 0.76624 0.0
C2454 C 0.35461 0.36729 0.7622 0.0
H2455 H 0.38742 0.32627 0.78993 0.0
H2456 H 0.37562 0.34375 0.78962 0.0
H2457 H 0.36668 0.3249 0.79229 0.0
H2458 H 0.34197 0.33461 0.78106 0.0
H2459 H 0.32089 0.3522 0.78834 0.0
H2460 H 0.61864 0.34625 0.79675 0.0
H2461 H 0.64045 0.36474 0.79679 0.0
H2462 H 0.63835 0.36721 0.74654 0.0
H2463 H 0.61648 0.34914 0.74646 0.0
H2464 H 0.66745 0.35694 0.78431 0.0
H2465 H 0.64879 0.41158 0.75632 0.0
H2466 H 0.63492 0.39768 0.76401 0.0
H2467 H 0.64264 0.39545 0.74455 0.0
C2468 C 0.62247 0.35122 0.78577 0.0
C2469 C 0.61596 0.34617 0.77158 0.0
C2470 C 0.63495 0.36175 0.78581 0.0
C2471 C 0.641 0.36748 0.77169 0.0
C2472 C 0.6337 0.3633 0.75762 0.0
H2473 H 0.72793 0.37011 0.7321 0.0
H2474 H 0.70406 0.36481 0.74661 0.0
C2475 C 0.62125 0.35282 0.75757 0.0
C2476 C 0.65639 0.37538 0.77119 0.0
H2477 H 0.67606 0.40376 0.75141 0.0
C2478 C 0.66928 0.36746 0.77751 0.0
C2479 C 0.65886 0.38925 0.7626 0.0
C2480 C 0.6455 0.39904 0.75666 0.0
C2481 C 0.68458 0.37217 0.77416 0.0
C2482 C 0.68702 0.38492 0.76399 0.0
C2483 C 0.67418 0.39377 0.75896 0.0
C2484 C 0.70243 0.38791 0.75676 0.0
C2485 C 0.69797 0.36301 0.78098 0.0
C2486 C 0.70941 0.4027 0.75753 0.0
C2487 C 0.72309 0.40579 0.74915 0.0
C2488 C 0.72985 0.39416 0.73973 0.0
C2489 C 0.72304 0.37927 0.73931 0.0
C2490 C 0.70945 0.37619 0.7477 0.0
H2491 H 0.69473 0.35787 0.79244 0.0
H2492 H 0.70096 0.35324 0.77301 0.0
H2493 H 0.70849 0.37042 0.78255 0.0
H2494 H 0.70409 0.41194 0.76433 0.0
H2495 H 0.72804 0.41741 0.74961 0.0
H2496 H 0.65789 0.38233 0.22445 0.0
H2497 H 0.63927 0.36089 0.22855 0.0
H2498 H 0.67751 0.32826 0.23138 0.0
H2499 H 0.69602 0.34941 0.22712 0.0
H2500 H 0.65145 0.31692 0.21446 0.0
H2501 H 0.63536 0.34155 0.27251 0.0
H2502 H 0.63271 0.35388 0.25575 0.0
H2503 H 0.65204 0.34846 0.2617 0.0
C2504 C 0.66226 0.37054 0.22572 0.0
C2505 C 0.67839 0.36754 0.22565 0.0
C2506 C 0.65164 0.35834 0.22811 0.0
C2507 C 0.65706 0.34305 0.23046 0.0
C2508 C 0.6731 0.33998 0.22959 0.0
H2509 H 0.63514 0.26485 0.28383 0.0
H2510 H 0.64434 0.28837 0.27066 0.0
C2511 C 0.68366 0.3521 0.22723 0.0
C2512 C 0.64643 0.33028 0.23513 0.0
H2513 H 0.62632 0.31649 0.2666 0.0
C2514 C 0.64565 0.31689 0.22571 0.0
C2515 C 0.63903 0.33031 0.24989 0.0
C2516 C 0.63983 0.34424 0.26065 0.0
C2517 C 0.63832 0.30323 0.23101 0.0
C2518 C 0.63153 0.30308 0.24603 0.0
C2519 C 0.63157 0.31671 0.25508 0.0
C2520 C 0.62596 0.28849 0.25335 0.0
C2521 C 0.63871 0.28878 0.22095 0.0
C2522 C 0.61264 0.28073 0.24786 0.0
C2523 C 0.60736 0.26721 0.25535 0.0
C2524 C 0.61533 0.26134 0.26845 0.0
C2525 C 0.62877 0.26907 0.27376 0.0
C2526 C 0.63401 0.28253 0.26629 0.0
H2527 H 0.64612 0.29033 0.21042 0.0
H2528 H 0.64319 0.27869 0.22775 0.0
H2529 H 0.62669 0.28592 0.21709 0.0
H2530 H 0.60619 0.28528 0.23798 0.0
H2531 H 0.59691 0.26153 0.25108 0.0
H2532 H 0.72624 0.62843 0.29592 0.0
H2533 H 0.70448 0.64027 0.28195 0.0
H2534 H 0.72339 0.62382 0.23827 0.0
H2535 H 0.74506 0.61145 0.25232 0.0
H2536 H 0.70461 0.66274 0.26048 0.0
H2537 H 0.67866 0.60893 0.23534 0.0
H2538 H 0.69349 0.60843 0.25027 0.0
H2539 H 0.69875 0.61203 0.23029 0.0
C2540 C 0.72579 0.62731 0.28334 0.0
C2541 C 0.73732 0.61899 0.2752 0.0
C2542 C 0.71332 0.63407 0.27537 0.0
C2543 C 0.71217 0.63273 0.25909 0.0
C2544 C 0.72384 0.62468 0.25086 0.0
H2545 H 0.64796 0.69516 0.21074 0.0
H2546 H 0.67121 0.68011 0.2176 0.0
C2547 C 0.73628 0.61775 0.25888 0.0
C2548 C 0.6989 0.64023 0.2509 0.0
H2549 H 0.66711 0.63294 0.22796 0.0
C2550 C 0.69644 0.65623 0.25332 0.0
C2551 C 0.68817 0.63166 0.24171 0.0
C2552 C 0.68977 0.61429 0.23933 0.0
C2553 C 0.68343 0.66389 0.24706 0.0
C2554 C 0.67284 0.65541 0.23762 0.0
C2555 C 0.67536 0.63943 0.23504 0.0
C2556 C 0.65865 0.66286 0.23112 0.0
C2557 C 0.68085 0.68084 0.25117 0.0
C2558 C 0.6438 0.65753 0.23554 0.0
C2559 C 0.63045 0.66594 0.23135 0.0
C2560 C 0.63182 0.67986 0.2228 0.0
C2561 C 0.6466 0.68458 0.21752 0.0
C2562 C 0.65989 0.67604 0.22149 0.0
H2563 H 0.68763 0.68434 0.26165 0.0
H2564 H 0.68472 0.68826 0.2413 0.0
H2565 H 0.66831 0.68325 0.2534 0.0
H2566 H 0.64258 0.64731 0.24288 0.0
H2567 H 0.61918 0.66204 0.23555 0.0
H2568 H 0.34964 0.60805 0.22972 0.0
H2569 H 0.36819 0.62948 0.23395 0.0
H2570 H 0.33218 0.66283 0.2227 0.0
H2571 H 0.31386 0.64163 0.21805 0.0
H2572 H 0.36099 0.67224 0.21222 0.0
H2573 H 0.36321 0.65361 0.2745 0.0
H2574 H 0.36978 0.63961 0.26036 0.0
H2575 H 0.34959 0.64526 0.26082 0.0
C2576 C 0.34583 0.61994 0.22779 0.0
C2577 C 0.33025 0.6232 0.22382 0.0
C2578 C 0.35639 0.63216 0.2303 0.0
C2579 C 0.35144 0.64774 0.229 0.0
C2580 C 0.33624 0.6509 0.22384 0.0
H2581 H 0.36527 0.72942 0.28051 0.0
H2582 H 0.35793 0.70514 0.26755 0.0
C2583 C 0.32575 0.63876 0.22126 0.0
C2584 C 0.36119 0.66087 0.23462 0.0
H2585 H 0.37463 0.67751 0.26821 0.0
C2586 C 0.36426 0.67332 0.2244 0.0
C2587 C 0.36526 0.66227 0.25057 0.0
C2588 C 0.36173 0.64956 0.26227 0.0
C2589 C 0.37055 0.68744 0.22986 0.0
C2590 C 0.3741 0.68899 0.2459 0.0
C2591 C 0.37186 0.67624 0.25593 0.0
C2592 C 0.37852 0.70413 0.25294 0.0
C2593 C 0.37247 0.70088 0.21865 0.0
C2594 C 0.39247 0.7117 0.2489 0.0
C2595 C 0.39663 0.7257 0.25622 0.0
C2596 C 0.38696 0.73221 0.26778 0.0
C2597 C 0.37295 0.72468 0.27165 0.0
C2598 C 0.36876 0.71079 0.26428 0.0
H2599 H 0.36662 0.69863 0.20729 0.0
H2600 H 0.36763 0.71178 0.22372 0.0
H2601 H 0.38507 0.70279 0.21638 0.0
H2602 H 0.40028 0.70662 0.24037 0.0
H2603 H 0.40758 0.73121 0.25311 0.0
H2604 H 0.37843 0.33377 0.25343 0.0
H2605 H 0.35633 0.35161 0.25569 0.0
H2606 H 0.35212 0.35307 0.20556 0.0
H2607 H 0.37427 0.33504 0.20318 0.0
H2608 H 0.3495 0.38221 0.24253 0.0
H2609 H 0.30991 0.33499 0.22152 0.0
H2610 H 0.32963 0.33102 0.22773 0.0
H2611 H 0.32613 0.34034 0.20931 0.0
C2612 C 0.37298 0.33808 0.24287 0.0
C2613 C 0.37795 0.33289 0.22813 0.0
C2614 C 0.36039 0.3483 0.24418 0.0
C2615 C 0.3525 0.35346 0.23081 0.0
C2616 C 0.35798 0.34904 0.21602 0.0
H2617 H 0.25767 0.39168 0.24089 0.0
H2618 H 0.28232 0.38485 0.22796 0.0
C2619 C 0.37065 0.33882 0.21468 0.0
C2620 C 0.33779 0.36228 0.23267 0.0
H2621 H 0.29829 0.3574 0.23184 0.0
C2622 C 0.33828 0.37694 0.23993 0.0
C2623 C 0.3232 0.3554 0.22916 0.0
C2624 C 0.32205 0.33954 0.22157 0.0
C2625 C 0.32453 0.38459 0.24447 0.0
C2626 C 0.30999 0.37718 0.24196 0.0
C2627 C 0.30946 0.36301 0.23378 0.0
C2628 C 0.29547 0.38283 0.24943 0.0
C2629 C 0.32573 0.40031 0.25229 0.0
C2630 C 0.29469 0.38382 0.26575 0.0
C2631 C 0.2807 0.38763 0.27312 0.0
C2632 C 0.26715 0.39042 0.26432 0.0
C2633 C 0.26794 0.38961 0.24796 0.0
C2634 C 0.282 0.38575 0.24056 0.0
H2635 H 0.33634 0.40667 0.24839 0.0
H2636 H 0.31532 0.40763 0.24982 0.0
H2637 H 0.32663 0.39864 0.2651 0.0
H2638 H 0.30481 0.38119 0.27285 0.0
H2639 H 0.28045 0.38813 0.28575 0.0
H2640 H 0.72796 0.63407 0.73594 0.0
H2641 H 0.74213 0.64377 0.71317 0.0
H2642 H 0.75059 0.59652 0.69804 0.0
H2643 H 0.73636 0.58666 0.72084 0.0
H2644 H 0.77401 0.63664 0.70178 0.0
H2645 H 0.72617 0.61839 0.66156 0.0
H2646 H 0.72318 0.62007 0.68235 0.0
H2647 H 0.73421 0.60405 0.67463 0.0
C2648 C 0.73298 0.62573 0.72786 0.0
C2649 C 0.73097 0.60962 0.73009 0.0
C2650 C 0.7411 0.63129 0.7149 0.0
C2651 C 0.74725 0.62085 0.7039 0.0
C2652 C 0.74579 0.60474 0.70636 0.0
H2653 H 0.77493 0.65613 0.61147 0.0
H2654 H 0.7721 0.63731 0.63293 0.0
C2655 C 0.73771 0.59915 0.71939 0.0
C2656 C 0.75432 0.62707 0.68947 0.0
H2657 H 0.74602 0.63401 0.65117 0.0
C2658 C 0.76807 0.63585 0.69063 0.0
C2659 C 0.74659 0.62587 0.67494 0.0
C2660 C 0.73168 0.61666 0.67318 0.0
C2661 C 0.77392 0.64411 0.67776 0.0
C2662 C 0.76556 0.64383 0.66353 0.0
C2663 C 0.75237 0.63422 0.66211 0.0
C2664 C 0.76898 0.65494 0.65076 0.0
C2665 C 0.78876 0.65339 0.67966 0.0
C2666 C 0.76808 0.67101 0.65369 0.0
C2667 C 0.76963 0.6817 0.64154 0.0
C2668 C 0.77199 0.67653 0.62616 0.0
C2669 C 0.77315 0.66043 0.62322 0.0
C2670 C 0.77157 0.64969 0.63544 0.0
H2671 H 0.79645 0.64809 0.68865 0.0
H2672 H 0.7953 0.6542 0.66851 0.0
H2673 H 0.78581 0.66537 0.68359 0.0
H2674 H 0.76565 0.67531 0.66532 0.0
H2675 H 0.76863 0.69403 0.64417 0.0
H2676 H 0.41677 0.724 0.71654 0.0
H2677 H 0.40665 0.73712 0.69332 0.0
H2678 H 0.36261 0.74448 0.71658 0.0
H2679 H 0.37255 0.73107 0.73973 0.0
H2680 H 0.35945 0.73002 0.68869 0.0
H2681 H 0.39708 0.78222 0.68187 0.0
H2682 H 0.40779 0.76432 0.68392 0.0
H2683 H 0.39601 0.77125 0.69984 0.0
C2684 C 0.40502 0.72867 0.7168 0.0
C2685 C 0.3954 0.72645 0.7299 0.0
C2686 C 0.39931 0.73628 0.70356 0.0
C2687 C 0.38395 0.74193 0.70328 0.0
C2688 C 0.37453 0.74026 0.71659 0.0
H2689 H 0.3322 0.7913 0.63239 0.0
H2690 H 0.34903 0.78504 0.65461 0.0
C2691 C 0.38021 0.73259 0.7298 0.0
C2692 C 0.37709 0.74791 0.68859 0.0
H2693 H 0.38107 0.77545 0.66003 0.0
C2694 C 0.36413 0.74 0.68248 0.0
C2695 C 0.38321 0.76097 0.68055 0.0
C2696 C 0.3967 0.77029 0.68694 0.0
C2697 C 0.35717 0.74469 0.66847 0.0
C2698 C 0.36357 0.75743 0.66015 0.0
C2699 C 0.37639 0.76553 0.66633 0.0
C2700 C 0.35648 0.76276 0.64536 0.0
C2701 C 0.34284 0.73611 0.66285 0.0
C2702 C 0.35583 0.75269 0.63246 0.0
C2703 C 0.34615 0.75617 0.61983 0.0
C2704 C 0.33711 0.76985 0.61987 0.0
C2705 C 0.33899 0.78065 0.63208 0.0
C2706 C 0.3486 0.77709 0.64478 0.0
H2707 H 0.33738 0.7291 0.6723 0.0
H2708 H 0.334 0.74438 0.65822 0.0
H2709 H 0.34618 0.72801 0.65331 0.0
H2710 H 0.36206 0.74169 0.63261 0.0
H2711 H 0.34504 0.7477 0.61051 0.0
H2712 H 0.24693 0.36513 0.74759 0.0
H2713 H 0.23487 0.35541 0.72351 0.0
H2714 H 0.27865 0.36097 0.69931 0.0
H2715 H 0.29069 0.37083 0.72317 0.0
H2716 H 0.25277 0.37541 0.68455 0.0
H2717 H 0.24065 0.31352 0.7003 0.0
H2718 H 0.23376 0.32819 0.71363 0.0
H2719 H 0.25435 0.32539 0.71104 0.0
C2720 C 0.25403 0.36399 0.7372 0.0
C2721 C 0.26974 0.36874 0.73724 0.0
C2722 C 0.24713 0.35844 0.72348 0.0
C2723 C 0.25589 0.35746 0.70967 0.0
C2724 C 0.2717 0.36169 0.70985 0.0
H2725 H 0.25406 0.33 0.61547 0.0
H2726 H 0.25805 0.34265 0.64066 0.0
C2727 C 0.27856 0.36726 0.7235 0.0
C2728 C 0.24858 0.35282 0.69475 0.0
H2729 H 0.23339 0.32169 0.67512 0.0
C2730 C 0.24839 0.36371 0.68251 0.0
C2731 C 0.24274 0.3376 0.69221 0.0
C2732 C 0.24293 0.32542 0.70492 0.0
C2733 C 0.24299 0.35963 0.66762 0.0
C2734 C 0.23785 0.34421 0.66488 0.0
C2735 C 0.23734 0.33352 0.6773 0.0
C2736 C 0.23457 0.33843 0.64896 0.0
C2737 C 0.24307 0.37177 0.65488 0.0
C2738 C 0.21999 0.33197 0.64522 0.0
C2739 C 0.21766 0.32474 0.63077 0.0
C2740 C 0.22997 0.32368 0.61997 0.0
C2741 C 0.24435 0.33069 0.62353 0.0
C2742 C 0.24663 0.33798 0.6379 0.0
H2743 H 0.24259 0.38377 0.65978 0.0
H2744 H 0.25403 0.3707 0.64806 0.0
H2745 H 0.23308 0.37015 0.64679 0.0
H2746 H 0.21058 0.33212 0.65367 0.0
H2747 H 0.20649 0.31935 0.62836 0.0
H2748 H 0.65186 0.22987 0.61357 0.0
H2749 H 0.63256 0.2378 0.63318 0.0
H2750 H 0.66231 0.21994 0.66965 0.0
H2751 H 0.68132 0.21163 0.65023 0.0
H2752 H 0.63112 0.21574 0.67628 0.0
H2753 H 0.64365 0.27682 0.65786 0.0
H2754 H 0.63574 0.26423 0.6431 0.0
H2755 H 0.65487 0.26048 0.65084 0.0
C2756 C 0.65406 0.22727 0.62574 0.0
C2757 C 0.6682 0.22038 0.63041 0.0
C2758 C 0.64309 0.23189 0.63692 0.0
C2759 C 0.64621 0.22981 0.65288 0.0
C2760 C 0.65971 0.22175 0.65741 0.0
H2761 H 0.63162 0.28512 0.73285 0.0
H2762 H 0.64004 0.27067 0.70976 0.0
C2763 C 0.67059 0.21704 0.64628 0.0
C2764 C 0.63662 0.23751 0.66502 0.0
H2765 H 0.62811 0.27344 0.68 0.0
C2766 C 0.63022 0.22835 0.67701 0.0
C2767 C 0.63568 0.25399 0.666 0.0
C2768 C 0.64293 0.26451 0.65386 0.0
C2769 C 0.62344 0.23523 0.69026 0.0
C2770 C 0.62285 0.25169 0.69137 0.0
C2771 C 0.62862 0.26082 0.67907 0.0
C2772 C 0.6176 0.25978 0.7057 0.0
C2773 C 0.61776 0.22487 0.70331 0.0
C2774 C 0.60221 0.2584 0.71109 0.0
C2775 C 0.5974 0.26657 0.72438 0.0
C2776 C 0.60789 0.27636 0.73235 0.0
C2777 C 0.62329 0.27766 0.72695 0.0
C2778 C 0.6281 0.26944 0.71375 0.0
H2779 H 0.62186 0.21264 0.70196 0.0
H2780 H 0.62178 0.22935 0.71479 0.0
H2781 H 0.60481 0.22478 0.70337 0.0
H2782 H 0.59385 0.25123 0.70488 0.0
H2783 H 0.58541 0.26544 0.72823 0.0
H2784 H 0.72063 0.40722 0.28147 0.0
H2785 H 0.73221 0.39854 0.30605 0.0
H2786 H 0.76254 0.3673 0.28072 0.0
H2787 H 0.75138 0.37637 0.25608 0.0
H2788 H 0.73024 0.37024 0.31727 0.0
H2789 H 0.79281 0.38461 0.31171 0.0
H2790 H 0.77824 0.39266 0.29879 0.0
H2791 H 0.7862 0.3735 0.29528 0.0
C2792 C 0.72998 0.39871 0.28114 0.0
C2793 C 0.7351 0.39243 0.26689 0.0
C2794 C 0.7366 0.39379 0.29519 0.0
C2795 C 0.74841 0.38243 0.29526 0.0
C2796 C 0.75378 0.3764 0.28098 0.0
H2797 H 0.77787 0.31026 0.35423 0.0
H2798 H 0.77333 0.32957 0.33375 0.0
C2799 C 0.74729 0.38148 0.2669 0.0
C2800 C 0.75379 0.37558 0.31022 0.0
H2801 H 0.78634 0.36418 0.33024 0.0
C2802 C 0.7425 0.36925 0.32027 0.0
C2803 C 0.76979 0.3743 0.31418 0.0
C2804 C 0.78242 0.38179 0.30448 0.0
C2805 C 0.74678 0.36095 0.33369 0.0
C2806 C 0.76277 0.35893 0.33713 0.0
C2807 C 0.77408 0.36576 0.32749 0.0
C2808 C 0.76776 0.3483 0.34971 0.0
C2809 C 0.73425 0.35368 0.34371 0.0
C2810 C 0.7665 0.35264 0.36544 0.0
C2811 C 0.76918 0.34163 0.37722 0.0
C2812 C 0.77296 0.32614 0.37333 0.0
C2813 C 0.77488 0.32208 0.35756 0.0
C2814 C 0.77236 0.33309 0.34585 0.0
H2815 H 0.72236 0.35567 0.33895 0.0
H2816 H 0.73625 0.34091 0.34472 0.0
H2817 H 0.7348 0.35868 0.35564 0.0
H2818 H 0.76292 0.36435 0.36857 0.0
H2819 H 0.76761 0.34505 0.38929 0.0
H2820 H 0.61794 0.75645 0.24581 0.0
H2821 H 0.62823 0.77004 0.26884 0.0
H2822 H 0.60808 0.73488 0.29867 0.0
H2823 H 0.59773 0.72132 0.27583 0.0
H2824 H 0.60527 0.76737 0.30971 0.0
H2825 H 0.66549 0.74948 0.29284 0.0
H2826 H 0.65421 0.75971 0.27839 0.0
H2827 H 0.64836 0.74055 0.28447 0.0
C2828 C 0.61554 0.75176 0.2573 0.0
C2829 C 0.6072 0.73775 0.25904 0.0
C2830 C 0.62142 0.75951 0.27041 0.0
C2831 C 0.61901 0.75335 0.28539 0.0
C2832 C 0.61005 0.7398 0.28719 0.0
H2833 H 0.65108 0.7605 0.37937 0.0
H2834 H 0.6349 0.75822 0.35595 0.0
C2835 C 0.60422 0.73203 0.27413 0.0
C2836 C 0.62689 0.76014 0.29914 0.0
H2837 H 0.66259 0.76291 0.31642 0.0
C2838 C 0.61783 0.76659 0.31116 0.0
C2839 C 0.64324 0.75903 0.30094 0.0
C2840 C 0.65345 0.75174 0.28857 0.0
C2841 C 0.62472 0.77186 0.32507 0.0
C2842 C 0.64103 0.77028 0.32708 0.0
C2843 C 0.65009 0.76419 0.31485 0.0
C2844 C 0.64903 0.77387 0.34199 0.0
C2845 C 0.61448 0.77905 0.33745 0.0
C2846 C 0.66228 0.78349 0.342 0.0
C2847 C 0.67167 0.78455 0.35525 0.0
C2848 C 0.66794 0.77608 0.36877 0.0
C2849 C 0.65415 0.76723 0.36912 0.0
C2850 C 0.64484 0.76601 0.35577 0.0
H2851 H 0.60376 0.78419 0.33229 0.0
H2852 H 0.61082 0.76985 0.3458 0.0
H2853 H 0.62078 0.78827 0.34403 0.0
H2854 H 0.66574 0.78963 0.3315 0.0
H2855 H 0.68221 0.79152 0.35469 0.0
H2856 H 0.25131 0.65405 0.3796 0.0
H2857 H 0.25344 0.63652 0.3573 0.0
H2858 H 0.2041 0.64131 0.34858 0.0
H2859 H 0.20191 0.65919 0.37084 0.0
H2860 H 0.23929 0.60884 0.34624 0.0
H2861 H 0.22481 0.66091 0.30998 0.0
H2862 H 0.22899 0.66246 0.33053 0.0
H2863 H 0.21054 0.65487 0.32411 0.0
C2864 C 0.24082 0.65109 0.37319 0.0
C2865 C 0.22649 0.6582 0.37677 0.0
C2866 C 0.24205 0.64102 0.36047 0.0
C2867 C 0.22899 0.63789 0.35112 0.0
C2868 C 0.21436 0.64381 0.35552 0.0
H2869 H 0.25067 0.58534 0.26454 0.0
H2870 H 0.23593 0.59306 0.28791 0.0
C2871 C 0.21312 0.65394 0.36827 0.0
C2872 C 0.23138 0.63027 0.33581 0.0
H2873 H 0.2343 0.63892 0.29703 0.0
C2874 C 0.23787 0.61523 0.33541 0.0
C2875 C 0.22965 0.63877 0.32174 0.0
C2876 C 0.22322 0.65518 0.3215 0.0
C2877 C 0.24344 0.60878 0.3214 0.0
C2878 C 0.24234 0.61759 0.3075 0.0
C2879 C 0.23504 0.63223 0.30775 0.0
C2880 C 0.25063 0.61291 0.29313 0.0
C2881 C 0.25139 0.59307 0.32171 0.0
C2882 C 0.26354 0.6217 0.28824 0.0
C2883 C 0.27191 0.61738 0.27499 0.0
C2884 C 0.26747 0.60421 0.26631 0.0
C2885 C 0.25435 0.59555 0.27104 0.0
C2886 C 0.24598 0.59988 0.28439 0.0
H2887 H 0.25267 0.58845 0.33376 0.0
H2888 H 0.24447 0.5846 0.31479 0.0
H2889 H 0.26314 0.5939 0.3163 0.0
H2890 H 0.26729 0.63181 0.29485 0.0
H2891 H 0.28195 0.62428 0.27163 0.0
H2892 H 0.3366 0.25582 0.36924 0.0
H2893 H 0.35377 0.25662 0.34664 0.0
H2894 H 0.35804 0.20646 0.34782 0.0
H2895 H 0.34048 0.20554 0.37048 0.0
H2896 H 0.38392 0.24625 0.34056 0.0
H2897 H 0.33969 0.21511 0.30442 0.0
H2898 H 0.33517 0.22263 0.32355 0.0
H2899 H 0.34677 0.20529 0.32156 0.0
C2900 C 0.34134 0.24495 0.36485 0.0
C2901 C 0.33705 0.2306 0.3715 0.0
C2902 C 0.3512 0.24543 0.35195 0.0
C2903 C 0.35697 0.23159 0.3454 0.0
C2904 C 0.35349 0.21725 0.35255 0.0
H2905 H 0.41519 0.25245 0.26287 0.0
H2906 H 0.40713 0.23835 0.28643 0.0
C2907 C 0.34355 0.21676 0.36553 0.0
C2908 C 0.36556 0.23247 0.33043 0.0
H2909 H 0.36071 0.22656 0.29133 0.0
C2910 C 0.37909 0.24167 0.3298 0.0
C2911 C 0.3591 0.22654 0.31644 0.0
C2912 C 0.34434 0.21691 0.31639 0.0
C2913 C 0.38576 0.24597 0.31548 0.0
C2914 C 0.37887 0.24062 0.30145 0.0
C2915 C 0.36595 0.23058 0.30213 0.0
C2916 C 0.38344 0.24711 0.28609 0.0
C2917 C 0.39939 0.25714 0.31549 0.0
C2918 C 0.37259 0.25605 0.27769 0.0
C2919 C 0.37709 0.26393 0.26417 0.0
C2920 C 0.39255 0.26305 0.25884 0.0
C2921 C 0.40321 0.25342 0.26679 0.0
C2922 C 0.39866 0.24544 0.28029 0.0
H2923 H 0.40157 0.2622 0.32723 0.0
H2924 H 0.41009 0.25084 0.31179 0.0
H2925 H 0.39736 0.26684 0.30714 0.0
H2926 H 0.36076 0.25746 0.28195 0.0
H2927 H 0.3686 0.27122 0.25828 0.0
H2928 H 0.71979 0.73037 0.59128 0.0
H2929 H 0.69841 0.74403 0.60434 0.0
H2930 H 0.73122 0.76545 0.63591 0.0
H2931 H 0.75272 0.75182 0.62289 0.0
H2932 H 0.70662 0.74758 0.64996 0.0
H2933 H 0.68378 0.79031 0.60689 0.0
H2934 H 0.68702 0.77092 0.59954 0.0
H2935 H 0.70334 0.78245 0.60587 0.0
C2936 C 0.72249 0.73826 0.60079 0.0
C2937 C 0.7379 0.73998 0.60614 0.0
C2938 C 0.71027 0.74613 0.60816 0.0
C2939 C 0.71327 0.75585 0.62097 0.0
C2940 C 0.72872 0.75809 0.62594 0.0
H2941 H 0.65139 0.78947 0.69406 0.0
H2942 H 0.67394 0.78556 0.67704 0.0
C2943 C 0.74097 0.7503 0.61851 0.0
C2944 C 0.70018 0.76195 0.63041 0.0
H2945 H 0.6679 0.78528 0.62916 0.0
C2946 C 0.69826 0.75598 0.64551 0.0
C2947 C 0.6892 0.77269 0.62442 0.0
C2948 C 0.69094 0.77959 0.60833 0.0
C2949 C 0.68541 0.76016 0.6547 0.0
C2950 C 0.67442 0.77099 0.64879 0.0
C2951 C 0.6764 0.77707 0.6337 0.0
C2952 C 0.66058 0.77567 0.65802 0.0
C2953 C 0.68342 0.75243 0.67042 0.0
C2954 C 0.64549 0.77231 0.65258 0.0
C2955 C 0.63253 0.7748 0.6622 0.0
C2956 C 0.63453 0.78058 0.67741 0.0
C2957 C 0.64954 0.7848 0.68246 0.0
C2958 C 0.66244 0.78251 0.67278 0.0
H2959 H 0.69038 0.74152 0.67134 0.0
H2960 H 0.68749 0.7605 0.67969 0.0
H2961 H 0.67099 0.74957 0.67268 0.0
H2962 H 0.64381 0.76711 0.64118 0.0
H2963 H 0.62107 0.77148 0.65801 0.0
H2964 H 0.74325 0.25047 0.37926 0.0
H2965 H 0.7189 0.23822 0.37061 0.0
H2966 H 0.69278 0.26823 0.40147 0.0
H2967 H 0.71699 0.28084 0.40977 0.0
H2968 H 0.69498 0.22261 0.38563 0.0
H2969 H 0.67361 0.27801 0.35945 0.0
H2970 H 0.6934 0.27563 0.36618 0.0
H2971 H 0.67793 0.27924 0.3799 0.0
C2972 C 0.73231 0.25439 0.38424 0.0
C2973 C 0.73196 0.26675 0.39499 0.0
C2974 C 0.71843 0.24736 0.37934 0.0
C2975 C 0.70402 0.25253 0.38518 0.0
C2976 C 0.70374 0.26433 0.39653 0.0
H2977 H 0.61104 0.23265 0.34872 0.0
H2978 H 0.6314 0.23832 0.368 0.0
C2979 C 0.71758 0.27149 0.40129 0.0
C2980 C 0.6893 0.24613 0.37876 0.0
H2981 H 0.65688 0.25636 0.35804 0.0
C2982 C 0.68658 0.22999 0.37969 0.0
C2983 C 0.67837 0.25579 0.37101 0.0
C2984 C 0.68099 0.2731 0.36892 0.0
C2985 C 0.6733 0.22322 0.37284 0.0
C2986 C 0.66259 0.23286 0.36483 0.0
C2987 C 0.66505 0.24903 0.36435 0.0
C2988 C 0.64971 0.22644 0.3553 0.0
C2989 C 0.67093 0.20583 0.37407 0.0
C2990 C 0.6532 0.21752 0.34203 0.0
C2991 C 0.64166 0.21436 0.331 0.0
C2992 C 0.62643 0.2201 0.33303 0.0
C2993 C 0.62267 0.22805 0.34688 0.0
C2994 C 0.63427 0.23131 0.35788 0.0
H2995 H 0.67728 0.20088 0.38424 0.0
H2996 H 0.65835 0.2029 0.37514 0.0
H2997 H 0.67551 0.20016 0.36337 0.0
H2998 H 0.66508 0.21391 0.33967 0.0
H2999 H 0.64488 0.2082 0.32043 0.0
H3000 H 0.7991 0.6379 0.32697 0.0
H3001 H 0.79719 0.66114 0.34341 0.0
H3002 H 0.75687 0.64145 0.36632 0.0
H3003 H 0.75931 0.61792 0.3505 0.0
H3004 H 0.77431 0.67967 0.34022 0.0
H3005 H 0.77531 0.66363 0.40238 0.0
H3006 H 0.78197 0.65041 0.38737 0.0
H3007 H 0.76154 0.65148 0.39241 0.0
C3008 C 0.79023 0.63831 0.33597 0.0
C3009 C 0.77931 0.6262 0.33746 0.0
C3010 C 0.78912 0.6516 0.34534 0.0
C3011 C 0.7769 0.65311 0.35616 0.0
C3012 C 0.76665 0.64049 0.35839 0.0
H3013 H 0.71653 0.72848 0.36907 0.0
H3014 H 0.73268 0.70652 0.36103 0.0
C3015 C 0.76798 0.62703 0.34925 0.0
C3016 C 0.77312 0.66866 0.36285 0.0
H3017 H 0.75953 0.68663 0.39572 0.0
C3018 C 0.77149 0.68124 0.35245 0.0
C3019 C 0.76961 0.67092 0.37884 0.0
C3020 C 0.77239 0.6584 0.39088 0.0
C3021 C 0.76542 0.69559 0.35735 0.0
C3022 C 0.7604 0.6973 0.37296 0.0
C3023 C 0.7631 0.68519 0.38366 0.0
C3024 C 0.75097 0.71091 0.3779 0.0
C3025 C 0.76404 0.70865 0.34561 0.0
C3026 C 0.75571 0.72046 0.39033 0.0
C3027 C 0.74639 0.73303 0.39505 0.0
C3028 C 0.73217 0.73612 0.38746 0.0
C3029 C 0.72749 0.7265 0.37505 0.0
C3030 C 0.73675 0.71397 0.37039 0.0
H3031 H 0.77304 0.70758 0.33634 0.0
H3032 H 0.75243 0.70804 0.3399 0.0
H3033 H 0.76525 0.72025 0.35126 0.0
H3034 H 0.76659 0.71819 0.39635 0.0
H3035 H 0.75022 0.74021 0.40472 0.0
H3036 H 0.26539 0.71735 0.36502 0.0
H3037 H 0.28974 0.73041 0.35797 0.0
H3038 H 0.29202 0.75134 0.40368 0.0
H3039 H 0.2675 0.73836 0.41084 0.0
H3040 H 0.29926 0.77211 0.37853 0.0
H3041 H 0.33275 0.71696 0.37519 0.0
H3042 H 0.31511 0.71638 0.3639 0.0
H3043 H 0.31403 0.71833 0.38479 0.0
C3044 C 0.27101 0.72481 0.37355 0.0
C3045 C 0.26461 0.72677 0.38851 0.0
C3046 C 0.28495 0.73218 0.36954 0.0
C3047 C 0.29279 0.74157 0.38042 0.0
C3048 C 0.28618 0.74402 0.39518 0.0
H3049 H 0.38695 0.76454 0.34863 0.0
H3050 H 0.36648 0.75939 0.36796 0.0
C3051 C 0.27219 0.73662 0.39923 0.0
C3052 C 0.30797 0.74864 0.37624 0.0
H3053 H 0.34379 0.73903 0.36191 0.0
C3054 C 0.30913 0.76493 0.37515 0.0
C3055 C 0.32095 0.73927 0.37227 0.0
C3056 C 0.32074 0.72177 0.37425 0.0
C3057 C 0.32256 0.77203 0.36902 0.0
C3058 C 0.33497 0.76254 0.36364 0.0
C3059 C 0.33424 0.74633 0.36589 0.0
C3060 C 0.34776 0.76875 0.35379 0.0
C3061 C 0.32316 0.78959 0.36799 0.0
C3062 C 0.3441 0.77609 0.33963 0.0
C3063 C 0.35573 0.77903 0.32864 0.0
C3064 C 0.37123 0.77456 0.33153 0.0
C3065 C 0.3751 0.76813 0.34611 0.0
C3066 C 0.36342 0.76517 0.35714 0.0
H3067 H 0.31629 0.79504 0.37754 0.0
H3068 H 0.33534 0.79398 0.36856 0.0
H3069 H 0.31793 0.79338 0.35676 0.0
H3070 H 0.3321 0.77861 0.33659 0.0
H3071 H 0.35239 0.78401 0.3175 0.0
H3072 H 0.26332 0.27288 0.41029 0.0
H3073 H 0.2473 0.29458 0.40071 0.0
H3074 H 0.25128 0.27679 0.35379 0.0
H3075 H 0.26724 0.25514 0.36324 0.0
H3076 H 0.25851 0.31618 0.37877 0.0
H3077 H 0.20469 0.28778 0.3573 0.0
H3078 H 0.2177 0.27856 0.37112 0.0
H3079 H 0.22207 0.27821 0.35058 0.0
C3080 C 0.26052 0.27345 0.39797 0.0
C3081 C 0.26654 0.26236 0.38748 0.0
C3082 C 0.25137 0.28582 0.39254 0.0
C3083 C 0.24793 0.28714 0.37659 0.0
C3084 C 0.25351 0.27578 0.36619 0.0
H3085 H 0.22699 0.3461 0.30341 0.0
H3086 H 0.2301 0.32533 0.32255 0.0
C3087 C 0.26273 0.2635 0.37159 0.0
C3088 C 0.24016 0.30124 0.37039 0.0
H3089 H 0.21107 0.31275 0.34579 0.0
C3090 C 0.24791 0.31558 0.37188 0.0
C3091 C 0.22633 0.30036 0.36147 0.0
C3092 C 0.21712 0.28542 0.36013 0.0
C3093 C 0.24293 0.3288 0.3636 0.0
C3094 C 0.22964 0.32765 0.35386 0.0
C3095 C 0.22127 0.31358 0.35324 0.0
C3096 C 0.22568 0.34009 0.34256 0.0
C3097 C 0.25261 0.3435 0.36444 0.0
C3098 C 0.2217 0.35523 0.34744 0.0
C3099 C 0.22002 0.36723 0.33647 0.0
C3100 C 0.2222 0.36418 0.3205 0.0
C3101 C 0.22534 0.34884 0.31564 0.0
C3102 C 0.22706 0.33693 0.32657 0.0
H3103 H 0.26389 0.3416 0.37056 0.0
H3104 H 0.25509 0.348 0.35254 0.0
H3105 H 0.24604 0.35261 0.37087 0.0
H3106 H 0.22033 0.35784 0.35973 0.0
H3107 H 0.2175 0.37893 0.34052 0.0
H3108 H 0.37735 0.21168 0.647 0.0
H3109 H 0.35748 0.21258 0.62627 0.0
H3110 H 0.34245 0.25771 0.64275 0.0
H3111 H 0.36203 0.25688 0.66332 0.0
H3112 H 0.32476 0.21532 0.63213 0.0
H3113 H 0.34585 0.26375 0.5952 0.0
H3114 H 0.35851 0.25309 0.60829 0.0
H3115 H 0.34645 0.26871 0.61553 0.0
C3116 C 0.36997 0.2219 0.64596 0.0
C3117 C 0.37119 0.23421 0.65674 0.0
C3118 C 0.35865 0.22238 0.63417 0.0
C3119 C 0.34868 0.23531 0.63286 0.0
C3120 C 0.35024 0.24777 0.64335 0.0
H3121 H 0.25775 0.25937 0.61837 0.0
H3122 H 0.28211 0.24653 0.62547 0.0
C3123 C 0.36137 0.24723 0.65517 0.0
C3124 C 0.33555 0.23548 0.62167 0.0
H3125 H 0.31775 0.25982 0.59577 0.0
C3126 C 0.32336 0.22477 0.62382 0.0
C3127 C 0.33386 0.24762 0.61065 0.0
C3128 C 0.34696 0.25885 0.60715 0.0
C3129 C 0.30894 0.22682 0.61634 0.0
C3130 C 0.30668 0.24002 0.60669 0.0
C3131 C 0.31939 0.24981 0.60335 0.0
C3132 C 0.29093 0.24523 0.60182 0.0
C3133 C 0.29605 0.21523 0.61939 0.0
C3134 C 0.28775 0.24878 0.58614 0.0
C3135 C 0.27383 0.25625 0.58207 0.0
C3136 C 0.26297 0.26044 0.59364 0.0
C3137 C 0.26587 0.25625 0.6092 0.0
C3138 C 0.27975 0.24877 0.61326 0.0
H3139 H 0.30089 0.20343 0.62173 0.0
H3140 H 0.28942 0.2189 0.62989 0.0
H3141 H 0.28786 0.21449 0.60937 0.0
H3142 H 0.2963 0.24629 0.57716 0.0
H3143 H 0.2719 0.25939 0.56997 0.0
H3144 H 0.72228 0.25563 0.64226 0.0
H3145 H 0.73399 0.28004 0.65116 0.0
H3146 H 0.76162 0.28235 0.60918 0.0
H3147 H 0.74992 0.25779 0.60011 0.0
H3148 H 0.77738 0.29076 0.63981 0.0
H3149 H 0.72191 0.32195 0.62769 0.0
H3150 H 0.71972 0.30432 0.63886 0.0
H3151 H 0.72662 0.30328 0.61909 0.0
C3152 C 0.73103 0.26118 0.63501 0.0
C3153 C 0.73511 0.25487 0.62044 0.0
C3154 C 0.73766 0.27514 0.64009 0.0
C3155 C 0.74846 0.28305 0.6307 0.0
C3156 C 0.75323 0.2764 0.61653 0.0
H3157 H 0.76359 0.38085 0.65627 0.0
H3158 H 0.76175 0.35767 0.63956 0.0
C3159 C 0.74657 0.26239 0.6114 0.0
C3160 C 0.75394 0.29868 0.63546 0.0
H3161 H 0.74031 0.33509 0.6439 0.0
C3162 C 0.7694 0.30056 0.64049 0.0
C3163 C 0.74356 0.31148 0.63601 0.0
C3164 C 0.72705 0.31026 0.62999 0.0
C3165 C 0.77446 0.31473 0.64702 0.0
C3166 C 0.7637 0.32716 0.64869 0.0
C3167 C 0.74854 0.32554 0.64271 0.0
C3168 C 0.76725 0.3413 0.658 0.0
C3169 C 0.79118 0.31615 0.6523 0.0
C3170 C 0.7711 0.33979 0.67384 0.0
C3171 C 0.77214 0.35296 0.68336 0.0
C3172 C 0.76922 0.3679 0.67726 0.0
C3173 C 0.76591 0.36948 0.66128 0.0
C3174 C 0.76488 0.35626 0.65173 0.0
H3175 H 0.79894 0.30834 0.64544 0.0
H3176 H 0.79548 0.32833 0.6512 0.0
H3177 H 0.79203 0.31261 0.66473 0.0
H3178 H 0.77258 0.32837 0.67904 0.0
H3179 H 0.77468 0.35136 0.69564 0.0
H3180 H 0.24756 0.61295 0.66167 0.0
H3181 H 0.25488 0.63424 0.64408 0.0
H3182 H 0.21545 0.66112 0.6601 0.0
H3183 H 0.20778 0.63972 0.67731 0.0
H3184 H 0.22161 0.66601 0.62888 0.0
H3185 H 0.27536 0.67169 0.66475 0.0
H3186 H 0.27311 0.65304 0.65548 0.0
H3187 H 0.25944 0.65908 0.67022 0.0
C3188 C 0.24024 0.62324 0.66115 0.0
C3189 C 0.22725 0.6248 0.67102 0.0
C3190 C 0.24448 0.63542 0.65117 0.0
C3191 C 0.23596 0.64941 0.65114 0.0
C3192 C 0.22226 0.65046 0.66004 0.0
H3193 H 0.27211 0.74156 0.63489 0.0
H3194 H 0.26023 0.71776 0.64523 0.0
C3195 C 0.2179 0.63822 0.66988 0.0
C3196 C 0.24209 0.66349 0.64322 0.0
H3197 H 0.27264 0.68902 0.64364 0.0
C3198 C 0.2328 0.67103 0.63203 0.0
C3199 C 0.25655 0.67016 0.6476 0.0
C3200 C 0.26665 0.66319 0.66027 0.0
C3201 C 0.23759 0.6851 0.6251 0.0
C3202 C 0.25218 0.6916 0.62931 0.0
C3203 C 0.26148 0.68398 0.64041 0.0
C3204 C 0.25799 0.70649 0.62272 0.0
C3205 C 0.22678 0.69312 0.61374 0.0
C3206 C 0.26055 0.7081 0.60663 0.0
C3207 C 0.2672 0.72175 0.60069 0.0
C3208 C 0.27161 0.73392 0.61078 0.0
C3209 C 0.26883 0.73238 0.62685 0.0
C3210 C 0.26206 0.71879 0.63276 0.0
H3211 H 0.21456 0.68898 0.61501 0.0
H3212 H 0.227 0.70597 0.61537 0.0
H3213 H 0.23063 0.69051 0.60165 0.0
H3214 H 0.25783 0.69863 0.59871 0.0
H3215 H 0.26931 0.72259 0.58825 0.0
H3216 H 0.19245 0.38101 0.24671 0.0
H3217 H 0.16778 0.37111 0.23702 0.0
H3218 H 0.14339 0.39483 0.27419 0.0
H3219 H 0.1684 0.40434 0.2844 0.0
H3220 H 0.13474 0.36628 0.27365 0.0
H3221 H 0.13147 0.38596 0.21297 0.0
H3222 H 0.15037 0.37749 0.21561 0.0
H3223 H 0.14496 0.39464 0.22664 0.0
C3224 C 0.18183 0.38444 0.25265 0.0
C3225 C 0.18236 0.39337 0.26637 0.0
C3226 C 0.16764 0.37892 0.24696 0.0
C3227 C 0.15361 0.38246 0.25466 0.0
C3228 C 0.15404 0.39205 0.26796 0.0
H3229 H 0.08507 0.32164 0.20899 0.0
H3230 H 0.09395 0.34646 0.22024 0.0
C3231 C 0.16832 0.39747 0.27378 0.0
C3232 C 0.13914 0.37407 0.2501 0.0
H3233 H 0.12144 0.35906 0.2178 0.0
C3234 C 0.13149 0.36509 0.26148 0.0
C3235 C 0.13437 0.37281 0.23433 0.0
C3236 C 0.14065 0.38343 0.22178 0.0
C3237 C 0.12064 0.3536 0.25727 0.0
C3238 C 0.1178 0.35067 0.24127 0.0
C3239 C 0.12396 0.36093 0.23007 0.0
C3240 C 0.11073 0.33582 0.23585 0.0
C3241 C 0.11289 0.34426 0.27001 0.0
C3242 C 0.11718 0.32162 0.24087 0.0
C3243 C 0.11209 0.30753 0.23459 0.0
C3244 C 0.10062 0.30731 0.2229 0.0
C3245 C 0.09392 0.32147 0.21801 0.0
C3246 C 0.09896 0.33564 0.22443 0.0
H3247 H 0.11067 0.35168 0.28041 0.0
H3248 H 0.10165 0.33914 0.26607 0.0
H3249 H 0.12079 0.33468 0.27371 0.0
H3250 H 0.12666 0.32143 0.24923 0.0
H3251 H 0.11756 0.29683 0.23852 0.0
H3252 H 0.69598 0.12083 0.23742 0.0
H3253 H 0.67152 0.12926 0.24896 0.0
H3254 H 0.64663 0.09457 0.22225 0.0
H3255 H 0.67132 0.08627 0.2102 0.0
H3256 H 0.63251 0.12196 0.2202 0.0
H3257 H 0.64425 0.11151 0.28225 0.0
H3258 H 0.66036 0.12218 0.27434 0.0
H3259 H 0.65607 0.10286 0.26708 0.0
C3260 C 0.68535 0.11482 0.23412 0.0
C3261 C 0.68557 0.10287 0.22292 0.0
C3262 C 0.67136 0.11955 0.24088 0.0
C3263 C 0.65726 0.11228 0.23681 0.0
C3264 C 0.65741 0.1002 0.22572 0.0
H3265 H 0.59089 0.16756 0.29019 0.0
H3266 H 0.59963 0.14272 0.27895 0.0
C3267 C 0.67148 0.09549 0.21885 0.0
C3268 C 0.64243 0.11862 0.2431 0.0
H3269 H 0.62817 0.13479 0.27646 0.0
C3270 C 0.63127 0.12436 0.23257 0.0
C3271 C 0.64036 0.12127 0.25926 0.0
C3272 C 0.65084 0.11392 0.27135 0.0
C3273 C 0.61926 0.13429 0.23761 0.0
C3274 C 0.61877 0.13897 0.25345 0.0
C3275 C 0.62871 0.13162 0.26422 0.0
C3276 C 0.61032 0.15321 0.25858 0.0
C3277 C 0.60767 0.1402 0.22576 0.0
C3278 C 0.61304 0.16733 0.25073 0.0
C3279 C 0.60794 0.18143 0.25702 0.0
C3280 C 0.60027 0.18178 0.27149 0.0
C3281 C 0.59679 0.16763 0.27901 0.0
C3282 C 0.60178 0.15344 0.2726 0.0
H3283 H 0.60485 0.13091 0.21716 0.0
H3284 H 0.59668 0.14421 0.23133 0.0
H3285 H 0.61291 0.15005 0.21918 0.0
H3286 H 0.62002 0.16764 0.2402 0.0
H3287 H 0.61085 0.19213 0.25095 0.0
H3288 H 0.82624 0.60363 0.29711 0.0
H3289 H 0.84865 0.61246 0.28189 0.0
H3290 H 0.82759 0.59402 0.24003 0.0
H3291 H 0.80468 0.58598 0.25512 0.0
H3292 H 0.87075 0.60208 0.262 0.0
H3293 H 0.8282 0.63971 0.23042 0.0
H3294 H 0.8227 0.62819 0.24709 0.0
H3295 H 0.82492 0.61916 0.22825 0.0
C3296 C 0.82654 0.60114 0.28472 0.0
C3297 C 0.81362 0.59444 0.2772 0.0
C3298 C 0.83938 0.60617 0.27603 0.0
C3299 C 0.83957 0.60433 0.25974 0.0
C3300 C 0.82744 0.59601 0.2525 0.0
H3301 H 0.89295 0.6651 0.19812 0.0
H3302 H 0.88167 0.64029 0.2067 0.0
C3303 C 0.81442 0.59134 0.26113 0.0
C3304 C 0.85127 0.61298 0.25038 0.0
H3305 H 0.85449 0.64329 0.22475 0.0
C3306 C 0.86722 0.61093 0.25366 0.0
C3307 C 0.84665 0.62463 0.23957 0.0
C3308 C 0.82971 0.6282 0.23619 0.0
C3309 C 0.87859 0.6206 0.24686 0.0
C3310 C 0.87386 0.63252 0.23652 0.0
C3311 C 0.85806 0.634 0.23258 0.0
C3312 C 0.88449 0.64509 0.23132 0.0
C3313 C 0.8955 0.6183 0.25111 0.0
C3314 C 0.89025 0.65575 0.24233 0.0
C3315 C 0.89654 0.66998 0.23748 0.0
C3316 C 0.89715 0.67375 0.22154 0.0
C3317 C 0.8926 0.66251 0.21049 0.0
C3318 C 0.8862 0.64832 0.21536 0.0
H3319 H 0.89776 0.60619 0.25517 0.0
H3320 H 0.90323 0.62088 0.24103 0.0
H3321 H 0.8986 0.62639 0.26074 0.0
H3322 H 0.88876 0.65363 0.25471 0.0
H3323 H 0.89999 0.6784 0.24625 0.0
H3324 H 0.38416 0.80218 0.25124 0.0
H3325 H 0.37539 0.82666 0.24011 0.0
H3326 H 0.40031 0.85209 0.27575 0.0
H3327 H 0.40863 0.82731 0.28746 0.0
H3328 H 0.37249 0.86239 0.27453 0.0
H3329 H 0.39197 0.8604 0.21377 0.0
H3330 H 0.38244 0.84223 0.21761 0.0
H3331 H 0.39991 0.84733 0.22828 0.0
C3332 C 0.38809 0.81296 0.25654 0.0
C3333 C 0.39702 0.81283 0.27027 0.0
C3334 C 0.38321 0.82703 0.25002 0.0
C3335 C 0.38744 0.84132 0.25685 0.0
C3336 C 0.397 0.84124 0.27018 0.0
H3337 H 0.33016 0.90915 0.20606 0.0
H3338 H 0.35455 0.9 0.21801 0.0
C3339 C 0.40175 0.82709 0.27686 0.0
C3340 C 0.37984 0.8559 0.25132 0.0
H3341 H 0.36564 0.87214 0.21792 0.0
C3342 C 0.3714 0.86484 0.26216 0.0
C3343 C 0.37876 0.85964 0.23527 0.0
C3344 C 0.38895 0.85197 0.22315 0.0
C3345 C 0.36054 0.87605 0.25724 0.0
C3346 C 0.35764 0.87791 0.24109 0.0
C3347 C 0.36745 0.8704 0.23032 0.0
C3348 C 0.34317 0.88543 0.23523 0.0
C3349 C 0.35184 0.88527 0.26945 0.0
C3350 C 0.32867 0.88037 0.24095 0.0
C3351 C 0.31483 0.88568 0.23431 0.0
C3352 C 0.31513 0.89592 0.22153 0.0
C3353 C 0.32959 0.90127 0.21593 0.0
C3354 C 0.34352 0.89606 0.22274 0.0
H3355 H 0.35956 0.8879 0.27953 0.0
H3356 H 0.34723 0.89642 0.26471 0.0
H3357 H 0.34195 0.8782 0.27393 0.0
H3358 H 0.32801 0.87173 0.25015 0.0
H3359 H 0.30388 0.88123 0.2388 0.0
H3360 H 0.10419 0.6979 0.75817 0.0
H3361 H 0.11452 0.67339 0.74857 0.0
H3362 H 0.09552 0.64942 0.78861 0.0
H3363 H 0.08571 0.67434 0.79873 0.0
H3364 H 0.12402 0.64212 0.78608 0.0
H3365 H 0.10038 0.63542 0.72719 0.0
H3366 H 0.10796 0.65483 0.72833 0.0
H3367 H 0.09199 0.64908 0.74087 0.0
C3368 C 0.10186 0.68737 0.76478 0.0
C3369 C 0.09424 0.68805 0.77925 0.0
C3370 C 0.10762 0.67326 0.75915 0.0
C3371 C 0.10556 0.65941 0.76767 0.0
C3372 C 0.09716 0.65992 0.78176 0.0
H3373 H 0.16688 0.59247 0.7203 0.0
H3374 H 0.14237 0.60096 0.73247 0.0
C3375 C 0.09156 0.67415 0.78753 0.0
C3376 C 0.11441 0.64526 0.76299 0.0
H3377 H 0.12828 0.62739 0.73029 0.0
C3378 C 0.12457 0.63854 0.77395 0.0
C3379 C 0.11489 0.64002 0.74734 0.0
C3380 C 0.10304 0.64513 0.73537 0.0
C3381 C 0.13638 0.62822 0.7693 0.0
C3382 C 0.13843 0.62506 0.75323 0.0
C3383 C 0.1271 0.63021 0.74257 0.0
C3384 C 0.15323 0.61853 0.74705 0.0
C3385 C 0.14693 0.62137 0.78163 0.0
C3386 C 0.16744 0.6256 0.75112 0.0
C3387 C 0.18138 0.62068 0.74436 0.0
C3388 C 0.18137 0.60881 0.73308 0.0
C3389 C 0.16719 0.60166 0.72899 0.0
C3390 C 0.15321 0.60647 0.73594 0.0
H3391 H 0.1403 0.61907 0.79253 0.0
H3392 H 0.15241 0.61032 0.77767 0.0
H3393 H 0.15624 0.62989 0.78451 0.0
H3394 H 0.16774 0.63534 0.75918 0.0
H3395 H 0.1921 0.62652 0.74763 0.0
H3396 H 0.36988 0.20243 0.73412 0.0
H3397 H 0.35918 0.1789 0.74588 0.0
H3398 H 0.38582 0.15051 0.71395 0.0
H3399 H 0.39649 0.17423 0.70185 0.0
H3400 H 0.35532 0.14158 0.7155 0.0
H3401 H 0.37853 0.14738 0.77517 0.0
H3402 H 0.36936 0.16523 0.76927 0.0
H3403 H 0.38635 0.15833 0.75894 0.0
C3404 C 0.37361 0.19119 0.72967 0.0
C3405 C 0.38404 0.19016 0.71708 0.0
C3406 C 0.36759 0.17774 0.73651 0.0
C3407 C 0.37198 0.16295 0.73103 0.0
C3408 C 0.38244 0.16182 0.71847 0.0
H3409 H 0.32343 0.09324 0.78805 0.0
H3410 H 0.34533 0.10398 0.77308 0.0
C3411 C 0.3885 0.17535 0.71158 0.0
C3412 C 0.36448 0.14891 0.73775 0.0
H3413 H 0.3537 0.13357 0.7728 0.0
C3414 C 0.35527 0.13954 0.72799 0.0
C3415 C 0.36473 0.14593 0.75398 0.0
C3416 C 0.37544 0.15466 0.76489 0.0
C3417 C 0.34514 0.12829 0.73423 0.0
C3418 C 0.34398 0.12669 0.75062 0.0
C3419 C 0.35434 0.13498 0.76024 0.0
C3420 C 0.33085 0.11829 0.75811 0.0
C3421 C 0.33539 0.11863 0.7232 0.0
C3422 C 0.31547 0.12268 0.75461 0.0
C3423 C 0.303 0.11655 0.76307 0.0
C3424 C 0.30568 0.10607 0.77537 0.0
C3425 C 0.32104 0.1013 0.77862 0.0
C3426 C 0.33354 0.1074 0.77007 0.0
H3427 H 0.34173 0.11653 0.71208 0.0
H3428 H 0.33218 0.10721 0.7284 0.0
H3429 H 0.32454 0.1251 0.72033 0.0
H3430 H 0.3131 0.13141 0.74579 0.0
H3431 H 0.29131 0.1205 0.76033 0.0
H3432 H 0.80221 0.41644 0.75017 0.0
H3433 H 0.82622 0.40858 0.76346 0.0
H3434 H 0.8436 0.38927 0.72028 0.0
H3435 H 0.82014 0.39791 0.70689 0.0
H3436 H 0.83178 0.3801 0.76752 0.0
H3437 H 0.88377 0.40268 0.73778 0.0
H3438 H 0.86471 0.41109 0.73456 0.0
H3439 H 0.8712 0.3945 0.72326 0.0
C3440 C 0.81146 0.41108 0.74343 0.0
C3441 C 0.80931 0.40766 0.72755 0.0
C3442 C 0.82518 0.4066 0.75102 0.0
C3443 C 0.83684 0.39836 0.74292 0.0
C3444 C 0.8351 0.39598 0.72678 0.0
H3445 H 0.88163 0.31566 0.75201 0.0
H3446 H 0.87167 0.34146 0.74512 0.0
C3447 C 0.82155 0.40079 0.71912 0.0
C3448 C 0.84893 0.38948 0.75163 0.0
H3449 H 0.88618 0.37567 0.74829 0.0
C3450 C 0.84384 0.3796 0.76369 0.0
C3451 C 0.86471 0.38876 0.74676 0.0
C3452 C 0.8714 0.39999 0.73499 0.0
C3453 C 0.85361 0.36809 0.76992 0.0
C3454 C 0.86883 0.36636 0.76389 0.0
C3455 C 0.87441 0.37698 0.75276 0.0
C3456 C 0.87785 0.35208 0.76716 0.0
C3457 C 0.84719 0.35698 0.782 0.0
C3458 C 0.88502 0.34971 0.78169 0.0
C3459 C 0.89078 0.33494 0.78565 0.0
C3460 C 0.88924 0.3224 0.77518 0.0
C3461 C 0.88285 0.32509 0.76034 0.0
C3462 C 0.87727 0.33983 0.75635 0.0
H3463 H 0.83497 0.35979 0.7853 0.0
H3464 H 0.84757 0.34484 0.77747 0.0
H3465 H 0.85453 0.35742 0.79266 0.0
H3466 H 0.88546 0.35906 0.79019 0.0
H3467 H 0.89566 0.33317 0.79717 0.0
H3468 H 0.67168 0.89456 0.79483 0.0
H3469 H 0.64809 0.88564 0.78168 0.0
H3470 H 0.66012 0.91305 0.7412 0.0
H3471 H 0.68425 0.92141 0.75406 0.0
H3472 H 0.62208 0.89626 0.76703 0.0
H3473 H 0.66301 0.86956 0.72406 0.0
H3474 H 0.66983 0.87898 0.74155 0.0
H3475 H 0.6634 0.89046 0.72518 0.0
C3476 C 0.66913 0.899 0.78327 0.0
C3477 C 0.67996 0.90837 0.77531 0.0
C3478 C 0.6556 0.89392 0.77577 0.0
C3479 C 0.65259 0.89829 0.76027 0.0
C3480 C 0.66247 0.90914 0.75298 0.0
H3481 H 0.59868 0.83479 0.70163 0.0
H3482 H 0.60769 0.86063 0.70993 0.0
C3483 C 0.6762 0.91398 0.76037 0.0
C3484 C 0.64057 0.88965 0.75131 0.0
H3485 H 0.63706 0.86202 0.72284 0.0
C3486 C 0.62526 0.889 0.75716 0.0
C3487 C 0.64472 0.88015 0.73841 0.0
C3488 C 0.66114 0.87967 0.73196 0.0
C3489 C 0.61428 0.87848 0.75103 0.0
C3490 C 0.61877 0.86838 0.7388 0.0
C3491 C 0.63365 0.86986 0.73219 0.0
C3492 C 0.60949 0.85451 0.73436 0.0
C3493 C 0.59818 0.87783 0.75808 0.0
C3494 C 0.60712 0.84265 0.74541 0.0
C3495 C 0.60214 0.82788 0.74069 0.0
C3496 C 0.59946 0.82471 0.72484 0.0
C3497 C 0.60067 0.83691 0.71394 0.0
C3498 C 0.60577 0.85168 0.71866 0.0
H3499 H 0.59481 0.88929 0.76313 0.0
H3500 H 0.58932 0.87433 0.74929 0.0
H3501 H 0.59809 0.86911 0.76766 0.0
H3502 H 0.61025 0.84444 0.75752 0.0
H3503 H 0.60127 0.81871 0.74935 0.0
H3504 H 0.26029 0.19568 0.38239 0.0
H3505 H 0.24857 0.1706 0.37681 0.0
H3506 H 0.28044 0.14825 0.4088 0.0
H3507 H 0.29276 0.17364 0.41405 0.0
H3508 H 0.28003 0.13279 0.38306 0.0
H3509 H 0.21872 0.14235 0.39754 0.0
H3510 H 0.22447 0.15859 0.38577 0.0
H3511 H 0.23377 0.1554 0.40444 0.0
C3512 C 0.26468 0.18551 0.38847 0.0
C3513 C 0.27747 0.18662 0.39864 0.0
C3514 C 0.2578 0.17113 0.38543 0.0
C3515 C 0.26328 0.15752 0.39272 0.0
C3516 C 0.27585 0.15862 0.4032 0.0
H3517 H 0.20975 0.0918 0.33743 0.0
H3518 H 0.22082 0.09967 0.36267 0.0
C3519 C 0.2829 0.17309 0.40616 0.0
C3520 C 0.25708 0.14221 0.3875 0.0
H3521 H 0.22336 0.12727 0.37278 0.0
C3522 C 0.26759 0.13127 0.3813 0.0
C3523 C 0.24087 0.13961 0.38577 0.0
C3524 C 0.22887 0.14957 0.39395 0.0
C3525 C 0.26237 0.11925 0.37149 0.0
C3526 C 0.2464 0.11862 0.36732 0.0
C3527 C 0.23571 0.12803 0.37544 0.0
C3528 C 0.2411 0.111 0.35268 0.0
C3529 C 0.27419 0.10795 0.36498 0.0
C3530 C 0.24885 0.11454 0.33868 0.0
C3531 C 0.24267 0.10995 0.32439 0.0
C3532 C 0.22837 0.10201 0.32368 0.0
C3533 C 0.2208 0.09794 0.33765 0.0
C3534 C 0.22713 0.1024 0.35206 0.0
H3535 H 0.28289 0.10482 0.37408 0.0
H3536 H 0.26862 0.09709 0.36062 0.0
H3537 H 0.28066 0.11359 0.35529 0.0
H3538 H 0.25928 0.12167 0.33867 0.0
H3539 H 0.24876 0.11333 0.31384 0.0
H3540 H 0.88341 0.24967 0.30875 0.0
H3541 H 0.87648 0.26005 0.33407 0.0
H3542 H 0.90542 0.22539 0.35648 0.0
H3543 H 0.91173 0.21429 0.33084 0.0
H3544 H 0.87966 0.225 0.36993 0.0
H3545 H 0.89342 0.28697 0.36659 0.0
H3546 H 0.88272 0.2829 0.34917 0.0
H3547 H 0.90126 0.27337 0.35254 0.0
C3548 C 0.88862 0.24445 0.31902 0.0
C3549 C 0.89805 0.23112 0.31782 0.0
C3550 C 0.88481 0.25056 0.33358 0.0
C3551 C 0.89069 0.2438 0.34731 0.0
C3552 C 0.90081 0.23092 0.34609 0.0
H3553 H 0.82987 0.29072 0.4136 0.0
H3554 H 0.85574 0.28121 0.40576 0.0
C3555 C 0.90442 0.22459 0.33145 0.0
C3556 C 0.8841 0.24872 0.36259 0.0
H3557 H 0.86738 0.2808 0.37903 0.0
C3558 C 0.87745 0.23725 0.37224 0.0
C3559 C 0.88172 0.26464 0.36633 0.0
C3560 C 0.89038 0.2776 0.35816 0.0
C3561 C 0.86675 0.24126 0.38395 0.0
C3562 C 0.86203 0.25702 0.3855 0.0
C3563 C 0.87042 0.26861 0.37748 0.0
C3564 C 0.84691 0.26135 0.39283 0.0
C3565 C 0.86005 0.22843 0.39396 0.0
C3566 C 0.83333 0.25331 0.38838 0.0
C3567 C 0.81868 0.25854 0.39305 0.0
C3568 C 0.81718 0.27222 0.40191 0.0
C3569 C 0.83071 0.28013 0.40675 0.0
C3570 C 0.84548 0.2747 0.40228 0.0
H3571 H 0.86927 0.21982 0.39699 0.0
H3572 H 0.85489 0.23303 0.40492 0.0
H3573 H 0.85094 0.22207 0.3873 0.0
H3574 H 0.83393 0.2434 0.38056 0.0
H3575 H 0.80848 0.25227 0.389 0.0
H3576 H 0.74687 0.90619 0.31327 0.0
H3577 H 0.73431 0.89781 0.33749 0.0
H3578 H 0.77786 0.87782 0.35305 0.0
H3579 H 0.79056 0.88682 0.32926 0.0
H3580 H 0.73066 0.86875 0.34327 0.0
H3581 H 0.76205 0.89295 0.3938 0.0
H3582 H 0.76437 0.90085 0.37439 0.0
H3583 H 0.77574 0.88425 0.38063 0.0
C3584 C 0.75385 0.90046 0.32211 0.0
C3585 C 0.76964 0.89704 0.31937 0.0
C3586 C 0.74668 0.8957 0.33596 0.0
C3587 C 0.75513 0.88728 0.34721 0.0
C3588 C 0.77115 0.88468 0.34483 0.0
H3589 H 0.74349 0.80815 0.40005 0.0
H3590 H 0.75215 0.8332 0.38961 0.0
C3591 C 0.77839 0.88968 0.33111 0.0
C3592 C 0.74679 0.87874 0.35978 0.0
H3593 H 0.74987 0.86726 0.39784 0.0
C3594 C 0.73454 0.86882 0.35532 0.0
C3595 C 0.75185 0.87875 0.37551 0.0
C3596 C 0.76412 0.88993 0.38136 0.0
C3597 C 0.72805 0.85809 0.36578 0.0
C3598 C 0.73387 0.85735 0.3812 0.0
C3599 C 0.74547 0.86787 0.38599 0.0
C3600 C 0.72953 0.84424 0.39152 0.0
C3601 C 0.71578 0.84685 0.35993 0.0
C3602 C 0.71415 0.84249 0.39684 0.0
C3603 C 0.70914 0.82813 0.40278 0.0
C3604 C 0.71947 0.8154 0.40342 0.0
C3605 C 0.73524 0.81772 0.39955 0.0
C3606 C 0.74023 0.83205 0.39366 0.0
H3607 H 0.71392 0.8478 0.34714 0.0
H3608 H 0.71914 0.83465 0.36271 0.0
H3609 H 0.70452 0.84931 0.36584 0.0
H3610 H 0.70577 0.85184 0.39536 0.0
H3611 H 0.69694 0.8267 0.40576 0.0
H3612 H 0.19754 0.73451 0.36972 0.0
H3613 H 0.17409 0.7478 0.36085 0.0
H3614 H 0.14819 0.72836 0.39942 0.0
H3615 H 0.17174 0.71452 0.40815 0.0
H3616 H 0.13225 0.72533 0.37335 0.0
H3617 H 0.15247 0.78606 0.37613 0.0
H3618 H 0.16651 0.77495 0.36537 0.0
H3619 H 0.16291 0.7704 0.38562 0.0
C3620 C 0.18691 0.73317 0.37643 0.0
C3621 C 0.18647 0.72351 0.38965 0.0
C3622 C 0.17353 0.74092 0.37144 0.0
C3623 C 0.15947 0.73945 0.37972 0.0
C3624 C 0.15897 0.72983 0.39298 0.0
H3625 H 0.09417 0.79609 0.32597 0.0
H3626 H 0.10488 0.78585 0.35046 0.0
C3627 C 0.1724 0.72192 0.39793 0.0
C3628 C 0.14516 0.74693 0.37349 0.0
H3629 H 0.13361 0.78027 0.35521 0.0
C3630 C 0.13233 0.73747 0.36976 0.0
C3631 C 0.14489 0.7629 0.36932 0.0
C3632 C 0.15738 0.77416 0.37452 0.0
C3633 C 0.1201 0.74312 0.36044 0.0
C3634 C 0.12106 0.75843 0.3543 0.0
C3635 C 0.13298 0.76839 0.35954 0.0
C3636 C 0.1116 0.76351 0.3407 0.0
C3637 C 0.1066 0.73242 0.35685 0.0
C3638 C 0.11146 0.75428 0.32716 0.0
C3639 C 0.1052 0.76001 0.3133 0.0
C3640 C 0.09924 0.77525 0.31255 0.0
C3641 C 0.09871 0.78429 0.32622 0.0
C3642 C 0.10482 0.77845 0.34021 0.0
H3643 H 0.10384 0.725 0.36712 0.0
H3644 H 0.09597 0.73902 0.35349 0.0
H3645 H 0.10989 0.72449 0.34716 0.0
H3646 H 0.11707 0.74295 0.32699 0.0
H3647 H 0.10586 0.75278 0.30294 0.0
H3648 H 0.25505 0.80172 0.6164 0.0
H3649 H 0.24347 0.82552 0.62652 0.0
H3650 H 0.27767 0.85297 0.60175 0.0
H3651 H 0.28972 0.82892 0.59189 0.0
H3652 H 0.27657 0.86159 0.63083 0.0
H3653 H 0.21591 0.85918 0.6105 0.0
H3654 H 0.22053 0.84075 0.61917 0.0
H3655 H 0.23096 0.84711 0.602 0.0
C3656 C 0.25995 0.81281 0.61284 0.0
C3657 C 0.27333 0.81346 0.60341 0.0
C3658 C 0.25318 0.82647 0.61849 0.0
C3659 C 0.25945 0.8411 0.61463 0.0
C3660 C 0.27252 0.84182 0.60474 0.0
H3661 H 0.2087 0.90912 0.67248 0.0
H3662 H 0.22063 0.8995 0.64823 0.0
C3663 C 0.2794 0.82809 0.59914 0.0
C3664 C 0.25358 0.8552 0.62277 0.0
H3665 H 0.21972 0.87069 0.63679 0.0
C3666 C 0.26416 0.86391 0.63176 0.0
C3667 C 0.23746 0.85867 0.6237 0.0
C3668 C 0.22563 0.85102 0.61315 0.0
C3669 C 0.2589 0.87467 0.6429 0.0
C3670 C 0.24268 0.87639 0.6454 0.0
C3671 C 0.23217 0.86907 0.63518 0.0
C3672 C 0.23645 0.88359 0.65984 0.0
C3673 C 0.27081 0.88352 0.65237 0.0
C3674 C 0.2413 0.87777 0.67436 0.0
C3675 C 0.23458 0.88322 0.68811 0.0
C3676 C 0.22269 0.89448 0.68766 0.0
C3677 C 0.21788 0.90046 0.67315 0.0
C3678 C 0.22469 0.895 0.65932 0.0
H3679 H 0.28137 0.88603 0.64528 0.0
H3680 H 0.26602 0.89471 0.65683 0.0
H3681 H 0.27452 0.87626 0.66244 0.0
H3682 H 0.24996 0.86858 0.67506 0.0
H3683 H 0.23848 0.87831 0.69908 0.0
H3684 H 0.16999 0.28878 0.57799 0.0
H3685 H 0.14515 0.27832 0.58772 0.0
H3686 H 0.16985 0.23985 0.60889 0.0
H3687 H 0.19429 0.24968 0.59858 0.0
H3688 H 0.14183 0.23063 0.59947 0.0
H3689 H 0.13599 0.28646 0.63256 0.0
H3690 H 0.13522 0.28749 0.61167 0.0
H3691 H 0.15315 0.28222 0.62123 0.0
C3692 C 0.17 0.27789 0.58439 0.0
C3693 C 0.18409 0.2702 0.5878 0.0
C3694 C 0.15583 0.27198 0.59003 0.0
C3695 C 0.15568 0.25855 0.59945 0.0
C3696 C 0.16962 0.25026 0.60172 0.0
H3697 H 0.13269 0.23378 0.6854 0.0
H3698 H 0.13896 0.24465 0.66 0.0
C3699 C 0.18366 0.25596 0.59588 0.0
C3700 C 0.14183 0.25396 0.60878 0.0
H3701 H 0.12238 0.265 0.64171 0.0
C3702 C 0.13721 0.23822 0.60849 0.0
C3703 C 0.13569 0.26396 0.62043 0.0
C3704 C 0.14026 0.28095 0.62163 0.0
C3705 C 0.12828 0.23177 0.62062 0.0
C3706 C 0.12344 0.2415 0.63303 0.0
C3707 C 0.1263 0.2576 0.63222 0.0
C3708 C 0.11872 0.235 0.64833 0.0
C3709 C 0.12546 0.21439 0.62084 0.0
C3710 C 0.10521 0.22591 0.65025 0.0
C3711 C 0.1017 0.21944 0.66486 0.0
C3712 C 0.11154 0.22217 0.67771 0.0
C3713 C 0.12486 0.23148 0.67575 0.0
C3714 C 0.12843 0.23776 0.66122 0.0
H3715 H 0.13138 0.20831 0.61104 0.0
H3716 H 0.12966 0.2093 0.63199 0.0
H3717 H 0.11275 0.21207 0.61995 0.0
H3718 H 0.09745 0.22383 0.64051 0.0
H3719 H 0.09129 0.21238 0.66612 0.0
H3720 H 0.79356 0.10238 0.67409 0.0
H3721 H 0.78166 0.11282 0.65046 0.0
H3722 H 0.7409 0.0843 0.65821 0.0
H3723 H 0.75247 0.07439 0.68242 0.0
H3724 H 0.76861 0.10408 0.62298 0.0
H3725 H 0.72313 0.12733 0.66326 0.0
H3726 H 0.74035 0.11759 0.67032 0.0
H3727 H 0.72443 0.10646 0.66232 0.0
C3728 C 0.78223 0.09803 0.67057 0.0
C3729 C 0.77377 0.08787 0.68026 0.0
C3730 C 0.77544 0.10398 0.65702 0.0
C3731 C 0.76018 0.09972 0.65284 0.0
C3732 C 0.75249 0.08812 0.6615 0.0
H3733 H 0.70205 0.16397 0.59923 0.0
H3734 H 0.71118 0.13822 0.60765 0.0
C3735 C 0.75914 0.0824 0.67526 0.0
C3736 C 0.75178 0.10912 0.64098 0.0
H3737 H 0.72278 0.13623 0.63769 0.0
C3738 C 0.7584 0.1109 0.62608 0.0
C3739 C 0.73848 0.11809 0.64506 0.0
C3740 C 0.73122 0.11742 0.66112 0.0
C3741 C 0.75254 0.12193 0.61545 0.0
C3742 C 0.73977 0.13137 0.61987 0.0
C3743 C 0.73252 0.12887 0.63431 0.0
C3744 C 0.73513 0.14546 0.61102 0.0
C3745 C 0.76036 0.12375 0.59981 0.0
C3746 C 0.74566 0.15793 0.60974 0.0
C3747 C 0.74047 0.17265 0.60508 0.0
C3748 C 0.72463 0.17514 0.60166 0.0
C3749 C 0.71432 0.16238 0.60182 0.0
C3750 C 0.71952 0.14767 0.60658 0.0
H3751 H 0.76616 0.11274 0.59614 0.0
H3752 H 0.75186 0.12727 0.59069 0.0
H3753 H 0.76946 0.13293 0.60065 0.0
H3754 H 0.75768 0.15659 0.61343 0.0
H3755 H 0.74868 0.18226 0.60503 0.0
H3756 H 0.8261 0.70665 0.6053 0.0
H3757 H 0.84908 0.71994 0.61556 0.0
H3758 H 0.8373 0.76107 0.58901 0.0
H3759 H 0.81375 0.74806 0.57934 0.0
H3760 H 0.87512 0.73512 0.60641 0.0
H3761 H 0.83289 0.77702 0.63273 0.0
H3762 H 0.8266 0.75973 0.62259 0.0
H3763 H 0.83312 0.77654 0.61181 0.0
C3764 C 0.82859 0.7184 0.60135 0.0
C3765 C 0.81798 0.72647 0.59182 0.0
C3766 C 0.84176 0.72598 0.6072 0.0
C3767 C 0.84464 0.74167 0.60344 0.0
C3768 C 0.83502 0.74913 0.59246 0.0
H3769 H 0.89756 0.80089 0.66751 0.0
H3770 H 0.88859 0.79211 0.64182 0.0
C3771 C 0.82164 0.74166 0.58687 0.0
C3772 C 0.85627 0.75055 0.6127 0.0
H3773 H 0.85874 0.77882 0.64065 0.0
C3774 C 0.87163 0.74487 0.61369 0.0
C3775 C 0.85169 0.76326 0.62226 0.0
C3776 C 0.83517 0.76945 0.62245 0.0
C3777 C 0.88226 0.75104 0.62454 0.0
C3778 C 0.87739 0.76318 0.63456 0.0
C3779 C 0.86243 0.76956 0.63284 0.0
C3780 C 0.88644 0.76786 0.6485 0.0
C3781 C 0.89843 0.74418 0.62557 0.0
C3782 C 0.88853 0.75706 0.66063 0.0
C3783 C 0.89345 0.76206 0.67533 0.0
C3784 C 0.89639 0.77794 0.67812 0.0
C3785 C 0.89539 0.78857 0.66567 0.0
C3786 C 0.89031 0.78358 0.65099 0.0
H3787 H 0.90199 0.7388 0.61433 0.0
H3788 H 0.90713 0.7532 0.62889 0.0
H3789 H 0.89853 0.73492 0.63463 0.0
H3790 H 0.88529 0.74494 0.65907 0.0
H3791 H 0.89416 0.7536 0.6847 0.0
H3792 H 0.31213 0.24844 0.08624 0.0
H3793 H 0.33611 0.26068 0.09577 0.0
H3794 H 0.34888 0.21765 0.11863 0.0
H3795 H 0.32538 0.20525 0.10859 0.0
H3796 H 0.34024 0.26555 0.12502 0.0
H3797 H 0.39096 0.23142 0.1054 0.0
H3798 H 0.37202 0.22941 0.09637 0.0
H3799 H 0.37682 0.21851 0.11375 0.0
C3800 C 0.32034 0.24147 0.09286 0.0
C3801 C 0.31687 0.22594 0.09677 0.0
C3802 C 0.33404 0.24846 0.09828 0.0
C3803 C 0.34442 0.24008 0.10783 0.0
C3804 C 0.34136 0.22428 0.11094 0.0
H3805 H 0.39321 0.25309 0.18967 0.0
H3806 H 0.38205 0.24423 0.16497 0.0
C3807 C 0.3278 0.21722 0.10531 0.0
C3808 C 0.35671 0.24839 0.11679 0.0
H3809 H 0.39377 0.24433 0.13093 0.0
C3810 C 0.3521 0.26121 0.12592 0.0
C3811 C 0.3722 0.24276 0.11802 0.0
C3812 C 0.3783 0.22987 0.1077 0.0
C3813 C 0.36211 0.26774 0.13705 0.0
C3814 C 0.37716 0.26132 0.13909 0.0
C3815 C 0.38217 0.24915 0.12935 0.0
C3816 C 0.38678 0.26575 0.15267 0.0
C3817 C 0.35617 0.28077 0.14734 0.0
C3818 C 0.3936 0.2806 0.15369 0.0
C3819 C 0.40002 0.2857 0.16781 0.0
C3820 C 0.39957 0.27603 0.18107 0.0
C3821 C 0.39362 0.26082 0.17967 0.0
C3822 C 0.38732 0.25571 0.16556 0.0
H3823 H 0.34371 0.28356 0.14507 0.0
H3824 H 0.35749 0.27755 0.15983 0.0
H3825 H 0.36318 0.29145 0.14527 0.0
H3826 H 0.39327 0.28848 0.14382 0.0
H3827 H 0.40456 0.29748 0.16857 0.0
H3828 H 0.40572 0.74315 0.79842 0.0
H3829 H 0.39251 0.75751 0.81924 0.0
H3830 H 0.37666 0.71408 0.83918 0.0
H3831 H 0.39015 0.69965 0.81862 0.0
H3832 H 0.36152 0.75648 0.82172 0.0
H3833 H 0.38726 0.73853 0.87811 0.0
H3834 H 0.39698 0.73527 0.85969 0.0
H3835 H 0.38203 0.72206 0.86629 0.0
C3836 C 0.39979 0.73665 0.8075 0.0
C3837 C 0.39886 0.72029 0.80686 0.0
C3838 C 0.39227 0.74487 0.81939 0.0
C3839 C 0.38368 0.73688 0.83083 0.0
C3840 C 0.38349 0.72049 0.8307 0.0
H3841 H 0.29717 0.76144 0.87183 0.0
H3842 H 0.31959 0.7502 0.8583 0.0
C3843 C 0.39112 0.71225 0.81887 0.0
C3844 C 0.37301 0.74559 0.84127 0.0
H3845 H 0.36111 0.74919 0.87916 0.0
C3846 C 0.36164 0.7551 0.8343 0.0
C3847 C 0.37319 0.74385 0.85769 0.0
C3848 C 0.38563 0.73449 0.8659 0.0
C3849 C 0.35002 0.76232 0.84321 0.0
C3850 C 0.34961 0.75978 0.85949 0.0
C3851 C 0.36138 0.75092 0.86662 0.0
C3852 C 0.33648 0.76562 0.869 0.0
C3853 C 0.33805 0.77239 0.83509 0.0
C3854 C 0.3387 0.77766 0.87985 0.0
C3855 C 0.32587 0.78413 0.88764 0.0
C3856 C 0.31072 0.77856 0.88467 0.0
C3857 C 0.30869 0.76605 0.87427 0.0
C3858 C 0.32147 0.75963 0.86653 0.0
H3859 H 0.3422 0.77632 0.82345 0.0
H3860 H 0.32719 0.76555 0.83337 0.0
H3861 H 0.33515 0.78282 0.84222 0.0
H3862 H 0.35024 0.78238 0.88191 0.0
H3863 H 0.32777 0.79373 0.89564 0.0
H3864 H 0.20544 0.32474 0.89383 0.0
H3865 H 0.21691 0.34863 0.88361 0.0
H3866 H 0.25752 0.34171 0.91259 0.0
H3867 H 0.24643 0.31713 0.92216 0.0
H3868 H 0.22873 0.3761 0.89205 0.0
H3869 H 0.27666 0.3377 0.87044 0.0
H3870 H 0.25963 0.32991 0.87992 0.0
H3871 H 0.2748 0.33903 0.89123 0.0
C3872 C 0.21666 0.32847 0.89831 0.0
C3873 C 0.22523 0.3189 0.90848 0.0
C3874 C 0.2232 0.34218 0.89249 0.0
C3875 C 0.23832 0.34669 0.89693 0.0
C3876 C 0.24608 0.33815 0.90857 0.0
H3877 H 0.2922 0.4017 0.82977 0.0
H3878 H 0.28428 0.39452 0.85633 0.0
C3879 C 0.23969 0.32419 0.91413 0.0
C3880 C 0.24648 0.35882 0.88763 0.0
H3881 H 0.27534 0.36278 0.86046 0.0
C3882 C 0.23912 0.37332 0.88539 0.0
C3883 C 0.26009 0.35521 0.8789 0.0
C3884 C 0.26822 0.3396 0.8801 0.0
C3885 C 0.24435 0.38379 0.87391 0.0
C3886 C 0.25728 0.37968 0.86458 0.0
C3887 C 0.26545 0.36587 0.86773 0.0
C3888 C 0.26086 0.38776 0.84976 0.0
C3889 C 0.23556 0.3988 0.87131 0.0
C3890 C 0.25021 0.38662 0.83739 0.0
C3891 C 0.25477 0.39042 0.82224 0.0
C3892 C 0.27003 0.39554 0.81923 0.0
C3893 C 0.28034 0.39782 0.83179 0.0
C3894 C 0.27584 0.39377 0.84695 0.0
H3895 H 0.22935 0.40256 0.88206 0.0
H3896 H 0.24354 0.40828 0.8675 0.0
H3897 H 0.22672 0.39699 0.86202 0.0
H3898 H 0.23871 0.38169 0.83925 0.0
H3899 H 0.24659 0.38861 0.81277 0.0
H3900 H 0.59036 0.28718 0.82483 0.0
H3901 H 0.60111 0.27346 0.84762 0.0
H3902 H 0.63928 0.25668 0.81938 0.0
H3903 H 0.6285 0.26992 0.7967 0.0
H3904 H 0.62657 0.23384 0.83807 0.0
H3905 H 0.63949 0.28774 0.87211 0.0
H3906 H 0.61963 0.28462 0.86609 0.0
H3907 H 0.63437 0.2884 0.8517 0.0
C3908 C 0.60101 0.28051 0.82353 0.0
C3909 C 0.60864 0.27966 0.80902 0.0
C3910 C 0.60716 0.27275 0.83655 0.0
C3911 C 0.62107 0.26419 0.83521 0.0
C3912 C 0.62851 0.26319 0.82067 0.0
H3913 H 0.70108 0.24182 0.8816 0.0
H3914 H 0.67765 0.25353 0.87067 0.0
C3915 C 0.62236 0.27081 0.80771 0.0
C3916 C 0.62841 0.25645 0.8488 0.0
H3917 H 0.64986 0.26427 0.88142 0.0
C3918 C 0.63141 0.24038 0.84776 0.0
C3919 C 0.63464 0.26508 0.86141 0.0
C3920 C 0.63199 0.28243 0.86295 0.0
C3921 C 0.64156 0.23295 0.85822 0.0
C3922 C 0.64852 0.24177 0.87034 0.0
C3923 C 0.64448 0.25756 0.87213 0.0
C3924 C 0.662 0.23567 0.8793 0.0
C3925 C 0.64574 0.21606 0.85536 0.0
C3926 C 0.66093 0.222 0.88829 0.0
C3927 C 0.67444 0.21511 0.89439 0.0
C3928 C 0.68912 0.22194 0.89175 0.0
C3929 C 0.68996 0.23621 0.88374 0.0
C3930 C 0.67654 0.24297 0.87754 0.0
H3931 H 0.64124 0.21174 0.84399 0.0
H3932 H 0.65859 0.21443 0.85554 0.0
H3933 H 0.64062 0.20872 0.86471 0.0
H3934 H 0.64977 0.21637 0.89009 0.0
H3935 H 0.67345 0.20418 0.90066 0.0
H3936 H 0.7432 0.61251 0.79668 0.0
H3937 H 0.75397 0.62173 0.82117 0.0
H3938 H 0.71863 0.59635 0.84655 0.0
H3939 H 0.70734 0.58747 0.82177 0.0
H3940 H 0.71923 0.62472 0.85626 0.0
H3941 H 0.78022 0.60561 0.85546 0.0
H3942 H 0.77638 0.61478 0.83711 0.0
H3943 H 0.76588 0.59729 0.84244 0.0
C3944 C 0.73789 0.60858 0.80746 0.0
C3945 C 0.72437 0.59933 0.8073 0.0
C3946 C 0.7442 0.61372 0.82153 0.0
C3947 C 0.73734 0.6095 0.8358 0.0
C3948 C 0.72422 0.59965 0.83571 0.0
H3949 H 0.78608 0.66749 0.90474 0.0
H3950 H 0.7745 0.64305 0.89523 0.0
C3951 C 0.71778 0.59459 0.82156 0.0
C3952 C 0.74258 0.61736 0.85033 0.0
H3953 H 0.77563 0.63187 0.86703 0.0
C3954 C 0.73155 0.62589 0.85894 0.0
C3955 C 0.75856 0.61857 0.85433 0.0
C3956 C 0.77086 0.60838 0.84692 0.0
C3957 C 0.73622 0.63692 0.87008 0.0
C3958 C 0.75233 0.63985 0.87226 0.0
C3959 C 0.76327 0.63 0.86506 0.0
C3960 C 0.758 0.65438 0.8798 0.0
C3961 C 0.72382 0.64579 0.87888 0.0
C3962 C 0.75258 0.66884 0.87433 0.0
C3963 C 0.75905 0.68271 0.8798 0.0
C3964 C 0.77132 0.68246 0.89065 0.0
C3965 C 0.7766 0.66802 0.89639 0.0
C3966 C 0.77 0.65407 0.89098 0.0
H3967 H 0.71358 0.6382 0.88124 0.0
H3968 H 0.72827 0.65041 0.89014 0.0
H3969 H 0.71968 0.6557 0.87163 0.0
H3970 H 0.74376 0.66944 0.86531 0.0
H3971 H 0.7548 0.69363 0.87505 0.0
H3972 H 0.68637 0.75119 0.08244 0.0
H3973 H 0.66241 0.738 0.09056 0.0
H3974 H 0.64522 0.78125 0.10984 0.0
H3975 H 0.6688 0.79456 0.10116 0.0
H3976 H 0.65694 0.73487 0.11993 0.0
H3977 H 0.60509 0.76335 0.09493 0.0
H3978 H 0.62438 0.7662 0.0869 0.0
H3979 H 0.61774 0.77781 0.10316 0.0
C3980 C 0.67721 0.75798 0.08791 0.0
C3981 C 0.67947 0.77385 0.09132 0.0
C3982 C 0.66352 0.75044 0.09252 0.0
C3983 C 0.65193 0.75861 0.10075 0.0
C3984 C 0.65374 0.77473 0.10317 0.0
H3985 H 0.59832 0.74897 0.1794 0.0
H3986 H 0.60886 0.75629 0.15399 0.0
C3987 C 0.66733 0.78233 0.09833 0.0
C3988 C 0.63973 0.74994 0.10948 0.0
H3989 H 0.60161 0.75179 0.12098 0.0
C3990 C 0.64474 0.73822 0.11978 0.0
C3991 C 0.62381 0.75432 0.10935 0.0
C3992 C 0.61745 0.766 0.09784 0.0
C3993 C 0.63461 0.7317 0.13081 0.0
C3994 C 0.61895 0.73688 0.13142 0.0
C3995 C 0.61364 0.74786 0.12048 0.0
C3996 C 0.60888 0.73277 0.14481 0.0
C3997 C 0.64108 0.7202 0.14251 0.0
C3998 C 0.60465 0.71722 0.14775 0.0
C3999 C 0.59871 0.71296 0.16235 0.0
C4000 C 0.59691 0.72424 0.17413 0.0
C4001 C 0.59974 0.74 0.1706 0.0
C4002 C 0.60568 0.74422 0.15605 0.0
H4003 H 0.65398 0.71907 0.14171 0.0
H4004 H 0.63803 0.7238 0.15458 0.0
H4005 H 0.6359 0.70852 0.14039 0.0
H4006 H 0.60689 0.70825 0.13913 0.0
H4007 H 0.59651 0.70074 0.16471 0.0
H4008 H 0.28928 0.58116 0.1722 0.0
H4009 H 0.27818 0.58995 0.14727 0.0
H4010 H 0.24218 0.61481 0.17227 0.0
H4011 H 0.25257 0.60542 0.19684 0.0
H4012 H 0.23097 0.60419 0.14572 0.0
H4013 H 0.28804 0.63334 0.13417 0.0
H4014 H 0.28798 0.61242 0.13486 0.0
H4015 H 0.28425 0.62348 0.15231 0.0
C4016 C 0.27878 0.5882 0.17228 0.0
C4017 C 0.27195 0.59285 0.18645 0.0
C4018 C 0.27252 0.59331 0.15805 0.0
C4019 C 0.25963 0.60345 0.15789 0.0
C4020 C 0.25217 0.60706 0.17203 0.0
H4021 H 0.2386 0.68876 0.127 0.0
H4022 H 0.24889 0.66367 0.13522 0.0
C4023 C 0.25819 0.60173 0.18613 0.0
C4024 C 0.25474 0.61201 0.14363 0.0
H4025 H 0.26647 0.64227 0.12057 0.0
C4026 C 0.23877 0.6123 0.13991 0.0
C4027 C 0.26499 0.62246 0.13595 0.0
C4028 C 0.28225 0.62305 0.13952 0.0
C4029 C 0.23249 0.62396 0.13026 0.0
C4030 C 0.24261 0.63522 0.12368 0.0
C4031 C 0.25877 0.63369 0.1258 0.0
C4032 C 0.23671 0.6503 0.11755 0.0
C4033 C 0.215 0.62499 0.12846 0.0
C4034 C 0.22648 0.6512 0.10476 0.0
C4035 C 0.22031 0.66566 0.10018 0.0
C4036 C 0.22452 0.67936 0.10817 0.0
C4037 C 0.23514 0.67842 0.1206 0.0
C4038 C 0.24108 0.66406 0.12527 0.0
H4039 H 0.20876 0.61652 0.13604 0.0
H4040 H 0.21083 0.63692 0.13134 0.0
H4041 H 0.21179 0.62248 0.11617 0.0
H4042 H 0.22318 0.64078 0.09843 0.0
H4043 H 0.21224 0.6661 0.09047 0.0
H4044 H 0.75262 0.38917 0.19081 0.0
H4045 H 0.76142 0.37767 0.1665 0.0
H4046 H 0.71919 0.39303 0.14371 0.0
H4047 H 0.70994 0.404 0.16845 0.0
H4048 H 0.72242 0.36412 0.1388 0.0
H4049 H 0.77975 0.38921 0.1261 0.0
H4050 H 0.78013 0.38313 0.14605 0.0
H4051 H 0.76667 0.39819 0.13997 0.0
C4052 C 0.74537 0.39049 0.18054 0.0
C4053 C 0.73053 0.39736 0.18156 0.0
C4054 C 0.75052 0.38405 0.16652 0.0
C4055 C 0.74111 0.38466 0.15311 0.0
C4056 C 0.7267 0.39247 0.15386 0.0
H4057 H 0.78447 0.31986 0.08609 0.0
H4058 H 0.7725 0.34462 0.09425 0.0
C4059 C 0.72143 0.39874 0.16799 0.0
C4060 C 0.74523 0.37482 0.13943 0.0
H4061 H 0.77708 0.36081 0.1201 0.0
C4062 C 0.73426 0.36375 0.13434 0.0
C4063 C 0.76049 0.37448 0.13311 0.0
C4064 C 0.77232 0.38706 0.1365 0.0
C4065 C 0.73863 0.35137 0.12459 0.0
C4066 C 0.75447 0.34973 0.12028 0.0
C4067 C 0.76501 0.36177 0.12381 0.0
C4068 C 0.7607 0.33474 0.11428 0.0
C4069 C 0.72632 0.33981 0.11961 0.0
C4070 C 0.75817 0.32104 0.1229 0.0
C4071 C 0.76487 0.30698 0.11825 0.0
C4072 C 0.77449 0.30634 0.10501 0.0
C4073 C 0.77705 0.32002 0.09632 0.0
C4074 C 0.77022 0.33415 0.10095 0.0
H4075 H 0.71488 0.34569 0.11801 0.0
H4076 H 0.72953 0.33385 0.10856 0.0
H4077 H 0.72483 0.33089 0.12888 0.0
H4078 H 0.75134 0.32127 0.13353 0.0
H4079 H 0.76278 0.29668 0.12527 0.0
loop_
_geom_bond_atom_site_label_1
_geom_bond_atom_site_label_2
_geom_bond_distance
_geom_bond_site_symmetry_2
_ccdc_geom_bond_type
In0 O1 2.294 . S
In0 O2 2.326 . S
In0 O6 2.266 . S
In0 O7 2.326 . S
In0 O8 2.266 . S
In0 O9 2.326 . S
In0 O11 2.294 . S
In0 O12 2.326 . S
O1 In0 2.294 . S
O1 C10 1.240 . S
O2 In0 2.326 . S
O2 C10 1.252 . S
C3 O6 1.252 . S
C3 O7 1.260 . S
C4 O11 1.240 . S
C4 O12 1.252 . S
C5 O8 1.252 . S
C5 O9 1.260 . S
O6 In0 2.266 . S
O6 C3 1.252 . S
O7 In0 2.326 . S
O7 C3 1.260 . S
O8 In0 2.266 . S
O8 C5 1.252 . S
O9 In0 2.326 . S
O9 C5 1.260 . S
C10 O1 1.240 . S
C10 O2 1.252 . S
O11 In0 2.294 . S
O11 C4 1.240 . S
O12 In0 2.326 . S
O12 C4 1.252 . S
In13 O14 2.294 . S
In13 O15 2.326 . S
In13 O19 2.266 . S
In13 O20 2.326 . S
In13 O21 2.266 . S
In13 O22 2.326 . S
In13 O24 2.294 . S
In13 O25 2.326 . S
O14 In13 2.294 . S
O14 C23 1.240 . S
O15 In13 2.326 . S
O15 C23 1.252 . S
C16 O19 1.252 . S
C16 O20 1.260 . S
C17 O24 1.240 . S
C17 O25 1.252 . S
C18 O21 1.252 . S
C18 O22 1.260 . S
O19 In13 2.266 . S
O19 C16 1.252 . S
O20 In13 2.326 . S
O20 C16 1.260 . S
O21 In13 2.266 . S
O21 C18 1.252 . S
O22 In13 2.326 . S
O22 C18 1.260 . S
C23 O14 1.240 . S
C23 O15 1.252 . S
O24 In13 2.294 . S
O24 C17 1.240 . S
O25 In13 2.326 . S
O25 C17 1.252 . S
In26 O27 2.294 . S
In26 O28 2.326 . S
In26 O32 2.266 . S
In26 O33 2.326 . S
In26 O34 2.266 . S
In26 O35 2.326 . S
In26 O37 2.294 . S
In26 O38 2.326 . S
O27 In26 2.294 . S
O27 C36 1.240 . S
O28 In26 2.326 . S
O28 C36 1.252 . S
C29 O32 1.252 . S
C29 O33 1.260 . S
C30 O37 1.240 . S
C30 O38 1.252 . S
C31 O34 1.252 . S
C31 O35 1.260 . S
O32 In26 2.266 . S
O32 C29 1.252 . S
O33 In26 2.326 . S
O33 C29 1.260 . S
O34 In26 2.266 . S
O34 C31 1.252 . S
O35 In26 2.326 . S
O35 C31 1.260 . S
C36 O27 1.240 . S
C36 O28 1.252 . S
O37 In26 2.294 . S
O37 C30 1.240 . S
O38 In26 2.326 . S
O38 C30 1.252 . S
In39 O40 2.294 . S
In39 O41 2.326 . S
In39 O45 2.266 . S
In39 O46 2.326 . S
In39 O47 2.266 . S
In39 O48 2.326 . S
In39 O50 2.294 . S
In39 O51 2.326 . S
O40 In39 2.294 . S
O40 C49 1.240 . S
O41 In39 2.326 . S
O41 C49 1.252 . S
C42 O45 1.252 . S
C42 O46 1.260 . S
C43 O50 1.240 . S
C43 O51 1.252 . S
C44 O47 1.252 . S
C44 O48 1.260 . S
O45 In39 2.266 . S
O45 C42 1.252 . S
O46 In39 2.326 . S
O46 C42 1.260 . S
O47 In39 2.266 . S
O47 C44 1.252 . S
O48 In39 2.326 . S
O48 C44 1.260 . S
C49 O40 1.240 . S
C49 O41 1.252 . S
O50 In39 2.294 . S
O50 C43 1.240 . S
O51 In39 2.326 . S
O51 C43 1.252 . S
In52 O53 2.294 . S
In52 O54 2.326 . S
In52 O58 2.266 . S
In52 O59 2.326 . S
In52 O60 2.266 . S
In52 O61 2.326 . S
In52 O63 2.294 . S
In52 O64 2.326 . S
O53 In52 2.294 . S
O53 C62 1.240 . S
O54 In52 2.326 . S
O54 C62 1.252 . S
C55 O58 1.252 . S
C55 O59 1.260 . S
C56 O63 1.240 . S
C56 O64 1.252 . S
C57 O60 1.252 . S
C57 O61 1.260 . S
O58 In52 2.266 . S
O58 C55 1.252 . S
O59 In52 2.326 . S
O59 C55 1.260 . S
O60 In52 2.266 . S
O60 C57 1.252 . S
O61 In52 2.326 . S
O61 C57 1.260 . S
C62 O53 1.240 . S
C62 O54 1.252 . S
O63 In52 2.294 . S
O63 C56 1.240 . S
O64 In52 2.326 . S
O64 C56 1.252 . S
In65 O66 2.294 . S
In65 O67 2.326 . S
In65 O71 2.266 . S
In65 O72 2.326 . S
In65 O73 2.266 . S
In65 O74 2.326 . S
In65 O76 2.294 . S
In65 O77 2.326 . S
O66 In65 2.294 . S
O66 C75 1.240 . S
O67 In65 2.326 . S
O67 C75 1.252 . S
C68 O71 1.252 . S
C68 O72 1.260 . S
C69 O76 1.240 . S
C69 O77 1.252 . S
C70 O73 1.252 . S
C70 O74 1.260 . S
O71 In65 2.266 . S
O71 C68 1.252 . S
O72 In65 2.326 . S
O72 C68 1.260 . S
O73 In65 2.266 . S
O73 C70 1.252 . S
O74 In65 2.326 . S
O74 C70 1.260 . S
C75 O66 1.240 . S
C75 O67 1.252 . S
O76 In65 2.294 . S
O76 C69 1.240 . S
O77 In65 2.326 . S
O77 C69 1.252 . S
In78 O79 2.294 . S
In78 O80 2.326 . S
In78 O84 2.266 . S
In78 O85 2.326 . S
In78 O86 2.266 . S
In78 O87 2.326 . S
In78 O89 2.294 . S
In78 O90 2.326 . S
O79 In78 2.294 . S
O79 C88 1.240 . S
O80 In78 2.326 . S
O80 C88 1.252 . S
C81 O84 1.252 . S
C81 O85 1.260 . S
C82 O89 1.240 . S
C82 O90 1.252 . S
C83 O86 1.252 . S
C83 O87 1.260 . S
O84 In78 2.266 . S
O84 C81 1.252 . S
O85 In78 2.326 . S
O85 C81 1.260 . S
O86 In78 2.266 . S
O86 C83 1.252 . S
O87 In78 2.326 . S
O87 C83 1.260 . S
C88 O79 1.240 . S
C88 O80 1.252 . S
O89 In78 2.294 . S
O89 C82 1.240 . S
O90 In78 2.326 . S
O90 C82 1.252 . S
In91 O92 2.294 . S
In91 O93 2.326 . S
In91 O97 2.266 . S
In91 O98 2.326 . S
In91 O99 2.266 . S
In91 O100 2.326 . S
In91 O102 2.294 . S
In91 O103 2.326 . S
O92 In91 2.294 . S
O92 C101 1.240 . S
O93 In91 2.326 . S
O93 C101 1.252 . S
C94 O97 1.252 . S
C94 O98 1.260 . S
C95 O102 1.240 . S
C95 O103 1.252 . S
C96 O99 1.252 . S
C96 O100 1.260 . S
O97 In91 2.266 . S
O97 C94 1.252 . S
O98 In91 2.326 . S
O98 C94 1.260 . S
O99 In91 2.266 . S
O99 C96 1.252 . S
O100 In91 2.326 . S
O100 C96 1.260 . S
C101 O92 1.240 . S
C101 O93 1.252 . S
O102 In91 2.294 . S
O102 C95 1.240 . S
O103 In91 2.326 . S
O103 C95 1.252 . S
In104 O105 2.294 . S
In104 O106 2.326 . S
In104 O110 2.266 . S
In104 O111 2.326 . S
In104 O112 2.266 . S
In104 O113 2.326 . S
In104 O115 2.294 . S
In104 O116 2.326 . S
O105 In104 2.294 . S
O105 C114 1.240 . S
O106 In104 2.326 . S
O106 C114 1.252 . S
C107 O110 1.252 . S
C107 O111 1.260 . S
C108 O115 1.240 . S
C108 O116 1.252 . S
C109 O112 1.252 . S
C109 O113 1.260 . S
O110 In104 2.266 . S
O110 C107 1.252 . S
O111 In104 2.326 . S
O111 C107 1.260 . S
O112 In104 2.266 . S
O112 C109 1.252 . S
O113 In104 2.326 . S
O113 C109 1.260 . S
C114 O105 1.240 . S
C114 O106 1.252 . S
O115 In104 2.294 . S
O115 C108 1.240 . S
O116 In104 2.326 . S
O116 C108 1.252 . S
In117 O118 2.294 . S
In117 O119 2.326 . S
In117 O123 2.266 . S
In117 O124 2.326 . S
In117 O125 2.266 . S
In117 O126 2.326 . S
In117 O128 2.294 . S
In117 O129 2.326 . S
O118 In117 2.294 . S
O118 C127 1.240 . S
O119 In117 2.326 . S
O119 C127 1.252 . S
C120 O123 1.252 . S
C120 O124 1.260 . S
C121 O128 1.240 . S
C121 O129 1.252 . S
C122 O125 1.252 . S
C122 O126 1.260 . S
O123 In117 2.266 . S
O123 C120 1.252 . S
O124 In117 2.326 . S
O124 C120 1.260 . S
O125 In117 2.266 . S
O125 C122 1.252 . S
O126 In117 2.326 . S
O126 C122 1.260 . S
C127 O118 1.240 . S
C127 O119 1.252 . S
O128 In117 2.294 . S
O128 C121 1.240 . S
O129 In117 2.326 . S
O129 C121 1.252 . S
In130 O131 2.294 . S
In130 O132 2.326 . S
In130 O136 2.266 . S
In130 O137 2.326 . S
In130 O138 2.266 . S
In130 O139 2.326 . S
In130 O141 2.294 . S
In130 O142 2.326 . S
O131 In130 2.294 . S
O131 C140 1.240 . S
O132 In130 2.326 . S
O132 C140 1.252 . S
C133 O136 1.252 . S
C133 O137 1.260 . S
C134 O141 1.240 . S
C134 O142 1.252 . S
C135 O138 1.252 . S
C135 O139 1.260 . S
O136 In130 2.266 . S
O136 C133 1.252 . S
O137 In130 2.326 . S
O137 C133 1.260 . S
O138 In130 2.266 . S
O138 C135 1.252 . S
O139 In130 2.326 . S
O139 C135 1.260 . S
C140 O131 1.240 . S
C140 O132 1.252 . S
O141 In130 2.294 . S
O141 C134 1.240 . S
O142 In130 2.326 . S
O142 C134 1.252 . S
In143 O144 2.294 . S
In143 O145 2.326 . S
In143 O149 2.266 . S
In143 O150 2.326 . S
In143 O151 2.266 . S
In143 O152 2.326 . S
In143 O154 2.294 . S
In143 O155 2.326 . S
O144 In143 2.294 . S
O144 C153 1.240 . S
O145 In143 2.326 . S
O145 C153 1.252 . S
C146 O149 1.252 . S
C146 O150 1.260 . S
C147 O154 1.240 . S
C147 O155 1.252 . S
C148 O151 1.252 . S
C148 O152 1.260 . S
O149 In143 2.266 . S
O149 C146 1.252 . S
O150 In143 2.326 . S
O150 C146 1.260 . S
O151 In143 2.266 . S
O151 C148 1.252 . S
O152 In143 2.326 . S
O152 C148 1.260 . S
C153 O144 1.240 . S
C153 O145 1.252 . S
O154 In143 2.294 . S
O154 C147 1.240 . S
O155 In143 2.326 . S
O155 C147 1.252 . S
In156 O157 2.294 . S
In156 O158 2.326 . S
In156 O162 2.266 . S
In156 O163 2.326 . S
In156 O164 2.266 . S
In156 O165 2.326 . S
In156 O167 2.294 . S
In156 O168 2.326 . S
O157 In156 2.294 . S
O157 C166 1.240 . S
O158 In156 2.326 . S
O158 C166 1.252 . S
C159 O162 1.252 . S
C159 O163 1.260 . S
C160 O167 1.240 . S
C160 O168 1.252 . S
C161 O164 1.252 . S
C161 O165 1.260 . S
O162 In156 2.266 . S
O162 C159 1.252 . S
O163 In156 2.326 . S
O163 C159 1.260 . S
O164 In156 2.266 . S
O164 C161 1.252 . S
O165 In156 2.326 . S
O165 C161 1.260 . S
C166 O157 1.240 . S
C166 O158 1.252 . S
O167 In156 2.294 . S
O167 C160 1.240 . S
O168 In156 2.326 . S
O168 C160 1.252 . S
In169 O170 2.294 . S
In169 O171 2.326 . S
In169 O175 2.266 . S
In169 O176 2.326 . S
In169 O177 2.266 . S
In169 O178 2.326 . S
In169 O180 2.294 . S
In169 O181 2.326 . S
O170 In169 2.294 . S
O170 C179 1.240 . S
O171 In169 2.326 . S
O171 C179 1.252 . S
C172 O175 1.252 . S
C172 O176 1.260 . S
C173 O180 1.240 . S
C173 O181 1.252 . S
C174 O177 1.252 . S
C174 O178 1.260 . S
O175 In169 2.266 . S
O175 C172 1.252 . S
O176 In169 2.326 . S
O176 C172 1.260 . S
O177 In169 2.266 . S
O177 C174 1.252 . S
O178 In169 2.326 . S
O178 C174 1.260 . S
C179 O170 1.240 . S
C179 O171 1.252 . S
O180 In169 2.294 . S
O180 C173 1.240 . S
O181 In169 2.326 . S
O181 C173 1.252 . S
In182 O183 2.294 . S
In182 O184 2.326 . S
In182 O188 2.266 . S
In182 O189 2.326 . S
In182 O190 2.266 . S
In182 O191 2.326 . S
In182 O193 2.294 . S
In182 O194 2.326 . S
O183 In182 2.294 . S
O183 C192 1.240 . S
O184 In182 2.326 . S
O184 C192 1.252 . S
C185 O188 1.252 . S
C185 O189 1.260 . S
C186 O193 1.240 . S
C186 O194 1.252 . S
C187 O190 1.252 . S
C187 O191 1.260 . S
O188 In182 2.266 . S
O188 C185 1.252 . S
O189 In182 2.326 . S
O189 C185 1.260 . S
O190 In182 2.266 . S
O190 C187 1.252 . S
O191 In182 2.326 . S
O191 C187 1.260 . S
C192 O183 1.240 . S
C192 O184 1.252 . S
O193 In182 2.294 . S
O193 C186 1.240 . S
O194 In182 2.326 . S
O194 C186 1.252 . S
In195 O196 2.294 . S
In195 O197 2.326 . S
In195 O201 2.266 . S
In195 O202 2.326 . S
In195 O203 2.266 . S
In195 O204 2.326 . S
In195 O206 2.294 . S
In195 O207 2.326 . S
O196 In195 2.294 . S
O196 C205 1.240 . S
O197 In195 2.326 . S
O197 C205 1.252 . S
C198 O201 1.252 . S
C198 O202 1.260 . S
C199 O206 1.240 . S
C199 O207 1.252 . S
C200 O203 1.252 . S
C200 O204 1.260 . S
O201 In195 2.266 . S
O201 C198 1.252 . S
O202 In195 2.326 . S
O202 C198 1.260 . S
O203 In195 2.266 . S
O203 C200 1.252 . S
O204 In195 2.326 . S
O204 C200 1.260 . S
C205 O196 1.240 . S
C205 O197 1.252 . S
O206 In195 2.294 . S
O206 C199 1.240 . S
O207 In195 2.326 . S
O207 C199 1.252 . S
In208 O209 2.294 . S
In208 O210 2.326 . S
In208 O214 2.266 . S
In208 O215 2.326 . S
In208 O216 2.266 . S
In208 O217 2.326 . S
In208 O219 2.294 . S
In208 O220 2.326 . S
O209 In208 2.294 . S
O209 C218 1.240 . S
O210 In208 2.326 . S
O210 C218 1.252 . S
C211 O214 1.252 . S
C211 O215 1.260 . S
C212 O219 1.240 . S
C212 O220 1.252 . S
C213 O216 1.252 . S
C213 O217 1.260 . S
O214 In208 2.266 . S
O214 C211 1.252 . S
O215 In208 2.326 . S
O215 C211 1.260 . S
O216 In208 2.266 . S
O216 C213 1.252 . S
O217 In208 2.326 . S
O217 C213 1.260 . S
C218 O209 1.240 . S
C218 O210 1.252 . S
O219 In208 2.294 . S
O219 C212 1.240 . S
O220 In208 2.326 . S
O220 C212 1.252 . S
In221 O222 2.294 . S
In221 O223 2.326 . S
In221 O227 2.266 . S
In221 O228 2.326 . S
In221 O229 2.266 . S
In221 O230 2.326 . S
In221 O232 2.294 . S
In221 O233 2.326 . S
O222 In221 2.294 . S
O222 C231 1.240 . S
O223 In221 2.326 . S
O223 C231 1.252 . S
C224 O227 1.252 . S
C224 O228 1.260 . S
C225 O232 1.240 . S
C225 O233 1.252 . S
C226 O229 1.252 . S
C226 O230 1.260 . S
O227 In221 2.266 . S
O227 C224 1.252 . S
O228 In221 2.326 . S
O228 C224 1.260 . S
O229 In221 2.266 . S
O229 C226 1.252 . S
O230 In221 2.326 . S
O230 C226 1.260 . S
C231 O222 1.240 . S
C231 O223 1.252 . S
O232 In221 2.294 . S
O232 C225 1.240 . S
O233 In221 2.326 . S
O233 C225 1.252 . S
In234 O235 2.294 . S
In234 O236 2.326 . S
In234 O240 2.266 . S
In234 O241 2.326 . S
In234 O242 2.266 . S
In234 O243 2.326 . S
In234 O245 2.294 . S
In234 O246 2.326 . S
O235 In234 2.294 . S
O235 C244 1.240 . S
O236 In234 2.326 . S
O236 C244 1.252 . S
C237 O240 1.252 . S
C237 O241 1.260 . S
C238 O245 1.240 . S
C238 O246 1.252 . S
C239 O242 1.252 . S
C239 O243 1.260 . S
O240 In234 2.266 . S
O240 C237 1.252 . S
O241 In234 2.326 . S
O241 C237 1.260 . S
O242 In234 2.266 . S
O242 C239 1.252 . S
O243 In234 2.326 . S
O243 C239 1.260 . S
C244 O235 1.240 . S
C244 O236 1.252 . S
O245 In234 2.294 . S
O245 C238 1.240 . S
O246 In234 2.326 . S
O246 C238 1.252 . S
In247 O248 2.294 . S
In247 O249 2.326 . S
In247 O253 2.266 . S
In247 O254 2.326 . S
In247 O255 2.266 . S
In247 O256 2.326 . S
In247 O258 2.294 . S
In247 O259 2.326 . S
O248 In247 2.294 . S
O248 C257 1.240 . S
O249 In247 2.326 . S
O249 C257 1.252 . S
C250 O253 1.252 . S
C250 O254 1.260 . S
C251 O258 1.240 . S
C251 O259 1.252 . S
C252 O255 1.252 . S
C252 O256 1.260 . S
O253 In247 2.266 . S
O253 C250 1.252 . S
O254 In247 2.326 . S
O254 C250 1.260 . S
O255 In247 2.266 . S
O255 C252 1.252 . S
O256 In247 2.326 . S
O256 C252 1.260 . S
C257 O248 1.240 . S
C257 O249 1.252 . S
O258 In247 2.294 . S
O258 C251 1.240 . S
O259 In247 2.326 . S
O259 C251 1.252 . S
In260 O261 2.294 . S
In260 O262 2.326 . S
In260 O266 2.266 . S
In260 O267 2.326 . S
In260 O268 2.266 . S
In260 O269 2.326 . S
In260 O271 2.294 . S
In260 O272 2.326 . S
O261 In260 2.294 . S
O261 C270 1.240 . S
O262 In260 2.326 . S
O262 C270 1.252 . S
C263 O266 1.252 . S
C263 O267 1.260 . S
C264 O271 1.240 . S
C264 O272 1.252 . S
C265 O268 1.252 . S
C265 O269 1.260 . S
O266 In260 2.266 . S
O266 C263 1.252 . S
O267 In260 2.326 . S
O267 C263 1.260 . S
O268 In260 2.266 . S
O268 C265 1.252 . S
O269 In260 2.326 . S
O269 C265 1.260 . S
C270 O261 1.240 . S
C270 O262 1.252 . S
O271 In260 2.294 . S
O271 C264 1.240 . S
O272 In260 2.326 . S
O272 C264 1.252 . S
In273 O274 2.294 . S
In273 O275 2.326 . S
In273 O279 2.266 . S
In273 O280 2.326 . S
In273 O281 2.266 . S
In273 O282 2.326 . S
In273 O284 2.294 . S
In273 O285 2.326 . S
O274 In273 2.294 . S
O274 C283 1.240 . S
O275 In273 2.326 . S
O275 C283 1.252 . S
C276 O279 1.252 . S
C276 O280 1.260 . S
C277 O284 1.240 . S
C277 O285 1.252 . S
C278 O281 1.252 . S
C278 O282 1.260 . S
O279 In273 2.266 . S
O279 C276 1.252 . S
O280 In273 2.326 . S
O280 C276 1.260 . S
O281 In273 2.266 . S
O281 C278 1.252 . S
O282 In273 2.326 . S
O282 C278 1.260 . S
C283 O274 1.240 . S
C283 O275 1.252 . S
O284 In273 2.294 . S
O284 C277 1.240 . S
O285 In273 2.326 . S
O285 C277 1.252 . S
In286 O287 2.294 . S
In286 O288 2.326 . S
In286 O292 2.266 . S
In286 O293 2.326 . S
In286 O294 2.266 . S
In286 O295 2.326 . S
In286 O297 2.294 . S
In286 O298 2.326 . S
O287 In286 2.294 . S
O287 C296 1.240 . S
O288 In286 2.326 . S
O288 C296 1.252 . S
C289 O292 1.252 . S
C289 O293 1.260 . S
C290 O297 1.240 . S
C290 O298 1.252 . S
C291 O294 1.252 . S
C291 O295 1.260 . S
O292 In286 2.266 . S
O292 C289 1.252 . S
O293 In286 2.326 . S
O293 C289 1.260 . S
O294 In286 2.266 . S
O294 C291 1.252 . S
O295 In286 2.326 . S
O295 C291 1.260 . S
C296 O287 1.240 . S
C296 O288 1.252 . S
O297 In286 2.294 . S
O297 C290 1.240 . S
O298 In286 2.326 . S
O298 C290 1.252 . S
In299 O300 2.294 . S
In299 O301 2.326 . S
In299 O305 2.266 . S
In299 O306 2.326 . S
In299 O307 2.266 . S
In299 O308 2.326 . S
In299 O310 2.294 . S
In299 O311 2.326 . S
O300 In299 2.294 . S
O300 C309 1.240 . S
O301 In299 2.326 . S
O301 C309 1.252 . S
C302 O305 1.252 . S
C302 O306 1.260 . S
C303 O310 1.240 . S
C303 O311 1.252 . S
C304 O307 1.252 . S
C304 O308 1.260 . S
O305 In299 2.266 . S
O305 C302 1.252 . S
O306 In299 2.326 . S
O306 C302 1.260 . S
O307 In299 2.266 . S
O307 C304 1.252 . S
O308 In299 2.326 . S
O308 C304 1.260 . S
C309 O300 1.240 . S
C309 O301 1.252 . S
O310 In299 2.294 . S
O310 C303 1.240 . S
O311 In299 2.326 . S
O311 C303 1.252 . S
In312 O313 2.294 . S
In312 O314 2.326 . S
In312 O318 2.266 . S
In312 O319 2.326 . S
In312 O320 2.266 . S
In312 O321 2.326 . S
In312 O323 2.294 . S
In312 O324 2.326 . S
O313 In312 2.294 . S
O313 C322 1.240 . S
O314 In312 2.326 . S
O314 C322 1.252 . S
C315 O318 1.252 . S
C315 O319 1.260 . S
C316 O323 1.240 . S
C316 O324 1.252 . S
C317 O320 1.252 . S
C317 O321 1.260 . S
O318 In312 2.266 . S
O318 C315 1.252 . S
O319 In312 2.326 . S
O319 C315 1.260 . S
O320 In312 2.266 . S
O320 C317 1.252 . S
O321 In312 2.326 . S
O321 C317 1.260 . S
C322 O313 1.240 . S
C322 O314 1.252 . S
O323 In312 2.294 . S
O323 C316 1.240 . S
O324 In312 2.326 . S
O324 C316 1.252 . S
In325 O326 2.294 . S
In325 O327 2.326 . S
In325 O331 2.266 . S
In325 O332 2.326 . S
In325 O333 2.266 . S
In325 O334 2.326 . S
In325 O336 2.294 . S
In325 O337 2.326 . S
O326 In325 2.294 . S
O326 C335 1.240 . S
O327 In325 2.326 . S
O327 C335 1.252 . S
C328 O331 1.252 . S
C328 O332 1.260 . S
C329 O336 1.240 . S
C329 O337 1.252 . S
C330 O333 1.252 . S
C330 O334 1.260 . S
O331 In325 2.266 . S
O331 C328 1.252 . S
O332 In325 2.326 . S
O332 C328 1.260 . S
O333 In325 2.266 . S
O333 C330 1.252 . S
O334 In325 2.326 . S
O334 C330 1.260 . S
C335 O326 1.240 . S
C335 O327 1.252 . S
O336 In325 2.294 . S
O336 C329 1.240 . S
O337 In325 2.326 . S
O337 C329 1.252 . S
In338 O339 2.294 . S
In338 O340 2.326 . S
In338 O344 2.266 . S
In338 O345 2.326 . S
In338 O346 2.266 . S
In338 O347 2.326 . S
In338 O349 2.294 . S
In338 O350 2.326 . S
O339 In338 2.294 . S
O339 C348 1.240 . S
O340 In338 2.326 . S
O340 C348 1.252 . S
C341 O344 1.252 . S
C341 O345 1.260 . S
C342 O349 1.240 . S
C342 O350 1.252 . S
C343 O346 1.252 . S
C343 O347 1.260 . S
O344 In338 2.266 . S
O344 C341 1.252 . S
O345 In338 2.326 . S
O345 C341 1.260 . S
O346 In338 2.266 . S
O346 C343 1.252 . S
O347 In338 2.326 . S
O347 C343 1.260 . S
C348 O339 1.240 . S
C348 O340 1.252 . S
O349 In338 2.294 . S
O349 C342 1.240 . S
O350 In338 2.326 . S
O350 C342 1.252 . S
In351 O352 2.294 . S
In351 O353 2.326 . S
In351 O357 2.266 . S
In351 O358 2.326 . S
In351 O359 2.266 . S
In351 O360 2.326 . S
In351 O362 2.294 . S
In351 O363 2.326 . S
O352 In351 2.294 . S
O352 C361 1.240 . S
O353 In351 2.326 . S
O353 C361 1.252 . S
C354 O357 1.252 . S
C354 O358 1.260 . S
C355 O362 1.240 . S
C355 O363 1.252 . S
C356 O359 1.252 . S
C356 O360 1.260 . S
O357 In351 2.266 . S
O357 C354 1.252 . S
O358 In351 2.326 . S
O358 C354 1.260 . S
O359 In351 2.266 . S
O359 C356 1.252 . S
O360 In351 2.326 . S
O360 C356 1.260 . S
C361 O352 1.240 . S
C361 O353 1.252 . S
O362 In351 2.294 . S
O362 C355 1.240 . S
O363 In351 2.326 . S
O363 C355 1.252 . S
In364 O365 2.294 . S
In364 O366 2.326 . S
In364 O370 2.266 . S
In364 O371 2.326 . S
In364 O372 2.266 . S
In364 O373 2.326 . S
In364 O375 2.294 . S
In364 O376 2.326 . S
O365 In364 2.294 . S
O365 C374 1.240 . S
O366 In364 2.326 . S
O366 C374 1.252 . S
C367 O370 1.252 . S
C367 O371 1.260 . S
C368 O375 1.240 . S
C368 O376 1.252 . S
C369 O372 1.252 . S
C369 O373 1.260 . S
O370 In364 2.266 . S
O370 C367 1.252 . S
O371 In364 2.326 . S
O371 C367 1.260 . S
O372 In364 2.266 . S
O372 C369 1.252 . S
O373 In364 2.326 . S
O373 C369 1.260 . S
C374 O365 1.240 . S
C374 O366 1.252 . S
O375 In364 2.294 . S
O375 C368 1.240 . S
O376 In364 2.326 . S
O376 C368 1.252 . S
In377 O378 2.294 . S
In377 O379 2.326 . S
In377 O383 2.266 . S
In377 O384 2.326 . S
In377 O385 2.266 . S
In377 O386 2.326 . S
In377 O388 2.294 . S
In377 O389 2.326 . S
O378 In377 2.294 . S
O378 C387 1.240 . S
O379 In377 2.326 . S
O379 C387 1.252 . S
C380 O383 1.252 . S
C380 O384 1.260 . S
C381 O388 1.240 . S
C381 O389 1.252 . S
C382 O385 1.252 . S
C382 O386 1.260 . S
O383 In377 2.266 . S
O383 C380 1.252 . S
O384 In377 2.326 . S
O384 C380 1.260 . S
O385 In377 2.266 . S
O385 C382 1.252 . S
O386 In377 2.326 . S
O386 C382 1.260 . S
C387 O378 1.240 . S
C387 O379 1.252 . S
O388 In377 2.294 . S
O388 C381 1.240 . S
O389 In377 2.326 . S
O389 C381 1.252 . S
In390 O391 2.294 . S
In390 O392 2.326 . S
In390 O396 2.266 . S
In390 O397 2.326 . S
In390 O398 2.266 . S
In390 O399 2.326 . S
In390 O401 2.294 . S
In390 O402 2.326 . S
O391 In390 2.294 . S
O391 C400 1.240 . S
O392 In390 2.326 . S
O392 C400 1.252 . S
C393 O396 1.252 . S
C393 O397 1.260 . S
C394 O401 1.240 . S
C394 O402 1.252 . S
C395 O398 1.252 . S
C395 O399 1.260 . S
O396 In390 2.266 . S
O396 C393 1.252 . S
O397 In390 2.326 . S
O397 C393 1.260 . S
O398 In390 2.266 . S
O398 C395 1.252 . S
O399 In390 2.326 . S
O399 C395 1.260 . S
C400 O391 1.240 . S
C400 O392 1.252 . S
O401 In390 2.294 . S
O401 C394 1.240 . S
O402 In390 2.326 . S
O402 C394 1.252 . S
In403 O404 2.294 . S
In403 O405 2.326 . S
In403 O409 2.266 . S
In403 O410 2.326 . S
In403 O411 2.266 . S
In403 O412 2.326 . S
In403 O414 2.294 . S
In403 O415 2.326 . S
O404 In403 2.294 . S
O404 C413 1.240 . S
O405 In403 2.326 . S
O405 C413 1.252 . S
C406 O409 1.252 . S
C406 O410 1.260 . S
C407 O414 1.240 . S
C407 O415 1.252 . S
C408 O411 1.252 . S
C408 O412 1.260 . S
O409 In403 2.266 . S
O409 C406 1.252 . S
O410 In403 2.326 . S
O410 C406 1.260 . S
O411 In403 2.266 . S
O411 C408 1.252 . S
O412 In403 2.326 . S
O412 C408 1.260 . S
C413 O404 1.240 . S
C413 O405 1.252 . S
O414 In403 2.294 . S
O414 C407 1.240 . S
O415 In403 2.326 . S
O415 C407 1.252 . S
In416 O417 2.294 . S
In416 O418 2.326 . S
In416 O422 2.266 . S
In416 O423 2.326 . S
In416 O424 2.266 . S
In416 O425 2.326 . S
In416 O427 2.294 . S
In416 O428 2.326 . S
O417 In416 2.294 . S
O417 C426 1.240 . S
O418 In416 2.326 . S
O418 C426 1.252 . S
C419 O422 1.252 . S
C419 O423 1.260 . S
C420 O427 1.240 . S
C420 O428 1.252 . S
C421 O424 1.252 . S
C421 O425 1.260 . S
O422 In416 2.266 . S
O422 C419 1.252 . S
O423 In416 2.326 . S
O423 C419 1.260 . S
O424 In416 2.266 . S
O424 C421 1.252 . S
O425 In416 2.326 . S
O425 C421 1.260 . S
C426 O417 1.240 . S
C426 O418 1.252 . S
O427 In416 2.294 . S
O427 C420 1.240 . S
O428 In416 2.326 . S
O428 C420 1.252 . S
In429 O430 2.294 . S
In429 O431 2.326 . S
In429 O435 2.266 . S
In429 O436 2.326 . S
In429 O437 2.266 . S
In429 O438 2.326 . S
In429 O440 2.294 . S
In429 O441 2.326 . S
O430 In429 2.294 . S
O430 C439 1.240 . S
O431 In429 2.326 . S
O431 C439 1.252 . S
C432 O435 1.252 . S
C432 O436 1.260 . S
C433 O440 1.240 . S
C433 O441 1.252 . S
C434 O437 1.252 . S
C434 O438 1.260 . S
O435 In429 2.266 . S
O435 C432 1.252 . S
O436 In429 2.326 . S
O436 C432 1.260 . S
O437 In429 2.266 . S
O437 C434 1.252 . S
O438 In429 2.326 . S
O438 C434 1.260 . S
C439 O430 1.240 . S
C439 O431 1.252 . S
O440 In429 2.294 . S
O440 C433 1.240 . S
O441 In429 2.326 . S
O441 C433 1.252 . S
In442 O443 2.294 . S
In442 O444 2.326 . S
In442 O448 2.266 . S
In442 O449 2.326 . S
In442 O450 2.266 . S
In442 O451 2.326 . S
In442 O453 2.294 . S
In442 O454 2.326 . S
O443 In442 2.294 . S
O443 C452 1.240 . S
O444 In442 2.326 . S
O444 C452 1.252 . S
C445 O448 1.252 . S
C445 O449 1.260 . S
C446 O453 1.240 . S
C446 O454 1.252 . S
C447 O450 1.252 . S
C447 O451 1.260 . S
O448 In442 2.266 . S
O448 C445 1.252 . S
O449 In442 2.326 . S
O449 C445 1.260 . S
O450 In442 2.266 . S
O450 C447 1.252 . S
O451 In442 2.326 . S
O451 C447 1.260 . S
C452 O443 1.240 . S
C452 O444 1.252 . S
O453 In442 2.294 . S
O453 C446 1.240 . S
O454 In442 2.326 . S
O454 C446 1.252 . S
In455 O456 2.294 . S
In455 O457 2.326 . S
In455 O461 2.266 . S
In455 O462 2.326 . S
In455 O463 2.266 . S
In455 O464 2.326 . S
In455 O466 2.294 . S
In455 O467 2.326 . S
O456 In455 2.294 . S
O456 C465 1.240 . S
O457 In455 2.326 . S
O457 C465 1.252 . S
C458 O461 1.252 . S
C458 O462 1.260 . S
C459 O466 1.240 . S
C459 O467 1.252 . S
C460 O463 1.252 . S
C460 O464 1.260 . S
O461 In455 2.266 . S
O461 C458 1.252 . S
O462 In455 2.326 . S
O462 C458 1.260 . S
O463 In455 2.266 . S
O463 C460 1.252 . S
O464 In455 2.326 . S
O464 C460 1.260 . S
C465 O456 1.240 . S
C465 O457 1.252 . S
O466 In455 2.294 . S
O466 C459 1.240 . S
O467 In455 2.326 . S
O467 C459 1.252 . S
In468 O469 2.294 . S
In468 O470 2.326 . S
In468 O474 2.266 . S
In468 O475 2.326 . S
In468 O476 2.266 . S
In468 O477 2.326 . S
In468 O479 2.294 . S
In468 O480 2.326 . S
O469 In468 2.294 . S
O469 C478 1.240 . S
O470 In468 2.326 . S
O470 C478 1.252 . S
C471 O474 1.252 . S
C471 O475 1.260 . S
C472 O479 1.240 . S
C472 O480 1.252 . S
C473 O476 1.252 . S
C473 O477 1.260 . S
O474 In468 2.266 . S
O474 C471 1.252 . S
O475 In468 2.326 . S
O475 C471 1.260 . S
O476 In468 2.266 . S
O476 C473 1.252 . S
O477 In468 2.326 . S
O477 C473 1.260 . S
C478 O469 1.240 . S
C478 O470 1.252 . S
O479 In468 2.294 . S
O479 C472 1.240 . S
O480 In468 2.326 . S
O480 C472 1.252 . S
In481 O482 2.294 . S
In481 O483 2.326 . S
In481 O487 2.266 . S
In481 O488 2.326 . S
In481 O489 2.266 . S
In481 O490 2.326 . S
In481 O492 2.294 . S
In481 O493 2.326 . S
O482 In481 2.294 . S
O482 C491 1.240 . S
O483 In481 2.326 . S
O483 C491 1.252 . S
C484 O487 1.252 . S
C484 O488 1.260 . S
C485 O492 1.240 . S
C485 O493 1.252 . S
C486 O489 1.252 . S
C486 O490 1.260 . S
O487 In481 2.266 . S
O487 C484 1.252 . S
O488 In481 2.326 . S
O488 C484 1.260 . S
O489 In481 2.266 . S
O489 C486 1.252 . S
O490 In481 2.326 . S
O490 C486 1.260 . S
C491 O482 1.240 . S
C491 O483 1.252 . S
O492 In481 2.294 . S
O492 C485 1.240 . S
O493 In481 2.326 . S
O493 C485 1.252 . S
In494 O495 2.294 . S
In494 O496 2.326 . S
In494 O500 2.266 . S
In494 O501 2.326 . S
In494 O502 2.266 . S
In494 O503 2.326 . S
In494 O505 2.294 . S
In494 O506 2.326 . S
O495 In494 2.294 . S
O495 C504 1.240 . S
O496 In494 2.326 . S
O496 C504 1.252 . S
C497 O500 1.252 . S
C497 O501 1.260 . S
C498 O505 1.240 . S
C498 O506 1.252 . S
C499 O502 1.252 . S
C499 O503 1.260 . S
O500 In494 2.266 . S
O500 C497 1.252 . S
O501 In494 2.326 . S
O501 C497 1.260 . S
O502 In494 2.266 . S
O502 C499 1.252 . S
O503 In494 2.326 . S
O503 C499 1.260 . S
C504 O495 1.240 . S
C504 O496 1.252 . S
O505 In494 2.294 . S
O505 C498 1.240 . S
O506 In494 2.326 . S
O506 C498 1.252 . S
In507 O508 2.294 . S
In507 O509 2.326 . S
In507 O513 2.266 . S
In507 O514 2.326 . S
In507 O515 2.266 . S
In507 O516 2.326 . S
In507 O518 2.294 . S
In507 O519 2.326 . S
O508 In507 2.294 . S
O508 C517 1.240 . S
O509 In507 2.326 . S
O509 C517 1.252 . S
C510 O513 1.252 . S
C510 O514 1.260 . S
C511 O518 1.240 . S
C511 O519 1.252 . S
C512 O515 1.252 . S
C512 O516 1.260 . S
O513 In507 2.266 . S
O513 C510 1.252 . S
O514 In507 2.326 . S
O514 C510 1.260 . S
O515 In507 2.266 . S
O515 C512 1.252 . S
O516 In507 2.326 . S
O516 C512 1.260 . S
C517 O508 1.240 . S
C517 O509 1.252 . S
O518 In507 2.294 . S
O518 C511 1.240 . S
O519 In507 2.326 . S
O519 C511 1.252 . S
In520 O521 2.294 . S
In520 O522 2.326 . S
In520 O526 2.266 . S
In520 O527 2.326 . S
In520 O528 2.266 . S
In520 O529 2.326 . S
In520 O531 2.294 . S
In520 O532 2.326 . S
O521 In520 2.294 . S
O521 C530 1.240 . S
O522 In520 2.326 . S
O522 C530 1.252 . S
C523 O526 1.252 . S
C523 O527 1.260 . S
C524 O531 1.240 . S
C524 O532 1.252 . S
C525 O528 1.252 . S
C525 O529 1.260 . S
O526 In520 2.266 . S
O526 C523 1.252 . S
O527 In520 2.326 . S
O527 C523 1.260 . S
O528 In520 2.266 . S
O528 C525 1.252 . S
O529 In520 2.326 . S
O529 C525 1.260 . S
C530 O521 1.240 . S
C530 O522 1.252 . S
O531 In520 2.294 . S
O531 C524 1.240 . S
O532 In520 2.326 . S
O532 C524 1.252 . S
In533 O534 2.294 . S
In533 O535 2.326 . S
In533 O539 2.266 . S
In533 O540 2.326 . S
In533 O541 2.266 . S
In533 O542 2.326 . S
In533 O544 2.294 . S
In533 O545 2.326 . S
O534 In533 2.294 . S
O534 C543 1.240 . S
O535 In533 2.326 . S
O535 C543 1.252 . S
C536 O539 1.252 . S
C536 O540 1.260 . S
C537 O544 1.240 . S
C537 O545 1.252 . S
C538 O541 1.252 . S
C538 O542 1.260 . S
O539 In533 2.266 . S
O539 C536 1.252 . S
O540 In533 2.326 . S
O540 C536 1.260 . S
O541 In533 2.266 . S
O541 C538 1.252 . S
O542 In533 2.326 . S
O542 C538 1.260 . S
C543 O534 1.240 . S
C543 O535 1.252 . S
O544 In533 2.294 . S
O544 C537 1.240 . S
O545 In533 2.326 . S
O545 C537 1.252 . S
In546 O547 2.294 . S
In546 O548 2.326 . S
In546 O552 2.266 . S
In546 O553 2.326 . S
In546 O554 2.266 . S
In546 O555 2.326 . S
In546 O557 2.294 . S
In546 O558 2.326 . S
O547 In546 2.294 . S
O547 C556 1.240 . S
O548 In546 2.326 . S
O548 C556 1.252 . S
C549 O552 1.252 . S
C549 O553 1.260 . S
C550 O557 1.240 . S
C550 O558 1.252 . S
C551 O554 1.252 . S
C551 O555 1.260 . S
O552 In546 2.266 . S
O552 C549 1.252 . S
O553 In546 2.326 . S
O553 C549 1.260 . S
O554 In546 2.266 . S
O554 C551 1.252 . S
O555 In546 2.326 . S
O555 C551 1.260 . S
C556 O547 1.240 . S
C556 O548 1.252 . S
O557 In546 2.294 . S
O557 C550 1.240 . S
O558 In546 2.326 . S
O558 C550 1.252 . S
In559 O560 2.294 . S
In559 O561 2.326 . S
In559 O565 2.266 . S
In559 O566 2.326 . S
In559 O567 2.266 . S
In559 O568 2.326 . S
In559 O570 2.294 . S
In559 O571 2.326 . S
O560 In559 2.294 . S
O560 C569 1.240 . S
O561 In559 2.326 . S
O561 C569 1.252 . S
C562 O565 1.252 . S
C562 O566 1.260 . S
C563 O570 1.240 . S
C563 O571 1.252 . S
C564 O567 1.252 . S
C564 O568 1.260 . S
O565 In559 2.266 . S
O565 C562 1.252 . S
O566 In559 2.326 . S
O566 C562 1.260 . S
O567 In559 2.266 . S
O567 C564 1.252 . S
O568 In559 2.326 . S
O568 C564 1.260 . S
C569 O560 1.240 . S
C569 O561 1.252 . S
O570 In559 2.294 . S
O570 C563 1.240 . S
O571 In559 2.326 . S
O571 C563 1.252 . S
In572 O573 2.294 . S
In572 O574 2.326 . S
In572 O578 2.266 . S
In572 O579 2.326 . S
In572 O580 2.266 . S
In572 O581 2.326 . S
In572 O583 2.294 . S
In572 O584 2.326 . S
O573 In572 2.294 . S
O573 C582 1.240 . S
O574 In572 2.326 . S
O574 C582 1.252 . S
C575 O578 1.252 . S
C575 O579 1.260 . S
C576 O583 1.240 . S
C576 O584 1.252 . S
C577 O580 1.252 . S
C577 O581 1.260 . S
O578 In572 2.266 . S
O578 C575 1.252 . S
O579 In572 2.326 . S
O579 C575 1.260 . S
O580 In572 2.266 . S
O580 C577 1.252 . S
O581 In572 2.326 . S
O581 C577 1.260 . S
C582 O573 1.240 . S
C582 O574 1.252 . S
O583 In572 2.294 . S
O583 C576 1.240 . S
O584 In572 2.326 . S
O584 C576 1.252 . S
In585 O586 2.294 . S
In585 O587 2.326 . S
In585 O591 2.266 . S
In585 O592 2.326 . S
In585 O593 2.266 . S
In585 O594 2.326 . S
In585 O596 2.294 . S
In585 O597 2.326 . S
O586 In585 2.294 . S
O586 C595 1.240 . S
O587 In585 2.326 . S
O587 C595 1.252 . S
C588 O591 1.252 . S
C588 O592 1.260 . S
C589 O596 1.240 . S
C589 O597 1.252 . S
C590 O593 1.252 . S
C590 O594 1.260 . S
O591 In585 2.266 . S
O591 C588 1.252 . S
O592 In585 2.326 . S
O592 C588 1.260 . S
O593 In585 2.266 . S
O593 C590 1.252 . S
O594 In585 2.326 . S
O594 C590 1.260 . S
C595 O586 1.240 . S
C595 O587 1.252 . S
O596 In585 2.294 . S
O596 C589 1.240 . S
O597 In585 2.326 . S
O597 C589 1.252 . S
In598 O599 2.294 . S
In598 O600 2.326 . S
In598 O604 2.266 . S
In598 O605 2.326 . S
In598 O606 2.266 . S
In598 O607 2.326 . S
In598 O609 2.294 . S
In598 O610 2.326 . S
O599 In598 2.294 . S
O599 C608 1.240 . S
O600 In598 2.326 . S
O600 C608 1.252 . S
C601 O604 1.252 . S
C601 O605 1.260 . S
C602 O609 1.240 . S
C602 O610 1.252 . S
C603 O606 1.252 . S
C603 O607 1.260 . S
O604 In598 2.266 . S
O604 C601 1.252 . S
O605 In598 2.326 . S
O605 C601 1.260 . S
O606 In598 2.266 . S
O606 C603 1.252 . S
O607 In598 2.326 . S
O607 C603 1.260 . S
C608 O599 1.240 . S
C608 O600 1.252 . S
O609 In598 2.294 . S
O609 C602 1.240 . S
O610 In598 2.326 . S
O610 C602 1.252 . S
In611 O612 2.294 . S
In611 O613 2.326 . S
In611 O617 2.266 . S
In611 O618 2.326 . S
In611 O619 2.266 . S
In611 O620 2.326 . S
In611 O622 2.294 . S
In611 O623 2.326 . S
O612 In611 2.294 . S
O612 C621 1.240 . S
O613 In611 2.326 . S
O613 C621 1.252 . S
C614 O617 1.252 . S
C614 O618 1.260 . S
C615 O622 1.240 . S
C615 O623 1.252 . S
C616 O619 1.252 . S
C616 O620 1.260 . S
O617 In611 2.266 . S
O617 C614 1.252 . S
O618 In611 2.326 . S
O618 C614 1.260 . S
O619 In611 2.266 . S
O619 C616 1.252 . S
O620 In611 2.326 . S
O620 C616 1.260 . S
C621 O612 1.240 . S
C621 O613 1.252 . S
O622 In611 2.294 . S
O622 C615 1.240 . S
O623 In611 2.326 . S
O623 C615 1.252 . S
H624 C632 0.929 . S
H625 C634 0.930 . S
H626 C636 0.930 . S
H627 C639 0.929 . S
H628 C642 0.930 . S
H629 C644 0.960 . S
H630 C644 0.960 . S
H631 C644 0.960 . S
C632 H624 0.929 . S
C632 C633 1.377 . S
C632 C634 1.384 . S
C633 C632 1.377 . S
C633 C639 1.390 . S
C634 H625 0.930 . S
C634 C632 1.384 . S
C634 C635 1.372 . S
C635 C634 1.372 . S
C635 C636 1.400 . S
C635 C640 1.490 . S
C636 H626 0.930 . S
C636 C635 1.400 . S
C636 C639 1.386 . S
H637 C653 0.930 . S
H638 C654 0.931 . S
C639 H627 0.929 . S
C639 C633 1.390 . S
C639 C636 1.386 . S
C640 C635 1.490 . S
C640 C642 1.395 1_655 S
C640 C643 1.403 . S
H641 C647 0.930 . S
C642 H628 0.930 . S
C642 C640 1.395 1_455 S
C642 C645 1.403 . S
C643 C640 1.403 . S
C643 C644 1.524 . S
C643 C647 1.362 1_655 S
C644 H629 0.960 . S
C644 H630 0.960 . S
C644 H631 0.960 . S
C644 C643 1.524 . S
C645 C642 1.403 . S
C645 C646 1.392 . S
C645 C649 1.495 . S
C646 C645 1.392 . S
C646 C647 1.424 . S
C646 C648 1.478 . S
C647 H641 0.930 . S
C647 C643 1.362 1_455 S
C647 C646 1.424 . S
C648 C646 1.478 . S
C648 C650 1.381 . S
C648 C654 1.383 . S
C649 C645 1.495 . S
C649 H655 0.959 . S
C649 H656 0.961 . S
C649 H657 0.960 . S
C650 C648 1.381 . S
C650 C651 1.394 . S
C650 H658 0.930 . S
C651 C650 1.394 . S
C651 C652 1.383 . S
C651 H659 0.929 . S
C652 C651 1.383 . S
C652 C653 1.377 . S
C653 H637 0.930 . S
C653 C652 1.377 . S
C653 C654 1.379 . S
C654 H638 0.931 . S
C654 C648 1.383 . S
C654 C653 1.379 . S
H655 C649 0.959 . S
H656 C649 0.961 . S
H657 C649 0.960 . S
H658 C650 0.930 . S
H659 C651 0.929 . S
H660 C668 0.929 . S
H661 C670 0.930 . S
H662 C672 0.930 . S
H663 C675 0.929 . S
H664 C678 0.930 . S
H665 C680 0.960 . S
H666 C680 0.960 . S
H667 C680 0.960 . S
C668 H660 0.929 . S
C668 C669 1.377 . S
C668 C670 1.384 . S
C669 C668 1.377 . S
C669 C675 1.390 . S
C670 H661 0.930 . S
C670 C668 1.384 . S
C670 C671 1.372 . S
C671 C670 1.372 . S
C671 C672 1.400 . S
C671 C676 1.490 . S
C672 H662 0.930 . S
C672 C671 1.400 . S
C672 C675 1.386 . S
H673 C689 0.930 . S
H674 C690 0.931 . S
C675 H663 0.929 . S
C675 C669 1.390 . S
C675 C672 1.386 . S
C676 C671 1.490 . S
C676 C678 1.395 1_565 S
C676 C679 1.403 . S
H677 C683 0.933 . S
C678 H664 0.930 . S
C678 C676 1.395 1_545 S
C678 C681 1.403 . S
C679 C676 1.403 . S
C679 C680 1.524 . S
C679 C683 1.419 . S
C680 H665 0.960 . S
C680 H666 0.960 . S
C680 H667 0.960 . S
C680 C679 1.524 . S
C681 C678 1.403 . S
C681 C682 1.392 . S
C681 C685 1.495 . S
C682 C681 1.392 . S
C682 C683 1.363 1_545 S
C682 C684 1.478 . S
C683 H677 0.933 . S
C683 C679 1.419 . S
C683 C682 1.363 1_565 S
C684 C682 1.478 . S
C684 C686 1.381 . S
C684 C690 1.383 . S
C685 C681 1.495 . S
C685 H691 0.959 . S
C685 H692 0.961 . S
C685 H693 0.960 . S
C686 C684 1.381 . S
C686 C687 1.394 . S
C686 H694 0.930 . S
C687 C686 1.394 . S
C687 C688 1.383 . S
C687 H695 0.929 . S
C688 C687 1.383 . S
C688 C689 1.377 . S
C689 H673 0.930 . S
C689 C688 1.377 . S
C689 C690 1.379 . S
C690 H674 0.931 . S
C690 C684 1.383 . S
C690 C689 1.379 . S
H691 C685 0.959 . S
H692 C685 0.961 . S
H693 C685 0.960 . S
H694 C686 0.930 . S
H695 C687 0.929 . S
H696 C704 0.929 . S
H697 C706 0.930 . S
H698 C708 0.930 . S
H699 C711 0.929 . S
H700 C714 0.930 . S
H701 C716 0.960 . S
H702 C716 0.960 . S
H703 C716 0.960 . S
C704 H696 0.929 . S
C704 C705 1.377 . S
C704 C706 1.384 . S
C705 C704 1.377 . S
C705 C711 1.390 . S
C706 H697 0.930 . S
C706 C704 1.384 . S
C706 C707 1.372 . S
C707 C706 1.372 . S
C707 C708 1.400 . S
C707 C712 1.490 . S
C708 H698 0.930 . S
C708 C707 1.400 . S
C708 C711 1.386 . S
H709 C725 0.930 . S
H710 C726 0.931 . S
C711 H699 0.929 . S
C711 C705 1.390 . S
C711 C708 1.386 . S
C712 C707 1.490 . S
C712 C714 1.395 1_455 S
C712 C715 1.403 . S
H713 C719 0.933 . S
C714 H700 0.930 . S
C714 C712 1.395 1_655 S
C714 C717 1.403 . S
C715 C712 1.403 . S
C715 C716 1.524 . S
C715 C719 1.416 . S
C716 H701 0.960 . S
C716 H702 0.960 . S
C716 H703 0.960 . S
C716 C715 1.524 . S
C717 C714 1.403 . S
C717 C718 1.392 . S
C717 C721 1.495 . S
C718 C717 1.392 . S
C718 C719 1.367 1_655 S
C718 C720 1.478 . S
C719 H713 0.933 . S
C719 C715 1.416 . S
C719 C718 1.367 1_455 S
C720 C718 1.478 . S
C720 C722 1.381 . S
C720 C726 1.383 . S
C721 C717 1.495 . S
C721 H727 0.959 . S
C721 H728 0.961 . S
C721 H729 0.960 . S
C722 C720 1.381 . S
C722 C723 1.394 . S
C722 H730 0.930 . S
C723 C722 1.394 . S
C723 C724 1.383 . S
C723 H731 0.929 . S
C724 C723 1.383 . S
C724 C725 1.377 . S
C725 H709 0.930 . S
C725 C724 1.377 . S
C725 C726 1.379 . S
C726 H710 0.931 . S
C726 C720 1.383 . S
C726 C725 1.379 . S
H727 C721 0.959 . S
H728 C721 0.961 . S
H729 C721 0.960 . S
H730 C722 0.930 . S
H731 C723 0.929 . S
H732 C740 0.929 . S
H733 C742 0.930 . S
H734 C744 0.930 . S
H735 C747 0.929 . S
H736 C750 0.930 . S
H737 C752 0.960 . S
H738 C752 0.960 1_565 S
H739 C752 0.960 . S
C740 H732 0.929 . S
C740 C741 1.377 . S
C740 C742 1.384 . S
C741 C740 1.377 . S
C741 C747 1.390 . S
C742 H733 0.930 . S
C742 C740 1.384 . S
C742 C743 1.372 . S
C743 C742 1.372 . S
C743 C744 1.400 . S
C743 C748 1.490 . S
C744 H734 0.930 . S
C744 C743 1.400 . S
C744 C747 1.386 . S
H745 C761 0.930 . S
H746 C762 0.931 . S
C747 H735 0.929 . S
C747 C741 1.390 . S
C747 C744 1.386 . S
C748 C743 1.490 . S
C748 C750 1.395 . S
C748 C751 1.403 1_565 S
H749 C755 0.930 . S
C750 H736 0.930 . S
C750 C748 1.395 . S
C750 C753 1.403 . S
C751 C748 1.403 1_545 S
C751 C752 1.524 . S
C751 C755 1.400 . S
C752 H737 0.960 . S
C752 H738 0.960 1_545 S
C752 H739 0.960 . S
C752 C751 1.524 . S
C753 C750 1.403 . S
C753 C754 1.392 1_565 S
C753 C757 1.495 . S
C754 C753 1.392 1_545 S
C754 C755 1.385 . S
C754 C756 1.478 . S
C755 H749 0.930 . S
C755 C751 1.400 . S
C755 C754 1.385 . S
C756 C754 1.478 . S
C756 C758 1.381 . S
C756 C762 1.383 . S
C757 C753 1.495 . S
C757 H763 0.959 . S
C757 H764 1.002 . S
C757 H765 0.960 . S
C758 C756 1.381 . S
C758 C759 1.394 . S
C758 H766 0.930 . S
C759 C758 1.394 . S
C759 C760 1.383 . S
C759 H767 0.929 . S
C760 C759 1.383 . S
C760 C761 1.377 . S
C761 H745 0.930 . S
C761 C760 1.377 . S
C761 C762 1.379 . S
C762 H746 0.931 . S
C762 C756 1.383 . S
C762 C761 1.379 . S
H763 C757 0.959 . S
H764 C757 1.002 . S
H765 C757 0.960 . S
H766 C758 0.930 . S
H767 C759 0.929 . S
H768 C776 0.929 . S
H769 C778 0.930 . S
H770 C780 0.930 . S
H771 C783 0.929 . S
H772 C786 0.930 . S
H773 C788 0.960 . S
H774 C788 0.960 . S
H775 C788 0.960 . S
C776 H768 0.929 . S
C776 C777 1.377 . S
C776 C778 1.384 . S
C777 C776 1.377 . S
C777 C783 1.390 . S
C778 H769 0.930 . S
C778 C776 1.384 . S
C778 C779 1.372 . S
C779 C778 1.372 . S
C779 C780 1.400 . S
C779 C784 1.490 . S
C780 H770 0.930 . S
C780 C779 1.400 . S
C780 C783 1.386 . S
H781 C797 0.930 . S
H782 C798 0.931 . S
C783 H771 0.929 . S
C783 C777 1.390 . S
C783 C780 1.386 . S
C784 C779 1.490 . S
C784 C786 1.395 1_655 S
C784 C787 1.403 . S
H785 C791 0.929 1_655 S
C786 H772 0.930 . S
C786 C784 1.395 1_455 S
C786 C789 1.403 . S
C787 C784 1.403 . S
C787 C788 1.524 . S
C787 C791 1.374 1_655 S
C788 H773 0.960 . S
C788 H774 0.960 . S
C788 H775 0.960 . S
C788 C787 1.524 . S
C789 C786 1.403 . S
C789 C790 1.392 . S
C789 C793 1.495 . S
C790 C789 1.392 . S
C790 C791 1.413 . S
C790 C792 1.478 . S
C791 H785 0.929 1_455 S
C791 C787 1.374 1_455 S
C791 C790 1.413 . S
C792 C790 1.478 . S
C792 C794 1.381 . S
C792 C798 1.383 . S
C793 C789 1.495 . S
C793 H799 0.959 . S
C793 H800 0.961 . S
C793 H801 0.960 . S
C794 C792 1.381 . S
C794 C795 1.394 . S
C794 H802 0.930 . S
C795 C794 1.394 . S
C795 C796 1.383 . S
C795 H803 0.929 . S
C796 C795 1.383 . S
C796 C797 1.377 . S
C797 H781 0.930 . S
C797 C796 1.377 . S
C797 C798 1.379 . S
C798 H782 0.931 . S
C798 C792 1.383 . S
C798 C797 1.379 . S
H799 C793 0.959 . S
H800 C793 0.961 . S
H801 C793 0.960 . S
H802 C794 0.930 . S
H803 C795 0.929 . S
H804 C812 0.929 . S
H805 C814 0.930 . S
H806 C816 0.930 . S
H807 C819 0.929 . S
H808 C822 0.930 . S
H809 C824 0.960 . S
H810 C824 0.960 . S
H811 C824 0.960 . S
C812 H804 0.929 . S
C812 C813 1.377 . S
C812 C814 1.384 . S
C813 C812 1.377 . S
C813 C819 1.390 . S
C814 H805 0.930 . S
C814 C812 1.384 . S
C814 C815 1.372 . S
C815 C814 1.372 . S
C815 C816 1.400 . S
C815 C820 1.490 . S
C816 H806 0.930 . S
C816 C815 1.400 . S
C816 C819 1.386 . S
H817 C833 0.930 . S
H818 C834 0.931 . S
C819 H807 0.929 . S
C819 C813 1.390 . S
C819 C816 1.386 . S
C820 C815 1.490 . S
C820 C822 1.395 1_545 S
C820 C823 1.403 . S
H821 C827 0.928 . S
C822 H808 0.930 . S
C822 C820 1.395 1_565 S
C822 C825 1.403 . S
C823 C820 1.403 . S
C823 C824 1.524 . S
C823 C827 1.399 . S
C824 H809 0.960 . S
C824 H810 0.960 . S
C824 H811 0.960 . S
C824 C823 1.524 . S
C825 C822 1.403 . S
C825 C826 1.392 . S
C825 C829 1.495 . S
C826 C825 1.392 . S
C826 C827 1.386 1_565 S
C826 C828 1.478 . S
C827 H821 0.928 . S
C827 C823 1.399 . S
C827 C826 1.386 1_545 S
C828 C826 1.478 . S
C828 C830 1.381 . S
C828 C834 1.383 . S
C829 C825 1.495 . S
C829 H835 0.959 . S
C829 H836 0.961 . S
C829 H837 0.960 . S
C830 C828 1.381 . S
C830 C831 1.394 . S
C830 H838 0.930 . S
C831 C830 1.394 . S
C831 C832 1.383 . S
C831 H839 0.929 . S
C832 C831 1.383 . S
C832 C833 1.377 . S
C833 H817 0.930 . S
C833 C832 1.377 . S
C833 C834 1.379 . S
C834 H818 0.931 . S
C834 C828 1.383 . S
C834 C833 1.379 . S
H835 C829 0.959 . S
H836 C829 0.961 . S
H837 C829 0.960 . S
H838 C830 0.930 . S
H839 C831 0.929 . S
H840 C848 0.929 . S
H841 C850 0.930 . S
H842 C852 0.930 . S
H843 C855 0.929 . S
H844 C858 0.930 . S
H845 C860 0.960 . S
H846 C860 0.960 . S
H847 C860 0.960 . S
C848 H840 0.929 . S
C848 C849 1.377 . S
C848 C850 1.384 . S
C849 C848 1.377 . S
C849 C855 1.390 . S
C850 H841 0.930 . S
C850 C848 1.384 . S
C850 C851 1.372 . S
C851 C850 1.372 . S
C851 C852 1.400 . S
C851 C856 1.490 . S
C852 H842 0.930 . S
C852 C851 1.400 . S
C852 C855 1.386 . S
H853 C869 0.930 . S
H854 C870 0.931 . S
C855 H843 0.929 . S
C855 C849 1.390 . S
C855 C852 1.386 . S
C856 C851 1.490 . S
C856 C858 1.395 . S
C856 C859 1.403 . S
H857 C863 0.930 . S
C858 H844 0.930 . S
C858 C856 1.395 . S
C858 C861 1.403 1_455 S
C859 C856 1.403 . S
C859 C860 1.524 . S
C859 C863 1.400 1_455 S
C860 H845 0.960 . S
C860 H846 0.960 . S
C860 H847 0.960 . S
C860 C859 1.524 . S
C861 C858 1.403 1_655 S
C861 C862 1.392 . S
C861 C865 1.495 . S
C862 C861 1.392 . S
C862 C863 1.385 . S
C862 C864 1.478 . S
C863 H857 0.930 . S
C863 C859 1.400 1_655 S
C863 C862 1.385 . S
C864 C862 1.478 . S
C864 C866 1.381 . S
C864 C870 1.383 . S
C865 C861 1.495 . S
C865 H871 0.959 . S
C865 H872 0.961 . S
C865 H873 0.960 . S
C866 C864 1.381 . S
C866 C867 1.394 . S
C866 H874 0.930 . S
C867 C866 1.394 . S
C867 C868 1.383 . S
C867 H875 0.929 . S
C868 C867 1.383 . S
C868 C869 1.377 . S
C869 H853 0.930 . S
C869 C868 1.377 . S
C869 C870 1.379 . S
C870 H854 0.931 . S
C870 C864 1.383 . S
C870 C869 1.379 . S
H871 C865 0.959 . S
H872 C865 0.961 . S
H873 C865 0.960 . S
H874 C866 0.930 . S
H875 C867 0.929 . S
H876 C884 0.929 . S
H877 C886 0.930 . S
H878 C888 0.930 . S
H879 C891 0.929 . S
H880 C894 0.930 . S
H881 C896 0.960 . S
H882 C896 0.960 1_545 S
H883 C896 0.960 . S
C884 H876 0.929 . S
C884 C885 1.377 . S
C884 C886 1.384 . S
C885 C884 1.377 . S
C885 C891 1.390 . S
C886 H877 0.930 . S
C886 C884 1.384 . S
C886 C887 1.372 . S
C887 C886 1.372 . S
C887 C888 1.400 . S
C887 C892 1.490 . S
C888 H878 0.930 . S
C888 C887 1.400 . S
C888 C891 1.386 . S
H889 C905 0.930 . S
H890 C906 0.931 . S
C891 H879 0.929 . S
C891 C885 1.390 . S
C891 C888 1.386 . S
C892 C887 1.490 . S
C892 C894 1.395 . S
C892 C895 1.403 1_545 S
H893 C899 0.930 . S
C894 H880 0.930 . S
C894 C892 1.395 . S
C894 C897 1.403 . S
C895 C892 1.403 1_565 S
C895 C896 1.524 . S
C895 C899 1.400 . S
C896 H881 0.960 . S
C896 H882 0.960 1_565 S
C896 H883 0.960 . S
C896 C895 1.524 . S
C897 C894 1.403 . S
C897 C898 1.392 1_545 S
C897 C901 1.495 . S
C898 C897 1.392 1_565 S
C898 C899 1.385 . S
C898 C900 1.478 . S
C899 H893 0.930 . S
C899 C895 1.400 . S
C899 C898 1.385 . S
C900 C898 1.478 . S
C900 C902 1.381 . S
C900 C906 1.383 . S
C901 C897 1.495 . S
C901 H907 0.959 . S
C901 H908 0.937 1_545 S
C901 H909 0.960 . S
C902 C900 1.381 . S
C902 C903 1.394 . S
C902 H910 0.930 . S
C903 C902 1.394 . S
C903 C904 1.383 . S
C903 H911 0.929 . S
C904 C903 1.383 . S
C904 C905 1.377 . S
C905 H889 0.930 . S
C905 C904 1.377 . S
C905 C906 1.379 . S
C906 H890 0.931 . S
C906 C900 1.383 . S
C906 C905 1.379 . S
H907 C901 0.959 . S
H908 C901 0.937 1_565 S
H909 C901 0.960 . S
H910 C902 0.930 . S
H911 C903 0.929 . S
H912 C920 0.929 . S
H913 C922 0.930 . S
H914 C924 0.930 . S
H915 C927 0.929 . S
H916 C930 0.930 . S
H917 C932 0.960 1_556 S
H918 C932 0.960 . S
H919 C932 0.960 . S
C920 H912 0.929 . S
C920 C921 1.377 . S
C920 C922 1.384 . S
C921 C920 1.377 . S
C921 C927 1.390 . S
C922 H913 0.930 . S
C922 C920 1.384 . S
C922 C923 1.372 . S
C923 C922 1.372 . S
C923 C924 1.400 . S
C923 C928 1.490 . S
C924 H914 0.930 . S
C924 C923 1.400 . S
C924 C927 1.386 . S
H925 C941 0.930 . S
H926 C942 0.931 . S
C927 H915 0.929 . S
C927 C921 1.390 . S
C927 C924 1.386 . S
C928 C923 1.490 . S
C928 C930 1.395 . S
C928 C931 1.403 . S
H929 C935 0.930 . S
C930 H916 0.930 . S
C930 C928 1.395 . S
C930 C933 1.403 1_554 S
C931 C928 1.403 . S
C931 C932 1.524 . S
C931 C935 1.400 1_554 S
C932 H917 0.960 1_554 S
C932 H918 0.960 . S
C932 H919 0.960 . S
C932 C931 1.524 . S
C933 C930 1.403 1_556 S
C933 C934 1.392 . S
C933 C937 1.495 . S
C934 C933 1.392 . S
C934 C935 1.385 . S
C934 C936 1.478 . S
C935 H929 0.930 . S
C935 C931 1.400 1_556 S
C935 C934 1.385 . S
C936 C934 1.478 . S
C936 C938 1.381 . S
C936 C942 1.383 . S
C937 C933 1.495 . S
C937 H943 0.959 1_556 S
C937 H944 0.961 . S
C937 H945 0.960 . S
C938 C936 1.381 . S
C938 C939 1.394 . S
C938 H946 0.930 . S
C939 C938 1.394 . S
C939 C940 1.383 . S
C939 H947 0.929 . S
C940 C939 1.383 . S
C940 C941 1.377 . S
C941 H925 0.930 . S
C941 C940 1.377 . S
C941 C942 1.379 . S
C942 H926 0.931 . S
C942 C936 1.383 . S
C942 C941 1.379 . S
H943 C937 0.959 1_554 S
H944 C937 0.961 . S
H945 C937 0.960 . S
H946 C938 0.930 . S
H947 C939 0.929 . S
H948 C956 0.929 . S
H949 C958 0.930 . S
H950 C960 0.930 . S
H951 C963 0.929 . S
H952 C966 0.930 . S
H953 C968 0.960 . S
H954 C968 0.960 . S
H955 C968 0.960 . S
C956 H948 0.929 . S
C956 C957 1.377 . S
C956 C958 1.384 . S
C957 C956 1.377 . S
C957 C963 1.390 . S
C958 H949 0.930 . S
C958 C956 1.384 . S
C958 C959 1.372 . S
C959 C958 1.372 . S
C959 C960 1.400 . S
C959 C964 1.490 . S
C960 H950 0.930 . S
C960 C959 1.400 . S
C960 C963 1.386 . S
H961 C977 0.930 . S
H962 C978 0.931 . S
C963 H951 0.929 . S
C963 C957 1.390 . S
C963 C960 1.386 . S
C964 C959 1.490 . S
C964 C966 1.395 . S
C964 C967 1.403 1_556 S
H965 C971 0.930 . S
C966 H952 0.930 . S
C966 C964 1.395 . S
C966 C969 1.403 . S
C967 C964 1.403 1_554 S
C967 C968 1.524 . S
C967 C971 1.400 . S
C968 H953 0.960 . S
C968 H954 0.960 . S
C968 H955 0.960 . S
C968 C967 1.524 . S
C969 C966 1.403 . S
C969 C970 1.392 1_556 S
C969 C973 1.495 . S
C970 C969 1.392 1_554 S
C970 C971 1.385 . S
C970 C972 1.478 . S
C971 H965 0.930 . S
C971 C967 1.400 . S
C971 C970 1.385 . S
C972 C970 1.478 . S
C972 C974 1.381 . S
C972 C978 1.383 . S
C973 C969 1.495 . S
C973 H979 0.959 . S
C973 H980 0.961 . S
C973 H981 0.960 . S
C974 C972 1.381 . S
C974 C975 1.394 . S
C974 H982 0.930 . S
C975 C974 1.394 . S
C975 C976 1.383 . S
C975 H983 0.929 . S
C976 C975 1.383 . S
C976 C977 1.377 . S
C977 H961 0.930 . S
C977 C976 1.377 . S
C977 C978 1.379 . S
C978 H962 0.931 . S
C978 C972 1.383 . S
C978 C977 1.379 . S
H979 C973 0.959 . S
H980 C973 0.961 . S
H981 C973 0.960 . S
H982 C974 0.930 . S
H983 C975 0.929 . S
H984 C992 0.929 . S
H985 C994 0.930 . S
H986 C996 0.930 . S
H987 C999 0.929 . S
H988 C1002 0.930 . S
H989 C1004 0.960 . S
H990 C1004 0.960 . S
H991 C1004 0.960 . S
C992 H984 0.929 . S
C992 C993 1.377 . S
C992 C994 1.384 . S
C993 C992 1.377 . S
C993 C999 1.390 . S
C994 H985 0.930 . S
C994 C992 1.384 . S
C994 C995 1.372 . S
C995 C994 1.372 . S
C995 C996 1.400 . S
C995 C1000 1.490 . S
C996 H986 0.930 . S
C996 C995 1.400 . S
C996 C999 1.386 . S
H997 C1013 0.930 . S
H998 C1014 0.931 . S
C999 H987 0.929 . S
C999 C993 1.390 . S
C999 C996 1.386 . S
C1000 C995 1.490 . S
C1000 C1002 1.395 . S
C1000 C1003 1.403 . S
H1001 C1007 0.930 . S
C1002 H988 0.930 . S
C1002 C1000 1.395 . S
C1002 C1005 1.403 1_556 S
C1003 C1000 1.403 . S
C1003 C1004 1.524 . S
C1003 C1007 1.400 1_556 S
C1004 H989 0.960 . S
C1004 H990 0.960 . S
C1004 H991 0.960 . S
C1004 C1003 1.524 . S
C1005 C1002 1.403 1_554 S
C1005 C1006 1.392 . S
C1005 C1009 1.495 . S
C1006 C1005 1.392 . S
C1006 C1007 1.385 . S
C1006 C1008 1.478 . S
C1007 H1001 0.930 . S
C1007 C1003 1.400 1_554 S
C1007 C1006 1.385 . S
C1008 C1006 1.478 . S
C1008 C1010 1.381 . S
C1008 C1014 1.383 . S
C1009 C1005 1.495 . S
C1009 H1015 0.959 . S
C1009 H1016 0.961 . S
C1009 H1017 0.960 . S
C1010 C1008 1.381 . S
C1010 C1011 1.394 . S
C1010 H1018 0.930 . S
C1011 C1010 1.394 . S
C1011 C1012 1.383 . S
C1011 H1019 0.929 . S
C1012 C1011 1.383 . S
C1012 C1013 1.377 . S
C1013 H997 0.930 . S
C1013 C1012 1.377 . S
C1013 C1014 1.379 . S
C1014 H998 0.931 . S
C1014 C1008 1.383 . S
C1014 C1013 1.379 . S
H1015 C1009 0.959 . S
H1016 C1009 0.961 . S
H1017 C1009 0.960 . S
H1018 C1010 0.930 . S
H1019 C1011 0.929 . S
H1020 C1028 0.929 . S
H1021 C1030 0.930 . S
H1022 C1032 0.930 . S
H1023 C1035 0.929 . S
H1024 C1038 0.930 . S
H1025 C1040 0.960 . S
H1026 C1040 0.960 . S
H1027 C1040 0.960 . S
C1028 H1020 0.929 . S
C1028 C1029 1.377 . S
C1028 C1030 1.384 . S
C1029 C1028 1.377 . S
C1029 C1035 1.390 . S
C1030 H1021 0.930 . S
C1030 C1028 1.384 . S
C1030 C1031 1.372 . S
C1031 C1030 1.372 . S
C1031 C1032 1.400 . S
C1031 C1036 1.490 . S
C1032 H1022 0.930 . S
C1032 C1031 1.400 . S
C1032 C1035 1.386 . S
H1033 C1049 0.930 . S
H1034 C1050 0.931 . S
C1035 H1023 0.929 . S
C1035 C1029 1.390 . S
C1035 C1032 1.386 . S
C1036 C1031 1.490 . S
C1036 C1038 1.395 . S
C1036 C1039 1.403 . S
H1037 C1043 0.930 . S
C1038 H1024 0.930 . S
C1038 C1036 1.395 . S
C1038 C1041 1.403 1_556 S
C1039 C1036 1.403 . S
C1039 C1040 1.524 . S
C1039 C1043 1.400 1_556 S
C1040 H1025 0.960 . S
C1040 H1026 0.960 . S
C1040 H1027 0.960 . S
C1040 C1039 1.524 . S
C1041 C1038 1.403 1_554 S
C1041 C1042 1.392 . S
C1041 C1045 1.495 . S
C1042 C1041 1.392 . S
C1042 C1043 1.385 . S
C1042 C1044 1.478 . S
C1043 H1037 0.930 . S
C1043 C1039 1.400 1_554 S
C1043 C1042 1.385 . S
C1044 C1042 1.478 . S
C1044 C1046 1.381 . S
C1044 C1050 1.383 . S
C1045 C1041 1.495 . S
C1045 H1051 0.959 . S
C1045 H1052 0.961 . S
C1045 H1053 0.960 . S
C1046 C1044 1.381 . S
C1046 C1047 1.394 . S
C1046 H1054 0.930 . S
C1047 C1046 1.394 . S
C1047 C1048 1.383 . S
C1047 H1055 0.929 . S
C1048 C1047 1.383 . S
C1048 C1049 1.377 . S
C1049 H1033 0.930 . S
C1049 C1048 1.377 . S
C1049 C1050 1.379 . S
C1050 H1034 0.931 . S
C1050 C1044 1.383 . S
C1050 C1049 1.379 . S
H1051 C1045 0.959 . S
H1052 C1045 0.961 . S
H1053 C1045 0.960 . S
H1054 C1046 0.930 . S
H1055 C1047 0.929 . S
H1056 C1064 0.929 . S
H1057 C1066 0.930 . S
H1058 C1068 0.930 . S
H1059 C1071 0.929 . S
H1060 C1074 0.930 . S
H1061 C1076 0.960 . S
H1062 C1076 0.960 . S
H1063 C1076 0.960 . S
C1064 H1056 0.929 . S
C1064 C1065 1.377 . S
C1064 C1066 1.384 . S
C1065 C1064 1.377 . S
C1065 C1071 1.390 . S
C1066 H1057 0.930 . S
C1066 C1064 1.384 . S
C1066 C1067 1.372 . S
C1067 C1066 1.372 . S
C1067 C1068 1.400 . S
C1067 C1072 1.490 . S
C1068 H1058 0.930 . S
C1068 C1067 1.400 . S
C1068 C1071 1.386 . S
H1069 C1085 0.930 . S
H1070 C1086 0.931 . S
C1071 H1059 0.929 . S
C1071 C1065 1.390 . S
C1071 C1068 1.386 . S
C1072 C1067 1.490 . S
C1072 C1074 1.395 . S
C1072 C1075 1.403 . S
H1073 C1079 0.930 . S
C1074 H1060 0.930 . S
C1074 C1072 1.395 . S
C1074 C1077 1.403 . S
C1075 C1072 1.403 . S
C1075 C1076 1.524 . S
C1075 C1079 1.400 . S
C1076 H1061 0.960 . S
C1076 H1062 0.960 . S
C1076 H1063 0.960 . S
C1076 C1075 1.524 . S
C1077 C1074 1.403 . S
C1077 C1078 1.392 . S
C1077 C1081 1.495 . S
C1078 C1077 1.392 . S
C1078 C1079 1.385 . S
C1078 C1080 1.478 . S
C1079 H1073 0.930 . S
C1079 C1075 1.400 . S
C1079 C1078 1.385 . S
C1080 C1078 1.478 . S
C1080 C1082 1.381 . S
C1080 C1086 1.383 . S
C1081 C1077 1.495 . S
C1081 H1087 0.959 . S
C1081 H1088 0.961 . S
C1081 H1089 0.960 . S
C1082 C1080 1.381 . S
C1082 C1083 1.394 . S
C1082 H1090 0.930 . S
C1083 C1082 1.394 . S
C1083 C1084 1.383 . S
C1083 H1091 0.929 . S
C1084 C1083 1.383 . S
C1084 C1085 1.377 . S
C1085 H1069 0.930 . S
C1085 C1084 1.377 . S
C1085 C1086 1.379 . S
C1086 H1070 0.931 . S
C1086 C1080 1.383 . S
C1086 C1085 1.379 . S
H1087 C1081 0.959 . S
H1088 C1081 0.961 . S
H1089 C1081 0.960 . S
H1090 C1082 0.930 . S
H1091 C1083 0.929 . S
H1092 C1100 0.929 . S
H1093 C1102 0.930 . S
H1094 C1104 0.930 . S
H1095 C1107 0.929 . S
H1096 C1110 0.930 . S
H1097 C1112 0.960 . S
H1098 C1112 0.960 . S
H1099 C1112 0.960 . S
C1100 H1092 0.929 . S
C1100 C1101 1.377 . S
C1100 C1102 1.384 . S
C1101 C1100 1.377 . S
C1101 C1107 1.390 . S
C1102 H1093 0.930 . S
C1102 C1100 1.384 . S
C1102 C1103 1.372 . S
C1103 C1102 1.372 . S
C1103 C1104 1.400 . S
C1103 C1108 1.490 . S
C1104 H1094 0.930 . S
C1104 C1103 1.400 . S
C1104 C1107 1.386 . S
H1105 C1121 0.930 . S
H1106 C1122 0.931 . S
C1107 H1095 0.929 . S
C1107 C1101 1.390 . S
C1107 C1104 1.386 . S
C1108 C1103 1.490 . S
C1108 C1110 1.395 . S
C1108 C1111 1.403 . S
H1109 C1115 0.930 . S
C1110 H1096 0.930 . S
C1110 C1108 1.395 . S
C1110 C1113 1.403 . S
C1111 C1108 1.403 . S
C1111 C1112 1.524 . S
C1111 C1115 1.400 . S
C1112 H1097 0.960 . S
C1112 H1098 0.960 . S
C1112 H1099 0.960 . S
C1112 C1111 1.524 . S
C1113 C1110 1.403 . S
C1113 C1114 1.392 . S
C1113 C1117 1.495 . S
C1114 C1113 1.392 . S
C1114 C1115 1.385 . S
C1114 C1116 1.478 . S
C1115 H1109 0.930 . S
C1115 C1111 1.400 . S
C1115 C1114 1.385 . S
C1116 C1114 1.478 . S
C1116 C1118 1.381 . S
C1116 C1122 1.383 . S
C1117 C1113 1.495 . S
C1117 H1123 0.959 . S
C1117 H1124 0.961 . S
C1117 H1125 0.960 . S
C1118 C1116 1.381 . S
C1118 C1119 1.394 . S
C1118 H1126 0.930 . S
C1119 C1118 1.394 . S
C1119 C1120 1.383 . S
C1119 H1127 0.929 . S
C1120 C1119 1.383 . S
C1120 C1121 1.377 . S
C1121 H1105 0.930 . S
C1121 C1120 1.377 . S
C1121 C1122 1.379 . S
C1122 H1106 0.931 . S
C1122 C1116 1.383 . S
C1122 C1121 1.379 . S
H1123 C1117 0.959 . S
H1124 C1117 0.961 . S
H1125 C1117 0.960 . S
H1126 C1118 0.930 . S
H1127 C1119 0.929 . S
H1128 C1136 0.929 . S
H1129 C1138 0.930 . S
H1130 C1140 0.930 . S
H1131 C1143 0.929 . S
H1132 C1146 0.930 . S
H1133 C1148 0.960 . S
H1134 C1148 0.960 . S
H1135 C1148 0.960 . S
C1136 H1128 0.929 . S
C1136 C1137 1.377 . S
C1136 C1138 1.384 . S
C1137 C1136 1.377 . S
C1137 C1143 1.390 . S
C1138 H1129 0.930 . S
C1138 C1136 1.384 . S
C1138 C1139 1.372 . S
C1139 C1138 1.372 . S
C1139 C1140 1.400 . S
C1139 C1144 1.490 . S
C1140 H1130 0.930 . S
C1140 C1139 1.400 . S
C1140 C1143 1.386 . S
H1141 C1157 0.930 . S
H1142 C1158 0.931 . S
C1143 H1131 0.929 . S
C1143 C1137 1.390 . S
C1143 C1140 1.386 . S
C1144 C1139 1.490 . S
C1144 C1146 1.395 . S
C1144 C1147 1.403 . S
H1145 C1151 0.930 . S
C1146 H1132 0.930 . S
C1146 C1144 1.395 . S
C1146 C1149 1.403 . S
C1147 C1144 1.403 . S
C1147 C1148 1.524 . S
C1147 C1151 1.400 . S
C1148 H1133 0.960 . S
C1148 H1134 0.960 . S
C1148 H1135 0.960 . S
C1148 C1147 1.524 . S
C1149 C1146 1.403 . S
C1149 C1150 1.392 . S
C1149 C1153 1.495 . S
C1150 C1149 1.392 . S
C1150 C1151 1.385 . S
C1150 C1152 1.478 . S
C1151 H1145 0.930 . S
C1151 C1147 1.400 . S
C1151 C1150 1.385 . S
C1152 C1150 1.478 . S
C1152 C1154 1.381 . S
C1152 C1158 1.383 . S
C1153 C1149 1.495 . S
C1153 H1159 0.959 . S
C1153 H1160 0.961 . S
C1153 H1161 0.960 . S
C1154 C1152 1.381 . S
C1154 C1155 1.394 . S
C1154 H1162 0.930 . S
C1155 C1154 1.394 . S
C1155 C1156 1.383 . S
C1155 H1163 0.929 . S
C1156 C1155 1.383 . S
C1156 C1157 1.377 . S
C1157 H1141 0.930 . S
C1157 C1156 1.377 . S
C1157 C1158 1.379 . S
C1158 H1142 0.931 . S
C1158 C1152 1.383 . S
C1158 C1157 1.379 . S
H1159 C1153 0.959 . S
H1160 C1153 0.961 . S
H1161 C1153 0.960 . S
H1162 C1154 0.930 . S
H1163 C1155 0.929 . S
H1164 C1172 0.929 . S
H1165 C1174 0.930 . S
H1166 C1176 0.930 . S
H1167 C1179 0.929 . S
H1168 C1182 0.930 . S
H1169 C1184 0.960 . S
H1170 C1184 0.960 . S
H1171 C1184 0.960 . S
C1172 H1164 0.929 . S
C1172 C1173 1.377 . S
C1172 C1174 1.384 . S
C1173 C1172 1.377 . S
C1173 C1179 1.390 . S
C1174 H1165 0.930 . S
C1174 C1172 1.384 . S
C1174 C1175 1.372 . S
C1175 C1174 1.372 . S
C1175 C1176 1.400 . S
C1175 C1180 1.490 . S
C1176 H1166 0.930 . S
C1176 C1175 1.400 . S
C1176 C1179 1.386 . S
H1177 C1193 0.930 . S
H1178 C1194 0.931 . S
C1179 H1167 0.929 . S
C1179 C1173 1.390 . S
C1179 C1176 1.386 . S
C1180 C1175 1.490 . S
C1180 C1182 1.395 . S
C1180 C1183 1.403 . S
H1181 C1187 0.930 . S
C1182 H1168 0.930 . S
C1182 C1180 1.395 . S
C1182 C1185 1.403 . S
C1183 C1180 1.403 . S
C1183 C1184 1.524 . S
C1183 C1187 1.400 . S
C1184 H1169 0.960 . S
C1184 H1170 0.960 . S
C1184 H1171 0.960 . S
C1184 C1183 1.524 . S
C1185 C1182 1.403 . S
C1185 C1186 1.392 . S
C1185 C1189 1.495 . S
C1186 C1185 1.392 . S
C1186 C1187 1.385 . S
C1186 C1188 1.478 . S
C1187 H1181 0.930 . S
C1187 C1183 1.400 . S
C1187 C1186 1.385 . S
C1188 C1186 1.478 . S
C1188 C1190 1.381 . S
C1188 C1194 1.383 . S
C1189 C1185 1.495 . S
C1189 H1195 0.959 . S
C1189 H1196 0.961 . S
C1189 H1197 0.960 . S
C1190 C1188 1.381 . S
C1190 C1191 1.394 . S
C1190 H1198 0.930 . S
C1191 C1190 1.394 . S
C1191 C1192 1.383 . S
C1191 H1199 0.929 . S
C1192 C1191 1.383 . S
C1192 C1193 1.377 . S
C1193 H1177 0.930 . S
C1193 C1192 1.377 . S
C1193 C1194 1.379 . S
C1194 H1178 0.931 . S
C1194 C1188 1.383 . S
C1194 C1193 1.379 . S
H1195 C1189 0.959 . S
H1196 C1189 0.961 . S
H1197 C1189 0.960 . S
H1198 C1190 0.930 . S
H1199 C1191 0.929 . S
H1200 C1208 0.929 . S
H1201 C1210 0.930 . S
H1202 C1212 0.930 . S
H1203 C1215 0.929 . S
H1204 C1218 0.930 . S
H1205 C1220 0.960 . S
H1206 C1220 0.960 . S
H1207 C1220 0.960 . S
C1208 H1200 0.929 . S
C1208 C1209 1.377 . S
C1208 C1210 1.384 . S
C1209 C1208 1.377 . S
C1209 C1215 1.390 . S
C1210 H1201 0.930 . S
C1210 C1208 1.384 . S
C1210 C1211 1.372 . S
C1211 C1210 1.372 . S
C1211 C1212 1.400 . S
C1211 C1216 1.490 . S
C1212 H1202 0.930 . S
C1212 C1211 1.400 . S
C1212 C1215 1.386 . S
H1213 C1229 0.930 . S
H1214 C1230 0.931 . S
C1215 H1203 0.929 . S
C1215 C1209 1.390 . S
C1215 C1212 1.386 . S
C1216 C1211 1.490 . S
C1216 C1218 1.395 . S
C1216 C1219 1.403 . S
H1217 C1223 0.930 . S
C1218 H1204 0.930 . S
C1218 C1216 1.395 . S
C1218 C1221 1.403 . S
C1219 C1216 1.403 . S
C1219 C1220 1.524 . S
C1219 C1223 1.400 . S
C1220 H1205 0.960 . S
C1220 H1206 0.960 . S
C1220 H1207 0.960 . S
C1220 C1219 1.524 . S
C1221 C1218 1.403 . S
C1221 C1222 1.392 . S
C1221 C1225 1.495 . S
C1222 C1221 1.392 . S
C1222 C1223 1.385 . S
C1222 C1224 1.478 . S
C1223 H1217 0.930 . S
C1223 C1219 1.400 . S
C1223 C1222 1.385 . S
C1224 C1222 1.478 . S
C1224 C1226 1.381 . S
C1224 C1230 1.383 . S
C1225 C1221 1.495 . S
C1225 H1231 0.959 . S
C1225 H1232 0.961 . S
C1225 H1233 0.960 . S
C1226 C1224 1.381 . S
C1226 C1227 1.394 . S
C1226 H1234 0.930 . S
C1227 C1226 1.394 . S
C1227 C1228 1.383 . S
C1227 H1235 0.929 . S
C1228 C1227 1.383 . S
C1228 C1229 1.377 . S
C1229 H1213 0.930 . S
C1229 C1228 1.377 . S
C1229 C1230 1.379 . S
C1230 H1214 0.931 . S
C1230 C1224 1.383 . S
C1230 C1229 1.379 . S
H1231 C1225 0.959 . S
H1232 C1225 0.961 . S
H1233 C1225 0.960 . S
H1234 C1226 0.930 . S
H1235 C1227 0.929 . S
H1236 C1244 0.929 . S
H1237 C1246 0.930 . S
H1238 C1248 0.930 . S
H1239 C1251 0.929 . S
H1240 C1254 0.930 . S
H1241 C1256 0.960 . S
H1242 C1256 0.960 . S
H1243 C1256 0.960 . S
C1244 H1236 0.929 . S
C1244 C1245 1.377 . S
C1244 C1246 1.384 . S
C1245 C1244 1.377 . S
C1245 C1251 1.390 . S
C1246 H1237 0.930 . S
C1246 C1244 1.384 . S
C1246 C1247 1.372 . S
C1247 C1246 1.372 . S
C1247 C1248 1.400 . S
C1247 C1252 1.490 . S
C1248 H1238 0.930 . S
C1248 C1247 1.400 . S
C1248 C1251 1.386 . S
H1249 C1265 0.930 . S
H1250 C1266 0.931 . S
C1251 H1239 0.929 . S
C1251 C1245 1.390 . S
C1251 C1248 1.386 . S
C1252 C1247 1.490 . S
C1252 C1254 1.395 . S
C1252 C1255 1.403 . S
H1253 C1259 0.930 . S
C1254 H1240 0.930 . S
C1254 C1252 1.395 . S
C1254 C1257 1.403 . S
C1255 C1252 1.403 . S
C1255 C1256 1.524 . S
C1255 C1259 1.400 . S
C1256 H1241 0.960 . S
C1256 H1242 0.960 . S
C1256 H1243 0.960 . S
C1256 C1255 1.524 . S
C1257 C1254 1.403 . S
C1257 C1258 1.392 . S
C1257 C1261 1.495 . S
C1258 C1257 1.392 . S
C1258 C1259 1.385 . S
C1258 C1260 1.478 . S
C1259 H1253 0.930 . S
C1259 C1255 1.400 . S
C1259 C1258 1.385 . S
C1260 C1258 1.478 . S
C1260 C1262 1.381 . S
C1260 C1266 1.383 . S
C1261 C1257 1.495 . S
C1261 H1267 0.959 . S
C1261 H1268 0.961 . S
C1261 H1269 0.960 . S
C1262 C1260 1.381 . S
C1262 C1263 1.394 . S
C1262 H1270 0.930 . S
C1263 C1262 1.394 . S
C1263 C1264 1.383 . S
C1263 H1271 0.929 . S
C1264 C1263 1.383 . S
C1264 C1265 1.377 . S
C1265 H1249 0.930 . S
C1265 C1264 1.377 . S
C1265 C1266 1.379 . S
C1266 H1250 0.931 . S
C1266 C1260 1.383 . S
C1266 C1265 1.379 . S
H1267 C1261 0.959 . S
H1268 C1261 0.961 . S
H1269 C1261 0.960 . S
H1270 C1262 0.930 . S
H1271 C1263 0.929 . S
H1272 C1280 0.929 . S
H1273 C1282 0.930 . S
H1274 C1284 0.930 . S
H1275 C1287 0.929 . S
H1276 C1290 0.930 . S
H1277 C1292 0.960 . S
H1278 C1292 0.960 . S
H1279 C1292 0.960 . S
C1280 H1272 0.929 . S
C1280 C1281 1.377 . S
C1280 C1282 1.384 . S
C1281 C1280 1.377 . S
C1281 C1287 1.390 . S
C1282 H1273 0.930 . S
C1282 C1280 1.384 . S
C1282 C1283 1.372 . S
C1283 C1282 1.372 . S
C1283 C1284 1.400 . S
C1283 C1288 1.490 . S
C1284 H1274 0.930 . S
C1284 C1283 1.400 . S
C1284 C1287 1.386 . S
H1285 C1301 0.930 . S
H1286 C1302 0.931 . S
C1287 H1275 0.929 . S
C1287 C1281 1.390 . S
C1287 C1284 1.386 . S
C1288 C1283 1.490 . S
C1288 C1290 1.395 . S
C1288 C1291 1.403 . S
H1289 C1295 0.930 . S
C1290 H1276 0.930 . S
C1290 C1288 1.395 . S
C1290 C1293 1.403 . S
C1291 C1288 1.403 . S
C1291 C1292 1.524 . S
C1291 C1295 1.400 . S
C1292 H1277 0.960 . S
C1292 H1278 0.960 . S
C1292 H1279 0.960 . S
C1292 C1291 1.524 . S
C1293 C1290 1.403 . S
C1293 C1294 1.392 . S
C1293 C1297 1.495 . S
C1294 C1293 1.392 . S
C1294 C1295 1.385 . S
C1294 C1296 1.478 . S
C1295 H1289 0.930 . S
C1295 C1291 1.400 . S
C1295 C1294 1.385 . S
C1296 C1294 1.478 . S
C1296 C1298 1.381 . S
C1296 C1302 1.383 . S
C1297 C1293 1.495 . S
C1297 H1303 0.959 . S
C1297 H1304 0.961 . S
C1297 H1305 0.960 . S
C1298 C1296 1.381 . S
C1298 C1299 1.394 . S
C1298 H1306 0.930 . S
C1299 C1298 1.394 . S
C1299 C1300 1.383 . S
C1299 H1307 0.929 . S
C1300 C1299 1.383 . S
C1300 C1301 1.377 . S
C1301 H1285 0.930 . S
C1301 C1300 1.377 . S
C1301 C1302 1.379 . S
C1302 H1286 0.931 . S
C1302 C1296 1.383 . S
C1302 C1301 1.379 . S
H1303 C1297 0.959 . S
H1304 C1297 0.961 . S
H1305 C1297 0.960 . S
H1306 C1298 0.930 . S
H1307 C1299 0.929 . S
H1308 C1316 0.929 . S
H1309 C1318 0.930 . S
H1310 C1320 0.930 . S
H1311 C1323 0.929 . S
H1312 C1326 0.930 . S
H1313 C1328 0.960 . S
H1314 C1328 0.960 . S
H1315 C1328 0.960 . S
C1316 H1308 0.929 . S
C1316 C1317 1.377 . S
C1316 C1318 1.384 . S
C1317 C1316 1.377 . S
C1317 C1323 1.390 . S
C1318 H1309 0.930 . S
C1318 C1316 1.384 . S
C1318 C1319 1.372 . S
C1319 C1318 1.372 . S
C1319 C1320 1.400 . S
C1319 C1324 1.490 . S
C1320 H1310 0.930 . S
C1320 C1319 1.400 . S
C1320 C1323 1.386 . S
H1321 C1337 0.930 . S
H1322 C1338 0.931 . S
C1323 H1311 0.929 . S
C1323 C1317 1.390 . S
C1323 C1320 1.386 . S
C1324 C1319 1.490 . S
C1324 C1326 1.395 . S
C1324 C1327 1.403 . S
H1325 C1331 0.930 . S
C1326 H1312 0.930 . S
C1326 C1324 1.395 . S
C1326 C1329 1.403 . S
C1327 C1324 1.403 . S
C1327 C1328 1.524 . S
C1327 C1331 1.400 . S
C1328 H1313 0.960 . S
C1328 H1314 0.960 . S
C1328 H1315 0.960 . S
C1328 C1327 1.524 . S
C1329 C1326 1.403 . S
C1329 C1330 1.392 . S
C1329 C1333 1.495 . S
C1330 C1329 1.392 . S
C1330 C1331 1.385 . S
C1330 C1332 1.478 . S
C1331 H1325 0.930 . S
C1331 C1327 1.400 . S
C1331 C1330 1.385 . S
C1332 C1330 1.478 . S
C1332 C1334 1.381 . S
C1332 C1338 1.383 . S
C1333 C1329 1.495 . S
C1333 H1339 0.959 . S
C1333 H1340 0.961 . S
C1333 H1341 0.960 . S
C1334 C1332 1.381 . S
C1334 C1335 1.394 . S
C1334 H1342 0.930 . S
C1335 C1334 1.394 . S
C1335 C1336 1.383 . S
C1335 H1343 0.929 . S
C1336 C1335 1.383 . S
C1336 C1337 1.377 . S
C1337 H1321 0.930 . S
C1337 C1336 1.377 . S
C1337 C1338 1.379 . S
C1338 H1322 0.931 . S
C1338 C1332 1.383 . S
C1338 C1337 1.379 . S
H1339 C1333 0.959 . S
H1340 C1333 0.961 . S
H1341 C1333 0.960 . S
H1342 C1334 0.930 . S
H1343 C1335 0.929 . S
H1344 C1352 0.929 . S
H1345 C1354 0.930 . S
H1346 C1356 0.930 . S
H1347 C1359 0.929 . S
H1348 C1362 0.930 . S
H1349 C1364 0.960 . S
H1350 C1364 0.960 . S
H1351 C1364 0.960 . S
C1352 H1344 0.929 . S
C1352 C1353 1.377 . S
C1352 C1354 1.384 . S
C1353 C1352 1.377 . S
C1353 C1359 1.390 . S
C1354 H1345 0.930 . S
C1354 C1352 1.384 . S
C1354 C1355 1.372 . S
C1355 C1354 1.372 . S
C1355 C1356 1.400 . S
C1355 C1360 1.490 . S
C1356 H1346 0.930 . S
C1356 C1355 1.400 . S
C1356 C1359 1.386 . S
H1357 C1373 0.930 . S
H1358 C1374 0.931 . S
C1359 H1347 0.929 . S
C1359 C1353 1.390 . S
C1359 C1356 1.386 . S
C1360 C1355 1.490 . S
C1360 C1362 1.395 . S
C1360 C1363 1.403 . S
H1361 C1367 0.930 . S
C1362 H1348 0.930 . S
C1362 C1360 1.395 . S
C1362 C1365 1.403 . S
C1363 C1360 1.403 . S
C1363 C1364 1.524 . S
C1363 C1367 1.400 . S
C1364 H1349 0.960 . S
C1364 H1350 0.960 . S
C1364 H1351 0.960 . S
C1364 C1363 1.524 . S
C1365 C1362 1.403 . S
C1365 C1366 1.392 . S
C1365 C1369 1.495 . S
C1366 C1365 1.392 . S
C1366 C1367 1.385 . S
C1366 C1368 1.478 . S
C1367 H1361 0.930 . S
C1367 C1363 1.400 . S
C1367 C1366 1.385 . S
C1368 C1366 1.478 . S
C1368 C1370 1.381 . S
C1368 C1374 1.383 . S
C1369 C1365 1.495 . S
C1369 H1375 0.959 . S
C1369 H1376 0.961 . S
C1369 H1377 0.960 . S
C1370 C1368 1.381 . S
C1370 C1371 1.394 . S
C1370 H1378 0.930 . S
C1371 C1370 1.394 . S
C1371 C1372 1.383 . S
C1371 H1379 0.929 . S
C1372 C1371 1.383 . S
C1372 C1373 1.377 . S
C1373 H1357 0.930 . S
C1373 C1372 1.377 . S
C1373 C1374 1.379 . S
C1374 H1358 0.931 . S
C1374 C1368 1.383 . S
C1374 C1373 1.379 . S
H1375 C1369 0.959 . S
H1376 C1369 0.961 . S
H1377 C1369 0.960 . S
H1378 C1370 0.930 . S
H1379 C1371 0.929 . S
H1380 C1388 0.929 . S
H1381 C1390 0.930 . S
H1382 C1392 0.930 . S
H1383 C1395 0.929 . S
H1384 C1398 0.930 . S
H1385 C1400 0.960 . S
H1386 C1400 0.960 . S
H1387 C1400 0.960 . S
C1388 H1380 0.929 . S
C1388 C1389 1.377 . S
C1388 C1390 1.384 . S
C1389 C1388 1.377 . S
C1389 C1395 1.390 . S
C1390 H1381 0.930 . S
C1390 C1388 1.384 . S
C1390 C1391 1.372 . S
C1391 C1390 1.372 . S
C1391 C1392 1.400 . S
C1391 C1396 1.490 . S
C1392 H1382 0.930 . S
C1392 C1391 1.400 . S
C1392 C1395 1.386 . S
H1393 C1409 0.930 . S
H1394 C1410 0.931 . S
C1395 H1383 0.929 . S
C1395 C1389 1.390 . S
C1395 C1392 1.386 . S
C1396 C1391 1.490 . S
C1396 C1398 1.395 . S
C1396 C1399 1.403 . S
H1397 C1403 0.930 . S
C1398 H1384 0.930 . S
C1398 C1396 1.395 . S
C1398 C1401 1.403 . S
C1399 C1396 1.403 . S
C1399 C1400 1.524 . S
C1399 C1403 1.400 . S
C1400 H1385 0.960 . S
C1400 H1386 0.960 . S
C1400 H1387 0.960 . S
C1400 C1399 1.524 . S
C1401 C1398 1.403 . S
C1401 C1402 1.392 . S
C1401 C1405 1.495 . S
C1402 C1401 1.392 . S
C1402 C1403 1.385 . S
C1402 C1404 1.478 . S
C1403 H1397 0.930 . S
C1403 C1399 1.400 . S
C1403 C1402 1.385 . S
C1404 C1402 1.478 . S
C1404 C1406 1.381 . S
C1404 C1410 1.383 . S
C1405 C1401 1.495 . S
C1405 H1411 0.959 . S
C1405 H1412 0.961 . S
C1405 H1413 0.960 . S
C1406 C1404 1.381 . S
C1406 C1407 1.394 . S
C1406 H1414 0.930 . S
C1407 C1406 1.394 . S
C1407 C1408 1.383 . S
C1407 H1415 0.929 . S
C1408 C1407 1.383 . S
C1408 C1409 1.377 . S
C1409 H1393 0.930 . S
C1409 C1408 1.377 . S
C1409 C1410 1.379 . S
C1410 H1394 0.931 . S
C1410 C1404 1.383 . S
C1410 C1409 1.379 . S
H1411 C1405 0.959 . S
H1412 C1405 0.961 . S
H1413 C1405 0.960 . S
H1414 C1406 0.930 . S
H1415 C1407 0.929 . S
H1416 C1424 0.929 . S
H1417 C1426 0.930 . S
H1418 C1428 0.930 . S
H1419 C1431 0.929 . S
H1420 C1434 0.930 . S
H1421 C1436 0.960 . S
H1422 C1436 0.960 . S
H1423 C1436 0.960 . S
C1424 H1416 0.929 . S
C1424 C1425 1.377 . S
C1424 C1426 1.384 . S
C1425 C1424 1.377 . S
C1425 C1431 1.390 . S
C1426 H1417 0.930 . S
C1426 C1424 1.384 . S
C1426 C1427 1.372 . S
C1427 C1426 1.372 . S
C1427 C1428 1.400 . S
C1427 C1432 1.490 . S
C1428 H1418 0.930 . S
C1428 C1427 1.400 . S
C1428 C1431 1.386 . S
H1429 C1445 0.930 . S
H1430 C1446 0.931 . S
C1431 H1419 0.929 . S
C1431 C1425 1.390 . S
C1431 C1428 1.386 . S
C1432 C1427 1.490 . S
C1432 C1434 1.395 . S
C1432 C1435 1.403 . S
H1433 C1439 0.930 . S
C1434 H1420 0.930 . S
C1434 C1432 1.395 . S
C1434 C1437 1.403 . S
C1435 C1432 1.403 . S
C1435 C1436 1.524 . S
C1435 C1439 1.400 . S
C1436 H1421 0.960 . S
C1436 H1422 0.960 . S
C1436 H1423 0.960 . S
C1436 C1435 1.524 . S
C1437 C1434 1.403 . S
C1437 C1438 1.392 . S
C1437 C1441 1.495 . S
C1438 C1437 1.392 . S
C1438 C1439 1.385 . S
C1438 C1440 1.478 . S
C1439 H1433 0.930 . S
C1439 C1435 1.400 . S
C1439 C1438 1.385 . S
C1440 C1438 1.478 . S
C1440 C1442 1.381 . S
C1440 C1446 1.383 . S
C1441 C1437 1.495 . S
C1441 H1447 0.959 . S
C1441 H1448 0.961 . S
C1441 H1449 0.960 . S
C1442 C1440 1.381 . S
C1442 C1443 1.394 . S
C1442 H1450 0.930 . S
C1443 C1442 1.394 . S
C1443 C1444 1.383 . S
C1443 H1451 0.929 . S
C1444 C1443 1.383 . S
C1444 C1445 1.377 . S
C1445 H1429 0.930 . S
C1445 C1444 1.377 . S
C1445 C1446 1.379 . S
C1446 H1430 0.931 . S
C1446 C1440 1.383 . S
C1446 C1445 1.379 . S
H1447 C1441 0.959 . S
H1448 C1441 0.961 . S
H1449 C1441 0.960 . S
H1450 C1442 0.930 . S
H1451 C1443 0.929 . S
H1452 C1460 0.929 . S
H1453 C1462 0.930 . S
H1454 C1464 0.930 . S
H1455 C1467 0.929 . S
H1456 C1470 0.930 . S
H1457 C1472 0.960 . S
H1458 C1472 0.960 . S
H1459 C1472 0.960 . S
C1460 H1452 0.929 . S
C1460 C1461 1.377 . S
C1460 C1462 1.384 . S
C1461 C1460 1.377 . S
C1461 C1467 1.390 . S
C1462 H1453 0.930 . S
C1462 C1460 1.384 . S
C1462 C1463 1.372 . S
C1463 C1462 1.372 . S
C1463 C1464 1.400 . S
C1463 C1468 1.490 . S
C1464 H1454 0.930 . S
C1464 C1463 1.400 . S
C1464 C1467 1.386 . S
H1465 C1481 0.930 . S
H1466 C1482 0.931 . S
C1467 H1455 0.929 . S
C1467 C1461 1.390 . S
C1467 C1464 1.386 . S
C1468 C1463 1.490 . S
C1468 C1470 1.395 . S
C1468 C1471 1.403 . S
H1469 C1475 0.930 . S
C1470 H1456 0.930 . S
C1470 C1468 1.395 . S
C1470 C1473 1.403 . S
C1471 C1468 1.403 . S
C1471 C1472 1.524 . S
C1471 C1475 1.400 . S
C1472 H1457 0.960 . S
C1472 H1458 0.960 . S
C1472 H1459 0.960 . S
C1472 C1471 1.524 . S
C1473 C1470 1.403 . S
C1473 C1474 1.392 . S
C1473 C1477 1.495 . S
C1474 C1473 1.392 . S
C1474 C1475 1.385 . S
C1474 C1476 1.478 . S
C1475 H1469 0.930 . S
C1475 C1471 1.400 . S
C1475 C1474 1.385 . S
C1476 C1474 1.478 . S
C1476 C1478 1.381 . S
C1476 C1482 1.383 . S
C1477 C1473 1.495 . S
C1477 H1483 0.959 . S
C1477 H1484 0.961 . S
C1477 H1485 0.960 . S
C1478 C1476 1.381 . S
C1478 C1479 1.394 . S
C1478 H1486 0.930 . S
C1479 C1478 1.394 . S
C1479 C1480 1.383 . S
C1479 H1487 0.929 . S
C1480 C1479 1.383 . S
C1480 C1481 1.377 . S
C1481 H1465 0.930 . S
C1481 C1480 1.377 . S
C1481 C1482 1.379 . S
C1482 H1466 0.931 . S
C1482 C1476 1.383 . S
C1482 C1481 1.379 . S
H1483 C1477 0.959 . S
H1484 C1477 0.961 . S
H1485 C1477 0.960 . S
H1486 C1478 0.930 . S
H1487 C1479 0.929 . S
H1488 C1496 0.929 . S
H1489 C1498 0.930 . S
H1490 C1500 0.930 . S
H1491 C1503 0.929 . S
H1492 C1506 0.930 . S
H1493 C1508 0.960 . S
H1494 C1508 0.960 . S
H1495 C1508 0.960 . S
C1496 H1488 0.929 . S
C1496 C1497 1.377 . S
C1496 C1498 1.384 . S
C1497 C1496 1.377 . S
C1497 C1503 1.390 . S
C1498 H1489 0.930 . S
C1498 C1496 1.384 . S
C1498 C1499 1.372 . S
C1499 C1498 1.372 . S
C1499 C1500 1.400 . S
C1499 C1504 1.490 . S
C1500 H1490 0.930 . S
C1500 C1499 1.400 . S
C1500 C1503 1.386 . S
H1501 C1517 0.930 . S
H1502 C1518 0.931 . S
C1503 H1491 0.929 . S
C1503 C1497 1.390 . S
C1503 C1500 1.386 . S
C1504 C1499 1.490 . S
C1504 C1506 1.395 . S
C1504 C1507 1.403 . S
H1505 C1511 0.930 . S
C1506 H1492 0.930 . S
C1506 C1504 1.395 . S
C1506 C1509 1.403 . S
C1507 C1504 1.403 . S
C1507 C1508 1.524 . S
C1507 C1511 1.400 . S
C1508 H1493 0.960 . S
C1508 H1494 0.960 . S
C1508 H1495 0.960 . S
C1508 C1507 1.524 . S
C1509 C1506 1.403 . S
C1509 C1510 1.392 . S
C1509 C1513 1.495 . S
C1510 C1509 1.392 . S
C1510 C1511 1.385 . S
C1510 C1512 1.478 . S
C1511 H1505 0.930 . S
C1511 C1507 1.400 . S
C1511 C1510 1.385 . S
C1512 C1510 1.478 . S
C1512 C1514 1.381 . S
C1512 C1518 1.383 . S
C1513 C1509 1.495 . S
C1513 H1519 0.959 . S
C1513 H1520 0.961 . S
C1513 H1521 0.960 . S
C1514 C1512 1.381 . S
C1514 C1515 1.394 . S
C1514 H1522 0.930 . S
C1515 C1514 1.394 . S
C1515 C1516 1.383 . S
C1515 H1523 0.929 . S
C1516 C1515 1.383 . S
C1516 C1517 1.377 . S
C1517 H1501 0.930 . S
C1517 C1516 1.377 . S
C1517 C1518 1.379 . S
C1518 H1502 0.931 . S
C1518 C1512 1.383 . S
C1518 C1517 1.379 . S
H1519 C1513 0.959 . S
H1520 C1513 0.961 . S
H1521 C1513 0.960 . S
H1522 C1514 0.930 . S
H1523 C1515 0.929 . S
H1524 C1532 0.929 . S
H1525 C1534 0.930 . S
H1526 C1536 0.930 . S
H1527 C1539 0.929 . S
H1528 C1542 0.930 . S
H1529 C1544 0.960 . S
H1530 C1544 0.960 . S
H1531 C1544 0.960 . S
C1532 H1524 0.929 . S
C1532 C1533 1.377 . S
C1532 C1534 1.384 . S
C1533 C1532 1.377 . S
C1533 C1539 1.390 . S
C1534 H1525 0.930 . S
C1534 C1532 1.384 . S
C1534 C1535 1.372 . S
C1535 C1534 1.372 . S
C1535 C1536 1.400 . S
C1535 C1540 1.490 . S
C1536 H1526 0.930 . S
C1536 C1535 1.400 . S
C1536 C1539 1.386 . S
H1537 C1553 0.930 . S
H1538 C1554 0.931 . S
C1539 H1527 0.929 . S
C1539 C1533 1.390 . S
C1539 C1536 1.386 . S
C1540 C1535 1.490 . S
C1540 C1542 1.395 . S
C1540 C1543 1.403 . S
H1541 C1547 0.930 . S
C1542 H1528 0.930 . S
C1542 C1540 1.395 . S
C1542 C1545 1.403 . S
C1543 C1540 1.403 . S
C1543 C1544 1.524 . S
C1543 C1547 1.400 . S
C1544 H1529 0.960 . S
C1544 H1530 0.960 . S
C1544 H1531 0.960 . S
C1544 C1543 1.524 . S
C1545 C1542 1.403 . S
C1545 C1546 1.392 . S
C1545 C1549 1.495 . S
C1546 C1545 1.392 . S
C1546 C1547 1.385 . S
C1546 C1548 1.478 . S
C1547 H1541 0.930 . S
C1547 C1543 1.400 . S
C1547 C1546 1.385 . S
C1548 C1546 1.478 . S
C1548 C1550 1.381 . S
C1548 C1554 1.383 . S
C1549 C1545 1.495 . S
C1549 H1555 0.959 . S
C1549 H1556 0.961 . S
C1549 H1557 0.960 . S
C1550 C1548 1.381 . S
C1550 C1551 1.394 . S
C1550 H1558 0.930 . S
C1551 C1550 1.394 . S
C1551 C1552 1.383 . S
C1551 H1559 0.929 . S
C1552 C1551 1.383 . S
C1552 C1553 1.377 . S
C1553 H1537 0.930 . S
C1553 C1552 1.377 . S
C1553 C1554 1.379 . S
C1554 H1538 0.931 . S
C1554 C1548 1.383 . S
C1554 C1553 1.379 . S
H1555 C1549 0.959 . S
H1556 C1549 0.961 . S
H1557 C1549 0.960 . S
H1558 C1550 0.930 . S
H1559 C1551 0.929 . S
H1560 C1568 0.929 . S
H1561 C1570 0.930 . S
H1562 C1572 0.930 . S
H1563 C1575 0.929 . S
H1564 C1578 0.930 . S
H1565 C1580 0.960 . S
H1566 C1580 0.960 . S
H1567 C1580 0.960 . S
C1568 H1560 0.929 . S
C1568 C1569 1.377 . S
C1568 C1570 1.384 . S
C1569 C1568 1.377 . S
C1569 C1575 1.390 . S
C1570 H1561 0.930 . S
C1570 C1568 1.384 . S
C1570 C1571 1.372 . S
C1571 C1570 1.372 . S
C1571 C1572 1.400 . S
C1571 C1576 1.490 . S
C1572 H1562 0.930 . S
C1572 C1571 1.400 . S
C1572 C1575 1.386 . S
H1573 C1589 0.930 . S
H1574 C1590 0.931 . S
C1575 H1563 0.929 . S
C1575 C1569 1.390 . S
C1575 C1572 1.386 . S
C1576 C1571 1.490 . S
C1576 C1578 1.395 . S
C1576 C1579 1.403 . S
H1577 C1583 0.930 . S
C1578 H1564 0.930 . S
C1578 C1576 1.395 . S
C1578 C1581 1.403 . S
C1579 C1576 1.403 . S
C1579 C1580 1.524 . S
C1579 C1583 1.400 . S
C1580 H1565 0.960 . S
C1580 H1566 0.960 . S
C1580 H1567 0.960 . S
C1580 C1579 1.524 . S
C1581 C1578 1.403 . S
C1581 C1582 1.392 . S
C1581 C1585 1.495 . S
C1582 C1581 1.392 . S
C1582 C1583 1.385 . S
C1582 C1584 1.478 . S
C1583 H1577 0.930 . S
C1583 C1579 1.400 . S
C1583 C1582 1.385 . S
C1584 C1582 1.478 . S
C1584 C1586 1.381 . S
C1584 C1590 1.383 . S
C1585 C1581 1.495 . S
C1585 H1591 0.959 . S
C1585 H1592 0.961 . S
C1585 H1593 0.960 . S
C1586 C1584 1.381 . S
C1586 C1587 1.394 . S
C1586 H1594 0.930 . S
C1587 C1586 1.394 . S
C1587 C1588 1.383 . S
C1587 H1595 0.929 . S
C1588 C1587 1.383 . S
C1588 C1589 1.377 . S
C1589 H1573 0.930 . S
C1589 C1588 1.377 . S
C1589 C1590 1.379 . S
C1590 H1574 0.931 . S
C1590 C1584 1.383 . S
C1590 C1589 1.379 . S
H1591 C1585 0.959 . S
H1592 C1585 0.961 . S
H1593 C1585 0.960 . S
H1594 C1586 0.930 . S
H1595 C1587 0.929 . S
H1596 C1604 0.929 . S
H1597 C1606 0.930 . S
H1598 C1608 0.930 . S
H1599 C1611 0.929 . S
H1600 C1614 0.930 . S
H1601 C1616 0.960 . S
H1602 C1616 0.960 . S
H1603 C1616 0.960 . S
C1604 H1596 0.929 . S
C1604 C1605 1.377 . S
C1604 C1606 1.384 . S
C1605 C1604 1.377 . S
C1605 C1611 1.390 . S
C1606 H1597 0.930 . S
C1606 C1604 1.384 . S
C1606 C1607 1.372 . S
C1607 C1606 1.372 . S
C1607 C1608 1.400 . S
C1607 C1612 1.490 . S
C1608 H1598 0.930 . S
C1608 C1607 1.400 . S
C1608 C1611 1.386 . S
H1609 C1625 0.930 . S
H1610 C1626 0.931 . S
C1611 H1599 0.929 . S
C1611 C1605 1.390 . S
C1611 C1608 1.386 . S
C1612 C1607 1.490 . S
C1612 C1614 1.395 . S
C1612 C1615 1.403 . S
H1613 C1619 0.930 . S
C1614 H1600 0.930 . S
C1614 C1612 1.395 . S
C1614 C1617 1.403 . S
C1615 C1612 1.403 . S
C1615 C1616 1.524 . S
C1615 C1619 1.400 . S
C1616 H1601 0.960 . S
C1616 H1602 0.960 . S
C1616 H1603 0.960 . S
C1616 C1615 1.524 . S
C1617 C1614 1.403 . S
C1617 C1618 1.392 . S
C1617 C1621 1.495 . S
C1618 C1617 1.392 . S
C1618 C1619 1.385 . S
C1618 C1620 1.478 . S
C1619 H1613 0.930 . S
C1619 C1615 1.400 . S
C1619 C1618 1.385 . S
C1620 C1618 1.478 . S
C1620 C1622 1.381 . S
C1620 C1626 1.383 . S
C1621 C1617 1.495 . S
C1621 H1627 0.959 . S
C1621 H1628 0.961 . S
C1621 H1629 0.960 . S
C1622 C1620 1.381 . S
C1622 C1623 1.394 . S
C1622 H1630 0.930 . S
C1623 C1622 1.394 . S
C1623 C1624 1.383 . S
C1623 H1631 0.929 . S
C1624 C1623 1.383 . S
C1624 C1625 1.377 . S
C1625 H1609 0.930 . S
C1625 C1624 1.377 . S
C1625 C1626 1.379 . S
C1626 H1610 0.931 . S
C1626 C1620 1.383 . S
C1626 C1625 1.379 . S
H1627 C1621 0.959 . S
H1628 C1621 0.961 . S
H1629 C1621 0.960 . S
H1630 C1622 0.930 . S
H1631 C1623 0.929 . S
H1632 C1640 0.929 . S
H1633 C1642 0.930 . S
H1634 C1644 0.930 . S
H1635 C1647 0.929 . S
H1636 C1650 0.930 . S
H1637 C1652 0.960 . S
H1638 C1652 0.960 . S
H1639 C1652 0.960 . S
C1640 H1632 0.929 . S
C1640 C1641 1.377 . S
C1640 C1642 1.384 . S
C1641 C1640 1.377 . S
C1641 C1647 1.390 . S
C1642 H1633 0.930 . S
C1642 C1640 1.384 . S
C1642 C1643 1.372 . S
C1643 C1642 1.372 . S
C1643 C1644 1.400 . S
C1643 C1648 1.490 . S
C1644 H1634 0.930 . S
C1644 C1643 1.400 . S
C1644 C1647 1.386 . S
H1645 C1661 0.930 . S
H1646 C1662 0.931 . S
C1647 H1635 0.929 . S
C1647 C1641 1.390 . S
C1647 C1644 1.386 . S
C1648 C1643 1.490 . S
C1648 C1650 1.395 . S
C1648 C1651 1.403 . S
H1649 C1655 0.930 . S
C1650 H1636 0.930 . S
C1650 C1648 1.395 . S
C1650 C1653 1.403 . S
C1651 C1648 1.403 . S
C1651 C1652 1.524 . S
C1651 C1655 1.400 . S
C1652 H1637 0.960 . S
C1652 H1638 0.960 . S
C1652 H1639 0.960 . S
C1652 C1651 1.524 . S
C1653 C1650 1.403 . S
C1653 C1654 1.392 . S
C1653 C1657 1.495 . S
C1654 C1653 1.392 . S
C1654 C1655 1.385 . S
C1654 C1656 1.478 . S
C1655 H1649 0.930 . S
C1655 C1651 1.400 . S
C1655 C1654 1.385 . S
C1656 C1654 1.478 . S
C1656 C1658 1.381 . S
C1656 C1662 1.383 . S
C1657 C1653 1.495 . S
C1657 H1663 0.959 . S
C1657 H1664 0.961 . S
C1657 H1665 0.960 . S
C1658 C1656 1.381 . S
C1658 C1659 1.394 . S
C1658 H1666 0.930 . S
C1659 C1658 1.394 . S
C1659 C1660 1.383 . S
C1659 H1667 0.929 . S
C1660 C1659 1.383 . S
C1660 C1661 1.377 . S
C1661 H1645 0.930 . S
C1661 C1660 1.377 . S
C1661 C1662 1.379 . S
C1662 H1646 0.931 . S
C1662 C1656 1.383 . S
C1662 C1661 1.379 . S
H1663 C1657 0.959 . S
H1664 C1657 0.961 . S
H1665 C1657 0.960 . S
H1666 C1658 0.930 . S
H1667 C1659 0.929 . S
H1668 C1676 0.929 . S
H1669 C1678 0.930 . S
H1670 C1680 0.930 . S
H1671 C1683 0.929 . S
H1672 C1686 0.930 . S
H1673 C1688 0.960 . S
H1674 C1688 0.960 . S
H1675 C1688 0.960 . S
C1676 H1668 0.929 . S
C1676 C1677 1.377 . S
C1676 C1678 1.384 . S
C1677 C1676 1.377 . S
C1677 C1683 1.390 . S
C1678 H1669 0.930 . S
C1678 C1676 1.384 . S
C1678 C1679 1.372 . S
C1679 C1678 1.372 . S
C1679 C1680 1.400 . S
C1679 C1684 1.490 . S
C1680 H1670 0.930 . S
C1680 C1679 1.400 . S
C1680 C1683 1.386 . S
H1681 C1697 0.930 . S
H1682 C1698 0.931 . S
C1683 H1671 0.929 . S
C1683 C1677 1.390 . S
C1683 C1680 1.386 . S
C1684 C1679 1.490 . S
C1684 C1686 1.395 . S
C1684 C1687 1.403 . S
H1685 C1691 0.930 . S
C1686 H1672 0.930 . S
C1686 C1684 1.395 . S
C1686 C1689 1.403 . S
C1687 C1684 1.403 . S
C1687 C1688 1.524 . S
C1687 C1691 1.400 . S
C1688 H1673 0.960 . S
C1688 H1674 0.960 . S
C1688 H1675 0.960 . S
C1688 C1687 1.524 . S
C1689 C1686 1.403 . S
C1689 C1690 1.392 . S
C1689 C1693 1.495 . S
C1690 C1689 1.392 . S
C1690 C1691 1.385 . S
C1690 C1692 1.478 . S
C1691 H1685 0.930 . S
C1691 C1687 1.400 . S
C1691 C1690 1.385 . S
C1692 C1690 1.478 . S
C1692 C1694 1.381 . S
C1692 C1698 1.383 . S
C1693 C1689 1.495 . S
C1693 H1699 0.959 . S
C1693 H1700 0.961 . S
C1693 H1701 0.960 . S
C1694 C1692 1.381 . S
C1694 C1695 1.394 . S
C1694 H1702 0.930 . S
C1695 C1694 1.394 . S
C1695 C1696 1.383 . S
C1695 H1703 0.929 . S
C1696 C1695 1.383 . S
C1696 C1697 1.377 . S
C1697 H1681 0.930 . S
C1697 C1696 1.377 . S
C1697 C1698 1.379 . S
C1698 H1682 0.931 . S
C1698 C1692 1.383 . S
C1698 C1697 1.379 . S
H1699 C1693 0.959 . S
H1700 C1693 0.961 . S
H1701 C1693 0.960 . S
H1702 C1694 0.930 . S
H1703 C1695 0.929 . S
H1704 C1712 0.929 . S
H1705 C1714 0.930 . S
H1706 C1716 0.930 . S
H1707 C1719 0.929 . S
H1708 C1722 0.930 . S
H1709 C1724 0.960 . S
H1710 C1724 0.960 . S
H1711 C1724 0.960 . S
C1712 H1704 0.929 . S
C1712 C1713 1.377 . S
C1712 C1714 1.384 . S
C1713 C1712 1.377 . S
C1713 C1719 1.390 . S
C1714 H1705 0.930 . S
C1714 C1712 1.384 . S
C1714 C1715 1.372 . S
C1715 C1714 1.372 . S
C1715 C1716 1.400 . S
C1715 C1720 1.490 . S
C1716 H1706 0.930 . S
C1716 C1715 1.400 . S
C1716 C1719 1.386 . S
H1717 C1733 0.930 . S
H1718 C1734 0.931 . S
C1719 H1707 0.929 . S
C1719 C1713 1.390 . S
C1719 C1716 1.386 . S
C1720 C1715 1.490 . S
C1720 C1722 1.395 . S
C1720 C1723 1.403 . S
H1721 C1727 0.930 . S
C1722 H1708 0.930 . S
C1722 C1720 1.395 . S
C1722 C1725 1.403 . S
C1723 C1720 1.403 . S
C1723 C1724 1.524 . S
C1723 C1727 1.400 . S
C1724 H1709 0.960 . S
C1724 H1710 0.960 . S
C1724 H1711 0.960 . S
C1724 C1723 1.524 . S
C1725 C1722 1.403 . S
C1725 C1726 1.392 . S
C1725 C1729 1.495 . S
C1726 C1725 1.392 . S
C1726 C1727 1.385 . S
C1726 C1728 1.478 . S
C1727 H1721 0.930 . S
C1727 C1723 1.400 . S
C1727 C1726 1.385 . S
C1728 C1726 1.478 . S
C1728 C1730 1.381 . S
C1728 C1734 1.383 . S
C1729 C1725 1.495 . S
C1729 H1735 0.959 . S
C1729 H1736 0.961 . S
C1729 H1737 0.960 . S
C1730 C1728 1.381 . S
C1730 C1731 1.394 . S
C1730 H1738 0.930 . S
C1731 C1730 1.394 . S
C1731 C1732 1.383 . S
C1731 H1739 0.929 . S
C1732 C1731 1.383 . S
C1732 C1733 1.377 . S
C1733 H1717 0.930 . S
C1733 C1732 1.377 . S
C1733 C1734 1.379 . S
C1734 H1718 0.931 . S
C1734 C1728 1.383 . S
C1734 C1733 1.379 . S
H1735 C1729 0.959 . S
H1736 C1729 0.961 . S
H1737 C1729 0.960 . S
H1738 C1730 0.930 . S
H1739 C1731 0.929 . S
H1740 C1748 0.929 . S
H1741 C1750 0.930 . S
H1742 C1752 0.930 . S
H1743 C1755 0.929 . S
H1744 C1758 0.930 . S
H1745 C1760 0.960 . S
H1746 C1760 0.960 . S
H1747 C1760 0.960 . S
C1748 H1740 0.929 . S
C1748 C1749 1.377 . S
C1748 C1750 1.384 . S
C1749 C1748 1.377 . S
C1749 C1755 1.390 . S
C1750 H1741 0.930 . S
C1750 C1748 1.384 . S
C1750 C1751 1.372 . S
C1751 C1750 1.372 . S
C1751 C1752 1.400 . S
C1751 C1756 1.490 . S
C1752 H1742 0.930 . S
C1752 C1751 1.400 . S
C1752 C1755 1.386 . S
H1753 C1769 0.930 . S
H1754 C1770 0.931 . S
C1755 H1743 0.929 . S
C1755 C1749 1.390 . S
C1755 C1752 1.386 . S
C1756 C1751 1.490 . S
C1756 C1758 1.395 . S
C1756 C1759 1.403 . S
H1757 C1763 0.930 . S
C1758 H1744 0.930 . S
C1758 C1756 1.395 . S
C1758 C1761 1.403 . S
C1759 C1756 1.403 . S
C1759 C1760 1.524 . S
C1759 C1763 1.400 . S
C1760 H1745 0.960 . S
C1760 H1746 0.960 . S
C1760 H1747 0.960 . S
C1760 C1759 1.524 . S
C1761 C1758 1.403 . S
C1761 C1762 1.392 . S
C1761 C1765 1.495 . S
C1762 C1761 1.392 . S
C1762 C1763 1.385 . S
C1762 C1764 1.478 . S
C1763 H1757 0.930 . S
C1763 C1759 1.400 . S
C1763 C1762 1.385 . S
C1764 C1762 1.478 . S
C1764 C1766 1.381 . S
C1764 C1770 1.383 . S
C1765 C1761 1.495 . S
C1765 H1771 0.959 . S
C1765 H1772 0.961 . S
C1765 H1773 0.960 . S
C1766 C1764 1.381 . S
C1766 C1767 1.394 . S
C1766 H1774 0.930 . S
C1767 C1766 1.394 . S
C1767 C1768 1.383 . S
C1767 H1775 0.929 . S
C1768 C1767 1.383 . S
C1768 C1769 1.377 . S
C1769 H1753 0.930 . S
C1769 C1768 1.377 . S
C1769 C1770 1.379 . S
C1770 H1754 0.931 . S
C1770 C1764 1.383 . S
C1770 C1769 1.379 . S
H1771 C1765 0.959 . S
H1772 C1765 0.961 . S
H1773 C1765 0.960 . S
H1774 C1766 0.930 . S
H1775 C1767 0.929 . S
H1776 C1784 0.929 . S
H1777 C1786 0.930 . S
H1778 C1788 0.930 . S
H1779 C1791 0.929 . S
H1780 C1794 0.930 . S
H1781 C1796 0.960 . S
H1782 C1796 0.960 . S
H1783 C1796 0.960 . S
C1784 H1776 0.929 . S
C1784 C1785 1.377 . S
C1784 C1786 1.384 . S
C1785 C1784 1.377 . S
C1785 C1791 1.390 . S
C1786 H1777 0.930 . S
C1786 C1784 1.384 . S
C1786 C1787 1.372 . S
C1787 C1786 1.372 . S
C1787 C1788 1.400 . S
C1787 C1792 1.490 . S
C1788 H1778 0.930 . S
C1788 C1787 1.400 . S
C1788 C1791 1.386 . S
H1789 C1805 0.930 . S
H1790 C1806 0.931 . S
C1791 H1779 0.929 . S
C1791 C1785 1.390 . S
C1791 C1788 1.386 . S
C1792 C1787 1.490 . S
C1792 C1794 1.395 . S
C1792 C1795 1.403 . S
H1793 C1799 0.930 . S
C1794 H1780 0.930 . S
C1794 C1792 1.395 . S
C1794 C1797 1.403 . S
C1795 C1792 1.403 . S
C1795 C1796 1.524 . S
C1795 C1799 1.400 . S
C1796 H1781 0.960 . S
C1796 H1782 0.960 . S
C1796 H1783 0.960 . S
C1796 C1795 1.524 . S
C1797 C1794 1.403 . S
C1797 C1798 1.392 . S
C1797 C1801 1.495 . S
C1798 C1797 1.392 . S
C1798 C1799 1.385 . S
C1798 C1800 1.478 . S
C1799 H1793 0.930 . S
C1799 C1795 1.400 . S
C1799 C1798 1.385 . S
C1800 C1798 1.478 . S
C1800 C1802 1.381 . S
C1800 C1806 1.383 . S
C1801 C1797 1.495 . S
C1801 H1807 0.959 . S
C1801 H1808 0.961 . S
C1801 H1809 0.960 . S
C1802 C1800 1.381 . S
C1802 C1803 1.394 . S
C1802 H1810 0.930 . S
C1803 C1802 1.394 . S
C1803 C1804 1.383 . S
C1803 H1811 0.929 . S
C1804 C1803 1.383 . S
C1804 C1805 1.377 . S
C1805 H1789 0.930 . S
C1805 C1804 1.377 . S
C1805 C1806 1.379 . S
C1806 H1790 0.931 . S
C1806 C1800 1.383 . S
C1806 C1805 1.379 . S
H1807 C1801 0.959 . S
H1808 C1801 0.961 . S
H1809 C1801 0.960 . S
H1810 C1802 0.930 . S
H1811 C1803 0.929 . S
H1812 C1820 0.929 . S
H1813 C1822 0.930 . S
H1814 C1824 0.930 . S
H1815 C1827 0.929 . S
H1816 C1830 0.930 . S
H1817 C1832 0.960 . S
H1818 C1832 0.960 . S
H1819 C1832 0.960 . S
C1820 H1812 0.929 . S
C1820 C1821 1.377 . S
C1820 C1822 1.384 . S
C1821 C1820 1.377 . S
C1821 C1827 1.390 . S
C1822 H1813 0.930 . S
C1822 C1820 1.384 . S
C1822 C1823 1.372 . S
C1823 C1822 1.372 . S
C1823 C1824 1.400 . S
C1823 C1828 1.490 . S
C1824 H1814 0.930 . S
C1824 C1823 1.400 . S
C1824 C1827 1.386 . S
H1825 C1841 0.930 . S
H1826 C1842 0.931 . S
C1827 H1815 0.929 . S
C1827 C1821 1.390 . S
C1827 C1824 1.386 . S
C1828 C1823 1.490 . S
C1828 C1830 1.395 . S
C1828 C1831 1.403 . S
H1829 C1835 0.930 . S
C1830 H1816 0.930 . S
C1830 C1828 1.395 . S
C1830 C1833 1.403 . S
C1831 C1828 1.403 . S
C1831 C1832 1.524 . S
C1831 C1835 1.400 . S
C1832 H1817 0.960 . S
C1832 H1818 0.960 . S
C1832 H1819 0.960 . S
C1832 C1831 1.524 . S
C1833 C1830 1.403 . S
C1833 C1834 1.392 . S
C1833 C1837 1.495 . S
C1834 C1833 1.392 . S
C1834 C1835 1.385 . S
C1834 C1836 1.478 . S
C1835 H1829 0.930 . S
C1835 C1831 1.400 . S
C1835 C1834 1.385 . S
C1836 C1834 1.478 . S
C1836 C1838 1.381 . S
C1836 C1842 1.383 . S
C1837 C1833 1.495 . S
C1837 H1843 0.959 . S
C1837 H1844 0.961 . S
C1837 H1845 0.960 . S
C1838 C1836 1.381 . S
C1838 C1839 1.394 . S
C1838 H1846 0.930 . S
C1839 C1838 1.394 . S
C1839 C1840 1.383 . S
C1839 H1847 0.929 . S
C1840 C1839 1.383 . S
C1840 C1841 1.377 . S
C1841 H1825 0.930 . S
C1841 C1840 1.377 . S
C1841 C1842 1.379 . S
C1842 H1826 0.931 . S
C1842 C1836 1.383 . S
C1842 C1841 1.379 . S
H1843 C1837 0.959 . S
H1844 C1837 0.961 . S
H1845 C1837 0.960 . S
H1846 C1838 0.930 . S
H1847 C1839 0.929 . S
H1848 C1856 0.929 . S
H1849 C1858 0.930 . S
H1850 C1860 0.930 . S
H1851 C1863 0.929 . S
H1852 C1866 0.930 . S
H1853 C1868 0.960 . S
H1854 C1868 0.960 . S
H1855 C1868 0.960 . S
C1856 H1848 0.929 . S
C1856 C1857 1.377 . S
C1856 C1858 1.384 . S
C1857 C1856 1.377 . S
C1857 C1863 1.390 . S
C1858 H1849 0.930 . S
C1858 C1856 1.384 . S
C1858 C1859 1.372 . S
C1859 C1858 1.372 . S
C1859 C1860 1.400 . S
C1859 C1864 1.490 . S
C1860 H1850 0.930 . S
C1860 C1859 1.400 . S
C1860 C1863 1.386 . S
H1861 C1877 0.930 . S
H1862 C1878 0.931 . S
C1863 H1851 0.929 . S
C1863 C1857 1.390 . S
C1863 C1860 1.386 . S
C1864 C1859 1.490 . S
C1864 C1866 1.395 . S
C1864 C1867 1.403 . S
H1865 C1871 0.930 . S
C1866 H1852 0.930 . S
C1866 C1864 1.395 . S
C1866 C1869 1.403 . S
C1867 C1864 1.403 . S
C1867 C1868 1.524 . S
C1867 C1871 1.400 . S
C1868 H1853 0.960 . S
C1868 H1854 0.960 . S
C1868 H1855 0.960 . S
C1868 C1867 1.524 . S
C1869 C1866 1.403 . S
C1869 C1870 1.392 . S
C1869 C1873 1.495 . S
C1870 C1869 1.392 . S
C1870 C1871 1.385 . S
C1870 C1872 1.478 . S
C1871 H1865 0.930 . S
C1871 C1867 1.400 . S
C1871 C1870 1.385 . S
C1872 C1870 1.478 . S
C1872 C1874 1.381 . S
C1872 C1878 1.383 . S
C1873 C1869 1.495 . S
C1873 H1879 0.959 . S
C1873 H1880 0.961 . S
C1873 H1881 0.960 . S
C1874 C1872 1.381 . S
C1874 C1875 1.394 . S
C1874 H1882 0.930 . S
C1875 C1874 1.394 . S
C1875 C1876 1.383 . S
C1875 H1883 0.929 . S
C1876 C1875 1.383 . S
C1876 C1877 1.377 . S
C1877 H1861 0.930 . S
C1877 C1876 1.377 . S
C1877 C1878 1.379 . S
C1878 H1862 0.931 . S
C1878 C1872 1.383 . S
C1878 C1877 1.379 . S
H1879 C1873 0.959 . S
H1880 C1873 0.961 . S
H1881 C1873 0.960 . S
H1882 C1874 0.930 . S
H1883 C1875 0.929 . S
H1884 C1892 0.929 . S
H1885 C1894 0.930 . S
H1886 C1896 0.930 . S
H1887 C1899 0.929 . S
H1888 C1902 0.930 . S
H1889 C1904 0.960 . S
H1890 C1904 0.960 . S
H1891 C1904 0.960 . S
C1892 H1884 0.929 . S
C1892 C1893 1.377 . S
C1892 C1894 1.384 . S
C1893 C1892 1.377 . S
C1893 C1899 1.390 . S
C1894 H1885 0.930 . S
C1894 C1892 1.384 . S
C1894 C1895 1.372 . S
C1895 C1894 1.372 . S
C1895 C1896 1.400 . S
C1895 C1900 1.490 . S
C1896 H1886 0.930 . S
C1896 C1895 1.400 . S
C1896 C1899 1.386 . S
H1897 C1913 0.930 . S
H1898 C1914 0.931 . S
C1899 H1887 0.929 . S
C1899 C1893 1.390 . S
C1899 C1896 1.386 . S
C1900 C1895 1.490 . S
C1900 C1902 1.395 . S
C1900 C1903 1.403 . S
H1901 C1907 0.930 . S
C1902 H1888 0.930 . S
C1902 C1900 1.395 . S
C1902 C1905 1.403 . S
C1903 C1900 1.403 . S
C1903 C1904 1.524 . S
C1903 C1907 1.400 . S
C1904 H1889 0.960 . S
C1904 H1890 0.960 . S
C1904 H1891 0.960 . S
C1904 C1903 1.524 . S
C1905 C1902 1.403 . S
C1905 C1906 1.392 . S
C1905 C1909 1.495 . S
C1906 C1905 1.392 . S
C1906 C1907 1.385 . S
C1906 C1908 1.478 . S
C1907 H1901 0.930 . S
C1907 C1903 1.400 . S
C1907 C1906 1.385 . S
C1908 C1906 1.478 . S
C1908 C1910 1.381 . S
C1908 C1914 1.383 . S
C1909 C1905 1.495 . S
C1909 H1915 0.959 . S
C1909 H1916 0.961 . S
C1909 H1917 0.960 . S
C1910 C1908 1.381 . S
C1910 C1911 1.394 . S
C1910 H1918 0.930 . S
C1911 C1910 1.394 . S
C1911 C1912 1.383 . S
C1911 H1919 0.929 . S
C1912 C1911 1.383 . S
C1912 C1913 1.377 . S
C1913 H1897 0.930 . S
C1913 C1912 1.377 . S
C1913 C1914 1.379 . S
C1914 H1898 0.931 . S
C1914 C1908 1.383 . S
C1914 C1913 1.379 . S
H1915 C1909 0.959 . S
H1916 C1909 0.961 . S
H1917 C1909 0.960 . S
H1918 C1910 0.930 . S
H1919 C1911 0.929 . S
H1920 C1928 0.929 . S
H1921 C1930 0.930 . S
H1922 C1932 0.930 . S
H1923 C1935 0.929 . S
H1924 C1938 0.930 . S
H1925 C1940 0.960 . S
H1926 C1940 0.960 . S
H1927 C1940 0.960 . S
C1928 H1920 0.929 . S
C1928 C1929 1.377 . S
C1928 C1930 1.384 . S
C1929 C1928 1.377 . S
C1929 C1935 1.390 . S
C1930 H1921 0.930 . S
C1930 C1928 1.384 . S
C1930 C1931 1.372 . S
C1931 C1930 1.372 . S
C1931 C1932 1.400 . S
C1931 C1936 1.490 . S
C1932 H1922 0.930 . S
C1932 C1931 1.400 . S
C1932 C1935 1.386 . S
H1933 C1949 0.930 . S
H1934 C1950 0.931 . S
C1935 H1923 0.929 . S
C1935 C1929 1.390 . S
C1935 C1932 1.386 . S
C1936 C1931 1.490 . S
C1936 C1938 1.395 . S
C1936 C1939 1.403 . S
H1937 C1943 0.930 . S
C1938 H1924 0.930 . S
C1938 C1936 1.395 . S
C1938 C1941 1.403 . S
C1939 C1936 1.403 . S
C1939 C1940 1.524 . S
C1939 C1943 1.400 . S
C1940 H1925 0.960 . S
C1940 H1926 0.960 . S
C1940 H1927 0.960 . S
C1940 C1939 1.524 . S
C1941 C1938 1.403 . S
C1941 C1942 1.392 . S
C1941 C1945 1.495 . S
C1942 C1941 1.392 . S
C1942 C1943 1.385 . S
C1942 C1944 1.478 . S
C1943 H1937 0.930 . S
C1943 C1939 1.400 . S
C1943 C1942 1.385 . S
C1944 C1942 1.478 . S
C1944 C1946 1.381 . S
C1944 C1950 1.383 . S
C1945 C1941 1.495 . S
C1945 H1951 0.959 . S
C1945 H1952 0.961 . S
C1945 H1953 0.960 . S
C1946 C1944 1.381 . S
C1946 C1947 1.394 . S
C1946 H1954 0.930 . S
C1947 C1946 1.394 . S
C1947 C1948 1.383 . S
C1947 H1955 0.929 . S
C1948 C1947 1.383 . S
C1948 C1949 1.377 . S
C1949 H1933 0.930 . S
C1949 C1948 1.377 . S
C1949 C1950 1.379 . S
C1950 H1934 0.931 . S
C1950 C1944 1.383 . S
C1950 C1949 1.379 . S
H1951 C1945 0.959 . S
H1952 C1945 0.961 . S
H1953 C1945 0.960 . S
H1954 C1946 0.930 . S
H1955 C1947 0.929 . S
H1956 C1964 0.929 . S
H1957 C1966 0.930 . S
H1958 C1968 0.930 . S
H1959 C1971 0.929 . S
H1960 C1974 0.930 . S
H1961 C1976 0.960 . S
H1962 C1976 0.960 . S
H1963 C1976 0.960 . S
C1964 H1956 0.929 . S
C1964 C1965 1.377 . S
C1964 C1966 1.384 . S
C1965 C1964 1.377 . S
C1965 C1971 1.390 . S
C1966 H1957 0.930 . S
C1966 C1964 1.384 . S
C1966 C1967 1.372 . S
C1967 C1966 1.372 . S
C1967 C1968 1.400 . S
C1967 C1972 1.490 . S
C1968 H1958 0.930 . S
C1968 C1967 1.400 . S
C1968 C1971 1.386 . S
H1969 C1985 0.930 . S
H1970 C1986 0.931 . S
C1971 H1959 0.929 . S
C1971 C1965 1.390 . S
C1971 C1968 1.386 . S
C1972 C1967 1.490 . S
C1972 C1974 1.395 . S
C1972 C1975 1.403 . S
H1973 C1979 0.930 . S
C1974 H1960 0.930 . S
C1974 C1972 1.395 . S
C1974 C1977 1.403 . S
C1975 C1972 1.403 . S
C1975 C1976 1.524 . S
C1975 C1979 1.400 . S
C1976 H1961 0.960 . S
C1976 H1962 0.960 . S
C1976 H1963 0.960 . S
C1976 C1975 1.524 . S
C1977 C1974 1.403 . S
C1977 C1978 1.392 . S
C1977 C1981 1.495 . S
C1978 C1977 1.392 . S
C1978 C1979 1.385 . S
C1978 C1980 1.478 . S
C1979 H1973 0.930 . S
C1979 C1975 1.400 . S
C1979 C1978 1.385 . S
C1980 C1978 1.478 . S
C1980 C1982 1.381 . S
C1980 C1986 1.383 . S
C1981 C1977 1.495 . S
C1981 H1987 0.959 . S
C1981 H1988 0.961 . S
C1981 H1989 0.960 . S
C1982 C1980 1.381 . S
C1982 C1983 1.394 . S
C1982 H1990 0.930 . S
C1983 C1982 1.394 . S
C1983 C1984 1.383 . S
C1983 H1991 0.929 . S
C1984 C1983 1.383 . S
C1984 C1985 1.377 . S
C1985 H1969 0.930 . S
C1985 C1984 1.377 . S
C1985 C1986 1.379 . S
C1986 H1970 0.931 . S
C1986 C1980 1.383 . S
C1986 C1985 1.379 . S
H1987 C1981 0.959 . S
H1988 C1981 0.961 . S
H1989 C1981 0.960 . S
H1990 C1982 0.930 . S
H1991 C1983 0.929 . S
H1992 C2000 0.929 . S
H1993 C2002 0.930 . S
H1994 C2004 0.930 . S
H1995 C2007 0.929 . S
H1996 C2010 0.930 . S
H1997 C2012 0.960 . S
H1998 C2012 0.960 . S
H1999 C2012 0.960 . S
C2000 H1992 0.929 . S
C2000 C2001 1.377 . S
C2000 C2002 1.384 . S
C2001 C2000 1.377 . S
C2001 C2007 1.390 . S
C2002 H1993 0.930 . S
C2002 C2000 1.384 . S
C2002 C2003 1.372 . S
C2003 C2002 1.372 . S
C2003 C2004 1.400 . S
C2003 C2008 1.490 . S
C2004 H1994 0.930 . S
C2004 C2003 1.400 . S
C2004 C2007 1.386 . S
H2005 C2021 0.930 . S
H2006 C2022 0.931 . S
C2007 H1995 0.929 . S
C2007 C2001 1.390 . S
C2007 C2004 1.386 . S
C2008 C2003 1.490 . S
C2008 C2010 1.395 . S
C2008 C2011 1.403 . S
H2009 C2015 0.930 . S
C2010 H1996 0.930 . S
C2010 C2008 1.395 . S
C2010 C2013 1.403 . S
C2011 C2008 1.403 . S
C2011 C2012 1.524 . S
C2011 C2015 1.400 . S
C2012 H1997 0.960 . S
C2012 H1998 0.960 . S
C2012 H1999 0.960 . S
C2012 C2011 1.524 . S
C2013 C2010 1.403 . S
C2013 C2014 1.392 . S
C2013 C2017 1.495 . S
C2014 C2013 1.392 . S
C2014 C2015 1.385 . S
C2014 C2016 1.478 . S
C2015 H2009 0.930 . S
C2015 C2011 1.400 . S
C2015 C2014 1.385 . S
C2016 C2014 1.478 . S
C2016 C2018 1.381 . S
C2016 C2022 1.383 . S
C2017 C2013 1.495 . S
C2017 H2023 0.959 . S
C2017 H2024 0.961 . S
C2017 H2025 0.960 . S
C2018 C2016 1.381 . S
C2018 C2019 1.394 . S
C2018 H2026 0.930 . S
C2019 C2018 1.394 . S
C2019 C2020 1.383 . S
C2019 H2027 0.929 . S
C2020 C2019 1.383 . S
C2020 C2021 1.377 . S
C2021 H2005 0.930 . S
C2021 C2020 1.377 . S
C2021 C2022 1.379 . S
C2022 H2006 0.931 . S
C2022 C2016 1.383 . S
C2022 C2021 1.379 . S
H2023 C2017 0.959 . S
H2024 C2017 0.961 . S
H2025 C2017 0.960 . S
H2026 C2018 0.930 . S
H2027 C2019 0.929 . S
H2028 C2036 0.929 . S
H2029 C2038 0.930 . S
H2030 C2040 0.930 . S
H2031 C2043 0.929 . S
H2032 C2046 0.930 . S
H2033 C2048 0.960 . S
H2034 C2048 0.960 . S
H2035 C2048 0.960 . S
C2036 H2028 0.929 . S
C2036 C2037 1.377 . S
C2036 C2038 1.384 . S
C2037 C2036 1.377 . S
C2037 C2043 1.390 . S
C2038 H2029 0.930 . S
C2038 C2036 1.384 . S
C2038 C2039 1.372 . S
C2039 C2038 1.372 . S
C2039 C2040 1.400 . S
C2039 C2044 1.490 . S
C2040 H2030 0.930 . S
C2040 C2039 1.400 . S
C2040 C2043 1.386 . S
H2041 C2057 0.930 . S
H2042 C2058 0.931 . S
C2043 H2031 0.929 . S
C2043 C2037 1.390 . S
C2043 C2040 1.386 . S
C2044 C2039 1.490 . S
C2044 C2046 1.395 . S
C2044 C2047 1.403 . S
H2045 C2051 0.930 . S
C2046 H2032 0.930 . S
C2046 C2044 1.395 . S
C2046 C2049 1.403 . S
C2047 C2044 1.403 . S
C2047 C2048 1.524 . S
C2047 C2051 1.400 . S
C2048 H2033 0.960 . S
C2048 H2034 0.960 . S
C2048 H2035 0.960 . S
C2048 C2047 1.524 . S
C2049 C2046 1.403 . S
C2049 C2050 1.392 . S
C2049 C2053 1.495 . S
C2050 C2049 1.392 . S
C2050 C2051 1.385 . S
C2050 C2052 1.478 . S
C2051 H2045 0.930 . S
C2051 C2047 1.400 . S
C2051 C2050 1.385 . S
C2052 C2050 1.478 . S
C2052 C2054 1.381 . S
C2052 C2058 1.383 . S
C2053 C2049 1.495 . S
C2053 H2059 0.959 . S
C2053 H2060 0.961 . S
C2053 H2061 0.960 . S
C2054 C2052 1.381 . S
C2054 C2055 1.394 . S
C2054 H2062 0.930 . S
C2055 C2054 1.394 . S
C2055 C2056 1.383 . S
C2055 H2063 0.929 . S
C2056 C2055 1.383 . S
C2056 C2057 1.377 . S
C2057 H2041 0.930 . S
C2057 C2056 1.377 . S
C2057 C2058 1.379 . S
C2058 H2042 0.931 . S
C2058 C2052 1.383 . S
C2058 C2057 1.379 . S
H2059 C2053 0.959 . S
H2060 C2053 0.961 . S
H2061 C2053 0.960 . S
H2062 C2054 0.930 . S
H2063 C2055 0.929 . S
H2064 C2072 0.929 . S
H2065 C2074 0.930 . S
H2066 C2076 0.930 . S
H2067 C2079 0.929 . S
H2068 C2082 0.930 . S
H2069 C2084 0.960 . S
H2070 C2084 0.960 . S
H2071 C2084 0.960 . S
C2072 H2064 0.929 . S
C2072 C2073 1.377 . S
C2072 C2074 1.384 . S
C2073 C2072 1.377 . S
C2073 C2079 1.390 . S
C2074 H2065 0.930 . S
C2074 C2072 1.384 . S
C2074 C2075 1.372 . S
C2075 C2074 1.372 . S
C2075 C2076 1.400 . S
C2075 C2080 1.490 . S
C2076 H2066 0.930 . S
C2076 C2075 1.400 . S
C2076 C2079 1.386 . S
H2077 C2093 0.930 . S
H2078 C2094 0.931 . S
C2079 H2067 0.929 . S
C2079 C2073 1.390 . S
C2079 C2076 1.386 . S
C2080 C2075 1.490 . S
C2080 C2082 1.395 . S
C2080 C2083 1.403 . S
H2081 C2087 0.930 . S
C2082 H2068 0.930 . S
C2082 C2080 1.395 . S
C2082 C2085 1.403 . S
C2083 C2080 1.403 . S
C2083 C2084 1.524 . S
C2083 C2087 1.400 . S
C2084 H2069 0.960 . S
C2084 H2070 0.960 . S
C2084 H2071 0.960 . S
C2084 C2083 1.524 . S
C2085 C2082 1.403 . S
C2085 C2086 1.392 . S
C2085 C2089 1.495 . S
C2086 C2085 1.392 . S
C2086 C2087 1.385 . S
C2086 C2088 1.478 . S
C2087 H2081 0.930 . S
C2087 C2083 1.400 . S
C2087 C2086 1.385 . S
C2088 C2086 1.478 . S
C2088 C2090 1.381 . S
C2088 C2094 1.383 . S
C2089 C2085 1.495 . S
C2089 H2095 0.959 . S
C2089 H2096 0.961 . S
C2089 H2097 0.960 . S
C2090 C2088 1.381 . S
C2090 C2091 1.394 . S
C2090 H2098 0.930 . S
C2091 C2090 1.394 . S
C2091 C2092 1.383 . S
C2091 H2099 0.929 . S
C2092 C2091 1.383 . S
C2092 C2093 1.377 . S
C2093 H2077 0.930 . S
C2093 C2092 1.377 . S
C2093 C2094 1.379 . S
C2094 H2078 0.931 . S
C2094 C2088 1.383 . S
C2094 C2093 1.379 . S
H2095 C2089 0.959 . S
H2096 C2089 0.961 . S
H2097 C2089 0.960 . S
H2098 C2090 0.930 . S
H2099 C2091 0.929 . S
H2100 C2108 0.929 . S
H2101 C2110 0.930 . S
H2102 C2112 0.930 . S
H2103 C2115 0.929 . S
H2104 C2118 0.930 . S
H2105 C2120 0.960 . S
H2106 C2120 0.960 . S
H2107 C2120 0.960 . S
C2108 H2100 0.929 . S
C2108 C2109 1.377 . S
C2108 C2110 1.384 . S
C2109 C2108 1.377 . S
C2109 C2115 1.390 . S
C2110 H2101 0.930 . S
C2110 C2108 1.384 . S
C2110 C2111 1.372 . S
C2111 C2110 1.372 . S
C2111 C2112 1.400 . S
C2111 C2116 1.490 . S
C2112 H2102 0.930 . S
C2112 C2111 1.400 . S
C2112 C2115 1.386 . S
H2113 C2129 0.930 . S
H2114 C2130 0.931 . S
C2115 H2103 0.929 . S
C2115 C2109 1.390 . S
C2115 C2112 1.386 . S
C2116 C2111 1.490 . S
C2116 C2118 1.395 . S
C2116 C2119 1.403 . S
H2117 C2123 0.930 . S
C2118 H2104 0.930 . S
C2118 C2116 1.395 . S
C2118 C2121 1.403 . S
C2119 C2116 1.403 . S
C2119 C2120 1.524 . S
C2119 C2123 1.400 . S
C2120 H2105 0.960 . S
C2120 H2106 0.960 . S
C2120 H2107 0.960 . S
C2120 C2119 1.524 . S
C2121 C2118 1.403 . S
C2121 C2122 1.392 . S
C2121 C2125 1.495 . S
C2122 C2121 1.392 . S
C2122 C2123 1.385 . S
C2122 C2124 1.478 . S
C2123 H2117 0.930 . S
C2123 C2119 1.400 . S
C2123 C2122 1.385 . S
C2124 C2122 1.478 . S
C2124 C2126 1.381 . S
C2124 C2130 1.383 . S
C2125 C2121 1.495 . S
C2125 H2131 0.959 . S
C2125 H2132 0.961 . S
C2125 H2133 0.960 . S
C2126 C2124 1.381 . S
C2126 C2127 1.394 . S
C2126 H2134 0.930 . S
C2127 C2126 1.394 . S
C2127 C2128 1.383 . S
C2127 H2135 0.929 . S
C2128 C2127 1.383 . S
C2128 C2129 1.377 . S
C2129 H2113 0.930 . S
C2129 C2128 1.377 . S
C2129 C2130 1.379 . S
C2130 H2114 0.931 . S
C2130 C2124 1.383 . S
C2130 C2129 1.379 . S
H2131 C2125 0.959 . S
H2132 C2125 0.961 . S
H2133 C2125 0.960 . S
H2134 C2126 0.930 . S
H2135 C2127 0.929 . S
H2136 C2144 0.929 . S
H2137 C2146 0.930 . S
H2138 C2148 0.930 . S
H2139 C2151 0.929 . S
H2140 C2154 0.930 . S
H2141 C2156 0.960 . S
H2142 C2156 0.960 . S
H2143 C2156 0.960 . S
C2144 H2136 0.929 . S
C2144 C2145 1.377 . S
C2144 C2146 1.384 . S
C2145 C2144 1.377 . S
C2145 C2151 1.390 . S
C2146 H2137 0.930 . S
C2146 C2144 1.384 . S
C2146 C2147 1.372 . S
C2147 C2146 1.372 . S
C2147 C2148 1.400 . S
C2147 C2152 1.490 . S
C2148 H2138 0.930 . S
C2148 C2147 1.400 . S
C2148 C2151 1.386 . S
H2149 C2165 0.930 . S
H2150 C2166 0.931 . S
C2151 H2139 0.929 . S
C2151 C2145 1.390 . S
C2151 C2148 1.386 . S
C2152 C2147 1.490 . S
C2152 C2154 1.395 . S
C2152 C2155 1.403 . S
H2153 C2159 0.930 . S
C2154 H2140 0.930 . S
C2154 C2152 1.395 . S
C2154 C2157 1.403 . S
C2155 C2152 1.403 . S
C2155 C2156 1.524 . S
C2155 C2159 1.400 . S
C2156 H2141 0.960 . S
C2156 H2142 0.960 . S
C2156 H2143 0.960 . S
C2156 C2155 1.524 . S
C2157 C2154 1.403 . S
C2157 C2158 1.392 . S
C2157 C2161 1.495 . S
C2158 C2157 1.392 . S
C2158 C2159 1.385 . S
C2158 C2160 1.478 . S
C2159 H2153 0.930 . S
C2159 C2155 1.400 . S
C2159 C2158 1.385 . S
C2160 C2158 1.478 . S
C2160 C2162 1.381 . S
C2160 C2166 1.383 . S
C2161 C2157 1.495 . S
C2161 H2167 0.959 . S
C2161 H2168 0.961 . S
C2161 H2169 0.960 . S
C2162 C2160 1.381 . S
C2162 C2163 1.394 . S
C2162 H2170 0.930 . S
C2163 C2162 1.394 . S
C2163 C2164 1.383 . S
C2163 H2171 0.929 . S
C2164 C2163 1.383 . S
C2164 C2165 1.377 . S
C2165 H2149 0.930 . S
C2165 C2164 1.377 . S
C2165 C2166 1.379 . S
C2166 H2150 0.931 . S
C2166 C2160 1.383 . S
C2166 C2165 1.379 . S
H2167 C2161 0.959 . S
H2168 C2161 0.961 . S
H2169 C2161 0.960 . S
H2170 C2162 0.930 . S
H2171 C2163 0.929 . S
H2172 C2180 0.929 . S
H2173 C2182 0.930 . S
H2174 C2184 0.930 . S
H2175 C2187 0.929 . S
H2176 C2190 0.930 . S
H2177 C2192 0.960 . S
H2178 C2192 0.960 . S
H2179 C2192 0.960 . S
C2180 H2172 0.929 . S
C2180 C2181 1.377 . S
C2180 C2182 1.384 . S
C2181 C2180 1.377 . S
C2181 C2187 1.390 . S
C2182 H2173 0.930 . S
C2182 C2180 1.384 . S
C2182 C2183 1.372 . S
C2183 C2182 1.372 . S
C2183 C2184 1.400 . S
C2183 C2188 1.490 . S
C2184 H2174 0.930 . S
C2184 C2183 1.400 . S
C2184 C2187 1.386 . S
H2185 C2201 0.930 . S
H2186 C2202 0.931 . S
C2187 H2175 0.929 . S
C2187 C2181 1.390 . S
C2187 C2184 1.386 . S
C2188 C2183 1.490 . S
C2188 C2190 1.395 . S
C2188 C2191 1.403 . S
H2189 C2195 0.930 . S
C2190 H2176 0.930 . S
C2190 C2188 1.395 . S
C2190 C2193 1.403 . S
C2191 C2188 1.403 . S
C2191 C2192 1.524 . S
C2191 C2195 1.400 . S
C2192 H2177 0.960 . S
C2192 H2178 0.960 . S
C2192 H2179 0.960 . S
C2192 C2191 1.524 . S
C2193 C2190 1.403 . S
C2193 C2194 1.392 . S
C2193 C2197 1.495 . S
C2194 C2193 1.392 . S
C2194 C2195 1.385 . S
C2194 C2196 1.478 . S
C2195 H2189 0.930 . S
C2195 C2191 1.400 . S
C2195 C2194 1.385 . S
C2196 C2194 1.478 . S
C2196 C2198 1.381 . S
C2196 C2202 1.383 . S
C2197 C2193 1.495 . S
C2197 H2203 0.959 . S
C2197 H2204 0.961 . S
C2197 H2205 0.960 . S
C2198 C2196 1.381 . S
C2198 C2199 1.394 . S
C2198 H2206 0.930 . S
C2199 C2198 1.394 . S
C2199 C2200 1.383 . S
C2199 H2207 0.929 . S
C2200 C2199 1.383 . S
C2200 C2201 1.377 . S
C2201 H2185 0.930 . S
C2201 C2200 1.377 . S
C2201 C2202 1.379 . S
C2202 H2186 0.931 . S
C2202 C2196 1.383 . S
C2202 C2201 1.379 . S
H2203 C2197 0.959 . S
H2204 C2197 0.961 . S
H2205 C2197 0.960 . S
H2206 C2198 0.930 . S
H2207 C2199 0.929 . S
H2208 C2216 0.929 . S
H2209 C2218 0.930 . S
H2210 C2220 0.930 . S
H2211 C2223 0.929 . S
H2212 C2226 0.930 . S
H2213 C2228 0.960 . S
H2214 C2228 0.960 . S
H2215 C2228 0.960 . S
C2216 H2208 0.929 . S
C2216 C2217 1.377 . S
C2216 C2218 1.384 . S
C2217 C2216 1.377 . S
C2217 C2223 1.390 . S
C2218 H2209 0.930 . S
C2218 C2216 1.384 . S
C2218 C2219 1.372 . S
C2219 C2218 1.372 . S
C2219 C2220 1.400 . S
C2219 C2224 1.490 . S
C2220 H2210 0.930 . S
C2220 C2219 1.400 . S
C2220 C2223 1.386 . S
H2221 C2237 0.930 . S
H2222 C2238 0.931 . S
C2223 H2211 0.929 . S
C2223 C2217 1.390 . S
C2223 C2220 1.386 . S
C2224 C2219 1.490 . S
C2224 C2226 1.395 . S
C2224 C2227 1.403 . S
H2225 C2231 0.930 . S
C2226 H2212 0.930 . S
C2226 C2224 1.395 . S
C2226 C2229 1.403 . S
C2227 C2224 1.403 . S
C2227 C2228 1.524 . S
C2227 C2231 1.400 . S
C2228 H2213 0.960 . S
C2228 H2214 0.960 . S
C2228 H2215 0.960 . S
C2228 C2227 1.524 . S
C2229 C2226 1.403 . S
C2229 C2230 1.392 . S
C2229 C2233 1.495 . S
C2230 C2229 1.392 . S
C2230 C2231 1.385 . S
C2230 C2232 1.478 . S
C2231 H2225 0.930 . S
C2231 C2227 1.400 . S
C2231 C2230 1.385 . S
C2232 C2230 1.478 . S
C2232 C2234 1.381 . S
C2232 C2238 1.383 . S
C2233 C2229 1.495 . S
C2233 H2239 0.959 . S
C2233 H2240 0.961 . S
C2233 H2241 0.960 . S
C2234 C2232 1.381 . S
C2234 C2235 1.394 . S
C2234 H2242 0.930 . S
C2235 C2234 1.394 . S
C2235 C2236 1.383 . S
C2235 H2243 0.929 . S
C2236 C2235 1.383 . S
C2236 C2237 1.377 . S
C2237 H2221 0.930 . S
C2237 C2236 1.377 . S
C2237 C2238 1.379 . S
C2238 H2222 0.931 . S
C2238 C2232 1.383 . S
C2238 C2237 1.379 . S
H2239 C2233 0.959 . S
H2240 C2233 0.961 . S
H2241 C2233 0.960 . S
H2242 C2234 0.930 . S
H2243 C2235 0.929 . S
H2244 C2252 0.929 . S
H2245 C2254 0.930 . S
H2246 C2256 0.930 . S
H2247 C2259 0.929 . S
H2248 C2262 0.930 . S
H2249 C2264 0.960 . S
H2250 C2264 0.960 . S
H2251 C2264 0.960 . S
C2252 H2244 0.929 . S
C2252 C2253 1.377 . S
C2252 C2254 1.384 . S
C2253 C2252 1.377 . S
C2253 C2259 1.390 . S
C2254 H2245 0.930 . S
C2254 C2252 1.384 . S
C2254 C2255 1.372 . S
C2255 C2254 1.372 . S
C2255 C2256 1.400 . S
C2255 C2260 1.490 . S
C2256 H2246 0.930 . S
C2256 C2255 1.400 . S
C2256 C2259 1.386 . S
H2257 C2273 0.930 . S
H2258 C2274 0.931 . S
C2259 H2247 0.929 . S
C2259 C2253 1.390 . S
C2259 C2256 1.386 . S
C2260 C2255 1.490 . S
C2260 C2262 1.395 . S
C2260 C2263 1.403 . S
H2261 C2267 0.930 . S
C2262 H2248 0.930 . S
C2262 C2260 1.395 . S
C2262 C2265 1.403 . S
C2263 C2260 1.403 . S
C2263 C2264 1.524 . S
C2263 C2267 1.400 . S
C2264 H2249 0.960 . S
C2264 H2250 0.960 . S
C2264 H2251 0.960 . S
C2264 C2263 1.524 . S
C2265 C2262 1.403 . S
C2265 C2266 1.392 . S
C2265 C2269 1.495 . S
C2266 C2265 1.392 . S
C2266 C2267 1.385 . S
C2266 C2268 1.478 . S
C2267 H2261 0.930 . S
C2267 C2263 1.400 . S
C2267 C2266 1.385 . S
C2268 C2266 1.478 . S
C2268 C2270 1.381 . S
C2268 C2274 1.383 . S
C2269 C2265 1.495 . S
C2269 H2275 0.959 . S
C2269 H2276 0.961 . S
C2269 H2277 0.960 . S
C2270 C2268 1.381 . S
C2270 C2271 1.394 . S
C2270 H2278 0.930 . S
C2271 C2270 1.394 . S
C2271 C2272 1.383 . S
C2271 H2279 0.929 . S
C2272 C2271 1.383 . S
C2272 C2273 1.377 . S
C2273 H2257 0.930 . S
C2273 C2272 1.377 . S
C2273 C2274 1.379 . S
C2274 H2258 0.931 . S
C2274 C2268 1.383 . S
C2274 C2273 1.379 . S
H2275 C2269 0.959 . S
H2276 C2269 0.961 . S
H2277 C2269 0.960 . S
H2278 C2270 0.930 . S
H2279 C2271 0.929 . S
H2280 C2288 0.929 . S
H2281 C2290 0.930 . S
H2282 C2292 0.930 . S
H2283 C2295 0.929 . S
H2284 C2298 0.930 . S
H2285 C2300 0.960 . S
H2286 C2300 0.960 . S
H2287 C2300 0.960 . S
C2288 H2280 0.929 . S
C2288 C2289 1.377 . S
C2288 C2290 1.384 . S
C2289 C2288 1.377 . S
C2289 C2295 1.390 . S
C2290 H2281 0.930 . S
C2290 C2288 1.384 . S
C2290 C2291 1.372 . S
C2291 C2290 1.372 . S
C2291 C2292 1.400 . S
C2291 C2296 1.490 . S
C2292 H2282 0.930 . S
C2292 C2291 1.400 . S
C2292 C2295 1.386 . S
H2293 C2309 0.930 . S
H2294 C2310 0.931 . S
C2295 H2283 0.929 . S
C2295 C2289 1.390 . S
C2295 C2292 1.386 . S
C2296 C2291 1.490 . S
C2296 C2298 1.395 . S
C2296 C2299 1.403 . S
H2297 C2303 0.930 . S
C2298 H2284 0.930 . S
C2298 C2296 1.395 . S
C2298 C2301 1.403 . S
C2299 C2296 1.403 . S
C2299 C2300 1.524 . S
C2299 C2303 1.400 . S
C2300 H2285 0.960 . S
C2300 H2286 0.960 . S
C2300 H2287 0.960 . S
C2300 C2299 1.524 . S
C2301 C2298 1.403 . S
C2301 C2302 1.392 . S
C2301 C2305 1.495 . S
C2302 C2301 1.392 . S
C2302 C2303 1.385 . S
C2302 C2304 1.478 . S
C2303 H2297 0.930 . S
C2303 C2299 1.400 . S
C2303 C2302 1.385 . S
C2304 C2302 1.478 . S
C2304 C2306 1.381 . S
C2304 C2310 1.383 . S
C2305 C2301 1.495 . S
C2305 H2311 0.959 . S
C2305 H2312 0.961 . S
C2305 H2313 0.960 . S
C2306 C2304 1.381 . S
C2306 C2307 1.394 . S
C2306 H2314 0.930 . S
C2307 C2306 1.394 . S
C2307 C2308 1.383 . S
C2307 H2315 0.929 . S
C2308 C2307 1.383 . S
C2308 C2309 1.377 . S
C2309 H2293 0.930 . S
C2309 C2308 1.377 . S
C2309 C2310 1.379 . S
C2310 H2294 0.931 . S
C2310 C2304 1.383 . S
C2310 C2309 1.379 . S
H2311 C2305 0.959 . S
H2312 C2305 0.961 . S
H2313 C2305 0.960 . S
H2314 C2306 0.930 . S
H2315 C2307 0.929 . S
H2316 C2324 0.929 . S
H2317 C2326 0.930 . S
H2318 C2328 0.930 . S
H2319 C2331 0.929 . S
H2320 C2334 0.930 . S
H2321 C2336 0.960 . S
H2322 C2336 0.960 . S
H2323 C2336 0.960 . S
C2324 H2316 0.929 . S
C2324 C2325 1.377 . S
C2324 C2326 1.384 . S
C2325 C2324 1.377 . S
C2325 C2331 1.390 . S
C2326 H2317 0.930 . S
C2326 C2324 1.384 . S
C2326 C2327 1.372 . S
C2327 C2326 1.372 . S
C2327 C2328 1.400 . S
C2327 C2332 1.490 . S
C2328 H2318 0.930 . S
C2328 C2327 1.400 . S
C2328 C2331 1.386 . S
H2329 C2345 0.930 . S
H2330 C2346 0.931 . S
C2331 H2319 0.929 . S
C2331 C2325 1.390 . S
C2331 C2328 1.386 . S
C2332 C2327 1.490 . S
C2332 C2334 1.395 . S
C2332 C2335 1.403 . S
H2333 C2339 0.930 . S
C2334 H2320 0.930 . S
C2334 C2332 1.395 . S
C2334 C2337 1.403 . S
C2335 C2332 1.403 . S
C2335 C2336 1.524 . S
C2335 C2339 1.400 . S
C2336 H2321 0.960 . S
C2336 H2322 0.960 . S
C2336 H2323 0.960 . S
C2336 C2335 1.524 . S
C2337 C2334 1.403 . S
C2337 C2338 1.392 . S
C2337 C2341 1.495 . S
C2338 C2337 1.392 . S
C2338 C2339 1.385 . S
C2338 C2340 1.478 . S
C2339 H2333 0.930 . S
C2339 C2335 1.400 . S
C2339 C2338 1.385 . S
C2340 C2338 1.478 . S
C2340 C2342 1.381 . S
C2340 C2346 1.383 . S
C2341 C2337 1.495 . S
C2341 H2347 0.959 . S
C2341 H2348 0.961 . S
C2341 H2349 0.960 . S
C2342 C2340 1.381 . S
C2342 C2343 1.394 . S
C2342 H2350 0.930 . S
C2343 C2342 1.394 . S
C2343 C2344 1.383 . S
C2343 H2351 0.929 . S
C2344 C2343 1.383 . S
C2344 C2345 1.377 . S
C2345 H2329 0.930 . S
C2345 C2344 1.377 . S
C2345 C2346 1.379 . S
C2346 H2330 0.931 . S
C2346 C2340 1.383 . S
C2346 C2345 1.379 . S
H2347 C2341 0.959 . S
H2348 C2341 0.961 . S
H2349 C2341 0.960 . S
H2350 C2342 0.930 . S
H2351 C2343 0.929 . S
H2352 C2360 0.929 . S
H2353 C2362 0.930 . S
H2354 C2364 0.930 . S
H2355 C2367 0.929 . S
H2356 C2370 0.930 . S
H2357 C2372 0.960 . S
H2358 C2372 0.960 . S
H2359 C2372 0.960 . S
C2360 H2352 0.929 . S
C2360 C2361 1.377 . S
C2360 C2362 1.384 . S
C2361 C2360 1.377 . S
C2361 C2367 1.390 . S
C2362 H2353 0.930 . S
C2362 C2360 1.384 . S
C2362 C2363 1.372 . S
C2363 C2362 1.372 . S
C2363 C2364 1.400 . S
C2363 C2368 1.490 . S
C2364 H2354 0.930 . S
C2364 C2363 1.400 . S
C2364 C2367 1.386 . S
H2365 C2381 0.930 . S
H2366 C2382 0.931 . S
C2367 H2355 0.929 . S
C2367 C2361 1.390 . S
C2367 C2364 1.386 . S
C2368 C2363 1.490 . S
C2368 C2370 1.395 . S
C2368 C2371 1.403 . S
H2369 C2375 0.930 . S
C2370 H2356 0.930 . S
C2370 C2368 1.395 . S
C2370 C2373 1.403 . S
C2371 C2368 1.403 . S
C2371 C2372 1.524 . S
C2371 C2375 1.400 . S
C2372 H2357 0.960 . S
C2372 H2358 0.960 . S
C2372 H2359 0.960 . S
C2372 C2371 1.524 . S
C2373 C2370 1.403 . S
C2373 C2374 1.392 . S
C2373 C2377 1.495 . S
C2374 C2373 1.392 . S
C2374 C2375 1.385 . S
C2374 C2376 1.478 . S
C2375 H2369 0.930 . S
C2375 C2371 1.400 . S
C2375 C2374 1.385 . S
C2376 C2374 1.478 . S
C2376 C2378 1.381 . S
C2376 C2382 1.383 . S
C2377 C2373 1.495 . S
C2377 H2383 0.959 . S
C2377 H2384 0.961 . S
C2377 H2385 0.960 . S
C2378 C2376 1.381 . S
C2378 C2379 1.394 . S
C2378 H2386 0.930 . S
C2379 C2378 1.394 . S
C2379 C2380 1.383 . S
C2379 H2387 0.929 . S
C2380 C2379 1.383 . S
C2380 C2381 1.377 . S
C2381 H2365 0.930 . S
C2381 C2380 1.377 . S
C2381 C2382 1.379 . S
C2382 H2366 0.931 . S
C2382 C2376 1.383 . S
C2382 C2381 1.379 . S
H2383 C2377 0.959 . S
H2384 C2377 0.961 . S
H2385 C2377 0.960 . S
H2386 C2378 0.930 . S
H2387 C2379 0.929 . S
H2388 C2396 0.929 . S
H2389 C2398 0.930 . S
H2390 C2400 0.930 . S
H2391 C2403 0.929 . S
H2392 C2406 0.930 . S
H2393 C2408 0.960 . S
H2394 C2408 0.960 . S
H2395 C2408 0.960 . S
C2396 H2388 0.929 . S
C2396 C2397 1.377 . S
C2396 C2398 1.384 . S
C2397 C2396 1.377 . S
C2397 C2403 1.390 . S
C2398 H2389 0.930 . S
C2398 C2396 1.384 . S
C2398 C2399 1.372 . S
C2399 C2398 1.372 . S
C2399 C2400 1.400 . S
C2399 C2404 1.490 . S
C2400 H2390 0.930 . S
C2400 C2399 1.400 . S
C2400 C2403 1.386 . S
H2401 C2417 0.930 . S
H2402 C2418 0.931 . S
C2403 H2391 0.929 . S
C2403 C2397 1.390 . S
C2403 C2400 1.386 . S
C2404 C2399 1.490 . S
C2404 C2406 1.395 . S
C2404 C2407 1.403 . S
H2405 C2411 0.930 . S
C2406 H2392 0.930 . S
C2406 C2404 1.395 . S
C2406 C2409 1.403 . S
C2407 C2404 1.403 . S
C2407 C2408 1.524 . S
C2407 C2411 1.400 . S
C2408 H2393 0.960 . S
C2408 H2394 0.960 . S
C2408 H2395 0.960 . S
C2408 C2407 1.524 . S
C2409 C2406 1.403 . S
C2409 C2410 1.392 . S
C2409 C2413 1.495 . S
C2410 C2409 1.392 . S
C2410 C2411 1.385 . S
C2410 C2412 1.478 . S
C2411 H2405 0.930 . S
C2411 C2407 1.400 . S
C2411 C2410 1.385 . S
C2412 C2410 1.478 . S
C2412 C2414 1.381 . S
C2412 C2418 1.383 . S
C2413 C2409 1.495 . S
C2413 H2419 0.959 . S
C2413 H2420 0.961 . S
C2413 H2421 0.960 . S
C2414 C2412 1.381 . S
C2414 C2415 1.394 . S
C2414 H2422 0.930 . S
C2415 C2414 1.394 . S
C2415 C2416 1.383 . S
C2415 H2423 0.929 . S
C2416 C2415 1.383 . S
C2416 C2417 1.377 . S
C2417 H2401 0.930 . S
C2417 C2416 1.377 . S
C2417 C2418 1.379 . S
C2418 H2402 0.931 . S
C2418 C2412 1.383 . S
C2418 C2417 1.379 . S
H2419 C2413 0.959 . S
H2420 C2413 0.961 . S
H2421 C2413 0.960 . S
H2422 C2414 0.930 . S
H2423 C2415 0.929 . S
H2424 C2432 0.929 . S
H2425 C2434 0.930 . S
H2426 C2436 0.930 . S
H2427 C2439 0.929 . S
H2428 C2442 0.930 . S
H2429 C2444 0.960 . S
H2430 C2444 0.960 . S
H2431 C2444 0.960 . S
C2432 H2424 0.929 . S
C2432 C2433 1.377 . S
C2432 C2434 1.384 . S
C2433 C2432 1.377 . S
C2433 C2439 1.390 . S
C2434 H2425 0.930 . S
C2434 C2432 1.384 . S
C2434 C2435 1.372 . S
C2435 C2434 1.372 . S
C2435 C2436 1.400 . S
C2435 C2440 1.490 . S
C2436 H2426 0.930 . S
C2436 C2435 1.400 . S
C2436 C2439 1.386 . S
H2437 C2453 0.930 . S
H2438 C2454 0.931 . S
C2439 H2427 0.929 . S
C2439 C2433 1.390 . S
C2439 C2436 1.386 . S
C2440 C2435 1.490 . S
C2440 C2442 1.395 . S
C2440 C2443 1.403 . S
H2441 C2447 0.930 . S
C2442 H2428 0.930 . S
C2442 C2440 1.395 . S
C2442 C2445 1.403 . S
C2443 C2440 1.403 . S
C2443 C2444 1.524 . S
C2443 C2447 1.400 . S
C2444 H2429 0.960 . S
C2444 H2430 0.960 . S
C2444 H2431 0.960 . S
C2444 C2443 1.524 . S
C2445 C2442 1.403 . S
C2445 C2446 1.392 . S
C2445 C2449 1.495 . S
C2446 C2445 1.392 . S
C2446 C2447 1.385 . S
C2446 C2448 1.478 . S
C2447 H2441 0.930 . S
C2447 C2443 1.400 . S
C2447 C2446 1.385 . S
C2448 C2446 1.478 . S
C2448 C2450 1.381 . S
C2448 C2454 1.383 . S
C2449 C2445 1.495 . S
C2449 H2455 0.959 . S
C2449 H2456 0.961 . S
C2449 H2457 0.960 . S
C2450 C2448 1.381 . S
C2450 C2451 1.394 . S
C2450 H2458 0.930 . S
C2451 C2450 1.394 . S
C2451 C2452 1.383 . S
C2451 H2459 0.929 . S
C2452 C2451 1.383 . S
C2452 C2453 1.377 . S
C2453 H2437 0.930 . S
C2453 C2452 1.377 . S
C2453 C2454 1.379 . S
C2454 H2438 0.931 . S
C2454 C2448 1.383 . S
C2454 C2453 1.379 . S
H2455 C2449 0.959 . S
H2456 C2449 0.961 . S
H2457 C2449 0.960 . S
H2458 C2450 0.930 . S
H2459 C2451 0.929 . S
H2460 C2468 0.929 . S
H2461 C2470 0.930 . S
H2462 C2472 0.930 . S
H2463 C2475 0.929 . S
H2464 C2478 0.930 . S
H2465 C2480 0.960 . S
H2466 C2480 0.960 . S
H2467 C2480 0.960 . S
C2468 H2460 0.929 . S
C2468 C2469 1.377 . S
C2468 C2470 1.384 . S
C2469 C2468 1.377 . S
C2469 C2475 1.390 . S
C2470 H2461 0.930 . S
C2470 C2468 1.384 . S
C2470 C2471 1.372 . S
C2471 C2470 1.372 . S
C2471 C2472 1.400 . S
C2471 C2476 1.490 . S
C2472 H2462 0.930 . S
C2472 C2471 1.400 . S
C2472 C2475 1.386 . S
H2473 C2489 0.930 . S
H2474 C2490 0.931 . S
C2475 H2463 0.929 . S
C2475 C2469 1.390 . S
C2475 C2472 1.386 . S
C2476 C2471 1.490 . S
C2476 C2478 1.395 . S
C2476 C2479 1.403 . S
H2477 C2483 0.930 . S
C2478 H2464 0.930 . S
C2478 C2476 1.395 . S
C2478 C2481 1.403 . S
C2479 C2476 1.403 . S
C2479 C2480 1.524 . S
C2479 C2483 1.400 . S
C2480 H2465 0.960 . S
C2480 H2466 0.960 . S
C2480 H2467 0.960 . S
C2480 C2479 1.524 . S
C2481 C2478 1.403 . S
C2481 C2482 1.392 . S
C2481 C2485 1.495 . S
C2482 C2481 1.392 . S
C2482 C2483 1.385 . S
C2482 C2484 1.478 . S
C2483 H2477 0.930 . S
C2483 C2479 1.400 . S
C2483 C2482 1.385 . S
C2484 C2482 1.478 . S
C2484 C2486 1.381 . S
C2484 C2490 1.383 . S
C2485 C2481 1.495 . S
C2485 H2491 0.959 . S
C2485 H2492 0.961 . S
C2485 H2493 0.960 . S
C2486 C2484 1.381 . S
C2486 C2487 1.394 . S
C2486 H2494 0.930 . S
C2487 C2486 1.394 . S
C2487 C2488 1.383 . S
C2487 H2495 0.929 . S
C2488 C2487 1.383 . S
C2488 C2489 1.377 . S
C2489 H2473 0.930 . S
C2489 C2488 1.377 . S
C2489 C2490 1.379 . S
C2490 H2474 0.931 . S
C2490 C2484 1.383 . S
C2490 C2489 1.379 . S
H2491 C2485 0.959 . S
H2492 C2485 0.961 . S
H2493 C2485 0.960 . S
H2494 C2486 0.930 . S
H2495 C2487 0.929 . S
H2496 C2504 0.929 . S
H2497 C2506 0.930 . S
H2498 C2508 0.930 . S
H2499 C2511 0.929 . S
H2500 C2514 0.930 . S
H2501 C2516 0.960 . S
H2502 C2516 0.960 . S
H2503 C2516 0.960 . S
C2504 H2496 0.929 . S
C2504 C2505 1.377 . S
C2504 C2506 1.384 . S
C2505 C2504 1.377 . S
C2505 C2511 1.390 . S
C2506 H2497 0.930 . S
C2506 C2504 1.384 . S
C2506 C2507 1.372 . S
C2507 C2506 1.372 . S
C2507 C2508 1.400 . S
C2507 C2512 1.490 . S
C2508 H2498 0.930 . S
C2508 C2507 1.400 . S
C2508 C2511 1.386 . S
H2509 C2525 0.930 . S
H2510 C2526 0.931 . S
C2511 H2499 0.929 . S
C2511 C2505 1.390 . S
C2511 C2508 1.386 . S
C2512 C2507 1.490 . S
C2512 C2514 1.395 . S
C2512 C2515 1.403 . S
H2513 C2519 0.930 . S
C2514 H2500 0.930 . S
C2514 C2512 1.395 . S
C2514 C2517 1.403 . S
C2515 C2512 1.403 . S
C2515 C2516 1.524 . S
C2515 C2519 1.400 . S
C2516 H2501 0.960 . S
C2516 H2502 0.960 . S
C2516 H2503 0.960 . S
C2516 C2515 1.524 . S
C2517 C2514 1.403 . S
C2517 C2518 1.392 . S
C2517 C2521 1.495 . S
C2518 C2517 1.392 . S
C2518 C2519 1.385 . S
C2518 C2520 1.478 . S
C2519 H2513 0.930 . S
C2519 C2515 1.400 . S
C2519 C2518 1.385 . S
C2520 C2518 1.478 . S
C2520 C2522 1.381 . S
C2520 C2526 1.383 . S
C2521 C2517 1.495 . S
C2521 H2527 0.959 . S
C2521 H2528 0.961 . S
C2521 H2529 0.960 . S
C2522 C2520 1.381 . S
C2522 C2523 1.394 . S
C2522 H2530 0.930 . S
C2523 C2522 1.394 . S
C2523 C2524 1.383 . S
C2523 H2531 0.929 . S
C2524 C2523 1.383 . S
C2524 C2525 1.377 . S
C2525 H2509 0.930 . S
C2525 C2524 1.377 . S
C2525 C2526 1.379 . S
C2526 H2510 0.931 . S
C2526 C2520 1.383 . S
C2526 C2525 1.379 . S
H2527 C2521 0.959 . S
H2528 C2521 0.961 . S
H2529 C2521 0.960 . S
H2530 C2522 0.930 . S
H2531 C2523 0.929 . S
H2532 C2540 0.929 . S
H2533 C2542 0.930 . S
H2534 C2544 0.930 . S
H2535 C2547 0.929 . S
H2536 C2550 0.930 . S
H2537 C2552 0.960 . S
H2538 C2552 0.960 . S
H2539 C2552 0.960 . S
C2540 H2532 0.929 . S
C2540 C2541 1.377 . S
C2540 C2542 1.384 . S
C2541 C2540 1.377 . S
C2541 C2547 1.390 . S
C2542 H2533 0.930 . S
C2542 C2540 1.384 . S
C2542 C2543 1.372 . S
C2543 C2542 1.372 . S
C2543 C2544 1.400 . S
C2543 C2548 1.490 . S
C2544 H2534 0.930 . S
C2544 C2543 1.400 . S
C2544 C2547 1.386 . S
H2545 C2561 0.930 . S
H2546 C2562 0.931 . S
C2547 H2535 0.929 . S
C2547 C2541 1.390 . S
C2547 C2544 1.386 . S
C2548 C2543 1.490 . S
C2548 C2550 1.395 . S
C2548 C2551 1.403 . S
H2549 C2555 0.930 . S
C2550 H2536 0.930 . S
C2550 C2548 1.395 . S
C2550 C2553 1.403 . S
C2551 C2548 1.403 . S
C2551 C2552 1.524 . S
C2551 C2555 1.400 . S
C2552 H2537 0.960 . S
C2552 H2538 0.960 . S
C2552 H2539 0.960 . S
C2552 C2551 1.524 . S
C2553 C2550 1.403 . S
C2553 C2554 1.392 . S
C2553 C2557 1.495 . S
C2554 C2553 1.392 . S
C2554 C2555 1.385 . S
C2554 C2556 1.478 . S
C2555 H2549 0.930 . S
C2555 C2551 1.400 . S
C2555 C2554 1.385 . S
C2556 C2554 1.478 . S
C2556 C2558 1.381 . S
C2556 C2562 1.383 . S
C2557 C2553 1.495 . S
C2557 H2563 0.959 . S
C2557 H2564 0.961 . S
C2557 H2565 0.960 . S
C2558 C2556 1.381 . S
C2558 C2559 1.394 . S
C2558 H2566 0.930 . S
C2559 C2558 1.394 . S
C2559 C2560 1.383 . S
C2559 H2567 0.929 . S
C2560 C2559 1.383 . S
C2560 C2561 1.377 . S
C2561 H2545 0.930 . S
C2561 C2560 1.377 . S
C2561 C2562 1.379 . S
C2562 H2546 0.931 . S
C2562 C2556 1.383 . S
C2562 C2561 1.379 . S
H2563 C2557 0.959 . S
H2564 C2557 0.961 . S
H2565 C2557 0.960 . S
H2566 C2558 0.930 . S
H2567 C2559 0.929 . S
H2568 C2576 0.929 . S
H2569 C2578 0.930 . S
H2570 C2580 0.930 . S
H2571 C2583 0.929 . S
H2572 C2586 0.930 . S
H2573 C2588 0.960 . S
H2574 C2588 0.960 . S
H2575 C2588 0.960 . S
C2576 H2568 0.929 . S
C2576 C2577 1.377 . S
C2576 C2578 1.384 . S
C2577 C2576 1.377 . S
C2577 C2583 1.390 . S
C2578 H2569 0.930 . S
C2578 C2576 1.384 . S
C2578 C2579 1.372 . S
C2579 C2578 1.372 . S
C2579 C2580 1.400 . S
C2579 C2584 1.490 . S
C2580 H2570 0.930 . S
C2580 C2579 1.400 . S
C2580 C2583 1.386 . S
H2581 C2597 0.930 . S
H2582 C2598 0.931 . S
C2583 H2571 0.929 . S
C2583 C2577 1.390 . S
C2583 C2580 1.386 . S
C2584 C2579 1.490 . S
C2584 C2586 1.395 . S
C2584 C2587 1.403 . S
H2585 C2591 0.930 . S
C2586 H2572 0.930 . S
C2586 C2584 1.395 . S
C2586 C2589 1.403 . S
C2587 C2584 1.403 . S
C2587 C2588 1.524 . S
C2587 C2591 1.400 . S
C2588 H2573 0.960 . S
C2588 H2574 0.960 . S
C2588 H2575 0.960 . S
C2588 C2587 1.524 . S
C2589 C2586 1.403 . S
C2589 C2590 1.392 . S
C2589 C2593 1.495 . S
C2590 C2589 1.392 . S
C2590 C2591 1.385 . S
C2590 C2592 1.478 . S
C2591 H2585 0.930 . S
C2591 C2587 1.400 . S
C2591 C2590 1.385 . S
C2592 C2590 1.478 . S
C2592 C2594 1.381 . S
C2592 C2598 1.383 . S
C2593 C2589 1.495 . S
C2593 H2599 0.959 . S
C2593 H2600 0.961 . S
C2593 H2601 0.960 . S
C2594 C2592 1.381 . S
C2594 C2595 1.394 . S
C2594 H2602 0.930 . S
C2595 C2594 1.394 . S
C2595 C2596 1.383 . S
C2595 H2603 0.929 . S
C2596 C2595 1.383 . S
C2596 C2597 1.377 . S
C2597 H2581 0.930 . S
C2597 C2596 1.377 . S
C2597 C2598 1.379 . S
C2598 H2582 0.931 . S
C2598 C2592 1.383 . S
C2598 C2597 1.379 . S
H2599 C2593 0.959 . S
H2600 C2593 0.961 . S
H2601 C2593 0.960 . S
H2602 C2594 0.930 . S
H2603 C2595 0.929 . S
H2604 C2612 0.929 . S
H2605 C2614 0.930 . S
H2606 C2616 0.930 . S
H2607 C2619 0.929 . S
H2608 C2622 0.930 . S
H2609 C2624 0.960 . S
H2610 C2624 0.960 . S
H2611 C2624 0.960 . S
C2612 H2604 0.929 . S
C2612 C2613 1.377 . S
C2612 C2614 1.384 . S
C2613 C2612 1.377 . S
C2613 C2619 1.390 . S
C2614 H2605 0.930 . S
C2614 C2612 1.384 . S
C2614 C2615 1.372 . S
C2615 C2614 1.372 . S
C2615 C2616 1.400 . S
C2615 C2620 1.490 . S
C2616 H2606 0.930 . S
C2616 C2615 1.400 . S
C2616 C2619 1.386 . S
H2617 C2633 0.930 . S
H2618 C2634 0.931 . S
C2619 H2607 0.929 . S
C2619 C2613 1.390 . S
C2619 C2616 1.386 . S
C2620 C2615 1.490 . S
C2620 C2622 1.395 . S
C2620 C2623 1.403 . S
H2621 C2627 0.930 . S
C2622 H2608 0.930 . S
C2622 C2620 1.395 . S
C2622 C2625 1.403 . S
C2623 C2620 1.403 . S
C2623 C2624 1.524 . S
C2623 C2627 1.400 . S
C2624 H2609 0.960 . S
C2624 H2610 0.960 . S
C2624 H2611 0.960 . S
C2624 C2623 1.524 . S
C2625 C2622 1.403 . S
C2625 C2626 1.392 . S
C2625 C2629 1.495 . S
C2626 C2625 1.392 . S
C2626 C2627 1.385 . S
C2626 C2628 1.478 . S
C2627 H2621 0.930 . S
C2627 C2623 1.400 . S
C2627 C2626 1.385 . S
C2628 C2626 1.478 . S
C2628 C2630 1.381 . S
C2628 C2634 1.383 . S
C2629 C2625 1.495 . S
C2629 H2635 0.959 . S
C2629 H2636 0.961 . S
C2629 H2637 0.960 . S
C2630 C2628 1.381 . S
C2630 C2631 1.394 . S
C2630 H2638 0.930 . S
C2631 C2630 1.394 . S
C2631 C2632 1.383 . S
C2631 H2639 0.929 . S
C2632 C2631 1.383 . S
C2632 C2633 1.377 . S
C2633 H2617 0.930 . S
C2633 C2632 1.377 . S
C2633 C2634 1.379 . S
C2634 H2618 0.931 . S
C2634 C2628 1.383 . S
C2634 C2633 1.379 . S
H2635 C2629 0.959 . S
H2636 C2629 0.961 . S
H2637 C2629 0.960 . S
H2638 C2630 0.930 . S
H2639 C2631 0.929 . S
H2640 C2648 0.929 . S
H2641 C2650 0.930 . S
H2642 C2652 0.930 . S
H2643 C2655 0.929 . S
H2644 C2658 0.930 . S
H2645 C2660 0.960 . S
H2646 C2660 0.960 . S
H2647 C2660 0.960 . S
C2648 H2640 0.929 . S
C2648 C2649 1.377 . S
C2648 C2650 1.384 . S
C2649 C2648 1.377 . S
C2649 C2655 1.390 . S
C2650 H2641 0.930 . S
C2650 C2648 1.384 . S
C2650 C2651 1.372 . S
C2651 C2650 1.372 . S
C2651 C2652 1.400 . S
C2651 C2656 1.490 . S
C2652 H2642 0.930 . S
C2652 C2651 1.400 . S
C2652 C2655 1.386 . S
H2653 C2669 0.930 . S
H2654 C2670 0.931 . S
C2655 H2643 0.929 . S
C2655 C2649 1.390 . S
C2655 C2652 1.386 . S
C2656 C2651 1.490 . S
C2656 C2658 1.395 . S
C2656 C2659 1.403 . S
H2657 C2663 0.930 . S
C2658 H2644 0.930 . S
C2658 C2656 1.395 . S
C2658 C2661 1.403 . S
C2659 C2656 1.403 . S
C2659 C2660 1.524 . S
C2659 C2663 1.400 . S
C2660 H2645 0.960 . S
C2660 H2646 0.960 . S
C2660 H2647 0.960 . S
C2660 C2659 1.524 . S
C2661 C2658 1.403 . S
C2661 C2662 1.392 . S
C2661 C2665 1.495 . S
C2662 C2661 1.392 . S
C2662 C2663 1.385 . S
C2662 C2664 1.478 . S
C2663 H2657 0.930 . S
C2663 C2659 1.400 . S
C2663 C2662 1.385 . S
C2664 C2662 1.478 . S
C2664 C2666 1.381 . S
C2664 C2670 1.383 . S
C2665 C2661 1.495 . S
C2665 H2671 0.959 . S
C2665 H2672 0.961 . S
C2665 H2673 0.960 . S
C2666 C2664 1.381 . S
C2666 C2667 1.394 . S
C2666 H2674 0.930 . S
C2667 C2666 1.394 . S
C2667 C2668 1.383 . S
C2667 H2675 0.929 . S
C2668 C2667 1.383 . S
C2668 C2669 1.377 . S
C2669 H2653 0.930 . S
C2669 C2668 1.377 . S
C2669 C2670 1.379 . S
C2670 H2654 0.931 . S
C2670 C2664 1.383 . S
C2670 C2669 1.379 . S
H2671 C2665 0.959 . S
H2672 C2665 0.961 . S
H2673 C2665 0.960 . S
H2674 C2666 0.930 . S
H2675 C2667 0.929 . S
H2676 C2684 0.929 . S
H2677 C2686 0.930 . S
H2678 C2688 0.930 . S
H2679 C2691 0.929 . S
H2680 C2694 0.930 . S
H2681 C2696 0.960 . S
H2682 C2696 0.960 . S
H2683 C2696 0.960 . S
C2684 H2676 0.929 . S
C2684 C2685 1.377 . S
C2684 C2686 1.384 . S
C2685 C2684 1.377 . S
C2685 C2691 1.390 . S
C2686 H2677 0.930 . S
C2686 C2684 1.384 . S
C2686 C2687 1.372 . S
C2687 C2686 1.372 . S
C2687 C2688 1.400 . S
C2687 C2692 1.490 . S
C2688 H2678 0.930 . S
C2688 C2687 1.400 . S
C2688 C2691 1.386 . S
H2689 C2705 0.930 . S
H2690 C2706 0.931 . S
C2691 H2679 0.929 . S
C2691 C2685 1.390 . S
C2691 C2688 1.386 . S
C2692 C2687 1.490 . S
C2692 C2694 1.395 . S
C2692 C2695 1.403 . S
H2693 C2699 0.930 . S
C2694 H2680 0.930 . S
C2694 C2692 1.395 . S
C2694 C2697 1.403 . S
C2695 C2692 1.403 . S
C2695 C2696 1.524 . S
C2695 C2699 1.400 . S
C2696 H2681 0.960 . S
C2696 H2682 0.960 . S
C2696 H2683 0.960 . S
C2696 C2695 1.524 . S
C2697 C2694 1.403 . S
C2697 C2698 1.392 . S
C2697 C2701 1.495 . S
C2698 C2697 1.392 . S
C2698 C2699 1.385 . S
C2698 C2700 1.478 . S
C2699 H2693 0.930 . S
C2699 C2695 1.400 . S
C2699 C2698 1.385 . S
C2700 C2698 1.478 . S
C2700 C2702 1.381 . S
C2700 C2706 1.383 . S
C2701 C2697 1.495 . S
C2701 H2707 0.959 . S
C2701 H2708 0.961 . S
C2701 H2709 0.960 . S
C2702 C2700 1.381 . S
C2702 C2703 1.394 . S
C2702 H2710 0.930 . S
C2703 C2702 1.394 . S
C2703 C2704 1.383 . S
C2703 H2711 0.929 . S
C2704 C2703 1.383 . S
C2704 C2705 1.377 . S
C2705 H2689 0.930 . S
C2705 C2704 1.377 . S
C2705 C2706 1.379 . S
C2706 H2690 0.931 . S
C2706 C2700 1.383 . S
C2706 C2705 1.379 . S
H2707 C2701 0.959 . S
H2708 C2701 0.961 . S
H2709 C2701 0.960 . S
H2710 C2702 0.930 . S
H2711 C2703 0.929 . S
H2712 C2720 0.929 . S
H2713 C2722 0.930 . S
H2714 C2724 0.930 . S
H2715 C2727 0.929 . S
H2716 C2730 0.930 . S
H2717 C2732 0.960 . S
H2718 C2732 0.960 . S
H2719 C2732 0.960 . S
C2720 H2712 0.929 . S
C2720 C2721 1.377 . S
C2720 C2722 1.384 . S
C2721 C2720 1.377 . S
C2721 C2727 1.390 . S
C2722 H2713 0.930 . S
C2722 C2720 1.384 . S
C2722 C2723 1.372 . S
C2723 C2722 1.372 . S
C2723 C2724 1.400 . S
C2723 C2728 1.490 . S
C2724 H2714 0.930 . S
C2724 C2723 1.400 . S
C2724 C2727 1.386 . S
H2725 C2741 0.930 . S
H2726 C2742 0.931 . S
C2727 H2715 0.929 . S
C2727 C2721 1.390 . S
C2727 C2724 1.386 . S
C2728 C2723 1.490 . S
C2728 C2730 1.395 . S
C2728 C2731 1.403 . S
H2729 C2735 0.930 . S
C2730 H2716 0.930 . S
C2730 C2728 1.395 . S
C2730 C2733 1.403 . S
C2731 C2728 1.403 . S
C2731 C2732 1.524 . S
C2731 C2735 1.400 . S
C2732 H2717 0.960 . S
C2732 H2718 0.960 . S
C2732 H2719 0.960 . S
C2732 C2731 1.524 . S
C2733 C2730 1.403 . S
C2733 C2734 1.392 . S
C2733 C2737 1.495 . S
C2734 C2733 1.392 . S
C2734 C2735 1.385 . S
C2734 C2736 1.478 . S
C2735 H2729 0.930 . S
C2735 C2731 1.400 . S
C2735 C2734 1.385 . S
C2736 C2734 1.478 . S
C2736 C2738 1.381 . S
C2736 C2742 1.383 . S
C2737 C2733 1.495 . S
C2737 H2743 0.959 . S
C2737 H2744 0.961 . S
C2737 H2745 0.960 . S
C2738 C2736 1.381 . S
C2738 C2739 1.394 . S
C2738 H2746 0.930 . S
C2739 C2738 1.394 . S
C2739 C2740 1.383 . S
C2739 H2747 0.929 . S
C2740 C2739 1.383 . S
C2740 C2741 1.377 . S
C2741 H2725 0.930 . S
C2741 C2740 1.377 . S
C2741 C2742 1.379 . S
C2742 H2726 0.931 . S
C2742 C2736 1.383 . S
C2742 C2741 1.379 . S
H2743 C2737 0.959 . S
H2744 C2737 0.961 . S
H2745 C2737 0.960 . S
H2746 C2738 0.930 . S
H2747 C2739 0.929 . S
H2748 C2756 0.929 . S
H2749 C2758 0.930 . S
H2750 C2760 0.930 . S
H2751 C2763 0.929 . S
H2752 C2766 0.930 . S
H2753 C2768 0.960 . S
H2754 C2768 0.960 . S
H2755 C2768 0.960 . S
C2756 H2748 0.929 . S
C2756 C2757 1.377 . S
C2756 C2758 1.384 . S
C2757 C2756 1.377 . S
C2757 C2763 1.390 . S
C2758 H2749 0.930 . S
C2758 C2756 1.384 . S
C2758 C2759 1.372 . S
C2759 C2758 1.372 . S
C2759 C2760 1.400 . S
C2759 C2764 1.490 . S
C2760 H2750 0.930 . S
C2760 C2759 1.400 . S
C2760 C2763 1.386 . S
H2761 C2777 0.930 . S
H2762 C2778 0.931 . S
C2763 H2751 0.929 . S
C2763 C2757 1.390 . S
C2763 C2760 1.386 . S
C2764 C2759 1.490 . S
C2764 C2766 1.395 . S
C2764 C2767 1.403 . S
H2765 C2771 0.930 . S
C2766 H2752 0.930 . S
C2766 C2764 1.395 . S
C2766 C2769 1.403 . S
C2767 C2764 1.403 . S
C2767 C2768 1.524 . S
C2767 C2771 1.400 . S
C2768 H2753 0.960 . S
C2768 H2754 0.960 . S
C2768 H2755 0.960 . S
C2768 C2767 1.524 . S
C2769 C2766 1.403 . S
C2769 C2770 1.392 . S
C2769 C2773 1.495 . S
C2770 C2769 1.392 . S
C2770 C2771 1.385 . S
C2770 C2772 1.478 . S
C2771 H2765 0.930 . S
C2771 C2767 1.400 . S
C2771 C2770 1.385 . S
C2772 C2770 1.478 . S
C2772 C2774 1.381 . S
C2772 C2778 1.383 . S
C2773 C2769 1.495 . S
C2773 H2779 0.959 . S
C2773 H2780 0.961 . S
C2773 H2781 0.960 . S
C2774 C2772 1.381 . S
C2774 C2775 1.394 . S
C2774 H2782 0.930 . S
C2775 C2774 1.394 . S
C2775 C2776 1.383 . S
C2775 H2783 0.929 . S
C2776 C2775 1.383 . S
C2776 C2777 1.377 . S
C2777 H2761 0.930 . S
C2777 C2776 1.377 . S
C2777 C2778 1.379 . S
C2778 H2762 0.931 . S
C2778 C2772 1.383 . S
C2778 C2777 1.379 . S
H2779 C2773 0.959 . S
H2780 C2773 0.961 . S
H2781 C2773 0.960 . S
H2782 C2774 0.930 . S
H2783 C2775 0.929 . S
H2784 C2792 0.929 . S
H2785 C2794 0.930 . S
H2786 C2796 0.930 . S
H2787 C2799 0.929 . S
H2788 C2802 0.930 . S
H2789 C2804 0.960 . S
H2790 C2804 0.960 . S
H2791 C2804 0.960 . S
C2792 H2784 0.929 . S
C2792 C2793 1.377 . S
C2792 C2794 1.384 . S
C2793 C2792 1.377 . S
C2793 C2799 1.390 . S
C2794 H2785 0.930 . S
C2794 C2792 1.384 . S
C2794 C2795 1.372 . S
C2795 C2794 1.372 . S
C2795 C2796 1.400 . S
C2795 C2800 1.490 . S
C2796 H2786 0.930 . S
C2796 C2795 1.400 . S
C2796 C2799 1.386 . S
H2797 C2813 0.930 . S
H2798 C2814 0.931 . S
C2799 H2787 0.929 . S
C2799 C2793 1.390 . S
C2799 C2796 1.386 . S
C2800 C2795 1.490 . S
C2800 C2802 1.395 . S
C2800 C2803 1.403 . S
H2801 C2807 0.930 . S
C2802 H2788 0.930 . S
C2802 C2800 1.395 . S
C2802 C2805 1.403 . S
C2803 C2800 1.403 . S
C2803 C2804 1.524 . S
C2803 C2807 1.400 . S
C2804 H2789 0.960 . S
C2804 H2790 0.960 . S
C2804 H2791 0.960 . S
C2804 C2803 1.524 . S
C2805 C2802 1.403 . S
C2805 C2806 1.392 . S
C2805 C2809 1.495 . S
C2806 C2805 1.392 . S
C2806 C2807 1.385 . S
C2806 C2808 1.478 . S
C2807 H2801 0.930 . S
C2807 C2803 1.400 . S
C2807 C2806 1.385 . S
C2808 C2806 1.478 . S
C2808 C2810 1.381 . S
C2808 C2814 1.383 . S
C2809 C2805 1.495 . S
C2809 H2815 0.959 . S
C2809 H2816 0.961 . S
C2809 H2817 0.960 . S
C2810 C2808 1.381 . S
C2810 C2811 1.394 . S
C2810 H2818 0.930 . S
C2811 C2810 1.394 . S
C2811 C2812 1.383 . S
C2811 H2819 0.929 . S
C2812 C2811 1.383 . S
C2812 C2813 1.377 . S
C2813 H2797 0.930 . S
C2813 C2812 1.377 . S
C2813 C2814 1.379 . S
C2814 H2798 0.931 . S
C2814 C2808 1.383 . S
C2814 C2813 1.379 . S
H2815 C2809 0.959 . S
H2816 C2809 0.961 . S
H2817 C2809 0.960 . S
H2818 C2810 0.930 . S
H2819 C2811 0.929 . S
H2820 C2828 0.929 . S
H2821 C2830 0.930 . S
H2822 C2832 0.930 . S
H2823 C2835 0.929 . S
H2824 C2838 0.930 . S
H2825 C2840 0.960 . S
H2826 C2840 0.960 . S
H2827 C2840 0.960 . S
C2828 H2820 0.929 . S
C2828 C2829 1.377 . S
C2828 C2830 1.384 . S
C2829 C2828 1.377 . S
C2829 C2835 1.390 . S
C2830 H2821 0.930 . S
C2830 C2828 1.384 . S
C2830 C2831 1.372 . S
C2831 C2830 1.372 . S
C2831 C2832 1.400 . S
C2831 C2836 1.490 . S
C2832 H2822 0.930 . S
C2832 C2831 1.400 . S
C2832 C2835 1.386 . S
H2833 C2849 0.930 . S
H2834 C2850 0.931 . S
C2835 H2823 0.929 . S
C2835 C2829 1.390 . S
C2835 C2832 1.386 . S
C2836 C2831 1.490 . S
C2836 C2838 1.395 . S
C2836 C2839 1.403 . S
H2837 C2843 0.930 . S
C2838 H2824 0.930 . S
C2838 C2836 1.395 . S
C2838 C2841 1.403 . S
C2839 C2836 1.403 . S
C2839 C2840 1.524 . S
C2839 C2843 1.400 . S
C2840 H2825 0.960 . S
C2840 H2826 0.960 . S
C2840 H2827 0.960 . S
C2840 C2839 1.524 . S
C2841 C2838 1.403 . S
C2841 C2842 1.392 . S
C2841 C2845 1.495 . S
C2842 C2841 1.392 . S
C2842 C2843 1.385 . S
C2842 C2844 1.478 . S
C2843 H2837 0.930 . S
C2843 C2839 1.400 . S
C2843 C2842 1.385 . S
C2844 C2842 1.478 . S
C2844 C2846 1.381 . S
C2844 C2850 1.383 . S
C2845 C2841 1.495 . S
C2845 H2851 0.959 . S
C2845 H2852 0.961 . S
C2845 H2853 0.960 . S
C2846 C2844 1.381 . S
C2846 C2847 1.394 . S
C2846 H2854 0.930 . S
C2847 C2846 1.394 . S
C2847 C2848 1.383 . S
C2847 H2855 0.929 . S
C2848 C2847 1.383 . S
C2848 C2849 1.377 . S
C2849 H2833 0.930 . S
C2849 C2848 1.377 . S
C2849 C2850 1.379 . S
C2850 H2834 0.931 . S
C2850 C2844 1.383 . S
C2850 C2849 1.379 . S
H2851 C2845 0.959 . S
H2852 C2845 0.961 . S
H2853 C2845 0.960 . S
H2854 C2846 0.930 . S
H2855 C2847 0.929 . S
H2856 C2864 0.929 . S
H2857 C2866 0.930 . S
H2858 C2868 0.930 . S
H2859 C2871 0.929 . S
H2860 C2874 0.930 . S
H2861 C2876 0.960 . S
H2862 C2876 0.960 . S
H2863 C2876 0.960 . S
C2864 H2856 0.929 . S
C2864 C2865 1.377 . S
C2864 C2866 1.384 . S
C2865 C2864 1.377 . S
C2865 C2871 1.390 . S
C2866 H2857 0.930 . S
C2866 C2864 1.384 . S
C2866 C2867 1.372 . S
C2867 C2866 1.372 . S
C2867 C2868 1.400 . S
C2867 C2872 1.490 . S
C2868 H2858 0.930 . S
C2868 C2867 1.400 . S
C2868 C2871 1.386 . S
H2869 C2885 0.930 . S
H2870 C2886 0.931 . S
C2871 H2859 0.929 . S
C2871 C2865 1.390 . S
C2871 C2868 1.386 . S
C2872 C2867 1.490 . S
C2872 C2874 1.395 . S
C2872 C2875 1.403 . S
H2873 C2879 0.930 . S
C2874 H2860 0.930 . S
C2874 C2872 1.395 . S
C2874 C2877 1.403 . S
C2875 C2872 1.403 . S
C2875 C2876 1.524 . S
C2875 C2879 1.400 . S
C2876 H2861 0.960 . S
C2876 H2862 0.960 . S
C2876 H2863 0.960 . S
C2876 C2875 1.524 . S
C2877 C2874 1.403 . S
C2877 C2878 1.392 . S
C2877 C2881 1.495 . S
C2878 C2877 1.392 . S
C2878 C2879 1.385 . S
C2878 C2880 1.478 . S
C2879 H2873 0.930 . S
C2879 C2875 1.400 . S
C2879 C2878 1.385 . S
C2880 C2878 1.478 . S
C2880 C2882 1.381 . S
C2880 C2886 1.383 . S
C2881 C2877 1.495 . S
C2881 H2887 0.959 . S
C2881 H2888 0.961 . S
C2881 H2889 0.960 . S
C2882 C2880 1.381 . S
C2882 C2883 1.394 . S
C2882 H2890 0.930 . S
C2883 C2882 1.394 . S
C2883 C2884 1.383 . S
C2883 H2891 0.929 . S
C2884 C2883 1.383 . S
C2884 C2885 1.377 . S
C2885 H2869 0.930 . S
C2885 C2884 1.377 . S
C2885 C2886 1.379 . S
C2886 H2870 0.931 . S
C2886 C2880 1.383 . S
C2886 C2885 1.379 . S
H2887 C2881 0.959 . S
H2888 C2881 0.961 . S
H2889 C2881 0.960 . S
H2890 C2882 0.930 . S
H2891 C2883 0.929 . S
H2892 C2900 0.929 . S
H2893 C2902 0.930 . S
H2894 C2904 0.930 . S
H2895 C2907 0.929 . S
H2896 C2910 0.930 . S
H2897 C2912 0.960 . S
H2898 C2912 0.960 . S
H2899 C2912 0.960 . S
C2900 H2892 0.929 . S
C2900 C2901 1.377 . S
C2900 C2902 1.384 . S
C2901 C2900 1.377 . S
C2901 C2907 1.390 . S
C2902 H2893 0.930 . S
C2902 C2900 1.384 . S
C2902 C2903 1.372 . S
C2903 C2902 1.372 . S
C2903 C2904 1.400 . S
C2903 C2908 1.490 . S
C2904 H2894 0.930 . S
C2904 C2903 1.400 . S
C2904 C2907 1.386 . S
H2905 C2921 0.930 . S
H2906 C2922 0.931 . S
C2907 H2895 0.929 . S
C2907 C2901 1.390 . S
C2907 C2904 1.386 . S
C2908 C2903 1.490 . S
C2908 C2910 1.395 . S
C2908 C2911 1.403 . S
H2909 C2915 0.930 . S
C2910 H2896 0.930 . S
C2910 C2908 1.395 . S
C2910 C2913 1.403 . S
C2911 C2908 1.403 . S
C2911 C2912 1.524 . S
C2911 C2915 1.400 . S
C2912 H2897 0.960 . S
C2912 H2898 0.960 . S
C2912 H2899 0.960 . S
C2912 C2911 1.524 . S
C2913 C2910 1.403 . S
C2913 C2914 1.392 . S
C2913 C2917 1.495 . S
C2914 C2913 1.392 . S
C2914 C2915 1.385 . S
C2914 C2916 1.478 . S
C2915 H2909 0.930 . S
C2915 C2911 1.400 . S
C2915 C2914 1.385 . S
C2916 C2914 1.478 . S
C2916 C2918 1.381 . S
C2916 C2922 1.383 . S
C2917 C2913 1.495 . S
C2917 H2923 0.959 . S
C2917 H2924 0.961 . S
C2917 H2925 0.960 . S
C2918 C2916 1.381 . S
C2918 C2919 1.394 . S
C2918 H2926 0.930 . S
C2919 C2918 1.394 . S
C2919 C2920 1.383 . S
C2919 H2927 0.929 . S
C2920 C2919 1.383 . S
C2920 C2921 1.377 . S
C2921 H2905 0.930 . S
C2921 C2920 1.377 . S
C2921 C2922 1.379 . S
C2922 H2906 0.931 . S
C2922 C2916 1.383 . S
C2922 C2921 1.379 . S
H2923 C2917 0.959 . S
H2924 C2917 0.961 . S
H2925 C2917 0.960 . S
H2926 C2918 0.930 . S
H2927 C2919 0.929 . S
H2928 C2936 0.929 . S
H2929 C2938 0.930 . S
H2930 C2940 0.930 . S
H2931 C2943 0.929 . S
H2932 C2946 0.930 . S
H2933 C2948 0.960 . S
H2934 C2948 0.960 . S
H2935 C2948 0.960 . S
C2936 H2928 0.929 . S
C2936 C2937 1.377 . S
C2936 C2938 1.384 . S
C2937 C2936 1.377 . S
C2937 C2943 1.390 . S
C2938 H2929 0.930 . S
C2938 C2936 1.384 . S
C2938 C2939 1.372 . S
C2939 C2938 1.372 . S
C2939 C2940 1.400 . S
C2939 C2944 1.490 . S
C2940 H2930 0.930 . S
C2940 C2939 1.400 . S
C2940 C2943 1.386 . S
H2941 C2957 0.930 . S
H2942 C2958 0.931 . S
C2943 H2931 0.929 . S
C2943 C2937 1.390 . S
C2943 C2940 1.386 . S
C2944 C2939 1.490 . S
C2944 C2946 1.395 . S
C2944 C2947 1.403 . S
H2945 C2951 0.930 . S
C2946 H2932 0.930 . S
C2946 C2944 1.395 . S
C2946 C2949 1.403 . S
C2947 C2944 1.403 . S
C2947 C2948 1.524 . S
C2947 C2951 1.400 . S
C2948 H2933 0.960 . S
C2948 H2934 0.960 . S
C2948 H2935 0.960 . S
C2948 C2947 1.524 . S
C2949 C2946 1.403 . S
C2949 C2950 1.392 . S
C2949 C2953 1.495 . S
C2950 C2949 1.392 . S
C2950 C2951 1.385 . S
C2950 C2952 1.478 . S
C2951 H2945 0.930 . S
C2951 C2947 1.400 . S
C2951 C2950 1.385 . S
C2952 C2950 1.478 . S
C2952 C2954 1.381 . S
C2952 C2958 1.383 . S
C2953 C2949 1.495 . S
C2953 H2959 0.959 . S
C2953 H2960 0.961 . S
C2953 H2961 0.960 . S
C2954 C2952 1.381 . S
C2954 C2955 1.394 . S
C2954 H2962 0.930 . S
C2955 C2954 1.394 . S
C2955 C2956 1.383 . S
C2955 H2963 0.929 . S
C2956 C2955 1.383 . S
C2956 C2957 1.377 . S
C2957 H2941 0.930 . S
C2957 C2956 1.377 . S
C2957 C2958 1.379 . S
C2958 H2942 0.931 . S
C2958 C2952 1.383 . S
C2958 C2957 1.379 . S
H2959 C2953 0.959 . S
H2960 C2953 0.961 . S
H2961 C2953 0.960 . S
H2962 C2954 0.930 . S
H2963 C2955 0.929 . S
H2964 C2972 0.929 . S
H2965 C2974 0.930 . S
H2966 C2976 0.930 . S
H2967 C2979 0.929 . S
H2968 C2982 0.930 . S
H2969 C2984 0.960 . S
H2970 C2984 0.960 . S
H2971 C2984 0.960 . S
C2972 H2964 0.929 . S
C2972 C2973 1.377 . S
C2972 C2974 1.384 . S
C2973 C2972 1.377 . S
C2973 C2979 1.390 . S
C2974 H2965 0.930 . S
C2974 C2972 1.384 . S
C2974 C2975 1.372 . S
C2975 C2974 1.372 . S
C2975 C2976 1.400 . S
C2975 C2980 1.490 . S
C2976 H2966 0.930 . S
C2976 C2975 1.400 . S
C2976 C2979 1.386 . S
H2977 C2993 0.930 . S
H2978 C2994 0.931 . S
C2979 H2967 0.929 . S
C2979 C2973 1.390 . S
C2979 C2976 1.386 . S
C2980 C2975 1.490 . S
C2980 C2982 1.395 . S
C2980 C2983 1.403 . S
H2981 C2987 0.930 . S
C2982 H2968 0.930 . S
C2982 C2980 1.395 . S
C2982 C2985 1.403 . S
C2983 C2980 1.403 . S
C2983 C2984 1.524 . S
C2983 C2987 1.400 . S
C2984 H2969 0.960 . S
C2984 H2970 0.960 . S
C2984 H2971 0.960 . S
C2984 C2983 1.524 . S
C2985 C2982 1.403 . S
C2985 C2986 1.392 . S
C2985 C2989 1.495 . S
C2986 C2985 1.392 . S
C2986 C2987 1.385 . S
C2986 C2988 1.478 . S
C2987 H2981 0.930 . S
C2987 C2983 1.400 . S
C2987 C2986 1.385 . S
C2988 C2986 1.478 . S
C2988 C2990 1.381 . S
C2988 C2994 1.383 . S
C2989 C2985 1.495 . S
C2989 H2995 0.959 . S
C2989 H2996 0.961 . S
C2989 H2997 0.960 . S
C2990 C2988 1.381 . S
C2990 C2991 1.394 . S
C2990 H2998 0.930 . S
C2991 C2990 1.394 . S
C2991 C2992 1.383 . S
C2991 H2999 0.929 . S
C2992 C2991 1.383 . S
C2992 C2993 1.377 . S
C2993 H2977 0.930 . S
C2993 C2992 1.377 . S
C2993 C2994 1.379 . S
C2994 H2978 0.931 . S
C2994 C2988 1.383 . S
C2994 C2993 1.379 . S
H2995 C2989 0.959 . S
H2996 C2989 0.961 . S
H2997 C2989 0.960 . S
H2998 C2990 0.930 . S
H2999 C2991 0.929 . S
H3000 C3008 0.929 . S
H3001 C3010 0.930 . S
H3002 C3012 0.930 . S
H3003 C3015 0.929 . S
H3004 C3018 0.930 . S
H3005 C3020 0.960 . S
H3006 C3020 0.960 . S
H3007 C3020 0.960 . S
C3008 H3000 0.929 . S
C3008 C3009 1.377 . S
C3008 C3010 1.384 . S
C3009 C3008 1.377 . S
C3009 C3015 1.390 . S
C3010 H3001 0.930 . S
C3010 C3008 1.384 . S
C3010 C3011 1.372 . S
C3011 C3010 1.372 . S
C3011 C3012 1.400 . S
C3011 C3016 1.490 . S
C3012 H3002 0.930 . S
C3012 C3011 1.400 . S
C3012 C3015 1.386 . S
H3013 C3029 0.930 . S
H3014 C3030 0.931 . S
C3015 H3003 0.929 . S
C3015 C3009 1.390 . S
C3015 C3012 1.386 . S
C3016 C3011 1.490 . S
C3016 C3018 1.395 . S
C3016 C3019 1.403 . S
H3017 C3023 0.930 . S
C3018 H3004 0.930 . S
C3018 C3016 1.395 . S
C3018 C3021 1.403 . S
C3019 C3016 1.403 . S
C3019 C3020 1.524 . S
C3019 C3023 1.400 . S
C3020 H3005 0.960 . S
C3020 H3006 0.960 . S
C3020 H3007 0.960 . S
C3020 C3019 1.524 . S
C3021 C3018 1.403 . S
C3021 C3022 1.392 . S
C3021 C3025 1.495 . S
C3022 C3021 1.392 . S
C3022 C3023 1.385 . S
C3022 C3024 1.478 . S
C3023 H3017 0.930 . S
C3023 C3019 1.400 . S
C3023 C3022 1.385 . S
C3024 C3022 1.478 . S
C3024 C3026 1.381 . S
C3024 C3030 1.383 . S
C3025 C3021 1.495 . S
C3025 H3031 0.959 . S
C3025 H3032 0.961 . S
C3025 H3033 0.960 . S
C3026 C3024 1.381 . S
C3026 C3027 1.394 . S
C3026 H3034 0.930 . S
C3027 C3026 1.394 . S
C3027 C3028 1.383 . S
C3027 H3035 0.929 . S
C3028 C3027 1.383 . S
C3028 C3029 1.377 . S
C3029 H3013 0.930 . S
C3029 C3028 1.377 . S
C3029 C3030 1.379 . S
C3030 H3014 0.931 . S
C3030 C3024 1.383 . S
C3030 C3029 1.379 . S
H3031 C3025 0.959 . S
H3032 C3025 0.961 . S
H3033 C3025 0.960 . S
H3034 C3026 0.930 . S
H3035 C3027 0.929 . S
H3036 C3044 0.929 . S
H3037 C3046 0.930 . S
H3038 C3048 0.930 . S
H3039 C3051 0.929 . S
H3040 C3054 0.930 . S
H3041 C3056 0.960 . S
H3042 C3056 0.960 . S
H3043 C3056 0.960 . S
C3044 H3036 0.929 . S
C3044 C3045 1.377 . S
C3044 C3046 1.384 . S
C3045 C3044 1.377 . S
C3045 C3051 1.390 . S
C3046 H3037 0.930 . S
C3046 C3044 1.384 . S
C3046 C3047 1.372 . S
C3047 C3046 1.372 . S
C3047 C3048 1.400 . S
C3047 C3052 1.490 . S
C3048 H3038 0.930 . S
C3048 C3047 1.400 . S
C3048 C3051 1.386 . S
H3049 C3065 0.930 . S
H3050 C3066 0.931 . S
C3051 H3039 0.929 . S
C3051 C3045 1.390 . S
C3051 C3048 1.386 . S
C3052 C3047 1.490 . S
C3052 C3054 1.395 . S
C3052 C3055 1.403 . S
H3053 C3059 0.930 . S
C3054 H3040 0.930 . S
C3054 C3052 1.395 . S
C3054 C3057 1.403 . S
C3055 C3052 1.403 . S
C3055 C3056 1.524 . S
C3055 C3059 1.400 . S
C3056 H3041 0.960 . S
C3056 H3042 0.960 . S
C3056 H3043 0.960 . S
C3056 C3055 1.524 . S
C3057 C3054 1.403 . S
C3057 C3058 1.392 . S
C3057 C3061 1.495 . S
C3058 C3057 1.392 . S
C3058 C3059 1.385 . S
C3058 C3060 1.478 . S
C3059 H3053 0.930 . S
C3059 C3055 1.400 . S
C3059 C3058 1.385 . S
C3060 C3058 1.478 . S
C3060 C3062 1.381 . S
C3060 C3066 1.383 . S
C3061 C3057 1.495 . S
C3061 H3067 0.959 . S
C3061 H3068 0.961 . S
C3061 H3069 0.960 . S
C3062 C3060 1.381 . S
C3062 C3063 1.394 . S
C3062 H3070 0.930 . S
C3063 C3062 1.394 . S
C3063 C3064 1.383 . S
C3063 H3071 0.929 . S
C3064 C3063 1.383 . S
C3064 C3065 1.377 . S
C3065 H3049 0.930 . S
C3065 C3064 1.377 . S
C3065 C3066 1.379 . S
C3066 H3050 0.931 . S
C3066 C3060 1.383 . S
C3066 C3065 1.379 . S
H3067 C3061 0.959 . S
H3068 C3061 0.961 . S
H3069 C3061 0.960 . S
H3070 C3062 0.930 . S
H3071 C3063 0.929 . S
H3072 C3080 0.929 . S
H3073 C3082 0.930 . S
H3074 C3084 0.930 . S
H3075 C3087 0.929 . S
H3076 C3090 0.930 . S
H3077 C3092 0.960 . S
H3078 C3092 0.960 . S
H3079 C3092 0.960 . S
C3080 H3072 0.929 . S
C3080 C3081 1.377 . S
C3080 C3082 1.384 . S
C3081 C3080 1.377 . S
C3081 C3087 1.390 . S
C3082 H3073 0.930 . S
C3082 C3080 1.384 . S
C3082 C3083 1.372 . S
C3083 C3082 1.372 . S
C3083 C3084 1.400 . S
C3083 C3088 1.490 . S
C3084 H3074 0.930 . S
C3084 C3083 1.400 . S
C3084 C3087 1.386 . S
H3085 C3101 0.930 . S
H3086 C3102 0.931 . S
C3087 H3075 0.929 . S
C3087 C3081 1.390 . S
C3087 C3084 1.386 . S
C3088 C3083 1.490 . S
C3088 C3090 1.395 . S
C3088 C3091 1.403 . S
H3089 C3095 0.930 . S
C3090 H3076 0.930 . S
C3090 C3088 1.395 . S
C3090 C3093 1.403 . S
C3091 C3088 1.403 . S
C3091 C3092 1.524 . S
C3091 C3095 1.400 . S
C3092 H3077 0.960 . S
C3092 H3078 0.960 . S
C3092 H3079 0.960 . S
C3092 C3091 1.524 . S
C3093 C3090 1.403 . S
C3093 C3094 1.392 . S
C3093 C3097 1.495 . S
C3094 C3093 1.392 . S
C3094 C3095 1.385 . S
C3094 C3096 1.478 . S
C3095 H3089 0.930 . S
C3095 C3091 1.400 . S
C3095 C3094 1.385 . S
C3096 C3094 1.478 . S
C3096 C3098 1.381 . S
C3096 C3102 1.383 . S
C3097 C3093 1.495 . S
C3097 H3103 0.959 . S
C3097 H3104 0.961 . S
C3097 H3105 0.960 . S
C3098 C3096 1.381 . S
C3098 C3099 1.394 . S
C3098 H3106 0.930 . S
C3099 C3098 1.394 . S
C3099 C3100 1.383 . S
C3099 H3107 0.929 . S
C3100 C3099 1.383 . S
C3100 C3101 1.377 . S
C3101 H3085 0.930 . S
C3101 C3100 1.377 . S
C3101 C3102 1.379 . S
C3102 H3086 0.931 . S
C3102 C3096 1.383 . S
C3102 C3101 1.379 . S
H3103 C3097 0.959 . S
H3104 C3097 0.961 . S
H3105 C3097 0.960 . S
H3106 C3098 0.930 . S
H3107 C3099 0.929 . S
H3108 C3116 0.929 . S
H3109 C3118 0.930 . S
H3110 C3120 0.930 . S
H3111 C3123 0.929 . S
H3112 C3126 0.930 . S
H3113 C3128 0.960 . S
H3114 C3128 0.960 . S
H3115 C3128 0.960 . S
C3116 H3108 0.929 . S
C3116 C3117 1.377 . S
C3116 C3118 1.384 . S
C3117 C3116 1.377 . S
C3117 C3123 1.390 . S
C3118 H3109 0.930 . S
C3118 C3116 1.384 . S
C3118 C3119 1.372 . S
C3119 C3118 1.372 . S
C3119 C3120 1.400 . S
C3119 C3124 1.490 . S
C3120 H3110 0.930 . S
C3120 C3119 1.400 . S
C3120 C3123 1.386 . S
H3121 C3137 0.930 . S
H3122 C3138 0.931 . S
C3123 H3111 0.929 . S
C3123 C3117 1.390 . S
C3123 C3120 1.386 . S
C3124 C3119 1.490 . S
C3124 C3126 1.395 . S
C3124 C3127 1.403 . S
H3125 C3131 0.930 . S
C3126 H3112 0.930 . S
C3126 C3124 1.395 . S
C3126 C3129 1.403 . S
C3127 C3124 1.403 . S
C3127 C3128 1.524 . S
C3127 C3131 1.400 . S
C3128 H3113 0.960 . S
C3128 H3114 0.960 . S
C3128 H3115 0.960 . S
C3128 C3127 1.524 . S
C3129 C3126 1.403 . S
C3129 C3130 1.392 . S
C3129 C3133 1.495 . S
C3130 C3129 1.392 . S
C3130 C3131 1.385 . S
C3130 C3132 1.478 . S
C3131 H3125 0.930 . S
C3131 C3127 1.400 . S
C3131 C3130 1.385 . S
C3132 C3130 1.478 . S
C3132 C3134 1.381 . S
C3132 C3138 1.383 . S
C3133 C3129 1.495 . S
C3133 H3139 0.959 . S
C3133 H3140 0.961 . S
C3133 H3141 0.960 . S
C3134 C3132 1.381 . S
C3134 C3135 1.394 . S
C3134 H3142 0.930 . S
C3135 C3134 1.394 . S
C3135 C3136 1.383 . S
C3135 H3143 0.929 . S
C3136 C3135 1.383 . S
C3136 C3137 1.377 . S
C3137 H3121 0.930 . S
C3137 C3136 1.377 . S
C3137 C3138 1.379 . S
C3138 H3122 0.931 . S
C3138 C3132 1.383 . S
C3138 C3137 1.379 . S
H3139 C3133 0.959 . S
H3140 C3133 0.961 . S
H3141 C3133 0.960 . S
H3142 C3134 0.930 . S
H3143 C3135 0.929 . S
H3144 C3152 0.929 . S
H3145 C3154 0.930 . S
H3146 C3156 0.930 . S
H3147 C3159 0.929 . S
H3148 C3162 0.930 . S
H3149 C3164 0.960 . S
H3150 C3164 0.960 . S
H3151 C3164 0.960 . S
C3152 H3144 0.929 . S
C3152 C3153 1.377 . S
C3152 C3154 1.384 . S
C3153 C3152 1.377 . S
C3153 C3159 1.390 . S
C3154 H3145 0.930 . S
C3154 C3152 1.384 . S
C3154 C3155 1.372 . S
C3155 C3154 1.372 . S
C3155 C3156 1.400 . S
C3155 C3160 1.490 . S
C3156 H3146 0.930 . S
C3156 C3155 1.400 . S
C3156 C3159 1.386 . S
H3157 C3173 0.930 . S
H3158 C3174 0.931 . S
C3159 H3147 0.929 . S
C3159 C3153 1.390 . S
C3159 C3156 1.386 . S
C3160 C3155 1.490 . S
C3160 C3162 1.395 . S
C3160 C3163 1.403 . S
H3161 C3167 0.930 . S
C3162 H3148 0.930 . S
C3162 C3160 1.395 . S
C3162 C3165 1.403 . S
C3163 C3160 1.403 . S
C3163 C3164 1.524 . S
C3163 C3167 1.400 . S
C3164 H3149 0.960 . S
C3164 H3150 0.960 . S
C3164 H3151 0.960 . S
C3164 C3163 1.524 . S
C3165 C3162 1.403 . S
C3165 C3166 1.392 . S
C3165 C3169 1.495 . S
C3166 C3165 1.392 . S
C3166 C3167 1.385 . S
C3166 C3168 1.478 . S
C3167 H3161 0.930 . S
C3167 C3163 1.400 . S
C3167 C3166 1.385 . S
C3168 C3166 1.478 . S
C3168 C3170 1.381 . S
C3168 C3174 1.383 . S
C3169 C3165 1.495 . S
C3169 H3175 0.959 . S
C3169 H3176 0.961 . S
C3169 H3177 0.960 . S
C3170 C3168 1.381 . S
C3170 C3171 1.394 . S
C3170 H3178 0.930 . S
C3171 C3170 1.394 . S
C3171 C3172 1.383 . S
C3171 H3179 0.929 . S
C3172 C3171 1.383 . S
C3172 C3173 1.377 . S
C3173 H3157 0.930 . S
C3173 C3172 1.377 . S
C3173 C3174 1.379 . S
C3174 H3158 0.931 . S
C3174 C3168 1.383 . S
C3174 C3173 1.379 . S
H3175 C3169 0.959 . S
H3176 C3169 0.961 . S
H3177 C3169 0.960 . S
H3178 C3170 0.930 . S
H3179 C3171 0.929 . S
H3180 C3188 0.929 . S
H3181 C3190 0.930 . S
H3182 C3192 0.930 . S
H3183 C3195 0.929 . S
H3184 C3198 0.930 . S
H3185 C3200 0.960 . S
H3186 C3200 0.960 . S
H3187 C3200 0.960 . S
C3188 H3180 0.929 . S
C3188 C3189 1.377 . S
C3188 C3190 1.384 . S
C3189 C3188 1.377 . S
C3189 C3195 1.390 . S
C3190 H3181 0.930 . S
C3190 C3188 1.384 . S
C3190 C3191 1.372 . S
C3191 C3190 1.372 . S
C3191 C3192 1.400 . S
C3191 C3196 1.490 . S
C3192 H3182 0.930 . S
C3192 C3191 1.400 . S
C3192 C3195 1.386 . S
H3193 C3209 0.930 . S
H3194 C3210 0.931 . S
C3195 H3183 0.929 . S
C3195 C3189 1.390 . S
C3195 C3192 1.386 . S
C3196 C3191 1.490 . S
C3196 C3198 1.395 . S
C3196 C3199 1.403 . S
H3197 C3203 0.930 . S
C3198 H3184 0.930 . S
C3198 C3196 1.395 . S
C3198 C3201 1.403 . S
C3199 C3196 1.403 . S
C3199 C3200 1.524 . S
C3199 C3203 1.400 . S
C3200 H3185 0.960 . S
C3200 H3186 0.960 . S
C3200 H3187 0.960 . S
C3200 C3199 1.524 . S
C3201 C3198 1.403 . S
C3201 C3202 1.392 . S
C3201 C3205 1.495 . S
C3202 C3201 1.392 . S
C3202 C3203 1.385 . S
C3202 C3204 1.478 . S
C3203 H3197 0.930 . S
C3203 C3199 1.400 . S
C3203 C3202 1.385 . S
C3204 C3202 1.478 . S
C3204 C3206 1.381 . S
C3204 C3210 1.383 . S
C3205 C3201 1.495 . S
C3205 H3211 0.959 . S
C3205 H3212 0.961 . S
C3205 H3213 0.960 . S
C3206 C3204 1.381 . S
C3206 C3207 1.394 . S
C3206 H3214 0.930 . S
C3207 C3206 1.394 . S
C3207 C3208 1.383 . S
C3207 H3215 0.929 . S
C3208 C3207 1.383 . S
C3208 C3209 1.377 . S
C3209 H3193 0.930 . S
C3209 C3208 1.377 . S
C3209 C3210 1.379 . S
C3210 H3194 0.931 . S
C3210 C3204 1.383 . S
C3210 C3209 1.379 . S
H3211 C3205 0.959 . S
H3212 C3205 0.961 . S
H3213 C3205 0.960 . S
H3214 C3206 0.930 . S
H3215 C3207 0.929 . S
H3216 C3224 0.929 . S
H3217 C3226 0.930 . S
H3218 C3228 0.930 . S
H3219 C3231 0.929 . S
H3220 C3234 0.930 . S
H3221 C3236 0.960 . S
H3222 C3236 0.960 . S
H3223 C3236 0.960 . S
C3224 H3216 0.929 . S
C3224 C3225 1.377 . S
C3224 C3226 1.384 . S
C3225 C3224 1.377 . S
C3225 C3231 1.390 . S
C3226 H3217 0.930 . S
C3226 C3224 1.384 . S
C3226 C3227 1.372 . S
C3227 C3226 1.372 . S
C3227 C3228 1.400 . S
C3227 C3232 1.490 . S
C3228 H3218 0.930 . S
C3228 C3227 1.400 . S
C3228 C3231 1.386 . S
H3229 C3245 0.930 . S
H3230 C3246 0.931 . S
C3231 H3219 0.929 . S
C3231 C3225 1.390 . S
C3231 C3228 1.386 . S
C3232 C3227 1.490 . S
C3232 C3234 1.395 . S
C3232 C3235 1.403 . S
H3233 C3239 0.930 . S
C3234 H3220 0.930 . S
C3234 C3232 1.395 . S
C3234 C3237 1.403 . S
C3235 C3232 1.403 . S
C3235 C3236 1.524 . S
C3235 C3239 1.400 . S
C3236 H3221 0.960 . S
C3236 H3222 0.960 . S
C3236 H3223 0.960 . S
C3236 C3235 1.524 . S
C3237 C3234 1.403 . S
C3237 C3238 1.392 . S
C3237 C3241 1.495 . S
C3238 C3237 1.392 . S
C3238 C3239 1.385 . S
C3238 C3240 1.478 . S
C3239 H3233 0.930 . S
C3239 C3235 1.400 . S
C3239 C3238 1.385 . S
C3240 C3238 1.478 . S
C3240 C3242 1.381 . S
C3240 C3246 1.383 . S
C3241 C3237 1.495 . S
C3241 H3247 0.959 . S
C3241 H3248 0.961 . S
C3241 H3249 0.960 . S
C3242 C3240 1.381 . S
C3242 C3243 1.394 . S
C3242 H3250 0.930 . S
C3243 C3242 1.394 . S
C3243 C3244 1.383 . S
C3243 H3251 0.929 . S
C3244 C3243 1.383 . S
C3244 C3245 1.377 . S
C3245 H3229 0.930 . S
C3245 C3244 1.377 . S
C3245 C3246 1.379 . S
C3246 H3230 0.931 . S
C3246 C3240 1.383 . S
C3246 C3245 1.379 . S
H3247 C3241 0.959 . S
H3248 C3241 0.961 . S
H3249 C3241 0.960 . S
H3250 C3242 0.930 . S
H3251 C3243 0.929 . S
H3252 C3260 0.929 . S
H3253 C3262 0.930 . S
H3254 C3264 0.930 . S
H3255 C3267 0.929 . S
H3256 C3270 0.930 . S
H3257 C3272 0.960 . S
H3258 C3272 0.960 . S
H3259 C3272 0.960 . S
C3260 H3252 0.929 . S
C3260 C3261 1.377 . S
C3260 C3262 1.384 . S
C3261 C3260 1.377 . S
C3261 C3267 1.390 . S
C3262 H3253 0.930 . S
C3262 C3260 1.384 . S
C3262 C3263 1.372 . S
C3263 C3262 1.372 . S
C3263 C3264 1.400 . S
C3263 C3268 1.490 . S
C3264 H3254 0.930 . S
C3264 C3263 1.400 . S
C3264 C3267 1.386 . S
H3265 C3281 0.930 . S
H3266 C3282 0.931 . S
C3267 H3255 0.929 . S
C3267 C3261 1.390 . S
C3267 C3264 1.386 . S
C3268 C3263 1.490 . S
C3268 C3270 1.395 . S
C3268 C3271 1.403 . S
H3269 C3275 0.930 . S
C3270 H3256 0.930 . S
C3270 C3268 1.395 . S
C3270 C3273 1.403 . S
C3271 C3268 1.403 . S
C3271 C3272 1.524 . S
C3271 C3275 1.400 . S
C3272 H3257 0.960 . S
C3272 H3258 0.960 . S
C3272 H3259 0.960 . S
C3272 C3271 1.524 . S
C3273 C3270 1.403 . S
C3273 C3274 1.392 . S
C3273 C3277 1.495 . S
C3274 C3273 1.392 . S
C3274 C3275 1.385 . S
C3274 C3276 1.478 . S
C3275 H3269 0.930 . S
C3275 C3271 1.400 . S
C3275 C3274 1.385 . S
C3276 C3274 1.478 . S
C3276 C3278 1.381 . S
C3276 C3282 1.383 . S
C3277 C3273 1.495 . S
C3277 H3283 0.959 . S
C3277 H3284 0.961 . S
C3277 H3285 0.960 . S
C3278 C3276 1.381 . S
C3278 C3279 1.394 . S
C3278 H3286 0.930 . S
C3279 C3278 1.394 . S
C3279 C3280 1.383 . S
C3279 H3287 0.929 . S
C3280 C3279 1.383 . S
C3280 C3281 1.377 . S
C3281 H3265 0.930 . S
C3281 C3280 1.377 . S
C3281 C3282 1.379 . S
C3282 H3266 0.931 . S
C3282 C3276 1.383 . S
C3282 C3281 1.379 . S
H3283 C3277 0.959 . S
H3284 C3277 0.961 . S
H3285 C3277 0.960 . S
H3286 C3278 0.930 . S
H3287 C3279 0.929 . S
H3288 C3296 0.929 . S
H3289 C3298 0.930 . S
H3290 C3300 0.930 . S
H3291 C3303 0.929 . S
H3292 C3306 0.930 . S
H3293 C3308 0.960 . S
H3294 C3308 0.960 . S
H3295 C3308 0.960 . S
C3296 H3288 0.929 . S
C3296 C3297 1.377 . S
C3296 C3298 1.384 . S
C3297 C3296 1.377 . S
C3297 C3303 1.390 . S
C3298 H3289 0.930 . S
C3298 C3296 1.384 . S
C3298 C3299 1.372 . S
C3299 C3298 1.372 . S
C3299 C3300 1.400 . S
C3299 C3304 1.490 . S
C3300 H3290 0.930 . S
C3300 C3299 1.400 . S
C3300 C3303 1.386 . S
H3301 C3317 0.930 . S
H3302 C3318 0.931 . S
C3303 H3291 0.929 . S
C3303 C3297 1.390 . S
C3303 C3300 1.386 . S
C3304 C3299 1.490 . S
C3304 C3306 1.395 . S
C3304 C3307 1.403 . S
H3305 C3311 0.930 . S
C3306 H3292 0.930 . S
C3306 C3304 1.395 . S
C3306 C3309 1.403 . S
C3307 C3304 1.403 . S
C3307 C3308 1.524 . S
C3307 C3311 1.400 . S
C3308 H3293 0.960 . S
C3308 H3294 0.960 . S
C3308 H3295 0.960 . S
C3308 C3307 1.524 . S
C3309 C3306 1.403 . S
C3309 C3310 1.392 . S
C3309 C3313 1.495 . S
C3310 C3309 1.392 . S
C3310 C3311 1.385 . S
C3310 C3312 1.478 . S
C3311 H3305 0.930 . S
C3311 C3307 1.400 . S
C3311 C3310 1.385 . S
C3312 C3310 1.478 . S
C3312 C3314 1.381 . S
C3312 C3318 1.383 . S
C3313 C3309 1.495 . S
C3313 H3319 0.959 . S
C3313 H3320 0.961 . S
C3313 H3321 0.960 . S
C3314 C3312 1.381 . S
C3314 C3315 1.394 . S
C3314 H3322 0.930 . S
C3315 C3314 1.394 . S
C3315 C3316 1.383 . S
C3315 H3323 0.929 . S
C3316 C3315 1.383 . S
C3316 C3317 1.377 . S
C3317 H3301 0.930 . S
C3317 C3316 1.377 . S
C3317 C3318 1.379 . S
C3318 H3302 0.931 . S
C3318 C3312 1.383 . S
C3318 C3317 1.379 . S
H3319 C3313 0.959 . S
H3320 C3313 0.961 . S
H3321 C3313 0.960 . S
H3322 C3314 0.930 . S
H3323 C3315 0.929 . S
H3324 C3332 0.929 . S
H3325 C3334 0.930 . S
H3326 C3336 0.930 . S
H3327 C3339 0.929 . S
H3328 C3342 0.930 . S
H3329 C3344 0.960 . S
H3330 C3344 0.960 . S
H3331 C3344 0.960 . S
C3332 H3324 0.929 . S
C3332 C3333 1.377 . S
C3332 C3334 1.384 . S
C3333 C3332 1.377 . S
C3333 C3339 1.390 . S
C3334 H3325 0.930 . S
C3334 C3332 1.384 . S
C3334 C3335 1.372 . S
C3335 C3334 1.372 . S
C3335 C3336 1.400 . S
C3335 C3340 1.490 . S
C3336 H3326 0.930 . S
C3336 C3335 1.400 . S
C3336 C3339 1.386 . S
H3337 C3353 0.930 . S
H3338 C3354 0.931 . S
C3339 H3327 0.929 . S
C3339 C3333 1.390 . S
C3339 C3336 1.386 . S
C3340 C3335 1.490 . S
C3340 C3342 1.395 . S
C3340 C3343 1.403 . S
H3341 C3347 0.930 . S
C3342 H3328 0.930 . S
C3342 C3340 1.395 . S
C3342 C3345 1.403 . S
C3343 C3340 1.403 . S
C3343 C3344 1.524 . S
C3343 C3347 1.400 . S
C3344 H3329 0.960 . S
C3344 H3330 0.960 . S
C3344 H3331 0.960 . S
C3344 C3343 1.524 . S
C3345 C3342 1.403 . S
C3345 C3346 1.392 . S
C3345 C3349 1.495 . S
C3346 C3345 1.392 . S
C3346 C3347 1.385 . S
C3346 C3348 1.478 . S
C3347 H3341 0.930 . S
C3347 C3343 1.400 . S
C3347 C3346 1.385 . S
C3348 C3346 1.478 . S
C3348 C3350 1.381 . S
C3348 C3354 1.383 . S
C3349 C3345 1.495 . S
C3349 H3355 0.959 . S
C3349 H3356 0.961 . S
C3349 H3357 0.960 . S
C3350 C3348 1.381 . S
C3350 C3351 1.394 . S
C3350 H3358 0.930 . S
C3351 C3350 1.394 . S
C3351 C3352 1.383 . S
C3351 H3359 0.929 . S
C3352 C3351 1.383 . S
C3352 C3353 1.377 . S
C3353 H3337 0.930 . S
C3353 C3352 1.377 . S
C3353 C3354 1.379 . S
C3354 H3338 0.931 . S
C3354 C3348 1.383 . S
C3354 C3353 1.379 . S
H3355 C3349 0.959 . S
H3356 C3349 0.961 . S
H3357 C3349 0.960 . S
H3358 C3350 0.930 . S
H3359 C3351 0.929 . S
H3360 C3368 0.929 . S
H3361 C3370 0.930 . S
H3362 C3372 0.930 . S
H3363 C3375 0.929 . S
H3364 C3378 0.930 . S
H3365 C3380 0.960 . S
H3366 C3380 0.960 . S
H3367 C3380 0.960 . S
C3368 H3360 0.929 . S
C3368 C3369 1.377 . S
C3368 C3370 1.384 . S
C3369 C3368 1.377 . S
C3369 C3375 1.390 . S
C3370 H3361 0.930 . S
C3370 C3368 1.384 . S
C3370 C3371 1.372 . S
C3371 C3370 1.372 . S
C3371 C3372 1.400 . S
C3371 C3376 1.490 . S
C3372 H3362 0.930 . S
C3372 C3371 1.400 . S
C3372 C3375 1.386 . S
H3373 C3389 0.930 . S
H3374 C3390 0.931 . S
C3375 H3363 0.929 . S
C3375 C3369 1.390 . S
C3375 C3372 1.386 . S
C3376 C3371 1.490 . S
C3376 C3378 1.395 . S
C3376 C3379 1.403 . S
H3377 C3383 0.930 . S
C3378 H3364 0.930 . S
C3378 C3376 1.395 . S
C3378 C3381 1.403 . S
C3379 C3376 1.403 . S
C3379 C3380 1.524 . S
C3379 C3383 1.400 . S
C3380 H3365 0.960 . S
C3380 H3366 0.960 . S
C3380 H3367 0.960 . S
C3380 C3379 1.524 . S
C3381 C3378 1.403 . S
C3381 C3382 1.392 . S
C3381 C3385 1.495 . S
C3382 C3381 1.392 . S
C3382 C3383 1.385 . S
C3382 C3384 1.478 . S
C3383 H3377 0.930 . S
C3383 C3379 1.400 . S
C3383 C3382 1.385 . S
C3384 C3382 1.478 . S
C3384 C3386 1.381 . S
C3384 C3390 1.383 . S
C3385 C3381 1.495 . S
C3385 H3391 0.959 . S
C3385 H3392 0.961 . S
C3385 H3393 0.960 . S
C3386 C3384 1.381 . S
C3386 C3387 1.394 . S
C3386 H3394 0.930 . S
C3387 C3386 1.394 . S
C3387 C3388 1.383 . S
C3387 H3395 0.929 . S
C3388 C3387 1.383 . S
C3388 C3389 1.377 . S
C3389 H3373 0.930 . S
C3389 C3388 1.377 . S
C3389 C3390 1.379 . S
C3390 H3374 0.931 . S
C3390 C3384 1.383 . S
C3390 C3389 1.379 . S
H3391 C3385 0.959 . S
H3392 C3385 0.961 . S
H3393 C3385 0.960 . S
H3394 C3386 0.930 . S
H3395 C3387 0.929 . S
H3396 C3404 0.929 . S
H3397 C3406 0.930 . S
H3398 C3408 0.930 . S
H3399 C3411 0.929 . S
H3400 C3414 0.930 . S
H3401 C3416 0.960 . S
H3402 C3416 0.960 . S
H3403 C3416 0.960 . S
C3404 H3396 0.929 . S
C3404 C3405 1.377 . S
C3404 C3406 1.384 . S
C3405 C3404 1.377 . S
C3405 C3411 1.390 . S
C3406 H3397 0.930 . S
C3406 C3404 1.384 . S
C3406 C3407 1.372 . S
C3407 C3406 1.372 . S
C3407 C3408 1.400 . S
C3407 C3412 1.490 . S
C3408 H3398 0.930 . S
C3408 C3407 1.400 . S
C3408 C3411 1.386 . S
H3409 C3425 0.930 . S
H3410 C3426 0.931 . S
C3411 H3399 0.929 . S
C3411 C3405 1.390 . S
C3411 C3408 1.386 . S
C3412 C3407 1.490 . S
C3412 C3414 1.395 . S
C3412 C3415 1.403 . S
H3413 C3419 0.930 . S
C3414 H3400 0.930 . S
C3414 C3412 1.395 . S
C3414 C3417 1.403 . S
C3415 C3412 1.403 . S
C3415 C3416 1.524 . S
C3415 C3419 1.400 . S
C3416 H3401 0.960 . S
C3416 H3402 0.960 . S
C3416 H3403 0.960 . S
C3416 C3415 1.524 . S
C3417 C3414 1.403 . S
C3417 C3418 1.392 . S
C3417 C3421 1.495 . S
C3418 C3417 1.392 . S
C3418 C3419 1.385 . S
C3418 C3420 1.478 . S
C3419 H3413 0.930 . S
C3419 C3415 1.400 . S
C3419 C3418 1.385 . S
C3420 C3418 1.478 . S
C3420 C3422 1.381 . S
C3420 C3426 1.383 . S
C3421 C3417 1.495 . S
C3421 H3427 0.959 . S
C3421 H3428 0.961 . S
C3421 H3429 0.960 . S
C3422 C3420 1.381 . S
C3422 C3423 1.394 . S
C3422 H3430 0.930 . S
C3423 C3422 1.394 . S
C3423 C3424 1.383 . S
C3423 H3431 0.929 . S
C3424 C3423 1.383 . S
C3424 C3425 1.377 . S
C3425 H3409 0.930 . S
C3425 C3424 1.377 . S
C3425 C3426 1.379 . S
C3426 H3410 0.931 . S
C3426 C3420 1.383 . S
C3426 C3425 1.379 . S
H3427 C3421 0.959 . S
H3428 C3421 0.961 . S
H3429 C3421 0.960 . S
H3430 C3422 0.930 . S
H3431 C3423 0.929 . S
H3432 C3440 0.929 . S
H3433 C3442 0.930 . S
H3434 C3444 0.930 . S
H3435 C3447 0.929 . S
H3436 C3450 0.930 . S
H3437 C3452 0.960 . S
H3438 C3452 0.960 . S
H3439 C3452 0.960 . S
C3440 H3432 0.929 . S
C3440 C3441 1.377 . S
C3440 C3442 1.384 . S
C3441 C3440 1.377 . S
C3441 C3447 1.390 . S
C3442 H3433 0.930 . S
C3442 C3440 1.384 . S
C3442 C3443 1.372 . S
C3443 C3442 1.372 . S
C3443 C3444 1.400 . S
C3443 C3448 1.490 . S
C3444 H3434 0.930 . S
C3444 C3443 1.400 . S
C3444 C3447 1.386 . S
H3445 C3461 0.930 . S
H3446 C3462 0.931 . S
C3447 H3435 0.929 . S
C3447 C3441 1.390 . S
C3447 C3444 1.386 . S
C3448 C3443 1.490 . S
C3448 C3450 1.395 . S
C3448 C3451 1.403 . S
H3449 C3455 0.930 . S
C3450 H3436 0.930 . S
C3450 C3448 1.395 . S
C3450 C3453 1.403 . S
C3451 C3448 1.403 . S
C3451 C3452 1.524 . S
C3451 C3455 1.400 . S
C3452 H3437 0.960 . S
C3452 H3438 0.960 . S
C3452 H3439 0.960 . S
C3452 C3451 1.524 . S
C3453 C3450 1.403 . S
C3453 C3454 1.392 . S
C3453 C3457 1.495 . S
C3454 C3453 1.392 . S
C3454 C3455 1.385 . S
C3454 C3456 1.478 . S
C3455 H3449 0.930 . S
C3455 C3451 1.400 . S
C3455 C3454 1.385 . S
C3456 C3454 1.478 . S
C3456 C3458 1.381 . S
C3456 C3462 1.383 . S
C3457 C3453 1.495 . S
C3457 H3463 0.959 . S
C3457 H3464 0.961 . S
C3457 H3465 0.960 . S
C3458 C3456 1.381 . S
C3458 C3459 1.394 . S
C3458 H3466 0.930 . S
C3459 C3458 1.394 . S
C3459 C3460 1.383 . S
C3459 H3467 0.929 . S
C3460 C3459 1.383 . S
C3460 C3461 1.377 . S
C3461 H3445 0.930 . S
C3461 C3460 1.377 . S
C3461 C3462 1.379 . S
C3462 H3446 0.931 . S
C3462 C3456 1.383 . S
C3462 C3461 1.379 . S
H3463 C3457 0.959 . S
H3464 C3457 0.961 . S
H3465 C3457 0.960 . S
H3466 C3458 0.930 . S
H3467 C3459 0.929 . S
H3468 C3476 0.929 . S
H3469 C3478 0.930 . S
H3470 C3480 0.930 . S
H3471 C3483 0.929 . S
H3472 C3486 0.930 . S
H3473 C3488 0.960 . S
H3474 C3488 0.960 . S
H3475 C3488 0.960 . S
C3476 H3468 0.929 . S
C3476 C3477 1.377 . S
C3476 C3478 1.384 . S
C3477 C3476 1.377 . S
C3477 C3483 1.390 . S
C3478 H3469 0.930 . S
C3478 C3476 1.384 . S
C3478 C3479 1.372 . S
C3479 C3478 1.372 . S
C3479 C3480 1.400 . S
C3479 C3484 1.490 . S
C3480 H3470 0.930 . S
C3480 C3479 1.400 . S
C3480 C3483 1.386 . S
H3481 C3497 0.930 . S
H3482 C3498 0.931 . S
C3483 H3471 0.929 . S
C3483 C3477 1.390 . S
C3483 C3480 1.386 . S
C3484 C3479 1.490 . S
C3484 C3486 1.395 . S
C3484 C3487 1.403 . S
H3485 C3491 0.930 . S
C3486 H3472 0.930 . S
C3486 C3484 1.395 . S
C3486 C3489 1.403 . S
C3487 C3484 1.403 . S
C3487 C3488 1.524 . S
C3487 C3491 1.400 . S
C3488 H3473 0.960 . S
C3488 H3474 0.960 . S
C3488 H3475 0.960 . S
C3488 C3487 1.524 . S
C3489 C3486 1.403 . S
C3489 C3490 1.392 . S
C3489 C3493 1.495 . S
C3490 C3489 1.392 . S
C3490 C3491 1.385 . S
C3490 C3492 1.478 . S
C3491 H3485 0.930 . S
C3491 C3487 1.400 . S
C3491 C3490 1.385 . S
C3492 C3490 1.478 . S
C3492 C3494 1.381 . S
C3492 C3498 1.383 . S
C3493 C3489 1.495 . S
C3493 H3499 0.959 . S
C3493 H3500 0.961 . S
C3493 H3501 0.960 . S
C3494 C3492 1.381 . S
C3494 C3495 1.394 . S
C3494 H3502 0.930 . S
C3495 C3494 1.394 . S
C3495 C3496 1.383 . S
C3495 H3503 0.929 . S
C3496 C3495 1.383 . S
C3496 C3497 1.377 . S
C3497 H3481 0.930 . S
C3497 C3496 1.377 . S
C3497 C3498 1.379 . S
C3498 H3482 0.931 . S
C3498 C3492 1.383 . S
C3498 C3497 1.379 . S
H3499 C3493 0.959 . S
H3500 C3493 0.961 . S
H3501 C3493 0.960 . S
H3502 C3494 0.930 . S
H3503 C3495 0.929 . S
H3504 C3512 0.929 . S
H3505 C3514 0.930 . S
H3506 C3516 0.930 . S
H3507 C3519 0.929 . S
H3508 C3522 0.930 . S
H3509 C3524 0.960 . S
H3510 C3524 0.960 . S
H3511 C3524 0.960 . S
C3512 H3504 0.929 . S
C3512 C3513 1.377 . S
C3512 C3514 1.384 . S
C3513 C3512 1.377 . S
C3513 C3519 1.390 . S
C3514 H3505 0.930 . S
C3514 C3512 1.384 . S
C3514 C3515 1.372 . S
C3515 C3514 1.372 . S
C3515 C3516 1.400 . S
C3515 C3520 1.490 . S
C3516 H3506 0.930 . S
C3516 C3515 1.400 . S
C3516 C3519 1.386 . S
H3517 C3533 0.930 . S
H3518 C3534 0.931 . S
C3519 H3507 0.929 . S
C3519 C3513 1.390 . S
C3519 C3516 1.386 . S
C3520 C3515 1.490 . S
C3520 C3522 1.395 . S
C3520 C3523 1.403 . S
H3521 C3527 0.930 . S
C3522 H3508 0.930 . S
C3522 C3520 1.395 . S
C3522 C3525 1.403 . S
C3523 C3520 1.403 . S
C3523 C3524 1.524 . S
C3523 C3527 1.400 . S
C3524 H3509 0.960 . S
C3524 H3510 0.960 . S
C3524 H3511 0.960 . S
C3524 C3523 1.524 . S
C3525 C3522 1.403 . S
C3525 C3526 1.392 . S
C3525 C3529 1.495 . S
C3526 C3525 1.392 . S
C3526 C3527 1.385 . S
C3526 C3528 1.478 . S
C3527 H3521 0.930 . S
C3527 C3523 1.400 . S
C3527 C3526 1.385 . S
C3528 C3526 1.478 . S
C3528 C3530 1.381 . S
C3528 C3534 1.383 . S
C3529 C3525 1.495 . S
C3529 H3535 0.959 . S
C3529 H3536 0.961 . S
C3529 H3537 0.960 . S
C3530 C3528 1.381 . S
C3530 C3531 1.394 . S
C3530 H3538 0.930 . S
C3531 C3530 1.394 . S
C3531 C3532 1.383 . S
C3531 H3539 0.929 . S
C3532 C3531 1.383 . S
C3532 C3533 1.377 . S
C3533 H3517 0.930 . S
C3533 C3532 1.377 . S
C3533 C3534 1.379 . S
C3534 H3518 0.931 . S
C3534 C3528 1.383 . S
C3534 C3533 1.379 . S
H3535 C3529 0.959 . S
H3536 C3529 0.961 . S
H3537 C3529 0.960 . S
H3538 C3530 0.930 . S
H3539 C3531 0.929 . S
H3540 C3548 0.929 . S
H3541 C3550 0.930 . S
H3542 C3552 0.930 . S
H3543 C3555 0.929 . S
H3544 C3558 0.930 . S
H3545 C3560 0.960 . S
H3546 C3560 0.960 . S
H3547 C3560 0.960 . S
C3548 H3540 0.929 . S
C3548 C3549 1.377 . S
C3548 C3550 1.384 . S
C3549 C3548 1.377 . S
C3549 C3555 1.390 . S
C3550 H3541 0.930 . S
C3550 C3548 1.384 . S
C3550 C3551 1.372 . S
C3551 C3550 1.372 . S
C3551 C3552 1.400 . S
C3551 C3556 1.490 . S
C3552 H3542 0.930 . S
C3552 C3551 1.400 . S
C3552 C3555 1.386 . S
H3553 C3569 0.930 . S
H3554 C3570 0.931 . S
C3555 H3543 0.929 . S
C3555 C3549 1.390 . S
C3555 C3552 1.386 . S
C3556 C3551 1.490 . S
C3556 C3558 1.395 . S
C3556 C3559 1.403 . S
H3557 C3563 0.930 . S
C3558 H3544 0.930 . S
C3558 C3556 1.395 . S
C3558 C3561 1.403 . S
C3559 C3556 1.403 . S
C3559 C3560 1.524 . S
C3559 C3563 1.400 . S
C3560 H3545 0.960 . S
C3560 H3546 0.960 . S
C3560 H3547 0.960 . S
C3560 C3559 1.524 . S
C3561 C3558 1.403 . S
C3561 C3562 1.392 . S
C3561 C3565 1.495 . S
C3562 C3561 1.392 . S
C3562 C3563 1.385 . S
C3562 C3564 1.478 . S
C3563 H3557 0.930 . S
C3563 C3559 1.400 . S
C3563 C3562 1.385 . S
C3564 C3562 1.478 . S
C3564 C3566 1.381 . S
C3564 C3570 1.383 . S
C3565 C3561 1.495 . S
C3565 H3571 0.959 . S
C3565 H3572 0.961 . S
C3565 H3573 0.960 . S
C3566 C3564 1.381 . S
C3566 C3567 1.394 . S
C3566 H3574 0.930 . S
C3567 C3566 1.394 . S
C3567 C3568 1.383 . S
C3567 H3575 0.929 . S
C3568 C3567 1.383 . S
C3568 C3569 1.377 . S
C3569 H3553 0.930 . S
C3569 C3568 1.377 . S
C3569 C3570 1.379 . S
C3570 H3554 0.931 . S
C3570 C3564 1.383 . S
C3570 C3569 1.379 . S
H3571 C3565 0.959 . S
H3572 C3565 0.961 . S
H3573 C3565 0.960 . S
H3574 C3566 0.930 . S
H3575 C3567 0.929 . S
H3576 C3584 0.929 . S
H3577 C3586 0.930 . S
H3578 C3588 0.930 . S
H3579 C3591 0.929 . S
H3580 C3594 0.930 . S
H3581 C3596 0.960 . S
H3582 C3596 0.960 . S
H3583 C3596 0.960 . S
C3584 H3576 0.929 . S
C3584 C3585 1.377 . S
C3584 C3586 1.384 . S
C3585 C3584 1.377 . S
C3585 C3591 1.390 . S
C3586 H3577 0.930 . S
C3586 C3584 1.384 . S
C3586 C3587 1.372 . S
C3587 C3586 1.372 . S
C3587 C3588 1.400 . S
C3587 C3592 1.490 . S
C3588 H3578 0.930 . S
C3588 C3587 1.400 . S
C3588 C3591 1.386 . S
H3589 C3605 0.930 . S
H3590 C3606 0.931 . S
C3591 H3579 0.929 . S
C3591 C3585 1.390 . S
C3591 C3588 1.386 . S
C3592 C3587 1.490 . S
C3592 C3594 1.395 . S
C3592 C3595 1.403 . S
H3593 C3599 0.930 . S
C3594 H3580 0.930 . S
C3594 C3592 1.395 . S
C3594 C3597 1.403 . S
C3595 C3592 1.403 . S
C3595 C3596 1.524 . S
C3595 C3599 1.400 . S
C3596 H3581 0.960 . S
C3596 H3582 0.960 . S
C3596 H3583 0.960 . S
C3596 C3595 1.524 . S
C3597 C3594 1.403 . S
C3597 C3598 1.392 . S
C3597 C3601 1.495 . S
C3598 C3597 1.392 . S
C3598 C3599 1.385 . S
C3598 C3600 1.478 . S
C3599 H3593 0.930 . S
C3599 C3595 1.400 . S
C3599 C3598 1.385 . S
C3600 C3598 1.478 . S
C3600 C3602 1.381 . S
C3600 C3606 1.383 . S
C3601 C3597 1.495 . S
C3601 H3607 0.959 . S
C3601 H3608 0.961 . S
C3601 H3609 0.960 . S
C3602 C3600 1.381 . S
C3602 C3603 1.394 . S
C3602 H3610 0.930 . S
C3603 C3602 1.394 . S
C3603 C3604 1.383 . S
C3603 H3611 0.929 . S
C3604 C3603 1.383 . S
C3604 C3605 1.377 . S
C3605 H3589 0.930 . S
C3605 C3604 1.377 . S
C3605 C3606 1.379 . S
C3606 H3590 0.931 . S
C3606 C3600 1.383 . S
C3606 C3605 1.379 . S
H3607 C3601 0.959 . S
H3608 C3601 0.961 . S
H3609 C3601 0.960 . S
H3610 C3602 0.930 . S
H3611 C3603 0.929 . S
H3612 C3620 0.929 . S
H3613 C3622 0.930 . S
H3614 C3624 0.930 . S
H3615 C3627 0.929 . S
H3616 C3630 0.930 . S
H3617 C3632 0.960 . S
H3618 C3632 0.960 . S
H3619 C3632 0.960 . S
C3620 H3612 0.929 . S
C3620 C3621 1.377 . S
C3620 C3622 1.384 . S
C3621 C3620 1.377 . S
C3621 C3627 1.390 . S
C3622 H3613 0.930 . S
C3622 C3620 1.384 . S
C3622 C3623 1.372 . S
C3623 C3622 1.372 . S
C3623 C3624 1.400 . S
C3623 C3628 1.490 . S
C3624 H3614 0.930 . S
C3624 C3623 1.400 . S
C3624 C3627 1.386 . S
H3625 C3641 0.930 . S
H3626 C3642 0.931 . S
C3627 H3615 0.929 . S
C3627 C3621 1.390 . S
C3627 C3624 1.386 . S
C3628 C3623 1.490 . S
C3628 C3630 1.395 . S
C3628 C3631 1.403 . S
H3629 C3635 0.930 . S
C3630 H3616 0.930 . S
C3630 C3628 1.395 . S
C3630 C3633 1.403 . S
C3631 C3628 1.403 . S
C3631 C3632 1.524 . S
C3631 C3635 1.400 . S
C3632 H3617 0.960 . S
C3632 H3618 0.960 . S
C3632 H3619 0.960 . S
C3632 C3631 1.524 . S
C3633 C3630 1.403 . S
C3633 C3634 1.392 . S
C3633 C3637 1.495 . S
C3634 C3633 1.392 . S
C3634 C3635 1.385 . S
C3634 C3636 1.478 . S
C3635 H3629 0.930 . S
C3635 C3631 1.400 . S
C3635 C3634 1.385 . S
C3636 C3634 1.478 . S
C3636 C3638 1.381 . S
C3636 C3642 1.383 . S
C3637 C3633 1.495 . S
C3637 H3643 0.959 . S
C3637 H3644 0.961 . S
C3637 H3645 0.960 . S
C3638 C3636 1.381 . S
C3638 C3639 1.394 . S
C3638 H3646 0.930 . S
C3639 C3638 1.394 . S
C3639 C3640 1.383 . S
C3639 H3647 0.929 . S
C3640 C3639 1.383 . S
C3640 C3641 1.377 . S
C3641 H3625 0.930 . S
C3641 C3640 1.377 . S
C3641 C3642 1.379 . S
C3642 H3626 0.931 . S
C3642 C3636 1.383 . S
C3642 C3641 1.379 . S
H3643 C3637 0.959 . S
H3644 C3637 0.961 . S
H3645 C3637 0.960 . S
H3646 C3638 0.930 . S
H3647 C3639 0.929 . S
H3648 C3656 0.929 . S
H3649 C3658 0.930 . S
H3650 C3660 0.930 . S
H3651 C3663 0.929 . S
H3652 C3666 0.930 . S
H3653 C3668 0.960 . S
H3654 C3668 0.960 . S
H3655 C3668 0.960 . S
C3656 H3648 0.929 . S
C3656 C3657 1.377 . S
C3656 C3658 1.384 . S
C3657 C3656 1.377 . S
C3657 C3663 1.390 . S
C3658 H3649 0.930 . S
C3658 C3656 1.384 . S
C3658 C3659 1.372 . S
C3659 C3658 1.372 . S
C3659 C3660 1.400 . S
C3659 C3664 1.490 . S
C3660 H3650 0.930 . S
C3660 C3659 1.400 . S
C3660 C3663 1.386 . S
H3661 C3677 0.930 . S
H3662 C3678 0.931 . S
C3663 H3651 0.929 . S
C3663 C3657 1.390 . S
C3663 C3660 1.386 . S
C3664 C3659 1.490 . S
C3664 C3666 1.395 . S
C3664 C3667 1.403 . S
H3665 C3671 0.930 . S
C3666 H3652 0.930 . S
C3666 C3664 1.395 . S
C3666 C3669 1.403 . S
C3667 C3664 1.403 . S
C3667 C3668 1.524 . S
C3667 C3671 1.400 . S
C3668 H3653 0.960 . S
C3668 H3654 0.960 . S
C3668 H3655 0.960 . S
C3668 C3667 1.524 . S
C3669 C3666 1.403 . S
C3669 C3670 1.392 . S
C3669 C3673 1.495 . S
C3670 C3669 1.392 . S
C3670 C3671 1.385 . S
C3670 C3672 1.478 . S
C3671 H3665 0.930 . S
C3671 C3667 1.400 . S
C3671 C3670 1.385 . S
C3672 C3670 1.478 . S
C3672 C3674 1.381 . S
C3672 C3678 1.383 . S
C3673 C3669 1.495 . S
C3673 H3679 0.959 . S
C3673 H3680 0.961 . S
C3673 H3681 0.960 . S
C3674 C3672 1.381 . S
C3674 C3675 1.394 . S
C3674 H3682 0.930 . S
C3675 C3674 1.394 . S
C3675 C3676 1.383 . S
C3675 H3683 0.929 . S
C3676 C3675 1.383 . S
C3676 C3677 1.377 . S
C3677 H3661 0.930 . S
C3677 C3676 1.377 . S
C3677 C3678 1.379 . S
C3678 H3662 0.931 . S
C3678 C3672 1.383 . S
C3678 C3677 1.379 . S
H3679 C3673 0.959 . S
H3680 C3673 0.961 . S
H3681 C3673 0.960 . S
H3682 C3674 0.930 . S
H3683 C3675 0.929 . S
H3684 C3692 0.929 . S
H3685 C3694 0.930 . S
H3686 C3696 0.930 . S
H3687 C3699 0.929 . S
H3688 C3702 0.930 . S
H3689 C3704 0.960 . S
H3690 C3704 0.960 . S
H3691 C3704 0.960 . S
C3692 H3684 0.929 . S
C3692 C3693 1.377 . S
C3692 C3694 1.384 . S
C3693 C3692 1.377 . S
C3693 C3699 1.390 . S
C3694 H3685 0.930 . S
C3694 C3692 1.384 . S
C3694 C3695 1.372 . S
C3695 C3694 1.372 . S
C3695 C3696 1.400 . S
C3695 C3700 1.490 . S
C3696 H3686 0.930 . S
C3696 C3695 1.400 . S
C3696 C3699 1.386 . S
H3697 C3713 0.930 . S
H3698 C3714 0.931 . S
C3699 H3687 0.929 . S
C3699 C3693 1.390 . S
C3699 C3696 1.386 . S
C3700 C3695 1.490 . S
C3700 C3702 1.395 . S
C3700 C3703 1.403 . S
H3701 C3707 0.930 . S
C3702 H3688 0.930 . S
C3702 C3700 1.395 . S
C3702 C3705 1.403 . S
C3703 C3700 1.403 . S
C3703 C3704 1.524 . S
C3703 C3707 1.400 . S
C3704 H3689 0.960 . S
C3704 H3690 0.960 . S
C3704 H3691 0.960 . S
C3704 C3703 1.524 . S
C3705 C3702 1.403 . S
C3705 C3706 1.392 . S
C3705 C3709 1.495 . S
C3706 C3705 1.392 . S
C3706 C3707 1.385 . S
C3706 C3708 1.478 . S
C3707 H3701 0.930 . S
C3707 C3703 1.400 . S
C3707 C3706 1.385 . S
C3708 C3706 1.478 . S
C3708 C3710 1.381 . S
C3708 C3714 1.383 . S
C3709 C3705 1.495 . S
C3709 H3715 0.959 . S
C3709 H3716 0.961 . S
C3709 H3717 0.960 . S
C3710 C3708 1.381 . S
C3710 C3711 1.394 . S
C3710 H3718 0.930 . S
C3711 C3710 1.394 . S
C3711 C3712 1.383 . S
C3711 H3719 0.929 . S
C3712 C3711 1.383 . S
C3712 C3713 1.377 . S
C3713 H3697 0.930 . S
C3713 C3712 1.377 . S
C3713 C3714 1.379 . S
C3714 H3698 0.931 . S
C3714 C3708 1.383 . S
C3714 C3713 1.379 . S
H3715 C3709 0.959 . S
H3716 C3709 0.961 . S
H3717 C3709 0.960 . S
H3718 C3710 0.930 . S
H3719 C3711 0.929 . S
H3720 C3728 0.929 . S
H3721 C3730 0.930 . S
H3722 C3732 0.930 . S
H3723 C3735 0.929 . S
H3724 C3738 0.930 . S
H3725 C3740 0.960 . S
H3726 C3740 0.960 . S
H3727 C3740 0.960 . S
C3728 H3720 0.929 . S
C3728 C3729 1.377 . S
C3728 C3730 1.384 . S
C3729 C3728 1.377 . S
C3729 C3735 1.390 . S
C3730 H3721 0.930 . S
C3730 C3728 1.384 . S
C3730 C3731 1.372 . S
C3731 C3730 1.372 . S
C3731 C3732 1.400 . S
C3731 C3736 1.490 . S
C3732 H3722 0.930 . S
C3732 C3731 1.400 . S
C3732 C3735 1.386 . S
H3733 C3749 0.930 . S
H3734 C3750 0.931 . S
C3735 H3723 0.929 . S
C3735 C3729 1.390 . S
C3735 C3732 1.386 . S
C3736 C3731 1.490 . S
C3736 C3738 1.395 . S
C3736 C3739 1.403 . S
H3737 C3743 0.930 . S
C3738 H3724 0.930 . S
C3738 C3736 1.395 . S
C3738 C3741 1.403 . S
C3739 C3736 1.403 . S
C3739 C3740 1.524 . S
C3739 C3743 1.400 . S
C3740 H3725 0.960 . S
C3740 H3726 0.960 . S
C3740 H3727 0.960 . S
C3740 C3739 1.524 . S
C3741 C3738 1.403 . S
C3741 C3742 1.392 . S
C3741 C3745 1.495 . S
C3742 C3741 1.392 . S
C3742 C3743 1.385 . S
C3742 C3744 1.478 . S
C3743 H3737 0.930 . S
C3743 C3739 1.400 . S
C3743 C3742 1.385 . S
C3744 C3742 1.478 . S
C3744 C3746 1.381 . S
C3744 C3750 1.383 . S
C3745 C3741 1.495 . S
C3745 H3751 0.959 . S
C3745 H3752 0.961 . S
C3745 H3753 0.960 . S
C3746 C3744 1.381 . S
C3746 C3747 1.394 . S
C3746 H3754 0.930 . S
C3747 C3746 1.394 . S
C3747 C3748 1.383 . S
C3747 H3755 0.929 . S
C3748 C3747 1.383 . S
C3748 C3749 1.377 . S
C3749 H3733 0.930 . S
C3749 C3748 1.377 . S
C3749 C3750 1.379 . S
C3750 H3734 0.931 . S
C3750 C3744 1.383 . S
C3750 C3749 1.379 . S
H3751 C3745 0.959 . S
H3752 C3745 0.961 . S
H3753 C3745 0.960 . S
H3754 C3746 0.930 . S
H3755 C3747 0.929 . S
H3756 C3764 0.929 . S
H3757 C3766 0.930 . S
H3758 C3768 0.930 . S
H3759 C3771 0.929 . S
H3760 C3774 0.930 . S
H3761 C3776 0.960 . S
H3762 C3776 0.960 . S
H3763 C3776 0.960 . S
C3764 H3756 0.929 . S
C3764 C3765 1.377 . S
C3764 C3766 1.384 . S
C3765 C3764 1.377 . S
C3765 C3771 1.390 . S
C3766 H3757 0.930 . S
C3766 C3764 1.384 . S
C3766 C3767 1.372 . S
C3767 C3766 1.372 . S
C3767 C3768 1.400 . S
C3767 C3772 1.490 . S
C3768 H3758 0.930 . S
C3768 C3767 1.400 . S
C3768 C3771 1.386 . S
H3769 C3785 0.930 . S
H3770 C3786 0.931 . S
C3771 H3759 0.929 . S
C3771 C3765 1.390 . S
C3771 C3768 1.386 . S
C3772 C3767 1.490 . S
C3772 C3774 1.395 . S
C3772 C3775 1.403 . S
H3773 C3779 0.930 . S
C3774 H3760 0.930 . S
C3774 C3772 1.395 . S
C3774 C3777 1.403 . S
C3775 C3772 1.403 . S
C3775 C3776 1.524 . S
C3775 C3779 1.400 . S
C3776 H3761 0.960 . S
C3776 H3762 0.960 . S
C3776 H3763 0.960 . S
C3776 C3775 1.524 . S
C3777 C3774 1.403 . S
C3777 C3778 1.392 . S
C3777 C3781 1.495 . S
C3778 C3777 1.392 . S
C3778 C3779 1.385 . S
C3778 C3780 1.478 . S
C3779 H3773 0.930 . S
C3779 C3775 1.400 . S
C3779 C3778 1.385 . S
C3780 C3778 1.478 . S
C3780 C3782 1.381 . S
C3780 C3786 1.383 . S
C3781 C3777 1.495 . S
C3781 H3787 0.959 . S
C3781 H3788 0.961 . S
C3781 H3789 0.960 . S
C3782 C3780 1.381 . S
C3782 C3783 1.394 . S
C3782 H3790 0.930 . S
C3783 C3782 1.394 . S
C3783 C3784 1.383 . S
C3783 H3791 0.929 . S
C3784 C3783 1.383 . S
C3784 C3785 1.377 . S
C3785 H3769 0.930 . S
C3785 C3784 1.377 . S
C3785 C3786 1.379 . S
C3786 H3770 0.931 . S
C3786 C3780 1.383 . S
C3786 C3785 1.379 . S
H3787 C3781 0.959 . S
H3788 C3781 0.961 . S
H3789 C3781 0.960 . S
H3790 C3782 0.930 . S
H3791 C3783 0.929 . S
H3792 C3800 0.929 . S
H3793 C3802 0.930 . S
H3794 C3804 0.930 . S
H3795 C3807 0.929 . S
H3796 C3810 0.930 . S
H3797 C3812 0.960 . S
H3798 C3812 0.960 . S
H3799 C3812 0.960 . S
C3800 H3792 0.929 . S
C3800 C3801 1.377 . S
C3800 C3802 1.384 . S
C3801 C3800 1.377 . S
C3801 C3807 1.390 . S
C3802 H3793 0.930 . S
C3802 C3800 1.384 . S
C3802 C3803 1.372 . S
C3803 C3802 1.372 . S
C3803 C3804 1.400 . S
C3803 C3808 1.490 . S
C3804 H3794 0.930 . S
C3804 C3803 1.400 . S
C3804 C3807 1.386 . S
H3805 C3821 0.930 . S
H3806 C3822 0.931 . S
C3807 H3795 0.929 . S
C3807 C3801 1.390 . S
C3807 C3804 1.386 . S
C3808 C3803 1.490 . S
C3808 C3810 1.395 . S
C3808 C3811 1.403 . S
H3809 C3815 0.930 . S
C3810 H3796 0.930 . S
C3810 C3808 1.395 . S
C3810 C3813 1.403 . S
C3811 C3808 1.403 . S
C3811 C3812 1.524 . S
C3811 C3815 1.400 . S
C3812 H3797 0.960 . S
C3812 H3798 0.960 . S
C3812 H3799 0.960 . S
C3812 C3811 1.524 . S
C3813 C3810 1.403 . S
C3813 C3814 1.392 . S
C3813 C3817 1.495 . S
C3814 C3813 1.392 . S
C3814 C3815 1.385 . S
C3814 C3816 1.478 . S
C3815 H3809 0.930 . S
C3815 C3811 1.400 . S
C3815 C3814 1.385 . S
C3816 C3814 1.478 . S
C3816 C3818 1.381 . S
C3816 C3822 1.383 . S
C3817 C3813 1.495 . S
C3817 H3823 0.959 . S
C3817 H3824 0.961 . S
C3817 H3825 0.960 . S
C3818 C3816 1.381 . S
C3818 C3819 1.394 . S
C3818 H3826 0.930 . S
C3819 C3818 1.394 . S
C3819 C3820 1.383 . S
C3819 H3827 0.929 . S
C3820 C3819 1.383 . S
C3820 C3821 1.377 . S
C3821 H3805 0.930 . S
C3821 C3820 1.377 . S
C3821 C3822 1.379 . S
C3822 H3806 0.931 . S
C3822 C3816 1.383 . S
C3822 C3821 1.379 . S
H3823 C3817 0.959 . S
H3824 C3817 0.961 . S
H3825 C3817 0.960 . S
H3826 C3818 0.930 . S
H3827 C3819 0.929 . S
H3828 C3836 0.929 . S
H3829 C3838 0.930 . S
H3830 C3840 0.930 . S
H3831 C3843 0.929 . S
H3832 C3846 0.930 . S
H3833 C3848 0.960 . S
H3834 C3848 0.960 . S
H3835 C3848 0.960 . S
C3836 H3828 0.929 . S
C3836 C3837 1.377 . S
C3836 C3838 1.384 . S
C3837 C3836 1.377 . S
C3837 C3843 1.390 . S
C3838 H3829 0.930 . S
C3838 C3836 1.384 . S
C3838 C3839 1.372 . S
C3839 C3838 1.372 . S
C3839 C3840 1.400 . S
C3839 C3844 1.490 . S
C3840 H3830 0.930 . S
C3840 C3839 1.400 . S
C3840 C3843 1.386 . S
H3841 C3857 0.930 . S
H3842 C3858 0.931 . S
C3843 H3831 0.929 . S
C3843 C3837 1.390 . S
C3843 C3840 1.386 . S
C3844 C3839 1.490 . S
C3844 C3846 1.395 . S
C3844 C3847 1.403 . S
H3845 C3851 0.930 . S
C3846 H3832 0.930 . S
C3846 C3844 1.395 . S
C3846 C3849 1.403 . S
C3847 C3844 1.403 . S
C3847 C3848 1.524 . S
C3847 C3851 1.400 . S
C3848 H3833 0.960 . S
C3848 H3834 0.960 . S
C3848 H3835 0.960 . S
C3848 C3847 1.524 . S
C3849 C3846 1.403 . S
C3849 C3850 1.392 . S
C3849 C3853 1.495 . S
C3850 C3849 1.392 . S
C3850 C3851 1.385 . S
C3850 C3852 1.478 . S
C3851 H3845 0.930 . S
C3851 C3847 1.400 . S
C3851 C3850 1.385 . S
C3852 C3850 1.478 . S
C3852 C3854 1.381 . S
C3852 C3858 1.383 . S
C3853 C3849 1.495 . S
C3853 H3859 0.959 . S
C3853 H3860 0.961 . S
C3853 H3861 0.960 . S
C3854 C3852 1.381 . S
C3854 C3855 1.394 . S
C3854 H3862 0.930 . S
C3855 C3854 1.394 . S
C3855 C3856 1.383 . S
C3855 H3863 0.929 . S
C3856 C3855 1.383 . S
C3856 C3857 1.377 . S
C3857 H3841 0.930 . S
C3857 C3856 1.377 . S
C3857 C3858 1.379 . S
C3858 H3842 0.931 . S
C3858 C3852 1.383 . S
C3858 C3857 1.379 . S
H3859 C3853 0.959 . S
H3860 C3853 0.961 . S
H3861 C3853 0.960 . S
H3862 C3854 0.930 . S
H3863 C3855 0.929 . S
H3864 C3872 0.929 . S
H3865 C3874 0.930 . S
H3866 C3876 0.930 . S
H3867 C3879 0.929 . S
H3868 C3882 0.930 . S
H3869 C3884 0.960 . S
H3870 C3884 0.960 . S
H3871 C3884 0.960 . S
C3872 H3864 0.929 . S
C3872 C3873 1.377 . S
C3872 C3874 1.384 . S
C3873 C3872 1.377 . S
C3873 C3879 1.390 . S
C3874 H3865 0.930 . S
C3874 C3872 1.384 . S
C3874 C3875 1.372 . S
C3875 C3874 1.372 . S
C3875 C3876 1.400 . S
C3875 C3880 1.490 . S
C3876 H3866 0.930 . S
C3876 C3875 1.400 . S
C3876 C3879 1.386 . S
H3877 C3893 0.930 . S
H3878 C3894 0.931 . S
C3879 H3867 0.929 . S
C3879 C3873 1.390 . S
C3879 C3876 1.386 . S
C3880 C3875 1.490 . S
C3880 C3882 1.395 . S
C3880 C3883 1.403 . S
H3881 C3887 0.930 . S
C3882 H3868 0.930 . S
C3882 C3880 1.395 . S
C3882 C3885 1.403 . S
C3883 C3880 1.403 . S
C3883 C3884 1.524 . S
C3883 C3887 1.400 . S
C3884 H3869 0.960 . S
C3884 H3870 0.960 . S
C3884 H3871 0.960 . S
C3884 C3883 1.524 . S
C3885 C3882 1.403 . S
C3885 C3886 1.392 . S
C3885 C3889 1.495 . S
C3886 C3885 1.392 . S
C3886 C3887 1.385 . S
C3886 C3888 1.478 . S
C3887 H3881 0.930 . S
C3887 C3883 1.400 . S
C3887 C3886 1.385 . S
C3888 C3886 1.478 . S
C3888 C3890 1.381 . S
C3888 C3894 1.383 . S
C3889 C3885 1.495 . S
C3889 H3895 0.959 . S
C3889 H3896 0.961 . S
C3889 H3897 0.960 . S
C3890 C3888 1.381 . S
C3890 C3891 1.394 . S
C3890 H3898 0.930 . S
C3891 C3890 1.394 . S
C3891 C3892 1.383 . S
C3891 H3899 0.929 . S
C3892 C3891 1.383 . S
C3892 C3893 1.377 . S
C3893 H3877 0.930 . S
C3893 C3892 1.377 . S
C3893 C3894 1.379 . S
C3894 H3878 0.931 . S
C3894 C3888 1.383 . S
C3894 C3893 1.379 . S
H3895 C3889 0.959 . S
H3896 C3889 0.961 . S
H3897 C3889 0.960 . S
H3898 C3890 0.930 . S
H3899 C3891 0.929 . S
H3900 C3908 0.929 . S
H3901 C3910 0.930 . S
H3902 C3912 0.930 . S
H3903 C3915 0.929 . S
H3904 C3918 0.930 . S
H3905 C3920 0.960 . S
H3906 C3920 0.960 . S
H3907 C3920 0.960 . S
C3908 H3900 0.929 . S
C3908 C3909 1.377 . S
C3908 C3910 1.384 . S
C3909 C3908 1.377 . S
C3909 C3915 1.390 . S
C3910 H3901 0.930 . S
C3910 C3908 1.384 . S
C3910 C3911 1.372 . S
C3911 C3910 1.372 . S
C3911 C3912 1.400 . S
C3911 C3916 1.490 . S
C3912 H3902 0.930 . S
C3912 C3911 1.400 . S
C3912 C3915 1.386 . S
H3913 C3929 0.930 . S
H3914 C3930 0.931 . S
C3915 H3903 0.929 . S
C3915 C3909 1.390 . S
C3915 C3912 1.386 . S
C3916 C3911 1.490 . S
C3916 C3918 1.395 . S
C3916 C3919 1.403 . S
H3917 C3923 0.930 . S
C3918 H3904 0.930 . S
C3918 C3916 1.395 . S
C3918 C3921 1.403 . S
C3919 C3916 1.403 . S
C3919 C3920 1.524 . S
C3919 C3923 1.400 . S
C3920 H3905 0.960 . S
C3920 H3906 0.960 . S
C3920 H3907 0.960 . S
C3920 C3919 1.524 . S
C3921 C3918 1.403 . S
C3921 C3922 1.392 . S
C3921 C3925 1.495 . S
C3922 C3921 1.392 . S
C3922 C3923 1.385 . S
C3922 C3924 1.478 . S
C3923 H3917 0.930 . S
C3923 C3919 1.400 . S
C3923 C3922 1.385 . S
C3924 C3922 1.478 . S
C3924 C3926 1.381 . S
C3924 C3930 1.383 . S
C3925 C3921 1.495 . S
C3925 H3931 0.959 . S
C3925 H3932 0.961 . S
C3925 H3933 0.960 . S
C3926 C3924 1.381 . S
C3926 C3927 1.394 . S
C3926 H3934 0.930 . S
C3927 C3926 1.394 . S
C3927 C3928 1.383 . S
C3927 H3935 0.929 . S
C3928 C3927 1.383 . S
C3928 C3929 1.377 . S
C3929 H3913 0.930 . S
C3929 C3928 1.377 . S
C3929 C3930 1.379 . S
C3930 H3914 0.931 . S
C3930 C3924 1.383 . S
C3930 C3929 1.379 . S
H3931 C3925 0.959 . S
H3932 C3925 0.961 . S
H3933 C3925 0.960 . S
H3934 C3926 0.930 . S
H3935 C3927 0.929 . S
H3936 C3944 0.929 . S
H3937 C3946 0.930 . S
H3938 C3948 0.930 . S
H3939 C3951 0.929 . S
H3940 C3954 0.930 . S
H3941 C3956 0.960 . S
H3942 C3956 0.960 . S
H3943 C3956 0.960 . S
C3944 H3936 0.929 . S
C3944 C3945 1.377 . S
C3944 C3946 1.384 . S
C3945 C3944 1.377 . S
C3945 C3951 1.390 . S
C3946 H3937 0.930 . S
C3946 C3944 1.384 . S
C3946 C3947 1.372 . S
C3947 C3946 1.372 . S
C3947 C3948 1.400 . S
C3947 C3952 1.490 . S
C3948 H3938 0.930 . S
C3948 C3947 1.400 . S
C3948 C3951 1.386 . S
H3949 C3965 0.930 . S
H3950 C3966 0.931 . S
C3951 H3939 0.929 . S
C3951 C3945 1.390 . S
C3951 C3948 1.386 . S
C3952 C3947 1.490 . S
C3952 C3954 1.395 . S
C3952 C3955 1.403 . S
H3953 C3959 0.930 . S
C3954 H3940 0.930 . S
C3954 C3952 1.395 . S
C3954 C3957 1.403 . S
C3955 C3952 1.403 . S
C3955 C3956 1.524 . S
C3955 C3959 1.400 . S
C3956 H3941 0.960 . S
C3956 H3942 0.960 . S
C3956 H3943 0.960 . S
C3956 C3955 1.524 . S
C3957 C3954 1.403 . S
C3957 C3958 1.392 . S
C3957 C3961 1.495 . S
C3958 C3957 1.392 . S
C3958 C3959 1.385 . S
C3958 C3960 1.478 . S
C3959 H3953 0.930 . S
C3959 C3955 1.400 . S
C3959 C3958 1.385 . S
C3960 C3958 1.478 . S
C3960 C3962 1.381 . S
C3960 C3966 1.383 . S
C3961 C3957 1.495 . S
C3961 H3967 0.959 . S
C3961 H3968 0.961 . S
C3961 H3969 0.960 . S
C3962 C3960 1.381 . S
C3962 C3963 1.394 . S
C3962 H3970 0.930 . S
C3963 C3962 1.394 . S
C3963 C3964 1.383 . S
C3963 H3971 0.929 . S
C3964 C3963 1.383 . S
C3964 C3965 1.377 . S
C3965 H3949 0.930 . S
C3965 C3964 1.377 . S
C3965 C3966 1.379 . S
C3966 H3950 0.931 . S
C3966 C3960 1.383 . S
C3966 C3965 1.379 . S
H3967 C3961 0.959 . S
H3968 C3961 0.961 . S
H3969 C3961 0.960 . S
H3970 C3962 0.930 . S
H3971 C3963 0.929 . S
H3972 C3980 0.929 . S
H3973 C3982 0.930 . S
H3974 C3984 0.930 . S
H3975 C3987 0.929 . S
H3976 C3990 0.930 . S
H3977 C3992 0.960 . S
H3978 C3992 0.960 . S
H3979 C3992 0.960 . S
C3980 H3972 0.929 . S
C3980 C3981 1.377 . S
C3980 C3982 1.384 . S
C3981 C3980 1.377 . S
C3981 C3987 1.390 . S
C3982 H3973 0.930 . S
C3982 C3980 1.384 . S
C3982 C3983 1.372 . S
C3983 C3982 1.372 . S
C3983 C3984 1.400 . S
C3983 C3988 1.490 . S
C3984 H3974 0.930 . S
C3984 C3983 1.400 . S
C3984 C3987 1.386 . S
H3985 C4001 0.930 . S
H3986 C4002 0.931 . S
C3987 H3975 0.929 . S
C3987 C3981 1.390 . S
C3987 C3984 1.386 . S
C3988 C3983 1.490 . S
C3988 C3990 1.395 . S
C3988 C3991 1.403 . S
H3989 C3995 0.930 . S
C3990 H3976 0.930 . S
C3990 C3988 1.395 . S
C3990 C3993 1.403 . S
C3991 C3988 1.403 . S
C3991 C3992 1.524 . S
C3991 C3995 1.400 . S
C3992 H3977 0.960 . S
C3992 H3978 0.960 . S
C3992 H3979 0.960 . S
C3992 C3991 1.524 . S
C3993 C3990 1.403 . S
C3993 C3994 1.392 . S
C3993 C3997 1.495 . S
C3994 C3993 1.392 . S
C3994 C3995 1.385 . S
C3994 C3996 1.478 . S
C3995 H3989 0.930 . S
C3995 C3991 1.400 . S
C3995 C3994 1.385 . S
C3996 C3994 1.478 . S
C3996 C3998 1.381 . S
C3996 C4002 1.383 . S
C3997 C3993 1.495 . S
C3997 H4003 0.959 . S
C3997 H4004 0.961 . S
C3997 H4005 0.960 . S
C3998 C3996 1.381 . S
C3998 C3999 1.394 . S
C3998 H4006 0.930 . S
C3999 C3998 1.394 . S
C3999 C4000 1.383 . S
C3999 H4007 0.929 . S
C4000 C3999 1.383 . S
C4000 C4001 1.377 . S
C4001 H3985 0.930 . S
C4001 C4000 1.377 . S
C4001 C4002 1.379 . S
C4002 H3986 0.931 . S
C4002 C3996 1.383 . S
C4002 C4001 1.379 . S
H4003 C3997 0.959 . S
H4004 C3997 0.961 . S
H4005 C3997 0.960 . S
H4006 C3998 0.930 . S
H4007 C3999 0.929 . S
H4008 C4016 0.929 . S
H4009 C4018 0.930 . S
H4010 C4020 0.930 . S
H4011 C4023 0.929 . S
H4012 C4026 0.930 . S
H4013 C4028 0.960 . S
H4014 C4028 0.960 . S
H4015 C4028 0.960 . S
C4016 H4008 0.929 . S
C4016 C4017 1.377 . S
C4016 C4018 1.384 . S
C4017 C4016 1.377 . S
C4017 C4023 1.390 . S
C4018 H4009 0.930 . S
C4018 C4016 1.384 . S
C4018 C4019 1.372 . S
C4019 C4018 1.372 . S
C4019 C4020 1.400 . S
C4019 C4024 1.490 . S
C4020 H4010 0.930 . S
C4020 C4019 1.400 . S
C4020 C4023 1.386 . S
H4021 C4037 0.930 . S
H4022 C4038 0.931 . S
C4023 H4011 0.929 . S
C4023 C4017 1.390 . S
C4023 C4020 1.386 . S
C4024 C4019 1.490 . S
C4024 C4026 1.395 . S
C4024 C4027 1.403 . S
H4025 C4031 0.930 . S
C4026 H4012 0.930 . S
C4026 C4024 1.395 . S
C4026 C4029 1.403 . S
C4027 C4024 1.403 . S
C4027 C4028 1.524 . S
C4027 C4031 1.400 . S
C4028 H4013 0.960 . S
C4028 H4014 0.960 . S
C4028 H4015 0.960 . S
C4028 C4027 1.524 . S
C4029 C4026 1.403 . S
C4029 C4030 1.392 . S
C4029 C4033 1.495 . S
C4030 C4029 1.392 . S
C4030 C4031 1.385 . S
C4030 C4032 1.478 . S
C4031 H4025 0.930 . S
C4031 C4027 1.400 . S
C4031 C4030 1.385 . S
C4032 C4030 1.478 . S
C4032 C4034 1.381 . S
C4032 C4038 1.383 . S
C4033 C4029 1.495 . S
C4033 H4039 0.959 . S
C4033 H4040 0.961 . S
C4033 H4041 0.960 . S
C4034 C4032 1.381 . S
C4034 C4035 1.394 . S
C4034 H4042 0.930 . S
C4035 C4034 1.394 . S
C4035 C4036 1.383 . S
C4035 H4043 0.929 . S
C4036 C4035 1.383 . S
C4036 C4037 1.377 . S
C4037 H4021 0.930 . S
C4037 C4036 1.377 . S
C4037 C4038 1.379 . S
C4038 H4022 0.931 . S
C4038 C4032 1.383 . S
C4038 C4037 1.379 . S
H4039 C4033 0.959 . S
H4040 C4033 0.961 . S
H4041 C4033 0.960 . S
H4042 C4034 0.930 . S
H4043 C4035 0.929 . S
H4044 C4052 0.929 . S
H4045 C4054 0.930 . S
H4046 C4056 0.930 . S
H4047 C4059 0.929 . S
H4048 C4062 0.930 . S
H4049 C4064 0.960 . S
H4050 C4064 0.960 . S
H4051 C4064 0.960 . S
C4052 H4044 0.929 . S
C4052 C4053 1.377 . S
C4052 C4054 1.384 . S
C4053 C4052 1.377 . S
C4053 C4059 1.390 . S
C4054 H4045 0.930 . S
C4054 C4052 1.384 . S
C4054 C4055 1.372 . S
C4055 C4054 1.372 . S
C4055 C4056 1.400 . S
C4055 C4060 1.490 . S
C4056 H4046 0.930 . S
C4056 C4055 1.400 . S
C4056 C4059 1.386 . S
H4057 C4073 0.930 . S
H4058 C4074 0.931 . S
C4059 H4047 0.929 . S
C4059 C4053 1.390 . S
C4059 C4056 1.386 . S
C4060 C4055 1.490 . S
C4060 C4062 1.395 . S
C4060 C4063 1.403 . S
H4061 C4067 0.930 . S
C4062 H4048 0.930 . S
C4062 C4060 1.395 . S
C4062 C4065 1.403 . S
C4063 C4060 1.403 . S
C4063 C4064 1.524 . S
C4063 C4067 1.400 . S
C4064 H4049 0.960 . S
C4064 H4050 0.960 . S
C4064 H4051 0.960 . S
C4064 C4063 1.524 . S
C4065 C4062 1.403 . S
C4065 C4066 1.392 . S
C4065 C4069 1.495 . S
C4066 C4065 1.392 . S
C4066 C4067 1.385 . S
C4066 C4068 1.478 . S
C4067 H4061 0.930 . S
C4067 C4063 1.400 . S
C4067 C4066 1.385 . S
C4068 C4066 1.478 . S
C4068 C4070 1.381 . S
C4068 C4074 1.383 . S
C4069 C4065 1.495 . S
C4069 H4075 0.959 . S
C4069 H4076 0.961 . S
C4069 H4077 0.960 . S
C4070 C4068 1.381 . S
C4070 C4071 1.394 . S
C4070 H4078 0.930 . S
C4071 C4070 1.394 . S
C4071 C4072 1.383 . S
C4071 H4079 0.929 . S
C4072 C4071 1.383 . S
C4072 C4073 1.377 . S
C4073 H4057 0.930 . S
C4073 C4072 1.377 . S
C4073 C4074 1.379 . S
C4074 H4058 0.931 . S
C4074 C4068 1.383 . S
C4074 C4073 1.379 . S
H4075 C4069 0.959 . S
H4076 C4069 0.961 . S
H4077 C4069 0.960 . S
H4078 C4070 0.930 . S
H4079 C4071 0.929 . S
C633 C127 1.491 . S
C652 C4 1.470 . S
C669 C134 1.495 . S
C688 C17 1.461 . S
C705 C153 1.495 . S
C724 C36 1.461 . S
C741 C49 1.493 . S
C760 C108 1.521 . S
C777 C199 1.497 . S
C796 C62 1.463 . S
C813 C69 1.492 . S
C832 C166 1.466 . S
C849 C179 1.500 . S
C868 C82 1.474 . S
C885 C192 1.493 . S
C904 C101 1.520 . S
C921 C218 1.502 . S
C940 C238 1.497 . S
C957 C231 1.495 . S
C976 C290 1.522 . S
C993 C251 1.489 . S
C1012 C309 1.493 . S
C1029 C264 1.501 . S
C1048 C277 1.479 . S
C1065 C316 1.501 . S
C1084 C433 1.483 . S
C1101 C446 1.490 . S
C1120 C335 1.511 . S
C1137 C342 1.494 . S
C1156 C459 1.462 . S
C1173 C361 1.502 . S
C1192 C426 1.497 . S
C1209 C511 1.502 . S
C1228 C374 1.496 . S
C1245 C478 1.501 . S
C1264 C381 1.478 . S
C1281 C491 1.492 . S
C1300 C400 1.466 . S
C1317 C504 1.495 . S
C1336 C413 1.522 . S
C1353 C530 1.501 . S
C1372 C556 1.479 . S
C1389 C537 1.501 . S
C1408 C608 1.503 . S
C1425 C569 1.497 . S
C1444 C615 1.522 . S
C1461 C589 1.499 . S
C1480 C576 1.468 . S
C1497 C109 1.103 . S
C1516 C3 1.141 . S
C1533 C120 1.105 . S
C1552 C16 1.138 . S
C1569 C31 1.146 . S
C1588 C135 1.076 . S
C1605 C44 1.145 . S
C1624 C146 1.093 . S
C1641 C57 1.142 . S
C1660 C159 1.137 . S
C1677 C68 1.144 . S
C1696 C172 1.103 . S
C1713 C81 1.145 . S
C1732 C185 1.084 . S
C1749 C200 1.096 . S
C1768 C96 1.151 . S
C1785 C107 1.146 . S
C1804 C211 1.064 . S
C1821 C302 1.110 . S
C1840 C122 1.131 . S
C1857 C133 1.142 . S
C1876 C278 1.135 . S
C1893 C148 1.141 . S
C1912 C291 1.139 . S
C1929 C161 1.142 . S
C1948 C224 1.137 . S
C1965 C174 1.146 . S
C1984 C239 1.062 . S
C2001 C187 1.144 . S
C2020 C252 1.103 . S
C2037 C265 1.108 . S
C2056 C198 1.133 . S
C2073 C5 1.107 . S
C2092 C213 1.135 . S
C2109 C226 1.145 . S
C2128 C55 1.087 . S
C2145 C237 1.145 . S
C2164 C70 1.085 . S
C2181 C250 1.141 . S
C2200 C83 1.139 . S
C2217 C94 1.098 . S
C2236 C263 1.149 . S
C2253 C276 1.144 . S
C2272 C29 1.102 . S
C2289 C289 1.142 . S
C2308 C42 1.137 . S
C2325 C18 1.109 . S
C2344 C304 1.132 . S
C2361 C419 1.101 . S
C2380 C315 1.145 . S
C2397 C330 1.142 . S
C2416 C434 1.124 . S
C2433 C341 1.141 . S
C2452 C447 1.139 . S
C2469 C460 1.109 . S
C2488 C356 1.132 . S
C2505 C471 1.105 . S
C2524 C369 1.138 . S
C2541 C380 1.146 . S
C2560 C484 1.063 . S
C2577 C497 1.097 . S
C2596 C395 1.150 . S
C2613 C512 1.095 . S
C2632 C408 1.153 . S
C2649 C421 1.145 . S
C2668 C523 1.081 . S
C2685 C432 1.145 . S
C2704 C616 1.078 . S
C2721 C445 1.142 . S
C2740 C590 1.131 . S
C2757 C601 1.103 . S
C2776 C458 1.141 . S
C2793 C473 1.145 . S
C2812 C538 1.087 . S
C2829 C486 1.142 . S
C2848 C549 1.130 . S
C2865 C562 1.095 . S
C2884 C499 1.154 . S
C2901 C577 1.095 . S
C2920 C510 1.153 . S
C2937 C525 1.146 . S
C2956 C317 1.069 . S
C2973 C536 1.143 . S
C2992 C367 1.111 . S
C3009 C382 1.111 . S
C3028 C551 1.130 . S
C3045 C564 1.141 . S
C3064 C393 1.139 . S
C3081 C575 1.146 . S
C3100 C406 1.062 . S
C3117 C343 1.109 . S
C3136 C588 1.132 . S
C3153 C603 1.143 . S
C3172 C354 1.110 . S
C3189 C328 1.107 . S
C3208 C614 1.136 . S
C3225 C407 1.316 . S
C3244 C10 1.312 . S
C3261 C23 1.316 . S
C3280 C368 1.304 . S
C3297 C387 1.316 . S
C3316 C30 1.336 . S
C3333 C394 1.315 . S
C3352 C43 1.317 . S
C3369 C56 1.317 . S
C3388 C329 1.298 . S
C3405 C348 1.316 . S
C3424 C75 1.312 . S
C3441 C355 1.324 . S
C3460 C88 1.290 . S
C3477 C95 1.317 . S
C3496 C322 1.344 . S
C3513 C582 1.315 . S
C3532 C114 1.319 . S
C3549 C121 1.318 . S
C3568 C543 1.297 . S
C3585 C140 1.323 . S
C3604 C550 1.289 . S
C3621 C563 1.317 . S
C3640 C147 1.302 . S
C3657 C621 1.316 . S
C3676 C160 1.308 . S
C3693 C595 1.327 . S
C3712 C173 1.332 . S
C3729 C186 1.315 . S
C3748 C602 1.324 . S
C3765 C524 1.316 . S
C3784 C205 1.337 . S
C3801 C212 1.322 . S
C3820 C517 1.288 . S
C3837 C439 1.321 . S
C3856 C225 1.289 . S
C3873 C244 1.318 . S
C3892 C452 1.346 . S
C3909 C465 1.328 . S
C3928 C257 1.320 . S
C3945 C420 1.316 . S
C3964 C270 1.308 . S
C3981 C283 1.323 . S
C4000 C485 1.288 . S
C4017 C498 1.326 . S
C4036 C296 1.337 . S
C4053 C472 1.315 . S
C4072 C303 1.315 . S
