# Generated by pormake.
# Topology wkj, (6)-cn, num edge types: 1
# Building blocks:
#     Node 0, Type 0, BuildingBlock: JUFBIX_clean_sbu_0, # of connection points: 6
#     Node 1, Type 0, BuildingBlock: JUFBIX_clean_sbu_0, # of connection points: 6
#     Node 2, Type 0, BuildingBlock: JUFBIX_clean_sbu_0, # of connection points: 6
#     Node 3, Type 0, BuildingBlock: JUFBIX_clean_sbu_0, # of connection points: 6
#     Node 4, Type 0, BuildingBlock: JUFBIX_clean_sbu_0, # of connection points: 6
#     Node 5, Type 0, BuildingBlock: JUFBIX_clean_sbu_0, # of connection points: 6
#     Node 6, Type 0, BuildingBlock: JUFBIX_clean_sbu_0, # of connection points: 6
#     Node 7, Type 0, BuildingBlock: JUFBIX_clean_sbu_0, # of connection points: 6
#     Node 8, Type 0, BuildingBlock: JUFBIX_clean_sbu_0, # of connection points: 6
#     Node 9, Type 0, BuildingBlock: JUFBIX_clean_sbu_0, # of connection points: 6
#     Node 10, Type 0, BuildingBlock: JUFBIX_clean_sbu_0, # of connection points: 6
#     Node 11, Type 0, BuildingBlock: JUFBIX_clean_sbu_0, # of connection points: 6
#     Edge 12, Type (0, 0), BuildingBlock: TEMPAE_clean_linker_10, # of connection points: 2
#     Edge 13, Type (0, 0), BuildingBlock: TEMPAE_clean_linker_10, # of connection points: 2
#     Edge 14, Type (0, 0), BuildingBlock: TEMPAE_clean_linker_10, # of connection points: 2
#     Edge 15, Type (0, 0), BuildingBlock: TEMPAE_clean_linker_10, # of connection points: 2
#     Edge 16, Type (0, 0), BuildingBlock: TEMPAE_clean_linker_10, # of connection points: 2
#     Edge 17, Type (0, 0), BuildingBlock: TEMPAE_clean_linker_10, # of connection points: 2
#     Edge 18, Type (0, 0), BuildingBlock: TEMPAE_clean_linker_10, # of connection points: 2
#     Edge 19, Type (0, 0), BuildingBlock: TEMPAE_clean_linker_10, # of connection points: 2
#     Edge 20, Type (0, 0), BuildingBlock: TEMPAE_clean_linker_10, # of connection points: 2
#     Edge 21, Type (0, 0), BuildingBlock: TEMPAE_clean_linker_10, # of connection points: 2
#     Edge 22, Type (0, 0), BuildingBlock: TEMPAE_clean_linker_10, # of connection points: 2
#     Edge 23, Type (0, 0), BuildingBlock: TEMPAE_clean_linker_10, # of connection points: 2
#     Edge 24, Type (0, 0), BuildingBlock: TEMPAE_clean_linker_10, # of connection points: 2
#     Edge 25, Type (0, 0), BuildingBlock: TEMPAE_clean_linker_10, # of connection points: 2
#     Edge 26, Type (0, 0), BuildingBlock: TEMPAE_clean_linker_10, # of connection points: 2
#     Edge 27, Type (0, 0), BuildingBlock: TEMPAE_clean_linker_10, # of connection points: 2
#     Edge 28, Type (0, 0), BuildingBlock: TEMPAE_clean_linker_10, # of connection points: 2
#     Edge 29, Type (0, 0), BuildingBlock: TEMPAE_clean_linker_10, # of connection points: 2
#     Edge 30, Type (0, 0), BuildingBlock: TEMPAE_clean_linker_10, # of connection points: 2
#     Edge 31, Type (0, 0), BuildingBlock: TEMPAE_clean_linker_10, # of connection points: 2
#     Edge 32, Type (0, 0), BuildingBlock: TEMPAE_clean_linker_10, # of connection points: 2
#     Edge 33, Type (0, 0), BuildingBlock: TEMPAE_clean_linker_10, # of connection points: 2
#     Edge 34, Type (0, 0), BuildingBlock: TEMPAE_clean_linker_10, # of connection points: 2
#     Edge 35, Type (0, 0), BuildingBlock: TEMPAE_clean_linker_10, # of connection points: 2
#     Edge 36, Type (0, 0), BuildingBlock: TEMPAE_clean_linker_10, # of connection points: 2
#     Edge 37, Type (0, 0), BuildingBlock: TEMPAE_clean_linker_10, # of connection points: 2
#     Edge 38, Type (0, 0), BuildingBlock: TEMPAE_clean_linker_10, # of connection points: 2
#     Edge 39, Type (0, 0), BuildingBlock: TEMPAE_clean_linker_10, # of connection points: 2
#     Edge 40, Type (0, 0), BuildingBlock: TEMPAE_clean_linker_10, # of connection points: 2
#     Edge 41, Type (0, 0), BuildingBlock: TEMPAE_clean_linker_10, # of connection points: 2
#     Edge 42, Type (0, 0), BuildingBlock: TEMPAE_clean_linker_10, # of connection points: 2
#     Edge 43, Type (0, 0), BuildingBlock: TEMPAE_clean_linker_10, # of connection points: 2
#     Edge 44, Type (0, 0), BuildingBlock: TEMPAE_clean_linker_10, # of connection points: 2
#     Edge 45, Type (0, 0), BuildingBlock: TEMPAE_clean_linker_10, # of connection points: 2
#     Edge 46, Type (0, 0), BuildingBlock: TEMPAE_clean_linker_10, # of connection points: 2
#     Edge 47, Type (0, 0), BuildingBlock: TEMPAE_clean_linker_10, # of connection points: 2
# Relax obj value: 0.814
# Max RMSD: 0.260
# Mean RMSD: 0.258
data_MOF--net-wkj--node1-JUFBIX_clean_sbu_0--edge1-TEMPAE_clean_linker_10
_symmetry_space_group_name_H-M    P1
_symmetry_Int_Tables_number       1
_symmetry_cell_setting            triclinic
loop_
_symmetry_equiv_pos_as_xyz
'x, y, z'
_cell_length_a     50.577358
_cell_length_b     50.670351
_cell_length_c     27.170619
_cell_angle_alpha  90.062375
_cell_angle_beta   89.812841
_cell_angle_gamma 119.97358
loop_
_atom_site_label
_atom_site_type_symbol
_atom_site_fract_x
_atom_site_fract_y
_atom_site_fract_z
_atom_type_partial_charge
Co0 Co 0.44959 0.08129 0.20648 0.0
C1 C 0.49185 0.07014 0.25159 0.0
Co2 Co 0.48721 0.11999 0.24436 0.0
C3 C 0.40517 0.04552 0.13242 0.0
C4 C 0.40567 0.01855 0.19274 0.0
N5 N 0.41878 0.04747 0.17594 0.0
N6 N 0.38432 0.01652 0.12154 0.0
C7 C 0.38468 -0.0006 0.15899 0.0
H8 H 0.41121 0.06475 0.10838 0.0
H9 H 0.4115 0.01175 0.22688 0.0
C10 C 0.44381 0.13227 0.20469 0.0
N11 N 0.51777 0.15359 0.27642 0.0
C12 C 0.53262 0.15271 0.3168 0.0
C13 C 0.52899 0.18358 0.26753 0.0
N14 N 0.55254 0.18066 0.33355 0.0
C15 C 0.55026 0.20036 0.30316 0.0
C16 C 0.50054 0.11558 0.14433 0.0
O17 O 0.43126 0.10523 0.18788 0.0
O18 O 0.46794 0.14221 0.22989 0.0
O19 O 0.51067 0.13271 0.18235 0.0
O20 O 0.47364 0.09259 0.14656 0.0
O21 O 0.50609 0.0984 0.25933 0.0
H22 H 0.52177 0.19265 0.23774 0.0
H23 H 0.52824 0.1319 0.33485 0.0
O24 O 0.46763 0.05826 0.22618 0.0
O25 O 0.42611 0.06868 0.26678 0.0
O26 O 0.46383 0.10521 0.30733 0.0
C27 C 0.43771 0.08081 0.30802 0.0
H28 H 0.37119 0.9748 0.16111 0.0
H29 H 0.56288 0.22492 0.30665 0.0
Co30 Co 0.37378 0.44714 0.63016 0.0
C31 C 0.42273 0.48958 0.68334 0.0
Co32 Co 0.36677 0.48287 0.66263 0.0
C33 C 0.37233 0.40573 0.55786 0.0
C34 C 0.38557 0.39726 0.62818 0.0
N35 N 0.37865 0.41638 0.60414 0.0
N36 N 0.37454 0.38055 0.55231 0.0
C37 C 0.38267 0.37483 0.59627 0.0
H38 H 0.36479 0.41534 0.52931 0.0
H39 H 0.39118 0.39883 0.66686 0.0
C40 C 0.31714 0.4418 0.61002 0.0
N41 N 0.36253 0.51358 0.6924 0.0
C42 C 0.37021 0.52199 0.73966 0.0
C43 C 0.35491 0.53367 0.6744 0.0
N44 N 0.36799 0.54653 0.75227 0.0
C45 C 0.35846 0.55415 0.71115 0.0
C46 C 0.39346 0.49708 0.56599 0.0
O47 O 0.33392 0.43022 0.60067 0.0
O48 O 0.32694 0.46477 0.63814 0.0
O49 O 0.3832 0.50713 0.60027 0.0
O50 O 0.39151 0.47133 0.57255 0.0
O51 O 0.4055 0.50077 0.68707 0.0
H52 H 0.34834 0.5341 0.63669 0.0
H53 H 0.37925 0.51138 0.76367 0.0
O54 O 0.41348 0.46489 0.65944 0.0
O55 O 0.35667 0.42278 0.68687 0.0
O56 O 0.3522 0.45864 0.7234 0.0
C57 C 0.35028 0.4326 0.72523 0.0
H58 H 0.38576 0.35566 0.60467 0.0
H59 H 0.3551 0.57354 0.70746 0.0
Co60 Co 0.95793 0.34687 0.84326 0.0
C61 C 0.99035 0.4012 0.88785 0.0
Co62 Co 0.92807 0.36067 0.87958 0.0
C63 C 0.9744 0.31669 0.77142 0.0
C64 C 0.00384 0.32976 0.83389 0.0
N65 N 0.98047 0.33182 0.81426 0.0
N66 N 0.9929 0.30507 0.76329 0.0
C67 C 0.0117 0.31351 0.80241 0.0
H68 H 0.95717 0.31499 0.74599 0.0
H69 H 0.0143 0.33925 0.86903 0.0
C70 C 0.89511 0.30453 0.83884 0.0
N71 N 0.90494 0.37452 0.91059 0.0
C72 C 0.90882 0.38533 0.95683 0.0
C73 C 0.88018 0.37506 0.89369 0.0
N74 N 0.88746 0.39252 0.96981 0.0
C75 C 0.86932 0.3861 0.93014 0.0
C76 C 0.94045 0.38032 0.78104 0.0
O77 O 0.92148 0.31046 0.82478 0.0
O78 O 0.89248 0.32411 0.86418 0.0
O79 O 0.92522 0.37855 0.81945 0.0
O80 O 0.95688 0.36757 0.78188 0.0
O81 O 0.96365 0.39677 0.89559 0.0
H82 H 0.87041 0.36749 0.85752 0.0
H83 H 0.92656 0.38701 0.98103 0.0
O84 O 0.994 0.38216 0.86293 0.0
O85 O 0.95974 0.32813 0.90394 0.0
O86 O 0.9317 0.34363 0.94084 0.0
C87 C 0.9482 0.33131 0.94353 0.0
H88 H 0.03023 0.30889 0.80738 0.0
H89 H 0.8496 0.38904 0.92764 0.0
Co90 Co 0.5439 0.91404 0.31254 0.0
C91 C 0.5044 0.92208 0.37347 0.0
Co92 Co 0.50765 0.87313 0.34832 0.0
C93 C 0.58746 0.952 0.24044 0.0
C94 C 0.58491 0.97844 0.29975 0.0
N95 N 0.57263 0.94958 0.28282 0.0
N96 N 0.60856 0.98101 0.23041 0.0
C97 C 0.60684 0.99794 0.26706 0.0
H98 H 0.58253 0.93292 0.21668 0.0
H99 H 0.57858 0.9849 0.33384 0.0
C100 C 0.5486 0.86384 0.29116 0.0
N101 N 0.47941 0.8387 0.38231 0.0
C102 C 0.4744 0.83956 0.43085 0.0
C103 C 0.45762 0.81075 0.36774 0.0
N104 N 0.45041 0.8137 0.4476 0.0
C105 C 0.43947 0.79536 0.40792 0.0
C106 C 0.49027 0.88189 0.25374 0.0
O107 O 0.56012 0.89194 0.28134 0.0
O108 O 0.5264 0.85144 0.32145 0.0
O109 O 0.48093 0.8626 0.28934 0.0
O110 O 0.51656 0.90556 0.25767 0.0
O111 O 0.48904 0.8935 0.37535 0.0
H112 H 0.45409 0.80276 0.33009 0.0
H113 H 0.48651 0.85996 0.4529 0.0
O114 O 0.52756 0.9351 0.34543 0.0
O115 O 0.57117 0.92387 0.36569 0.0
O116 O 0.53478 0.8865 0.40684 0.0
C117 C 0.56091 0.91074 0.40656 0.0
H118 H 0.62046 0.02249 0.26991 0.0
H119 H 0.41913 0.77309 0.40749 0.0
Co120 Co 0.6507 0.57887 0.49776 0.0
C121 C 0.59361 0.56514 0.51903 0.0
Co122 Co 0.62568 0.53424 0.53315 0.0
C123 C 0.68366 0.62157 0.42043 0.0
C124 C 0.68641 0.64431 0.48804 0.0
N125 N 0.67446 0.61634 0.46774 0.0
N126 N 0.70042 0.65159 0.40998 0.0
C127 C 0.70229 0.66597 0.45267 0.0
H128 H 0.67665 0.60369 0.3933 0.0
H129 H 0.68301 0.64892 0.52568 0.0
C130 C 0.68459 0.54938 0.51198 0.0
N131 N 0.60305 0.49713 0.56322 0.0
C132 C 0.588 0.49209 0.6061 0.0
C133 C 0.60115 0.47034 0.55159 0.0
N134 N 0.57767 0.46361 0.62278 0.0
C135 C 0.58547 0.44958 0.58835 0.0
C136 C 0.61724 0.52894 0.43187 0.0
O137 O 0.68423 0.57203 0.49284 0.0
O138 O 0.66073 0.52916 0.5337 0.0
O139 O 0.61347 0.51446 0.47163 0.0
O140 O 0.63384 0.55806 0.43314 0.0
O141 O 0.59147 0.54009 0.53253 0.0
H142 H 0.61207 0.46671 0.52007 0.0
H143 H 0.58609 0.5095 0.62613 0.0
O144 O 0.6186 0.58635 0.5025 0.0
O145 O 0.66443 0.59822 0.56339 0.0
O146 O 0.63631 0.55358 0.59653 0.0
C147 C 0.65249 0.58218 0.60198 0.0
H148 H 0.71301 0.69037 0.45755 0.0
H149 H 0.58218 0.42683 0.5914 0.0
Co150 Co 0.0491 0.62013 0.95095 0.0
C151 C 0.03625 0.57126 1.0083 0.0
Co152 Co 0.08996 0.62328 0.9846 0.0
C153 C 0.01266 0.62503 0.87604 0.0
C154 C 0.99046 0.61619 0.94617 0.0
N155 N 0.01564 0.61928 0.92328 0.0
N156 N 0.98693 0.62606 0.86867 0.0
C157 C 0.97279 0.62069 0.91249 0.0
H158 H 0.02961 0.62958 0.84786 0.0
H159 H 0.98568 0.61183 0.98508 0.0
C160 C 0.10407 0.67334 0.92848 0.0
N161 N 0.12292 0.62398 0.01571 0.0
C162 C 0.12195 0.61405 0.06206 0.0
C163 C 0.15141 0.63282 0.99974 0.0
N164 N 0.14846 0.6161 0.07608 0.0
C165 C 0.16716 0.62789 0.03676 0.0
C166 C 0.0768 0.5957 0.88987 0.0
O167 O 0.07548 0.65874 0.92018 0.0
O168 O 0.1154 0.66247 0.9584 0.0
O169 O 0.09633 0.60478 0.92488 0.0
O170 O 0.05407 0.59992 0.8943 0.0
O171 O 0.06504 0.58517 1.01051 0.0
H172 H 0.16 0.64185 0.96344 0.0
H173 H 0.10155 0.60444 0.08455 0.0
O174 O 0.02325 0.58182 0.98138 0.0
O175 O 0.04363 0.63934 1.00717 0.0
O176 O 0.08215 0.63985 0.04373 0.0
C177 C 0.05892 0.64332 0.04605 0.0
H178 H 0.95147 0.6202 0.91946 0.0
H179 H 0.19043 0.63244 0.03458 0.0
Co180 Co 0.94176 0.56569 0.44957 0.0
C181 C 0.97513 0.54927 0.39399 0.0
Co182 Co 0.91297 0.52289 0.41068 0.0
C183 C 0.95442 0.60992 0.52376 0.0
C184 C 0.98758 0.62826 0.46602 0.0
N185 N 0.96315 0.60223 0.48199 0.0
N186 N 0.97197 0.63975 0.53428 0.0
C187 C 0.9933 0.65139 0.49856 0.0
H188 H 0.93549 0.59382 0.54624 0.0
H189 H -0.00014 0.63047 0.43218 0.0
C190 C 0.87758 0.54031 0.4601 0.0
N191 N 0.89149 0.48718 0.37615 0.0
C192 C 0.89522 0.48387 0.32798 0.0
C193 C 0.86897 0.45962 0.39112 0.0
N194 N 0.87574 0.45562 0.31189 0.0
C195 C 0.85928 0.44 0.35144 0.0
C196 C 0.92933 0.51356 0.50545 0.0
O197 O 0.90366 0.56209 0.47263 0.0
O198 O 0.8763 0.51963 0.43232 0.0
O199 O 0.91394 0.50047 0.46705 0.0
O200 O 0.94315 0.54271 0.50711 0.0
O201 O 0.94888 0.5263 0.38777 0.0
H202 H 0.85996 0.4543 0.4282 0.0
H203 H 0.91211 0.50186 0.30497 0.0
O204 O 0.97889 0.56962 0.42486 0.0
O205 O 0.94173 0.5879 0.39262 0.0
O206 O 0.91347 0.54547 0.35336 0.0
C207 C 0.93027 0.57429 0.35236 0.0
H208 H 0.01145 0.67487 0.496 0.0
H209 H 0.84115 0.41644 0.35134 0.0
Co210 Co 0.32722 0.89877 0.74109 0.0
C211 C 0.28258 0.83942 0.76259 0.0
Co212 Co 0.33779 0.87866 0.80832 0.0
C213 C 0.34461 0.93644 0.64978 0.0
C214 C 0.29709 0.91691 0.66588 0.0
N215 N 0.3225 0.91767 0.68253 0.0
N216 N 0.33409 0.94761 0.61375 0.0
C217 C 0.30401 0.93497 0.62424 0.0
H218 H 0.36826 0.94236 0.65312 0.0
H219 H 0.27491 0.90429 0.68322 0.0
C220 C 0.37851 0.93832 0.79145 0.0
N221 N 0.34708 0.8625 0.86639 0.0
C222 C 0.36442 0.87621 0.90733 0.0
C223 C 0.33954 0.83309 0.87141 0.0
N224 N 0.36814 0.85646 0.93689 0.0
C225 C 0.35218 0.82937 0.91391 0.0
C226 C 0.36051 0.86947 0.72128 0.0
O227 O 0.36326 0.9344 0.7526 0.0
O228 O 0.37269 0.91599 0.81933 0.0
O229 O 0.35975 0.86524 0.76766 0.0
O230 O 0.34759 0.88326 0.70308 0.0
O231 O 0.30131 0.84189 0.79612 0.0
H232 H 0.3264 0.8154 0.84491 0.0
H233 H 0.37518 0.90043 0.91431 0.0
O234 O 0.28918 0.86156 0.73297 0.0
O235 O 0.3075 0.91426 0.78162 0.0
O236 O 0.31572 0.89243 0.84593 0.0
C237 C 0.30522 0.90857 0.82773 0.0
H238 H 0.28776 0.93827 0.60323 0.0
H239 H 0.34995 0.80811 0.92662 0.0
Co240 Co 0.40799 0.35815 0.11743 0.0
C241 C 0.42728 0.40896 0.06601 0.0
Co242 Co 0.44799 0.36773 0.07316 0.0
C243 C 0.36949 0.33373 0.20035 0.0
C244 C 0.34764 0.34589 0.14484 0.0
N245 N 0.37388 0.3463 0.15546 0.0
N246 N 0.34157 0.32532 0.21853 0.0
C247 C 0.32775 0.33321 0.18392 0.0
H248 H 0.38695 0.33163 0.21994 0.0
H249 H 0.34331 0.35429 0.11099 0.0
C250 C 0.42601 0.31335 0.11795 0.0
N251 N 0.48163 0.37886 0.03421 0.0
C252 C 0.4844 0.38803 0.98718 0.0
C253 C 0.50829 0.38025 0.04494 0.0
N254 N 0.51165 0.39515 0.9676 0.0
C255 C 0.52686 0.39029 1.00395 0.0
C256 C 0.46421 0.39223 0.16841 0.0
O257 O 0.40686 0.32058 0.1341 0.0
O258 O 0.44748 0.33187 0.09029 0.0
O259 O 0.47425 0.38877 0.1274 0.0
O260 O 0.43523 0.37955 0.1739 0.0
O261 O 0.44787 0.40273 0.05465 0.0
H262 H 0.51385 0.37444 0.08023 0.0
H263 H 0.46641 0.38907 0.96763 0.0
O264 O 0.40807 0.39401 0.09942 0.0
O265 O 0.38216 0.33953 0.0611 0.0
O266 O 0.4221 0.34826 0.0179 0.0
C267 C 0.39412 0.34086 0.01924 0.0
H268 H 0.30516 0.33045 0.18693 0.0
H269 H 0.54981 0.39396 1.00148 0.0
Co270 Co 0.08941 0.42068 0.3836 0.0
C271 C 0.13802 0.43594 0.44622 0.0
Co272 Co 0.09463 0.45451 0.44256 0.0
C273 C 0.07307 0.39332 0.28712 0.0
C274 C 0.07926 0.36433 0.33718 0.0
N275 N 0.08295 0.39251 0.3332 0.0
N276 N 0.06251 0.36663 0.26278 0.0
C277 C 0.06661 0.34838 0.29417 0.0
H278 H 0.07111 0.41229 0.27327 0.0
H279 H 0.0833 0.35518 0.37044 0.0
C280 C 0.04678 0.43886 0.37873 0.0
N281 N 0.09841 0.48365 0.49232 0.0
C282 C 0.09521 0.48283 0.54254 0.0
C283 C 0.10351 0.51167 0.48025 0.0
N284 N 0.09881 0.50945 0.56154 0.0
C285 C 0.10397 0.52731 0.52187 0.0
C286 C 0.12495 0.48073 0.35409 0.0
O287 O 0.05592 0.42214 0.35978 0.0
O288 O 0.05998 0.45471 0.41666 0.0
O289 O 0.12007 0.48673 0.39764 0.0
O290 O 0.11459 0.45314 0.34137 0.0
O291 O 0.1295 0.45334 0.46632 0.0
H292 H 0.10604 0.52024 0.44311 0.0
H293 H 0.09032 0.46315 0.56469 0.0
O294 O 0.12373 0.41966 0.409 0.0
O295 O 0.06409 0.38891 0.42622 0.0
O296 O 0.06921 0.42164 0.48416 0.0
C297 C 0.0581 0.39425 0.46928 0.0
H298 H 0.05972 0.32475 0.28746 0.0
H299 H 0.10708 0.55005 0.52262 0.0
Co300 Co 0.63782 0.07255 0.79206 0.0
C301 C 0.58081 0.06344 0.76893 0.0
Co302 Co 0.63645 0.10866 0.74988 0.0
C303 C 0.64978 0.04114 0.86812 0.0
C304 C 0.6211 0.01074 0.81196 0.0
N305 N 0.63666 0.04041 0.82482 0.0
N306 N 0.64268 0.01307 0.88328 0.0
C307 C 0.62459 0.9938 0.84814 0.0
H308 H 0.66255 0.06165 0.88975 0.0
H309 H 0.60709 0.0019 0.77943 0.0
C310 C 0.69488 0.12041 0.77492 0.0
N311 N 0.63828 0.14103 0.71607 0.0
C312 C 0.62335 0.14033 0.67471 0.0
C313 C 0.65635 0.17089 0.72636 0.0
N314 N 0.63157 0.16856 0.65852 0.0
C315 C 0.65241 0.18791 0.69077 0.0
C316 C 0.62976 0.11254 0.85342 0.0
O317 O 0.68131 0.09502 0.79733 0.0
O318 O 0.67922 0.12958 0.752 0.0
O319 O 0.63347 0.12667 0.81268 0.0
O320 O 0.63333 0.08938 0.85327 0.0
O321 O 0.59515 0.089 0.74799 0.0
H322 H 0.67187 0.17969 0.75719 0.0
H323 H 0.60754 0.11952 0.65587 0.0
O324 O 0.59492 0.05105 0.78761 0.0
O325 O 0.64054 0.05463 0.73171 0.0
O326 O 0.63665 0.08855 0.68776 0.0
C327 C 0.63755 0.06379 0.68978 0.0
H328 H 0.61343 0.96919 0.84981 0.0
H329 H 0.66409 0.21253 0.68851 0.0
Co330 Co 0.57093 0.66369 0.04557 0.0
C331 C 0.56723 0.70731 0.10046 0.0
Co332 Co 0.53746 0.64374 0.10992 0.0
C333 C 0.60434 0.65943 0.95789 0.0
C334 C 0.60643 0.70252 0.96267 0.0
N335 N 0.59669 0.67634 0.98788 0.0
N336 N 0.61782 0.67378 0.91502 0.0
C337 C 0.61925 0.70104 0.91847 0.0
H338 H 0.59852 0.63623 0.96579 0.0
H339 H 0.60301 0.72102 0.9743 0.0
C340 C 0.54029 0.60099 0.0545 0.0
N341 N 0.51021 0.62888 0.16653 0.0
C342 C 0.50774 0.61194 0.20753 0.0
C343 C 0.48734 0.63503 0.17232 0.0
N344 N 0.48395 0.60712 0.23766 0.0
C345 C 0.47141 0.62186 0.21495 0.0
C346 C 0.51085 0.64737 0.02249 0.0
O347 O 0.5594 0.62384 0.03009 0.0
O348 O 0.52815 0.60428 0.09337 0.0
O349 O 0.50496 0.63911 0.06746 0.0
O350 O 0.53826 0.65973 1.00694 0.0
O351 O 0.54757 0.68408 0.12431 0.0
H352 H 0.48251 0.64856 0.14708 0.0
H353 H 0.52281 0.603 0.2148 0.0
O354 O 0.58133 0.70433 0.06363 0.0
O355 O 0.60276 0.66678 0.08561 0.0
O356 O 0.57045 0.64852 0.14832 0.0
C357 C 0.59724 0.65871 0.13063 0.0
H358 H 0.62818 0.71851 0.89035 0.0
H359 H 0.45213 0.62345 0.2286 0.0
C360 C 0.44131 0.17852 0.22572 0.0
C361 C 0.43193 0.15312 0.195 0.0
C362 C 0.43519 0.20175 0.21387 0.0
C363 C 0.41915 0.19957 0.17016 0.0
C364 C 0.40753 0.17291 0.14083 0.0
C365 C 0.41408 0.14985 0.15364 0.0
C366 C 0.44797 0.22969 0.24632 0.0
C367 C 0.38994 0.16964 0.09432 0.0
C368 C 0.3981 0.26148 0.15688 0.0
C369 C 0.42307 0.28348 0.12977 0.0
C370 C 0.3955 0.2332 0.16819 0.0
C371 C 0.41857 0.22701 0.15238 0.0
C372 C 0.44338 0.24886 0.12396 0.0
C373 C 0.44528 0.27674 0.11295 0.0
C374 C 0.36863 0.21036 0.19827 0.0
C375 C 0.46865 0.24333 0.10678 0.0
H376 H 0.45467 0.18092 0.2583 0.0
H377 H 0.40665 0.13017 0.12996 0.0
H378 H 0.46669 0.24934 0.22658 0.0
H379 H 0.43017 0.23568 0.25494 0.0
H380 H 0.45717 0.22644 0.28146 0.0
H381 H 0.37813 0.14583 0.08044 0.0
H382 H 0.37281 0.17688 0.10056 0.0
H383 H 0.40589 0.18463 0.06537 0.0
H384 H 0.38068 0.26641 0.16961 0.0
H385 H 0.46456 0.29351 0.09172 0.0
H386 H 0.37648 0.20834 0.23542 0.0
H387 H 0.35816 0.18751 0.18092 0.0
H388 H 0.35089 0.21702 0.20254 0.0
H389 H 0.48115 0.24174 0.1391 0.0
H390 H 0.48525 0.26177 0.08231 0.0
H391 H 0.45899 0.22138 0.08671 0.0
C392 C 0.26245 0.42711 0.61117 0.0
C393 C 0.28805 0.43157 0.58442 0.0
C394 C 0.23648 0.42384 0.58711 0.0
C395 C 0.23674 0.42648 0.53518 0.0
C396 C 0.26214 0.42969 0.5079 0.0
C397 C 0.28738 0.43174 0.53294 0.0
C398 C 0.20946 0.41929 0.61749 0.0
C399 C 0.26372 0.43342 0.45268 0.0
C400 C 0.16281 0.40562 0.46832 0.0
C401 C 0.16373 0.43373 0.46715 0.0
C402 C 0.18636 0.40279 0.49042 0.0
C403 C 0.21188 0.42894 0.51022 0.0
C404 C 0.21326 0.45756 0.50774 0.0
C405 C 0.18887 0.45949 0.48707 0.0
C406 C 0.1835 0.37174 0.49393 0.0
C407 C 0.24044 0.48616 0.52718 0.0
H408 H 0.26316 0.42719 0.65107 0.0
H409 H 0.30752 0.43581 0.51243 0.0
H410 H 0.20828 0.44057 0.61754 0.0
H411 H 0.18787 0.40107 0.60136 0.0
H412 H 0.21099 0.4132 0.65623 0.0
H413 H 0.28354 0.43264 0.43656 0.0
H414 H 0.24254 0.41542 0.4353 0.0
H415 H 0.26577 0.45567 0.44323 0.0
H416 H 0.14315 0.38561 0.45335 0.0
H417 H 0.18964 0.48125 0.48589 0.0
H418 H 0.18312 0.36555 0.5332 0.0
H419 H 0.20355 0.37207 0.47663 0.0
H420 H 0.16246 0.35378 0.47594 0.0
H421 H 0.24203 0.48441 0.56762 0.0
H422 H 0.23904 0.5069 0.519 0.0
H423 H 0.26182 0.4889 0.51084 0.0
C424 C 0.83897 0.26882 0.84286 0.0
C425 C 0.86793 0.2748 0.82754 0.0
C426 C 0.81292 0.2407 0.83331 0.0
C427 C 0.81587 0.2179 0.80783 0.0
C428 C 0.84506 0.22357 0.79278 0.0
C429 C 0.8708 0.25204 0.80272 0.0
C430 C 0.78214 0.23561 0.8497 0.0
C431 C 0.84902 0.19977 0.76559 0.0
C432 C 0.74456 0.14047 0.81933 0.0
C433 C 0.72815 0.14098 0.77828 0.0
C434 C 0.77442 0.16443 0.82778 0.0
C435 C 0.78791 0.18914 0.7942 0.0
C436 C 0.77236 0.18822 0.75052 0.0
C437 C 0.74265 0.16417 0.74316 0.0
C438 C 0.79045 0.1645 0.87455 0.0
C439 C 0.78597 0.21394 0.71355 0.0
H440 H 0.83655 0.28623 0.86221 0.0
H441 H 0.89316 0.25644 0.79102 0.0
H442 H 0.76748 0.2318 0.81712 0.0
H443 H 0.77047 0.21493 0.87307 0.0
H444 H 0.78393 0.25524 0.87079 0.0
H445 H 0.87343 0.20707 0.75909 0.0
H446 H 0.83831 0.17812 0.78668 0.0
H447 H 0.83729 0.19495 0.72952 0.0
H448 H 0.7334 0.12254 0.84651 0.0
H449 H 0.73014 0.16439 0.71096 0.0
H450 H 0.78989 0.18095 0.90092 0.0
H451 H 0.81476 0.17191 0.86716 0.0
H452 H 0.77943 0.14168 0.89225 0.0
H453 H 0.78612 0.23422 0.72936 0.0
H454 H 0.77283 0.20783 0.67866 0.0
H455 H 0.80995 0.22052 0.70505 0.0
C456 C 0.59765 0.75558 0.14641 0.0
C457 C 0.57264 0.73723 0.11647 0.0
C458 C 0.59864 0.7798 0.17328 0.0
C459 C 0.57402 0.78558 0.16978 0.0
C460 C 0.54978 0.76827 0.13677 0.0
C461 C 0.54923 0.74405 0.11094 0.0
C462 C 0.62479 0.79759 0.20819 0.0
C463 C 0.52328 0.77388 0.13138 0.0
C464 C 0.54874 0.81502 0.27802 0.0
C465 C 0.55882 0.84517 0.26388 0.0
C466 C 0.55508 0.79591 0.24897 0.0
C467 C 0.57154 0.80709 0.20432 0.0
C468 C 0.58298 0.83791 0.19096 0.0
C469 C 0.57663 0.85664 0.22106 0.0
C470 C 0.5429 0.7633 0.26497 0.0
C471 C 0.60043 0.85066 0.14357 0.0
H472 H 0.61536 0.74971 0.1514 0.0
H473 H 0.52967 0.72937 0.08833 0.0
H474 H 0.63324 0.82236 0.20502 0.0
H475 H 0.61674 0.79076 0.24659 0.0
H476 H 0.64408 0.79344 0.20134 0.0
H477 H 0.50819 0.76089 0.10019 0.0
H478 H 0.50946 0.76694 0.16568 0.0
H479 H 0.53163 0.79848 0.12562 0.0
H480 H 0.53517 0.80607 0.3112 0.0
H481 H 0.5845 0.87993 0.20977 0.0
H482 H 0.5613 0.75745 0.26388 0.0
H483 H 0.52481 0.74775 0.23919 0.0
H484 H 0.53312 0.75899 0.30273 0.0
H485 H 0.6187 0.84475 0.13964 0.0
H486 H 0.61087 0.87582 0.14139 0.0
H487 H 0.58473 0.84036 0.11193 0.0
C488 C 0.71703 0.52725 0.53907 0.0
C489 C 0.71273 0.54715 0.5087 0.0
C490 C 0.74405 0.5257 0.53634 0.0
C491 C 0.76701 0.54409 0.50182 0.0
C492 C 0.76272 0.56419 0.47114 0.0
C493 C 0.73581 0.56564 0.47521 0.0
C494 C 0.74797 0.50431 0.57016 0.0
C495 C 0.78631 0.5838 0.4332 0.0
C496 C 0.84915 0.56045 0.50925 0.0
C497 C 0.84898 0.5398 0.47464 0.0
C498 C 0.82231 0.56122 0.52025 0.0
C499 C 0.79481 0.54122 0.49544 0.0
C500 C 0.79441 0.51985 0.46143 0.0
C501 C 0.82137 0.51925 0.45177 0.0
C502 C 0.82358 0.584 0.55737 0.0
C503 C 0.76578 0.49842 0.43359 0.0
H504 H 0.69942 0.51308 0.56531 0.0
H505 H 0.73268 0.58104 0.45147 0.0
H506 H 0.74939 0.48658 0.54822 0.0
H507 H 0.76967 0.51697 0.59085 0.0
H508 H 0.72885 0.49288 0.59687 0.0
H509 H 0.77972 0.59859 0.41272 0.0
H510 H 0.80862 0.59848 0.45121 0.0
H511 H 0.78958 0.56913 0.40639 0.0
H512 H 0.87033 0.57628 0.52731 0.0
H513 H 0.82095 0.50321 0.42492 0.0
H514 H 0.80499 0.57251 0.58489 0.0
H515 H 0.82006 0.6014 0.53851 0.0
H516 H 0.84579 0.59577 0.57697 0.0
H517 H 0.74668 0.48525 0.45959 0.0
H518 H 0.76887 0.48216 0.4102 0.0
H519 H 0.75897 0.51175 0.40966 0.0
C520 C 0.22707 0.81893 0.77366 0.0
C521 C 0.25129 0.81339 0.76611 0.0
C522 C 0.19934 0.79641 0.79421 0.0
C523 C 0.19563 0.76753 0.80609 0.0
C524 C 0.21896 0.76095 0.7935 0.0
C525 C 0.24677 0.78419 0.77461 0.0
C526 C 0.17541 0.80464 0.80784 0.0
C527 C 0.21558 0.73015 0.80385 0.0
C528 C 0.15189 0.7233 0.91923 0.0
C529 C 0.12474 0.70029 0.89875 0.0
C530 C 0.17425 0.74643 0.88969 0.0
C531 C 0.16984 0.74589 0.83809 0.0
C532 C 0.14193 0.72329 0.81746 0.0
C533 C 0.11949 0.70095 0.84822 0.0
C534 C 0.20324 0.77066 0.91352 0.0
C535 C 0.13658 0.72138 0.76264 0.0
H536 H 0.23082 0.84175 0.76809 0.0
H537 H 0.26564 0.78003 0.76918 0.0
H538 H 0.15222 0.78589 0.79862 0.0
H539 H 0.17605 0.80838 0.84818 0.0
H540 H 0.17933 0.82575 0.789 0.0
H541 H 0.23327 0.7271 0.78454 0.0
H542 H 0.21775 0.72769 0.84398 0.0
H543 H 0.19271 0.71166 0.79242 0.0
H544 H 0.15594 0.72276 0.95829 0.0
H545 H 0.09868 0.68285 0.83221 0.0
H546 H 0.20862 0.79363 0.9008 0.0
H547 H 0.22259 0.76742 0.90266 0.0
H548 H 0.20159 0.76996 0.95433 0.0
H549 H 0.11234 0.70539 0.7532 0.0
H550 H 0.15096 0.71332 0.74456 0.0
H551 H 0.14331 0.74413 0.74714 0.0
C552 C 0.60224 0.13733 0.89502 0.0
C553 C 0.61582 0.11896 0.89819 0.0
C554 C 0.58471 0.13935 0.93434 0.0
C555 C 0.58049 0.12282 0.97875 0.0
C556 C 0.59496 0.10502 0.98266 0.0
C557 C 0.61216 0.10324 0.94273 0.0
C558 C 0.56974 0.15844 0.92766 0.0
C559 C 0.59142 0.08687 0.02864 0.0
C560 C 0.55174 0.14234 0.09849 0.0
C561 C 0.52063 0.1198 0.09996 0.0
C562 C 0.57122 0.14402 0.05921 0.0
C563 C 0.55969 0.12267 0.01984 0.0
C564 C 0.52817 0.10034 0.02071 0.0
C565 C 0.50928 0.09919 0.06026 0.0
C566 C 0.60445 0.16828 0.06052 0.0
C567 C 0.51436 0.07678 0.98056 0.0
H568 H 0.60424 0.14926 0.8609 0.0
H569 H 0.62211 0.0887 0.94604 0.0
H570 H 0.54459 0.14383 0.93081 0.0
H571 H 0.57716 0.1758 0.95722 0.0
H572 H 0.57525 0.17017 0.89143 0.0
H573 H 0.60558 0.07577 0.02745 0.0
H574 H 0.59793 0.10183 0.06149 0.0
H575 H 0.56717 0.06896 0.03329 0.0
H576 H 0.56115 0.15833 0.12874 0.0
H577 H 0.48549 0.08144 0.06054 0.0
H578 H 0.6109 0.18165 0.02586 0.0
H579 H 0.61878 0.15744 0.06328 0.0
H580 H 0.60979 0.18411 0.09205 0.0
H581 H 0.52167 0.08755 0.94384 0.0
H582 H 0.48902 0.06415 0.98216 0.0
H583 H 0.52246 0.06018 0.98431 0.0
C584 C 0.44122 0.57485 0.29504 0.0
C585 C 0.47268 0.59002 0.28393 0.0
C586 C 0.42944 0.56039 0.34091 0.0
C587 C 0.44934 0.56098 0.37816 0.0
C588 C 0.48117 0.57581 0.36711 0.0
C589 C 0.49239 0.58988 0.32033 0.0
C590 C 0.39539 0.54442 0.34947 0.0
C591 C 0.50352 0.57728 0.40516 0.0
C592 C 0.4169 0.54515 0.51163 0.0
C593 C 0.40788 0.51426 0.51853 0.0
C594 C 0.43115 0.5608 0.46717 0.0
C595 C 0.43644 0.54539 0.42773 0.0
C596 C 0.42748 0.51426 0.43476 0.0
C597 C 0.41364 0.49935 0.47953 0.0
C598 C 0.44049 0.59396 0.46228 0.0
C599 C 0.43204 0.49635 0.39449 0.0
H600 H 0.42553 0.57424 0.26742 0.0
H601 H 0.51668 0.6016 0.31282 0.0
H602 H 0.38675 0.52013 0.35873 0.0
H603 H 0.39019 0.55486 0.38123 0.0
H604 H 0.3828 0.54553 0.31684 0.0
H605 H 0.52746 0.58973 0.39159 0.0
H606 H 0.50178 0.58875 0.43882 0.0
H607 H 0.49787 0.55393 0.41601 0.0
H608 H 0.41305 0.55725 0.54116 0.0
H609 H 0.40705 0.47557 0.48374 0.0
H610 H 0.42741 0.59687 0.43214 0.0
H611 H 0.46503 0.6075 0.45235 0.0
H612 H 0.43653 0.60333 0.49673 0.0
H613 H 0.41912 0.49586 0.36125 0.0
H614 H 0.42442 0.47251 0.40568 0.0
H615 H 0.45649 0.50754 0.38393 0.0
C616 C 0.91654 0.40651 0.73552 0.0
C617 C 0.93954 0.39859 0.73779 0.0
C618 C 0.91582 0.42542 0.69801 0.0
C619 C 0.93884 0.4374 0.66121 0.0
C620 C 0.96217 0.42947 0.66301 0.0
C621 C 0.96217 0.41014 0.70093 0.0
C622 C 0.89025 0.43265 0.69793 0.0
C623 C 0.98752 0.44189 0.62534 0.0
C624 C 0.9187 0.46279 0.54024 0.0
C625 C 0.93204 0.49457 0.54594 0.0
C626 C 0.92136 0.44429 0.57658 0.0
C627 C 0.93777 0.45747 0.62056 0.0
C628 C 0.95148 0.48956 0.62654 0.0
C629 C 0.94852 0.50763 0.58941 0.0
C630 C 0.90621 0.41038 0.56804 0.0
C631 C 0.96895 0.50484 0.67267 0.0
H632 H 0.89886 0.39792 0.76352 0.0
H633 H 0.98033 0.40469 0.70234 0.0
H634 H 0.89975 0.45763 0.7005 0.0
H635 H 0.87744 0.42501 0.66284 0.0
H636 H 0.87399 0.42157 0.7289 0.0
H637 H 0.0029 0.4323 0.62971 0.0
H638 H 0.97791 0.43682 0.58761 0.0
H639 H 0.00125 0.46704 0.62888 0.0
H640 H 0.90606 0.45216 0.50697 0.0
H641 H 0.95908 0.53204 0.59457 0.0
H642 H 0.88865 0.39811 0.59682 0.0
H643 H 0.92328 0.4028 0.57096 0.0
H644 H 0.89513 0.40361 0.53139 0.0
H645 H 0.95297 0.49791 0.70436 0.0
H646 H 0.98109 0.53008 0.6697 0.0
H647 H 0.98575 0.49745 0.68079 0.0
C648 C 0.3999 0.84416 0.99237 0.0
C649 C 0.3864 0.86205 0.98174 0.0
C650 C 0.41626 0.84762 0.03643 0.0
C651 C 0.41934 0.86937 0.07234 0.0
C652 C 0.40604 0.88779 0.06176 0.0
C653 C 0.39007 0.88413 0.01679 0.0
C654 C 0.43043 0.82789 0.04441 0.0
C655 C 0.40827 0.91117 0.09843 0.0
C656 C 0.43996 0.85712 0.20506 0.0
C657 C 0.47151 0.87794 0.20775 0.0
C658 C 0.42269 0.85467 0.16219 0.0
C659 C 0.43706 0.87304 0.11993 0.0
C660 C 0.46893 0.8939 0.12249 0.0
C661 C 0.48547 0.89624 0.16592 0.0
C662 C 0.38887 0.83233 0.16214 0.0
C663 C 0.48585 0.91363 0.07885 0.0
H664 H 0.39792 0.82739 0.9657 0.0
H665 H 0.37975 0.89802 1.00965 0.0
H666 H 0.4554 0.84242 0.04995 0.0
H667 H 0.42089 0.81398 0.07818 0.0
H668 H 0.42649 0.81234 1.01294 0.0
H669 H 0.39685 0.92372 0.08526 0.0
H670 H 0.39767 0.89982 0.1338 0.0
H671 H 0.43257 0.92784 0.10602 0.0
H672 H 0.42861 0.84295 0.23678 0.0
H673 H 0.50974 0.91245 0.16681 0.0
H674 H 0.38344 0.81475 0.13348 0.0
H675 H 0.37616 0.84425 0.15283 0.0
H676 H 0.38062 0.82078 0.19826 0.0
H677 H 0.48347 0.89906 0.04673 0.0
H678 H 0.51055 0.92881 0.08638 0.0
H679 H 0.47581 0.92789 0.06834 0.0
C680 C 0.51834 0.42577 0.19854 0.0
C681 C 0.48671 0.41257 0.20709 0.0
C682 C 0.5403 0.44606 0.23241 0.0
C683 C 0.53093 0.45387 0.27672 0.0
C684 C 0.49904 0.44078 0.28564 0.0
C685 C 0.47745 0.4204 0.251 0.0
C686 C 0.57374 0.45899 0.22081 0.0
C687 C 0.48767 0.44823 0.33206 0.0
C688 C 0.58569 0.47927 0.38714 0.0
C689 C 0.59863 0.51119 0.38782 0.0
C690 C 0.56405 0.46074 0.3515 0.0
C691 C 0.55448 0.47401 0.31478 0.0
C692 C 0.56799 0.50634 0.31428 0.0
C693 C 0.58982 0.52447 0.35057 0.0
C694 C 0.55094 0.42667 0.35383 0.0
C695 C 0.55873 0.52176 0.27616 0.0
H696 H 0.52614 0.42029 0.16491 0.0
H697 H 0.45327 0.41076 0.25822 0.0
H698 H 0.5857 0.48424 0.2217 0.0
H699 H 0.58441 0.4516 0.24919 0.0
H700 H 0.5775 0.45166 0.18415 0.0
H701 H 0.46241 0.43757 0.33275 0.0
H702 H 0.49488 0.44018 0.36458 0.0
H703 H 0.49791 0.47327 0.33572 0.0
H704 H 0.59201 0.46847 0.41557 0.0
H705 H 0.59907 0.54892 0.35084 0.0
H706 H 0.55508 0.41829 0.31853 0.0
H707 H 0.52586 0.41518 0.3593 0.0
H708 H 0.56093 0.41978 0.38413 0.0
H709 H 0.56169 0.51493 0.23865 0.0
H710 H 0.57219 0.547 0.27896 0.0
H711 H 0.53418 0.51436 0.28072 0.0
C712 C 0.06264 0.57754 0.80179 0.0
C713 C 0.08007 0.58057 0.84396 0.0
C714 C 0.06528 0.56382 0.75801 0.0
C715 C 0.08561 0.55214 0.75558 0.0
C716 C 0.1028 0.55451 0.79841 0.0
C717 C 0.10009 0.56887 0.84159 0.0
C718 C 0.04702 0.56299 0.71366 0.0
C719 C 0.12441 0.54213 0.79845 0.0
C720 C 0.07591 0.49832 0.6466 0.0
C721 C 0.09735 0.51851 0.61226 0.0
C722 C 0.07219 0.50858 0.69359 0.0
C723 C 0.09052 0.53979 0.70726 0.0
C724 C 0.11282 0.55987 0.67321 0.0
C725 C 0.11589 0.5491 0.62673 0.0
C726 C 0.04773 0.48621 0.72782 0.0
C727 C 0.13301 0.5932 0.68521 0.0
H728 H 0.04717 0.58652 0.80254 0.0
H729 H 0.11356 0.57072 0.87371 0.0
H730 H 0.06222 0.58104 0.68743 0.0
H731 H 0.03756 0.54087 0.69424 0.0
H732 H 0.02799 0.56697 0.72374 0.0
H733 H 0.13465 0.54382 0.83524 0.0
H734 H 0.11221 0.5179 0.78683 0.0
H735 H 0.14305 0.55488 0.77149 0.0
H736 H 0.06121 0.47477 0.63601 0.0
H737 H 0.13278 0.56495 0.60107 0.0
H738 H 0.0291 0.4917 0.73057 0.0
H739 H 0.05704 0.48801 0.76539 0.0
H740 H 0.03784 0.46233 0.71481 0.0
H741 H 0.11881 0.60407 0.6901 0.0
H742 H 0.15018 0.60567 0.65593 0.0
H743 H 0.14517 0.5958 0.72037 0.0
C744 C 0.31803 0.95924 0.85726 0.0
C745 C 0.29973 0.9276 0.86213 0.0
C746 C 0.32693 0.97797 0.89899 0.0
C747 C 0.31618 0.96459 0.94583 0.0
C748 C 0.29315 0.93358 0.94925 0.0
C749 C 0.28557 0.91519 0.90723 0.0
C750 C 0.35177 0.0108 0.8935 0.0
C751 C 0.28004 0.91877 0.99825 0.0
C752 C 0.37442 0.98634 0.04704 0.0
C753 C 0.36834 0.00534 0.07624 0.0
C754 C 0.35818 0.97383 1.00364 0.0
C755 C 0.33462 0.97984 0.99009 0.0
C756 C 0.32858 -0.00066 0.01944 0.0
C757 C 0.34589 0.01223 0.06218 0.0
C758 C 0.36591 0.95364 0.97301 0.0
C759 C 0.3032 0.00562 1.00686 0.0
H760 H 0.32913 0.96881 0.82231 0.0
H761 H 0.27126 0.89069 0.91077 0.0
H762 H 0.34915 0.02563 0.92076 0.0
H763 H 0.37423 0.01246 0.89984 0.0
H764 H 0.35197 0.0195 0.8559 0.0
H765 H 0.25782 0.89741 0.99374 0.0
H766 H 0.2961 0.91301 0.01654 0.0
H767 H 0.2768 0.93445 0.02279 0.0
H768 H 0.39197 0.98133 0.05845 0.0
H769 H 0.3413 0.02684 0.08555 0.0
H770 H 0.36849 0.96041 0.93372 0.0
H771 H 0.34708 0.92967 0.97559 0.0
H772 H 0.3873 0.95458 0.9853 0.0
H773 H 0.30398 0.0114 0.96733 0.0
H774 H 0.30426 0.02447 0.0293 0.0
H775 H 0.28089 0.98479 1.01372 0.0
C776 C 0.3447 0.30102 0.29455 0.0
C777 C 0.33214 0.31598 0.26841 0.0
C778 C 0.34566 0.30191 0.34597 0.0
C779 C 0.3333 0.31767 0.37118 0.0
C780 C 0.31558 0.32759 0.34534 0.0
C781 C 0.31539 0.32685 0.29384 0.0
C782 C 0.36384 0.29007 0.37238 0.0
C783 C 0.3007 0.34313 0.37145 0.0
C784 C 0.34238 0.33278 0.5085 0.0
C785 C 0.36705 0.36261 0.50876 0.0
C786 C 0.33148 0.31697 0.464 0.0
C787 C 0.34605 0.33152 0.41948 0.0
C788 C 0.37225 0.36104 0.42035 0.0
C789 C 0.38212 0.37635 0.4651 0.0
C790 C 0.30335 0.28578 0.46467 0.0
C791 C 0.38904 0.37718 0.37384 0.0
H792 H 0.35645 0.29131 0.27475 0.0
H793 H 0.30498 0.33778 0.27385 0.0
H794 H 0.38732 0.30923 0.37881 0.0
H795 H 0.35359 0.28029 0.40872 0.0
H796 H 0.36548 0.27246 0.35031 0.0
H797 H 0.28271 0.34342 0.34848 0.0
H798 H 0.29045 0.33162 0.40686 0.0
H799 H 0.31824 0.36705 0.37968 0.0
H800 H 0.33065 0.3226 0.54273 0.0
H801 H 0.40115 0.39952 0.46611 0.0
H802 H 0.30402 0.27094 0.43522 0.0
H803 H 0.28298 0.28816 0.45841 0.0
H804 H 0.30049 0.27438 0.50079 0.0
H805 H 0.39516 0.36244 0.35215 0.0
H806 H 0.41027 0.399 0.38165 0.0
H807 H 0.37407 0.3822 0.35061 0.0
C808 C 0.03529 0.33948 0.49227 0.0
C809 C 0.0404 0.36877 0.5031 0.0
C810 C 0.02281 0.31626 0.52769 0.0
C811 C 0.01497 0.32262 0.57438 0.0
C812 C 0.01771 0.35149 0.58382 0.0
C813 C 0.03053 0.37421 0.54803 0.0
C814 C 0.01869 0.28537 0.51534 0.0
C815 C 0.00887 0.35921 0.63279 0.0
C816 C 0.97212 0.28099 0.68368 0.0
C817 C 0.99668 0.29405 0.71666 0.0
C818 C 0.97751 0.2846 0.63294 0.0
C819 C 0.00795 0.30152 0.61618 0.0
C820 C 0.03214 0.30739 0.64856 0.0
C821 C 0.02617 0.3036 0.6991 0.0
C822 C 0.95103 0.27557 0.5986 0.0
C823 C 0.06491 0.32344 0.63131 0.0
H824 H 0.04234 0.33503 0.45696 0.0
H825 H 0.03384 0.39664 0.55597 0.0
H826 H 0.02514 0.27571 0.54662 0.0
H827 H 0.99426 0.26947 0.50722 0.0
H828 H 0.03228 0.28629 0.48251 0.0
H829 H 0.0112 0.38221 0.63286 0.0
H830 H 0.98486 0.34234 0.64201 0.0
H831 H 0.02359 0.35855 0.66237 0.0
H832 H 0.94903 0.27178 0.69745 0.0
H833 H 0.0452 0.31248 0.72441 0.0
H834 H 0.95583 0.26929 0.56189 0.0
H835 H 0.94717 0.29514 0.59376 0.0
H836 H 0.92976 0.25614 0.61371 0.0
H837 H 0.06697 0.31515 0.5945 0.0
H838 H 0.07979 0.32012 0.65758 0.0
H839 H 0.07332 0.34825 0.62839 0.0
C840 C 0.63909 0.97468 0.16649 0.0
C841 C 0.62614 0.99122 0.18616 0.0
C842 C 0.65001 0.97965 0.11808 0.0
C843 C 0.64695 0.00098 0.08878 0.0
C844 C 0.63651 0.01969 0.11006 0.0
C845 C 0.62649 0.01474 0.15897 0.0
C846 C 0.6621 0.96011 0.09719 0.0
C847 C 0.63262 0.04251 0.07981 0.0
C848 C 0.67351 0.02388 0.95795 0.0
C849 C 0.64634 0.00545 0.93249 0.0
C850 C 0.67511 0.02091 1.00894 0.0
C851 C 0.6486 -0.00033 0.03465 0.0
C852 C 0.6218 0.97951 1.00849 0.0
C853 C 0.62116 0.98247 0.95749 0.0
C854 C 0.70439 0.0419 0.03548 0.0
C855 C 0.59288 0.95667 0.03465 0.0
H856 H 0.63911 0.95677 0.18823 0.0
H857 H 0.61635 0.02735 0.17452 0.0
H858 H 0.64369 0.9408 0.07654 0.0
H859 H 0.68124 0.97331 0.07123 0.0
H860 H 0.67002 0.95057 0.12673 0.0
H861 H 0.62738 0.05738 0.10304 0.0
H862 H 0.65353 0.05709 0.05809 0.0
H863 H 0.61361 0.03019 0.0534 0.0
H864 H 0.69302 0.04146 0.93818 0.0
H865 H 0.60011 0.96846 0.93772 0.0
H866 H 0.70861 0.02974 0.06567 0.0
H867 H 0.70267 0.06098 0.05212 0.0
H868 H 0.72429 0.05168 1.01002 0.0
H869 H 0.59754 0.94222 0.05968 0.0
H870 H 0.57465 0.94161 1.00858 0.0
H871 H 0.58416 0.96889 0.05748 0.0
C872 C 0.70263 0.68975 0.35179 0.0
C873 C 0.70586 0.66429 0.3612 0.0
C874 C 0.69505 0.69482 0.30464 0.0
C875 C 0.69055 0.67382 0.26677 0.0
C876 C 0.69991 0.65209 0.27386 0.0
C877 C 0.7076 0.64759 0.32135 0.0
C878 C 0.6867 0.71931 0.29781 0.0
C879 C 0.69706 0.63037 0.23353 0.0
C880 C 0.61385 0.6453 0.20752 0.0
C881 C 0.62167 0.66116 0.16289 0.0
C882 C 0.63629 0.64838 0.24048 0.0
C883 C 0.66748 0.66818 0.2287 0.0
C884 C 0.67566 0.68359 0.18297 0.0
C885 C 0.65253 0.67966 0.15023 0.0
C886 C 0.6264 0.63103 0.28861 0.0
C887 C 0.70861 0.70423 0.16865 0.0
H888 H 0.70217 0.70347 0.38198 0.0
H889 H 0.71167 0.62885 0.32814 0.0
H890 H 0.69327 0.72961 0.2606 0.0
H891 H 0.6616 0.70906 0.30169 0.0
H892 H 0.69784 0.73759 0.32582 0.0
H893 H 0.71208 0.62059 0.2404 0.0
H894 H 0.67311 0.61133 0.23198 0.0
H895 H 0.70285 0.64189 0.1972 0.0
H896 H 0.59002 0.63055 0.21703 0.0
H897 H 0.65861 0.6917 0.11538 0.0
H898 H 0.63391 0.64723 0.31993 0.0
H899 H 0.63711 0.61667 0.29288 0.0
H900 H 0.60124 0.61601 0.29117 0.0
H901 H 0.72215 0.71854 0.20008 0.0
H902 H 0.71091 0.71933 0.13735 0.0
H903 H 0.7187 0.6901 0.15738 0.0
C904 C 0.97179 0.65668 0.8189 0.0
C905 C 0.97772 0.6326 0.82294 0.0
C906 C 0.96785 0.66635 0.77247 0.0
C907 C 0.96903 0.65077 0.73 0.0
C908 C 0.97319 0.62516 0.7347 0.0
C909 C 0.97784 0.6167 0.78118 0.0
C910 C 0.96309 0.69342 0.76913 0.0
C911 C 0.97409 0.60735 0.69058 0.0
C912 C 0.94198 0.64294 0.60251 0.0
C913 C 0.97023 0.65403 0.57876 0.0
C914 C 0.94064 0.64656 0.65329 0.0
C915 C 0.96821 0.66163 0.67991 0.0
C916 C 0.99623 0.6785 0.65441 0.0
C917 C 0.99699 0.67427 0.60362 0.0
C918 C 0.91017 0.62973 0.67903 0.0
C919 C 0.02598 0.69649 0.6816 0.0
H920 H 0.97184 0.66885 0.85177 0.0
H921 H 0.98233 0.59801 0.78512 0.0
H922 H 0.97491 0.70782 0.73664 0.0
H923 H 0.93835 0.68519 0.76527 0.0
H924 H 0.97126 0.70776 0.80276 0.0
H925 H 0.97573 0.58706 0.70133 0.0
H926 H 0.95328 0.59953 0.66796 0.0
H927 H 0.99412 0.62212 0.66714 0.0
H928 H 0.92113 0.62853 0.58248 0.0
H929 H 0.01882 0.68367 0.58498 0.0
H930 H 0.9095 0.64266 0.71149 0.0
H931 H 0.90649 0.60739 0.69213 0.0
H932 H 0.89116 0.62547 0.65386 0.0
H933 H 0.02309 0.70799 0.71427 0.0
H934 H 0.044 0.71387 0.65738 0.0
H935 H 0.0338 0.68076 0.69457 0.0
C936 C 0.49288 0.02396 0.27506 0.0
C937 C 0.495 0.05134 0.28824 0.0
C938 C 0.49106 0.00378 0.31139 0.0
C939 C 0.48951 0.01079 0.36192 0.0
C940 C 0.49168 0.03868 0.37509 0.0
C941 C 0.49474 0.0588 0.33791 0.0
C942 C 0.49177 0.97562 0.29502 0.0
C943 C 0.49125 0.04809 0.42773 0.0
C944 C 0.46672 0.93543 0.40338 0.0
C945 C 0.49653 0.94064 0.40397 0.0
C946 C 0.46232 0.96053 0.40206 0.0
C947 C 0.48853 0.98988 0.40001 0.0
C948 C 0.51696 0.9943 0.41627 0.0
C949 C 0.52051 0.96885 0.41906 0.0
C950 C 0.43091 0.95531 0.39058 0.0
C951 C 0.54491 0.02562 0.41975 0.0
H952 H 0.49268 0.01847 0.23641 0.0
H953 H 0.4954 0.07981 0.34792 0.0
H954 H 0.51046 0.97442 0.31405 0.0
H955 H 0.46983 0.95488 0.30385 0.0
H956 H 0.49567 0.97546 0.25477 0.0
H957 H 0.5134 0.06876 0.43618 0.0
H958 H 0.47339 0.0545 0.43218 0.0
H959 H 0.48711 0.03022 0.45508 0.0
H960 H 0.44786 0.91294 0.39488 0.0
H961 H 0.54317 0.97185 0.42355 0.0
H962 H 0.42265 0.94251 0.35552 0.0
H963 H 0.43045 0.9769 0.38739 0.0
H964 H 0.41477 0.94107 0.41996 0.0
H965 H 0.54831 0.03881 0.38543 0.0
H966 H 0.56601 0.02457 0.42617 0.0
H967 H 0.54194 0.03834 0.45048 0.0
C968 C 0.47619 0.50025 0.68471 0.0
C969 C 0.45515 0.50983 0.69397 0.0
C970 C 0.50529 0.52134 0.66754 0.0
C971 C 0.51148 0.55118 0.6558 0.0
C972 C 0.49304 0.56213 0.67567 0.0
C973 C 0.46545 0.5412 0.69758 0.0
C974 C 0.5271 0.51033 0.6539 0.0
C975 C 0.50032 0.59466 0.66888 0.0
C976 C 0.58171 0.59257 0.57979 0.0
C977 C 0.57187 0.57284 0.53937 0.0
C978 C 0.56123 0.58867 0.61742 0.0
C979 C 0.53048 0.56585 0.61213 0.0
C980 C 0.51965 0.55145 0.56586 0.0
C981 C 0.54085 0.55402 0.53044 0.0
C982 C 0.57307 0.60716 0.66375 0.0
C983 C 0.48616 0.53013 0.5562 0.0
H984 H 0.46898 0.47618 0.68508 0.0
H985 H 0.44992 0.54896 0.70914 0.0
H986 H 0.52187 0.50056 0.61623 0.0
H987 H 0.5511 0.52932 0.65452 0.0
H988 H 0.52467 0.49216 0.67952 0.0
H989 H 0.51763 0.60918 0.6965 0.0
H990 H 0.50983 0.60346 0.63175 0.0
H991 H 0.4799 0.59714 0.67446 0.0
H992 H 0.60594 0.60786 0.58543 0.0
H993 H 0.53339 0.5394 0.49827 0.0
H994 H 0.56182 0.5936 0.6972 0.0
H995 H 0.56851 0.62639 0.66211 0.0
H996 H 0.59803 0.61689 0.667 0.0
H997 H 0.47986 0.50673 0.56791 0.0
H998 H 0.48104 0.52937 0.51631 0.0
H999 H 0.47176 0.53722 0.57689 0.0
C1000 C 0.00745 0.4127 0.97164 0.0
C1001 C 0.01365 0.4215 0.92216 0.0
C1002 C 0.011 0.43391 1.00745 0.0
C1003 C 0.02462 0.46473 0.99361 0.0
C1004 C 0.03865 0.47423 0.94659 0.0
C1005 C 0.03171 0.45218 0.9102 0.0
C1006 C 0.9946 0.42226 0.05592 0.0
C1007 C 0.05609 0.50741 0.93204 0.0
C1008 C 0.99545 0.518 1.00318 0.0
C1009 C 0.01988 0.54068 0.02942 0.0
C1010 C 0.99318 0.48955 0.99796 0.0
C1011 C 0.01603 0.48482 0.01956 0.0
C1012 C 0.0354 0.50495 0.05601 0.0
C1013 C 0.03611 0.53262 0.06212 0.0
C1014 C 0.97053 0.46762 0.96117 0.0
C1015 C 0.05936 0.50052 0.08152 0.0
H1016 H 0.99412 0.3888 0.98063 0.0
H1017 H 0.03705 0.45896 0.87196 0.0
H1018 H 0.0014 0.44026 0.08419 0.0
H1019 H 0.96967 0.4115 0.04984 0.0
H1020 H -0.00131 0.40425 0.07033 0.0
H1021 H 0.07244 0.5112 0.90177 0.0
H1022 H 0.0399 0.51456 0.9187 0.0
H1023 H 0.06881 0.52202 0.96379 0.0
H1024 H 0.98174 0.52385 0.97991 0.0
H1025 H 0.05373 0.54997 0.08513 0.0
H1026 H 0.96613 0.44409 0.96645 0.0
H1027 H 0.97964 0.47509 0.92339 0.0
H1028 H 0.94858 0.46757 0.96384 0.0
H1029 H 0.06268 0.50929 0.11981 0.0
H1030 H 0.08142 0.51387 0.0618 0.0
H1031 H 0.05358 0.47635 0.08233 0.0
C1032 C 0.04153 0.4611 0.30244 0.0
C1033 C 0.02908 0.44769 0.34808 0.0
C1034 C 0.03488 0.48243 0.28225 0.0
C1035 C 0.01475 0.48915 0.30799 0.0
C1036 C 0.9965 0.46965 0.34682 0.0
C1037 C 0.00505 0.45003 0.3682 0.0
C1038 C 0.05286 0.50043 0.23808 0.0
C1039 C 0.97144 0.47289 0.37128 0.0
C1040 C 0.02535 0.55443 0.37534 0.0
C1041 C -0.00132 0.5531 0.35885 0.0
C1042 C 0.03729 0.53904 0.34869 0.0
C1043 C 0.02021 0.52059 0.30828 0.0
C1044 C -0.00118 0.52636 0.28497 0.0
C1045 C 0.98883 0.54369 0.31039 0.0
C1046 C 0.06332 0.53657 0.37059 0.0
C1047 C 0.98131 0.50886 0.24012 0.0
H1048 H 0.05959 0.45831 0.28613 0.0
H1049 H 0.99482 0.43866 0.40267 0.0
H1050 H 0.04558 0.51634 0.22412 0.0
H1051 H 0.0773 0.51361 0.24804 0.0
H1052 H 0.05072 0.48458 0.2081 0.0
H1053 H 0.95475 0.45139 0.38991 0.0
H1054 H 0.98145 0.49094 0.39976 0.0
H1055 H 0.959 0.47895 0.34419 0.0
H1056 H 0.03391 0.56306 0.41187 0.0
H1057 H 0.96907 0.5443 0.29665 0.0
H1058 H 0.07611 0.53203 0.34173 0.0
H1059 H 0.05418 0.51751 0.39747 0.0
H1060 H 0.07929 0.5578 0.39047 0.0
H1061 H 0.99364 0.49965 0.21886 0.0
H1062 H 0.97664 0.52364 0.21579 0.0
H1063 H 0.95892 0.48951 0.25181 0.0
C1064 C 0.41212 0.99236 0.77 0.0
C1065 C 0.40201 0.96892 0.80478 0.0
C1066 C 0.43995 0.0189 0.77679 0.0
C1067 C 0.4572 0.02099 0.81887 0.0
C1068 C 0.44311 0.00143 0.85926 0.0
C1069 C 0.41556 0.9747 0.85131 0.0
C1070 C 0.4534 0.04123 0.73475 0.0
C1071 C 0.45979 0.00521 0.90686 0.0
C1072 C 0.5285 0.02152 0.77918 0.0
C1073 C 0.54943 0.05238 0.78196 0.0
C1074 C 0.4983 0.01085 0.79254 0.0
C1075 C 0.48961 0.03184 0.81083 0.0
C1076 C 0.5114 0.06292 0.81647 0.0
C1077 C 0.54117 0.07298 0.8009 0.0
C1078 C 0.47586 0.97727 0.78547 0.0
C1079 C 0.50364 0.08574 0.83784 0.0
H1080 H 0.40027 0.9887 0.73526 0.0
H1081 H 0.40644 0.95735 0.87971 0.0
H1082 H 0.46474 0.0649 0.74877 0.0
H1083 H 0.47083 0.03782 0.71537 0.0
H1084 H 0.43573 0.03833 0.70765 0.0
H1085 H 0.44379 -0.00097 0.93851 0.0
H1086 H 0.46926 0.98962 0.90718 0.0
H1087 H 0.47881 0.02889 0.91148 0.0
H1088 H 0.53567 0.00598 0.76533 0.0
H1089 H 0.55817 0.09692 0.80444 0.0
H1090 H 0.4572 0.97414 0.76059 0.0
H1091 H 0.46576 0.96648 0.82133 0.0
H1092 H 0.48671 0.96485 0.76926 0.0
H1093 H 0.48352 0.07493 0.8627 0.0
H1094 H 0.49876 0.0973 0.80754 0.0
H1095 H 0.52336 0.10372 0.85848 0.0
C1096 C 0.50837 0.57021 0.98694 0.0
C1097 C 0.52493 0.57219 0.0293 0.0
C1098 C 0.485 0.54205 0.97085 0.0
C1099 C 0.47964 0.51576 0.99678 0.0
C1100 C 0.5003 0.5177 0.03409 0.0
C1101 C 0.52203 0.54625 0.0514 0.0
C1102 C 0.46544 0.54127 0.92845 0.0
C1103 C 0.49799 0.49003 0.05922 0.0
C1104 C 0.41791 0.45228 0.05598 0.0
C1105 C 0.42461 0.43106 0.03547 0.0
C1106 C 0.42994 0.48086 0.03356 0.0
C1107 C 0.45011 0.48753 0.99318 0.0
C1108 C 0.44901 0.46365 0.96539 0.0
C1109 C 0.43565 0.43496 0.98699 0.0
C1110 C 0.4272 0.50567 0.05948 0.0
C1111 C 0.46752 0.46945 0.91907 0.0
H1112 H 0.51159 0.59082 0.96938 0.0
H1113 H 0.53563 0.54833 0.08352 0.0
H1114 H 0.44365 0.51943 0.92536 0.0
H1115 H 0.46044 0.56014 0.93192 0.0
H1116 H 0.47844 0.54508 0.89367 0.0
H1117 H 0.51943 0.49558 0.07872 0.0
H1118 H 0.47941 0.48125 0.087 0.0
H1119 H 0.49319 0.47177 0.03223 0.0
H1120 H 0.40748 0.44841 0.09213 0.0
H1121 H 0.43834 0.41725 0.96933 0.0
H1122 H 0.42928 0.52326 0.03289 0.0
H1123 H 0.44579 0.5168 0.08695 0.0
H1124 H 0.40504 0.49617 0.07927 0.0
H1125 H 0.46977 0.48942 0.89872 0.0
H1126 H 0.45679 0.44918 0.89475 0.0
H1127 H 0.49072 0.47392 0.92876 0.0
C1128 C 0.37908 0.97323 0.55579 0.0
C1129 C 0.35079 0.96872 0.57301 0.0
C1130 C 0.39451 0.99254 0.51498 0.0
C1131 C 0.38192 0.00853 0.49018 0.0
C1132 C 0.35387 0.00477 0.50841 0.0
C1133 C 0.33881 0.98513 0.54887 0.0
C1134 C 0.42458 0.99582 0.49923 0.0
C1135 C 0.3395 0.02151 0.48486 0.0
C1136 C 0.4321 0.07655 0.40252 0.0
C1137 C 0.42285 0.06355 0.35539 0.0
C1138 C 0.41919 0.05922 0.44634 0.0
C1139 C 0.39674 0.02771 0.44385 0.0
C1140 C 0.38791 0.01444 0.39636 0.0
C1141 C 0.40059 0.03234 0.35339 0.0
C1142 C 0.43011 0.07454 0.49554 0.0
C1143 C 0.36535 0.9809 0.39084 0.0
H1144 H 0.38907 0.96117 0.57356 0.0
H1145 H 0.31752 0.98287 0.56174 0.0
H1146 H 0.42912 0.00124 0.45962 0.0
H1147 H 0.44314 0.01467 0.5204 0.0
H1148 H 0.42545 0.97474 0.50702 0.0
H1149 H 0.31871 0.01783 0.50477 0.0
H1150 H 0.35615 0.04632 0.48381 0.0
H1151 H 0.33322 0.01378 0.44627 0.0
H1152 H 0.44963 0.1003 0.40526 0.0
H1153 H 0.39351 0.02142 0.31776 0.0
H1154 H 0.44161 0.06398 0.51547 0.0
H1155 H 0.41038 0.07112 0.51832 0.0
H1156 H 0.44636 0.09936 0.49188 0.0
H1157 H 0.37354 0.96741 0.41128 0.0
H1158 H 0.36176 0.97348 0.35176 0.0
H1159 H 0.34305 0.97556 0.40705 0.0
C1160 C 0.39716 0.3556 0.93009 0.0
C1161 C 0.3799 0.34517 0.97372 0.0
C1162 C 0.38878 0.36862 0.89166 0.0
C1163 C 0.36164 0.37022 0.89545 0.0
C1164 C 0.34296 0.35779 0.93779 0.0
C1165 C 0.35239 0.34572 0.97645 0.0
C1166 C 0.40994 0.38217 0.84805 0.0
C1167 C 0.31376 0.3587 0.94336 0.0
C1168 C 0.35901 0.43168 0.81628 0.0
C1169 C 0.34642 0.41584 0.77234 0.0
C1170 C 0.3628 0.41697 0.8576 0.0
C1171 C 0.35338 0.3854 0.85535 0.0
C1172 C 0.33829 0.36889 0.8124 0.0
C1173 C 0.33545 0.38431 0.77139 0.0
C1174 C 0.37899 0.43633 0.90177 0.0
C1175 C 0.32634 0.33506 0.8088 0.0
H1176 H 0.41844 0.35544 0.92712 0.0
H1177 H 0.33887 0.3381 1.00989 0.0
H1178 H 0.39816 0.37006 0.81391 0.0
H1179 H 0.41636 0.40642 0.84348 0.0
H1180 H 0.43111 0.38084 0.85197 0.0
H1181 H 0.30034 0.34573 0.97608 0.0
H1182 H 0.31921 0.38272 0.94712 0.0
H1183 H 0.29943 0.34923 0.91002 0.0
H1184 H 0.36798 0.4561 0.81738 0.0
H1185 H 0.32563 0.3718 0.73765 0.0
H1186 H 0.40348 0.451 0.89246 0.0
H1187 H 0.37703 0.4229 0.93511 0.0
H1188 H 0.36991 0.45176 0.91041 0.0
H1189 H 0.34573 0.33076 0.80565 0.0
H1190 H 0.31131 0.3248 0.77634 0.0
H1191 H 0.31336 0.32333 0.84254 0.0
C1192 C 0.98395 0.32159 0.9947 0.0
C1193 C 0.95971 0.32765 0.99241 0.0
C1194 C 0.0002 0.32539 0.03873 0.0
C1195 C 0.99221 0.33552 0.08197 0.0
C1196 C 0.96662 0.33994 0.08068 0.0
C1197 C 0.95068 0.33586 0.03616 0.0
C1198 C 0.02714 0.32028 0.03821 0.0
C1199 C 0.95688 0.3504 0.12579 0.0
C1200 C 0.02121 0.32879 0.20897 0.0
C1201 C 0.04602 0.35827 0.2165 0.0
C1202 C 0.00389 0.321 0.16525 0.0
C1203 C 0.01154 0.34309 0.12763 0.0
C1204 C 0.03746 0.37254 0.13433 0.0
C1205 C 0.05392 0.37981 0.17878 0.0
C1206 C 0.97738 0.28904 0.15934 0.0
C1207 C 0.04861 0.39701 0.09533 0.0
H1208 H 0.9914 0.31544 0.96136 0.0
H1209 H 0.93216 0.34078 0.03508 0.0
H1210 H 0.0485 0.34249 0.04239 0.0
H1211 H 0.02576 0.30568 0.06966 0.0
H1212 H 0.02859 0.30947 1.00349 0.0
H1213 H 0.93928 0.35671 0.11726 0.0
H1214 H 0.94738 0.3319 0.15359 0.0
H1215 H 0.97678 0.37033 0.14278 0.0
H1216 H 0.01479 0.31197 0.23789 0.0
H1217 H 0.07332 0.40247 0.18382 0.0
H1218 H 0.97977 0.27898 0.12448 0.0
H1219 H 0.95575 0.28955 0.15714 0.0
H1220 H 0.9756 0.27396 0.19035 0.0
H1221 H 0.03651 0.38915 0.05976 0.0
H1222 H 0.07333 0.40601 0.08855 0.0
H1223 H 0.0463 0.41638 0.10918 0.0
C1224 C 0.63512 0.01766 0.64938 0.0
C1225 C 0.63083 0.04303 0.64604 0.0
C1226 C 0.6251 0.99521 0.61212 0.0
C1227 C 0.60994 0.9976 0.56999 0.0
C1228 C 0.60606 0.02346 0.56589 0.0
C1229 C 0.61661 0.04581 0.60358 0.0
C1230 C 0.63023 0.96852 0.61839 0.0
C1231 C 0.59016 0.02723 0.52194 0.0
C1232 C 0.60511 0.95382 0.45125 0.0
C1233 C 0.57516 0.92882 0.45266 0.0
C1234 C 0.61685 0.9757 0.48941 0.0
C1235 C 0.59824 0.97316 0.53039 0.0
C1236 C 0.56832 0.9474 0.53293 0.0
C1237 C 0.55725 0.92562 0.49439 0.0
C1238 C 0.64894 0.00226 0.48487 0.0
C1239 C 0.54736 0.94354 0.57536 0.0
H1240 H 0.64589 0.01494 0.6819 0.0
H1241 H 0.6127 0.06491 0.60055 0.0
H1242 H 0.60795 0.94704 0.62008 0.0
H1243 H 0.64286 0.96683 0.5862 0.0
H1244 H 0.64325 0.97036 0.65231 0.0
H1245 H 0.58822 0.04808 0.52433 0.0
H1246 H 0.60292 0.02844 0.48795 0.0
H1247 H 0.56692 0.00713 0.51848 0.0
H1248 H 0.61915 0.95696 0.41912 0.0
H1249 H 0.53387 0.907 0.4957 0.0
H1250 H 0.66208 0.0044 0.51872 0.0
H1251 H 0.64829 0.02371 0.4808 0.0
H1252 H 0.66129 -4e-05 0.45275 0.0
H1253 H 0.55872 0.94482 0.61085 0.0
H1254 H 0.52554 0.92152 0.57371 0.0
H1255 H 0.54214 0.96236 0.57499 0.0
C1256 C 0.62331 0.67083 0.82424 0.0
C1257 C 0.62575 0.66166 0.87201 0.0
C1258 C 0.63036 0.65931 0.78181 0.0
C1259 C 0.64062 0.63781 0.78627 0.0
C1260 C 0.64422 0.62932 0.83483 0.0
C1261 C 0.63624 0.6408 0.87662 0.0
C1262 C 0.62576 0.67039 0.73282 0.0
C1263 C 0.65674 0.60827 0.84384 0.0
C1264 C 0.62808 0.57936 0.68454 0.0
C1265 C 0.65217 0.59612 0.65119 0.0
C1266 C 0.62419 0.59238 0.7281 0.0
C1267 C 0.64564 0.62301 0.74083 0.0
C1268 C 0.67127 0.63941 0.70896 0.0
C1269 C 0.67366 0.62623 0.66408 0.0
C1270 C 0.59628 0.57316 0.75938 0.0
C1271 C 0.69614 0.6712 0.72172 0.0
H1272 H 0.61503 0.68669 0.81964 0.0
H1273 H 0.63881 0.63379 0.91311 0.0
H1274 H 0.63355 0.66261 0.70082 0.0
H1275 H 0.60117 0.66277 0.72828 0.0
H1276 H 0.63811 0.6957 0.73251 0.0
H1277 H 0.67326 0.61695 0.87478 0.0
H1278 H 0.63782 0.58558 0.85513 0.0
H1279 H 0.66834 0.60552 0.81116 0.0
H1280 H 0.61111 0.55614 0.67552 0.0
H1281 H 0.6925 0.63953 0.63919 0.0
H1282 H 0.58744 0.58703 0.77686 0.0
H1283 H 0.60232 0.56201 0.78885 0.0
H1284 H 0.57762 0.55484 0.73745 0.0
H1285 H 0.68914 0.68781 0.71027 0.0
H1286 H 0.71782 0.67717 0.7024 0.0
H1287 H 0.70041 0.67367 0.76197 0.0
C1288 C 0.05034 0.63053 0.13625 0.0
C1289 C 0.0445 0.64305 0.09437 0.0
C1290 C 0.03126 0.62228 0.17817 0.0
C1291 C 0.00581 0.62697 0.17884 0.0
C1292 C 0.00104 0.64143 0.13796 0.0
C1293 C 0.0202 0.64904 0.09627 0.0
C1294 C 0.0371 0.60642 0.22021 0.0
C1295 C 0.97471 0.64749 0.13713 0.0
C1296 C 0.93846 0.57321 0.26097 0.0
C1297 C 0.94438 0.59008 0.30472 0.0
C1298 C 0.95782 0.58512 0.21955 0.0
C1299 C 0.98331 0.6151 0.22093 0.0
C1300 C 0.98796 0.63308 0.26352 0.0
C1301 C 0.96864 0.62039 0.30478 0.0
C1302 C 0.95174 0.56498 0.1751 0.0
C1303 C 0.01445 0.66524 0.2666 0.0
H1304 H 0.06857 0.62517 0.13508 0.0
H1305 H 0.01525 0.65846 0.06411 0.0
H1306 H 0.03567 0.61612 0.25608 0.0
H1307 H 0.01927 0.58199 0.22015 0.0
H1308 H 0.05976 0.60799 0.21722 0.0
H1309 H 0.97622 0.66212 0.10559 0.0
H1310 H 0.95293 0.62558 0.13435 0.0
H1311 H 0.97391 0.65866 0.1718 0.0
H1312 H 0.91992 0.54982 0.26014 0.0
H1313 H 0.97365 0.63378 0.33815 0.0
H1314 H 0.9725 0.56397 0.16506 0.0
H1315 H 0.94592 0.57472 0.14318 0.0
H1316 H 0.93273 0.54139 0.18144 0.0
H1317 H 0.03617 0.66481 0.26749 0.0
H1318 H 0.01324 0.6773 0.29995 0.0
H1319 H 0.01515 0.67844 0.23357 0.0
C1320 C 0.58464 0.17001 0.38742 0.0
C1321 C 0.57028 0.1869 0.37743 0.0
C1322 C 0.59749 0.17147 0.43351 0.0
C1323 C 0.59542 0.18994 0.47069 0.0
C1324 C 0.58244 0.2084 0.45993 0.0
C1325 C 0.57016 0.20682 0.41302 0.0
C1326 C 0.61158 0.15179 0.44322 0.0
C1327 C 0.57957 0.2281 0.49884 0.0
C1328 C 0.5917 0.15806 0.59775 0.0
C1329 C 0.62181 0.17613 0.61382 0.0
C1330 C 0.5824 0.16345 0.55222 0.0
C1331 C 0.60394 0.18722 0.52179 0.0
C1332 C 0.63413 0.20624 0.53858 0.0
C1333 C 0.64267 0.20057 0.58471 0.0
C1334 C 0.54985 0.14291 0.53585 0.0
C1335 C 0.6578 0.23144 0.50678 0.0
H1336 H 0.58479 0.1548 0.35948 0.0
H1337 H 0.55873 0.2196 0.40515 0.0
H1338 H 0.6341 0.16528 0.46128 0.0
H1339 H 0.59669 0.13299 0.46859 0.0
H1340 H 0.61463 0.14166 0.4089 0.0
H1341 H 0.57255 0.24387 0.48303 0.0
H1342 H 0.56223 0.21336 0.52643 0.0
H1343 H 0.60148 0.24165 0.51858 0.0
H1344 H 0.57554 0.13944 0.6207 0.0
H1345 H 0.66603 0.21436 0.59703 0.0
H1346 H 0.54942 0.12866 0.50447 0.0
H1347 H 0.53973 0.15668 0.52292 0.0
H1348 H 0.53528 0.12756 0.5658 0.0
H1349 H 0.66327 0.22138 0.47477 0.0
H1350 H 0.67924 0.24616 0.5272 0.0
H1351 H 0.64885 0.24586 0.49211 0.0
C1352 C 0.39274 0.59493 0.79921 0.0
C1353 C 0.37873 0.56307 0.79795 0.0
C1354 C 0.40913 0.61136 0.84094 0.0
C1355 C 0.41232 0.59561 0.88153 0.0
C1356 C 0.39521 0.56333 0.8825 0.0
C1357 C 0.37842 0.54758 0.84089 0.0
C1358 C 0.42464 0.64567 0.84029 0.0
C1359 C 0.39513 0.54468 0.92592 0.0
C1360 C 0.49136 0.63267 0.93737 0.0
C1361 C 0.486 0.63802 0.98606 0.0
C1362 C 0.4676 0.61909 0.90324 0.0
C1363 C 0.43781 0.61228 0.91707 0.0
C1364 C 0.43253 0.61937 0.96532 0.0
C1365 C 0.45657 0.63148 0.99973 0.0
C1366 C 0.47418 0.61036 0.85331 0.0
C1367 C 0.40128 0.61296 0.98117 0.0
H1368 H 0.39255 0.60716 0.76668 0.0
H1369 H 0.36628 0.52289 0.84111 0.0
H1370 H 0.42401 0.65459 0.87736 0.0
H1371 H 0.44891 0.65536 0.82953 0.0
H1372 H 0.41373 0.65379 0.81348 0.0
H1373 H 0.37265 0.53483 0.94469 0.0
H1374 H 0.39766 0.52523 0.91311 0.0
H1375 H 0.41308 0.55784 0.95342 0.0
H1376 H 0.51395 0.63733 0.92656 0.0
H1377 H 0.45229 0.63555 0.03733 0.0
H1378 H 0.47103 0.62379 0.82412 0.0
H1379 H 0.45805 0.58591 0.84579 0.0
H1380 H 0.49781 0.61433 0.85043 0.0
H1381 H 0.39062 0.61985 0.95199 0.0
H1382 H 0.40216 0.62503 0.01582 0.0
H1383 H 0.38642 0.58814 0.98739 0.0
C1384 C 0.90947 0.41892 0.04789 0.0
C1385 C 0.884 0.40291 0.01741 0.0
C1386 C 0.90648 0.42749 0.09556 0.0
C1387 C 0.87718 0.41978 0.11325 0.0
C1388 C 0.85139 0.40435 0.0824 0.0
C1389 C 0.85511 0.39605 0.03473 0.0
C1390 C 0.93464 0.44425 0.12722 0.0
C1391 C 0.81989 0.39627 0.10003 0.0
C1392 C 0.86824 0.4162 0.25185 0.0
C1393 C 0.87313 0.44535 0.26209 0.0
C1394 C 0.86873 0.40721 0.2032 0.0
C1395 C 0.8737 0.42778 0.16427 0.0
C1396 C 0.87732 0.45676 0.17442 0.0
C1397 C 0.87722 0.46527 0.22333 0.0
C1398 C 0.8652 0.37626 0.19358 0.0
C1399 C 0.88247 0.47924 0.13388 0.0
H1400 H 0.93184 0.42473 0.03458 0.0
H1401 H 0.83529 0.38345 1.01158 0.0
H1402 H 0.93652 0.46556 0.14184 0.0
H1403 H 0.93287 0.42989 0.15926 0.0
H1404 H 0.95594 0.45016 0.10669 0.0
H1405 H 0.80238 0.38522 0.07086 0.0
H1406 H 0.81328 0.38058 0.13196 0.0
H1407 H 0.81985 0.41708 0.1127 0.0
H1408 H 0.86535 0.401 0.282 0.0
H1409 H 0.88062 0.48771 0.23141 0.0
H1410 H 0.88668 0.37903 0.17762 0.0
H1411 H 0.84684 0.3636 0.16634 0.0
H1412 H 0.8598 0.36236 0.22764 0.0
H1413 H 0.90576 0.48829 0.11844 0.0
H1414 H 0.88024 0.49875 0.14734 0.0
H1415 H 0.86602 0.46796 0.10346 0.0
C1416 C 0.4049 0.7972 0.50019 0.0
C1417 C 0.43663 0.81081 0.49525 0.0
C1418 C 0.39193 0.80193 0.54278 0.0
C1419 C 0.41124 0.82091 0.58079 0.0
C1420 C 0.44301 0.83205 0.57798 0.0
C1421 C 0.45524 0.82654 0.53547 0.0
C1422 C 0.35785 0.78906 0.5449 0.0
C1423 C 0.46454 0.85251 0.61733 0.0
C1424 C 0.38588 0.87188 0.64168 0.0
C1425 C 0.3754 0.8579 0.68763 0.0
C1426 C 0.39798 0.86024 0.60714 0.0
C1427 C 0.39914 0.83355 0.6184 0.0
C1428 C 0.38899 0.8195 0.66502 0.0
C1429 C 0.37745 0.83205 0.6994 0.0
C1430 C 0.40926 0.87644 0.55834 0.0
C1431 C 0.3896 0.79087 0.67804 0.0
H1432 H 0.39039 0.78498 0.46935 0.0
H1433 H 0.47976 0.83654 0.53211 0.0
H1434 H 0.34887 0.78008 0.58218 0.0
H1435 H 0.3526 0.80744 0.53697 0.0
H1436 H 0.34571 0.77054 0.51757 0.0
H1437 H 0.46691 0.87544 0.6143 0.0
H1438 H 0.45547 0.8436 0.65458 0.0
H1439 H 0.4876 0.85509 0.61368 0.0
H1440 H 0.38454 0.89202 0.6326 0.0
H1441 H 0.36911 0.82106 0.73476 0.0
H1442 H 0.39576 0.86103 0.52788 0.0
H1443 H 0.43344 0.88274 0.55243 0.0
H1444 H 0.40757 0.89744 0.55604 0.0
H1445 H 0.37435 0.7722 0.65286 0.0
H1446 H 0.38214 0.7835 0.71655 0.0
H1447 H 0.41294 0.79444 0.67305 0.0
C1448 C 0.54598 0.42256 0.68075 0.0
C1449 C 0.5673 0.45317 0.67182 0.0
C1450 C 0.5365 0.41212 0.72887 0.0
C1451 C 0.54915 0.43281 0.76858 0.0
C1452 C 0.5708 0.46372 0.7597 0.0
C1453 C 0.57949 0.47355 0.71133 0.0
C1454 C 0.51273 0.37915 0.73722 0.0
C1455 C 0.5849 0.4864 0.80121 0.0
C1456 C 0.50672 0.41681 0.88914 0.0
C1457 C 0.5215 0.40499 0.91782 0.0
C1458 C 0.51495 0.42511 0.84004 0.0
C1459 C 0.53917 0.42244 0.81951 0.0
C1460 C 0.55458 0.41104 0.84812 0.0
C1461 C 0.54537 0.40219 0.89688 0.0
C1462 C 0.49799 0.43714 0.81034 0.0
C1463 C 0.5809 0.40844 0.82731 0.0
H1464 H 0.53655 0.40696 0.65001 0.0
H1465 H 0.59647 0.49713 0.70452 0.0
H1466 H 0.52186 0.36822 0.76197 0.0
H1467 H 0.49245 0.37773 0.75569 0.0
H1468 H 0.50531 0.36602 0.70232 0.0
H1469 H 0.60274 0.5092 0.78802 0.0
H1470 H 0.567 0.48898 0.8206 0.0
H1471 H 0.59527 0.47803 0.82852 0.0
H1472 H 0.48878 0.41986 0.90491 0.0
H1473 H 0.55672 0.39281 0.91832 0.0
H1474 H 0.47697 0.43354 0.8292 0.0
H1475 H 0.49153 0.4259 0.77381 0.0
H1476 H 0.51297 0.46192 0.80391 0.0
H1477 H 0.57338 0.39351 0.79438 0.0
H1478 H 0.59045 0.39907 0.85444 0.0
H1479 H 0.59937 0.4312 0.81529 0.0
C1480 C 0.15494 0.5357 0.32811 0.0
C1481 C 0.13745 0.50477 0.31582 0.0
C1482 C 0.16309 0.55845 0.29204 0.0
C1483 C 0.15217 0.55003 0.24327 0.0
C1484 C 0.13502 0.51876 0.23065 0.0
C1485 C 0.12861 0.49663 0.26673 0.0
C1486 C 0.18216 0.59145 0.30662 0.0
C1487 C 0.12179 0.5084 0.17975 0.0
C1488 C 0.13509 0.60066 0.16291 0.0
C1489 C 0.15369 0.60483 0.1218 0.0
C1490 C 0.1358 0.58479 0.20461 0.0
C1491 C 0.15631 0.57338 0.20596 0.0
C1492 C 0.17772 0.58079 0.16722 0.0
C1493 C 0.17582 0.59593 0.12519 0.0
C1494 C 0.1136 0.57993 0.2457 0.0
C1495 C 0.20194 0.57171 0.16909 0.0
H1496 H 0.16183 0.54213 0.36599 0.0
H1497 H 0.11487 0.47277 0.25694 0.0
H1498 H 0.19949 0.60449 0.27786 0.0
H1499 H 0.16724 0.60159 0.31042 0.0
H1500 H 0.19394 0.59409 0.34226 0.0
H1501 H 0.10415 0.48385 0.17888 0.0
H1502 H 0.11132 0.52175 0.16626 0.0
H1503 H 0.14019 0.51202 0.15366 0.0
H1504 H 0.11906 0.60892 0.16211 0.0
H1505 H 0.19086 0.59958 0.09433 0.0
H1506 H 0.09028 0.5709 0.23051 0.0
H1507 H 0.12006 0.60229 0.26268 0.0
H1508 H 0.11277 0.56444 0.27507 0.0
H1509 H 0.20996 0.5725 0.20734 0.0
H1510 H 0.22184 0.58683 0.14559 0.0
H1511 H 0.19241 0.5481 0.15526 0.0
loop_
_geom_bond_atom_site_label_1
_geom_bond_atom_site_label_2
_geom_bond_distance
_geom_bond_site_symmetry_2
_ccdc_geom_bond_type
Co0 N5 2.057 . S
Co0 O17 2.021 . S
Co0 O20 2.062 . S
Co0 O24 2.117 . S
Co0 O25 2.020 . S
C1 O21 1.259 . S
C1 O24 1.258 . S
Co2 N11 2.057 . S
Co2 O18 2.117 . S
Co2 O19 2.020 . S
Co2 O21 2.021 . S
Co2 O26 2.062 . S
C3 N5 1.316 . S
C3 N6 1.347 . S
C3 H8 0.931 . S
C4 N5 1.375 . S
C4 C7 1.350 . S
C4 H9 0.930 . S
N5 Co0 2.057 . S
N5 C3 1.316 . S
N5 C4 1.375 . S
N6 C3 1.347 . S
N6 C7 1.373 . S
C7 C4 1.350 . S
C7 N6 1.373 . S
C7 H28 0.931 1_545 S
H8 C3 0.931 . S
H9 C4 0.930 . S
C10 O17 1.259 . S
C10 O18 1.258 . S
N11 Co2 2.057 . S
N11 C12 1.316 . S
N11 C13 1.375 . S
C12 N11 1.316 . S
C12 N14 1.347 . S
C12 H23 0.931 . S
C13 N11 1.375 . S
C13 C15 1.350 . S
C13 H22 0.930 . S
N14 C12 1.347 . S
N14 C15 1.373 . S
C15 C13 1.350 . S
C15 N14 1.373 . S
C15 H29 0.931 . S
C16 O19 1.256 . S
C16 O20 1.255 . S
O17 Co0 2.021 . S
O17 C10 1.259 . S
O18 Co2 2.117 . S
O18 C10 1.258 . S
O19 Co2 2.020 . S
O19 C16 1.256 . S
O20 Co0 2.062 . S
O20 C16 1.255 . S
O21 C1 1.259 . S
O21 Co2 2.021 . S
H22 C13 0.930 . S
H23 C12 0.931 . S
O24 Co0 2.117 . S
O24 C1 1.258 . S
O25 Co0 2.020 . S
O25 C27 1.256 . S
O26 Co2 2.062 . S
O26 C27 1.255 . S
C27 O25 1.256 . S
C27 O26 1.255 . S
H28 C7 0.931 1_565 S
H29 C15 0.931 . S
Co30 N35 2.057 . S
Co30 O47 2.021 . S
Co30 O50 2.062 . S
Co30 O54 2.117 . S
Co30 O55 2.020 . S
C31 O51 1.259 . S
C31 O54 1.258 . S
Co32 N41 2.057 . S
Co32 O48 2.117 . S
Co32 O49 2.020 . S
Co32 O51 2.021 . S
Co32 O56 2.062 . S
C33 N35 1.316 . S
C33 N36 1.347 . S
C33 H38 0.931 . S
C34 N35 1.375 . S
C34 C37 1.350 . S
C34 H39 0.930 . S
N35 Co30 2.057 . S
N35 C33 1.316 . S
N35 C34 1.375 . S
N36 C33 1.347 . S
N36 C37 1.373 . S
C37 C34 1.350 . S
C37 N36 1.373 . S
C37 H58 0.931 . S
H38 C33 0.931 . S
H39 C34 0.930 . S
C40 O47 1.259 . S
C40 O48 1.258 . S
N41 Co32 2.057 . S
N41 C42 1.316 . S
N41 C43 1.375 . S
C42 N41 1.316 . S
C42 N44 1.347 . S
C42 H53 0.931 . S
C43 N41 1.375 . S
C43 C45 1.350 . S
C43 H52 0.930 . S
N44 C42 1.347 . S
N44 C45 1.373 . S
C45 C43 1.350 . S
C45 N44 1.373 . S
C45 H59 0.931 . S
C46 O49 1.256 . S
C46 O50 1.255 . S
O47 Co30 2.021 . S
O47 C40 1.259 . S
O48 Co32 2.117 . S
O48 C40 1.258 . S
O49 Co32 2.020 . S
O49 C46 1.256 . S
O50 Co30 2.062 . S
O50 C46 1.255 . S
O51 C31 1.259 . S
O51 Co32 2.021 . S
H52 C43 0.930 . S
H53 C42 0.931 . S
O54 Co30 2.117 . S
O54 C31 1.258 . S
O55 Co30 2.020 . S
O55 C57 1.256 . S
O56 Co32 2.062 . S
O56 C57 1.255 . S
C57 O55 1.256 . S
C57 O56 1.255 . S
H58 C37 0.931 . S
H59 C45 0.931 . S
Co60 N65 2.057 . S
Co60 O77 2.021 . S
Co60 O80 2.062 . S
Co60 O84 2.117 . S
Co60 O85 2.020 . S
C61 O81 1.259 . S
C61 O84 1.258 . S
Co62 N71 2.057 . S
Co62 O78 2.117 . S
Co62 O79 2.020 . S
Co62 O81 2.021 . S
Co62 O86 2.062 . S
C63 N65 1.316 . S
C63 N66 1.347 . S
C63 H68 0.931 . S
C64 N65 1.375 . S
C64 C67 1.350 . S
C64 H69 0.930 . S
N65 Co60 2.057 . S
N65 C63 1.316 . S
N65 C64 1.375 . S
N66 C63 1.347 . S
N66 C67 1.373 . S
C67 C64 1.350 . S
C67 N66 1.373 . S
C67 H88 0.931 1_655 S
H68 C63 0.931 . S
H69 C64 0.930 . S
C70 O77 1.259 . S
C70 O78 1.258 . S
N71 Co62 2.057 . S
N71 C72 1.316 . S
N71 C73 1.375 . S
C72 N71 1.316 . S
C72 N74 1.347 1_556 S
C72 H83 0.931 . S
C73 N71 1.375 . S
C73 C75 1.356 . S
C73 H82 0.930 . S
N74 C72 1.347 1_554 S
N74 C75 1.371 1_554 S
C75 C73 1.356 . S
C75 N74 1.371 1_556 S
C75 H89 0.928 1_556 S
C76 O79 1.256 . S
C76 O80 1.255 . S
O77 Co60 2.021 . S
O77 C70 1.259 . S
O78 Co62 2.117 . S
O78 C70 1.258 . S
O79 Co62 2.020 . S
O79 C76 1.256 . S
O80 Co60 2.062 . S
O80 C76 1.255 . S
O81 C61 1.259 . S
O81 Co62 2.021 . S
H82 C73 0.930 . S
H83 C72 0.931 . S
O84 Co60 2.117 . S
O84 C61 1.258 . S
O85 Co60 2.020 . S
O85 C87 1.256 . S
O86 Co62 2.062 . S
O86 C87 1.255 . S
C87 O85 1.256 . S
C87 O86 1.255 . S
H88 C67 0.931 1_455 S
H89 C75 0.928 1_554 S
Co90 N95 2.057 . S
Co90 O107 2.021 . S
Co90 O110 2.062 . S
Co90 O114 2.117 . S
Co90 O115 2.020 . S
C91 O111 1.259 . S
C91 O114 1.258 . S
Co92 N101 2.057 . S
Co92 O108 2.117 . S
Co92 O109 2.020 . S
Co92 O111 2.021 . S
Co92 O116 2.062 . S
C93 N95 1.316 . S
C93 N96 1.347 . S
C93 H98 0.931 . S
C94 N95 1.375 . S
C94 C97 1.350 . S
C94 H99 0.930 . S
N95 Co90 2.057 . S
N95 C93 1.316 . S
N95 C94 1.375 . S
N96 C93 1.347 . S
N96 C97 1.373 . S
C97 C94 1.350 . S
C97 N96 1.373 . S
C97 H118 0.931 . S
H98 C93 0.931 . S
H99 C94 0.930 . S
C100 O107 1.259 . S
C100 O108 1.258 . S
N101 Co92 2.057 . S
N101 C102 1.316 . S
N101 C103 1.375 . S
C102 N101 1.316 . S
C102 N104 1.347 . S
C102 H113 0.931 . S
C103 N101 1.375 . S
C103 C105 1.350 . S
C103 H112 0.930 . S
N104 C102 1.347 . S
N104 C105 1.373 . S
C105 C103 1.350 . S
C105 N104 1.373 . S
C105 H119 0.931 . S
C106 O109 1.256 . S
C106 O110 1.255 . S
O107 Co90 2.021 . S
O107 C100 1.259 . S
O108 Co92 2.117 . S
O108 C100 1.258 . S
O109 Co92 2.020 . S
O109 C106 1.256 . S
O110 Co90 2.062 . S
O110 C106 1.255 . S
O111 C91 1.259 . S
O111 Co92 2.021 . S
H112 C103 0.930 . S
H113 C102 0.931 . S
O114 Co90 2.117 . S
O114 C91 1.258 . S
O115 Co90 2.020 . S
O115 C117 1.256 . S
O116 Co92 2.062 . S
O116 C117 1.255 . S
C117 O115 1.256 . S
C117 O116 1.255 . S
H118 C97 0.931 . S
H119 C105 0.931 . S
Co120 N125 2.057 . S
Co120 O137 2.021 . S
Co120 O140 2.062 . S
Co120 O144 2.117 . S
Co120 O145 2.020 . S
C121 O141 1.259 . S
C121 O144 1.258 . S
Co122 N131 2.057 . S
Co122 O138 2.117 . S
Co122 O139 2.020 . S
Co122 O141 2.021 . S
Co122 O146 2.062 . S
C123 N125 1.316 . S
C123 N126 1.347 . S
C123 H128 0.931 . S
C124 N125 1.375 . S
C124 C127 1.350 . S
C124 H129 0.930 . S
N125 Co120 2.057 . S
N125 C123 1.316 . S
N125 C124 1.375 . S
N126 C123 1.347 . S
N126 C127 1.373 . S
C127 C124 1.350 . S
C127 N126 1.373 . S
C127 H148 0.931 . S
H128 C123 0.931 . S
H129 C124 0.930 . S
C130 O137 1.259 . S
C130 O138 1.258 . S
N131 Co122 2.057 . S
N131 C132 1.316 . S
N131 C133 1.375 . S
C132 N131 1.316 . S
C132 N134 1.347 . S
C132 H143 0.931 . S
C133 N131 1.375 . S
C133 C135 1.350 . S
C133 H142 0.930 . S
N134 C132 1.347 . S
N134 C135 1.373 . S
C135 C133 1.350 . S
C135 N134 1.373 . S
C135 H149 0.931 . S
C136 O139 1.256 . S
C136 O140 1.255 . S
O137 Co120 2.021 . S
O137 C130 1.259 . S
O138 Co122 2.117 . S
O138 C130 1.258 . S
O139 Co122 2.020 . S
O139 C136 1.256 . S
O140 Co120 2.062 . S
O140 C136 1.255 . S
O141 C121 1.259 . S
O141 Co122 2.021 . S
H142 C133 0.930 . S
H143 C132 0.931 . S
O144 Co120 2.117 . S
O144 C121 1.258 . S
O145 Co120 2.020 . S
O145 C147 1.256 . S
O146 Co122 2.062 . S
O146 C147 1.255 . S
C147 O145 1.256 . S
C147 O146 1.255 . S
H148 C127 0.931 . S
H149 C135 0.931 . S
Co150 N155 2.057 . S
Co150 O167 2.021 . S
Co150 O170 2.062 . S
Co150 O174 2.117 . S
Co150 O175 2.020 . S
C151 O171 1.259 . S
C151 O174 1.258 . S
Co152 N161 2.057 1_556 S
Co152 O168 2.117 . S
Co152 O169 2.020 . S
Co152 O171 2.021 . S
Co152 O176 2.062 1_556 S
C153 N155 1.316 . S
C153 N156 1.347 . S
C153 H158 0.931 . S
C154 N155 1.375 . S
C154 C157 1.350 . S
C154 H159 0.930 . S
N155 Co150 2.057 . S
N155 C153 1.316 . S
N155 C154 1.375 . S
N156 C153 1.347 . S
N156 C157 1.373 . S
C157 C154 1.350 . S
C157 N156 1.373 . S
C157 H178 0.931 . S
H158 C153 0.931 . S
H159 C154 0.930 . S
C160 O167 1.259 . S
C160 O168 1.258 . S
N161 Co152 2.057 1_554 S
N161 C162 1.316 . S
N161 C163 1.375 . S
C162 N161 1.316 . S
C162 N164 1.347 . S
C162 H173 0.931 . S
C163 N161 1.375 . S
C163 C165 1.350 . S
C163 H172 0.930 . S
N164 C162 1.347 . S
N164 C165 1.373 . S
C165 C163 1.350 . S
C165 N164 1.373 . S
C165 H179 0.931 . S
C166 O169 1.256 . S
C166 O170 1.255 . S
O167 Co150 2.021 . S
O167 C160 1.259 . S
O168 Co152 2.117 . S
O168 C160 1.258 . S
O169 Co152 2.020 . S
O169 C166 1.256 . S
O170 Co150 2.062 . S
O170 C166 1.255 . S
O171 C151 1.259 . S
O171 Co152 2.021 . S
H172 C163 0.930 . S
H173 C162 0.931 . S
O174 Co150 2.117 . S
O174 C151 1.258 . S
O175 Co150 2.020 . S
O175 C177 1.256 1_556 S
O176 Co152 2.062 1_554 S
O176 C177 1.255 . S
C177 O175 1.256 1_554 S
C177 O176 1.255 . S
H178 C157 0.931 . S
H179 C165 0.931 . S
Co180 N185 2.057 . S
Co180 O197 2.021 . S
Co180 O200 2.062 . S
Co180 O204 2.117 . S
Co180 O205 2.020 . S
C181 O201 1.259 . S
C181 O204 1.258 . S
Co182 N191 2.057 . S
Co182 O198 2.117 . S
Co182 O199 2.020 . S
Co182 O201 2.021 . S
Co182 O206 2.062 . S
C183 N185 1.316 . S
C183 N186 1.347 . S
C183 H188 0.931 . S
C184 N185 1.375 . S
C184 C187 1.350 . S
C184 H189 0.930 . S
N185 Co180 2.057 . S
N185 C183 1.316 . S
N185 C184 1.375 . S
N186 C183 1.347 . S
N186 C187 1.373 . S
C187 C184 1.350 . S
C187 N186 1.373 . S
C187 H208 0.931 1_655 S
H188 C183 0.931 . S
H189 C184 0.930 . S
C190 O197 1.259 . S
C190 O198 1.258 . S
N191 Co182 2.057 . S
N191 C192 1.316 . S
N191 C193 1.375 . S
C192 N191 1.316 . S
C192 N194 1.347 . S
C192 H203 0.931 . S
C193 N191 1.375 . S
C193 C195 1.350 . S
C193 H202 0.930 . S
N194 C192 1.347 . S
N194 C195 1.373 . S
C195 C193 1.350 . S
C195 N194 1.373 . S
C195 H209 0.931 . S
C196 O199 1.256 . S
C196 O200 1.255 . S
O197 Co180 2.021 . S
O197 C190 1.259 . S
O198 Co182 2.117 . S
O198 C190 1.258 . S
O199 Co182 2.020 . S
O199 C196 1.256 . S
O200 Co180 2.062 . S
O200 C196 1.255 . S
O201 C181 1.259 . S
O201 Co182 2.021 . S
H202 C193 0.930 . S
H203 C192 0.931 . S
O204 Co180 2.117 . S
O204 C181 1.258 . S
O205 Co180 2.020 . S
O205 C207 1.256 . S
O206 Co182 2.062 . S
O206 C207 1.255 . S
C207 O205 1.256 . S
C207 O206 1.255 . S
H208 C187 0.931 1_455 S
H209 C195 0.931 . S
Co210 N215 2.057 . S
Co210 O227 2.021 . S
Co210 O230 2.062 . S
Co210 O234 2.117 . S
Co210 O235 2.020 . S
C211 O231 1.259 . S
C211 O234 1.258 . S
Co212 N221 2.057 . S
Co212 O228 2.117 . S
Co212 O229 2.020 . S
Co212 O231 2.021 . S
Co212 O236 2.062 . S
C213 N215 1.316 . S
C213 N216 1.347 . S
C213 H218 0.931 . S
C214 N215 1.375 . S
C214 C217 1.350 . S
C214 H219 0.930 . S
N215 Co210 2.057 . S
N215 C213 1.316 . S
N215 C214 1.375 . S
N216 C213 1.347 . S
N216 C217 1.373 . S
C217 C214 1.350 . S
C217 N216 1.373 . S
C217 H238 0.931 . S
H218 C213 0.931 . S
H219 C214 0.930 . S
C220 O227 1.259 . S
C220 O228 1.258 . S
N221 Co212 2.057 . S
N221 C222 1.316 . S
N221 C223 1.375 . S
C222 N221 1.316 . S
C222 N224 1.347 . S
C222 H233 0.931 . S
C223 N221 1.375 . S
C223 C225 1.350 . S
C223 H232 0.930 . S
N224 C222 1.347 . S
N224 C225 1.373 . S
C225 C223 1.350 . S
C225 N224 1.373 . S
C225 H239 0.931 . S
C226 O229 1.256 . S
C226 O230 1.255 . S
O227 Co210 2.021 . S
O227 C220 1.259 . S
O228 Co212 2.117 . S
O228 C220 1.258 . S
O229 Co212 2.020 . S
O229 C226 1.256 . S
O230 Co210 2.062 . S
O230 C226 1.255 . S
O231 C211 1.259 . S
O231 Co212 2.021 . S
H232 C223 0.930 . S
H233 C222 0.931 . S
O234 Co210 2.117 . S
O234 C211 1.258 . S
O235 Co210 2.020 . S
O235 C237 1.256 . S
O236 Co212 2.062 . S
O236 C237 1.255 . S
C237 O235 1.256 . S
C237 O236 1.255 . S
H238 C217 0.931 . S
H239 C225 0.931 . S
Co240 N245 2.057 . S
Co240 O257 2.021 . S
Co240 O260 2.062 . S
Co240 O264 2.117 . S
Co240 O265 2.020 . S
C241 O261 1.259 . S
C241 O264 1.258 . S
Co242 N251 2.057 1_554 S
Co242 O258 2.117 . S
Co242 O259 2.020 . S
Co242 O261 2.021 . S
Co242 O266 2.059 1_554 S
C243 N245 1.316 . S
C243 N246 1.347 . S
C243 H248 0.931 . S
C244 N245 1.375 . S
C244 C247 1.350 . S
C244 H249 0.930 . S
N245 Co240 2.057 . S
N245 C243 1.316 . S
N245 C244 1.375 . S
N246 C243 1.347 . S
N246 C247 1.373 . S
C247 C244 1.350 . S
C247 N246 1.373 . S
C247 H268 0.931 . S
H248 C243 0.931 . S
H249 C244 0.930 . S
C250 O257 1.259 . S
C250 O258 1.258 . S
N251 Co242 2.057 1_556 S
N251 C252 1.316 . S
N251 C253 1.375 . S
C252 N251 1.316 . S
C252 N254 1.347 . S
C252 H263 0.931 . S
C253 N251 1.375 . S
C253 C255 1.350 . S
C253 H262 0.930 . S
N254 C252 1.347 . S
N254 C255 1.373 . S
C255 C253 1.350 . S
C255 N254 1.373 . S
C255 H269 0.931 . S
C256 O259 1.256 . S
C256 O260 1.255 . S
O257 Co240 2.021 . S
O257 C250 1.259 . S
O258 Co242 2.117 . S
O258 C250 1.258 . S
O259 Co242 2.020 . S
O259 C256 1.256 . S
O260 Co240 2.062 . S
O260 C256 1.255 . S
O261 C241 1.259 . S
O261 Co242 2.021 . S
H262 C253 0.930 . S
H263 C252 0.931 . S
O264 Co240 2.117 . S
O264 C241 1.258 . S
O265 Co240 2.020 . S
O265 C267 1.256 . S
O266 Co242 2.059 1_556 S
O266 C267 1.254 1_556 S
C267 O265 1.256 . S
C267 O266 1.254 1_554 S
H268 C247 0.931 . S
H269 C255 0.931 . S
Co270 N275 2.057 . S
Co270 O287 2.021 . S
Co270 O290 2.062 . S
Co270 O294 2.117 . S
Co270 O295 2.020 . S
C271 O291 1.259 . S
C271 O294 1.258 . S
Co272 N281 2.057 . S
Co272 O288 2.117 . S
Co272 O289 2.020 . S
Co272 O291 2.021 . S
Co272 O296 2.062 . S
C273 N275 1.316 . S
C273 N276 1.347 . S
C273 H278 0.931 . S
C274 N275 1.375 . S
C274 C277 1.350 . S
C274 H279 0.930 . S
N275 Co270 2.057 . S
N275 C273 1.316 . S
N275 C274 1.375 . S
N276 C273 1.347 . S
N276 C277 1.373 . S
C277 C274 1.350 . S
C277 N276 1.373 . S
C277 H298 0.931 . S
H278 C273 0.931 . S
H279 C274 0.930 . S
C280 O287 1.259 . S
C280 O288 1.258 . S
N281 Co272 2.057 . S
N281 C282 1.316 . S
N281 C283 1.375 . S
C282 N281 1.316 . S
C282 N284 1.347 . S
C282 H293 0.931 . S
C283 N281 1.375 . S
C283 C285 1.350 . S
C283 H292 0.930 . S
N284 C282 1.347 . S
N284 C285 1.373 . S
C285 C283 1.350 . S
C285 N284 1.373 . S
C285 H299 0.931 . S
C286 O289 1.256 . S
C286 O290 1.255 . S
O287 Co270 2.021 . S
O287 C280 1.259 . S
O288 Co272 2.117 . S
O288 C280 1.258 . S
O289 Co272 2.020 . S
O289 C286 1.256 . S
O290 Co270 2.062 . S
O290 C286 1.255 . S
O291 C271 1.259 . S
O291 Co272 2.021 . S
H292 C283 0.930 . S
H293 C282 0.931 . S
O294 Co270 2.117 . S
O294 C271 1.258 . S
O295 Co270 2.020 . S
O295 C297 1.256 . S
O296 Co272 2.062 . S
O296 C297 1.255 . S
C297 O295 1.256 . S
C297 O296 1.255 . S
H298 C277 0.931 . S
H299 C285 0.931 . S
Co300 N305 2.057 . S
Co300 O317 2.021 . S
Co300 O320 2.062 . S
Co300 O324 2.117 . S
Co300 O325 2.020 . S
C301 O321 1.259 . S
C301 O324 1.258 . S
Co302 N311 2.057 . S
Co302 O318 2.117 . S
Co302 O319 2.020 . S
Co302 O321 2.021 . S
Co302 O326 2.062 . S
C303 N305 1.316 . S
C303 N306 1.347 . S
C303 H308 0.931 . S
C304 N305 1.375 . S
C304 C307 1.350 . S
C304 H309 0.930 . S
N305 Co300 2.057 . S
N305 C303 1.316 . S
N305 C304 1.375 . S
N306 C303 1.347 . S
N306 C307 1.373 . S
C307 C304 1.350 . S
C307 N306 1.373 . S
C307 H328 0.931 1_545 S
H308 C303 0.931 . S
H309 C304 0.930 . S
C310 O317 1.259 . S
C310 O318 1.258 . S
N311 Co302 2.057 . S
N311 C312 1.316 . S
N311 C313 1.375 . S
C312 N311 1.316 . S
C312 N314 1.347 . S
C312 H323 0.931 . S
C313 N311 1.375 . S
C313 C315 1.350 . S
C313 H322 0.930 . S
N314 C312 1.347 . S
N314 C315 1.373 . S
C315 C313 1.350 . S
C315 N314 1.373 . S
C315 H329 0.931 . S
C316 O319 1.256 . S
C316 O320 1.255 . S
O317 Co300 2.021 . S
O317 C310 1.259 . S
O318 Co302 2.117 . S
O318 C310 1.258 . S
O319 Co302 2.020 . S
O319 C316 1.256 . S
O320 Co300 2.062 . S
O320 C316 1.255 . S
O321 C301 1.259 . S
O321 Co302 2.021 . S
H322 C313 0.930 . S
H323 C312 0.931 . S
O324 Co300 2.117 . S
O324 C301 1.258 . S
O325 Co300 2.020 . S
O325 C327 1.256 . S
O326 Co302 2.062 . S
O326 C327 1.255 . S
C327 O325 1.256 . S
C327 O326 1.255 . S
H328 C307 0.931 1_565 S
H329 C315 0.931 . S
Co330 N335 2.057 . S
Co330 O347 2.021 . S
Co330 O350 2.062 . S
Co330 O354 2.117 . S
Co330 O355 2.020 . S
C331 O351 1.259 . S
C331 O354 1.258 . S
Co332 N341 2.057 . S
Co332 O348 2.117 . S
Co332 O349 2.020 . S
Co332 O351 2.021 . S
Co332 O356 2.062 . S
C333 N335 1.316 1_556 S
C333 N336 1.347 . S
C333 H338 0.931 . S
C334 N335 1.375 1_556 S
C334 C337 1.350 . S
C334 H339 0.930 1_556 S
N335 Co330 2.057 . S
N335 C333 1.316 1_554 S
N335 C334 1.375 1_554 S
N336 C333 1.347 . S
N336 C337 1.373 . S
C337 C334 1.350 . S
C337 N336 1.373 . S
C337 H358 0.931 . S
H338 C333 0.931 . S
H339 C334 0.930 1_554 S
C340 O347 1.259 . S
C340 O348 1.258 . S
N341 Co332 2.057 . S
N341 C342 1.316 . S
N341 C343 1.375 . S
C342 N341 1.316 . S
C342 N344 1.347 . S
C342 H353 0.931 . S
C343 N341 1.375 . S
C343 C345 1.350 . S
C343 H352 0.930 . S
N344 C342 1.347 . S
N344 C345 1.373 . S
C345 C343 1.350 . S
C345 N344 1.373 . S
C345 H359 0.931 . S
C346 O349 1.256 . S
C346 O350 1.255 . S
O347 Co330 2.021 . S
O347 C340 1.259 . S
O348 Co332 2.117 . S
O348 C340 1.258 . S
O349 Co332 2.020 . S
O349 C346 1.256 . S
O350 Co330 2.062 . S
O350 C346 1.255 . S
O351 C331 1.259 . S
O351 Co332 2.021 . S
H352 C343 0.930 . S
H353 C342 0.931 . S
O354 Co330 2.117 . S
O354 C331 1.258 . S
O355 Co330 2.020 . S
O355 C357 1.256 . S
O356 Co332 2.062 . S
O356 C357 1.255 . S
C357 O355 1.256 . S
C357 O356 1.255 . S
H358 C337 0.931 . S
H359 C345 0.931 . S
C360 C361 1.391 . S
C360 C362 1.394 . S
C360 H376 0.931 . S
C361 C360 1.391 . S
C361 C365 1.376 . S
C362 C360 1.394 . S
C362 C363 1.369 . S
C362 C366 1.531 . S
C363 C362 1.369 . S
C363 C364 1.410 . S
C363 C371 1.503 . S
C364 C363 1.410 . S
C364 C365 1.392 . S
C364 C367 1.511 . S
C365 C361 1.376 . S
C365 C364 1.392 . S
C365 H377 0.929 . S
C366 C362 1.531 . S
C366 H378 0.960 . S
C366 H379 0.962 . S
C366 H380 0.960 . S
C367 C364 1.511 . S
C367 H381 0.961 . S
C367 H382 0.961 . S
C367 H383 0.961 . S
C368 C369 1.370 . S
C368 C370 1.363 . S
C368 H384 0.931 . S
C369 C368 1.370 . S
C369 C373 1.408 . S
C370 C368 1.363 . S
C370 C371 1.370 . S
C370 C374 1.524 . S
C371 C363 1.503 . S
C371 C370 1.370 . S
C371 C372 1.403 . S
C372 C371 1.403 . S
C372 C373 1.404 . S
C372 C375 1.539 . S
C373 C369 1.408 . S
C373 C372 1.404 . S
C373 H385 0.930 . S
C374 C370 1.524 . S
C374 H386 0.956 . S
C374 H387 0.961 . S
C374 H388 0.961 . S
C375 C372 1.539 . S
C375 H389 0.958 . S
C375 H390 0.961 . S
C375 H391 0.960 . S
H376 C360 0.931 . S
H377 C365 0.929 . S
H378 C366 0.960 . S
H379 C366 0.962 . S
H380 C366 0.960 . S
H381 C367 0.961 . S
H382 C367 0.961 . S
H383 C367 0.961 . S
H384 C368 0.931 . S
H385 C373 0.930 . S
H386 C374 0.956 . S
H387 C374 0.961 . S
H388 C374 0.961 . S
H389 C375 0.958 . S
H390 C375 0.961 . S
H391 C375 0.960 . S
C392 C393 1.391 . S
C392 C394 1.394 . S
C392 H408 0.931 . S
C393 C392 1.391 . S
C393 C397 1.376 . S
C394 C392 1.394 . S
C394 C395 1.369 . S
C394 C398 1.531 . S
C395 C394 1.369 . S
C395 C396 1.410 . S
C395 C403 1.503 . S
C396 C395 1.410 . S
C396 C397 1.392 . S
C396 C399 1.511 . S
C397 C393 1.376 . S
C397 C396 1.392 . S
C397 H409 0.929 . S
C398 C394 1.531 . S
C398 H410 0.960 . S
C398 H411 0.962 . S
C398 H412 0.960 . S
C399 C396 1.511 . S
C399 H413 0.961 . S
C399 H414 0.961 . S
C399 H415 0.961 . S
C400 C401 1.370 . S
C400 C402 1.363 . S
C400 H416 0.931 . S
C401 C400 1.370 . S
C401 C405 1.408 . S
C402 C400 1.363 . S
C402 C403 1.370 . S
C402 C406 1.524 . S
C403 C395 1.503 . S
C403 C402 1.370 . S
C403 C404 1.403 . S
C404 C403 1.403 . S
C404 C405 1.404 . S
C404 C407 1.539 . S
C405 C401 1.408 . S
C405 C404 1.404 . S
C405 H417 0.930 . S
C406 C402 1.524 . S
C406 H418 0.956 . S
C406 H419 0.961 . S
C406 H420 0.961 . S
C407 C404 1.539 . S
C407 H421 0.958 . S
C407 H422 0.961 . S
C407 H423 0.960 . S
H408 C392 0.931 . S
H409 C397 0.929 . S
H410 C398 0.960 . S
H411 C398 0.962 . S
H412 C398 0.960 . S
H413 C399 0.961 . S
H414 C399 0.961 . S
H415 C399 0.961 . S
H416 C400 0.931 . S
H417 C405 0.930 . S
H418 C406 0.956 . S
H419 C406 0.961 . S
H420 C406 0.961 . S
H421 C407 0.958 . S
H422 C407 0.961 . S
H423 C407 0.960 . S
C424 C425 1.391 . S
C424 C426 1.394 . S
C424 H440 0.931 . S
C425 C424 1.391 . S
C425 C429 1.376 . S
C426 C424 1.394 . S
C426 C427 1.369 . S
C426 C430 1.531 . S
C427 C426 1.369 . S
C427 C428 1.410 . S
C427 C435 1.503 . S
C428 C427 1.410 . S
C428 C429 1.392 . S
C428 C431 1.511 . S
C429 C425 1.376 . S
C429 C428 1.392 . S
C429 H441 0.929 . S
C430 C426 1.531 . S
C430 H442 0.960 . S
C430 H443 0.962 . S
C430 H444 0.960 . S
C431 C428 1.511 . S
C431 H445 0.961 . S
C431 H446 0.961 . S
C431 H447 0.961 . S
C432 C433 1.370 . S
C432 C434 1.363 . S
C432 H448 0.931 . S
C433 C432 1.370 . S
C433 C437 1.408 . S
C434 C432 1.363 . S
C434 C435 1.370 . S
C434 C438 1.524 . S
C435 C427 1.503 . S
C435 C434 1.370 . S
C435 C436 1.403 . S
C436 C435 1.403 . S
C436 C437 1.404 . S
C436 C439 1.539 . S
C437 C433 1.408 . S
C437 C436 1.404 . S
C437 H449 0.930 . S
C438 C434 1.524 . S
C438 H450 0.956 . S
C438 H451 0.961 . S
C438 H452 0.961 . S
C439 C436 1.539 . S
C439 H453 0.958 . S
C439 H454 0.961 . S
C439 H455 0.960 . S
H440 C424 0.931 . S
H441 C429 0.929 . S
H442 C430 0.960 . S
H443 C430 0.962 . S
H444 C430 0.960 . S
H445 C431 0.961 . S
H446 C431 0.961 . S
H447 C431 0.961 . S
H448 C432 0.931 . S
H449 C437 0.930 . S
H450 C438 0.956 . S
H451 C438 0.961 . S
H452 C438 0.961 . S
H453 C439 0.958 . S
H454 C439 0.961 . S
H455 C439 0.960 . S
C456 C457 1.391 . S
C456 C458 1.394 . S
C456 H472 0.931 . S
C457 C456 1.391 . S
C457 C461 1.376 . S
C458 C456 1.394 . S
C458 C459 1.369 . S
C458 C462 1.531 . S
C459 C458 1.369 . S
C459 C460 1.410 . S
C459 C467 1.503 . S
C460 C459 1.410 . S
C460 C461 1.392 . S
C460 C463 1.511 . S
C461 C457 1.376 . S
C461 C460 1.392 . S
C461 H473 0.929 . S
C462 C458 1.531 . S
C462 H474 0.960 . S
C462 H475 0.962 . S
C462 H476 0.960 . S
C463 C460 1.511 . S
C463 H477 0.961 . S
C463 H478 0.961 . S
C463 H479 0.961 . S
C464 C465 1.370 . S
C464 C466 1.363 . S
C464 H480 0.931 . S
C465 C464 1.370 . S
C465 C469 1.408 . S
C466 C464 1.363 . S
C466 C467 1.370 . S
C466 C470 1.524 . S
C467 C459 1.503 . S
C467 C466 1.370 . S
C467 C468 1.403 . S
C468 C467 1.403 . S
C468 C469 1.404 . S
C468 C471 1.539 . S
C469 C465 1.408 . S
C469 C468 1.404 . S
C469 H481 0.930 . S
C470 C466 1.524 . S
C470 H482 0.956 . S
C470 H483 0.961 . S
C470 H484 0.961 . S
C471 C468 1.539 . S
C471 H485 0.958 . S
C471 H486 0.961 . S
C471 H487 0.960 . S
H472 C456 0.931 . S
H473 C461 0.929 . S
H474 C462 0.960 . S
H475 C462 0.962 . S
H476 C462 0.960 . S
H477 C463 0.961 . S
H478 C463 0.961 . S
H479 C463 0.961 . S
H480 C464 0.931 . S
H481 C469 0.930 . S
H482 C470 0.956 . S
H483 C470 0.961 . S
H484 C470 0.961 . S
H485 C471 0.958 . S
H486 C471 0.961 . S
H487 C471 0.960 . S
C488 C489 1.391 . S
C488 C490 1.394 . S
C488 H504 0.931 . S
C489 C488 1.391 . S
C489 C493 1.376 . S
C490 C488 1.394 . S
C490 C491 1.369 . S
C490 C494 1.531 . S
C491 C490 1.369 . S
C491 C492 1.410 . S
C491 C499 1.503 . S
C492 C491 1.410 . S
C492 C493 1.392 . S
C492 C495 1.511 . S
C493 C489 1.376 . S
C493 C492 1.392 . S
C493 H505 0.929 . S
C494 C490 1.531 . S
C494 H506 0.960 . S
C494 H507 0.962 . S
C494 H508 0.960 . S
C495 C492 1.511 . S
C495 H509 0.961 . S
C495 H510 0.961 . S
C495 H511 0.961 . S
C496 C497 1.370 . S
C496 C498 1.363 . S
C496 H512 0.931 . S
C497 C496 1.370 . S
C497 C501 1.408 . S
C498 C496 1.363 . S
C498 C499 1.370 . S
C498 C502 1.524 . S
C499 C491 1.503 . S
C499 C498 1.370 . S
C499 C500 1.403 . S
C500 C499 1.403 . S
C500 C501 1.404 . S
C500 C503 1.539 . S
C501 C497 1.408 . S
C501 C500 1.404 . S
C501 H513 0.930 . S
C502 C498 1.524 . S
C502 H514 0.956 . S
C502 H515 0.961 . S
C502 H516 0.961 . S
C503 C500 1.539 . S
C503 H517 0.958 . S
C503 H518 0.961 . S
C503 H519 0.960 . S
H504 C488 0.931 . S
H505 C493 0.929 . S
H506 C494 0.960 . S
H507 C494 0.962 . S
H508 C494 0.960 . S
H509 C495 0.961 . S
H510 C495 0.961 . S
H511 C495 0.961 . S
H512 C496 0.931 . S
H513 C501 0.930 . S
H514 C502 0.956 . S
H515 C502 0.961 . S
H516 C502 0.961 . S
H517 C503 0.958 . S
H518 C503 0.961 . S
H519 C503 0.960 . S
C520 C521 1.391 . S
C520 C522 1.394 . S
C520 H536 0.931 . S
C521 C520 1.391 . S
C521 C525 1.376 . S
C522 C520 1.394 . S
C522 C523 1.369 . S
C522 C526 1.531 . S
C523 C522 1.369 . S
C523 C524 1.410 . S
C523 C531 1.503 . S
C524 C523 1.410 . S
C524 C525 1.392 . S
C524 C527 1.511 . S
C525 C521 1.376 . S
C525 C524 1.392 . S
C525 H537 0.929 . S
C526 C522 1.531 . S
C526 H538 0.960 . S
C526 H539 0.962 . S
C526 H540 0.960 . S
C527 C524 1.511 . S
C527 H541 0.961 . S
C527 H542 0.961 . S
C527 H543 0.961 . S
C528 C529 1.370 . S
C528 C530 1.363 . S
C528 H544 0.931 . S
C529 C528 1.370 . S
C529 C533 1.408 . S
C530 C528 1.363 . S
C530 C531 1.370 . S
C530 C534 1.524 . S
C531 C523 1.503 . S
C531 C530 1.370 . S
C531 C532 1.403 . S
C532 C531 1.403 . S
C532 C533 1.404 . S
C532 C535 1.539 . S
C533 C529 1.408 . S
C533 C532 1.404 . S
C533 H545 0.930 . S
C534 C530 1.524 . S
C534 H546 0.956 . S
C534 H547 0.961 . S
C534 H548 0.961 . S
C535 C532 1.539 . S
C535 H549 0.958 . S
C535 H550 0.961 . S
C535 H551 0.960 . S
H536 C520 0.931 . S
H537 C525 0.929 . S
H538 C526 0.960 . S
H539 C526 0.962 . S
H540 C526 0.960 . S
H541 C527 0.961 . S
H542 C527 0.961 . S
H543 C527 0.961 . S
H544 C528 0.931 . S
H545 C533 0.930 . S
H546 C534 0.956 . S
H547 C534 0.961 . S
H548 C534 0.961 . S
H549 C535 0.958 . S
H550 C535 0.961 . S
H551 C535 0.960 . S
C552 C553 1.391 . S
C552 C554 1.394 . S
C552 H568 0.931 . S
C553 C552 1.391 . S
C553 C557 1.376 . S
C554 C552 1.394 . S
C554 C555 1.369 . S
C554 C558 1.531 . S
C555 C554 1.369 . S
C555 C556 1.410 . S
C555 C563 1.503 . S
C556 C555 1.410 . S
C556 C557 1.392 . S
C556 C559 1.511 1_556 S
C557 C553 1.376 . S
C557 C556 1.392 . S
C557 H569 0.929 . S
C558 C554 1.531 . S
C558 H570 0.960 . S
C558 H571 0.962 . S
C558 H572 0.960 . S
C559 C556 1.511 1_554 S
C559 H573 0.961 1_554 S
C559 H574 0.961 . S
C559 H575 0.961 . S
C560 C561 1.370 . S
C560 C562 1.363 1_554 S
C560 H576 0.931 . S
C561 C560 1.370 . S
C561 C565 1.408 . S
C562 C560 1.363 1_556 S
C562 C563 1.370 . S
C562 C566 1.524 . S
C563 C555 1.503 . S
C563 C562 1.370 . S
C563 C564 1.403 1_556 S
C564 C563 1.403 1_554 S
C564 C565 1.404 . S
C564 C567 1.539 . S
C565 C561 1.408 . S
C565 C564 1.404 . S
C565 H577 0.930 . S
C566 C562 1.524 . S
C566 H578 0.956 . S
C566 H579 0.961 . S
C566 H580 0.961 . S
C567 C564 1.539 . S
C567 H581 0.958 . S
C567 H582 0.961 . S
C567 H583 0.960 . S
H568 C552 0.931 . S
H569 C557 0.929 . S
H570 C558 0.960 . S
H571 C558 0.962 . S
H572 C558 0.960 . S
H573 C559 0.961 1_556 S
H574 C559 0.961 . S
H575 C559 0.961 . S
H576 C560 0.931 . S
H577 C565 0.930 . S
H578 C566 0.956 . S
H579 C566 0.961 . S
H580 C566 0.961 . S
H581 C567 0.958 . S
H582 C567 0.961 . S
H583 C567 0.960 . S
C584 C585 1.391 . S
C584 C586 1.394 . S
C584 H600 0.931 . S
C585 C584 1.391 . S
C585 C589 1.376 . S
C586 C584 1.394 . S
C586 C587 1.369 . S
C586 C590 1.531 . S
C587 C586 1.369 . S
C587 C588 1.410 . S
C587 C595 1.503 . S
C588 C587 1.410 . S
C588 C589 1.392 . S
C588 C591 1.511 . S
C589 C585 1.376 . S
C589 C588 1.392 . S
C589 H601 0.929 . S
C590 C586 1.531 . S
C590 H602 0.960 . S
C590 H603 0.962 . S
C590 H604 0.960 . S
C591 C588 1.511 . S
C591 H605 0.961 . S
C591 H606 0.961 . S
C591 H607 0.961 . S
C592 C593 1.370 . S
C592 C594 1.363 . S
C592 H608 0.931 . S
C593 C592 1.370 . S
C593 C597 1.408 . S
C594 C592 1.363 . S
C594 C595 1.370 . S
C594 C598 1.524 . S
C595 C587 1.503 . S
C595 C594 1.370 . S
C595 C596 1.403 . S
C596 C595 1.403 . S
C596 C597 1.404 . S
C596 C599 1.539 . S
C597 C593 1.408 . S
C597 C596 1.404 . S
C597 H609 0.930 . S
C598 C594 1.524 . S
C598 H610 0.956 . S
C598 H611 0.961 . S
C598 H612 0.961 . S
C599 C596 1.539 . S
C599 H613 0.958 . S
C599 H614 0.961 . S
C599 H615 0.960 . S
H600 C584 0.931 . S
H601 C589 0.929 . S
H602 C590 0.960 . S
H603 C590 0.962 . S
H604 C590 0.960 . S
H605 C591 0.961 . S
H606 C591 0.961 . S
H607 C591 0.961 . S
H608 C592 0.931 . S
H609 C597 0.930 . S
H610 C598 0.956 . S
H611 C598 0.961 . S
H612 C598 0.961 . S
H613 C599 0.958 . S
H614 C599 0.961 . S
H615 C599 0.960 . S
C616 C617 1.391 . S
C616 C618 1.394 . S
C616 H632 0.931 . S
C617 C616 1.391 . S
C617 C621 1.376 . S
C618 C616 1.394 . S
C618 C619 1.369 . S
C618 C622 1.531 . S
C619 C618 1.369 . S
C619 C620 1.410 . S
C619 C627 1.503 . S
C620 C619 1.410 . S
C620 C621 1.392 . S
C620 C623 1.511 . S
C621 C617 1.376 . S
C621 C620 1.392 . S
C621 H633 0.929 . S
C622 C618 1.531 . S
C622 H634 0.960 . S
C622 H635 0.962 . S
C622 H636 0.960 . S
C623 C620 1.511 . S
C623 H637 0.961 . S
C623 H638 0.961 . S
C623 H639 0.961 . S
C624 C625 1.370 . S
C624 C626 1.363 . S
C624 H640 0.931 . S
C625 C624 1.370 . S
C625 C629 1.408 . S
C626 C624 1.363 . S
C626 C627 1.370 . S
C626 C630 1.524 . S
C627 C619 1.503 . S
C627 C626 1.370 . S
C627 C628 1.403 . S
C628 C627 1.403 . S
C628 C629 1.404 . S
C628 C631 1.539 . S
C629 C625 1.408 . S
C629 C628 1.404 . S
C629 H641 0.930 . S
C630 C626 1.524 . S
C630 H642 0.956 . S
C630 H643 0.961 . S
C630 H644 0.961 . S
C631 C628 1.539 . S
C631 H645 0.958 . S
C631 H646 0.961 . S
C631 H647 0.960 . S
H632 C616 0.931 . S
H633 C621 0.929 . S
H634 C622 0.960 . S
H635 C622 0.962 . S
H636 C622 0.960 . S
H637 C623 0.961 . S
H638 C623 0.961 . S
H639 C623 0.961 . S
H640 C624 0.931 . S
H641 C629 0.930 . S
H642 C630 0.956 . S
H643 C630 0.961 . S
H644 C630 0.961 . S
H645 C631 0.958 . S
H646 C631 0.961 . S
H647 C631 0.960 . S
C648 C649 1.391 . S
C648 C650 1.394 1_556 S
C648 H664 0.931 . S
C649 C648 1.391 . S
C649 C653 1.376 . S
C650 C648 1.394 1_554 S
C650 C651 1.369 . S
C650 C654 1.531 . S
C651 C650 1.369 . S
C651 C652 1.410 . S
C651 C659 1.503 . S
C652 C651 1.410 . S
C652 C653 1.392 1_554 S
C652 C655 1.511 . S
C653 C649 1.376 . S
C653 C652 1.392 1_556 S
C653 H665 0.929 . S
C654 C650 1.531 . S
C654 H666 0.960 . S
C654 H667 0.962 . S
C654 H668 0.960 1_554 S
C655 C652 1.511 . S
C655 H669 0.961 . S
C655 H670 0.961 . S
C655 H671 0.961 . S
C656 C657 1.370 . S
C656 C658 1.363 . S
C656 H672 0.931 . S
C657 C656 1.370 . S
C657 C661 1.408 . S
C658 C656 1.363 . S
C658 C659 1.370 . S
C658 C662 1.524 . S
C659 C651 1.503 . S
C659 C658 1.370 . S
C659 C660 1.403 . S
C660 C659 1.403 . S
C660 C661 1.404 . S
C660 C663 1.539 . S
C661 C657 1.408 . S
C661 C660 1.404 . S
C661 H673 0.930 . S
C662 C658 1.524 . S
C662 H674 0.956 . S
C662 H675 0.961 . S
C662 H676 0.961 . S
C663 C660 1.539 . S
C663 H677 0.958 . S
C663 H678 0.961 . S
C663 H679 0.960 . S
H664 C648 0.931 . S
H665 C653 0.929 . S
H666 C654 0.960 . S
H667 C654 0.962 . S
H668 C654 0.960 1_556 S
H669 C655 0.961 . S
H670 C655 0.961 . S
H671 C655 0.961 . S
H672 C656 0.931 . S
H673 C661 0.930 . S
H674 C662 0.956 . S
H675 C662 0.961 . S
H676 C662 0.961 . S
H677 C663 0.958 . S
H678 C663 0.961 . S
H679 C663 0.960 . S
C680 C681 1.391 . S
C680 C682 1.394 . S
C680 H696 0.931 . S
C681 C680 1.391 . S
C681 C685 1.376 . S
C682 C680 1.394 . S
C682 C683 1.369 . S
C682 C686 1.531 . S
C683 C682 1.369 . S
C683 C684 1.410 . S
C683 C691 1.503 . S
C684 C683 1.410 . S
C684 C685 1.392 . S
C684 C687 1.511 . S
C685 C681 1.376 . S
C685 C684 1.392 . S
C685 H697 0.929 . S
C686 C682 1.531 . S
C686 H698 0.960 . S
C686 H699 0.962 . S
C686 H700 0.960 . S
C687 C684 1.511 . S
C687 H701 0.961 . S
C687 H702 0.961 . S
C687 H703 0.961 . S
C688 C689 1.370 . S
C688 C690 1.363 . S
C688 H704 0.931 . S
C689 C688 1.370 . S
C689 C693 1.408 . S
C690 C688 1.363 . S
C690 C691 1.370 . S
C690 C694 1.524 . S
C691 C683 1.503 . S
C691 C690 1.370 . S
C691 C692 1.403 . S
C692 C691 1.403 . S
C692 C693 1.404 . S
C692 C695 1.539 . S
C693 C689 1.408 . S
C693 C692 1.404 . S
C693 H705 0.930 . S
C694 C690 1.524 . S
C694 H706 0.956 . S
C694 H707 0.961 . S
C694 H708 0.961 . S
C695 C692 1.539 . S
C695 H709 0.958 . S
C695 H710 0.961 . S
C695 H711 0.960 . S
H696 C680 0.931 . S
H697 C685 0.929 . S
H698 C686 0.960 . S
H699 C686 0.962 . S
H700 C686 0.960 . S
H701 C687 0.961 . S
H702 C687 0.961 . S
H703 C687 0.961 . S
H704 C688 0.931 . S
H705 C693 0.930 . S
H706 C694 0.956 . S
H707 C694 0.961 . S
H708 C694 0.961 . S
H709 C695 0.958 . S
H710 C695 0.961 . S
H711 C695 0.960 . S
C712 C713 1.391 . S
C712 C714 1.394 . S
C712 H728 0.931 . S
C713 C712 1.391 . S
C713 C717 1.376 . S
C714 C712 1.394 . S
C714 C715 1.369 . S
C714 C718 1.531 . S
C715 C714 1.369 . S
C715 C716 1.410 . S
C715 C723 1.503 . S
C716 C715 1.410 . S
C716 C717 1.392 . S
C716 C719 1.511 . S
C717 C713 1.376 . S
C717 C716 1.392 . S
C717 H729 0.929 . S
C718 C714 1.531 . S
C718 H730 0.960 . S
C718 H731 0.962 . S
C718 H732 0.960 . S
C719 C716 1.511 . S
C719 H733 0.961 . S
C719 H734 0.961 . S
C719 H735 0.961 . S
C720 C721 1.370 . S
C720 C722 1.363 . S
C720 H736 0.931 . S
C721 C720 1.370 . S
C721 C725 1.408 . S
C722 C720 1.363 . S
C722 C723 1.370 . S
C722 C726 1.524 . S
C723 C715 1.503 . S
C723 C722 1.370 . S
C723 C724 1.403 . S
C724 C723 1.403 . S
C724 C725 1.404 . S
C724 C727 1.539 . S
C725 C721 1.408 . S
C725 C724 1.404 . S
C725 H737 0.930 . S
C726 C722 1.524 . S
C726 H738 0.956 . S
C726 H739 0.961 . S
C726 H740 0.961 . S
C727 C724 1.539 . S
C727 H741 0.958 . S
C727 H742 0.961 . S
C727 H743 0.960 . S
H728 C712 0.931 . S
H729 C717 0.929 . S
H730 C718 0.960 . S
H731 C718 0.962 . S
H732 C718 0.960 . S
H733 C719 0.961 . S
H734 C719 0.961 . S
H735 C719 0.961 . S
H736 C720 0.931 . S
H737 C725 0.930 . S
H738 C726 0.956 . S
H739 C726 0.961 . S
H740 C726 0.961 . S
H741 C727 0.958 . S
H742 C727 0.961 . S
H743 C727 0.960 . S
C744 C745 1.391 . S
C744 C746 1.394 . S
C744 H760 0.931 . S
C745 C744 1.391 . S
C745 C749 1.376 . S
C746 C744 1.394 . S
C746 C747 1.369 . S
C746 C750 1.531 1_565 S
C747 C746 1.369 . S
C747 C748 1.410 . S
C747 C755 1.503 . S
C748 C747 1.410 . S
C748 C749 1.392 . S
C748 C751 1.511 . S
C749 C745 1.376 . S
C749 C748 1.392 . S
C749 H761 0.929 . S
C750 C746 1.531 1_545 S
C750 H762 0.960 . S
C750 H763 0.962 1_545 S
C750 H764 0.960 . S
C751 C748 1.511 . S
C751 H765 0.961 . S
C751 H766 0.961 . S
C751 H767 0.961 . S
C752 C753 1.370 . S
C752 C754 1.363 1_544 S
C752 H768 0.931 1_545 S
C753 C752 1.370 . S
C753 C757 1.408 1_554 S
C754 C752 1.363 1_566 S
C754 C755 1.370 . S
C754 C758 1.524 1_556 S
C755 C747 1.503 . S
C755 C754 1.370 . S
C755 C756 1.403 1_565 S
C756 C755 1.403 1_545 S
C756 C757 1.404 . S
C756 C759 1.539 . S
C757 C753 1.408 1_556 S
C757 C756 1.404 . S
C757 H769 0.930 . S
C758 C754 1.524 1_554 S
C758 H770 0.956 1_554 S
C758 H771 0.961 1_554 S
C758 H772 0.961 . S
C759 C756 1.539 . S
C759 H773 0.958 . S
C759 H774 0.961 . S
C759 H775 0.960 . S
H760 C744 0.931 . S
H761 C749 0.929 . S
H762 C750 0.960 . S
H763 C750 0.962 1_565 S
H764 C750 0.960 . S
H765 C751 0.961 . S
H766 C751 0.961 . S
H767 C751 0.961 . S
H768 C752 0.931 1_565 S
H769 C757 0.930 . S
H770 C758 0.956 1_556 S
H771 C758 0.961 1_556 S
H772 C758 0.961 . S
H773 C759 0.958 . S
H774 C759 0.961 . S
H775 C759 0.960 . S
C776 C777 1.391 . S
C776 C778 1.394 . S
C776 H792 0.931 . S
C777 C776 1.391 . S
C777 C781 1.376 . S
C778 C776 1.394 . S
C778 C779 1.369 . S
C778 C782 1.531 . S
C779 C778 1.369 . S
C779 C780 1.410 . S
C779 C787 1.503 . S
C780 C779 1.410 . S
C780 C781 1.392 . S
C780 C783 1.511 . S
C781 C777 1.376 . S
C781 C780 1.392 . S
C781 H793 0.929 . S
C782 C778 1.531 . S
C782 H794 0.960 . S
C782 H795 0.962 . S
C782 H796 0.960 . S
C783 C780 1.511 . S
C783 H797 0.961 . S
C783 H798 0.961 . S
C783 H799 0.961 . S
C784 C785 1.370 . S
C784 C786 1.363 . S
C784 H800 0.931 . S
C785 C784 1.370 . S
C785 C789 1.408 . S
C786 C784 1.363 . S
C786 C787 1.370 . S
C786 C790 1.524 . S
C787 C779 1.503 . S
C787 C786 1.370 . S
C787 C788 1.403 . S
C788 C787 1.403 . S
C788 C789 1.404 . S
C788 C791 1.539 . S
C789 C785 1.408 . S
C789 C788 1.404 . S
C789 H801 0.930 . S
C790 C786 1.524 . S
C790 H802 0.956 . S
C790 H803 0.961 . S
C790 H804 0.961 . S
C791 C788 1.539 . S
C791 H805 0.958 . S
C791 H806 0.961 . S
C791 H807 0.960 . S
H792 C776 0.931 . S
H793 C781 0.929 . S
H794 C782 0.960 . S
H795 C782 0.962 . S
H796 C782 0.960 . S
H797 C783 0.961 . S
H798 C783 0.961 . S
H799 C783 0.961 . S
H800 C784 0.931 . S
H801 C789 0.930 . S
H802 C790 0.956 . S
H803 C790 0.961 . S
H804 C790 0.961 . S
H805 C791 0.958 . S
H806 C791 0.961 . S
H807 C791 0.960 . S
C808 C809 1.391 . S
C808 C810 1.394 . S
C808 H824 0.931 . S
C809 C808 1.391 . S
C809 C813 1.376 . S
C810 C808 1.394 . S
C810 C811 1.369 . S
C810 C814 1.531 1_455 S
C811 C810 1.369 . S
C811 C812 1.410 . S
C811 C819 1.503 . S
C812 C811 1.410 . S
C812 C813 1.392 . S
C812 C815 1.511 . S
C813 C809 1.376 . S
C813 C812 1.392 . S
C813 H825 0.929 . S
C814 C810 1.531 1_655 S
C814 H826 0.960 . S
C814 H827 0.962 . S
C814 H828 0.960 . S
C815 C812 1.511 . S
C815 H829 0.961 . S
C815 H830 0.961 . S
C815 H831 0.961 . S
C816 C817 1.370 . S
C816 C818 1.363 . S
C816 H832 0.931 . S
C817 C816 1.370 . S
C817 C821 1.408 . S
C818 C816 1.363 . S
C818 C819 1.370 1_655 S
C818 C822 1.524 1_655 S
C819 C811 1.503 . S
C819 C818 1.370 1_455 S
C819 C820 1.403 1_455 S
C820 C819 1.403 1_655 S
C820 C821 1.404 . S
C820 C823 1.539 1_655 S
C821 C817 1.408 . S
C821 C820 1.404 . S
C821 H833 0.930 . S
C822 C818 1.524 1_455 S
C822 H834 0.956 . S
C822 H835 0.961 . S
C822 H836 0.961 . S
C823 C820 1.539 1_455 S
C823 H837 0.958 1_455 S
C823 H838 0.961 . S
C823 H839 0.960 . S
H824 C808 0.931 . S
H825 C813 0.929 . S
H826 C814 0.960 . S
H827 C814 0.962 . S
H828 C814 0.960 . S
H829 C815 0.961 . S
H830 C815 0.961 . S
H831 C815 0.961 . S
H832 C816 0.931 . S
H833 C821 0.930 . S
H834 C822 0.956 . S
H835 C822 0.961 . S
H836 C822 0.961 . S
H837 C823 0.958 1_655 S
H838 C823 0.961 . S
H839 C823 0.960 . S
C840 C841 1.391 . S
C840 C842 1.394 . S
C840 H856 0.931 . S
C841 C840 1.391 . S
C841 C845 1.376 . S
C842 C840 1.394 . S
C842 C843 1.369 . S
C842 C846 1.531 . S
C843 C842 1.369 . S
C843 C844 1.410 . S
C843 C851 1.503 1_564 S
C844 C843 1.410 . S
C844 C845 1.392 . S
C844 C847 1.511 . S
C845 C841 1.376 . S
C845 C844 1.392 . S
C845 H857 0.929 . S
C846 C842 1.531 . S
C846 H858 0.960 1_554 S
C846 H859 0.938 1_565 S
C846 H860 0.960 . S
C847 C844 1.511 . S
C847 H861 0.961 . S
C847 H862 0.961 1_565 S
C847 H863 0.961 . S
C848 C849 1.370 . S
C848 C850 1.363 . S
C848 H864 0.931 . S
C849 C848 1.370 . S
C849 C853 1.408 . S
C850 C848 1.363 . S
C850 C851 1.370 . S
C850 C854 1.524 1_556 S
C851 C843 1.503 1_546 S
C851 C850 1.370 . S
C851 C852 1.403 1_545 S
C852 C851 1.403 1_565 S
C852 C853 1.404 1_565 S
C852 C855 1.539 . S
C853 C849 1.408 . S
C853 C852 1.404 1_545 S
C853 H865 0.930 . S
C854 C850 1.524 1_554 S
C854 H866 0.956 . S
C854 H867 0.961 . S
C854 H868 0.961 . S
C855 C852 1.539 . S
C855 H869 0.958 . S
C855 H870 0.961 . S
C855 H871 0.960 . S
H856 C840 0.931 . S
H857 C845 0.929 . S
H858 C846 0.960 1_556 S
H859 C846 0.938 1_545 S
H860 C846 0.960 . S
H861 C847 0.961 . S
H862 C847 0.961 1_545 S
H863 C847 0.961 . S
H864 C848 0.931 . S
H865 C853 0.930 . S
H866 C854 0.956 . S
H867 C854 0.961 . S
H868 C854 0.961 . S
H869 C855 0.958 . S
H870 C855 0.961 . S
H871 C855 0.960 . S
C872 C873 1.391 . S
C872 C874 1.394 . S
C872 H888 0.931 . S
C873 C872 1.391 . S
C873 C877 1.376 . S
C874 C872 1.394 . S
C874 C875 1.369 . S
C874 C878 1.531 . S
C875 C874 1.369 . S
C875 C876 1.410 . S
C875 C883 1.503 . S
C876 C875 1.410 . S
C876 C877 1.392 . S
C876 C879 1.511 . S
C877 C873 1.376 . S
C877 C876 1.392 . S
C877 H889 0.929 . S
C878 C874 1.531 . S
C878 H890 0.960 . S
C878 H891 0.962 . S
C878 H892 0.960 . S
C879 C876 1.511 . S
C879 H893 0.961 . S
C879 H894 0.961 . S
C879 H895 0.961 . S
C880 C881 1.370 . S
C880 C882 1.363 . S
C880 H896 0.931 . S
C881 C880 1.370 . S
C881 C885 1.408 . S
C882 C880 1.363 . S
C882 C883 1.370 . S
C882 C886 1.524 . S
C883 C875 1.503 . S
C883 C882 1.370 . S
C883 C884 1.403 . S
C884 C883 1.403 . S
C884 C885 1.404 . S
C884 C887 1.539 . S
C885 C881 1.408 . S
C885 C884 1.404 . S
C885 H897 0.930 . S
C886 C882 1.524 . S
C886 H898 0.956 . S
C886 H899 0.961 . S
C886 H900 0.961 . S
C887 C884 1.539 . S
C887 H901 0.958 . S
C887 H902 0.961 . S
C887 H903 0.960 . S
H888 C872 0.931 . S
H889 C877 0.929 . S
H890 C878 0.960 . S
H891 C878 0.962 . S
H892 C878 0.960 . S
H893 C879 0.961 . S
H894 C879 0.961 . S
H895 C879 0.961 . S
H896 C880 0.931 . S
H897 C885 0.930 . S
H898 C886 0.956 . S
H899 C886 0.961 . S
H900 C886 0.961 . S
H901 C887 0.958 . S
H902 C887 0.961 . S
H903 C887 0.960 . S
C904 C905 1.391 . S
C904 C906 1.394 . S
C904 H920 0.931 . S
C905 C904 1.391 . S
C905 C909 1.376 . S
C906 C904 1.394 . S
C906 C907 1.369 . S
C906 C910 1.531 1_455 S
C907 C906 1.369 . S
C907 C908 1.410 . S
C907 C915 1.503 1_455 S
C908 C907 1.410 . S
C908 C909 1.392 . S
C908 C911 1.511 . S
C909 C905 1.376 . S
C909 C908 1.392 . S
C909 H921 0.929 . S
C910 C906 1.531 1_655 S
C910 H922 0.960 . S
C910 H923 0.962 . S
C910 H924 0.960 . S
C911 C908 1.511 . S
C911 H925 0.961 . S
C911 H926 0.961 . S
C911 H927 0.961 . S
C912 C913 1.370 . S
C912 C914 1.363 . S
C912 H928 0.931 . S
C913 C912 1.370 . S
C913 C917 1.408 . S
C914 C912 1.363 . S
C914 C915 1.370 . S
C914 C918 1.524 . S
C915 C907 1.503 1_655 S
C915 C914 1.370 . S
C915 C916 1.403 1_655 S
C916 C915 1.403 1_455 S
C916 C917 1.404 1_455 S
C916 C919 1.539 . S
C917 C913 1.408 . S
C917 C916 1.404 1_655 S
C917 H929 0.930 . S
C918 C914 1.524 . S
C918 H930 0.956 . S
C918 H931 0.961 . S
C918 H932 0.961 . S
C919 C916 1.539 . S
C919 H933 0.958 . S
C919 H934 0.961 . S
C919 H935 0.960 . S
H920 C904 0.931 . S
H921 C909 0.929 . S
H922 C910 0.960 . S
H923 C910 0.962 . S
H924 C910 0.960 . S
H925 C911 0.961 . S
H926 C911 0.961 . S
H927 C911 0.961 . S
H928 C912 0.931 . S
H929 C917 0.930 . S
H930 C918 0.956 . S
H931 C918 0.961 . S
H932 C918 0.961 . S
H933 C919 0.958 . S
H934 C919 0.961 . S
H935 C919 0.960 . S
C936 C937 1.391 . S
C936 C938 1.394 . S
C936 H952 0.931 . S
C937 C936 1.391 . S
C937 C941 1.376 . S
C938 C936 1.394 . S
C938 C939 1.369 . S
C938 C942 1.531 . S
C939 C938 1.369 . S
C939 C940 1.410 . S
C939 C947 1.503 1_545 S
C940 C939 1.410 . S
C940 C941 1.392 . S
C940 C943 1.511 . S
C941 C937 1.376 . S
C941 C940 1.392 . S
C941 H953 0.929 . S
C942 C938 1.531 . S
C942 H954 0.960 . S
C942 H955 0.991 . S
C942 H956 0.960 . S
C943 C940 1.511 . S
C943 H957 0.961 . S
C943 H958 0.961 1_545 S
C943 H959 0.961 . S
C944 C945 1.370 . S
C944 C946 1.363 . S
C944 H960 0.931 . S
C945 C944 1.370 . S
C945 C949 1.408 . S
C946 C944 1.363 . S
C946 C947 1.370 . S
C946 C950 1.524 . S
C947 C939 1.503 1_565 S
C947 C946 1.370 . S
C947 C948 1.403 1_565 S
C948 C947 1.403 1_545 S
C948 C949 1.404 1_545 S
C948 C951 1.539 . S
C949 C945 1.408 . S
C949 C948 1.404 1_565 S
C949 H961 0.930 . S
C950 C946 1.524 . S
C950 H962 0.956 . S
C950 H963 0.961 . S
C950 H964 0.961 . S
C951 C948 1.539 . S
C951 H965 0.958 . S
C951 H966 0.961 . S
C951 H967 0.960 . S
H952 C936 0.931 . S
H953 C941 0.929 . S
H954 C942 0.960 . S
H955 C942 0.991 . S
H956 C942 0.960 . S
H957 C943 0.961 . S
H958 C943 0.961 1_565 S
H959 C943 0.961 . S
H960 C944 0.931 . S
H961 C949 0.930 . S
H962 C950 0.956 . S
H963 C950 0.961 . S
H964 C950 0.961 . S
H965 C951 0.958 . S
H966 C951 0.961 . S
H967 C951 0.960 . S
C968 C969 1.391 . S
C968 C970 1.394 . S
C968 H984 0.931 . S
C969 C968 1.391 . S
C969 C973 1.376 . S
C970 C968 1.394 . S
C970 C971 1.369 . S
C970 C974 1.531 . S
C971 C970 1.369 . S
C971 C972 1.410 . S
C971 C979 1.503 . S
C972 C971 1.410 . S
C972 C973 1.392 . S
C972 C975 1.511 . S
C973 C969 1.376 . S
C973 C972 1.392 . S
C973 H985 0.929 . S
C974 C970 1.531 . S
C974 H986 0.960 . S
C974 H987 0.962 . S
C974 H988 0.960 . S
C975 C972 1.511 . S
C975 H989 0.961 . S
C975 H990 0.961 . S
C975 H991 0.961 . S
C976 C977 1.370 . S
C976 C978 1.363 . S
C976 H992 0.931 . S
C977 C976 1.370 . S
C977 C981 1.408 . S
C978 C976 1.363 . S
C978 C979 1.370 . S
C978 C982 1.524 . S
C979 C971 1.503 . S
C979 C978 1.370 . S
C979 C980 1.403 . S
C980 C979 1.403 . S
C980 C981 1.404 . S
C980 C983 1.539 . S
C981 C977 1.408 . S
C981 C980 1.404 . S
C981 H993 0.930 . S
C982 C978 1.524 . S
C982 H994 0.956 . S
C982 H995 0.961 . S
C982 H996 0.961 . S
C983 C980 1.539 . S
C983 H997 0.958 . S
C983 H998 0.961 . S
C983 H999 0.960 . S
H984 C968 0.931 . S
H985 C973 0.929 . S
H986 C974 0.960 . S
H987 C974 0.962 . S
H988 C974 0.960 . S
H989 C975 0.961 . S
H990 C975 0.961 . S
H991 C975 0.961 . S
H992 C976 0.931 . S
H993 C981 0.930 . S
H994 C982 0.956 . S
H995 C982 0.961 . S
H996 C982 0.961 . S
H997 C983 0.958 . S
H998 C983 0.961 . S
H999 C983 0.960 . S
C1000 C1001 1.391 . S
C1000 C1002 1.394 . S
C1000 H1016 0.931 . S
C1001 C1000 1.391 . S
C1001 C1005 1.376 . S
C1002 C1000 1.394 . S
C1002 C1003 1.369 . S
C1002 C1006 1.531 . S
C1003 C1002 1.369 . S
C1003 C1004 1.410 1_655 S
C1003 C1011 1.503 1_655 S
C1004 C1003 1.410 1_455 S
C1004 C1005 1.392 1_455 S
C1004 C1007 1.511 . S
C1005 C1001 1.376 . S
C1005 C1004 1.392 1_655 S
C1005 H1017 0.929 . S
C1006 C1002 1.531 . S
C1006 H1018 0.960 1_556 S
C1006 H1019 0.962 . S
C1006 H1020 0.960 1_556 S
C1007 C1004 1.511 . S
C1007 H1021 0.961 . S
C1007 H1022 0.961 . S
C1007 H1023 0.961 . S
C1008 C1009 1.370 . S
C1008 C1010 1.363 . S
C1008 H1024 0.931 . S
C1009 C1008 1.370 . S
C1009 C1013 1.408 . S
C1010 C1008 1.363 . S
C1010 C1011 1.370 . S
C1010 C1014 1.524 1_455 S
C1011 C1003 1.503 1_455 S
C1011 C1010 1.370 . S
C1011 C1012 1.403 . S
C1012 C1011 1.403 . S
C1012 C1013 1.404 . S
C1012 C1015 1.539 . S
C1013 C1009 1.408 . S
C1013 C1012 1.404 . S
C1013 H1025 0.930 . S
C1014 C1010 1.524 1_655 S
C1014 H1026 0.956 . S
C1014 H1027 0.961 . S
C1014 H1028 0.961 . S
C1015 C1012 1.539 . S
C1015 H1029 0.958 1_556 S
C1015 H1030 0.961 . S
C1015 H1031 0.960 . S
H1016 C1000 0.931 . S
H1017 C1005 0.929 . S
H1018 C1006 0.960 1_554 S
H1019 C1006 0.962 . S
H1020 C1006 0.960 1_554 S
H1021 C1007 0.961 . S
H1022 C1007 0.961 . S
H1023 C1007 0.961 . S
H1024 C1008 0.931 . S
H1025 C1013 0.930 . S
H1026 C1014 0.956 . S
H1027 C1014 0.961 . S
H1028 C1014 0.961 . S
H1029 C1015 0.958 1_554 S
H1030 C1015 0.961 . S
H1031 C1015 0.960 . S
C1032 C1033 1.391 . S
C1032 C1034 1.394 . S
C1032 H1048 0.931 . S
C1033 C1032 1.391 . S
C1033 C1037 1.376 . S
C1034 C1032 1.394 . S
C1034 C1035 1.369 . S
C1034 C1038 1.531 . S
C1035 C1034 1.369 . S
C1035 C1036 1.410 . S
C1035 C1043 1.503 1_455 S
C1036 C1035 1.410 . S
C1036 C1037 1.392 . S
C1036 C1039 1.511 1_455 S
C1037 C1033 1.376 . S
C1037 C1036 1.392 . S
C1037 H1049 0.929 . S
C1038 C1034 1.531 . S
C1038 H1050 0.960 . S
C1038 H1051 0.962 . S
C1038 H1052 0.960 . S
C1039 C1036 1.511 1_655 S
C1039 H1053 0.961 . S
C1039 H1054 0.961 . S
C1039 H1055 0.961 . S
C1040 C1041 1.370 . S
C1040 C1042 1.382 . S
C1040 H1056 0.931 . S
C1041 C1040 1.370 . S
C1041 C1045 1.408 . S
C1042 C1040 1.382 . S
C1042 C1043 1.369 . S
C1042 C1046 1.508 1_655 S
C1043 C1035 1.503 1_655 S
C1043 C1042 1.369 . S
C1043 C1044 1.403 . S
C1044 C1043 1.403 . S
C1044 C1045 1.404 . S
C1044 C1047 1.539 . S
C1045 C1041 1.408 . S
C1045 C1044 1.404 . S
C1045 H1057 0.930 . S
C1046 C1042 1.508 1_455 S
C1046 H1058 0.956 . S
C1046 H1059 0.961 . S
C1046 H1060 0.961 . S
C1047 C1044 1.539 . S
C1047 H1061 0.958 . S
C1047 H1062 0.961 . S
C1047 H1063 0.960 . S
H1048 C1032 0.931 . S
H1049 C1037 0.929 . S
H1050 C1038 0.960 . S
H1051 C1038 0.962 . S
H1052 C1038 0.960 . S
H1053 C1039 0.961 . S
H1054 C1039 0.961 . S
H1055 C1039 0.961 . S
H1056 C1040 0.931 . S
H1057 C1045 0.930 . S
H1058 C1046 0.956 . S
H1059 C1046 0.961 . S
H1060 C1046 0.961 . S
H1061 C1047 0.958 . S
H1062 C1047 0.961 . S
H1063 C1047 0.960 . S
C1064 C1065 1.391 . S
C1064 C1066 1.394 . S
C1064 H1080 0.931 . S
C1065 C1064 1.391 . S
C1065 C1069 1.376 . S
C1066 C1064 1.394 . S
C1066 C1067 1.369 . S
C1066 C1070 1.531 . S
C1067 C1066 1.369 . S
C1067 C1068 1.410 . S
C1067 C1075 1.503 1_565 S
C1068 C1067 1.410 . S
C1068 C1069 1.392 . S
C1068 C1071 1.512 . S
C1069 C1065 1.376 . S
C1069 C1068 1.392 . S
C1069 H1081 0.929 . S
C1070 C1066 1.531 . S
C1070 H1082 0.960 1_565 S
C1070 H1083 0.962 . S
C1070 H1084 0.960 . S
C1071 C1068 1.512 . S
C1071 H1085 0.963 . S
C1071 H1086 0.963 1_565 S
C1071 H1087 0.955 1_565 S
C1072 C1073 1.370 . S
C1072 C1074 1.363 1_545 S
C1072 H1088 0.931 . S
C1073 C1072 1.370 . S
C1073 C1077 1.408 . S
C1074 C1072 1.363 1_565 S
C1074 C1075 1.370 1_565 S
C1074 C1078 1.524 . S
C1075 C1067 1.503 1_545 S
C1075 C1074 1.370 1_545 S
C1075 C1076 1.403 . S
C1076 C1075 1.403 . S
C1076 C1077 1.404 . S
C1076 C1079 1.539 . S
C1077 C1073 1.408 . S
C1077 C1076 1.404 . S
C1077 H1089 0.930 . S
C1078 C1074 1.524 . S
C1078 H1090 0.956 . S
C1078 H1091 0.961 . S
C1078 H1092 0.961 . S
C1079 C1076 1.539 . S
C1079 H1093 0.958 . S
C1079 H1094 0.961 . S
C1079 H1095 0.960 . S
H1080 C1064 0.931 . S
H1081 C1069 0.929 . S
H1082 C1070 0.960 1_545 S
H1083 C1070 0.962 . S
H1084 C1070 0.960 . S
H1085 C1071 0.963 . S
H1086 C1071 0.963 1_545 S
H1087 C1071 0.955 1_545 S
H1088 C1072 0.931 . S
H1089 C1077 0.930 . S
H1090 C1078 0.956 . S
H1091 C1078 0.961 . S
H1092 C1078 0.961 . S
H1093 C1079 0.958 . S
H1094 C1079 0.961 . S
H1095 C1079 0.960 . S
C1096 C1097 1.391 . S
C1096 C1098 1.394 . S
C1096 H1112 0.931 . S
C1097 C1096 1.391 . S
C1097 C1101 1.376 . S
C1098 C1096 1.394 . S
C1098 C1099 1.369 . S
C1098 C1102 1.531 . S
C1099 C1098 1.369 . S
C1099 C1100 1.410 . S
C1099 C1107 1.503 . S
C1100 C1099 1.410 . S
C1100 C1101 1.392 . S
C1100 C1103 1.511 . S
C1101 C1097 1.376 . S
C1101 C1100 1.392 . S
C1101 H1113 0.929 . S
C1102 C1098 1.531 . S
C1102 H1114 0.960 1_554 S
C1102 H1115 0.962 . S
C1102 H1116 0.960 1_554 S
C1103 C1100 1.511 . S
C1103 H1117 0.961 . S
C1103 H1118 0.961 . S
C1103 H1119 0.961 . S
C1104 C1105 1.370 . S
C1104 C1106 1.363 . S
C1104 H1120 0.931 . S
C1105 C1104 1.370 . S
C1105 C1109 1.408 . S
C1106 C1104 1.363 . S
C1106 C1107 1.370 . S
C1106 C1110 1.524 . S
C1107 C1099 1.503 . S
C1107 C1106 1.370 . S
C1107 C1108 1.403 . S
C1108 C1107 1.403 . S
C1108 C1109 1.404 . S
C1108 C1111 1.539 1_554 S
C1109 C1105 1.408 . S
C1109 C1108 1.404 . S
C1109 H1121 0.930 . S
C1110 C1106 1.524 . S
C1110 H1122 0.956 . S
C1110 H1123 0.961 . S
C1110 H1124 0.961 . S
C1111 C1108 1.539 1_556 S
C1111 H1125 0.958 . S
C1111 H1126 0.961 . S
C1111 H1127 0.960 1_556 S
H1112 C1096 0.931 . S
H1113 C1101 0.929 . S
H1114 C1102 0.960 1_556 S
H1115 C1102 0.962 . S
H1116 C1102 0.960 1_556 S
H1117 C1103 0.961 . S
H1118 C1103 0.961 . S
H1119 C1103 0.961 . S
H1120 C1104 0.931 . S
H1121 C1109 0.930 . S
H1122 C1110 0.956 . S
H1123 C1110 0.961 . S
H1124 C1110 0.961 . S
H1125 C1111 0.958 . S
H1126 C1111 0.961 . S
H1127 C1111 0.960 1_554 S
C1128 C1129 1.391 . S
C1128 C1130 1.394 . S
C1128 H1144 0.931 . S
C1129 C1128 1.391 . S
C1129 C1133 1.376 . S
C1130 C1128 1.394 . S
C1130 C1131 1.369 . S
C1130 C1134 1.531 . S
C1131 C1130 1.369 . S
C1131 C1132 1.410 . S
C1131 C1139 1.503 1_565 S
C1132 C1131 1.410 . S
C1132 C1133 1.392 . S
C1132 C1135 1.511 . S
C1133 C1129 1.376 . S
C1133 C1132 1.392 . S
C1133 H1145 0.929 . S
C1134 C1130 1.531 . S
C1134 H1146 0.960 . S
C1134 H1147 0.962 1_565 S
C1134 H1148 0.960 . S
C1135 C1132 1.511 . S
C1135 H1149 0.961 . S
C1135 H1150 0.961 1_565 S
C1135 H1151 0.961 . S
C1136 C1137 1.370 . S
C1136 C1138 1.363 . S
C1136 H1152 0.931 . S
C1137 C1136 1.370 . S
C1137 C1141 1.408 . S
C1138 C1136 1.363 . S
C1138 C1139 1.370 . S
C1138 C1142 1.524 . S
C1139 C1131 1.503 1_545 S
C1139 C1138 1.370 . S
C1139 C1140 1.414 . S
C1140 C1139 1.414 . S
C1140 C1141 1.414 . S
C1140 C1143 1.519 1_545 S
C1141 C1137 1.408 . S
C1141 C1140 1.414 . S
C1141 H1153 0.930 . S
C1142 C1138 1.524 . S
C1142 H1154 0.956 . S
C1142 H1155 0.961 . S
C1142 H1156 0.961 . S
C1143 C1140 1.519 1_565 S
C1143 H1157 0.958 . S
C1143 H1158 0.961 . S
C1143 H1159 0.960 . S
H1144 C1128 0.931 . S
H1145 C1133 0.929 . S
H1146 C1134 0.960 . S
H1147 C1134 0.962 1_545 S
H1148 C1134 0.960 . S
H1149 C1135 0.961 . S
H1150 C1135 0.961 1_545 S
H1151 C1135 0.961 . S
H1152 C1136 0.931 . S
H1153 C1141 0.930 . S
H1154 C1142 0.956 . S
H1155 C1142 0.961 . S
H1156 C1142 0.961 . S
H1157 C1143 0.958 . S
H1158 C1143 0.961 . S
H1159 C1143 0.960 . S
C1160 C1161 1.391 . S
C1160 C1162 1.394 . S
C1160 H1176 0.931 . S
C1161 C1160 1.391 . S
C1161 C1165 1.376 . S
C1162 C1160 1.394 . S
C1162 C1163 1.369 . S
C1162 C1166 1.531 . S
C1163 C1162 1.369 . S
C1163 C1164 1.410 . S
C1163 C1171 1.503 . S
C1164 C1163 1.410 . S
C1164 C1165 1.392 . S
C1164 C1167 1.511 . S
C1165 C1161 1.376 . S
C1165 C1164 1.392 . S
C1165 H1177 0.929 . S
C1166 C1162 1.531 . S
C1166 H1178 0.960 . S
C1166 H1179 0.962 . S
C1166 H1180 0.960 . S
C1167 C1164 1.511 . S
C1167 H1181 0.961 . S
C1167 H1182 0.961 . S
C1167 H1183 0.961 . S
C1168 C1169 1.370 . S
C1168 C1170 1.363 . S
C1168 H1184 0.931 . S
C1169 C1168 1.370 . S
C1169 C1173 1.408 . S
C1170 C1168 1.363 . S
C1170 C1171 1.370 . S
C1170 C1174 1.524 . S
C1171 C1163 1.503 . S
C1171 C1170 1.370 . S
C1171 C1172 1.403 . S
C1172 C1171 1.403 . S
C1172 C1173 1.404 . S
C1172 C1175 1.539 . S
C1173 C1169 1.408 . S
C1173 C1172 1.404 . S
C1173 H1185 0.930 . S
C1174 C1170 1.524 . S
C1174 H1186 0.956 . S
C1174 H1187 0.961 . S
C1174 H1188 0.961 . S
C1175 C1172 1.539 . S
C1175 H1189 0.958 . S
C1175 H1190 0.961 . S
C1175 H1191 0.960 . S
H1176 C1160 0.931 . S
H1177 C1165 0.929 . S
H1178 C1166 0.960 . S
H1179 C1166 0.962 . S
H1180 C1166 0.960 . S
H1181 C1167 0.961 . S
H1182 C1167 0.961 . S
H1183 C1167 0.961 . S
H1184 C1168 0.931 . S
H1185 C1173 0.930 . S
H1186 C1174 0.956 . S
H1187 C1174 0.961 . S
H1188 C1174 0.961 . S
H1189 C1175 0.958 . S
H1190 C1175 0.961 . S
H1191 C1175 0.960 . S
C1192 C1193 1.391 . S
C1192 C1194 1.394 1_556 S
C1192 H1208 0.931 . S
C1193 C1192 1.391 . S
C1193 C1197 1.376 1_556 S
C1194 C1192 1.394 1_554 S
C1194 C1195 1.369 . S
C1194 C1198 1.531 1_655 S
C1195 C1194 1.369 . S
C1195 C1196 1.410 . S
C1195 C1203 1.498 1_655 S
C1196 C1195 1.410 . S
C1196 C1197 1.392 . S
C1196 C1199 1.511 . S
C1197 C1193 1.376 1_554 S
C1197 C1196 1.392 . S
C1197 H1209 0.929 . S
C1198 C1194 1.531 1_455 S
C1198 H1210 0.960 . S
C1198 H1211 0.962 . S
C1198 H1212 0.960 . S
C1199 C1196 1.511 . S
C1199 H1213 0.961 . S
C1199 H1214 0.961 . S
C1199 H1215 0.961 . S
C1200 C1201 1.370 . S
C1200 C1202 1.363 . S
C1200 H1216 0.931 . S
C1201 C1200 1.370 . S
C1201 C1205 1.408 . S
C1202 C1200 1.363 . S
C1202 C1203 1.376 . S
C1202 C1206 1.524 1_455 S
C1203 C1195 1.498 1_455 S
C1203 C1202 1.376 . S
C1203 C1204 1.402 . S
C1204 C1203 1.402 . S
C1204 C1205 1.404 . S
C1204 C1207 1.539 . S
C1205 C1201 1.408 . S
C1205 C1204 1.404 . S
C1205 H1217 0.930 . S
C1206 C1202 1.524 1_655 S
C1206 H1218 0.956 1_655 S
C1206 H1219 0.961 . S
C1206 H1220 0.961 . S
C1207 C1204 1.539 . S
C1207 H1221 0.958 . S
C1207 H1222 0.961 . S
C1207 H1223 0.960 1_455 S
H1208 C1192 0.931 . S
H1209 C1197 0.929 . S
H1210 C1198 0.960 . S
H1211 C1198 0.962 . S
H1212 C1198 0.960 . S
H1213 C1199 0.961 . S
H1214 C1199 0.961 . S
H1215 C1199 0.961 . S
H1216 C1200 0.931 . S
H1217 C1205 0.930 . S
H1218 C1206 0.956 1_455 S
H1219 C1206 0.961 . S
H1220 C1206 0.961 . S
H1221 C1207 0.958 . S
H1222 C1207 0.961 . S
H1223 C1207 0.960 1_655 S
C1224 C1225 1.391 . S
C1224 C1226 1.394 1_545 S
C1224 H1240 0.931 . S
C1225 C1224 1.391 . S
C1225 C1229 1.376 . S
C1226 C1224 1.394 1_565 S
C1226 C1227 1.369 1_565 S
C1226 C1230 1.531 . S
C1227 C1226 1.369 1_545 S
C1227 C1228 1.410 . S
C1227 C1235 1.503 1_545 S
C1228 C1227 1.410 . S
C1228 C1229 1.392 . S
C1228 C1231 1.511 . S
C1229 C1225 1.376 . S
C1229 C1228 1.392 . S
C1229 H1241 0.929 . S
C1230 C1226 1.531 . S
C1230 H1242 0.960 . S
C1230 H1243 0.962 . S
C1230 H1244 0.960 . S
C1231 C1228 1.511 . S
C1231 H1245 0.961 . S
C1231 H1246 0.961 . S
C1231 H1247 0.961 . S
C1232 C1233 1.370 . S
C1232 C1234 1.363 . S
C1232 H1248 0.931 . S
C1233 C1232 1.370 . S
C1233 C1237 1.408 . S
C1234 C1232 1.363 . S
C1234 C1235 1.370 . S
C1234 C1238 1.524 1_565 S
C1235 C1227 1.503 1_565 S
C1235 C1234 1.370 . S
C1235 C1236 1.403 . S
C1236 C1235 1.403 . S
C1236 C1237 1.404 . S
C1236 C1239 1.539 . S
C1237 C1233 1.408 . S
C1237 C1236 1.404 . S
C1237 H1249 0.930 . S
C1238 C1234 1.524 1_545 S
C1238 H1250 0.956 . S
C1238 H1251 0.961 . S
C1238 H1252 0.961 . S
C1239 C1236 1.539 . S
C1239 H1253 0.958 . S
C1239 H1254 0.961 . S
C1239 H1255 0.960 . S
H1240 C1224 0.931 . S
H1241 C1229 0.929 . S
H1242 C1230 0.960 . S
H1243 C1230 0.962 . S
H1244 C1230 0.960 . S
H1245 C1231 0.961 . S
H1246 C1231 0.961 . S
H1247 C1231 0.961 . S
H1248 C1232 0.931 . S
H1249 C1237 0.930 . S
H1250 C1238 0.956 . S
H1251 C1238 0.961 . S
H1252 C1238 0.961 . S
H1253 C1239 0.958 . S
H1254 C1239 0.961 . S
H1255 C1239 0.960 . S
C1256 C1257 1.391 . S
C1256 C1258 1.394 . S
C1256 H1272 0.931 . S
C1257 C1256 1.391 . S
C1257 C1261 1.376 . S
C1258 C1256 1.394 . S
C1258 C1259 1.369 . S
C1258 C1262 1.531 . S
C1259 C1258 1.369 . S
C1259 C1260 1.410 . S
C1259 C1267 1.503 . S
C1260 C1259 1.410 . S
C1260 C1261 1.392 . S
C1260 C1263 1.511 . S
C1261 C1257 1.376 . S
C1261 C1260 1.392 . S
C1261 H1273 0.929 . S
C1262 C1258 1.531 . S
C1262 H1274 0.960 . S
C1262 H1275 0.962 . S
C1262 H1276 0.960 . S
C1263 C1260 1.511 . S
C1263 H1277 0.961 . S
C1263 H1278 0.961 . S
C1263 H1279 0.961 . S
C1264 C1265 1.370 . S
C1264 C1266 1.363 . S
C1264 H1280 0.931 . S
C1265 C1264 1.370 . S
C1265 C1269 1.408 . S
C1266 C1264 1.363 . S
C1266 C1267 1.370 . S
C1266 C1270 1.524 . S
C1267 C1259 1.503 . S
C1267 C1266 1.370 . S
C1267 C1268 1.403 . S
C1268 C1267 1.403 . S
C1268 C1269 1.404 . S
C1268 C1271 1.539 . S
C1269 C1265 1.408 . S
C1269 C1268 1.404 . S
C1269 H1281 0.930 . S
C1270 C1266 1.524 . S
C1270 H1282 0.956 . S
C1270 H1283 0.961 . S
C1270 H1284 0.961 . S
C1271 C1268 1.539 . S
C1271 H1285 0.958 . S
C1271 H1286 0.961 . S
C1271 H1287 0.960 . S
H1272 C1256 0.931 . S
H1273 C1261 0.929 . S
H1274 C1262 0.960 . S
H1275 C1262 0.962 . S
H1276 C1262 0.960 . S
H1277 C1263 0.961 . S
H1278 C1263 0.961 . S
H1279 C1263 0.961 . S
H1280 C1264 0.931 . S
H1281 C1269 0.930 . S
H1282 C1270 0.956 . S
H1283 C1270 0.961 . S
H1284 C1270 0.961 . S
H1285 C1271 0.958 . S
H1286 C1271 0.961 . S
H1287 C1271 0.960 . S
C1288 C1289 1.391 . S
C1288 C1290 1.394 . S
C1288 H1304 0.931 . S
C1289 C1288 1.391 . S
C1289 C1293 1.376 . S
C1290 C1288 1.394 . S
C1290 C1291 1.369 . S
C1290 C1294 1.531 . S
C1291 C1290 1.369 . S
C1291 C1292 1.410 . S
C1291 C1299 1.503 1_455 S
C1292 C1291 1.410 . S
C1292 C1293 1.392 . S
C1292 C1295 1.511 . S
C1293 C1289 1.376 . S
C1293 C1292 1.392 . S
C1293 H1305 0.929 . S
C1294 C1290 1.531 . S
C1294 H1306 0.960 . S
C1294 H1307 0.962 1_455 S
C1294 H1308 0.960 . S
C1295 C1292 1.511 . S
C1295 H1309 0.961 . S
C1295 H1310 0.961 . S
C1295 H1311 0.961 . S
C1296 C1297 1.370 . S
C1296 C1298 1.363 . S
C1296 H1312 0.931 . S
C1297 C1296 1.370 . S
C1297 C1301 1.408 . S
C1298 C1296 1.363 . S
C1298 C1299 1.370 . S
C1298 C1302 1.524 . S
C1299 C1291 1.503 1_655 S
C1299 C1298 1.370 . S
C1299 C1300 1.403 1_655 S
C1300 C1299 1.403 1_455 S
C1300 C1301 1.404 1_455 S
C1300 C1303 1.539 . S
C1301 C1297 1.408 . S
C1301 C1300 1.404 1_655 S
C1301 H1313 0.930 . S
C1302 C1298 1.524 . S
C1302 H1314 0.956 . S
C1302 H1315 0.961 . S
C1302 H1316 0.961 . S
C1303 C1300 1.539 . S
C1303 H1317 0.958 . S
C1303 H1318 0.961 . S
C1303 H1319 0.960 . S
H1304 C1288 0.931 . S
H1305 C1293 0.929 . S
H1306 C1294 0.960 . S
H1307 C1294 0.962 1_655 S
H1308 C1294 0.960 . S
H1309 C1295 0.961 . S
H1310 C1295 0.961 . S
H1311 C1295 0.961 . S
H1312 C1296 0.931 . S
H1313 C1301 0.930 . S
H1314 C1302 0.956 . S
H1315 C1302 0.961 . S
H1316 C1302 0.961 . S
H1317 C1303 0.958 . S
H1318 C1303 0.961 . S
H1319 C1303 0.960 . S
C1320 C1321 1.391 . S
C1320 C1322 1.394 . S
C1320 H1336 0.931 . S
C1321 C1320 1.391 . S
C1321 C1325 1.376 . S
C1322 C1320 1.394 . S
C1322 C1323 1.369 . S
C1322 C1326 1.531 . S
C1323 C1322 1.369 . S
C1323 C1324 1.410 . S
C1323 C1331 1.503 . S
C1324 C1323 1.410 . S
C1324 C1325 1.392 . S
C1324 C1327 1.511 . S
C1325 C1321 1.376 . S
C1325 C1324 1.392 . S
C1325 H1337 0.929 . S
C1326 C1322 1.531 . S
C1326 H1338 0.960 . S
C1326 H1339 0.962 . S
C1326 H1340 0.960 . S
C1327 C1324 1.511 . S
C1327 H1341 0.961 . S
C1327 H1342 0.961 . S
C1327 H1343 0.961 . S
C1328 C1329 1.370 . S
C1328 C1330 1.363 . S
C1328 H1344 0.931 . S
C1329 C1328 1.370 . S
C1329 C1333 1.408 . S
C1330 C1328 1.363 . S
C1330 C1331 1.370 . S
C1330 C1334 1.524 . S
C1331 C1323 1.503 . S
C1331 C1330 1.370 . S
C1331 C1332 1.403 . S
C1332 C1331 1.403 . S
C1332 C1333 1.404 . S
C1332 C1335 1.539 . S
C1333 C1329 1.408 . S
C1333 C1332 1.404 . S
C1333 H1345 0.930 . S
C1334 C1330 1.524 . S
C1334 H1346 0.956 . S
C1334 H1347 0.961 . S
C1334 H1348 0.961 . S
C1335 C1332 1.539 . S
C1335 H1349 0.958 . S
C1335 H1350 0.961 . S
C1335 H1351 0.960 . S
H1336 C1320 0.931 . S
H1337 C1325 0.929 . S
H1338 C1326 0.960 . S
H1339 C1326 0.962 . S
H1340 C1326 0.960 . S
H1341 C1327 0.961 . S
H1342 C1327 0.961 . S
H1343 C1327 0.961 . S
H1344 C1328 0.931 . S
H1345 C1333 0.930 . S
H1346 C1334 0.956 . S
H1347 C1334 0.961 . S
H1348 C1334 0.961 . S
H1349 C1335 0.958 . S
H1350 C1335 0.961 . S
H1351 C1335 0.960 . S
C1352 C1353 1.391 . S
C1352 C1354 1.394 . S
C1352 H1368 0.931 . S
C1353 C1352 1.391 . S
C1353 C1357 1.376 . S
C1354 C1352 1.394 . S
C1354 C1355 1.369 . S
C1354 C1358 1.531 . S
C1355 C1354 1.369 . S
C1355 C1356 1.410 . S
C1355 C1363 1.503 . S
C1356 C1355 1.410 . S
C1356 C1357 1.392 . S
C1356 C1359 1.511 . S
C1357 C1353 1.376 . S
C1357 C1356 1.392 . S
C1357 H1369 0.929 . S
C1358 C1354 1.531 . S
C1358 H1370 0.960 . S
C1358 H1371 0.962 . S
C1358 H1372 0.960 . S
C1359 C1356 1.511 . S
C1359 H1373 0.961 . S
C1359 H1374 0.961 . S
C1359 H1375 0.961 . S
C1360 C1361 1.370 . S
C1360 C1362 1.363 . S
C1360 H1376 0.931 . S
C1361 C1360 1.370 . S
C1361 C1365 1.408 1_556 S
C1362 C1360 1.363 . S
C1362 C1363 1.370 . S
C1362 C1366 1.524 . S
C1363 C1355 1.503 . S
C1363 C1362 1.370 . S
C1363 C1364 1.403 . S
C1364 C1363 1.403 . S
C1364 C1365 1.404 1_556 S
C1364 C1367 1.539 . S
C1365 C1361 1.408 1_554 S
C1365 C1364 1.404 1_554 S
C1365 H1377 0.930 . S
C1366 C1362 1.524 . S
C1366 H1378 0.956 . S
C1366 H1379 0.961 . S
C1366 H1380 0.961 . S
C1367 C1364 1.539 . S
C1367 H1381 0.958 . S
C1367 H1382 0.961 1_556 S
C1367 H1383 0.960 . S
H1368 C1352 0.931 . S
H1369 C1357 0.929 . S
H1370 C1358 0.960 . S
H1371 C1358 0.962 . S
H1372 C1358 0.960 . S
H1373 C1359 0.961 . S
H1374 C1359 0.961 . S
H1375 C1359 0.961 . S
H1376 C1360 0.931 . S
H1377 C1365 0.930 . S
H1378 C1366 0.956 . S
H1379 C1366 0.961 . S
H1380 C1366 0.961 . S
H1381 C1367 0.958 . S
H1382 C1367 0.961 1_554 S
H1383 C1367 0.960 . S
C1384 C1385 1.391 . S
C1384 C1386 1.394 . S
C1384 H1400 0.931 . S
C1385 C1384 1.391 . S
C1385 C1389 1.376 . S
C1386 C1384 1.394 . S
C1386 C1387 1.369 . S
C1386 C1390 1.531 . S
C1387 C1386 1.369 . S
C1387 C1388 1.410 . S
C1387 C1395 1.503 . S
C1388 C1387 1.410 . S
C1388 C1389 1.392 . S
C1388 C1391 1.511 . S
C1389 C1385 1.376 . S
C1389 C1388 1.392 . S
C1389 H1401 0.929 . S
C1390 C1386 1.531 . S
C1390 H1402 0.960 . S
C1390 H1403 0.962 . S
C1390 H1404 0.960 . S
C1391 C1388 1.511 . S
C1391 H1405 0.961 . S
C1391 H1406 0.961 . S
C1391 H1407 0.961 . S
C1392 C1393 1.370 . S
C1392 C1394 1.363 . S
C1392 H1408 0.931 . S
C1393 C1392 1.370 . S
C1393 C1397 1.408 . S
C1394 C1392 1.363 . S
C1394 C1395 1.370 . S
C1394 C1398 1.524 . S
C1395 C1387 1.503 . S
C1395 C1394 1.370 . S
C1395 C1396 1.403 . S
C1396 C1395 1.403 . S
C1396 C1397 1.404 . S
C1396 C1399 1.539 . S
C1397 C1393 1.408 . S
C1397 C1396 1.404 . S
C1397 H1409 0.930 . S
C1398 C1394 1.524 . S
C1398 H1410 0.956 . S
C1398 H1411 0.961 . S
C1398 H1412 0.961 . S
C1399 C1396 1.539 . S
C1399 H1413 0.958 . S
C1399 H1414 0.961 . S
C1399 H1415 0.960 . S
H1400 C1384 0.931 . S
H1401 C1389 0.929 . S
H1402 C1390 0.960 . S
H1403 C1390 0.962 . S
H1404 C1390 0.960 . S
H1405 C1391 0.961 . S
H1406 C1391 0.961 . S
H1407 C1391 0.961 . S
H1408 C1392 0.931 . S
H1409 C1397 0.930 . S
H1410 C1398 0.956 . S
H1411 C1398 0.961 . S
H1412 C1398 0.961 . S
H1413 C1399 0.958 . S
H1414 C1399 0.961 . S
H1415 C1399 0.960 . S
C1416 C1417 1.391 . S
C1416 C1418 1.394 . S
C1416 H1432 0.931 . S
C1417 C1416 1.391 . S
C1417 C1421 1.376 . S
C1418 C1416 1.394 . S
C1418 C1419 1.369 . S
C1418 C1422 1.531 . S
C1419 C1418 1.369 . S
C1419 C1420 1.410 . S
C1419 C1427 1.503 . S
C1420 C1419 1.410 . S
C1420 C1421 1.392 . S
C1420 C1423 1.511 . S
C1421 C1417 1.376 . S
C1421 C1420 1.392 . S
C1421 H1433 0.929 . S
C1422 C1418 1.531 . S
C1422 H1434 0.960 . S
C1422 H1435 0.962 . S
C1422 H1436 0.960 . S
C1423 C1420 1.511 . S
C1423 H1437 0.961 . S
C1423 H1438 0.961 . S
C1423 H1439 0.961 . S
C1424 C1425 1.370 . S
C1424 C1426 1.363 . S
C1424 H1440 0.931 . S
C1425 C1424 1.370 . S
C1425 C1429 1.408 . S
C1426 C1424 1.363 . S
C1426 C1427 1.370 . S
C1426 C1430 1.524 . S
C1427 C1419 1.503 . S
C1427 C1426 1.370 . S
C1427 C1428 1.403 . S
C1428 C1427 1.403 . S
C1428 C1429 1.404 . S
C1428 C1431 1.539 . S
C1429 C1425 1.408 . S
C1429 C1428 1.404 . S
C1429 H1441 0.930 . S
C1430 C1426 1.524 . S
C1430 H1442 0.956 . S
C1430 H1443 0.961 . S
C1430 H1444 0.961 . S
C1431 C1428 1.539 . S
C1431 H1445 0.958 . S
C1431 H1446 0.961 . S
C1431 H1447 0.960 . S
H1432 C1416 0.931 . S
H1433 C1421 0.929 . S
H1434 C1422 0.960 . S
H1435 C1422 0.962 . S
H1436 C1422 0.960 . S
H1437 C1423 0.961 . S
H1438 C1423 0.961 . S
H1439 C1423 0.961 . S
H1440 C1424 0.931 . S
H1441 C1429 0.930 . S
H1442 C1430 0.956 . S
H1443 C1430 0.961 . S
H1444 C1430 0.961 . S
H1445 C1431 0.958 . S
H1446 C1431 0.961 . S
H1447 C1431 0.960 . S
C1448 C1449 1.391 . S
C1448 C1450 1.394 . S
C1448 H1464 0.931 . S
C1449 C1448 1.391 . S
C1449 C1453 1.376 . S
C1450 C1448 1.394 . S
C1450 C1451 1.369 . S
C1450 C1454 1.531 . S
C1451 C1450 1.369 . S
C1451 C1452 1.410 . S
C1451 C1459 1.503 . S
C1452 C1451 1.410 . S
C1452 C1453 1.392 . S
C1452 C1455 1.511 . S
C1453 C1449 1.376 . S
C1453 C1452 1.392 . S
C1453 H1465 0.929 . S
C1454 C1450 1.531 . S
C1454 H1466 0.960 . S
C1454 H1467 0.962 . S
C1454 H1468 0.960 . S
C1455 C1452 1.511 . S
C1455 H1469 0.961 . S
C1455 H1470 0.961 . S
C1455 H1471 0.961 . S
C1456 C1457 1.370 . S
C1456 C1458 1.363 . S
C1456 H1472 0.931 . S
C1457 C1456 1.370 . S
C1457 C1461 1.408 . S
C1458 C1456 1.363 . S
C1458 C1459 1.370 . S
C1458 C1462 1.524 . S
C1459 C1451 1.503 . S
C1459 C1458 1.370 . S
C1459 C1460 1.403 . S
C1460 C1459 1.403 . S
C1460 C1461 1.404 . S
C1460 C1463 1.539 . S
C1461 C1457 1.408 . S
C1461 C1460 1.404 . S
C1461 H1473 0.930 . S
C1462 C1458 1.524 . S
C1462 H1474 0.956 . S
C1462 H1475 0.961 . S
C1462 H1476 0.961 . S
C1463 C1460 1.539 . S
C1463 H1477 0.958 . S
C1463 H1478 0.961 . S
C1463 H1479 0.960 . S
H1464 C1448 0.931 . S
H1465 C1453 0.929 . S
H1466 C1454 0.960 . S
H1467 C1454 0.962 . S
H1468 C1454 0.960 . S
H1469 C1455 0.961 . S
H1470 C1455 0.961 . S
H1471 C1455 0.961 . S
H1472 C1456 0.931 . S
H1473 C1461 0.930 . S
H1474 C1462 0.956 . S
H1475 C1462 0.961 . S
H1476 C1462 0.961 . S
H1477 C1463 0.958 . S
H1478 C1463 0.961 . S
H1479 C1463 0.960 . S
C1480 C1481 1.391 . S
C1480 C1482 1.394 . S
C1480 H1496 0.931 . S
C1481 C1480 1.391 . S
C1481 C1485 1.376 . S
C1482 C1480 1.394 . S
C1482 C1483 1.369 . S
C1482 C1486 1.531 . S
C1483 C1482 1.369 . S
C1483 C1484 1.410 . S
C1483 C1491 1.503 . S
C1484 C1483 1.410 . S
C1484 C1485 1.392 . S
C1484 C1487 1.511 . S
C1485 C1481 1.376 . S
C1485 C1484 1.392 . S
C1485 H1497 0.929 . S
C1486 C1482 1.531 . S
C1486 H1498 0.960 . S
C1486 H1499 0.962 . S
C1486 H1500 0.960 . S
C1487 C1484 1.511 . S
C1487 H1501 0.961 . S
C1487 H1502 0.961 . S
C1487 H1503 0.961 . S
C1488 C1489 1.370 . S
C1488 C1490 1.363 . S
C1488 H1504 0.931 . S
C1489 C1488 1.370 . S
C1489 C1493 1.408 . S
C1490 C1488 1.363 . S
C1490 C1491 1.370 . S
C1490 C1494 1.524 . S
C1491 C1483 1.503 . S
C1491 C1490 1.370 . S
C1491 C1492 1.403 . S
C1492 C1491 1.403 . S
C1492 C1493 1.404 . S
C1492 C1495 1.539 . S
C1493 C1489 1.408 . S
C1493 C1492 1.404 . S
C1493 H1505 0.930 . S
C1494 C1490 1.524 . S
C1494 H1506 0.956 . S
C1494 H1507 0.961 . S
C1494 H1508 0.961 . S
C1495 C1492 1.539 . S
C1495 H1509 0.958 . S
C1495 H1510 0.961 . S
C1495 H1511 0.960 . S
H1496 C1480 0.931 . S
H1497 C1485 0.929 . S
H1498 C1486 0.960 . S
H1499 C1486 0.962 . S
H1500 C1486 0.960 . S
H1501 C1487 0.961 . S
H1502 C1487 0.961 . S
H1503 C1487 0.961 . S
H1504 C1488 0.931 . S
H1505 C1493 0.930 . S
H1506 C1494 0.956 . S
H1507 C1494 0.961 . S
H1508 C1494 0.961 . S
H1509 C1495 0.958 . S
H1510 C1495 0.961 . S
H1511 C1495 0.960 . S
C361 C10 0.702 . S
C369 C250 0.750 . S
C393 C40 1.089 . S
C401 C271 1.049 . S
C425 C70 0.699 . S
C433 C310 0.753 . S
C457 C331 1.114 . S
C465 C100 1.050 . S
C489 C130 0.694 . S
C497 C190 0.752 . S
C521 C211 1.102 . S
C529 C160 1.050 . S
C553 C316 2.133 . S
C561 C16 2.166 . S
C585 N344 1.504 . S
C593 C46 1.636 . S
C617 C76 2.154 . S
C625 C196 2.145 . S
C649 N224 1.509 . S
C657 C106 1.638 . S
C681 C256 2.130 . S
C689 C136 2.165 . S
C713 C166 1.653 . S
C721 N284 1.560 . S
C745 C237 0.713 . S
C753 N6 0.762 . S
C777 N246 0.484 . S
C785 N36 0.606 . S
C809 C297 0.741 . S
C817 N66 0.755 . S
C841 N96 0.662 . S
C849 N306 0.553 . S
C873 N126 0.799 . S
C881 C357 0.702 . S
C905 N156 0.694 . S
C913 N186 0.573 . S
C937 C1 0.582 . S
C945 C91 0.672 . S
C969 C31 0.600 . S
C977 C121 0.657 . S
C1001 C61 0.672 . S
C1009 C151 0.631 . S
C1033 C280 0.530 . S
C1041 C181 0.509 . S
C1065 C220 0.529 . S
C1073 C301 0.507 . S
C1097 C340 0.529 . S
C1105 C241 0.514 . S
C1129 N216 2.036 . S
C1137 C27 2.011 . S
C1161 C267 2.174 1_556 S
C1169 C57 2.175 . S
C1193 C87 1.989 . S
C1201 N276 2.035 . S
C1225 C327 2.129 . S
C1233 C117 2.160 . S
C1257 N336 2.045 . S
C1265 C147 2.019 . S
C1289 C177 2.161 . S
C1297 C207 2.152 . S
C1321 N14 0.619 . S
C1329 N314 0.604 . S
C1353 N44 1.149 . S
C1361 C346 1.123 1_556 S
C1385 N74 0.600 . S
C1393 N194 0.608 . S
C1417 N104 1.150 . S
C1425 C226 1.124 . S
C1449 N134 0.611 . S
C1457 N254 0.606 . S
C1481 C286 1.136 . S
C1489 N164 1.147 . S
