# Generated by pormake.
# Topology snp, (6)-cn, num edge types: 1
# Building blocks:
#     Node 0, Type 0, BuildingBlock: BETFEN_clean_sbu_0, # of connection points: 6
#     Node 1, Type 0, BuildingBlock: BETFEN_clean_sbu_0, # of connection points: 6
#     Node 2, Type 0, BuildingBlock: BETFEN_clean_sbu_0, # of connection points: 6
#     Node 3, Type 0, BuildingBlock: BETFEN_clean_sbu_0, # of connection points: 6
#     Edge 4, Type (0, 0), BuildingBlock: EZIPEK_clean_linker_0, # of connection points: 2
#     Edge 5, Type (0, 0), BuildingBlock: EZIPEK_clean_linker_0, # of connection points: 2
#     Edge 6, Type (0, 0), BuildingBlock: EZIPEK_clean_linker_0, # of connection points: 2
#     Edge 7, Type (0, 0), BuildingBlock: EZIPEK_clean_linker_0, # of connection points: 2
#     Edge 8, Type (0, 0), BuildingBlock: EZIPEK_clean_linker_0, # of connection points: 2
#     Edge 9, Type (0, 0), BuildingBlock: EZIPEK_clean_linker_0, # of connection points: 2
#     Edge 10, Type (0, 0), BuildingBlock: EZIPEK_clean_linker_0, # of connection points: 2
#     Edge 11, Type (0, 0), BuildingBlock: EZIPEK_clean_linker_0, # of connection points: 2
#     Edge 12, Type (0, 0), BuildingBlock: EZIPEK_clean_linker_0, # of connection points: 2
#     Edge 13, Type (0, 0), BuildingBlock: EZIPEK_clean_linker_0, # of connection points: 2
#     Edge 14, Type (0, 0), BuildingBlock: EZIPEK_clean_linker_0, # of connection points: 2
#     Edge 15, Type (0, 0), BuildingBlock: EZIPEK_clean_linker_0, # of connection points: 2
# Relax obj value: 0.281
# Max RMSD: 0.245
# Mean RMSD: 0.245
data_MOF--net-snp--node1-BETFEN_clean_sbu_0--edge1-EZIPEK_clean_linker_0
_symmetry_space_group_name_H-M    P1
_symmetry_Int_Tables_number       1
_symmetry_cell_setting            triclinic
loop_
_symmetry_equiv_pos_as_xyz
'x, y, z'
_cell_length_a     18.966693
_cell_length_b     18.998646
_cell_length_c     28.863284
_cell_angle_alpha  81.159642
_cell_angle_beta   81.622931
_cell_angle_gamma 91.192694
loop_
_atom_site_label
_atom_site_type_symbol
_atom_site_fract_x
_atom_site_fract_y
_atom_site_fract_z
_atom_type_partial_charge
Pr0 Pr 0.25371 0.07079 0.25191 0.0
Pr1 Pr 0.27415 0.92966 0.21095 0.0
C2 C 0.21025 0.17629 0.30018 0.0
C3 C 0.19298 0.18667 0.35002 0.0
C4 C 0.22689 0.24345 0.36524 0.0
C5 C 0.21237 0.25405 0.41242 0.0
C6 C 0.1631 0.2084 0.44494 0.0
C7 C 0.1293 0.15131 0.42994 0.0
C8 C 0.14438 0.14023 0.38282 0.0
C9 C 0.39538 0.03769 0.23117 0.0
C10 C 0.2304 0.91198 0.32536 0.0
C11 C 0.31665 0.83131 0.15553 0.0
C12 C 0.30648 0.82038 0.10716 0.0
C13 C 0.28379 0.87582 0.07524 0.0
C14 C 0.27091 0.86418 1.03035 0.0
C15 C 0.28119 0.79704 1.01631 0.0
C16 C 0.30481 0.74189 0.04799 0.0
C17 C 0.31706 0.75342 0.09308 0.0
C18 C 0.13456 0.97583 0.21945 0.0
C19 C 0.27545 0.0863 0.13628 0.0
O20 O 0.16624 0.13531 0.28409 0.0
O21 O 0.27737 0.16731 0.28512 0.0
O22 O 0.34514 -0.00756 0.24995 0.0
O23 O 0.37183 0.10152 0.2247 0.0
O24 O 0.2605 0.87835 0.29122 0.0
O25 O 0.21936 -0.01893 0.31751 0.0
O26 O 0.35669 0.88684 0.15859 0.0
O27 O 0.25957 0.82219 0.1876 0.0
O28 O 0.1906 0.0138 0.20659 0.0
O29 O 0.14956 0.90915 0.22825 0.0
O30 O 0.2545 0.11983 0.1724 0.0
O31 O 0.29232 0.01861 0.14295 0.0
H32 H 0.26473 0.27959 0.34057 0.0
H33 H 0.2389 0.29827 0.42352 0.0
H34 H 0.09117 0.11557 0.4547 0.0
H35 H 0.11804 0.09551 0.37215 0.0
H36 H 0.2754 0.92801 0.08508 0.0
H37 H 0.25279 0.90753 1.00658 0.0
H38 H 0.31314 0.68974 1.0379 0.0
H39 H 0.33436 0.70988 0.11709 0.0
Pr40 Pr 0.922 0.26852 0.71234 0.0
Pr41 Pr 0.06445 0.23035 0.75565 0.0
C42 C 0.82929 0.32204 0.65549 0.0
C43 C 0.81772 0.31168 0.60698 0.0
C44 C 0.75444 0.27695 0.60056 0.0
C45 C 0.74416 0.26318 0.55561 0.0
C46 C 0.79672 0.28431 0.51604 0.0
C47 C 0.85983 0.31942 0.5221 0.0
C48 C 0.87041 0.33277 0.56713 0.0
C49 C 0.95198 0.12468 0.72361 0.0
C50 C 0.07479 0.25147 0.63883 0.0
C51 C 0.16386 0.16816 0.80406 0.0
C52 C 0.18463 0.16151 0.85207 0.0
C53 C 0.24188 0.20403 0.86018 0.0
C54 C 0.2617 0.19854 0.90537 0.0
C55 C 0.22519 0.14981 0.94307 0.0
C56 C 0.16864 0.10666 0.93509 0.0
C57 C 0.14856 0.11232 0.88999 0.0
C58 C 0.04535 0.37433 0.7322 0.0
C59 C 0.90694 0.23353 0.82772 0.0
O60 O 0.88781 0.35732 0.65947 0.0
O61 O 0.81305 0.26689 0.68901 0.0
O62 O -0.00365 0.17626 0.71124 0.0
O63 O 0.88762 0.14703 0.73095 0.0
O64 O 0.10721 0.22694 0.67538 0.0
O65 O 0.00924 0.27454 0.64479 0.0
O66 O 0.10458 0.13477 0.79962 0.0
O67 O 0.17406 0.23105 0.7776 0.0
O68 O -0.00372 0.3278 0.74985 0.0
O69 O 0.10759 0.34881 0.73561 0.0
O70 O 0.87667 0.26671 0.79241 0.0
O71 O 0.97299 0.21157 0.82166 0.0
H72 H 0.71307 0.2598 0.63049 0.0
H73 H 0.69503 0.2362 0.55164 0.0
H74 H 0.90101 0.33618 0.492 0.0
H75 H 0.92005 0.35913 0.57069 0.0
H76 H 0.2712 0.24184 0.8316 0.0
H77 H 0.30532 0.23238 0.91101 0.0
H78 H 0.1398 0.06886 0.96391 0.0
H79 H 0.10464 0.07833 0.88499 0.0
Pr80 Pr 0.75545 0.09884 0.13562 0.0
Pr81 Pr 0.79343 0.96231 0.09196 0.0
C82 C 0.70365 0.19132 0.19272 0.0
C83 C 0.71804 0.20647 0.23963 0.0
C84 C 0.78729 0.22571 0.24691 0.0
C85 C 0.80053 0.23729 0.29173 0.0
C86 C 0.74493 0.22998 0.3302 0.0
C87 C 0.67578 0.21089 0.32312 0.0
C88 C 0.66249 0.19924 0.27827 0.0
C89 C 0.8998 0.06999 0.12676 0.0
C90 C 0.7671 0.94326 0.2075 0.0
C91 C 0.85263 0.86371 0.04287 0.0
C92 C 0.85583 0.84567 0.99487 0.0
C93 C 0.79386 0.84132 0.97374 0.0
C94 C 0.79834 0.82493 0.92788 0.0
C95 C 0.86487 0.81384 0.90241 0.0
C96 C 0.92668 0.81808 0.92346 0.0
C97 C 0.92214 0.83372 0.96945 0.0
C98 C 0.64734 -0.01588 0.10856 0.0
C99 C 0.79421 0.12051 1.02066 0.0
O100 O 0.67153 0.12975 0.19249 0.0
O101 O 0.75428 0.20902 0.15647 0.0
O102 O 0.84865 0.02508 0.13857 0.0
O103 O 0.87684 0.13401 0.11994 0.0
O104 O 0.79784 0.91527 0.17096 0.0
O105 O 0.73932 0.00674 0.20173 0.0
O106 O 0.88698 0.92275 0.04631 0.0
O107 O 0.79094 0.85325 0.07047 0.0
O108 O 0.69589 0.03193 0.09264 0.0
O109 O 0.67473 0.92189 0.11342 0.0
O110 O 0.75873 0.14855 0.05584 0.0
O111 O 0.81707 0.05495 1.02673 0.0
H112 H 0.8315 0.23147 0.21807 0.0
H113 H 0.85421 0.25208 0.29641 0.0
H114 H 0.63212 0.2051 0.35234 0.0
H115 H 0.60876 0.18422 0.27379 0.0
H116 H 0.74208 0.85085 0.99251 0.0
H117 H 0.75025 0.8217 0.91202 0.0
H118 H 0.9784 0.80948 0.90417 0.0
H119 H 0.97047 0.83693 0.98509 0.0
Pr120 Pr 0.94565 0.77697 0.59462 0.0
Pr121 Pr 0.09308 0.7593 0.63491 0.0
C122 C 0.8412 0.82974 0.54744 0.0
C123 C 0.8259 0.84262 0.49808 0.0
C124 C 0.77701 0.797 0.48355 0.0
C125 C 0.76329 0.80755 0.43676 0.0
C126 C 0.79752 0.86447 0.40395 0.0
C127 C 0.84547 0.91086 0.41843 0.0
C128 C 0.85956 0.90012 0.4651 0.0
C129 C -0.02032 0.63794 0.61979 0.0
C130 C 0.1032 0.79351 0.51908 0.0
C131 C 0.19161 0.71388 0.6902 0.0
C132 C 0.2025 0.72141 0.73907 0.0
C133 C 0.14895 0.748 0.76995 0.0
C134 C 0.16113 0.75973 0.81493 0.0
C135 C 0.22678 0.74388 0.83035 0.0
C136 C 0.27977 0.7156 0.79992 0.0
C137 C 0.26787 0.7049 0.75457 0.0
C138 C 0.04541 0.8979 0.62395 0.0
C139 C 0.93784 0.76182 0.71061 0.0
O140 O 0.89182 0.86984 0.55792 0.0
O141 O 0.84078 0.76311 0.56779 0.0
O142 O 0.02452 0.68827 0.60079 0.0
O143 O 0.91473 0.65621 0.61658 0.0
O144 O 0.14027 0.77307 0.55398 0.0
O145 O 0.03291 0.79778 0.52672 0.0
O146 O 0.13633 0.67402 0.68604 0.0
O147 O 0.2004 0.77249 0.65912 0.0
O148 O 0.00796 0.8413 0.6372 0.0
O149 O 0.11237 0.88353 0.61488 0.0
O150 O 0.90083 0.77487 0.67497 0.0
O151 O 0.00714 0.75162 0.70357 0.0
H152 H 0.74984 0.7527 0.50828 0.0
H153 H 0.72639 0.77114 0.42601 0.0
H154 H 0.87255 0.95492 0.3934 0.0
H155 H 0.89719 0.93657 0.47511 0.0
H156 H 0.09788 0.76056 0.75921 0.0
H157 H 0.11937 0.78141 0.83771 0.0
H158 H 0.33073 0.7028 0.81107 0.0
H159 H 0.30997 0.68438 0.73143 0.0
C160 C 0.02116 0.02508 0.12329 0.0
C161 C 0.96379 0.05569 0.14872 0.0
C162 C 0.01946 0.03596 0.22064 0.0
C163 C 0.07244 -0.00247 0.19683 0.0
N164 N 0.12293 0.95095 0.12621 0.0
N165 N 0.90172 0.08234 0.22308 0.0
C166 C 0.07301 -0.00943 0.14831 0.0
C167 C 0.96126 0.05961 0.19775 0.0
N168 N 0.02676 0.03086 0.07505 0.0
N169 N 0.02538 0.05103 0.26475 0.0
H170 H 0.85813 0.10187 0.20779 0.0
H171 H 0.89317 0.07701 0.25995 0.0
H172 H 0.06651 0.03297 0.28317 0.0
H173 H -0.00722 0.08592 0.28154 0.0
H174 H 0.07129 0.01649 0.0535 0.0
H175 H -0.01063 0.05657 0.05597 0.0
H176 H 0.12139 0.93774 0.09268 0.0
H177 H 0.16371 0.92677 0.14244 0.0
C178 C -0.01436 0.013 0.62645 0.0
C179 C 0.02479 0.95836 0.64839 0.0
C180 C 0.00207 0.00581 0.72349 0.0
C181 C 0.96626 0.06211 0.70048 0.0
N182 N 0.92529 0.12204 0.62926 0.0
N183 N 0.07726 0.90555 0.7166 0.0
C184 C 0.95805 0.0662 0.65197 0.0
C185 C 0.03499 0.95547 0.69668 0.0
N186 N 0.9749 0.01689 0.58053 0.0
N187 N 0.0029 -6e-05 0.77126 0.0
H188 H 0.10107 0.86632 0.69901 0.0
H189 H 0.09318 0.9054 0.7496 0.0
H190 H 0.97887 0.03637 0.79156 0.0
H191 H 0.02136 0.95626 0.79174 0.0
H192 H -0.00556 -0.0191 0.55845 0.0
H193 H -0.00556 -0.0191 0.55845 0.0
H194 H 0.91977 0.12693 0.59345 0.0
H195 H 0.90414 0.16375 0.64558 0.0
C196 C 0.53215 0.93908 0.16068 0.0
C197 C 0.57581 -0.00273 0.13387 0.0
C198 C 0.51035 0.07916 0.17935 0.0
C199 C 0.46598 0.02143 0.20599 0.0
N200 N 0.45456 0.89497 0.23409 0.0
N201 N 0.58312 0.12331 0.10441 0.0
C202 C 0.48238 0.9507 0.20022 0.0
C203 C 0.55804 0.06768 0.13915 0.0
N204 N 0.53401 0.87403 0.14605 0.0
N205 N 0.51073 0.14387 0.19444 0.0
H206 H 0.61077 0.11553 0.07175 0.0
H207 H 0.56733 0.17539 0.10518 0.0
H208 H 0.48503 0.15107 0.22778 0.0
H209 H 0.54471 0.18684 0.17743 0.0
H210 H 0.49937 0.8311 0.16216 0.0
H211 H 0.56258 0.86633 0.11364 0.0
H212 H 0.46935 0.84259 0.23341 0.0
H213 H 0.42491 0.90239 0.26619 0.0
C214 C 0.97504 0.48339 0.72226 0.0
C215 C 0.03325 0.44463 0.70476 0.0
C216 C 0.05722 0.53366 0.63211 0.0
C217 C -0.00255 0.57119 0.64903 0.0
N218 N 0.89238 0.57541 0.708 0.0
N219 N 0.13928 0.44067 0.64663 0.0
C220 C 0.95416 0.54411 0.69322 0.0
C221 C 0.07752 0.47227 0.66108 0.0
N222 N 0.94389 0.46638 0.7687 0.0
N223 N 0.09009 0.55189 0.58613 0.0
H224 H 0.15156 0.38913 0.65962 0.0
H225 H 0.17993 0.46668 0.6212 0.0
H226 H 0.07441 0.59329 0.56225 0.0
H227 H 0.12797 0.52138 0.56955 0.0
H228 H 0.90693 0.49761 0.78546 0.0
H229 H 0.96094 0.42576 0.79255 0.0
H230 H 0.85227 0.54933 0.73384 0.0
H231 H 0.88017 0.62709 0.69525 0.0
C232 C 0.09625 0.29731 0.55141 0.0
C233 C 0.10612 0.24323 0.58963 0.0
C234 C 0.16506 0.17229 0.53212 0.0
C235 C 0.14553 0.22148 0.49459 0.0
N236 N 0.07983 0.32416 0.46916 0.0
N237 N 0.13503 0.12021 0.61431 0.0
C238 C 0.10774 0.28231 0.50435 0.0
C239 C 0.13706 0.17833 0.57965 0.0
N240 N 0.07711 0.36366 0.55975 0.0
N241 N 0.2107 0.11991 0.52248 0.0
H242 H 0.11054 0.11867 0.64909 0.0
H243 H 0.1503 0.0701 0.60723 0.0
H244 H 0.23237 0.11383 0.48804 0.0
H245 H 0.23238 0.08716 0.54873 0.0
H246 H 0.07645 0.40684 0.53279 0.0
H247 H 0.0686 0.37751 0.59352 0.0
H248 H 0.04492 0.36438 0.47559 0.0
H249 H 0.08577 0.31435 0.43426 0.0
C250 C 0.81 0.16326 0.88699 0.0
C251 C 0.86575 0.21707 0.87645 0.0
C252 C 0.86557 0.21701 0.96169 0.0
C253 C 0.81053 0.16259 0.97214 0.0
N254 N 0.71843 0.09653 0.94605 0.0
N255 N 0.93473 0.30694 0.90253 0.0
C256 C 0.77881 0.14001 0.93506 0.0
C257 C 0.88954 0.24782 0.91355 0.0
N258 N 0.78984 0.13121 0.85142 0.0
N259 N 0.89771 0.2364 0.99751 0.0
H260 H 0.95282 0.33057 0.8676 0.0
H261 H 0.9491 0.33625 0.92762 0.0
H262 H 0.88021 0.21674 1.03317 0.0
H263 H 0.94406 0.26882 0.99191 0.0
H264 H 0.75648 0.08549 0.85734 0.0
H265 H 0.80996 0.14768 0.81576 0.0
H266 H 0.68851 0.08325 0.92088 0.0
H267 H 0.69444 0.07907 0.98097 0.0
C268 C 0.72062 0.89929 0.34065 0.0
C269 C 0.78597 0.87418 0.35366 0.0
C270 C 0.83865 0.88681 0.2701 0.0
C271 C 0.77208 0.90923 0.25677 0.0
N272 N 0.64519 0.91651 0.27929 0.0
N273 N 0.89957 0.8247 0.33139 0.0
C274 C 0.71154 0.90889 0.29213 0.0
C275 C 0.84238 0.86139 0.3185 0.0
N276 N 0.66846 0.91712 0.37421 0.0
N277 N 0.89969 0.8943 0.23775 0.0
H278 H 0.90411 0.80531 0.36663 0.0
H279 H 0.93874 0.80727 0.30703 0.0
H280 H 0.90205 0.91478 0.20206 0.0
H281 H 0.9502 0.88647 0.24726 0.0
H282 H 0.62312 0.94324 0.36587 0.0
H283 H 0.67318 0.91119 0.41013 0.0
H284 H 0.5984 0.9106 0.30368 0.0
H285 H 0.63645 0.92104 0.24409 0.0
C286 C 0.20049 0.71898 0.92005 0.0
C287 C 0.24031 0.75793 0.87808 0.0
C288 C 0.31077 0.81835 0.92677 0.0
C289 C 0.26666 0.78423 0.96856 0.0
N290 N 0.1599 0.71351 1.00421 0.0
N291 N 0.32306 0.85587 0.84173 0.0
C292 C 0.2087 0.73777 0.96497 0.0
C293 C 0.29261 0.81082 0.88151 0.0
N294 N 0.15667 0.66225 0.91724 0.0
N295 N 0.37145 0.85607 0.93017 0.0
H296 H 0.31023 0.85316 0.80811 0.0
H297 H 0.35575 0.9002 0.84271 0.0
H298 H 0.38706 0.8623 0.96255 0.0
H299 H 0.40961 0.87564 0.90103 0.0
H300 H 0.13206 0.62737 0.94687 0.0
H301 H 0.15009 0.64591 0.8852 0.0
H302 H 0.11242 0.68592 1.0028 0.0
H303 H 0.16343 0.72681 1.03756 0.0
C304 C 0.88915 0.72844 0.84511 0.0
C305 C 0.87081 0.7976 0.85344 0.0
C306 C 0.87739 0.83762 0.76793 0.0
C307 C 0.90594 0.77099 0.75936 0.0
N308 N 0.94709 0.6559 0.79058 0.0
N309 N 0.85155 0.92026 0.82394 0.0
C310 C 0.91366 0.71705 0.79818 0.0
C311 C 0.86479 0.85255 0.81521 0.0
N312 N 0.88214 0.67328 0.88221 0.0
N313 N 0.86467 0.88796 0.73115 0.0
H314 H 0.84247 0.93354 0.85796 0.0
H315 H 0.85422 0.96474 0.79765 0.0
H316 H 0.88092 0.88508 0.69558 0.0
H317 H 0.83466 0.9323 0.73574 0.0
H318 H 0.8874 0.62011 0.8779 0.0
H319 H 0.86402 0.67988 0.91713 0.0
H320 H 0.96248 0.61937 0.81764 0.0
H321 H 0.96456 0.64377 0.75702 0.0
C322 C 0.13087 0.89276 0.39312 0.0
C323 C 0.19839 0.87221 0.37305 0.0
C324 C 0.20067 0.78857 0.44723 0.0
C325 C 0.14002 0.82053 0.46948 0.0
N326 N 0.06627 0.92346 0.46422 0.0
N327 N 0.30318 0.80542 0.38466 0.0
C328 C 0.11051 0.87855 0.44261 0.0
C329 C 0.23512 0.82115 0.40101 0.0
N330 N 0.08491 0.92441 0.36493 0.0
N331 N 0.22385 0.72619 0.46883 0.0
H332 H 0.33036 0.82888 0.35172 0.0
H333 H 0.33448 0.77381 0.40559 0.0
H334 H 0.19817 0.69894 0.50118 0.0
H335 H 0.26385 0.69788 0.45219 0.0
H336 H 0.03325 0.93641 0.37846 0.0
H337 H 0.09519 0.92914 0.32808 0.0
H338 H 0.0475 0.96888 0.44548 0.0
H339 H 0.05734 0.9212 0.50086 0.0
C340 C 0.30735 0.11247 1.00283 0.0
C341 C 0.24414 0.14515 0.9916 0.0
C342 C 0.20398 0.14939 0.07562 0.0
C343 C 0.26871 0.11882 0.08692 0.0
N344 N 0.38977 0.09135 0.05973 0.0
N345 N 0.14299 0.21323 1.0149 0.0
C346 C 0.323 0.10707 0.04988 0.0
C347 C 0.1962 0.17 1.02727 0.0
N348 N 0.35066 0.08341 0.96931 0.0
N349 N 0.14751 0.15395 0.11021 0.0
H350 H 0.13562 0.22913 0.97975 0.0
H351 H 0.11097 0.23906 0.03895 0.0
H352 H 0.14757 0.13727 0.14617 0.0
H353 H 0.09712 0.16832 0.10287 0.0
H354 H 0.39287 0.05169 0.97712 0.0
H355 H 0.34097 0.08604 0.93445 0.0
H356 H 0.43316 0.08806 1.03361 0.0
H357 H 0.4034 0.08922 0.09368 0.0
C358 C 0.73866 0.30911 0.39318 0.0
C359 C 0.75892 0.24394 0.37775 0.0
C360 C 0.8103 0.20827 0.45101 0.0
C361 C 0.78479 0.27079 0.46802 0.0
N362 N 0.71784 0.37712 0.45818 0.0
N363 N 0.80592 0.12727 0.39385 0.0
C364 C 0.74695 0.32015 0.43988 0.0
C365 C 0.79278 0.19239 0.40715 0.0
N366 N 0.71385 0.36159 0.36246 0.0
N367 N 0.85216 0.16461 0.47652 0.0
H368 H 0.79429 0.11396 0.36196 0.0
H369 H 0.82331 0.08448 0.41576 0.0
H370 H 0.86407 0.17325 0.50941 0.0
H371 H 0.87922 0.12271 0.46381 0.0
H372 H 0.70567 0.41319 0.36943 0.0
H373 H 0.70669 0.35546 0.32813 0.0
H374 H 0.68234 0.41017 0.44204 0.0
H375 H 0.72531 0.38881 0.49132 0.0
loop_
_geom_bond_atom_site_label_1
_geom_bond_atom_site_label_2
_geom_bond_distance
_geom_bond_site_symmetry_2
_ccdc_geom_bond_type
Pr0 C2 2.880 . S
Pr0 O20 2.562 . S
Pr0 O21 2.490 . S
Pr0 O22 2.695 . S
Pr0 O23 2.512 . S
Pr0 O25 2.437 . S
Pr0 O28 2.436 . S
Pr0 O30 2.438 . S
Pr1 C11 2.880 . S
Pr1 O22 2.436 1_565 S
Pr1 O24 2.438 . S
Pr1 O26 2.562 . S
Pr1 O27 2.490 . S
Pr1 O28 2.695 1_565 S
Pr1 O29 2.512 . S
Pr1 O31 2.437 1_565 S
C2 Pr0 2.880 . S
C2 C3 1.491 . S
C2 O20 1.254 . S
C2 O21 1.225 . S
C3 C2 1.491 . S
C3 C4 1.392 . S
C3 C8 1.356 . S
C4 C3 1.392 . S
C4 C5 1.368 . S
C4 H32 0.929 . S
C5 C4 1.368 . S
C5 C6 1.386 . S
C5 H33 0.929 . S
C6 C5 1.386 . S
C6 C7 1.373 . S
C7 C6 1.373 . S
C7 C8 1.409 . S
C7 H34 0.931 . S
C8 C3 1.356 . S
C8 C7 1.409 . S
C8 H35 0.930 . S
C9 O22 1.270 . S
C9 O23 1.248 . S
C10 O24 1.267 . S
C10 O25 1.278 1_565 S
C11 Pr1 2.880 . S
C11 C12 1.491 . S
C11 O26 1.254 . S
C11 O27 1.225 . S
C12 C11 1.491 . S
C12 C13 1.392 . S
C12 C17 1.356 . S
C13 C12 1.392 . S
C13 C14 1.368 1_554 S
C13 H36 0.929 . S
C14 C13 1.368 1_556 S
C14 C15 1.386 . S
C14 H37 0.929 . S
C15 C14 1.386 . S
C15 C16 1.373 . S
C16 C15 1.373 . S
C16 C17 1.409 1_556 S
C16 H38 0.931 . S
C17 C12 1.356 . S
C17 C16 1.409 1_554 S
C17 H39 0.930 . S
C18 O28 1.270 . S
C18 O29 1.248 1_545 S
C19 O30 1.267 . S
C19 O31 1.278 . S
O20 Pr0 2.562 . S
O20 C2 1.254 . S
O21 Pr0 2.490 . S
O21 C2 1.225 . S
O22 Pr0 2.695 . S
O22 Pr1 2.436 1_545 S
O22 C9 1.270 . S
O23 Pr0 2.512 . S
O23 C9 1.248 . S
O24 Pr1 2.438 . S
O24 C10 1.267 . S
O25 Pr0 2.437 . S
O25 C10 1.278 1_545 S
O26 Pr1 2.562 . S
O26 C11 1.254 . S
O27 Pr1 2.490 . S
O27 C11 1.225 . S
O28 Pr0 2.436 . S
O28 Pr1 2.695 1_545 S
O28 C18 1.270 . S
O29 Pr1 2.512 . S
O29 C18 1.248 1_565 S
O30 Pr0 2.438 . S
O30 C19 1.267 . S
O31 Pr1 2.437 1_545 S
O31 C19 1.278 . S
H32 C4 0.929 . S
H33 C5 0.929 . S
H34 C7 0.931 . S
H35 C8 0.930 . S
H36 C13 0.929 . S
H37 C14 0.929 . S
H38 C16 0.931 . S
H39 C17 0.930 . S
Pr40 C42 2.880 . S
Pr40 O60 2.562 . S
Pr40 O61 2.490 . S
Pr40 O62 2.695 1_655 S
Pr40 O63 2.512 . S
Pr40 O65 2.437 1_655 S
Pr40 O68 2.436 1_655 S
Pr40 O70 2.438 . S
Pr41 C51 2.880 . S
Pr41 O62 2.436 . S
Pr41 O64 2.438 . S
Pr41 O66 2.562 . S
Pr41 O67 2.490 . S
Pr41 O68 2.695 . S
Pr41 O69 2.512 . S
Pr41 O71 2.437 . S
C42 Pr40 2.880 . S
C42 C43 1.491 . S
C42 O60 1.254 . S
C42 O61 1.225 . S
C43 C42 1.491 . S
C43 C44 1.392 . S
C43 C48 1.356 . S
C44 C43 1.392 . S
C44 C45 1.368 . S
C44 H72 0.929 . S
C45 C44 1.368 . S
C45 C46 1.386 . S
C45 H73 0.929 . S
C46 C45 1.386 . S
C46 C47 1.373 . S
C47 C46 1.373 . S
C47 C48 1.409 . S
C47 H74 0.931 . S
C48 C43 1.356 . S
C48 C47 1.409 . S
C48 H75 0.930 . S
C49 O62 1.270 . S
C49 O63 1.248 1_455 S
C50 O64 1.267 . S
C50 O65 1.278 . S
C51 Pr41 2.880 . S
C51 C52 1.491 . S
C51 O66 1.254 . S
C51 O67 1.225 . S
C52 C51 1.491 . S
C52 C53 1.392 . S
C52 C57 1.356 . S
C53 C52 1.392 . S
C53 C54 1.368 . S
C53 H76 0.929 . S
C54 C53 1.368 . S
C54 C55 1.386 . S
C54 H77 0.929 . S
C55 C54 1.386 . S
C55 C56 1.373 . S
C56 C55 1.373 . S
C56 C57 1.409 . S
C56 H78 0.931 . S
C57 C52 1.356 . S
C57 C56 1.409 . S
C57 H79 0.930 . S
C58 O68 1.270 . S
C58 O69 1.248 . S
C59 O70 1.267 . S
C59 O71 1.278 1_655 S
O60 Pr40 2.562 . S
O60 C42 1.254 . S
O61 Pr40 2.490 . S
O61 C42 1.225 . S
O62 Pr40 2.695 1_455 S
O62 Pr41 2.436 . S
O62 C49 1.270 . S
O63 Pr40 2.512 . S
O63 C49 1.248 1_655 S
O64 Pr41 2.438 . S
O64 C50 1.267 . S
O65 Pr40 2.437 1_455 S
O65 C50 1.278 . S
O66 Pr41 2.562 . S
O66 C51 1.254 . S
O67 Pr41 2.490 . S
O67 C51 1.225 . S
O68 Pr40 2.436 1_455 S
O68 Pr41 2.695 . S
O68 C58 1.270 . S
O69 Pr41 2.512 . S
O69 C58 1.248 . S
O70 Pr40 2.438 . S
O70 C59 1.267 . S
O71 Pr41 2.437 . S
O71 C59 1.278 1_455 S
H72 C44 0.929 . S
H73 C45 0.929 . S
H74 C47 0.931 . S
H75 C48 0.930 . S
H76 C53 0.929 . S
H77 C54 0.929 . S
H78 C56 0.931 . S
H79 C57 0.930 . S
Pr80 C82 2.880 . S
Pr80 O100 2.562 . S
Pr80 O101 2.490 . S
Pr80 O102 2.695 . S
Pr80 O103 2.512 . S
Pr80 O105 2.437 . S
Pr80 O108 2.436 . S
Pr80 O110 2.438 . S
Pr81 C91 2.880 1_554 S
Pr81 O102 2.436 1_565 S
Pr81 O104 2.438 . S
Pr81 O106 2.562 1_554 S
Pr81 O107 2.490 . S
Pr81 O108 2.695 1_565 S
Pr81 O109 2.512 . S
Pr81 O111 2.437 1_565 S
C82 Pr80 2.880 . S
C82 C83 1.491 . S
C82 O100 1.254 . S
C82 O101 1.225 . S
C83 C82 1.491 . S
C83 C84 1.392 . S
C83 C88 1.356 . S
C84 C83 1.392 . S
C84 C85 1.368 . S
C84 H112 0.929 . S
C85 C84 1.368 . S
C85 C86 1.386 . S
C85 H113 0.929 . S
C86 C85 1.386 . S
C86 C87 1.373 . S
C87 C86 1.373 . S
C87 C88 1.409 . S
C87 H114 0.931 . S
C88 C83 1.356 . S
C88 C87 1.409 . S
C88 H115 0.930 . S
C89 O102 1.270 . S
C89 O103 1.248 . S
C90 O104 1.267 . S
C90 O105 1.278 1_565 S
C91 Pr81 2.880 1_556 S
C91 C92 1.491 . S
C91 O106 1.254 . S
C91 O107 1.225 1_556 S
C92 C91 1.491 . S
C92 C93 1.392 . S
C92 C97 1.356 . S
C93 C92 1.392 . S
C93 C94 1.368 . S
C93 H116 0.929 . S
C94 C93 1.368 . S
C94 C95 1.386 . S
C94 H117 0.929 . S
C95 C94 1.386 . S
C95 C96 1.373 . S
C96 C95 1.373 . S
C96 C97 1.409 . S
C96 H118 0.931 . S
C97 C92 1.356 . S
C97 C96 1.409 . S
C97 H119 0.930 . S
C98 O108 1.270 . S
C98 O109 1.248 1_545 S
C99 O110 1.267 . S
C99 O111 1.278 . S
O100 Pr80 2.562 . S
O100 C82 1.254 . S
O101 Pr80 2.490 . S
O101 C82 1.225 . S
O102 Pr80 2.695 . S
O102 Pr81 2.436 1_545 S
O102 C89 1.270 . S
O103 Pr80 2.512 . S
O103 C89 1.248 . S
O104 Pr81 2.438 . S
O104 C90 1.267 . S
O105 Pr80 2.437 . S
O105 C90 1.278 1_545 S
O106 Pr81 2.562 1_556 S
O106 C91 1.254 . S
O107 Pr81 2.490 . S
O107 C91 1.225 1_554 S
O108 Pr80 2.436 . S
O108 Pr81 2.695 1_545 S
O108 C98 1.270 . S
O109 Pr81 2.512 . S
O109 C98 1.248 1_565 S
O110 Pr80 2.438 . S
O110 C99 1.267 . S
O111 Pr81 2.437 1_545 S
O111 C99 1.278 . S
H112 C84 0.929 . S
H113 C85 0.929 . S
H114 C87 0.931 . S
H115 C88 0.930 . S
H116 C93 0.929 . S
H117 C94 0.929 . S
H118 C96 0.931 . S
H119 C97 0.930 . S
Pr120 C122 2.880 . S
Pr120 O140 2.562 . S
Pr120 O141 2.490 . S
Pr120 O142 2.695 1_655 S
Pr120 O143 2.512 . S
Pr120 O145 2.437 1_655 S
Pr120 O148 2.436 1_655 S
Pr120 O150 2.438 . S
Pr121 C131 2.880 . S
Pr121 O142 2.436 . S
Pr121 O144 2.438 . S
Pr121 O146 2.562 . S
Pr121 O147 2.490 . S
Pr121 O148 2.695 . S
Pr121 O149 2.512 . S
Pr121 O151 2.437 . S
C122 Pr120 2.880 . S
C122 C123 1.491 . S
C122 O140 1.254 . S
C122 O141 1.225 . S
C123 C122 1.491 . S
C123 C124 1.392 . S
C123 C128 1.356 . S
C124 C123 1.392 . S
C124 C125 1.368 . S
C124 H152 0.929 . S
C125 C124 1.368 . S
C125 C126 1.386 . S
C125 H153 0.929 . S
C126 C125 1.386 . S
C126 C127 1.373 . S
C127 C126 1.373 . S
C127 C128 1.409 . S
C127 H154 0.931 . S
C128 C123 1.356 . S
C128 C127 1.409 . S
C128 H155 0.930 . S
C129 O142 1.270 . S
C129 O143 1.248 1_455 S
C130 O144 1.267 . S
C130 O145 1.278 . S
C131 Pr121 2.880 . S
C131 C132 1.491 . S
C131 O146 1.254 . S
C131 O147 1.225 . S
C132 C131 1.491 . S
C132 C133 1.392 . S
C132 C137 1.356 . S
C133 C132 1.392 . S
C133 C134 1.368 . S
C133 H156 0.929 . S
C134 C133 1.368 . S
C134 C135 1.386 . S
C134 H157 0.929 . S
C135 C134 1.386 . S
C135 C136 1.373 . S
C136 C135 1.373 . S
C136 C137 1.409 . S
C136 H158 0.931 . S
C137 C132 1.356 . S
C137 C136 1.409 . S
C137 H159 0.930 . S
C138 O148 1.270 . S
C138 O149 1.248 . S
C139 O150 1.267 . S
C139 O151 1.278 1_655 S
O140 Pr120 2.562 . S
O140 C122 1.254 . S
O141 Pr120 2.490 . S
O141 C122 1.225 . S
O142 Pr120 2.695 1_455 S
O142 Pr121 2.436 . S
O142 C129 1.270 . S
O143 Pr120 2.512 . S
O143 C129 1.248 1_655 S
O144 Pr121 2.438 . S
O144 C130 1.267 . S
O145 Pr120 2.437 1_455 S
O145 C130 1.278 . S
O146 Pr121 2.562 . S
O146 C131 1.254 . S
O147 Pr121 2.490 . S
O147 C131 1.225 . S
O148 Pr120 2.436 1_455 S
O148 Pr121 2.695 . S
O148 C138 1.270 . S
O149 Pr121 2.512 . S
O149 C138 1.248 . S
O150 Pr120 2.438 . S
O150 C139 1.267 . S
O151 Pr121 2.437 . S
O151 C139 1.278 1_455 S
H152 C124 0.929 . S
H153 C125 0.929 . S
H154 C127 0.931 . S
H155 C128 0.930 . S
H156 C133 0.929 . S
H157 C134 0.929 . S
H158 C136 0.931 . S
H159 C137 0.930 . S
C160 C161 1.363 1_665 S
C160 C166 1.379 1_655 S
C160 N168 1.356 . S
C161 C160 1.363 1_445 S
C161 C167 1.363 . S
C162 C163 1.363 . S
C162 C167 1.379 . S
C162 N169 1.356 . S
C163 C162 1.363 . S
C163 C166 1.363 1_545 S
N164 C166 1.356 . S
N164 H176 0.984 1_455 S
N164 H177 0.985 . S
N165 C167 1.356 . S
N165 H170 0.984 . S
N165 H171 0.985 . S
C166 C160 1.379 1_455 S
C166 C163 1.363 1_565 S
C166 N164 1.356 . S
C167 C161 1.363 . S
C167 C162 1.379 . S
C167 N165 1.356 . S
N168 C160 1.356 . S
N168 H174 0.984 . S
N168 H175 0.984 . S
N169 C162 1.356 . S
N169 H172 0.984 . S
N169 H173 0.985 . S
H170 N165 0.984 . S
H171 N165 0.985 . S
H172 N169 0.984 . S
H173 N169 0.985 . S
H174 N168 0.984 . S
H175 N168 0.984 . S
H176 N164 0.984 1_655 S
H177 N164 0.985 . S
C178 C179 1.363 1_665 S
C178 C184 1.379 1_565 S
C178 N186 1.356 . S
C179 C178 1.363 1_445 S
C179 C185 1.363 . S
C180 C181 1.363 . S
C180 C185 1.379 . S
C180 N187 1.356 . S
C181 C180 1.363 . S
C181 C184 1.363 1_455 S
N182 C184 1.356 1_565 S
N182 H194 0.984 . S
N182 H195 0.985 1_565 S
N183 C185 1.356 . S
N183 H188 0.984 . S
N183 H189 0.985 . S
C184 C178 1.379 1_545 S
C184 C181 1.363 1_655 S
C184 N182 1.356 1_545 S
C185 C179 1.363 . S
C185 C180 1.379 . S
C185 N183 1.356 . S
N186 C178 1.356 . S
N186 H192 0.984 . S
N186 H193 0.984 . S
N187 C180 1.356 . S
N187 H190 0.984 . S
N187 H191 0.985 . S
H188 N183 0.984 . S
H189 N183 0.985 . S
H190 N187 0.984 . S
H191 N187 0.985 . S
H192 N186 0.984 . S
H193 N186 0.984 . S
H194 N182 0.984 . S
H195 N182 0.985 1_545 S
C196 C197 1.363 1_565 S
C196 C202 1.379 . S
C196 N204 1.356 . S
C197 C196 1.363 1_545 S
C197 C203 1.363 . S
C198 C199 1.363 . S
C198 C203 1.379 . S
C198 N205 1.356 . S
C199 C198 1.363 . S
C199 C202 1.363 1_545 S
N200 C202 1.356 . S
N200 H212 0.984 . S
N200 H213 0.985 . S
N201 C203 1.356 . S
N201 H206 0.984 . S
N201 H207 0.985 . S
C202 C196 1.379 . S
C202 C199 1.363 1_565 S
C202 N200 1.356 . S
C203 C197 1.363 . S
C203 C198 1.379 . S
C203 N201 1.356 . S
N204 C196 1.356 . S
N204 H210 0.984 . S
N204 H211 0.984 . S
N205 C198 1.356 . S
N205 H208 0.984 . S
N205 H209 0.985 . S
H206 N201 0.984 . S
H207 N201 0.985 . S
H208 N205 0.984 . S
H209 N205 0.985 . S
H210 N204 0.984 . S
H211 N204 0.984 . S
H212 N200 0.984 . S
H213 N200 0.985 . S
C214 C215 1.363 1_655 S
C214 C220 1.379 1_655 S
C214 N222 1.356 . S
C215 C214 1.363 1_455 S
C215 C221 1.363 . S
C216 C217 1.363 . S
C216 C221 1.379 . S
C216 N223 1.356 . S
C217 C216 1.363 . S
C217 C220 1.363 . S
N218 C220 1.356 1_655 S
N218 H230 0.984 . S
N218 H231 0.985 . S
N219 C221 1.356 . S
N219 H224 0.984 . S
N219 H225 0.985 . S
C220 C214 1.379 1_455 S
C220 C217 1.363 . S
C220 N218 1.356 1_455 S
C221 C215 1.363 . S
C221 C216 1.379 . S
C221 N219 1.356 . S
N222 C214 1.356 . S
N222 H228 0.984 . S
N222 H229 0.984 . S
N223 C216 1.356 . S
N223 H226 0.984 . S
N223 H227 0.985 . S
H224 N219 0.984 . S
H225 N219 0.985 . S
H226 N223 0.984 . S
H227 N223 0.985 . S
H228 N222 0.984 . S
H229 N222 0.984 . S
H230 N218 0.984 . S
H231 N218 0.985 . S
C232 C233 1.363 . S
C232 C238 1.379 . S
C232 N240 1.356 . S
C233 C232 1.363 . S
C233 C239 1.363 . S
C234 C235 1.363 . S
C234 C239 1.379 . S
C234 N241 1.356 . S
C235 C234 1.363 . S
C235 C238 1.363 . S
N236 C238 1.356 . S
N236 H248 0.984 . S
N236 H249 0.985 . S
N237 C239 1.356 . S
N237 H242 0.984 . S
N237 H243 0.985 . S
C238 C232 1.379 . S
C238 C235 1.363 . S
C238 N236 1.356 . S
C239 C233 1.363 . S
C239 C234 1.379 . S
C239 N237 1.356 . S
N240 C232 1.356 . S
N240 H246 0.984 . S
N240 H247 0.984 . S
N241 C234 1.356 . S
N241 H244 0.984 . S
N241 H245 0.985 . S
H242 N237 0.984 . S
H243 N237 0.985 . S
H244 N241 0.984 . S
H245 N241 0.985 . S
H246 N240 0.984 . S
H247 N240 0.984 . S
H248 N236 0.984 . S
H249 N236 0.985 . S
C250 C251 1.363 . S
C250 C256 1.379 . S
C250 N258 1.356 . S
C251 C250 1.363 . S
C251 C257 1.363 . S
C252 C253 1.363 . S
C252 C257 1.379 . S
C252 N259 1.356 . S
C253 C252 1.363 . S
C253 C256 1.363 . S
N254 C256 1.356 . S
N254 H266 0.984 . S
N254 H267 0.985 . S
N255 C257 1.356 . S
N255 H260 0.984 . S
N255 H261 0.985 . S
C256 C250 1.379 . S
C256 C253 1.363 . S
C256 N254 1.356 . S
C257 C251 1.363 . S
C257 C252 1.379 . S
C257 N255 1.356 . S
N258 C250 1.356 . S
N258 H264 0.984 . S
N258 H265 0.984 . S
N259 C252 1.356 . S
N259 H262 0.984 . S
N259 H263 0.985 . S
H260 N255 0.984 . S
H261 N255 0.985 . S
H262 N259 0.984 . S
H263 N259 0.985 . S
H264 N258 0.984 . S
H265 N258 0.984 . S
H266 N254 0.984 . S
H267 N254 0.985 . S
C268 C269 1.363 . S
C268 C274 1.379 . S
C268 N276 1.356 . S
C269 C268 1.363 . S
C269 C275 1.363 . S
C270 C271 1.363 . S
C270 C275 1.379 . S
C270 N277 1.356 . S
C271 C270 1.363 . S
C271 C274 1.363 . S
N272 C274 1.356 1_545 S
N272 H284 0.984 . S
N272 H285 0.985 . S
N273 C275 1.356 . S
N273 H278 0.984 . S
N273 H279 0.985 . S
C274 C268 1.379 . S
C274 C271 1.363 . S
C274 N272 1.356 1_565 S
C275 C269 1.363 . S
C275 C270 1.379 . S
C275 N273 1.356 . S
N276 C268 1.356 . S
N276 H282 0.989 . S
N276 H283 0.984 . S
N277 C270 1.356 . S
N277 H280 0.984 . S
N277 H281 0.985 . S
H278 N273 0.984 . S
H279 N273 0.985 . S
H280 N277 0.984 . S
H281 N277 0.985 . S
H282 N276 0.989 . S
H283 N276 0.984 . S
H284 N272 0.984 . S
H285 N272 0.985 . S
C286 C287 1.363 . S
C286 C292 1.379 . S
C286 N294 1.356 . S
C287 C286 1.363 . S
C287 C293 1.363 . S
C288 C289 1.363 . S
C288 C293 1.379 . S
C288 N295 1.356 . S
C289 C288 1.363 . S
C289 C292 1.363 . S
N290 C292 1.356 . S
N290 H302 0.984 . S
N290 H303 0.985 . S
N291 C293 1.356 . S
N291 H296 0.984 . S
N291 H297 0.985 . S
C292 C286 1.379 . S
C292 C289 1.363 . S
C292 N290 1.356 . S
C293 C287 1.363 . S
C293 C288 1.379 . S
C293 N291 1.356 . S
N294 C286 1.356 . S
N294 H300 0.984 . S
N294 H301 0.984 . S
N295 C288 1.356 . S
N295 H298 0.984 . S
N295 H299 0.985 . S
H296 N291 0.984 . S
H297 N291 0.985 . S
H298 N295 0.984 . S
H299 N295 0.985 . S
H300 N294 0.984 . S
H301 N294 0.984 . S
H302 N290 0.984 . S
H303 N290 0.985 . S
C304 C305 1.363 . S
C304 C310 1.379 . S
C304 N312 1.356 . S
C305 C304 1.363 . S
C305 C311 1.363 . S
C306 C307 1.363 . S
C306 C311 1.379 . S
C306 N313 1.356 . S
C307 C306 1.363 . S
C307 C310 1.363 . S
N308 C310 1.356 . S
N308 H320 0.984 1_655 S
N308 H321 0.985 1_655 S
N309 C311 1.356 . S
N309 H314 0.984 . S
N309 H315 0.985 . S
C310 C304 1.379 . S
C310 C307 1.363 . S
C310 N308 1.356 . S
C311 C305 1.363 . S
C311 C306 1.379 . S
C311 N309 1.356 . S
N312 C304 1.356 . S
N312 H318 0.984 . S
N312 H319 0.984 . S
N313 C306 1.356 . S
N313 H316 0.984 . S
N313 H317 0.985 . S
H314 N309 0.984 . S
H315 N309 0.985 . S
H316 N313 0.984 . S
H317 N313 0.985 . S
H318 N312 0.984 . S
H319 N312 0.984 . S
H320 N308 0.984 1_455 S
H321 N308 0.985 1_455 S
C322 C323 1.363 . S
C322 C328 1.379 . S
C322 N330 1.356 1_565 S
C323 C322 1.363 . S
C323 C329 1.363 . S
C324 C325 1.363 . S
C324 C329 1.379 . S
C324 N331 1.356 . S
C325 C324 1.363 . S
C325 C328 1.363 . S
N326 C328 1.356 . S
N326 H338 0.984 1_565 S
N326 H339 0.985 . S
N327 C329 1.356 . S
N327 H332 0.984 . S
N327 H333 0.985 . S
C328 C322 1.379 . S
C328 C325 1.363 . S
C328 N326 1.356 . S
C329 C323 1.363 . S
C329 C324 1.379 . S
C329 N327 1.356 . S
N330 C322 1.356 1_545 S
N330 H336 0.984 . S
N330 H337 0.984 . S
N331 C324 1.356 . S
N331 H334 0.984 . S
N331 H335 0.985 . S
H332 N327 0.984 . S
H333 N327 0.985 . S
H334 N331 0.984 . S
H335 N331 0.985 . S
H336 N330 0.984 . S
H337 N330 0.984 . S
H338 N326 0.984 1_545 S
H339 N326 0.985 . S
C340 C341 1.363 . S
C340 C346 1.379 1_556 S
C340 N348 1.356 . S
C341 C340 1.363 . S
C341 C347 1.363 . S
C342 C343 1.363 . S
C342 C347 1.379 1_554 S
C342 N349 1.356 . S
C343 C342 1.363 . S
C343 C346 1.363 . S
N344 C346 1.356 . S
N344 H356 0.984 1_545 S
N344 H357 0.985 . S
N345 C347 1.356 . S
N345 H350 0.984 . S
N345 H351 0.985 . S
C346 C340 1.379 1_554 S
C346 C343 1.363 . S
C346 N344 1.356 . S
C347 C341 1.363 . S
C347 C342 1.379 1_556 S
C347 N345 1.356 . S
N348 C340 1.356 . S
N348 H354 0.984 . S
N348 H355 0.984 . S
N349 C342 1.356 . S
N349 H352 0.984 . S
N349 H353 0.985 . S
H350 N345 0.984 . S
H351 N345 0.985 . S
H352 N349 0.984 . S
H353 N349 0.985 . S
H354 N348 0.984 . S
H355 N348 0.984 . S
H356 N344 0.984 1_565 S
H357 N344 0.985 . S
C358 C359 1.363 . S
C358 C364 1.379 . S
C358 N366 1.356 . S
C359 C358 1.363 . S
C359 C365 1.363 . S
C360 C361 1.363 . S
C360 C365 1.379 . S
C360 N367 1.356 . S
C361 C360 1.363 . S
C361 C364 1.363 . S
N362 C364 1.356 . S
N362 H374 0.984 . S
N362 H375 0.985 . S
N363 C365 1.356 . S
N363 H368 0.984 . S
N363 H369 0.985 . S
C364 C358 1.379 . S
C364 C361 1.363 . S
C364 N362 1.356 . S
C365 C359 1.363 . S
C365 C360 1.379 . S
C365 N363 1.356 . S
N366 C358 1.356 . S
N366 H372 0.984 . S
N366 H373 0.984 . S
N367 C360 1.356 . S
N367 H370 0.984 . S
N367 H371 0.985 . S
H368 N363 0.984 . S
H369 N363 0.985 . S
H370 N367 0.984 . S
H371 N367 0.985 . S
H372 N366 0.984 . S
H373 N366 0.984 . S
H374 N362 0.984 . S
H375 N362 0.985 . S
C161 C89 1.278 1_455 S
C163 C18 1.278 . S
C179 C138 1.278 1_545 S
C181 C49 1.278 . S
C197 C98 1.138 . S
C199 C9 1.138 . S
C215 C58 1.137 . S
C217 C129 1.137 . S
C233 C50 1.529 . S
C235 C6 1.546 . S
C251 C59 2.242 . S
C253 C99 2.242 1_556 S
C269 C126 1.546 . S
C271 C90 1.529 . S
C287 C135 1.009 . S
C289 C15 1.009 . S
C305 C95 1.546 . S
C307 C139 1.529 . S
C323 C10 2.242 . S
C325 C130 2.242 . S
C341 C55 1.546 . S
C343 C19 1.529 . S
C359 C86 1.009 . S
C361 C46 1.009 . S
