# Generated by pormake.
# Topology umo, (4)-cn, num edge types: 1
# Building blocks:
#     Node 0, Type 0, BuildingBlock: NAWXER_clean_sbu_0, # of connection points: 4
#     Node 1, Type 0, BuildingBlock: NAWXER_clean_sbu_0, # of connection points: 4
#     Node 2, Type 0, BuildingBlock: NAWXER_clean_sbu_0, # of connection points: 4
#     Node 3, Type 0, BuildingBlock: NAWXER_clean_sbu_0, # of connection points: 4
#     Node 4, Type 0, BuildingBlock: NAWXER_clean_sbu_0, # of connection points: 4
#     Node 5, Type 0, BuildingBlock: NAWXER_clean_sbu_0, # of connection points: 4
#     Node 6, Type 0, BuildingBlock: NAWXER_clean_sbu_0, # of connection points: 4
#     Node 7, Type 0, BuildingBlock: NAWXER_clean_sbu_0, # of connection points: 4
#     Node 8, Type 0, BuildingBlock: NAWXER_clean_sbu_0, # of connection points: 4
#     Node 9, Type 0, BuildingBlock: NAWXER_clean_sbu_0, # of connection points: 4
#     Node 10, Type 0, BuildingBlock: NAWXER_clean_sbu_0, # of connection points: 4
#     Node 11, Type 0, BuildingBlock: NAWXER_clean_sbu_0, # of connection points: 4
#     Edge 12, Type (0, 0), BuildingBlock: KIFKEQ_clean_linker_1, # of connection points: 2
#     Edge 13, Type (0, 0), BuildingBlock: KIFKEQ_clean_linker_1, # of connection points: 2
#     Edge 14, Type (0, 0), BuildingBlock: KIFKEQ_clean_linker_1, # of connection points: 2
#     Edge 15, Type (0, 0), BuildingBlock: KIFKEQ_clean_linker_1, # of connection points: 2
#     Edge 16, Type (0, 0), BuildingBlock: KIFKEQ_clean_linker_1, # of connection points: 2
#     Edge 17, Type (0, 0), BuildingBlock: KIFKEQ_clean_linker_1, # of connection points: 2
#     Edge 18, Type (0, 0), BuildingBlock: KIFKEQ_clean_linker_1, # of connection points: 2
#     Edge 19, Type (0, 0), BuildingBlock: KIFKEQ_clean_linker_1, # of connection points: 2
#     Edge 20, Type (0, 0), BuildingBlock: KIFKEQ_clean_linker_1, # of connection points: 2
#     Edge 21, Type (0, 0), BuildingBlock: KIFKEQ_clean_linker_1, # of connection points: 2
#     Edge 22, Type (0, 0), BuildingBlock: KIFKEQ_clean_linker_1, # of connection points: 2
#     Edge 23, Type (0, 0), BuildingBlock: KIFKEQ_clean_linker_1, # of connection points: 2
#     Edge 24, Type (0, 0), BuildingBlock: KIFKEQ_clean_linker_1, # of connection points: 2
#     Edge 25, Type (0, 0), BuildingBlock: KIFKEQ_clean_linker_1, # of connection points: 2
#     Edge 26, Type (0, 0), BuildingBlock: KIFKEQ_clean_linker_1, # of connection points: 2
#     Edge 27, Type (0, 0), BuildingBlock: KIFKEQ_clean_linker_1, # of connection points: 2
#     Edge 28, Type (0, 0), BuildingBlock: KIFKEQ_clean_linker_1, # of connection points: 2
#     Edge 29, Type (0, 0), BuildingBlock: KIFKEQ_clean_linker_1, # of connection points: 2
#     Edge 30, Type (0, 0), BuildingBlock: KIFKEQ_clean_linker_1, # of connection points: 2
#     Edge 31, Type (0, 0), BuildingBlock: KIFKEQ_clean_linker_1, # of connection points: 2
#     Edge 32, Type (0, 0), BuildingBlock: KIFKEQ_clean_linker_1, # of connection points: 2
#     Edge 33, Type (0, 0), BuildingBlock: KIFKEQ_clean_linker_1, # of connection points: 2
#     Edge 34, Type (0, 0), BuildingBlock: KIFKEQ_clean_linker_1, # of connection points: 2
#     Edge 35, Type (0, 0), BuildingBlock: KIFKEQ_clean_linker_1, # of connection points: 2
# Relax obj value: 0.169
# Max RMSD: 0.217
# Mean RMSD: 0.217
data_MOF--net-umo--node1-NAWXER_clean_sbu_0--edge1-KIFKEQ_clean_linker_1
_symmetry_space_group_name_H-M    P1
_symmetry_Int_Tables_number       1
_symmetry_cell_setting            triclinic
loop_
_symmetry_equiv_pos_as_xyz
'x, y, z'
_cell_length_a     50.573938
_cell_length_b     50.698067
_cell_length_c     37.284477
_cell_angle_alpha  90.176303
_cell_angle_beta   89.895226
_cell_angle_gamma 119.92573
loop_
_atom_site_label
_atom_site_type_symbol
_atom_site_fract_x
_atom_site_fract_y
_atom_site_fract_z
_atom_type_partial_charge
C0 C 0.20008 0.58147 0.40622 0.0
C1 C 0.09787 0.49917 0.38256 0.0
O2 O 0.19529 0.55645 0.42053 0.0
Zn3 Zn 0.15819 0.50978 0.42336 0.0
O4 O 0.17928 0.58195 0.38766 0.0
Zn5 Zn 0.14961 0.54006 0.39376 0.0
O6 O 0.14124 0.53909 0.45074 0.0
O7 O 0.15087 0.50499 0.47461 0.0
O8 O 0.11096 0.52646 0.37168 0.0
O9 O 0.1126 0.49003 0.40207 0.0
O10 O 0.17579 0.48787 0.39959 0.0
O11 O 0.16907 0.51812 0.36312 0.0
C12 C 0.14284 0.52495 0.4784 0.0
C13 C 0.17816 0.49895 0.36844 0.0
C14 C 0.58059 0.09824 0.55606 0.0
C15 C 0.59814 0.19896 0.58167 0.0
O16 O 0.60419 0.11276 0.57611 0.0
Zn17 Zn 0.62901 0.15808 0.59869 0.0
O18 O 0.56584 0.11103 0.5459 0.0
Zn19 Zn 0.59003 0.14902 0.56909 0.0
O20 O 0.63182 0.16913 0.53877 0.0
O21 O 0.66862 0.1758 0.57577 0.0
O22 O 0.57654 0.17781 0.56393 0.0
O23 O 0.61906 0.19489 0.59545 0.0
O24 O 0.62641 0.151 0.64993 0.0
O25 O 0.58223 0.13945 0.62564 0.0
C26 C 0.66009 0.17822 0.54451 0.0
C27 C 0.5981 0.14169 0.65348 0.0
C28 C 0.48252 0.67641 0.70056 0.0
C29 C 0.4537 0.61441 0.80974 0.0
O30 O 0.46293 0.64839 0.69489 0.0
Zn31 Zn 0.43933 0.60718 0.72473 0.0
O32 O 0.49298 0.68498 0.73203 0.0
Zn33 Zn 0.46995 0.64548 0.75539 0.0
O34 O 0.4889 0.61887 0.73416 0.0
O35 O 0.45238 0.58169 0.70251 0.0
O36 O 0.47369 0.64242 0.8066 0.0
O37 O 0.43991 0.59901 0.78162 0.0
O38 O 0.3977 0.59675 0.71761 0.0
O39 O 0.42378 0.6369 0.7525 0.0
C40 C 0.47957 0.59523 0.71414 0.0
C41 C 0.39868 0.61771 0.73732 0.0
C42 C 0.77162 0.38791 0.91801 0.0
C43 C 0.87451 0.46534 0.89 0.0
O44 O 0.77708 0.41388 0.93014 0.0
Zn45 Zn 0.81595 0.45982 0.93095 0.0
O46 O 0.79201 0.38549 0.90092 0.0
Zn47 Zn 0.82242 0.42721 0.90391 0.0
O48 O 0.83238 0.43108 0.9604 0.0
O49 O 0.8236 0.46647 0.98205 0.0
O50 O 0.85996 0.43736 0.88177 0.0
O51 O 0.86112 0.47689 0.90818 0.0
O52 O 0.79996 0.48233 0.90631 0.0
O53 O 0.80396 0.44933 0.87137 0.0
C54 C 0.8315 0.44658 0.98715 0.0
C55 C 0.79638 0.46981 0.87577 0.0
C56 C 0.37699 0.87833 0.0507 0.0
C57 C 0.36033 0.77722 0.07291 0.0
O58 O 0.35352 0.86321 0.07076 0.0
Zn59 Zn 0.3291 0.81756 0.09209 0.0
O60 O 0.3919 0.86596 0.03942 0.0
Zn61 Zn 0.3681 0.82741 0.06167 0.0
O62 O 0.32637 0.80753 0.03171 0.0
O63 O 0.28932 0.79947 0.06911 0.0
O64 O 0.38133 0.79845 0.0546 0.0
O65 O 0.33977 0.78135 0.0878 0.0
O66 O 0.33192 0.82409 0.14349 0.0
O67 O 0.3761 0.83631 0.11848 0.0
C68 C 0.29802 0.79784 0.03759 0.0
C69 C 0.36033 0.83365 0.14664 0.0
C70 C 0.49696 0.31545 0.20886 0.0
C71 C 0.52275 0.37359 0.32096 0.0
O72 O 0.51731 0.34348 0.20446 0.0
Zn73 Zn 0.54068 0.38372 0.23735 0.0
O74 O 0.48532 0.30635 0.23974 0.0
Zn75 Zn 0.50827 0.34477 0.2646 0.0
O76 O 0.49087 0.37273 0.24257 0.0
O77 O 0.53062 0.41181 0.21738 0.0
O78 O 0.50233 0.34599 0.31594 0.0
O79 O 0.53805 0.38972 0.29408 0.0
O80 O 0.58218 0.39409 0.23237 0.0
O81 O 0.55432 0.35186 0.26302 0.0
C82 C 0.50256 0.39806 0.22551 0.0
C83 C 0.58018 0.37178 0.24996 0.0
C84 C 0.47684 0.80187 0.49887 0.0
C85 C 0.44801 0.83547 0.38997 0.0
O86 O 0.45691 0.80996 0.50466 0.0
Zn87 Zn 0.43317 0.82776 0.47467 0.0
O88 O 0.48739 0.80401 0.46738 0.0
Zn89 Zn 0.464 0.82021 0.44442 0.0
O90 O 0.48289 0.86544 0.46682 0.0
O91 O 0.44563 0.86567 0.49756 0.0
O92 O 0.46793 0.82731 0.39315 0.0
O93 O 0.43409 0.83698 0.41805 0.0
O94 O 0.39155 0.79715 0.48109 0.0
O95 O 0.41791 0.78226 0.44782 0.0
C96 C 0.47312 0.87934 0.48699 0.0
C97 C 0.39266 0.77672 0.46246 0.0
C98 C 0.60508 0.45225 0.56801 0.0
C99 C 0.66561 0.47529 0.67774 0.0
O100 O 0.58862 0.43929 0.59571 0.0
Zn101 Zn 0.59555 0.43739 0.65257 0.0
O102 O 0.63358 0.47016 0.57187 0.0
Zn103 Zn 0.63519 0.46582 0.62318 0.0
O104 O 0.62321 0.41853 0.62699 0.0
O105 O 0.58022 0.3948 0.65805 0.0
O106 O 0.6746 0.48623 0.64658 0.0
O107 O 0.63709 0.45721 0.68331 0.0
O108 O 0.57237 0.45302 0.6748 0.0
O109 O 0.61129 0.48802 0.64387 0.0
C110 C 0.60151 0.39411 0.64075 0.0
C111 C 0.58766 0.48013 0.66355 0.0
C112 C 0.17122 0.66426 0.8371 0.0
C113 C 0.1398 0.60232 0.72752 0.0
O114 O 0.1653 0.63688 0.84233 0.0
Zn115 Zn 0.15031 0.59614 0.81163 0.0
O116 O 0.16755 0.67212 0.80599 0.0
Zn117 Zn 0.15334 0.633 0.7824 0.0
O118 O 0.10927 0.60372 0.80629 0.0
O119 O 0.11321 0.56748 0.83398 0.0
O120 O 0.14405 0.6291 0.73148 0.0
O121 O 0.14128 0.58788 0.75493 0.0
O122 O 0.18382 0.58931 0.81731 0.0
O123 O 0.19393 0.62863 0.78273 0.0
C124 C 0.09727 0.57937 0.82527 0.0
C125 C 0.20219 0.61093 0.79722 0.0
C126 C 0.48641 0.09913 0.9943 0.0
C127 C 0.57252 0.1987 0.97161 0.0
O128 O 0.4784 0.11461 0.97445 0.0
Zn129 Zn 0.50072 0.1605 0.95334 0.0
O130 O 0.51369 0.11099 1.00525 0.0
Zn131 Zn 0.52918 0.14946 0.9829 0.0
O132 O 0.509 0.17091 1.01349 0.0
O133 O 0.48012 0.1795 0.97664 0.0
O134 O 0.57173 0.17677 0.98884 0.0
O135 O 0.54811 0.19594 0.95757 0.0
O136 O 0.49655 0.15425 0.90191 0.0
O137 O 0.52747 0.14041 0.92613 0.0
C138 C 0.49087 0.18129 1.0079 0.0
C139 C 0.51456 0.14373 0.89827 0.0
C140 C 0.39352 0.50887 0.15002 0.0
C141 C 0.36757 0.5867 0.12632 0.0
O142 O 0.36819 0.49744 0.13279 0.0
Zn143 Zn 0.3404 0.51508 0.11083 0.0
O144 O 0.40744 0.53682 0.15842 0.0
Zn145 Zn 0.37949 0.5472 0.1385 0.0
O146 O 0.33905 0.52379 0.17112 0.0
O147 O 0.30178 0.49219 0.13557 0.0
O148 O 0.38996 0.58864 0.14386 0.0
O149 O 0.34762 0.56097 0.11304 0.0
O150 O 0.34193 0.50967 0.05929 0.0
O151 O 0.38571 0.54489 0.08182 0.0
C152 C 0.31092 0.50361 0.16657 0.0
C153 C 0.36968 0.52994 0.05466 0.0
C154 C 0.79456 0.30759 0.34541 0.0
C155 C 0.82952 0.36744 0.23508 0.0
O156 O 0.80364 0.33584 0.35061 0.0
Zn157 Zn 0.82297 0.37685 0.3196 0.0
O158 O 0.79675 0.29859 0.31428 0.0
Zn159 Zn 0.81397 0.33769 0.29036 0.0
O160 O 0.85987 0.36361 0.31109 0.0
O161 O 0.86157 0.40179 0.34166 0.0
O162 O 0.82037 0.33928 0.23916 0.0
O163 O 0.83186 0.38373 0.26262 0.0
O164 O 0.79335 0.3894 0.32554 0.0
O165 O 0.77695 0.34741 0.29344 0.0
C166 C 0.87465 0.38752 0.33057 0.0
C167 C 0.77231 0.36788 0.30753 0.0
H168 H 0.2518 0.58719 0.43635 0.0
H169 H 0.21379 0.6397 0.3917 0.0
H170 H 0.29874 0.63417 0.45083 0.0
H171 H 0.26081 0.68661 0.40619 0.0
H172 H 0.33389 0.76129 0.47789 0.0
H173 H 0.2876 0.71362 0.46363 0.0
H174 H 0.34205 0.67814 0.41777 0.0
H175 H 0.38842 0.72574 0.43201 0.0
C176 C 0.25352 0.60873 0.42945 0.0
C177 C 0.2291 0.60978 0.41293 0.0
C178 C 0.28041 0.63557 0.43764 0.0
C179 C 0.28324 0.66393 0.42979 0.0
C180 C 0.25901 0.665 0.4129 0.0
C181 C 0.23223 0.63816 0.40437 0.0
C182 C 0.33601 0.74325 0.465 0.0
C183 C 0.36478 0.74727 0.456 0.0
C184 C 0.30952 0.7161 0.45661 0.0
C185 C 0.31133 0.69237 0.43942 0.0
C186 C 0.34008 0.69607 0.43119 0.0
C187 C 0.36657 0.72334 0.43924 0.0
H188 H 0.5504 0.20506 0.60296 0.0
H189 H 0.64611 0.25637 0.57688 0.0
H190 H 0.55102 0.25167 0.61995 0.0
H191 H 0.64654 0.30359 0.59037 0.0
H192 H 0.64788 0.38223 0.64736 0.0
H193 H 0.64668 0.33458 0.63423 0.0
H194 H 0.55201 0.29458 0.60208 0.0
H195 H 0.55291 0.34141 0.61872 0.0
C196 C 0.57141 0.22658 0.60008 0.0
C197 C 0.59818 0.2274 0.58864 0.0
C198 C 0.57182 0.25341 0.60958 0.0
C199 C 0.59885 0.28176 0.60663 0.0
C200 C 0.62546 0.28235 0.59407 0.0
C201 C 0.62523 0.25537 0.58583 0.0
C202 C 0.62681 0.36293 0.63796 0.0
C203 C 0.60043 0.36511 0.63429 0.0
C204 C 0.62612 0.3357 0.62992 0.0
C205 C 0.59929 0.31046 0.61669 0.0
C206 C 0.57293 0.31302 0.61296 0.0
C207 C 0.57339 0.33991 0.62227 0.0
H208 H 0.23514 0.59293 0.83763 0.0
H209 H 0.23672 0.63672 0.73774 0.0
H210 H 0.28398 0.59672 0.82216 0.0
H211 H 0.28524 0.63982 0.72204 0.0
H212 H 0.34665 0.59414 0.69703 0.0
H213 H 0.29967 0.59487 0.71135 0.0
H214 H 0.34075 0.64431 0.80896 0.0
H215 H 0.38784 0.64425 0.7945 0.0
C216 C 0.24598 0.60342 0.81247 0.0
C217 C 0.23229 0.61461 0.7889 0.0
C218 C 0.27385 0.60564 0.80371 0.0
C219 C 0.28808 0.61848 0.77094 0.0
C220 C 0.27449 0.62974 0.74739 0.0
C221 C 0.24694 0.62813 0.75649 0.0
C222 C 0.34568 0.60536 0.72137 0.0
C223 C 0.37082 0.61915 0.74465 0.0
C224 C 0.31895 0.60587 0.72943 0.0
C225 C 0.31683 0.6196 0.76122 0.0
C226 C 0.34197 0.63353 0.78436 0.0
C227 C 0.36886 0.63358 0.77596 0.0
H228 H 0.7634 0.33461 0.94333 0.0
H229 H 0.71476 0.38034 0.91119 0.0
H230 H 0.71564 0.28971 0.95937 0.0
H231 H 0.66636 0.33446 0.92376 0.0
H232 H 0.58414 0.25697 0.97634 0.0
H233 H 0.63256 0.30329 0.96545 0.0
H234 H 0.67362 0.24844 0.9385 0.0
H235 H 0.626 0.20277 0.95287 0.0
C236 C 0.74222 0.33465 0.93906 0.0
C237 C 0.74247 0.36061 0.92597 0.0
C238 C 0.71474 0.30883 0.94795 0.0
C239 C 0.68676 0.30802 0.94264 0.0
C240 C 0.68726 0.3342 0.92905 0.0
C241 C 0.71492 0.36043 0.92141 0.0
C242 C 0.60381 0.25514 0.96851 0.0
C243 C 0.6017 0.2266 0.96573 0.0
C244 C 0.63151 0.2816 0.96182 0.0
C245 C 0.65734 0.27993 0.95093 0.0
C246 C 0.65475 0.25101 0.94778 0.0
C247 C 0.62738 0.2247 0.95574 0.0
H248 H 0.31511 0.72497 0.10262 0.0
H249 H 0.4054 0.76442 0.05642 0.0
H250 H 0.31621 0.67841 0.11567 0.0
H251 H 0.40634 0.71774 0.06945 0.0
H252 H 0.41038 0.64571 0.14037 0.0
H253 H 0.40784 0.6913 0.12615 0.0
H254 H 0.31749 0.63555 0.08235 0.0
H255 H 0.31987 0.58981 0.0966 0.0
C256 C 0.3351 0.72364 0.09505 0.0
C257 C 0.36022 0.74839 0.07859 0.0
C258 C 0.33564 0.69695 0.1024 0.0
C259 C 0.36142 0.69462 0.09374 0.0
C260 C 0.38634 0.71914 0.07678 0.0
C261 C 0.38569 0.74574 0.06911 0.0
C262 C 0.38989 0.64314 0.1279 0.0
C263 C 0.36533 0.61417 0.11957 0.0
C264 C 0.38856 0.66924 0.11952 0.0
C265 C 0.36256 0.66688 0.10296 0.0
C266 C 0.33775 0.63795 0.09527 0.0
C267 C 0.33917 0.61182 0.10334 0.0
H268 H 0.72039 0.32176 0.2779 0.0
H269 H 0.75835 0.41228 0.32264 0.0
H270 H 0.6733 0.3218 0.26381 0.0
H271 H 0.7112 0.41215 0.30857 0.0
H272 H 0.63925 0.41449 0.23588 0.0
H273 H 0.68508 0.41255 0.25106 0.0
H274 H 0.62959 0.32285 0.29592 0.0
H275 H 0.58354 0.32464 0.2807 0.0
C276 C 0.71862 0.34157 0.28494 0.0
C277 C 0.74312 0.36708 0.30126 0.0
C278 C 0.69163 0.34151 0.277 0.0
C279 C 0.68876 0.36705 0.28491 0.0
C280 C 0.71301 0.39232 0.3018 0.0
C281 C 0.7399 0.39229 0.31005 0.0
C282 C 0.63676 0.39425 0.24877 0.0
C283 C 0.60778 0.36973 0.25715 0.0
C284 C 0.66302 0.39327 0.2577 0.0
C285 C 0.66082 0.36766 0.2749 0.0
C286 C 0.63187 0.34282 0.28255 0.0
C287 C 0.60556 0.3439 0.27391 0.0
H288 H 0.11934 0.61608 0.6661 0.0
H289 H 0.1517 0.55779 0.70716 0.0
H290 H 0.1153 0.59475 0.60626 0.0
H291 H 0.14969 0.5379 0.64744 0.0
H292 H 0.12738 0.49159 0.54045 0.0
H293 H 0.12184 0.50778 0.6003 0.0
H294 H 0.14392 0.5958 0.55785 0.0
H295 H 0.14736 0.57875 0.49809 0.0
C296 C 0.12565 0.59875 0.66228 0.0
C297 C 0.13575 0.58859 0.69136 0.0
C298 C 0.12361 0.58663 0.62787 0.0
C299 C 0.13232 0.56456 0.62155 0.0
C300 C 0.1421 0.55427 0.65097 0.0
C301 C 0.14349 0.56588 0.68538 0.0
C302 C 0.13067 0.51425 0.544 0.0
C303 C 0.13778 0.53385 0.51456 0.0
C304 C 0.12776 0.52372 0.5784 0.0
C305 C 0.13266 0.55334 0.5844 0.0
C306 C 0.13934 0.57268 0.55461 0.0
C307 C 0.14155 0.56295 0.52018 0.0
H308 H 0.62588 0.15118 0.71911 0.0
H309 H 0.538 0.12014 0.66961 0.0
H310 H 0.60334 0.14792 0.77793 0.0
H311 H 0.51534 0.11622 0.72844 0.0
H312 H 0.55085 0.11955 0.88196 0.0
H313 H 0.56889 0.11457 0.8231 0.0
H314 H 0.51625 0.15055 0.77387 0.0
H315 H 0.49764 0.15488 0.8327 0.0
C316 C 0.60165 0.14314 0.7208 0.0
C317 C 0.58383 0.1361 0.68957 0.0
C318 C 0.58866 0.14116 0.75459 0.0
C319 C 0.5575 0.13201 0.75799 0.0
C320 C 0.53949 0.12387 0.72682 0.0
C321 C 0.55248 0.12591 0.69306 0.0
C322 C 0.5428 0.12607 0.85856 0.0
C323 C 0.52286 0.13774 0.86213 0.0
C324 C 0.55335 0.1234 0.82478 0.0
C325 C 0.54428 0.13239 0.79368 0.0
C326 C 0.5235 0.14309 0.79715 0.0
C327 C 0.51289 0.1457 0.83096 0.0
H328 H 0.42964 0.56642 0.03735 0.0
H329 H 0.34051 0.51282 0.98955 0.0
H330 H 0.45171 0.58461 0.97833 0.0
H331 H 0.36249 0.53172 0.93039 0.0
H332 H 0.41403 0.5546 0.82511 0.0
H333 H 0.39519 0.53168 0.88371 0.0
H334 H 0.45234 0.61891 0.93421 0.0
H335 H 0.47177 0.64163 0.87569 0.0
C336 C 0.41473 0.55838 1.01419 0.0
C337 C 0.38324 0.53825 1.01824 0.0
C338 C 0.4274 0.56902 0.98031 0.0
C339 C 0.4089 0.55997 0.94952 0.0
C340 C 0.37753 0.53899 0.95342 0.0
C341 C 0.36486 0.52819 0.98738 0.0
C342 C 0.42285 0.56885 0.84874 0.0
C343 C 0.44442 0.60001 0.84563 0.0
C344 C 0.41184 0.55571 0.88238 0.0
C345 C 0.42204 0.57341 0.9138 0.0
C346 C 0.44421 0.60443 0.9107 0.0
C347 C 0.45531 0.61754 0.87707 0.0
H348 H 0.8519 0.42725 0.21762 0.0
H349 H 0.81958 0.3385 0.17019 0.0
H350 H 0.85695 0.44903 0.15813 0.0
H351 H 0.82384 0.36011 0.1108 0.0
H352 H 0.85407 0.40959 1.00585 0.0
H353 H 0.85805 0.39274 0.06563 0.0
H354 H 0.82433 0.44878 0.11131 0.0
H355 H 0.82115 0.4663 0.05148 0.0
C356 C 0.84603 0.41238 0.19449 0.0
C357 C 0.83524 0.38107 0.19873 0.0
C358 C 0.84872 0.42487 0.16035 0.0
C359 C 0.84062 0.40636 0.12957 0.0
C360 C 0.83067 0.37518 0.13379 0.0
C361 C 0.82809 0.36271 0.16793 0.0
C362 C 0.84786 0.41864 0.02867 0.0
C363 C 0.83713 0.43919 0.02382 0.0
C364 C 0.84993 0.40878 0.06298 0.0
C365 C 0.84119 0.41909 0.09337 0.0
C366 C 0.83155 0.44055 0.08861 0.0
C367 C 0.82962 0.45055 0.05425 0.0
H368 H 0.42083 0.85698 0.162 0.0
H369 H 0.33284 0.82264 0.21267 0.0
H370 H 0.44425 0.86169 0.22044 0.0
H371 H 0.35612 0.8266 0.27107 0.0
H372 H 0.40892 0.85648 0.37471 0.0
H373 H 0.38967 0.86028 0.31627 0.0
H374 H 0.44587 0.8289 0.26547 0.0
H375 H 0.46572 0.82587 0.3239 0.0
C376 C 0.40647 0.8506 0.18563 0.0
C377 C 0.37489 0.83933 0.18256 0.0
C378 C 0.4199 0.85309 0.21917 0.0
C379 C 0.40211 0.8443 0.25057 0.0
C380 C 0.37066 0.83393 0.24758 0.0
C381 C 0.35723 0.83153 0.21401 0.0
C382 C 0.41747 0.85073 0.35105 0.0
C383 C 0.43882 0.84075 0.35407 0.0
C384 C 0.40623 0.8527 0.3175 0.0
C385 C 0.41595 0.84464 0.28605 0.0
C386 C 0.43807 0.83562 0.289 0.0
C387 C 0.44941 0.83376 0.32258 0.0
H388 H 0.56088 0.43295 0.33928 0.0
H389 H 0.50343 0.34414 0.38553 0.0
H390 H 0.57865 0.45411 0.39882 0.0
H391 H 0.52183 0.3652 0.44519 0.0
H392 H 0.63377 0.46989 0.50287 0.0
H393 H 0.61151 0.45209 0.4437 0.0
H394 H 0.52245 0.3986 0.49177 0.0
H395 H 0.54482 0.41583 0.55103 0.0
C396 C 0.55188 0.41793 0.36219 0.0
C397 C 0.53083 0.38677 0.35758 0.0
C398 C 0.56226 0.43006 0.39636 0.0
C399 C 0.55198 0.41135 0.42686 0.0
C400 C 0.53006 0.38038 0.42237 0.0
C401 C 0.51955 0.36824 0.38813 0.0
C402 C 0.60939 0.45461 0.50081 0.0
C403 C 0.59115 0.44422 0.53176 0.0
C404 C 0.59656 0.44447 0.46682 0.0
C405 C 0.56515 0.42375 0.46289 0.0
C406 C 0.54677 0.41413 0.4938 0.0
C407 C 0.55961 0.42422 0.52779 0.0
H408 H 0.90531 0.41961 0.38967 0.0
H409 H 0.91684 0.3818 0.29081 0.0
H410 H 0.95988 0.44227 0.4021 0.0
H411 H 0.97174 0.4054 0.30286 0.0
H412 H 0.06715 0.50096 0.32372 0.0
H413 H 0.01263 0.46903 0.31106 0.0
H414 H 0.00103 0.41969 0.40932 0.0
H415 H 0.05584 0.451 0.42161 0.0
C416 C 0.9195 0.416 0.37077 0.0
C417 C 0.90698 0.39907 0.33925 0.0
C418 C 0.95058 0.42879 0.37798 0.0
C419 C 0.96971 0.42542 0.35341 0.0
C420 C 0.95722 0.40812 0.32217 0.0
C421 C 0.92595 0.39465 0.31537 0.0
C422 C 0.05303 0.48302 0.34236 0.0
C423 C 0.06559 0.47844 0.37368 0.0
C424 C 0.02199 0.46472 0.335 0.0
C425 C 0.00293 0.44203 0.35924 0.0
C426 C 0.01547 0.43706 0.39027 0.0
C427 C 0.0467 0.45488 0.3972 0.0
H428 H 0.52196 0.92334 0.45041 0.0
H429 H 0.47017 0.90675 0.54827 0.0
H430 H 0.55311 0.97727 0.46692 0.0
H431 H 0.50186 0.96027 0.56509 0.0
H432 H 0.58631 0.05484 0.59269 0.0
H433 H 0.56441 0.00098 0.57616 0.0
H434 H 0.53047 0.01734 0.47754 0.0
H435 H 0.5514 0.07074 0.49439 0.0
C436 C 0.51763 0.93113 0.47566 0.0
C437 C 0.49357 0.91108 0.49796 0.0
C438 C 0.53538 0.96183 0.48503 0.0
C439 C 0.52982 0.97259 0.51728 0.0
C440 C 0.50665 0.95229 0.54026 0.0
C441 C 0.48845 0.92184 0.5305 0.0
C442 C 0.57449 0.04693 0.56732 0.0
C443 C 0.57027 0.06673 0.54491 0.0
C444 C 0.56202 0.01627 0.55794 0.0
C445 C 0.546 0.00535 0.52559 0.0
C446 C 0.54301 0.02545 0.50247 0.0
C447 C 0.55476 0.05583 0.51223 0.0
H448 H 0.52746 0.60088 0.75357 0.0
H449 H 0.47753 0.56235 0.65535 0.0
H450 H 0.5585 0.57702 0.74154 0.0
H451 H 0.50917 0.53935 0.64297 0.0
H452 H 0.59424 0.52767 0.62289 0.0
H453 H 0.57183 0.56012 0.63453 0.0
H454 H 0.53609 0.5143 0.73529 0.0
H455 H 0.55756 0.48131 0.72331 0.0
C456 C 0.52352 0.58779 0.72915 0.0
C457 C 0.50002 0.58324 0.70547 0.0
C458 C 0.5412 0.5742 0.72235 0.0
C459 C 0.53617 0.5566 0.69131 0.0
C460 C 0.51356 0.5531 0.66691 0.0
C461 C 0.49539 0.56605 0.67412 0.0
C462 C 0.58196 0.52489 0.64772 0.0
C463 C 0.57743 0.50196 0.67215 0.0
C464 C 0.56915 0.54332 0.65428 0.0
C465 C 0.55243 0.53959 0.68579 0.0
C466 C 0.54913 0.51766 0.71095 0.0
C467 C 0.56124 0.49875 0.704 0.0
H468 H 0.06465 0.5259 0.86113 0.0
H469 H 0.05674 0.59965 0.81444 0.0
H470 H 0.01088 0.50023 0.87702 0.0
H471 H 0.00254 0.57358 0.83035 0.0
H472 H 0.9131 0.52657 0.90065 0.0
H473 H 0.96748 0.55602 0.88556 0.0
H474 H 0.96302 0.47531 0.84061 0.0
H475 H 0.90923 0.446 0.85562 0.0
C476 C 0.05148 0.53671 0.85434 0.0
C477 C 0.06493 0.56472 0.83626 0.0
C478 C 0.02064 0.52192 0.86333 0.0
C479 C 0.00254 0.53481 0.8546 0.0
C480 C 0.01606 0.56323 0.83748 0.0
C481 C 0.047 0.57803 0.82824 0.0
C482 C 0.92376 0.51521 0.88742 0.0
C483 C 0.90691 0.48392 0.87956 0.0
C484 C 0.95478 0.53207 0.87868 0.0
C485 C 0.96944 0.51782 0.86228 0.0
C486 C 0.95241 0.48675 0.85379 0.0
C487 C 0.92152 0.47001 0.86226 0.0
H488 H 0.43872 0.05705 0.95432 0.0
H489 H 0.48523 0.06975 0.05539 0.0
H490 H 0.4066 0.00256 0.96746 0.0
H491 H 0.45261 0.01571 0.06886 0.0
H492 H 0.36941 0.91989 0.08931 0.0
H493 H 0.39092 0.97416 0.07586 0.0
H494 H 0.42825 0.9623 0.97696 0.0
H495 H 0.40763 0.90842 0.99074 0.0
C496 C 0.44156 0.04831 0.97962 0.0
C497 C 0.4645 0.0674 1.00377 0.0
C498 C 0.4233 0.01728 0.98706 0.0
C499 C 0.42721 0.00522 1.01917 0.0
C500 C 0.44905 0.02464 0.04409 0.0
C501 C 0.46779 0.05541 0.03628 0.0
C502 C 0.38186 0.92885 0.06451 0.0
C503 C 0.38712 0.91014 0.04118 0.0
C504 C 0.3941 0.95976 0.05687 0.0
C505 C 0.41099 0.97212 0.02535 0.0
C506 C 0.415 0.95311 1.00124 0.0
C507 C 0.40344 0.92243 1.00927 0.0
H508 H 0.45299 0.52586 0.14541 0.0
H509 H 0.36526 0.45023 0.17454 0.0
H510 H 0.47749 0.49714 0.1625 0.0
H511 H 0.38997 0.42181 0.19459 0.0
H512 H 0.44384 0.37042 0.20065 0.0
H513 H 0.41585 0.39557 0.18054 0.0
H514 H 0.49186 0.48244 0.21321 0.0
H515 H 0.52014 0.4575 0.23037 0.0
C516 C 0.43903 0.50307 0.1559 0.0
C517 C 0.40738 0.49027 0.15902 0.0
C518 C 0.45306 0.48663 0.16611 0.0
C519 C 0.43591 0.45732 0.18091 0.0
C520 C 0.40396 0.44421 0.18318 0.0
C521 C 0.38978 0.46046 0.1719 0.0
C522 C 0.45431 0.39488 0.2034 0.0
C523 C 0.48419 0.41218 0.21647 0.0
C524 C 0.43831 0.40933 0.19209 0.0
C525 C 0.45174 0.44122 0.1945 0.0
C526 C 0.48111 0.45806 0.20949 0.0
C527 C 0.49729 0.44378 0.21973 0.0
H528 H 0.17483 0.5078 0.29698 0.0
H529 H 0.21604 0.47479 0.37276 0.0
H530 H 0.20451 0.50279 0.24869 0.0
H531 H 0.24593 0.46981 0.32412 0.0
H532 H 0.32426 0.51619 0.23767 0.0
H533 H 0.28913 0.5087 0.28655 0.0
H534 H 0.21318 0.46579 0.21315 0.0
H535 H 0.24838 0.47327 0.16404 0.0
C536 C 0.18991 0.49903 0.30325 0.0
C537 C 0.19322 0.49188 0.33877 0.0
C538 C 0.20679 0.49597 0.27549 0.0
C539 C 0.22766 0.486 0.28258 0.0
C540 C 0.23018 0.47776 0.31789 0.0
C541 C 0.21295 0.48045 0.34568 0.0
C542 C 0.30003 0.50476 0.23199 0.0
C543 C 0.28916 0.49556 0.19686 0.0
C544 C 0.27988 0.50028 0.2601 0.0
C545 C 0.24838 0.48677 0.2537 0.0
C546 C 0.23737 0.4765 0.21885 0.0
C547 C 0.25752 0.48067 0.19076 0.0
H548 H 0.75851 0.2455 0.34135 0.0
H549 H 0.79638 0.32034 0.41671 0.0
H550 H 0.72863 0.21077 0.38973 0.0
H551 H 0.7666 0.28576 0.46478 0.0
H552 H 0.72245 0.21255 0.54938 0.0
H553 H 0.75844 0.24094 0.50129 0.0
H554 H 0.68419 0.20559 0.42525 0.0
H555 H 0.64833 0.17729 0.47304 0.0
C556 C 0.76087 0.25444 0.36829 0.0
C557 C 0.77963 0.28571 0.37513 0.0
C558 C 0.74364 0.23459 0.39594 0.0
C559 C 0.74515 0.24556 0.43103 0.0
C560 C 0.76512 0.27654 0.43814 0.0
C561 C 0.78204 0.2964 0.4105 0.0
C562 C 0.71389 0.2105 0.52231 0.0
C563 C 0.6825 0.19285 0.5151 0.0
C564 C 0.73448 0.22685 0.49481 0.0
C565 C 0.72414 0.22556 0.4595 0.0
C566 C 0.69294 0.20683 0.45208 0.0
C567 C 0.67235 0.19079 0.47956 0.0
H568 H 0.50832 0.73857 0.70449 0.0
H569 H 0.47458 0.66385 0.62913 0.0
H570 H 0.51424 0.77318 0.65546 0.0
H571 H 0.48031 0.69818 0.58052 0.0
H572 H 0.50687 0.76932 0.49494 0.0
H573 H 0.51589 0.74266 0.54387 0.0
H574 H 0.47571 0.7777 0.61883 0.0
H575 H 0.46689 0.80433 0.5703 0.0
C576 C 0.50274 0.72965 0.67743 0.0
C577 C 0.4907 0.69843 0.67076 0.0
C578 C 0.50596 0.74941 0.6494 0.0
C579 C 0.49756 0.73838 0.61412 0.0
C580 C 0.48725 0.7075 0.60726 0.0
C581 C 0.48375 0.68776 0.63524 0.0
C582 C 0.50045 0.77172 0.52196 0.0
C583 C 0.48587 0.78868 0.52865 0.0
C584 C 0.5055 0.75637 0.54996 0.0
C585 C 0.49641 0.75797 0.58523 0.0
C586 C 0.48329 0.77623 0.5921 0.0
C587 C 0.47798 0.79129 0.56415 0.0
H588 H 0.76451 0.50039 0.87928 0.0
H589 H 0.79467 0.45528 0.80492 0.0
H590 H 0.73569 0.50725 0.83116 0.0
H591 H 0.76598 0.46224 0.75699 0.0
H592 H 0.72731 0.49807 0.67226 0.0
H593 H 0.76237 0.50208 0.71994 0.0
H594 H 0.68882 0.46974 0.79678 0.0
H595 H 0.65384 0.46561 0.74934 0.0
C596 C 0.76538 0.49235 0.85259 0.0
C597 C 0.78172 0.47711 0.84599 0.0
C598 C 0.74876 0.49617 0.8251 0.0
C599 C 0.7485 0.4852 0.79034 0.0
C600 C 0.76595 0.47118 0.7834 0.0
C601 C 0.78223 0.46703 0.81095 0.0
C602 C 0.71876 0.49228 0.69943 0.0
C603 C 0.68775 0.48135 0.70698 0.0
C604 C 0.73878 0.49442 0.72666 0.0
C605 C 0.72831 0.48614 0.76207 0.0
C606 C 0.69764 0.47655 0.76985 0.0
C607 C 0.67756 0.47402 0.7426 0.0
H608 H 0.31003 0.80138 0.96598 0.0
H609 H 0.23592 0.76052 0.04218 0.0
H610 H 0.27524 0.77202 0.91778 0.0
H611 H 0.20093 0.73104 0.99364 0.0
H612 H 0.20248 0.72669 0.83325 0.0
H613 H 0.22965 0.76264 0.88198 0.0
H614 H 0.19674 0.68795 0.95677 0.0
H615 H 0.16969 0.65222 0.90841 0.0
C616 C 0.28618 0.78647 0.97237 0.0
C617 C 0.27581 0.78308 1.008 0.0
C618 C 0.26618 0.7698 0.94464 0.0
C619 C 0.23534 0.7491 0.95188 0.0
C620 C 0.22464 0.74665 0.98728 0.0
C621 C 0.24463 0.76362 1.01504 0.0
C622 C 0.2006 0.71804 0.86022 0.0
C623 C 0.18416 0.68658 0.86689 0.0
C624 C 0.21627 0.7386 0.88807 0.0
C625 C 0.21545 0.72813 0.92321 0.0
C626 C 0.19762 0.69682 0.93013 0.0
C627 C 0.1823 0.6763 0.9023 0.0
H628 H 0.46593 0.2531 0.21135 0.0
H629 H 0.51032 0.32865 0.13791 0.0
H630 H 0.4584 0.21781 0.16239 0.0
H631 H 0.50279 0.29341 0.08918 0.0
H632 H 0.49991 0.17836 0.07945 0.0
H633 H 0.49545 0.20858 0.12747 0.0
H634 H 0.46349 0.2505 0.05145 0.0
H635 H 0.46793 0.22011 1.00311 0.0
C636 C 0.47365 0.26215 0.1847 0.0
C637 C 0.48895 0.29371 0.17861 0.0
C638 C 0.46945 0.24194 0.15671 0.0
C639 C 0.48012 0.25284 0.12197 0.0
C640 C 0.49407 0.28427 0.11555 0.0
C641 C 0.49856 0.30448 0.14357 0.0
C642 C 0.49152 0.1937 0.07299 0.0
C643 C 0.48447 0.19698 0.0374 0.0
C644 C 0.48877 0.21088 0.10059 0.0
C645 C 0.47921 0.23199 0.09324 0.0
C646 C 0.47114 0.23455 0.05786 0.0
C647 C 0.47353 0.21705 0.03024 0.0
loop_
_geom_bond_atom_site_label_1
_geom_bond_atom_site_label_2
_geom_bond_distance
_geom_bond_site_symmetry_2
_ccdc_geom_bond_type
C0 O2 1.247 . S
C0 O4 1.258 . S
C1 O8 1.247 . S
C1 O9 1.258 . S
O2 C0 1.247 . S
O2 Zn3 2.028 . S
Zn3 O2 2.028 . S
Zn3 O7 2.035 . S
Zn3 O9 2.035 . S
Zn3 O10 2.028 . S
O4 C0 1.258 . S
O4 Zn5 2.035 . S
Zn5 O4 2.035 . S
Zn5 O6 2.028 . S
Zn5 O8 2.028 . S
Zn5 O11 2.035 . S
O6 Zn5 2.028 . S
O6 C12 1.247 . S
O7 Zn3 2.035 . S
O7 C12 1.258 . S
O8 C1 1.247 . S
O8 Zn5 2.028 . S
O9 C1 1.258 . S
O9 Zn3 2.035 . S
O10 Zn3 2.028 . S
O10 C13 1.247 . S
O11 Zn5 2.035 . S
O11 C13 1.258 . S
C12 O6 1.247 . S
C12 O7 1.258 . S
C13 O10 1.247 . S
C13 O11 1.258 . S
C14 O16 1.247 . S
C14 O18 1.258 . S
C15 O22 1.247 . S
C15 O23 1.258 . S
O16 C14 1.247 . S
O16 Zn17 2.028 . S
Zn17 O16 2.028 . S
Zn17 O21 2.035 . S
Zn17 O23 2.035 . S
Zn17 O24 2.028 . S
O18 C14 1.258 . S
O18 Zn19 2.035 . S
Zn19 O18 2.035 . S
Zn19 O20 2.028 . S
Zn19 O22 2.028 . S
Zn19 O25 2.035 . S
O20 Zn19 2.028 . S
O20 C26 1.247 . S
O21 Zn17 2.035 . S
O21 C26 1.258 . S
O22 C15 1.247 . S
O22 Zn19 2.028 . S
O23 C15 1.258 . S
O23 Zn17 2.035 . S
O24 Zn17 2.028 . S
O24 C27 1.247 . S
O25 Zn19 2.035 . S
O25 C27 1.258 . S
C26 O20 1.247 . S
C26 O21 1.258 . S
C27 O24 1.247 . S
C27 O25 1.258 . S
C28 O30 1.247 . S
C28 O32 1.258 . S
C29 O36 1.247 . S
C29 O37 1.258 . S
O30 C28 1.247 . S
O30 Zn31 2.028 . S
Zn31 O30 2.028 . S
Zn31 O35 2.035 . S
Zn31 O37 2.035 . S
Zn31 O38 2.028 . S
O32 C28 1.258 . S
O32 Zn33 2.035 . S
Zn33 O32 2.035 . S
Zn33 O34 2.028 . S
Zn33 O36 2.028 . S
Zn33 O39 2.035 . S
O34 Zn33 2.028 . S
O34 C40 1.247 . S
O35 Zn31 2.035 . S
O35 C40 1.258 . S
O36 C29 1.247 . S
O36 Zn33 2.028 . S
O37 C29 1.258 . S
O37 Zn31 2.035 . S
O38 Zn31 2.028 . S
O38 C41 1.247 . S
O39 Zn33 2.035 . S
O39 C41 1.258 . S
C40 O34 1.247 . S
C40 O35 1.258 . S
C41 O38 1.247 . S
C41 O39 1.258 . S
C42 O44 1.247 . S
C42 O46 1.258 . S
C43 O50 1.247 . S
C43 O51 1.258 . S
O44 C42 1.247 . S
O44 Zn45 2.028 . S
Zn45 O44 2.028 . S
Zn45 O49 2.035 . S
Zn45 O51 2.035 . S
Zn45 O52 2.028 . S
O46 C42 1.258 . S
O46 Zn47 2.035 . S
Zn47 O46 2.035 . S
Zn47 O48 2.028 . S
Zn47 O50 2.028 . S
Zn47 O53 2.035 . S
O48 Zn47 2.028 . S
O48 C54 1.247 . S
O49 Zn45 2.035 . S
O49 C54 1.258 . S
O50 C43 1.247 . S
O50 Zn47 2.028 . S
O51 C43 1.258 . S
O51 Zn45 2.035 . S
O52 Zn45 2.028 . S
O52 C55 1.247 . S
O53 Zn47 2.035 . S
O53 C55 1.258 . S
C54 O48 1.247 . S
C54 O49 1.258 . S
C55 O52 1.247 . S
C55 O53 1.258 . S
C56 O58 1.247 . S
C56 O60 1.258 . S
C57 O64 1.247 . S
C57 O65 1.258 . S
O58 C56 1.247 . S
O58 Zn59 2.028 . S
Zn59 O58 2.028 . S
Zn59 O63 2.035 . S
Zn59 O65 2.035 . S
Zn59 O66 2.028 . S
O60 C56 1.258 . S
O60 Zn61 2.035 . S
Zn61 O60 2.035 . S
Zn61 O62 2.028 . S
Zn61 O64 2.028 . S
Zn61 O67 2.035 . S
O62 Zn61 2.028 . S
O62 C68 1.247 . S
O63 Zn59 2.035 . S
O63 C68 1.258 . S
O64 C57 1.247 . S
O64 Zn61 2.028 . S
O65 C57 1.258 . S
O65 Zn59 2.035 . S
O66 Zn59 2.028 . S
O66 C69 1.247 . S
O67 Zn61 2.035 . S
O67 C69 1.258 . S
C68 O62 1.247 . S
C68 O63 1.258 . S
C69 O66 1.247 . S
C69 O67 1.258 . S
C70 O72 1.247 . S
C70 O74 1.258 . S
C71 O78 1.247 . S
C71 O79 1.258 . S
O72 C70 1.247 . S
O72 Zn73 2.028 . S
Zn73 O72 2.028 . S
Zn73 O77 2.035 . S
Zn73 O79 2.035 . S
Zn73 O80 2.028 . S
O74 C70 1.258 . S
O74 Zn75 2.035 . S
Zn75 O74 2.035 . S
Zn75 O76 2.028 . S
Zn75 O78 2.028 . S
Zn75 O81 2.035 . S
O76 Zn75 2.028 . S
O76 C82 1.247 . S
O77 Zn73 2.035 . S
O77 C82 1.258 . S
O78 C71 1.247 . S
O78 Zn75 2.028 . S
O79 C71 1.258 . S
O79 Zn73 2.035 . S
O80 Zn73 2.028 . S
O80 C83 1.247 . S
O81 Zn75 2.035 . S
O81 C83 1.258 . S
C82 O76 1.247 . S
C82 O77 1.258 . S
C83 O80 1.247 . S
C83 O81 1.258 . S
C84 O86 1.247 . S
C84 O88 1.258 . S
C85 O92 1.247 . S
C85 O93 1.258 . S
O86 C84 1.247 . S
O86 Zn87 2.028 . S
Zn87 O86 2.028 . S
Zn87 O91 2.035 . S
Zn87 O93 2.035 . S
Zn87 O94 2.028 . S
O88 C84 1.258 . S
O88 Zn89 2.035 . S
Zn89 O88 2.035 . S
Zn89 O90 2.028 . S
Zn89 O92 2.028 . S
Zn89 O95 2.035 . S
O90 Zn89 2.028 . S
O90 C96 1.247 . S
O91 Zn87 2.035 . S
O91 C96 1.258 . S
O92 C85 1.247 . S
O92 Zn89 2.028 . S
O93 C85 1.258 . S
O93 Zn87 2.035 . S
O94 Zn87 2.028 . S
O94 C97 1.247 . S
O95 Zn89 2.035 . S
O95 C97 1.258 . S
C96 O90 1.247 . S
C96 O91 1.258 . S
C97 O94 1.247 . S
C97 O95 1.258 . S
C98 O100 1.247 . S
C98 O102 1.258 . S
C99 O106 1.247 . S
C99 O107 1.258 . S
O100 C98 1.247 . S
O100 Zn101 2.028 . S
Zn101 O100 2.028 . S
Zn101 O105 2.035 . S
Zn101 O107 2.035 . S
Zn101 O108 2.028 . S
O102 C98 1.258 . S
O102 Zn103 2.035 . S
Zn103 O102 2.035 . S
Zn103 O104 2.028 . S
Zn103 O106 2.028 . S
Zn103 O109 2.035 . S
O104 Zn103 2.028 . S
O104 C110 1.247 . S
O105 Zn101 2.035 . S
O105 C110 1.258 . S
O106 C99 1.247 . S
O106 Zn103 2.028 . S
O107 C99 1.258 . S
O107 Zn101 2.035 . S
O108 Zn101 2.028 . S
O108 C111 1.247 . S
O109 Zn103 2.035 . S
O109 C111 1.258 . S
C110 O104 1.247 . S
C110 O105 1.258 . S
C111 O108 1.247 . S
C111 O109 1.258 . S
C112 O114 1.247 . S
C112 O116 1.258 . S
C113 O120 1.247 . S
C113 O121 1.258 . S
O114 C112 1.247 . S
O114 Zn115 2.028 . S
Zn115 O114 2.028 . S
Zn115 O119 2.035 . S
Zn115 O121 2.035 . S
Zn115 O122 2.028 . S
O116 C112 1.258 . S
O116 Zn117 2.035 . S
Zn117 O116 2.035 . S
Zn117 O118 2.028 . S
Zn117 O120 2.028 . S
Zn117 O123 2.035 . S
O118 Zn117 2.028 . S
O118 C124 1.247 . S
O119 Zn115 2.035 . S
O119 C124 1.258 . S
O120 C113 1.247 . S
O120 Zn117 2.028 . S
O121 C113 1.258 . S
O121 Zn115 2.035 . S
O122 Zn115 2.028 . S
O122 C125 1.247 . S
O123 Zn117 2.035 . S
O123 C125 1.258 . S
C124 O118 1.247 . S
C124 O119 1.258 . S
C125 O122 1.247 . S
C125 O123 1.258 . S
C126 O128 1.247 . S
C126 O130 1.258 . S
C127 O134 1.247 . S
C127 O135 1.258 . S
O128 C126 1.247 . S
O128 Zn129 2.028 . S
Zn129 O128 2.028 . S
Zn129 O133 2.035 . S
Zn129 O135 2.035 . S
Zn129 O136 2.028 . S
O130 C126 1.258 . S
O130 Zn131 2.035 . S
Zn131 O130 2.035 . S
Zn131 O132 2.028 . S
Zn131 O134 2.028 . S
Zn131 O137 2.035 . S
O132 Zn131 2.028 . S
O132 C138 1.247 . S
O133 Zn129 2.035 . S
O133 C138 1.258 . S
O134 C127 1.247 . S
O134 Zn131 2.028 . S
O135 C127 1.258 . S
O135 Zn129 2.035 . S
O136 Zn129 2.028 . S
O136 C139 1.247 . S
O137 Zn131 2.035 . S
O137 C139 1.258 . S
C138 O132 1.247 . S
C138 O133 1.258 . S
C139 O136 1.247 . S
C139 O137 1.258 . S
C140 O142 1.247 . S
C140 O144 1.258 . S
C141 O148 1.247 . S
C141 O149 1.258 . S
O142 C140 1.247 . S
O142 Zn143 2.028 . S
Zn143 O142 2.028 . S
Zn143 O147 2.035 . S
Zn143 O149 2.035 . S
Zn143 O150 2.028 . S
O144 C140 1.258 . S
O144 Zn145 2.035 . S
Zn145 O144 2.035 . S
Zn145 O146 2.028 . S
Zn145 O148 2.028 . S
Zn145 O151 2.035 . S
O146 Zn145 2.028 . S
O146 C152 1.247 . S
O147 Zn143 2.035 . S
O147 C152 1.258 . S
O148 C141 1.247 . S
O148 Zn145 2.028 . S
O149 C141 1.258 . S
O149 Zn143 2.035 . S
O150 Zn143 2.028 . S
O150 C153 1.247 . S
O151 Zn145 2.035 . S
O151 C153 1.258 . S
C152 O146 1.247 . S
C152 O147 1.258 . S
C153 O150 1.247 . S
C153 O151 1.258 . S
C154 O156 1.247 . S
C154 O158 1.258 . S
C155 O162 1.247 . S
C155 O163 1.258 . S
O156 C154 1.247 . S
O156 Zn157 2.028 . S
Zn157 O156 2.028 . S
Zn157 O161 2.035 . S
Zn157 O163 2.035 . S
Zn157 O164 2.028 . S
O158 C154 1.258 . S
O158 Zn159 2.035 . S
Zn159 O158 2.035 . S
Zn159 O160 2.028 . S
Zn159 O162 2.028 . S
Zn159 O165 2.035 . S
O160 Zn159 2.028 . S
O160 C166 1.247 . S
O161 Zn157 2.035 . S
O161 C166 1.258 . S
O162 C155 1.247 . S
O162 Zn159 2.028 . S
O163 C155 1.258 . S
O163 Zn157 2.035 . S
O164 Zn157 2.028 . S
O164 C167 1.247 . S
O165 Zn159 2.035 . S
O165 C167 1.258 . S
C166 O160 1.247 . S
C166 O161 1.258 . S
C167 O164 1.247 . S
C167 O165 1.258 . S
H168 C176 0.950 . S
H169 C181 0.950 . S
H170 C178 0.950 . S
H171 C180 0.950 . S
H172 C182 0.950 . S
H173 C184 0.950 . S
H174 C186 0.950 . S
H175 C187 0.950 . S
C176 H168 0.950 . S
C176 C177 1.386 . S
C176 C178 1.391 . S
C177 C176 1.386 . S
C177 C181 1.393 . S
C178 H170 0.950 . S
C178 C176 1.391 . S
C178 C179 1.400 . S
C179 C178 1.400 . S
C179 C180 1.398 . S
C179 C185 1.491 . S
C180 H171 0.950 . S
C180 C179 1.398 . S
C180 C181 1.391 . S
C181 H169 0.950 . S
C181 C177 1.393 . S
C181 C180 1.391 . S
C182 H172 0.950 . S
C182 C183 1.386 . S
C182 C184 1.391 . S
C183 C182 1.386 . S
C183 C187 1.393 . S
C184 H173 0.950 . S
C184 C182 1.391 . S
C184 C185 1.400 . S
C185 C179 1.491 . S
C185 C184 1.400 . S
C185 C186 1.398 . S
C186 H174 0.950 . S
C186 C185 1.398 . S
C186 C187 1.391 . S
C187 H175 0.950 . S
C187 C183 1.393 . S
C187 C186 1.391 . S
H188 C196 0.950 . S
H189 C201 0.950 . S
H190 C198 0.950 . S
H191 C200 0.950 . S
H192 C202 0.950 . S
H193 C204 0.950 . S
H194 C206 0.950 . S
H195 C207 0.950 . S
C196 H188 0.950 . S
C196 C197 1.386 . S
C196 C198 1.391 . S
C197 C196 1.386 . S
C197 C201 1.393 . S
C198 H190 0.950 . S
C198 C196 1.391 . S
C198 C199 1.400 . S
C199 C198 1.400 . S
C199 C200 1.398 . S
C199 C205 1.491 . S
C200 H191 0.950 . S
C200 C199 1.398 . S
C200 C201 1.391 . S
C201 H189 0.950 . S
C201 C197 1.393 . S
C201 C200 1.391 . S
C202 H192 0.950 . S
C202 C203 1.386 . S
C202 C204 1.391 . S
C203 C202 1.386 . S
C203 C207 1.393 . S
C204 H193 0.950 . S
C204 C202 1.391 . S
C204 C205 1.400 . S
C205 C199 1.491 . S
C205 C204 1.400 . S
C205 C206 1.398 . S
C206 H194 0.950 . S
C206 C205 1.398 . S
C206 C207 1.391 . S
C207 H195 0.950 . S
C207 C203 1.393 . S
C207 C206 1.391 . S
H208 C216 0.950 . S
H209 C221 0.950 . S
H210 C218 0.950 . S
H211 C220 0.950 . S
H212 C222 0.950 . S
H213 C224 0.950 . S
H214 C226 0.950 . S
H215 C227 0.950 . S
C216 H208 0.950 . S
C216 C217 1.386 . S
C216 C218 1.391 . S
C217 C216 1.386 . S
C217 C221 1.393 . S
C218 H210 0.950 . S
C218 C216 1.391 . S
C218 C219 1.400 . S
C219 C218 1.400 . S
C219 C220 1.398 . S
C219 C225 1.491 . S
C220 H211 0.950 . S
C220 C219 1.398 . S
C220 C221 1.391 . S
C221 H209 0.950 . S
C221 C217 1.393 . S
C221 C220 1.391 . S
C222 H212 0.950 . S
C222 C223 1.386 . S
C222 C224 1.391 . S
C223 C222 1.386 . S
C223 C227 1.393 . S
C224 H213 0.950 . S
C224 C222 1.391 . S
C224 C225 1.400 . S
C225 C219 1.491 . S
C225 C224 1.400 . S
C225 C226 1.398 . S
C226 H214 0.950 . S
C226 C225 1.398 . S
C226 C227 1.391 . S
C227 H215 0.950 . S
C227 C223 1.393 . S
C227 C226 1.391 . S
H228 C236 0.950 . S
H229 C241 0.950 . S
H230 C238 0.950 . S
H231 C240 0.950 . S
H232 C242 0.950 . S
H233 C244 0.950 . S
H234 C246 0.950 . S
H235 C247 0.950 . S
C236 H228 0.950 . S
C236 C237 1.386 . S
C236 C238 1.391 . S
C237 C236 1.386 . S
C237 C241 1.393 . S
C238 H230 0.950 . S
C238 C236 1.391 . S
C238 C239 1.400 . S
C239 C238 1.400 . S
C239 C240 1.398 . S
C239 C245 1.491 . S
C240 H231 0.950 . S
C240 C239 1.398 . S
C240 C241 1.391 . S
C241 H229 0.950 . S
C241 C237 1.393 . S
C241 C240 1.391 . S
C242 H232 0.950 . S
C242 C243 1.386 . S
C242 C244 1.391 . S
C243 C242 1.386 . S
C243 C247 1.393 . S
C244 H233 0.950 . S
C244 C242 1.391 . S
C244 C245 1.400 . S
C245 C239 1.491 . S
C245 C244 1.400 . S
C245 C246 1.398 . S
C246 H234 0.950 . S
C246 C245 1.398 . S
C246 C247 1.391 . S
C247 H235 0.950 . S
C247 C243 1.393 . S
C247 C246 1.391 . S
H248 C256 0.950 . S
H249 C261 0.950 . S
H250 C258 0.950 . S
H251 C260 0.950 . S
H252 C262 0.950 . S
H253 C264 0.950 . S
H254 C266 0.950 . S
H255 C267 0.950 . S
C256 H248 0.950 . S
C256 C257 1.386 . S
C256 C258 1.391 . S
C257 C256 1.386 . S
C257 C261 1.393 . S
C258 H250 0.950 . S
C258 C256 1.391 . S
C258 C259 1.400 . S
C259 C258 1.400 . S
C259 C260 1.398 . S
C259 C265 1.491 . S
C260 H251 0.950 . S
C260 C259 1.398 . S
C260 C261 1.391 . S
C261 H249 0.950 . S
C261 C257 1.393 . S
C261 C260 1.391 . S
C262 H252 0.950 . S
C262 C263 1.386 . S
C262 C264 1.391 . S
C263 C262 1.386 . S
C263 C267 1.393 . S
C264 H253 0.950 . S
C264 C262 1.391 . S
C264 C265 1.400 . S
C265 C259 1.491 . S
C265 C264 1.400 . S
C265 C266 1.398 . S
C266 H254 0.950 . S
C266 C265 1.398 . S
C266 C267 1.391 . S
C267 H255 0.950 . S
C267 C263 1.393 . S
C267 C266 1.391 . S
H268 C276 0.950 . S
H269 C281 0.950 . S
H270 C278 0.950 . S
H271 C280 0.950 . S
H272 C282 0.950 . S
H273 C284 0.950 . S
H274 C286 0.950 . S
H275 C287 0.950 . S
C276 H268 0.950 . S
C276 C277 1.386 . S
C276 C278 1.391 . S
C277 C276 1.386 . S
C277 C281 1.393 . S
C278 H270 0.950 . S
C278 C276 1.391 . S
C278 C279 1.400 . S
C279 C278 1.400 . S
C279 C280 1.398 . S
C279 C285 1.491 . S
C280 H271 0.950 . S
C280 C279 1.398 . S
C280 C281 1.391 . S
C281 H269 0.950 . S
C281 C277 1.393 . S
C281 C280 1.391 . S
C282 H272 0.950 . S
C282 C283 1.386 . S
C282 C284 1.391 . S
C283 C282 1.386 . S
C283 C287 1.393 . S
C284 H273 0.950 . S
C284 C282 1.391 . S
C284 C285 1.400 . S
C285 C279 1.491 . S
C285 C284 1.400 . S
C285 C286 1.398 . S
C286 H274 0.950 . S
C286 C285 1.398 . S
C286 C287 1.391 . S
C287 H275 0.950 . S
C287 C283 1.393 . S
C287 C286 1.391 . S
H288 C296 0.950 . S
H289 C301 0.950 . S
H290 C298 0.950 . S
H291 C300 0.950 . S
H292 C302 0.950 . S
H293 C304 0.950 . S
H294 C306 0.950 . S
H295 C307 0.950 . S
C296 H288 0.950 . S
C296 C297 1.386 . S
C296 C298 1.391 . S
C297 C296 1.386 . S
C297 C301 1.393 . S
C298 H290 0.950 . S
C298 C296 1.391 . S
C298 C299 1.400 . S
C299 C298 1.400 . S
C299 C300 1.398 . S
C299 C305 1.491 . S
C300 H291 0.950 . S
C300 C299 1.398 . S
C300 C301 1.391 . S
C301 H289 0.950 . S
C301 C297 1.393 . S
C301 C300 1.391 . S
C302 H292 0.950 . S
C302 C303 1.386 . S
C302 C304 1.391 . S
C303 C302 1.386 . S
C303 C307 1.393 . S
C304 H293 0.950 . S
C304 C302 1.391 . S
C304 C305 1.400 . S
C305 C299 1.491 . S
C305 C304 1.400 . S
C305 C306 1.398 . S
C306 H294 0.950 . S
C306 C305 1.398 . S
C306 C307 1.391 . S
C307 H295 0.950 . S
C307 C303 1.393 . S
C307 C306 1.391 . S
H308 C316 0.950 . S
H309 C321 0.950 . S
H310 C318 0.950 . S
H311 C320 0.950 . S
H312 C322 0.950 . S
H313 C324 0.950 . S
H314 C326 0.950 . S
H315 C327 0.950 . S
C316 H308 0.950 . S
C316 C317 1.386 . S
C316 C318 1.391 . S
C317 C316 1.386 . S
C317 C321 1.393 . S
C318 H310 0.950 . S
C318 C316 1.391 . S
C318 C319 1.400 . S
C319 C318 1.400 . S
C319 C320 1.398 . S
C319 C325 1.491 . S
C320 H311 0.950 . S
C320 C319 1.398 . S
C320 C321 1.391 . S
C321 H309 0.950 . S
C321 C317 1.393 . S
C321 C320 1.391 . S
C322 H312 0.950 . S
C322 C323 1.386 . S
C322 C324 1.391 . S
C323 C322 1.386 . S
C323 C327 1.393 . S
C324 H313 0.950 . S
C324 C322 1.391 . S
C324 C325 1.400 . S
C325 C319 1.491 . S
C325 C324 1.400 . S
C325 C326 1.398 . S
C326 H314 0.950 . S
C326 C325 1.398 . S
C326 C327 1.391 . S
C327 H315 0.950 . S
C327 C323 1.393 . S
C327 C326 1.391 . S
H328 C336 0.950 1_554 S
H329 C341 0.950 . S
H330 C338 0.950 . S
H331 C340 0.950 . S
H332 C342 0.950 . S
H333 C344 0.950 . S
H334 C346 0.950 . S
H335 C347 0.950 . S
C336 H328 0.950 1_556 S
C336 C337 1.386 1_556 S
C336 C338 1.391 . S
C337 C336 1.386 1_554 S
C337 C341 1.393 1_554 S
C338 H330 0.950 . S
C338 C336 1.391 . S
C338 C339 1.400 . S
C339 C338 1.400 . S
C339 C340 1.398 . S
C339 C345 1.491 . S
C340 H331 0.950 . S
C340 C339 1.398 . S
C340 C341 1.391 . S
C341 H329 0.950 . S
C341 C337 1.393 1_556 S
C341 C340 1.391 . S
C342 H332 0.950 . S
C342 C343 1.386 . S
C342 C344 1.391 . S
C343 C342 1.386 . S
C343 C347 1.393 . S
C344 H333 0.950 . S
C344 C342 1.391 . S
C344 C345 1.400 . S
C345 C339 1.491 . S
C345 C344 1.400 . S
C345 C346 1.398 . S
C346 H334 0.950 . S
C346 C345 1.398 . S
C346 C347 1.391 . S
C347 H335 0.950 . S
C347 C343 1.393 . S
C347 C346 1.391 . S
H348 C356 0.950 . S
H349 C361 0.950 . S
H350 C358 0.950 . S
H351 C360 0.950 . S
H352 C362 0.950 1_556 S
H353 C364 0.950 . S
H354 C366 0.950 . S
H355 C367 0.950 . S
C356 H348 0.950 . S
C356 C357 1.386 . S
C356 C358 1.391 . S
C357 C356 1.386 . S
C357 C361 1.393 . S
C358 H350 0.950 . S
C358 C356 1.391 . S
C358 C359 1.400 . S
C359 C358 1.400 . S
C359 C360 1.398 . S
C359 C365 1.491 . S
C360 H351 0.950 . S
C360 C359 1.398 . S
C360 C361 1.391 . S
C361 H349 0.950 . S
C361 C357 1.393 . S
C361 C360 1.391 . S
C362 H352 0.950 1_554 S
C362 C363 1.386 1_554 S
C362 C364 1.391 . S
C363 C362 1.386 1_556 S
C363 C367 1.393 1_556 S
C364 H353 0.950 . S
C364 C362 1.391 . S
C364 C365 1.400 . S
C365 C359 1.491 . S
C365 C364 1.400 . S
C365 C366 1.398 . S
C366 H354 0.950 . S
C366 C365 1.398 . S
C366 C367 1.391 . S
C367 H355 0.950 . S
C367 C363 1.393 1_554 S
C367 C366 1.391 . S
H368 C376 0.950 . S
H369 C381 0.950 . S
H370 C378 0.950 . S
H371 C380 0.950 . S
H372 C382 0.950 . S
H373 C384 0.950 . S
H374 C386 0.950 . S
H375 C387 0.950 . S
C376 H368 0.950 . S
C376 C377 1.386 . S
C376 C378 1.391 . S
C377 C376 1.386 . S
C377 C381 1.393 . S
C378 H370 0.950 . S
C378 C376 1.391 . S
C378 C379 1.400 . S
C379 C378 1.400 . S
C379 C380 1.398 . S
C379 C385 1.491 . S
C380 H371 0.950 . S
C380 C379 1.398 . S
C380 C381 1.391 . S
C381 H369 0.950 . S
C381 C377 1.393 . S
C381 C380 1.391 . S
C382 H372 0.950 . S
C382 C383 1.386 . S
C382 C384 1.391 . S
C383 C382 1.386 . S
C383 C387 1.393 . S
C384 H373 0.950 . S
C384 C382 1.391 . S
C384 C385 1.400 . S
C385 C379 1.491 . S
C385 C384 1.400 . S
C385 C386 1.398 . S
C386 H374 0.950 . S
C386 C385 1.398 . S
C386 C387 1.391 . S
C387 H375 0.950 . S
C387 C383 1.393 . S
C387 C386 1.391 . S
H388 C396 0.950 . S
H389 C401 0.950 . S
H390 C398 0.950 . S
H391 C400 0.950 . S
H392 C402 0.950 . S
H393 C404 0.950 . S
H394 C406 0.950 . S
H395 C407 0.950 . S
C396 H388 0.950 . S
C396 C397 1.386 . S
C396 C398 1.391 . S
C397 C396 1.386 . S
C397 C401 1.393 . S
C398 H390 0.950 . S
C398 C396 1.391 . S
C398 C399 1.400 . S
C399 C398 1.400 . S
C399 C400 1.398 . S
C399 C405 1.491 . S
C400 H391 0.950 . S
C400 C399 1.398 . S
C400 C401 1.391 . S
C401 H389 0.950 . S
C401 C397 1.393 . S
C401 C400 1.391 . S
C402 H392 0.950 . S
C402 C403 1.386 . S
C402 C404 1.391 . S
C403 C402 1.386 . S
C403 C407 1.393 . S
C404 H393 0.950 . S
C404 C402 1.391 . S
C404 C405 1.400 . S
C405 C399 1.491 . S
C405 C404 1.400 . S
C405 C406 1.398 . S
C406 H394 0.950 . S
C406 C405 1.398 . S
C406 C407 1.391 . S
C407 H395 0.950 . S
C407 C403 1.393 . S
C407 C406 1.391 . S
H408 C416 0.950 . S
H409 C421 0.950 . S
H410 C418 0.950 . S
H411 C420 0.950 1_455 S
H412 C422 0.950 . S
H413 C424 0.950 . S
H414 C426 0.950 1_655 S
H415 C427 0.950 . S
C416 H408 0.950 . S
C416 C417 1.386 . S
C416 C418 1.391 . S
C417 C416 1.386 . S
C417 C421 1.393 . S
C418 H410 0.950 . S
C418 C416 1.391 . S
C418 C419 1.400 . S
C419 C418 1.400 . S
C419 C420 1.398 . S
C419 C425 1.491 1_655 S
C420 H411 0.950 1_655 S
C420 C419 1.398 . S
C420 C421 1.391 . S
C421 H409 0.950 . S
C421 C417 1.393 . S
C421 C420 1.391 . S
C422 H412 0.950 . S
C422 C423 1.386 . S
C422 C424 1.391 . S
C423 C422 1.386 . S
C423 C427 1.393 . S
C424 H413 0.950 . S
C424 C422 1.391 . S
C424 C425 1.400 . S
C425 C419 1.491 1_455 S
C425 C424 1.400 . S
C425 C426 1.398 . S
C426 H414 0.950 1_455 S
C426 C425 1.398 . S
C426 C427 1.391 . S
C427 H415 0.950 . S
C427 C423 1.393 . S
C427 C426 1.391 . S
H428 C436 0.950 . S
H429 C441 0.950 . S
H430 C438 0.950 1_545 S
H431 C440 0.950 . S
H432 C442 0.950 . S
H433 C444 0.950 1_565 S
H434 C446 0.950 . S
H435 C447 0.950 . S
C436 H428 0.950 . S
C436 C437 1.386 . S
C436 C438 1.391 . S
C437 C436 1.386 . S
C437 C441 1.393 . S
C438 H430 0.950 1_565 S
C438 C436 1.391 . S
C438 C439 1.400 . S
C439 C438 1.400 . S
C439 C440 1.398 . S
C439 C445 1.491 1_565 S
C440 H431 0.950 . S
C440 C439 1.398 . S
C440 C441 1.391 . S
C441 H429 0.950 . S
C441 C437 1.393 . S
C441 C440 1.391 . S
C442 H432 0.950 . S
C442 C443 1.386 . S
C442 C444 1.391 . S
C443 C442 1.386 . S
C443 C447 1.393 . S
C444 H433 0.950 1_545 S
C444 C442 1.391 . S
C444 C445 1.400 . S
C445 C439 1.491 1_545 S
C445 C444 1.400 . S
C445 C446 1.398 . S
C446 H434 0.950 . S
C446 C445 1.398 . S
C446 C447 1.391 . S
C447 H435 0.950 . S
C447 C443 1.393 . S
C447 C446 1.391 . S
H448 C456 0.950 . S
H449 C461 0.950 . S
H450 C458 0.950 . S
H451 C460 0.950 . S
H452 C462 0.950 . S
H453 C464 0.950 . S
H454 C466 0.950 . S
H455 C467 0.950 . S
C456 H448 0.950 . S
C456 C457 1.386 . S
C456 C458 1.391 . S
C457 C456 1.386 . S
C457 C461 1.393 . S
C458 H450 0.950 . S
C458 C456 1.391 . S
C458 C459 1.400 . S
C459 C458 1.400 . S
C459 C460 1.398 . S
C459 C465 1.491 . S
C460 H451 0.950 . S
C460 C459 1.398 . S
C460 C461 1.391 . S
C461 H449 0.950 . S
C461 C457 1.393 . S
C461 C460 1.391 . S
C462 H452 0.950 . S
C462 C463 1.386 . S
C462 C464 1.391 . S
C463 C462 1.386 . S
C463 C467 1.393 . S
C464 H453 0.950 . S
C464 C462 1.391 . S
C464 C465 1.400 . S
C465 C459 1.491 . S
C465 C464 1.400 . S
C465 C466 1.398 . S
C466 H454 0.950 . S
C466 C465 1.398 . S
C466 C467 1.391 . S
C467 H455 0.950 . S
C467 C463 1.393 . S
C467 C466 1.391 . S
H468 C476 0.950 . S
H469 C481 0.950 . S
H470 C478 0.950 . S
H471 C480 0.950 . S
H472 C482 0.950 . S
H473 C484 0.950 . S
H474 C486 0.950 . S
H475 C487 0.950 . S
C476 H468 0.950 . S
C476 C477 1.386 . S
C476 C478 1.391 . S
C477 C476 1.386 . S
C477 C481 1.393 . S
C478 H470 0.950 . S
C478 C476 1.391 . S
C478 C479 1.400 . S
C479 C478 1.400 . S
C479 C480 1.398 . S
C479 C485 1.491 1_455 S
C480 H471 0.950 . S
C480 C479 1.398 . S
C480 C481 1.391 . S
C481 H469 0.950 . S
C481 C477 1.393 . S
C481 C480 1.391 . S
C482 H472 0.950 . S
C482 C483 1.386 . S
C482 C484 1.391 . S
C483 C482 1.386 . S
C483 C487 1.393 . S
C484 H473 0.950 . S
C484 C482 1.391 . S
C484 C485 1.400 . S
C485 C479 1.491 1_655 S
C485 C484 1.400 . S
C485 C486 1.398 . S
C486 H474 0.950 . S
C486 C485 1.398 . S
C486 C487 1.391 . S
C487 H475 0.950 . S
C487 C483 1.393 . S
C487 C486 1.391 . S
H488 C496 0.950 . S
H489 C501 0.950 . S
H490 C498 0.950 . S
H491 C500 0.950 1_554 S
H492 C502 0.950 . S
H493 C504 0.950 . S
H494 C506 0.950 1_556 S
H495 C507 0.950 . S
C496 H488 0.950 . S
C496 C497 1.386 . S
C496 C498 1.391 . S
C497 C496 1.386 . S
C497 C501 1.393 . S
C498 H490 0.950 . S
C498 C496 1.391 . S
C498 C499 1.400 . S
C499 C498 1.400 . S
C499 C500 1.398 . S
C499 C505 1.491 1_546 S
C500 H491 0.950 1_556 S
C500 C499 1.398 . S
C500 C501 1.391 . S
C501 H489 0.950 . S
C501 C497 1.393 . S
C501 C500 1.391 . S
C502 H492 0.950 . S
C502 C503 1.386 . S
C502 C504 1.391 . S
C503 C502 1.386 . S
C503 C507 1.393 . S
C504 H493 0.950 . S
C504 C502 1.391 . S
C504 C505 1.400 . S
C505 C499 1.491 1_564 S
C505 C504 1.400 . S
C505 C506 1.398 . S
C506 H494 0.950 1_554 S
C506 C505 1.398 . S
C506 C507 1.391 . S
C507 H495 0.950 . S
C507 C503 1.393 . S
C507 C506 1.391 . S
H508 C516 0.950 . S
H509 C521 0.950 . S
H510 C518 0.950 . S
H511 C520 0.950 . S
H512 C522 0.950 . S
H513 C524 0.950 . S
H514 C526 0.950 . S
H515 C527 0.950 . S
C516 H508 0.950 . S
C516 C517 1.386 . S
C516 C518 1.391 . S
C517 C516 1.386 . S
C517 C521 1.393 . S
C518 H510 0.950 . S
C518 C516 1.391 . S
C518 C519 1.400 . S
C519 C518 1.400 . S
C519 C520 1.398 . S
C519 C525 1.491 . S
C520 H511 0.950 . S
C520 C519 1.398 . S
C520 C521 1.391 . S
C521 H509 0.950 . S
C521 C517 1.393 . S
C521 C520 1.391 . S
C522 H512 0.950 . S
C522 C523 1.386 . S
C522 C524 1.391 . S
C523 C522 1.386 . S
C523 C527 1.393 . S
C524 H513 0.950 . S
C524 C522 1.391 . S
C524 C525 1.400 . S
C525 C519 1.491 . S
C525 C524 1.400 . S
C525 C526 1.398 . S
C526 H514 0.950 . S
C526 C525 1.398 . S
C526 C527 1.391 . S
C527 H515 0.950 . S
C527 C523 1.393 . S
C527 C526 1.391 . S
H528 C536 0.950 . S
H529 C541 0.950 . S
H530 C538 0.950 . S
H531 C540 0.950 . S
H532 C542 0.950 . S
H533 C544 0.950 . S
H534 C546 0.950 . S
H535 C547 0.950 . S
C536 H528 0.950 . S
C536 C537 1.386 . S
C536 C538 1.391 . S
C537 C536 1.386 . S
C537 C541 1.393 . S
C538 H530 0.950 . S
C538 C536 1.391 . S
C538 C539 1.400 . S
C539 C538 1.400 . S
C539 C540 1.398 . S
C539 C545 1.491 . S
C540 H531 0.950 . S
C540 C539 1.398 . S
C540 C541 1.391 . S
C541 H529 0.950 . S
C541 C537 1.393 . S
C541 C540 1.391 . S
C542 H532 0.950 . S
C542 C543 1.386 . S
C542 C544 1.391 . S
C543 C542 1.386 . S
C543 C547 1.393 . S
C544 H533 0.950 . S
C544 C542 1.391 . S
C544 C545 1.400 . S
C545 C539 1.491 . S
C545 C544 1.400 . S
C545 C546 1.398 . S
C546 H534 0.950 . S
C546 C545 1.398 . S
C546 C547 1.391 . S
C547 H535 0.950 . S
C547 C543 1.393 . S
C547 C546 1.391 . S
H548 C556 0.950 . S
H549 C561 0.950 . S
H550 C558 0.950 . S
H551 C560 0.950 . S
H552 C562 0.950 . S
H553 C564 0.950 . S
H554 C566 0.950 . S
H555 C567 0.950 . S
C556 H548 0.950 . S
C556 C557 1.386 . S
C556 C558 1.391 . S
C557 C556 1.386 . S
C557 C561 1.393 . S
C558 H550 0.950 . S
C558 C556 1.391 . S
C558 C559 1.400 . S
C559 C558 1.400 . S
C559 C560 1.398 . S
C559 C565 1.491 . S
C560 H551 0.950 . S
C560 C559 1.398 . S
C560 C561 1.391 . S
C561 H549 0.950 . S
C561 C557 1.393 . S
C561 C560 1.391 . S
C562 H552 0.950 . S
C562 C563 1.386 . S
C562 C564 1.391 . S
C563 C562 1.386 . S
C563 C567 1.393 . S
C564 H553 0.950 . S
C564 C562 1.391 . S
C564 C565 1.400 . S
C565 C559 1.491 . S
C565 C564 1.400 . S
C565 C566 1.398 . S
C566 H554 0.950 . S
C566 C565 1.398 . S
C566 C567 1.391 . S
C567 H555 0.950 . S
C567 C563 1.393 . S
C567 C566 1.391 . S
H568 C576 0.950 . S
H569 C581 0.950 . S
H570 C578 0.950 . S
H571 C580 0.950 . S
H572 C582 0.950 . S
H573 C584 0.950 . S
H574 C586 0.950 . S
H575 C587 0.950 . S
C576 H568 0.950 . S
C576 C577 1.386 . S
C576 C578 1.391 . S
C577 C576 1.386 . S
C577 C581 1.393 . S
C578 H570 0.950 . S
C578 C576 1.391 . S
C578 C579 1.400 . S
C579 C578 1.400 . S
C579 C580 1.398 . S
C579 C585 1.491 . S
C580 H571 0.950 . S
C580 C579 1.398 . S
C580 C581 1.391 . S
C581 H569 0.950 . S
C581 C577 1.393 . S
C581 C580 1.391 . S
C582 H572 0.950 . S
C582 C583 1.386 . S
C582 C584 1.391 . S
C583 C582 1.386 . S
C583 C587 1.393 . S
C584 H573 0.950 . S
C584 C582 1.391 . S
C584 C585 1.400 . S
C585 C579 1.491 . S
C585 C584 1.400 . S
C585 C586 1.398 . S
C586 H574 0.950 . S
C586 C585 1.398 . S
C586 C587 1.391 . S
C587 H575 0.950 . S
C587 C583 1.393 . S
C587 C586 1.391 . S
H588 C596 0.950 . S
H589 C601 0.950 . S
H590 C598 0.950 . S
H591 C600 0.950 . S
H592 C602 0.950 . S
H593 C604 0.950 . S
H594 C606 0.950 . S
H595 C607 0.950 . S
C596 H588 0.950 . S
C596 C597 1.386 . S
C596 C598 1.391 . S
C597 C596 1.386 . S
C597 C601 1.393 . S
C598 H590 0.950 . S
C598 C596 1.391 . S
C598 C599 1.400 . S
C599 C598 1.400 . S
C599 C600 1.398 . S
C599 C605 1.491 . S
C600 H591 0.950 . S
C600 C599 1.398 . S
C600 C601 1.391 . S
C601 H589 0.950 . S
C601 C597 1.393 . S
C601 C600 1.391 . S
C602 H592 0.950 . S
C602 C603 1.386 . S
C602 C604 1.391 . S
C603 C602 1.386 . S
C603 C607 1.393 . S
C604 H593 0.950 . S
C604 C602 1.391 . S
C604 C605 1.400 . S
C605 C599 1.491 . S
C605 C604 1.400 . S
C605 C606 1.398 . S
C606 H594 0.950 . S
C606 C605 1.398 . S
C606 C607 1.391 . S
C607 H595 0.950 . S
C607 C603 1.393 . S
C607 C606 1.391 . S
H608 C616 0.966 . S
H609 C621 0.950 . S
H610 C618 0.950 . S
H611 C620 0.950 . S
H612 C622 0.950 . S
H613 C624 0.950 . S
H614 C626 0.950 . S
H615 C627 0.950 . S
C616 H608 0.966 . S
C616 C617 1.386 . S
C616 C618 1.391 . S
C617 C616 1.386 . S
C617 C621 1.393 . S
C618 H610 0.950 . S
C618 C616 1.391 . S
C618 C619 1.400 . S
C619 C618 1.400 . S
C619 C620 1.398 . S
C619 C625 1.491 . S
C620 H611 0.950 . S
C620 C619 1.398 . S
C620 C621 1.391 . S
C621 H609 0.950 . S
C621 C617 1.393 . S
C621 C620 1.391 . S
C622 H612 0.950 . S
C622 C623 1.386 . S
C622 C624 1.391 . S
C623 C622 1.386 . S
C623 C627 1.393 . S
C624 H613 0.950 . S
C624 C622 1.391 . S
C624 C625 1.400 . S
C625 C619 1.491 . S
C625 C624 1.400 . S
C625 C626 1.398 . S
C626 H614 0.950 . S
C626 C625 1.398 . S
C626 C627 1.391 . S
C627 H615 0.950 . S
C627 C623 1.393 . S
C627 C626 1.391 . S
H628 C636 0.950 . S
H629 C641 0.950 . S
H630 C638 0.950 . S
H631 C640 0.950 . S
H632 C642 0.950 . S
H633 C644 0.950 . S
H634 C646 0.950 . S
H635 C647 0.950 . S
C636 H628 0.950 . S
C636 C637 1.386 . S
C636 C638 1.391 . S
C637 C636 1.386 . S
C637 C641 1.393 . S
C638 H630 0.950 . S
C638 C636 1.391 . S
C638 C639 1.400 . S
C639 C638 1.400 . S
C639 C640 1.398 . S
C639 C645 1.491 . S
C640 H631 0.950 . S
C640 C639 1.398 . S
C640 C641 1.391 . S
C641 H629 0.950 . S
C641 C637 1.393 . S
C641 C640 1.391 . S
C642 H632 0.950 . S
C642 C643 1.386 . S
C642 C644 1.391 . S
C643 C642 1.386 . S
C643 C647 1.393 . S
C644 H633 0.950 . S
C644 C642 1.391 . S
C644 C645 1.400 . S
C645 C639 1.491 . S
C645 C644 1.400 . S
C645 C646 1.398 . S
C646 H634 0.950 . S
C646 C645 1.398 . S
C646 C647 1.391 . S
C647 H635 0.950 . S
C647 C643 1.393 . S
C647 C646 1.391 . S
C177 C0 1.467 . S
C183 C97 1.474 . S
C197 C15 1.474 . S
C203 C110 1.472 . S
C217 C125 1.463 . S
C223 C41 1.478 . S
C237 C42 1.474 . S
C243 C127 1.471 . S
C257 C57 1.463 . S
C263 C141 1.478 . S
C277 C167 1.476 . S
C283 C83 1.464 . S
C297 C113 1.548 . S
C303 C12 1.566 . S
C317 C27 1.556 . S
C323 C139 1.555 . S
C337 C153 1.566 . S
C343 C29 1.547 . S
C357 C155 1.565 . S
C363 C54 1.547 . S
C377 C69 1.566 . S
C383 C85 1.547 . S
C397 C71 1.559 . S
C403 C98 1.555 . S
C417 C166 1.856 . S
C423 C1 1.846 . S
C437 C96 1.846 . S
C443 C14 1.854 . S
C457 C40 1.854 . S
C463 C111 1.859 . S
C477 C124 1.851 . S
C483 C43 1.842 . S
C497 C126 1.844 . S
C503 C56 1.845 . S
C517 C140 1.844 . S
C523 C82 1.845 . S
C537 C13 1.595 . S
C543 C152 1.597 . S
C557 C154 1.597 . S
C563 C26 1.595 . S
C577 C28 1.600 . S
C583 C84 1.599 . S
C597 C55 1.594 . S
C603 C99 1.592 . S
C617 C68 1.592 1_556 S
C623 C112 1.591 . S
C637 C70 1.599 . S
C643 C138 1.600 1_554 S
