# Generated by pormake.
# Topology unh, (4)-cn, num edge types: 1
# Building blocks:
#     Node 0, Type 0, BuildingBlock: QUQFOY_clean_sbu_3, # of connection points: 4
#     Node 1, Type 0, BuildingBlock: QUQFOY_clean_sbu_3, # of connection points: 4
#     Node 2, Type 0, BuildingBlock: QUQFOY_clean_sbu_3, # of connection points: 4
#     Node 3, Type 0, BuildingBlock: QUQFOY_clean_sbu_3, # of connection points: 4
#     Node 4, Type 0, BuildingBlock: QUQFOY_clean_sbu_3, # of connection points: 4
#     Node 5, Type 0, BuildingBlock: QUQFOY_clean_sbu_3, # of connection points: 4
#     Edge 6, Type (0, 0), BuildingBlock: UVAHIK_clean_linker_0, # of connection points: 2
#     Edge 7, Type (0, 0), BuildingBlock: UVAHIK_clean_linker_0, # of connection points: 2
#     Edge 8, Type (0, 0), BuildingBlock: UVAHIK_clean_linker_0, # of connection points: 2
#     Edge 9, Type (0, 0), BuildingBlock: UVAHIK_clean_linker_0, # of connection points: 2
#     Edge 10, Type (0, 0), BuildingBlock: UVAHIK_clean_linker_0, # of connection points: 2
#     Edge 11, Type (0, 0), BuildingBlock: UVAHIK_clean_linker_0, # of connection points: 2
#     Edge 12, Type (0, 0), BuildingBlock: UVAHIK_clean_linker_0, # of connection points: 2
#     Edge 13, Type (0, 0), BuildingBlock: UVAHIK_clean_linker_0, # of connection points: 2
#     Edge 14, Type (0, 0), BuildingBlock: UVAHIK_clean_linker_0, # of connection points: 2
#     Edge 15, Type (0, 0), BuildingBlock: UVAHIK_clean_linker_0, # of connection points: 2
#     Edge 16, Type (0, 0), BuildingBlock: UVAHIK_clean_linker_0, # of connection points: 2
#     Edge 17, Type (0, 0), BuildingBlock: UVAHIK_clean_linker_0, # of connection points: 2
# Relax obj value: 0.079
# Max RMSD: 0.191
# Mean RMSD: 0.191
data_MOF--net-unh--node1-QUQFOY_clean_sbu_3--edge1-UVAHIK_clean_linker_0
_symmetry_space_group_name_H-M    P1
_symmetry_Int_Tables_number       1
_symmetry_cell_setting            triclinic
loop_
_symmetry_equiv_pos_as_xyz
'x, y, z'
_cell_length_a     56.368416
_cell_length_b     56.165265
_cell_length_c     30.221782
_cell_angle_alpha  90.751405
_cell_angle_beta   89.553314
_cell_angle_gamma 120.74088
loop_
_atom_site_label
_atom_site_type_symbol
_atom_site_fract_x
_atom_site_fract_y
_atom_site_fract_z
_atom_type_partial_charge
C0 C 0.14139 0.50858 0.07947 0.0
O1 O 0.13454 0.49663 0.04185 0.0
Cd2 Cd 0.10378 0.50182 -0.00702 0.0
O3 O 0.13089 0.52264 0.0936 0.0
Cd4 Cd 0.0968 0.53578 0.07339 0.0
C5 C 0.13667 0.57321 -0.01254 0.0
O6 O 0.06343 0.49257 0.03415 0.0
O7 O 0.05667 0.52706 0.03244 0.0
O8 O 0.0862 0.52783 0.15176 0.0
C9 C 0.04862 0.50224 0.02146 0.0
O10 O 0.12929 0.54998 0.96879 0.0
C11 C 0.08237 0.54802 0.15775 0.0
O12 O 0.12907 0.57437 0.02688 0.0
O13 O 0.08565 0.56304 0.12456 0.0
C14 C 0.6144 0.16017 0.23435 0.0
O15 O 0.61804 0.15449 0.19497 0.0
Cd16 Cd 0.58056 0.12003 0.14979 0.0
O17 O 0.59046 0.14764 0.25168 0.0
Cd18 Cd 0.54275 0.11159 0.23408 0.0
C19 C 0.53844 0.14772 0.14912 0.0
O20 O 0.55252 0.07939 0.19249 0.0
O21 O 0.51044 0.07055 0.19358 0.0
O22 O 0.54343 0.09851 0.30955 0.0
C23 C 0.52746 0.06334 0.18158 0.0
O24 O 0.55322 0.14021 0.12803 0.0
C25 C 0.52005 0.0949 0.32052 0.0
O26 O 0.53317 0.14244 0.19016 0.0
O27 O 0.50706 0.09985 0.29131 0.0
C28 C 0.44491 0.62633 0.40442 0.0
O29 O 0.45629 0.63138 0.36657 0.0
Cd30 Cd 0.45039 0.59423 0.31831 0.0
O31 O 0.43175 0.60162 0.41869 0.0
Cd32 Cd 0.42038 0.55418 0.39882 0.0
C33 C 0.37915 0.5527 0.31745 0.0
O34 O 0.46272 0.56538 0.35787 0.0
O35 O 0.42864 0.52314 0.35401 0.0
O36 O 0.43511 0.55492 0.47374 0.0
C37 C 0.45347 0.54067 0.34438 0.0
O38 O 0.40164 0.56912 0.29763 0.0
C39 C 0.41536 0.53119 0.48436 0.0
O40 O 0.37939 0.54458 0.35655 0.0
O41 O 0.39701 0.51781 0.45512 0.0
C42 C 0.80391 0.46287 0.57716 0.0
O43 O 0.80919 0.47288 0.5385 0.0
Cd44 Cd 0.84118 0.46829 0.49049 0.0
O45 O 0.81579 0.45047 0.59176 0.0
Cd46 Cd 0.85004 0.43802 0.56855 0.0
C47 C 0.8098 0.39737 0.48571 0.0
O48 O 0.88336 0.47993 0.52755 0.0
O49 O 0.88606 0.4431 0.51931 0.0
O50 O 0.86779 0.45331 0.64219 0.0
C51 C 0.89619 0.46862 0.51157 0.0
O52 O 0.81805 0.42015 0.46581 0.0
C53 C 0.86997 0.43265 0.65216 0.0
O54 O 0.81593 0.39711 0.52617 0.0
O55 O 0.86229 0.41352 0.62312 0.0
C56 C 0.3259 0.81023 0.73477 0.0
O57 O 0.32047 0.81609 0.69715 0.0
Cd58 Cd 0.3574 0.84798 0.64918 0.0
O59 O 0.35062 0.82263 0.74883 0.0
Cd60 Cd 0.39757 0.85954 0.72948 0.0
C61 C 0.39877 0.81906 0.6474 0.0
O62 O 0.38717 0.89072 0.68776 0.0
O63 O 0.42903 0.89877 0.68615 0.0
O64 O 0.39732 0.8746 0.80441 0.0
C65 C 0.41206 0.90611 0.67531 0.0
O66 O 0.3823 0.82464 0.62772 0.0
C67 C 0.4207 0.87838 0.8153 0.0
O68 O 0.40697 0.8279 0.68664 0.0
O69 O 0.43364 0.87288 0.78615 0.0
C70 C 0.49588 0.33738 0.9013 0.0
O71 O 0.48801 0.33399 0.86126 0.0
Cd72 Cd 0.49398 0.37188 0.81578 0.0
O73 O 0.50739 0.36134 0.91921 0.0
Cd74 Cd 0.52141 0.40934 0.90115 0.0
C75 C 0.56445 0.41303 0.81903 0.0
O76 O 0.48079 0.40006 0.85717 0.0
O77 O 0.51521 0.44215 0.85957 0.0
O78 O 0.50672 0.41108 0.97603 0.0
C79 C 0.49089 0.42524 0.84652 0.0
O80 O 0.54274 0.39851 0.79608 0.0
C81 C 0.52827 0.4336 -0.01295 0.0
O82 O 0.56286 0.41827 0.85975 0.0
O83 O 0.5472 0.44491 0.95808 0.0
C84 C 0.02204 0.46483 0.9646 0.0
C85 C 0.02525 0.48727 -0.00947 0.0
C86 C 0.00244 0.45398 0.93046 0.0
C87 C 0.96924 0.47855 0.8558 0.0
H88 H 0.91816 0.40152 0.82559 0.0
C89 C 0.88595 0.45129 0.72809 0.0
C90 C 0.88257 0.43225 0.69462 0.0
C91 C 0.9011 0.45404 0.76593 0.0
C92 C 0.93252 0.42309 0.83349 0.0
H93 H 0.00904 0.51435 0.00363 0.0
H94 H -0.02507 0.49535 0.94486 0.0
H95 H 0.94903 0.41319 0.88963 0.0
H96 H 0.89107 0.39998 0.67563 0.0
H97 H 0.91814 0.40512 0.74208 0.0
H98 H 0.95327 0.48873 0.80014 0.0
C99 C -0.01213 0.48653 0.95 0.0
C100 C 0.95012 0.42974 0.87004 0.0
C101 C 0.00736 0.49735 -0.01624 0.0
C102 C 0.8934 0.41487 0.70092 0.0
C103 C 0.90882 0.41776 0.73894 0.0
C104 C 0.95186 0.47197 0.81954 0.0
C105 C -0.01413 0.46546 0.92196 0.0
C106 C 0.96822 0.45759 0.882 0.0
C107 C 0.91353 0.43802 0.77113 0.0
C108 C 0.93288 0.44423 0.80846 0.0
H109 H 0.03556 0.45664 0.96917 0.0
H110 H 0.00127 0.43769 0.90932 0.0
H111 H -0.01648 0.50019 0.86344 0.0
H112 H 0.87751 0.4647 0.72453 0.0
H113 H 0.90375 0.46934 0.79069 0.0
C114 C 0.46133 0.90402 0.86609 0.0
C115 C 0.43271 0.89051 0.85891 0.0
C116 C 0.47277 0.91921 0.9052 0.0
C117 C 0.4562 0.95659 -0.01161 0.0
H118 H 0.51824 0.96332 0.05403 0.0
C119 C 0.4903 0.01965 0.14772 0.0
C120 C 0.51856 0.03914 0.15198 0.0
C121 C 0.481 -0.00125 0.1157 0.0
C122 C 0.50101 0.96171 0.03579 0.0
H123 H 0.39343 0.88025 0.8883 0.0
H124 H 0.4132 0.90603 0.95659 0.0
H125 H 0.49951 0.93098 -0.0091 0.0
H126 H 0.55946 0.05111 0.1279 0.0
H127 H 0.54305 0.01458 0.07097 0.0
H128 H 0.45767 -0.0127 0.03234 0.0
C129 C 0.42695 0.90571 0.93166 0.0
C130 C 0.49031 0.94324 -0.00026 0.0
C131 C 0.41561 0.89083 0.89262 0.0
C132 C 0.53754 0.03636 0.12524 0.0
C133 C 0.52816 0.01543 0.09279 0.0
C134 C 0.4668 0.97487 0.02416 0.0
C135 C 0.45571 0.92094 0.93773 0.0
C136 C 0.46758 0.94032 0.97598 0.0
C137 C 0.49971 -0.00302 0.08684 0.0
C138 C 0.48911 0.97748 0.0486 0.0
H139 H 0.47498 0.90408 0.84062 0.0
H140 H 0.495 0.93076 0.9089 0.0
H141 H 0.43925 0.9555 0.97001 0.0
H142 H 0.47521 0.021 0.16833 0.0
H143 H 0.459 0.98442 0.11265 0.0
C144 C 0.49518 0.55291 0.29773 0.0
C145 C 0.46992 0.53277 0.31619 0.0
C146 C 0.50941 0.54513 0.26832 0.0
C147 C 0.51297 0.48428 0.22766 0.0
H148 H 0.53315 0.52266 0.11561 0.0
C149 C 0.5107 0.43162 0.06366 0.0
C150 C 0.53031 0.44657 0.03077 0.0
C151 C 0.51062 0.44444 0.10344 0.0
C152 C 0.52825 0.51208 0.14701 0.0
H153 H 0.44034 0.48868 0.31978 0.0
H154 H 0.46493 0.4752 0.26864 0.0
H155 H 0.51981 0.54155 0.1776 0.0
H156 H 0.56594 0.48639 0.01437 0.0
H157 H 0.56563 0.50897 0.0841 0.0
H158 H 0.52014 0.45411 0.19638 0.0
C159 C 0.47396 0.49696 0.27697 0.0
C160 C 0.5206 0.52291 0.18256 0.0
C161 C 0.45971 0.50471 0.306 0.0
C162 C 0.55054 0.47437 0.03914 0.0
C163 C 0.55031 0.48731 0.07891 0.0
C164 C 0.52056 0.47344 0.19214 0.0
C165 C 0.49875 0.51707 0.25726 0.0
C166 C 0.51191 0.50857 0.22274 0.0
C167 C 0.53005 0.47256 0.11116 0.0
C168 C 0.52732 0.4867 0.15098 0.0
H169 H 0.50357 0.5747 0.30506 0.0
H170 H 0.52855 0.56107 0.2538 0.0
H171 H 0.5069 0.47307 0.25851 0.0
H172 H 0.49489 0.41015 0.05825 0.0
H173 H 0.49451 0.4326 0.12733 0.0
C174 C 0.93416 0.51226 0.47711 0.0
C175 C 0.9202 0.48334 0.48177 0.0
C176 C 0.95679 0.5256 0.44835 0.0
C177 C -0.00708 0.54572 0.36513 0.0
H178 H 0.03705 0.51172 0.34505 0.0
C179 C 0.05105 0.55818 0.20191 0.0
C180 C 0.07224 0.55207 0.20051 0.0
C181 C 0.03769 0.55671 0.24184 0.0
C182 C 0.02561 0.52216 0.35057 0.0
H183 H 0.91867 0.4457 0.45947 0.0
H184 H 0.95697 0.4685 0.40867 0.0
H185 H 0.0048 0.49641 0.40569 0.0
H186 H 0.09809 0.54239 0.23971 0.0
H187 H 0.07646 0.542 0.30995 0.0
H188 H 0.01453 0.57219 0.31078 0.0
C189 C 0.95138 0.48123 0.42812 0.0
C190 C 0.00654 0.51286 0.3851 0.0
C191 C 0.92915 0.46805 0.45707 0.0
C192 C 0.08148 0.5468 0.24003 0.0
C193 C 0.06881 0.54628 0.28017 0.0
C194 C 0.01253 0.55551 0.33102 0.0
C195 C 0.96568 0.51019 0.42351 0.0
C196 C -0.0109 0.52364 0.39167 0.0
C197 C 0.04579 0.54983 0.2814 0.0
C198 C 0.02844 0.54314 0.32219 0.0
H199 H 0.92771 0.52456 0.49584 0.0
H200 H 0.9674 0.54793 0.44583 0.0
H201 H -0.02006 0.55462 0.36926 0.0
H202 H 0.0435 0.56216 0.17168 0.0
H203 H 0.01996 0.55932 0.24091 0.0
C204 C 0.52481 0.08283 0.39752 0.0
C205 C 0.50787 0.08307 0.36396 0.0
C206 C 0.51324 0.06761 0.43582 0.0
C207 C 0.44946 0.0284 0.5023 0.0
H208 H 0.48224 0.98406 0.5289 0.0
C209 C 0.40204 0.93355 0.62134 0.0
C210 C 0.421 0.9304 0.6468 0.0
C211 C 0.41144 0.95481 0.5902 0.0
C212 C 0.47306 -0.00346 0.52244 0.0
H213 H 0.46564 0.06916 0.34539 0.0
H214 H 0.44527 0.04197 0.41238 0.0
H215 H 0.50097 0.01712 0.4693 0.0
H216 H 0.46437 0.94815 0.66227 0.0
H217 H 0.48062 -0.01469 0.60904 0.0
H218 H 0.42123 0.0072 0.55561 0.0
C219 C 0.46753 0.05379 0.40913 0.0
C220 C 0.48384 0.01555 0.48823 0.0
C221 C 0.47918 0.0693 0.37076 0.0
C222 C 0.44928 0.94977 0.64258 0.0
C223 C 0.4586 0.97102 0.61195 0.0
C224 C 0.43861 0.00924 0.53684 0.0
C225 C 0.48445 0.05199 0.44125 0.0
C226 C 0.47242 0.03193 0.478 0.0
C227 C 0.43991 0.97324 0.58434 0.0
C228 C 0.45055 -0.00665 0.54752 0.0
H229 H 0.54702 0.09358 0.39349 0.0
H230 H 0.52686 0.0672 0.46051 0.0
H231 H 0.44021 0.04071 0.49506 0.0
H232 H 0.3801 0.91889 0.62402 0.0
H233 H 0.39655 0.95599 0.56934 0.0
C234 C 0.48669 0.46281 0.81177 0.0
C235 C 0.47658 0.43439 0.81657 0.0
C236 C 0.47561 0.47212 0.78003 0.0
C237 C 0.41758 0.45171 0.70264 0.0
H238 H 0.47407 0.51334 0.63562 0.0
C239 C 0.39979 0.49055 0.53461 0.0
C240 C 0.41531 0.51928 0.52766 0.0
C241 C 0.40346 0.47926 0.57322 0.0
C242 C 0.45796 0.4964 0.65437 0.0
H243 H 0.44597 0.39327 0.7935 0.0
H244 H 0.42681 0.40966 0.73706 0.0
H245 H 0.48735 0.49518 0.69677 0.0
H246 H 0.44501 0.55887 0.55707 0.0
H247 H 0.45095 0.53933 0.62445 0.0
H248 H 0.38822 0.45292 0.65921 0.0
C249 C 0.44316 0.4247 0.75827 0.0
C250 C 0.46559 0.48597 0.68948 0.0
C251 C 0.45418 0.41532 0.79044 0.0
C252 C 0.43307 0.53661 0.56119 0.0
C253 C 0.43657 0.5254 0.59971 0.0
C254 C 0.4099 0.46221 0.66722 0.0
C255 C 0.45433 0.45326 0.75195 0.0
C256 C 0.44554 0.4637 0.71436 0.0
C257 C 0.42262 0.49657 0.60546 0.0
C258 C 0.43005 0.48489 0.64304 0.0
H259 H 0.50366 0.478 0.83189 0.0
H260 H 0.48421 0.49423 0.77675 0.0
H261 H 0.40167 0.43454 0.72125 0.0
H262 H 0.38593 0.47671 0.50929 0.0
H263 H 0.39244 0.45695 0.57672 0.0
C264 C 0.17357 0.49085 0.09312 0.0
C265 C 0.16232 0.50706 0.10671 0.0
C266 C 0.19441 0.49077 0.11788 0.0
C267 C 0.22969 0.51121 0.22755 0.0
H268 H 0.29129 0.51637 0.16135 0.0
C269 C 0.35255 0.554 0.25262 0.0
C270 C 0.35262 0.54339 0.29446 0.0
C271 C 0.3278 0.54572 0.23071 0.0
C272 C 0.27429 0.51503 0.18037 0.0
H273 H 0.16376 0.5354 0.15763 0.0
H274 H 0.20034 0.53576 0.19997 0.0
H275 H 0.25055 0.50898 0.1221 0.0
H276 H 0.32658 0.51544 0.34588 0.0
H277 H 0.28321 0.50069 0.30722 0.0
H278 H 0.2541 0.5187 0.28566 0.0
C279 C 0.19279 0.52267 0.17071 0.0
C280 C 0.25073 0.51039 0.15788 0.0
C281 C 0.17191 0.52264 0.14614 0.0
C282 C 0.32726 0.52409 0.31375 0.0
C283 C 0.3024 0.51572 0.29168 0.0
C284 C 0.25334 0.51599 0.25005 0.0
C285 C 0.20454 0.50699 0.15667 0.0
C286 C 0.22833 0.50896 0.18109 0.0
C287 C 0.3024 0.52648 0.24988 0.0
C288 C 0.27616 0.51854 0.22663 0.0
H289 H 0.16652 0.47844 0.06309 0.0
H290 H 0.20271 0.47813 0.10643 0.0
H291 H 0.21264 0.50976 0.24655 0.0
H292 H 0.37164 0.569 0.23678 0.0
H293 H 0.32859 0.55489 0.19902 0.0
C294 C 0.66188 0.20223 0.23901 0.0
C295 C 0.63773 0.18206 0.26019 0.0
C296 C 0.68283 0.22419 0.26333 0.0
C297 C 0.71145 0.24739 0.37502 0.0
H298 H 0.73425 0.32078 0.33217 0.0
C299 C 0.77436 0.34653 0.48249 0.0
C300 C 0.79289 0.37119 0.46084 0.0
C301 C 0.75712 0.32245 0.45799 0.0
C302 C 0.72863 0.30051 0.34432 0.0
H303 H 0.61718 0.1684 0.32372 0.0
H304 H 0.65394 0.20651 0.36609 0.0
H305 H 0.7022 0.28034 0.28882 0.0
H306 H 0.80908 0.38961 0.39685 0.0
H307 H 0.78008 0.34764 0.35446 0.0
H308 H 0.7381 0.26749 0.43034 0.0
C309 C 0.65657 0.2054 0.33072 0.0
C310 C 0.71015 0.27732 0.31942 0.0
C311 C 0.63546 0.1837 0.30637 0.0
C312 C 0.79466 0.37103 0.41447 0.0
C313 C 0.77786 0.34695 0.39012 0.0
C314 C 0.73029 0.27063 0.39971 0.0
C315 C 0.68022 0.22612 0.30934 0.0
C316 C 0.70122 0.25055 0.33465 0.0
C317 C 0.75842 0.32247 0.4114 0.0
C318 C 0.739 0.29753 0.38481 0.0
H319 H 0.66423 0.20153 0.20349 0.0
H320 H 0.70097 0.23984 0.24612 0.0
H321 H 0.70495 0.22692 0.38737 0.0
H322 H 0.77253 0.34609 0.51822 0.0
H323 H 0.74224 0.3041 0.47558 0.0
C324 C 0.42807 0.79713 0.64262 0.0
C325 C 0.40818 0.80201 0.62397 0.0
C326 C 0.4367 0.78096 0.61996 0.0
C327 C 0.43732 0.73172 0.57726 0.0
H328 H 0.44252 0.73468 0.4492 0.0
C329 C 0.43118 0.6429 0.47168 0.0
C330 C 0.4462 0.64899 0.43193 0.0
C331 C 0.43102 0.66388 0.49667 0.0
C332 C 0.44163 0.73383 0.48499 0.0
H333 H 0.38173 0.7936 0.56691 0.0
H334 H 0.39629 0.76515 0.52818 0.0
H335 H 0.43473 0.76783 0.48944 0.0
H336 H 0.47368 0.68215 0.3881 0.0
H337 H 0.47378 0.71892 0.43218 0.0
H338 H 0.44447 0.69784 0.57278 0.0
C339 C 0.40573 0.77425 0.55977 0.0
C340 C 0.43676 0.75263 0.50805 0.0
C341 C 0.3972 0.79042 0.58224 0.0
C342 C 0.46172 0.67671 0.41838 0.0
C343 C 0.46168 0.69777 0.44357 0.0
C344 C 0.44234 0.713 0.55419 0.0
C345 C 0.42561 0.76932 0.57825 0.0
C346 C 0.43387 0.75137 0.55437 0.0
C347 C 0.44603 0.69156 0.48273 0.0
C348 C 0.44392 0.71341 0.50768 0.0
H349 H 0.43702 0.80584 0.67463 0.0
H350 H 0.45222 0.77774 0.63498 0.0
H351 H 0.43511 0.73008 0.6129 0.0
H352 H 0.41895 0.62177 0.48313 0.0
H353 H 0.41837 0.65822 0.52621 0.0
C354 C 0.61538 0.43116 0.82308 0.0
C355 C 0.5917 0.42359 0.79775 0.0
C356 C 0.64072 0.43962 0.80231 0.0
C357 C 0.67946 0.46789 0.69924 0.0
H358 H 0.71592 0.42742 0.7283 0.0
C359 C 0.76233 0.46776 0.58594 0.0
C360 C 0.78304 0.46439 0.60505 0.0
C361 C 0.74111 0.46645 0.61207 0.0
C362 C 0.70647 0.43944 0.7203 0.0
H363 H 0.57622 0.41995 0.73097 0.0
H364 H 0.6205 0.43517 0.69496 0.0
H365 H 0.67543 0.41925 0.77013 0.0
H366 H 0.79869 0.45862 0.66681 0.0
H367 H 0.76247 0.45752 0.71258 0.0
H368 H 0.71049 0.48828 0.64965 0.0
C369 C 0.61942 0.43439 0.73077 0.0
C370 C 0.68316 0.43463 0.74427 0.0
C371 C 0.59405 0.42548 0.75141 0.0
C372 C 0.78279 0.46093 0.65103 0.0
C373 C 0.76188 0.4601 0.67724 0.0
C374 C 0.70304 0.47304 0.67567 0.0
C375 C 0.64291 0.44119 0.75595 0.0
C376 C 0.66917 0.44845 0.73347 0.0
C377 C 0.74037 0.4622 0.65802 0.0
C378 C 0.71659 0.45851 0.68535 0.0
H379 H 0.6142 0.42988 0.85883 0.0
H380 H 0.65859 0.44484 0.82244 0.0
H381 H 0.66915 0.479 0.69056 0.0
H382 H 0.7619 0.47031 0.55055 0.0
H383 H 0.72477 0.46778 0.59586 0.0
C384 C 0.31046 0.78088 0.80243 0.0
C385 C 0.30377 0.78842 0.76228 0.0
C386 C 0.29011 0.75946 0.82766 0.0
C387 C 0.24205 0.72163 0.88597 0.0
H388 H 0.18793 0.65511 0.82407 0.0
C389 C 0.15939 0.62481 -0.0208 0.0
C390 C 0.15405 0.59904 0.96254 0.0
C391 C 0.17549 0.649 0.95503 0.0
C392 C 0.20298 0.67348 0.84189 0.0
H393 H 0.2702 0.77977 0.71782 0.0
H394 H 0.23448 0.74251 0.76238 0.0
H395 H 0.22017 0.69566 0.78194 0.0
H396 H 0.16167 0.57857 0.90753 0.0
H397 H 0.19016 0.62063 0.86615 0.0
H398 H 0.22577 0.699 0.94583 0.0
C399 C 0.25563 0.75295 0.7739 0.0
C400 C 0.22123 0.6969 0.81772 0.0
C401 C 0.27607 0.77439 0.74846 0.0
C402 C 0.16522 0.59803 0.92129 0.0
C403 C 0.1814 0.62217 0.89732 0.0
C404 C 0.22391 0.69816 0.91013 0.0
C405 C 0.26247 0.74506 0.81361 0.0
C406 C 0.24131 0.72111 0.83943 0.0
C407 C 0.1867 0.64796 0.91378 0.0
C408 C 0.20447 0.67363 0.88835 0.0
H409 H 0.33157 0.79117 0.8141 0.0
H410 H 0.29626 0.75366 0.85761 0.0
H411 H 0.25697 0.74008 0.9038 0.0
H412 H 0.15096 0.6263 0.01075 0.0
H413 H 0.17892 0.66847 0.96849 0.0
C414 C 0.49658 0.3162 0.97325 0.0
C415 C 0.49306 0.31383 0.92705 0.0
C416 C 0.49646 0.2951 -0.00263 0.0
C417 C 0.5139 0.24161 -0.01568 0.0
H418 H 0.47726 0.21509 0.09741 0.0
C419 C 0.5245 0.1599 0.07889 0.0
C420 C 0.52775 0.16301 0.12501 0.0
C421 C 0.51634 0.17557 0.055 0.0
C422 C 0.48787 0.22249 0.06611 0.0
H423 H 0.48569 0.28699 0.87016 0.0
H424 H 0.4859 0.25024 0.91236 0.0
H425 H 0.46961 0.24733 0.05494 0.0
H426 H 0.52426 0.18444 0.18254 0.0
H427 H 0.51101 0.21277 0.14061 0.0
H428 H 0.53317 0.21804 -0.00416 0.0
C429 C 0.48872 0.26849 0.92977 0.0
C430 C 0.48334 0.24081 0.04172 0.0
C431 C 0.48849 0.28946 0.90568 0.0
C432 C 0.52187 0.18159 0.14699 0.0
C433 C 0.51414 0.1977 0.12292 0.0
C434 C 0.51871 0.22363 0.00885 0.0
C435 C 0.49314 0.27132 0.97575 0.0
C436 C 0.49638 0.25058 0.00063 0.0
C437 C 0.51173 0.19521 0.07648 0.0
C438 C 0.5058 0.21382 0.05012 0.0
H439 H 0.49999 0.33465 -0.00924 0.0
H440 H 0.5001 0.29791 0.03271 0.0
H441 H 0.52465 0.24923 0.95316 0.0
H442 H 0.52843 0.14539 0.06108 0.0
H443 H 0.51393 0.17244 0.01952 0.0
loop_
_geom_bond_atom_site_label_1
_geom_bond_atom_site_label_2
_geom_bond_distance
_geom_bond_site_symmetry_2
_ccdc_geom_bond_type
C0 O1 1.306 . S
C0 O3 1.160 . S
O1 C0 1.306 . S
O1 Cd2 2.228 . S
Cd2 O1 2.228 . S
Cd2 O6 2.273 . S
Cd2 O10 2.277 . S
O3 C0 1.160 . S
O3 Cd4 2.203 . S
Cd4 O3 2.203 . S
Cd4 O6 2.411 . S
Cd4 O7 2.333 . S
Cd4 O8 2.352 . S
Cd4 O12 2.277 . S
Cd4 O13 2.356 . S
C5 O10 1.209 . S
C5 O12 1.226 . S
O6 Cd2 2.273 . S
O6 Cd4 2.411 . S
O6 C9 1.320 . S
O7 Cd4 2.333 . S
O7 C9 1.214 . S
O8 Cd4 2.352 . S
O8 C11 1.258 . S
C9 O6 1.320 . S
C9 O7 1.214 . S
O10 Cd2 2.277 . S
O10 C5 1.209 . S
C11 O8 1.258 . S
C11 O13 1.282 . S
O12 Cd4 2.277 . S
O12 C5 1.226 . S
O13 Cd4 2.356 . S
O13 C11 1.282 . S
C14 O15 1.306 . S
C14 O17 1.160 . S
O15 C14 1.306 . S
O15 Cd16 2.228 . S
Cd16 O15 2.228 . S
Cd16 O20 2.273 . S
Cd16 O24 2.277 . S
O17 C14 1.160 . S
O17 Cd18 2.203 . S
Cd18 O17 2.203 . S
Cd18 O20 2.411 . S
Cd18 O21 2.333 . S
Cd18 O22 2.352 . S
Cd18 O26 2.277 . S
Cd18 O27 2.356 . S
C19 O24 1.209 . S
C19 O26 1.226 . S
O20 Cd16 2.273 . S
O20 Cd18 2.411 . S
O20 C23 1.320 . S
O21 Cd18 2.333 . S
O21 C23 1.214 . S
O22 Cd18 2.352 . S
O22 C25 1.258 . S
C23 O20 1.320 . S
C23 O21 1.214 . S
O24 Cd16 2.277 . S
O24 C19 1.209 . S
C25 O22 1.258 . S
C25 O27 1.282 . S
O26 Cd18 2.277 . S
O26 C19 1.226 . S
O27 Cd18 2.356 . S
O27 C25 1.282 . S
C28 O29 1.306 . S
C28 O31 1.160 . S
O29 C28 1.306 . S
O29 Cd30 2.228 . S
Cd30 O29 2.228 . S
Cd30 O34 2.273 . S
Cd30 O38 2.277 . S
O31 C28 1.160 . S
O31 Cd32 2.203 . S
Cd32 O31 2.203 . S
Cd32 O34 2.411 . S
Cd32 O35 2.333 . S
Cd32 O36 2.352 . S
Cd32 O40 2.277 . S
Cd32 O41 2.356 . S
C33 O38 1.209 . S
C33 O40 1.226 . S
O34 Cd30 2.273 . S
O34 Cd32 2.411 . S
O34 C37 1.320 . S
O35 Cd32 2.333 . S
O35 C37 1.214 . S
O36 Cd32 2.352 . S
O36 C39 1.258 . S
C37 O34 1.320 . S
C37 O35 1.214 . S
O38 Cd30 2.277 . S
O38 C33 1.209 . S
C39 O36 1.258 . S
C39 O41 1.282 . S
O40 Cd32 2.277 . S
O40 C33 1.226 . S
O41 Cd32 2.356 . S
O41 C39 1.282 . S
C42 O43 1.306 . S
C42 O45 1.160 . S
O43 C42 1.306 . S
O43 Cd44 2.228 . S
Cd44 O43 2.228 . S
Cd44 O48 2.273 . S
Cd44 O52 2.277 . S
O45 C42 1.160 . S
O45 Cd46 2.203 . S
Cd46 O45 2.203 . S
Cd46 O48 2.411 . S
Cd46 O49 2.333 . S
Cd46 O50 2.352 . S
Cd46 O54 2.277 . S
Cd46 O55 2.356 . S
C47 O52 1.209 . S
C47 O54 1.226 . S
O48 Cd44 2.273 . S
O48 Cd46 2.411 . S
O48 C51 1.320 . S
O49 Cd46 2.333 . S
O49 C51 1.214 . S
O50 Cd46 2.352 . S
O50 C53 1.258 . S
C51 O48 1.320 . S
C51 O49 1.214 . S
O52 Cd44 2.277 . S
O52 C47 1.209 . S
C53 O50 1.258 . S
C53 O55 1.282 . S
O54 Cd46 2.277 . S
O54 C47 1.226 . S
O55 Cd46 2.356 . S
O55 C53 1.282 . S
C56 O57 1.306 . S
C56 O59 1.160 . S
O57 C56 1.306 . S
O57 Cd58 2.228 . S
Cd58 O57 2.228 . S
Cd58 O62 2.273 . S
Cd58 O66 2.277 . S
O59 C56 1.160 . S
O59 Cd60 2.203 . S
Cd60 O59 2.203 . S
Cd60 O62 2.411 . S
Cd60 O63 2.333 . S
Cd60 O64 2.352 . S
Cd60 O68 2.277 . S
Cd60 O69 2.356 . S
C61 O66 1.209 . S
C61 O68 1.226 . S
O62 Cd58 2.273 . S
O62 Cd60 2.411 . S
O62 C65 1.320 . S
O63 Cd60 2.333 . S
O63 C65 1.214 . S
O64 Cd60 2.352 . S
O64 C67 1.258 . S
C65 O62 1.320 . S
C65 O63 1.214 . S
O66 Cd58 2.277 . S
O66 C61 1.209 . S
C67 O64 1.258 . S
C67 O69 1.282 . S
O68 Cd60 2.277 . S
O68 C61 1.226 . S
O69 Cd60 2.356 . S
O69 C67 1.282 . S
C70 O71 1.306 . S
C70 O73 1.160 . S
O71 C70 1.306 . S
O71 Cd72 2.228 . S
Cd72 O71 2.228 . S
Cd72 O76 2.273 . S
Cd72 O80 2.277 . S
O73 C70 1.160 . S
O73 Cd74 2.203 . S
Cd74 O73 2.203 . S
Cd74 O76 2.411 . S
Cd74 O77 2.333 . S
Cd74 O78 2.352 . S
Cd74 O82 2.277 . S
Cd74 O83 2.356 . S
C75 O80 1.209 . S
C75 O82 1.226 . S
O76 Cd72 2.273 . S
O76 Cd74 2.411 . S
O76 C79 1.320 . S
O77 Cd74 2.333 . S
O77 C79 1.214 . S
O78 Cd74 2.352 . S
O78 C81 1.258 . S
C79 O76 1.320 . S
C79 O77 1.214 . S
O80 Cd72 2.277 . S
O80 C75 1.209 . S
C81 O78 1.258 . S
C81 O83 1.282 . S
O82 Cd74 2.277 . S
O82 C75 1.226 . S
O83 Cd74 2.356 . S
O83 C81 1.282 . S
C84 C85 1.349 . S
C84 C86 1.327 . S
C84 H109 0.950 1_556 S
C85 C84 1.349 . S
C85 C101 1.349 . S
C86 C84 1.327 . S
C86 C105 1.429 . S
C86 H110 0.950 . S
C87 C104 1.574 . S
C87 C106 1.368 . S
C87 H111 0.949 . S
H88 C92 0.949 . S
C89 C90 1.349 . S
C89 C91 1.327 . S
C89 H112 0.950 . S
C90 C89 1.349 . S
C90 C102 1.349 . S
C91 C89 1.327 . S
C91 C107 1.429 . S
C91 H113 0.950 . S
C92 H88 0.949 . S
C92 C100 1.574 . S
C92 C108 1.368 . S
H93 C101 0.950 . S
H94 C99 0.950 . S
H95 C100 0.949 . S
H96 C102 0.950 . S
H97 C103 0.950 . S
H98 C104 0.949 . S
C99 H94 0.950 . S
C99 C101 1.327 . S
C99 C105 1.429 . S
C100 C92 1.574 . S
C100 H95 0.949 . S
C100 C106 1.368 1_655 S
C101 C85 1.349 . S
C101 H93 0.950 . S
C101 C99 1.327 . S
C102 C90 1.349 . S
C102 H96 0.950 . S
C102 C103 1.327 . S
C103 H97 0.950 . S
C103 C102 1.327 . S
C103 C107 1.429 . S
C104 C87 1.574 . S
C104 H98 0.949 . S
C104 C108 1.368 1_455 S
C105 C86 1.429 . S
C105 C99 1.429 . S
C105 C106 1.523 . S
C106 C87 1.368 . S
C106 C100 1.368 1_455 S
C106 C105 1.523 . S
C107 C91 1.429 . S
C107 C103 1.429 . S
C107 C108 1.523 . S
C108 C92 1.368 . S
C108 C104 1.368 1_655 S
C108 C107 1.523 . S
H109 C84 0.950 1_554 S
H110 C86 0.950 . S
H111 C87 0.949 . S
H112 C89 0.950 . S
H113 C91 0.950 . S
C114 C115 1.349 . S
C114 C116 1.327 . S
C114 H139 0.950 . S
C115 C114 1.349 . S
C115 C131 1.349 . S
C116 C114 1.327 . S
C116 C135 1.429 . S
C116 H140 0.950 . S
C117 C134 1.568 1_565 S
C117 C136 1.368 1_554 S
C117 H141 0.949 . S
H118 C122 0.949 . S
C119 C120 1.349 . S
C119 C121 1.327 . S
C119 H142 0.950 . S
C120 C119 1.349 . S
C120 C132 1.349 . S
C121 C119 1.327 . S
C121 C137 1.429 . S
C121 H143 0.950 . S
C122 H118 0.949 . S
C122 C130 1.574 1_554 S
C122 C138 1.368 . S
H123 C131 0.950 . S
H124 C129 0.950 . S
H125 C130 0.949 . S
H126 C132 0.950 . S
H127 C133 0.950 . S
H128 C134 0.951 1_565 S
C129 H124 0.950 . S
C129 C131 1.327 . S
C129 C135 1.429 . S
C130 C122 1.574 1_556 S
C130 H125 0.949 . S
C130 C136 1.368 1_545 S
C131 C115 1.349 . S
C131 H123 0.950 . S
C131 C129 1.327 . S
C132 C120 1.349 . S
C132 H126 0.950 . S
C132 C133 1.327 . S
C133 H127 0.950 . S
C133 C132 1.327 . S
C133 C137 1.429 . S
C134 C117 1.568 1_545 S
C134 H128 0.951 1_545 S
C134 C138 1.372 . S
C135 C116 1.429 . S
C135 C129 1.429 . S
C135 C136 1.523 . S
C136 C117 1.368 1_556 S
C136 C130 1.368 1_565 S
C136 C135 1.523 . S
C137 C121 1.429 . S
C137 C133 1.429 . S
C137 C138 1.523 . S
C138 C122 1.368 . S
C138 C134 1.372 . S
C138 C137 1.523 . S
H139 C114 0.950 . S
H140 C116 0.950 . S
H141 C117 0.949 . S
H142 C119 0.950 . S
H143 C121 0.950 . S
C144 C145 1.349 . S
C144 C146 1.327 . S
C144 H169 0.950 . S
C145 C144 1.349 . S
C145 C161 1.349 . S
C146 C144 1.327 . S
C146 C165 1.429 . S
C146 H170 0.950 . S
C147 C164 1.574 . S
C147 C166 1.368 . S
C147 H171 0.949 . S
H148 C152 0.949 . S
C149 C150 1.349 . S
C149 C151 1.327 . S
C149 H172 0.950 . S
C150 C149 1.349 . S
C150 C162 1.349 . S
C151 C149 1.327 . S
C151 C167 1.429 . S
C151 H173 0.950 . S
C152 H148 0.949 . S
C152 C160 1.574 . S
C152 C168 1.368 . S
H153 C161 0.950 . S
H154 C159 0.950 . S
H155 C160 0.949 . S
H156 C162 0.950 . S
H157 C163 0.950 . S
H158 C164 0.949 . S
C159 H154 0.950 . S
C159 C161 1.327 . S
C159 C165 1.429 . S
C160 C152 1.574 . S
C160 H155 0.949 . S
C160 C166 1.368 . S
C161 C145 1.349 . S
C161 H153 0.950 . S
C161 C159 1.327 . S
C162 C150 1.349 . S
C162 H156 0.950 . S
C162 C163 1.327 . S
C163 H157 0.950 . S
C163 C162 1.327 . S
C163 C167 1.429 . S
C164 C147 1.574 . S
C164 H158 0.949 . S
C164 C168 1.368 . S
C165 C146 1.429 . S
C165 C159 1.429 . S
C165 C166 1.523 . S
C166 C147 1.368 . S
C166 C160 1.368 . S
C166 C165 1.523 . S
C167 C151 1.429 . S
C167 C163 1.429 . S
C167 C168 1.523 . S
C168 C152 1.368 . S
C168 C164 1.368 . S
C168 C167 1.523 . S
H169 C144 0.950 . S
H170 C146 0.950 . S
H171 C147 0.949 . S
H172 C149 0.950 . S
H173 C151 0.950 . S
C174 C175 1.349 . S
C174 C176 1.327 . S
C174 H199 0.950 . S
C175 C174 1.349 . S
C175 C191 1.349 . S
C176 C174 1.327 . S
C176 C195 1.429 . S
C176 H200 0.950 . S
C177 C194 1.574 . S
C177 C196 1.368 . S
C177 H201 0.949 . S
H178 C182 0.949 . S
C179 C180 1.349 . S
C179 C181 1.327 . S
C179 H202 0.950 . S
C180 C179 1.349 . S
C180 C192 1.349 . S
C181 C179 1.327 . S
C181 C197 1.429 . S
C181 H203 0.950 . S
C182 H178 0.949 . S
C182 C190 1.574 . S
C182 C198 1.368 . S
H183 C191 0.950 . S
H184 C189 0.950 . S
H185 C190 0.949 . S
H186 C192 0.950 . S
H187 C193 0.950 . S
H188 C194 0.949 . S
C189 H184 0.950 . S
C189 C191 1.327 . S
C189 C195 1.429 . S
C190 C182 1.574 . S
C190 H185 0.949 . S
C190 C196 1.368 1_455 S
C191 C175 1.349 . S
C191 H183 0.950 . S
C191 C189 1.327 . S
C192 C180 1.349 . S
C192 H186 0.950 . S
C192 C193 1.327 . S
C193 H187 0.950 . S
C193 C192 1.327 . S
C193 C197 1.429 . S
C194 C177 1.574 . S
C194 H188 0.949 . S
C194 C198 1.368 1_655 S
C195 C176 1.429 . S
C195 C189 1.429 . S
C195 C196 1.523 . S
C196 C177 1.368 . S
C196 C190 1.368 1_655 S
C196 C195 1.523 . S
C197 C181 1.429 . S
C197 C193 1.429 . S
C197 C198 1.523 . S
C198 C182 1.368 . S
C198 C194 1.368 1_455 S
C198 C197 1.523 . S
H199 C174 0.950 . S
H200 C176 0.950 . S
H201 C177 0.949 . S
H202 C179 0.950 . S
H203 C181 0.950 . S
C204 C205 1.349 . S
C204 C206 1.327 . S
C204 H229 0.950 . S
C205 C204 1.349 . S
C205 C221 1.349 . S
C206 C204 1.327 . S
C206 C225 1.429 . S
C206 H230 0.950 . S
C207 C224 1.574 . S
C207 C226 1.368 . S
C207 H231 0.949 . S
H208 C212 0.949 . S
C209 C210 1.349 . S
C209 C211 1.327 . S
C209 H232 0.950 . S
C210 C209 1.349 . S
C210 C222 1.349 . S
C211 C209 1.327 . S
C211 C227 1.429 . S
C211 H233 0.950 . S
C212 H208 0.949 . S
C212 C220 1.574 . S
C212 C228 1.368 . S
H213 C221 0.950 . S
H214 C219 0.950 . S
H215 C220 0.949 . S
H216 C222 0.950 . S
H217 C223 0.950 . S
H218 C224 0.949 . S
C219 H214 0.950 . S
C219 C221 1.327 . S
C219 C225 1.429 . S
C220 C212 1.574 . S
C220 H215 0.949 . S
C220 C226 1.368 1_565 S
C221 C205 1.349 . S
C221 H213 0.950 . S
C221 C219 1.327 . S
C222 C210 1.349 . S
C222 H216 0.950 . S
C222 C223 1.327 . S
C223 H217 0.950 . S
C223 C222 1.327 . S
C223 C227 1.429 . S
C224 C207 1.574 . S
C224 H218 0.949 . S
C224 C228 1.368 1_545 S
C225 C206 1.429 . S
C225 C219 1.429 . S
C225 C226 1.523 . S
C226 C207 1.368 . S
C226 C220 1.368 1_545 S
C226 C225 1.523 . S
C227 C211 1.429 . S
C227 C223 1.429 . S
C227 C228 1.523 . S
C228 C212 1.368 . S
C228 C224 1.368 1_565 S
C228 C227 1.523 . S
H229 C204 0.950 . S
H230 C206 0.950 . S
H231 C207 0.949 . S
H232 C209 0.950 . S
H233 C211 0.950 . S
C234 C235 1.349 . S
C234 C236 1.327 . S
C234 H259 0.950 . S
C235 C234 1.349 . S
C235 C251 1.349 . S
C236 C234 1.327 . S
C236 C255 1.429 . S
C236 H260 0.950 . S
C237 C254 1.574 . S
C237 C256 1.368 . S
C237 H261 0.949 . S
H238 C242 0.949 . S
C239 C240 1.349 . S
C239 C241 1.327 . S
C239 H262 0.950 . S
C240 C239 1.349 . S
C240 C252 1.349 . S
C241 C239 1.327 . S
C241 C257 1.429 . S
C241 H263 0.950 . S
C242 H238 0.949 . S
C242 C250 1.574 . S
C242 C258 1.368 . S
H243 C251 0.950 . S
H244 C249 0.950 . S
H245 C250 0.949 . S
H246 C252 0.950 . S
H247 C253 0.950 . S
H248 C254 0.949 . S
C249 H244 0.950 . S
C249 C251 1.327 . S
C249 C255 1.429 . S
C250 C242 1.574 . S
C250 H245 0.949 . S
C250 C256 1.368 . S
C251 C235 1.349 . S
C251 H243 0.950 . S
C251 C249 1.327 . S
C252 C240 1.349 . S
C252 H246 0.950 . S
C252 C253 1.327 . S
C253 H247 0.950 . S
C253 C252 1.327 . S
C253 C257 1.429 . S
C254 C237 1.574 . S
C254 H248 0.949 . S
C254 C258 1.368 . S
C255 C236 1.429 . S
C255 C249 1.429 . S
C255 C256 1.523 . S
C256 C237 1.368 . S
C256 C250 1.368 . S
C256 C255 1.523 . S
C257 C241 1.429 . S
C257 C253 1.429 . S
C257 C258 1.523 . S
C258 C242 1.368 . S
C258 C254 1.368 . S
C258 C257 1.523 . S
H259 C234 0.950 . S
H260 C236 0.950 . S
H261 C237 0.949 . S
H262 C239 0.950 . S
H263 C241 0.950 . S
C264 C265 1.349 . S
C264 C266 1.327 . S
C264 H289 0.950 . S
C265 C264 1.349 . S
C265 C281 1.349 . S
C266 C264 1.327 . S
C266 C285 1.429 . S
C266 H290 0.950 . S
C267 C284 1.574 . S
C267 C286 1.368 . S
C267 H291 0.949 . S
H268 C272 0.949 . S
C269 C270 1.349 . S
C269 C271 1.327 . S
C269 H292 0.950 . S
C270 C269 1.349 . S
C270 C282 1.349 . S
C271 C269 1.327 . S
C271 C287 1.429 . S
C271 H293 0.950 . S
C272 H268 0.949 . S
C272 C280 1.574 . S
C272 C288 1.368 . S
H273 C281 0.950 . S
H274 C279 0.950 . S
H275 C280 0.949 . S
H276 C282 0.950 . S
H277 C283 0.950 . S
H278 C284 0.949 . S
C279 H274 0.950 . S
C279 C281 1.327 . S
C279 C285 1.429 . S
C280 C272 1.574 . S
C280 H275 0.949 . S
C280 C286 1.368 . S
C281 C265 1.349 . S
C281 H273 0.950 . S
C281 C279 1.327 . S
C282 C270 1.349 . S
C282 H276 0.950 . S
C282 C283 1.327 . S
C283 H277 0.950 . S
C283 C282 1.327 . S
C283 C287 1.429 . S
C284 C267 1.574 . S
C284 H278 0.949 . S
C284 C288 1.368 . S
C285 C266 1.429 . S
C285 C279 1.429 . S
C285 C286 1.523 . S
C286 C267 1.368 . S
C286 C280 1.368 . S
C286 C285 1.523 . S
C287 C271 1.429 . S
C287 C283 1.429 . S
C287 C288 1.523 . S
C288 C272 1.368 . S
C288 C284 1.368 . S
C288 C287 1.523 . S
H289 C264 0.950 . S
H290 C266 0.950 . S
H291 C267 0.949 . S
H292 C269 0.950 . S
H293 C271 0.950 . S
C294 C295 1.349 . S
C294 C296 1.327 . S
C294 H319 0.950 . S
C295 C294 1.349 . S
C295 C311 1.349 . S
C296 C294 1.327 . S
C296 C315 1.429 . S
C296 H320 0.950 . S
C297 C314 1.574 . S
C297 C316 1.368 . S
C297 H321 0.949 . S
H298 C302 0.949 . S
C299 C300 1.349 . S
C299 C301 1.327 . S
C299 H322 0.950 . S
C300 C299 1.349 . S
C300 C312 1.349 . S
C301 C299 1.327 . S
C301 C317 1.429 . S
C301 H323 0.950 . S
C302 H298 0.949 . S
C302 C310 1.574 . S
C302 C318 1.368 . S
H303 C311 0.950 . S
H304 C309 0.950 . S
H305 C310 0.949 . S
H306 C312 0.950 . S
H307 C313 0.950 . S
H308 C314 0.949 . S
C309 H304 0.950 . S
C309 C311 1.327 . S
C309 C315 1.429 . S
C310 C302 1.574 . S
C310 H305 0.949 . S
C310 C316 1.368 . S
C311 C295 1.349 . S
C311 H303 0.950 . S
C311 C309 1.327 . S
C312 C300 1.349 . S
C312 H306 0.950 . S
C312 C313 1.327 . S
C313 H307 0.950 . S
C313 C312 1.327 . S
C313 C317 1.429 . S
C314 C297 1.574 . S
C314 H308 0.949 . S
C314 C318 1.368 . S
C315 C296 1.429 . S
C315 C309 1.429 . S
C315 C316 1.523 . S
C316 C297 1.368 . S
C316 C310 1.368 . S
C316 C315 1.523 . S
C317 C301 1.429 . S
C317 C313 1.429 . S
C317 C318 1.523 . S
C318 C302 1.368 . S
C318 C314 1.368 . S
C318 C317 1.523 . S
H319 C294 0.950 . S
H320 C296 0.950 . S
H321 C297 0.949 . S
H322 C299 0.950 . S
H323 C301 0.950 . S
C324 C325 1.349 . S
C324 C326 1.327 . S
C324 H349 0.950 . S
C325 C324 1.349 . S
C325 C341 1.349 . S
C326 C324 1.327 . S
C326 C345 1.429 . S
C326 H350 0.950 . S
C327 C344 1.574 . S
C327 C346 1.368 . S
C327 H351 0.949 . S
H328 C332 0.949 . S
C329 C330 1.349 . S
C329 C331 1.327 . S
C329 H352 0.950 . S
C330 C329 1.349 . S
C330 C342 1.349 . S
C331 C329 1.327 . S
C331 C347 1.429 . S
C331 H353 0.950 . S
C332 H328 0.949 . S
C332 C340 1.574 . S
C332 C348 1.368 . S
H333 C341 0.950 . S
H334 C339 0.950 . S
H335 C340 0.949 . S
H336 C342 0.950 . S
H337 C343 0.950 . S
H338 C344 0.949 . S
C339 H334 0.950 . S
C339 C341 1.327 . S
C339 C345 1.429 . S
C340 C332 1.574 . S
C340 H335 0.949 . S
C340 C346 1.368 . S
C341 C325 1.349 . S
C341 H333 0.950 . S
C341 C339 1.327 . S
C342 C330 1.349 . S
C342 H336 0.950 . S
C342 C343 1.327 . S
C343 H337 0.950 . S
C343 C342 1.327 . S
C343 C347 1.429 . S
C344 C327 1.574 . S
C344 H338 0.949 . S
C344 C348 1.368 . S
C345 C326 1.429 . S
C345 C339 1.429 . S
C345 C346 1.523 . S
C346 C327 1.368 . S
C346 C340 1.368 . S
C346 C345 1.523 . S
C347 C331 1.429 . S
C347 C343 1.429 . S
C347 C348 1.523 . S
C348 C332 1.368 . S
C348 C344 1.368 . S
C348 C347 1.523 . S
H349 C324 0.950 . S
H350 C326 0.950 . S
H351 C327 0.949 . S
H352 C329 0.950 . S
H353 C331 0.950 . S
C354 C355 1.349 . S
C354 C356 1.327 . S
C354 H379 0.950 . S
C355 C354 1.349 . S
C355 C371 1.349 . S
C356 C354 1.327 . S
C356 C375 1.429 . S
C356 H380 0.950 . S
C357 C374 1.574 . S
C357 C376 1.368 . S
C357 H381 0.949 . S
H358 C362 0.949 . S
C359 C360 1.349 . S
C359 C361 1.327 . S
C359 H382 0.950 . S
C360 C359 1.349 . S
C360 C372 1.349 . S
C361 C359 1.327 . S
C361 C377 1.429 . S
C361 H383 0.950 . S
C362 H358 0.949 . S
C362 C370 1.574 . S
C362 C378 1.368 . S
H363 C371 0.950 . S
H364 C369 0.950 . S
H365 C370 0.949 . S
H366 C372 0.950 . S
H367 C373 0.950 . S
H368 C374 0.949 . S
C369 H364 0.950 . S
C369 C371 1.327 . S
C369 C375 1.429 . S
C370 C362 1.574 . S
C370 H365 0.949 . S
C370 C376 1.368 . S
C371 C355 1.349 . S
C371 H363 0.950 . S
C371 C369 1.327 . S
C372 C360 1.349 . S
C372 H366 0.950 . S
C372 C373 1.327 . S
C373 H367 0.950 . S
C373 C372 1.327 . S
C373 C377 1.429 . S
C374 C357 1.574 . S
C374 H368 0.949 . S
C374 C378 1.368 . S
C375 C356 1.429 . S
C375 C369 1.429 . S
C375 C376 1.523 . S
C376 C357 1.368 . S
C376 C370 1.368 . S
C376 C375 1.523 . S
C377 C361 1.429 . S
C377 C373 1.429 . S
C377 C378 1.523 . S
C378 C362 1.368 . S
C378 C374 1.368 . S
C378 C377 1.523 . S
H379 C354 0.950 . S
H380 C356 0.950 . S
H381 C357 0.949 . S
H382 C359 0.950 . S
H383 C361 0.950 . S
C384 C385 1.349 . S
C384 C386 1.327 . S
C384 H409 0.950 . S
C385 C384 1.349 . S
C385 C401 1.349 . S
C386 C384 1.327 . S
C386 C405 1.429 . S
C386 H410 0.950 . S
C387 C404 1.574 . S
C387 C406 1.368 . S
C387 H411 0.949 . S
H388 C392 0.949 . S
C389 C390 1.349 . S
C389 C391 1.327 . S
C389 H412 0.950 . S
C390 C389 1.349 . S
C390 C402 1.349 1_554 S
C391 C389 1.327 . S
C391 C407 1.429 1_554 S
C391 H413 0.950 . S
C392 H388 0.949 . S
C392 C400 1.574 . S
C392 C408 1.368 . S
H393 C401 0.950 . S
H394 C399 0.950 . S
H395 C400 0.949 . S
H396 C402 0.950 . S
H397 C403 0.950 . S
H398 C404 0.949 . S
C399 H394 0.950 . S
C399 C401 1.327 . S
C399 C405 1.429 . S
C400 C392 1.574 . S
C400 H395 0.949 . S
C400 C406 1.368 . S
C401 C385 1.349 . S
C401 H393 0.950 . S
C401 C399 1.327 . S
C402 C390 1.349 1_556 S
C402 H396 0.950 . S
C402 C403 1.327 . S
C403 H397 0.950 . S
C403 C402 1.327 . S
C403 C407 1.429 . S
C404 C387 1.574 . S
C404 H398 0.949 . S
C404 C408 1.368 . S
C405 C386 1.429 . S
C405 C399 1.429 . S
C405 C406 1.523 . S
C406 C387 1.368 . S
C406 C400 1.368 . S
C406 C405 1.523 . S
C407 C391 1.429 1_556 S
C407 C403 1.429 . S
C407 C408 1.523 . S
C408 C392 1.368 . S
C408 C404 1.368 . S
C408 C407 1.523 . S
H409 C384 0.950 . S
H410 C386 0.950 . S
H411 C387 0.949 . S
H412 C389 0.950 . S
H413 C391 0.950 . S
C414 C415 1.349 1_554 S
C414 C416 1.327 . S
C414 H439 0.950 . S
C415 C414 1.349 1_556 S
C415 C431 1.349 . S
C416 C414 1.327 . S
C416 C435 1.429 . S
C416 H440 0.950 . S
C417 C434 1.574 . S
C417 C436 1.368 . S
C417 H441 0.949 . S
H418 C422 0.949 . S
C419 C420 1.349 . S
C419 C421 1.327 . S
C419 H442 0.950 . S
C420 C419 1.349 . S
C420 C432 1.349 . S
C421 C419 1.327 . S
C421 C437 1.429 . S
C421 H443 0.950 . S
C422 H418 0.949 . S
C422 C430 1.574 . S
C422 C438 1.368 . S
H423 C431 0.950 . S
H424 C429 0.950 . S
H425 C430 0.949 . S
H426 C432 0.950 . S
H427 C433 0.950 . S
H428 C434 0.949 . S
C429 H424 0.950 . S
C429 C431 1.327 . S
C429 C435 1.429 1_556 S
C430 C422 1.574 . S
C430 H425 0.949 . S
C430 C436 1.368 . S
C431 C415 1.349 . S
C431 H423 0.950 . S
C431 C429 1.327 . S
C432 C420 1.349 . S
C432 H426 0.950 . S
C432 C433 1.327 . S
C433 H427 0.950 . S
C433 C432 1.327 . S
C433 C437 1.429 . S
C434 C417 1.574 . S
C434 H428 0.949 . S
C434 C438 1.368 . S
C435 C416 1.429 . S
C435 C429 1.429 1_554 S
C435 C436 1.523 . S
C436 C417 1.368 . S
C436 C430 1.368 . S
C436 C435 1.523 . S
C437 C421 1.429 . S
C437 C433 1.429 . S
C437 C438 1.523 . S
C438 C422 1.368 . S
C438 C434 1.368 . S
C438 C437 1.523 . S
H439 C414 0.950 . S
H440 C416 0.950 . S
H441 C417 0.949 . S
H442 C419 0.950 . S
H443 C421 0.950 . S
C85 C9 1.220 1_556 S
C90 C53 1.236 . S
C115 C67 1.236 . S
C120 C23 1.220 . S
C145 C37 1.220 . S
C150 C81 1.236 1_554 S
C175 C51 1.220 . S
C180 C11 1.236 . S
C205 C25 1.236 . S
C210 C65 1.220 . S
C235 C79 1.220 . S
C240 C39 1.236 . S
C265 C0 1.170 . S
C270 C33 1.171 . S
C295 C14 1.170 . S
C300 C47 1.171 . S
C325 C61 1.171 . S
C330 C28 1.170 . S
C355 C75 1.171 . S
C360 C42 1.170 . S
C385 C56 1.170 . S
C390 C5 1.171 . S
C415 C70 1.170 . S
C420 C19 1.171 . S
