# Generated by pormake.
# Topology smd, (6)-cn, num edge types: 1
# Building blocks:
#     Node 0, Type 0, BuildingBlock: MIFKUJ_clean_sbu_0, # of connection points: 6
#     Node 1, Type 0, BuildingBlock: MIFKUJ_clean_sbu_0, # of connection points: 6
#     Node 2, Type 0, BuildingBlock: MIFKUJ_clean_sbu_0, # of connection points: 6
#     Node 3, Type 0, BuildingBlock: MIFKUJ_clean_sbu_0, # of connection points: 6
#     Node 4, Type 0, BuildingBlock: MIFKUJ_clean_sbu_0, # of connection points: 6
#     Node 5, Type 0, BuildingBlock: MIFKUJ_clean_sbu_0, # of connection points: 6
#     Node 6, Type 0, BuildingBlock: MIFKUJ_clean_sbu_0, # of connection points: 6
#     Node 7, Type 0, BuildingBlock: MIFKUJ_clean_sbu_0, # of connection points: 6
#     Node 8, Type 0, BuildingBlock: MIFKUJ_clean_sbu_0, # of connection points: 6
#     Node 9, Type 0, BuildingBlock: MIFKUJ_clean_sbu_0, # of connection points: 6
#     Node 10, Type 0, BuildingBlock: MIFKUJ_clean_sbu_0, # of connection points: 6
#     Node 11, Type 0, BuildingBlock: MIFKUJ_clean_sbu_0, # of connection points: 6
#     Node 12, Type 0, BuildingBlock: MIFKUJ_clean_sbu_0, # of connection points: 6
#     Node 13, Type 0, BuildingBlock: MIFKUJ_clean_sbu_0, # of connection points: 6
#     Node 14, Type 0, BuildingBlock: MIFKUJ_clean_sbu_0, # of connection points: 6
#     Node 15, Type 0, BuildingBlock: MIFKUJ_clean_sbu_0, # of connection points: 6
#     Node 16, Type 0, BuildingBlock: MIFKUJ_clean_sbu_0, # of connection points: 6
#     Node 17, Type 0, BuildingBlock: MIFKUJ_clean_sbu_0, # of connection points: 6
#     Edge 18, Type (0, 0), BuildingBlock: CIFDUS_clean_linker_0, # of connection points: 2
#     Edge 19, Type (0, 0), BuildingBlock: CIFDUS_clean_linker_0, # of connection points: 2
#     Edge 20, Type (0, 0), BuildingBlock: CIFDUS_clean_linker_0, # of connection points: 2
#     Edge 21, Type (0, 0), BuildingBlock: CIFDUS_clean_linker_0, # of connection points: 2
#     Edge 22, Type (0, 0), BuildingBlock: CIFDUS_clean_linker_0, # of connection points: 2
#     Edge 23, Type (0, 0), BuildingBlock: CIFDUS_clean_linker_0, # of connection points: 2
#     Edge 24, Type (0, 0), BuildingBlock: CIFDUS_clean_linker_0, # of connection points: 2
#     Edge 25, Type (0, 0), BuildingBlock: CIFDUS_clean_linker_0, # of connection points: 2
#     Edge 26, Type (0, 0), BuildingBlock: CIFDUS_clean_linker_0, # of connection points: 2
#     Edge 27, Type (0, 0), BuildingBlock: CIFDUS_clean_linker_0, # of connection points: 2
#     Edge 28, Type (0, 0), BuildingBlock: CIFDUS_clean_linker_0, # of connection points: 2
#     Edge 29, Type (0, 0), BuildingBlock: CIFDUS_clean_linker_0, # of connection points: 2
#     Edge 30, Type (0, 0), BuildingBlock: CIFDUS_clean_linker_0, # of connection points: 2
#     Edge 31, Type (0, 0), BuildingBlock: CIFDUS_clean_linker_0, # of connection points: 2
#     Edge 32, Type (0, 0), BuildingBlock: CIFDUS_clean_linker_0, # of connection points: 2
#     Edge 33, Type (0, 0), BuildingBlock: CIFDUS_clean_linker_0, # of connection points: 2
#     Edge 34, Type (0, 0), BuildingBlock: CIFDUS_clean_linker_0, # of connection points: 2
#     Edge 35, Type (0, 0), BuildingBlock: CIFDUS_clean_linker_0, # of connection points: 2
#     Edge 36, Type (0, 0), BuildingBlock: CIFDUS_clean_linker_0, # of connection points: 2
#     Edge 37, Type (0, 0), BuildingBlock: CIFDUS_clean_linker_0, # of connection points: 2
#     Edge 38, Type (0, 0), BuildingBlock: CIFDUS_clean_linker_0, # of connection points: 2
#     Edge 39, Type (0, 0), BuildingBlock: CIFDUS_clean_linker_0, # of connection points: 2
#     Edge 40, Type (0, 0), BuildingBlock: CIFDUS_clean_linker_0, # of connection points: 2
#     Edge 41, Type (0, 0), BuildingBlock: CIFDUS_clean_linker_0, # of connection points: 2
#     Edge 42, Type (0, 0), BuildingBlock: CIFDUS_clean_linker_0, # of connection points: 2
#     Edge 43, Type (0, 0), BuildingBlock: CIFDUS_clean_linker_0, # of connection points: 2
#     Edge 44, Type (0, 0), BuildingBlock: CIFDUS_clean_linker_0, # of connection points: 2
#     Edge 45, Type (0, 0), BuildingBlock: CIFDUS_clean_linker_0, # of connection points: 2
#     Edge 46, Type (0, 0), BuildingBlock: CIFDUS_clean_linker_0, # of connection points: 2
#     Edge 47, Type (0, 0), BuildingBlock: CIFDUS_clean_linker_0, # of connection points: 2
#     Edge 48, Type (0, 0), BuildingBlock: CIFDUS_clean_linker_0, # of connection points: 2
#     Edge 49, Type (0, 0), BuildingBlock: CIFDUS_clean_linker_0, # of connection points: 2
#     Edge 50, Type (0, 0), BuildingBlock: CIFDUS_clean_linker_0, # of connection points: 2
#     Edge 51, Type (0, 0), BuildingBlock: CIFDUS_clean_linker_0, # of connection points: 2
#     Edge 52, Type (0, 0), BuildingBlock: CIFDUS_clean_linker_0, # of connection points: 2
#     Edge 53, Type (0, 0), BuildingBlock: CIFDUS_clean_linker_0, # of connection points: 2
#     Edge 54, Type (0, 0), BuildingBlock: CIFDUS_clean_linker_0, # of connection points: 2
#     Edge 55, Type (0, 0), BuildingBlock: CIFDUS_clean_linker_0, # of connection points: 2
#     Edge 56, Type (0, 0), BuildingBlock: CIFDUS_clean_linker_0, # of connection points: 2
#     Edge 57, Type (0, 0), BuildingBlock: CIFDUS_clean_linker_0, # of connection points: 2
#     Edge 58, Type (0, 0), BuildingBlock: CIFDUS_clean_linker_0, # of connection points: 2
#     Edge 59, Type (0, 0), BuildingBlock: CIFDUS_clean_linker_0, # of connection points: 2
#     Edge 60, Type (0, 0), BuildingBlock: CIFDUS_clean_linker_0, # of connection points: 2
#     Edge 61, Type (0, 0), BuildingBlock: CIFDUS_clean_linker_0, # of connection points: 2
#     Edge 62, Type (0, 0), BuildingBlock: CIFDUS_clean_linker_0, # of connection points: 2
#     Edge 63, Type (0, 0), BuildingBlock: CIFDUS_clean_linker_0, # of connection points: 2
#     Edge 64, Type (0, 0), BuildingBlock: CIFDUS_clean_linker_0, # of connection points: 2
#     Edge 65, Type (0, 0), BuildingBlock: CIFDUS_clean_linker_0, # of connection points: 2
#     Edge 66, Type (0, 0), BuildingBlock: CIFDUS_clean_linker_0, # of connection points: 2
#     Edge 67, Type (0, 0), BuildingBlock: CIFDUS_clean_linker_0, # of connection points: 2
#     Edge 68, Type (0, 0), BuildingBlock: CIFDUS_clean_linker_0, # of connection points: 2
#     Edge 69, Type (0, 0), BuildingBlock: CIFDUS_clean_linker_0, # of connection points: 2
#     Edge 70, Type (0, 0), BuildingBlock: CIFDUS_clean_linker_0, # of connection points: 2
#     Edge 71, Type (0, 0), BuildingBlock: CIFDUS_clean_linker_0, # of connection points: 2
# Relax obj value: 0.197
# Max RMSD: 0.246
# Mean RMSD: 0.246
data_MOF--net-smd--node1-MIFKUJ_clean_sbu_0--edge1-CIFDUS_clean_linker_0
_symmetry_space_group_name_H-M    P1
_symmetry_Int_Tables_number       1
_symmetry_cell_setting            triclinic
loop_
_symmetry_equiv_pos_as_xyz
'x, y, z'
_cell_length_a     62.910177
_cell_length_b     62.852804
_cell_length_c     16.516538
_cell_angle_alpha  89.980735
_cell_angle_beta   89.965378
_cell_angle_gamma 120.00634
loop_
_atom_site_label
_atom_site_type_symbol
_atom_site_fract_x
_atom_site_fract_y
_atom_site_fract_z
_atom_type_partial_charge
Zn0 Zn 0.02018 0.24299 0.62667 0.0
Zn1 Zn 0.02699 0.22932 0.41418 0.0
C2 C 0.9882 0.26493 0.61904 0.0
O3 O 0.9915 0.26575 0.54031 0.0
C4 C 0.06183 0.2134 0.4109 0.0
O5 O 0.04722 0.20046 0.35143 0.0
O6 O 0.03321 0.23872 0.7334 0.0
O7 O 0.99729 0.20912 0.5812 0.0
O8 O 0.99616 0.19963 0.45167 0.0
C9 C 0.01654 0.22306 0.77971 0.0
O10 O 0.99403 0.21036 0.75179 0.0
O11 O 0.99835 0.25614 0.66386 0.0
C12 C 0.0449 0.24379 0.25152 0.0
O13 O 0.06349 0.26179 0.28986 0.0
O14 O 0.02688 0.22762 0.29228 0.0
O15 O 0.03058 0.26238 0.43774 0.0
O16 O 0.04746 0.27025 0.55942 0.0
O17 O 0.0567 0.22739 0.45189 0.0
C18 C 0.98805 0.19384 0.52336 0.0
C19 C 0.04569 0.27741 0.48887 0.0
Zn20 Zn 0.79085 0.79298 0.57871 0.0
Zn21 Zn 0.80376 0.80328 0.37856 0.0
C22 C 0.7823 0.7469 0.64329 0.0
O23 O 0.79951 0.76159 0.69395 0.0
C24 C 0.81547 0.85407 0.37198 0.0
O25 O 0.82294 0.85283 0.29879 0.0
O26 O 0.78906 0.80247 0.69618 0.0
O27 O 0.82701 0.80747 0.54952 0.0
O28 O 0.83284 0.80177 0.42062 0.0
C29 C 0.8084 0.81613 0.7368 0.0
O30 O 0.82965 0.82685 0.69938 0.0
O31 O 0.77631 0.75623 0.58558 0.0
C32 C 0.78502 0.79857 0.21525 0.0
O33 O 0.76454 0.79189 0.25502 0.0
O34 O 0.80446 0.80403 0.2549 0.0
O35 O 0.77092 0.77518 0.41122 0.0
O36 O 0.76665 0.79695 0.50727 0.0
O37 O 0.80673 0.83522 0.41749 0.0
C38 C 0.84081 0.80776 0.49253 0.0
C39 C 0.75735 0.78109 0.45089 0.0
Zn40 Zn 0.24308 0.01944 0.49727 0.0
Zn41 Zn 0.21085 0.00752 0.29019 0.0
C42 C 0.28982 0.05007 0.56765 0.0
O43 O 0.27563 0.05333 0.61849 0.0
C44 C 0.16952 0.97016 0.39118 0.0
O45 O 0.17813 0.98566 0.45203 0.0
O46 O 0.22893 0.00462 0.60525 0.0
O47 O 0.23401 0.04521 0.4701 0.0
O48 O 0.21511 0.03766 0.35073 0.0
C49 C 0.21709 0.01194 0.64823 0.0
O50 O 0.21324 0.0293 0.62055 0.0
O51 O 0.28006 0.03613 0.50681 0.0
C52 C 0.20225 0.99606 0.12424 0.0
O53 O 0.20183 0.9761 0.15027 0.0
O54 O 0.20579 0.01276 0.17459 0.0
O55 O 0.23969 0.00179 0.29103 0.0
O56 O 0.23013 0.99234 0.41723 0.0
O57 O 0.18041 0.9762 0.32316 0.0
C58 C 0.22349 0.05065 0.41458 0.0
C59 C 0.24357 0.99431 0.35747 0.0
Zn60 Zn 0.00827 0.80587 0.60851 0.0
Zn61 Zn 0.0189 0.79392 0.40292 0.0
C62 C 0.97006 0.81792 0.58479 0.0
O63 O 0.98113 0.8326 0.64628 0.0
C64 C 0.02916 0.75815 0.33939 0.0
O65 O 0.00711 0.75036 0.3096 0.0
O66 O 0.00663 0.80844 0.7303 0.0
O67 O 0.00695 0.77379 0.58757 0.0
O68 O 0.98944 0.76926 0.46865 0.0
C69 C 0.98958 0.79196 0.77342 0.0
O70 O 0.97158 0.77269 0.73768 0.0
O71 O 0.97866 0.8049 0.55709 0.0
C72 C 0.02492 0.81218 0.24247 0.0
O73 O 0.04747 0.82491 0.27004 0.0
O74 O 0.00807 0.7975 0.29032 0.0
O75 O 0.04287 0.82808 0.44543 0.0
O76 O 0.03901 0.83586 0.57367 0.0
O77 O 0.0387 0.77716 0.38412 0.0
C78 C 0.99249 0.75992 0.53289 0.0
C79 C 0.05009 0.84246 0.50618 0.0
Zn80 Zn 0.22232 0.21194 0.64491 0.0
Zn81 Zn 0.2359 0.23875 0.43496 0.0
C82 C 0.21707 0.17036 0.54222 0.0
O83 O 0.20977 0.17916 0.48306 0.0
C84 C 0.26826 0.28605 0.36385 0.0
O85 O 0.27393 0.27261 0.31762 0.0
O86 O 0.21906 0.21016 0.76608 0.0
O87 O 0.25554 0.24136 0.62392 0.0
O88 O 0.25928 0.23194 0.49823 0.0
C89 C 0.2339 0.20705 0.80982 0.0
O90 O 0.25125 0.20451 0.77469 0.0
O91 O 0.2225 0.18114 0.61049 0.0
C92 C 0.21663 0.22695 0.27662 0.0
O93 O 0.20441 0.23717 0.30567 0.0
O94 O 0.23149 0.22458 0.32275 0.0
O95 O 0.20213 0.22804 0.4792 0.0
O96 O 0.19299 0.21357 0.60459 0.0
O97 O 0.25258 0.27566 0.42015 0.0
C98 C 0.26887 0.24383 0.56288 0.0
C99 C 0.18724 0.21965 0.53833 0.0
Zn100 Zn 0.82345 0.01698 0.57021 0.0
Zn101 Zn 0.79891 0.01532 0.37516 0.0
C102 C 0.87193 0.05869 0.56169 0.0
O103 O 0.87503 0.04657 0.62094 0.0
C104 C 0.74726 0.00137 0.35168 0.0
O105 O 0.75467 0.02443 0.36892 0.0
O106 O 0.82875 0.01469 0.68862 0.0
O107 O 0.79099 0.01565 0.56544 0.0
O108 O 0.80172 0.0401 0.45982 0.0
C109 C 0.82969 0.03058 0.7382 0.0
O110 O 0.82813 0.04937 0.71064 0.0
O111 O 0.85111 0.04935 0.52703 0.0
C112 C 0.81261 0.0174 0.21489 0.0
O113 O 0.80248 0.99391 0.23224 0.0
O114 O 0.81403 0.03215 0.27 0.0
O115 O 0.81025 0.99067 0.39725 0.0
O116 O 0.82337 0.98837 0.51934 0.0
O117 O 0.76269 0.99392 0.35098 0.0
C118 C 0.78893 0.03139 0.5235 0.0
C119 C 0.81823 0.98086 0.44697 0.0
Zn120 Zn 0.68441 0.58171 0.95667 0.0
Zn121 Zn 0.68681 0.5613 0.76014 0.0
C122 C 0.65101 0.59612 0.02421 0.0
O123 O 0.6483 0.57997 0.07967 0.0
C124 C 0.72225 0.55433 0.85946 0.0
O125 O 0.70562 0.5463 0.91703 0.0
O126 O 0.69944 0.58469 0.06684 0.0
O127 O 0.65971 0.54552 0.9367 0.0
O128 O 0.65694 0.53319 0.80979 0.0
C129 C 0.68947 0.56682 0.11611 0.0
O130 O 0.66994 0.54648 0.09323 0.0
O131 O 0.66522 0.5997 0.96449 0.0
C132 C 0.70042 0.56821 0.59424 0.0
O133 O 0.7198 0.58781 0.62285 0.0
O134 O 0.68356 0.554 0.64254 0.0
O135 O 0.69174 0.59541 0.76907 0.0
O136 O 0.71283 0.60161 0.88074 0.0
O137 O 0.71786 0.5614 0.79265 0.0
C138 C 0.64968 0.52903 0.88265 0.0
C139 C 0.70908 0.60983 0.81535 0.0
Zn140 Zn 0.45998 0.12923 0.86334 0.0
Zn141 Zn 0.47818 0.14962 0.66271 0.0
C142 C 0.44916 0.08531 0.95 0.0
O143 O 0.46946 0.10073 0.98792 0.0
C144 C 0.49435 0.1934 0.76747 0.0
O145 O 0.51121 0.18874 0.79464 0.0
O146 O 0.46055 0.14615 0.96801 0.0
O147 O 0.49441 0.13607 0.83562 0.0
O148 O 0.50413 0.14337 0.70565 0.0
C149 C 0.47904 0.15591 0.01484 0.0
O150 O 0.49968 0.15743 0.99105 0.0
O151 O 0.44151 0.09324 0.89261 0.0
C152 C 0.47226 0.15954 0.49479 0.0
O153 O 0.45131 0.15691 0.5206 0.0
O154 O 0.48643 0.15743 0.54484 0.0
O155 O 0.44393 0.12077 0.66772 0.0
O156 O 0.43771 0.13372 0.78417 0.0
O157 O 0.47918 0.17939 0.71428 0.0
C158 C 0.50901 0.13976 0.77707 0.0
C159 C 0.42928 0.12116 0.71975 0.0
Zn160 Zn 0.90754 0.35479 0.90372 0.0
Zn161 Zn 0.8805 0.3462 0.69702 0.0
C162 C 0.95862 0.37055 0.93956 0.0
O163 O 0.95225 0.34802 0.91822 0.0
C164 C 0.83206 0.30586 0.71864 0.0
O165 O 0.82862 0.31624 0.65477 0.0
O166 O 0.89068 0.34101 0.01271 0.0
O167 O 0.89624 0.37771 0.85806 0.0
O168 O 0.88024 0.37594 0.73721 0.0
C169 C 0.89244 0.35772 0.0606 0.0
O170 O 0.90305 0.38042 0.03383 0.0
O171 O 0.94282 0.37752 0.93652 0.0
C172 C 0.87491 0.32662 0.53366 0.0
O173 O 0.87562 0.30872 0.57238 0.0
O174 O 0.87586 0.34429 0.57441 0.0
O175 O 0.91321 0.34879 0.71367 0.0
O176 O 0.90831 0.32908 0.82887 0.0
O177 O 0.85333 0.31561 0.75002 0.0
C178 C 0.8874 0.38612 0.80592 0.0
C179 C 0.91512 0.33282 0.75499 0.0
Zn180 Zn 0.67413 0.14198 0.92363 0.0
Zn181 Zn 0.69179 0.12209 0.71546 0.0
C182 C 0.63649 0.15506 0.92802 0.0
O183 O 0.65026 0.169 0.98746 0.0
C184 C 0.70913 0.09268 0.64551 0.0
O185 O 0.6859 0.07623 0.65657 0.0
O186 O 0.67852 0.14951 0.04267 0.0
O187 O 0.66814 0.10719 0.91863 0.0
O188 O 0.6761 0.09602 0.80013 0.0
C189 C 0.66281 0.13514 0.09397 0.0
O190 O 0.64317 0.11522 0.06835 0.0
O191 O 0.64333 0.14214 0.88857 0.0
C192 C 0.6817 0.13516 0.56863 0.0
O193 O 0.70465 0.15174 0.58341 0.0
O194 O 0.6698 0.11906 0.62252 0.0
O195 O 0.71049 0.1569 0.75305 0.0
O196 O 0.70422 0.17021 0.87029 0.0
O197 O 0.71669 0.11486 0.66542 0.0
C198 C 0.66848 0.09116 0.87264 0.0
C199 C 0.7158 0.17395 0.80389 0.0
Zn200 Zn 0.88033 0.5444 0.96402 0.0
Zn201 Zn 0.90178 0.57364 0.76129 0.0
C202 C 0.87253 0.50479 0.84983 0.0
O203 O 0.86399 0.51469 0.79863 0.0
C204 C 0.91981 0.61995 0.68011 0.0
O205 O 0.90249 0.60602 0.62858 0.0
O206 O 0.87067 0.53768 0.08078 0.0
O207 O 0.91477 0.57288 0.96293 0.0
O208 O 0.91991 0.56383 0.83912 0.0
C209 C 0.88411 0.53479 0.13179 0.0
O210 O 0.90432 0.53558 0.10673 0.0
O211 O 0.87989 0.51442 0.91923 0.0
C212 C 0.88149 0.54827 0.60895 0.0
O213 O 0.86145 0.5479 0.6335 0.0
O214 O 0.90026 0.55753 0.65456 0.0
O215 O 0.86791 0.56756 0.79168 0.0
O216 O 0.85515 0.55072 0.913 0.0
O217 O 0.92295 0.61017 0.74302 0.0
C218 C 0.92881 0.57614 0.90343 0.0
C219 C 0.85186 0.55938 0.84774 0.0
Zn220 Zn 0.48843 0.35071 0.96013 0.0
Zn221 Zn 0.45892 0.34226 0.75392 0.0
C222 C 0.53667 0.39329 0.95018 0.0
O223 O 0.53984 0.38322 0.0154 0.0
C224 C 0.4114 0.32112 0.67272 0.0
O225 O 0.4243 0.33544 0.61253 0.0
O226 O 0.49092 0.35095 0.08315 0.0
O227 O 0.4562 0.34852 0.93594 0.0
O228 O 0.4623 0.37021 0.82534 0.0
C229 C 0.49294 0.36897 0.12454 0.0
O230 O 0.49461 0.3881 0.08643 0.0
O231 O 0.51614 0.3823 0.91373 0.0
C232 C 0.47509 0.33745 0.59773 0.0
O233 O 0.46768 0.31562 0.62889 0.0
O234 O 0.47423 0.35366 0.64171 0.0
O235 O 0.47029 0.3197 0.80094 0.0
O236 O 0.48884 0.32122 0.91636 0.0
O237 O 0.42226 0.32096 0.73749 0.0
C238 C 0.45697 0.36677 0.90035 0.0
C239 C 0.47969 0.31084 0.84913 0.0
Zn240 Zn 0.36316 0.91827 0.28155 0.0
Zn241 Zn 0.35731 0.90248 0.10228 0.0
C242 C 0.33656 0.94311 0.32401 0.0
O243 O 0.35321 0.95222 0.38137 0.0
C244 C 0.39684 0.89044 0.10481 0.0
O245 O 0.38922 0.8822 0.03132 0.0
O246 O 0.37496 0.92362 0.39738 0.0
O247 O 0.3474 0.88114 0.266 0.0
O248 O 0.32638 0.87732 0.15559 0.0
C249 C 0.35986 0.90916 0.44999 0.0
O250 O 0.33804 0.89194 0.42614 0.0
O251 O 0.33667 0.92769 0.27431 0.0
C252 C 0.36857 0.91062 0.9322 0.0
O253 O 0.38759 0.93087 0.9591 0.0
O254 O 0.35332 0.89533 0.98275 0.0
O255 O 0.36512 0.93729 0.11274 0.0
O256 O 0.39099 0.9435 0.21115 0.0
O257 O 0.38599 0.89944 0.14523 0.0
C258 C 0.32881 0.86836 0.22139 0.0
C259 C 0.3847 0.95161 0.1505 0.0
Zn260 Zn 0.12668 0.45794 0.21388 0.0
Zn261 Zn 0.14773 0.48494 0.01488 0.0
C262 C 0.11454 0.41381 0.3065 0.0
O263 O 0.1303 0.42974 0.35826 0.0
C264 C 0.15312 0.52754 0.1096 0.0
O265 O 0.17248 0.52834 0.14273 0.0
O266 O 0.12478 0.47366 0.31904 0.0
O267 O 0.16249 0.46887 0.18749 0.0
O268 O 0.17643 0.48522 0.06634 0.0
C269 C 0.14328 0.48502 0.36537 0.0
O270 O 0.16479 0.48906 0.34031 0.0
O271 O 0.11054 0.42158 0.24027 0.0
C272 C 0.14007 0.4912 0.84658 0.0
O273 O 0.11817 0.48539 0.87361 0.0
O274 O 0.1561 0.49255 0.89648 0.0
O275 O 0.11755 0.45174 0.01722 0.0
O276 O 0.10396 0.45974 0.12927 0.0
O277 O 0.14055 0.51081 0.05834 0.0
C278 C 0.17966 0.47828 0.13512 0.0
C279 C 0.09991 0.44757 0.06403 0.0
Zn280 Zn 0.57102 0.69296 0.26722 0.0
Zn281 Zn 0.54611 0.67997 0.05911 0.0
C282 C 0.61792 0.70004 0.31018 0.0
O283 O 0.60467 0.67608 0.31776 0.0
C284 C 0.49567 0.6425 0.0572 0.0
O285 O 0.49602 0.65608 0.99616 0.0
O286 O 0.55659 0.68297 0.37917 0.0
O287 O 0.56154 0.7173 0.22281 0.0
O288 O 0.54728 0.71072 0.09721 0.0
C289 C 0.55875 0.70002 0.42587 0.0
O290 O 0.56856 0.72249 0.39726 0.0
O291 O 0.60761 0.71203 0.28762 0.0
C292 C 0.54283 0.66355 0.89349 0.0
O293 O 0.54161 0.64419 0.92854 0.0
O294 O 0.54461 0.68099 0.93731 0.0
O295 O 0.5759 0.67696 0.08135 0.0
O296 O 0.56427 0.66223 0.20423 0.0
O297 O 0.5152 0.64946 0.09797 0.0
C298 C 0.55334 0.72332 0.16183 0.0
C299 C 0.57616 0.66402 0.13985 0.0
Zn300 Zn 0.34106 0.47423 0.28839 0.0
Zn301 Zn 0.36392 0.46285 0.06986 0.0
C302 C 0.30255 0.48653 0.30446 0.0
O303 O 0.31291 0.49465 0.37533 0.0
C304 C 0.39853 0.44536 0.06572 0.0
O305 O 0.39235 0.44059 0.14237 0.0
O306 O 0.34311 0.47578 0.41091 0.0
O307 O 0.3332 0.43958 0.26121 0.0
O308 O 0.34328 0.43307 0.13839 0.0
C309 C 0.32664 0.45875 0.45423 0.0
O310 O 0.30813 0.43995 0.41847 0.0
O311 O 0.31185 0.47778 0.2554 0.0
C312 C 0.36112 0.48253 0.92236 0.0
O313 O 0.3833 0.49827 0.94802 0.0
O314 O 0.34692 0.46498 0.96899 0.0
O315 O 0.38216 0.4955 0.12563 0.0
O316 O 0.3728 0.50353 0.24756 0.0
O317 O 0.38954 0.45592 0.02383 0.0
C318 C 0.33337 0.42522 0.20723 0.0
C319 C 0.38628 0.51004 0.18456 0.0
Zn320 Zn 0.55292 0.88948 0.3402 0.0
Zn321 Zn 0.57564 0.91151 0.14426 0.0
C322 C 0.54896 0.84645 0.24986 0.0
O323 O 0.53668 0.85076 0.19421 0.0
C324 C 0.61056 0.95862 0.07852 0.0
O325 O 0.61981 0.94568 0.04811 0.0
O326 O 0.54508 0.88612 0.45793 0.0
O327 O 0.58522 0.9212 0.33141 0.0
O328 O 0.5964 0.90708 0.22843 0.0
C329 C 0.55804 0.88198 0.50733 0.0
O330 O 0.57617 0.87935 0.47952 0.0
O331 O 0.55706 0.8604 0.31142 0.0
C332 C 0.56459 0.89972 0.98381 0.0
O333 O 0.55302 0.91163 0.00215 0.0
O334 O 0.5769 0.89651 0.03852 0.0
O335 O 0.53982 0.90034 0.16318 0.0
O336 O 0.5241 0.88868 0.28551 0.0
O337 O 0.59176 0.94804 0.12394 0.0
C338 C 0.6021 0.92153 0.28841 0.0
C339 C 0.52186 0.89285 0.21184 0.0
Zn340 Zn 0.16172 0.69575 0.31554 0.0
Zn341 Zn 0.11626 0.67005 0.1183 0.0
C342 C 0.21272 0.73596 0.3102 0.0
O343 O 0.21415 0.72783 0.38207 0.0
C344 C 0.07046 0.64912 0.02635 0.0
O345 O 0.08342 0.66684 0.97468 0.0
O346 O 0.16555 0.69131 0.4354 0.0
O347 O 0.13537 0.70508 0.31068 0.0
O348 O 0.11266 0.6917 0.19948 0.0
C349 C 0.16443 0.70502 0.48996 0.0
O350 O 0.1622 0.72392 0.46825 0.0
O351 O 0.19272 0.72468 0.27075 0.0
C352 C 0.13855 0.67696 0.96221 0.0
O353 O 0.13343 0.65435 0.97726 0.0
O354 O 0.13384 0.68845 0.01625 0.0
O355 O 0.13018 0.64925 0.15787 0.0
O356 O 0.15528 0.66367 0.26388 0.0
O357 O 0.08085 0.64659 0.08874 0.0
C358 C 0.11833 0.7036 0.26554 0.0
C359 C 0.14418 0.64744 0.20953 0.0
H360 H 0.11521 0.39216 0.44861 0.0
H361 H 0.08254 0.37569 0.21053 0.0
H362 H 0.05873 0.33217 0.24565 0.0
H363 H 0.0466 0.29889 0.34447 0.0
H364 H 0.07884 0.31541 0.58328 0.0
H365 H 0.10335 0.35878 0.54712 0.0
C366 C 0.10296 0.37906 0.40419 0.0
C367 C 0.10071 0.38726 0.32698 0.0
C368 C 0.08915 0.35405 0.42498 0.0
C369 C 0.08466 0.36997 0.2704 0.0
C370 C 0.071 0.34504 0.29046 0.0
C371 C 0.05898 0.31193 0.38878 0.0
C372 C 0.06076 0.30379 0.46668 0.0
C373 C 0.07299 0.3369 0.36771 0.0
C374 C 0.077 0.32106 0.52296 0.0
C375 C 0.09106 0.34591 0.50233 0.0
H376 H 0.7294 0.73698 0.37987 0.0
H377 H 0.72625 0.79911 0.4762 0.0
H378 H 0.68297 0.78013 0.43698 0.0
H379 H 0.64591 0.74555 0.37543 0.0
H380 H 0.6489 0.68237 0.2888 0.0
H381 H 0.69243 0.70212 0.32348 0.0
C382 C 0.71925 0.74639 0.3922 0.0
C383 C 0.731 0.76945 0.43047 0.0
C384 C 0.69438 0.73519 0.37089 0.0
C385 C 0.71755 0.78129 0.44706 0.0
C386 C 0.69286 0.77049 0.42434 0.0
C387 C 0.65621 0.73626 0.36372 0.0
C388 C 0.64437 0.71266 0.32909 0.0
C389 C 0.68109 0.74745 0.38608 0.0
C390 C 0.65769 0.70055 0.31544 0.0
C391 C 0.68255 0.71183 0.33524 0.0
H392 H 0.26285 0.98019 0.23541 0.0
H393 H 0.26445 0.98897 0.49484 0.0
H394 H 0.29405 0.97484 0.50675 0.0
H395 H 0.31889 0.95917 0.44394 0.0
H396 H 0.3141 0.94609 0.18657 0.0
H397 H 0.28602 0.9623 0.17332 0.0
C398 C 0.26985 0.97921 0.29443 0.0
C399 C 0.26195 0.98626 0.36393 0.0
C400 C 0.28603 0.96996 0.30125 0.0
C401 C 0.27065 0.98422 0.44022 0.0
C402 C 0.28745 0.97595 0.44718 0.0
C403 C 0.31167 0.95987 0.38498 0.0
C404 C 0.31859 0.95158 0.31628 0.0
C405 C 0.29518 0.96868 0.37818 0.0
C406 C 0.3089 0.95226 0.24037 0.0
C407 C 0.29297 0.96164 0.23275 0.0
H408 H 0.31484 0.07812 0.69655 0.0
H409 H 0.32499 0.04857 0.47336 0.0
H410 H 0.36905 0.06805 0.50024 0.0
H411 H 0.40471 0.09341 0.58775 0.0
H412 H 0.39378 0.12206 0.81193 0.0
H413 H 0.35004 0.10293 0.78381 0.0
C414 C 0.32665 0.07594 0.65353 0.0
C415 C 0.31659 0.06197 0.58287 0.0
C416 C 0.35187 0.08701 0.6696 0.0
C417 C 0.33222 0.05929 0.52814 0.0
C418 C 0.35744 0.0704 0.54351 0.0
C419 C 0.39277 0.09549 0.63046 0.0
C420 C 0.40264 0.10926 0.7018 0.0
C421 C 0.36747 0.0843 0.61414 0.0
C422 C 0.3868 0.11164 0.75649 0.0
C423 C 0.36173 0.1007 0.7405 0.0
H424 H 0.9302 0.30352 0.82865 0.0
H425 H 0.92763 0.33389 0.59663 0.0
H426 H 0.94897 0.31486 0.53395 0.0
H427 H 0.96968 0.29079 0.54491 0.0
H428 H 0.97378 0.26149 0.77703 0.0
H429 H 0.95071 0.27896 0.83933 0.0
C430 C 0.93425 0.30593 0.76439 0.0
C431 C 0.92734 0.32023 0.71777 0.0
C432 C 0.94696 0.29521 0.72851 0.0
C433 C 0.93275 0.32308 0.63437 0.0
C434 C 0.94501 0.3122 0.59823 0.0
C435 C 0.96543 0.2881 0.60904 0.0
C436 C 0.97349 0.27486 0.65607 0.0
C437 C 0.95239 0.29841 0.64476 0.0
C438 C 0.96788 0.27166 0.73927 0.0
C439 C 0.95466 0.28164 0.77505 0.0
H440 H 0.78628 0.72243 0.77253 0.0
H441 H 0.74596 0.71119 0.55019 0.0
H442 H 0.72013 0.66762 0.58263 0.0
H443 H 0.70783 0.63308 0.67715 0.0
H444 H 0.74785 0.64497 0.90068 0.0
H445 H 0.77487 0.68788 0.86456 0.0
C446 C 0.772 0.71045 0.73069 0.0
C447 C 0.76807 0.72012 0.65911 0.0
C448 C 0.75699 0.68552 0.75022 0.0
C449 C 0.7494 0.70426 0.60579 0.0
C450 C 0.73456 0.67934 0.62439 0.0
C451 C 0.72248 0.64504 0.71792 0.0
C452 C 0.72567 0.63577 0.79175 0.0
C453 C 0.73797 0.66983 0.69699 0.0
C454 C 0.74486 0.65155 0.8436 0.0
C455 C 0.76037 0.67614 0.82301 0.0
H456 H 0.99275 0.7345 0.66624 0.0
H457 H 0.95845 0.72496 0.43237 0.0
H458 H 0.93302 0.68096 0.4575 0.0
H459 H 0.92019 0.64526 0.54613 0.0
H460 H 0.95485 0.65461 0.77917 0.0
H461 H 0.98046 0.69864 0.75388 0.0
C462 C 0.97975 0.72283 0.62061 0.0
C463 C 0.97748 0.73311 0.54763 0.0
C464 C 0.9652 0.6975 0.63532 0.0
C465 C 0.96055 0.71762 0.48921 0.0
C466 C 0.94598 0.69242 0.50351 0.0
C467 C 0.93333 0.6569 0.59151 0.0
C468 C 0.93549 0.64663 0.6646 0.0
C469 C 0.94808 0.68218 0.57644 0.0
C470 C 0.95274 0.66201 0.72244 0.0
C471 C 0.96741 0.68721 0.70804 0.0
H472 H 0.29611 0.25634 0.70052 0.0
H473 H 0.30218 0.26456 0.44075 0.0
H474 H 0.34683 0.28944 0.45183 0.0
H475 H 0.3841 0.30885 0.53538 0.0
H476 H 0.37813 0.29898 0.79467 0.0
H477 H 0.33346 0.27463 0.78367 0.0
C478 C 0.30721 0.26365 0.64636 0.0
C479 C 0.29587 0.25875 0.56994 0.0
C480 C 0.33287 0.27755 0.65309 0.0
C481 C 0.31049 0.26806 0.50024 0.0
C482 C 0.33601 0.2823 0.50654 0.0
C483 C 0.37303 0.30139 0.5895 0.0
C484 C 0.38441 0.30582 0.66574 0.0
C485 C 0.34739 0.28716 0.58265 0.0
C486 C 0.36982 0.2958 0.73522 0.0
C487 C 0.34428 0.28193 0.72902 0.0
H488 H 0.70408 0.0475 0.65483 0.0
H489 H 0.75286 0.12096 0.56811 0.0
H490 H 0.78149 0.10817 0.51875 0.0
H491 H 0.79295 0.07613 0.50296 0.0
H492 H 0.74536 0.00367 0.59957 0.0
H493 H 0.71585 0.01596 0.64202 0.0
C494 C 0.72091 0.06067 0.62464 0.0
C495 C 0.72633 0.08508 0.61462 0.0
C496 C 0.73748 0.05336 0.59841 0.0
C497 C 0.74835 0.10206 0.57658 0.0
C498 C 0.76468 0.09475 0.54828 0.0
C499 C 0.77606 0.06308 0.53308 0.0
C500 C 0.77126 0.03907 0.54821 0.0
C501 C 0.75949 0.07047 0.55925 0.0
C502 C 0.74948 0.02232 0.58791 0.0
C503 C 0.73259 0.0293 0.61195 0.0
H504 H 0.64192 0.91864 0.24085 0.0
H505 H 0.62081 0.96356 0.378 0.0
H506 H 0.66389 0.99259 0.40801 0.0
H507 H 0.70764 0.00511 0.39589 0.0
H508 H 0.72842 0.95888 0.26517 0.0
H509 H 0.68544 0.93047 0.23221 0.0
C510 C 0.64676 0.93482 0.27714 0.0
C511 C 0.6282 0.93897 0.3069 0.0
C512 C 0.67152 0.95118 0.29542 0.0
C513 C 0.63475 0.95989 0.35456 0.0
C514 C 0.65938 0.97653 0.37162 0.0
C515 C 0.70273 0.98886 0.35992 0.0
C516 C 0.72118 0.98417 0.3326 0.0
C517 C 0.67793 0.97235 0.34243 0.0
C518 C 0.71455 0.96287 0.28706 0.0
C519 C 0.68999 0.94664 0.26803 0.0
H520 H 0.07208 0.76524 0.4048 0.0
H521 H 0.0169 0.72232 0.22653 0.0
H522 H 0.03958 0.7018 0.18833 0.0
H523 H 0.07517 0.6963 0.20392 0.0
H524 H 0.13007 0.73826 0.38402 0.0
H525 H 0.10735 0.75881 0.42313 0.0
C526 C 0.06502 0.75139 0.35763 0.0
C527 C 0.04286 0.74542 0.31843 0.0
C528 C 0.07809 0.73948 0.33619 0.0
C529 C 0.03389 0.72729 0.25782 0.0
C530 C 0.04687 0.71555 0.23575 0.0
C531 C 0.08224 0.70996 0.25169 0.0
C532 C 0.10439 0.71579 0.29063 0.0
C533 C 0.06902 0.72156 0.27427 0.0
C534 C 0.11307 0.73337 0.35302 0.0
C535 C 0.10011 0.74518 0.37534 0.0
H536 H 0.30622 0.39997 0.33957 0.0
H537 H 0.33636 0.39053 0.11629 0.0
H538 H 0.3194 0.34707 0.14613 0.0
H539 H 0.29596 0.31163 0.23468 0.0
H540 H 0.26501 0.32042 0.4568 0.0
H541 H 0.28244 0.36423 0.42834 0.0
C542 C 0.30909 0.38844 0.29737 0.0
C543 C 0.32254 0.39864 0.22565 0.0
C544 C 0.29919 0.36331 0.3147 0.0
C545 C 0.32599 0.38328 0.17173 0.0
C546 C 0.31635 0.35837 0.18881 0.0
C547 C 0.29308 0.32311 0.27714 0.0
C548 C 0.27923 0.31272 0.34787 0.0
C549 C 0.30293 0.34819 0.26003 0.0
C550 C 0.27557 0.32791 0.40185 0.0
C551 C 0.28553 0.35297 0.3856 0.0
H552 H 0.99945 0.36739 0.91298 0.0
H553 H 0.97398 0.41142 0.03338 0.0
H554 H 0.01525 0.43852 0.08616 0.0
H555 H 0.05875 0.44986 0.09736 0.0
H556 H 0.08452 0.40731 0.96912 0.0
H557 H 0.04297 0.37939 0.92058 0.0
C558 C 0.00294 0.38291 0.95086 0.0
C559 C 0.98371 0.38735 0.96947 0.0
C560 C 0.02676 0.39863 0.97978 0.0
C561 C 0.98853 0.40767 0.0179 0.0
C562 C 0.01209 0.42312 0.04835 0.0
C563 C 0.05518 0.43437 0.05923 0.0
C564 C 0.07458 0.43052 0.03719 0.0
C565 C 0.03135 0.41877 0.02973 0.0
C566 C 0.06984 0.41063 0.98674 0.0
C567 C 0.04611 0.39467 0.959 0.0
H568 H 0.62217 0.59476 0.14917 0.0
H569 H 0.65129 0.62994 0.91893 0.0
H570 H 0.63076 0.65399 0.9345 0.0
H571 H 0.60471 0.66517 0.01369 0.0
H572 H 0.57559 0.62983 0.2438 0.0
H573 H 0.59611 0.60585 0.22807 0.0
C574 C 0.62401 0.60763 0.10219 0.0
C575 C 0.63824 0.61046 0.03288 0.0
C576 C 0.61223 0.62147 0.11163 0.0
C577 C 0.64045 0.62733 0.97288 0.0
C578 C 0.62872 0.64112 0.98175 0.0
C579 C 0.6028 0.65221 0.06046 0.0
C580 C 0.58865 0.64943 0.13003 0.0
C581 C 0.61459 0.63837 0.05092 0.0
C582 C 0.58645 0.63251 0.18985 0.0
C583 C 0.59814 0.61872 0.18084 0.0
H584 H 0.45872 0.0637 0.07697 0.0
H585 H 0.40753 0.04837 0.8813 0.0
H586 H 0.38342 0.00574 0.92581 0.0
H587 H 0.37647 0.97306 0.02096 0.0
H588 H 0.42724 0.98812 0.21765 0.0
H589 H 0.45193 0.03068 0.17183 0.0
C590 C 0.44234 0.05103 0.04384 0.0
C591 C 0.43496 0.05928 0.97587 0.0
C592 C 0.42845 0.02653 0.07002 0.0
C593 C 0.41364 0.04257 0.93383 0.0
C594 C 0.39982 0.01817 0.95927 0.0
C595 C 0.39293 0.98561 0.05399 0.0
C596 C 0.39994 0.97738 0.12284 0.0
C597 C 0.40698 0.01 0.02746 0.0
C598 C 0.42139 0.99394 0.16454 0.0
C599 C 0.43552 0.01829 0.13837 0.0
H600 H 0.64011 0.06884 0.00578 0.0
H601 H 0.67904 0.05734 0.81083 0.0
H602 H 0.66554 0.01598 0.85967 0.0
H603 H 0.64187 0.98259 0.95501 0.0
H604 H 0.60149 0.99291 0.14743 0.0
H605 H 0.61651 0.0352 0.10273 0.0
C606 C 0.6457 0.05731 0.97422 0.0
C607 C 0.66043 0.06619 0.90436 0.0
C608 C 0.63764 0.03331 0.0022 0.0
C609 C 0.66746 0.05094 0.86408 0.0
C610 C 0.65983 0.02727 0.89217 0.0
C611 C 0.63649 0.99413 0.98765 0.0
C612 C 0.62061 0.98461 0.05449 0.0
C613 C 0.6448 0.0182 0.96077 0.0
C614 C 0.61366 0.99977 0.09562 0.0
C615 C 0.62223 0.02396 0.07007 0.0
H616 H 0.04423 0.64139 0.88797 0.0
H617 H 0.03638 0.62229 0.14153 0.0
H618 H 0.99181 0.59878 0.12658 0.0
H619 H 0.95497 0.58399 0.04185 0.0
H620 H 0.96284 0.60088 0.78669 0.0
H621 H 0.00747 0.62505 0.80188 0.0
C622 C 0.03276 0.63202 0.93987 0.0
C623 C 0.0436 0.63364 0.01575 0.0
C624 C 0.00714 0.61826 0.93064 0.0
C625 C 0.02851 0.62123 0.08232 0.0
C626 C 0.003 0.60787 0.07395 0.0
C627 C 0.96648 0.59308 0.98973 0.0
C628 C 0.95569 0.59089 0.91342 0.0
C629 C 0.99211 0.60637 0.99853 0.0
C630 C 0.97079 0.60236 0.84606 0.0
C631 C 0.99627 0.61616 0.85471 0.0
H632 H 0.41239 0.41449 0.13022 0.0
H633 H 0.41676 0.45394 0.91114 0.0
H634 H 0.43671 0.43427 0.84149 0.0
H635 H 0.45042 0.40374 0.84046 0.0
H636 H 0.44388 0.36311 0.05902 0.0
H637 H 0.42752 0.38552 0.13094 0.0
C638 C 0.41796 0.41905 0.06752 0.0
C639 C 0.41299 0.43559 0.02598 0.0
C640 C 0.42894 0.40733 0.02741 0.0
C641 C 0.42028 0.44119 0.94457 0.0
C642 C 0.43164 0.4299 0.90459 0.0
C643 C 0.44559 0.39992 0.90394 0.0
C644 C 0.44842 0.38172 0.94401 0.0
C645 C 0.43566 0.41259 0.94498 0.0
C646 C 0.44198 0.37701 0.02639 0.0
C647 C 0.43254 0.38979 0.06777 0.0
H648 H 0.08729 0.22086 0.55204 0.0
H649 H 0.08816 0.2054 0.29795 0.0
H650 H 0.1269 0.2059 0.31498 0.0
H651 H 0.16086 0.21129 0.4011 0.0
H652 H 0.15925 0.22392 0.65699 0.0
H653 H 0.12042 0.22369 0.64066 0.0
C654 C 0.09603 0.2176 0.50064 0.0
C655 C 0.08499 0.21323 0.42382 0.0
C656 C 0.1181 0.21732 0.51122 0.0
C657 C 0.09627 0.20872 0.35777 0.0
C658 C 0.11845 0.20906 0.36735 0.0
C659 C 0.15199 0.21398 0.45329 0.0
C660 C 0.16298 0.21784 0.52994 0.0
C661 C 0.12956 0.2134 0.44365 0.0
C662 C 0.15109 0.22086 0.59733 0.0
C663 C 0.12896 0.22085 0.58795 0.0
H664 H 0.81545 0.94415 0.54154 0.0
H665 H 0.82473 0.96905 0.29374 0.0
H666 H 0.82555 0.93242 0.24926 0.0
H667 H 0.82239 0.89279 0.2801 0.0
H668 H 0.81094 0.86668 0.52684 0.0
H669 H 0.81222 0.90432 0.57243 0.0
C670 C 0.81787 0.94165 0.4779 0.0
C671 C 0.82003 0.95929 0.421 0.0
C672 C 0.81782 0.92028 0.45255 0.0
C673 C 0.82286 0.95566 0.33865 0.0
C674 C 0.82337 0.93474 0.31318 0.0
C675 C 0.82031 0.89537 0.34394 0.0
C676 C 0.81663 0.87698 0.39999 0.0
C677 C 0.82065 0.91684 0.36949 0.0
C678 C 0.81373 0.88053 0.4824 0.0
C679 C 0.8145 0.90206 0.50853 0.0
H680 H 0.0783 0.86286 0.37215 0.0
H681 H 0.07139 0.87814 0.62261 0.0
H682 H 0.10759 0.91892 0.60949 0.0
H683 H 0.1414 0.95033 0.5268 0.0
H684 H 0.14779 0.93455 0.27631 0.0
H685 H 0.11165 0.89399 0.28991 0.0
C686 C 0.08463 0.87505 0.42399 0.0
C687 C 0.07204 0.86732 0.49821 0.0
C688 C 0.10544 0.89848 0.41613 0.0
C689 C 0.08065 0.88351 0.56462 0.0
C690 C 0.10139 0.90688 0.55724 0.0
C691 C 0.13487 0.93803 0.47519 0.0
C692 C 0.14737 0.94557 0.4007 0.0
C693 C 0.11396 0.91458 0.48326 0.0
C694 C 0.13861 0.92933 0.33447 0.0
C695 C 0.1179 0.90606 0.34208 0.0
H696 H 0.20547 0.14125 0.40757 0.0
H697 H 0.23434 0.14976 0.64998 0.0
H698 H 0.23897 0.11385 0.63157 0.0
H699 H 0.23498 0.08006 0.54742 0.0
H700 H 0.2057 0.07083 0.30542 0.0
H701 H 0.20113 0.10692 0.32316 0.0
C702 C 0.21276 0.13525 0.45638 0.0
C703 C 0.21953 0.14828 0.53003 0.0
C704 C 0.21535 0.11443 0.44558 0.0
C705 C 0.22893 0.14015 0.59262 0.0
C706 C 0.23162 0.11959 0.5822 0.0
C707 C 0.22762 0.08589 0.49834 0.0
C708 C 0.22075 0.07266 0.42512 0.0
C709 C 0.22492 0.1066 0.50899 0.0
C710 C 0.21115 0.08057 0.36252 0.0
C711 C 0.20853 0.10126 0.37257 0.0
H712 H 0.91007 0.08943 0.65583 0.0
H713 H 0.87861 0.08384 0.41946 0.0
H714 H 0.91221 0.12504 0.3852 0.0
H715 H 0.95065 0.16283 0.42348 0.0
H716 H 0.98006 0.16853 0.66355 0.0
H717 H 0.94715 0.12716 0.69538 0.0
C718 C 0.91061 0.09716 0.59661 0.0
C719 C 0.89203 0.08354 0.53998 0.0
C720 C 0.92959 0.12093 0.57817 0.0
C721 C 0.89275 0.09397 0.46405 0.0
C722 C 0.91196 0.1175 0.44445 0.0
C723 C 0.94981 0.15494 0.48262 0.0
C724 C 0.96774 0.16875 0.54114 0.0
C725 C 0.9305 0.13117 0.50112 0.0
C726 C 0.96634 0.15841 0.61779 0.0
C727 C 0.94759 0.1347 0.63594 0.0
H728 H 0.94413 0.83845 0.64316 0.0
H729 H 0.94405 0.79155 0.45224 0.0
H730 H 0.90482 0.78561 0.40281 0.0
H731 H 0.86933 0.79203 0.41842 0.0
H732 H 0.86934 0.83786 0.61284 0.0
H733 H 0.90975 0.84597 0.65591 0.0
C734 C 0.93566 0.82706 0.59036 0.0
C735 C 0.94702 0.81542 0.55173 0.0
C736 C 0.91296 0.82343 0.56301 0.0
C737 C 0.93569 0.80068 0.48342 0.0
C738 C 0.91323 0.79726 0.45507 0.0
C739 C 0.87834 0.804 0.4696 0.0
C740 C 0.86623 0.81413 0.51285 0.0
C741 C 0.90153 0.80831 0.49498 0.0
C742 C 0.87807 0.8295 0.57935 0.0
C743 C 0.90123 0.83423 0.6039 0.0
H744 H 0.81492 0.54615 0.95726 0.0
H745 H 0.83687 0.57438 0.71455 0.0
H746 H 0.79898 0.57563 0.69752 0.0
H747 H 0.75953 0.56847 0.75092 0.0
H748 H 0.73762 0.5403 0.99362 0.0
H749 H 0.77569 0.53939 0.0111 0.0
C750 C 0.81147 0.55257 0.90051 0.0
C751 C 0.82879 0.56011 0.83726 0.0
C752 C 0.78965 0.5533 0.89109 0.0
C753 C 0.82393 0.56844 0.76432 0.0
C754 C 0.80224 0.56917 0.75448 0.0
C755 C 0.76307 0.56217 0.80778 0.0
C756 C 0.74567 0.55442 0.87082 0.0
C757 C 0.78497 0.56163 0.81741 0.0
C758 C 0.75063 0.54634 0.94403 0.0
C759 C 0.77241 0.54579 0.95409 0.0
H760 H 0.50626 0.29161 0.91544 0.0
H761 H 0.45179 0.27795 0.73288 0.0
H762 H 0.45121 0.24039 0.69297 0.0
H763 H 0.4664 0.21161 0.70814 0.0
H764 H 0.52103 0.22492 0.88961 0.0
H765 H 0.52109 0.26221 0.93207 0.0
C766 C 0.49424 0.28039 0.86705 0.0
C767 C 0.47935 0.28783 0.82656 0.0
C768 C 0.49394 0.25867 0.84427 0.0
C769 C 0.46383 0.273 0.76407 0.0
C770 C 0.46334 0.25138 0.74148 0.0
C771 C 0.47827 0.22258 0.75724 0.0
C772 C 0.49373 0.21548 0.79542 0.0
C773 C 0.47839 0.24409 0.78085 0.0
C774 C 0.509 0.22999 0.85886 0.0
C775 C 0.50906 0.25134 0.88322 0.0
H776 H 0.75458 0.20749 0.89401 0.0
H777 H 0.71955 0.19617 0.66124 0.0
H778 H 0.75177 0.23648 0.61592 0.0
H779 H 0.79057 0.27412 0.63991 0.0
H780 H 0.82799 0.285 0.86797 0.0
H781 H 0.79433 0.24578 0.91777 0.0
C782 C 0.75401 0.21407 0.83378 0.0
C783 C 0.73481 0.19901 0.78089 0.0
C784 C 0.77308 0.23707 0.80716 0.0
C785 C 0.7343 0.20745 0.70261 0.0
C786 C 0.75268 0.23048 0.67672 0.0
C787 C 0.79132 0.26802 0.70076 0.0
C788 C 0.81168 0.28248 0.75025 0.0
C789 C 0.77228 0.24531 0.72808 0.0
C790 C 0.81251 0.27415 0.82859 0.0
C791 C 0.79325 0.25176 0.85712 0.0
H792 H 0.89054 0.48151 0.94081 0.0
H793 H 0.85686 0.47784 0.70968 0.0
H794 H 0.85826 0.44066 0.67569 0.0
H795 H 0.86897 0.4091 0.7123 0.0
H796 H 0.90345 0.414 0.94293 0.0
H797 H 0.90162 0.45068 0.97635 0.0
C798 C 0.88347 0.47263 0.8829 0.0
C799 C 0.87354 0.48244 0.82802 0.0
C800 C 0.88438 0.45137 0.86374 0.0
C801 C 0.86457 0.47068 0.75318 0.0
C802 C 0.86536 0.4494 0.7337 0.0
C803 C 0.87606 0.41816 0.76992 0.0
C804 C 0.88612 0.40852 0.82531 0.0
C805 C 0.87519 0.43955 0.78864 0.0
C806 C 0.89532 0.42067 0.89947 0.0
C807 C 0.89439 0.44179 0.9186 0.0
H808 H 0.57611 0.42611 0.03615 0.0
H809 H 0.54081 0.41581 0.80413 0.0
H810 H 0.57285 0.45684 0.76176 0.0
H811 H 0.61094 0.49594 0.79168 0.0
H812 H 0.64484 0.50585 0.02594 0.0
H813 H 0.61328 0.46485 0.06654 0.0
C814 C 0.57546 0.43275 0.97609 0.0
C815 C 0.55619 0.41786 0.92322 0.0
C816 C 0.59362 0.45643 0.95279 0.0
C817 C 0.55548 0.42691 0.846 0.0
C818 C 0.57379 0.45037 0.82175 0.0
C819 C 0.61134 0.48908 0.85159 0.0
C820 C 0.63005 0.50413 0.90623 0.0
C821 C 0.59294 0.46534 0.87477 0.0
C822 C 0.63035 0.495 0.98358 0.0
C823 C 0.61241 0.4714 0.00659 0.0
H824 H 0.60968 0.14017 0.78878 0.0
H825 H 0.60966 0.16606 0.03074 0.0
H826 H 0.5698 0.16258 0.00659 0.0
H827 H 0.53507 0.1525 0.91675 0.0
H828 H 0.53598 0.12929 0.67176 0.0
H829 H 0.57528 0.13133 0.69697 0.0
C830 C 0.6009 0.14502 0.83611 0.0
C831 C 0.61258 0.15331 0.91143 0.0
C832 C 0.57813 0.14341 0.82133 0.0
C833 C 0.60112 0.15975 0.97204 0.0
C834 C 0.57828 0.15769 0.95843 0.0
C835 C 0.54378 0.14774 0.86907 0.0
C836 C 0.53255 0.14059 0.79277 0.0
C837 C 0.56662 0.14955 0.88336 0.0
C838 C 0.54428 0.13487 0.73108 0.0
C839 C 0.56674 0.13601 0.74546 0.0
H840 H 0.48636 0.89589 0.2975 0.0
H841 H 0.50471 0.88309 0.05747 0.0
H842 H 0.46723 0.88022 0.00404 0.0
H843 H 0.43 0.88277 0.02415 0.0
H844 H 0.41236 0.89765 0.26236 0.0
H845 H 0.44869 0.89823 0.31776 0.0
C846 C 0.48201 0.89225 0.23367 0.0
C847 C 0.49833 0.88976 0.18154 0.0
C848 C 0.4606 0.89111 0.20291 0.0
C849 C 0.49258 0.8853 0.09879 0.0
C850 C 0.47111 0.88361 0.06816 0.0
C851 C 0.434 0.88599 0.0883 0.0
C852 C 0.41846 0.89012 0.13898 0.0
C853 C 0.45512 0.88673 0.11945 0.0
C854 C 0.42405 0.89448 0.22189 0.0
C855 C 0.44482 0.89479 0.25366 0.0
H856 H 0.11881 0.60623 0.11809 0.0
H857 H 0.17815 0.64022 0.29043 0.0
H858 H 0.18554 0.60571 0.27746 0.0
H859 H 0.17617 0.56657 0.21299 0.0
H860 H 0.11649 0.53279 0.04167 0.0
H861 H 0.10821 0.56645 0.05907 0.0
C862 C 0.13335 0.60613 0.15308 0.0
C863 C 0.148 0.62596 0.20475 0.0
C864 C 0.13747 0.58622 0.14553 0.0
C865 C 0.16659 0.62528 0.25007 0.0
C866 C 0.17086 0.60554 0.24262 0.0
C867 C 0.16125 0.56648 0.17984 0.0
C868 C 0.14711 0.54719 0.12568 0.0
C869 C 0.15656 0.58601 0.18994 0.0
C870 C 0.12776 0.54738 0.08358 0.0
C871 C 0.12301 0.56667 0.09333 0.0
H872 H 0.48082 0.61593 0.19812 0.0
H873 H 0.46115 0.61447 0.94701 0.0
H874 H 0.42577 0.57354 0.96471 0.0
H875 H 0.40085 0.5378 0.04989 0.0
H876 H 0.41792 0.53932 0.30312 0.0
H877 H 0.45371 0.58064 0.28676 0.0
C878 C 0.4687 0.60663 0.14755 0.0
C879 C 0.47367 0.61818 0.07127 0.0
C880 C 0.44795 0.58314 0.15853 0.0
C881 C 0.4577 0.60605 0.0064 0.0
C882 C 0.43748 0.58259 0.01633 0.0
C883 C 0.41245 0.54716 0.10146 0.0
C884 C 0.40703 0.53547 0.17726 0.0
C885 C 0.43254 0.57092 0.09184 0.0
C886 C 0.42181 0.548 0.2441 0.0
C887 C 0.44229 0.57155 0.23465 0.0
H888 H 0.56929 0.75795 0.28124 0.0
H889 H 0.53192 0.73904 0.05077 0.0
H890 H 0.52767 0.77551 0.05681 0.0
H891 H 0.53409 0.81262 0.12806 0.0
H892 H 0.57172 0.83157 0.35805 0.0
H893 H 0.57635 0.79535 0.35122 0.0
C894 C 0.56017 0.76174 0.23232 0.0
C895 C 0.55088 0.74563 0.16583 0.0
C896 C 0.55784 0.78284 0.23591 0.0
C897 C 0.53927 0.75104 0.1028 0.0
C898 C 0.53681 0.77193 0.10614 0.0
C899 C 0.54336 0.80889 0.17661 0.0
C900 C 0.55247 0.82483 0.24352 0.0
C901 C 0.54598 0.78795 0.17246 0.0
C902 C 0.56449 0.81966 0.30577 0.0
C903 C 0.56713 0.7989 0.30204 0.0
H904 H 0.28745 0.8359 0.13995 0.0
H905 H 0.32784 0.84417 0.36018 0.0
H906 H 0.29612 0.80357 0.40509 0.0
H907 H 0.25619 0.76635 0.38449 0.0
H908 H 0.21558 0.75819 0.16493 0.0
H909 H 0.24821 0.79799 0.11709 0.0
C910 C 0.2894 0.82881 0.19764 0.0
C911 C 0.30999 0.84321 0.2467 0.0
C912 C 0.27103 0.80543 0.22335 0.0
C913 C 0.31219 0.8336 0.32117 0.0
C914 C 0.29403 0.81034 0.347 0.0
C915 C 0.25452 0.77316 0.32588 0.0
C916 C 0.23337 0.75927 0.27862 0.0
C917 C 0.27327 0.79619 0.29894 0.0
C918 C 0.23159 0.76846 0.20278 0.0
C919 C 0.25024 0.79127 0.17536 0.0
H920 H 0.28326 0.48506 0.15548 0.0
H921 H 0.26956 0.48641 0.41091 0.0
H922 H 0.23024 0.48359 0.38144 0.0
H923 H 0.19938 0.48008 0.28335 0.0
H924 H 0.21407 0.48145 0.02763 0.0
H925 H 0.25327 0.48386 0.05691 0.0
C926 C 0.27166 0.48477 0.20456 0.0
C927 C 0.27926 0.48583 0.28519 0.0
C928 C 0.24922 0.48361 0.18718 0.0
C929 C 0.26418 0.48571 0.34825 0.0
C930 C 0.24163 0.48401 0.33151 0.0
C931 C 0.21117 0.48097 0.23403 0.0
C932 C 0.20374 0.4805 0.1535 0.0
C933 C 0.23391 0.48286 0.25124 0.0
C934 C 0.21937 0.48186 0.09026 0.0
C935 C 0.24177 0.48318 0.1069 0.0
H936 H 0.01164 0.20702 0.15616 0.0
H937 H 0.07798 0.27767 0.14561 0.0
H938 H 0.07654 0.27644 0.99775 0.0
H939 H 0.0548 0.2565 0.87146 0.0
H940 H 0.98792 0.18634 0.88378 0.0
H941 H 0.99144 0.18605 0.03068 0.0
C942 C 0.02586 0.22212 0.12162 0.0
C943 C 0.04474 0.2425 0.16199 0.0
C944 C 0.02486 0.22136 0.03674 0.0
C945 C 0.06314 0.26179 0.11614 0.0
C946 C 0.06235 0.26111 0.03151 0.0
C947 C 0.04125 0.24097 0.90623 0.0
C948 C 0.02107 0.22154 0.86677 0.0
C949 C 0.0431 0.24114 0.99113 0.0
C950 C 0.00356 0.20161 0.91271 0.0
C951 C 0.00551 0.20144 0.99679 0.0
H952 H 0.82473 0.82268 0.11577 0.0
H953 H 0.74575 0.77817 0.11309 0.0
H954 H 0.74573 0.78047 0.96551 0.0
H955 H 0.76822 0.79427 0.8364 0.0
H956 H 0.84718 0.83971 0.83987 0.0
H957 H 0.84703 0.83807 0.98722 0.0
C958 C 0.80753 0.81343 0.08287 0.0
C959 C 0.78531 0.80011 0.12553 0.0
C960 C 0.80759 0.8151 0.99785 0.0
C961 C 0.76315 0.78852 0.0819 0.0
C962 C 0.7631 0.78983 0.99737 0.0
C963 C 0.78538 0.80402 0.86936 0.0
C964 C 0.80766 0.81703 0.82666 0.0
C965 C 0.78522 0.803 0.95459 0.0
C966 C 0.82971 0.82954 0.87074 0.0
C967 C 0.82968 0.82855 0.95526 0.0
H968 H 0.20498 0.96936 -0.0 0.0
H969 H 0.19625 0.03183 0.0528 0.0
H970 H 0.19752 0.04072 0.90847 0.0
H971 H 0.20454 0.0328 0.7687 0.0
H972 H 0.21559 0.97172 0.71657 0.0
H973 H 0.20971 0.96007 0.85935 0.0
C974 C 0.20307 0.98475 0.9799 0.0
C975 C 0.20072 1.00002 0.03694 0.0
C976 C 0.20434 0.99006 0.89704 0.0
C977 C 0.19829 0.01991 0.01002 0.0
C978 C 0.19901 0.02502 0.92754 0.0
C979 C 0.20531 0.01673 0.78837 0.0
C980 C 0.21064 0.00323 0.73237 0.0
C981 C 0.20253 0.01052 0.87069 0.0
C982 C 0.21169 0.98251 0.75876 0.0
C983 C 0.20836 0.97586 0.84034 0.0
H984 H 0.02589 0.82752 0.8651 0.0
H985 H 0.95655 0.75994 0.88381 0.0
H986 H 0.96038 0.76112 0.0312 0.0
H987 H 0.98468 0.78007 0.1546 0.0
H988 H 0.0546 0.84694 0.13389 0.0
H989 H 0.04914 0.84735 0.98792 0.0
C990 C 0.01149 0.81312 0.9013 0.0
C991 C 0.99103 0.79361 0.86315 0.0
C992 C 0.01394 0.81374 0.98596 0.0
C993 C 0.97256 0.77515 0.91135 0.0
C994 C 0.97474 0.77579 0.99577 0.0
C995 C 0.99856 0.79489 0.11824 0.0
C996 C 0.02005 0.8134 0.15524 0.0
C997 C 0.99552 0.79482 0.03374 0.0
C998 C 0.03793 0.83238 0.10707 0.0
C999 C 0.03485 0.83264 0.02345 0.0
H1000 H 0.24571 0.2145 0.19006 0.0
H1001 H 0.18371 0.22583 0.16735 0.0
H1002 H 0.18285 0.21944 0.02153 0.0
H1003 H 0.20105 0.21301 0.89968 0.0
H1004 H 0.26363 0.20257 0.92104 0.0
H1005 H 0.26281 0.20614 0.06811 0.0
C1006 C 0.23185 0.21531 0.15333 0.0
C1007 C 0.21489 0.22076 0.18958 0.0
C1008 C 0.23164 0.21194 0.06916 0.0
C1009 C 0.19708 0.2218 0.14103 0.0
C1010 C 0.19658 0.21818 0.05754 0.0
C1011 C 0.21444 0.21136 0.93642 0.0
C1012 C 0.23247 0.20768 0.89922 0.0
C1013 C 0.21401 0.21363 0.02083 0.0
C1014 C 0.2496 0.2055 0.94796 0.0
C1015 C 0.24916 0.20755 0.03214 0.0
H1016 H 0.82002 0.99259 0.0955 0.0
H1017 H 0.82173 0.0608 0.14563 0.0
H1018 H 0.82898 0.07185 0.00205 0.0
H1019 H 0.83132 0.06034 0.86103 0.0
H1020 H 0.82934 0.9918 0.81308 0.0
H1021 H 0.82584 0.98278 0.95736 0.0
C1022 C 0.82216 0.00998 0.07518 0.0
C1023 C 0.82003 0.02571 0.13076 0.0
C1024 C 0.82614 0.01608 0.99292 0.0
C1025 C 0.82323 0.04834 0.10383 0.0
C1026 C 0.82727 0.05461 0.02176 0.0
C1027 C 0.83035 0.04354 0.88221 0.0
C1028 C 0.83026 0.02663 0.82619 0.0
C1029 C 0.82821 0.03835 0.96551 0.0
C1030 C 0.82925 0.00506 0.85472 0.0
C1031 C 0.82721 0.99984 0.93728 0.0
H1032 H 0.66822 0.5338 0.23662 0.0
H1033 H 0.72851 0.60663 0.18686 0.0
H1034 H 0.73848 0.61283 0.33117 0.0
H1035 H 0.72786 0.59866 0.47213 0.0
H1036 H 0.66625 0.5264 0.51991 0.0
H1037 H 0.65905 0.51891 0.37523 0.0
C1038 C 0.68371 0.55097 0.25702 0.0
C1039 C 0.69746 0.56981 0.20127 0.0
C1040 C 0.68897 0.55459 0.33974 0.0
C1041 C 0.71754 0.59189 0.22876 0.0
C1042 C 0.72321 0.59547 0.31121 0.0
C1043 C 0.71301 0.5812 0.45079 0.0
C1044 C 0.69748 0.56321 0.50661 0.0
C1045 C 0.7087 0.57713 0.36739 0.0
C1046 C 0.67833 0.54065 0.47817 0.0
C1047 C 0.6742 0.53632 0.39546 0.0
H1048 H 0.44391 0.15913 0.36935 0.0
H1049 H 0.51501 0.16799 0.42405 0.0
H1050 H 0.52438 0.17036 0.28 0.0
H1051 H 0.51117 0.1665 0.13878 0.0
H1052 H 0.43952 0.15607 0.08334 0.0
H1053 H 0.4318 0.15813 0.22726 0.0
C1054 C 0.46155 0.16182 0.34983 0.0
C1055 C 0.47861 0.16313 0.40756 0.0
C1056 C 0.46674 0.16286 0.26666 0.0
C1057 C 0.50142 0.16671 0.38105 0.0
C1058 C 0.50683 0.16808 0.29858 0.0
C1059 C 0.494 0.16506 0.15793 0.0
C1060 C 0.4759 0.16095 0.10028 0.0
C1061 C 0.48945 0.16569 0.24086 0.0
C1062 C 0.45375 0.15911 0.12641 0.0
C1063 C 0.44927 0.16019 0.20877 0.0
H1064 H 0.88452 0.31827 0.15436 0.0
H1065 H 0.88434 0.38681 0.16203 0.0
H1066 H 0.87748 0.3826 0.30766 0.0
H1067 H 0.87449 0.36117 0.43472 0.0
H1068 H 0.87563 0.29311 0.4295 0.0
H1069 H 0.87899 0.29538 0.28203 0.0
C1070 C 0.88258 0.33205 0.18779 0.0
C1071 C 0.88507 0.35288 0.14713 0.0
C1072 C 0.87903 0.32976 0.27246 0.0
C1073 C 0.88268 0.37067 0.19163 0.0
C1074 C 0.87879 0.36831 0.27515 0.0
C1075 C 0.87527 0.3467 0.40141 0.0
C1076 C 0.87495 0.32709 0.44356 0.0
C1077 C 0.87744 0.34822 0.31651 0.0
C1078 C 0.87591 0.30849 0.39897 0.0
C1079 C 0.87787 0.30978 0.3144 0.0
H1080 H 0.63575 0.10609 0.21988 0.0
H1081 H 0.70011 0.17579 0.1649 0.0
H1082 H 0.70992 0.18297 0.30843 0.0
H1083 H 0.70231 0.16811 0.44755 0.0
H1084 H 0.63896 0.09793 0.50433 0.0
H1085 H 0.62641 0.09253 0.36208 0.0
C1086 C 0.65179 0.12295 0.23936 0.0
C1087 C 0.66733 0.14023 0.18157 0.0
C1088 C 0.65752 0.12688 0.32221 0.0
C1089 C 0.68796 0.16206 0.20791 0.0
C1090 C 0.6936 0.16621 0.29005 0.0
C1091 C 0.68559 0.15171 0.42916 0.0
C1092 C 0.67175 0.13332 0.48627 0.0
C1093 C 0.67881 0.14853 0.34742 0.0
C1094 C 0.64999 0.11235 0.4615 0.0
C1095 C 0.64288 0.10919 0.38009 0.0
H1096 H 0.91213 0.53528 0.2579 0.0
H1097 H 0.84275 0.53032 0.20184 0.0
H1098 H 0.83471 0.53154 0.34572 0.0
H1099 H 0.84892 0.53759 0.48635 0.0
H1100 H 0.91899 0.54415 0.54218 0.0
H1101 H 0.92503 0.53843 0.39961 0.0
C1102 C 0.89512 0.53418 0.27714 0.0
C1103 C 0.8782 0.53295 0.21911 0.0
C1104 C 0.89076 0.53529 0.35997 0.0
C1105 C 0.85621 0.53148 0.24517 0.0
C1106 C 0.85158 0.53219 0.32749 0.0
C1107 C 0.86536 0.53742 0.46758 0.0
C1108 C 0.88357 0.54152 0.52476 0.0
C1109 C 0.86896 0.53462 0.3853 0.0
C1110 C 0.90476 0.54123 0.49932 0.0
C1111 C 0.90826 0.538 0.41775 0.0
H1112 H 0.49198 0.33357 0.22251 0.0
H1113 H 0.49172 0.40207 0.22904 0.0
H1114 H 0.48775 0.39934 0.37628 0.0
H1115 H 0.48217 0.37636 0.50324 0.0
H1116 H 0.48212 0.30768 0.49517 0.0
H1117 H 0.48855 0.31177 0.34932 0.0
C1118 C 0.4912 0.34799 0.25609 0.0
C1119 C 0.49204 0.36792 0.21444 0.0
C1120 C 0.48882 0.34628 0.34089 0.0
C1121 C 0.4911 0.38648 0.25927 0.0
C1122 C 0.48879 0.38493 0.34365 0.0
C1123 C 0.48386 0.36245 0.46971 0.0
C1124 C 0.48153 0.34169 0.51039 0.0
C1125 C 0.48735 0.36476 0.38514 0.0
C1126 C 0.4837 0.3238 0.46568 0.0
C1127 C 0.48735 0.32609 0.38202 0.0
H1128 H 0.33307 0.87908 0.57289 0.0
H1129 H 0.40059 0.94638 0.52302 0.0
H1130 H 0.40962 0.95239 0.66789 0.0
H1131 H 0.39758 0.93921 0.80889 0.0
H1132 H 0.32997 0.87181 0.85756 0.0
H1133 H 0.32182 0.86518 0.71279 0.0
C1134 C 0.34981 0.89505 0.59356 0.0
C1135 C 0.36606 0.91232 0.53719 0.0
C1136 C 0.35486 0.89841 0.67675 0.0
C1137 C 0.38775 0.9328 0.5651 0.0
C1138 C 0.3929 0.93628 0.64795 0.0
C1139 C 0.38111 0.92301 0.78787 0.0
C1140 C 0.36437 0.9061 0.84415 0.0
C1141 C 0.37648 0.9193 0.70436 0.0
C1142 C 0.34316 0.88516 0.81572 0.0
C1143 C 0.33845 0.88136 0.73287 0.0
H1144 H 0.10863 0.48505 0.72359 0.0
H1145 H 0.18367 0.50442 0.77143 0.0
H1146 H 0.19183 0.50657 0.62635 0.0
H1147 H 0.17697 0.50004 0.48645 0.0
H1148 H 0.10157 0.47919 0.43817 0.0
H1149 H 0.0944 0.48089 0.58281 0.0
C1150 C 0.12684 0.48995 0.70238 0.0
C1151 C 0.14545 0.49437 0.75854 0.0
C1152 C 0.13136 0.49087 0.6187 0.0
C1153 C 0.16894 0.50077 0.72974 0.0
C1154 C 0.17365 0.50201 0.64668 0.0
C1155 C 0.15903 0.49619 0.50728 0.0
C1156 C 0.13981 0.48937 0.45137 0.0
C1157 C 0.15489 0.49669 0.59066 0.0
C1158 C 0.11669 0.48442 0.47976 0.0
C1159 C 0.11254 0.48529 0.56257 0.0
H1160 H 0.54616 0.70136 0.80378 0.0
H1161 H 0.53995 0.63002 0.782 0.0
H1162 H 0.5425 0.63419 0.63474 0.0
H1163 H 0.54877 0.65909 0.51254 0.0
H1164 H 0.55605 0.73087 0.53569 0.0
H1165 H 0.55058 0.72538 0.68186 0.0
C1166 C 0.54523 0.68664 0.76692 0.0
C1167 C 0.54303 0.66548 0.80406 0.0
C1168 C 0.54691 0.68923 0.68238 0.0
C1169 C 0.54175 0.64657 0.75515 0.0
C1170 C 0.54321 0.64893 0.67085 0.0
C1171 C 0.54886 0.67341 0.54945 0.0
C1172 C 0.55291 0.6954 0.51318 0.0
C1173 C 0.5461 0.67031 0.63384 0.0
C1174 C 0.55309 0.71381 0.562 0.0
C1175 C 0.55 0.71071 0.64569 0.0
H1176 H 0.32396 0.44608 0.83445 0.0
H1177 H 0.38468 0.52035 0.81637 0.0
H1178 H 0.37883 0.51986 0.67039 0.0
H1179 H 0.35852 0.49746 0.54662 0.0
H1180 H 0.29814 0.423 0.56328 0.0
H1181 H 0.30183 0.42449 0.71066 0.0
C1182 C 0.33563 0.46229 0.79874 0.0
C1183 C 0.35481 0.48317 0.83634 0.0
C1184 C 0.33245 0.46177 0.71428 0.0
C1185 C 0.36986 0.50398 0.78902 0.0
C1186 C 0.36659 0.50371 0.70538 0.0
C1187 C 0.34611 0.48157 0.58243 0.0
C1188 C 0.32825 0.46008 0.54378 0.0
C1189 C 0.34833 0.48253 0.66715 0.0
C1190 C 0.31214 0.43976 0.59133 0.0
C1191 C 0.31422 0.44058 0.67572 0.0
H1192 H 0.53407 0.89686 0.86469 0.0
H1193 H 0.59503 0.88549 0.91389 0.0
H1194 H 0.59732 0.87722 0.77024 0.0
H1195 H 0.58392 0.87644 0.62963 0.0
H1196 H 0.52314 0.88841 0.58256 0.0
H1197 H 0.51883 0.89312 0.72688 0.0
C1198 C 0.54779 0.89243 0.84415 0.0
C1199 C 0.56455 0.89208 0.89946 0.0
C1200 C 0.54911 0.88792 0.76191 0.0
C1201 C 0.58196 0.88594 0.87226 0.0
C1202 C 0.58334 0.8813 0.79018 0.0
C1203 C 0.56959 0.87986 0.65101 0.0
C1204 C 0.55407 0.88235 0.59528 0.0
C1205 C 0.5673 0.88274 0.73425 0.0
C1206 C 0.53548 0.88659 0.62402 0.0
C1207 C 0.53299 0.88932 0.70658 0.0
H1208 H 0.16022 0.72914 0.62093 0.0
H1209 H 0.16581 0.66567 0.55444 0.0
H1210 H 0.15999 0.6524 0.69546 0.0
H1211 H 0.15056 0.65722 0.836 0.0
H1212 H 0.14446 0.72033 0.90301 0.0
H1213 H 0.15347 0.73539 0.7637 0.0
C1214 C 0.1604 0.71252 0.6373 0.0
C1215 C 0.16326 0.69835 0.57678 0.0
C1216 C 0.15685 0.70484 0.71867 0.0
C1217 C 0.16355 0.67692 0.59944 0.0
C1218 C 0.16017 0.66926 0.68019 0.0
C1219 C 0.15141 0.67439 0.82045 0.0
C1220 C 0.14665 0.68751 0.87998 0.0
C1221 C 0.15638 0.68284 0.74006 0.0
C1222 C 0.148 0.70981 0.85856 0.0
C1223 C 0.15307 0.71841 0.77874 0.0
loop_
_geom_bond_atom_site_label_1
_geom_bond_atom_site_label_2
_geom_bond_distance
_geom_bond_site_symmetry_2
_ccdc_geom_bond_type
Zn0 O6 1.969 . S
Zn0 O7 1.965 . S
Zn0 O11 2.024 1_455 S
Zn0 O16 1.969 . S
Zn1 O8 1.969 . S
Zn1 O14 1.969 . S
Zn1 O15 1.965 . S
Zn1 O17 2.024 . S
C2 O3 1.229 . S
C2 O11 1.058 . S
O3 C2 1.229 . S
C4 O5 1.229 . S
C4 O17 1.058 . S
O5 C4 1.229 . S
O6 Zn0 1.969 . S
O6 C9 1.267 . S
O7 Zn0 1.965 . S
O7 C18 1.260 1_455 S
O8 Zn1 1.969 . S
O8 C18 1.258 1_455 S
C9 O6 1.267 . S
C9 O10 1.228 1_455 S
O10 C9 1.228 1_655 S
O11 Zn0 2.024 1_655 S
O11 C2 1.058 . S
C12 O13 1.228 . S
C12 O14 1.267 . S
O13 C12 1.228 . S
O14 Zn1 1.969 . S
O14 C12 1.267 . S
O15 Zn1 1.965 . S
O15 C19 1.260 . S
O16 Zn0 1.969 . S
O16 C19 1.258 . S
O17 Zn1 2.024 . S
O17 C4 1.058 . S
C18 O7 1.260 1_655 S
C18 O8 1.258 1_655 S
C19 O15 1.260 . S
C19 O16 1.258 . S
Zn20 O26 1.969 . S
Zn20 O27 1.965 . S
Zn20 O31 2.024 . S
Zn20 O36 1.969 . S
Zn21 O28 1.969 . S
Zn21 O34 1.969 . S
Zn21 O35 1.965 . S
Zn21 O37 2.024 . S
C22 O23 1.229 . S
C22 O31 1.058 . S
O23 C22 1.229 . S
C24 O25 1.229 . S
C24 O37 1.058 . S
O25 C24 1.229 . S
O26 Zn20 1.969 . S
O26 C29 1.267 . S
O27 Zn20 1.965 . S
O27 C38 1.260 . S
O28 Zn21 1.969 . S
O28 C38 1.258 . S
C29 O26 1.267 . S
C29 O30 1.228 . S
O30 C29 1.228 . S
O31 Zn20 2.024 . S
O31 C22 1.058 . S
C32 O33 1.228 . S
C32 O34 1.267 . S
O33 C32 1.228 . S
O34 Zn21 1.969 . S
O34 C32 1.267 . S
O35 Zn21 1.965 . S
O35 C39 1.260 . S
O36 Zn20 1.969 . S
O36 C39 1.258 . S
O37 Zn21 2.024 . S
O37 C24 1.058 . S
C38 O27 1.260 . S
C38 O28 1.258 . S
C39 O35 1.260 . S
C39 O36 1.258 . S
Zn40 O46 1.969 . S
Zn40 O47 1.965 . S
Zn40 O51 2.024 . S
Zn40 O56 1.984 . S
Zn41 O48 1.969 . S
Zn41 O54 1.969 . S
Zn41 O55 1.965 . S
Zn41 O57 2.024 1_545 S
C42 O43 1.229 . S
C42 O51 1.058 . S
O43 C42 1.229 . S
C44 O45 1.229 . S
C44 O57 1.058 . S
O45 C44 1.229 . S
O46 Zn40 1.969 . S
O46 C49 1.267 . S
O47 Zn40 1.965 . S
O47 C58 1.260 . S
O48 Zn41 1.969 . S
O48 C58 1.258 . S
C49 O46 1.267 . S
C49 O50 1.228 . S
O50 C49 1.228 . S
O51 Zn40 2.024 . S
O51 C42 1.058 . S
C52 O53 1.228 1_545 S
C52 O54 1.267 . S
O53 C52 1.228 1_565 S
O54 Zn41 1.969 . S
O54 C52 1.267 . S
O55 Zn41 1.965 . S
O55 C59 1.260 1_545 S
O56 Zn40 1.984 . S
O56 C59 1.254 1_545 S
O57 Zn41 2.024 1_565 S
O57 C44 1.058 . S
C58 O47 1.260 . S
C58 O48 1.258 . S
C59 O55 1.260 1_565 S
C59 O56 1.254 1_565 S
Zn60 O66 1.969 . S
Zn60 O67 1.965 . S
Zn60 O71 2.024 1_455 S
Zn60 O76 1.969 . S
Zn61 O68 1.977 . S
Zn61 O74 1.969 . S
Zn61 O75 1.965 . S
Zn61 O77 2.024 . S
C62 O63 1.229 . S
C62 O71 1.058 . S
O63 C62 1.229 . S
C64 O65 1.229 . S
C64 O77 1.058 . S
O65 C64 1.229 . S
O66 Zn60 1.969 . S
O66 C69 1.267 . S
O67 Zn60 1.965 . S
O67 C78 1.260 1_455 S
O68 Zn61 1.977 . S
O68 C78 1.250 1_455 S
C69 O66 1.267 . S
C69 O70 1.228 1_455 S
O70 C69 1.228 1_655 S
O71 Zn60 2.024 1_655 S
O71 C62 1.058 . S
C72 O73 1.228 . S
C72 O74 1.267 . S
O73 C72 1.228 . S
O74 Zn61 1.969 . S
O74 C72 1.267 . S
O75 Zn61 1.965 . S
O75 C79 1.260 . S
O76 Zn60 1.969 . S
O76 C79 1.258 . S
O77 Zn61 2.024 . S
O77 C64 1.058 . S
C78 O67 1.260 1_655 S
C78 O68 1.250 1_655 S
C79 O75 1.260 . S
C79 O76 1.258 . S
Zn80 O86 1.969 . S
Zn80 O87 1.965 . S
Zn80 O91 2.024 . S
Zn80 O96 1.969 . S
Zn81 O88 1.969 . S
Zn81 O94 1.969 . S
Zn81 O95 1.965 . S
Zn81 O97 2.024 . S
C82 O83 1.229 . S
C82 O91 1.058 . S
O83 C82 1.229 . S
C84 O85 1.229 . S
C84 O97 1.058 . S
O85 C84 1.229 . S
O86 Zn80 1.969 . S
O86 C89 1.267 . S
O87 Zn80 1.965 . S
O87 C98 1.260 . S
O88 Zn81 1.969 . S
O88 C98 1.258 . S
C89 O86 1.267 . S
C89 O90 1.228 . S
O90 C89 1.228 . S
O91 Zn80 2.024 . S
O91 C82 1.058 . S
C92 O93 1.228 . S
C92 O94 1.267 . S
O93 C92 1.228 . S
O94 Zn81 1.969 . S
O94 C92 1.267 . S
O95 Zn81 1.965 . S
O95 C99 1.260 . S
O96 Zn80 1.969 . S
O96 C99 1.258 . S
O97 Zn81 2.024 . S
O97 C84 1.058 . S
C98 O87 1.260 . S
C98 O88 1.258 . S
C99 O95 1.260 . S
C99 O96 1.258 . S
Zn100 O106 1.969 . S
Zn100 O107 1.965 . S
Zn100 O111 2.024 . S
Zn100 O116 1.969 . S
Zn101 O108 1.969 . S
Zn101 O114 1.969 . S
Zn101 O115 1.965 . S
Zn101 O117 2.024 1_545 S
C102 O103 1.229 . S
C102 O111 1.058 . S
O103 C102 1.229 . S
C104 O105 1.229 . S
C104 O117 1.058 . S
O105 C104 1.229 . S
O106 Zn100 1.969 . S
O106 C109 1.267 . S
O107 Zn100 1.965 . S
O107 C118 1.260 . S
O108 Zn101 1.969 . S
O108 C118 1.258 . S
C109 O106 1.267 . S
C109 O110 1.228 . S
O110 C109 1.228 . S
O111 Zn100 2.024 . S
O111 C102 1.058 . S
C112 O113 1.228 1_545 S
C112 O114 1.267 . S
O113 C112 1.228 1_565 S
O114 Zn101 1.969 . S
O114 C112 1.267 . S
O115 Zn101 1.965 . S
O115 C119 1.260 1_545 S
O116 Zn100 1.969 . S
O116 C119 1.258 1_545 S
O117 Zn101 2.024 1_565 S
O117 C104 1.058 . S
C118 O107 1.260 . S
C118 O108 1.258 . S
C119 O115 1.260 1_565 S
C119 O116 1.258 1_565 S
Zn120 O126 1.974 . S
Zn120 O127 1.962 1_554 S
Zn120 O131 2.022 1_554 S
Zn120 O136 1.966 1_554 S
Zn121 O128 1.969 . S
Zn121 O134 1.969 . S
Zn121 O135 1.965 . S
Zn121 O137 2.024 . S
C122 O123 1.229 . S
C122 O131 1.058 1_554 S
O123 C122 1.229 . S
C124 O125 1.229 . S
C124 O137 1.058 . S
O125 C124 1.229 . S
O126 Zn120 1.974 . S
O126 C129 1.267 . S
O127 Zn120 1.962 1_556 S
O127 C138 1.260 . S
O128 Zn121 1.969 . S
O128 C138 1.258 . S
C129 O126 1.267 . S
C129 O130 1.228 . S
O130 C129 1.228 . S
O131 Zn120 2.022 1_556 S
O131 C122 1.058 1_556 S
C132 O133 1.228 . S
C132 O134 1.267 . S
O133 C132 1.228 . S
O134 Zn121 1.969 . S
O134 C132 1.267 . S
O135 Zn121 1.965 . S
O135 C139 1.260 . S
O136 Zn120 1.966 1_556 S
O136 C139 1.258 . S
O137 Zn121 2.024 . S
O137 C124 1.058 . S
C138 O127 1.260 . S
C138 O128 1.258 . S
C139 O135 1.260 . S
C139 O136 1.258 . S
Zn140 O146 1.974 . S
Zn140 O147 1.963 1_554 S
Zn140 O151 2.022 1_554 S
Zn140 O156 1.967 1_554 S
Zn141 O148 1.969 . S
Zn141 O154 1.969 . S
Zn141 O155 1.965 . S
Zn141 O157 2.024 . S
C142 O143 1.229 . S
C142 O151 1.058 1_554 S
O143 C142 1.229 . S
C144 O145 1.229 . S
C144 O157 1.058 . S
O145 C144 1.229 . S
O146 Zn140 1.974 . S
O146 C149 1.267 . S
O147 Zn140 1.963 1_556 S
O147 C158 1.260 . S
O148 Zn141 1.969 . S
O148 C158 1.258 . S
C149 O146 1.267 . S
C149 O150 1.228 . S
O150 C149 1.228 . S
O151 Zn140 2.022 1_556 S
O151 C142 1.058 1_556 S
C152 O153 1.228 . S
C152 O154 1.267 . S
O153 C152 1.228 . S
O154 Zn141 1.969 . S
O154 C152 1.267 . S
O155 Zn141 1.965 . S
O155 C159 1.260 . S
O156 Zn140 1.967 1_556 S
O156 C159 1.258 . S
O157 Zn141 2.024 . S
O157 C144 1.058 . S
C158 O147 1.260 . S
C158 O148 1.258 . S
C159 O155 1.260 . S
C159 O156 1.258 . S
Zn160 O166 1.974 . S
Zn160 O167 1.963 1_554 S
Zn160 O171 2.022 1_554 S
Zn160 O176 1.967 1_554 S
Zn161 O168 1.969 . S
Zn161 O174 1.969 . S
Zn161 O175 1.965 . S
Zn161 O177 2.024 . S
C162 O163 1.229 . S
C162 O171 1.058 1_554 S
O163 C162 1.229 . S
C164 O165 1.229 . S
C164 O177 1.058 . S
O165 C164 1.229 . S
O166 Zn160 1.974 . S
O166 C169 1.267 . S
O167 Zn160 1.963 1_556 S
O167 C178 1.260 . S
O168 Zn161 1.969 . S
O168 C178 1.258 . S
C169 O166 1.267 . S
C169 O170 1.228 . S
O170 C169 1.228 . S
O171 Zn160 2.022 1_556 S
O171 C162 1.058 1_556 S
C172 O173 1.228 . S
C172 O174 1.267 . S
O173 C172 1.228 . S
O174 Zn161 1.969 . S
O174 C172 1.267 . S
O175 Zn161 1.965 . S
O175 C179 1.260 . S
O176 Zn160 1.967 1_556 S
O176 C179 1.258 . S
O177 Zn161 2.024 . S
O177 C164 1.058 . S
C178 O167 1.260 . S
C178 O168 1.258 . S
C179 O175 1.260 . S
C179 O176 1.258 . S
Zn180 O186 1.969 . S
Zn180 O187 1.965 . S
Zn180 O191 2.024 . S
Zn180 O196 1.969 . S
Zn181 O188 1.969 . S
Zn181 O194 1.969 . S
Zn181 O195 1.965 . S
Zn181 O197 2.024 . S
C182 O183 1.229 . S
C182 O191 1.058 . S
O183 C182 1.229 . S
C184 O185 1.229 . S
C184 O197 1.058 . S
O185 C184 1.229 . S
O186 Zn180 1.969 . S
O186 C189 1.267 1_556 S
O187 Zn180 1.965 . S
O187 C198 1.260 . S
O188 Zn181 1.969 . S
O188 C198 1.258 . S
C189 O186 1.267 1_554 S
C189 O190 1.228 . S
O190 C189 1.228 . S
O191 Zn180 2.024 . S
O191 C182 1.058 . S
C192 O193 1.228 . S
C192 O194 1.267 . S
O193 C192 1.228 . S
O194 Zn181 1.969 . S
O194 C192 1.267 . S
O195 Zn181 1.965 . S
O195 C199 1.260 . S
O196 Zn180 1.969 . S
O196 C199 1.258 . S
O197 Zn181 2.024 . S
O197 C184 1.058 . S
C198 O187 1.260 . S
C198 O188 1.258 . S
C199 O195 1.260 . S
C199 O196 1.258 . S
Zn200 O206 1.969 . S
Zn200 O207 1.965 . S
Zn200 O211 2.024 . S
Zn200 O216 1.969 . S
Zn201 O208 1.969 . S
Zn201 O214 1.969 . S
Zn201 O215 1.965 . S
Zn201 O217 2.024 . S
C202 O203 1.229 . S
C202 O211 1.058 . S
O203 C202 1.229 . S
C204 O205 1.229 . S
C204 O217 1.058 . S
O205 C204 1.229 . S
O206 Zn200 1.969 . S
O206 C209 1.267 1_556 S
O207 Zn200 1.965 . S
O207 C218 1.260 . S
O208 Zn201 1.969 . S
O208 C218 1.258 . S
C209 O206 1.267 1_554 S
C209 O210 1.228 . S
O210 C209 1.228 . S
O211 Zn200 2.024 . S
O211 C202 1.058 . S
C212 O213 1.228 . S
C212 O214 1.267 . S
O213 C212 1.228 . S
O214 Zn201 1.969 . S
O214 C212 1.267 . S
O215 Zn201 1.965 . S
O215 C219 1.260 . S
O216 Zn200 1.969 . S
O216 C219 1.258 . S
O217 Zn201 2.024 . S
O217 C204 1.058 . S
C218 O207 1.260 . S
C218 O208 1.258 . S
C219 O215 1.260 . S
C219 O216 1.258 . S
Zn220 O226 1.969 . S
Zn220 O227 1.965 . S
Zn220 O231 2.024 . S
Zn220 O236 1.969 . S
Zn221 O228 1.969 . S
Zn221 O234 1.969 . S
Zn221 O235 1.965 . S
Zn221 O237 2.024 . S
C222 O223 1.229 . S
C222 O231 1.058 . S
O223 C222 1.229 . S
C224 O225 1.229 . S
C224 O237 1.058 . S
O225 C224 1.229 . S
O226 Zn220 1.969 . S
O226 C229 1.267 1_556 S
O227 Zn220 1.965 . S
O227 C238 1.260 . S
O228 Zn221 1.969 . S
O228 C238 1.258 . S
C229 O226 1.267 1_554 S
C229 O230 1.228 . S
O230 C229 1.228 . S
O231 Zn220 2.024 . S
O231 C222 1.058 . S
C232 O233 1.228 . S
C232 O234 1.267 . S
O233 C232 1.228 . S
O234 Zn221 1.969 . S
O234 C232 1.267 . S
O235 Zn221 1.965 . S
O235 C239 1.260 . S
O236 Zn220 1.969 . S
O236 C239 1.258 . S
O237 Zn221 2.024 . S
O237 C224 1.058 . S
C238 O227 1.260 . S
C238 O228 1.258 . S
C239 O235 1.260 . S
C239 O236 1.258 . S
Zn240 O246 1.969 . S
Zn240 O247 1.965 . S
Zn240 O251 2.024 . S
Zn240 O256 1.969 . S
Zn241 O248 1.969 . S
Zn241 O254 1.969 . S
Zn241 O255 1.965 . S
Zn241 O257 2.024 . S
C242 O243 1.229 . S
C242 O251 1.058 . S
O243 C242 1.229 . S
C244 O245 1.229 . S
C244 O257 1.058 . S
O245 C244 1.229 . S
O246 Zn240 1.969 . S
O246 C249 1.267 . S
O247 Zn240 1.965 . S
O247 C258 1.260 . S
O248 Zn241 1.969 . S
O248 C258 1.258 . S
C249 O246 1.267 . S
C249 O250 1.228 . S
O250 C249 1.228 . S
O251 Zn240 2.024 . S
O251 C242 1.058 . S
C252 O253 1.228 . S
C252 O254 1.267 1_556 S
O253 C252 1.228 . S
O254 Zn241 1.969 . S
O254 C252 1.267 1_554 S
O255 Zn241 1.965 . S
O255 C259 1.260 . S
O256 Zn240 1.969 . S
O256 C259 1.258 . S
O257 Zn241 2.024 . S
O257 C244 1.058 . S
C258 O247 1.260 . S
C258 O248 1.258 . S
C259 O255 1.260 . S
C259 O256 1.258 . S
Zn260 O266 1.969 . S
Zn260 O267 1.965 . S
Zn260 O271 2.024 . S
Zn260 O276 1.969 . S
Zn261 O268 1.969 . S
Zn261 O274 1.969 . S
Zn261 O275 1.965 . S
Zn261 O277 2.024 . S
C262 O263 1.229 . S
C262 O271 1.058 . S
O263 C262 1.229 . S
C264 O265 1.229 . S
C264 O277 1.058 . S
O265 C264 1.229 . S
O266 Zn260 1.969 . S
O266 C269 1.267 . S
O267 Zn260 1.965 . S
O267 C278 1.260 . S
O268 Zn261 1.969 . S
O268 C278 1.258 . S
C269 O266 1.267 . S
C269 O270 1.228 . S
O270 C269 1.228 . S
O271 Zn260 2.024 . S
O271 C262 1.058 . S
C272 O273 1.228 . S
C272 O274 1.267 1_556 S
O273 C272 1.228 . S
O274 Zn261 1.969 . S
O274 C272 1.267 1_554 S
O275 Zn261 1.965 . S
O275 C279 1.260 . S
O276 Zn260 1.969 . S
O276 C279 1.258 . S
O277 Zn261 2.024 . S
O277 C264 1.058 . S
C278 O267 1.260 . S
C278 O268 1.258 . S
C279 O275 1.260 . S
C279 O276 1.258 . S
Zn280 O286 1.969 . S
Zn280 O287 1.965 . S
Zn280 O291 2.024 . S
Zn280 O296 1.969 . S
Zn281 O288 1.969 . S
Zn281 O294 1.969 . S
Zn281 O295 1.965 . S
Zn281 O297 2.024 . S
C282 O283 1.229 . S
C282 O291 1.058 . S
O283 C282 1.229 . S
C284 O285 1.229 . S
C284 O297 1.058 . S
O285 C284 1.229 . S
O286 Zn280 1.969 . S
O286 C289 1.267 . S
O287 Zn280 1.965 . S
O287 C298 1.260 . S
O288 Zn281 1.969 . S
O288 C298 1.258 . S
C289 O286 1.267 . S
C289 O290 1.228 . S
O290 C289 1.228 . S
O291 Zn280 2.024 . S
O291 C282 1.058 . S
C292 O293 1.228 . S
C292 O294 1.267 1_556 S
O293 C292 1.228 . S
O294 Zn281 1.969 . S
O294 C292 1.267 1_554 S
O295 Zn281 1.965 . S
O295 C299 1.260 . S
O296 Zn280 1.969 . S
O296 C299 1.258 . S
O297 Zn281 2.024 . S
O297 C284 1.058 . S
C298 O287 1.260 . S
C298 O288 1.258 . S
C299 O295 1.260 . S
C299 O296 1.258 . S
Zn300 O306 1.969 . S
Zn300 O307 1.965 . S
Zn300 O311 2.024 . S
Zn300 O316 1.969 . S
Zn301 O308 1.966 1_556 S
Zn301 O314 1.975 . S
Zn301 O315 1.962 1_556 S
Zn301 O317 2.022 1_556 S
C302 O303 1.229 . S
C302 O311 1.058 . S
O303 C302 1.229 . S
C304 O305 1.229 . S
C304 O317 1.058 1_556 S
O305 C304 1.229 . S
O306 Zn300 1.969 . S
O306 C309 1.267 . S
O307 Zn300 1.965 . S
O307 C318 1.260 . S
O308 Zn301 1.966 1_554 S
O308 C318 1.258 . S
C309 O306 1.267 . S
C309 O310 1.228 . S
O310 C309 1.228 . S
O311 Zn300 2.024 . S
O311 C302 1.058 . S
C312 O313 1.228 . S
C312 O314 1.267 . S
O313 C312 1.228 . S
O314 Zn301 1.975 . S
O314 C312 1.267 . S
O315 Zn301 1.962 1_554 S
O315 C319 1.260 . S
O316 Zn300 1.969 . S
O316 C319 1.258 . S
O317 Zn301 2.022 1_554 S
O317 C304 1.058 1_554 S
C318 O307 1.260 . S
C318 O308 1.258 . S
C319 O315 1.260 . S
C319 O316 1.258 . S
Zn320 O326 1.969 . S
Zn320 O327 1.965 . S
Zn320 O331 2.024 . S
Zn320 O336 1.969 . S
Zn321 O328 1.967 1_556 S
Zn321 O334 1.974 . S
Zn321 O335 1.963 1_556 S
Zn321 O337 2.022 1_556 S
C322 O323 1.229 . S
C322 O331 1.058 . S
O323 C322 1.229 . S
C324 O325 1.229 . S
C324 O337 1.058 1_556 S
O325 C324 1.229 . S
O326 Zn320 1.969 . S
O326 C329 1.267 . S
O327 Zn320 1.965 . S
O327 C338 1.260 . S
O328 Zn321 1.967 1_554 S
O328 C338 1.258 . S
C329 O326 1.267 . S
C329 O330 1.228 . S
O330 C329 1.228 . S
O331 Zn320 2.024 . S
O331 C322 1.058 . S
C332 O333 1.228 . S
C332 O334 1.267 . S
O333 C332 1.228 . S
O334 Zn321 1.974 . S
O334 C332 1.267 . S
O335 Zn321 1.963 1_554 S
O335 C339 1.260 . S
O336 Zn320 1.969 . S
O336 C339 1.258 . S
O337 Zn321 2.022 1_554 S
O337 C324 1.058 1_554 S
C338 O327 1.260 . S
C338 O328 1.258 . S
C339 O335 1.260 . S
C339 O336 1.258 . S
Zn340 O346 1.969 . S
Zn340 O347 1.965 . S
Zn340 O351 2.024 . S
Zn340 O356 1.969 . S
Zn341 O348 1.967 1_556 S
Zn341 O354 1.973 . S
Zn341 O355 1.963 1_556 S
Zn341 O357 2.022 1_556 S
C342 O343 1.229 . S
C342 O351 1.058 . S
O343 C342 1.229 . S
C344 O345 1.229 . S
C344 O357 1.058 1_556 S
O345 C344 1.229 . S
O346 Zn340 1.969 . S
O346 C349 1.267 . S
O347 Zn340 1.965 . S
O347 C358 1.260 . S
O348 Zn341 1.967 1_554 S
O348 C358 1.258 . S
C349 O346 1.267 . S
C349 O350 1.228 . S
O350 C349 1.228 . S
O351 Zn340 2.024 . S
O351 C342 1.058 . S
C352 O353 1.228 . S
C352 O354 1.267 . S
O353 C352 1.228 . S
O354 Zn341 1.973 . S
O354 C352 1.267 . S
O355 Zn341 1.963 1_554 S
O355 C359 1.260 . S
O356 Zn340 1.969 . S
O356 C359 1.258 . S
O357 Zn341 2.022 1_554 S
O357 C344 1.058 1_554 S
C358 O347 1.260 . S
C358 O348 1.258 . S
C359 O355 1.260 . S
C359 O356 1.258 . S
H360 C366 0.930 . S
H361 C369 0.930 . S
H362 C370 0.930 . S
H363 C371 0.930 . S
H364 C374 0.930 . S
H365 C375 0.930 . S
C366 H360 0.930 . S
C366 C367 1.355 . S
C366 C368 1.415 . S
C367 C366 1.355 . S
C367 C369 1.419 . S
C368 C366 1.415 . S
C368 C373 1.425 . S
C368 C375 1.409 . S
C369 H361 0.930 . S
C369 C367 1.419 . S
C369 C370 1.362 . S
C370 H362 0.930 . S
C370 C369 1.362 . S
C370 C373 1.409 . S
C371 H363 0.930 . S
C371 C372 1.355 . S
C371 C373 1.415 . S
C372 C371 1.355 . S
C372 C374 1.419 . S
C373 C368 1.425 . S
C373 C370 1.409 . S
C373 C371 1.415 . S
C374 H364 0.930 . S
C374 C372 1.419 . S
C374 C375 1.362 . S
C375 H365 0.930 . S
C375 C368 1.409 . S
C375 C374 1.362 . S
H376 C382 0.930 . S
H377 C385 0.930 . S
H378 C386 0.930 . S
H379 C387 0.930 . S
H380 C390 0.930 . S
H381 C391 0.930 . S
C382 H376 0.930 . S
C382 C383 1.355 . S
C382 C384 1.415 . S
C383 C382 1.355 . S
C383 C385 1.419 . S
C384 C382 1.415 . S
C384 C389 1.425 . S
C384 C391 1.409 . S
C385 H377 0.930 . S
C385 C383 1.419 . S
C385 C386 1.362 . S
C386 H378 0.930 . S
C386 C385 1.362 . S
C386 C389 1.409 . S
C387 H379 0.930 . S
C387 C388 1.355 . S
C387 C389 1.415 . S
C388 C387 1.355 . S
C388 C390 1.419 . S
C389 C384 1.425 . S
C389 C386 1.409 . S
C389 C387 1.415 . S
C390 H380 0.930 . S
C390 C388 1.419 . S
C390 C391 1.362 . S
C391 H381 0.930 . S
C391 C384 1.409 . S
C391 C390 1.362 . S
H392 C398 0.930 . S
H393 C401 0.905 1_545 S
H394 C402 0.930 . S
H395 C403 0.930 . S
H396 C406 0.930 . S
H397 C407 0.930 . S
C398 H392 0.930 . S
C398 C399 1.355 . S
C398 C400 1.415 . S
C399 C398 1.355 . S
C399 C401 1.419 . S
C400 C398 1.415 . S
C400 C405 1.425 . S
C400 C407 1.409 . S
C401 H393 0.905 1_565 S
C401 C399 1.419 . S
C401 C402 1.362 . S
C402 H394 0.930 . S
C402 C401 1.362 . S
C402 C405 1.409 . S
C403 H395 0.930 . S
C403 C404 1.355 . S
C403 C405 1.415 . S
C404 C403 1.355 . S
C404 C406 1.419 . S
C405 C400 1.425 . S
C405 C402 1.409 . S
C405 C403 1.415 . S
C406 H396 0.930 . S
C406 C404 1.419 . S
C406 C407 1.362 . S
C407 H397 0.930 . S
C407 C400 1.409 . S
C407 C406 1.362 . S
H408 C414 0.930 . S
H409 C417 0.930 . S
H410 C418 0.930 . S
H411 C419 0.930 . S
H412 C422 0.930 . S
H413 C423 0.930 . S
C414 H408 0.930 . S
C414 C415 1.355 . S
C414 C416 1.415 . S
C415 C414 1.355 . S
C415 C417 1.419 . S
C416 C414 1.415 . S
C416 C421 1.425 . S
C416 C423 1.409 . S
C417 H409 0.930 . S
C417 C415 1.419 . S
C417 C418 1.362 . S
C418 H410 0.930 . S
C418 C417 1.362 . S
C418 C421 1.409 . S
C419 H411 0.930 . S
C419 C420 1.355 . S
C419 C421 1.415 . S
C420 C419 1.355 . S
C420 C422 1.419 . S
C421 C416 1.425 . S
C421 C418 1.409 . S
C421 C419 1.415 . S
C422 H412 0.930 . S
C422 C420 1.419 . S
C422 C423 1.362 . S
C423 H413 0.930 . S
C423 C416 1.409 . S
C423 C422 1.362 . S
H424 C430 0.930 . S
H425 C433 0.930 . S
H426 C434 0.930 . S
H427 C435 0.930 . S
H428 C438 0.930 . S
H429 C439 0.930 . S
C430 H424 0.930 . S
C430 C431 1.355 . S
C430 C432 1.415 . S
C431 C430 1.355 . S
C431 C433 1.419 . S
C432 C430 1.415 . S
C432 C437 1.425 . S
C432 C439 1.409 . S
C433 H425 0.930 . S
C433 C431 1.419 . S
C433 C434 1.362 . S
C434 H426 0.930 . S
C434 C433 1.362 . S
C434 C437 1.409 . S
C435 H427 0.930 . S
C435 C436 1.355 . S
C435 C437 1.415 . S
C436 C435 1.355 . S
C436 C438 1.419 . S
C437 C432 1.425 . S
C437 C434 1.409 . S
C437 C435 1.415 . S
C438 H428 0.930 . S
C438 C436 1.419 . S
C438 C439 1.362 . S
C439 H429 0.930 . S
C439 C432 1.409 . S
C439 C438 1.362 . S
H440 C446 0.930 . S
H441 C449 0.930 . S
H442 C450 0.930 . S
H443 C451 0.930 . S
H444 C454 0.930 . S
H445 C455 0.930 . S
C446 H440 0.930 . S
C446 C447 1.355 . S
C446 C448 1.415 . S
C447 C446 1.355 . S
C447 C449 1.419 . S
C448 C446 1.415 . S
C448 C453 1.425 . S
C448 C455 1.409 . S
C449 H441 0.930 . S
C449 C447 1.419 . S
C449 C450 1.362 . S
C450 H442 0.930 . S
C450 C449 1.362 . S
C450 C453 1.409 . S
C451 H443 0.930 . S
C451 C452 1.355 . S
C451 C453 1.415 . S
C452 C451 1.355 . S
C452 C454 1.419 . S
C453 C448 1.425 . S
C453 C450 1.409 . S
C453 C451 1.415 . S
C454 H444 0.930 . S
C454 C452 1.419 . S
C454 C455 1.362 . S
C455 H445 0.930 . S
C455 C448 1.409 . S
C455 C454 1.362 . S
H456 C462 0.930 . S
H457 C465 0.930 . S
H458 C466 0.930 . S
H459 C467 0.930 . S
H460 C470 0.930 . S
H461 C471 0.930 . S
C462 H456 0.930 . S
C462 C463 1.355 . S
C462 C464 1.415 . S
C463 C462 1.355 . S
C463 C465 1.419 . S
C464 C462 1.415 . S
C464 C469 1.425 . S
C464 C471 1.409 . S
C465 H457 0.930 . S
C465 C463 1.419 . S
C465 C466 1.362 . S
C466 H458 0.930 . S
C466 C465 1.362 . S
C466 C469 1.409 . S
C467 H459 0.930 . S
C467 C468 1.355 . S
C467 C469 1.415 . S
C468 C467 1.355 . S
C468 C470 1.419 . S
C469 C464 1.425 . S
C469 C466 1.409 . S
C469 C467 1.415 . S
C470 H460 0.930 . S
C470 C468 1.419 . S
C470 C471 1.362 . S
C471 H461 0.930 . S
C471 C464 1.409 . S
C471 C470 1.362 . S
H472 C478 0.930 . S
H473 C481 0.930 . S
H474 C482 0.930 . S
H475 C483 0.930 . S
H476 C486 0.930 . S
H477 C487 0.930 . S
C478 H472 0.930 . S
C478 C479 1.355 . S
C478 C480 1.415 . S
C479 C478 1.355 . S
C479 C481 1.419 . S
C480 C478 1.415 . S
C480 C485 1.425 . S
C480 C487 1.409 . S
C481 H473 0.930 . S
C481 C479 1.419 . S
C481 C482 1.362 . S
C482 H474 0.930 . S
C482 C481 1.362 . S
C482 C485 1.409 . S
C483 H475 0.930 . S
C483 C484 1.355 . S
C483 C485 1.415 . S
C484 C483 1.355 . S
C484 C486 1.419 . S
C485 C480 1.425 . S
C485 C482 1.409 . S
C485 C483 1.415 . S
C486 H476 0.930 . S
C486 C484 1.419 . S
C486 C487 1.362 . S
C487 H477 0.930 . S
C487 C480 1.409 . S
C487 C486 1.362 . S
H488 C494 0.930 . S
H489 C497 0.930 . S
H490 C498 0.930 . S
H491 C499 0.930 . S
H492 C502 0.930 . S
H493 C503 0.930 . S
C494 H488 0.930 . S
C494 C495 1.355 . S
C494 C496 1.415 . S
C495 C494 1.355 . S
C495 C497 1.419 . S
C496 C494 1.415 . S
C496 C501 1.425 . S
C496 C503 1.409 . S
C497 H489 0.930 . S
C497 C495 1.419 . S
C497 C498 1.362 . S
C498 H490 0.930 . S
C498 C497 1.362 . S
C498 C501 1.409 . S
C499 H491 0.930 . S
C499 C500 1.355 . S
C499 C501 1.415 . S
C500 C499 1.355 . S
C500 C502 1.419 . S
C501 C496 1.425 . S
C501 C498 1.409 . S
C501 C499 1.415 . S
C502 H492 0.930 . S
C502 C500 1.419 . S
C502 C503 1.362 . S
C503 H493 0.930 . S
C503 C496 1.409 . S
C503 C502 1.362 . S
H504 C510 0.930 . S
H505 C513 0.930 . S
H506 C514 0.930 . S
H507 C515 0.930 . S
H508 C518 0.930 . S
H509 C519 0.930 . S
C510 H504 0.930 . S
C510 C511 1.355 . S
C510 C512 1.415 . S
C511 C510 1.355 . S
C511 C513 1.419 . S
C512 C510 1.415 . S
C512 C517 1.425 . S
C512 C519 1.409 . S
C513 H505 0.930 . S
C513 C511 1.419 . S
C513 C514 1.362 . S
C514 H506 0.930 . S
C514 C513 1.362 . S
C514 C517 1.409 . S
C515 H507 0.930 . S
C515 C516 1.355 . S
C515 C517 1.415 . S
C516 C515 1.355 . S
C516 C518 1.419 . S
C517 C512 1.425 . S
C517 C514 1.409 . S
C517 C515 1.415 . S
C518 H508 0.930 . S
C518 C516 1.419 . S
C518 C519 1.362 . S
C519 H509 0.930 . S
C519 C512 1.409 . S
C519 C518 1.362 . S
H520 C526 0.930 . S
H521 C529 0.930 . S
H522 C530 0.930 . S
H523 C531 0.930 . S
H524 C534 0.930 . S
H525 C535 0.930 . S
C526 H520 0.930 . S
C526 C527 1.355 . S
C526 C528 1.415 . S
C527 C526 1.355 . S
C527 C529 1.419 . S
C528 C526 1.415 . S
C528 C533 1.425 . S
C528 C535 1.409 . S
C529 H521 0.930 . S
C529 C527 1.419 . S
C529 C530 1.362 . S
C530 H522 0.930 . S
C530 C529 1.362 . S
C530 C533 1.409 . S
C531 H523 0.930 . S
C531 C532 1.355 . S
C531 C533 1.415 . S
C532 C531 1.355 . S
C532 C534 1.419 . S
C533 C528 1.425 . S
C533 C530 1.409 . S
C533 C531 1.415 . S
C534 H524 0.930 . S
C534 C532 1.419 . S
C534 C535 1.362 . S
C535 H525 0.930 . S
C535 C528 1.409 . S
C535 C534 1.362 . S
H536 C542 0.930 . S
H537 C545 0.930 . S
H538 C546 0.930 . S
H539 C547 0.930 . S
H540 C550 0.930 . S
H541 C551 0.930 . S
C542 H536 0.930 . S
C542 C543 1.355 . S
C542 C544 1.415 . S
C543 C542 1.355 . S
C543 C545 1.419 . S
C544 C542 1.415 . S
C544 C549 1.425 . S
C544 C551 1.409 . S
C545 H537 0.930 . S
C545 C543 1.419 . S
C545 C546 1.362 . S
C546 H538 0.930 . S
C546 C545 1.362 . S
C546 C549 1.409 . S
C547 H539 0.930 . S
C547 C548 1.355 . S
C547 C549 1.415 . S
C548 C547 1.355 . S
C548 C550 1.419 . S
C549 C544 1.425 . S
C549 C546 1.409 . S
C549 C547 1.415 . S
C550 H540 0.930 . S
C550 C548 1.419 . S
C550 C551 1.362 . S
C551 H541 0.930 . S
C551 C544 1.409 . S
C551 C550 1.362 . S
H552 C558 0.930 1_655 S
H553 C561 0.930 . S
H554 C562 0.930 . S
H555 C563 0.930 . S
H556 C566 0.930 . S
H557 C567 0.930 . S
C558 H552 0.930 1_455 S
C558 C559 1.355 1_455 S
C558 C560 1.415 . S
C559 C558 1.355 1_655 S
C559 C561 1.419 . S
C560 C558 1.415 . S
C560 C565 1.425 . S
C560 C567 1.409 . S
C561 H553 0.930 . S
C561 C559 1.419 . S
C561 C562 1.362 1_655 S
C562 H554 0.930 . S
C562 C561 1.362 1_455 S
C562 C565 1.409 . S
C563 H555 0.930 . S
C563 C564 1.355 . S
C563 C565 1.415 . S
C564 C563 1.355 . S
C564 C566 1.419 . S
C565 C560 1.425 . S
C565 C562 1.409 . S
C565 C563 1.415 . S
C566 H556 0.930 . S
C566 C564 1.419 . S
C566 C567 1.362 . S
C567 H557 0.930 . S
C567 C560 1.409 . S
C567 C566 1.362 . S
H568 C574 0.930 . S
H569 C577 0.930 . S
H570 C578 0.930 . S
H571 C579 0.930 . S
H572 C582 0.930 . S
H573 C583 0.930 . S
C574 H568 0.930 . S
C574 C575 1.355 . S
C574 C576 1.415 . S
C575 C574 1.355 . S
C575 C577 1.419 1_554 S
C576 C574 1.415 . S
C576 C581 1.425 . S
C576 C583 1.409 . S
C577 H569 0.930 . S
C577 C575 1.419 1_556 S
C577 C578 1.362 . S
C578 H570 0.930 . S
C578 C577 1.362 . S
C578 C581 1.409 1_556 S
C579 H571 0.930 . S
C579 C580 1.355 . S
C579 C581 1.415 . S
C580 C579 1.355 . S
C580 C582 1.419 . S
C581 C576 1.425 . S
C581 C578 1.409 1_554 S
C581 C579 1.415 . S
C582 H572 0.930 . S
C582 C580 1.419 . S
C582 C583 1.362 . S
C583 H573 0.930 . S
C583 C576 1.409 . S
C583 C582 1.362 . S
H584 C590 0.930 . S
H585 C593 0.930 . S
H586 C594 0.949 . S
H587 C595 0.930 . S
H588 C598 0.930 . S
H589 C599 0.930 . S
C590 H584 0.930 . S
C590 C591 1.355 . S
C590 C592 1.415 . S
C591 C590 1.355 . S
C591 C593 1.419 1_554 S
C592 C590 1.415 . S
C592 C597 1.425 1_545 S
C592 C599 1.409 . S
C593 H585 0.930 . S
C593 C591 1.419 1_556 S
C593 C594 1.343 1_545 S
C594 H586 0.949 . S
C594 C593 1.343 1_565 S
C594 C597 1.411 1_556 S
C595 H587 0.930 . S
C595 C596 1.355 . S
C595 C597 1.415 . S
C596 C595 1.355 . S
C596 C598 1.419 . S
C597 C592 1.425 1_565 S
C597 C594 1.411 1_554 S
C597 C595 1.415 . S
C598 H588 0.930 . S
C598 C596 1.419 . S
C598 C599 1.362 1_565 S
C599 H589 0.930 . S
C599 C592 1.409 . S
C599 C598 1.362 1_545 S
H600 C606 0.930 . S
H601 C609 0.930 . S
H602 C610 0.930 . S
H603 C611 0.930 1_565 S
H604 C614 0.930 . S
H605 C615 0.930 . S
C606 H600 0.930 . S
C606 C607 1.355 . S
C606 C608 1.415 . S
C607 C606 1.355 . S
C607 C609 1.419 . S
C608 C606 1.415 . S
C608 C613 1.425 . S
C608 C615 1.409 . S
C609 H601 0.930 . S
C609 C607 1.419 . S
C609 C610 1.362 . S
C610 H602 0.930 . S
C610 C609 1.362 . S
C610 C613 1.409 . S
C611 H603 0.930 1_545 S
C611 C612 1.355 1_545 S
C611 C613 1.415 . S
C612 C611 1.355 1_565 S
C612 C614 1.419 . S
C613 C608 1.425 . S
C613 C610 1.409 . S
C613 C611 1.415 . S
C614 H604 0.930 . S
C614 C612 1.419 . S
C614 C615 1.362 1_565 S
C615 H605 0.930 . S
C615 C608 1.409 . S
C615 C614 1.362 1_545 S
H616 C622 0.930 . S
H617 C625 0.930 . S
H618 C626 0.930 1_655 S
H619 C627 0.930 . S
H620 C630 0.930 . S
H621 C631 0.930 . S
C622 H616 0.930 . S
C622 C623 1.355 . S
C622 C624 1.415 . S
C623 C622 1.355 . S
C623 C625 1.419 1_556 S
C624 C622 1.415 . S
C624 C629 1.425 1_455 S
C624 C631 1.409 . S
C625 H617 0.930 . S
C625 C623 1.419 1_554 S
C625 C626 1.362 . S
C626 H618 0.930 1_455 S
C626 C625 1.362 . S
C626 C629 1.409 1_454 S
C627 H619 0.930 . S
C627 C628 1.355 . S
C627 C629 1.415 . S
C628 C627 1.355 . S
C628 C630 1.419 . S
C629 C624 1.425 1_655 S
C629 C626 1.409 1_656 S
C629 C627 1.415 . S
C630 H620 0.930 . S
C630 C628 1.419 . S
C630 C631 1.362 1_655 S
C631 H621 0.930 . S
C631 C624 1.409 . S
C631 C630 1.362 1_455 S
H632 C638 0.930 1_554 S
H633 C641 0.930 . S
H634 C642 0.930 . S
H635 C643 0.930 . S
H636 C646 0.930 . S
H637 C647 0.930 1_554 S
C638 H632 0.930 1_556 S
C638 C639 1.355 . S
C638 C640 1.415 . S
C639 C638 1.355 . S
C639 C641 1.419 . S
C640 C638 1.415 . S
C640 C645 1.425 . S
C640 C647 1.409 . S
C641 H633 0.930 . S
C641 C639 1.419 . S
C641 C642 1.362 . S
C642 H634 0.930 . S
C642 C641 1.362 . S
C642 C645 1.409 . S
C643 H635 0.930 . S
C643 C644 1.355 . S
C643 C645 1.415 . S
C644 C643 1.355 . S
C644 C646 1.419 . S
C645 C640 1.425 . S
C645 C642 1.409 . S
C645 C643 1.415 . S
C646 H636 0.930 . S
C646 C644 1.419 . S
C646 C647 1.362 . S
C647 H637 0.930 1_556 S
C647 C640 1.409 . S
C647 C646 1.362 . S
H648 C654 0.930 . S
H649 C657 0.930 . S
H650 C658 0.930 . S
H651 C659 0.930 . S
H652 C662 0.930 . S
H653 C663 0.930 . S
C654 H648 0.930 . S
C654 C655 1.355 . S
C654 C656 1.415 . S
C655 C654 1.355 . S
C655 C657 1.419 . S
C656 C654 1.415 . S
C656 C661 1.425 . S
C656 C663 1.409 . S
C657 H649 0.930 . S
C657 C655 1.419 . S
C657 C658 1.362 . S
C658 H650 0.930 . S
C658 C657 1.362 . S
C658 C661 1.409 . S
C659 H651 0.930 . S
C659 C660 1.355 . S
C659 C661 1.415 . S
C660 C659 1.355 . S
C660 C662 1.419 . S
C661 C656 1.425 . S
C661 C658 1.409 . S
C661 C659 1.415 . S
C662 H652 0.930 . S
C662 C660 1.419 . S
C662 C663 1.362 . S
C663 H653 0.930 . S
C663 C656 1.409 . S
C663 C662 1.362 . S
H664 C670 0.930 . S
H665 C673 0.930 . S
H666 C674 0.930 . S
H667 C675 0.930 . S
H668 C678 0.930 . S
H669 C679 0.930 . S
C670 H664 0.930 . S
C670 C671 1.355 . S
C670 C672 1.415 . S
C671 C670 1.355 . S
C671 C673 1.419 . S
C672 C670 1.415 . S
C672 C677 1.425 . S
C672 C679 1.409 . S
C673 H665 0.930 . S
C673 C671 1.419 . S
C673 C674 1.362 . S
C674 H666 0.930 . S
C674 C673 1.362 . S
C674 C677 1.409 . S
C675 H667 0.930 . S
C675 C676 1.355 . S
C675 C677 1.415 . S
C676 C675 1.355 . S
C676 C678 1.419 . S
C677 C672 1.425 . S
C677 C674 1.409 . S
C677 C675 1.415 . S
C678 H668 0.930 . S
C678 C676 1.419 . S
C678 C679 1.362 . S
C679 H669 0.930 . S
C679 C672 1.409 . S
C679 C678 1.362 . S
H680 C686 0.930 . S
H681 C689 0.930 . S
H682 C690 0.930 . S
H683 C691 0.930 . S
H684 C694 0.930 . S
H685 C695 0.930 . S
C686 H680 0.930 . S
C686 C687 1.355 . S
C686 C688 1.415 . S
C687 C686 1.355 . S
C687 C689 1.419 . S
C688 C686 1.415 . S
C688 C693 1.425 . S
C688 C695 1.409 . S
C689 H681 0.930 . S
C689 C687 1.419 . S
C689 C690 1.362 . S
C690 H682 0.930 . S
C690 C689 1.362 . S
C690 C693 1.409 . S
C691 H683 0.930 . S
C691 C692 1.355 . S
C691 C693 1.415 . S
C692 C691 1.355 . S
C692 C694 1.419 . S
C693 C688 1.425 . S
C693 C690 1.409 . S
C693 C691 1.415 . S
C694 H684 0.930 . S
C694 C692 1.419 . S
C694 C695 1.362 . S
C695 H685 0.930 . S
C695 C688 1.409 . S
C695 C694 1.362 . S
H696 C702 0.930 . S
H697 C705 0.930 . S
H698 C706 0.930 . S
H699 C707 0.930 . S
H700 C710 0.930 . S
H701 C711 0.930 . S
C702 H696 0.930 . S
C702 C703 1.355 . S
C702 C704 1.415 . S
C703 C702 1.355 . S
C703 C705 1.419 . S
C704 C702 1.415 . S
C704 C709 1.425 . S
C704 C711 1.409 . S
C705 H697 0.930 . S
C705 C703 1.419 . S
C705 C706 1.362 . S
C706 H698 0.930 . S
C706 C705 1.362 . S
C706 C709 1.409 . S
C707 H699 0.930 . S
C707 C708 1.355 . S
C707 C709 1.415 . S
C708 C707 1.355 . S
C708 C710 1.419 . S
C709 C704 1.425 . S
C709 C706 1.409 . S
C709 C707 1.415 . S
C710 H700 0.930 . S
C710 C708 1.419 . S
C710 C711 1.362 . S
C711 H701 0.930 . S
C711 C704 1.409 . S
C711 C710 1.362 . S
H712 C718 0.930 . S
H713 C721 0.930 . S
H714 C722 0.930 . S
H715 C723 0.930 . S
H716 C726 0.930 . S
H717 C727 0.930 . S
C718 H712 0.930 . S
C718 C719 1.355 . S
C718 C720 1.415 . S
C719 C718 1.355 . S
C719 C721 1.419 . S
C720 C718 1.415 . S
C720 C725 1.425 . S
C720 C727 1.409 . S
C721 H713 0.930 . S
C721 C719 1.419 . S
C721 C722 1.362 . S
C722 H714 0.930 . S
C722 C721 1.362 . S
C722 C725 1.409 . S
C723 H715 0.930 . S
C723 C724 1.355 . S
C723 C725 1.415 . S
C724 C723 1.355 . S
C724 C726 1.419 . S
C725 C720 1.425 . S
C725 C722 1.409 . S
C725 C723 1.415 . S
C726 H716 0.930 . S
C726 C724 1.419 . S
C726 C727 1.362 . S
C727 H717 0.930 . S
C727 C720 1.409 . S
C727 C726 1.362 . S
H728 C734 0.930 . S
H729 C737 0.930 . S
H730 C738 0.930 . S
H731 C739 0.930 . S
H732 C742 0.930 . S
H733 C743 0.930 . S
C734 H728 0.930 . S
C734 C735 1.355 . S
C734 C736 1.415 . S
C735 C734 1.355 . S
C735 C737 1.419 . S
C736 C734 1.415 . S
C736 C741 1.425 . S
C736 C743 1.409 . S
C737 H729 0.930 . S
C737 C735 1.419 . S
C737 C738 1.362 . S
C738 H730 0.930 . S
C738 C737 1.362 . S
C738 C741 1.409 . S
C739 H731 0.930 . S
C739 C740 1.355 . S
C739 C741 1.415 . S
C740 C739 1.355 . S
C740 C742 1.419 . S
C741 C736 1.425 . S
C741 C738 1.409 . S
C741 C739 1.415 . S
C742 H732 0.930 . S
C742 C740 1.419 . S
C742 C743 1.362 . S
C743 H733 0.930 . S
C743 C736 1.409 . S
C743 C742 1.362 . S
H744 C750 0.930 . S
H745 C753 0.930 . S
H746 C754 0.930 . S
H747 C755 0.930 . S
H748 C758 0.930 . S
H749 C759 0.930 . S
C750 H744 0.930 . S
C750 C751 1.355 . S
C750 C752 1.415 . S
C751 C750 1.355 . S
C751 C753 1.419 . S
C752 C750 1.415 . S
C752 C757 1.425 . S
C752 C759 1.409 . S
C753 H745 0.930 . S
C753 C751 1.419 . S
C753 C754 1.362 . S
C754 H746 0.930 . S
C754 C753 1.362 . S
C754 C757 1.409 . S
C755 H747 0.930 . S
C755 C756 1.355 . S
C755 C757 1.415 . S
C756 C755 1.355 . S
C756 C758 1.419 . S
C757 C752 1.425 . S
C757 C754 1.409 . S
C757 C755 1.415 . S
C758 H748 0.930 . S
C758 C756 1.419 . S
C758 C759 1.362 . S
C759 H749 0.930 . S
C759 C752 1.409 . S
C759 C758 1.362 . S
H760 C766 0.930 . S
H761 C769 0.930 . S
H762 C770 0.930 . S
H763 C771 0.930 . S
H764 C774 0.930 . S
H765 C775 0.930 . S
C766 H760 0.930 . S
C766 C767 1.355 . S
C766 C768 1.415 . S
C767 C766 1.355 . S
C767 C769 1.419 . S
C768 C766 1.415 . S
C768 C773 1.425 . S
C768 C775 1.409 . S
C769 H761 0.930 . S
C769 C767 1.419 . S
C769 C770 1.362 . S
C770 H762 0.930 . S
C770 C769 1.362 . S
C770 C773 1.409 . S
C771 H763 0.930 . S
C771 C772 1.355 . S
C771 C773 1.415 . S
C772 C771 1.355 . S
C772 C774 1.419 . S
C773 C768 1.425 . S
C773 C770 1.409 . S
C773 C771 1.415 . S
C774 H764 0.930 . S
C774 C772 1.419 . S
C774 C775 1.362 . S
C775 H765 0.930 . S
C775 C768 1.409 . S
C775 C774 1.362 . S
H776 C782 0.930 . S
H777 C785 0.930 . S
H778 C786 0.930 . S
H779 C787 0.930 . S
H780 C790 0.930 . S
H781 C791 0.930 . S
C782 H776 0.930 . S
C782 C783 1.355 . S
C782 C784 1.415 . S
C783 C782 1.355 . S
C783 C785 1.419 . S
C784 C782 1.415 . S
C784 C789 1.425 . S
C784 C791 1.409 . S
C785 H777 0.930 . S
C785 C783 1.419 . S
C785 C786 1.362 . S
C786 H778 0.930 . S
C786 C785 1.362 . S
C786 C789 1.409 . S
C787 H779 0.930 . S
C787 C788 1.355 . S
C787 C789 1.415 . S
C788 C787 1.355 . S
C788 C790 1.419 . S
C789 C784 1.425 . S
C789 C786 1.409 . S
C789 C787 1.415 . S
C790 H780 0.930 . S
C790 C788 1.419 . S
C790 C791 1.362 . S
C791 H781 0.930 . S
C791 C784 1.409 . S
C791 C790 1.362 . S
H792 C798 0.930 . S
H793 C801 0.930 . S
H794 C802 0.930 . S
H795 C803 0.930 . S
H796 C806 0.930 . S
H797 C807 0.930 . S
C798 H792 0.930 . S
C798 C799 1.355 . S
C798 C800 1.415 . S
C799 C798 1.355 . S
C799 C801 1.419 . S
C800 C798 1.415 . S
C800 C805 1.425 . S
C800 C807 1.409 . S
C801 H793 0.930 . S
C801 C799 1.419 . S
C801 C802 1.362 . S
C802 H794 0.930 . S
C802 C801 1.362 . S
C802 C805 1.409 . S
C803 H795 0.930 . S
C803 C804 1.355 . S
C803 C805 1.415 . S
C804 C803 1.355 . S
C804 C806 1.419 . S
C805 C800 1.425 . S
C805 C802 1.409 . S
C805 C803 1.415 . S
C806 H796 0.930 . S
C806 C804 1.419 . S
C806 C807 1.362 . S
C807 H797 0.930 . S
C807 C800 1.409 . S
C807 C806 1.362 . S
H808 C814 0.930 . S
H809 C817 0.930 . S
H810 C818 0.930 . S
H811 C819 0.930 . S
H812 C822 0.930 1_554 S
H813 C823 0.930 1_554 S
C814 H808 0.930 . S
C814 C815 1.355 . S
C814 C816 1.415 . S
C815 C814 1.355 . S
C815 C817 1.419 . S
C816 C814 1.415 . S
C816 C821 1.425 . S
C816 C823 1.409 . S
C817 H809 0.930 . S
C817 C815 1.419 . S
C817 C818 1.362 . S
C818 H810 0.930 . S
C818 C817 1.362 . S
C818 C821 1.409 . S
C819 H811 0.930 . S
C819 C820 1.355 . S
C819 C821 1.415 . S
C820 C819 1.355 . S
C820 C822 1.419 . S
C821 C816 1.425 . S
C821 C818 1.409 . S
C821 C819 1.415 . S
C822 H812 0.930 1_556 S
C822 C820 1.419 . S
C822 C823 1.362 . S
C823 H813 0.930 1_556 S
C823 C816 1.409 . S
C823 C822 1.362 . S
H824 C830 0.930 . S
H825 C833 0.930 . S
H826 C834 0.930 . S
H827 C835 0.930 . S
H828 C838 0.930 . S
H829 C839 0.930 . S
C830 H824 0.930 . S
C830 C831 1.355 . S
C830 C832 1.415 . S
C831 C830 1.355 . S
C831 C833 1.419 . S
C832 C830 1.415 . S
C832 C837 1.425 . S
C832 C839 1.409 . S
C833 H825 0.930 . S
C833 C831 1.419 . S
C833 C834 1.362 . S
C834 H826 0.930 . S
C834 C833 1.362 . S
C834 C837 1.409 . S
C835 H827 0.930 . S
C835 C836 1.355 . S
C835 C837 1.415 . S
C836 C835 1.355 . S
C836 C838 1.419 . S
C837 C832 1.425 . S
C837 C834 1.409 . S
C837 C835 1.415 . S
C838 H828 0.930 . S
C838 C836 1.419 . S
C838 C839 1.362 . S
C839 H829 0.930 . S
C839 C832 1.409 . S
C839 C838 1.362 . S
H840 C846 0.930 . S
H841 C849 0.930 1_556 S
H842 C850 0.930 1_556 S
H843 C851 0.930 . S
H844 C854 0.930 . S
H845 C855 0.930 . S
C846 H840 0.930 . S
C846 C847 1.355 . S
C846 C848 1.415 . S
C847 C846 1.355 . S
C847 C849 1.419 . S
C848 C846 1.415 . S
C848 C853 1.425 . S
C848 C855 1.409 . S
C849 H841 0.930 1_554 S
C849 C847 1.419 . S
C849 C850 1.362 . S
C850 H842 0.930 1_554 S
C850 C849 1.362 . S
C850 C853 1.409 . S
C851 H843 0.930 . S
C851 C852 1.355 . S
C851 C853 1.415 . S
C852 C851 1.355 . S
C852 C854 1.419 . S
C853 C848 1.425 . S
C853 C850 1.409 . S
C853 C851 1.415 . S
C854 H844 0.930 . S
C854 C852 1.419 . S
C854 C855 1.362 . S
C855 H845 0.930 . S
C855 C848 1.409 . S
C855 C854 1.362 . S
H856 C862 0.930 . S
H857 C865 0.930 . S
H858 C866 0.930 . S
H859 C867 0.930 . S
H860 C870 0.930 . S
H861 C871 0.930 . S
C862 H856 0.930 . S
C862 C863 1.355 . S
C862 C864 1.415 . S
C863 C862 1.355 . S
C863 C865 1.419 . S
C864 C862 1.415 . S
C864 C869 1.425 . S
C864 C871 1.409 . S
C865 H857 0.930 . S
C865 C863 1.419 . S
C865 C866 1.362 . S
C866 H858 0.930 . S
C866 C865 1.362 . S
C866 C869 1.409 . S
C867 H859 0.930 . S
C867 C868 1.355 . S
C867 C869 1.415 . S
C868 C867 1.355 . S
C868 C870 1.419 . S
C869 C864 1.425 . S
C869 C866 1.409 . S
C869 C867 1.415 . S
C870 H860 0.930 . S
C870 C868 1.419 . S
C870 C871 1.362 . S
C871 H861 0.930 . S
C871 C864 1.409 . S
C871 C870 1.362 . S
H872 C878 0.930 . S
H873 C881 0.930 . S
H874 C882 0.930 1_556 S
H875 C883 0.930 . S
H876 C886 0.930 . S
H877 C887 0.930 . S
C878 H872 0.930 . S
C878 C879 1.355 . S
C878 C880 1.415 . S
C879 C878 1.355 . S
C879 C881 1.419 . S
C880 C878 1.415 . S
C880 C885 1.425 . S
C880 C887 1.409 . S
C881 H873 0.930 . S
C881 C879 1.419 . S
C881 C882 1.362 . S
C882 H874 0.930 1_554 S
C882 C881 1.362 . S
C882 C885 1.409 . S
C883 H875 0.930 . S
C883 C884 1.355 . S
C883 C885 1.415 . S
C884 C883 1.355 . S
C884 C886 1.419 . S
C885 C880 1.425 . S
C885 C882 1.409 . S
C885 C883 1.415 . S
C886 H876 0.930 . S
C886 C884 1.419 . S
C886 C887 1.362 . S
C887 H877 0.930 . S
C887 C880 1.409 . S
C887 C886 1.362 . S
H888 C894 0.930 . S
H889 C897 0.930 . S
H890 C898 0.930 . S
H891 C899 0.930 . S
H892 C902 0.930 . S
H893 C903 0.930 . S
C894 H888 0.930 . S
C894 C895 1.355 . S
C894 C896 1.415 . S
C895 C894 1.355 . S
C895 C897 1.419 . S
C896 C894 1.415 . S
C896 C901 1.425 . S
C896 C903 1.409 . S
C897 H889 0.930 . S
C897 C895 1.419 . S
C897 C898 1.362 . S
C898 H890 0.930 . S
C898 C897 1.362 . S
C898 C901 1.409 . S
C899 H891 0.930 . S
C899 C900 1.355 . S
C899 C901 1.415 . S
C900 C899 1.355 . S
C900 C902 1.419 . S
C901 C896 1.425 . S
C901 C898 1.409 . S
C901 C899 1.415 . S
C902 H892 0.930 . S
C902 C900 1.419 . S
C902 C903 1.362 . S
C903 H893 0.930 . S
C903 C896 1.409 . S
C903 C902 1.362 . S
H904 C910 0.930 . S
H905 C913 0.930 . S
H906 C914 0.930 . S
H907 C915 0.930 . S
H908 C918 0.930 . S
H909 C919 0.930 . S
C910 H904 0.930 . S
C910 C911 1.355 . S
C910 C912 1.415 . S
C911 C910 1.355 . S
C911 C913 1.419 . S
C912 C910 1.415 . S
C912 C917 1.425 . S
C912 C919 1.409 . S
C913 H905 0.930 . S
C913 C911 1.419 . S
C913 C914 1.362 . S
C914 H906 0.930 . S
C914 C913 1.362 . S
C914 C917 1.409 . S
C915 H907 0.930 . S
C915 C916 1.355 . S
C915 C917 1.415 . S
C916 C915 1.355 . S
C916 C918 1.419 . S
C917 C912 1.425 . S
C917 C914 1.409 . S
C917 C915 1.415 . S
C918 H908 0.930 . S
C918 C916 1.419 . S
C918 C919 1.362 . S
C919 H909 0.930 . S
C919 C912 1.409 . S
C919 C918 1.362 . S
H920 C926 0.930 . S
H921 C929 0.930 . S
H922 C930 0.930 . S
H923 C931 0.930 . S
H924 C934 0.930 . S
H925 C935 0.930 . S
C926 H920 0.930 . S
C926 C927 1.355 . S
C926 C928 1.415 . S
C927 C926 1.355 . S
C927 C929 1.419 . S
C928 C926 1.415 . S
C928 C933 1.425 . S
C928 C935 1.409 . S
C929 H921 0.930 . S
C929 C927 1.419 . S
C929 C930 1.362 . S
C930 H922 0.930 . S
C930 C929 1.362 . S
C930 C933 1.409 . S
C931 H923 0.930 . S
C931 C932 1.355 . S
C931 C933 1.415 . S
C932 C931 1.355 . S
C932 C934 1.419 . S
C933 C928 1.425 . S
C933 C930 1.409 . S
C933 C931 1.415 . S
C934 H924 0.930 . S
C934 C932 1.419 . S
C934 C935 1.362 . S
C935 H925 0.930 . S
C935 C928 1.409 . S
C935 C934 1.362 . S
H936 C942 0.930 1_655 S
H937 C945 0.930 . S
H938 C946 0.930 . S
H939 C947 0.930 . S
H940 C950 0.930 . S
H941 C951 0.930 . S
C942 H936 0.930 1_455 S
C942 C943 1.355 . S
C942 C944 1.415 . S
C943 C942 1.355 . S
C943 C945 1.419 . S
C944 C942 1.415 . S
C944 C949 1.425 . S
C944 C951 1.409 1_455 S
C945 H937 0.930 . S
C945 C943 1.419 . S
C945 C946 1.362 . S
C946 H938 0.930 . S
C946 C945 1.362 . S
C946 C949 1.409 . S
C947 H939 0.930 . S
C947 C948 1.355 . S
C947 C949 1.415 1_556 S
C948 C947 1.355 . S
C948 C950 1.419 1_455 S
C949 C944 1.425 . S
C949 C946 1.409 . S
C949 C947 1.415 1_554 S
C950 H940 0.930 . S
C950 C948 1.419 1_655 S
C950 C951 1.362 1_556 S
C951 H941 0.930 . S
C951 C944 1.409 1_655 S
C951 C950 1.362 1_554 S
H952 C958 0.930 . S
H953 C961 0.930 . S
H954 C962 0.930 . S
H955 C963 0.930 . S
H956 C966 0.930 . S
H957 C967 0.930 . S
C958 H952 0.930 . S
C958 C959 1.355 . S
C958 C960 1.415 . S
C959 C958 1.355 . S
C959 C961 1.419 . S
C960 C958 1.415 . S
C960 C965 1.425 . S
C960 C967 1.409 . S
C961 H953 0.930 . S
C961 C959 1.419 . S
C961 C962 1.362 . S
C962 H954 0.930 . S
C962 C961 1.362 . S
C962 C965 1.409 . S
C963 H955 0.930 . S
C963 C964 1.355 . S
C963 C965 1.415 1_556 S
C964 C963 1.355 . S
C964 C966 1.419 . S
C965 C960 1.425 . S
C965 C962 1.409 . S
C965 C963 1.415 1_554 S
C966 H956 0.930 . S
C966 C964 1.419 . S
C966 C967 1.362 1_556 S
C967 H957 0.930 . S
C967 C960 1.409 . S
C967 C966 1.362 1_554 S
H968 C974 0.930 1_565 S
H969 C977 0.930 . S
H970 C978 0.930 . S
H971 C979 0.930 . S
H972 C982 0.929 . S
H973 C983 0.930 1_565 S
C974 H968 0.930 1_545 S
C974 C975 1.355 . S
C974 C976 1.415 . S
C975 C974 1.355 . S
C975 C977 1.419 . S
C976 C974 1.415 . S
C976 C981 1.425 . S
C976 C983 1.409 . S
C977 H969 0.930 . S
C977 C975 1.419 . S
C977 C978 1.362 . S
C978 H970 0.930 . S
C978 C977 1.362 . S
C978 C981 1.409 . S
C979 H971 0.930 . S
C979 C980 1.355 . S
C979 C981 1.415 1_556 S
C980 C979 1.355 . S
C980 C982 1.419 . S
C981 C976 1.425 . S
C981 C978 1.409 . S
C981 C979 1.415 1_554 S
C982 H972 0.929 . S
C982 C980 1.419 . S
C982 C983 1.362 1_556 S
C983 H973 0.930 1_545 S
C983 C976 1.409 . S
C983 C982 1.362 1_554 S
H984 C990 0.930 . S
H985 C993 0.930 . S
H986 C994 0.930 . S
H987 C995 0.930 1_655 S
H988 C998 0.930 . S
H989 C999 0.930 . S
C990 H984 0.930 . S
C990 C991 1.355 . S
C990 C992 1.415 . S
C991 C990 1.355 . S
C991 C993 1.419 1_455 S
C992 C990 1.415 . S
C992 C997 1.425 . S
C992 C999 1.409 . S
C993 H985 0.930 . S
C993 C991 1.419 1_655 S
C993 C994 1.362 . S
C994 H986 0.930 . S
C994 C993 1.362 . S
C994 C997 1.409 1_655 S
C995 H987 0.930 1_455 S
C995 C996 1.355 . S
C995 C997 1.415 1_554 S
C996 C995 1.355 . S
C996 C998 1.419 . S
C997 C992 1.425 . S
C997 C994 1.409 1_455 S
C997 C995 1.415 1_556 S
C998 H988 0.930 . S
C998 C996 1.419 . S
C998 C999 1.362 1_554 S
C999 H989 0.930 . S
C999 C992 1.409 . S
C999 C998 1.362 1_556 S
H1000 C1006 0.930 . S
H1001 C1009 0.930 . S
H1002 C1010 0.930 . S
H1003 C1011 0.930 . S
H1004 C1014 0.930 . S
H1005 C1015 0.930 . S
C1006 H1000 0.930 . S
C1006 C1007 1.355 . S
C1006 C1008 1.415 1_554 S
C1007 C1006 1.355 . S
C1007 C1009 1.419 . S
C1008 C1006 1.415 1_556 S
C1008 C1013 1.425 . S
C1008 C1015 1.409 . S
C1009 H1001 0.930 . S
C1009 C1007 1.419 . S
C1009 C1010 1.362 1_554 S
C1010 H1002 0.930 . S
C1010 C1009 1.362 1_556 S
C1010 C1013 1.409 . S
C1011 H1003 0.930 . S
C1011 C1012 1.355 . S
C1011 C1013 1.415 . S
C1012 C1011 1.355 . S
C1012 C1014 1.419 . S
C1013 C1008 1.425 . S
C1013 C1010 1.409 . S
C1013 C1011 1.415 . S
C1014 H1004 0.930 . S
C1014 C1012 1.419 . S
C1014 C1015 1.362 . S
C1015 H1005 0.930 . S
C1015 C1008 1.409 . S
C1015 C1014 1.362 . S
H1016 C1022 0.930 . S
H1017 C1025 0.930 1_565 S
H1018 C1026 0.930 1_565 S
H1019 C1027 0.930 . S
H1020 C1030 0.930 . S
H1021 C1031 0.930 . S
C1022 H1016 0.930 . S
C1022 C1023 1.355 . S
C1022 C1024 1.415 1_554 S
C1023 C1022 1.355 . S
C1023 C1025 1.419 . S
C1024 C1022 1.415 1_556 S
C1024 C1029 1.425 . S
C1024 C1031 1.409 . S
C1025 H1017 0.930 1_545 S
C1025 C1023 1.419 . S
C1025 C1026 1.362 1_554 S
C1026 H1018 0.930 1_545 S
C1026 C1025 1.362 1_556 S
C1026 C1029 1.409 . S
C1027 H1019 0.930 . S
C1027 C1028 1.355 . S
C1027 C1029 1.415 . S
C1028 C1027 1.355 . S
C1028 C1030 1.419 . S
C1029 C1024 1.425 . S
C1029 C1026 1.409 . S
C1029 C1027 1.415 . S
C1030 H1020 0.930 . S
C1030 C1028 1.419 . S
C1030 C1031 1.362 . S
C1031 H1021 0.930 . S
C1031 C1024 1.409 . S
C1031 C1030 1.362 . S
H1032 C1038 0.930 . S
H1033 C1041 0.930 . S
H1034 C1042 0.930 . S
H1035 C1043 0.930 . S
H1036 C1046 0.930 . S
H1037 C1047 0.930 . S
C1038 H1032 0.930 . S
C1038 C1039 1.355 . S
C1038 C1040 1.415 . S
C1039 C1038 1.355 . S
C1039 C1041 1.419 . S
C1040 C1038 1.415 . S
C1040 C1045 1.425 . S
C1040 C1047 1.409 . S
C1041 H1033 0.930 . S
C1041 C1039 1.419 . S
C1041 C1042 1.362 . S
C1042 H1034 0.930 . S
C1042 C1041 1.362 . S
C1042 C1045 1.409 . S
C1043 H1035 0.930 . S
C1043 C1044 1.355 . S
C1043 C1045 1.415 . S
C1044 C1043 1.355 . S
C1044 C1046 1.419 . S
C1045 C1040 1.425 . S
C1045 C1042 1.409 . S
C1045 C1043 1.415 . S
C1046 H1036 0.930 . S
C1046 C1044 1.419 . S
C1046 C1047 1.362 . S
C1047 H1037 0.930 . S
C1047 C1040 1.409 . S
C1047 C1046 1.362 . S
H1048 C1054 0.930 . S
H1049 C1057 0.930 . S
H1050 C1058 0.930 . S
H1051 C1059 0.930 . S
H1052 C1062 0.930 . S
H1053 C1063 0.930 . S
C1054 H1048 0.930 . S
C1054 C1055 1.355 . S
C1054 C1056 1.415 . S
C1055 C1054 1.355 . S
C1055 C1057 1.419 . S
C1056 C1054 1.415 . S
C1056 C1061 1.425 . S
C1056 C1063 1.409 . S
C1057 H1049 0.930 . S
C1057 C1055 1.419 . S
C1057 C1058 1.362 . S
C1058 H1050 0.930 . S
C1058 C1057 1.362 . S
C1058 C1061 1.409 . S
C1059 H1051 0.930 . S
C1059 C1060 1.355 . S
C1059 C1061 1.415 . S
C1060 C1059 1.355 . S
C1060 C1062 1.419 . S
C1061 C1056 1.425 . S
C1061 C1058 1.409 . S
C1061 C1059 1.415 . S
C1062 H1052 0.930 . S
C1062 C1060 1.419 . S
C1062 C1063 1.362 . S
C1063 H1053 0.930 . S
C1063 C1056 1.409 . S
C1063 C1062 1.362 . S
H1064 C1070 0.930 . S
H1065 C1073 0.930 . S
H1066 C1074 0.930 . S
H1067 C1075 0.930 . S
H1068 C1078 0.930 . S
H1069 C1079 0.930 . S
C1070 H1064 0.930 . S
C1070 C1071 1.355 . S
C1070 C1072 1.415 . S
C1071 C1070 1.355 . S
C1071 C1073 1.419 . S
C1072 C1070 1.415 . S
C1072 C1077 1.425 . S
C1072 C1079 1.409 . S
C1073 H1065 0.930 . S
C1073 C1071 1.419 . S
C1073 C1074 1.362 . S
C1074 H1066 0.930 . S
C1074 C1073 1.362 . S
C1074 C1077 1.409 . S
C1075 H1067 0.930 . S
C1075 C1076 1.355 . S
C1075 C1077 1.415 . S
C1076 C1075 1.355 . S
C1076 C1078 1.419 . S
C1077 C1072 1.425 . S
C1077 C1074 1.409 . S
C1077 C1075 1.415 . S
C1078 H1068 0.930 . S
C1078 C1076 1.419 . S
C1078 C1079 1.362 . S
C1079 H1069 0.930 . S
C1079 C1072 1.409 . S
C1079 C1078 1.362 . S
H1080 C1086 0.930 . S
H1081 C1089 0.930 . S
H1082 C1090 0.930 . S
H1083 C1091 0.930 . S
H1084 C1094 0.930 . S
H1085 C1095 0.930 . S
C1086 H1080 0.930 . S
C1086 C1087 1.355 . S
C1086 C1088 1.415 . S
C1087 C1086 1.355 . S
C1087 C1089 1.419 . S
C1088 C1086 1.415 . S
C1088 C1093 1.425 . S
C1088 C1095 1.409 . S
C1089 H1081 0.930 . S
C1089 C1087 1.419 . S
C1089 C1090 1.362 . S
C1090 H1082 0.930 . S
C1090 C1089 1.362 . S
C1090 C1093 1.409 . S
C1091 H1083 0.930 . S
C1091 C1092 1.355 . S
C1091 C1093 1.415 . S
C1092 C1091 1.355 . S
C1092 C1094 1.419 . S
C1093 C1088 1.425 . S
C1093 C1090 1.409 . S
C1093 C1091 1.415 . S
C1094 H1084 0.930 . S
C1094 C1092 1.419 . S
C1094 C1095 1.362 . S
C1095 H1085 0.930 . S
C1095 C1088 1.409 . S
C1095 C1094 1.362 . S
H1096 C1102 0.930 . S
H1097 C1105 0.930 . S
H1098 C1106 0.930 . S
H1099 C1107 0.930 . S
H1100 C1110 0.930 . S
H1101 C1111 0.930 . S
C1102 H1096 0.930 . S
C1102 C1103 1.355 . S
C1102 C1104 1.415 . S
C1103 C1102 1.355 . S
C1103 C1105 1.419 . S
C1104 C1102 1.415 . S
C1104 C1109 1.425 . S
C1104 C1111 1.409 . S
C1105 H1097 0.930 . S
C1105 C1103 1.419 . S
C1105 C1106 1.362 . S
C1106 H1098 0.930 . S
C1106 C1105 1.362 . S
C1106 C1109 1.409 . S
C1107 H1099 0.930 . S
C1107 C1108 1.355 . S
C1107 C1109 1.415 . S
C1108 C1107 1.355 . S
C1108 C1110 1.419 . S
C1109 C1104 1.425 . S
C1109 C1106 1.409 . S
C1109 C1107 1.415 . S
C1110 H1100 0.930 . S
C1110 C1108 1.419 . S
C1110 C1111 1.362 . S
C1111 H1101 0.930 . S
C1111 C1104 1.409 . S
C1111 C1110 1.362 . S
H1112 C1118 0.930 . S
H1113 C1121 0.930 . S
H1114 C1122 0.930 . S
H1115 C1123 0.930 . S
H1116 C1126 0.930 . S
H1117 C1127 0.930 . S
C1118 H1112 0.930 . S
C1118 C1119 1.355 . S
C1118 C1120 1.415 . S
C1119 C1118 1.355 . S
C1119 C1121 1.419 . S
C1120 C1118 1.415 . S
C1120 C1125 1.425 . S
C1120 C1127 1.409 . S
C1121 H1113 0.930 . S
C1121 C1119 1.419 . S
C1121 C1122 1.362 . S
C1122 H1114 0.930 . S
C1122 C1121 1.362 . S
C1122 C1125 1.409 . S
C1123 H1115 0.930 . S
C1123 C1124 1.355 . S
C1123 C1125 1.415 . S
C1124 C1123 1.355 . S
C1124 C1126 1.419 . S
C1125 C1120 1.425 . S
C1125 C1122 1.409 . S
C1125 C1123 1.415 . S
C1126 H1116 0.930 . S
C1126 C1124 1.419 . S
C1126 C1127 1.362 . S
C1127 H1117 0.930 . S
C1127 C1120 1.409 . S
C1127 C1126 1.362 . S
H1128 C1134 0.930 . S
H1129 C1137 0.930 . S
H1130 C1138 0.930 . S
H1131 C1139 0.930 . S
H1132 C1142 0.930 . S
H1133 C1143 0.930 . S
C1134 H1128 0.930 . S
C1134 C1135 1.355 . S
C1134 C1136 1.415 . S
C1135 C1134 1.355 . S
C1135 C1137 1.419 . S
C1136 C1134 1.415 . S
C1136 C1141 1.425 . S
C1136 C1143 1.409 . S
C1137 H1129 0.930 . S
C1137 C1135 1.419 . S
C1137 C1138 1.362 . S
C1138 H1130 0.930 . S
C1138 C1137 1.362 . S
C1138 C1141 1.409 . S
C1139 H1131 0.930 . S
C1139 C1140 1.355 . S
C1139 C1141 1.415 . S
C1140 C1139 1.355 . S
C1140 C1142 1.419 . S
C1141 C1136 1.425 . S
C1141 C1138 1.409 . S
C1141 C1139 1.415 . S
C1142 H1132 0.930 . S
C1142 C1140 1.419 . S
C1142 C1143 1.362 . S
C1143 H1133 0.930 . S
C1143 C1136 1.409 . S
C1143 C1142 1.362 . S
H1144 C1150 0.930 . S
H1145 C1153 0.930 . S
H1146 C1154 0.930 . S
H1147 C1155 0.930 . S
H1148 C1158 0.930 . S
H1149 C1159 0.930 . S
C1150 H1144 0.930 . S
C1150 C1151 1.355 . S
C1150 C1152 1.415 . S
C1151 C1150 1.355 . S
C1151 C1153 1.419 . S
C1152 C1150 1.415 . S
C1152 C1157 1.425 . S
C1152 C1159 1.409 . S
C1153 H1145 0.930 . S
C1153 C1151 1.419 . S
C1153 C1154 1.362 . S
C1154 H1146 0.930 . S
C1154 C1153 1.362 . S
C1154 C1157 1.409 . S
C1155 H1147 0.930 . S
C1155 C1156 1.355 . S
C1155 C1157 1.415 . S
C1156 C1155 1.355 . S
C1156 C1158 1.419 . S
C1157 C1152 1.425 . S
C1157 C1154 1.409 . S
C1157 C1155 1.415 . S
C1158 H1148 0.930 . S
C1158 C1156 1.419 . S
C1158 C1159 1.362 . S
C1159 H1149 0.930 . S
C1159 C1152 1.409 . S
C1159 C1158 1.362 . S
H1160 C1166 0.930 . S
H1161 C1169 0.930 . S
H1162 C1170 0.930 . S
H1163 C1171 0.930 . S
H1164 C1174 0.930 . S
H1165 C1175 0.930 . S
C1166 H1160 0.930 . S
C1166 C1167 1.355 . S
C1166 C1168 1.415 . S
C1167 C1166 1.355 . S
C1167 C1169 1.419 . S
C1168 C1166 1.415 . S
C1168 C1173 1.425 . S
C1168 C1175 1.409 . S
C1169 H1161 0.930 . S
C1169 C1167 1.419 . S
C1169 C1170 1.362 . S
C1170 H1162 0.930 . S
C1170 C1169 1.362 . S
C1170 C1173 1.409 . S
C1171 H1163 0.930 . S
C1171 C1172 1.355 . S
C1171 C1173 1.415 . S
C1172 C1171 1.355 . S
C1172 C1174 1.419 . S
C1173 C1168 1.425 . S
C1173 C1170 1.409 . S
C1173 C1171 1.415 . S
C1174 H1164 0.930 . S
C1174 C1172 1.419 . S
C1174 C1175 1.362 . S
C1175 H1165 0.930 . S
C1175 C1168 1.409 . S
C1175 C1174 1.362 . S
H1176 C1182 0.930 . S
H1177 C1185 0.930 . S
H1178 C1186 0.930 . S
H1179 C1187 0.930 . S
H1180 C1190 0.930 . S
H1181 C1191 0.930 . S
C1182 H1176 0.930 . S
C1182 C1183 1.355 . S
C1182 C1184 1.415 . S
C1183 C1182 1.355 . S
C1183 C1185 1.419 . S
C1184 C1182 1.415 . S
C1184 C1189 1.425 . S
C1184 C1191 1.409 . S
C1185 H1177 0.930 . S
C1185 C1183 1.419 . S
C1185 C1186 1.362 . S
C1186 H1178 0.930 . S
C1186 C1185 1.362 . S
C1186 C1189 1.409 . S
C1187 H1179 0.930 . S
C1187 C1188 1.355 . S
C1187 C1189 1.415 . S
C1188 C1187 1.355 . S
C1188 C1190 1.419 . S
C1189 C1184 1.425 . S
C1189 C1186 1.409 . S
C1189 C1187 1.415 . S
C1190 H1180 0.930 . S
C1190 C1188 1.419 . S
C1190 C1191 1.362 . S
C1191 H1181 0.930 . S
C1191 C1184 1.409 . S
C1191 C1190 1.362 . S
H1192 C1198 0.930 . S
H1193 C1201 0.930 . S
H1194 C1202 0.930 . S
H1195 C1203 0.930 . S
H1196 C1206 0.930 . S
H1197 C1207 0.930 . S
C1198 H1192 0.930 . S
C1198 C1199 1.355 . S
C1198 C1200 1.415 . S
C1199 C1198 1.355 . S
C1199 C1201 1.419 . S
C1200 C1198 1.415 . S
C1200 C1205 1.425 . S
C1200 C1207 1.409 . S
C1201 H1193 0.930 . S
C1201 C1199 1.419 . S
C1201 C1202 1.362 . S
C1202 H1194 0.930 . S
C1202 C1201 1.362 . S
C1202 C1205 1.409 . S
C1203 H1195 0.930 . S
C1203 C1204 1.355 . S
C1203 C1205 1.415 . S
C1204 C1203 1.355 . S
C1204 C1206 1.419 . S
C1205 C1200 1.425 . S
C1205 C1202 1.409 . S
C1205 C1203 1.415 . S
C1206 H1196 0.930 . S
C1206 C1204 1.419 . S
C1206 C1207 1.362 . S
C1207 H1197 0.930 . S
C1207 C1200 1.409 . S
C1207 C1206 1.362 . S
H1208 C1214 0.930 . S
H1209 C1217 0.930 . S
H1210 C1218 0.930 . S
H1211 C1219 0.930 . S
H1212 C1222 0.930 . S
H1213 C1223 0.930 . S
C1214 H1208 0.930 . S
C1214 C1215 1.355 . S
C1214 C1216 1.415 . S
C1215 C1214 1.355 . S
C1215 C1217 1.419 . S
C1216 C1214 1.415 . S
C1216 C1221 1.425 . S
C1216 C1223 1.409 . S
C1217 H1209 0.930 . S
C1217 C1215 1.419 . S
C1217 C1218 1.362 . S
C1218 H1210 0.930 . S
C1218 C1217 1.362 . S
C1218 C1221 1.409 . S
C1219 H1211 0.930 . S
C1219 C1220 1.355 . S
C1219 C1221 1.415 . S
C1220 C1219 1.355 . S
C1220 C1222 1.419 . S
C1221 C1216 1.425 . S
C1221 C1218 1.409 . S
C1221 C1219 1.415 . S
C1222 H1212 0.930 . S
C1222 C1220 1.419 . S
C1222 C1223 1.362 . S
C1223 H1213 0.930 . S
C1223 C1216 1.409 . S
C1223 C1222 1.362 . S
C367 C262 1.585 . S
C372 C19 1.697 . S
C383 C39 1.671 . S
C388 C282 1.509 . S
C399 C59 1.658 . S
C404 C242 1.608 . S
C415 C42 1.583 . S
C420 C159 1.643 . S
C431 C179 1.652 . S
C436 C2 1.528 . S
C447 C22 1.544 . S
C452 C139 1.703 . S
C463 C78 1.702 . S
C468 C204 1.534 . S
C479 C98 1.659 . S
C484 C224 1.609 . S
C495 C184 1.576 . S
C500 C118 1.642 . S
C511 C338 1.642 . S
C516 C104 1.579 . S
C527 C64 1.510 . S
C532 C358 1.668 . S
C543 C318 1.659 . S
C548 C84 1.609 . S
C559 C162 1.569 . S
C564 C279 1.641 . S
C575 C122 1.611 . S
C580 C299 1.671 . S
C591 C142 1.610 . S
C596 C259 1.663 . S
C607 C198 1.641 . S
C612 C324 1.572 . S
C623 C344 1.564 . S
C628 C218 1.703 . S
C639 C304 1.554 . S
C644 C238 1.643 . S
C655 C4 1.610 . S
C660 C99 1.625 . S
C671 C119 1.666 . S
C676 C24 1.659 . S
C687 C79 1.627 . S
C692 C44 1.613 . S
C703 C82 1.608 . S
C708 C58 1.621 . S
C719 C102 1.647 . S
C724 C18 1.658 . S
C735 C62 1.651 . S
C740 C38 1.661 . S
C751 C219 1.665 . S
C756 C124 1.660 . S
C767 C239 1.661 . S
C772 C144 1.657 . S
C783 C199 1.662 . S
C788 C164 1.653 . S
C799 C202 1.645 . S
C804 C178 1.649 . S
C815 C222 1.658 . S
C820 C138 1.665 . S
C831 C182 1.646 . S
C836 C158 1.651 . S
C847 C339 1.666 . S
C852 C244 1.660 . S
C863 C359 1.627 . S
C868 C264 1.612 . S
C879 C284 1.614 . S
C884 C319 1.624 . S
C895 C298 1.634 . S
C900 C322 1.619 . S
C911 C258 1.654 . S
C916 C342 1.642 . S
C927 C302 1.619 . S
C932 C278 1.628 . S
C943 C12 1.375 . S
C948 C9 1.375 . S
C959 C32 1.376 . S
C964 C29 1.376 . S
C975 C52 1.404 . S
C980 C49 1.404 . S
C991 C69 1.396 . S
C996 C72 1.396 . S
C1007 C92 1.379 . S
C1012 C89 1.379 . S
C1023 C112 1.388 . S
C1028 C109 1.388 . S
C1039 C129 1.391 . S
C1044 C132 1.391 . S
C1055 C152 1.412 . S
C1060 C149 1.412 . S
C1071 C169 1.375 . S
C1076 C172 1.375 . S
C1087 C189 1.382 . S
C1092 C192 1.382 . S
C1103 C209 1.381 . S
C1108 C212 1.381 . S
C1119 C229 1.375 . S
C1124 C232 1.375 . S
C1135 C249 1.415 . S
C1140 C252 1.415 . S
C1151 C272 1.412 . S
C1156 C269 1.412 . S
C1167 C292 1.376 . S
C1172 C289 1.376 . S
C1183 C312 1.376 . S
C1188 C309 1.376 . S
C1199 C332 1.407 . S
C1204 C329 1.407 . S
C1215 C349 1.395 . S
C1220 C352 1.395 . S
