# Generated by pormake.
# Topology bcs, (6)-cn, num edge types: 1
# Building blocks:
#     Node 0, Type 0, BuildingBlock: BETFEN_clean_sbu_0, # of connection points: 6
#     Node 1, Type 0, BuildingBlock: BETFEN_clean_sbu_0, # of connection points: 6
#     Node 2, Type 0, BuildingBlock: BETFEN_clean_sbu_0, # of connection points: 6
#     Node 3, Type 0, BuildingBlock: BETFEN_clean_sbu_0, # of connection points: 6
#     Node 4, Type 0, BuildingBlock: BETFEN_clean_sbu_0, # of connection points: 6
#     Node 5, Type 0, BuildingBlock: BETFEN_clean_sbu_0, # of connection points: 6
#     Node 6, Type 0, BuildingBlock: BETFEN_clean_sbu_0, # of connection points: 6
#     Node 7, Type 0, BuildingBlock: BETFEN_clean_sbu_0, # of connection points: 6
#     Node 8, Type 0, BuildingBlock: BETFEN_clean_sbu_0, # of connection points: 6
#     Node 9, Type 0, BuildingBlock: BETFEN_clean_sbu_0, # of connection points: 6
#     Node 10, Type 0, BuildingBlock: BETFEN_clean_sbu_0, # of connection points: 6
#     Node 11, Type 0, BuildingBlock: BETFEN_clean_sbu_0, # of connection points: 6
#     Node 12, Type 0, BuildingBlock: BETFEN_clean_sbu_0, # of connection points: 6
#     Node 13, Type 0, BuildingBlock: BETFEN_clean_sbu_0, # of connection points: 6
#     Node 14, Type 0, BuildingBlock: BETFEN_clean_sbu_0, # of connection points: 6
#     Node 15, Type 0, BuildingBlock: BETFEN_clean_sbu_0, # of connection points: 6
#     Edge 16, Type (0, 0), BuildingBlock: MIFKUJ_clean_linker_0, # of connection points: 2
#     Edge 17, Type (0, 0), BuildingBlock: MIFKUJ_clean_linker_0, # of connection points: 2
#     Edge 18, Type (0, 0), BuildingBlock: MIFKUJ_clean_linker_0, # of connection points: 2
#     Edge 19, Type (0, 0), BuildingBlock: MIFKUJ_clean_linker_0, # of connection points: 2
#     Edge 20, Type (0, 0), BuildingBlock: MIFKUJ_clean_linker_0, # of connection points: 2
#     Edge 21, Type (0, 0), BuildingBlock: MIFKUJ_clean_linker_0, # of connection points: 2
#     Edge 22, Type (0, 0), BuildingBlock: MIFKUJ_clean_linker_0, # of connection points: 2
#     Edge 23, Type (0, 0), BuildingBlock: MIFKUJ_clean_linker_0, # of connection points: 2
#     Edge 24, Type (0, 0), BuildingBlock: MIFKUJ_clean_linker_0, # of connection points: 2
#     Edge 25, Type (0, 0), BuildingBlock: MIFKUJ_clean_linker_0, # of connection points: 2
#     Edge 26, Type (0, 0), BuildingBlock: MIFKUJ_clean_linker_0, # of connection points: 2
#     Edge 27, Type (0, 0), BuildingBlock: MIFKUJ_clean_linker_0, # of connection points: 2
#     Edge 28, Type (0, 0), BuildingBlock: MIFKUJ_clean_linker_0, # of connection points: 2
#     Edge 29, Type (0, 0), BuildingBlock: MIFKUJ_clean_linker_0, # of connection points: 2
#     Edge 30, Type (0, 0), BuildingBlock: MIFKUJ_clean_linker_0, # of connection points: 2
#     Edge 31, Type (0, 0), BuildingBlock: MIFKUJ_clean_linker_0, # of connection points: 2
#     Edge 32, Type (0, 0), BuildingBlock: MIFKUJ_clean_linker_0, # of connection points: 2
#     Edge 33, Type (0, 0), BuildingBlock: MIFKUJ_clean_linker_0, # of connection points: 2
#     Edge 34, Type (0, 0), BuildingBlock: MIFKUJ_clean_linker_0, # of connection points: 2
#     Edge 35, Type (0, 0), BuildingBlock: MIFKUJ_clean_linker_0, # of connection points: 2
#     Edge 36, Type (0, 0), BuildingBlock: MIFKUJ_clean_linker_0, # of connection points: 2
#     Edge 37, Type (0, 0), BuildingBlock: MIFKUJ_clean_linker_0, # of connection points: 2
#     Edge 38, Type (0, 0), BuildingBlock: MIFKUJ_clean_linker_0, # of connection points: 2
#     Edge 39, Type (0, 0), BuildingBlock: MIFKUJ_clean_linker_0, # of connection points: 2
#     Edge 40, Type (0, 0), BuildingBlock: MIFKUJ_clean_linker_0, # of connection points: 2
#     Edge 41, Type (0, 0), BuildingBlock: MIFKUJ_clean_linker_0, # of connection points: 2
#     Edge 42, Type (0, 0), BuildingBlock: MIFKUJ_clean_linker_0, # of connection points: 2
#     Edge 43, Type (0, 0), BuildingBlock: MIFKUJ_clean_linker_0, # of connection points: 2
#     Edge 44, Type (0, 0), BuildingBlock: MIFKUJ_clean_linker_0, # of connection points: 2
#     Edge 45, Type (0, 0), BuildingBlock: MIFKUJ_clean_linker_0, # of connection points: 2
#     Edge 46, Type (0, 0), BuildingBlock: MIFKUJ_clean_linker_0, # of connection points: 2
#     Edge 47, Type (0, 0), BuildingBlock: MIFKUJ_clean_linker_0, # of connection points: 2
#     Edge 48, Type (0, 0), BuildingBlock: MIFKUJ_clean_linker_0, # of connection points: 2
#     Edge 49, Type (0, 0), BuildingBlock: MIFKUJ_clean_linker_0, # of connection points: 2
#     Edge 50, Type (0, 0), BuildingBlock: MIFKUJ_clean_linker_0, # of connection points: 2
#     Edge 51, Type (0, 0), BuildingBlock: MIFKUJ_clean_linker_0, # of connection points: 2
#     Edge 52, Type (0, 0), BuildingBlock: MIFKUJ_clean_linker_0, # of connection points: 2
#     Edge 53, Type (0, 0), BuildingBlock: MIFKUJ_clean_linker_0, # of connection points: 2
#     Edge 54, Type (0, 0), BuildingBlock: MIFKUJ_clean_linker_0, # of connection points: 2
#     Edge 55, Type (0, 0), BuildingBlock: MIFKUJ_clean_linker_0, # of connection points: 2
#     Edge 56, Type (0, 0), BuildingBlock: MIFKUJ_clean_linker_0, # of connection points: 2
#     Edge 57, Type (0, 0), BuildingBlock: MIFKUJ_clean_linker_0, # of connection points: 2
#     Edge 58, Type (0, 0), BuildingBlock: MIFKUJ_clean_linker_0, # of connection points: 2
#     Edge 59, Type (0, 0), BuildingBlock: MIFKUJ_clean_linker_0, # of connection points: 2
#     Edge 60, Type (0, 0), BuildingBlock: MIFKUJ_clean_linker_0, # of connection points: 2
#     Edge 61, Type (0, 0), BuildingBlock: MIFKUJ_clean_linker_0, # of connection points: 2
#     Edge 62, Type (0, 0), BuildingBlock: MIFKUJ_clean_linker_0, # of connection points: 2
#     Edge 63, Type (0, 0), BuildingBlock: MIFKUJ_clean_linker_0, # of connection points: 2
# Relax obj value: 0.137
# Max RMSD: 0.226
# Mean RMSD: 0.182
data_MOF--net-bcs--node1-BETFEN_clean_sbu_0--edge1-MIFKUJ_clean_linker_0
_symmetry_space_group_name_H-M    P1
_symmetry_Int_Tables_number       1
_symmetry_cell_setting            triclinic
loop_
_symmetry_equiv_pos_as_xyz
'x, y, z'
_cell_length_a     59.087183
_cell_length_b     49.841065
_cell_length_c     50.310762
_cell_angle_alpha  107.59875
_cell_angle_beta   74.420534
_cell_angle_gamma 117.35107
loop_
_atom_site_label
_atom_site_type_symbol
_atom_site_fract_x
_atom_site_fract_y
_atom_site_fract_z
_atom_type_partial_charge
Pr0 Pr 0.03731 0.01259 0.02912 0.0
Pr1 Pr 1.01955 0.00406 0.9766 0.0
C2 C 0.04784 0.00278 0.07346 0.0
C3 C 0.06501 0.99298 0.08088 0.0
C4 C 0.07403 0.00697 0.10689 0.0
C5 C 0.0893 0.99713 0.11513 0.0
C6 C 0.09577 0.97295 0.09752 0.0
C7 C 0.08693 0.95918 0.07126 0.0
C8 C 0.07176 0.96917 0.06296 0.0
C9 C 0.06806 0.06068 1.00105 0.0
C10 C 0.06351 0.97172 0.96621 0.0
C11 C 1.00757 0.01382 0.93326 0.0
C12 C 0.98931 0.02345 0.92749 0.0
C13 C 0.96491 1.00162 0.92066 0.0
C14 C 0.94833 0.01075 0.91394 0.0
C15 C 0.95578 0.04189 0.9138 0.0
C16 C 0.98009 0.06371 0.92087 0.0
C17 C 0.99667 0.0546 0.92752 0.0
C18 C 0.98942 0.95633 1.00491 0.0
C19 C 0.99289 0.04437 0.03959 0.0
O20 O 0.03039 0.98172 0.05798 0.0
O21 O 0.05816 0.02989 0.0669 0.0
O22 O 0.05947 0.03235 0.98953 0.0
O23 O 0.06172 0.06513 0.02834 0.0
O24 O 0.0507 0.97961 0.95347 0.0
O25 O 0.06029 0.98041 0.99479 0.0
O26 O 0.02551 0.03491 0.94813 0.0
O27 O 0.99838 0.9865 0.93915 0.0
O28 O 0.99755 0.98472 0.01612 0.0
O29 O 0.99611 0.95145 0.97765 0.0
O30 O 1.00642 0.03742 0.05223 0.0
O31 O 0.99566 0.03508 0.01107 0.0
H32 H 0.06893 0.02525 0.12108 0.0
H33 H 0.09547 0.00794 0.13563 0.0
H34 H 0.09177 0.94071 0.05709 0.0
H35 H 0.06508 0.95804 0.04272 0.0
H36 H 0.95868 0.9774 0.92023 0.0
H37 H 0.92967 0.99337 0.90881 0.0
H38 H 0.98665 0.08779 0.92049 0.0
H39 H 1.01546 0.07197 0.93228 0.0
Pr40 Pr 0.26702 0.77729 0.25518 0.0
Pr41 Pr 0.27071 0.71465 0.25015 0.0
C42 C 0.26826 0.82812 0.24509 0.0
C43 C 0.25408 0.83802 0.23271 0.0
C44 C 0.25146 0.86577 0.24582 0.0
C45 C 0.23897 0.87635 0.23403 0.0
C46 C 0.22897 0.8595 0.20866 0.0
C47 C 0.2314 0.8314 0.19574 0.0
C48 C 0.24371 0.8207 0.20773 0.0
C49 C 0.23192 0.74164 0.29322 0.0
C50 C 0.23301 0.71237 0.21164 0.0
C51 C 0.27181 0.66461 0.25921 0.0
C52 C 0.28711 0.6567 0.27186 0.0
C53 C 0.28203 0.62562 0.26851 0.0
C54 C 0.29575 0.61742 0.281 0.0
C55 C 0.31482 0.64019 0.29723 0.0
C56 C 0.32012 0.67146 0.30021 0.0
C57 C 0.30634 0.67964 0.28765 0.0
C58 C 0.30672 0.75251 0.21376 0.0
C59 C 0.30257 0.77826 0.29556 0.0
O60 O 0.28053 0.81186 0.22772 0.0
O61 O 0.25724 0.81898 0.26898 0.0
O62 O 0.23844 0.73135 0.26761 0.0
O63 O 0.24206 0.77168 0.29961 0.0
O64 O 0.23747 0.69566 0.22394 0.0
O65 O 0.24403 0.74301 0.21772 0.0
O66 O 0.25847 0.67947 0.27667 0.0
O67 O 0.28274 0.67473 0.23578 0.0
O68 O 0.2994 0.76108 0.23939 0.0
O69 O 0.29617 0.72259 0.20575 0.0
O70 O 0.29962 0.79541 0.28231 0.0
O71 O 0.29107 0.74773 0.28941 0.0
H72 H 0.2592 0.87941 0.26519 0.0
H73 H 0.23702 0.89769 0.24497 0.0
H74 H 0.22424 0.81791 0.17607 0.0
H75 H 0.24539 0.7991 0.19727 0.0
H76 H 0.26729 0.60762 0.25635 0.0
H77 H 0.29141 0.59318 0.27792 0.0
H78 H 0.33448 0.68955 0.31279 0.0
H79 H 0.3105 0.70379 0.29049 0.0
Pr80 Pr 0.50103 0.99267 0.49795 0.0
Pr81 Pr 0.49733 0.9665 0.54879 0.0
C82 C 0.49477 0.00552 0.45264 0.0
C83 C 0.48194 0.02109 0.44555 0.0
C84 C 0.48223 0.01929 0.41718 0.0
C85 C 0.46964 0.03325 0.40984 0.0
C86 C 0.45618 0.04903 0.43079 0.0
C87 C 0.45616 0.05096 0.45935 0.0
C88 C 0.4691 0.03731 0.46666 0.0
C89 C 0.52476 0.03741 0.5427 0.0
C90 C 0.44736 0.97565 0.54624 0.0
C91 C 0.50515 0.95169 0.5919 0.0
C92 C 0.52652 0.9546 0.6039 0.0
C93 C 0.52166 0.93376 0.62029 0.0
C94 C 0.54171 0.93465 0.63068 0.0
C95 C 0.56716 0.95647 0.6249 0.0
C96 C 0.57194 0.97774 0.60874 0.0
C97 C 0.55176 0.9768 0.59831 0.0
C98 C 0.47249 0.92317 0.50399 0.0
C99 C 0.54926 0.9808 0.50045 0.0
O100 O 0.47983 0.97985 0.46148 0.0
O101 O 0.51413 0.02316 0.46656 0.0
O102 O 0.50351 0.01428 0.54537 0.0
O103 O 0.53317 0.03926 0.51644 0.0
O104 O 0.45952 0.97401 0.5638 0.0
O105 O 0.45834 0.98054 0.52053 0.0
O106 O 0.50243 0.97699 0.59439 0.0
O107 O 0.50126 0.93302 0.56732 0.0
O108 O 0.49455 0.9451 0.50156 0.0
O109 O 0.46326 0.92198 0.53034 0.0
O110 O 0.53507 0.97762 0.48251 0.0
O111 O 0.54053 0.98311 0.5277 0.0
H112 H 0.49222 0.00705 0.40062 0.0
H113 H 0.4707 0.03186 0.38768 0.0
H114 H 0.44573 0.06248 0.47609 0.0
H115 H 0.46859 0.03877 0.48873 0.0
H116 H 0.50234 0.91634 0.62465 0.0
H117 H 0.53735 0.91755 0.64255 0.0
H118 H 0.59126 0.995 0.6041 0.0
H119 H 0.5559 0.99311 0.58563 0.0
Pr120 Pr 0.27179 0.22501 0.741 0.0
Pr121 Pr 0.28413 0.29441 0.76769 0.0
C122 C 0.25475 0.16688 0.71051 0.0
C123 C 0.26366 0.14514 0.68898 0.0
C124 C 0.28902 0.14835 0.68559 0.0
C125 C 0.29673 0.12625 0.66625 0.0
C126 C 0.27923 0.10073 0.64984 0.0
C127 C 0.25401 0.09814 0.65282 0.0
C128 C 0.24629 0.12022 0.6723 0.0
C129 C 0.31354 0.25588 0.77089 0.0
C130 C 0.31317 0.27806 0.70359 0.0
C131 C 0.30185 0.35281 0.79772 0.0
C132 C 0.29388 0.37331 0.82184 0.0
C133 C 0.26908 0.36235 0.83718 0.0
C134 C 0.26137 0.3823 0.8597 0.0
C135 C 0.27843 0.41348 0.86736 0.0
C136 C 0.30345 0.42418 0.8521 0.0
C137 C 0.31113 0.40414 0.82946 0.0
C138 C 0.24251 0.26301 0.73737 0.0
C139 C 0.24209 0.24154 0.8048 0.0
O140 O 0.25581 0.19008 0.70241 0.0
O141 O 0.26152 0.17441 0.7354 0.0
O142 O 0.30827 0.26639 0.75472 0.0
O143 O 0.29808 0.22698 0.77038 0.0
O144 O 0.315 0.29867 0.72753 0.0
O145 O 0.29621 0.24897 0.70229 0.0
O146 O 0.30408 0.33031 0.80348 0.0
O147 O 0.29096 0.34441 0.77533 0.0
O148 O 0.24775 0.25298 0.75392 0.0
O149 O 0.25804 0.29185 0.73751 0.0
O150 O 0.24021 0.22119 0.78065 0.0
O151 O 0.25945 0.27049 0.80641 0.0
H152 H 0.30267 0.16755 0.69833 0.0
H153 H 0.31618 0.12869 0.6648 0.0
H154 H 0.24021 0.07896 0.64025 0.0
H155 H 0.22664 0.1176 0.67466 0.0
H156 H 0.25559 0.33854 0.83143 0.0
H157 H 0.24172 0.37348 0.87049 0.0
H158 H 0.31699 0.448 0.85752 0.0
H159 H 0.33044 0.41276 0.81779 0.0
Pr160 Pr 1.01436 0.03183 0.51062 0.0
Pr161 Pr 0.03458 0.98433 0.50871 0.0
C162 C 1.00176 0.07243 0.49934 0.0
C163 C 0.98462 0.07546 0.48487 0.0
C164 C 0.97139 0.09412 0.4996 0.0
C165 C 0.9566 0.09948 0.48598 0.0
C166 C 0.95475 0.08634 0.45723 0.0
C167 C 0.96774 0.06724 0.44256 0.0
C168 C 0.98251 0.0618 0.45625 0.0
C169 C 0.98518 0.99209 0.54798 0.0
C170 C 0.99377 0.96341 0.46584 0.0
C171 C 0.04733 0.94407 0.52035 0.0
C172 C 0.06605 0.94152 0.53282 0.0
C173 C 0.09277 0.9552 0.52378 0.0
C174 C 0.10978 0.95053 0.53481 0.0
C175 C 0.10039 0.93207 0.55504 0.0
C176 C 0.07368 0.91915 0.5645 0.0
C177 C 0.05674 0.92376 0.55345 0.0
C178 C 0.06439 0.02474 0.47199 0.0
C179 C 0.05505 0.05299 0.55366 0.0
O180 O 1.0198 0.06375 0.4836 0.0
O181 O 0.99156 0.06118 0.52225 0.0
O182 O 0.9944 0.98427 0.52273 0.0
O183 O 0.99009 0.02135 0.55467 0.0
O184 O 1.00248 0.95302 0.48036 0.0
O185 O 0.99867 0.99306 0.47093 0.0
O186 O 0.03129 0.95522 0.53767 0.0
O187 O 0.05503 0.95252 0.49605 0.0
O188 O 0.05451 0.032 0.49702 0.0
O189 O 0.06031 0.99574 0.46537 0.0
O190 O 0.04588 0.06323 0.53952 0.0
O191 O 0.05075 0.02347 0.54811 0.0
H192 H 0.97295 0.10514 0.52159 0.0
H193 H 0.9472 0.11467 0.49782 0.0
H194 H 0.96652 0.05653 0.42048 0.0
H195 H 0.99254 0.0473 0.44433 0.0
H196 H 0.10049 0.96907 0.5079 0.0
H197 H 0.1302 0.96067 0.52693 0.0
H198 H 0.06579 0.90535 0.58045 0.0
H199 H 0.03623 0.91305 0.5608 0.0
Pr200 Pr 0.28468 0.77243 0.73088 0.0
Pr201 Pr 0.26934 0.74023 0.7757 0.0
C202 C 0.28821 0.79861 0.68919 0.0
C203 C 0.2751 0.81289 0.68025 0.0
C204 C 0.27557 0.84218 0.69438 0.0
C205 C 0.26334 0.85527 0.68511 0.0
C206 C 0.25035 0.83932 0.66161 0.0
C207 C 0.25019 0.81025 0.64736 0.0
C208 C 0.26248 0.79726 0.65652 0.0
C209 C 0.32021 0.79947 0.76837 0.0
C210 C 0.2407 0.79145 0.78957 0.0
C211 C 0.26784 0.71557 0.81752 0.0
C212 C 0.28009 0.69867 0.82379 0.0
C213 C 0.26578 0.67738 0.84135 0.0
C214 C 0.2773 0.66222 0.84882 0.0
C215 C 0.30347 0.66812 0.83892 0.0
C216 C 0.3176 0.68898 0.8207 0.0
C217 C 0.30602 0.7041 0.81321 0.0
C218 C 0.23271 0.71305 0.73964 0.0
C219 C 0.31325 0.72112 0.7167 0.0
O220 O 0.27624 0.76891 0.68833 0.0
O221 O 0.30044 0.81391 0.71087 0.0
O222 O 0.29615 0.79059 0.77523 0.0
O223 O 0.32688 0.79437 0.74117 0.0
O224 O 0.24582 0.77392 0.80092 0.0
O225 O 0.25182 0.7925 0.76235 0.0
O226 O 0.28231 0.74436 0.81566 0.0
O227 O 0.25229 0.70068 0.79871 0.0
O228 O 0.25678 0.72216 0.73161 0.0
O229 O 0.2269 0.71725 0.76694 0.0
O230 O 0.30943 0.74022 0.70605 0.0
O231 O 0.30083 0.71841 0.74329 0.0
H232 H 0.28531 0.85497 0.71263 0.0
H233 H 0.26371 0.87765 0.69659 0.0
H234 H 0.24071 0.79759 0.62892 0.0
H235 H 0.26214 0.7749 0.64495 0.0
H236 H 0.2457 0.67272 0.8496 0.0
H237 H 0.26566 0.64588 0.8624 0.0
H238 H 0.33782 0.69435 0.81284 0.0
H239 H 0.31746 0.72041 0.79953 0.0
Pr240 Pr 0.53616 0.9759 0.99316 0.0
Pr241 Pr 0.51908 0.02653 0.01379 0.0
C242 C 0.55435 0.93408 0.96156 0.0
C243 C 0.58072 0.93768 0.94942 0.0
C244 C 0.60154 0.96453 0.95942 0.0
C245 C 0.62679 0.9686 0.94739 0.0
C246 C 0.63153 0.94591 0.92508 0.0
C247 C 0.6105 0.91936 0.91476 0.0
C248 C 0.58526 0.91526 0.92691 0.0
C249 C 0.55505 0.0151 0.04266 0.0
C250 C 0.57355 0.04218 0.97245 0.0
C251 C 0.50085 0.06913 0.04349 0.0
C252 C 0.4752 0.06825 0.05577 0.0
C253 C 0.45309 0.04135 0.04914 0.0
C254 C 0.42862 0.04057 0.06116 0.0
C255 C 0.42601 0.06668 0.07997 0.0
C256 C 0.44833 0.09343 0.0867 0.0
C257 C 0.47274 0.0942 0.07463 0.0
C258 C 0.49984 0.9863 0.96462 0.0
C259 C 0.48353 0.96125 0.03656 0.0
O260 O 0.54537 0.94747 0.95087 0.0
O261 O 0.54915 0.93858 0.98912 0.0
O262 O 0.55411 0.02387 0.02213 0.0
O263 O 0.54701 0.98529 0.03763 0.0
O264 O 0.56014 0.05494 0.99298 0.0
O265 O 0.56669 0.01212 0.96619 0.0
O266 O 0.50904 0.05577 0.05516 0.0
O267 O 0.50559 0.06288 0.01594 0.0
O268 O 0.50059 0.97825 0.98567 0.0
O269 O 0.50908 0.01611 0.96855 0.0
O270 O 0.49515 0.94806 0.01417 0.0
O271 O 0.49148 0.99154 0.04334 0.0
H272 H 0.59824 0.98231 0.97659 0.0
H273 H 0.64254 0.98919 0.95589 0.0
H274 H 0.61354 0.90178 0.89717 0.0
H275 H 0.56932 0.89472 0.91865 0.0
H276 H 0.4548 0.02103 0.03467 0.0
H277 H 0.4118 0.01971 0.05551 0.0
H278 H 0.44696 0.11368 0.10161 0.0
H279 H 0.48968 0.11499 0.08013 0.0
Pr280 Pr 0.29304 0.26534 0.28395 0.0
Pr281 Pr 0.2631 0.2627 0.24233 0.0
C282 C 0.31511 0.25725 0.31977 0.0
C283 C 0.32454 0.2363 0.32398 0.0
C284 C 0.34906 0.24892 0.33181 0.0
C285 C 0.35823 0.23014 0.33733 0.0
C286 C 0.34293 0.19839 0.33541 0.0
C287 C 0.31861 0.18556 0.32693 0.0
C288 C 0.30951 0.20436 0.32112 0.0
C289 C 0.32317 0.29808 0.24137 0.0
C290 C 0.27641 0.20425 0.23175 0.0
C291 C 0.24444 0.27182 0.20387 0.0
C292 C 0.23095 0.28845 0.19925 0.0
C293 C 0.20496 0.27251 0.19544 0.0
C294 C 0.19267 0.2868 0.18806 0.0
C295 C 0.20617 0.31729 0.18379 0.0
C296 C 0.23206 0.33349 0.1883 0.0
C297 C 0.24425 0.31926 0.19607 0.0
C298 C 0.23207 0.23033 0.28478 0.0
C299 C 0.27753 0.32275 0.29725 0.0
O300 O 0.2902 0.24832 0.32222 0.0
O301 O 0.32829 0.27243 0.29964 0.0
O302 O 0.30534 0.2712 0.23738 0.0
O303 O 0.32597 0.3086 0.26774 0.0
O304 O 0.27421 0.22153 0.21814 0.0
O305 O 0.28024 0.21441 0.25826 0.0
O306 O 0.26832 0.28747 0.20861 0.0
O307 O 0.23109 0.24989 0.21811 0.0
O308 O 0.25058 0.25672 0.28894 0.0
O309 O 0.22847 0.22087 0.25863 0.0
O310 O 0.28332 0.30691 0.30904 0.0
O311 O 0.27117 0.31205 0.27162 0.0
H312 H 0.36099 0.27348 0.33409 0.0
H313 H 0.37699 0.24062 0.34396 0.0
H314 H 0.3066 0.16106 0.32502 0.0
H315 H 0.29067 0.19404 0.31474 0.0
H316 H 0.1942 0.24868 0.19762 0.0
H317 H 0.17257 0.27376 0.18548 0.0
H318 H 0.24321 0.35687 0.185 0.0
H319 H 0.26426 0.33215 0.19893 0.0
Pr320 Pr 0.51574 0.53143 1.0054 0.0
Pr321 Pr 0.5366 0.48484 1.00368 0.0
C322 C 0.50049 0.56976 0.99413 0.0
C323 C 0.48107 0.56973 0.98073 0.0
C324 C 0.46943 0.59038 0.99396 0.0
C325 C 0.45224 0.59234 0.98095 0.0
C326 C 0.44637 0.57373 0.9543 0.0
C327 C 0.4577 0.55259 0.94129 0.0
C328 C 0.47482 0.55053 0.95441 0.0
C329 C 0.48689 0.49174 0.0428 0.0
C330 C 0.49621 0.46291 0.96031 0.0
C331 C 0.54987 0.44564 0.01646 0.0
C332 C 0.56852 0.44437 0.03007 0.0
C333 C 0.57907 0.42263 0.01699 0.0
C334 C 0.59558 0.41949 0.03005 0.0
C335 C 0.60193 0.43807 0.05658 0.0
C336 C 0.59154 0.46014 0.06954 0.0
C337 C 0.57502 0.46329 0.0564 0.0
C338 C 0.56634 0.52494 0.96655 0.0
C339 C 0.55645 0.55346 0.04848 0.0
O340 O 0.51819 0.56097 0.97754 0.0
O341 O 0.49253 0.56041 0.01797 0.0
O342 O 0.49607 0.48385 0.01754 0.0
O343 O 0.49185 0.52098 0.04948 0.0
O344 O 0.50528 0.45278 0.97465 0.0
O345 O 0.50046 0.49238 0.96577 0.0
O346 O 0.53292 0.45589 0.03279 0.0
O347 O 0.5583 0.45427 0.99223 0.0
O348 O 0.5563 0.53253 0.99149 0.0
O349 O 0.5626 0.49607 0.96053 0.0
O350 O 0.54749 0.56369 0.03406 0.0
O351 O 0.55202 0.52395 0.04311 0.0
H352 H 0.47404 0.60549 0.0142 0.0
H353 H 0.44414 0.60914 0.99142 0.0
H354 H 0.45337 0.53767 0.92093 0.0
H355 H 0.48343 0.53426 0.94379 0.0
H356 H 0.57415 0.40761 0.99681 0.0
H357 H 0.60282 0.40191 0.01964 0.0
H358 H 0.59621 0.47504 0.08981 0.0
H359 H 0.56714 0.48028 0.06696 0.0
Pr360 Pr 0.78293 0.2709 0.22946 0.0
Pr361 Pr 0.7686 0.23994 0.27515 0.0
C362 C 0.78394 0.29485 0.18738 0.0
C363 C 0.77041 0.30991 0.18062 0.0
C364 C 0.7832 0.3293 0.16122 0.0
C365 C 0.77064 0.34338 0.15399 0.0
C366 C 0.74493 0.3383 0.16599 0.0
C367 C 0.73228 0.31914 0.18583 0.0
C368 C 0.74491 0.30507 0.19307 0.0
C369 C 0.8197 0.29914 0.26561 0.0
C370 C 0.73956 0.29058 0.28866 0.0
C371 C 0.76727 0.21533 0.31683 0.0
C372 C 0.78267 0.20283 0.32387 0.0
C373 C 0.77025 0.17852 0.3383 0.0
C374 C 0.78459 0.16715 0.34619 0.0
C375 C 0.8117 0.18 0.33991 0.0
C376 C 0.82404 0.20396 0.32485 0.0
C377 C 0.80965 0.21522 0.31684 0.0
C378 C 0.73147 0.21238 0.23974 0.0
C379 C 0.81247 0.22075 0.21604 0.0
O380 O 0.77094 0.26565 0.18846 0.0
O381 O 0.79832 0.31071 0.20723 0.0
O382 O 0.79568 0.28988 0.27331 0.0
O383 O 0.82568 0.29467 0.23832 0.0
O384 O 0.74476 0.27323 0.30013 0.0
O385 O 0.7506 0.29152 0.26142 0.0
O386 O 0.77785 0.24498 0.31757 0.0
O387 O 0.75469 0.199 0.29555 0.0
O388 O 0.75544 0.22088 0.23155 0.0
O389 O 0.72591 0.21777 0.26707 0.0
O390 O 0.80774 0.23866 0.20478 0.0
O391 O 0.8008 0.2191 0.24303 0.0
H392 H 0.80295 0.33348 0.15155 0.0
H393 H 0.78116 0.35841 0.13906 0.0
H394 H 0.71242 0.31443 0.19528 0.0
H395 H 0.73468 0.29018 0.20816 0.0
H396 H 0.74944 0.16851 0.34371 0.0
H397 H 0.7744 0.1483 0.35726 0.0
H398 H 0.84486 0.21461 0.31988 0.0
H399 H 0.81965 0.23391 0.30554 0.0
Pr400 Pr 0.02811 0.47789 0.5037 0.0
Pr401 Pr 1.00524 0.52097 0.52169 0.0
C402 C 0.05371 0.4422 0.47656 0.0
C403 C 0.0811 0.44875 0.46748 0.0
C404 C 0.09998 0.47513 0.48136 0.0
C405 C 0.12612 0.48194 0.47168 0.0
C406 C 0.13364 0.46272 0.44776 0.0
C407 C 0.11461 0.43637 0.43398 0.0
C408 C 0.08854 0.42946 0.44379 0.0
C409 C 0.04438 0.51991 0.55366 0.0
C410 C 0.05875 0.54293 0.48104 0.0
C411 C 0.98022 0.55744 0.54846 0.0
C412 C 0.95301 0.55247 0.55816 0.0
C413 C 0.94324 0.56879 0.54953 0.0
C414 C 0.91738 0.56394 0.5579 0.0
C415 C 0.90079 0.54273 0.57516 0.0
C416 C 0.91056 0.52621 0.58364 0.0
C417 C 0.93643 0.53096 0.57513 0.0
C418 C 0.99054 0.4803 0.47087 0.0
C419 C 0.97363 0.45434 0.54249 0.0
O420 O 0.0443 0.4528 0.46341 0.0
O421 O 0.04591 0.44637 0.50377 0.0
O422 O 0.04296 0.52694 0.53233 0.0
O423 O 0.03636 0.49031 0.55007 0.0
O424 O 0.04563 0.55397 0.50347 0.0
O425 O 0.05285 0.51309 0.47385 0.0
O426 O 0.99012 0.54745 0.56171 0.0
O427 O 0.98731 0.55228 0.52115 0.0
O428 O 0.99086 0.4724 0.49227 0.0
O429 O 0.99849 0.50995 0.47502 0.0
O430 O 0.98816 0.44422 0.52118 0.0
O431 O 0.97843 0.48395 0.54969 0.0
H432 H 0.0945 0.49055 0.49951 0.0
H433 H 0.14041 0.5024 0.48258 0.0
H434 H 0.1199 0.42087 0.41577 0.0
H435 H 0.07419 0.40917 0.43278 0.0
H436 H 0.95567 0.58541 0.53639 0.0
H437 H 0.91055 0.57747 0.55148 0.0
H438 H 0.89821 0.50969 0.59689 0.0
H439 H 0.94343 0.51788 0.58192 0.0
Pr440 Pr 0.77713 0.72209 0.23715 0.0
Pr441 Pr 0.78493 0.78913 0.26527 0.0
C442 C 0.76364 0.66524 0.20397 0.0
C443 C 0.77313 0.64734 0.17849 0.0
C444 C 0.7996 0.65563 0.16963 0.0
C445 C 0.80823 0.63758 0.14587 0.0
C446 C 0.79053 0.61111 0.13046 0.0
C447 C 0.76401 0.6035 0.139 0.0
C448 C 0.75539 0.62152 0.16289 0.0
C449 C 0.817 0.75478 0.26978 0.0
C450 C 0.8184 0.77797 0.2029 0.0
C451 C 0.79489 0.84548 0.29861 0.0
C452 C 0.77949 0.86114 0.31875 0.0
C453 C 0.75501 0.85482 0.3141 0.0
C454 C 0.74009 0.86903 0.33372 0.0
C455 C 0.74921 0.88947 0.35857 0.0
C456 C 0.7738 0.89579 0.36313 0.0
C457 C 0.78884 0.8817 0.34331 0.0
C458 C 0.74394 0.75623 0.23408 0.0
C459 C 0.74676 0.7334 0.30088 0.0
O460 O 0.75864 0.68669 0.20021 0.0
O461 O 0.77471 0.67356 0.22623 0.0
O462 O 0.81193 0.76497 0.25317 0.0
O463 O 0.80228 0.72555 0.26865 0.0
O464 O 0.81826 0.79754 0.22734 0.0
O465 O 0.80248 0.7484 0.2002 0.0
O466 O 0.79557 0.82305 0.30629 0.0
O467 O 0.79231 0.83908 0.27208 0.0
O468 O 0.74975 0.74608 0.2501 0.0
O469 O 0.75836 0.78546 0.23535 0.0
O470 O 0.74554 0.7137 0.27643 0.0
O471 O 0.76261 0.76294 0.30294 0.0
H472 H 0.81353 0.67569 0.18138 0.0
H473 H 0.82878 0.6438 0.1402 0.0
H474 H 0.74993 0.58347 0.12742 0.0
H475 H 0.73486 0.61509 0.16939 0.0
H476 H 0.74735 0.83881 0.29535 0.0
H477 H 0.72144 0.86409 0.32933 0.0
H478 H 0.78121 0.91116 0.38221 0.0
H479 H 0.80764 0.88655 0.34728 0.0
Pr480 Pr 0.76349 0.26796 0.75167 0.0
Pr481 Pr 0.76942 0.20551 0.74227 0.0
C482 C 0.75731 0.31714 0.74824 0.0
C483 C 0.7462 0.32652 0.73134 0.0
C484 C 0.72022 0.3102 0.72739 0.0
C485 C 0.70951 0.32104 0.71352 0.0
C486 C 0.72455 0.34831 0.70312 0.0
C487 C 0.75077 0.36397 0.7062 0.0
C488 C 0.76143 0.35324 0.72027 0.0
C489 C 0.74221 0.23715 0.79604 0.0
C490 C 0.72246 0.20105 0.71727 0.0
C491 C 0.77595 0.15761 0.74793 0.0
C492 C 0.79086 0.15195 0.76335 0.0
C493 C 0.80739 0.13756 0.74809 0.0
C494 C 0.8215 0.1315 0.76202 0.0
C495 C 0.81923 0.13941 0.79165 0.0
C496 C 0.80291 0.15428 0.80693 0.0
C497 C 0.7889 0.16055 0.79293 0.0
C498 C 0.78961 0.23425 0.69679 0.0
C499 C 0.80961 0.272 0.77823 0.0
O500 O 0.77818 0.3125 0.73639 0.0
O501 O 0.74123 0.29764 0.76432 0.0
O502 O 0.741 0.225 0.77041 0.0
O503 O 0.75405 0.26709 0.80019 0.0
O504 O 0.72948 0.18542 0.72804 0.0
O505 O 0.73486 0.23144 0.71971 0.0
O506 O 0.75701 0.16518 0.76263 0.0
O507 O 0.78917 0.17279 0.72771 0.0
O508 O 0.79118 0.24787 0.72222 0.0
O509 O 0.77972 0.20438 0.69357 0.0
O510 O 0.80261 0.2881 0.76806 0.0
O511 O 0.79793 0.2415 0.77413 0.0
H512 H 0.708 0.28935 0.73545 0.0
H513 H 0.68935 0.30816 0.71109 0.0
H514 H 0.76284 0.38513 0.6986 0.0
H515 H 0.78147 0.36626 0.72311 0.0
H516 H 0.80935 0.13089 0.72528 0.0
H517 H 0.83423 0.1206 0.74949 0.0
H518 H 0.80047 0.16045 0.82976 0.0
H519 H 0.7764 0.17186 0.8053 0.0
Pr520 Pr 0.79155 0.76151 0.78468 0.0
Pr521 Pr 0.76641 0.7691 0.7429 0.0
C522 C 0.80491 0.74432 0.82212 0.0
C523 C 0.81869 0.7273 0.82531 0.0
C524 C 0.84217 0.74386 0.83593 0.0
C525 C 0.85452 0.72841 0.84139 0.0
C526 C 0.84358 0.69597 0.8366 0.0
C527 C 0.82025 0.67934 0.82551 0.0
C528 C 0.8079 0.69483 0.81997 0.0
C529 C 0.8263 0.78972 0.74098 0.0
C530 C 0.77106 0.70402 0.72951 0.0
C531 C 0.75327 0.78872 0.70712 0.0
C532 C 0.74322 0.81079 0.70631 0.0
C533 C 0.71735 0.80602 0.71673 0.0
C534 C 0.70758 0.82543 0.71339 0.0
C535 C 0.7234 0.85008 0.69953 0.0
C536 C 0.74948 0.85536 0.68991 0.0
C537 C 0.75922 0.83589 0.69317 0.0
C538 C 0.73161 0.74096 0.78676 0.0
C539 C 0.78813 0.82662 0.79676 0.0
O540 O 0.783 0.72849 0.81227 0.0
O541 O 0.81881 0.77036 0.81361 0.0
O542 O 0.8051 0.76656 0.73799 0.0
O543 O 0.83085 0.7977 0.76669 0.0
O544 O 0.77046 0.72377 0.71748 0.0
O545 O 0.77603 0.71203 0.75557 0.0
O546 O 0.7768 0.80005 0.71243 0.0
O547 O 0.7375 0.76493 0.71849 0.0
O548 O 0.75294 0.76397 0.78961 0.0
O549 O 0.72687 0.73334 0.76116 0.0
O550 O 0.78585 0.80614 0.80996 0.0
O551 O 0.78489 0.81878 0.77014 0.0
H552 H 0.85085 0.76888 0.84048 0.0
H553 H 0.87266 0.74197 0.84946 0.0
H554 H 0.81112 0.65436 0.82185 0.0
H555 H 0.78968 0.68135 0.81205 0.0
H556 H 0.70441 0.78682 0.72685 0.0
H557 H 0.68734 0.82034 0.72077 0.0
H558 H 0.76238 0.87437 0.67954 0.0
H559 H 0.77921 0.8401 0.68485 0.0
Pr560 Pr 0.53534 0.50961 0.52876 0.0
Pr561 Pr 0.51762 0.50209 0.47619 0.0
C562 C 0.5455 0.4981 0.5724 0.0
C563 C 0.56241 0.48781 0.57995 0.0
C564 C 0.58942 0.50378 0.57607 0.0
C565 C 0.60469 0.49407 0.58463 0.0
C566 C 0.59326 0.46822 0.59727 0.0
C567 C 0.56624 0.45206 0.60061 0.0
C568 C 0.55105 0.46181 0.59215 0.0
C569 C 0.56701 0.55717 0.5004 0.0
C570 C 0.56146 0.46928 0.46549 0.0
C571 C 0.50747 0.51271 0.43201 0.0
C572 C 0.49002 0.52177 0.42425 0.0
C573 C 0.46806 0.52361 0.44283 0.0
C574 C 0.4522 0.53308 0.43504 0.0
C575 C 0.45816 0.54106 0.40863 0.0
C576 C 0.48012 0.53891 0.39013 0.0
C577 C 0.49586 0.52938 0.39788 0.0
C578 C 0.48654 0.45426 0.50426 0.0
C579 C 0.49163 0.54263 0.53946 0.0
O580 O 0.52833 0.47736 0.55646 0.0
O581 O 0.55554 0.52565 0.56675 0.0
O582 O 0.55758 0.52882 0.48909 0.0
O583 O 0.56112 0.56192 0.52775 0.0
O584 O 0.5486 0.47733 0.45297 0.0
O585 O 0.55829 0.47771 0.49407 0.0
O586 O 0.52386 0.53402 0.44857 0.0
O587 O 0.49772 0.48532 0.43788 0.0
O588 O 0.49545 0.4826 0.51572 0.0
O589 O 0.49266 0.44964 0.47693 0.0
O590 O 0.50499 0.53523 0.55193 0.0
O591 O 0.49426 0.53352 0.51093 0.0
H592 H 0.59876 0.52394 0.56671 0.0
H593 H 0.62539 0.50722 0.58191 0.0
H594 H 0.55675 0.43171 0.60971 0.0
H595 H 0.53028 0.44905 0.59535 0.0
H596 H 0.46333 0.51797 0.46338 0.0
H597 H 0.43558 0.53473 0.4499 0.0
H598 H 0.48509 0.54439 0.36949 0.0
H599 H 0.51271 0.52808 0.38326 0.0
Pr600 Pr 0.0274 0.50179 0.96776 0.0
Pr601 Pr 1.01458 0.47831 0.02192 0.0
C602 C 0.02641 0.51727 0.92128 0.0
C603 C 1.01136 0.53058 0.91485 0.0
C604 C 1.0114 0.52996 0.88683 0.0
C605 C 0.99691 0.54239 0.88068 0.0
C606 C 0.98205 0.5556 0.9025 0.0
C607 C 0.98215 0.55616 0.93061 0.0
C608 C 0.99668 0.54378 0.93672 0.0
C609 C 0.05504 0.54449 0.01068 0.0
C610 C 0.97517 0.50218 0.01467 0.0
C611 C 1.01532 0.46233 0.06817 0.0
C612 C 0.03273 0.45472 0.07772 0.0
C613 C 1.02217 0.43092 0.09259 0.0
C614 C 0.03821 0.42183 0.10031 0.0
C615 C 0.06515 0.43664 0.09355 0.0
C616 C 0.07573 0.461 0.07918 0.0
C617 C 0.05965 0.46966 0.07091 0.0
C618 C 0.98671 0.43617 0.9789 0.0
C619 C 0.0667 0.47842 0.97547 0.0
O620 O 1.01364 0.48922 0.92587 0.0
O621 O 0.04244 0.53559 0.93914 0.0
O622 O 0.03119 0.52731 0.01435 0.0
O623 O 0.06495 0.54076 0.9842 0.0
O624 O 0.9846 0.49955 0.03425 0.0
O625 O 0.98646 0.50053 0.98816 0.0
O626 O 1.02313 0.49105 0.06646 0.0
O627 O 1.00397 0.44233 0.04699 0.0
O628 O 1.01066 0.45289 0.9754 0.0
O629 O 0.97671 0.44004 1.00536 0.0
O630 O 0.05611 0.47866 0.95563 0.0
O631 O 0.05643 0.48234 1.00228 0.0
H632 H 1.02266 0.51989 0.86971 0.0
H633 H 0.99757 0.54195 0.85884 0.0
H634 H 0.97063 0.56564 0.94791 0.0
H635 H 0.9963 0.54433 0.95851 0.0
H636 H 1.00146 0.41901 0.09787 0.0
H637 H 0.02952 0.40321 0.11163 0.0
H638 H 0.09638 0.47292 0.07381 0.0
H639 H 0.06824 0.48797 0.05924 0.0
H640 H 0.1986 0.18848 0.80519 0.0
H641 H 0.16872 0.16891 0.84545 0.0
H642 H 0.21234 0.25088 0.90177 0.0
H643 H 0.24302 0.27085 0.86097 0.0
H644 H 0.20061 0.19851 0.91901 0.0
H645 H 0.1537 0.23974 0.89409 0.0
H646 H 0.13449 0.25152 0.86363 0.0
H647 H 0.08634 0.15509 0.83949 0.0
H648 H 0.10569 0.14258 0.86921 0.0
H649 H 0.09592 0.12172 0.02257 0.0
H650 H 0.12516 0.16226 0.99597 0.0
H651 H 0.10796 0.09591 0.91789 0.0
H652 H 0.07929 0.05536 0.94419 0.0
H653 H 0.10592 0.15333 0.92127 0.0
H654 H 0.16132 0.11378 0.93868 0.0
H655 H 0.18059 0.10268 0.96966 0.0
H656 H 0.21197 0.19873 0.00978 0.0
H657 H 0.19256 0.21031 0.97926 0.0
C658 C 0.20193 0.20262 0.82605 0.0
C659 C 0.22331 0.23126 0.82982 0.0
C660 C 0.18461 0.19142 0.84913 0.0
C661 C 0.18803 0.20858 0.87665 0.0
C662 C 0.20925 0.23736 0.88067 0.0
C663 C 0.22669 0.24876 0.85738 0.0
C664 C 0.17 0.19496 0.90077 0.0
C665 C 0.1799 0.18939 0.92001 0.0
C666 C 0.14293 0.1829 0.90203 0.0
C667 C 0.13127 0.19021 0.88387 0.0
C668 C 0.13919 0.22099 0.8821 0.0
C669 C 0.12826 0.2278 0.86495 0.0
C670 C 0.10923 0.20407 0.84961 0.0
C671 C 0.10109 0.17346 0.85138 0.0
C672 C 0.11204 0.16649 0.86838 0.0
C673 C 0.0984 0.11586 0.99974 0.0
C674 C 0.08537 0.08542 0.98541 0.0
C675 C 0.11508 0.139 0.98461 0.0
C676 C 0.11866 0.13204 0.955 0.0
C677 C 0.10535 0.10176 0.94075 0.0
C678 C 0.08904 0.07861 0.95579 0.0
C679 C 0.13664 0.15586 0.93844 0.0
C680 C 0.12664 0.16327 0.9207 0.0
C681 C 0.16353 0.16982 0.93873 0.0
C682 C 0.17521 0.16283 0.95698 0.0
C683 C 0.17212 0.13247 0.9543 0.0
C684 C 0.18311 0.12611 0.97173 0.0
C685 C 0.19742 0.14997 0.99175 0.0
C686 C 0.20083 0.18026 0.99432 0.0
C687 C 0.18985 0.18674 0.97696 0.0
H688 H 0.20592 0.145 1.00522 0.0
H689 H 0.10078 0.2094 0.83637 0.0
H690 H 0.08765 0.91304 0.09239 0.0
H691 H 0.1115 0.89439 0.10983 0.0
H692 H 0.16166 0.98832 0.1423 0.0
H693 H 0.13832 0.0072 0.12423 0.0
H694 H 0.18873 0.95349 0.11729 0.0
H695 H 0.11365 0.94594 0.18617 0.0
H696 H 0.06717 0.93059 0.20362 0.0
H697 H 0.05373 0.83496 0.1738 0.0
H698 H 0.10012 0.84976 0.15579 0.0
H699 H 0.24199 0.91964 0.20729 0.0
H700 H 0.2202 0.93905 0.18788 0.0
H701 H 0.16609 0.84578 0.15999 0.0
H702 H 0.18682 0.82626 0.18091 0.0
H703 H 0.14137 0.88123 0.18278 0.0
H704 H 0.21758 0.88984 0.11351 0.0
H705 H 0.26437 0.90655 0.09728 0.0
H706 H 0.2759 1.00135 0.12942 0.0
H707 H 0.22925 0.98528 0.1459 0.0
C708 C 0.10398 0.92975 0.10289 0.0
C709 C 0.11101 0.96162 0.10701 0.0
C710 C 0.11745 0.91905 0.11309 0.0
C711 C 0.13817 0.93995 0.12772 0.0
C712 C 0.14569 0.97178 0.13119 0.0
C713 C 0.13219 0.98251 0.12104 0.0
C714 C 0.15169 0.92858 0.13981 0.0
C715 C 0.17842 0.93792 0.13183 0.0
C716 C 0.13823 0.90798 0.15851 0.0
C717 C 0.11032 0.89898 0.16937 0.0
C718 C 0.10075 0.92164 0.18312 0.0
C719 C 0.07443 0.91304 0.19315 0.0
C720 C 0.0575 0.88182 0.18975 0.0
C721 C 0.06687 0.85913 0.17638 0.0
C722 C 0.09318 0.86762 0.16627 0.0
C723 C 0.22528 0.90319 0.19733 0.0
C724 C 0.2162 0.8713 0.1958 0.0
C725 C 0.21304 0.91435 0.18582 0.0
C726 C 0.1917 0.8939 0.17201 0.0
C727 C 0.18259 0.86207 0.1704 0.0
C728 C 0.19467 0.85089 0.18215 0.0
C729 C 0.17842 0.90569 0.15994 0.0
C730 C 0.1517 0.89659 0.16807 0.0
C731 C 0.19193 0.92659 0.14145 0.0
C732 C 0.21995 0.93633 0.13114 0.0
C733 C 0.23012 0.91426 0.1172 0.0
C734 C 0.25662 0.92363 0.1079 0.0
C735 C 0.27312 0.95503 0.11231 0.0
C736 C 0.26313 0.9771 0.12593 0.0
C737 C 0.23666 0.96787 0.1352 0.0
H738 H 0.29364 0.96227 0.10517 0.0
H739 H 0.03712 0.8752 0.19755 0.0
H740 H 0.48791 0.91718 0.44691 0.0
H741 H 0.46017 0.89268 0.40999 0.0
H742 H 0.39273 0.87004 0.47359 0.0
H743 H 0.42022 0.89371 0.51034 0.0
H744 H 0.4214 0.83018 0.39764 0.0
H745 H 0.34789 0.88574 0.44914 0.0
H746 H 0.34572 0.93406 0.47915 0.0
H747 H 0.42742 0.98247 0.45778 0.0
H748 H 0.43015 0.93496 0.42685 0.0
H749 H 0.30854 0.75182 0.33212 0.0
H750 H 0.33864 0.77634 0.36614 0.0
H751 H 0.36754 0.86285 0.34034 0.0
H752 H 0.33702 0.83868 0.30674 0.0
H753 H 0.36059 0.8722 0.39522 0.0
H754 H 0.40255 0.81675 0.31915 0.0
H755 H 0.40385 0.77014 0.2845 0.0
H756 H 0.38622 0.72395 0.35168 0.0
H757 H 0.38475 0.77035 0.38683 0.0
C758 C 0.46718 0.90666 0.4529 0.0
C759 C 0.45622 0.90718 0.48142 0.0
C760 C 0.45139 0.89271 0.43187 0.0
C761 C 0.42442 0.8797 0.43911 0.0
C762 C 0.41348 0.88006 0.46758 0.0
C763 C 0.42923 0.89345 0.48851 0.0
C764 C 0.40758 0.86589 0.41703 0.0
C765 C 0.40811 0.83937 0.39709 0.0
C766 C 0.39029 0.87796 0.41628 0.0
C767 C 0.38926 0.90653 0.43596 0.0
C768 C 0.36545 0.90671 0.45084 0.0
C769 C 0.3641 0.93406 0.46784 0.0
C770 C 0.38648 0.96138 0.47036 0.0
C771 C 0.4102 0.96136 0.45586 0.0
C772 C 0.41165 0.93419 0.43858 0.0
C773 C 0.3213 0.77607 0.33365 0.0
C774 C 0.3204 0.79329 0.31666 0.0
C775 C 0.33863 0.79002 0.35302 0.0
C776 C 0.35567 0.82133 0.35549 0.0
C777 C 0.35462 0.83863 0.33875 0.0
C778 C 0.33714 0.82478 0.31956 0.0
C779 C 0.37417 0.83636 0.37603 0.0
C780 C 0.37386 0.86299 0.39579 0.0
C781 C 0.39167 0.82449 0.37654 0.0
C782 C 0.39346 0.79698 0.35559 0.0
C783 C 0.39896 0.79666 0.32654 0.0
C784 C 0.39974 0.7703 0.30684 0.0
C785 C 0.39515 0.74414 0.31593 0.0
C786 C 0.38987 0.74432 0.34475 0.0
C787 C 0.38914 0.77067 0.36456 0.0
H788 H 0.3957 0.72374 0.30063 0.0
H789 H 0.38546 0.98255 0.48357 0.0
H790 H 0.32521 0.10828 0.61557 0.0
H791 H 0.34071 0.06859 0.59017 0.0
H792 H 0.26643 0.99803 0.61436 0.0
H793 H 0.25123 0.03801 0.64138 0.0
H794 H 0.30027 0.98652 0.62419 0.0
H795 H 0.29031 0.00524 0.54388 0.0
H796 H 0.29145 0.03325 0.51039 0.0
H797 H 0.3742 0.07316 0.49743 0.0
H798 H 0.37367 0.04598 0.5313 0.0
H799 H 0.41012 0.94555 0.513 0.0
H800 H 0.36629 0.94288 0.5248 0.0
H801 H 0.38006 0.99294 0.60943 0.0
H802 H 0.42335 0.99391 0.59829 0.0
H803 H 0.36071 0.99274 0.534 0.0
H804 H 0.32743 0.98474 0.65392 0.0
H805 H 0.3226 0.95028 0.68334 0.0
H806 H 0.31836 0.87742 0.60998 0.0
H807 H 0.32301 0.91135 0.5801 0.0
C808 C 0.3121 0.08432 0.61537 0.0
C809 C 0.28712 0.07633 0.63077 0.0
C810 C 0.32084 0.06154 0.60042 0.0
C811 C 0.30462 0.03021 0.59999 0.0
C812 C 0.27922 0.02202 0.61425 0.0
C813 C 0.27052 0.0449 0.62951 0.0
C814 C 0.3155 0.00686 0.58741 0.0
C815 C 0.31325 0.98759 0.60429 0.0
C816 C 0.33132 0.00684 0.56071 0.0
C817 C 0.33191 0.02354 0.54031 0.0
C818 C 0.30878 0.02016 0.53409 0.0
C819 C 0.30932 0.03593 0.51503 0.0
C820 C 0.33287 0.05507 0.5019 0.0
C821 C 0.35596 0.05838 0.50769 0.0
C822 C 0.35554 0.04275 0.52681 0.0
C823 C 0.40353 0.95537 0.53431 0.0
C824 C 0.42016 0.97061 0.55465 0.0
C825 C 0.37854 0.95372 0.54097 0.0
C826 C 0.37004 0.96805 0.56774 0.0
C827 C 0.38603 0.98133 0.58869 0.0
C828 C 0.41087 0.98225 0.58226 0.0
C829 C 0.34736 0.97502 0.57208 0.0
C830 C 0.34722 0.99104 0.55352 0.0
C831 C 0.3288 0.97122 0.59668 0.0
C832 C 0.32577 0.95071 0.61473 0.0
C833 C 0.32536 0.96134 0.64406 0.0
C834 C 0.32276 0.94193 0.6608 0.0
C835 C 0.32039 0.91177 0.6485 0.0
C836 C 0.32043 0.90088 0.61944 0.0
C837 C 0.32313 0.92022 0.60259 0.0
H838 H 0.31837 0.89679 0.6615 0.0
H839 H 0.33323 0.06725 0.48716 0.0
H840 H 0.09248 0.87723 0.56503 0.0
H841 H 0.12046 0.86656 0.58433 0.0
H842 H 0.17679 0.96074 0.58811 0.0
H843 H 0.14861 0.97183 0.56906 0.0
H844 H 0.19887 0.91815 0.56757 0.0
H845 H 0.1396 0.94044 0.64732 0.0
H846 H 0.09681 0.93567 0.67413 0.0
H847 H 0.07461 0.83959 0.66962 0.0
H848 H 0.11716 0.84366 0.64242 0.0
H849 H 0.26672 0.89888 0.65579 0.0
H850 H 0.24404 0.91939 0.63852 0.0
H851 H 0.17996 0.82994 0.62916 0.0
H852 H 0.20244 0.80942 0.64634 0.0
H853 H 0.16441 0.87654 0.65498 0.0
H854 H 0.22442 0.85449 0.57626 0.0
H855 H 0.26684 0.85888 0.54887 0.0
H856 H 0.28708 0.95292 0.5478 0.0
H857 H 0.24563 0.95007 0.57713 0.0
C858 C 0.11069 0.89583 0.57019 0.0
C859 C 0.11811 0.92553 0.56582 0.0
C860 C 0.12674 0.88963 0.58112 0.0
C861 C 0.15056 0.91296 0.58804 0.0
C862 C 0.15845 0.94242 0.58297 0.0
C863 C 0.14234 0.94869 0.57203 0.0
C864 C 0.16681 0.90643 0.60103 0.0
C865 C 0.19164 0.90965 0.58699 0.0
C866 C 0.15708 0.8948 0.62608 0.0
C867 C 0.13152 0.89232 0.64265 0.0
C868 C 0.12554 0.91824 0.65188 0.0
C869 C 0.10133 0.91567 0.66717 0.0
C870 C 0.08298 0.88733 0.67353 0.0
C871 C 0.08884 0.86152 0.66467 0.0
C872 C 0.11301 0.86396 0.64934 0.0
C873 C 0.24779 0.88365 0.65012 0.0
C874 C 0.23651 0.85243 0.65213 0.0
C875 C 0.23489 0.89537 0.64018 0.0
C876 C 0.21038 0.87612 0.63236 0.0
C877 C 0.19888 0.84518 0.635 0.0
C878 C 0.21184 0.83343 0.64462 0.0
C879 C 0.19644 0.88779 0.62135 0.0
C880 C 0.17194 0.88551 0.63579 0.0
C881 C 0.20658 0.90022 0.59664 0.0
C882 C 0.232 0.90227 0.57967 0.0
C883 C 0.23817 0.87646 0.57101 0.0
C884 C 0.26214 0.87872 0.55516 0.0
C885 C 0.27988 0.9064 0.54706 0.0
C886 C 0.27362 0.93181 0.55472 0.0
C887 C 0.24995 0.92994 0.57115 0.0
H888 H 0.29835 0.90807 0.5346 0.0
H889 H 0.06425 0.88539 0.68537 0.0
H890 H 0.37201 0.81484 0.75831 0.0
H891 H 0.40247 0.84352 0.79233 0.0
H892 H 0.34028 0.85042 0.85851 0.0
H893 H 0.30974 0.82146 0.82472 0.0
H894 H 0.38179 0.90605 0.85794 0.0
H895 H 0.36407 0.8041 0.85991 0.0
H896 H 0.35885 0.75015 0.84192 0.0
H897 H 0.43892 0.78096 0.80588 0.0
H898 H 0.44461 0.83526 0.82352 0.0
H899 H 0.46721 0.92558 0.96255 0.0
H900 H 0.43698 0.89186 0.92919 0.0
H901 H 0.46604 0.96471 0.88344 0.0
H902 H 0.49563 0.9989 0.91745 0.0
H903 H 0.43882 0.86727 0.87604 0.0
H904 H 0.4185 0.96343 0.85786 0.0
H905 H 0.41836 0.01415 0.88335 0.0
H906 H 0.40513 0.98939 0.96258 0.0
H907 H 0.40483 0.93839 0.93758 0.0
C908 C 0.36486 0.82239 0.78014 0.0
C909 C 0.33856 0.81609 0.78887 0.0
C910 C 0.38223 0.83863 0.79956 0.0
C911 C 0.37363 0.84907 0.82795 0.0
C912 C 0.34733 0.84263 0.8367 0.0
C913 C 0.32992 0.82607 0.81739 0.0
C914 C 0.39219 0.86767 0.8483 0.0
C915 C 0.39432 0.89763 0.86183 0.0
C916 C 0.40802 0.85633 0.85399 0.0
C917 C 0.40468 0.82377 0.84272 0.0
C918 C 0.38051 0.7994 0.84784 0.0
C919 C 0.37747 0.76874 0.83778 0.0
C920 C 0.3985 0.7621 0.8226 0.0
C921 C 0.42263 0.78614 0.81755 0.0
C922 C 0.42578 0.81688 0.82762 0.0
C923 C 0.46725 0.93434 0.94527 0.0
C924 C 0.48356 0.96499 0.94276 0.0
C925 C 0.45001 0.91499 0.92614 0.0
C926 C 0.44884 0.92584 0.90403 0.0
C927 C 0.4661 0.95599 0.90069 0.0
C928 C 0.48311 0.97548 0.92004 0.0
C929 C 0.42892 0.90606 0.88521 0.0
C930 C 0.42647 0.87585 0.87198 0.0
C931 C 0.41211 0.91675 0.88058 0.0
C932 C 0.41193 0.94723 0.89582 0.0
C933 C 0.41547 0.96878 0.88072 0.0
C934 C 0.41548 0.99758 0.89508 0.0
C935 C 0.41183 0.00503 0.92456 0.0
C936 C 0.40805 0.98364 0.93975 0.0
C937 C 0.40798 0.95479 0.92549 0.0
H938 H 0.41187 0.02735 0.93564 0.0
H939 H 0.3961 0.73833 0.81486 0.0
H940 H 0.41021 0.11223 0.0877 0.0
H941 H 0.37013 0.11492 0.11495 0.0
H942 H 0.34289 0.02279 0.12806 0.0
H943 H 0.38357 0.02018 0.10146 0.0
H944 H 0.30574 0.0503 0.11385 0.0
H945 H 0.35443 0.05468 0.17981 0.0
H946 H 0.39481 0.07003 0.19722 0.0
H947 H 0.41271 0.16559 0.20476 0.0
H948 H 0.37264 0.15074 0.18691 0.0
H949 H 0.27019 0.15869 0.25582 0.0
H950 H 0.27751 0.11226 0.23213 0.0
H951 H 0.28884 0.1338 0.15136 0.0
H952 H 0.28112 0.18008 0.17494 0.0
H953 H 0.32338 0.12089 0.20671 0.0
H954 H 0.28245 0.07158 0.0982 0.0
H955 H 0.24057 0.05127 0.08219 0.0
H956 H 0.2011 0.03671 0.16513 0.0
H957 H 0.24267 0.05652 0.1816 0.0
C958 C 0.39569 0.09244 0.09622 0.0
C959 C 0.40023 0.06625 0.09294 0.0
C960 C 0.37272 0.09388 0.11146 0.0
C961 C 0.3538 0.06909 0.12345 0.0
C962 C 0.35737 0.04203 0.11875 0.0
C963 C 0.38056 0.04064 0.1036 0.0
C964 C 0.33225 0.0739 0.14381 0.0
C965 C 0.30907 0.06519 0.13446 0.0
C966 C 0.33661 0.09245 0.17091 0.0
C967 C 0.36065 0.10157 0.18183 0.0
C968 C 0.36711 0.07894 0.18494 0.0
C969 C 0.38991 0.08756 0.19492 0.0
C970 C 0.40635 0.11877 0.20204 0.0
C971 C 0.39998 0.14142 0.19922 0.0
C972 C 0.37721 0.13292 0.18919 0.0
C973 C 0.27362 0.15316 0.23296 0.0
C974 C 0.27584 0.17347 0.2172 0.0
C975 C 0.27752 0.12641 0.21946 0.0
C976 C 0.28386 0.11959 0.19 0.0
C977 C 0.28365 0.13832 0.17411 0.0
C978 C 0.27956 0.16503 0.18762 0.0
C979 C 0.29675 0.09833 0.17656 0.0
C980 C 0.31888 0.10461 0.1869 0.0
C981 C 0.29082 0.07669 0.15092 0.0
C982 C 0.2658 0.06579 0.14121 0.0
C983 C 0.26486 0.064 0.11305 0.0
C984 C 0.24115 0.05257 0.10388 0.0
C985 C 0.21819 0.04275 0.12263 0.0
C986 C 0.2189 0.04444 0.15064 0.0
C987 C 0.24255 0.05589 0.15993 0.0
H988 H 0.19985 0.0338 0.11546 0.0
H989 H 0.42399 0.1254 0.20979 0.0
H990 H 0.07296 0.08533 0.48243 0.0
H991 H 0.10158 0.12327 0.45318 0.0
H992 H 0.12406 0.05403 0.39289 0.0
H993 H 0.09498 0.01574 0.42174 0.0
H994 H 0.16623 0.11349 0.40952 0.0
H995 H 0.08355 0.06951 0.37693 0.0
H996 H 0.03685 0.05588 0.38478 0.0
H997 H 0.05094 0.15143 0.4174 0.0
H998 H 0.09772 0.16558 0.41019 0.0
H999 H 0.18981 0.17629 0.27799 0.0
H1000 H 0.16208 0.14529 0.31294 0.0
H1001 H 0.20798 0.21247 0.37642 0.0
H1002 H 0.23611 0.24387 0.34114 0.0
H1003 H 0.13166 0.1572 0.36168 0.0
H1004 H 0.20619 0.17179 0.42285 0.0
H1005 H 0.2523 0.18336 0.41766 0.0
H1006 H 0.25396 0.14508 0.32873 0.0
H1007 H 0.20787 0.13335 0.33341 0.0
C1008 C 0.08389 0.07815 0.46285 0.0
C1009 C 0.08163 0.04753 0.45424 0.0
C1010 C 0.10026 0.09986 0.44623 0.0
C1011 C 0.11491 0.09143 0.4209 0.0
C1012 C 0.11295 0.06098 0.41243 0.0
C1013 C 0.09627 0.03913 0.42884 0.0
C1014 C 0.13203 0.1142 0.40295 0.0
C1015 C 0.15872 0.12319 0.39914 0.0
C1016 C 0.12218 0.127 0.38967 0.0
C1017 C 0.09412 0.11857 0.39326 0.0
C1018 C 0.07668 0.08759 0.38595 0.0
C1019 C 0.0502 0.07977 0.39027 0.0
C1020 C 0.04093 0.10277 0.40164 0.0
C1021 C 0.05814 0.13364 0.40862 0.0
C1022 C 0.08464 0.14158 0.4044 0.0
C1023 C 0.19402 0.18462 0.2994 0.0
C1024 C 0.21518 0.21254 0.3068 0.0
C1025 C 0.17806 0.16687 0.31941 0.0
C1026 C 0.18293 0.17641 0.34731 0.0
C1027 C 0.20395 0.20449 0.35495 0.0
C1028 C 0.21996 0.22244 0.33484 0.0
C1029 C 0.16604 0.15634 0.36786 0.0
C1030 C 0.13929 0.14786 0.37228 0.0
C1031 C 0.17584 0.14414 0.38188 0.0
C1032 C 0.20371 0.15201 0.37846 0.0
C1033 C 0.21646 0.16598 0.40218 0.0
C1034 C 0.24256 0.17258 0.39933 0.0
C1035 C 0.25606 0.16506 0.37289 0.0
C1036 C 0.24352 0.15109 0.34918 0.0
C1037 C 0.21742 0.14455 0.35189 0.0
H1038 H 0.27618 0.16992 0.3709 0.0
H1039 H 1.02043 0.09668 0.40497 0.0
H1040 H 0.82202 0.1729 0.22696 0.0
H1041 H 0.84843 0.14463 0.20003 0.0
H1042 H 0.87477 0.19726 0.1358 0.0
H1043 H 0.84692 0.22422 0.1622 0.0
H1044 H 0.88689 0.15687 0.10556 0.0
H1045 H 0.91075 0.18754 0.19834 0.0
H1046 H 0.90395 0.19119 0.24972 0.0
H1047 H 0.86625 0.09231 0.23715 0.0
H1048 H 0.87266 0.08811 0.18577 0.0
H1049 H 0.95503 0.05651 0.0238 0.0
H1050 H 0.92653 0.08207 0.05057 0.0
H1051 H 0.9581 0.10233 0.12541 0.0
H1052 H 0.98565 0.07503 0.09865 0.0
H1053 H 0.91919 0.10883 0.1508 0.0
H1054 H 0.87882 0.10814 0.05924 0.0
H1055 H 0.89178 0.11098 0.00889 0.0
H1056 H 0.97119 0.16057 0.02078 0.0
H1057 H 0.95866 0.15817 0.07123 0.0
C1058 C 0.83335 0.17908 0.20718 0.0
C1059 C 0.83099 0.20244 0.19828 0.0
C1060 C 0.84961 0.16249 0.19114 0.0
C1061 C 0.86619 0.16771 0.16449 0.0
C1062 C 0.86356 0.19098 0.15557 0.0
C1063 C 0.84697 0.20724 0.1714 0.0
C1064 C 0.8851 0.14958 0.14629 0.0
C1065 C 0.8934 0.14645 0.11625 0.0
C1066 C 0.89599 0.13509 0.15751 0.0
C1067 C 0.89191 0.13755 0.1883 0.0
C1068 C 0.90091 0.16661 0.20659 0.0
C1069 C 0.89713 0.16876 0.2357 0.0
C1070 C 0.88461 0.14199 0.24671 0.0
C1071 C 0.87589 0.11302 0.22862 0.0
C1072 C 0.87959 0.11074 0.19951 0.0
C1073 C 0.95644 0.06634 0.04595 0.0
C1074 C 0.97426 0.06247 0.05757 0.0
C1075 C 0.93963 0.08217 0.06203 0.0
C1076 C 0.93892 0.09689 0.09166 0.0
C1077 C 0.95663 0.09264 0.10326 0.0
C1078 C 0.97321 0.07641 0.08726 0.0
C1079 C 0.92038 0.11544 0.11001 0.0
C1080 C 0.91233 0.11887 0.14008 0.0
C1081 C 0.9102 0.1308 0.09894 0.0
C1082 C 0.91782 0.13266 0.06886 0.0
C1083 C 0.89902 0.11971 0.05109 0.0
C1084 C 0.9063 0.12121 0.02255 0.0
C1085 C 0.9323 0.13584 0.01162 0.0
C1086 C 0.95107 0.14916 0.02925 0.0
C1087 C 0.9439 0.14773 0.05781 0.0
H1088 H 0.93788 0.1369 0.9895 0.0
H1089 H 0.88173 0.14368 0.26923 0.0
H1090 H 0.08071 0.6059 0.4939 0.0
H1091 H 0.11356 0.64055 0.46383 0.0
H1092 H 0.11687 0.56208 0.39898 0.0
H1093 H 0.08448 0.52723 0.42924 0.0
H1094 H 0.1641 0.60776 0.40237 0.0
H1095 H 0.08093 0.59771 0.39601 0.0
H1096 H 0.03817 0.59881 0.41425 0.0
H1097 H 0.07395 0.69525 0.45162 0.0
H1098 H 0.11695 0.6946 0.43394 0.0
H1099 H 0.21046 0.67886 0.28314 0.0
H1100 H 0.18454 0.64603 0.31746 0.0
H1101 H 0.19064 0.72699 0.38333 0.0
H1102 H 0.21704 0.76003 0.34919 0.0
H1103 H 0.14019 0.68117 0.38043 0.0
H1104 H 0.2244 0.69074 0.38162 0.0
H1105 H 0.26632 0.68773 0.36183 0.0
H1106 H 0.22784 0.59 0.33141 0.0
H1107 H 0.1856 0.59248 0.3504 0.0
C1108 C 0.08856 0.59602 0.47332 0.0
C1109 C 0.07979 0.56387 0.46374 0.0
C1110 C 0.1073 0.61583 0.45618 0.0
C1111 C 0.11726 0.60382 0.42901 0.0
C1112 C 0.10934 0.57177 0.41986 0.0
C1113 C 0.09076 0.55192 0.43712 0.0
C1114 C 0.13482 0.62461 0.40959 0.0
C1115 C 0.15882 0.62361 0.39731 0.0
C1116 C 0.12796 0.64552 0.40336 0.0
C1117 C 0.10214 0.64602 0.4139 0.0
C1118 C 0.07967 0.61909 0.4083 0.0
C1119 C 0.05539 0.61964 0.41851 0.0
C1120 C 0.05334 0.64706 0.43415 0.0
C1121 C 0.07557 0.67401 0.43955 0.0
C1122 C 0.0999 0.67357 0.42942 0.0
C1123 C 0.20644 0.68964 0.30499 0.0
C1124 C 0.21581 0.72191 0.31364 0.0
C1125 C 0.19173 0.6709 0.32452 0.0
C1126 C 0.186 0.68421 0.35288 0.0
C1127 C 0.19505 0.71642 0.3615 0.0
C1128 C 0.21003 0.73519 0.34204 0.0
C1129 C 0.16947 0.6644 0.37328 0.0
C1130 C 0.14557 0.66548 0.38563 0.0
C1131 C 0.17634 0.64332 0.37918 0.0
C1132 C 0.20176 0.64186 0.36725 0.0
C1133 C 0.22482 0.66866 0.37039 0.0
C1134 C 0.24865 0.66703 0.35937 0.0
C1135 C 0.24971 0.63869 0.34542 0.0
C1136 C 0.22695 0.61193 0.34224 0.0
C1137 C 0.20306 0.61344 0.35312 0.0
H1138 H 0.26816 0.63742 0.33724 0.0
H1139 H 0.03453 0.64745 0.44204 0.0
H1140 H 0.61546 0.96355 0.59589 0.0
H1141 H 0.64804 0.95516 0.60966 0.0
H1142 H 0.59949 0.93813 0.68914 0.0
H1143 H 0.56723 0.94743 0.67594 0.0
H1144 H 0.65072 0.96987 0.69507 0.0
H1145 H 0.59786 0.87881 0.63275 0.0
H1146 H 0.58003 0.85131 0.58823 0.0
H1147 H 0.65666 0.87422 0.54182 0.0
H1148 H 0.6749 0.90218 0.58595 0.0
H1149 H 0.68685 0.87027 0.73365 0.0
H1150 H 0.66607 0.89688 0.72196 0.0
H1151 H 0.71449 0.90002 0.64071 0.0
H1152 H 0.73452 0.87229 0.65176 0.0
H1153 H 0.66759 0.88022 0.63365 0.0
H1154 H 0.72114 0.96473 0.69489 0.0
H1155 H 0.74096 0.9952 0.73775 0.0
H1156 H 0.66705 0.98913 0.78477 0.0
H1157 H 0.64659 0.95771 0.74244 0.0
C1158 C 0.61196 0.95874 0.61657 0.0
C1159 C 0.5885 0.95565 0.63462 0.0
C1160 C 0.63054 0.95374 0.62434 0.0
C1161 C 0.62598 0.9454 0.65021 0.0
C1162 C 0.60336 0.9443 0.66899 0.0
C1163 C 0.58481 0.94931 0.66127 0.0
C1164 C 0.6435 0.93518 0.65684 0.0
C1165 C 0.65432 0.95014 0.68183 0.0
C1166 C 0.64882 0.91004 0.63907 0.0
C1167 C 0.63774 0.89285 0.6126 0.0
C1168 C 0.61089 0.87813 0.61301 0.0
C1169 C 0.60071 0.86244 0.58783 0.0
C1170 C 0.61719 0.86108 0.56216 0.0
C1171 C 0.64388 0.87532 0.56164 0.0
C1172 C 0.65416 0.89108 0.58673 0.0
C1173 C 0.69313 0.87666 0.71332 0.0
C1174 C 0.71237 0.86898 0.69367 0.0
C1175 C 0.68141 0.89225 0.70676 0.0
C1176 C 0.6888 0.90074 0.68049 0.0
C1177 C 0.70845 0.89381 0.66114 0.0
C1178 C 0.72008 0.87815 0.66763 0.0
C1179 C 0.67473 0.91461 0.67226 0.0
C1180 C 0.66438 0.9002 0.64693 0.0
C1181 C 0.67013 0.94047 0.68965 0.0
C1182 C 0.68225 0.95852 0.71546 0.0
C1183 C 0.70901 0.96945 0.71445 0.0
C1184 C 0.72038 0.98695 0.73866 0.0
C1185 C 0.70527 0.99406 0.76397 0.0
C1186 C 0.67873 0.98358 0.76514 0.0
C1187 C 0.66722 0.96583 0.74107 0.0
H1188 H 0.71412 0.00768 0.78268 0.0
H1189 H 0.6093 0.84895 0.54268 0.0
H1190 H 0.47723 0.39971 0.9487 0.0
H1191 H 0.44705 0.3629 0.9162 0.0
H1192 H 0.44667 0.43832 0.89141 0.0
H1193 H 0.47639 0.47529 0.92434 0.0
H1194 H 0.39931 0.3971 0.90098 0.0
H1195 H 0.4788 0.39288 0.8481 0.0
H1196 H 0.51916 0.38621 0.83975 0.0
H1197 H 0.47608 0.2935 0.85314 0.0
H1198 H 0.43545 0.29976 0.86194 0.0
H1199 H 0.34517 0.31684 0.77472 0.0
H1200 H 0.37606 0.34983 0.80749 0.0
H1201 H 0.35917 0.27125 0.84067 0.0
H1202 H 0.32737 0.2381 0.80843 0.0
H1203 H 0.41393 0.31146 0.8282 0.0
H1204 H 0.33391 0.31536 0.87711 0.0
H1205 H 0.29411 0.32321 0.88574 0.0
H1206 H 0.33887 0.41832 0.88015 0.0
H1207 H 0.37893 0.41074 0.87023 0.0
C1208 C 0.47093 0.40852 0.93617 0.0
C1209 C 0.4793 0.44052 0.93915 0.0
C1210 C 0.4537 0.38739 0.91748 0.0
C1211 C 0.44471 0.39776 0.9011 0.0
C1212 C 0.45327 0.4297 0.90382 0.0
C1213 C 0.47037 0.45085 0.92262 0.0
C1214 C 0.4257 0.37544 0.88185 0.0
C1215 C 0.40271 0.37867 0.88478 0.0
C1216 C 0.42972 0.35074 0.86128 0.0
C1217 C 0.45411 0.34691 0.85597 0.0
C1218 C 0.47795 0.37116 0.84949 0.0
C1219 C 0.50087 0.36743 0.84463 0.0
C1220 C 0.50019 0.33948 0.84599 0.0
C1221 C 0.47658 0.31516 0.85214 0.0
C1222 C 0.4536 0.31877 0.85704 0.0
C1223 C 0.34793 0.30655 0.78905 0.0
C1224 C 0.33359 0.27496 0.78931 0.0
C1225 C 0.36562 0.32544 0.80772 0.0
C1226 C 0.36971 0.31303 0.82666 0.0
C1227 C 0.35619 0.28125 0.82625 0.0
C1228 C 0.33807 0.26238 0.80787 0.0
C1229 C 0.38786 0.33357 0.84709 0.0
C1230 C 0.4106 0.32993 0.84441 0.0
C1231 C 0.38371 0.35808 0.86776 0.0
C1232 C 0.35951 0.36235 0.87255 0.0
C1233 C 0.3353 0.33779 0.87711 0.0
C1234 C 0.31266 0.34221 0.88229 0.0
C1235 C 0.31395 0.37121 0.88342 0.0
C1236 C 0.33788 0.3958 0.87912 0.0
C1237 C 0.36056 0.39143 0.87362 0.0
H1238 H 0.29642 0.37467 0.88781 0.0
H1239 H 0.51796 0.33664 0.84222 0.0
H1240 H 0.82942 0.73854 0.30966 0.0
H1241 H 0.86032 0.77259 0.34258 0.0
H1242 H 0.87822 0.84978 0.30669 0.0
H1243 H 0.84782 0.81593 0.27366 0.0
H1244 H 0.9212 0.85115 0.31509 0.0
H1245 H 0.83838 0.83939 0.36906 0.0
H1246 H 0.79324 0.81032 0.38856 0.0
H1247 H 0.81825 0.7704 0.43342 0.0
H1248 H 0.86355 0.79882 0.41375 0.0
H1249 H 0.97824 0.97583 0.42592 0.0
H1250 H 0.94899 0.93891 0.39231 0.0
H1251 H 0.94076 0.86373 0.42494 0.0
H1252 H 0.97011 0.9004 0.45846 0.0
H1253 H 0.89339 0.8601 0.41845 0.0
H1254 H 0.97726 0.87459 0.3641 0.0
H1255 H 1.02183 0.90505 0.34409 0.0
H1256 H 0.99373 0.94246 0.30011 0.0
H1257 H 0.94899 0.91254 0.3202 0.0
C1258 C 0.84008 0.76273 0.30874 0.0
C1259 C 0.8362 0.77457 0.28911 0.0
C1260 C 0.85764 0.78221 0.32762 0.0
C1261 C 0.87147 0.81387 0.3273 0.0
C1262 C 0.86786 0.82549 0.30734 0.0
C1263 C 0.85041 0.80609 0.28851 0.0
C1264 C 0.88945 0.83513 0.34792 0.0
C1265 C 0.91501 0.85329 0.33769 0.0
C1266 C 0.88154 0.83772 0.37745 0.0
C1267 C 0.85435 0.82097 0.38968 0.0
C1268 C 0.83425 0.82423 0.38292 0.0
C1269 C 0.80863 0.80789 0.39401 0.0
C1270 C 0.80287 0.78846 0.41216 0.0
C1271 C 0.82274 0.78542 0.41932 0.0
C1272 C 0.84839 0.80164 0.4082 0.0
C1273 C 0.9703 0.95144 0.42589 0.0
C1274 C 0.97666 0.94109 0.44481 0.0
C1275 C 0.9536 0.93036 0.40664 0.0
C1276 C 0.94275 0.89853 0.40604 0.0
C1277 C 0.94889 0.88816 0.42503 0.0
C1278 C 0.96581 0.90918 0.44407 0.0
C1279 C 0.92505 0.87609 0.38555 0.0
C1280 C 0.89955 0.85779 0.39584 0.0
C1281 C 0.9329 0.87364 0.35608 0.0
C1282 C 0.95979 0.89155 0.34388 0.0
C1283 C 0.98059 0.88951 0.35036 0.0
C1284 C 1.00589 0.90664 0.33896 0.0
C1285 C 1.01061 0.92574 0.3209 0.0
C1286 C 0.99005 0.92768 0.31414 0.0
C1287 C 0.96471 0.91063 0.3255 0.0
H1288 H 0.03021 0.93898 0.3121 0.0
H1289 H 0.78303 0.77581 0.42071 0.0
H1290 H 0.48554 0.57348 0.59833 0.0
H1291 H 0.45923 0.60174 0.62562 0.0
H1292 H 0.42654 0.58332 0.55208 0.0
H1293 H 0.45418 0.55639 0.52438 0.0
H1294 H 0.41451 0.62574 0.57652 0.0
H1295 H 0.39658 0.55593 0.63455 0.0
H1296 H 0.40561 0.5302 0.66283 0.0
H1297 H 0.44478 0.61805 0.71512 0.0
H1298 H 0.43616 0.6443 0.68698 0.0
H1299 H 0.3478 0.72578 0.66335 0.0
H1300 H 0.37583 0.69965 0.63649 0.0
H1301 H 0.3503 0.64528 0.69915 0.0
H1302 H 0.32317 0.67292 0.72685 0.0
H1303 H 0.38897 0.63618 0.67975 0.0
H1304 H 0.42024 0.68415 0.5791 0.0
H1305 H 0.4031 0.6998 0.54948 0.0
H1306 H 0.32582 0.64128 0.58021 0.0
H1307 H 0.34254 0.62512 0.60984 0.0
C1308 C 0.47283 0.57495 0.58737 0.0
C1309 C 0.47334 0.56105 0.55775 0.0
C1310 C 0.45666 0.5915 0.60383 0.0
C1311 C 0.4384 0.5956 0.59297 0.0
C1312 C 0.43917 0.58189 0.56317 0.0
C1313 C 0.45564 0.56569 0.54658 0.0
C1314 C 0.41964 0.61378 0.61152 0.0
C1315 C 0.40956 0.62781 0.59917 0.0
C1316 C 0.41053 0.61759 0.64176 0.0
C1317 C 0.41602 0.60207 0.65847 0.0
C1318 C 0.40724 0.56974 0.65199 0.0
C1319 C 0.41227 0.55508 0.66799 0.0
C1320 C 0.42584 0.57249 0.69069 0.0
C1321 C 0.43434 0.6046 0.69748 0.0
C1322 C 0.4294 0.61939 0.68152 0.0
C1323 C 0.34765 0.70822 0.67192 0.0
C1324 C 0.33163 0.70276 0.69859 0.0
C1325 C 0.36417 0.69211 0.65559 0.0
C1326 C 0.36635 0.66789 0.66349 0.0
C1327 C 0.35048 0.66274 0.69044 0.0
C1328 C 0.33417 0.67918 0.70699 0.0
C1329 C 0.38461 0.64908 0.64488 0.0
C1330 C 0.39438 0.63467 0.65718 0.0
C1331 C 0.39275 0.64407 0.61446 0.0
C1332 C 0.38262 0.65377 0.59691 0.0
C1333 C 0.3996 0.67464 0.5795 0.0
C1334 C 0.38996 0.68359 0.56273 0.0
C1335 C 0.36338 0.67163 0.56305 0.0
C1336 C 0.34639 0.65061 0.58007 0.0
C1337 C 0.35593 0.64156 0.59686 0.0
H1338 H 0.35596 0.6786 0.55006 0.0
H1339 H 0.4297 0.5611 0.70306 0.0
H1340 H 0.58158 0.09258 0.9554 0.0
H1341 H 0.62128 0.12637 0.9309 0.0
H1342 H 0.66007 0.07233 0.9343 0.0
H1343 H 0.61945 0.03694 0.95691 0.0
H1344 H 0.66473 0.16347 0.94398 0.0
H1345 H 0.71275 0.08316 0.88092 0.0
H1346 H 0.70292 0.02765 0.86298 0.0
H1347 H 0.6263 0.00973 0.85544 0.0
H1348 H 0.63582 0.06518 0.87296 0.0
H1349 H 0.75868 0.25395 0.84703 0.0
H1350 H 0.74357 0.22171 0.88216 0.0
H1351 H 0.69121 0.14709 0.82793 0.0
H1352 H 0.70707 0.17843 0.79271 0.0
H1353 H 0.70829 0.12346 0.85255 0.0
H1354 H 0.67429 0.20423 0.88413 0.0
H1355 H 0.67971 0.25854 0.8994 0.0
H1356 H 0.72037 0.27276 0.96501 0.0
H1357 H 0.71532 0.21856 0.94992 0.0
C1358 C 0.59856 0.08784 0.95065 0.0
C1359 C 0.59755 0.06214 0.95759 0.0
C1360 C 0.62133 0.10727 0.9369 0.0
C1361 C 0.64379 0.10193 0.93058 0.0
C1362 C 0.64296 0.07662 0.93834 0.0
C1363 C 0.61981 0.05647 0.95125 0.0
C1364 C 0.6674 0.12269 0.91506 0.0
C1365 C 0.67445 0.15467 0.92412 0.0
C1366 C 0.6808 0.11149 0.8896 0.0
C1367 C 0.67487 0.07819 0.87868 0.0
C1368 C 0.69382 0.06735 0.8754 0.0
C1369 C 0.68831 0.03592 0.86529 0.0
C1370 C 0.66394 0.01516 0.85827 0.0
C1371 C 0.64512 0.02582 0.86104 0.0
C1372 C 0.65056 0.05724 0.87104 0.0
C1373 C 0.74401 0.2306 0.84279 0.0
C1374 C 0.73362 0.21872 0.81755 0.0
C1375 C 0.73551 0.21218 0.8627 0.0
C1376 C 0.71603 0.18205 0.85784 0.0
C1377 C 0.70637 0.17011 0.83216 0.0
C1378 C 0.7152 0.18817 0.81216 0.0
C1379 C 0.70336 0.1636 0.88008 0.0
C1380 C 0.69902 0.13226 0.87275 0.0
C1381 C 0.6917 0.17513 0.90668 0.0
C1382 C 0.69474 0.2076 0.9157 0.0
C1383 C 0.68449 0.21904 0.90171 0.0
C1384 C 0.68748 0.24976 0.91034 0.0
C1385 C 0.70046 0.26912 0.9331 0.0
C1386 C 0.71039 0.25776 0.94733 0.0
C1387 C 0.70748 0.22707 0.93876 0.0
H1388 H 0.70276 0.29289 0.93975 0.0
H1389 H 0.65965 0.99082 0.85066 0.0
H1390 H 0.10811 0.47175 0.11931 0.0
H1391 H 0.13475 0.45366 0.13294 0.0
H1392 H 0.08639 0.35949 0.09842 0.0
H1393 H 0.05989 0.37751 0.08474 0.0
H1394 H 0.09334 0.36355 0.14894 0.0
H1395 H 0.14896 0.3954 0.0652 0.0
H1396 H 0.17547 0.42971 0.03168 0.0
H1397 H 0.22128 0.49495 0.09535 0.0
H1398 H 0.19517 0.46086 0.1292 0.0
H1399 H 0.17147 0.28932 0.14648 0.0
H1400 H 0.14951 0.31208 0.13143 0.0
H1401 H 0.19071 0.40072 0.18203 0.0
H1402 H 0.21216 0.37792 0.19823 0.0
H1403 H 0.18851 0.40153 0.125 0.0
H1404 H 0.13231 0.36397 0.20733 0.0
H1405 H 0.10705 0.32478 0.23654 0.0
H1406 H 0.06164 0.26602 0.17069 0.0
H1407 H 0.0869 0.30468 0.14091 0.0
C1408 C 0.10346 0.44724 0.11429 0.0
C1409 C 0.08196 0.42604 0.10098 0.0
C1410 C 0.11868 0.43692 0.12205 0.0
C1411 C 0.11269 0.40518 0.11658 0.0
C1412 C 0.09137 0.38406 0.10297 0.0
C1413 C 0.07619 0.39437 0.09524 0.0
C1414 C 0.12761 0.39374 0.12641 0.0
C1415 C 0.11412 0.37166 0.14339 0.0
C1416 C 0.15479 0.40466 0.11971 0.0
C1417 C 0.16997 0.42573 0.09979 0.0
C1418 C 0.16456 0.41718 0.07212 0.0
C1419 C 0.1796 0.43649 0.05301 0.0
C1420 C 0.20001 0.46451 0.0614 0.0
C1421 C 0.20546 0.47324 0.08889 0.0
C1422 C 0.19062 0.45388 0.10801 0.0
C1423 C 0.17568 0.31357 0.15482 0.0
C1424 C 0.19343 0.33162 0.17392 0.0
C1425 C 0.16324 0.32659 0.14595 0.0
C1426 C 0.16838 0.35803 0.15575 0.0
C1427 C 0.18654 0.37641 0.17417 0.0
C1428 C 0.19884 0.36331 0.18333 0.0
C1429 C 0.15415 0.37129 0.14723 0.0
C1430 C 0.16775 0.39368 0.13061 0.0
C1431 C 0.127 0.36027 0.15383 0.0
C1432 C 0.11165 0.33711 0.1718 0.0
C1433 C 0.11708 0.34258 0.19899 0.0
C1434 C 0.10273 0.32049 0.21567 0.0
C1435 C 0.08279 0.2929 0.20545 0.0
C1436 C 0.07711 0.28739 0.17857 0.0
C1437 C 0.09142 0.3094 0.16179 0.0
H1438 H 0.07171 0.27581 0.21839 0.0
H1439 H 0.21161 0.47944 0.04658 0.0
H1440 H 0.6043 0.5188 0.92332 0.0
H1441 H 0.63546 0.55708 0.89557 0.0
H1442 H 0.59902 0.61931 0.94073 0.0
H1443 H 0.56953 0.58216 0.9701 0.0
H1444 H 0.63507 0.58047 0.86 0.0
H1445 H 0.63708 0.69309 0.94241 0.0
H1446 H 0.63416 0.71222 0.99399 0.0
H1447 H 0.65919 0.64639 1.00054 0.0
H1448 H 0.66262 0.62716 0.94898 0.0
H1449 H 0.68304 0.69627 0.78503 0.0
H1450 H 0.65718 0.66181 0.81773 0.0
H1451 H 0.71786 0.70758 0.8691 0.0
H1452 H 0.74313 0.74366 0.83719 0.0
H1453 H 0.67556 0.69224 0.9023 0.0
H1454 H 0.70832 0.63648 0.82093 0.0
H1455 H 0.719 0.61648 0.77021 0.0
H1456 H 0.63842 0.56639 0.76363 0.0
H1457 H 0.62723 0.58656 0.81422 0.0
C1458 C 0.60312 0.54078 0.92741 0.0
C1459 C 0.58451 0.54753 0.94889 0.0
C1460 C 0.6209 0.56269 0.91145 0.0
C1461 C 0.6201 0.59159 0.91617 0.0
C1462 C 0.60085 0.59781 0.93712 0.0
C1463 C 0.58367 0.57633 0.9537 0.0
C1464 C 0.63889 0.61482 0.89879 0.0
C1465 C 0.64394 0.60485 0.8694 0.0
C1466 C 0.65147 0.64669 0.91083 0.0
C1467 C 0.64987 0.65851 0.94183 0.0
C1468 C 0.64209 0.68281 0.95483 0.0
C1469 C 0.64032 0.69364 0.98408 0.0
C1470 C 0.64641 0.68046 1.00054 0.0
C1471 C 0.6544 0.65651 0.98778 0.0
C1472 C 0.65624 0.64562 0.95855 0.0
C1473 C 0.69077 0.69923 0.80347 0.0
C1474 C 0.71531 0.72231 0.8083 0.0
C1475 C 0.67605 0.6793 0.82207 0.0
C1476 C 0.68582 0.68128 0.8455 0.0
C1477 C 0.70992 0.70526 0.85106 0.0
C1478 C 0.72444 0.72577 0.83273 0.0
C1479 C 0.67099 0.65786 0.86362 0.0
C1480 C 0.66677 0.66779 0.89306 0.0
C1481 C 0.66037 0.62574 0.85181 0.0
C1482 C 0.66693 0.61325 0.82137 0.0
C1483 C 0.69286 0.62136 0.80864 0.0
C1484 C 0.69901 0.60998 0.77991 0.0
C1485 C 0.6794 0.59021 0.7637 0.0
C1486 C 0.65359 0.58173 0.77621 0.0
C1487 C 0.64733 0.59312 0.80493 0.0
H1488 H 0.68419 0.58142 0.74146 0.0
H1489 H 0.64498 0.68885 0.02317 0.0
H1490 H 0.71103 0.36322 0.19922 0.0
H1491 H 0.6881 0.38519 0.18438 0.0
H1492 H 0.72529 0.36785 0.0986 0.0
H1493 H 0.74787 0.34536 0.11307 0.0
H1494 H 0.72473 0.42553 0.11443 0.0
H1495 H 0.66449 0.31999 0.11834 0.0
H1496 H 0.63917 0.27573 0.14175 0.0
H1497 H 0.60082 0.32787 0.20439 0.0
H1498 H 0.6262 0.37261 0.18155 0.0
H1499 H 0.6452 0.42706 0.0327 0.0
H1500 H 0.67061 0.41561 0.05518 0.0
H1501 H 0.62283 0.42835 0.13531 0.0
H1502 H 0.59663 0.43866 0.11268 0.0
H1503 H 0.62912 0.37745 0.12714 0.0
H1504 H 0.68628 0.48163 0.12156 0.0
H1505 H 0.71205 0.52675 0.09934 0.0
H1506 H 0.75646 0.47913 0.04151 0.0
H1507 H 0.73082 0.4336 0.06322 0.0
C1508 C 0.71421 0.36386 0.17716 0.0
C1509 C 0.7313 0.35241 0.15735 0.0
C1510 C 0.70118 0.37659 0.16873 0.0
C1511 C 0.7049 0.37806 0.14033 0.0
C1512 C 0.72224 0.36715 0.12064 0.0
C1513 C 0.73519 0.35435 0.129 0.0
C1514 C 0.6902 0.39001 0.13079 0.0
C1515 C 0.70383 0.41491 0.11701 0.0
C1516 C 0.66292 0.37674 0.13489 0.0
C1517 C 0.64742 0.34974 0.14841 0.0
C1518 C 0.65078 0.32208 0.13722 0.0
C1519 C 0.6364 0.2969 0.15036 0.0
C1520 C 0.61844 0.29901 0.17458 0.0
C1521 C 0.61476 0.32628 0.18565 0.0
C1522 C 0.62912 0.35155 0.17261 0.0
C1523 C 0.64004 0.42742 0.05511 0.0
C1524 C 0.61876 0.43367 0.07082 0.0
C1525 C 0.65482 0.42123 0.06804 0.0
C1526 C 0.64887 0.42144 0.09706 0.0
C1527 C 0.6279 0.42817 0.11292 0.0
C1528 C 0.61305 0.43431 0.09998 0.0
C1529 C 0.66362 0.41282 0.11035 0.0
C1530 C 0.65 0.38844 0.12482 0.0
C1531 C 0.69093 0.42672 0.10701 0.0
C1532 C 0.70643 0.45406 0.09385 0.0
C1533 C 0.70139 0.48067 0.10394 0.0
C1534 C 0.716 0.50633 0.09146 0.0
C1535 C 0.73574 0.5057 0.06889 0.0
C1536 C 0.74104 0.47949 0.05888 0.0
C1537 C 0.72654 0.45379 0.07134 0.0
H1538 H 0.74705 0.52561 0.05929 0.0
H1539 H 0.60733 0.2795 0.18473 0.0
H1540 H 0.95095 0.42336 0.47176 0.0
H1541 H 0.92388 0.3905 0.43521 0.0
H1542 H 0.97114 0.45528 0.38079 0.0
H1543 H 0.99703 0.48913 0.41821 0.0
H1544 H 0.92604 0.44072 0.37702 0.0
H1545 H 0.9699 0.37924 0.37187 0.0
H1546 H 0.98614 0.35051 0.3884 0.0
H1547 H 0.90852 0.28925 0.41475 0.0
H1548 H 0.89177 0.31812 0.3991 0.0
H1549 H 0.87167 0.33232 0.25353 0.0
H1550 H 0.90276 0.36114 0.28696 0.0
H1551 H 0.84184 0.33135 0.35552 0.0
H1552 H 0.81054 0.30371 0.32251 0.0
H1553 H 0.89493 0.3267 0.34937 0.0
H1554 H 0.85347 0.39468 0.35657 0.0
H1555 H 0.83984 0.42279 0.33576 0.0
H1556 H 0.91829 0.47082 0.29954 0.0
H1557 H 0.93231 0.4426 0.31981 0.0
C1558 C 0.95567 0.43035 0.45185 0.0
C1559 C 0.97604 0.45874 0.44773 0.0
C1560 C 0.94029 0.41144 0.43083 0.0
C1561 C 0.94554 0.42002 0.40487 0.0
C1562 C 0.9665 0.44805 0.40056 0.0
C1563 C 0.98139 0.46735 0.42188 0.0
C1564 C 0.92836 0.40092 0.38293 0.0
C1565 C 0.91971 0.41585 0.37077 0.0
C1566 C 0.91959 0.36829 0.37474 0.0
C1567 C 0.92958 0.35108 0.38455 0.0
C1568 C 0.95628 0.35987 0.38148 0.0
C1569 C 0.96558 0.34355 0.39071 0.0
C1570 C 0.94837 0.31817 0.40276 0.0
C1571 C 0.92182 0.30903 0.40557 0.0
C1572 C 0.91242 0.32537 0.39654 0.0
C1573 C 0.86494 0.33189 0.27572 0.0
C1574 C 0.83869 0.31574 0.28543 0.0
C1575 C 0.88269 0.34826 0.29473 0.0
C1576 C 0.87454 0.34818 0.32361 0.0
C1577 C 0.84848 0.33148 0.33326 0.0
C1578 C 0.83064 0.31574 0.31439 0.0
C1579 C 0.89297 0.3667 0.34399 0.0
C1580 C 0.90166 0.35162 0.35573 0.0
C1581 C 0.90228 0.39919 0.35138 0.0
C1582 C 0.89388 0.41627 0.33938 0.0
C1583 C 0.86777 0.41099 0.34392 0.0
C1584 C 0.85998 0.427 0.33228 0.0
C1585 C 0.87818 0.4485 0.31625 0.0
C1586 C 0.90421 0.45411 0.31191 0.0
C1587 C 0.91208 0.43814 0.32347 0.0
H1588 H 0.87211 0.46088 0.30727 0.0
H1589 H 0.95561 0.30552 0.40983 0.0
H1590 H 0.57918 0.55053 0.44363 0.0
H1591 H 0.61268 0.58808 0.41677 0.0
H1592 H 0.63226 0.65491 0.49412 0.0
H1593 H 0.598 0.61734 0.52131 0.0
H1594 H 0.63428 0.68196 0.45269 0.0
H1595 H 0.66965 0.61731 0.4615 0.0
H1596 H 0.67044 0.56808 0.46084 0.0
H1597 H 0.66592 0.53891 0.3722 0.0
H1598 H 0.6647 0.58777 0.37239 0.0
H1599 H 0.74803 0.76249 0.35703 0.0
H1600 H 0.72089 0.74015 0.39813 0.0
H1601 H 0.68009 0.6555 0.34236 0.0
H1602 H 0.70685 0.6772 0.30172 0.0
H1603 H 0.69651 0.64532 0.38251 0.0
H1604 H 0.6541 0.70821 0.37751 0.0
H1605 H 0.65341 0.75793 0.37956 0.0
H1606 H 0.67376 0.79203 0.46291 0.0
H1607 H 0.67478 0.7426 0.46123 0.0
C1608 C 0.59046 0.57329 0.45496 0.0
C1609 C 0.5862 0.58094 0.48455 0.0
C1610 C 0.60967 0.59471 0.43959 0.0
C1611 C 0.62535 0.62407 0.45347 0.0
C1612 C 0.62049 0.6323 0.48302 0.0
C1613 C 0.60101 0.61084 0.4985 0.0
C1614 C 0.64728 0.64529 0.43671 0.0
C1615 C 0.64823 0.67427 0.43772 0.0
C1616 C 0.66568 0.63541 0.41741 0.0
C1617 C 0.66698 0.60621 0.417 0.0
C1618 C 0.66872 0.60035 0.44188 0.0
C1619 C 0.66924 0.5725 0.44159 0.0
C1620 C 0.6682 0.55037 0.4165 0.0
C1621 C 0.66673 0.55608 0.39162 0.0
C1622 C 0.66617 0.58389 0.3918 0.0
C1623 C 0.7331 0.73922 0.35362 0.0
C1624 C 0.72971 0.72157 0.32609 0.0
C1625 C 0.71764 0.72652 0.37709 0.0
C1626 C 0.69854 0.69611 0.37326 0.0
C1627 C 0.69485 0.67889 0.34582 0.0
C1628 C 0.7102 0.69142 0.32255 0.0
C1629 C 0.68256 0.68113 0.39732 0.0
C1630 C 0.6829 0.65334 0.39786 0.0
C1631 C 0.66565 0.69232 0.41814 0.0
C1632 C 0.6648 0.72187 0.41912 0.0
C1633 C 0.6586 0.7264 0.39619 0.0
C1634 C 0.6581 0.75451 0.39731 0.0
C1635 C 0.66359 0.77817 0.42133 0.0
C1636 C 0.66952 0.77372 0.44431 0.0
C1637 C 0.67004 0.74566 0.4433 0.0
H1638 H 0.66321 0.79992 0.42216 0.0
H1639 H 0.66856 0.52879 0.41633 0.0
H1640 H 0.84822 0.3301 0.77932 0.0
H1641 H 0.88176 0.35736 0.80958 0.0
H1642 H 0.84974 0.27928 0.84937 0.0
H1643 H 0.81714 0.25143 0.81817 0.0
H1644 H 0.87984 0.37754 0.86255 0.0
H1645 H 0.89339 0.27566 0.87709 0.0
H1646 H 0.8893 0.22338 0.8511 0.0
H1647 H 0.90622 0.2508 0.77239 0.0
H1648 H 0.9107 0.30334 0.7979 0.0
H1649 H 0.93472 0.41348 0.98385 0.0
H1650 H 0.90802 0.38601 0.94642 0.0
H1651 H 0.97581 0.39149 0.88468 0.0
H1652 H 1.0029 0.41958 0.92228 0.0
H1653 H 0.93244 0.33139 0.87854 0.0
H1654 H 0.95247 0.43767 0.88583 0.0
H1655 H 0.95665 0.49017 0.91002 0.0
H1656 H 0.87557 0.4555 0.94132 0.0
H1657 H 0.87085 0.40244 0.9174 0.0
C1658 C 0.84855 0.31865 0.79429 0.0
C1659 C 0.83022 0.28851 0.79614 0.0
C1660 C 0.8677 0.33427 0.81166 0.0
C1661 C 0.86868 0.32027 0.83153 0.0
C1662 C 0.85003 0.29032 0.83368 0.0
C1663 C 0.83126 0.27445 0.81591 0.0
C1664 C 0.88849 0.33751 0.85076 0.0
C1665 C 0.89138 0.36738 0.86584 0.0
C1666 C 0.90381 0.32453 0.85509 0.0
C1667 C 0.90222 0.29339 0.83944 0.0
C1668 C 0.89644 0.2706 0.85423 0.0
C1669 C 0.89399 0.2409 0.83959 0.0
C1670 C 0.89741 0.23374 0.81012 0.0
C1671 C 0.90349 0.25634 0.79522 0.0
C1672 C 0.90598 0.28609 0.80977 0.0
C1673 C 0.94399 0.4087 0.96234 0.0
C1674 C 0.9709 0.41859 0.95596 0.0
C1675 C 0.92869 0.39308 0.94097 0.0
C1676 C 0.93993 0.38677 0.91279 0.0
C1677 C 0.96678 0.39608 0.90633 0.0
C1678 C 0.9822 0.41215 0.92776 0.0
C1679 C 0.92343 0.37104 0.89024 0.0
C1680 C 0.92104 0.34148 0.87484 0.0
C1681 C 0.90869 0.38431 0.88536 0.0
C1682 C 0.91136 0.41606 0.9 0.0
C1683 C 0.93555 0.44117 0.89806 0.0
C1684 C 0.93801 0.47107 0.91168 0.0
C1685 C 0.91644 0.47628 0.92724 0.0
C1686 C 0.89229 0.45147 0.92922 0.0
C1687 C 0.88969 0.42145 0.9156 0.0
H1688 H 0.91846 0.49952 0.93776 0.0
H1689 H 0.89538 0.2107 0.79883 0.0
H1690 H 0.8522 0.83741 0.20145 0.0
H1691 H 0.88434 0.85741 0.1625 0.0
H1692 H 0.86205 0.76536 0.11083 0.0
H1693 H 0.82915 0.74492 0.14999 0.0
H1694 H 0.92606 0.84715 0.13386 0.0
H1695 H 0.87246 0.774 0.04112 0.0
H1696 H 0.82821 0.74008 0.03088 0.0
H1697 H 0.79829 0.79372 0.10292 0.0
H1698 H 0.84236 0.82819 0.11324 0.0
H1699 H 0.97077 0.89363 0.98535 0.0
H1700 H 0.94557 0.85353 0.01341 0.0
H1701 H 0.94798 0.92427 0.08896 0.0
H1702 H 0.97319 0.96407 0.06131 0.0
H1703 H 0.89876 0.84019 0.04607 0.0
H1704 H 0.95351 0.90501 0.14356 0.0
H1705 H 0.99808 0.93855 0.15266 0.0
H1706 H 0.02735 0.90103 0.06926 0.0
H1707 H 0.98298 0.86685 0.05976 0.0
C1708 C 0.85403 0.82125 0.18188 0.0
C1709 C 0.83796 0.78953 0.17883 0.0
C1710 C 0.8726 0.83277 0.15963 0.0
C1711 C 0.87562 0.81294 0.13373 0.0
C1712 C 0.85991 0.78112 0.13059 0.0
C1713 C 0.84112 0.7695 0.15296 0.0
C1714 C 0.89458 0.8265 0.11009 0.0
C1715 C 0.92016 0.8456 0.11461 0.0
C1716 C 0.88718 0.82336 0.08442 0.0
C1717 C 0.86063 0.80336 0.07813 0.0
C1718 C 0.85642 0.77858 0.05468 0.0
C1719 C 0.83138 0.75927 0.04886 0.0
C1720 C 0.81044 0.76466 0.06628 0.0
C1721 C 0.8145 0.78949 0.08946 0.0
C1722 C 0.8395 0.80892 0.09531 0.0
C1723 C 0.96592 0.90049 0.00796 0.0
C1724 C 0.97396 0.93189 0.02121 0.0
C1725 C 0.95158 0.87763 0.02392 0.0
C1726 C 0.94531 0.88594 0.05331 0.0
C1727 C 0.9531 0.91732 0.0664 0.0
C1728 C 0.96736 0.94006 0.05055 0.0
C1729 C 0.92979 0.86224 0.07066 0.0
C1730 C 0.90496 0.84114 0.0649 0.0
C1731 C 0.93797 0.86335 0.09511 0.0
C1732 C 0.96481 0.88338 0.10092 0.0
C1733 C 0.96942 0.90369 0.12722 0.0
C1734 C 0.99467 0.92287 0.13243 0.0
C1735 C 1.01552 0.92193 0.11155 0.0
C1736 C 1.01117 0.90177 0.0854 0.0
C1737 C 0.98597 0.8825 0.08009 0.0
H1738 H 0.03503 0.93678 0.11565 0.0
H1739 H 0.79109 0.74961 0.06174 0.0
H1740 H 0.82743 0.08678 0.77789 0.0
H1741 H 0.84997 0.07281 0.80171 0.0
H1742 H 0.86399 0.15802 0.86373 0.0
H1743 H 0.84264 0.17316 0.83889 0.0
H1744 H 0.90608 0.14481 0.84789 0.0
H1745 H 0.81577 0.08843 0.88325 0.0
H1746 H 0.7708 0.05647 0.87456 0.0
H1747 H 0.79349 0.98654 0.817 0.0
H1748 H 0.83837 0.01768 0.82596 0.0
H1749 H 0.94604 0.09363 0.93733 0.0
H1750 H 0.92105 0.1113 0.9205 0.0
H1751 H 0.9023 0.02972 0.8539 0.0
H1752 H 0.92724 0.01195 0.87053 0.0
H1753 H 0.86101 0.04334 0.87623 0.0
H1754 H 0.95054 0.098 0.84128 0.0
H1755 H 0.99641 0.13095 0.84517 0.0
H1756 H 0.97679 0.2053 0.8977 0.0
H1757 H 0.93073 0.1726 0.89445 0.0
C1758 C 0.8356 0.10287 0.79634 0.0
C1759 C 0.83313 0.13112 0.80644 0.0
C1760 C 0.84819 0.09459 0.81022 0.0
C1761 C 0.85815 0.11399 0.83493 0.0
C1762 C 0.85621 0.14251 0.84487 0.0
C1763 C 0.84378 0.15099 0.83079 0.0
C1764 C 0.87048 0.1042 0.85021 0.0
C1765 C 0.89608 0.12294 0.85465 0.0
C1766 C 0.85765 0.07538 0.8585 0.0
C1767 C 0.83033 0.05532 0.85527 0.0
C1768 C 0.81104 0.06603 0.86904 0.0
C1769 C 0.78559 0.04806 0.86409 0.0
C1770 C 0.7793 0.0195 0.84525 0.0
C1771 C 0.79833 0.00854 0.83176 0.0
C1772 C 0.82373 0.02621 0.83695 0.0
C1773 C 0.93659 0.07945 0.91909 0.0
C1774 C 0.93886 0.05149 0.90512 0.0
C1775 C 0.92226 0.08955 0.90954 0.0
C1776 C 0.91008 0.07205 0.88568 0.0
C1777 C 0.91151 0.04361 0.87235 0.0
C1778 C 0.92575 0.03344 0.88194 0.0
C1779 C 0.89677 0.08388 0.87383 0.0
C1780 C 0.87095 0.06546 0.86998 0.0
C1781 C 0.9095 0.113 0.86601 0.0
C1782 C 0.93717 0.13274 0.8679 0.0
C1783 C 0.95599 0.12129 0.85385 0.0
C1784 C 0.98203 0.13993 0.85591 0.0
C1785 C 0.98951 0.17017 0.87175 0.0
C1786 C 0.97097 0.18185 0.88549 0.0
C1787 C 0.94489 0.16328 0.88354 0.0
H1788 H 1.00967 0.18457 0.87331 0.0
H1789 H 0.75972 0.00594 0.84103 0.0
H1790 H 0.68036 0.1481 0.72615 0.0
H1791 H 0.64312 0.12032 0.70114 0.0
H1792 H 0.67789 0.18677 0.64745 0.0
H1793 H 0.71425 0.21562 0.67371 0.0
H1794 H 0.63148 0.17604 0.65939 0.0
H1795 H 0.67468 0.1075 0.62806 0.0
H1796 H 0.69326 0.07369 0.63184 0.0
H1797 H 0.61997 0.01699 0.67255 0.0
H1798 H 0.60094 0.05045 0.66907 0.0
H1799 H 0.57169 0.08519 0.53774 0.0
H1800 H 0.6008 0.11368 0.57282 0.0
H1801 H 0.54401 0.06116 0.63316 0.0
H1802 H 0.5141 0.03351 0.59835 0.0
H1803 H 0.59644 0.06273 0.62268 0.0
H1804 H 0.55347 0.13049 0.64746 0.0
H1805 H 0.5364 0.16319 0.63845 0.0
H1806 H 0.61254 0.22084 0.60409 0.0
H1807 H 0.63004 0.1883 0.61259 0.0
C1808 C 0.68 0.1567 0.70897 0.0
C1809 C 0.70018 0.18397 0.70182 0.0
C1810 C 0.65878 0.14066 0.69451 0.0
C1811 C 0.65774 0.15097 0.67193 0.0
C1812 C 0.67805 0.17824 0.66478 0.0
C1813 C 0.6989 0.19474 0.67975 0.0
C1814 C 0.63531 0.13409 0.65618 0.0
C1815 C 0.62412 0.15129 0.65114 0.0
C1816 C 0.62492 0.10157 0.64606 0.0
C1817 C 0.63649 0.08179 0.64869 0.0
C1818 C 0.66259 0.08799 0.63806 0.0
C1819 C 0.67316 0.06879 0.64003 0.0
C1820 C 0.6578 0.04321 0.65244 0.0
C1821 C 0.63182 0.03676 0.66289 0.0
C1822 C 0.62113 0.05583 0.66091 0.0
C1823 C 0.56518 0.08 0.55861 0.0
C1824 C 0.5408 0.05665 0.56518 0.0
C1825 C 0.58185 0.09631 0.57861 0.0
C1826 C 0.57457 0.0894 0.60548 0.0
C1827 C 0.54998 0.06667 0.61244 0.0
C1828 C 0.53302 0.05076 0.59254 0.0
C1829 C 0.59345 0.10491 0.62544 0.0
C1830 C 0.60384 0.08743 0.63127 0.0
C1831 C 0.60353 0.1372 0.63571 0.0
C1832 C 0.59303 0.15677 0.63046 0.0
C1833 C 0.56655 0.14997 0.63775 0.0
C1834 C 0.5568 0.16853 0.63279 0.0
C1835 C 0.57337 0.19405 0.62066 0.0
C1836 C 0.59973 0.20107 0.61348 0.0
C1837 C 0.60958 0.1826 0.61841 0.0
H1838 H 0.56581 0.20842 0.61689 0.0
H1839 H 0.666 0.02834 0.65391 0.0
H1840 H 0.58379 0.98908 0.53208 0.0
H1841 H 0.62474 0.98424 0.51525 0.0
H1842 H 0.61399 0.96702 0.42918 0.0
H1843 H 0.57305 0.97212 0.4458 0.0
H1844 H 0.63026 0.93343 0.48517 0.0
H1845 H 0.6715 0.99159 0.38761 0.0
H1846 H 0.67432 0.03692 0.37437 0.0
H1847 H 0.66677 0.08172 0.46174 0.0
H1848 H 0.6643 0.03689 0.47551 0.0
H1849 H 0.69737 0.86228 0.37554 0.0
H1850 H 0.66976 0.88669 0.40682 0.0
H1851 H 0.73629 0.97307 0.42179 0.0
H1852 H 0.76406 0.94912 0.38893 0.0
H1853 H 0.69974 0.9825 0.41163 0.0
H1854 H 0.70335 0.92929 0.47336 0.0
H1855 H 0.70178 0.88481 0.48693 0.0
H1856 H 0.62239 0.8339 0.47532 0.0
H1857 H 0.62356 0.87782 0.46121 0.0
C1858 C 0.59025 0.98464 0.50955 0.0
C1859 C 0.57506 0.98069 0.49021 0.0
C1860 C 0.61369 0.98194 0.50002 0.0
C1861 C 0.62243 0.97544 0.47103 0.0
C1862 C 0.60776 0.97253 0.45168 0.0
C1863 C 0.58429 0.97524 0.46119 0.0
C1864 C 0.64551 0.96865 0.46084 0.0
C1865 C 0.64565 0.94439 0.46935 0.0
C1866 C 0.66583 0.98351 0.44074 0.0
C1867 C 0.66756 0.01074 0.43259 0.0
C1868 C 0.67059 0.01118 0.404 0.0
C1869 C 0.6721 0.03678 0.3964 0.0
C1870 C 0.67067 0.06216 0.4172 0.0
C1871 C 0.66779 0.06201 0.44565 0.0
C1872 C 0.6663 0.03648 0.45336 0.0
C1873 C 0.70617 0.88652 0.38534 0.0
C1874 C 0.73288 0.90385 0.37956 0.0
C1875 C 0.69039 0.90034 0.40359 0.0
C1876 C 0.70102 0.93158 0.417 0.0
C1877 C 0.72775 0.94886 0.41177 0.0
C1878 C 0.74358 0.9351 0.39319 0.0
C1879 C 0.6838 0.94633 0.43499 0.0
C1880 C 0.68473 0.97204 0.42796 0.0
C1881 C 0.66464 0.93308 0.45677 0.0
C1882 C 0.6636 0.90688 0.4661 0.0
C1883 C 0.68558 0.90857 0.47358 0.0
C1884 C 0.68478 0.88341 0.48131 0.0
C1885 C 0.66204 0.85649 0.48182 0.0
C1886 C 0.64 0.85474 0.47482 0.0
C1887 C 0.64071 0.87979 0.46701 0.0
H1888 H 0.66143 0.83709 0.48788 0.0
H1889 H 0.67183 0.08195 0.41127 0.0
H1890 H 0.85572 0.17166 0.3122 0.0
H1891 H 0.8814 0.1556 0.32975 0.0
H1892 H 0.82761 0.14682 0.40732 0.0
H1893 H 0.8026 0.16421 0.39054 0.0
H1894 H 0.87523 0.17585 0.41825 0.0
H1895 H 0.82896 0.08242 0.35455 0.0
H1896 H 0.81488 0.05201 0.30861 0.0
H1897 H 0.89373 0.07404 0.26979 0.0
H1898 H 0.90829 0.10477 0.3155 0.0
H1899 H 0.90792 0.08944 0.47694 0.0
H1900 H 0.88511 0.10483 0.45452 0.0
H1901 H 0.94497 0.11456 0.38206 0.0
H1902 H 0.96805 0.09933 0.40448 0.0
H1903 H 0.89744 0.0871 0.3663 0.0
H1904 H 0.94355 0.1774 0.43062 0.0
H1905 H 0.95793 0.20894 0.47613 0.0
H1906 H 0.87987 0.19455 0.51343 0.0
H1907 H 0.86494 0.16245 0.46826 0.0
C1908 C 0.84945 0.16651 0.33307 0.0
C1909 C 0.827 0.16914 0.3499 0.0
C1910 C 0.86401 0.157 0.34296 0.0
C1911 C 0.85629 0.14964 0.36976 0.0
C1912 C 0.83393 0.15227 0.38655 0.0
C1913 C 0.81947 0.16191 0.37677 0.0
C1914 C 0.87168 0.13987 0.38078 0.0
C1915 C 0.87979 0.15619 0.40705 0.0
C1916 C 0.87842 0.11488 0.36574 0.0
C1917 C 0.86971 0.09606 0.33837 0.0
C1918 C 0.84329 0.08088 0.33618 0.0
C1919 C 0.83523 0.06356 0.31021 0.0
C1920 C 0.8534 0.06111 0.2863 0.0
C1921 C 0.87968 0.07593 0.28834 0.0
C1922 C 0.88785 0.09325 0.31428 0.0
C1923 C 0.91629 0.09493 0.45626 0.0
C1924 C 0.93994 0.09342 0.44263 0.0
C1925 C 0.9032 0.10368 0.44344 0.0
C1926 C 0.91353 0.11134 0.41679 0.0
C1927 C 0.93666 0.10882 0.40265 0.0
C1928 C 0.94978 0.10001 0.41547 0.0
C1929 C 0.9004 0.12264 0.40411 0.0
C1930 C 0.89288 0.10676 0.3775 0.0
C1931 C 0.8942 0.1481 0.41881 0.0
C1932 C 0.9031 0.16724 0.4461 0.0
C1933 C 0.92941 0.1807 0.44859 0.0
C1934 C 0.93767 0.19872 0.47433 0.0
C1935 C 0.91982 0.20368 0.49768 0.0
C1936 C 0.89367 0.19065 0.49534 0.0
C1937 C 0.8853 0.17254 0.46967 0.0
H1938 H 0.92625 0.21767 0.51757 0.0
H1939 H 0.84712 0.0477 0.26621 0.0
H1940 H 0.73922 0.19101 0.18278 0.0
H1941 H 0.7065 0.16004 0.15173 0.0
H1942 H 0.64674 0.16338 0.22262 0.0
H1943 H 0.67941 0.19361 0.25387 0.0
H1944 H 0.63196 0.10797 0.19298 0.0
H1945 H 0.66383 0.20613 0.17216 0.0
H1946 H 0.69633 0.25584 0.16053 0.0
H1947 H 0.72316 0.20825 0.08109 0.0
H1948 H 0.69089 0.15814 0.09234 0.0
H1949 H 0.56706 0.07662 0.0614 0.0
H1950 H 0.59352 0.11251 0.09788 0.0
H1951 H 0.60516 0.03781 0.10998 0.0
H1952 H 0.5775 1.00174 0.07482 0.0
H1953 H 0.64007 0.1332 0.1018 0.0
H1954 H 0.61654 0.04851 0.17422 0.0
H1955 H 0.57945 0.00371 0.19028 0.0
H1956 H 0.52731 0.03293 0.17425 0.0
H1957 H 0.56405 0.07818 0.15853 0.0
C1958 C 0.71911 0.1852 0.1917 0.0
C1959 C 0.71184 0.19464 0.22073 0.0
C1960 C 0.7004 0.16763 0.17393 0.0
C1961 C 0.67409 0.15958 0.18474 0.0
C1962 C 0.66687 0.1692 0.21376 0.0
C1963 C 0.68556 0.18656 0.23158 0.0
C1964 C 0.65418 0.14053 0.16584 0.0
C1965 C 0.63368 0.11353 0.17308 0.0
C1966 C 0.65579 0.14831 0.14035 0.0
C1967 C 0.67507 0.17834 0.13321 0.0
C1968 C 0.67676 0.20624 0.15227 0.0
C1969 C 0.69514 0.2345 0.14575 0.0
C1970 C 0.71189 0.23522 0.12015 0.0
C1971 C 0.71019 0.20766 0.10094 0.0
C1972 C 0.69182 0.1793 0.10735 0.0
C1973 C 0.57502 0.06788 0.07219 0.0
C1974 C 0.5701 0.03641 0.06548 0.0
C1975 C 0.59026 0.08841 0.09293 0.0
C1976 C 0.60119 0.07796 0.10708 0.0
C1977 C 0.59644 0.04646 0.10007 0.0
C1978 C 0.58071 0.02582 0.07982 0.0
C1979 C 0.61818 0.10002 0.12851 0.0
C1980 C 0.63817 0.12765 0.12176 0.0
C1981 C 0.61536 0.09354 0.15508 0.0
C1982 C 0.5931 0.06662 0.16496 0.0
C1983 C 0.59716 0.04548 0.17427 0.0
C1984 C 0.57619 0.01999 0.18329 0.0
C1985 C 0.55104 0.01544 0.18322 0.0
C1986 C 0.5468 0.03644 0.17422 0.0
C1987 C 0.56769 0.062 0.16523 0.0
H1988 H 0.53484 0.99569 0.19021 0.0
H1989 H 0.72614 0.25714 0.11517 0.0
H1990 H 0.80787 0.87755 0.7744 0.0
H1991 H 0.80239 0.92541 0.79674 0.0
H1992 H 0.77075 0.89472 0.87558 0.0
H1993 H 0.77655 0.84703 0.85343 0.0
H1994 H 0.75401 0.91492 0.81037 0.0
H1995 H 0.76921 0.95349 0.93027 0.0
H1996 H 0.80451 0.96951 0.95663 0.0
H1997 H 0.85994 0.99003 0.88229 0.0
H1998 H 0.82511 0.97481 0.85555 0.0
H1999 H 0.64945 0.90127 0.91029 0.0
H2000 H 0.69254 0.9053 0.88789 0.0
H2001 H 0.71781 1.00226 0.89161 0.0
H2002 H 0.67406 0.99825 0.91329 0.0
H2003 H 0.75239 0.9764 0.90837 0.0
H2004 H 0.714 0.97518 0.83617 0.0
H2005 H 0.67874 0.95922 0.80994 0.0
H2006 H 0.67292 0.86629 0.7861 0.0
H2007 H 0.70739 0.88128 0.8133 0.0
C2008 C 0.80058 0.88151 0.79677 0.0
C2009 C 0.79179 0.85824 0.81205 0.0
C2010 C 0.79775 0.90903 0.80955 0.0
C2011 C 0.78587 0.91347 0.83768 0.0
C2012 C 0.78017 0.89194 0.85388 0.0
C2013 C 0.78322 0.86447 0.84114 0.0
C2014 C 0.77261 0.93447 0.84745 0.0
C2015 C 0.75416 0.92907 0.83153 0.0
C2016 C 0.77334 0.95376 0.87467 0.0
C2017 C 0.7944 0.96297 0.89083 0.0
C2018 C 0.78892 0.96171 0.91954 0.0
C2019 C 0.80888 0.97061 0.93457 0.0
C2020 C 0.83446 0.98083 0.92116 0.0
C2021 C 0.84013 0.98213 0.89266 0.0
C2022 C 0.82026 0.97333 0.87755 0.0
C2023 C 0.66403 0.92344 0.90621 0.0
C2024 C 0.65824 0.9493 0.9131 0.0
C2025 C 0.68869 0.92578 0.89374 0.0
C2026 C 0.70811 0.95402 0.88813 0.0
C2027 C 0.70293 0.98034 0.89598 0.0
C2028 C 0.67801 0.97796 0.90829 0.0
C2029 C 0.73294 0.95435 0.87203 0.0
C2030 C 0.75322 0.96345 0.88678 0.0
C2031 C 0.73417 0.93866 0.84353 0.0
C2032 C 0.71342 0.92945 0.82689 0.0
C2033 C 0.70512 0.95128 0.82557 0.0
C2034 C 0.68525 0.94239 0.81045 0.0
C2035 C 0.67376 0.91185 0.79607 0.0
C2036 C 0.68193 0.89001 0.79709 0.0
C2037 C 0.70162 0.89868 0.81244 0.0
H2038 H 0.65849 0.9051 0.78423 0.0
H2039 H 0.84989 0.98771 0.93283 0.0
H2040 H 0.96347 0.92913 0.53324 0.0
H2041 H 0.93609 0.89254 0.56418 0.0
H2042 H 0.94328 0.96845 0.63583 0.0
H2043 H 0.97023 0.00522 0.6049 0.0
H2044 H 0.95249 0.91787 0.64254 0.0
H2045 H 0.8902 0.93601 0.61224 0.0
H2046 H 0.86949 0.93734 0.57642 0.0
H2047 H 0.84967 0.84061 0.54246 0.0
H2048 H 0.87059 0.83881 0.57786 0.0
H2049 H 0.86048 0.84953 0.75007 0.0
H2050 H 0.88695 0.88134 0.71542 0.0
H2051 H 0.85581 0.80374 0.64831 0.0
H2052 H 0.82801 0.77215 0.68345 0.0
H2053 H 0.85992 0.85197 0.63592 0.0
H2054 H 0.91912 0.83059 0.66458 0.0
H2055 H 0.94123 0.82636 0.6973 0.0
H2056 H 0.96921 0.92424 0.73001 0.0
H2057 H 0.94697 0.92901 0.69775 0.0
C2058 C 0.95917 0.93801 0.55559 0.0
C2059 C 0.96889 0.97002 0.56669 0.0
C2060 C 0.9435 0.9171 0.5732 0.0
C2061 C 0.93759 0.92781 0.60226 0.0
C2062 C 0.9476 0.95974 0.61345 0.0
C2063 C 0.96291 0.98069 0.59577 0.0
C2064 C 0.92111 0.90574 0.62108 0.0
C2065 C 0.93217 0.90367 0.64136 0.0
C2066 C 0.89492 0.8863 0.61865 0.0
C2067 C 0.88222 0.88736 0.59749 0.0
C2068 C 0.88164 0.91509 0.59697 0.0
C2069 C 0.86981 0.91591 0.57678 0.0
C2070 C 0.85834 0.8891 0.55712 0.0
C2071 C 0.8586 0.86138 0.55767 0.0
C2072 C 0.87042 0.86044 0.5778 0.0
C2073 C 0.85934 0.83918 0.72792 0.0
C2074 C 0.84243 0.80828 0.7194 0.0
C2075 C 0.87463 0.85737 0.70804 0.0
C2076 C 0.87404 0.84484 0.67905 0.0
C2077 C 0.85682 0.81397 0.6705 0.0
C2078 C 0.84101 0.79589 0.69053 0.0
C2079 C 0.89112 0.86433 0.65798 0.0
C2080 C 0.88025 0.86592 0.63714 0.0
C2081 C 0.91772 0.88284 0.65945 0.0
C2082 C 0.9312 0.88011 0.67888 0.0
C2083 C 0.92984 0.85118 0.67888 0.0
C2084 C 0.94242 0.84869 0.69733 0.0
C2085 C 0.95657 0.875 0.71576 0.0
C2086 C 0.95822 0.90387 0.71573 0.0
C2087 C 0.94566 0.90649 0.69734 0.0
H2088 H 0.9663 0.87302 0.73003 0.0
H2089 H 0.8492 0.88978 0.5415 0.0
H2090 H 0.21682 0.82222 0.77264 0.0
H2091 H 0.18883 0.8486 0.79884 0.0
H2092 H 0.19345 0.8329 0.87614 0.0
H2093 H 0.22027 0.80465 0.84934 0.0
H2094 H 0.15484 0.84217 0.89518 0.0
H2095 H 0.21914 0.91583 0.83994 0.0
H2096 H 0.24533 0.9341 0.79648 0.0
H2097 H 0.1764 0.90519 0.76251 0.0
H2098 H 0.14983 0.88657 0.80571 0.0
H2099 H 0.09308 0.94801 0.98335 0.0
H2100 H 0.1206 0.92083 0.95661 0.0
H2101 H 0.10533 0.92355 0.87903 0.0
H2102 H 0.07806 0.95127 0.90595 0.0
H2103 H 0.14919 0.92131 0.86047 0.0
H2104 H 0.08525 0.85047 0.91823 0.0
H2105 H 0.06013 0.83416 0.96277 0.0
H2106 H 0.13016 0.86024 0.99333 0.0
H2107 H 0.15569 0.87694 0.94905 0.0
C2108 C 0.2123 0.82414 0.79528 0.0
C2109 C 0.2224 0.81001 0.80746 0.0
C2110 C 0.19582 0.84048 0.81119 0.0
C2111 C 0.18794 0.84563 0.84148 0.0
C2112 C 0.19793 0.83113 0.85354 0.0
C2113 C 0.21405 0.8143 0.83754 0.0
C2114 C 0.16977 0.86468 0.85989 0.0
C2115 C 0.1544 0.85964 0.88699 0.0
C2116 C 0.16677 0.88838 0.85171 0.0
C2117 C 0.18256 0.89952 0.82585 0.0
C2118 C 0.20961 0.9133 0.82314 0.0
C2119 C 0.2245 0.92371 0.79857 0.0
C2120 C 0.21253 0.92071 0.77671 0.0
C2121 C 0.18564 0.90742 0.77943 0.0
C2122 C 0.17065 0.89696 0.80394 0.0
C2123 C 0.0951 0.94299 0.96056 0.0
C2124 C 0.08178 0.95314 0.94824 0.0
C2125 C 0.11136 0.92641 0.94449 0.0
C2126 C 0.11628 0.91774 0.91406 0.0
C2127 C 0.10323 0.92836 0.9018 0.0
C2128 C 0.08688 0.94485 0.91788 0.0
C2129 C 0.13443 0.8988 0.89566 0.0
C2130 C 0.14972 0.90383 0.86859 0.0
C2131 C 0.13758 0.87537 0.90402 0.0
C2132 C 0.12236 0.86521 0.93048 0.0
C2133 C 0.09527 0.85282 0.93451 0.0
C2134 C 0.08097 0.84351 0.9597 0.0
C2135 C 0.09354 0.84625 0.9809 0.0
C2136 C 0.12045 0.85818 0.97691 0.0
C2137 C 0.13484 0.86755 0.95177 0.0
H2138 H 0.08244 0.83906 1.00039 0.0
H2139 H 0.22409 0.92874 0.75769 0.0
H2140 H 0.96442 0.39524 0.54048 0.0
H2141 H 0.9264 0.35696 0.56253 0.0
H2142 H 0.8932 0.42369 0.59855 0.0
H2143 H 0.93175 0.46259 0.57702 0.0
H2144 H 0.88706 0.39292 0.63622 0.0
H2145 H 0.87115 0.36476 0.54184 0.0
H2146 H 0.88116 0.35264 0.48993 0.0
H2147 H 0.89126 0.27379 0.49325 0.0
H2148 H 0.88178 0.28573 0.54521 0.0
H2149 H 0.77615 0.27597 0.68918 0.0
H2150 H 0.80028 0.31197 0.65718 0.0
H2151 H 0.85053 0.26469 0.62016 0.0
H2152 H 0.82637 0.22886 0.65244 0.0
H2153 H 0.84176 0.28764 0.58115 0.0
H2154 H 0.86553 0.32225 0.67509 0.0
H2155 H 0.85558 0.33384 0.72701 0.0
H2156 H 0.83071 0.40119 0.72381 0.0
H2157 H 0.83988 0.38937 0.67176 0.0
C2158 C 0.94904 0.40182 0.55308 0.0
C2159 C 0.951 0.43188 0.55698 0.0
C2160 C 0.92723 0.37983 0.56549 0.0
C2161 C 0.90671 0.38726 0.58158 0.0
C2162 C 0.90876 0.41744 0.58597 0.0
C2163 C 0.93079 0.43963 0.57377 0.0
C2164 C 0.88369 0.36365 0.59469 0.0
C2165 C 0.87674 0.37016 0.62407 0.0
C2166 C 0.87046 0.3338 0.57883 0.0
C2167 C 0.87586 0.32625 0.5475 0.0
C2168 C 0.87565 0.34493 0.53153 0.0
C2169 C 0.88123 0.33809 0.50209 0.0
C2170 C 0.88685 0.31248 0.48832 0.0
C2171 C 0.88688 0.29362 0.50396 0.0
C2172 C 0.88138 0.30039 0.53341 0.0
C2173 C 0.79225 0.27332 0.67405 0.0
C2174 C 0.80016 0.25067 0.67368 0.0
C2175 C 0.80576 0.2935 0.65559 0.0
C2176 C 0.82748 0.29131 0.63679 0.0
C2177 C 0.83385 0.26675 0.63463 0.0
C2178 C 0.82017 0.24642 0.65302 0.0
C2179 C 0.84567 0.31689 0.62254 0.0
C2180 C 0.85173 0.31068 0.59306 0.0
C2181 C 0.85809 0.34707 0.63824 0.0
C2182 C 0.85312 0.35469 0.66954 0.0
C2183 C 0.85776 0.33937 0.68545 0.0
C2184 C 0.85223 0.34595 0.7149 0.0
C2185 C 0.84242 0.36816 0.72871 0.0
C2186 C 0.83822 0.38391 0.71308 0.0
C2187 C 0.84354 0.37725 0.68361 0.0
H2188 H 0.83813 0.37321 0.75151 0.0
H2189 H 0.89112 0.30722 0.46554 0.0
H2190 H 0.45068 0.10325 0.45747 0.0
H2191 H 0.42837 0.1266 0.4437 0.0
H2192 H 0.40956 0.05191 0.37103 0.0
H2193 H 0.43014 0.02733 0.38567 0.0
H2194 H 0.43733 0.14964 0.40083 0.0
H2195 H 0.35447 0.03883 0.35176 0.0
H2196 H 0.32755 0.98565 0.35895 0.0
H2197 H 0.33964 0.01474 0.44539 0.0
H2198 H 0.36621 0.06823 0.43891 0.0
H2199 H 0.38858 0.19271 0.31578 0.0
H2200 H 0.40537 0.1652 0.33265 0.0
H2201 H 0.33522 0.13521 0.3918 0.0
H2202 H 0.31796 0.16153 0.37391 0.0
H2203 H 0.34987 0.09121 0.37367 0.0
H2204 H 0.39278 0.19887 0.41111 0.0
H2205 H 0.41781 0.25408 0.40976 0.0
H2206 H 0.48164 0.23495 0.35804 0.0
H2207 H 0.45685 0.17954 0.35876 0.0
C2208 C 0.44135 0.0914 0.43887 0.0
C2209 C 0.4423 0.06331 0.42273 0.0
C2210 C 0.42882 0.10502 0.43083 0.0
C2211 C 0.41705 0.09096 0.40642 0.0
C2212 C 0.41807 0.06302 0.39022 0.0
C2213 C 0.43025 0.04919 0.39843 0.0
C2214 C 0.4043 0.10586 0.39745 0.0
C2215 C 0.41818 0.13685 0.39498 0.0
C2216 C 0.37904 0.08949 0.3904 0.0
C2217 C 0.36251 0.05752 0.39475 0.0
C2218 C 0.35123 0.03394 0.37236 0.0
C2219 C 0.33604 0.00374 0.37632 0.0
C2220 C 0.33192 0.99683 0.40261 0.0
C2221 C 0.34287 0.02014 0.42504 0.0
C2222 C 0.358 0.05041 0.42123 0.0
C2223 C 0.37669 0.17992 0.33215 0.0
C2224 C 0.35206 0.17931 0.34366 0.0
C2225 C 0.38633 0.16439 0.34195 0.0
C2226 C 0.37187 0.14873 0.36407 0.0
C2227 C 0.34684 0.14718 0.37482 0.0
C2228 C 0.33697 0.1622 0.3646 0.0
C2229 C 0.38314 0.13479 0.37648 0.0
C2230 C 0.36898 0.10401 0.37961 0.0
C2231 C 0.4078 0.15167 0.38508 0.0
C2232 C 0.42287 0.18502 0.38481 0.0
C2233 C 0.4121 0.20642 0.39932 0.0
C2234 C 0.42625 0.23774 0.39868 0.0
C2235 C 0.45128 0.248 0.38377 0.0
C2236 C 0.46224 0.22696 0.36955 0.0
C2237 C 0.44816 0.1956 0.37009 0.0
H2238 H 0.4622 0.27226 0.38329 0.0
H2239 H 0.32022 0.97342 0.4056 0.0
H2240 H 0.5786 0.54067 0.08166 0.0
H2241 H 0.6082 0.57711 0.11474 0.0
H2242 H 0.60241 0.6529 0.09685 0.0
H2243 H 0.57301 0.61653 0.06324 0.0
H2244 H 0.65165 0.66512 0.0964 0.0
H2245 H 0.57231 0.6285 0.15943 0.0
H2246 H 0.53261 0.58865 0.17905 0.0
H2247 H 0.57777 0.55412 0.20178 0.0
H2248 H 0.61774 0.59353 0.18197 0.0
H2249 H 0.72434 0.77563 0.20364 0.0
H2250 H 0.69002 0.74375 0.1746 0.0
H2251 H 0.68275 0.66204 0.19565 0.0
H2252 H 0.71549 0.69409 0.22633 0.0
H2253 H 0.63805 0.65515 0.19522 0.0
H2254 H 0.71731 0.68919 0.12942 0.0
H2255 H 0.75705 0.72751 0.10793 0.0
H2256 H 0.71241 0.76531 0.08889 0.0
H2257 H 0.67248 0.72756 0.11062 0.0
C2258 C 0.58343 0.56505 0.08484 0.0
C2259 C 0.57331 0.57561 0.06979 0.0
C2260 C 0.60032 0.5859 0.10391 0.0
C2261 C 0.60733 0.61778 0.10859 0.0
C2262 C 0.59723 0.62841 0.09367 0.0
C2263 C 0.58032 0.60756 0.07453 0.0
C2264 C 0.62584 0.63998 0.12838 0.0
C2265 C 0.64852 0.66327 0.11815 0.0
C2266 C 0.62203 0.63718 0.15659 0.0
C2267 C 0.59802 0.61384 0.16903 0.0
C2268 C 0.57377 0.61232 0.16849 0.0
C2269 C 0.55122 0.58981 0.17966 0.0
C2270 C 0.55266 0.56882 0.1916 0.0
C2271 C 0.57668 0.57038 0.19251 0.0
C2272 C 0.59929 0.59283 0.18135 0.0
C2273 C 0.71529 0.75087 0.20213 0.0
C2274 C 0.72288 0.73729 0.2169 0.0
C2275 C 0.6958 0.73258 0.18531 0.0
C2276 C 0.68411 0.70023 0.18218 0.0
C2277 C 0.69144 0.68684 0.19745 0.0
C2278 C 0.71037 0.70518 0.21483 0.0
C2279 C 0.66428 0.68014 0.16316 0.0
C2280 C 0.64126 0.6572 0.17352 0.0
C2281 C 0.66788 0.68312 0.13497 0.0
C2282 C 0.69195 0.70577 0.12192 0.0
C2283 C 0.716 0.70582 0.12082 0.0
C2284 C 0.73856 0.72743 0.10858 0.0
C2285 C 0.73723 0.74887 0.09712 0.0
C2286 C 0.71339 0.74873 0.09782 0.0
C2287 C 0.69081 0.72725 0.11009 0.0
H2288 H 0.75464 0.76557 0.08762 0.0
H2289 H 0.53518 0.55138 0.20018 0.0
H2290 H 0.22659 0.27991 0.70085 0.0
H2291 H 0.19272 0.2464 0.67118 0.0
H2292 H 0.17964 0.1684 0.70307 0.0
H2293 H 0.21232 0.20179 0.73339 0.0
H2294 H 0.18799 0.19872 0.62934 0.0
H2295 H 0.11899 0.11592 0.70477 0.0
H2296 H 0.10531 0.11764 0.75587 0.0
H2297 H 0.12459 0.21466 0.77113 0.0
H2298 H 0.13804 0.21346 0.72008 0.0
H2299 H 0.07445 0.04106 0.5905 0.0
H2300 H 0.10488 0.07854 0.62275 0.0
H2301 H 0.1053 0.15327 0.5961 0.0
H2302 H 0.07492 0.11611 0.56391 0.0
H2303 H 0.10179 0.12682 0.66763 0.0
H2304 H 0.16796 0.20959 0.59273 0.0
H2305 H 0.1811 0.2083 0.54163 0.0
H2306 H 0.16664 0.11261 0.52591 0.0
H2307 H 0.1538 0.11346 0.57691 0.0
C2308 C 0.21625 0.25566 0.70166 0.0
C2309 C 0.22201 0.24352 0.71953 0.0
C2310 C 0.19699 0.2365 0.68464 0.0
C2311 C 0.18323 0.20487 0.68517 0.0
C2312 C 0.18938 0.19278 0.70274 0.0
C2313 C 0.20827 0.21192 0.71995 0.0
C2314 C 0.16288 0.1842 0.66698 0.0
C2315 C 0.169 0.18345 0.63786 0.0
C2316 C 0.13816 0.16372 0.67787 0.0
C2317 C 0.12972 0.16463 0.70859 0.0
C2318 C 0.12018 0.13759 0.719 0.0
C2319 C 0.1125 0.13848 0.74796 0.0
C2320 C 0.11415 0.16625 0.76671 0.0
C2321 C 0.12341 0.19319 0.75656 0.0
C2322 C 0.13109 0.19242 0.72762 0.0
C2323 C 0.08089 0.06547 0.5916 0.0
C2324 C 0.07227 0.07552 0.57452 0.0
C2325 C 0.09824 0.08686 0.6101 0.0
C2326 C 0.10757 0.1187 0.61163 0.0
C2327 C 0.09859 0.12882 0.59505 0.0
C2328 C 0.08111 0.10749 0.57673 0.0
C2329 C 0.12705 0.1413 0.63015 0.0
C2330 C 0.12074 0.14235 0.65927 0.0
C2331 C 0.15149 0.16219 0.61931 0.0
C2332 C 0.15963 0.16153 0.58862 0.0
C2333 C 0.16768 0.18832 0.57837 0.0
C2334 C 0.17507 0.18766 0.54942 0.0
C2335 C 0.17461 0.16036 0.53052 0.0
C2336 C 0.16688 0.13371 0.54055 0.0
C2337 C 0.15952 0.13426 0.56948 0.0
H2338 H 0.1803 0.15989 0.50812 0.0
H2339 H 0.10821 0.16687 0.78908 0.0
H2340 H 0.71367 0.31856 0.27123 0.0
H2341 H 0.68537 0.34448 0.29728 0.0
H2342 H 0.69398 0.33422 0.37524 0.0
H2343 H 0.72093 0.30613 0.34863 0.0
H2344 H 0.6557 0.3432 0.39521 0.0
H2345 H 0.71552 0.41438 0.3342 0.0
H2346 H 0.73845 0.42879 0.28835 0.0
H2347 H 0.66615 0.39185 0.25849 0.0
H2348 H 0.64283 0.37716 0.30415 0.0
H2349 H 0.59272 0.4477 0.48225 0.0
H2350 H 0.62049 0.42099 0.45535 0.0
H2351 H 0.60198 0.41981 0.37808 0.0
H2352 H 0.57461 0.44734 0.40519 0.0
H2353 H 0.64494 0.41692 0.35783 0.0
H2354 H 0.58528 0.34905 0.42001 0.0
H2355 H 0.56232 0.33454 0.46577 0.0
H2356 H 0.63465 0.36557 0.49358 0.0
H2357 H 0.65802 0.38048 0.44804 0.0
C2358 C 0.70997 0.32163 0.29398 0.0
C2359 C 0.72118 0.30901 0.30643 0.0
C2360 C 0.69333 0.33775 0.3098 0.0
C2361 C 0.68646 0.34429 0.3402 0.0
C2362 C 0.6976 0.33132 0.35253 0.0
C2363 C 0.71381 0.3146 0.33664 0.0
C2364 C 0.66817 0.36317 0.35854 0.0
C2365 C 0.65416 0.35952 0.38642 0.0
C2366 C 0.66364 0.38525 0.34956 0.0
C2367 C 0.67749 0.39441 0.3224 0.0
C2368 C 0.70455 0.40934 0.31782 0.0
C2369 C 0.7176 0.41753 0.29189 0.0
C2370 C 0.70377 0.41114 0.27049 0.0
C2371 C 0.67684 0.39673 0.27506 0.0
C2372 C 0.6637 0.3885 0.30096 0.0
C2373 C 0.59406 0.44189 0.45951 0.0
C2374 C 0.57983 0.45091 0.44734 0.0
C2375 C 0.61046 0.42554 0.44334 0.0
C2376 C 0.61453 0.41589 0.41295 0.0
C2377 C 0.60056 0.42541 0.40082 0.0
C2378 C 0.58414 0.44177 0.417 0.0
C2379 C 0.63275 0.39708 0.39448 0.0
C2380 C 0.64664 0.40069 0.3666 0.0
C2381 C 0.63727 0.3751 0.40352 0.0
C2382 C 0.62337 0.36615 0.43078 0.0
C2383 C 0.59626 0.35288 0.43595 0.0
C2384 C 0.58319 0.34459 0.46183 0.0
C2385 C 0.59702 0.34922 0.4826 0.0
C2386 C 0.62396 0.36205 0.47749 0.0
C2387 C 0.63713 0.37041 0.45165 0.0
H2388 H 0.58687 0.3428 0.50263 0.0
H2389 H 0.7139 0.41739 0.2504 0.0
H2390 H 0.46294 0.97892 0.09086 0.0
H2391 H 0.42951 0.94509 0.12158 0.0
H2392 H 0.42133 0.86604 0.05293 0.0
H2393 H 0.45474 0.8995 0.02219 0.0
H2394 H 0.37355 0.86615 0.08686 0.0
H2395 H 0.45842 0.87987 0.09582 0.0
H2396 H 0.5032 0.912 0.10482 0.0
H2397 H 0.47583 0.95301 0.18768 0.0
H2398 H 0.43084 0.92138 0.179 0.0
H2399 H 0.31896 0.7402 0.15623 0.0
H2400 H 0.34657 0.77787 0.12627 0.0
H2401 H 0.35995 0.85156 0.2003 0.0
H2402 H 0.33277 0.81422 0.23015 0.0
H2403 H 0.40395 0.85692 0.16522 0.0
H2404 H 0.31985 0.84222 0.15956 0.0
H2405 H 0.27462 0.81417 0.15145 0.0
H2406 H 0.29895 0.77888 0.06499 0.0
H2407 H 0.34435 0.80635 0.07263 0.0
C2408 C 0.45375 0.95439 0.08224 0.0
C2409 C 0.46163 0.94174 0.05429 0.0
C2410 C 0.43471 0.93516 0.09977 0.0
C2411 C 0.42321 0.90316 0.08945 0.0
C2412 C 0.43005 0.89072 0.06117 0.0
C2413 C 0.44925 0.90983 0.04375 0.0
C2414 C 0.40567 0.88222 0.10861 0.0
C2415 C 0.38014 0.86385 0.10388 0.0
C2416 C 0.41431 0.88002 0.13116 0.0
C2417 C 0.4413 0.8985 0.13665 0.0
C2418 C 0.46196 0.89587 0.11589 0.0
C2419 C 0.48737 0.91397 0.12094 0.0
C2420 C 0.49236 0.93459 0.14678 0.0
C2421 C 0.47193 0.93705 0.16767 0.0
C2422 C 0.44647 0.91903 0.1627 0.0
C2423 C 0.32791 0.76442 0.166 0.0
C2424 C 0.32379 0.77437 0.1954 0.0
C2425 C 0.34349 0.78589 0.14894 0.0
C2426 C 0.35507 0.81749 0.16113 0.0
C2427 C 0.35117 0.8273 0.19052 0.0
C2428 C 0.33562 0.80594 0.2075 0.0
C2429 C 0.3717 0.84039 0.14337 0.0
C2430 C 0.39716 0.85919 0.14834 0.0
C2431 C 0.36285 0.84324 0.1213 0.0
C2432 C 0.33552 0.82608 0.11676 0.0
C2433 C 0.31556 0.82816 0.1389 0.0
C2434 C 0.28988 0.81241 0.13439 0.0
C2435 C 0.28388 0.79463 0.1078 0.0
C2436 C 0.30358 0.79255 0.08563 0.0
C2437 C 0.32931 0.80824 0.09002 0.0
H2438 H 0.26398 0.78262 0.10436 0.0
H2439 H 0.51205 0.94861 0.15062 0.0
H2440 H 0.95364 0.53257 0.85936 0.0
H2441 H 0.92898 0.55489 0.84821 0.0
H2442 H 0.95006 0.63012 0.92002 0.0
H2443 H 0.97514 0.60831 0.93104 0.0
H2444 H 0.89928 0.60763 0.91659 0.0
H2445 H 0.97974 0.64098 0.85462 0.0
H2446 H 1.01544 0.63464 0.81831 0.0
H2447 H 0.96265 0.57765 0.75899 0.0
H2448 H 0.92655 0.58331 0.79509 0.0
H2449 H 0.86734 0.71284 0.88256 0.0
H2450 H 0.88915 0.68715 0.89368 0.0
H2451 H 0.86953 0.61596 0.81881 0.0
H2452 H 0.84854 0.64227 0.80688 0.0
H2453 H 0.91842 0.63448 0.8234 0.0
H2454 H 0.83791 0.6033 0.88601 0.0
H2455 H 0.80288 0.61052 0.92294 0.0
H2456 H 0.85647 0.66468 0.98182 0.0
H2457 H 0.89189 0.65809 0.94514 0.0
C2458 C 0.95327 0.55405 0.87262 0.0
C2459 C 0.96655 0.56874 0.89599 0.0
C2460 C 0.93908 0.5667 0.86628 0.0
C2461 C 0.93789 0.59434 0.88312 0.0
C2462 C 0.95069 0.60876 0.90675 0.0
C2463 C 0.96496 0.59618 0.91307 0.0
C2464 C 0.92342 0.60835 0.87606 0.0
C2465 C 0.90363 0.61384 0.89634 0.0
C2466 C 0.92874 0.61579 0.84939 0.0
C2467 C 0.9504 0.61229 0.82766 0.0
C2468 C 0.97571 0.62687 0.83391 0.0
C2469 C 0.99602 0.62344 0.81336 0.0
C2470 C 0.99131 0.60568 0.78639 0.0
C2471 C 0.96627 0.59136 0.77991 0.0
C2472 C 0.94587 0.59468 0.8004 0.0
C2473 C 0.86782 0.69185 0.86829 0.0
C2474 C 0.85623 0.67971 0.84374 0.0
C2475 C 0.88003 0.67695 0.8749 0.0
C2476 C 0.8807 0.64936 0.8573 0.0
C2477 C 0.86915 0.63713 0.83279 0.0
C2478 C 0.85698 0.65209 0.82611 0.0
C2479 C 0.89423 0.63389 0.86399 0.0
C2480 C 0.91391 0.62814 0.84362 0.0
C2481 C 0.88888 0.62636 0.89066 0.0
C2482 C 0.86761 0.63047 0.91272 0.0
C2483 C 0.84227 0.61699 0.90675 0.0
C2484 C 0.82233 0.62092 0.92766 0.0
C2485 C 0.82746 0.63815 0.95467 0.0
C2486 C 0.85254 0.65143 0.96086 0.0
C2487 C 0.87255 0.64757 0.94003 0.0
H2488 H 0.81199 0.64113 0.97084 0.0
H2489 H 1.00707 0.60308 0.77049 0.0
H2490 H 0.47303 0.50526 0.09976 0.0
H2491 H 0.44551 0.46893 0.1309 0.0
H2492 H 0.43544 0.39261 0.05929 0.0
H2493 H 0.46351 0.4288 0.02808 0.0
H2494 H 0.38773 0.39419 0.0996 0.0
H2495 H 0.47177 0.3987 0.09593 0.0
H2496 H 0.51825 0.42645 0.0989 0.0
H2497 H 0.50134 0.46914 0.18527 0.0
H2498 H 0.45475 0.44204 0.18267 0.0
H2499 H 0.32347 0.27937 0.18398 0.0
H2500 H 0.35127 0.30939 0.14782 0.0
H2501 H 0.38644 0.38723 0.2128 0.0
H2502 H 0.35932 0.35717 0.24868 0.0
H2503 H 0.42251 0.38155 0.17231 0.0
H2504 H 0.34326 0.3892 0.17551 0.0
H2505 H 0.29698 0.37081 0.17437 0.0
H2506 H 0.30414 0.3115 0.09341 0.0
H2507 H 0.35076 0.33039 0.09375 0.0
C2508 C 0.46498 0.48073 0.09068 0.0
C2509 C 0.47038 0.46982 0.06155 0.0
C2510 C 0.44931 0.46004 0.10846 0.0
C2511 C 0.43847 0.42813 0.09736 0.0
C2512 C 0.4436 0.41717 0.06822 0.0
C2513 C 0.45969 0.43783 0.05048 0.0
C2514 C 0.42187 0.40634 0.11636 0.0
C2515 C 0.39536 0.39086 0.11514 0.0
C2516 C 0.43178 0.40287 0.13715 0.0
C2517 C 0.45976 0.4185 0.13903 0.0
C2518 C 0.47796 0.41414 0.11551 0.0
C2519 C 0.50433 0.42974 0.11713 0.0
C2520 C 0.51274 0.44958 0.14225 0.0
C2521 C 0.49479 0.45376 0.16583 0.0
C2522 C 0.4684 0.43826 0.1643 0.0
C2523 C 0.33714 0.30289 0.19046 0.0
C2524 C 0.33929 0.31587 0.21914 0.0
C2525 C 0.35293 0.32013 0.16981 0.0
C2526 C 0.37093 0.35077 0.17751 0.0
C2527 C 0.37288 0.36366 0.20621 0.0
C2528 C 0.35728 0.34644 0.22675 0.0
C2529 C 0.38809 0.3694 0.15585 0.0
C2530 C 0.4148 0.38439 0.15655 0.0
C2531 C 0.37832 0.37295 0.13492 0.0
C2532 C 0.35031 0.36086 0.13483 0.0
C2533 C 0.33489 0.37206 0.15758 0.0
C2534 C 0.30863 0.36163 0.15702 0.0
C2535 C 0.29751 0.33967 0.134 0.0
C2536 C 0.31274 0.3284 0.1113 0.0
C2537 C 0.33912 0.33912 0.11156 0.0
H2538 H 0.27714 0.33153 0.13367 0.0
H2539 H 0.53316 0.46167 0.14345 0.0
H2540 H 0.40132 0.58097 0.97717 0.0
H2541 H 0.37535 0.59114 0.95414 0.0
H2542 H 0.42662 0.58473 0.87556 0.0
H2543 H 0.45303 0.57524 0.89863 0.0
H2544 H 0.41785 0.6354 0.88677 0.0
H2545 H 0.36576 0.52812 0.88445 0.0
H2546 H 0.34124 0.48071 0.90351 0.0
H2547 H 0.28997 0.51983 0.95943 0.0
H2548 H 0.31437 0.56767 0.94097 0.0
H2549 H 0.34002 0.64643 0.808 0.0
H2550 H 0.36239 0.62508 0.8245 0.0
H2551 H 0.31791 0.63459 0.90739 0.0
H2552 H 0.29584 0.65653 0.89133 0.0
H2553 H 0.32301 0.579 0.89048 0.0
H2554 H 0.37731 0.68745 0.89466 0.0
H2555 H 0.40139 0.73431 0.87471 0.0
H2556 H 0.44844 0.69179 0.81429 0.0
H2557 H 0.4243 0.64443 0.83355 0.0
C2558 C 0.40704 0.58164 0.95496 0.0
C2559 C 0.42932 0.57736 0.93978 0.0
C2560 C 0.39202 0.58716 0.94174 0.0
C2561 C 0.39889 0.58847 0.91303 0.0
C2562 C 0.42088 0.58372 0.8977 0.0
C2563 C 0.43586 0.57807 0.91089 0.0
C2564 C 0.38403 0.59667 0.89951 0.0
C2565 C 0.39719 0.62268 0.88713 0.0
C2566 C 0.35695 0.58048 0.90044 0.0
C2567 C 0.34214 0.55168 0.91156 0.0
C2568 C 0.34942 0.52676 0.90101 0.0
C2569 C 0.33553 0.49979 0.9117 0.0
C2570 C 0.31422 0.49739 0.93286 0.0
C2571 C 0.30662 0.52185 0.94321 0.0
C2572 C 0.32044 0.54886 0.93258 0.0
C2573 C 0.33504 0.64412 0.82978 0.0
C2574 C 0.31617 0.65341 0.84834 0.0
C2575 C 0.34775 0.63172 0.83913 0.0
C2576 C 0.34193 0.62841 0.86724 0.0
C2577 C 0.32261 0.63677 0.88558 0.0
C2578 C 0.30996 0.64927 0.8763 0.0
C2579 C 0.35686 0.61776 0.87799 0.0
C2580 C 0.34372 0.59144 0.8899 0.0
C2581 C 0.38396 0.63358 0.8766 0.0
C2582 C 0.39882 0.66227 0.86536 0.0
C2583 C 0.39267 0.68801 0.87699 0.0
C2584 C 0.40634 0.71467 0.86582 0.0
C2585 C 0.4264 0.71601 0.84322 0.0
C2586 C 0.43287 0.69071 0.83178 0.0
C2587 C 0.41921 0.66395 0.84281 0.0
H2588 H 0.43696 0.73666 0.8346 0.0
H2589 H 0.30345 0.47646 0.94104 0.0
H2590 H 0.08157 0.57762 0.54977 0.0
H2591 H 0.11302 0.61202 0.58188 0.0
H2592 H 0.07721 0.54705 0.63682 0.0
H2593 H 0.04616 0.51194 0.60425 0.0
H2594 H 0.09234 0.61993 0.661 0.0
H2595 H 0.12292 0.54031 0.60457 0.0
H2596 H 0.13478 0.50991 0.55883 0.0
H2597 H 0.19179 0.59339 0.53271 0.0
H2598 H 0.17988 0.62432 0.57812 0.0
H2599 H 0.18238 0.67517 0.75313 0.0
H2600 H 0.15016 0.64397 0.72174 0.0
H2601 H 0.20627 0.67929 0.65162 0.0
H2602 H 0.23907 0.70904 0.68285 0.0
H2603 H 0.18056 0.62299 0.63344 0.0
H2604 H 0.15479 0.7035 0.68692 0.0
H2605 H 0.14317 0.73824 0.72923 0.0
H2606 H 0.07835 0.66051 0.75729 0.0
H2607 H 0.0898 0.62524 0.71534 0.0
C2608 C 0.0802 0.5708 0.56885 0.0
C2609 C 0.06146 0.54208 0.57454 0.0
C2610 C 0.0982 0.59044 0.5871 0.0
C2611 C 0.09742 0.58197 0.61161 0.0
C2612 C 0.07806 0.55393 0.61798 0.0
C2613 C 0.06041 0.53393 0.59939 0.0
C2614 C 0.11755 0.60178 0.62989 0.0
C2615 C 0.11157 0.62041 0.65529 0.0
C2616 C 0.14284 0.60325 0.62167 0.0
C2617 C 0.15029 0.58463 0.5946 0.0
C2618 C 0.13779 0.55219 0.58896 0.0
C2619 C 0.14456 0.53486 0.56312 0.0
C2620 C 0.16398 0.54971 0.54284 0.0
C2621 C 0.17672 0.58192 0.54841 0.0
C2622 C 0.16997 0.59936 0.5742 0.0
C2623 C 0.18785 0.6763 0.73102 0.0
C2624 C 0.21321 0.69468 0.72046 0.0
C2625 C 0.16932 0.65861 0.71307 0.0
C2626 C 0.17545 0.65969 0.68428 0.0
C2627 C 0.2009 0.67802 0.6737 0.0
C2628 C 0.21964 0.69516 0.69157 0.0
C2629 C 0.15547 0.64117 0.66525 0.0
C2630 C 0.16143 0.62277 0.63946 0.0
C2631 C 0.1303 0.64056 0.67282 0.0
C2632 C 0.12331 0.66169 0.69809 0.0
C2633 C 0.13817 0.69378 0.70221 0.0
C2634 C 0.1316 0.71358 0.72612 0.0
C2635 C 0.11008 0.70158 0.74597 0.0
C2636 C 0.09504 0.66977 0.74192 0.0
C2637 C 0.10155 0.64986 0.71806 0.0
H2638 H 0.10502 0.71694 0.76447 0.0
H2639 H 0.16922 0.53626 0.52286 0.0
H2640 H 0.31429 0.24592 0.64818 0.0
H2641 H 0.3449 0.26488 0.60693 0.0
H2642 H 0.3835 0.35217 0.66108 0.0
H2643 H 0.3537 0.3337 0.7018 0.0
H2644 H 0.35481 0.31506 0.5856 0.0
H2645 H 0.44637 0.38035 0.64136 0.0
H2646 H 0.46479 0.37257 0.67549 0.0
H2647 H 0.42173 0.27447 0.65284 0.0
H2648 H 0.40336 0.28158 0.61824 0.0
H2649 H 0.47433 0.46059 0.56113 0.0
H2650 H 0.44588 0.42047 0.58787 0.0
H2651 H 0.43118 0.35241 0.51028 0.0
H2652 H 0.46006 0.39265 0.48322 0.0
H2653 H 0.449 0.36609 0.58803 0.0
H2654 H 0.36522 0.30073 0.52517 0.0
H2655 H 0.34606 0.30836 0.49158 0.0
H2656 H 0.3731 0.40528 0.52886 0.0
H2657 H 0.39211 0.39812 0.56286 0.0
C2658 C 0.32945 0.26904 0.65122 0.0
C2659 C 0.33154 0.28823 0.67831 0.0
C2660 C 0.34685 0.27984 0.62767 0.0
C2661 C 0.36672 0.30975 0.63103 0.0
C2662 C 0.36868 0.32879 0.65803 0.0
C2663 C 0.35142 0.31818 0.68134 0.0
C2664 C 0.38509 0.32232 0.60664 0.0
C2665 C 0.37547 0.32543 0.58561 0.0
C2666 C 0.41204 0.33602 0.60676 0.0
C2667 C 0.4234 0.33153 0.62724 0.0
C2668 C 0.44097 0.35709 0.64348 0.0
C2669 C 0.45137 0.3528 0.66296 0.0
C2670 C 0.4444 0.32305 0.66636 0.0
C2671 C 0.42707 0.29751 0.65024 0.0
C2672 C 0.41663 0.30166 0.63071 0.0
C2673 C 0.46515 0.43707 0.54973 0.0
C2674 C 0.46938 0.42971 0.52011 0.0
C2675 C 0.44898 0.41416 0.56503 0.0
C2676 C 0.43643 0.38351 0.55105 0.0
C2677 C 0.44063 0.37597 0.52143 0.0
C2678 C 0.4571 0.39893 0.50605 0.0
C2679 C 0.4186 0.35995 0.56793 0.0
C2680 C 0.42841 0.35483 0.5875 0.0
C2681 C 0.39191 0.34431 0.56635 0.0
C2682 C 0.38038 0.34893 0.54625 0.0
C2683 C 0.36704 0.32364 0.52619 0.0
C2684 C 0.3562 0.32789 0.5071 0.0
C2685 C 0.35846 0.35731 0.508 0.0
C2686 C 0.37147 0.38253 0.52809 0.0
C2687 C 0.38231 0.3784 0.54724 0.0
H2688 H 0.35007 0.36055 0.4932 0.0
H2689 H 0.45246 0.31979 0.68148 0.0
H2690 H 0.20699 0.6501 0.19341 0.0
H2691 H 0.17521 0.62363 0.16124 0.0
H2692 H 0.18355 0.71147 0.15287 0.0
H2693 H 0.21576 0.73823 0.18469 0.0
H2694 H 0.1293 0.62191 0.16407 0.0
H2695 H 0.17469 0.70484 0.0865 0.0
H2696 H 0.21748 0.74009 0.06671 0.0
H2697 H 0.2526 0.68893 0.08261 0.0
H2698 H 0.21002 0.65319 0.10217 0.0
H2699 H 0.04008 0.56647 0.0666 0.0
H2700 H 0.06801 0.59738 0.10297 0.0
H2701 H 0.13357 0.59051 0.04224 0.0
H2702 H 0.10636 0.56296 1.00571 0.0
H2703 H 0.14927 0.64305 0.06838 0.0
H2704 H 0.09815 0.54666 0.10512 0.0
H2705 H 0.05821 0.50634 0.12422 0.0
H2706 H 0.03804 0.57595 0.18581 0.0
H2707 H 0.07813 0.61666 0.16778 0.0
C2708 C 0.20218 0.66388 0.18469 0.0
C2709 C 0.21406 0.69635 0.1916 0.0
C2710 C 0.18385 0.64866 0.16639 0.0
C2711 C 0.17701 0.6655 0.15451 0.0
C2712 C 0.18871 0.69794 0.16148 0.0
C2713 C 0.20713 0.71321 0.17974 0.0
C2714 C 0.15786 0.64896 0.13461 0.0
C2715 C 0.13367 0.62646 0.14308 0.0
C2716 C 0.16346 0.65483 0.10725 0.0
C2717 C 0.1892 0.67658 0.09608 0.0
C2718 C 0.19155 0.70115 0.08578 0.0
C2719 C 0.21576 0.72117 0.07458 0.0
C2720 C 0.23772 0.71672 0.07341 0.0
C2721 C 0.23557 0.69237 0.08359 0.0
C2722 C 0.21141 0.67226 0.09478 0.0
C2723 C 0.0605 0.57179 0.06118 0.0
C2724 C 0.07107 0.5623 0.03338 0.0
C2725 C 0.07646 0.58912 0.08206 0.0
C2726 C 0.10307 0.59608 0.07573 0.0
C2727 C 0.11328 0.58591 0.04792 0.0
C2728 C 0.09762 0.56985 0.02698 0.0
C2729 C 0.12083 0.61479 0.09723 0.0
C2730 C 0.14474 0.63824 0.08927 0.0
C2731 C 0.11524 0.60911 0.12474 0.0
C2732 C 0.09091 0.58464 0.13491 0.0
C2733 C 0.08509 0.55333 0.1226 0.0
C2734 C 0.06249 0.53043 0.13325 0.0
C2735 C 0.04549 0.53857 0.15588 0.0
C2736 C 0.05116 0.56966 0.16819 0.0
C2737 C 0.07388 0.59264 0.15791 0.0
H2738 H 0.028 0.52077 0.164 0.0
H2739 H 0.25639 0.73206 0.06449 0.0
H2740 H 0.67853 0.3533 0.72214 0.0
H2741 H 0.65883 0.37444 0.70164 0.0
H2742 H 0.72366 0.39344 0.63461 0.0
H2743 H 0.74373 0.3726 0.65535 0.0
H2744 H 0.70981 0.44119 0.65366 0.0
H2745 H 0.6664 0.33224 0.62282 0.0
H2746 H 0.64255 0.27796 0.62772 0.0
H2747 H 0.58019 0.29849 0.68188 0.0
H2748 H 0.60386 0.35304 0.67771 0.0
H2749 H 0.64044 0.46688 0.57207 0.0
H2750 H 0.6654 0.44842 0.58809 0.0
H2751 H 0.60708 0.42806 0.66094 0.0
H2752 H 0.58232 0.44689 0.64544 0.0
H2753 H 0.61981 0.37984 0.63433 0.0
H2754 H 0.66567 0.49 0.66768 0.0
H2755 H 0.69014 0.54421 0.66254 0.0
H2756 H 0.748 0.52032 0.60146 0.0
H2757 H 0.72382 0.46593 0.6062 0.0
C2758 C 0.68852 0.3617 0.70288 0.0
C2759 C 0.7126 0.36098 0.69024 0.0
C2760 C 0.67724 0.37385 0.69119 0.0
C2761 C 0.68958 0.38518 0.66633 0.0
C2762 C 0.71376 0.38482 0.65378 0.0
C2763 C 0.72519 0.37289 0.66564 0.0
C2764 C 0.67703 0.39727 0.6536 0.0
C2765 C 0.69029 0.42758 0.64898 0.0
C2766 C 0.65144 0.3797 0.64775 0.0
C2767 C 0.63702 0.34682 0.65013 0.0
C2768 C 0.64768 0.32524 0.63594 0.0
C2769 C 0.63417 0.29441 0.63856 0.0
C2770 C 0.60989 0.28479 0.65514 0.0
C2771 C 0.59902 0.30597 0.66906 0.0
C2772 C 0.61246 0.33685 0.66656 0.0
C2773 C 0.6331 0.45891 0.59172 0.0
C2774 C 0.60921 0.4582 0.60733 0.0
C2775 C 0.6474 0.44831 0.60084 0.0
C2776 C 0.63816 0.43688 0.62578 0.0
C2777 C 0.61455 0.43658 0.64155 0.0
C2778 C 0.60032 0.44722 0.63254 0.0
C2779 C 0.65234 0.42395 0.63501 0.0
C2780 C 0.6394 0.39338 0.63884 0.0
C2781 C 0.67824 0.44119 0.6399 0.0
C2782 C 0.69279 0.47385 0.63704 0.0
C2783 C 0.68351 0.49627 0.653 0.0
C2784 C 0.69736 0.52704 0.65021 0.0
C2785 C 0.72053 0.53566 0.63156 0.0
C2786 C 0.72998 0.51357 0.6158 0.0
C2787 C 0.71627 0.4828 0.6186 0.0
H2788 H 0.73121 0.55948 0.62942 0.0
H2789 H 0.59948 0.26093 0.65719 0.0
H2790 H 0.8329 0.62747 0.09002 0.0
H2791 H 0.85361 0.5945 0.05925 0.0
H2792 H 0.78946 0.51456 0.08587 0.0
H2793 H 0.76951 0.54788 0.11831 0.0
H2794 H 0.82843 0.51353 0.09289 0.0
H2795 H 0.80864 0.52207 0.01354 0.0
H2796 H 0.80188 0.54399 0.98003 0.0
H2797 H 0.88283 0.60213 0.96724 0.0
H2798 H 0.89012 0.58087 1.00087 0.0
H2799 H 0.94053 0.48219 0.97935 0.0
H2800 H 0.89899 0.4856 0.99025 0.0
H2801 H 0.91265 0.53186 0.07579 0.0
H2802 H 0.95362 0.52698 0.06536 0.0
H2803 H 0.8871 0.53027 1.00248 0.0
H2804 H 0.86022 0.52056 0.1217 0.0
H2805 H 0.86223 0.48985 0.1506 0.0
H2806 H 0.86536 0.41971 0.07673 0.0
H2807 H 0.86298 0.44974 0.04742 0.0
C2808 C 0.82302 0.60281 0.08904 0.0
C2809 C 0.79986 0.59041 0.10706 0.0
C2810 C 0.83466 0.58381 0.07098 0.0
C2811 C 0.82308 0.55188 0.07006 0.0
C2812 C 0.7988 0.5391 0.08621 0.0
C2813 C 0.78732 0.5582 0.10465 0.0
C2814 C 0.83851 0.53342 0.05649 0.0
C2815 C 0.84093 0.51677 0.07287 0.0
C2816 C 0.8541 0.53634 0.0298 0.0
C2817 C 0.84992 0.54979 0.00981 0.0
C2818 C 0.82501 0.53968 1.00375 0.0
C2819 C 0.82109 0.55195 0.98467 0.0
C2820 C 0.84193 0.57435 0.97144 0.0
C2821 C 0.86672 0.58465 0.97738 0.0
C2822 C 0.87077 0.57243 0.99641 0.0
C2823 C 0.93458 0.49297 1.00054 0.0
C2824 C 0.95025 0.50448 0.02157 0.0
C2825 C 0.91084 0.49485 0.0067 0.0
C2826 C 0.90252 0.50863 0.03386 0.0
C2827 C 0.9183 0.52032 0.05485 0.0
C2828 C 0.9418 0.51781 0.04887 0.0
C2829 C 0.87817 0.51266 0.03999 0.0
C2830 C 0.87408 0.52636 0.02211 0.0
C2831 C 0.86027 0.50581 0.06468 0.0
C2832 C 0.86152 0.48752 0.08232 0.0
C2833 C 0.86115 0.49849 0.11162 0.0
C2834 C 0.86241 0.48121 0.12808 0.0
C2835 C 0.86396 0.45287 0.11551 0.0
C2836 C 0.86422 0.44171 0.08644 0.0
C2837 C 0.86295 0.45887 0.06989 0.0
H2838 H 0.86493 0.43954 0.12829 0.0
H2839 H 0.83884 0.58363 0.95654 0.0
H2840 H 0.87559 0.54171 0.62909 0.0
H2841 H 0.8359 0.54891 0.64894 0.0
H2842 H 0.82589 0.54524 0.56584 0.0
H2843 H 0.86589 0.53823 0.54584 0.0
H2844 H 0.8298 0.59795 0.59913 0.0
H2845 H 0.77865 0.49436 0.60689 0.0
H2846 H 0.76643 0.44396 0.61766 0.0
H2847 H 0.76847 0.48594 0.70559 0.0
H2848 H 0.781 0.53668 0.6954 0.0
H2849 H 0.7544 0.67557 0.67827 0.0
H2850 H 0.75785 0.62883 0.64713 0.0
H2851 H 0.78571 0.61631 0.7115 0.0
H2852 H 0.78145 0.66217 0.74302 0.0
H2853 H 0.76079 0.56102 0.67803 0.0
H2854 H 0.82755 0.66307 0.66648 0.0
H2855 H 0.84262 0.71539 0.65819 0.0
H2856 H 0.81409 0.6764 0.5789 0.0
H2857 H 0.7985 0.62382 0.58699 0.0
C2858 C 0.86445 0.54126 0.61489 0.0
C2859 C 0.87405 0.53996 0.58599 0.0
C2860 C 0.84161 0.54519 0.62625 0.0
C2861 C 0.82784 0.54759 0.60888 0.0
C2862 C 0.8362 0.54347 0.57963 0.0
C2863 C 0.85914 0.53972 0.56827 0.0
C2864 C 0.80864 0.56101 0.6219 0.0
C2865 C 0.81407 0.58916 0.61565 0.0
C2866 C 0.78853 0.55003 0.64397 0.0
C2867 C 0.78091 0.51947 0.65031 0.0
C2868 C 0.7767 0.49294 0.62851 0.0
C2869 C 0.76967 0.46427 0.63452 0.0
C2870 C 0.76679 0.46179 0.66227 0.0
C2871 C 0.77072 0.48792 0.6841 0.0
C2872 C 0.77772 0.51663 0.67822 0.0
C2873 C 0.76065 0.66243 0.68603 0.0
C2874 C 0.76846 0.67308 0.71274 0.0
C2875 C 0.76244 0.63562 0.66829 0.0
C2876 C 0.77265 0.61959 0.67677 0.0
C2877 C 0.77789 0.62841 0.70447 0.0
C2878 C 0.77573 0.65489 0.72237 0.0
C2879 C 0.78278 0.5981 0.65572 0.0
C2880 C 0.77581 0.56883 0.66064 0.0
C2881 C 0.80186 0.60811 0.63261 0.0
C2882 C 0.8116 0.63961 0.62748 0.0
C2883 C 0.8244 0.6657 0.64735 0.0
C2884 C 0.83302 0.69537 0.6427 0.0
C2885 C 0.82925 0.69921 0.61807 0.0
C2886 C 0.81693 0.67338 0.598 0.0
C2887 C 0.80819 0.64364 0.60261 0.0
H2888 H 0.83592 0.72221 0.61452 0.0
H2889 H 0.76156 0.43966 0.66689 0.0
H2890 H 0.40522 0.51834 0.41665 0.0
H2891 H 0.3788 0.53543 0.4014 0.0
H2892 H 0.44773 0.60486 0.36609 0.0
H2893 H 0.47416 0.5885 0.38187 0.0
H2894 H 0.41253 0.62789 0.39455 0.0
H2895 H 0.41222 0.53539 0.3253 0.0
H2896 H 0.40372 0.48017 0.30923 0.0
H2897 H 0.32337 0.45527 0.3422 0.0
H2898 H 0.33142 0.51029 0.35889 0.0
H2899 H 0.36626 0.66712 0.3021 0.0
H2900 H 0.38851 0.65092 0.32454 0.0
H2901 H 0.3164 0.57671 0.34756 0.0
H2902 H 0.29437 0.59246 0.32444 0.0
H2903 H 0.35042 0.55515 0.32883 0.0
H2904 H 0.34776 0.64404 0.39671 0.0
H2905 H 0.35355 0.6982 0.41547 0.0
H2906 H 0.43534 0.72897 0.38933 0.0
H2907 H 0.43002 0.67499 0.37004 0.0
C2908 C 0.41475 0.53746 0.4059 0.0
C2909 C 0.44184 0.55188 0.40031 0.0
C2910 C 0.39961 0.54704 0.39698 0.0
C2911 C 0.41126 0.5712 0.38225 0.0
C2912 C 0.43827 0.58609 0.37728 0.0
C2913 C 0.45338 0.57651 0.38612 0.0
C2914 C 0.39554 0.58098 0.3717 0.0
C2915 C 0.39913 0.61207 0.37995 0.0
C2916 C 0.37727 0.5601 0.35351 0.0
C2917 C 0.37251 0.52699 0.34368 0.0
C2918 C 0.39278 0.51814 0.32939 0.0
C2919 C 0.38802 0.48686 0.32012 0.0
C2920 C 0.36302 0.4642 0.32479 0.0
C2921 C 0.34272 0.4728 0.33869 0.0
C2922 C 0.34738 0.50403 0.34806 0.0
C2923 C 0.35512 0.64758 0.31221 0.0
C2924 C 0.32848 0.63111 0.31156 0.0
C2925 C 0.36785 0.63834 0.32513 0.0
C2926 C 0.35414 0.61277 0.33817 0.0
C2927 C 0.3275 0.59647 0.33768 0.0
C2928 C 0.31488 0.60548 0.32446 0.0
C2929 C 0.36768 0.60227 0.35132 0.0
C2930 C 0.36367 0.57103 0.34358 0.0
C2931 C 0.38516 0.62289 0.37042 0.0
C2932 C 0.38846 0.65544 0.38174 0.0
C2933 C 0.36696 0.66236 0.39476 0.0
C2934 C 0.37017 0.69303 0.40555 0.0
C2935 C 0.3948 0.717 0.40365 0.0
C2936 C 0.41628 0.71036 0.39085 0.0
C2937 C 0.41318 0.67973 0.38 0.0
H2938 H 0.39725 0.74073 0.41205 0.0
H2939 H 0.35936 0.44 0.31756 0.0
H2940 H 0.24749 0.4031 0.91764 0.0
H2941 H 0.22036 0.42993 0.94461 0.0
H2942 H 0.262 0.50078 0.89557 0.0
H2943 H 0.28785 0.4726 0.8669 0.0
H2944 H 0.21589 0.47957 0.97441 0.0
H2945 H 0.22041 0.51383 0.87404 0.0
H2946 H 0.23524 0.50246 0.82275 0.0
H2947 H 0.22037 0.41078 0.82666 0.0
H2948 H 0.20517 0.42154 0.87785 0.0
H2949 H 0.10622 0.51389 1.00501 0.0
H2950 H 0.15003 0.51724 0.99245 0.0
H2951 H 0.12776 0.44299 0.91981 0.0
H2952 H 0.08478 0.44279 0.93052 0.0
H2953 H 0.17044 0.47881 0.90422 0.0
H2954 H 0.13815 0.43835 0.99123 0.0
H2955 H 0.12073 0.43982 0.04186 0.0
H2956 H 0.18388 0.52713 0.06345 0.0
H2957 H 0.20177 0.52601 0.013 0.0
C2958 C 0.25114 0.42466 0.91288 0.0
C2959 C 0.26888 0.43494 0.88932 0.0
C2960 C 0.23587 0.44028 0.92862 0.0
C2961 C 0.23845 0.46666 0.92127 0.0
C2962 C 0.25913 0.47983 0.9009 0.0
C2963 C 0.27401 0.46377 0.88462 0.0
C2964 C 0.2165 0.47573 0.93048 0.0
C2965 C 0.20604 0.47979 0.95916 0.0
C2966 C 0.20342 0.47551 0.91054 0.0
C2967 C 0.21198 0.46863 0.87972 0.0
C2968 C 0.22024 0.49124 0.86388 0.0
C2969 C 0.2287 0.4849 0.83486 0.0
C2970 C 0.22882 0.45595 0.82148 0.0
C2971 C 0.22032 0.43321 0.83705 0.0
C2972 C 0.21175 0.4394 0.86604 0.0
C2973 C 0.11087 0.49859 0.98618 0.0
C2974 C 0.09237 0.47827 0.96852 0.0
C2975 C 0.13584 0.50012 0.97925 0.0
C2976 C 0.14231 0.47991 0.9555 0.0
C2977 C 0.12347 0.45906 0.93817 0.0
C2978 C 0.09885 0.45871 0.94431 0.0
C2979 C 0.16868 0.48063 0.94811 0.0
C2980 C 0.18025 0.47902 0.91972 0.0
C2981 C 0.18206 0.48155 0.9682 0.0
C2982 C 0.17109 0.48228 0.99841 0.0
C2983 C 0.14819 0.45793 0.0068 0.0
C2984 C 0.13827 0.4587 0.03544 0.0
C2985 C 0.1511 0.4837 0.05581 0.0
C2986 C 0.17391 0.5079 0.04763 0.0
C2987 C 0.184 0.50714 0.01905 0.0
H2988 H 0.14355 0.48428 0.07796 0.0
H2989 H 0.23545 0.45112 0.79903 0.0
H2990 H 0.29824 0.35742 0.34536 0.0
H2991 H 0.29256 0.40317 0.37576 0.0
H2992 H 0.25078 0.40156 0.31653 0.0
H2993 H 0.25689 0.35631 0.2857 0.0
H2994 H 0.27753 0.46158 0.34521 0.0
H2995 H 0.21872 0.3589 0.36648 0.0
H2996 H 0.21021 0.31005 0.37803 0.0
H2997 H 0.24795 0.3608 0.451 0.0
H2998 H 0.25695 0.40996 0.43961 0.0
H2999 H 0.15796 0.46178 0.39359 0.0
H3000 H 0.20008 0.46077 0.3751 0.0
H3001 H 0.21393 0.47757 0.45987 0.0
H3002 H 0.17114 0.47774 0.4785 0.0
H3003 H 0.21672 0.42609 0.42975 0.0
H3004 H 0.25711 0.5274 0.41593 0.0
H3005 H 0.25875 0.57298 0.40441 0.0
H3006 H 0.25307 0.52542 0.31809 0.0
H3007 H 0.25099 0.4793 0.3291 0.0
C3008 C 0.28825 0.36714 0.33855 0.0
C3009 C 0.27733 0.35276 0.31355 0.0
C3010 C 0.28525 0.39345 0.35583 0.0
C3011 C 0.27089 0.4054 0.3486 0.0
C3012 C 0.26195 0.39271 0.32248 0.0
C3013 C 0.26519 0.3666 0.30503 0.0
C3014 C 0.26078 0.42665 0.37005 0.0
C3015 C 0.26447 0.4542 0.36393 0.0
C3016 C 0.24446 0.41749 0.39497 0.0
C3017 C 0.23877 0.38801 0.40203 0.0
C3018 C 0.22529 0.35959 0.3849 0.0
C3019 C 0.22039 0.33188 0.39141 0.0
C3020 C 0.2286 0.33233 0.41519 0.0
C3021 C 0.24166 0.36049 0.43256 0.0
C3022 C 0.24668 0.38828 0.42608 0.0
C3023 C 0.17023 0.46596 0.40831 0.0
C3024 C 0.16115 0.46918 0.43738 0.0
C3025 C 0.19452 0.46588 0.39777 0.0
C3026 C 0.2103 0.46928 0.41611 0.0
C3027 C 0.20212 0.47508 0.44537 0.0
C3028 C 0.17771 0.47517 0.45597 0.0
C3029 C 0.23222 0.46027 0.40421 0.0
C3030 C 0.23079 0.43476 0.41202 0.0
C3031 C 0.25043 0.47135 0.38091 0.0
C3032 C 0.25377 0.49976 0.37342 0.0
C3033 C 0.25626 0.52663 0.39445 0.0
C3034 C 0.25719 0.55254 0.38804 0.0
C3035 C 0.25574 0.55195 0.36062 0.0
C3036 C 0.25403 0.52574 0.33937 0.0
C3037 C 0.25309 0.49972 0.34567 0.0
H3038 H 0.2559 0.57182 0.35588 0.0
H3039 H 0.22479 0.31085 0.4202 0.0
loop_
_geom_bond_atom_site_label_1
_geom_bond_atom_site_label_2
_geom_bond_distance
_geom_bond_site_symmetry_2
_ccdc_geom_bond_type
Pr0 C2 2.880 1_545 S
Pr0 O20 2.562 1_545 S
Pr0 O21 2.490 . S
Pr0 O22 2.695 1_554 S
Pr0 O23 2.512 1_554 S
Pr0 O25 2.437 1_544 S
Pr0 O28 2.436 1_445 S
Pr0 O30 2.419 1_455 S
Pr1 C11 2.880 1_565 S
Pr1 O22 2.436 1_665 S
Pr1 O24 2.438 1_655 S
Pr1 O26 2.562 1_565 S
Pr1 O27 2.490 . S
Pr1 O28 2.695 1_556 S
Pr1 O29 2.512 1_556 S
Pr1 O31 2.437 1_566 S
C2 Pr0 2.880 1_565 S
C2 C3 1.491 . S
C2 O20 1.254 . S
C2 O21 1.225 1_565 S
C3 C2 1.491 . S
C3 C4 1.392 1_565 S
C3 C8 1.356 . S
C4 C3 1.392 1_545 S
C4 C5 1.368 1_545 S
C4 H32 0.929 . S
C5 C4 1.368 1_565 S
C5 C6 1.386 . S
C5 H33 0.929 1_565 S
C6 C5 1.386 . S
C6 C7 1.373 . S
C7 C6 1.373 . S
C7 C8 1.409 . S
C7 H34 0.931 . S
C8 C3 1.356 . S
C8 C7 1.409 . S
C8 H35 0.930 . S
C9 O22 1.270 . S
C9 O23 1.248 . S
C10 O24 1.267 . S
C10 O25 1.278 . S
C11 Pr1 2.880 1_545 S
C11 C12 1.491 . S
C11 O26 1.254 . S
C11 O27 1.225 1_545 S
C12 C11 1.491 . S
C12 C13 1.392 1_545 S
C12 C17 1.356 . S
C13 C12 1.392 1_565 S
C13 C14 1.368 1_565 S
C13 H36 0.929 . S
C14 C13 1.368 1_545 S
C14 C15 1.386 . S
C14 H37 0.929 1_545 S
C15 C14 1.386 . S
C15 C16 1.373 . S
C16 C15 1.373 . S
C16 C17 1.409 . S
C16 H38 0.931 . S
C17 C12 1.356 . S
C17 C16 1.409 . S
C17 H39 0.930 . S
C18 O28 1.270 . S
C18 O29 1.248 . S
C19 O30 1.287 . S
C19 O31 1.278 . S
O20 Pr0 2.562 1_565 S
O20 C2 1.254 . S
O21 Pr0 2.490 . S
O21 C2 1.225 1_545 S
O22 Pr0 2.695 1_556 S
O22 Pr1 2.436 1_445 S
O22 C9 1.270 . S
O23 Pr0 2.512 1_556 S
O23 C9 1.248 . S
O24 Pr1 2.438 1_455 S
O24 C10 1.267 . S
O25 Pr0 2.437 1_566 S
O25 C10 1.278 . S
O26 Pr1 2.562 1_545 S
O26 C11 1.254 . S
O27 Pr1 2.490 . S
O27 C11 1.225 1_565 S
O28 Pr0 2.436 1_665 S
O28 Pr1 2.695 1_554 S
O28 C18 1.270 . S
O29 Pr1 2.512 1_554 S
O29 C18 1.248 . S
O30 Pr0 2.419 1_655 S
O30 C19 1.287 . S
O31 Pr1 2.437 1_544 S
O31 C19 1.278 . S
H32 C4 0.929 . S
H33 C5 0.929 1_545 S
H34 C7 0.931 . S
H35 C8 0.930 . S
H36 C13 0.929 . S
H37 C14 0.929 1_565 S
H38 C16 0.931 . S
H39 C17 0.930 . S
Pr40 C42 2.880 . S
Pr40 O60 2.562 . S
Pr40 O61 2.490 . S
Pr40 O62 2.695 . S
Pr40 O63 2.512 . S
Pr40 O65 2.437 . S
Pr40 O68 2.436 . S
Pr40 O70 2.438 . S
Pr41 C51 2.880 . S
Pr41 O62 2.436 . S
Pr41 O64 2.438 . S
Pr41 O66 2.562 . S
Pr41 O67 2.490 . S
Pr41 O68 2.695 . S
Pr41 O69 2.512 . S
Pr41 O71 2.437 . S
C42 Pr40 2.880 . S
C42 C43 1.491 . S
C42 O60 1.254 . S
C42 O61 1.225 . S
C43 C42 1.491 . S
C43 C44 1.392 . S
C43 C48 1.356 . S
C44 C43 1.392 . S
C44 C45 1.368 . S
C44 H72 0.929 . S
C45 C44 1.368 . S
C45 C46 1.386 . S
C45 H73 0.929 . S
C46 C45 1.386 . S
C46 C47 1.373 . S
C47 C46 1.373 . S
C47 C48 1.409 . S
C47 H74 0.931 . S
C48 C43 1.356 . S
C48 C47 1.409 . S
C48 H75 0.930 . S
C49 O62 1.270 . S
C49 O63 1.248 . S
C50 O64 1.267 . S
C50 O65 1.278 . S
C51 Pr41 2.880 . S
C51 C52 1.491 . S
C51 O66 1.254 . S
C51 O67 1.225 . S
C52 C51 1.491 . S
C52 C53 1.392 . S
C52 C57 1.356 . S
C53 C52 1.392 . S
C53 C54 1.368 . S
C53 H76 0.929 . S
C54 C53 1.368 . S
C54 C55 1.386 . S
C54 H77 0.929 . S
C55 C54 1.386 . S
C55 C56 1.373 . S
C56 C55 1.373 . S
C56 C57 1.409 . S
C56 H78 0.931 . S
C57 C52 1.356 . S
C57 C56 1.409 . S
C57 H79 0.930 . S
C58 O68 1.270 . S
C58 O69 1.248 . S
C59 O70 1.267 . S
C59 O71 1.278 . S
O60 Pr40 2.562 . S
O60 C42 1.254 . S
O61 Pr40 2.490 . S
O61 C42 1.225 . S
O62 Pr40 2.695 . S
O62 Pr41 2.436 . S
O62 C49 1.270 . S
O63 Pr40 2.512 . S
O63 C49 1.248 . S
O64 Pr41 2.438 . S
O64 C50 1.267 . S
O65 Pr40 2.437 . S
O65 C50 1.278 . S
O66 Pr41 2.562 . S
O66 C51 1.254 . S
O67 Pr41 2.490 . S
O67 C51 1.225 . S
O68 Pr40 2.436 . S
O68 Pr41 2.695 . S
O68 C58 1.270 . S
O69 Pr41 2.512 . S
O69 C58 1.248 . S
O70 Pr40 2.438 . S
O70 C59 1.267 . S
O71 Pr41 2.437 . S
O71 C59 1.278 . S
H72 C44 0.929 . S
H73 C45 0.929 . S
H74 C47 0.931 . S
H75 C48 0.930 . S
H76 C53 0.929 . S
H77 C54 0.929 . S
H78 C56 0.931 . S
H79 C57 0.930 . S
Pr80 C82 2.880 . S
Pr80 O100 2.562 . S
Pr80 O101 2.490 . S
Pr80 O102 2.695 . S
Pr80 O103 2.512 . S
Pr80 O105 2.437 . S
Pr80 O108 2.436 1_545 S
Pr80 O110 2.438 . S
Pr81 C91 2.880 . S
Pr81 O102 2.436 1_565 S
Pr81 O104 2.438 1_565 S
Pr81 O106 2.562 . S
Pr81 O107 2.490 . S
Pr81 O108 2.695 . S
Pr81 O109 2.512 . S
Pr81 O111 2.437 . S
C82 Pr80 2.880 . S
C82 C83 1.491 . S
C82 O100 1.254 . S
C82 O101 1.225 . S
C83 C82 1.491 . S
C83 C84 1.392 . S
C83 C88 1.356 . S
C84 C83 1.392 . S
C84 C85 1.368 . S
C84 H112 0.929 . S
C85 C84 1.368 . S
C85 C86 1.386 . S
C85 H113 0.929 . S
C86 C85 1.386 . S
C86 C87 1.373 . S
C87 C86 1.373 . S
C87 C88 1.409 . S
C87 H114 0.931 . S
C88 C83 1.356 . S
C88 C87 1.409 . S
C88 H115 0.930 . S
C89 O102 1.270 . S
C89 O103 1.248 . S
C90 O104 1.267 . S
C90 O105 1.278 . S
C91 Pr81 2.880 . S
C91 C92 1.491 . S
C91 O106 1.254 . S
C91 O107 1.225 . S
C92 C91 1.491 . S
C92 C93 1.392 . S
C92 C97 1.356 . S
C93 C92 1.392 . S
C93 C94 1.368 . S
C93 H116 0.929 . S
C94 C93 1.368 . S
C94 C95 1.386 . S
C94 H117 0.929 . S
C95 C94 1.386 . S
C95 C96 1.373 . S
C96 C95 1.373 . S
C96 C97 1.409 . S
C96 H118 0.931 . S
C97 C92 1.356 . S
C97 C96 1.409 . S
C97 H119 0.930 . S
C98 O108 1.270 . S
C98 O109 1.248 . S
C99 O110 1.267 1_565 S
C99 O111 1.278 . S
O100 Pr80 2.562 . S
O100 C82 1.254 . S
O101 Pr80 2.490 . S
O101 C82 1.225 . S
O102 Pr80 2.695 . S
O102 Pr81 2.436 1_545 S
O102 C89 1.270 . S
O103 Pr80 2.512 . S
O103 C89 1.248 . S
O104 Pr81 2.438 1_545 S
O104 C90 1.267 . S
O105 Pr80 2.437 . S
O105 C90 1.278 . S
O106 Pr81 2.562 . S
O106 C91 1.254 . S
O107 Pr81 2.490 . S
O107 C91 1.225 . S
O108 Pr80 2.436 1_565 S
O108 Pr81 2.695 . S
O108 C98 1.270 . S
O109 Pr81 2.512 . S
O109 C98 1.248 . S
O110 Pr80 2.438 . S
O110 C99 1.267 1_545 S
O111 Pr81 2.437 . S
O111 C99 1.278 . S
H112 C84 0.929 . S
H113 C85 0.929 . S
H114 C87 0.931 . S
H115 C88 0.930 . S
H116 C93 0.929 . S
H117 C94 0.929 . S
H118 C96 0.931 . S
H119 C97 0.930 . S
Pr120 C122 2.880 . S
Pr120 O140 2.562 . S
Pr120 O141 2.490 . S
Pr120 O142 2.695 . S
Pr120 O143 2.512 . S
Pr120 O145 2.437 . S
Pr120 O148 2.436 . S
Pr120 O150 2.438 . S
Pr121 C131 2.880 . S
Pr121 O142 2.436 . S
Pr121 O144 2.438 . S
Pr121 O146 2.562 . S
Pr121 O147 2.490 . S
Pr121 O148 2.695 . S
Pr121 O149 2.512 . S
Pr121 O151 2.437 . S
C122 Pr120 2.880 . S
C122 C123 1.491 . S
C122 O140 1.254 . S
C122 O141 1.225 . S
C123 C122 1.491 . S
C123 C124 1.392 . S
C123 C128 1.356 . S
C124 C123 1.392 . S
C124 C125 1.368 . S
C124 H152 0.929 . S
C125 C124 1.368 . S
C125 C126 1.386 . S
C125 H153 0.929 . S
C126 C125 1.386 . S
C126 C127 1.373 . S
C127 C126 1.373 . S
C127 C128 1.409 . S
C127 H154 0.931 . S
C128 C123 1.356 . S
C128 C127 1.409 . S
C128 H155 0.930 . S
C129 O142 1.270 . S
C129 O143 1.248 . S
C130 O144 1.267 . S
C130 O145 1.278 . S
C131 Pr121 2.880 . S
C131 C132 1.491 . S
C131 O146 1.254 . S
C131 O147 1.225 . S
C132 C131 1.491 . S
C132 C133 1.392 . S
C132 C137 1.356 . S
C133 C132 1.392 . S
C133 C134 1.368 . S
C133 H156 0.929 . S
C134 C133 1.368 . S
C134 C135 1.386 . S
C134 H157 0.929 . S
C135 C134 1.386 . S
C135 C136 1.373 . S
C136 C135 1.373 . S
C136 C137 1.409 . S
C136 H158 0.931 . S
C137 C132 1.356 . S
C137 C136 1.409 . S
C137 H159 0.930 . S
C138 O148 1.270 . S
C138 O149 1.248 . S
C139 O150 1.267 . S
C139 O151 1.278 . S
O140 Pr120 2.562 . S
O140 C122 1.254 . S
O141 Pr120 2.490 . S
O141 C122 1.225 . S
O142 Pr120 2.695 . S
O142 Pr121 2.436 . S
O142 C129 1.270 . S
O143 Pr120 2.512 . S
O143 C129 1.248 . S
O144 Pr121 2.438 . S
O144 C130 1.267 . S
O145 Pr120 2.437 . S
O145 C130 1.278 . S
O146 Pr121 2.562 . S
O146 C131 1.254 . S
O147 Pr121 2.490 . S
O147 C131 1.225 . S
O148 Pr120 2.436 . S
O148 Pr121 2.695 . S
O148 C138 1.270 . S
O149 Pr121 2.512 . S
O149 C138 1.248 . S
O150 Pr120 2.438 . S
O150 C139 1.267 . S
O151 Pr121 2.437 . S
O151 C139 1.278 . S
H152 C124 0.929 . S
H153 C125 0.929 . S
H154 C127 0.931 . S
H155 C128 0.930 . S
H156 C133 0.929 . S
H157 C134 0.929 . S
H158 C136 0.931 . S
H159 C137 0.930 . S
Pr160 C162 2.880 . S
Pr160 O180 2.562 . S
Pr160 O181 2.490 . S
Pr160 O182 2.695 1_545 S
Pr160 O183 2.512 1_545 S
Pr160 O185 2.437 1_545 S
Pr160 O188 2.436 1_655 S
Pr160 O190 2.438 1_655 S
Pr161 C171 2.880 . S
Pr161 O182 2.436 1_455 S
Pr161 O184 2.438 1_455 S
Pr161 O186 2.562 . S
Pr161 O187 2.490 . S
Pr161 O188 2.695 1_565 S
Pr161 O189 2.512 1_565 S
Pr161 O191 2.437 1_565 S
C162 Pr160 2.880 . S
C162 C163 1.491 . S
C162 O180 1.254 . S
C162 O181 1.225 . S
C163 C162 1.491 . S
C163 C164 1.392 . S
C163 C168 1.356 . S
C164 C163 1.392 . S
C164 C165 1.368 . S
C164 H192 0.929 . S
C165 C164 1.368 . S
C165 C166 1.386 . S
C165 H193 0.929 . S
C166 C165 1.386 . S
C166 C167 1.373 . S
C167 C166 1.373 . S
C167 C168 1.409 . S
C167 H194 0.931 . S
C168 C163 1.356 . S
C168 C167 1.409 . S
C168 H195 0.930 . S
C169 O182 1.270 . S
C169 O183 1.248 . S
C170 O184 1.267 . S
C170 O185 1.278 . S
C171 Pr161 2.880 . S
C171 C172 1.491 . S
C171 O186 1.254 . S
C171 O187 1.225 . S
C172 C171 1.491 . S
C172 C173 1.392 . S
C172 C177 1.356 . S
C173 C172 1.392 . S
C173 C174 1.368 . S
C173 H196 0.929 . S
C174 C173 1.368 . S
C174 C175 1.386 . S
C174 H197 0.929 . S
C175 C174 1.386 . S
C175 C176 1.373 . S
C176 C175 1.373 . S
C176 C177 1.409 . S
C176 H198 0.931 . S
C177 C172 1.356 . S
C177 C176 1.409 . S
C177 H199 0.930 . S
C178 O188 1.270 . S
C178 O189 1.248 . S
C179 O190 1.267 . S
C179 O191 1.278 . S
O180 Pr160 2.562 . S
O180 C162 1.254 . S
O181 Pr160 2.490 . S
O181 C162 1.225 . S
O182 Pr160 2.695 1_565 S
O182 Pr161 2.436 1_655 S
O182 C169 1.270 . S
O183 Pr160 2.512 1_565 S
O183 C169 1.248 . S
O184 Pr161 2.438 1_655 S
O184 C170 1.267 . S
O185 Pr160 2.437 1_565 S
O185 C170 1.278 . S
O186 Pr161 2.562 . S
O186 C171 1.254 . S
O187 Pr161 2.490 . S
O187 C171 1.225 . S
O188 Pr160 2.436 1_455 S
O188 Pr161 2.695 1_545 S
O188 C178 1.270 . S
O189 Pr161 2.512 1_545 S
O189 C178 1.248 . S
O190 Pr160 2.438 1_455 S
O190 C179 1.267 . S
O191 Pr161 2.437 1_545 S
O191 C179 1.278 . S
H192 C164 0.929 . S
H193 C165 0.929 . S
H194 C167 0.931 . S
H195 C168 0.930 . S
H196 C173 0.929 . S
H197 C174 0.929 . S
H198 C176 0.931 . S
H199 C177 0.930 . S
Pr200 C202 2.880 . S
Pr200 O220 2.562 . S
Pr200 O221 2.490 . S
Pr200 O222 2.695 . S
Pr200 O223 2.512 . S
Pr200 O225 2.437 . S
Pr200 O228 2.436 . S
Pr200 O230 2.438 . S
Pr201 C211 2.880 . S
Pr201 O222 2.436 . S
Pr201 O224 2.438 . S
Pr201 O226 2.562 . S
Pr201 O227 2.490 . S
Pr201 O228 2.695 . S
Pr201 O229 2.512 . S
Pr201 O231 2.437 . S
C202 Pr200 2.880 . S
C202 C203 1.491 . S
C202 O220 1.254 . S
C202 O221 1.225 . S
C203 C202 1.491 . S
C203 C204 1.392 . S
C203 C208 1.356 . S
C204 C203 1.392 . S
C204 C205 1.368 . S
C204 H232 0.929 . S
C205 C204 1.368 . S
C205 C206 1.386 . S
C205 H233 0.929 . S
C206 C205 1.386 . S
C206 C207 1.373 . S
C207 C206 1.373 . S
C207 C208 1.409 . S
C207 H234 0.931 . S
C208 C203 1.356 . S
C208 C207 1.409 . S
C208 H235 0.930 . S
C209 O222 1.270 . S
C209 O223 1.248 . S
C210 O224 1.267 . S
C210 O225 1.278 . S
C211 Pr201 2.880 . S
C211 C212 1.491 . S
C211 O226 1.254 . S
C211 O227 1.225 . S
C212 C211 1.491 . S
C212 C213 1.392 . S
C212 C217 1.356 . S
C213 C212 1.392 . S
C213 C214 1.368 . S
C213 H236 0.929 . S
C214 C213 1.368 . S
C214 C215 1.386 . S
C214 H237 0.929 . S
C215 C214 1.386 . S
C215 C216 1.373 . S
C216 C215 1.373 . S
C216 C217 1.409 . S
C216 H238 0.931 . S
C217 C212 1.356 . S
C217 C216 1.409 . S
C217 H239 0.930 . S
C218 O228 1.270 . S
C218 O229 1.248 . S
C219 O230 1.267 . S
C219 O231 1.278 . S
O220 Pr200 2.562 . S
O220 C202 1.254 . S
O221 Pr200 2.490 . S
O221 C202 1.225 . S
O222 Pr200 2.695 . S
O222 Pr201 2.436 . S
O222 C209 1.270 . S
O223 Pr200 2.512 . S
O223 C209 1.248 . S
O224 Pr201 2.438 . S
O224 C210 1.267 . S
O225 Pr200 2.437 . S
O225 C210 1.278 . S
O226 Pr201 2.562 . S
O226 C211 1.254 . S
O227 Pr201 2.490 . S
O227 C211 1.225 . S
O228 Pr200 2.436 . S
O228 Pr201 2.695 . S
O228 C218 1.270 . S
O229 Pr201 2.512 . S
O229 C218 1.248 . S
O230 Pr200 2.438 . S
O230 C219 1.267 . S
O231 Pr201 2.437 . S
O231 C219 1.278 . S
H232 C204 0.929 . S
H233 C205 0.929 . S
H234 C207 0.931 . S
H235 C208 0.930 . S
H236 C213 0.929 . S
H237 C214 0.929 . S
H238 C216 0.931 . S
H239 C217 0.930 . S
Pr240 C242 2.880 . S
Pr240 O260 2.562 . S
Pr240 O261 2.490 . S
Pr240 O262 2.695 1_566 S
Pr240 O263 2.512 1_566 S
Pr240 O265 2.437 1_565 S
Pr240 O268 2.436 . S
Pr240 O270 2.438 1_556 S
Pr241 C251 2.880 . S
Pr241 O262 2.436 . S
Pr241 O264 2.438 1_554 S
Pr241 O266 2.562 . S
Pr241 O267 2.490 . S
Pr241 O268 2.695 1_544 S
Pr241 O269 2.512 1_544 S
Pr241 O271 2.437 1_545 S
C242 Pr240 2.880 . S
C242 C243 1.491 . S
C242 O260 1.254 . S
C242 O261 1.225 . S
C243 C242 1.491 . S
C243 C244 1.392 . S
C243 C248 1.356 . S
C244 C243 1.392 . S
C244 C245 1.368 . S
C244 H272 0.929 . S
C245 C244 1.368 . S
C245 C246 1.386 . S
C245 H273 0.929 . S
C246 C245 1.386 . S
C246 C247 1.373 . S
C247 C246 1.373 . S
C247 C248 1.409 . S
C247 H274 0.931 . S
C248 C243 1.356 . S
C248 C247 1.409 . S
C248 H275 0.930 . S
C249 O262 1.270 . S
C249 O263 1.248 . S
C250 O264 1.267 . S
C250 O265 1.278 . S
C251 Pr241 2.880 . S
C251 C252 1.491 . S
C251 O266 1.254 . S
C251 O267 1.225 . S
C252 C251 1.491 . S
C252 C253 1.392 . S
C252 C257 1.356 . S
C253 C252 1.392 . S
C253 C254 1.368 . S
C253 H276 0.929 . S
C254 C253 1.368 . S
C254 C255 1.386 . S
C254 H277 0.929 . S
C255 C254 1.386 . S
C255 C256 1.373 . S
C256 C255 1.373 . S
C256 C257 1.409 . S
C256 H278 0.931 . S
C257 C252 1.356 . S
C257 C256 1.409 . S
C257 H279 0.930 . S
C258 O268 1.270 . S
C258 O269 1.248 . S
C259 O270 1.267 . S
C259 O271 1.278 . S
O260 Pr240 2.562 . S
O260 C242 1.254 . S
O261 Pr240 2.490 . S
O261 C242 1.225 . S
O262 Pr240 2.695 1_544 S
O262 Pr241 2.436 . S
O262 C249 1.270 . S
O263 Pr240 2.512 1_544 S
O263 C249 1.248 . S
O264 Pr241 2.438 1_556 S
O264 C250 1.267 . S
O265 Pr240 2.437 1_545 S
O265 C250 1.278 . S
O266 Pr241 2.562 . S
O266 C251 1.254 . S
O267 Pr241 2.490 . S
O267 C251 1.225 . S
O268 Pr240 2.436 . S
O268 Pr241 2.695 1_566 S
O268 C258 1.270 . S
O269 Pr241 2.512 1_566 S
O269 C258 1.248 . S
O270 Pr240 2.438 1_554 S
O270 C259 1.267 . S
O271 Pr241 2.437 1_565 S
O271 C259 1.278 . S
H272 C244 0.929 . S
H273 C245 0.929 . S
H274 C247 0.931 . S
H275 C248 0.930 . S
H276 C253 0.929 . S
H277 C254 0.929 . S
H278 C256 0.931 . S
H279 C257 0.930 . S
Pr280 C282 2.880 . S
Pr280 O300 2.562 . S
Pr280 O301 2.490 . S
Pr280 O302 2.695 . S
Pr280 O303 2.512 . S
Pr280 O305 2.437 . S
Pr280 O308 2.436 . S
Pr280 O310 2.438 . S
Pr281 C291 2.880 . S
Pr281 O302 2.436 . S
Pr281 O304 2.438 . S
Pr281 O306 2.562 . S
Pr281 O307 2.490 . S
Pr281 O308 2.695 . S
Pr281 O309 2.512 . S
Pr281 O311 2.437 . S
C282 Pr280 2.880 . S
C282 C283 1.491 . S
C282 O300 1.254 . S
C282 O301 1.225 . S
C283 C282 1.491 . S
C283 C284 1.392 . S
C283 C288 1.356 . S
C284 C283 1.392 . S
C284 C285 1.368 . S
C284 H312 0.929 . S
C285 C284 1.368 . S
C285 C286 1.386 . S
C285 H313 0.929 . S
C286 C285 1.386 . S
C286 C287 1.373 . S
C287 C286 1.373 . S
C287 C288 1.409 . S
C287 H314 0.931 . S
C288 C283 1.356 . S
C288 C287 1.409 . S
C288 H315 0.930 . S
C289 O302 1.270 . S
C289 O303 1.248 . S
C290 O304 1.267 . S
C290 O305 1.278 . S
C291 Pr281 2.880 . S
C291 C292 1.491 . S
C291 O306 1.254 . S
C291 O307 1.225 . S
C292 C291 1.491 . S
C292 C293 1.392 . S
C292 C297 1.356 . S
C293 C292 1.392 . S
C293 C294 1.368 . S
C293 H316 0.929 . S
C294 C293 1.368 . S
C294 C295 1.386 . S
C294 H317 0.929 . S
C295 C294 1.386 . S
C295 C296 1.373 . S
C296 C295 1.373 . S
C296 C297 1.409 . S
C296 H318 0.931 . S
C297 C292 1.356 . S
C297 C296 1.409 . S
C297 H319 0.930 . S
C298 O308 1.270 . S
C298 O309 1.248 . S
C299 O310 1.267 . S
C299 O311 1.278 . S
O300 Pr280 2.562 . S
O300 C282 1.254 . S
O301 Pr280 2.490 . S
O301 C282 1.225 . S
O302 Pr280 2.695 . S
O302 Pr281 2.436 . S
O302 C289 1.270 . S
O303 Pr280 2.512 . S
O303 C289 1.248 . S
O304 Pr281 2.438 . S
O304 C290 1.267 . S
O305 Pr280 2.437 . S
O305 C290 1.278 . S
O306 Pr281 2.562 . S
O306 C291 1.254 . S
O307 Pr281 2.490 . S
O307 C291 1.225 . S
O308 Pr280 2.436 . S
O308 Pr281 2.695 . S
O308 C298 1.270 . S
O309 Pr281 2.512 . S
O309 C298 1.248 . S
O310 Pr280 2.438 . S
O310 C299 1.267 . S
O311 Pr281 2.437 . S
O311 C299 1.278 . S
H312 C284 0.929 . S
H313 C285 0.929 . S
H314 C287 0.931 . S
H315 C288 0.930 . S
H316 C293 0.929 . S
H317 C294 0.929 . S
H318 C296 0.931 . S
H319 C297 0.930 . S
Pr320 C322 2.880 1_554 S
Pr320 O340 2.562 1_554 S
Pr320 O341 2.490 . S
Pr320 O342 2.695 . S
Pr320 O343 2.512 . S
Pr320 O345 2.437 1_554 S
Pr320 O348 2.436 1_554 S
Pr320 O350 2.438 . S
Pr321 C331 2.880 1_556 S
Pr321 O342 2.436 1_556 S
Pr321 O344 2.438 . S
Pr321 O346 2.562 1_556 S
Pr321 O347 2.490 . S
Pr321 O348 2.695 . S
Pr321 O349 2.512 . S
Pr321 O351 2.437 1_556 S
C322 Pr320 2.880 1_556 S
C322 C323 1.491 . S
C322 O340 1.254 . S
C322 O341 1.225 1_556 S
C323 C322 1.491 . S
C323 C324 1.392 . S
C323 C328 1.356 . S
C324 C323 1.392 . S
C324 C325 1.368 . S
C324 H352 0.929 1_556 S
C325 C324 1.368 . S
C325 C326 1.386 . S
C325 H353 0.929 . S
C326 C325 1.386 . S
C326 C327 1.373 . S
C327 C326 1.373 . S
C327 C328 1.409 . S
C327 H354 0.931 . S
C328 C323 1.356 . S
C328 C327 1.409 . S
C328 H355 0.930 . S
C329 O342 1.270 . S
C329 O343 1.248 . S
C330 O344 1.267 . S
C330 O345 1.278 . S
C331 Pr321 2.880 1_554 S
C331 C332 1.491 . S
C331 O346 1.254 . S
C331 O347 1.225 1_554 S
C332 C331 1.491 . S
C332 C333 1.392 . S
C332 C337 1.356 . S
C333 C332 1.392 . S
C333 C334 1.368 . S
C333 H356 0.929 1_554 S
C334 C333 1.368 . S
C334 C335 1.386 . S
C334 H357 0.929 . S
C335 C334 1.386 . S
C335 C336 1.373 . S
C336 C335 1.373 . S
C336 C337 1.409 . S
C336 H358 0.931 . S
C337 C332 1.356 . S
C337 C336 1.409 . S
C337 H359 0.930 . S
C338 O348 1.270 . S
C338 O349 1.248 . S
C339 O350 1.267 . S
C339 O351 1.278 . S
O340 Pr320 2.562 1_556 S
O340 C322 1.254 . S
O341 Pr320 2.490 . S
O341 C322 1.225 1_554 S
O342 Pr320 2.695 . S
O342 Pr321 2.436 1_554 S
O342 C329 1.270 . S
O343 Pr320 2.512 . S
O343 C329 1.248 . S
O344 Pr321 2.438 . S
O344 C330 1.267 . S
O345 Pr320 2.437 1_556 S
O345 C330 1.278 . S
O346 Pr321 2.562 1_554 S
O346 C331 1.254 . S
O347 Pr321 2.490 . S
O347 C331 1.225 1_556 S
O348 Pr320 2.436 1_556 S
O348 Pr321 2.695 . S
O348 C338 1.270 . S
O349 Pr321 2.512 . S
O349 C338 1.248 . S
O350 Pr320 2.438 . S
O350 C339 1.267 . S
O351 Pr321 2.437 1_554 S
O351 C339 1.278 . S
H352 C324 0.929 1_554 S
H353 C325 0.929 . S
H354 C327 0.931 . S
H355 C328 0.930 . S
H356 C333 0.929 1_556 S
H357 C334 0.929 . S
H358 C336 0.931 . S
H359 C337 0.930 . S
Pr360 C362 2.880 . S
Pr360 O380 2.562 . S
Pr360 O381 2.490 . S
Pr360 O382 2.695 . S
Pr360 O383 2.512 . S
Pr360 O385 2.437 . S
Pr360 O388 2.436 . S
Pr360 O390 2.438 . S
Pr361 C371 2.880 . S
Pr361 O382 2.436 . S
Pr361 O384 2.438 . S
Pr361 O386 2.562 . S
Pr361 O387 2.490 . S
Pr361 O388 2.695 . S
Pr361 O389 2.512 . S
Pr361 O391 2.437 . S
C362 Pr360 2.880 . S
C362 C363 1.491 . S
C362 O380 1.254 . S
C362 O381 1.225 . S
C363 C362 1.491 . S
C363 C364 1.392 . S
C363 C368 1.356 . S
C364 C363 1.392 . S
C364 C365 1.368 . S
C364 H392 0.929 . S
C365 C364 1.368 . S
C365 C366 1.386 . S
C365 H393 0.929 . S
C366 C365 1.386 . S
C366 C367 1.373 . S
C367 C366 1.373 . S
C367 C368 1.409 . S
C367 H394 0.931 . S
C368 C363 1.356 . S
C368 C367 1.409 . S
C368 H395 0.930 . S
C369 O382 1.270 . S
C369 O383 1.248 . S
C370 O384 1.267 . S
C370 O385 1.278 . S
C371 Pr361 2.880 . S
C371 C372 1.491 . S
C371 O386 1.254 . S
C371 O387 1.225 . S
C372 C371 1.491 . S
C372 C373 1.392 . S
C372 C377 1.356 . S
C373 C372 1.392 . S
C373 C374 1.368 . S
C373 H396 0.929 . S
C374 C373 1.368 . S
C374 C375 1.386 . S
C374 H397 0.929 . S
C375 C374 1.386 . S
C375 C376 1.373 . S
C376 C375 1.373 . S
C376 C377 1.409 . S
C376 H398 0.931 . S
C377 C372 1.356 . S
C377 C376 1.409 . S
C377 H399 0.930 . S
C378 O388 1.270 . S
C378 O389 1.248 . S
C379 O390 1.267 . S
C379 O391 1.278 . S
O380 Pr360 2.562 . S
O380 C362 1.254 . S
O381 Pr360 2.490 . S
O381 C362 1.225 . S
O382 Pr360 2.695 . S
O382 Pr361 2.436 . S
O382 C369 1.270 . S
O383 Pr360 2.512 . S
O383 C369 1.248 . S
O384 Pr361 2.438 . S
O384 C370 1.267 . S
O385 Pr360 2.437 . S
O385 C370 1.278 . S
O386 Pr361 2.562 . S
O386 C371 1.254 . S
O387 Pr361 2.490 . S
O387 C371 1.225 . S
O388 Pr360 2.436 . S
O388 Pr361 2.695 . S
O388 C378 1.270 . S
O389 Pr361 2.512 . S
O389 C378 1.248 . S
O390 Pr360 2.438 . S
O390 C379 1.267 . S
O391 Pr361 2.437 . S
O391 C379 1.278 . S
H392 C364 0.929 . S
H393 C365 0.929 . S
H394 C367 0.931 . S
H395 C368 0.930 . S
H396 C373 0.929 . S
H397 C374 0.929 . S
H398 C376 0.931 . S
H399 C377 0.930 . S
Pr400 C402 2.880 . S
Pr400 O420 2.562 . S
Pr400 O421 2.490 . S
Pr400 O422 2.695 . S
Pr400 O423 2.512 . S
Pr400 O425 2.437 . S
Pr400 O428 2.436 1_455 S
Pr400 O430 2.438 1_455 S
Pr401 C411 2.880 . S
Pr401 O422 2.436 1_655 S
Pr401 O424 2.438 1_655 S
Pr401 O426 2.562 . S
Pr401 O427 2.490 . S
Pr401 O428 2.695 . S
Pr401 O429 2.512 . S
Pr401 O431 2.437 . S
C402 Pr400 2.880 . S
C402 C403 1.491 . S
C402 O420 1.254 . S
C402 O421 1.225 . S
C403 C402 1.491 . S
C403 C404 1.392 . S
C403 C408 1.356 . S
C404 C403 1.392 . S
C404 C405 1.368 . S
C404 H432 0.929 . S
C405 C404 1.368 . S
C405 C406 1.386 . S
C405 H433 0.929 . S
C406 C405 1.386 . S
C406 C407 1.373 . S
C407 C406 1.373 . S
C407 C408 1.409 . S
C407 H434 0.931 . S
C408 C403 1.356 . S
C408 C407 1.409 . S
C408 H435 0.930 . S
C409 O422 1.270 . S
C409 O423 1.248 . S
C410 O424 1.267 . S
C410 O425 1.278 . S
C411 Pr401 2.880 . S
C411 C412 1.491 . S
C411 O426 1.254 . S
C411 O427 1.225 . S
C412 C411 1.491 . S
C412 C413 1.392 . S
C412 C417 1.356 . S
C413 C412 1.392 . S
C413 C414 1.368 . S
C413 H436 0.929 . S
C414 C413 1.368 . S
C414 C415 1.386 . S
C414 H437 0.929 . S
C415 C414 1.386 . S
C415 C416 1.373 . S
C416 C415 1.373 . S
C416 C417 1.409 . S
C416 H438 0.931 . S
C417 C412 1.356 . S
C417 C416 1.409 . S
C417 H439 0.930 . S
C418 O428 1.270 . S
C418 O429 1.248 . S
C419 O430 1.267 . S
C419 O431 1.278 . S
O420 Pr400 2.562 . S
O420 C402 1.254 . S
O421 Pr400 2.490 . S
O421 C402 1.225 . S
O422 Pr400 2.695 . S
O422 Pr401 2.436 1_455 S
O422 C409 1.270 . S
O423 Pr400 2.512 . S
O423 C409 1.248 . S
O424 Pr401 2.438 1_455 S
O424 C410 1.267 . S
O425 Pr400 2.437 . S
O425 C410 1.278 . S
O426 Pr401 2.562 . S
O426 C411 1.254 . S
O427 Pr401 2.490 . S
O427 C411 1.225 . S
O428 Pr400 2.436 1_655 S
O428 Pr401 2.695 . S
O428 C418 1.270 . S
O429 Pr401 2.512 . S
O429 C418 1.248 . S
O430 Pr400 2.438 1_655 S
O430 C419 1.267 . S
O431 Pr401 2.437 . S
O431 C419 1.278 . S
H432 C404 0.929 . S
H433 C405 0.929 . S
H434 C407 0.931 . S
H435 C408 0.930 . S
H436 C413 0.929 . S
H437 C414 0.929 . S
H438 C416 0.931 . S
H439 C417 0.930 . S
Pr440 C442 2.880 . S
Pr440 O460 2.562 . S
Pr440 O461 2.490 . S
Pr440 O462 2.695 . S
Pr440 O463 2.512 . S
Pr440 O465 2.437 . S
Pr440 O468 2.436 . S
Pr440 O470 2.438 . S
Pr441 C451 2.880 . S
Pr441 O462 2.436 . S
Pr441 O464 2.438 . S
Pr441 O466 2.562 . S
Pr441 O467 2.490 . S
Pr441 O468 2.695 . S
Pr441 O469 2.512 . S
Pr441 O471 2.437 . S
C442 Pr440 2.880 . S
C442 C443 1.491 . S
C442 O460 1.254 . S
C442 O461 1.225 . S
C443 C442 1.491 . S
C443 C444 1.392 . S
C443 C448 1.356 . S
C444 C443 1.392 . S
C444 C445 1.368 . S
C444 H472 0.929 . S
C445 C444 1.368 . S
C445 C446 1.386 . S
C445 H473 0.929 . S
C446 C445 1.386 . S
C446 C447 1.373 . S
C447 C446 1.373 . S
C447 C448 1.409 . S
C447 H474 0.931 . S
C448 C443 1.356 . S
C448 C447 1.409 . S
C448 H475 0.930 . S
C449 O462 1.270 . S
C449 O463 1.248 . S
C450 O464 1.267 . S
C450 O465 1.278 . S
C451 Pr441 2.880 . S
C451 C452 1.491 . S
C451 O466 1.254 . S
C451 O467 1.225 . S
C452 C451 1.491 . S
C452 C453 1.392 . S
C452 C457 1.356 . S
C453 C452 1.392 . S
C453 C454 1.368 . S
C453 H476 0.929 . S
C454 C453 1.368 . S
C454 C455 1.386 . S
C454 H477 0.929 . S
C455 C454 1.386 . S
C455 C456 1.373 . S
C456 C455 1.373 . S
C456 C457 1.409 . S
C456 H478 0.931 . S
C457 C452 1.356 . S
C457 C456 1.409 . S
C457 H479 0.930 . S
C458 O468 1.270 . S
C458 O469 1.248 . S
C459 O470 1.267 . S
C459 O471 1.278 . S
O460 Pr440 2.562 . S
O460 C442 1.254 . S
O461 Pr440 2.490 . S
O461 C442 1.225 . S
O462 Pr440 2.695 . S
O462 Pr441 2.436 . S
O462 C449 1.270 . S
O463 Pr440 2.512 . S
O463 C449 1.248 . S
O464 Pr441 2.438 . S
O464 C450 1.267 . S
O465 Pr440 2.437 . S
O465 C450 1.278 . S
O466 Pr441 2.562 . S
O466 C451 1.254 . S
O467 Pr441 2.490 . S
O467 C451 1.225 . S
O468 Pr440 2.436 . S
O468 Pr441 2.695 . S
O468 C458 1.270 . S
O469 Pr441 2.512 . S
O469 C458 1.248 . S
O470 Pr440 2.438 . S
O470 C459 1.267 . S
O471 Pr441 2.437 . S
O471 C459 1.278 . S
H472 C444 0.929 . S
H473 C445 0.929 . S
H474 C447 0.931 . S
H475 C448 0.930 . S
H476 C453 0.929 . S
H477 C454 0.929 . S
H478 C456 0.931 . S
H479 C457 0.930 . S
Pr480 C482 2.880 . S
Pr480 O500 2.562 . S
Pr480 O501 2.490 . S
Pr480 O502 2.695 . S
Pr480 O503 2.512 . S
Pr480 O505 2.437 . S
Pr480 O508 2.436 . S
Pr480 O510 2.438 . S
Pr481 C491 2.880 . S
Pr481 O502 2.436 . S
Pr481 O504 2.438 . S
Pr481 O506 2.562 . S
Pr481 O507 2.490 . S
Pr481 O508 2.695 . S
Pr481 O509 2.512 . S
Pr481 O511 2.437 . S
C482 Pr480 2.880 . S
C482 C483 1.491 . S
C482 O500 1.254 . S
C482 O501 1.225 . S
C483 C482 1.491 . S
C483 C484 1.392 . S
C483 C488 1.356 . S
C484 C483 1.392 . S
C484 C485 1.368 . S
C484 H512 0.929 . S
C485 C484 1.368 . S
C485 C486 1.386 . S
C485 H513 0.929 . S
C486 C485 1.386 . S
C486 C487 1.373 . S
C487 C486 1.373 . S
C487 C488 1.409 . S
C487 H514 0.931 . S
C488 C483 1.356 . S
C488 C487 1.409 . S
C488 H515 0.930 . S
C489 O502 1.270 . S
C489 O503 1.248 . S
C490 O504 1.267 . S
C490 O505 1.278 . S
C491 Pr481 2.880 . S
C491 C492 1.491 . S
C491 O506 1.254 . S
C491 O507 1.225 . S
C492 C491 1.491 . S
C492 C493 1.392 . S
C492 C497 1.356 . S
C493 C492 1.392 . S
C493 C494 1.368 . S
C493 H516 0.929 . S
C494 C493 1.368 . S
C494 C495 1.386 . S
C494 H517 0.929 . S
C495 C494 1.386 . S
C495 C496 1.373 . S
C496 C495 1.373 . S
C496 C497 1.409 . S
C496 H518 0.931 . S
C497 C492 1.356 . S
C497 C496 1.409 . S
C497 H519 0.930 . S
C498 O508 1.270 . S
C498 O509 1.248 . S
C499 O510 1.267 . S
C499 O511 1.278 . S
O500 Pr480 2.562 . S
O500 C482 1.254 . S
O501 Pr480 2.490 . S
O501 C482 1.225 . S
O502 Pr480 2.695 . S
O502 Pr481 2.436 . S
O502 C489 1.270 . S
O503 Pr480 2.512 . S
O503 C489 1.248 . S
O504 Pr481 2.438 . S
O504 C490 1.267 . S
O505 Pr480 2.437 . S
O505 C490 1.278 . S
O506 Pr481 2.562 . S
O506 C491 1.254 . S
O507 Pr481 2.490 . S
O507 C491 1.225 . S
O508 Pr480 2.436 . S
O508 Pr481 2.695 . S
O508 C498 1.270 . S
O509 Pr481 2.512 . S
O509 C498 1.248 . S
O510 Pr480 2.438 . S
O510 C499 1.267 . S
O511 Pr481 2.437 . S
O511 C499 1.278 . S
H512 C484 0.929 . S
H513 C485 0.929 . S
H514 C487 0.931 . S
H515 C488 0.930 . S
H516 C493 0.929 . S
H517 C494 0.929 . S
H518 C496 0.931 . S
H519 C497 0.930 . S
Pr520 C522 2.880 . S
Pr520 O540 2.562 . S
Pr520 O541 2.490 . S
Pr520 O542 2.695 . S
Pr520 O543 2.512 . S
Pr520 O545 2.437 . S
Pr520 O548 2.436 . S
Pr520 O550 2.438 . S
Pr521 C531 2.880 . S
Pr521 O542 2.436 . S
Pr521 O544 2.438 . S
Pr521 O546 2.562 . S
Pr521 O547 2.490 . S
Pr521 O548 2.695 . S
Pr521 O549 2.512 . S
Pr521 O551 2.437 . S
C522 Pr520 2.880 . S
C522 C523 1.491 . S
C522 O540 1.254 . S
C522 O541 1.225 . S
C523 C522 1.491 . S
C523 C524 1.392 . S
C523 C528 1.356 . S
C524 C523 1.392 . S
C524 C525 1.368 . S
C524 H552 0.929 . S
C525 C524 1.368 . S
C525 C526 1.386 . S
C525 H553 0.929 . S
C526 C525 1.386 . S
C526 C527 1.373 . S
C527 C526 1.373 . S
C527 C528 1.409 . S
C527 H554 0.931 . S
C528 C523 1.356 . S
C528 C527 1.409 . S
C528 H555 0.930 . S
C529 O542 1.270 . S
C529 O543 1.248 . S
C530 O544 1.267 . S
C530 O545 1.278 . S
C531 Pr521 2.880 . S
C531 C532 1.491 . S
C531 O546 1.254 . S
C531 O547 1.225 . S
C532 C531 1.491 . S
C532 C533 1.392 . S
C532 C537 1.356 . S
C533 C532 1.392 . S
C533 C534 1.368 . S
C533 H556 0.929 . S
C534 C533 1.368 . S
C534 C535 1.386 . S
C534 H557 0.929 . S
C535 C534 1.386 . S
C535 C536 1.373 . S
C536 C535 1.373 . S
C536 C537 1.409 . S
C536 H558 0.931 . S
C537 C532 1.356 . S
C537 C536 1.409 . S
C537 H559 0.930 . S
C538 O548 1.270 . S
C538 O549 1.248 . S
C539 O550 1.267 . S
C539 O551 1.278 . S
O540 Pr520 2.562 . S
O540 C522 1.254 . S
O541 Pr520 2.490 . S
O541 C522 1.225 . S
O542 Pr520 2.695 . S
O542 Pr521 2.436 . S
O542 C529 1.270 . S
O543 Pr520 2.512 . S
O543 C529 1.248 . S
O544 Pr521 2.438 . S
O544 C530 1.267 . S
O545 Pr520 2.437 . S
O545 C530 1.278 . S
O546 Pr521 2.562 . S
O546 C531 1.254 . S
O547 Pr521 2.490 . S
O547 C531 1.225 . S
O548 Pr520 2.436 . S
O548 Pr521 2.695 . S
O548 C538 1.270 . S
O549 Pr521 2.512 . S
O549 C538 1.248 . S
O550 Pr520 2.438 . S
O550 C539 1.267 . S
O551 Pr521 2.437 . S
O551 C539 1.278 . S
H552 C524 0.929 . S
H553 C525 0.929 . S
H554 C527 0.931 . S
H555 C528 0.930 . S
H556 C533 0.929 . S
H557 C534 0.929 . S
H558 C536 0.931 . S
H559 C537 0.930 . S
Pr560 C562 2.880 . S
Pr560 O580 2.562 . S
Pr560 O581 2.490 . S
Pr560 O582 2.695 . S
Pr560 O583 2.512 . S
Pr560 O585 2.437 . S
Pr560 O588 2.436 . S
Pr560 O590 2.438 . S
Pr561 C571 2.880 . S
Pr561 O582 2.436 . S
Pr561 O584 2.438 . S
Pr561 O586 2.562 . S
Pr561 O587 2.490 . S
Pr561 O588 2.695 . S
Pr561 O589 2.512 . S
Pr561 O591 2.437 . S
C562 Pr560 2.880 . S
C562 C563 1.491 . S
C562 O580 1.254 . S
C562 O581 1.225 . S
C563 C562 1.491 . S
C563 C564 1.392 . S
C563 C568 1.356 . S
C564 C563 1.392 . S
C564 C565 1.368 . S
C564 H592 0.929 . S
C565 C564 1.368 . S
C565 C566 1.386 . S
C565 H593 0.929 . S
C566 C565 1.386 . S
C566 C567 1.373 . S
C567 C566 1.373 . S
C567 C568 1.409 . S
C567 H594 0.931 . S
C568 C563 1.356 . S
C568 C567 1.409 . S
C568 H595 0.930 . S
C569 O582 1.270 . S
C569 O583 1.248 . S
C570 O584 1.267 . S
C570 O585 1.278 . S
C571 Pr561 2.880 . S
C571 C572 1.491 . S
C571 O586 1.254 . S
C571 O587 1.225 . S
C572 C571 1.491 . S
C572 C573 1.392 . S
C572 C577 1.356 . S
C573 C572 1.392 . S
C573 C574 1.368 . S
C573 H596 0.929 . S
C574 C573 1.368 . S
C574 C575 1.386 . S
C574 H597 0.929 . S
C575 C574 1.386 . S
C575 C576 1.373 . S
C576 C575 1.373 . S
C576 C577 1.409 . S
C576 H598 0.931 . S
C577 C572 1.356 . S
C577 C576 1.409 . S
C577 H599 0.930 . S
C578 O588 1.270 . S
C578 O589 1.248 . S
C579 O590 1.267 . S
C579 O591 1.278 . S
O580 Pr560 2.562 . S
O580 C562 1.254 . S
O581 Pr560 2.490 . S
O581 C562 1.225 . S
O582 Pr560 2.695 . S
O582 Pr561 2.436 . S
O582 C569 1.270 . S
O583 Pr560 2.512 . S
O583 C569 1.248 . S
O584 Pr561 2.438 . S
O584 C570 1.267 . S
O585 Pr560 2.437 . S
O585 C570 1.278 . S
O586 Pr561 2.562 . S
O586 C571 1.254 . S
O587 Pr561 2.490 . S
O587 C571 1.225 . S
O588 Pr560 2.436 . S
O588 Pr561 2.695 . S
O588 C578 1.270 . S
O589 Pr561 2.512 . S
O589 C578 1.248 . S
O590 Pr560 2.438 . S
O590 C579 1.267 . S
O591 Pr561 2.437 . S
O591 C579 1.278 . S
H592 C564 0.929 . S
H593 C565 0.929 . S
H594 C567 0.931 . S
H595 C568 0.930 . S
H596 C573 0.929 . S
H597 C574 0.929 . S
H598 C576 0.931 . S
H599 C577 0.930 . S
Pr600 C602 2.880 1_455 S
Pr600 O620 2.562 1_455 S
Pr600 O621 2.490 . S
Pr600 O622 2.695 1_556 S
Pr600 O623 2.512 1_556 S
Pr600 O625 2.437 1_456 S
Pr600 O628 2.436 1_455 S
Pr600 O630 2.438 . S
Pr601 C611 2.880 1_655 S
Pr601 O622 2.436 1_655 S
Pr601 O624 2.438 . S
Pr601 O626 2.562 1_655 S
Pr601 O627 2.490 . S
Pr601 O628 2.695 1_554 S
Pr601 O629 2.512 1_554 S
Pr601 O631 2.437 1_654 S
C602 Pr600 2.880 1_655 S
C602 C603 1.491 . S
C602 O620 1.254 . S
C602 O621 1.225 1_655 S
C603 C602 1.491 . S
C603 C604 1.392 1_655 S
C603 C608 1.356 . S
C604 C603 1.392 1_455 S
C604 C605 1.368 1_455 S
C604 H632 0.929 . S
C605 C604 1.368 1_655 S
C605 C606 1.386 . S
C605 H633 0.929 1_655 S
C606 C605 1.386 . S
C606 C607 1.373 . S
C607 C606 1.373 . S
C607 C608 1.409 . S
C607 H634 0.931 . S
C608 C603 1.356 . S
C608 C607 1.409 . S
C608 H635 0.930 . S
C609 O622 1.270 . S
C609 O623 1.248 . S
C610 O624 1.267 . S
C610 O625 1.278 . S
C611 Pr601 2.880 1_455 S
C611 C612 1.491 . S
C611 O626 1.254 . S
C611 O627 1.225 1_455 S
C612 C611 1.491 . S
C612 C613 1.387 1_455 S
C612 C617 1.356 . S
C613 C612 1.387 1_655 S
C613 C614 1.330 1_655 S
C613 H636 0.976 . S
C614 C613 1.330 1_455 S
C614 C615 1.386 . S
C614 H637 0.929 1_455 S
C615 C614 1.386 . S
C615 C616 1.373 . S
C616 C615 1.373 . S
C616 C617 1.409 . S
C616 H638 0.931 . S
C617 C612 1.356 . S
C617 C616 1.409 . S
C617 H639 0.930 . S
C618 O628 1.270 . S
C618 O629 1.248 . S
C619 O630 1.267 . S
C619 O631 1.278 . S
O620 Pr600 2.562 1_655 S
O620 C602 1.254 . S
O621 Pr600 2.490 . S
O621 C602 1.225 1_455 S
O622 Pr600 2.695 1_554 S
O622 Pr601 2.436 1_455 S
O622 C609 1.270 . S
O623 Pr600 2.512 1_554 S
O623 C609 1.248 . S
O624 Pr601 2.438 . S
O624 C610 1.267 . S
O625 Pr600 2.437 1_654 S
O625 C610 1.278 . S
O626 Pr601 2.562 1_455 S
O626 C611 1.254 . S
O627 Pr601 2.490 . S
O627 C611 1.225 1_655 S
O628 Pr600 2.436 1_655 S
O628 Pr601 2.695 1_556 S
O628 C618 1.270 . S
O629 Pr601 2.512 1_556 S
O629 C618 1.248 . S
O630 Pr600 2.438 . S
O630 C619 1.267 . S
O631 Pr601 2.437 1_456 S
O631 C619 1.278 . S
H632 C604 0.929 . S
H633 C605 0.929 1_455 S
H634 C607 0.931 . S
H635 C608 0.930 . S
H636 C613 0.976 . S
H637 C614 0.929 1_655 S
H638 C616 0.931 . S
H639 C617 0.930 . S
H640 C658 0.951 . S
H641 C660 0.951 . S
H642 C662 0.950 . S
H643 C663 0.950 . S
H644 C665 0.950 . S
H645 C668 0.950 . S
H646 C669 0.950 . S
H647 C671 0.950 . S
H648 C672 0.950 . S
H649 C673 0.951 . S
H650 C675 0.951 . S
H651 C677 0.950 . S
H652 C678 0.950 . S
H653 C680 0.950 . S
H654 C683 0.950 . S
H655 C684 0.950 . S
H656 C686 0.950 . S
H657 C687 0.950 . S
C658 H640 0.951 . S
C658 C659 1.366 . S
C658 C660 1.388 . S
C659 C658 1.366 . S
C659 C663 1.385 . S
C660 H641 0.951 . S
C660 C658 1.388 . S
C660 C661 1.366 . S
C661 C660 1.366 . S
C661 C662 1.414 . S
C661 C664 1.499 . S
C662 H642 0.950 . S
C662 C661 1.414 . S
C662 C663 1.374 . S
C663 H643 0.950 . S
C663 C659 1.385 . S
C663 C662 1.374 . S
C664 C661 1.499 . S
C664 C665 1.373 . S
C664 C666 1.389 . S
C665 H644 0.950 . S
C665 C664 1.373 . S
C665 C681 1.377 . S
C666 C664 1.389 . S
C666 C667 1.524 . S
C666 C680 1.377 . S
C667 C666 1.524 . S
C667 C668 1.397 . S
C667 C672 1.363 . S
C668 H645 0.950 . S
C668 C667 1.397 . S
C668 C669 1.334 . S
C669 H646 0.950 . S
C669 C668 1.334 . S
C669 C670 1.287 . S
C670 C669 1.287 . S
C670 C671 1.524 . S
C670 H689 0.913 . S
C671 H647 0.950 . S
C671 C670 1.524 . S
C671 C672 1.415 . S
C672 H648 0.950 . S
C672 C667 1.363 . S
C672 C671 1.415 . S
C673 H649 0.951 . S
C673 C674 1.366 . S
C673 C675 1.388 . S
C674 C673 1.366 . S
C674 C678 1.385 . S
C675 H650 0.951 . S
C675 C673 1.388 . S
C675 C676 1.366 . S
C676 C675 1.366 . S
C676 C677 1.414 . S
C676 C679 1.499 . S
C677 H651 0.950 . S
C677 C676 1.414 . S
C677 C678 1.374 . S
C678 H652 0.950 . S
C678 C674 1.385 . S
C678 C677 1.374 . S
C679 C676 1.499 . S
C679 C680 1.373 . S
C679 C681 1.389 . S
C680 H653 0.950 . S
C680 C666 1.377 . S
C680 C679 1.373 . S
C681 C665 1.377 . S
C681 C679 1.389 . S
C681 C682 1.524 . S
C682 C681 1.524 . S
C682 C683 1.397 . S
C682 C687 1.363 . S
C683 H654 0.950 . S
C683 C682 1.397 . S
C683 C684 1.334 . S
C684 H655 0.950 . S
C684 C683 1.334 . S
C684 C685 1.287 . S
C685 C684 1.287 . S
C685 C686 1.524 . S
C685 H688 0.999 . S
C686 H656 0.950 . S
C686 C685 1.524 . S
C686 C687 1.415 . S
C687 H657 0.950 . S
C687 C682 1.363 . S
C687 C686 1.415 . S
H688 C685 0.999 . S
H689 C670 0.913 . S
H690 C708 0.951 . S
H691 C710 0.951 . S
H692 C712 0.950 . S
H693 C713 0.950 . S
H694 C715 0.950 . S
H695 C718 0.950 . S
H696 C719 0.950 . S
H697 C721 0.950 . S
H698 C722 0.950 . S
H699 C723 0.951 . S
H700 C725 0.951 . S
H701 C727 0.950 . S
H702 C728 0.950 . S
H703 C730 0.950 . S
H704 C733 0.950 . S
H705 C734 0.950 . S
H706 C736 0.950 . S
H707 C737 0.950 . S
C708 H690 0.951 . S
C708 C709 1.366 . S
C708 C710 1.388 . S
C709 C708 1.366 . S
C709 C713 1.385 . S
C710 H691 0.951 . S
C710 C708 1.388 . S
C710 C711 1.366 . S
C711 C710 1.366 . S
C711 C712 1.414 . S
C711 C714 1.499 . S
C712 H692 0.950 . S
C712 C711 1.414 . S
C712 C713 1.374 . S
C713 H693 0.950 . S
C713 C709 1.385 . S
C713 C712 1.374 . S
C714 C711 1.499 . S
C714 C715 1.373 . S
C714 C716 1.389 . S
C715 H694 0.950 . S
C715 C714 1.373 . S
C715 C731 1.377 . S
C716 C714 1.389 . S
C716 C717 1.524 . S
C716 C730 1.377 . S
C717 C716 1.524 . S
C717 C718 1.397 . S
C717 C722 1.363 . S
C718 H695 0.950 . S
C718 C717 1.397 . S
C718 C719 1.334 . S
C719 H696 0.950 . S
C719 C718 1.334 . S
C719 C720 1.287 . S
C720 C719 1.287 . S
C720 C721 1.524 . S
C720 H739 0.913 . S
C721 H697 0.950 . S
C721 C720 1.524 . S
C721 C722 1.415 . S
C722 H698 0.950 . S
C722 C717 1.363 . S
C722 C721 1.415 . S
C723 H699 0.951 . S
C723 C724 1.366 . S
C723 C725 1.388 . S
C724 C723 1.366 . S
C724 C728 1.385 . S
C725 H700 0.951 . S
C725 C723 1.388 . S
C725 C726 1.366 . S
C726 C725 1.366 . S
C726 C727 1.414 . S
C726 C729 1.499 . S
C727 H701 0.950 . S
C727 C726 1.414 . S
C727 C728 1.374 . S
C728 H702 0.950 . S
C728 C724 1.385 . S
C728 C727 1.374 . S
C729 C726 1.499 . S
C729 C730 1.373 . S
C729 C731 1.389 . S
C730 H703 0.950 . S
C730 C716 1.377 . S
C730 C729 1.373 . S
C731 C715 1.377 . S
C731 C729 1.389 . S
C731 C732 1.524 . S
C732 C731 1.524 . S
C732 C733 1.397 . S
C732 C737 1.363 . S
C733 H704 0.950 . S
C733 C732 1.397 . S
C733 C734 1.334 . S
C734 H705 0.950 . S
C734 C733 1.334 . S
C734 C735 1.287 . S
C735 C734 1.287 . S
C735 C736 1.524 . S
C735 H738 0.999 . S
C736 H706 0.950 . S
C736 C735 1.524 . S
C736 C737 1.415 . S
C737 H707 0.950 . S
C737 C732 1.363 . S
C737 C736 1.415 . S
H738 C735 0.999 . S
H739 C720 0.913 . S
H740 C758 0.951 . S
H741 C760 0.951 . S
H742 C762 0.950 . S
H743 C763 0.950 . S
H744 C765 0.950 . S
H745 C768 0.950 . S
H746 C769 0.950 . S
H747 C771 0.950 . S
H748 C772 0.950 . S
H749 C773 0.951 . S
H750 C775 0.951 . S
H751 C777 0.950 . S
H752 C778 0.950 . S
H753 C780 0.950 . S
H754 C783 0.950 . S
H755 C784 0.950 . S
H756 C786 0.950 . S
H757 C787 0.950 . S
C758 H740 0.951 . S
C758 C759 1.366 . S
C758 C760 1.388 . S
C759 C758 1.366 . S
C759 C763 1.385 . S
C760 H741 0.951 . S
C760 C758 1.388 . S
C760 C761 1.366 . S
C761 C760 1.366 . S
C761 C762 1.414 . S
C761 C764 1.499 . S
C762 H742 0.950 . S
C762 C761 1.414 . S
C762 C763 1.374 . S
C763 H743 0.950 . S
C763 C759 1.385 . S
C763 C762 1.374 . S
C764 C761 1.499 . S
C764 C765 1.373 . S
C764 C766 1.389 . S
C765 H744 0.950 . S
C765 C764 1.373 . S
C765 C781 1.377 . S
C766 C764 1.389 . S
C766 C767 1.524 . S
C766 C780 1.377 . S
C767 C766 1.524 . S
C767 C768 1.397 . S
C767 C772 1.363 . S
C768 H745 0.950 . S
C768 C767 1.397 . S
C768 C769 1.334 . S
C769 H746 0.950 . S
C769 C768 1.334 . S
C769 C770 1.287 . S
C770 C769 1.287 . S
C770 C771 1.524 . S
C770 H789 0.913 . S
C771 H747 0.950 . S
C771 C770 1.524 . S
C771 C772 1.415 . S
C772 H748 0.950 . S
C772 C767 1.363 . S
C772 C771 1.415 . S
C773 H749 0.951 . S
C773 C774 1.366 . S
C773 C775 1.388 . S
C774 C773 1.366 . S
C774 C778 1.385 . S
C775 H750 0.951 . S
C775 C773 1.388 . S
C775 C776 1.366 . S
C776 C775 1.366 . S
C776 C777 1.414 . S
C776 C779 1.499 . S
C777 H751 0.950 . S
C777 C776 1.414 . S
C777 C778 1.374 . S
C778 H752 0.950 . S
C778 C774 1.385 . S
C778 C777 1.374 . S
C779 C776 1.499 . S
C779 C780 1.373 . S
C779 C781 1.389 . S
C780 H753 0.950 . S
C780 C766 1.377 . S
C780 C779 1.373 . S
C781 C765 1.377 . S
C781 C779 1.389 . S
C781 C782 1.524 . S
C782 C781 1.524 . S
C782 C783 1.397 . S
C782 C787 1.363 . S
C783 H754 0.950 . S
C783 C782 1.397 . S
C783 C784 1.334 . S
C784 H755 0.950 . S
C784 C783 1.334 . S
C784 C785 1.287 . S
C785 C784 1.287 . S
C785 C786 1.524 . S
C785 H788 0.999 . S
C786 H756 0.950 . S
C786 C785 1.524 . S
C786 C787 1.415 . S
C787 H757 0.950 . S
C787 C782 1.363 . S
C787 C786 1.415 . S
H788 C785 0.999 . S
H789 C770 0.913 . S
H790 C808 0.951 . S
H791 C810 0.951 . S
H792 C812 0.950 . S
H793 C813 0.950 . S
H794 C815 0.950 . S
H795 C818 0.950 . S
H796 C819 0.950 . S
H797 C821 0.950 . S
H798 C822 0.950 . S
H799 C823 0.951 1_565 S
H800 C825 0.951 . S
H801 C827 0.950 . S
H802 C828 0.950 . S
H803 C830 0.950 . S
H804 C833 0.950 . S
H805 C834 0.950 . S
H806 C836 0.950 1_565 S
H807 C837 0.950 . S
C808 H790 0.951 . S
C808 C809 1.366 . S
C808 C810 1.388 . S
C809 C808 1.366 . S
C809 C813 1.385 . S
C810 H791 0.951 . S
C810 C808 1.388 . S
C810 C811 1.366 . S
C811 C810 1.366 . S
C811 C812 1.414 . S
C811 C814 1.499 . S
C812 H792 0.950 . S
C812 C811 1.414 . S
C812 C813 1.374 . S
C813 H793 0.950 . S
C813 C809 1.385 . S
C813 C812 1.374 . S
C814 C811 1.499 . S
C814 C815 1.373 . S
C814 C816 1.389 . S
C815 H794 0.950 . S
C815 C814 1.373 . S
C815 C831 1.377 . S
C816 C814 1.389 . S
C816 C817 1.524 . S
C816 C830 1.377 . S
C817 C816 1.524 . S
C817 C818 1.397 . S
C817 C822 1.363 . S
C818 H795 0.950 . S
C818 C817 1.397 . S
C818 C819 1.334 . S
C819 H796 0.950 . S
C819 C818 1.334 . S
C819 C820 1.287 . S
C820 C819 1.287 . S
C820 C821 1.524 . S
C820 H839 0.913 . S
C821 H797 0.950 . S
C821 C820 1.524 . S
C821 C822 1.415 . S
C822 H798 0.950 . S
C822 C817 1.363 . S
C822 C821 1.415 . S
C823 H799 0.951 1_545 S
C823 C824 1.366 . S
C823 C825 1.388 . S
C824 C823 1.366 . S
C824 C828 1.385 . S
C825 H800 0.951 . S
C825 C823 1.388 . S
C825 C826 1.366 . S
C826 C825 1.366 . S
C826 C827 1.414 . S
C826 C829 1.499 . S
C827 H801 0.950 . S
C827 C826 1.414 . S
C827 C828 1.374 . S
C828 H802 0.950 . S
C828 C824 1.385 . S
C828 C827 1.374 . S
C829 C826 1.499 . S
C829 C830 1.373 . S
C829 C831 1.389 . S
C830 H803 0.950 . S
C830 C816 1.377 . S
C830 C829 1.373 . S
C831 C815 1.377 . S
C831 C829 1.389 . S
C831 C832 1.524 . S
C832 C831 1.524 . S
C832 C833 1.397 . S
C832 C837 1.363 . S
C833 H804 0.950 . S
C833 C832 1.397 . S
C833 C834 1.334 . S
C834 H805 0.950 . S
C834 C833 1.334 . S
C834 C835 1.287 . S
C835 C834 1.287 . S
C835 C836 1.524 . S
C835 H838 0.999 1_545 S
C836 H806 0.950 1_545 S
C836 C835 1.524 . S
C836 C837 1.415 . S
C837 H807 0.950 . S
C837 C832 1.363 . S
C837 C836 1.415 . S
H838 C835 0.999 1_565 S
H839 C820 0.913 . S
H840 C858 0.951 . S
H841 C860 0.951 . S
H842 C862 0.950 . S
H843 C863 0.950 . S
H844 C865 0.950 . S
H845 C868 0.950 . S
H846 C869 0.950 . S
H847 C871 0.950 . S
H848 C872 0.950 . S
H849 C873 0.951 . S
H850 C875 0.951 . S
H851 C877 0.950 . S
H852 C878 0.950 . S
H853 C880 0.950 . S
H854 C883 0.950 . S
H855 C884 0.950 . S
H856 C886 0.950 . S
H857 C887 0.950 . S
C858 H840 0.951 . S
C858 C859 1.366 . S
C858 C860 1.388 . S
C859 C858 1.366 . S
C859 C863 1.385 . S
C860 H841 0.951 . S
C860 C858 1.388 . S
C860 C861 1.366 . S
C861 C860 1.366 . S
C861 C862 1.414 . S
C861 C864 1.499 . S
C862 H842 0.950 . S
C862 C861 1.414 . S
C862 C863 1.374 . S
C863 H843 0.950 . S
C863 C859 1.385 . S
C863 C862 1.374 . S
C864 C861 1.499 . S
C864 C865 1.373 . S
C864 C866 1.389 . S
C865 H844 0.950 . S
C865 C864 1.373 . S
C865 C881 1.377 . S
C866 C864 1.389 . S
C866 C867 1.524 . S
C866 C880 1.377 . S
C867 C866 1.524 . S
C867 C868 1.397 . S
C867 C872 1.363 . S
C868 H845 0.950 . S
C868 C867 1.397 . S
C868 C869 1.334 . S
C869 H846 0.950 . S
C869 C868 1.334 . S
C869 C870 1.287 . S
C870 C869 1.287 . S
C870 C871 1.524 . S
C870 H889 0.913 . S
C871 H847 0.950 . S
C871 C870 1.524 . S
C871 C872 1.415 . S
C872 H848 0.950 . S
C872 C867 1.363 . S
C872 C871 1.415 . S
C873 H849 0.951 . S
C873 C874 1.366 . S
C873 C875 1.388 . S
C874 C873 1.366 . S
C874 C878 1.385 . S
C875 H850 0.951 . S
C875 C873 1.388 . S
C875 C876 1.366 . S
C876 C875 1.366 . S
C876 C877 1.414 . S
C876 C879 1.499 . S
C877 H851 0.950 . S
C877 C876 1.414 . S
C877 C878 1.374 . S
C878 H852 0.950 . S
C878 C874 1.385 . S
C878 C877 1.374 . S
C879 C876 1.499 . S
C879 C880 1.373 . S
C879 C881 1.389 . S
C880 H853 0.950 . S
C880 C866 1.377 . S
C880 C879 1.373 . S
C881 C865 1.377 . S
C881 C879 1.389 . S
C881 C882 1.524 . S
C882 C881 1.524 . S
C882 C883 1.397 . S
C882 C887 1.363 . S
C883 H854 0.950 . S
C883 C882 1.397 . S
C883 C884 1.334 . S
C884 H855 0.950 . S
C884 C883 1.334 . S
C884 C885 1.287 . S
C885 C884 1.287 . S
C885 C886 1.524 . S
C885 H888 0.999 . S
C886 H856 0.950 . S
C886 C885 1.524 . S
C886 C887 1.415 . S
C887 H857 0.950 . S
C887 C882 1.363 . S
C887 C886 1.415 . S
H888 C885 0.999 . S
H889 C870 0.913 . S
H890 C908 0.951 . S
H891 C910 0.951 . S
H892 C912 0.950 . S
H893 C913 0.950 . S
H894 C915 0.950 . S
H895 C918 0.950 . S
H896 C919 0.950 . S
H897 C921 0.950 . S
H898 C922 0.950 . S
H899 C923 0.951 . S
H900 C925 0.951 . S
H901 C927 0.950 . S
H902 C928 0.950 . S
H903 C930 0.950 . S
H904 C933 0.950 . S
H905 C934 0.950 1_545 S
H906 C936 0.950 . S
H907 C937 0.950 . S
C908 H890 0.951 . S
C908 C909 1.366 . S
C908 C910 1.388 . S
C909 C908 1.366 . S
C909 C913 1.385 . S
C910 H891 0.951 . S
C910 C908 1.388 . S
C910 C911 1.366 . S
C911 C910 1.366 . S
C911 C912 1.414 . S
C911 C914 1.499 . S
C912 H892 0.950 . S
C912 C911 1.414 . S
C912 C913 1.374 . S
C913 H893 0.950 . S
C913 C909 1.385 . S
C913 C912 1.374 . S
C914 C911 1.499 . S
C914 C915 1.373 . S
C914 C916 1.389 . S
C915 H894 0.950 . S
C915 C914 1.373 . S
C915 C931 1.377 . S
C916 C914 1.389 . S
C916 C917 1.524 . S
C916 C930 1.377 . S
C917 C916 1.524 . S
C917 C918 1.397 . S
C917 C922 1.363 . S
C918 H895 0.950 . S
C918 C917 1.397 . S
C918 C919 1.334 . S
C919 H896 0.950 . S
C919 C918 1.334 . S
C919 C920 1.287 . S
C920 C919 1.287 . S
C920 C921 1.524 . S
C920 H939 0.913 . S
C921 H897 0.950 . S
C921 C920 1.524 . S
C921 C922 1.415 . S
C922 H898 0.950 . S
C922 C917 1.363 . S
C922 C921 1.415 . S
C923 H899 0.951 . S
C923 C924 1.366 . S
C923 C925 1.388 . S
C924 C923 1.366 . S
C924 C928 1.385 . S
C925 H900 0.951 . S
C925 C923 1.388 . S
C925 C926 1.366 . S
C926 C925 1.366 . S
C926 C927 1.414 . S
C926 C929 1.499 . S
C927 H901 0.950 . S
C927 C926 1.414 . S
C927 C928 1.374 . S
C928 H902 0.950 . S
C928 C924 1.385 . S
C928 C927 1.374 . S
C929 C926 1.499 . S
C929 C930 1.373 . S
C929 C931 1.389 . S
C930 H903 0.950 . S
C930 C916 1.377 . S
C930 C929 1.373 . S
C931 C915 1.377 . S
C931 C929 1.389 . S
C931 C932 1.524 . S
C932 C931 1.524 . S
C932 C933 1.397 . S
C932 C937 1.363 . S
C933 H904 0.950 . S
C933 C932 1.397 . S
C933 C934 1.334 . S
C934 H905 0.950 1_565 S
C934 C933 1.334 . S
C934 C935 1.287 1_565 S
C935 C934 1.287 1_545 S
C935 C936 1.524 1_545 S
C935 H938 0.999 . S
C936 H906 0.950 . S
C936 C935 1.524 1_565 S
C936 C937 1.415 . S
C937 H907 0.950 . S
C937 C932 1.363 . S
C937 C936 1.415 . S
H938 C935 0.999 . S
H939 C920 0.913 . S
H940 C958 0.951 . S
H941 C960 0.951 . S
H942 C962 0.950 . S
H943 C963 0.950 . S
H944 C965 0.950 . S
H945 C968 0.950 . S
H946 C969 0.950 . S
H947 C971 0.950 . S
H948 C972 0.950 . S
H949 C973 0.951 . S
H950 C975 0.951 . S
H951 C977 0.950 . S
H952 C978 0.950 . S
H953 C980 0.950 . S
H954 C983 0.950 . S
H955 C984 0.950 . S
H956 C986 0.950 . S
H957 C987 0.950 . S
C958 H940 0.951 . S
C958 C959 1.366 . S
C958 C960 1.388 . S
C959 C958 1.366 . S
C959 C963 1.385 . S
C960 H941 0.951 . S
C960 C958 1.388 . S
C960 C961 1.366 . S
C961 C960 1.366 . S
C961 C962 1.414 . S
C961 C964 1.499 . S
C962 H942 0.950 . S
C962 C961 1.414 . S
C962 C963 1.374 . S
C963 H943 0.950 . S
C963 C959 1.385 . S
C963 C962 1.374 . S
C964 C961 1.499 . S
C964 C965 1.373 . S
C964 C966 1.389 . S
C965 H944 0.950 . S
C965 C964 1.373 . S
C965 C981 1.377 . S
C966 C964 1.389 . S
C966 C967 1.524 . S
C966 C980 1.377 . S
C967 C966 1.524 . S
C967 C968 1.397 . S
C967 C972 1.363 . S
C968 H945 0.950 . S
C968 C967 1.397 . S
C968 C969 1.334 . S
C969 H946 0.950 . S
C969 C968 1.334 . S
C969 C970 1.287 . S
C970 C969 1.287 . S
C970 C971 1.524 . S
C970 H989 0.913 . S
C971 H947 0.950 . S
C971 C970 1.524 . S
C971 C972 1.415 . S
C972 H948 0.950 . S
C972 C967 1.363 . S
C972 C971 1.415 . S
C973 H949 0.951 . S
C973 C974 1.366 . S
C973 C975 1.388 . S
C974 C973 1.366 . S
C974 C978 1.385 . S
C975 H950 0.951 . S
C975 C973 1.388 . S
C975 C976 1.366 . S
C976 C975 1.366 . S
C976 C977 1.414 . S
C976 C979 1.499 . S
C977 H951 0.950 . S
C977 C976 1.414 . S
C977 C978 1.374 . S
C978 H952 0.950 . S
C978 C974 1.385 . S
C978 C977 1.374 . S
C979 C976 1.499 . S
C979 C980 1.373 . S
C979 C981 1.389 . S
C980 H953 0.950 . S
C980 C966 1.377 . S
C980 C979 1.373 . S
C981 C965 1.377 . S
C981 C979 1.389 . S
C981 C982 1.524 . S
C982 C981 1.524 . S
C982 C983 1.397 . S
C982 C987 1.363 . S
C983 H954 0.950 . S
C983 C982 1.397 . S
C983 C984 1.334 . S
C984 H955 0.950 . S
C984 C983 1.334 . S
C984 C985 1.287 . S
C985 C984 1.287 . S
C985 C986 1.524 . S
C985 H988 0.999 . S
C986 H956 0.950 . S
C986 C985 1.524 . S
C986 C987 1.415 . S
C987 H957 0.950 . S
C987 C982 1.363 . S
C987 C986 1.415 . S
H988 C985 0.999 . S
H989 C970 0.913 . S
H990 C1008 0.951 . S
H991 C1010 0.951 . S
H992 C1012 0.950 . S
H993 C1013 0.950 . S
H994 C1015 0.950 . S
H995 C1018 0.950 . S
H996 C1019 0.950 . S
H997 C1021 0.950 . S
H998 C1022 0.950 . S
H999 C1023 0.951 . S
H1000 C1025 0.951 . S
H1001 C1027 0.950 . S
H1002 C1028 0.950 . S
H1003 C1030 0.950 . S
H1004 C1033 0.950 . S
H1005 C1034 0.950 . S
H1006 C1036 0.950 . S
H1007 C1037 0.950 . S
C1008 H990 0.951 . S
C1008 C1009 1.366 . S
C1008 C1010 1.388 . S
C1009 C1008 1.366 . S
C1009 C1013 1.385 . S
C1010 H991 0.951 . S
C1010 C1008 1.388 . S
C1010 C1011 1.366 . S
C1011 C1010 1.366 . S
C1011 C1012 1.414 . S
C1011 C1014 1.499 . S
C1012 H992 0.950 . S
C1012 C1011 1.414 . S
C1012 C1013 1.374 . S
C1013 H993 0.950 . S
C1013 C1009 1.385 . S
C1013 C1012 1.374 . S
C1014 C1011 1.499 . S
C1014 C1015 1.373 . S
C1014 C1016 1.389 . S
C1015 H994 0.950 . S
C1015 C1014 1.373 . S
C1015 C1031 1.377 . S
C1016 C1014 1.389 . S
C1016 C1017 1.524 . S
C1016 C1030 1.377 . S
C1017 C1016 1.524 . S
C1017 C1018 1.397 . S
C1017 C1022 1.363 . S
C1018 H995 0.950 . S
C1018 C1017 1.397 . S
C1018 C1019 1.334 . S
C1019 H996 0.950 . S
C1019 C1018 1.334 . S
C1019 C1020 1.287 . S
C1020 C1019 1.287 . S
C1020 C1021 1.524 . S
C1020 H1039 0.913 . S
C1021 H997 0.950 . S
C1021 C1020 1.524 . S
C1021 C1022 1.415 . S
C1022 H998 0.950 . S
C1022 C1017 1.363 . S
C1022 C1021 1.415 . S
C1023 H999 0.951 . S
C1023 C1024 1.366 . S
C1023 C1025 1.388 . S
C1024 C1023 1.366 . S
C1024 C1028 1.385 . S
C1025 H1000 0.951 . S
C1025 C1023 1.388 . S
C1025 C1026 1.366 . S
C1026 C1025 1.366 . S
C1026 C1027 1.414 . S
C1026 C1029 1.499 . S
C1027 H1001 0.950 . S
C1027 C1026 1.414 . S
C1027 C1028 1.374 . S
C1028 H1002 0.950 . S
C1028 C1024 1.385 . S
C1028 C1027 1.374 . S
C1029 C1026 1.499 . S
C1029 C1030 1.373 . S
C1029 C1031 1.389 . S
C1030 H1003 0.950 . S
C1030 C1016 1.377 . S
C1030 C1029 1.373 . S
C1031 C1015 1.377 . S
C1031 C1029 1.389 . S
C1031 C1032 1.524 . S
C1032 C1031 1.524 . S
C1032 C1033 1.397 . S
C1032 C1037 1.363 . S
C1033 H1004 0.950 . S
C1033 C1032 1.397 . S
C1033 C1034 1.334 . S
C1034 H1005 0.950 . S
C1034 C1033 1.334 . S
C1034 C1035 1.287 . S
C1035 C1034 1.287 . S
C1035 C1036 1.524 . S
C1035 H1038 0.999 . S
C1036 H1006 0.950 . S
C1036 C1035 1.524 . S
C1036 C1037 1.415 . S
C1037 H1007 0.950 . S
C1037 C1032 1.363 . S
C1037 C1036 1.415 . S
H1038 C1035 0.999 . S
H1039 C1020 0.913 . S
H1040 C1058 0.951 . S
H1041 C1060 0.951 . S
H1042 C1062 0.950 . S
H1043 C1063 0.950 . S
H1044 C1065 0.950 . S
H1045 C1068 0.950 . S
H1046 C1069 0.950 . S
H1047 C1071 0.950 . S
H1048 C1072 0.950 . S
H1049 C1073 0.951 . S
H1050 C1075 0.951 . S
H1051 C1077 0.950 . S
H1052 C1078 0.950 . S
H1053 C1080 0.950 . S
H1054 C1083 0.950 . S
H1055 C1084 0.950 . S
H1056 C1086 0.950 . S
H1057 C1087 0.950 . S
C1058 H1040 0.951 . S
C1058 C1059 1.366 . S
C1058 C1060 1.388 . S
C1059 C1058 1.366 . S
C1059 C1063 1.385 . S
C1060 H1041 0.951 . S
C1060 C1058 1.388 . S
C1060 C1061 1.366 . S
C1061 C1060 1.366 . S
C1061 C1062 1.414 . S
C1061 C1064 1.499 . S
C1062 H1042 0.950 . S
C1062 C1061 1.414 . S
C1062 C1063 1.374 . S
C1063 H1043 0.950 . S
C1063 C1059 1.385 . S
C1063 C1062 1.374 . S
C1064 C1061 1.499 . S
C1064 C1065 1.373 . S
C1064 C1066 1.389 . S
C1065 H1044 0.950 . S
C1065 C1064 1.373 . S
C1065 C1081 1.377 . S
C1066 C1064 1.389 . S
C1066 C1067 1.524 . S
C1066 C1080 1.377 . S
C1067 C1066 1.524 . S
C1067 C1068 1.397 . S
C1067 C1072 1.363 . S
C1068 H1045 0.950 . S
C1068 C1067 1.397 . S
C1068 C1069 1.334 . S
C1069 H1046 0.950 . S
C1069 C1068 1.334 . S
C1069 C1070 1.287 . S
C1070 C1069 1.287 . S
C1070 C1071 1.524 . S
C1070 H1089 0.913 . S
C1071 H1047 0.950 . S
C1071 C1070 1.524 . S
C1071 C1072 1.415 . S
C1072 H1048 0.950 . S
C1072 C1067 1.363 . S
C1072 C1071 1.415 . S
C1073 H1049 0.951 . S
C1073 C1074 1.366 . S
C1073 C1075 1.388 . S
C1074 C1073 1.366 . S
C1074 C1078 1.385 . S
C1075 H1050 0.951 . S
C1075 C1073 1.388 . S
C1075 C1076 1.366 . S
C1076 C1075 1.366 . S
C1076 C1077 1.414 . S
C1076 C1079 1.499 . S
C1077 H1051 0.950 . S
C1077 C1076 1.414 . S
C1077 C1078 1.374 . S
C1078 H1052 0.950 . S
C1078 C1074 1.385 . S
C1078 C1077 1.374 . S
C1079 C1076 1.499 . S
C1079 C1080 1.373 . S
C1079 C1081 1.389 . S
C1080 H1053 0.950 . S
C1080 C1066 1.377 . S
C1080 C1079 1.373 . S
C1081 C1065 1.377 . S
C1081 C1079 1.389 . S
C1081 C1082 1.524 . S
C1082 C1081 1.524 . S
C1082 C1083 1.397 . S
C1082 C1087 1.363 . S
C1083 H1054 0.950 . S
C1083 C1082 1.397 . S
C1083 C1084 1.334 . S
C1084 H1055 0.950 . S
C1084 C1083 1.334 . S
C1084 C1085 1.287 . S
C1085 C1084 1.287 . S
C1085 C1086 1.524 . S
C1085 H1088 0.999 . S
C1086 H1056 0.950 . S
C1086 C1085 1.524 . S
C1086 C1087 1.415 . S
C1087 H1057 0.950 . S
C1087 C1082 1.363 . S
C1087 C1086 1.415 . S
H1088 C1085 0.999 . S
H1089 C1070 0.913 . S
H1090 C1108 0.951 . S
H1091 C1110 0.951 . S
H1092 C1112 0.950 . S
H1093 C1113 0.950 . S
H1094 C1115 0.950 . S
H1095 C1118 0.950 . S
H1096 C1119 0.950 . S
H1097 C1121 0.950 . S
H1098 C1122 0.950 . S
H1099 C1123 0.951 . S
H1100 C1125 0.951 . S
H1101 C1127 0.950 . S
H1102 C1128 0.950 . S
H1103 C1130 0.950 . S
H1104 C1133 0.950 . S
H1105 C1134 0.950 . S
H1106 C1136 0.950 . S
H1107 C1137 0.950 . S
C1108 H1090 0.951 . S
C1108 C1109 1.366 . S
C1108 C1110 1.388 . S
C1109 C1108 1.366 . S
C1109 C1113 1.385 . S
C1110 H1091 0.951 . S
C1110 C1108 1.388 . S
C1110 C1111 1.366 . S
C1111 C1110 1.366 . S
C1111 C1112 1.414 . S
C1111 C1114 1.499 . S
C1112 H1092 0.950 . S
C1112 C1111 1.414 . S
C1112 C1113 1.374 . S
C1113 H1093 0.950 . S
C1113 C1109 1.385 . S
C1113 C1112 1.374 . S
C1114 C1111 1.499 . S
C1114 C1115 1.373 . S
C1114 C1116 1.389 . S
C1115 H1094 0.950 . S
C1115 C1114 1.373 . S
C1115 C1131 1.377 . S
C1116 C1114 1.389 . S
C1116 C1117 1.524 . S
C1116 C1130 1.377 . S
C1117 C1116 1.524 . S
C1117 C1118 1.397 . S
C1117 C1122 1.363 . S
C1118 H1095 0.950 . S
C1118 C1117 1.397 . S
C1118 C1119 1.334 . S
C1119 H1096 0.950 . S
C1119 C1118 1.334 . S
C1119 C1120 1.287 . S
C1120 C1119 1.287 . S
C1120 C1121 1.524 . S
C1120 H1139 0.913 . S
C1121 H1097 0.950 . S
C1121 C1120 1.524 . S
C1121 C1122 1.415 . S
C1122 H1098 0.950 . S
C1122 C1117 1.363 . S
C1122 C1121 1.415 . S
C1123 H1099 0.951 . S
C1123 C1124 1.366 . S
C1123 C1125 1.388 . S
C1124 C1123 1.366 . S
C1124 C1128 1.385 . S
C1125 H1100 0.951 . S
C1125 C1123 1.388 . S
C1125 C1126 1.366 . S
C1126 C1125 1.366 . S
C1126 C1127 1.414 . S
C1126 C1129 1.499 . S
C1127 H1101 0.950 . S
C1127 C1126 1.414 . S
C1127 C1128 1.374 . S
C1128 H1102 0.950 . S
C1128 C1124 1.385 . S
C1128 C1127 1.374 . S
C1129 C1126 1.499 . S
C1129 C1130 1.373 . S
C1129 C1131 1.389 . S
C1130 H1103 0.950 . S
C1130 C1116 1.377 . S
C1130 C1129 1.373 . S
C1131 C1115 1.377 . S
C1131 C1129 1.389 . S
C1131 C1132 1.524 . S
C1132 C1131 1.524 . S
C1132 C1133 1.397 . S
C1132 C1137 1.363 . S
C1133 H1104 0.950 . S
C1133 C1132 1.397 . S
C1133 C1134 1.334 . S
C1134 H1105 0.950 . S
C1134 C1133 1.334 . S
C1134 C1135 1.287 . S
C1135 C1134 1.287 . S
C1135 C1136 1.524 . S
C1135 H1138 0.999 . S
C1136 H1106 0.950 . S
C1136 C1135 1.524 . S
C1136 C1137 1.415 . S
C1137 H1107 0.950 . S
C1137 C1132 1.363 . S
C1137 C1136 1.415 . S
H1138 C1135 0.999 . S
H1139 C1120 0.913 . S
H1140 C1158 0.951 . S
H1141 C1160 0.951 . S
H1142 C1162 0.950 . S
H1143 C1163 0.950 . S
H1144 C1165 0.950 . S
H1145 C1168 0.950 . S
H1146 C1169 0.950 . S
H1147 C1171 0.950 . S
H1148 C1172 0.950 . S
H1149 C1173 0.951 . S
H1150 C1175 0.951 . S
H1151 C1177 0.950 . S
H1152 C1178 0.950 . S
H1153 C1180 0.950 . S
H1154 C1183 0.950 . S
H1155 C1184 0.950 . S
H1156 C1186 0.950 . S
H1157 C1187 0.950 . S
C1158 H1140 0.951 . S
C1158 C1159 1.366 . S
C1158 C1160 1.388 . S
C1159 C1158 1.366 . S
C1159 C1163 1.385 . S
C1160 H1141 0.951 . S
C1160 C1158 1.388 . S
C1160 C1161 1.366 . S
C1161 C1160 1.366 . S
C1161 C1162 1.414 . S
C1161 C1164 1.499 . S
C1162 H1142 0.950 . S
C1162 C1161 1.414 . S
C1162 C1163 1.374 . S
C1163 H1143 0.950 . S
C1163 C1159 1.385 . S
C1163 C1162 1.374 . S
C1164 C1161 1.499 . S
C1164 C1165 1.373 . S
C1164 C1166 1.389 . S
C1165 H1144 0.950 . S
C1165 C1164 1.373 . S
C1165 C1181 1.377 . S
C1166 C1164 1.389 . S
C1166 C1167 1.524 . S
C1166 C1180 1.377 . S
C1167 C1166 1.524 . S
C1167 C1168 1.397 . S
C1167 C1172 1.363 . S
C1168 H1145 0.950 . S
C1168 C1167 1.397 . S
C1168 C1169 1.334 . S
C1169 H1146 0.950 . S
C1169 C1168 1.334 . S
C1169 C1170 1.287 . S
C1170 C1169 1.287 . S
C1170 C1171 1.524 . S
C1170 H1189 0.913 . S
C1171 H1147 0.950 . S
C1171 C1170 1.524 . S
C1171 C1172 1.415 . S
C1172 H1148 0.950 . S
C1172 C1167 1.363 . S
C1172 C1171 1.415 . S
C1173 H1149 0.951 . S
C1173 C1174 1.366 . S
C1173 C1175 1.388 . S
C1174 C1173 1.366 . S
C1174 C1178 1.385 . S
C1175 H1150 0.951 . S
C1175 C1173 1.388 . S
C1175 C1176 1.366 . S
C1176 C1175 1.366 . S
C1176 C1177 1.414 . S
C1176 C1179 1.499 . S
C1177 H1151 0.950 . S
C1177 C1176 1.414 . S
C1177 C1178 1.374 . S
C1178 H1152 0.950 . S
C1178 C1174 1.385 . S
C1178 C1177 1.374 . S
C1179 C1176 1.499 . S
C1179 C1180 1.373 . S
C1179 C1181 1.389 . S
C1180 H1153 0.950 . S
C1180 C1166 1.377 . S
C1180 C1179 1.373 . S
C1181 C1165 1.377 . S
C1181 C1179 1.389 . S
C1181 C1182 1.524 . S
C1182 C1181 1.524 . S
C1182 C1183 1.397 . S
C1182 C1187 1.363 . S
C1183 H1154 0.950 . S
C1183 C1182 1.397 . S
C1183 C1184 1.334 . S
C1184 H1155 0.950 . S
C1184 C1183 1.334 . S
C1184 C1185 1.287 . S
C1185 C1184 1.287 . S
C1185 C1186 1.524 . S
C1185 H1188 0.999 . S
C1186 H1156 0.950 . S
C1186 C1185 1.524 . S
C1186 C1187 1.415 . S
C1187 H1157 0.950 . S
C1187 C1182 1.363 . S
C1187 C1186 1.415 . S
H1188 C1185 0.999 . S
H1189 C1170 0.913 . S
H1190 C1208 0.951 . S
H1191 C1210 0.951 . S
H1192 C1212 0.950 . S
H1193 C1213 0.950 . S
H1194 C1215 0.950 . S
H1195 C1218 0.950 . S
H1196 C1219 0.950 . S
H1197 C1221 0.950 . S
H1198 C1222 0.950 . S
H1199 C1223 0.951 . S
H1200 C1225 0.951 . S
H1201 C1227 0.950 . S
H1202 C1228 0.950 . S
H1203 C1230 0.950 . S
H1204 C1233 0.950 . S
H1205 C1234 0.950 . S
H1206 C1236 0.950 . S
H1207 C1237 0.950 . S
C1208 H1190 0.951 . S
C1208 C1209 1.366 . S
C1208 C1210 1.388 . S
C1209 C1208 1.366 . S
C1209 C1213 1.385 . S
C1210 H1191 0.951 . S
C1210 C1208 1.388 . S
C1210 C1211 1.366 . S
C1211 C1210 1.366 . S
C1211 C1212 1.414 . S
C1211 C1214 1.499 . S
C1212 H1192 0.950 . S
C1212 C1211 1.414 . S
C1212 C1213 1.374 . S
C1213 H1193 0.950 . S
C1213 C1209 1.385 . S
C1213 C1212 1.374 . S
C1214 C1211 1.499 . S
C1214 C1215 1.373 . S
C1214 C1216 1.389 . S
C1215 H1194 0.950 . S
C1215 C1214 1.373 . S
C1215 C1231 1.377 . S
C1216 C1214 1.389 . S
C1216 C1217 1.524 . S
C1216 C1230 1.377 . S
C1217 C1216 1.524 . S
C1217 C1218 1.397 . S
C1217 C1222 1.363 . S
C1218 H1195 0.950 . S
C1218 C1217 1.397 . S
C1218 C1219 1.334 . S
C1219 H1196 0.950 . S
C1219 C1218 1.334 . S
C1219 C1220 1.287 . S
C1220 C1219 1.287 . S
C1220 C1221 1.524 . S
C1220 H1239 0.913 . S
C1221 H1197 0.950 . S
C1221 C1220 1.524 . S
C1221 C1222 1.415 . S
C1222 H1198 0.950 . S
C1222 C1217 1.363 . S
C1222 C1221 1.415 . S
C1223 H1199 0.951 . S
C1223 C1224 1.366 . S
C1223 C1225 1.388 . S
C1224 C1223 1.366 . S
C1224 C1228 1.385 . S
C1225 H1200 0.951 . S
C1225 C1223 1.388 . S
C1225 C1226 1.366 . S
C1226 C1225 1.366 . S
C1226 C1227 1.414 . S
C1226 C1229 1.499 . S
C1227 H1201 0.950 . S
C1227 C1226 1.414 . S
C1227 C1228 1.374 . S
C1228 H1202 0.950 . S
C1228 C1224 1.385 . S
C1228 C1227 1.374 . S
C1229 C1226 1.499 . S
C1229 C1230 1.373 . S
C1229 C1231 1.389 . S
C1230 H1203 0.950 . S
C1230 C1216 1.377 . S
C1230 C1229 1.373 . S
C1231 C1215 1.377 . S
C1231 C1229 1.389 . S
C1231 C1232 1.524 . S
C1232 C1231 1.524 . S
C1232 C1233 1.397 . S
C1232 C1237 1.363 . S
C1233 H1204 0.950 . S
C1233 C1232 1.397 . S
C1233 C1234 1.334 . S
C1234 H1205 0.950 . S
C1234 C1233 1.334 . S
C1234 C1235 1.287 . S
C1235 C1234 1.287 . S
C1235 C1236 1.524 . S
C1235 H1238 0.999 . S
C1236 H1206 0.950 . S
C1236 C1235 1.524 . S
C1236 C1237 1.415 . S
C1237 H1207 0.950 . S
C1237 C1232 1.363 . S
C1237 C1236 1.415 . S
H1238 C1235 0.999 . S
H1239 C1220 0.913 . S
H1240 C1258 0.951 . S
H1241 C1260 0.951 . S
H1242 C1262 0.950 . S
H1243 C1263 0.950 . S
H1244 C1265 0.950 . S
H1245 C1268 0.950 . S
H1246 C1269 0.950 . S
H1247 C1271 0.950 . S
H1248 C1272 0.950 . S
H1249 C1273 0.951 . S
H1250 C1275 0.951 . S
H1251 C1277 0.950 . S
H1252 C1278 0.950 . S
H1253 C1280 0.950 . S
H1254 C1283 0.950 . S
H1255 C1284 0.950 . S
H1256 C1286 0.950 . S
H1257 C1287 0.950 . S
C1258 H1240 0.951 . S
C1258 C1259 1.366 . S
C1258 C1260 1.388 . S
C1259 C1258 1.366 . S
C1259 C1263 1.385 . S
C1260 H1241 0.951 . S
C1260 C1258 1.388 . S
C1260 C1261 1.366 . S
C1261 C1260 1.366 . S
C1261 C1262 1.414 . S
C1261 C1264 1.499 . S
C1262 H1242 0.950 . S
C1262 C1261 1.414 . S
C1262 C1263 1.374 . S
C1263 H1243 0.950 . S
C1263 C1259 1.385 . S
C1263 C1262 1.374 . S
C1264 C1261 1.499 . S
C1264 C1265 1.373 . S
C1264 C1266 1.389 . S
C1265 H1244 0.950 . S
C1265 C1264 1.373 . S
C1265 C1281 1.377 . S
C1266 C1264 1.389 . S
C1266 C1267 1.524 . S
C1266 C1280 1.377 . S
C1267 C1266 1.524 . S
C1267 C1268 1.397 . S
C1267 C1272 1.363 . S
C1268 H1245 0.950 . S
C1268 C1267 1.397 . S
C1268 C1269 1.334 . S
C1269 H1246 0.950 . S
C1269 C1268 1.334 . S
C1269 C1270 1.287 . S
C1270 C1269 1.287 . S
C1270 C1271 1.524 . S
C1270 H1289 0.913 . S
C1271 H1247 0.950 . S
C1271 C1270 1.524 . S
C1271 C1272 1.415 . S
C1272 H1248 0.950 . S
C1272 C1267 1.363 . S
C1272 C1271 1.415 . S
C1273 H1249 0.951 . S
C1273 C1274 1.366 . S
C1273 C1275 1.388 . S
C1274 C1273 1.366 . S
C1274 C1278 1.385 . S
C1275 H1250 0.951 . S
C1275 C1273 1.388 . S
C1275 C1276 1.366 . S
C1276 C1275 1.366 . S
C1276 C1277 1.414 . S
C1276 C1279 1.499 . S
C1277 H1251 0.950 . S
C1277 C1276 1.414 . S
C1277 C1278 1.374 . S
C1278 H1252 0.950 . S
C1278 C1274 1.385 . S
C1278 C1277 1.374 . S
C1279 C1276 1.499 . S
C1279 C1280 1.373 . S
C1279 C1281 1.389 . S
C1280 H1253 0.950 . S
C1280 C1266 1.377 . S
C1280 C1279 1.373 . S
C1281 C1265 1.377 . S
C1281 C1279 1.389 . S
C1281 C1282 1.524 . S
C1282 C1281 1.524 . S
C1282 C1283 1.397 . S
C1282 C1287 1.363 . S
C1283 H1254 0.950 . S
C1283 C1282 1.397 . S
C1283 C1284 1.334 . S
C1284 H1255 0.950 . S
C1284 C1283 1.334 . S
C1284 C1285 1.287 . S
C1285 C1284 1.287 . S
C1285 C1286 1.524 . S
C1285 H1288 0.999 . S
C1286 H1256 0.950 . S
C1286 C1285 1.524 . S
C1286 C1287 1.415 . S
C1287 H1257 0.950 . S
C1287 C1282 1.363 . S
C1287 C1286 1.415 . S
H1288 C1285 0.999 . S
H1289 C1270 0.913 . S
H1290 C1308 0.951 . S
H1291 C1310 0.951 . S
H1292 C1312 0.950 . S
H1293 C1313 0.950 . S
H1294 C1315 0.950 . S
H1295 C1318 0.950 . S
H1296 C1319 0.950 . S
H1297 C1321 0.950 . S
H1298 C1322 0.950 . S
H1299 C1323 0.951 . S
H1300 C1325 0.951 . S
H1301 C1327 0.950 . S
H1302 C1328 0.950 . S
H1303 C1330 0.950 . S
H1304 C1333 0.950 . S
H1305 C1334 0.950 . S
H1306 C1336 0.950 . S
H1307 C1337 0.950 . S
C1308 H1290 0.951 . S
C1308 C1309 1.366 . S
C1308 C1310 1.388 . S
C1309 C1308 1.366 . S
C1309 C1313 1.385 . S
C1310 H1291 0.951 . S
C1310 C1308 1.388 . S
C1310 C1311 1.366 . S
C1311 C1310 1.366 . S
C1311 C1312 1.414 . S
C1311 C1314 1.499 . S
C1312 H1292 0.950 . S
C1312 C1311 1.414 . S
C1312 C1313 1.374 . S
C1313 H1293 0.950 . S
C1313 C1309 1.385 . S
C1313 C1312 1.374 . S
C1314 C1311 1.499 . S
C1314 C1315 1.373 . S
C1314 C1316 1.389 . S
C1315 H1294 0.950 . S
C1315 C1314 1.373 . S
C1315 C1331 1.377 . S
C1316 C1314 1.389 . S
C1316 C1317 1.524 . S
C1316 C1330 1.377 . S
C1317 C1316 1.524 . S
C1317 C1318 1.397 . S
C1317 C1322 1.363 . S
C1318 H1295 0.950 . S
C1318 C1317 1.397 . S
C1318 C1319 1.334 . S
C1319 H1296 0.950 . S
C1319 C1318 1.334 . S
C1319 C1320 1.287 . S
C1320 C1319 1.287 . S
C1320 C1321 1.524 . S
C1320 H1339 0.913 . S
C1321 H1297 0.950 . S
C1321 C1320 1.524 . S
C1321 C1322 1.415 . S
C1322 H1298 0.950 . S
C1322 C1317 1.363 . S
C1322 C1321 1.415 . S
C1323 H1299 0.951 . S
C1323 C1324 1.366 . S
C1323 C1325 1.388 . S
C1324 C1323 1.366 . S
C1324 C1328 1.385 . S
C1325 H1300 0.951 . S
C1325 C1323 1.388 . S
C1325 C1326 1.366 . S
C1326 C1325 1.366 . S
C1326 C1327 1.414 . S
C1326 C1329 1.499 . S
C1327 H1301 0.950 . S
C1327 C1326 1.414 . S
C1327 C1328 1.374 . S
C1328 H1302 0.950 . S
C1328 C1324 1.385 . S
C1328 C1327 1.374 . S
C1329 C1326 1.499 . S
C1329 C1330 1.373 . S
C1329 C1331 1.389 . S
C1330 H1303 0.950 . S
C1330 C1316 1.377 . S
C1330 C1329 1.373 . S
C1331 C1315 1.377 . S
C1331 C1329 1.389 . S
C1331 C1332 1.524 . S
C1332 C1331 1.524 . S
C1332 C1333 1.397 . S
C1332 C1337 1.363 . S
C1333 H1304 0.950 . S
C1333 C1332 1.397 . S
C1333 C1334 1.334 . S
C1334 H1305 0.950 . S
C1334 C1333 1.334 . S
C1334 C1335 1.287 . S
C1335 C1334 1.287 . S
C1335 C1336 1.524 . S
C1335 H1338 0.999 . S
C1336 H1306 0.950 . S
C1336 C1335 1.524 . S
C1336 C1337 1.415 . S
C1337 H1307 0.950 . S
C1337 C1332 1.363 . S
C1337 C1336 1.415 . S
H1338 C1335 0.999 . S
H1339 C1320 0.913 . S
H1340 C1358 0.951 . S
H1341 C1360 0.951 . S
H1342 C1362 0.950 . S
H1343 C1363 0.950 . S
H1344 C1365 0.950 . S
H1345 C1368 0.950 . S
H1346 C1369 0.950 1_565 S
H1347 C1371 0.950 . S
H1348 C1372 0.950 . S
H1349 C1373 0.951 . S
H1350 C1375 0.951 . S
H1351 C1377 0.950 . S
H1352 C1378 0.950 . S
H1353 C1380 0.950 . S
H1354 C1383 0.950 . S
H1355 C1384 0.950 . S
H1356 C1386 0.950 . S
H1357 C1387 0.950 . S
C1358 H1340 0.951 . S
C1358 C1359 1.366 . S
C1358 C1360 1.388 . S
C1359 C1358 1.366 . S
C1359 C1363 1.385 . S
C1360 H1341 0.951 . S
C1360 C1358 1.388 . S
C1360 C1361 1.366 . S
C1361 C1360 1.366 . S
C1361 C1362 1.414 . S
C1361 C1364 1.499 . S
C1362 H1342 0.950 . S
C1362 C1361 1.414 . S
C1362 C1363 1.374 . S
C1363 H1343 0.950 . S
C1363 C1359 1.385 . S
C1363 C1362 1.374 . S
C1364 C1361 1.499 . S
C1364 C1365 1.373 . S
C1364 C1366 1.389 . S
C1365 H1344 0.950 . S
C1365 C1364 1.373 . S
C1365 C1381 1.377 . S
C1366 C1364 1.389 . S
C1366 C1367 1.524 . S
C1366 C1380 1.377 . S
C1367 C1366 1.524 . S
C1367 C1368 1.397 . S
C1367 C1372 1.363 . S
C1368 H1345 0.950 . S
C1368 C1367 1.397 . S
C1368 C1369 1.334 . S
C1369 H1346 0.950 1_545 S
C1369 C1368 1.334 . S
C1369 C1370 1.287 . S
C1370 C1369 1.287 . S
C1370 C1371 1.524 . S
C1370 H1389 0.913 1_545 S
C1371 H1347 0.950 . S
C1371 C1370 1.524 . S
C1371 C1372 1.415 . S
C1372 H1348 0.950 . S
C1372 C1367 1.363 . S
C1372 C1371 1.415 . S
C1373 H1349 0.951 . S
C1373 C1374 1.366 . S
C1373 C1375 1.388 . S
C1374 C1373 1.366 . S
C1374 C1378 1.385 . S
C1375 H1350 0.951 . S
C1375 C1373 1.388 . S
C1375 C1376 1.366 . S
C1376 C1375 1.366 . S
C1376 C1377 1.414 . S
C1376 C1379 1.499 . S
C1377 H1351 0.950 . S
C1377 C1376 1.414 . S
C1377 C1378 1.374 . S
C1378 H1352 0.950 . S
C1378 C1374 1.385 . S
C1378 C1377 1.374 . S
C1379 C1376 1.499 . S
C1379 C1380 1.373 . S
C1379 C1381 1.389 . S
C1380 H1353 0.950 . S
C1380 C1366 1.377 . S
C1380 C1379 1.373 . S
C1381 C1365 1.377 . S
C1381 C1379 1.389 . S
C1381 C1382 1.524 . S
C1382 C1381 1.524 . S
C1382 C1383 1.397 . S
C1382 C1387 1.363 . S
C1383 H1354 0.950 . S
C1383 C1382 1.397 . S
C1383 C1384 1.334 . S
C1384 H1355 0.950 . S
C1384 C1383 1.334 . S
C1384 C1385 1.287 . S
C1385 C1384 1.287 . S
C1385 C1386 1.524 . S
C1385 H1388 0.999 . S
C1386 H1356 0.950 . S
C1386 C1385 1.524 . S
C1386 C1387 1.415 . S
C1387 H1357 0.950 . S
C1387 C1382 1.363 . S
C1387 C1386 1.415 . S
H1388 C1385 0.999 . S
H1389 C1370 0.913 1_565 S
H1390 C1408 0.951 . S
H1391 C1410 0.951 . S
H1392 C1412 0.950 . S
H1393 C1413 0.950 . S
H1394 C1415 0.950 . S
H1395 C1418 0.950 . S
H1396 C1419 0.950 . S
H1397 C1421 0.950 . S
H1398 C1422 0.950 . S
H1399 C1423 0.951 . S
H1400 C1425 0.951 . S
H1401 C1427 0.950 . S
H1402 C1428 0.950 . S
H1403 C1430 0.950 . S
H1404 C1433 0.950 . S
H1405 C1434 0.950 . S
H1406 C1436 0.950 . S
H1407 C1437 0.950 . S
C1408 H1390 0.951 . S
C1408 C1409 1.366 . S
C1408 C1410 1.388 . S
C1409 C1408 1.366 . S
C1409 C1413 1.385 . S
C1410 H1391 0.951 . S
C1410 C1408 1.388 . S
C1410 C1411 1.366 . S
C1411 C1410 1.366 . S
C1411 C1412 1.414 . S
C1411 C1414 1.499 . S
C1412 H1392 0.950 . S
C1412 C1411 1.414 . S
C1412 C1413 1.374 . S
C1413 H1393 0.950 . S
C1413 C1409 1.385 . S
C1413 C1412 1.374 . S
C1414 C1411 1.499 . S
C1414 C1415 1.373 . S
C1414 C1416 1.389 . S
C1415 H1394 0.950 . S
C1415 C1414 1.373 . S
C1415 C1431 1.377 . S
C1416 C1414 1.389 . S
C1416 C1417 1.524 . S
C1416 C1430 1.377 . S
C1417 C1416 1.524 . S
C1417 C1418 1.397 . S
C1417 C1422 1.363 . S
C1418 H1395 0.950 . S
C1418 C1417 1.397 . S
C1418 C1419 1.334 . S
C1419 H1396 0.950 . S
C1419 C1418 1.334 . S
C1419 C1420 1.287 . S
C1420 C1419 1.287 . S
C1420 C1421 1.524 . S
C1420 H1439 0.913 . S
C1421 H1397 0.950 . S
C1421 C1420 1.524 . S
C1421 C1422 1.415 . S
C1422 H1398 0.950 . S
C1422 C1417 1.363 . S
C1422 C1421 1.415 . S
C1423 H1399 0.951 . S
C1423 C1424 1.366 . S
C1423 C1425 1.388 . S
C1424 C1423 1.366 . S
C1424 C1428 1.385 . S
C1425 H1400 0.951 . S
C1425 C1423 1.388 . S
C1425 C1426 1.366 . S
C1426 C1425 1.366 . S
C1426 C1427 1.414 . S
C1426 C1429 1.499 . S
C1427 H1401 0.950 . S
C1427 C1426 1.414 . S
C1427 C1428 1.374 . S
C1428 H1402 0.950 . S
C1428 C1424 1.385 . S
C1428 C1427 1.374 . S
C1429 C1426 1.499 . S
C1429 C1430 1.373 . S
C1429 C1431 1.389 . S
C1430 H1403 0.950 . S
C1430 C1416 1.377 . S
C1430 C1429 1.373 . S
C1431 C1415 1.377 . S
C1431 C1429 1.389 . S
C1431 C1432 1.524 . S
C1432 C1431 1.524 . S
C1432 C1433 1.397 . S
C1432 C1437 1.363 . S
C1433 H1404 0.950 . S
C1433 C1432 1.397 . S
C1433 C1434 1.334 . S
C1434 H1405 0.950 . S
C1434 C1433 1.334 . S
C1434 C1435 1.287 . S
C1435 C1434 1.287 . S
C1435 C1436 1.524 . S
C1435 H1438 0.999 . S
C1436 H1406 0.950 . S
C1436 C1435 1.524 . S
C1436 C1437 1.415 . S
C1437 H1407 0.950 . S
C1437 C1432 1.363 . S
C1437 C1436 1.415 . S
H1438 C1435 0.999 . S
H1439 C1420 0.913 . S
H1440 C1458 0.951 . S
H1441 C1460 0.951 . S
H1442 C1462 0.950 . S
H1443 C1463 0.950 . S
H1444 C1465 0.950 . S
H1445 C1468 0.950 . S
H1446 C1469 0.950 . S
H1447 C1471 0.950 . S
H1448 C1472 0.950 . S
H1449 C1473 0.951 . S
H1450 C1475 0.951 . S
H1451 C1477 0.950 . S
H1452 C1478 0.950 . S
H1453 C1480 0.950 . S
H1454 C1483 0.950 . S
H1455 C1484 0.950 . S
H1456 C1486 0.950 . S
H1457 C1487 0.950 . S
C1458 H1440 0.951 . S
C1458 C1459 1.366 . S
C1458 C1460 1.388 . S
C1459 C1458 1.366 . S
C1459 C1463 1.385 . S
C1460 H1441 0.951 . S
C1460 C1458 1.388 . S
C1460 C1461 1.366 . S
C1461 C1460 1.366 . S
C1461 C1462 1.414 . S
C1461 C1464 1.499 . S
C1462 H1442 0.950 . S
C1462 C1461 1.414 . S
C1462 C1463 1.374 . S
C1463 H1443 0.950 . S
C1463 C1459 1.385 . S
C1463 C1462 1.374 . S
C1464 C1461 1.499 . S
C1464 C1465 1.373 . S
C1464 C1466 1.389 . S
C1465 H1444 0.950 . S
C1465 C1464 1.373 . S
C1465 C1481 1.377 . S
C1466 C1464 1.389 . S
C1466 C1467 1.524 . S
C1466 C1480 1.377 . S
C1467 C1466 1.524 . S
C1467 C1468 1.397 . S
C1467 C1472 1.363 . S
C1468 H1445 0.950 . S
C1468 C1467 1.397 . S
C1468 C1469 1.334 . S
C1469 H1446 0.950 . S
C1469 C1468 1.334 . S
C1469 C1470 1.287 . S
C1470 C1469 1.287 . S
C1470 C1471 1.524 . S
C1470 H1489 0.913 . S
C1471 H1447 0.950 . S
C1471 C1470 1.524 . S
C1471 C1472 1.415 . S
C1472 H1448 0.950 . S
C1472 C1467 1.363 . S
C1472 C1471 1.415 . S
C1473 H1449 0.951 . S
C1473 C1474 1.366 . S
C1473 C1475 1.388 . S
C1474 C1473 1.366 . S
C1474 C1478 1.385 . S
C1475 H1450 0.951 . S
C1475 C1473 1.388 . S
C1475 C1476 1.366 . S
C1476 C1475 1.366 . S
C1476 C1477 1.414 . S
C1476 C1479 1.499 . S
C1477 H1451 0.950 . S
C1477 C1476 1.414 . S
C1477 C1478 1.374 . S
C1478 H1452 0.950 . S
C1478 C1474 1.385 . S
C1478 C1477 1.374 . S
C1479 C1476 1.499 . S
C1479 C1480 1.373 . S
C1479 C1481 1.389 . S
C1480 H1453 0.950 . S
C1480 C1466 1.377 . S
C1480 C1479 1.373 . S
C1481 C1465 1.377 . S
C1481 C1479 1.389 . S
C1481 C1482 1.524 . S
C1482 C1481 1.524 . S
C1482 C1483 1.397 . S
C1482 C1487 1.363 . S
C1483 H1454 0.950 . S
C1483 C1482 1.397 . S
C1483 C1484 1.334 . S
C1484 H1455 0.950 . S
C1484 C1483 1.334 . S
C1484 C1485 1.287 . S
C1485 C1484 1.287 . S
C1485 C1486 1.524 . S
C1485 H1488 0.999 . S
C1486 H1456 0.950 . S
C1486 C1485 1.524 . S
C1486 C1487 1.415 . S
C1487 H1457 0.950 . S
C1487 C1482 1.363 . S
C1487 C1486 1.415 . S
H1488 C1485 0.999 . S
H1489 C1470 0.913 . S
H1490 C1508 0.951 . S
H1491 C1510 0.951 . S
H1492 C1512 0.950 . S
H1493 C1513 0.950 . S
H1494 C1515 0.950 . S
H1495 C1518 0.950 . S
H1496 C1519 0.950 . S
H1497 C1521 0.950 . S
H1498 C1522 0.950 . S
H1499 C1523 0.951 . S
H1500 C1525 0.951 . S
H1501 C1527 0.950 . S
H1502 C1528 0.950 . S
H1503 C1530 0.950 . S
H1504 C1533 0.950 . S
H1505 C1534 0.950 . S
H1506 C1536 0.950 . S
H1507 C1537 0.950 . S
C1508 H1490 0.951 . S
C1508 C1509 1.366 . S
C1508 C1510 1.388 . S
C1509 C1508 1.366 . S
C1509 C1513 1.385 . S
C1510 H1491 0.951 . S
C1510 C1508 1.388 . S
C1510 C1511 1.366 . S
C1511 C1510 1.366 . S
C1511 C1512 1.414 . S
C1511 C1514 1.499 . S
C1512 H1492 0.950 . S
C1512 C1511 1.414 . S
C1512 C1513 1.374 . S
C1513 H1493 0.950 . S
C1513 C1509 1.385 . S
C1513 C1512 1.374 . S
C1514 C1511 1.499 . S
C1514 C1515 1.373 . S
C1514 C1516 1.389 . S
C1515 H1494 0.950 . S
C1515 C1514 1.373 . S
C1515 C1531 1.377 . S
C1516 C1514 1.389 . S
C1516 C1517 1.524 . S
C1516 C1530 1.377 . S
C1517 C1516 1.524 . S
C1517 C1518 1.397 . S
C1517 C1522 1.363 . S
C1518 H1495 0.950 . S
C1518 C1517 1.397 . S
C1518 C1519 1.334 . S
C1519 H1496 0.950 . S
C1519 C1518 1.334 . S
C1519 C1520 1.287 . S
C1520 C1519 1.287 . S
C1520 C1521 1.524 . S
C1520 H1539 0.913 . S
C1521 H1497 0.950 . S
C1521 C1520 1.524 . S
C1521 C1522 1.415 . S
C1522 H1498 0.950 . S
C1522 C1517 1.363 . S
C1522 C1521 1.415 . S
C1523 H1499 0.951 . S
C1523 C1524 1.366 . S
C1523 C1525 1.388 . S
C1524 C1523 1.366 . S
C1524 C1528 1.385 . S
C1525 H1500 0.951 . S
C1525 C1523 1.388 . S
C1525 C1526 1.366 . S
C1526 C1525 1.366 . S
C1526 C1527 1.414 . S
C1526 C1529 1.499 . S
C1527 H1501 0.950 . S
C1527 C1526 1.414 . S
C1527 C1528 1.374 . S
C1528 H1502 0.950 . S
C1528 C1524 1.385 . S
C1528 C1527 1.374 . S
C1529 C1526 1.499 . S
C1529 C1530 1.373 . S
C1529 C1531 1.389 . S
C1530 H1503 0.950 . S
C1530 C1516 1.377 . S
C1530 C1529 1.373 . S
C1531 C1515 1.377 . S
C1531 C1529 1.389 . S
C1531 C1532 1.524 . S
C1532 C1531 1.524 . S
C1532 C1533 1.397 . S
C1532 C1537 1.363 . S
C1533 H1504 0.950 . S
C1533 C1532 1.397 . S
C1533 C1534 1.334 . S
C1534 H1505 0.950 . S
C1534 C1533 1.334 . S
C1534 C1535 1.287 . S
C1535 C1534 1.287 . S
C1535 C1536 1.524 . S
C1535 H1538 0.999 . S
C1536 H1506 0.950 . S
C1536 C1535 1.524 . S
C1536 C1537 1.415 . S
C1537 H1507 0.950 . S
C1537 C1532 1.363 . S
C1537 C1536 1.415 . S
H1538 C1535 0.999 . S
H1539 C1520 0.913 . S
H1540 C1558 0.951 . S
H1541 C1560 0.951 . S
H1542 C1562 0.950 . S
H1543 C1563 0.950 . S
H1544 C1565 0.950 . S
H1545 C1568 0.950 . S
H1546 C1569 0.950 . S
H1547 C1571 0.950 . S
H1548 C1572 0.950 . S
H1549 C1573 0.951 . S
H1550 C1575 0.951 . S
H1551 C1577 0.950 . S
H1552 C1578 0.950 . S
H1553 C1580 0.950 . S
H1554 C1583 0.950 . S
H1555 C1584 0.950 . S
H1556 C1586 0.950 . S
H1557 C1587 0.950 . S
C1558 H1540 0.951 . S
C1558 C1559 1.366 . S
C1558 C1560 1.388 . S
C1559 C1558 1.366 . S
C1559 C1563 1.385 . S
C1560 H1541 0.951 . S
C1560 C1558 1.388 . S
C1560 C1561 1.366 . S
C1561 C1560 1.366 . S
C1561 C1562 1.414 . S
C1561 C1564 1.499 . S
C1562 H1542 0.950 . S
C1562 C1561 1.414 . S
C1562 C1563 1.374 . S
C1563 H1543 0.950 . S
C1563 C1559 1.385 . S
C1563 C1562 1.374 . S
C1564 C1561 1.499 . S
C1564 C1565 1.373 . S
C1564 C1566 1.389 . S
C1565 H1544 0.950 . S
C1565 C1564 1.373 . S
C1565 C1581 1.377 . S
C1566 C1564 1.389 . S
C1566 C1567 1.524 . S
C1566 C1580 1.377 . S
C1567 C1566 1.524 . S
C1567 C1568 1.397 . S
C1567 C1572 1.363 . S
C1568 H1545 0.950 . S
C1568 C1567 1.397 . S
C1568 C1569 1.334 . S
C1569 H1546 0.950 . S
C1569 C1568 1.334 . S
C1569 C1570 1.287 . S
C1570 C1569 1.287 . S
C1570 C1571 1.524 . S
C1570 H1589 0.913 . S
C1571 H1547 0.950 . S
C1571 C1570 1.524 . S
C1571 C1572 1.415 . S
C1572 H1548 0.950 . S
C1572 C1567 1.363 . S
C1572 C1571 1.415 . S
C1573 H1549 0.951 . S
C1573 C1574 1.366 . S
C1573 C1575 1.388 . S
C1574 C1573 1.366 . S
C1574 C1578 1.385 . S
C1575 H1550 0.951 . S
C1575 C1573 1.388 . S
C1575 C1576 1.366 . S
C1576 C1575 1.366 . S
C1576 C1577 1.414 . S
C1576 C1579 1.499 . S
C1577 H1551 0.950 . S
C1577 C1576 1.414 . S
C1577 C1578 1.374 . S
C1578 H1552 0.950 . S
C1578 C1574 1.385 . S
C1578 C1577 1.374 . S
C1579 C1576 1.499 . S
C1579 C1580 1.373 . S
C1579 C1581 1.389 . S
C1580 H1553 0.950 . S
C1580 C1566 1.377 . S
C1580 C1579 1.373 . S
C1581 C1565 1.377 . S
C1581 C1579 1.389 . S
C1581 C1582 1.524 . S
C1582 C1581 1.524 . S
C1582 C1583 1.397 . S
C1582 C1587 1.363 . S
C1583 H1554 0.950 . S
C1583 C1582 1.397 . S
C1583 C1584 1.334 . S
C1584 H1555 0.950 . S
C1584 C1583 1.334 . S
C1584 C1585 1.287 . S
C1585 C1584 1.287 . S
C1585 C1586 1.524 . S
C1585 H1588 0.999 . S
C1586 H1556 0.950 . S
C1586 C1585 1.524 . S
C1586 C1587 1.415 . S
C1587 H1557 0.950 . S
C1587 C1582 1.363 . S
C1587 C1586 1.415 . S
H1588 C1585 0.999 . S
H1589 C1570 0.913 . S
H1590 C1608 0.951 . S
H1591 C1610 0.951 . S
H1592 C1612 0.950 . S
H1593 C1613 0.950 . S
H1594 C1615 0.950 . S
H1595 C1618 0.950 . S
H1596 C1619 0.950 . S
H1597 C1621 0.950 . S
H1598 C1622 0.950 . S
H1599 C1623 0.951 . S
H1600 C1625 0.951 . S
H1601 C1627 0.950 . S
H1602 C1628 0.950 . S
H1603 C1630 0.950 . S
H1604 C1633 0.950 . S
H1605 C1634 0.950 . S
H1606 C1636 0.950 . S
H1607 C1637 0.950 . S
C1608 H1590 0.951 . S
C1608 C1609 1.366 . S
C1608 C1610 1.388 . S
C1609 C1608 1.366 . S
C1609 C1613 1.385 . S
C1610 H1591 0.951 . S
C1610 C1608 1.388 . S
C1610 C1611 1.366 . S
C1611 C1610 1.366 . S
C1611 C1612 1.414 . S
C1611 C1614 1.499 . S
C1612 H1592 0.950 . S
C1612 C1611 1.414 . S
C1612 C1613 1.374 . S
C1613 H1593 0.950 . S
C1613 C1609 1.385 . S
C1613 C1612 1.374 . S
C1614 C1611 1.499 . S
C1614 C1615 1.373 . S
C1614 C1616 1.389 . S
C1615 H1594 0.950 . S
C1615 C1614 1.373 . S
C1615 C1631 1.377 . S
C1616 C1614 1.389 . S
C1616 C1617 1.524 . S
C1616 C1630 1.377 . S
C1617 C1616 1.524 . S
C1617 C1618 1.397 . S
C1617 C1622 1.363 . S
C1618 H1595 0.950 . S
C1618 C1617 1.397 . S
C1618 C1619 1.334 . S
C1619 H1596 0.950 . S
C1619 C1618 1.334 . S
C1619 C1620 1.287 . S
C1620 C1619 1.287 . S
C1620 C1621 1.524 . S
C1620 H1639 0.913 . S
C1621 H1597 0.950 . S
C1621 C1620 1.524 . S
C1621 C1622 1.415 . S
C1622 H1598 0.950 . S
C1622 C1617 1.363 . S
C1622 C1621 1.415 . S
C1623 H1599 0.951 . S
C1623 C1624 1.366 . S
C1623 C1625 1.388 . S
C1624 C1623 1.366 . S
C1624 C1628 1.385 . S
C1625 H1600 0.951 . S
C1625 C1623 1.388 . S
C1625 C1626 1.366 . S
C1626 C1625 1.366 . S
C1626 C1627 1.414 . S
C1626 C1629 1.499 . S
C1627 H1601 0.950 . S
C1627 C1626 1.414 . S
C1627 C1628 1.374 . S
C1628 H1602 0.950 . S
C1628 C1624 1.385 . S
C1628 C1627 1.374 . S
C1629 C1626 1.499 . S
C1629 C1630 1.373 . S
C1629 C1631 1.389 . S
C1630 H1603 0.950 . S
C1630 C1616 1.377 . S
C1630 C1629 1.373 . S
C1631 C1615 1.377 . S
C1631 C1629 1.389 . S
C1631 C1632 1.524 . S
C1632 C1631 1.524 . S
C1632 C1633 1.397 . S
C1632 C1637 1.363 . S
C1633 H1604 0.950 . S
C1633 C1632 1.397 . S
C1633 C1634 1.334 . S
C1634 H1605 0.950 . S
C1634 C1633 1.334 . S
C1634 C1635 1.287 . S
C1635 C1634 1.287 . S
C1635 C1636 1.524 . S
C1635 H1638 0.999 . S
C1636 H1606 0.950 . S
C1636 C1635 1.524 . S
C1636 C1637 1.415 . S
C1637 H1607 0.950 . S
C1637 C1632 1.363 . S
C1637 C1636 1.415 . S
H1638 C1635 0.999 . S
H1639 C1620 0.913 . S
H1640 C1658 0.951 . S
H1641 C1660 0.951 . S
H1642 C1662 0.950 . S
H1643 C1663 0.950 . S
H1644 C1665 0.950 . S
H1645 C1668 0.950 . S
H1646 C1669 0.950 . S
H1647 C1671 0.950 . S
H1648 C1672 0.950 . S
H1649 C1673 0.951 . S
H1650 C1675 0.951 . S
H1651 C1677 0.950 . S
H1652 C1678 0.950 . S
H1653 C1680 0.950 . S
H1654 C1683 0.950 . S
H1655 C1684 0.950 . S
H1656 C1686 0.950 . S
H1657 C1687 0.950 . S
C1658 H1640 0.951 . S
C1658 C1659 1.366 . S
C1658 C1660 1.388 . S
C1659 C1658 1.366 . S
C1659 C1663 1.385 . S
C1660 H1641 0.951 . S
C1660 C1658 1.388 . S
C1660 C1661 1.366 . S
C1661 C1660 1.366 . S
C1661 C1662 1.414 . S
C1661 C1664 1.499 . S
C1662 H1642 0.950 . S
C1662 C1661 1.414 . S
C1662 C1663 1.374 . S
C1663 H1643 0.950 . S
C1663 C1659 1.385 . S
C1663 C1662 1.374 . S
C1664 C1661 1.499 . S
C1664 C1665 1.373 . S
C1664 C1666 1.389 . S
C1665 H1644 0.950 . S
C1665 C1664 1.373 . S
C1665 C1681 1.377 . S
C1666 C1664 1.389 . S
C1666 C1667 1.524 . S
C1666 C1680 1.377 . S
C1667 C1666 1.524 . S
C1667 C1668 1.397 . S
C1667 C1672 1.363 . S
C1668 H1645 0.950 . S
C1668 C1667 1.397 . S
C1668 C1669 1.334 . S
C1669 H1646 0.950 . S
C1669 C1668 1.334 . S
C1669 C1670 1.287 . S
C1670 C1669 1.287 . S
C1670 C1671 1.524 . S
C1670 H1689 0.913 . S
C1671 H1647 0.950 . S
C1671 C1670 1.524 . S
C1671 C1672 1.415 . S
C1672 H1648 0.950 . S
C1672 C1667 1.363 . S
C1672 C1671 1.415 . S
C1673 H1649 0.951 . S
C1673 C1674 1.366 . S
C1673 C1675 1.388 . S
C1674 C1673 1.366 . S
C1674 C1678 1.385 . S
C1675 H1650 0.951 . S
C1675 C1673 1.388 . S
C1675 C1676 1.366 . S
C1676 C1675 1.366 . S
C1676 C1677 1.414 . S
C1676 C1679 1.499 . S
C1677 H1651 0.950 . S
C1677 C1676 1.414 . S
C1677 C1678 1.374 . S
C1678 H1652 0.950 . S
C1678 C1674 1.385 . S
C1678 C1677 1.374 . S
C1679 C1676 1.499 . S
C1679 C1680 1.373 . S
C1679 C1681 1.389 . S
C1680 H1653 0.950 . S
C1680 C1666 1.377 . S
C1680 C1679 1.373 . S
C1681 C1665 1.377 . S
C1681 C1679 1.389 . S
C1681 C1682 1.524 . S
C1682 C1681 1.524 . S
C1682 C1683 1.397 . S
C1682 C1687 1.363 . S
C1683 H1654 0.950 . S
C1683 C1682 1.397 . S
C1683 C1684 1.334 . S
C1684 H1655 0.950 . S
C1684 C1683 1.334 . S
C1684 C1685 1.287 . S
C1685 C1684 1.287 . S
C1685 C1686 1.524 . S
C1685 H1688 0.999 . S
C1686 H1656 0.950 . S
C1686 C1685 1.524 . S
C1686 C1687 1.415 . S
C1687 H1657 0.950 . S
C1687 C1682 1.363 . S
C1687 C1686 1.415 . S
H1688 C1685 0.999 . S
H1689 C1670 0.913 . S
H1690 C1708 0.951 . S
H1691 C1710 0.951 . S
H1692 C1712 0.950 . S
H1693 C1713 0.950 . S
H1694 C1715 0.950 . S
H1695 C1718 0.950 . S
H1696 C1719 0.950 . S
H1697 C1721 0.950 . S
H1698 C1722 0.950 . S
H1699 C1723 0.951 . S
H1700 C1725 0.951 . S
H1701 C1727 0.950 . S
H1702 C1728 0.950 . S
H1703 C1730 0.950 . S
H1704 C1733 0.950 . S
H1705 C1734 0.950 . S
H1706 C1736 0.950 . S
H1707 C1737 0.950 . S
C1708 H1690 0.951 . S
C1708 C1709 1.366 . S
C1708 C1710 1.388 . S
C1709 C1708 1.366 . S
C1709 C1713 1.385 . S
C1710 H1691 0.951 . S
C1710 C1708 1.388 . S
C1710 C1711 1.366 . S
C1711 C1710 1.366 . S
C1711 C1712 1.414 . S
C1711 C1714 1.499 . S
C1712 H1692 0.950 . S
C1712 C1711 1.414 . S
C1712 C1713 1.374 . S
C1713 H1693 0.950 . S
C1713 C1709 1.385 . S
C1713 C1712 1.374 . S
C1714 C1711 1.499 . S
C1714 C1715 1.373 . S
C1714 C1716 1.389 . S
C1715 H1694 0.950 . S
C1715 C1714 1.373 . S
C1715 C1731 1.377 . S
C1716 C1714 1.389 . S
C1716 C1717 1.524 . S
C1716 C1730 1.377 . S
C1717 C1716 1.524 . S
C1717 C1718 1.397 . S
C1717 C1722 1.363 . S
C1718 H1695 0.950 . S
C1718 C1717 1.397 . S
C1718 C1719 1.334 . S
C1719 H1696 0.950 . S
C1719 C1718 1.334 . S
C1719 C1720 1.287 . S
C1720 C1719 1.287 . S
C1720 C1721 1.524 . S
C1720 H1739 0.913 . S
C1721 H1697 0.950 . S
C1721 C1720 1.524 . S
C1721 C1722 1.415 . S
C1722 H1698 0.950 . S
C1722 C1717 1.363 . S
C1722 C1721 1.415 . S
C1723 H1699 0.951 . S
C1723 C1724 1.366 . S
C1723 C1725 1.388 . S
C1724 C1723 1.366 . S
C1724 C1728 1.385 . S
C1725 H1700 0.951 . S
C1725 C1723 1.388 . S
C1725 C1726 1.366 . S
C1726 C1725 1.366 . S
C1726 C1727 1.414 . S
C1726 C1729 1.499 . S
C1727 H1701 0.950 . S
C1727 C1726 1.414 . S
C1727 C1728 1.374 . S
C1728 H1702 0.950 . S
C1728 C1724 1.385 . S
C1728 C1727 1.374 . S
C1729 C1726 1.499 . S
C1729 C1730 1.373 . S
C1729 C1731 1.389 . S
C1730 H1703 0.950 . S
C1730 C1716 1.377 . S
C1730 C1729 1.373 . S
C1731 C1715 1.377 . S
C1731 C1729 1.389 . S
C1731 C1732 1.524 . S
C1732 C1731 1.524 . S
C1732 C1733 1.397 . S
C1732 C1737 1.363 . S
C1733 H1704 0.950 . S
C1733 C1732 1.397 . S
C1733 C1734 1.334 . S
C1734 H1705 0.950 . S
C1734 C1733 1.334 . S
C1734 C1735 1.287 . S
C1735 C1734 1.287 . S
C1735 C1736 1.524 . S
C1735 H1738 0.999 . S
C1736 H1706 0.950 . S
C1736 C1735 1.524 . S
C1736 C1737 1.415 . S
C1737 H1707 0.950 . S
C1737 C1732 1.363 . S
C1737 C1736 1.415 . S
H1738 C1735 0.999 . S
H1739 C1720 0.913 . S
H1740 C1758 0.951 . S
H1741 C1760 0.951 . S
H1742 C1762 0.950 . S
H1743 C1763 0.950 . S
H1744 C1765 0.950 . S
H1745 C1768 0.950 . S
H1746 C1769 0.950 . S
H1747 C1771 0.950 . S
H1748 C1772 0.950 . S
H1749 C1773 0.951 . S
H1750 C1775 0.951 . S
H1751 C1777 0.950 . S
H1752 C1778 0.950 . S
H1753 C1780 0.950 . S
H1754 C1783 0.950 . S
H1755 C1784 0.950 . S
H1756 C1786 0.950 . S
H1757 C1787 0.950 . S
C1758 H1740 0.951 . S
C1758 C1759 1.366 . S
C1758 C1760 1.388 . S
C1759 C1758 1.366 . S
C1759 C1763 1.385 . S
C1760 H1741 0.951 . S
C1760 C1758 1.388 . S
C1760 C1761 1.366 . S
C1761 C1760 1.366 . S
C1761 C1762 1.414 . S
C1761 C1764 1.499 . S
C1762 H1742 0.950 . S
C1762 C1761 1.414 . S
C1762 C1763 1.374 . S
C1763 H1743 0.950 . S
C1763 C1759 1.385 . S
C1763 C1762 1.374 . S
C1764 C1761 1.499 . S
C1764 C1765 1.373 . S
C1764 C1766 1.389 . S
C1765 H1744 0.950 . S
C1765 C1764 1.373 . S
C1765 C1781 1.377 . S
C1766 C1764 1.389 . S
C1766 C1767 1.524 . S
C1766 C1780 1.377 . S
C1767 C1766 1.524 . S
C1767 C1768 1.397 . S
C1767 C1772 1.363 . S
C1768 H1745 0.950 . S
C1768 C1767 1.397 . S
C1768 C1769 1.334 . S
C1769 H1746 0.950 . S
C1769 C1768 1.334 . S
C1769 C1770 1.287 . S
C1770 C1769 1.287 . S
C1770 C1771 1.524 . S
C1770 H1789 0.913 . S
C1771 H1747 0.950 . S
C1771 C1770 1.524 . S
C1771 C1772 1.415 . S
C1772 H1748 0.950 . S
C1772 C1767 1.363 . S
C1772 C1771 1.415 . S
C1773 H1749 0.951 . S
C1773 C1774 1.366 . S
C1773 C1775 1.388 . S
C1774 C1773 1.366 . S
C1774 C1778 1.385 . S
C1775 H1750 0.951 . S
C1775 C1773 1.388 . S
C1775 C1776 1.366 . S
C1776 C1775 1.366 . S
C1776 C1777 1.414 . S
C1776 C1779 1.499 . S
C1777 H1751 0.950 . S
C1777 C1776 1.414 . S
C1777 C1778 1.374 . S
C1778 H1752 0.950 . S
C1778 C1774 1.385 . S
C1778 C1777 1.374 . S
C1779 C1776 1.499 . S
C1779 C1780 1.373 . S
C1779 C1781 1.389 . S
C1780 H1753 0.950 . S
C1780 C1766 1.377 . S
C1780 C1779 1.373 . S
C1781 C1765 1.377 . S
C1781 C1779 1.389 . S
C1781 C1782 1.524 . S
C1782 C1781 1.524 . S
C1782 C1783 1.397 . S
C1782 C1787 1.363 . S
C1783 H1754 0.950 . S
C1783 C1782 1.397 . S
C1783 C1784 1.334 . S
C1784 H1755 0.950 . S
C1784 C1783 1.334 . S
C1784 C1785 1.287 . S
C1785 C1784 1.287 . S
C1785 C1786 1.524 . S
C1785 H1788 0.999 . S
C1786 H1756 0.950 . S
C1786 C1785 1.524 . S
C1786 C1787 1.415 . S
C1787 H1757 0.950 . S
C1787 C1782 1.363 . S
C1787 C1786 1.415 . S
H1788 C1785 0.999 . S
H1789 C1770 0.913 . S
H1790 C1808 0.951 . S
H1791 C1810 0.951 . S
H1792 C1812 0.950 . S
H1793 C1813 0.950 . S
H1794 C1815 0.950 . S
H1795 C1818 0.950 . S
H1796 C1819 0.950 . S
H1797 C1821 0.950 . S
H1798 C1822 0.950 . S
H1799 C1823 0.951 . S
H1800 C1825 0.951 . S
H1801 C1827 0.950 . S
H1802 C1828 0.950 . S
H1803 C1830 0.950 . S
H1804 C1833 0.950 . S
H1805 C1834 0.950 . S
H1806 C1836 0.950 . S
H1807 C1837 0.950 . S
C1808 H1790 0.951 . S
C1808 C1809 1.366 . S
C1808 C1810 1.388 . S
C1809 C1808 1.366 . S
C1809 C1813 1.385 . S
C1810 H1791 0.951 . S
C1810 C1808 1.388 . S
C1810 C1811 1.366 . S
C1811 C1810 1.366 . S
C1811 C1812 1.414 . S
C1811 C1814 1.499 . S
C1812 H1792 0.950 . S
C1812 C1811 1.414 . S
C1812 C1813 1.374 . S
C1813 H1793 0.950 . S
C1813 C1809 1.385 . S
C1813 C1812 1.374 . S
C1814 C1811 1.499 . S
C1814 C1815 1.373 . S
C1814 C1816 1.389 . S
C1815 H1794 0.950 . S
C1815 C1814 1.373 . S
C1815 C1831 1.377 . S
C1816 C1814 1.389 . S
C1816 C1817 1.524 . S
C1816 C1830 1.377 . S
C1817 C1816 1.524 . S
C1817 C1818 1.397 . S
C1817 C1822 1.363 . S
C1818 H1795 0.950 . S
C1818 C1817 1.397 . S
C1818 C1819 1.334 . S
C1819 H1796 0.950 . S
C1819 C1818 1.334 . S
C1819 C1820 1.287 . S
C1820 C1819 1.287 . S
C1820 C1821 1.524 . S
C1820 H1839 0.913 . S
C1821 H1797 0.950 . S
C1821 C1820 1.524 . S
C1821 C1822 1.415 . S
C1822 H1798 0.950 . S
C1822 C1817 1.363 . S
C1822 C1821 1.415 . S
C1823 H1799 0.951 . S
C1823 C1824 1.366 . S
C1823 C1825 1.388 . S
C1824 C1823 1.366 . S
C1824 C1828 1.385 . S
C1825 H1800 0.951 . S
C1825 C1823 1.388 . S
C1825 C1826 1.366 . S
C1826 C1825 1.366 . S
C1826 C1827 1.414 . S
C1826 C1829 1.499 . S
C1827 H1801 0.950 . S
C1827 C1826 1.414 . S
C1827 C1828 1.374 . S
C1828 H1802 0.950 . S
C1828 C1824 1.385 . S
C1828 C1827 1.374 . S
C1829 C1826 1.499 . S
C1829 C1830 1.373 . S
C1829 C1831 1.389 . S
C1830 H1803 0.950 . S
C1830 C1816 1.377 . S
C1830 C1829 1.373 . S
C1831 C1815 1.377 . S
C1831 C1829 1.389 . S
C1831 C1832 1.524 . S
C1832 C1831 1.524 . S
C1832 C1833 1.397 . S
C1832 C1837 1.363 . S
C1833 H1804 0.950 . S
C1833 C1832 1.397 . S
C1833 C1834 1.334 . S
C1834 H1805 0.950 . S
C1834 C1833 1.334 . S
C1834 C1835 1.287 . S
C1835 C1834 1.287 . S
C1835 C1836 1.524 . S
C1835 H1838 0.999 . S
C1836 H1806 0.950 . S
C1836 C1835 1.524 . S
C1836 C1837 1.415 . S
C1837 H1807 0.950 . S
C1837 C1832 1.363 . S
C1837 C1836 1.415 . S
H1838 C1835 0.999 . S
H1839 C1820 0.913 . S
H1840 C1858 0.951 1_545 S
H1841 C1860 0.951 . S
H1842 C1862 0.950 . S
H1843 C1863 0.950 . S
H1844 C1865 0.950 . S
H1845 C1868 0.950 . S
H1846 C1869 0.950 . S
H1847 C1871 0.950 . S
H1848 C1872 0.950 . S
H1849 C1873 0.951 . S
H1850 C1875 0.951 . S
H1851 C1877 0.950 . S
H1852 C1878 0.950 . S
H1853 C1880 0.950 . S
H1854 C1883 0.950 . S
H1855 C1884 0.950 . S
H1856 C1886 0.950 . S
H1857 C1887 0.950 . S
C1858 H1840 0.951 1_565 S
C1858 C1859 1.366 . S
C1858 C1860 1.388 . S
C1859 C1858 1.366 . S
C1859 C1863 1.385 . S
C1860 H1841 0.951 . S
C1860 C1858 1.388 . S
C1860 C1861 1.366 . S
C1861 C1860 1.366 . S
C1861 C1862 1.414 . S
C1861 C1864 1.499 . S
C1862 H1842 0.950 . S
C1862 C1861 1.414 . S
C1862 C1863 1.374 . S
C1863 H1843 0.950 . S
C1863 C1859 1.385 . S
C1863 C1862 1.374 . S
C1864 C1861 1.499 . S
C1864 C1865 1.373 . S
C1864 C1866 1.389 . S
C1865 H1844 0.950 . S
C1865 C1864 1.373 . S
C1865 C1881 1.377 . S
C1866 C1864 1.389 . S
C1866 C1867 1.524 . S
C1866 C1880 1.377 . S
C1867 C1866 1.524 . S
C1867 C1868 1.397 . S
C1867 C1872 1.363 . S
C1868 H1845 0.950 . S
C1868 C1867 1.397 . S
C1868 C1869 1.334 . S
C1869 H1846 0.950 . S
C1869 C1868 1.334 . S
C1869 C1870 1.287 1_565 S
C1870 C1869 1.287 1_545 S
C1870 C1871 1.524 . S
C1870 H1889 0.913 . S
C1871 H1847 0.950 . S
C1871 C1870 1.524 . S
C1871 C1872 1.415 1_545 S
C1872 H1848 0.950 . S
C1872 C1867 1.363 . S
C1872 C1871 1.415 1_565 S
C1873 H1849 0.951 . S
C1873 C1874 1.366 . S
C1873 C1875 1.388 . S
C1874 C1873 1.366 . S
C1874 C1878 1.385 . S
C1875 H1850 0.951 . S
C1875 C1873 1.388 . S
C1875 C1876 1.366 . S
C1876 C1875 1.366 . S
C1876 C1877 1.414 . S
C1876 C1879 1.499 . S
C1877 H1851 0.950 . S
C1877 C1876 1.414 . S
C1877 C1878 1.374 . S
C1878 H1852 0.950 . S
C1878 C1874 1.385 . S
C1878 C1877 1.374 . S
C1879 C1876 1.499 . S
C1879 C1880 1.373 . S
C1879 C1881 1.389 . S
C1880 H1853 0.950 . S
C1880 C1866 1.377 . S
C1880 C1879 1.373 . S
C1881 C1865 1.377 . S
C1881 C1879 1.389 . S
C1881 C1882 1.524 . S
C1882 C1881 1.524 . S
C1882 C1883 1.397 . S
C1882 C1887 1.363 . S
C1883 H1854 0.950 . S
C1883 C1882 1.397 . S
C1883 C1884 1.334 . S
C1884 H1855 0.950 . S
C1884 C1883 1.334 . S
C1884 C1885 1.287 . S
C1885 C1884 1.287 . S
C1885 C1886 1.524 . S
C1885 H1888 0.999 . S
C1886 H1856 0.950 . S
C1886 C1885 1.524 . S
C1886 C1887 1.415 . S
C1887 H1857 0.950 . S
C1887 C1882 1.363 . S
C1887 C1886 1.415 . S
H1888 C1885 0.999 . S
H1889 C1870 0.913 . S
H1890 C1908 0.951 . S
H1891 C1910 0.951 . S
H1892 C1912 0.950 . S
H1893 C1913 0.950 . S
H1894 C1915 0.950 . S
H1895 C1918 0.950 . S
H1896 C1919 0.950 . S
H1897 C1921 0.950 . S
H1898 C1922 0.950 . S
H1899 C1923 0.951 . S
H1900 C1925 0.951 . S
H1901 C1927 0.950 . S
H1902 C1928 0.950 . S
H1903 C1930 0.950 . S
H1904 C1933 0.950 . S
H1905 C1934 0.950 . S
H1906 C1936 0.950 . S
H1907 C1937 0.950 . S
C1908 H1890 0.951 . S
C1908 C1909 1.366 . S
C1908 C1910 1.388 . S
C1909 C1908 1.366 . S
C1909 C1913 1.385 . S
C1910 H1891 0.951 . S
C1910 C1908 1.388 . S
C1910 C1911 1.366 . S
C1911 C1910 1.366 . S
C1911 C1912 1.414 . S
C1911 C1914 1.499 . S
C1912 H1892 0.950 . S
C1912 C1911 1.414 . S
C1912 C1913 1.374 . S
C1913 H1893 0.950 . S
C1913 C1909 1.385 . S
C1913 C1912 1.374 . S
C1914 C1911 1.499 . S
C1914 C1915 1.373 . S
C1914 C1916 1.389 . S
C1915 H1894 0.950 . S
C1915 C1914 1.373 . S
C1915 C1931 1.377 . S
C1916 C1914 1.389 . S
C1916 C1917 1.524 . S
C1916 C1930 1.377 . S
C1917 C1916 1.524 . S
C1917 C1918 1.397 . S
C1917 C1922 1.363 . S
C1918 H1895 0.950 . S
C1918 C1917 1.397 . S
C1918 C1919 1.334 . S
C1919 H1896 0.950 . S
C1919 C1918 1.334 . S
C1919 C1920 1.287 . S
C1920 C1919 1.287 . S
C1920 C1921 1.524 . S
C1920 H1939 0.913 . S
C1921 H1897 0.950 . S
C1921 C1920 1.524 . S
C1921 C1922 1.415 . S
C1922 H1898 0.950 . S
C1922 C1917 1.363 . S
C1922 C1921 1.415 . S
C1923 H1899 0.951 . S
C1923 C1924 1.366 . S
C1923 C1925 1.388 . S
C1924 C1923 1.366 . S
C1924 C1928 1.385 . S
C1925 H1900 0.951 . S
C1925 C1923 1.388 . S
C1925 C1926 1.366 . S
C1926 C1925 1.366 . S
C1926 C1927 1.414 . S
C1926 C1929 1.499 . S
C1927 H1901 0.950 . S
C1927 C1926 1.414 . S
C1927 C1928 1.374 . S
C1928 H1902 0.950 . S
C1928 C1924 1.385 . S
C1928 C1927 1.374 . S
C1929 C1926 1.499 . S
C1929 C1930 1.373 . S
C1929 C1931 1.389 . S
C1930 H1903 0.950 . S
C1930 C1916 1.377 . S
C1930 C1929 1.373 . S
C1931 C1915 1.377 . S
C1931 C1929 1.389 . S
C1931 C1932 1.524 . S
C1932 C1931 1.524 . S
C1932 C1933 1.397 . S
C1932 C1937 1.363 . S
C1933 H1904 0.950 . S
C1933 C1932 1.397 . S
C1933 C1934 1.334 . S
C1934 H1905 0.950 . S
C1934 C1933 1.334 . S
C1934 C1935 1.287 . S
C1935 C1934 1.287 . S
C1935 C1936 1.524 . S
C1935 H1938 0.999 . S
C1936 H1906 0.950 . S
C1936 C1935 1.524 . S
C1936 C1937 1.415 . S
C1937 H1907 0.950 . S
C1937 C1932 1.363 . S
C1937 C1936 1.415 . S
H1938 C1935 0.999 . S
H1939 C1920 0.913 . S
H1940 C1958 0.951 . S
H1941 C1960 0.951 . S
H1942 C1962 0.950 . S
H1943 C1963 0.950 . S
H1944 C1965 0.950 . S
H1945 C1968 0.950 . S
H1946 C1969 0.950 . S
H1947 C1971 0.950 . S
H1948 C1972 0.950 . S
H1949 C1973 0.951 . S
H1950 C1975 0.951 . S
H1951 C1977 0.950 . S
H1952 C1978 0.950 . S
H1953 C1980 0.950 . S
H1954 C1983 0.950 . S
H1955 C1984 0.950 . S
H1956 C1986 0.950 . S
H1957 C1987 0.950 . S
C1958 H1940 0.951 . S
C1958 C1959 1.366 . S
C1958 C1960 1.388 . S
C1959 C1958 1.366 . S
C1959 C1963 1.385 . S
C1960 H1941 0.951 . S
C1960 C1958 1.388 . S
C1960 C1961 1.366 . S
C1961 C1960 1.366 . S
C1961 C1962 1.414 . S
C1961 C1964 1.499 . S
C1962 H1942 0.950 . S
C1962 C1961 1.414 . S
C1962 C1963 1.374 . S
C1963 H1943 0.950 . S
C1963 C1959 1.385 . S
C1963 C1962 1.374 . S
C1964 C1961 1.499 . S
C1964 C1965 1.373 . S
C1964 C1966 1.389 . S
C1965 H1944 0.950 . S
C1965 C1964 1.373 . S
C1965 C1981 1.377 . S
C1966 C1964 1.389 . S
C1966 C1967 1.524 . S
C1966 C1980 1.377 . S
C1967 C1966 1.524 . S
C1967 C1968 1.397 . S
C1967 C1972 1.363 . S
C1968 H1945 0.950 . S
C1968 C1967 1.397 . S
C1968 C1969 1.334 . S
C1969 H1946 0.950 . S
C1969 C1968 1.334 . S
C1969 C1970 1.287 . S
C1970 C1969 1.287 . S
C1970 C1971 1.524 . S
C1970 H1989 0.913 . S
C1971 H1947 0.950 . S
C1971 C1970 1.524 . S
C1971 C1972 1.415 . S
C1972 H1948 0.950 . S
C1972 C1967 1.363 . S
C1972 C1971 1.415 . S
C1973 H1949 0.951 . S
C1973 C1974 1.366 . S
C1973 C1975 1.388 . S
C1974 C1973 1.366 . S
C1974 C1978 1.385 . S
C1975 H1950 0.951 . S
C1975 C1973 1.388 . S
C1975 C1976 1.366 . S
C1976 C1975 1.366 . S
C1976 C1977 1.414 . S
C1976 C1979 1.499 . S
C1977 H1951 0.950 . S
C1977 C1976 1.414 . S
C1977 C1978 1.374 . S
C1978 H1952 0.950 . S
C1978 C1974 1.385 . S
C1978 C1977 1.374 . S
C1979 C1976 1.499 . S
C1979 C1980 1.373 . S
C1979 C1981 1.389 . S
C1980 H1953 0.950 . S
C1980 C1966 1.377 . S
C1980 C1979 1.373 . S
C1981 C1965 1.377 . S
C1981 C1979 1.389 . S
C1981 C1982 1.524 . S
C1982 C1981 1.524 . S
C1982 C1983 1.397 . S
C1982 C1987 1.363 . S
C1983 H1954 0.950 . S
C1983 C1982 1.397 . S
C1983 C1984 1.334 . S
C1984 H1955 0.950 . S
C1984 C1983 1.334 . S
C1984 C1985 1.287 . S
C1985 C1984 1.287 . S
C1985 C1986 1.524 . S
C1985 H1988 0.999 . S
C1986 H1956 0.950 . S
C1986 C1985 1.524 . S
C1986 C1987 1.415 . S
C1987 H1957 0.950 . S
C1987 C1982 1.363 . S
C1987 C1986 1.415 . S
H1988 C1985 0.999 . S
H1989 C1970 0.913 . S
H1990 C2008 0.951 . S
H1991 C2010 0.951 . S
H1992 C2012 0.950 . S
H1993 C2013 0.950 . S
H1994 C2015 0.950 . S
H1995 C2018 0.950 . S
H1996 C2019 0.950 . S
H1997 C2021 0.950 . S
H1998 C2022 0.950 . S
H1999 C2023 0.951 . S
H2000 C2025 0.951 . S
H2001 C2027 0.950 . S
H2002 C2028 0.950 . S
H2003 C2030 0.950 . S
H2004 C2033 0.950 . S
H2005 C2034 0.950 . S
H2006 C2036 0.950 . S
H2007 C2037 0.950 . S
C2008 H1990 0.951 . S
C2008 C2009 1.366 . S
C2008 C2010 1.388 . S
C2009 C2008 1.366 . S
C2009 C2013 1.385 . S
C2010 H1991 0.951 . S
C2010 C2008 1.388 . S
C2010 C2011 1.366 . S
C2011 C2010 1.366 . S
C2011 C2012 1.414 . S
C2011 C2014 1.499 . S
C2012 H1992 0.950 . S
C2012 C2011 1.414 . S
C2012 C2013 1.374 . S
C2013 H1993 0.950 . S
C2013 C2009 1.385 . S
C2013 C2012 1.374 . S
C2014 C2011 1.499 . S
C2014 C2015 1.373 . S
C2014 C2016 1.389 . S
C2015 H1994 0.950 . S
C2015 C2014 1.373 . S
C2015 C2031 1.377 . S
C2016 C2014 1.389 . S
C2016 C2017 1.524 . S
C2016 C2030 1.377 . S
C2017 C2016 1.524 . S
C2017 C2018 1.397 . S
C2017 C2022 1.363 . S
C2018 H1995 0.950 . S
C2018 C2017 1.397 . S
C2018 C2019 1.334 . S
C2019 H1996 0.950 . S
C2019 C2018 1.334 . S
C2019 C2020 1.287 . S
C2020 C2019 1.287 . S
C2020 C2021 1.524 . S
C2020 H2039 0.913 . S
C2021 H1997 0.950 . S
C2021 C2020 1.524 . S
C2021 C2022 1.415 . S
C2022 H1998 0.950 . S
C2022 C2017 1.363 . S
C2022 C2021 1.415 . S
C2023 H1999 0.951 . S
C2023 C2024 1.366 . S
C2023 C2025 1.388 . S
C2024 C2023 1.366 . S
C2024 C2028 1.385 . S
C2025 H2000 0.951 . S
C2025 C2023 1.388 . S
C2025 C2026 1.366 . S
C2026 C2025 1.366 . S
C2026 C2027 1.414 . S
C2026 C2029 1.499 . S
C2027 H2001 0.950 . S
C2027 C2026 1.414 . S
C2027 C2028 1.374 . S
C2028 H2002 0.950 . S
C2028 C2024 1.385 . S
C2028 C2027 1.374 . S
C2029 C2026 1.499 . S
C2029 C2030 1.373 . S
C2029 C2031 1.389 . S
C2030 H2003 0.950 . S
C2030 C2016 1.377 . S
C2030 C2029 1.373 . S
C2031 C2015 1.377 . S
C2031 C2029 1.389 . S
C2031 C2032 1.524 . S
C2032 C2031 1.524 . S
C2032 C2033 1.397 . S
C2032 C2037 1.363 . S
C2033 H2004 0.950 . S
C2033 C2032 1.397 . S
C2033 C2034 1.334 . S
C2034 H2005 0.950 . S
C2034 C2033 1.334 . S
C2034 C2035 1.287 . S
C2035 C2034 1.287 . S
C2035 C2036 1.524 . S
C2035 H2038 0.999 . S
C2036 H2006 0.950 . S
C2036 C2035 1.524 . S
C2036 C2037 1.415 . S
C2037 H2007 0.950 . S
C2037 C2032 1.363 . S
C2037 C2036 1.415 . S
H2038 C2035 0.999 . S
H2039 C2020 0.913 . S
H2040 C2058 0.951 . S
H2041 C2060 0.951 . S
H2042 C2062 0.950 . S
H2043 C2063 0.950 . S
H2044 C2065 0.950 . S
H2045 C2068 0.950 . S
H2046 C2069 0.950 . S
H2047 C2071 0.950 . S
H2048 C2072 0.950 . S
H2049 C2073 0.951 . S
H2050 C2075 0.951 . S
H2051 C2077 0.950 . S
H2052 C2078 0.950 . S
H2053 C2080 0.950 . S
H2054 C2083 0.950 . S
H2055 C2084 0.950 . S
H2056 C2086 0.950 . S
H2057 C2087 0.950 . S
C2058 H2040 0.951 . S
C2058 C2059 1.366 . S
C2058 C2060 1.388 . S
C2059 C2058 1.366 . S
C2059 C2063 1.385 . S
C2060 H2041 0.951 . S
C2060 C2058 1.388 . S
C2060 C2061 1.366 . S
C2061 C2060 1.366 . S
C2061 C2062 1.414 . S
C2061 C2064 1.499 . S
C2062 H2042 0.950 . S
C2062 C2061 1.414 . S
C2062 C2063 1.374 . S
C2063 H2043 0.950 . S
C2063 C2059 1.385 . S
C2063 C2062 1.374 . S
C2064 C2061 1.499 . S
C2064 C2065 1.373 . S
C2064 C2066 1.389 . S
C2065 H2044 0.950 . S
C2065 C2064 1.373 . S
C2065 C2081 1.377 . S
C2066 C2064 1.389 . S
C2066 C2067 1.524 . S
C2066 C2080 1.377 . S
C2067 C2066 1.524 . S
C2067 C2068 1.397 . S
C2067 C2072 1.363 . S
C2068 H2045 0.950 . S
C2068 C2067 1.397 . S
C2068 C2069 1.334 . S
C2069 H2046 0.950 . S
C2069 C2068 1.334 . S
C2069 C2070 1.287 . S
C2070 C2069 1.287 . S
C2070 C2071 1.524 . S
C2070 H2089 0.913 . S
C2071 H2047 0.950 . S
C2071 C2070 1.524 . S
C2071 C2072 1.415 . S
C2072 H2048 0.950 . S
C2072 C2067 1.363 . S
C2072 C2071 1.415 . S
C2073 H2049 0.951 . S
C2073 C2074 1.366 . S
C2073 C2075 1.388 . S
C2074 C2073 1.366 . S
C2074 C2078 1.385 . S
C2075 H2050 0.951 . S
C2075 C2073 1.388 . S
C2075 C2076 1.366 . S
C2076 C2075 1.366 . S
C2076 C2077 1.414 . S
C2076 C2079 1.499 . S
C2077 H2051 0.950 . S
C2077 C2076 1.414 . S
C2077 C2078 1.374 . S
C2078 H2052 0.950 . S
C2078 C2074 1.385 . S
C2078 C2077 1.374 . S
C2079 C2076 1.499 . S
C2079 C2080 1.373 . S
C2079 C2081 1.389 . S
C2080 H2053 0.950 . S
C2080 C2066 1.377 . S
C2080 C2079 1.373 . S
C2081 C2065 1.377 . S
C2081 C2079 1.389 . S
C2081 C2082 1.524 . S
C2082 C2081 1.524 . S
C2082 C2083 1.397 . S
C2082 C2087 1.363 . S
C2083 H2054 0.950 . S
C2083 C2082 1.397 . S
C2083 C2084 1.334 . S
C2084 H2055 0.950 . S
C2084 C2083 1.334 . S
C2084 C2085 1.287 . S
C2085 C2084 1.287 . S
C2085 C2086 1.524 . S
C2085 H2088 0.999 . S
C2086 H2056 0.950 . S
C2086 C2085 1.524 . S
C2086 C2087 1.415 . S
C2087 H2057 0.950 . S
C2087 C2082 1.363 . S
C2087 C2086 1.415 . S
H2088 C2085 0.999 . S
H2089 C2070 0.913 . S
H2090 C2108 0.951 . S
H2091 C2110 0.951 . S
H2092 C2112 0.950 . S
H2093 C2113 0.950 . S
H2094 C2115 0.950 . S
H2095 C2118 0.950 . S
H2096 C2119 0.950 . S
H2097 C2121 0.950 . S
H2098 C2122 0.950 . S
H2099 C2123 0.951 . S
H2100 C2125 0.951 . S
H2101 C2127 0.950 . S
H2102 C2128 0.950 . S
H2103 C2130 0.950 . S
H2104 C2133 0.950 . S
H2105 C2134 0.950 . S
H2106 C2136 0.950 . S
H2107 C2137 0.950 . S
C2108 H2090 0.951 . S
C2108 C2109 1.366 . S
C2108 C2110 1.388 . S
C2109 C2108 1.366 . S
C2109 C2113 1.385 . S
C2110 H2091 0.951 . S
C2110 C2108 1.388 . S
C2110 C2111 1.366 . S
C2111 C2110 1.366 . S
C2111 C2112 1.414 . S
C2111 C2114 1.499 . S
C2112 H2092 0.950 . S
C2112 C2111 1.414 . S
C2112 C2113 1.374 . S
C2113 H2093 0.950 . S
C2113 C2109 1.385 . S
C2113 C2112 1.374 . S
C2114 C2111 1.499 . S
C2114 C2115 1.373 . S
C2114 C2116 1.389 . S
C2115 H2094 0.950 . S
C2115 C2114 1.373 . S
C2115 C2131 1.377 . S
C2116 C2114 1.389 . S
C2116 C2117 1.524 . S
C2116 C2130 1.377 . S
C2117 C2116 1.524 . S
C2117 C2118 1.397 . S
C2117 C2122 1.363 . S
C2118 H2095 0.950 . S
C2118 C2117 1.397 . S
C2118 C2119 1.334 . S
C2119 H2096 0.950 . S
C2119 C2118 1.334 . S
C2119 C2120 1.287 . S
C2120 C2119 1.287 . S
C2120 C2121 1.524 . S
C2120 H2139 0.913 . S
C2121 H2097 0.950 . S
C2121 C2120 1.524 . S
C2121 C2122 1.415 . S
C2122 H2098 0.950 . S
C2122 C2117 1.363 . S
C2122 C2121 1.415 . S
C2123 H2099 0.951 . S
C2123 C2124 1.366 . S
C2123 C2125 1.388 . S
C2124 C2123 1.366 . S
C2124 C2128 1.385 . S
C2125 H2100 0.951 . S
C2125 C2123 1.388 . S
C2125 C2126 1.366 . S
C2126 C2125 1.366 . S
C2126 C2127 1.414 . S
C2126 C2129 1.499 . S
C2127 H2101 0.950 . S
C2127 C2126 1.414 . S
C2127 C2128 1.374 . S
C2128 H2102 0.950 . S
C2128 C2124 1.385 . S
C2128 C2127 1.374 . S
C2129 C2126 1.499 . S
C2129 C2130 1.373 . S
C2129 C2131 1.389 . S
C2130 H2103 0.950 . S
C2130 C2116 1.377 . S
C2130 C2129 1.373 . S
C2131 C2115 1.377 . S
C2131 C2129 1.389 . S
C2131 C2132 1.524 . S
C2132 C2131 1.524 . S
C2132 C2133 1.397 . S
C2132 C2137 1.363 . S
C2133 H2104 0.950 . S
C2133 C2132 1.397 . S
C2133 C2134 1.334 . S
C2134 H2105 0.950 . S
C2134 C2133 1.334 . S
C2134 C2135 1.287 . S
C2135 C2134 1.287 . S
C2135 C2136 1.524 . S
C2135 H2138 0.964 1_556 S
C2136 H2106 0.950 . S
C2136 C2135 1.524 . S
C2136 C2137 1.415 . S
C2137 H2107 0.950 . S
C2137 C2132 1.363 . S
C2137 C2136 1.415 . S
H2138 C2135 0.964 1_554 S
H2139 C2120 0.913 . S
H2140 C2158 0.951 . S
H2141 C2160 0.951 . S
H2142 C2162 0.950 . S
H2143 C2163 0.950 . S
H2144 C2165 0.950 . S
H2145 C2168 0.950 . S
H2146 C2169 0.950 . S
H2147 C2171 0.950 . S
H2148 C2172 0.950 . S
H2149 C2173 0.951 . S
H2150 C2175 0.951 . S
H2151 C2177 0.950 . S
H2152 C2178 0.950 . S
H2153 C2180 0.950 . S
H2154 C2183 0.950 . S
H2155 C2184 0.950 . S
H2156 C2186 0.950 . S
H2157 C2187 0.950 . S
C2158 H2140 0.951 . S
C2158 C2159 1.366 . S
C2158 C2160 1.388 . S
C2159 C2158 1.366 . S
C2159 C2163 1.385 . S
C2160 H2141 0.951 . S
C2160 C2158 1.388 . S
C2160 C2161 1.366 . S
C2161 C2160 1.366 . S
C2161 C2162 1.414 . S
C2161 C2164 1.499 . S
C2162 H2142 0.950 . S
C2162 C2161 1.414 . S
C2162 C2163 1.374 . S
C2163 H2143 0.950 . S
C2163 C2159 1.385 . S
C2163 C2162 1.374 . S
C2164 C2161 1.499 . S
C2164 C2165 1.373 . S
C2164 C2166 1.389 . S
C2165 H2144 0.950 . S
C2165 C2164 1.373 . S
C2165 C2181 1.377 . S
C2166 C2164 1.389 . S
C2166 C2167 1.524 . S
C2166 C2180 1.377 . S
C2167 C2166 1.524 . S
C2167 C2168 1.397 . S
C2167 C2172 1.363 . S
C2168 H2145 0.950 . S
C2168 C2167 1.397 . S
C2168 C2169 1.334 . S
C2169 H2146 0.950 . S
C2169 C2168 1.334 . S
C2169 C2170 1.287 . S
C2170 C2169 1.287 . S
C2170 C2171 1.524 . S
C2170 H2189 0.913 . S
C2171 H2147 0.950 . S
C2171 C2170 1.524 . S
C2171 C2172 1.415 . S
C2172 H2148 0.950 . S
C2172 C2167 1.363 . S
C2172 C2171 1.415 . S
C2173 H2149 0.951 . S
C2173 C2174 1.366 . S
C2173 C2175 1.388 . S
C2174 C2173 1.366 . S
C2174 C2178 1.385 . S
C2175 H2150 0.951 . S
C2175 C2173 1.388 . S
C2175 C2176 1.366 . S
C2176 C2175 1.366 . S
C2176 C2177 1.414 . S
C2176 C2179 1.499 . S
C2177 H2151 0.950 . S
C2177 C2176 1.414 . S
C2177 C2178 1.374 . S
C2178 H2152 0.950 . S
C2178 C2174 1.385 . S
C2178 C2177 1.374 . S
C2179 C2176 1.499 . S
C2179 C2180 1.373 . S
C2179 C2181 1.389 . S
C2180 H2153 0.950 . S
C2180 C2166 1.377 . S
C2180 C2179 1.373 . S
C2181 C2165 1.377 . S
C2181 C2179 1.389 . S
C2181 C2182 1.524 . S
C2182 C2181 1.524 . S
C2182 C2183 1.397 . S
C2182 C2187 1.363 . S
C2183 H2154 0.950 . S
C2183 C2182 1.397 . S
C2183 C2184 1.334 . S
C2184 H2155 0.950 . S
C2184 C2183 1.334 . S
C2184 C2185 1.287 . S
C2185 C2184 1.287 . S
C2185 C2186 1.524 . S
C2185 H2188 0.999 . S
C2186 H2156 0.950 . S
C2186 C2185 1.524 . S
C2186 C2187 1.415 . S
C2187 H2157 0.950 . S
C2187 C2182 1.363 . S
C2187 C2186 1.415 . S
H2188 C2185 0.999 . S
H2189 C2170 0.913 . S
H2190 C2208 0.951 . S
H2191 C2210 0.951 . S
H2192 C2212 0.950 . S
H2193 C2213 0.950 . S
H2194 C2215 0.950 . S
H2195 C2218 0.950 . S
H2196 C2219 0.950 . S
H2197 C2221 0.950 . S
H2198 C2222 0.950 . S
H2199 C2223 0.951 . S
H2200 C2225 0.951 . S
H2201 C2227 0.950 . S
H2202 C2228 0.950 . S
H2203 C2230 0.950 . S
H2204 C2233 0.950 . S
H2205 C2234 0.950 . S
H2206 C2236 0.950 . S
H2207 C2237 0.950 . S
C2208 H2190 0.951 . S
C2208 C2209 1.366 . S
C2208 C2210 1.388 . S
C2209 C2208 1.366 . S
C2209 C2213 1.385 . S
C2210 H2191 0.951 . S
C2210 C2208 1.388 . S
C2210 C2211 1.366 . S
C2211 C2210 1.366 . S
C2211 C2212 1.414 . S
C2211 C2214 1.499 . S
C2212 H2192 0.950 . S
C2212 C2211 1.414 . S
C2212 C2213 1.374 . S
C2213 H2193 0.950 . S
C2213 C2209 1.385 . S
C2213 C2212 1.374 . S
C2214 C2211 1.499 . S
C2214 C2215 1.373 . S
C2214 C2216 1.389 . S
C2215 H2194 0.950 . S
C2215 C2214 1.373 . S
C2215 C2231 1.377 . S
C2216 C2214 1.389 . S
C2216 C2217 1.524 . S
C2216 C2230 1.377 . S
C2217 C2216 1.524 . S
C2217 C2218 1.397 . S
C2217 C2222 1.363 . S
C2218 H2195 0.950 . S
C2218 C2217 1.397 . S
C2218 C2219 1.334 . S
C2219 H2196 0.950 . S
C2219 C2218 1.334 . S
C2219 C2220 1.287 . S
C2220 C2219 1.287 . S
C2220 C2221 1.524 . S
C2220 H2239 0.913 . S
C2221 H2197 0.950 . S
C2221 C2220 1.524 . S
C2221 C2222 1.415 . S
C2222 H2198 0.950 . S
C2222 C2217 1.363 . S
C2222 C2221 1.415 . S
C2223 H2199 0.951 . S
C2223 C2224 1.366 . S
C2223 C2225 1.388 . S
C2224 C2223 1.366 . S
C2224 C2228 1.385 . S
C2225 H2200 0.951 . S
C2225 C2223 1.388 . S
C2225 C2226 1.366 . S
C2226 C2225 1.366 . S
C2226 C2227 1.414 . S
C2226 C2229 1.499 . S
C2227 H2201 0.950 . S
C2227 C2226 1.414 . S
C2227 C2228 1.374 . S
C2228 H2202 0.950 . S
C2228 C2224 1.385 . S
C2228 C2227 1.374 . S
C2229 C2226 1.499 . S
C2229 C2230 1.373 . S
C2229 C2231 1.389 . S
C2230 H2203 0.950 . S
C2230 C2216 1.377 . S
C2230 C2229 1.373 . S
C2231 C2215 1.377 . S
C2231 C2229 1.389 . S
C2231 C2232 1.524 . S
C2232 C2231 1.524 . S
C2232 C2233 1.397 . S
C2232 C2237 1.363 . S
C2233 H2204 0.950 . S
C2233 C2232 1.397 . S
C2233 C2234 1.334 . S
C2234 H2205 0.950 . S
C2234 C2233 1.334 . S
C2234 C2235 1.287 . S
C2235 C2234 1.287 . S
C2235 C2236 1.524 . S
C2235 H2238 0.999 . S
C2236 H2206 0.950 . S
C2236 C2235 1.524 . S
C2236 C2237 1.415 . S
C2237 H2207 0.950 . S
C2237 C2232 1.363 . S
C2237 C2236 1.415 . S
H2238 C2235 0.999 . S
H2239 C2220 0.913 . S
H2240 C2258 0.951 . S
H2241 C2260 0.951 . S
H2242 C2262 0.950 . S
H2243 C2263 0.950 . S
H2244 C2265 0.950 . S
H2245 C2268 0.950 . S
H2246 C2269 0.950 . S
H2247 C2271 0.950 . S
H2248 C2272 0.950 . S
H2249 C2273 0.951 . S
H2250 C2275 0.951 . S
H2251 C2277 0.950 . S
H2252 C2278 0.950 . S
H2253 C2280 0.950 . S
H2254 C2283 0.950 . S
H2255 C2284 0.950 . S
H2256 C2286 0.950 . S
H2257 C2287 0.950 . S
C2258 H2240 0.951 . S
C2258 C2259 1.366 . S
C2258 C2260 1.388 . S
C2259 C2258 1.366 . S
C2259 C2263 1.385 . S
C2260 H2241 0.951 . S
C2260 C2258 1.388 . S
C2260 C2261 1.366 . S
C2261 C2260 1.366 . S
C2261 C2262 1.414 . S
C2261 C2264 1.499 . S
C2262 H2242 0.950 . S
C2262 C2261 1.414 . S
C2262 C2263 1.374 . S
C2263 H2243 0.950 . S
C2263 C2259 1.385 . S
C2263 C2262 1.374 . S
C2264 C2261 1.499 . S
C2264 C2265 1.373 . S
C2264 C2266 1.389 . S
C2265 H2244 0.950 . S
C2265 C2264 1.373 . S
C2265 C2281 1.377 . S
C2266 C2264 1.389 . S
C2266 C2267 1.524 . S
C2266 C2280 1.377 . S
C2267 C2266 1.524 . S
C2267 C2268 1.397 . S
C2267 C2272 1.363 . S
C2268 H2245 0.950 . S
C2268 C2267 1.397 . S
C2268 C2269 1.334 . S
C2269 H2246 0.950 . S
C2269 C2268 1.334 . S
C2269 C2270 1.287 . S
C2270 C2269 1.287 . S
C2270 C2271 1.524 . S
C2270 H2289 0.913 . S
C2271 H2247 0.950 . S
C2271 C2270 1.524 . S
C2271 C2272 1.415 . S
C2272 H2248 0.950 . S
C2272 C2267 1.363 . S
C2272 C2271 1.415 . S
C2273 H2249 0.951 . S
C2273 C2274 1.366 . S
C2273 C2275 1.388 . S
C2274 C2273 1.366 . S
C2274 C2278 1.385 . S
C2275 H2250 0.951 . S
C2275 C2273 1.388 . S
C2275 C2276 1.366 . S
C2276 C2275 1.366 . S
C2276 C2277 1.414 . S
C2276 C2279 1.499 . S
C2277 H2251 0.950 . S
C2277 C2276 1.414 . S
C2277 C2278 1.374 . S
C2278 H2252 0.950 . S
C2278 C2274 1.385 . S
C2278 C2277 1.374 . S
C2279 C2276 1.499 . S
C2279 C2280 1.373 . S
C2279 C2281 1.389 . S
C2280 H2253 0.950 . S
C2280 C2266 1.377 . S
C2280 C2279 1.373 . S
C2281 C2265 1.377 . S
C2281 C2279 1.389 . S
C2281 C2282 1.524 . S
C2282 C2281 1.524 . S
C2282 C2283 1.397 . S
C2282 C2287 1.363 . S
C2283 H2254 0.950 . S
C2283 C2282 1.397 . S
C2283 C2284 1.334 . S
C2284 H2255 0.950 . S
C2284 C2283 1.334 . S
C2284 C2285 1.287 . S
C2285 C2284 1.287 . S
C2285 C2286 1.524 . S
C2285 H2288 0.999 . S
C2286 H2256 0.950 . S
C2286 C2285 1.524 . S
C2286 C2287 1.415 . S
C2287 H2257 0.950 . S
C2287 C2282 1.363 . S
C2287 C2286 1.415 . S
H2288 C2285 0.999 . S
H2289 C2270 0.913 . S
H2290 C2308 0.951 . S
H2291 C2310 0.951 . S
H2292 C2312 0.950 . S
H2293 C2313 0.950 . S
H2294 C2315 0.950 . S
H2295 C2318 0.950 . S
H2296 C2319 0.950 . S
H2297 C2321 0.950 . S
H2298 C2322 0.950 . S
H2299 C2323 0.951 . S
H2300 C2325 0.951 . S
H2301 C2327 0.950 . S
H2302 C2328 0.950 . S
H2303 C2330 0.950 . S
H2304 C2333 0.950 . S
H2305 C2334 0.950 . S
H2306 C2336 0.950 . S
H2307 C2337 0.950 . S
C2308 H2290 0.951 . S
C2308 C2309 1.366 . S
C2308 C2310 1.388 . S
C2309 C2308 1.366 . S
C2309 C2313 1.385 . S
C2310 H2291 0.951 . S
C2310 C2308 1.388 . S
C2310 C2311 1.366 . S
C2311 C2310 1.366 . S
C2311 C2312 1.414 . S
C2311 C2314 1.499 . S
C2312 H2292 0.950 . S
C2312 C2311 1.414 . S
C2312 C2313 1.374 . S
C2313 H2293 0.950 . S
C2313 C2309 1.385 . S
C2313 C2312 1.374 . S
C2314 C2311 1.499 . S
C2314 C2315 1.373 . S
C2314 C2316 1.389 . S
C2315 H2294 0.950 . S
C2315 C2314 1.373 . S
C2315 C2331 1.377 . S
C2316 C2314 1.389 . S
C2316 C2317 1.524 . S
C2316 C2330 1.377 . S
C2317 C2316 1.524 . S
C2317 C2318 1.397 . S
C2317 C2322 1.363 . S
C2318 H2295 0.950 . S
C2318 C2317 1.397 . S
C2318 C2319 1.334 . S
C2319 H2296 0.950 . S
C2319 C2318 1.334 . S
C2319 C2320 1.287 . S
C2320 C2319 1.287 . S
C2320 C2321 1.524 . S
C2320 H2339 0.913 . S
C2321 H2297 0.950 . S
C2321 C2320 1.524 . S
C2321 C2322 1.415 . S
C2322 H2298 0.950 . S
C2322 C2317 1.363 . S
C2322 C2321 1.415 . S
C2323 H2299 0.951 . S
C2323 C2324 1.366 . S
C2323 C2325 1.388 . S
C2324 C2323 1.366 . S
C2324 C2328 1.385 . S
C2325 H2300 0.951 . S
C2325 C2323 1.388 . S
C2325 C2326 1.366 . S
C2326 C2325 1.366 . S
C2326 C2327 1.414 . S
C2326 C2329 1.499 . S
C2327 H2301 0.950 . S
C2327 C2326 1.414 . S
C2327 C2328 1.374 . S
C2328 H2302 0.950 . S
C2328 C2324 1.385 . S
C2328 C2327 1.374 . S
C2329 C2326 1.499 . S
C2329 C2330 1.373 . S
C2329 C2331 1.389 . S
C2330 H2303 0.950 . S
C2330 C2316 1.377 . S
C2330 C2329 1.373 . S
C2331 C2315 1.377 . S
C2331 C2329 1.389 . S
C2331 C2332 1.524 . S
C2332 C2331 1.524 . S
C2332 C2333 1.397 . S
C2332 C2337 1.363 . S
C2333 H2304 0.950 . S
C2333 C2332 1.397 . S
C2333 C2334 1.334 . S
C2334 H2305 0.950 . S
C2334 C2333 1.334 . S
C2334 C2335 1.287 . S
C2335 C2334 1.287 . S
C2335 C2336 1.524 . S
C2335 H2338 0.999 . S
C2336 H2306 0.950 . S
C2336 C2335 1.524 . S
C2336 C2337 1.415 . S
C2337 H2307 0.950 . S
C2337 C2332 1.363 . S
C2337 C2336 1.415 . S
H2338 C2335 0.999 . S
H2339 C2320 0.913 . S
H2340 C2358 0.951 . S
H2341 C2360 0.951 . S
H2342 C2362 0.950 . S
H2343 C2363 0.950 . S
H2344 C2365 0.950 . S
H2345 C2368 0.950 . S
H2346 C2369 0.950 . S
H2347 C2371 0.950 . S
H2348 C2372 0.950 . S
H2349 C2373 0.951 . S
H2350 C2375 0.951 . S
H2351 C2377 0.950 . S
H2352 C2378 0.950 . S
H2353 C2380 0.950 . S
H2354 C2383 0.950 . S
H2355 C2384 0.950 . S
H2356 C2386 0.950 . S
H2357 C2387 0.950 . S
C2358 H2340 0.951 . S
C2358 C2359 1.366 . S
C2358 C2360 1.388 . S
C2359 C2358 1.366 . S
C2359 C2363 1.385 . S
C2360 H2341 0.951 . S
C2360 C2358 1.388 . S
C2360 C2361 1.366 . S
C2361 C2360 1.366 . S
C2361 C2362 1.414 . S
C2361 C2364 1.499 . S
C2362 H2342 0.950 . S
C2362 C2361 1.414 . S
C2362 C2363 1.374 . S
C2363 H2343 0.950 . S
C2363 C2359 1.385 . S
C2363 C2362 1.374 . S
C2364 C2361 1.499 . S
C2364 C2365 1.373 . S
C2364 C2366 1.389 . S
C2365 H2344 0.950 . S
C2365 C2364 1.373 . S
C2365 C2381 1.377 . S
C2366 C2364 1.389 . S
C2366 C2367 1.524 . S
C2366 C2380 1.377 . S
C2367 C2366 1.524 . S
C2367 C2368 1.397 . S
C2367 C2372 1.363 . S
C2368 H2345 0.950 . S
C2368 C2367 1.397 . S
C2368 C2369 1.334 . S
C2369 H2346 0.950 . S
C2369 C2368 1.334 . S
C2369 C2370 1.287 . S
C2370 C2369 1.287 . S
C2370 C2371 1.524 . S
C2370 H2389 0.913 . S
C2371 H2347 0.950 . S
C2371 C2370 1.524 . S
C2371 C2372 1.415 . S
C2372 H2348 0.950 . S
C2372 C2367 1.363 . S
C2372 C2371 1.415 . S
C2373 H2349 0.951 . S
C2373 C2374 1.366 . S
C2373 C2375 1.388 . S
C2374 C2373 1.366 . S
C2374 C2378 1.385 . S
C2375 H2350 0.951 . S
C2375 C2373 1.388 . S
C2375 C2376 1.366 . S
C2376 C2375 1.366 . S
C2376 C2377 1.414 . S
C2376 C2379 1.499 . S
C2377 H2351 0.950 . S
C2377 C2376 1.414 . S
C2377 C2378 1.374 . S
C2378 H2352 0.950 . S
C2378 C2374 1.385 . S
C2378 C2377 1.374 . S
C2379 C2376 1.499 . S
C2379 C2380 1.373 . S
C2379 C2381 1.389 . S
C2380 H2353 0.950 . S
C2380 C2366 1.377 . S
C2380 C2379 1.373 . S
C2381 C2365 1.377 . S
C2381 C2379 1.389 . S
C2381 C2382 1.524 . S
C2382 C2381 1.524 . S
C2382 C2383 1.397 . S
C2382 C2387 1.363 . S
C2383 H2354 0.950 . S
C2383 C2382 1.397 . S
C2383 C2384 1.334 . S
C2384 H2355 0.950 . S
C2384 C2383 1.334 . S
C2384 C2385 1.287 . S
C2385 C2384 1.287 . S
C2385 C2386 1.524 . S
C2385 H2388 0.999 . S
C2386 H2356 0.950 . S
C2386 C2385 1.524 . S
C2386 C2387 1.415 . S
C2387 H2357 0.950 . S
C2387 C2382 1.363 . S
C2387 C2386 1.415 . S
H2388 C2385 0.999 . S
H2389 C2370 0.913 . S
H2390 C2408 0.951 . S
H2391 C2410 0.951 . S
H2392 C2412 0.950 . S
H2393 C2413 0.950 . S
H2394 C2415 0.950 . S
H2395 C2418 0.950 . S
H2396 C2419 0.950 . S
H2397 C2421 0.950 . S
H2398 C2422 0.950 . S
H2399 C2423 0.951 . S
H2400 C2425 0.951 . S
H2401 C2427 0.950 . S
H2402 C2428 0.950 . S
H2403 C2430 0.950 . S
H2404 C2433 0.950 . S
H2405 C2434 0.950 . S
H2406 C2436 0.950 . S
H2407 C2437 0.950 . S
C2408 H2390 0.951 . S
C2408 C2409 1.366 . S
C2408 C2410 1.388 . S
C2409 C2408 1.366 . S
C2409 C2413 1.385 . S
C2410 H2391 0.951 . S
C2410 C2408 1.388 . S
C2410 C2411 1.366 . S
C2411 C2410 1.366 . S
C2411 C2412 1.414 . S
C2411 C2414 1.499 . S
C2412 H2392 0.950 . S
C2412 C2411 1.414 . S
C2412 C2413 1.374 . S
C2413 H2393 0.950 . S
C2413 C2409 1.385 . S
C2413 C2412 1.374 . S
C2414 C2411 1.499 . S
C2414 C2415 1.373 . S
C2414 C2416 1.389 . S
C2415 H2394 0.950 . S
C2415 C2414 1.373 . S
C2415 C2431 1.377 . S
C2416 C2414 1.389 . S
C2416 C2417 1.524 . S
C2416 C2430 1.377 . S
C2417 C2416 1.524 . S
C2417 C2418 1.397 . S
C2417 C2422 1.363 . S
C2418 H2395 0.950 . S
C2418 C2417 1.397 . S
C2418 C2419 1.334 . S
C2419 H2396 0.950 . S
C2419 C2418 1.334 . S
C2419 C2420 1.287 . S
C2420 C2419 1.287 . S
C2420 C2421 1.524 . S
C2420 H2439 0.913 . S
C2421 H2397 0.950 . S
C2421 C2420 1.524 . S
C2421 C2422 1.415 . S
C2422 H2398 0.950 . S
C2422 C2417 1.363 . S
C2422 C2421 1.415 . S
C2423 H2399 0.951 . S
C2423 C2424 1.366 . S
C2423 C2425 1.388 . S
C2424 C2423 1.366 . S
C2424 C2428 1.385 . S
C2425 H2400 0.951 . S
C2425 C2423 1.388 . S
C2425 C2426 1.366 . S
C2426 C2425 1.366 . S
C2426 C2427 1.414 . S
C2426 C2429 1.499 . S
C2427 H2401 0.950 . S
C2427 C2426 1.414 . S
C2427 C2428 1.374 . S
C2428 H2402 0.950 . S
C2428 C2424 1.385 . S
C2428 C2427 1.374 . S
C2429 C2426 1.499 . S
C2429 C2430 1.373 . S
C2429 C2431 1.389 . S
C2430 H2403 0.950 . S
C2430 C2416 1.377 . S
C2430 C2429 1.373 . S
C2431 C2415 1.377 . S
C2431 C2429 1.389 . S
C2431 C2432 1.524 . S
C2432 C2431 1.524 . S
C2432 C2433 1.397 . S
C2432 C2437 1.363 . S
C2433 H2404 0.950 . S
C2433 C2432 1.397 . S
C2433 C2434 1.334 . S
C2434 H2405 0.950 . S
C2434 C2433 1.334 . S
C2434 C2435 1.287 . S
C2435 C2434 1.287 . S
C2435 C2436 1.524 . S
C2435 H2438 0.999 . S
C2436 H2406 0.950 . S
C2436 C2435 1.524 . S
C2436 C2437 1.415 . S
C2437 H2407 0.950 . S
C2437 C2432 1.363 . S
C2437 C2436 1.415 . S
H2438 C2435 0.999 . S
H2439 C2420 0.913 . S
H2440 C2458 0.951 . S
H2441 C2460 0.951 . S
H2442 C2462 0.950 . S
H2443 C2463 0.950 . S
H2444 C2465 0.950 . S
H2445 C2468 0.950 . S
H2446 C2469 0.950 . S
H2447 C2471 0.935 1_455 S
H2448 C2472 0.950 . S
H2449 C2473 0.951 . S
H2450 C2475 0.951 . S
H2451 C2477 0.950 . S
H2452 C2478 0.950 . S
H2453 C2480 0.950 . S
H2454 C2483 0.950 . S
H2455 C2484 0.950 . S
H2456 C2486 0.950 . S
H2457 C2487 0.950 . S
C2458 H2440 0.951 . S
C2458 C2459 1.366 . S
C2458 C2460 1.388 . S
C2459 C2458 1.366 . S
C2459 C2463 1.385 . S
C2460 H2441 0.951 . S
C2460 C2458 1.388 . S
C2460 C2461 1.366 . S
C2461 C2460 1.366 . S
C2461 C2462 1.414 . S
C2461 C2464 1.499 . S
C2462 H2442 0.950 . S
C2462 C2461 1.414 . S
C2462 C2463 1.374 . S
C2463 H2443 0.950 . S
C2463 C2459 1.385 . S
C2463 C2462 1.374 . S
C2464 C2461 1.499 . S
C2464 C2465 1.373 . S
C2464 C2466 1.389 . S
C2465 H2444 0.950 . S
C2465 C2464 1.373 . S
C2465 C2481 1.377 . S
C2466 C2464 1.389 . S
C2466 C2467 1.524 . S
C2466 C2480 1.377 . S
C2467 C2466 1.524 . S
C2467 C2468 1.397 . S
C2467 C2472 1.363 . S
C2468 H2445 0.950 . S
C2468 C2467 1.397 . S
C2468 C2469 1.334 1_655 S
C2469 H2446 0.950 . S
C2469 C2468 1.334 1_455 S
C2469 C2470 1.287 . S
C2470 C2469 1.287 . S
C2470 C2471 1.500 1_455 S
C2470 H2489 0.913 . S
C2471 H2447 0.935 1_655 S
C2471 C2470 1.500 1_655 S
C2471 C2472 1.458 . S
C2472 H2448 0.950 . S
C2472 C2467 1.363 . S
C2472 C2471 1.458 . S
C2473 H2449 0.951 . S
C2473 C2474 1.366 . S
C2473 C2475 1.388 . S
C2474 C2473 1.366 . S
C2474 C2478 1.385 . S
C2475 H2450 0.951 . S
C2475 C2473 1.388 . S
C2475 C2476 1.366 . S
C2476 C2475 1.366 . S
C2476 C2477 1.414 . S
C2476 C2479 1.499 . S
C2477 H2451 0.950 . S
C2477 C2476 1.414 . S
C2477 C2478 1.374 . S
C2478 H2452 0.950 . S
C2478 C2474 1.385 . S
C2478 C2477 1.374 . S
C2479 C2476 1.499 . S
C2479 C2480 1.373 . S
C2479 C2481 1.389 . S
C2480 H2453 0.950 . S
C2480 C2466 1.377 . S
C2480 C2479 1.373 . S
C2481 C2465 1.377 . S
C2481 C2479 1.389 . S
C2481 C2482 1.524 . S
C2482 C2481 1.524 . S
C2482 C2483 1.397 . S
C2482 C2487 1.363 . S
C2483 H2454 0.950 . S
C2483 C2482 1.397 . S
C2483 C2484 1.334 . S
C2484 H2455 0.950 . S
C2484 C2483 1.334 . S
C2484 C2485 1.287 . S
C2485 C2484 1.287 . S
C2485 C2486 1.524 . S
C2485 H2488 0.999 . S
C2486 H2456 0.950 . S
C2486 C2485 1.524 . S
C2486 C2487 1.415 . S
C2487 H2457 0.950 . S
C2487 C2482 1.363 . S
C2487 C2486 1.415 . S
H2488 C2485 0.999 . S
H2489 C2470 0.913 . S
H2490 C2508 0.951 . S
H2491 C2510 0.951 . S
H2492 C2512 0.950 . S
H2493 C2513 0.950 . S
H2494 C2515 0.950 . S
H2495 C2518 0.950 . S
H2496 C2519 0.950 . S
H2497 C2521 0.950 . S
H2498 C2522 0.950 . S
H2499 C2523 0.951 . S
H2500 C2525 0.951 . S
H2501 C2527 0.950 . S
H2502 C2528 0.950 . S
H2503 C2530 0.950 . S
H2504 C2533 0.950 . S
H2505 C2534 0.950 . S
H2506 C2536 0.950 . S
H2507 C2537 0.950 . S
C2508 H2490 0.951 . S
C2508 C2509 1.366 . S
C2508 C2510 1.388 . S
C2509 C2508 1.366 . S
C2509 C2513 1.385 . S
C2510 H2491 0.951 . S
C2510 C2508 1.388 . S
C2510 C2511 1.366 . S
C2511 C2510 1.366 . S
C2511 C2512 1.414 . S
C2511 C2514 1.499 . S
C2512 H2492 0.950 . S
C2512 C2511 1.414 . S
C2512 C2513 1.374 . S
C2513 H2493 0.950 . S
C2513 C2509 1.385 . S
C2513 C2512 1.374 . S
C2514 C2511 1.499 . S
C2514 C2515 1.373 . S
C2514 C2516 1.389 . S
C2515 H2494 0.950 . S
C2515 C2514 1.373 . S
C2515 C2531 1.377 . S
C2516 C2514 1.389 . S
C2516 C2517 1.524 . S
C2516 C2530 1.377 . S
C2517 C2516 1.524 . S
C2517 C2518 1.397 . S
C2517 C2522 1.363 . S
C2518 H2495 0.950 . S
C2518 C2517 1.397 . S
C2518 C2519 1.334 . S
C2519 H2496 0.950 . S
C2519 C2518 1.334 . S
C2519 C2520 1.287 . S
C2520 C2519 1.287 . S
C2520 C2521 1.524 . S
C2520 H2539 0.913 . S
C2521 H2497 0.950 . S
C2521 C2520 1.524 . S
C2521 C2522 1.415 . S
C2522 H2498 0.950 . S
C2522 C2517 1.363 . S
C2522 C2521 1.415 . S
C2523 H2499 0.951 . S
C2523 C2524 1.366 . S
C2523 C2525 1.388 . S
C2524 C2523 1.366 . S
C2524 C2528 1.385 . S
C2525 H2500 0.951 . S
C2525 C2523 1.388 . S
C2525 C2526 1.366 . S
C2526 C2525 1.366 . S
C2526 C2527 1.414 . S
C2526 C2529 1.499 . S
C2527 H2501 0.950 . S
C2527 C2526 1.414 . S
C2527 C2528 1.374 . S
C2528 H2502 0.950 . S
C2528 C2524 1.385 . S
C2528 C2527 1.374 . S
C2529 C2526 1.499 . S
C2529 C2530 1.373 . S
C2529 C2531 1.389 . S
C2530 H2503 0.950 . S
C2530 C2516 1.377 . S
C2530 C2529 1.373 . S
C2531 C2515 1.377 . S
C2531 C2529 1.389 . S
C2531 C2532 1.524 . S
C2532 C2531 1.524 . S
C2532 C2533 1.397 . S
C2532 C2537 1.363 . S
C2533 H2504 0.950 . S
C2533 C2532 1.397 . S
C2533 C2534 1.334 . S
C2534 H2505 0.950 . S
C2534 C2533 1.334 . S
C2534 C2535 1.287 . S
C2535 C2534 1.287 . S
C2535 C2536 1.524 . S
C2535 H2538 0.999 . S
C2536 H2506 0.950 . S
C2536 C2535 1.524 . S
C2536 C2537 1.415 . S
C2537 H2507 0.950 . S
C2537 C2532 1.363 . S
C2537 C2536 1.415 . S
H2538 C2535 0.999 . S
H2539 C2520 0.913 . S
H2540 C2558 0.951 . S
H2541 C2560 0.951 . S
H2542 C2562 0.950 . S
H2543 C2563 0.950 . S
H2544 C2565 0.950 . S
H2545 C2568 0.950 . S
H2546 C2569 0.950 . S
H2547 C2571 0.950 . S
H2548 C2572 0.950 . S
H2549 C2573 0.951 . S
H2550 C2575 0.951 . S
H2551 C2577 0.950 . S
H2552 C2578 0.950 . S
H2553 C2580 0.950 . S
H2554 C2583 0.950 . S
H2555 C2584 0.950 . S
H2556 C2586 0.950 . S
H2557 C2587 0.950 . S
C2558 H2540 0.951 . S
C2558 C2559 1.366 . S
C2558 C2560 1.388 . S
C2559 C2558 1.366 . S
C2559 C2563 1.385 . S
C2560 H2541 0.951 . S
C2560 C2558 1.388 . S
C2560 C2561 1.366 . S
C2561 C2560 1.366 . S
C2561 C2562 1.414 . S
C2561 C2564 1.499 . S
C2562 H2542 0.950 . S
C2562 C2561 1.414 . S
C2562 C2563 1.374 . S
C2563 H2543 0.950 . S
C2563 C2559 1.385 . S
C2563 C2562 1.374 . S
C2564 C2561 1.499 . S
C2564 C2565 1.373 . S
C2564 C2566 1.389 . S
C2565 H2544 0.950 . S
C2565 C2564 1.373 . S
C2565 C2581 1.377 . S
C2566 C2564 1.389 . S
C2566 C2567 1.524 . S
C2566 C2580 1.377 . S
C2567 C2566 1.524 . S
C2567 C2568 1.397 . S
C2567 C2572 1.363 . S
C2568 H2545 0.950 . S
C2568 C2567 1.397 . S
C2568 C2569 1.334 . S
C2569 H2546 0.950 . S
C2569 C2568 1.334 . S
C2569 C2570 1.287 . S
C2570 C2569 1.287 . S
C2570 C2571 1.524 . S
C2570 H2589 0.913 . S
C2571 H2547 0.950 . S
C2571 C2570 1.524 . S
C2571 C2572 1.415 . S
C2572 H2548 0.950 . S
C2572 C2567 1.363 . S
C2572 C2571 1.415 . S
C2573 H2549 0.951 . S
C2573 C2574 1.366 . S
C2573 C2575 1.388 . S
C2574 C2573 1.366 . S
C2574 C2578 1.385 . S
C2575 H2550 0.951 . S
C2575 C2573 1.388 . S
C2575 C2576 1.366 . S
C2576 C2575 1.366 . S
C2576 C2577 1.414 . S
C2576 C2579 1.499 . S
C2577 H2551 0.950 . S
C2577 C2576 1.414 . S
C2577 C2578 1.374 . S
C2578 H2552 0.950 . S
C2578 C2574 1.385 . S
C2578 C2577 1.374 . S
C2579 C2576 1.499 . S
C2579 C2580 1.373 . S
C2579 C2581 1.389 . S
C2580 H2553 0.950 . S
C2580 C2566 1.377 . S
C2580 C2579 1.373 . S
C2581 C2565 1.377 . S
C2581 C2579 1.389 . S
C2581 C2582 1.524 . S
C2582 C2581 1.524 . S
C2582 C2583 1.397 . S
C2582 C2587 1.363 . S
C2583 H2554 0.950 . S
C2583 C2582 1.397 . S
C2583 C2584 1.334 . S
C2584 H2555 0.950 . S
C2584 C2583 1.334 . S
C2584 C2585 1.287 . S
C2585 C2584 1.287 . S
C2585 C2586 1.524 . S
C2585 H2588 0.999 . S
C2586 H2556 0.950 . S
C2586 C2585 1.524 . S
C2586 C2587 1.415 . S
C2587 H2557 0.950 . S
C2587 C2582 1.363 . S
C2587 C2586 1.415 . S
H2588 C2585 0.999 . S
H2589 C2570 0.913 . S
H2590 C2608 0.951 . S
H2591 C2610 0.951 . S
H2592 C2612 0.950 . S
H2593 C2613 0.950 . S
H2594 C2615 0.950 . S
H2595 C2618 0.950 . S
H2596 C2619 0.950 . S
H2597 C2621 0.950 . S
H2598 C2622 0.950 . S
H2599 C2623 0.951 . S
H2600 C2625 0.951 . S
H2601 C2627 0.950 . S
H2602 C2628 0.950 . S
H2603 C2630 0.950 . S
H2604 C2633 0.950 . S
H2605 C2634 0.950 . S
H2606 C2636 0.950 . S
H2607 C2637 0.950 . S
C2608 H2590 0.951 . S
C2608 C2609 1.366 . S
C2608 C2610 1.388 . S
C2609 C2608 1.366 . S
C2609 C2613 1.385 . S
C2610 H2591 0.951 . S
C2610 C2608 1.388 . S
C2610 C2611 1.366 . S
C2611 C2610 1.366 . S
C2611 C2612 1.414 . S
C2611 C2614 1.499 . S
C2612 H2592 0.950 . S
C2612 C2611 1.414 . S
C2612 C2613 1.374 . S
C2613 H2593 0.950 . S
C2613 C2609 1.385 . S
C2613 C2612 1.374 . S
C2614 C2611 1.499 . S
C2614 C2615 1.373 . S
C2614 C2616 1.389 . S
C2615 H2594 0.950 . S
C2615 C2614 1.373 . S
C2615 C2631 1.377 . S
C2616 C2614 1.389 . S
C2616 C2617 1.524 . S
C2616 C2630 1.377 . S
C2617 C2616 1.524 . S
C2617 C2618 1.397 . S
C2617 C2622 1.363 . S
C2618 H2595 0.950 . S
C2618 C2617 1.397 . S
C2618 C2619 1.334 . S
C2619 H2596 0.950 . S
C2619 C2618 1.334 . S
C2619 C2620 1.287 . S
C2620 C2619 1.287 . S
C2620 C2621 1.524 . S
C2620 H2639 0.913 . S
C2621 H2597 0.950 . S
C2621 C2620 1.524 . S
C2621 C2622 1.415 . S
C2622 H2598 0.950 . S
C2622 C2617 1.363 . S
C2622 C2621 1.415 . S
C2623 H2599 0.951 . S
C2623 C2624 1.366 . S
C2623 C2625 1.388 . S
C2624 C2623 1.366 . S
C2624 C2628 1.385 . S
C2625 H2600 0.951 . S
C2625 C2623 1.388 . S
C2625 C2626 1.366 . S
C2626 C2625 1.366 . S
C2626 C2627 1.414 . S
C2626 C2629 1.499 . S
C2627 H2601 0.950 . S
C2627 C2626 1.414 . S
C2627 C2628 1.374 . S
C2628 H2602 0.950 . S
C2628 C2624 1.385 . S
C2628 C2627 1.374 . S
C2629 C2626 1.499 . S
C2629 C2630 1.373 . S
C2629 C2631 1.389 . S
C2630 H2603 0.950 . S
C2630 C2616 1.377 . S
C2630 C2629 1.373 . S
C2631 C2615 1.377 . S
C2631 C2629 1.389 . S
C2631 C2632 1.524 . S
C2632 C2631 1.524 . S
C2632 C2633 1.397 . S
C2632 C2637 1.363 . S
C2633 H2604 0.950 . S
C2633 C2632 1.397 . S
C2633 C2634 1.334 . S
C2634 H2605 0.950 . S
C2634 C2633 1.334 . S
C2634 C2635 1.287 . S
C2635 C2634 1.287 . S
C2635 C2636 1.524 . S
C2635 H2638 0.999 . S
C2636 H2606 0.950 . S
C2636 C2635 1.524 . S
C2636 C2637 1.415 . S
C2637 H2607 0.950 . S
C2637 C2632 1.363 . S
C2637 C2636 1.415 . S
H2638 C2635 0.999 . S
H2639 C2620 0.913 . S
H2640 C2658 0.951 . S
H2641 C2660 0.951 . S
H2642 C2662 0.950 . S
H2643 C2663 0.950 . S
H2644 C2665 0.950 . S
H2645 C2668 0.950 . S
H2646 C2669 0.950 . S
H2647 C2671 0.950 . S
H2648 C2672 0.950 . S
H2649 C2673 0.951 . S
H2650 C2675 0.951 . S
H2651 C2677 0.950 . S
H2652 C2678 0.950 . S
H2653 C2680 0.950 . S
H2654 C2683 0.950 . S
H2655 C2684 0.950 . S
H2656 C2686 0.950 . S
H2657 C2687 0.950 . S
C2658 H2640 0.951 . S
C2658 C2659 1.366 . S
C2658 C2660 1.388 . S
C2659 C2658 1.366 . S
C2659 C2663 1.385 . S
C2660 H2641 0.951 . S
C2660 C2658 1.388 . S
C2660 C2661 1.366 . S
C2661 C2660 1.366 . S
C2661 C2662 1.414 . S
C2661 C2664 1.499 . S
C2662 H2642 0.950 . S
C2662 C2661 1.414 . S
C2662 C2663 1.374 . S
C2663 H2643 0.950 . S
C2663 C2659 1.385 . S
C2663 C2662 1.374 . S
C2664 C2661 1.499 . S
C2664 C2665 1.373 . S
C2664 C2666 1.389 . S
C2665 H2644 0.950 . S
C2665 C2664 1.373 . S
C2665 C2681 1.377 . S
C2666 C2664 1.389 . S
C2666 C2667 1.524 . S
C2666 C2680 1.377 . S
C2667 C2666 1.524 . S
C2667 C2668 1.397 . S
C2667 C2672 1.363 . S
C2668 H2645 0.950 . S
C2668 C2667 1.397 . S
C2668 C2669 1.334 . S
C2669 H2646 0.950 . S
C2669 C2668 1.334 . S
C2669 C2670 1.287 . S
C2670 C2669 1.287 . S
C2670 C2671 1.524 . S
C2670 H2689 0.913 . S
C2671 H2647 0.950 . S
C2671 C2670 1.524 . S
C2671 C2672 1.415 . S
C2672 H2648 0.950 . S
C2672 C2667 1.363 . S
C2672 C2671 1.415 . S
C2673 H2649 0.951 . S
C2673 C2674 1.366 . S
C2673 C2675 1.388 . S
C2674 C2673 1.366 . S
C2674 C2678 1.385 . S
C2675 H2650 0.951 . S
C2675 C2673 1.388 . S
C2675 C2676 1.366 . S
C2676 C2675 1.366 . S
C2676 C2677 1.414 . S
C2676 C2679 1.499 . S
C2677 H2651 0.950 . S
C2677 C2676 1.414 . S
C2677 C2678 1.374 . S
C2678 H2652 0.950 . S
C2678 C2674 1.385 . S
C2678 C2677 1.374 . S
C2679 C2676 1.499 . S
C2679 C2680 1.373 . S
C2679 C2681 1.389 . S
C2680 H2653 0.950 . S
C2680 C2666 1.377 . S
C2680 C2679 1.373 . S
C2681 C2665 1.377 . S
C2681 C2679 1.389 . S
C2681 C2682 1.524 . S
C2682 C2681 1.524 . S
C2682 C2683 1.397 . S
C2682 C2687 1.363 . S
C2683 H2654 0.950 . S
C2683 C2682 1.397 . S
C2683 C2684 1.334 . S
C2684 H2655 0.950 . S
C2684 C2683 1.334 . S
C2684 C2685 1.287 . S
C2685 C2684 1.287 . S
C2685 C2686 1.524 . S
C2685 H2688 0.999 . S
C2686 H2656 0.950 . S
C2686 C2685 1.524 . S
C2686 C2687 1.415 . S
C2687 H2657 0.950 . S
C2687 C2682 1.363 . S
C2687 C2686 1.415 . S
H2688 C2685 0.999 . S
H2689 C2670 0.913 . S
H2690 C2708 0.951 . S
H2691 C2710 0.951 . S
H2692 C2712 0.950 . S
H2693 C2713 0.950 . S
H2694 C2715 0.950 . S
H2695 C2718 0.950 . S
H2696 C2719 0.950 . S
H2697 C2721 0.950 . S
H2698 C2722 0.950 . S
H2699 C2723 0.951 . S
H2700 C2725 0.951 . S
H2701 C2727 0.950 . S
H2702 C2728 0.950 . S
H2703 C2730 0.950 . S
H2704 C2733 0.950 . S
H2705 C2734 0.950 . S
H2706 C2736 0.950 . S
H2707 C2737 0.950 . S
C2708 H2690 0.951 . S
C2708 C2709 1.366 . S
C2708 C2710 1.388 . S
C2709 C2708 1.366 . S
C2709 C2713 1.385 . S
C2710 H2691 0.951 . S
C2710 C2708 1.388 . S
C2710 C2711 1.366 . S
C2711 C2710 1.366 . S
C2711 C2712 1.414 . S
C2711 C2714 1.499 . S
C2712 H2692 0.950 . S
C2712 C2711 1.414 . S
C2712 C2713 1.374 . S
C2713 H2693 0.950 . S
C2713 C2709 1.385 . S
C2713 C2712 1.374 . S
C2714 C2711 1.499 . S
C2714 C2715 1.373 . S
C2714 C2716 1.389 . S
C2715 H2694 0.950 . S
C2715 C2714 1.373 . S
C2715 C2731 1.377 . S
C2716 C2714 1.389 . S
C2716 C2717 1.524 . S
C2716 C2730 1.377 . S
C2717 C2716 1.524 . S
C2717 C2718 1.397 . S
C2717 C2722 1.363 . S
C2718 H2695 0.950 . S
C2718 C2717 1.397 . S
C2718 C2719 1.334 . S
C2719 H2696 0.950 . S
C2719 C2718 1.334 . S
C2719 C2720 1.287 . S
C2720 C2719 1.287 . S
C2720 C2721 1.524 . S
C2720 H2739 0.913 . S
C2721 H2697 0.950 . S
C2721 C2720 1.524 . S
C2721 C2722 1.415 . S
C2722 H2698 0.950 . S
C2722 C2717 1.363 . S
C2722 C2721 1.415 . S
C2723 H2699 0.951 . S
C2723 C2724 1.366 . S
C2723 C2725 1.388 . S
C2724 C2723 1.366 . S
C2724 C2728 1.385 . S
C2725 H2700 0.951 . S
C2725 C2723 1.388 . S
C2725 C2726 1.366 . S
C2726 C2725 1.366 . S
C2726 C2727 1.414 . S
C2726 C2729 1.499 . S
C2727 H2701 0.950 . S
C2727 C2726 1.414 . S
C2727 C2728 1.374 . S
C2728 H2702 0.950 . S
C2728 C2724 1.385 . S
C2728 C2727 1.374 . S
C2729 C2726 1.499 . S
C2729 C2730 1.373 . S
C2729 C2731 1.389 . S
C2730 H2703 0.950 . S
C2730 C2716 1.377 . S
C2730 C2729 1.373 . S
C2731 C2715 1.377 . S
C2731 C2729 1.389 . S
C2731 C2732 1.524 . S
C2732 C2731 1.524 . S
C2732 C2733 1.397 . S
C2732 C2737 1.363 . S
C2733 H2704 0.950 . S
C2733 C2732 1.397 . S
C2733 C2734 1.334 . S
C2734 H2705 0.950 . S
C2734 C2733 1.334 . S
C2734 C2735 1.287 . S
C2735 C2734 1.287 . S
C2735 C2736 1.524 . S
C2735 H2738 0.999 . S
C2736 H2706 0.950 . S
C2736 C2735 1.524 . S
C2736 C2737 1.415 . S
C2737 H2707 0.950 . S
C2737 C2732 1.363 . S
C2737 C2736 1.415 . S
H2738 C2735 0.999 . S
H2739 C2720 0.913 . S
H2740 C2758 0.951 . S
H2741 C2760 0.951 . S
H2742 C2762 0.950 . S
H2743 C2763 0.950 . S
H2744 C2765 0.950 . S
H2745 C2768 0.950 . S
H2746 C2769 0.950 . S
H2747 C2771 0.950 . S
H2748 C2772 0.950 . S
H2749 C2773 0.951 . S
H2750 C2775 0.951 . S
H2751 C2777 0.950 . S
H2752 C2778 0.950 . S
H2753 C2780 0.950 . S
H2754 C2783 0.950 . S
H2755 C2784 0.950 . S
H2756 C2786 0.950 . S
H2757 C2787 0.950 . S
C2758 H2740 0.951 . S
C2758 C2759 1.366 . S
C2758 C2760 1.388 . S
C2759 C2758 1.366 . S
C2759 C2763 1.385 . S
C2760 H2741 0.951 . S
C2760 C2758 1.388 . S
C2760 C2761 1.366 . S
C2761 C2760 1.366 . S
C2761 C2762 1.414 . S
C2761 C2764 1.499 . S
C2762 H2742 0.950 . S
C2762 C2761 1.414 . S
C2762 C2763 1.374 . S
C2763 H2743 0.950 . S
C2763 C2759 1.385 . S
C2763 C2762 1.374 . S
C2764 C2761 1.499 . S
C2764 C2765 1.373 . S
C2764 C2766 1.389 . S
C2765 H2744 0.950 . S
C2765 C2764 1.373 . S
C2765 C2781 1.377 . S
C2766 C2764 1.389 . S
C2766 C2767 1.524 . S
C2766 C2780 1.377 . S
C2767 C2766 1.524 . S
C2767 C2768 1.397 . S
C2767 C2772 1.363 . S
C2768 H2745 0.950 . S
C2768 C2767 1.397 . S
C2768 C2769 1.334 . S
C2769 H2746 0.950 . S
C2769 C2768 1.334 . S
C2769 C2770 1.287 . S
C2770 C2769 1.287 . S
C2770 C2771 1.524 . S
C2770 H2789 0.913 . S
C2771 H2747 0.950 . S
C2771 C2770 1.524 . S
C2771 C2772 1.415 . S
C2772 H2748 0.950 . S
C2772 C2767 1.363 . S
C2772 C2771 1.415 . S
C2773 H2749 0.951 . S
C2773 C2774 1.366 . S
C2773 C2775 1.388 . S
C2774 C2773 1.366 . S
C2774 C2778 1.385 . S
C2775 H2750 0.951 . S
C2775 C2773 1.388 . S
C2775 C2776 1.366 . S
C2776 C2775 1.366 . S
C2776 C2777 1.414 . S
C2776 C2779 1.499 . S
C2777 H2751 0.950 . S
C2777 C2776 1.414 . S
C2777 C2778 1.374 . S
C2778 H2752 0.950 . S
C2778 C2774 1.385 . S
C2778 C2777 1.374 . S
C2779 C2776 1.499 . S
C2779 C2780 1.373 . S
C2779 C2781 1.389 . S
C2780 H2753 0.950 . S
C2780 C2766 1.377 . S
C2780 C2779 1.373 . S
C2781 C2765 1.377 . S
C2781 C2779 1.389 . S
C2781 C2782 1.524 . S
C2782 C2781 1.524 . S
C2782 C2783 1.397 . S
C2782 C2787 1.363 . S
C2783 H2754 0.950 . S
C2783 C2782 1.397 . S
C2783 C2784 1.334 . S
C2784 H2755 0.950 . S
C2784 C2783 1.334 . S
C2784 C2785 1.287 . S
C2785 C2784 1.287 . S
C2785 C2786 1.524 . S
C2785 H2788 0.999 . S
C2786 H2756 0.950 . S
C2786 C2785 1.524 . S
C2786 C2787 1.415 . S
C2787 H2757 0.950 . S
C2787 C2782 1.363 . S
C2787 C2786 1.415 . S
H2788 C2785 0.999 . S
H2789 C2770 0.913 . S
H2790 C2808 0.951 . S
H2791 C2810 0.951 . S
H2792 C2812 0.950 . S
H2793 C2813 0.950 . S
H2794 C2815 0.950 . S
H2795 C2818 0.950 . S
H2796 C2819 0.950 . S
H2797 C2821 0.950 . S
H2798 C2822 0.950 . S
H2799 C2823 0.951 . S
H2800 C2825 0.951 . S
H2801 C2827 0.950 . S
H2802 C2828 0.950 . S
H2803 C2830 0.950 . S
H2804 C2833 0.950 . S
H2805 C2834 0.950 . S
H2806 C2836 0.950 . S
H2807 C2837 0.950 . S
C2808 H2790 0.951 . S
C2808 C2809 1.366 . S
C2808 C2810 1.388 . S
C2809 C2808 1.366 . S
C2809 C2813 1.385 . S
C2810 H2791 0.951 . S
C2810 C2808 1.388 . S
C2810 C2811 1.366 . S
C2811 C2810 1.366 . S
C2811 C2812 1.414 . S
C2811 C2814 1.499 . S
C2812 H2792 0.950 . S
C2812 C2811 1.414 . S
C2812 C2813 1.374 . S
C2813 H2793 0.950 . S
C2813 C2809 1.385 . S
C2813 C2812 1.374 . S
C2814 C2811 1.499 . S
C2814 C2815 1.373 . S
C2814 C2816 1.389 . S
C2815 H2794 0.950 . S
C2815 C2814 1.373 . S
C2815 C2831 1.377 . S
C2816 C2814 1.389 . S
C2816 C2817 1.524 . S
C2816 C2830 1.377 . S
C2817 C2816 1.524 . S
C2817 C2818 1.397 . S
C2817 C2822 1.363 . S
C2818 H2795 0.950 . S
C2818 C2817 1.397 . S
C2818 C2819 1.334 . S
C2819 H2796 0.950 . S
C2819 C2818 1.334 . S
C2819 C2820 1.287 . S
C2820 C2819 1.287 . S
C2820 C2821 1.524 . S
C2820 H2839 0.913 . S
C2821 H2797 0.950 . S
C2821 C2820 1.524 . S
C2821 C2822 1.415 . S
C2822 H2798 0.950 . S
C2822 C2817 1.363 . S
C2822 C2821 1.415 . S
C2823 H2799 0.951 . S
C2823 C2824 1.366 . S
C2823 C2825 1.388 . S
C2824 C2823 1.366 . S
C2824 C2828 1.385 . S
C2825 H2800 0.951 . S
C2825 C2823 1.388 . S
C2825 C2826 1.366 . S
C2826 C2825 1.366 . S
C2826 C2827 1.414 . S
C2826 C2829 1.499 . S
C2827 H2801 0.950 . S
C2827 C2826 1.414 . S
C2827 C2828 1.374 . S
C2828 H2802 0.950 . S
C2828 C2824 1.385 . S
C2828 C2827 1.374 . S
C2829 C2826 1.499 . S
C2829 C2830 1.373 . S
C2829 C2831 1.389 . S
C2830 H2803 0.950 . S
C2830 C2816 1.377 . S
C2830 C2829 1.373 . S
C2831 C2815 1.377 . S
C2831 C2829 1.389 . S
C2831 C2832 1.524 . S
C2832 C2831 1.524 . S
C2832 C2833 1.397 . S
C2832 C2837 1.363 . S
C2833 H2804 0.950 . S
C2833 C2832 1.397 . S
C2833 C2834 1.334 . S
C2834 H2805 0.950 . S
C2834 C2833 1.334 . S
C2834 C2835 1.287 . S
C2835 C2834 1.287 . S
C2835 C2836 1.524 . S
C2835 H2838 0.999 . S
C2836 H2806 0.950 . S
C2836 C2835 1.524 . S
C2836 C2837 1.415 . S
C2837 H2807 0.950 . S
C2837 C2832 1.363 . S
C2837 C2836 1.415 . S
H2838 C2835 0.999 . S
H2839 C2820 0.913 . S
H2840 C2858 0.951 . S
H2841 C2860 0.951 . S
H2842 C2862 0.950 . S
H2843 C2863 0.950 . S
H2844 C2865 0.950 . S
H2845 C2868 0.950 . S
H2846 C2869 0.950 . S
H2847 C2871 0.950 . S
H2848 C2872 0.950 . S
H2849 C2873 0.951 . S
H2850 C2875 0.951 . S
H2851 C2877 0.950 . S
H2852 C2878 0.950 . S
H2853 C2880 0.950 . S
H2854 C2883 0.950 . S
H2855 C2884 0.950 . S
H2856 C2886 0.950 . S
H2857 C2887 0.950 . S
C2858 H2840 0.951 . S
C2858 C2859 1.366 . S
C2858 C2860 1.388 . S
C2859 C2858 1.366 . S
C2859 C2863 1.385 . S
C2860 H2841 0.951 . S
C2860 C2858 1.388 . S
C2860 C2861 1.366 . S
C2861 C2860 1.366 . S
C2861 C2862 1.414 . S
C2861 C2864 1.499 . S
C2862 H2842 0.950 . S
C2862 C2861 1.414 . S
C2862 C2863 1.374 . S
C2863 H2843 0.950 . S
C2863 C2859 1.385 . S
C2863 C2862 1.374 . S
C2864 C2861 1.499 . S
C2864 C2865 1.373 . S
C2864 C2866 1.389 . S
C2865 H2844 0.950 . S
C2865 C2864 1.373 . S
C2865 C2881 1.377 . S
C2866 C2864 1.389 . S
C2866 C2867 1.524 . S
C2866 C2880 1.377 . S
C2867 C2866 1.524 . S
C2867 C2868 1.397 . S
C2867 C2872 1.363 . S
C2868 H2845 0.950 . S
C2868 C2867 1.397 . S
C2868 C2869 1.334 . S
C2869 H2846 0.950 . S
C2869 C2868 1.334 . S
C2869 C2870 1.287 . S
C2870 C2869 1.287 . S
C2870 C2871 1.524 . S
C2870 H2889 0.913 . S
C2871 H2847 0.950 . S
C2871 C2870 1.524 . S
C2871 C2872 1.415 . S
C2872 H2848 0.950 . S
C2872 C2867 1.363 . S
C2872 C2871 1.415 . S
C2873 H2849 0.951 . S
C2873 C2874 1.366 . S
C2873 C2875 1.388 . S
C2874 C2873 1.366 . S
C2874 C2878 1.385 . S
C2875 H2850 0.951 . S
C2875 C2873 1.388 . S
C2875 C2876 1.366 . S
C2876 C2875 1.366 . S
C2876 C2877 1.414 . S
C2876 C2879 1.499 . S
C2877 H2851 0.950 . S
C2877 C2876 1.414 . S
C2877 C2878 1.374 . S
C2878 H2852 0.950 . S
C2878 C2874 1.385 . S
C2878 C2877 1.374 . S
C2879 C2876 1.499 . S
C2879 C2880 1.373 . S
C2879 C2881 1.389 . S
C2880 H2853 0.950 . S
C2880 C2866 1.377 . S
C2880 C2879 1.373 . S
C2881 C2865 1.377 . S
C2881 C2879 1.389 . S
C2881 C2882 1.524 . S
C2882 C2881 1.524 . S
C2882 C2883 1.397 . S
C2882 C2887 1.363 . S
C2883 H2854 0.950 . S
C2883 C2882 1.397 . S
C2883 C2884 1.334 . S
C2884 H2855 0.950 . S
C2884 C2883 1.334 . S
C2884 C2885 1.287 . S
C2885 C2884 1.287 . S
C2885 C2886 1.524 . S
C2885 H2888 0.999 . S
C2886 H2856 0.950 . S
C2886 C2885 1.524 . S
C2886 C2887 1.415 . S
C2887 H2857 0.950 . S
C2887 C2882 1.363 . S
C2887 C2886 1.415 . S
H2888 C2885 0.999 . S
H2889 C2870 0.913 . S
H2890 C2908 0.951 . S
H2891 C2910 0.951 . S
H2892 C2912 0.950 . S
H2893 C2913 0.950 . S
H2894 C2915 0.950 . S
H2895 C2918 0.950 . S
H2896 C2919 0.950 . S
H2897 C2921 0.950 . S
H2898 C2922 0.950 . S
H2899 C2923 0.951 . S
H2900 C2925 0.951 . S
H2901 C2927 0.950 . S
H2902 C2928 0.950 . S
H2903 C2930 0.950 . S
H2904 C2933 0.950 . S
H2905 C2934 0.950 . S
H2906 C2936 0.950 . S
H2907 C2937 0.950 . S
C2908 H2890 0.951 . S
C2908 C2909 1.366 . S
C2908 C2910 1.388 . S
C2909 C2908 1.366 . S
C2909 C2913 1.385 . S
C2910 H2891 0.951 . S
C2910 C2908 1.388 . S
C2910 C2911 1.366 . S
C2911 C2910 1.366 . S
C2911 C2912 1.414 . S
C2911 C2914 1.499 . S
C2912 H2892 0.950 . S
C2912 C2911 1.414 . S
C2912 C2913 1.374 . S
C2913 H2893 0.950 . S
C2913 C2909 1.385 . S
C2913 C2912 1.374 . S
C2914 C2911 1.499 . S
C2914 C2915 1.373 . S
C2914 C2916 1.389 . S
C2915 H2894 0.950 . S
C2915 C2914 1.373 . S
C2915 C2931 1.377 . S
C2916 C2914 1.389 . S
C2916 C2917 1.524 . S
C2916 C2930 1.377 . S
C2917 C2916 1.524 . S
C2917 C2918 1.397 . S
C2917 C2922 1.363 . S
C2918 H2895 0.950 . S
C2918 C2917 1.397 . S
C2918 C2919 1.334 . S
C2919 H2896 0.950 . S
C2919 C2918 1.334 . S
C2919 C2920 1.287 . S
C2920 C2919 1.287 . S
C2920 C2921 1.524 . S
C2920 H2939 0.913 . S
C2921 H2897 0.950 . S
C2921 C2920 1.524 . S
C2921 C2922 1.415 . S
C2922 H2898 0.950 . S
C2922 C2917 1.363 . S
C2922 C2921 1.415 . S
C2923 H2899 0.951 . S
C2923 C2924 1.366 . S
C2923 C2925 1.388 . S
C2924 C2923 1.366 . S
C2924 C2928 1.385 . S
C2925 H2900 0.951 . S
C2925 C2923 1.388 . S
C2925 C2926 1.366 . S
C2926 C2925 1.366 . S
C2926 C2927 1.414 . S
C2926 C2929 1.499 . S
C2927 H2901 0.950 . S
C2927 C2926 1.414 . S
C2927 C2928 1.374 . S
C2928 H2902 0.950 . S
C2928 C2924 1.385 . S
C2928 C2927 1.374 . S
C2929 C2926 1.499 . S
C2929 C2930 1.373 . S
C2929 C2931 1.389 . S
C2930 H2903 0.950 . S
C2930 C2916 1.377 . S
C2930 C2929 1.373 . S
C2931 C2915 1.377 . S
C2931 C2929 1.389 . S
C2931 C2932 1.524 . S
C2932 C2931 1.524 . S
C2932 C2933 1.397 . S
C2932 C2937 1.363 . S
C2933 H2904 0.950 . S
C2933 C2932 1.397 . S
C2933 C2934 1.334 . S
C2934 H2905 0.950 . S
C2934 C2933 1.334 . S
C2934 C2935 1.287 . S
C2935 C2934 1.287 . S
C2935 C2936 1.524 . S
C2935 H2938 0.999 . S
C2936 H2906 0.950 . S
C2936 C2935 1.524 . S
C2936 C2937 1.415 . S
C2937 H2907 0.950 . S
C2937 C2932 1.363 . S
C2937 C2936 1.415 . S
H2938 C2935 0.999 . S
H2939 C2920 0.913 . S
H2940 C2958 0.951 . S
H2941 C2960 0.951 . S
H2942 C2962 0.950 . S
H2943 C2963 0.950 . S
H2944 C2965 0.950 . S
H2945 C2968 0.950 . S
H2946 C2969 0.950 . S
H2947 C2971 0.950 . S
H2948 C2972 0.950 . S
H2949 C2973 0.951 . S
H2950 C2975 0.951 . S
H2951 C2977 0.950 . S
H2952 C2978 0.950 . S
H2953 C2980 0.950 . S
H2954 C2983 0.950 . S
H2955 C2984 0.950 . S
H2956 C2986 0.950 . S
H2957 C2987 0.950 . S
C2958 H2940 0.951 . S
C2958 C2959 1.366 . S
C2958 C2960 1.388 . S
C2959 C2958 1.366 . S
C2959 C2963 1.385 . S
C2960 H2941 0.951 . S
C2960 C2958 1.388 . S
C2960 C2961 1.366 . S
C2961 C2960 1.366 . S
C2961 C2962 1.414 . S
C2961 C2964 1.499 . S
C2962 H2942 0.950 . S
C2962 C2961 1.414 . S
C2962 C2963 1.374 . S
C2963 H2943 0.950 . S
C2963 C2959 1.385 . S
C2963 C2962 1.374 . S
C2964 C2961 1.499 . S
C2964 C2965 1.373 . S
C2964 C2966 1.389 . S
C2965 H2944 0.950 . S
C2965 C2964 1.373 . S
C2965 C2981 1.377 . S
C2966 C2964 1.389 . S
C2966 C2967 1.524 . S
C2966 C2980 1.377 . S
C2967 C2966 1.524 . S
C2967 C2968 1.397 . S
C2967 C2972 1.363 . S
C2968 H2945 0.950 . S
C2968 C2967 1.397 . S
C2968 C2969 1.334 . S
C2969 H2946 0.950 . S
C2969 C2968 1.334 . S
C2969 C2970 1.287 . S
C2970 C2969 1.287 . S
C2970 C2971 1.524 . S
C2970 H2989 0.913 . S
C2971 H2947 0.950 . S
C2971 C2970 1.524 . S
C2971 C2972 1.415 . S
C2972 H2948 0.950 . S
C2972 C2967 1.363 . S
C2972 C2971 1.415 . S
C2973 H2949 0.951 . S
C2973 C2974 1.366 . S
C2973 C2975 1.388 . S
C2974 C2973 1.366 . S
C2974 C2978 1.385 . S
C2975 H2950 0.951 . S
C2975 C2973 1.388 . S
C2975 C2976 1.366 . S
C2976 C2975 1.366 . S
C2976 C2977 1.414 . S
C2976 C2979 1.499 . S
C2977 H2951 0.950 . S
C2977 C2976 1.414 . S
C2977 C2978 1.374 . S
C2978 H2952 0.950 . S
C2978 C2974 1.385 . S
C2978 C2977 1.374 . S
C2979 C2976 1.499 . S
C2979 C2980 1.373 . S
C2979 C2981 1.389 . S
C2980 H2953 0.950 . S
C2980 C2966 1.377 . S
C2980 C2979 1.373 . S
C2981 C2965 1.377 . S
C2981 C2979 1.389 . S
C2981 C2982 1.524 . S
C2982 C2981 1.524 . S
C2982 C2983 1.397 . S
C2982 C2987 1.363 . S
C2983 H2954 0.950 . S
C2983 C2982 1.397 . S
C2983 C2984 1.334 1_556 S
C2984 H2955 0.950 . S
C2984 C2983 1.334 1_554 S
C2984 C2985 1.287 . S
C2985 C2984 1.287 . S
C2985 C2986 1.524 1_554 S
C2985 H2988 0.999 . S
C2986 H2956 0.950 . S
C2986 C2985 1.524 1_556 S
C2986 C2987 1.415 . S
C2987 H2957 0.950 . S
C2987 C2982 1.363 . S
C2987 C2986 1.415 . S
H2988 C2985 0.999 . S
H2989 C2970 0.913 . S
H2990 C3008 0.951 . S
H2991 C3010 0.951 . S
H2992 C3012 0.950 . S
H2993 C3013 0.950 . S
H2994 C3015 0.950 . S
H2995 C3018 0.950 . S
H2996 C3019 0.950 . S
H2997 C3021 0.950 . S
H2998 C3022 0.950 . S
H2999 C3023 0.951 . S
H3000 C3025 0.951 . S
H3001 C3027 0.950 . S
H3002 C3028 0.950 . S
H3003 C3030 0.950 . S
H3004 C3033 0.950 . S
H3005 C3034 0.950 . S
H3006 C3036 0.950 . S
H3007 C3037 0.950 . S
C3008 H2990 0.951 . S
C3008 C3009 1.366 . S
C3008 C3010 1.388 . S
C3009 C3008 1.366 . S
C3009 C3013 1.385 . S
C3010 H2991 0.951 . S
C3010 C3008 1.388 . S
C3010 C3011 1.366 . S
C3011 C3010 1.366 . S
C3011 C3012 1.414 . S
C3011 C3014 1.499 . S
C3012 H2992 0.950 . S
C3012 C3011 1.414 . S
C3012 C3013 1.374 . S
C3013 H2993 0.950 . S
C3013 C3009 1.385 . S
C3013 C3012 1.374 . S
C3014 C3011 1.499 . S
C3014 C3015 1.373 . S
C3014 C3016 1.389 . S
C3015 H2994 0.950 . S
C3015 C3014 1.373 . S
C3015 C3031 1.377 . S
C3016 C3014 1.389 . S
C3016 C3017 1.524 . S
C3016 C3030 1.377 . S
C3017 C3016 1.524 . S
C3017 C3018 1.397 . S
C3017 C3022 1.363 . S
C3018 H2995 0.950 . S
C3018 C3017 1.397 . S
C3018 C3019 1.334 . S
C3019 H2996 0.950 . S
C3019 C3018 1.334 . S
C3019 C3020 1.287 . S
C3020 C3019 1.287 . S
C3020 C3021 1.524 . S
C3020 H3039 0.913 . S
C3021 H2997 0.950 . S
C3021 C3020 1.524 . S
C3021 C3022 1.415 . S
C3022 H2998 0.950 . S
C3022 C3017 1.363 . S
C3022 C3021 1.415 . S
C3023 H2999 0.951 . S
C3023 C3024 1.366 . S
C3023 C3025 1.388 . S
C3024 C3023 1.366 . S
C3024 C3028 1.385 . S
C3025 H3000 0.951 . S
C3025 C3023 1.388 . S
C3025 C3026 1.366 . S
C3026 C3025 1.366 . S
C3026 C3027 1.414 . S
C3026 C3029 1.499 . S
C3027 H3001 0.950 . S
C3027 C3026 1.414 . S
C3027 C3028 1.374 . S
C3028 H3002 0.950 . S
C3028 C3024 1.385 . S
C3028 C3027 1.374 . S
C3029 C3026 1.499 . S
C3029 C3030 1.373 . S
C3029 C3031 1.389 . S
C3030 H3003 0.950 . S
C3030 C3016 1.377 . S
C3030 C3029 1.373 . S
C3031 C3015 1.377 . S
C3031 C3029 1.389 . S
C3031 C3032 1.524 . S
C3032 C3031 1.524 . S
C3032 C3033 1.397 . S
C3032 C3037 1.363 . S
C3033 H3004 0.950 . S
C3033 C3032 1.397 . S
C3033 C3034 1.334 . S
C3034 H3005 0.950 . S
C3034 C3033 1.334 . S
C3034 C3035 1.287 . S
C3035 C3034 1.287 . S
C3035 C3036 1.524 . S
C3035 H3038 0.999 . S
C3036 H3006 0.950 . S
C3036 C3035 1.524 . S
C3036 C3037 1.415 . S
C3037 H3007 0.950 . S
C3037 C3032 1.363 . S
C3037 C3036 1.415 . S
H3038 C3035 0.999 . S
H3039 C3020 0.913 . S
C659 C139 1.067 . S
C674 C9 1.069 . S
C709 C6 1.282 . S
C724 C46 1.286 . S
C759 C98 1.189 . S
C774 C59 1.183 . S
C809 C126 1.031 . S
C824 C90 1.030 . S
C859 C175 1.307 . S
C874 C206 1.282 . S
C909 C209 1.315 . S
C924 C258 1.272 . S
C959 C255 1.029 . S
C974 C290 1.021 . S
C1009 C178 1.179 . S
C1024 C298 1.183 . S
C1059 C379 3.914 . S
C1074 C19 3.878 . S
C1109 C410 1.057 . S
C1124 C49 1.070 . S
C1159 C95 1.268 . S
C1174 C535 1.282 . S
C1209 C330 1.148 . S
C1224 C129 1.129 . S
C1259 C449 1.129 . S
C1274 C170 1.148 . S
C1309 C579 3.879 . S
C1324 C219 3.915 . S
C1359 C250 1.056 . S
C1374 C489 1.070 . S
C1409 C615 1.268 . S
C1424 C295 1.282 . S
C1459 C338 1.179 . S
C1474 C538 1.183 . S
C1509 C366 1.282 . S
C1524 C335 1.307 . S
C1559 C418 1.271 . S
C1574 C369 1.315 . S
C1609 C569 1.069 . S
C1624 C459 1.067 . S
C1659 C499 1.183 . S
C1674 C618 1.188 . S
C1709 C450 1.067 . S
C1724 C18 1.069 . S
C1759 C495 1.285 . S
C1774 C15 1.282 . S
C1809 C490 1.183 . S
C1824 C89 1.189 . S
C1859 C99 1.030 . S
C1874 C455 1.031 . S
C1909 C375 1.281 . S
C1924 C166 1.306 . S
C1959 C378 1.315 . S
C1974 C249 1.272 . S
C2009 C539 1.022 . S
C2024 C246 1.029 . S
C2059 C169 1.179 . S
C2074 C529 1.183 . S
C2109 C210 3.915 . S
C2124 C10 3.879 . S
C2159 C419 1.058 . S
C2174 C498 1.069 . S
C2209 C86 1.268 . S
C2224 C286 1.282 . S
C2259 C339 1.148 . S
C2274 C458 1.130 . S
C2309 C138 1.130 . S
C2324 C179 1.149 . S
C2359 C370 3.915 . S
C2374 C570 3.878 . S
C2409 C259 1.058 . S
C2424 C58 1.070 . S
C2459 C606 1.267 . S
C2474 C526 1.282 . S
C2509 C329 1.178 . S
C2524 C289 1.182 . S
C2559 C326 1.307 . S
C2574 C215 1.282 . S
C2609 C409 1.273 . S
C2624 C218 1.316 . S
C2659 C130 1.068 . S
C2674 C578 1.069 . S
C2709 C50 1.183 . S
C2724 C609 1.188 . S
C2759 C486 1.285 . S
C2774 C566 1.281 . S
C2809 C446 1.031 . S
C2824 C610 1.030 . S
C2859 C415 1.029 . S
C2874 C530 1.022 . S
C2909 C575 1.282 . S
C2924 C55 1.286 . S
C2959 C135 1.032 . S
C2974 C619 1.030 . S
C3009 C299 1.022 . S
C3024 C406 1.029 . S
