# Generated by pormake.
# Topology wio, (6)-cn, num edge types: 1
# Building blocks:
#     Node 0, Type 0, BuildingBlock: BETDIP_clean_sbu_0, # of connection points: 6
#     Node 1, Type 0, BuildingBlock: BETDIP_clean_sbu_0, # of connection points: 6
#     Node 2, Type 0, BuildingBlock: BETDIP_clean_sbu_0, # of connection points: 6
#     Node 3, Type 0, BuildingBlock: BETDIP_clean_sbu_0, # of connection points: 6
#     Node 4, Type 0, BuildingBlock: BETDIP_clean_sbu_0, # of connection points: 6
#     Node 5, Type 0, BuildingBlock: BETDIP_clean_sbu_0, # of connection points: 6
#     Node 6, Type 0, BuildingBlock: BETDIP_clean_sbu_0, # of connection points: 6
#     Node 7, Type 0, BuildingBlock: BETDIP_clean_sbu_0, # of connection points: 6
#     Node 8, Type 0, BuildingBlock: BETDIP_clean_sbu_0, # of connection points: 6
#     Node 9, Type 0, BuildingBlock: BETDIP_clean_sbu_0, # of connection points: 6
#     Node 10, Type 0, BuildingBlock: BETDIP_clean_sbu_0, # of connection points: 6
#     Node 11, Type 0, BuildingBlock: BETDIP_clean_sbu_0, # of connection points: 6
#     Node 12, Type 0, BuildingBlock: BETDIP_clean_sbu_0, # of connection points: 6
#     Node 13, Type 0, BuildingBlock: BETDIP_clean_sbu_0, # of connection points: 6
#     Node 14, Type 0, BuildingBlock: BETDIP_clean_sbu_0, # of connection points: 6
#     Node 15, Type 0, BuildingBlock: BETDIP_clean_sbu_0, # of connection points: 6
#     Node 16, Type 0, BuildingBlock: BETDIP_clean_sbu_0, # of connection points: 6
#     Node 17, Type 0, BuildingBlock: BETDIP_clean_sbu_0, # of connection points: 6
#     Node 18, Type 0, BuildingBlock: BETDIP_clean_sbu_0, # of connection points: 6
#     Node 19, Type 0, BuildingBlock: BETDIP_clean_sbu_0, # of connection points: 6
#     Node 20, Type 0, BuildingBlock: BETDIP_clean_sbu_0, # of connection points: 6
#     Node 21, Type 0, BuildingBlock: BETDIP_clean_sbu_0, # of connection points: 6
#     Node 22, Type 0, BuildingBlock: BETDIP_clean_sbu_0, # of connection points: 6
#     Node 23, Type 0, BuildingBlock: BETDIP_clean_sbu_0, # of connection points: 6
#     Node 24, Type 0, BuildingBlock: BETDIP_clean_sbu_0, # of connection points: 6
#     Node 25, Type 0, BuildingBlock: BETDIP_clean_sbu_0, # of connection points: 6
#     Node 26, Type 0, BuildingBlock: BETDIP_clean_sbu_0, # of connection points: 6
#     Node 27, Type 0, BuildingBlock: BETDIP_clean_sbu_0, # of connection points: 6
#     Node 28, Type 0, BuildingBlock: BETDIP_clean_sbu_0, # of connection points: 6
#     Node 29, Type 0, BuildingBlock: BETDIP_clean_sbu_0, # of connection points: 6
#     Node 30, Type 0, BuildingBlock: BETDIP_clean_sbu_0, # of connection points: 6
#     Node 31, Type 0, BuildingBlock: BETDIP_clean_sbu_0, # of connection points: 6
#     Edge 32, Type (0, 0), BuildingBlock: KIFKEQ_clean_linker_1, # of connection points: 2
#     Edge 33, Type (0, 0), BuildingBlock: KIFKEQ_clean_linker_1, # of connection points: 2
#     Edge 34, Type (0, 0), BuildingBlock: KIFKEQ_clean_linker_1, # of connection points: 2
#     Edge 35, Type (0, 0), BuildingBlock: KIFKEQ_clean_linker_1, # of connection points: 2
#     Edge 36, Type (0, 0), BuildingBlock: KIFKEQ_clean_linker_1, # of connection points: 2
#     Edge 37, Type (0, 0), BuildingBlock: KIFKEQ_clean_linker_1, # of connection points: 2
#     Edge 38, Type (0, 0), BuildingBlock: KIFKEQ_clean_linker_1, # of connection points: 2
#     Edge 39, Type (0, 0), BuildingBlock: KIFKEQ_clean_linker_1, # of connection points: 2
#     Edge 40, Type (0, 0), BuildingBlock: KIFKEQ_clean_linker_1, # of connection points: 2
#     Edge 41, Type (0, 0), BuildingBlock: KIFKEQ_clean_linker_1, # of connection points: 2
#     Edge 42, Type (0, 0), BuildingBlock: KIFKEQ_clean_linker_1, # of connection points: 2
#     Edge 43, Type (0, 0), BuildingBlock: KIFKEQ_clean_linker_1, # of connection points: 2
#     Edge 44, Type (0, 0), BuildingBlock: KIFKEQ_clean_linker_1, # of connection points: 2
#     Edge 45, Type (0, 0), BuildingBlock: KIFKEQ_clean_linker_1, # of connection points: 2
#     Edge 46, Type (0, 0), BuildingBlock: KIFKEQ_clean_linker_1, # of connection points: 2
#     Edge 47, Type (0, 0), BuildingBlock: KIFKEQ_clean_linker_1, # of connection points: 2
#     Edge 48, Type (0, 0), BuildingBlock: KIFKEQ_clean_linker_1, # of connection points: 2
#     Edge 49, Type (0, 0), BuildingBlock: KIFKEQ_clean_linker_1, # of connection points: 2
#     Edge 50, Type (0, 0), BuildingBlock: KIFKEQ_clean_linker_1, # of connection points: 2
#     Edge 51, Type (0, 0), BuildingBlock: KIFKEQ_clean_linker_1, # of connection points: 2
#     Edge 52, Type (0, 0), BuildingBlock: KIFKEQ_clean_linker_1, # of connection points: 2
#     Edge 53, Type (0, 0), BuildingBlock: KIFKEQ_clean_linker_1, # of connection points: 2
#     Edge 54, Type (0, 0), BuildingBlock: KIFKEQ_clean_linker_1, # of connection points: 2
#     Edge 55, Type (0, 0), BuildingBlock: KIFKEQ_clean_linker_1, # of connection points: 2
#     Edge 56, Type (0, 0), BuildingBlock: KIFKEQ_clean_linker_1, # of connection points: 2
#     Edge 57, Type (0, 0), BuildingBlock: KIFKEQ_clean_linker_1, # of connection points: 2
#     Edge 58, Type (0, 0), BuildingBlock: KIFKEQ_clean_linker_1, # of connection points: 2
#     Edge 59, Type (0, 0), BuildingBlock: KIFKEQ_clean_linker_1, # of connection points: 2
#     Edge 60, Type (0, 0), BuildingBlock: KIFKEQ_clean_linker_1, # of connection points: 2
#     Edge 61, Type (0, 0), BuildingBlock: KIFKEQ_clean_linker_1, # of connection points: 2
#     Edge 62, Type (0, 0), BuildingBlock: KIFKEQ_clean_linker_1, # of connection points: 2
#     Edge 63, Type (0, 0), BuildingBlock: KIFKEQ_clean_linker_1, # of connection points: 2
#     Edge 64, Type (0, 0), BuildingBlock: KIFKEQ_clean_linker_1, # of connection points: 2
#     Edge 65, Type (0, 0), BuildingBlock: KIFKEQ_clean_linker_1, # of connection points: 2
#     Edge 66, Type (0, 0), BuildingBlock: KIFKEQ_clean_linker_1, # of connection points: 2
#     Edge 67, Type (0, 0), BuildingBlock: KIFKEQ_clean_linker_1, # of connection points: 2
#     Edge 68, Type (0, 0), BuildingBlock: KIFKEQ_clean_linker_1, # of connection points: 2
#     Edge 69, Type (0, 0), BuildingBlock: KIFKEQ_clean_linker_1, # of connection points: 2
#     Edge 70, Type (0, 0), BuildingBlock: KIFKEQ_clean_linker_1, # of connection points: 2
#     Edge 71, Type (0, 0), BuildingBlock: KIFKEQ_clean_linker_1, # of connection points: 2
#     Edge 72, Type (0, 0), BuildingBlock: KIFKEQ_clean_linker_1, # of connection points: 2
#     Edge 73, Type (0, 0), BuildingBlock: KIFKEQ_clean_linker_1, # of connection points: 2
#     Edge 74, Type (0, 0), BuildingBlock: KIFKEQ_clean_linker_1, # of connection points: 2
#     Edge 75, Type (0, 0), BuildingBlock: KIFKEQ_clean_linker_1, # of connection points: 2
#     Edge 76, Type (0, 0), BuildingBlock: KIFKEQ_clean_linker_1, # of connection points: 2
#     Edge 77, Type (0, 0), BuildingBlock: KIFKEQ_clean_linker_1, # of connection points: 2
#     Edge 78, Type (0, 0), BuildingBlock: KIFKEQ_clean_linker_1, # of connection points: 2
#     Edge 79, Type (0, 0), BuildingBlock: KIFKEQ_clean_linker_1, # of connection points: 2
#     Edge 80, Type (0, 0), BuildingBlock: KIFKEQ_clean_linker_1, # of connection points: 2
#     Edge 81, Type (0, 0), BuildingBlock: KIFKEQ_clean_linker_1, # of connection points: 2
#     Edge 82, Type (0, 0), BuildingBlock: KIFKEQ_clean_linker_1, # of connection points: 2
#     Edge 83, Type (0, 0), BuildingBlock: KIFKEQ_clean_linker_1, # of connection points: 2
#     Edge 84, Type (0, 0), BuildingBlock: KIFKEQ_clean_linker_1, # of connection points: 2
#     Edge 85, Type (0, 0), BuildingBlock: KIFKEQ_clean_linker_1, # of connection points: 2
#     Edge 86, Type (0, 0), BuildingBlock: KIFKEQ_clean_linker_1, # of connection points: 2
#     Edge 87, Type (0, 0), BuildingBlock: KIFKEQ_clean_linker_1, # of connection points: 2
#     Edge 88, Type (0, 0), BuildingBlock: KIFKEQ_clean_linker_1, # of connection points: 2
#     Edge 89, Type (0, 0), BuildingBlock: KIFKEQ_clean_linker_1, # of connection points: 2
#     Edge 90, Type (0, 0), BuildingBlock: KIFKEQ_clean_linker_1, # of connection points: 2
#     Edge 91, Type (0, 0), BuildingBlock: KIFKEQ_clean_linker_1, # of connection points: 2
#     Edge 92, Type (0, 0), BuildingBlock: KIFKEQ_clean_linker_1, # of connection points: 2
#     Edge 93, Type (0, 0), BuildingBlock: KIFKEQ_clean_linker_1, # of connection points: 2
#     Edge 94, Type (0, 0), BuildingBlock: KIFKEQ_clean_linker_1, # of connection points: 2
#     Edge 95, Type (0, 0), BuildingBlock: KIFKEQ_clean_linker_1, # of connection points: 2
#     Edge 96, Type (0, 0), BuildingBlock: KIFKEQ_clean_linker_1, # of connection points: 2
#     Edge 97, Type (0, 0), BuildingBlock: KIFKEQ_clean_linker_1, # of connection points: 2
#     Edge 98, Type (0, 0), BuildingBlock: KIFKEQ_clean_linker_1, # of connection points: 2
#     Edge 99, Type (0, 0), BuildingBlock: KIFKEQ_clean_linker_1, # of connection points: 2
#     Edge 100, Type (0, 0), BuildingBlock: KIFKEQ_clean_linker_1, # of connection points: 2
#     Edge 101, Type (0, 0), BuildingBlock: KIFKEQ_clean_linker_1, # of connection points: 2
#     Edge 102, Type (0, 0), BuildingBlock: KIFKEQ_clean_linker_1, # of connection points: 2
#     Edge 103, Type (0, 0), BuildingBlock: KIFKEQ_clean_linker_1, # of connection points: 2
#     Edge 104, Type (0, 0), BuildingBlock: KIFKEQ_clean_linker_1, # of connection points: 2
#     Edge 105, Type (0, 0), BuildingBlock: KIFKEQ_clean_linker_1, # of connection points: 2
#     Edge 106, Type (0, 0), BuildingBlock: KIFKEQ_clean_linker_1, # of connection points: 2
#     Edge 107, Type (0, 0), BuildingBlock: KIFKEQ_clean_linker_1, # of connection points: 2
#     Edge 108, Type (0, 0), BuildingBlock: KIFKEQ_clean_linker_1, # of connection points: 2
#     Edge 109, Type (0, 0), BuildingBlock: KIFKEQ_clean_linker_1, # of connection points: 2
#     Edge 110, Type (0, 0), BuildingBlock: KIFKEQ_clean_linker_1, # of connection points: 2
#     Edge 111, Type (0, 0), BuildingBlock: KIFKEQ_clean_linker_1, # of connection points: 2
#     Edge 112, Type (0, 0), BuildingBlock: KIFKEQ_clean_linker_1, # of connection points: 2
#     Edge 113, Type (0, 0), BuildingBlock: KIFKEQ_clean_linker_1, # of connection points: 2
#     Edge 114, Type (0, 0), BuildingBlock: KIFKEQ_clean_linker_1, # of connection points: 2
#     Edge 115, Type (0, 0), BuildingBlock: KIFKEQ_clean_linker_1, # of connection points: 2
#     Edge 116, Type (0, 0), BuildingBlock: KIFKEQ_clean_linker_1, # of connection points: 2
#     Edge 117, Type (0, 0), BuildingBlock: KIFKEQ_clean_linker_1, # of connection points: 2
#     Edge 118, Type (0, 0), BuildingBlock: KIFKEQ_clean_linker_1, # of connection points: 2
#     Edge 119, Type (0, 0), BuildingBlock: KIFKEQ_clean_linker_1, # of connection points: 2
#     Edge 120, Type (0, 0), BuildingBlock: KIFKEQ_clean_linker_1, # of connection points: 2
#     Edge 121, Type (0, 0), BuildingBlock: KIFKEQ_clean_linker_1, # of connection points: 2
#     Edge 122, Type (0, 0), BuildingBlock: KIFKEQ_clean_linker_1, # of connection points: 2
#     Edge 123, Type (0, 0), BuildingBlock: KIFKEQ_clean_linker_1, # of connection points: 2
#     Edge 124, Type (0, 0), BuildingBlock: KIFKEQ_clean_linker_1, # of connection points: 2
#     Edge 125, Type (0, 0), BuildingBlock: KIFKEQ_clean_linker_1, # of connection points: 2
#     Edge 126, Type (0, 0), BuildingBlock: KIFKEQ_clean_linker_1, # of connection points: 2
#     Edge 127, Type (0, 0), BuildingBlock: KIFKEQ_clean_linker_1, # of connection points: 2
# Relax obj value: 0.197
# Max RMSD: 0.231
# Mean RMSD: 0.231
data_MOF--net-wio--node1-BETDIP_clean_sbu_0--edge1-KIFKEQ_clean_linker_1
_symmetry_space_group_name_H-M    P1
_symmetry_Int_Tables_number       1
_symmetry_cell_setting            triclinic
loop_
_symmetry_equiv_pos_as_xyz
'x, y, z'
_cell_length_a     62.841097
_cell_length_b     62.829482
_cell_length_c     53.997616
_cell_angle_alpha  90.085199
_cell_angle_beta   89.917402
_cell_angle_gamma 89.898392
loop_
_atom_site_label
_atom_site_type_symbol
_atom_site_fract_x
_atom_site_fract_y
_atom_site_fract_z
_atom_type_partial_charge
Tb0 Tb 0.15501 0.11998 0.2964 0.0
Tb1 Tb 0.10832 0.12759 0.30486 0.0
C2 C 0.1909 0.10752 0.28136 0.0
C3 C 0.20799 0.11311 0.26378 0.0
C4 C 0.20379 0.1205 0.23973 0.0
C5 C 0.22063 0.12469 0.22336 0.0
C6 C 0.24191 0.12156 0.23077 0.0
C7 C 0.24591 0.1147 0.25511 0.0
C8 C 0.22915 0.11049 0.27136 0.0
C9 C 0.14623 0.15583 0.31938 0.0
C10 C 0.12643 0.13804 0.25186 0.0
C11 C 0.07327 0.1416 0.3213 0.0
C12 C 0.05943 0.14091 0.34346 0.0
C13 C 0.04291 0.15582 0.34569 0.0
C14 C 0.02858 0.15485 0.36553 0.0
C15 C 0.03043 0.13892 0.38372 0.0
C16 C 0.04744 0.1243 0.38173 0.0
C17 C 0.06178 0.12527 0.36178 0.0
C18 C 0.11799 0.08987 0.28543 0.0
C19 C 0.13616 0.10475 0.34714 0.0
O20 O 0.17283 0.10061 0.27232 0.0
O21 O 0.18821 0.12048 0.30006 0.0
O22 O 0.13548 0.14789 0.3018 0.0
O23 O 0.16334 0.14474 0.3225 0.0
O24 O 0.14508 0.13083 0.2596 0.0
O25 O 0.10985 0.13989 0.26695 0.0
O26 O 0.09134 0.15175 0.32337 0.0
O27 O 0.07528 0.12396 0.30863 0.0
O28 O 0.1281 0.10014 0.3015 0.0
O29 O 0.10071 0.10044 0.28061 0.0
O30 O 0.1185 0.11545 0.34164 0.0
O31 O 0.15136 0.10198 0.33043 0.0
H32 H 0.18757 0.12273 0.23349 0.0
H33 H 0.21696 0.12981 0.2047 0.0
H34 H 0.26206 0.11249 0.26162 0.0
H35 H 0.23273 0.10494 0.28989 0.0
H36 H 0.04078 0.16799 0.33171 0.0
H37 H 0.01559 0.16619 0.36609 0.0
H38 H 0.04962 0.11198 0.3955 0.0
H39 H 0.07445 0.11363 0.36045 0.0
Tb40 Tb 0.14994 0.90775 0.54763 0.0
Tb41 Tb 0.13994 0.86139 0.55477 0.0
C42 C 0.16364 0.94297 0.53218 0.0
C43 C 0.15913 0.95843 0.51228 0.0
C44 C 0.17617 0.9687 0.50059 0.0
C45 C 0.17245 0.98447 0.48288 0.0
C46 C 0.15155 0.9904 0.47653 0.0
C47 C 0.13445 0.97985 0.48802 0.0
C48 C 0.1382 0.96394 0.50565 0.0
C49 C 0.11283 0.9004 0.56841 0.0
C50 C 0.13162 0.88043 0.50202 0.0
C51 C 0.12463 0.82735 0.5721 0.0
C52 C 0.12732 0.81266 0.59348 0.0
C53 C 0.11101 0.81084 0.61121 0.0
C54 C 0.11242 0.79593 0.63045 0.0
C55 C 0.13017 0.78234 0.63241 0.0
C56 C 0.1466 0.78437 0.61476 0.0
C57 C 0.1452 0.79931 0.59558 0.0
C58 C 0.17861 0.86932 0.53722 0.0
C59 C 0.16303 0.88804 0.59846 0.0
O60 O 0.17176 0.92461 0.52551 0.0
O61 O 0.14918 0.94099 0.54946 0.0
O62 O 0.12102 0.88949 0.55107 0.0
O63 O 0.12459 0.91684 0.5727 0.0
O64 O 0.14085 0.89797 0.51027 0.0
O65 O 0.12721 0.86432 0.51705 0.0
O66 O 0.11694 0.84628 0.57687 0.0
O67 O 0.13975 0.82796 0.55541 0.0
O68 O 0.16832 0.8798 0.55299 0.0
O69 O 0.16762 0.85244 0.53192 0.0
O70 O 0.15243 0.87061 0.59181 0.0
O71 O 0.16632 0.90373 0.58261 0.0
H72 H 0.19242 0.96477 0.5055 0.0
H73 H 0.18598 0.99242 0.4746 0.0
H74 H 0.11818 0.98386 0.48332 0.0
H75 H 0.12475 0.95616 0.51432 0.0
H76 H 0.09694 0.82079 0.61 0.0
H77 H 0.09957 0.79506 0.64378 0.0
H78 H 0.16036 0.77399 0.61531 0.0
H79 H 0.15799 0.80007 0.58214 0.0
Tb80 Tb 0.3626 0.90125 0.79387 0.0
Tb81 Tb 0.40885 0.89156 0.80343 0.0
C82 C 0.32786 0.91538 0.77746 0.0
C83 C 0.31138 0.91035 0.75899 0.0
C84 C 0.29929 0.92702 0.74909 0.0
C85 C 0.28221 0.92277 0.73333 0.0
C86 C 0.27676 0.90169 0.7272 0.0
C87 C 0.28938 0.88499 0.73655 0.0
C88 C 0.30655 0.88928 0.75233 0.0
C89 C 0.3695 0.86485 0.8166 0.0
C90 C 0.39102 0.88127 0.75025 0.0
C91 C 0.44251 0.87624 0.8218 0.0
C92 C 0.45722 0.87904 0.84314 0.0
C93 C 0.45572 0.86561 0.86389 0.0
C94 C 0.47082 0.86663 0.88293 0.0
C95 C 0.48792 0.88104 0.88166 0.0
C96 C 0.48922 0.89467 0.86104 0.0
C97 C 0.47413 0.89365 0.84201 0.0
C98 C 0.40155 0.9296 0.78384 0.0
C99 C 0.38127 0.91632 0.84485 0.0
O100 O 0.34647 0.92144 0.76911 0.0
O101 O 0.32943 0.90239 0.79629 0.0
O102 O 0.38091 0.87256 0.79945 0.0
O103 O 0.35274 0.87656 0.81943 0.0
O104 O 0.37276 0.88985 0.75738 0.0
O105 O 0.40708 0.87838 0.76584 0.0
O106 O 0.42343 0.86896 0.8265 0.0
O107 O 0.44225 0.89106 0.80479 0.0
O108 O 0.39036 0.91979 0.79933 0.0
O109 O 0.41883 0.91862 0.78046 0.0
O110 O 0.39877 0.90521 0.83959 0.0
O111 O 0.36621 0.9192 0.82806 0.0
H112 H 0.30282 0.94338 0.75395 0.0
H113 H 0.27319 0.93606 0.72603 0.0
H114 H 0.28561 0.86858 0.73227 0.0
H115 H 0.31572 0.87615 0.75976 0.0
H116 H 0.44307 0.85397 0.86522 0.0
H117 H 0.46913 0.85605 0.89862 0.0
H118 H 0.50232 0.90574 0.85917 0.0
H119 H 0.47604 0.90398 0.82613 0.0
Tb120 Tb 0.36689 0.11312 0.04557 0.0
Tb121 Tb 0.37814 0.1594 0.05473 0.0
C122 C 0.35206 0.07875 1.0289 0.0
C123 C 0.35694 0.06257 1.00987 0.0
C124 C 0.34012 0.05174 0.99849 0.0
C125 C 0.34416 0.03511 0.98189 0.0
C126 C 0.36517 0.02884 0.97639 0.0
C127 C 0.38205 0.04018 0.98731 0.0
C128 C 0.37798 0.05691 1.00389 0.0
C129 C 0.40374 0.11907 0.06761 0.0
C130 C 0.38744 0.14054 1.0016 0.0
C131 C 0.39495 0.19259 0.07252 0.0
C132 C 0.39234 0.20913 0.09189 0.0
C133 C 0.38308 0.20489 0.11508 0.0
C134 C 0.3817 0.22099 0.13318 0.0
C135 C 0.38949 0.24163 0.1284 0.0
C136 C 0.3988 0.24562 0.10513 0.0
C137 C 0.40017 0.22961 0.08717 0.0
C138 C 0.33956 0.15298 0.03599 0.0
C139 C 0.3528 0.13269 0.09654 0.0
O140 O 0.34603 0.09753 1.02108 0.0
O141 O 0.36517 0.07993 0.04766 0.0
O142 O 0.39606 0.13068 0.05063 0.0
O143 O 0.39172 0.1026 0.07055 0.0
O144 O 0.37753 0.1231 1.00896 0.0
O145 O 0.39176 0.15631 1.01723 0.0
O146 O 0.3996 0.17325 0.07974 0.0
O147 O 0.38141 0.19274 0.05413 0.0
O148 O 0.34952 0.14161 0.05111 0.0
O149 O 0.35058 0.17023 0.03284 0.0
O150 O 0.36426 0.14987 0.09101 0.0
O151 O 0.34942 0.11753 0.07993 0.0
H152 H 0.32378 0.05592 1.00276 0.0
H153 H 0.33075 0.02712 0.97342 0.0
H154 H 0.39841 0.03577 0.98361 0.0
H155 H 0.39124 0.0651 1.01241 0.0
H156 H 0.37696 0.18919 0.11923 0.0
H157 H 0.37423 0.21735 0.15075 0.0
H158 H 0.40532 0.26113 0.10083 0.0
H159 H 0.40758 0.2332 0.06953 0.0
Tb160 Tb 0.15691 0.90028 0.26861 0.0
Tb161 Tb 0.11042 0.89077 0.26214 0.0
C162 C 0.19244 0.91378 0.28337 0.0
C163 C 0.2083 0.90948 0.30291 0.0
C164 C 0.21882 0.92665 0.31403 0.0
C165 C 0.23529 0.92313 0.33093 0.0
C166 C 0.24173 0.90231 0.33699 0.0
C167 C 0.23069 0.88508 0.32635 0.0
C168 C 0.21412 0.88863 0.3095 0.0
C169 C 0.14898 0.86362 0.24709 0.0
C170 C 0.12992 0.88195 0.31451 0.0
C171 C 0.07583 0.87602 0.24563 0.0
C172 C 0.06126 0.87823 0.22405 0.0
C173 C 0.06098 0.86251 0.20547 0.0
C174 C 0.04601 0.86329 0.18625 0.0
C175 C 0.03082 0.87975 0.18515 0.0
C176 C 0.03132 0.89565 0.20357 0.0
C177 C 0.04629 0.89487 0.22278 0.0
C178 C 0.11901 0.92929 0.27987 0.0
C179 C 0.13672 0.91365 0.21814 0.0
O180 O 0.17424 0.92206 0.29032 0.0
O181 O 0.19011 0.89915 0.26633 0.0
O182 O 0.1384 0.87154 0.26489 0.0
O183 O 0.16543 0.87535 0.24276 0.0
O184 O 0.14754 0.89088 0.30604 0.0
O185 O 0.11353 0.87797 0.29975 0.0
O186 O 0.09445 0.86729 0.24161 0.0
O187 O 0.07702 0.89194 0.26123 0.0
O188 O 0.12912 0.91898 0.26379 0.0
O189 O 0.10221 0.91834 0.28559 0.0
O190 O 0.11936 0.90301 0.22492 0.0
O191 O 0.15252 0.91693 0.23385 0.0
H192 H 0.21454 0.94285 0.30928 0.0
H193 H 0.24304 0.93679 0.33916 0.0
H194 H 0.23525 0.86884 0.33045 0.0
H195 H 0.20621 0.87508 0.30121 0.0
H196 H 0.07212 0.84934 0.20601 0.0
H197 H 0.04633 0.85091 0.17228 0.0
H198 H 0.01971 0.9084 0.20362 0.0
H199 H 0.04578 0.9071 0.23693 0.0
Tb200 Tb 0.36847 0.906 0.51987 0.0
Tb201 Tb 0.37693 0.85947 0.51074 0.0
C202 C 0.35518 0.94116 0.53626 0.0
C203 C 0.36016 0.95718 0.5554 0.0
C204 C 0.34342 0.9686 0.56627 0.0
C205 C 0.34756 0.98531 0.58268 0.0
C206 C 0.36861 0.99107 0.5885 0.0
C207 C 0.38541 0.97911 0.57816 0.0
C208 C 0.38122 0.96231 0.56175 0.0
C209 C 0.40468 0.89812 0.49727 0.0
C210 C 0.38708 0.87718 0.56394 0.0
C211 C 0.39147 0.82483 0.49369 0.0
C212 C 0.39053 0.8109 0.47163 0.0
C213 C 0.40594 0.79492 0.46876 0.0
C214 C 0.40488 0.78055 0.44895 0.0
C215 C 0.38835 0.78183 0.43143 0.0
C216 C 0.37319 0.79831 0.43406 0.0
C217 C 0.37425 0.81267 0.45398 0.0
C218 C 0.33901 0.86836 0.52999 0.0
C219 C 0.35398 0.88757 0.46863 0.0
O220 O 0.34791 0.92274 0.54382 0.0
O221 O 0.3688 0.93923 0.51804 0.0
O222 O 0.39672 0.88696 0.51451 0.0
O223 O 0.39334 0.9151 0.49429 0.0
O224 O 0.3794 0.89574 0.55651 0.0
O225 O 0.38935 0.86082 0.5486 0.0
O226 O 0.40092 0.84322 0.4911 0.0
O227 O 0.37422 0.8263 0.50717 0.0
O228 O 0.3492 0.87879 0.51414 0.0
O229 O 0.34972 0.85113 0.53458 0.0
O230 O 0.36471 0.86992 0.47413 0.0
O231 O 0.35106 0.90275 0.48534 0.0
H232 H 0.32706 0.96486 0.56169 0.0
H233 H 0.33421 0.99379 0.59071 0.0
H234 H 0.4018 0.98312 0.58215 0.0
H235 H 0.39444 0.95368 0.5536 0.0
H236 H 0.41861 0.79325 0.48221 0.0
H237 H 0.41665 0.76798 0.44791 0.0
H238 H 0.36039 0.80004 0.42081 0.0
H239 H 0.36221 0.82492 0.45582 0.0
Tb240 Tb 0.36386 0.11824 0.76997 0.0
Tb241 Tb 0.41032 0.12851 0.76169 0.0
C242 C 0.32887 0.1046 0.78625 0.0
C243 C 0.31343 0.10933 0.80619 0.0
C244 C 0.30441 0.0924 0.81939 0.0
C245 C 0.28868 0.09616 0.83721 0.0
C246 C 0.28154 0.11698 0.84216 0.0
C247 C 0.29083 0.134 0.82916 0.0
C248 C 0.3067 0.13022 0.81141 0.0
C249 C 0.37094 0.15473 0.74775 0.0
C250 C 0.39141 0.13778 0.81464 0.0
C251 C 0.44406 0.14467 0.74442 0.0
C252 C 0.45891 0.14274 0.72326 0.0
C253 C 0.47602 0.15695 0.72151 0.0
C254 C 0.49069 0.15537 0.70205 0.0
C255 C 0.4886 0.13952 0.68375 0.0
C256 C 0.47119 0.12542 0.68544 0.0
C257 C 0.4565 0.12701 0.70501 0.0
C258 C 0.40288 0.09026 0.7806 0.0
C259 C 0.38348 0.10392 0.7193 0.0
O260 O 0.34734 0.09684 0.79296 0.0
O261 O 0.33059 0.11866 0.76851 0.0
O262 O 0.38196 0.14708 0.76526 0.0
O263 O 0.35451 0.1428 0.74406 0.0
O264 O 0.37374 0.12854 0.80682 0.0
O265 O 0.40755 0.14163 0.79938 0.0
O266 O 0.42494 0.15179 0.73957 0.0
O267 O 0.44374 0.12894 0.76026 0.0
O268 O 0.392 0.10019 0.76495 0.0
O269 O 0.42006 0.10122 0.78458 0.0
O270 O 0.40081 0.11504 0.72517 0.0
O271 O 0.36804 0.1008 0.7356 0.0
H272 H 0.30927 0.07616 0.81559 0.0
H273 H 0.28172 0.08266 0.84666 0.0
H274 H 0.28587 0.15023 0.83275 0.0
H275 H 0.31348 0.14361 0.80157 0.0
H276 H 0.47819 0.16919 0.73543 0.0
H277 H 0.504 0.16629 0.70175 0.0
H278 H 0.46885 0.11315 0.67161 0.0
H279 H 0.44338 0.11591 0.70598 0.0
Tb280 Tb 0.15053 0.11292 1.02232 0.0
Tb281 Tb 0.14101 0.15916 1.01206 0.0
C282 C 0.16455 0.07829 0.03919 0.0
C283 C 0.1594 0.06185 0.05766 0.0
C284 C 0.17596 0.04954 0.06742 0.0
C285 C 0.17158 0.03247 0.08315 0.0
C286 C 0.15046 0.02726 0.08938 0.0
C287 C 0.13387 0.0401 0.08017 0.0
C288 C 0.1383 0.05726 0.06442 0.0
C289 C 0.11449 0.11962 0.99878 0.0
C290 C 0.1303 0.14173 0.06539 0.0
C291 C 0.12585 0.19265 0.99309 0.0
C292 C 0.12869 0.2071 0.97152 0.0
C293 C 0.11361 0.20711 0.9523 0.0
C294 C 0.1147 0.22213 0.93316 0.0
C295 C 0.13084 0.23763 0.93279 0.0
C296 C 0.14616 0.23733 0.95181 0.0
C297 C 0.14508 0.22231 0.97093 0.0
C298 C 0.17884 0.15195 1.03229 0.0
C299 C 0.16634 0.13124 0.97142 0.0
O300 O 0.17045 0.09696 0.04754 0.0
O301 O 0.15176 0.07973 1.02018 0.0
O302 O 0.12196 0.13121 1.01592 0.0
O303 O 0.12621 0.10281 0.99646 0.0
O304 O 0.13874 0.12334 0.0585 0.0
O305 O 0.12767 0.15773 0.04964 0.0
O306 O 0.11848 0.17354 0.98868 0.0
O307 O 0.14065 0.19252 1.01012 0.0
O308 O 0.16913 0.14063 1.01684 0.0
O309 O 0.16787 0.1693 0.03527 0.0
O310 O 0.15517 0.14879 0.97625 0.0
O311 O 0.16895 0.11633 0.98846 0.0
H312 H 0.19234 0.05288 0.06248 0.0
H313 H 0.18478 0.02328 0.09034 0.0
H314 H 0.11744 0.03652 0.08454 0.0
H315 H 0.12526 0.06661 0.05707 0.0
H316 H 0.10065 0.19576 0.95232 0.0
H317 H 0.10278 0.22164 0.91871 0.0
H318 H 0.15865 0.24917 0.95241 0.0
H319 H 0.15682 0.223 0.98558 0.0
Tb320 Tb 0.90706 0.89053 0.75979 0.0
Tb321 Tb 0.86082 0.90004 0.76951 0.0
C322 C 0.94054 0.87523 0.7408 0.0
C323 C 0.95486 0.87824 0.71915 0.0
C324 C 0.95765 0.86155 0.70209 0.0
C325 C 0.97243 0.86324 0.68271 0.0
C326 C 0.98491 0.88168 0.67995 0.0
C327 C 0.98181 0.89853 0.69686 0.0
C328 C 0.96698 0.89685 0.71617 0.0
C329 C 0.89988 0.92845 0.77991 0.0
C330 C 0.87958 0.91564 0.71888 0.0
C331 C 0.82556 0.91335 0.78561 0.0
C332 C 0.80838 0.90771 0.80309 0.0
C333 C 0.81248 0.90024 0.82713 0.0
C334 C 0.79558 0.89607 0.84344 0.0
C335 C 0.77432 0.8993 0.83598 0.0
C336 C 0.77042 0.90628 0.81166 0.0
C337 C 0.78724 0.91047 0.79547 0.0
C338 C 0.86808 0.86377 0.74634 0.0
C339 C 0.88932 0.88019 0.81295 0.0
O340 O 0.92145 0.86789 0.73635 0.0
O341 O 0.94041 0.88998 0.75795 0.0
O342 O 0.88853 0.91883 0.76437 0.0
O343 O 0.91714 0.91738 0.78299 0.0
O344 O 0.89693 0.90428 0.72383 0.0
O345 O 0.86467 0.91863 0.73588 0.0
O346 O 0.84396 0.91917 0.79477 0.0
O347 O 0.8276 0.90109 0.76617 0.0
O348 O 0.87919 0.87145 0.76371 0.0
O349 O 0.85137 0.87549 0.7434 0.0
O350 O 0.87106 0.8888 0.80595 0.0
O351 O 0.90534 0.87723 0.79727 0.0
H352 H 0.9486 0.84697 0.70399 0.0
H353 H 0.9741 0.85004 0.66994 0.0
H354 H 0.9913 0.91285 0.69568 0.0
H355 H 0.96539 0.90998 0.72906 0.0
H356 H 0.82867 0.89792 0.83343 0.0
H357 H 0.79919 0.89087 0.86208 0.0
H358 H 0.7543 0.90856 0.80509 0.0
H359 H 0.78372 0.9161 0.77696 0.0
Tb360 Tb 0.87745 0.15957 0.51195 0.0
Tb361 Tb 0.86688 0.11322 0.51977 0.0
C362 C 0.89339 0.19313 0.49422 0.0
C363 C 0.89106 0.20778 0.47282 0.0
C364 C 0.90848 0.21101 0.45693 0.0
C365 C 0.90748 0.22608 0.43788 0.0
C366 C 0.88904 0.23843 0.43425 0.0
C367 C 0.87141 0.23483 0.44984 0.0
C368 C 0.8724 0.21971 0.46891 0.0
C369 C 0.83922 0.15248 0.531 0.0
C370 C 0.85254 0.13323 0.46944 0.0
C371 C 0.85279 0.07823 0.53543 0.0
C372 C 0.85746 0.06214 0.55454 0.0
C373 C 0.84048 0.05185 0.5663 0.0
C374 C 0.84424 0.03522 0.58288 0.0
C375 C 0.86513 0.02839 0.58799 0.0
C376 C 0.8822 0.0392 0.57673 0.0
C377 C 0.87841 0.05594 0.56017 0.0
C378 C 0.90346 0.12021 0.4975 0.0
C379 C 0.88676 0.14037 0.5646 0.0
O380 O 0.90067 0.17401 0.48953 0.0
O381 O 0.87826 0.19296 0.51092 0.0
O382 O 0.84893 0.14149 0.51518 0.0
O383 O 0.85039 0.1695 0.53511 0.0
O384 O 0.8638 0.15043 0.47542 0.0
O385 O 0.84932 0.11775 0.48561 0.0
O386 O 0.84571 0.09673 0.54309 0.0
O387 O 0.86656 0.08001 0.51736 0.0
O388 O 0.89582 0.1311 0.51517 0.0
O389 O 0.89145 0.10387 0.49367 0.0
O390 O 0.87735 0.12281 0.55668 0.0
O391 O 0.89073 0.15653 0.54946 0.0
H392 H 0.92308 0.20209 0.45953 0.0
H393 H 0.92125 0.22812 0.42604 0.0
H394 H 0.85701 0.24416 0.44784 0.0
H395 H 0.85871 0.21772 0.48087 0.0
H396 H 0.82421 0.05645 0.5623 0.0
H397 H 0.83072 0.02764 0.59164 0.0
H398 H 0.89847 0.03434 0.58013 0.0
H399 H 0.89181 0.06369 0.55137 0.0
Tb400 Tb 0.60824 0.12806 0.2616 0.0
Tb401 Tb 0.6547 0.1186 0.27077 0.0
C402 C 0.57458 0.1442 0.24417 0.0
C403 C 0.55842 0.14191 0.22444 0.0
C404 C 0.56292 0.13244 0.20141 0.0
C405 C 0.54705 0.1311 0.1831 0.0
C406 C 0.52642 0.13916 0.18753 0.0
C407 C 0.52222 0.14878 0.21059 0.0
C408 C 0.53799 0.1501 0.22876 0.0
C409 C 0.6158 0.08989 0.28086 0.0
C410 C 0.63553 0.10314 0.22004 0.0
C411 C 0.6898 0.1051 0.28693 0.0
C412 C 0.70592 0.11013 0.30589 0.0
C413 C 0.71761 0.09345 0.31639 0.0
C414 C 0.73432 0.09767 0.33272 0.0
C415 C 0.73981 0.11875 0.33884 0.0
C416 C 0.72759 0.13548 0.32886 0.0
C417 C 0.71078 0.13121 0.31253 0.0
C418 C 0.64724 0.15478 0.24777 0.0
C419 C 0.62643 0.1381 0.31477 0.0
O420 O 0.59377 0.14997 0.23757 0.0
O421 O 0.5748 0.12975 0.26158 0.0
O422 O 0.627 0.09995 0.26561 0.0
O423 O 0.59827 0.10055 0.28393 0.0
O424 O 0.61798 0.11411 0.22549 0.0
O425 O 0.65086 0.10055 0.23661 0.0
O426 O 0.67135 0.0981 0.29474 0.0
O427 O 0.68793 0.11856 0.2686 0.0
O428 O 0.63617 0.14714 0.26528 0.0
O429 O 0.66396 0.14307 0.24463 0.0
O430 O 0.6447 0.12969 0.30743 0.0
O431 O 0.6103 0.14104 0.29931 0.0
H432 H 0.57861 0.12606 0.19761 0.0
H433 H 0.55084 0.12342 0.16567 0.0
H434 H 0.50671 0.15551 0.2146 0.0
H435 H 0.53422 0.15767 0.24628 0.0
H436 H 0.71406 0.07708 0.3116 0.0
H437 H 0.74301 0.08436 0.34047 0.0
H438 H 0.73138 0.15189 0.33308 0.0
H439 H 0.70192 0.14437 0.30467 0.0
Tb440 Tb 0.64318 0.85624 1.01257 0.0
Tb441 Tb 0.64775 0.90376 1.0202 0.0
C442 C 0.63216 0.81979 0.99745 0.0
C443 C 0.63035 0.80724 0.97432 0.0
C444 C 0.61604 0.79015 0.97338 0.0
C445 C 0.61562 0.77647 0.95286 0.0
C446 C 0.62956 0.77956 0.93274 0.0
C447 C 0.64329 0.7973 0.93334 0.0
C448 C 0.6437 0.81096 0.95392 0.0
C449 C 0.67992 0.86865 1.03171 0.0
C450 C 0.66282 0.88523 0.96927 0.0
C451 C 0.6589 0.93998 0.03539 0.0
C452 C 0.65434 0.95588 0.05492 0.0
C453 C 0.67146 0.96514 0.06756 0.0
C454 C 0.66806 0.98178 0.08432 0.0
C455 C 0.64743 0.98968 0.08875 0.0
C456 C 0.63017 0.97991 0.07664 0.0
C457 C 0.63359 0.96318 0.05985 0.0
C458 C 0.61268 0.89228 0.99762 0.0
C459 C 0.63214 0.87436 0.06542 0.0
O460 O 0.61885 0.83562 1.00057 0.0
O461 O 0.6514 0.82461 1.00475 0.0
O462 O 0.66911 0.87788 1.01538 0.0
O463 O 0.67043 0.85092 0.03722 0.0
O464 O 0.65283 0.86727 0.97518 0.0
O465 O 0.66512 0.90078 0.98561 0.0
O466 O 0.66822 0.92226 0.04223 0.0
O467 O 0.64429 0.93686 1.01852 0.0
O468 O 0.62151 0.88232 1.0152 0.0
O469 O 0.6219 0.91049 0.99469 0.0
O470 O 0.63752 0.89345 0.05714 0.0
O471 O 0.6319 0.85732 0.05089 0.0
H472 H 0.60564 0.78693 0.98895 0.0
H473 H 0.60501 0.76292 0.95331 0.0
H474 H 0.65403 0.80043 0.91808 0.0
H475 H 0.65484 0.82405 0.9542 0.0
H476 H 0.68759 0.95979 0.06408 0.0
H477 H 0.68169 0.98856 0.0937 0.0
H478 H 0.61409 0.98562 0.07951 0.0
H479 H 0.62007 0.95633 0.05034 0.0
Tb480 Tb 0.90955 0.12774 0.80443 0.0
Tb481 Tb 0.86307 0.11739 0.79629 0.0
C482 C 0.94321 0.14401 0.82169 0.0
C483 C 0.95972 0.14142 0.84104 0.0
C484 C 0.95545 0.13218 0.86423 0.0
C485 C 0.97149 0.13087 0.88234 0.0
C486 C 0.99212 0.13875 0.87761 0.0
C487 C 0.99614 0.14805 0.85436 0.0
C488 C 0.98018 0.14932 0.83637 0.0
C489 C 0.90234 0.08923 0.78587 0.0
C490 C 0.8829 0.10316 0.84687 0.0
C491 C 0.82803 0.10361 0.78027 0.0
C492 C 0.81199 0.10856 0.76111 0.0
C493 C 0.80108 0.09177 0.74972 0.0
C494 C 0.78454 0.09585 0.73308 0.0
C495 C 0.7784 0.11688 0.72752 0.0
C496 C 0.78983 0.13373 0.73843 0.0
C497 C 0.80648 0.12961 0.75506 0.0
C498 C 0.87015 0.15418 0.81817 0.0
C499 C 0.89044 0.13701 0.75164 0.0
O500 O 0.92401 0.14926 0.82891 0.0
O501 O 0.94298 0.13011 0.80363 0.0
O502 O 0.89123 0.09931 0.80125 0.0
O503 O 0.91964 0.10006 0.78225 0.0
O504 O 0.90019 0.11428 0.8409 0.0
O505 O 0.86744 0.09998 0.83064 0.0
O506 O 0.84652 0.0965 0.77265 0.0
O507 O 0.82983 0.1172 0.79853 0.0
O508 O 0.88119 0.14628 0.80077 0.0
O509 O 0.85363 0.14236 0.82181 0.0
O510 O 0.87294 0.12743 0.75939 0.0
O511 O 0.90641 0.14123 0.76697 0.0
H512 H 0.93975 0.12603 0.86834 0.0
H513 H 0.96781 0.12342 0.8999 0.0
H514 H 0.01162 0.15464 0.85008 0.0
H515 H 0.98381 0.15673 0.81875 0.0
H516 H 0.80512 0.07541 0.75403 0.0
H517 H 0.77649 0.08246 0.72464 0.0
H518 H 0.78554 0.15011 0.7347 0.0
H519 H 0.81471 0.14286 0.76357 0.0
Tb520 Tb 0.64038 0.15937 0.55472 0.0
Tb521 Tb 0.65094 0.11311 0.54538 0.0
C522 C 0.62307 0.19254 0.57197 0.0
C523 C 0.62463 0.20857 0.59189 0.0
C524 C 0.63697 0.20536 0.61324 0.0
C525 C 0.63793 0.22117 0.63167 0.0
C526 C 0.62664 0.24045 0.62896 0.0
C527 C 0.61409 0.24329 0.60765 0.0
C528 C 0.61314 0.22756 0.58937 0.0
C529 C 0.67866 0.15272 0.53543 0.0
C530 C 0.66579 0.13267 0.59619 0.0
C531 C 0.66533 0.07812 0.52988 0.0
C532 C 0.66006 0.06088 0.51241 0.0
C533 C 0.65132 0.06487 0.48894 0.0
C534 C 0.64722 0.04797 0.47265 0.0
C535 C 0.65178 0.02683 0.47958 0.0
C536 C 0.66005 0.023 0.50335 0.0
C537 C 0.66418 0.03984 0.51952 0.0
C538 C 0.61423 0.1198 0.56772 0.0
C539 C 0.6311 0.14091 0.50136 0.0
O540 O 0.61771 0.1732 0.57837 0.0
O541 O 0.6379 0.19274 0.55495 0.0
O542 O 0.66889 0.14125 0.55066 0.0
O543 O 0.66765 0.17003 0.53246 0.0
O544 O 0.65441 0.14998 0.5909 0.0
O545 O 0.66888 0.11755 0.57944 0.0
O546 O 0.67082 0.0966 0.52065 0.0
O547 O 0.65282 0.07997 0.54913 0.0
O548 O 0.62203 0.13105 0.55054 0.0
O549 O 0.62609 0.10321 0.57085 0.0
O550 O 0.63993 0.12283 0.50861 0.0
O551 O 0.62769 0.15694 0.51693 0.0
H552 H 0.64593 0.19076 0.61557 0.0
H553 H 0.64788 0.2185 0.64773 0.0
H554 H 0.60491 0.25772 0.60508 0.0
H555 H 0.60338 0.23028 0.57314 0.0
H556 H 0.64792 0.081 0.48308 0.0
H557 H 0.64101 0.05151 0.45441 0.0
H558 H 0.66339 1.00693 0.50949 0.0
H559 H 0.67077 0.03642 0.53763 0.0
Tb560 Tb 0.61099 0.8911 0.30479 0.0
Tb561 Tb 0.65721 0.9005 0.29452 0.0
C562 C 0.57759 0.87589 0.32397 0.0
C563 C 0.56303 0.87882 0.34547 0.0
C564 C 0.56097 0.86247 0.36306 0.0
C565 C 0.54592 0.8639 0.38219 0.0
C566 C 0.5324 0.88172 0.38419 0.0
C567 C 0.53475 0.89825 0.36676 0.0
C568 C 0.54984 0.89683 0.34767 0.0
C569 C 0.61804 0.92906 0.28479 0.0
C570 C 0.63885 0.91609 0.34542 0.0
C571 C 0.69228 0.91371 0.27793 0.0
C572 C 0.70954 0.90767 0.26066 0.0
C573 C 0.70559 0.90066 0.23636 0.0
C574 C 0.72259 0.89626 0.22025 0.0
C575 C 0.74382 0.89878 0.22813 0.0
C576 C 0.74757 0.90526 0.25268 0.0
C577 C 0.73065 0.90969 0.26868 0.0
C578 C 0.65023 0.86412 0.31738 0.0
C579 C 0.62847 0.88042 0.2515 0.0
O580 O 0.59676 0.86879 0.32862 0.0
O581 O 0.57762 0.89047 0.30668 0.0
O582 O 0.62951 0.91931 0.30009 0.0
O583 O 0.60071 0.91811 0.28195 0.0
O584 O 0.62153 0.90464 0.34072 0.0
O585 O 0.65351 0.91916 0.32817 0.0
O586 O 0.67378 0.91909 0.26859 0.0
O587 O 0.69041 0.90208 0.29786 0.0
O588 O 0.63886 0.87198 0.30035 0.0
O589 O 0.66704 0.87568 0.32004 0.0
O590 O 0.6467 0.88917 0.25825 0.0
O591 O 0.61257 0.87753 0.26735 0.0
H592 H 0.5708 0.84831 0.36175 0.0
H593 H 0.54484 0.85098 0.39538 0.0
H594 H 0.52446 0.91209 0.36736 0.0
H595 H 0.5508 0.90965 0.33434 0.0
H596 H 0.68943 0.89891 0.22971 0.0
H597 H 0.71908 0.89145 0.20142 0.0
H598 H 0.76365 0.90699 0.25957 0.0
H599 H 0.73408 0.91498 0.28737 0.0
Tb600 Tb 0.87671 0.85687 0.052 0.0
Tb601 Tb 0.87204 0.90432 0.04547 0.0
C602 C 0.88792 0.82077 0.06785 0.0
C603 C 0.88692 0.80805 0.09107 0.0
C604 C 0.90469 0.80657 0.10683 0.0
C605 C 0.9044 0.79306 0.12751 0.0
C606 C 0.88635 0.78066 0.13292 0.0
C607 C 0.86852 0.7824 0.11727 0.0
C608 C 0.86881 0.79585 0.09666 0.0
C609 C 0.83977 0.86936 0.03348 0.0
C610 C 0.85647 0.88519 0.0959 0.0
C611 C 0.86119 0.94093 1.03132 0.0
C612 C 0.86558 0.95688 1.0119 0.0
C613 C 0.84835 0.96702 1.00041 0.0
C614 C 0.85173 0.98372 0.98382 0.0
C615 C 0.87247 0.99077 0.97841 0.0
C616 C 0.88979 0.98012 0.98936 0.0
C617 C 0.88639 0.96333 1.00597 0.0
C618 C 0.90725 0.89232 0.06744 0.0
C619 C 0.88748 0.87541 0.99951 0.0
O620 O 0.90044 0.83741 0.06758 0.0
O621 O 0.86998 0.82442 0.05632 0.0
O622 O 0.85063 0.87849 0.04986 0.0
O623 O 0.84929 0.85168 1.02764 0.0
O624 O 0.86593 0.86707 0.08936 0.0
O625 O 0.85477 0.90122 0.08014 0.0
O626 O 0.85135 0.92351 1.02453 0.0
O627 O 0.87621 0.9373 0.04755 0.0
O628 O 0.89837 0.88282 0.04957 0.0
O629 O 0.89788 0.91035 0.07132 0.0
O630 O 0.88156 0.89432 1.00804 0.0
O631 O 0.88851 0.85839 1.01395 0.0
H632 H 0.91899 0.81557 0.10293 0.0
H633 H 0.91836 0.79227 0.1392 0.0
H634 H 0.85447 0.77282 0.12046 0.0
H635 H 0.85494 0.79627 0.08478 0.0
H636 H 0.83218 0.96231 1.00469 0.0
H637 H 0.83803 0.9912 0.97533 0.0
H638 H 0.90596 0.98516 0.9857 0.0
H639 H 0.89999 0.95576 1.01457 0.0
Tb640 Tb 0.65504 0.61784 0.79415 0.0
Tb641 Tb 0.60852 0.62667 0.80309 0.0
C642 C 0.69019 0.60428 0.77809 0.0
C643 C 0.70638 0.60911 0.75911 0.0
C644 C 0.71831 0.59235 0.74905 0.0
C645 C 0.73518 0.59644 0.73287 0.0
C646 C 0.74059 0.61746 0.72644 0.0
C647 C 0.72812 0.63425 0.73595 0.0
C648 C 0.71116 0.63012 0.75215 0.0
C649 C 0.64726 0.65411 0.81667 0.0
C650 C 0.62651 0.63644 0.74983 0.0
C651 C 0.57405 0.64173 0.81995 0.0
C652 C 0.56007 0.64094 0.84194 0.0
C653 C 0.54323 0.65551 0.84383 0.0
C654 C 0.52896 0.65461 0.86372 0.0
C655 C 0.53121 0.63908 0.88232 0.0
C656 C 0.54848 0.62475 0.88062 0.0
C657 C 0.56275 0.62566 0.86061 0.0
C658 C 0.6171 0.58865 0.784 0.0
C659 C 0.6363 0.60334 0.84531 0.0
O660 O 0.67177 0.59713 0.77036 0.0
O661 O 0.68825 0.61796 0.79623 0.0
O662 O 0.63616 0.64619 0.79937 0.0
O663 O 0.66417 0.6427 0.81977 0.0
O664 O 0.645 0.62872 0.75741 0.0
O665 O 0.6101 0.63884 0.76508 0.0
O666 O 0.59258 0.65087 0.82268 0.0
O667 O 0.5753 0.62447 0.80646 0.0
O668 O 0.62763 0.59881 0.79979 0.0
O669 O 0.59995 0.59949 0.77938 0.0
O670 O 0.61869 0.61412 0.83972 0.0
O671 O 0.65156 0.60046 0.82869 0.0
H672 H 0.71484 0.57603 0.75412 0.0
H673 H 0.74408 0.58308 0.72548 0.0
H674 H 0.73185 0.65062 0.73148 0.0
H675 H 0.70212 0.64333 0.75968 0.0
H676 H 0.54086 0.66741 0.82958 0.0
H677 H 0.51575 0.66569 0.86405 0.0
H678 H 0.55094 0.61273 0.89469 0.0
H679 H 0.57569 0.61429 0.85953 0.0
Tb680 Tb 0.65129 0.40609 0.04542 0.0
Tb681 Tb 0.64064 0.35962 0.05434 0.0
C682 C 0.66554 0.44074 1.02883 0.0
C683 C 0.66067 0.45681 1.0097 0.0
C684 C 0.6775 0.46778 0.99847 0.0
C685 C 0.67348 0.48438 0.98189 0.0
C686 C 0.65247 0.4905 0.97622 0.0
C687 C 0.63559 0.47901 0.98696 0.0
C688 C 0.63964 0.46231 1.00354 0.0
C689 C 0.61464 0.39957 0.06771 0.0
C690 C 0.6314 0.37826 1.00121 0.0
C691 C 0.62428 0.32607 0.07193 0.0
C692 C 0.62603 0.31106 0.09296 0.0
C693 C 0.61131 0.29439 0.09485 0.0
C694 C 0.61268 0.27952 0.1141 0.0
C695 C 0.62884 0.28095 0.13208 0.0
C696 C 0.64346 0.29794 0.13026 0.0
C697 C 0.64208 0.31281 0.11089 0.0
C698 C 0.67891 0.36665 0.03515 0.0
C699 C 0.66552 0.38671 0.09624 0.0
O700 O 0.67211 0.42206 1.02117 0.0
O701 O 0.65218 0.43934 0.04736 0.0
O702 O 0.62239 0.38815 0.05053 0.0
O703 O 0.62651 0.41613 0.07083 0.0
O704 O 0.64069 0.39597 1.00882 0.0
O705 O 0.62753 0.36222 1.01661 0.0
O706 O 0.61746 0.34529 0.07692 0.0
O707 O 0.6399 0.32619 0.05589 0.0
O708 O 0.66904 0.37779 0.05068 0.0
O709 O 0.66791 0.34944 1.03156 0.0
O710 O 0.65412 0.36948 0.0907 0.0
O711 O 0.66886 0.40187 0.07966 0.0
H712 H 0.69383 0.46374 1.00288 0.0
H713 H 0.68689 0.49247 0.97358 0.0
H714 H 0.61922 0.4833 0.98314 0.0
H715 H 0.62636 0.45404 1.01194 0.0
H716 H 0.59881 0.2927 0.08119 0.0
H717 H 0.60134 0.26658 0.11446 0.0
H718 H 0.65598 0.2998 0.14384 0.0
H719 H 0.65359 0.32558 0.10983 0.0
Tb720 Tb 0.8627 0.39869 0.29698 0.0
Tb721 Tb 0.90986 0.39145 0.30233 0.0
C722 C 0.8261 0.41003 0.2832 0.0
C723 C 0.81042 0.40581 0.26339 0.0
C724 C 0.80052 0.42308 0.25168 0.0
C725 C 0.78413 0.41976 0.23464 0.0
C726 C 0.77711 0.39904 0.229 0.0
C727 C 0.78751 0.38169 0.24022 0.0
C728 C 0.804 0.38503 0.25724 0.0
C729 C 0.8734 0.36232 0.31734 0.0
C730 C 0.89016 0.38239 0.25014 0.0
C731 C 0.94513 0.37808 0.31845 0.0
C732 C 0.95898 0.38058 0.34063 0.0
C733 C 0.96015 0.36431 0.35847 0.0
C734 C 0.97439 0.36574 0.3784 0.0
C735 C 0.9879 0.38345 0.38097 0.0
C736 C 0.98653 0.39981 0.36321 0.0
C737 C 0.97232 0.39838 0.34333 0.0
C738 C 0.89915 0.4292 0.28449 0.0
C739 C 0.88301 0.41343 0.34691 0.0
O740 O 0.84353 0.42012 0.27696 0.0
O741 O 0.8297 0.39471 0.29904 0.0
O742 O 0.8829 0.37119 0.29951 0.0
O743 O 0.85646 0.37294 0.32298 0.0
O744 O 0.87224 0.39053 0.25906 0.0
O745 O 0.90684 0.37879 0.26461 0.0
O746 O 0.9271 0.36798 0.32149 0.0
O747 O 0.9431 0.39445 0.30365 0.0
O748 O 0.88971 0.41871 0.30096 0.0
O749 O 0.91634 0.41891 0.27841 0.0
O750 O 0.90083 0.40368 0.33967 0.0
O751 O 0.86664 0.41553 0.33173 0.0
H752 H 0.8052 0.43924 0.2561 0.0
H753 H 0.77685 0.4335 0.22598 0.0
H754 H 0.78249 0.36553 0.23645 0.0
H755 H 0.81136 0.37138 0.26598 0.0
H756 H 0.95025 0.35028 0.35684 0.0
H757 H 0.97482 0.35292 0.39178 0.0
H758 H 0.9969 0.41352 0.36423 0.0
H759 H 0.97212 0.4111 0.32981 0.0
Tb760 Tb 0.86862 0.61158 0.54652 0.0
Tb761 Tb 0.87778 0.6583 0.5536 0.0
C762 C 0.85556 0.57596 0.53134 0.0
C763 C 0.86015 0.5601 0.5118 0.0
C764 C 0.84339 0.54785 0.50239 0.0
C765 C 0.84738 0.53131 0.48563 0.0
C766 C 0.86829 0.52654 0.47797 0.0
C767 C 0.88503 0.53933 0.48687 0.0
C768 C 0.88099 0.55596 0.50362 0.0
C769 C 0.90501 0.61977 0.56838 0.0
C770 C 0.88704 0.63893 0.50098 0.0
C771 C 0.89279 0.69298 0.56982 0.0
C772 C 0.89106 0.70782 0.59106 0.0
C773 C 0.90554 0.7247 0.5929 0.0
C774 C 0.90402 0.73952 0.61224 0.0
C775 C 0.88795 0.73781 0.63035 0.0
C776 C 0.87361 0.72058 0.62861 0.0
C777 C 0.87515 0.70576 0.60915 0.0
C778 C 0.83952 0.64945 0.5354 0.0
C779 C 0.85452 0.63156 0.59705 0.0
O780 O 0.84724 0.59412 0.52439 0.0
O781 O 0.87005 0.57837 0.54848 0.0
O782 O 0.89711 0.63038 0.55065 0.0
O783 O 0.89343 0.60316 0.57244 0.0
O784 O 0.87829 0.62117 0.50928 0.0
O785 O 0.89068 0.65536 0.51587 0.0
O786 O 0.90122 0.67431 0.57417 0.0
O787 O 0.87638 0.6917 0.55502 0.0
O788 O 0.84981 0.63931 0.5514 0.0
O789 O 0.85031 0.66647 0.53009 0.0
O790 O 0.86513 0.64905 0.59059 0.0
O791 O 0.85159 0.61578 0.58116 0.0
H792 H 0.82719 0.55081 0.50838 0.0
H793 H 0.83403 0.52219 0.47877 0.0
H794 H 0.90132 0.53611 0.48149 0.0
H795 H 0.89421 0.56524 0.5106 0.0
H796 H 0.91792 0.72663 0.5791 0.0
H797 H 0.91513 0.75266 0.61257 0.0
H798 H 0.86118 0.7185 0.6423 0.0
H799 H 0.86383 0.69283 0.60812 0.0
Tb800 Tb 0.65587 0.40039 0.76878 0.0
Tb801 Tb 0.60946 0.38958 0.761 0.0
C802 C 0.69061 0.41509 0.7844 0.0
C803 C 0.70675 0.41031 0.80342 0.0
C804 C 0.71831 0.4271 0.81385 0.0
C805 C 0.73495 0.42302 0.83034 0.0
C806 C 0.7405 0.40199 0.83666 0.0
C807 C 0.72841 0.38518 0.82669 0.0
C808 C 0.71167 0.3893 0.81024 0.0
C809 C 0.64924 0.36331 0.74768 0.0
C810 C 0.62859 0.38124 0.81396 0.0
C811 C 0.57561 0.37318 0.7444 0.0
C812 C 0.56085 0.3746 0.72315 0.0
C813 C 0.54475 0.35933 0.72071 0.0
C814 C 0.52999 0.36055 0.70134 0.0
C815 C 0.531 0.37711 0.68383 0.0
C816 C 0.5475 0.39222 0.68611 0.0
C817 C 0.56225 0.39099 0.70559 0.0
C818 C 0.61686 0.42829 0.77882 0.0
C819 C 0.63604 0.41334 0.71777 0.0
O820 O 0.672 0.42177 0.79219 0.0
O821 O 0.68904 0.40146 0.76615 0.0
O822 O 0.63799 0.37138 0.76478 0.0
O823 O 0.66579 0.37508 0.74406 0.0
O824 O 0.64617 0.39053 0.8059 0.0
O825 O 0.61247 0.37699 0.79886 0.0
O826 O 0.59467 0.36572 0.73986 0.0
O827 O 0.57605 0.38938 0.75963 0.0
O828 O 0.62757 0.41809 0.7632 0.0
O829 O 0.59999 0.41717 0.78381 0.0
O830 O 0.61882 0.4022 0.72401 0.0
O831 O 0.65143 0.41697 0.73395 0.0
H832 H 0.7147 0.44343 0.80892 0.0
H833 H 0.74352 0.4364 0.83808 0.0
H834 H 0.73226 0.3688 0.83103 0.0
H835 H 0.7029 0.37607 0.80245 0.0
H836 H 0.54336 0.34656 0.73408 0.0
H837 H 0.51741 0.34882 0.70057 0.0
H838 H 0.54902 0.40505 0.67287 0.0
H839 H 0.57459 0.40291 0.70709 0.0
Tb840 Tb 0.86734 0.40688 1.0183 0.0
Tb841 Tb 0.87766 0.36046 1.01 0.0
C842 C 0.85383 0.44226 0.03386 0.0
C843 C 0.85976 0.45944 0.0513 0.0
C844 C 0.86376 0.45556 0.07651 0.0
C845 C 0.86847 0.47245 0.09259 0.0
C846 C 0.86911 0.49355 0.08383 0.0
C847 C 0.86538 0.49727 0.05853 0.0
C848 C 0.86075 0.48042 0.0425 0.0
C849 C 0.90393 0.39975 0.99591 0.0
C850 C 0.88736 0.37947 0.06276 0.0
C851 C 0.89327 0.3268 0.99174 0.0
C852 C 0.89042 0.3121 0.97037 0.0
C853 C 0.90707 0.30941 0.95322 0.0
C854 C 0.90554 0.29438 0.93406 0.0
C855 C 0.88732 0.28154 0.9316 0.0
C856 C 0.87053 0.2845 0.94862 0.0
C857 C 0.87204 0.29957 0.96772 0.0
C858 C 0.83953 0.36777 1.02952 0.0
C859 C 0.85251 0.38705 0.96805 0.0
O860 O 0.84786 0.42391 0.04304 0.0
O861 O 0.86603 0.44005 1.01439 0.0
O862 O 0.89624 0.38873 1.01336 0.0
O863 O 0.89206 0.41628 0.99249 0.0
O864 O 0.87801 0.39716 0.05507 0.0
O865 O 0.89112 0.36329 0.04747 0.0
O866 O 0.9004 0.3459 0.98687 0.0
O867 O 0.87855 0.32706 1.00893 0.0
O868 O 0.84919 0.37874 1.01369 0.0
O869 O 0.85068 0.35065 0.03327 0.0
O870 O 0.86396 0.36988 0.97364 0.0
O871 O 0.84918 0.40228 0.98457 0.0
H872 H 0.86293 0.43957 0.08387 0.0
H873 H 0.87102 0.46904 0.11202 0.0
H874 H 0.86601 0.51325 0.05108 0.0
H875 H 0.85771 0.48383 1.02316 0.0
H876 H 0.92149 0.31874 0.95486 0.0
H877 H 0.91869 0.29283 0.92121 0.0
H878 H 0.85637 0.27475 0.94766 0.0
H879 H 0.85896 0.30107 0.98069 0.0
Tb880 Tb 0.86297 0.61822 0.26765 0.0
Tb881 Tb 0.90966 0.62765 0.26058 0.0
C882 C 0.82761 0.60472 0.28297 0.0
C883 C 0.81218 0.60904 0.30304 0.0
C884 C 0.80224 0.59187 0.31483 0.0
C885 C 0.78645 0.59538 0.33265 0.0
C886 C 0.78017 0.61619 0.339 0.0
C887 C 0.7904 0.63343 0.32743 0.0
C888 C 0.80633 0.6299 0.30969 0.0
C889 C 0.87086 0.65508 0.24677 0.0
C890 C 0.8903 0.63628 0.31337 0.0
C891 C 0.94423 0.64293 0.24439 0.0
C892 C 0.95927 0.64113 0.22337 0.0
C893 C 0.9757 0.65609 0.22121 0.0
C894 C 0.99059 0.65467 0.20194 0.0
C895 C 0.98941 0.63823 0.18424 0.0
C896 C 0.97266 0.62337 0.18631 0.0
C897 C 0.95775 0.62481 0.20569 0.0
C898 C 0.9009 0.58929 0.27826 0.0
C899 C 0.88285 0.60483 0.2168 0.0
O900 O 0.84587 0.59628 0.28935 0.0
O901 O 0.82974 0.61943 0.26603 0.0
O902 O 0.88167 0.64686 0.26413 0.0
O903 O 0.85424 0.64354 0.24261 0.0
O904 O 0.87262 0.62741 0.30501 0.0
O905 O 0.90663 0.64029 0.29846 0.0
O906 O 0.92546 0.65093 0.23958 0.0
O907 O 0.9431 0.62677 0.25958 0.0
O908 O 0.89075 0.59969 0.2624 0.0
O909 O 0.918 0.59991 0.28359 0.0
O910 O 0.90041 0.61522 0.22347 0.0
O911 O 0.867 0.60184 0.23258 0.0
H912 H 0.80642 0.57566 0.30991 0.0
H913 H 0.77876 0.58173 0.34099 0.0
H914 H 0.78611 0.64965 0.33212 0.0
H915 H 0.81383 0.64347 0.30094 0.0
H916 H 0.97719 0.6688 0.23467 0.0
H917 H 1.00336 0.6662 0.20134 0.0
H918 H 0.971 0.61064 0.17293 0.0
H919 H 0.94516 0.61313 0.20696 0.0
Tb920 Tb 0.64912 0.61159 0.51885 0.0
Tb921 Tb 0.64135 0.65823 0.51021 0.0
C922 C 0.66145 0.57578 0.5342 0.0
C923 C 0.65561 0.55868 0.55166 0.0
C924 C 0.64917 0.56282 0.57614 0.0
C925 C 0.64489 0.54593 0.59238 0.0
C926 C 0.647 0.52464 0.58443 0.0
C927 C 0.6529 0.52071 0.5597 0.0
C928 C 0.65719 0.53753 0.54358 0.0
C929 C 0.61321 0.62018 0.49597 0.0
C930 C 0.63053 0.64027 0.56314 0.0
C931 C 0.62758 0.69275 0.49226 0.0
C932 C 0.63046 0.70703 0.47052 0.0
C933 C 0.6139 0.70944 0.45325 0.0
C934 C 0.6154 0.72434 0.434 0.0
C935 C 0.6335 0.73736 0.43156 0.0
C936 C 0.65022 0.73467 0.44867 0.0
C937 C 0.64873 0.71974 0.46786 0.0
C938 C 0.6791 0.64898 0.52963 0.0
C939 C 0.66501 0.63029 0.46826 0.0
O940 O 0.66815 0.59392 0.54333 0.0
O941 O 0.64884 0.57837 0.51521 0.0
O942 O 0.62114 0.63104 0.51347 0.0
O943 O 0.62434 0.60309 0.49288 0.0
O944 O 0.63827 0.62175 0.5556 0.0
O945 O 0.62828 0.65665 0.54786 0.0
O946 O 0.61874 0.6742 0.48828 0.0
O947 O 0.64305 0.69155 0.5084 0.0
O948 O 0.66888 0.6386 0.51375 0.0
O949 O 0.66856 0.66639 0.534 0.0
O950 O 0.6545 0.64808 0.4738 0.0
O951 O 0.66735 0.61498 0.48486 0.0
H952 H 0.64775 0.57903 0.58281 0.0
H953 H 0.64053 0.54954 0.61133 0.0
H954 H 0.6543 0.50459 0.55277 0.0
H955 H 0.66203 0.53397 0.52474 0.0
H956 H 0.59953 0.70003 0.45491 0.0
H957 H 0.60231 0.7257 0.42109 0.0
H958 H 0.66428 0.74457 0.44775 0.0
H959 H 0.66172 0.71854 0.48094 0.0
Tb960 Tb 0.40967 0.39092 0.26118 0.0
Tb961 Tb 0.3634 0.40131 0.27147 0.0
C962 C 0.44272 0.37396 0.24309 0.0
C963 C 0.45908 0.37617 0.22355 0.0
C964 C 0.45537 0.38723 0.20136 0.0
C965 C 0.47138 0.38849 0.18317 0.0
C966 C 0.49138 0.37876 0.18691 0.0
C967 C 0.49477 0.36756 0.20912 0.0
C968 C 0.47885 0.36632 0.22716 0.0
C969 C 0.4031 0.42926 0.28055 0.0
C970 C 0.38226 0.41634 0.22032 0.0
C971 C 0.32895 0.41608 0.28809 0.0
C972 C 0.31225 0.41101 0.30628 0.0
C973 C 0.29976 0.42759 0.31579 0.0
C974 C 0.28252 0.42324 0.33131 0.0
C975 C 0.27732 0.40214 0.33759 0.0
C976 C 0.29032 0.38553 0.32862 0.0
C977 C 0.30765 0.38993 0.31307 0.0
C978 C 0.36977 0.36473 0.24872 0.0
C979 C 0.39168 0.3811 0.31474 0.0
O980 O 0.42334 0.36927 0.23613 0.0
O981 O 0.44301 0.38784 0.26117 0.0
O982 O 0.39145 0.41931 0.26568 0.0
O983 O 0.42058 0.41842 0.28299 0.0
O984 O 0.39978 0.40518 0.22531 0.0
O985 O 0.36726 0.41917 0.23728 0.0
O986 O 0.34765 0.42144 0.29677 0.0
O987 O 0.3303 0.40347 0.26885 0.0
O988 O 0.38139 0.3725 0.26561 0.0
O989 O 0.35299 0.37648 0.24632 0.0
O990 O 0.37349 0.38989 0.30783 0.0
O991 O 0.40761 0.37794 0.29895 0.0
H992 H 0.44019 0.39492 0.19813 0.0
H993 H 0.46824 0.3974 0.16642 0.0
H994 H 0.50976 0.35955 0.21254 0.0
H995 H 0.48199 0.35753 0.24403 0.0
H996 H 0.30311 0.44395 0.31082 0.0
H997 H 0.27319 0.43645 0.33833 0.0
H998 H 0.28675 0.36911 0.33302 0.0
H999 H 0.31714 0.37688 0.30592 0.0
Tb1000 Tb 0.37827 0.65994 1.01062 0.0
Tb1001 Tb 0.36822 0.61348 1.01901 0.0
C1002 C 0.39372 0.69347 0.99208 0.0
C1003 C 0.3906 0.70823 0.97081 0.0
C1004 C 0.40684 0.71055 0.95309 0.0
C1005 C 0.40511 0.72562 0.93404 0.0
C1006 C 0.38709 0.7389 0.93225 0.0
C1007 C 0.3707 0.73631 0.94986 0.0
C1008 C 0.37241 0.7212 0.96885 0.0
C1009 C 0.33997 0.6526 1.02951 0.0
C1010 C 0.35372 0.63282 0.96842 0.0
C1011 C 0.35483 0.57845 0.03542 0.0
C1012 C 0.35966 0.56306 0.05533 0.0
C1013 C 0.34277 0.55369 0.06829 0.0
C1014 C 0.34664 0.53796 0.08602 0.0
C1015 C 0.36753 0.53118 0.09114 0.0
C1016 C 0.3845 0.54082 0.07837 0.0
C1017 C 0.38061 0.55668 0.0607 0.0
C1018 C 0.40463 0.62073 0.99654 0.0
C1019 C 0.38799 0.64122 0.06341 0.0
O1020 O 0.40071 0.67431 0.98703 0.0
O1021 O 0.37928 0.69334 1.00959 0.0
O1022 O 0.34996 0.64152 1.01401 0.0
O1023 O 0.35086 0.66985 0.03328 0.0
O1024 O 0.3647 0.65024 0.97428 0.0
O1025 O 0.35072 0.61738 0.98471 0.0
O1026 O 0.34698 0.5969 0.04217 0.0
O1027 O 0.36886 0.58021 1.01762 0.0
O1028 O 0.39694 0.63168 1.01414 0.0
O1029 O 0.39277 0.60424 0.99288 0.0
O1030 O 0.37871 0.62352 0.05572 0.0
O1031 O 0.39169 0.65736 0.04814 0.0
H1032 H 0.42111 0.70089 0.95418 0.0
H1033 H 0.41794 0.72687 0.92073 0.0
H1034 H 0.35671 0.74639 0.94944 0.0
H1035 H 0.35965 0.72001 0.98228 0.0
H1036 H 0.32649 0.55826 0.06436 0.0
H1037 H 0.33318 0.53073 0.09528 0.0
H1038 H 0.40078 0.53614 0.08209 0.0
H1039 H 0.39396 0.56373 0.05103 0.0
Tb1040 Tb 0.10936 0.62818 0.76057 0.0
Tb1041 Tb 0.15603 0.61993 0.76928 0.0
C1042 C 0.07473 0.64281 0.7438 0.0
C1043 C 0.06075 0.64181 0.72183 0.0
C1044 C 0.04422 0.65669 0.71956 0.0
C1045 C 0.02993 0.65561 0.69972 0.0
C1046 C 0.03185 0.63959 0.68158 0.0
C1047 C 0.04884 0.62496 0.68365 0.0
C1048 C 0.06312 0.62604 0.7036 0.0
C1049 C 0.11846 0.59033 0.77957 0.0
C1050 C 0.13737 0.60519 0.71816 0.0
C1051 C 0.19131 0.60672 0.78514 0.0
C1052 C 0.20727 0.61142 0.80439 0.0
C1053 C 0.21834 0.59448 0.81524 0.0
C1054 C 0.23501 0.59834 0.83173 0.0
C1055 C 0.24109 0.61929 0.83763 0.0
C1056 C 0.22948 0.6363 0.82732 0.0
C1057 C 0.2127 0.6324 0.81084 0.0
C1058 C 0.14775 0.65599 0.74669 0.0
C1059 C 0.1273 0.63833 0.81374 0.0
O1060 O 0.09316 0.65214 0.74099 0.0
O1061 O 0.07616 0.62562 0.75733 0.0
O1062 O 0.12888 0.6006 0.76378 0.0
O1063 O 0.10108 0.60085 0.78416 0.0
O1064 O 0.11962 0.61571 0.7239 0.0
O1065 O 0.15275 0.60257 0.73464 0.0
O1066 O 0.17299 0.59905 0.79251 0.0
O1067 O 0.18924 0.62072 0.76739 0.0
O1068 O 0.13682 0.64801 0.76411 0.0
O1069 O 0.1648 0.64476 0.74351 0.0
O1070 O 0.14587 0.63079 0.80607 0.0
O1071 O 0.11086 0.64051 0.79855 0.0
H1072 H 0.04209 0.66897 0.73346 0.0
H1073 H 0.01696 0.66696 0.69911 0.0
H1074 H 0.05105 0.61257 0.66993 0.0
H1075 H 0.0758 0.61443 0.70498 0.0
H1076 H 0.21435 0.57818 0.81057 0.0
H1077 H 0.24323 0.58485 0.83974 0.0
H1078 H 0.23375 0.65262 0.83137 0.0
H1079 H 0.20435 0.64576 0.80272 0.0
Tb1080 Tb 0.13985 0.36224 0.50959 0.0
Tb1081 Tb 0.15041 0.40862 0.51669 0.0
C1082 C 0.12364 0.32807 0.49349 0.0
C1083 C 0.12508 0.31306 0.47244 0.0
C1084 C 0.11021 0.29652 0.4707 0.0
C1085 C 0.11134 0.28166 0.45138 0.0
C1086 C 0.12739 0.283 0.43322 0.0
C1087 C 0.14211 0.29989 0.43485 0.0
C1088 C 0.14097 0.31476 0.45427 0.0
C1089 C 0.17858 0.36981 0.52706 0.0
C1090 C 0.16313 0.38846 0.46581 0.0
C1091 C 0.16464 0.44373 0.53197 0.0
C1092 C 0.16025 0.45963 0.55153 0.0
C1093 C 0.17733 0.47043 0.56245 0.0
C1094 C 0.17369 0.48685 0.57945 0.0
C1095 C 0.15281 0.49297 0.58585 0.0
C1096 C 0.13569 0.48166 0.57538 0.0
C1097 C 0.13937 0.46514 0.55842 0.0
C1098 C 0.11332 0.40153 0.49581 0.0
C1099 C 0.13166 0.38173 0.56232 0.0
O1100 O 0.11612 0.34704 0.4887 0.0
O1101 O 0.13986 0.32879 0.50862 0.0
O1102 O 0.16844 0.38042 0.51132 0.0
O1103 O 0.16738 0.3531 0.53244 0.0
O1104 O 0.1522 0.37123 0.47242 0.0
O1105 O 0.16678 0.40409 0.4817 0.0
O1106 O 0.17223 0.42528 0.53903 0.0
O1107 O 0.15036 0.44186 0.51451 0.0
O1108 O 0.12138 0.39065 0.51319 0.0
O1109 O 0.12518 0.41792 0.49164 0.0
O1110 O 0.141 0.39918 0.55402 0.0
O1111 O 0.12724 0.36554 0.54738 0.0
H1112 H 0.09781 0.29491 0.48454 0.0
H1113 H 0.09993 0.26877 0.45111 0.0
H1114 H 0.15455 0.30166 0.42111 0.0
H1115 H 0.15256 0.32746 0.45522 0.0
H1116 H 0.19356 0.46639 0.55749 0.0
H1117 H 0.18729 0.49481 0.58753 0.0
H1118 H 0.11942 0.48596 0.57973 0.0
H1119 H 0.12589 0.45699 0.55029 0.0
Tb1120 Tb 0.40902 0.62834 0.30358 0.0
Tb1121 Tb 0.36259 0.61791 0.29587 0.0
C1122 C 0.44275 0.64485 0.32036 0.0
C1123 C 0.45767 0.64322 0.34144 0.0
C1124 C 0.47491 0.6573 0.3427 0.0
C1125 C 0.48964 0.656 0.3621 0.0
C1126 C 0.48746 0.64055 0.3808 0.0
C1127 C 0.4699 0.6266 0.3796 0.0
C1128 C 0.45517 0.62791 0.36011 0.0
C1129 C 0.40181 0.59003 0.28465 0.0
C1130 C 0.38283 0.60345 0.3461 0.0
C1131 C 0.32693 0.60415 0.28168 0.0
C1132 C 0.30982 0.60885 0.26387 0.0
C1133 C 0.28946 0.60076 0.26849 0.0
C1134 C 0.27279 0.60462 0.25199 0.0
C1135 C 0.27614 0.61658 0.23031 0.0
C1136 C 0.29659 0.62503 0.22595 0.0
C1137 C 0.31327 0.62125 0.24265 0.0
C1138 C 0.36988 0.65461 0.3179 0.0
C1139 C 0.38989 0.63676 0.25064 0.0
O1140 O 0.42362 0.65194 0.32527 0.0
O1141 O 0.44245 0.62895 0.30471 0.0
O1142 O 0.39081 0.5998 0.30043 0.0
O1143 O 0.41884 0.60118 0.28053 0.0
O1144 O 0.39996 0.61486 0.34024 0.0
O1145 O 0.3675 0.60011 0.32977 0.0
O1146 O 0.34515 0.59744 0.27277 0.0
O1147 O 0.32938 0.61786 0.29965 0.0
O1148 O 0.38064 0.64683 0.30022 0.0
O1149 O 0.35356 0.64266 0.3219 0.0
O1150 O 0.37229 0.62748 0.25868 0.0
O1151 O 0.40591 0.64116 0.26583 0.0
H1152 H 0.47716 0.66923 0.32846 0.0
H1153 H 0.50305 0.66679 0.36202 0.0
H1154 H 0.46749 0.61465 0.39375 0.0
H1155 H 0.44193 0.61693 0.35954 0.0
H1156 H 0.28642 0.59136 0.28493 0.0
H1157 H 0.25723 0.59825 0.25632 0.0
H1158 H 0.29985 0.63417 0.2094 0.0
H1159 H 0.32882 0.62788 0.23893 0.0
Tb1160 Tb 0.14168 0.65922 0.05391 0.0
Tb1161 Tb 0.15076 0.6129 0.04326 0.0
C1162 C 0.12627 0.69305 0.07213 0.0
C1163 C 0.12723 0.70692 0.09424 0.0
C1164 C 0.11222 0.72332 0.09677 0.0
C1165 C 0.11332 0.73765 0.11661 0.0
C1166 C 0.12949 0.73591 0.13454 0.0
C1167 C 0.14425 0.71903 0.13223 0.0
C1168 C 0.14315 0.70472 0.11226 0.0
C1169 C 0.17927 0.65176 0.03317 0.0
C1170 C 0.16676 0.63093 0.09415 0.0
C1171 C 0.16407 0.57793 1.02633 0.0
C1172 C 0.15874 0.56148 1.00786 0.0
C1173 C 0.17519 0.54898 0.99803 0.0
C1174 C 0.17066 0.53192 0.98229 0.0
C1175 C 0.14951 0.5269 0.97606 0.0
C1176 C 0.13303 0.53991 0.98535 0.0
C1177 C 0.13761 0.55705 1.00115 0.0
C1178 C 0.11494 0.62015 0.06723 0.0
C1179 C 0.13114 0.64209 1.0003 0.0
O1180 O 0.11771 0.67424 0.07489 0.0
O1181 O 0.14316 0.69242 0.05798 0.0
O1182 O 0.16966 0.64043 0.04871 0.0
O1183 O 0.16832 0.66911 1.03024 0.0
O1184 O 0.15514 0.64828 0.08983 0.0
O1185 O 0.16967 0.61641 0.07666 0.0
O1186 O 0.17037 0.59645 1.018 0.0
O1187 O 0.15124 0.57968 0.04533 0.0
O1188 O 0.12244 0.63144 0.04987 0.0
O1189 O 0.12659 0.60332 0.06974 0.0
O1190 O 0.13907 0.6235 1.00717 0.0
O1191 O 0.1289 0.6582 1.01606 0.0
H1192 H 0.09984 0.72535 0.08302 0.0
H1193 H 0.10188 0.75053 0.11737 0.0
H1194 H 0.15676 0.71694 0.14578 0.0
H1195 H 0.15489 0.69216 0.11067 0.0
H1196 H 0.1916 0.55217 1.00293 0.0
H1197 H 0.18378 0.52259 0.97505 0.0
H1198 H 0.11657 0.53648 0.98101 0.0
H1199 H 0.12465 0.56652 1.00855 0.0
Tb1200 Tb 0.10721 0.39266 0.80205 0.0
Tb1201 Tb 0.1547 0.39897 0.79699 0.0
C1202 C 0.07097 0.38003 0.81611 0.0
C1203 C 0.05751 0.3797 0.83861 0.0
C1204 C 0.04025 0.36561 0.83979 0.0
C1205 C 0.02622 0.36604 0.85998 0.0
C1206 C 0.02911 0.38061 0.87953 0.0
C1207 C 0.04688 0.39429 0.8786 0.0
C1208 C 0.0609 0.39384 0.85834 0.0
C1209 C 0.11885 0.43016 0.78439 0.0
C1210 C 0.13416 0.41305 0.84709 0.0
C1211 C 0.19131 0.41035 0.78329 0.0
C1212 C 0.20714 0.40616 0.76352 0.0
C1213 C 0.21668 0.42345 0.75148 0.0
C1214 C 0.23311 0.42023 0.73437 0.0
C1215 C 0.24053 0.39957 0.72897 0.0
C1216 C 0.23052 0.38218 0.74055 0.0
C1217 C 0.214 0.38543 0.75764 0.0
C1218 C 0.14336 0.36303 0.81781 0.0
C1219 C 0.12734 0.3834 0.74991 0.0
O1220 O 0.08802 0.36805 0.81618 0.0
O1221 O 0.07455 0.39866 0.80617 0.0
O1222 O 0.12795 0.41947 0.80095 0.0
O1223 O 0.10172 0.4201 0.77779 0.0
O1224 O 0.11647 0.40316 0.83989 0.0
O1225 O 0.15045 0.41559 0.83182 0.0
O1226 O 0.17385 0.42036 0.77694 0.0
O1227 O 0.18773 0.39508 0.79921 0.0
O1228 O 0.134 0.37195 0.79988 0.0
O1229 O 0.16093 0.37289 0.82249 0.0
O1230 O 0.14553 0.39045 0.75917 0.0
O1231 O 0.11017 0.38092 0.76393 0.0
H1232 H 0.0373 0.35459 0.82474 0.0
H1233 H 0.01264 0.35545 0.85976 0.0
H1234 H 0.04986 0.40552 0.89341 0.0
H1235 H 0.07414 0.40482 0.85786 0.0
H1236 H 0.21167 0.43958 0.75567 0.0
H1237 H 0.24006 0.43399 0.72545 0.0
H1238 H 0.23585 0.36607 0.73698 0.0
H1239 H 0.20694 0.37175 0.76664 0.0
Tb1240 Tb 0.37642 0.35854 0.55424 0.0
Tb1241 Tb 0.36896 0.40523 0.546 0.0
C1242 C 0.3903 0.32351 0.57074 0.0
C1243 C 0.38999 0.30999 0.59313 0.0
C1244 C 0.40513 0.2937 0.59542 0.0
C1245 C 0.40443 0.27957 0.61542 0.0
C1246 C 0.38854 0.2814 0.63372 0.0
C1247 C 0.37371 0.29821 0.6317 0.0
C1248 C 0.37441 0.31233 0.61158 0.0
C1249 C 0.339 0.36816 0.53444 0.0
C1250 C 0.35322 0.38654 0.59654 0.0
C1251 C 0.35719 0.44106 0.53022 0.0
C1252 C 0.36201 0.45628 0.51016 0.0
C1253 C 0.3451 0.46653 0.49817 0.0
C1254 C 0.34901 0.48224 0.48045 0.0
C1255 C 0.36996 0.48813 0.47435 0.0
C1256 C 0.38695 0.4776 0.48612 0.0
C1257 C 0.38301 0.46176 0.50381 0.0
C1258 C 0.40425 0.39618 0.56979 0.0
C1259 C 0.38711 0.3765 0.50135 0.0
O1260 O 0.40079 0.34144 0.5721 0.0
O1261 O 0.37237 0.32563 0.55872 0.0
O1262 O 0.34903 0.37834 0.55068 0.0
O1263 O 0.34965 0.35091 0.52958 0.0
O1264 O 0.36388 0.36883 0.59091 0.0
O1265 O 0.35086 0.40199 0.5801 0.0
O1266 O 0.34801 0.42315 0.52388 0.0
O1267 O 0.37179 0.43838 0.54718 0.0
O1268 O 0.39674 0.38571 0.5517 0.0
O1269 O 0.39287 0.41308 0.57331 0.0
O1270 O 0.3799 0.39515 0.50919 0.0
O1271 O 0.38882 0.35989 0.51634 0.0
H1272 H 0.41726 0.29157 0.58134 0.0
H1273 H 0.41592 0.26672 0.61601 0.0
H1274 H 0.36141 0.30038 0.64554 0.0
H1275 H 0.36258 0.32482 0.61019 0.0
H1276 H 0.32879 0.46268 0.50289 0.0
H1277 H 0.33555 0.49018 0.47199 0.0
H1278 H 0.40326 0.48159 0.48164 0.0
H1279 H 0.39637 0.45404 0.51273 0.0
H1280 H 0.27725 0.09656 0.22528 0.0
H1281 H 0.24737 0.15317 0.19607 0.0
H1282 H 0.30642 0.10066 0.19606 0.0
H1283 H 0.27637 0.15684 0.16608 0.0
H1284 H 0.34073 0.16579 0.127 0.0
H1285 H 0.31524 0.16426 0.16141 0.0
H1286 H 0.31007 0.09622 0.15163 0.0
H1287 H 0.33548 0.0977 0.11779 0.0
C1288 C 0.27698 0.11002 0.21277 0.0
C1289 C 0.25991 0.12454 0.21307 0.0
C1290 C 0.29364 0.11225 0.19584 0.0
C1291 C 0.29372 0.12903 0.17866 0.0
C1292 C 0.2769 0.14384 0.17923 0.0
C1293 C 0.26014 0.14158 0.19619 0.0
C1294 C 0.33446 0.15049 0.13259 0.0
C1295 C 0.34011 0.13187 0.11966 0.0
C1296 C 0.31969 0.14964 0.1521 0.0
C1297 C 0.31053 0.13013 0.15921 0.0
C1298 C 0.31693 0.11148 0.14686 0.0
C1299 C 0.33147 0.11235 0.12735 0.0
H1300 H 0.17195 0.09032 0.36945 0.0
H1301 H 0.10349 0.0893 0.37591 0.0
H1302 H 0.17475 0.06371 0.4019 0.0
H1303 H 0.10623 0.06213 0.40823 0.0
H1304 H 0.12254 0.02312 0.4791 0.0
H1305 H 0.11807 0.05272 0.45013 0.0
H1306 H 0.1675 0.02622 0.40366 0.0
H1307 H 0.17204 0.99693 0.43258 0.0
C1308 C 0.15747 0.08459 0.37805 0.0
C1309 C 0.1375 0.09183 0.37 0.0
C1310 C 0.15907 0.06915 0.39651 0.0
C1311 C 0.14071 0.06037 0.4073 0.0
C1312 C 0.12071 0.06854 0.40033 0.0
C1313 C 0.11912 0.08417 0.38186 0.0
C1314 C 0.13229 0.02355 0.46256 0.0
C1315 C 0.14779 1.00776 0.45827 0.0
C1316 C 0.12975 0.04053 0.44598 0.0
C1317 C 0.14264 0.04207 0.42474 0.0
C1318 C 0.15769 0.02591 0.42017 0.0
C1319 C 0.16027 1.00904 0.43672 0.0
H1320 H 0.23794 0.92141 0.72881 0.0
H1321 H 0.27246 0.87203 0.69001 0.0
H1322 H 0.20777 0.91642 0.70116 0.0
H1323 H 0.24207 0.8669 0.66244 0.0
H1324 H 0.17795 0.85423 0.62559 0.0
H1325 H 0.20375 0.85566 0.65961 0.0
H1326 H 0.20222 0.92435 0.65704 0.0
H1327 H 0.17659 0.92292 0.62338 0.0
C1328 C 0.23912 0.90949 0.71437 0.0
C1329 C 0.2578 0.89736 0.71141 0.0
C1330 C 0.22176 0.90656 0.6986 0.0
C1331 C 0.22255 0.89135 0.67951 0.0
C1332 C 0.24086 0.87859 0.67715 0.0
C1333 C 0.25831 0.88157 0.69291 0.0
C1334 C 0.18275 0.8696 0.63276 0.0
C1335 C 0.17527 0.88847 0.62183 0.0
C1336 C 0.19769 0.87042 0.65203 0.0
C1337 C 0.20513 0.89011 0.66093 0.0
C1338 C 0.19671 0.90892 0.65081 0.0
C1339 C 0.18205 0.9081 0.63145 0.0
H1340 H 0.3456 0.93219 0.86641 0.0
H1341 H 0.41391 0.93009 0.87474 0.0
H1342 H 0.34314 0.95772 0.90017 0.0
H1343 H 0.41141 0.9558 0.90887 0.0
H1344 H 0.39644 0.02429 0.94097 0.0
H1345 H 0.40169 0.99463 0.91225 0.0
H1346 H 0.34838 0.96184 0.94512 0.0
H1347 H 0.34329 0.99122 0.97399 0.0
C1348 C 0.36009 0.93693 0.87575 0.0
C1349 C 0.37994 0.92913 0.86786 0.0
C1350 C 0.35866 0.95153 0.8952 0.0
C1351 C 0.37708 0.95888 0.90717 0.0
C1352 C 0.39695 0.95057 0.89986 0.0
C1353 C 0.39836 0.9357 0.88049 0.0
C1354 C 0.38605 0.01062 0.94235 0.0
C1355 C 0.36925 0.01033 0.95963 0.0
C1356 C 0.38909 0.99359 0.9259 0.0
C1357 C 0.37537 0.97592 0.9263 0.0
C1358 C 0.35902 0.97536 0.94406 0.0
C1359 C 0.35604 0.99228 0.96054 0.0
H1360 H 0.34032 0.85489 0.43873 0.0
H1361 H 0.3384 0.92325 0.44684 0.0
H1362 H 0.3147 0.85725 0.40467 0.0
H1363 H 0.31287 0.92559 0.41313 0.0
H1364 H 0.27905 0.92472 0.33937 0.0
H1365 H 0.30841 0.92014 0.36827 0.0
H1366 H 0.27599 0.86685 0.40163 0.0
H1367 H 0.24636 0.8716 0.37294 0.0
C1368 C 0.3348 0.87043 0.43292 0.0
C1369 C 0.34139 0.88888 0.44549 0.0
C1370 C 0.31995 0.87176 0.41361 0.0
C1371 C 0.31165 0.8916 0.40628 0.0
C1372 C 0.31906 0.91008 0.41813 0.0
C1373 C 0.33366 0.90873 0.43754 0.0
C1374 C 0.27805 0.9121 0.35296 0.0
C1375 C 0.26013 0.89871 0.35397 0.0
C1376 C 0.29497 0.90941 0.36945 0.0
C1377 C 0.29453 0.89318 0.38731 0.0
C1378 C 0.27695 0.87935 0.38789 0.0
C1379 C 0.25994 0.88211 0.37144 0.0
H1380 H 0.34786 0.0294 0.58924 0.0
H1381 H 0.39907 0.9952 0.6248 0.0
H1382 H 0.35295 0.05906 0.61769 0.0
H1383 H 0.40429 0.0251 0.65317 0.0
H1384 H 0.41682 0.08915 0.69097 0.0
H1385 H 0.41488 0.06349 0.65678 0.0
H1386 H 0.3463 0.06395 0.66209 0.0
H1387 H 0.34824 0.0895 0.69585 0.0
C1388 C 0.36019 0.02816 0.60316 0.0
C1389 C 0.37283 0.00972 0.60493 0.0
C1390 C 0.36317 0.04524 0.6194 0.0
C1391 C 0.37894 0.04441 0.6378 0.0
C1392 C 0.39215 0.02634 0.63902 0.0
C1393 C 0.38912 1.00918 0.62279 0.0
C1394 C 0.40135 0.08414 0.6844 0.0
C1395 C 0.38268 0.09136 0.69609 0.0
C1396 C 0.40024 0.06926 0.66502 0.0
C1397 C 0.38044 0.06159 0.65677 0.0
C1398 C 0.3618 0.06965 0.66777 0.0
C1399 C 0.36292 0.08426 0.68722 0.0
H1400 H 0.18357 0.09556 0.95138 0.0
H1401 H 0.18005 0.16361 0.94099 0.0
H1402 H 0.2105 0.0931 0.9192 0.0
H1403 H 0.20755 0.16121 0.90886 0.0
H1404 H 0.24708 0.14378 0.83833 0.0
H1405 H 0.21751 0.14792 0.86751 0.0
H1406 H 0.24748 0.10281 0.91673 0.0
H1407 H 0.27677 0.09861 0.88763 0.0
C1408 C 0.18842 0.11001 0.94203 0.0
C1409 C 0.17979 0.1298 0.94891 0.0
C1410 C 0.20402 0.10862 0.9237 0.0
C1411 C 0.21159 0.127 0.91181 0.0
C1412 C 0.2021 0.14672 0.91765 0.0
C1413 C 0.18631 0.14811 0.93602 0.0
C1414 C 0.24743 0.13493 0.85552 0.0
C1415 C 0.2642 0.12069 0.86054 0.0
C1416 C 0.23047 0.13729 0.87222 0.0
C1417 C 0.22992 0.12545 0.89431 0.0
C1418 C 0.24705 0.11174 0.8996 0.0
C1419 C 0.26391 0.10936 0.88294 0.0
H1420 H 0.1028 0.92886 0.19144 0.0
H1421 H 0.17147 0.92686 0.19276 0.0
H1422 H 0.10413 0.95464 0.15739 0.0
H1423 H 0.17282 0.95245 0.15906 0.0
H1424 H 0.16963 0.98818 0.0874 0.0
H1425 H 0.16451 0.95802 0.11504 0.0
H1426 H 0.11576 0.99288 0.1544 0.0
H1427 H 0.12101 0.02325 0.12683 0.0
C1428 C 0.11813 0.93351 0.18406 0.0
C1429 C 0.13704 0.92586 0.19475 0.0
C1430 C 0.1189 0.94843 0.16478 0.0
C1431 C 0.13858 0.95568 0.15562 0.0
C1432 C 0.1574 0.94709 0.1655 0.0
C1433 C 0.15663 0.93245 0.18488 0.0
C1434 C 0.15784 0.98948 0.10197 0.0
C1435 C 0.14598 1.00831 0.10512 0.0
C1436 C 0.15484 0.97213 0.11774 0.0
C1437 C 0.13982 0.97309 0.13701 0.0
C1438 C 0.12729 0.99155 0.13955 0.0
C1439 C 0.13035 1.00898 0.12379 0.0
H1440 H 0.76897 0.86759 0.87055 0.0
H1441 H 0.73871 0.92401 0.84137 0.0
H1442 H 0.73984 0.8635 0.90021 0.0
H1443 H 0.70934 0.91945 0.87024 0.0
H1444 H 0.67863 0.92101 0.94789 0.0
H1445 H 0.70425 0.92345 0.9143 0.0
H1446 H 0.70161 0.85527 0.90443 0.0
H1447 H 0.6761 0.8528 0.93858 0.0
C1448 C 0.75609 0.87906 0.87037 0.0
C1449 C 0.75626 0.89616 0.85357 0.0
C1450 C 0.73924 0.87656 0.88716 0.0
C1451 C 0.72221 0.89114 0.88762 0.0
C1452 C 0.72226 0.90802 0.87056 0.0
C1453 C 0.73905 0.91051 0.85381 0.0
C1454 C 0.68321 0.90654 0.93833 0.0
C1455 C 0.67529 0.8867 0.94598 0.0
C1456 C 0.69789 0.90795 0.91896 0.0
C1457 C 0.70512 0.88955 0.90672 0.0
C1458 C 0.69657 0.86974 0.91368 0.0
C1459 C 0.68173 0.86834 0.93305 0.0
H1460 H 0.84232 0.99138 0.59065 0.0
H1461 H 0.8966 0.02314 0.62288 0.0
H1462 H 0.84693 0.96192 0.6194 0.0
H1463 H 0.90136 0.99339 0.65147 0.0
H1464 H 0.91224 0.9285 0.68846 0.0
H1465 H 0.91008 0.95424 0.65444 0.0
H1466 H 0.84201 0.95822 0.66453 0.0
H1467 H 0.84412 0.93265 0.6982 0.0
C1468 C 0.85522 0.99214 0.6039 0.0
C1469 C 0.86889 0.00984 0.60465 0.0
C1470 C 0.85792 0.97517 0.6203 0.0
C1471 C 0.87444 0.97536 0.6378 0.0
C1472 C 0.88861 0.99266 0.63801 0.0
C1473 C 0.88585 0.00973 0.62165 0.0
C1474 C 0.89679 0.93458 0.68305 0.0
C1475 C 0.87835 0.92858 0.69603 0.0
C1476 C 0.89559 0.94946 0.66375 0.0
C1477 C 0.87588 0.95833 0.65686 0.0
C1478 C 0.8574 0.95157 0.66919 0.0
C1479 C 0.85863 0.93696 0.68858 0.0
H1480 H 0.77839 0.09847 0.33901 0.0
H1481 H 0.74367 0.14895 0.37559 0.0
H1482 H 0.80799 0.10357 0.36744 0.0
H1483 H 0.77354 0.15421 0.40392 0.0
H1484 H 0.83781 0.16679 0.4416 0.0
H1485 H 0.81207 0.16507 0.40747 0.0
H1486 H 0.8126 0.09644 0.41189 0.0
H1487 H 0.83811 0.09816 0.44562 0.0
C1488 C 0.77703 0.11065 0.35314 0.0
C1489 C 0.75845 0.12306 0.35521 0.0
C1490 C 0.79408 0.11364 0.36936 0.0
C1491 C 0.79309 0.1292 0.38805 0.0
C1492 C 0.7749 0.14223 0.38956 0.0
C1493 C 0.75775 0.13917 0.37334 0.0
C1494 C 0.83275 0.15136 0.43485 0.0
C1495 C 0.83997 0.1326 0.44628 0.0
C1496 C 0.81786 0.15038 0.41551 0.0
C1497 C 0.81022 0.13061 0.40703 0.0
C1498 C 0.81827 0.11191 0.41777 0.0
C1499 C 0.83287 0.1129 0.43718 0.0
H1500 H 0.61548 0.99626 0.12289 0.0
H1501 H 0.67187 0.02554 0.09242 0.0
H1502 H 0.61153 0.02605 0.15172 0.0
H1503 H 0.66799 0.05511 0.12125 0.0
H1504 H 0.67066 0.08511 0.1994 0.0
H1505 H 0.67227 0.05932 0.16589 0.0
H1506 H 0.60436 0.06501 0.15554 0.0
H1507 H 0.60269 0.09087 0.18952 0.0
C1508 C 0.62688 1.00915 0.12211 0.0
C1509 C 0.64417 1.00831 0.10553 0.0
C1510 C 0.62458 0.02626 0.1386 0.0
C1511 C 0.63953 0.04291 0.13892 0.0
C1512 C 0.6564 0.04238 0.12181 0.0
C1513 C 0.65867 0.02535 0.10533 0.0
C1514 C 0.65608 0.08113 0.18979 0.0
C1515 C 0.63654 0.09003 0.1972 0.0
C1516 C 0.65702 0.06637 0.17046 0.0
C1517 C 0.63843 0.06001 0.15806 0.0
C1518 C 0.61893 0.06942 0.16489 0.0
C1519 C 0.61801 0.0844 0.18418 0.0
H1520 H 0.77401 0.1481 0.69206 0.0
H1521 H 0.74067 0.09519 0.72516 0.0
H1522 H 0.74441 0.15339 0.66337 0.0
H1523 H 0.71136 0.10034 0.69636 0.0
H1524 H 0.6815 0.09718 0.61806 0.0
H1525 H 0.7071 0.09488 0.65165 0.0
H1526 H 0.7057 0.16327 0.65964 0.0
H1527 H 0.67991 0.16559 0.62563 0.0
C1528 C 0.7603 0.13777 0.69346 0.0
C1529 C 0.75993 0.12102 0.71076 0.0
C1530 C 0.74329 0.14084 0.67703 0.0
C1531 C 0.72556 0.1272 0.67745 0.0
C1532 C 0.72492 0.11091 0.69525 0.0
C1533 C 0.74182 0.1079 0.7117 0.0
C1534 C 0.68637 0.11174 0.62721 0.0
C1535 C 0.67867 0.13157 0.61916 0.0
C1536 C 0.70101 0.11041 0.64657 0.0
C1537 C 0.70853 0.12889 0.65832 0.0
C1538 C 0.70035 0.14875 0.65082 0.0
C1539 C 0.68542 0.15007 0.63153 0.0
H1540 H 0.61873 0.02018 0.44712 0.0
H1541 H 0.67807 0.99275 0.47193 0.0
H1542 H 0.6149 0.99131 0.417 0.0
H1543 H 0.67384 0.96366 0.44263 0.0
H1544 H 0.67404 0.93517 0.3641 0.0
H1545 H 0.67612 0.96054 0.39794 0.0
H1546 H 0.60902 0.95228 0.41241 0.0
H1547 H 0.60685 0.92686 0.37801 0.0
C1548 C 0.63089 1.00796 0.44625 0.0
C1549 C 0.64874 1.00885 0.46191 0.0
C1550 C 0.62855 0.99128 0.42922 0.0
C1551 C 0.64408 0.97518 0.4274 0.0
C1552 C 0.66168 0.97589 0.44339 0.0
C1553 C 0.664 0.99249 0.46038 0.0
C1554 C 0.65975 0.93851 0.37466 0.0
C1555 C 0.64027 0.92903 0.3683 0.0
C1556 C 0.66097 0.95302 0.39418 0.0
C1557 C 0.64273 0.9585 0.40786 0.0
C1558 C 0.62331 0.94854 0.40204 0.0
C1559 C 0.62212 0.93383 0.38252 0.0
H1560 H 0.84094 0.92076 0.11827 0.0
H1561 H 0.84237 0.85229 0.12521 0.0
H1562 H 0.81502 0.92292 0.15157 0.0
H1563 H 0.81645 0.85449 0.15907 0.0
H1564 H 0.7489 0.86765 0.19262 0.0
H1565 H 0.77825 0.86348 0.1632 0.0
H1566 H 0.80959 0.91799 0.19543 0.0
H1567 H 0.78004 0.92265 0.22405 0.0
C1568 C 0.83602 0.90616 0.12725 0.0
C1569 C 0.84373 0.88636 0.11902 0.0
C1570 C 0.82117 0.90741 0.14645 0.0
C1571 C 0.81352 0.88887 0.15795 0.0
C1572 C 0.82182 0.86906 0.15039 0.0
C1573 C 0.83686 0.86782 0.1312 0.0
C1574 C 0.76202 0.87878 0.19335 0.0
C1575 C 0.76202 0.89551 0.21071 0.0
C1576 C 0.77899 0.87623 0.1767 0.0
C1577 C 0.79631 0.8904 0.17694 0.0
C1578 C 0.79644 0.90689 0.19457 0.0
C1579 C 0.77955 0.90942 0.21118 0.0
H1580 H 0.91646 0.09059 0.87606 0.0
H1581 H 0.84809 0.08661 0.86946 0.0
H1582 H 0.91538 0.0651 0.91038 0.0
H1583 H 0.84704 0.06124 0.90337 0.0
H1584 H 0.84936 0.02768 0.97674 0.0
H1585 H 0.85312 0.05728 0.94802 0.0
H1586 H 0.90708 0.02616 0.91403 0.0
H1587 H 0.90322 0.99632 0.94268 0.0
C1588 C 0.90119 0.08462 0.88224 0.0
C1589 C 0.88235 0.09058 0.87003 0.0
C1590 C 0.90059 0.06987 0.90171 0.0
C1591 C 0.88113 0.06106 0.90953 0.0
C1592 C 0.86227 0.06784 0.898 0.0
C1593 C 0.86288 0.08234 0.87847 0.0
C1594 C 0.86199 0.02706 0.96309 0.0
C1595 C 0.87579 1.00943 0.96181 0.0
C1596 C 0.86419 0.0441 0.9467 0.0
C1597 C 0.88032 0.04403 0.92864 0.0
C1598 C 0.89464 0.02681 0.92791 0.0
C1599 C 0.89239 0.00968 0.9443 0.0
H1600 H 0.77936 0.59756 0.72726 0.0
H1601 H 0.74462 0.64702 0.68915 0.0
H1602 H 0.80934 0.60257 0.69925 0.0
H1603 H 0.77482 0.65216 0.66123 0.0
H1604 H 0.83885 0.66522 0.62412 0.0
H1605 H 0.81292 0.66355 0.65802 0.0
H1606 H 0.81516 0.59488 0.65523 0.0
H1607 H 0.841 0.59657 0.62174 0.0
C1608 C 0.77807 0.60949 0.71287 0.0
C1609 C 0.75939 0.62166 0.71026 0.0
C1610 C 0.79533 0.61242 0.69689 0.0
C1611 C 0.79445 0.62767 0.67791 0.0
C1612 C 0.77611 0.64043 0.67583 0.0
C1613 C 0.75877 0.63745 0.69181 0.0
C1614 C 0.8342 0.64981 0.63122 0.0
C1615 C 0.842 0.63102 0.62029 0.0
C1616 C 0.81916 0.64884 0.65041 0.0
C1617 C 0.81187 0.62908 0.65925 0.0
C1618 C 0.82054 0.61036 0.64908 0.0
C1619 C 0.83532 0.61133 0.6298 0.0
H1620 H 0.67198 0.58842 0.86762 0.0
H1621 H 0.60353 0.58874 0.87453 0.0
H1622 H 0.67448 0.56274 0.90113 0.0
H1623 H 0.60604 0.56297 0.90846 0.0
H1624 H 0.6215 0.49488 0.94051 0.0
H1625 H 0.61623 0.52459 0.91198 0.0
H1626 H 0.66892 0.55777 0.94561 0.0
H1627 H 0.67405 0.52831 0.97424 0.0
C1628 C 0.65746 0.5833 0.87664 0.0
C1629 C 0.63756 0.59066 0.86841 0.0
C1630 C 0.6589 0.5686 0.89594 0.0
C1631 C 0.64046 0.56069 0.90745 0.0
C1632 C 0.62054 0.5686 0.89982 0.0
C1633 C 0.61911 0.58355 0.88059 0.0
C1634 C 0.63176 0.50864 0.94208 0.0
C1635 C 0.64839 0.50901 0.95952 0.0
C1636 C 0.62871 0.52571 0.92574 0.0
C1637 C 0.64224 0.54352 0.9264 0.0
C1638 C 0.65843 0.54415 0.94431 0.0
C1639 C 0.66143 0.52718 0.96067 0.0
H1640 H 0.67826 0.35364 0.12616 0.0
H1641 H 0.68195 0.4219 0.11815 0.0
H1642 H 0.70364 0.35535 0.16054 0.0
H1643 H 0.70725 0.4236 0.15208 0.0
H1644 H 0.74042 0.42248 0.22593 0.0
H1645 H 0.71118 0.41839 0.19678 0.0
H1646 H 0.74244 0.36374 0.1645 0.0
H1647 H 0.77193 0.36794 0.19354 0.0
C1648 C 0.68413 0.36902 0.13203 0.0
C1649 C 0.6781 0.38763 0.11941 0.0
C1650 C 0.69885 0.36998 0.15153 0.0
C1651 C 0.70756 0.38961 0.15898 0.0
C1652 C 0.70074 0.40825 0.14702 0.0
C1653 C 0.68627 0.40726 0.12746 0.0
C1654 C 0.74118 0.40965 0.21254 0.0
C1655 C 0.75874 0.39573 0.21192 0.0
C1656 C 0.72433 0.40725 0.1959 0.0
C1657 C 0.7245 0.3908 0.17823 0.0
C1658 C 0.74169 0.37643 0.17807 0.0
C1659 C 0.75863 0.37888 0.1947 0.0
H1660 H 0.84927 0.48733 0.47859 0.0
H1661 H 0.89699 0.52358 0.43946 0.0
H1662 H 0.85444 0.45778 0.44998 0.0
H1663 H 0.90233 0.49378 0.41096 0.0
H1664 H 0.91666 0.43006 0.37306 0.0
H1665 H 0.91478 0.45601 0.407 0.0
H1666 H 0.8462 0.45182 0.4062 0.0
H1667 H 0.84808 0.42603 0.37266 0.0
C1668 C 0.86083 0.48906 0.46384 0.0
C1669 C 0.87248 0.50804 0.46119 0.0
C1670 C 0.86387 0.47204 0.4475 0.0
C1671 C 0.87873 0.47342 0.42809 0.0
C1672 C 0.89093 0.49208 0.42588 0.0
C1673 C 0.88783 0.5092 0.44222 0.0
C1674 C 0.90124 0.43433 0.38057 0.0
C1675 C 0.88251 0.42598 0.37018 0.0
C1676 C 0.90015 0.44937 0.3998 0.0
C1677 C 0.88033 0.4561 0.40924 0.0
C1678 C 0.86173 0.4469 0.39959 0.0
C1679 C 0.86281 0.43212 0.38027 0.0
H1680 H 0.7789 0.42251 0.83748 0.0
H1681 H 0.74425 0.37178 0.87331 0.0
H1682 H 0.8083 0.41742 0.86621 0.0
H1683 H 0.77395 0.36649 0.90184 0.0
H1684 H 0.83829 0.35375 0.93943 0.0
H1685 H 0.81273 0.3557 0.90515 0.0
H1686 H 0.81229 0.42425 0.9111 0.0
H1687 H 0.83761 0.42231 0.94504 0.0
C1688 C 0.7775 0.41029 0.8515 0.0
C1689 C 0.759 0.39778 0.85326 0.0
C1690 C 0.79444 0.40729 0.86788 0.0
C1691 C 0.79343 0.39162 0.88638 0.0
C1692 C 0.77532 0.37855 0.88761 0.0
C1693 C 0.75827 0.38162 0.87127 0.0
C1694 C 0.83304 0.36922 0.93301 0.0
C1695 C 0.83992 0.38788 0.94492 0.0
C1696 C 0.81827 0.37032 0.91358 0.0
C1697 C 0.81042 0.39013 0.90548 0.0
C1698 C 0.81813 0.40876 0.9167 0.0
C1699 C 0.8326 0.40764 0.93624 0.0
H1700 H 0.91638 0.58919 0.18951 0.0
H1701 H 0.84776 0.59195 0.19181 0.0
H1702 H 0.9145 0.56368 0.15517 0.0
H1703 H 0.84586 0.56656 0.15784 0.0
H1704 H 0.84855 0.53194 0.08486 0.0
H1705 H 0.8536 0.56135 0.11369 0.0
H1706 H 0.90264 0.52568 0.15126 0.0
H1707 H 0.89796 0.49635 0.12193 0.0
C1708 C 0.90094 0.58476 0.18232 0.0
C1709 C 0.88221 0.5926 0.19334 0.0
C1710 C 0.89985 0.56996 0.16286 0.0
C1711 C 0.88003 0.56299 0.15386 0.0
C1712 C 0.86139 0.5717 0.16414 0.0
C1713 C 0.86247 0.58623 0.18368 0.0
C1714 C 0.86066 0.53046 0.099 0.0
C1715 C 0.87283 0.51173 0.10107 0.0
C1716 C 0.86344 0.54728 0.11566 0.0
C1717 C 0.8785 0.54588 0.13481 0.0
C1718 C 0.89105 0.52737 0.13657 0.0
C1719 C 0.88818 0.51045 0.11995 0.0
H1720 H 0.77401 0.59577 0.38303 0.0
H1721 H 0.74695 0.64461 0.33649 0.0
H1722 H 0.74466 0.59994 0.41206 0.0
H1723 H 0.7173 0.64869 0.36554 0.0
H1724 H 0.68013 0.66303 0.4394 0.0
H1725 H 0.70757 0.66057 0.40726 0.0
H1726 H 0.70738 0.59207 0.41416 0.0
H1727 H 0.68053 0.59459 0.44645 0.0
C1728 C 0.7617 0.60732 0.37892 0.0
C1729 C 0.76276 0.61972 0.35733 0.0
C1730 C 0.7448 0.60968 0.39553 0.0
C1731 C 0.72838 0.62443 0.39098 0.0
C1732 C 0.72969 0.63725 0.36969 0.0
C1733 C 0.7467 0.63492 0.35306 0.0
C1734 C 0.68566 0.64745 0.43365 0.0
C1735 C 0.67829 0.62901 0.44561 0.0
C1736 C 0.70143 0.64603 0.41527 0.0
C1737 C 0.71004 0.62613 0.40847 0.0
C1738 C 0.7016 0.60769 0.41941 0.0
C1739 C 0.68603 0.60912 0.43778 0.0
H1740 H 0.67099 0.4287 0.69446 0.0
H1741 H 0.60248 0.42677 0.68901 0.0
H1742 H 0.67239 0.4542 0.66075 0.0
H1743 H 0.60388 0.45231 0.65474 0.0
H1744 H 0.61649 0.51995 0.62069 0.0
H1745 H 0.61277 0.49074 0.65028 0.0
H1746 H 0.66653 0.45887 0.61677 0.0
H1747 H 0.67074 0.48824 0.58793 0.0
C1748 C 0.65622 0.43341 0.6857 0.0
C1749 C 0.63662 0.42569 0.69442 0.0
C1750 C 0.65703 0.44802 0.66627 0.0
C1751 C 0.63824 0.45541 0.65508 0.0
C1752 C 0.61863 0.44709 0.66316 0.0
C1753 C 0.61783 0.43226 0.68256 0.0
C1754 C 0.62755 0.50673 0.6197 0.0
C1755 C 0.64395 0.50653 0.60193 0.0
C1756 C 0.62523 0.48985 0.63645 0.0
C1757 C 0.63935 0.47244 0.63591 0.0
C1758 C 0.65548 0.47209 0.61785 0.0
C1759 C 0.65777 0.48889 0.60114 0.0
H1760 H 0.17854 0.35451 0.43917 0.0
H1761 H 0.17612 0.42318 0.44031 0.0
H1762 H 0.20437 0.35583 0.40512 0.0
H1763 H 0.20182 0.42452 0.40663 0.0
H1764 H 0.2382 0.42118 0.33524 0.0
H1765 H 0.20783 0.41607 0.36266 0.0
H1766 H 0.24251 0.3676 0.40241 0.0
H1767 H 0.27309 0.37285 0.37509 0.0
C1768 C 0.18308 0.36984 0.43172 0.0
C1769 C 0.1753 0.38875 0.44235 0.0
C1770 C 0.19805 0.37061 0.41245 0.0
C1771 C 0.20524 0.39028 0.40327 0.0
C1772 C 0.1965 0.4091 0.41308 0.0
C1773 C 0.1818 0.40834 0.43244 0.0
C1774 C 0.23941 0.40946 0.34986 0.0
C1775 C 0.25825 0.39767 0.35318 0.0
C1776 C 0.22194 0.40646 0.36549 0.0
C1777 C 0.22279 0.39152 0.3848 0.0
C1778 C 0.24126 0.37907 0.38753 0.0
C1779 C 0.25881 0.38212 0.3719 0.0
H1780 H 0.34659 0.43271 0.19959 0.0
H1781 H 0.41482 0.43049 0.19033 0.0
H1782 H 0.34407 0.45951 0.16736 0.0
H1783 H 0.41235 0.45787 0.15814 0.0
H1784 H 0.39506 0.49724 0.08748 0.0
H1785 H 0.39942 0.46769 0.11657 0.0
H1786 H 0.35314 0.4967 0.16533 0.0
H1787 H 0.34873 0.52596 0.13636 0.0
C1788 C 0.36107 0.43781 0.19046 0.0
C1789 C 0.38092 0.4296 0.19769 0.0
C1790 C 0.35965 0.45334 0.17211 0.0
C1791 C 0.37805 0.46126 0.16055 0.0
C1792 C 0.39786 0.45215 0.16669 0.0
C1793 C 0.39928 0.43642 0.18509 0.0
C1794 C 0.386 0.49738 0.10455 0.0
C1795 C 0.37138 0.51387 0.10947 0.0
C1796 C 0.38848 0.48043 0.1212 0.0
C1797 C 0.37639 0.47961 0.14312 0.0
C1798 C 0.36229 0.49647 0.14832 0.0
C1799 C 0.35979 0.51331 0.13172 0.0
H1800 H 0.24557 0.64973 0.87397 0.0
H1801 H 0.27904 0.59786 0.83843 0.0
H1802 H 0.27545 0.65452 0.90236 0.0
H1803 H 0.30865 0.6025 0.86695 0.0
H1804 H 0.33846 0.59763 0.94543 0.0
H1805 H 0.313 0.59595 0.91164 0.0
H1806 H 0.31419 0.66447 0.90558 0.0
H1807 H 0.33983 0.66617 0.93974 0.0
C1808 C 0.25938 0.63954 0.87198 0.0
C1809 C 0.25972 0.6232 0.85411 0.0
C1810 C 0.27653 0.64232 0.88822 0.0
C1811 C 0.29437 0.6288 0.88701 0.0
C1812 C 0.295 0.61296 0.86862 0.0
C1813 C 0.27795 0.61024 0.85236 0.0
C1814 C 0.33359 0.61234 0.93664 0.0
C1815 C 0.34113 0.63203 0.94529 0.0
C1816 C 0.31904 0.61137 0.91718 0.0
C1817 C 0.31148 0.63008 0.90598 0.0
C1818 C 0.31958 0.64979 0.91401 0.0
C1819 C 0.33442 0.65075 0.93337 0.0
H1820 H 0.10466 0.5908 0.6888 0.0
H1821 H 0.17309 0.59009 0.69583 0.0
H1822 H 0.10716 0.56514 0.65469 0.0
H1823 H 0.17557 0.56451 0.66209 0.0
H1824 H 0.17472 0.53061 0.58825 0.0
H1825 H 0.16992 0.55985 0.61738 0.0
H1826 H 0.11729 0.52665 0.65115 0.0
H1827 H 0.12226 0.49713 0.6222 0.0
C1828 C 0.12024 0.58554 0.68274 0.0
C1829 C 0.13868 0.59251 0.69502 0.0
C1830 C 0.12166 0.57066 0.6634 0.0
C1831 C 0.14156 0.56268 0.65574 0.0
C1832 C 0.16001 0.57043 0.66733 0.0
C1833 C 0.15857 0.58507 0.68676 0.0
C1834 C 0.16221 0.52941 0.60197 0.0
C1835 C 0.14907 0.5113 0.603 0.0
C1836 C 0.15939 0.54626 0.61861 0.0
C1837 C 0.14328 0.54558 0.63666 0.0
C1838 C 0.1297 0.5278 0.63727 0.0
C1839 C 0.13258 0.51086 0.62067 0.0
H1840 H 0.17474 0.66134 0.12999 0.0
H1841 H 0.18913 0.59639 0.10948 0.0
H1842 H 0.19982 0.65863 0.1646 0.0
H1843 H 0.21428 0.5939 0.14319 0.0
H1844 H 0.24574 0.58772 0.21664 0.0
H1845 H 0.21714 0.59206 0.18696 0.0
H1846 H 0.23832 0.65608 0.17166 0.0
H1847 H 0.26644 0.65213 0.20255 0.0
C1848 C 0.18303 0.64645 0.13298 0.0
C1849 C 0.1799 0.62911 0.1169 0.0
C1850 C 0.19757 0.64495 0.15266 0.0
C1851 C 0.20915 0.62604 0.15672 0.0
C1852 C 0.20549 0.60861 0.14096 0.0
C1853 C 0.19107 0.6101 0.12143 0.0
C1854 C 0.24414 0.6029 0.20736 0.0
C1855 C 0.25849 0.61957 0.21211 0.0
C1856 C 0.22783 0.6053 0.19004 0.0
C1857 C 0.22545 0.62437 0.17672 0.0
C1858 C 0.23954 0.64122 0.18171 0.0
C1859 C 0.25587 0.63885 0.19918 0.0
H1860 H 0.16901 0.42493 0.87321 0.0
H1861 H 0.10049 0.42971 0.87327 0.0
H1862 H 0.17085 0.45067 0.90679 0.0
H1863 H 0.10227 0.45544 0.90732 0.0
H1864 H 0.12012 0.52321 0.93857 0.0
H1865 H 0.11453 0.4929 0.91093 0.0
H1866 H 0.16273 0.45744 0.95022 0.0
H1867 H 0.16825 0.48759 0.97784 0.0
C1868 C 0.15428 0.43112 0.88082 0.0
C1869 C 0.1346 0.42523 0.8706 0.0
C1870 C 0.15532 0.44586 0.90016 0.0
C1871 C 0.13671 0.45524 0.90969 0.0
C1872 C 0.11692 0.44866 0.90022 0.0
C1873 C 0.11587 0.4337 0.88094 0.0
C1874 C 0.12928 0.50883 0.94156 0.0
C1875 C 0.14486 0.50799 0.96023 0.0
C1876 C 0.12604 0.49141 0.92575 0.0
C1877 C 0.1383 0.47277 0.92824 0.0
C1878 C 0.15328 0.47167 0.9475 0.0
C1879 C 0.15649 0.48902 0.96329 0.0
H1880 H 0.34015 0.35385 0.62683 0.0
H1881 H 0.33623 0.42201 0.61767 0.0
H1882 H 0.31439 0.35593 0.66085 0.0
H1883 H 0.3105 0.42405 0.65124 0.0
H1884 H 0.2767 0.42364 0.72503 0.0
H1885 H 0.30597 0.41959 0.69581 0.0
H1886 H 0.27574 0.36397 0.66483 0.0
H1887 H 0.24624 0.36811 0.69397 0.0
C1888 C 0.33413 0.36929 0.63235 0.0
C1889 C 0.34027 0.38776 0.61952 0.0
C1890 C 0.31918 0.37046 0.65166 0.0
C1891 C 0.31027 0.39015 0.65871 0.0
C1892 C 0.31715 0.40865 0.64651 0.0
C1893 C 0.33188 0.40746 0.62715 0.0
C1894 C 0.27616 0.41061 0.7119 0.0
C1895 C 0.25889 0.39637 0.71172 0.0
C1896 C 0.29303 0.40824 0.6952 0.0
C1897 C 0.29319 0.39151 0.67787 0.0
C1898 C 0.27626 0.37688 0.67812 0.0
C1899 C 0.25931 0.3793 0.69481 0.0
H1900 H 0.34976 0.49468 0.43029 0.0
H1901 H 0.39899 0.52078 0.477 0.0
H1902 H 0.35399 0.52426 0.40175 0.0
H1903 H 0.40322 0.55063 0.44827 0.0
H1904 H 0.4164 0.58798 0.37349 0.0
H1905 H 0.41462 0.56047 0.40562 0.0
H1906 H 0.34597 0.562 0.40189 0.0
H1907 H 0.3478 0.58898 0.36977 0.0
C1908 C 0.36143 0.50681 0.43453 0.0
C1909 C 0.37385 0.50546 0.45609 0.0
C1910 C 0.36384 0.52383 0.41819 0.0
C1911 C 0.37869 0.54006 0.42294 0.0
C1912 C 0.39166 0.53839 0.44405 0.0
C1913 C 0.38926 0.52127 0.46047 0.0
C1914 C 0.40097 0.58278 0.38002 0.0
C1915 C 0.38224 0.5905 0.36897 0.0
C1916 C 0.39993 0.56696 0.39834 0.0
C1917 C 0.38015 0.55866 0.40591 0.0
C1918 C 0.36148 0.56756 0.396 0.0
C1919 C 0.36252 0.58318 0.37773 0.0
H1920 H 0.09533 0.26223 0.40791 0.0
H1921 H 0.16381 0.26547 0.4138 0.0
H1922 H 0.0987 0.23238 0.37904 0.0
H1923 H 0.16712 0.23645 0.38426 0.0
H1924 H 0.16607 0.16752 0.36122 0.0
H1925 H 0.16075 0.19893 0.38643 0.0
H1926 H 0.11059 0.21977 0.33747 0.0
H1927 H 0.1159 0.1876 0.31195 0.0
C1928 C 0.11111 0.25672 0.40296 0.0
C1929 C 0.1293 0.26623 0.41353 0.0
C1930 C 0.11303 0.23974 0.38613 0.0
C1931 C 0.13317 0.23176 0.37949 0.0
C1932 C 0.15131 0.24187 0.38926 0.0
C1933 C 0.14942 0.25877 0.40604 0.0
C1934 C 0.15388 0.17876 0.35568 0.0
C1935 C 0.14147 0.17506 0.33447 0.0
C1936 C 0.15093 0.19693 0.37012 0.0
C1937 C 0.13549 0.21218 0.36384 0.0
C1938 C 0.12263 0.20835 0.34288 0.0
C1939 C 0.12564 0.18995 0.32825 0.0
H1940 H 0.08308 0.86806 0.5621 0.0
H1941 H 0.09689 0.92402 0.60568 0.0
H1942 H 0.05061 0.86227 0.5869 0.0
H1943 H 0.06476 0.91859 0.62966 0.0
H1944 H 0.99616 0.91662 0.65239 0.0
H1945 H 0.02549 0.92003 0.62314 0.0
H1946 H 0.04071 0.85356 0.63254 0.0
H1947 H 0.01158 0.85012 0.66234 0.0
C1948 C 0.07925 0.87904 0.57693 0.0
C1949 C 0.09268 0.89638 0.58205 0.0
C1950 C 0.06068 0.87578 0.59107 0.0
C1951 C 0.05502 0.89008 0.61015 0.0
C1952 C 0.06841 0.90746 0.6149 0.0
C1953 C 0.08694 0.91051 0.60115 0.0
C1954 C 1.00573 0.90269 0.64836 0.0
C1955 C 1.00157 0.88317 0.66014 0.0
C1956 C 0.0225 0.90463 0.63144 0.0
C1957 C 0.03556 0.8871 0.62564 0.0
C1958 C 0.03085 0.86732 0.63645 0.0
C1959 C 0.01411 0.86539 0.65355 0.0
H1960 H 0.34584 0.85091 0.85488 0.0
H1961 H 0.40166 0.83454 0.81221 0.0
H1962 H 0.35089 0.81969 0.88052 0.0
H1963 H 0.40697 0.80293 0.8385 0.0
H1964 H 0.41899 0.76433 0.91324 0.0
H1965 H 0.41577 0.79326 0.88323 0.0
H1966 H 0.34851 0.78079 0.87684 0.0
H1967 H 0.35168 0.75174 0.90638 0.0
C1968 C 0.35924 0.84058 0.8509 0.0
C1969 C 0.37342 0.84534 0.83152 0.0
C1970 C 0.36207 0.82255 0.86561 0.0
C1971 C 0.37924 0.80864 0.86154 0.0
C1972 C 0.39362 0.81338 0.84222 0.0
C1973 C 0.39063 0.83148 0.82719 0.0
C1974 C 0.40356 0.76746 0.90513 0.0
C1975 C 0.38554 0.75571 0.9126 0.0
C1976 C 0.40174 0.7841 0.88789 0.0
C1977 C 0.38185 0.78953 0.87777 0.0
C1978 C 0.36402 0.77733 0.88459 0.0
C1979 C 0.36583 0.76068 0.90167 0.0
H1980 H 0.43453 0.15075 0.06374 0.0
H1981 H 0.4163 0.09585 0.10673 0.0
H1982 H 0.46485 0.15661 0.09189 0.0
H1983 H 0.44632 0.10126 0.13398 0.0
H1984 H 0.48465 0.1293 0.19566 0.0
H1985 H 0.45599 0.12635 0.16581 0.0
H1986 H 0.49974 0.14066 0.10645 0.0
H1987 H 0.52862 0.14439 0.13672 0.0
C1988 C 0.43697 0.13998 0.07911 0.0
C1989 C 0.42281 0.12304 0.0832 0.0
C1990 C 0.4544 0.14321 0.09512 0.0
C1991 C 0.45788 0.12957 0.11548 0.0
C1992 C 0.44394 0.11239 0.11894 0.0
C1993 C 0.42673 0.1092 0.10311 0.0
C1994 C 0.48823 0.1321 0.17631 0.0
C1995 C 0.50904 0.13712 0.16871 0.0
C1996 C 0.47177 0.13019 0.15909 0.0
C1997 C 0.47552 0.13311 0.13362 0.0
C1998 C 0.49625 0.13842 0.12591 0.0
C1999 C 0.51285 0.1403 0.14325 0.0
H2000 H 0.16913 0.85093 0.2057 0.0
H2001 H 0.11885 0.83193 0.25548 0.0
H2002 H 0.16375 0.8192 0.18117 0.0
H2003 H 0.11346 0.79941 0.23062 0.0
H2004 H 0.09769 0.7568 0.16047 0.0
H2005 H 0.10141 0.78658 0.18932 0.0
H2006 H 0.16977 0.78165 0.18361 0.0
H2007 H 0.16612 0.75276 0.15401 0.0
C2008 C 0.15692 0.83985 0.21153 0.0
C2009 C 0.14447 0.84398 0.23265 0.0
C2010 C 0.15393 0.82148 0.19747 0.0
C2011 C 0.13841 0.80645 0.20404 0.0
C2012 C 0.12558 0.81065 0.22499 0.0
C2013 C 0.12864 0.82924 0.23925 0.0
C2014 C 0.11354 0.76208 0.16531 0.0
C2015 C 0.1316 0.75241 0.15452 0.0
C2016 C 0.11565 0.77903 0.18214 0.0
C2017 C 0.13588 0.78678 0.18861 0.0
C2018 C 0.1539 0.77643 0.17873 0.0
C2019 C 0.15181 0.75958 0.16192 0.0
H2020 H 0.50725 0.84937 0.40257 0.0
H2021 H 0.51915 0.91674 0.41058 0.0
H2022 H 0.4779 0.8521 0.43222 0.0
H2023 H 0.48968 0.91942 0.43974 0.0
H2024 H 0.41894 0.92125 0.45886 0.0
H2025 H 0.45075 0.91635 0.43414 0.0
H2026 H 0.46738 0.86099 0.47728 0.0
H2027 H 0.43515 0.86618 0.50273 0.0
C2028 C 0.50388 0.8647 0.41088 0.0
C2029 C 0.51552 0.8829 0.40382 0.0
C2030 C 0.48702 0.86623 0.42791 0.0
C2031 C 0.48127 0.886 0.43817 0.0
C2032 C 0.49342 0.904 0.43185 0.0
C2033 C 0.5103 0.90247 0.415 0.0
C2034 C 0.42935 0.90803 0.46329 0.0
C2035 C 0.4244 0.89405 0.48277 0.0
C2036 C 0.44771 0.9053 0.44911 0.0
C2037 C 0.46177 0.8884 0.45381 0.0
C2038 C 0.45682 0.87414 0.47313 0.0
C2039 C 0.43836 0.87706 0.48766 0.0
H2040 H 0.35218 0.26446 0.65376 0.0
H2041 H 0.42068 0.26087 0.65922 0.0
H2042 H 0.34894 0.23578 0.68359 0.0
H2043 H 0.41737 0.23131 0.68836 0.0
H2044 H 0.40073 0.18678 0.75534 0.0
H2045 H 0.40565 0.21902 0.73001 0.0
H2046 H 0.35522 0.19819 0.68145 0.0
H2047 H 0.3503 0.16668 0.70648 0.0
C2048 C 0.3666 0.25779 0.66151 0.0
C2049 C 0.3867 0.26502 0.65379 0.0
C2050 C 0.36473 0.24106 0.67846 0.0
C2051 C 0.3829 0.23091 0.68815 0.0
C2052 C 0.40303 0.23871 0.68133 0.0
C2053 C 0.40491 0.25553 0.66435 0.0
C2054 C 0.39082 0.18917 0.73919 0.0
C2055 C 0.37509 0.17421 0.73297 0.0
C2056 C 0.39361 0.2076 0.72467 0.0
C2057 C 0.38061 0.21142 0.70383 0.0
C2058 C 0.36517 0.19618 0.69765 0.0
C2059 C 0.36244 0.17795 0.71198 0.0
H2060 H 0.10311 0.097 0.95862 0.0
H2061 H 0.08323 0.15104 1.00237 0.0
H2062 H 0.07337 0.10228 0.93091 0.0
H2063 H 0.05322 0.15682 0.97374 0.0
H2064 H 0.99 0.14418 0.92845 0.0
H2065 H 0.01892 0.14084 0.95868 0.0
H2066 H 0.06285 0.12683 0.8993 0.0
H2067 H 0.03412 0.12932 0.86949 0.0
C2068 C 0.0924 0.11016 0.96229 0.0
C2069 C 0.09576 0.12375 0.98261 0.0
C2070 C 0.07534 0.11329 0.94618 0.0
C2071 C 0.06097 0.13017 0.94974 0.0
C2072 C 0.06397 0.14364 0.97041 0.0
C2073 C 0.08124 0.14047 0.9867 0.0
C2074 C 1.00581 0.14022 0.92189 0.0
C2075 C 0.00961 0.13699 0.89642 0.0
C2076 C 0.02245 0.13858 0.93922 0.0
C2077 C 0.04327 0.13347 0.93153 0.0
C2078 C 0.04703 0.13051 0.90605 0.0
C2079 C 0.0305 0.13217 0.88883 0.0
H2080 H 0.89883 0.83231 0.75244 0.0
H2081 H 0.84679 0.85164 0.70549 0.0
H2082 H 0.90419 0.80055 0.72634 0.0
H2083 H 0.85215 0.82059 0.67962 0.0
H2084 H 0.85115 0.75439 0.65013 0.0
H2085 H 0.84726 0.78301 0.68011 0.0
H2086 H 0.91558 0.78878 0.68486 0.0
H2087 H 0.91954 0.75931 0.65562 0.0
C2088 C 0.88865 0.82985 0.73654 0.0
C2089 C 0.87237 0.84449 0.73108 0.0
C2090 C 0.8917 0.81169 0.72155 0.0
C2091 C 0.87842 0.80777 0.70095 0.0
C2092 C 0.86236 0.82265 0.69558 0.0
C2093 C 0.85938 0.84063 0.7104 0.0
C2094 C 0.86541 0.76139 0.65787 0.0
C2095 C 0.88567 0.75448 0.65016 0.0
C2096 C 0.86317 0.77808 0.6749 0.0
C2097 C 0.8811 0.78853 0.68474 0.0
C2098 C 0.9014 0.78115 0.67778 0.0
C2099 C 0.90365 0.76437 0.66072 0.0
H2100 H 0.00949 0.1708 0.40936 0.0
H2101 H 0.01365 0.10234 0.40335 0.0
H2102 H 0.97984 0.16716 0.43841 0.0
H2103 H 0.98484 0.09877 0.43308 0.0
H2104 H 0.91566 0.09961 0.45616 0.0
H2105 H 0.9472 0.10475 0.43113 0.0
H2106 H 0.96764 0.15523 0.47996 0.0
H2107 H 0.9354 0.15006 0.5053 0.0
C2108 C 1.00425 0.15497 0.41435 0.0
C2109 C 0.01394 0.13687 0.40367 0.0
C2110 C 0.98738 0.1529 0.43127 0.0
C2111 C 0.97972 0.13268 0.43793 0.0
C2112 C 0.99003 0.11462 0.42808 0.0
C2113 C 1.00681 0.11667 0.4112 0.0
C2114 C 0.92685 0.1118 0.46173 0.0
C2115 C 0.923 0.12441 0.48278 0.0
C2116 C 0.94509 0.11466 0.44739 0.0
C2117 C 0.96022 0.1302 0.45363 0.0
C2118 C 0.9563 0.14312 0.47457 0.0
C2119 C 0.93788 0.14019 0.48909 0.0
H2120 H 0.59692 0.25994 0.15745 0.0
H2121 H 0.66537 0.26382 0.15176 0.0
H2122 H 0.60042 0.23045 0.1866 0.0
H2123 H 0.66882 0.23518 0.18167 0.0
H2124 H 0.66851 0.16669 0.20683 0.0
H2125 H 0.66345 0.19775 0.18109 0.0
H2126 H 0.61152 0.21827 0.22794 0.0
H2127 H 0.61653 0.18641 0.25391 0.0
C2128 C 0.61273 0.25464 0.16247 0.0
C2129 C 0.63086 0.26426 0.15186 0.0
C2130 C 0.61472 0.23785 0.17949 0.0
C2131 C 0.6349 0.23015 0.18638 0.0
C2132 C 0.65299 0.24033 0.17651 0.0
C2133 C 0.65101 0.25705 0.15951 0.0
C2134 C 0.656 0.1778 0.21181 0.0
C2135 C 0.64296 0.17405 0.23253 0.0
C2136 C 0.65319 0.1958 0.19705 0.0
C2137 C 0.63729 0.21084 0.20251 0.0
C2138 C 0.62392 0.20702 0.22309 0.0
C2139 C 0.62677 0.1888 0.23801 0.0
H2140 H 0.50792 0.91587 0.90156 0.0
H2141 H 0.50603 0.84728 0.90635 0.0
H2142 H 0.53654 0.91664 0.9318 0.0
H2143 H 0.53415 0.84811 0.93749 0.0
H2144 H 0.60364 0.85926 0.96647 0.0
H2145 H 0.57201 0.85527 0.94058 0.0
H2146 H 0.54464 0.91132 0.97457 0.0
H2147 H 0.57641 0.91522 1.00016 0.0
C2148 C 0.51353 0.90093 0.90913 0.0
C2149 C 0.50464 0.88152 0.90135 0.0
C2150 C 0.5298 0.90138 0.92679 0.0
C2151 C 0.53768 0.88243 0.93727 0.0
C2152 C 0.52863 0.86301 0.92973 0.0
C2153 C 0.5123 0.86256 0.91204 0.0
C2154 C 0.59045 0.87011 0.96914 0.0
C2155 C 0.59215 0.88715 0.98584 0.0
C2156 C 0.57238 0.86801 0.9541 0.0
C2157 C 0.55574 0.88306 0.95529 0.0
C2158 C 0.55722 0.89962 0.9728 0.0
C2159 C 0.57529 0.90172 0.98771 0.0
H2160 H 0.85241 0.26954 0.9044 0.0
H2161 H 0.9192 0.2553 0.91383 0.0
H2162 H 0.84939 0.24029 0.87499 0.0
H2163 H 0.91615 0.2262 0.88393 0.0
H2164 H 0.90266 0.18396 0.81329 0.0
H2165 H 0.90796 0.21616 0.83874 0.0
H2166 H 0.8511 0.20127 0.88013 0.0
H2167 H 0.84606 0.1695 0.85539 0.0
C2168 C 0.86648 0.26021 0.90025 0.0
C2169 C 0.88598 0.26473 0.91189 0.0
C2170 C 0.86476 0.24347 0.88324 0.0
C2171 C 0.88249 0.23075 0.87722 0.0
C2172 C 0.90222 0.23577 0.88798 0.0
C2173 C 0.90394 0.2525 0.90515 0.0
C2174 C 0.89143 0.1876 0.82793 0.0
C2175 C 0.87402 0.17409 0.83239 0.0
C2176 C 0.89443 0.20601 0.84247 0.0
C2177 C 0.87984 0.2114 0.86137 0.0
C2178 C 0.86244 0.19788 0.86552 0.0
C2179 C 0.85963 0.17954 0.85133 0.0
H2180 H 0.50466 0.10271 0.6635 0.0
H2181 H 0.5101 0.1711 0.65854 0.0
H2182 H 0.5331 0.09877 0.63328 0.0
H2183 H 0.53936 0.16709 0.62905 0.0
H2184 H 0.58269 0.1504 0.56136 0.0
H2185 H 0.55084 0.15568 0.58733 0.0
H2186 H 0.57078 0.10359 0.63404 0.0
H2187 H 0.60193 0.09833 0.60834 0.0
C2188 C 0.51173 0.11695 0.65582 0.0
C2189 C 0.50506 0.13723 0.66376 0.0
C2190 C 0.52831 0.11469 0.63864 0.0
C2191 C 0.53883 0.13261 0.6289 0.0
C2192 C 0.53165 0.15292 0.63606 0.0
C2193 C 0.515 0.1552 0.65326 0.0
C2194 C 0.58018 0.14019 0.57723 0.0
C2195 C 0.59484 0.12396 0.58277 0.0
C2196 C 0.56197 0.14319 0.59213 0.0
C2197 C 0.55803 0.12989 0.61269 0.0
C2198 C 0.57289 0.11383 0.61811 0.0
C2199 C 0.59092 0.1109 0.60339 0.0
H2200 H 0.67429 0.84942 0.35487 0.0
H2201 H 0.61784 0.8342 0.31302 0.0
H2202 H 0.66938 0.81786 0.37997 0.0
H2203 H 0.61265 0.80227 0.3388 0.0
H2204 H 0.60148 0.76326 0.41368 0.0
H2205 H 0.60443 0.79236 0.38385 0.0
H2206 H 0.67136 0.77885 0.37514 0.0
H2207 H 0.66844 0.74961 0.40449 0.0
C2208 C 0.66078 0.83927 0.35096 0.0
C2209 C 0.64639 0.84444 0.33198 0.0
C2210 C 0.65803 0.82106 0.36535 0.0
C2211 C 0.64072 0.80739 0.36135 0.0
C2212 C 0.62612 0.81254 0.34244 0.0
C2213 C 0.62905 0.83081 0.32771 0.0
C2214 C 0.61676 0.76619 0.40507 0.0
C2215 C 0.63479 0.75412 0.41185 0.0
C2216 C 0.61842 0.78292 0.38795 0.0
C2217 C 0.63817 0.78811 0.37728 0.0
C2218 C 0.65598 0.77555 0.38335 0.0
C2219 C 0.65431 0.7588 0.4003 0.0
H2220 H 0.94582 0.91066 0.06155 0.0
H2221 H 0.91299 0.86232 0.10311 0.0
H2222 H 0.97719 0.90618 0.08781 0.0
H2223 H 0.94417 0.85777 0.1296 0.0
H2224 H 1.00879 0.84598 0.16529 0.0
H2225 H 0.98087 0.8467 0.13394 0.0
H2226 H 0.98641 0.9151 0.12956 0.0
H2227 H 0.01486 0.91429 0.16008 0.0
C2228 C 0.94561 0.89861 0.07589 0.0
C2229 C 0.92731 0.88631 0.07978 0.0
C2230 C 0.96344 0.89622 0.09117 0.0
C2231 C 0.96327 0.88169 0.11101 0.0
C2232 C 0.9451 0.86887 0.11432 0.0
C2233 C 0.92726 0.87128 0.09897 0.0
C2234 C 1.00432 0.86115 0.15736 0.0
C2235 C 0.01416 0.88008 0.16533 0.0
C2236 C 0.9881 0.86158 0.13953 0.0
C2237 C 0.9813 0.88095 0.12911 0.0
C2238 C 0.99136 0.89983 0.13684 0.0
C2239 C 1.00754 0.8994 0.15466 0.0
H2240 H 0.66874 0.66679 0.85704 0.0
H2241 H 0.61615 0.6853 0.81042 0.0
H2242 H 0.66348 0.69814 0.88242 0.0
H2243 H 0.61069 0.71721 0.83636 0.0
H2244 H 0.59697 0.75727 0.91017 0.0
H2245 H 0.60006 0.72809 0.88023 0.0
H2246 H 0.66819 0.73651 0.87868 0.0
H2247 H 0.66527 0.76496 0.90902 0.0
C2248 C 0.65601 0.67764 0.85213 0.0
C2249 C 0.64285 0.67349 0.83167 0.0
C2250 C 0.65307 0.69574 0.86669 0.0
C2251 C 0.63684 0.7104 0.86132 0.0
C2252 C 0.62333 0.7062 0.84104 0.0
C2253 C 0.62641 0.68794 0.82621 0.0
C2254 C 0.61262 0.75293 0.90339 0.0
C2255 C 0.63089 0.76346 0.91228 0.0
C2256 C 0.61434 0.73633 0.88601 0.0
C2257 C 0.63438 0.72977 0.87722 0.0
C2258 C 0.65251 0.74092 0.88531 0.0
C2259 C 0.6508 0.75746 0.90256 0.0
H2260 H 0.60364 0.42058 0.10919 0.0
H2261 H 0.58281 0.36918 0.06201 0.0
H2262 H 0.57359 0.4148 0.13642 0.0
H2263 H 0.5524 0.36298 0.09004 0.0
H2264 H 0.4891 0.37656 0.13582 0.0
H2265 H 0.5183 0.38022 0.10587 0.0
H2266 H 0.56261 0.38821 0.16616 0.0
H2267 H 0.53367 0.3853 0.19577 0.0
C2268 C 0.59264 0.40791 0.10465 0.0
C2269 C 0.5958 0.39518 0.08354 0.0
C2270 C 0.57541 0.40451 0.12044 0.0
C2271 C 0.56067 0.38824 0.1157 0.0
C2272 C 0.56347 0.37566 0.09425 0.0
C2273 C 0.58094 0.37907 0.07832 0.0
C2274 C 0.50507 0.37923 0.14263 0.0
C2275 C 0.50896 0.38067 0.16828 0.0
C2276 C 0.52184 0.38106 0.12546 0.0
C2277 C 0.54282 0.3846 0.13356 0.0
C2278 C 0.54665 0.38575 0.15919 0.0
C2279 C 0.53001 0.38387 0.17625 0.0
H2280 H 0.86281 0.32144 0.3069 0.0
H2281 H 0.8973 0.3602 0.35898 0.0
H2282 H 0.86808 0.29024 0.33346 0.0
H2283 H 0.90265 0.32923 0.38564 0.0
H2284 H 0.92083 0.26616 0.42103 0.0
H2285 H 0.91964 0.29457 0.39035 0.0
H2286 H 0.8545 0.27836 0.37347 0.0
H2287 H 0.85591 0.24947 0.40355 0.0
C2288 C 0.87204 0.32308 0.32373 0.0
C2289 C 0.88014 0.343 0.33065 0.0
C2290 C 0.87483 0.30533 0.33911 0.0
C2291 C 0.88573 0.30717 0.3618 0.0
C2292 C 0.89443 0.32708 0.36821 0.0
C2293 C 0.89147 0.34484 0.35291 0.0
C2294 C 0.90634 0.2684 0.41052 0.0
C2295 C 0.88846 0.25544 0.41487 0.0
C2296 C 0.9056 0.28488 0.39307 0.0
C2297 C 0.88698 0.28884 0.37938 0.0
C2298 C 0.86921 0.27566 0.38342 0.0
C2299 C 0.86993 0.25923 0.40094 0.0
H2300 H 0.9367 0.6499 0.56015 0.0
H2301 H 0.91724 0.59993 0.61002 0.0
H2302 H 0.96901 0.65541 0.58524 0.0
H2303 H 0.94879 0.60543 0.63476 0.0
H2304 H 0.01517 0.60296 0.66192 0.0
H2305 H 0.98643 0.59929 0.63222 0.0
H2306 H 0.9814 0.66766 0.62683 0.0
H2307 H 0.01101 0.6714 0.65585 0.0
C2308 C 0.93924 0.64022 0.57646 0.0
C2309 C 0.92446 0.62443 0.58302 0.0
C2310 C 0.95771 0.64335 0.59083 0.0
C2311 C 0.96172 0.63062 0.61186 0.0
C2312 C 0.94663 0.61516 0.61841 0.0
C2313 C 0.92838 0.6121 0.60423 0.0
C2314 C 1.00836 0.61727 0.65406 0.0
C2315 C 0.01544 0.63749 0.66158 0.0
C2316 C 0.99161 0.61516 0.63719 0.0
C2317 C 0.98129 0.63319 0.62737 0.0
C2318 C 0.98894 0.65343 0.63397 0.0
C2319 C 1.00578 0.65555 0.65088 0.0
H2320 H 0.61938 0.33124 0.75471 0.0
H2321 H 0.66872 0.35282 0.70507 0.0
H2322 H 0.6125 0.30082 0.72686 0.0
H2323 H 0.66219 0.32285 0.67795 0.0
H2324 H 0.63049 0.28302 0.62009 0.0
H2325 H 0.63369 0.3119 0.64979 0.0
H2326 H 0.63078 0.2669 0.71001 0.0
H2327 H 0.62694 0.23772 0.68004 0.0
C2328 C 0.62866 0.32953 0.7379 0.0
C2329 C 0.6444 0.34456 0.73195 0.0
C2330 C 0.62486 0.31208 0.72208 0.0
C2331 C 0.63665 0.30954 0.70001 0.0
C2332 C 0.65253 0.32448 0.69448 0.0
C2333 C 0.65636 0.34165 0.71019 0.0
C2334 C 0.63022 0.2792 0.63964 0.0
C2335 C 0.62845 0.25797 0.6476 0.0
C2336 C 0.63224 0.29579 0.65671 0.0
C2337 C 0.63261 0.29173 0.68231 0.0
C2338 C 0.63042 0.27058 0.69043 0.0
C2339 C 0.62848 0.25385 0.67325 0.0
H2340 H 0.91669 0.42147 0.95568 0.0
H2341 H 0.93509 0.36868 1.00206 0.0
H2342 H 0.94788 0.41606 0.93009 0.0
H2343 H 0.96688 0.36313 0.97601 0.0
H2344 H 1.00678 0.34855 0.90298 0.0
H2345 H 0.97768 0.35223 0.93288 0.0
H2346 H 0.98605 0.4204 0.93252 0.0
H2347 H 0.01438 0.41687 0.90211 0.0
C2348 C 0.9275 0.40869 0.96051 0.0
C2349 C 0.92335 0.39549 0.98094 0.0
C2350 C 0.94553 0.40566 0.94584 0.0
C2351 C 0.96012 0.38932 0.95108 0.0
C2352 C 0.95594 0.37585 0.9714 0.0
C2353 C 0.93776 0.37899 0.98632 0.0
C2354 C 1.00241 0.36434 0.90928 0.0
C2355 C 0.01291 0.38243 0.89984 0.0
C2356 C 0.98587 0.3664 0.92666 0.0
C2357 C 0.97933 0.38662 0.93495 0.0
C2358 C 0.99041 0.40459 0.92628 0.0
C2359 C 1.0069 0.40254 0.90899 0.0
H2360 H 0.91877 0.75458 0.14927 0.0
H2361 H 0.85346 0.77175 0.16461 0.0
H2362 H 0.91663 0.72626 0.18032 0.0
H2363 H 0.8513 0.74326 0.19506 0.0
H2364 H 0.84696 0.67123 0.21011 0.0
H2365 H 0.85221 0.70343 0.18636 0.0
H2366 H 0.90912 0.71721 0.228 0.0
H2367 H 0.90344 0.6847 0.25279 0.0
C2368 C 0.90411 0.75265 0.15957 0.0
C2369 C 0.88616 0.76527 0.15405 0.0
C2370 C 0.90292 0.73641 0.17737 0.0
C2371 C 0.88374 0.73238 0.18991 0.0
C2372 C 0.86622 0.74578 0.18543 0.0
C2373 C 0.86743 0.76203 0.16783 0.0
C2374 C 0.86057 0.6811 0.21448 0.0
C2375 C 0.87489 0.67524 0.23326 0.0
C2376 C 0.86352 0.69966 0.20085 0.0
C2377 C 0.881 0.71295 0.20536 0.0
C2378 C 0.89552 0.70719 0.22407 0.0
C2379 C 0.89234 0.68859 0.23817 0.0
H2380 H 0.60065 0.59914 0.45521 0.0
H2381 H 0.58239 0.65168 0.50228 0.0
H2382 H 0.56956 0.60483 0.42972 0.0
H2383 H 0.55056 0.6574 0.47645 0.0
H2384 H 0.50948 0.67237 0.4051 0.0
H2385 H 0.53889 0.66853 0.43437 0.0
H2386 H 0.53177 0.60024 0.43163 0.0
H2387 H 0.50319 0.60397 0.40169 0.0
C2388 C 0.58987 0.61192 0.46023 0.0
C2389 C 0.59401 0.62492 0.48087 0.0
C2390 C 0.57188 0.6151 0.44562 0.0
C2391 C 0.55725 0.63136 0.45115 0.0
C2392 C 0.56149 0.64472 0.47161 0.0
C2393 C 0.57969 0.64148 0.48642 0.0
C2394 C 0.51422 0.65651 0.41068 0.0
C2395 C 0.50399 0.63847 0.40068 0.0
C2396 C 0.53095 0.65434 0.42774 0.0
C2397 C 0.53794 0.63407 0.43522 0.0
C2398 C 0.52712 0.61611 0.426 0.0
C2399 C 0.51047 0.61827 0.40898 0.0
H2400 H 0.39513 0.23981 0.17917 0.0
H2401 H 0.37953 0.28345 0.12017 0.0
H2402 H 0.39158 0.26887 0.20933 0.0
H2403 H 0.37679 0.31231 0.1499 0.0
H2404 H 0.34672 0.35249 0.20929 0.0
H2405 H 0.35211 0.3225 0.18183 0.0
H2406 H 0.40741 0.30361 0.22384 0.0
H2407 H 0.40156 0.33389 0.2522 0.0
C2408 C 0.39096 0.25555 0.1726 0.0
C2409 C 0.38758 0.25918 0.14714 0.0
C2410 C 0.38919 0.27227 0.18987 0.0
C2411 C 0.38381 0.29298 0.18213 0.0
C2412 C 0.38069 0.29656 0.15667 0.0
C2413 C 0.38249 0.27997 0.1395 0.0
C2414 C 0.36007 0.342 0.21284 0.0
C2415 C 0.37387 0.34579 0.23282 0.0
C2416 C 0.36325 0.3248 0.19688 0.0
C2417 C 0.38039 0.31073 0.20028 0.0
C2418 C 0.39403 0.31414 0.22066 0.0
C2419 C 0.39082 0.33155 0.23679 0.0
H2420 H 0.51518 0.60263 0.90309 0.0
H2421 H 0.50989 0.67112 0.90723 0.0
H2422 H 0.48653 0.5992 0.93306 0.0
H2423 H 0.48039 0.66759 0.93649 0.0
H2424 H 0.43611 0.65119 1.0037 0.0
H2425 H 0.46836 0.65629 0.97837 0.0
H2426 H 0.4488 0.60458 0.93082 0.0
H2427 H 0.41726 0.59949 0.95584 0.0
C2428 C 0.50813 0.61701 0.91058 0.0
C2429 C 0.51487 0.63716 0.90245 0.0
C2430 C 0.49144 0.61503 0.9276 0.0
C2431 C 0.48085 0.63311 0.93696 0.0
C2432 C 0.48816 0.65331 0.92973 0.0
C2433 C 0.50493 0.65531 0.91268 0.0
C2434 C 0.43879 0.64102 0.98778 0.0
C2435 C 0.42416 0.62491 0.98183 0.0
C2436 C 0.45722 0.64392 0.97326 0.0
C2437 C 0.46138 0.63064 0.9527 0.0
C2438 C 0.4465 0.61477 0.94681 0.0
C2439 C 0.42826 0.61195 0.96113 0.0
H2440 H 0.09788 0.75752 0.65159 0.0
H2441 H 0.1653 0.76942 0.65858 0.0
H2442 H 0.10078 0.72851 0.6816 0.0
H2443 H 0.16816 0.74029 0.68806 0.0
H2444 H 0.17006 0.66967 0.70735 0.0
H2445 H 0.16478 0.70121 0.68241 0.0
H2446 H 0.11032 0.71852 0.72693 0.0
H2447 H 0.11591 0.68655 0.75265 0.0
C2448 C 0.11326 0.75423 0.65975 0.0
C2449 C 0.13142 0.76573 0.65228 0.0
C2450 C 0.11488 0.73756 0.67698 0.0
C2451 C 0.13473 0.73191 0.68703 0.0
C2452 C 0.15268 0.74397 0.68034 0.0
C2453 C 0.15106 0.76064 0.66329 0.0
C2454 C 0.15696 0.68016 0.71204 0.0
C2455 C 0.14335 0.6755 0.732 0.0
C2456 C 0.154 0.69836 0.69772 0.0
C2457 C 0.13726 0.71254 0.70276 0.0
C2458 C 0.12334 0.70785 0.72254 0.0
C2459 C 0.12648 0.68956 0.7372 0.0
H2460 H 0.99949 0.41858 0.40794 0.0
H2461 H 0.01251 0.3513 0.40082 0.0
H2462 H 0.02807 0.42172 0.43811 0.0
H2463 H 0.04101 0.35449 0.43148 0.0
H2464 H 0.08265 0.37004 0.50251 0.0
H2465 H 0.05055 0.36432 0.47707 0.0
H2466 H 0.06729 0.4187 0.43239 0.0
H2467 H 0.09898 0.42407 0.457 0.0
C2468 C 1.00838 0.40442 0.41282 0.0
C2469 C 1.00384 0.38476 0.40152 0.0
C2470 C 0.02473 0.40621 0.43025 0.0
C2471 C 0.03699 0.38839 0.43702 0.0
C2472 C 0.03178 0.36848 0.42679 0.0
C2473 C 0.01543 0.36669 0.40919 0.0
C2474 C 0.07947 0.38059 0.48711 0.0
C2475 C 0.09347 0.39739 0.48167 0.0
C2476 C 0.06111 0.37737 0.47261 0.0
C2477 C 0.05627 0.39119 0.45282 0.0
C2478 C 0.07028 0.40798 0.4477 0.0
C2479 C 0.08857 0.41099 0.46182 0.0
H2480 H 0.42018 0.76194 0.40457 0.0
H2481 H 0.35183 0.76386 0.41313 0.0
H2482 H 0.41671 0.73216 0.37565 0.0
H2483 H 0.34838 0.73497 0.38351 0.0
H2484 H 0.35042 0.66605 0.36021 0.0
H2485 H 0.35553 0.6976 0.3852 0.0
H2486 H 0.40413 0.71939 0.33463 0.0
H2487 H 0.39906 0.68707 0.30936 0.0
C2488 C 0.4044 0.75618 0.40018 0.0
C2489 C 0.3863 0.76528 0.41154 0.0
C2490 C 0.40242 0.73924 0.38333 0.0
C2491 C 0.38229 0.73091 0.37742 0.0
C2492 C 0.36419 0.74065 0.38793 0.0
C2493 C 0.36616 0.75749 0.40475 0.0
C2494 C 0.36221 0.67754 0.35426 0.0
C2495 C 0.37429 0.67405 0.33271 0.0
C2496 C 0.36504 0.69579 0.36858 0.0
C2497 C 0.37999 0.71132 0.36181 0.0
C2498 C 0.39247 0.70774 0.34043 0.0
C2499 C 0.38959 0.68928 0.32594 0.0
H2500 H 0.10418 0.59956 0.10905 0.0
H2501 H 0.08265 0.65 0.06104 0.0
H2502 H 0.07331 0.60449 0.13533 0.0
H2503 H 0.05106 0.6549 0.08754 0.0
H2504 H 0.00969 0.67009 0.15809 0.0
H2505 H 0.03917 0.66664 0.12881 0.0
H2506 H 0.03594 0.59825 0.13538 0.0
H2507 H 1.00729 0.60168 0.1654 0.0
C2508 C 0.09273 0.61171 0.10402 0.0
C2509 C 0.09591 0.62437 0.0829 0.0
C2510 C 0.07486 0.61444 0.11907 0.0
C2511 C 0.0594 0.62989 0.11349 0.0
C2512 C 0.06266 0.64288 0.0925 0.0
C2513 C 0.08073 0.64011 0.07729 0.0
C2514 C 0.01532 0.6543 0.15339 0.0
C2515 C 1.00612 0.63618 0.16446 0.0
C2516 C 0.0321 0.65233 0.13631 0.0
C2517 C 0.0402 0.63218 0.12983 0.0
C2518 C 0.03046 0.61407 0.14021 0.0
C2519 C 0.01375 0.61603 0.15726 0.0
H2520 H 0.11264 0.35606 0.85237 0.0
H2521 H 0.16299 0.32503 0.81184 0.0
H2522 H 0.10827 0.3244 0.8781 0.0
H2523 H 0.15867 0.29315 0.83732 0.0
H2524 H 0.16567 0.25457 0.90918 0.0
H2525 H 0.16663 0.28344 0.87919 0.0
H2526 H 0.09803 0.28741 0.88118 0.0
H2527 H 0.09712 0.2591 0.91202 0.0
C2528 C 0.12211 0.34208 0.84827 0.0
C2529 C 0.13764 0.34267 0.8296 0.0
C2530 C 0.11979 0.32396 0.86317 0.0
C2531 C 0.13318 0.30614 0.85993 0.0
C2532 C 0.14826 0.30661 0.84061 0.0
C2533 C 0.15056 0.32474 0.82577 0.0
C2534 C 0.15077 0.26163 0.90333 0.0
C2535 C 0.13133 0.25447 0.9132 0.0
C2536 C 0.1513 0.27805 0.88582 0.0
C2537 C 0.13239 0.28781 0.8776 0.0
C2538 C 0.11292 0.28044 0.88718 0.0
C2539 C 0.11239 0.26399 0.9047 0.0
H2540 H 0.5127 0.41361 0.66573 0.0
H2541 H 0.51105 0.34524 0.65725 0.0
H2542 H 0.48376 0.41701 0.63623 0.0
H2543 H 0.48126 0.34867 0.62843 0.0
H2544 H 0.4366 0.36659 0.56168 0.0
H2545 H 0.46863 0.36127 0.58729 0.0
H2546 H 0.44639 0.40983 0.63783 0.0
H2547 H 0.41511 0.41515 0.61253 0.0
C2548 C 0.50637 0.39927 0.65742 0.0
C2549 C 0.51426 0.37914 0.66417 0.0
C2550 C 0.4895 0.40121 0.64066 0.0
C2551 C 0.47986 0.3831 0.63017 0.0
C2552 C 0.48826 0.36298 0.63609 0.0
C2553 C 0.50521 0.36102 0.65288 0.0
C2554 C 0.43862 0.37596 0.57835 0.0
C2555 C 0.42337 0.39136 0.58498 0.0
C2556 C 0.45693 0.37296 0.59303 0.0
C2557 C 0.46034 0.38539 0.61448 0.0
C2558 C 0.44472 0.40036 0.62117 0.0
C2559 C 0.42662 0.40331 0.60666 0.0
H2560 H 0.10118 0.06403 0.24961 0.0
H2561 H 0.13738 0.0626 0.31751 0.0
H2562 H 0.10183 0.02485 0.24833 0.0
H2563 H 0.13729 0.02376 0.31663 0.0
H2564 H 0.10266 0.95517 0.31605 0.0
H2565 H 0.10289 0.99435 0.31708 0.0
H2566 H 0.13639 0.99543 0.24734 0.0
H2567 H 0.1369 0.95656 0.24668 0.0
C2568 C 0.1093 0.05538 0.26415 0.0
C2569 C 0.11933 0.06639 0.28352 0.0
C2570 C 0.10963 0.03304 0.26346 0.0
C2571 C 0.11947 0.02139 0.28251 0.0
C2572 C 0.12948 0.0324 0.30184 0.0
C2573 C 0.12964 0.05465 0.30219 0.0
C2574 C 0.11023 0.96382 0.30111 0.0
C2575 C 0.11987 0.95281 0.28141 0.0
C2576 C 0.11033 0.98615 0.30167 0.0
C2577 C 0.11953 0.9978 0.28218 0.0
C2578 C 0.12908 0.98679 0.26248 0.0
C2579 C 0.12949 0.96454 0.26224 0.0
H2580 H 0.20605 0.88809 0.56955 0.0
H2581 H 0.20423 0.85209 0.5014 0.0
H2582 H 0.24493 0.88758 0.56854 0.0
H2583 H 0.24339 0.85232 0.5 0.0
H2584 H 0.31152 0.88834 0.49871 0.0
H2585 H 0.27267 0.88825 0.50003 0.0
H2586 H 0.2743 0.85149 0.56737 0.0
H2587 H 0.31347 0.85084 0.56563 0.0
C2588 C 0.21394 0.88029 0.55418 0.0
C2589 C 0.2021 0.87017 0.53546 0.0
C2590 C 0.23618 0.87989 0.55375 0.0
C2591 C 0.24704 0.86984 0.53428 0.0
C2592 C 0.23529 0.86013 0.51523 0.0
C2593 C 0.21297 0.86004 0.516 0.0
C2594 C 0.30368 0.88032 0.5139 0.0
C2595 C 0.31555 0.86963 0.53216 0.0
C2596 C 0.28144 0.88017 0.51451 0.0
C2597 C 0.27061 0.86979 0.5337 0.0
C2598 C 0.28239 0.85957 0.55235 0.0
C2599 C 0.30471 0.85923 0.5514 0.0
H2600 H 0.43251 0.95628 0.76649 0.0
H2601 H 0.36855 0.95588 0.79576 0.0
H2602 H 0.43229 0.99522 0.76692 0.0
H2603 H 0.36832 0.99477 0.79623 0.0
H2604 H 0.36985 0.06455 0.76786 0.0
H2605 H 0.36894 0.02572 0.76773 0.0
H2606 H 0.43217 0.02411 0.79888 0.0
H2607 H 0.43306 0.06307 0.79901 0.0
C2608 C 0.41832 0.96451 0.77274 0.0
C2609 C 0.40055 0.95303 0.78109 0.0
C2610 C 0.41827 0.98681 0.77323 0.0
C2611 C 0.40037 0.9981 0.78186 0.0
C2612 C 0.38233 0.98657 0.7894 0.0
C2613 C 0.38246 0.96429 0.78911 0.0
C2614 C 0.38344 0.05592 0.77502 0.0
C2615 C 0.40152 0.06687 0.78347 0.0
C2616 C 0.38292 0.03366 0.77492 0.0
C2617 C 0.40056 0.0218 0.78308 0.0
C2618 C 0.41845 0.03278 0.79212 0.0
C2619 C 0.41889 0.05508 0.79244 0.0
H2620 H 0.20519 0.11901 1.02038 0.0
H2621 H 0.20543 0.18283 0.05008 0.0
H2622 H 0.24405 0.11882 1.02005 0.0
H2623 H 0.24437 0.18262 0.04994 0.0
H2624 H 0.31244 0.18372 1.01871 0.0
H2625 H 0.27348 0.18294 1.0188 0.0
H2626 H 0.27493 0.11899 0.04797 0.0
H2627 H 0.31374 0.11976 0.04773 0.0
C2628 C 0.21356 0.13289 1.02717 0.0
C2629 C 0.20226 0.15094 0.03523 0.0
C2630 C 0.23584 0.13279 1.02698 0.0
C2631 C 0.24734 0.15078 0.03473 0.0
C2632 C 0.236 0.16863 0.04344 0.0
C2633 C 0.2137 0.16867 0.04379 0.0
C2634 C 0.30441 0.16942 1.02484 0.0
C2635 C 0.31614 0.1518 0.0332 0.0
C2636 C 0.2821 0.16905 1.02515 0.0
C2637 C 0.27106 0.15097 0.03362 0.0
C2638 C 0.28288 0.13312 0.04121 0.0
C2639 C 0.30514 0.13356 0.04107 0.0
H2640 H 0.86901 0.06364 0.79812 0.0
H2641 H 0.9325 0.06188 0.76758 0.0
H2642 H 0.86779 0.02479 0.79771 0.0
H2643 H 0.9313 0.02294 0.76712 0.0
H2644 H 0.93097 0.95474 0.79775 0.0
H2645 H 0.931 0.99366 0.7982 0.0
H2646 H 0.86708 0.99404 0.76897 0.0
H2647 H 0.86705 0.95514 0.7686 0.0
C2648 C 0.88261 0.05494 0.79101 0.0
C2649 C 0.90085 0.06582 0.78287 0.0
C2650 C 0.88191 0.03267 0.79078 0.0
C2651 C 0.89952 0.02073 0.7826 0.0
C2652 C 0.91759 0.03165 0.77391 0.0
C2653 C 0.91821 0.05396 0.77393 0.0
C2654 C 0.91684 0.96314 0.7917 0.0
C2655 C 0.89901 0.95187 0.78311 0.0
C2656 C 0.91694 0.98544 0.79171 0.0
C2657 C 0.89913 0.99699 0.78336 0.0
C2658 C 0.88103 0.98567 0.7756 0.0
C2659 C 0.881 0.96337 0.77539 0.0
H2660 H 0.70549 0.18381 0.51866 0.0
H2661 H 0.7047 0.11939 0.54632 0.0
H2662 H 0.74443 0.18327 0.51873 0.0
H2663 H 0.74354 0.11886 0.54652 0.0
H2664 H 0.81249 0.18289 0.54999 0.0
H2665 H 0.77353 0.18249 0.55012 0.0
H2666 H 0.77429 0.11947 0.51808 0.0
H2667 H 0.8131 0.11986 0.51806 0.0
C2668 C 0.71364 0.16947 0.52448 0.0
C2669 C 0.70206 0.15165 0.53248 0.0
C2670 C 0.73593 0.16923 0.52478 0.0
C2671 C 0.7471 0.1511 0.53287 0.0
C2672 C 0.73546 0.13304 0.54008 0.0
C2673 C 0.7132 0.13334 0.53996 0.0
C2674 C 0.8043 0.16886 0.54329 0.0
C2675 C 0.81584 0.1514 0.53404 0.0
C2676 C 0.782 0.16871 0.54311 0.0
C2677 C 0.77079 0.15102 0.53388 0.0
C2678 C 0.7824 0.13329 0.52542 0.0
C2679 C 0.80466 0.13352 0.52542 0.0
H2680 H 0.5856 0.06254 0.29873 0.0
H2681 H 0.64927 0.06426 0.26871 0.0
H2682 H 0.58677 0.02361 0.29868 0.0
H2683 H 0.65042 0.02541 0.26852 0.0
H2684 H 0.58691 0.95566 0.2675 0.0
H2685 H 0.58698 0.99458 0.26755 0.0
H2686 H 0.65108 0.99435 0.29629 0.0
H2687 H 0.65103 0.95546 0.29607 0.0
C2688 C 0.59992 0.05461 0.29238 0.0
C2689 C 0.61733 0.06647 0.28372 0.0
C2690 C 0.60052 0.03231 0.2921 0.0
C2691 C 0.61861 0.02136 0.28335 0.0
C2692 C 0.63628 0.03329 0.27548 0.0
C2693 C 0.63562 0.05557 0.2756 0.0
C2694 C 0.6011 0.96393 0.27354 0.0
C2695 C 0.61895 0.95249 0.28182 0.0
C2696 C 0.60107 0.98623 0.27382 0.0
C2697 C 0.61895 0.99762 0.2822 0.0
C2698 C 0.63707 0.98612 0.28964 0.0
C2699 C 0.63704 0.96383 0.28952 0.0
H2700 H 0.70551 0.89246 1.00189 0.0
H2701 H 0.70703 0.85069 0.06534 0.0
H2702 H 0.74438 0.89368 1.00161 0.0
H2703 H 0.74614 0.8526 0.06544 0.0
H2704 H 0.81402 0.89198 0.06458 0.0
H2705 H 0.77512 0.89282 0.06512 0.0
H2706 H 0.77362 0.8537 0.9995 0.0
H2707 H 0.81275 0.85216 0.9993 0.0
C2708 C 0.7141 0.88384 1.01605 0.0
C2709 C 0.70322 0.87144 0.03367 0.0
C2710 C 0.73633 0.88448 1.01575 0.0
C2711 C 0.74807 0.87315 0.0334 0.0
C2712 C 0.73729 0.86142 0.05163 0.0
C2713 C 0.71501 0.86038 0.05161 0.0
C2714 C 0.80546 0.88372 0.05009 0.0
C2715 C 0.81643 0.87199 1.03184 0.0
C2716 C 0.78323 0.88412 0.05055 0.0
C2717 C 0.77156 0.87323 1.03246 0.0
C2718 C 0.78241 0.86216 1.01366 0.0
C2719 C 0.8047 0.86135 1.0135 0.0
H2720 H 0.59901 0.56296 0.74893 0.0
H2721 H 0.63676 0.56127 0.81569 0.0
H2722 H 0.59899 0.52376 0.74792 0.0
H2723 H 0.63599 0.52241 0.81508 0.0
H2724 H 0.59808 0.45413 0.81345 0.0
H2725 H 0.59828 0.49335 0.8145 0.0
H2726 H 0.63646 0.49439 0.74812 0.0
H2727 H 0.63698 0.45556 0.74747 0.0
C2728 C 0.6073 0.55425 0.76328 0.0
C2729 C 0.61799 0.56516 0.78225 0.0
C2730 C 0.60722 0.53192 0.76277 0.0
C2731 C 0.61733 0.52024 0.78158 0.0
C2732 C 0.62797 0.53113 0.80051 0.0
C2733 C 0.62852 0.55336 0.80069 0.0
C2734 C 0.60664 0.46278 0.79926 0.0
C2735 C 0.6176 0.45179 0.7805 0.0
C2736 C 0.60671 0.48511 0.79981 0.0
C2737 C 0.61724 0.49671 0.78124 0.0
C2738 C 0.62812 0.48574 0.7625 0.0
C2739 C 0.62851 0.46351 0.76229 0.0
H2740 H 0.81302 0.33699 0.04767 0.0
H2741 H 0.81315 0.40061 1.01761 0.0
H2742 H 0.77408 0.33723 0.04793 0.0
H2743 H 0.77427 0.40086 1.01779 0.0
H2744 H 0.70476 0.39984 0.04702 0.0
H2745 H 0.74359 0.40067 0.04666 0.0
H2746 H 0.74487 0.33695 1.01658 0.0
H2747 H 0.70592 0.33613 1.01699 0.0
C2748 C 0.80473 0.35111 0.04139 0.0
C2749 C 0.81613 0.36878 0.03261 0.0
C2750 C 0.78244 0.35117 0.04129 0.0
C2751 C 0.77106 0.36898 0.03264 0.0
C2752 C 0.78252 0.38692 1.02466 0.0
C2753 C 0.8048 0.38678 1.02456 0.0
C2754 C 0.71332 0.38611 0.04001 0.0
C2755 C 0.70229 0.36792 1.03202 0.0
C2756 C 0.73559 0.38659 0.03982 0.0
C2757 C 0.74735 0.36881 1.03181 0.0
C2758 C 0.73628 0.35079 1.02323 0.0
C2759 C 0.71398 0.35039 1.02322 0.0
H2760 H 0.87859 0.5625 0.24842 0.0
H2761 H 0.91942 0.56323 0.31269 0.0
H2762 H 0.87778 0.52367 0.24954 0.0
H2763 H 0.9179 0.52408 0.31424 0.0
H2764 H 0.88027 0.45627 0.31737 0.0
H2765 H 0.88054 0.4952 0.31678 0.0
H2766 H 0.91433 0.49413 0.24723 0.0
H2767 H 0.9148 0.45498 0.24817 0.0
C2768 C 0.88717 0.5544 0.263 0.0
C2769 C 0.8991 0.5659 0.28051 0.0
C2770 C 0.88676 0.53218 0.2635 0.0
C2771 C 0.89783 0.52103 0.28188 0.0
C2772 C 0.90926 0.53245 0.29988 0.0
C2773 C 0.9101 0.55474 0.29902 0.0
C2774 C 0.88763 0.46429 0.30184 0.0
C2775 C 0.89749 0.45261 0.28273 0.0
C2776 C 0.8879 0.48654 0.30165 0.0
C2777 C 0.89756 0.49751 0.28205 0.0
C2778 C 0.90684 0.48591 0.26255 0.0
C2779 C 0.90705 0.46361 0.26305 0.0
H2780 H 0.70478 0.66681 0.56485 0.0
H2781 H 0.70651 0.62886 0.49813 0.0
H2782 H 0.74395 0.66651 0.56602 0.0
H2783 H 0.74536 0.6293 0.49888 0.0
H2784 H 0.81366 0.66668 0.49988 0.0
H2785 H 0.77447 0.66604 0.4987 0.0
H2786 H 0.77346 0.63007 0.56663 0.0
H2787 H 0.81231 0.62996 0.56741 0.0
C2788 C 0.7135 0.65838 0.55055 0.0
C2789 C 0.70258 0.64776 0.53153 0.0
C2790 C 0.73582 0.65826 0.55117 0.0
C2791 C 0.74753 0.64802 0.5324 0.0
C2792 C 0.73664 0.63741 0.51343 0.0
C2793 C 0.7144 0.63705 0.51316 0.0
C2794 C 0.80502 0.65847 0.51437 0.0
C2795 C 0.81604 0.64828 0.53362 0.0
C2796 C 0.7827 0.65815 0.51374 0.0
C2797 C 0.77109 0.64814 0.5327 0.0
C2798 C 0.78209 0.63799 0.55191 0.0
C2799 C 0.80433 0.63783 0.55221 0.0
H2800 H 0.43223 0.56336 0.26557 0.0
H2801 H 0.36936 0.56372 0.29787 0.0
H2802 H 0.43205 0.52441 0.26553 0.0
H2803 H 0.3692 0.52486 0.29799 0.0
H2804 H 0.36945 0.45508 0.2701 0.0
H2805 H 0.36859 0.49393 0.26989 0.0
H2806 H 0.4333 0.49534 0.2967 0.0
H2807 H 0.43415 0.4564 0.29677 0.0
C2808 C 0.41829 0.55512 0.2724 0.0
C2809 C 0.40082 0.5666 0.28173 0.0
C2810 C 0.41826 0.53281 0.27263 0.0
C2811 C 0.40069 0.5215 0.282 0.0
C2812 C 0.38294 0.53304 0.29054 0.0
C2813 C 0.38304 0.55532 0.29048 0.0
C2814 C 0.3834 0.46369 0.27625 0.0
C2815 C 0.40187 0.45269 0.28345 0.0
C2816 C 0.38291 0.48596 0.27612 0.0
C2817 C 0.40094 0.49778 0.28305 0.0
C2818 C 0.41925 0.48673 0.29086 0.0
C2819 C 0.41968 0.46443 0.29116 0.0
H2820 H 0.31274 0.68296 0.04763 0.0
H2821 H 0.31422 0.61958 1.0167 0.0
H2822 H 0.27379 0.6822 0.04729 0.0
H2823 H 0.2754 0.61883 1.01625 0.0
H2824 H 0.20551 0.61853 0.04406 0.0
H2825 H 0.24436 0.61821 0.04423 0.0
H2826 H 0.24488 0.68243 1.01584 0.0
H2827 H 0.20594 0.68277 1.01581 0.0
C2828 C 0.30475 0.66879 0.04103 0.0
C2829 C 0.31654 0.65133 1.03222 0.0
C2830 C 0.28245 0.66843 0.04059 0.0
C2831 C 0.27146 0.65053 1.03152 0.0
C2832 C 0.28332 0.63282 1.02347 0.0
C2833 C 0.30558 0.63325 1.02374 0.0
C2834 C 0.21392 0.63248 0.03754 0.0
C2835 C 0.20267 0.65068 1.02996 0.0
C2836 C 0.2362 0.6323 0.03765 0.0
C2837 C 0.24775 0.65038 1.03031 0.0
C2838 C 0.23646 0.66837 1.02201 0.0
C2839 C 0.21416 0.66849 1.02173 0.0
H2840 H 0.13848 0.45667 0.81717 0.0
H2841 H 0.10305 0.45656 0.74869 0.0
H2842 H 0.13862 0.49561 0.81709 0.0
H2843 H 0.10391 0.49572 0.74829 0.0
H2844 H 0.14267 0.56353 0.75155 0.0
H2845 H 0.14316 0.52468 0.75233 0.0
H2846 H 0.09919 0.52502 0.81367 0.0
H2847 H 0.09802 0.5642 0.81245 0.0
C2848 C 0.13101 0.46494 0.8019 0.0
C2849 C 0.12078 0.45358 0.78285 0.0
C2850 C 0.13098 0.4872 0.80201 0.0
C2851 C 0.12117 0.49849 0.78279 0.0
C2852 C 0.1115 0.48723 0.76334 0.0
C2853 C 0.11108 0.46493 0.76352 0.0
C2854 C 0.13318 0.55542 0.76535 0.0
C2855 C 0.12026 0.56693 0.78197 0.0
C2856 C 0.13342 0.53318 0.76565 0.0
C2857 C 0.12114 0.52202 0.78294 0.0
C2858 C 0.10875 0.53341 0.80014 0.0
C2859 C 0.10812 0.55573 0.79948 0.0
H2860 H 0.20623 0.38795 0.49447 0.0
H2861 H 0.20401 0.35265 0.56298 0.0
H2862 H 0.24509 0.3872 0.49547 0.0
H2863 H 0.24318 0.35264 0.56437 0.0
H2864 H 0.31138 0.38807 0.56579 0.0
H2865 H 0.27255 0.388 0.56439 0.0
H2866 H 0.27443 0.35159 0.49667 0.0
H2867 H 0.31359 0.35091 0.49848 0.0
C2868 C 0.21403 0.38024 0.50991 0.0
C2869 C 0.20208 0.37041 0.52875 0.0
C2870 C 0.23627 0.3797 0.51034 0.0
C2871 C 0.24703 0.3698 0.52991 0.0
C2872 C 0.23516 0.36034 0.54905 0.0
C2873 C 0.21284 0.36038 0.5483 0.0
C2874 C 0.3036 0.38012 0.55049 0.0
C2875 C 0.31555 0.36952 0.53215 0.0
C2876 C 0.28137 0.37998 0.54985 0.0
C2877 C 0.2706 0.36971 0.53053 0.0
C2878 C 0.28246 0.35958 0.51179 0.0
C2879 C 0.30477 0.35924 0.51278 0.0
H2880 H 0.13516 0.17711 0.09477 0.0
H2881 H 0.11444 0.11173 0.09688 0.0
H2882 H 0.13234 0.17901 0.14018 0.0
H2883 H 0.11089 0.11389 0.14199 0.0
H2884 H 0.09109 0.13357 0.22244 0.0
H2885 H 0.08913 0.13658 0.17712 0.0
H2886 H 0.15473 0.15644 0.17495 0.0
H2887 H 0.15695 0.15275 0.22003 0.0
C2888 C 0.1294 0.16336 0.10483 0.0
C2889 C 0.1249 0.14431 0.09216 0.0
C2890 C 0.12795 0.1644 0.13083 0.0
C2891 C 0.12137 0.1466 0.14469 0.0
C2892 C 0.11584 0.12792 0.13188 0.0
C2893 C 0.11788 0.12669 0.10602 0.0
C2894 C 0.10498 0.13896 0.21234 0.0
C2895 C 0.12416 0.14298 0.22493 0.0
C2896 C 0.10388 0.14056 0.18637 0.0
C2897 C 0.12176 0.14681 0.17243 0.0
C2898 C 0.14063 0.15177 0.18514 0.0
C2899 C 0.1419 0.14961 0.21098 0.0
H2900 H 0.13766 0.91162 0.46772 0.0
H2901 H 0.11642 0.84644 0.47394 0.0
H2902 H 0.13564 0.90924 0.42303 0.0
H2903 H 0.1141 0.84431 0.42838 0.0
H2904 H 0.09603 0.86682 0.34273 0.0
H2905 H 0.09404 0.86443 0.38826 0.0
H2906 H 0.15907 0.88569 0.39339 0.0
H2907 H 0.1613 0.88779 0.34866 0.0
C2908 C 0.1323 0.89677 0.45967 0.0
C2909 C 0.12743 0.87912 0.47473 0.0
C2910 C 0.13119 0.89545 0.43388 0.0
C2911 C 0.12495 0.87654 0.42208 0.0
C2912 C 0.11896 0.85912 0.43694 0.0
C2913 C 0.12031 0.86035 0.46303 0.0
C2914 C 0.10999 0.87063 0.35357 0.0
C2915 C 0.12875 0.87769 0.3418 0.0
C2916 C 0.10885 0.86923 0.37965 0.0
C2917 C 0.12633 0.87512 0.39445 0.0
C2918 C 0.14523 0.88129 0.38258 0.0
C2919 C 0.14647 0.88246 0.35678 0.0
H2920 H 0.36056 0.86632 0.71873 0.0
H2921 H 0.4265 0.8852 0.72087 0.0
H2922 H 0.3627 0.86256 0.67364 0.0
H2923 H 0.42838 0.88218 0.67549 0.0
H2924 H 0.40228 0.90749 0.59564 0.0
H2925 H 0.406 0.90525 0.64072 0.0
H2926 H 0.38533 0.83989 0.63864 0.0
H2927 H 0.38234 0.84185 0.5933 0.0
C2928 C 0.37563 0.86933 0.70961 0.0
C2929 C 0.39341 0.8759 0.72346 0.0
C2930 C 0.37684 0.86715 0.68376 0.0
C2931 C 0.3957 0.87209 0.67098 0.0
C2932 C 0.41365 0.87823 0.68483 0.0
C2933 C 0.41261 0.87982 0.71082 0.0
C2934 C 0.39899 0.89248 0.60471 0.0
C2935 C 0.39215 0.8748 0.5908 0.0
C2936 C 0.40116 0.8912 0.63054 0.0
C2937 C 0.39596 0.8724 0.64326 0.0
C2938 C 0.3895 0.85458 0.62936 0.0
C2939 C 0.38791 0.85567 0.60339 0.0
H2940 H 0.35973 0.13433 0.84891 0.0
H2941 H 0.42597 0.15198 0.84249 0.0
H2942 H 0.36203 0.13704 0.89359 0.0
H2943 H 0.42799 0.15506 0.88803 0.0
H2944 H 0.402 0.17522 0.97417 0.0
H2945 H 0.40539 0.17746 0.92867 0.0
H2946 H 0.38741 0.11152 0.92249 0.0
H2947 H 0.38441 0.10901 0.96712 0.0
C2948 C 0.3748 0.1391 0.8569 0.0
C2949 C 0.39276 0.14269 0.8418 0.0
C2950 C 0.37604 0.14066 0.88267 0.0
C2951 C 0.39519 0.14612 0.89439 0.0
C2952 C 0.41297 0.15089 0.87949 0.0
C2953 C 0.41181 0.1491 0.85342 0.0
C2954 C 0.39921 0.1611 0.96312 0.0
C2955 C 0.3927 0.142 0.97454 0.0
C2956 C 0.40117 0.1624 0.93707 0.0
C2957 C 0.39647 0.14469 0.922 0.0
C2958 C 0.39096 0.12548 0.93354 0.0
C2959 C 0.38922 0.12411 0.95928 0.0
H2960 H 0.92506 0.88356 0.84189 0.0
H2961 H 0.85877 0.866 0.84486 0.0
H2962 H 0.9272 0.88058 0.88724 0.0
H2963 H 0.86114 0.86231 0.88991 0.0
H2964 H 0.88095 0.84072 0.96956 0.0
H2965 H 0.88329 0.83912 0.92418 0.0
H2966 H 0.90594 0.90383 0.92269 0.0
H2967 H 0.90293 0.90573 0.9679 0.0
C2968 C 0.91113 0.87849 0.85212 0.0
C2969 C 0.89178 0.87491 0.83972 0.0
C2970 C 0.91231 0.87694 0.87809 0.0
C2971 C 0.89434 0.87118 0.89216 0.0
C2972 C 0.87529 0.86662 0.87961 0.0
C2973 C 0.87395 0.86875 0.8538 0.0
C2974 C 0.88678 0.85449 0.95959 0.0
C2975 C 0.8918 0.87334 0.97241 0.0
C2976 C 0.888 0.85359 0.9336 0.0
C2977 C 0.89485 0.87133 0.91985 0.0
C2978 C 0.90078 0.88985 0.93275 0.0
C2979 C 0.899 0.89094 0.95865 0.0
H2980 H 0.92493 0.15138 0.7237 0.0
H2981 H 0.85874 0.13352 0.71753 0.0
H2982 H 0.92689 0.15445 0.67816 0.0
H2983 H 0.86097 0.13622 0.67286 0.0
H2984 H 0.88261 0.1088 0.59882 0.0
H2985 H 0.88551 0.11106 0.64348 0.0
H2986 H 0.90508 0.17659 0.63793 0.0
H2987 H 0.90182 0.1746 0.59242 0.0
C2988 C 0.91076 0.14845 0.71283 0.0
C2989 C 0.89175 0.14197 0.72451 0.0
C2990 C 0.9119 0.15022 0.68676 0.0
C2991 C 0.89412 0.14536 0.67192 0.0
C2992 C 0.875 0.13987 0.68372 0.0
C2993 C 0.87379 0.13832 0.70949 0.0
C2994 C 0.88775 0.12376 0.60681 0.0
C2995 C 0.89174 0.14162 0.59173 0.0
C2996 C 0.88942 0.12499 0.63257 0.0
C2997 C 0.89536 0.14402 0.64429 0.0
C2998 C 0.90051 0.16167 0.62939 0.0
C2999 C 0.89862 0.16052 0.60334 0.0
H3000 H 0.63386 0.17666 0.4723 0.0
H3001 H 0.61768 0.11001 0.4693 0.0
H3002 H 0.63074 0.17877 0.42695 0.0
H3003 H 0.61379 0.11237 0.42423 0.0
H3004 H 0.59124 0.13315 0.34442 0.0
H3005 H 0.58958 0.13559 0.38987 0.0
H3006 H 0.65484 0.15654 0.39151 0.0
H3007 H 0.65679 0.15329 0.34632 0.0
C3008 C 0.62908 0.16262 0.46207 0.0
C3009 C 0.62593 0.14319 0.47448 0.0
C3010 C 0.62742 0.1638 0.4361 0.0
C3011 C 0.62195 0.14575 0.42201 0.0
C3012 C 0.61785 0.12659 0.43455 0.0
C3013 C 0.62011 0.12525 0.46038 0.0
C3014 C 0.60508 0.1387 0.35444 0.0
C3015 C 0.62411 0.14315 0.34169 0.0
C3016 C 0.60417 0.13995 0.38047 0.0
C3017 C 0.62207 0.14631 0.39428 0.0
C3018 C 0.64075 0.15176 0.38141 0.0
C3019 C 0.64185 0.14989 0.35552 0.0
H3020 H 0.63911 0.83984 0.09544 0.0
H3021 H 0.61521 0.90426 0.09663 0.0
H3022 H 0.63604 0.83826 0.14075 0.0
H3023 H 0.61155 0.90241 0.14173 0.0
H3024 H 0.59279 0.8834 0.22237 0.0
H3025 H 0.59088 0.87979 0.17705 0.0
H3026 H 0.65698 0.86127 0.17514 0.0
H3027 H 0.65908 0.86554 0.22011 0.0
C3028 C 0.63271 0.85346 0.10528 0.0
C3029 C 0.62738 0.87217 0.09237 0.0
C3030 C 0.63107 0.85259 0.13123 0.0
C3031 C 0.62351 0.8702 0.14482 0.0
C3032 C 0.61725 0.88852 0.1318 0.0
C3033 C 0.61941 0.88959 0.10596 0.0
C3034 C 0.60676 0.87812 0.21231 0.0
C3035 C 0.62606 0.87467 0.22487 0.0
C3036 C 0.60572 0.87621 0.18636 0.0
C3037 C 0.62378 0.87022 0.17252 0.0
C3038 C 0.64275 0.86574 0.18526 0.0
C3039 C 0.64395 0.8682 0.21104 0.0
H3040 H 0.5913 0.63163 0.72025 0.0
H3041 H 0.65698 0.65139 0.71817 0.0
H3042 H 0.58953 0.63446 0.67487 0.0
H3043 H 0.65494 0.65495 0.67306 0.0
H3044 H 0.63507 0.67557 0.59277 0.0
H3045 H 0.63222 0.67734 0.63816 0.0
H3046 H 0.612 0.61183 0.63985 0.0
H3047 H 0.61558 0.60979 0.59473 0.0
C3048 C 0.60517 0.63713 0.71021 0.0
C3049 C 0.62425 0.64137 0.7229 0.0
C3050 C 0.60419 0.63861 0.68421 0.0
C3051 C 0.62209 0.64498 0.67036 0.0
C3052 C 0.64084 0.65018 0.68317 0.0
C3053 C 0.642 0.6481 0.70904 0.0
C3054 C 0.62962 0.66168 0.60279 0.0
C3055 C 0.62545 0.64257 0.59006 0.0
C3056 C 0.62813 0.66266 0.62879 0.0
C3057 C 0.62184 0.64474 0.64262 0.0
C3058 C 0.61672 0.62595 0.62976 0.0
C3059 C 0.61879 0.6248 0.60389 0.0
H3060 H 0.65958 0.38735 0.84852 0.0
H3061 H 0.59481 0.36505 0.84172 0.0
H3062 H 0.65718 0.38459 0.89318 0.0
H3063 H 0.59269 0.36196 0.88724 0.0
H3064 H 0.61836 0.34327 0.97318 0.0
H3065 H 0.61545 0.34125 0.92762 0.0
H3066 H 0.63099 0.40787 0.9225 0.0
H3067 H 0.63351 0.41014 0.96718 0.0
C3068 C 0.64483 0.38157 0.85642 0.0
C3069 C 0.62729 0.37664 0.8412 0.0
C3070 C 0.64351 0.38 0.88219 0.0
C3071 C 0.62473 0.37321 0.89381 0.0
C3072 C 0.60742 0.36719 0.87879 0.0
C3073 C 0.60864 0.369 0.85273 0.0
C3074 C 0.62072 0.35756 0.96235 0.0
C3075 C 0.62641 0.3768 0.97408 0.0
C3076 C 0.61904 0.35639 0.93626 0.0
C3077 C 0.62322 0.37437 0.92146 0.0
C3078 C 0.62789 0.39369 0.93331 0.0
C3079 C 0.62934 0.39492 0.95909 0.0
H3080 H 0.89806 0.3441 0.09126 0.0
H3081 H 0.88809 0.41201 0.09609 0.0
H3082 H 0.90083 0.34251 0.13681 0.0
H3083 H 0.89026 0.41022 0.14087 0.0
H3084 H 0.86033 0.39262 0.21549 0.0
H3085 H 0.8627 0.3901 0.17075 0.0
H3086 H 0.92463 0.361 0.17667 0.0
H3087 H 0.92258 0.36385 0.22219 0.0
C3088 C 0.89681 0.35869 0.10186 0.0
C3089 C 0.89252 0.37814 0.08982 0.0
C3090 C 0.89837 0.35776 0.12795 0.0
C3091 C 0.89547 0.37621 0.14246 0.0
C3092 C 0.89228 0.39568 0.13029 0.0
C3093 C 0.89099 0.39666 0.10448 0.0
C3094 C 0.87448 0.38548 0.20754 0.0
C3095 C 0.89134 0.37856 0.22274 0.0
C3096 C 0.87581 0.38409 0.18173 0.0
C3097 C 0.89388 0.37547 0.17011 0.0
C3098 C 0.91046 0.36767 0.18511 0.0
C3099 C 0.90929 0.36936 0.21118 0.0
H3100 H 0.8589 0.63037 0.34754 0.0
H3101 H 0.9241 0.6516 0.34169 0.0
H3102 H 0.8609 0.63272 0.39224 0.0
H3103 H 0.92583 0.65428 0.38726 0.0
H3104 H 0.90181 0.67303 0.47279 0.0
H3105 H 0.90471 0.67482 0.42726 0.0
H3106 H 0.88474 0.60938 0.42211 0.0
H3107 H 0.88218 0.60732 0.46681 0.0
C3108 C 0.87368 0.6358 0.35566 0.0
C3109 C 0.89144 0.64058 0.34069 0.0
C3110 C 0.87477 0.63712 0.38147 0.0
C3111 C 0.89355 0.64349 0.39338 0.0
C3112 C 0.9111 0.64935 0.37861 0.0
C3113 C 0.9101 0.64778 0.35251 0.0
C3114 C 0.8984 0.65893 0.46195 0.0
C3115 C 0.89156 0.6401 0.47371 0.0
C3116 C 0.90009 0.65997 0.43587 0.0
C3117 C 0.89473 0.64229 0.42105 0.0
C3118 C 0.88876 0.62335 0.43292 0.0
C3119 C 0.88731 0.62222 0.45872 0.0
H3120 H 0.36126 0.36578 0.3461 0.0
H3121 H 0.42699 0.38534 0.34432 0.0
H3122 H 0.36316 0.36202 0.39118 0.0
H3123 H 0.42864 0.38234 0.38972 0.0
H3124 H 0.40245 0.40694 0.46987 0.0
H3125 H 0.40632 0.40492 0.42477 0.0
H3126 H 0.38534 0.33965 0.42615 0.0
H3127 H 0.38218 0.34139 0.4715 0.0
C3128 C 0.37624 0.36893 0.3553 0.0
C3129 C 0.39404 0.37568 0.34153 0.0
C3130 C 0.37732 0.36677 0.38115 0.0
C3131 C 0.39603 0.3719 0.39408 0.0
C3132 C 0.414 0.37824 0.3803 0.0
C3133 C 0.4131 0.3798 0.35429 0.0
C3134 C 0.39911 0.39199 0.46064 0.0
C3135 C 0.39214 0.37428 0.47439 0.0
C3136 C 0.40137 0.39084 0.43478 0.0
C3137 C 0.39614 0.37213 0.42184 0.0
C3138 C 0.38952 0.35428 0.43558 0.0
C3139 C 0.38785 0.35524 0.46157 0.0
H3140 H 0.36146 0.62519 0.21511 0.0
H3141 H 0.4218 0.65724 0.22363 0.0
H3142 H 0.36417 0.62839 0.17065 0.0
H3143 H 0.42437 0.6605 0.17813 0.0
H3144 H 0.39833 0.67654 0.09229 0.0
H3145 H 0.40115 0.67785 0.13788 0.0
H3146 H 0.39181 0.60996 0.14103 0.0
H3147 H 0.38926 0.60847 0.09629 0.0
C3148 C 0.37524 0.63324 0.20764 0.0
C3149 C 0.39142 0.64093 0.22332 0.0
C3150 C 0.37681 0.63496 0.18193 0.0
C3151 C 0.39454 0.64454 0.17075 0.0
C3152 C 0.41047 0.65307 0.1862 0.0
C3153 C 0.40901 0.65114 0.21225 0.0
C3154 C 0.39736 0.66186 0.10271 0.0
C3155 C 0.39328 0.64246 0.09044 0.0
C3156 C 0.39898 0.66263 0.12882 0.0
C3157 C 0.39642 0.64403 0.1431 0.0
C3158 C 0.39356 0.62461 0.13066 0.0
C3159 C 0.39209 0.62381 0.10486 0.0
H3160 H 0.0919 0.63409 0.84327 0.0
H3161 H 0.15783 0.653 0.84549 0.0
H3162 H 0.08996 0.63716 0.88862 0.0
H3163 H 0.15564 0.65677 0.89057 0.0
H3164 H 0.13676 0.67733 0.97093 0.0
H3165 H 0.13392 0.67926 0.92555 0.0
H3166 H 0.11113 0.61459 0.92369 0.0
H3167 H 0.11468 0.61239 0.96877 0.0
C3168 C 0.10581 0.63943 0.85333 0.0
C3169 C 0.125 0.64336 0.84068 0.0
C3170 C 0.10472 0.64107 0.87932 0.0
C3171 C 0.12263 0.64726 0.89322 0.0
C3172 C 0.14152 0.65214 0.88044 0.0
C3173 C 0.14277 0.64994 0.85458 0.0
C3174 C 0.13071 0.66369 0.96087 0.0
C3175 C 0.12583 0.64475 0.97353 0.0
C3176 C 0.12924 0.66474 0.93487 0.0
C3177 C 0.12227 0.64708 0.92098 0.0
C3178 C 0.11638 0.62853 0.9338 0.0
C3179 C 0.11843 0.62728 0.95965 0.0
H3180 H 0.15941 0.38878 0.7164 0.0
H3181 H 0.09349 0.36959 0.72085 0.0
H3182 H 0.15792 0.38675 0.67161 0.0
H3183 H 0.09225 0.36729 0.6753 0.0
H3184 H 0.11519 0.34833 0.5903 0.0
H3185 H 0.11226 0.34649 0.63581 0.0
H3186 H 0.13588 0.41069 0.64133 0.0
H3187 H 0.13852 0.4128 0.59666 0.0
C3188 C 0.14459 0.38387 0.70795 0.0
C3189 C 0.12649 0.37954 0.72252 0.0
C3190 C 0.14378 0.38275 0.68211 0.0
C3191 C 0.12494 0.37706 0.66984 0.0
C3192 C 0.10702 0.3717 0.68423 0.0
C3193 C 0.10774 0.37307 0.71033 0.0
C3194 C 0.11944 0.36215 0.60123 0.0
C3195 C 0.12728 0.38063 0.58959 0.0
C3196 C 0.11773 0.36108 0.62729 0.0
C3197 C 0.12409 0.37837 0.64219 0.0
C3198 C 0.13112 0.397 0.63045 0.0
C3199 C 0.13258 0.39816 0.60467 0.0
loop_
_geom_bond_atom_site_label_1
_geom_bond_atom_site_label_2
_geom_bond_distance
_geom_bond_site_symmetry_2
_ccdc_geom_bond_type
Tb0 C2 2.809 . S
Tb0 O20 2.484 . S
Tb0 O21 2.440 . S
Tb0 O22 2.658 . S
Tb0 O23 2.409 . S
Tb0 O24 2.378 . S
Tb0 O28 2.325 . S
Tb0 O31 2.341 . S
Tb1 C11 2.809 . S
Tb1 O22 2.325 . S
Tb1 O25 2.341 . S
Tb1 O26 2.484 . S
Tb1 O27 2.440 . S
Tb1 O28 2.658 . S
Tb1 O29 2.409 . S
Tb1 O30 2.378 . S
C2 Tb0 2.809 . S
C2 C3 1.514 . S
C2 O20 1.248 . S
C2 O21 1.266 . S
C3 C2 1.514 . S
C3 C4 1.359 . S
C3 C8 1.348 . S
C4 C3 1.359 . S
C4 C5 1.380 . S
C4 H32 0.929 . S
C5 C4 1.380 . S
C5 C6 1.347 . S
C5 H33 0.931 . S
C6 C5 1.347 . S
C6 C7 1.369 . S
C7 C6 1.369 . S
C7 C8 1.408 . S
C7 H34 0.930 . S
C8 C3 1.348 . S
C8 C7 1.408 . S
C8 H35 0.930 . S
C9 O22 1.281 . S
C9 O23 1.254 . S
C10 O24 1.236 . S
C10 O25 1.266 . S
C11 Tb1 2.809 . S
C11 C12 1.514 . S
C11 O26 1.248 . S
C11 O27 1.266 . S
C12 C11 1.514 . S
C12 C13 1.359 . S
C12 C17 1.348 . S
C13 C12 1.359 . S
C13 C14 1.380 . S
C13 H36 0.929 . S
C14 C13 1.380 . S
C14 C15 1.347 . S
C14 H37 0.931 . S
C15 C14 1.347 . S
C15 C16 1.369 . S
C16 C15 1.369 . S
C16 C17 1.408 . S
C16 H38 0.930 . S
C17 C12 1.348 . S
C17 C16 1.408 . S
C17 H39 0.930 . S
C18 O28 1.281 . S
C18 O29 1.254 . S
C19 O30 1.236 . S
C19 O31 1.266 . S
O20 Tb0 2.484 . S
O20 C2 1.248 . S
O21 Tb0 2.440 . S
O21 C2 1.266 . S
O22 Tb0 2.658 . S
O22 Tb1 2.325 . S
O22 C9 1.281 . S
O23 Tb0 2.409 . S
O23 C9 1.254 . S
O24 Tb0 2.378 . S
O24 C10 1.236 . S
O25 Tb1 2.341 . S
O25 C10 1.266 . S
O26 Tb1 2.484 . S
O26 C11 1.248 . S
O27 Tb1 2.440 . S
O27 C11 1.266 . S
O28 Tb0 2.325 . S
O28 Tb1 2.658 . S
O28 C18 1.281 . S
O29 Tb1 2.409 . S
O29 C18 1.254 . S
O30 Tb1 2.378 . S
O30 C19 1.236 . S
O31 Tb0 2.341 . S
O31 C19 1.266 . S
H32 C4 0.929 . S
H33 C5 0.931 . S
H34 C7 0.930 . S
H35 C8 0.930 . S
H36 C13 0.929 . S
H37 C14 0.931 . S
H38 C16 0.930 . S
H39 C17 0.930 . S
Tb40 C42 2.809 . S
Tb40 O60 2.484 . S
Tb40 O61 2.440 . S
Tb40 O62 2.658 . S
Tb40 O63 2.409 . S
Tb40 O64 2.378 . S
Tb40 O68 2.325 . S
Tb40 O71 2.341 . S
Tb41 C51 2.809 . S
Tb41 O62 2.325 . S
Tb41 O65 2.341 . S
Tb41 O66 2.484 . S
Tb41 O67 2.440 . S
Tb41 O68 2.658 . S
Tb41 O69 2.409 . S
Tb41 O70 2.378 . S
C42 Tb40 2.809 . S
C42 C43 1.514 . S
C42 O60 1.248 . S
C42 O61 1.266 . S
C43 C42 1.514 . S
C43 C44 1.359 . S
C43 C48 1.348 . S
C44 C43 1.359 . S
C44 C45 1.380 . S
C44 H72 0.929 . S
C45 C44 1.380 . S
C45 C46 1.347 . S
C45 H73 0.931 . S
C46 C45 1.347 . S
C46 C47 1.369 . S
C47 C46 1.369 . S
C47 C48 1.408 . S
C47 H74 0.930 . S
C48 C43 1.348 . S
C48 C47 1.408 . S
C48 H75 0.930 . S
C49 O62 1.281 . S
C49 O63 1.254 . S
C50 O64 1.236 . S
C50 O65 1.266 . S
C51 Tb41 2.809 . S
C51 C52 1.514 . S
C51 O66 1.248 . S
C51 O67 1.266 . S
C52 C51 1.514 . S
C52 C53 1.359 . S
C52 C57 1.348 . S
C53 C52 1.359 . S
C53 C54 1.380 . S
C53 H76 0.929 . S
C54 C53 1.380 . S
C54 C55 1.347 . S
C54 H77 0.931 . S
C55 C54 1.347 . S
C55 C56 1.369 . S
C56 C55 1.369 . S
C56 C57 1.408 . S
C56 H78 0.930 . S
C57 C52 1.348 . S
C57 C56 1.408 . S
C57 H79 0.930 . S
C58 O68 1.281 . S
C58 O69 1.254 . S
C59 O70 1.236 . S
C59 O71 1.266 . S
O60 Tb40 2.484 . S
O60 C42 1.248 . S
O61 Tb40 2.440 . S
O61 C42 1.266 . S
O62 Tb40 2.658 . S
O62 Tb41 2.325 . S
O62 C49 1.281 . S
O63 Tb40 2.409 . S
O63 C49 1.254 . S
O64 Tb40 2.378 . S
O64 C50 1.236 . S
O65 Tb41 2.341 . S
O65 C50 1.266 . S
O66 Tb41 2.484 . S
O66 C51 1.248 . S
O67 Tb41 2.440 . S
O67 C51 1.266 . S
O68 Tb40 2.325 . S
O68 Tb41 2.658 . S
O68 C58 1.281 . S
O69 Tb41 2.409 . S
O69 C58 1.254 . S
O70 Tb41 2.378 . S
O70 C59 1.236 . S
O71 Tb40 2.341 . S
O71 C59 1.266 . S
H72 C44 0.929 . S
H73 C45 0.931 . S
H74 C47 0.930 . S
H75 C48 0.930 . S
H76 C53 0.929 . S
H77 C54 0.931 . S
H78 C56 0.930 . S
H79 C57 0.930 . S
Tb80 C82 2.809 . S
Tb80 O100 2.484 . S
Tb80 O101 2.440 . S
Tb80 O102 2.658 . S
Tb80 O103 2.409 . S
Tb80 O104 2.378 . S
Tb80 O108 2.325 . S
Tb80 O111 2.341 . S
Tb81 C91 2.809 . S
Tb81 O102 2.325 . S
Tb81 O105 2.341 . S
Tb81 O106 2.484 . S
Tb81 O107 2.440 . S
Tb81 O108 2.658 . S
Tb81 O109 2.409 . S
Tb81 O110 2.378 . S
C82 Tb80 2.809 . S
C82 C83 1.514 . S
C82 O100 1.248 . S
C82 O101 1.266 . S
C83 C82 1.514 . S
C83 C84 1.359 . S
C83 C88 1.348 . S
C84 C83 1.359 . S
C84 C85 1.380 . S
C84 H112 0.929 . S
C85 C84 1.380 . S
C85 C86 1.347 . S
C85 H113 0.931 . S
C86 C85 1.347 . S
C86 C87 1.369 . S
C87 C86 1.369 . S
C87 C88 1.408 . S
C87 H114 0.930 . S
C88 C83 1.348 . S
C88 C87 1.408 . S
C88 H115 0.930 . S
C89 O102 1.281 . S
C89 O103 1.254 . S
C90 O104 1.236 . S
C90 O105 1.266 . S
C91 Tb81 2.809 . S
C91 C92 1.514 . S
C91 O106 1.248 . S
C91 O107 1.266 . S
C92 C91 1.514 . S
C92 C93 1.359 . S
C92 C97 1.348 . S
C93 C92 1.359 . S
C93 C94 1.380 . S
C93 H116 0.929 . S
C94 C93 1.380 . S
C94 C95 1.347 . S
C94 H117 0.931 . S
C95 C94 1.347 . S
C95 C96 1.369 . S
C96 C95 1.369 . S
C96 C97 1.408 . S
C96 H118 0.930 . S
C97 C92 1.348 . S
C97 C96 1.408 . S
C97 H119 0.930 . S
C98 O108 1.281 . S
C98 O109 1.254 . S
C99 O110 1.236 . S
C99 O111 1.266 . S
O100 Tb80 2.484 . S
O100 C82 1.248 . S
O101 Tb80 2.440 . S
O101 C82 1.266 . S
O102 Tb80 2.658 . S
O102 Tb81 2.325 . S
O102 C89 1.281 . S
O103 Tb80 2.409 . S
O103 C89 1.254 . S
O104 Tb80 2.378 . S
O104 C90 1.236 . S
O105 Tb81 2.341 . S
O105 C90 1.266 . S
O106 Tb81 2.484 . S
O106 C91 1.248 . S
O107 Tb81 2.440 . S
O107 C91 1.266 . S
O108 Tb80 2.325 . S
O108 Tb81 2.658 . S
O108 C98 1.281 . S
O109 Tb81 2.409 . S
O109 C98 1.254 . S
O110 Tb81 2.378 . S
O110 C99 1.236 . S
O111 Tb80 2.341 . S
O111 C99 1.266 . S
H112 C84 0.929 . S
H113 C85 0.931 . S
H114 C87 0.930 . S
H115 C88 0.930 . S
H116 C93 0.929 . S
H117 C94 0.931 . S
H118 C96 0.930 . S
H119 C97 0.930 . S
Tb120 C122 2.809 1_554 S
Tb120 O140 2.484 1_554 S
Tb120 O141 2.440 . S
Tb120 O142 2.658 . S
Tb120 O143 2.409 . S
Tb120 O144 2.378 1_554 S
Tb120 O148 2.325 . S
Tb120 O151 2.341 . S
Tb121 C131 2.809 . S
Tb121 O142 2.325 . S
Tb121 O145 2.341 1_554 S
Tb121 O146 2.484 . S
Tb121 O147 2.440 . S
Tb121 O148 2.658 . S
Tb121 O149 2.409 . S
Tb121 O150 2.378 . S
C122 Tb120 2.809 1_556 S
C122 C123 1.514 . S
C122 O140 1.248 . S
C122 O141 1.266 1_556 S
C123 C122 1.514 . S
C123 C124 1.359 . S
C123 C128 1.348 . S
C124 C123 1.359 . S
C124 C125 1.380 . S
C124 H152 0.929 . S
C125 C124 1.380 . S
C125 C126 1.347 . S
C125 H153 0.931 . S
C126 C125 1.347 . S
C126 C127 1.369 . S
C127 C126 1.369 . S
C127 C128 1.408 . S
C127 H154 0.930 . S
C128 C123 1.348 . S
C128 C127 1.408 . S
C128 H155 0.930 . S
C129 O142 1.281 . S
C129 O143 1.254 . S
C130 O144 1.236 . S
C130 O145 1.266 . S
C131 Tb121 2.809 . S
C131 C132 1.514 . S
C131 O146 1.248 . S
C131 O147 1.266 . S
C132 C131 1.514 . S
C132 C133 1.359 . S
C132 C137 1.348 . S
C133 C132 1.359 . S
C133 C134 1.380 . S
C133 H156 0.929 . S
C134 C133 1.380 . S
C134 C135 1.347 . S
C134 H157 0.931 . S
C135 C134 1.347 . S
C135 C136 1.369 . S
C136 C135 1.369 . S
C136 C137 1.408 . S
C136 H158 0.930 . S
C137 C132 1.348 . S
C137 C136 1.408 . S
C137 H159 0.930 . S
C138 O148 1.281 . S
C138 O149 1.254 . S
C139 O150 1.236 . S
C139 O151 1.266 . S
O140 Tb120 2.484 1_556 S
O140 C122 1.248 . S
O141 Tb120 2.440 . S
O141 C122 1.266 1_554 S
O142 Tb120 2.658 . S
O142 Tb121 2.325 . S
O142 C129 1.281 . S
O143 Tb120 2.409 . S
O143 C129 1.254 . S
O144 Tb120 2.378 1_556 S
O144 C130 1.236 . S
O145 Tb121 2.341 1_556 S
O145 C130 1.266 . S
O146 Tb121 2.484 . S
O146 C131 1.248 . S
O147 Tb121 2.440 . S
O147 C131 1.266 . S
O148 Tb120 2.325 . S
O148 Tb121 2.658 . S
O148 C138 1.281 . S
O149 Tb121 2.409 . S
O149 C138 1.254 . S
O150 Tb121 2.378 . S
O150 C139 1.236 . S
O151 Tb120 2.341 . S
O151 C139 1.266 . S
H152 C124 0.929 . S
H153 C125 0.931 . S
H154 C127 0.930 . S
H155 C128 0.930 . S
H156 C133 0.929 . S
H157 C134 0.931 . S
H158 C136 0.930 . S
H159 C137 0.930 . S
Tb160 C162 2.809 . S
Tb160 O180 2.484 . S
Tb160 O181 2.440 . S
Tb160 O182 2.658 . S
Tb160 O183 2.409 . S
Tb160 O184 2.378 . S
Tb160 O188 2.325 . S
Tb160 O191 2.341 . S
Tb161 C171 2.809 . S
Tb161 O182 2.325 . S
Tb161 O185 2.341 . S
Tb161 O186 2.484 . S
Tb161 O187 2.440 . S
Tb161 O188 2.658 . S
Tb161 O189 2.409 . S
Tb161 O190 2.378 . S
C162 Tb160 2.809 . S
C162 C163 1.514 . S
C162 O180 1.248 . S
C162 O181 1.266 . S
C163 C162 1.514 . S
C163 C164 1.359 . S
C163 C168 1.348 . S
C164 C163 1.359 . S
C164 C165 1.380 . S
C164 H192 0.929 . S
C165 C164 1.380 . S
C165 C166 1.347 . S
C165 H193 0.931 . S
C166 C165 1.347 . S
C166 C167 1.369 . S
C167 C166 1.369 . S
C167 C168 1.408 . S
C167 H194 0.930 . S
C168 C163 1.348 . S
C168 C167 1.408 . S
C168 H195 0.930 . S
C169 O182 1.281 . S
C169 O183 1.254 . S
C170 O184 1.236 . S
C170 O185 1.266 . S
C171 Tb161 2.809 . S
C171 C172 1.514 . S
C171 O186 1.248 . S
C171 O187 1.266 . S
C172 C171 1.514 . S
C172 C173 1.359 . S
C172 C177 1.348 . S
C173 C172 1.359 . S
C173 C174 1.380 . S
C173 H196 0.929 . S
C174 C173 1.380 . S
C174 C175 1.347 . S
C174 H197 0.931 . S
C175 C174 1.347 . S
C175 C176 1.369 . S
C176 C175 1.369 . S
C176 C177 1.408 . S
C176 H198 0.930 . S
C177 C172 1.348 . S
C177 C176 1.408 . S
C177 H199 0.930 . S
C178 O188 1.281 . S
C178 O189 1.254 . S
C179 O190 1.236 . S
C179 O191 1.266 . S
O180 Tb160 2.484 . S
O180 C162 1.248 . S
O181 Tb160 2.440 . S
O181 C162 1.266 . S
O182 Tb160 2.658 . S
O182 Tb161 2.325 . S
O182 C169 1.281 . S
O183 Tb160 2.409 . S
O183 C169 1.254 . S
O184 Tb160 2.378 . S
O184 C170 1.236 . S
O185 Tb161 2.341 . S
O185 C170 1.266 . S
O186 Tb161 2.484 . S
O186 C171 1.248 . S
O187 Tb161 2.440 . S
O187 C171 1.266 . S
O188 Tb160 2.325 . S
O188 Tb161 2.658 . S
O188 C178 1.281 . S
O189 Tb161 2.409 . S
O189 C178 1.254 . S
O190 Tb161 2.378 . S
O190 C179 1.236 . S
O191 Tb160 2.341 . S
O191 C179 1.266 . S
H192 C164 0.929 . S
H193 C165 0.931 . S
H194 C167 0.930 . S
H195 C168 0.930 . S
H196 C173 0.929 . S
H197 C174 0.931 . S
H198 C176 0.930 . S
H199 C177 0.930 . S
Tb200 C202 2.809 . S
Tb200 O220 2.484 . S
Tb200 O221 2.440 . S
Tb200 O222 2.658 . S
Tb200 O223 2.409 . S
Tb200 O224 2.378 . S
Tb200 O228 2.325 . S
Tb200 O231 2.341 . S
Tb201 C211 2.809 . S
Tb201 O222 2.325 . S
Tb201 O225 2.341 . S
Tb201 O226 2.484 . S
Tb201 O227 2.440 . S
Tb201 O228 2.658 . S
Tb201 O229 2.409 . S
Tb201 O230 2.378 . S
C202 Tb200 2.809 . S
C202 C203 1.514 . S
C202 O220 1.248 . S
C202 O221 1.266 . S
C203 C202 1.514 . S
C203 C204 1.359 . S
C203 C208 1.348 . S
C204 C203 1.359 . S
C204 C205 1.380 . S
C204 H232 0.929 . S
C205 C204 1.380 . S
C205 C206 1.347 . S
C205 H233 0.931 . S
C206 C205 1.347 . S
C206 C207 1.369 . S
C207 C206 1.369 . S
C207 C208 1.408 . S
C207 H234 0.930 . S
C208 C203 1.348 . S
C208 C207 1.408 . S
C208 H235 0.930 . S
C209 O222 1.281 . S
C209 O223 1.254 . S
C210 O224 1.236 . S
C210 O225 1.266 . S
C211 Tb201 2.809 . S
C211 C212 1.514 . S
C211 O226 1.248 . S
C211 O227 1.266 . S
C212 C211 1.514 . S
C212 C213 1.359 . S
C212 C217 1.348 . S
C213 C212 1.359 . S
C213 C214 1.380 . S
C213 H236 0.929 . S
C214 C213 1.380 . S
C214 C215 1.347 . S
C214 H237 0.931 . S
C215 C214 1.347 . S
C215 C216 1.369 . S
C216 C215 1.369 . S
C216 C217 1.408 . S
C216 H238 0.930 . S
C217 C212 1.348 . S
C217 C216 1.408 . S
C217 H239 0.930 . S
C218 O228 1.281 . S
C218 O229 1.254 . S
C219 O230 1.236 . S
C219 O231 1.266 . S
O220 Tb200 2.484 . S
O220 C202 1.248 . S
O221 Tb200 2.440 . S
O221 C202 1.266 . S
O222 Tb200 2.658 . S
O222 Tb201 2.325 . S
O222 C209 1.281 . S
O223 Tb200 2.409 . S
O223 C209 1.254 . S
O224 Tb200 2.378 . S
O224 C210 1.236 . S
O225 Tb201 2.341 . S
O225 C210 1.266 . S
O226 Tb201 2.484 . S
O226 C211 1.248 . S
O227 Tb201 2.440 . S
O227 C211 1.266 . S
O228 Tb200 2.325 . S
O228 Tb201 2.658 . S
O228 C218 1.281 . S
O229 Tb201 2.409 . S
O229 C218 1.254 . S
O230 Tb201 2.378 . S
O230 C219 1.236 . S
O231 Tb200 2.341 . S
O231 C219 1.266 . S
H232 C204 0.929 . S
H233 C205 0.931 . S
H234 C207 0.930 . S
H235 C208 0.930 . S
H236 C213 0.929 . S
H237 C214 0.931 . S
H238 C216 0.930 . S
H239 C217 0.930 . S
Tb240 C242 2.809 . S
Tb240 O260 2.484 . S
Tb240 O261 2.440 . S
Tb240 O262 2.658 . S
Tb240 O263 2.409 . S
Tb240 O264 2.378 . S
Tb240 O268 2.325 . S
Tb240 O271 2.341 . S
Tb241 C251 2.809 . S
Tb241 O262 2.325 . S
Tb241 O265 2.341 . S
Tb241 O266 2.484 . S
Tb241 O267 2.440 . S
Tb241 O268 2.658 . S
Tb241 O269 2.409 . S
Tb241 O270 2.378 . S
C242 Tb240 2.809 . S
C242 C243 1.514 . S
C242 O260 1.248 . S
C242 O261 1.266 . S
C243 C242 1.514 . S
C243 C244 1.359 . S
C243 C248 1.348 . S
C244 C243 1.359 . S
C244 C245 1.380 . S
C244 H272 0.929 . S
C245 C244 1.380 . S
C245 C246 1.347 . S
C245 H273 0.931 . S
C246 C245 1.347 . S
C246 C247 1.369 . S
C247 C246 1.369 . S
C247 C248 1.408 . S
C247 H274 0.930 . S
C248 C243 1.348 . S
C248 C247 1.408 . S
C248 H275 0.930 . S
C249 O262 1.281 . S
C249 O263 1.254 . S
C250 O264 1.236 . S
C250 O265 1.266 . S
C251 Tb241 2.809 . S
C251 C252 1.514 . S
C251 O266 1.248 . S
C251 O267 1.266 . S
C252 C251 1.514 . S
C252 C253 1.359 . S
C252 C257 1.348 . S
C253 C252 1.359 . S
C253 C254 1.380 . S
C253 H276 0.929 . S
C254 C253 1.380 . S
C254 C255 1.347 . S
C254 H277 0.931 . S
C255 C254 1.347 . S
C255 C256 1.369 . S
C256 C255 1.369 . S
C256 C257 1.408 . S
C256 H278 0.930 . S
C257 C252 1.348 . S
C257 C256 1.408 . S
C257 H279 0.930 . S
C258 O268 1.281 . S
C258 O269 1.254 . S
C259 O270 1.236 . S
C259 O271 1.266 . S
O260 Tb240 2.484 . S
O260 C242 1.248 . S
O261 Tb240 2.440 . S
O261 C242 1.266 . S
O262 Tb240 2.658 . S
O262 Tb241 2.325 . S
O262 C249 1.281 . S
O263 Tb240 2.409 . S
O263 C249 1.254 . S
O264 Tb240 2.378 . S
O264 C250 1.236 . S
O265 Tb241 2.341 . S
O265 C250 1.266 . S
O266 Tb241 2.484 . S
O266 C251 1.248 . S
O267 Tb241 2.440 . S
O267 C251 1.266 . S
O268 Tb240 2.325 . S
O268 Tb241 2.658 . S
O268 C258 1.281 . S
O269 Tb241 2.409 . S
O269 C258 1.254 . S
O270 Tb241 2.378 . S
O270 C259 1.236 . S
O271 Tb240 2.341 . S
O271 C259 1.266 . S
H272 C244 0.929 . S
H273 C245 0.931 . S
H274 C247 0.930 . S
H275 C248 0.930 . S
H276 C253 0.929 . S
H277 C254 0.931 . S
H278 C256 0.930 . S
H279 C257 0.930 . S
Tb280 C282 2.809 1_556 S
Tb280 O300 2.484 1_556 S
Tb280 O301 2.440 . S
Tb280 O302 2.658 . S
Tb280 O303 2.409 . S
Tb280 O304 2.378 1_556 S
Tb280 O308 2.325 . S
Tb280 O311 2.341 . S
Tb281 C291 2.809 . S
Tb281 O302 2.325 . S
Tb281 O305 2.341 1_556 S
Tb281 O306 2.484 . S
Tb281 O307 2.440 . S
Tb281 O308 2.658 . S
Tb281 O309 2.409 . S
Tb281 O310 2.378 . S
C282 Tb280 2.809 1_554 S
C282 C283 1.514 . S
C282 O300 1.248 . S
C282 O301 1.266 1_554 S
C283 C282 1.514 . S
C283 C284 1.359 . S
C283 C288 1.348 . S
C284 C283 1.359 . S
C284 C285 1.380 . S
C284 H312 0.929 . S
C285 C284 1.380 . S
C285 C286 1.347 . S
C285 H313 0.931 . S
C286 C285 1.347 . S
C286 C287 1.369 . S
C287 C286 1.369 . S
C287 C288 1.408 . S
C287 H314 0.930 . S
C288 C283 1.348 . S
C288 C287 1.408 . S
C288 H315 0.930 . S
C289 O302 1.281 . S
C289 O303 1.254 . S
C290 O304 1.236 . S
C290 O305 1.266 . S
C291 Tb281 2.809 . S
C291 C292 1.514 . S
C291 O306 1.248 . S
C291 O307 1.266 . S
C292 C291 1.514 . S
C292 C293 1.359 . S
C292 C297 1.348 . S
C293 C292 1.359 . S
C293 C294 1.380 . S
C293 H316 0.929 . S
C294 C293 1.380 . S
C294 C295 1.347 . S
C294 H317 0.931 . S
C295 C294 1.347 . S
C295 C296 1.369 . S
C296 C295 1.369 . S
C296 C297 1.408 . S
C296 H318 0.930 . S
C297 C292 1.348 . S
C297 C296 1.408 . S
C297 H319 0.930 . S
C298 O308 1.281 . S
C298 O309 1.254 . S
C299 O310 1.236 . S
C299 O311 1.266 . S
O300 Tb280 2.484 1_554 S
O300 C282 1.248 . S
O301 Tb280 2.440 . S
O301 C282 1.266 1_556 S
O302 Tb280 2.658 . S
O302 Tb281 2.325 . S
O302 C289 1.281 . S
O303 Tb280 2.409 . S
O303 C289 1.254 . S
O304 Tb280 2.378 1_554 S
O304 C290 1.236 . S
O305 Tb281 2.341 1_554 S
O305 C290 1.266 . S
O306 Tb281 2.484 . S
O306 C291 1.248 . S
O307 Tb281 2.440 . S
O307 C291 1.266 . S
O308 Tb280 2.325 . S
O308 Tb281 2.658 . S
O308 C298 1.281 . S
O309 Tb281 2.409 . S
O309 C298 1.254 . S
O310 Tb281 2.378 . S
O310 C299 1.236 . S
O311 Tb280 2.341 . S
O311 C299 1.266 . S
H312 C284 0.929 . S
H313 C285 0.931 . S
H314 C287 0.930 . S
H315 C288 0.930 . S
H316 C293 0.929 . S
H317 C294 0.931 . S
H318 C296 0.930 . S
H319 C297 0.930 . S
Tb320 C322 2.809 . S
Tb320 O340 2.484 . S
Tb320 O341 2.440 . S
Tb320 O342 2.658 . S
Tb320 O343 2.409 . S
Tb320 O344 2.378 . S
Tb320 O348 2.325 . S
Tb320 O351 2.341 . S
Tb321 C331 2.809 . S
Tb321 O342 2.325 . S
Tb321 O345 2.341 . S
Tb321 O346 2.484 . S
Tb321 O347 2.440 . S
Tb321 O348 2.658 . S
Tb321 O349 2.409 . S
Tb321 O350 2.378 . S
C322 Tb320 2.809 . S
C322 C323 1.514 . S
C322 O340 1.248 . S
C322 O341 1.266 . S
C323 C322 1.514 . S
C323 C324 1.359 . S
C323 C328 1.348 . S
C324 C323 1.359 . S
C324 C325 1.380 . S
C324 H352 0.929 . S
C325 C324 1.380 . S
C325 C326 1.347 . S
C325 H353 0.931 . S
C326 C325 1.347 . S
C326 C327 1.369 . S
C327 C326 1.369 . S
C327 C328 1.408 . S
C327 H354 0.930 . S
C328 C323 1.348 . S
C328 C327 1.408 . S
C328 H355 0.930 . S
C329 O342 1.281 . S
C329 O343 1.254 . S
C330 O344 1.236 . S
C330 O345 1.266 . S
C331 Tb321 2.809 . S
C331 C332 1.514 . S
C331 O346 1.248 . S
C331 O347 1.266 . S
C332 C331 1.514 . S
C332 C333 1.359 . S
C332 C337 1.348 . S
C333 C332 1.359 . S
C333 C334 1.380 . S
C333 H356 0.929 . S
C334 C333 1.380 . S
C334 C335 1.347 . S
C334 H357 0.931 . S
C335 C334 1.347 . S
C335 C336 1.369 . S
C336 C335 1.369 . S
C336 C337 1.408 . S
C336 H358 0.930 . S
C337 C332 1.348 . S
C337 C336 1.408 . S
C337 H359 0.930 . S
C338 O348 1.281 . S
C338 O349 1.254 . S
C339 O350 1.236 . S
C339 O351 1.266 . S
O340 Tb320 2.484 . S
O340 C322 1.248 . S
O341 Tb320 2.440 . S
O341 C322 1.266 . S
O342 Tb320 2.658 . S
O342 Tb321 2.325 . S
O342 C329 1.281 . S
O343 Tb320 2.409 . S
O343 C329 1.254 . S
O344 Tb320 2.378 . S
O344 C330 1.236 . S
O345 Tb321 2.341 . S
O345 C330 1.266 . S
O346 Tb321 2.484 . S
O346 C331 1.248 . S
O347 Tb321 2.440 . S
O347 C331 1.266 . S
O348 Tb320 2.325 . S
O348 Tb321 2.658 . S
O348 C338 1.281 . S
O349 Tb321 2.409 . S
O349 C338 1.254 . S
O350 Tb321 2.378 . S
O350 C339 1.236 . S
O351 Tb320 2.341 . S
O351 C339 1.266 . S
H352 C324 0.929 . S
H353 C325 0.931 . S
H354 C327 0.930 . S
H355 C328 0.930 . S
H356 C333 0.929 . S
H357 C334 0.931 . S
H358 C336 0.930 . S
H359 C337 0.930 . S
Tb360 C362 2.809 . S
Tb360 O380 2.484 . S
Tb360 O381 2.440 . S
Tb360 O382 2.658 . S
Tb360 O383 2.409 . S
Tb360 O384 2.378 . S
Tb360 O388 2.325 . S
Tb360 O391 2.341 . S
Tb361 C371 2.809 . S
Tb361 O382 2.325 . S
Tb361 O385 2.341 . S
Tb361 O386 2.484 . S
Tb361 O387 2.440 . S
Tb361 O388 2.658 . S
Tb361 O389 2.409 . S
Tb361 O390 2.378 . S
C362 Tb360 2.809 . S
C362 C363 1.514 . S
C362 O380 1.248 . S
C362 O381 1.266 . S
C363 C362 1.514 . S
C363 C364 1.359 . S
C363 C368 1.348 . S
C364 C363 1.359 . S
C364 C365 1.380 . S
C364 H392 0.929 . S
C365 C364 1.380 . S
C365 C366 1.347 . S
C365 H393 0.931 . S
C366 C365 1.347 . S
C366 C367 1.369 . S
C367 C366 1.369 . S
C367 C368 1.408 . S
C367 H394 0.930 . S
C368 C363 1.348 . S
C368 C367 1.408 . S
C368 H395 0.930 . S
C369 O382 1.281 . S
C369 O383 1.254 . S
C370 O384 1.236 . S
C370 O385 1.266 . S
C371 Tb361 2.809 . S
C371 C372 1.514 . S
C371 O386 1.248 . S
C371 O387 1.266 . S
C372 C371 1.514 . S
C372 C373 1.359 . S
C372 C377 1.348 . S
C373 C372 1.359 . S
C373 C374 1.380 . S
C373 H396 0.929 . S
C374 C373 1.380 . S
C374 C375 1.347 . S
C374 H397 0.931 . S
C375 C374 1.347 . S
C375 C376 1.369 . S
C376 C375 1.369 . S
C376 C377 1.408 . S
C376 H398 0.930 . S
C377 C372 1.348 . S
C377 C376 1.408 . S
C377 H399 0.930 . S
C378 O388 1.281 . S
C378 O389 1.254 . S
C379 O390 1.236 . S
C379 O391 1.266 . S
O380 Tb360 2.484 . S
O380 C362 1.248 . S
O381 Tb360 2.440 . S
O381 C362 1.266 . S
O382 Tb360 2.658 . S
O382 Tb361 2.325 . S
O382 C369 1.281 . S
O383 Tb360 2.409 . S
O383 C369 1.254 . S
O384 Tb360 2.378 . S
O384 C370 1.236 . S
O385 Tb361 2.341 . S
O385 C370 1.266 . S
O386 Tb361 2.484 . S
O386 C371 1.248 . S
O387 Tb361 2.440 . S
O387 C371 1.266 . S
O388 Tb360 2.325 . S
O388 Tb361 2.658 . S
O388 C378 1.281 . S
O389 Tb361 2.409 . S
O389 C378 1.254 . S
O390 Tb361 2.378 . S
O390 C379 1.236 . S
O391 Tb360 2.341 . S
O391 C379 1.266 . S
H392 C364 0.929 . S
H393 C365 0.931 . S
H394 C367 0.930 . S
H395 C368 0.930 . S
H396 C373 0.929 . S
H397 C374 0.931 . S
H398 C376 0.930 . S
H399 C377 0.930 . S
Tb400 C402 2.809 . S
Tb400 O420 2.484 . S
Tb400 O421 2.440 . S
Tb400 O422 2.658 . S
Tb400 O423 2.409 . S
Tb400 O424 2.378 . S
Tb400 O428 2.325 . S
Tb400 O431 2.341 . S
Tb401 C411 2.809 . S
Tb401 O422 2.325 . S
Tb401 O425 2.341 . S
Tb401 O426 2.484 . S
Tb401 O427 2.440 . S
Tb401 O428 2.658 . S
Tb401 O429 2.409 . S
Tb401 O430 2.378 . S
C402 Tb400 2.809 . S
C402 C403 1.514 . S
C402 O420 1.248 . S
C402 O421 1.266 . S
C403 C402 1.514 . S
C403 C404 1.359 . S
C403 C408 1.348 . S
C404 C403 1.359 . S
C404 C405 1.380 . S
C404 H432 0.929 . S
C405 C404 1.380 . S
C405 C406 1.347 . S
C405 H433 0.931 . S
C406 C405 1.347 . S
C406 C407 1.369 . S
C407 C406 1.369 . S
C407 C408 1.408 . S
C407 H434 0.930 . S
C408 C403 1.348 . S
C408 C407 1.408 . S
C408 H435 0.930 . S
C409 O422 1.281 . S
C409 O423 1.254 . S
C410 O424 1.236 . S
C410 O425 1.266 . S
C411 Tb401 2.809 . S
C411 C412 1.514 . S
C411 O426 1.248 . S
C411 O427 1.266 . S
C412 C411 1.514 . S
C412 C413 1.359 . S
C412 C417 1.348 . S
C413 C412 1.359 . S
C413 C414 1.380 . S
C413 H436 0.929 . S
C414 C413 1.380 . S
C414 C415 1.347 . S
C414 H437 0.931 . S
C415 C414 1.347 . S
C415 C416 1.369 . S
C416 C415 1.369 . S
C416 C417 1.408 . S
C416 H438 0.930 . S
C417 C412 1.348 . S
C417 C416 1.408 . S
C417 H439 0.930 . S
C418 O428 1.281 . S
C418 O429 1.254 . S
C419 O430 1.236 . S
C419 O431 1.266 . S
O420 Tb400 2.484 . S
O420 C402 1.248 . S
O421 Tb400 2.440 . S
O421 C402 1.266 . S
O422 Tb400 2.658 . S
O422 Tb401 2.325 . S
O422 C409 1.281 . S
O423 Tb400 2.409 . S
O423 C409 1.254 . S
O424 Tb400 2.378 . S
O424 C410 1.236 . S
O425 Tb401 2.341 . S
O425 C410 1.266 . S
O426 Tb401 2.484 . S
O426 C411 1.248 . S
O427 Tb401 2.440 . S
O427 C411 1.266 . S
O428 Tb400 2.325 . S
O428 Tb401 2.658 . S
O428 C418 1.281 . S
O429 Tb401 2.409 . S
O429 C418 1.254 . S
O430 Tb401 2.378 . S
O430 C419 1.236 . S
O431 Tb400 2.341 . S
O431 C419 1.266 . S
H432 C404 0.929 . S
H433 C405 0.931 . S
H434 C407 0.930 . S
H435 C408 0.930 . S
H436 C413 0.929 . S
H437 C414 0.931 . S
H438 C416 0.930 . S
H439 C417 0.930 . S
Tb440 C442 2.809 . S
Tb440 O460 2.484 . S
Tb440 O461 2.440 . S
Tb440 O462 2.658 . S
Tb440 O463 2.409 . S
Tb440 O464 2.378 . S
Tb440 O468 2.325 . S
Tb440 O471 2.341 1_556 S
Tb441 C451 2.809 1_556 S
Tb441 O462 2.325 . S
Tb441 O465 2.341 . S
Tb441 O466 2.484 1_556 S
Tb441 O467 2.440 . S
Tb441 O468 2.658 . S
Tb441 O469 2.409 . S
Tb441 O470 2.378 1_556 S
C442 Tb440 2.809 . S
C442 C443 1.514 . S
C442 O460 1.248 . S
C442 O461 1.266 . S
C443 C442 1.514 . S
C443 C444 1.359 . S
C443 C448 1.348 . S
C444 C443 1.359 . S
C444 C445 1.380 . S
C444 H472 0.929 . S
C445 C444 1.380 . S
C445 C446 1.347 . S
C445 H473 0.931 . S
C446 C445 1.347 . S
C446 C447 1.369 . S
C447 C446 1.369 . S
C447 C448 1.408 . S
C447 H474 0.930 . S
C448 C443 1.348 . S
C448 C447 1.408 . S
C448 H475 0.930 . S
C449 O462 1.281 . S
C449 O463 1.254 . S
C450 O464 1.236 . S
C450 O465 1.266 . S
C451 Tb441 2.809 1_554 S
C451 C452 1.514 . S
C451 O466 1.248 . S
C451 O467 1.266 1_554 S
C452 C451 1.514 . S
C452 C453 1.359 . S
C452 C457 1.348 . S
C453 C452 1.359 . S
C453 C454 1.380 . S
C453 H476 0.929 . S
C454 C453 1.380 . S
C454 C455 1.347 . S
C454 H477 0.931 . S
C455 C454 1.347 . S
C455 C456 1.369 . S
C456 C455 1.369 . S
C456 C457 1.408 . S
C456 H478 0.930 . S
C457 C452 1.348 . S
C457 C456 1.408 . S
C457 H479 0.930 . S
C458 O468 1.281 . S
C458 O469 1.254 . S
C459 O470 1.236 . S
C459 O471 1.266 . S
O460 Tb440 2.484 . S
O460 C442 1.248 . S
O461 Tb440 2.440 . S
O461 C442 1.266 . S
O462 Tb440 2.658 . S
O462 Tb441 2.325 . S
O462 C449 1.281 . S
O463 Tb440 2.409 . S
O463 C449 1.254 . S
O464 Tb440 2.378 . S
O464 C450 1.236 . S
O465 Tb441 2.341 . S
O465 C450 1.266 . S
O466 Tb441 2.484 1_554 S
O466 C451 1.248 . S
O467 Tb441 2.440 . S
O467 C451 1.266 1_556 S
O468 Tb440 2.325 . S
O468 Tb441 2.658 . S
O468 C458 1.281 . S
O469 Tb441 2.409 . S
O469 C458 1.254 . S
O470 Tb441 2.378 1_554 S
O470 C459 1.236 . S
O471 Tb440 2.341 1_554 S
O471 C459 1.266 . S
H472 C444 0.929 . S
H473 C445 0.931 . S
H474 C447 0.930 . S
H475 C448 0.930 . S
H476 C453 0.929 . S
H477 C454 0.931 . S
H478 C456 0.930 . S
H479 C457 0.930 . S
Tb480 C482 2.809 . S
Tb480 O500 2.484 . S
Tb480 O501 2.440 . S
Tb480 O502 2.658 . S
Tb480 O503 2.409 . S
Tb480 O504 2.378 . S
Tb480 O508 2.325 . S
Tb480 O511 2.341 . S
Tb481 C491 2.809 . S
Tb481 O502 2.325 . S
Tb481 O505 2.341 . S
Tb481 O506 2.484 . S
Tb481 O507 2.440 . S
Tb481 O508 2.658 . S
Tb481 O509 2.409 . S
Tb481 O510 2.378 . S
C482 Tb480 2.809 . S
C482 C483 1.514 . S
C482 O500 1.248 . S
C482 O501 1.266 . S
C483 C482 1.514 . S
C483 C484 1.359 . S
C483 C488 1.348 . S
C484 C483 1.359 . S
C484 C485 1.380 . S
C484 H512 0.929 . S
C485 C484 1.380 . S
C485 C486 1.347 . S
C485 H513 0.931 . S
C486 C485 1.347 . S
C486 C487 1.369 . S
C487 C486 1.369 . S
C487 C488 1.408 . S
C487 H514 0.930 . S
C488 C483 1.348 . S
C488 C487 1.408 . S
C488 H515 0.930 . S
C489 O502 1.281 . S
C489 O503 1.254 . S
C490 O504 1.236 . S
C490 O505 1.266 . S
C491 Tb481 2.809 . S
C491 C492 1.514 . S
C491 O506 1.248 . S
C491 O507 1.266 . S
C492 C491 1.514 . S
C492 C493 1.359 . S
C492 C497 1.348 . S
C493 C492 1.359 . S
C493 C494 1.380 . S
C493 H516 0.929 . S
C494 C493 1.380 . S
C494 C495 1.347 . S
C494 H517 0.931 . S
C495 C494 1.347 . S
C495 C496 1.369 . S
C496 C495 1.369 . S
C496 C497 1.408 . S
C496 H518 0.930 . S
C497 C492 1.348 . S
C497 C496 1.408 . S
C497 H519 0.930 . S
C498 O508 1.281 . S
C498 O509 1.254 . S
C499 O510 1.236 . S
C499 O511 1.266 . S
O500 Tb480 2.484 . S
O500 C482 1.248 . S
O501 Tb480 2.440 . S
O501 C482 1.266 . S
O502 Tb480 2.658 . S
O502 Tb481 2.325 . S
O502 C489 1.281 . S
O503 Tb480 2.409 . S
O503 C489 1.254 . S
O504 Tb480 2.378 . S
O504 C490 1.236 . S
O505 Tb481 2.341 . S
O505 C490 1.266 . S
O506 Tb481 2.484 . S
O506 C491 1.248 . S
O507 Tb481 2.440 . S
O507 C491 1.266 . S
O508 Tb480 2.325 . S
O508 Tb481 2.658 . S
O508 C498 1.281 . S
O509 Tb481 2.409 . S
O509 C498 1.254 . S
O510 Tb481 2.378 . S
O510 C499 1.236 . S
O511 Tb480 2.341 . S
O511 C499 1.266 . S
H512 C484 0.929 . S
H513 C485 0.931 . S
H514 C487 0.930 . S
H515 C488 0.930 . S
H516 C493 0.929 . S
H517 C494 0.931 . S
H518 C496 0.930 . S
H519 C497 0.930 . S
Tb520 C522 2.809 . S
Tb520 O540 2.484 . S
Tb520 O541 2.440 . S
Tb520 O542 2.658 . S
Tb520 O543 2.409 . S
Tb520 O544 2.378 . S
Tb520 O548 2.325 . S
Tb520 O551 2.341 . S
Tb521 C531 2.809 . S
Tb521 O542 2.325 . S
Tb521 O545 2.341 . S
Tb521 O546 2.484 . S
Tb521 O547 2.440 . S
Tb521 O548 2.658 . S
Tb521 O549 2.409 . S
Tb521 O550 2.378 . S
C522 Tb520 2.809 . S
C522 C523 1.514 . S
C522 O540 1.248 . S
C522 O541 1.266 . S
C523 C522 1.514 . S
C523 C524 1.359 . S
C523 C528 1.348 . S
C524 C523 1.359 . S
C524 C525 1.380 . S
C524 H552 0.929 . S
C525 C524 1.380 . S
C525 C526 1.347 . S
C525 H553 0.931 . S
C526 C525 1.347 . S
C526 C527 1.369 . S
C527 C526 1.369 . S
C527 C528 1.408 . S
C527 H554 0.930 . S
C528 C523 1.348 . S
C528 C527 1.408 . S
C528 H555 0.930 . S
C529 O542 1.281 . S
C529 O543 1.254 . S
C530 O544 1.236 . S
C530 O545 1.266 . S
C531 Tb521 2.809 . S
C531 C532 1.514 . S
C531 O546 1.248 . S
C531 O547 1.266 . S
C532 C531 1.514 . S
C532 C533 1.359 . S
C532 C537 1.348 . S
C533 C532 1.359 . S
C533 C534 1.380 . S
C533 H556 0.929 . S
C534 C533 1.380 . S
C534 C535 1.347 . S
C534 H557 0.931 . S
C535 C534 1.347 . S
C535 C536 1.369 . S
C536 C535 1.369 . S
C536 C537 1.408 . S
C536 H558 0.930 . S
C537 C532 1.348 . S
C537 C536 1.408 . S
C537 H559 0.930 . S
C538 O548 1.281 . S
C538 O549 1.254 . S
C539 O550 1.236 . S
C539 O551 1.266 . S
O540 Tb520 2.484 . S
O540 C522 1.248 . S
O541 Tb520 2.440 . S
O541 C522 1.266 . S
O542 Tb520 2.658 . S
O542 Tb521 2.325 . S
O542 C529 1.281 . S
O543 Tb520 2.409 . S
O543 C529 1.254 . S
O544 Tb520 2.378 . S
O544 C530 1.236 . S
O545 Tb521 2.341 . S
O545 C530 1.266 . S
O546 Tb521 2.484 . S
O546 C531 1.248 . S
O547 Tb521 2.440 . S
O547 C531 1.266 . S
O548 Tb520 2.325 . S
O548 Tb521 2.658 . S
O548 C538 1.281 . S
O549 Tb521 2.409 . S
O549 C538 1.254 . S
O550 Tb521 2.378 . S
O550 C539 1.236 . S
O551 Tb520 2.341 . S
O551 C539 1.266 . S
H552 C524 0.929 . S
H553 C525 0.931 . S
H554 C527 0.930 . S
H555 C528 0.930 . S
H556 C533 0.929 . S
H557 C534 0.931 . S
H558 C536 0.930 . S
H559 C537 0.930 . S
Tb560 C562 2.809 . S
Tb560 O580 2.484 . S
Tb560 O581 2.440 . S
Tb560 O582 2.658 . S
Tb560 O583 2.409 . S
Tb560 O584 2.378 . S
Tb560 O588 2.325 . S
Tb560 O591 2.341 . S
Tb561 C571 2.809 . S
Tb561 O582 2.325 . S
Tb561 O585 2.341 . S
Tb561 O586 2.484 . S
Tb561 O587 2.440 . S
Tb561 O588 2.658 . S
Tb561 O589 2.409 . S
Tb561 O590 2.378 . S
C562 Tb560 2.809 . S
C562 C563 1.514 . S
C562 O580 1.248 . S
C562 O581 1.266 . S
C563 C562 1.514 . S
C563 C564 1.359 . S
C563 C568 1.348 . S
C564 C563 1.359 . S
C564 C565 1.380 . S
C564 H592 0.929 . S
C565 C564 1.380 . S
C565 C566 1.347 . S
C565 H593 0.931 . S
C566 C565 1.347 . S
C566 C567 1.369 . S
C567 C566 1.369 . S
C567 C568 1.408 . S
C567 H594 0.930 . S
C568 C563 1.348 . S
C568 C567 1.408 . S
C568 H595 0.930 . S
C569 O582 1.281 . S
C569 O583 1.254 . S
C570 O584 1.236 . S
C570 O585 1.266 . S
C571 Tb561 2.809 . S
C571 C572 1.514 . S
C571 O586 1.248 . S
C571 O587 1.266 . S
C572 C571 1.514 . S
C572 C573 1.359 . S
C572 C577 1.348 . S
C573 C572 1.359 . S
C573 C574 1.380 . S
C573 H596 0.929 . S
C574 C573 1.380 . S
C574 C575 1.347 . S
C574 H597 0.931 . S
C575 C574 1.347 . S
C575 C576 1.369 . S
C576 C575 1.369 . S
C576 C577 1.408 . S
C576 H598 0.930 . S
C577 C572 1.348 . S
C577 C576 1.408 . S
C577 H599 0.930 . S
C578 O588 1.281 . S
C578 O589 1.254 . S
C579 O590 1.236 . S
C579 O591 1.266 . S
O580 Tb560 2.484 . S
O580 C562 1.248 . S
O581 Tb560 2.440 . S
O581 C562 1.266 . S
O582 Tb560 2.658 . S
O582 Tb561 2.325 . S
O582 C569 1.281 . S
O583 Tb560 2.409 . S
O583 C569 1.254 . S
O584 Tb560 2.378 . S
O584 C570 1.236 . S
O585 Tb561 2.341 . S
O585 C570 1.266 . S
O586 Tb561 2.484 . S
O586 C571 1.248 . S
O587 Tb561 2.440 . S
O587 C571 1.266 . S
O588 Tb560 2.325 . S
O588 Tb561 2.658 . S
O588 C578 1.281 . S
O589 Tb561 2.409 . S
O589 C578 1.254 . S
O590 Tb561 2.378 . S
O590 C579 1.236 . S
O591 Tb560 2.341 . S
O591 C579 1.266 . S
H592 C564 0.929 . S
H593 C565 0.931 . S
H594 C567 0.930 . S
H595 C568 0.930 . S
H596 C573 0.929 . S
H597 C574 0.931 . S
H598 C576 0.930 . S
H599 C577 0.930 . S
Tb600 C602 2.809 . S
Tb600 O620 2.484 . S
Tb600 O621 2.440 . S
Tb600 O622 2.658 . S
Tb600 O623 2.409 . S
Tb600 O624 2.378 . S
Tb600 O628 2.325 . S
Tb600 O631 2.341 1_554 S
Tb601 C611 2.809 1_554 S
Tb601 O622 2.325 . S
Tb601 O625 2.341 . S
Tb601 O626 2.484 1_554 S
Tb601 O627 2.440 . S
Tb601 O628 2.658 . S
Tb601 O629 2.409 . S
Tb601 O630 2.378 1_554 S
C602 Tb600 2.809 . S
C602 C603 1.514 . S
C602 O620 1.248 . S
C602 O621 1.266 . S
C603 C602 1.514 . S
C603 C604 1.359 . S
C603 C608 1.348 . S
C604 C603 1.359 . S
C604 C605 1.380 . S
C604 H632 0.929 . S
C605 C604 1.380 . S
C605 C606 1.347 . S
C605 H633 0.931 . S
C606 C605 1.347 . S
C606 C607 1.369 . S
C607 C606 1.369 . S
C607 C608 1.408 . S
C607 H634 0.930 . S
C608 C603 1.348 . S
C608 C607 1.408 . S
C608 H635 0.930 . S
C609 O622 1.281 . S
C609 O623 1.254 . S
C610 O624 1.236 . S
C610 O625 1.266 . S
C611 Tb601 2.809 1_556 S
C611 C612 1.514 . S
C611 O626 1.248 . S
C611 O627 1.266 1_556 S
C612 C611 1.514 . S
C612 C613 1.359 . S
C612 C617 1.348 . S
C613 C612 1.359 . S
C613 C614 1.380 . S
C613 H636 0.929 . S
C614 C613 1.380 . S
C614 C615 1.347 . S
C614 H637 0.931 . S
C615 C614 1.347 . S
C615 C616 1.369 . S
C616 C615 1.369 . S
C616 C617 1.408 . S
C616 H638 0.930 . S
C617 C612 1.348 . S
C617 C616 1.408 . S
C617 H639 0.930 . S
C618 O628 1.281 . S
C618 O629 1.254 . S
C619 O630 1.236 . S
C619 O631 1.266 . S
O620 Tb600 2.484 . S
O620 C602 1.248 . S
O621 Tb600 2.440 . S
O621 C602 1.266 . S
O622 Tb600 2.658 . S
O622 Tb601 2.325 . S
O622 C609 1.281 . S
O623 Tb600 2.409 . S
O623 C609 1.254 . S
O624 Tb600 2.378 . S
O624 C610 1.236 . S
O625 Tb601 2.341 . S
O625 C610 1.266 . S
O626 Tb601 2.484 1_556 S
O626 C611 1.248 . S
O627 Tb601 2.440 . S
O627 C611 1.266 1_554 S
O628 Tb600 2.325 . S
O628 Tb601 2.658 . S
O628 C618 1.281 . S
O629 Tb601 2.409 . S
O629 C618 1.254 . S
O630 Tb601 2.378 1_556 S
O630 C619 1.236 . S
O631 Tb600 2.341 1_556 S
O631 C619 1.266 . S
H632 C604 0.929 . S
H633 C605 0.931 . S
H634 C607 0.930 . S
H635 C608 0.930 . S
H636 C613 0.929 . S
H637 C614 0.931 . S
H638 C616 0.930 . S
H639 C617 0.930 . S
Tb640 C642 2.809 . S
Tb640 O660 2.484 . S
Tb640 O661 2.440 . S
Tb640 O662 2.658 . S
Tb640 O663 2.409 . S
Tb640 O664 2.378 . S
Tb640 O668 2.325 . S
Tb640 O671 2.341 . S
Tb641 C651 2.809 . S
Tb641 O662 2.325 . S
Tb641 O665 2.341 . S
Tb641 O666 2.484 . S
Tb641 O667 2.440 . S
Tb641 O668 2.658 . S
Tb641 O669 2.409 . S
Tb641 O670 2.378 . S
C642 Tb640 2.809 . S
C642 C643 1.514 . S
C642 O660 1.248 . S
C642 O661 1.266 . S
C643 C642 1.514 . S
C643 C644 1.359 . S
C643 C648 1.348 . S
C644 C643 1.359 . S
C644 C645 1.380 . S
C644 H672 0.929 . S
C645 C644 1.380 . S
C645 C646 1.347 . S
C645 H673 0.931 . S
C646 C645 1.347 . S
C646 C647 1.369 . S
C647 C646 1.369 . S
C647 C648 1.408 . S
C647 H674 0.930 . S
C648 C643 1.348 . S
C648 C647 1.408 . S
C648 H675 0.930 . S
C649 O662 1.281 . S
C649 O663 1.254 . S
C650 O664 1.236 . S
C650 O665 1.266 . S
C651 Tb641 2.809 . S
C651 C652 1.514 . S
C651 O666 1.248 . S
C651 O667 1.266 . S
C652 C651 1.514 . S
C652 C653 1.359 . S
C652 C657 1.348 . S
C653 C652 1.359 . S
C653 C654 1.380 . S
C653 H676 0.929 . S
C654 C653 1.380 . S
C654 C655 1.347 . S
C654 H677 0.931 . S
C655 C654 1.347 . S
C655 C656 1.369 . S
C656 C655 1.369 . S
C656 C657 1.408 . S
C656 H678 0.930 . S
C657 C652 1.348 . S
C657 C656 1.408 . S
C657 H679 0.930 . S
C658 O668 1.281 . S
C658 O669 1.254 . S
C659 O670 1.236 . S
C659 O671 1.266 . S
O660 Tb640 2.484 . S
O660 C642 1.248 . S
O661 Tb640 2.440 . S
O661 C642 1.266 . S
O662 Tb640 2.658 . S
O662 Tb641 2.325 . S
O662 C649 1.281 . S
O663 Tb640 2.409 . S
O663 C649 1.254 . S
O664 Tb640 2.378 . S
O664 C650 1.236 . S
O665 Tb641 2.341 . S
O665 C650 1.266 . S
O666 Tb641 2.484 . S
O666 C651 1.248 . S
O667 Tb641 2.440 . S
O667 C651 1.266 . S
O668 Tb640 2.325 . S
O668 Tb641 2.658 . S
O668 C658 1.281 . S
O669 Tb641 2.409 . S
O669 C658 1.254 . S
O670 Tb641 2.378 . S
O670 C659 1.236 . S
O671 Tb640 2.341 . S
O671 C659 1.266 . S
H672 C644 0.929 . S
H673 C645 0.931 . S
H674 C647 0.930 . S
H675 C648 0.930 . S
H676 C653 0.929 . S
H677 C654 0.931 . S
H678 C656 0.930 . S
H679 C657 0.930 . S
Tb680 C682 2.809 1_554 S
Tb680 O700 2.484 1_554 S
Tb680 O701 2.440 . S
Tb680 O702 2.658 . S
Tb680 O703 2.409 . S
Tb680 O704 2.378 1_554 S
Tb680 O708 2.325 . S
Tb680 O711 2.341 . S
Tb681 C691 2.809 . S
Tb681 O702 2.325 . S
Tb681 O705 2.341 1_554 S
Tb681 O706 2.484 . S
Tb681 O707 2.440 . S
Tb681 O708 2.658 . S
Tb681 O709 2.409 . S
Tb681 O710 2.378 . S
C682 Tb680 2.809 1_556 S
C682 C683 1.514 . S
C682 O700 1.248 . S
C682 O701 1.266 1_556 S
C683 C682 1.514 . S
C683 C684 1.359 . S
C683 C688 1.348 . S
C684 C683 1.359 . S
C684 C685 1.380 . S
C684 H712 0.929 . S
C685 C684 1.380 . S
C685 C686 1.347 . S
C685 H713 0.931 . S
C686 C685 1.347 . S
C686 C687 1.369 . S
C687 C686 1.369 . S
C687 C688 1.408 . S
C687 H714 0.930 . S
C688 C683 1.348 . S
C688 C687 1.408 . S
C688 H715 0.930 . S
C689 O702 1.281 . S
C689 O703 1.254 . S
C690 O704 1.236 . S
C690 O705 1.266 . S
C691 Tb681 2.809 . S
C691 C692 1.514 . S
C691 O706 1.248 . S
C691 O707 1.266 . S
C692 C691 1.514 . S
C692 C693 1.359 . S
C692 C697 1.348 . S
C693 C692 1.359 . S
C693 C694 1.380 . S
C693 H716 0.929 . S
C694 C693 1.380 . S
C694 C695 1.347 . S
C694 H717 0.931 . S
C695 C694 1.347 . S
C695 C696 1.369 . S
C696 C695 1.369 . S
C696 C697 1.408 . S
C696 H718 0.930 . S
C697 C692 1.348 . S
C697 C696 1.408 . S
C697 H719 0.930 . S
C698 O708 1.281 . S
C698 O709 1.254 . S
C699 O710 1.236 . S
C699 O711 1.266 . S
O700 Tb680 2.484 1_556 S
O700 C682 1.248 . S
O701 Tb680 2.440 . S
O701 C682 1.266 1_554 S
O702 Tb680 2.658 . S
O702 Tb681 2.325 . S
O702 C689 1.281 . S
O703 Tb680 2.409 . S
O703 C689 1.254 . S
O704 Tb680 2.378 1_556 S
O704 C690 1.236 . S
O705 Tb681 2.341 1_556 S
O705 C690 1.266 . S
O706 Tb681 2.484 . S
O706 C691 1.248 . S
O707 Tb681 2.440 . S
O707 C691 1.266 . S
O708 Tb680 2.325 . S
O708 Tb681 2.658 . S
O708 C698 1.281 . S
O709 Tb681 2.409 . S
O709 C698 1.254 . S
O710 Tb681 2.378 . S
O710 C699 1.236 . S
O711 Tb680 2.341 . S
O711 C699 1.266 . S
H712 C684 0.929 . S
H713 C685 0.931 . S
H714 C687 0.930 . S
H715 C688 0.930 . S
H716 C693 0.929 . S
H717 C694 0.931 . S
H718 C696 0.930 . S
H719 C697 0.930 . S
Tb720 C722 2.809 . S
Tb720 O740 2.484 . S
Tb720 O741 2.440 . S
Tb720 O742 2.658 . S
Tb720 O743 2.409 . S
Tb720 O744 2.378 . S
Tb720 O748 2.325 . S
Tb720 O751 2.341 . S
Tb721 C731 2.809 . S
Tb721 O742 2.325 . S
Tb721 O745 2.341 . S
Tb721 O746 2.484 . S
Tb721 O747 2.440 . S
Tb721 O748 2.658 . S
Tb721 O749 2.409 . S
Tb721 O750 2.378 . S
C722 Tb720 2.809 . S
C722 C723 1.514 . S
C722 O740 1.248 . S
C722 O741 1.266 . S
C723 C722 1.514 . S
C723 C724 1.359 . S
C723 C728 1.348 . S
C724 C723 1.359 . S
C724 C725 1.380 . S
C724 H752 0.929 . S
C725 C724 1.380 . S
C725 C726 1.347 . S
C725 H753 0.931 . S
C726 C725 1.347 . S
C726 C727 1.369 . S
C727 C726 1.369 . S
C727 C728 1.408 . S
C727 H754 0.930 . S
C728 C723 1.348 . S
C728 C727 1.408 . S
C728 H755 0.930 . S
C729 O742 1.281 . S
C729 O743 1.254 . S
C730 O744 1.236 . S
C730 O745 1.266 . S
C731 Tb721 2.809 . S
C731 C732 1.514 . S
C731 O746 1.248 . S
C731 O747 1.266 . S
C732 C731 1.514 . S
C732 C733 1.359 . S
C732 C737 1.348 . S
C733 C732 1.359 . S
C733 C734 1.380 . S
C733 H756 0.929 . S
C734 C733 1.380 . S
C734 C735 1.347 . S
C734 H757 0.931 . S
C735 C734 1.347 . S
C735 C736 1.369 . S
C736 C735 1.369 . S
C736 C737 1.408 . S
C736 H758 0.930 . S
C737 C732 1.348 . S
C737 C736 1.408 . S
C737 H759 0.930 . S
C738 O748 1.281 . S
C738 O749 1.254 . S
C739 O750 1.236 . S
C739 O751 1.266 . S
O740 Tb720 2.484 . S
O740 C722 1.248 . S
O741 Tb720 2.440 . S
O741 C722 1.266 . S
O742 Tb720 2.658 . S
O742 Tb721 2.325 . S
O742 C729 1.281 . S
O743 Tb720 2.409 . S
O743 C729 1.254 . S
O744 Tb720 2.378 . S
O744 C730 1.236 . S
O745 Tb721 2.341 . S
O745 C730 1.266 . S
O746 Tb721 2.484 . S
O746 C731 1.248 . S
O747 Tb721 2.440 . S
O747 C731 1.266 . S
O748 Tb720 2.325 . S
O748 Tb721 2.658 . S
O748 C738 1.281 . S
O749 Tb721 2.409 . S
O749 C738 1.254 . S
O750 Tb721 2.378 . S
O750 C739 1.236 . S
O751 Tb720 2.341 . S
O751 C739 1.266 . S
H752 C724 0.929 . S
H753 C725 0.931 . S
H754 C727 0.930 . S
H755 C728 0.930 . S
H756 C733 0.929 . S
H757 C734 0.931 . S
H758 C736 0.930 . S
H759 C737 0.930 . S
Tb760 C762 2.809 . S
Tb760 O780 2.484 . S
Tb760 O781 2.440 . S
Tb760 O782 2.658 . S
Tb760 O783 2.409 . S
Tb760 O784 2.378 . S
Tb760 O788 2.325 . S
Tb760 O791 2.341 . S
Tb761 C771 2.809 . S
Tb761 O782 2.325 . S
Tb761 O785 2.341 . S
Tb761 O786 2.484 . S
Tb761 O787 2.440 . S
Tb761 O788 2.658 . S
Tb761 O789 2.409 . S
Tb761 O790 2.378 . S
C762 Tb760 2.809 . S
C762 C763 1.514 . S
C762 O780 1.248 . S
C762 O781 1.266 . S
C763 C762 1.514 . S
C763 C764 1.359 . S
C763 C768 1.348 . S
C764 C763 1.359 . S
C764 C765 1.380 . S
C764 H792 0.929 . S
C765 C764 1.380 . S
C765 C766 1.347 . S
C765 H793 0.931 . S
C766 C765 1.347 . S
C766 C767 1.369 . S
C767 C766 1.369 . S
C767 C768 1.408 . S
C767 H794 0.930 . S
C768 C763 1.348 . S
C768 C767 1.408 . S
C768 H795 0.930 . S
C769 O782 1.281 . S
C769 O783 1.254 . S
C770 O784 1.236 . S
C770 O785 1.266 . S
C771 Tb761 2.809 . S
C771 C772 1.514 . S
C771 O786 1.248 . S
C771 O787 1.266 . S
C772 C771 1.514 . S
C772 C773 1.359 . S
C772 C777 1.348 . S
C773 C772 1.359 . S
C773 C774 1.380 . S
C773 H796 0.929 . S
C774 C773 1.380 . S
C774 C775 1.347 . S
C774 H797 0.931 . S
C775 C774 1.347 . S
C775 C776 1.369 . S
C776 C775 1.369 . S
C776 C777 1.408 . S
C776 H798 0.930 . S
C777 C772 1.348 . S
C777 C776 1.408 . S
C777 H799 0.930 . S
C778 O788 1.281 . S
C778 O789 1.254 . S
C779 O790 1.236 . S
C779 O791 1.266 . S
O780 Tb760 2.484 . S
O780 C762 1.248 . S
O781 Tb760 2.440 . S
O781 C762 1.266 . S
O782 Tb760 2.658 . S
O782 Tb761 2.325 . S
O782 C769 1.281 . S
O783 Tb760 2.409 . S
O783 C769 1.254 . S
O784 Tb760 2.378 . S
O784 C770 1.236 . S
O785 Tb761 2.341 . S
O785 C770 1.266 . S
O786 Tb761 2.484 . S
O786 C771 1.248 . S
O787 Tb761 2.440 . S
O787 C771 1.266 . S
O788 Tb760 2.325 . S
O788 Tb761 2.658 . S
O788 C778 1.281 . S
O789 Tb761 2.409 . S
O789 C778 1.254 . S
O790 Tb761 2.378 . S
O790 C779 1.236 . S
O791 Tb760 2.341 . S
O791 C779 1.266 . S
H792 C764 0.929 . S
H793 C765 0.931 . S
H794 C767 0.930 . S
H795 C768 0.930 . S
H796 C773 0.929 . S
H797 C774 0.931 . S
H798 C776 0.930 . S
H799 C777 0.930 . S
Tb800 C802 2.809 . S
Tb800 O820 2.484 . S
Tb800 O821 2.440 . S
Tb800 O822 2.658 . S
Tb800 O823 2.409 . S
Tb800 O824 2.378 . S
Tb800 O828 2.325 . S
Tb800 O831 2.341 . S
Tb801 C811 2.809 . S
Tb801 O822 2.325 . S
Tb801 O825 2.341 . S
Tb801 O826 2.484 . S
Tb801 O827 2.440 . S
Tb801 O828 2.658 . S
Tb801 O829 2.409 . S
Tb801 O830 2.378 . S
C802 Tb800 2.809 . S
C802 C803 1.514 . S
C802 O820 1.248 . S
C802 O821 1.266 . S
C803 C802 1.514 . S
C803 C804 1.359 . S
C803 C808 1.348 . S
C804 C803 1.359 . S
C804 C805 1.380 . S
C804 H832 0.929 . S
C805 C804 1.380 . S
C805 C806 1.347 . S
C805 H833 0.931 . S
C806 C805 1.347 . S
C806 C807 1.369 . S
C807 C806 1.369 . S
C807 C808 1.408 . S
C807 H834 0.930 . S
C808 C803 1.348 . S
C808 C807 1.408 . S
C808 H835 0.930 . S
C809 O822 1.281 . S
C809 O823 1.254 . S
C810 O824 1.236 . S
C810 O825 1.266 . S
C811 Tb801 2.809 . S
C811 C812 1.514 . S
C811 O826 1.248 . S
C811 O827 1.266 . S
C812 C811 1.514 . S
C812 C813 1.359 . S
C812 C817 1.348 . S
C813 C812 1.359 . S
C813 C814 1.380 . S
C813 H836 0.929 . S
C814 C813 1.380 . S
C814 C815 1.347 . S
C814 H837 0.931 . S
C815 C814 1.347 . S
C815 C816 1.369 . S
C816 C815 1.369 . S
C816 C817 1.408 . S
C816 H838 0.930 . S
C817 C812 1.348 . S
C817 C816 1.408 . S
C817 H839 0.930 . S
C818 O828 1.281 . S
C818 O829 1.254 . S
C819 O830 1.236 . S
C819 O831 1.266 . S
O820 Tb800 2.484 . S
O820 C802 1.248 . S
O821 Tb800 2.440 . S
O821 C802 1.266 . S
O822 Tb800 2.658 . S
O822 Tb801 2.325 . S
O822 C809 1.281 . S
O823 Tb800 2.409 . S
O823 C809 1.254 . S
O824 Tb800 2.378 . S
O824 C810 1.236 . S
O825 Tb801 2.341 . S
O825 C810 1.266 . S
O826 Tb801 2.484 . S
O826 C811 1.248 . S
O827 Tb801 2.440 . S
O827 C811 1.266 . S
O828 Tb800 2.325 . S
O828 Tb801 2.658 . S
O828 C818 1.281 . S
O829 Tb801 2.409 . S
O829 C818 1.254 . S
O830 Tb801 2.378 . S
O830 C819 1.236 . S
O831 Tb800 2.341 . S
O831 C819 1.266 . S
H832 C804 0.929 . S
H833 C805 0.931 . S
H834 C807 0.930 . S
H835 C808 0.930 . S
H836 C813 0.929 . S
H837 C814 0.931 . S
H838 C816 0.930 . S
H839 C817 0.930 . S
Tb840 C842 2.809 1_556 S
Tb840 O860 2.484 1_556 S
Tb840 O861 2.440 . S
Tb840 O862 2.658 . S
Tb840 O863 2.409 . S
Tb840 O864 2.378 1_556 S
Tb840 O868 2.325 . S
Tb840 O871 2.341 . S
Tb841 C851 2.809 . S
Tb841 O862 2.325 . S
Tb841 O865 2.341 1_556 S
Tb841 O866 2.484 . S
Tb841 O867 2.440 . S
Tb841 O868 2.658 . S
Tb841 O869 2.409 . S
Tb841 O870 2.378 . S
C842 Tb840 2.809 1_554 S
C842 C843 1.514 . S
C842 O860 1.248 . S
C842 O861 1.266 1_554 S
C843 C842 1.514 . S
C843 C844 1.359 . S
C843 C848 1.348 . S
C844 C843 1.359 . S
C844 C845 1.380 . S
C844 H872 0.929 . S
C845 C844 1.380 . S
C845 C846 1.347 . S
C845 H873 0.931 . S
C846 C845 1.347 . S
C846 C847 1.369 . S
C847 C846 1.369 . S
C847 C848 1.408 . S
C847 H874 0.930 . S
C848 C843 1.348 . S
C848 C847 1.408 . S
C848 H875 0.930 . S
C849 O862 1.281 . S
C849 O863 1.254 . S
C850 O864 1.236 . S
C850 O865 1.266 . S
C851 Tb841 2.809 . S
C851 C852 1.514 . S
C851 O866 1.248 . S
C851 O867 1.266 . S
C852 C851 1.514 . S
C852 C853 1.359 . S
C852 C857 1.348 . S
C853 C852 1.359 . S
C853 C854 1.380 . S
C853 H876 0.929 . S
C854 C853 1.380 . S
C854 C855 1.347 . S
C854 H877 0.931 . S
C855 C854 1.347 . S
C855 C856 1.369 . S
C856 C855 1.369 . S
C856 C857 1.408 . S
C856 H878 0.930 . S
C857 C852 1.348 . S
C857 C856 1.408 . S
C857 H879 0.930 . S
C858 O868 1.281 . S
C858 O869 1.254 . S
C859 O870 1.236 . S
C859 O871 1.266 . S
O860 Tb840 2.484 1_554 S
O860 C842 1.248 . S
O861 Tb840 2.440 . S
O861 C842 1.266 1_556 S
O862 Tb840 2.658 . S
O862 Tb841 2.325 . S
O862 C849 1.281 . S
O863 Tb840 2.409 . S
O863 C849 1.254 . S
O864 Tb840 2.378 1_554 S
O864 C850 1.236 . S
O865 Tb841 2.341 1_554 S
O865 C850 1.266 . S
O866 Tb841 2.484 . S
O866 C851 1.248 . S
O867 Tb841 2.440 . S
O867 C851 1.266 . S
O868 Tb840 2.325 . S
O868 Tb841 2.658 . S
O868 C858 1.281 . S
O869 Tb841 2.409 . S
O869 C858 1.254 . S
O870 Tb841 2.378 . S
O870 C859 1.236 . S
O871 Tb840 2.341 . S
O871 C859 1.266 . S
H872 C844 0.929 . S
H873 C845 0.931 . S
H874 C847 0.930 . S
H875 C848 0.930 . S
H876 C853 0.929 . S
H877 C854 0.931 . S
H878 C856 0.930 . S
H879 C857 0.930 . S
Tb880 C882 2.809 . S
Tb880 O900 2.484 . S
Tb880 O901 2.440 . S
Tb880 O902 2.658 . S
Tb880 O903 2.409 . S
Tb880 O904 2.378 . S
Tb880 O908 2.325 . S
Tb880 O911 2.341 . S
Tb881 C891 2.809 . S
Tb881 O902 2.325 . S
Tb881 O905 2.341 . S
Tb881 O906 2.484 . S
Tb881 O907 2.440 . S
Tb881 O908 2.658 . S
Tb881 O909 2.409 . S
Tb881 O910 2.378 . S
C882 Tb880 2.809 . S
C882 C883 1.514 . S
C882 O900 1.248 . S
C882 O901 1.266 . S
C883 C882 1.514 . S
C883 C884 1.359 . S
C883 C888 1.348 . S
C884 C883 1.359 . S
C884 C885 1.380 . S
C884 H912 0.929 . S
C885 C884 1.380 . S
C885 C886 1.347 . S
C885 H913 0.931 . S
C886 C885 1.347 . S
C886 C887 1.369 . S
C887 C886 1.369 . S
C887 C888 1.408 . S
C887 H914 0.930 . S
C888 C883 1.348 . S
C888 C887 1.408 . S
C888 H915 0.930 . S
C889 O902 1.281 . S
C889 O903 1.254 . S
C890 O904 1.236 . S
C890 O905 1.266 . S
C891 Tb881 2.809 . S
C891 C892 1.514 . S
C891 O906 1.248 . S
C891 O907 1.266 . S
C892 C891 1.514 . S
C892 C893 1.359 . S
C892 C897 1.348 . S
C893 C892 1.359 . S
C893 C894 1.380 . S
C893 H916 0.929 . S
C894 C893 1.380 . S
C894 C895 1.347 . S
C894 H917 0.931 . S
C895 C894 1.347 . S
C895 C896 1.369 . S
C896 C895 1.369 . S
C896 C897 1.408 . S
C896 H918 0.930 . S
C897 C892 1.348 . S
C897 C896 1.408 . S
C897 H919 0.930 . S
C898 O908 1.281 . S
C898 O909 1.254 . S
C899 O910 1.236 . S
C899 O911 1.266 . S
O900 Tb880 2.484 . S
O900 C882 1.248 . S
O901 Tb880 2.440 . S
O901 C882 1.266 . S
O902 Tb880 2.658 . S
O902 Tb881 2.325 . S
O902 C889 1.281 . S
O903 Tb880 2.409 . S
O903 C889 1.254 . S
O904 Tb880 2.378 . S
O904 C890 1.236 . S
O905 Tb881 2.341 . S
O905 C890 1.266 . S
O906 Tb881 2.484 . S
O906 C891 1.248 . S
O907 Tb881 2.440 . S
O907 C891 1.266 . S
O908 Tb880 2.325 . S
O908 Tb881 2.658 . S
O908 C898 1.281 . S
O909 Tb881 2.409 . S
O909 C898 1.254 . S
O910 Tb881 2.378 . S
O910 C899 1.236 . S
O911 Tb880 2.341 . S
O911 C899 1.266 . S
H912 C884 0.929 . S
H913 C885 0.931 . S
H914 C887 0.930 . S
H915 C888 0.930 . S
H916 C893 0.929 . S
H917 C894 0.931 . S
H918 C896 0.930 . S
H919 C897 0.930 . S
Tb920 C922 2.809 . S
Tb920 O940 2.484 . S
Tb920 O941 2.440 . S
Tb920 O942 2.658 . S
Tb920 O943 2.409 . S
Tb920 O944 2.378 . S
Tb920 O948 2.325 . S
Tb920 O951 2.341 . S
Tb921 C931 2.809 . S
Tb921 O942 2.325 . S
Tb921 O945 2.341 . S
Tb921 O946 2.484 . S
Tb921 O947 2.440 . S
Tb921 O948 2.658 . S
Tb921 O949 2.409 . S
Tb921 O950 2.378 . S
C922 Tb920 2.809 . S
C922 C923 1.514 . S
C922 O940 1.248 . S
C922 O941 1.266 . S
C923 C922 1.514 . S
C923 C924 1.359 . S
C923 C928 1.348 . S
C924 C923 1.359 . S
C924 C925 1.380 . S
C924 H952 0.929 . S
C925 C924 1.380 . S
C925 C926 1.347 . S
C925 H953 0.931 . S
C926 C925 1.347 . S
C926 C927 1.369 . S
C927 C926 1.369 . S
C927 C928 1.408 . S
C927 H954 0.930 . S
C928 C923 1.348 . S
C928 C927 1.408 . S
C928 H955 0.930 . S
C929 O942 1.281 . S
C929 O943 1.254 . S
C930 O944 1.236 . S
C930 O945 1.266 . S
C931 Tb921 2.809 . S
C931 C932 1.514 . S
C931 O946 1.248 . S
C931 O947 1.266 . S
C932 C931 1.514 . S
C932 C933 1.359 . S
C932 C937 1.348 . S
C933 C932 1.359 . S
C933 C934 1.380 . S
C933 H956 0.929 . S
C934 C933 1.380 . S
C934 C935 1.347 . S
C934 H957 0.931 . S
C935 C934 1.347 . S
C935 C936 1.369 . S
C936 C935 1.369 . S
C936 C937 1.408 . S
C936 H958 0.930 . S
C937 C932 1.348 . S
C937 C936 1.408 . S
C937 H959 0.930 . S
C938 O948 1.281 . S
C938 O949 1.254 . S
C939 O950 1.236 . S
C939 O951 1.266 . S
O940 Tb920 2.484 . S
O940 C922 1.248 . S
O941 Tb920 2.440 . S
O941 C922 1.266 . S
O942 Tb920 2.658 . S
O942 Tb921 2.325 . S
O942 C929 1.281 . S
O943 Tb920 2.409 . S
O943 C929 1.254 . S
O944 Tb920 2.378 . S
O944 C930 1.236 . S
O945 Tb921 2.341 . S
O945 C930 1.266 . S
O946 Tb921 2.484 . S
O946 C931 1.248 . S
O947 Tb921 2.440 . S
O947 C931 1.266 . S
O948 Tb920 2.325 . S
O948 Tb921 2.658 . S
O948 C938 1.281 . S
O949 Tb921 2.409 . S
O949 C938 1.254 . S
O950 Tb921 2.378 . S
O950 C939 1.236 . S
O951 Tb920 2.341 . S
O951 C939 1.266 . S
H952 C924 0.929 . S
H953 C925 0.931 . S
H954 C927 0.930 . S
H955 C928 0.930 . S
H956 C933 0.929 . S
H957 C934 0.931 . S
H958 C936 0.930 . S
H959 C937 0.930 . S
Tb960 C962 2.809 . S
Tb960 O980 2.484 . S
Tb960 O981 2.440 . S
Tb960 O982 2.658 . S
Tb960 O983 2.409 . S
Tb960 O984 2.378 . S
Tb960 O988 2.325 . S
Tb960 O991 2.341 . S
Tb961 C971 2.809 . S
Tb961 O982 2.325 . S
Tb961 O985 2.341 . S
Tb961 O986 2.484 . S
Tb961 O987 2.440 . S
Tb961 O988 2.658 . S
Tb961 O989 2.409 . S
Tb961 O990 2.378 . S
C962 Tb960 2.809 . S
C962 C963 1.514 . S
C962 O980 1.248 . S
C962 O981 1.266 . S
C963 C962 1.514 . S
C963 C964 1.359 . S
C963 C968 1.348 . S
C964 C963 1.359 . S
C964 C965 1.380 . S
C964 H992 0.929 . S
C965 C964 1.380 . S
C965 C966 1.347 . S
C965 H993 0.931 . S
C966 C965 1.347 . S
C966 C967 1.369 . S
C967 C966 1.369 . S
C967 C968 1.408 . S
C967 H994 0.930 . S
C968 C963 1.348 . S
C968 C967 1.408 . S
C968 H995 0.930 . S
C969 O982 1.281 . S
C969 O983 1.254 . S
C970 O984 1.236 . S
C970 O985 1.266 . S
C971 Tb961 2.809 . S
C971 C972 1.514 . S
C971 O986 1.248 . S
C971 O987 1.266 . S
C972 C971 1.514 . S
C972 C973 1.359 . S
C972 C977 1.348 . S
C973 C972 1.359 . S
C973 C974 1.380 . S
C973 H996 0.929 . S
C974 C973 1.380 . S
C974 C975 1.347 . S
C974 H997 0.931 . S
C975 C974 1.347 . S
C975 C976 1.369 . S
C976 C975 1.369 . S
C976 C977 1.408 . S
C976 H998 0.930 . S
C977 C972 1.348 . S
C977 C976 1.408 . S
C977 H999 0.930 . S
C978 O988 1.281 . S
C978 O989 1.254 . S
C979 O990 1.236 . S
C979 O991 1.266 . S
O980 Tb960 2.484 . S
O980 C962 1.248 . S
O981 Tb960 2.440 . S
O981 C962 1.266 . S
O982 Tb960 2.658 . S
O982 Tb961 2.325 . S
O982 C969 1.281 . S
O983 Tb960 2.409 . S
O983 C969 1.254 . S
O984 Tb960 2.378 . S
O984 C970 1.236 . S
O985 Tb961 2.341 . S
O985 C970 1.266 . S
O986 Tb961 2.484 . S
O986 C971 1.248 . S
O987 Tb961 2.440 . S
O987 C971 1.266 . S
O988 Tb960 2.325 . S
O988 Tb961 2.658 . S
O988 C978 1.281 . S
O989 Tb961 2.409 . S
O989 C978 1.254 . S
O990 Tb961 2.378 . S
O990 C979 1.236 . S
O991 Tb960 2.341 . S
O991 C979 1.266 . S
H992 C964 0.929 . S
H993 C965 0.931 . S
H994 C967 0.930 . S
H995 C968 0.930 . S
H996 C973 0.929 . S
H997 C974 0.931 . S
H998 C976 0.930 . S
H999 C977 0.930 . S
Tb1000 C1002 2.809 . S
Tb1000 O1020 2.484 . S
Tb1000 O1021 2.440 . S
Tb1000 O1022 2.658 . S
Tb1000 O1023 2.409 . S
Tb1000 O1024 2.378 . S
Tb1000 O1028 2.325 . S
Tb1000 O1031 2.341 1_556 S
Tb1001 C1011 2.809 1_556 S
Tb1001 O1022 2.325 . S
Tb1001 O1025 2.341 . S
Tb1001 O1026 2.484 1_556 S
Tb1001 O1027 2.440 . S
Tb1001 O1028 2.658 . S
Tb1001 O1029 2.409 . S
Tb1001 O1030 2.378 1_556 S
C1002 Tb1000 2.809 . S
C1002 C1003 1.514 . S
C1002 O1020 1.248 . S
C1002 O1021 1.266 . S
C1003 C1002 1.514 . S
C1003 C1004 1.359 . S
C1003 C1008 1.348 . S
C1004 C1003 1.359 . S
C1004 C1005 1.380 . S
C1004 H1032 0.929 . S
C1005 C1004 1.380 . S
C1005 C1006 1.347 . S
C1005 H1033 0.931 . S
C1006 C1005 1.347 . S
C1006 C1007 1.369 . S
C1007 C1006 1.369 . S
C1007 C1008 1.408 . S
C1007 H1034 0.930 . S
C1008 C1003 1.348 . S
C1008 C1007 1.408 . S
C1008 H1035 0.930 . S
C1009 O1022 1.281 . S
C1009 O1023 1.254 . S
C1010 O1024 1.236 . S
C1010 O1025 1.266 . S
C1011 Tb1001 2.809 1_554 S
C1011 C1012 1.514 . S
C1011 O1026 1.248 . S
C1011 O1027 1.266 1_554 S
C1012 C1011 1.514 . S
C1012 C1013 1.359 . S
C1012 C1017 1.348 . S
C1013 C1012 1.359 . S
C1013 C1014 1.380 . S
C1013 H1036 0.929 . S
C1014 C1013 1.380 . S
C1014 C1015 1.347 . S
C1014 H1037 0.931 . S
C1015 C1014 1.347 . S
C1015 C1016 1.369 . S
C1016 C1015 1.369 . S
C1016 C1017 1.408 . S
C1016 H1038 0.930 . S
C1017 C1012 1.348 . S
C1017 C1016 1.408 . S
C1017 H1039 0.930 . S
C1018 O1028 1.281 . S
C1018 O1029 1.254 . S
C1019 O1030 1.236 . S
C1019 O1031 1.266 . S
O1020 Tb1000 2.484 . S
O1020 C1002 1.248 . S
O1021 Tb1000 2.440 . S
O1021 C1002 1.266 . S
O1022 Tb1000 2.658 . S
O1022 Tb1001 2.325 . S
O1022 C1009 1.281 . S
O1023 Tb1000 2.409 . S
O1023 C1009 1.254 . S
O1024 Tb1000 2.378 . S
O1024 C1010 1.236 . S
O1025 Tb1001 2.341 . S
O1025 C1010 1.266 . S
O1026 Tb1001 2.484 1_554 S
O1026 C1011 1.248 . S
O1027 Tb1001 2.440 . S
O1027 C1011 1.266 1_556 S
O1028 Tb1000 2.325 . S
O1028 Tb1001 2.658 . S
O1028 C1018 1.281 . S
O1029 Tb1001 2.409 . S
O1029 C1018 1.254 . S
O1030 Tb1001 2.378 1_554 S
O1030 C1019 1.236 . S
O1031 Tb1000 2.341 1_554 S
O1031 C1019 1.266 . S
H1032 C1004 0.929 . S
H1033 C1005 0.931 . S
H1034 C1007 0.930 . S
H1035 C1008 0.930 . S
H1036 C1013 0.929 . S
H1037 C1014 0.931 . S
H1038 C1016 0.930 . S
H1039 C1017 0.930 . S
Tb1040 C1042 2.809 . S
Tb1040 O1060 2.484 . S
Tb1040 O1061 2.440 . S
Tb1040 O1062 2.658 . S
Tb1040 O1063 2.409 . S
Tb1040 O1064 2.378 . S
Tb1040 O1068 2.325 . S
Tb1040 O1071 2.341 . S
Tb1041 C1051 2.809 . S
Tb1041 O1062 2.325 . S
Tb1041 O1065 2.341 . S
Tb1041 O1066 2.484 . S
Tb1041 O1067 2.440 . S
Tb1041 O1068 2.658 . S
Tb1041 O1069 2.409 . S
Tb1041 O1070 2.378 . S
C1042 Tb1040 2.809 . S
C1042 C1043 1.514 . S
C1042 O1060 1.248 . S
C1042 O1061 1.266 . S
C1043 C1042 1.514 . S
C1043 C1044 1.359 . S
C1043 C1048 1.348 . S
C1044 C1043 1.359 . S
C1044 C1045 1.380 . S
C1044 H1072 0.929 . S
C1045 C1044 1.380 . S
C1045 C1046 1.347 . S
C1045 H1073 0.931 . S
C1046 C1045 1.347 . S
C1046 C1047 1.369 . S
C1047 C1046 1.369 . S
C1047 C1048 1.408 . S
C1047 H1074 0.930 . S
C1048 C1043 1.348 . S
C1048 C1047 1.408 . S
C1048 H1075 0.930 . S
C1049 O1062 1.281 . S
C1049 O1063 1.254 . S
C1050 O1064 1.236 . S
C1050 O1065 1.266 . S
C1051 Tb1041 2.809 . S
C1051 C1052 1.514 . S
C1051 O1066 1.248 . S
C1051 O1067 1.266 . S
C1052 C1051 1.514 . S
C1052 C1053 1.359 . S
C1052 C1057 1.348 . S
C1053 C1052 1.359 . S
C1053 C1054 1.380 . S
C1053 H1076 0.929 . S
C1054 C1053 1.380 . S
C1054 C1055 1.347 . S
C1054 H1077 0.931 . S
C1055 C1054 1.347 . S
C1055 C1056 1.369 . S
C1056 C1055 1.369 . S
C1056 C1057 1.408 . S
C1056 H1078 0.930 . S
C1057 C1052 1.348 . S
C1057 C1056 1.408 . S
C1057 H1079 0.930 . S
C1058 O1068 1.281 . S
C1058 O1069 1.254 . S
C1059 O1070 1.236 . S
C1059 O1071 1.266 . S
O1060 Tb1040 2.484 . S
O1060 C1042 1.248 . S
O1061 Tb1040 2.440 . S
O1061 C1042 1.266 . S
O1062 Tb1040 2.658 . S
O1062 Tb1041 2.325 . S
O1062 C1049 1.281 . S
O1063 Tb1040 2.409 . S
O1063 C1049 1.254 . S
O1064 Tb1040 2.378 . S
O1064 C1050 1.236 . S
O1065 Tb1041 2.341 . S
O1065 C1050 1.266 . S
O1066 Tb1041 2.484 . S
O1066 C1051 1.248 . S
O1067 Tb1041 2.440 . S
O1067 C1051 1.266 . S
O1068 Tb1040 2.325 . S
O1068 Tb1041 2.658 . S
O1068 C1058 1.281 . S
O1069 Tb1041 2.409 . S
O1069 C1058 1.254 . S
O1070 Tb1041 2.378 . S
O1070 C1059 1.236 . S
O1071 Tb1040 2.341 . S
O1071 C1059 1.266 . S
H1072 C1044 0.929 . S
H1073 C1045 0.931 . S
H1074 C1047 0.930 . S
H1075 C1048 0.930 . S
H1076 C1053 0.929 . S
H1077 C1054 0.931 . S
H1078 C1056 0.930 . S
H1079 C1057 0.930 . S
Tb1080 C1082 2.809 . S
Tb1080 O1100 2.484 . S
Tb1080 O1101 2.440 . S
Tb1080 O1102 2.658 . S
Tb1080 O1103 2.409 . S
Tb1080 O1104 2.378 . S
Tb1080 O1108 2.325 . S
Tb1080 O1111 2.341 . S
Tb1081 C1091 2.809 . S
Tb1081 O1102 2.325 . S
Tb1081 O1105 2.341 . S
Tb1081 O1106 2.484 . S
Tb1081 O1107 2.440 . S
Tb1081 O1108 2.658 . S
Tb1081 O1109 2.409 . S
Tb1081 O1110 2.378 . S
C1082 Tb1080 2.809 . S
C1082 C1083 1.514 . S
C1082 O1100 1.248 . S
C1082 O1101 1.266 . S
C1083 C1082 1.514 . S
C1083 C1084 1.359 . S
C1083 C1088 1.348 . S
C1084 C1083 1.359 . S
C1084 C1085 1.380 . S
C1084 H1112 0.929 . S
C1085 C1084 1.380 . S
C1085 C1086 1.347 . S
C1085 H1113 0.931 . S
C1086 C1085 1.347 . S
C1086 C1087 1.369 . S
C1087 C1086 1.369 . S
C1087 C1088 1.408 . S
C1087 H1114 0.930 . S
C1088 C1083 1.348 . S
C1088 C1087 1.408 . S
C1088 H1115 0.930 . S
C1089 O1102 1.281 . S
C1089 O1103 1.254 . S
C1090 O1104 1.236 . S
C1090 O1105 1.266 . S
C1091 Tb1081 2.809 . S
C1091 C1092 1.514 . S
C1091 O1106 1.248 . S
C1091 O1107 1.266 . S
C1092 C1091 1.514 . S
C1092 C1093 1.359 . S
C1092 C1097 1.348 . S
C1093 C1092 1.359 . S
C1093 C1094 1.380 . S
C1093 H1116 0.929 . S
C1094 C1093 1.380 . S
C1094 C1095 1.347 . S
C1094 H1117 0.931 . S
C1095 C1094 1.347 . S
C1095 C1096 1.369 . S
C1096 C1095 1.369 . S
C1096 C1097 1.408 . S
C1096 H1118 0.930 . S
C1097 C1092 1.348 . S
C1097 C1096 1.408 . S
C1097 H1119 0.930 . S
C1098 O1108 1.281 . S
C1098 O1109 1.254 . S
C1099 O1110 1.236 . S
C1099 O1111 1.266 . S
O1100 Tb1080 2.484 . S
O1100 C1082 1.248 . S
O1101 Tb1080 2.440 . S
O1101 C1082 1.266 . S
O1102 Tb1080 2.658 . S
O1102 Tb1081 2.325 . S
O1102 C1089 1.281 . S
O1103 Tb1080 2.409 . S
O1103 C1089 1.254 . S
O1104 Tb1080 2.378 . S
O1104 C1090 1.236 . S
O1105 Tb1081 2.341 . S
O1105 C1090 1.266 . S
O1106 Tb1081 2.484 . S
O1106 C1091 1.248 . S
O1107 Tb1081 2.440 . S
O1107 C1091 1.266 . S
O1108 Tb1080 2.325 . S
O1108 Tb1081 2.658 . S
O1108 C1098 1.281 . S
O1109 Tb1081 2.409 . S
O1109 C1098 1.254 . S
O1110 Tb1081 2.378 . S
O1110 C1099 1.236 . S
O1111 Tb1080 2.341 . S
O1111 C1099 1.266 . S
H1112 C1084 0.929 . S
H1113 C1085 0.931 . S
H1114 C1087 0.930 . S
H1115 C1088 0.930 . S
H1116 C1093 0.929 . S
H1117 C1094 0.931 . S
H1118 C1096 0.930 . S
H1119 C1097 0.930 . S
Tb1120 C1122 2.809 . S
Tb1120 O1140 2.484 . S
Tb1120 O1141 2.440 . S
Tb1120 O1142 2.658 . S
Tb1120 O1143 2.409 . S
Tb1120 O1144 2.378 . S
Tb1120 O1148 2.325 . S
Tb1120 O1151 2.341 . S
Tb1121 C1131 2.809 . S
Tb1121 O1142 2.325 . S
Tb1121 O1145 2.341 . S
Tb1121 O1146 2.484 . S
Tb1121 O1147 2.440 . S
Tb1121 O1148 2.658 . S
Tb1121 O1149 2.409 . S
Tb1121 O1150 2.378 . S
C1122 Tb1120 2.809 . S
C1122 C1123 1.514 . S
C1122 O1140 1.248 . S
C1122 O1141 1.266 . S
C1123 C1122 1.514 . S
C1123 C1124 1.359 . S
C1123 C1128 1.348 . S
C1124 C1123 1.359 . S
C1124 C1125 1.380 . S
C1124 H1152 0.929 . S
C1125 C1124 1.380 . S
C1125 C1126 1.347 . S
C1125 H1153 0.931 . S
C1126 C1125 1.347 . S
C1126 C1127 1.369 . S
C1127 C1126 1.369 . S
C1127 C1128 1.408 . S
C1127 H1154 0.930 . S
C1128 C1123 1.348 . S
C1128 C1127 1.408 . S
C1128 H1155 0.930 . S
C1129 O1142 1.281 . S
C1129 O1143 1.254 . S
C1130 O1144 1.236 . S
C1130 O1145 1.266 . S
C1131 Tb1121 2.809 . S
C1131 C1132 1.514 . S
C1131 O1146 1.248 . S
C1131 O1147 1.266 . S
C1132 C1131 1.514 . S
C1132 C1133 1.359 . S
C1132 C1137 1.348 . S
C1133 C1132 1.359 . S
C1133 C1134 1.380 . S
C1133 H1156 0.929 . S
C1134 C1133 1.380 . S
C1134 C1135 1.347 . S
C1134 H1157 0.931 . S
C1135 C1134 1.347 . S
C1135 C1136 1.369 . S
C1136 C1135 1.369 . S
C1136 C1137 1.408 . S
C1136 H1158 0.930 . S
C1137 C1132 1.348 . S
C1137 C1136 1.408 . S
C1137 H1159 0.930 . S
C1138 O1148 1.281 . S
C1138 O1149 1.254 . S
C1139 O1150 1.236 . S
C1139 O1151 1.266 . S
O1140 Tb1120 2.484 . S
O1140 C1122 1.248 . S
O1141 Tb1120 2.440 . S
O1141 C1122 1.266 . S
O1142 Tb1120 2.658 . S
O1142 Tb1121 2.325 . S
O1142 C1129 1.281 . S
O1143 Tb1120 2.409 . S
O1143 C1129 1.254 . S
O1144 Tb1120 2.378 . S
O1144 C1130 1.236 . S
O1145 Tb1121 2.341 . S
O1145 C1130 1.266 . S
O1146 Tb1121 2.484 . S
O1146 C1131 1.248 . S
O1147 Tb1121 2.440 . S
O1147 C1131 1.266 . S
O1148 Tb1120 2.325 . S
O1148 Tb1121 2.658 . S
O1148 C1138 1.281 . S
O1149 Tb1121 2.409 . S
O1149 C1138 1.254 . S
O1150 Tb1121 2.378 . S
O1150 C1139 1.236 . S
O1151 Tb1120 2.341 . S
O1151 C1139 1.266 . S
H1152 C1124 0.929 . S
H1153 C1125 0.931 . S
H1154 C1127 0.930 . S
H1155 C1128 0.930 . S
H1156 C1133 0.929 . S
H1157 C1134 0.931 . S
H1158 C1136 0.930 . S
H1159 C1137 0.930 . S
Tb1160 C1162 2.809 . S
Tb1160 O1180 2.484 . S
Tb1160 O1181 2.440 . S
Tb1160 O1182 2.658 . S
Tb1160 O1183 2.409 . S
Tb1160 O1184 2.378 . S
Tb1160 O1188 2.325 . S
Tb1160 O1191 2.341 1_554 S
Tb1161 C1171 2.809 1_554 S
Tb1161 O1182 2.325 . S
Tb1161 O1185 2.341 . S
Tb1161 O1186 2.484 1_554 S
Tb1161 O1187 2.440 . S
Tb1161 O1188 2.658 . S
Tb1161 O1189 2.409 . S
Tb1161 O1190 2.378 1_554 S
C1162 Tb1160 2.809 . S
C1162 C1163 1.514 . S
C1162 O1180 1.248 . S
C1162 O1181 1.266 . S
C1163 C1162 1.514 . S
C1163 C1164 1.359 . S
C1163 C1168 1.348 . S
C1164 C1163 1.359 . S
C1164 C1165 1.380 . S
C1164 H1192 0.929 . S
C1165 C1164 1.380 . S
C1165 C1166 1.347 . S
C1165 H1193 0.931 . S
C1166 C1165 1.347 . S
C1166 C1167 1.369 . S
C1167 C1166 1.369 . S
C1167 C1168 1.408 . S
C1167 H1194 0.930 . S
C1168 C1163 1.348 . S
C1168 C1167 1.408 . S
C1168 H1195 0.930 . S
C1169 O1182 1.281 . S
C1169 O1183 1.254 . S
C1170 O1184 1.236 . S
C1170 O1185 1.266 . S
C1171 Tb1161 2.809 1_556 S
C1171 C1172 1.514 . S
C1171 O1186 1.248 . S
C1171 O1187 1.266 1_556 S
C1172 C1171 1.514 . S
C1172 C1173 1.359 . S
C1172 C1177 1.348 . S
C1173 C1172 1.359 . S
C1173 C1174 1.380 . S
C1173 H1196 0.929 . S
C1174 C1173 1.380 . S
C1174 C1175 1.347 . S
C1174 H1197 0.931 . S
C1175 C1174 1.347 . S
C1175 C1176 1.369 . S
C1176 C1175 1.369 . S
C1176 C1177 1.408 . S
C1176 H1198 0.930 . S
C1177 C1172 1.348 . S
C1177 C1176 1.408 . S
C1177 H1199 0.930 . S
C1178 O1188 1.281 . S
C1178 O1189 1.254 . S
C1179 O1190 1.236 . S
C1179 O1191 1.266 . S
O1180 Tb1160 2.484 . S
O1180 C1162 1.248 . S
O1181 Tb1160 2.440 . S
O1181 C1162 1.266 . S
O1182 Tb1160 2.658 . S
O1182 Tb1161 2.325 . S
O1182 C1169 1.281 . S
O1183 Tb1160 2.409 . S
O1183 C1169 1.254 . S
O1184 Tb1160 2.378 . S
O1184 C1170 1.236 . S
O1185 Tb1161 2.341 . S
O1185 C1170 1.266 . S
O1186 Tb1161 2.484 1_556 S
O1186 C1171 1.248 . S
O1187 Tb1161 2.440 . S
O1187 C1171 1.266 1_554 S
O1188 Tb1160 2.325 . S
O1188 Tb1161 2.658 . S
O1188 C1178 1.281 . S
O1189 Tb1161 2.409 . S
O1189 C1178 1.254 . S
O1190 Tb1161 2.378 1_556 S
O1190 C1179 1.236 . S
O1191 Tb1160 2.341 1_556 S
O1191 C1179 1.266 . S
H1192 C1164 0.929 . S
H1193 C1165 0.931 . S
H1194 C1167 0.930 . S
H1195 C1168 0.930 . S
H1196 C1173 0.929 . S
H1197 C1174 0.931 . S
H1198 C1176 0.930 . S
H1199 C1177 0.930 . S
Tb1200 C1202 2.809 . S
Tb1200 O1220 2.484 . S
Tb1200 O1221 2.440 . S
Tb1200 O1222 2.658 . S
Tb1200 O1223 2.409 . S
Tb1200 O1224 2.378 . S
Tb1200 O1228 2.325 . S
Tb1200 O1231 2.341 . S
Tb1201 C1211 2.809 . S
Tb1201 O1222 2.325 . S
Tb1201 O1225 2.341 . S
Tb1201 O1226 2.484 . S
Tb1201 O1227 2.440 . S
Tb1201 O1228 2.658 . S
Tb1201 O1229 2.409 . S
Tb1201 O1230 2.378 . S
C1202 Tb1200 2.809 . S
C1202 C1203 1.514 . S
C1202 O1220 1.248 . S
C1202 O1221 1.266 . S
C1203 C1202 1.514 . S
C1203 C1204 1.359 . S
C1203 C1208 1.348 . S
C1204 C1203 1.359 . S
C1204 C1205 1.380 . S
C1204 H1232 0.929 . S
C1205 C1204 1.380 . S
C1205 C1206 1.347 . S
C1205 H1233 0.931 . S
C1206 C1205 1.347 . S
C1206 C1207 1.369 . S
C1207 C1206 1.369 . S
C1207 C1208 1.408 . S
C1207 H1234 0.930 . S
C1208 C1203 1.348 . S
C1208 C1207 1.408 . S
C1208 H1235 0.930 . S
C1209 O1222 1.281 . S
C1209 O1223 1.254 . S
C1210 O1224 1.236 . S
C1210 O1225 1.266 . S
C1211 Tb1201 2.809 . S
C1211 C1212 1.514 . S
C1211 O1226 1.248 . S
C1211 O1227 1.266 . S
C1212 C1211 1.514 . S
C1212 C1213 1.359 . S
C1212 C1217 1.348 . S
C1213 C1212 1.359 . S
C1213 C1214 1.380 . S
C1213 H1236 0.929 . S
C1214 C1213 1.380 . S
C1214 C1215 1.347 . S
C1214 H1237 0.931 . S
C1215 C1214 1.347 . S
C1215 C1216 1.369 . S
C1216 C1215 1.369 . S
C1216 C1217 1.408 . S
C1216 H1238 0.930 . S
C1217 C1212 1.348 . S
C1217 C1216 1.408 . S
C1217 H1239 0.930 . S
C1218 O1228 1.281 . S
C1218 O1229 1.254 . S
C1219 O1230 1.236 . S
C1219 O1231 1.266 . S
O1220 Tb1200 2.484 . S
O1220 C1202 1.248 . S
O1221 Tb1200 2.440 . S
O1221 C1202 1.266 . S
O1222 Tb1200 2.658 . S
O1222 Tb1201 2.325 . S
O1222 C1209 1.281 . S
O1223 Tb1200 2.409 . S
O1223 C1209 1.254 . S
O1224 Tb1200 2.378 . S
O1224 C1210 1.236 . S
O1225 Tb1201 2.341 . S
O1225 C1210 1.266 . S
O1226 Tb1201 2.484 . S
O1226 C1211 1.248 . S
O1227 Tb1201 2.440 . S
O1227 C1211 1.266 . S
O1228 Tb1200 2.325 . S
O1228 Tb1201 2.658 . S
O1228 C1218 1.281 . S
O1229 Tb1201 2.409 . S
O1229 C1218 1.254 . S
O1230 Tb1201 2.378 . S
O1230 C1219 1.236 . S
O1231 Tb1200 2.341 . S
O1231 C1219 1.266 . S
H1232 C1204 0.929 . S
H1233 C1205 0.931 . S
H1234 C1207 0.930 . S
H1235 C1208 0.930 . S
H1236 C1213 0.929 . S
H1237 C1214 0.931 . S
H1238 C1216 0.930 . S
H1239 C1217 0.930 . S
Tb1240 C1242 2.809 . S
Tb1240 O1260 2.484 . S
Tb1240 O1261 2.440 . S
Tb1240 O1262 2.658 . S
Tb1240 O1263 2.409 . S
Tb1240 O1264 2.378 . S
Tb1240 O1268 2.325 . S
Tb1240 O1271 2.341 . S
Tb1241 C1251 2.809 . S
Tb1241 O1262 2.325 . S
Tb1241 O1265 2.341 . S
Tb1241 O1266 2.484 . S
Tb1241 O1267 2.440 . S
Tb1241 O1268 2.658 . S
Tb1241 O1269 2.409 . S
Tb1241 O1270 2.378 . S
C1242 Tb1240 2.809 . S
C1242 C1243 1.514 . S
C1242 O1260 1.248 . S
C1242 O1261 1.266 . S
C1243 C1242 1.514 . S
C1243 C1244 1.359 . S
C1243 C1248 1.348 . S
C1244 C1243 1.359 . S
C1244 C1245 1.380 . S
C1244 H1272 0.929 . S
C1245 C1244 1.380 . S
C1245 C1246 1.347 . S
C1245 H1273 0.931 . S
C1246 C1245 1.347 . S
C1246 C1247 1.369 . S
C1247 C1246 1.369 . S
C1247 C1248 1.408 . S
C1247 H1274 0.930 . S
C1248 C1243 1.348 . S
C1248 C1247 1.408 . S
C1248 H1275 0.930 . S
C1249 O1262 1.281 . S
C1249 O1263 1.254 . S
C1250 O1264 1.236 . S
C1250 O1265 1.266 . S
C1251 Tb1241 2.809 . S
C1251 C1252 1.514 . S
C1251 O1266 1.248 . S
C1251 O1267 1.266 . S
C1252 C1251 1.514 . S
C1252 C1253 1.359 . S
C1252 C1257 1.348 . S
C1253 C1252 1.359 . S
C1253 C1254 1.380 . S
C1253 H1276 0.929 . S
C1254 C1253 1.380 . S
C1254 C1255 1.347 . S
C1254 H1277 0.931 . S
C1255 C1254 1.347 . S
C1255 C1256 1.369 . S
C1256 C1255 1.369 . S
C1256 C1257 1.408 . S
C1256 H1278 0.930 . S
C1257 C1252 1.348 . S
C1257 C1256 1.408 . S
C1257 H1279 0.930 . S
C1258 O1268 1.281 . S
C1258 O1269 1.254 . S
C1259 O1270 1.236 . S
C1259 O1271 1.266 . S
O1260 Tb1240 2.484 . S
O1260 C1242 1.248 . S
O1261 Tb1240 2.440 . S
O1261 C1242 1.266 . S
O1262 Tb1240 2.658 . S
O1262 Tb1241 2.325 . S
O1262 C1249 1.281 . S
O1263 Tb1240 2.409 . S
O1263 C1249 1.254 . S
O1264 Tb1240 2.378 . S
O1264 C1250 1.236 . S
O1265 Tb1241 2.341 . S
O1265 C1250 1.266 . S
O1266 Tb1241 2.484 . S
O1266 C1251 1.248 . S
O1267 Tb1241 2.440 . S
O1267 C1251 1.266 . S
O1268 Tb1240 2.325 . S
O1268 Tb1241 2.658 . S
O1268 C1258 1.281 . S
O1269 Tb1241 2.409 . S
O1269 C1258 1.254 . S
O1270 Tb1241 2.378 . S
O1270 C1259 1.236 . S
O1271 Tb1240 2.341 . S
O1271 C1259 1.266 . S
H1272 C1244 0.929 . S
H1273 C1245 0.931 . S
H1274 C1247 0.930 . S
H1275 C1248 0.930 . S
H1276 C1253 0.929 . S
H1277 C1254 0.931 . S
H1278 C1256 0.930 . S
H1279 C1257 0.930 . S
H1280 C1288 0.950 . S
H1281 C1293 0.950 . S
H1282 C1290 0.950 . S
H1283 C1292 0.950 . S
H1284 C1294 0.950 . S
H1285 C1296 0.950 . S
H1286 C1298 0.950 . S
H1287 C1299 0.950 . S
C1288 H1280 0.950 . S
C1288 C1289 1.386 . S
C1288 C1290 1.391 . S
C1289 C1288 1.386 . S
C1289 C1293 1.393 . S
C1290 H1282 0.950 . S
C1290 C1288 1.391 . S
C1290 C1291 1.400 . S
C1291 C1290 1.400 . S
C1291 C1292 1.398 . S
C1291 C1297 1.491 . S
C1292 H1283 0.950 . S
C1292 C1291 1.398 . S
C1292 C1293 1.391 . S
C1293 H1281 0.950 . S
C1293 C1289 1.393 . S
C1293 C1292 1.391 . S
C1294 H1284 0.950 . S
C1294 C1295 1.386 . S
C1294 C1296 1.391 . S
C1295 C1294 1.386 . S
C1295 C1299 1.393 . S
C1296 H1285 0.950 . S
C1296 C1294 1.391 . S
C1296 C1297 1.400 . S
C1297 C1291 1.491 . S
C1297 C1296 1.400 . S
C1297 C1298 1.398 . S
C1298 H1286 0.950 . S
C1298 C1297 1.398 . S
C1298 C1299 1.391 . S
C1299 H1287 0.950 . S
C1299 C1295 1.393 . S
C1299 C1298 1.391 . S
H1300 C1308 0.950 . S
H1301 C1313 0.950 . S
H1302 C1310 0.950 . S
H1303 C1312 0.950 . S
H1304 C1314 0.950 . S
H1305 C1316 0.950 . S
H1306 C1318 0.950 . S
H1307 C1319 0.950 . S
C1308 H1300 0.950 . S
C1308 C1309 1.386 . S
C1308 C1310 1.391 . S
C1309 C1308 1.386 . S
C1309 C1313 1.393 . S
C1310 H1302 0.950 . S
C1310 C1308 1.391 . S
C1310 C1311 1.400 . S
C1311 C1310 1.400 . S
C1311 C1312 1.398 . S
C1311 C1317 1.491 . S
C1312 H1303 0.950 . S
C1312 C1311 1.398 . S
C1312 C1313 1.391 . S
C1313 H1301 0.950 . S
C1313 C1309 1.393 . S
C1313 C1312 1.391 . S
C1314 H1304 0.950 . S
C1314 C1315 1.386 1_545 S
C1314 C1316 1.391 . S
C1315 C1314 1.386 1_565 S
C1315 C1319 1.393 . S
C1316 H1305 0.950 . S
C1316 C1314 1.391 . S
C1316 C1317 1.400 . S
C1317 C1311 1.491 . S
C1317 C1316 1.400 . S
C1317 C1318 1.398 . S
C1318 H1306 0.950 . S
C1318 C1317 1.398 . S
C1318 C1319 1.391 1_545 S
C1319 H1307 0.950 . S
C1319 C1315 1.393 . S
C1319 C1318 1.391 1_565 S
H1320 C1328 0.950 . S
H1321 C1333 0.950 . S
H1322 C1330 0.950 . S
H1323 C1332 0.950 . S
H1324 C1334 0.950 . S
H1325 C1336 0.950 . S
H1326 C1338 0.950 . S
H1327 C1339 0.950 . S
C1328 H1320 0.950 . S
C1328 C1329 1.386 . S
C1328 C1330 1.391 . S
C1329 C1328 1.386 . S
C1329 C1333 1.393 . S
C1330 H1322 0.950 . S
C1330 C1328 1.391 . S
C1330 C1331 1.400 . S
C1331 C1330 1.400 . S
C1331 C1332 1.398 . S
C1331 C1337 1.491 . S
C1332 H1323 0.950 . S
C1332 C1331 1.398 . S
C1332 C1333 1.391 . S
C1333 H1321 0.950 . S
C1333 C1329 1.393 . S
C1333 C1332 1.391 . S
C1334 H1324 0.950 . S
C1334 C1335 1.386 . S
C1334 C1336 1.391 . S
C1335 C1334 1.386 . S
C1335 C1339 1.393 . S
C1336 H1325 0.950 . S
C1336 C1334 1.391 . S
C1336 C1337 1.400 . S
C1337 C1331 1.491 . S
C1337 C1336 1.400 . S
C1337 C1338 1.398 . S
C1338 H1326 0.950 . S
C1338 C1337 1.398 . S
C1338 C1339 1.391 . S
C1339 H1327 0.950 . S
C1339 C1335 1.393 . S
C1339 C1338 1.391 . S
H1340 C1348 0.950 . S
H1341 C1353 0.950 . S
H1342 C1350 0.950 . S
H1343 C1352 0.950 . S
H1344 C1354 0.981 . S
H1345 C1356 0.950 . S
H1346 C1358 0.950 . S
H1347 C1359 0.950 . S
C1348 H1340 0.950 . S
C1348 C1349 1.386 . S
C1348 C1350 1.391 . S
C1349 C1348 1.386 . S
C1349 C1353 1.393 . S
C1350 H1342 0.950 . S
C1350 C1348 1.391 . S
C1350 C1351 1.400 . S
C1351 C1350 1.400 . S
C1351 C1352 1.398 . S
C1351 C1357 1.491 . S
C1352 H1343 0.950 . S
C1352 C1351 1.398 . S
C1352 C1353 1.391 . S
C1353 H1341 0.950 . S
C1353 C1349 1.393 . S
C1353 C1352 1.391 . S
C1354 H1344 0.981 . S
C1354 C1355 1.394 . S
C1354 C1356 1.354 1_545 S
C1355 C1354 1.394 . S
C1355 C1359 1.393 1_545 S
C1356 H1345 0.950 . S
C1356 C1354 1.354 1_565 S
C1356 C1357 1.400 . S
C1357 C1351 1.491 . S
C1357 C1356 1.400 . S
C1357 C1358 1.398 . S
C1358 H1346 0.950 . S
C1358 C1357 1.398 . S
C1358 C1359 1.391 . S
C1359 H1347 0.950 . S
C1359 C1355 1.393 1_565 S
C1359 C1358 1.391 . S
H1360 C1368 0.950 . S
H1361 C1373 0.950 . S
H1362 C1370 0.950 . S
H1363 C1372 0.950 . S
H1364 C1374 0.950 . S
H1365 C1376 0.950 . S
H1366 C1378 0.950 . S
H1367 C1379 0.950 . S
C1368 H1360 0.950 . S
C1368 C1369 1.386 . S
C1368 C1370 1.391 . S
C1369 C1368 1.386 . S
C1369 C1373 1.393 . S
C1370 H1362 0.950 . S
C1370 C1368 1.391 . S
C1370 C1371 1.400 . S
C1371 C1370 1.400 . S
C1371 C1372 1.398 . S
C1371 C1377 1.491 . S
C1372 H1363 0.950 . S
C1372 C1371 1.398 . S
C1372 C1373 1.391 . S
C1373 H1361 0.950 . S
C1373 C1369 1.393 . S
C1373 C1372 1.391 . S
C1374 H1364 0.950 . S
C1374 C1375 1.386 . S
C1374 C1376 1.391 . S
C1375 C1374 1.386 . S
C1375 C1379 1.393 . S
C1376 H1365 0.950 . S
C1376 C1374 1.391 . S
C1376 C1377 1.400 . S
C1377 C1371 1.491 . S
C1377 C1376 1.400 . S
C1377 C1378 1.398 . S
C1378 H1366 0.950 . S
C1378 C1377 1.398 . S
C1378 C1379 1.391 . S
C1379 H1367 0.950 . S
C1379 C1375 1.393 . S
C1379 C1378 1.391 . S
H1380 C1388 0.950 . S
H1381 C1393 0.974 . S
H1382 C1390 0.950 . S
H1383 C1392 0.950 . S
H1384 C1394 0.950 . S
H1385 C1396 0.950 . S
H1386 C1398 0.950 . S
H1387 C1399 0.950 . S
C1388 H1380 0.950 . S
C1388 C1389 1.386 1_545 S
C1388 C1390 1.391 . S
C1389 C1388 1.386 1_565 S
C1389 C1393 1.400 . S
C1390 H1382 0.950 . S
C1390 C1388 1.391 . S
C1390 C1391 1.400 . S
C1391 C1390 1.400 . S
C1391 C1392 1.398 . S
C1391 C1397 1.491 . S
C1392 H1383 0.950 . S
C1392 C1391 1.398 . S
C1392 C1393 1.361 1_545 S
C1393 H1381 0.974 . S
C1393 C1389 1.400 . S
C1393 C1392 1.361 1_565 S
C1394 H1384 0.950 . S
C1394 C1395 1.386 . S
C1394 C1396 1.391 . S
C1395 C1394 1.386 . S
C1395 C1399 1.393 . S
C1396 H1385 0.950 . S
C1396 C1394 1.391 . S
C1396 C1397 1.400 . S
C1397 C1391 1.491 . S
C1397 C1396 1.400 . S
C1397 C1398 1.398 . S
C1398 H1386 0.950 . S
C1398 C1397 1.398 . S
C1398 C1399 1.391 . S
C1399 H1387 0.950 . S
C1399 C1395 1.393 . S
C1399 C1398 1.391 . S
H1400 C1408 0.950 . S
H1401 C1413 0.950 . S
H1402 C1410 0.950 . S
H1403 C1412 0.950 . S
H1404 C1414 0.950 . S
H1405 C1416 0.950 . S
H1406 C1418 0.950 . S
H1407 C1419 0.950 . S
C1408 H1400 0.950 . S
C1408 C1409 1.386 . S
C1408 C1410 1.391 . S
C1409 C1408 1.386 . S
C1409 C1413 1.393 . S
C1410 H1402 0.950 . S
C1410 C1408 1.391 . S
C1410 C1411 1.400 . S
C1411 C1410 1.400 . S
C1411 C1412 1.398 . S
C1411 C1417 1.491 . S
C1412 H1403 0.950 . S
C1412 C1411 1.398 . S
C1412 C1413 1.391 . S
C1413 H1401 0.950 . S
C1413 C1409 1.393 . S
C1413 C1412 1.391 . S
C1414 H1404 0.950 . S
C1414 C1415 1.386 . S
C1414 C1416 1.391 . S
C1415 C1414 1.386 . S
C1415 C1419 1.393 . S
C1416 H1405 0.950 . S
C1416 C1414 1.391 . S
C1416 C1417 1.400 . S
C1417 C1411 1.491 . S
C1417 C1416 1.400 . S
C1417 C1418 1.398 . S
C1418 H1406 0.950 . S
C1418 C1417 1.398 . S
C1418 C1419 1.391 . S
C1419 H1407 0.950 . S
C1419 C1415 1.393 . S
C1419 C1418 1.391 . S
H1420 C1428 0.950 . S
H1421 C1433 0.950 . S
H1422 C1430 0.950 . S
H1423 C1432 0.950 . S
H1424 C1434 0.950 . S
H1425 C1436 0.950 . S
H1426 C1438 0.950 . S
H1427 C1439 0.950 . S
C1428 H1420 0.950 . S
C1428 C1429 1.386 . S
C1428 C1430 1.391 . S
C1429 C1428 1.386 . S
C1429 C1433 1.393 . S
C1430 H1422 0.950 . S
C1430 C1428 1.391 . S
C1430 C1431 1.400 . S
C1431 C1430 1.400 . S
C1431 C1432 1.398 . S
C1431 C1437 1.491 . S
C1432 H1423 0.950 . S
C1432 C1431 1.398 . S
C1432 C1433 1.391 . S
C1433 H1421 0.950 . S
C1433 C1429 1.393 . S
C1433 C1432 1.391 . S
C1434 H1424 0.950 . S
C1434 C1435 1.386 1_565 S
C1434 C1436 1.391 . S
C1435 C1434 1.386 1_545 S
C1435 C1439 1.393 . S
C1436 H1425 0.950 . S
C1436 C1434 1.391 . S
C1436 C1437 1.400 . S
C1437 C1431 1.491 . S
C1437 C1436 1.400 . S
C1437 C1438 1.398 . S
C1438 H1426 0.950 . S
C1438 C1437 1.398 . S
C1438 C1439 1.391 1_565 S
C1439 H1427 0.950 . S
C1439 C1435 1.393 . S
C1439 C1438 1.391 1_545 S
H1440 C1448 0.950 . S
H1441 C1453 0.950 . S
H1442 C1450 0.950 . S
H1443 C1452 0.950 . S
H1444 C1454 0.950 . S
H1445 C1456 0.950 . S
H1446 C1458 0.950 . S
H1447 C1459 0.950 . S
C1448 H1440 0.950 . S
C1448 C1449 1.386 . S
C1448 C1450 1.391 . S
C1449 C1448 1.386 . S
C1449 C1453 1.393 . S
C1450 H1442 0.950 . S
C1450 C1448 1.391 . S
C1450 C1451 1.400 . S
C1451 C1450 1.400 . S
C1451 C1452 1.398 . S
C1451 C1457 1.491 . S
C1452 H1443 0.950 . S
C1452 C1451 1.398 . S
C1452 C1453 1.391 . S
C1453 H1441 0.950 . S
C1453 C1449 1.393 . S
C1453 C1452 1.391 . S
C1454 H1444 0.950 . S
C1454 C1455 1.386 . S
C1454 C1456 1.391 . S
C1455 C1454 1.386 . S
C1455 C1459 1.393 . S
C1456 H1445 0.950 . S
C1456 C1454 1.391 . S
C1456 C1457 1.400 . S
C1457 C1451 1.491 . S
C1457 C1456 1.400 . S
C1457 C1458 1.398 . S
C1458 H1446 0.950 . S
C1458 C1457 1.398 . S
C1458 C1459 1.391 . S
C1459 H1447 0.950 . S
C1459 C1455 1.393 . S
C1459 C1458 1.391 . S
H1460 C1468 0.950 . S
H1461 C1473 0.950 . S
H1462 C1470 0.950 . S
H1463 C1472 0.950 . S
H1464 C1474 0.950 . S
H1465 C1476 0.950 . S
H1466 C1478 0.950 . S
H1467 C1479 0.950 . S
C1468 H1460 0.950 . S
C1468 C1469 1.386 . S
C1468 C1470 1.391 1_545 S
C1469 C1468 1.386 . S
C1469 C1473 1.393 1_545 S
C1470 H1462 0.950 . S
C1470 C1468 1.391 1_565 S
C1470 C1471 1.400 . S
C1471 C1470 1.400 . S
C1471 C1472 1.398 . S
C1471 C1477 1.491 . S
C1472 H1463 0.950 . S
C1472 C1471 1.398 . S
C1472 C1473 1.391 . S
C1473 H1461 0.950 . S
C1473 C1469 1.393 1_565 S
C1473 C1472 1.391 . S
C1474 H1464 0.950 . S
C1474 C1475 1.386 . S
C1474 C1476 1.391 . S
C1475 C1474 1.386 . S
C1475 C1479 1.393 . S
C1476 H1465 0.950 . S
C1476 C1474 1.391 . S
C1476 C1477 1.400 . S
C1477 C1471 1.491 . S
C1477 C1476 1.400 . S
C1477 C1478 1.398 . S
C1478 H1466 0.950 . S
C1478 C1477 1.398 . S
C1478 C1479 1.391 . S
C1479 H1467 0.950 . S
C1479 C1475 1.393 . S
C1479 C1478 1.391 . S
H1480 C1488 0.950 . S
H1481 C1493 0.950 . S
H1482 C1490 0.950 . S
H1483 C1492 0.950 . S
H1484 C1494 0.950 . S
H1485 C1496 0.950 . S
H1486 C1498 0.950 . S
H1487 C1499 0.950 . S
C1488 H1480 0.950 . S
C1488 C1489 1.386 . S
C1488 C1490 1.391 . S
C1489 C1488 1.386 . S
C1489 C1493 1.393 . S
C1490 H1482 0.950 . S
C1490 C1488 1.391 . S
C1490 C1491 1.400 . S
C1491 C1490 1.400 . S
C1491 C1492 1.398 . S
C1491 C1497 1.491 . S
C1492 H1483 0.950 . S
C1492 C1491 1.398 . S
C1492 C1493 1.391 . S
C1493 H1481 0.950 . S
C1493 C1489 1.393 . S
C1493 C1492 1.391 . S
C1494 H1484 0.950 . S
C1494 C1495 1.386 . S
C1494 C1496 1.391 . S
C1495 C1494 1.386 . S
C1495 C1499 1.393 . S
C1496 H1485 0.950 . S
C1496 C1494 1.391 . S
C1496 C1497 1.400 . S
C1497 C1491 1.491 . S
C1497 C1496 1.400 . S
C1497 C1498 1.398 . S
C1498 H1486 0.950 . S
C1498 C1497 1.398 . S
C1498 C1499 1.391 . S
C1499 H1487 0.950 . S
C1499 C1495 1.393 . S
C1499 C1498 1.391 . S
H1500 C1508 0.950 . S
H1501 C1513 0.950 . S
H1502 C1510 0.950 . S
H1503 C1512 0.950 . S
H1504 C1514 0.950 . S
H1505 C1516 0.950 . S
H1506 C1518 0.950 . S
H1507 C1519 0.950 . S
C1508 H1500 0.950 . S
C1508 C1509 1.386 1_545 S
C1508 C1510 1.391 . S
C1509 C1508 1.386 1_565 S
C1509 C1513 1.393 . S
C1510 H1502 0.950 . S
C1510 C1508 1.391 . S
C1510 C1511 1.400 . S
C1511 C1510 1.400 . S
C1511 C1512 1.398 . S
C1511 C1517 1.491 . S
C1512 H1503 0.950 . S
C1512 C1511 1.398 . S
C1512 C1513 1.391 1_545 S
C1513 H1501 0.950 . S
C1513 C1509 1.393 . S
C1513 C1512 1.391 1_565 S
C1514 H1504 0.950 . S
C1514 C1515 1.386 . S
C1514 C1516 1.391 . S
C1515 C1514 1.386 . S
C1515 C1519 1.393 . S
C1516 H1505 0.950 . S
C1516 C1514 1.391 . S
C1516 C1517 1.400 . S
C1517 C1511 1.491 . S
C1517 C1516 1.400 . S
C1517 C1518 1.398 . S
C1518 H1506 0.950 . S
C1518 C1517 1.398 . S
C1518 C1519 1.391 . S
C1519 H1507 0.950 . S
C1519 C1515 1.393 . S
C1519 C1518 1.391 . S
H1520 C1528 0.950 . S
H1521 C1533 0.950 . S
H1522 C1530 0.950 . S
H1523 C1532 0.950 . S
H1524 C1534 0.950 . S
H1525 C1536 0.950 . S
H1526 C1538 0.950 . S
H1527 C1539 0.950 . S
C1528 H1520 0.950 . S
C1528 C1529 1.386 . S
C1528 C1530 1.391 . S
C1529 C1528 1.386 . S
C1529 C1533 1.393 . S
C1530 H1522 0.950 . S
C1530 C1528 1.391 . S
C1530 C1531 1.400 . S
C1531 C1530 1.400 . S
C1531 C1532 1.398 . S
C1531 C1537 1.491 . S
C1532 H1523 0.950 . S
C1532 C1531 1.398 . S
C1532 C1533 1.391 . S
C1533 H1521 0.950 . S
C1533 C1529 1.393 . S
C1533 C1532 1.391 . S
C1534 H1524 0.950 . S
C1534 C1535 1.386 . S
C1534 C1536 1.391 . S
C1535 C1534 1.386 . S
C1535 C1539 1.393 . S
C1536 H1525 0.950 . S
C1536 C1534 1.391 . S
C1536 C1537 1.400 . S
C1537 C1531 1.491 . S
C1537 C1536 1.400 . S
C1537 C1538 1.398 . S
C1538 H1526 0.950 . S
C1538 C1537 1.398 . S
C1538 C1539 1.391 . S
C1539 H1527 0.950 . S
C1539 C1535 1.393 . S
C1539 C1538 1.391 . S
H1540 C1548 0.950 . S
H1541 C1553 0.950 . S
H1542 C1550 0.950 . S
H1543 C1552 0.950 . S
H1544 C1554 0.950 . S
H1545 C1556 0.950 . S
H1546 C1558 0.950 . S
H1547 C1559 0.950 . S
C1548 H1540 0.950 . S
C1548 C1549 1.386 . S
C1548 C1550 1.391 1_545 S
C1549 C1548 1.386 . S
C1549 C1553 1.393 1_545 S
C1550 H1542 0.950 . S
C1550 C1548 1.391 1_565 S
C1550 C1551 1.400 . S
C1551 C1550 1.400 . S
C1551 C1552 1.398 . S
C1551 C1557 1.491 . S
C1552 H1543 0.950 . S
C1552 C1551 1.398 . S
C1552 C1553 1.391 . S
C1553 H1541 0.950 . S
C1553 C1549 1.393 1_565 S
C1553 C1552 1.391 . S
C1554 H1544 0.950 . S
C1554 C1555 1.386 . S
C1554 C1556 1.391 . S
C1555 C1554 1.386 . S
C1555 C1559 1.393 . S
C1556 H1545 0.950 . S
C1556 C1554 1.391 . S
C1556 C1557 1.400 . S
C1557 C1551 1.491 . S
C1557 C1556 1.400 . S
C1557 C1558 1.398 . S
C1558 H1546 0.950 . S
C1558 C1557 1.398 . S
C1558 C1559 1.391 . S
C1559 H1547 0.950 . S
C1559 C1555 1.393 . S
C1559 C1558 1.391 . S
H1560 C1568 0.950 . S
H1561 C1573 0.950 . S
H1562 C1570 0.950 . S
H1563 C1572 0.950 . S
H1564 C1574 0.950 . S
H1565 C1576 0.950 . S
H1566 C1578 0.950 . S
H1567 C1579 0.950 . S
C1568 H1560 0.950 . S
C1568 C1569 1.386 . S
C1568 C1570 1.391 . S
C1569 C1568 1.386 . S
C1569 C1573 1.393 . S
C1570 H1562 0.950 . S
C1570 C1568 1.391 . S
C1570 C1571 1.400 . S
C1571 C1570 1.400 . S
C1571 C1572 1.398 . S
C1571 C1577 1.491 . S
C1572 H1563 0.950 . S
C1572 C1571 1.398 . S
C1572 C1573 1.391 . S
C1573 H1561 0.950 . S
C1573 C1569 1.393 . S
C1573 C1572 1.391 . S
C1574 H1564 0.950 . S
C1574 C1575 1.386 . S
C1574 C1576 1.391 . S
C1575 C1574 1.386 . S
C1575 C1579 1.393 . S
C1576 H1565 0.950 . S
C1576 C1574 1.391 . S
C1576 C1577 1.400 . S
C1577 C1571 1.491 . S
C1577 C1576 1.400 . S
C1577 C1578 1.398 . S
C1578 H1566 0.950 . S
C1578 C1577 1.398 . S
C1578 C1579 1.391 . S
C1579 H1567 0.950 . S
C1579 C1575 1.393 . S
C1579 C1578 1.391 . S
H1580 C1588 0.950 . S
H1581 C1593 0.950 . S
H1582 C1590 0.950 . S
H1583 C1592 0.950 . S
H1584 C1594 0.950 . S
H1585 C1596 0.950 . S
H1586 C1598 0.950 . S
H1587 C1599 0.950 . S
C1588 H1580 0.950 . S
C1588 C1589 1.386 . S
C1588 C1590 1.391 . S
C1589 C1588 1.386 . S
C1589 C1593 1.393 . S
C1590 H1582 0.950 . S
C1590 C1588 1.391 . S
C1590 C1591 1.400 . S
C1591 C1590 1.400 . S
C1591 C1592 1.398 . S
C1591 C1597 1.491 . S
C1592 H1583 0.950 . S
C1592 C1591 1.398 . S
C1592 C1593 1.391 . S
C1593 H1581 0.950 . S
C1593 C1589 1.393 . S
C1593 C1592 1.391 . S
C1594 H1584 0.950 . S
C1594 C1595 1.386 1_545 S
C1594 C1596 1.391 . S
C1595 C1594 1.386 1_565 S
C1595 C1599 1.393 . S
C1596 H1585 0.950 . S
C1596 C1594 1.391 . S
C1596 C1597 1.400 . S
C1597 C1591 1.491 . S
C1597 C1596 1.400 . S
C1597 C1598 1.398 . S
C1598 H1586 0.950 . S
C1598 C1597 1.398 . S
C1598 C1599 1.391 1_545 S
C1599 H1587 0.950 . S
C1599 C1595 1.393 . S
C1599 C1598 1.391 1_565 S
H1600 C1608 0.950 . S
H1601 C1613 0.950 . S
H1602 C1610 0.950 . S
H1603 C1612 0.950 . S
H1604 C1614 0.950 . S
H1605 C1616 0.950 . S
H1606 C1618 0.950 . S
H1607 C1619 0.950 . S
C1608 H1600 0.950 . S
C1608 C1609 1.386 . S
C1608 C1610 1.391 . S
C1609 C1608 1.386 . S
C1609 C1613 1.393 . S
C1610 H1602 0.950 . S
C1610 C1608 1.391 . S
C1610 C1611 1.400 . S
C1611 C1610 1.400 . S
C1611 C1612 1.398 . S
C1611 C1617 1.491 . S
C1612 H1603 0.950 . S
C1612 C1611 1.398 . S
C1612 C1613 1.391 . S
C1613 H1601 0.950 . S
C1613 C1609 1.393 . S
C1613 C1612 1.391 . S
C1614 H1604 0.950 . S
C1614 C1615 1.386 . S
C1614 C1616 1.391 . S
C1615 C1614 1.386 . S
C1615 C1619 1.393 . S
C1616 H1605 0.950 . S
C1616 C1614 1.391 . S
C1616 C1617 1.400 . S
C1617 C1611 1.491 . S
C1617 C1616 1.400 . S
C1617 C1618 1.398 . S
C1618 H1606 0.950 . S
C1618 C1617 1.398 . S
C1618 C1619 1.391 . S
C1619 H1607 0.950 . S
C1619 C1615 1.393 . S
C1619 C1618 1.391 . S
H1620 C1628 0.950 . S
H1621 C1633 0.950 . S
H1622 C1630 0.950 . S
H1623 C1632 0.950 . S
H1624 C1634 0.950 . S
H1625 C1636 0.950 . S
H1626 C1638 0.950 . S
H1627 C1639 0.950 . S
C1628 H1620 0.950 . S
C1628 C1629 1.386 . S
C1628 C1630 1.391 . S
C1629 C1628 1.386 . S
C1629 C1633 1.393 . S
C1630 H1622 0.950 . S
C1630 C1628 1.391 . S
C1630 C1631 1.400 . S
C1631 C1630 1.400 . S
C1631 C1632 1.398 . S
C1631 C1637 1.491 . S
C1632 H1623 0.950 . S
C1632 C1631 1.398 . S
C1632 C1633 1.391 . S
C1633 H1621 0.950 . S
C1633 C1629 1.393 . S
C1633 C1632 1.391 . S
C1634 H1624 0.950 . S
C1634 C1635 1.386 . S
C1634 C1636 1.391 . S
C1635 C1634 1.386 . S
C1635 C1639 1.393 . S
C1636 H1625 0.950 . S
C1636 C1634 1.391 . S
C1636 C1637 1.400 . S
C1637 C1631 1.491 . S
C1637 C1636 1.400 . S
C1637 C1638 1.398 . S
C1638 H1626 0.950 . S
C1638 C1637 1.398 . S
C1638 C1639 1.391 . S
C1639 H1627 0.950 . S
C1639 C1635 1.393 . S
C1639 C1638 1.391 . S
H1640 C1648 0.950 . S
H1641 C1653 0.950 . S
H1642 C1650 0.950 . S
H1643 C1652 0.950 . S
H1644 C1654 0.950 . S
H1645 C1656 0.950 . S
H1646 C1658 0.950 . S
H1647 C1659 0.950 . S
C1648 H1640 0.950 . S
C1648 C1649 1.386 . S
C1648 C1650 1.391 . S
C1649 C1648 1.386 . S
C1649 C1653 1.393 . S
C1650 H1642 0.950 . S
C1650 C1648 1.391 . S
C1650 C1651 1.400 . S
C1651 C1650 1.400 . S
C1651 C1652 1.398 . S
C1651 C1657 1.491 . S
C1652 H1643 0.950 . S
C1652 C1651 1.398 . S
C1652 C1653 1.391 . S
C1653 H1641 0.950 . S
C1653 C1649 1.393 . S
C1653 C1652 1.391 . S
C1654 H1644 0.950 . S
C1654 C1655 1.386 . S
C1654 C1656 1.391 . S
C1655 C1654 1.386 . S
C1655 C1659 1.393 . S
C1656 H1645 0.950 . S
C1656 C1654 1.391 . S
C1656 C1657 1.400 . S
C1657 C1651 1.491 . S
C1657 C1656 1.400 . S
C1657 C1658 1.398 . S
C1658 H1646 0.950 . S
C1658 C1657 1.398 . S
C1658 C1659 1.391 . S
C1659 H1647 0.950 . S
C1659 C1655 1.393 . S
C1659 C1658 1.391 . S
H1660 C1668 0.950 . S
H1661 C1673 0.950 . S
H1662 C1670 0.950 . S
H1663 C1672 0.950 . S
H1664 C1674 0.950 . S
H1665 C1676 0.950 . S
H1666 C1678 0.950 . S
H1667 C1679 0.950 . S
C1668 H1660 0.950 . S
C1668 C1669 1.386 . S
C1668 C1670 1.391 . S
C1669 C1668 1.386 . S
C1669 C1673 1.393 . S
C1670 H1662 0.950 . S
C1670 C1668 1.391 . S
C1670 C1671 1.400 . S
C1671 C1670 1.400 . S
C1671 C1672 1.398 . S
C1671 C1677 1.491 . S
C1672 H1663 0.950 . S
C1672 C1671 1.398 . S
C1672 C1673 1.391 . S
C1673 H1661 0.950 . S
C1673 C1669 1.393 . S
C1673 C1672 1.391 . S
C1674 H1664 0.950 . S
C1674 C1675 1.386 . S
C1674 C1676 1.391 . S
C1675 C1674 1.386 . S
C1675 C1679 1.393 . S
C1676 H1665 0.950 . S
C1676 C1674 1.391 . S
C1676 C1677 1.400 . S
C1677 C1671 1.491 . S
C1677 C1676 1.400 . S
C1677 C1678 1.398 . S
C1678 H1666 0.950 . S
C1678 C1677 1.398 . S
C1678 C1679 1.391 . S
C1679 H1667 0.950 . S
C1679 C1675 1.393 . S
C1679 C1678 1.391 . S
H1680 C1688 0.950 . S
H1681 C1693 0.950 . S
H1682 C1690 0.950 . S
H1683 C1692 0.950 . S
H1684 C1694 0.950 . S
H1685 C1696 0.950 . S
H1686 C1698 0.950 . S
H1687 C1699 0.950 . S
C1688 H1680 0.950 . S
C1688 C1689 1.386 . S
C1688 C1690 1.391 . S
C1689 C1688 1.386 . S
C1689 C1693 1.393 . S
C1690 H1682 0.950 . S
C1690 C1688 1.391 . S
C1690 C1691 1.400 . S
C1691 C1690 1.400 . S
C1691 C1692 1.398 . S
C1691 C1697 1.491 . S
C1692 H1683 0.950 . S
C1692 C1691 1.398 . S
C1692 C1693 1.391 . S
C1693 H1681 0.950 . S
C1693 C1689 1.393 . S
C1693 C1692 1.391 . S
C1694 H1684 0.950 . S
C1694 C1695 1.386 . S
C1694 C1696 1.391 . S
C1695 C1694 1.386 . S
C1695 C1699 1.393 . S
C1696 H1685 0.950 . S
C1696 C1694 1.391 . S
C1696 C1697 1.400 . S
C1697 C1691 1.491 . S
C1697 C1696 1.400 . S
C1697 C1698 1.398 . S
C1698 H1686 0.950 . S
C1698 C1697 1.398 . S
C1698 C1699 1.391 . S
C1699 H1687 0.950 . S
C1699 C1695 1.393 . S
C1699 C1698 1.391 . S
H1700 C1708 0.950 . S
H1701 C1713 0.950 . S
H1702 C1710 0.950 . S
H1703 C1712 0.950 . S
H1704 C1714 0.950 . S
H1705 C1716 0.950 . S
H1706 C1718 0.950 . S
H1707 C1719 0.950 . S
C1708 H1700 0.950 . S
C1708 C1709 1.386 . S
C1708 C1710 1.391 . S
C1709 C1708 1.386 . S
C1709 C1713 1.393 . S
C1710 H1702 0.950 . S
C1710 C1708 1.391 . S
C1710 C1711 1.400 . S
C1711 C1710 1.400 . S
C1711 C1712 1.398 . S
C1711 C1717 1.491 . S
C1712 H1703 0.950 . S
C1712 C1711 1.398 . S
C1712 C1713 1.391 . S
C1713 H1701 0.950 . S
C1713 C1709 1.393 . S
C1713 C1712 1.391 . S
C1714 H1704 0.950 . S
C1714 C1715 1.386 . S
C1714 C1716 1.391 . S
C1715 C1714 1.386 . S
C1715 C1719 1.393 . S
C1716 H1705 0.950 . S
C1716 C1714 1.391 . S
C1716 C1717 1.400 . S
C1717 C1711 1.491 . S
C1717 C1716 1.400 . S
C1717 C1718 1.398 . S
C1718 H1706 0.950 . S
C1718 C1717 1.398 . S
C1718 C1719 1.391 . S
C1719 H1707 0.950 . S
C1719 C1715 1.393 . S
C1719 C1718 1.391 . S
H1720 C1728 0.950 . S
H1721 C1733 0.950 . S
H1722 C1730 0.950 . S
H1723 C1732 0.950 . S
H1724 C1734 0.950 . S
H1725 C1736 0.950 . S
H1726 C1738 0.950 . S
H1727 C1739 0.950 . S
C1728 H1720 0.950 . S
C1728 C1729 1.386 . S
C1728 C1730 1.391 . S
C1729 C1728 1.386 . S
C1729 C1733 1.393 . S
C1730 H1722 0.950 . S
C1730 C1728 1.391 . S
C1730 C1731 1.400 . S
C1731 C1730 1.400 . S
C1731 C1732 1.398 . S
C1731 C1737 1.491 . S
C1732 H1723 0.950 . S
C1732 C1731 1.398 . S
C1732 C1733 1.391 . S
C1733 H1721 0.950 . S
C1733 C1729 1.393 . S
C1733 C1732 1.391 . S
C1734 H1724 0.950 . S
C1734 C1735 1.386 . S
C1734 C1736 1.391 . S
C1735 C1734 1.386 . S
C1735 C1739 1.393 . S
C1736 H1725 0.950 . S
C1736 C1734 1.391 . S
C1736 C1737 1.400 . S
C1737 C1731 1.491 . S
C1737 C1736 1.400 . S
C1737 C1738 1.398 . S
C1738 H1726 0.950 . S
C1738 C1737 1.398 . S
C1738 C1739 1.391 . S
C1739 H1727 0.950 . S
C1739 C1735 1.393 . S
C1739 C1738 1.391 . S
H1740 C1748 0.950 . S
H1741 C1753 0.950 . S
H1742 C1750 0.950 . S
H1743 C1752 0.950 . S
H1744 C1754 0.950 . S
H1745 C1756 0.950 . S
H1746 C1758 0.950 . S
H1747 C1759 0.950 . S
C1748 H1740 0.950 . S
C1748 C1749 1.386 . S
C1748 C1750 1.391 . S
C1749 C1748 1.386 . S
C1749 C1753 1.393 . S
C1750 H1742 0.950 . S
C1750 C1748 1.391 . S
C1750 C1751 1.400 . S
C1751 C1750 1.400 . S
C1751 C1752 1.398 . S
C1751 C1757 1.491 . S
C1752 H1743 0.950 . S
C1752 C1751 1.398 . S
C1752 C1753 1.391 . S
C1753 H1741 0.950 . S
C1753 C1749 1.393 . S
C1753 C1752 1.391 . S
C1754 H1744 0.950 . S
C1754 C1755 1.386 . S
C1754 C1756 1.391 . S
C1755 C1754 1.386 . S
C1755 C1759 1.393 . S
C1756 H1745 0.950 . S
C1756 C1754 1.391 . S
C1756 C1757 1.400 . S
C1757 C1751 1.491 . S
C1757 C1756 1.400 . S
C1757 C1758 1.398 . S
C1758 H1746 0.950 . S
C1758 C1757 1.398 . S
C1758 C1759 1.391 . S
C1759 H1747 0.950 . S
C1759 C1755 1.393 . S
C1759 C1758 1.391 . S
H1760 C1768 0.950 . S
H1761 C1773 0.950 . S
H1762 C1770 0.950 . S
H1763 C1772 0.950 . S
H1764 C1774 0.950 . S
H1765 C1776 0.950 . S
H1766 C1778 0.950 . S
H1767 C1779 0.950 . S
C1768 H1760 0.950 . S
C1768 C1769 1.386 . S
C1768 C1770 1.391 . S
C1769 C1768 1.386 . S
C1769 C1773 1.393 . S
C1770 H1762 0.950 . S
C1770 C1768 1.391 . S
C1770 C1771 1.400 . S
C1771 C1770 1.400 . S
C1771 C1772 1.398 . S
C1771 C1777 1.491 . S
C1772 H1763 0.950 . S
C1772 C1771 1.398 . S
C1772 C1773 1.391 . S
C1773 H1761 0.950 . S
C1773 C1769 1.393 . S
C1773 C1772 1.391 . S
C1774 H1764 0.950 . S
C1774 C1775 1.386 . S
C1774 C1776 1.391 . S
C1775 C1774 1.386 . S
C1775 C1779 1.393 . S
C1776 H1765 0.950 . S
C1776 C1774 1.391 . S
C1776 C1777 1.400 . S
C1777 C1771 1.491 . S
C1777 C1776 1.400 . S
C1777 C1778 1.398 . S
C1778 H1766 0.950 . S
C1778 C1777 1.398 . S
C1778 C1779 1.391 . S
C1779 H1767 0.950 . S
C1779 C1775 1.393 . S
C1779 C1778 1.391 . S
H1780 C1788 0.950 . S
H1781 C1793 0.950 . S
H1782 C1790 0.950 . S
H1783 C1792 0.950 . S
H1784 C1794 0.950 . S
H1785 C1796 0.950 . S
H1786 C1798 0.950 . S
H1787 C1799 0.950 . S
C1788 H1780 0.950 . S
C1788 C1789 1.386 . S
C1788 C1790 1.391 . S
C1789 C1788 1.386 . S
C1789 C1793 1.393 . S
C1790 H1782 0.950 . S
C1790 C1788 1.391 . S
C1790 C1791 1.400 . S
C1791 C1790 1.400 . S
C1791 C1792 1.398 . S
C1791 C1797 1.491 . S
C1792 H1783 0.950 . S
C1792 C1791 1.398 . S
C1792 C1793 1.391 . S
C1793 H1781 0.950 . S
C1793 C1789 1.393 . S
C1793 C1792 1.391 . S
C1794 H1784 0.950 . S
C1794 C1795 1.386 . S
C1794 C1796 1.391 . S
C1795 C1794 1.386 . S
C1795 C1799 1.393 . S
C1796 H1785 0.950 . S
C1796 C1794 1.391 . S
C1796 C1797 1.400 . S
C1797 C1791 1.491 . S
C1797 C1796 1.400 . S
C1797 C1798 1.398 . S
C1798 H1786 0.950 . S
C1798 C1797 1.398 . S
C1798 C1799 1.391 . S
C1799 H1787 0.950 . S
C1799 C1795 1.393 . S
C1799 C1798 1.391 . S
H1800 C1808 0.950 . S
H1801 C1813 0.950 . S
H1802 C1810 0.950 . S
H1803 C1812 0.950 . S
H1804 C1814 0.950 . S
H1805 C1816 0.950 . S
H1806 C1818 0.950 . S
H1807 C1819 0.950 . S
C1808 H1800 0.950 . S
C1808 C1809 1.386 . S
C1808 C1810 1.391 . S
C1809 C1808 1.386 . S
C1809 C1813 1.393 . S
C1810 H1802 0.950 . S
C1810 C1808 1.391 . S
C1810 C1811 1.400 . S
C1811 C1810 1.400 . S
C1811 C1812 1.398 . S
C1811 C1817 1.491 . S
C1812 H1803 0.950 . S
C1812 C1811 1.398 . S
C1812 C1813 1.391 . S
C1813 H1801 0.950 . S
C1813 C1809 1.393 . S
C1813 C1812 1.391 . S
C1814 H1804 0.950 . S
C1814 C1815 1.386 . S
C1814 C1816 1.391 . S
C1815 C1814 1.386 . S
C1815 C1819 1.393 . S
C1816 H1805 0.950 . S
C1816 C1814 1.391 . S
C1816 C1817 1.400 . S
C1817 C1811 1.491 . S
C1817 C1816 1.400 . S
C1817 C1818 1.398 . S
C1818 H1806 0.950 . S
C1818 C1817 1.398 . S
C1818 C1819 1.391 . S
C1819 H1807 0.950 . S
C1819 C1815 1.393 . S
C1819 C1818 1.391 . S
H1820 C1828 0.950 . S
H1821 C1833 0.950 . S
H1822 C1830 0.950 . S
H1823 C1832 0.950 . S
H1824 C1834 0.950 . S
H1825 C1836 0.950 . S
H1826 C1838 0.950 . S
H1827 C1839 0.950 . S
C1828 H1820 0.950 . S
C1828 C1829 1.386 . S
C1828 C1830 1.391 . S
C1829 C1828 1.386 . S
C1829 C1833 1.393 . S
C1830 H1822 0.950 . S
C1830 C1828 1.391 . S
C1830 C1831 1.400 . S
C1831 C1830 1.400 . S
C1831 C1832 1.398 . S
C1831 C1837 1.491 . S
C1832 H1823 0.950 . S
C1832 C1831 1.398 . S
C1832 C1833 1.391 . S
C1833 H1821 0.950 . S
C1833 C1829 1.393 . S
C1833 C1832 1.391 . S
C1834 H1824 0.950 . S
C1834 C1835 1.386 . S
C1834 C1836 1.391 . S
C1835 C1834 1.386 . S
C1835 C1839 1.393 . S
C1836 H1825 0.950 . S
C1836 C1834 1.391 . S
C1836 C1837 1.400 . S
C1837 C1831 1.491 . S
C1837 C1836 1.400 . S
C1837 C1838 1.398 . S
C1838 H1826 0.950 . S
C1838 C1837 1.398 . S
C1838 C1839 1.391 . S
C1839 H1827 0.950 . S
C1839 C1835 1.393 . S
C1839 C1838 1.391 . S
H1840 C1848 0.950 . S
H1841 C1853 0.950 . S
H1842 C1850 0.950 . S
H1843 C1852 0.950 . S
H1844 C1854 0.950 . S
H1845 C1856 0.950 . S
H1846 C1858 0.950 . S
H1847 C1859 0.950 . S
C1848 H1840 0.950 . S
C1848 C1849 1.386 . S
C1848 C1850 1.391 . S
C1849 C1848 1.386 . S
C1849 C1853 1.393 . S
C1850 H1842 0.950 . S
C1850 C1848 1.391 . S
C1850 C1851 1.400 . S
C1851 C1850 1.400 . S
C1851 C1852 1.398 . S
C1851 C1857 1.491 . S
C1852 H1843 0.950 . S
C1852 C1851 1.398 . S
C1852 C1853 1.391 . S
C1853 H1841 0.950 . S
C1853 C1849 1.393 . S
C1853 C1852 1.391 . S
C1854 H1844 0.950 . S
C1854 C1855 1.386 . S
C1854 C1856 1.391 . S
C1855 C1854 1.386 . S
C1855 C1859 1.393 . S
C1856 H1845 0.950 . S
C1856 C1854 1.391 . S
C1856 C1857 1.400 . S
C1857 C1851 1.491 . S
C1857 C1856 1.400 . S
C1857 C1858 1.398 . S
C1858 H1846 0.950 . S
C1858 C1857 1.398 . S
C1858 C1859 1.391 . S
C1859 H1847 0.950 . S
C1859 C1855 1.393 . S
C1859 C1858 1.391 . S
H1860 C1868 0.950 . S
H1861 C1873 0.950 . S
H1862 C1870 0.950 . S
H1863 C1872 0.950 . S
H1864 C1874 0.950 . S
H1865 C1876 0.950 . S
H1866 C1878 0.950 . S
H1867 C1879 0.950 . S
C1868 H1860 0.950 . S
C1868 C1869 1.386 . S
C1868 C1870 1.391 . S
C1869 C1868 1.386 . S
C1869 C1873 1.393 . S
C1870 H1862 0.950 . S
C1870 C1868 1.391 . S
C1870 C1871 1.400 . S
C1871 C1870 1.400 . S
C1871 C1872 1.398 . S
C1871 C1877 1.491 . S
C1872 H1863 0.950 . S
C1872 C1871 1.398 . S
C1872 C1873 1.391 . S
C1873 H1861 0.950 . S
C1873 C1869 1.393 . S
C1873 C1872 1.391 . S
C1874 H1864 0.950 . S
C1874 C1875 1.386 . S
C1874 C1876 1.391 . S
C1875 C1874 1.386 . S
C1875 C1879 1.393 . S
C1876 H1865 0.950 . S
C1876 C1874 1.391 . S
C1876 C1877 1.400 . S
C1877 C1871 1.491 . S
C1877 C1876 1.400 . S
C1877 C1878 1.398 . S
C1878 H1866 0.950 . S
C1878 C1877 1.398 . S
C1878 C1879 1.391 . S
C1879 H1867 0.950 . S
C1879 C1875 1.393 . S
C1879 C1878 1.391 . S
H1880 C1888 0.950 . S
H1881 C1893 0.950 . S
H1882 C1890 0.950 . S
H1883 C1892 0.950 . S
H1884 C1894 0.950 . S
H1885 C1896 0.950 . S
H1886 C1898 0.950 . S
H1887 C1899 0.950 . S
C1888 H1880 0.950 . S
C1888 C1889 1.386 . S
C1888 C1890 1.391 . S
C1889 C1888 1.386 . S
C1889 C1893 1.393 . S
C1890 H1882 0.950 . S
C1890 C1888 1.391 . S
C1890 C1891 1.400 . S
C1891 C1890 1.400 . S
C1891 C1892 1.398 . S
C1891 C1897 1.491 . S
C1892 H1883 0.950 . S
C1892 C1891 1.398 . S
C1892 C1893 1.391 . S
C1893 H1881 0.950 . S
C1893 C1889 1.393 . S
C1893 C1892 1.391 . S
C1894 H1884 0.950 . S
C1894 C1895 1.386 . S
C1894 C1896 1.391 . S
C1895 C1894 1.386 . S
C1895 C1899 1.393 . S
C1896 H1885 0.950 . S
C1896 C1894 1.391 . S
C1896 C1897 1.400 . S
C1897 C1891 1.491 . S
C1897 C1896 1.400 . S
C1897 C1898 1.398 . S
C1898 H1886 0.950 . S
C1898 C1897 1.398 . S
C1898 C1899 1.391 . S
C1899 H1887 0.950 . S
C1899 C1895 1.393 . S
C1899 C1898 1.391 . S
H1900 C1908 0.950 . S
H1901 C1913 0.950 . S
H1902 C1910 0.950 . S
H1903 C1912 0.950 . S
H1904 C1914 0.950 . S
H1905 C1916 0.950 . S
H1906 C1918 0.950 . S
H1907 C1919 0.950 . S
C1908 H1900 0.950 . S
C1908 C1909 1.386 . S
C1908 C1910 1.391 . S
C1909 C1908 1.386 . S
C1909 C1913 1.393 . S
C1910 H1902 0.950 . S
C1910 C1908 1.391 . S
C1910 C1911 1.400 . S
C1911 C1910 1.400 . S
C1911 C1912 1.398 . S
C1911 C1917 1.491 . S
C1912 H1903 0.950 . S
C1912 C1911 1.398 . S
C1912 C1913 1.391 . S
C1913 H1901 0.950 . S
C1913 C1909 1.393 . S
C1913 C1912 1.391 . S
C1914 H1904 0.950 . S
C1914 C1915 1.386 . S
C1914 C1916 1.391 . S
C1915 C1914 1.386 . S
C1915 C1919 1.393 . S
C1916 H1905 0.950 . S
C1916 C1914 1.391 . S
C1916 C1917 1.400 . S
C1917 C1911 1.491 . S
C1917 C1916 1.400 . S
C1917 C1918 1.398 . S
C1918 H1906 0.950 . S
C1918 C1917 1.398 . S
C1918 C1919 1.391 . S
C1919 H1907 0.950 . S
C1919 C1915 1.393 . S
C1919 C1918 1.391 . S
H1920 C1928 0.950 . S
H1921 C1933 0.950 . S
H1922 C1930 0.950 . S
H1923 C1932 0.950 . S
H1924 C1934 0.950 . S
H1925 C1936 0.950 . S
H1926 C1938 0.950 . S
H1927 C1939 0.950 . S
C1928 H1920 0.950 . S
C1928 C1929 1.386 . S
C1928 C1930 1.391 . S
C1929 C1928 1.386 . S
C1929 C1933 1.393 . S
C1930 H1922 0.950 . S
C1930 C1928 1.391 . S
C1930 C1931 1.400 . S
C1931 C1930 1.400 . S
C1931 C1932 1.398 . S
C1931 C1937 1.491 . S
C1932 H1923 0.950 . S
C1932 C1931 1.398 . S
C1932 C1933 1.391 . S
C1933 H1921 0.950 . S
C1933 C1929 1.393 . S
C1933 C1932 1.391 . S
C1934 H1924 0.950 . S
C1934 C1935 1.386 . S
C1934 C1936 1.391 . S
C1935 C1934 1.386 . S
C1935 C1939 1.393 . S
C1936 H1925 0.950 . S
C1936 C1934 1.391 . S
C1936 C1937 1.400 . S
C1937 C1931 1.491 . S
C1937 C1936 1.400 . S
C1937 C1938 1.398 . S
C1938 H1926 0.950 . S
C1938 C1937 1.398 . S
C1938 C1939 1.391 . S
C1939 H1927 0.950 . S
C1939 C1935 1.393 . S
C1939 C1938 1.391 . S
H1940 C1948 0.950 . S
H1941 C1953 0.950 . S
H1942 C1950 0.950 . S
H1943 C1952 0.950 . S
H1944 C1954 0.950 . S
H1945 C1956 0.950 . S
H1946 C1958 0.950 . S
H1947 C1959 0.954 . S
C1948 H1940 0.950 . S
C1948 C1949 1.386 . S
C1948 C1950 1.391 . S
C1949 C1948 1.386 . S
C1949 C1953 1.393 . S
C1950 H1942 0.950 . S
C1950 C1948 1.391 . S
C1950 C1951 1.400 . S
C1951 C1950 1.400 . S
C1951 C1952 1.398 . S
C1951 C1957 1.491 . S
C1952 H1943 0.950 . S
C1952 C1951 1.398 . S
C1952 C1953 1.391 . S
C1953 H1941 0.950 . S
C1953 C1949 1.393 . S
C1953 C1952 1.391 . S
C1954 H1944 0.950 . S
C1954 C1955 1.386 1_455 S
C1954 C1956 1.391 . S
C1955 C1954 1.386 1_655 S
C1955 C1959 1.393 . S
C1956 H1945 0.950 . S
C1956 C1954 1.391 . S
C1956 C1957 1.400 . S
C1957 C1951 1.491 . S
C1957 C1956 1.400 . S
C1957 C1958 1.398 . S
C1958 H1946 0.950 . S
C1958 C1957 1.398 . S
C1958 C1959 1.386 1_455 S
C1959 H1947 0.954 . S
C1959 C1955 1.393 . S
C1959 C1958 1.386 1_655 S
H1960 C1968 0.950 . S
H1961 C1973 0.950 . S
H1962 C1970 0.950 . S
H1963 C1972 0.950 . S
H1964 C1974 0.950 . S
H1965 C1976 0.950 . S
H1966 C1978 0.950 . S
H1967 C1979 0.950 . S
C1968 H1960 0.950 . S
C1968 C1969 1.386 . S
C1968 C1970 1.391 . S
C1969 C1968 1.386 . S
C1969 C1973 1.393 . S
C1970 H1962 0.950 . S
C1970 C1968 1.391 . S
C1970 C1971 1.400 . S
C1971 C1970 1.400 . S
C1971 C1972 1.398 . S
C1971 C1977 1.491 . S
C1972 H1963 0.950 . S
C1972 C1971 1.398 . S
C1972 C1973 1.391 . S
C1973 H1961 0.950 . S
C1973 C1969 1.393 . S
C1973 C1972 1.391 . S
C1974 H1964 0.950 . S
C1974 C1975 1.386 . S
C1974 C1976 1.391 . S
C1975 C1974 1.386 . S
C1975 C1979 1.393 . S
C1976 H1965 0.950 . S
C1976 C1974 1.391 . S
C1976 C1977 1.400 . S
C1977 C1971 1.491 . S
C1977 C1976 1.400 . S
C1977 C1978 1.398 . S
C1978 H1966 0.950 . S
C1978 C1977 1.398 . S
C1978 C1979 1.391 . S
C1979 H1967 0.950 . S
C1979 C1975 1.393 . S
C1979 C1978 1.391 . S
H1980 C1988 0.950 . S
H1981 C1993 0.950 . S
H1982 C1990 0.950 . S
H1983 C1992 0.950 . S
H1984 C1994 0.950 . S
H1985 C1996 0.950 . S
H1986 C1998 0.950 . S
H1987 C1999 0.950 . S
C1988 H1980 0.950 . S
C1988 C1989 1.386 . S
C1988 C1990 1.391 . S
C1989 C1988 1.386 . S
C1989 C1993 1.393 . S
C1990 H1982 0.950 . S
C1990 C1988 1.391 . S
C1990 C1991 1.400 . S
C1991 C1990 1.400 . S
C1991 C1992 1.398 . S
C1991 C1997 1.491 . S
C1992 H1983 0.950 . S
C1992 C1991 1.398 . S
C1992 C1993 1.391 . S
C1993 H1981 0.950 . S
C1993 C1989 1.393 . S
C1993 C1992 1.391 . S
C1994 H1984 0.950 . S
C1994 C1995 1.386 . S
C1994 C1996 1.391 . S
C1995 C1994 1.386 . S
C1995 C1999 1.393 . S
C1996 H1985 0.950 . S
C1996 C1994 1.391 . S
C1996 C1997 1.400 . S
C1997 C1991 1.491 . S
C1997 C1996 1.400 . S
C1997 C1998 1.398 . S
C1998 H1986 0.950 . S
C1998 C1997 1.398 . S
C1998 C1999 1.391 . S
C1999 H1987 0.950 . S
C1999 C1995 1.393 . S
C1999 C1998 1.391 . S
H2000 C2008 0.950 . S
H2001 C2013 0.950 . S
H2002 C2010 0.950 . S
H2003 C2012 0.950 . S
H2004 C2014 0.950 . S
H2005 C2016 0.950 . S
H2006 C2018 0.950 . S
H2007 C2019 0.950 . S
C2008 H2000 0.950 . S
C2008 C2009 1.386 . S
C2008 C2010 1.391 . S
C2009 C2008 1.386 . S
C2009 C2013 1.393 . S
C2010 H2002 0.950 . S
C2010 C2008 1.391 . S
C2010 C2011 1.400 . S
C2011 C2010 1.400 . S
C2011 C2012 1.398 . S
C2011 C2017 1.491 . S
C2012 H2003 0.950 . S
C2012 C2011 1.398 . S
C2012 C2013 1.391 . S
C2013 H2001 0.950 . S
C2013 C2009 1.393 . S
C2013 C2012 1.391 . S
C2014 H2004 0.950 . S
C2014 C2015 1.386 . S
C2014 C2016 1.391 . S
C2015 C2014 1.386 . S
C2015 C2019 1.393 . S
C2016 H2005 0.950 . S
C2016 C2014 1.391 . S
C2016 C2017 1.400 . S
C2017 C2011 1.491 . S
C2017 C2016 1.400 . S
C2017 C2018 1.398 . S
C2018 H2006 0.950 . S
C2018 C2017 1.398 . S
C2018 C2019 1.391 . S
C2019 H2007 0.950 . S
C2019 C2015 1.393 . S
C2019 C2018 1.391 . S
H2020 C2028 0.950 . S
H2021 C2033 0.950 . S
H2022 C2030 0.950 . S
H2023 C2032 0.950 . S
H2024 C2034 0.950 . S
H2025 C2036 0.950 . S
H2026 C2038 0.950 . S
H2027 C2039 0.950 . S
C2028 H2020 0.950 . S
C2028 C2029 1.386 . S
C2028 C2030 1.391 . S
C2029 C2028 1.386 . S
C2029 C2033 1.393 . S
C2030 H2022 0.950 . S
C2030 C2028 1.391 . S
C2030 C2031 1.400 . S
C2031 C2030 1.400 . S
C2031 C2032 1.398 . S
C2031 C2037 1.491 . S
C2032 H2023 0.950 . S
C2032 C2031 1.398 . S
C2032 C2033 1.391 . S
C2033 H2021 0.950 . S
C2033 C2029 1.393 . S
C2033 C2032 1.391 . S
C2034 H2024 0.950 . S
C2034 C2035 1.386 . S
C2034 C2036 1.391 . S
C2035 C2034 1.386 . S
C2035 C2039 1.393 . S
C2036 H2025 0.950 . S
C2036 C2034 1.391 . S
C2036 C2037 1.400 . S
C2037 C2031 1.491 . S
C2037 C2036 1.400 . S
C2037 C2038 1.398 . S
C2038 H2026 0.950 . S
C2038 C2037 1.398 . S
C2038 C2039 1.391 . S
C2039 H2027 0.950 . S
C2039 C2035 1.393 . S
C2039 C2038 1.391 . S
H2040 C2048 0.950 . S
H2041 C2053 0.950 . S
H2042 C2050 0.950 . S
H2043 C2052 0.950 . S
H2044 C2054 0.950 . S
H2045 C2056 0.950 . S
H2046 C2058 0.950 . S
H2047 C2059 0.950 . S
C2048 H2040 0.950 . S
C2048 C2049 1.386 . S
C2048 C2050 1.391 . S
C2049 C2048 1.386 . S
C2049 C2053 1.393 . S
C2050 H2042 0.950 . S
C2050 C2048 1.391 . S
C2050 C2051 1.400 . S
C2051 C2050 1.400 . S
C2051 C2052 1.398 . S
C2051 C2057 1.491 . S
C2052 H2043 0.950 . S
C2052 C2051 1.398 . S
C2052 C2053 1.391 . S
C2053 H2041 0.950 . S
C2053 C2049 1.393 . S
C2053 C2052 1.391 . S
C2054 H2044 0.950 . S
C2054 C2055 1.386 . S
C2054 C2056 1.391 . S
C2055 C2054 1.386 . S
C2055 C2059 1.393 . S
C2056 H2045 0.950 . S
C2056 C2054 1.391 . S
C2056 C2057 1.400 . S
C2057 C2051 1.491 . S
C2057 C2056 1.400 . S
C2057 C2058 1.398 . S
C2058 H2046 0.950 . S
C2058 C2057 1.398 . S
C2058 C2059 1.391 . S
C2059 H2047 0.950 . S
C2059 C2055 1.393 . S
C2059 C2058 1.391 . S
H2060 C2068 0.950 . S
H2061 C2073 0.950 . S
H2062 C2070 0.950 . S
H2063 C2072 0.950 . S
H2064 C2074 0.950 . S
H2065 C2076 0.950 . S
H2066 C2078 0.950 . S
H2067 C2079 0.950 1_655 S
C2068 H2060 0.950 . S
C2068 C2069 1.386 . S
C2068 C2070 1.391 . S
C2069 C2068 1.386 . S
C2069 C2073 1.393 . S
C2070 H2062 0.950 . S
C2070 C2068 1.391 . S
C2070 C2071 1.400 . S
C2071 C2070 1.400 . S
C2071 C2072 1.398 . S
C2071 C2077 1.491 . S
C2072 H2063 0.950 . S
C2072 C2071 1.398 . S
C2072 C2073 1.391 . S
C2073 H2061 0.950 . S
C2073 C2069 1.393 . S
C2073 C2072 1.391 . S
C2074 H2064 0.950 . S
C2074 C2075 1.386 1_455 S
C2074 C2076 1.391 . S
C2075 C2074 1.386 1_655 S
C2075 C2079 1.393 1_655 S
C2076 H2065 0.950 . S
C2076 C2074 1.391 . S
C2076 C2077 1.400 . S
C2077 C2071 1.491 . S
C2077 C2076 1.400 . S
C2077 C2078 1.398 . S
C2078 H2066 0.950 . S
C2078 C2077 1.398 . S
C2078 C2079 1.391 . S
C2079 H2067 0.950 1_455 S
C2079 C2075 1.393 1_455 S
C2079 C2078 1.391 . S
H2080 C2088 0.950 . S
H2081 C2093 0.950 . S
H2082 C2090 0.950 . S
H2083 C2092 0.950 . S
H2084 C2094 0.950 . S
H2085 C2096 0.950 . S
H2086 C2098 0.950 . S
H2087 C2099 0.950 . S
C2088 H2080 0.950 . S
C2088 C2089 1.386 . S
C2088 C2090 1.391 . S
C2089 C2088 1.386 . S
C2089 C2093 1.393 . S
C2090 H2082 0.950 . S
C2090 C2088 1.391 . S
C2090 C2091 1.400 . S
C2091 C2090 1.400 . S
C2091 C2092 1.398 . S
C2091 C2097 1.491 . S
C2092 H2083 0.950 . S
C2092 C2091 1.398 . S
C2092 C2093 1.391 . S
C2093 H2081 0.950 . S
C2093 C2089 1.393 . S
C2093 C2092 1.391 . S
C2094 H2084 0.950 . S
C2094 C2095 1.386 . S
C2094 C2096 1.391 . S
C2095 C2094 1.386 . S
C2095 C2099 1.393 . S
C2096 H2085 0.950 . S
C2096 C2094 1.391 . S
C2096 C2097 1.400 . S
C2097 C2091 1.491 . S
C2097 C2096 1.400 . S
C2097 C2098 1.398 . S
C2098 H2086 0.950 . S
C2098 C2097 1.398 . S
C2098 C2099 1.391 . S
C2099 H2087 0.950 . S
C2099 C2095 1.393 . S
C2099 C2098 1.391 . S
H2100 C2108 0.950 . S
H2101 C2113 0.950 . S
H2102 C2110 0.950 . S
H2103 C2112 0.950 . S
H2104 C2114 0.950 . S
H2105 C2116 0.950 . S
H2106 C2118 0.950 . S
H2107 C2119 0.950 . S
C2108 H2100 0.950 . S
C2108 C2109 1.386 . S
C2108 C2110 1.391 1_455 S
C2109 C2108 1.386 . S
C2109 C2113 1.393 1_455 S
C2110 H2102 0.950 . S
C2110 C2108 1.391 1_655 S
C2110 C2111 1.400 . S
C2111 C2110 1.400 . S
C2111 C2112 1.398 . S
C2111 C2117 1.491 . S
C2112 H2103 0.950 . S
C2112 C2111 1.398 . S
C2112 C2113 1.391 . S
C2113 H2101 0.950 . S
C2113 C2109 1.393 1_655 S
C2113 C2112 1.391 . S
C2114 H2104 0.950 . S
C2114 C2115 1.386 . S
C2114 C2116 1.391 . S
C2115 C2114 1.386 . S
C2115 C2119 1.393 . S
C2116 H2105 0.950 . S
C2116 C2114 1.391 . S
C2116 C2117 1.400 . S
C2117 C2111 1.491 . S
C2117 C2116 1.400 . S
C2117 C2118 1.398 . S
C2118 H2106 0.950 . S
C2118 C2117 1.398 . S
C2118 C2119 1.391 . S
C2119 H2107 0.950 . S
C2119 C2115 1.393 . S
C2119 C2118 1.391 . S
H2120 C2128 0.950 . S
H2121 C2133 0.950 . S
H2122 C2130 0.950 . S
H2123 C2132 0.950 . S
H2124 C2134 0.950 . S
H2125 C2136 0.950 . S
H2126 C2138 0.950 . S
H2127 C2139 0.950 . S
C2128 H2120 0.950 . S
C2128 C2129 1.386 . S
C2128 C2130 1.391 . S
C2129 C2128 1.386 . S
C2129 C2133 1.393 . S
C2130 H2122 0.950 . S
C2130 C2128 1.391 . S
C2130 C2131 1.400 . S
C2131 C2130 1.400 . S
C2131 C2132 1.398 . S
C2131 C2137 1.491 . S
C2132 H2123 0.950 . S
C2132 C2131 1.398 . S
C2132 C2133 1.391 . S
C2133 H2121 0.950 . S
C2133 C2129 1.393 . S
C2133 C2132 1.391 . S
C2134 H2124 0.950 . S
C2134 C2135 1.386 . S
C2134 C2136 1.391 . S
C2135 C2134 1.386 . S
C2135 C2139 1.393 . S
C2136 H2125 0.950 . S
C2136 C2134 1.391 . S
C2136 C2137 1.400 . S
C2137 C2131 1.491 . S
C2137 C2136 1.400 . S
C2137 C2138 1.398 . S
C2138 H2126 0.950 . S
C2138 C2137 1.398 . S
C2138 C2139 1.391 . S
C2139 H2127 0.950 . S
C2139 C2135 1.393 . S
C2139 C2138 1.391 . S
H2140 C2148 0.950 . S
H2141 C2153 0.950 . S
H2142 C2150 0.950 . S
H2143 C2152 0.950 . S
H2144 C2154 0.950 . S
H2145 C2156 0.950 . S
H2146 C2158 0.950 . S
H2147 C2159 0.950 . S
C2148 H2140 0.950 . S
C2148 C2149 1.386 . S
C2148 C2150 1.391 . S
C2149 C2148 1.386 . S
C2149 C2153 1.393 . S
C2150 H2142 0.950 . S
C2150 C2148 1.391 . S
C2150 C2151 1.400 . S
C2151 C2150 1.400 . S
C2151 C2152 1.398 . S
C2151 C2157 1.491 . S
C2152 H2143 0.950 . S
C2152 C2151 1.398 . S
C2152 C2153 1.391 . S
C2153 H2141 0.950 . S
C2153 C2149 1.393 . S
C2153 C2152 1.391 . S
C2154 H2144 0.950 . S
C2154 C2155 1.386 . S
C2154 C2156 1.391 . S
C2155 C2154 1.386 . S
C2155 C2159 1.393 . S
C2156 H2145 0.950 . S
C2156 C2154 1.391 . S
C2156 C2157 1.400 . S
C2157 C2151 1.491 . S
C2157 C2156 1.400 . S
C2157 C2158 1.398 . S
C2158 H2146 0.950 . S
C2158 C2157 1.398 . S
C2158 C2159 1.391 . S
C2159 H2147 0.950 . S
C2159 C2155 1.393 . S
C2159 C2158 1.391 . S
H2160 C2168 0.950 . S
H2161 C2173 0.950 . S
H2162 C2170 0.950 . S
H2163 C2172 0.950 . S
H2164 C2174 0.950 . S
H2165 C2176 0.950 . S
H2166 C2178 0.950 . S
H2167 C2179 0.950 . S
C2168 H2160 0.950 . S
C2168 C2169 1.386 . S
C2168 C2170 1.391 . S
C2169 C2168 1.386 . S
C2169 C2173 1.393 . S
C2170 H2162 0.950 . S
C2170 C2168 1.391 . S
C2170 C2171 1.400 . S
C2171 C2170 1.400 . S
C2171 C2172 1.398 . S
C2171 C2177 1.491 . S
C2172 H2163 0.950 . S
C2172 C2171 1.398 . S
C2172 C2173 1.391 . S
C2173 H2161 0.950 . S
C2173 C2169 1.393 . S
C2173 C2172 1.391 . S
C2174 H2164 0.950 . S
C2174 C2175 1.386 . S
C2174 C2176 1.391 . S
C2175 C2174 1.386 . S
C2175 C2179 1.393 . S
C2176 H2165 0.950 . S
C2176 C2174 1.391 . S
C2176 C2177 1.400 . S
C2177 C2171 1.491 . S
C2177 C2176 1.400 . S
C2177 C2178 1.398 . S
C2178 H2166 0.950 . S
C2178 C2177 1.398 . S
C2178 C2179 1.391 . S
C2179 H2167 0.950 . S
C2179 C2175 1.393 . S
C2179 C2178 1.391 . S
H2180 C2188 0.950 . S
H2181 C2193 0.950 . S
H2182 C2190 0.950 . S
H2183 C2192 0.950 . S
H2184 C2194 0.950 . S
H2185 C2196 0.950 . S
H2186 C2198 0.950 . S
H2187 C2199 0.950 . S
C2188 H2180 0.950 . S
C2188 C2189 1.386 . S
C2188 C2190 1.391 . S
C2189 C2188 1.386 . S
C2189 C2193 1.393 . S
C2190 H2182 0.950 . S
C2190 C2188 1.391 . S
C2190 C2191 1.400 . S
C2191 C2190 1.400 . S
C2191 C2192 1.398 . S
C2191 C2197 1.491 . S
C2192 H2183 0.950 . S
C2192 C2191 1.398 . S
C2192 C2193 1.391 . S
C2193 H2181 0.950 . S
C2193 C2189 1.393 . S
C2193 C2192 1.391 . S
C2194 H2184 0.950 . S
C2194 C2195 1.386 . S
C2194 C2196 1.391 . S
C2195 C2194 1.386 . S
C2195 C2199 1.393 . S
C2196 H2185 0.950 . S
C2196 C2194 1.391 . S
C2196 C2197 1.400 . S
C2197 C2191 1.491 . S
C2197 C2196 1.400 . S
C2197 C2198 1.398 . S
C2198 H2186 0.950 . S
C2198 C2197 1.398 . S
C2198 C2199 1.391 . S
C2199 H2187 0.950 . S
C2199 C2195 1.393 . S
C2199 C2198 1.391 . S
H2200 C2208 0.950 . S
H2201 C2213 0.950 . S
H2202 C2210 0.950 . S
H2203 C2212 0.950 . S
H2204 C2214 0.950 . S
H2205 C2216 0.950 . S
H2206 C2218 0.950 . S
H2207 C2219 0.950 . S
C2208 H2200 0.950 . S
C2208 C2209 1.386 . S
C2208 C2210 1.391 . S
C2209 C2208 1.386 . S
C2209 C2213 1.393 . S
C2210 H2202 0.950 . S
C2210 C2208 1.391 . S
C2210 C2211 1.400 . S
C2211 C2210 1.400 . S
C2211 C2212 1.398 . S
C2211 C2217 1.491 . S
C2212 H2203 0.950 . S
C2212 C2211 1.398 . S
C2212 C2213 1.391 . S
C2213 H2201 0.950 . S
C2213 C2209 1.393 . S
C2213 C2212 1.391 . S
C2214 H2204 0.950 . S
C2214 C2215 1.386 . S
C2214 C2216 1.391 . S
C2215 C2214 1.386 . S
C2215 C2219 1.393 . S
C2216 H2205 0.950 . S
C2216 C2214 1.391 . S
C2216 C2217 1.400 . S
C2217 C2211 1.491 . S
C2217 C2216 1.400 . S
C2217 C2218 1.398 . S
C2218 H2206 0.950 . S
C2218 C2217 1.398 . S
C2218 C2219 1.391 . S
C2219 H2207 0.950 . S
C2219 C2215 1.393 . S
C2219 C2218 1.391 . S
H2220 C2228 0.950 . S
H2221 C2233 0.950 . S
H2222 C2230 0.950 . S
H2223 C2232 0.950 . S
H2224 C2234 0.950 . S
H2225 C2236 0.950 . S
H2226 C2238 0.950 . S
H2227 C2239 0.950 1_455 S
C2228 H2220 0.950 . S
C2228 C2229 1.386 . S
C2228 C2230 1.391 . S
C2229 C2228 1.386 . S
C2229 C2233 1.393 . S
C2230 H2222 0.950 . S
C2230 C2228 1.391 . S
C2230 C2231 1.400 . S
C2231 C2230 1.400 . S
C2231 C2232 1.398 . S
C2231 C2237 1.491 . S
C2232 H2223 0.950 . S
C2232 C2231 1.398 . S
C2232 C2233 1.391 . S
C2233 H2221 0.950 . S
C2233 C2229 1.393 . S
C2233 C2232 1.391 . S
C2234 H2224 0.950 . S
C2234 C2235 1.386 1_655 S
C2234 C2236 1.391 . S
C2235 C2234 1.386 1_455 S
C2235 C2239 1.393 1_455 S
C2236 H2225 0.950 . S
C2236 C2234 1.391 . S
C2236 C2237 1.400 . S
C2237 C2231 1.491 . S
C2237 C2236 1.400 . S
C2237 C2238 1.398 . S
C2238 H2226 0.950 . S
C2238 C2237 1.398 . S
C2238 C2239 1.391 . S
C2239 H2227 0.950 1_655 S
C2239 C2235 1.393 1_655 S
C2239 C2238 1.391 . S
H2240 C2248 0.950 . S
H2241 C2253 0.950 . S
H2242 C2250 0.950 . S
H2243 C2252 0.950 . S
H2244 C2254 0.950 . S
H2245 C2256 0.950 . S
H2246 C2258 0.950 . S
H2247 C2259 0.950 . S
C2248 H2240 0.950 . S
C2248 C2249 1.386 . S
C2248 C2250 1.391 . S
C2249 C2248 1.386 . S
C2249 C2253 1.393 . S
C2250 H2242 0.950 . S
C2250 C2248 1.391 . S
C2250 C2251 1.400 . S
C2251 C2250 1.400 . S
C2251 C2252 1.398 . S
C2251 C2257 1.491 . S
C2252 H2243 0.950 . S
C2252 C2251 1.398 . S
C2252 C2253 1.391 . S
C2253 H2241 0.950 . S
C2253 C2249 1.393 . S
C2253 C2252 1.391 . S
C2254 H2244 0.950 . S
C2254 C2255 1.386 . S
C2254 C2256 1.391 . S
C2255 C2254 1.386 . S
C2255 C2259 1.393 . S
C2256 H2245 0.950 . S
C2256 C2254 1.391 . S
C2256 C2257 1.400 . S
C2257 C2251 1.491 . S
C2257 C2256 1.400 . S
C2257 C2258 1.398 . S
C2258 H2246 0.950 . S
C2258 C2257 1.398 . S
C2258 C2259 1.391 . S
C2259 H2247 0.950 . S
C2259 C2255 1.393 . S
C2259 C2258 1.391 . S
H2260 C2268 0.950 . S
H2261 C2273 0.950 . S
H2262 C2270 0.950 . S
H2263 C2272 0.950 . S
H2264 C2274 0.950 . S
H2265 C2276 0.950 . S
H2266 C2278 0.950 . S
H2267 C2279 0.950 . S
C2268 H2260 0.950 . S
C2268 C2269 1.386 . S
C2268 C2270 1.391 . S
C2269 C2268 1.386 . S
C2269 C2273 1.393 . S
C2270 H2262 0.950 . S
C2270 C2268 1.391 . S
C2270 C2271 1.400 . S
C2271 C2270 1.400 . S
C2271 C2272 1.398 . S
C2271 C2277 1.491 . S
C2272 H2263 0.950 . S
C2272 C2271 1.398 . S
C2272 C2273 1.391 . S
C2273 H2261 0.950 . S
C2273 C2269 1.393 . S
C2273 C2272 1.391 . S
C2274 H2264 0.950 . S
C2274 C2275 1.386 . S
C2274 C2276 1.391 . S
C2275 C2274 1.386 . S
C2275 C2279 1.393 . S
C2276 H2265 0.950 . S
C2276 C2274 1.391 . S
C2276 C2277 1.400 . S
C2277 C2271 1.491 . S
C2277 C2276 1.400 . S
C2277 C2278 1.398 . S
C2278 H2266 0.950 . S
C2278 C2277 1.398 . S
C2278 C2279 1.391 . S
C2279 H2267 0.950 . S
C2279 C2275 1.393 . S
C2279 C2278 1.391 . S
H2280 C2288 0.950 . S
H2281 C2293 0.950 . S
H2282 C2290 0.950 . S
H2283 C2292 0.950 . S
H2284 C2294 0.950 . S
H2285 C2296 0.950 . S
H2286 C2298 0.950 . S
H2287 C2299 0.950 . S
C2288 H2280 0.950 . S
C2288 C2289 1.386 . S
C2288 C2290 1.391 . S
C2289 C2288 1.386 . S
C2289 C2293 1.393 . S
C2290 H2282 0.950 . S
C2290 C2288 1.391 . S
C2290 C2291 1.400 . S
C2291 C2290 1.400 . S
C2291 C2292 1.398 . S
C2291 C2297 1.491 . S
C2292 H2283 0.950 . S
C2292 C2291 1.398 . S
C2292 C2293 1.391 . S
C2293 H2281 0.950 . S
C2293 C2289 1.393 . S
C2293 C2292 1.391 . S
C2294 H2284 0.950 . S
C2294 C2295 1.386 . S
C2294 C2296 1.391 . S
C2295 C2294 1.386 . S
C2295 C2299 1.393 . S
C2296 H2285 0.950 . S
C2296 C2294 1.391 . S
C2296 C2297 1.400 . S
C2297 C2291 1.491 . S
C2297 C2296 1.400 . S
C2297 C2298 1.398 . S
C2298 H2286 0.950 . S
C2298 C2297 1.398 . S
C2298 C2299 1.391 . S
C2299 H2287 0.950 . S
C2299 C2295 1.393 . S
C2299 C2298 1.391 . S
H2300 C2308 0.950 . S
H2301 C2313 0.950 . S
H2302 C2310 0.950 . S
H2303 C2312 0.950 . S
H2304 C2314 0.950 . S
H2305 C2316 0.950 . S
H2306 C2318 0.950 . S
H2307 C2319 0.950 . S
C2308 H2300 0.950 . S
C2308 C2309 1.386 . S
C2308 C2310 1.391 . S
C2309 C2308 1.386 . S
C2309 C2313 1.393 . S
C2310 H2302 0.950 . S
C2310 C2308 1.391 . S
C2310 C2311 1.400 . S
C2311 C2310 1.400 . S
C2311 C2312 1.398 . S
C2311 C2317 1.491 . S
C2312 H2303 0.950 . S
C2312 C2311 1.398 . S
C2312 C2313 1.391 . S
C2313 H2301 0.950 . S
C2313 C2309 1.393 . S
C2313 C2312 1.391 . S
C2314 H2304 0.950 . S
C2314 C2315 1.386 1_655 S
C2314 C2316 1.391 . S
C2315 C2314 1.386 1_455 S
C2315 C2319 1.393 . S
C2316 H2305 0.950 . S
C2316 C2314 1.391 . S
C2316 C2317 1.400 . S
C2317 C2311 1.491 . S
C2317 C2316 1.400 . S
C2317 C2318 1.398 . S
C2318 H2306 0.950 . S
C2318 C2317 1.398 . S
C2318 C2319 1.391 1_655 S
C2319 H2307 0.950 . S
C2319 C2315 1.393 . S
C2319 C2318 1.391 1_455 S
H2320 C2328 0.950 . S
H2321 C2333 0.950 . S
H2322 C2330 0.950 . S
H2323 C2332 0.950 . S
H2324 C2334 0.950 . S
H2325 C2336 0.950 . S
H2326 C2338 0.950 . S
H2327 C2339 0.950 . S
C2328 H2320 0.950 . S
C2328 C2329 1.386 . S
C2328 C2330 1.391 . S
C2329 C2328 1.386 . S
C2329 C2333 1.393 . S
C2330 H2322 0.950 . S
C2330 C2328 1.391 . S
C2330 C2331 1.400 . S
C2331 C2330 1.400 . S
C2331 C2332 1.398 . S
C2331 C2337 1.491 . S
C2332 H2323 0.950 . S
C2332 C2331 1.398 . S
C2332 C2333 1.391 . S
C2333 H2321 0.950 . S
C2333 C2329 1.393 . S
C2333 C2332 1.391 . S
C2334 H2324 0.950 . S
C2334 C2335 1.386 . S
C2334 C2336 1.391 . S
C2335 C2334 1.386 . S
C2335 C2339 1.393 . S
C2336 H2325 0.950 . S
C2336 C2334 1.391 . S
C2336 C2337 1.400 . S
C2337 C2331 1.491 . S
C2337 C2336 1.400 . S
C2337 C2338 1.398 . S
C2338 H2326 0.950 . S
C2338 C2337 1.398 . S
C2338 C2339 1.391 . S
C2339 H2327 0.950 . S
C2339 C2335 1.393 . S
C2339 C2338 1.391 . S
H2340 C2348 0.950 . S
H2341 C2353 0.950 . S
H2342 C2350 0.950 . S
H2343 C2352 0.950 . S
H2344 C2354 0.950 . S
H2345 C2356 0.950 . S
H2346 C2358 0.950 . S
H2347 C2359 0.950 . S
C2348 H2340 0.950 . S
C2348 C2349 1.386 . S
C2348 C2350 1.391 . S
C2349 C2348 1.386 . S
C2349 C2353 1.393 . S
C2350 H2342 0.950 . S
C2350 C2348 1.391 . S
C2350 C2351 1.400 . S
C2351 C2350 1.400 . S
C2351 C2352 1.398 . S
C2351 C2357 1.491 . S
C2352 H2343 0.950 . S
C2352 C2351 1.398 . S
C2352 C2353 1.391 . S
C2353 H2341 0.950 . S
C2353 C2349 1.393 . S
C2353 C2352 1.391 . S
C2354 H2344 0.950 . S
C2354 C2355 1.386 . S
C2354 C2356 1.391 1_455 S
C2355 C2354 1.386 . S
C2355 C2359 1.393 1_455 S
C2356 H2345 0.950 . S
C2356 C2354 1.391 1_655 S
C2356 C2357 1.400 . S
C2357 C2351 1.491 . S
C2357 C2356 1.400 . S
C2357 C2358 1.398 . S
C2358 H2346 0.950 . S
C2358 C2357 1.398 . S
C2358 C2359 1.391 . S
C2359 H2347 0.950 . S
C2359 C2355 1.393 1_655 S
C2359 C2358 1.391 . S
H2360 C2368 0.950 . S
H2361 C2373 0.950 . S
H2362 C2370 0.950 . S
H2363 C2372 0.950 . S
H2364 C2374 0.950 . S
H2365 C2376 0.950 . S
H2366 C2378 0.950 . S
H2367 C2379 0.950 . S
C2368 H2360 0.950 . S
C2368 C2369 1.386 . S
C2368 C2370 1.391 . S
C2369 C2368 1.386 . S
C2369 C2373 1.393 . S
C2370 H2362 0.950 . S
C2370 C2368 1.391 . S
C2370 C2371 1.400 . S
C2371 C2370 1.400 . S
C2371 C2372 1.398 . S
C2371 C2377 1.491 . S
C2372 H2363 0.950 . S
C2372 C2371 1.398 . S
C2372 C2373 1.391 . S
C2373 H2361 0.950 . S
C2373 C2369 1.393 . S
C2373 C2372 1.391 . S
C2374 H2364 0.950 . S
C2374 C2375 1.386 . S
C2374 C2376 1.391 . S
C2375 C2374 1.386 . S
C2375 C2379 1.393 . S
C2376 H2365 0.950 . S
C2376 C2374 1.391 . S
C2376 C2377 1.400 . S
C2377 C2371 1.491 . S
C2377 C2376 1.400 . S
C2377 C2378 1.398 . S
C2378 H2366 0.950 . S
C2378 C2377 1.398 . S
C2378 C2379 1.391 . S
C2379 H2367 0.950 . S
C2379 C2375 1.393 . S
C2379 C2378 1.391 . S
H2380 C2388 0.950 . S
H2381 C2393 0.950 . S
H2382 C2390 0.950 . S
H2383 C2392 0.950 . S
H2384 C2394 0.950 . S
H2385 C2396 0.950 . S
H2386 C2398 0.950 . S
H2387 C2399 0.950 . S
C2388 H2380 0.950 . S
C2388 C2389 1.386 . S
C2388 C2390 1.391 . S
C2389 C2388 1.386 . S
C2389 C2393 1.393 . S
C2390 H2382 0.950 . S
C2390 C2388 1.391 . S
C2390 C2391 1.400 . S
C2391 C2390 1.400 . S
C2391 C2392 1.398 . S
C2391 C2397 1.491 . S
C2392 H2383 0.950 . S
C2392 C2391 1.398 . S
C2392 C2393 1.391 . S
C2393 H2381 0.950 . S
C2393 C2389 1.393 . S
C2393 C2392 1.391 . S
C2394 H2384 0.950 . S
C2394 C2395 1.386 . S
C2394 C2396 1.391 . S
C2395 C2394 1.386 . S
C2395 C2399 1.393 . S
C2396 H2385 0.950 . S
C2396 C2394 1.391 . S
C2396 C2397 1.400 . S
C2397 C2391 1.491 . S
C2397 C2396 1.400 . S
C2397 C2398 1.398 . S
C2398 H2386 0.950 . S
C2398 C2397 1.398 . S
C2398 C2399 1.391 . S
C2399 H2387 0.950 . S
C2399 C2395 1.393 . S
C2399 C2398 1.391 . S
H2400 C2408 0.950 . S
H2401 C2413 0.950 . S
H2402 C2410 0.950 . S
H2403 C2412 0.950 . S
H2404 C2414 0.950 . S
H2405 C2416 0.950 . S
H2406 C2418 0.950 . S
H2407 C2419 0.950 . S
C2408 H2400 0.950 . S
C2408 C2409 1.386 . S
C2408 C2410 1.391 . S
C2409 C2408 1.386 . S
C2409 C2413 1.393 . S
C2410 H2402 0.950 . S
C2410 C2408 1.391 . S
C2410 C2411 1.400 . S
C2411 C2410 1.400 . S
C2411 C2412 1.398 . S
C2411 C2417 1.491 . S
C2412 H2403 0.950 . S
C2412 C2411 1.398 . S
C2412 C2413 1.391 . S
C2413 H2401 0.950 . S
C2413 C2409 1.393 . S
C2413 C2412 1.391 . S
C2414 H2404 0.950 . S
C2414 C2415 1.386 . S
C2414 C2416 1.391 . S
C2415 C2414 1.386 . S
C2415 C2419 1.393 . S
C2416 H2405 0.950 . S
C2416 C2414 1.391 . S
C2416 C2417 1.400 . S
C2417 C2411 1.491 . S
C2417 C2416 1.400 . S
C2417 C2418 1.398 . S
C2418 H2406 0.950 . S
C2418 C2417 1.398 . S
C2418 C2419 1.391 . S
C2419 H2407 0.950 . S
C2419 C2415 1.393 . S
C2419 C2418 1.391 . S
H2420 C2428 0.950 . S
H2421 C2433 0.950 . S
H2422 C2430 0.950 . S
H2423 C2432 0.950 . S
H2424 C2434 0.950 . S
H2425 C2436 0.950 . S
H2426 C2438 0.950 . S
H2427 C2439 0.950 . S
C2428 H2420 0.950 . S
C2428 C2429 1.386 . S
C2428 C2430 1.391 . S
C2429 C2428 1.386 . S
C2429 C2433 1.393 . S
C2430 H2422 0.950 . S
C2430 C2428 1.391 . S
C2430 C2431 1.400 . S
C2431 C2430 1.400 . S
C2431 C2432 1.398 . S
C2431 C2437 1.491 . S
C2432 H2423 0.950 . S
C2432 C2431 1.398 . S
C2432 C2433 1.391 . S
C2433 H2421 0.950 . S
C2433 C2429 1.393 . S
C2433 C2432 1.391 . S
C2434 H2424 0.950 . S
C2434 C2435 1.386 . S
C2434 C2436 1.391 . S
C2435 C2434 1.386 . S
C2435 C2439 1.393 . S
C2436 H2425 0.950 . S
C2436 C2434 1.391 . S
C2436 C2437 1.400 . S
C2437 C2431 1.491 . S
C2437 C2436 1.400 . S
C2437 C2438 1.398 . S
C2438 H2426 0.950 . S
C2438 C2437 1.398 . S
C2438 C2439 1.391 . S
C2439 H2427 0.950 . S
C2439 C2435 1.393 . S
C2439 C2438 1.391 . S
H2440 C2448 0.950 . S
H2441 C2453 0.950 . S
H2442 C2450 0.950 . S
H2443 C2452 0.950 . S
H2444 C2454 0.950 . S
H2445 C2456 0.950 . S
H2446 C2458 0.950 . S
H2447 C2459 0.950 . S
C2448 H2440 0.950 . S
C2448 C2449 1.386 . S
C2448 C2450 1.391 . S
C2449 C2448 1.386 . S
C2449 C2453 1.393 . S
C2450 H2442 0.950 . S
C2450 C2448 1.391 . S
C2450 C2451 1.400 . S
C2451 C2450 1.400 . S
C2451 C2452 1.398 . S
C2451 C2457 1.491 . S
C2452 H2443 0.950 . S
C2452 C2451 1.398 . S
C2452 C2453 1.391 . S
C2453 H2441 0.950 . S
C2453 C2449 1.393 . S
C2453 C2452 1.391 . S
C2454 H2444 0.950 . S
C2454 C2455 1.386 . S
C2454 C2456 1.391 . S
C2455 C2454 1.386 . S
C2455 C2459 1.393 . S
C2456 H2445 0.950 . S
C2456 C2454 1.391 . S
C2456 C2457 1.400 . S
C2457 C2451 1.491 . S
C2457 C2456 1.400 . S
C2457 C2458 1.398 . S
C2458 H2446 0.950 . S
C2458 C2457 1.398 . S
C2458 C2459 1.391 . S
C2459 H2447 0.950 . S
C2459 C2455 1.393 . S
C2459 C2458 1.391 . S
H2460 C2468 0.950 . S
H2461 C2473 0.996 . S
H2462 C2470 0.950 . S
H2463 C2472 0.950 . S
H2464 C2474 0.950 . S
H2465 C2476 0.950 . S
H2466 C2478 0.950 . S
H2467 C2479 0.950 . S
C2468 H2460 0.950 . S
C2468 C2469 1.386 1_455 S
C2468 C2470 1.391 . S
C2469 C2468 1.386 1_655 S
C2469 C2473 1.396 . S
C2470 H2462 0.950 . S
C2470 C2468 1.391 . S
C2470 C2471 1.400 . S
C2471 C2470 1.400 . S
C2471 C2472 1.398 . S
C2471 C2477 1.491 . S
C2472 H2463 0.950 . S
C2472 C2471 1.398 . S
C2472 C2473 1.343 1_455 S
C2473 H2461 0.996 . S
C2473 C2469 1.396 . S
C2473 C2472 1.343 1_655 S
C2474 H2464 0.950 . S
C2474 C2475 1.386 . S
C2474 C2476 1.391 . S
C2475 C2474 1.386 . S
C2475 C2479 1.393 . S
C2476 H2465 0.950 . S
C2476 C2474 1.391 . S
C2476 C2477 1.400 . S
C2477 C2471 1.491 . S
C2477 C2476 1.400 . S
C2477 C2478 1.398 . S
C2478 H2466 0.950 . S
C2478 C2477 1.398 . S
C2478 C2479 1.391 . S
C2479 H2467 0.950 . S
C2479 C2475 1.393 . S
C2479 C2478 1.391 . S
H2480 C2488 0.950 . S
H2481 C2493 0.950 . S
H2482 C2490 0.950 . S
H2483 C2492 0.950 . S
H2484 C2494 0.950 . S
H2485 C2496 0.950 . S
H2486 C2498 0.950 . S
H2487 C2499 0.950 . S
C2488 H2480 0.950 . S
C2488 C2489 1.386 . S
C2488 C2490 1.391 . S
C2489 C2488 1.386 . S
C2489 C2493 1.393 . S
C2490 H2482 0.950 . S
C2490 C2488 1.391 . S
C2490 C2491 1.400 . S
C2491 C2490 1.400 . S
C2491 C2492 1.398 . S
C2491 C2497 1.491 . S
C2492 H2483 0.950 . S
C2492 C2491 1.398 . S
C2492 C2493 1.391 . S
C2493 H2481 0.950 . S
C2493 C2489 1.393 . S
C2493 C2492 1.391 . S
C2494 H2484 0.950 . S
C2494 C2495 1.386 . S
C2494 C2496 1.391 . S
C2495 C2494 1.386 . S
C2495 C2499 1.393 . S
C2496 H2485 0.950 . S
C2496 C2494 1.391 . S
C2496 C2497 1.400 . S
C2497 C2491 1.491 . S
C2497 C2496 1.400 . S
C2497 C2498 1.398 . S
C2498 H2486 0.950 . S
C2498 C2497 1.398 . S
C2498 C2499 1.391 . S
C2499 H2487 0.950 . S
C2499 C2495 1.393 . S
C2499 C2498 1.391 . S
H2500 C2508 0.950 . S
H2501 C2513 0.950 . S
H2502 C2510 0.950 . S
H2503 C2512 0.950 . S
H2504 C2514 0.950 . S
H2505 C2516 0.950 . S
H2506 C2518 0.950 . S
H2507 C2519 0.950 . S
C2508 H2500 0.950 . S
C2508 C2509 1.386 . S
C2508 C2510 1.391 . S
C2509 C2508 1.386 . S
C2509 C2513 1.393 . S
C2510 H2502 0.950 . S
C2510 C2508 1.391 . S
C2510 C2511 1.400 . S
C2511 C2510 1.400 . S
C2511 C2512 1.398 . S
C2511 C2517 1.491 . S
C2512 H2503 0.950 . S
C2512 C2511 1.398 . S
C2512 C2513 1.391 . S
C2513 H2501 0.950 . S
C2513 C2509 1.393 . S
C2513 C2512 1.391 . S
C2514 H2504 0.950 . S
C2514 C2515 1.386 . S
C2514 C2516 1.391 1_655 S
C2515 C2514 1.386 . S
C2515 C2519 1.393 1_655 S
C2516 H2505 0.950 . S
C2516 C2514 1.391 1_455 S
C2516 C2517 1.400 . S
C2517 C2511 1.491 . S
C2517 C2516 1.400 . S
C2517 C2518 1.398 . S
C2518 H2506 0.950 . S
C2518 C2517 1.398 . S
C2518 C2519 1.391 . S
C2519 H2507 0.950 . S
C2519 C2515 1.393 1_455 S
C2519 C2518 1.391 . S
H2520 C2528 0.950 . S
H2521 C2533 0.950 . S
H2522 C2530 0.950 . S
H2523 C2532 0.950 . S
H2524 C2534 0.950 . S
H2525 C2536 0.950 . S
H2526 C2538 0.950 . S
H2527 C2539 0.950 . S
C2528 H2520 0.950 . S
C2528 C2529 1.386 . S
C2528 C2530 1.391 . S
C2529 C2528 1.386 . S
C2529 C2533 1.393 . S
C2530 H2522 0.950 . S
C2530 C2528 1.391 . S
C2530 C2531 1.400 . S
C2531 C2530 1.400 . S
C2531 C2532 1.398 . S
C2531 C2537 1.491 . S
C2532 H2523 0.950 . S
C2532 C2531 1.398 . S
C2532 C2533 1.391 . S
C2533 H2521 0.950 . S
C2533 C2529 1.393 . S
C2533 C2532 1.391 . S
C2534 H2524 0.950 . S
C2534 C2535 1.386 . S
C2534 C2536 1.391 . S
C2535 C2534 1.386 . S
C2535 C2539 1.393 . S
C2536 H2525 0.950 . S
C2536 C2534 1.391 . S
C2536 C2537 1.400 . S
C2537 C2531 1.491 . S
C2537 C2536 1.400 . S
C2537 C2538 1.398 . S
C2538 H2526 0.950 . S
C2538 C2537 1.398 . S
C2538 C2539 1.391 . S
C2539 H2527 0.950 . S
C2539 C2535 1.393 . S
C2539 C2538 1.391 . S
H2540 C2548 0.950 . S
H2541 C2553 0.950 . S
H2542 C2550 0.950 . S
H2543 C2552 0.950 . S
H2544 C2554 0.950 . S
H2545 C2556 0.950 . S
H2546 C2558 0.950 . S
H2547 C2559 0.950 . S
C2548 H2540 0.950 . S
C2548 C2549 1.386 . S
C2548 C2550 1.391 . S
C2549 C2548 1.386 . S
C2549 C2553 1.393 . S
C2550 H2542 0.950 . S
C2550 C2548 1.391 . S
C2550 C2551 1.400 . S
C2551 C2550 1.400 . S
C2551 C2552 1.398 . S
C2551 C2557 1.491 . S
C2552 H2543 0.950 . S
C2552 C2551 1.398 . S
C2552 C2553 1.391 . S
C2553 H2541 0.950 . S
C2553 C2549 1.393 . S
C2553 C2552 1.391 . S
C2554 H2544 0.950 . S
C2554 C2555 1.386 . S
C2554 C2556 1.391 . S
C2555 C2554 1.386 . S
C2555 C2559 1.393 . S
C2556 H2545 0.950 . S
C2556 C2554 1.391 . S
C2556 C2557 1.400 . S
C2557 C2551 1.491 . S
C2557 C2556 1.400 . S
C2557 C2558 1.398 . S
C2558 H2546 0.950 . S
C2558 C2557 1.398 . S
C2558 C2559 1.391 . S
C2559 H2547 0.950 . S
C2559 C2555 1.393 . S
C2559 C2558 1.391 . S
H2560 C2568 0.950 . S
H2561 C2573 0.950 . S
H2562 C2570 0.950 . S
H2563 C2572 0.950 . S
H2564 C2574 0.950 . S
H2565 C2576 0.950 . S
H2566 C2578 0.950 . S
H2567 C2579 0.950 . S
C2568 H2560 0.950 . S
C2568 C2569 1.386 . S
C2568 C2570 1.391 . S
C2569 C2568 1.386 . S
C2569 C2573 1.393 . S
C2570 H2562 0.950 . S
C2570 C2568 1.391 . S
C2570 C2571 1.400 . S
C2571 C2570 1.400 . S
C2571 C2572 1.398 . S
C2571 C2577 1.491 1_545 S
C2572 H2563 0.950 . S
C2572 C2571 1.398 . S
C2572 C2573 1.391 . S
C2573 H2561 0.950 . S
C2573 C2569 1.393 . S
C2573 C2572 1.391 . S
C2574 H2564 0.950 . S
C2574 C2575 1.386 . S
C2574 C2576 1.391 . S
C2575 C2574 1.386 . S
C2575 C2579 1.393 . S
C2576 H2565 0.950 . S
C2576 C2574 1.391 . S
C2576 C2577 1.400 . S
C2577 C2571 1.491 1_565 S
C2577 C2576 1.400 . S
C2577 C2578 1.398 . S
C2578 H2566 0.950 . S
C2578 C2577 1.398 . S
C2578 C2579 1.391 . S
C2579 H2567 0.950 . S
C2579 C2575 1.393 . S
C2579 C2578 1.391 . S
H2580 C2588 0.950 . S
H2581 C2593 0.950 . S
H2582 C2590 0.950 . S
H2583 C2592 0.950 . S
H2584 C2594 0.950 . S
H2585 C2596 0.950 . S
H2586 C2598 0.950 . S
H2587 C2599 0.950 . S
C2588 H2580 0.950 . S
C2588 C2589 1.386 . S
C2588 C2590 1.391 . S
C2589 C2588 1.386 . S
C2589 C2593 1.393 . S
C2590 H2582 0.950 . S
C2590 C2588 1.391 . S
C2590 C2591 1.400 . S
C2591 C2590 1.400 . S
C2591 C2592 1.398 . S
C2591 C2597 1.491 . S
C2592 H2583 0.950 . S
C2592 C2591 1.398 . S
C2592 C2593 1.391 . S
C2593 H2581 0.950 . S
C2593 C2589 1.393 . S
C2593 C2592 1.391 . S
C2594 H2584 0.950 . S
C2594 C2595 1.386 . S
C2594 C2596 1.391 . S
C2595 C2594 1.386 . S
C2595 C2599 1.393 . S
C2596 H2585 0.950 . S
C2596 C2594 1.391 . S
C2596 C2597 1.400 . S
C2597 C2591 1.491 . S
C2597 C2596 1.400 . S
C2597 C2598 1.398 . S
C2598 H2586 0.950 . S
C2598 C2597 1.398 . S
C2598 C2599 1.391 . S
C2599 H2587 0.950 . S
C2599 C2595 1.393 . S
C2599 C2598 1.391 . S
H2600 C2608 0.950 . S
H2601 C2613 0.950 . S
H2602 C2610 0.950 . S
H2603 C2612 0.950 . S
H2604 C2614 0.950 . S
H2605 C2616 0.950 . S
H2606 C2618 0.950 . S
H2607 C2619 0.950 . S
C2608 H2600 0.950 . S
C2608 C2609 1.386 . S
C2608 C2610 1.391 . S
C2609 C2608 1.386 . S
C2609 C2613 1.393 . S
C2610 H2602 0.950 . S
C2610 C2608 1.391 . S
C2610 C2611 1.400 . S
C2611 C2610 1.400 . S
C2611 C2612 1.398 . S
C2611 C2617 1.491 1_565 S
C2612 H2603 0.950 . S
C2612 C2611 1.398 . S
C2612 C2613 1.391 . S
C2613 H2601 0.950 . S
C2613 C2609 1.393 . S
C2613 C2612 1.391 . S
C2614 H2604 0.950 . S
C2614 C2615 1.386 . S
C2614 C2616 1.391 . S
C2615 C2614 1.386 . S
C2615 C2619 1.393 . S
C2616 H2605 0.950 . S
C2616 C2614 1.391 . S
C2616 C2617 1.400 . S
C2617 C2611 1.491 1_545 S
C2617 C2616 1.400 . S
C2617 C2618 1.398 . S
C2618 H2606 0.950 . S
C2618 C2617 1.398 . S
C2618 C2619 1.391 . S
C2619 H2607 0.950 . S
C2619 C2615 1.393 . S
C2619 C2618 1.391 . S
H2620 C2628 0.950 . S
H2621 C2633 0.950 . S
H2622 C2630 0.949 1_554 S
H2623 C2632 0.950 . S
H2624 C2634 0.950 . S
H2625 C2636 0.949 1_556 S
H2626 C2638 0.950 . S
H2627 C2639 0.950 . S
C2628 H2620 0.950 . S
C2628 C2629 1.386 . S
C2628 C2630 1.392 . S
C2629 C2628 1.386 . S
C2629 C2633 1.393 . S
C2630 H2622 0.949 1_556 S
C2630 C2628 1.392 . S
C2630 C2631 1.401 . S
C2631 C2630 1.401 . S
C2631 C2632 1.398 . S
C2631 C2637 1.491 1_556 S
C2632 H2623 0.950 . S
C2632 C2631 1.398 . S
C2632 C2633 1.391 . S
C2633 H2621 0.950 . S
C2633 C2629 1.393 . S
C2633 C2632 1.391 . S
C2634 H2624 0.950 . S
C2634 C2635 1.386 . S
C2634 C2636 1.392 . S
C2635 C2634 1.386 . S
C2635 C2639 1.393 . S
C2636 H2625 0.949 1_554 S
C2636 C2634 1.392 . S
C2636 C2637 1.401 . S
C2637 C2631 1.491 1_554 S
C2637 C2636 1.401 . S
C2637 C2638 1.398 . S
C2638 H2626 0.950 . S
C2638 C2637 1.398 . S
C2638 C2639 1.391 . S
C2639 H2627 0.950 . S
C2639 C2635 1.393 . S
C2639 C2638 1.391 . S
H2640 C2648 0.950 . S
H2641 C2653 0.950 . S
H2642 C2650 0.950 . S
H2643 C2652 0.950 . S
H2644 C2654 0.950 . S
H2645 C2656 0.950 . S
H2646 C2658 0.950 . S
H2647 C2659 0.950 . S
C2648 H2640 0.950 . S
C2648 C2649 1.386 . S
C2648 C2650 1.391 . S
C2649 C2648 1.386 . S
C2649 C2653 1.393 . S
C2650 H2642 0.950 . S
C2650 C2648 1.391 . S
C2650 C2651 1.400 . S
C2651 C2650 1.400 . S
C2651 C2652 1.398 . S
C2651 C2657 1.491 1_545 S
C2652 H2643 0.950 . S
C2652 C2651 1.398 . S
C2652 C2653 1.391 . S
C2653 H2641 0.950 . S
C2653 C2649 1.393 . S
C2653 C2652 1.391 . S
C2654 H2644 0.950 . S
C2654 C2655 1.386 . S
C2654 C2656 1.391 . S
C2655 C2654 1.386 . S
C2655 C2659 1.393 . S
C2656 H2645 0.950 . S
C2656 C2654 1.391 . S
C2656 C2657 1.400 . S
C2657 C2651 1.491 1_565 S
C2657 C2656 1.400 . S
C2657 C2658 1.398 . S
C2658 H2646 0.950 . S
C2658 C2657 1.398 . S
C2658 C2659 1.391 . S
C2659 H2647 0.950 . S
C2659 C2655 1.393 . S
C2659 C2658 1.391 . S
H2660 C2668 0.950 . S
H2661 C2673 0.950 . S
H2662 C2670 0.950 . S
H2663 C2672 0.950 . S
H2664 C2674 0.950 . S
H2665 C2676 0.950 . S
H2666 C2678 0.950 . S
H2667 C2679 0.950 . S
C2668 H2660 0.950 . S
C2668 C2669 1.386 . S
C2668 C2670 1.391 . S
C2669 C2668 1.386 . S
C2669 C2673 1.393 . S
C2670 H2662 0.950 . S
C2670 C2668 1.391 . S
C2670 C2671 1.400 . S
C2671 C2670 1.400 . S
C2671 C2672 1.398 . S
C2671 C2677 1.491 . S
C2672 H2663 0.950 . S
C2672 C2671 1.398 . S
C2672 C2673 1.391 . S
C2673 H2661 0.950 . S
C2673 C2669 1.393 . S
C2673 C2672 1.391 . S
C2674 H2664 0.950 . S
C2674 C2675 1.386 . S
C2674 C2676 1.391 . S
C2675 C2674 1.386 . S
C2675 C2679 1.393 . S
C2676 H2665 0.950 . S
C2676 C2674 1.391 . S
C2676 C2677 1.400 . S
C2677 C2671 1.491 . S
C2677 C2676 1.400 . S
C2677 C2678 1.398 . S
C2678 H2666 0.950 . S
C2678 C2677 1.398 . S
C2678 C2679 1.391 . S
C2679 H2667 0.950 . S
C2679 C2675 1.393 . S
C2679 C2678 1.391 . S
H2680 C2688 0.950 . S
H2681 C2693 0.950 . S
H2682 C2690 0.950 . S
H2683 C2692 0.950 . S
H2684 C2694 0.950 . S
H2685 C2696 0.950 . S
H2686 C2698 0.950 . S
H2687 C2699 0.950 . S
C2688 H2680 0.950 . S
C2688 C2689 1.386 . S
C2688 C2690 1.391 . S
C2689 C2688 1.386 . S
C2689 C2693 1.393 . S
C2690 H2682 0.950 . S
C2690 C2688 1.391 . S
C2690 C2691 1.400 . S
C2691 C2690 1.400 . S
C2691 C2692 1.398 . S
C2691 C2697 1.491 1_545 S
C2692 H2683 0.950 . S
C2692 C2691 1.398 . S
C2692 C2693 1.391 . S
C2693 H2681 0.950 . S
C2693 C2689 1.393 . S
C2693 C2692 1.391 . S
C2694 H2684 0.950 . S
C2694 C2695 1.386 . S
C2694 C2696 1.391 . S
C2695 C2694 1.386 . S
C2695 C2699 1.393 . S
C2696 H2685 0.950 . S
C2696 C2694 1.391 . S
C2696 C2697 1.400 . S
C2697 C2691 1.491 1_565 S
C2697 C2696 1.400 . S
C2697 C2698 1.398 . S
C2698 H2686 0.950 . S
C2698 C2697 1.398 . S
C2698 C2699 1.391 . S
C2699 H2687 0.950 . S
C2699 C2695 1.393 . S
C2699 C2698 1.391 . S
H2700 C2708 0.950 . S
H2701 C2713 0.950 . S
H2702 C2710 0.950 . S
H2703 C2712 0.950 . S
H2704 C2714 0.950 . S
H2705 C2716 0.950 . S
H2706 C2718 0.950 . S
H2707 C2719 0.950 . S
C2708 H2700 0.950 . S
C2708 C2709 1.386 . S
C2708 C2710 1.391 . S
C2709 C2708 1.386 . S
C2709 C2713 1.393 1_556 S
C2710 H2702 0.950 . S
C2710 C2708 1.391 . S
C2710 C2711 1.440 . S
C2711 C2710 1.440 . S
C2711 C2712 1.363 1_556 S
C2711 C2717 1.487 1_556 S
C2712 H2703 0.950 . S
C2712 C2711 1.363 1_554 S
C2712 C2713 1.391 . S
C2713 H2701 0.950 . S
C2713 C2709 1.393 1_554 S
C2713 C2712 1.391 . S
C2714 H2704 0.950 . S
C2714 C2715 1.386 . S
C2714 C2716 1.391 . S
C2715 C2714 1.386 . S
C2715 C2719 1.393 1_554 S
C2716 H2705 0.950 . S
C2716 C2714 1.391 . S
C2716 C2717 1.440 . S
C2717 C2711 1.487 1_554 S
C2717 C2716 1.440 . S
C2717 C2718 1.363 1_554 S
C2718 H2706 0.950 . S
C2718 C2717 1.363 1_556 S
C2718 C2719 1.391 . S
C2719 H2707 0.950 . S
C2719 C2715 1.393 1_556 S
C2719 C2718 1.391 . S
H2720 C2728 0.950 . S
H2721 C2733 0.950 . S
H2722 C2730 0.950 . S
H2723 C2732 0.950 . S
H2724 C2734 0.950 . S
H2725 C2736 0.950 . S
H2726 C2738 0.950 . S
H2727 C2739 0.950 . S
C2728 H2720 0.950 . S
C2728 C2729 1.386 . S
C2728 C2730 1.391 . S
C2729 C2728 1.386 . S
C2729 C2733 1.393 . S
C2730 H2722 0.950 . S
C2730 C2728 1.391 . S
C2730 C2731 1.400 . S
C2731 C2730 1.400 . S
C2731 C2732 1.398 . S
C2731 C2737 1.491 . S
C2732 H2723 0.950 . S
C2732 C2731 1.398 . S
C2732 C2733 1.391 . S
C2733 H2721 0.950 . S
C2733 C2729 1.393 . S
C2733 C2732 1.391 . S
C2734 H2724 0.950 . S
C2734 C2735 1.386 . S
C2734 C2736 1.391 . S
C2735 C2734 1.386 . S
C2735 C2739 1.393 . S
C2736 H2725 0.950 . S
C2736 C2734 1.391 . S
C2736 C2737 1.400 . S
C2737 C2731 1.491 . S
C2737 C2736 1.400 . S
C2737 C2738 1.398 . S
C2738 H2726 0.950 . S
C2738 C2737 1.398 . S
C2738 C2739 1.391 . S
C2739 H2727 0.950 . S
C2739 C2735 1.393 . S
C2739 C2738 1.391 . S
H2740 C2748 0.950 . S
H2741 C2753 0.950 . S
H2742 C2750 0.950 . S
H2743 C2752 0.950 . S
H2744 C2754 0.950 . S
H2745 C2756 0.950 . S
H2746 C2758 0.950 . S
H2747 C2759 0.950 . S
C2748 H2740 0.950 . S
C2748 C2749 1.386 . S
C2748 C2750 1.391 . S
C2749 C2748 1.386 . S
C2749 C2753 1.393 1_556 S
C2750 H2742 0.950 . S
C2750 C2748 1.391 . S
C2750 C2751 1.409 . S
C2751 C2750 1.409 . S
C2751 C2752 1.390 1_556 S
C2751 C2757 1.490 1_556 S
C2752 H2743 0.950 . S
C2752 C2751 1.390 1_554 S
C2752 C2753 1.391 . S
C2753 H2741 0.950 . S
C2753 C2749 1.393 1_554 S
C2753 C2752 1.391 . S
C2754 H2744 0.950 . S
C2754 C2755 1.386 . S
C2754 C2756 1.391 . S
C2755 C2754 1.386 . S
C2755 C2759 1.393 1_554 S
C2756 H2745 0.950 . S
C2756 C2754 1.391 . S
C2756 C2757 1.409 . S
C2757 C2751 1.490 1_554 S
C2757 C2756 1.409 . S
C2757 C2758 1.390 1_554 S
C2758 H2746 0.950 . S
C2758 C2757 1.390 1_556 S
C2758 C2759 1.391 . S
C2759 H2747 0.950 . S
C2759 C2755 1.393 1_556 S
C2759 C2758 1.391 . S
H2760 C2768 0.950 . S
H2761 C2773 0.950 . S
H2762 C2770 0.950 . S
H2763 C2772 0.950 . S
H2764 C2774 0.950 . S
H2765 C2776 0.950 . S
H2766 C2778 0.950 . S
H2767 C2779 0.950 . S
C2768 H2760 0.950 . S
C2768 C2769 1.386 . S
C2768 C2770 1.391 . S
C2769 C2768 1.386 . S
C2769 C2773 1.393 . S
C2770 H2762 0.950 . S
C2770 C2768 1.391 . S
C2770 C2771 1.400 . S
C2771 C2770 1.400 . S
C2771 C2772 1.398 . S
C2771 C2777 1.491 . S
C2772 H2763 0.950 . S
C2772 C2771 1.398 . S
C2772 C2773 1.391 . S
C2773 H2761 0.950 . S
C2773 C2769 1.393 . S
C2773 C2772 1.391 . S
C2774 H2764 0.950 . S
C2774 C2775 1.386 . S
C2774 C2776 1.391 . S
C2775 C2774 1.386 . S
C2775 C2779 1.393 . S
C2776 H2765 0.950 . S
C2776 C2774 1.391 . S
C2776 C2777 1.400 . S
C2777 C2771 1.491 . S
C2777 C2776 1.400 . S
C2777 C2778 1.398 . S
C2778 H2766 0.950 . S
C2778 C2777 1.398 . S
C2778 C2779 1.391 . S
C2779 H2767 0.950 . S
C2779 C2775 1.393 . S
C2779 C2778 1.391 . S
H2780 C2788 0.950 . S
H2781 C2793 0.950 . S
H2782 C2790 0.950 . S
H2783 C2792 0.950 . S
H2784 C2794 0.950 . S
H2785 C2796 0.950 . S
H2786 C2798 0.950 . S
H2787 C2799 0.950 . S
C2788 H2780 0.950 . S
C2788 C2789 1.386 . S
C2788 C2790 1.391 . S
C2789 C2788 1.386 . S
C2789 C2793 1.393 . S
C2790 H2782 0.950 . S
C2790 C2788 1.391 . S
C2790 C2791 1.400 . S
C2791 C2790 1.400 . S
C2791 C2792 1.398 . S
C2791 C2797 1.491 . S
C2792 H2783 0.950 . S
C2792 C2791 1.398 . S
C2792 C2793 1.391 . S
C2793 H2781 0.950 . S
C2793 C2789 1.393 . S
C2793 C2792 1.391 . S
C2794 H2784 0.950 . S
C2794 C2795 1.386 . S
C2794 C2796 1.391 . S
C2795 C2794 1.386 . S
C2795 C2799 1.393 . S
C2796 H2785 0.950 . S
C2796 C2794 1.391 . S
C2796 C2797 1.400 . S
C2797 C2791 1.491 . S
C2797 C2796 1.400 . S
C2797 C2798 1.398 . S
C2798 H2786 0.950 . S
C2798 C2797 1.398 . S
C2798 C2799 1.391 . S
C2799 H2787 0.950 . S
C2799 C2795 1.393 . S
C2799 C2798 1.391 . S
H2800 C2808 0.950 . S
H2801 C2813 0.950 . S
H2802 C2810 0.950 . S
H2803 C2812 0.950 . S
H2804 C2814 0.950 . S
H2805 C2816 0.950 . S
H2806 C2818 0.950 . S
H2807 C2819 0.950 . S
C2808 H2800 0.950 . S
C2808 C2809 1.386 . S
C2808 C2810 1.391 . S
C2809 C2808 1.386 . S
C2809 C2813 1.393 . S
C2810 H2802 0.950 . S
C2810 C2808 1.391 . S
C2810 C2811 1.400 . S
C2811 C2810 1.400 . S
C2811 C2812 1.398 . S
C2811 C2817 1.491 . S
C2812 H2803 0.950 . S
C2812 C2811 1.398 . S
C2812 C2813 1.391 . S
C2813 H2801 0.950 . S
C2813 C2809 1.393 . S
C2813 C2812 1.391 . S
C2814 H2804 0.950 . S
C2814 C2815 1.386 . S
C2814 C2816 1.391 . S
C2815 C2814 1.386 . S
C2815 C2819 1.393 . S
C2816 H2805 0.950 . S
C2816 C2814 1.391 . S
C2816 C2817 1.400 . S
C2817 C2811 1.491 . S
C2817 C2816 1.400 . S
C2817 C2818 1.398 . S
C2818 H2806 0.950 . S
C2818 C2817 1.398 . S
C2818 C2819 1.391 . S
C2819 H2807 0.950 . S
C2819 C2815 1.393 . S
C2819 C2818 1.391 . S
H2820 C2828 0.950 . S
H2821 C2833 0.950 . S
H2822 C2830 0.950 . S
H2823 C2832 0.950 . S
H2824 C2834 0.950 . S
H2825 C2836 0.950 . S
H2826 C2838 0.950 . S
H2827 C2839 0.950 . S
C2828 H2820 0.950 . S
C2828 C2829 1.386 1_554 S
C2828 C2830 1.391 . S
C2829 C2828 1.386 1_556 S
C2829 C2833 1.393 . S
C2830 H2822 0.950 . S
C2830 C2828 1.391 . S
C2830 C2831 1.400 1_554 S
C2831 C2830 1.400 1_556 S
C2831 C2832 1.398 . S
C2831 C2837 1.491 1_556 S
C2832 H2823 0.950 . S
C2832 C2831 1.398 . S
C2832 C2833 1.391 . S
C2833 H2821 0.950 . S
C2833 C2829 1.393 . S
C2833 C2832 1.391 . S
C2834 H2824 0.950 . S
C2834 C2835 1.386 1_556 S
C2834 C2836 1.391 . S
C2835 C2834 1.386 1_554 S
C2835 C2839 1.393 . S
C2836 H2825 0.950 . S
C2836 C2834 1.391 . S
C2836 C2837 1.400 1_556 S
C2837 C2831 1.491 1_554 S
C2837 C2836 1.400 1_554 S
C2837 C2838 1.398 . S
C2838 H2826 0.950 . S
C2838 C2837 1.398 . S
C2838 C2839 1.391 . S
C2839 H2827 0.950 . S
C2839 C2835 1.393 . S
C2839 C2838 1.391 . S
H2840 C2848 0.950 . S
H2841 C2853 0.950 . S
H2842 C2850 0.950 . S
H2843 C2852 0.950 . S
H2844 C2854 0.950 . S
H2845 C2856 0.950 . S
H2846 C2858 0.950 . S
H2847 C2859 0.950 . S
C2848 H2840 0.950 . S
C2848 C2849 1.386 . S
C2848 C2850 1.391 . S
C2849 C2848 1.386 . S
C2849 C2853 1.393 . S
C2850 H2842 0.950 . S
C2850 C2848 1.391 . S
C2850 C2851 1.400 . S
C2851 C2850 1.400 . S
C2851 C2852 1.398 . S
C2851 C2857 1.491 . S
C2852 H2843 0.950 . S
C2852 C2851 1.398 . S
C2852 C2853 1.391 . S
C2853 H2841 0.950 . S
C2853 C2849 1.393 . S
C2853 C2852 1.391 . S
C2854 H2844 0.950 . S
C2854 C2855 1.386 . S
C2854 C2856 1.391 . S
C2855 C2854 1.386 . S
C2855 C2859 1.393 . S
C2856 H2845 0.950 . S
C2856 C2854 1.391 . S
C2856 C2857 1.400 . S
C2857 C2851 1.491 . S
C2857 C2856 1.400 . S
C2857 C2858 1.398 . S
C2858 H2846 0.950 . S
C2858 C2857 1.398 . S
C2858 C2859 1.391 . S
C2859 H2847 0.950 . S
C2859 C2855 1.393 . S
C2859 C2858 1.391 . S
H2860 C2868 0.950 . S
H2861 C2873 0.950 . S
H2862 C2870 0.950 . S
H2863 C2872 0.950 . S
H2864 C2874 0.950 . S
H2865 C2876 0.950 . S
H2866 C2878 0.950 . S
H2867 C2879 0.950 . S
C2868 H2860 0.950 . S
C2868 C2869 1.386 . S
C2868 C2870 1.391 . S
C2869 C2868 1.386 . S
C2869 C2873 1.393 . S
C2870 H2862 0.950 . S
C2870 C2868 1.391 . S
C2870 C2871 1.400 . S
C2871 C2870 1.400 . S
C2871 C2872 1.398 . S
C2871 C2877 1.491 . S
C2872 H2863 0.950 . S
C2872 C2871 1.398 . S
C2872 C2873 1.391 . S
C2873 H2861 0.950 . S
C2873 C2869 1.393 . S
C2873 C2872 1.391 . S
C2874 H2864 0.950 . S
C2874 C2875 1.386 . S
C2874 C2876 1.391 . S
C2875 C2874 1.386 . S
C2875 C2879 1.393 . S
C2876 H2865 0.950 . S
C2876 C2874 1.391 . S
C2876 C2877 1.400 . S
C2877 C2871 1.491 . S
C2877 C2876 1.400 . S
C2877 C2878 1.398 . S
C2878 H2866 0.950 . S
C2878 C2877 1.398 . S
C2878 C2879 1.391 . S
C2879 H2867 0.950 . S
C2879 C2875 1.393 . S
C2879 C2878 1.391 . S
H2880 C2888 0.950 . S
H2881 C2893 0.950 . S
H2882 C2890 0.950 . S
H2883 C2892 0.950 . S
H2884 C2894 0.950 . S
H2885 C2896 0.950 . S
H2886 C2898 0.950 . S
H2887 C2899 0.950 . S
C2888 H2880 0.950 . S
C2888 C2889 1.386 . S
C2888 C2890 1.391 . S
C2889 C2888 1.386 . S
C2889 C2893 1.393 . S
C2890 H2882 0.950 . S
C2890 C2888 1.391 . S
C2890 C2891 1.400 . S
C2891 C2890 1.400 . S
C2891 C2892 1.398 . S
C2891 C2897 1.491 . S
C2892 H2883 0.950 . S
C2892 C2891 1.398 . S
C2892 C2893 1.391 . S
C2893 H2881 0.950 . S
C2893 C2889 1.393 . S
C2893 C2892 1.391 . S
C2894 H2884 0.950 . S
C2894 C2895 1.386 . S
C2894 C2896 1.391 . S
C2895 C2894 1.386 . S
C2895 C2899 1.393 . S
C2896 H2885 0.950 . S
C2896 C2894 1.391 . S
C2896 C2897 1.400 . S
C2897 C2891 1.491 . S
C2897 C2896 1.400 . S
C2897 C2898 1.398 . S
C2898 H2886 0.950 . S
C2898 C2897 1.398 . S
C2898 C2899 1.391 . S
C2899 H2887 0.950 . S
C2899 C2895 1.393 . S
C2899 C2898 1.391 . S
H2900 C2908 0.950 . S
H2901 C2913 0.950 . S
H2902 C2910 0.950 . S
H2903 C2912 0.950 . S
H2904 C2914 0.950 . S
H2905 C2916 0.950 . S
H2906 C2918 0.950 . S
H2907 C2919 0.950 . S
C2908 H2900 0.950 . S
C2908 C2909 1.386 . S
C2908 C2910 1.391 . S
C2909 C2908 1.386 . S
C2909 C2913 1.393 . S
C2910 H2902 0.950 . S
C2910 C2908 1.391 . S
C2910 C2911 1.400 . S
C2911 C2910 1.400 . S
C2911 C2912 1.398 . S
C2911 C2917 1.491 . S
C2912 H2903 0.950 . S
C2912 C2911 1.398 . S
C2912 C2913 1.391 . S
C2913 H2901 0.950 . S
C2913 C2909 1.393 . S
C2913 C2912 1.391 . S
C2914 H2904 0.950 . S
C2914 C2915 1.386 . S
C2914 C2916 1.391 . S
C2915 C2914 1.386 . S
C2915 C2919 1.393 . S
C2916 H2905 0.950 . S
C2916 C2914 1.391 . S
C2916 C2917 1.400 . S
C2917 C2911 1.491 . S
C2917 C2916 1.400 . S
C2917 C2918 1.398 . S
C2918 H2906 0.950 . S
C2918 C2917 1.398 . S
C2918 C2919 1.391 . S
C2919 H2907 0.950 . S
C2919 C2915 1.393 . S
C2919 C2918 1.391 . S
H2920 C2928 0.950 . S
H2921 C2933 0.950 . S
H2922 C2930 0.950 . S
H2923 C2932 0.950 . S
H2924 C2934 0.950 . S
H2925 C2936 0.950 . S
H2926 C2938 0.950 . S
H2927 C2939 0.950 . S
C2928 H2920 0.950 . S
C2928 C2929 1.386 . S
C2928 C2930 1.391 . S
C2929 C2928 1.386 . S
C2929 C2933 1.393 . S
C2930 H2922 0.950 . S
C2930 C2928 1.391 . S
C2930 C2931 1.400 . S
C2931 C2930 1.400 . S
C2931 C2932 1.398 . S
C2931 C2937 1.491 . S
C2932 H2923 0.950 . S
C2932 C2931 1.398 . S
C2932 C2933 1.391 . S
C2933 H2921 0.950 . S
C2933 C2929 1.393 . S
C2933 C2932 1.391 . S
C2934 H2924 0.950 . S
C2934 C2935 1.386 . S
C2934 C2936 1.391 . S
C2935 C2934 1.386 . S
C2935 C2939 1.393 . S
C2936 H2925 0.950 . S
C2936 C2934 1.391 . S
C2936 C2937 1.400 . S
C2937 C2931 1.491 . S
C2937 C2936 1.400 . S
C2937 C2938 1.398 . S
C2938 H2926 0.950 . S
C2938 C2937 1.398 . S
C2938 C2939 1.391 . S
C2939 H2927 0.950 . S
C2939 C2935 1.393 . S
C2939 C2938 1.391 . S
H2940 C2948 0.950 . S
H2941 C2953 0.950 . S
H2942 C2950 0.950 . S
H2943 C2952 0.950 . S
H2944 C2954 0.950 . S
H2945 C2956 0.950 . S
H2946 C2958 0.950 . S
H2947 C2959 0.950 . S
C2948 H2940 0.950 . S
C2948 C2949 1.386 . S
C2948 C2950 1.391 . S
C2949 C2948 1.386 . S
C2949 C2953 1.393 . S
C2950 H2942 0.950 . S
C2950 C2948 1.391 . S
C2950 C2951 1.400 . S
C2951 C2950 1.400 . S
C2951 C2952 1.398 . S
C2951 C2957 1.491 . S
C2952 H2943 0.950 . S
C2952 C2951 1.398 . S
C2952 C2953 1.391 . S
C2953 H2941 0.950 . S
C2953 C2949 1.393 . S
C2953 C2952 1.391 . S
C2954 H2944 0.950 . S
C2954 C2955 1.386 . S
C2954 C2956 1.391 . S
C2955 C2954 1.386 . S
C2955 C2959 1.393 . S
C2956 H2945 0.950 . S
C2956 C2954 1.391 . S
C2956 C2957 1.400 . S
C2957 C2951 1.491 . S
C2957 C2956 1.400 . S
C2957 C2958 1.398 . S
C2958 H2946 0.950 . S
C2958 C2957 1.398 . S
C2958 C2959 1.391 . S
C2959 H2947 0.950 . S
C2959 C2955 1.393 . S
C2959 C2958 1.391 . S
H2960 C2968 0.950 . S
H2961 C2973 0.950 . S
H2962 C2970 0.950 . S
H2963 C2972 0.950 . S
H2964 C2974 0.950 . S
H2965 C2976 0.950 . S
H2966 C2978 0.950 . S
H2967 C2979 0.950 . S
C2968 H2960 0.950 . S
C2968 C2969 1.386 . S
C2968 C2970 1.391 . S
C2969 C2968 1.386 . S
C2969 C2973 1.393 . S
C2970 H2962 0.950 . S
C2970 C2968 1.391 . S
C2970 C2971 1.400 . S
C2971 C2970 1.400 . S
C2971 C2972 1.398 . S
C2971 C2977 1.491 . S
C2972 H2963 0.950 . S
C2972 C2971 1.398 . S
C2972 C2973 1.391 . S
C2973 H2961 0.950 . S
C2973 C2969 1.393 . S
C2973 C2972 1.391 . S
C2974 H2964 0.950 . S
C2974 C2975 1.386 . S
C2974 C2976 1.391 . S
C2975 C2974 1.386 . S
C2975 C2979 1.393 . S
C2976 H2965 0.950 . S
C2976 C2974 1.391 . S
C2976 C2977 1.400 . S
C2977 C2971 1.491 . S
C2977 C2976 1.400 . S
C2977 C2978 1.398 . S
C2978 H2966 0.950 . S
C2978 C2977 1.398 . S
C2978 C2979 1.391 . S
C2979 H2967 0.950 . S
C2979 C2975 1.393 . S
C2979 C2978 1.391 . S
H2980 C2988 0.950 . S
H2981 C2993 0.950 . S
H2982 C2990 0.950 . S
H2983 C2992 0.950 . S
H2984 C2994 0.950 . S
H2985 C2996 0.950 . S
H2986 C2998 0.950 . S
H2987 C2999 0.950 . S
C2988 H2980 0.950 . S
C2988 C2989 1.386 . S
C2988 C2990 1.391 . S
C2989 C2988 1.386 . S
C2989 C2993 1.393 . S
C2990 H2982 0.950 . S
C2990 C2988 1.391 . S
C2990 C2991 1.400 . S
C2991 C2990 1.400 . S
C2991 C2992 1.398 . S
C2991 C2997 1.491 . S
C2992 H2983 0.950 . S
C2992 C2991 1.398 . S
C2992 C2993 1.391 . S
C2993 H2981 0.950 . S
C2993 C2989 1.393 . S
C2993 C2992 1.391 . S
C2994 H2984 0.950 . S
C2994 C2995 1.386 . S
C2994 C2996 1.391 . S
C2995 C2994 1.386 . S
C2995 C2999 1.393 . S
C2996 H2985 0.950 . S
C2996 C2994 1.391 . S
C2996 C2997 1.400 . S
C2997 C2991 1.491 . S
C2997 C2996 1.400 . S
C2997 C2998 1.398 . S
C2998 H2986 0.950 . S
C2998 C2997 1.398 . S
C2998 C2999 1.391 . S
C2999 H2987 0.950 . S
C2999 C2995 1.393 . S
C2999 C2998 1.391 . S
H3000 C3008 0.950 . S
H3001 C3013 0.950 . S
H3002 C3010 0.950 . S
H3003 C3012 0.950 . S
H3004 C3014 0.950 . S
H3005 C3016 0.950 . S
H3006 C3018 0.950 . S
H3007 C3019 0.950 . S
C3008 H3000 0.950 . S
C3008 C3009 1.386 . S
C3008 C3010 1.391 . S
C3009 C3008 1.386 . S
C3009 C3013 1.393 . S
C3010 H3002 0.950 . S
C3010 C3008 1.391 . S
C3010 C3011 1.400 . S
C3011 C3010 1.400 . S
C3011 C3012 1.398 . S
C3011 C3017 1.491 . S
C3012 H3003 0.950 . S
C3012 C3011 1.398 . S
C3012 C3013 1.391 . S
C3013 H3001 0.950 . S
C3013 C3009 1.393 . S
C3013 C3012 1.391 . S
C3014 H3004 0.950 . S
C3014 C3015 1.386 . S
C3014 C3016 1.391 . S
C3015 C3014 1.386 . S
C3015 C3019 1.393 . S
C3016 H3005 0.950 . S
C3016 C3014 1.391 . S
C3016 C3017 1.400 . S
C3017 C3011 1.491 . S
C3017 C3016 1.400 . S
C3017 C3018 1.398 . S
C3018 H3006 0.950 . S
C3018 C3017 1.398 . S
C3018 C3019 1.391 . S
C3019 H3007 0.950 . S
C3019 C3015 1.393 . S
C3019 C3018 1.391 . S
H3020 C3028 0.950 . S
H3021 C3033 0.950 . S
H3022 C3030 0.950 . S
H3023 C3032 0.950 . S
H3024 C3034 0.950 . S
H3025 C3036 0.950 . S
H3026 C3038 0.950 . S
H3027 C3039 0.950 . S
C3028 H3020 0.950 . S
C3028 C3029 1.386 . S
C3028 C3030 1.391 . S
C3029 C3028 1.386 . S
C3029 C3033 1.393 . S
C3030 H3022 0.950 . S
C3030 C3028 1.391 . S
C3030 C3031 1.400 . S
C3031 C3030 1.400 . S
C3031 C3032 1.398 . S
C3031 C3037 1.491 . S
C3032 H3023 0.950 . S
C3032 C3031 1.398 . S
C3032 C3033 1.391 . S
C3033 H3021 0.950 . S
C3033 C3029 1.393 . S
C3033 C3032 1.391 . S
C3034 H3024 0.950 . S
C3034 C3035 1.386 . S
C3034 C3036 1.391 . S
C3035 C3034 1.386 . S
C3035 C3039 1.393 . S
C3036 H3025 0.950 . S
C3036 C3034 1.391 . S
C3036 C3037 1.400 . S
C3037 C3031 1.491 . S
C3037 C3036 1.400 . S
C3037 C3038 1.398 . S
C3038 H3026 0.950 . S
C3038 C3037 1.398 . S
C3038 C3039 1.391 . S
C3039 H3027 0.950 . S
C3039 C3035 1.393 . S
C3039 C3038 1.391 . S
H3040 C3048 0.950 . S
H3041 C3053 0.950 . S
H3042 C3050 0.950 . S
H3043 C3052 0.950 . S
H3044 C3054 0.950 . S
H3045 C3056 0.950 . S
H3046 C3058 0.950 . S
H3047 C3059 0.950 . S
C3048 H3040 0.950 . S
C3048 C3049 1.386 . S
C3048 C3050 1.391 . S
C3049 C3048 1.386 . S
C3049 C3053 1.393 . S
C3050 H3042 0.950 . S
C3050 C3048 1.391 . S
C3050 C3051 1.400 . S
C3051 C3050 1.400 . S
C3051 C3052 1.398 . S
C3051 C3057 1.491 . S
C3052 H3043 0.950 . S
C3052 C3051 1.398 . S
C3052 C3053 1.391 . S
C3053 H3041 0.950 . S
C3053 C3049 1.393 . S
C3053 C3052 1.391 . S
C3054 H3044 0.950 . S
C3054 C3055 1.386 . S
C3054 C3056 1.391 . S
C3055 C3054 1.386 . S
C3055 C3059 1.393 . S
C3056 H3045 0.950 . S
C3056 C3054 1.391 . S
C3056 C3057 1.400 . S
C3057 C3051 1.491 . S
C3057 C3056 1.400 . S
C3057 C3058 1.398 . S
C3058 H3046 0.950 . S
C3058 C3057 1.398 . S
C3058 C3059 1.391 . S
C3059 H3047 0.950 . S
C3059 C3055 1.393 . S
C3059 C3058 1.391 . S
H3060 C3068 0.950 . S
H3061 C3073 0.950 . S
H3062 C3070 0.950 . S
H3063 C3072 0.950 . S
H3064 C3074 0.950 . S
H3065 C3076 0.950 . S
H3066 C3078 0.950 . S
H3067 C3079 0.950 . S
C3068 H3060 0.950 . S
C3068 C3069 1.386 . S
C3068 C3070 1.391 . S
C3069 C3068 1.386 . S
C3069 C3073 1.393 . S
C3070 H3062 0.950 . S
C3070 C3068 1.391 . S
C3070 C3071 1.400 . S
C3071 C3070 1.400 . S
C3071 C3072 1.398 . S
C3071 C3077 1.491 . S
C3072 H3063 0.950 . S
C3072 C3071 1.398 . S
C3072 C3073 1.391 . S
C3073 H3061 0.950 . S
C3073 C3069 1.393 . S
C3073 C3072 1.391 . S
C3074 H3064 0.950 . S
C3074 C3075 1.386 . S
C3074 C3076 1.391 . S
C3075 C3074 1.386 . S
C3075 C3079 1.393 . S
C3076 H3065 0.950 . S
C3076 C3074 1.391 . S
C3076 C3077 1.400 . S
C3077 C3071 1.491 . S
C3077 C3076 1.400 . S
C3077 C3078 1.398 . S
C3078 H3066 0.950 . S
C3078 C3077 1.398 . S
C3078 C3079 1.391 . S
C3079 H3067 0.950 . S
C3079 C3075 1.393 . S
C3079 C3078 1.391 . S
H3080 C3088 0.950 . S
H3081 C3093 0.950 . S
H3082 C3090 0.950 . S
H3083 C3092 0.950 . S
H3084 C3094 0.950 . S
H3085 C3096 0.950 . S
H3086 C3098 0.950 . S
H3087 C3099 0.950 . S
C3088 H3080 0.950 . S
C3088 C3089 1.386 . S
C3088 C3090 1.391 . S
C3089 C3088 1.386 . S
C3089 C3093 1.393 . S
C3090 H3082 0.950 . S
C3090 C3088 1.391 . S
C3090 C3091 1.400 . S
C3091 C3090 1.400 . S
C3091 C3092 1.398 . S
C3091 C3097 1.491 . S
C3092 H3083 0.950 . S
C3092 C3091 1.398 . S
C3092 C3093 1.391 . S
C3093 H3081 0.950 . S
C3093 C3089 1.393 . S
C3093 C3092 1.391 . S
C3094 H3084 0.950 . S
C3094 C3095 1.386 . S
C3094 C3096 1.391 . S
C3095 C3094 1.386 . S
C3095 C3099 1.393 . S
C3096 H3085 0.950 . S
C3096 C3094 1.391 . S
C3096 C3097 1.400 . S
C3097 C3091 1.491 . S
C3097 C3096 1.400 . S
C3097 C3098 1.398 . S
C3098 H3086 0.950 . S
C3098 C3097 1.398 . S
C3098 C3099 1.391 . S
C3099 H3087 0.950 . S
C3099 C3095 1.393 . S
C3099 C3098 1.391 . S
H3100 C3108 0.950 . S
H3101 C3113 0.950 . S
H3102 C3110 0.950 . S
H3103 C3112 0.950 . S
H3104 C3114 0.950 . S
H3105 C3116 0.950 . S
H3106 C3118 0.950 . S
H3107 C3119 0.950 . S
C3108 H3100 0.950 . S
C3108 C3109 1.386 . S
C3108 C3110 1.391 . S
C3109 C3108 1.386 . S
C3109 C3113 1.393 . S
C3110 H3102 0.950 . S
C3110 C3108 1.391 . S
C3110 C3111 1.400 . S
C3111 C3110 1.400 . S
C3111 C3112 1.398 . S
C3111 C3117 1.491 . S
C3112 H3103 0.950 . S
C3112 C3111 1.398 . S
C3112 C3113 1.391 . S
C3113 H3101 0.950 . S
C3113 C3109 1.393 . S
C3113 C3112 1.391 . S
C3114 H3104 0.950 . S
C3114 C3115 1.386 . S
C3114 C3116 1.391 . S
C3115 C3114 1.386 . S
C3115 C3119 1.393 . S
C3116 H3105 0.950 . S
C3116 C3114 1.391 . S
C3116 C3117 1.400 . S
C3117 C3111 1.491 . S
C3117 C3116 1.400 . S
C3117 C3118 1.398 . S
C3118 H3106 0.950 . S
C3118 C3117 1.398 . S
C3118 C3119 1.391 . S
C3119 H3107 0.950 . S
C3119 C3115 1.393 . S
C3119 C3118 1.391 . S
H3120 C3128 0.950 . S
H3121 C3133 0.950 . S
H3122 C3130 0.950 . S
H3123 C3132 0.950 . S
H3124 C3134 0.950 . S
H3125 C3136 0.950 . S
H3126 C3138 0.950 . S
H3127 C3139 0.950 . S
C3128 H3120 0.950 . S
C3128 C3129 1.386 . S
C3128 C3130 1.391 . S
C3129 C3128 1.386 . S
C3129 C3133 1.393 . S
C3130 H3122 0.950 . S
C3130 C3128 1.391 . S
C3130 C3131 1.400 . S
C3131 C3130 1.400 . S
C3131 C3132 1.398 . S
C3131 C3137 1.491 . S
C3132 H3123 0.950 . S
C3132 C3131 1.398 . S
C3132 C3133 1.391 . S
C3133 H3121 0.950 . S
C3133 C3129 1.393 . S
C3133 C3132 1.391 . S
C3134 H3124 0.950 . S
C3134 C3135 1.386 . S
C3134 C3136 1.391 . S
C3135 C3134 1.386 . S
C3135 C3139 1.393 . S
C3136 H3125 0.950 . S
C3136 C3134 1.391 . S
C3136 C3137 1.400 . S
C3137 C3131 1.491 . S
C3137 C3136 1.400 . S
C3137 C3138 1.398 . S
C3138 H3126 0.950 . S
C3138 C3137 1.398 . S
C3138 C3139 1.391 . S
C3139 H3127 0.950 . S
C3139 C3135 1.393 . S
C3139 C3138 1.391 . S
H3140 C3148 0.950 . S
H3141 C3153 0.950 . S
H3142 C3150 0.950 . S
H3143 C3152 0.950 . S
H3144 C3154 0.950 . S
H3145 C3156 0.950 . S
H3146 C3158 0.950 . S
H3147 C3159 0.950 . S
C3148 H3140 0.950 . S
C3148 C3149 1.386 . S
C3148 C3150 1.391 . S
C3149 C3148 1.386 . S
C3149 C3153 1.393 . S
C3150 H3142 0.950 . S
C3150 C3148 1.391 . S
C3150 C3151 1.400 . S
C3151 C3150 1.400 . S
C3151 C3152 1.398 . S
C3151 C3157 1.491 . S
C3152 H3143 0.950 . S
C3152 C3151 1.398 . S
C3152 C3153 1.391 . S
C3153 H3141 0.950 . S
C3153 C3149 1.393 . S
C3153 C3152 1.391 . S
C3154 H3144 0.950 . S
C3154 C3155 1.386 . S
C3154 C3156 1.391 . S
C3155 C3154 1.386 . S
C3155 C3159 1.393 . S
C3156 H3145 0.950 . S
C3156 C3154 1.391 . S
C3156 C3157 1.400 . S
C3157 C3151 1.491 . S
C3157 C3156 1.400 . S
C3157 C3158 1.398 . S
C3158 H3146 0.950 . S
C3158 C3157 1.398 . S
C3158 C3159 1.391 . S
C3159 H3147 0.950 . S
C3159 C3155 1.393 . S
C3159 C3158 1.391 . S
H3160 C3168 0.950 . S
H3161 C3173 0.950 . S
H3162 C3170 0.950 . S
H3163 C3172 0.950 . S
H3164 C3174 0.950 . S
H3165 C3176 0.950 . S
H3166 C3178 0.950 . S
H3167 C3179 0.950 . S
C3168 H3160 0.950 . S
C3168 C3169 1.386 . S
C3168 C3170 1.391 . S
C3169 C3168 1.386 . S
C3169 C3173 1.393 . S
C3170 H3162 0.950 . S
C3170 C3168 1.391 . S
C3170 C3171 1.400 . S
C3171 C3170 1.400 . S
C3171 C3172 1.398 . S
C3171 C3177 1.491 . S
C3172 H3163 0.950 . S
C3172 C3171 1.398 . S
C3172 C3173 1.391 . S
C3173 H3161 0.950 . S
C3173 C3169 1.393 . S
C3173 C3172 1.391 . S
C3174 H3164 0.950 . S
C3174 C3175 1.386 . S
C3174 C3176 1.391 . S
C3175 C3174 1.386 . S
C3175 C3179 1.393 . S
C3176 H3165 0.950 . S
C3176 C3174 1.391 . S
C3176 C3177 1.400 . S
C3177 C3171 1.491 . S
C3177 C3176 1.400 . S
C3177 C3178 1.398 . S
C3178 H3166 0.950 . S
C3178 C3177 1.398 . S
C3178 C3179 1.391 . S
C3179 H3167 0.950 . S
C3179 C3175 1.393 . S
C3179 C3178 1.391 . S
H3180 C3188 0.950 . S
H3181 C3193 0.950 . S
H3182 C3190 0.950 . S
H3183 C3192 0.950 . S
H3184 C3194 0.950 . S
H3185 C3196 0.950 . S
H3186 C3198 0.950 . S
H3187 C3199 0.950 . S
C3188 H3180 0.950 . S
C3188 C3189 1.386 . S
C3188 C3190 1.391 . S
C3189 C3188 1.386 . S
C3189 C3193 1.393 . S
C3190 H3182 0.950 . S
C3190 C3188 1.391 . S
C3190 C3191 1.400 . S
C3191 C3190 1.400 . S
C3191 C3192 1.398 . S
C3191 C3197 1.491 . S
C3192 H3183 0.950 . S
C3192 C3191 1.398 . S
C3192 C3193 1.391 . S
C3193 H3181 0.950 . S
C3193 C3189 1.393 . S
C3193 C3192 1.391 . S
C3194 H3184 0.950 . S
C3194 C3195 1.386 . S
C3194 C3196 1.391 . S
C3195 C3194 1.386 . S
C3195 C3199 1.393 . S
C3196 H3185 0.950 . S
C3196 C3194 1.391 . S
C3196 C3197 1.400 . S
C3197 C3191 1.491 . S
C3197 C3196 1.400 . S
C3197 C3198 1.398 . S
C3198 H3186 0.950 . S
C3198 C3197 1.398 . S
C3198 C3199 1.391 . S
C3199 H3187 0.950 . S
C3199 C3195 1.393 . S
C3199 C3198 1.391 . S
C1289 C6 1.122 . S
C1295 C139 1.089 . S
C1309 C19 1.083 . S
C1315 C46 1.121 . S
C1329 C86 1.121 . S
C1335 C59 1.094 . S
C1349 C99 1.094 . S
C1355 C126 1.121 . S
C1369 C219 1.054 . S
C1375 C166 1.124 . S
C1389 C206 1.121 . S
C1395 C259 1.094 . S
C1409 C299 1.074 . S
C1415 C246 1.122 . S
C1429 C179 1.054 . S
C1435 C286 1.124 . S
C1449 C335 1.123 . S
C1455 C450 1.081 . S
C1469 C375 1.125 . S
C1475 C330 1.058 . S
C1489 C415 1.124 . S
C1495 C370 1.054 . S
C1509 C455 1.121 . S
C1515 C410 1.090 . S
C1529 C495 1.122 . S
C1535 C530 1.093 . S
C1549 C535 1.124 . S
C1555 C570 1.078 . S
C1569 C610 1.063 . S
C1575 C575 1.123 . S
C1589 C490 1.092 . S
C1595 C615 1.122 . S
C1609 C646 1.122 . S
C1615 C779 1.092 . S
C1629 C659 1.093 . S
C1635 C686 1.122 . S
C1649 C699 1.056 . S
C1655 C726 1.124 . S
C1669 C766 1.122 . S
C1675 C739 1.092 . S
C1689 C806 1.121 . S
C1695 C859 1.087 . S
C1709 C899 1.065 . S
C1715 C846 1.123 . S
C1729 C886 1.122 . S
C1735 C939 1.077 . S
C1749 C819 1.083 . S
C1755 C926 1.123 . S
C1769 C1090 1.094 . S
C1775 C975 1.122 . S
C1789 C970 1.065 . S
C1795 C1015 1.124 . S
C1809 C1055 1.121 . S
C1815 C1010 1.092 . S
C1829 C1050 1.094 . S
C1835 C1095 1.121 . S
C1849 C1170 1.062 . S
C1855 C1135 1.123 . S
C1869 C1210 1.055 . S
C1875 C1175 1.124 . S
C1889 C1250 1.094 . S
C1895 C1215 1.121 . S
C1909 C1255 1.124 . S
C1915 C1130 1.068 . S
C1929 C1086 1.620 . S
C1935 C9 1.565 . S
C1949 C49 1.554 . S
C1955 C326 1.620 . S
C1969 C89 1.557 . S
C1975 C1006 1.609 . S
C1989 C129 1.546 . S
C1995 C406 1.616 . S
C2009 C169 1.543 . S
C2015 C1166 1.605 . S
C2029 C566 1.620 . S
C2035 C209 1.558 . S
C2049 C1246 1.606 . S
C2055 C249 1.540 . S
C2069 C289 1.565 . S
C2075 C486 1.614 . S
C2089 C338 1.542 . S
C2095 C775 1.606 . S
C2109 C15 1.606 . S
C2115 C378 1.546 . S
C2129 C695 1.606 . S
C2135 C418 1.540 . S
C2149 C95 1.613 . S
C2155 C458 1.541 . S
C2169 C855 1.617 . S
C2175 C498 1.548 . S
C2189 C255 1.621 . S
C2195 C538 1.561 . S
C2209 C578 1.556 . S
C2215 C935 1.620 . S
C2229 C618 1.542 . S
C2235 C175 1.614 . S
C2249 C649 1.543 . S
C2255 C446 1.605 . S
C2269 C689 1.560 . S
C2275 C966 1.611 . S
C2289 C729 1.565 . S
C2295 C366 1.615 . S
C2309 C769 1.561 . S
C2315 C1046 1.621 . S
C2329 C809 1.545 . S
C2335 C526 1.616 . S
C2349 C849 1.548 . S
C2355 C1206 1.606 . S
C2369 C606 1.620 . S
C2375 C889 1.558 . S
C2389 C929 1.546 . S
C2395 C1126 1.606 . S
C2409 C135 1.610 . S
C2415 C978 1.559 . S
C2429 C655 1.621 . S
C2435 C1018 1.562 . S
C2449 C55 1.608 . S
C2455 C1058 1.554 . S
C2469 C735 1.620 . S
C2475 C1098 1.556 . S
C2489 C215 1.606 . S
C2495 C1138 1.542 . S
C2509 C1178 1.563 . S
C2515 C895 1.620 . S
C2529 C1218 1.559 . S
C2535 C295 1.610 . S
C2549 C815 1.621 . S
C2555 C1258 1.562 . S
C2569 C18 0.746 . S
C2575 C178 0.707 . S
C2589 C58 0.699 . S
C2595 C218 0.739 . S
C2609 C98 0.738 . S
C2615 C258 0.733 . S
C2629 C298 0.709 . S
C2635 C138 0.711 . S
C2649 C489 0.740 . S
C2655 C329 0.730 . S
C2669 C529 0.701 . S
C2675 C369 0.742 . S
C2689 C409 0.700 . S
C2695 C569 0.741 . S
C2709 C449 0.742 . S
C2715 C609 0.701 . S
C2729 C658 0.733 . S
C2735 C818 0.698 . S
C2749 C858 0.727 . S
C2755 C698 0.743 . S
C2769 C898 0.699 . S
C2775 C738 0.728 . S
C2789 C938 0.735 . S
C2795 C778 0.698 . S
C2809 C1129 0.712 . S
C2815 C969 0.708 . S
C2829 C1009 0.700 . S
C2835 C1169 0.724 . S
C2849 C1209 0.728 . S
C2855 C1049 0.699 . S
C2869 C1089 0.747 . S
C2875 C1249 0.712 . S
C2889 C290 2.680 . S
C2895 C10 2.678 . S
C2909 C50 2.677 . S
C2915 C170 2.676 . S
C2929 C90 2.678 . S
C2935 C210 2.680 . S
C2949 C250 2.678 . S
C2955 C130 2.676 . S
C2969 C339 2.677 . S
C2975 C619 2.679 . S
C2989 C499 2.676 . S
C2995 C379 2.676 . S
C3009 C539 2.677 . S
C3015 C419 2.680 . S
C3029 C459 2.678 . S
C3035 C579 2.680 . S
C3049 C650 2.681 . S
C3055 C930 2.679 . S
C3069 C810 2.678 . S
C3075 C690 2.676 . S
C3089 C850 2.681 . S
C3095 C730 2.679 . S
C3109 C890 2.677 . S
C3115 C770 2.676 . S
C3129 C979 2.680 . S
C3135 C1259 2.677 . S
C3149 C1139 2.679 . S
C3155 C1019 2.681 . S
C3169 C1059 2.677 . S
C3175 C1179 2.679 . S
C3189 C1219 2.680 . S
C3195 C1099 2.681 . S
