# Generated by pormake.
# Topology xfb, (7)-cn, num edge types: 1
# Building blocks:
#     Node 0, Type 0, BuildingBlock: HICVOG_clean_sbu_0, # of connection points: 7
#     Node 1, Type 0, BuildingBlock: HICVOG_clean_sbu_0, # of connection points: 7
#     Node 2, Type 0, BuildingBlock: HICVOG_clean_sbu_0, # of connection points: 7
#     Node 3, Type 0, BuildingBlock: HICVOG_clean_sbu_0, # of connection points: 7
#     Node 4, Type 0, BuildingBlock: HICVOG_clean_sbu_0, # of connection points: 7
#     Node 5, Type 0, BuildingBlock: HICVOG_clean_sbu_0, # of connection points: 7
#     Node 6, Type 0, BuildingBlock: HICVOG_clean_sbu_0, # of connection points: 7
#     Node 7, Type 0, BuildingBlock: HICVOG_clean_sbu_0, # of connection points: 7
#     Node 8, Type 0, BuildingBlock: HICVOG_clean_sbu_0, # of connection points: 7
#     Node 9, Type 0, BuildingBlock: HICVOG_clean_sbu_0, # of connection points: 7
#     Node 10, Type 0, BuildingBlock: HICVOG_clean_sbu_0, # of connection points: 7
#     Node 11, Type 0, BuildingBlock: HICVOG_clean_sbu_0, # of connection points: 7
#     Node 12, Type 0, BuildingBlock: HICVOG_clean_sbu_0, # of connection points: 7
#     Node 13, Type 0, BuildingBlock: HICVOG_clean_sbu_0, # of connection points: 7
#     Node 14, Type 0, BuildingBlock: HICVOG_clean_sbu_0, # of connection points: 7
#     Node 15, Type 0, BuildingBlock: HICVOG_clean_sbu_0, # of connection points: 7
#     Edge 16, Type (0, 0), BuildingBlock: XIVTED_clean_linker_0, # of connection points: 2
#     Edge 17, Type (0, 0), BuildingBlock: XIVTED_clean_linker_0, # of connection points: 2
#     Edge 18, Type (0, 0), BuildingBlock: XIVTED_clean_linker_0, # of connection points: 2
#     Edge 19, Type (0, 0), BuildingBlock: XIVTED_clean_linker_0, # of connection points: 2
#     Edge 20, Type (0, 0), BuildingBlock: XIVTED_clean_linker_0, # of connection points: 2
#     Edge 21, Type (0, 0), BuildingBlock: XIVTED_clean_linker_0, # of connection points: 2
#     Edge 22, Type (0, 0), BuildingBlock: XIVTED_clean_linker_0, # of connection points: 2
#     Edge 23, Type (0, 0), BuildingBlock: XIVTED_clean_linker_0, # of connection points: 2
#     Edge 24, Type (0, 0), BuildingBlock: XIVTED_clean_linker_0, # of connection points: 2
#     Edge 25, Type (0, 0), BuildingBlock: XIVTED_clean_linker_0, # of connection points: 2
#     Edge 26, Type (0, 0), BuildingBlock: XIVTED_clean_linker_0, # of connection points: 2
#     Edge 27, Type (0, 0), BuildingBlock: XIVTED_clean_linker_0, # of connection points: 2
#     Edge 28, Type (0, 0), BuildingBlock: XIVTED_clean_linker_0, # of connection points: 2
#     Edge 29, Type (0, 0), BuildingBlock: XIVTED_clean_linker_0, # of connection points: 2
#     Edge 30, Type (0, 0), BuildingBlock: XIVTED_clean_linker_0, # of connection points: 2
#     Edge 31, Type (0, 0), BuildingBlock: XIVTED_clean_linker_0, # of connection points: 2
#     Edge 32, Type (0, 0), BuildingBlock: XIVTED_clean_linker_0, # of connection points: 2
#     Edge 33, Type (0, 0), BuildingBlock: XIVTED_clean_linker_0, # of connection points: 2
#     Edge 34, Type (0, 0), BuildingBlock: XIVTED_clean_linker_0, # of connection points: 2
#     Edge 35, Type (0, 0), BuildingBlock: XIVTED_clean_linker_0, # of connection points: 2
#     Edge 36, Type (0, 0), BuildingBlock: XIVTED_clean_linker_0, # of connection points: 2
#     Edge 37, Type (0, 0), BuildingBlock: XIVTED_clean_linker_0, # of connection points: 2
#     Edge 38, Type (0, 0), BuildingBlock: XIVTED_clean_linker_0, # of connection points: 2
#     Edge 39, Type (0, 0), BuildingBlock: XIVTED_clean_linker_0, # of connection points: 2
#     Edge 40, Type (0, 0), BuildingBlock: XIVTED_clean_linker_0, # of connection points: 2
#     Edge 41, Type (0, 0), BuildingBlock: XIVTED_clean_linker_0, # of connection points: 2
#     Edge 42, Type (0, 0), BuildingBlock: XIVTED_clean_linker_0, # of connection points: 2
#     Edge 43, Type (0, 0), BuildingBlock: XIVTED_clean_linker_0, # of connection points: 2
#     Edge 44, Type (0, 0), BuildingBlock: XIVTED_clean_linker_0, # of connection points: 2
#     Edge 45, Type (0, 0), BuildingBlock: XIVTED_clean_linker_0, # of connection points: 2
#     Edge 46, Type (0, 0), BuildingBlock: XIVTED_clean_linker_0, # of connection points: 2
#     Edge 47, Type (0, 0), BuildingBlock: XIVTED_clean_linker_0, # of connection points: 2
#     Edge 48, Type (0, 0), BuildingBlock: XIVTED_clean_linker_0, # of connection points: 2
#     Edge 49, Type (0, 0), BuildingBlock: XIVTED_clean_linker_0, # of connection points: 2
#     Edge 50, Type (0, 0), BuildingBlock: XIVTED_clean_linker_0, # of connection points: 2
#     Edge 51, Type (0, 0), BuildingBlock: XIVTED_clean_linker_0, # of connection points: 2
#     Edge 52, Type (0, 0), BuildingBlock: XIVTED_clean_linker_0, # of connection points: 2
#     Edge 53, Type (0, 0), BuildingBlock: XIVTED_clean_linker_0, # of connection points: 2
#     Edge 54, Type (0, 0), BuildingBlock: XIVTED_clean_linker_0, # of connection points: 2
#     Edge 55, Type (0, 0), BuildingBlock: XIVTED_clean_linker_0, # of connection points: 2
#     Edge 56, Type (0, 0), BuildingBlock: XIVTED_clean_linker_0, # of connection points: 2
#     Edge 57, Type (0, 0), BuildingBlock: XIVTED_clean_linker_0, # of connection points: 2
#     Edge 58, Type (0, 0), BuildingBlock: XIVTED_clean_linker_0, # of connection points: 2
#     Edge 59, Type (0, 0), BuildingBlock: XIVTED_clean_linker_0, # of connection points: 2
#     Edge 60, Type (0, 0), BuildingBlock: XIVTED_clean_linker_0, # of connection points: 2
#     Edge 61, Type (0, 0), BuildingBlock: XIVTED_clean_linker_0, # of connection points: 2
#     Edge 62, Type (0, 0), BuildingBlock: XIVTED_clean_linker_0, # of connection points: 2
#     Edge 63, Type (0, 0), BuildingBlock: XIVTED_clean_linker_0, # of connection points: 2
#     Edge 64, Type (0, 0), BuildingBlock: XIVTED_clean_linker_0, # of connection points: 2
#     Edge 65, Type (0, 0), BuildingBlock: XIVTED_clean_linker_0, # of connection points: 2
#     Edge 66, Type (0, 0), BuildingBlock: XIVTED_clean_linker_0, # of connection points: 2
#     Edge 67, Type (0, 0), BuildingBlock: XIVTED_clean_linker_0, # of connection points: 2
#     Edge 68, Type (0, 0), BuildingBlock: XIVTED_clean_linker_0, # of connection points: 2
#     Edge 69, Type (0, 0), BuildingBlock: XIVTED_clean_linker_0, # of connection points: 2
#     Edge 70, Type (0, 0), BuildingBlock: XIVTED_clean_linker_0, # of connection points: 2
#     Edge 71, Type (0, 0), BuildingBlock: XIVTED_clean_linker_0, # of connection points: 2
# Relax obj value: 0.142
# Max RMSD: 0.213
# Mean RMSD: 0.213
data_MOF--net-xfb--node1-HICVOG_clean_sbu_0--edge1-XIVTED_clean_linker_0
_symmetry_space_group_name_H-M    P1
_symmetry_Int_Tables_number       1
_symmetry_cell_setting            triclinic
loop_
_symmetry_equiv_pos_as_xyz
'x, y, z'
_cell_length_a     59.30888
_cell_length_b     59.321564
_cell_length_c     20.361185
_cell_angle_alpha  89.966066
_cell_angle_beta   89.983999
_cell_angle_gamma 90.007303
loop_
_atom_site_label
_atom_site_type_symbol
_atom_site_fract_x
_atom_site_fract_y
_atom_site_fract_z
_atom_type_partial_charge
Zn0 Zn 0.14915 0.18071 0.12765 0.0
C1 C 0.18218 0.21028 0.27406 0.0
N2 N 0.16516 0.22528 0.27137 0.0
C3 C 0.15053 0.21563 0.22981 0.0
N4 N 0.15827 0.19579 0.20718 0.0
N5 N 0.17762 0.19186 0.23724 0.0
C6 C 0.22106 0.13932 0.32801 0.0
O7 O 0.20461 0.12522 0.34152 0.0
O8 O 0.11606 0.18556 0.11125 0.0
Zn9 Zn 0.18379 0.16197 0.27157 0.0
N10 N 0.16733 0.1921 0.05491 0.0
C11 C 0.19891 0.21377 0.01982 0.0
C12 C 0.18487 0.20598 0.06966 0.0
C13 C 0.16321 0.18577 0.99166 0.0
N14 N 0.1949 0.20741 0.95697 0.0
C15 C 0.17739 0.19364 0.94083 0.0
O16 O 0.17567 0.13581 0.2111 0.0
C17 C 0.16314 0.13156 0.16178 0.0
O18 O 0.15278 0.14711 0.13115 0.0
H19 H 0.18807 0.21093 0.11978 0.0
H20 H 0.1494 0.17437 0.98169 0.0
C21 C 0.16929 0.16368 0.40999 0.0
C22 C 0.15313 0.16042 0.46027 0.0
C23 C 0.1273 0.14663 0.38041 0.0
C24 C 0.14326 0.14982 0.33139 0.0
N25 N 0.16391 0.15818 0.34682 0.0
N26 N 0.13259 0.15196 0.44321 0.0
H27 H 0.1857 0.17079 0.42014 0.0
C28 C 0.10252 0.18135 0.1581 0.0
O29 O 0.11079 0.1756 0.21557 0.0
O30 O 0.2164 0.15766 0.2985 0.0
H31 H 0.13918 0.14579 0.28105 0.0
H32 H 0.21296 0.22475 0.031 0.0
H33 H 0.11078 0.14002 0.36872 0.0
Zn34 Zn 0.5762 0.39849 0.38343 0.0
C35 C 0.54722 0.43317 0.52732 0.0
N36 N 0.53197 0.41635 0.52634 0.0
C37 C 0.54133 0.40114 0.48597 0.0
N38 N 0.56128 0.40832 0.46254 0.0
N39 N 0.56556 0.4279 0.49089 0.0
C40 C 0.60667 0.47983 0.51342 0.0
O41 O 0.60745 0.474 0.45122 0.0
O42 O 0.57107 0.36541 0.36764 0.0
Zn43 Zn 0.59555 0.43307 0.52611 0.0
N44 N 0.56505 0.41643 0.31 0.0
C45 C 0.54357 0.44786 0.27303 0.0
C46 C 0.55118 0.43407 0.32366 0.0
C47 C 0.57152 0.41194 0.24711 0.0
N48 N 0.55005 0.44347 0.21048 0.0
C49 C 0.56379 0.42582 0.19546 0.0
O50 O 0.62166 0.42454 0.46597 0.0
C51 C 0.62562 0.41189 0.41673 0.0
O52 O 0.60985 0.40175 0.38649 0.0
H53 H 0.54609 0.43753 0.37351 0.0
H54 H 0.5829 0.39803 0.23803 0.0
C55 C 0.5935 0.41855 0.66377 0.0
C56 C 0.59623 0.40237 0.71423 0.0
C57 C 0.6087 0.37585 0.63442 0.0
C58 C 0.60609 0.39187 0.58522 0.0
N59 N 0.59863 0.41286 0.6006 0.0
N60 N 0.60376 0.38146 0.69729 0.0
H61 H 0.58712 0.43526 0.67371 0.0
C62 C 0.5746 0.35157 0.41421 0.0
O63 O 0.57985 0.35941 0.47254 0.0
O64 O 0.60072 0.46522 0.55576 0.0
H65 H 0.60989 0.3876 0.53486 0.0
H66 H 0.53261 0.462 0.28333 0.0
H67 H 0.61459 0.35906 0.62283 0.0
Zn68 Zn 0.3581 0.82503 0.6268 0.0
C69 C 0.3238 0.79825 0.77556 0.0
N70 N 0.3406 0.78298 0.776 0.0
C71 C 0.35555 0.79157 0.73341 0.0
N72 N 0.34822 0.81109 0.70737 0.0
N73 N 0.32886 0.81595 0.73624 0.0
C74 C 0.27757 0.85806 0.75754 0.0
O75 O 0.28309 0.85836 0.69504 0.0
O76 O 0.39142 0.82051 0.61313 0.0
Zn77 Zn 0.3244 0.84634 0.76991 0.0
N78 N 0.34092 0.81267 0.55368 0.0
C79 C 0.31194 0.78826 0.5156 0.0
C80 C 0.32469 0.79712 0.56677 0.0
C81 C 0.3448 0.8199 0.49114 0.0
N82 N 0.31587 0.79532 0.45327 0.0
C83 C 0.33198 0.81094 0.43878 0.0
O84 O 0.3335 0.87191 0.70808 0.0
C85 C 0.34506 0.87486 0.65599 0.0
O86 O 0.35417 0.85849 0.62581 0.0
H87 H 0.32166 0.7916 0.61656 0.0
H88 H 0.35745 0.83272 0.48327 0.0
C89 C 0.3383 0.84488 0.9079 0.0
C90 C 0.35436 0.84727 0.95879 0.0
C91 C 0.3816 0.85849 0.87932 0.0
C92 C 0.36572 0.85609 0.82967 0.0
N93 N 0.34446 0.84935 0.84467 0.0
N94 N 0.37557 0.85406 0.94222 0.0
H95 H 0.32113 0.83984 0.91778 0.0
C96 C 0.4048 0.82427 0.66066 0.0
O97 O 0.39636 0.82925 0.71848 0.0
O98 O 0.29233 0.85224 0.79954 0.0
H99 H 0.37025 0.8596 0.77929 0.0
H100 H 0.29899 0.77585 0.52526 0.0
H101 H 0.39861 0.86383 0.86806 0.0
Zn102 Zn 0.91138 0.57263 1.00638 0.0
C103 C 0.96588 0.60452 0.96938 0.0
N104 N 0.97463 0.58972 0.01215 0.0
C105 C 0.95949 0.57281 0.01223 0.0
N106 N 0.94172 0.57769 0.97304 0.0
N107 N 0.94638 0.59701 0.94366 0.0
C108 C 0.93217 0.65294 0.89625 0.0
O109 O 0.92608 0.64419 0.95282 0.0
O110 O 0.90619 0.54007 0.03276 0.0
Zn111 Zn 0.93244 0.60652 0.86263 0.0
N112 N 0.90782 0.59238 0.08219 0.0
C113 C 0.89576 0.62868 0.11691 0.0
C114 C 0.89894 0.61288 0.0675 0.0
C115 C 0.91385 0.58702 0.14502 0.0
N116 N 0.90162 0.6234 0.17934 0.0
C117 C 0.9106 0.60302 0.19574 0.0
O118 O 0.89899 0.60246 0.86209 0.0
C119 C 0.88269 0.59318 0.89229 0.0
O120 O 0.88576 0.58155 0.94421 0.0
H121 H 0.89446 0.61696 0.01747 0.0
H122 H 0.92131 0.57072 0.15455 0.0
C123 C 0.93825 0.59302 0.72658 0.0
C124 C 0.94677 0.57936 0.67546 0.0
C125 C 0.96801 0.55872 0.75411 0.0
C126 C 0.95956 0.57225 0.80423 0.0
N127 N 0.94484 0.5891 0.78975 0.0
N128 N 0.96141 0.56253 0.69131 0.0
H129 H 0.92614 0.60624 0.71691 0.0
C130 C 0.88806 0.53557 0.06358 0.0
O131 O 0.87435 0.55217 0.07877 0.0
O132 O 0.9369 0.63981 0.84888 0.0
H133 H 0.96464 0.5692 0.85438 0.0
H134 H 0.88874 0.64508 0.10582 0.0
H135 H 0.97968 0.54521 0.76502 0.0
Zn136 Zn 0.82465 0.84453 0.7358 0.0
C137 C 0.85681 0.79022 0.77545 0.0
N138 N 0.84176 0.78098 0.73436 0.0
C139 C 0.82497 0.79625 0.733 0.0
N140 N 0.83011 0.81446 0.77001 0.0
N141 N 0.84959 0.81015 0.79892 0.0
C142 C 0.90596 0.82355 0.84553 0.0
O143 O 0.89758 0.82826 0.78742 0.0
O144 O 0.79242 0.84959 0.70691 0.0
Zn145 Zn 0.85934 0.825 0.87831 0.0
N146 N 0.84454 0.84802 0.66077 0.0
C147 C 0.88118 0.8589 0.62537 0.0
C148 C 0.86559 0.85552 0.67542 0.0
C149 C 0.83843 0.8435 0.59757 0.0
N150 N 0.87513 0.8546 0.56243 0.0
C151 C 0.85419 0.8469 0.54649 0.0
O152 O 0.85589 0.85864 0.87594 0.0
C153 C 0.84575 0.87442 0.84574 0.0
O154 O 0.83319 0.87049 0.79629 0.0
H155 H 0.87018 0.85893 0.72579 0.0
H156 H 0.82148 0.83775 0.58752 0.0
C157 C 0.84608 0.81977 0.01482 0.0
C158 C 0.83238 0.81161 0.06649 0.0
C159 C 0.81071 0.79118 0.98827 0.0
C160 C 0.82415 0.79942 0.93775 0.0
N161 N 0.84158 0.81352 0.95174 0.0
N162 N 0.8151 0.79744 0.05098 0.0
H163 H 0.86026 0.83076 0.02393 0.0
C164 C 0.77788 0.85567 0.74926 0.0
O165 O 0.7838 0.85656 0.8114 0.0
O166 O 0.89253 0.82018 0.89321 0.0
H167 H 0.82071 0.79451 0.88774 0.0
H168 H 0.89797 0.86494 0.63638 0.0
H169 H 0.79682 0.77991 0.97779 0.0
Zn170 Zn 0.41148 0.57445 0.49179 0.0
C171 C 0.46585 0.60631 0.53418 0.0
N172 N 0.47524 0.59132 0.49316 0.0
C173 C 0.45988 0.57462 0.49072 0.0
N174 N 0.44146 0.57978 0.52695 0.0
N175 N 0.44575 0.59914 0.5566 0.0
C176 C 0.43245 0.65537 0.60579 0.0
O177 O 0.42796 0.64741 0.54705 0.0
O178 O 0.40641 0.54229 0.46205 0.0
Zn179 Zn 0.43076 0.60851 0.63622 0.0
N180 N 0.4082 0.59459 0.41718 0.0
C181 C 0.39782 0.63151 0.38318 0.0
C182 C 0.40113 0.6157 0.43267 0.0
C183 C 0.41238 0.58862 0.35364 0.0
N184 N 0.40177 0.6256 0.31992 0.0
C185 C 0.40904 0.60461 0.30312 0.0
O186 O 0.39712 0.60506 0.63306 0.0
C187 C 0.38137 0.59516 0.60205 0.0
O188 O 0.38538 0.58289 0.55204 0.0
H189 H 0.39796 0.62016 0.48328 0.0
H190 H 0.4178 0.5716 0.34288 0.0
C191 C 0.4363 0.59491 0.77255 0.0
C192 C 0.44443 0.58095 0.82365 0.0
C193 C 0.46388 0.55891 0.74418 0.0
C194 C 0.45569 0.57263 0.69423 0.0
N195 N 0.44209 0.59036 0.7091 0.0
N196 N 0.45808 0.56336 0.80723 0.0
H197 H 0.42571 0.60934 0.78239 0.0
C198 C 0.39983 0.52776 0.50385 0.0
O199 O 0.39842 0.53364 0.56593 0.0
O200 O 0.43558 0.6416 0.6528 0.0
H201 H 0.46025 0.56914 0.64398 0.0
H202 H 0.39211 0.64836 0.39486 0.0
H203 H 0.47475 0.54478 0.73299 0.0
Zn204 Zn 0.68438 0.16118 0.26008 0.0
C205 C 0.6514 0.21525 0.29518 0.0
N206 N 0.66615 0.22436 0.25288 0.0
C207 C 0.68326 0.20941 0.25283 0.0
N208 N 0.67861 0.19154 0.29191 0.0
N209 N 0.65915 0.19589 0.32087 0.0
C210 C 0.60329 0.18196 0.3684 0.0
O211 O 0.61212 0.17516 0.31265 0.0
O212 O 0.71717 0.15622 0.23581 0.0
Zn213 Zn 0.64961 0.18223 0.40197 0.0
N214 N 0.66538 0.15716 0.18299 0.0
C215 C 0.62956 0.14467 0.14514 0.0
C216 C 0.64461 0.14862 0.19616 0.0
C217 C 0.67169 0.16226 0.12022 0.0
N218 N 0.63583 0.14949 0.08269 0.0
C219 C 0.65646 0.15827 0.06811 0.0
O220 O 0.65346 0.14875 0.40311 0.0
C221 C 0.66302 0.13252 0.3734 0.0
O222 O 0.67503 0.13569 0.32225 0.0
H223 H 0.6398 0.14483 0.24615 0.0
H224 H 0.68839 0.1689 0.11126 0.0
C225 C 0.66304 0.18812 0.53761 0.0
C226 C 0.67654 0.19673 0.58906 0.0
C227 C 0.69699 0.21832 0.51057 0.0
C228 C 0.6838 0.20957 0.4602 0.0
N229 N 0.66704 0.19472 0.47451 0.0
N230 N 0.6931 0.21172 0.57333 0.0
H231 H 0.64942 0.17645 0.54689 0.0
C232 C 0.72199 0.13778 0.20706 0.0
O233 O 0.70561 0.12364 0.19326 0.0
O234 O 0.61638 0.18722 0.41541 0.0
H235 H 0.68691 0.21463 0.41005 0.0
H236 H 0.61301 0.13779 0.155 0.0
H237 H 0.71033 0.23021 0.4999 0.0
Zn238 Zn 0.07671 0.39823 0.12969 0.0
C239 C 0.04795 0.43214 0.98312 0.0
N240 N 0.03271 0.41533 0.98504 0.0
C241 C 0.04192 0.40051 0.02691 0.0
N242 N 0.06181 0.40791 0.05028 0.0
N243 N 0.06614 0.42727 0.02063 0.0
C244 C 0.10664 0.48008 1.00213 0.0
O245 O 0.10696 0.47409 0.06427 0.0
O246 O 0.07203 0.365 0.14448 0.0
Zn247 Zn 0.09632 0.43311 0.98733 0.0
N248 N 0.06519 0.41596 0.20309 0.0
C249 C 0.04283 0.44681 0.23949 0.0
C250 C 0.0511 0.43338 0.18901 0.0
C251 C 0.07144 0.41146 0.2662 0.0
N252 N 0.04909 0.44242 0.30222 0.0
C253 C 0.06327 0.42516 0.3178 0.0
O254 O 0.12227 0.4247 0.04831 0.0
C255 C 0.12612 0.41211 0.0978 0.0
O256 O 0.11029 0.40189 0.12755 0.0
H257 H 0.04622 0.43684 0.13896 0.0
H258 H 0.08244 0.3973 0.27538 0.0
C259 C 0.09556 0.4195 0.84888 0.0
C260 C 0.09918 0.40383 0.79773 0.0
C261 C 0.11161 0.37698 0.8765 0.0
C262 C 0.10799 0.39246 0.92662 0.0
N263 N 0.1002 0.41341 0.91206 0.0
N264 N 0.10721 0.38301 0.81359 0.0
H265 H 0.08953 0.43636 0.83891 0.0
C266 C 0.07569 0.35159 0.09695 0.0
O267 O 0.08078 0.35999 0.03912 0.0
O268 O 0.10123 0.46551 0.95913 0.0
H269 H 0.11144 0.38787 0.97698 0.0
H270 H 0.03156 0.46069 0.22894 0.0
H271 H 0.11789 0.36027 0.88743 0.0
Zn272 Zn 0.64911 0.68191 0.62533 0.0
C273 C 0.68372 0.70904 0.77273 0.0
N274 N 0.66702 0.72444 0.77268 0.0
C275 C 0.65193 0.71574 0.73074 0.0
N276 N 0.65906 0.69602 0.70557 0.0
N277 N 0.67842 0.69117 0.73442 0.0
C278 C 0.72973 0.64915 0.7568 0.0
O279 O 0.72422 0.6487 0.69431 0.0
O280 O 0.61581 0.68656 0.61186 0.0
Zn281 Zn 0.68288 0.66085 0.7687 0.0
N282 N 0.66647 0.69394 0.55191 0.0
C283 C 0.69716 0.71642 0.51469 0.0
C284 C 0.68376 0.70825 0.56551 0.0
C285 C 0.66201 0.68748 0.48899 0.0
N286 N 0.69279 0.70996 0.45209 0.0
C287 C 0.67552 0.69572 0.43717 0.0
O288 O 0.674 0.63521 0.70696 0.0
C289 C 0.66226 0.63213 0.65532 0.0
O290 O 0.65295 0.64842 0.6252 0.0
H291 H 0.68722 0.71324 0.6155 0.0
H292 H 0.64845 0.67568 0.48005 0.0
C293 C 0.66831 0.66354 0.90611 0.0
C294 C 0.65231 0.66067 0.95703 0.0
C295 C 0.62611 0.64669 0.87844 0.0
C296 C 0.64196 0.64943 0.82883 0.0
N297 N 0.6627 0.65773 0.84337 0.0
N298 N 0.63164 0.65231 0.94088 0.0
H299 H 0.68482 0.67054 0.91537 0.0
C300 C 0.60253 0.68228 0.6593 0.0
O301 O 0.61111 0.67662 0.71644 0.0
O302 O 0.71495 0.65505 0.79866 0.0
H303 H 0.63774 0.64504 0.77883 0.0
H304 H 0.711 0.72777 0.52489 0.0
H305 H 0.6095 0.64014 0.86751 0.0
Zn306 Zn 0.07497 0.8997 0.86388 0.0
C307 C 0.04758 0.93338 0.01302 0.0
N308 N 0.03246 0.91644 0.01264 0.0
C309 C 0.04135 0.90172 0.96994 0.0
N310 N 0.06086 0.90932 0.94452 0.0
N311 N 0.06544 0.92862 0.97404 0.0
C312 C 0.11877 0.97141 0.0633 0.0
O313 O 0.13288 0.95507 0.07774 0.0
O314 O 0.0709 0.86627 0.85173 0.0
Zn315 Zn 0.09575 0.93399 1.00711 0.0
N316 N 0.06243 0.91683 0.79051 0.0
C317 C 0.03907 0.94704 0.75457 0.0
C318 C 0.04761 0.93362 0.80481 0.0
C319 C 0.06907 0.91292 0.72737 0.0
N320 N 0.04572 0.94324 0.69183 0.0
C321 C 0.06049 0.9265 0.67613 0.0
O322 O 0.12142 0.92541 0.94474 0.0
C323 C 0.12456 0.91372 0.893 0.0
O324 O 0.10835 0.90418 0.8632 0.0
H325 H 0.04253 0.9367 0.85494 0.0
H326 H 0.08128 0.89979 0.71782 0.0
C327 C 0.09354 0.91949 0.14574 0.0
C328 C 0.09701 0.9035 0.19642 0.0
C329 C 0.11216 0.87808 0.11748 0.0
C330 C 0.10876 0.89387 0.06812 0.0
N331 N 0.09962 0.91424 0.08287 0.0
N332 N 0.10626 0.88325 0.17994 0.0
H333 H 0.08587 0.93568 0.15534 0.0
C334 C 0.07526 0.85357 0.90045 0.0
O335 O 0.08074 0.86285 0.9568 0.0
O336 O 0.10055 0.96659 0.03342 0.0
H337 H 0.11328 0.88988 0.01806 0.0
H338 H 0.02732 0.96048 0.76536 0.0
H339 H 0.1194 0.86179 0.10632 0.0
Zn340 Zn 0.85848 0.32562 0.12635 0.0
C341 C 0.82515 0.29666 0.27352 0.0
N342 N 0.8422 0.28168 0.2718 0.0
C343 C 0.85686 0.29111 0.22984 0.0
N344 N 0.84911 0.31079 0.20606 0.0
N345 N 0.82969 0.31485 0.23565 0.0
C346 C 0.78623 0.3677 0.3244 0.0
O347 O 0.80274 0.38172 0.33806 0.0
O348 O 0.8916 0.32077 0.11044 0.0
Zn349 Zn 0.82352 0.34488 0.2688 0.0
N350 N 0.84055 0.31407 0.05352 0.0
C351 C 0.80936 0.2921 0.01737 0.0
C352 C 0.82311 0.3 0.0677 0.0
C353 C 0.84485 0.32051 0.99046 0.0
N354 N 0.81356 0.29854 0.95465 0.0
C355 C 0.83099 0.31251 0.93914 0.0
O356 O 0.83189 0.37089 0.20791 0.0
C357 C 0.84454 0.37491 0.15868 0.0
O358 O 0.85488 0.35921 0.12875 0.0
H359 H 0.81979 0.29498 0.11773 0.0
H360 H 0.85857 0.33208 0.98104 0.0
C361 C 0.83752 0.3432 0.40736 0.0
C362 C 0.85341 0.34654 0.45825 0.0
C363 C 0.87952 0.36054 0.37941 0.0
C364 C 0.86381 0.35728 0.32977 0.0
N365 N 0.84314 0.34879 0.34444 0.0
N366 N 0.87398 0.35514 0.442 0.0
H367 H 0.82111 0.33597 0.41682 0.0
C368 C 0.90517 0.3253 0.15691 0.0
O369 O 0.89695 0.3313 0.21421 0.0
O370 O 0.79086 0.34934 0.29502 0.0
H371 H 0.8681 0.36136 0.27959 0.0
H372 H 0.79538 0.28096 0.02805 0.0
H373 H 0.89605 0.36727 0.36836 0.0
Zn374 Zn 0.41178 0.07463 0.53126 0.0
C375 C 0.46611 0.1068 0.4906 0.0
N376 N 0.47544 0.09178 0.53168 0.0
C377 C 0.46013 0.07502 0.53357 0.0
N378 N 0.44182 0.08015 0.49689 0.0
N379 N 0.44611 0.09958 0.46763 0.0
C380 C 0.43292 0.15588 0.41957 0.0
O381 O 0.42821 0.14774 0.47799 0.0
O382 O 0.4068 0.04241 0.56065 0.0
Zn383 Zn 0.43118 0.10916 0.38823 0.0
N384 N 0.40836 0.09456 0.60612 0.0
C385 C 0.39776 0.13127 0.64132 0.0
C386 C 0.40105 0.11566 0.59134 0.0
C387 C 0.41279 0.08841 0.66935 0.0
N388 N 0.40198 0.12519 0.70431 0.0
C389 C 0.4095 0.10421 0.72035 0.0
O390 O 0.39754 0.10582 0.39114 0.0
C391 C 0.38177 0.09571 0.42153 0.0
O392 O 0.38572 0.08315 0.47098 0.0
H393 H 0.39772 0.12027 0.54092 0.0
H394 H 0.41841 0.07142 0.67948 0.0
C395 C 0.43634 0.09575 0.25201 0.0
C396 C 0.44435 0.08192 0.20049 0.0
C397 C 0.46441 0.05999 0.27894 0.0
C398 C 0.45632 0.07356 0.32935 0.0
N399 N 0.44248 0.09117 0.31515 0.0
N400 N 0.45825 0.06445 0.21617 0.0
H401 H 0.42557 0.11008 0.24275 0.0
C402 C 0.40042 0.02781 0.51888 0.0
O403 O 0.39908 0.03363 0.45672 0.0
O404 O 0.43613 0.14226 0.3723 0.0
H405 H 0.46114 0.07006 0.37941 0.0
H406 H 0.39187 0.14811 0.63023 0.0
H407 H 0.47547 0.04596 0.28958 0.0
Zn408 Zn 0.32359 0.34596 0.25545 0.0
C409 C 0.35572 0.29154 0.29271 0.0
N410 N 0.3408 0.28261 0.25065 0.0
C411 C 0.32389 0.29777 0.25051 0.0
N412 N 0.32886 0.31567 0.28901 0.0
N413 N 0.34828 0.31113 0.31797 0.0
C414 C 0.40446 0.32484 0.36535 0.0
O415 O 0.39595 0.33014 0.30783 0.0
O416 O 0.29102 0.35109 0.22917 0.0
Zn417 Zn 0.35777 0.32511 0.3988 0.0
N418 N 0.34326 0.34936 0.17958 0.0
C419 C 0.3803 0.35919 0.14542 0.0
C420 C 0.36444 0.35628 0.19488 0.0
C421 C 0.33719 0.34515 0.11609 0.0
N422 N 0.37435 0.35509 0.08232 0.0
C423 C 0.35324 0.34811 0.06534 0.0
O424 O 0.35357 0.35851 0.39922 0.0
C425 C 0.34427 0.37476 0.36887 0.0
O426 O 0.33265 0.37163 0.317 0.0
H427 H 0.36893 0.35952 0.24542 0.0
H428 H 0.3201 0.33992 0.10583 0.0
C429 C 0.34377 0.31992 0.53437 0.0
C430 C 0.33073 0.31079 0.58612 0.0
C431 C 0.31161 0.28773 0.5084 0.0
C432 C 0.32454 0.29677 0.45787 0.0
N433 N 0.34043 0.31259 0.47166 0.0
N434 N 0.31499 0.2949 0.57084 0.0
H435 H 0.35616 0.33294 0.54285 0.0
C436 C 0.28651 0.36949 0.19975 0.0
O437 O 0.30308 0.38346 0.18626 0.0
O438 O 0.39112 0.32079 0.41282 0.0
H439 H 0.32192 0.29117 0.40799 0.0
H440 H 0.39723 0.36468 0.15697 0.0
H441 H 0.29893 0.2751 0.49813 0.0
Zn442 Zn 0.91179 0.07286 0.99173 0.0
C443 C 0.96581 0.10633 0.03128 0.0
N444 N 0.9752 0.09166 0.98927 0.0
C445 C 0.96008 0.07475 0.98696 0.0
N446 N 0.94184 0.07941 0.02444 0.0
N447 N 0.94595 0.09874 0.05444 0.0
C448 C 0.93157 0.15457 0.1018 0.0
O449 O 0.92636 0.14605 0.04423 0.0
O450 O 0.9075 0.04006 0.96659 0.0
Zn451 Zn 0.93104 0.108 0.13438 0.0
N452 N 0.90749 0.09218 0.91544 0.0
C453 C 0.89522 0.12836 0.88 0.0
C454 C 0.89939 0.113 0.93008 0.0
C455 C 0.91195 0.08613 0.85208 0.0
N456 N 0.89939 0.12235 0.81697 0.0
C457 C 0.90773 0.10168 0.80092 0.0
O458 O 0.89747 0.10409 0.13225 0.0
C459 C 0.8818 0.09372 0.10226 0.0
O460 O 0.88585 0.0812 0.05282 0.0
H461 H 0.89613 0.1176 0.98053 0.0
H462 H 0.91826 0.06938 0.84193 0.0
C463 C 0.93673 0.0943 0.27084 0.0
C464 C 0.94527 0.08051 0.32181 0.0
C465 C 0.9658 0.05951 0.24224 0.0
C466 C 0.95719 0.07302 0.19242 0.0
N467 N 0.94288 0.09017 0.2074 0.0
N468 N 0.95967 0.06353 0.30526 0.0
H469 H 0.92553 0.10824 0.28083 0.0
C470 C 0.88889 0.03525 0.93876 0.0
O471 O 0.87459 0.05161 0.92615 0.0
O472 O 0.93546 0.14124 0.14942 0.0
H473 H 0.96199 0.06984 0.14216 0.0
H474 H 0.88869 0.14496 0.89105 0.0
H475 H 0.97725 0.04585 0.23095 0.0
Zn476 Zn 0.18349 0.66181 0.75276 0.0
C477 C 0.15122 0.71599 0.78928 0.0
N478 N 0.16597 0.72487 0.74658 0.0
C479 C 0.183 0.70985 0.74668 0.0
N480 N 0.17825 0.69208 0.78595 0.0
N481 N 0.15887 0.69658 0.81518 0.0
C482 C 0.10317 0.68225 0.861 0.0
O483 O 0.11235 0.67622 0.805 0.0
O484 O 0.21609 0.65673 0.72674 0.0
Zn485 Zn 0.14929 0.68263 0.89612 0.0
N486 N 0.16378 0.65812 0.67685 0.0
C487 C 0.12756 0.64582 0.6421 0.0
C488 C 0.14335 0.64909 0.69151 0.0
C489 C 0.16911 0.66421 0.61402 0.0
N490 N 0.13279 0.65173 0.57968 0.0
C491 C 0.15311 0.66087 0.5633 0.0
O492 O 0.15333 0.64913 0.89664 0.0
C493 C 0.1628 0.63296 0.86642 0.0
O494 O 0.17458 0.63622 0.81489 0.0
H495 H 0.13929 0.64455 0.74151 0.0
H496 H 0.18535 0.67179 0.60447 0.0
C497 C 0.16275 0.68847 0.03233 0.0
C498 C 0.17643 0.69699 0.0834 0.0
C499 C 0.19704 0.71823 1.00465 0.0
C500 C 0.1835 0.70977 0.95459 0.0
N501 N 0.16664 0.69506 0.96913 0.0
N502 N 0.19325 0.71163 0.06747 0.0
H503 H 0.14953 0.67635 0.04208 0.0
C504 C 0.22064 0.63855 0.69634 0.0
O505 O 0.20407 0.62477 0.68136 0.0
O506 O 0.11596 0.68711 0.90907 0.0
H507 H 0.18655 0.71484 0.90442 0.0
H508 H 0.11121 0.63867 0.65319 0.0
H509 H 0.21055 0.72989 0.99367 0.0
Zn510 Zn 0.57526 0.89953 0.64756 0.0
C511 C 0.5481 0.93404 0.50007 0.0
N512 N 0.5327 0.91734 0.50024 0.0
C513 C 0.54144 0.90225 0.54214 0.0
N514 N 0.56118 0.90938 0.56717 0.0
N515 N 0.56602 0.92873 0.53822 0.0
C516 C 0.60783 0.98004 0.51637 0.0
O517 O 0.60808 0.97444 0.57881 0.0
O518 O 0.57071 0.86623 0.66135 0.0
Zn519 Zn 0.59635 0.93319 0.50388 0.0
N520 N 0.5632 0.91695 0.72073 0.0
C521 C 0.54082 0.94773 0.75764 0.0
C522 C 0.54898 0.93429 0.70693 0.0
C523 C 0.56959 0.91247 0.78371 0.0
N524 N 0.54722 0.94335 0.82031 0.0
C525 C 0.56136 0.92602 0.83541 0.0
O526 O 0.622 0.92424 0.56553 0.0
C527 C 0.62504 0.91259 0.61741 0.0
O528 O 0.60872 0.9034 0.64769 0.0
H529 H 0.54406 0.93777 0.65689 0.0
H530 H 0.58133 0.89887 0.79279 0.0
C531 C 0.59359 0.91868 0.36645 0.0
C532 C 0.5964 0.90269 0.31555 0.0
C533 C 0.61037 0.87645 0.39411 0.0
C534 C 0.60768 0.89229 0.44371 0.0
N535 N 0.59942 0.91305 0.42917 0.0
N536 N 0.60473 0.882 0.33168 0.0
H537 H 0.58662 0.93521 0.35719 0.0
C538 C 0.57488 0.85301 0.61377 0.0
O539 O 0.5803 0.86164 0.55649 0.0
O540 O 0.60218 0.96529 0.47416 0.0
H541 H 0.61208 0.88806 0.49371 0.0
H542 H 0.52955 0.96162 0.74729 0.0
H543 H 0.61688 0.85984 0.40504 0.0
H544 H 0.20952 0.19054 0.84535 0.0
H545 H 0.12162 0.16765 0.55545 0.0
H546 H 0.13779 0.18333 0.87507 0.0
H547 H 0.19386 0.16531 0.52794 0.0
H548 H 0.12745 0.1748 0.67163 0.0
H549 H 0.20422 0.18262 0.72869 0.0
C550 C 0.19264 0.18718 0.82752 0.0
C551 C 0.17411 0.18745 0.87062 0.0
C552 C 0.14204 0.17278 0.6402 0.0
C553 C 0.16793 0.17851 0.73642 0.0
C554 C 0.13877 0.16868 0.57348 0.0
C555 C 0.15724 0.16594 0.53083 0.0
C556 C 0.164 0.17425 0.66529 0.0
C557 C 0.17901 0.16765 0.55791 0.0
C558 C 0.18966 0.18262 0.7608 0.0
C559 C 0.15267 0.18292 0.84439 0.0
N560 N 0.18175 0.17169 0.62332 0.0
N561 N 0.15019 0.17875 0.77906 0.0
H562 H 0.59251 0.44352 0.78039 0.0
H563 H 0.57405 0.38575 0.13225 0.0
H564 H 0.58891 0.37148 0.81123 0.0
H565 H 0.56721 0.45729 0.09823 0.0
H566 H 0.58231 0.38054 0.01579 0.0
H567 H 0.58523 0.44915 0.89711 0.0
C568 C 0.58993 0.42884 0.81097 0.0
C569 C 0.59114 0.40692 0.78487 0.0
C570 C 0.5791 0.3974 0.03388 0.0
C571 C 0.58332 0.41339 0.91975 0.0
C572 C 0.5746 0.40043 0.10071 0.0
C573 C 0.57009 0.42205 0.12555 0.0
C574 C 0.57917 0.4161 0.99137 0.0
C575 C 0.5705 0.44029 0.0814 0.0
C576 C 0.58595 0.43212 0.87809 0.0
C577 C 0.58823 0.38871 0.82849 0.0
N578 N 0.57497 0.43692 0.01665 0.0
N579 N 0.5845 0.39236 0.89344 0.0
H580 H 0.36864 0.83245 0.37928 0.0
H581 H 0.31921 0.82244 0.01538 0.0
H582 H 0.30286 0.80465 0.33625 0.0
H583 H 0.37837 0.86146 0.06533 0.0
H584 H 0.31327 0.81495 0.13183 0.0
H585 H 0.37281 0.84227 0.26408 0.0
C586 C 0.35487 0.82863 0.34638 0.0
C587 C 0.33517 0.81784 0.36873 0.0
C588 C 0.32746 0.82528 0.11714 0.0
C589 C 0.34027 0.82869 0.23505 0.0
C590 C 0.33083 0.82975 0.05031 0.0
C591 C 0.3493 0.84284 0.02957 0.0
C592 C 0.34274 0.83373 0.1638 0.0
C593 C 0.36394 0.85121 0.07826 0.0
C594 C 0.35739 0.83415 0.28001 0.0
C595 C 0.31839 0.81288 0.32193 0.0
N596 N 0.3604 0.84646 0.14271 0.0
N597 N 0.32134 0.81827 0.25758 0.0
H598 H 0.94536 0.54735 0.57922 0.0
H599 H 0.91674 0.63454 0.29155 0.0
H600 H 0.9341 0.61846 0.61039 0.0
H601 H 0.9178 0.56235 0.26259 0.0
H602 H 0.92467 0.62878 0.40727 0.0
H603 H 0.9368 0.55245 0.46278 0.0
C604 C 0.94099 0.56404 0.56178 0.0
C605 C 0.9403 0.58245 0.60527 0.0
C606 C 0.92323 0.61418 0.37563 0.0
C607 C 0.93062 0.58841 0.47126 0.0
C608 C 0.91868 0.61741 0.30912 0.0
C609 C 0.91663 0.59895 0.26611 0.0
C610 C 0.92587 0.59227 0.40026 0.0
C611 C 0.91953 0.57723 0.29276 0.0
C612 C 0.93606 0.56691 0.49517 0.0
C613 C 0.93448 0.60364 0.57947 0.0
N614 N 0.924 0.57453 0.358 0.0
N615 N 0.92997 0.60603 0.51427 0.0
H616 H 0.85596 0.8479 0.12083 0.0
H617 H 0.8247 0.81573 0.49229 0.0
H618 H 0.81626 0.78958 0.17457 0.0
H619 H 0.87243 0.86767 0.43963 0.0
H620 H 0.81893 0.80787 0.37563 0.0
H621 H 0.8603 0.85681 0.23681 0.0
C622 C 0.84836 0.83673 0.15649 0.0
C623 C 0.83595 0.81766 0.13697 0.0
C624 C 0.83058 0.82107 0.38967 0.0
C625 C 0.84045 0.82831 0.27087 0.0
C626 C 0.83372 0.82573 0.45642 0.0
C627 C 0.849 0.84252 0.47613 0.0
C628 C 0.84273 0.83329 0.34217 0.0
C629 C 0.86057 0.85451 0.42694 0.0
C630 C 0.85071 0.84201 0.22309 0.0
C631 C 0.82599 0.80444 0.18663 0.0
N632 N 0.8572 0.84967 0.36246 0.0
N633 N 0.82846 0.80999 0.25097 0.0
H634 H 0.46681 0.56424 0.93029 0.0
H635 H 0.38794 0.6234 0.1977 0.0
H636 H 0.40902 0.60524 0.88036 0.0
H637 H 0.43963 0.57498 0.24669 0.0
H638 H 0.39597 0.61757 0.08149 0.0
H639 H 0.45763 0.56871 0.046 0.0
C640 C 0.45221 0.57426 0.94327 0.0
C641 C 0.43889 0.58454 0.89451 0.0
C642 C 0.40545 0.60809 0.11757 0.0
C643 C 0.42828 0.58972 0.02825 0.0
C644 C 0.40091 0.61142 0.18411 0.0
C645 C 0.41301 0.59958 0.23244 0.0
C646 C 0.42242 0.59295 0.09872 0.0
C647 C 0.42957 0.58424 0.21152 0.0
C648 C 0.447 0.57677 0.0097 0.0
C649 C 0.42021 0.59733 0.9153 0.0
N650 N 0.43386 0.58147 0.14629 0.0
N651 N 0.41553 0.59956 0.98046 0.0
H652 H 0.68459 0.19111 0.01553 0.0
H653 H 0.65512 0.159 0.64267 0.0
H654 H 0.63996 0.13683 0.96018 0.0
H655 H 0.69187 0.21904 0.69774 0.0
H656 H 0.65149 0.14934 0.75831 0.0
H657 H 0.69016 0.1998 0.89906 0.0
C658 C 0.67623 0.18078 0.97913 0.0
C659 C 0.66183 0.16311 0.99803 0.0
C660 C 0.66028 0.16468 0.74502 0.0
C661 C 0.66788 0.17324 0.86437 0.0
C662 C 0.6622 0.17039 0.67858 0.0
C663 C 0.67354 0.19018 0.6595 0.0
C664 C 0.66989 0.17867 0.79317 0.0
C665 C 0.68293 0.20365 0.70948 0.0
C666 C 0.67925 0.1859 0.91251 0.0
C667 C 0.65111 0.15068 0.94818 0.0
N668 N 0.68089 0.19767 0.77371 0.0
N669 N 0.65434 0.15598 0.88393 0.0
H670 H 0.09975 0.40187 0.37209 0.0
H671 H 0.06755 0.43289 0.74364 0.0
H672 H 0.04114 0.4411 0.4259 0.0
H673 H 0.12012 0.38591 0.69077 0.0
H674 H 0.05949 0.43851 0.627 0.0
H675 H 0.10878 0.39765 0.48805 0.0
C676 C 0.08854 0.40938 0.40777 0.0
C677 C 0.06936 0.42163 0.38828 0.0
C678 C 0.07287 0.42706 0.641 0.0
C679 C 0.08014 0.41727 0.52216 0.0
C680 C 0.07765 0.42401 0.70774 0.0
C681 C 0.09468 0.40898 0.72739 0.0
C682 C 0.08522 0.41508 0.59345 0.0
C683 C 0.10678 0.39758 0.67815 0.0
C684 C 0.09389 0.4071 0.47436 0.0
C685 C 0.05608 0.43149 0.43795 0.0
N686 N 0.10183 0.40086 0.61369 0.0
N687 N 0.06171 0.42909 0.50228 0.0
H688 H 0.69344 0.66664 0.02221 0.0
H689 H 0.63571 0.68392 0.37461 0.0
H690 H 0.62137 0.66721 0.05438 0.0
H691 H 0.70685 0.69364 0.33913 0.0
H692 H 0.63059 0.67523 0.25842 0.0
H693 H 0.69901 0.67477 0.13847 0.0
C694 C 0.67873 0.66872 0.05296 0.0
C695 C 0.65681 0.66639 0.02734 0.0
C696 C 0.64735 0.67918 0.27612 0.0
C697 C 0.66326 0.67521 0.16178 0.0
C698 C 0.65034 0.68393 0.34282 0.0
C699 C 0.67182 0.68935 0.36723 0.0
C700 C 0.66594 0.67976 0.23326 0.0
C701 C 0.68996 0.68963 0.32269 0.0
C702 C 0.68198 0.6732 0.11983 0.0
C703 C 0.6386 0.66875 0.07123 0.0
N704 N 0.68663 0.68488 0.25808 0.0
N705 N 0.64223 0.67297 0.13593 0.0
H706 H 0.06169 0.95856 0.57993 0.0
H707 H 0.09125 0.87184 0.29215 0.0
H708 H 0.07356 0.88754 0.61112 0.0
H709 H 0.08935 0.94403 0.26338 0.0
H710 H 0.08326 0.87743 0.40792 0.0
H711 H 0.07034 0.95359 0.46354 0.0
C712 C 0.06621 0.94191 0.56251 0.0
C713 C 0.06704 0.92349 0.60598 0.0
C714 C 0.08453 0.89206 0.37631 0.0
C715 C 0.07684 0.91768 0.472 0.0
C716 C 0.08912 0.88892 0.30978 0.0
C717 C 0.09094 0.90744 0.26681 0.0
C718 C 0.08163 0.91391 0.40099 0.0
C719 C 0.08779 0.92911 0.29351 0.0
C720 C 0.07119 0.93913 0.49592 0.0
C721 C 0.07307 0.90236 0.58019 0.0
N722 N 0.0833 0.93171 0.35877 0.0
N723 N 0.07762 0.90005 0.51499 0.0
H724 H 0.87077 0.32358 0.87534 0.0
H725 H 0.81235 0.34107 0.52396 0.0
H726 H 0.79935 0.3151 0.84212 0.0
H727 H 0.88446 0.33979 0.55498 0.0
H728 H 0.80691 0.33322 0.6406 0.0
H729 H 0.87565 0.33203 0.75892 0.0
C730 C 0.85604 0.3238 0.84399 0.0
C731 C 0.83455 0.3188 0.86909 0.0
C732 C 0.82391 0.33457 0.62161 0.0
C733 C 0.84015 0.32809 0.73485 0.0
C734 C 0.82708 0.33888 0.55459 0.0
C735 C 0.84898 0.34094 0.52862 0.0
C736 C 0.8427 0.33245 0.66326 0.0
C737 C 0.86725 0.33847 0.57218 0.0
C738 C 0.85889 0.32842 0.77716 0.0
C739 C 0.81625 0.31879 0.82512 0.0
N740 N 0.8637 0.33441 0.637 0.0
N741 N 0.81945 0.32338 0.76033 0.0
H742 H 0.44042 0.07446 0.77469 0.0
H743 H 0.40832 0.10584 0.14595 0.0
H744 H 0.38886 0.12261 0.82711 0.0
H745 H 0.4663 0.06563 0.09256 0.0
H746 H 0.39952 0.11032 0.02993 0.0
H747 H 0.44818 0.06859 0.89138 0.0
C748 C 0.43048 0.08356 0.81051 0.0
C749 C 0.41382 0.09897 0.79072 0.0
C750 C 0.41423 0.10059 0.04373 0.0
C751 C 0.42294 0.09259 0.92471 0.0
C752 C 0.41944 0.09816 0.11036 0.0
C753 C 0.43838 0.08556 0.12997 0.0
C754 C 0.42786 0.09023 0.99603 0.0
C755 C 0.45154 0.07551 0.08041 0.0
C756 C 0.43508 0.08036 0.87727 0.0
C757 C 0.40192 0.11063 0.83985 0.0
N758 N 0.44605 0.07806 0.01603 0.0
N759 N 0.40669 0.1072 0.90435 0.0
H760 H 0.37696 0.36378 0.95998 0.0
H761 H 0.30105 0.30377 0.68699 0.0
H762 H 0.31878 0.32289 1.00679 0.0
H763 H 0.36634 0.33332 0.64779 0.0
H764 H 0.30532 0.31359 0.80247 0.0
H765 H 0.37108 0.35583 0.84423 0.0
C766 C 0.36286 0.35318 0.94629 0.0
C767 C 0.34836 0.34409 0.99425 0.0
C768 C 0.31864 0.31801 0.76843 0.0
C769 C 0.34152 0.33495 0.86021 0.0
C770 C 0.31627 0.3124 0.70217 0.0
C771 C 0.33325 0.31778 0.65636 0.0
C772 C 0.33812 0.3292 0.78972 0.0
C773 C 0.35249 0.32908 0.67993 0.0
C774 C 0.35954 0.34867 0.87979 0.0
C775 C 0.3303 0.33064 0.97242 0.0
N776 N 0.35435 0.33437 0.74475 0.0
N777 N 0.32744 0.32647 0.90711 0.0
H778 H 0.96809 0.06448 0.42861 0.0
H779 H 0.88555 0.11892 0.69521 0.0
H780 H 0.90864 0.10295 0.37827 0.0
H781 H 0.93988 0.07359 0.74499 0.0
H782 H 0.89406 0.11355 0.57916 0.0
H783 H 0.95835 0.0681 0.54421 0.0
C784 C 0.953 0.07377 0.44148 0.0
C785 C 0.93938 0.08361 0.39264 0.0
C786 C 0.90403 0.10463 0.61535 0.0
C787 C 0.92812 0.08779 0.52628 0.0
C788 C 0.8992 0.1077 0.68182 0.0
C789 C 0.91193 0.09663 0.73035 0.0
C790 C 0.9219 0.09055 0.59671 0.0
C791 C 0.92935 0.08224 0.70966 0.0
C792 C 0.94747 0.07579 0.50786 0.0
C793 C 0.92007 0.09544 0.4133 0.0
N794 N 0.9339 0.07973 0.64446 0.0
N795 N 0.91508 0.0972 0.4784 0.0
H796 H 0.20852 0.69558 0.17945 0.0
H797 H 0.12152 0.66706 0.46772 0.0
H798 H 0.13737 0.68433 0.14871 0.0
H799 H 0.19374 0.66812 0.49631 0.0
H800 H 0.1272 0.67499 0.35194 0.0
H801 H 0.2035 0.68706 0.29596 0.0
C802 C 0.19183 0.69122 0.197 0.0
C803 C 0.17339 0.69052 0.15362 0.0
C804 C 0.14182 0.67354 0.3835 0.0
C805 C 0.16752 0.68089 0.2877 0.0
C806 C 0.13863 0.66899 0.45004 0.0
C807 C 0.15713 0.66695 0.49295 0.0
C808 C 0.16371 0.67618 0.35875 0.0
C809 C 0.17884 0.66985 0.4662 0.0
C810 C 0.18902 0.68632 0.26365 0.0
C811 C 0.15221 0.68471 0.17955 0.0
N812 N 0.18149 0.67431 0.40093 0.0
N813 N 0.14987 0.68023 0.2448 0.0
H814 H 0.59059 0.94384 0.2503 0.0
H815 H 0.57292 0.88617 0.89814 0.0
H816 H 0.58963 0.87178 0.21835 0.0
H817 H 0.56355 0.95734 0.93335 0.0
H818 H 0.58158 0.88102 0.01436 0.0
H819 H 0.58242 0.94943 0.13405 0.0
C820 C 0.58842 0.92914 0.2196 0.0
C821 C 0.59065 0.90721 0.24526 0.0
C822 C 0.57771 0.89779 0.99659 0.0
C823 C 0.58178 0.91369 0.11085 0.0
C824 C 0.57297 0.90079 0.92988 0.0
C825 C 0.56768 0.9223 0.90539 0.0
C826 C 0.57723 0.91639 0.03938 0.0
C827 C 0.56747 0.94044 0.94986 0.0
C828 C 0.58391 0.93241 0.15273 0.0
C829 C 0.58817 0.88901 0.20145 0.0
N830 N 0.57221 0.93709 0.01449 0.0
N831 N 0.58393 0.89266 0.13676 0.0
H832 H 0.2212 0.19715 0.21246 0.0
H833 H 0.28542 0.31063 0.31558 0.0
H834 H 0.19526 0.2445 0.35436 0.0
H835 H 0.30996 0.26432 0.16877 0.0
H836 H 0.25162 0.28742 0.32789 0.0
H837 H 0.25494 0.22045 0.20075 0.0
C838 C 0.22293 0.21201 0.24294 0.0
C839 C 0.20531 0.21893 0.28433 0.0
C840 C 0.26424 0.2825 0.29226 0.0
C841 C 0.2435 0.2462 0.26911 0.0
C842 C 0.28337 0.29603 0.28423 0.0
C843 C 0.30062 0.28935 0.24123 0.0
C844 C 0.2624 0.26217 0.2571 0.0
C845 C 0.29711 0.27004 0.20267 0.0
C846 C 0.24202 0.22559 0.2352 0.0
C847 C 0.20841 0.23858 0.32175 0.0
N848 N 0.27858 0.25696 0.21217 0.0
N849 N 0.22695 0.25168 0.31261 0.0
H850 H 0.44699 0.53671 0.55814 0.0
H851 H 0.55968 0.47073 0.45749 0.0
H852 H 0.49336 0.56012 0.40983 0.0
H853 H 0.51379 0.44797 0.60792 0.0
H854 H 0.53646 0.50433 0.4422 0.0
H855 H 0.47012 0.50301 0.57264 0.0
C856 C 0.46154 0.53438 0.52675 0.0
C857 C 0.46823 0.55129 0.48259 0.0
C858 C 0.53164 0.49217 0.47933 0.0
C859 C 0.49541 0.51321 0.50116 0.0
C860 C 0.54522 0.47319 0.48914 0.0
C861 C 0.53871 0.4565 0.53424 0.0
C862 C 0.5114 0.49444 0.51475 0.0
C863 C 0.51943 0.46042 0.57264 0.0
C864 C 0.47506 0.51533 0.53612 0.0
C865 C 0.48759 0.5475 0.44442 0.0
N866 N 0.5063 0.47881 0.56144 0.0
N867 N 0.50066 0.52904 0.45519 0.0
H868 H 0.19686 0.7417 0.65953 0.0
H869 H 0.30921 0.76719 0.864 0.0
H870 H 0.22112 0.69937 0.81661 0.0
H871 H 0.28623 0.80843 0.7029 0.0
H872 H 0.27587 0.74339 0.85133 0.0
H873 H 0.23013 0.76561 0.67196 0.0
C874 C 0.20958 0.73701 0.69519 0.0
C875 C 0.20615 0.71854 0.73717 0.0
C876 C 0.2779 0.75785 0.81938 0.0
C877 C 0.24386 0.74637 0.75354 0.0
C878 C 0.29673 0.77169 0.82741 0.0
C879 C 0.30053 0.78983 0.78449 0.0
C880 C 0.26275 0.76212 0.76787 0.0
C881 C 0.28393 0.79476 0.7375 0.0
C882 C 0.22838 0.75091 0.70307 0.0
C883 C 0.22308 0.71335 0.7829 0.0
N884 N 0.26593 0.78078 0.72981 0.0
N885 N 0.24103 0.72741 0.79056 0.0
H886 H 0.01642 0.44623 0.8955 0.0
H887 H 0.99116 0.55873 0.09948 0.0
H888 H 0.05837 0.47002 0.05388 0.0
H889 H 0.94895 0.53482 0.94178 0.0
H890 H 0.01505 0.52547 0.08668 0.0
H891 H 0.99253 0.47953 0.90812 0.0
C892 C 0.02106 0.45889 0.9314 0.0
C893 C 0.03946 0.45534 0.97355 0.0
C894 C 1.00037 0.52729 0.0555 0.0
C895 C 0.01163 0.49304 0.99025 0.0
C896 C 0.98649 0.54608 0.06361 0.0
C897 C 0.96806 0.54962 0.02157 0.0
C898 C 0.99587 0.51191 1.00477 0.0
C899 C 0.96289 0.53277 0.97555 0.0
C900 C 0.00717 0.47769 0.93943 0.0
C901 C 0.04454 0.47214 0.01978 0.0
N902 N 0.97694 0.51482 0.9677 0.0
N903 N 0.0305 0.49009 0.02755 0.0
H904 H 0.81031 0.7642 0.64782 0.0
H905 H 0.69881 0.74068 0.85859 0.0
H906 H 0.78743 0.80731 0.80469 0.0
H907 H 0.72099 0.69811 0.69962 0.0
H908 H 0.73223 0.7642 0.84321 0.0
H909 H 0.77691 0.74062 0.66302 0.0
C910 C 0.79784 0.76915 0.68396 0.0
C911 C 0.80168 0.78777 0.72496 0.0
C912 C 0.73 0.74951 0.81233 0.0
C913 C 0.76386 0.76031 0.74458 0.0
C914 C 0.71113 0.73583 0.82192 0.0
C915 C 0.70707 0.71739 0.78038 0.0
C916 C 0.74493 0.74478 0.76061 0.0
C917 C 0.72348 0.71202 0.7332 0.0
C918 C 0.77898 0.75544 0.69344 0.0
C919 C 0.7851 0.79326 0.7715 0.0
N920 N 0.74152 0.72585 0.72395 0.0
N921 N 0.76709 0.77939 0.78072 0.0
H922 H 0.6967 0.24168 0.16645 0.0
H923 H 0.81205 0.26413 0.35948 0.0
H924 H 0.72181 0.19834 0.32 0.0
H925 H 0.78635 0.308 0.20804 0.0
H926 H 0.77838 0.24069 0.34896 0.0
H927 H 0.73034 0.26515 0.17732 0.0
C928 C 0.70966 0.23669 0.20103 0.0
C929 C 0.70639 0.21805 0.24246 0.0
C930 C 0.7799 0.25562 0.31869 0.0
C931 C 0.74458 0.24534 0.257 0.0
C932 C 0.79895 0.26924 0.3255 0.0
C933 C 0.80206 0.28803 0.28452 0.0
C934 C 0.76384 0.26075 0.2703 0.0
C935 C 0.78463 0.29377 0.24095 0.0
C936 C 0.72869 0.25033 0.20802 0.0
C937 C 0.72365 0.21246 0.28673 0.0
N938 N 0.76643 0.27998 0.23429 0.0
N939 N 0.74185 0.22624 0.2935 0.0
H940 H 0.99247 0.06138 0.90105 0.0
H941 H 0.01544 0.94715 0.09927 0.0
H942 H 0.94868 0.03617 0.05342 0.0
H943 H 0.0587 0.97169 0.94468 0.0
H944 H 0.99184 0.98063 0.08689 0.0
H945 H 0.01606 0.02786 0.91298 0.0
C946 C 0.9874 0.0484 0.93549 0.0
C947 C 0.9686 0.05162 0.97634 0.0
C948 C 0.00667 0.97889 0.0563 0.0
C949 C 0.99605 0.01362 0.99224 0.0
C950 C 0.02039 0.95997 0.06418 0.0
C951 C 0.03903 0.95656 0.02286 0.0
C952 C 0.01158 0.99454 1.00655 0.0
C953 C 0.04457 0.97363 0.97787 0.0
C954 C 1.00111 0.02945 0.94313 0.0
C955 C 0.96292 0.03436 0.02056 0.0
N956 N 0.0307 0.99173 0.97024 0.0
N957 N 0.97679 0.01627 0.02806 0.0
H958 H 0.44782 0.03719 0.46511 0.0
H959 H 0.56009 0.97148 0.5709 0.0
H960 H 0.49319 0.06056 0.61592 0.0
H961 H 0.51549 0.94903 0.41697 0.0
H962 H 0.53669 0.00499 0.58523 0.0
H963 H 0.47125 0.00367 0.45116 0.0
C964 C 0.46221 0.03487 0.49713 0.0
C965 C 0.46854 0.05172 0.54186 0.0
C966 C 0.53221 0.99293 0.54754 0.0
C967 C 0.49606 0.01387 0.52397 0.0
C968 C 0.54589 0.974 0.53831 0.0
C969 C 0.53977 0.9574 0.49254 0.0
C970 C 0.51224 0.99524 0.51089 0.0
C971 C 0.52082 0.96141 0.45283 0.0
C972 C 0.4759 0.01594 0.48809 0.0
C973 C 0.4877 0.04797 0.58088 0.0
N974 N 0.50756 0.97973 0.46352 0.0
N975 N 0.50095 0.02963 0.57044 0.0
H976 H 0.09698 0.01016 0.02512 0.0
H977 H 0.18218 0.09296 0.21244 0.0
H978 H 0.15448 0.98672 0.13569 0.0
H979 H 0.13284 0.11571 0.07123 0.0
H980 H 0.17141 0.05397 0.18879 0.0
H981 H 0.10853 0.04907 0.04691 0.0
C982 C 0.11197 0.01317 0.0542 0.0
C983 C 0.1248 0.99512 0.07846 0.0
C984 C 0.16305 0.06751 0.16271 0.0
C985 C 0.13816 0.03965 0.10351 0.0
C986 C 0.16924 0.0898 0.17607 0.0
C987 C 0.15845 0.10774 0.1438 0.0
C988 C 0.14579 0.06307 0.11719 0.0
C989 C 0.14171 0.1025 0.0973 0.0
C990 C 0.11862 0.0354 0.06638 0.0
C991 C 0.1441 1.00009 0.11579 0.0
N992 N 0.13582 0.08071 0.08575 0.0
N993 N 0.15016 0.02184 0.12722 0.0
H994 H 0.6408 0.38155 0.32532 0.0
H995 H 0.77158 0.4034 0.3977 0.0
H996 H 0.66464 0.43015 0.46708 0.0
H997 H 0.74708 0.34679 0.28535 0.0
H998 H 0.7327 0.41499 0.41804 0.0
H999 H 0.67973 0.37071 0.30306 0.0
C1000 C 0.6542 0.39013 0.35141 0.0
C1001 C 0.64933 0.40682 0.39833 0.0
C1002 C 0.7358 0.4 0.38907 0.0
C1003 C 0.69412 0.39427 0.37314 0.0
C1004 C 0.75802 0.39334 0.37741 0.0
C1005 C 0.76263 0.37408 0.33966 0.0
C1006 C 0.71797 0.38744 0.36239 0.0
C1007 C 0.74433 0.36173 0.31481 0.0
C1008 C 0.67646 0.3838 0.33888 0.0
C1009 C 0.66751 0.41721 0.43057 0.0
N1010 N 0.72282 0.36868 0.32637 0.0
N1011 N 0.68907 0.41075 0.41743 0.0
H1012 H 0.35942 0.88791 0.5343 0.0
H1013 H 0.39196 0.01296 0.64435 0.0
H1014 H 0.34344 0.91444 0.72608 0.0
H1015 H 0.39062 0.99129 0.44207 0.0
H1016 H 0.37668 0.97626 0.67721 0.0
H1017 H 0.37261 0.92518 0.50098 0.0
C1018 C 0.35847 0.90164 0.56925 0.0
C1019 C 0.35028 0.89802 0.63312 0.0
C1020 C 0.37973 0.97957 0.62565 0.0
C1021 C 0.3658 0.94075 0.59551 0.0
C1022 C 0.38861 1.00045 0.60688 0.0
C1023 C 0.39259 0.00523 0.5403 0.0
C1024 C 0.37503 0.96324 0.57761 0.0
C1025 C 0.38779 0.98839 0.49392 0.0
C1026 C 0.36605 0.92293 0.55018 0.0
C1027 C 0.34947 0.91648 0.67623 0.0
N1028 N 0.37934 0.96817 0.51345 0.0
N1029 N 0.35735 0.93701 0.65686 0.0
H1030 H 0.74424 0.63955 0.88201 0.0
H1031 H 0.86948 0.60764 0.77092 0.0
H1032 H 0.76642 0.6398 0.6801 0.0
H1033 H 0.84314 0.59135 0.96277 0.0
H1034 H 0.83218 0.62085 0.73814 0.0
H1035 H 0.78088 0.62402 0.91452 0.0
C1036 C 0.75684 0.63648 0.84455 0.0
C1037 C 0.75222 0.64101 0.77816 0.0
C1038 C 0.83446 0.61421 0.78725 0.0
C1039 C 0.79415 0.62316 0.81508 0.0
C1040 C 0.85578 0.60661 0.806 0.0
C1041 C 0.85947 0.59834 0.86973 0.0
C1042 C 0.81666 0.61387 0.83272 0.0
C1043 C 0.84103 0.59744 0.91301 0.0
C1044 C 0.7777 0.62746 0.86313 0.0
C1045 C 0.76918 0.63656 0.7318 0.0
N1046 N 0.82047 0.60533 0.89393 0.0
N1047 N 0.78936 0.62796 0.75114 0.0
H1048 H 0.85281 0.02035 0.86758 0.0
H1049 H 0.8763 0.88965 0.93657 0.0
H1050 H 0.91045 0.99623 0.97625 0.0
H1051 H 0.82698 0.91338 0.79666 0.0
H1052 H 0.88687 0.92863 0.95924 0.0
H1053 H 0.84148 0.98141 0.84728 0.0
C1054 C 0.86314 0.00686 0.88709 0.0
C1055 C 0.88263 0.0116 0.92376 0.0
C1056 C 0.87369 0.92532 0.92375 0.0
C1057 C 0.86957 0.96685 0.90105 0.0
C1058 C 0.8675 0.90303 0.911 0.0
C1059 C 0.85069 0.89812 0.86446 0.0
C1060 C 0.86293 0.94296 0.89012 0.0
C1061 C 0.84003 0.91628 0.83285 0.0
C1062 C 0.85663 0.9846 0.87544 0.0
C1063 C 0.89533 0.99338 0.94762 0.0
N1064 N 0.84634 0.93786 0.84621 0.0
N1065 N 0.88853 0.97182 0.93611 0.0
H1066 H 0.23534 0.60321 0.62152 0.0
H1067 H 0.36609 0.62479 0.69531 0.0
H1068 H 0.25979 0.65911 0.73692 0.0
H1069 H 0.3424 0.57717 0.55053 0.0
H1070 H 0.32713 0.63533 0.71825 0.0
H1071 H 0.27424 0.59174 0.60074 0.0
C1072 C 0.24888 0.61313 0.64241 0.0
C1073 C 0.24425 0.63217 0.68111 0.0
C1074 C 0.33044 0.62253 0.68162 0.0
C1075 C 0.28894 0.61896 0.65786 0.0
C1076 C 0.35272 0.61636 0.66869 0.0
C1077 C 0.35764 0.60004 0.62072 0.0
C1078 C 0.31281 0.61226 0.64672 0.0
C1079 C 0.33949 0.58983 0.58784 0.0
C1080 C 0.27112 0.60654 0.63049 0.0
C1081 C 0.26254 0.64435 0.70672 0.0
N1082 N 0.31791 0.59613 0.6014 0.0
N1083 N 0.28406 0.63748 0.69487 0.0
H1084 H 0.61552 0.01694 0.59353 0.0
H1085 H 0.66675 0.09288 0.3041 0.0
H1086 H 0.61876 0.99458 0.39208 0.0
H1087 H 0.64689 0.11922 0.49303 0.0
H1088 H 0.65363 0.05545 0.33849 0.0
H1089 H 0.63067 0.05345 0.55989 0.0
C1090 C 0.61935 0.01972 0.54214 0.0
C1091 C 0.61581 1.00265 0.49557 0.0
C1092 C 0.65229 0.06943 0.37246 0.0
C1093 C 0.63346 0.04444 0.45674 0.0
C1094 C 0.65996 0.09075 0.3531 0.0
C1095 C 0.6579 0.10926 0.3957 0.0
C1096 C 0.64271 0.06655 0.43508 0.0
C1097 C 0.64873 0.1055 0.4584 0.0
C1098 C 0.62803 0.04059 0.52296 0.0
C1099 C 0.62111 0.00727 0.42963 0.0
N1100 N 0.64149 0.08463 0.4761 0.0
N1101 N 0.62977 0.02769 0.41222 0.0
H1102 H 0.14101 0.38216 0.19072 0.0
H1103 H 0.27207 0.40521 0.12597 0.0
H1104 H 0.1653 0.43059 0.04889 0.0
H1105 H 0.24724 0.34838 0.23698 0.0
H1106 H 0.23324 0.41647 0.10323 0.0
H1107 H 0.17988 0.37182 0.21552 0.0
C1108 C 0.15449 0.3908 0.16512 0.0
C1109 C 0.14977 0.4073 0.11744 0.0
C1110 C 0.23626 0.40151 0.13244 0.0
C1111 C 0.19451 0.39532 0.14562 0.0
C1112 C 0.25846 0.39505 0.14551 0.0
C1113 C 0.26296 0.37581 0.18354 0.0
C1114 C 0.21835 0.38877 0.15801 0.0
C1115 C 0.24459 0.36331 0.20736 0.0
C1116 C 0.17673 0.38475 0.17913 0.0
C1117 C 0.16806 0.41778 0.08593 0.0
N1118 N 0.2231 0.37006 0.19443 0.0
N1119 N 0.18959 0.4116 0.10053 0.0
H1120 H 0.61478 0.51652 0.43567 0.0
H1121 H 0.66558 0.59253 0.72501 0.0
H1122 H 0.61698 0.49463 0.63774 0.0
H1123 H 0.64636 0.61886 0.53543 0.0
H1124 H 0.65227 0.55519 0.69081 0.0
H1125 H 0.63001 0.55302 0.46899 0.0
C1126 C 0.61839 0.51941 0.48713 0.0
C1127 C 0.61454 0.50248 0.53398 0.0
C1128 C 0.65111 0.56914 0.65665 0.0
C1129 C 0.6323 0.54423 0.57242 0.0
C1130 C 0.65889 0.59041 0.6759 0.0
C1131 C 0.65706 0.60889 0.63307 0.0
C1132 C 0.64165 0.56628 0.59391 0.0
C1133 C 0.64803 0.60515 0.57023 0.0
C1134 C 0.62711 0.54027 0.50612 0.0
C1135 C 0.61956 0.50722 0.59999 0.0
N1136 N 0.64067 0.58432 0.55263 0.0
N1137 N 0.62829 0.52761 0.61721 0.0
H1138 H 0.1378 0.89944 0.77154 0.0
H1139 H 0.26306 0.86779 0.88261 0.0
H1140 H 0.16413 0.91585 0.96321 0.0
H1141 H 0.24092 0.86742 0.6807 0.0
H1142 H 0.22643 0.88337 0.91498 0.0
H1143 H 0.17515 0.88641 0.73863 0.0
C1144 C 0.15152 0.90054 0.80654 0.0
C1145 C 0.1478 0.90877 0.87027 0.0
C1146 C 0.22962 0.8799 0.86361 0.0
C1147 C 0.19066 0.89344 0.83313 0.0
C1148 C 0.25047 0.87085 0.84511 0.0
C1149 C 0.25509 0.86626 0.77877 0.0
C1150 C 0.21318 0.88418 0.81553 0.0
C1151 C 0.23815 0.8707 0.73236 0.0
C1152 C 0.17286 0.89304 0.78771 0.0
C1153 C 0.16625 0.90978 0.91345 0.0
N1154 N 0.21798 0.87933 0.75163 0.0
N1155 N 0.18684 0.90198 0.89432 0.0
H1156 H 0.85276 0.52096 0.1389 0.0
H1157 H 0.8742 0.39019 0.06544 0.0
H1158 H 0.90852 0.49638 0.023 0.0
H1159 H 0.82648 0.4139 0.21002 0.0
H1160 H 0.88477 0.42913 0.04241 0.0
H1161 H 0.84124 0.48208 0.15996 0.0
C1162 C 0.86263 0.50739 0.11796 0.0
C1163 C 0.88165 0.51198 0.07902 0.0
C1164 C 0.87193 0.42583 0.07901 0.0
C1165 C 0.86838 0.46732 0.1026 0.0
C1166 C 0.86575 0.40356 0.092 0.0
C1167 C 0.84939 0.39864 0.13991 0.0
C1168 C 0.86164 0.44346 0.11382 0.0
C1169 C 0.83916 0.41681 0.1727 0.0
C1170 C 0.85602 0.48517 0.13004 0.0
C1171 C 0.89378 0.49367 0.05337 0.0
N1172 N 0.84547 0.43838 0.15911 0.0
N1173 N 0.88688 0.47217 0.06538 0.0
H1174 H 0.23579 0.1037 0.40158 0.0
H1175 H 0.36656 0.12595 0.32975 0.0
H1176 H 0.26018 0.16039 0.28915 0.0
H1177 H 0.34276 0.07739 0.4719 0.0
H1178 H 0.32761 0.13666 0.30722 0.0
H1179 H 0.27469 0.09226 0.42221 0.0
C1180 C 0.24933 0.1138 0.38134 0.0
C1181 C 0.24468 0.13305 0.34348 0.0
C1182 C 0.33089 0.12361 0.34318 0.0
C1183 C 0.28938 0.11986 0.36655 0.0
C1184 C 0.35317 0.11735 0.35586 0.0
C1185 C 0.35805 0.10071 0.40298 0.0
C1186 C 0.31325 0.11312 0.37747 0.0
C1187 C 0.33988 0.0903 0.43525 0.0
C1188 C 0.27156 0.10723 0.39317 0.0
C1189 C 0.26295 0.14547 0.3187 0.0
N1190 N 0.31831 0.09669 0.42195 0.0
N1191 N 0.28449 0.1386 0.33041 0.0
H1192 H 0.35827 0.38809 0.4905 0.0
H1193 H 0.39146 0.51281 0.37844 0.0
H1194 H 0.3428 0.41418 0.2978 0.0
H1195 H 0.38973 0.49141 0.58101 0.0
H1196 H 0.37604 0.47613 0.34596 0.0
H1197 H 0.37146 0.42539 0.52317 0.0
C1198 C 0.35742 0.40174 0.45521 0.0
C1199 C 0.34939 0.39798 0.39128 0.0
C1200 C 0.37903 0.4795 0.39749 0.0
C1201 C 0.36491 0.44077 0.42815 0.0
C1202 C 0.38799 0.50037 0.41605 0.0
C1203 C 0.39192 0.50521 0.48261 0.0
C1204 C 0.37418 0.46326 0.44574 0.0
C1205 C 0.38696 0.48846 0.52918 0.0
C1206 C 0.365 0.42305 0.4739 0.0
C1207 C 0.3487 0.41634 0.34771 0.0
N1208 N 0.37843 0.46825 0.50986 0.0
N1209 N 0.35659 0.4369 0.36674 0.0
H1210 H 0.76086 0.15973 0.24348 0.0
H1211 H 0.84297 0.07452 0.05361 0.0
H1212 H 0.73709 0.10179 0.13562 0.0
H1213 H 0.86634 0.12404 0.19334 0.0
H1214 H 0.80408 0.08515 0.07919 0.0
H1215 H 0.79973 0.14822 0.22034 0.0
C1216 C 0.76379 0.14464 0.21477 0.0
C1217 C 0.74566 0.13169 0.19161 0.0
C1218 C 0.81773 0.09358 0.10452 0.0
C1219 C 0.79011 0.1184 0.16494 0.0
C1220 C 0.83997 0.08748 0.09005 0.0
C1221 C 0.85805 0.09836 0.12133 0.0
C1222 C 0.81349 0.11084 0.15017 0.0
C1223 C 0.85302 0.1151 0.16799 0.0
C1224 C 0.78599 0.13802 0.2018 0.0
C1225 C 0.75051 0.11227 0.15468 0.0
N1226 N 0.83128 0.12091 0.18063 0.0
N1227 N 0.77223 0.10626 0.14242 0.0
H1228 H 0.16656 0.59358 0.79601 0.0
H1229 H 0.11409 0.51659 0.08108 0.0
H1230 H 0.14642 0.61925 0.98548 0.0
H1231 H 0.11777 0.49529 0.87873 0.0
H1232 H 0.12948 0.55322 0.04941 0.0
H1233 H 0.15312 0.55612 0.82872 0.0
C1234 C 0.15965 0.59129 0.84481 0.0
C1235 C 0.1576 0.60963 0.88803 0.0
C1236 C 0.12687 0.54057 0.01186 0.0
C1237 C 0.14201 0.56686 0.92547 0.0
C1238 C 0.11805 0.51963 0.0299 0.0
C1239 C 0.11457 0.50282 0.9825 0.0
C1240 C 0.13252 0.54473 0.94596 0.0
C1241 C 0.12005 0.50778 0.91689 0.0
C1242 C 0.15178 0.56994 0.8632 0.0
C1243 C 0.14827 0.60566 0.95042 0.0
N1244 N 0.12886 0.52823 0.90061 0.0
N1245 N 0.14082 0.58476 0.96717 0.0
H1246 H 0.63833 0.89797 0.73857 0.0
H1247 H 0.76286 0.86487 0.62445 0.0
H1248 H 0.66444 0.9142 0.54641 0.0
H1249 H 0.74159 0.86533 0.82719 0.0
H1250 H 0.72622 0.88061 0.59298 0.0
H1251 H 0.67559 0.88442 0.77064 0.0
C1252 C 0.65198 0.89892 0.70329 0.0
C1253 C 0.64823 0.90726 0.63967 0.0
C1254 C 0.7296 0.87726 0.64433 0.0
C1255 C 0.69095 0.89134 0.67583 0.0
C1256 C 0.75045 0.86813 0.66231 0.0
C1257 C 0.75532 0.86375 0.72862 0.0
C1258 C 0.7134 0.88185 0.69289 0.0
C1259 C 0.73861 0.86844 0.77552 0.0
C1260 C 0.67326 0.89113 0.72164 0.0
C1261 C 0.66659 0.90806 0.59609 0.0
N1262 N 0.71842 0.87717 0.75676 0.0
N1263 N 0.6871 0.89998 0.61476 0.0
H1264 H 0.11702 0.23447 0.3001 0.0
H1265 H 0.08847 0.31883 0.00987 0.0
H1266 H 0.14132 0.22667 0.10218 0.0
H1267 H 0.06836 0.32856 0.21166 0.0
H1268 H 0.09944 0.28021 0.03626 0.0
H1269 H 0.09077 0.26344 0.26212 0.0
C1270 C 0.11629 0.23845 0.24819 0.0
C1271 C 0.13117 0.2282 0.20401 0.0
C1272 C 0.09227 0.29066 0.07452 0.0
C1273 C 0.10189 0.26181 0.16043 0.0
C1274 C 0.08597 0.31274 0.05949 0.0
C1275 C 0.07801 0.32713 0.10906 0.0
C1276 C 0.09067 0.28297 0.13959 0.0
C1277 C 0.07484 0.3182 0.1722 0.0
C1278 C 0.10142 0.25504 0.22653 0.0
C1279 C 0.1299 0.23403 0.13749 0.0
N1280 N 0.08153 0.29681 0.18589 0.0
N1281 N 0.11575 0.25075 0.11778 0.0
H1282 H 0.53133 0.39018 0.35875 0.0
H1283 H 0.42782 0.31627 0.47873 0.0
H1284 H 0.52046 0.36955 0.55903 0.0
H1285 H 0.43684 0.33918 0.27915 0.0
H1286 H 0.4665 0.32755 0.50311 0.0
H1287 H 0.50214 0.36371 0.32321 0.0
C1288 C 0.52334 0.37947 0.39488 0.0
C1289 C 0.52833 0.38182 0.4617 0.0
C1290 C 0.46015 0.32979 0.45368 0.0
C1291 C 0.49439 0.35222 0.42218 0.0
C1292 C 0.43804 0.32334 0.43973 0.0
C1293 C 0.4289 0.32731 0.37727 0.0
C1294 C 0.47312 0.34048 0.40499 0.0
C1295 C 0.44306 0.33618 0.32836 0.0
C1296 C 0.50652 0.36451 0.37478 0.0
C1297 C 0.51704 0.36809 0.50696 0.0
N1298 N 0.46434 0.34285 0.34358 0.0
N1299 N 0.50039 0.35407 0.48651 0.0
H1300 H 0.42152 0.68888 0.51899 0.0
H1301 H 0.38666 0.771 0.80899 0.0
H1302 H 0.43729 0.67736 0.72325 0.0
H1303 H 0.36734 0.78069 0.60717 0.0
H1304 H 0.41325 0.74182 0.77451 0.0
H1305 H 0.40984 0.72722 0.54619 0.0
C1306 C 0.42292 0.69453 0.56941 0.0
C1307 C 0.42987 0.67971 0.61922 0.0
C1308 C 0.4036 0.75067 0.73744 0.0
C1309 C 0.41637 0.72352 0.6507 0.0
C1310 C 0.38851 0.76735 0.75712 0.0
C1311 C 0.37493 0.77826 0.71071 0.0
C1312 C 0.4047 0.7445 0.67093 0.0
C1313 C 0.37769 0.77286 0.64429 0.0
C1314 C 0.41621 0.71643 0.5849 0.0
C1315 C 0.43164 0.68806 0.68346 0.0
N1316 N 0.39204 0.75609 0.62637 0.0
N1317 N 0.42456 0.70929 0.69753 0.0
H1318 H 0.0786 0.6906 0.97244 0.0
H1319 H 0.97696 0.61602 0.84309 0.0
H1320 H 0.07178 0.66778 0.77213 0.0
H1321 H 0.98587 0.63602 0.04465 0.0
H1322 H 0.0062 0.64286 0.81042 0.0
H1323 H 0.03979 0.67895 0.99356 0.0
C1324 C 0.06883 0.68349 0.93258 0.0
C1325 C 0.07863 0.67963 0.87091 0.0
C1326 C 1.00138 0.64182 0.86163 0.0
C1327 C 0.03427 0.66604 0.89488 0.0
C1328 C 0.98453 0.62663 0.8801 0.0
C1329 C 0.97899 0.62399 0.94647 0.0
C1330 C 0.01297 0.65406 0.91022 0.0
C1331 C 0.98974 0.63768 0.99288 0.0
C1332 C 0.04665 0.67682 0.94467 0.0
C1333 C 0.06504 0.67068 0.82083 0.0
N1334 N 0.00642 0.65193 0.97403 0.0
N1335 N 0.04369 0.66381 0.83423 0.0
H1336 H 0.94177 0.67669 0.78421 0.0
H1337 H 0.86775 0.78033 0.9029 0.0
H1338 H 0.91718 0.68504 0.98229 0.0
H1339 H 0.88834 0.76912 0.70279 0.0
H1340 H 0.894 0.75101 0.93883 0.0
H1341 H 0.93078 0.71548 0.7601 0.0
C1342 C 0.93439 0.68679 0.82296 0.0
C1343 C 0.92985 0.67743 0.88485 0.0
C1344 C 0.89323 0.75534 0.88721 0.0
C1345 C 0.91704 0.72177 0.85743 0.0
C1346 C 0.87839 0.77224 0.86687 0.0
C1347 C 0.87607 0.77716 0.79998 0.0
C1348 C 0.90547 0.7431 0.83999 0.0
C1349 C 0.88976 0.76575 0.75491 0.0
C1350 C 0.92811 0.70895 0.80916 0.0
C1351 C 0.9206 0.69143 0.93349 0.0
N1352 N 0.90369 0.74905 0.7756 0.0
N1353 N 0.91412 0.71278 0.9184 0.0
H1354 H 0.47559 0.6167 0.66209 0.0
H1355 H 0.57906 0.69172 0.54673 0.0
H1356 H 0.48696 0.63818 0.4628 0.0
H1357 H 0.57026 0.66703 0.74459 0.0
H1358 H 0.54044 0.68041 0.52163 0.0
H1359 H 0.50476 0.64296 0.69916 0.0
C1360 C 0.48369 0.62754 0.62651 0.0
C1361 C 0.47885 0.62548 0.5595 0.0
C1362 C 0.54682 0.67778 0.57087 0.0
C1363 C 0.51272 0.65489 0.60078 0.0
C1364 C 0.56889 0.68425 0.58523 0.0
C1365 C 0.57808 0.6798 0.64736 0.0
C1366 C 0.53393 0.66659 0.61879 0.0
C1367 C 0.564 0.67042 0.69564 0.0
C1368 C 0.50049 0.64238 0.64749 0.0
C1369 C 0.49026 0.6394 0.51499 0.0
N1370 N 0.54275 0.66375 0.67999 0.0
N1371 N 0.50686 0.65333 0.53629 0.0
H1372 H 0.5667 0.32974 0.29813 0.0
H1373 H 0.61576 0.22869 0.22289 0.0
H1374 H 0.58756 0.31792 0.4982 0.0
H1375 H 0.64318 0.23138 0.41834 0.0
H1376 H 0.58811 0.25717 0.25307 0.0
H1377 H 0.57767 0.29167 0.27022 0.0
C1378 C 0.57317 0.3189 0.3366 0.0
C1379 C 0.5767 0.32721 0.40021 0.0
C1380 C 0.60003 0.25171 0.28985 0.0
C1381 C 0.58938 0.28306 0.36891 0.0
C1382 C 0.61561 0.23513 0.27268 0.0
C1383 C 0.6317 0.22788 0.31821 0.0
C1384 C 0.60123 0.26173 0.35243 0.0
C1385 C 0.63095 0.23655 0.382 0.0
C1386 C 0.57942 0.2969 0.32072 0.0
C1387 C 0.58489 0.31234 0.44819 0.0
N1388 N 0.61622 0.25334 0.39692 0.0
N1389 N 0.59133 0.29115 0.43126 0.0
H1390 H 0.03259 0.38974 0.15492 0.0
H1391 H 0.92783 0.31614 0.04267 0.0
H1392 H 0.02011 0.36908 0.95557 0.0
H1393 H 0.93812 0.33992 0.24076 0.0
H1394 H 0.96638 0.32723 0.01574 0.0
H1395 H 1.00342 0.36363 0.19254 0.0
C1396 C 0.02426 0.37912 0.11937 0.0
C1397 C 0.02881 0.38137 0.05224 0.0
C1398 C 0.96034 0.3297 0.06541 0.0
C1399 C 0.99485 0.35214 0.09422 0.0
C1400 C 0.93831 0.32335 0.08083 0.0
C1401 C 0.92956 0.32763 0.14361 0.0
C1402 C 0.97364 0.34057 0.11296 0.0
C1403 C 0.94403 0.33669 0.19135 0.0
C1404 C 0.00743 0.36435 0.14069 0.0
C1405 C 0.01705 0.36771 0.00787 0.0
N1406 N 0.96523 0.34323 0.17472 0.0
N1407 N 1.00041 0.35387 0.02951 0.0
H1408 H 0.56681 0.82952 0.72731 0.0
H1409 H 0.64017 0.726 0.60407 0.0
H1410 H 0.58912 0.82077 0.5271 0.0
H1411 H 0.62119 0.73716 0.80555 0.0
H1412 H 0.61365 0.75532 0.56999 0.0
H1413 H 0.57846 0.79092 0.75133 0.0
C1414 C 0.57382 0.81937 0.6881 0.0
C1415 C 0.57752 0.82856 0.62553 0.0
C1416 C 0.61485 0.75099 0.62154 0.0
C1417 C 0.59109 0.78444 0.65283 0.0
C1418 C 0.62984 0.73409 0.64084 0.0
C1419 C 0.63267 0.72911 0.70753 0.0
C1420 C 0.60297 0.7632 0.66958 0.0
C1421 C 0.61938 0.74056 0.75355 0.0
C1422 C 0.58049 0.79731 0.70185 0.0
C1423 C 0.58632 0.8145 0.57638 0.0
N1424 N 0.60529 0.75726 0.73383 0.0
N1425 N 0.59319 0.79326 0.59137 0.0
H1426 H 0.02198 0.86969 0.04491 0.0
H1427 H 0.93881 0.83525 0.7574 0.0
H1428 H 0.03021 0.8904 0.84366 0.0
H1429 H 0.92878 0.8181 0.96142 0.0
H1430 H 0.9772 0.84717 0.78308 0.0
H1431 H 0.99324 0.84264 0.01042 0.0
C1432 C 0.01811 0.86805 0.99312 0.0
C1433 C 0.02844 0.88215 0.9469 0.0
C1434 C 0.96674 0.84043 0.82204 0.0
C1435 C 0.99516 0.85187 0.90716 0.0
C1436 C 0.9448 0.83359 0.80741 0.0
C1437 C 0.93037 0.82621 0.85769 0.0
C1438 C 0.97424 0.83998 0.88743 0.0
C1439 C 0.93917 0.82411 0.92134 0.0
C1440 C 1.00167 0.8527 0.97343 0.0
C1441 C 0.02279 0.87965 0.88058 0.0
N1442 N 0.96042 0.83134 0.9346 0.0
N1443 N 0.00624 0.86503 0.8627 0.0
H1444 H 0.89002 0.27225 0.30153 0.0
H1445 H 0.91912 0.18718 0.01384 0.0
H1446 H 0.86653 0.27982 0.10271 0.0
H1447 H 0.93862 0.17778 0.21627 0.0
H1448 H 0.90825 0.22591 0.03916 0.0
H1449 H 0.91627 0.24308 0.26491 0.0
C1450 C 0.89093 0.26817 0.24972 0.0
C1451 C 0.87628 0.27842 0.20488 0.0
C1452 C 0.91527 0.2155 0.07781 0.0
C1453 C 0.90554 0.24459 0.16285 0.0
C1454 C 0.9215 0.19337 0.0634 0.0
C1455 C 0.92926 0.17905 0.11343 0.0
C1456 C 0.91673 0.22332 0.14275 0.0
C1457 C 0.93229 0.18809 0.17645 0.0
C1458 C 0.9058 0.25147 0.22884 0.0
C1459 C 0.87779 0.27247 0.13852 0.0
N1460 N 0.92566 0.20954 0.18955 0.0
N1461 N 0.89191 0.25564 0.11956 0.0
H1462 H 0.57944 0.19202 0.47994 0.0
H1463 H 0.47605 0.11733 0.36291 0.0
H1464 H 0.57123 0.16679 0.28255 0.0
H1465 H 0.48708 0.13862 0.56244 0.0
H1466 H 0.5053 0.14359 0.32633 0.0
H1467 H 0.54064 0.18107 0.50413 0.0
C1468 C 0.56937 0.18452 0.44133 0.0
C1469 C 0.57878 0.17977 0.37966 0.0
C1470 C 0.50094 0.14297 0.37795 0.0
C1471 C 0.53442 0.167 0.40718 0.0
C1472 C 0.48409 0.12812 0.39865 0.0
C1473 C 0.47914 0.12601 0.46558 0.0
C1474 C 0.51311 0.1554 0.42486 0.0
C1475 C 0.49047 0.13988 0.51029 0.0
C1476 C 0.5472 0.17825 0.45518 0.0
C1477 C 0.56481 0.17037 0.33121 0.0
N1478 N 0.50714 0.15381 0.48928 0.0
N1479 N 0.54346 0.1639 0.34636 0.0
H1480 H 0.42186 0.18916 0.50687 0.0
H1481 H 0.38734 0.27162 0.21752 0.0
H1482 H 0.43826 0.17821 0.30277 0.0
H1483 H 0.36737 0.2807 0.41905 0.0
H1484 H 0.41422 0.24273 0.2522 0.0
H1485 H 0.41028 0.22757 0.48018 0.0
C1486 C 0.42342 0.19495 0.45661 0.0
C1487 C 0.43049 0.18026 0.40664 0.0
C1488 C 0.40436 0.25139 0.28918 0.0
C1489 C 0.4171 0.22415 0.37575 0.0
C1490 C 0.3891 0.26791 0.26939 0.0
C1491 C 0.37526 0.27853 0.31565 0.0
C1492 C 0.40535 0.2451 0.35563 0.0
C1493 C 0.37792 0.27306 0.38206 0.0
C1494 C 0.41677 0.2169 0.44141 0.0
C1495 C 0.43249 0.1888 0.34264 0.0
N1496 N 0.39244 0.25645 0.40007 0.0
N1497 N 0.42545 0.21007 0.32884 0.0
H1498 H 0.97532 0.11697 0.15921 0.0
H1499 H 0.07966 0.19049 0.04421 0.0
H1500 H 0.9869 0.13821 0.95982 0.0
H1501 H 0.06968 0.16716 0.24297 0.0
H1502 H 0.04096 0.17966 0.01837 0.0
H1503 H 0.00443 0.14322 0.19629 0.0
C1504 C 0.98343 0.12775 0.12358 0.0
C1505 C 0.97868 0.12561 0.05656 0.0
C1506 C 0.0471 0.17723 0.06795 0.0
C1507 C 0.01256 0.15499 0.09787 0.0
C1508 C 0.06922 0.18343 0.08273 0.0
C1509 C 0.07809 0.17918 0.14537 0.0
C1510 C 0.03385 0.16653 0.116 0.0
C1511 C 0.06367 0.17034 0.19364 0.0
C1512 C 1.00022 0.14261 0.14458 0.0
C1513 C 0.99014 0.13949 0.01204 0.0
N1514 N 0.04239 0.16392 0.17762 0.0
N1515 N 0.00676 0.15339 0.03334 0.0
H1516 H 0.08766 0.82214 0.99199 0.0
H1517 H 0.11861 0.73413 0.71403 0.0
H1518 H 0.06863 0.82893 0.78829 0.0
H1519 H 0.14051 0.72842 0.91491 0.0
H1520 H 0.09204 0.76356 0.74656 0.0
H1521 H 0.0988 0.7832 0.97098 0.0
C1522 C 0.08546 0.81534 0.94305 0.0
C1523 C 0.07774 0.82899 0.89138 0.0
C1524 C 0.10223 0.75553 0.78398 0.0
C1525 C 0.09059 0.78446 0.86701 0.0
C1526 C 0.1173 0.73869 0.76543 0.0
C1527 C 0.13162 0.72891 0.81201 0.0
C1528 C 0.10196 0.76303 0.84939 0.0
C1529 C 0.12956 0.73544 0.87777 0.0
C1530 C 0.09183 0.79307 0.93112 0.0
C1531 C 0.07491 0.81916 0.8293 0.0
N1532 N 0.11526 0.75241 0.89444 0.0
N1533 N 0.0817 0.7976 0.8186 0.0
H1534 H 0.42796 0.81677 0.54629 0.0
H1535 H 0.53125 0.89047 0.66884 0.0
H1536 H 0.43727 0.83817 0.74708 0.0
H1537 H 0.52008 0.87146 0.46743 0.0
H1538 H 0.50218 0.86371 0.70311 0.0
H1539 H 0.46644 0.82869 0.52169 0.0
C1540 C 0.43822 0.82362 0.5855 0.0
C1541 C 0.42921 0.827 0.64843 0.0
C1542 C 0.50645 0.86495 0.65153 0.0
C1543 C 0.47318 0.84091 0.62047 0.0
C1544 C 0.52321 0.88009 0.63212 0.0
C1545 C 0.52812 0.88297 0.56541 0.0
C1546 C 0.49429 0.85299 0.60357 0.0
C1547 C 0.51673 0.86962 0.51945 0.0
C1548 C 0.4602 0.83045 0.57142 0.0
C1549 C 0.44339 0.83563 0.69755 0.0
N1550 N 0.50015 0.85539 0.53927 0.0
N1551 N 0.46455 0.84267 0.68224 0.0
loop_
_geom_bond_atom_site_label_1
_geom_bond_atom_site_label_2
_geom_bond_distance
_geom_bond_site_symmetry_2
_ccdc_geom_bond_type
Zn0 N4 2.020 . S
Zn0 O8 2.019 . S
Zn0 N10 2.119 . S
Zn0 O18 1.975 . S
C1 N2 1.334 . S
C1 N5 1.336 . S
N2 C1 1.334 . S
N2 C3 1.334 . S
C3 N2 1.334 . S
C3 N4 1.336 . S
N4 Zn0 2.020 . S
N4 C3 1.336 . S
N4 N5 1.354 . S
N5 C1 1.336 . S
N5 N4 1.354 . S
N5 Zn9 2.020 . S
C6 O7 1.244 . S
C6 O30 1.257 . S
O7 C6 1.244 . S
O8 Zn0 2.019 . S
O8 C28 1.257 . S
Zn9 N5 2.020 . S
Zn9 O16 1.975 . S
Zn9 N25 2.119 . S
Zn9 O30 2.019 . S
N10 Zn0 2.119 . S
N10 C12 1.334 . S
N10 C13 1.328 . S
C11 C12 1.391 . S
C11 N14 1.329 1_554 S
C11 H32 0.930 . S
C12 N10 1.334 . S
C12 C11 1.391 . S
C12 H19 0.930 . S
C13 N10 1.328 . S
C13 C15 1.392 1_554 S
C13 H20 0.930 . S
N14 C11 1.329 1_556 S
N14 C15 1.331 . S
C15 C13 1.392 1_556 S
C15 N14 1.331 . S
O16 Zn9 1.975 . S
O16 C17 1.252 . S
C17 O16 1.252 . S
C17 O18 1.252 . S
O18 Zn0 1.975 . S
O18 C17 1.252 . S
H19 C12 0.930 . S
H20 C13 0.930 . S
C21 C22 1.392 . S
C21 N25 1.328 . S
C21 H27 0.930 . S
C22 C21 1.392 . S
C22 N26 1.331 . S
C23 C24 1.391 . S
C23 N26 1.329 . S
C23 H33 0.930 . S
C24 C23 1.391 . S
C24 N25 1.334 . S
C24 H31 0.930 . S
N25 Zn9 2.119 . S
N25 C21 1.328 . S
N25 C24 1.334 . S
N26 C22 1.331 . S
N26 C23 1.329 . S
H27 C21 0.930 . S
C28 O8 1.257 . S
C28 O29 1.244 . S
O29 C28 1.244 . S
O30 C6 1.257 . S
O30 Zn9 2.019 . S
H31 C24 0.930 . S
H32 C11 0.930 . S
H33 C23 0.930 . S
Zn34 N38 2.020 . S
Zn34 O42 2.019 . S
Zn34 N44 2.119 . S
Zn34 O52 1.975 . S
C35 N36 1.334 . S
C35 N39 1.336 . S
N36 C35 1.334 . S
N36 C37 1.334 . S
C37 N36 1.334 . S
C37 N38 1.336 . S
N38 Zn34 2.020 . S
N38 C37 1.336 . S
N38 N39 1.354 . S
N39 C35 1.336 . S
N39 N38 1.354 . S
N39 Zn43 2.020 . S
C40 O41 1.244 . S
C40 O64 1.257 . S
O41 C40 1.244 . S
O42 Zn34 2.019 . S
O42 C62 1.257 . S
Zn43 N39 2.020 . S
Zn43 O50 1.975 . S
Zn43 N59 2.119 . S
Zn43 O64 2.019 . S
N44 Zn34 2.119 . S
N44 C46 1.334 . S
N44 C47 1.328 . S
C45 C46 1.391 . S
C45 N48 1.329 . S
C45 H66 0.930 . S
C46 N44 1.334 . S
C46 C45 1.391 . S
C46 H53 0.930 . S
C47 N44 1.328 . S
C47 C49 1.392 . S
C47 H54 0.930 . S
N48 C45 1.329 . S
N48 C49 1.331 . S
C49 C47 1.392 . S
C49 N48 1.331 . S
O50 Zn43 1.975 . S
O50 C51 1.252 . S
C51 O50 1.252 . S
C51 O52 1.252 . S
O52 Zn34 1.975 . S
O52 C51 1.252 . S
H53 C46 0.930 . S
H54 C47 0.930 . S
C55 C56 1.392 . S
C55 N59 1.328 . S
C55 H61 0.930 . S
C56 C55 1.392 . S
C56 N60 1.331 . S
C57 C58 1.391 . S
C57 N60 1.329 . S
C57 H67 0.930 . S
C58 C57 1.391 . S
C58 N59 1.334 . S
C58 H65 0.930 . S
N59 Zn43 2.119 . S
N59 C55 1.328 . S
N59 C58 1.334 . S
N60 C56 1.331 . S
N60 C57 1.329 . S
H61 C55 0.930 . S
C62 O42 1.257 . S
C62 O63 1.244 . S
O63 C62 1.244 . S
O64 C40 1.257 . S
O64 Zn43 2.019 . S
H65 C58 0.930 . S
H66 C45 0.930 . S
H67 C57 0.930 . S
Zn68 N72 2.020 . S
Zn68 O76 2.019 . S
Zn68 N78 2.119 . S
Zn68 O86 1.975 . S
C69 N70 1.334 . S
C69 N73 1.336 . S
N70 C69 1.334 . S
N70 C71 1.334 . S
C71 N70 1.334 . S
C71 N72 1.336 . S
N72 Zn68 2.020 . S
N72 C71 1.336 . S
N72 N73 1.354 . S
N73 C69 1.336 . S
N73 N72 1.354 . S
N73 Zn77 2.020 . S
C74 O75 1.244 . S
C74 O98 1.257 . S
O75 C74 1.244 . S
O76 Zn68 2.019 . S
O76 C96 1.257 . S
Zn77 N73 2.020 . S
Zn77 O84 1.975 . S
Zn77 N93 2.119 . S
Zn77 O98 2.019 . S
N78 Zn68 2.119 . S
N78 C80 1.334 . S
N78 C81 1.328 . S
C79 C80 1.391 . S
C79 N82 1.329 . S
C79 H100 0.930 . S
C80 N78 1.334 . S
C80 C79 1.391 . S
C80 H87 0.930 . S
C81 N78 1.328 . S
C81 C83 1.392 . S
C81 H88 0.930 . S
N82 C79 1.329 . S
N82 C83 1.331 . S
C83 C81 1.392 . S
C83 N82 1.331 . S
O84 Zn77 1.975 . S
O84 C85 1.252 . S
C85 O84 1.252 . S
C85 O86 1.252 . S
O86 Zn68 1.975 . S
O86 C85 1.252 . S
H87 C80 0.930 . S
H88 C81 0.930 . S
C89 C90 1.392 . S
C89 N93 1.328 . S
C89 H95 0.930 . S
C90 C89 1.392 . S
C90 N94 1.331 1_556 S
C91 C92 1.391 . S
C91 N94 1.329 1_556 S
C91 H101 0.930 . S
C92 C91 1.391 . S
C92 N93 1.334 . S
C92 H99 0.930 . S
N93 Zn77 2.119 . S
N93 C89 1.328 . S
N93 C92 1.334 . S
N94 C90 1.331 1_554 S
N94 C91 1.329 1_554 S
H95 C89 0.930 . S
C96 O76 1.257 . S
C96 O97 1.244 . S
O97 C96 1.244 . S
O98 C74 1.257 . S
O98 Zn77 2.019 . S
H99 C92 0.930 . S
H100 C79 0.930 . S
H101 C91 0.930 . S
Zn102 N106 2.020 . S
Zn102 O110 2.019 . S
Zn102 N112 2.119 . S
Zn102 O120 1.975 . S
C103 N104 1.334 . S
C103 N107 1.336 . S
N104 C103 1.334 . S
N104 C105 1.334 1_556 S
C105 N104 1.334 1_554 S
C105 N106 1.336 . S
N106 Zn102 2.020 . S
N106 C105 1.336 . S
N106 N107 1.354 1_554 S
N107 C103 1.336 . S
N107 N106 1.354 1_556 S
N107 Zn111 2.020 . S
C108 O109 1.244 . S
C108 O132 1.257 . S
O109 C108 1.244 . S
O110 Zn102 2.019 . S
O110 C130 1.257 . S
Zn111 N107 2.020 . S
Zn111 O118 1.975 . S
Zn111 N127 2.119 . S
Zn111 O132 2.019 . S
N112 Zn102 2.119 . S
N112 C114 1.334 . S
N112 C115 1.328 . S
C113 C114 1.391 . S
C113 N116 1.329 . S
C113 H134 0.930 . S
C114 N112 1.334 . S
C114 C113 1.391 . S
C114 H121 0.930 . S
C115 N112 1.328 . S
C115 C117 1.392 . S
C115 H122 0.930 . S
N116 C113 1.329 . S
N116 C117 1.331 . S
C117 C115 1.392 . S
C117 N116 1.331 . S
O118 Zn111 1.975 . S
O118 C119 1.252 . S
C119 O118 1.252 . S
C119 O120 1.252 1_556 S
O120 Zn102 1.975 . S
O120 C119 1.252 1_554 S
H121 C114 0.930 . S
H122 C115 0.930 . S
C123 C124 1.392 . S
C123 N127 1.328 . S
C123 H129 0.930 . S
C124 C123 1.392 . S
C124 N128 1.331 . S
C125 C126 1.391 . S
C125 N128 1.329 . S
C125 H135 0.930 . S
C126 C125 1.391 . S
C126 N127 1.334 . S
C126 H133 0.930 . S
N127 Zn111 2.119 . S
N127 C123 1.328 . S
N127 C126 1.334 . S
N128 C124 1.331 . S
N128 C125 1.329 . S
H129 C123 0.930 . S
C130 O110 1.257 . S
C130 O131 1.245 . S
O131 C130 1.245 . S
O132 C108 1.257 . S
O132 Zn111 2.019 . S
H133 C126 0.930 . S
H134 C113 0.930 . S
H135 C125 0.930 . S
Zn136 N140 2.020 . S
Zn136 O144 2.019 . S
Zn136 N146 2.119 . S
Zn136 O154 1.975 . S
C137 N138 1.334 . S
C137 N141 1.336 . S
N138 C137 1.334 . S
N138 C139 1.334 . S
C139 N138 1.334 . S
C139 N140 1.336 . S
N140 Zn136 2.020 . S
N140 C139 1.336 . S
N140 N141 1.354 . S
N141 C137 1.336 . S
N141 N140 1.354 . S
N141 Zn145 2.020 . S
C142 O143 1.244 . S
C142 O166 1.257 . S
O143 C142 1.244 . S
O144 Zn136 2.019 . S
O144 C164 1.257 . S
Zn145 N141 2.020 . S
Zn145 O152 1.975 . S
Zn145 N161 2.119 . S
Zn145 O166 2.019 . S
N146 Zn136 2.119 . S
N146 C148 1.334 . S
N146 C149 1.328 . S
C147 C148 1.391 . S
C147 N150 1.329 . S
C147 H168 0.930 . S
C148 N146 1.334 . S
C148 C147 1.391 . S
C148 H155 0.930 . S
C149 N146 1.328 . S
C149 C151 1.392 . S
C149 H156 0.930 . S
N150 C147 1.329 . S
N150 C151 1.331 . S
C151 C149 1.392 . S
C151 N150 1.331 . S
O152 Zn145 1.975 . S
O152 C153 1.252 . S
C153 O152 1.252 . S
C153 O154 1.252 . S
O154 Zn136 1.975 . S
O154 C153 1.252 . S
H155 C148 0.930 . S
H156 C149 0.930 . S
C157 C158 1.392 1_556 S
C157 N161 1.328 . S
C157 H163 0.930 . S
C158 C157 1.392 1_554 S
C158 N162 1.331 . S
C159 C160 1.391 . S
C159 N162 1.329 1_556 S
C159 H169 0.930 . S
C160 C159 1.391 . S
C160 N161 1.334 . S
C160 H167 0.930 . S
N161 Zn145 2.119 . S
N161 C157 1.328 . S
N161 C160 1.334 . S
N162 C158 1.331 . S
N162 C159 1.329 1_554 S
H163 C157 0.930 . S
C164 O144 1.257 . S
C164 O165 1.244 . S
O165 C164 1.244 . S
O166 C142 1.257 . S
O166 Zn145 2.019 . S
H167 C160 0.930 . S
H168 C147 0.930 . S
H169 C159 0.930 . S
Zn170 N174 2.020 . S
Zn170 O178 2.019 . S
Zn170 N180 2.119 . S
Zn170 O188 1.975 . S
C171 N172 1.334 . S
C171 N175 1.336 . S
N172 C171 1.334 . S
N172 C173 1.334 . S
C173 N172 1.334 . S
C173 N174 1.336 . S
N174 Zn170 2.020 . S
N174 C173 1.336 . S
N174 N175 1.354 . S
N175 C171 1.336 . S
N175 N174 1.354 . S
N175 Zn179 2.020 . S
C176 O177 1.244 . S
C176 O200 1.257 . S
O177 C176 1.244 . S
O178 Zn170 2.019 . S
O178 C198 1.257 . S
Zn179 N175 2.020 . S
Zn179 O186 1.975 . S
Zn179 N195 2.119 . S
Zn179 O200 2.019 . S
N180 Zn170 2.119 . S
N180 C182 1.334 . S
N180 C183 1.328 . S
C181 C182 1.391 . S
C181 N184 1.329 . S
C181 H202 0.930 . S
C182 N180 1.334 . S
C182 C181 1.391 . S
C182 H189 0.930 . S
C183 N180 1.328 . S
C183 C185 1.392 . S
C183 H190 0.930 . S
N184 C181 1.329 . S
N184 C185 1.331 . S
C185 C183 1.392 . S
C185 N184 1.331 . S
O186 Zn179 1.975 . S
O186 C187 1.252 . S
C187 O186 1.252 . S
C187 O188 1.252 . S
O188 Zn170 1.975 . S
O188 C187 1.252 . S
H189 C182 0.930 . S
H190 C183 0.930 . S
C191 C192 1.392 . S
C191 N195 1.328 . S
C191 H197 0.930 . S
C192 C191 1.392 . S
C192 N196 1.331 . S
C193 C194 1.391 . S
C193 N196 1.329 . S
C193 H203 0.930 . S
C194 C193 1.391 . S
C194 N195 1.334 . S
C194 H201 0.930 . S
N195 Zn179 2.119 . S
N195 C191 1.328 . S
N195 C194 1.334 . S
N196 C192 1.331 . S
N196 C193 1.329 . S
H197 C191 0.930 . S
C198 O178 1.257 . S
C198 O199 1.244 . S
O199 C198 1.244 . S
O200 C176 1.257 . S
O200 Zn179 2.019 . S
H201 C194 0.930 . S
H202 C181 0.930 . S
H203 C193 0.930 . S
Zn204 N208 2.020 . S
Zn204 O212 2.019 . S
Zn204 N214 2.119 . S
Zn204 O222 1.975 . S
C205 N206 1.334 . S
C205 N209 1.336 . S
N206 C205 1.334 . S
N206 C207 1.334 . S
C207 N206 1.334 . S
C207 N208 1.336 . S
N208 Zn204 2.020 . S
N208 C207 1.336 . S
N208 N209 1.354 . S
N209 C205 1.336 . S
N209 N208 1.354 . S
N209 Zn213 2.020 . S
C210 O211 1.244 . S
C210 O234 1.257 . S
O211 C210 1.244 . S
O212 Zn204 2.019 . S
O212 C232 1.257 . S
Zn213 N209 2.020 . S
Zn213 O220 1.975 . S
Zn213 N229 2.119 . S
Zn213 O234 2.019 . S
N214 Zn204 2.119 . S
N214 C216 1.334 . S
N214 C217 1.328 . S
C215 C216 1.391 . S
C215 N218 1.329 1_554 S
C215 H236 0.930 . S
C216 N214 1.334 . S
C216 C215 1.391 . S
C216 H223 0.930 . S
C217 N214 1.328 . S
C217 C219 1.392 . S
C217 H224 0.930 . S
N218 C215 1.329 1_556 S
N218 C219 1.331 1_556 S
C219 C217 1.392 . S
C219 N218 1.331 1_554 S
O220 Zn213 1.975 . S
O220 C221 1.252 . S
C221 O220 1.252 . S
C221 O222 1.252 . S
O222 Zn204 1.975 . S
O222 C221 1.252 . S
H223 C216 0.930 . S
H224 C217 0.930 . S
C225 C226 1.392 . S
C225 N229 1.328 . S
C225 H231 0.930 . S
C226 C225 1.392 . S
C226 N230 1.331 . S
C227 C228 1.391 . S
C227 N230 1.329 . S
C227 H237 0.930 . S
C228 C227 1.391 . S
C228 N229 1.334 . S
C228 H235 0.930 . S
N229 Zn213 2.119 . S
N229 C225 1.328 . S
N229 C228 1.334 . S
N230 C226 1.331 . S
N230 C227 1.329 . S
H231 C225 0.930 . S
C232 O212 1.257 . S
C232 O233 1.244 . S
O233 C232 1.244 . S
O234 C210 1.257 . S
O234 Zn213 2.019 . S
H235 C228 0.930 . S
H236 C215 0.930 . S
H237 C227 0.930 . S
Zn238 N242 2.020 . S
Zn238 O246 2.019 . S
Zn238 N248 2.119 . S
Zn238 O256 1.975 . S
C239 N240 1.334 1_556 S
C239 N243 1.336 . S
N240 C239 1.334 1_554 S
N240 C241 1.334 . S
C241 N240 1.334 . S
C241 N242 1.336 . S
N242 Zn238 2.020 . S
N242 C241 1.336 . S
N242 N243 1.354 1_554 S
N243 C239 1.336 . S
N243 N242 1.354 1_556 S
N243 Zn247 2.020 . S
C244 O245 1.245 . S
C244 O268 1.257 . S
O245 C244 1.245 . S
O246 Zn238 2.019 . S
O246 C266 1.257 . S
Zn247 N243 2.020 . S
Zn247 O254 1.975 . S
Zn247 N263 2.119 . S
Zn247 O268 2.019 . S
N248 Zn238 2.119 . S
N248 C250 1.334 . S
N248 C251 1.328 . S
C249 C250 1.391 . S
C249 N252 1.329 . S
C249 H270 0.930 . S
C250 N248 1.334 . S
C250 C249 1.391 . S
C250 H257 0.930 . S
C251 N248 1.328 . S
C251 C253 1.392 . S
C251 H258 0.930 . S
N252 C249 1.329 . S
N252 C253 1.331 . S
C253 C251 1.392 . S
C253 N252 1.331 . S
O254 Zn247 1.975 . S
O254 C255 1.252 1_556 S
C255 O254 1.252 1_554 S
C255 O256 1.252 . S
O256 Zn238 1.975 . S
O256 C255 1.252 . S
H257 C250 0.930 . S
H258 C251 0.930 . S
C259 C260 1.392 . S
C259 N263 1.328 . S
C259 H265 0.930 . S
C260 C259 1.392 . S
C260 N264 1.331 . S
C261 C262 1.391 . S
C261 N264 1.329 . S
C261 H271 0.930 . S
C262 C261 1.391 . S
C262 N263 1.334 . S
C262 H269 0.930 . S
N263 Zn247 2.119 . S
N263 C259 1.328 . S
N263 C262 1.334 . S
N264 C260 1.331 . S
N264 C261 1.329 . S
H265 C259 0.930 . S
C266 O246 1.257 . S
C266 O267 1.244 . S
O267 C266 1.244 . S
O268 C244 1.257 . S
O268 Zn247 2.019 . S
H269 C262 0.930 . S
H270 C249 0.930 . S
H271 C261 0.930 . S
Zn272 N276 2.020 . S
Zn272 O280 2.019 . S
Zn272 N282 2.119 . S
Zn272 O290 1.975 . S
C273 N274 1.334 . S
C273 N277 1.336 . S
N274 C273 1.334 . S
N274 C275 1.334 . S
C275 N274 1.334 . S
C275 N276 1.336 . S
N276 Zn272 2.020 . S
N276 C275 1.336 . S
N276 N277 1.354 . S
N277 C273 1.336 . S
N277 N276 1.354 . S
N277 Zn281 2.020 . S
C278 O279 1.244 . S
C278 O302 1.257 . S
O279 C278 1.244 . S
O280 Zn272 2.019 . S
O280 C300 1.257 . S
Zn281 N277 2.020 . S
Zn281 O288 1.975 . S
Zn281 N297 2.119 . S
Zn281 O302 2.019 . S
N282 Zn272 2.119 . S
N282 C284 1.334 . S
N282 C285 1.328 . S
C283 C284 1.391 . S
C283 N286 1.329 . S
C283 H304 0.930 . S
C284 N282 1.334 . S
C284 C283 1.391 . S
C284 H291 0.930 . S
C285 N282 1.328 . S
C285 C287 1.392 . S
C285 H292 0.930 . S
N286 C283 1.329 . S
N286 C287 1.331 . S
C287 C285 1.392 . S
C287 N286 1.331 . S
O288 Zn281 1.975 . S
O288 C289 1.252 . S
C289 O288 1.252 . S
C289 O290 1.252 . S
O290 Zn272 1.975 . S
O290 C289 1.252 . S
H291 C284 0.930 . S
H292 C285 0.930 . S
C293 C294 1.392 . S
C293 N297 1.328 . S
C293 H299 0.930 . S
C294 C293 1.392 . S
C294 N298 1.331 1_556 S
C295 C296 1.391 . S
C295 N298 1.329 1_556 S
C295 H305 0.930 . S
C296 C295 1.391 . S
C296 N297 1.334 . S
C296 H303 0.930 . S
N297 Zn281 2.119 . S
N297 C293 1.328 . S
N297 C296 1.334 . S
N298 C294 1.331 1_554 S
N298 C295 1.329 1_554 S
H299 C293 0.930 . S
C300 O280 1.257 . S
C300 O301 1.244 . S
O301 C300 1.244 . S
O302 C278 1.257 . S
O302 Zn281 2.019 . S
H303 C296 0.930 . S
H304 C283 0.930 . S
H305 C295 0.930 . S
Zn306 N310 2.020 . S
Zn306 O314 2.019 . S
Zn306 N316 2.119 . S
Zn306 O324 1.975 . S
C307 N308 1.334 1_554 S
C307 N311 1.336 . S
N308 C307 1.334 1_556 S
N308 C309 1.334 . S
C309 N308 1.334 . S
C309 N310 1.336 . S
N310 Zn306 2.020 . S
N310 C309 1.336 . S
N310 N311 1.354 1_556 S
N311 C307 1.336 . S
N311 N310 1.354 1_554 S
N311 Zn315 2.020 . S
C312 O313 1.245 . S
C312 O336 1.257 . S
O313 C312 1.245 . S
O314 Zn306 2.019 . S
O314 C334 1.257 . S
Zn315 N311 2.020 . S
Zn315 O322 1.975 . S
Zn315 N331 2.119 . S
Zn315 O336 2.019 . S
N316 Zn306 2.119 . S
N316 C318 1.334 . S
N316 C319 1.328 . S
C317 C318 1.391 . S
C317 N320 1.329 . S
C317 H338 0.930 . S
C318 N316 1.334 . S
C318 C317 1.391 . S
C318 H325 0.930 . S
C319 N316 1.328 . S
C319 C321 1.392 . S
C319 H326 0.930 . S
N320 C317 1.329 . S
N320 C321 1.331 . S
C321 C319 1.392 . S
C321 N320 1.331 . S
O322 Zn315 1.975 . S
O322 C323 1.252 1_554 S
C323 O322 1.252 1_556 S
C323 O324 1.252 . S
O324 Zn306 1.975 . S
O324 C323 1.252 . S
H325 C318 0.930 . S
H326 C319 0.930 . S
C327 C328 1.392 . S
C327 N331 1.328 . S
C327 H333 0.930 . S
C328 C327 1.392 . S
C328 N332 1.331 . S
C329 C330 1.391 . S
C329 N332 1.329 . S
C329 H339 0.930 . S
C330 C329 1.391 . S
C330 N331 1.334 . S
C330 H337 0.930 . S
N331 Zn315 2.119 . S
N331 C327 1.328 . S
N331 C330 1.334 . S
N332 C328 1.331 . S
N332 C329 1.329 . S
H333 C327 0.930 . S
C334 O314 1.257 . S
C334 O335 1.244 . S
O335 C334 1.244 . S
O336 C312 1.257 . S
O336 Zn315 2.019 . S
H337 C330 0.930 . S
H338 C317 0.930 . S
H339 C329 0.930 . S
Zn340 N344 2.020 . S
Zn340 O348 2.019 . S
Zn340 N350 2.119 . S
Zn340 O358 1.975 . S
C341 N342 1.334 . S
C341 N345 1.336 . S
N342 C341 1.334 . S
N342 C343 1.334 . S
C343 N342 1.334 . S
C343 N344 1.336 . S
N344 Zn340 2.020 . S
N344 C343 1.336 . S
N344 N345 1.354 . S
N345 C341 1.336 . S
N345 N344 1.354 . S
N345 Zn349 2.020 . S
C346 O347 1.244 . S
C346 O370 1.257 . S
O347 C346 1.244 . S
O348 Zn340 2.019 . S
O348 C368 1.257 . S
Zn349 N345 2.020 . S
Zn349 O356 1.975 . S
Zn349 N365 2.119 . S
Zn349 O370 2.019 . S
N350 Zn340 2.119 . S
N350 C352 1.334 . S
N350 C353 1.328 . S
C351 C352 1.391 . S
C351 N354 1.329 1_554 S
C351 H372 0.930 . S
C352 N350 1.334 . S
C352 C351 1.391 . S
C352 H359 0.930 . S
C353 N350 1.328 . S
C353 C355 1.392 1_554 S
C353 H360 0.930 . S
N354 C351 1.329 1_556 S
N354 C355 1.331 . S
C355 C353 1.392 1_556 S
C355 N354 1.331 . S
O356 Zn349 1.975 . S
O356 C357 1.252 . S
C357 O356 1.252 . S
C357 O358 1.252 . S
O358 Zn340 1.975 . S
O358 C357 1.252 . S
H359 C352 0.930 . S
H360 C353 0.930 . S
C361 C362 1.392 . S
C361 N365 1.328 . S
C361 H367 0.930 . S
C362 C361 1.392 . S
C362 N366 1.331 . S
C363 C364 1.391 . S
C363 N366 1.329 . S
C363 H373 0.930 . S
C364 C363 1.391 . S
C364 N365 1.334 . S
C364 H371 0.930 . S
N365 Zn349 2.119 . S
N365 C361 1.328 . S
N365 C364 1.334 . S
N366 C362 1.331 . S
N366 C363 1.329 . S
H367 C361 0.930 . S
C368 O348 1.257 . S
C368 O369 1.244 . S
O369 C368 1.244 . S
O370 C346 1.257 . S
O370 Zn349 2.019 . S
H371 C364 0.930 . S
H372 C351 0.930 . S
H373 C363 0.930 . S
Zn374 N378 2.020 . S
Zn374 O382 2.019 . S
Zn374 N384 2.119 . S
Zn374 O392 1.975 . S
C375 N376 1.334 . S
C375 N379 1.336 . S
N376 C375 1.334 . S
N376 C377 1.334 . S
C377 N376 1.334 . S
C377 N378 1.336 . S
N378 Zn374 2.020 . S
N378 C377 1.336 . S
N378 N379 1.354 . S
N379 C375 1.336 . S
N379 N378 1.354 . S
N379 Zn383 2.020 . S
C380 O381 1.244 . S
C380 O404 1.257 . S
O381 C380 1.244 . S
O382 Zn374 2.019 . S
O382 C402 1.257 . S
Zn383 N379 2.020 . S
Zn383 O390 1.975 . S
Zn383 N399 2.119 . S
Zn383 O404 2.019 . S
N384 Zn374 2.119 . S
N384 C386 1.334 . S
N384 C387 1.328 . S
C385 C386 1.391 . S
C385 N388 1.329 . S
C385 H406 0.930 . S
C386 N384 1.334 . S
C386 C385 1.391 . S
C386 H393 0.930 . S
C387 N384 1.328 . S
C387 C389 1.392 . S
C387 H394 0.930 . S
N388 C385 1.329 . S
N388 C389 1.331 . S
C389 C387 1.392 . S
C389 N388 1.331 . S
O390 Zn383 1.975 . S
O390 C391 1.252 . S
C391 O390 1.252 . S
C391 O392 1.252 . S
O392 Zn374 1.975 . S
O392 C391 1.252 . S
H393 C386 0.930 . S
H394 C387 0.930 . S
C395 C396 1.392 . S
C395 N399 1.328 . S
C395 H401 0.930 . S
C396 C395 1.392 . S
C396 N400 1.331 . S
C397 C398 1.391 . S
C397 N400 1.329 . S
C397 H407 0.930 . S
C398 C397 1.391 . S
C398 N399 1.334 . S
C398 H405 0.930 . S
N399 Zn383 2.119 . S
N399 C395 1.328 . S
N399 C398 1.334 . S
N400 C396 1.331 . S
N400 C397 1.329 . S
H401 C395 0.930 . S
C402 O382 1.257 . S
C402 O403 1.244 . S
O403 C402 1.244 . S
O404 C380 1.257 . S
O404 Zn383 2.019 . S
H405 C398 0.930 . S
H406 C385 0.930 . S
H407 C397 0.930 . S
Zn408 N412 2.020 . S
Zn408 O416 2.019 . S
Zn408 N418 2.119 . S
Zn408 O426 1.975 . S
C409 N410 1.334 . S
C409 N413 1.336 . S
N410 C409 1.334 . S
N410 C411 1.334 . S
C411 N410 1.334 . S
C411 N412 1.336 . S
N412 Zn408 2.020 . S
N412 C411 1.336 . S
N412 N413 1.354 . S
N413 C409 1.336 . S
N413 N412 1.354 . S
N413 Zn417 2.020 . S
C414 O415 1.244 . S
C414 O438 1.257 . S
O415 C414 1.244 . S
O416 Zn408 2.019 . S
O416 C436 1.257 . S
Zn417 N413 2.020 . S
Zn417 O424 1.975 . S
Zn417 N433 2.119 . S
Zn417 O438 2.019 . S
N418 Zn408 2.119 . S
N418 C420 1.334 . S
N418 C421 1.328 . S
C419 C420 1.391 . S
C419 N422 1.329 1_554 S
C419 H440 0.930 . S
C420 N418 1.334 . S
C420 C419 1.391 . S
C420 H427 0.930 . S
C421 N418 1.328 . S
C421 C423 1.392 . S
C421 H428 0.930 . S
N422 C419 1.329 1_556 S
N422 C423 1.331 1_556 S
C423 C421 1.392 . S
C423 N422 1.331 1_554 S
O424 Zn417 1.975 . S
O424 C425 1.252 . S
C425 O424 1.252 . S
C425 O426 1.252 . S
O426 Zn408 1.975 . S
O426 C425 1.252 . S
H427 C420 0.930 . S
H428 C421 0.930 . S
C429 C430 1.392 . S
C429 N433 1.328 . S
C429 H435 0.930 . S
C430 C429 1.392 . S
C430 N434 1.331 . S
C431 C432 1.391 . S
C431 N434 1.329 . S
C431 H441 0.930 . S
C432 C431 1.391 . S
C432 N433 1.334 . S
C432 H439 0.930 . S
N433 Zn417 2.119 . S
N433 C429 1.328 . S
N433 C432 1.334 . S
N434 C430 1.331 . S
N434 C431 1.329 . S
H435 C429 0.930 . S
C436 O416 1.257 . S
C436 O437 1.244 . S
O437 C436 1.244 . S
O438 C414 1.257 . S
O438 Zn417 2.019 . S
H439 C432 0.930 . S
H440 C419 0.930 . S
H441 C431 0.930 . S
Zn442 N446 2.020 . S
Zn442 O450 2.019 . S
Zn442 N452 2.119 . S
Zn442 O460 1.975 . S
C443 N444 1.334 . S
C443 N447 1.336 . S
N444 C443 1.334 . S
N444 C445 1.334 1_554 S
C445 N444 1.334 1_556 S
C445 N446 1.336 . S
N446 Zn442 2.020 . S
N446 C445 1.336 . S
N446 N447 1.354 1_556 S
N447 C443 1.336 . S
N447 N446 1.354 1_554 S
N447 Zn451 2.020 . S
C448 O449 1.244 . S
C448 O472 1.257 . S
O449 C448 1.244 . S
O450 Zn442 2.019 . S
O450 C470 1.257 . S
Zn451 N447 2.020 . S
Zn451 O458 1.975 . S
Zn451 N467 2.119 . S
Zn451 O472 2.019 . S
N452 Zn442 2.119 . S
N452 C454 1.334 . S
N452 C455 1.328 . S
C453 C454 1.391 . S
C453 N456 1.329 . S
C453 H474 0.930 . S
C454 N452 1.334 . S
C454 C453 1.391 . S
C454 H461 0.930 . S
C455 N452 1.328 . S
C455 C457 1.392 . S
C455 H462 0.930 . S
N456 C453 1.329 . S
N456 C457 1.331 . S
C457 C455 1.392 . S
C457 N456 1.331 . S
O458 Zn451 1.975 . S
O458 C459 1.252 . S
C459 O458 1.252 . S
C459 O460 1.252 1_554 S
O460 Zn442 1.975 . S
O460 C459 1.252 1_556 S
H461 C454 0.930 . S
H462 C455 0.930 . S
C463 C464 1.392 . S
C463 N467 1.328 . S
C463 H469 0.930 . S
C464 C463 1.392 . S
C464 N468 1.331 . S
C465 C466 1.391 . S
C465 N468 1.329 . S
C465 H475 0.930 . S
C466 C465 1.391 . S
C466 N467 1.334 . S
C466 H473 0.930 . S
N467 Zn451 2.119 . S
N467 C463 1.328 . S
N467 C466 1.334 . S
N468 C464 1.331 . S
N468 C465 1.329 . S
H469 C463 0.930 . S
C470 O450 1.257 . S
C470 O471 1.245 . S
O471 C470 1.245 . S
O472 C448 1.257 . S
O472 Zn451 2.019 . S
H473 C466 0.930 . S
H474 C453 0.930 . S
H475 C465 0.930 . S
Zn476 N480 2.020 . S
Zn476 O484 2.019 . S
Zn476 N486 2.119 . S
Zn476 O494 1.975 . S
C477 N478 1.334 . S
C477 N481 1.336 . S
N478 C477 1.334 . S
N478 C479 1.334 . S
C479 N478 1.334 . S
C479 N480 1.336 . S
N480 Zn476 2.020 . S
N480 C479 1.336 . S
N480 N481 1.354 . S
N481 C477 1.336 . S
N481 N480 1.354 . S
N481 Zn485 2.020 . S
C482 O483 1.244 . S
C482 O506 1.257 . S
O483 C482 1.244 . S
O484 Zn476 2.019 . S
O484 C504 1.257 . S
Zn485 N481 2.020 . S
Zn485 O492 1.975 . S
Zn485 N501 2.119 . S
Zn485 O506 2.019 . S
N486 Zn476 2.119 . S
N486 C488 1.334 . S
N486 C489 1.328 . S
C487 C488 1.391 . S
C487 N490 1.329 . S
C487 H508 0.930 . S
C488 N486 1.334 . S
C488 C487 1.391 . S
C488 H495 0.930 . S
C489 N486 1.328 . S
C489 C491 1.392 . S
C489 H496 0.930 . S
N490 C487 1.329 . S
N490 C491 1.331 . S
C491 C489 1.392 . S
C491 N490 1.331 . S
O492 Zn485 1.975 . S
O492 C493 1.252 . S
C493 O492 1.252 . S
C493 O494 1.252 . S
O494 Zn476 1.975 . S
O494 C493 1.252 . S
H495 C488 0.930 . S
H496 C489 0.930 . S
C497 C498 1.392 1_556 S
C497 N501 1.328 . S
C497 H503 0.930 . S
C498 C497 1.392 1_554 S
C498 N502 1.331 . S
C499 C500 1.391 . S
C499 N502 1.329 1_556 S
C499 H509 0.930 . S
C500 C499 1.391 . S
C500 N501 1.334 . S
C500 H507 0.930 . S
N501 Zn485 2.119 . S
N501 C497 1.328 . S
N501 C500 1.334 . S
N502 C498 1.331 . S
N502 C499 1.329 1_554 S
H503 C497 0.930 . S
C504 O484 1.257 . S
C504 O505 1.244 . S
O505 C504 1.244 . S
O506 C482 1.257 . S
O506 Zn485 2.019 . S
H507 C500 0.930 . S
H508 C487 0.930 . S
H509 C499 0.930 . S
Zn510 N514 2.020 . S
Zn510 O518 2.019 . S
Zn510 N520 2.119 . S
Zn510 O528 1.975 . S
C511 N512 1.334 . S
C511 N515 1.336 . S
N512 C511 1.334 . S
N512 C513 1.334 . S
C513 N512 1.334 . S
C513 N514 1.336 . S
N514 Zn510 2.020 . S
N514 C513 1.336 . S
N514 N515 1.354 . S
N515 C511 1.336 . S
N515 N514 1.354 . S
N515 Zn519 2.020 . S
C516 O517 1.244 . S
C516 O540 1.257 . S
O517 C516 1.244 . S
O518 Zn510 2.019 . S
O518 C538 1.257 . S
Zn519 N515 2.020 . S
Zn519 O526 1.975 . S
Zn519 N535 2.119 . S
Zn519 O540 2.019 . S
N520 Zn510 2.119 . S
N520 C522 1.334 . S
N520 C523 1.328 . S
C521 C522 1.391 . S
C521 N524 1.329 . S
C521 H542 0.930 . S
C522 N520 1.334 . S
C522 C521 1.391 . S
C522 H529 0.930 . S
C523 N520 1.328 . S
C523 C525 1.392 . S
C523 H530 0.930 . S
N524 C521 1.329 . S
N524 C525 1.331 . S
C525 C523 1.392 . S
C525 N524 1.331 . S
O526 Zn519 1.975 . S
O526 C527 1.252 . S
C527 O526 1.252 . S
C527 O528 1.252 . S
O528 Zn510 1.975 . S
O528 C527 1.252 . S
H529 C522 0.930 . S
H530 C523 0.930 . S
C531 C532 1.392 . S
C531 N535 1.328 . S
C531 H537 0.930 . S
C532 C531 1.392 . S
C532 N536 1.331 . S
C533 C534 1.391 . S
C533 N536 1.329 . S
C533 H543 0.930 . S
C534 C533 1.391 . S
C534 N535 1.334 . S
C534 H541 0.930 . S
N535 Zn519 2.119 . S
N535 C531 1.328 . S
N535 C534 1.334 . S
N536 C532 1.331 . S
N536 C533 1.329 . S
H537 C531 0.930 . S
C538 O518 1.257 . S
C538 O539 1.244 . S
O539 C538 1.244 . S
O540 C516 1.257 . S
O540 Zn519 2.019 . S
H541 C534 0.930 . S
H542 C521 0.930 . S
H543 C533 0.930 . S
H544 C550 0.930 . S
H545 C554 0.930 . S
H546 C559 0.929 . S
H547 C557 0.929 . S
H548 C552 0.929 . S
H549 C558 0.929 . S
C550 H544 0.930 . S
C550 C551 1.367 . S
C550 C558 1.378 . S
C551 C550 1.367 . S
C551 C559 1.433 . S
C552 H548 0.929 . S
C552 C554 1.378 . S
C552 C556 1.350 . S
C553 C556 1.463 . S
C553 C558 1.350 . S
C553 N561 1.427 . S
C554 H545 0.930 . S
C554 C552 1.378 . S
C554 C555 1.367 . S
C555 C554 1.367 . S
C555 C557 1.433 . S
C556 C552 1.350 . S
C556 C553 1.463 . S
C556 N560 1.427 . S
C557 H547 0.929 . S
C557 C555 1.433 . S
C557 N560 1.384 . S
C558 H549 0.929 . S
C558 C550 1.378 . S
C558 C553 1.350 . S
C559 H546 0.929 . S
C559 C551 1.433 . S
C559 N561 1.384 . S
N560 C556 1.427 . S
N560 C557 1.384 . S
N561 C553 1.427 . S
N561 C559 1.384 . S
H562 C568 0.930 . S
H563 C572 0.930 . S
H564 C577 0.929 . S
H565 C575 0.929 . S
H566 C570 0.929 . S
H567 C576 0.929 . S
C568 H562 0.930 . S
C568 C569 1.367 . S
C568 C576 1.378 . S
C569 C568 1.367 . S
C569 C577 1.433 . S
C570 H566 0.929 . S
C570 C572 1.378 . S
C570 C574 1.350 . S
C571 C574 1.463 1_556 S
C571 C576 1.350 . S
C571 N579 1.427 . S
C572 H563 0.930 . S
C572 C570 1.378 . S
C572 C573 1.367 . S
C573 C572 1.367 . S
C573 C575 1.433 . S
C574 C570 1.350 . S
C574 C571 1.463 1_554 S
C574 N578 1.427 . S
C575 H565 0.929 . S
C575 C573 1.433 . S
C575 N578 1.384 . S
C576 H567 0.929 . S
C576 C568 1.378 . S
C576 C571 1.350 . S
C577 H564 0.929 . S
C577 C569 1.433 . S
C577 N579 1.384 . S
N578 C574 1.427 . S
N578 C575 1.384 . S
N579 C571 1.427 . S
N579 C577 1.384 . S
H580 C586 0.930 . S
H581 C590 0.930 . S
H582 C595 0.929 . S
H583 C593 0.929 . S
H584 C588 0.929 . S
H585 C594 0.929 . S
C586 H580 0.930 . S
C586 C587 1.367 . S
C586 C594 1.378 . S
C587 C586 1.367 . S
C587 C595 1.433 . S
C588 H584 0.929 . S
C588 C590 1.378 . S
C588 C592 1.350 . S
C589 C592 1.463 . S
C589 C594 1.350 . S
C589 N597 1.427 . S
C590 H581 0.930 . S
C590 C588 1.378 . S
C590 C591 1.367 . S
C591 C590 1.367 . S
C591 C593 1.433 . S
C592 C588 1.350 . S
C592 C589 1.463 . S
C592 N596 1.427 . S
C593 H583 0.929 . S
C593 C591 1.433 . S
C593 N596 1.384 . S
C594 H585 0.929 . S
C594 C586 1.378 . S
C594 C589 1.350 . S
C595 H582 0.929 . S
C595 C587 1.433 . S
C595 N597 1.384 . S
N596 C592 1.427 . S
N596 C593 1.384 . S
N597 C589 1.427 . S
N597 C595 1.384 . S
H598 C604 0.930 . S
H599 C608 0.930 . S
H600 C613 0.929 . S
H601 C611 0.929 . S
H602 C606 0.929 . S
H603 C612 0.929 . S
C604 H598 0.930 . S
C604 C605 1.367 . S
C604 C612 1.378 . S
C605 C604 1.367 . S
C605 C613 1.433 . S
C606 H602 0.929 . S
C606 C608 1.378 . S
C606 C610 1.350 . S
C607 C610 1.463 . S
C607 C612 1.350 . S
C607 N615 1.427 . S
C608 H599 0.930 . S
C608 C606 1.378 . S
C608 C609 1.367 . S
C609 C608 1.367 . S
C609 C611 1.433 . S
C610 C606 1.350 . S
C610 C607 1.463 . S
C610 N614 1.427 . S
C611 H601 0.929 . S
C611 C609 1.433 . S
C611 N614 1.384 . S
C612 H603 0.929 . S
C612 C604 1.378 . S
C612 C607 1.350 . S
C613 H600 0.929 . S
C613 C605 1.433 . S
C613 N615 1.384 . S
N614 C610 1.427 . S
N614 C611 1.384 . S
N615 C607 1.427 . S
N615 C613 1.384 . S
H616 C622 0.930 . S
H617 C626 0.930 . S
H618 C631 0.929 . S
H619 C629 0.929 . S
H620 C624 0.929 . S
H621 C630 0.929 . S
C622 H616 0.930 . S
C622 C623 1.367 . S
C622 C630 1.378 . S
C623 C622 1.367 . S
C623 C631 1.433 . S
C624 H620 0.929 . S
C624 C626 1.378 . S
C624 C628 1.350 . S
C625 C628 1.463 . S
C625 C630 1.350 . S
C625 N633 1.427 . S
C626 H617 0.930 . S
C626 C624 1.378 . S
C626 C627 1.367 . S
C627 C626 1.367 . S
C627 C629 1.433 . S
C628 C624 1.350 . S
C628 C625 1.463 . S
C628 N632 1.427 . S
C629 H619 0.929 . S
C629 C627 1.433 . S
C629 N632 1.384 . S
C630 H621 0.929 . S
C630 C622 1.378 . S
C630 C625 1.350 . S
C631 H618 0.929 . S
C631 C623 1.433 . S
C631 N633 1.384 . S
N632 C628 1.427 . S
N632 C629 1.384 . S
N633 C625 1.427 . S
N633 C631 1.384 . S
H634 C640 0.930 . S
H635 C644 0.930 . S
H636 C649 0.929 . S
H637 C647 0.929 . S
H638 C642 0.929 . S
H639 C648 0.929 . S
C640 H634 0.930 . S
C640 C641 1.367 . S
C640 C648 1.378 . S
C641 C640 1.367 . S
C641 C649 1.433 . S
C642 H638 0.929 . S
C642 C644 1.378 . S
C642 C646 1.350 . S
C643 C646 1.463 1_556 S
C643 C648 1.350 . S
C643 N651 1.427 . S
C644 H635 0.930 . S
C644 C642 1.378 . S
C644 C645 1.367 . S
C645 C644 1.367 . S
C645 C647 1.433 . S
C646 C642 1.350 . S
C646 C643 1.463 1_554 S
C646 N650 1.427 . S
C647 H637 0.929 . S
C647 C645 1.433 . S
C647 N650 1.384 . S
C648 H639 0.929 . S
C648 C640 1.378 . S
C648 C643 1.350 . S
C649 H636 0.929 . S
C649 C641 1.433 . S
C649 N651 1.384 . S
N650 C646 1.427 . S
N650 C647 1.384 . S
N651 C643 1.427 . S
N651 C649 1.384 . S
H652 C658 0.930 . S
H653 C662 0.930 . S
H654 C667 0.929 . S
H655 C665 0.929 . S
H656 C660 0.929 . S
H657 C666 0.929 . S
C658 H652 0.930 . S
C658 C659 1.367 . S
C658 C666 1.378 . S
C659 C658 1.367 . S
C659 C667 1.433 . S
C660 H656 0.929 . S
C660 C662 1.378 . S
C660 C664 1.350 . S
C661 C664 1.463 . S
C661 C666 1.350 . S
C661 N669 1.427 . S
C662 H653 0.930 . S
C662 C660 1.378 . S
C662 C663 1.367 . S
C663 C662 1.367 . S
C663 C665 1.433 . S
C664 C660 1.350 . S
C664 C661 1.463 . S
C664 N668 1.427 . S
C665 H655 0.929 . S
C665 C663 1.433 . S
C665 N668 1.384 . S
C666 H657 0.929 . S
C666 C658 1.378 . S
C666 C661 1.350 . S
C667 H654 0.929 . S
C667 C659 1.433 . S
C667 N669 1.384 . S
N668 C664 1.427 . S
N668 C665 1.384 . S
N669 C661 1.427 . S
N669 C667 1.384 . S
H670 C676 0.930 . S
H671 C680 0.930 . S
H672 C685 0.929 . S
H673 C683 0.929 . S
H674 C678 0.929 . S
H675 C684 0.929 . S
C676 H670 0.930 . S
C676 C677 1.367 . S
C676 C684 1.378 . S
C677 C676 1.367 . S
C677 C685 1.433 . S
C678 H674 0.929 . S
C678 C680 1.378 . S
C678 C682 1.350 . S
C679 C682 1.463 . S
C679 C684 1.350 . S
C679 N687 1.427 . S
C680 H671 0.930 . S
C680 C678 1.378 . S
C680 C681 1.367 . S
C681 C680 1.367 . S
C681 C683 1.433 . S
C682 C678 1.350 . S
C682 C679 1.463 . S
C682 N686 1.427 . S
C683 H673 0.929 . S
C683 C681 1.433 . S
C683 N686 1.384 . S
C684 H675 0.929 . S
C684 C676 1.378 . S
C684 C679 1.350 . S
C685 H672 0.929 . S
C685 C677 1.433 . S
C685 N687 1.384 . S
N686 C682 1.427 . S
N686 C683 1.384 . S
N687 C679 1.427 . S
N687 C685 1.384 . S
H688 C694 0.930 . S
H689 C698 0.930 . S
H690 C703 0.929 . S
H691 C701 0.929 . S
H692 C696 0.929 . S
H693 C702 0.929 . S
C694 H688 0.930 . S
C694 C695 1.367 . S
C694 C702 1.378 . S
C695 C694 1.367 . S
C695 C703 1.433 . S
C696 H692 0.929 . S
C696 C698 1.378 . S
C696 C700 1.350 . S
C697 C700 1.463 . S
C697 C702 1.350 . S
C697 N705 1.427 . S
C698 H689 0.930 . S
C698 C696 1.378 . S
C698 C699 1.367 . S
C699 C698 1.367 . S
C699 C701 1.433 . S
C700 C696 1.350 . S
C700 C697 1.463 . S
C700 N704 1.427 . S
C701 H691 0.929 . S
C701 C699 1.433 . S
C701 N704 1.384 . S
C702 H693 0.929 . S
C702 C694 1.378 . S
C702 C697 1.350 . S
C703 H690 0.929 . S
C703 C695 1.433 . S
C703 N705 1.384 . S
N704 C700 1.427 . S
N704 C701 1.384 . S
N705 C697 1.427 . S
N705 C703 1.384 . S
H706 C712 0.930 . S
H707 C716 0.930 . S
H708 C721 0.929 . S
H709 C719 0.929 . S
H710 C714 0.929 . S
H711 C720 0.929 . S
C712 H706 0.930 . S
C712 C713 1.367 . S
C712 C720 1.378 . S
C713 C712 1.367 . S
C713 C721 1.433 . S
C714 H710 0.929 . S
C714 C716 1.378 . S
C714 C718 1.350 . S
C715 C718 1.463 . S
C715 C720 1.350 . S
C715 N723 1.427 . S
C716 H707 0.930 . S
C716 C714 1.378 . S
C716 C717 1.367 . S
C717 C716 1.367 . S
C717 C719 1.433 . S
C718 C714 1.350 . S
C718 C715 1.463 . S
C718 N722 1.427 . S
C719 H709 0.929 . S
C719 C717 1.433 . S
C719 N722 1.384 . S
C720 H711 0.929 . S
C720 C712 1.378 . S
C720 C715 1.350 . S
C721 H708 0.929 . S
C721 C713 1.433 . S
C721 N723 1.384 . S
N722 C718 1.427 . S
N722 C719 1.384 . S
N723 C715 1.427 . S
N723 C721 1.384 . S
H724 C730 0.930 . S
H725 C734 0.930 . S
H726 C739 0.929 . S
H727 C737 0.929 . S
H728 C732 0.929 . S
H729 C738 0.929 . S
C730 H724 0.930 . S
C730 C731 1.367 . S
C730 C738 1.378 . S
C731 C730 1.367 . S
C731 C739 1.433 . S
C732 H728 0.929 . S
C732 C734 1.378 . S
C732 C736 1.350 . S
C733 C736 1.463 . S
C733 C738 1.350 . S
C733 N741 1.427 . S
C734 H725 0.930 . S
C734 C732 1.378 . S
C734 C735 1.367 . S
C735 C734 1.367 . S
C735 C737 1.433 . S
C736 C732 1.350 . S
C736 C733 1.463 . S
C736 N740 1.427 . S
C737 H727 0.929 . S
C737 C735 1.433 . S
C737 N740 1.384 . S
C738 H729 0.929 . S
C738 C730 1.378 . S
C738 C733 1.350 . S
C739 H726 0.929 . S
C739 C731 1.433 . S
C739 N741 1.384 . S
N740 C736 1.427 . S
N740 C737 1.384 . S
N741 C733 1.427 . S
N741 C739 1.384 . S
H742 C748 0.930 . S
H743 C752 0.930 . S
H744 C757 0.929 . S
H745 C755 0.929 . S
H746 C750 0.929 . S
H747 C756 0.929 . S
C748 H742 0.930 . S
C748 C749 1.367 . S
C748 C756 1.378 . S
C749 C748 1.367 . S
C749 C757 1.433 . S
C750 H746 0.929 . S
C750 C752 1.378 . S
C750 C754 1.350 . S
C751 C754 1.463 1_556 S
C751 C756 1.350 . S
C751 N759 1.427 . S
C752 H743 0.930 . S
C752 C750 1.378 . S
C752 C753 1.367 . S
C753 C752 1.367 . S
C753 C755 1.433 . S
C754 C750 1.350 . S
C754 C751 1.463 1_554 S
C754 N758 1.427 . S
C755 H745 0.929 . S
C755 C753 1.433 . S
C755 N758 1.384 . S
C756 H747 0.929 . S
C756 C748 1.378 . S
C756 C751 1.350 . S
C757 H744 0.929 . S
C757 C749 1.433 . S
C757 N759 1.384 . S
N758 C754 1.427 . S
N758 C755 1.384 . S
N759 C751 1.427 . S
N759 C757 1.384 . S
H760 C766 0.930 . S
H761 C770 0.930 . S
H762 C775 0.929 . S
H763 C773 0.929 . S
H764 C768 0.929 . S
H765 C774 0.929 . S
C766 H760 0.930 . S
C766 C767 1.367 . S
C766 C774 1.378 . S
C767 C766 1.367 . S
C767 C775 1.433 . S
C768 H764 0.929 . S
C768 C770 1.378 . S
C768 C772 1.350 . S
C769 C772 1.463 . S
C769 C774 1.350 . S
C769 N777 1.427 . S
C770 H761 0.930 . S
C770 C768 1.378 . S
C770 C771 1.367 . S
C771 C770 1.367 . S
C771 C773 1.433 . S
C772 C768 1.350 . S
C772 C769 1.463 . S
C772 N776 1.427 . S
C773 H763 0.929 . S
C773 C771 1.433 . S
C773 N776 1.384 . S
C774 H765 0.929 . S
C774 C766 1.378 . S
C774 C769 1.350 . S
C775 H762 0.929 . S
C775 C767 1.433 . S
C775 N777 1.384 . S
N776 C772 1.427 . S
N776 C773 1.384 . S
N777 C769 1.427 . S
N777 C775 1.384 . S
H778 C784 0.930 . S
H779 C788 0.930 . S
H780 C793 0.929 . S
H781 C791 0.929 . S
H782 C786 0.929 . S
H783 C792 0.929 . S
C784 H778 0.930 . S
C784 C785 1.367 . S
C784 C792 1.378 . S
C785 C784 1.367 . S
C785 C793 1.433 . S
C786 H782 0.929 . S
C786 C788 1.378 . S
C786 C790 1.350 . S
C787 C790 1.463 . S
C787 C792 1.350 . S
C787 N795 1.427 . S
C788 H779 0.930 . S
C788 C786 1.378 . S
C788 C789 1.367 . S
C789 C788 1.367 . S
C789 C791 1.433 . S
C790 C786 1.350 . S
C790 C787 1.463 . S
C790 N794 1.427 . S
C791 H781 0.929 . S
C791 C789 1.433 . S
C791 N794 1.384 . S
C792 H783 0.929 . S
C792 C784 1.378 . S
C792 C787 1.350 . S
C793 H780 0.929 . S
C793 C785 1.433 . S
C793 N795 1.384 . S
N794 C790 1.427 . S
N794 C791 1.384 . S
N795 C787 1.427 . S
N795 C793 1.384 . S
H796 C802 0.930 . S
H797 C806 0.930 . S
H798 C811 0.929 . S
H799 C809 0.929 . S
H800 C804 0.929 . S
H801 C810 0.929 . S
C802 H796 0.930 . S
C802 C803 1.367 . S
C802 C810 1.378 . S
C803 C802 1.367 . S
C803 C811 1.433 . S
C804 H800 0.929 . S
C804 C806 1.378 . S
C804 C808 1.350 . S
C805 C808 1.463 . S
C805 C810 1.350 . S
C805 N813 1.427 . S
C806 H797 0.930 . S
C806 C804 1.378 . S
C806 C807 1.367 . S
C807 C806 1.367 . S
C807 C809 1.433 . S
C808 C804 1.350 . S
C808 C805 1.463 . S
C808 N812 1.427 . S
C809 H799 0.929 . S
C809 C807 1.433 . S
C809 N812 1.384 . S
C810 H801 0.929 . S
C810 C802 1.378 . S
C810 C805 1.350 . S
C811 H798 0.929 . S
C811 C803 1.433 . S
C811 N813 1.384 . S
N812 C808 1.427 . S
N812 C809 1.384 . S
N813 C805 1.427 . S
N813 C811 1.384 . S
H814 C820 0.930 . S
H815 C824 0.930 . S
H816 C829 0.929 . S
H817 C827 0.929 . S
H818 C822 0.929 . S
H819 C828 0.929 . S
C820 H814 0.930 . S
C820 C821 1.367 . S
C820 C828 1.378 . S
C821 C820 1.367 . S
C821 C829 1.433 . S
C822 H818 0.929 . S
C822 C824 1.378 . S
C822 C826 1.350 . S
C823 C826 1.463 1_554 S
C823 C828 1.350 . S
C823 N831 1.427 . S
C824 H815 0.930 . S
C824 C822 1.378 . S
C824 C825 1.367 . S
C825 C824 1.367 . S
C825 C827 1.433 . S
C826 C822 1.350 . S
C826 C823 1.463 1_556 S
C826 N830 1.427 . S
C827 H817 0.929 . S
C827 C825 1.433 . S
C827 N830 1.384 . S
C828 H819 0.929 . S
C828 C820 1.378 . S
C828 C823 1.350 . S
C829 H816 0.929 . S
C829 C821 1.433 . S
C829 N831 1.384 . S
N830 C826 1.427 . S
N830 C827 1.384 . S
N831 C823 1.427 . S
N831 C829 1.384 . S
H832 C838 0.930 . S
H833 C842 0.930 . S
H834 C847 0.929 . S
H835 C845 0.929 . S
H836 C840 0.929 . S
H837 C846 0.929 . S
C838 H832 0.930 . S
C838 C839 1.367 . S
C838 C846 1.378 . S
C839 C838 1.367 . S
C839 C847 1.433 . S
C840 H836 0.929 . S
C840 C842 1.378 . S
C840 C844 1.350 . S
C841 C844 1.463 . S
C841 C846 1.350 . S
C841 N849 1.427 . S
C842 H833 0.930 . S
C842 C840 1.378 . S
C842 C843 1.367 . S
C843 C842 1.367 . S
C843 C845 1.433 . S
C844 C840 1.350 . S
C844 C841 1.463 . S
C844 N848 1.427 . S
C845 H835 0.929 . S
C845 C843 1.433 . S
C845 N848 1.384 . S
C846 H837 0.929 . S
C846 C838 1.378 . S
C846 C841 1.350 . S
C847 H834 0.929 . S
C847 C839 1.433 . S
C847 N849 1.384 . S
N848 C844 1.427 . S
N848 C845 1.384 . S
N849 C841 1.427 . S
N849 C847 1.384 . S
H850 C856 0.930 . S
H851 C860 0.930 . S
H852 C865 0.929 . S
H853 C863 0.929 . S
H854 C858 0.929 . S
H855 C864 0.929 . S
C856 H850 0.930 . S
C856 C857 1.367 . S
C856 C864 1.378 . S
C857 C856 1.367 . S
C857 C865 1.433 . S
C858 H854 0.929 . S
C858 C860 1.378 . S
C858 C862 1.350 . S
C859 C862 1.463 . S
C859 C864 1.350 . S
C859 N867 1.427 . S
C860 H851 0.930 . S
C860 C858 1.378 . S
C860 C861 1.367 . S
C861 C860 1.367 . S
C861 C863 1.433 . S
C862 C858 1.350 . S
C862 C859 1.463 . S
C862 N866 1.427 . S
C863 H853 0.929 . S
C863 C861 1.433 . S
C863 N866 1.384 . S
C864 H855 0.929 . S
C864 C856 1.378 . S
C864 C859 1.350 . S
C865 H852 0.929 . S
C865 C857 1.433 . S
C865 N867 1.384 . S
N866 C862 1.427 . S
N866 C863 1.384 . S
N867 C859 1.427 . S
N867 C865 1.384 . S
H868 C874 0.930 . S
H869 C878 0.930 . S
H870 C883 0.929 . S
H871 C881 0.929 . S
H872 C876 0.929 . S
H873 C882 0.929 . S
C874 H868 0.930 . S
C874 C875 1.367 . S
C874 C882 1.378 . S
C875 C874 1.367 . S
C875 C883 1.433 . S
C876 H872 0.929 . S
C876 C878 1.378 . S
C876 C880 1.350 . S
C877 C880 1.463 . S
C877 C882 1.350 . S
C877 N885 1.427 . S
C878 H869 0.930 . S
C878 C876 1.378 . S
C878 C879 1.367 . S
C879 C878 1.367 . S
C879 C881 1.433 . S
C880 C876 1.350 . S
C880 C877 1.463 . S
C880 N884 1.427 . S
C881 H871 0.929 . S
C881 C879 1.433 . S
C881 N884 1.384 . S
C882 H873 0.929 . S
C882 C874 1.378 . S
C882 C877 1.350 . S
C883 H870 0.929 . S
C883 C875 1.433 . S
C883 N885 1.384 . S
N884 C880 1.427 . S
N884 C881 1.384 . S
N885 C877 1.427 . S
N885 C883 1.384 . S
H886 C892 0.930 . S
H887 C896 0.930 . S
H888 C901 0.929 . S
H889 C899 0.929 . S
H890 C894 0.929 1_455 S
H891 C900 0.929 1_655 S
C892 H886 0.930 . S
C892 C893 1.367 . S
C892 C900 1.378 . S
C893 C892 1.367 . S
C893 C901 1.433 1_556 S
C894 H890 0.929 1_655 S
C894 C896 1.378 . S
C894 C898 1.350 . S
C895 C898 1.463 1_456 S
C895 C900 1.350 . S
C895 N903 1.427 1_556 S
C896 H887 0.930 . S
C896 C894 1.378 . S
C896 C897 1.367 . S
C897 C896 1.367 . S
C897 C899 1.433 1_554 S
C898 C894 1.350 . S
C898 C895 1.463 1_654 S
C898 N902 1.427 1_554 S
C899 H889 0.929 . S
C899 C897 1.433 1_556 S
C899 N902 1.384 . S
C900 H891 0.929 1_455 S
C900 C892 1.378 . S
C900 C895 1.350 . S
C901 H888 0.929 . S
C901 C893 1.433 1_554 S
C901 N903 1.384 . S
N902 C898 1.427 1_556 S
N902 C899 1.384 . S
N903 C895 1.427 1_554 S
N903 C901 1.384 . S
H904 C910 0.930 . S
H905 C914 0.930 . S
H906 C919 0.929 . S
H907 C917 0.929 . S
H908 C912 0.929 . S
H909 C918 0.929 . S
C910 H904 0.930 . S
C910 C911 1.367 . S
C910 C918 1.378 . S
C911 C910 1.367 . S
C911 C919 1.433 . S
C912 H908 0.929 . S
C912 C914 1.378 . S
C912 C916 1.350 . S
C913 C916 1.463 . S
C913 C918 1.350 . S
C913 N921 1.427 . S
C914 H905 0.930 . S
C914 C912 1.378 . S
C914 C915 1.367 . S
C915 C914 1.367 . S
C915 C917 1.433 . S
C916 C912 1.350 . S
C916 C913 1.463 . S
C916 N920 1.427 . S
C917 H907 0.929 . S
C917 C915 1.433 . S
C917 N920 1.384 . S
C918 H909 0.929 . S
C918 C910 1.378 . S
C918 C913 1.350 . S
C919 H906 0.929 . S
C919 C911 1.433 . S
C919 N921 1.384 . S
N920 C916 1.427 . S
N920 C917 1.384 . S
N921 C913 1.427 . S
N921 C919 1.384 . S
H922 C928 0.930 . S
H923 C932 0.930 . S
H924 C937 0.929 . S
H925 C935 0.929 . S
H926 C930 0.929 . S
H927 C936 0.929 . S
C928 H922 0.930 . S
C928 C929 1.367 . S
C928 C936 1.378 . S
C929 C928 1.367 . S
C929 C937 1.433 . S
C930 H926 0.929 . S
C930 C932 1.378 . S
C930 C934 1.350 . S
C931 C934 1.463 . S
C931 C936 1.350 . S
C931 N939 1.427 . S
C932 H923 0.930 . S
C932 C930 1.378 . S
C932 C933 1.367 . S
C933 C932 1.367 . S
C933 C935 1.433 . S
C934 C930 1.350 . S
C934 C931 1.463 . S
C934 N938 1.427 . S
C935 H925 0.929 . S
C935 C933 1.433 . S
C935 N938 1.384 . S
C936 H927 0.929 . S
C936 C928 1.378 . S
C936 C931 1.350 . S
C937 H924 0.929 . S
C937 C929 1.433 . S
C937 N939 1.384 . S
N938 C934 1.427 . S
N938 C935 1.384 . S
N939 C931 1.427 . S
N939 C937 1.384 . S
H940 C946 0.930 . S
H941 C950 0.930 . S
H942 C955 0.929 . S
H943 C953 0.929 . S
H944 C948 0.929 1_655 S
H945 C954 0.929 1_455 S
C946 H940 0.930 . S
C946 C947 1.367 . S
C946 C954 1.378 . S
C947 C946 1.367 . S
C947 C955 1.433 1_556 S
C948 H944 0.929 1_455 S
C948 C950 1.378 . S
C948 C952 1.350 . S
C949 C952 1.463 1_646 S
C949 C954 1.350 . S
C949 N957 1.427 1_556 S
C950 H941 0.930 . S
C950 C948 1.378 . S
C950 C951 1.367 . S
C951 C950 1.367 . S
C951 C953 1.433 1_554 S
C952 C948 1.350 . S
C952 C949 1.463 1_464 S
C952 N956 1.427 1_554 S
C953 H943 0.929 . S
C953 C951 1.433 1_556 S
C953 N956 1.384 . S
C954 H945 0.929 1_655 S
C954 C946 1.378 . S
C954 C949 1.350 . S
C955 H942 0.929 . S
C955 C947 1.433 1_554 S
C955 N957 1.384 . S
N956 C952 1.427 1_556 S
N956 C953 1.384 . S
N957 C949 1.427 1_554 S
N957 C955 1.384 . S
H958 C964 0.930 . S
H959 C968 0.930 . S
H960 C973 0.929 . S
H961 C971 0.929 . S
H962 C966 0.929 1_545 S
H963 C972 0.929 1_565 S
C964 H958 0.930 . S
C964 C965 1.367 . S
C964 C972 1.378 . S
C965 C964 1.367 . S
C965 C973 1.433 . S
C966 H962 0.929 1_565 S
C966 C968 1.378 . S
C966 C970 1.350 . S
C967 C970 1.463 1_545 S
C967 C972 1.350 . S
C967 N975 1.427 . S
C968 H959 0.930 . S
C968 C966 1.378 . S
C968 C969 1.367 . S
C969 C968 1.367 . S
C969 C971 1.433 . S
C970 C966 1.350 . S
C970 C967 1.463 1_565 S
C970 N974 1.427 . S
C971 H961 0.929 . S
C971 C969 1.433 . S
C971 N974 1.384 . S
C972 H963 0.929 1_545 S
C972 C964 1.378 . S
C972 C967 1.350 . S
C973 H960 0.929 . S
C973 C965 1.433 . S
C973 N975 1.384 . S
N974 C970 1.427 . S
N974 C971 1.384 . S
N975 C967 1.427 . S
N975 C973 1.384 . S
H976 C982 0.918 1_565 S
H977 C986 0.930 . S
H978 C991 0.929 . S
H979 C989 0.929 . S
H980 C984 0.929 . S
H981 C990 0.929 . S
C982 H976 0.918 1_545 S
C982 C983 1.360 1_545 S
C982 C990 1.397 . S
C983 C982 1.360 1_565 S
C983 C991 1.433 1_565 S
C984 H980 0.929 . S
C984 C986 1.378 . S
C984 C988 1.350 . S
C985 C988 1.463 . S
C985 C990 1.350 . S
C985 N993 1.427 . S
C986 H977 0.930 . S
C986 C984 1.378 . S
C986 C987 1.367 . S
C987 C986 1.367 . S
C987 C989 1.433 . S
C988 C984 1.350 . S
C988 C985 1.463 . S
C988 N992 1.427 . S
C989 H979 0.929 . S
C989 C987 1.433 . S
C989 N992 1.384 . S
C990 H981 0.929 . S
C990 C982 1.397 . S
C990 C985 1.350 . S
C991 H978 0.929 . S
C991 C983 1.433 1_545 S
C991 N993 1.384 . S
N992 C988 1.427 . S
N992 C989 1.384 . S
N993 C985 1.427 . S
N993 C991 1.384 . S
H994 C1000 0.930 . S
H995 C1004 0.930 . S
H996 C1009 0.929 . S
H997 C1007 0.929 . S
H998 C1002 0.929 . S
H999 C1008 0.929 . S
C1000 H994 0.930 . S
C1000 C1001 1.367 . S
C1000 C1008 1.378 . S
C1001 C1000 1.367 . S
C1001 C1009 1.433 . S
C1002 H998 0.929 . S
C1002 C1004 1.378 . S
C1002 C1006 1.350 . S
C1003 C1006 1.463 . S
C1003 C1008 1.350 . S
C1003 N1011 1.427 . S
C1004 H995 0.930 . S
C1004 C1002 1.378 . S
C1004 C1005 1.367 . S
C1005 C1004 1.367 . S
C1005 C1007 1.433 . S
C1006 C1002 1.350 . S
C1006 C1003 1.463 . S
C1006 N1010 1.427 . S
C1007 H997 0.929 . S
C1007 C1005 1.433 . S
C1007 N1010 1.384 . S
C1008 H999 0.929 . S
C1008 C1000 1.378 . S
C1008 C1003 1.350 . S
C1009 H996 0.929 . S
C1009 C1001 1.433 . S
C1009 N1011 1.384 . S
N1010 C1006 1.427 . S
N1010 C1007 1.384 . S
N1011 C1003 1.427 . S
N1011 C1009 1.384 . S
H1012 C1018 0.930 . S
H1013 C1022 0.930 . S
H1014 C1027 0.929 . S
H1015 C1025 0.929 . S
H1016 C1020 0.929 . S
H1017 C1026 0.929 . S
C1018 H1012 0.930 . S
C1018 C1019 1.367 . S
C1018 C1026 1.378 . S
C1019 C1018 1.367 . S
C1019 C1027 1.433 . S
C1020 H1016 0.929 . S
C1020 C1022 1.378 1_565 S
C1020 C1024 1.350 . S
C1021 C1024 1.463 . S
C1021 C1026 1.350 . S
C1021 N1029 1.427 . S
C1022 H1013 0.930 . S
C1022 C1020 1.378 1_545 S
C1022 C1023 1.367 . S
C1023 C1022 1.367 . S
C1023 C1025 1.433 1_545 S
C1024 C1020 1.350 . S
C1024 C1021 1.463 . S
C1024 N1028 1.427 . S
C1025 H1015 0.929 . S
C1025 C1023 1.433 1_565 S
C1025 N1028 1.384 . S
C1026 H1017 0.929 . S
C1026 C1018 1.378 . S
C1026 C1021 1.350 . S
C1027 H1014 0.929 . S
C1027 C1019 1.433 . S
C1027 N1029 1.384 . S
N1028 C1024 1.427 . S
N1028 C1025 1.384 . S
N1029 C1021 1.427 . S
N1029 C1027 1.384 . S
H1030 C1036 0.930 . S
H1031 C1040 0.930 . S
H1032 C1045 0.929 . S
H1033 C1043 0.929 . S
H1034 C1038 0.929 . S
H1035 C1044 0.929 . S
C1036 H1030 0.930 . S
C1036 C1037 1.367 . S
C1036 C1044 1.378 . S
C1037 C1036 1.367 . S
C1037 C1045 1.433 . S
C1038 H1034 0.929 . S
C1038 C1040 1.378 . S
C1038 C1042 1.350 . S
C1039 C1042 1.463 . S
C1039 C1044 1.350 . S
C1039 N1047 1.427 . S
C1040 H1031 0.930 . S
C1040 C1038 1.378 . S
C1040 C1041 1.367 . S
C1041 C1040 1.367 . S
C1041 C1043 1.433 1_556 S
C1042 C1038 1.350 . S
C1042 C1039 1.463 . S
C1042 N1046 1.427 . S
C1043 H1033 0.929 . S
C1043 C1041 1.433 1_554 S
C1043 N1046 1.384 1_554 S
C1044 H1035 0.929 . S
C1044 C1036 1.378 . S
C1044 C1039 1.350 . S
C1045 H1032 0.929 . S
C1045 C1037 1.433 . S
C1045 N1047 1.384 . S
N1046 C1042 1.427 . S
N1046 C1043 1.384 1_556 S
N1047 C1039 1.427 . S
N1047 C1045 1.384 . S
H1048 C1054 0.930 . S
H1049 C1058 0.930 . S
H1050 C1063 0.963 . S
H1051 C1061 0.929 . S
H1052 C1056 0.929 . S
H1053 C1062 0.929 . S
C1054 H1048 0.930 . S
C1054 C1055 1.367 1_565 S
C1054 C1062 1.378 . S
C1055 C1054 1.367 1_545 S
C1055 C1063 1.446 . S
C1056 H1052 0.929 . S
C1056 C1058 1.378 . S
C1056 C1060 1.350 . S
C1057 C1060 1.463 . S
C1057 C1062 1.350 . S
C1057 N1065 1.427 . S
C1058 H1049 0.930 . S
C1058 C1056 1.378 . S
C1058 C1059 1.367 . S
C1059 C1058 1.367 . S
C1059 C1061 1.433 . S
C1060 C1056 1.350 . S
C1060 C1057 1.463 . S
C1060 N1064 1.427 . S
C1061 H1051 0.929 . S
C1061 C1059 1.433 . S
C1061 N1064 1.384 . S
C1062 H1053 0.929 . S
C1062 C1054 1.378 . S
C1062 C1057 1.350 . S
C1063 H1050 0.963 . S
C1063 C1055 1.446 . S
C1063 N1065 1.338 1_545 S
N1064 C1060 1.427 . S
N1064 C1061 1.384 . S
N1065 C1057 1.427 . S
N1065 C1063 1.338 1_565 S
H1066 C1072 0.930 . S
H1067 C1076 0.930 . S
H1068 C1081 0.929 . S
H1069 C1079 0.929 . S
H1070 C1074 0.929 . S
H1071 C1080 0.929 . S
C1072 H1066 0.930 . S
C1072 C1073 1.367 . S
C1072 C1080 1.378 . S
C1073 C1072 1.367 . S
C1073 C1081 1.433 . S
C1074 H1070 0.929 . S
C1074 C1076 1.378 . S
C1074 C1078 1.350 . S
C1075 C1078 1.463 . S
C1075 C1080 1.350 . S
C1075 N1083 1.427 . S
C1076 H1067 0.930 . S
C1076 C1074 1.378 . S
C1076 C1077 1.367 . S
C1077 C1076 1.367 . S
C1077 C1079 1.433 . S
C1078 C1074 1.350 . S
C1078 C1075 1.463 . S
C1078 N1082 1.427 . S
C1079 H1069 0.929 . S
C1079 C1077 1.433 . S
C1079 N1082 1.384 . S
C1080 H1071 0.929 . S
C1080 C1072 1.378 . S
C1080 C1075 1.350 . S
C1081 H1068 0.929 . S
C1081 C1073 1.433 . S
C1081 N1083 1.384 . S
N1082 C1078 1.427 . S
N1082 C1079 1.384 . S
N1083 C1075 1.427 . S
N1083 C1081 1.384 . S
H1084 C1090 0.930 . S
H1085 C1094 0.930 . S
H1086 C1099 0.929 . S
H1087 C1097 0.929 . S
H1088 C1092 0.929 . S
H1089 C1098 0.929 . S
C1090 H1084 0.930 . S
C1090 C1091 1.367 1_545 S
C1090 C1098 1.378 . S
C1091 C1090 1.367 1_565 S
C1091 C1099 1.433 . S
C1092 H1088 0.929 . S
C1092 C1094 1.378 . S
C1092 C1096 1.350 . S
C1093 C1096 1.463 . S
C1093 C1098 1.350 . S
C1093 N1101 1.427 . S
C1094 H1085 0.930 . S
C1094 C1092 1.378 . S
C1094 C1095 1.367 . S
C1095 C1094 1.367 . S
C1095 C1097 1.433 . S
C1096 C1092 1.350 . S
C1096 C1093 1.463 . S
C1096 N1100 1.427 . S
C1097 H1087 0.929 . S
C1097 C1095 1.433 . S
C1097 N1100 1.384 . S
C1098 H1089 0.929 . S
C1098 C1090 1.378 . S
C1098 C1093 1.350 . S
C1099 H1086 0.929 . S
C1099 C1091 1.433 . S
C1099 N1101 1.384 1_565 S
N1100 C1096 1.427 . S
N1100 C1097 1.384 . S
N1101 C1093 1.427 . S
N1101 C1099 1.384 1_545 S
H1102 C1108 0.930 . S
H1103 C1112 0.930 . S
H1104 C1117 0.929 . S
H1105 C1115 0.929 . S
H1106 C1110 0.929 . S
H1107 C1116 0.929 . S
C1108 H1102 0.930 . S
C1108 C1109 1.367 . S
C1108 C1116 1.378 . S
C1109 C1108 1.367 . S
C1109 C1117 1.433 . S
C1110 H1106 0.929 . S
C1110 C1112 1.378 . S
C1110 C1114 1.350 . S
C1111 C1114 1.463 . S
C1111 C1116 1.350 . S
C1111 N1119 1.427 . S
C1112 H1103 0.930 . S
C1112 C1110 1.378 . S
C1112 C1113 1.367 . S
C1113 C1112 1.367 . S
C1113 C1115 1.433 . S
C1114 C1110 1.350 . S
C1114 C1111 1.463 . S
C1114 N1118 1.427 . S
C1115 H1105 0.929 . S
C1115 C1113 1.433 . S
C1115 N1118 1.384 . S
C1116 H1107 0.929 . S
C1116 C1108 1.378 . S
C1116 C1111 1.350 . S
C1117 H1104 0.929 . S
C1117 C1109 1.433 . S
C1117 N1119 1.384 . S
N1118 C1114 1.427 . S
N1118 C1115 1.384 . S
N1119 C1111 1.427 . S
N1119 C1117 1.384 . S
H1120 C1126 0.930 . S
H1121 C1130 0.930 . S
H1122 C1135 0.929 . S
H1123 C1133 0.929 . S
H1124 C1128 0.929 . S
H1125 C1134 0.929 . S
C1126 H1120 0.930 . S
C1126 C1127 1.367 . S
C1126 C1134 1.378 . S
C1127 C1126 1.367 . S
C1127 C1135 1.433 . S
C1128 H1124 0.929 . S
C1128 C1130 1.378 . S
C1128 C1132 1.350 . S
C1129 C1132 1.463 . S
C1129 C1134 1.350 . S
C1129 N1137 1.427 . S
C1130 H1121 0.930 . S
C1130 C1128 1.378 . S
C1130 C1131 1.367 . S
C1131 C1130 1.367 . S
C1131 C1133 1.433 . S
C1132 C1128 1.350 . S
C1132 C1129 1.463 . S
C1132 N1136 1.427 . S
C1133 H1123 0.929 . S
C1133 C1131 1.433 . S
C1133 N1136 1.384 . S
C1134 H1125 0.929 . S
C1134 C1126 1.378 . S
C1134 C1129 1.350 . S
C1135 H1122 0.929 . S
C1135 C1127 1.433 . S
C1135 N1137 1.384 . S
N1136 C1132 1.427 . S
N1136 C1133 1.384 . S
N1137 C1129 1.427 . S
N1137 C1135 1.384 . S
H1138 C1144 0.930 . S
H1139 C1148 0.930 . S
H1140 C1153 0.929 . S
H1141 C1151 0.929 . S
H1142 C1146 0.929 . S
H1143 C1152 0.929 . S
C1144 H1138 0.930 . S
C1144 C1145 1.367 . S
C1144 C1152 1.378 . S
C1145 C1144 1.367 . S
C1145 C1153 1.433 1_556 S
C1146 H1142 0.929 . S
C1146 C1148 1.378 . S
C1146 C1150 1.350 . S
C1147 C1150 1.463 . S
C1147 C1152 1.350 . S
C1147 N1155 1.427 . S
C1148 H1139 0.930 . S
C1148 C1146 1.378 . S
C1148 C1149 1.367 . S
C1149 C1148 1.367 . S
C1149 C1151 1.433 . S
C1150 C1146 1.350 . S
C1150 C1147 1.463 . S
C1150 N1154 1.427 . S
C1151 H1141 0.929 . S
C1151 C1149 1.433 . S
C1151 N1154 1.384 . S
C1152 H1143 0.929 . S
C1152 C1144 1.378 . S
C1152 C1147 1.350 . S
C1153 H1140 0.929 . S
C1153 C1145 1.433 1_554 S
C1153 N1155 1.384 1_554 S
N1154 C1150 1.427 . S
N1154 C1151 1.384 . S
N1155 C1147 1.427 . S
N1155 C1153 1.384 1_556 S
H1156 C1162 0.930 . S
H1157 C1166 0.930 . S
H1158 C1171 0.929 . S
H1159 C1169 0.929 . S
H1160 C1164 0.929 . S
H1161 C1170 0.929 . S
C1162 H1156 0.930 . S
C1162 C1163 1.367 . S
C1162 C1170 1.378 . S
C1163 C1162 1.367 . S
C1163 C1171 1.433 . S
C1164 H1160 0.929 . S
C1164 C1166 1.378 . S
C1164 C1168 1.350 . S
C1165 C1168 1.463 . S
C1165 C1170 1.350 . S
C1165 N1173 1.427 . S
C1166 H1157 0.930 . S
C1166 C1164 1.378 . S
C1166 C1167 1.367 . S
C1167 C1166 1.367 . S
C1167 C1169 1.433 . S
C1168 C1164 1.350 . S
C1168 C1165 1.463 . S
C1168 N1172 1.427 . S
C1169 H1159 0.929 . S
C1169 C1167 1.433 . S
C1169 N1172 1.384 . S
C1170 H1161 0.929 . S
C1170 C1162 1.378 . S
C1170 C1165 1.350 . S
C1171 H1158 0.929 . S
C1171 C1163 1.433 . S
C1171 N1173 1.384 . S
N1172 C1168 1.427 . S
N1172 C1169 1.384 . S
N1173 C1165 1.427 . S
N1173 C1171 1.384 . S
H1174 C1180 0.930 . S
H1175 C1184 0.930 . S
H1176 C1189 0.929 . S
H1177 C1187 0.929 . S
H1178 C1182 0.929 . S
H1179 C1188 0.929 . S
C1180 H1174 0.930 . S
C1180 C1181 1.367 . S
C1180 C1188 1.378 . S
C1181 C1180 1.367 . S
C1181 C1189 1.433 . S
C1182 H1178 0.929 . S
C1182 C1184 1.378 . S
C1182 C1186 1.350 . S
C1183 C1186 1.463 . S
C1183 C1188 1.350 . S
C1183 N1191 1.427 . S
C1184 H1175 0.930 . S
C1184 C1182 1.378 . S
C1184 C1185 1.367 . S
C1185 C1184 1.367 . S
C1185 C1187 1.433 . S
C1186 C1182 1.350 . S
C1186 C1183 1.463 . S
C1186 N1190 1.427 . S
C1187 H1177 0.929 . S
C1187 C1185 1.433 . S
C1187 N1190 1.384 . S
C1188 H1179 0.929 . S
C1188 C1180 1.378 . S
C1188 C1183 1.350 . S
C1189 H1176 0.929 . S
C1189 C1181 1.433 . S
C1189 N1191 1.384 . S
N1190 C1186 1.427 . S
N1190 C1187 1.384 . S
N1191 C1183 1.427 . S
N1191 C1189 1.384 . S
H1192 C1198 0.930 . S
H1193 C1202 0.930 . S
H1194 C1207 0.929 . S
H1195 C1205 0.929 . S
H1196 C1200 0.929 . S
H1197 C1206 0.929 . S
C1198 H1192 0.930 . S
C1198 C1199 1.367 . S
C1198 C1206 1.378 . S
C1199 C1198 1.367 . S
C1199 C1207 1.433 . S
C1200 H1196 0.929 . S
C1200 C1202 1.378 . S
C1200 C1204 1.350 . S
C1201 C1204 1.463 . S
C1201 C1206 1.350 . S
C1201 N1209 1.427 . S
C1202 H1193 0.930 . S
C1202 C1200 1.378 . S
C1202 C1203 1.367 . S
C1203 C1202 1.367 . S
C1203 C1205 1.433 . S
C1204 C1200 1.350 . S
C1204 C1201 1.463 . S
C1204 N1208 1.427 . S
C1205 H1195 0.929 . S
C1205 C1203 1.433 . S
C1205 N1208 1.384 . S
C1206 H1197 0.929 . S
C1206 C1198 1.378 . S
C1206 C1201 1.350 . S
C1207 H1194 0.929 . S
C1207 C1199 1.433 . S
C1207 N1209 1.384 . S
N1208 C1204 1.427 . S
N1208 C1205 1.384 . S
N1209 C1201 1.427 . S
N1209 C1207 1.384 . S
H1210 C1216 0.930 . S
H1211 C1220 0.930 . S
H1212 C1225 0.929 . S
H1213 C1223 0.929 . S
H1214 C1218 0.929 . S
H1215 C1224 0.929 . S
C1216 H1210 0.930 . S
C1216 C1217 1.367 . S
C1216 C1224 1.378 . S
C1217 C1216 1.367 . S
C1217 C1225 1.433 . S
C1218 H1214 0.929 . S
C1218 C1220 1.378 . S
C1218 C1222 1.350 . S
C1219 C1222 1.463 . S
C1219 C1224 1.350 . S
C1219 N1227 1.427 . S
C1220 H1211 0.930 . S
C1220 C1218 1.378 . S
C1220 C1221 1.367 . S
C1221 C1220 1.367 . S
C1221 C1223 1.433 . S
C1222 C1218 1.350 . S
C1222 C1219 1.463 . S
C1222 N1226 1.427 . S
C1223 H1213 0.929 . S
C1223 C1221 1.433 . S
C1223 N1226 1.384 . S
C1224 H1215 0.929 . S
C1224 C1216 1.378 . S
C1224 C1219 1.350 . S
C1225 H1212 0.929 . S
C1225 C1217 1.433 . S
C1225 N1227 1.384 . S
N1226 C1222 1.427 . S
N1226 C1223 1.384 . S
N1227 C1219 1.427 . S
N1227 C1225 1.384 . S
H1228 C1234 0.930 . S
H1229 C1238 0.930 1_554 S
H1230 C1243 0.929 . S
H1231 C1241 0.929 . S
H1232 C1236 0.929 . S
H1233 C1242 0.929 . S
C1234 H1228 0.930 . S
C1234 C1235 1.367 . S
C1234 C1242 1.378 . S
C1235 C1234 1.367 . S
C1235 C1243 1.433 . S
C1236 H1232 0.929 . S
C1236 C1238 1.378 . S
C1236 C1240 1.350 . S
C1237 C1240 1.463 . S
C1237 C1242 1.350 . S
C1237 N1245 1.427 . S
C1238 H1229 0.930 1_556 S
C1238 C1236 1.378 . S
C1238 C1239 1.367 . S
C1239 C1238 1.367 . S
C1239 C1241 1.433 . S
C1240 C1236 1.350 . S
C1240 C1237 1.463 . S
C1240 N1244 1.427 . S
C1241 H1231 0.929 . S
C1241 C1239 1.433 . S
C1241 N1244 1.384 . S
C1242 H1233 0.929 . S
C1242 C1234 1.378 . S
C1242 C1237 1.350 . S
C1243 H1230 0.929 . S
C1243 C1235 1.433 . S
C1243 N1245 1.384 . S
N1244 C1240 1.427 . S
N1244 C1241 1.384 . S
N1245 C1237 1.427 . S
N1245 C1243 1.384 . S
H1246 C1252 0.930 . S
H1247 C1256 0.930 . S
H1248 C1261 0.929 . S
H1249 C1259 0.929 . S
H1250 C1254 0.929 . S
H1251 C1260 0.929 . S
C1252 H1246 0.930 . S
C1252 C1253 1.367 . S
C1252 C1260 1.378 . S
C1253 C1252 1.367 . S
C1253 C1261 1.433 . S
C1254 H1250 0.929 . S
C1254 C1256 1.378 . S
C1254 C1258 1.350 . S
C1255 C1258 1.463 . S
C1255 C1260 1.350 . S
C1255 N1263 1.427 . S
C1256 H1247 0.930 . S
C1256 C1254 1.378 . S
C1256 C1257 1.367 . S
C1257 C1256 1.367 . S
C1257 C1259 1.433 . S
C1258 C1254 1.350 . S
C1258 C1255 1.463 . S
C1258 N1262 1.427 . S
C1259 H1249 0.929 . S
C1259 C1257 1.433 . S
C1259 N1262 1.384 . S
C1260 H1251 0.929 . S
C1260 C1252 1.378 . S
C1260 C1255 1.350 . S
C1261 H1248 0.929 . S
C1261 C1253 1.433 . S
C1261 N1263 1.384 . S
N1262 C1258 1.427 . S
N1262 C1259 1.384 . S
N1263 C1255 1.427 . S
N1263 C1261 1.384 . S
H1264 C1270 0.930 . S
H1265 C1274 0.930 . S
H1266 C1279 0.929 . S
H1267 C1277 0.929 . S
H1268 C1272 0.929 . S
H1269 C1278 0.929 . S
C1270 H1264 0.930 . S
C1270 C1271 1.367 . S
C1270 C1278 1.378 . S
C1271 C1270 1.367 . S
C1271 C1279 1.433 . S
C1272 H1268 0.929 . S
C1272 C1274 1.378 . S
C1272 C1276 1.350 . S
C1273 C1276 1.463 . S
C1273 C1278 1.350 . S
C1273 N1281 1.427 . S
C1274 H1265 0.930 . S
C1274 C1272 1.378 . S
C1274 C1275 1.367 . S
C1275 C1274 1.367 . S
C1275 C1277 1.433 . S
C1276 C1272 1.350 . S
C1276 C1273 1.463 . S
C1276 N1280 1.427 . S
C1277 H1267 0.929 . S
C1277 C1275 1.433 . S
C1277 N1280 1.384 . S
C1278 H1269 0.929 . S
C1278 C1270 1.378 . S
C1278 C1273 1.350 . S
C1279 H1266 0.929 . S
C1279 C1271 1.433 . S
C1279 N1281 1.384 . S
N1280 C1276 1.427 . S
N1280 C1277 1.384 . S
N1281 C1273 1.427 . S
N1281 C1279 1.384 . S
H1282 C1288 0.930 . S
H1283 C1292 0.930 . S
H1284 C1297 0.929 . S
H1285 C1295 0.929 . S
H1286 C1290 0.929 . S
H1287 C1296 0.929 . S
C1288 H1282 0.930 . S
C1288 C1289 1.367 . S
C1288 C1296 1.378 . S
C1289 C1288 1.367 . S
C1289 C1297 1.433 . S
C1290 H1286 0.929 . S
C1290 C1292 1.378 . S
C1290 C1294 1.350 . S
C1291 C1294 1.463 . S
C1291 C1296 1.350 . S
C1291 N1299 1.427 . S
C1292 H1283 0.930 . S
C1292 C1290 1.378 . S
C1292 C1293 1.367 . S
C1293 C1292 1.367 . S
C1293 C1295 1.433 . S
C1294 C1290 1.350 . S
C1294 C1291 1.463 . S
C1294 N1298 1.427 . S
C1295 H1285 0.929 . S
C1295 C1293 1.433 . S
C1295 N1298 1.384 . S
C1296 H1287 0.929 . S
C1296 C1288 1.378 . S
C1296 C1291 1.350 . S
C1297 H1284 0.929 . S
C1297 C1289 1.433 . S
C1297 N1299 1.384 . S
N1298 C1294 1.427 . S
N1298 C1295 1.384 . S
N1299 C1291 1.427 . S
N1299 C1297 1.384 . S
H1300 C1306 0.930 . S
H1301 C1310 0.930 . S
H1302 C1315 0.929 . S
H1303 C1313 0.929 . S
H1304 C1308 0.929 . S
H1305 C1314 0.929 . S
C1306 H1300 0.930 . S
C1306 C1307 1.367 . S
C1306 C1314 1.378 . S
C1307 C1306 1.367 . S
C1307 C1315 1.433 . S
C1308 H1304 0.929 . S
C1308 C1310 1.378 . S
C1308 C1312 1.350 . S
C1309 C1312 1.463 . S
C1309 C1314 1.350 . S
C1309 N1317 1.427 . S
C1310 H1301 0.930 . S
C1310 C1308 1.378 . S
C1310 C1311 1.367 . S
C1311 C1310 1.367 . S
C1311 C1313 1.433 . S
C1312 C1308 1.350 . S
C1312 C1309 1.463 . S
C1312 N1316 1.427 . S
C1313 H1303 0.929 . S
C1313 C1311 1.433 . S
C1313 N1316 1.384 . S
C1314 H1305 0.929 . S
C1314 C1306 1.378 . S
C1314 C1309 1.350 . S
C1315 H1302 0.929 . S
C1315 C1307 1.433 . S
C1315 N1317 1.384 . S
N1316 C1312 1.427 . S
N1316 C1313 1.384 . S
N1317 C1309 1.427 . S
N1317 C1315 1.384 . S
H1318 C1324 0.930 . S
H1319 C1328 0.930 . S
H1320 C1333 0.929 . S
H1321 C1331 0.929 . S
H1322 C1326 0.929 1_455 S
H1323 C1332 0.929 . S
C1324 H1318 0.930 . S
C1324 C1325 1.367 . S
C1324 C1332 1.378 . S
C1325 C1324 1.367 . S
C1325 C1333 1.433 . S
C1326 H1322 0.929 1_655 S
C1326 C1328 1.378 . S
C1326 C1330 1.350 1_655 S
C1327 C1330 1.463 . S
C1327 C1332 1.350 . S
C1327 N1335 1.427 . S
C1328 H1319 0.930 . S
C1328 C1326 1.378 . S
C1328 C1329 1.367 . S
C1329 C1328 1.367 . S
C1329 C1331 1.433 . S
C1330 C1326 1.350 1_455 S
C1330 C1327 1.463 . S
C1330 N1334 1.427 1_455 S
C1331 H1321 0.929 . S
C1331 C1329 1.433 . S
C1331 N1334 1.384 . S
C1332 H1323 0.929 . S
C1332 C1324 1.378 . S
C1332 C1327 1.350 . S
C1333 H1320 0.929 . S
C1333 C1325 1.433 . S
C1333 N1335 1.384 . S
N1334 C1330 1.427 1_655 S
N1334 C1331 1.384 . S
N1335 C1327 1.427 . S
N1335 C1333 1.384 . S
H1336 C1342 0.930 . S
H1337 C1346 0.930 . S
H1338 C1351 0.929 . S
H1339 C1349 0.929 . S
H1340 C1344 0.929 . S
H1341 C1350 0.929 . S
C1342 H1336 0.930 . S
C1342 C1343 1.367 . S
C1342 C1350 1.378 . S
C1343 C1342 1.367 . S
C1343 C1351 1.433 . S
C1344 H1340 0.929 . S
C1344 C1346 1.378 . S
C1344 C1348 1.350 . S
C1345 C1348 1.463 . S
C1345 C1350 1.350 . S
C1345 N1353 1.427 . S
C1346 H1337 0.930 . S
C1346 C1344 1.378 . S
C1346 C1347 1.367 . S
C1347 C1346 1.367 . S
C1347 C1349 1.433 . S
C1348 C1344 1.350 . S
C1348 C1345 1.463 . S
C1348 N1352 1.427 . S
C1349 H1339 0.929 . S
C1349 C1347 1.433 . S
C1349 N1352 1.384 . S
C1350 H1341 0.929 . S
C1350 C1342 1.378 . S
C1350 C1345 1.350 . S
C1351 H1338 0.929 . S
C1351 C1343 1.433 . S
C1351 N1353 1.384 . S
N1352 C1348 1.427 . S
N1352 C1349 1.384 . S
N1353 C1345 1.427 . S
N1353 C1351 1.384 . S
H1354 C1360 0.930 . S
H1355 C1364 0.930 . S
H1356 C1369 0.929 . S
H1357 C1367 0.929 . S
H1358 C1362 0.929 . S
H1359 C1368 0.929 . S
C1360 H1354 0.930 . S
C1360 C1361 1.367 . S
C1360 C1368 1.378 . S
C1361 C1360 1.367 . S
C1361 C1369 1.433 . S
C1362 H1358 0.929 . S
C1362 C1364 1.378 . S
C1362 C1366 1.350 . S
C1363 C1366 1.463 . S
C1363 C1368 1.350 . S
C1363 N1371 1.427 . S
C1364 H1355 0.930 . S
C1364 C1362 1.378 . S
C1364 C1365 1.367 . S
C1365 C1364 1.367 . S
C1365 C1367 1.433 . S
C1366 C1362 1.350 . S
C1366 C1363 1.463 . S
C1366 N1370 1.427 . S
C1367 H1357 0.929 . S
C1367 C1365 1.433 . S
C1367 N1370 1.384 . S
C1368 H1359 0.929 . S
C1368 C1360 1.378 . S
C1368 C1363 1.350 . S
C1369 H1356 0.929 . S
C1369 C1361 1.433 . S
C1369 N1371 1.384 . S
N1370 C1366 1.427 . S
N1370 C1367 1.384 . S
N1371 C1363 1.427 . S
N1371 C1369 1.384 . S
H1372 C1378 0.930 . S
H1373 C1382 0.930 . S
H1374 C1387 0.929 . S
H1375 C1385 0.929 . S
H1376 C1380 0.929 . S
H1377 C1386 0.929 . S
C1378 H1372 0.930 . S
C1378 C1379 1.367 . S
C1378 C1386 1.378 . S
C1379 C1378 1.367 . S
C1379 C1387 1.433 . S
C1380 H1376 0.929 . S
C1380 C1382 1.378 . S
C1380 C1384 1.350 . S
C1381 C1384 1.463 . S
C1381 C1386 1.350 . S
C1381 N1389 1.427 . S
C1382 H1373 0.930 . S
C1382 C1380 1.378 . S
C1382 C1383 1.367 . S
C1383 C1382 1.367 . S
C1383 C1385 1.433 . S
C1384 C1380 1.350 . S
C1384 C1381 1.463 . S
C1384 N1388 1.427 . S
C1385 H1375 0.929 . S
C1385 C1383 1.433 . S
C1385 N1388 1.384 . S
C1386 H1377 0.929 . S
C1386 C1378 1.378 . S
C1386 C1381 1.350 . S
C1387 H1374 0.929 . S
C1387 C1379 1.433 . S
C1387 N1389 1.384 . S
N1388 C1384 1.427 . S
N1388 C1385 1.384 . S
N1389 C1381 1.427 . S
N1389 C1387 1.384 . S
H1390 C1396 0.930 . S
H1391 C1400 0.930 . S
H1392 C1405 0.929 1_556 S
H1393 C1403 0.929 . S
H1394 C1398 0.929 . S
H1395 C1404 0.929 . S
C1396 H1390 0.930 . S
C1396 C1397 1.367 . S
C1396 C1404 1.378 . S
C1397 C1396 1.367 . S
C1397 C1405 1.433 . S
C1398 H1394 0.929 . S
C1398 C1400 1.378 . S
C1398 C1402 1.350 . S
C1399 C1402 1.463 . S
C1399 C1404 1.350 1_655 S
C1399 N1407 1.414 1_655 S
C1400 H1391 0.930 . S
C1400 C1398 1.378 . S
C1400 C1401 1.367 . S
C1401 C1400 1.367 . S
C1401 C1403 1.433 . S
C1402 C1398 1.350 . S
C1402 C1399 1.463 . S
C1402 N1406 1.427 . S
C1403 H1393 0.929 . S
C1403 C1401 1.433 . S
C1403 N1406 1.384 . S
C1404 H1395 0.929 . S
C1404 C1396 1.378 . S
C1404 C1399 1.350 1_455 S
C1405 H1392 0.929 1_554 S
C1405 C1397 1.433 . S
C1405 N1407 1.428 . S
N1406 C1402 1.427 . S
N1406 C1403 1.384 . S
N1407 C1399 1.414 1_455 S
N1407 C1405 1.428 . S
H1408 C1414 0.930 . S
H1409 C1418 0.930 . S
H1410 C1423 0.929 . S
H1411 C1421 0.929 . S
H1412 C1416 0.929 . S
H1413 C1422 0.929 . S
C1414 H1408 0.930 . S
C1414 C1415 1.367 . S
C1414 C1422 1.378 . S
C1415 C1414 1.367 . S
C1415 C1423 1.433 . S
C1416 H1412 0.929 . S
C1416 C1418 1.378 . S
C1416 C1420 1.350 . S
C1417 C1420 1.463 . S
C1417 C1422 1.350 . S
C1417 N1425 1.427 . S
C1418 H1409 0.930 . S
C1418 C1416 1.378 . S
C1418 C1419 1.367 . S
C1419 C1418 1.367 . S
C1419 C1421 1.433 . S
C1420 C1416 1.350 . S
C1420 C1417 1.463 . S
C1420 N1424 1.427 . S
C1421 H1411 0.929 . S
C1421 C1419 1.433 . S
C1421 N1424 1.384 . S
C1422 H1413 0.929 . S
C1422 C1414 1.378 . S
C1422 C1417 1.350 . S
C1423 H1410 0.929 . S
C1423 C1415 1.433 . S
C1423 N1425 1.384 . S
N1424 C1420 1.427 . S
N1424 C1421 1.384 . S
N1425 C1417 1.427 . S
N1425 C1423 1.384 . S
H1426 C1432 0.930 . S
H1427 C1436 0.930 . S
H1428 C1441 0.929 . S
H1429 C1439 0.929 . S
H1430 C1434 0.929 . S
H1431 C1440 0.929 . S
C1432 H1426 0.930 . S
C1432 C1433 1.367 . S
C1432 C1440 1.378 1_455 S
C1433 C1432 1.367 . S
C1433 C1441 1.433 . S
C1434 H1430 0.929 . S
C1434 C1436 1.378 . S
C1434 C1438 1.350 . S
C1435 C1438 1.463 . S
C1435 C1440 1.350 . S
C1435 N1443 1.427 1_655 S
C1436 H1427 0.930 . S
C1436 C1434 1.378 . S
C1436 C1437 1.367 . S
C1437 C1436 1.367 . S
C1437 C1439 1.433 . S
C1438 C1434 1.350 . S
C1438 C1435 1.463 . S
C1438 N1442 1.427 . S
C1439 H1429 0.929 . S
C1439 C1437 1.433 . S
C1439 N1442 1.384 . S
C1440 H1431 0.929 . S
C1440 C1432 1.378 1_655 S
C1440 C1435 1.350 . S
C1441 H1428 0.929 . S
C1441 C1433 1.433 . S
C1441 N1443 1.384 . S
N1442 C1438 1.427 . S
N1442 C1439 1.384 . S
N1443 C1435 1.427 1_455 S
N1443 C1441 1.384 . S
H1444 C1450 0.930 . S
H1445 C1454 0.930 . S
H1446 C1459 0.929 . S
H1447 C1457 0.929 . S
H1448 C1452 0.929 . S
H1449 C1458 0.929 . S
C1450 H1444 0.930 . S
C1450 C1451 1.367 . S
C1450 C1458 1.378 . S
C1451 C1450 1.367 . S
C1451 C1459 1.433 . S
C1452 H1448 0.929 . S
C1452 C1454 1.378 . S
C1452 C1456 1.350 . S
C1453 C1456 1.463 . S
C1453 C1458 1.350 . S
C1453 N1461 1.427 . S
C1454 H1445 0.930 . S
C1454 C1452 1.378 . S
C1454 C1455 1.367 . S
C1455 C1454 1.367 . S
C1455 C1457 1.433 . S
C1456 C1452 1.350 . S
C1456 C1453 1.463 . S
C1456 N1460 1.427 . S
C1457 H1447 0.929 . S
C1457 C1455 1.433 . S
C1457 N1460 1.384 . S
C1458 H1449 0.929 . S
C1458 C1450 1.378 . S
C1458 C1453 1.350 . S
C1459 H1446 0.929 . S
C1459 C1451 1.433 . S
C1459 N1461 1.384 . S
N1460 C1456 1.427 . S
N1460 C1457 1.384 . S
N1461 C1453 1.427 . S
N1461 C1459 1.384 . S
H1462 C1468 0.930 . S
H1463 C1472 0.930 . S
H1464 C1477 0.929 . S
H1465 C1475 0.929 . S
H1466 C1470 0.929 . S
H1467 C1476 0.929 . S
C1468 H1462 0.930 . S
C1468 C1469 1.367 . S
C1468 C1476 1.378 . S
C1469 C1468 1.367 . S
C1469 C1477 1.433 . S
C1470 H1466 0.929 . S
C1470 C1472 1.378 . S
C1470 C1474 1.350 . S
C1471 C1474 1.463 . S
C1471 C1476 1.350 . S
C1471 N1479 1.427 . S
C1472 H1463 0.930 . S
C1472 C1470 1.378 . S
C1472 C1473 1.367 . S
C1473 C1472 1.367 . S
C1473 C1475 1.433 . S
C1474 C1470 1.350 . S
C1474 C1471 1.463 . S
C1474 N1478 1.427 . S
C1475 H1465 0.929 . S
C1475 C1473 1.433 . S
C1475 N1478 1.384 . S
C1476 H1467 0.929 . S
C1476 C1468 1.378 . S
C1476 C1471 1.350 . S
C1477 H1464 0.929 . S
C1477 C1469 1.433 . S
C1477 N1479 1.384 . S
N1478 C1474 1.427 . S
N1478 C1475 1.384 . S
N1479 C1471 1.427 . S
N1479 C1477 1.384 . S
H1480 C1486 0.930 . S
H1481 C1490 0.930 . S
H1482 C1495 0.929 . S
H1483 C1493 0.929 . S
H1484 C1488 0.929 . S
H1485 C1494 0.929 . S
C1486 H1480 0.930 . S
C1486 C1487 1.367 . S
C1486 C1494 1.378 . S
C1487 C1486 1.367 . S
C1487 C1495 1.433 . S
C1488 H1484 0.929 . S
C1488 C1490 1.378 . S
C1488 C1492 1.350 . S
C1489 C1492 1.463 . S
C1489 C1494 1.350 . S
C1489 N1497 1.427 . S
C1490 H1481 0.930 . S
C1490 C1488 1.378 . S
C1490 C1491 1.367 . S
C1491 C1490 1.367 . S
C1491 C1493 1.433 . S
C1492 C1488 1.350 . S
C1492 C1489 1.463 . S
C1492 N1496 1.427 . S
C1493 H1483 0.929 . S
C1493 C1491 1.433 . S
C1493 N1496 1.384 . S
C1494 H1485 0.929 . S
C1494 C1486 1.378 . S
C1494 C1489 1.350 . S
C1495 H1482 0.929 . S
C1495 C1487 1.433 . S
C1495 N1497 1.384 . S
N1496 C1492 1.427 . S
N1496 C1493 1.384 . S
N1497 C1489 1.427 . S
N1497 C1495 1.384 . S
H1498 C1504 0.930 . S
H1499 C1508 0.930 . S
H1500 C1513 0.929 . S
H1501 C1511 0.929 . S
H1502 C1506 0.929 . S
H1503 C1512 0.929 . S
C1504 H1498 0.930 . S
C1504 C1505 1.367 . S
C1504 C1512 1.378 1_655 S
C1505 C1504 1.367 . S
C1505 C1513 1.433 . S
C1506 H1502 0.929 . S
C1506 C1508 1.378 . S
C1506 C1510 1.350 . S
C1507 C1510 1.463 . S
C1507 C1512 1.350 . S
C1507 N1515 1.427 1_455 S
C1508 H1499 0.930 . S
C1508 C1506 1.378 . S
C1508 C1509 1.367 . S
C1509 C1508 1.367 . S
C1509 C1511 1.433 . S
C1510 C1506 1.350 . S
C1510 C1507 1.463 . S
C1510 N1514 1.427 . S
C1511 H1501 0.929 . S
C1511 C1509 1.433 . S
C1511 N1514 1.384 . S
C1512 H1503 0.929 . S
C1512 C1504 1.378 1_455 S
C1512 C1507 1.350 . S
C1513 H1500 0.929 . S
C1513 C1505 1.433 . S
C1513 N1515 1.384 . S
N1514 C1510 1.427 . S
N1514 C1511 1.384 . S
N1515 C1507 1.427 1_655 S
N1515 C1513 1.384 . S
H1516 C1522 0.930 . S
H1517 C1526 0.930 . S
H1518 C1531 0.929 . S
H1519 C1529 0.929 . S
H1520 C1524 0.929 . S
H1521 C1530 0.929 . S
C1522 H1516 0.930 . S
C1522 C1523 1.367 . S
C1522 C1530 1.378 . S
C1523 C1522 1.367 . S
C1523 C1531 1.433 . S
C1524 H1520 0.929 . S
C1524 C1526 1.378 . S
C1524 C1528 1.350 . S
C1525 C1528 1.463 . S
C1525 C1530 1.350 . S
C1525 N1533 1.427 . S
C1526 H1517 0.930 . S
C1526 C1524 1.378 . S
C1526 C1527 1.367 . S
C1527 C1526 1.367 . S
C1527 C1529 1.433 . S
C1528 C1524 1.350 . S
C1528 C1525 1.463 . S
C1528 N1532 1.427 . S
C1529 H1519 0.929 . S
C1529 C1527 1.433 . S
C1529 N1532 1.384 . S
C1530 H1521 0.929 . S
C1530 C1522 1.378 . S
C1530 C1525 1.350 . S
C1531 H1518 0.929 . S
C1531 C1523 1.433 . S
C1531 N1533 1.384 . S
N1532 C1528 1.427 . S
N1532 C1529 1.384 . S
N1533 C1525 1.427 . S
N1533 C1531 1.384 . S
H1534 C1540 0.930 . S
H1535 C1544 0.930 . S
H1536 C1549 0.929 . S
H1537 C1547 0.929 . S
H1538 C1542 0.929 . S
H1539 C1548 0.929 . S
C1540 H1534 0.930 . S
C1540 C1541 1.367 . S
C1540 C1548 1.378 . S
C1541 C1540 1.367 . S
C1541 C1549 1.433 . S
C1542 H1538 0.929 . S
C1542 C1544 1.378 . S
C1542 C1546 1.350 . S
C1543 C1546 1.463 . S
C1543 C1548 1.350 . S
C1543 N1551 1.427 . S
C1544 H1535 0.930 . S
C1544 C1542 1.378 . S
C1544 C1545 1.367 . S
C1545 C1544 1.367 . S
C1545 C1547 1.433 . S
C1546 C1542 1.350 . S
C1546 C1543 1.463 . S
C1546 N1550 1.427 . S
C1547 H1537 0.929 . S
C1547 C1545 1.433 . S
C1547 N1550 1.384 . S
C1548 H1539 0.929 . S
C1548 C1540 1.378 . S
C1548 C1543 1.350 . S
C1549 H1536 0.929 . S
C1549 C1541 1.433 . S
C1549 N1551 1.384 . S
N1550 C1546 1.427 . S
N1550 C1547 1.384 . S
N1551 C1543 1.427 . S
N1551 C1549 1.384 . S
C551 C15 1.504 . S
C555 C22 1.503 . S
C569 C56 1.508 . S
C573 C49 1.508 . S
C587 C83 1.509 . S
C591 C90 1.507 1_554 S
C605 C124 1.502 . S
C609 C117 1.501 . S
C623 C158 1.516 . S
C627 C151 1.515 . S
C641 C192 1.500 . S
C645 C185 1.500 . S
C659 C219 1.509 1_556 S
C663 C226 1.511 . S
C677 C253 1.513 . S
C681 C260 1.511 . S
C695 C294 1.514 1_554 S
C699 C287 1.515 . S
C713 C321 1.499 . S
C717 C328 1.498 . S
C731 C355 1.512 . S
C735 C362 1.512 . S
C749 C389 1.511 . S
C753 C396 1.513 . S
C767 C423 1.503 1_556 S
C771 C430 1.503 . S
C785 C464 1.502 . S
C789 C457 1.502 . S
C803 C498 1.501 . S
C807 C491 1.499 . S
C821 C532 1.514 . S
C825 C525 1.514 . S
C839 C1 2.019 . S
C843 C411 2.019 . S
C857 C173 2.019 . S
C861 C35 2.019 . S
C875 C479 2.030 . S
C879 C69 2.030 . S
C893 C239 2.029 . S
C897 C105 2.029 . S
C911 C139 2.029 . S
C915 C273 2.029 . S
C929 C207 2.026 . S
C933 C341 2.026 . S
C947 C445 2.031 . S
C951 C307 2.031 . S
C965 C377 2.030 . S
C969 C511 2.030 . S
C983 C312 1.325 . S
C987 C17 1.299 . S
C1001 C51 1.303 . S
C1005 C346 1.329 . S
C1019 C85 1.298 . S
C1023 C402 1.326 . S
C1037 C278 1.324 . S
C1041 C119 1.297 . S
C1055 C470 1.331 . S
C1059 C153 1.308 . S
C1073 C504 1.331 . S
C1077 C187 1.307 . S
C1091 C516 1.332 . S
C1095 C221 1.309 . S
C1109 C255 1.302 . S
C1113 C436 1.328 . S
C1127 C40 1.332 . S
C1131 C289 1.310 . S
C1145 C323 1.297 . S
C1149 C74 1.324 . S
C1163 C130 1.329 . S
C1167 C357 1.303 . S
C1181 C6 1.331 . S
C1185 C391 1.307 . S
C1199 C425 1.297 . S
C1203 C198 1.325 . S
C1217 C232 1.329 . S
C1221 C459 1.307 . S
C1235 C493 1.310 . S
C1239 C244 1.332 . S
C1253 C527 1.297 . S
C1257 C164 1.324 . S
C1271 C3 1.324 . S
C1275 C266 1.394 . S
C1289 C37 1.342 . S
C1293 C414 1.392 . S
C1307 C176 1.394 . S
C1311 C71 1.325 . S
C1325 C482 1.396 . S
C1329 C103 1.335 . S
C1343 C108 1.388 . S
C1347 C137 1.345 . S
C1361 C171 1.337 . S
C1365 C300 1.395 . S
C1379 C62 1.386 . S
C1383 C205 1.344 . S
C1397 C241 1.341 . S
C1401 C368 1.393 . S
C1415 C538 1.397 . S
C1419 C275 1.334 . S
C1433 C309 1.324 . S
C1437 C142 1.396 . S
C1451 C343 1.324 . S
C1455 C448 1.395 . S
C1469 C210 1.398 . S
C1473 C375 1.331 . S
C1487 C380 1.394 . S
C1491 C409 1.325 . S
C1505 C443 1.328 . S
C1509 C28 1.398 . S
C1523 C334 1.386 . S
C1527 C477 1.338 . S
C1541 C96 1.393 . S
C1545 C513 1.340 . S
