# Generated by pormake.
# Topology kag, (6)-cn, num edge types: 1
# Building blocks:
#     Node 0, Type 0, BuildingBlock: BETDIP_clean_sbu_0, # of connection points: 6
#     Node 1, Type 0, BuildingBlock: BETDIP_clean_sbu_0, # of connection points: 6
#     Node 2, Type 0, BuildingBlock: BETDIP_clean_sbu_0, # of connection points: 6
#     Edge 3, Type (0, 0), BuildingBlock: XIVTED_clean_linker_0, # of connection points: 2
#     Edge 4, Type (0, 0), BuildingBlock: XIVTED_clean_linker_0, # of connection points: 2
#     Edge 5, Type (0, 0), BuildingBlock: XIVTED_clean_linker_0, # of connection points: 2
#     Edge 6, Type (0, 0), BuildingBlock: XIVTED_clean_linker_0, # of connection points: 2
#     Edge 7, Type (0, 0), BuildingBlock: XIVTED_clean_linker_0, # of connection points: 2
#     Edge 8, Type (0, 0), BuildingBlock: XIVTED_clean_linker_0, # of connection points: 2
#     Edge 9, Type (0, 0), BuildingBlock: XIVTED_clean_linker_0, # of connection points: 2
#     Edge 10, Type (0, 0), BuildingBlock: XIVTED_clean_linker_0, # of connection points: 2
#     Edge 11, Type (0, 0), BuildingBlock: XIVTED_clean_linker_0, # of connection points: 2
# Relax obj value: 0.013
# Max RMSD: 0.069
# Mean RMSD: 0.060
data_MOF--net-kag--node1-BETDIP_clean_sbu_0--edge1-XIVTED_clean_linker_0
_symmetry_space_group_name_H-M    P1
_symmetry_Int_Tables_number       1
_symmetry_cell_setting            triclinic
loop_
_symmetry_equiv_pos_as_xyz
'x, y, z'
_cell_length_a     41.206383
_cell_length_b     41.220906
_cell_length_c     14.495522
_cell_angle_alpha  92.982904
_cell_angle_beta   92.245118
_cell_angle_gamma 120.03408
loop_
_atom_site_label
_atom_site_type_symbol
_atom_site_fract_x
_atom_site_fract_y
_atom_site_fract_z
_atom_type_partial_charge
Tb0 Tb 1.00887 0.48021 0.01836 0.0
Tb1 Tb 0.05224 0.56293 0.99612 0.0
C2 C 0.96768 0.41594 0.07322 0.0
C3 C 0.92857 0.38402 0.06432 0.0
C4 C 0.89766 0.38847 0.08215 0.0
C5 C 0.86139 0.35696 0.07968 0.0
C6 C 0.85539 0.32045 0.05972 0.0
C7 C 0.88637 0.31639 0.03979 0.0
C8 C 0.92246 0.34776 0.04232 0.0
C9 C 1.02186 0.49798 0.84541 0.0
C10 C 0.96487 0.52542 0.99466 0.0
C11 C 0.09353 0.62686 0.93958 0.0
C12 C 0.13329 0.65671 0.94046 0.0
C13 C 0.14503 0.67863 0.86473 0.0
C14 C 0.1815 0.70937 0.86629 0.0
C15 C 0.20712 0.71901 0.94399 0.0
C16 C 0.19564 0.69613 0.01874 0.0
C17 C 0.15903 0.66524 0.017 0.0
C18 C 0.03862 0.54493 0.16874 0.0
C19 C 0.09627 0.51801 0.02136 0.0
O20 O 0.97451 0.44729 0.11876 0.0
O21 O 0.98667 0.42186 0.99968 0.0
O22 O 1.01391 0.51474 0.90761 0.0
O23 O 1.01931 0.46808 0.87701 0.0
O24 O 0.96434 0.49505 0.0229 0.0
O25 O 0.99591 0.55377 0.96721 0.0
O26 O 0.08335 0.59528 0.89036 0.0
O27 O 0.07798 0.62148 0.01854 0.0
O28 O 0.04702 0.52841 0.10691 0.0
O29 O 0.04093 0.57473 0.13689 0.0
O30 O 0.09661 0.54796 0.99094 0.0
O31 O 0.06534 0.49007 0.05047 0.0
H32 H 0.90155 0.41612 0.09952 0.0
H33 H 0.83824 0.36113 0.09591 0.0
H34 H 0.88278 0.28886 0.02235 0.0
H35 H 0.94583 0.34361 0.02832 0.0
H36 H 0.12565 0.67242 0.80484 0.0
H37 H 0.18953 0.72579 0.80671 0.0
H38 H 0.2145 0.7028 0.0799 0.0
H39 H 0.1506 0.64863 0.07624 0.0
Tb40 Tb 0.55101 0.99949 0.02956 0.0
Tb41 Tb 0.51107 0.04151 0.99249 0.0
C42 C 0.57241 0.95654 0.09074 0.0
C43 C 0.56339 0.91694 0.07509 0.0
C44 C 0.55246 0.89379 0.14891 0.0
C45 C 0.54689 0.85734 0.13809 0.0
C46 C 0.55245 0.84329 0.05326 0.0
C47 C 0.56261 0.86623 0.97878 0.0
C48 C 0.56796 0.90259 0.98945 0.0
C49 C 0.54701 1.01291 0.85399 0.0
C50 C 0.46172 0.95457 0.98494 0.0
C51 C 0.48965 0.08453 0.93189 0.0
C52 C 0.49893 0.12423 0.94725 0.0
C53 C 0.51163 0.14783 0.87447 0.0
C54 C 0.51747 0.18439 0.88478 0.0
C55 C 0.5104 0.19812 0.96797 0.0
C56 C 0.49844 0.17473 0.04148 0.0
C57 C 0.4928 0.13826 0.03134 0.0
C58 C 0.51509 0.02788 0.168 0.0
C59 C 0.60033 0.08645 0.03674 0.0
O60 O 0.54736 0.96248 0.12888 0.0
O61 O 0.58791 0.97853 0.0245 0.0
O62 O 0.52166 1.00419 0.9093 0.0
O63 O 0.57438 1.01081 0.8941 0.0
O64 O 0.4915 0.95494 0.02419 0.0
O65 O 0.46455 0.9851 0.95172 0.0
O66 O 0.51438 0.0783 0.89294 0.0
O67 O 0.4744 0.06273 0.99862 0.0
O68 O 0.54042 0.03683 0.11259 0.0
O69 O 0.48762 0.02983 0.12794 0.0
O70 O 0.57052 0.08604 0.99755 0.0
O71 O 0.59755 0.05595 0.07004 0.0
H72 H 0.54903 0.90423 0.21583 0.0
H73 H 0.53943 0.84063 0.19718 0.0
H74 H 0.5666 0.85613 0.91213 0.0
H75 H 0.5763 0.91961 0.93094 0.0
H76 H 0.51626 0.13768 0.80866 0.0
H77 H 0.52632 0.20145 0.82641 0.0
H78 H 0.49325 0.18456 0.10693 0.0
H79 H 0.48302 0.1209 0.08899 0.0
Tb80 Tb 0.48804 0.50019 0.02409 0.0
Tb81 Tb 0.57084 0.53942 1.00107 0.0
C82 C 0.42389 0.47866 0.08134 0.0
C83 C 0.39392 0.48838 0.07854 0.0
C84 C 0.36965 0.47831 0.15021 0.0
C85 C 0.33887 0.48392 0.146 0.0
C86 C 0.33152 0.49965 0.06963 0.0
C87 C 0.35674 0.51096 0.9992 0.0
C88 C 0.38766 0.50536 1.00359 0.0
C89 C 0.50617 0.50452 0.85023 0.0
C90 C 0.53416 0.58962 0.01524 0.0
C91 C 0.63506 0.56098 0.94423 0.0
C92 C 0.66494 0.55113 0.94682 0.0
C93 C 0.68961 0.56177 0.87599 0.0
C94 C 0.72028 0.55598 0.88013 0.0
C95 C 0.72711 0.53948 0.95559 0.0
C96 C 0.70149 0.52762 0.02513 0.0
C97 C 0.67069 0.53342 0.02082 0.0
C98 C 0.55251 0.53509 0.17488 0.0
C99 C 0.52469 0.44997 0.01004 0.0
O100 O 0.45533 0.50207 0.13 0.0
O101 O 0.42961 0.46569 1.00312 0.0
O102 O 0.523 0.52951 0.91603 0.0
O103 O 0.47609 0.47717 0.8791 0.0
O104 O 0.50397 0.55988 0.04179 0.0
O105 O 0.56214 0.58669 0.98203 0.0
O106 O 0.60366 0.53778 0.89515 0.0
O107 O 0.62928 0.57373 0.02268 0.0
O108 O 0.53591 0.51012 0.10898 0.0
O109 O 0.58258 0.5625 0.14611 0.0
O110 O 0.55489 0.47968 0.9834 0.0
O111 O 0.49676 0.45297 0.04328 0.0
H112 H 0.37407 0.46533 0.20885 0.0
H113 H 0.3206 0.4756 0.20245 0.0
H114 H 0.35191 0.52298 0.93916 0.0
H115 H 0.40612 0.51343 0.94749 0.0
H116 H 0.68559 0.57532 0.81809 0.0
H117 H 0.73886 0.56475 0.82434 0.0
H118 H 0.70591 0.51501 0.08446 0.0
H119 H 0.65191 0.52489 0.07625 0.0
H120 H 1.01679 0.55385 0.76254 0.0
H121 H 0.04302 0.4887 0.25142 0.0
H122 H 0.03371 0.46003 0.70301 0.0
H123 H 1.02683 0.58298 0.31108 0.0
H124 H 0.0392 0.47739 0.41618 0.0
H125 H 1.02049 0.56512 0.59774 0.0
C126 C 1.02141 0.53571 0.7148 0.0
C127 C 1.02497 0.50597 0.74651 0.0
C128 C 0.03644 0.50054 0.39333 0.0
C129 C 1.02902 0.51851 0.55752 0.0
C130 C 0.03855 0.50695 0.2992 0.0
C131 C 0.03528 0.53685 0.26756 0.0
C132 C 0.03102 0.52422 0.45648 0.0
C133 C 1.02956 0.55964 0.33254 0.0
C134 C 1.02344 0.54208 0.62064 0.0
C135 C 0.03079 0.48326 0.68152 0.0
N136 N 1.02766 0.5529 0.42372 0.0
N137 N 0.03259 0.48996 0.59032 0.0
H138 H 0.4642 1.01567 0.29571 0.0
H139 H 0.59787 0.02485 0.72628 0.0
H140 H 0.57554 0.03305 0.26928 0.0
H141 H 0.4867 1.00796 0.75263 0.0
H142 H 0.59034 0.02811 0.55933 0.0
H143 H 0.47177 1.01241 0.4626 0.0
C144 C 0.49026 1.01874 0.32512 0.0
C145 C 0.51934 0.02475 0.26861 0.0
C146 C 0.56756 0.02372 0.60143 0.0
C147 C 0.52828 0.0211 0.46009 0.0
C148 C 0.57186 0.02189 0.69684 0.0
C149 C 0.54282 1.01603 0.75335 0.0
C150 C 0.53392 1.01966 0.56184 0.0
C151 C 0.50977 1.01246 0.71156 0.0
C152 C 0.49458 1.01691 0.42052 0.0
C153 C 0.55245 0.02844 0.31038 0.0
N154 N 0.5062 1.01428 0.61837 0.0
N155 N 0.55603 0.02661 0.40357 0.0
H156 H 0.56294 0.56511 0.77521 0.0
H157 H 0.4958 0.47435 0.24974 0.0
H158 H 0.46732 0.45481 0.70054 0.0
H159 H 0.59116 0.5848 0.32459 0.0
H160 H 0.48466 0.46666 0.41428 0.0
H161 H 0.57403 0.57276 0.61068 0.0
C162 C 0.54436 0.54247 0.72415 0.0
C163 C 0.51415 0.5093 0.75149 0.0
C164 C 0.50801 0.49261 0.3948 0.0
C165 C 0.5265 0.51784 0.56293 0.0
C166 C 0.51431 0.49702 0.30084 0.0
C167 C 0.54447 0.53024 0.27356 0.0
C168 C 0.53206 0.52165 0.46208 0.0
C169 C 0.56761 0.55869 0.34264 0.0
C170 C 0.55063 0.54685 0.63019 0.0
C171 C 0.49092 0.48087 0.68244 0.0
N172 N 0.56098 0.55374 0.43354 0.0
N173 N 0.49753 0.4858 0.59151 0.0
H174 H 0.16654 0.57042 0.97312 0.0
H175 H 0.26085 0.44902 0.11654 0.0
H176 H 0.10678 0.46216 0.08438 0.0
H177 H 0.32279 0.55697 1.00505 0.0
H178 H 0.20448 0.45415 0.10575 0.0
H179 H 0.22407 0.56667 0.98416 0.0
C180 C 0.16545 0.54587 0.99991 0.0
C181 C 0.13162 0.51655 0.02788 0.0
C182 C 0.23036 0.4768 0.08368 0.0
C183 C 0.19751 0.51211 0.04061 0.0
C184 C 0.26275 0.47402 0.09045 0.0
C185 C 0.2969 0.50274 0.06236 0.0
C186 C 0.23178 0.50855 0.0484 0.0
C187 C 0.29713 0.53399 0.02696 0.0
C188 C 0.19835 0.54376 1.00615 0.0
C189 C 0.13206 0.48548 0.06199 0.0
N190 N 0.26514 0.53609 0.02119 0.0
N191 N 0.16437 0.48411 0.06734 0.0
H192 H 0.61664 0.15533 0.98073 0.0
H193 H 0.83704 0.25305 0.12828 0.0
H194 H 0.66822 0.09878 0.11138 0.0
H195 H 0.78673 0.31037 0.99589 0.0
H196 H 0.77506 0.19696 0.12612 0.0
H197 H 0.67802 0.21288 0.98999 0.0
C198 C 0.6408 0.15498 0.01171 0.0
C199 C 0.63715 0.12201 0.04522 0.0
C200 C 0.77749 0.22178 0.09761 0.0
C201 C 0.70772 0.18801 0.05573 0.0
C202 C 0.81299 0.25384 0.09826 0.0
C203 C 0.81732 0.28654 0.06142 0.0
C204 C 0.74579 0.22217 0.05985 0.0
C205 C 0.78483 0.28597 0.02556 0.0
C206 C 0.6759 0.18792 0.01689 0.0
C207 C 0.66957 0.12342 0.08459 0.0
N208 N 0.75051 0.25429 0.02531 0.0
N209 N 0.70342 0.15578 0.08851 0.0
H210 H 0.59809 0.82282 0.96549 0.0
H211 H 0.48308 0.6073 0.0829 0.0
H212 H 0.49914 0.77744 0.11949 0.0
H213 H 0.58868 0.65615 0.95554 0.0
H214 H 0.48661 0.66839 0.08974 0.0
H215 H 0.59298 0.76105 0.95329 0.0
C216 C 0.57507 0.79979 0.99609 0.0
C217 C 0.54897 0.80544 0.04352 0.0
C218 C 0.50901 0.66575 0.06027 0.0
C219 C 0.54316 0.73446 0.03055 0.0
C220 C 0.50701 0.63081 0.0562 0.0
C221 C 0.53567 0.62647 0.01868 0.0
C222 C 0.53983 0.69669 0.02629 0.0
C223 C 0.56594 0.65807 0.98521 0.0
C224 C 0.57232 0.76454 0.98964 0.0
C225 C 0.52013 0.77457 0.0831 0.0
N226 N 0.56719 0.69175 0.98979 0.0
N227 N 0.51798 0.74047 0.07563 0.0
H228 H 0.9549 0.58202 0.9352 0.0
H229 H 0.73506 0.48129 0.01711 0.0
H230 H 0.89427 0.47279 0.04121 0.0
H231 H 0.79821 0.59033 0.91165 0.0
H232 H 0.79246 0.47723 0.02797 0.0
H233 H 0.89726 0.5849 0.92658 0.0
C234 C 0.92947 0.55856 0.95668 0.0
C235 C 0.9296 0.52708 0.98895 0.0
C236 C 0.79368 0.502 1.00231 0.0
C237 C 0.86302 0.53026 0.97928 0.0
C238 C 0.76094 0.50443 0.99651 0.0
C239 C 0.76158 0.53612 0.96285 0.0
C240 C 0.82744 0.53152 0.97462 0.0
C241 C 0.796 0.56503 0.93638 0.0
C242 C 0.89645 0.56024 0.95174 0.0
C243 C 0.89559 0.49762 0.01581 0.0
N244 N 0.82737 0.56201 0.94286 0.0
N245 N 0.86371 0.49993 0.0104 0.0
H246 H 0.2255 0.78769 0.88348 0.0
H247 H 0.44501 0.88574 0.04225 0.0
H248 H 0.27525 0.72957 0.01444 0.0
H249 H 0.39419 0.94225 0.90787 0.0
H250 H 0.3836 0.82813 0.03111 0.0
H251 H 0.28737 0.84409 0.89001 0.0
C252 C 0.24947 0.78662 0.91294 0.0
C253 C 0.24501 0.75357 0.94796 0.0
C254 C 0.3859 0.8531 1.00388 0.0
C255 C 0.31629 0.81868 0.95694 0.0
C256 C 0.42101 0.88607 0.01011 0.0
C257 C 0.42488 0.91903 0.97596 0.0
C258 C 0.35431 0.85299 0.96331 0.0
C259 C 0.39267 0.91762 0.93516 0.0
C260 C 0.28485 0.81902 0.91719 0.0
C261 C 0.27717 0.75439 0.98728 0.0
N262 N 0.35883 0.88523 0.93014 0.0
N263 N 0.3114 0.78636 0.99061 0.0
H264 H 0.46955 0.38357 0.0682 0.0
H265 H 0.56553 0.26419 0.90667 0.0
H266 H 0.57589 0.43195 0.94437 0.0
H267 H 0.46353 0.21867 0.04882 0.0
H268 H 0.5697 0.32566 0.91819 0.0
H269 H 0.46684 0.32294 0.06046 0.0
C270 C 0.49239 0.38152 0.03944 0.0
C271 C 0.52299 0.41305 1.00683 0.0
C272 C 0.54647 0.30224 0.94712 0.0
C273 C 0.51999 0.34336 0.99756 0.0
C274 C 0.54397 0.26707 0.94017 0.0
C275 C 0.51414 0.23609 0.97687 0.0
C276 C 0.5188 0.30657 0.99058 0.0
C277 C 0.4873 0.24175 0.02056 0.0
C278 C 0.49082 0.34681 0.03511 0.0
C279 C 0.55172 0.4085 0.97036 0.0
N280 N 0.4902 0.27616 0.02586 0.0
N281 N 0.54947 0.37435 0.96654 0.0
loop_
_geom_bond_atom_site_label_1
_geom_bond_atom_site_label_2
_geom_bond_distance
_geom_bond_site_symmetry_2
_ccdc_geom_bond_type
Tb0 C2 2.809 . S
Tb0 O20 2.484 1_556 S
Tb0 O21 2.440 . S
Tb0 O22 2.658 1_655 S
Tb0 O23 2.409 . S
Tb0 O24 2.378 . S
Tb0 O28 2.325 1_556 S
Tb0 O31 2.341 1_655 S
Tb1 C11 2.809 . S
Tb1 O22 2.325 1_554 S
Tb1 O25 2.341 1_455 S
Tb1 O26 2.484 1_554 S
Tb1 O27 2.440 . S
Tb1 O28 2.658 1_455 S
Tb1 O29 2.409 . S
Tb1 O30 2.378 . S
C2 Tb0 2.809 . S
C2 C3 1.514 1_556 S
C2 O20 1.248 1_556 S
C2 O21 1.266 . S
C3 C2 1.514 1_554 S
C3 C4 1.359 . S
C3 C8 1.348 1_554 S
C4 C3 1.359 . S
C4 C5 1.380 . S
C4 H32 0.929 . S
C5 C4 1.380 . S
C5 C6 1.347 . S
C5 H33 0.931 . S
C6 C5 1.347 . S
C6 C7 1.369 1_554 S
C7 C6 1.369 1_556 S
C7 C8 1.408 . S
C7 H34 0.930 . S
C8 C3 1.348 1_556 S
C8 C7 1.408 . S
C8 H35 0.930 . S
C9 O22 1.281 1_655 S
C9 O23 1.254 . S
C10 O24 1.236 . S
C10 O25 1.266 1_556 S
C11 Tb1 2.809 . S
C11 C12 1.514 1_554 S
C11 O26 1.248 1_554 S
C11 O27 1.266 . S
C12 C11 1.514 1_556 S
C12 C13 1.359 . S
C12 C17 1.348 1_556 S
C13 C12 1.359 . S
C13 C14 1.380 . S
C13 H36 0.929 . S
C14 C13 1.380 . S
C14 C15 1.347 . S
C14 H37 0.931 . S
C15 C14 1.347 . S
C15 C16 1.369 1_556 S
C16 C15 1.369 1_554 S
C16 C17 1.408 . S
C16 H38 0.930 . S
C17 C12 1.348 1_554 S
C17 C16 1.408 . S
C17 H39 0.930 . S
C18 O28 1.281 1_455 S
C18 O29 1.254 . S
C19 O30 1.236 . S
C19 O31 1.266 1_554 S
O20 Tb0 2.484 1_554 S
O20 C2 1.248 1_554 S
O21 Tb0 2.440 . S
O21 C2 1.266 . S
O22 Tb0 2.658 1_455 S
O22 Tb1 2.325 1_556 S
O22 C9 1.281 1_455 S
O23 Tb0 2.409 . S
O23 C9 1.254 . S
O24 Tb0 2.378 . S
O24 C10 1.236 . S
O25 Tb1 2.341 1_655 S
O25 C10 1.266 1_554 S
O26 Tb1 2.484 1_556 S
O26 C11 1.248 1_556 S
O27 Tb1 2.440 . S
O27 C11 1.266 . S
O28 Tb0 2.325 1_554 S
O28 Tb1 2.658 1_655 S
O28 C18 1.281 1_655 S
O29 Tb1 2.409 . S
O29 C18 1.254 . S
O30 Tb1 2.378 . S
O30 C19 1.236 . S
O31 Tb0 2.341 1_455 S
O31 C19 1.266 1_556 S
H32 C4 0.929 . S
H33 C5 0.931 . S
H34 C7 0.930 . S
H35 C8 0.930 . S
H36 C13 0.929 . S
H37 C14 0.931 . S
H38 C16 0.930 . S
H39 C17 0.930 . S
Tb40 C42 2.809 1_556 S
Tb40 O60 2.484 1_556 S
Tb40 O61 2.440 . S
Tb40 O62 2.658 1_565 S
Tb40 O63 2.409 . S
Tb40 O64 2.378 . S
Tb40 O68 2.325 1_556 S
Tb40 O71 2.341 1_566 S
Tb41 C51 2.809 1_554 S
Tb41 O62 2.325 1_554 S
Tb41 O65 2.341 1_544 S
Tb41 O66 2.484 1_554 S
Tb41 O67 2.440 . S
Tb41 O68 2.658 1_545 S
Tb41 O69 2.409 . S
Tb41 O70 2.378 . S
C42 Tb40 2.809 1_554 S
C42 C43 1.514 . S
C42 O60 1.248 . S
C42 O61 1.266 1_554 S
C43 C42 1.514 . S
C43 C44 1.359 . S
C43 C48 1.348 1_554 S
C44 C43 1.359 . S
C44 C45 1.380 . S
C44 H72 0.929 . S
C45 C44 1.380 . S
C45 C46 1.347 . S
C45 H73 0.931 . S
C46 C45 1.347 . S
C46 C47 1.369 1_554 S
C47 C46 1.369 1_556 S
C47 C48 1.408 . S
C47 H74 0.930 . S
C48 C43 1.348 1_556 S
C48 C47 1.408 . S
C48 H75 0.930 . S
C49 O62 1.281 1_565 S
C49 O63 1.254 . S
C50 O64 1.236 . S
C50 O65 1.266 . S
C51 Tb41 2.809 1_556 S
C51 C52 1.514 . S
C51 O66 1.248 . S
C51 O67 1.266 1_556 S
C52 C51 1.514 . S
C52 C53 1.359 . S
C52 C57 1.348 1_556 S
C53 C52 1.359 . S
C53 C54 1.380 . S
C53 H76 0.929 . S
C54 C53 1.380 . S
C54 C55 1.347 . S
C54 H77 0.931 . S
C55 C54 1.347 . S
C55 C56 1.369 1_556 S
C56 C55 1.369 1_554 S
C56 C57 1.408 . S
C56 H78 0.930 . S
C57 C52 1.348 1_554 S
C57 C56 1.408 . S
C57 H79 0.930 . S
C58 O68 1.281 1_545 S
C58 O69 1.254 . S
C59 O70 1.236 . S
C59 O71 1.266 . S
O60 Tb40 2.484 1_554 S
O60 C42 1.248 . S
O61 Tb40 2.440 . S
O61 C42 1.266 1_556 S
O62 Tb40 2.658 1_545 S
O62 Tb41 2.325 1_556 S
O62 C49 1.281 1_545 S
O63 Tb40 2.409 . S
O63 C49 1.254 . S
O64 Tb40 2.378 . S
O64 C50 1.236 . S
O65 Tb41 2.341 1_566 S
O65 C50 1.266 . S
O66 Tb41 2.484 1_556 S
O66 C51 1.248 . S
O67 Tb41 2.440 . S
O67 C51 1.266 1_554 S
O68 Tb40 2.325 1_554 S
O68 Tb41 2.658 1_565 S
O68 C58 1.281 1_565 S
O69 Tb41 2.409 . S
O69 C58 1.254 . S
O70 Tb41 2.378 . S
O70 C59 1.236 . S
O71 Tb40 2.341 1_544 S
O71 C59 1.266 . S
H72 C44 0.929 . S
H73 C45 0.931 . S
H74 C47 0.930 . S
H75 C48 0.930 . S
H76 C53 0.929 . S
H77 C54 0.931 . S
H78 C56 0.930 . S
H79 C57 0.930 . S
Tb80 C82 2.809 . S
Tb80 O100 2.484 1_556 S
Tb80 O101 2.440 . S
Tb80 O102 2.658 . S
Tb80 O103 2.409 . S
Tb80 O104 2.378 . S
Tb80 O108 2.325 1_556 S
Tb80 O111 2.341 . S
Tb81 C91 2.809 . S
Tb81 O102 2.325 1_554 S
Tb81 O105 2.341 . S
Tb81 O106 2.484 1_554 S
Tb81 O107 2.440 . S
Tb81 O108 2.658 . S
Tb81 O109 2.409 . S
Tb81 O110 2.378 . S
C82 Tb80 2.809 . S
C82 C83 1.514 1_556 S
C82 O100 1.248 1_556 S
C82 O101 1.266 . S
C83 C82 1.514 1_554 S
C83 C84 1.359 . S
C83 C88 1.348 1_554 S
C84 C83 1.359 . S
C84 C85 1.380 . S
C84 H112 0.929 . S
C85 C84 1.380 . S
C85 C86 1.347 . S
C85 H113 0.931 . S
C86 C85 1.347 . S
C86 C87 1.369 1_554 S
C87 C86 1.369 1_556 S
C87 C88 1.408 . S
C87 H114 0.930 . S
C88 C83 1.348 1_556 S
C88 C87 1.408 . S
C88 H115 0.930 . S
C89 O102 1.281 . S
C89 O103 1.254 . S
C90 O104 1.236 . S
C90 O105 1.266 1_556 S
C91 Tb81 2.809 . S
C91 C92 1.514 1_554 S
C91 O106 1.248 1_554 S
C91 O107 1.266 . S
C92 C91 1.514 1_556 S
C92 C93 1.359 . S
C92 C97 1.348 1_556 S
C93 C92 1.359 . S
C93 C94 1.380 . S
C93 H116 0.929 . S
C94 C93 1.380 . S
C94 C95 1.347 . S
C94 H117 0.931 . S
C95 C94 1.347 . S
C95 C96 1.369 1_556 S
C96 C95 1.369 1_554 S
C96 C97 1.408 . S
C96 H118 0.930 . S
C97 C92 1.348 1_554 S
C97 C96 1.408 . S
C97 H119 0.930 . S
C98 O108 1.281 . S
C98 O109 1.254 . S
C99 O110 1.236 . S
C99 O111 1.266 1_554 S
O100 Tb80 2.484 1_554 S
O100 C82 1.248 1_554 S
O101 Tb80 2.440 . S
O101 C82 1.266 . S
O102 Tb80 2.658 . S
O102 Tb81 2.325 1_556 S
O102 C89 1.281 . S
O103 Tb80 2.409 . S
O103 C89 1.254 . S
O104 Tb80 2.378 . S
O104 C90 1.236 . S
O105 Tb81 2.341 . S
O105 C90 1.266 1_554 S
O106 Tb81 2.484 1_556 S
O106 C91 1.248 1_556 S
O107 Tb81 2.440 . S
O107 C91 1.266 . S
O108 Tb80 2.325 1_554 S
O108 Tb81 2.658 . S
O108 C98 1.281 . S
O109 Tb81 2.409 . S
O109 C98 1.254 . S
O110 Tb81 2.378 . S
O110 C99 1.236 . S
O111 Tb80 2.341 . S
O111 C99 1.266 1_556 S
H112 C84 0.929 . S
H113 C85 0.931 . S
H114 C87 0.930 . S
H115 C88 0.930 . S
H116 C93 0.929 . S
H117 C94 0.931 . S
H118 C96 0.930 . S
H119 C97 0.930 . S
H120 C126 0.930 . S
H121 C130 0.930 . S
H122 C135 0.929 . S
H123 C133 0.929 . S
H124 C128 0.929 . S
H125 C134 0.929 . S
C126 H120 0.930 . S
C126 C127 1.366 . S
C126 C134 1.378 . S
C127 C126 1.366 . S
C127 C135 1.435 1_455 S
C128 H124 0.929 . S
C128 C130 1.378 . S
C128 C132 1.349 . S
C129 C132 1.464 1_455 S
C129 C134 1.347 . S
C129 N137 1.429 1_455 S
C130 H121 0.930 . S
C130 C128 1.378 . S
C130 C131 1.367 . S
C131 C130 1.367 . S
C131 C133 1.434 1_655 S
C132 C128 1.349 . S
C132 C129 1.464 1_655 S
C132 N136 1.428 1_655 S
C133 H123 0.929 . S
C133 C131 1.434 1_455 S
C133 N136 1.384 . S
C134 H125 0.929 . S
C134 C126 1.378 . S
C134 C129 1.347 . S
C135 H122 0.929 . S
C135 C127 1.435 1_655 S
C135 N137 1.384 . S
N136 C132 1.428 1_455 S
N136 C133 1.384 . S
N137 C129 1.429 1_655 S
N137 C135 1.384 . S
H138 C144 0.930 . S
H139 C148 0.930 . S
H140 C153 0.929 . S
H141 C151 0.929 . S
H142 C146 0.929 . S
H143 C152 0.929 . S
C144 H138 0.930 . S
C144 C145 1.370 . S
C144 C152 1.378 . S
C145 C144 1.370 . S
C145 C153 1.430 1_565 S
C146 H142 0.929 . S
C146 C148 1.378 . S
C146 C150 1.361 . S
C147 C150 1.464 1_565 S
C147 C152 1.357 . S
C147 N155 1.420 1_565 S
C148 H139 0.930 . S
C148 C146 1.378 . S
C148 C149 1.374 . S
C149 C148 1.374 . S
C149 C151 1.427 1_545 S
C150 C146 1.361 . S
C150 C147 1.464 1_545 S
C150 N154 1.416 1_545 S
C151 H141 0.929 . S
C151 C149 1.427 1_565 S
C151 N154 1.384 . S
C152 H143 0.929 . S
C152 C144 1.378 . S
C152 C147 1.357 . S
C153 H140 0.929 . S
C153 C145 1.430 1_545 S
C153 N155 1.384 . S
N154 C150 1.416 1_565 S
N154 C151 1.384 . S
N155 C147 1.420 1_545 S
N155 C153 1.384 . S
H156 C162 0.930 . S
H157 C166 0.930 . S
H158 C171 0.929 . S
H159 C169 0.929 . S
H160 C164 0.929 . S
H161 C170 0.929 . S
C162 H156 0.930 . S
C162 C163 1.367 . S
C162 C170 1.378 . S
C163 C162 1.367 . S
C163 C171 1.433 . S
C164 H160 0.929 . S
C164 C166 1.378 . S
C164 C168 1.350 . S
C165 C168 1.463 . S
C165 C170 1.350 . S
C165 N173 1.427 . S
C166 H157 0.930 . S
C166 C164 1.378 . S
C166 C167 1.367 . S
C167 C166 1.367 . S
C167 C169 1.433 . S
C168 C164 1.350 . S
C168 C165 1.463 . S
C168 N172 1.427 . S
C169 H159 0.929 . S
C169 C167 1.433 . S
C169 N172 1.384 . S
C170 H161 0.929 . S
C170 C162 1.378 . S
C170 C165 1.350 . S
C171 H158 0.929 . S
C171 C163 1.433 . S
C171 N173 1.384 . S
N172 C168 1.427 . S
N172 C169 1.384 . S
N173 C165 1.427 . S
N173 C171 1.384 . S
H174 C180 0.930 . S
H175 C184 0.930 . S
H176 C189 0.929 . S
H177 C187 0.929 . S
H178 C182 0.929 . S
H179 C188 0.929 . S
C180 H174 0.930 . S
C180 C181 1.367 1_556 S
C180 C188 1.378 . S
C181 C180 1.367 1_554 S
C181 C189 1.433 . S
C182 H178 0.929 . S
C182 C184 1.378 . S
C182 C186 1.350 . S
C183 C186 1.463 . S
C183 C188 1.350 1_554 S
C183 N191 1.427 . S
C184 H175 0.930 . S
C184 C182 1.378 . S
C184 C185 1.367 . S
C185 C184 1.367 . S
C185 C187 1.433 1_554 S
C186 C182 1.350 . S
C186 C183 1.463 . S
C186 N190 1.427 1_554 S
C187 H177 0.929 . S
C187 C185 1.433 1_556 S
C187 N190 1.384 . S
C188 H179 0.929 . S
C188 C180 1.378 . S
C188 C183 1.350 1_556 S
C189 H176 0.929 . S
C189 C181 1.433 . S
C189 N191 1.384 . S
N190 C186 1.427 1_556 S
N190 C187 1.384 . S
N191 C183 1.427 . S
N191 C189 1.384 . S
H192 C198 0.930 . S
H193 C202 0.930 . S
H194 C207 0.929 . S
H195 C205 0.929 . S
H196 C200 0.929 . S
H197 C206 0.929 . S
C198 H192 0.930 . S
C198 C199 1.367 . S
C198 C206 1.378 . S
C199 C198 1.367 . S
C199 C207 1.433 1_554 S
C200 H196 0.929 . S
C200 C202 1.378 . S
C200 C204 1.350 1_556 S
C201 C204 1.463 . S
C201 C206 1.350 . S
C201 N209 1.427 1_554 S
C202 H193 0.930 . S
C202 C200 1.378 . S
C202 C203 1.367 1_556 S
C203 C202 1.367 1_554 S
C203 C205 1.433 . S
C204 C200 1.350 1_554 S
C204 C201 1.463 . S
C204 N208 1.427 . S
C205 H195 0.929 . S
C205 C203 1.433 . S
C205 N208 1.384 . S
C206 H197 0.929 . S
C206 C198 1.378 . S
C206 C201 1.350 . S
C207 H194 0.929 . S
C207 C199 1.433 1_556 S
C207 N209 1.384 . S
N208 C204 1.427 . S
N208 C205 1.384 . S
N209 C201 1.427 1_556 S
N209 C207 1.384 . S
H210 C216 0.930 . S
H211 C220 0.930 . S
H212 C225 0.929 . S
H213 C223 0.929 . S
H214 C218 0.929 . S
H215 C224 0.929 . S
C216 H210 0.930 . S
C216 C217 1.367 1_556 S
C216 C224 1.378 . S
C217 C216 1.367 1_554 S
C217 C225 1.433 . S
C218 H214 0.929 . S
C218 C220 1.378 . S
C218 C222 1.350 . S
C219 C222 1.463 . S
C219 C224 1.350 1_554 S
C219 N227 1.427 . S
C220 H211 0.930 . S
C220 C218 1.378 . S
C220 C221 1.367 . S
C221 C220 1.367 . S
C221 C223 1.433 1_554 S
C222 C218 1.350 . S
C222 C219 1.463 . S
C222 N226 1.427 1_554 S
C223 H213 0.929 . S
C223 C221 1.433 1_556 S
C223 N226 1.384 . S
C224 H215 0.929 . S
C224 C216 1.378 . S
C224 C219 1.350 1_556 S
C225 H212 0.929 . S
C225 C217 1.433 . S
C225 N227 1.384 . S
N226 C222 1.427 1_556 S
N226 C223 1.384 . S
N227 C219 1.427 . S
N227 C225 1.384 . S
H228 C234 0.930 . S
H229 C238 0.930 . S
H230 C243 0.929 . S
H231 C241 0.929 . S
H232 C236 0.929 . S
H233 C242 0.929 . S
C234 H228 0.930 . S
C234 C235 1.367 . S
C234 C242 1.378 . S
C235 C234 1.367 . S
C235 C243 1.433 1_556 S
C236 H232 0.929 . S
C236 C238 1.378 . S
C236 C240 1.350 1_554 S
C237 C240 1.463 . S
C237 C242 1.350 . S
C237 N245 1.427 1_556 S
C238 H229 0.930 . S
C238 C236 1.378 . S
C238 C239 1.367 1_554 S
C239 C238 1.367 1_556 S
C239 C241 1.433 . S
C240 C236 1.350 1_556 S
C240 C237 1.463 . S
C240 N244 1.427 . S
C241 H231 0.929 . S
C241 C239 1.433 . S
C241 N244 1.384 . S
C242 H233 0.929 . S
C242 C234 1.378 . S
C242 C237 1.350 . S
C243 H230 0.929 . S
C243 C235 1.433 1_554 S
C243 N245 1.384 . S
N244 C240 1.427 . S
N244 C241 1.384 . S
N245 C237 1.427 1_554 S
N245 C243 1.384 . S
H246 C252 0.930 . S
H247 C256 0.930 . S
H248 C261 0.929 . S
H249 C259 0.929 . S
H250 C254 0.929 . S
H251 C260 0.929 . S
C252 H246 0.930 . S
C252 C253 1.367 . S
C252 C260 1.378 . S
C253 C252 1.367 . S
C253 C261 1.433 1_556 S
C254 H250 0.929 . S
C254 C256 1.378 . S
C254 C258 1.350 1_554 S
C255 C258 1.463 . S
C255 C260 1.350 . S
C255 N263 1.427 1_556 S
C256 H247 0.930 . S
C256 C254 1.378 . S
C256 C257 1.367 1_554 S
C257 C256 1.367 1_556 S
C257 C259 1.433 . S
C258 C254 1.350 1_556 S
C258 C255 1.463 . S
C258 N262 1.427 . S
C259 H249 0.929 . S
C259 C257 1.433 . S
C259 N262 1.384 . S
C260 H251 0.929 . S
C260 C252 1.378 . S
C260 C255 1.350 . S
C261 H248 0.929 . S
C261 C253 1.433 1_554 S
C261 N263 1.384 . S
N262 C258 1.427 . S
N262 C259 1.384 . S
N263 C255 1.427 1_554 S
N263 C261 1.384 . S
H264 C270 0.930 . S
H265 C274 0.930 . S
H266 C279 0.929 . S
H267 C277 0.929 . S
H268 C272 0.929 . S
H269 C278 0.929 . S
C270 H264 0.930 . S
C270 C271 1.367 1_554 S
C270 C278 1.378 . S
C271 C270 1.367 1_556 S
C271 C279 1.433 . S
C272 H268 0.929 . S
C272 C274 1.378 . S
C272 C276 1.350 . S
C273 C276 1.463 . S
C273 C278 1.350 1_556 S
C273 N281 1.427 . S
C274 H265 0.930 . S
C274 C272 1.378 . S
C274 C275 1.367 . S
C275 C274 1.367 . S
C275 C277 1.433 1_556 S
C276 C272 1.350 . S
C276 C273 1.463 . S
C276 N280 1.427 1_556 S
C277 H267 0.929 . S
C277 C275 1.433 1_554 S
C277 N280 1.384 . S
C278 H269 0.929 . S
C278 C270 1.378 . S
C278 C273 1.350 1_554 S
C279 H266 0.929 . S
C279 C271 1.433 . S
C279 N281 1.384 . S
N280 C276 1.427 1_554 S
N280 C277 1.384 . S
N281 C273 1.427 . S
N281 C279 1.384 . S
C127 C9 1.452 1_455 S
C131 C18 1.452 1_655 S
C145 C58 1.435 1_565 S
C149 C49 1.433 1_545 S
C163 C89 1.451 . S
C167 C98 1.451 . S
C181 C19 1.653 . S
C185 C86 1.655 . S
C199 C59 1.651 . S
C203 C6 1.654 . S
C217 C46 1.658 . S
C221 C90 1.663 1_554 S
C235 C10 1.647 . S
C239 C95 1.656 . S
C253 C15 1.654 . S
C257 C50 1.655 . S
C271 C99 1.658 1_556 S
C275 C55 1.663 . S
