# Generated by pormake.
# Topology uow, (4)-cn, num edge types: 1
# Building blocks:
#     Node 0, Type 0, BuildingBlock: QUQFOY_clean_sbu_1, # of connection points: 4
#     Node 1, Type 0, BuildingBlock: QUQFOY_clean_sbu_1, # of connection points: 4
#     Node 2, Type 0, BuildingBlock: QUQFOY_clean_sbu_1, # of connection points: 4
#     Node 3, Type 0, BuildingBlock: QUQFOY_clean_sbu_1, # of connection points: 4
#     Node 4, Type 0, BuildingBlock: QUQFOY_clean_sbu_1, # of connection points: 4
#     Node 5, Type 0, BuildingBlock: QUQFOY_clean_sbu_1, # of connection points: 4
#     Node 6, Type 0, BuildingBlock: QUQFOY_clean_sbu_1, # of connection points: 4
#     Node 7, Type 0, BuildingBlock: QUQFOY_clean_sbu_1, # of connection points: 4
#     Node 8, Type 0, BuildingBlock: QUQFOY_clean_sbu_1, # of connection points: 4
#     Node 9, Type 0, BuildingBlock: QUQFOY_clean_sbu_1, # of connection points: 4
#     Node 10, Type 0, BuildingBlock: QUQFOY_clean_sbu_1, # of connection points: 4
#     Node 11, Type 0, BuildingBlock: QUQFOY_clean_sbu_1, # of connection points: 4
#     Node 12, Type 0, BuildingBlock: QUQFOY_clean_sbu_1, # of connection points: 4
#     Node 13, Type 0, BuildingBlock: QUQFOY_clean_sbu_1, # of connection points: 4
#     Node 14, Type 0, BuildingBlock: QUQFOY_clean_sbu_1, # of connection points: 4
#     Node 15, Type 0, BuildingBlock: QUQFOY_clean_sbu_1, # of connection points: 4
#     Node 16, Type 0, BuildingBlock: QUQFOY_clean_sbu_1, # of connection points: 4
#     Node 17, Type 0, BuildingBlock: QUQFOY_clean_sbu_1, # of connection points: 4
#     Node 18, Type 0, BuildingBlock: QUQFOY_clean_sbu_1, # of connection points: 4
#     Node 19, Type 0, BuildingBlock: QUQFOY_clean_sbu_1, # of connection points: 4
#     Node 20, Type 0, BuildingBlock: QUQFOY_clean_sbu_1, # of connection points: 4
#     Node 21, Type 0, BuildingBlock: QUQFOY_clean_sbu_1, # of connection points: 4
#     Node 22, Type 0, BuildingBlock: QUQFOY_clean_sbu_1, # of connection points: 4
#     Node 23, Type 0, BuildingBlock: QUQFOY_clean_sbu_1, # of connection points: 4
#     Node 24, Type 0, BuildingBlock: QUQFOY_clean_sbu_1, # of connection points: 4
#     Node 25, Type 0, BuildingBlock: QUQFOY_clean_sbu_1, # of connection points: 4
#     Node 26, Type 0, BuildingBlock: QUQFOY_clean_sbu_1, # of connection points: 4
#     Node 27, Type 0, BuildingBlock: QUQFOY_clean_sbu_1, # of connection points: 4
#     Node 28, Type 0, BuildingBlock: QUQFOY_clean_sbu_1, # of connection points: 4
#     Node 29, Type 0, BuildingBlock: QUQFOY_clean_sbu_1, # of connection points: 4
#     Node 30, Type 0, BuildingBlock: QUQFOY_clean_sbu_1, # of connection points: 4
#     Node 31, Type 0, BuildingBlock: QUQFOY_clean_sbu_1, # of connection points: 4
#     Edge 32, Type (0, 0), BuildingBlock: UVAHIK_clean_linker_0, # of connection points: 2
#     Edge 33, Type (0, 0), BuildingBlock: UVAHIK_clean_linker_0, # of connection points: 2
#     Edge 34, Type (0, 0), BuildingBlock: UVAHIK_clean_linker_0, # of connection points: 2
#     Edge 35, Type (0, 0), BuildingBlock: UVAHIK_clean_linker_0, # of connection points: 2
#     Edge 36, Type (0, 0), BuildingBlock: UVAHIK_clean_linker_0, # of connection points: 2
#     Edge 37, Type (0, 0), BuildingBlock: UVAHIK_clean_linker_0, # of connection points: 2
#     Edge 38, Type (0, 0), BuildingBlock: UVAHIK_clean_linker_0, # of connection points: 2
#     Edge 39, Type (0, 0), BuildingBlock: UVAHIK_clean_linker_0, # of connection points: 2
#     Edge 40, Type (0, 0), BuildingBlock: UVAHIK_clean_linker_0, # of connection points: 2
#     Edge 41, Type (0, 0), BuildingBlock: UVAHIK_clean_linker_0, # of connection points: 2
#     Edge 42, Type (0, 0), BuildingBlock: UVAHIK_clean_linker_0, # of connection points: 2
#     Edge 43, Type (0, 0), BuildingBlock: UVAHIK_clean_linker_0, # of connection points: 2
#     Edge 44, Type (0, 0), BuildingBlock: UVAHIK_clean_linker_0, # of connection points: 2
#     Edge 45, Type (0, 0), BuildingBlock: UVAHIK_clean_linker_0, # of connection points: 2
#     Edge 46, Type (0, 0), BuildingBlock: UVAHIK_clean_linker_0, # of connection points: 2
#     Edge 47, Type (0, 0), BuildingBlock: UVAHIK_clean_linker_0, # of connection points: 2
#     Edge 48, Type (0, 0), BuildingBlock: UVAHIK_clean_linker_0, # of connection points: 2
#     Edge 49, Type (0, 0), BuildingBlock: UVAHIK_clean_linker_0, # of connection points: 2
#     Edge 50, Type (0, 0), BuildingBlock: UVAHIK_clean_linker_0, # of connection points: 2
#     Edge 51, Type (0, 0), BuildingBlock: UVAHIK_clean_linker_0, # of connection points: 2
#     Edge 52, Type (0, 0), BuildingBlock: UVAHIK_clean_linker_0, # of connection points: 2
#     Edge 53, Type (0, 0), BuildingBlock: UVAHIK_clean_linker_0, # of connection points: 2
#     Edge 54, Type (0, 0), BuildingBlock: UVAHIK_clean_linker_0, # of connection points: 2
#     Edge 55, Type (0, 0), BuildingBlock: UVAHIK_clean_linker_0, # of connection points: 2
#     Edge 56, Type (0, 0), BuildingBlock: UVAHIK_clean_linker_0, # of connection points: 2
#     Edge 57, Type (0, 0), BuildingBlock: UVAHIK_clean_linker_0, # of connection points: 2
#     Edge 58, Type (0, 0), BuildingBlock: UVAHIK_clean_linker_0, # of connection points: 2
#     Edge 59, Type (0, 0), BuildingBlock: UVAHIK_clean_linker_0, # of connection points: 2
#     Edge 60, Type (0, 0), BuildingBlock: UVAHIK_clean_linker_0, # of connection points: 2
#     Edge 61, Type (0, 0), BuildingBlock: UVAHIK_clean_linker_0, # of connection points: 2
#     Edge 62, Type (0, 0), BuildingBlock: UVAHIK_clean_linker_0, # of connection points: 2
#     Edge 63, Type (0, 0), BuildingBlock: UVAHIK_clean_linker_0, # of connection points: 2
#     Edge 64, Type (0, 0), BuildingBlock: UVAHIK_clean_linker_0, # of connection points: 2
#     Edge 65, Type (0, 0), BuildingBlock: UVAHIK_clean_linker_0, # of connection points: 2
#     Edge 66, Type (0, 0), BuildingBlock: UVAHIK_clean_linker_0, # of connection points: 2
#     Edge 67, Type (0, 0), BuildingBlock: UVAHIK_clean_linker_0, # of connection points: 2
#     Edge 68, Type (0, 0), BuildingBlock: UVAHIK_clean_linker_0, # of connection points: 2
#     Edge 69, Type (0, 0), BuildingBlock: UVAHIK_clean_linker_0, # of connection points: 2
#     Edge 70, Type (0, 0), BuildingBlock: UVAHIK_clean_linker_0, # of connection points: 2
#     Edge 71, Type (0, 0), BuildingBlock: UVAHIK_clean_linker_0, # of connection points: 2
#     Edge 72, Type (0, 0), BuildingBlock: UVAHIK_clean_linker_0, # of connection points: 2
#     Edge 73, Type (0, 0), BuildingBlock: UVAHIK_clean_linker_0, # of connection points: 2
#     Edge 74, Type (0, 0), BuildingBlock: UVAHIK_clean_linker_0, # of connection points: 2
#     Edge 75, Type (0, 0), BuildingBlock: UVAHIK_clean_linker_0, # of connection points: 2
#     Edge 76, Type (0, 0), BuildingBlock: UVAHIK_clean_linker_0, # of connection points: 2
#     Edge 77, Type (0, 0), BuildingBlock: UVAHIK_clean_linker_0, # of connection points: 2
#     Edge 78, Type (0, 0), BuildingBlock: UVAHIK_clean_linker_0, # of connection points: 2
#     Edge 79, Type (0, 0), BuildingBlock: UVAHIK_clean_linker_0, # of connection points: 2
#     Edge 80, Type (0, 0), BuildingBlock: UVAHIK_clean_linker_0, # of connection points: 2
#     Edge 81, Type (0, 0), BuildingBlock: UVAHIK_clean_linker_0, # of connection points: 2
#     Edge 82, Type (0, 0), BuildingBlock: UVAHIK_clean_linker_0, # of connection points: 2
#     Edge 83, Type (0, 0), BuildingBlock: UVAHIK_clean_linker_0, # of connection points: 2
#     Edge 84, Type (0, 0), BuildingBlock: UVAHIK_clean_linker_0, # of connection points: 2
#     Edge 85, Type (0, 0), BuildingBlock: UVAHIK_clean_linker_0, # of connection points: 2
#     Edge 86, Type (0, 0), BuildingBlock: UVAHIK_clean_linker_0, # of connection points: 2
#     Edge 87, Type (0, 0), BuildingBlock: UVAHIK_clean_linker_0, # of connection points: 2
#     Edge 88, Type (0, 0), BuildingBlock: UVAHIK_clean_linker_0, # of connection points: 2
#     Edge 89, Type (0, 0), BuildingBlock: UVAHIK_clean_linker_0, # of connection points: 2
#     Edge 90, Type (0, 0), BuildingBlock: UVAHIK_clean_linker_0, # of connection points: 2
#     Edge 91, Type (0, 0), BuildingBlock: UVAHIK_clean_linker_0, # of connection points: 2
#     Edge 92, Type (0, 0), BuildingBlock: UVAHIK_clean_linker_0, # of connection points: 2
#     Edge 93, Type (0, 0), BuildingBlock: UVAHIK_clean_linker_0, # of connection points: 2
#     Edge 94, Type (0, 0), BuildingBlock: UVAHIK_clean_linker_0, # of connection points: 2
#     Edge 95, Type (0, 0), BuildingBlock: UVAHIK_clean_linker_0, # of connection points: 2
# Relax obj value: 0.128
# Max RMSD: 0.125
# Mean RMSD: 0.125
data_MOF--net-uow--node1-QUQFOY_clean_sbu_1--edge1-UVAHIK_clean_linker_0
_symmetry_space_group_name_H-M    P1
_symmetry_Int_Tables_number       1
_symmetry_cell_setting            triclinic
loop_
_symmetry_equiv_pos_as_xyz
'x, y, z'
_cell_length_a     82.850967
_cell_length_b     82.85881
_cell_length_c     56.480871
_cell_angle_alpha  90.006078
_cell_angle_beta   90.004623
_cell_angle_gamma 89.998553
loop_
_atom_site_label
_atom_site_type_symbol
_atom_site_fract_x
_atom_site_fract_y
_atom_site_fract_z
_atom_type_partial_charge
O0 O 0.03133 0.39046 0.31493 0.0
Cd1 Cd 0.05524 0.39277 0.30514 0.0
Cd2 Cd 0.04742 0.36895 0.27576 0.0
O3 O 0.02404 0.3742 0.28596 0.0
O4 O 0.06196 0.41536 0.31239 0.0
O5 O 0.06039 0.40553 0.27598 0.0
C6 C 0.06314 0.41765 0.28983 0.0
C7 C 0.05403 0.36417 0.23612 0.0
C8 C 0.02041 0.38267 0.30397 0.0
C9 C 0.0705 0.36143 0.3158 0.0
O10 O 0.06115 0.35616 0.29971 0.0
O11 O 0.07124 0.37649 0.32005 0.0
O12 O 0.04545 0.3541 0.24812 0.0
O13 O 0.05836 0.37741 0.24638 0.0
O14 O 0.86073 0.7787 0.56201 0.0
Cd15 Cd 0.85785 0.8032 0.55687 0.0
Cd16 Cd 0.88249 0.7988 0.52629 0.0
O17 O 0.8796 0.77475 0.53505 0.0
O18 O 0.83517 0.80859 0.56558 0.0
O19 O 0.84467 0.81052 0.52904 0.0
C20 C 0.83263 0.81171 0.5435 0.0
C21 C 0.88723 0.80661 0.48711 0.0
C22 C 0.87019 0.76927 0.55094 0.0
C23 C 0.88824 0.8202 0.56912 0.0
O24 O 0.89382 0.81321 0.55084 0.0
O25 O 0.87351 0.81841 0.57484 0.0
O26 O 0.89806 0.79926 0.49942 0.0
O27 O 0.87327 0.80893 0.49672 0.0
O28 O 0.47004 0.6134 0.81752 0.0
Cd29 Cd 0.44606 0.60916 0.8104 0.0
Cd30 Cd 0.44966 0.63427 0.78019 0.0
O31 O 0.47372 0.63193 0.79002 0.0
O32 O 0.44155 0.58619 0.81842 0.0
O33 O 0.4402 0.59589 0.78193 0.0
C34 C 0.43911 0.5837 0.79614 0.0
C35 C 0.44319 0.63934 0.74053 0.0
C36 C 0.47928 0.6231 0.80656 0.0
C37 C 0.42697 0.63838 0.82203 0.0
O38 O 0.43391 0.64465 0.80418 0.0
O39 O 0.42967 0.62378 0.82763 0.0
O40 O 0.45008 0.65006 0.75358 0.0
O41 O 0.44037 0.62537 0.74978 0.0
O42 O 0.64045 0.22052 0.0632 0.0
Cd43 Cd 0.64487 0.19638 0.05683 0.0
Cd44 Cd 0.62053 0.19957 0.02556 0.0
O45 O 0.62288 0.22371 0.03426 0.0
O46 O 0.66791 0.1919 0.06445 0.0
O47 O 0.6578 0.19038 0.02818 0.0
C48 C 0.67014 0.18934 0.04213 0.0
C49 C 0.61508 0.19226 0.98629 0.0
C50 C 0.63115 0.22957 0.05117 0.0
C51 C 0.61542 0.17765 0.06802 0.0
O52 O 0.60951 0.18481 0.0501 0.0
O53 O 0.63011 0.17986 0.0737 0.0
O54 O 0.60463 0.19975 0.99909 0.0
O55 O 0.62905 0.18936 0.99551 0.0
O56 O 0.03233 0.61155 0.18333 0.0
Cd57 Cd 0.05631 0.60614 0.18879 0.0
Cd58 Cd 0.05526 0.63147 0.21938 0.0
O59 O 0.03112 0.63118 0.20964 0.0
O60 O 0.05951 0.58303 0.18033 0.0
O61 O 0.06255 0.59251 0.21673 0.0
C62 C 0.06266 0.58035 0.20237 0.0
C63 C 0.06175 0.63696 0.25895 0.0
C64 C 0.02432 0.62239 0.19408 0.0
C65 C 0.07724 0.63409 0.17656 0.0
O66 O 0.07161 0.64054 0.19523 0.0
O67 O 0.07291 0.61996 0.1705 0.0
O68 O 0.05579 0.64783 0.24523 0.0
O69 O 0.06372 0.62264 0.25039 0.0
O70 O 0.64174 0.78248 0.43194 0.0
Cd71 Cd 0.64561 0.80651 0.43894 0.0
Cd72 Cd 0.62106 0.8022 0.47 0.0
O73 O 0.623 0.77832 0.45901 0.0
O74 O 0.66865 0.81149 0.43193 0.0
O75 O 0.65813 0.81255 0.46798 0.0
C76 C 0.67061 0.81387 0.45435 0.0
C77 C 0.61575 0.80826 0.50975 0.0
C78 C 0.63199 0.77305 0.44244 0.0
C79 C 0.61625 0.82533 0.42853 0.0
O80 O 0.61065 0.81849 0.44691 0.0
O81 O 0.63058 0.82254 0.42167 0.0
O82 O 0.60493 0.80202 0.49618 0.0
O83 O 0.63002 0.81038 0.50108 0.0
O84 O 0.46836 0.39197 0.68328 0.0
Cd85 Cd 0.44444 0.39643 0.69042 0.0
Cd86 Cd 0.4482 0.37173 0.72146 0.0
O87 O 0.47206 0.37306 0.71025 0.0
O88 O 0.44001 0.41958 0.68335 0.0
O89 O 0.43882 0.40915 0.71945 0.0
C90 C 0.43774 0.42163 0.70578 0.0
C91 C 0.44228 0.36669 0.76132 0.0
C92 C 0.47755 0.38196 0.69372 0.0
C93 C 0.42463 0.36762 0.68037 0.0
O94 O 0.43142 0.36181 0.69865 0.0
O95 O 0.42786 0.38185 0.67344 0.0
O96 O 0.44816 0.35568 0.74773 0.0
O97 O 0.44042 0.38097 0.75256 0.0
O98 O 0.86214 0.22085 0.93615 0.0
Cd99 Cd 0.85844 0.19656 0.94221 0.0
Cd100 Cd 0.88357 0.20059 0.97224 0.0
O101 O 0.88143 0.22455 0.96254 0.0
O102 O 0.83561 0.19185 0.9336 0.0
O103 O 0.84501 0.19007 0.97022 0.0
C104 C 0.83296 0.18906 0.95574 0.0
C105 C 0.88886 0.19359 0.01159 0.0
C106 C 0.87205 0.23011 0.94668 0.0
C107 C 0.88801 0.17815 0.93017 0.0
O108 O 0.89401 0.18523 0.94807 0.0
O109 O 0.87333 0.18046 0.92458 0.0
O110 O 0.89968 0.20019 0.99839 0.0
O111 O 0.87462 0.19157 0.00277 0.0
O112 O 0.97024 0.61118 0.68511 0.0
Cd113 Cd 0.94616 0.6078 0.693 0.0
Cd114 Cd 0.95114 0.63299 0.72226 0.0
O115 O 0.97488 0.63009 0.71174 0.0
O116 O 0.94087 0.58485 0.68591 0.0
O117 O 0.94036 0.59519 0.72208 0.0
C118 C 0.93871 0.58281 0.70835 0.0
C119 C 0.9449 0.63864 0.76181 0.0
C120 C 0.97991 0.62083 0.69535 0.0
C121 C 0.92794 0.63755 0.68126 0.0
O122 O 0.93571 0.64373 0.69841 0.0
O123 O 0.92971 0.6227 0.6762 0.0
O124 O 0.95215 0.64899 0.74856 0.0
O125 O 0.94171 0.62464 0.75289 0.0
O126 O 0.14105 0.21939 0.43365 0.0
Cd127 Cd 0.14525 0.19529 0.44055 0.0
Cd128 Cd 0.12147 0.19919 0.47246 0.0
O129 O 0.12387 0.22316 0.46292 0.0
O130 O 0.16799 0.19047 0.43162 0.0
O131 O 0.15895 0.18944 0.46852 0.0
C132 C 0.17085 0.18813 0.45383 0.0
C133 C 0.11704 0.19251 0.51221 0.0
C134 C 0.13199 0.2287 0.44562 0.0
C135 C 0.11534 0.17683 0.43089 0.0
O136 O 0.1098 0.18423 0.44885 0.0
O137 O 0.12995 0.1788 0.42466 0.0
O138 O 0.1063 0.19991 0.49982 0.0
O139 O 0.13069 0.18929 0.50226 0.0
O140 O 0.52956 0.38914 0.18765 0.0
Cd141 Cd 0.55389 0.39207 0.19461 0.0
Cd142 Cd 0.54826 0.36772 0.2245 0.0
O143 O 0.5243 0.3722 0.21674 0.0
O144 O 0.55958 0.4149 0.18719 0.0
O145 O 0.56031 0.40467 0.22341 0.0
C146 C 0.562 0.41699 0.20957 0.0
C147 C 0.55648 0.36226 0.2633 0.0
C148 C 0.51949 0.38086 0.19954 0.0
C149 C 0.56973 0.36147 0.18185 0.0
O150 O 0.56152 0.35585 0.19897 0.0
O151 O 0.56958 0.37653 0.17752 0.0
O152 O 0.54837 0.35192 0.25111 0.0
O153 O 0.55939 0.37614 0.2538 0.0
O154 O 0.36059 0.78315 0.9359 0.0
Cd155 Cd 0.35723 0.80725 0.94392 0.0
Cd156 Cd 0.38145 0.80125 0.97389 0.0
O157 O 0.37721 0.77738 0.96521 0.0
O158 O 0.33451 0.81271 0.93548 0.0
O159 O 0.34378 0.81303 0.97226 0.0
C160 C 0.3318 0.81474 0.95779 0.0
C161 C 0.38706 0.80889 0.01293 0.0
C162 C 0.36884 0.7729 0.9475 0.0
C163 C 0.38779 0.82334 0.93191 0.0
O164 O 0.39334 0.81488 0.94881 0.0
O165 O 0.37274 0.8233 0.92751 0.0
O166 O 0.39735 0.80098 0.00038 0.0
O167 O 0.37312 0.8119 0.00366 0.0
O168 O 0.97095 0.392 0.81614 0.0
Cd169 Cd 0.94675 0.39502 0.80869 0.0
Cd170 Cd 0.95217 0.37085 0.77801 0.0
O171 O 0.97592 0.374 0.78832 0.0
O172 O 0.941 0.41755 0.81763 0.0
O173 O 0.94063 0.40858 0.78069 0.0
C174 C 0.93879 0.4204 0.79539 0.0
C175 C 0.94556 0.36703 0.73815 0.0
C176 C 0.98081 0.38291 0.80519 0.0
C177 C 0.92941 0.36441 0.8188 0.0
O178 O 0.93728 0.35886 0.80129 0.0
O179 O 0.93075 0.37918 0.82459 0.0
O180 O 0.95322 0.35621 0.75005 0.0
O181 O 0.94212 0.38044 0.74866 0.0
O182 O 0.36098 0.21978 0.56615 0.0
Cd183 Cd 0.35832 0.19593 0.55641 0.0
Cd184 Cd 0.38258 0.20315 0.52703 0.0
O185 O 0.37801 0.22659 0.53789 0.0
O186 O 0.33563 0.18958 0.56347 0.0
O187 O 0.34563 0.19087 0.52714 0.0
C188 C 0.33343 0.18828 0.54092 0.0
C189 C 0.38761 0.19707 0.48727 0.0
C190 C 0.36929 0.23046 0.55553 0.0
C191 C 0.38911 0.17932 0.56661 0.0
O192 O 0.39473 0.18835 0.55038 0.0
O193 O 0.37412 0.17955 0.57139 0.0
O194 O 0.39779 0.20512 0.49984 0.0
O195 O 0.37409 0.19306 0.49699 0.0
O196 O 0.53181 0.6086 0.31724 0.0
Cd197 Cd 0.55596 0.60481 0.31094 0.0
Cd198 Cd 0.55233 0.62906 0.27926 0.0
O199 O 0.52847 0.62761 0.29036 0.0
O200 O 0.56094 0.58205 0.31963 0.0
O201 O 0.56232 0.59137 0.28292 0.0
C202 C 0.56354 0.57936 0.29743 0.0
C203 C 0.55817 0.63298 0.23912 0.0
C204 C 0.52276 0.61863 0.30661 0.0
C205 C 0.57502 0.63443 0.32067 0.0
O206 O 0.56858 0.6399 0.30189 0.0
O207 O 0.57183 0.62025 0.32787 0.0
O208 O 0.55159 0.64411 0.25174 0.0
O209 O 0.561 0.61923 0.24908 0.0
O210 O 0.14147 0.77939 0.06593 0.0
Cd211 Cd 0.14415 0.80373 0.05913 0.0
Cd212 Cd 0.12057 0.79777 0.02799 0.0
O213 O 0.12525 0.77387 0.03604 0.0
O214 O 0.16683 0.80979 0.06699 0.0
O215 O 0.1569 0.81036 0.03058 0.0
C216 C 0.16908 0.81221 0.04464 0.0
C217 C 0.1153 0.80572 0.98898 0.0
C218 C 0.13358 0.7692 0.05368 0.0
C219 C 0.11305 0.81897 0.07061 0.0
O220 O 0.10802 0.81083 0.05302 0.0
O221 O 0.12798 0.81902 0.0758 0.0
O222 O 0.10503 0.79744 0.00103 0.0
O223 O 0.12902 0.80896 0.99873 0.0
O224 O 0.52976 0.88857 0.81092 0.0
Cd225 Cd 0.55421 0.89228 0.80613 0.0
Cd226 Cd 0.5509 0.86767 0.77553 0.0
O227 O 0.5266 0.87046 0.78266 0.0
O228 O 0.5589 0.91525 0.81397 0.0
O229 O 0.56149 0.90503 0.77792 0.0
C230 C 0.56224 0.9174 0.79186 0.0
C231 C 0.55961 0.86212 0.73692 0.0
C232 C 0.52067 0.87926 0.79894 0.0
C233 C 0.57117 0.86235 0.81978 0.0
O234 O 0.56437 0.85656 0.80148 0.0
O235 O 0.56961 0.87723 0.82478 0.0
O236 O 0.55208 0.85152 0.74941 0.0
O237 O 0.5617 0.87627 0.746 0.0
O238 O 0.36401 0.28197 0.06372 0.0
Cd239 Cd 0.35776 0.30589 0.06005 0.0
Cd240 Cd 0.38364 0.30658 0.03017 0.0
O241 O 0.38454 0.28226 0.03884 0.0
O242 O 0.33452 0.30787 0.06857 0.0
O243 O 0.34394 0.31267 0.03255 0.0
C244 C 0.33177 0.31178 0.04682 0.0
C245 C 0.38941 0.31442 0.99122 0.0
C246 C 0.37551 0.2747 0.05331 0.0
C247 C 0.38459 0.32757 0.07434 0.0
O248 O 0.39135 0.32289 0.05535 0.0
O249 O 0.37072 0.3223 0.08001 0.0
O250 O 0.40048 0.30927 0.00531 0.0
O251 O 0.37475 0.31464 0.99897 0.0
O252 O 0.97178 0.1116 0.31308 0.0
Cd253 Cd 0.94731 0.10891 0.30712 0.0
Cd254 Cd 0.95235 0.13372 0.27754 0.0
O255 O 0.97634 0.13014 0.28585 0.0
O256 O 0.94169 0.08603 0.31433 0.0
O257 O 0.94041 0.09656 0.27833 0.0
C258 C 0.93898 0.08412 0.29199 0.0
C259 C 0.94435 0.13914 0.23863 0.0
C260 C 0.98151 0.12076 0.30201 0.0
C261 C 0.93114 0.13938 0.32058 0.0
O262 O 0.93868 0.14511 0.3029 0.0
O263 O 0.93197 0.12438 0.32523 0.0
O264 O 0.952 0.14966 0.25112 0.0
O265 O 0.94179 0.12512 0.2479 0.0
O266 O 0.14164 0.71998 0.56323 0.0
Cd267 Cd 0.14418 0.69594 0.55448 0.0
Cd268 Cd 0.1202 0.70287 0.5244 0.0
O269 O 0.12467 0.72643 0.53471 0.0
O270 O 0.1667 0.6896 0.56273 0.0
O271 O 0.1574 0.6902 0.52597 0.0
C272 C 0.16933 0.68787 0.54034 0.0
C273 C 0.11601 0.69622 0.48464 0.0
C274 C 0.13338 0.73053 0.55226 0.0
C275 C 0.11307 0.67973 0.56457 0.0
O276 O 0.10767 0.68847 0.54785 0.0
O277 O 0.12802 0.67997 0.56969 0.0
O278 O 0.10558 0.70448 0.49647 0.0
O279 O 0.12928 0.69227 0.49514 0.0
O280 O 0.53102 0.10849 0.68483 0.0
Cd281 Cd 0.55522 0.10545 0.69224 0.0
Cd282 Cd 0.54989 0.1296 0.72302 0.0
O283 O 0.52614 0.12647 0.71271 0.0
O284 O 0.56101 0.08287 0.68355 0.0
O285 O 0.56133 0.09202 0.7204 0.0
C286 C 0.56318 0.08012 0.70583 0.0
C287 C 0.55636 0.13371 0.76288 0.0
C288 C 0.5212 0.11759 0.69581 0.0
C289 C 0.57248 0.13608 0.68199 0.0
O290 O 0.56474 0.14157 0.69967 0.0
O291 O 0.57111 0.12133 0.67613 0.0
O292 O 0.54874 0.14444 0.75074 0.0
O293 O 0.55986 0.12024 0.7526 0.0
O294 O 0.14037 0.28157 0.93469 0.0
Cd295 Cd 0.14361 0.30531 0.94462 0.0
Cd296 Cd 0.1193 0.29852 0.97415 0.0
O297 O 0.12334 0.27504 0.96311 0.0
O298 O 0.16643 0.31123 0.93756 0.0
O299 O 0.15647 0.30991 0.97391 0.0
C300 C 0.1687 0.31232 0.96012 0.0
C301 C 0.11415 0.30449 0.01392 0.0
C302 C 0.13187 0.27104 0.94532 0.0
C303 C 0.11314 0.32255 0.93468 0.0
O304 O 0.10741 0.3136 0.95091 0.0
O305 O 0.12812 0.32206 0.9298 0.0
O306 O 0.10391 0.29667 0.00114 0.0
O307 O 0.1278 0.30832 0.0044 0.0
O308 O 0.96985 0.89019 0.18513 0.0
Cd309 Cd 0.94591 0.89622 0.18907 0.0
Cd310 Cd 0.94579 0.8713 0.22095 0.0
O311 O 0.96998 0.87046 0.21137 0.0
O312 O 0.94324 0.91942 0.18083 0.0
O313 O 0.93929 0.90971 0.21693 0.0
C314 C 0.93964 0.92197 0.20276 0.0
C315 C 0.93876 0.86516 0.26013 0.0
C316 C 0.97732 0.87909 0.19614 0.0
C317 C 0.92401 0.86915 0.17746 0.0
O318 O 0.92888 0.86319 0.19691 0.0
O319 O 0.92939 0.88263 0.17023 0.0
O320 O 0.94384 0.85429 0.24569 0.0
O321 O 0.93824 0.87988 0.25267 0.0
O322 O 0.36092 0.72041 0.43628 0.0
Cd323 Cd 0.35848 0.69646 0.44551 0.0
Cd324 Cd 0.38248 0.70384 0.47536 0.0
O325 O 0.37778 0.7273 0.46471 0.0
O326 O 0.33619 0.68994 0.43637 0.0
O327 O 0.34468 0.6908 0.47353 0.0
C328 C 0.33309 0.68831 0.45864 0.0
C329 C 0.3869 0.69748 0.51518 0.0
C330 C 0.36907 0.73114 0.44704 0.0
C331 C 0.38972 0.68046 0.43553 0.0
O332 O 0.3951 0.6894 0.45204 0.0
O333 O 0.37475 0.68051 0.43056 0.0
O334 O 0.3972 0.70575 0.50314 0.0
O335 O 0.37361 0.69336 0.50487 0.0
O336 O 0.47439 0.11113 0.1889 0.0
Cd337 Cd 0.44989 0.10918 0.19508 0.0
Cd338 Cd 0.45571 0.13326 0.22561 0.0
O339 O 0.47954 0.12882 0.21708 0.0
O340 O 0.44349 0.08684 0.18599 0.0
O341 O 0.44257 0.09594 0.22283 0.0
C342 C 0.44071 0.08412 0.20812 0.0
C343 C 0.44816 0.13811 0.2649 0.0
C344 C 0.4844 0.11971 0.20042 0.0
C345 C 0.43481 0.14062 0.18302 0.0
O346 O 0.44258 0.14585 0.20084 0.0
O347 O 0.43512 0.12567 0.1779 0.0
O348 O 0.4567 0.1483 0.2531 0.0
O349 O 0.44428 0.12473 0.25461 0.0
O350 O 0.63997 0.72213 0.94012 0.0
Cd351 Cd 0.64474 0.69787 0.94364 0.0
Cd352 Cd 0.61966 0.69867 0.97479 0.0
O353 O 0.62066 0.72311 0.96695 0.0
O354 O 0.66767 0.69439 0.93436 0.0
O355 O 0.65854 0.69041 0.97076 0.0
C356 C 0.67054 0.69052 0.9561 0.0
C357 C 0.61414 0.69073 0.01379 0.0
C358 C 0.62952 0.73012 0.9517 0.0
C359 C 0.616 0.67833 0.93037 0.0
O360 O 0.60988 0.68355 0.94953 0.0
O361 O 0.63024 0.68234 0.9244 0.0
O362 O 0.60342 0.69764 0.00077 0.0
O363 O 0.62836 0.68868 0.00493 0.0
O364 O 0.03177 0.88797 0.68769 0.0
Cd365 Cd 0.0559 0.89288 0.69232 0.0
Cd366 Cd 0.05451 0.86713 0.72228 0.0
O367 O 0.03046 0.86706 0.71183 0.0
O368 O 0.05937 0.91615 0.68509 0.0
O369 O 0.06271 0.90562 0.72082 0.0
C370 C 0.06281 0.91816 0.70719 0.0
C371 C 0.0612 0.86142 0.76168 0.0
C372 C 0.02371 0.87668 0.69731 0.0
C373 C 0.07691 0.86529 0.67964 0.0
O374 O 0.07153 0.85895 0.69852 0.0
O375 O 0.07213 0.87915 0.67309 0.0
O376 O 0.05603 0.8504 0.74751 0.0
O377 O 0.06193 0.87603 0.7538 0.0
O378 O 0.86135 0.28089 0.43723 0.0
Cd379 Cd 0.85658 0.30505 0.44186 0.0
Cd380 Cd 0.88062 0.30346 0.47474 0.0
O381 O 0.87961 0.27922 0.46553 0.0
O382 O 0.83363 0.3091 0.43327 0.0
O383 O 0.84318 0.31171 0.46974 0.0
C384 C 0.83104 0.31225 0.45534 0.0
C385 C 0.8861 0.31024 0.51423 0.0
C386 C 0.87128 0.27258 0.44928 0.0
C387 C 0.88535 0.32512 0.4317 0.0
O388 O 0.89083 0.31938 0.45096 0.0
O389 O 0.87143 0.32113 0.42431 0.0
O390 O 0.89676 0.30355 0.50089 0.0
O391 O 0.87191 0.31264 0.50544 0.0
O392 O 0.46763 0.89174 0.31729 0.0
Cd393 Cd 0.44376 0.89626 0.30991 0.0
Cd394 Cd 0.44759 0.87115 0.27941 0.0
O395 O 0.47143 0.87256 0.29075 0.0
O396 O 0.43945 0.9194 0.31708 0.0
O397 O 0.43815 0.90908 0.28094 0.0
C398 C 0.43712 0.92152 0.29469 0.0
C399 C 0.44172 0.86535 0.23975 0.0
C400 C 0.47685 0.8816 0.30717 0.0
C401 C 0.42391 0.8676 0.32054 0.0
O402 O 0.43074 0.86158 0.30244 0.0
O403 O 0.42714 0.8819 0.32714 0.0
O404 O 0.44752 0.85459 0.25381 0.0
O405 O 0.43995 0.87982 0.24786 0.0
O406 O 0.86067 0.72287 0.06289 0.0
Cd407 Cd 0.85883 0.69872 0.05428 0.0
Cd408 Cd 0.88246 0.70632 0.02429 0.0
O409 O 0.877 0.72979 0.03381 0.0
O410 O 0.8364 0.69173 0.06205 0.0
O411 O 0.84601 0.69275 0.0255 0.0
C412 C 0.83401 0.69009 0.03959 0.0
C413 C 0.88693 0.69923 0.98475 0.0
C414 C 0.86837 0.73367 0.05154 0.0
C415 C 0.89052 0.68409 0.06515 0.0
O416 O 0.89557 0.69306 0.04846 0.0
O417 O 0.87551 0.68338 0.06978 0.0
O418 O 0.89704 0.70805 0.99629 0.0
O419 O 0.87385 0.69488 0.99542 0.0
O420 O 0.03008 0.10978 0.81248 0.0
Cd421 Cd 0.0544 0.10616 0.80738 0.0
Cd422 Cd 0.05127 0.13077 0.77587 0.0
O423 O 0.02723 0.12909 0.78591 0.0
O424 O 0.05927 0.08341 0.81619 0.0
O425 O 0.06134 0.09279 0.77958 0.0
C426 C 0.06231 0.08077 0.79411 0.0
C427 C 0.05787 0.13559 0.7362 0.0
C428 C 0.02122 0.11986 0.8016 0.0
C429 C 0.07341 0.13567 0.8181 0.0
O430 O 0.06719 0.1413 0.79927 0.0
O431 O 0.07006 0.12147 0.82503 0.0
O432 O 0.05099 0.1464 0.74909 0.0
O433 O 0.06048 0.12161 0.74556 0.0
O434 O 0.64008 0.28001 0.56496 0.0
Cd435 Cd 0.64416 0.30426 0.56015 0.0
Cd436 Cd 0.61887 0.30188 0.52964 0.0
O437 O 0.61967 0.27785 0.54004 0.0
O438 O 0.66733 0.30862 0.56706 0.0
O439 O 0.65648 0.31128 0.5314 0.0
C440 C 0.6691 0.3119 0.54486 0.0
C441 C 0.61314 0.30839 0.49018 0.0
C442 C 0.62929 0.27151 0.55496 0.0
C443 C 0.61568 0.32414 0.57231 0.0
O444 O 0.60975 0.31848 0.55331 0.0
O445 O 0.6297 0.31999 0.57911 0.0
O446 O 0.60226 0.30273 0.50417 0.0
O447 O 0.62766 0.30972 0.49827 0.0
C448 C 0.07222 0.36853 0.20115 0.0
C449 C 0.0595 0.36004 0.21193 0.0
C450 C 0.07843 0.36347 0.1793 0.0
C451 C 0.06869 0.33919 0.12649 0.0
H452 H 0.11503 0.33404 0.1204 0.0
C453 C 0.09573 0.30378 0.04889 0.0
C454 C 0.1097 0.3099 0.03802 0.0
C455 C 0.09028 0.31014 0.07033 0.0
C456 C 0.10208 0.3356 0.12167 0.0
H457 H 0.04299 0.33991 0.2079 0.0
H458 H 0.05364 0.33125 0.16978 0.0
H459 H 0.10376 0.34572 0.15653 0.0
H460 H 0.1292 0.32717 0.04152 0.0
H461 H 0.11953 0.33851 0.07884 0.0
H462 H 0.0669 0.32923 0.09172 0.0
C463 C 0.05885 0.34179 0.17818 0.0
C464 C 0.09564 0.3423 0.14237 0.0
C465 C 0.05278 0.34673 0.20007 0.0
C466 C 0.11843 0.32215 0.04952 0.0
C467 C 0.11289 0.32863 0.07093 0.0
C468 C 0.07511 0.33261 0.10578 0.0
C469 C 0.07189 0.34995 0.1677 0.0
C470 C 0.07885 0.34397 0.14511 0.0
C471 C 0.09855 0.32292 0.08136 0.0
C472 C 0.09188 0.3305 0.10321 0.0
H473 H 0.07769 0.3788 0.20989 0.0
H474 H 0.08839 0.37007 0.17154 0.0
H475 H 0.05572 0.34056 0.12794 0.0
H476 H 0.0888 0.29424 0.0406 0.0
H477 H 0.07944 0.30514 0.07813 0.0
C478 C 0.92977 0.8722 0.30145 0.0
C479 C 0.93295 0.86054 0.28397 0.0
C480 C 0.92382 0.86755 0.32366 0.0
C481 C 0.90136 0.83518 0.35335 0.0
H482 H 0.92289 0.84921 0.41072 0.0
C483 C 0.87912 0.81918 0.44835 0.0
C484 C 0.89118 0.81301 0.46334 0.0
C485 C 0.88321 0.8259 0.42639 0.0
C486 C 0.91673 0.84526 0.39483 0.0
H487 H 0.93229 0.83491 0.27605 0.0
H488 H 0.92176 0.82692 0.31452 0.0
H489 H 0.93186 0.8596 0.37233 0.0
H490 H 0.91696 0.80905 0.46703 0.0
H491 H 0.92403 0.8209 0.42897 0.0
H492 H 0.88635 0.82069 0.37582 0.0
C493 C 0.92387 0.83961 0.3111 0.0
C494 C 0.92178 0.85129 0.37293 0.0
C495 C 0.93003 0.8442 0.28913 0.0
C496 C 0.90736 0.81364 0.45589 0.0
C497 C 0.91145 0.82056 0.43418 0.0
C498 C 0.89615 0.82933 0.37528 0.0
C499 C 0.92068 0.85121 0.32858 0.0
C500 C 0.91434 0.84607 0.35195 0.0
C501 C 0.89944 0.82682 0.41924 0.0
C502 C 0.90398 0.83408 0.39619 0.0
H503 H 0.93189 0.88488 0.29797 0.0
H504 H 0.92144 0.87673 0.33686 0.0
H505 H 0.89534 0.83105 0.33743 0.0
H506 H 0.86655 0.81888 0.45362 0.0
H507 H 0.87372 0.83065 0.41518 0.0
C508 C 0.44398 0.65744 0.70519 0.0
C509 C 0.43805 0.64342 0.71615 0.0
C510 C 0.43832 0.66215 0.68296 0.0
C511 C 0.40322 0.65927 0.64409 0.0
H512 H 0.4329 0.67463 0.59606 0.0
C513 C 0.38248 0.67918 0.55005 0.0
C514 C 0.39092 0.69199 0.53942 0.0
C515 C 0.38767 0.67276 0.5717 0.0
C516 C 0.4244 0.67061 0.60937 0.0
H517 H 0.42165 0.62321 0.71224 0.0
H518 H 0.41158 0.63158 0.67329 0.0
H519 H 0.44341 0.66375 0.633 0.0
H520 H 0.41087 0.70866 0.54375 0.0
H521 H 0.41955 0.6979 0.5817 0.0
H522 H 0.38417 0.6665 0.62072 0.0
C523 C 0.42065 0.63888 0.68201 0.0
C524 C 0.43045 0.66427 0.63049 0.0
C525 C 0.42649 0.63404 0.70419 0.0
C526 C 0.40419 0.69869 0.55136 0.0
C527 C 0.40927 0.6924 0.57305 0.0
C528 C 0.39713 0.66575 0.623 0.0
C529 C 0.42645 0.65305 0.67125 0.0
C530 C 0.41995 0.65868 0.64818 0.0
C531 C 0.40133 0.6791 0.58325 0.0
C532 C 0.40765 0.67168 0.60547 0.0
H533 H 0.45289 0.66494 0.71394 0.0
H534 H 0.44292 0.67319 0.67523 0.0
H535 H 0.39482 0.65519 0.65752 0.0
H536 H 0.37225 0.67371 0.54121 0.0
H537 H 0.3813 0.66247 0.57893 0.0
C538 C 0.55507 0.15057 0.79946 0.0
C539 C 0.56167 0.13733 0.78732 0.0
C540 C 0.56098 0.15504 0.82166 0.0
C541 C 0.59733 0.15377 0.85802 0.0
H542 H 0.56821 0.16601 0.90866 0.0
C543 C 0.61962 0.17429 0.95107 0.0
C544 C 0.61062 0.1864 0.96243 0.0
C545 C 0.6142 0.16755 0.92974 0.0
C546 C 0.57654 0.16285 0.89462 0.0
H547 H 0.57948 0.11819 0.78911 0.0
H548 H 0.58997 0.12616 0.82799 0.0
H549 H 0.55733 0.155 0.87203 0.0
H550 H 0.58933 0.20151 0.95975 0.0
H551 H 0.58019 0.19022 0.9224 0.0
H552 H 0.61653 0.16205 0.88034 0.0
C553 C 0.58019 0.13304 0.82023 0.0
C554 C 0.57027 0.15644 0.87369 0.0
C555 C 0.57411 0.12842 0.79809 0.0
C556 C 0.59647 0.19208 0.95157 0.0
C557 C 0.59114 0.18548 0.93023 0.0
C558 C 0.60361 0.16033 0.87894 0.0
C559 C 0.57375 0.14648 0.83214 0.0
C560 C 0.58057 0.15201 0.85505 0.0
C561 C 0.59971 0.17287 0.91929 0.0
C562 C 0.59326 0.16517 0.89738 0.0
H563 H 0.54549 0.15769 0.79164 0.0
H564 H 0.55587 0.16553 0.83031 0.0
H565 H 0.60554 0.1506 0.84385 0.0
H566 H 0.63054 0.16961 0.95907 0.0
H567 H 0.62107 0.15781 0.9219 0.0
C568 C 0.06111 0.65555 0.29368 0.0
C569 C 0.06671 0.64118 0.28334 0.0
C570 C 0.06655 0.66034 0.31599 0.0
C571 C 0.10082 0.65703 0.35611 0.0
H572 H 0.0707 0.67327 0.40292 0.0
C573 C 0.12064 0.67762 0.45021 0.0
C574 C 0.11219 0.69057 0.46043 0.0
C575 C 0.11564 0.67106 0.42856 0.0
C576 C 0.07933 0.66901 0.38995 0.0
H577 H 0.08231 0.62046 0.28836 0.0
H578 H 0.09205 0.629 0.32744 0.0
H579 H 0.06055 0.66224 0.36586 0.0
H580 H 0.09241 0.70736 0.45538 0.0
H581 H 0.08407 0.69638 0.41739 0.0
H582 H 0.11964 0.66421 0.37987 0.0
C583 C 0.08338 0.63649 0.31819 0.0
C584 C 0.07348 0.66258 0.36877 0.0
C585 C 0.07773 0.63156 0.29595 0.0
C586 C 0.09909 0.69727 0.44809 0.0
C587 C 0.09421 0.69086 0.42638 0.0
C588 C 0.10671 0.66363 0.37724 0.0
C589 C 0.07789 0.65097 0.32837 0.0
C590 C 0.08415 0.65667 0.35153 0.0
C591 C 0.10215 0.67742 0.41658 0.0
C592 C 0.09603 0.66988 0.39433 0.0
H593 H 0.05262 0.66323 0.28443 0.0
H594 H 0.06221 0.67162 0.32329 0.0
H595 H 0.10932 0.65269 0.34301 0.0
H596 H 0.13074 0.67214 0.45938 0.0
H597 H 0.122 0.66066 0.42166 0.0
C598 C 0.59512 0.81523 0.54028 0.0
C599 C 0.61145 0.81378 0.53388 0.0
C600 C 0.59076 0.82147 0.56232 0.0
C601 C 0.60415 0.82654 0.62297 0.0
H602 H 0.57144 0.86004 0.62567 0.0
C603 C 0.56765 0.84143 0.70704 0.0
C604 C 0.56624 0.85777 0.71344 0.0
C605 C 0.57445 0.83704 0.68537 0.0
C606 C 0.58068 0.8508 0.62517 0.0
H607 H 0.63605 0.81743 0.54582 0.0
H608 H 0.62837 0.82797 0.58486 0.0
H609 H 0.58109 0.85037 0.58722 0.0
H610 H 0.5707 0.88233 0.70199 0.0
H611 H 0.58222 0.8746 0.66358 0.0
H612 H 0.60335 0.8266 0.66092 0.0
C613 C 0.61899 0.8244 0.57256 0.0
C614 C 0.58611 0.84519 0.60322 0.0
C615 C 0.62337 0.81839 0.55026 0.0
C616 C 0.57162 0.86965 0.69753 0.0
C617 C 0.57819 0.86524 0.67559 0.0
C618 C 0.59852 0.83195 0.64492 0.0
C619 C 0.60263 0.82619 0.57863 0.0
C620 C 0.59777 0.83289 0.60191 0.0
C621 C 0.57977 0.84888 0.66941 0.0
C622 C 0.58661 0.84402 0.64622 0.0
H623 H 0.58562 0.81185 0.52806 0.0
H624 H 0.57807 0.82254 0.56667 0.0
H625 H 0.61309 0.817 0.62244 0.0
H626 H 0.56369 0.83196 0.71893 0.0
H627 H 0.57535 0.82435 0.68093 0.0
C628 C 0.38179 0.32385 0.95037 0.0
C629 C 0.39371 0.32047 0.96738 0.0
C630 C 0.38612 0.32988 0.92806 0.0
C631 C 0.4184 0.35185 0.89709 0.0
H632 H 0.40207 0.33124 0.8403 0.0
C633 C 0.43191 0.37467 0.80152 0.0
C634 C 0.43693 0.36263 0.78561 0.0
C635 C 0.42599 0.3705 0.82395 0.0
C636 C 0.40669 0.33713 0.85602 0.0
H637 H 0.41947 0.32088 0.97438 0.0
H638 H 0.42692 0.3315 0.93571 0.0
H639 H 0.39259 0.32221 0.87913 0.0
H640 H 0.43976 0.33678 0.78083 0.0
H641 H 0.42934 0.32958 0.81972 0.0
H642 H 0.43264 0.36665 0.87398 0.0
C643 C 0.41426 0.32952 0.93958 0.0
C644 C 0.40117 0.33206 0.8782 0.0
C645 C 0.40998 0.3233 0.96167 0.0
C646 C 0.43603 0.34638 0.79266 0.0
C647 C 0.42993 0.34222 0.81487 0.0
C648 C 0.42375 0.35708 0.87489 0.0
C649 C 0.4024 0.33287 0.92254 0.0
C650 C 0.40718 0.33918 0.89897 0.0
C651 C 0.42476 0.35421 0.8307 0.0
C652 C 0.41816 0.34958 0.85416 0.0
H653 H 0.36916 0.32181 0.95426 0.0
H654 H 0.37672 0.3324 0.91524 0.0
H655 H 0.42313 0.35764 0.91282 0.0
H656 H 0.43243 0.38729 0.79659 0.0
H657 H 0.42206 0.37999 0.83583 0.0
C658 C 0.90945 0.18599 0.04183 0.0
C659 C 0.89312 0.18768 0.03551 0.0
C660 C 0.91375 0.17957 0.06378 0.0
C661 C 0.90044 0.17474 0.12438 0.0
H662 H 0.93271 0.14082 0.12714 0.0
C663 C 0.93701 0.15977 0.2083 0.0
C664 C 0.93801 0.14346 0.21498 0.0
C665 C 0.93032 0.16415 0.18656 0.0
C666 C 0.9236 0.15019 0.12662 0.0
H667 H 0.86849 0.18424 0.04744 0.0
H668 H 0.8761 0.1734 0.08634 0.0
H669 H 0.92306 0.15046 0.08867 0.0
H670 H 0.93299 0.11891 0.20392 0.0
H671 H 0.92166 0.12661 0.16538 0.0
H672 H 0.9014 0.17485 0.16233 0.0
C673 C 0.8855 0.1769 0.07405 0.0
C674 C 0.91815 0.15576 0.10466 0.0
C675 C 0.88117 0.18308 0.05183 0.0
C676 C 0.93238 0.13158 0.19925 0.0
C677 C 0.92593 0.13596 0.17724 0.0
C678 C 0.90609 0.16936 0.14634 0.0
C679 C 0.90185 0.17492 0.08007 0.0
C680 C 0.90665 0.16821 0.10334 0.0
C681 C 0.92469 0.15231 0.17082 0.0
C682 C 0.91784 0.15715 0.14764 0.0
H683 H 0.91896 0.18935 0.02964 0.0
H684 H 0.92644 0.17835 0.0681 0.0
H685 H 0.89163 0.1844 0.12383 0.0
H686 H 0.94117 0.16923 0.22006 0.0
H687 H 0.92968 0.17682 0.18192 0.0
C688 C 0.94521 0.65758 0.79618 0.0
C689 C 0.93949 0.64326 0.78586 0.0
C690 C 0.93893 0.66306 0.81765 0.0
C691 C 0.91472 0.65088 0.87008 0.0
H692 H 0.90849 0.69712 0.87577 0.0
C693 C 0.88242 0.68058 0.95032 0.0
C694 C 0.89082 0.69358 0.96055 0.0
C695 C 0.88725 0.6743 0.92841 0.0
C696 C 0.91021 0.68419 0.87448 0.0
H697 H 0.92301 0.62318 0.79031 0.0
H698 H 0.91177 0.6329 0.82771 0.0
H699 H 0.91943 0.68598 0.83927 0.0
H700 H 0.91051 0.71048 0.95551 0.0
H701 H 0.91874 0.69969 0.91725 0.0
H702 H 0.90531 0.64921 0.90538 0.0
C703 C 0.92129 0.6398 0.81935 0.0
C704 C 0.91657 0.67778 0.85361 0.0
C705 C 0.92771 0.63423 0.79789 0.0
C706 C 0.90379 0.70047 0.94811 0.0
C707 C 0.90847 0.69433 0.92614 0.0
C708 C 0.90822 0.6573 0.89094 0.0
C709 C 0.92662 0.65446 0.82927 0.0
C710 C 0.91916 0.66107 0.85124 0.0
C711 C 0.9004 0.68104 0.91619 0.0
C712 C 0.90611 0.67405 0.89346 0.0
H713 H 0.9544 0.66475 0.78747 0.0
H714 H 0.94365 0.67415 0.82505 0.0
H715 H 0.91666 0.63798 0.86899 0.0
H716 H 0.87242 0.67498 0.95953 0.0
H717 H 0.88073 0.66413 0.92106 0.0
C718 C 0.09997 0.19391 0.54855 0.0
C719 C 0.11327 0.18724 0.53662 0.0
C720 C 0.09538 0.18811 0.57074 0.0
C721 C 0.09625 0.15198 0.60746 0.0
H722 H 0.08427 0.18146 0.65777 0.0
C723 C 0.07543 0.13042 0.70074 0.0
C724 C 0.06353 0.13969 0.7121 0.0
C725 C 0.08216 0.1356 0.67928 0.0
C726 C 0.08734 0.17303 0.64383 0.0
H727 H 0.13236 0.1694 0.53873 0.0
H728 H 0.12416 0.15907 0.57762 0.0
H729 H 0.09548 0.19205 0.6211 0.0
H730 H 0.0487 0.16117 0.70925 0.0
H731 H 0.05994 0.16987 0.67164 0.0
H732 H 0.08768 0.13298 0.6299 0.0
C733 C 0.11735 0.16883 0.5697 0.0
C734 C 0.09388 0.17913 0.62287 0.0
C735 C 0.1221 0.17482 0.54757 0.0
C736 C 0.05798 0.15383 0.70107 0.0
C737 C 0.06455 0.15891 0.67958 0.0
C738 C 0.08956 0.14587 0.62839 0.0
C739 C 0.10387 0.17536 0.58142 0.0
C740 C 0.09822 0.1687 0.60436 0.0
C741 C 0.07701 0.1501 0.66868 0.0
C742 C 0.0848 0.15635 0.64672 0.0
H743 H 0.09292 0.20349 0.54058 0.0
H744 H 0.08487 0.19328 0.57925 0.0
H745 H 0.09936 0.14367 0.59337 0.0
H746 H 0.08001 0.1195 0.70888 0.0
H747 H 0.09178 0.12854 0.67146 0.0
C748 C 0.59236 0.31641 0.46045 0.0
C749 C 0.6087 0.31404 0.46619 0.0
C750 C 0.58794 0.32264 0.43844 0.0
C751 C 0.60036 0.32593 0.37713 0.0
H752 H 0.56959 0.36122 0.37449 0.0
C753 C 0.56336 0.3416 0.29385 0.0
C754 C 0.56292 0.35788 0.28688 0.0
C755 C 0.57015 0.33715 0.3155 0.0
C756 C 0.57828 0.35146 0.37497 0.0
H757 H 0.63323 0.31607 0.45313 0.0
H758 H 0.62539 0.32659 0.41414 0.0
H759 H 0.57945 0.35166 0.41289 0.0
H760 H 0.56904 0.3823 0.29734 0.0
H761 H 0.58053 0.3745 0.33571 0.0
H762 H 0.59879 0.32539 0.33924 0.0
C763 C 0.61607 0.32375 0.42694 0.0
C764 C 0.58384 0.34593 0.3969 0.0
C765 C 0.62054 0.31776 0.44921 0.0
C766 C 0.5692 0.36967 0.30224 0.0
C767 C 0.57575 0.36522 0.32416 0.0
C768 C 0.59459 0.33128 0.35522 0.0
C769 C 0.59973 0.32642 0.42149 0.0
C770 C 0.5948 0.33301 0.39819 0.0
C771 C 0.57642 0.34889 0.33086 0.0
C772 C 0.58338 0.34399 0.35395 0.0
H773 H 0.58294 0.31373 0.47315 0.0
H774 H 0.57525 0.3244 0.43458 0.0
H775 H 0.60875 0.3159 0.37766 0.0
H776 H 0.55869 0.33221 0.28238 0.0
H777 H 0.57033 0.3245 0.32036 0.0
C778 C 0.43226 0.87256 0.19873 0.0
C779 C 0.43627 0.8608 0.21568 0.0
C780 C 0.42631 0.86797 0.17648 0.0
C781 C 0.40453 0.83539 0.14671 0.0
H782 H 0.4243 0.85081 0.08874 0.0
C783 C 0.37993 0.82115 0.05232 0.0
C784 C 0.3916 0.81507 0.0366 0.0
C785 C 0.38456 0.82754 0.07427 0.0
C786 C 0.41863 0.84648 0.10481 0.0
H787 H 0.4372 0.83504 0.22258 0.0
H788 H 0.4266 0.82715 0.18406 0.0
H789 H 0.43402 0.86078 0.12703 0.0
H790 H 0.41725 0.81099 0.03155 0.0
H791 H 0.42526 0.82235 0.06958 0.0
H792 H 0.3892 0.82103 0.12452 0.0
C793 C 0.4281 0.83987 0.18792 0.0
C794 C 0.42412 0.85224 0.12665 0.0
C795 C 0.43429 0.84441 0.20991 0.0
C796 C 0.40794 0.81551 0.04328 0.0
C797 C 0.41257 0.82213 0.06497 0.0
C798 C 0.39886 0.82983 0.12486 0.0
C799 C 0.42397 0.85158 0.17103 0.0
C800 C 0.41731 0.84654 0.14782 0.0
C801 C 0.40094 0.82824 0.08066 0.0
C802 C 0.40604 0.83511 0.10372 0.0
H803 H 0.43364 0.88528 0.20268 0.0
H804 H 0.42321 0.87723 0.16373 0.0
H805 H 0.39902 0.83088 0.16279 0.0
H806 H 0.36725 0.82099 0.04765 0.0
H807 H 0.37536 0.83218 0.08608 0.0
C808 C 0.94675 0.35053 0.70121 0.0
C809 C 0.94013 0.3636 0.71371 0.0
C810 C 0.94073 0.34622 0.67902 0.0
C811 C 0.90412 0.34738 0.6433 0.0
H812 H 0.93299 0.33622 0.59183 0.0
C813 C 0.88138 0.32754 0.55013 0.0
C814 C 0.89056 0.3158 0.53825 0.0
C815 C 0.88684 0.3341 0.57156 0.0
C816 C 0.92473 0.33907 0.6061 0.0
H817 H 0.92213 0.38259 0.71259 0.0
H818 H 0.91143 0.37488 0.67372 0.0
H819 H 0.94401 0.34697 0.62854 0.0
H820 H 0.91216 0.30109 0.54013 0.0
H821 H 0.92135 0.31202 0.57767 0.0
H822 H 0.88486 0.33904 0.62113 0.0
C823 C 0.92133 0.36802 0.68119 0.0
C824 C 0.93107 0.34533 0.62708 0.0
C825 C 0.92753 0.3725 0.70332 0.0
C826 C 0.90489 0.31025 0.54871 0.0
C827 C 0.91025 0.31665 0.57016 0.0
C828 C 0.89776 0.34095 0.62234 0.0
C829 C 0.9278 0.35475 0.66892 0.0
C830 C 0.92087 0.34937 0.646 0.0
C831 C 0.90152 0.32894 0.58161 0.0
C832 C 0.90802 0.3365 0.60359 0.0
H833 H 0.95646 0.34343 0.70875 0.0
H834 H 0.94587 0.33586 0.67007 0.0
H835 H 0.89598 0.35026 0.6577 0.0
H836 H 0.87031 0.33211 0.54243 0.0
H837 H 0.87983 0.34359 0.57981 0.0
C838 C 0.4297 0.13352 0.29956 0.0
C839 C 0.44237 0.14218 0.28896 0.0
C840 C 0.42336 0.13845 0.3214 0.0
C841 C 0.43291 0.16253 0.37448 0.0
H842 H 0.38655 0.16736 0.38082 0.0
C843 C 0.40587 0.19784 0.45211 0.0
C844 C 0.39201 0.19163 0.46315 0.0
C845 C 0.41128 0.19148 0.43065 0.0
C846 C 0.3995 0.16589 0.37948 0.0
H847 H 0.45864 0.16249 0.29325 0.0
H848 H 0.44775 0.17091 0.33132 0.0
H849 H 0.39782 0.15583 0.34456 0.0
H850 H 0.37264 0.17419 0.45992 0.0
H851 H 0.38223 0.16285 0.42254 0.0
H852 H 0.43471 0.17244 0.40928 0.0
C853 C 0.44268 0.16034 0.32281 0.0
C854 C 0.40595 0.15927 0.3587 0.0
C855 C 0.44887 0.15555 0.30094 0.0
C856 C 0.38333 0.17928 0.4518 0.0
C857 C 0.38882 0.1728 0.43035 0.0
C858 C 0.42649 0.16903 0.39525 0.0
C859 C 0.42973 0.15198 0.33317 0.0
C860 C 0.42274 0.15775 0.35587 0.0
C861 C 0.40307 0.17861 0.41976 0.0
C862 C 0.40972 0.17104 0.3979 0.0
H863 H 0.4244 0.1232 0.29072 0.0
H864 H 0.41345 0.1317 0.32907 0.0
H865 H 0.44588 0.16127 0.37297 0.0
H866 H 0.41277 0.20746 0.46029 0.0
H867 H 0.42204 0.19656 0.42273 0.0
C868 C 0.55652 0.64971 0.20245 0.0
C869 C 0.56308 0.63637 0.21443 0.0
C870 C 0.56209 0.65396 0.17998 0.0
C871 C 0.59772 0.65231 0.14249 0.0
H872 H 0.56793 0.6639 0.09237 0.0
C873 C 0.61909 0.67285 0.04901 0.0
C874 C 0.60976 0.68469 0.0376 0.0
C875 C 0.61386 0.66604 0.07041 0.0
C876 C 0.57645 0.66093 0.10625 0.0
H877 H 0.58047 0.61689 0.21213 0.0
H878 H 0.59043 0.62454 0.17278 0.0
H879 H 0.55756 0.65316 0.12949 0.0
H880 H 0.58809 0.69924 0.0402 0.0
H881 H 0.57931 0.68791 0.07768 0.0
H882 H 0.6166 0.6606 0.11963 0.0
C883 C 0.58091 0.63161 0.18086 0.0
C884 C 0.57047 0.65466 0.12746 0.0
C885 C 0.57513 0.62718 0.20325 0.0
C886 C 0.59546 0.69001 0.04842 0.0
C887 C 0.59035 0.68338 0.06985 0.0
C888 C 0.60371 0.65877 0.12133 0.0
C889 C 0.5745 0.64512 0.16909 0.0
C890 C 0.58102 0.65046 0.1459 0.0
C891 C 0.59927 0.67105 0.08091 0.0
C892 C 0.59312 0.66339 0.10305 0.0
H893 H 0.54723 0.65703 0.2106 0.0
H894 H 0.55701 0.6645 0.17141 0.0
H895 H 0.60611 0.6493 0.15652 0.0
H896 H 0.63013 0.66845 0.04103 0.0
H897 H 0.621 0.65652 0.0783 0.0
C898 C 0.0701 0.86895 0.80283 0.0
C899 C 0.06696 0.85708 0.78565 0.0
C900 C 0.07615 0.8646 0.82512 0.0
C901 C 0.09932 0.83302 0.85519 0.0
H902 H 0.07779 0.84699 0.91261 0.0
C903 C 0.12268 0.8187 0.9502 0.0
C904 C 0.11096 0.81203 0.9653 0.0
C905 C 0.11823 0.82517 0.92823 0.0
C906 C 0.08396 0.84307 0.8967 0.0
H907 H 0.06778 0.83137 0.77835 0.0
H908 H 0.07853 0.82389 0.81695 0.0
H909 H 0.06829 0.85679 0.87413 0.0
H910 H 0.08539 0.80701 0.96926 0.0
H911 H 0.07766 0.8185 0.9312 0.0
H912 H 0.11489 0.81919 0.87774 0.0
C913 C 0.07628 0.83652 0.81324 0.0
C914 C 0.07859 0.84875 0.87475 0.0
C915 C 0.07 0.84081 0.7912 0.0
C916 C 0.09473 0.81199 0.95801 0.0
C917 C 0.09027 0.81869 0.9363 0.0
C918 C 0.10485 0.82755 0.87716 0.0
C919 C 0.07946 0.84835 0.8304 0.0
C920 C 0.08603 0.84354 0.85377 0.0
C921 C 0.10195 0.82537 0.92121 0.0
C922 C 0.09703 0.83228 0.89809 0.0
H923 H 0.0679 0.88158 0.79906 0.0
H924 H 0.07851 0.87394 0.83807 0.0
H925 H 0.10533 0.82891 0.83926 0.0
H926 H 0.13527 0.81892 0.95536 0.0
H927 H 0.12746 0.83027 0.9169 0.0
C928 C 0.07633 0.33313 0.32832 0.0
C929 C 0.07956 0.34972 0.33054 0.0
C930 C 0.08366 0.32199 0.34334 0.0
C931 C 0.11817 0.31402 0.38119 0.0
H932 H 0.08932 0.28298 0.4104 0.0
C933 C 0.1376 0.25168 0.41783 0.0
C934 C 0.12951 0.24562 0.43784 0.0
C935 C 0.13334 0.26664 0.4082 0.0
C936 C 0.09754 0.29168 0.4027 0.0
H937 H 0.09358 0.36753 0.3498 0.0
H938 H 0.1067 0.34781 0.37594 0.0
H939 H 0.07824 0.30465 0.38625 0.0
H940 H 0.11141 0.25113 0.46444 0.0
H941 H 0.10401 0.27717 0.4476 0.0
H942 H 0.13753 0.30066 0.39716 0.0
C943 C 0.09833 0.34359 0.36259 0.0
C944 C 0.0912 0.30399 0.38868 0.0
C945 C 0.0908 0.35484 0.34767 0.0
C946 C 0.11781 0.25534 0.4489 0.0
C947 C 0.11351 0.27025 0.43921 0.0
C948 C 0.12457 0.30154 0.39506 0.0
C949 C 0.09455 0.3271 0.36083 0.0
C950 C 0.10144 0.31511 0.37745 0.0
C951 C 0.12086 0.27582 0.41833 0.0
C952 C 0.11431 0.29011 0.4057 0.0
H953 H 0.06779 0.32871 0.31532 0.0
H954 H 0.08072 0.30931 0.34138 0.0
H955 H 0.12631 0.32244 0.37267 0.0
H956 H 0.14673 0.24456 0.40893 0.0
H957 H 0.13917 0.27056 0.39203 0.0
C958 C 0.91512 0.83297 0.57601 0.0
C959 C 0.89942 0.82973 0.58413 0.0
C960 C 0.9263 0.84072 0.59052 0.0
C961 C 0.93625 0.84773 0.65295 0.0
H962 H 0.96771 0.87683 0.62543 0.0
C963 C 0.99841 0.88602 0.67727 0.0
C964 C 0.00673 0.87406 0.69001 0.0
C965 C 0.98319 0.88287 0.66767 0.0
C966 C 0.9589 0.86897 0.63364 0.0
H967 H 0.88304 0.83247 0.61382 0.0
H968 H 0.9027 0.84617 0.6393 0.0
H969 H 0.94482 0.86802 0.60197 0.0
H970 H 0.0052 0.84965 0.70367 0.0
H971 H 0.97887 0.84398 0.68637 0.0
H972 H 0.95041 0.84869 0.68467 0.0
C973 C 0.90632 0.84255 0.62165 0.0
C974 C 0.94586 0.86374 0.62003 0.0
C975 C 0.89504 0.83481 0.60701 0.0
C976 C 0.99912 0.85914 0.69395 0.0
C977 C 0.98395 0.85592 0.68411 0.0
C978 C 0.94931 0.85302 0.66666 0.0
C979 C 0.92213 0.84546 0.6136 0.0
C980 C 0.93461 0.85272 0.62928 0.0
C981 C 0.97598 0.86761 0.6703 0.0
C982 C 0.96101 0.86343 0.65699 0.0
H983 H 0.91895 0.82924 0.5585 0.0
H984 H 0.93843 0.84251 0.58385 0.0
H985 H 0.92784 0.83919 0.6606 0.0
H986 H 0.00384 0.89773 0.67417 0.0
H987 H 0.97726 0.8923 0.65764 0.0
C988 C 0.36498 0.75225 0.91571 0.0
C989 C 0.37 0.75606 0.93881 0.0
C990 C 0.36804 0.73702 0.90611 0.0
C991 C 0.39586 0.70237 0.91383 0.0
H992 H 0.37012 0.68463 0.86271 0.0
C993 C 0.41483 0.64537 0.86138 0.0
C994 C 0.41653 0.6486 0.83706 0.0
C995 C 0.40663 0.65623 0.87608 0.0
C996 C 0.37735 0.6894 0.87708 0.0
H997 H 0.38123 0.74648 0.97051 0.0
H998 H 0.38599 0.71967 0.95411 0.0
H999 H 0.35985 0.70747 0.88547 0.0
H1000 H 0.41024 0.6652 0.80887 0.0
H1001 H 0.39555 0.68389 0.83444 0.0
H1002 H 0.41331 0.68418 0.90531 0.0
C1003 C 0.38019 0.72863 0.94307 0.0
C1004 C 0.37155 0.70256 0.89004 0.0
C1005 C 0.37734 0.74398 0.95256 0.0
C1006 C 0.40917 0.66243 0.82755 0.0
C1007 C 0.40069 0.67308 0.84214 0.0
C1008 C 0.4015 0.68902 0.90115 0.0
C1009 C 0.37599 0.72508 0.91946 0.0
C1010 C 0.38096 0.70957 0.90811 0.0
C1011 C 0.39966 0.67027 0.86661 0.0
C1012 C 0.39251 0.68271 0.88224 0.0
H1013 H 0.35936 0.76128 0.90456 0.0
H1014 H 0.36483 0.73495 0.88778 0.0
H1015 H 0.40361 0.70749 0.92731 0.0
H1016 H 0.42044 0.63484 0.86921 0.0
H1017 H 0.40597 0.65381 0.8949 0.0
C1018 C 0.58853 0.16521 0.07616 0.0
C1019 C 0.60476 0.16733 0.08269 0.0
C1020 C 0.578 0.15646 0.0905 0.0
C1021 C 0.57199 0.14363 0.15219 0.0
H1022 H 0.53679 0.11971 0.12371 0.0
C1023 C 0.50755 0.10912 0.17643 0.0
C1024 C 0.50143 0.12051 0.19252 0.0
C1025 C 0.52267 0.11137 0.16593 0.0
C1026 C 0.54668 0.12602 0.13216 0.0
H1027 H 0.62274 0.16149 0.10926 0.0
H1028 H 0.60429 0.14597 0.1343 0.0
H1029 H 0.55867 0.12938 0.09905 0.0
H1030 H 0.50682 0.14271 0.21128 0.0
H1031 H 0.53281 0.14694 0.19245 0.0
H1032 H 0.55999 0.14017 0.18538 0.0
C1033 C 0.59972 0.1513 0.11813 0.0
C1034 C 0.55914 0.13181 0.11788 0.0
C1035 C 0.6103 0.16011 0.10372 0.0
C1036 C 0.51117 0.13368 0.19896 0.0
C1037 C 0.52618 0.13606 0.18822 0.0
C1038 C 0.55957 0.1377 0.16656 0.0
C1039 C 0.58339 0.14949 0.11176 0.0
C1040 C 0.57166 0.14117 0.12756 0.0
C1041 C 0.53191 0.12521 0.17098 0.0
C1042 C 0.54647 0.12925 0.15662 0.0
H1043 H 0.58379 0.17061 0.06013 0.0
H1044 H 0.56546 0.15563 0.08521 0.0
H1045 H 0.58143 0.15081 0.16027 0.0
H1046 H 0.50043 0.09872 0.17132 0.0
H1047 H 0.52685 0.10252 0.15322 0.0
C1048 C 0.08847 0.6409 0.13655 0.0
C1049 C 0.08794 0.64372 0.16109 0.0
C1050 C 0.09671 0.65156 0.12159 0.0
C1051 C 0.12719 0.68391 0.11968 0.0
H1052 H 0.09969 0.70337 0.07207 0.0
C1053 C 0.13836 0.74777 0.08408 0.0
C1054 C 0.13283 0.75213 0.06145 0.0
C1055 C 0.13567 0.73226 0.09291 0.0
C1056 C 0.10776 0.69787 0.08479 0.0
H1057 H 0.09643 0.65928 0.18933 0.0
H1058 H 0.11111 0.67761 0.16329 0.0
H1059 H 0.09034 0.67974 0.0936 0.0
H1060 H 0.1211 0.74324 0.0297 0.0
H1061 H 0.1169 0.71598 0.04478 0.0
H1062 H 0.14459 0.70205 0.11111 0.0
C1063 C 0.10506 0.66727 0.15561 0.0
C1064 C 0.10234 0.68432 0.0972 0.0
C1065 C 0.09658 0.65683 0.17049 0.0
C1066 C 0.12537 0.74032 0.04731 0.0
C1067 C 0.12286 0.72471 0.05605 0.0
C1068 C 0.13274 0.69732 0.10703 0.0
C1069 C 0.10485 0.66499 0.13097 0.0
C1070 C 0.1118 0.67752 0.11524 0.0
C1071 C 0.12757 0.7206 0.07923 0.0
C1072 C 0.12287 0.70482 0.08996 0.0
H1073 H 0.08186 0.63093 0.1288 0.0
H1074 H 0.09641 0.64952 0.10265 0.0
H1075 H 0.13479 0.67877 0.13336 0.0
H1076 H 0.14411 0.75656 0.0955 0.0
H1077 H 0.13928 0.72972 0.11096 0.0
C1078 C 0.50442 0.86885 0.30486 0.0
C1079 C 0.49355 0.8794 0.31612 0.0
C1080 C 0.51946 0.86546 0.31508 0.0
C1081 C 0.53725 0.86178 0.37306 0.0
H1082 H 0.57903 0.86257 0.34218 0.0
C1083 C 0.5935 0.84484 0.42574 0.0
C1084 C 0.60533 0.83555 0.41435 0.0
C1085 C 0.58144 0.85249 0.41268 0.0
C1086 C 0.56744 0.8621 0.35101 0.0
H1087 H 0.49033 0.89524 0.34642 0.0
H1088 H 0.51633 0.88906 0.3643 0.0
H1089 H 0.55495 0.87128 0.32046 0.0
H1090 H 0.61424 0.82741 0.38036 0.0
H1091 H 0.5927 0.84013 0.35747 0.0
H1092 H 0.5492 0.85189 0.4031 0.0
C1093 C 0.51322 0.88345 0.34759 0.0
C1094 C 0.55369 0.86716 0.33857 0.0
C1095 C 0.49833 0.887 0.33727 0.0
C1096 C 0.60531 0.83463 0.38954 0.0
C1097 C 0.59295 0.84197 0.37644 0.0
C1098 C 0.55085 0.85647 0.38531 0.0
C1099 C 0.52377 0.8724 0.33688 0.0
C1100 C 0.5385 0.86714 0.34959 0.0
C1101 C 0.58057 0.85062 0.38792 0.0
C1102 C 0.5662 0.85665 0.37459 0.0
H1103 H 0.50114 0.86285 0.28852 0.0
H1104 H 0.52739 0.85684 0.30654 0.0
H1105 H 0.52562 0.86135 0.38183 0.0
H1106 H 0.59337 0.84586 0.44487 0.0
H1107 H 0.57251 0.85952 0.42215 0.0
C1108 C 0.3792 0.25915 0.55404 0.0
C1109 C 0.37005 0.24707 0.56529 0.0
C1110 C 0.38173 0.27407 0.56506 0.0
C1111 C 0.38583 0.2901 0.6243 0.0
H1112 H 0.38424 0.33243 0.59516 0.0
C1113 C 0.40457 0.34533 0.67799 0.0
C1114 C 0.41385 0.35709 0.66644 0.0
C1115 C 0.39629 0.33364 0.66501 0.0
C1116 C 0.3849 0.3207 0.60352 0.0
H1117 H 0.35556 0.24164 0.59633 0.0
H1118 H 0.36016 0.26755 0.61554 0.0
H1119 H 0.37523 0.30874 0.57285 0.0
H1120 H 0.42127 0.36633 0.63229 0.0
H1121 H 0.40745 0.34544 0.6095 0.0
H1122 H 0.39625 0.30155 0.65437 0.0
C1123 C 0.36542 0.26542 0.59826 0.0
C1124 C 0.37966 0.30716 0.59074 0.0
C1125 C 0.36277 0.25059 0.58719 0.0
C1126 C 0.4141 0.35743 0.6416 0.0
C1127 C 0.40612 0.34545 0.62856 0.0
C1128 C 0.39128 0.30351 0.63688 0.0
C1129 C 0.37528 0.27714 0.58762 0.0
C1130 C 0.38008 0.29174 0.60107 0.0
C1131 C 0.39749 0.3331 0.64015 0.0
C1132 C 0.3909 0.31903 0.62674 0.0
H1133 H 0.38492 0.25687 0.53712 0.0
H1134 H 0.38943 0.28289 0.5565 0.0
H1135 H 0.38661 0.27832 0.63254 0.0
H1136 H 0.40403 0.34494 0.69715 0.0
H1137 H 0.38933 0.32472 0.67459 0.0
C1138 C 0.99654 0.10992 0.82268 0.0
C1139 C 0.00414 0.12178 0.80883 0.0
C1140 C 0.98125 0.11267 0.8323 0.0
C1141 C 0.94626 0.1414 0.83227 0.0
H1142 H 0.94331 0.12844 0.89806 0.0
C1143 C 0.89365 0.16213 0.89311 0.0
C1144 C 0.89864 0.16787 0.91537 0.0
C1145 C 0.90443 0.15365 0.87854 0.0
C1146 C 0.94391 0.13215 0.87969 0.0
H1147 H 0.00127 0.14551 0.79321 0.0
H1148 H 0.9749 0.15056 0.81061 0.0
H1149 H 0.96584 0.11922 0.87428 0.0
H1150 H 0.91872 0.16873 0.94006 0.0
H1151 H 0.93735 0.15427 0.91482 0.0
H1152 H 0.9248 0.15522 0.83834 0.0
C1153 C 0.98053 0.13896 0.81369 0.0
C1154 C 0.95675 0.12666 0.86589 0.0
C1155 C 0.99574 0.13611 0.80378 0.0
C1156 C 0.91443 0.16452 0.92303 0.0
C1157 C 0.92512 0.15607 0.90858 0.0
C1158 C 0.93344 0.147 0.84618 0.0
C1159 C 0.97328 0.12746 0.82863 0.0
C1160 C 0.95835 0.13153 0.84214 0.0
C1161 C 0.92035 0.15067 0.88605 0.0
C1162 C 0.93239 0.14281 0.87026 0.0
H1163 H 0.0026 0.09865 0.82663 0.0
H1164 H 0.97588 0.10335 0.84321 0.0
H1165 H 0.94692 0.14518 0.81394 0.0
H1166 H 0.88156 0.16451 0.88668 0.0
H1167 H 0.90034 0.14954 0.86136 0.0
C1168 C 0.91062 0.64259 0.64532 0.0
C1169 C 0.91744 0.64808 0.66667 0.0
C1170 C 0.90183 0.65315 0.63084 0.0
C1171 C 0.88151 0.69323 0.63113 0.0
H1172 H 0.89217 0.69395 0.56432 0.0
C1173 C 0.88509 0.74298 0.55265 0.0
C1174 C 0.87136 0.75216 0.55833 0.0
C1175 C 0.88749 0.72781 0.56289 0.0
C1176 C 0.88904 0.69391 0.58294 0.0
H1177 H 0.9199 0.66884 0.68985 0.0
H1178 H 0.90488 0.68711 0.6647 0.0
H1179 H 0.90239 0.6722 0.58927 0.0
H1180 H 0.8487 0.75201 0.57753 0.0
H1181 H 0.85261 0.72535 0.59476 0.0
H1182 H 0.86911 0.71542 0.62535 0.0
C1183 C 0.90608 0.67466 0.65916 0.0
C1184 C 0.89474 0.68132 0.59719 0.0
C1185 C 0.91485 0.66417 0.67353 0.0
C1186 C 0.85953 0.74534 0.57308 0.0
C1187 C 0.86182 0.73008 0.58307 0.0
C1188 C 0.87592 0.70584 0.61697 0.0
C1189 C 0.89961 0.66936 0.63751 0.0
C1190 C 0.89145 0.68112 0.62161 0.0
C1191 C 0.87611 0.72137 0.57882 0.0
C1192 C 0.87999 0.70661 0.59281 0.0
H1193 H 0.91238 0.63025 0.63953 0.0
H1194 H 0.89689 0.64867 0.61435 0.0
H1195 H 0.8785 0.69328 0.64979 0.0
H1196 H 0.89445 0.74789 0.54136 0.0
H1197 H 0.89872 0.72158 0.55933 0.0
C1198 C 0.005 0.11009 0.32516 0.0
C1199 C 0.99857 0.12172 0.30971 0.0
C1200 C 0.02024 0.11228 0.33532 0.0
C1201 C 0.0448 0.12643 0.36874 0.0
H1202 H 0.07917 0.15139 0.33997 0.0
C1203 C 0.08822 0.1645 0.42398 0.0
C1204 C 0.10431 0.16657 0.4167 0.0
C1205 C 0.07731 0.15598 0.40996 0.0
C1206 C 0.06984 0.14416 0.34821 0.0
H1207 H 0.00349 0.14434 0.29176 0.0
H1208 H 0.02973 0.14842 0.30998 0.0
H1209 H 0.05713 0.14135 0.31546 0.0
H1210 H 0.12165 0.16084 0.38918 0.0
H1211 H 0.10253 0.14573 0.3647 0.0
H1212 H 0.0575 0.12917 0.40142 0.0
C1213 C 0.02323 0.13742 0.31397 0.0
C1214 C 0.05707 0.13858 0.3342 0.0
C1215 C 0.00809 0.13512 0.30359 0.0
C1216 C 0.10934 0.15949 0.39529 0.0
C1217 C 0.09836 0.15092 0.3812 0.0
C1218 C 0.0576 0.13189 0.38266 0.0
C1219 C 0.02931 0.12626 0.33052 0.0
C1220 C 0.04413 0.13006 0.34442 0.0
C1221 C 0.08216 0.14922 0.38827 0.0
C1222 C 0.07001 0.14128 0.37274 0.0
H1223 H 0.99806 0.09952 0.33001 0.0
H1224 H 0.02468 0.10322 0.34752 0.0
H1225 H 0.03504 0.12005 0.37738 0.0
H1226 H 0.08389 0.16978 0.44033 0.0
H1227 H 0.06488 0.15519 0.41581 0.0
C1228 C 0.63676 0.25297 0.07821 0.0
C1229 C 0.62858 0.24657 0.05849 0.0
C1230 C 0.63242 0.26802 0.08748 0.0
C1231 C 0.59637 0.2927 0.09286 0.0
H1232 H 0.62496 0.32393 0.12224 0.0
C1233 C 0.57573 0.33343 0.16835 0.0
C1234 C 0.57853 0.35011 0.16622 0.0
C1235 C 0.58294 0.32256 0.15279 0.0
C1236 C 0.61686 0.31539 0.11387 0.0
H1237 H 0.61027 0.25158 0.03199 0.0
H1238 H 0.60274 0.27777 0.0482 0.0
H1239 H 0.63628 0.30219 0.09775 0.0
H1240 H 0.59158 0.36837 0.14644 0.0
H1241 H 0.60453 0.34911 0.11934 0.0
H1242 H 0.57703 0.30546 0.10957 0.0
C1243 C 0.61236 0.27104 0.05665 0.0
C1244 C 0.62332 0.30292 0.10001 0.0
C1245 C 0.61673 0.25604 0.04733 0.0
C1246 C 0.58915 0.35561 0.14851 0.0
C1247 C 0.59658 0.34462 0.13305 0.0
C1248 C 0.58997 0.30498 0.10687 0.0
C1249 C 0.61978 0.27695 0.07728 0.0
C1250 C 0.61314 0.29131 0.08966 0.0
C1251 C 0.59327 0.32803 0.13484 0.0
C1252 C 0.60016 0.31625 0.11789 0.0
H1253 H 0.646 0.24605 0.08718 0.0
H1254 H 0.63831 0.27219 0.10347 0.0
H1255 H 0.5882 0.28385 0.08539 0.0
H1256 H 0.56766 0.32873 0.18176 0.0
H1257 H 0.58036 0.30981 0.15474 0.0
C1258 C 0.41593 0.82964 0.91915 0.0
C1259 C 0.39924 0.83208 0.91632 0.0
C1260 C 0.4269 0.83639 0.9033 0.0
C1261 C 0.43427 0.86847 0.8612 0.0
H1262 H 0.46581 0.8385 0.83579 0.0
C1263 C 0.49696 0.8864 0.82456 0.0
C1264 C 0.5035 0.87729 0.80585 0.0
C1265 C 0.48178 0.88262 0.83387 0.0
C1266 C 0.45696 0.84701 0.84238 0.0
H1267 H 0.38107 0.84417 0.89509 0.0
H1268 H 0.40049 0.85632 0.86746 0.0
H1269 H 0.44412 0.82852 0.8609 0.0
H1270 H 0.49861 0.85789 0.78104 0.0
H1271 H 0.47216 0.85132 0.79733 0.0
H1272 H 0.44755 0.88708 0.84327 0.0
C1273 C 0.40491 0.84899 0.88195 0.0
C1274 C 0.44463 0.8413 0.85693 0.0
C1275 C 0.39384 0.84202 0.89773 0.0
C1276 C 0.49403 0.86507 0.79559 0.0
C1277 C 0.47889 0.86125 0.80497 0.0
C1278 C 0.44677 0.87425 0.84679 0.0
C1279 C 0.42151 0.8459 0.88434 0.0
C1280 C 0.43337 0.85199 0.86687 0.0
C1281 C 0.47285 0.86962 0.82473 0.0
C1282 C 0.4584 0.86359 0.83754 0.0
H1283 H 0.42058 0.82211 0.93327 0.0
H1284 H 0.43965 0.83402 0.90573 0.0
H1285 H 0.42572 0.87694 0.86869 0.0
H1286 H 0.50388 0.89596 0.83281 0.0
H1287 H 0.47751 0.88925 0.84917 0.0
C1288 C 0.88744 0.25612 0.94467 0.0
C1289 C 0.87363 0.2471 0.93885 0.0
C1290 C 0.8901 0.27124 0.93441 0.0
C1291 C 0.87918 0.29354 0.88032 0.0
H1292 H 0.90474 0.32735 0.90941 0.0
C1293 C 0.91733 0.33717 0.82555 0.0
C1294 C 0.9193 0.35324 0.83297 0.0
C1295 C 0.90891 0.32615 0.83949 0.0
C1296 C 0.89736 0.31817 0.9011 0.0
H1297 H 0.85117 0.24745 0.91914 0.0
H1298 H 0.85556 0.274 0.90179 0.0
H1299 H 0.89466 0.30514 0.93361 0.0
H1300 H 0.91352 0.37043 0.86068 0.0
H1301 H 0.89862 0.35108 0.88508 0.0
H1302 H 0.88187 0.30651 0.84786 0.0
C1303 C 0.86461 0.26919 0.91369 0.0
C1304 C 0.89174 0.30532 0.91493 0.0
C1305 C 0.86204 0.25399 0.92375 0.0
C1306 C 0.91224 0.35813 0.85445 0.0
C1307 C 0.90379 0.34703 0.86849 0.0
C1308 C 0.8847 0.3064 0.86658 0.0
C1309 C 0.87893 0.27778 0.91826 0.0
C1310 C 0.88295 0.29261 0.90457 0.0
C1311 C 0.90217 0.33087 0.86125 0.0
C1312 C 0.89428 0.31861 0.87663 0.0
H1313 H 0.89662 0.25116 0.95623 0.0
H1314 H 0.90134 0.27738 0.9382 0.0
H1315 H 0.87259 0.28395 0.8716 0.0
H1316 H 0.9226 0.33295 0.80912 0.0
H1317 H 0.90815 0.31375 0.83352 0.0
C1318 C 0.49838 0.10855 0.66985 0.0
C1319 C 0.50437 0.11914 0.6872 0.0
C1320 C 0.48348 0.11147 0.65905 0.0
C1321 C 0.46003 0.12801 0.6262 0.0
H1322 H 0.42423 0.15003 0.65638 0.0
C1323 C 0.41678 0.16847 0.57422 0.0
C1324 C 0.40036 0.16904 0.58039 0.0
C1325 C 0.42772 0.15964 0.58777 0.0
C1326 C 0.43399 0.14366 0.64771 0.0
H1327 H 0.49895 0.14057 0.7078 0.0
H1328 H 0.47324 0.14588 0.68859 0.0
H1329 H 0.44586 0.13877 0.68063 0.0
H1330 H 0.3825 0.16043 0.60549 0.0
H1331 H 0.4017 0.14484 0.62919 0.0
H1332 H 0.44823 0.13291 0.59332 0.0
C1333 C 0.47987 0.13517 0.68353 0.0
C1334 C 0.44649 0.13737 0.6616 0.0
C1335 C 0.4947 0.13216 0.69448 0.0
C1336 C 0.39507 0.16026 0.60025 0.0
C1337 C 0.40608 0.1514 0.6139 0.0
C1338 C 0.44753 0.13423 0.61237 0.0
C1339 C 0.47429 0.12513 0.66516 0.0
C1340 C 0.45988 0.12983 0.65096 0.0
C1341 C 0.42256 0.15108 0.60788 0.0
C1342 C 0.43459 0.14253 0.62288 0.0
H1343 H 0.50543 0.09829 0.66402 0.0
H1344 H 0.47939 0.10327 0.64536 0.0
H1345 H 0.47017 0.12244 0.61729 0.0
H1346 H 0.42131 0.17509 0.55907 0.0
H1347 H 0.44034 0.15991 0.58283 0.0
C1348 C 0.61955 0.74536 0.44485 0.0
C1349 C 0.63009 0.75628 0.43365 0.0
C1350 C 0.61626 0.73031 0.43459 0.0
C1351 C 0.61273 0.71279 0.37645 0.0
H1352 H 0.61278 0.67094 0.40711 0.0
C1353 C 0.5948 0.65695 0.3235 0.0
C1354 C 0.58529 0.64529 0.33485 0.0
C1355 C 0.60267 0.66886 0.3366 0.0
C1356 C 0.61252 0.68255 0.39834 0.0
H1357 H 0.64608 0.75954 0.40355 0.0
H1358 H 0.64009 0.73351 0.38562 0.0
H1359 H 0.6218 0.69482 0.42902 0.0
H1360 H 0.57699 0.6365 0.36882 0.0
H1361 H 0.59006 0.65778 0.39176 0.0
H1362 H 0.60272 0.70109 0.3463 0.0
C1363 C 0.6344 0.7366 0.40229 0.0
C1364 C 0.61776 0.69618 0.41089 0.0
C1365 C 0.63784 0.7515 0.41263 0.0
C1366 C 0.58436 0.64532 0.35967 0.0
C1367 C 0.59191 0.65752 0.3728 0.0
C1368 C 0.60724 0.69931 0.36409 0.0
C1369 C 0.62329 0.72604 0.41284 0.0
C1370 C 0.61799 0.7114 0.39996 0.0
C1371 C 0.60081 0.66973 0.36136 0.0
C1372 C 0.60713 0.68395 0.37474 0.0
H1373 H 0.61343 0.74863 0.4611 0.0
H1374 H 0.6076 0.72237 0.44302 0.0
H1375 H 0.61249 0.72445 0.36775 0.0
H1376 H 0.59586 0.65707 0.30438 0.0
H1377 H 0.60987 0.67766 0.32715 0.0
C1378 C 0.08452 0.82537 0.08131 0.0
C1379 C 0.1011 0.82736 0.08582 0.0
C1380 C 0.07301 0.83194 0.09649 0.0
C1381 C 0.06509 0.86314 0.14029 0.0
H1382 H 0.03021 0.83448 0.15857 0.0
C1383 C 0.00242 0.8846 0.17262 0.0
C1384 C 0.99425 0.87528 0.18965 0.0
C1385 C 0.01751 0.87977 0.16407 0.0
C1386 C 0.03996 0.8426 0.15398 0.0
H1387 H 0.11854 0.83841 0.10947 0.0
H1388 H 0.0982 0.85019 0.13597 0.0
H1389 H 0.0526 0.82408 0.13523 0.0
H1390 H 0.99606 0.85411 0.21213 0.0
H1391 H 0.02237 0.84572 0.19718 0.0
H1392 H 0.05213 0.88179 0.15859 0.0
C1393 C 0.09426 0.84337 0.12066 0.0
C1394 C 0.05271 0.83667 0.1404 0.0
C1395 C 0.10587 0.83662 0.10552 0.0
C1396 C 0.00194 0.86152 0.19889 0.0
C1397 C 0.01699 0.85666 0.19026 0.0
C1398 C 0.0522 0.86914 0.15375 0.0
C1399 C 0.07773 0.8408 0.1165 0.0
C1400 C 0.06523 0.84693 0.133 0.0
C1401 C 0.02474 0.86548 0.17229 0.0
C1402 C 0.03937 0.85898 0.16042 0.0
H1403 H 0.08035 0.81839 0.06629 0.0
H1404 H 0.06035 0.83 0.09263 0.0
H1405 H 0.07459 0.8713 0.1348 0.0
H1406 H 0.99691 0.89531 0.16519 0.0
H1407 H 0.0231 0.88677 0.15011 0.0
C1408 C 0.63595 0.75506 0.92831 0.0
C1409 C 0.62648 0.74726 0.94553 0.0
C1410 C 0.6315 0.77022 0.91959 0.0
C1411 C 0.62126 0.80494 0.90813 0.0
H1412 H 0.57631 0.80488 0.88898 0.0
C1413 C 0.58803 0.85686 0.85616 0.0
C1414 C 0.57974 0.85121 0.83605 0.0
C1415 C 0.59484 0.84594 0.87232 0.0
C1416 C 0.58885 0.80514 0.89439 0.0
H1417 H 0.60558 0.74988 0.96838 0.0
H1418 H 0.59783 0.7763 0.95311 0.0
H1419 H 0.58652 0.78316 0.91384 0.0
H1420 H 0.57253 0.82962 0.81689 0.0
H1421 H 0.58414 0.81081 0.84507 0.0
H1422 H 0.62355 0.82679 0.88786 0.0
C1423 C 0.6086 0.77058 0.94618 0.0
C1424 C 0.59468 0.79278 0.90881 0.0
C1425 C 0.61309 0.75546 0.95498 0.0
C1426 C 0.57877 0.83446 0.83218 0.0
C1427 C 0.58534 0.82364 0.84839 0.0
C1428 C 0.61535 0.81747 0.89387 0.0
C1429 C 0.61745 0.77788 0.92784 0.0
C1430 C 0.61103 0.79232 0.9154 0.0
C1431 C 0.59322 0.82923 0.86878 0.0
C1432 C 0.59919 0.8174 0.88637 0.0
H1433 H 0.64641 0.74915 0.92074 0.0
H1434 H 0.63853 0.77548 0.90538 0.0
H1435 H 0.6339 0.80493 0.91304 0.0
H1436 H 0.58902 0.86968 0.85963 0.0
H1437 H 0.60091 0.85052 0.88793 0.0
C1438 C 0.49779 0.38642 0.16979 0.0
C1439 C 0.50237 0.38017 0.19192 0.0
C1440 C 0.48221 0.38398 0.16108 0.0
C1441 C 0.44801 0.3557 0.16772 0.0
H1442 H 0.42819 0.3845 0.12206 0.0
C1443 C 0.3911 0.33748 0.11521 0.0
C1444 C 0.39375 0.33812 0.09064 0.0
C1445 C 0.40161 0.3454 0.13078 0.0
C1446 C 0.43353 0.37641 0.13493 0.0
H1447 H 0.49382 0.36735 0.22295 0.0
H1448 H 0.46645 0.36351 0.20808 0.0
H1449 H 0.4517 0.39353 0.14452 0.0
H1450 H 0.40873 0.34844 0.06306 0.0
H1451 H 0.4268 0.36251 0.09015 0.0
H1452 H 0.4299 0.33853 0.15783 0.0
C1453 C 0.47505 0.36989 0.19711 0.0
C1454 C 0.44706 0.38151 0.14769 0.0
C1455 C 0.49073 0.37218 0.20572 0.0
C1456 C 0.40643 0.34767 0.0819 0.0
C1457 C 0.41672 0.35581 0.09741 0.0
C1458 C 0.43435 0.3507 0.15519 0.0
C1459 C 0.4707 0.37538 0.17439 0.0
C1460 C 0.45482 0.37103 0.16369 0.0
C1461 C 0.41471 0.35437 0.12201 0.0
C1462 C 0.42728 0.36081 0.13815 0.0
H1463 H 0.50645 0.3926 0.15865 0.0
H1464 H 0.47947 0.38819 0.14339 0.0
H1465 H 0.4537 0.34718 0.17959 0.0
H1466 H 0.38146 0.33016 0.12245 0.0
H1467 H 0.39977 0.34415 0.14968 0.0
C1468 C 0.887 0.24685 0.45346 0.0
C1469 C 0.8743 0.25548 0.44284 0.0
C1470 C 0.89147 0.23167 0.44487 0.0
C1471 C 0.9064 0.20905 0.40891 0.0
H1472 H 0.87743 0.17623 0.38447 0.0
C1473 C 0.92431 0.16739 0.33326 0.0
C1474 C 0.92248 0.15066 0.33653 0.0
C1475 C 0.91749 0.17829 0.34913 0.0
C1476 C 0.88565 0.18521 0.39148 0.0
H1477 H 0.85558 0.25435 0.41601 0.0
H1478 H 0.86343 0.22792 0.40102 0.0
H1479 H 0.86666 0.19835 0.40874 0.0
H1480 H 0.91145 0.13232 0.35867 0.0
H1481 H 0.89912 0.15165 0.38634 0.0
H1482 H 0.92526 0.19635 0.39097 0.0
C1483 C 0.86991 0.23288 0.416 0.0
C1484 C 0.8795 0.19789 0.40521 0.0
C1485 C 0.86549 0.2481 0.42451 0.0
C1486 C 0.91312 0.14512 0.35569 0.0
C1487 C 0.90606 0.15614 0.37148 0.0
C1488 C 0.91248 0.19654 0.39503 0.0
C1489 C 0.88329 0.22474 0.42558 0.0
C1490 C 0.88979 0.21011 0.4137 0.0
C1491 C 0.90849 0.17281 0.36855 0.0
C1492 C 0.90213 0.1847 0.38575 0.0
H1493 H 0.89398 0.2521 0.46773 0.0
H1494 H 0.90169 0.22558 0.45282 0.0
H1495 H 0.91463 0.21835 0.41492 0.0
H1496 H 0.93138 0.17214 0.31872 0.0
H1497 H 0.91934 0.19109 0.34628 0.0
C1498 C 0.10663 0.66145 0.59895 0.0
C1499 C 0.10162 0.66981 0.57856 0.0
C1500 C 0.09542 0.65301 0.61281 0.0
C1501 C 0.05383 0.63618 0.61136 0.0
H1502 H 0.05506 0.6422 0.6794 0.0
C1503 C 0.00623 0.63571 0.69316 0.0
C1504 C 0.99669 0.62244 0.6865 0.0
C1505 C 0.02104 0.63861 0.68208 0.0
C1506 C 0.05454 0.64039 0.66043 0.0
H1507 H 0.08092 0.67553 0.5565 0.0
H1508 H 0.06153 0.66107 0.58062 0.0
H1509 H 0.07692 0.65281 0.65497 0.0
H1510 H 0.99581 0.60112 0.66425 0.0
H1511 H 0.02181 0.60594 0.64537 0.0
H1512 H 0.03109 0.6246 0.61651 0.0
C1513 C 0.07411 0.66081 0.58583 0.0
C1514 C 0.06717 0.64631 0.64644 0.0
C1515 C 0.08525 0.66923 0.57206 0.0
C1516 C 0.00277 0.61156 0.6696 0.0
C1517 C 0.01764 0.61439 0.65867 0.0
C1518 C 0.0412 0.63033 0.62529 0.0
C1519 C 0.079 0.6527 0.60648 0.0
C1520 C 0.06675 0.64462 0.62168 0.0
C1521 C 0.02672 0.62823 0.66421 0.0
C1522 C 0.0412 0.63266 0.64996 0.0
H1523 H 0.11915 0.66165 0.60445 0.0
H1524 H 0.0996 0.64678 0.62851 0.0
H1525 H 0.05325 0.63444 0.59238 0.0
H1526 H 0.00192 0.64434 0.70611 0.0
H1527 H 0.02759 0.64947 0.68668 0.0
C1528 C 0.63897 0.24675 0.57606 0.0
C1529 C 0.62711 0.25448 0.56235 0.0
C1530 C 0.63607 0.23153 0.58582 0.0
C1531 C 0.60746 0.19663 0.58569 0.0
H1532 H 0.6201 0.19365 0.65164 0.0
C1533 C 0.58855 0.1428 0.64541 0.0
C1534 C 0.58237 0.14734 0.66764 0.0
C1535 C 0.5966 0.15408 0.63117 0.0
C1536 C 0.6165 0.19426 0.63323 0.0
H1537 H 0.60324 0.2519 0.54708 0.0
H1538 H 0.598 0.22557 0.5646 0.0
H1539 H 0.62907 0.21645 0.6281 0.0
H1540 H 0.58031 0.16715 0.69261 0.0
H1541 H 0.59414 0.18666 0.66792 0.0
H1542 H 0.5941 0.17482 0.59139 0.0
C1543 C 0.60966 0.23111 0.56753 0.0
C1544 C 0.62182 0.20725 0.61959 0.0
C1545 C 0.61263 0.24628 0.55756 0.0
C1546 C 0.58488 0.16321 0.6756 0.0
C1547 C 0.59294 0.17441 0.66148 0.0
C1548 C 0.60207 0.18362 0.59941 0.0
C1549 C 0.62118 0.22374 0.58233 0.0
C1550 C 0.61708 0.20882 0.59578 0.0
C1551 C 0.59874 0.17006 0.63898 0.0
C1552 C 0.6062 0.18252 0.62351 0.0
H1553 H 0.65035 0.25265 0.57983 0.0
H1554 H 0.64537 0.22606 0.59665 0.0
H1555 H 0.60377 0.19732 0.56733 0.0
H1556 H 0.58681 0.13066 0.63875 0.0
H1557 H 0.60104 0.15032 0.614 0.0
C1558 C 0.00733 0.3684 0.80681 0.0
C1559 C 0.99766 0.3815 0.81376 0.0
C1560 C 0.02223 0.3656 0.81771 0.0
C1561 C 0.04242 0.37381 0.87452 0.0
H1562 H 0.07797 0.35115 0.84472 0.0
C1563 C 0.10729 0.34141 0.90073 0.0
C1564 C 0.10201 0.33296 0.92091 0.0
C1565 C 0.09632 0.35025 0.88699 0.0
C1566 C 0.06828 0.35772 0.85328 0.0
H1567 H 0.99664 0.4027 0.83625 0.0
H1568 H 0.0228 0.3981 0.85477 0.0
H1569 H 0.05622 0.36203 0.82034 0.0
H1570 H 0.08113 0.32755 0.94274 0.0
H1571 H 0.06216 0.34269 0.91883 0.0
H1572 H 0.05442 0.3695 0.90742 0.0
C1573 C 0.01867 0.38967 0.84143 0.0
C1574 C 0.05571 0.36378 0.83932 0.0
C1575 C 0.0037 0.39237 0.83071 0.0
C1576 C 0.08565 0.3339 0.92734 0.0
C1577 C 0.07475 0.34271 0.91369 0.0
C1578 C 0.055 0.36783 0.88842 0.0
C1579 C 0.02787 0.37595 0.83566 0.0
C1580 C 0.04239 0.37153 0.84984 0.0
C1581 C 0.07989 0.35089 0.89323 0.0
C1582 C 0.06784 0.35929 0.87806 0.0
H1583 H 0.00305 0.35978 0.79382 0.0
H1584 H 0.02886 0.35483 0.81293 0.0
H1585 H 0.03235 0.37956 0.88336 0.0
H1586 H 0.11982 0.34095 0.89529 0.0
H1587 H 0.10068 0.35652 0.87143 0.0
C1588 C 0.87831 0.76232 0.04975 0.0
C1589 C 0.86868 0.75046 0.06067 0.0
C1590 C 0.88063 0.77735 0.06056 0.0
C1591 C 0.88246 0.79394 0.11997 0.0
H1592 H 0.88505 0.83567 0.08914 0.0
C1593 C 0.902 0.8489 0.17344 0.0
C1594 C 0.913 0.85945 0.16264 0.0
C1595 C 0.89345 0.83767 0.15996 0.0
C1596 C 0.8845 0.82409 0.09799 0.0
H1597 H 0.85301 0.74559 0.09063 0.0
H1598 H 0.85712 0.77173 0.1094 0.0
H1599 H 0.87578 0.81211 0.06675 0.0
H1600 H 0.92313 0.86715 0.12916 0.0
H1601 H 0.90873 0.84706 0.10559 0.0
H1602 H 0.89189 0.8054 0.15073 0.0
C1603 C 0.86301 0.76932 0.09265 0.0
C1604 C 0.87912 0.81063 0.08517 0.0
C1605 C 0.86063 0.75435 0.08182 0.0
C1606 C 0.91465 0.85918 0.1379 0.0
C1607 C 0.90634 0.84767 0.12441 0.0
C1608 C 0.888 0.80727 0.13264 0.0
C1609 C 0.87344 0.78077 0.08252 0.0
C1610 C 0.8781 0.79541 0.09606 0.0
C1611 C 0.89603 0.83641 0.13539 0.0
C1612 C 0.88915 0.82255 0.12187 0.0
H1613 H 0.88464 0.75975 0.03341 0.0
H1614 H 0.88877 0.78592 0.05239 0.0
H1615 H 0.88216 0.78231 0.12872 0.0
H1616 H 0.90035 0.849 0.19248 0.0
H1617 H 0.88522 0.8296 0.16899 0.0
C1618 C 0.41751 0.66981 0.42825 0.0
C1619 C 0.40119 0.67057 0.42155 0.0
C1620 C 0.42867 0.66139 0.4145 0.0
C1621 C 0.43599 0.6473 0.35383 0.0
H1622 H 0.47106 0.6242 0.38408 0.0
C1623 C 0.49912 0.61018 0.33133 0.0
C1624 C 0.50595 0.62095 0.31492 0.0
C1625 C 0.48427 0.6136 0.34194 0.0
C1626 C 0.46124 0.63034 0.37522 0.0
H1627 H 0.38376 0.66276 0.39527 0.0
H1628 H 0.40335 0.64794 0.37121 0.0
H1629 H 0.44898 0.63453 0.40795 0.0
H1630 H 0.50205 0.64331 0.29576 0.0
H1631 H 0.47636 0.64944 0.31462 0.0
H1632 H 0.44834 0.64314 0.32105 0.0
C1633 C 0.40747 0.65401 0.38708 0.0
C1634 C 0.44866 0.63646 0.38899 0.0
C1635 C 0.39624 0.66241 0.40094 0.0
C1636 C 0.49714 0.63475 0.30834 0.0
C1637 C 0.48234 0.63823 0.3191 0.0
C1638 C 0.44859 0.64115 0.33999 0.0
C1639 C 0.42384 0.6535 0.39365 0.0
C1640 C 0.43609 0.64534 0.37856 0.0
C1641 C 0.47595 0.62793 0.33655 0.0
C1642 C 0.46155 0.63287 0.35059 0.0
H1643 H 0.42178 0.67595 0.44399 0.0
H1644 H 0.44122 0.66147 0.4199 0.0
H1645 H 0.42652 0.65416 0.34524 0.0
H1646 H 0.50548 0.59934 0.33659 0.0
H1647 H 0.47953 0.60521 0.35491 0.0
C1648 C 0.41781 0.14735 0.14726 0.0
C1649 C 0.42645 0.15236 0.16743 0.0
C1650 C 0.41119 0.15877 0.1317 0.0
C1651 C 0.41755 0.2004 0.11213 0.0
H1652 H 0.37307 0.1998 0.0908 0.0
C1653 C 0.36962 0.24942 0.0762 0.0
C1654 C 0.37934 0.25779 0.05987 0.0
C1655 C 0.37447 0.23444 0.08511 0.0
C1656 C 0.38554 0.20006 0.09652 0.0
H1657 H 0.43441 0.17333 0.18737 0.0
H1658 H 0.42301 0.19302 0.16032 0.0
H1659 H 0.3833 0.17772 0.11557 0.0
H1660 H 0.40124 0.25639 0.03888 0.0
H1661 H 0.40965 0.23026 0.05444 0.0
H1662 H 0.4198 0.22285 0.09386 0.0
C1663 C 0.42148 0.18031 0.1564 0.0
C1664 C 0.3914 0.18739 0.11054 0.0
C1665 C 0.42792 0.16898 0.17199 0.0
C1666 C 0.39352 0.25036 0.05158 0.0
C1667 C 0.39839 0.23541 0.06056 0.0
C1668 C 0.41176 0.21293 0.098 0.0
C1669 C 0.41327 0.17536 0.13592 0.0
C1670 C 0.40736 0.18767 0.11895 0.0
C1671 C 0.38916 0.22751 0.07795 0.0
C1672 C 0.39561 0.21309 0.09041 0.0
H1673 H 0.41644 0.13464 0.14325 0.0
H1674 H 0.40488 0.15464 0.11602 0.0
H1675 H 0.42996 0.20082 0.11815 0.0
H1676 H 0.35858 0.25473 0.08288 0.0
H1677 H 0.36713 0.22873 0.09859 0.0
C1678 C 0.5012 0.61864 0.83631 0.0
C1679 C 0.49625 0.62501 0.81443 0.0
C1680 C 0.51661 0.62186 0.84516 0.0
C1681 C 0.54972 0.65169 0.83929 0.0
H1682 H 0.57085 0.62276 0.88349 0.0
C1683 C 0.60807 0.66912 0.88969 0.0
C1684 C 0.60589 0.66848 0.91436 0.0
C1685 C 0.597 0.66163 0.87452 0.0
C1686 C 0.56513 0.6309 0.87104 0.0
H1687 H 0.50394 0.63905 0.78407 0.0
H1688 H 0.53106 0.64421 0.79911 0.0
H1689 H 0.54737 0.61341 0.8613 0.0
H1690 H 0.59099 0.65875 0.94251 0.0
H1691 H 0.57197 0.64531 0.91605 0.0
H1692 H 0.56759 0.66914 0.84919 0.0
C1693 C 0.52286 0.63712 0.80982 0.0
C1694 C 0.5516 0.62562 0.85844 0.0
C1695 C 0.50734 0.63408 0.80109 0.0
C1696 C 0.59296 0.65948 0.92357 0.0
C1697 C 0.58212 0.65172 0.90845 0.0
C1698 C 0.56342 0.65685 0.8516 0.0
C1699 C 0.52759 0.63136 0.83223 0.0
C1700 C 0.54338 0.63611 0.84295 0.0
C1701 C 0.58379 0.65306 0.88378 0.0
C1702 C 0.57097 0.64666 0.86808 0.0
H1703 H 0.49296 0.61168 0.84713 0.0
H1704 H 0.51959 0.61743 0.86264 0.0
H1705 H 0.54367 0.66023 0.82782 0.0
H1706 H 0.61788 0.67605 0.88211 0.0
H1707 H 0.59855 0.6628 0.85555 0.0
C1708 C 0.09881 0.84498 0.67532 0.0
C1709 C 0.08789 0.85568 0.66467 0.0
C1710 C 0.10733 0.83384 0.66166 0.0
C1711 C 0.11617 0.82063 0.59943 0.0
H1712 H 0.11869 0.77872 0.62973 0.0
C1713 C 0.12268 0.75893 0.55084 0.0
C1714 C 0.13265 0.74726 0.56154 0.0
C1715 C 0.12015 0.7739 0.56172 0.0
C1716 C 0.11832 0.79039 0.6211 0.0
H1717 H 0.07782 0.86372 0.63133 0.0
H1718 H 0.09212 0.84373 0.60742 0.0
H1719 H 0.10891 0.80166 0.65201 0.0
H1720 H 0.14864 0.74268 0.59125 0.0
H1721 H 0.14411 0.76869 0.61018 0.0
H1722 H 0.12486 0.80881 0.56804 0.0
C1723 C 0.09451 0.84418 0.62625 0.0
C1724 C 0.11277 0.80364 0.63393 0.0
C1725 C 0.08626 0.85563 0.63993 0.0
C1726 C 0.14077 0.75129 0.5826 0.0
C1727 C 0.13815 0.76618 0.59351 0.0
C1728 C 0.12155 0.80724 0.58645 0.0
C1729 C 0.10476 0.83278 0.63706 0.0
C1730 C 0.11158 0.81897 0.62333 0.0
C1731 C 0.12745 0.77744 0.58357 0.0
C1732 C 0.12265 0.79198 0.5972 0.0
H1733 H 0.10043 0.84493 0.69436 0.0
H1734 H 0.11553 0.82567 0.67057 0.0
H1735 H 0.11559 0.83225 0.59071 0.0
H1736 H 0.1163 0.75626 0.53457 0.0
H1737 H 0.11178 0.78233 0.5537 0.0
C1738 C 0.89544 0.33523 0.39258 0.0
C1739 C 0.89587 0.33571 0.41742 0.0
C1740 C 0.90716 0.34338 0.37928 0.0
C1741 C 0.94872 0.35944 0.38667 0.0
H1742 H 0.94231 0.37551 0.32287 0.0
C1743 C 1.0005 0.38908 0.33597 0.0
C1744 C 0.00384 0.38198 0.31389 0.0
C1745 C 0.98582 0.3862 0.34736 0.0
C1746 C 0.94422 0.37108 0.3407 0.0
H1747 H 0.90797 0.34608 0.44782 0.0
H1748 H 0.92778 0.36097 0.42478 0.0
H1749 H 0.91914 0.36572 0.34566 0.0
H1750 H 0.99384 0.36726 0.28569 0.0
H1751 H 0.96811 0.36234 0.30561 0.0
H1752 H 0.97371 0.36484 0.38177 0.0
C1753 C 0.91896 0.35374 0.41542 0.0
C1754 C 0.93099 0.36539 0.35373 0.0
C1755 C 0.90751 0.34532 0.42867 0.0
C1756 C 0.9917 0.37285 0.30274 0.0
C1757 C 0.97693 0.37008 0.31408 0.0
C1758 C 0.96182 0.36532 0.37381 0.0
C1759 C 0.91935 0.35241 0.39058 0.0
C1760 C 0.93309 0.35939 0.37687 0.0
C1761 C 0.97408 0.37628 0.33685 0.0
C1762 C 0.95976 0.37109 0.35066 0.0
H1763 H 0.88663 0.32784 0.38348 0.0
H1764 H 0.90709 0.34194 0.36023 0.0
H1765 H 0.951 0.3545 0.40409 0.0
H1766 H 0.0095 0.39627 0.34503 0.0
H1767 H 0.98385 0.39131 0.36478 0.0
C1768 C 0.41349 0.85772 0.35953 0.0
C1769 C 0.41313 0.85723 0.33469 0.0
C1770 C 0.40555 0.84585 0.37281 0.0
C1771 C 0.39058 0.80389 0.36515 0.0
H1772 H 0.37497 0.80948 0.42935 0.0
C1773 C 0.36221 0.7513 0.41561 0.0
C1774 C 0.36971 0.74777 0.43735 0.0
C1775 C 0.36481 0.76611 0.40446 0.0
C1776 C 0.37928 0.8078 0.41141 0.0
H1777 H 0.40313 0.84491 0.30425 0.0
H1778 H 0.38847 0.82489 0.32722 0.0
H1779 H 0.38388 0.83304 0.40666 0.0
H1780 H 0.38488 0.75755 0.4652 0.0
H1781 H 0.38927 0.78354 0.44569 0.0
H1782 H 0.38587 0.77874 0.36982 0.0
C1783 C 0.3955 0.83384 0.33662 0.0
C1784 C 0.38446 0.82126 0.39842 0.0
C1785 C 0.40375 0.84543 0.3234 0.0
C1786 C 0.37899 0.75984 0.44842 0.0
C1787 C 0.38146 0.77475 0.43732 0.0
C1788 C 0.38518 0.79056 0.37794 0.0
C1789 C 0.39683 0.83345 0.36147 0.0
C1790 C 0.3903 0.81946 0.37513 0.0
C1791 C 0.37481 0.77781 0.41488 0.0
C1792 C 0.37958 0.79233 0.40124 0.0
H1793 H 0.42074 0.86666 0.36865 0.0
H1794 H 0.40698 0.84595 0.39186 0.0
H1795 H 0.39543 0.80183 0.34761 0.0
H1796 H 0.3549 0.74237 0.40662 0.0
H1797 H 0.35939 0.76824 0.38728 0.0
C1798 C 1.00009 0.61685 0.16865 0.0
C1799 C 0.00748 0.62588 0.18675 0.0
C1800 C 0.98522 0.62164 0.15924 0.0
C1801 C 0.9625 0.65872 0.1496 0.0
H1802 H 0.9289 0.63015 0.12651 0.0
C1803 C 0.91904 0.678 0.07642 0.0
C1804 C 0.90244 0.6754 0.08003 0.0
C1805 C 0.93043 0.67105 0.09144 0.0
C1806 C 0.93812 0.63827 0.13306 0.0
H1807 H 0.00445 0.64638 0.21026 0.0
H1808 H 0.97853 0.65468 0.19385 0.0
H1809 H 0.95084 0.61927 0.15095 0.0
H1810 H 0.88488 0.66291 0.10186 0.0
H1811 H 0.905 0.65052 0.12806 0.0
H1812 H 0.95008 0.67763 0.13137 0.0
C1813 C 0.98436 0.64403 0.18673 0.0
C1814 C 0.95071 0.63204 0.1469 0.0
C1815 C 0.99919 0.63922 0.1962 0.0
C1816 C 0.89756 0.66518 0.09862 0.0
C1817 C 0.90905 0.65807 0.11358 0.0
C1818 C 0.95006 0.66488 0.13564 0.0
C1819 C 0.97745 0.63558 0.16767 0.0
C1820 C 0.96315 0.64219 0.15506 0.0
C1821 C 0.92558 0.66121 0.11037 0.0
C1822 C 0.9379 0.65469 0.12688 0.0
H1823 H 0.00609 0.60647 0.16102 0.0
H1824 H 0.98027 0.61492 0.14448 0.0
H1825 H 0.97197 0.66684 0.15534 0.0
H1826 H 0.92328 0.68572 0.06226 0.0
H1827 H 0.94311 0.67345 0.0883 0.0
C1828 C 0.12116 0.24264 0.94661 0.0
C1829 C 0.1306 0.25452 0.93538 0.0
C1830 C 0.11808 0.22789 0.93538 0.0
C1831 C 0.11295 0.21252 0.87595 0.0
H1832 H 0.11366 0.16987 0.90415 0.0
C1833 C 0.09328 0.1581 0.82114 0.0
C1834 C 0.08389 0.14629 0.83239 0.0
C1835 C 0.10157 0.16964 0.83439 0.0
C1836 C 0.11323 0.18171 0.89607 0.0
H1837 H 0.145 0.25974 0.90418 0.0
H1838 H 0.13943 0.23414 0.88462 0.0
H1839 H 0.12344 0.1931 0.92683 0.0
H1840 H 0.07624 0.13685 0.86631 0.0
H1841 H 0.09009 0.15748 0.8896 0.0
H1842 H 0.10204 0.20164 0.8458 0.0
C1843 C 0.13438 0.2363 0.90203 0.0
C1844 C 0.11892 0.19497 0.90905 0.0
C1845 C 0.1376 0.25095 0.9133 0.0
C1846 C 0.08348 0.1458 0.85722 0.0
C1847 C 0.09148 0.15762 0.87054 0.0
C1848 C 0.10706 0.19939 0.86318 0.0
C1849 C 0.12424 0.22481 0.91266 0.0
C1850 C 0.11885 0.21049 0.89904 0.0
C1851 C 0.10029 0.16996 0.85925 0.0
C1852 C 0.10715 0.18376 0.87297 0.0
H1853 H 0.11565 0.24497 0.96365 0.0
H1854 H 0.11017 0.21926 0.94393 0.0
H1855 H 0.11243 0.2244 0.86798 0.0
H1856 H 0.09398 0.15861 0.80199 0.0
H1857 H 0.10866 0.17856 0.82503 0.0
C1858 C 0.60484 0.33261 0.61177 0.0
C1859 C 0.60544 0.33463 0.58711 0.0
C1860 C 0.59281 0.34028 0.62509 0.0
C1861 C 0.55201 0.35782 0.6159 0.0
H1862 H 0.55548 0.36948 0.6822 0.0
C1863 C 0.4995 0.38782 0.66453 0.0
C1864 C 0.49432 0.37976 0.68509 0.0
C1865 C 0.51446 0.3843 0.65442 0.0
C1866 C 0.55439 0.36625 0.66368 0.0
H1867 H 0.59498 0.34723 0.55726 0.0
H1868 H 0.57473 0.36139 0.58049 0.0
H1869 H 0.57952 0.36042 0.66069 0.0
H1870 H 0.50132 0.3624 0.71197 0.0
H1871 H 0.52764 0.35638 0.69429 0.0
H1872 H 0.527 0.3638 0.61881 0.0
C1873 C 0.58291 0.3533 0.58957 0.0
C1874 C 0.56812 0.361 0.65135 0.0
C1875 C 0.59464 0.34534 0.57624 0.0
C1876 C 0.5049 0.36877 0.69607 0.0
C1877 C 0.51999 0.36536 0.68603 0.0
C1878 C 0.53844 0.36328 0.62807 0.0
C1879 C 0.58135 0.35034 0.61402 0.0
C1880 C 0.56709 0.35667 0.62726 0.0
C1881 C 0.52468 0.37277 0.66474 0.0
C1882 C 0.53945 0.3675 0.65207 0.0
H1883 H 0.61298 0.3243 0.62051 0.0
H1884 H 0.59199 0.33761 0.64381 0.0
H1885 H 0.5505 0.35413 0.59765 0.0
H1886 H 0.49174 0.39643 0.65565 0.0
H1887 H 0.51787 0.3903 0.63813 0.0
C1888 C 0.06852 0.44716 0.29551 0.0
C1889 C 0.06653 0.43394 0.28019 0.0
C1890 C 0.07018 0.46279 0.2865 0.0
C1891 C 0.06011 0.48681 0.23363 0.0
H1892 H 0.08798 0.51887 0.26245 0.0
C1893 C 0.0659 0.55076 0.1948 0.0
C1894 C 0.06564 0.5637 0.2109 0.0
C1895 C 0.0676 0.5349 0.20279 0.0
C1896 C 0.08004 0.51009 0.25433 0.0
H1897 H 0.06534 0.4267 0.24333 0.0
H1898 H 0.06843 0.45396 0.2276 0.0
H1899 H 0.08842 0.49111 0.27699 0.0
H1900 H 0.06737 0.57013 0.24803 0.0
H1901 H 0.07018 0.54238 0.26204 0.0
H1902 H 0.05157 0.50575 0.2112 0.0
C1903 C 0.06844 0.45227 0.24661 0.0
C1904 C 0.0803 0.49417 0.26264 0.0
C1905 C 0.06678 0.43663 0.25562 0.0
C1906 C 0.06754 0.56043 0.23516 0.0
C1907 C 0.06923 0.54453 0.24318 0.0
C1908 C 0.05986 0.50269 0.22533 0.0
C1909 C 0.06989 0.46558 0.26195 0.0
C1910 C 0.07027 0.48235 0.25246 0.0
C1911 C 0.06905 0.53155 0.2271 0.0
C1912 C 0.06976 0.51455 0.23563 0.0
H1913 H 0.06836 0.44552 0.31453 0.0
H1914 H 0.0711 0.47276 0.29884 0.0
H1915 H 0.05199 0.47811 0.22568 0.0
H1916 H 0.06457 0.55285 0.17597 0.0
H1917 H 0.0677 0.52523 0.18989 0.0
C1918 C 0.8129 0.81691 0.5106 0.0
C1919 C 0.81616 0.81557 0.53494 0.0
C1920 C 0.79705 0.81902 0.50255 0.0
C1921 C 0.75498 0.81163 0.52117 0.0
H1922 H 0.74433 0.83812 0.4668 0.0
C1923 C 0.68928 0.81847 0.48873 0.0
C1924 C 0.68688 0.81715 0.46417 0.0
C1925 C 0.70485 0.8202 0.49801 0.0
C1926 C 0.74712 0.8306 0.48193 0.0
H1927 H 0.8054 0.81608 0.56996 0.0
H1928 H 0.77788 0.82 0.55596 0.0
H1929 H 0.77198 0.83773 0.48175 0.0
H1930 H 0.69893 0.81711 0.43007 0.0
H1931 H 0.72602 0.81999 0.44623 0.0
H1932 H 0.73023 0.80429 0.52119 0.0
C1933 C 0.7875 0.8191 0.54304 0.0
C1934 C 0.76298 0.83036 0.49049 0.0
C1935 C 0.80331 0.81695 0.55107 0.0
C1936 C 0.70034 0.8181 0.44908 0.0
C1937 C 0.71589 0.81985 0.45835 0.0
C1938 C 0.73915 0.81187 0.51264 0.0
C1939 C 0.78412 0.81987 0.51867 0.0
C1940 C 0.76713 0.82078 0.51012 0.0
C1941 C 0.71837 0.82068 0.48294 0.0
C1942 C 0.73504 0.82125 0.4928 0.0
H1943 H 0.82251 0.81585 0.4977 0.0
H1944 H 0.79488 0.81942 0.48365 0.0
H1945 H 0.75778 0.80388 0.53606 0.0
H1946 H 0.67916 0.81783 0.50085 0.0
H1947 H 0.70631 0.82103 0.51703 0.0
C1948 C 0.43409 0.45143 0.7004 0.0
C1949 C 0.43479 0.43797 0.71554 0.0
C1950 C 0.43255 0.46701 0.70961 0.0
C1951 C 0.44056 0.49028 0.76394 0.0
H1952 H 0.41488 0.52322 0.73295 0.0
C1953 C 0.43464 0.55419 0.80307 0.0
C1954 C 0.43595 0.56718 0.78719 0.0
C1955 C 0.43289 0.53841 0.79474 0.0
C1956 C 0.4222 0.51419 0.7417 0.0
H1957 H 0.43395 0.43033 0.75224 0.0
H1958 H 0.43112 0.45754 0.76832 0.0
H1959 H 0.41451 0.4956 0.71786 0.0
H1960 H 0.436 0.57381 0.75005 0.0
H1961 H 0.43309 0.54622 0.73547 0.0
H1962 H 0.44844 0.50884 0.78756 0.0
C1963 C 0.43198 0.45604 0.74931 0.0
C1964 C 0.42199 0.49836 0.73307 0.0
C1965 C 0.43349 0.44043 0.74009 0.0
C1966 C 0.435 0.56407 0.76276 0.0
C1967 C 0.43326 0.54826 0.75441 0.0
C1968 C 0.44078 0.50609 0.77255 0.0
C1969 C 0.4317 0.46954 0.7342 0.0
C1970 C 0.43124 0.48622 0.744 0.0
C1971 C 0.43242 0.5352 0.7703 0.0
C1972 C 0.43168 0.51827 0.76149 0.0
H1973 H 0.43507 0.44997 0.6814 0.0
H1974 H 0.43256 0.47712 0.69746 0.0
H1975 H 0.44806 0.48132 0.77254 0.0
H1976 H 0.43523 0.55615 0.82201 0.0
H1977 H 0.43198 0.52868 0.80749 0.0
C1978 C 0.813 0.18476 0.98862 0.0
C1979 C 0.81639 0.18568 0.96427 0.0
C1980 C 0.79709 0.18301 0.99656 0.0
C1981 C 0.75522 0.1907 0.97721 0.0
H1982 H 0.74388 0.16492 0.03201 0.0
C1983 C 0.68919 0.18447 0.00832 0.0
C1984 C 0.68653 0.18607 0.03277 0.0
C1985 C 0.70486 0.18262 0.99946 0.0
C1986 C 0.74687 0.17225 0.01676 0.0
H1987 H 0.80579 0.18483 0.92916 0.0
H1988 H 0.77816 0.18155 0.94298 0.0
H1989 H 0.77166 0.16489 0.01756 0.0
H1990 H 0.6982 0.18655 0.06716 0.0
H1991 H 0.72546 0.18347 0.05172 0.0
H1992 H 0.73054 0.19824 0.97655 0.0
C1993 C 0.78772 0.1825 0.95598 0.0
C1994 C 0.7628 0.17224 0.0085 0.0
C1995 C 0.8036 0.18428 0.94805 0.0
C1996 C 0.69982 0.18534 0.04821 0.0
C1997 C 0.71546 0.18347 0.03937 0.0
C1998 C 0.73932 0.1907 0.98545 0.0
C1999 C 0.78423 0.18213 0.98033 0.0
C2000 C 0.76719 0.18155 0.98869 0.0
C2001 C 0.71821 0.18232 0.01486 0.0
C2002 C 0.73496 0.18157 0.00542 0.0
H2003 H 0.82258 0.18584 0.00157 0.0
H2004 H 0.79482 0.18291 0.01544 0.0
H2005 H 0.75822 0.19824 0.96218 0.0
H2006 H 0.67921 0.18493 0.99595 0.0
H2007 H 0.70653 0.18154 0.98051 0.0
C2008 C 0.93351 0.44965 0.80335 0.0
C2009 C 0.93517 0.43695 0.78702 0.0
C2010 C 0.93155 0.46553 0.79555 0.0
C2011 C 0.92107 0.49051 0.74325 0.0
H2012 H 0.94718 0.52282 0.77489 0.0
C2013 C 0.93419 0.55317 0.70279 0.0
C2014 C 0.93526 0.56655 0.71802 0.0
C2015 C 0.93221 0.53761 0.7119 0.0
C2016 C 0.93959 0.51403 0.76609 0.0
H2017 H 0.93556 0.43093 0.74966 0.0
H2018 H 0.93226 0.45869 0.73602 0.0
H2019 H 0.94721 0.49518 0.78938 0.0
H2020 H 0.93455 0.57413 0.75476 0.0
H2021 H 0.93092 0.54697 0.77066 0.0
H2022 H 0.91364 0.50938 0.71973 0.0
C2023 C 0.93233 0.45634 0.75488 0.0
C2024 C 0.93961 0.49815 0.7744 0.0
C2025 C 0.93429 0.44043 0.7627 0.0
C2026 C 0.93383 0.56407 0.74255 0.0
C2027 C 0.93185 0.54849 0.75166 0.0
C2028 C 0.92103 0.50642 0.73494 0.0
C2029 C 0.93121 0.46912 0.77122 0.0
C2030 C 0.93046 0.48616 0.76297 0.0
C2031 C 0.93125 0.53505 0.73646 0.0
C2032 C 0.93041 0.51835 0.74613 0.0
H2033 H 0.93404 0.44739 0.82222 0.0
H2034 H 0.93045 0.47504 0.8086 0.0
H2035 H 0.91371 0.48162 0.73425 0.0
H2036 H 0.93526 0.55464 0.6838 0.0
H2037 H 0.93199 0.52754 0.69968 0.0
C2038 C 0.30389 0.18311 0.54644 0.0
C2039 C 0.31719 0.18483 0.53119 0.0
C2040 C 0.28831 0.18125 0.53735 0.0
C2041 C 0.26448 0.19001 0.48377 0.0
H2042 H 0.23236 0.16295 0.51408 0.0
C2043 C 0.20027 0.18381 0.44588 0.0
C2044 C 0.18749 0.18484 0.46218 0.0
C2045 C 0.21616 0.182 0.4537 0.0
C2046 C 0.24117 0.17064 0.50552 0.0
H2047 H 0.32461 0.18533 0.49438 0.0
H2048 H 0.29744 0.18185 0.47848 0.0
H2049 H 0.26014 0.16277 0.52856 0.0
H2050 H 0.18135 0.18432 0.4995 0.0
H2051 H 0.20915 0.18128 0.51318 0.0
H2052 H 0.24553 0.19804 0.46093 0.0
C2053 C 0.29902 0.18223 0.49751 0.0
C2054 C 0.25709 0.17054 0.51381 0.0
C2055 C 0.31462 0.18412 0.50662 0.0
C2056 C 0.19092 0.18355 0.48648 0.0
C2057 C 0.20685 0.18173 0.49432 0.0
C2058 C 0.2486 0.19009 0.47547 0.0
C2059 C 0.28565 0.18102 0.51276 0.0
C2060 C 0.26892 0.18033 0.50315 0.0
C2061 C 0.21968 0.18119 0.47802 0.0
C2062 C 0.23672 0.1805 0.48634 0.0
H2063 H 0.30543 0.18363 0.56547 0.0
H2064 H 0.27829 0.18054 0.54962 0.0
H2065 H 0.27318 0.19793 0.47541 0.0
H2066 H 0.19805 0.18467 0.42702 0.0
H2067 H 0.22573 0.18136 0.44067 0.0
C2068 C 0.5682 0.54995 0.30502 0.0
C2069 C 0.5669 0.56279 0.28886 0.0
C2070 C 0.56994 0.53409 0.29701 0.0
C2071 C 0.58029 0.50925 0.24442 0.0
H2072 H 0.55389 0.47706 0.27579 0.0
C2073 C 0.56681 0.44659 0.20386 0.0
C2074 C 0.56569 0.43324 0.21913 0.0
C2075 C 0.56888 0.46216 0.21291 0.0
C2076 C 0.56156 0.48581 0.26705 0.0
H2077 H 0.56688 0.56905 0.25158 0.0
H2078 H 0.56976 0.54133 0.23758 0.0
H2079 H 0.55404 0.50466 0.29043 0.0
H2080 H 0.56642 0.42573 0.25589 0.0
H2081 H 0.5702 0.45289 0.27169 0.0
H2082 H 0.58759 0.49038 0.2208 0.0
C2083 C 0.56961 0.54355 0.25648 0.0
C2084 C 0.56164 0.50168 0.27545 0.0
C2085 C 0.56788 0.55945 0.2645 0.0
C2086 C 0.56718 0.43575 0.24364 0.0
C2087 C 0.56924 0.45134 0.2527 0.0
C2088 C 0.58021 0.49336 0.23601 0.0
C2089 C 0.57039 0.53064 0.27264 0.0
C2090 C 0.57092 0.51363 0.26417 0.0
C2091 C 0.56987 0.46476 0.23747 0.0
C2092 C 0.57075 0.48147 0.24712 0.0
H2093 H 0.56759 0.5521 0.32391 0.0
H2094 H 0.5708 0.52448 0.30996 0.0
H2095 H 0.58775 0.5181 0.23551 0.0
H2096 H 0.56569 0.44509 0.18488 0.0
H2097 H 0.56914 0.47221 0.20066 0.0
C2098 C 0.18803 0.81776 0.01091 0.0
C2099 C 0.18538 0.81602 0.03536 0.0
C2100 C 0.20367 0.8199 0.00207 0.0
C2101 C 0.24569 0.83052 0.01954 0.0
H2102 H 0.25708 0.80526 0.96423 0.0
C2103 C 0.31185 0.81848 0.99086 0.0
C2104 C 0.31522 0.81799 0.96648 0.0
C2105 C 0.29594 0.82009 0.99891 0.0
C2106 C 0.25407 0.8126 0.97948 0.0
H2107 H 0.19707 0.81567 0.06974 0.0
H2108 H 0.22428 0.81923 0.05433 0.0
H2109 H 0.22943 0.80494 0.97869 0.0
H2110 H 0.30458 0.81944 0.93144 0.0
H2111 H 0.27695 0.82243 0.94545 0.0
H2112 H 0.27046 0.83795 0.02049 0.0
C2113 C 0.21428 0.81912 0.04197 0.0
C2114 C 0.23818 0.81243 0.98777 0.0
C2115 C 0.19866 0.81699 0.0508 0.0
C2116 C 0.30241 0.81967 0.95035 0.0
C2117 C 0.28653 0.82128 0.95838 0.0
C2118 C 0.26161 0.83068 0.01124 0.0
C2119 C 0.21702 0.82035 0.01746 0.0
C2120 C 0.23379 0.8213 0.00799 0.0
C2121 C 0.28306 0.82124 0.98274 0.0
C2122 C 0.26602 0.82165 0.99117 0.0
H2123 H 0.17807 0.81714 0.99853 0.0
H2124 H 0.20531 0.82107 0.98312 0.0
H2125 H 0.24269 0.83767 0.03498 0.0
H2126 H 0.32144 0.81718 0.00376 0.0
H2127 H 0.29369 0.81987 0.01779 0.0
C2128 C 0.56623 0.94707 0.79806 0.0
C2129 C 0.56592 0.93374 0.78266 0.0
C2130 C 0.56833 0.9627 0.78926 0.0
C2131 C 0.5625 0.98639 0.73481 0.0
H2132 H 0.58695 0.01903 0.76853 0.0
C2133 C 0.56885 0.0509 0.69814 0.0
C2134 C 0.56675 0.06359 0.71437 0.0
C2135 C 0.57074 0.03503 0.70604 0.0
C2136 C 0.57998 0.01008 0.75899 0.0
H2137 H 0.56814 0.92634 0.74597 0.0
H2138 H 0.57196 0.95362 0.73062 0.0
H2139 H 0.58685 0.99124 0.78295 0.0
H2140 H 0.56548 0.0696 0.75169 0.0
H2141 H 0.56861 0.04187 0.76549 0.0
H2142 H 0.55539 0.0052 0.71111 0.0
C2143 C 0.57034 0.952 0.7495 0.0
C2144 C 0.57993 0.99415 0.76725 0.0
C2145 C 0.56826 0.93635 0.75831 0.0
C2146 C 0.56711 0.06011 0.73872 0.0
C2147 C 0.56897 0.04421 0.74664 0.0
C2148 C 0.56254 0.0023 0.72658 0.0
C2149 C 0.57017 0.96539 0.76483 0.0
C2150 C 0.57108 0.98214 0.75535 0.0
C2151 C 0.57054 0.03143 0.73037 0.0
C2152 C 0.57118 0.01437 0.73865 0.0
H2153 H 0.56446 0.9455 0.81692 0.0
H2154 H 0.56796 0.97272 0.80156 0.0
H2155 H 0.55532 0.97753 0.72545 0.0
H2156 H 0.56873 0.05316 0.67926 0.0
H2157 H 0.57221 0.02554 0.69303 0.0
C2158 C 0.31169 0.31701 0.01436 0.0
C2159 C 0.31503 0.31454 0.03848 0.0
C2160 C 0.29573 0.31855 0.00647 0.0
C2161 C 0.25404 0.30801 0.02396 0.0
H2162 H 0.24197 0.33754 0.97375 0.0
C2163 C 0.18779 0.31517 0.99438 0.0
C2164 C 0.18504 0.31536 0.96983 0.0
C2165 C 0.20346 0.31666 0.00338 0.0
C2166 C 0.24518 0.32916 0.98769 0.0
H2167 H 0.30425 0.31227 0.07334 0.0
H2168 H 0.27656 0.31517 0.05967 0.0
H2169 H 0.26976 0.33718 0.98817 0.0
H2170 H 0.19655 0.31774 0.9355 0.0
H2171 H 0.22383 0.32023 0.95117 0.0
H2172 H 0.22955 0.29987 0.02336 0.0
C2173 C 0.2862 0.31562 0.04674 0.0
C2174 C 0.26111 0.32893 0.99593 0.0
C2175 C 0.30211 0.31405 0.0546 0.0
C2176 C 0.19824 0.31756 0.95452 0.0
C2177 C 0.21389 0.31908 0.96351 0.0
C2178 C 0.23813 0.30825 0.01576 0.0
C2179 C 0.28278 0.31766 0.02254 0.0
C2180 C 0.26576 0.3183 0.0141 0.0
C2181 C 0.21672 0.3184 0.98803 0.0
C2182 C 0.23351 0.31877 0.99744 0.0
H2183 H 0.32136 0.31741 0.00148 0.0
H2184 H 0.29354 0.31996 0.98768 0.0
H2185 H 0.25724 0.29945 0.03767 0.0
H2186 H 0.17789 0.31355 0.00667 0.0
H2187 H 0.2052 0.31633 0.02238 0.0
C2188 C 0.93434 0.06544 0.25767 0.0
C2189 C 0.93539 0.0679 0.28224 0.0
C2190 C 0.93262 0.04986 0.24844 0.0
C2191 C 0.92176 0.00771 0.26418 0.0
H2192 H 0.94979 0.99682 0.2116 0.0
C2193 C 0.93475 0.94175 0.2357 0.0
C2194 C 0.9366 0.93858 0.21141 0.0
C2195 C 0.93298 0.95762 0.24385 0.0
C2196 C 0.94168 0.99969 0.22604 0.0
H2197 H 0.93485 0.05596 0.31642 0.0
H2198 H 0.93191 0.02884 0.30034 0.0
H2199 H 0.94918 0.02438 0.22639 0.0
H2200 H 0.93748 0.94954 0.17655 0.0
H2201 H 0.93412 0.97709 0.19068 0.0
H2202 H 0.91439 0.98293 0.26394 0.0
C2203 C 0.93231 0.03894 0.28818 0.0
C2204 C 0.94133 0.01552 0.23452 0.0
C2205 C 0.93408 0.0545 0.2974 0.0
C2206 C 0.9362 0.95156 0.19541 0.0
C2207 C 0.93437 0.96739 0.20352 0.0
C2208 C 0.92208 0.99185 0.25564 0.0
C2209 C 0.93186 0.0364 0.26358 0.0
C2210 C 0.93145 0.01972 0.2538 0.0
C2211 C 0.93297 0.97065 0.22787 0.0
C2212 C 0.93212 0.98762 0.23654 0.0
H2213 H 0.93527 0.07551 0.2455 0.0
H2214 H 0.93207 0.04834 0.22941 0.0
H2215 H 0.91388 0.01059 0.27889 0.0
H2216 H 0.93504 0.93202 0.2485 0.0
H2217 H 0.93209 0.95969 0.26274 0.0
C2218 C 0.3127 0.68414 0.491 0.0
C2219 C 0.31648 0.68463 0.46675 0.0
C2220 C 0.29671 0.68213 0.49848 0.0
C2221 C 0.25513 0.68879 0.47766 0.0
H2222 H 0.24326 0.66319 0.5324 0.0
C2223 C 0.18874 0.68285 0.50702 0.0
C2224 C 0.18576 0.68427 0.53142 0.0
C2225 C 0.20451 0.68089 0.49859 0.0
C2226 C 0.24639 0.67048 0.51717 0.0
H2227 H 0.30648 0.68276 0.43134 0.0
H2228 H 0.2787 0.67913 0.44437 0.0
H2229 H 0.27126 0.66343 0.51887 0.0
H2230 H 0.19696 0.68426 0.56614 0.0
H2231 H 0.22439 0.68107 0.55147 0.0
H2232 H 0.23041 0.69613 0.47617 0.0
C2233 C 0.28804 0.68055 0.45762 0.0
C2234 C 0.26244 0.67061 0.50942 0.0
C2235 C 0.30399 0.68253 0.45017 0.0
C2236 C 0.19882 0.68318 0.54723 0.0
C2237 C 0.21457 0.68126 0.53881 0.0
C2238 C 0.23912 0.68869 0.48542 0.0
C2239 C 0.28416 0.6806 0.48185 0.0
C2240 C 0.26701 0.67985 0.48965 0.0
C2241 C 0.21765 0.68034 0.51436 0.0
C2242 C 0.23455 0.67963 0.50538 0.0
H2243 H 0.32203 0.68574 0.50423 0.0
H2244 H 0.29413 0.68236 0.51727 0.0
H2245 H 0.25827 0.69626 0.46261 0.0
H2246 H 0.17894 0.68357 0.49437 0.0
H2247 H 0.2064 0.67995 0.47966 0.0
C2248 C 0.43549 0.06418 0.24073 0.0
C2249 C 0.43657 0.06766 0.21643 0.0
C2250 C 0.43321 0.0483 0.24851 0.0
C2251 C 0.43981 0.00634 0.22887 0.0
H2252 H 0.41381 0.99553 0.28369 0.0
C2253 C 0.4327 0.94046 0.26057 0.0
C2254 C 0.43413 0.9379 0.28507 0.0
C2255 C 0.43109 0.95611 0.25151 0.0
C2256 C 0.4212 0.99837 0.26843 0.0
H2257 H 0.4354 0.05727 0.18121 0.0
H2258 H 0.43121 0.02968 0.19474 0.0
H2259 H 0.41433 0.0233 0.26922 0.0
H2260 H 0.43457 0.94975 0.31932 0.0
H2261 H 0.43192 0.97696 0.30356 0.0
H2262 H 0.44691 0.98153 0.22827 0.0
C2263 C 0.43243 0.03915 0.20783 0.0
C2264 C 0.4215 0.01429 0.26015 0.0
C2265 C 0.43473 0.05501 0.20007 0.0
C2266 C 0.43348 0.95128 0.30035 0.0
C2267 C 0.43186 0.9669 0.29131 0.0
C2268 C 0.43951 0.99045 0.23715 0.0
C2269 C 0.43194 0.03555 0.23215 0.0
C2270 C 0.43091 0.0185 0.24037 0.0
C2271 C 0.43086 0.96954 0.26676 0.0
C2272 C 0.43032 0.98628 0.25716 0.0
H2273 H 0.4369 0.07365 0.2538 0.0
H2274 H 0.43303 0.04595 0.26737 0.0
H2275 H 0.44741 0.00919 0.21385 0.0
H2276 H 0.43311 0.93041 0.24832 0.0
H2277 H 0.43012 0.95769 0.23253 0.0
C2278 C 0.81482 0.68589 0.00575 0.0
C2279 C 0.8177 0.68635 0.03027 0.0
C2280 C 0.79912 0.68403 0.99702 0.0
C2281 C 0.7574 0.67203 0.01384 0.0
H2282 H 0.74524 0.70073 0.96265 0.0
C2283 C 0.69083 0.68494 0.98815 0.0
C2284 C 0.68725 0.68712 0.96404 0.0
C2285 C 0.70683 0.68306 0.99568 0.0
C2286 C 0.74846 0.69244 0.9767 0.0
H2287 H 0.80639 0.68464 0.06482 0.0
H2288 H 0.77906 0.68152 0.04961 0.0
H2289 H 0.77303 0.70034 0.97649 0.0
H2290 H 0.69763 0.6884 0.92882 0.0
H2291 H 0.72541 0.68489 0.94186 0.0
H2292 H 0.73271 0.66431 0.01421 0.0
C2293 C 0.78892 0.68245 0.0371 0.0
C2294 C 0.76443 0.69221 0.98464 0.0
C2295 C 0.80461 0.68432 0.04583 0.0
C2296 C 0.69996 0.68687 0.94756 0.0
C2297 C 0.71592 0.68496 0.95505 0.0
C2298 C 0.7414 0.67226 0.00587 0.0
C2299 C 0.78594 0.68258 0.01259 0.0
C2300 C 0.7691 0.68208 0.0034 0.0
C2301 C 0.7196 0.6833 0.97924 0.0
C2302 C 0.73671 0.68253 0.98728 0.0
H2303 H 0.82463 0.68736 0.99327 0.0
H2304 H 0.79728 0.68392 0.97803 0.0
H2305 H 0.76062 0.66395 0.02814 0.0
H2306 H 0.68132 0.68511 0.00131 0.0
H2307 H 0.70922 0.68196 0.01445 0.0
C2308 C 0.06746 0.05148 0.80192 0.0
C2309 C 0.06589 0.06422 0.78566 0.0
C2310 C 0.0694 0.03561 0.79405 0.0
C2311 C 0.07963 0.01074 0.74135 0.0
H2312 H 0.05429 0.97818 0.77375 0.0
C2313 C 0.06632 0.94792 0.70141 0.0
C2314 C 0.06604 0.93452 0.71668 0.0
C2315 C 0.06819 0.96353 0.7104 0.0
C2316 C 0.06165 0.98705 0.76472 0.0
H2317 H 0.06559 0.07033 0.74834 0.0
H2318 H 0.06876 0.0426 0.73456 0.0
H2319 H 0.05416 0.00583 0.78822 0.0
H2320 H 0.06797 0.92698 0.75333 0.0
H2321 H 0.07132 0.95425 0.76903 0.0
H2322 H 0.08685 0.99194 0.71755 0.0
C2323 C 0.06869 0.04489 0.75343 0.0
C2324 C 0.06158 0.00294 0.77302 0.0
C2325 C 0.06681 0.06079 0.76133 0.0
C2326 C 0.06809 0.93705 0.7411 0.0
C2327 C 0.06991 0.95268 0.75011 0.0
C2328 C 0.07967 0.99484 0.73301 0.0
C2329 C 0.06975 0.03206 0.7697 0.0
C2330 C 0.07048 0.01502 0.76136 0.0
C2331 C 0.06979 0.96612 0.73488 0.0
C2332 C 0.07058 0.98283 0.74449 0.0
H2333 H 0.06691 0.0537 0.8208 0.0
H2334 H 0.07048 0.02608 0.80707 0.0
H2335 H 0.08681 0.01968 0.73215 0.0
H2336 H 0.06476 0.94642 0.6825 0.0
H2337 H 0.06786 0.9736 0.6982 0.0
C2338 C 0.69882 0.31614 0.55006 0.0
C2339 C 0.68531 0.3154 0.53503 0.0
C2340 C 0.71433 0.31811 0.54075 0.0
C2341 C 0.73747 0.31092 0.48627 0.0
H2342 H 0.77014 0.33687 0.51741 0.0
C2343 C 0.80159 0.3167 0.44783 0.0
C2344 C 0.81448 0.31557 0.46394 0.0
C2345 C 0.78575 0.31856 0.45589 0.0
C2346 C 0.76119 0.32947 0.5086 0.0
H2347 H 0.67746 0.31668 0.49845 0.0
H2348 H 0.70455 0.32022 0.48219 0.0
H2349 H 0.74251 0.33692 0.53245 0.0
H2350 H 0.82086 0.31595 0.50117 0.0
H2351 H 0.79319 0.31897 0.51527 0.0
H2352 H 0.75614 0.30319 0.46272 0.0
C2353 C 0.70315 0.31908 0.50118 0.0
C2354 C 0.74535 0.32952 0.51721 0.0
C2355 C 0.68761 0.31715 0.51051 0.0
C2356 C 0.81121 0.31681 0.48829 0.0
C2357 C 0.79534 0.31863 0.49637 0.0
C2358 C 0.7533 0.31084 0.4777 0.0
C2359 C 0.71671 0.31936 0.51618 0.0
C2360 C 0.73333 0.32015 0.50625 0.0
C2361 C 0.78239 0.31928 0.48027 0.0
C2362 C 0.7654 0.32002 0.48885 0.0
H2363 H 0.69749 0.31482 0.56904 0.0
H2364 H 0.7245 0.31811 0.55279 0.0
H2365 H 0.72859 0.30334 0.47764 0.0
H2366 H 0.80369 0.3159 0.42894 0.0
H2367 H 0.77612 0.31933 0.44298 0.0
loop_
_geom_bond_atom_site_label_1
_geom_bond_atom_site_label_2
_geom_bond_distance
_geom_bond_site_symmetry_2
_ccdc_geom_bond_type
O0 Cd1 2.223 . S
O0 C8 1.315 . S
Cd1 O0 2.223 . S
Cd1 O4 2.297 . S
Cd1 O5 2.439 . S
Cd1 O11 2.240 . S
Cd2 O3 2.240 . S
Cd2 O10 2.223 . S
Cd2 O12 2.297 . S
Cd2 O13 2.439 . S
O3 Cd2 2.240 . S
O3 C8 1.279 . S
O4 Cd1 2.297 . S
O4 C6 1.247 . S
O5 Cd1 2.439 . S
O5 C6 1.208 . S
C6 O4 1.247 . S
C6 O5 1.208 . S
C7 O12 1.247 . S
C7 O13 1.208 . S
C8 O0 1.315 . S
C8 O3 1.279 . S
C9 O10 1.315 . S
C9 O11 1.279 . S
O10 Cd2 2.223 . S
O10 C9 1.315 . S
O11 Cd1 2.240 . S
O11 C9 1.279 . S
O12 Cd2 2.297 . S
O12 C7 1.247 . S
O13 Cd2 2.439 . S
O13 C7 1.208 . S
O14 Cd15 2.223 . S
O14 C22 1.315 . S
Cd15 O14 2.223 . S
Cd15 O18 2.297 . S
Cd15 O19 2.439 . S
Cd15 O25 2.240 . S
Cd16 O17 2.240 . S
Cd16 O24 2.223 . S
Cd16 O26 2.297 . S
Cd16 O27 2.439 . S
O17 Cd16 2.240 . S
O17 C22 1.279 . S
O18 Cd15 2.297 . S
O18 C20 1.247 . S
O19 Cd15 2.439 . S
O19 C20 1.208 . S
C20 O18 1.247 . S
C20 O19 1.208 . S
C21 O26 1.247 . S
C21 O27 1.208 . S
C22 O14 1.315 . S
C22 O17 1.279 . S
C23 O24 1.315 . S
C23 O25 1.279 . S
O24 Cd16 2.223 . S
O24 C23 1.315 . S
O25 Cd15 2.240 . S
O25 C23 1.279 . S
O26 Cd16 2.297 . S
O26 C21 1.247 . S
O27 Cd16 2.439 . S
O27 C21 1.208 . S
O28 Cd29 2.223 . S
O28 C36 1.315 . S
Cd29 O28 2.223 . S
Cd29 O32 2.297 . S
Cd29 O33 2.439 . S
Cd29 O39 2.240 . S
Cd30 O31 2.240 . S
Cd30 O38 2.223 . S
Cd30 O40 2.297 . S
Cd30 O41 2.439 . S
O31 Cd30 2.240 . S
O31 C36 1.279 . S
O32 Cd29 2.297 . S
O32 C34 1.247 . S
O33 Cd29 2.439 . S
O33 C34 1.208 . S
C34 O32 1.247 . S
C34 O33 1.208 . S
C35 O40 1.247 . S
C35 O41 1.208 . S
C36 O28 1.315 . S
C36 O31 1.279 . S
C37 O38 1.315 . S
C37 O39 1.279 . S
O38 Cd30 2.223 . S
O38 C37 1.315 . S
O39 Cd29 2.240 . S
O39 C37 1.279 . S
O40 Cd30 2.297 . S
O40 C35 1.247 . S
O41 Cd30 2.439 . S
O41 C35 1.208 . S
O42 Cd43 2.223 . S
O42 C50 1.315 . S
Cd43 O42 2.223 . S
Cd43 O46 2.297 . S
Cd43 O47 2.439 . S
Cd43 O53 2.240 . S
Cd44 O45 2.240 . S
Cd44 O52 2.223 . S
Cd44 O54 2.297 1_554 S
Cd44 O55 2.439 1_554 S
O45 Cd44 2.240 . S
O45 C50 1.279 . S
O46 Cd43 2.297 . S
O46 C48 1.247 . S
O47 Cd43 2.439 . S
O47 C48 1.208 . S
C48 O46 1.247 . S
C48 O47 1.208 . S
C49 O54 1.247 . S
C49 O55 1.208 . S
C50 O42 1.315 . S
C50 O45 1.279 . S
C51 O52 1.315 . S
C51 O53 1.279 . S
O52 Cd44 2.223 . S
O52 C51 1.315 . S
O53 Cd43 2.240 . S
O53 C51 1.279 . S
O54 Cd44 2.297 1_556 S
O54 C49 1.247 . S
O55 Cd44 2.439 1_556 S
O55 C49 1.208 . S
O56 Cd57 2.223 . S
O56 C64 1.315 . S
Cd57 O56 2.223 . S
Cd57 O60 2.297 . S
Cd57 O61 2.439 . S
Cd57 O67 2.240 . S
Cd58 O59 2.240 . S
Cd58 O66 2.223 . S
Cd58 O68 2.297 . S
Cd58 O69 2.439 . S
O59 Cd58 2.240 . S
O59 C64 1.279 . S
O60 Cd57 2.297 . S
O60 C62 1.247 . S
O61 Cd57 2.439 . S
O61 C62 1.208 . S
C62 O60 1.247 . S
C62 O61 1.208 . S
C63 O68 1.247 . S
C63 O69 1.208 . S
C64 O56 1.315 . S
C64 O59 1.279 . S
C65 O66 1.315 . S
C65 O67 1.279 . S
O66 Cd58 2.223 . S
O66 C65 1.315 . S
O67 Cd57 2.240 . S
O67 C65 1.279 . S
O68 Cd58 2.297 . S
O68 C63 1.247 . S
O69 Cd58 2.439 . S
O69 C63 1.208 . S
O70 Cd71 2.223 . S
O70 C78 1.315 . S
Cd71 O70 2.223 . S
Cd71 O74 2.297 . S
Cd71 O75 2.439 . S
Cd71 O81 2.240 . S
Cd72 O73 2.240 . S
Cd72 O80 2.223 . S
Cd72 O82 2.297 . S
Cd72 O83 2.439 . S
O73 Cd72 2.240 . S
O73 C78 1.279 . S
O74 Cd71 2.297 . S
O74 C76 1.247 . S
O75 Cd71 2.439 . S
O75 C76 1.208 . S
C76 O74 1.247 . S
C76 O75 1.208 . S
C77 O82 1.247 . S
C77 O83 1.208 . S
C78 O70 1.315 . S
C78 O73 1.279 . S
C79 O80 1.315 . S
C79 O81 1.279 . S
O80 Cd72 2.223 . S
O80 C79 1.315 . S
O81 Cd71 2.240 . S
O81 C79 1.279 . S
O82 Cd72 2.297 . S
O82 C77 1.247 . S
O83 Cd72 2.439 . S
O83 C77 1.208 . S
O84 Cd85 2.223 . S
O84 C92 1.315 . S
Cd85 O84 2.223 . S
Cd85 O88 2.297 . S
Cd85 O89 2.439 . S
Cd85 O95 2.240 . S
Cd86 O87 2.240 . S
Cd86 O94 2.223 . S
Cd86 O96 2.297 . S
Cd86 O97 2.439 . S
O87 Cd86 2.240 . S
O87 C92 1.279 . S
O88 Cd85 2.297 . S
O88 C90 1.247 . S
O89 Cd85 2.439 . S
O89 C90 1.208 . S
C90 O88 1.247 . S
C90 O89 1.208 . S
C91 O96 1.247 . S
C91 O97 1.208 . S
C92 O84 1.315 . S
C92 O87 1.279 . S
C93 O94 1.315 . S
C93 O95 1.279 . S
O94 Cd86 2.223 . S
O94 C93 1.315 . S
O95 Cd85 2.240 . S
O95 C93 1.279 . S
O96 Cd86 2.297 . S
O96 C91 1.247 . S
O97 Cd86 2.439 . S
O97 C91 1.208 . S
O98 Cd99 2.223 . S
O98 C106 1.315 . S
Cd99 O98 2.223 . S
Cd99 O102 2.297 . S
Cd99 O103 2.439 . S
Cd99 O109 2.240 . S
Cd100 O101 2.240 . S
Cd100 O108 2.223 . S
Cd100 O110 2.297 1_556 S
Cd100 O111 2.439 1_556 S
O101 Cd100 2.240 . S
O101 C106 1.279 . S
O102 Cd99 2.297 . S
O102 C104 1.247 . S
O103 Cd99 2.439 . S
O103 C104 1.208 . S
C104 O102 1.247 . S
C104 O103 1.208 . S
C105 O110 1.247 . S
C105 O111 1.208 . S
C106 O98 1.315 . S
C106 O101 1.279 . S
C107 O108 1.315 . S
C107 O109 1.279 . S
O108 Cd100 2.223 . S
O108 C107 1.315 . S
O109 Cd99 2.240 . S
O109 C107 1.279 . S
O110 Cd100 2.297 1_554 S
O110 C105 1.247 . S
O111 Cd100 2.439 1_554 S
O111 C105 1.208 . S
O112 Cd113 2.223 . S
O112 C120 1.315 . S
Cd113 O112 2.223 . S
Cd113 O116 2.297 . S
Cd113 O117 2.439 . S
Cd113 O123 2.240 . S
Cd114 O115 2.240 . S
Cd114 O122 2.223 . S
Cd114 O124 2.297 . S
Cd114 O125 2.439 . S
O115 Cd114 2.240 . S
O115 C120 1.279 . S
O116 Cd113 2.297 . S
O116 C118 1.247 . S
O117 Cd113 2.439 . S
O117 C118 1.208 . S
C118 O116 1.247 . S
C118 O117 1.208 . S
C119 O124 1.247 . S
C119 O125 1.208 . S
C120 O112 1.315 . S
C120 O115 1.279 . S
C121 O122 1.315 . S
C121 O123 1.279 . S
O122 Cd114 2.223 . S
O122 C121 1.315 . S
O123 Cd113 2.240 . S
O123 C121 1.279 . S
O124 Cd114 2.297 . S
O124 C119 1.247 . S
O125 Cd114 2.439 . S
O125 C119 1.208 . S
O126 Cd127 2.223 . S
O126 C134 1.315 . S
Cd127 O126 2.223 . S
Cd127 O130 2.297 . S
Cd127 O131 2.439 . S
Cd127 O137 2.240 . S
Cd128 O129 2.240 . S
Cd128 O136 2.223 . S
Cd128 O138 2.297 . S
Cd128 O139 2.439 . S
O129 Cd128 2.240 . S
O129 C134 1.279 . S
O130 Cd127 2.297 . S
O130 C132 1.247 . S
O131 Cd127 2.439 . S
O131 C132 1.208 . S
C132 O130 1.247 . S
C132 O131 1.208 . S
C133 O138 1.247 . S
C133 O139 1.208 . S
C134 O126 1.315 . S
C134 O129 1.279 . S
C135 O136 1.315 . S
C135 O137 1.279 . S
O136 Cd128 2.223 . S
O136 C135 1.315 . S
O137 Cd127 2.240 . S
O137 C135 1.279 . S
O138 Cd128 2.297 . S
O138 C133 1.247 . S
O139 Cd128 2.439 . S
O139 C133 1.208 . S
O140 Cd141 2.223 . S
O140 C148 1.315 . S
Cd141 O140 2.223 . S
Cd141 O144 2.297 . S
Cd141 O145 2.439 . S
Cd141 O151 2.240 . S
Cd142 O143 2.240 . S
Cd142 O150 2.223 . S
Cd142 O152 2.297 . S
Cd142 O153 2.439 . S
O143 Cd142 2.240 . S
O143 C148 1.279 . S
O144 Cd141 2.297 . S
O144 C146 1.247 . S
O145 Cd141 2.439 . S
O145 C146 1.208 . S
C146 O144 1.247 . S
C146 O145 1.208 . S
C147 O152 1.247 . S
C147 O153 1.208 . S
C148 O140 1.315 . S
C148 O143 1.279 . S
C149 O150 1.315 . S
C149 O151 1.279 . S
O150 Cd142 2.223 . S
O150 C149 1.315 . S
O151 Cd141 2.240 . S
O151 C149 1.279 . S
O152 Cd142 2.297 . S
O152 C147 1.247 . S
O153 Cd142 2.439 . S
O153 C147 1.208 . S
O154 Cd155 2.223 . S
O154 C162 1.315 . S
Cd155 O154 2.223 . S
Cd155 O158 2.297 . S
Cd155 O159 2.439 . S
Cd155 O165 2.240 . S
Cd156 O157 2.240 . S
Cd156 O164 2.223 . S
Cd156 O166 2.297 1_556 S
Cd156 O167 2.439 1_556 S
O157 Cd156 2.240 . S
O157 C162 1.279 . S
O158 Cd155 2.297 . S
O158 C160 1.247 . S
O159 Cd155 2.439 . S
O159 C160 1.208 . S
C160 O158 1.247 . S
C160 O159 1.208 . S
C161 O166 1.247 . S
C161 O167 1.208 . S
C162 O154 1.315 . S
C162 O157 1.279 . S
C163 O164 1.315 . S
C163 O165 1.279 . S
O164 Cd156 2.223 . S
O164 C163 1.315 . S
O165 Cd155 2.240 . S
O165 C163 1.279 . S
O166 Cd156 2.297 1_554 S
O166 C161 1.247 . S
O167 Cd156 2.439 1_554 S
O167 C161 1.208 . S
O168 Cd169 2.223 . S
O168 C176 1.315 . S
Cd169 O168 2.223 . S
Cd169 O172 2.297 . S
Cd169 O173 2.439 . S
Cd169 O179 2.240 . S
Cd170 O171 2.240 . S
Cd170 O178 2.223 . S
Cd170 O180 2.297 . S
Cd170 O181 2.439 . S
O171 Cd170 2.240 . S
O171 C176 1.279 . S
O172 Cd169 2.297 . S
O172 C174 1.247 . S
O173 Cd169 2.439 . S
O173 C174 1.208 . S
C174 O172 1.247 . S
C174 O173 1.208 . S
C175 O180 1.247 . S
C175 O181 1.208 . S
C176 O168 1.315 . S
C176 O171 1.279 . S
C177 O178 1.315 . S
C177 O179 1.279 . S
O178 Cd170 2.223 . S
O178 C177 1.315 . S
O179 Cd169 2.240 . S
O179 C177 1.279 . S
O180 Cd170 2.297 . S
O180 C175 1.247 . S
O181 Cd170 2.439 . S
O181 C175 1.208 . S
O182 Cd183 2.223 . S
O182 C190 1.315 . S
Cd183 O182 2.223 . S
Cd183 O186 2.297 . S
Cd183 O187 2.439 . S
Cd183 O193 2.240 . S
Cd184 O185 2.240 . S
Cd184 O192 2.223 . S
Cd184 O194 2.297 . S
Cd184 O195 2.439 . S
O185 Cd184 2.240 . S
O185 C190 1.279 . S
O186 Cd183 2.297 . S
O186 C188 1.247 . S
O187 Cd183 2.439 . S
O187 C188 1.208 . S
C188 O186 1.247 . S
C188 O187 1.208 . S
C189 O194 1.247 . S
C189 O195 1.208 . S
C190 O182 1.315 . S
C190 O185 1.279 . S
C191 O192 1.315 . S
C191 O193 1.279 . S
O192 Cd184 2.223 . S
O192 C191 1.315 . S
O193 Cd183 2.240 . S
O193 C191 1.279 . S
O194 Cd184 2.297 . S
O194 C189 1.247 . S
O195 Cd184 2.439 . S
O195 C189 1.208 . S
O196 Cd197 2.223 . S
O196 C204 1.315 . S
Cd197 O196 2.223 . S
Cd197 O200 2.297 . S
Cd197 O201 2.439 . S
Cd197 O207 2.240 . S
Cd198 O199 2.240 . S
Cd198 O206 2.223 . S
Cd198 O208 2.297 . S
Cd198 O209 2.439 . S
O199 Cd198 2.240 . S
O199 C204 1.279 . S
O200 Cd197 2.297 . S
O200 C202 1.247 . S
O201 Cd197 2.439 . S
O201 C202 1.208 . S
C202 O200 1.247 . S
C202 O201 1.208 . S
C203 O208 1.247 . S
C203 O209 1.208 . S
C204 O196 1.315 . S
C204 O199 1.279 . S
C205 O206 1.315 . S
C205 O207 1.279 . S
O206 Cd198 2.223 . S
O206 C205 1.315 . S
O207 Cd197 2.240 . S
O207 C205 1.279 . S
O208 Cd198 2.297 . S
O208 C203 1.247 . S
O209 Cd198 2.439 . S
O209 C203 1.208 . S
O210 Cd211 2.223 . S
O210 C218 1.315 . S
Cd211 O210 2.223 . S
Cd211 O214 2.297 . S
Cd211 O215 2.439 . S
Cd211 O221 2.240 . S
Cd212 O213 2.240 . S
Cd212 O220 2.223 . S
Cd212 O222 2.297 1_554 S
Cd212 O223 2.439 1_554 S
O213 Cd212 2.240 . S
O213 C218 1.279 . S
O214 Cd211 2.297 . S
O214 C216 1.247 . S
O215 Cd211 2.439 . S
O215 C216 1.208 . S
C216 O214 1.247 . S
C216 O215 1.208 . S
C217 O222 1.247 . S
C217 O223 1.208 . S
C218 O210 1.315 . S
C218 O213 1.279 . S
C219 O220 1.315 . S
C219 O221 1.279 . S
O220 Cd212 2.223 . S
O220 C219 1.315 . S
O221 Cd211 2.240 . S
O221 C219 1.279 . S
O222 Cd212 2.297 1_556 S
O222 C217 1.247 . S
O223 Cd212 2.439 1_556 S
O223 C217 1.208 . S
O224 Cd225 2.223 . S
O224 C232 1.315 . S
Cd225 O224 2.223 . S
Cd225 O228 2.297 . S
Cd225 O229 2.439 . S
Cd225 O235 2.240 . S
Cd226 O227 2.240 . S
Cd226 O234 2.223 . S
Cd226 O236 2.297 . S
Cd226 O237 2.439 . S
O227 Cd226 2.240 . S
O227 C232 1.279 . S
O228 Cd225 2.297 . S
O228 C230 1.247 . S
O229 Cd225 2.439 . S
O229 C230 1.208 . S
C230 O228 1.247 . S
C230 O229 1.208 . S
C231 O236 1.247 . S
C231 O237 1.208 . S
C232 O224 1.315 . S
C232 O227 1.279 . S
C233 O234 1.315 . S
C233 O235 1.279 . S
O234 Cd226 2.223 . S
O234 C233 1.315 . S
O235 Cd225 2.240 . S
O235 C233 1.279 . S
O236 Cd226 2.297 . S
O236 C231 1.247 . S
O237 Cd226 2.439 . S
O237 C231 1.208 . S
O238 Cd239 2.223 . S
O238 C246 1.315 . S
Cd239 O238 2.223 . S
Cd239 O242 2.297 . S
Cd239 O243 2.439 . S
Cd239 O249 2.240 . S
Cd240 O241 2.240 . S
Cd240 O248 2.223 . S
Cd240 O250 2.297 1_554 S
Cd240 O251 2.439 1_554 S
O241 Cd240 2.240 . S
O241 C246 1.279 . S
O242 Cd239 2.297 . S
O242 C244 1.247 . S
O243 Cd239 2.439 . S
O243 C244 1.208 . S
C244 O242 1.247 . S
C244 O243 1.208 . S
C245 O250 1.247 . S
C245 O251 1.208 . S
C246 O238 1.315 . S
C246 O241 1.279 . S
C247 O248 1.315 . S
C247 O249 1.279 . S
O248 Cd240 2.223 . S
O248 C247 1.315 . S
O249 Cd239 2.240 . S
O249 C247 1.279 . S
O250 Cd240 2.297 1_556 S
O250 C245 1.247 . S
O251 Cd240 2.439 1_556 S
O251 C245 1.208 . S
O252 Cd253 2.223 . S
O252 C260 1.315 . S
Cd253 O252 2.223 . S
Cd253 O256 2.297 . S
Cd253 O257 2.439 . S
Cd253 O263 2.240 . S
Cd254 O255 2.240 . S
Cd254 O262 2.223 . S
Cd254 O264 2.297 . S
Cd254 O265 2.439 . S
O255 Cd254 2.240 . S
O255 C260 1.279 . S
O256 Cd253 2.297 . S
O256 C258 1.247 . S
O257 Cd253 2.439 . S
O257 C258 1.208 . S
C258 O256 1.247 . S
C258 O257 1.208 . S
C259 O264 1.247 . S
C259 O265 1.208 . S
C260 O252 1.315 . S
C260 O255 1.279 . S
C261 O262 1.315 . S
C261 O263 1.279 . S
O262 Cd254 2.223 . S
O262 C261 1.315 . S
O263 Cd253 2.240 . S
O263 C261 1.279 . S
O264 Cd254 2.297 . S
O264 C259 1.247 . S
O265 Cd254 2.439 . S
O265 C259 1.208 . S
O266 Cd267 2.223 . S
O266 C274 1.315 . S
Cd267 O266 2.223 . S
Cd267 O270 2.297 . S
Cd267 O271 2.439 . S
Cd267 O277 2.240 . S
Cd268 O269 2.240 . S
Cd268 O276 2.223 . S
Cd268 O278 2.297 . S
Cd268 O279 2.439 . S
O269 Cd268 2.240 . S
O269 C274 1.279 . S
O270 Cd267 2.297 . S
O270 C272 1.247 . S
O271 Cd267 2.439 . S
O271 C272 1.208 . S
C272 O270 1.247 . S
C272 O271 1.208 . S
C273 O278 1.247 . S
C273 O279 1.208 . S
C274 O266 1.315 . S
C274 O269 1.279 . S
C275 O276 1.315 . S
C275 O277 1.279 . S
O276 Cd268 2.223 . S
O276 C275 1.315 . S
O277 Cd267 2.240 . S
O277 C275 1.279 . S
O278 Cd268 2.297 . S
O278 C273 1.247 . S
O279 Cd268 2.439 . S
O279 C273 1.208 . S
O280 Cd281 2.223 . S
O280 C288 1.315 . S
Cd281 O280 2.223 . S
Cd281 O284 2.297 . S
Cd281 O285 2.439 . S
Cd281 O291 2.240 . S
Cd282 O283 2.240 . S
Cd282 O290 2.223 . S
Cd282 O292 2.297 . S
Cd282 O293 2.439 . S
O283 Cd282 2.240 . S
O283 C288 1.279 . S
O284 Cd281 2.297 . S
O284 C286 1.247 . S
O285 Cd281 2.439 . S
O285 C286 1.208 . S
C286 O284 1.247 . S
C286 O285 1.208 . S
C287 O292 1.247 . S
C287 O293 1.208 . S
C288 O280 1.315 . S
C288 O283 1.279 . S
C289 O290 1.315 . S
C289 O291 1.279 . S
O290 Cd282 2.223 . S
O290 C289 1.315 . S
O291 Cd281 2.240 . S
O291 C289 1.279 . S
O292 Cd282 2.297 . S
O292 C287 1.247 . S
O293 Cd282 2.439 . S
O293 C287 1.208 . S
O294 Cd295 2.223 . S
O294 C302 1.315 . S
Cd295 O294 2.223 . S
Cd295 O298 2.297 . S
Cd295 O299 2.439 . S
Cd295 O305 2.240 . S
Cd296 O297 2.240 . S
Cd296 O304 2.223 . S
Cd296 O306 2.297 1_556 S
Cd296 O307 2.439 1_556 S
O297 Cd296 2.240 . S
O297 C302 1.279 . S
O298 Cd295 2.297 . S
O298 C300 1.247 . S
O299 Cd295 2.439 . S
O299 C300 1.208 . S
C300 O298 1.247 . S
C300 O299 1.208 . S
C301 O306 1.247 . S
C301 O307 1.208 . S
C302 O294 1.315 . S
C302 O297 1.279 . S
C303 O304 1.315 . S
C303 O305 1.279 . S
O304 Cd296 2.223 . S
O304 C303 1.315 . S
O305 Cd295 2.240 . S
O305 C303 1.279 . S
O306 Cd296 2.297 1_554 S
O306 C301 1.247 . S
O307 Cd296 2.439 1_554 S
O307 C301 1.208 . S
O308 Cd309 2.223 . S
O308 C316 1.315 . S
Cd309 O308 2.223 . S
Cd309 O312 2.297 . S
Cd309 O313 2.439 . S
Cd309 O319 2.240 . S
Cd310 O311 2.240 . S
Cd310 O318 2.223 . S
Cd310 O320 2.297 . S
Cd310 O321 2.439 . S
O311 Cd310 2.240 . S
O311 C316 1.279 . S
O312 Cd309 2.297 . S
O312 C314 1.247 . S
O313 Cd309 2.439 . S
O313 C314 1.208 . S
C314 O312 1.247 . S
C314 O313 1.208 . S
C315 O320 1.247 . S
C315 O321 1.208 . S
C316 O308 1.315 . S
C316 O311 1.279 . S
C317 O318 1.315 . S
C317 O319 1.279 . S
O318 Cd310 2.223 . S
O318 C317 1.315 . S
O319 Cd309 2.240 . S
O319 C317 1.279 . S
O320 Cd310 2.297 . S
O320 C315 1.247 . S
O321 Cd310 2.439 . S
O321 C315 1.208 . S
O322 Cd323 2.223 . S
O322 C330 1.315 . S
Cd323 O322 2.223 . S
Cd323 O326 2.297 . S
Cd323 O327 2.439 . S
Cd323 O333 2.240 . S
Cd324 O325 2.240 . S
Cd324 O332 2.223 . S
Cd324 O334 2.297 . S
Cd324 O335 2.439 . S
O325 Cd324 2.240 . S
O325 C330 1.279 . S
O326 Cd323 2.297 . S
O326 C328 1.247 . S
O327 Cd323 2.439 . S
O327 C328 1.208 . S
C328 O326 1.247 . S
C328 O327 1.208 . S
C329 O334 1.247 . S
C329 O335 1.208 . S
C330 O322 1.315 . S
C330 O325 1.279 . S
C331 O332 1.315 . S
C331 O333 1.279 . S
O332 Cd324 2.223 . S
O332 C331 1.315 . S
O333 Cd323 2.240 . S
O333 C331 1.279 . S
O334 Cd324 2.297 . S
O334 C329 1.247 . S
O335 Cd324 2.439 . S
O335 C329 1.208 . S
O336 Cd337 2.223 . S
O336 C344 1.315 . S
Cd337 O336 2.223 . S
Cd337 O340 2.297 . S
Cd337 O341 2.439 . S
Cd337 O347 2.240 . S
Cd338 O339 2.240 . S
Cd338 O346 2.223 . S
Cd338 O348 2.297 . S
Cd338 O349 2.439 . S
O339 Cd338 2.240 . S
O339 C344 1.279 . S
O340 Cd337 2.297 . S
O340 C342 1.247 . S
O341 Cd337 2.439 . S
O341 C342 1.208 . S
C342 O340 1.247 . S
C342 O341 1.208 . S
C343 O348 1.247 . S
C343 O349 1.208 . S
C344 O336 1.315 . S
C344 O339 1.279 . S
C345 O346 1.315 . S
C345 O347 1.279 . S
O346 Cd338 2.223 . S
O346 C345 1.315 . S
O347 Cd337 2.240 . S
O347 C345 1.279 . S
O348 Cd338 2.297 . S
O348 C343 1.247 . S
O349 Cd338 2.439 . S
O349 C343 1.208 . S
O350 Cd351 2.223 . S
O350 C358 1.315 . S
Cd351 O350 2.223 . S
Cd351 O354 2.297 . S
Cd351 O355 2.439 . S
Cd351 O361 2.240 . S
Cd352 O353 2.240 . S
Cd352 O360 2.223 . S
Cd352 O362 2.297 1_556 S
Cd352 O363 2.439 1_556 S
O353 Cd352 2.240 . S
O353 C358 1.279 . S
O354 Cd351 2.297 . S
O354 C356 1.247 . S
O355 Cd351 2.439 . S
O355 C356 1.208 . S
C356 O354 1.247 . S
C356 O355 1.208 . S
C357 O362 1.247 . S
C357 O363 1.208 . S
C358 O350 1.315 . S
C358 O353 1.279 . S
C359 O360 1.315 . S
C359 O361 1.279 . S
O360 Cd352 2.223 . S
O360 C359 1.315 . S
O361 Cd351 2.240 . S
O361 C359 1.279 . S
O362 Cd352 2.297 1_554 S
O362 C357 1.247 . S
O363 Cd352 2.439 1_554 S
O363 C357 1.208 . S
O364 Cd365 2.223 . S
O364 C372 1.315 . S
Cd365 O364 2.223 . S
Cd365 O368 2.297 . S
Cd365 O369 2.439 . S
Cd365 O375 2.240 . S
Cd366 O367 2.240 . S
Cd366 O374 2.223 . S
Cd366 O376 2.297 . S
Cd366 O377 2.439 . S
O367 Cd366 2.240 . S
O367 C372 1.279 . S
O368 Cd365 2.297 . S
O368 C370 1.247 . S
O369 Cd365 2.439 . S
O369 C370 1.208 . S
C370 O368 1.247 . S
C370 O369 1.208 . S
C371 O376 1.247 . S
C371 O377 1.208 . S
C372 O364 1.315 . S
C372 O367 1.279 . S
C373 O374 1.315 . S
C373 O375 1.279 . S
O374 Cd366 2.223 . S
O374 C373 1.315 . S
O375 Cd365 2.240 . S
O375 C373 1.279 . S
O376 Cd366 2.297 . S
O376 C371 1.247 . S
O377 Cd366 2.439 . S
O377 C371 1.208 . S
O378 Cd379 2.223 . S
O378 C386 1.315 . S
Cd379 O378 2.223 . S
Cd379 O382 2.297 . S
Cd379 O383 2.439 . S
Cd379 O389 2.240 . S
Cd380 O381 2.240 . S
Cd380 O388 2.223 . S
Cd380 O390 2.297 . S
Cd380 O391 2.439 . S
O381 Cd380 2.240 . S
O381 C386 1.279 . S
O382 Cd379 2.297 . S
O382 C384 1.247 . S
O383 Cd379 2.439 . S
O383 C384 1.208 . S
C384 O382 1.247 . S
C384 O383 1.208 . S
C385 O390 1.247 . S
C385 O391 1.208 . S
C386 O378 1.315 . S
C386 O381 1.279 . S
C387 O388 1.315 . S
C387 O389 1.279 . S
O388 Cd380 2.223 . S
O388 C387 1.315 . S
O389 Cd379 2.240 . S
O389 C387 1.279 . S
O390 Cd380 2.297 . S
O390 C385 1.247 . S
O391 Cd380 2.439 . S
O391 C385 1.208 . S
O392 Cd393 2.223 . S
O392 C400 1.315 . S
Cd393 O392 2.223 . S
Cd393 O396 2.297 . S
Cd393 O397 2.439 . S
Cd393 O403 2.240 . S
Cd394 O395 2.240 . S
Cd394 O402 2.223 . S
Cd394 O404 2.297 . S
Cd394 O405 2.439 . S
O395 Cd394 2.240 . S
O395 C400 1.279 . S
O396 Cd393 2.297 . S
O396 C398 1.247 . S
O397 Cd393 2.439 . S
O397 C398 1.208 . S
C398 O396 1.247 . S
C398 O397 1.208 . S
C399 O404 1.247 . S
C399 O405 1.208 . S
C400 O392 1.315 . S
C400 O395 1.279 . S
C401 O402 1.315 . S
C401 O403 1.279 . S
O402 Cd394 2.223 . S
O402 C401 1.315 . S
O403 Cd393 2.240 . S
O403 C401 1.279 . S
O404 Cd394 2.297 . S
O404 C399 1.247 . S
O405 Cd394 2.439 . S
O405 C399 1.208 . S
O406 Cd407 2.223 . S
O406 C414 1.315 . S
Cd407 O406 2.223 . S
Cd407 O410 2.297 . S
Cd407 O411 2.439 . S
Cd407 O417 2.240 . S
Cd408 O409 2.240 . S
Cd408 O416 2.223 . S
Cd408 O418 2.297 1_554 S
Cd408 O419 2.439 1_554 S
O409 Cd408 2.240 . S
O409 C414 1.279 . S
O410 Cd407 2.297 . S
O410 C412 1.247 . S
O411 Cd407 2.439 . S
O411 C412 1.208 . S
C412 O410 1.247 . S
C412 O411 1.208 . S
C413 O418 1.247 . S
C413 O419 1.208 . S
C414 O406 1.315 . S
C414 O409 1.279 . S
C415 O416 1.315 . S
C415 O417 1.279 . S
O416 Cd408 2.223 . S
O416 C415 1.315 . S
O417 Cd407 2.240 . S
O417 C415 1.279 . S
O418 Cd408 2.297 1_556 S
O418 C413 1.247 . S
O419 Cd408 2.439 1_556 S
O419 C413 1.208 . S
O420 Cd421 2.223 . S
O420 C428 1.315 . S
Cd421 O420 2.223 . S
Cd421 O424 2.297 . S
Cd421 O425 2.439 . S
Cd421 O431 2.240 . S
Cd422 O423 2.240 . S
Cd422 O430 2.223 . S
Cd422 O432 2.297 . S
Cd422 O433 2.439 . S
O423 Cd422 2.240 . S
O423 C428 1.279 . S
O424 Cd421 2.297 . S
O424 C426 1.247 . S
O425 Cd421 2.439 . S
O425 C426 1.208 . S
C426 O424 1.247 . S
C426 O425 1.208 . S
C427 O432 1.247 . S
C427 O433 1.208 . S
C428 O420 1.315 . S
C428 O423 1.279 . S
C429 O430 1.315 . S
C429 O431 1.279 . S
O430 Cd422 2.223 . S
O430 C429 1.315 . S
O431 Cd421 2.240 . S
O431 C429 1.279 . S
O432 Cd422 2.297 . S
O432 C427 1.247 . S
O433 Cd422 2.439 . S
O433 C427 1.208 . S
O434 Cd435 2.223 . S
O434 C442 1.315 . S
Cd435 O434 2.223 . S
Cd435 O438 2.297 . S
Cd435 O439 2.439 . S
Cd435 O445 2.240 . S
Cd436 O437 2.240 . S
Cd436 O444 2.223 . S
Cd436 O446 2.297 . S
Cd436 O447 2.439 . S
O437 Cd436 2.240 . S
O437 C442 1.279 . S
O438 Cd435 2.297 . S
O438 C440 1.247 . S
O439 Cd435 2.439 . S
O439 C440 1.208 . S
C440 O438 1.247 . S
C440 O439 1.208 . S
C441 O446 1.247 . S
C441 O447 1.208 . S
C442 O434 1.315 . S
C442 O437 1.279 . S
C443 O444 1.315 . S
C443 O445 1.279 . S
O444 Cd436 2.223 . S
O444 C443 1.315 . S
O445 Cd435 2.240 . S
O445 C443 1.279 . S
O446 Cd436 2.297 . S
O446 C441 1.247 . S
O447 Cd436 2.439 . S
O447 C441 1.208 . S
C448 C449 1.349 . S
C448 C450 1.327 . S
C448 H473 0.950 . S
C449 C448 1.349 . S
C449 C465 1.349 . S
C450 C448 1.327 . S
C450 C469 1.429 . S
C450 H474 0.950 . S
C451 C468 1.574 . S
C451 C470 1.368 . S
C451 H475 0.949 . S
H452 C456 0.949 . S
C453 C454 1.349 . S
C453 C455 1.327 . S
C453 H476 0.950 . S
C454 C453 1.349 . S
C454 C466 1.349 . S
C455 C453 1.327 . S
C455 C471 1.429 . S
C455 H477 0.950 . S
C456 H452 0.949 . S
C456 C464 1.574 . S
C456 C472 1.368 . S
H457 C465 0.950 . S
H458 C463 0.950 . S
H459 C464 0.949 . S
H460 C466 0.950 . S
H461 C467 0.950 . S
H462 C468 0.949 . S
C463 H458 0.950 . S
C463 C465 1.327 . S
C463 C469 1.429 . S
C464 C456 1.574 . S
C464 H459 0.949 . S
C464 C470 1.368 . S
C465 C449 1.349 . S
C465 H457 0.950 . S
C465 C463 1.327 . S
C466 C454 1.349 . S
C466 H460 0.950 . S
C466 C467 1.327 . S
C467 H461 0.950 . S
C467 C466 1.327 . S
C467 C471 1.429 . S
C468 C451 1.574 . S
C468 H462 0.949 . S
C468 C472 1.368 . S
C469 C450 1.429 . S
C469 C463 1.429 . S
C469 C470 1.523 . S
C470 C451 1.368 . S
C470 C464 1.368 . S
C470 C469 1.523 . S
C471 C455 1.429 . S
C471 C467 1.429 . S
C471 C472 1.523 . S
C472 C456 1.368 . S
C472 C468 1.368 . S
C472 C471 1.523 . S
H473 C448 0.950 . S
H474 C450 0.950 . S
H475 C451 0.949 . S
H476 C453 0.950 . S
H477 C455 0.950 . S
C478 C479 1.349 . S
C478 C480 1.327 . S
C478 H503 0.950 . S
C479 C478 1.349 . S
C479 C495 1.349 . S
C480 C478 1.327 . S
C480 C499 1.429 . S
C480 H504 0.950 . S
C481 C498 1.574 . S
C481 C500 1.368 . S
C481 H505 0.949 . S
H482 C486 0.949 . S
C483 C484 1.349 . S
C483 C485 1.327 . S
C483 H506 0.950 . S
C484 C483 1.349 . S
C484 C496 1.349 . S
C485 C483 1.327 . S
C485 C501 1.429 . S
C485 H507 0.950 . S
C486 H482 0.949 . S
C486 C494 1.574 . S
C486 C502 1.368 . S
H487 C495 0.950 . S
H488 C493 0.950 . S
H489 C494 0.949 . S
H490 C496 0.950 . S
H491 C497 0.950 . S
H492 C498 0.949 . S
C493 H488 0.950 . S
C493 C495 1.327 . S
C493 C499 1.429 . S
C494 C486 1.574 . S
C494 H489 0.949 . S
C494 C500 1.368 . S
C495 C479 1.349 . S
C495 H487 0.950 . S
C495 C493 1.327 . S
C496 C484 1.349 . S
C496 H490 0.950 . S
C496 C497 1.327 . S
C497 H491 0.950 . S
C497 C496 1.327 . S
C497 C501 1.429 . S
C498 C481 1.574 . S
C498 H492 0.949 . S
C498 C502 1.368 . S
C499 C480 1.429 . S
C499 C493 1.429 . S
C499 C500 1.523 . S
C500 C481 1.368 . S
C500 C494 1.368 . S
C500 C499 1.523 . S
C501 C485 1.429 . S
C501 C497 1.429 . S
C501 C502 1.523 . S
C502 C486 1.368 . S
C502 C498 1.368 . S
C502 C501 1.523 . S
H503 C478 0.950 . S
H504 C480 0.950 . S
H505 C481 0.949 . S
H506 C483 0.950 . S
H507 C485 0.950 . S
C508 C509 1.349 . S
C508 C510 1.327 . S
C508 H533 0.950 . S
C509 C508 1.349 . S
C509 C525 1.349 . S
C510 C508 1.327 . S
C510 C529 1.429 . S
C510 H534 0.950 . S
C511 C528 1.574 . S
C511 C530 1.368 . S
C511 H535 0.949 . S
H512 C516 0.949 . S
C513 C514 1.349 . S
C513 C515 1.327 . S
C513 H536 0.950 . S
C514 C513 1.349 . S
C514 C526 1.349 . S
C515 C513 1.327 . S
C515 C531 1.429 . S
C515 H537 0.950 . S
C516 H512 0.949 . S
C516 C524 1.574 . S
C516 C532 1.368 . S
H517 C525 0.950 . S
H518 C523 0.950 . S
H519 C524 0.949 . S
H520 C526 0.950 . S
H521 C527 0.950 . S
H522 C528 0.949 . S
C523 H518 0.950 . S
C523 C525 1.327 . S
C523 C529 1.429 . S
C524 C516 1.574 . S
C524 H519 0.949 . S
C524 C530 1.368 . S
C525 C509 1.349 . S
C525 H517 0.950 . S
C525 C523 1.327 . S
C526 C514 1.349 . S
C526 H520 0.950 . S
C526 C527 1.327 . S
C527 H521 0.950 . S
C527 C526 1.327 . S
C527 C531 1.429 . S
C528 C511 1.574 . S
C528 H522 0.949 . S
C528 C532 1.368 . S
C529 C510 1.429 . S
C529 C523 1.429 . S
C529 C530 1.523 . S
C530 C511 1.368 . S
C530 C524 1.368 . S
C530 C529 1.523 . S
C531 C515 1.429 . S
C531 C527 1.429 . S
C531 C532 1.523 . S
C532 C516 1.368 . S
C532 C528 1.368 . S
C532 C531 1.523 . S
H533 C508 0.950 . S
H534 C510 0.950 . S
H535 C511 0.949 . S
H536 C513 0.950 . S
H537 C515 0.950 . S
C538 C539 1.349 . S
C538 C540 1.327 . S
C538 H563 0.950 . S
C539 C538 1.349 . S
C539 C555 1.349 . S
C540 C538 1.327 . S
C540 C559 1.429 . S
C540 H564 0.950 . S
C541 C558 1.574 . S
C541 C560 1.368 . S
C541 H565 0.949 . S
H542 C546 0.949 . S
C543 C544 1.349 . S
C543 C545 1.327 . S
C543 H566 0.950 . S
C544 C543 1.349 . S
C544 C556 1.349 . S
C545 C543 1.327 . S
C545 C561 1.429 . S
C545 H567 0.950 . S
C546 H542 0.949 . S
C546 C554 1.574 . S
C546 C562 1.368 . S
H547 C555 0.950 . S
H548 C553 0.950 . S
H549 C554 0.949 . S
H550 C556 0.950 . S
H551 C557 0.950 . S
H552 C558 0.949 . S
C553 H548 0.950 . S
C553 C555 1.327 . S
C553 C559 1.429 . S
C554 C546 1.574 . S
C554 H549 0.949 . S
C554 C560 1.368 . S
C555 C539 1.349 . S
C555 H547 0.950 . S
C555 C553 1.327 . S
C556 C544 1.349 . S
C556 H550 0.950 . S
C556 C557 1.327 . S
C557 H551 0.950 . S
C557 C556 1.327 . S
C557 C561 1.429 . S
C558 C541 1.574 . S
C558 H552 0.949 . S
C558 C562 1.368 . S
C559 C540 1.429 . S
C559 C553 1.429 . S
C559 C560 1.523 . S
C560 C541 1.368 . S
C560 C554 1.368 . S
C560 C559 1.523 . S
C561 C545 1.429 . S
C561 C557 1.429 . S
C561 C562 1.523 . S
C562 C546 1.368 . S
C562 C558 1.368 . S
C562 C561 1.523 . S
H563 C538 0.950 . S
H564 C540 0.950 . S
H565 C541 0.949 . S
H566 C543 0.950 . S
H567 C545 0.950 . S
C568 C569 1.349 . S
C568 C570 1.327 . S
C568 H593 0.950 . S
C569 C568 1.349 . S
C569 C585 1.349 . S
C570 C568 1.327 . S
C570 C589 1.429 . S
C570 H594 0.950 . S
C571 C588 1.574 . S
C571 C590 1.368 . S
C571 H595 0.949 . S
H572 C576 0.949 . S
C573 C574 1.349 . S
C573 C575 1.327 . S
C573 H596 0.950 . S
C574 C573 1.349 . S
C574 C586 1.349 . S
C575 C573 1.327 . S
C575 C591 1.429 . S
C575 H597 0.950 . S
C576 H572 0.949 . S
C576 C584 1.574 . S
C576 C592 1.368 . S
H577 C585 0.950 . S
H578 C583 0.950 . S
H579 C584 0.949 . S
H580 C586 0.950 . S
H581 C587 0.950 . S
H582 C588 0.949 . S
C583 H578 0.950 . S
C583 C585 1.327 . S
C583 C589 1.429 . S
C584 C576 1.574 . S
C584 H579 0.949 . S
C584 C590 1.368 . S
C585 C569 1.349 . S
C585 H577 0.950 . S
C585 C583 1.327 . S
C586 C574 1.349 . S
C586 H580 0.950 . S
C586 C587 1.327 . S
C587 H581 0.950 . S
C587 C586 1.327 . S
C587 C591 1.429 . S
C588 C571 1.574 . S
C588 H582 0.949 . S
C588 C592 1.368 . S
C589 C570 1.429 . S
C589 C583 1.429 . S
C589 C590 1.523 . S
C590 C571 1.368 . S
C590 C584 1.368 . S
C590 C589 1.523 . S
C591 C575 1.429 . S
C591 C587 1.429 . S
C591 C592 1.523 . S
C592 C576 1.368 . S
C592 C588 1.368 . S
C592 C591 1.523 . S
H593 C568 0.950 . S
H594 C570 0.950 . S
H595 C571 0.949 . S
H596 C573 0.950 . S
H597 C575 0.950 . S
C598 C599 1.349 . S
C598 C600 1.327 . S
C598 H623 0.950 . S
C599 C598 1.349 . S
C599 C615 1.349 . S
C600 C598 1.327 . S
C600 C619 1.429 . S
C600 H624 0.950 . S
C601 C618 1.574 . S
C601 C620 1.368 . S
C601 H625 0.949 . S
H602 C606 0.949 . S
C603 C604 1.349 . S
C603 C605 1.327 . S
C603 H626 0.950 . S
C604 C603 1.349 . S
C604 C616 1.349 . S
C605 C603 1.327 . S
C605 C621 1.429 . S
C605 H627 0.950 . S
C606 H602 0.949 . S
C606 C614 1.574 . S
C606 C622 1.368 . S
H607 C615 0.950 . S
H608 C613 0.950 . S
H609 C614 0.949 . S
H610 C616 0.950 . S
H611 C617 0.950 . S
H612 C618 0.949 . S
C613 H608 0.950 . S
C613 C615 1.327 . S
C613 C619 1.429 . S
C614 C606 1.574 . S
C614 H609 0.949 . S
C614 C620 1.368 . S
C615 C599 1.349 . S
C615 H607 0.950 . S
C615 C613 1.327 . S
C616 C604 1.349 . S
C616 H610 0.950 . S
C616 C617 1.327 . S
C617 H611 0.950 . S
C617 C616 1.327 . S
C617 C621 1.429 . S
C618 C601 1.574 . S
C618 H612 0.949 . S
C618 C622 1.368 . S
C619 C600 1.429 . S
C619 C613 1.429 . S
C619 C620 1.523 . S
C620 C601 1.368 . S
C620 C614 1.368 . S
C620 C619 1.523 . S
C621 C605 1.429 . S
C621 C617 1.429 . S
C621 C622 1.523 . S
C622 C606 1.368 . S
C622 C618 1.368 . S
C622 C621 1.523 . S
H623 C598 0.950 . S
H624 C600 0.950 . S
H625 C601 0.949 . S
H626 C603 0.950 . S
H627 C605 0.950 . S
C628 C629 1.349 . S
C628 C630 1.327 . S
C628 H653 0.950 . S
C629 C628 1.349 . S
C629 C645 1.349 . S
C630 C628 1.327 . S
C630 C649 1.429 . S
C630 H654 0.950 . S
C631 C648 1.574 . S
C631 C650 1.368 . S
C631 H655 0.949 . S
H632 C636 0.949 . S
C633 C634 1.349 . S
C633 C635 1.327 . S
C633 H656 0.950 . S
C634 C633 1.349 . S
C634 C646 1.349 . S
C635 C633 1.327 . S
C635 C651 1.429 . S
C635 H657 0.950 . S
C636 H632 0.949 . S
C636 C644 1.574 . S
C636 C652 1.368 . S
H637 C645 0.950 . S
H638 C643 0.950 . S
H639 C644 0.949 . S
H640 C646 0.950 . S
H641 C647 0.950 . S
H642 C648 0.949 . S
C643 H638 0.950 . S
C643 C645 1.327 . S
C643 C649 1.429 . S
C644 C636 1.574 . S
C644 H639 0.949 . S
C644 C650 1.368 . S
C645 C629 1.349 . S
C645 H637 0.950 . S
C645 C643 1.327 . S
C646 C634 1.349 . S
C646 H640 0.950 . S
C646 C647 1.327 . S
C647 H641 0.950 . S
C647 C646 1.327 . S
C647 C651 1.429 . S
C648 C631 1.574 . S
C648 H642 0.949 . S
C648 C652 1.368 . S
C649 C630 1.429 . S
C649 C643 1.429 . S
C649 C650 1.523 . S
C650 C631 1.368 . S
C650 C644 1.368 . S
C650 C649 1.523 . S
C651 C635 1.429 . S
C651 C647 1.429 . S
C651 C652 1.523 . S
C652 C636 1.368 . S
C652 C648 1.368 . S
C652 C651 1.523 . S
H653 C628 0.950 . S
H654 C630 0.950 . S
H655 C631 0.949 . S
H656 C633 0.950 . S
H657 C635 0.950 . S
C658 C659 1.349 . S
C658 C660 1.327 . S
C658 H683 0.950 . S
C659 C658 1.349 . S
C659 C675 1.349 . S
C660 C658 1.327 . S
C660 C679 1.429 . S
C660 H684 0.950 . S
C661 C678 1.574 . S
C661 C680 1.368 . S
C661 H685 0.949 . S
H662 C666 0.949 . S
C663 C664 1.349 . S
C663 C665 1.327 . S
C663 H686 0.950 . S
C664 C663 1.349 . S
C664 C676 1.349 . S
C665 C663 1.327 . S
C665 C681 1.429 . S
C665 H687 0.950 . S
C666 H662 0.949 . S
C666 C674 1.574 . S
C666 C682 1.368 . S
H667 C675 0.950 . S
H668 C673 0.950 . S
H669 C674 0.949 . S
H670 C676 0.950 . S
H671 C677 0.950 . S
H672 C678 0.949 . S
C673 H668 0.950 . S
C673 C675 1.327 . S
C673 C679 1.429 . S
C674 C666 1.574 . S
C674 H669 0.949 . S
C674 C680 1.368 . S
C675 C659 1.349 . S
C675 H667 0.950 . S
C675 C673 1.327 . S
C676 C664 1.349 . S
C676 H670 0.950 . S
C676 C677 1.327 . S
C677 H671 0.950 . S
C677 C676 1.327 . S
C677 C681 1.429 . S
C678 C661 1.574 . S
C678 H672 0.949 . S
C678 C682 1.368 . S
C679 C660 1.429 . S
C679 C673 1.429 . S
C679 C680 1.523 . S
C680 C661 1.368 . S
C680 C674 1.368 . S
C680 C679 1.523 . S
C681 C665 1.429 . S
C681 C677 1.429 . S
C681 C682 1.523 . S
C682 C666 1.368 . S
C682 C678 1.368 . S
C682 C681 1.523 . S
H683 C658 0.950 . S
H684 C660 0.950 . S
H685 C661 0.949 . S
H686 C663 0.950 . S
H687 C665 0.950 . S
C688 C689 1.349 . S
C688 C690 1.327 . S
C688 H713 0.950 . S
C689 C688 1.349 . S
C689 C705 1.349 . S
C690 C688 1.327 . S
C690 C709 1.429 . S
C690 H714 0.950 . S
C691 C708 1.574 . S
C691 C710 1.368 . S
C691 H715 0.949 . S
H692 C696 0.949 . S
C693 C694 1.349 . S
C693 C695 1.327 . S
C693 H716 0.950 . S
C694 C693 1.349 . S
C694 C706 1.349 . S
C695 C693 1.327 . S
C695 C711 1.429 . S
C695 H717 0.950 . S
C696 H692 0.949 . S
C696 C704 1.574 . S
C696 C712 1.368 . S
H697 C705 0.950 . S
H698 C703 0.950 . S
H699 C704 0.949 . S
H700 C706 0.950 . S
H701 C707 0.950 . S
H702 C708 0.949 . S
C703 H698 0.950 . S
C703 C705 1.327 . S
C703 C709 1.429 . S
C704 C696 1.574 . S
C704 H699 0.949 . S
C704 C710 1.368 . S
C705 C689 1.349 . S
C705 H697 0.950 . S
C705 C703 1.327 . S
C706 C694 1.349 . S
C706 H700 0.950 . S
C706 C707 1.327 . S
C707 H701 0.950 . S
C707 C706 1.327 . S
C707 C711 1.429 . S
C708 C691 1.574 . S
C708 H702 0.949 . S
C708 C712 1.368 . S
C709 C690 1.429 . S
C709 C703 1.429 . S
C709 C710 1.523 . S
C710 C691 1.368 . S
C710 C704 1.368 . S
C710 C709 1.523 . S
C711 C695 1.429 . S
C711 C707 1.429 . S
C711 C712 1.523 . S
C712 C696 1.368 . S
C712 C708 1.368 . S
C712 C711 1.523 . S
H713 C688 0.950 . S
H714 C690 0.950 . S
H715 C691 0.949 . S
H716 C693 0.950 . S
H717 C695 0.950 . S
C718 C719 1.349 . S
C718 C720 1.327 . S
C718 H743 0.950 . S
C719 C718 1.349 . S
C719 C735 1.349 . S
C720 C718 1.327 . S
C720 C739 1.429 . S
C720 H744 0.950 . S
C721 C738 1.574 . S
C721 C740 1.368 . S
C721 H745 0.949 . S
H722 C726 0.949 . S
C723 C724 1.349 . S
C723 C725 1.327 . S
C723 H746 0.950 . S
C724 C723 1.349 . S
C724 C736 1.349 . S
C725 C723 1.327 . S
C725 C741 1.429 . S
C725 H747 0.950 . S
C726 H722 0.949 . S
C726 C734 1.574 . S
C726 C742 1.368 . S
H727 C735 0.950 . S
H728 C733 0.950 . S
H729 C734 0.949 . S
H730 C736 0.950 . S
H731 C737 0.950 . S
H732 C738 0.949 . S
C733 H728 0.950 . S
C733 C735 1.327 . S
C733 C739 1.429 . S
C734 C726 1.574 . S
C734 H729 0.949 . S
C734 C740 1.368 . S
C735 C719 1.349 . S
C735 H727 0.950 . S
C735 C733 1.327 . S
C736 C724 1.349 . S
C736 H730 0.950 . S
C736 C737 1.327 . S
C737 H731 0.950 . S
C737 C736 1.327 . S
C737 C741 1.429 . S
C738 C721 1.574 . S
C738 H732 0.949 . S
C738 C742 1.368 . S
C739 C720 1.429 . S
C739 C733 1.429 . S
C739 C740 1.523 . S
C740 C721 1.368 . S
C740 C734 1.368 . S
C740 C739 1.523 . S
C741 C725 1.429 . S
C741 C737 1.429 . S
C741 C742 1.523 . S
C742 C726 1.368 . S
C742 C738 1.368 . S
C742 C741 1.523 . S
H743 C718 0.950 . S
H744 C720 0.950 . S
H745 C721 0.949 . S
H746 C723 0.950 . S
H747 C725 0.950 . S
C748 C749 1.349 . S
C748 C750 1.327 . S
C748 H773 0.950 . S
C749 C748 1.349 . S
C749 C765 1.349 . S
C750 C748 1.327 . S
C750 C769 1.429 . S
C750 H774 0.950 . S
C751 C768 1.574 . S
C751 C770 1.368 . S
C751 H775 0.949 . S
H752 C756 0.949 . S
C753 C754 1.349 . S
C753 C755 1.327 . S
C753 H776 0.950 . S
C754 C753 1.349 . S
C754 C766 1.349 . S
C755 C753 1.327 . S
C755 C771 1.429 . S
C755 H777 0.950 . S
C756 H752 0.949 . S
C756 C764 1.574 . S
C756 C772 1.368 . S
H757 C765 0.950 . S
H758 C763 0.950 . S
H759 C764 0.949 . S
H760 C766 0.950 . S
H761 C767 0.950 . S
H762 C768 0.949 . S
C763 H758 0.950 . S
C763 C765 1.327 . S
C763 C769 1.429 . S
C764 C756 1.574 . S
C764 H759 0.949 . S
C764 C770 1.368 . S
C765 C749 1.349 . S
C765 H757 0.950 . S
C765 C763 1.327 . S
C766 C754 1.349 . S
C766 H760 0.950 . S
C766 C767 1.327 . S
C767 H761 0.950 . S
C767 C766 1.327 . S
C767 C771 1.429 . S
C768 C751 1.574 . S
C768 H762 0.949 . S
C768 C772 1.368 . S
C769 C750 1.429 . S
C769 C763 1.429 . S
C769 C770 1.523 . S
C770 C751 1.368 . S
C770 C764 1.368 . S
C770 C769 1.523 . S
C771 C755 1.429 . S
C771 C767 1.429 . S
C771 C772 1.523 . S
C772 C756 1.368 . S
C772 C768 1.368 . S
C772 C771 1.523 . S
H773 C748 0.950 . S
H774 C750 0.950 . S
H775 C751 0.949 . S
H776 C753 0.950 . S
H777 C755 0.950 . S
C778 C779 1.349 . S
C778 C780 1.327 . S
C778 H803 0.950 . S
C779 C778 1.349 . S
C779 C795 1.349 . S
C780 C778 1.327 . S
C780 C799 1.429 . S
C780 H804 0.950 . S
C781 C798 1.574 . S
C781 C800 1.368 . S
C781 H805 0.949 . S
H782 C786 0.949 . S
C783 C784 1.349 . S
C783 C785 1.327 . S
C783 H806 0.950 . S
C784 C783 1.349 . S
C784 C796 1.349 . S
C785 C783 1.327 . S
C785 C801 1.429 . S
C785 H807 0.950 . S
C786 H782 0.949 . S
C786 C794 1.574 . S
C786 C802 1.368 . S
H787 C795 0.950 . S
H788 C793 0.950 . S
H789 C794 0.949 . S
H790 C796 0.950 . S
H791 C797 0.950 . S
H792 C798 0.949 . S
C793 H788 0.950 . S
C793 C795 1.327 . S
C793 C799 1.429 . S
C794 C786 1.574 . S
C794 H789 0.949 . S
C794 C800 1.368 . S
C795 C779 1.349 . S
C795 H787 0.950 . S
C795 C793 1.327 . S
C796 C784 1.349 . S
C796 H790 0.950 . S
C796 C797 1.327 . S
C797 H791 0.950 . S
C797 C796 1.327 . S
C797 C801 1.429 . S
C798 C781 1.574 . S
C798 H792 0.949 . S
C798 C802 1.368 . S
C799 C780 1.429 . S
C799 C793 1.429 . S
C799 C800 1.523 . S
C800 C781 1.368 . S
C800 C794 1.368 . S
C800 C799 1.523 . S
C801 C785 1.429 . S
C801 C797 1.429 . S
C801 C802 1.523 . S
C802 C786 1.368 . S
C802 C798 1.368 . S
C802 C801 1.523 . S
H803 C778 0.950 . S
H804 C780 0.950 . S
H805 C781 0.949 . S
H806 C783 0.950 . S
H807 C785 0.950 . S
C808 C809 1.349 . S
C808 C810 1.327 . S
C808 H833 0.950 . S
C809 C808 1.349 . S
C809 C825 1.349 . S
C810 C808 1.327 . S
C810 C829 1.429 . S
C810 H834 0.950 . S
C811 C828 1.574 . S
C811 C830 1.368 . S
C811 H835 0.949 . S
H812 C816 0.949 . S
C813 C814 1.349 . S
C813 C815 1.327 . S
C813 H836 0.950 . S
C814 C813 1.349 . S
C814 C826 1.349 . S
C815 C813 1.327 . S
C815 C831 1.429 . S
C815 H837 0.950 . S
C816 H812 0.949 . S
C816 C824 1.574 . S
C816 C832 1.368 . S
H817 C825 0.950 . S
H818 C823 0.950 . S
H819 C824 0.949 . S
H820 C826 0.950 . S
H821 C827 0.950 . S
H822 C828 0.949 . S
C823 H818 0.950 . S
C823 C825 1.327 . S
C823 C829 1.429 . S
C824 C816 1.574 . S
C824 H819 0.949 . S
C824 C830 1.368 . S
C825 C809 1.349 . S
C825 H817 0.950 . S
C825 C823 1.327 . S
C826 C814 1.349 . S
C826 H820 0.950 . S
C826 C827 1.327 . S
C827 H821 0.950 . S
C827 C826 1.327 . S
C827 C831 1.429 . S
C828 C811 1.574 . S
C828 H822 0.949 . S
C828 C832 1.368 . S
C829 C810 1.429 . S
C829 C823 1.429 . S
C829 C830 1.523 . S
C830 C811 1.368 . S
C830 C824 1.368 . S
C830 C829 1.523 . S
C831 C815 1.429 . S
C831 C827 1.429 . S
C831 C832 1.523 . S
C832 C816 1.368 . S
C832 C828 1.368 . S
C832 C831 1.523 . S
H833 C808 0.950 . S
H834 C810 0.950 . S
H835 C811 0.949 . S
H836 C813 0.950 . S
H837 C815 0.950 . S
C838 C839 1.349 . S
C838 C840 1.327 . S
C838 H863 0.950 . S
C839 C838 1.349 . S
C839 C855 1.349 . S
C840 C838 1.327 . S
C840 C859 1.429 . S
C840 H864 0.950 . S
C841 C858 1.574 . S
C841 C860 1.368 . S
C841 H865 0.949 . S
H842 C846 0.949 . S
C843 C844 1.349 . S
C843 C845 1.327 . S
C843 H866 0.950 . S
C844 C843 1.349 . S
C844 C856 1.349 . S
C845 C843 1.327 . S
C845 C861 1.429 . S
C845 H867 0.950 . S
C846 H842 0.949 . S
C846 C854 1.574 . S
C846 C862 1.368 . S
H847 C855 0.950 . S
H848 C853 0.950 . S
H849 C854 0.949 . S
H850 C856 0.950 . S
H851 C857 0.950 . S
H852 C858 0.949 . S
C853 H848 0.950 . S
C853 C855 1.327 . S
C853 C859 1.429 . S
C854 C846 1.574 . S
C854 H849 0.949 . S
C854 C860 1.368 . S
C855 C839 1.349 . S
C855 H847 0.950 . S
C855 C853 1.327 . S
C856 C844 1.349 . S
C856 H850 0.950 . S
C856 C857 1.327 . S
C857 H851 0.950 . S
C857 C856 1.327 . S
C857 C861 1.429 . S
C858 C841 1.574 . S
C858 H852 0.949 . S
C858 C862 1.368 . S
C859 C840 1.429 . S
C859 C853 1.429 . S
C859 C860 1.523 . S
C860 C841 1.368 . S
C860 C854 1.368 . S
C860 C859 1.523 . S
C861 C845 1.429 . S
C861 C857 1.429 . S
C861 C862 1.523 . S
C862 C846 1.368 . S
C862 C858 1.368 . S
C862 C861 1.523 . S
H863 C838 0.950 . S
H864 C840 0.950 . S
H865 C841 0.949 . S
H866 C843 0.950 . S
H867 C845 0.950 . S
C868 C869 1.349 . S
C868 C870 1.327 . S
C868 H893 0.950 . S
C869 C868 1.349 . S
C869 C885 1.349 . S
C870 C868 1.327 . S
C870 C889 1.429 . S
C870 H894 0.950 . S
C871 C888 1.574 . S
C871 C890 1.368 . S
C871 H895 0.949 . S
H872 C876 0.949 . S
C873 C874 1.349 . S
C873 C875 1.327 . S
C873 H896 0.950 . S
C874 C873 1.349 . S
C874 C886 1.349 . S
C875 C873 1.327 . S
C875 C891 1.429 . S
C875 H897 0.950 . S
C876 H872 0.949 . S
C876 C884 1.574 . S
C876 C892 1.368 . S
H877 C885 0.950 . S
H878 C883 0.950 . S
H879 C884 0.949 . S
H880 C886 0.950 . S
H881 C887 0.950 . S
H882 C888 0.949 . S
C883 H878 0.950 . S
C883 C885 1.327 . S
C883 C889 1.429 . S
C884 C876 1.574 . S
C884 H879 0.949 . S
C884 C890 1.368 . S
C885 C869 1.349 . S
C885 H877 0.950 . S
C885 C883 1.327 . S
C886 C874 1.349 . S
C886 H880 0.950 . S
C886 C887 1.327 . S
C887 H881 0.950 . S
C887 C886 1.327 . S
C887 C891 1.429 . S
C888 C871 1.574 . S
C888 H882 0.949 . S
C888 C892 1.368 . S
C889 C870 1.429 . S
C889 C883 1.429 . S
C889 C890 1.523 . S
C890 C871 1.368 . S
C890 C884 1.368 . S
C890 C889 1.523 . S
C891 C875 1.429 . S
C891 C887 1.429 . S
C891 C892 1.523 . S
C892 C876 1.368 . S
C892 C888 1.368 . S
C892 C891 1.523 . S
H893 C868 0.950 . S
H894 C870 0.950 . S
H895 C871 0.949 . S
H896 C873 0.950 . S
H897 C875 0.950 . S
C898 C899 1.349 . S
C898 C900 1.327 . S
C898 H923 0.950 . S
C899 C898 1.349 . S
C899 C915 1.349 . S
C900 C898 1.327 . S
C900 C919 1.429 . S
C900 H924 0.950 . S
C901 C918 1.574 . S
C901 C920 1.368 . S
C901 H925 0.949 . S
H902 C906 0.949 . S
C903 C904 1.349 . S
C903 C905 1.327 . S
C903 H926 0.950 . S
C904 C903 1.349 . S
C904 C916 1.349 . S
C905 C903 1.327 . S
C905 C921 1.429 . S
C905 H927 0.950 . S
C906 H902 0.949 . S
C906 C914 1.574 . S
C906 C922 1.368 . S
H907 C915 0.950 . S
H908 C913 0.950 . S
H909 C914 0.949 . S
H910 C916 0.950 . S
H911 C917 0.950 . S
H912 C918 0.949 . S
C913 H908 0.950 . S
C913 C915 1.327 . S
C913 C919 1.429 . S
C914 C906 1.574 . S
C914 H909 0.949 . S
C914 C920 1.368 . S
C915 C899 1.349 . S
C915 H907 0.950 . S
C915 C913 1.327 . S
C916 C904 1.349 . S
C916 H910 0.950 . S
C916 C917 1.327 . S
C917 H911 0.950 . S
C917 C916 1.327 . S
C917 C921 1.429 . S
C918 C901 1.574 . S
C918 H912 0.949 . S
C918 C922 1.368 . S
C919 C900 1.429 . S
C919 C913 1.429 . S
C919 C920 1.523 . S
C920 C901 1.368 . S
C920 C914 1.368 . S
C920 C919 1.523 . S
C921 C905 1.429 . S
C921 C917 1.429 . S
C921 C922 1.523 . S
C922 C906 1.368 . S
C922 C918 1.368 . S
C922 C921 1.523 . S
H923 C898 0.950 . S
H924 C900 0.950 . S
H925 C901 0.949 . S
H926 C903 0.950 . S
H927 C905 0.950 . S
C928 C929 1.349 . S
C928 C930 1.327 . S
C928 H953 0.950 . S
C929 C928 1.349 . S
C929 C945 1.349 . S
C930 C928 1.327 . S
C930 C949 1.429 . S
C930 H954 0.950 . S
C931 C948 1.574 . S
C931 C950 1.368 . S
C931 H955 0.949 . S
H932 C936 0.949 . S
C933 C934 1.349 . S
C933 C935 1.327 . S
C933 H956 0.950 . S
C934 C933 1.349 . S
C934 C946 1.349 . S
C935 C933 1.327 . S
C935 C951 1.429 . S
C935 H957 0.950 . S
C936 H932 0.949 . S
C936 C944 1.574 . S
C936 C952 1.368 . S
H937 C945 0.950 . S
H938 C943 0.950 . S
H939 C944 0.949 . S
H940 C946 0.950 . S
H941 C947 0.950 . S
H942 C948 0.949 . S
C943 H938 0.950 . S
C943 C945 1.327 . S
C943 C949 1.429 . S
C944 C936 1.574 . S
C944 H939 0.949 . S
C944 C950 1.368 . S
C945 C929 1.349 . S
C945 H937 0.950 . S
C945 C943 1.327 . S
C946 C934 1.349 . S
C946 H940 0.950 . S
C946 C947 1.327 . S
C947 H941 0.950 . S
C947 C946 1.327 . S
C947 C951 1.429 . S
C948 C931 1.574 . S
C948 H942 0.949 . S
C948 C952 1.368 . S
C949 C930 1.429 . S
C949 C943 1.429 . S
C949 C950 1.523 . S
C950 C931 1.368 . S
C950 C944 1.368 . S
C950 C949 1.523 . S
C951 C935 1.429 . S
C951 C947 1.429 . S
C951 C952 1.523 . S
C952 C936 1.368 . S
C952 C948 1.368 . S
C952 C951 1.523 . S
H953 C928 0.950 . S
H954 C930 0.950 . S
H955 C931 0.949 . S
H956 C933 0.950 . S
H957 C935 0.950 . S
C958 C959 1.349 . S
C958 C960 1.327 . S
C958 H983 0.950 . S
C959 C958 1.349 . S
C959 C975 1.349 . S
C960 C958 1.327 . S
C960 C979 1.429 . S
C960 H984 0.950 . S
C961 C978 1.574 . S
C961 C980 1.368 . S
C961 H985 0.949 . S
H962 C966 0.949 . S
C963 C964 1.349 1_655 S
C963 C965 1.327 . S
C963 H986 0.950 . S
C964 C963 1.349 1_455 S
C964 C976 1.349 . S
C965 C963 1.327 . S
C965 C981 1.429 . S
C965 H987 0.950 . S
C966 H962 0.949 . S
C966 C974 1.574 . S
C966 C982 1.368 . S
H967 C975 0.950 . S
H968 C973 0.950 . S
H969 C974 0.949 . S
H970 C976 0.950 . S
H971 C977 0.950 . S
H972 C978 0.949 . S
C973 H968 0.950 . S
C973 C975 1.327 . S
C973 C979 1.429 . S
C974 C966 1.574 . S
C974 H969 0.949 . S
C974 C980 1.368 . S
C975 C959 1.349 . S
C975 H967 0.950 . S
C975 C973 1.327 . S
C976 C964 1.349 . S
C976 H970 0.950 . S
C976 C977 1.327 1_455 S
C977 H971 0.950 . S
C977 C976 1.327 1_655 S
C977 C981 1.429 . S
C978 C961 1.574 . S
C978 H972 0.949 . S
C978 C982 1.368 . S
C979 C960 1.429 . S
C979 C973 1.429 . S
C979 C980 1.523 . S
C980 C961 1.368 . S
C980 C974 1.368 . S
C980 C979 1.523 . S
C981 C965 1.429 . S
C981 C977 1.429 . S
C981 C982 1.523 . S
C982 C966 1.368 . S
C982 C978 1.368 . S
C982 C981 1.523 . S
H983 C958 0.950 . S
H984 C960 0.950 . S
H985 C961 0.949 . S
H986 C963 0.950 . S
H987 C965 0.950 . S
C988 C989 1.349 . S
C988 C990 1.327 . S
C988 H1013 0.950 . S
C989 C988 1.349 . S
C989 C1005 1.349 . S
C990 C988 1.327 . S
C990 C1009 1.429 . S
C990 H1014 0.950 . S
C991 C1008 1.574 . S
C991 C1010 1.368 . S
C991 H1015 0.949 . S
H992 C996 0.949 . S
C993 C994 1.349 . S
C993 C995 1.327 . S
C993 H1016 0.950 . S
C994 C993 1.349 . S
C994 C1006 1.349 . S
C995 C993 1.327 . S
C995 C1011 1.429 . S
C995 H1017 0.950 . S
C996 H992 0.949 . S
C996 C1004 1.574 . S
C996 C1012 1.368 . S
H997 C1005 0.950 . S
H998 C1003 0.950 . S
H999 C1004 0.949 . S
H1000 C1006 0.950 . S
H1001 C1007 0.950 . S
H1002 C1008 0.949 . S
C1003 H998 0.950 . S
C1003 C1005 1.327 . S
C1003 C1009 1.429 . S
C1004 C996 1.574 . S
C1004 H999 0.949 . S
C1004 C1010 1.368 . S
C1005 C989 1.349 . S
C1005 H997 0.950 . S
C1005 C1003 1.327 . S
C1006 C994 1.349 . S
C1006 H1000 0.950 . S
C1006 C1007 1.327 . S
C1007 H1001 0.950 . S
C1007 C1006 1.327 . S
C1007 C1011 1.429 . S
C1008 C991 1.574 . S
C1008 H1002 0.949 . S
C1008 C1012 1.368 . S
C1009 C990 1.429 . S
C1009 C1003 1.429 . S
C1009 C1010 1.523 . S
C1010 C991 1.368 . S
C1010 C1004 1.368 . S
C1010 C1009 1.523 . S
C1011 C995 1.429 . S
C1011 C1007 1.429 . S
C1011 C1012 1.523 . S
C1012 C996 1.368 . S
C1012 C1008 1.368 . S
C1012 C1011 1.523 . S
H1013 C988 0.950 . S
H1014 C990 0.950 . S
H1015 C991 0.949 . S
H1016 C993 0.950 . S
H1017 C995 0.950 . S
C1018 C1019 1.349 . S
C1018 C1020 1.327 . S
C1018 H1043 0.950 . S
C1019 C1018 1.349 . S
C1019 C1035 1.349 . S
C1020 C1018 1.327 . S
C1020 C1039 1.429 . S
C1020 H1044 0.950 . S
C1021 C1038 1.574 . S
C1021 C1040 1.368 . S
C1021 H1045 0.949 . S
H1022 C1026 0.949 . S
C1023 C1024 1.349 . S
C1023 C1025 1.327 . S
C1023 H1046 0.950 . S
C1024 C1023 1.349 . S
C1024 C1036 1.349 . S
C1025 C1023 1.327 . S
C1025 C1041 1.429 . S
C1025 H1047 0.950 . S
C1026 H1022 0.949 . S
C1026 C1034 1.574 . S
C1026 C1042 1.368 . S
H1027 C1035 0.950 . S
H1028 C1033 0.950 . S
H1029 C1034 0.949 . S
H1030 C1036 0.950 . S
H1031 C1037 0.950 . S
H1032 C1038 0.949 . S
C1033 H1028 0.950 . S
C1033 C1035 1.327 . S
C1033 C1039 1.429 . S
C1034 C1026 1.574 . S
C1034 H1029 0.949 . S
C1034 C1040 1.368 . S
C1035 C1019 1.349 . S
C1035 H1027 0.950 . S
C1035 C1033 1.327 . S
C1036 C1024 1.349 . S
C1036 H1030 0.950 . S
C1036 C1037 1.327 . S
C1037 H1031 0.950 . S
C1037 C1036 1.327 . S
C1037 C1041 1.429 . S
C1038 C1021 1.574 . S
C1038 H1032 0.949 . S
C1038 C1042 1.368 . S
C1039 C1020 1.429 . S
C1039 C1033 1.429 . S
C1039 C1040 1.523 . S
C1040 C1021 1.368 . S
C1040 C1034 1.368 . S
C1040 C1039 1.523 . S
C1041 C1025 1.429 . S
C1041 C1037 1.429 . S
C1041 C1042 1.523 . S
C1042 C1026 1.368 . S
C1042 C1038 1.368 . S
C1042 C1041 1.523 . S
H1043 C1018 0.950 . S
H1044 C1020 0.950 . S
H1045 C1021 0.949 . S
H1046 C1023 0.950 . S
H1047 C1025 0.950 . S
C1048 C1049 1.349 . S
C1048 C1050 1.327 . S
C1048 H1073 0.950 . S
C1049 C1048 1.349 . S
C1049 C1065 1.349 . S
C1050 C1048 1.327 . S
C1050 C1069 1.429 . S
C1050 H1074 0.950 . S
C1051 C1068 1.574 . S
C1051 C1070 1.368 . S
C1051 H1075 0.949 . S
H1052 C1056 0.949 . S
C1053 C1054 1.349 . S
C1053 C1055 1.327 . S
C1053 H1076 0.950 . S
C1054 C1053 1.349 . S
C1054 C1066 1.349 . S
C1055 C1053 1.327 . S
C1055 C1071 1.429 . S
C1055 H1077 0.950 . S
C1056 H1052 0.949 . S
C1056 C1064 1.574 . S
C1056 C1072 1.368 . S
H1057 C1065 0.950 . S
H1058 C1063 0.950 . S
H1059 C1064 0.949 . S
H1060 C1066 0.950 . S
H1061 C1067 0.950 . S
H1062 C1068 0.949 . S
C1063 H1058 0.950 . S
C1063 C1065 1.327 . S
C1063 C1069 1.429 . S
C1064 C1056 1.574 . S
C1064 H1059 0.949 . S
C1064 C1070 1.368 . S
C1065 C1049 1.349 . S
C1065 H1057 0.950 . S
C1065 C1063 1.327 . S
C1066 C1054 1.349 . S
C1066 H1060 0.950 . S
C1066 C1067 1.327 . S
C1067 H1061 0.950 . S
C1067 C1066 1.327 . S
C1067 C1071 1.429 . S
C1068 C1051 1.574 . S
C1068 H1062 0.949 . S
C1068 C1072 1.368 . S
C1069 C1050 1.429 . S
C1069 C1063 1.429 . S
C1069 C1070 1.523 . S
C1070 C1051 1.368 . S
C1070 C1064 1.368 . S
C1070 C1069 1.523 . S
C1071 C1055 1.429 . S
C1071 C1067 1.429 . S
C1071 C1072 1.523 . S
C1072 C1056 1.368 . S
C1072 C1068 1.368 . S
C1072 C1071 1.523 . S
H1073 C1048 0.950 . S
H1074 C1050 0.950 . S
H1075 C1051 0.949 . S
H1076 C1053 0.950 . S
H1077 C1055 0.950 . S
C1078 C1079 1.349 . S
C1078 C1080 1.327 . S
C1078 H1103 0.950 . S
C1079 C1078 1.349 . S
C1079 C1095 1.349 . S
C1080 C1078 1.327 . S
C1080 C1099 1.429 . S
C1080 H1104 0.950 . S
C1081 C1098 1.574 . S
C1081 C1100 1.368 . S
C1081 H1105 0.949 . S
H1082 C1086 0.949 . S
C1083 C1084 1.349 . S
C1083 C1085 1.327 . S
C1083 H1106 0.950 . S
C1084 C1083 1.349 . S
C1084 C1096 1.349 . S
C1085 C1083 1.327 . S
C1085 C1101 1.429 . S
C1085 H1107 0.950 . S
C1086 H1082 0.949 . S
C1086 C1094 1.574 . S
C1086 C1102 1.368 . S
H1087 C1095 0.950 . S
H1088 C1093 0.950 . S
H1089 C1094 0.949 . S
H1090 C1096 0.950 . S
H1091 C1097 0.950 . S
H1092 C1098 0.949 . S
C1093 H1088 0.950 . S
C1093 C1095 1.327 . S
C1093 C1099 1.429 . S
C1094 C1086 1.574 . S
C1094 H1089 0.949 . S
C1094 C1100 1.368 . S
C1095 C1079 1.349 . S
C1095 H1087 0.950 . S
C1095 C1093 1.327 . S
C1096 C1084 1.349 . S
C1096 H1090 0.950 . S
C1096 C1097 1.327 . S
C1097 H1091 0.950 . S
C1097 C1096 1.327 . S
C1097 C1101 1.429 . S
C1098 C1081 1.574 . S
C1098 H1092 0.949 . S
C1098 C1102 1.368 . S
C1099 C1080 1.429 . S
C1099 C1093 1.429 . S
C1099 C1100 1.523 . S
C1100 C1081 1.368 . S
C1100 C1094 1.368 . S
C1100 C1099 1.523 . S
C1101 C1085 1.429 . S
C1101 C1097 1.429 . S
C1101 C1102 1.523 . S
C1102 C1086 1.368 . S
C1102 C1098 1.368 . S
C1102 C1101 1.523 . S
H1103 C1078 0.950 . S
H1104 C1080 0.950 . S
H1105 C1081 0.949 . S
H1106 C1083 0.950 . S
H1107 C1085 0.950 . S
C1108 C1109 1.349 . S
C1108 C1110 1.327 . S
C1108 H1133 0.950 . S
C1109 C1108 1.349 . S
C1109 C1125 1.349 . S
C1110 C1108 1.327 . S
C1110 C1129 1.429 . S
C1110 H1134 0.950 . S
C1111 C1128 1.574 . S
C1111 C1130 1.368 . S
C1111 H1135 0.949 . S
H1112 C1116 0.949 . S
C1113 C1114 1.349 . S
C1113 C1115 1.327 . S
C1113 H1136 0.950 . S
C1114 C1113 1.349 . S
C1114 C1126 1.349 . S
C1115 C1113 1.327 . S
C1115 C1131 1.429 . S
C1115 H1137 0.950 . S
C1116 H1112 0.949 . S
C1116 C1124 1.574 . S
C1116 C1132 1.368 . S
H1117 C1125 0.950 . S
H1118 C1123 0.950 . S
H1119 C1124 0.949 . S
H1120 C1126 0.950 . S
H1121 C1127 0.950 . S
H1122 C1128 0.949 . S
C1123 H1118 0.950 . S
C1123 C1125 1.327 . S
C1123 C1129 1.429 . S
C1124 C1116 1.574 . S
C1124 H1119 0.949 . S
C1124 C1130 1.368 . S
C1125 C1109 1.349 . S
C1125 H1117 0.950 . S
C1125 C1123 1.327 . S
C1126 C1114 1.349 . S
C1126 H1120 0.950 . S
C1126 C1127 1.327 . S
C1127 H1121 0.950 . S
C1127 C1126 1.327 . S
C1127 C1131 1.429 . S
C1128 C1111 1.574 . S
C1128 H1122 0.949 . S
C1128 C1132 1.368 . S
C1129 C1110 1.429 . S
C1129 C1123 1.429 . S
C1129 C1130 1.523 . S
C1130 C1111 1.368 . S
C1130 C1124 1.368 . S
C1130 C1129 1.523 . S
C1131 C1115 1.429 . S
C1131 C1127 1.429 . S
C1131 C1132 1.523 . S
C1132 C1116 1.368 . S
C1132 C1128 1.368 . S
C1132 C1131 1.523 . S
H1133 C1108 0.950 . S
H1134 C1110 0.950 . S
H1135 C1111 0.949 . S
H1136 C1113 0.950 . S
H1137 C1115 0.950 . S
C1138 C1139 1.349 . S
C1138 C1140 1.327 1_455 S
C1138 H1163 0.950 . S
C1139 C1138 1.349 . S
C1139 C1155 1.349 1_455 S
C1140 C1138 1.327 1_655 S
C1140 C1159 1.429 . S
C1140 H1164 0.950 . S
C1141 C1158 1.574 . S
C1141 C1160 1.368 . S
C1141 H1165 0.949 . S
H1142 C1146 0.949 . S
C1143 C1144 1.349 . S
C1143 C1145 1.327 . S
C1143 H1166 0.950 . S
C1144 C1143 1.349 . S
C1144 C1156 1.349 . S
C1145 C1143 1.327 . S
C1145 C1161 1.429 . S
C1145 H1167 0.950 . S
C1146 H1142 0.949 . S
C1146 C1154 1.574 . S
C1146 C1162 1.368 . S
H1147 C1155 0.950 . S
H1148 C1153 0.950 . S
H1149 C1154 0.949 . S
H1150 C1156 0.950 . S
H1151 C1157 0.950 . S
H1152 C1158 0.949 . S
C1153 H1148 0.950 . S
C1153 C1155 1.327 . S
C1153 C1159 1.429 . S
C1154 C1146 1.574 . S
C1154 H1149 0.949 . S
C1154 C1160 1.368 . S
C1155 C1139 1.349 1_655 S
C1155 H1147 0.950 . S
C1155 C1153 1.327 . S
C1156 C1144 1.349 . S
C1156 H1150 0.950 . S
C1156 C1157 1.327 . S
C1157 H1151 0.950 . S
C1157 C1156 1.327 . S
C1157 C1161 1.429 . S
C1158 C1141 1.574 . S
C1158 H1152 0.949 . S
C1158 C1162 1.368 . S
C1159 C1140 1.429 . S
C1159 C1153 1.429 . S
C1159 C1160 1.523 . S
C1160 C1141 1.368 . S
C1160 C1154 1.368 . S
C1160 C1159 1.523 . S
C1161 C1145 1.429 . S
C1161 C1157 1.429 . S
C1161 C1162 1.523 . S
C1162 C1146 1.368 . S
C1162 C1158 1.368 . S
C1162 C1161 1.523 . S
H1163 C1138 0.950 . S
H1164 C1140 0.950 . S
H1165 C1141 0.949 . S
H1166 C1143 0.950 . S
H1167 C1145 0.950 . S
C1168 C1169 1.349 . S
C1168 C1170 1.327 . S
C1168 H1193 0.950 . S
C1169 C1168 1.349 . S
C1169 C1185 1.349 . S
C1170 C1168 1.327 . S
C1170 C1189 1.429 . S
C1170 H1194 0.950 . S
C1171 C1188 1.574 . S
C1171 C1190 1.368 . S
C1171 H1195 0.949 . S
H1172 C1176 0.949 . S
C1173 C1174 1.349 . S
C1173 C1175 1.327 . S
C1173 H1196 0.950 . S
C1174 C1173 1.349 . S
C1174 C1186 1.349 . S
C1175 C1173 1.327 . S
C1175 C1191 1.429 . S
C1175 H1197 0.950 . S
C1176 H1172 0.949 . S
C1176 C1184 1.574 . S
C1176 C1192 1.368 . S
H1177 C1185 0.950 . S
H1178 C1183 0.950 . S
H1179 C1184 0.949 . S
H1180 C1186 0.950 . S
H1181 C1187 0.950 . S
H1182 C1188 0.949 . S
C1183 H1178 0.950 . S
C1183 C1185 1.327 . S
C1183 C1189 1.429 . S
C1184 C1176 1.574 . S
C1184 H1179 0.949 . S
C1184 C1190 1.368 . S
C1185 C1169 1.349 . S
C1185 H1177 0.950 . S
C1185 C1183 1.327 . S
C1186 C1174 1.349 . S
C1186 H1180 0.950 . S
C1186 C1187 1.327 . S
C1187 H1181 0.950 . S
C1187 C1186 1.327 . S
C1187 C1191 1.429 . S
C1188 C1171 1.574 . S
C1188 H1182 0.949 . S
C1188 C1192 1.368 . S
C1189 C1170 1.429 . S
C1189 C1183 1.429 . S
C1189 C1190 1.523 . S
C1190 C1171 1.368 . S
C1190 C1184 1.368 . S
C1190 C1189 1.523 . S
C1191 C1175 1.429 . S
C1191 C1187 1.429 . S
C1191 C1192 1.523 . S
C1192 C1176 1.368 . S
C1192 C1188 1.368 . S
C1192 C1191 1.523 . S
H1193 C1168 0.950 . S
H1194 C1170 0.950 . S
H1195 C1171 0.949 . S
H1196 C1173 0.950 . S
H1197 C1175 0.950 . S
C1198 C1199 1.349 1_455 S
C1198 C1200 1.327 . S
C1198 H1223 0.950 . S
C1199 C1198 1.349 1_655 S
C1199 C1215 1.349 . S
C1200 C1198 1.327 . S
C1200 C1219 1.429 . S
C1200 H1224 0.950 . S
C1201 C1218 1.574 . S
C1201 C1220 1.368 . S
C1201 H1225 0.949 . S
H1202 C1206 0.949 . S
C1203 C1204 1.349 . S
C1203 C1205 1.327 . S
C1203 H1226 0.950 . S
C1204 C1203 1.349 . S
C1204 C1216 1.349 . S
C1205 C1203 1.327 . S
C1205 C1221 1.429 . S
C1205 H1227 0.950 . S
C1206 H1202 0.949 . S
C1206 C1214 1.574 . S
C1206 C1222 1.368 . S
H1207 C1215 0.950 . S
H1208 C1213 0.950 . S
H1209 C1214 0.949 . S
H1210 C1216 0.950 . S
H1211 C1217 0.950 . S
H1212 C1218 0.949 . S
C1213 H1208 0.950 . S
C1213 C1215 1.327 1_455 S
C1213 C1219 1.429 . S
C1214 C1206 1.574 . S
C1214 H1209 0.949 . S
C1214 C1220 1.368 . S
C1215 C1199 1.349 . S
C1215 H1207 0.950 . S
C1215 C1213 1.327 1_655 S
C1216 C1204 1.349 . S
C1216 H1210 0.950 . S
C1216 C1217 1.327 . S
C1217 H1211 0.950 . S
C1217 C1216 1.327 . S
C1217 C1221 1.429 . S
C1218 C1201 1.574 . S
C1218 H1212 0.949 . S
C1218 C1222 1.368 . S
C1219 C1200 1.429 . S
C1219 C1213 1.429 . S
C1219 C1220 1.523 . S
C1220 C1201 1.368 . S
C1220 C1214 1.368 . S
C1220 C1219 1.523 . S
C1221 C1205 1.429 . S
C1221 C1217 1.429 . S
C1221 C1222 1.523 . S
C1222 C1206 1.368 . S
C1222 C1218 1.368 . S
C1222 C1221 1.523 . S
H1223 C1198 0.950 . S
H1224 C1200 0.950 . S
H1225 C1201 0.949 . S
H1226 C1203 0.950 . S
H1227 C1205 0.950 . S
C1228 C1229 1.349 . S
C1228 C1230 1.327 . S
C1228 H1253 0.950 . S
C1229 C1228 1.349 . S
C1229 C1245 1.349 . S
C1230 C1228 1.327 . S
C1230 C1249 1.429 . S
C1230 H1254 0.950 . S
C1231 C1248 1.574 . S
C1231 C1250 1.368 . S
C1231 H1255 0.949 . S
H1232 C1236 0.949 . S
C1233 C1234 1.349 . S
C1233 C1235 1.327 . S
C1233 H1256 0.950 . S
C1234 C1233 1.349 . S
C1234 C1246 1.349 . S
C1235 C1233 1.327 . S
C1235 C1251 1.429 . S
C1235 H1257 0.950 . S
C1236 H1232 0.949 . S
C1236 C1244 1.574 . S
C1236 C1252 1.368 . S
H1237 C1245 0.950 . S
H1238 C1243 0.950 . S
H1239 C1244 0.949 . S
H1240 C1246 0.950 . S
H1241 C1247 0.950 . S
H1242 C1248 0.949 . S
C1243 H1238 0.950 . S
C1243 C1245 1.327 . S
C1243 C1249 1.429 . S
C1244 C1236 1.574 . S
C1244 H1239 0.949 . S
C1244 C1250 1.368 . S
C1245 C1229 1.349 . S
C1245 H1237 0.950 . S
C1245 C1243 1.327 . S
C1246 C1234 1.349 . S
C1246 H1240 0.950 . S
C1246 C1247 1.327 . S
C1247 H1241 0.950 . S
C1247 C1246 1.327 . S
C1247 C1251 1.429 . S
C1248 C1231 1.574 . S
C1248 H1242 0.949 . S
C1248 C1252 1.368 . S
C1249 C1230 1.429 . S
C1249 C1243 1.429 . S
C1249 C1250 1.523 . S
C1250 C1231 1.368 . S
C1250 C1244 1.368 . S
C1250 C1249 1.523 . S
C1251 C1235 1.429 . S
C1251 C1247 1.429 . S
C1251 C1252 1.523 . S
C1252 C1236 1.368 . S
C1252 C1248 1.368 . S
C1252 C1251 1.523 . S
H1253 C1228 0.950 . S
H1254 C1230 0.950 . S
H1255 C1231 0.949 . S
H1256 C1233 0.950 . S
H1257 C1235 0.950 . S
C1258 C1259 1.349 . S
C1258 C1260 1.327 . S
C1258 H1283 0.950 . S
C1259 C1258 1.349 . S
C1259 C1275 1.349 . S
C1260 C1258 1.327 . S
C1260 C1279 1.429 . S
C1260 H1284 0.950 . S
C1261 C1278 1.574 . S
C1261 C1280 1.368 . S
C1261 H1285 0.949 . S
H1262 C1266 0.949 . S
C1263 C1264 1.349 . S
C1263 C1265 1.327 . S
C1263 H1286 0.950 . S
C1264 C1263 1.349 . S
C1264 C1276 1.349 . S
C1265 C1263 1.327 . S
C1265 C1281 1.429 . S
C1265 H1287 0.950 . S
C1266 H1262 0.949 . S
C1266 C1274 1.574 . S
C1266 C1282 1.368 . S
H1267 C1275 0.950 . S
H1268 C1273 0.950 . S
H1269 C1274 0.949 . S
H1270 C1276 0.950 . S
H1271 C1277 0.950 . S
H1272 C1278 0.949 . S
C1273 H1268 0.950 . S
C1273 C1275 1.327 . S
C1273 C1279 1.429 . S
C1274 C1266 1.574 . S
C1274 H1269 0.949 . S
C1274 C1280 1.368 . S
C1275 C1259 1.349 . S
C1275 H1267 0.950 . S
C1275 C1273 1.327 . S
C1276 C1264 1.349 . S
C1276 H1270 0.950 . S
C1276 C1277 1.327 . S
C1277 H1271 0.950 . S
C1277 C1276 1.327 . S
C1277 C1281 1.429 . S
C1278 C1261 1.574 . S
C1278 H1272 0.949 . S
C1278 C1282 1.368 . S
C1279 C1260 1.429 . S
C1279 C1273 1.429 . S
C1279 C1280 1.523 . S
C1280 C1261 1.368 . S
C1280 C1274 1.368 . S
C1280 C1279 1.523 . S
C1281 C1265 1.429 . S
C1281 C1277 1.429 . S
C1281 C1282 1.523 . S
C1282 C1266 1.368 . S
C1282 C1278 1.368 . S
C1282 C1281 1.523 . S
H1283 C1258 0.950 . S
H1284 C1260 0.950 . S
H1285 C1261 0.949 . S
H1286 C1263 0.950 . S
H1287 C1265 0.950 . S
C1288 C1289 1.349 . S
C1288 C1290 1.327 . S
C1288 H1313 0.950 . S
C1289 C1288 1.349 . S
C1289 C1305 1.349 . S
C1290 C1288 1.327 . S
C1290 C1309 1.429 . S
C1290 H1314 0.950 . S
C1291 C1308 1.574 . S
C1291 C1310 1.368 . S
C1291 H1315 0.949 . S
H1292 C1296 0.949 . S
C1293 C1294 1.349 . S
C1293 C1295 1.327 . S
C1293 H1316 0.950 . S
C1294 C1293 1.349 . S
C1294 C1306 1.349 . S
C1295 C1293 1.327 . S
C1295 C1311 1.429 . S
C1295 H1317 0.950 . S
C1296 H1292 0.949 . S
C1296 C1304 1.574 . S
C1296 C1312 1.368 . S
H1297 C1305 0.950 . S
H1298 C1303 0.950 . S
H1299 C1304 0.949 . S
H1300 C1306 0.950 . S
H1301 C1307 0.950 . S
H1302 C1308 0.949 . S
C1303 H1298 0.950 . S
C1303 C1305 1.327 . S
C1303 C1309 1.429 . S
C1304 C1296 1.574 . S
C1304 H1299 0.949 . S
C1304 C1310 1.368 . S
C1305 C1289 1.349 . S
C1305 H1297 0.950 . S
C1305 C1303 1.327 . S
C1306 C1294 1.349 . S
C1306 H1300 0.950 . S
C1306 C1307 1.327 . S
C1307 H1301 0.950 . S
C1307 C1306 1.327 . S
C1307 C1311 1.429 . S
C1308 C1291 1.574 . S
C1308 H1302 0.949 . S
C1308 C1312 1.368 . S
C1309 C1290 1.429 . S
C1309 C1303 1.429 . S
C1309 C1310 1.523 . S
C1310 C1291 1.368 . S
C1310 C1304 1.368 . S
C1310 C1309 1.523 . S
C1311 C1295 1.429 . S
C1311 C1307 1.429 . S
C1311 C1312 1.523 . S
C1312 C1296 1.368 . S
C1312 C1308 1.368 . S
C1312 C1311 1.523 . S
H1313 C1288 0.950 . S
H1314 C1290 0.950 . S
H1315 C1291 0.949 . S
H1316 C1293 0.950 . S
H1317 C1295 0.950 . S
C1318 C1319 1.349 . S
C1318 C1320 1.327 . S
C1318 H1343 0.950 . S
C1319 C1318 1.349 . S
C1319 C1335 1.349 . S
C1320 C1318 1.327 . S
C1320 C1339 1.429 . S
C1320 H1344 0.950 . S
C1321 C1338 1.574 . S
C1321 C1340 1.368 . S
C1321 H1345 0.949 . S
H1322 C1326 0.949 . S
C1323 C1324 1.349 . S
C1323 C1325 1.327 . S
C1323 H1346 0.950 . S
C1324 C1323 1.349 . S
C1324 C1336 1.349 . S
C1325 C1323 1.327 . S
C1325 C1341 1.429 . S
C1325 H1347 0.950 . S
C1326 H1322 0.949 . S
C1326 C1334 1.574 . S
C1326 C1342 1.368 . S
H1327 C1335 0.950 . S
H1328 C1333 0.950 . S
H1329 C1334 0.949 . S
H1330 C1336 0.950 . S
H1331 C1337 0.950 . S
H1332 C1338 0.949 . S
C1333 H1328 0.950 . S
C1333 C1335 1.327 . S
C1333 C1339 1.429 . S
C1334 C1326 1.574 . S
C1334 H1329 0.949 . S
C1334 C1340 1.368 . S
C1335 C1319 1.349 . S
C1335 H1327 0.950 . S
C1335 C1333 1.327 . S
C1336 C1324 1.349 . S
C1336 H1330 0.950 . S
C1336 C1337 1.327 . S
C1337 H1331 0.950 . S
C1337 C1336 1.327 . S
C1337 C1341 1.429 . S
C1338 C1321 1.574 . S
C1338 H1332 0.949 . S
C1338 C1342 1.368 . S
C1339 C1320 1.429 . S
C1339 C1333 1.429 . S
C1339 C1340 1.523 . S
C1340 C1321 1.368 . S
C1340 C1334 1.368 . S
C1340 C1339 1.523 . S
C1341 C1325 1.429 . S
C1341 C1337 1.429 . S
C1341 C1342 1.523 . S
C1342 C1326 1.368 . S
C1342 C1338 1.368 . S
C1342 C1341 1.523 . S
H1343 C1318 0.950 . S
H1344 C1320 0.950 . S
H1345 C1321 0.949 . S
H1346 C1323 0.950 . S
H1347 C1325 0.950 . S
C1348 C1349 1.349 . S
C1348 C1350 1.327 . S
C1348 H1373 0.950 . S
C1349 C1348 1.349 . S
C1349 C1365 1.349 . S
C1350 C1348 1.327 . S
C1350 C1369 1.429 . S
C1350 H1374 0.950 . S
C1351 C1368 1.574 . S
C1351 C1370 1.368 . S
C1351 H1375 0.949 . S
H1352 C1356 0.949 . S
C1353 C1354 1.349 . S
C1353 C1355 1.327 . S
C1353 H1376 0.950 . S
C1354 C1353 1.349 . S
C1354 C1366 1.349 . S
C1355 C1353 1.327 . S
C1355 C1371 1.429 . S
C1355 H1377 0.950 . S
C1356 H1352 0.949 . S
C1356 C1364 1.574 . S
C1356 C1372 1.368 . S
H1357 C1365 0.950 . S
H1358 C1363 0.950 . S
H1359 C1364 0.949 . S
H1360 C1366 0.950 . S
H1361 C1367 0.950 . S
H1362 C1368 0.949 . S
C1363 H1358 0.950 . S
C1363 C1365 1.327 . S
C1363 C1369 1.429 . S
C1364 C1356 1.574 . S
C1364 H1359 0.949 . S
C1364 C1370 1.368 . S
C1365 C1349 1.349 . S
C1365 H1357 0.950 . S
C1365 C1363 1.327 . S
C1366 C1354 1.349 . S
C1366 H1360 0.950 . S
C1366 C1367 1.327 . S
C1367 H1361 0.950 . S
C1367 C1366 1.327 . S
C1367 C1371 1.429 . S
C1368 C1351 1.574 . S
C1368 H1362 0.949 . S
C1368 C1372 1.368 . S
C1369 C1350 1.429 . S
C1369 C1363 1.429 . S
C1369 C1370 1.523 . S
C1370 C1351 1.368 . S
C1370 C1364 1.368 . S
C1370 C1369 1.523 . S
C1371 C1355 1.429 . S
C1371 C1367 1.429 . S
C1371 C1372 1.523 . S
C1372 C1356 1.368 . S
C1372 C1368 1.368 . S
C1372 C1371 1.523 . S
H1373 C1348 0.950 . S
H1374 C1350 0.950 . S
H1375 C1351 0.949 . S
H1376 C1353 0.950 . S
H1377 C1355 0.950 . S
C1378 C1379 1.349 . S
C1378 C1380 1.327 . S
C1378 H1403 0.950 . S
C1379 C1378 1.349 . S
C1379 C1395 1.349 . S
C1380 C1378 1.327 . S
C1380 C1399 1.429 . S
C1380 H1404 0.950 . S
C1381 C1398 1.574 . S
C1381 C1400 1.368 . S
C1381 H1405 0.949 . S
H1382 C1386 0.949 . S
C1383 C1384 1.349 1_455 S
C1383 C1385 1.327 . S
C1383 H1406 0.950 1_455 S
C1384 C1383 1.349 1_655 S
C1384 C1396 1.349 1_655 S
C1385 C1383 1.327 . S
C1385 C1401 1.429 . S
C1385 H1407 0.950 . S
C1386 H1382 0.949 . S
C1386 C1394 1.574 . S
C1386 C1402 1.368 . S
H1387 C1395 0.950 . S
H1388 C1393 0.950 . S
H1389 C1394 0.949 . S
H1390 C1396 0.950 1_655 S
H1391 C1397 0.950 . S
H1392 C1398 0.949 . S
C1393 H1388 0.950 . S
C1393 C1395 1.327 . S
C1393 C1399 1.429 . S
C1394 C1386 1.574 . S
C1394 H1389 0.949 . S
C1394 C1400 1.368 . S
C1395 C1379 1.349 . S
C1395 H1387 0.950 . S
C1395 C1393 1.327 . S
C1396 C1384 1.349 1_455 S
C1396 H1390 0.950 1_455 S
C1396 C1397 1.327 . S
C1397 H1391 0.950 . S
C1397 C1396 1.327 . S
C1397 C1401 1.429 . S
C1398 C1381 1.574 . S
C1398 H1392 0.949 . S
C1398 C1402 1.368 . S
C1399 C1380 1.429 . S
C1399 C1393 1.429 . S
C1399 C1400 1.523 . S
C1400 C1381 1.368 . S
C1400 C1394 1.368 . S
C1400 C1399 1.523 . S
C1401 C1385 1.429 . S
C1401 C1397 1.429 . S
C1401 C1402 1.523 . S
C1402 C1386 1.368 . S
C1402 C1398 1.368 . S
C1402 C1401 1.523 . S
H1403 C1378 0.950 . S
H1404 C1380 0.950 . S
H1405 C1381 0.949 . S
H1406 C1383 0.950 1_655 S
H1407 C1385 0.950 . S
C1408 C1409 1.349 . S
C1408 C1410 1.327 . S
C1408 H1433 0.950 . S
C1409 C1408 1.349 . S
C1409 C1425 1.349 . S
C1410 C1408 1.327 . S
C1410 C1429 1.429 . S
C1410 H1434 0.950 . S
C1411 C1428 1.574 . S
C1411 C1430 1.368 . S
C1411 H1435 0.949 . S
H1412 C1416 0.949 . S
C1413 C1414 1.349 . S
C1413 C1415 1.327 . S
C1413 H1436 0.950 . S
C1414 C1413 1.349 . S
C1414 C1426 1.349 . S
C1415 C1413 1.327 . S
C1415 C1431 1.429 . S
C1415 H1437 0.950 . S
C1416 H1412 0.949 . S
C1416 C1424 1.574 . S
C1416 C1432 1.368 . S
H1417 C1425 0.950 . S
H1418 C1423 0.950 . S
H1419 C1424 0.949 . S
H1420 C1426 0.950 . S
H1421 C1427 0.950 . S
H1422 C1428 0.949 . S
C1423 H1418 0.950 . S
C1423 C1425 1.327 . S
C1423 C1429 1.429 . S
C1424 C1416 1.574 . S
C1424 H1419 0.949 . S
C1424 C1430 1.368 . S
C1425 C1409 1.349 . S
C1425 H1417 0.950 . S
C1425 C1423 1.327 . S
C1426 C1414 1.349 . S
C1426 H1420 0.950 . S
C1426 C1427 1.327 . S
C1427 H1421 0.950 . S
C1427 C1426 1.327 . S
C1427 C1431 1.429 . S
C1428 C1411 1.574 . S
C1428 H1422 0.949 . S
C1428 C1432 1.368 . S
C1429 C1410 1.429 . S
C1429 C1423 1.429 . S
C1429 C1430 1.523 . S
C1430 C1411 1.368 . S
C1430 C1424 1.368 . S
C1430 C1429 1.523 . S
C1431 C1415 1.429 . S
C1431 C1427 1.429 . S
C1431 C1432 1.523 . S
C1432 C1416 1.368 . S
C1432 C1428 1.368 . S
C1432 C1431 1.523 . S
H1433 C1408 0.950 . S
H1434 C1410 0.950 . S
H1435 C1411 0.949 . S
H1436 C1413 0.950 . S
H1437 C1415 0.950 . S
C1438 C1439 1.349 . S
C1438 C1440 1.327 . S
C1438 H1463 0.950 . S
C1439 C1438 1.349 . S
C1439 C1455 1.349 . S
C1440 C1438 1.327 . S
C1440 C1459 1.429 . S
C1440 H1464 0.950 . S
C1441 C1458 1.574 . S
C1441 C1460 1.368 . S
C1441 H1465 0.949 . S
H1442 C1446 0.949 . S
C1443 C1444 1.349 . S
C1443 C1445 1.327 . S
C1443 H1466 0.950 . S
C1444 C1443 1.349 . S
C1444 C1456 1.349 . S
C1445 C1443 1.327 . S
C1445 C1461 1.429 . S
C1445 H1467 0.950 . S
C1446 H1442 0.949 . S
C1446 C1454 1.574 . S
C1446 C1462 1.368 . S
H1447 C1455 0.950 . S
H1448 C1453 0.950 . S
H1449 C1454 0.949 . S
H1450 C1456 0.950 . S
H1451 C1457 0.950 . S
H1452 C1458 0.949 . S
C1453 H1448 0.950 . S
C1453 C1455 1.327 . S
C1453 C1459 1.429 . S
C1454 C1446 1.574 . S
C1454 H1449 0.949 . S
C1454 C1460 1.368 . S
C1455 C1439 1.349 . S
C1455 H1447 0.950 . S
C1455 C1453 1.327 . S
C1456 C1444 1.349 . S
C1456 H1450 0.950 . S
C1456 C1457 1.327 . S
C1457 H1451 0.950 . S
C1457 C1456 1.327 . S
C1457 C1461 1.429 . S
C1458 C1441 1.574 . S
C1458 H1452 0.949 . S
C1458 C1462 1.368 . S
C1459 C1440 1.429 . S
C1459 C1453 1.429 . S
C1459 C1460 1.523 . S
C1460 C1441 1.368 . S
C1460 C1454 1.368 . S
C1460 C1459 1.523 . S
C1461 C1445 1.429 . S
C1461 C1457 1.429 . S
C1461 C1462 1.523 . S
C1462 C1446 1.368 . S
C1462 C1458 1.368 . S
C1462 C1461 1.523 . S
H1463 C1438 0.950 . S
H1464 C1440 0.950 . S
H1465 C1441 0.949 . S
H1466 C1443 0.950 . S
H1467 C1445 0.950 . S
C1468 C1469 1.349 . S
C1468 C1470 1.327 . S
C1468 H1493 0.950 . S
C1469 C1468 1.349 . S
C1469 C1485 1.349 . S
C1470 C1468 1.327 . S
C1470 C1489 1.429 . S
C1470 H1494 0.950 . S
C1471 C1488 1.574 . S
C1471 C1490 1.368 . S
C1471 H1495 0.949 . S
H1472 C1476 0.949 . S
C1473 C1474 1.349 . S
C1473 C1475 1.327 . S
C1473 H1496 0.950 . S
C1474 C1473 1.349 . S
C1474 C1486 1.349 . S
C1475 C1473 1.327 . S
C1475 C1491 1.429 . S
C1475 H1497 0.950 . S
C1476 H1472 0.949 . S
C1476 C1484 1.574 . S
C1476 C1492 1.368 . S
H1477 C1485 0.950 . S
H1478 C1483 0.950 . S
H1479 C1484 0.949 . S
H1480 C1486 0.950 . S
H1481 C1487 0.950 . S
H1482 C1488 0.949 . S
C1483 H1478 0.950 . S
C1483 C1485 1.327 . S
C1483 C1489 1.429 . S
C1484 C1476 1.574 . S
C1484 H1479 0.949 . S
C1484 C1490 1.368 . S
C1485 C1469 1.349 . S
C1485 H1477 0.950 . S
C1485 C1483 1.327 . S
C1486 C1474 1.349 . S
C1486 H1480 0.950 . S
C1486 C1487 1.327 . S
C1487 H1481 0.950 . S
C1487 C1486 1.327 . S
C1487 C1491 1.429 . S
C1488 C1471 1.574 . S
C1488 H1482 0.949 . S
C1488 C1492 1.368 . S
C1489 C1470 1.429 . S
C1489 C1483 1.429 . S
C1489 C1490 1.523 . S
C1490 C1471 1.368 . S
C1490 C1484 1.368 . S
C1490 C1489 1.523 . S
C1491 C1475 1.429 . S
C1491 C1487 1.429 . S
C1491 C1492 1.523 . S
C1492 C1476 1.368 . S
C1492 C1488 1.368 . S
C1492 C1491 1.523 . S
H1493 C1468 0.950 . S
H1494 C1470 0.950 . S
H1495 C1471 0.949 . S
H1496 C1473 0.950 . S
H1497 C1475 0.950 . S
C1498 C1499 1.349 . S
C1498 C1500 1.327 . S
C1498 H1523 0.950 . S
C1499 C1498 1.349 . S
C1499 C1515 1.349 . S
C1500 C1498 1.327 . S
C1500 C1519 1.429 . S
C1500 H1524 0.950 . S
C1501 C1518 1.574 . S
C1501 C1520 1.368 . S
C1501 H1525 0.949 . S
H1502 C1506 0.949 . S
C1503 C1504 1.349 . S
C1503 C1505 1.327 1_655 S
C1503 H1526 0.950 . S
C1504 C1503 1.349 . S
C1504 C1516 1.349 1_655 S
C1505 C1503 1.327 1_455 S
C1505 C1521 1.429 . S
C1505 H1527 0.950 . S
C1506 H1502 0.949 . S
C1506 C1514 1.574 . S
C1506 C1522 1.368 . S
H1507 C1515 0.950 . S
H1508 C1513 0.950 . S
H1509 C1514 0.949 . S
H1510 C1516 0.950 . S
H1511 C1517 0.950 . S
H1512 C1518 0.949 . S
C1513 H1508 0.950 . S
C1513 C1515 1.327 . S
C1513 C1519 1.429 . S
C1514 C1506 1.574 . S
C1514 H1509 0.949 . S
C1514 C1520 1.368 . S
C1515 C1499 1.349 . S
C1515 H1507 0.950 . S
C1515 C1513 1.327 . S
C1516 C1504 1.349 1_455 S
C1516 H1510 0.950 . S
C1516 C1517 1.327 . S
C1517 H1511 0.950 . S
C1517 C1516 1.327 . S
C1517 C1521 1.429 . S
C1518 C1501 1.574 . S
C1518 H1512 0.949 . S
C1518 C1522 1.368 . S
C1519 C1500 1.429 . S
C1519 C1513 1.429 . S
C1519 C1520 1.523 . S
C1520 C1501 1.368 . S
C1520 C1514 1.368 . S
C1520 C1519 1.523 . S
C1521 C1505 1.429 . S
C1521 C1517 1.429 . S
C1521 C1522 1.523 . S
C1522 C1506 1.368 . S
C1522 C1518 1.368 . S
C1522 C1521 1.523 . S
H1523 C1498 0.950 . S
H1524 C1500 0.950 . S
H1525 C1501 0.949 . S
H1526 C1503 0.950 . S
H1527 C1505 0.950 . S
C1528 C1529 1.349 . S
C1528 C1530 1.327 . S
C1528 H1553 0.950 . S
C1529 C1528 1.349 . S
C1529 C1545 1.349 . S
C1530 C1528 1.327 . S
C1530 C1549 1.429 . S
C1530 H1554 0.950 . S
C1531 C1548 1.574 . S
C1531 C1550 1.368 . S
C1531 H1555 0.949 . S
H1532 C1536 0.949 . S
C1533 C1534 1.349 . S
C1533 C1535 1.327 . S
C1533 H1556 0.950 . S
C1534 C1533 1.349 . S
C1534 C1546 1.349 . S
C1535 C1533 1.327 . S
C1535 C1551 1.429 . S
C1535 H1557 0.950 . S
C1536 H1532 0.949 . S
C1536 C1544 1.574 . S
C1536 C1552 1.368 . S
H1537 C1545 0.950 . S
H1538 C1543 0.950 . S
H1539 C1544 0.949 . S
H1540 C1546 0.950 . S
H1541 C1547 0.950 . S
H1542 C1548 0.949 . S
C1543 H1538 0.950 . S
C1543 C1545 1.327 . S
C1543 C1549 1.429 . S
C1544 C1536 1.574 . S
C1544 H1539 0.949 . S
C1544 C1550 1.368 . S
C1545 C1529 1.349 . S
C1545 H1537 0.950 . S
C1545 C1543 1.327 . S
C1546 C1534 1.349 . S
C1546 H1540 0.950 . S
C1546 C1547 1.327 . S
C1547 H1541 0.950 . S
C1547 C1546 1.327 . S
C1547 C1551 1.429 . S
C1548 C1531 1.574 . S
C1548 H1542 0.949 . S
C1548 C1552 1.368 . S
C1549 C1530 1.429 . S
C1549 C1543 1.429 . S
C1549 C1550 1.523 . S
C1550 C1531 1.368 . S
C1550 C1544 1.368 . S
C1550 C1549 1.523 . S
C1551 C1535 1.429 . S
C1551 C1547 1.429 . S
C1551 C1552 1.523 . S
C1552 C1536 1.368 . S
C1552 C1548 1.368 . S
C1552 C1551 1.523 . S
H1553 C1528 0.950 . S
H1554 C1530 0.950 . S
H1555 C1531 0.949 . S
H1556 C1533 0.950 . S
H1557 C1535 0.950 . S
C1558 C1559 1.349 1_455 S
C1558 C1560 1.327 . S
C1558 H1583 0.941 1_455 S
C1559 C1558 1.349 1_655 S
C1559 C1575 1.330 1_655 S
C1560 C1558 1.327 . S
C1560 C1579 1.429 . S
C1560 H1584 0.950 . S
C1561 C1578 1.574 . S
C1561 C1580 1.368 . S
C1561 H1585 0.949 . S
H1562 C1566 0.949 . S
C1563 C1564 1.349 . S
C1563 C1565 1.327 . S
C1563 H1586 0.950 . S
C1564 C1563 1.349 . S
C1564 C1576 1.349 . S
C1565 C1563 1.327 . S
C1565 C1581 1.429 . S
C1565 H1587 0.950 . S
C1566 H1562 0.949 . S
C1566 C1574 1.574 . S
C1566 C1582 1.368 . S
H1567 C1575 0.922 1_655 S
H1568 C1573 0.950 . S
H1569 C1574 0.949 . S
H1570 C1576 0.950 . S
H1571 C1577 0.950 . S
H1572 C1578 0.949 . S
C1573 H1568 0.950 . S
C1573 C1575 1.377 . S
C1573 C1579 1.429 . S
C1574 C1566 1.574 . S
C1574 H1569 0.949 . S
C1574 C1580 1.368 . S
C1575 C1559 1.330 1_455 S
C1575 H1567 0.922 1_455 S
C1575 C1573 1.377 . S
C1576 C1564 1.349 . S
C1576 H1570 0.950 . S
C1576 C1577 1.327 . S
C1577 H1571 0.950 . S
C1577 C1576 1.327 . S
C1577 C1581 1.429 . S
C1578 C1561 1.574 . S
C1578 H1572 0.949 . S
C1578 C1582 1.368 . S
C1579 C1560 1.429 . S
C1579 C1573 1.429 . S
C1579 C1580 1.523 . S
C1580 C1561 1.368 . S
C1580 C1574 1.368 . S
C1580 C1579 1.523 . S
C1581 C1565 1.429 . S
C1581 C1577 1.429 . S
C1581 C1582 1.523 . S
C1582 C1566 1.368 . S
C1582 C1578 1.368 . S
C1582 C1581 1.523 . S
H1583 C1558 0.941 1_655 S
H1584 C1560 0.950 . S
H1585 C1561 0.949 . S
H1586 C1563 0.950 . S
H1587 C1565 0.950 . S
C1588 C1589 1.349 . S
C1588 C1590 1.327 . S
C1588 H1613 0.950 . S
C1589 C1588 1.349 . S
C1589 C1605 1.349 . S
C1590 C1588 1.327 . S
C1590 C1609 1.429 . S
C1590 H1614 0.950 . S
C1591 C1608 1.574 . S
C1591 C1610 1.368 . S
C1591 H1615 0.949 . S
H1592 C1596 0.949 . S
C1593 C1594 1.349 . S
C1593 C1595 1.327 . S
C1593 H1616 0.950 . S
C1594 C1593 1.349 . S
C1594 C1606 1.349 . S
C1595 C1593 1.327 . S
C1595 C1611 1.429 . S
C1595 H1617 0.950 . S
C1596 H1592 0.949 . S
C1596 C1604 1.574 . S
C1596 C1612 1.368 . S
H1597 C1605 0.950 . S
H1598 C1603 0.950 . S
H1599 C1604 0.949 . S
H1600 C1606 0.950 . S
H1601 C1607 0.950 . S
H1602 C1608 0.949 . S
C1603 H1598 0.950 . S
C1603 C1605 1.327 . S
C1603 C1609 1.429 . S
C1604 C1596 1.574 . S
C1604 H1599 0.949 . S
C1604 C1610 1.368 . S
C1605 C1589 1.349 . S
C1605 H1597 0.950 . S
C1605 C1603 1.327 . S
C1606 C1594 1.349 . S
C1606 H1600 0.950 . S
C1606 C1607 1.327 . S
C1607 H1601 0.950 . S
C1607 C1606 1.327 . S
C1607 C1611 1.429 . S
C1608 C1591 1.574 . S
C1608 H1602 0.949 . S
C1608 C1612 1.368 . S
C1609 C1590 1.429 . S
C1609 C1603 1.429 . S
C1609 C1610 1.523 . S
C1610 C1591 1.368 . S
C1610 C1604 1.368 . S
C1610 C1609 1.523 . S
C1611 C1595 1.429 . S
C1611 C1607 1.429 . S
C1611 C1612 1.523 . S
C1612 C1596 1.368 . S
C1612 C1608 1.368 . S
C1612 C1611 1.523 . S
H1613 C1588 0.950 . S
H1614 C1590 0.950 . S
H1615 C1591 0.949 . S
H1616 C1593 0.950 . S
H1617 C1595 0.950 . S
C1618 C1619 1.349 . S
C1618 C1620 1.327 . S
C1618 H1643 0.950 . S
C1619 C1618 1.349 . S
C1619 C1635 1.349 . S
C1620 C1618 1.327 . S
C1620 C1639 1.429 . S
C1620 H1644 0.950 . S
C1621 C1638 1.574 . S
C1621 C1640 1.368 . S
C1621 H1645 0.949 . S
H1622 C1626 0.949 . S
C1623 C1624 1.349 . S
C1623 C1625 1.327 . S
C1623 H1646 0.950 . S
C1624 C1623 1.349 . S
C1624 C1636 1.349 . S
C1625 C1623 1.327 . S
C1625 C1641 1.429 . S
C1625 H1647 0.950 . S
C1626 H1622 0.949 . S
C1626 C1634 1.574 . S
C1626 C1642 1.368 . S
H1627 C1635 0.950 . S
H1628 C1633 0.950 . S
H1629 C1634 0.949 . S
H1630 C1636 0.950 . S
H1631 C1637 0.950 . S
H1632 C1638 0.949 . S
C1633 H1628 0.950 . S
C1633 C1635 1.327 . S
C1633 C1639 1.429 . S
C1634 C1626 1.574 . S
C1634 H1629 0.949 . S
C1634 C1640 1.368 . S
C1635 C1619 1.349 . S
C1635 H1627 0.950 . S
C1635 C1633 1.327 . S
C1636 C1624 1.349 . S
C1636 H1630 0.950 . S
C1636 C1637 1.327 . S
C1637 H1631 0.950 . S
C1637 C1636 1.327 . S
C1637 C1641 1.429 . S
C1638 C1621 1.574 . S
C1638 H1632 0.949 . S
C1638 C1642 1.368 . S
C1639 C1620 1.429 . S
C1639 C1633 1.429 . S
C1639 C1640 1.523 . S
C1640 C1621 1.368 . S
C1640 C1634 1.368 . S
C1640 C1639 1.523 . S
C1641 C1625 1.429 . S
C1641 C1637 1.429 . S
C1641 C1642 1.523 . S
C1642 C1626 1.368 . S
C1642 C1638 1.368 . S
C1642 C1641 1.523 . S
H1643 C1618 0.950 . S
H1644 C1620 0.950 . S
H1645 C1621 0.949 . S
H1646 C1623 0.950 . S
H1647 C1625 0.950 . S
C1648 C1649 1.349 . S
C1648 C1650 1.327 . S
C1648 H1673 0.950 . S
C1649 C1648 1.349 . S
C1649 C1665 1.349 . S
C1650 C1648 1.327 . S
C1650 C1669 1.429 . S
C1650 H1674 0.950 . S
C1651 C1668 1.574 . S
C1651 C1670 1.368 . S
C1651 H1675 0.949 . S
H1652 C1656 0.949 . S
C1653 C1654 1.349 . S
C1653 C1655 1.327 . S
C1653 H1676 0.950 . S
C1654 C1653 1.349 . S
C1654 C1666 1.349 . S
C1655 C1653 1.327 . S
C1655 C1671 1.429 . S
C1655 H1677 0.950 . S
C1656 H1652 0.949 . S
C1656 C1664 1.574 . S
C1656 C1672 1.368 . S
H1657 C1665 0.950 . S
H1658 C1663 0.950 . S
H1659 C1664 0.949 . S
H1660 C1666 0.950 . S
H1661 C1667 0.950 . S
H1662 C1668 0.949 . S
C1663 H1658 0.950 . S
C1663 C1665 1.327 . S
C1663 C1669 1.429 . S
C1664 C1656 1.574 . S
C1664 H1659 0.949 . S
C1664 C1670 1.368 . S
C1665 C1649 1.349 . S
C1665 H1657 0.950 . S
C1665 C1663 1.327 . S
C1666 C1654 1.349 . S
C1666 H1660 0.950 . S
C1666 C1667 1.327 . S
C1667 H1661 0.950 . S
C1667 C1666 1.327 . S
C1667 C1671 1.429 . S
C1668 C1651 1.574 . S
C1668 H1662 0.949 . S
C1668 C1672 1.368 . S
C1669 C1650 1.429 . S
C1669 C1663 1.429 . S
C1669 C1670 1.523 . S
C1670 C1651 1.368 . S
C1670 C1664 1.368 . S
C1670 C1669 1.523 . S
C1671 C1655 1.429 . S
C1671 C1667 1.429 . S
C1671 C1672 1.523 . S
C1672 C1656 1.368 . S
C1672 C1668 1.368 . S
C1672 C1671 1.523 . S
H1673 C1648 0.950 . S
H1674 C1650 0.950 . S
H1675 C1651 0.949 . S
H1676 C1653 0.950 . S
H1677 C1655 0.950 . S
C1678 C1679 1.349 . S
C1678 C1680 1.327 . S
C1678 H1703 0.950 . S
C1679 C1678 1.349 . S
C1679 C1695 1.349 . S
C1680 C1678 1.327 . S
C1680 C1699 1.429 . S
C1680 H1704 0.950 . S
C1681 C1698 1.574 . S
C1681 C1700 1.368 . S
C1681 H1705 0.949 . S
H1682 C1686 0.949 . S
C1683 C1684 1.349 . S
C1683 C1685 1.327 . S
C1683 H1706 0.950 . S
C1684 C1683 1.349 . S
C1684 C1696 1.349 . S
C1685 C1683 1.327 . S
C1685 C1701 1.429 . S
C1685 H1707 0.950 . S
C1686 H1682 0.949 . S
C1686 C1694 1.574 . S
C1686 C1702 1.368 . S
H1687 C1695 0.950 . S
H1688 C1693 0.950 . S
H1689 C1694 0.949 . S
H1690 C1696 0.950 . S
H1691 C1697 0.950 . S
H1692 C1698 0.949 . S
C1693 H1688 0.950 . S
C1693 C1695 1.327 . S
C1693 C1699 1.429 . S
C1694 C1686 1.574 . S
C1694 H1689 0.949 . S
C1694 C1700 1.368 . S
C1695 C1679 1.349 . S
C1695 H1687 0.950 . S
C1695 C1693 1.327 . S
C1696 C1684 1.349 . S
C1696 H1690 0.950 . S
C1696 C1697 1.327 . S
C1697 H1691 0.950 . S
C1697 C1696 1.327 . S
C1697 C1701 1.429 . S
C1698 C1681 1.574 . S
C1698 H1692 0.949 . S
C1698 C1702 1.368 . S
C1699 C1680 1.429 . S
C1699 C1693 1.429 . S
C1699 C1700 1.523 . S
C1700 C1681 1.368 . S
C1700 C1694 1.368 . S
C1700 C1699 1.523 . S
C1701 C1685 1.429 . S
C1701 C1697 1.429 . S
C1701 C1702 1.523 . S
C1702 C1686 1.368 . S
C1702 C1698 1.368 . S
C1702 C1701 1.523 . S
H1703 C1678 0.950 . S
H1704 C1680 0.950 . S
H1705 C1681 0.949 . S
H1706 C1683 0.950 . S
H1707 C1685 0.950 . S
C1708 C1709 1.349 . S
C1708 C1710 1.327 . S
C1708 H1733 0.950 . S
C1709 C1708 1.349 . S
C1709 C1725 1.349 . S
C1710 C1708 1.327 . S
C1710 C1729 1.429 . S
C1710 H1734 0.950 . S
C1711 C1728 1.574 . S
C1711 C1730 1.368 . S
C1711 H1735 0.949 . S
H1712 C1716 0.949 . S
C1713 C1714 1.349 . S
C1713 C1715 1.327 . S
C1713 H1736 0.950 . S
C1714 C1713 1.349 . S
C1714 C1726 1.349 . S
C1715 C1713 1.327 . S
C1715 C1731 1.429 . S
C1715 H1737 0.950 . S
C1716 H1712 0.949 . S
C1716 C1724 1.574 . S
C1716 C1732 1.368 . S
H1717 C1725 0.950 . S
H1718 C1723 0.950 . S
H1719 C1724 0.949 . S
H1720 C1726 0.950 . S
H1721 C1727 0.950 . S
H1722 C1728 0.949 . S
C1723 H1718 0.950 . S
C1723 C1725 1.327 . S
C1723 C1729 1.429 . S
C1724 C1716 1.574 . S
C1724 H1719 0.949 . S
C1724 C1730 1.368 . S
C1725 C1709 1.349 . S
C1725 H1717 0.950 . S
C1725 C1723 1.327 . S
C1726 C1714 1.349 . S
C1726 H1720 0.950 . S
C1726 C1727 1.327 . S
C1727 H1721 0.950 . S
C1727 C1726 1.327 . S
C1727 C1731 1.429 . S
C1728 C1711 1.574 . S
C1728 H1722 0.949 . S
C1728 C1732 1.368 . S
C1729 C1710 1.429 . S
C1729 C1723 1.429 . S
C1729 C1730 1.523 . S
C1730 C1711 1.368 . S
C1730 C1724 1.368 . S
C1730 C1729 1.523 . S
C1731 C1715 1.429 . S
C1731 C1727 1.429 . S
C1731 C1732 1.523 . S
C1732 C1716 1.368 . S
C1732 C1728 1.368 . S
C1732 C1731 1.523 . S
H1733 C1708 0.950 . S
H1734 C1710 0.950 . S
H1735 C1711 0.949 . S
H1736 C1713 0.950 . S
H1737 C1715 0.950 . S
C1738 C1739 1.349 . S
C1738 C1740 1.327 . S
C1738 H1763 0.950 . S
C1739 C1738 1.349 . S
C1739 C1755 1.349 . S
C1740 C1738 1.327 . S
C1740 C1759 1.429 . S
C1740 H1764 0.950 . S
C1741 C1758 1.574 . S
C1741 C1760 1.368 . S
C1741 H1765 0.949 . S
H1742 C1746 0.949 . S
C1743 C1744 1.349 . S
C1743 C1745 1.327 1_455 S
C1743 H1766 0.950 . S
C1744 C1743 1.349 . S
C1744 C1756 1.349 1_455 S
C1745 C1743 1.327 1_655 S
C1745 C1761 1.429 . S
C1745 H1767 0.967 . S
C1746 H1742 0.949 . S
C1746 C1754 1.574 . S
C1746 C1762 1.368 . S
H1747 C1755 0.950 . S
H1748 C1753 0.950 . S
H1749 C1754 0.949 . S
H1750 C1756 0.950 . S
H1751 C1757 0.950 . S
H1752 C1758 0.949 . S
C1753 H1748 0.950 . S
C1753 C1755 1.327 . S
C1753 C1759 1.429 . S
C1754 C1746 1.574 . S
C1754 H1749 0.949 . S
C1754 C1760 1.368 . S
C1755 C1739 1.349 . S
C1755 H1747 0.950 . S
C1755 C1753 1.327 . S
C1756 C1744 1.349 1_655 S
C1756 H1750 0.950 . S
C1756 C1757 1.327 . S
C1757 H1751 0.950 . S
C1757 C1756 1.327 . S
C1757 C1761 1.429 . S
C1758 C1741 1.574 . S
C1758 H1752 0.949 . S
C1758 C1762 1.368 . S
C1759 C1740 1.429 . S
C1759 C1753 1.429 . S
C1759 C1760 1.523 . S
C1760 C1741 1.368 . S
C1760 C1754 1.368 . S
C1760 C1759 1.523 . S
C1761 C1745 1.429 . S
C1761 C1757 1.429 . S
C1761 C1762 1.523 . S
C1762 C1746 1.368 . S
C1762 C1758 1.368 . S
C1762 C1761 1.523 . S
H1763 C1738 0.950 . S
H1764 C1740 0.950 . S
H1765 C1741 0.949 . S
H1766 C1743 0.950 . S
H1767 C1745 0.967 . S
C1768 C1769 1.349 . S
C1768 C1770 1.327 . S
C1768 H1793 0.950 . S
C1769 C1768 1.349 . S
C1769 C1785 1.349 . S
C1770 C1768 1.327 . S
C1770 C1789 1.429 . S
C1770 H1794 0.950 . S
C1771 C1788 1.574 . S
C1771 C1790 1.368 . S
C1771 H1795 0.949 . S
H1772 C1776 0.949 . S
C1773 C1774 1.349 . S
C1773 C1775 1.327 . S
C1773 H1796 0.950 . S
C1774 C1773 1.349 . S
C1774 C1786 1.349 . S
C1775 C1773 1.327 . S
C1775 C1791 1.429 . S
C1775 H1797 0.950 . S
C1776 H1772 0.949 . S
C1776 C1784 1.574 . S
C1776 C1792 1.368 . S
H1777 C1785 0.950 . S
H1778 C1783 0.950 . S
H1779 C1784 0.949 . S
H1780 C1786 0.950 . S
H1781 C1787 0.950 . S
H1782 C1788 0.949 . S
C1783 H1778 0.950 . S
C1783 C1785 1.327 . S
C1783 C1789 1.429 . S
C1784 C1776 1.574 . S
C1784 H1779 0.949 . S
C1784 C1790 1.368 . S
C1785 C1769 1.349 . S
C1785 H1777 0.950 . S
C1785 C1783 1.327 . S
C1786 C1774 1.349 . S
C1786 H1780 0.950 . S
C1786 C1787 1.327 . S
C1787 H1781 0.950 . S
C1787 C1786 1.327 . S
C1787 C1791 1.429 . S
C1788 C1771 1.574 . S
C1788 H1782 0.949 . S
C1788 C1792 1.368 . S
C1789 C1770 1.429 . S
C1789 C1783 1.429 . S
C1789 C1790 1.523 . S
C1790 C1771 1.368 . S
C1790 C1784 1.368 . S
C1790 C1789 1.523 . S
C1791 C1775 1.429 . S
C1791 C1787 1.429 . S
C1791 C1792 1.523 . S
C1792 C1776 1.368 . S
C1792 C1788 1.368 . S
C1792 C1791 1.523 . S
H1793 C1768 0.950 . S
H1794 C1770 0.950 . S
H1795 C1771 0.949 . S
H1796 C1773 0.950 . S
H1797 C1775 0.950 . S
C1798 C1799 1.349 1_655 S
C1798 C1800 1.327 . S
C1798 H1823 0.950 . S
C1799 C1798 1.349 1_455 S
C1799 C1815 1.349 . S
C1800 C1798 1.327 . S
C1800 C1819 1.429 . S
C1800 H1824 0.950 . S
C1801 C1818 1.574 . S
C1801 C1820 1.368 . S
C1801 H1825 0.949 . S
H1802 C1806 0.949 . S
C1803 C1804 1.349 . S
C1803 C1805 1.327 . S
C1803 H1826 0.950 . S
C1804 C1803 1.349 . S
C1804 C1816 1.349 . S
C1805 C1803 1.327 . S
C1805 C1821 1.429 . S
C1805 H1827 0.950 . S
C1806 H1802 0.949 . S
C1806 C1814 1.574 . S
C1806 C1822 1.368 . S
H1807 C1815 0.950 . S
H1808 C1813 0.950 . S
H1809 C1814 0.949 . S
H1810 C1816 0.950 . S
H1811 C1817 0.950 . S
H1812 C1818 0.949 . S
C1813 H1808 0.950 . S
C1813 C1815 1.327 1_655 S
C1813 C1819 1.429 . S
C1814 C1806 1.574 . S
C1814 H1809 0.949 . S
C1814 C1820 1.368 . S
C1815 C1799 1.349 . S
C1815 H1807 0.950 . S
C1815 C1813 1.327 1_455 S
C1816 C1804 1.349 . S
C1816 H1810 0.950 . S
C1816 C1817 1.327 . S
C1817 H1811 0.950 . S
C1817 C1816 1.327 . S
C1817 C1821 1.429 . S
C1818 C1801 1.574 . S
C1818 H1812 0.949 . S
C1818 C1822 1.368 . S
C1819 C1800 1.429 . S
C1819 C1813 1.429 . S
C1819 C1820 1.523 . S
C1820 C1801 1.368 . S
C1820 C1814 1.368 . S
C1820 C1819 1.523 . S
C1821 C1805 1.429 . S
C1821 C1817 1.429 . S
C1821 C1822 1.523 . S
C1822 C1806 1.368 . S
C1822 C1818 1.368 . S
C1822 C1821 1.523 . S
H1823 C1798 0.950 . S
H1824 C1800 0.950 . S
H1825 C1801 0.949 . S
H1826 C1803 0.950 . S
H1827 C1805 0.950 . S
C1828 C1829 1.349 . S
C1828 C1830 1.327 . S
C1828 H1853 0.950 . S
C1829 C1828 1.349 . S
C1829 C1845 1.349 . S
C1830 C1828 1.327 . S
C1830 C1849 1.429 . S
C1830 H1854 0.950 . S
C1831 C1848 1.574 . S
C1831 C1850 1.368 . S
C1831 H1855 0.949 . S
H1832 C1836 0.949 . S
C1833 C1834 1.349 . S
C1833 C1835 1.327 . S
C1833 H1856 0.950 . S
C1834 C1833 1.349 . S
C1834 C1846 1.349 . S
C1835 C1833 1.327 . S
C1835 C1851 1.429 . S
C1835 H1857 0.950 . S
C1836 H1832 0.949 . S
C1836 C1844 1.574 . S
C1836 C1852 1.368 . S
H1837 C1845 0.950 . S
H1838 C1843 0.950 . S
H1839 C1844 0.949 . S
H1840 C1846 0.950 . S
H1841 C1847 0.950 . S
H1842 C1848 0.949 . S
C1843 H1838 0.950 . S
C1843 C1845 1.327 . S
C1843 C1849 1.429 . S
C1844 C1836 1.574 . S
C1844 H1839 0.949 . S
C1844 C1850 1.368 . S
C1845 C1829 1.349 . S
C1845 H1837 0.950 . S
C1845 C1843 1.327 . S
C1846 C1834 1.349 . S
C1846 H1840 0.950 . S
C1846 C1847 1.327 . S
C1847 H1841 0.950 . S
C1847 C1846 1.327 . S
C1847 C1851 1.429 . S
C1848 C1831 1.574 . S
C1848 H1842 0.949 . S
C1848 C1852 1.368 . S
C1849 C1830 1.429 . S
C1849 C1843 1.429 . S
C1849 C1850 1.523 . S
C1850 C1831 1.368 . S
C1850 C1844 1.368 . S
C1850 C1849 1.523 . S
C1851 C1835 1.429 . S
C1851 C1847 1.429 . S
C1851 C1852 1.523 . S
C1852 C1836 1.368 . S
C1852 C1848 1.368 . S
C1852 C1851 1.523 . S
H1853 C1828 0.950 . S
H1854 C1830 0.950 . S
H1855 C1831 0.949 . S
H1856 C1833 0.950 . S
H1857 C1835 0.950 . S
C1858 C1859 1.349 . S
C1858 C1860 1.327 . S
C1858 H1883 0.950 . S
C1859 C1858 1.349 . S
C1859 C1875 1.349 . S
C1860 C1858 1.327 . S
C1860 C1879 1.429 . S
C1860 H1884 0.950 . S
C1861 C1878 1.574 . S
C1861 C1880 1.368 . S
C1861 H1885 0.949 . S
H1862 C1866 0.949 . S
C1863 C1864 1.349 . S
C1863 C1865 1.327 . S
C1863 H1886 0.950 . S
C1864 C1863 1.349 . S
C1864 C1876 1.349 . S
C1865 C1863 1.327 . S
C1865 C1881 1.429 . S
C1865 H1887 0.950 . S
C1866 H1862 0.949 . S
C1866 C1874 1.574 . S
C1866 C1882 1.368 . S
H1867 C1875 0.950 . S
H1868 C1873 0.950 . S
H1869 C1874 0.949 . S
H1870 C1876 0.950 . S
H1871 C1877 0.950 . S
H1872 C1878 0.949 . S
C1873 H1868 0.950 . S
C1873 C1875 1.327 . S
C1873 C1879 1.429 . S
C1874 C1866 1.574 . S
C1874 H1869 0.949 . S
C1874 C1880 1.368 . S
C1875 C1859 1.349 . S
C1875 H1867 0.950 . S
C1875 C1873 1.327 . S
C1876 C1864 1.349 . S
C1876 H1870 0.950 . S
C1876 C1877 1.327 . S
C1877 H1871 0.950 . S
C1877 C1876 1.327 . S
C1877 C1881 1.429 . S
C1878 C1861 1.574 . S
C1878 H1872 0.949 . S
C1878 C1882 1.368 . S
C1879 C1860 1.429 . S
C1879 C1873 1.429 . S
C1879 C1880 1.523 . S
C1880 C1861 1.368 . S
C1880 C1874 1.368 . S
C1880 C1879 1.523 . S
C1881 C1865 1.429 . S
C1881 C1877 1.429 . S
C1881 C1882 1.523 . S
C1882 C1866 1.368 . S
C1882 C1878 1.368 . S
C1882 C1881 1.523 . S
H1883 C1858 0.950 . S
H1884 C1860 0.950 . S
H1885 C1861 0.949 . S
H1886 C1863 0.950 . S
H1887 C1865 0.950 . S
C1888 C1889 1.349 . S
C1888 C1890 1.327 . S
C1888 H1913 0.950 . S
C1889 C1888 1.349 . S
C1889 C1905 1.349 . S
C1890 C1888 1.327 . S
C1890 C1909 1.429 . S
C1890 H1914 0.950 . S
C1891 C1908 1.574 . S
C1891 C1910 1.368 . S
C1891 H1915 0.949 . S
H1892 C1896 0.949 . S
C1893 C1894 1.349 . S
C1893 C1895 1.327 . S
C1893 H1916 0.950 . S
C1894 C1893 1.349 . S
C1894 C1906 1.349 . S
C1895 C1893 1.327 . S
C1895 C1911 1.429 . S
C1895 H1917 0.950 . S
C1896 H1892 0.949 . S
C1896 C1904 1.574 . S
C1896 C1912 1.368 . S
H1897 C1905 0.950 . S
H1898 C1903 0.950 . S
H1899 C1904 0.949 . S
H1900 C1906 0.950 . S
H1901 C1907 0.950 . S
H1902 C1908 0.949 . S
C1903 H1898 0.950 . S
C1903 C1905 1.327 . S
C1903 C1909 1.429 . S
C1904 C1896 1.574 . S
C1904 H1899 0.949 . S
C1904 C1910 1.368 . S
C1905 C1889 1.349 . S
C1905 H1897 0.950 . S
C1905 C1903 1.327 . S
C1906 C1894 1.349 . S
C1906 H1900 0.950 . S
C1906 C1907 1.327 . S
C1907 H1901 0.950 . S
C1907 C1906 1.327 . S
C1907 C1911 1.429 . S
C1908 C1891 1.574 . S
C1908 H1902 0.949 . S
C1908 C1912 1.368 . S
C1909 C1890 1.429 . S
C1909 C1903 1.429 . S
C1909 C1910 1.523 . S
C1910 C1891 1.368 . S
C1910 C1904 1.368 . S
C1910 C1909 1.523 . S
C1911 C1895 1.429 . S
C1911 C1907 1.429 . S
C1911 C1912 1.523 . S
C1912 C1896 1.368 . S
C1912 C1908 1.368 . S
C1912 C1911 1.523 . S
H1913 C1888 0.950 . S
H1914 C1890 0.950 . S
H1915 C1891 0.949 . S
H1916 C1893 0.950 . S
H1917 C1895 0.950 . S
C1918 C1919 1.349 . S
C1918 C1920 1.327 . S
C1918 H1943 0.950 . S
C1919 C1918 1.349 . S
C1919 C1935 1.349 . S
C1920 C1918 1.327 . S
C1920 C1939 1.429 . S
C1920 H1944 0.950 . S
C1921 C1938 1.574 . S
C1921 C1940 1.368 . S
C1921 H1945 0.949 . S
H1922 C1926 0.949 . S
C1923 C1924 1.349 . S
C1923 C1925 1.327 . S
C1923 H1946 0.950 . S
C1924 C1923 1.349 . S
C1924 C1936 1.349 . S
C1925 C1923 1.327 . S
C1925 C1941 1.429 . S
C1925 H1947 0.950 . S
C1926 H1922 0.949 . S
C1926 C1934 1.574 . S
C1926 C1942 1.368 . S
H1927 C1935 0.950 . S
H1928 C1933 0.950 . S
H1929 C1934 0.949 . S
H1930 C1936 0.950 . S
H1931 C1937 0.950 . S
H1932 C1938 0.949 . S
C1933 H1928 0.950 . S
C1933 C1935 1.327 . S
C1933 C1939 1.429 . S
C1934 C1926 1.574 . S
C1934 H1929 0.949 . S
C1934 C1940 1.368 . S
C1935 C1919 1.349 . S
C1935 H1927 0.950 . S
C1935 C1933 1.327 . S
C1936 C1924 1.349 . S
C1936 H1930 0.950 . S
C1936 C1937 1.327 . S
C1937 H1931 0.950 . S
C1937 C1936 1.327 . S
C1937 C1941 1.429 . S
C1938 C1921 1.574 . S
C1938 H1932 0.949 . S
C1938 C1942 1.368 . S
C1939 C1920 1.429 . S
C1939 C1933 1.429 . S
C1939 C1940 1.523 . S
C1940 C1921 1.368 . S
C1940 C1934 1.368 . S
C1940 C1939 1.523 . S
C1941 C1925 1.429 . S
C1941 C1937 1.429 . S
C1941 C1942 1.523 . S
C1942 C1926 1.368 . S
C1942 C1938 1.368 . S
C1942 C1941 1.523 . S
H1943 C1918 0.950 . S
H1944 C1920 0.950 . S
H1945 C1921 0.949 . S
H1946 C1923 0.950 . S
H1947 C1925 0.950 . S
C1948 C1949 1.349 . S
C1948 C1950 1.327 . S
C1948 H1973 0.950 . S
C1949 C1948 1.349 . S
C1949 C1965 1.349 . S
C1950 C1948 1.327 . S
C1950 C1969 1.429 . S
C1950 H1974 0.950 . S
C1951 C1968 1.574 . S
C1951 C1970 1.368 . S
C1951 H1975 0.949 . S
H1952 C1956 0.949 . S
C1953 C1954 1.349 . S
C1953 C1955 1.327 . S
C1953 H1976 0.950 . S
C1954 C1953 1.349 . S
C1954 C1966 1.349 . S
C1955 C1953 1.327 . S
C1955 C1971 1.429 . S
C1955 H1977 0.950 . S
C1956 H1952 0.949 . S
C1956 C1964 1.574 . S
C1956 C1972 1.368 . S
H1957 C1965 0.950 . S
H1958 C1963 0.950 . S
H1959 C1964 0.949 . S
H1960 C1966 0.950 . S
H1961 C1967 0.950 . S
H1962 C1968 0.949 . S
C1963 H1958 0.950 . S
C1963 C1965 1.327 . S
C1963 C1969 1.429 . S
C1964 C1956 1.574 . S
C1964 H1959 0.949 . S
C1964 C1970 1.368 . S
C1965 C1949 1.349 . S
C1965 H1957 0.950 . S
C1965 C1963 1.327 . S
C1966 C1954 1.349 . S
C1966 H1960 0.950 . S
C1966 C1967 1.327 . S
C1967 H1961 0.950 . S
C1967 C1966 1.327 . S
C1967 C1971 1.429 . S
C1968 C1951 1.574 . S
C1968 H1962 0.949 . S
C1968 C1972 1.368 . S
C1969 C1950 1.429 . S
C1969 C1963 1.429 . S
C1969 C1970 1.523 . S
C1970 C1951 1.368 . S
C1970 C1964 1.368 . S
C1970 C1969 1.523 . S
C1971 C1955 1.429 . S
C1971 C1967 1.429 . S
C1971 C1972 1.523 . S
C1972 C1956 1.368 . S
C1972 C1968 1.368 . S
C1972 C1971 1.523 . S
H1973 C1948 0.950 . S
H1974 C1950 0.950 . S
H1975 C1951 0.949 . S
H1976 C1953 0.950 . S
H1977 C1955 0.950 . S
C1978 C1979 1.349 . S
C1978 C1980 1.327 . S
C1978 H2003 0.950 . S
C1979 C1978 1.349 . S
C1979 C1995 1.349 . S
C1980 C1978 1.327 . S
C1980 C1999 1.429 . S
C1980 H2004 0.950 1_556 S
C1981 C1998 1.574 . S
C1981 C2000 1.368 . S
C1981 H2005 0.949 . S
H1982 C1986 0.949 . S
C1983 C1984 1.349 . S
C1983 C1985 1.327 . S
C1983 H2006 0.950 . S
C1984 C1983 1.349 . S
C1984 C1996 1.349 . S
C1985 C1983 1.327 . S
C1985 C2001 1.429 . S
C1985 H2007 0.950 1_554 S
C1986 H1982 0.949 . S
C1986 C1994 1.574 . S
C1986 C2002 1.368 . S
H1987 C1995 0.950 . S
H1988 C1993 0.950 . S
H1989 C1994 0.949 . S
H1990 C1996 0.950 . S
H1991 C1997 0.950 . S
H1992 C1998 0.949 . S
C1993 H1988 0.950 . S
C1993 C1995 1.327 . S
C1993 C1999 1.429 . S
C1994 C1986 1.574 . S
C1994 H1989 0.949 . S
C1994 C2000 1.368 1_554 S
C1995 C1979 1.349 . S
C1995 H1987 0.950 . S
C1995 C1993 1.327 . S
C1996 C1984 1.349 . S
C1996 H1990 0.950 . S
C1996 C1997 1.327 . S
C1997 H1991 0.950 . S
C1997 C1996 1.327 . S
C1997 C2001 1.429 . S
C1998 C1981 1.574 . S
C1998 H1992 0.949 . S
C1998 C2002 1.368 1_556 S
C1999 C1980 1.429 . S
C1999 C1993 1.429 . S
C1999 C2000 1.523 . S
C2000 C1981 1.368 . S
C2000 C1994 1.368 1_556 S
C2000 C1999 1.523 . S
C2001 C1985 1.429 . S
C2001 C1997 1.429 . S
C2001 C2002 1.523 . S
C2002 C1986 1.368 . S
C2002 C1998 1.368 1_554 S
C2002 C2001 1.523 . S
H2003 C1978 0.950 . S
H2004 C1980 0.950 1_554 S
H2005 C1981 0.949 . S
H2006 C1983 0.950 . S
H2007 C1985 0.950 1_556 S
C2008 C2009 1.349 . S
C2008 C2010 1.327 . S
C2008 H2033 0.950 . S
C2009 C2008 1.349 . S
C2009 C2025 1.349 . S
C2010 C2008 1.327 . S
C2010 C2029 1.429 . S
C2010 H2034 0.950 . S
C2011 C2028 1.574 . S
C2011 C2030 1.368 . S
C2011 H2035 0.949 . S
H2012 C2016 0.949 . S
C2013 C2014 1.349 . S
C2013 C2015 1.327 . S
C2013 H2036 0.950 . S
C2014 C2013 1.349 . S
C2014 C2026 1.349 . S
C2015 C2013 1.327 . S
C2015 C2031 1.429 . S
C2015 H2037 0.950 . S
C2016 H2012 0.949 . S
C2016 C2024 1.574 . S
C2016 C2032 1.368 . S
H2017 C2025 0.950 . S
H2018 C2023 0.950 . S
H2019 C2024 0.949 . S
H2020 C2026 0.950 . S
H2021 C2027 0.950 . S
H2022 C2028 0.949 . S
C2023 H2018 0.950 . S
C2023 C2025 1.327 . S
C2023 C2029 1.429 . S
C2024 C2016 1.574 . S
C2024 H2019 0.949 . S
C2024 C2030 1.368 . S
C2025 C2009 1.349 . S
C2025 H2017 0.950 . S
C2025 C2023 1.327 . S
C2026 C2014 1.349 . S
C2026 H2020 0.950 . S
C2026 C2027 1.327 . S
C2027 H2021 0.950 . S
C2027 C2026 1.327 . S
C2027 C2031 1.429 . S
C2028 C2011 1.574 . S
C2028 H2022 0.949 . S
C2028 C2032 1.368 . S
C2029 C2010 1.429 . S
C2029 C2023 1.429 . S
C2029 C2030 1.523 . S
C2030 C2011 1.368 . S
C2030 C2024 1.368 . S
C2030 C2029 1.523 . S
C2031 C2015 1.429 . S
C2031 C2027 1.429 . S
C2031 C2032 1.523 . S
C2032 C2016 1.368 . S
C2032 C2028 1.368 . S
C2032 C2031 1.523 . S
H2033 C2008 0.950 . S
H2034 C2010 0.950 . S
H2035 C2011 0.949 . S
H2036 C2013 0.950 . S
H2037 C2015 0.950 . S
C2038 C2039 1.349 . S
C2038 C2040 1.327 . S
C2038 H2063 0.950 . S
C2039 C2038 1.349 . S
C2039 C2055 1.349 . S
C2040 C2038 1.327 . S
C2040 C2059 1.429 . S
C2040 H2064 0.950 . S
C2041 C2058 1.574 . S
C2041 C2060 1.368 . S
C2041 H2065 0.949 . S
H2042 C2046 0.949 . S
C2043 C2044 1.349 . S
C2043 C2045 1.327 . S
C2043 H2066 0.950 . S
C2044 C2043 1.349 . S
C2044 C2056 1.349 . S
C2045 C2043 1.327 . S
C2045 C2061 1.429 . S
C2045 H2067 0.950 . S
C2046 H2042 0.949 . S
C2046 C2054 1.574 . S
C2046 C2062 1.368 . S
H2047 C2055 0.950 . S
H2048 C2053 0.950 . S
H2049 C2054 0.949 . S
H2050 C2056 0.950 . S
H2051 C2057 0.950 . S
H2052 C2058 0.949 . S
C2053 H2048 0.950 . S
C2053 C2055 1.327 . S
C2053 C2059 1.429 . S
C2054 C2046 1.574 . S
C2054 H2049 0.949 . S
C2054 C2060 1.368 . S
C2055 C2039 1.349 . S
C2055 H2047 0.950 . S
C2055 C2053 1.327 . S
C2056 C2044 1.349 . S
C2056 H2050 0.950 . S
C2056 C2057 1.327 . S
C2057 H2051 0.950 . S
C2057 C2056 1.327 . S
C2057 C2061 1.429 . S
C2058 C2041 1.574 . S
C2058 H2052 0.949 . S
C2058 C2062 1.368 . S
C2059 C2040 1.429 . S
C2059 C2053 1.429 . S
C2059 C2060 1.523 . S
C2060 C2041 1.368 . S
C2060 C2054 1.368 . S
C2060 C2059 1.523 . S
C2061 C2045 1.429 . S
C2061 C2057 1.429 . S
C2061 C2062 1.523 . S
C2062 C2046 1.368 . S
C2062 C2058 1.368 . S
C2062 C2061 1.523 . S
H2063 C2038 0.950 . S
H2064 C2040 0.950 . S
H2065 C2041 0.949 . S
H2066 C2043 0.950 . S
H2067 C2045 0.950 . S
C2068 C2069 1.349 . S
C2068 C2070 1.327 . S
C2068 H2093 0.950 . S
C2069 C2068 1.349 . S
C2069 C2085 1.349 . S
C2070 C2068 1.327 . S
C2070 C2089 1.429 . S
C2070 H2094 0.950 . S
C2071 C2088 1.574 . S
C2071 C2090 1.368 . S
C2071 H2095 0.949 . S
H2072 C2076 0.949 . S
C2073 C2074 1.349 . S
C2073 C2075 1.327 . S
C2073 H2096 0.950 . S
C2074 C2073 1.349 . S
C2074 C2086 1.349 . S
C2075 C2073 1.327 . S
C2075 C2091 1.429 . S
C2075 H2097 0.950 . S
C2076 H2072 0.949 . S
C2076 C2084 1.574 . S
C2076 C2092 1.368 . S
H2077 C2085 0.950 . S
H2078 C2083 0.950 . S
H2079 C2084 0.949 . S
H2080 C2086 0.950 . S
H2081 C2087 0.950 . S
H2082 C2088 0.949 . S
C2083 H2078 0.950 . S
C2083 C2085 1.327 . S
C2083 C2089 1.429 . S
C2084 C2076 1.574 . S
C2084 H2079 0.949 . S
C2084 C2090 1.368 . S
C2085 C2069 1.349 . S
C2085 H2077 0.950 . S
C2085 C2083 1.327 . S
C2086 C2074 1.349 . S
C2086 H2080 0.950 . S
C2086 C2087 1.327 . S
C2087 H2081 0.950 . S
C2087 C2086 1.327 . S
C2087 C2091 1.429 . S
C2088 C2071 1.574 . S
C2088 H2082 0.949 . S
C2088 C2092 1.368 . S
C2089 C2070 1.429 . S
C2089 C2083 1.429 . S
C2089 C2090 1.523 . S
C2090 C2071 1.368 . S
C2090 C2084 1.368 . S
C2090 C2089 1.523 . S
C2091 C2075 1.429 . S
C2091 C2087 1.429 . S
C2091 C2092 1.523 . S
C2092 C2076 1.368 . S
C2092 C2088 1.368 . S
C2092 C2091 1.523 . S
H2093 C2068 0.950 . S
H2094 C2070 0.950 . S
H2095 C2071 0.949 . S
H2096 C2073 0.950 . S
H2097 C2075 0.950 . S
C2098 C2099 1.349 . S
C2098 C2100 1.327 . S
C2098 H2123 0.950 . S
C2099 C2098 1.349 . S
C2099 C2115 1.349 . S
C2100 C2098 1.327 . S
C2100 C2119 1.429 . S
C2100 H2124 0.950 1_554 S
C2101 C2118 1.574 . S
C2101 C2120 1.368 . S
C2101 H2125 0.949 . S
H2102 C2106 0.949 . S
C2103 C2104 1.349 . S
C2103 C2105 1.327 . S
C2103 H2126 0.950 . S
C2104 C2103 1.349 . S
C2104 C2116 1.349 . S
C2105 C2103 1.327 . S
C2105 C2121 1.429 . S
C2105 H2127 0.950 1_556 S
C2106 H2102 0.949 . S
C2106 C2114 1.574 . S
C2106 C2122 1.368 . S
H2107 C2115 0.950 . S
H2108 C2113 0.950 . S
H2109 C2114 0.949 . S
H2110 C2116 0.950 . S
H2111 C2117 0.950 . S
H2112 C2118 0.949 . S
C2113 H2108 0.950 . S
C2113 C2115 1.327 . S
C2113 C2119 1.429 . S
C2114 C2106 1.574 . S
C2114 H2109 0.949 . S
C2114 C2120 1.368 1_556 S
C2115 C2099 1.349 . S
C2115 H2107 0.950 . S
C2115 C2113 1.327 . S
C2116 C2104 1.349 . S
C2116 H2110 0.950 . S
C2116 C2117 1.327 . S
C2117 H2111 0.950 . S
C2117 C2116 1.327 . S
C2117 C2121 1.429 . S
C2118 C2101 1.574 . S
C2118 H2112 0.949 . S
C2118 C2122 1.368 1_554 S
C2119 C2100 1.429 . S
C2119 C2113 1.429 . S
C2119 C2120 1.523 . S
C2120 C2101 1.368 . S
C2120 C2114 1.368 1_554 S
C2120 C2119 1.523 . S
C2121 C2105 1.429 . S
C2121 C2117 1.429 . S
C2121 C2122 1.523 . S
C2122 C2106 1.368 . S
C2122 C2118 1.368 1_556 S
C2122 C2121 1.523 . S
H2123 C2098 0.950 . S
H2124 C2100 0.950 1_556 S
H2125 C2101 0.949 . S
H2126 C2103 0.950 . S
H2127 C2105 0.950 1_554 S
C2128 C2129 1.349 . S
C2128 C2130 1.327 . S
C2128 H2153 0.950 . S
C2129 C2128 1.349 . S
C2129 C2145 1.349 . S
C2130 C2128 1.327 . S
C2130 C2149 1.429 . S
C2130 H2154 0.950 . S
C2131 C2148 1.574 1_565 S
C2131 C2150 1.368 . S
C2131 H2155 0.949 . S
H2132 C2136 0.949 . S
C2133 C2134 1.349 . S
C2133 C2135 1.327 . S
C2133 H2156 0.950 . S
C2134 C2133 1.349 . S
C2134 C2146 1.349 . S
C2135 C2133 1.327 . S
C2135 C2151 1.429 . S
C2135 H2157 0.950 . S
C2136 H2132 0.949 . S
C2136 C2144 1.574 1_545 S
C2136 C2152 1.368 . S
H2137 C2145 0.950 . S
H2138 C2143 0.950 . S
H2139 C2144 0.949 . S
H2140 C2146 0.950 . S
H2141 C2147 0.950 . S
H2142 C2148 0.949 . S
C2143 H2138 0.950 . S
C2143 C2145 1.327 . S
C2143 C2149 1.429 . S
C2144 C2136 1.574 1_565 S
C2144 H2139 0.949 . S
C2144 C2150 1.368 . S
C2145 C2129 1.349 . S
C2145 H2137 0.950 . S
C2145 C2143 1.327 . S
C2146 C2134 1.349 . S
C2146 H2140 0.950 . S
C2146 C2147 1.327 . S
C2147 H2141 0.950 . S
C2147 C2146 1.327 . S
C2147 C2151 1.429 . S
C2148 C2131 1.574 1_545 S
C2148 H2142 0.949 . S
C2148 C2152 1.368 . S
C2149 C2130 1.429 . S
C2149 C2143 1.429 . S
C2149 C2150 1.523 . S
C2150 C2131 1.368 . S
C2150 C2144 1.368 . S
C2150 C2149 1.523 . S
C2151 C2135 1.429 . S
C2151 C2147 1.429 . S
C2151 C2152 1.523 . S
C2152 C2136 1.368 . S
C2152 C2148 1.368 . S
C2152 C2151 1.523 . S
H2153 C2128 0.950 . S
H2154 C2130 0.950 . S
H2155 C2131 0.949 . S
H2156 C2133 0.950 . S
H2157 C2135 0.950 . S
C2158 C2159 1.349 . S
C2158 C2160 1.327 . S
C2158 H2183 0.950 . S
C2159 C2158 1.349 . S
C2159 C2175 1.349 . S
C2160 C2158 1.327 . S
C2160 C2179 1.429 . S
C2160 H2184 0.950 1_554 S
C2161 C2178 1.574 . S
C2161 C2180 1.368 . S
C2161 H2185 0.949 . S
H2162 C2166 0.949 . S
C2163 C2164 1.349 . S
C2163 C2165 1.327 . S
C2163 H2186 0.950 . S
C2164 C2163 1.349 . S
C2164 C2176 1.349 . S
C2165 C2163 1.327 . S
C2165 C2181 1.429 . S
C2165 H2187 0.950 1_556 S
C2166 H2162 0.949 . S
C2166 C2174 1.574 . S
C2166 C2182 1.368 . S
H2167 C2175 0.950 . S
H2168 C2173 0.950 . S
H2169 C2174 0.949 . S
H2170 C2176 0.950 . S
H2171 C2177 0.950 . S
H2172 C2178 0.949 . S
C2173 H2168 0.950 . S
C2173 C2175 1.327 . S
C2173 C2179 1.429 . S
C2174 C2166 1.574 . S
C2174 H2169 0.949 . S
C2174 C2180 1.368 1_556 S
C2175 C2159 1.349 . S
C2175 H2167 0.950 . S
C2175 C2173 1.327 . S
C2176 C2164 1.349 . S
C2176 H2170 0.950 . S
C2176 C2177 1.327 . S
C2177 H2171 0.950 . S
C2177 C2176 1.327 . S
C2177 C2181 1.429 . S
C2178 C2161 1.574 . S
C2178 H2172 0.949 . S
C2178 C2182 1.368 1_554 S
C2179 C2160 1.429 . S
C2179 C2173 1.429 . S
C2179 C2180 1.523 . S
C2180 C2161 1.368 . S
C2180 C2174 1.368 1_554 S
C2180 C2179 1.523 . S
C2181 C2165 1.429 . S
C2181 C2177 1.429 . S
C2181 C2182 1.523 . S
C2182 C2166 1.368 . S
C2182 C2178 1.368 1_556 S
C2182 C2181 1.523 . S
H2183 C2158 0.950 . S
H2184 C2160 0.950 1_556 S
H2185 C2161 0.949 . S
H2186 C2163 0.950 . S
H2187 C2165 0.950 1_554 S
C2188 C2189 1.349 . S
C2188 C2190 1.327 . S
C2188 H2213 0.950 . S
C2189 C2188 1.349 . S
C2189 C2205 1.349 . S
C2190 C2188 1.327 . S
C2190 C2209 1.429 . S
C2190 H2214 0.950 . S
C2191 C2208 1.574 1_545 S
C2191 C2210 1.368 . S
C2191 H2215 0.949 . S
H2192 C2196 0.949 . S
C2193 C2194 1.349 . S
C2193 C2195 1.327 . S
C2193 H2216 0.950 . S
C2194 C2193 1.349 . S
C2194 C2206 1.349 . S
C2195 C2193 1.327 . S
C2195 C2211 1.429 . S
C2195 H2217 0.950 . S
C2196 H2192 0.949 . S
C2196 C2204 1.574 1_565 S
C2196 C2212 1.368 . S
H2197 C2205 0.950 . S
H2198 C2203 0.950 . S
H2199 C2204 0.949 . S
H2200 C2206 0.950 . S
H2201 C2207 0.950 . S
H2202 C2208 0.949 . S
C2203 H2198 0.950 . S
C2203 C2205 1.327 . S
C2203 C2209 1.429 . S
C2204 C2196 1.574 1_545 S
C2204 H2199 0.949 . S
C2204 C2210 1.368 . S
C2205 C2189 1.349 . S
C2205 H2197 0.950 . S
C2205 C2203 1.327 . S
C2206 C2194 1.349 . S
C2206 H2200 0.950 . S
C2206 C2207 1.327 . S
C2207 H2201 0.950 . S
C2207 C2206 1.327 . S
C2207 C2211 1.429 . S
C2208 C2191 1.574 1_565 S
C2208 H2202 0.949 . S
C2208 C2212 1.368 . S
C2209 C2190 1.429 . S
C2209 C2203 1.429 . S
C2209 C2210 1.523 . S
C2210 C2191 1.368 . S
C2210 C2204 1.368 . S
C2210 C2209 1.523 . S
C2211 C2195 1.429 . S
C2211 C2207 1.429 . S
C2211 C2212 1.523 . S
C2212 C2196 1.368 . S
C2212 C2208 1.368 . S
C2212 C2211 1.523 . S
H2213 C2188 0.950 . S
H2214 C2190 0.950 . S
H2215 C2191 0.949 . S
H2216 C2193 0.950 . S
H2217 C2195 0.950 . S
C2218 C2219 1.349 . S
C2218 C2220 1.327 . S
C2218 H2243 0.950 . S
C2219 C2218 1.349 . S
C2219 C2235 1.349 . S
C2220 C2218 1.327 . S
C2220 C2239 1.429 . S
C2220 H2244 0.950 . S
C2221 C2238 1.574 . S
C2221 C2240 1.368 . S
C2221 H2245 0.949 . S
H2222 C2226 0.949 . S
C2223 C2224 1.349 . S
C2223 C2225 1.327 . S
C2223 H2246 0.950 . S
C2224 C2223 1.349 . S
C2224 C2236 1.349 . S
C2225 C2223 1.327 . S
C2225 C2241 1.429 . S
C2225 H2247 0.950 . S
C2226 H2222 0.949 . S
C2226 C2234 1.574 . S
C2226 C2242 1.368 . S
H2227 C2235 0.950 . S
H2228 C2233 0.950 . S
H2229 C2234 0.949 . S
H2230 C2236 0.950 . S
H2231 C2237 0.950 . S
H2232 C2238 0.949 . S
C2233 H2228 0.950 . S
C2233 C2235 1.327 . S
C2233 C2239 1.429 . S
C2234 C2226 1.574 . S
C2234 H2229 0.949 . S
C2234 C2240 1.368 . S
C2235 C2219 1.349 . S
C2235 H2227 0.950 . S
C2235 C2233 1.327 . S
C2236 C2224 1.349 . S
C2236 H2230 0.950 . S
C2236 C2237 1.327 . S
C2237 H2231 0.950 . S
C2237 C2236 1.327 . S
C2237 C2241 1.429 . S
C2238 C2221 1.574 . S
C2238 H2232 0.949 . S
C2238 C2242 1.368 . S
C2239 C2220 1.429 . S
C2239 C2233 1.429 . S
C2239 C2240 1.523 . S
C2240 C2221 1.368 . S
C2240 C2234 1.368 . S
C2240 C2239 1.523 . S
C2241 C2225 1.429 . S
C2241 C2237 1.429 . S
C2241 C2242 1.523 . S
C2242 C2226 1.368 . S
C2242 C2238 1.368 . S
C2242 C2241 1.523 . S
H2243 C2218 0.950 . S
H2244 C2220 0.950 . S
H2245 C2221 0.949 . S
H2246 C2223 0.950 . S
H2247 C2225 0.950 . S
C2248 C2249 1.349 . S
C2248 C2250 1.327 . S
C2248 H2273 0.950 . S
C2249 C2248 1.349 . S
C2249 C2265 1.349 . S
C2250 C2248 1.327 . S
C2250 C2269 1.429 . S
C2250 H2274 0.950 . S
C2251 C2268 1.574 1_545 S
C2251 C2270 1.368 . S
C2251 H2275 0.949 . S
H2252 C2256 0.949 . S
C2253 C2254 1.349 . S
C2253 C2255 1.327 . S
C2253 H2276 0.950 . S
C2254 C2253 1.349 . S
C2254 C2266 1.349 . S
C2255 C2253 1.327 . S
C2255 C2271 1.429 . S
C2255 H2277 0.950 . S
C2256 H2252 0.949 . S
C2256 C2264 1.574 1_565 S
C2256 C2272 1.368 . S
H2257 C2265 0.950 . S
H2258 C2263 0.950 . S
H2259 C2264 0.949 . S
H2260 C2266 0.950 . S
H2261 C2267 0.950 . S
H2262 C2268 0.949 . S
C2263 H2258 0.950 . S
C2263 C2265 1.327 . S
C2263 C2269 1.429 . S
C2264 C2256 1.574 1_545 S
C2264 H2259 0.949 . S
C2264 C2270 1.368 . S
C2265 C2249 1.349 . S
C2265 H2257 0.950 . S
C2265 C2263 1.327 . S
C2266 C2254 1.349 . S
C2266 H2260 0.950 . S
C2266 C2267 1.327 . S
C2267 H2261 0.950 . S
C2267 C2266 1.327 . S
C2267 C2271 1.429 . S
C2268 C2251 1.574 1_565 S
C2268 H2262 0.949 . S
C2268 C2272 1.368 . S
C2269 C2250 1.429 . S
C2269 C2263 1.429 . S
C2269 C2270 1.523 . S
C2270 C2251 1.368 . S
C2270 C2264 1.368 . S
C2270 C2269 1.523 . S
C2271 C2255 1.429 . S
C2271 C2267 1.429 . S
C2271 C2272 1.523 . S
C2272 C2256 1.368 . S
C2272 C2268 1.368 . S
C2272 C2271 1.523 . S
H2273 C2248 0.950 . S
H2274 C2250 0.950 . S
H2275 C2251 0.949 . S
H2276 C2253 0.950 . S
H2277 C2255 0.950 . S
C2278 C2279 1.349 . S
C2278 C2280 1.327 . S
C2278 H2303 0.950 . S
C2279 C2278 1.349 . S
C2279 C2295 1.349 . S
C2280 C2278 1.327 . S
C2280 C2299 1.429 . S
C2280 H2304 0.950 1_554 S
C2281 C2298 1.574 . S
C2281 C2300 1.368 . S
C2281 H2305 0.949 . S
H2282 C2286 0.949 . S
C2283 C2284 1.349 . S
C2283 C2285 1.327 . S
C2283 H2306 0.950 . S
C2284 C2283 1.349 . S
C2284 C2296 1.349 . S
C2285 C2283 1.327 . S
C2285 C2301 1.429 . S
C2285 H2307 0.950 1_556 S
C2286 H2282 0.949 . S
C2286 C2294 1.574 . S
C2286 C2302 1.368 . S
H2287 C2295 0.950 . S
H2288 C2293 0.950 . S
H2289 C2294 0.949 . S
H2290 C2296 0.950 . S
H2291 C2297 0.950 . S
H2292 C2298 0.949 . S
C2293 H2288 0.950 . S
C2293 C2295 1.327 . S
C2293 C2299 1.429 . S
C2294 C2286 1.574 . S
C2294 H2289 0.949 . S
C2294 C2300 1.368 1_556 S
C2295 C2279 1.349 . S
C2295 H2287 0.950 . S
C2295 C2293 1.327 . S
C2296 C2284 1.349 . S
C2296 H2290 0.950 . S
C2296 C2297 1.327 . S
C2297 H2291 0.950 . S
C2297 C2296 1.327 . S
C2297 C2301 1.429 . S
C2298 C2281 1.574 . S
C2298 H2292 0.949 . S
C2298 C2302 1.368 1_554 S
C2299 C2280 1.429 . S
C2299 C2293 1.429 . S
C2299 C2300 1.523 . S
C2300 C2281 1.368 . S
C2300 C2294 1.368 1_554 S
C2300 C2299 1.523 . S
C2301 C2285 1.429 . S
C2301 C2297 1.429 . S
C2301 C2302 1.523 . S
C2302 C2286 1.368 . S
C2302 C2298 1.368 1_556 S
C2302 C2301 1.523 . S
H2303 C2278 0.950 . S
H2304 C2280 0.950 1_556 S
H2305 C2281 0.949 . S
H2306 C2283 0.950 . S
H2307 C2285 0.950 1_554 S
C2308 C2309 1.349 . S
C2308 C2310 1.327 . S
C2308 H2333 0.950 . S
C2309 C2308 1.349 . S
C2309 C2325 1.349 . S
C2310 C2308 1.327 . S
C2310 C2329 1.429 . S
C2310 H2334 0.950 . S
C2311 C2328 1.574 1_545 S
C2311 C2330 1.368 . S
C2311 H2335 0.949 . S
H2312 C2316 0.949 . S
C2313 C2314 1.349 . S
C2313 C2315 1.327 . S
C2313 H2336 0.950 . S
C2314 C2313 1.349 . S
C2314 C2326 1.349 . S
C2315 C2313 1.327 . S
C2315 C2331 1.429 . S
C2315 H2337 0.950 . S
C2316 H2312 0.949 . S
C2316 C2324 1.574 1_565 S
C2316 C2332 1.368 . S
H2317 C2325 0.950 . S
H2318 C2323 0.950 . S
H2319 C2324 0.949 . S
H2320 C2326 0.950 . S
H2321 C2327 0.950 . S
H2322 C2328 0.949 . S
C2323 H2318 0.950 . S
C2323 C2325 1.327 . S
C2323 C2329 1.429 . S
C2324 C2316 1.574 1_545 S
C2324 H2319 0.949 . S
C2324 C2330 1.368 . S
C2325 C2309 1.349 . S
C2325 H2317 0.950 . S
C2325 C2323 1.327 . S
C2326 C2314 1.349 . S
C2326 H2320 0.950 . S
C2326 C2327 1.327 . S
C2327 H2321 0.950 . S
C2327 C2326 1.327 . S
C2327 C2331 1.429 . S
C2328 C2311 1.574 1_565 S
C2328 H2322 0.949 . S
C2328 C2332 1.368 . S
C2329 C2310 1.429 . S
C2329 C2323 1.429 . S
C2329 C2330 1.523 . S
C2330 C2311 1.368 . S
C2330 C2324 1.368 . S
C2330 C2329 1.523 . S
C2331 C2315 1.429 . S
C2331 C2327 1.429 . S
C2331 C2332 1.523 . S
C2332 C2316 1.368 . S
C2332 C2328 1.368 . S
C2332 C2331 1.523 . S
H2333 C2308 0.950 . S
H2334 C2310 0.950 . S
H2335 C2311 0.949 . S
H2336 C2313 0.950 . S
H2337 C2315 0.950 . S
C2338 C2339 1.349 . S
C2338 C2340 1.327 . S
C2338 H2363 0.950 . S
C2339 C2338 1.349 . S
C2339 C2355 1.349 . S
C2340 C2338 1.327 . S
C2340 C2359 1.429 . S
C2340 H2364 0.950 . S
C2341 C2358 1.574 . S
C2341 C2360 1.368 . S
C2341 H2365 0.949 . S
H2342 C2346 0.949 . S
C2343 C2344 1.349 . S
C2343 C2345 1.327 . S
C2343 H2366 0.950 . S
C2344 C2343 1.349 . S
C2344 C2356 1.349 . S
C2345 C2343 1.327 . S
C2345 C2361 1.429 . S
C2345 H2367 0.950 . S
C2346 H2342 0.949 . S
C2346 C2354 1.574 . S
C2346 C2362 1.368 . S
H2347 C2355 0.950 . S
H2348 C2353 0.950 . S
H2349 C2354 0.949 . S
H2350 C2356 0.950 . S
H2351 C2357 0.950 . S
H2352 C2358 0.949 . S
C2353 H2348 0.950 . S
C2353 C2355 1.327 . S
C2353 C2359 1.429 . S
C2354 C2346 1.574 . S
C2354 H2349 0.949 . S
C2354 C2360 1.368 . S
C2355 C2339 1.349 . S
C2355 H2347 0.950 . S
C2355 C2353 1.327 . S
C2356 C2344 1.349 . S
C2356 H2350 0.950 . S
C2356 C2357 1.327 . S
C2357 H2351 0.950 . S
C2357 C2356 1.327 . S
C2357 C2361 1.429 . S
C2358 C2341 1.574 . S
C2358 H2352 0.949 . S
C2358 C2362 1.368 . S
C2359 C2340 1.429 . S
C2359 C2353 1.429 . S
C2359 C2360 1.523 . S
C2360 C2341 1.368 . S
C2360 C2354 1.368 . S
C2360 C2359 1.523 . S
C2361 C2345 1.429 . S
C2361 C2357 1.429 . S
C2361 C2362 1.523 . S
C2362 C2346 1.368 . S
C2362 C2358 1.368 . S
C2362 C2361 1.523 . S
H2363 C2338 0.950 . S
H2364 C2340 0.950 . S
H2365 C2341 0.949 . S
H2366 C2343 0.950 . S
H2367 C2345 0.950 . S
C449 C7 1.020 . S
C454 C301 1.020 . S
C479 C315 1.020 . S
C484 C21 1.020 . S
C509 C35 1.020 . S
C514 C329 1.020 . S
C539 C287 1.020 . S
C544 C49 1.020 . S
C569 C63 1.020 . S
C574 C273 1.020 . S
C599 C77 1.020 . S
C604 C231 1.020 . S
C629 C245 1.020 . S
C634 C91 1.020 . S
C659 C105 1.020 . S
C664 C259 1.020 . S
C689 C119 1.020 . S
C694 C413 1.020 . S
C719 C133 1.020 . S
C724 C427 1.020 . S
C749 C441 1.020 . S
C754 C147 1.020 . S
C779 C399 1.020 . S
C784 C161 1.020 . S
C809 C175 1.020 . S
C814 C385 1.020 . S
C839 C343 1.020 . S
C844 C189 1.020 . S
C869 C203 1.020 . S
C874 C357 1.020 . S
C899 C371 1.020 . S
C904 C217 1.020 . S
C929 C9 1.495 . S
C934 C134 1.514 . S
C959 C23 1.495 . S
C964 C372 1.514 . S
C989 C162 1.514 . S
C994 C37 1.495 . S
C1019 C51 1.495 . S
C1024 C344 1.514 . S
C1049 C65 1.495 . S
C1054 C218 1.514 . S
C1079 C400 1.514 . S
C1084 C79 1.495 . S
C1109 C190 1.514 . S
C1114 C93 1.495 . S
C1139 C428 1.514 . S
C1144 C107 1.495 . S
C1169 C121 1.495 . S
C1174 C22 1.514 . S
C1199 C260 1.514 . S
C1204 C135 1.495 . S
C1229 C50 1.514 . S
C1234 C149 1.495 . S
C1259 C163 1.495 . S
C1264 C232 1.514 . S
C1289 C106 1.514 . S
C1294 C177 1.495 . S
C1319 C288 1.514 . S
C1324 C191 1.495 . S
C1349 C78 1.514 . S
C1354 C205 1.495 . S
C1379 C219 1.495 . S
C1384 C316 1.514 . S
C1409 C358 1.514 . S
C1414 C233 1.495 . S
C1439 C148 1.514 . S
C1444 C247 1.495 . S
C1469 C386 1.514 . S
C1474 C261 1.495 . S
C1499 C275 1.495 . S
C1504 C120 1.514 . S
C1529 C442 1.514 . S
C1534 C289 1.495 . S
C1559 C176 1.514 . S
C1564 C303 1.495 . S
C1589 C414 1.514 . S
C1594 C317 1.495 . S
C1619 C331 1.495 . S
C1624 C204 1.514 . S
C1649 C345 1.495 . S
C1654 C246 1.514 . S
C1679 C36 1.514 . S
C1684 C359 1.495 . S
C1709 C373 1.495 . S
C1714 C274 1.514 . S
C1739 C387 1.495 . S
C1744 C8 1.514 . S
C1769 C401 1.495 . S
C1774 C330 1.514 . S
C1799 C64 1.514 . S
C1804 C415 1.495 . S
C1829 C302 1.514 . S
C1834 C429 1.495 . S
C1859 C443 1.495 . S
C1864 C92 1.514 . S
C1889 C6 1.347 . S
C1894 C62 1.347 . S
C1919 C20 1.347 . S
C1924 C76 1.347 . S
C1949 C90 1.347 . S
C1954 C34 1.347 . S
C1979 C104 1.347 . S
C1984 C48 1.347 . S
C2009 C174 1.347 . S
C2014 C118 1.347 . S
C2039 C188 1.347 . S
C2044 C132 1.347 . S
C2069 C202 1.347 . S
C2074 C146 1.347 . S
C2099 C216 1.347 . S
C2104 C160 1.347 . S
C2129 C230 1.347 . S
C2134 C286 1.347 . S
C2159 C244 1.347 . S
C2164 C300 1.347 . S
C2189 C258 1.347 . S
C2194 C314 1.347 . S
C2219 C328 1.347 . S
C2224 C272 1.347 . S
C2249 C342 1.347 . S
C2254 C398 1.347 . S
C2279 C412 1.347 . S
C2284 C356 1.347 . S
C2309 C426 1.347 . S
C2314 C370 1.347 . S
C2339 C440 1.347 . S
C2344 C384 1.347 . S
