# Generated by pormake.
# Topology fnv, (5)-cn, num edge types: 1
# Building blocks:
#     Node 0, Type 0, BuildingBlock: BEQFEK_clean_sbu_0, # of connection points: 5
#     Node 1, Type 0, BuildingBlock: BEQFEK_clean_sbu_0, # of connection points: 5
#     Node 2, Type 0, BuildingBlock: BEQFEK_clean_sbu_0, # of connection points: 5
#     Node 3, Type 0, BuildingBlock: BEQFEK_clean_sbu_0, # of connection points: 5
#     Node 4, Type 0, BuildingBlock: BEQFEK_clean_sbu_0, # of connection points: 5
#     Node 5, Type 0, BuildingBlock: BEQFEK_clean_sbu_0, # of connection points: 5
#     Edge 6, Type (0, 0), BuildingBlock: TEMPAE_clean_linker_10, # of connection points: 2
#     Edge 7, Type (0, 0), BuildingBlock: TEMPAE_clean_linker_10, # of connection points: 2
#     Edge 8, Type (0, 0), BuildingBlock: TEMPAE_clean_linker_10, # of connection points: 2
#     Edge 9, Type (0, 0), BuildingBlock: TEMPAE_clean_linker_10, # of connection points: 2
#     Edge 10, Type (0, 0), BuildingBlock: TEMPAE_clean_linker_10, # of connection points: 2
#     Edge 11, Type (0, 0), BuildingBlock: TEMPAE_clean_linker_10, # of connection points: 2
#     Edge 12, Type (0, 0), BuildingBlock: TEMPAE_clean_linker_10, # of connection points: 2
#     Edge 13, Type (0, 0), BuildingBlock: TEMPAE_clean_linker_10, # of connection points: 2
#     Edge 14, Type (0, 0), BuildingBlock: TEMPAE_clean_linker_10, # of connection points: 2
#     Edge 15, Type (0, 0), BuildingBlock: TEMPAE_clean_linker_10, # of connection points: 2
#     Edge 16, Type (0, 0), BuildingBlock: TEMPAE_clean_linker_10, # of connection points: 2
#     Edge 17, Type (0, 0), BuildingBlock: TEMPAE_clean_linker_10, # of connection points: 2
#     Edge 18, Type (0, 0), BuildingBlock: TEMPAE_clean_linker_10, # of connection points: 2
#     Edge 19, Type (0, 0), BuildingBlock: TEMPAE_clean_linker_10, # of connection points: 2
#     Edge 20, Type (0, 0), BuildingBlock: TEMPAE_clean_linker_10, # of connection points: 2
# Relax obj value: 0.499
# Max RMSD: 0.269
# Mean RMSD: 0.269
data_MOF--net-fnv--node1-BEQFEK_clean_sbu_0--edge1-TEMPAE_clean_linker_10
_symmetry_space_group_name_H-M    P1
_symmetry_Int_Tables_number       1
_symmetry_cell_setting            triclinic
loop_
_symmetry_equiv_pos_as_xyz
'x, y, z'
_cell_length_a     35.228401
_cell_length_b     35.29736
_cell_length_c     29.661983
_cell_angle_alpha  90.126488
_cell_angle_beta   89.624037
_cell_angle_gamma 120.14257
loop_
_atom_site_label
_atom_site_type_symbol
_atom_site_fract_x
_atom_site_fract_y
_atom_site_fract_z
_atom_type_partial_charge
Co0 Co 0.27818 0.39337 0.97922 0.0
Co1 Co 0.26594 0.45354 0.04719 0.0
C2 C 0.27375 0.47351 0.95064 0.0
O3 O 0.27841 0.44052 0.94323 0.0
O4 O 0.26654 0.48243 0.99025 0.0
C5 C 0.24806 0.335 0.90454 0.0
O6 O 0.21702 0.34516 0.90191 0.0
C7 C 0.26431 0.52315 0.09871 0.0
C8 C 0.23614 0.49067 0.16382 0.0
C9 C 0.25082 0.52986 0.14077 0.0
N10 N 0.25601 0.48165 0.09679 0.0
N11 N 0.2405 0.46285 0.13627 0.0
C12 C 0.2899 0.55634 0.06298 0.0
H13 H 0.3106 0.54645 0.04371 0.0
H14 H 0.26683 0.55857 0.03932 0.0
H15 H 0.31161 0.58899 0.07811 0.0
C16 C 0.19528 0.32575 0.02238 0.0
N17 N 0.22976 0.36689 0.01907 0.0
N18 N 0.22274 0.39299 0.04517 0.0
C19 C 0.18255 0.36965 0.06398 0.0
C20 C 0.16457 0.32632 0.05105 0.0
C21 C 0.19072 0.28675 -0.00238 0.0
H22 H 0.2234 0.29036 0.99115 0.0
H23 H 0.174 0.28345 0.9651 0.0
H24 H 0.17019 0.2564 0.01738 0.0
O25 O 0.33461 0.41935 0.01081 0.0
O26 O 0.32607 0.46437 0.05624 0.0
H27 H 0.15788 0.38448 0.12353 0.0
H28 H 0.1234 0.37208 0.07537 0.0
C29 C 0.1581 0.3891 0.08654 0.0
H30 H 0.17319 0.4244 0.07842 0.0
H31 H 0.23309 0.43113 0.14447 0.0
O32 O 0.2765 0.3512 0.93557 0.0
C33 C 0.3496 0.44949 0.04037 0.0
Co34 Co 0.85335 0.25612 0.25611 0.0
Co35 Co 0.78494 0.23913 0.33207 0.0
C36 C 0.77104 0.26167 0.24133 0.0
O37 O 0.8069 0.26439 0.22834 0.0
O38 O 0.75698 0.25071 0.28151 0.0
C39 C 0.87933 0.23101 0.17406 0.0
O40 O 0.8386 0.19858 0.17177 0.0
C41 C 0.71141 0.22231 0.39245 0.0
C42 C 0.73636 0.21396 0.45769 0.0
C43 C 0.70162 0.21556 0.43812 0.0
N44 N 0.75043 0.22503 0.38549 0.0
N45 N 0.76514 0.22002 0.4246 0.0
C46 C 0.68362 0.22437 0.35569 0.0
H47 H 0.68488 0.20607 0.32583 0.0
H48 H 0.64895 0.21023 0.36668 0.0
H49 H 0.69682 0.25906 0.34572 0.0
C50 C 0.83496 0.16769 0.28647 0.0
N51 N 0.82934 0.2028 0.28846 0.0
N52 N 0.79747 0.19453 0.31716 0.0
C53 C 0.77997 0.15318 0.33211 0.0
C54 C 0.80326 0.13496 0.31333 0.0
C55 C 0.87011 0.16544 0.26011 0.0
H56 H 0.89866 0.19871 0.2547 0.0
H57 H 0.85679 0.14987 0.22703 0.0
H58 H 0.88092 0.14492 0.27795 0.0
O59 O 0.8884 0.30733 0.29503 0.0
O60 O 0.838 0.29508 0.34681 0.0
H61 H 0.75427 0.13785 0.39923 0.0
H62 H 0.72267 0.09594 0.35877 0.0
C63 C 0.74189 0.13176 0.36414 0.0
H64 H 0.71978 0.14527 0.3596 0.0
H65 H 0.79521 0.22141 0.42875 0.0
O66 O 0.89144 0.25762 0.20692 0.0
C67 C 0.87625 0.31887 0.33042 0.0
Co68 Co 0.62058 0.87408 0.59991 0.0
Co69 Co 0.56701 0.80524 0.67434 0.0
C70 C 0.52963 0.79758 0.5841 0.0
O71 O 0.56376 0.83252 0.57111 0.0
O72 O 0.52676 0.7823 0.6235 0.0
C73 C 0.66723 0.89608 0.51668 0.0
O74 O 0.65035 0.85353 0.5127 0.0
C75 C 0.50433 0.72998 0.72825 0.0
C76 C 0.53154 0.7503 0.7967 0.0
C77 C 0.49602 0.71813 0.77329 0.0
N78 N 0.54264 0.76786 0.72522 0.0
N79 N 0.55887 0.77971 0.76622 0.0
C80 C 0.47708 0.70529 0.68854 0.0
H81 H 0.49876 0.70705 0.66035 0.0
H82 H 0.45427 0.67039 0.69699 0.0
H83 H 0.45778 0.7205 0.67734 0.0
C84 C 0.68663 0.84883 0.62572 0.0
N85 N 0.64665 0.8451 0.62884 0.0
N86 N 0.62252 0.81384 0.65776 0.0
C87 C 0.64531 0.79515 0.67223 0.0
C88 C 0.68681 0.81684 0.65253 0.0
C89 C 0.72413 0.88275 0.59832 0.0
H90 H 0.72311 0.91364 0.59764 0.0
H91 H 0.72152 0.87058 0.56335 0.0
H92 H 0.75615 0.88931 0.61177 0.0
O93 O 0.60936 0.91068 0.64228 0.0
O94 O 0.57005 0.86016 0.69338 0.0
H95 H 0.64489 0.73966 0.70413 0.0
H96 H 0.59259 0.73672 0.70169 0.0
C97 C 0.62825 0.75909 0.70649 0.0
H98 H 0.63362 0.77355 0.74072 0.0
H99 H 0.58789 0.80865 0.77352 0.0
O100 O 0.65895 0.91154 0.55167 0.0
C101 C 0.58699 0.89914 0.67866 0.0
Co102 Co 0.74353 0.64854 0.95384 0.0
Co103 Co 0.74209 0.58663 0.02904 0.0
C104 C 0.72572 0.55758 0.9341 0.0
O105 O 0.72926 0.59356 0.92106 0.0
O106 O 0.73078 0.55106 0.97511 0.0
C107 C 0.78266 0.69961 0.87559 0.0
O108 O 0.80496 0.67894 0.87485 0.0
C109 C 0.74516 0.51751 0.0791 0.0
C110 C 0.73706 0.53299 0.14952 0.0
C111 C 0.73963 0.50213 0.12283 0.0
N112 N 0.74495 0.5554 0.07955 0.0
N113 N 0.74033 0.56466 0.12175 0.0
C114 C 0.75195 0.49728 0.03769 0.0
H115 H 0.77619 0.52327 0.01505 0.0
H116 H 0.76393 0.47452 0.04629 0.0
H117 H 0.72033 0.47875 0.01959 0.0
C118 C 0.83203 0.70658 -0.00588 0.0
N119 N 0.79336 0.66864 0.99159 0.0
N120 N 0.79316 0.641 0.02136 0.0
C121 C 0.83202 0.65938 0.04229 0.0
C122 C 0.85792 0.70155 0.02573 0.0
C123 C 0.84401 0.74686 0.96716 0.0
H124 H 0.81454 0.7498 0.96127 0.0
H125 H 0.85769 0.74457 0.93416 0.0
H126 H 0.8694 0.77668 0.98449 0.0
O127 O 0.69015 0.63709 0.98799 0.0
O128 O 0.69062 0.59276 0.04041 0.0
H129 H 0.82626 0.63757 0.11039 0.0
H130 H 0.87868 0.65356 0.08496 0.0
C131 C 0.843 0.63721 0.07872 0.0
H132 H 0.83109 0.60265 0.0693 0.0
H133 H 0.73808 0.59192 0.13141 0.0
O134 O 0.75525 0.69197 0.90725 0.0
C135 C 0.67295 0.61267 0.02238 0.0
Co136 Co 0.07903 0.72104 0.32494 0.0
Co137 Co 0.14015 0.71245 0.3946 0.0
C138 C 0.15697 0.71392 0.29664 0.0
O139 O 0.12295 0.71607 0.2873 0.0
O140 O 0.16813 0.7133 0.33707 0.0
C141 C 0.06698 0.7664 0.25365 0.0
O142 O 0.11011 0.78764 0.25303 0.0
C143 C 0.21927 0.72529 0.43824 0.0
C144 C 0.1954 0.69729 0.50608 0.0
C145 C 0.23228 0.71594 0.47855 0.0
N146 N 0.17641 0.7122 0.44136 0.0
N147 N 0.16225 0.69548 0.48197 0.0
C148 C 0.24752 0.74825 0.39812 0.0
H149 H 0.2361 0.76893 0.38171 0.0
H150 H 0.28241 0.76908 0.40793 0.0
H151 H 0.24511 0.72347 0.37344 0.0
C152 C 0.10583 0.80233 0.37819 0.0
N153 N 0.10522 0.76435 0.37026 0.0
N154 N 0.13144 0.76065 0.39904 0.0
C155 C 0.15011 0.79626 0.42551 0.0
C156 C 0.13463 0.82378 0.41301 0.0
C157 C 0.08156 0.81921 0.35151 0.0
H158 H 0.04877 0.79185 0.34205 0.0
H159 H 0.10045 0.8352 0.32041 0.0
H160 H 0.07766 0.8439 0.37107 0.0
O161 O 0.03948 0.66199 0.35049 0.0
O162 O 0.08456 0.65645 0.39841 0.0
H163 H 0.17 0.77701 0.48503 0.0
H164 H 0.19333 0.83535 0.47952 0.0
C165 C 0.18364 0.80464 0.46078 0.0
H166 H 0.21309 0.8067 0.4446 0.0
H167 H 0.12985 0.68239 0.49301 0.0
O168 O 0.04648 0.7366 0.28296 0.0
C169 C 0.04742 0.6401 0.37926 0.0
Co170 Co 0.37994 0.08706 0.67808 0.0
Co171 Co 0.44815 0.15467 0.74507 0.0
C172 C 0.46173 0.16601 0.64552 0.0
O173 O 0.42538 0.13133 0.63817 0.0
O174 O 0.47437 0.17911 0.6855 0.0
C175 C 0.31923 0.06401 0.60743 0.0
O176 O 0.33854 0.1067 0.60235 0.0
C177 C 0.50849 0.23947 0.78419 0.0
C178 C 0.51648 0.22219 0.85365 0.0
C179 C 0.53039 0.2571 0.82411 0.0
N180 N 0.48315 0.19599 0.78954 0.0
N181 N 0.48801 0.18578 0.83112 0.0
C182 C 0.50929 0.26376 0.74257 0.0
H183 H 0.47721 0.24615 0.72515 0.0
H184 H 0.51678 0.29749 0.75093 0.0
H185 H 0.53515 0.26597 0.71939 0.0
C186 C 0.32065 0.10839 0.72951 0.0
N187 N 0.36008 0.11208 0.72162 0.0
N188 N 0.38899 0.14103 0.74955 0.0
C189 C 0.36895 0.15689 0.77591 0.0
C190 C 0.325 0.13655 0.76408 0.0
C191 C 0.27959 0.07935 0.70401 0.0
H192 H 0.27713 0.04729 0.69726 0.0
H193 H 0.28042 0.09511 0.67145 0.0
H194 H 0.25012 0.074 0.72318 0.0
O195 O 0.40514 0.05383 0.70611 0.0
O196 O 0.4536 0.10228 0.75378 0.0
H197 H 0.4072 0.18371 0.83539 0.0
H198 H 0.37031 0.20404 0.82411 0.0
C199 C 0.39245 0.19387 0.80848 0.0
H200 H 0.41936 0.22238 0.79067 0.0
H201 H 0.47207 0.15395 0.844 0.0
O202 O 0.33171 0.04823 0.63866 0.0
C203 C 0.43511 0.06459 0.73547 0.0
C204 C 0.61028 0.57497 0.07625 0.0
C205 C 0.62806 0.60049 0.0372 0.0
C206 C 0.56502 0.55299 0.08475 0.0
C207 C 0.53699 0.5568 0.05353 0.0
C208 C 0.55509 0.58588 0.01646 0.0
C209 C 0.60056 0.60753 0.00876 0.0
C210 C 0.54702 0.52278 0.12499 0.0
C211 C 0.52617 0.59128 0.98278 0.0
C212 C 0.42456 0.45945 0.03063 0.0
C213 C 0.39701 0.4726 0.05095 0.0
C214 C 0.4703 0.48586 0.03288 0.0
C215 C 0.4889 0.52634 0.0561 0.0
C216 C 0.46141 0.53848 0.07918 0.0
C217 C 0.41573 0.51141 0.0764 0.0
C218 C 0.49867 0.47148 0.00834 0.0
C219 C 0.4801 0.58118 0.10462 0.0
H220 H 0.6314 0.56986 0.09881 0.0
H221 H 0.61402 0.62736 0.97868 0.0
H222 H 0.52096 0.52638 0.14221 0.0
H223 H 0.53202 0.48831 0.11347 0.0
H224 H 0.57305 0.52903 0.14976 0.0
H225 H 0.5454 0.61901 0.95927 0.0
H226 H 0.50809 0.56082 0.96267 0.0
H227 H 0.50143 0.59675 0.00032 0.0
H228 H 0.41046 0.42944 0.01115 0.0
H229 H 0.39475 0.52185 0.09239 0.0
H230 H 0.52376 0.47236 0.0314 0.0
H231 H 0.51634 0.49444 0.98018 0.0
H232 H 0.47921 0.43788 -0.00566 0.0
H233 H 0.50743 0.58574 0.12662 0.0
H234 H 0.45486 0.58298 0.1257 0.0
H235 H 0.49368 0.60881 0.0803 0.0
C236 C 0.97947 0.57108 0.35698 0.0
C237 C 0.01614 0.59265 0.38507 0.0
C238 C 0.95545 0.52519 0.35482 0.0
C239 C 0.96841 0.50042 0.38145 0.0
C240 C 0.0031 0.52184 0.41251 0.0
C241 C 0.02651 0.56774 0.41403 0.0
C242 C 0.9181 0.50338 0.32175 0.0
C243 C 0.01756 0.49653 0.44183 0.0
C244 C 0.88846 0.37817 0.38475 0.0
C245 C 0.90412 0.36342 0.34904 0.0
C246 C 0.91013 0.42248 0.39717 0.0
C247 C 0.94841 0.45265 0.37344 0.0
C248 C 0.96605 0.43755 0.33948 0.0
C249 C 0.94369 0.39308 0.32769 0.0
C250 C 0.89058 0.43731 0.43382 0.0
C251 C 0.00725 0.46876 0.31384 0.0
H252 H 0.97099 0.58997 0.3347 0.0
H253 H 0.05451 0.58404 0.43625 0.0
H254 H 0.92752 0.48855 0.29398 0.0
H255 H 0.88856 0.47658 0.33845 0.0
H256 H 0.90937 0.52685 0.3069 0.0
H257 H 0.04058 0.51735 0.46857 0.0
H258 H 0.98885 0.46824 0.45795 0.0
H259 H 0.03432 0.48333 0.42063 0.0
H260 H 0.85806 0.35551 0.40173 0.0
H261 H 0.9562 0.382 0.30029 0.0
H262 H 0.87647 0.45616 0.41857 0.0
H263 H 0.91625 0.45937 0.45784 0.0
H264 H 0.86419 0.40927 0.45287 0.0
H265 H 0.00108 0.49141 0.29342 0.0
H266 H 0.0185 0.45138 0.29092 0.0
H267 H 0.03411 0.48901 0.33761 0.0
C268 C 0.54786 0.91534 0.73956 0.0
C269 C 0.57407 0.92882 0.7004 0.0
C270 C 0.52661 0.93761 0.75471 0.0
C271 C 0.53171 0.97412 0.73008 0.0
C272 C 0.56116 0.99019 0.69296 0.0
C273 C 0.58212 0.96739 0.67862 0.0
C274 C 0.49609 0.91995 0.79491 0.0
C275 C 0.56789 0.02947 0.66615 0.0
C276 C 0.43861 -0.00274 0.71759 0.0
C277 C 0.45408 0.03597 0.74258 0.0
C278 C 0.46241 0.97526 0.71549 0.0
C279 C 0.50247 0.99226 0.73917 0.0
C280 C 0.51625 0.02901 0.76761 0.0
C281 C 0.49186 0.05048 0.769 0.0
C282 C 0.44626 0.93568 0.68525 0.0
C283 C 0.55833 0.04757 0.79402 0.0
H284 H 0.54188 0.88588 0.75704 0.0
H285 H 0.60257 0.97828 0.64859 0.0
H286 H 0.49999 0.94696 0.81716 0.0
H287 H 0.4616 0.90236 0.7831 0.0
H288 H 0.50181 0.89677 0.81499 0.0
H289 H 0.59518 0.04049 0.64131 0.0
H290 H 0.53736 0.02103 0.64765 0.0
H291 H 0.57498 0.05718 0.68895 0.0
H292 H 0.40924 0.98548 0.69746 0.0
H293 H 0.5039 0.08012 0.78882 0.0
H294 H 0.44607 0.90824 0.7036 0.0
H295 H 0.46885 0.94386 0.65597 0.0
H296 H 0.41269 0.92435 0.67239 0.0
H297 H 0.56148 0.02104 0.81035 0.0
H298 H 0.56036 0.07096 0.82033 0.0
H299 H 0.58669 0.06515 0.77071 0.0
C300 C 0.22374 0.7184 0.2624 0.0
C301 C 0.17847 0.70235 0.26111 0.0
C302 C 0.24264 0.69892 0.23628 0.0
C303 C 0.21508 0.6613 0.21047 0.0
C304 C 0.16979 0.64703 0.20672 0.0
C305 C 0.15221 0.66849 0.23142 0.0
C306 C 0.29146 0.71663 0.23894 0.0
C307 C 0.13897 0.60628 0.18063 0.0
C308 C 0.2496 0.60047 0.13036 0.0
C309 C 0.24837 0.56798 0.15869 0.0
C310 C 0.24291 0.63373 0.14753 0.0
C311 C 0.23158 0.63269 0.19345 0.0
C312 C 0.23095 0.60061 0.22245 0.0
C313 C 0.24033 0.56936 0.20491 0.0
C314 C 0.24584 0.66859 0.11591 0.0
C315 C 0.21766 0.59745 0.27149 0.0
H316 H 0.24399 0.74483 0.2853 0.0
H317 H 0.11708 0.65587 0.2309 0.0
H318 H 0.29809 0.69655 0.26283 0.0
H319 H 0.30497 0.71502 0.20553 0.0
H320 H 0.30909 0.75108 0.25099 0.0
H321 H 0.10519 0.60112 0.17907 0.0
H322 H 0.15119 0.60809 0.14575 0.0
H323 H 0.13737 0.57723 0.19696 0.0
H324 H 0.25374 0.5994 0.09446 0.0
H325 H 0.23932 0.54466 0.22731 0.0
H326 H 0.25984 0.70077 0.13312 0.0
H327 H 0.21254 0.65946 0.10407 0.0
H328 H 0.26636 0.67219 0.08583 0.0
H329 H 0.23955 0.6286 0.28913 0.0
H330 H 0.21883 0.57046 0.28943 0.0
H331 H 0.18375 0.59179 0.27404 0.0
C332 C 0.4823 0.16764 0.56455 0.0
C333 C 0.49316 0.18641 0.60769 0.0
C334 C 0.51492 0.17788 0.53181 0.0
C335 C 0.55921 0.2078 0.54248 0.0
C336 C 0.56962 0.23061 0.58396 0.0
C337 C 0.5364 0.21962 0.61615 0.0
C338 C 0.50244 0.15331 0.48767 0.0
C339 C 0.61642 0.26335 0.5963 0.0
C340 C 0.64476 0.18232 0.49794 0.0
C341 C 0.6638 0.21261 0.4628 0.0
C342 C 0.61025 0.18013 0.5236 0.0
C343 C 0.59483 0.20941 0.51416 0.0
C344 C 0.61395 0.24014 0.47866 0.0
C345 C 0.64843 0.24147 0.4534 0.0
C346 C 0.59059 0.14672 0.56114 0.0
C347 C 0.59866 0.27212 0.46806 0.0
H348 H 0.44885 0.14244 0.55735 0.0
H349 H 0.54508 0.23478 0.64911 0.0
H350 H 0.52031 0.17554 0.45909 0.0
H351 H 0.51173 0.12757 0.48841 0.0
H352 H 0.4666 0.13729 0.48135 0.0
H353 H 0.61811 0.28373 0.62566 0.0
H354 H 0.63393 0.2456 0.60507 0.0
H355 H 0.63405 0.28524 0.56743 0.0
H356 H 0.65691 0.16022 0.50531 0.0
H357 H 0.66414 0.26588 0.42714 0.0
H358 H 0.5548 0.12528 0.55585 0.0
H359 H 0.59498 0.16358 0.59393 0.0
H360 H 0.60578 0.12578 0.56337 0.0
H361 H 0.56262 0.25444 0.46295 0.0
H362 H 0.61496 0.29195 0.43749 0.0
H363 H 0.60573 0.29466 0.49697 0.0
C364 C 0.41441 0.6709 0.77892 0.0
C365 C 0.45633 0.68163 0.79389 0.0
C366 C 0.37655 0.63694 0.79929 0.0
C367 C 0.38097 0.61361 0.83563 0.0
C368 C 0.42331 0.62477 0.8512 0.0
C369 C 0.46048 0.65887 0.83025 0.0
C370 C 0.33197 0.62631 0.78229 0.0
C371 C 0.42941 0.6006 0.88993 0.0
C372 C 0.29735 0.54968 0.92569 0.0
C373 C 0.28727 0.50695 0.91474 0.0
C374 C 0.32467 0.58502 0.8976 0.0
C375 C 0.3418 0.57713 0.85767 0.0
C376 C 0.32678 0.53361 0.8435 0.0
C377 C 0.29944 0.49891 0.8722 0.0
C378 C 0.33918 0.63096 0.91343 0.0
C379 C 0.34362 0.52378 0.80069 0.0
H380 H 0.41115 0.68961 0.75186 0.0
H381 H 0.49293 0.66754 0.84203 0.0
H382 H 0.31261 0.59124 0.77275 0.0
H383 H 0.31352 0.6318 0.80949 0.0
H384 H 0.33428 0.64658 0.75267 0.0
H385 H 0.46457 0.61337 0.8978 0.0
H386 H 0.41281 0.6034 0.92062 0.0
H387 H 0.41409 0.56525 0.88174 0.0
H388 H 0.2874 0.55619 0.95805 0.0
H389 H 0.29096 0.46585 0.86294 0.0
H390 H 0.34122 0.65215 0.88488 0.0
H391 H 0.3724 0.64539 0.92832 0.0
H392 H 0.31657 0.63135 0.93948 0.0
H393 H 0.34476 0.54508 0.77266 0.0
H394 H 0.32301 0.48899 0.79039 0.0
H395 H 0.37758 0.53048 0.80617 0.0
C396 C 0.71473 0.28354 0.22868 0.0
C397 C 0.75075 0.28069 0.21256 0.0
C398 C 0.70428 0.31353 0.2099 0.0
C399 C 0.73052 0.341 0.17434 0.0
C400 C 0.76318 0.33424 0.15427 0.0
C401 C 0.77271 0.30381 0.17347 0.0
C402 C 0.66829 0.31892 0.23131 0.0
C403 C 0.79154 0.36258 0.11589 0.0
C404 C 0.70644 0.4214 0.11511 0.0
C405 C 0.73456 0.46026 0.13802 0.0
C406 C 0.70336 0.38169 0.12753 0.0
C407 C 0.72931 0.38125 0.16343 0.0
C408 C 0.75652 0.42023 0.18773 0.0
C409 C 0.75845 0.45931 0.17492 0.0
C410 C 0.67337 0.34062 0.10155 0.0
C411 C 0.78479 0.42103 0.22623 0.0
H412 H 0.69686 0.26501 0.25822 0.0
H413 H 0.80005 0.30121 0.16019 0.0
H414 H 0.68313 0.34777 0.25402 0.0
H415 H 0.64927 0.3248 0.20538 0.0
H416 H 0.64542 0.28971 0.25156 0.0
H417 H 0.81058 0.34886 0.09976 0.0
H418 H 0.77134 0.36648 0.08983 0.0
H419 H 0.81504 0.39571 0.12894 0.0
H420 H 0.68705 0.42215 0.08727 0.0
H421 H 0.77987 0.48947 0.19269 0.0
H422 H 0.65253 0.31348 0.12502 0.0
H423 H 0.69326 0.33014 0.08165 0.0
H424 H 0.6518 0.34559 0.07807 0.0
H425 H 0.76418 0.39681 0.25235 0.0
H426 H 0.80324 0.45382 0.24226 0.0
H427 H 0.80872 0.41165 0.21378 0.0
C428 C 0.29523 0.74267 0.53087 0.0
C429 C 0.2759 0.723 0.48995 0.0
C430 C 0.33764 0.75158 0.5413 0.0
C431 C 0.3606 0.73954 0.51037 0.0
C432 C 0.34052 0.7183 0.46961 0.0
C433 C 0.29832 0.71044 0.45977 0.0
C434 C 0.35822 0.77468 0.58498 0.0
C435 C 0.36368 0.7042 0.4364 0.0
C436 C 0.4834 0.80498 0.52569 0.0
C437 C 0.48971 0.77847 0.5563 0.0
C438 C 0.44175 0.79146 0.50799 0.0
C439 C 0.40597 0.75023 0.52075 0.0
C440 C 0.41311 0.72161 0.54804 0.0
C441 C 0.45497 0.7362 0.56571 0.0
C442 C 0.43535 0.82291 0.47901 0.0
C443 C 0.37594 0.67699 0.5615 0.0
H444 H 0.27761 0.75218 0.55411 0.0
H445 H 0.28273 0.69425 0.42855 0.0
H446 H 0.36724 0.75424 0.60561 0.0
H447 H 0.38887 0.80598 0.57781 0.0
H448 H 0.33594 0.78189 0.6052 0.0
H449 H 0.34282 0.68666 0.40697 0.0
H450 H 0.39416 0.73324 0.42397 0.0
H451 H 0.3735 0.68242 0.45325 0.0
H452 H 0.51015 0.8377 0.51828 0.0
H453 H 0.45992 0.71533 0.58877 0.0
H454 H 0.41721 0.83568 0.49859 0.0
H455 H 0.41542 0.80601 0.44894 0.0
H456 H 0.46708 0.85115 0.46763 0.0
H457 H 0.35466 0.68083 0.58665 0.0
H458 H 0.38806 0.6563 0.57664 0.0
H459 H 0.35528 0.65964 0.53196 0.0
C460 C 0.59627 0.32819 0.80285 0.0
C461 C 0.56262 0.3032 0.83377 0.0
C462 C 0.62744 0.37197 0.81205 0.0
C463 C 0.62447 0.39099 0.85296 0.0
C464 C 0.59036 0.36578 0.88421 0.0
C465 C 0.56009 0.32195 0.87439 0.0
C466 C 0.66388 0.39759 0.77847 0.0
C467 C 0.58589 0.38509 0.92808 0.0
C468 C 0.71866 0.48677 0.911 0.0
C469 C 0.70845 0.5198 0.90345 0.0
C470 C 0.69371 0.44536 0.89144 0.0
C471 C 0.65744 0.43686 0.86422 0.0
C472 C 0.64952 0.47129 0.85317 0.0
C473 C 0.67549 0.51266 0.87273 0.0
C474 C 0.70382 0.40978 0.90322 0.0
C475 C 0.61106 0.46342 0.82437 0.0
H476 H 0.59878 0.31322 0.77188 0.0
H477 H 0.534 0.30244 0.89822 0.0
H478 H 0.66418 0.42804 0.76866 0.0
H479 H 0.69606 0.40752 0.79416 0.0
H480 H 0.66063 0.37839 0.74755 0.0
H481 H 0.55652 0.36154 0.9478 0.0
H482 H 0.61544 0.39531 0.94904 0.0
H483 H 0.58354 0.41475 0.92133 0.0
H484 H 0.7446 0.49256 0.9343 0.0
H485 H 0.66744 0.53816 0.86703 0.0
H486 H 0.70187 0.39043 0.87291 0.0
H487 H 0.67917 0.38699 0.92794 0.0
H488 H 0.73692 0.42331 0.91831 0.0
H489 H 0.60877 0.44394 0.79407 0.0
H490 H 0.61333 0.49458 0.81343 0.0
H491 H 0.58022 0.44432 0.844 0.0
C492 C 0.28215 0.17264 0.74662 0.0
C493 C 0.29361 0.15027 0.77754 0.0
C494 C 0.26279 0.19675 0.76149 0.0
C495 C 0.25498 0.19808 0.80816 0.0
C496 C 0.26117 0.17066 0.83839 0.0
C497 C 0.28096 0.14727 0.82268 0.0
C498 C 0.25604 0.22502 0.72816 0.0
C499 C 0.25206 0.17024 0.88822 0.0
C500 C 0.28928 0.30665 0.86289 0.0
C501 C 0.24884 0.30266 0.87408 0.0
C502 C 0.29145 0.27373 0.83897 0.0
C503 C 0.25202 0.23544 0.82671 0.0
C504 C 0.21098 0.23214 0.83589 0.0
C505 C 0.20987 0.26618 0.8594 0.0
C506 C 0.33604 0.27902 0.82913 0.0
C507 C 0.16834 0.1918 0.82352 0.0
H508 H 0.29187 0.1745 0.71156 0.0
H509 H 0.28957 0.12936 0.84622 0.0
H510 H 0.22587 0.22621 0.73621 0.0
H511 H 0.28427 0.25899 0.72992 0.0
H512 H 0.25383 0.21301 0.69308 0.0
H513 H 0.25034 0.14144 0.90531 0.0
H514 H 0.27878 0.20038 0.90391 0.0
H515 H 0.22078 0.16993 0.89417 0.0
H516 H 0.31937 0.33523 0.87389 0.0
H517 H 0.17857 0.26315 0.86835 0.0
H518 H 0.33872 0.27203 0.79313 0.0
H519 H 0.34047 0.25532 0.84969 0.0
H520 H 0.36325 0.31253 0.83694 0.0
H521 H 0.17076 0.17881 0.7902 0.0
H522 H 0.14072 0.1985 0.82288 0.0
H523 H 0.16054 0.16585 0.84895 0.0
C524 C 0.91335 0.19711 0.12694 0.0
C525 C 0.91285 0.2345 0.14202 0.0
C526 C 0.95026 0.20103 0.10413 0.0
C527 C 0.98678 0.24327 0.09613 0.0
C528 C 0.98448 0.28099 0.10791 0.0
C529 C 0.94766 0.27607 0.1311 0.0
C530 C 0.95141 0.1601 0.092 0.0
C531 C 0.02233 0.32675 0.09935 0.0
C532 C 0.10571 0.27835 0.10385 0.0
C533 C 0.11915 0.29162 0.05949 0.0
C534 C 0.06115 0.25657 0.1154 0.0
C535 C 0.0298 0.24921 0.08176 0.0
C536 C 0.04306 0.25808 0.03601 0.0
C537 C 0.08797 0.27931 0.02531 0.0
C538 C 0.04829 0.24662 0.16445 0.0
C539 C 0.01062 0.25022 -0.00083 0.0
H540 H 0.88632 0.16491 0.13561 0.0
H541 H 0.94687 0.30492 0.14243 0.0
H542 H 0.969 0.16411 0.05963 0.0
H543 H 0.96921 0.15332 0.11859 0.0
H544 H 0.9178 0.13125 0.08951 0.0
H545 H 0.01314 0.35217 0.1056 0.0
H546 H 0.04995 0.3333 0.12196 0.0
H547 H 0.03429 0.33007 0.0641 0.0
H548 H 0.13021 0.28806 0.13004 0.0
H549 H 0.09878 0.28995 0.99098 0.0
H550 H 0.018 0.21429 0.16826 0.0
H551 H 0.04151 0.27183 0.17846 0.0
H552 H 0.07477 0.24671 0.18469 0.0
H553 H 0.97912 0.21944 0.00512 0.0
H554 H 0.02376 0.24863 0.96551 0.0
H555 H 0.00364 0.27759 -0.00119 0.0
C556 C 0.8252 0.08787 0.35384 0.0
C557 C 0.79681 0.0915 0.32377 0.0
C558 C 0.8111 0.04899 0.37816 0.0
C559 C 0.76746 0.01417 0.37276 0.0
C560 C 0.74158 0.0156 0.33724 0.0
C561 C 0.75684 0.0545 0.31281 0.0
C562 C 0.84038 0.04775 0.41426 0.0
C563 C 0.69523 0.97884 0.32965 0.0
C564 C 0.71371 0.91259 0.44704 0.0
C565 C 0.69507 0.92616 0.4808 0.0
C566 C 0.73928 0.94141 0.41236 0.0
C567 C 0.74508 0.98408 0.41108 0.0
C568 C 0.72693 -0.00202 0.44573 0.0
C569 C 0.7025 0.96896 0.48021 0.0
C570 C 0.75884 0.9256 0.37674 0.0
C571 C 0.73131 0.04285 0.44548 0.0
H572 H 0.85639 0.11663 0.36183 0.0
H573 H 0.73535 0.05757 0.28892 0.0
H574 H 0.83176 0.05665 0.44713 0.0
H575 H 0.83577 0.01437 0.41754 0.0
H576 H 0.87552 0.07137 0.40701 0.0
H577 H 0.68275 0.98138 0.29615 0.0
H578 H 0.69323 0.94657 0.33225 0.0
H579 H 0.67342 0.98017 0.35602 0.0
H580 H 0.70834 0.87955 0.44766 0.0
H581 H 0.68803 0.97956 0.50614 0.0
H582 H 0.79096 0.9525 0.36447 0.0
H583 H 0.7363 0.91287 0.34756 0.0
H584 H 0.76333 0.8986 0.38965 0.0
H585 H 0.7661 0.06886 0.44128 0.0
H586 H 0.71841 0.04962 0.47689 0.0
H587 H 0.71261 0.04503 0.41668 0.0
C588 C 0.72029 0.77026 0.6606 0.0
C589 C 0.72419 0.81148 0.66484 0.0
C590 C 0.74528 0.75879 0.68775 0.0
C591 C 0.77529 0.78996 0.7186 0.0
C592 C 0.78558 0.83409 0.71571 0.0
C593 C 0.75891 0.84427 0.68955 0.0
C594 C 0.73442 0.71166 0.68855 0.0
C595 C 0.82016 0.86896 0.74527 0.0
C596 C 0.75513 0.74225 0.8354 0.0
C597 C 0.78593 0.72841 0.83809 0.0
C598 C 0.75299 0.76427 0.79745 0.0
C599 C 0.78325 0.77379 0.76152 0.0
C600 C 0.81687 0.76322 0.76561 0.0
C601 C 0.81742 0.73995 0.80373 0.0
C602 C 0.71615 0.77444 0.7948 0.0
C603 C 0.85119 0.77458 0.72938 0.0
H604 H 0.69409 0.74546 0.64024 0.0
H605 H 0.76243 0.87653 0.69216 0.0
H606 H 0.76485 0.70975 0.6896 0.0
H607 H 0.71496 0.69543 0.71936 0.0
H608 H 0.71502 0.69322 0.65868 0.0
H609 H 0.83273 0.90209 0.73052 0.0
H610 H 0.80577 0.86831 0.77885 0.0
H611 H 0.84799 0.86307 0.75023 0.0
H612 H 0.73101 0.73391 0.86206 0.0
H613 H 0.8419 0.73002 0.80605 0.0
H614 H 0.69452 0.75636 0.76618 0.0
H615 H 0.72944 0.8099 0.78889 0.0
H616 H 0.69576 0.76507 0.82597 0.0
H617 H 0.84159 0.74539 0.70793 0.0
H618 H 0.88335 0.78366 0.74468 0.0
H619 H 0.85531 0.80194 0.70762 0.0
C620 C 0.93547 0.72446 0.03915 0.0
C621 C 0.90158 0.734 0.04213 0.0
C622 C 0.97086 0.74393 0.06885 0.0
C623 C 0.97224 0.77407 0.10131 0.0
C624 C 0.9422 0.78949 0.09861 0.0
C625 C 0.90641 0.76854 0.06934 0.0
C626 C 0.00283 0.72729 0.06982 0.0
C627 C 0.94437 0.82358 0.13085 0.0
C628 C -0.00312 0.74598 0.21557 0.0
C629 C 0.04229 0.77394 0.2183 0.0
C630 C 0.97333 0.74771 0.17878 0.0
C631 C -0.0043 0.77879 0.14407 0.0
C632 C 0.04089 0.80974 0.14853 0.0
C633 C 0.06389 0.80662 0.18549 0.0
C634 C 0.9252 0.71358 0.17553 0.0
C635 C 0.06565 0.84458 0.1134 0.0
H636 H 0.93167 0.6981 0.01731 0.0
H637 H 0.88022 0.7762 0.07103 0.0
H638 H 0.03689 0.75481 0.07377 0.0
H639 H -0.00484 0.70504 0.09914 0.0
H640 H 0.00111 0.70893 0.0387 0.0
H641 H 0.92681 0.83986 0.11735 0.0
H642 H 0.92865 0.80767 0.1633 0.0
H643 H 0.97895 0.84878 0.13783 0.0
H644 H 0.97987 0.72097 0.24105 0.0
H645 H 0.09897 0.82891 0.18785 0.0
H646 H 0.92095 0.68966 0.14896 0.0
H647 H 0.90533 0.72867 0.1662 0.0
H648 H 0.91192 0.69534 0.20764 0.0
H649 H 0.07985 0.83197 0.08806 0.0
H650 H 0.09324 0.87428 0.12886 0.0
H651 H 0.04403 0.85405 0.09563 0.0
C652 C 0.19648 0.89932 0.41763 0.0
C653 C 0.1526 0.86925 0.42757 0.0
C654 C 0.219 0.93831 0.44194 0.0
C655 C 0.19674 0.94691 0.4768 0.0
C656 C 0.15086 0.91934 0.48252 0.0
C657 C 0.12918 0.88022 0.4579 0.0
C658 C 0.26778 0.96714 0.4343 0.0
C659 C 0.12585 0.92834 0.51835 0.0
C660 C 0.26722 0.98907 0.58019 0.0
C661 C 0.28418 0.03429 0.5766 0.0
C662 C 0.23702 0.96023 0.54899 0.0
C663 C 0.22301 0.97699 0.51347 0.0
C664 C 0.23791 0.02235 0.51111 0.0
C665 C 0.26875 0.05066 0.54263 0.0
C666 C 0.2224 0.91207 0.55257 0.0
C667 C 0.22309 0.04132 0.47427 0.0
H668 H 0.21414 0.89047 0.39369 0.0
H669 H 0.09503 0.85671 0.46508 0.0
H670 H 0.27737 0.00223 0.43507 0.0
H671 H 0.28568 0.96149 0.46171 0.0
H672 H 0.27844 0.96004 0.40158 0.0
H673 H 0.09002 0.91042 0.5116 0.0
H674 H 0.13129 0.91748 0.55155 0.0
H675 H 0.13757 0.96392 0.52066 0.0
H676 H 0.27874 0.97615 0.60654 0.0
H677 H 0.28142 0.08563 0.54 0.0
H678 H 0.23682 0.90283 0.52422 0.0
H679 H 0.18618 0.89172 0.55022 0.0
H680 H 0.23287 0.90397 0.58464 0.0
H681 H 0.24282 0.0458 0.44337 0.0
H682 H 0.22767 0.07377 0.48399 0.0
H683 H 0.18807 0.01907 0.46584 0.0
loop_
_geom_bond_atom_site_label_1
_geom_bond_atom_site_label_2
_geom_bond_distance
_geom_bond_site_symmetry_2
_ccdc_geom_bond_type
Co0 O3 1.970 . S
Co0 N17 1.989 1_556 S
Co0 O25 1.966 1_556 S
Co0 O32 1.920 . S
Co1 O4 1.966 1_554 S
Co1 N10 2.022 . S
Co1 N18 1.993 . S
Co1 O26 1.941 . S
C2 O3 1.258 . S
C2 O4 1.263 . S
O3 Co0 1.970 . S
O3 C2 1.258 . S
O4 Co1 1.966 1_556 S
O4 C2 1.263 . S
C5 O6 1.235 . S
C5 O32 1.289 . S
O6 C5 1.235 . S
C7 C9 1.400 . S
C7 N10 1.351 . S
C7 C12 1.501 . S
C8 C9 1.387 . S
C8 N11 1.341 . S
C9 C7 1.400 . S
C9 C8 1.387 . S
N10 Co1 2.022 . S
N10 C7 1.351 . S
N10 N11 1.365 . S
N11 C8 1.341 . S
N11 N10 1.365 . S
N11 H31 0.862 . S
C12 C7 1.501 . S
C12 H13 0.961 . S
C12 H14 0.961 . S
C12 H15 0.960 . S
H13 C12 0.961 . S
H14 C12 0.961 . S
H15 C12 0.960 . S
C16 N17 1.342 . S
C16 C20 1.401 . S
C16 C21 1.504 . S
N17 Co0 1.989 1_554 S
N17 C16 1.342 . S
N17 N18 1.388 . S
N18 Co1 1.993 . S
N18 N17 1.388 . S
N18 C19 1.346 . S
C19 N18 1.346 . S
C19 C20 1.396 . S
C19 C29 1.510 . S
C20 C16 1.401 . S
C20 C19 1.396 . S
C21 C16 1.504 . S
C21 H22 0.952 1_554 S
C21 H23 0.955 1_554 S
C21 H24 0.968 . S
H22 C21 0.952 1_556 S
H23 C21 0.955 1_556 S
H24 C21 0.968 . S
O25 Co0 1.966 1_554 S
O25 C33 1.260 . S
O26 Co1 1.941 . S
O26 C33 1.266 . S
H27 C29 0.959 . S
H28 C29 0.961 . S
C29 C19 1.510 . S
C29 H27 0.959 . S
C29 H28 0.961 . S
C29 H30 0.960 . S
H30 C29 0.960 . S
H31 N11 0.862 . S
O32 Co0 1.920 . S
O32 C5 1.289 . S
C33 O25 1.260 . S
C33 O26 1.266 . S
Co34 O37 1.970 . S
Co34 N51 1.989 . S
Co34 O59 1.967 . S
Co34 O66 1.920 . S
Co35 O38 1.966 . S
Co35 N44 2.022 . S
Co35 N52 1.993 . S
Co35 O60 1.941 . S
C36 O37 1.258 . S
C36 O38 1.263 . S
O37 Co34 1.970 . S
O37 C36 1.258 . S
O38 Co35 1.966 . S
O38 C36 1.263 . S
C39 O40 1.235 . S
C39 O66 1.289 . S
O40 C39 1.235 . S
C41 C43 1.400 . S
C41 N44 1.351 . S
C41 C46 1.501 . S
C42 C43 1.387 . S
C42 N45 1.341 . S
C43 C41 1.400 . S
C43 C42 1.387 . S
N44 Co35 2.022 . S
N44 C41 1.351 . S
N44 N45 1.365 . S
N45 C42 1.341 . S
N45 N44 1.365 . S
N45 H65 0.862 . S
C46 C41 1.501 . S
C46 H47 0.961 . S
C46 H48 0.961 . S
C46 H49 0.960 . S
H47 C46 0.961 . S
H48 C46 0.961 . S
H49 C46 0.960 . S
C50 N51 1.342 . S
C50 C54 1.401 . S
C50 C55 1.499 . S
N51 Co34 1.989 . S
N51 C50 1.342 . S
N51 N52 1.388 . S
N52 Co35 1.993 . S
N52 N51 1.388 . S
N52 C53 1.346 . S
C53 N52 1.346 . S
C53 C54 1.396 . S
C53 C63 1.510 . S
C54 C50 1.401 . S
C54 C53 1.396 . S
C55 C50 1.499 . S
C55 H56 0.959 . S
C55 H57 0.960 . S
C55 H58 0.961 . S
H56 C55 0.959 . S
H57 C55 0.960 . S
H58 C55 0.961 . S
O59 Co34 1.967 . S
O59 C67 1.258 . S
O60 Co35 1.941 . S
O60 C67 1.266 . S
H61 C63 0.959 . S
H62 C63 0.961 . S
C63 C53 1.510 . S
C63 H61 0.959 . S
C63 H62 0.961 . S
C63 H64 0.960 . S
H64 C63 0.960 . S
H65 N45 0.862 . S
O66 Co34 1.920 . S
O66 C39 1.289 . S
C67 O59 1.258 . S
C67 O60 1.266 . S
Co68 O71 1.970 . S
Co68 N85 1.989 . S
Co68 O93 1.967 . S
Co68 O100 1.920 . S
Co69 O72 1.966 . S
Co69 N78 2.022 . S
Co69 N86 1.993 . S
Co69 O94 1.941 . S
C70 O71 1.258 . S
C70 O72 1.263 . S
O71 Co68 1.970 . S
O71 C70 1.258 . S
O72 Co69 1.966 . S
O72 C70 1.263 . S
C73 O74 1.235 . S
C73 O100 1.289 . S
O74 C73 1.235 . S
C75 C77 1.400 . S
C75 N78 1.351 . S
C75 C80 1.501 . S
C76 C77 1.387 . S
C76 N79 1.341 . S
C77 C75 1.400 . S
C77 C76 1.387 . S
N78 Co69 2.022 . S
N78 C75 1.351 . S
N78 N79 1.365 . S
N79 C76 1.341 . S
N79 N78 1.365 . S
N79 H99 0.862 . S
C80 C75 1.501 . S
C80 H81 0.961 . S
C80 H82 0.961 . S
C80 H83 0.960 . S
H81 C80 0.961 . S
H82 C80 0.961 . S
H83 C80 0.960 . S
C84 N85 1.342 . S
C84 C88 1.401 . S
C84 C89 1.499 . S
N85 Co68 1.989 . S
N85 C84 1.342 . S
N85 N86 1.388 . S
N86 Co69 1.993 . S
N86 N85 1.388 . S
N86 C87 1.346 . S
C87 N86 1.346 . S
C87 C88 1.396 . S
C87 C97 1.510 . S
C88 C84 1.401 . S
C88 C87 1.396 . S
C89 C84 1.499 . S
C89 H90 0.959 . S
C89 H91 0.960 . S
C89 H92 0.961 . S
H90 C89 0.959 . S
H91 C89 0.960 . S
H92 C89 0.961 . S
O93 Co68 1.967 . S
O93 C101 1.258 . S
O94 Co69 1.941 . S
O94 C101 1.266 . S
H95 C97 0.959 . S
H96 C97 0.961 . S
C97 C87 1.510 . S
C97 H95 0.959 . S
C97 H96 0.961 . S
C97 H98 0.960 . S
H98 C97 0.960 . S
H99 N79 0.862 . S
O100 Co68 1.920 . S
O100 C73 1.289 . S
C101 O93 1.258 . S
C101 O94 1.266 . S
Co102 O105 1.970 . S
Co102 N119 1.989 1_556 S
Co102 O127 1.966 1_556 S
Co102 O134 1.920 . S
Co103 O106 1.966 1_554 S
Co103 N112 2.022 . S
Co103 N120 1.993 . S
Co103 O128 1.941 . S
C104 O105 1.258 . S
C104 O106 1.263 . S
O105 Co102 1.970 . S
O105 C104 1.258 . S
O106 Co103 1.966 1_556 S
O106 C104 1.263 . S
C107 O108 1.235 . S
C107 O134 1.289 . S
O108 C107 1.235 . S
C109 C111 1.400 . S
C109 N112 1.351 . S
C109 C114 1.501 . S
C110 C111 1.387 . S
C110 N113 1.341 . S
C111 C109 1.400 . S
C111 C110 1.387 . S
N112 Co103 2.022 . S
N112 C109 1.351 . S
N112 N113 1.365 . S
N113 C110 1.341 . S
N113 N112 1.365 . S
N113 H133 0.862 . S
C114 C109 1.501 . S
C114 H115 0.961 . S
C114 H116 0.961 . S
C114 H117 0.960 . S
H115 C114 0.961 . S
H116 C114 0.961 . S
H117 C114 0.960 . S
C118 N119 1.342 . S
C118 C122 1.401 . S
C118 C123 1.504 . S
N119 Co102 1.989 1_554 S
N119 C118 1.342 . S
N119 N120 1.388 . S
N120 Co103 1.993 . S
N120 N119 1.388 . S
N120 C121 1.346 . S
C121 N120 1.346 . S
C121 C122 1.396 . S
C121 C131 1.510 . S
C122 C118 1.401 . S
C122 C121 1.396 . S
C123 C118 1.504 . S
C123 H124 0.952 1_554 S
C123 H125 0.955 1_554 S
C123 H126 0.968 . S
H124 C123 0.952 1_556 S
H125 C123 0.955 1_556 S
H126 C123 0.968 . S
O127 Co102 1.966 1_554 S
O127 C135 1.260 . S
O128 Co103 1.941 . S
O128 C135 1.266 . S
H129 C131 0.959 . S
H130 C131 0.961 . S
C131 C121 1.510 . S
C131 H129 0.959 . S
C131 H130 0.961 . S
C131 H132 0.960 . S
H132 C131 0.960 . S
H133 N113 0.862 . S
O134 Co102 1.920 . S
O134 C107 1.289 . S
C135 O127 1.260 . S
C135 O128 1.266 . S
Co136 O139 1.970 . S
Co136 N153 1.989 . S
Co136 O161 1.967 . S
Co136 O168 1.920 . S
Co137 O140 1.966 . S
Co137 N146 2.022 . S
Co137 N154 1.993 . S
Co137 O162 1.941 . S
C138 O139 1.258 . S
C138 O140 1.263 . S
O139 Co136 1.970 . S
O139 C138 1.258 . S
O140 Co137 1.966 . S
O140 C138 1.263 . S
C141 O142 1.235 . S
C141 O168 1.289 . S
O142 C141 1.235 . S
C143 C145 1.400 . S
C143 N146 1.351 . S
C143 C148 1.501 . S
C144 C145 1.387 . S
C144 N147 1.341 . S
C145 C143 1.400 . S
C145 C144 1.387 . S
N146 Co137 2.022 . S
N146 C143 1.351 . S
N146 N147 1.365 . S
N147 C144 1.341 . S
N147 N146 1.365 . S
N147 H167 0.862 . S
C148 C143 1.501 . S
C148 H149 0.961 . S
C148 H150 0.961 . S
C148 H151 0.960 . S
H149 C148 0.961 . S
H150 C148 0.961 . S
H151 C148 0.960 . S
C152 N153 1.342 . S
C152 C156 1.401 . S
C152 C157 1.499 . S
N153 Co136 1.989 . S
N153 C152 1.342 . S
N153 N154 1.388 . S
N154 Co137 1.993 . S
N154 N153 1.388 . S
N154 C155 1.346 . S
C155 N154 1.346 . S
C155 C156 1.396 . S
C155 C165 1.510 . S
C156 C152 1.401 . S
C156 C155 1.396 . S
C157 C152 1.499 . S
C157 H158 0.959 . S
C157 H159 0.960 . S
C157 H160 0.961 . S
H158 C157 0.959 . S
H159 C157 0.960 . S
H160 C157 0.961 . S
O161 Co136 1.967 . S
O161 C169 1.258 . S
O162 Co137 1.941 . S
O162 C169 1.266 . S
H163 C165 0.959 . S
H164 C165 0.961 . S
C165 C155 1.510 . S
C165 H163 0.959 . S
C165 H164 0.961 . S
C165 H166 0.960 . S
H166 C165 0.960 . S
H167 N147 0.862 . S
O168 Co136 1.920 . S
O168 C141 1.289 . S
C169 O161 1.258 . S
C169 O162 1.266 . S
Co170 O173 1.970 . S
Co170 N187 1.989 . S
Co170 O195 1.967 . S
Co170 O202 1.920 . S
Co171 O174 1.966 . S
Co171 N180 2.022 . S
Co171 N188 1.993 . S
Co171 O196 1.941 . S
C172 O173 1.258 . S
C172 O174 1.263 . S
O173 Co170 1.970 . S
O173 C172 1.258 . S
O174 Co171 1.966 . S
O174 C172 1.263 . S
C175 O176 1.235 . S
C175 O202 1.289 . S
O176 C175 1.235 . S
C177 C179 1.400 . S
C177 N180 1.351 . S
C177 C182 1.501 . S
C178 C179 1.387 . S
C178 N181 1.341 . S
C179 C177 1.400 . S
C179 C178 1.387 . S
N180 Co171 2.022 . S
N180 C177 1.351 . S
N180 N181 1.365 . S
N181 C178 1.341 . S
N181 N180 1.365 . S
N181 H201 0.862 . S
C182 C177 1.501 . S
C182 H183 0.961 . S
C182 H184 0.961 . S
C182 H185 0.960 . S
H183 C182 0.961 . S
H184 C182 0.961 . S
H185 C182 0.960 . S
C186 N187 1.342 . S
C186 C190 1.401 . S
C186 C191 1.499 . S
N187 Co170 1.989 . S
N187 C186 1.342 . S
N187 N188 1.388 . S
N188 Co171 1.993 . S
N188 N187 1.388 . S
N188 C189 1.346 . S
C189 N188 1.346 . S
C189 C190 1.396 . S
C189 C199 1.510 . S
C190 C186 1.401 . S
C190 C189 1.396 . S
C191 C186 1.499 . S
C191 H192 0.959 . S
C191 H193 0.960 . S
C191 H194 0.961 . S
H192 C191 0.959 . S
H193 C191 0.960 . S
H194 C191 0.961 . S
O195 Co170 1.967 . S
O195 C203 1.258 . S
O196 Co171 1.941 . S
O196 C203 1.266 . S
H197 C199 0.959 . S
H198 C199 0.961 . S
C199 C189 1.510 . S
C199 H197 0.959 . S
C199 H198 0.961 . S
C199 H200 0.960 . S
H200 C199 0.960 . S
H201 N181 0.862 . S
O202 Co170 1.920 . S
O202 C175 1.289 . S
C203 O195 1.258 . S
C203 O196 1.266 . S
C204 C205 1.391 . S
C204 C206 1.394 . S
C204 H220 0.931 . S
C205 C204 1.391 . S
C205 C209 1.376 . S
C206 C204 1.394 . S
C206 C207 1.369 . S
C206 C210 1.531 . S
C207 C206 1.369 . S
C207 C208 1.410 . S
C207 C215 1.503 . S
C208 C207 1.410 . S
C208 C209 1.392 . S
C208 C211 1.511 . S
C209 C205 1.376 . S
C209 C208 1.392 . S
C209 H221 0.929 . S
C210 C206 1.531 . S
C210 H222 0.960 . S
C210 H223 0.962 . S
C210 H224 0.960 . S
C211 C208 1.511 . S
C211 H225 0.961 . S
C211 H226 0.961 . S
C211 H227 0.961 . S
C212 C213 1.370 . S
C212 C214 1.363 . S
C212 H228 0.931 1_554 S
C213 C212 1.370 . S
C213 C217 1.408 . S
C214 C212 1.363 . S
C214 C215 1.370 . S
C214 C218 1.524 1_554 S
C215 C207 1.503 . S
C215 C214 1.370 . S
C215 C216 1.403 . S
C216 C215 1.403 . S
C216 C217 1.404 . S
C216 C219 1.539 . S
C217 C213 1.408 . S
C217 C216 1.404 . S
C217 H229 0.930 . S
C218 C214 1.524 1_556 S
C218 H230 0.956 . S
C218 H231 0.961 . S
C218 H232 0.961 . S
C219 C216 1.539 . S
C219 H233 0.958 . S
C219 H234 0.961 . S
C219 H235 0.960 . S
H220 C204 0.931 . S
H221 C209 0.929 . S
H222 C210 0.960 . S
H223 C210 0.962 . S
H224 C210 0.960 . S
H225 C211 0.961 . S
H226 C211 0.961 . S
H227 C211 0.961 . S
H228 C212 0.931 1_556 S
H229 C217 0.930 . S
H230 C218 0.956 . S
H231 C218 0.961 . S
H232 C218 0.961 . S
H233 C219 0.958 . S
H234 C219 0.961 . S
H235 C219 0.960 . S
C236 C237 1.391 . S
C236 C238 1.394 . S
C236 H252 0.931 . S
C237 C236 1.391 . S
C237 C241 1.376 . S
C238 C236 1.394 . S
C238 C239 1.369 . S
C238 C242 1.531 1_455 S
C239 C238 1.369 . S
C239 C240 1.410 . S
C239 C247 1.503 1_455 S
C240 C239 1.410 . S
C240 C241 1.392 . S
C240 C243 1.511 . S
C241 C237 1.376 . S
C241 C240 1.392 . S
C241 H253 0.929 . S
C242 C238 1.531 1_655 S
C242 H254 0.960 . S
C242 H255 0.962 . S
C242 H256 0.960 . S
C243 C240 1.511 . S
C243 H257 0.961 . S
C243 H258 0.961 . S
C243 H259 0.961 . S
C244 C245 1.370 . S
C244 C246 1.363 . S
C244 H260 0.931 . S
C245 C244 1.370 . S
C245 C249 1.408 . S
C246 C244 1.363 . S
C246 C247 1.370 . S
C246 C250 1.524 . S
C247 C239 1.503 1_655 S
C247 C246 1.370 . S
C247 C248 1.403 1_655 S
C248 C247 1.403 1_455 S
C248 C249 1.404 1_455 S
C248 C251 1.539 . S
C249 C245 1.408 . S
C249 C248 1.404 1_655 S
C249 H261 0.947 . S
C250 C246 1.524 . S
C250 H262 0.956 . S
C250 H263 0.961 . S
C250 H264 0.961 . S
C251 C248 1.539 . S
C251 H265 0.958 . S
C251 H266 0.961 . S
C251 H267 0.960 . S
H252 C236 0.931 . S
H253 C241 0.929 . S
H254 C242 0.960 . S
H255 C242 0.962 . S
H256 C242 0.960 . S
H257 C243 0.961 . S
H258 C243 0.961 . S
H259 C243 0.961 . S
H260 C244 0.931 . S
H261 C249 0.947 . S
H262 C250 0.956 . S
H263 C250 0.961 . S
H264 C250 0.961 . S
H265 C251 0.958 . S
H266 C251 0.961 . S
H267 C251 0.960 . S
C268 C269 1.391 . S
C268 C270 1.394 . S
C268 H284 0.931 . S
C269 C268 1.391 . S
C269 C273 1.376 . S
C270 C268 1.394 . S
C270 C271 1.369 . S
C270 C274 1.531 . S
C271 C270 1.369 . S
C271 C272 1.410 1_565 S
C271 C279 1.503 1_565 S
C272 C271 1.410 1_545 S
C272 C273 1.392 1_545 S
C272 C275 1.511 . S
C273 C269 1.376 . S
C273 C272 1.392 1_565 S
C273 H285 0.929 1_565 S
C274 C270 1.531 . S
C274 H286 0.960 . S
C274 H287 0.962 . S
C274 H288 0.960 . S
C275 C272 1.511 . S
C275 H289 0.961 . S
C275 H290 0.961 . S
C275 H291 0.961 . S
C276 C277 1.370 . S
C276 C278 1.363 . S
C276 H292 0.931 . S
C277 C276 1.370 . S
C277 C281 1.408 . S
C278 C276 1.363 . S
C278 C279 1.370 . S
C278 C282 1.524 1_545 S
C279 C271 1.503 1_545 S
C279 C278 1.370 . S
C279 C280 1.403 . S
C280 C279 1.403 . S
C280 C281 1.404 . S
C280 C283 1.539 . S
C281 C277 1.408 . S
C281 C280 1.404 . S
C281 H293 0.930 . S
C282 C278 1.524 1_565 S
C282 H294 0.956 . S
C282 H295 0.961 1_565 S
C282 H296 0.961 1_565 S
C283 C280 1.539 . S
C283 H297 0.958 . S
C283 H298 0.961 . S
C283 H299 0.960 . S
H284 C268 0.931 . S
H285 C273 0.929 1_545 S
H286 C274 0.960 . S
H287 C274 0.962 . S
H288 C274 0.960 . S
H289 C275 0.961 . S
H290 C275 0.961 . S
H291 C275 0.961 . S
H292 C276 0.931 . S
H293 C281 0.930 . S
H294 C282 0.956 . S
H295 C282 0.961 1_545 S
H296 C282 0.961 1_545 S
H297 C283 0.958 . S
H298 C283 0.961 . S
H299 C283 0.960 . S
C300 C301 1.391 . S
C300 C302 1.394 . S
C300 H316 0.931 . S
C301 C300 1.391 . S
C301 C305 1.376 . S
C302 C300 1.394 . S
C302 C303 1.369 . S
C302 C306 1.531 . S
C303 C302 1.369 . S
C303 C304 1.410 . S
C303 C311 1.503 . S
C304 C303 1.410 . S
C304 C305 1.392 . S
C304 C307 1.511 . S
C305 C301 1.376 . S
C305 C304 1.392 . S
C305 H317 0.929 . S
C306 C302 1.531 . S
C306 H318 0.960 . S
C306 H319 0.962 . S
C306 H320 0.960 . S
C307 C304 1.511 . S
C307 H321 0.961 . S
C307 H322 0.961 . S
C307 H323 0.961 . S
C308 C309 1.370 . S
C308 C310 1.363 . S
C308 H324 0.931 . S
C309 C308 1.370 . S
C309 C313 1.408 . S
C310 C308 1.363 . S
C310 C311 1.370 . S
C310 C314 1.524 . S
C311 C303 1.503 . S
C311 C310 1.370 . S
C311 C312 1.403 . S
C312 C311 1.403 . S
C312 C313 1.404 . S
C312 C315 1.539 . S
C313 C309 1.408 . S
C313 C312 1.404 . S
C313 H325 0.930 . S
C314 C310 1.524 . S
C314 H326 0.956 . S
C314 H327 0.961 . S
C314 H328 0.961 . S
C315 C312 1.539 . S
C315 H329 0.958 . S
C315 H330 0.961 . S
C315 H331 0.960 . S
H316 C300 0.931 . S
H317 C305 0.929 . S
H318 C306 0.960 . S
H319 C306 0.962 . S
H320 C306 0.960 . S
H321 C307 0.961 . S
H322 C307 0.961 . S
H323 C307 0.961 . S
H324 C308 0.931 . S
H325 C313 0.930 . S
H326 C314 0.956 . S
H327 C314 0.961 . S
H328 C314 0.961 . S
H329 C315 0.958 . S
H330 C315 0.961 . S
H331 C315 0.960 . S
C332 C333 1.391 . S
C332 C334 1.394 . S
C332 H348 0.931 . S
C333 C332 1.391 . S
C333 C337 1.376 . S
C334 C332 1.394 . S
C334 C335 1.369 . S
C334 C338 1.531 . S
C335 C334 1.369 . S
C335 C336 1.410 . S
C335 C343 1.503 . S
C336 C335 1.410 . S
C336 C337 1.392 . S
C336 C339 1.511 . S
C337 C333 1.376 . S
C337 C336 1.392 . S
C337 H349 0.929 . S
C338 C334 1.531 . S
C338 H350 0.960 . S
C338 H351 0.962 . S
C338 H352 0.960 . S
C339 C336 1.511 . S
C339 H353 0.961 . S
C339 H354 0.961 . S
C339 H355 0.961 . S
C340 C341 1.370 . S
C340 C342 1.363 . S
C340 H356 0.931 . S
C341 C340 1.370 . S
C341 C345 1.408 . S
C342 C340 1.363 . S
C342 C343 1.370 . S
C342 C346 1.524 . S
C343 C335 1.503 . S
C343 C342 1.370 . S
C343 C344 1.403 . S
C344 C343 1.403 . S
C344 C345 1.404 . S
C344 C347 1.539 . S
C345 C341 1.408 . S
C345 C344 1.404 . S
C345 H357 0.930 . S
C346 C342 1.524 . S
C346 H358 0.956 . S
C346 H359 0.961 . S
C346 H360 0.961 . S
C347 C344 1.539 . S
C347 H361 0.958 . S
C347 H362 0.961 . S
C347 H363 0.960 . S
H348 C332 0.931 . S
H349 C337 0.929 . S
H350 C338 0.960 . S
H351 C338 0.962 . S
H352 C338 0.960 . S
H353 C339 0.961 . S
H354 C339 0.961 . S
H355 C339 0.961 . S
H356 C340 0.931 . S
H357 C345 0.930 . S
H358 C346 0.956 . S
H359 C346 0.961 . S
H360 C346 0.961 . S
H361 C347 0.958 . S
H362 C347 0.961 . S
H363 C347 0.960 . S
C364 C365 1.391 . S
C364 C366 1.394 . S
C364 H380 0.931 . S
C365 C364 1.391 . S
C365 C369 1.376 . S
C366 C364 1.394 . S
C366 C367 1.369 . S
C366 C370 1.531 . S
C367 C366 1.369 . S
C367 C368 1.410 . S
C367 C375 1.503 . S
C368 C367 1.410 . S
C368 C369 1.392 . S
C368 C371 1.511 . S
C369 C365 1.376 . S
C369 C368 1.392 . S
C369 H381 0.929 . S
C370 C366 1.531 . S
C370 H382 0.960 . S
C370 H383 0.962 . S
C370 H384 0.960 . S
C371 C368 1.511 . S
C371 H385 0.961 . S
C371 H386 0.961 . S
C371 H387 0.961 . S
C372 C373 1.370 . S
C372 C374 1.363 . S
C372 H388 0.931 . S
C373 C372 1.370 . S
C373 C377 1.408 . S
C374 C372 1.363 . S
C374 C375 1.370 . S
C374 C378 1.524 . S
C375 C367 1.503 . S
C375 C374 1.370 . S
C375 C376 1.403 . S
C376 C375 1.403 . S
C376 C377 1.404 . S
C376 C379 1.539 . S
C377 C373 1.408 . S
C377 C376 1.404 . S
C377 H389 0.930 . S
C378 C374 1.524 . S
C378 H390 0.956 . S
C378 H391 0.961 . S
C378 H392 0.961 . S
C379 C376 1.539 . S
C379 H393 0.958 . S
C379 H394 0.961 . S
C379 H395 0.960 . S
H380 C364 0.931 . S
H381 C369 0.929 . S
H382 C370 0.960 . S
H383 C370 0.962 . S
H384 C370 0.960 . S
H385 C371 0.961 . S
H386 C371 0.961 . S
H387 C371 0.961 . S
H388 C372 0.931 . S
H389 C377 0.930 . S
H390 C378 0.956 . S
H391 C378 0.961 . S
H392 C378 0.961 . S
H393 C379 0.958 . S
H394 C379 0.961 . S
H395 C379 0.960 . S
C396 C397 1.391 . S
C396 C398 1.394 . S
C396 H412 0.931 . S
C397 C396 1.391 . S
C397 C401 1.376 . S
C398 C396 1.394 . S
C398 C399 1.369 . S
C398 C402 1.531 . S
C399 C398 1.369 . S
C399 C400 1.410 . S
C399 C407 1.503 . S
C400 C399 1.410 . S
C400 C401 1.392 . S
C400 C403 1.511 . S
C401 C397 1.376 . S
C401 C400 1.392 . S
C401 H413 0.929 . S
C402 C398 1.531 . S
C402 H414 0.960 . S
C402 H415 0.962 . S
C402 H416 0.960 . S
C403 C400 1.511 . S
C403 H417 0.961 . S
C403 H418 0.961 . S
C403 H419 0.961 . S
C404 C405 1.370 . S
C404 C406 1.363 . S
C404 H420 0.931 . S
C405 C404 1.370 . S
C405 C409 1.408 . S
C406 C404 1.363 . S
C406 C407 1.370 . S
C406 C410 1.524 . S
C407 C399 1.503 . S
C407 C406 1.370 . S
C407 C408 1.403 . S
C408 C407 1.403 . S
C408 C409 1.404 . S
C408 C411 1.539 . S
C409 C405 1.408 . S
C409 C408 1.404 . S
C409 H421 0.930 . S
C410 C406 1.524 . S
C410 H422 0.956 . S
C410 H423 0.961 . S
C410 H424 0.961 . S
C411 C408 1.539 . S
C411 H425 0.958 . S
C411 H426 0.961 . S
C411 H427 0.960 . S
H412 C396 0.931 . S
H413 C401 0.929 . S
H414 C402 0.960 . S
H415 C402 0.962 . S
H416 C402 0.960 . S
H417 C403 0.961 . S
H418 C403 0.961 . S
H419 C403 0.961 . S
H420 C404 0.931 . S
H421 C409 0.930 . S
H422 C410 0.956 . S
H423 C410 0.961 . S
H424 C410 0.961 . S
H425 C411 0.958 . S
H426 C411 0.961 . S
H427 C411 0.960 . S
C428 C429 1.391 . S
C428 C430 1.394 . S
C428 H444 0.931 . S
C429 C428 1.391 . S
C429 C433 1.376 . S
C430 C428 1.394 . S
C430 C431 1.369 . S
C430 C434 1.531 . S
C431 C430 1.369 . S
C431 C432 1.410 . S
C431 C439 1.503 . S
C432 C431 1.410 . S
C432 C433 1.392 . S
C432 C435 1.511 . S
C433 C429 1.376 . S
C433 C432 1.392 . S
C433 H445 0.929 . S
C434 C430 1.531 . S
C434 H446 0.960 . S
C434 H447 0.962 . S
C434 H448 0.960 . S
C435 C432 1.511 . S
C435 H449 0.961 . S
C435 H450 0.961 . S
C435 H451 0.961 . S
C436 C437 1.370 . S
C436 C438 1.363 . S
C436 H452 0.931 . S
C437 C436 1.370 . S
C437 C441 1.408 . S
C438 C436 1.363 . S
C438 C439 1.370 . S
C438 C442 1.524 . S
C439 C431 1.503 . S
C439 C438 1.370 . S
C439 C440 1.403 . S
C440 C439 1.403 . S
C440 C441 1.404 . S
C440 C443 1.539 . S
C441 C437 1.408 . S
C441 C440 1.404 . S
C441 H453 0.930 . S
C442 C438 1.524 . S
C442 H454 0.956 . S
C442 H455 0.961 . S
C442 H456 0.961 . S
C443 C440 1.539 . S
C443 H457 0.958 . S
C443 H458 0.961 . S
C443 H459 0.960 . S
H444 C428 0.931 . S
H445 C433 0.929 . S
H446 C434 0.960 . S
H447 C434 0.962 . S
H448 C434 0.960 . S
H449 C435 0.961 . S
H450 C435 0.961 . S
H451 C435 0.961 . S
H452 C436 0.931 . S
H453 C441 0.930 . S
H454 C442 0.956 . S
H455 C442 0.961 . S
H456 C442 0.961 . S
H457 C443 0.958 . S
H458 C443 0.961 . S
H459 C443 0.960 . S
C460 C461 1.391 . S
C460 C462 1.394 . S
C460 H476 0.931 . S
C461 C460 1.391 . S
C461 C465 1.376 . S
C462 C460 1.394 . S
C462 C463 1.369 . S
C462 C466 1.531 . S
C463 C462 1.369 . S
C463 C464 1.410 . S
C463 C471 1.503 . S
C464 C463 1.410 . S
C464 C465 1.392 . S
C464 C467 1.511 . S
C465 C461 1.376 . S
C465 C464 1.392 . S
C465 H477 0.929 . S
C466 C462 1.531 . S
C466 H478 0.960 . S
C466 H479 0.962 . S
C466 H480 0.960 . S
C467 C464 1.511 . S
C467 H481 0.961 . S
C467 H482 0.961 . S
C467 H483 0.961 . S
C468 C469 1.370 . S
C468 C470 1.363 . S
C468 H484 0.931 . S
C469 C468 1.370 . S
C469 C473 1.408 . S
C470 C468 1.363 . S
C470 C471 1.370 . S
C470 C474 1.524 . S
C471 C463 1.503 . S
C471 C470 1.370 . S
C471 C472 1.403 . S
C472 C471 1.403 . S
C472 C473 1.404 . S
C472 C475 1.539 . S
C473 C469 1.408 . S
C473 C472 1.404 . S
C473 H485 0.930 . S
C474 C470 1.524 . S
C474 H486 0.956 . S
C474 H487 0.961 . S
C474 H488 0.961 . S
C475 C472 1.539 . S
C475 H489 0.958 . S
C475 H490 0.961 . S
C475 H491 0.960 . S
H476 C460 0.931 . S
H477 C465 0.929 . S
H478 C466 0.960 . S
H479 C466 0.962 . S
H480 C466 0.960 . S
H481 C467 0.961 . S
H482 C467 0.961 . S
H483 C467 0.961 . S
H484 C468 0.931 . S
H485 C473 0.930 . S
H486 C474 0.956 . S
H487 C474 0.961 . S
H488 C474 0.961 . S
H489 C475 0.958 . S
H490 C475 0.961 . S
H491 C475 0.960 . S
C492 C493 1.391 . S
C492 C494 1.394 . S
C492 H508 0.931 . S
C493 C492 1.391 . S
C493 C497 1.376 . S
C494 C492 1.394 . S
C494 C495 1.369 . S
C494 C498 1.531 . S
C495 C494 1.369 . S
C495 C496 1.410 . S
C495 C503 1.503 . S
C496 C495 1.410 . S
C496 C497 1.392 . S
C496 C499 1.511 . S
C497 C493 1.376 . S
C497 C496 1.392 . S
C497 H509 0.929 . S
C498 C494 1.531 . S
C498 H510 0.960 . S
C498 H511 0.962 . S
C498 H512 0.960 . S
C499 C496 1.511 . S
C499 H513 0.961 . S
C499 H514 0.961 . S
C499 H515 0.961 . S
C500 C501 1.370 . S
C500 C502 1.363 . S
C500 H516 0.931 . S
C501 C500 1.370 . S
C501 C505 1.408 . S
C502 C500 1.363 . S
C502 C503 1.370 . S
C502 C506 1.524 . S
C503 C495 1.503 . S
C503 C502 1.370 . S
C503 C504 1.403 . S
C504 C503 1.403 . S
C504 C505 1.404 . S
C504 C507 1.539 . S
C505 C501 1.408 . S
C505 C504 1.404 . S
C505 H517 0.930 . S
C506 C502 1.524 . S
C506 H518 0.956 . S
C506 H519 0.961 . S
C506 H520 0.961 . S
C507 C504 1.539 . S
C507 H521 0.958 . S
C507 H522 0.961 . S
C507 H523 0.960 . S
H508 C492 0.931 . S
H509 C497 0.929 . S
H510 C498 0.960 . S
H511 C498 0.962 . S
H512 C498 0.960 . S
H513 C499 0.961 . S
H514 C499 0.961 . S
H515 C499 0.961 . S
H516 C500 0.931 . S
H517 C505 0.930 . S
H518 C506 0.956 . S
H519 C506 0.961 . S
H520 C506 0.961 . S
H521 C507 0.958 . S
H522 C507 0.961 . S
H523 C507 0.960 . S
C524 C525 1.391 . S
C524 C526 1.394 1_655 S
C524 H540 0.931 . S
C525 C524 1.391 . S
C525 C529 1.376 . S
C526 C524 1.394 1_455 S
C526 C527 1.369 . S
C526 C530 1.531 . S
C527 C526 1.369 . S
C527 C528 1.410 . S
C527 C535 1.503 . S
C528 C527 1.410 . S
C528 C529 1.392 1_455 S
C528 C531 1.511 . S
C529 C525 1.376 . S
C529 C528 1.392 1_655 S
C529 H541 0.929 . S
C530 C526 1.531 . S
C530 H542 0.960 . S
C530 H543 0.962 . S
C530 H544 0.960 . S
C531 C528 1.511 . S
C531 H545 0.961 . S
C531 H546 0.961 . S
C531 H547 0.961 1_455 S
C532 C533 1.370 . S
C532 C534 1.363 . S
C532 H548 0.931 . S
C533 C532 1.370 . S
C533 C537 1.408 . S
C534 C532 1.363 . S
C534 C535 1.370 . S
C534 C538 1.524 . S
C535 C527 1.503 . S
C535 C534 1.370 . S
C535 C536 1.403 . S
C536 C535 1.403 . S
C536 C537 1.404 . S
C536 C539 1.539 . S
C537 C533 1.408 . S
C537 C536 1.404 . S
C537 H549 0.930 . S
C538 C534 1.524 . S
C538 H550 0.956 . S
C538 H551 0.961 . S
C538 H552 0.961 . S
C539 C536 1.539 . S
C539 H553 0.958 . S
C539 H554 0.961 . S
C539 H555 0.960 1_455 S
H540 C524 0.931 . S
H541 C529 0.929 . S
H542 C530 0.960 . S
H543 C530 0.962 . S
H544 C530 0.960 . S
H545 C531 0.961 . S
H546 C531 0.961 . S
H547 C531 0.961 1_655 S
H548 C532 0.931 . S
H549 C537 0.930 . S
H550 C538 0.956 . S
H551 C538 0.961 . S
H552 C538 0.961 . S
H553 C539 0.958 . S
H554 C539 0.961 . S
H555 C539 0.960 1_655 S
C556 C557 1.391 . S
C556 C558 1.394 . S
C556 H572 0.931 . S
C557 C556 1.391 . S
C557 C561 1.376 . S
C558 C556 1.394 . S
C558 C559 1.369 . S
C558 C562 1.531 . S
C559 C558 1.369 . S
C559 C560 1.410 . S
C559 C567 1.503 . S
C560 C559 1.410 . S
C560 C561 1.392 . S
C560 C563 1.511 . S
C561 C557 1.376 . S
C561 C560 1.392 . S
C561 H573 0.929 . S
C562 C558 1.531 . S
C562 H574 0.960 . S
C562 H575 0.962 . S
C562 H576 0.960 . S
C563 C560 1.511 . S
C563 H577 0.961 . S
C563 H578 0.961 . S
C563 H579 0.961 . S
C564 C565 1.370 . S
C564 C566 1.363 . S
C564 H580 0.931 . S
C565 C564 1.370 . S
C565 C569 1.408 . S
C566 C564 1.363 . S
C566 C567 1.370 1_565 S
C566 C570 1.524 . S
C567 C559 1.503 . S
C567 C566 1.370 1_545 S
C567 C568 1.403 . S
C568 C567 1.403 . S
C568 C569 1.404 1_545 S
C568 C571 1.539 . S
C569 C565 1.408 . S
C569 C568 1.404 1_565 S
C569 H581 0.930 . S
C570 C566 1.524 . S
C570 H582 0.956 1_565 S
C570 H583 0.961 1_565 S
C570 H584 0.961 . S
C571 C568 1.539 . S
C571 H585 0.958 . S
C571 H586 0.961 . S
C571 H587 0.960 . S
H572 C556 0.931 . S
H573 C561 0.929 . S
H574 C562 0.960 . S
H575 C562 0.962 . S
H576 C562 0.960 . S
H577 C563 0.961 . S
H578 C563 0.961 . S
H579 C563 0.961 . S
H580 C564 0.931 . S
H581 C569 0.930 . S
H582 C570 0.956 1_545 S
H583 C570 0.961 1_545 S
H584 C570 0.961 . S
H585 C571 0.958 . S
H586 C571 0.961 . S
H587 C571 0.960 . S
C588 C589 1.391 . S
C588 C590 1.394 . S
C588 H604 0.931 . S
C589 C588 1.391 . S
C589 C593 1.376 . S
C590 C588 1.394 . S
C590 C591 1.369 . S
C590 C594 1.531 . S
C591 C590 1.369 . S
C591 C592 1.410 . S
C591 C599 1.503 . S
C592 C591 1.410 . S
C592 C593 1.392 . S
C592 C595 1.511 . S
C593 C589 1.376 . S
C593 C592 1.392 . S
C593 H605 0.929 . S
C594 C590 1.531 . S
C594 H606 0.960 . S
C594 H607 0.962 . S
C594 H608 0.960 . S
C595 C592 1.511 . S
C595 H609 0.961 . S
C595 H610 0.961 . S
C595 H611 0.961 . S
C596 C597 1.370 . S
C596 C598 1.363 . S
C596 H612 0.931 . S
C597 C596 1.370 . S
C597 C601 1.408 . S
C598 C596 1.363 . S
C598 C599 1.370 . S
C598 C602 1.524 . S
C599 C591 1.503 . S
C599 C598 1.370 . S
C599 C600 1.403 . S
C600 C599 1.403 . S
C600 C601 1.404 . S
C600 C603 1.539 . S
C601 C597 1.408 . S
C601 C600 1.404 . S
C601 H613 0.930 . S
C602 C598 1.524 . S
C602 H614 0.956 . S
C602 H615 0.961 . S
C602 H616 0.961 . S
C603 C600 1.539 . S
C603 H617 0.958 . S
C603 H618 0.961 . S
C603 H619 0.960 . S
H604 C588 0.931 . S
H605 C593 0.929 . S
H606 C594 0.960 . S
H607 C594 0.962 . S
H608 C594 0.960 . S
H609 C595 0.961 . S
H610 C595 0.961 . S
H611 C595 0.961 . S
H612 C596 0.931 . S
H613 C601 0.930 . S
H614 C602 0.956 . S
H615 C602 0.961 . S
H616 C602 0.961 . S
H617 C603 0.958 . S
H618 C603 0.961 . S
H619 C603 0.960 . S
C620 C621 1.391 . S
C620 C622 1.394 . S
C620 H636 0.931 . S
C621 C620 1.391 . S
C621 C625 1.376 . S
C622 C620 1.394 . S
C622 C623 1.369 . S
C622 C626 1.531 . S
C623 C622 1.369 . S
C623 C624 1.410 . S
C623 C631 1.503 . S
C624 C623 1.410 . S
C624 C625 1.392 . S
C624 C627 1.511 . S
C625 C621 1.376 . S
C625 C624 1.392 . S
C625 H637 0.929 . S
C626 C622 1.531 . S
C626 H638 0.960 . S
C626 H639 0.962 . S
C626 H640 0.960 . S
C627 C624 1.511 . S
C627 H641 0.961 . S
C627 H642 0.961 . S
C627 H643 0.961 . S
C628 C629 1.370 . S
C628 C630 1.363 1_455 S
C628 H644 0.931 1_455 S
C629 C628 1.370 . S
C629 C633 1.408 . S
C630 C628 1.363 1_655 S
C630 C631 1.370 . S
C630 C634 1.524 . S
C631 C623 1.503 . S
C631 C630 1.370 . S
C631 C632 1.403 1_655 S
C632 C631 1.403 1_455 S
C632 C633 1.404 . S
C632 C635 1.539 . S
C633 C629 1.408 . S
C633 C632 1.404 . S
C633 H645 0.930 . S
C634 C630 1.524 . S
C634 H646 0.956 . S
C634 H647 0.961 . S
C634 H648 0.961 . S
C635 C632 1.539 . S
C635 H649 0.958 . S
C635 H650 0.961 . S
C635 H651 0.939 1_455 S
H636 C620 0.931 . S
H637 C625 0.929 . S
H638 C626 0.960 . S
H639 C626 0.962 . S
H640 C626 0.960 . S
H641 C627 0.961 . S
H642 C627 0.961 . S
H643 C627 0.961 . S
H644 C628 0.931 1_655 S
H645 C633 0.930 . S
H646 C634 0.956 . S
H647 C634 0.961 . S
H648 C634 0.961 . S
H649 C635 0.958 . S
H650 C635 0.961 . S
H651 C635 0.939 1_655 S
C652 C653 1.391 . S
C652 C654 1.394 . S
C652 H668 0.931 . S
C653 C652 1.391 . S
C653 C657 1.376 . S
C654 C652 1.394 . S
C654 C655 1.369 . S
C654 C658 1.531 . S
C655 C654 1.369 . S
C655 C656 1.410 . S
C655 C663 1.503 . S
C656 C655 1.410 . S
C656 C657 1.392 . S
C656 C659 1.511 . S
C657 C653 1.376 . S
C657 C656 1.392 . S
C657 H669 0.929 . S
C658 C654 1.531 . S
C658 H670 0.960 . S
C658 H671 0.962 . S
C658 H672 0.960 . S
C659 C656 1.511 . S
C659 H673 0.961 . S
C659 H674 0.961 . S
C659 H675 0.961 . S
C660 C661 1.392 . S
C660 C662 1.351 1_545 S
C660 H676 0.922 1_545 S
C661 C660 1.392 . S
C661 C665 1.408 . S
C662 C660 1.351 1_565 S
C662 C663 1.370 . S
C662 C666 1.524 . S
C663 C655 1.503 . S
C663 C662 1.370 . S
C663 C664 1.403 1_565 S
C664 C663 1.403 1_545 S
C664 C665 1.404 . S
C664 C667 1.539 . S
C665 C661 1.408 . S
C665 C664 1.404 . S
C665 H677 0.930 . S
C666 C662 1.524 . S
C666 H678 0.956 . S
C666 H679 0.961 . S
C666 H680 0.961 . S
C667 C664 1.539 . S
C667 H681 0.958 . S
C667 H682 0.961 . S
C667 H683 0.960 . S
H668 C652 0.931 . S
H669 C657 0.929 . S
H670 C658 0.960 . S
H671 C658 0.962 . S
H672 C658 0.960 . S
H673 C659 0.961 . S
H674 C659 0.961 . S
H675 C659 0.961 . S
H676 C660 0.922 1_565 S
H677 C665 0.930 . S
H678 C666 0.956 . S
H679 C666 0.961 . S
H680 C666 0.961 . S
H681 C667 0.958 . S
H682 C667 0.961 . S
H683 C667 0.960 . S
C205 C135 1.234 . S
C213 C33 1.217 . S
C237 C169 1.169 . S
C245 C67 1.220 . S
C269 C101 1.237 . S
C277 C203 1.215 . S
C301 C138 1.009 . S
C309 C9 0.986 . S
C333 C172 1.026 . S
C341 C43 0.988 . S
C365 C77 1.041 . S
C373 C2 1.033 . S
C397 C36 0.993 . S
C405 C111 0.999 . S
C429 C145 0.957 . S
C437 C70 1.021 . S
C461 C179 1.048 . S
C469 C104 1.029 . S
C493 C190 0.914 . S
C501 C5 0.912 . S
C525 C39 0.899 . S
C533 C20 0.898 . S
C557 C54 0.857 . S
C565 C73 0.902 . S
C589 C88 0.896 . S
C597 C107 0.900 . S
C621 C122 0.924 . S
C629 C141 0.907 . S
C653 C156 0.918 . S
C661 C175 0.905 . S
