# Generated by pormake.
# Topology mdf, (4)-cn, num edge types: 1
# Building blocks:
#     Node 0, Type 0, BuildingBlock: QUQFOY_clean_sbu_1, # of connection points: 4
#     Node 1, Type 0, BuildingBlock: QUQFOY_clean_sbu_1, # of connection points: 4
#     Node 2, Type 0, BuildingBlock: QUQFOY_clean_sbu_1, # of connection points: 4
#     Node 3, Type 0, BuildingBlock: QUQFOY_clean_sbu_1, # of connection points: 4
#     Node 4, Type 0, BuildingBlock: QUQFOY_clean_sbu_1, # of connection points: 4
#     Node 5, Type 0, BuildingBlock: QUQFOY_clean_sbu_1, # of connection points: 4
#     Node 6, Type 0, BuildingBlock: QUQFOY_clean_sbu_1, # of connection points: 4
#     Node 7, Type 0, BuildingBlock: QUQFOY_clean_sbu_1, # of connection points: 4
#     Edge 8, Type (0, 0), BuildingBlock: XIVTED_clean_linker_0, # of connection points: 2
#     Edge 9, Type (0, 0), BuildingBlock: XIVTED_clean_linker_0, # of connection points: 2
#     Edge 10, Type (0, 0), BuildingBlock: XIVTED_clean_linker_0, # of connection points: 2
#     Edge 11, Type (0, 0), BuildingBlock: XIVTED_clean_linker_0, # of connection points: 2
#     Edge 12, Type (0, 0), BuildingBlock: XIVTED_clean_linker_0, # of connection points: 2
#     Edge 13, Type (0, 0), BuildingBlock: XIVTED_clean_linker_0, # of connection points: 2
#     Edge 14, Type (0, 0), BuildingBlock: XIVTED_clean_linker_0, # of connection points: 2
#     Edge 15, Type (0, 0), BuildingBlock: XIVTED_clean_linker_0, # of connection points: 2
#     Edge 16, Type (0, 0), BuildingBlock: XIVTED_clean_linker_0, # of connection points: 2
#     Edge 17, Type (0, 0), BuildingBlock: XIVTED_clean_linker_0, # of connection points: 2
#     Edge 18, Type (0, 0), BuildingBlock: XIVTED_clean_linker_0, # of connection points: 2
#     Edge 19, Type (0, 0), BuildingBlock: XIVTED_clean_linker_0, # of connection points: 2
#     Edge 20, Type (0, 0), BuildingBlock: XIVTED_clean_linker_0, # of connection points: 2
#     Edge 21, Type (0, 0), BuildingBlock: XIVTED_clean_linker_0, # of connection points: 2
#     Edge 22, Type (0, 0), BuildingBlock: XIVTED_clean_linker_0, # of connection points: 2
#     Edge 23, Type (0, 0), BuildingBlock: XIVTED_clean_linker_0, # of connection points: 2
# Relax obj value: 0.009
# Max RMSD: 0.065
# Mean RMSD: 0.065
data_MOF--net-mdf--node1-QUQFOY_clean_sbu_1--edge1-XIVTED_clean_linker_0
_symmetry_space_group_name_H-M    P1
_symmetry_Int_Tables_number       1
_symmetry_cell_setting            triclinic
loop_
_symmetry_equiv_pos_as_xyz
'x, y, z'
_cell_length_a     39.541987
_cell_length_b     39.514539
_cell_length_c     12.40295
_cell_angle_alpha  89.980262
_cell_angle_beta   90.00029
_cell_angle_gamma 89.993164
loop_
_atom_site_label
_atom_site_type_symbol
_atom_site_fract_x
_atom_site_fract_y
_atom_site_fract_z
_atom_type_partial_charge
O0 O 0.30633 0.49693 0.31399 0.0
Cd1 Cd 0.26785 0.52819 0.26155 0.0
Cd2 Cd 0.25221 0.52907 0.47098 0.0
O3 O 0.29951 0.5068 0.48765 0.0
O4 O 0.28256 0.5484 0.12102 0.0
O5 O 0.2768 0.57807 0.27121 0.0
C6 C 0.28557 0.5769 0.17098 0.0
C7 C 0.23514 0.57732 0.56562 0.0
C8 C 0.31609 0.49322 0.41098 0.0
C9 C 0.2035 0.49379 0.32275 0.0
O10 O 0.21324 0.49822 0.41946 0.0
O11 O 0.22034 0.50645 0.24503 0.0
O12 O 0.23802 0.54843 0.61327 0.0
O13 O 0.24357 0.57915 0.46521 0.0
O14 O 0.52563 0.71539 0.67929 0.0
Cd15 Cd 0.49481 0.75391 0.73397 0.0
Cd16 Cd 0.49471 0.77048 0.52458 0.0
O17 O 0.517 0.72324 0.50531 0.0
O18 O 0.47512 0.73865 0.87482 0.0
O19 O 0.44483 0.74535 0.72641 0.0
C20 C 0.44638 0.73611 0.82613 0.0
C21 C 0.44562 0.78833 0.43611 0.0
C22 C 0.52994 0.70614 0.58202 0.0
C23 C 0.52996 0.81827 0.67591 0.0
O24 O 0.52559 0.80902 0.5787 0.0
O25 O 0.51706 0.80118 0.75269 0.0
O26 O 0.4741 0.78623 0.38559 0.0
O27 O 0.44474 0.77851 0.53537 0.0
O28 O 0.30727 0.02628 0.93564 0.0
Cd29 Cd 0.26868 0.99521 0.98851 0.0
Cd30 Cd 0.25319 0.99447 0.77887 0.0
O31 O 0.30036 0.01699 0.76169 0.0
O32 O 0.28314 0.97645 0.13129 0.0
O33 O 0.27778 0.94519 0.98434 0.0
C34 C 0.28626 0.94742 0.08462 0.0
C35 C 0.23638 0.9454 0.68829 0.0
C36 C 0.31697 0.03033 0.83872 0.0
C37 C 0.20435 0.02974 0.92637 0.0
O38 O 0.2141 0.02527 0.82968 0.0
O39 O 0.22119 0.01713 0.00416 0.0
O40 O 0.23894 0.97395 0.63832 0.0
O41 O 0.24506 0.9444 0.78863 0.0
O42 O 0.99927 0.71449 0.07993 0.0
Cd43 Cd 0.0301 0.75313 0.02583 0.0
Cd44 Cd 0.03076 0.76924 0.23504 0.0
O45 O 1.00848 0.722 0.25367 0.0
O46 O 0.04905 0.73841 0.88362 0.0
O47 O 0.08012 0.7444 0.03073 0.0
C48 C 0.07804 0.73563 0.93066 0.0
C49 C 0.07953 0.78662 0.32606 0.0
C50 C 0.99526 0.70506 0.17716 0.0
C51 C 0.99528 0.81748 0.08588 0.0
O52 O 0.99981 0.80804 0.18286 0.0
O53 O 1.00796 0.80046 0.00862 0.0
O54 O 0.05093 0.78402 0.37553 0.0
O55 O 0.08077 0.77767 0.226 0.0
O56 O 0.80958 0.99734 0.82984 0.0
Cd57 Cd 0.7707 0.02826 0.77812 0.0
Cd58 Cd 0.75498 0.02787 0.98758 0.0
O59 O 0.80234 1.00578 0.00409 0.0
O60 O 0.78519 0.04864 0.63758 0.0
O61 O 0.77905 0.07829 0.7876 0.0
C62 C 0.78781 0.0772 0.68735 0.0
C63 C 0.73744 0.07572 0.08315 0.0
C64 C 0.81921 0.99298 0.92671 0.0
C65 C 0.70662 0.99292 0.8377 0.0
O66 O 0.71627 0.997 0.93465 0.0
O67 O 0.72342 1.00602 0.76064 0.0
O68 O 0.74043 0.04671 0.13006 0.0
O69 O 0.74608 0.0779 0.98299 0.0
O70 O 0.0235 0.21494 0.17722 0.0
Cd71 Cd 0.99253 0.25367 0.22953 0.0
Cd72 Cd 0.99247 0.26921 0.01953 0.0
O73 O 0.01472 0.22185 0.00295 0.0
O74 O 0.97278 0.23902 0.37087 0.0
O75 O 0.94257 0.24493 0.22191 0.0
C76 C 0.94408 0.23614 0.32207 0.0
C77 C 0.94387 0.28667 0.92764 0.0
C78 C 0.02775 0.20517 0.08045 0.0
C79 C 0.02755 0.31782 0.16848 0.0
O80 O 0.02333 0.30804 0.07172 0.0
O81 O 0.01461 0.3011 0.246 0.0
O82 O 0.97251 0.28386 0.87846 0.0
O83 O 0.9425 0.27781 0.02776 0.0
O84 O 0.80853 0.52581 0.4235 0.0
Cd85 Cd 0.76972 0.495 0.47641 0.0
Cd86 Cd 0.7534 0.49514 0.26752 0.0
O87 O 0.80085 0.51699 0.24965 0.0
O88 O 0.78456 0.47451 0.61635 0.0
O89 O 0.77789 0.44494 0.46634 0.0
C90 C 0.78696 0.44596 0.56633 0.0
C91 C 0.73533 0.44766 0.17092 0.0
C92 C 0.81794 0.52992 0.32631 0.0
C93 C 0.70562 0.53051 0.41848 0.0
O94 O 0.71498 0.52625 0.32133 0.0
O95 O 0.72257 0.51744 0.49524 0.0
O96 O 0.73846 0.47678 0.12483 0.0
O97 O 0.7441 0.44513 0.27089 0.0
O98 O 0.49697 0.21458 0.57421 0.0
Cd99 Cd 0.52773 0.2528 0.51705 0.0
Cd100 Cd 0.52699 0.27109 0.7254 0.0
O101 O 0.50455 0.22405 0.74785 0.0
O102 O 0.54831 0.23602 0.37929 0.0
O103 O 0.57775 0.24507 0.52809 0.0
C104 C 0.57684 0.2345 0.42967 0.0
C105 C 0.57554 0.28957 0.81563 0.0
C106 C 0.49214 0.20619 0.67203 0.0
C107 C 0.4923 0.31755 0.5679 0.0
O108 O 0.4965 0.3092 0.66604 0.0
O109 O 0.50528 0.29974 0.49298 0.0
O110 O 0.54673 0.28798 0.86434 0.0
O111 O 0.57705 0.27896 0.71732 0.0
H112 H 0.43664 0.72555 0.04224 0.0
H113 H 0.29463 0.58791 0.95478 0.0
H114 H 0.38974 0.70936 0.73241 0.0
H115 H 0.3142 0.63234 0.26633 0.0
H116 H 0.32878 0.6324 0.87092 0.0
H117 H 0.39183 0.69198 0.12663 0.0
C118 C 0.41668 0.71529 0.99215 0.0
C119 C 0.41704 0.72008 0.88004 0.0
C120 C 0.3252 0.6327 0.95748 0.0
C121 C 0.36604 0.68115 0.9758 0.0
C122 C 0.30575 0.60728 0.0054 0.0
C123 C 0.30176 0.60628 0.11779 0.0
C124 C 0.34137 0.65688 0.0226 0.0
C125 C 0.31663 0.63212 0.1794 0.0
C126 C 0.39107 0.69618 0.04038 0.0
C127 C 0.39046 0.70629 0.81912 0.0
N128 N 0.33624 0.65603 0.13121 0.0
N129 N 0.36635 0.68699 0.86752 0.0
H130 H 0.38623 0.80759 0.53199 0.0
H131 H 0.29502 0.93928 0.30199 0.0
H132 H 0.43722 0.80649 0.22433 0.0
H133 H 0.31456 0.89047 0.99719 0.0
H134 H 0.32834 0.89568 0.39244 0.0
H135 H 0.341 0.84158 0.45222 0.0
C136 C 0.38778 0.81422 0.44739 0.0
C137 C 0.41585 0.8046 0.38515 0.0
C138 C 0.32464 0.8939 0.30619 0.0
C139 C 0.36448 0.84416 0.29392 0.0
C140 C 0.30579 0.919 0.25434 0.0
C141 C 0.30204 0.91855 0.14185 0.0
C142 C 0.34024 0.86835 0.24492 0.0
C143 C 0.3167 0.89172 0.08412 0.0
C144 C 0.36211 0.83398 0.40223 0.0
C145 C 0.4163 0.81371 0.2757 0.0
N146 N 0.33566 0.86804 0.13607 0.0
N147 N 0.39109 0.83311 0.23372 0.0
H148 H 0.13592 0.81374 0.23165 0.0
H149 H 0.20952 0.88893 0.78315 0.0
H150 H 0.08992 0.79638 0.54228 0.0
H151 H 0.22715 0.93455 0.47202 0.0
H152 H 0.17629 0.84443 0.6954 0.0
H153 H 0.18 0.84749 0.31954 0.0
C154 C 0.13543 0.81649 0.31853 0.0
C155 C 0.10901 0.8025 0.37966 0.0
C156 C 0.18781 0.86397 0.64636 0.0
C157 C 0.15937 0.84099 0.48044 0.0
C158 C 0.20694 0.88926 0.6962 0.0
C159 C 0.22084 0.91569 0.63487 0.0
C160 C 0.18295 0.86484 0.53425 0.0
C161 C 0.21659 0.91485 0.5225 0.0
C162 C 0.16048 0.83591 0.36845 0.0
C163 C 0.10962 0.80699 0.49195 0.0
N164 N 0.19789 0.88994 0.47583 0.0
N165 N 0.1343 0.82597 0.53869 0.0
H166 H 0.08695 0.72716 0.71336 0.0
H167 H 0.22728 0.58677 0.78295 0.0
H168 H 0.1347 0.70735 0.01974 0.0
H169 H 0.20675 0.63386 0.47593 0.0
H170 H 0.19422 0.63107 0.87197 0.0
H171 H 0.13096 0.69381 0.62413 0.0
C172 C 0.10694 0.71615 0.7617 0.0
C173 C 0.10703 0.71985 0.87424 0.0
C174 C 0.19736 0.63199 0.78528 0.0
C175 C 0.15713 0.68115 0.77288 0.0
C176 C 0.21617 0.60668 0.73441 0.0
C177 C 0.21957 0.60649 0.62178 0.0
C178 C 0.18121 0.65691 0.72291 0.0
C179 C 0.20476 0.63301 0.56294 0.0
C180 C 0.1321 0.69717 0.71071 0.0
C181 C 0.13364 0.70514 0.93281 0.0
N182 N 0.18576 0.65683 0.61399 0.0
N183 N 0.1573 0.68597 0.88168 0.0
H184 H 0.81505 0.13352 0.78187 0.0
H185 H 0.88746 0.20904 0.22916 0.0
H186 H 0.79686 0.08801 0.471 0.0
H187 H 0.9344 0.22603 0.53855 0.0
H188 H 0.84367 0.17517 0.318 0.0
H189 H 0.84827 0.17796 0.69363 0.0
C190 C 0.81751 0.1332 0.69489 0.0
C191 C 0.80344 0.10683 0.63375 0.0
C192 C 0.86334 0.18669 0.36644 0.0
C193 C 0.84131 0.15761 0.53259 0.0
C194 C 0.88823 0.20618 0.31598 0.0
C195 C 0.91482 0.22012 0.37646 0.0
C196 C 0.86477 0.18149 0.47834 0.0
C197 C 0.91455 0.21548 0.48871 0.0
C198 C 0.83663 0.15846 0.64477 0.0
C199 C 0.80755 0.10767 0.52133 0.0
N200 N 0.89002 0.19644 0.536 0.0
N201 N 0.82623 0.13256 0.47439 0.0
H202 H 0.88731 0.31358 0.0215 0.0
H203 H 0.81409 0.38975 0.47071 0.0
H204 H 0.93392 0.29703 0.71136 0.0
H205 H 0.7964 0.43492 0.78237 0.0
H206 H 0.8475 0.34523 0.55792 0.0
H207 H 0.8434 0.34754 0.9336 0.0
C208 C 0.88798 0.31656 0.9347 0.0
C209 C 0.91451 0.30271 0.87375 0.0
C210 C 0.83592 0.36467 0.60718 0.0
C211 C 0.86432 0.34146 0.77295 0.0
C212 C 0.8167 0.38997 0.55765 0.0
C213 C 0.8027 0.41627 0.61931 0.0
C214 C 0.84078 0.36539 0.7193 0.0
C215 C 0.80701 0.41531 0.73165 0.0
C216 C 0.86302 0.3361 0.88478 0.0
C217 C 0.91412 0.3075 0.76156 0.0
N218 N 0.82578 0.39038 0.77801 0.0
N219 N 0.88952 0.32659 0.7148 0.0
H220 H 0.72667 0.43983 0.95348 0.0
H221 H 0.63545 0.3083 0.72205 0.0
H222 H 0.70621 0.39102 0.25777 0.0
H223 H 0.58285 0.30865 0.02696 0.0
H224 H 0.68053 0.34222 0.80302 0.0
H225 H 0.69298 0.39665 0.86235 0.0
C226 C 0.71561 0.41963 1.00088 0.0
C227 C 0.71925 0.41904 0.1134 0.0
C228 C 0.6591 0.33494 0.85213 0.0
C229 C 0.68061 0.36937 0.0096 0.0
C230 C 0.63351 0.31524 0.80631 0.0
C231 C 0.60506 0.30601 0.86742 0.0
C232 C 0.65628 0.34542 0.96001 0.0
C233 C 0.60409 0.31554 0.97646 0.0
C234 C 0.69655 0.39479 0.94866 0.0
C235 C 0.7042 0.39235 0.17082 0.0
N236 N 0.62926 0.33482 0.01915 0.0
N237 N 0.68503 0.36893 0.11851 0.0
H238 H 0.72839 0.08403 0.30032 0.0
H239 H 0.63624 0.21581 0.52667 0.0
H240 H 0.70912 0.13249 0.99466 0.0
H241 H 0.58539 0.21557 0.21875 0.0
H242 H 0.68176 0.18188 0.44824 0.0
H243 H 0.69469 0.12756 0.38973 0.0
C244 C 0.7176 0.10423 0.25228 0.0
C245 C 0.72154 0.1046 0.13985 0.0
C246 C 0.66062 0.18919 0.39791 0.0
C247 C 0.68289 0.15467 0.24166 0.0
C248 C 0.63478 0.2089 0.44229 0.0
C249 C 0.60669 0.21814 0.37957 0.0
C250 C 0.65839 0.17872 0.28989 0.0
C251 C 0.60634 0.20866 0.27046 0.0
C252 C 0.69854 0.12927 0.30351 0.0
C253 C 0.70686 0.13131 0.08156 0.0
N254 N 0.63172 0.18936 0.22922 0.0
N255 N 0.68767 0.15492 0.1329 0.0
H256 H 0.3438 0.47776 0.60815 0.0
H257 H 0.47332 0.34114 0.368 0.0
H258 H 0.35587 0.4584 0.26772 0.0
H259 H 0.46111 0.36109 0.70804 0.0
H260 H 0.4335 0.38692 0.32865 0.0
H261 H 0.38978 0.4381 0.64531 0.0
C262 C 0.35625 0.46539 0.5411 0.0
C263 C 0.34572 0.47134 0.43465 0.0
C264 C 0.43972 0.38142 0.41185 0.0
C265 C 0.3984 0.42564 0.47675 0.0
C266 C 0.46253 0.35529 0.43439 0.0
C267 C 0.47048 0.34702 0.54157 0.0
C268 C 0.42467 0.39943 0.49704 0.0
C269 C 0.45566 0.36635 0.62417 0.0
C270 C 0.38252 0.44268 0.5624 0.0
C271 C 0.36295 0.45455 0.35113 0.0
N272 N 0.43338 0.39144 0.60019 0.0
N273 N 0.38825 0.43236 0.374 0.0
H274 H 0.66516 0.96105 0.98285 0.0
H275 H 0.56138 0.86029 0.5314 0.0
H276 H 0.6802 0.97479 0.64082 0.0
H277 H 0.54905 0.84369 0.87325 0.0
H278 H 0.60124 0.9058 0.57027 0.0
H279 H 0.61914 0.92174 0.94437 0.0
C280 C 0.65867 0.95602 0.89954 0.0
C281 C 0.67684 0.97117 0.81493 0.0
C282 C 0.58968 0.89237 0.63686 0.0
C283 C 0.62402 0.92588 0.77034 0.0
C284 C 0.56682 0.86634 0.61478 0.0
C285 C 0.55192 0.84788 0.69919 0.0
C286 C 0.59785 0.90009 0.74423 0.0
C287 C 0.55996 0.85708 0.80552 0.0
C288 C 0.63235 0.93349 0.87768 0.0
C289 C 0.66706 0.96367 0.7087 0.0
N290 N 0.58252 0.88238 0.82494 0.0
N291 N 0.64149 0.94143 0.68949 0.0
H292 H 0.05926 0.16383 0.22675 0.0
H293 H 0.16283 0.0609 0.77969 0.0
H294 H 0.0467 0.17879 0.88423 0.0
H295 H 0.17779 0.0486 0.1223 0.0
H296 H 0.11679 0.10039 0.8164 0.0
H297 H 0.09902 0.11807 0.18982 0.0
C298 C 0.06464 0.15737 0.14364 0.0
C299 C 0.04969 0.17545 0.05846 0.0
C300 C 0.12998 0.0889 0.88361 0.0
C301 C 0.09552 0.12294 0.01562 0.0
C302 C 0.15631 0.06627 0.86275 0.0
C303 C 0.17447 0.05148 0.94804 0.0
C304 C 0.12165 0.09698 0.99061 0.0
C305 C 0.16466 0.05942 0.05392 0.0
C306 C 0.08743 0.1312 0.12266 0.0
C307 C 0.05765 0.16571 0.95252 0.0
N308 N 0.13909 0.08176 0.07213 0.0
N309 N 0.08015 0.14029 0.93417 0.0
H310 H 0.97779 0.67883 0.37491 0.0
H311 H 0.84426 0.54727 0.12869 0.0
H312 H 0.96226 0.66392 0.03363 0.0
H313 H 0.8595 0.56232 0.47003 0.0
H314 H 0.89053 0.5867 0.09236 0.0
H315 H 0.93775 0.63307 0.41137 0.0
C316 C 0.96621 0.66579 0.30758 0.0
C317 C 0.97331 0.67548 0.201 0.0
C318 C 0.88389 0.58121 0.17524 0.0
C319 C 0.92721 0.62307 0.24228 0.0
C320 C 0.85747 0.55862 0.19608 0.0
C321 C 0.84774 0.55156 0.30263 0.0
C322 C 0.90075 0.59697 0.26149 0.0
C323 C 0.86593 0.56707 0.38656 0.0
C324 C 0.94328 0.63966 0.32848 0.0
C325 C 0.9575 0.65753 0.11713 0.0
N326 N 0.89136 0.58915 0.36418 0.0
N327 N 0.93509 0.63239 0.13958 0.0
H328 H 0.35743 0.06362 0.98355 0.0
H329 H 0.46198 0.16264 0.52964 0.0
H330 H 0.34388 0.04773 0.64186 0.0
H331 H 0.47206 0.18233 0.87053 0.0
H332 H 0.42248 0.11698 0.57019 0.0
H333 H 0.40301 0.10341 0.94443 0.0
C334 C 0.36417 0.06827 0.9002 0.0
C335 C 0.34655 0.05237 0.81583 0.0
C336 C 0.43346 0.13113 0.63624 0.0
C337 C 0.39884 0.0982 0.77052 0.0
C338 C 0.4561 0.15725 0.6132 0.0
C339 C 0.4703 0.17661 0.69678 0.0
C340 C 0.42476 0.12419 0.74374 0.0
C341 C 0.46172 0.16823 0.80341 0.0
C342 C 0.39022 0.09109 0.87798 0.0
C343 C 0.3566 0.05943 0.70955 0.0
N344 N 0.43938 0.1428 0.82375 0.0
N345 N 0.38192 0.08193 0.68998 0.0
H346 H 0.86074 0.9614 0.7811 0.0
H347 H 0.9639 0.85925 0.23124 0.0
H348 H 0.84555 0.97447 0.1233 0.0
H349 H 0.97639 0.84345 0.8891 0.0
H350 H 0.92424 0.90504 0.19306 0.0
H351 H 0.90667 0.92189 0.81911 0.0
C352 C 0.86718 0.95619 0.86434 0.0
C353 C 0.849 0.97119 0.94913 0.0
C354 C 0.9358 0.89172 0.12627 0.0
C355 C 0.90168 0.92569 0.99321 0.0
C356 C 0.95853 0.86553 0.14797 0.0
C357 C 0.97342 0.84722 0.06325 0.0
C358 C 0.92773 0.89974 0.019 0.0
C359 C 0.96548 0.85671 0.95706 0.0
C360 C 0.89345 0.93354 0.88594 0.0
C361 C 0.85871 0.96346 0.05528 0.0
N362 N 0.94306 0.88215 0.93803 0.0
N363 N 0.88422 0.94112 0.07423 0.0
H364 H 0.05883 0.35933 0.02217 0.0
H365 H 0.16204 0.46254 0.46933 0.0
H366 H 0.04643 0.34424 0.3647 0.0
H367 H 0.17697 0.47495 0.12674 0.0
H368 H 0.11612 0.42294 0.43255 0.0
H369 H 0.09839 0.40526 0.05912 0.0
C370 C 0.0642 0.3658 0.10528 0.0
C371 C 0.04936 0.34764 0.19047 0.0
C372 C 0.12928 0.43447 0.36536 0.0
C373 C 0.09495 0.40034 0.23331 0.0
C374 C 0.15554 0.45717 0.38625 0.0
C375 C 0.17366 0.47201 0.30099 0.0
C376 C 0.12098 0.42639 0.25835 0.0
C377 C 0.16387 0.46408 0.1951 0.0
C378 C 0.08688 0.39207 0.12627 0.0
C379 C 0.0573 0.35738 0.29641 0.0
N380 N 0.13837 0.44168 0.17685 0.0
N381 N 0.07968 0.3829 0.31476 0.0
H382 H 0.56166 0.66429 0.7264 0.0
H383 H 0.66384 0.56227 0.27399 0.0
H384 H 0.54862 0.68044 0.3846 0.0
H385 H 0.67991 0.54921 0.61582 0.0
H386 H 0.61813 0.60189 0.31304 0.0
H387 H 0.60132 0.61861 0.68729 0.0
C388 C 0.56691 0.65811 0.64299 0.0
C389 C 0.55185 0.67649 0.55865 0.0
C390 C 0.6315 0.59023 0.37957 0.0
C391 C 0.59755 0.62407 0.51334 0.0
C392 C 0.65764 0.56751 0.35739 0.0
C393 C 0.676 0.55246 0.44175 0.0
C394 C 0.62355 0.59811 0.487 0.0
C395 C 0.6666 0.56025 0.54812 0.0
C396 C 0.58965 0.63199 0.62077 0.0
C397 C 0.55966 0.66712 0.45228 0.0
N398 N 0.64119 0.58266 0.56763 0.0
N399 N 0.58209 0.64172 0.43272 0.0
loop_
_geom_bond_atom_site_label_1
_geom_bond_atom_site_label_2
_geom_bond_distance
_geom_bond_site_symmetry_2
_ccdc_geom_bond_type
O0 Cd1 2.223 . S
O0 C8 1.315 . S
Cd1 O0 2.223 . S
Cd1 O4 2.297 . S
Cd1 O5 2.439 . S
Cd1 O11 2.240 . S
Cd2 O3 2.240 . S
Cd2 O10 2.223 . S
Cd2 O12 2.297 . S
Cd2 O13 2.439 . S
O3 Cd2 2.240 . S
O3 C8 1.279 . S
O4 Cd1 2.297 . S
O4 C6 1.247 . S
O5 Cd1 2.439 . S
O5 C6 1.208 . S
C6 O4 1.247 . S
C6 O5 1.208 . S
C7 O12 1.247 . S
C7 O13 1.208 . S
C8 O0 1.315 . S
C8 O3 1.279 . S
C9 O10 1.315 . S
C9 O11 1.279 . S
O10 Cd2 2.223 . S
O10 C9 1.315 . S
O11 Cd1 2.240 . S
O11 C9 1.279 . S
O12 Cd2 2.297 . S
O12 C7 1.247 . S
O13 Cd2 2.439 . S
O13 C7 1.208 . S
O14 Cd15 2.223 . S
O14 C22 1.315 . S
Cd15 O14 2.223 . S
Cd15 O18 2.297 . S
Cd15 O19 2.439 . S
Cd15 O25 2.240 . S
Cd16 O17 2.240 . S
Cd16 O24 2.223 . S
Cd16 O26 2.297 . S
Cd16 O27 2.439 . S
O17 Cd16 2.240 . S
O17 C22 1.279 . S
O18 Cd15 2.297 . S
O18 C20 1.247 . S
O19 Cd15 2.439 . S
O19 C20 1.208 . S
C20 O18 1.247 . S
C20 O19 1.208 . S
C21 O26 1.247 . S
C21 O27 1.208 . S
C22 O14 1.315 . S
C22 O17 1.279 . S
C23 O24 1.315 . S
C23 O25 1.279 . S
O24 Cd16 2.223 . S
O24 C23 1.315 . S
O25 Cd15 2.240 . S
O25 C23 1.279 . S
O26 Cd16 2.297 . S
O26 C21 1.247 . S
O27 Cd16 2.439 . S
O27 C21 1.208 . S
O28 Cd29 2.223 1_556 S
O28 C36 1.315 . S
Cd29 O28 2.223 1_554 S
Cd29 O32 2.297 1_545 S
Cd29 O33 2.439 1_544 S
Cd29 O39 2.240 1_554 S
Cd30 O31 2.240 . S
Cd30 O38 2.223 . S
Cd30 O40 2.297 1_545 S
Cd30 O41 2.439 1_545 S
O31 Cd30 2.240 . S
O31 C36 1.279 . S
O32 Cd29 2.297 1_565 S
O32 C34 1.247 . S
O33 Cd29 2.439 1_566 S
O33 C34 1.208 1_556 S
C34 O32 1.247 . S
C34 O33 1.208 1_554 S
C35 O40 1.247 . S
C35 O41 1.208 . S
C36 O28 1.315 . S
C36 O31 1.279 . S
C37 O38 1.315 . S
C37 O39 1.279 . S
O38 Cd30 2.223 . S
O38 C37 1.315 . S
O39 Cd29 2.240 1_556 S
O39 C37 1.279 . S
O40 Cd30 2.297 1_565 S
O40 C35 1.247 . S
O41 Cd30 2.439 1_565 S
O41 C35 1.208 . S
O42 Cd43 2.223 1_554 S
O42 C50 1.315 . S
Cd43 O42 2.223 1_556 S
Cd43 O46 2.297 1_655 S
Cd43 O47 2.439 1_656 S
Cd43 O53 2.240 1_556 S
Cd44 O45 2.240 . S
Cd44 O52 2.223 . S
Cd44 O54 2.297 1_655 S
Cd44 O55 2.439 1_655 S
O45 Cd44 2.240 . S
O45 C50 1.279 . S
O46 Cd43 2.297 1_455 S
O46 C48 1.247 . S
O47 Cd43 2.439 1_454 S
O47 C48 1.208 1_554 S
C48 O46 1.247 . S
C48 O47 1.208 1_556 S
C49 O54 1.247 . S
C49 O55 1.208 . S
C50 O42 1.315 . S
C50 O45 1.279 . S
C51 O52 1.315 . S
C51 O53 1.279 . S
O52 Cd44 2.223 . S
O52 C51 1.315 . S
O53 Cd43 2.240 1_554 S
O53 C51 1.279 . S
O54 Cd44 2.297 1_455 S
O54 C49 1.247 . S
O55 Cd44 2.439 1_455 S
O55 C49 1.208 . S
O56 Cd57 2.223 . S
O56 C64 1.315 . S
Cd57 O56 2.223 . S
Cd57 O60 2.297 1_565 S
Cd57 O61 2.439 1_565 S
Cd57 O67 2.240 . S
Cd58 O59 2.240 1_554 S
Cd58 O66 2.223 1_554 S
Cd58 O68 2.297 1_565 S
Cd58 O69 2.439 1_564 S
O59 Cd58 2.240 1_556 S
O59 C64 1.279 . S
O60 Cd57 2.297 1_545 S
O60 C62 1.247 . S
O61 Cd57 2.439 1_545 S
O61 C62 1.208 . S
C62 O60 1.247 . S
C62 O61 1.208 . S
C63 O68 1.247 . S
C63 O69 1.208 1_554 S
C64 O56 1.315 . S
C64 O59 1.279 . S
C65 O66 1.315 . S
C65 O67 1.279 . S
O66 Cd58 2.223 1_556 S
O66 C65 1.315 . S
O67 Cd57 2.240 . S
O67 C65 1.279 . S
O68 Cd58 2.297 1_545 S
O68 C63 1.247 . S
O69 Cd58 2.439 1_546 S
O69 C63 1.208 1_556 S
O70 Cd71 2.223 . S
O70 C78 1.315 . S
Cd71 O70 2.223 . S
Cd71 O74 2.297 1_455 S
Cd71 O75 2.439 1_455 S
Cd71 O81 2.240 . S
Cd72 O73 2.240 1_556 S
Cd72 O80 2.223 1_556 S
Cd72 O82 2.297 1_455 S
Cd72 O83 2.439 1_456 S
O73 Cd72 2.240 1_554 S
O73 C78 1.279 . S
O74 Cd71 2.297 1_655 S
O74 C76 1.247 . S
O75 Cd71 2.439 1_655 S
O75 C76 1.208 . S
C76 O74 1.247 . S
C76 O75 1.208 . S
C77 O82 1.247 . S
C77 O83 1.208 1_556 S
C78 O70 1.315 . S
C78 O73 1.279 . S
C79 O80 1.315 . S
C79 O81 1.279 . S
O80 Cd72 2.223 1_554 S
O80 C79 1.315 . S
O81 Cd71 2.240 . S
O81 C79 1.279 . S
O82 Cd72 2.297 1_655 S
O82 C77 1.247 . S
O83 Cd72 2.439 1_654 S
O83 C77 1.208 1_554 S
O84 Cd85 2.223 . S
O84 C92 1.315 . S
Cd85 O84 2.223 . S
Cd85 O88 2.297 . S
Cd85 O89 2.439 . S
Cd85 O95 2.240 . S
Cd86 O87 2.240 . S
Cd86 O94 2.223 . S
Cd86 O96 2.297 . S
Cd86 O97 2.439 . S
O87 Cd86 2.240 . S
O87 C92 1.279 . S
O88 Cd85 2.297 . S
O88 C90 1.247 . S
O89 Cd85 2.439 . S
O89 C90 1.208 . S
C90 O88 1.247 . S
C90 O89 1.208 . S
C91 O96 1.247 . S
C91 O97 1.208 . S
C92 O84 1.315 . S
C92 O87 1.279 . S
C93 O94 1.315 . S
C93 O95 1.279 . S
O94 Cd86 2.223 . S
O94 C93 1.315 . S
O95 Cd85 2.240 . S
O95 C93 1.279 . S
O96 Cd86 2.297 . S
O96 C91 1.247 . S
O97 Cd86 2.439 . S
O97 C91 1.208 . S
O98 Cd99 2.223 . S
O98 C106 1.315 . S
Cd99 O98 2.223 . S
Cd99 O102 2.297 . S
Cd99 O103 2.439 . S
Cd99 O109 2.240 . S
Cd100 O101 2.240 . S
Cd100 O108 2.223 . S
Cd100 O110 2.297 . S
Cd100 O111 2.439 . S
O101 Cd100 2.240 . S
O101 C106 1.279 . S
O102 Cd99 2.297 . S
O102 C104 1.247 . S
O103 Cd99 2.439 . S
O103 C104 1.208 . S
C104 O102 1.247 . S
C104 O103 1.208 . S
C105 O110 1.247 . S
C105 O111 1.208 . S
C106 O98 1.315 . S
C106 O101 1.279 . S
C107 O108 1.315 . S
C107 O109 1.279 . S
O108 Cd100 2.223 . S
O108 C107 1.315 . S
O109 Cd99 2.240 . S
O109 C107 1.279 . S
O110 Cd100 2.297 . S
O110 C105 1.247 . S
O111 Cd100 2.439 . S
O111 C105 1.208 . S
H112 C118 0.930 . S
H113 C122 0.930 . S
H114 C127 0.929 . S
H115 C125 0.929 . S
H116 C120 0.929 . S
H117 C126 0.929 . S
C118 H112 0.930 . S
C118 C119 1.367 . S
C118 C126 1.378 1_556 S
C119 C118 1.367 . S
C119 C127 1.433 . S
C120 H116 0.929 . S
C120 C122 1.378 1_556 S
C120 C124 1.350 1_556 S
C121 C124 1.463 1_556 S
C121 C126 1.350 1_556 S
C121 N129 1.427 . S
C122 H113 0.930 . S
C122 C120 1.378 1_554 S
C122 C123 1.367 . S
C123 C122 1.367 . S
C123 C125 1.433 . S
C124 C120 1.350 1_554 S
C124 C121 1.463 1_554 S
C124 N128 1.427 . S
C125 H115 0.929 . S
C125 C123 1.433 . S
C125 N128 1.384 . S
C126 H117 0.929 . S
C126 C118 1.378 1_554 S
C126 C121 1.350 1_554 S
C127 H114 0.929 . S
C127 C119 1.433 . S
C127 N129 1.384 . S
N128 C124 1.427 . S
N128 C125 1.384 . S
N129 C121 1.427 . S
N129 C127 1.384 . S
H130 C136 0.930 . S
H131 C140 0.930 . S
H132 C145 0.929 . S
H133 C143 0.929 . S
H134 C138 0.929 . S
H135 C144 0.929 . S
C136 H130 0.930 . S
C136 C137 1.367 . S
C136 C144 1.378 . S
C137 C136 1.367 . S
C137 C145 1.433 . S
C138 H134 0.929 . S
C138 C140 1.378 . S
C138 C142 1.350 . S
C139 C142 1.463 . S
C139 C144 1.350 . S
C139 N147 1.427 . S
C140 H131 0.930 . S
C140 C138 1.378 . S
C140 C141 1.367 . S
C141 C140 1.367 . S
C141 C143 1.433 . S
C142 C138 1.350 . S
C142 C139 1.463 . S
C142 N146 1.427 . S
C143 H133 0.929 . S
C143 C141 1.433 . S
C143 N146 1.384 . S
C144 H135 0.929 . S
C144 C136 1.378 . S
C144 C139 1.350 . S
C145 H132 0.929 . S
C145 C137 1.433 . S
C145 N147 1.384 . S
N146 C142 1.427 . S
N146 C143 1.384 . S
N147 C139 1.427 . S
N147 C145 1.384 . S
H148 C154 0.930 . S
H149 C158 0.930 . S
H150 C163 0.929 . S
H151 C161 0.929 . S
H152 C156 0.929 . S
H153 C162 0.929 . S
C154 H148 0.930 . S
C154 C155 1.367 . S
C154 C162 1.378 . S
C155 C154 1.367 . S
C155 C163 1.433 . S
C156 H152 0.929 . S
C156 C158 1.378 . S
C156 C160 1.350 . S
C157 C160 1.463 . S
C157 C162 1.350 . S
C157 N165 1.427 . S
C158 H149 0.930 . S
C158 C156 1.378 . S
C158 C159 1.367 . S
C159 C158 1.367 . S
C159 C161 1.433 . S
C160 C156 1.350 . S
C160 C157 1.463 . S
C160 N164 1.427 . S
C161 H151 0.929 . S
C161 C159 1.433 . S
C161 N164 1.384 . S
C162 H153 0.929 . S
C162 C154 1.378 . S
C162 C157 1.350 . S
C163 H150 0.929 . S
C163 C155 1.433 . S
C163 N165 1.384 . S
N164 C160 1.427 . S
N164 C161 1.384 . S
N165 C157 1.427 . S
N165 C163 1.384 . S
H166 C172 0.930 . S
H167 C176 0.930 . S
H168 C181 0.929 1_554 S
H169 C179 0.929 . S
H170 C174 0.929 . S
H171 C180 0.929 . S
C172 H166 0.930 . S
C172 C173 1.367 . S
C172 C180 1.378 . S
C173 C172 1.367 . S
C173 C181 1.433 . S
C174 H170 0.929 . S
C174 C176 1.378 . S
C174 C178 1.350 . S
C175 C178 1.463 . S
C175 C180 1.350 . S
C175 N183 1.427 . S
C176 H167 0.930 . S
C176 C174 1.378 . S
C176 C177 1.367 . S
C177 C176 1.367 . S
C177 C179 1.433 . S
C178 C174 1.350 . S
C178 C175 1.463 . S
C178 N182 1.427 . S
C179 H169 0.929 . S
C179 C177 1.433 . S
C179 N182 1.384 . S
C180 H171 0.929 . S
C180 C172 1.378 . S
C180 C175 1.350 . S
C181 H168 0.929 1_556 S
C181 C173 1.433 . S
C181 N183 1.384 . S
N182 C178 1.427 . S
N182 C179 1.384 . S
N183 C175 1.427 . S
N183 C181 1.384 . S
H184 C190 0.930 . S
H185 C194 0.930 . S
H186 C199 0.929 . S
H187 C197 0.929 . S
H188 C192 0.929 . S
H189 C198 0.929 . S
C190 H184 0.930 . S
C190 C191 1.367 . S
C190 C198 1.378 . S
C191 C190 1.367 . S
C191 C199 1.433 . S
C192 H188 0.929 . S
C192 C194 1.378 . S
C192 C196 1.350 . S
C193 C196 1.463 . S
C193 C198 1.350 . S
C193 N201 1.427 . S
C194 H185 0.930 . S
C194 C192 1.378 . S
C194 C195 1.367 . S
C195 C194 1.367 . S
C195 C197 1.433 . S
C196 C192 1.350 . S
C196 C193 1.463 . S
C196 N200 1.427 . S
C197 H187 0.929 . S
C197 C195 1.433 . S
C197 N200 1.384 . S
C198 H189 0.929 . S
C198 C190 1.378 . S
C198 C193 1.350 . S
C199 H186 0.929 . S
C199 C191 1.433 . S
C199 N201 1.384 . S
N200 C196 1.427 . S
N200 C197 1.384 . S
N201 C193 1.427 . S
N201 C199 1.384 . S
H202 C208 0.930 1_554 S
H203 C212 0.930 . S
H204 C217 0.929 . S
H205 C215 0.929 . S
H206 C210 0.929 . S
H207 C216 0.929 . S
C208 H202 0.930 1_556 S
C208 C209 1.367 . S
C208 C216 1.378 . S
C209 C208 1.367 . S
C209 C217 1.433 . S
C210 H206 0.929 . S
C210 C212 1.378 . S
C210 C214 1.350 . S
C211 C214 1.463 . S
C211 C216 1.350 . S
C211 N219 1.427 . S
C212 H203 0.930 . S
C212 C210 1.378 . S
C212 C213 1.367 . S
C213 C212 1.367 . S
C213 C215 1.433 . S
C214 C210 1.350 . S
C214 C211 1.463 . S
C214 N218 1.427 . S
C215 H205 0.929 . S
C215 C213 1.433 . S
C215 N218 1.384 . S
C216 H207 0.929 . S
C216 C208 1.378 . S
C216 C211 1.350 . S
C217 H204 0.929 . S
C217 C209 1.433 . S
C217 N219 1.384 . S
N218 C214 1.427 . S
N218 C215 1.384 . S
N219 C211 1.427 . S
N219 C217 1.384 . S
H220 C226 0.930 . S
H221 C230 0.930 . S
H222 C235 0.929 . S
H223 C233 0.929 . S
H224 C228 0.929 . S
H225 C234 0.929 . S
C226 H220 0.930 . S
C226 C227 1.367 . S
C226 C234 1.378 . S
C227 C226 1.367 . S
C227 C235 1.433 . S
C228 H224 0.929 . S
C228 C230 1.378 . S
C228 C232 1.350 . S
C229 C232 1.463 1_554 S
C229 C234 1.350 . S
C229 N237 1.427 . S
C230 H221 0.930 . S
C230 C228 1.378 . S
C230 C231 1.367 . S
C231 C230 1.367 . S
C231 C233 1.433 . S
C232 C228 1.350 . S
C232 C229 1.463 1_556 S
C232 N236 1.427 . S
C233 H223 0.929 . S
C233 C231 1.433 . S
C233 N236 1.384 . S
C234 H225 0.929 . S
C234 C226 1.378 . S
C234 C229 1.350 . S
C235 H222 0.929 . S
C235 C227 1.433 . S
C235 N237 1.384 . S
N236 C232 1.427 . S
N236 C233 1.384 . S
N237 C229 1.427 . S
N237 C235 1.384 . S
H238 C244 0.930 . S
H239 C248 0.930 . S
H240 C253 0.929 . S
H241 C251 0.929 . S
H242 C246 0.929 . S
H243 C252 0.929 . S
C244 H238 0.930 . S
C244 C245 1.367 . S
C244 C252 1.378 . S
C245 C244 1.367 . S
C245 C253 1.433 . S
C246 H242 0.929 . S
C246 C248 1.378 . S
C246 C250 1.350 . S
C247 C250 1.463 . S
C247 C252 1.350 . S
C247 N255 1.427 . S
C248 H239 0.930 . S
C248 C246 1.378 . S
C248 C249 1.367 . S
C249 C248 1.367 . S
C249 C251 1.433 . S
C250 C246 1.350 . S
C250 C247 1.463 . S
C250 N254 1.427 . S
C251 H241 0.929 . S
C251 C249 1.433 . S
C251 N254 1.384 . S
C252 H243 0.929 . S
C252 C244 1.378 . S
C252 C247 1.350 . S
C253 H240 0.929 . S
C253 C245 1.433 . S
C253 N255 1.384 . S
N254 C250 1.427 . S
N254 C251 1.384 . S
N255 C247 1.427 . S
N255 C253 1.384 . S
H256 C262 0.930 . S
H257 C266 0.930 . S
H258 C271 0.929 . S
H259 C269 0.929 . S
H260 C264 0.929 . S
H261 C270 0.929 . S
C262 H256 0.930 . S
C262 C263 1.367 . S
C262 C270 1.378 . S
C263 C262 1.367 . S
C263 C271 1.433 . S
C264 H260 0.929 . S
C264 C266 1.378 . S
C264 C268 1.350 . S
C265 C268 1.463 . S
C265 C270 1.350 . S
C265 N273 1.427 . S
C266 H257 0.930 . S
C266 C264 1.378 . S
C266 C267 1.367 . S
C267 C266 1.367 . S
C267 C269 1.433 . S
C268 C264 1.350 . S
C268 C265 1.463 . S
C268 N272 1.427 . S
C269 H259 0.929 . S
C269 C267 1.433 . S
C269 N272 1.384 . S
C270 H261 0.929 . S
C270 C262 1.378 . S
C270 C265 1.350 . S
C271 H258 0.929 . S
C271 C263 1.433 . S
C271 N273 1.384 . S
N272 C268 1.427 . S
N272 C269 1.384 . S
N273 C265 1.427 . S
N273 C271 1.384 . S
H274 C280 0.930 . S
H275 C284 0.930 . S
H276 C289 0.929 . S
H277 C287 0.929 . S
H278 C282 0.929 . S
H279 C288 0.929 . S
C280 H274 0.930 . S
C280 C281 1.367 . S
C280 C288 1.378 . S
C281 C280 1.367 . S
C281 C289 1.433 . S
C282 H278 0.929 . S
C282 C284 1.378 . S
C282 C286 1.350 . S
C283 C286 1.463 . S
C283 C288 1.350 . S
C283 N291 1.427 . S
C284 H275 0.930 . S
C284 C282 1.378 . S
C284 C285 1.367 . S
C285 C284 1.367 . S
C285 C287 1.433 . S
C286 C282 1.350 . S
C286 C283 1.463 . S
C286 N290 1.427 . S
C287 H277 0.929 . S
C287 C285 1.433 . S
C287 N290 1.384 . S
C288 H279 0.929 . S
C288 C280 1.378 . S
C288 C283 1.350 . S
C289 H276 0.929 . S
C289 C281 1.433 . S
C289 N291 1.384 . S
N290 C286 1.427 . S
N290 C287 1.384 . S
N291 C283 1.427 . S
N291 C289 1.384 . S
H292 C298 0.930 . S
H293 C302 0.930 . S
H294 C307 0.929 . S
H295 C305 0.929 . S
H296 C300 0.929 . S
H297 C306 0.929 . S
C298 H292 0.930 . S
C298 C299 1.367 . S
C298 C306 1.378 . S
C299 C298 1.367 . S
C299 C307 1.433 . S
C300 H296 0.929 . S
C300 C302 1.378 . S
C300 C304 1.350 . S
C301 C304 1.463 1_554 S
C301 C306 1.350 . S
C301 N309 1.427 . S
C302 H293 0.930 . S
C302 C300 1.378 . S
C302 C303 1.367 . S
C303 C302 1.367 . S
C303 C305 1.433 . S
C304 C300 1.350 . S
C304 C301 1.463 1_556 S
C304 N308 1.427 . S
C305 H295 0.929 . S
C305 C303 1.433 . S
C305 N308 1.384 . S
C306 H297 0.929 . S
C306 C298 1.378 . S
C306 C301 1.350 . S
C307 H294 0.929 . S
C307 C299 1.433 . S
C307 N309 1.384 . S
N308 C304 1.427 . S
N308 C305 1.384 . S
N309 C301 1.427 . S
N309 C307 1.384 . S
H310 C316 0.930 . S
H311 C320 0.930 . S
H312 C325 0.929 . S
H313 C323 0.929 . S
H314 C318 0.929 . S
H315 C324 0.929 . S
C316 H310 0.930 . S
C316 C317 1.367 . S
C316 C324 1.378 . S
C317 C316 1.367 . S
C317 C325 1.433 . S
C318 H314 0.929 . S
C318 C320 1.378 . S
C318 C322 1.350 . S
C319 C322 1.463 . S
C319 C324 1.350 . S
C319 N327 1.427 . S
C320 H311 0.930 . S
C320 C318 1.378 . S
C320 C321 1.367 . S
C321 C320 1.367 . S
C321 C323 1.433 . S
C322 C318 1.350 . S
C322 C319 1.463 . S
C322 N326 1.427 . S
C323 H313 0.929 . S
C323 C321 1.433 . S
C323 N326 1.384 . S
C324 H315 0.929 . S
C324 C316 1.378 . S
C324 C319 1.350 . S
C325 H312 0.929 . S
C325 C317 1.433 . S
C325 N327 1.384 . S
N326 C322 1.427 . S
N326 C323 1.384 . S
N327 C319 1.427 . S
N327 C325 1.384 . S
H328 C334 0.930 . S
H329 C338 0.930 . S
H330 C343 0.929 . S
H331 C341 0.929 . S
H332 C336 0.929 . S
H333 C342 0.929 . S
C334 H328 0.930 . S
C334 C335 1.367 . S
C334 C342 1.378 . S
C335 C334 1.367 . S
C335 C343 1.433 . S
C336 H332 0.929 . S
C336 C338 1.378 . S
C336 C340 1.350 . S
C337 C340 1.463 . S
C337 C342 1.350 . S
C337 N345 1.427 . S
C338 H329 0.930 . S
C338 C336 1.378 . S
C338 C339 1.367 . S
C339 C338 1.367 . S
C339 C341 1.433 . S
C340 C336 1.350 . S
C340 C337 1.463 . S
C340 N344 1.427 . S
C341 H331 0.929 . S
C341 C339 1.433 . S
C341 N344 1.384 . S
C342 H333 0.929 . S
C342 C334 1.378 . S
C342 C337 1.350 . S
C343 H330 0.929 . S
C343 C335 1.433 . S
C343 N345 1.384 . S
N344 C340 1.427 . S
N344 C341 1.384 . S
N345 C337 1.427 . S
N345 C343 1.384 . S
H346 C352 0.930 . S
H347 C356 0.930 . S
H348 C361 0.929 . S
H349 C359 0.929 . S
H350 C354 0.929 . S
H351 C360 0.929 . S
C352 H346 0.930 . S
C352 C353 1.367 . S
C352 C360 1.378 . S
C353 C352 1.367 . S
C353 C361 1.433 1_556 S
C354 H350 0.929 . S
C354 C356 1.378 . S
C354 C358 1.350 . S
C355 C358 1.463 1_556 S
C355 C360 1.350 . S
C355 N363 1.427 1_556 S
C356 H347 0.930 . S
C356 C354 1.378 . S
C356 C357 1.367 . S
C357 C356 1.367 . S
C357 C359 1.433 1_554 S
C358 C354 1.350 . S
C358 C355 1.463 1_554 S
C358 N362 1.427 1_554 S
C359 H349 0.929 . S
C359 C357 1.433 1_556 S
C359 N362 1.384 . S
C360 H351 0.929 . S
C360 C352 1.378 . S
C360 C355 1.350 . S
C361 H348 0.929 . S
C361 C353 1.433 1_554 S
C361 N363 1.384 . S
N362 C358 1.427 1_556 S
N362 C359 1.384 . S
N363 C355 1.427 1_554 S
N363 C361 1.384 . S
H364 C370 0.930 . S
H365 C374 0.930 . S
H366 C379 0.929 . S
H367 C377 0.929 . S
H368 C372 0.929 . S
H369 C378 0.929 . S
C370 H364 0.930 . S
C370 C371 1.367 . S
C370 C378 1.378 . S
C371 C370 1.367 . S
C371 C379 1.433 . S
C372 H368 0.929 . S
C372 C374 1.378 . S
C372 C376 1.350 . S
C373 C376 1.463 . S
C373 C378 1.350 . S
C373 N381 1.427 . S
C374 H365 0.930 . S
C374 C372 1.378 . S
C374 C375 1.367 . S
C375 C374 1.367 . S
C375 C377 1.433 . S
C376 C372 1.350 . S
C376 C373 1.463 . S
C376 N380 1.427 . S
C377 H367 0.929 . S
C377 C375 1.433 . S
C377 N380 1.384 . S
C378 H369 0.929 . S
C378 C370 1.378 . S
C378 C373 1.350 . S
C379 H366 0.929 . S
C379 C371 1.433 . S
C379 N381 1.384 . S
N380 C376 1.427 . S
N380 C377 1.384 . S
N381 C373 1.427 . S
N381 C379 1.384 . S
H382 C388 0.930 . S
H383 C392 0.930 . S
H384 C397 0.929 . S
H385 C395 0.929 . S
H386 C390 0.929 . S
H387 C396 0.929 . S
C388 H382 0.930 . S
C388 C389 1.367 . S
C388 C396 1.378 . S
C389 C388 1.367 . S
C389 C397 1.433 . S
C390 H386 0.929 . S
C390 C392 1.378 . S
C390 C394 1.350 . S
C391 C394 1.463 . S
C391 C396 1.350 . S
C391 N399 1.427 . S
C392 H383 0.930 . S
C392 C390 1.378 . S
C392 C393 1.367 . S
C393 C392 1.367 . S
C393 C395 1.433 . S
C394 C390 1.350 . S
C394 C391 1.463 . S
C394 N398 1.427 . S
C395 H385 0.929 . S
C395 C393 1.433 . S
C395 N398 1.384 . S
C396 H387 0.929 . S
C396 C388 1.378 . S
C396 C391 1.350 . S
C397 H384 0.929 . S
C397 C389 1.433 . S
C397 N399 1.384 . S
N398 C394 1.427 . S
N398 C395 1.384 . S
N399 C391 1.427 . S
N399 C397 1.384 . S
C119 C20 1.521 . S
C123 C6 1.519 . S
C137 C21 1.525 . S
C141 C34 1.522 . S
C155 C49 1.529 . S
C159 C35 1.528 . S
C173 C48 1.519 . S
C177 C7 1.519 . S
C191 C62 1.529 . S
C195 C76 1.529 . S
C209 C77 1.529 . S
C213 C90 1.529 . S
C227 C91 1.522 . S
C231 C105 1.525 . S
C245 C63 1.521 . S
C249 C104 1.524 . S
C263 C8 1.544 . S
C267 C107 1.543 . S
C281 C65 1.541 . S
C285 C23 1.538 . S
C299 C78 1.541 . S
C303 C37 1.537 . S
C317 C50 1.543 . S
C321 C92 1.541 . S
C335 C36 1.539 . S
C339 C106 1.536 . S
C353 C64 1.536 . S
C357 C51 1.537 . S
C371 C79 1.541 . S
C375 C9 1.538 . S
C389 C22 1.536 . S
C393 C93 1.536 . S
