# Generated by pormake.
# Topology uoo, (4)-cn, num edge types: 1
# Building blocks:
#     Node 0, Type 0, BuildingBlock: QUQFOY_clean_sbu_1, # of connection points: 4
#     Node 1, Type 0, BuildingBlock: QUQFOY_clean_sbu_1, # of connection points: 4
#     Node 2, Type 0, BuildingBlock: QUQFOY_clean_sbu_1, # of connection points: 4
#     Node 3, Type 0, BuildingBlock: QUQFOY_clean_sbu_1, # of connection points: 4
#     Node 4, Type 0, BuildingBlock: QUQFOY_clean_sbu_1, # of connection points: 4
#     Node 5, Type 0, BuildingBlock: QUQFOY_clean_sbu_1, # of connection points: 4
#     Edge 6, Type (0, 0), BuildingBlock: MIFKUJ_clean_linker_0, # of connection points: 2
#     Edge 7, Type (0, 0), BuildingBlock: MIFKUJ_clean_linker_0, # of connection points: 2
#     Edge 8, Type (0, 0), BuildingBlock: MIFKUJ_clean_linker_0, # of connection points: 2
#     Edge 9, Type (0, 0), BuildingBlock: MIFKUJ_clean_linker_0, # of connection points: 2
#     Edge 10, Type (0, 0), BuildingBlock: MIFKUJ_clean_linker_0, # of connection points: 2
#     Edge 11, Type (0, 0), BuildingBlock: MIFKUJ_clean_linker_0, # of connection points: 2
#     Edge 12, Type (0, 0), BuildingBlock: MIFKUJ_clean_linker_0, # of connection points: 2
#     Edge 13, Type (0, 0), BuildingBlock: MIFKUJ_clean_linker_0, # of connection points: 2
#     Edge 14, Type (0, 0), BuildingBlock: MIFKUJ_clean_linker_0, # of connection points: 2
#     Edge 15, Type (0, 0), BuildingBlock: MIFKUJ_clean_linker_0, # of connection points: 2
#     Edge 16, Type (0, 0), BuildingBlock: MIFKUJ_clean_linker_0, # of connection points: 2
#     Edge 17, Type (0, 0), BuildingBlock: MIFKUJ_clean_linker_0, # of connection points: 2
# Relax obj value: 0.246
# Max RMSD: 0.196
# Mean RMSD: 0.196
data_MOF--net-uoo--node1-QUQFOY_clean_sbu_1--edge1-MIFKUJ_clean_linker_0
_symmetry_space_group_name_H-M    P1
_symmetry_Int_Tables_number       1
_symmetry_cell_setting            triclinic
loop_
_symmetry_equiv_pos_as_xyz
'x, y, z'
_cell_length_a     32.16628
_cell_length_b     32.170966
_cell_length_c     53.198964
_cell_angle_alpha  89.999269
_cell_angle_beta   90.007334
_cell_angle_gamma 120.01355
loop_
_atom_site_label
_atom_site_type_symbol
_atom_site_fract_x
_atom_site_fract_y
_atom_site_fract_z
_atom_type_partial_charge
O0 O 0.1682 0.26892 0.95768 0.0
Cd1 Cd 0.17587 0.31425 0.98723 0.0
Cd2 Cd 0.08718 0.23996 0.99842 0.0
O3 O 0.09619 0.2084 0.96678 0.0
O4 O 0.24159 0.37021 0.98324 0.0
O5 O 0.21998 0.32164 0.01612 0.0
C6 C 0.25237 0.35921 0.00455 0.0
C7 C 0.07868 0.20755 0.03835 0.0
C8 C 0.13301 0.22748 0.95268 0.0
C9 C 0.09204 0.33303 0.98995 0.0
O10 O 0.06397 0.28857 0.99377 0.0
O11 O 0.13684 0.34934 0.98747 0.0
O12 O 0.04331 0.19036 0.02264 0.0
O13 O 0.11977 0.2422 0.03087 0.0
O14 O 0.89346 0.16939 0.29257 0.0
Cd15 Cd 0.86049 0.17501 0.32471 0.0
Cd16 Cd 0.85171 0.08882 0.33334 0.0
O17 O 0.89582 0.10397 0.30239 0.0
O18 O 0.86893 0.24056 0.32332 0.0
O19 O 0.90162 0.21779 0.35298 0.0
C20 C 0.89445 0.25049 0.34339 0.0
C21 C 0.87477 0.08223 0.37376 0.0
C22 C 0.90632 0.13881 0.28753 0.0
C23 C 0.7604 0.08888 0.32755 0.0
O24 O 0.77899 0.06212 0.32793 0.0
O25 O 0.78707 0.13421 0.32769 0.0
O26 O 0.86051 0.04725 0.35792 0.0
O27 O 0.87797 0.12188 0.36611 0.0
O28 O 0.69944 0.77122 0.66132 0.0
Cd29 Cd 0.74784 0.84378 0.66663 0.0
Cd30 Cd 0.67087 0.85368 0.65631 0.0
O31 O 0.63613 0.78015 0.65781 0.0
O32 O 0.79884 0.8489 0.6897 0.0
O33 O 0.74704 0.87251 0.69991 0.0
C34 C 0.7825 0.86648 0.70623 0.0
C35 C 0.62825 0.88813 0.67355 0.0
C36 C 0.65428 0.7531 0.65903 0.0
C37 C 0.7557 0.89935 0.62068 0.0
O38 O 0.71234 0.88745 0.62516 0.0
O39 O 0.77882 0.88772 0.63575 0.0
O40 O 0.61639 0.86565 0.65243 0.0
O41 O 0.66515 0.89161 0.68512 0.0
O42 O 0.8338 0.7193 0.95532 0.0
Cd43 Cd 0.82684 0.67849 0.98672 0.0
Cd44 Cd 0.91452 0.7546 0.99617 0.0
O45 O 0.9017 0.78476 0.96499 0.0
O46 O 0.76032 0.62329 0.98459 0.0
O47 O 0.78463 0.67661 0.01536 0.0
C48 C 0.75087 0.63808 0.0051 0.0
C49 C 0.92831 0.79019 0.03554 0.0
C50 C 0.8661 0.76216 0.95032 0.0
C51 C 0.91039 0.66081 0.98946 0.0
O52 O 0.93799 0.70592 0.99119 0.0
O53 O 0.86524 0.64322 0.9886 0.0
O54 O 0.9617 0.80561 0.01872 0.0
O55 O 0.88615 0.75547 0.02956 0.0
O56 O 0.11474 0.83076 0.28905 0.0
Cd57 Cd 0.14909 0.82387 0.32024 0.0
Cd58 Cd 0.16189 0.91199 0.32957 0.0
O59 O 0.11929 0.89975 0.29823 0.0
O60 O 0.13781 0.7574 0.31771 0.0
O61 O 0.10944 0.78129 0.34894 0.0
C62 C 0.11403 0.74767 0.3384 0.0
C63 C 0.13829 0.9209 0.36945 0.0
C64 C 0.10517 0.86365 0.28381 0.0
C65 C 0.25103 0.90745 0.32318 0.0
O66 O 0.23419 0.93563 0.32495 0.0
O67 O 0.22285 0.8624 0.32204 0.0
O68 O 0.15471 0.95562 0.35337 0.0
O69 O 0.13352 0.88025 0.36242 0.0
O70 O 0.28432 0.22496 0.65861 0.0
Cd71 Cd 0.23659 0.1526 0.66395 0.0
Cd72 Cd 0.31417 0.14125 0.65771 0.0
O73 O 0.34731 0.21507 0.65748 0.0
O74 O 0.18467 0.14361 0.68752 0.0
O75 O 0.24145 0.12623 0.69711 0.0
C76 C 0.20428 0.129 0.70385 0.0
C77 C 0.35945 0.11078 0.67627 0.0
C78 C 0.32953 0.24253 0.65728 0.0
C79 C 0.23182 0.09319 0.62022 0.0
O80 O 0.27371 0.10318 0.62702 0.0
O81 O 0.2087 0.10849 0.63288 0.0
O82 O 0.37071 0.13221 0.65486 0.0
O83 O 0.32178 0.10622 0.68745 0.0
H84 H 0.25439 0.13171 0.74567 0.0
H85 H 0.2309 0.13031 0.78934 0.0
H86 H 0.09118 0.10284 0.76519 0.0
H87 H 0.11574 0.10696 0.72133 0.0
H88 H 0.12162 0.1697 0.79607 0.0
H89 H 0.1108 0.01833 0.80024 0.0
H90 H 0.13375 0.95646 0.79441 0.0
H91 H 0.25643 0.03559 0.84211 0.0
H92 H 0.23447 0.09823 0.84798 0.0
H93 H 0.05666 0.1596 0.92588 0.0
H94 H 0.0587 0.12551 0.88497 0.0
H95 H 0.21342 0.20459 0.88639 0.0
H96 H 0.21178 0.23985 0.92694 0.0
H97 H 0.16208 0.09899 0.86835 0.0
H98 H 0.17305 0.25596 0.85664 0.0
H99 H 0.14282 0.31214 0.86299 0.0
H100 H 0.00817 0.21087 0.82943 0.0
H101 H 0.03745 0.15379 0.82323 0.0
C102 C 0.21833 0.12441 0.74969 0.0
C103 C 0.18701 0.11976 0.73011 0.0
C104 C 0.20472 0.12325 0.77474 0.0
C105 C 0.15899 0.11604 0.78075 0.0
C106 C 0.12673 0.10871 0.76113 0.0
C107 C 0.14073 0.11093 0.73606 0.0
C108 C 0.14713 0.12173 0.80715 0.0
C109 C 0.12945 0.15311 0.81173 0.0
C110 C 0.1575 0.10061 0.82786 0.0
C111 C 0.17109 0.06315 0.8244 0.0
C112 C 0.14283 0.0227 0.80934 0.0
C113 C 0.15564 0.98745 0.80606 0.0
C114 C 0.19658 0.99213 0.81784 0.0
C115 C 0.22473 0.03202 0.83298 0.0
C116 C 0.21205 0.06737 0.83633 0.0
C117 C 0.09111 0.16915 0.91766 0.0
C118 C 0.13409 0.20264 0.92951 0.0
C119 C 0.09217 0.14962 0.89434 0.0
C120 C 0.13619 0.16256 0.88279 0.0
C121 C 0.17913 0.19403 0.89515 0.0
C122 C 0.17811 0.21434 0.91819 0.0
C123 C 0.13772 0.14724 0.85677 0.0
C124 C 0.15349 0.11439 0.85243 0.0
C125 C 0.12454 0.16598 0.83623 0.0
C126 C 0.10719 0.20043 0.83978 0.0
C127 C 0.13684 0.24552 0.85084 0.0
C128 C 0.11992 0.27755 0.85437 0.0
C129 C 0.07354 0.26502 0.8467 0.0
C130 C 0.04405 0.22048 0.83541 0.0
C131 C 0.06079 0.18829 0.83188 0.0
H132 H 0.0605 0.28987 0.84944 0.0
H133 H 0.20647 0.96481 0.81528 0.0
H134 H 0.91094 0.19067 0.24622 0.0
H135 H 0.95078 0.19657 0.20645 0.0
H136 H 0.00211 0.10497 0.23534 0.0
H137 H 0.96012 0.09713 0.27506 0.0
H138 H 0.03797 0.23212 0.19338 0.0
H139 H 0.01985 0.04662 0.18676 0.0
H140 H 0.96874 0.9639 0.20248 0.0
H141 H 0.84867 0.98721 0.20723 0.0
H142 H 0.899 0.06984 0.19139 0.0
H143 H 0.14441 0.23798 0.07674 0.0
H144 H 0.12775 0.21941 0.12152 0.0
H145 H 0.97855 0.12238 0.10445 0.0
H146 H 0.99507 0.1397 0.05983 0.0
H147 H 0.0052 0.08886 0.14324 0.0
H148 H 0.02027 0.24157 0.11871 0.0
H149 H 0.06319 0.32341 0.10102 0.0
H150 H 0.17489 0.36458 0.15596 0.0
H151 H 0.13283 0.28273 0.17377 0.0
C152 C 0.9307 0.17175 0.24418 0.0
C153 C 0.93222 0.14329 0.26378 0.0
C154 C 0.95366 0.17527 0.2214 0.0
C155 C 0.97929 0.15098 0.21771 0.0
C156 C 0.98185 0.12334 0.23749 0.0
C157 C 0.95802 0.11905 0.26022 0.0
C158 C 0.00253 0.15481 0.19297 0.0
C159 C 0.03111 0.2007 0.18257 0.0
C160 C 0.994 0.11401 0.17876 0.0
C161 C 0.96329 0.06443 0.18815 0.0
C162 C 0.98251 0.03396 0.19111 0.0
C163 C 0.95371 0.98715 0.20004 0.0
C164 C 0.90554 0.97037 0.20589 0.0
C165 C 0.88603 0.00031 0.20277 0.0
C166 C 0.91468 0.04714 0.19385 0.0
C167 C 0.10828 0.21189 0.08249 0.0
C168 C 0.07091 0.19085 0.06476 0.0
C169 C 0.0988 0.20138 0.1081 0.0
C170 C 0.05172 0.17016 0.11639 0.0
C171 C 0.01514 0.14662 0.09853 0.0
C172 C 0.02462 0.1568 0.07298 0.0
C173 C 0.039 0.16599 0.14348 0.0
C174 C 0.01283 0.12019 0.15433 0.0
C175 C 0.04862 0.20678 0.15794 0.0
C176 C 0.07376 0.25598 0.14735 0.0
C177 C 0.05414 0.26802 0.12689 0.0
C178 C 0.07828 0.31439 0.11687 0.0
C179 C 0.12182 0.34913 0.12731 0.0
C180 C 0.14123 0.3376 0.14785 0.0
C181 C 0.11727 0.29125 0.15792 0.0
H182 H 0.14046 0.38502 0.11952 0.0
H183 H 0.8833 0.93414 0.2128 0.0
H184 H 0.87395 0.00457 0.39503 0.0
H185 H 0.87076 0.98645 0.4398 0.0
H186 H 0.88887 0.12523 0.45789 0.0
H187 H 0.89183 0.14363 0.41307 0.0
H188 H 0.92565 0.02584 0.48329 0.0
H189 H 0.80456 0.10505 0.50297 0.0
H190 H 0.75219 0.12814 0.48028 0.0
H191 H 0.72244 0.02036 0.42446 0.0
H192 H 0.7741 0.99625 0.447 0.0
H193 H 0.84935 0.96902 0.61259 0.0
H194 H 0.88419 0.01329 0.57341 0.0
H195 H 0.74729 0.92899 0.53643 0.0
H196 H 0.71207 0.88763 0.57575 0.0
H197 H 0.7805 0.01424 0.52277 0.0
H198 H 0.85469 0.91295 0.53199 0.0
H199 H 0.90499 0.88777 0.55514 0.0
H200 H 0.02433 0.03177 0.55198 0.0
H201 H 0.97459 0.0579 0.52911 0.0
C202 C 0.87834 0.03171 0.40851 0.0
C203 C 0.88238 0.07524 0.4005 0.0
C204 C 0.87679 0.02138 0.43411 0.0
C205 C 0.87895 0.05423 0.45213 0.0
C206 C 0.88673 0.09923 0.44424 0.0
C207 C 0.88842 0.10966 0.41862 0.0
C208 C 0.86652 0.03866 0.47861 0.0
C209 C 0.89411 0.02351 0.49206 0.0
C210 C 0.82541 0.0357 0.49001 0.0
C211 C 0.79366 0.04933 0.4765 0.0
C212 C 0.78673 0.08624 0.48589 0.0
C213 C 0.75718 0.09949 0.47306 0.0
C214 C 0.73416 0.07586 0.45089 0.0
C215 C 0.74044 0.03876 0.44157 0.0
C216 C 0.76988 0.02532 0.45435 0.0
C217 C 0.82694 0.96016 0.59601 0.0
C218 C 0.77806 0.92507 0.59713 0.0
C219 C 0.84687 0.98524 0.5736 0.0
C220 C 0.81862 0.97422 0.55173 0.0
C221 C 0.76992 0.9386 0.55297 0.0
C222 C 0.74978 0.91477 0.57545 0.0
C223 C 0.83853 0.99948 0.52743 0.0
C224 C 0.81245 0.01692 0.51432 0.0
C225 C 0.88063 0.00384 0.51631 0.0
C226 C 0.91077 0.98746 0.52914 0.0
C227 C 0.89162 0.93922 0.53629 0.0
C228 C 0.92002 0.92481 0.54937 0.0
C229 C 0.96768 0.95827 0.55519 0.0
C230 C 0.98732 0.006 0.54758 0.0
C231 C 0.95907 0.0206 0.53455 0.0
H232 H 0.98943 0.94733 0.56565 0.0
H233 H 0.71139 0.08625 0.44097 0.0
H234 H 0.91743 0.85744 0.9371 0.0
H235 H 0.90925 0.89467 0.89859 0.0
H236 H 0.7993 0.75582 0.87222 0.0
H237 H 0.80604 0.71891 0.91073 0.0
H238 H 0.92359 0.8868 0.8513 0.0
H239 H 0.71645 0.76048 0.83888 0.0
H240 H 0.64451 0.71958 0.86572 0.0
H241 H 0.71726 0.82251 0.9244 0.0
H242 H 0.78942 0.86447 0.8978 0.0
H243 H 0.84876 0.8467 0.72619 0.0
H244 H 0.87162 0.85105 0.7701 0.0
H245 H 0.78337 0.91262 0.78916 0.0
H246 H 0.75899 0.90681 0.74512 0.0
H247 H 0.76242 0.84365 0.81873 0.0
H248 H 0.90968 0.97733 0.79623 0.0
H249 H 0.98344 0.02791 0.77197 0.0
H250 H 0.03288 0.92863 0.78671 0.0
H251 H 0.9592 0.8771 0.8108 0.0
C252 C 0.89134 0.83495 0.92312 0.0
C253 C 0.86208 0.78526 0.92708 0.0
C254 C 0.88677 0.85627 0.90111 0.0
C255 C 0.85301 0.82824 0.88269 0.0
C256 C 0.82464 0.7785 0.88643 0.0
C257 C 0.82874 0.75734 0.90846 0.0
C258 C 0.84775 0.85012 0.85916 0.0
C259 C 0.88845 0.87776 0.84421 0.0
C260 C 0.80213 0.84017 0.85037 0.0
C261 C 0.75848 0.8155 0.86634 0.0
C262 C 0.71702 0.77461 0.85743 0.0
C263 C 0.67621 0.75117 0.87263 0.0
C264 C 0.67634 0.76839 0.89676 0.0
C265 C 0.71724 0.80914 0.90573 0.0
C266 C 0.75813 0.83273 0.8906 0.0
C267 C 0.83483 0.862 0.73961 0.0
C268 C 0.80169 0.876 0.73219 0.0
C269 C 0.84832 0.86488 0.76477 0.0
C270 C 0.82961 0.88256 0.78304 0.0
C271 C 0.79831 0.89882 0.77545 0.0
C272 C 0.78442 0.89551 0.75026 0.0
C273 C 0.838 0.87813 0.81017 0.0
C274 C 0.7978 0.85369 0.82589 0.0
C275 C 0.88427 0.89253 0.81992 0.0
C276 C 0.92863 0.92313 0.80522 0.0
C277 C 0.93607 0.96604 0.79414 0.0
C278 C 0.97793 0.99494 0.78044 0.0
C279 C 0.01272 0.98139 0.77773 0.0
C280 C 0.00584 0.93902 0.78879 0.0
C281 C 0.96407 0.91001 0.80253 0.0
H282 H 0.04503 0.00374 0.76707 0.0
H283 H 0.64471 0.75021 0.90849 0.0
H284 H 0.07976 0.79709 0.24661 0.0
H285 H 0.04017 0.79285 0.20702 0.0
H286 H 0.02937 0.91665 0.2281 0.0
H287 H 0.07056 0.92201 0.2678 0.0
H288 H 0.95606 0.77825 0.19454 0.0
H289 H 0.0365 0.97913 0.1717 0.0
H290 H 0.10682 0.05746 0.18249 0.0
H291 H 0.18915 0.98865 0.1978 0.0
H292 H 0.11949 0.91009 0.18687 0.0
H293 H 0.86539 0.77826 0.07345 0.0
H294 H 0.88501 0.80126 0.11766 0.0
H295 H 0.03587 0.86481 0.10048 0.0
H296 H 0.01665 0.84427 0.05639 0.0
H297 H 0.02732 0.91516 0.13498 0.0
H298 H 0.96131 0.74312 0.12229 0.0
H299 H 0.89823 0.66194 0.10959 0.0
H300 H 0.80039 0.66846 0.1622 0.0
H301 H 0.86283 0.74989 0.17502 0.0
C302 C 0.06889 0.82341 0.24297 0.0
C303 C 0.07867 0.8601 0.26036 0.0
C304 C 0.04597 0.82079 0.2203 0.0
C305 C 0.03199 0.85458 0.21444 0.0
C306 C 0.04039 0.89054 0.23204 0.0
C307 C 0.06383 0.89348 0.25475 0.0
C308 C 0.01031 0.85239 0.18945 0.0
C309 C 0.97135 0.80841 0.18163 0.0
C310 C 0.03012 0.89165 0.17252 0.0
C311 C 0.07242 0.93865 0.17903 0.0
C312 C 0.06955 0.98075 0.17749 0.0
C313 C 0.10932 0.02518 0.18357 0.0
C314 C 0.15232 0.02798 0.191 0.0
C315 C 0.15572 0.98639 0.19221 0.0
C316 C 0.11607 0.94189 0.18612 0.0
C317 C 0.90274 0.79794 0.07909 0.0
C318 C 0.93946 0.80901 0.06151 0.0
C319 C 0.91392 0.8109 0.10437 0.0
C320 C 0.96191 0.83385 0.11258 0.0
C321 C 0.99857 0.84714 0.09472 0.0
C322 C 0.9875 0.83515 0.06945 0.0
C323 C 0.97445 0.84047 0.13977 0.0
C324 C 0.01133 0.88535 0.14809 0.0
C325 C 0.95382 0.80165 0.15696 0.0
C326 C 0.91647 0.75268 0.14938 0.0
C327 C 0.92625 0.72727 0.13104 0.0
C328 C 0.89064 0.68125 0.12384 0.0
C329 C 0.84528 0.66012 0.13502 0.0
C330 C 0.8355 0.68491 0.15351 0.0
C331 C 0.87097 0.73097 0.16076 0.0
H332 H 0.81775 0.6245 0.12941 0.0
H333 H 0.18307 0.0624 0.19571 0.0
H334 H 0.14278 0.06288 0.59925 0.0
H335 H 0.11377 0.02439 0.55811 0.0
H336 H 0.24636 0.02415 0.5467 0.0
H337 H 0.27538 0.06196 0.58746 0.0
H338 H 0.22501 0.06619 0.50802 0.0
H339 H 0.14969 0.92486 0.55822 0.0
H340 H 0.09727 0.86891 0.59086 0.0
H341 H 0.97355 0.85863 0.55423 0.0
H342 H 0.02539 0.91596 0.52181 0.0
H343 H 0.12829 0.86561 0.41054 0.0
H344 H 0.13029 0.88786 0.45468 0.0
H345 H 0.13022 0.01662 0.4321 0.0
H346 H 0.12976 0.99537 0.38797 0.0
H347 H 0.08126 0.90936 0.48814 0.0
H348 H 0.21154 0.10926 0.46651 0.0
H349 H 0.26958 0.15921 0.4338 0.0
H350 H 0.2928 0.04275 0.41458 0.0
H351 H 0.23543 0.9924 0.44738 0.0
C352 C 0.16548 0.05407 0.58809 0.0
C353 C 0.21161 0.06593 0.59659 0.0
C354 C 0.14878 0.03197 0.56465 0.0
C355 C 0.17805 0.02165 0.54936 0.0
C356 C 0.22332 0.03202 0.55818 0.0
C357 C 0.23982 0.05365 0.58154 0.0
C358 C 0.16373 0.00353 0.52336 0.0
C359 C 0.19329 0.03206 0.50371 0.0
C360 C 0.12275 0.95867 0.51778 0.0
C361 C 0.09163 0.92552 0.53779 0.0
C362 C 0.11143 0.91151 0.55737 0.0
C363 C 0.08178 0.87941 0.57581 0.0
C364 C 0.03213 0.86046 0.57471 0.0
C365 C 0.01204 0.87353 0.55513 0.0
C366 C 0.04157 0.90597 0.53676 0.0
C367 C 0.12771 0.89817 0.41499 0.0
C368 C 0.12974 0.92919 0.3958 0.0
C369 C 0.12868 0.91076 0.44024 0.0
C370 C 0.13141 0.95438 0.44667 0.0
C371 C 0.1291 0.98325 0.42755 0.0
C372 C 0.12879 0.97104 0.40233 0.0
C373 C 0.14235 0.97228 0.47293 0.0
C374 C 0.11236 0.94385 0.49254 0.0
C375 C 0.18366 0.01675 0.47869 0.0
C376 C 0.2188 0.04696 0.45918 0.0
C377 C 0.22918 0.09442 0.45534 0.0
C378 C 0.26193 0.12278 0.43679 0.0
C379 C 0.28473 0.10411 0.42206 0.0
C380 C 0.27499 0.05711 0.42593 0.0
C381 C 0.24234 0.02865 0.44449 0.0
H382 H 0.31002 0.1261 0.40769 0.0
H383 H 0.00921 0.83547 0.58896 0.0
H384 H 0.31396 0.33112 0.02226 0.0
H385 H 0.39888 0.38343 0.03258 0.0
H386 H 0.3829 0.5079 0.02184 0.0
H387 H 0.29927 0.45551 0.00954 0.0
H388 H 0.45446 0.52366 0.99837 0.0
H389 H 0.40812 0.4697 0.08202 0.0
H390 H 0.36917 0.41238 0.11678 0.0
H391 H 0.45582 0.34837 0.10126 0.0
H392 H 0.49485 0.40485 0.06617 0.0
H393 H 0.7019 0.67482 0.02985 0.0
H394 H 0.61609 0.63142 0.04084 0.0
H395 H 0.60513 0.49894 0.01559 0.0
H396 H 0.69 0.54216 0.0038 0.0
H397 H 0.549 0.49695 0.06352 0.0
H398 H 0.58014 0.54517 0.974 0.0
H399 H 0.62023 0.60705 0.94127 0.0
H400 H 0.56067 0.68876 0.97286 0.0
H401 H 0.52081 0.62759 0.00601 0.0
C402 C 0.32863 0.36964 0.02259 0.0
C403 C 0.30057 0.38954 0.01507 0.0
C404 C 0.37708 0.39963 0.02869 0.0
C405 C 0.39762 0.44993 0.02826 0.0
C406 C 0.36831 0.46939 0.02217 0.0
C407 C 0.3205 0.43951 0.01525 0.0
C408 C 0.45042 0.48217 0.03122 0.0
C409 C 0.4746 0.51832 0.01313 0.0
C410 C 0.4775 0.47544 0.05021 0.0
C411 C 0.4542 0.44136 0.07133 0.0
C412 C 0.41865 0.44319 0.0859 0.0
C413 C 0.39659 0.41087 0.10568 0.0
C414 C 0.40996 0.3767 0.11119 0.0
C415 C 0.4455 0.37485 0.09696 0.0
C416 C 0.46766 0.40706 0.07714 0.0
C417 C 0.68132 0.63629 0.02722 0.0
C418 C 0.70218 0.61177 0.01579 0.0
C419 C 0.63252 0.61161 0.03354 0.0
C420 C 0.60457 0.56206 0.02906 0.0
C421 C 0.6263 0.53709 0.01936 0.0
C422 C 0.67459 0.56185 0.01246 0.0
C423 C 0.5517 0.5373 0.03074 0.0
C424 C 0.52796 0.50259 0.04941 0.0
C425 C 0.52471 0.54591 0.01272 0.0
C426 C 0.54805 0.5822 0.99261 0.0
C427 C 0.57596 0.57654 0.97407 0.0
C428 C 0.59856 0.61143 0.95544 0.0
C429 C 0.59313 0.65189 0.95504 0.0
C430 C 0.56493 0.65745 0.97323 0.0
C431 C 0.54233 0.6227 0.99193 0.0
H432 H 0.61067 0.67886 0.9406 0.0
H433 H 0.39283 0.35171 0.12652 0.0
H434 H 0.84636 0.29334 0.36087 0.0
H435 H 0.88039 0.37776 0.37269 0.0
H436 H 0.02305 0.40091 0.35978 0.0
H437 H 0.98884 0.3155 0.34988 0.0
H438 H 0.02892 0.45826 0.39463 0.0
H439 H 0.95337 0.41931 0.31302 0.0
H440 H 0.88685 0.37626 0.28297 0.0
H441 H 0.80365 0.42679 0.32187 0.0
H442 H 0.86953 0.46969 0.35234 0.0
H443 H 0.14492 0.6839 0.33255 0.0
H444 H 0.1048 0.60012 0.34604 0.0
H445 H 0.99295 0.61673 0.38092 0.0
H446 H 0.03386 0.70152 0.36797 0.0
H447 H 0.96412 0.54112 0.34276 0.0
H448 H 0.05477 0.5957 0.4188 0.0
H449 H 0.12791 0.64174 0.44425 0.0
H450 H 0.1908 0.56514 0.41019 0.0
H451 H 0.11832 0.51912 0.38424 0.0
C452 C 0.88502 0.31638 0.3613 0.0
C453 C 0.91519 0.2985 0.35446 0.0
C454 C 0.90445 0.3646 0.36782 0.0
C455 C 0.95425 0.39617 0.36635 0.0
C456 C 0.98452 0.37744 0.36097 0.0
C457 C 0.96508 0.32875 0.35527 0.0
C458 C 0.97445 0.449 0.36797 0.0
C459 C 0.01476 0.47633 0.38325 0.0
C460 C 0.95564 0.4728 0.35344 0.0
C461 C 0.91608 0.44717 0.33511 0.0
C462 C 0.92075 0.42096 0.31524 0.0
C463 C 0.88319 0.39663 0.29813 0.0
C464 C 0.84099 0.39866 0.30056 0.0
C465 C 0.83632 0.42516 0.32005 0.0
C466 C 0.87374 0.44949 0.33724 0.0
C467 C 0.11222 0.66996 0.34348 0.0
C468 C 0.09226 0.69898 0.34911 0.0
C469 C 0.08955 0.62224 0.35131 0.0
C470 C 0.04615 0.60247 0.36457 0.0
C471 C 0.02669 0.63163 0.37086 0.0
C472 C 0.05001 0.67988 0.36348 0.0
C473 C 0.01889 0.55011 0.36899 0.0
C474 C 0.97742 0.52288 0.35465 0.0
C475 C 0.03752 0.52669 0.38377 0.0
C476 C 0.08114 0.55412 0.39946 0.0
C477 C 0.08432 0.58891 0.41658 0.0
C478 C 0.12566 0.61497 0.43113 0.0
C479 C 0.16401 0.60642 0.42882 0.0
C480 C 0.16106 0.57172 0.41197 0.0
C481 C 0.11982 0.54558 0.39736 0.0
H482 H 0.19598 0.62663 0.4401 0.0
H483 H 0.81195 0.3798 0.28729 0.0
H484 H 0.34089 0.05366 0.71806 0.0
H485 H 0.38787 0.01755 0.73325 0.0
H486 H 0.49006 0.08765 0.67338 0.0
H487 H 0.44425 0.12396 0.6585 0.0
H488 H 0.40471 0.95556 0.70977 0.0
H489 H 0.59898 0.11407 0.68801 0.0
H490 H 0.6448 0.20193 0.69332 0.0
H491 H 0.54926 0.19245 0.75225 0.0
H492 H 0.50325 0.10445 0.74761 0.0
H493 H 0.55023 0.88548 0.65236 0.0
H494 H 0.50448 0.92152 0.6677 0.0
H495 H 0.59533 0.97411 0.73326 0.0
H496 H 0.64243 0.93844 0.71762 0.0
H497 H 0.5827 0.04246 0.71378 0.0
H498 H 0.47811 0.88448 0.73982 0.0
H499 H 0.43193 0.79614 0.73744 0.0
H500 H 0.34764 0.80382 0.67696 0.0
H501 H 0.39374 0.8922 0.67868 0.0
C502 C 0.3738 0.06187 0.70843 0.0
C503 C 0.38875 0.09148 0.68702 0.0
C504 C 0.40057 0.04126 0.71712 0.0
C505 C 0.44289 0.05045 0.7047 0.0
C506 C 0.45823 0.08089 0.68369 0.0
C507 C 0.43163 0.10129 0.67502 0.0
C508 C 0.46891 0.02484 0.71158 0.0
C509 C 0.44356 0.9745 0.71109 0.0
C510 C 0.51948 0.04952 0.71431 0.0
C511 C 0.54755 0.10252 0.71742 0.0
C512 C 0.58793 0.13062 0.70226 0.0
C513 C 0.6139 0.1805 0.70511 0.0
C514 C 0.59993 0.20276 0.72309 0.0
C515 C 0.55999 0.17517 0.7383 0.0
C516 C 0.53392 0.12528 0.73554 0.0
C517 C 0.56046 0.90437 0.67015 0.0
C518 C 0.60002 0.90909 0.68377 0.0
C519 C 0.53389 0.92463 0.67903 0.0
C520 C 0.54578 0.94969 0.70191 0.0
C521 C 0.58525 0.95451 0.71568 0.0
C522 C 0.6121 0.93418 0.70672 0.0
C523 C 0.51864 0.9735 0.70999 0.0
C524 C 0.54378 0.02345 0.71332 0.0
C525 C 0.46781 0.94839 0.71045 0.0
C526 C 0.43949 0.8951 0.7094 0.0
C527 C 0.44987 0.86736 0.72593 0.0
C528 C 0.42369 0.81725 0.7247 0.0
C529 C 0.38687 0.79438 0.70707 0.0
C530 C 0.37612 0.82158 0.69065 0.0
C531 C 0.4022 0.87171 0.69178 0.0
H532 H 0.36667 0.75558 0.70614 0.0
H533 H 0.62005 0.24138 0.72525 0.0
H534 H 0.42728 0.2903 0.65411 0.0
H535 H 0.48209 0.37667 0.65352 0.0
H536 H 0.36201 0.40102 0.6573 0.0
H537 H 0.30643 0.3141 0.65766 0.0
H538 H 0.4297 0.45985 0.62297 0.0
H539 H 0.42739 0.41422 0.70916 0.0
H540 H 0.43394 0.36693 0.74383 0.0
H541 H 0.58011 0.41463 0.72329 0.0
H542 H 0.57422 0.4617 0.68826 0.0
H543 H 0.5564 0.70404 0.65764 0.0
H544 H 0.50267 0.61758 0.65622 0.0
H545 H 0.6244 0.59556 0.6563 0.0
H546 H 0.67884 0.68259 0.65823 0.0
H547 H 0.55658 0.53517 0.68809 0.0
H548 H 0.55997 0.58156 0.60236 0.0
H549 H 0.55394 0.62851 0.56736 0.0
H550 H 0.40679 0.57922 0.58641 0.0
H551 H 0.41212 0.53246 0.62176 0.0
C552 C 0.41231 0.31386 0.65477 0.0
C553 C 0.36235 0.29518 0.65607 0.0
C554 C 0.44381 0.36332 0.65452 0.0
C555 C 0.42618 0.39526 0.65573 0.0
C556 C 0.37634 0.37692 0.65645 0.0
C557 C 0.34466 0.32727 0.6567 0.0
C558 C 0.45998 0.44778 0.65636 0.0
C559 C 0.45702 0.47647 0.6374 0.0
C560 C 0.49649 0.46917 0.6748 0.0
C561 C 0.50021 0.44112 0.69594 0.0
C562 C 0.46081 0.41433 0.71192 0.0
C563 C 0.46443 0.38762 0.73166 0.0
C564 C 0.50737 0.38768 0.73572 0.0
C565 C 0.54684 0.41457 0.7201 0.0
C566 C 0.5434 0.44131 0.70032 0.0
C567 C 0.57195 0.68097 0.65728 0.0
C568 C 0.62205 0.70035 0.65794 0.0
C569 C 0.54107 0.63143 0.65635 0.0
C570 C 0.55947 0.60007 0.65575 0.0
C571 C 0.60943 0.61914 0.65664 0.0
C572 C 0.64048 0.66887 0.65769 0.0
C573 C 0.5263 0.54739 0.65471 0.0
C574 C 0.52935 0.51862 0.67361 0.0
C575 C 0.48998 0.52591 0.63617 0.0
C576 C 0.48659 0.55383 0.61485 0.0
C577 C 0.52643 0.58101 0.59921 0.0
C578 C 0.52312 0.60754 0.57928 0.0
C579 C 0.48005 0.60694 0.5747 0.0
C580 C 0.44015 0.57969 0.58999 0.0
C581 C 0.44328 0.55312 0.60996 0.0
H582 H 0.47756 0.6275 0.55926 0.0
H583 H 0.5101 0.36697 0.75101 0.0
H584 H 0.86067 0.56295 0.98738 0.0
H585 H 0.89276 0.50855 0.98698 0.0
H586 H 0.03696 0.62932 0.98968 0.0
H587 H 0.00512 0.68443 0.98989 0.0
H588 H 0.02695 0.56098 0.95514 0.0
H589 H 0.98766 0.56548 0.0418 0.0
H590 H 0.9354 0.55976 0.07711 0.0
H591 H 0.83635 0.41292 0.05806 0.0
H592 H 0.88769 0.41797 0.02239 0.0
H593 H 0.1433 0.43086 0.98705 0.0
H594 H 0.1126 0.48642 0.98622 0.0
H595 H 0.96746 0.36724 0.98918 0.0
H596 H 0.99797 0.31119 0.9906 0.0
H597 H 0.97851 0.43563 0.02086 0.0
H598 H 0.01635 0.4303 0.93425 0.0
H599 H 0.06721 0.43534 0.89838 0.0
H600 H 0.16723 0.5824 0.91652 0.0
H601 H 0.11729 0.57805 0.95273 0.0
C602 C 0.89925 0.57813 0.98786 0.0
C603 C 0.93034 0.62813 0.98877 0.0
C604 C 0.9175 0.54689 0.98772 0.0
C605 C 0.96718 0.56489 0.98861 0.0
C606 C 0.99846 0.61475 0.98906 0.0
C607 C 0.9802 0.64614 0.98925 0.0
C608 C 0.98625 0.53144 0.98908 0.0
C609 C 0.01698 0.53401 0.9697 0.0
C610 C 0.97211 0.49548 0.00773 0.0
C611 C 0.94132 0.49225 0.02928 0.0
C612 C 0.95455 0.53208 0.04502 0.0
C613 C 0.92513 0.52894 0.06512 0.0
C614 C 0.88253 0.48604 0.06979 0.0
C615 C 0.86933 0.44614 0.0544 0.0
C616 C 0.89861 0.44911 0.03425 0.0
C617 C 0.1048 0.41632 0.98741 0.0
C618 C 0.07306 0.3665 0.98881 0.0
C619 C 0.08731 0.44821 0.98683 0.0
C620 C 0.03771 0.431 0.98728 0.0
C621 C 0.00589 0.38131 0.98875 0.0
C622 C 0.02338 0.34932 0.9895 0.0
C623 C 0.01919 0.46498 0.98685 0.0
C624 C 0.98855 0.46256 0.00627 0.0
C625 C 0.03325 0.50093 0.96816 0.0
C626 C 0.06329 0.5037 0.94635 0.0
C627 C 0.04938 0.46361 0.93071 0.0
C628 C 0.07801 0.46636 0.91029 0.0
C629 C 0.12049 0.50913 0.90521 0.0
C630 C 0.13435 0.54928 0.9205 0.0
C631 C 0.10587 0.5467 0.94096 0.0
H632 H 0.1426 0.51119 0.8894 0.0
H633 H 0.85979 0.48368 0.08536 0.0
H634 H 0.7108 0.13701 0.32961 0.0
H635 H 0.62423 0.10376 0.32917 0.0
H636 H 0.6031 0.96064 0.32425 0.0
H637 H 0.69038 0.99375 0.32453 0.0
H638 H 0.54568 0.9757 0.29119 0.0
H639 H 0.58343 0.99788 0.37869 0.0
H640 H 0.62779 0.04222 0.41649 0.0
H641 H 0.58206 0.14532 0.4047 0.0
H642 H 0.53795 0.10195 0.36659 0.0
H643 H 0.29738 0.85621 0.31932 0.0
H644 H 0.38347 0.88627 0.32001 0.0
H645 H 0.41033 0.03121 0.32714 0.0
H646 H 0.32369 0.0013 0.32682 0.0
H647 H 0.46471 0.01314 0.35964 0.0
H648 H 0.42802 0.99091 0.27143 0.0
H649 H 0.38428 0.94617 0.23357 0.0
H650 H 0.42818 0.84212 0.24698 0.0
H651 H 0.47166 0.8859 0.28513 0.0
C652 C 0.68793 0.09841 0.32844 0.0
C653 C 0.7076 0.06801 0.32717 0.0
C654 C 0.63836 0.07948 0.3283 0.0
C655 C 0.60728 0.02975 0.32698 0.0
C656 C 0.62658 0.99917 0.32536 0.0
C657 C 0.67639 0.01812 0.32559 0.0
C658 C 0.55465 0.01013 0.32707 0.0
C659 C 0.52778 0.98318 0.30633 0.0
C660 C 0.53164 0.02092 0.34659 0.0
C661 C 0.55772 0.04688 0.36965 0.0
C662 C 0.58312 0.03021 0.38405 0.0
C663 C 0.60818 0.05514 0.40555 0.0
C664 C 0.60786 0.09664 0.41295 0.0
C665 C 0.58232 0.1132 0.39892 0.0
C666 C 0.55723 0.08842 0.37738 0.0
C667 C 0.32145 0.89455 0.32094 0.0
C668 C 0.30355 0.92639 0.32292 0.0
C669 C 0.37076 0.91166 0.32125 0.0
C670 C 0.40333 0.961 0.32333 0.0
C671 C 0.38574 0.99297 0.32545 0.0
C672 C 0.33626 0.97585 0.32517 0.0
C673 C 0.45571 0.97893 0.32366 0.0
C674 C 0.48255 0.00556 0.34451 0.0
C675 C 0.47867 0.96772 0.30427 0.0
C676 C 0.45272 0.94145 0.28127 0.0
C677 C 0.42804 0.95829 0.26641 0.0
C678 C 0.40335 0.93314 0.24488 0.0
C679 C 0.40335 0.89126 0.23791 0.0
C680 C 0.42816 0.87453 0.25242 0.0
C681 C 0.45288 0.89952 0.27398 0.0
H682 H 0.3842 0.87184 0.22123 0.0
H683 H 0.62731 0.11591 0.4296 0.0
loop_
_geom_bond_atom_site_label_1
_geom_bond_atom_site_label_2
_geom_bond_distance
_geom_bond_site_symmetry_2
_ccdc_geom_bond_type
O0 Cd1 2.223 . S
O0 C8 1.315 . S
Cd1 O0 2.223 . S
Cd1 O4 2.297 . S
Cd1 O5 2.439 1_556 S
Cd1 O11 2.240 1_556 S
Cd2 O3 2.240 1_554 S
Cd2 O10 2.223 1_554 S
Cd2 O12 2.297 . S
Cd2 O13 2.439 . S
O3 Cd2 2.240 1_556 S
O3 C8 1.279 . S
O4 Cd1 2.297 . S
O4 C6 1.247 1_556 S
O5 Cd1 2.439 1_554 S
O5 C6 1.208 . S
C6 O4 1.247 1_554 S
C6 O5 1.208 . S
C7 O12 1.247 . S
C7 O13 1.208 . S
C8 O0 1.315 . S
C8 O3 1.279 . S
C9 O10 1.315 . S
C9 O11 1.279 1_556 S
O10 Cd2 2.223 1_556 S
O10 C9 1.315 . S
O11 Cd1 2.240 1_554 S
O11 C9 1.279 1_554 S
O12 Cd2 2.297 . S
O12 C7 1.247 . S
O13 Cd2 2.439 . S
O13 C7 1.208 . S
O14 Cd15 2.223 . S
O14 C22 1.315 . S
Cd15 O14 2.223 . S
Cd15 O18 2.297 . S
Cd15 O19 2.439 . S
Cd15 O25 2.240 . S
Cd16 O17 2.240 . S
Cd16 O24 2.223 . S
Cd16 O26 2.297 . S
Cd16 O27 2.439 . S
O17 Cd16 2.240 . S
O17 C22 1.279 . S
O18 Cd15 2.297 . S
O18 C20 1.247 . S
O19 Cd15 2.439 . S
O19 C20 1.208 . S
C20 O18 1.247 . S
C20 O19 1.208 . S
C21 O26 1.247 . S
C21 O27 1.208 . S
C22 O14 1.315 . S
C22 O17 1.279 . S
C23 O24 1.315 . S
C23 O25 1.279 . S
O24 Cd16 2.223 . S
O24 C23 1.315 . S
O25 Cd15 2.240 . S
O25 C23 1.279 . S
O26 Cd16 2.297 . S
O26 C21 1.247 . S
O27 Cd16 2.439 . S
O27 C21 1.208 . S
O28 Cd29 2.223 . S
O28 C36 1.315 . S
Cd29 O28 2.223 . S
Cd29 O32 2.297 . S
Cd29 O33 2.439 . S
Cd29 O39 2.240 . S
Cd30 O31 2.240 . S
Cd30 O38 2.223 . S
Cd30 O40 2.297 . S
Cd30 O41 2.439 . S
O31 Cd30 2.240 . S
O31 C36 1.279 . S
O32 Cd29 2.297 . S
O32 C34 1.247 . S
O33 Cd29 2.439 . S
O33 C34 1.208 . S
C34 O32 1.247 . S
C34 O33 1.208 . S
C35 O40 1.247 . S
C35 O41 1.208 . S
C36 O28 1.315 . S
C36 O31 1.279 . S
C37 O38 1.315 . S
C37 O39 1.279 . S
O38 Cd30 2.223 . S
O38 C37 1.315 . S
O39 Cd29 2.240 . S
O39 C37 1.279 . S
O40 Cd30 2.297 . S
O40 C35 1.247 . S
O41 Cd30 2.439 . S
O41 C35 1.208 . S
O42 Cd43 2.223 . S
O42 C50 1.315 . S
Cd43 O42 2.223 . S
Cd43 O46 2.297 . S
Cd43 O47 2.439 1_556 S
Cd43 O53 2.240 1_556 S
Cd44 O45 2.240 1_554 S
Cd44 O52 2.223 1_554 S
Cd44 O54 2.297 . S
Cd44 O55 2.439 . S
O45 Cd44 2.240 1_556 S
O45 C50 1.279 . S
O46 Cd43 2.297 . S
O46 C48 1.247 1_556 S
O47 Cd43 2.439 1_554 S
O47 C48 1.208 . S
C48 O46 1.247 1_554 S
C48 O47 1.208 . S
C49 O54 1.247 . S
C49 O55 1.208 . S
C50 O42 1.315 . S
C50 O45 1.279 . S
C51 O52 1.315 . S
C51 O53 1.279 1_556 S
O52 Cd44 2.223 1_556 S
O52 C51 1.315 . S
O53 Cd43 2.240 1_554 S
O53 C51 1.279 1_554 S
O54 Cd44 2.297 . S
O54 C49 1.247 . S
O55 Cd44 2.439 . S
O55 C49 1.208 . S
O56 Cd57 2.223 . S
O56 C64 1.315 . S
Cd57 O56 2.223 . S
Cd57 O60 2.297 . S
Cd57 O61 2.439 . S
Cd57 O67 2.240 . S
Cd58 O59 2.240 . S
Cd58 O66 2.223 . S
Cd58 O68 2.297 . S
Cd58 O69 2.439 . S
O59 Cd58 2.240 . S
O59 C64 1.279 . S
O60 Cd57 2.297 . S
O60 C62 1.247 . S
O61 Cd57 2.439 . S
O61 C62 1.208 . S
C62 O60 1.247 . S
C62 O61 1.208 . S
C63 O68 1.247 . S
C63 O69 1.208 . S
C64 O56 1.315 . S
C64 O59 1.279 . S
C65 O66 1.315 . S
C65 O67 1.279 . S
O66 Cd58 2.223 . S
O66 C65 1.315 . S
O67 Cd57 2.240 . S
O67 C65 1.279 . S
O68 Cd58 2.297 . S
O68 C63 1.247 . S
O69 Cd58 2.439 . S
O69 C63 1.208 . S
O70 Cd71 2.223 . S
O70 C78 1.315 . S
Cd71 O70 2.223 . S
Cd71 O74 2.297 . S
Cd71 O75 2.439 . S
Cd71 O81 2.240 . S
Cd72 O73 2.240 . S
Cd72 O80 2.223 . S
Cd72 O82 2.297 . S
Cd72 O83 2.439 . S
O73 Cd72 2.240 . S
O73 C78 1.279 . S
O74 Cd71 2.297 . S
O74 C76 1.247 . S
O75 Cd71 2.439 . S
O75 C76 1.208 . S
C76 O74 1.247 . S
C76 O75 1.208 . S
C77 O82 1.247 . S
C77 O83 1.208 . S
C78 O70 1.315 . S
C78 O73 1.279 . S
C79 O80 1.315 . S
C79 O81 1.279 . S
O80 Cd72 2.223 . S
O80 C79 1.315 . S
O81 Cd71 2.240 . S
O81 C79 1.279 . S
O82 Cd72 2.297 . S
O82 C77 1.247 . S
O83 Cd72 2.439 . S
O83 C77 1.208 . S
H84 C102 0.951 . S
H85 C104 0.951 . S
H86 C106 0.950 . S
H87 C107 0.950 . S
H88 C109 0.950 . S
H89 C112 0.950 . S
H90 C113 0.950 . S
H91 C115 0.950 . S
H92 C116 0.950 . S
H93 C117 0.951 . S
H94 C119 0.951 . S
H95 C121 0.950 . S
H96 C122 0.950 . S
H97 C124 0.950 . S
H98 C127 0.950 . S
H99 C128 0.950 . S
H100 C130 0.950 . S
H101 C131 0.950 . S
C102 H84 0.951 . S
C102 C103 1.366 . S
C102 C104 1.388 . S
C103 C102 1.366 . S
C103 C107 1.385 . S
C104 H85 0.951 . S
C104 C102 1.388 . S
C104 C105 1.366 . S
C105 C104 1.366 . S
C105 C106 1.414 . S
C105 C108 1.499 . S
C106 H86 0.950 . S
C106 C105 1.414 . S
C106 C107 1.374 . S
C107 H87 0.950 . S
C107 C103 1.385 . S
C107 C106 1.374 . S
C108 C105 1.499 . S
C108 C109 1.373 . S
C108 C110 1.389 . S
C109 H88 0.950 . S
C109 C108 1.373 . S
C109 C125 1.377 . S
C110 C108 1.389 . S
C110 C111 1.524 . S
C110 C124 1.377 . S
C111 C110 1.524 . S
C111 C112 1.397 . S
C111 C116 1.363 . S
C112 H89 0.950 . S
C112 C111 1.397 . S
C112 C113 1.334 . S
C113 H90 0.950 . S
C113 C112 1.334 . S
C113 C114 1.287 . S
C114 C113 1.287 . S
C114 C115 1.524 . S
C114 H133 0.913 . S
C115 H91 0.950 . S
C115 C114 1.524 . S
C115 C116 1.415 . S
C116 H92 0.950 . S
C116 C111 1.363 . S
C116 C115 1.415 . S
C117 H93 0.951 . S
C117 C118 1.366 . S
C117 C119 1.388 . S
C118 C117 1.366 . S
C118 C122 1.385 . S
C119 H94 0.951 . S
C119 C117 1.388 . S
C119 C120 1.366 . S
C120 C119 1.366 . S
C120 C121 1.414 . S
C120 C123 1.499 . S
C121 H95 0.950 . S
C121 C120 1.414 . S
C121 C122 1.374 . S
C122 H96 0.950 . S
C122 C118 1.385 . S
C122 C121 1.374 . S
C123 C120 1.499 . S
C123 C124 1.373 . S
C123 C125 1.389 . S
C124 H97 0.950 . S
C124 C110 1.377 . S
C124 C123 1.373 . S
C125 C109 1.377 . S
C125 C123 1.389 . S
C125 C126 1.524 . S
C126 C125 1.524 . S
C126 C127 1.397 . S
C126 C131 1.363 . S
C127 H98 0.950 . S
C127 C126 1.397 . S
C127 C128 1.334 . S
C128 H99 0.950 . S
C128 C127 1.334 . S
C128 C129 1.287 . S
C129 C128 1.287 . S
C129 C130 1.524 . S
C129 H132 0.999 . S
C130 H100 0.950 . S
C130 C129 1.524 . S
C130 C131 1.415 . S
C131 H101 0.950 . S
C131 C126 1.363 . S
C131 C130 1.415 . S
H132 C129 0.999 . S
H133 C114 0.913 . S
H134 C152 0.951 . S
H135 C154 0.951 . S
H136 C156 0.950 . S
H137 C157 0.950 . S
H138 C159 0.950 . S
H139 C162 0.950 . S
H140 C163 0.950 1_565 S
H141 C165 0.950 1_565 S
H142 C166 0.950 . S
H143 C167 0.951 . S
H144 C169 0.951 . S
H145 C171 0.950 . S
H146 C172 0.950 . S
H147 C174 0.950 . S
H148 C177 0.950 1_655 S
H149 C178 0.950 . S
H150 C180 0.950 . S
H151 C181 0.950 . S
C152 H134 0.951 . S
C152 C153 1.366 . S
C152 C154 1.388 . S
C153 C152 1.366 . S
C153 C157 1.385 . S
C154 H135 0.951 . S
C154 C152 1.388 . S
C154 C155 1.366 . S
C155 C154 1.366 . S
C155 C156 1.414 . S
C155 C158 1.499 . S
C156 H136 0.950 . S
C156 C155 1.414 . S
C156 C157 1.374 . S
C157 H137 0.950 . S
C157 C153 1.385 . S
C157 C156 1.374 . S
C158 C155 1.499 . S
C158 C159 1.373 . S
C158 C160 1.389 . S
C159 H138 0.950 . S
C159 C158 1.373 . S
C159 C175 1.377 . S
C160 C158 1.389 . S
C160 C161 1.524 . S
C160 C174 1.377 . S
C161 C160 1.524 . S
C161 C162 1.397 . S
C161 C166 1.363 . S
C162 H139 0.950 . S
C162 C161 1.397 . S
C162 C163 1.334 . S
C163 H140 0.950 1_545 S
C163 C162 1.334 . S
C163 C164 1.287 1_545 S
C164 C163 1.287 1_565 S
C164 C165 1.524 1_565 S
C164 H183 0.913 . S
C165 H141 0.950 1_545 S
C165 C164 1.524 1_545 S
C165 C166 1.415 . S
C166 H142 0.950 . S
C166 C161 1.363 . S
C166 C165 1.415 . S
C167 H143 0.951 . S
C167 C168 1.366 . S
C167 C169 1.388 . S
C168 C167 1.366 . S
C168 C172 1.385 1_455 S
C169 H144 0.951 . S
C169 C167 1.388 . S
C169 C170 1.366 . S
C170 C169 1.366 . S
C170 C171 1.414 1_455 S
C170 C173 1.499 1_455 S
C171 H145 0.950 . S
C171 C170 1.414 1_655 S
C171 C172 1.374 . S
C172 H146 0.950 . S
C172 C168 1.385 1_655 S
C172 C171 1.374 . S
C173 C170 1.499 1_655 S
C173 C174 1.373 . S
C173 C175 1.389 . S
C174 H147 0.950 . S
C174 C160 1.377 . S
C174 C173 1.373 . S
C175 C159 1.377 . S
C175 C173 1.389 . S
C175 C176 1.524 1_655 S
C176 C175 1.524 1_455 S
C176 C177 1.397 . S
C176 C181 1.363 . S
C177 H148 0.950 1_455 S
C177 C176 1.397 . S
C177 C178 1.334 . S
C178 H149 0.950 . S
C178 C177 1.334 . S
C178 C179 1.287 . S
C179 C178 1.287 . S
C179 C180 1.524 . S
C179 H182 0.999 . S
C180 H150 0.950 . S
C180 C179 1.524 . S
C180 C181 1.415 . S
C181 H151 0.950 . S
C181 C176 1.363 . S
C181 C180 1.415 . S
H182 C179 0.999 . S
H183 C164 0.913 . S
H184 C202 0.943 1_565 S
H185 C204 0.951 . S
H186 C206 0.950 . S
H187 C207 0.950 . S
H188 C209 0.950 1_545 S
H189 C212 0.950 1_545 S
H190 C213 0.950 1_545 S
H191 C215 0.950 . S
H192 C216 0.950 . S
H193 C217 0.951 . S
H194 C219 0.951 . S
H195 C221 0.950 . S
H196 C222 0.950 . S
H197 C224 0.950 . S
H198 C227 0.950 . S
H199 C228 0.950 . S
H200 C230 0.950 . S
H201 C231 0.950 . S
C202 H184 0.943 1_545 S
C202 C203 1.382 . S
C202 C204 1.379 1_545 S
C203 C202 1.382 . S
C203 C207 1.385 . S
C204 H185 0.951 . S
C204 C202 1.379 1_565 S
C204 C205 1.366 1_565 S
C205 C204 1.366 1_545 S
C205 C206 1.414 . S
C205 C208 1.499 1_545 S
C206 H186 0.950 . S
C206 C205 1.414 . S
C206 C207 1.374 . S
C207 H187 0.950 . S
C207 C203 1.385 . S
C207 C206 1.374 . S
C208 C205 1.499 1_565 S
C208 C209 1.373 . S
C208 C210 1.389 . S
C209 H188 0.950 1_565 S
C209 C208 1.373 . S
C209 C225 1.377 . S
C210 C208 1.389 . S
C210 C211 1.524 . S
C210 C224 1.377 . S
C211 C210 1.524 . S
C211 C212 1.397 . S
C211 C216 1.363 . S
C212 H189 0.950 1_565 S
C212 C211 1.397 . S
C212 C213 1.334 . S
C213 H190 0.950 1_565 S
C213 C212 1.334 . S
C213 C214 1.287 . S
C214 C213 1.287 . S
C214 C215 1.524 . S
C214 H233 0.913 . S
C215 H191 0.950 . S
C215 C214 1.524 . S
C215 C216 1.415 . S
C216 H192 0.950 . S
C216 C211 1.363 . S
C216 C215 1.415 . S
C217 H193 0.951 . S
C217 C218 1.366 . S
C217 C219 1.388 . S
C218 C217 1.366 . S
C218 C222 1.385 . S
C219 H194 0.951 . S
C219 C217 1.388 . S
C219 C220 1.366 . S
C220 C219 1.366 . S
C220 C221 1.414 . S
C220 C223 1.499 . S
C221 H195 0.950 . S
C221 C220 1.414 . S
C221 C222 1.374 . S
C222 H196 0.950 . S
C222 C218 1.385 . S
C222 C221 1.374 . S
C223 C220 1.499 . S
C223 C224 1.373 . S
C223 C225 1.389 . S
C224 H197 0.950 . S
C224 C210 1.377 . S
C224 C223 1.373 . S
C225 C209 1.377 . S
C225 C223 1.389 . S
C225 C226 1.524 . S
C226 C225 1.524 . S
C226 C227 1.397 . S
C226 C231 1.363 1_565 S
C227 H198 0.950 . S
C227 C226 1.397 . S
C227 C228 1.334 . S
C228 H199 0.950 . S
C228 C227 1.334 . S
C228 C229 1.287 . S
C229 C228 1.287 . S
C229 C230 1.524 1_565 S
C229 H232 0.999 . S
C230 H200 0.950 . S
C230 C229 1.524 1_545 S
C230 C231 1.415 . S
C231 H201 0.950 . S
C231 C226 1.363 1_545 S
C231 C230 1.415 . S
H232 C229 0.999 . S
H233 C214 0.913 . S
H234 C252 0.951 . S
H235 C254 0.951 . S
H236 C256 0.950 . S
H237 C257 0.950 . S
H238 C259 0.950 . S
H239 C262 0.950 . S
H240 C263 0.950 . S
H241 C265 0.950 . S
H242 C266 0.950 . S
H243 C267 0.951 . S
H244 C269 0.951 . S
H245 C271 0.950 . S
H246 C272 0.950 . S
H247 C274 0.950 . S
H248 C277 0.950 . S
H249 C278 0.950 . S
H250 C280 0.950 . S
H251 C281 0.950 . S
C252 H234 0.951 . S
C252 C253 1.366 . S
C252 C254 1.388 . S
C253 C252 1.366 . S
C253 C257 1.385 . S
C254 H235 0.951 . S
C254 C252 1.388 . S
C254 C255 1.366 . S
C255 C254 1.366 . S
C255 C256 1.414 . S
C255 C258 1.499 . S
C256 H236 0.950 . S
C256 C255 1.414 . S
C256 C257 1.374 . S
C257 H237 0.950 . S
C257 C253 1.385 . S
C257 C256 1.374 . S
C258 C255 1.499 . S
C258 C259 1.373 . S
C258 C260 1.389 . S
C259 H238 0.950 . S
C259 C258 1.373 . S
C259 C275 1.377 . S
C260 C258 1.389 . S
C260 C261 1.524 . S
C260 C274 1.377 . S
C261 C260 1.524 . S
C261 C262 1.397 . S
C261 C266 1.363 . S
C262 H239 0.950 . S
C262 C261 1.397 . S
C262 C263 1.334 . S
C263 H240 0.950 . S
C263 C262 1.334 . S
C263 C264 1.287 . S
C264 C263 1.287 . S
C264 C265 1.524 . S
C264 H283 0.913 . S
C265 H241 0.950 . S
C265 C264 1.524 . S
C265 C266 1.415 . S
C266 H242 0.950 . S
C266 C261 1.363 . S
C266 C265 1.415 . S
C267 H243 0.951 . S
C267 C268 1.366 . S
C267 C269 1.388 . S
C268 C267 1.366 . S
C268 C272 1.385 . S
C269 H244 0.951 . S
C269 C267 1.388 . S
C269 C270 1.366 . S
C270 C269 1.366 . S
C270 C271 1.414 . S
C270 C273 1.499 . S
C271 H245 0.950 . S
C271 C270 1.414 . S
C271 C272 1.374 . S
C272 H246 0.950 . S
C272 C268 1.385 . S
C272 C271 1.374 . S
C273 C270 1.499 . S
C273 C274 1.373 . S
C273 C275 1.389 . S
C274 H247 0.950 . S
C274 C260 1.377 . S
C274 C273 1.373 . S
C275 C259 1.377 . S
C275 C273 1.389 . S
C275 C276 1.524 . S
C276 C275 1.524 . S
C276 C277 1.397 . S
C276 C281 1.363 . S
C277 H248 0.950 . S
C277 C276 1.397 . S
C277 C278 1.334 . S
C278 H249 0.950 . S
C278 C277 1.334 . S
C278 C279 1.287 . S
C279 C278 1.287 . S
C279 C280 1.524 . S
C279 H282 0.999 . S
C280 H250 0.950 . S
C280 C279 1.524 . S
C280 C281 1.415 . S
C281 H251 0.950 . S
C281 C276 1.363 . S
C281 C280 1.415 . S
H282 C279 0.999 . S
H283 C264 0.913 . S
H284 C302 0.951 . S
H285 C304 0.951 . S
H286 C306 0.950 . S
H287 C307 0.950 . S
H288 C309 0.950 . S
H289 C312 0.950 . S
H290 C313 0.950 . S
H291 C315 0.950 . S
H292 C316 0.950 . S
H293 C317 0.951 . S
H294 C319 0.951 . S
H295 C321 0.950 . S
H296 C322 0.950 . S
H297 C324 0.950 . S
H298 C327 0.950 . S
H299 C328 0.950 . S
H300 C330 0.950 . S
H301 C331 0.950 . S
C302 H284 0.951 . S
C302 C303 1.366 . S
C302 C304 1.388 . S
C303 C302 1.366 . S
C303 C307 1.385 . S
C304 H285 0.951 . S
C304 C302 1.388 . S
C304 C305 1.366 . S
C305 C304 1.366 . S
C305 C306 1.414 . S
C305 C308 1.499 . S
C306 H286 0.950 . S
C306 C305 1.414 . S
C306 C307 1.374 . S
C307 H287 0.950 . S
C307 C303 1.385 . S
C307 C306 1.374 . S
C308 C305 1.499 . S
C308 C309 1.373 . S
C308 C310 1.389 . S
C309 H288 0.950 . S
C309 C308 1.373 . S
C309 C325 1.377 1_455 S
C310 C308 1.389 . S
C310 C311 1.524 . S
C310 C324 1.377 . S
C311 C310 1.524 . S
C311 C312 1.397 . S
C311 C316 1.363 . S
C312 H289 0.950 . S
C312 C311 1.397 . S
C312 C313 1.334 . S
C313 H290 0.950 . S
C313 C312 1.334 . S
C313 C314 1.287 . S
C314 C313 1.287 . S
C314 C315 1.524 . S
C314 H333 0.913 . S
C315 H291 0.950 . S
C315 C314 1.524 . S
C315 C316 1.415 . S
C316 H292 0.950 . S
C316 C311 1.363 . S
C316 C315 1.415 . S
C317 H293 0.951 . S
C317 C318 1.366 . S
C317 C319 1.388 . S
C318 C317 1.366 . S
C318 C322 1.385 . S
C319 H294 0.951 . S
C319 C317 1.388 . S
C319 C320 1.366 . S
C320 C319 1.366 . S
C320 C321 1.414 1_655 S
C320 C323 1.499 1_655 S
C321 H295 0.950 . S
C321 C320 1.414 1_455 S
C321 C322 1.374 1_455 S
C322 H296 0.950 . S
C322 C318 1.385 . S
C322 C321 1.374 1_655 S
C323 C320 1.499 1_455 S
C323 C324 1.373 . S
C323 C325 1.389 1_455 S
C324 H297 0.950 . S
C324 C310 1.377 . S
C324 C323 1.373 . S
C325 C309 1.377 1_655 S
C325 C323 1.389 1_655 S
C325 C326 1.524 . S
C326 C325 1.524 . S
C326 C327 1.397 . S
C326 C331 1.363 . S
C327 H298 0.950 . S
C327 C326 1.397 . S
C327 C328 1.334 . S
C328 H299 0.950 . S
C328 C327 1.334 . S
C328 C329 1.287 . S
C329 C328 1.287 . S
C329 C330 1.524 . S
C329 H332 0.999 . S
C330 H300 0.950 . S
C330 C329 1.524 . S
C330 C331 1.415 . S
C331 H301 0.950 . S
C331 C326 1.363 . S
C331 C330 1.415 . S
H332 C329 0.999 . S
H333 C314 0.913 . S
H334 C352 0.951 . S
H335 C354 0.951 . S
H336 C356 0.950 . S
H337 C357 0.950 . S
H338 C359 0.950 . S
H339 C362 0.950 . S
H340 C363 0.950 . S
H341 C365 0.950 . S
H342 C366 0.950 . S
H343 C367 0.951 . S
H344 C369 0.951 1_545 S
H345 C371 0.950 . S
H346 C372 0.950 . S
H347 C374 0.950 . S
H348 C377 0.950 . S
H349 C378 0.950 . S
H350 C380 0.950 . S
H351 C381 0.950 . S
C352 H334 0.951 . S
C352 C353 1.366 . S
C352 C354 1.388 . S
C353 C352 1.366 . S
C353 C357 1.385 . S
C354 H335 0.951 . S
C354 C352 1.388 . S
C354 C355 1.366 . S
C355 C354 1.366 . S
C355 C356 1.414 . S
C355 C358 1.499 . S
C356 H336 0.950 . S
C356 C355 1.414 . S
C356 C357 1.374 . S
C357 H337 0.950 . S
C357 C353 1.385 . S
C357 C356 1.374 . S
C358 C355 1.499 . S
C358 C359 1.373 . S
C358 C360 1.389 . S
C359 H338 0.950 . S
C359 C358 1.373 . S
C359 C375 1.377 . S
C360 C358 1.389 . S
C360 C361 1.524 1_545 S
C360 C374 1.377 1_545 S
C361 C360 1.524 1_565 S
C361 C362 1.397 . S
C361 C366 1.363 . S
C362 H339 0.950 . S
C362 C361 1.397 . S
C362 C363 1.334 . S
C363 H340 0.950 . S
C363 C362 1.334 . S
C363 C364 1.287 . S
C364 C363 1.287 . S
C364 C365 1.524 . S
C364 H383 0.913 . S
C365 H341 0.950 . S
C365 C364 1.524 . S
C365 C366 1.415 . S
C366 H342 0.950 . S
C366 C361 1.363 . S
C366 C365 1.415 . S
C367 H343 0.951 . S
C367 C368 1.366 . S
C367 C369 1.388 . S
C368 C367 1.366 . S
C368 C372 1.385 . S
C369 H344 0.951 1_565 S
C369 C367 1.388 . S
C369 C370 1.366 . S
C370 C369 1.366 . S
C370 C371 1.414 . S
C370 C373 1.499 1_565 S
C371 H345 0.950 . S
C371 C370 1.414 . S
C371 C372 1.374 . S
C372 H346 0.950 . S
C372 C368 1.385 . S
C372 C371 1.374 . S
C373 C370 1.499 1_545 S
C373 C374 1.373 1_545 S
C373 C375 1.389 . S
C374 H347 0.950 . S
C374 C360 1.377 1_565 S
C374 C373 1.373 1_565 S
C375 C359 1.377 . S
C375 C373 1.389 . S
C375 C376 1.524 . S
C376 C375 1.524 . S
C376 C377 1.397 . S
C376 C381 1.363 . S
C377 H348 0.950 . S
C377 C376 1.397 . S
C377 C378 1.334 . S
C378 H349 0.950 . S
C378 C377 1.334 . S
C378 C379 1.287 . S
C379 C378 1.287 . S
C379 C380 1.524 . S
C379 H382 0.999 . S
C380 H350 0.950 . S
C380 C379 1.524 . S
C380 C381 1.415 . S
C381 H351 0.950 . S
C381 C376 1.363 . S
C381 C380 1.415 . S
H382 C379 0.999 . S
H383 C364 0.913 . S
H384 C402 0.951 . S
H385 C404 0.951 . S
H386 C406 0.950 . S
H387 C407 0.950 . S
H388 C409 0.950 . S
H389 C412 0.950 . S
H390 C413 0.950 . S
H391 C415 0.950 . S
H392 C416 0.950 . S
H393 C417 0.951 . S
H394 C419 0.951 . S
H395 C421 0.950 . S
H396 C422 0.950 . S
H397 C424 0.950 . S
H398 C427 0.950 . S
H399 C428 0.950 . S
H400 C430 0.950 . S
H401 C431 0.950 . S
C402 H384 0.951 . S
C402 C403 1.366 . S
C402 C404 1.388 . S
C403 C402 1.366 . S
C403 C407 1.385 . S
C404 H385 0.951 . S
C404 C402 1.388 . S
C404 C405 1.366 . S
C405 C404 1.366 . S
C405 C406 1.414 . S
C405 C408 1.499 . S
C406 H386 0.950 . S
C406 C405 1.414 . S
C406 C407 1.374 . S
C407 H387 0.950 . S
C407 C403 1.385 . S
C407 C406 1.374 . S
C408 C405 1.499 . S
C408 C409 1.373 1_554 S
C408 C410 1.389 . S
C409 H388 0.950 . S
C409 C408 1.373 1_556 S
C409 C425 1.377 . S
C410 C408 1.389 . S
C410 C411 1.524 . S
C410 C424 1.377 . S
C411 C410 1.524 . S
C411 C412 1.397 . S
C411 C416 1.363 . S
C412 H389 0.950 . S
C412 C411 1.397 . S
C412 C413 1.334 . S
C413 H390 0.950 . S
C413 C412 1.334 . S
C413 C414 1.287 . S
C414 C413 1.287 . S
C414 C415 1.524 . S
C414 H433 0.913 . S
C415 H391 0.950 . S
C415 C414 1.524 . S
C415 C416 1.415 . S
C416 H392 0.950 . S
C416 C411 1.363 . S
C416 C415 1.415 . S
C417 H393 0.951 . S
C417 C418 1.366 . S
C417 C419 1.388 . S
C418 C417 1.366 . S
C418 C422 1.385 . S
C419 H394 0.951 . S
C419 C417 1.388 . S
C419 C420 1.366 . S
C420 C419 1.366 . S
C420 C421 1.414 . S
C420 C423 1.499 . S
C421 H395 0.950 . S
C421 C420 1.414 . S
C421 C422 1.374 . S
C422 H396 0.950 . S
C422 C418 1.385 . S
C422 C421 1.374 . S
C423 C420 1.499 . S
C423 C424 1.373 . S
C423 C425 1.389 1_554 S
C424 H397 0.950 . S
C424 C410 1.377 . S
C424 C423 1.373 . S
C425 C409 1.377 . S
C425 C423 1.389 1_556 S
C425 C426 1.524 . S
C426 C425 1.524 . S
C426 C427 1.397 . S
C426 C431 1.363 . S
C427 H398 0.950 . S
C427 C426 1.397 . S
C427 C428 1.334 . S
C428 H399 0.950 . S
C428 C427 1.334 . S
C428 C429 1.287 . S
C429 C428 1.287 . S
C429 C430 1.524 . S
C429 H432 0.999 . S
C430 H400 0.950 . S
C430 C429 1.524 . S
C430 C431 1.415 . S
C431 H401 0.950 . S
C431 C426 1.363 . S
C431 C430 1.415 . S
H432 C429 0.999 . S
H433 C414 0.913 . S
H434 C452 0.951 . S
H435 C454 0.951 . S
H436 C456 0.950 1_455 S
H437 C457 0.950 . S
H438 C459 0.950 . S
H439 C462 0.950 . S
H440 C463 0.950 . S
H441 C465 0.950 . S
H442 C466 0.950 . S
H443 C467 0.951 . S
H444 C469 0.951 . S
H445 C471 0.950 1_655 S
H446 C472 0.950 . S
H447 C474 0.950 . S
H448 C477 0.950 . S
H449 C478 0.950 . S
H450 C480 0.950 . S
H451 C481 0.950 . S
C452 H434 0.951 . S
C452 C453 1.366 . S
C452 C454 1.388 . S
C453 C452 1.366 . S
C453 C457 1.385 . S
C454 H435 0.951 . S
C454 C452 1.388 . S
C454 C455 1.366 . S
C455 C454 1.366 . S
C455 C456 1.414 . S
C455 C458 1.499 . S
C456 H436 0.950 1_655 S
C456 C455 1.414 . S
C456 C457 1.374 . S
C457 H437 0.950 . S
C457 C453 1.385 . S
C457 C456 1.374 . S
C458 C455 1.499 . S
C458 C459 1.373 1_655 S
C458 C460 1.389 . S
C459 H438 0.950 . S
C459 C458 1.373 1_455 S
C459 C475 1.377 . S
C460 C458 1.389 . S
C460 C461 1.524 . S
C460 C474 1.377 . S
C461 C460 1.524 . S
C461 C462 1.397 . S
C461 C466 1.363 . S
C462 H439 0.950 . S
C462 C461 1.397 . S
C462 C463 1.334 . S
C463 H440 0.950 . S
C463 C462 1.334 . S
C463 C464 1.287 . S
C464 C463 1.287 . S
C464 C465 1.524 . S
C464 H483 0.913 . S
C465 H441 0.950 . S
C465 C464 1.524 . S
C465 C466 1.415 . S
C466 H442 0.950 . S
C466 C461 1.363 . S
C466 C465 1.415 . S
C467 H443 0.951 . S
C467 C468 1.366 . S
C467 C469 1.388 . S
C468 C467 1.366 . S
C468 C472 1.385 . S
C469 H444 0.951 . S
C469 C467 1.388 . S
C469 C470 1.366 . S
C470 C469 1.366 . S
C470 C471 1.414 . S
C470 C473 1.499 . S
C471 H445 0.950 1_455 S
C471 C470 1.414 . S
C471 C472 1.374 . S
C472 H446 0.950 . S
C472 C468 1.385 . S
C472 C471 1.374 . S
C473 C470 1.499 . S
C473 C474 1.373 1_455 S
C473 C475 1.389 . S
C474 H447 0.950 . S
C474 C460 1.377 . S
C474 C473 1.373 1_655 S
C475 C459 1.377 . S
C475 C473 1.389 . S
C475 C476 1.524 . S
C476 C475 1.524 . S
C476 C477 1.397 . S
C476 C481 1.363 . S
C477 H448 0.950 . S
C477 C476 1.397 . S
C477 C478 1.334 . S
C478 H449 0.950 . S
C478 C477 1.334 . S
C478 C479 1.287 . S
C479 C478 1.287 . S
C479 C480 1.524 . S
C479 H482 0.999 . S
C480 H450 0.950 . S
C480 C479 1.524 . S
C480 C481 1.415 . S
C481 H451 0.950 . S
C481 C476 1.363 . S
C481 C480 1.415 . S
H482 C479 0.999 . S
H483 C464 0.913 . S
H484 C502 0.951 . S
H485 C504 0.951 . S
H486 C506 0.950 . S
H487 C507 0.950 . S
H488 C509 0.950 . S
H489 C512 0.950 . S
H490 C513 0.950 . S
H491 C515 0.950 . S
H492 C516 0.950 . S
H493 C517 0.951 . S
H494 C519 0.951 . S
H495 C521 0.950 . S
H496 C522 0.950 . S
H497 C524 0.950 . S
H498 C527 0.950 . S
H499 C528 0.950 . S
H500 C530 0.950 . S
H501 C531 0.950 . S
C502 H484 0.951 . S
C502 C503 1.366 . S
C502 C504 1.388 . S
C503 C502 1.366 . S
C503 C507 1.385 . S
C504 H485 0.951 . S
C504 C502 1.388 . S
C504 C505 1.366 . S
C505 C504 1.366 . S
C505 C506 1.414 . S
C505 C508 1.499 . S
C506 H486 0.950 . S
C506 C505 1.414 . S
C506 C507 1.374 . S
C507 H487 0.950 . S
C507 C503 1.385 . S
C507 C506 1.374 . S
C508 C505 1.499 . S
C508 C509 1.373 1_545 S
C508 C510 1.389 . S
C509 H488 0.950 . S
C509 C508 1.373 1_565 S
C509 C525 1.377 . S
C510 C508 1.389 . S
C510 C511 1.524 . S
C510 C524 1.377 . S
C511 C510 1.524 . S
C511 C512 1.397 . S
C511 C516 1.363 . S
C512 H489 0.950 . S
C512 C511 1.397 . S
C512 C513 1.334 . S
C513 H490 0.950 . S
C513 C512 1.334 . S
C513 C514 1.287 . S
C514 C513 1.287 . S
C514 C515 1.524 . S
C514 H533 0.913 . S
C515 H491 0.950 . S
C515 C514 1.524 . S
C515 C516 1.415 . S
C516 H492 0.950 . S
C516 C511 1.363 . S
C516 C515 1.415 . S
C517 H493 0.951 . S
C517 C518 1.366 . S
C517 C519 1.388 . S
C518 C517 1.366 . S
C518 C522 1.385 . S
C519 H494 0.951 . S
C519 C517 1.388 . S
C519 C520 1.366 . S
C520 C519 1.366 . S
C520 C521 1.414 . S
C520 C523 1.499 . S
C521 H495 0.950 . S
C521 C520 1.414 . S
C521 C522 1.374 . S
C522 H496 0.950 . S
C522 C518 1.385 . S
C522 C521 1.374 . S
C523 C520 1.499 . S
C523 C524 1.373 1_565 S
C523 C525 1.389 . S
C524 H497 0.950 . S
C524 C510 1.377 . S
C524 C523 1.373 1_545 S
C525 C509 1.377 . S
C525 C523 1.389 . S
C525 C526 1.524 . S
C526 C525 1.524 . S
C526 C527 1.397 . S
C526 C531 1.363 . S
C527 H498 0.950 . S
C527 C526 1.397 . S
C527 C528 1.334 . S
C528 H499 0.950 . S
C528 C527 1.334 . S
C528 C529 1.287 . S
C529 C528 1.287 . S
C529 C530 1.524 . S
C529 H532 0.999 . S
C530 H500 0.950 . S
C530 C529 1.524 . S
C530 C531 1.415 . S
C531 H501 0.950 . S
C531 C526 1.363 . S
C531 C530 1.415 . S
H532 C529 0.999 . S
H533 C514 0.913 . S
H534 C552 0.951 . S
H535 C554 0.951 . S
H536 C556 0.950 . S
H537 C557 0.950 . S
H538 C559 0.950 . S
H539 C562 0.950 . S
H540 C563 0.950 . S
H541 C565 0.950 . S
H542 C566 0.950 . S
H543 C567 0.951 . S
H544 C569 0.951 . S
H545 C571 0.950 . S
H546 C572 0.950 . S
H547 C574 0.950 . S
H548 C577 0.950 . S
H549 C578 0.950 . S
H550 C580 0.950 . S
H551 C581 0.950 . S
C552 H534 0.951 . S
C552 C553 1.366 . S
C552 C554 1.388 . S
C553 C552 1.366 . S
C553 C557 1.385 . S
C554 H535 0.951 . S
C554 C552 1.388 . S
C554 C555 1.366 . S
C555 C554 1.366 . S
C555 C556 1.414 . S
C555 C558 1.499 . S
C556 H536 0.950 . S
C556 C555 1.414 . S
C556 C557 1.374 . S
C557 H537 0.950 . S
C557 C553 1.385 . S
C557 C556 1.374 . S
C558 C555 1.499 . S
C558 C559 1.373 . S
C558 C560 1.389 . S
C559 H538 0.950 . S
C559 C558 1.373 . S
C559 C575 1.377 . S
C560 C558 1.389 . S
C560 C561 1.524 . S
C560 C574 1.377 . S
C561 C560 1.524 . S
C561 C562 1.397 . S
C561 C566 1.363 . S
C562 H539 0.950 . S
C562 C561 1.397 . S
C562 C563 1.334 . S
C563 H540 0.950 . S
C563 C562 1.334 . S
C563 C564 1.287 . S
C564 C563 1.287 . S
C564 C565 1.524 . S
C564 H583 0.913 . S
C565 H541 0.950 . S
C565 C564 1.524 . S
C565 C566 1.415 . S
C566 H542 0.950 . S
C566 C561 1.363 . S
C566 C565 1.415 . S
C567 H543 0.951 . S
C567 C568 1.366 . S
C567 C569 1.388 . S
C568 C567 1.366 . S
C568 C572 1.385 . S
C569 H544 0.951 . S
C569 C567 1.388 . S
C569 C570 1.366 . S
C570 C569 1.366 . S
C570 C571 1.414 . S
C570 C573 1.499 . S
C571 H545 0.950 . S
C571 C570 1.414 . S
C571 C572 1.374 . S
C572 H546 0.950 . S
C572 C568 1.385 . S
C572 C571 1.374 . S
C573 C570 1.499 . S
C573 C574 1.373 . S
C573 C575 1.389 . S
C574 H547 0.950 . S
C574 C560 1.377 . S
C574 C573 1.373 . S
C575 C559 1.377 . S
C575 C573 1.389 . S
C575 C576 1.524 . S
C576 C575 1.524 . S
C576 C577 1.397 . S
C576 C581 1.363 . S
C577 H548 0.950 . S
C577 C576 1.397 . S
C577 C578 1.334 . S
C578 H549 0.950 . S
C578 C577 1.334 . S
C578 C579 1.287 . S
C579 C578 1.287 . S
C579 C580 1.524 . S
C579 H582 0.999 . S
C580 H550 0.950 . S
C580 C579 1.524 . S
C580 C581 1.415 . S
C581 H551 0.950 . S
C581 C576 1.363 . S
C581 C580 1.415 . S
H582 C579 0.999 . S
H583 C564 0.913 . S
H584 C602 0.951 . S
H585 C604 0.951 . S
H586 C606 0.952 . S
H587 C607 0.956 1_455 S
H588 C609 0.950 . S
H589 C612 0.950 . S
H590 C613 0.950 . S
H591 C615 0.950 . S
H592 C616 0.950 . S
H593 C617 0.961 . S
H594 C619 0.951 . S
H595 C621 0.950 . S
H596 C622 0.950 1_655 S
H597 C624 0.948 1_554 S
H598 C627 0.950 . S
H599 C628 0.950 . S
H600 C630 0.950 . S
H601 C631 0.950 . S
C602 H584 0.951 . S
C602 C603 1.366 . S
C602 C604 1.388 . S
C603 C602 1.366 . S
C603 C607 1.385 . S
C604 H585 0.951 . S
C604 C602 1.388 . S
C604 C605 1.366 . S
C605 C604 1.366 . S
C605 C606 1.414 1_655 S
C605 C608 1.499 . S
C606 H586 0.952 . S
C606 C605 1.414 1_455 S
C606 C607 1.374 1_455 S
C607 H587 0.956 1_655 S
C607 C603 1.385 . S
C607 C606 1.374 1_655 S
C608 C605 1.499 . S
C608 C609 1.373 1_655 S
C608 C610 1.389 1_556 S
C609 H588 0.950 . S
C609 C608 1.373 1_455 S
C609 C625 1.377 . S
C610 C608 1.389 1_554 S
C610 C611 1.524 . S
C610 C624 1.376 1_554 S
C611 C610 1.524 . S
C611 C612 1.397 . S
C611 C616 1.363 . S
C612 H589 0.950 . S
C612 C611 1.397 . S
C612 C613 1.334 . S
C613 H590 0.950 . S
C613 C612 1.334 . S
C613 C614 1.287 . S
C614 C613 1.287 . S
C614 C615 1.524 . S
C614 H633 0.913 . S
C615 H591 0.950 . S
C615 C614 1.524 . S
C615 C616 1.415 . S
C616 H592 0.950 . S
C616 C611 1.363 . S
C616 C615 1.415 . S
C617 H593 0.961 . S
C617 C618 1.366 . S
C617 C619 1.388 . S
C618 C617 1.366 . S
C618 C622 1.385 . S
C619 H594 0.951 . S
C619 C617 1.388 . S
C619 C620 1.366 . S
C620 C619 1.366 . S
C620 C621 1.414 1_455 S
C620 C623 1.499 . S
C621 H595 0.950 . S
C621 C620 1.414 1_655 S
C621 C622 1.374 1_655 S
C622 H596 0.950 1_455 S
C622 C618 1.385 . S
C622 C621 1.374 1_455 S
C623 C620 1.499 . S
C623 C624 1.376 1_455 S
C623 C625 1.389 . S
C624 H597 0.948 1_556 S
C624 C610 1.376 1_556 S
C624 C623 1.376 1_655 S
C625 C609 1.377 . S
C625 C623 1.389 . S
C625 C626 1.524 . S
C626 C625 1.524 . S
C626 C627 1.397 . S
C626 C631 1.363 . S
C627 H598 0.950 . S
C627 C626 1.397 . S
C627 C628 1.334 . S
C628 H599 0.950 . S
C628 C627 1.334 . S
C628 C629 1.287 . S
C629 C628 1.287 . S
C629 C630 1.524 . S
C629 H632 0.999 . S
C630 H600 0.950 . S
C630 C629 1.524 . S
C630 C631 1.415 . S
C631 H601 0.950 . S
C631 C626 1.363 . S
C631 C630 1.415 . S
H632 C629 0.999 . S
H633 C614 0.913 . S
H634 C652 0.951 . S
H635 C654 0.951 . S
H636 C656 0.950 . S
H637 C657 0.950 1_565 S
H638 C659 0.950 . S
H639 C662 0.950 . S
H640 C663 0.950 . S
H641 C665 0.950 . S
H642 C666 0.950 . S
H643 C667 0.951 . S
H644 C669 0.951 . S
H645 C671 0.950 . S
H646 C672 0.950 1_545 S
H647 C674 0.950 . S
H648 C677 0.950 . S
H649 C678 0.950 . S
H650 C680 0.950 . S
H651 C681 0.950 . S
C652 H634 0.951 . S
C652 C653 1.366 . S
C652 C654 1.388 . S
C653 C652 1.366 . S
C653 C657 1.385 . S
C654 H635 0.951 . S
C654 C652 1.388 . S
C654 C655 1.366 . S
C655 C654 1.366 . S
C655 C656 1.414 1_545 S
C655 C658 1.499 . S
C656 H636 0.950 . S
C656 C655 1.414 1_565 S
C656 C657 1.374 1_565 S
C657 H637 0.950 1_545 S
C657 C653 1.385 . S
C657 C656 1.374 1_545 S
C658 C655 1.499 . S
C658 C659 1.373 1_545 S
C658 C660 1.389 . S
C659 H638 0.950 . S
C659 C658 1.373 1_565 S
C659 C675 1.377 . S
C660 C658 1.389 . S
C660 C661 1.524 . S
C660 C674 1.377 . S
C661 C660 1.524 . S
C661 C662 1.397 . S
C661 C666 1.363 . S
C662 H639 0.950 . S
C662 C661 1.397 . S
C662 C663 1.334 . S
C663 H640 0.950 . S
C663 C662 1.334 . S
C663 C664 1.287 . S
C664 C663 1.287 . S
C664 C665 1.524 . S
C664 H683 0.913 . S
C665 H641 0.950 . S
C665 C664 1.524 . S
C665 C666 1.415 . S
C666 H642 0.950 . S
C666 C661 1.363 . S
C666 C665 1.415 . S
C667 H643 0.951 . S
C667 C668 1.366 . S
C667 C669 1.388 . S
C668 C667 1.366 . S
C668 C672 1.385 . S
C669 H644 0.951 . S
C669 C667 1.388 . S
C669 C670 1.366 . S
C670 C669 1.366 . S
C670 C671 1.414 1_565 S
C670 C673 1.499 . S
C671 H645 0.950 . S
C671 C670 1.414 1_545 S
C671 C672 1.374 1_545 S
C672 H646 0.950 1_565 S
C672 C668 1.385 . S
C672 C671 1.374 1_565 S
C673 C670 1.499 . S
C673 C674 1.373 1_565 S
C673 C675 1.389 . S
C674 H647 0.950 . S
C674 C660 1.377 . S
C674 C673 1.373 1_545 S
C675 C659 1.377 . S
C675 C673 1.389 . S
C675 C676 1.524 . S
C676 C675 1.524 . S
C676 C677 1.397 . S
C676 C681 1.363 . S
C677 H648 0.950 . S
C677 C676 1.397 . S
C677 C678 1.334 . S
C678 H649 0.950 . S
C678 C677 1.334 . S
C678 C679 1.287 . S
C679 C678 1.287 . S
C679 C680 1.524 . S
C679 H682 0.999 . S
C680 H650 0.950 . S
C680 C679 1.524 . S
C680 C681 1.415 . S
C681 H651 0.950 . S
C681 C676 1.363 . S
C681 C680 1.415 . S
H682 C679 0.999 . S
H683 C664 0.913 . S
C103 C76 1.283 . S
C118 C8 1.237 . S
C153 C22 1.236 . S
C168 C7 1.284 . S
C203 C21 1.284 . S
C218 C37 1.236 . S
C253 C50 1.237 . S
C268 C34 1.284 . S
C303 C64 1.236 . S
C318 C49 1.283 . S
C353 C79 1.237 . S
C368 C63 1.284 . S
C403 C6 1.292 . S
C418 C48 1.293 . S
C453 C20 1.293 . S
C468 C62 1.293 . S
C503 C77 1.293 . S
C518 C35 1.294 . S
C553 C78 1.372 . S
C568 C36 1.371 . S
C603 C51 1.372 . S
C618 C9 1.371 . S
C653 C23 1.372 . S
C668 C65 1.371 . S
