# Generated by pormake.
# Topology vmo, (7)-cn, num edge types: 1
# Building blocks:
#     Node 0, Type 0, BuildingBlock: NUHQUE_clean_sbu_2, # of connection points: 7
#     Node 1, Type 0, BuildingBlock: NUHQUE_clean_sbu_2, # of connection points: 7
#     Node 2, Type 0, BuildingBlock: NUHQUE_clean_sbu_2, # of connection points: 7
#     Node 3, Type 0, BuildingBlock: NUHQUE_clean_sbu_2, # of connection points: 7
#     Node 4, Type 0, BuildingBlock: NUHQUE_clean_sbu_2, # of connection points: 7
#     Node 5, Type 0, BuildingBlock: NUHQUE_clean_sbu_2, # of connection points: 7
#     Node 6, Type 0, BuildingBlock: NUHQUE_clean_sbu_2, # of connection points: 7
#     Node 7, Type 0, BuildingBlock: NUHQUE_clean_sbu_2, # of connection points: 7
#     Edge 8, Type (0, 0), BuildingBlock: AJUNOK_clean_linker_0, # of connection points: 2
#     Edge 9, Type (0, 0), BuildingBlock: AJUNOK_clean_linker_0, # of connection points: 2
#     Edge 10, Type (0, 0), BuildingBlock: AJUNOK_clean_linker_0, # of connection points: 2
#     Edge 11, Type (0, 0), BuildingBlock: AJUNOK_clean_linker_0, # of connection points: 2
#     Edge 12, Type (0, 0), BuildingBlock: AJUNOK_clean_linker_0, # of connection points: 2
#     Edge 13, Type (0, 0), BuildingBlock: AJUNOK_clean_linker_0, # of connection points: 2
#     Edge 14, Type (0, 0), BuildingBlock: AJUNOK_clean_linker_0, # of connection points: 2
#     Edge 15, Type (0, 0), BuildingBlock: AJUNOK_clean_linker_0, # of connection points: 2
#     Edge 16, Type (0, 0), BuildingBlock: AJUNOK_clean_linker_0, # of connection points: 2
#     Edge 17, Type (0, 0), BuildingBlock: AJUNOK_clean_linker_0, # of connection points: 2
#     Edge 18, Type (0, 0), BuildingBlock: AJUNOK_clean_linker_0, # of connection points: 2
#     Edge 19, Type (0, 0), BuildingBlock: AJUNOK_clean_linker_0, # of connection points: 2
#     Edge 20, Type (0, 0), BuildingBlock: AJUNOK_clean_linker_0, # of connection points: 2
#     Edge 21, Type (0, 0), BuildingBlock: AJUNOK_clean_linker_0, # of connection points: 2
#     Edge 22, Type (0, 0), BuildingBlock: AJUNOK_clean_linker_0, # of connection points: 2
#     Edge 23, Type (0, 0), BuildingBlock: AJUNOK_clean_linker_0, # of connection points: 2
#     Edge 24, Type (0, 0), BuildingBlock: AJUNOK_clean_linker_0, # of connection points: 2
#     Edge 25, Type (0, 0), BuildingBlock: AJUNOK_clean_linker_0, # of connection points: 2
#     Edge 26, Type (0, 0), BuildingBlock: AJUNOK_clean_linker_0, # of connection points: 2
#     Edge 27, Type (0, 0), BuildingBlock: AJUNOK_clean_linker_0, # of connection points: 2
#     Edge 28, Type (0, 0), BuildingBlock: AJUNOK_clean_linker_0, # of connection points: 2
#     Edge 29, Type (0, 0), BuildingBlock: AJUNOK_clean_linker_0, # of connection points: 2
#     Edge 30, Type (0, 0), BuildingBlock: AJUNOK_clean_linker_0, # of connection points: 2
#     Edge 31, Type (0, 0), BuildingBlock: AJUNOK_clean_linker_0, # of connection points: 2
#     Edge 32, Type (0, 0), BuildingBlock: AJUNOK_clean_linker_0, # of connection points: 2
#     Edge 33, Type (0, 0), BuildingBlock: AJUNOK_clean_linker_0, # of connection points: 2
#     Edge 34, Type (0, 0), BuildingBlock: AJUNOK_clean_linker_0, # of connection points: 2
#     Edge 35, Type (0, 0), BuildingBlock: AJUNOK_clean_linker_0, # of connection points: 2
# Relax obj value: 0.257
# Max RMSD: 0.267
# Mean RMSD: 0.267
data_MOF--net-vmo--node1-NUHQUE_clean_sbu_2--edge1-AJUNOK_clean_linker_0
_symmetry_space_group_name_H-M    P1
_symmetry_Int_Tables_number       1
_symmetry_cell_setting            triclinic
loop_
_symmetry_equiv_pos_as_xyz
'x, y, z'
_cell_length_a     24.556972
_cell_length_b     47.326314
_cell_length_c     20.068627
_cell_angle_alpha  90.335312
_cell_angle_beta   111.30904
_cell_angle_gamma 89.776948
loop_
_atom_site_label
_atom_site_type_symbol
_atom_site_fract_x
_atom_site_fract_y
_atom_site_fract_z
_atom_type_partial_charge
O0 O 0.31216 0.47133 0.38013 0.0
Tb1 Tb 0.27101 0.45609 0.27043 0.0
Eu2 Eu 0.25057 0.39847 0.08828 0.0
C3 C 0.28155 0.47458 0.42158 0.0
O4 O 0.22717 0.46579 0.39871 0.0
C5 C 0.20274 0.4007 0.21202 0.0
O6 O 0.20451 0.3896 0.96882 0.0
C7 C 0.35196 0.37484 0.1526 0.0
C8 C 0.16125 0.40674 0.93315 0.0
O9 O 0.14674 0.4265 0.96993 0.0
C10 C 0.30405 0.45862 0.13845 0.0
C11 C 0.39101 0.3523 0.14541 0.0
C12 C 0.45157 0.35381 0.1848 0.0
C13 C 0.48948 0.33176 0.18122 0.0
C14 C 0.46452 0.30814 0.13778 0.0
C15 C 0.4038 0.30539 0.10378 0.0
C16 C 0.36747 0.32799 0.10542 0.0
O17 O 0.25576 0.4113 0.24416 0.0
O18 O 0.1889 0.39094 0.14635 0.0
O19 O 0.23162 0.49224 0.20485 0.0
O20 O 0.17693 0.46303 0.23024 0.0
C21 C 0.17794 0.48548 0.19355 0.0
O22 O 0.25397 0.44514 0.11195 0.0
O23 O 0.32587 0.46359 0.20802 0.0
O24 O 0.3034 0.36652 0.15994 0.0
O25 O 0.34466 0.39704 0.11106 0.0
H26 H 0.46809 0.37163 0.22033 0.0
H27 H 0.49204 0.29112 0.13187 0.0
H28 H 0.32052 0.32609 0.07866 0.0
O29 O 0.87894 0.46832 0.24229 0.0
Tb30 Tb 0.92261 0.44226 0.33538 0.0
Eu31 Eu 0.96968 0.39085 0.46057 0.0
C32 C 0.86793 0.46021 0.17595 0.0
O33 O 0.87682 0.43371 0.16279 0.0
C34 C 1.02037 0.40162 0.33641 0.0
O35 O 1.01966 0.3822 0.5796 0.0
C36 C 0.8913 0.35354 0.39439 0.0
C37 C 1.04632 0.40401 0.61953 0.0
O38 O 1.04562 0.42807 0.58713 0.0
C39 C 0.88091 0.44125 0.46126 0.0
C40 C 0.84327 0.33685 0.40299 0.0
C41 C 0.7842 0.34167 0.35961 0.0
C42 C 0.73913 0.32439 0.36546 0.0
C43 C 0.75521 0.30174 0.41448 0.0
C44 C 0.81401 0.29567 0.45365 0.0
C45 C 0.85725 0.31381 0.44958 0.0
O46 O 0.96681 0.40965 0.29603 0.0
O47 O 1.03434 0.3978 0.40572 0.0
O48 O 0.99798 0.44566 0.43273 0.0
O49 O 0.97165 0.48163 0.36545 0.0
C50 C 1.00949 0.47163 0.42417 0.0
O51 O 0.92808 0.4269 0.4981 0.0
O52 O 0.8609 0.44147 0.39058 0.0
O53 O 0.94495 0.34719 0.4371 0.0
O54 O 0.88291 0.38083 0.38256 0.0
H55 H 0.77417 0.35807 0.3196 0.0
H56 H 0.72228 0.28785 0.42013 0.0
H57 H 0.90251 0.30905 0.48121 0.0
O58 O 0.87222 0.51613 0.7291 0.0
Tb59 Tb 0.90894 0.53764 0.83244 0.0
Eu60 Eu 0.93353 0.59746 1.00564 0.0
C61 C 0.87774 0.52436 0.66931 0.0
O62 O 0.90281 0.54864 0.6677 0.0
C63 C 0.98037 0.59276 0.87792 0.0
O64 O 0.98098 0.60729 0.12471 0.0
C65 C 0.83395 0.62258 0.94016 0.0
C66 C 1.02555 0.59082 0.16048 0.0
O67 O 1.0393 0.57061 0.12421 0.0
C68 C 0.87264 0.53909 0.96154 0.0
C69 C 0.79503 0.64467 0.94951 0.0
C70 C 0.735 0.6444 0.90722 0.0
C71 C 0.69719 0.66575 0.91474 0.0
C72 C 0.72166 0.68765 0.96462 0.0
C73 C 0.78206 0.68876 1.004 0.0
C74 C 0.81813 0.66681 0.99773 0.0
O75 O 0.92707 0.58309 0.84178 0.0
O76 O 0.99465 0.60076 0.94524 0.0
O77 O 0.94539 0.50334 0.9061 0.0
O78 O 1.00323 0.53102 0.88239 0.0
C79 C 0.99971 0.50979 0.92149 0.0
O80 O 0.9247 0.55062 0.98852 0.0
O81 O 0.85072 0.53412 0.89203 0.0
O82 O 0.88391 0.63113 0.93702 0.0
O83 O 0.83903 0.59948 0.97797 0.0
H84 H 0.71862 0.62802 0.86708 0.0
H85 H 0.69413 0.70447 0.97154 0.0
H86 H 0.86455 0.66729 1.02933 0.0
O87 O 0.29486 0.52807 0.85499 0.0
Tb88 Tb 0.25894 0.55449 0.7604 0.0
Eu89 Eu 0.21776 0.60814 0.63493 0.0
C90 C 0.30665 0.53759 0.92048 0.0
O91 O 0.30152 0.56476 0.9306 0.0
C92 C 0.16537 0.59759 0.75857 0.0
O93 O 0.16722 0.61661 0.51558 0.0
C94 C 0.29651 0.64568 0.69876 0.0
C95 C 0.14486 0.5947 0.47321 0.0
O96 O 0.15085 0.56958 0.50228 0.0
C97 C 0.30568 0.5561 0.63925 0.0
C98 C 0.34478 0.66175 0.68875 0.0
C99 C 0.40364 0.65736 0.73347 0.0
C100 C 0.44892 0.67428 0.72693 0.0
C101 C 0.43342 0.69617 0.67578 0.0
C102 C 0.37484 0.70128 0.63315 0.0
C103 C 0.33128 0.68374 0.63898 0.0
O104 O 0.21816 0.58867 0.79882 0.0
O105 O 0.15239 0.60238 0.68975 0.0
O106 O 0.20703 0.51639 0.72192 0.0
O107 O 0.18491 0.5542 0.66115 0.0
C108 C 0.17098 0.5282 0.66454 0.0
O109 O 0.26019 0.57129 0.60102 0.0
O110 O 0.32352 0.55541 0.70979 0.0
O111 O 0.24294 0.6519 0.65564 0.0
O112 O 0.3045 0.61851 0.71261 0.0
H113 H 0.41347 0.64159 0.77505 0.0
H114 H 0.46667 0.70973 0.66956 0.0
H115 H 0.28608 0.68844 0.60706 0.0
O116 O 0.76802 0.97596 0.35109 0.0
Tb117 Tb 0.74307 0.94742 0.25911 0.0
Eu118 Eu 0.71354 0.89141 0.14218 0.0
C119 C 0.78878 0.96729 0.41794 0.0
O120 O 0.79747 0.94014 0.43086 0.0
C121 C 0.65619 0.90139 0.2615 0.0
O122 O 0.67243 0.88299 1.02171 0.0
C123 C 0.79114 0.8539 0.20926 0.0
C124 C 0.61566 0.88 0.98637 0.0
O125 O 0.58094 0.87863 1.02292 0.0
C126 C 0.79904 0.94446 0.1486 0.0
C127 C 0.83944 0.83602 0.20456 0.0
C128 C 0.89868 0.84238 0.24362 0.0
C129 C 0.94314 0.82367 0.24233 0.0
C130 C 0.92802 0.79828 0.20341 0.0
C131 C 0.86925 0.79144 0.16609 0.0
C132 C 0.82565 0.81051 0.16615 0.0
O133 O 0.70613 0.91323 0.30133 0.0
O134 O 0.64483 0.89578 0.19316 0.0
O135 O 0.69359 0.98407 0.20329 0.0
O136 O 0.67128 0.94329 0.15742 0.0
C137 C 0.65943 0.96983 0.14866 0.0
O138 O 0.75507 0.92862 0.10891 0.0
O139 O 0.81371 0.94545 0.21875 0.0
O140 O 0.73806 0.84779 0.16457 0.0
O141 O 0.79997 0.88121 0.22124 0.0
H142 H 0.9102 0.86158 0.2753 0.0
H143 H 0.96202 0.78341 0.20441 0.0
H144 H 0.78038 0.80498 0.13686 0.0
O145 O 0.38272 0.96833 0.23847 0.0
Tb146 Tb 0.40877 0.95256 0.34752 0.0
Eu147 Eu 0.42765 0.89848 0.51331 0.0
C148 C 0.42379 0.97116 0.21138 0.0
O149 O 0.47683 0.96265 0.2501 0.0
C150 C 0.47587 0.89688 0.38799 0.0
O151 O 0.46711 0.88425 0.63006 0.0
C152 C 0.32711 0.87553 0.4408 0.0
C153 C 0.51877 0.89362 0.67295 0.0
O154 O 0.5486 0.90978 0.6455 0.0
C155 C 0.36964 0.95861 0.47471 0.0
C156 C 0.28922 0.85201 0.44383 0.0
C157 C 0.22861 0.85374 0.40651 0.0
C158 C 0.19221 0.83087 0.40638 0.0
C159 C 0.21724 0.80616 0.44369 0.0
C160 C 0.27813 0.80402 0.47974 0.0
C161 C 0.3136 0.82724 0.4805 0.0
O162 O 0.42306 0.90703 0.3529 0.0
O163 O 0.49196 0.89286 0.4575 0.0
O164 O 0.50259 0.95519 0.40588 0.0
O165 O 0.44912 0.98948 0.41118 0.0
C166 C 0.50192 0.97964 0.43499 0.0
O167 O 0.41965 0.94588 0.50972 0.0
O168 O 0.34875 0.95883 0.40394 0.0
O169 O 0.37628 0.86853 0.43307 0.0
O170 O 0.33316 0.89634 0.48641 0.0
H171 H 0.20981 0.87278 0.37722 0.0
H172 H 0.18936 0.78845 0.44363 0.0
H173 H 0.36055 0.82575 0.50798 0.0
O174 O 0.36666 0.03795 0.73848 0.0
Tb175 Tb 0.42092 0.05626 0.84085 0.0
Eu176 Eu 0.47008 0.10871 0.98214 0.0
C177 C 0.37598 0.04369 0.67947 0.0
O178 O 0.41297 0.06377 0.6809 0.0
C179 C 0.5101 0.1029 0.84893 0.0
O180 O 0.51643 0.12158 0.09872 0.0
C181 C 0.3743 0.13598 0.9122 0.0
C182 C 0.49737 0.1103 0.14616 0.0
O183 O 0.44668 0.09732 0.12227 0.0
C184 C 0.41224 0.0489 0.98616 0.0
C185 C 0.33024 0.15512 0.92206 0.0
C186 C 0.27078 0.15178 0.87954 0.0
C187 C 0.22826 0.17097 0.88486 0.0
C188 C 0.24738 0.19406 0.93244 0.0
C189 C 0.30695 0.19843 0.97172 0.0
C190 C 0.34784 0.17845 0.96795 0.0
O191 O 0.45544 0.09513 0.81238 0.0
O192 O 0.52891 0.1055 0.91912 0.0
O193 O 0.46522 0.01543 0.84969 0.0
O194 O 0.51026 0.05013 0.91147 0.0
C195 C 0.51444 0.02385 0.8969 0.0
O196 O 0.46018 0.06395 1.01213 0.0
O197 O 0.37805 0.0513 0.91832 0.0
O198 O 0.42704 0.14641 0.92716 0.0
O199 O 0.37461 0.10963 0.93243 0.0
H200 H 0.25863 0.13493 0.84024 0.0
H201 H 0.21628 0.20928 0.93806 0.0
H202 H 0.39395 0.18203 0.99761 0.0
O203 O 0.80429 0.0281 0.89229 0.0
Tb204 Tb 0.75821 0.04323 0.78326 0.0
Eu205 Eu 0.73895 0.10351 0.60134 0.0
C206 C 0.78386 0.03056 0.94437 0.0
O207 O 0.73739 0.0462 0.93473 0.0
C208 C 0.68958 0.09906 0.72182 0.0
O209 O 0.6906 0.11365 0.48363 0.0
C210 C 0.84074 0.12594 0.66759 0.0
C211 C 0.64339 0.09846 0.45057 0.0
O212 O 0.62811 0.07988 0.48892 0.0
C213 C 0.78702 0.04231 0.64741 0.0
C214 C 0.88069 0.1476 0.6604 0.0
C215 C 0.94035 0.14636 0.70328 0.0
C216 C 0.97962 0.16711 0.69773 0.0
C217 C 0.95674 0.18959 0.64963 0.0
C218 C 0.89648 0.19194 0.61076 0.0
C219 C 0.85895 0.17045 0.61462 0.0
O220 O 0.74213 0.08772 0.7536 0.0
O221 O 0.6787 0.11166 0.66016 0.0
O222 O 0.66425 0.0352 0.74063 0.0
O223 O 0.72279 0.00503 0.72547 0.0
C224 C 0.66825 0.01139 0.70966 0.0
O225 O 0.73848 0.05716 0.62576 0.0
O226 O 0.80901 0.03489 0.71547 0.0
O227 O 0.79215 0.13528 0.67354 0.0
O228 O 0.83316 0.10344 0.62636 0.0
H229 H 0.95514 0.12968 0.74243 0.0
H230 H 0.98534 0.20595 0.64373 0.0
H231 H 0.81259 0.17185 0.58316 0.0
C232 C 0.64058 0.30358 0.29487 0.0
C233 C 0.676 0.32778 0.31718 0.0
C234 C 0.58115 0.30541 0.25314 0.0
C235 C 0.55368 0.33142 0.22708 0.0
H236 H 0.65855 0.28263 0.30949 0.0
H237 H 0.55669 0.28586 0.24205 0.0
S238 S 0.62664 0.4016 0.26569 0.0
N239 N 0.67826 0.37912 0.31077 0.0
N240 N 0.56818 0.38225 0.22431 0.0
C241 C 0.58876 0.35594 0.24677 0.0
C242 C 0.6493 0.35417 0.2928 0.0
C243 C 0.54718 0.69502 0.79981 0.0
C244 C 0.51175 0.67089 0.77594 0.0
C245 C 0.60639 0.69296 0.84333 0.0
C246 C 0.6334 0.66671 0.86775 0.0
H247 H 0.5292 0.71598 0.78504 0.0
H248 H 0.63122 0.71238 0.85717 0.0
S249 S 0.5602 0.59675 0.82374 0.0
N250 N 0.50891 0.61953 0.77953 0.0
N251 N 0.61865 0.61584 0.86688 0.0
C252 C 0.5983 0.64231 0.84586 0.0
C253 C 0.53805 0.64436 0.7993 0.0
C254 C 1.02748 0.8272 0.35902 0.0
C255 C 1.00568 0.8294 0.28404 0.0
C256 C 1.08792 0.82827 0.3986 0.0
C257 C 0.12838 0.83206 0.36455 0.0
H258 H 0.9978 0.82349 0.3869 0.0
H259 H 0.10322 0.82567 0.45609 0.0
S260 S 0.0931 0.83964 0.16957 0.0
N261 N 1.02885 0.83586 0.17745 0.0
N262 N 0.14215 0.83857 0.25176 0.0
C263 C 0.10685 0.83517 0.28985 0.0
C264 C 1.04556 0.83362 0.2496 0.0
C265 C 1.07263 0.19257 0.76918 0.0
C266 C 1.04328 0.16682 0.74496 0.0
C267 C 0.13188 0.19349 0.81248 0.0
C268 C 0.16489 0.1687 0.83727 0.0
H269 H 1.04979 0.21254 0.75522 0.0
H270 H 0.15176 0.21413 0.82604 0.0
S271 S 0.10945 0.09534 0.79168 0.0
N272 N 1.05329 0.11554 0.74693 0.0
N273 N 0.1625 0.11724 0.83609 0.0
C274 C 0.13602 0.14263 0.81496 0.0
C275 C 1.07594 0.1417 0.76766 0.0
C276 C 0.31019 0.25113 0.97203 0.0
C277 C 0.32769 0.22556 1.00929 0.0
C278 C 0.33483 0.27693 1.00284 0.0
C279 C 0.37797 0.27799 0.07183 0.0
H280 H 0.27869 0.2511 0.9177 0.0
H281 H 0.321 0.29608 0.97188 0.0
S282 S 0.43397 0.21732 0.19446 0.0
N283 N 0.38731 0.20309 0.12053 0.0
N284 N 0.43349 0.25156 0.17883 0.0
C285 C 0.39431 0.25267 0.11055 0.0
C286 C 0.36921 0.22646 0.0792 0.0
C287 C 0.87417 0.25177 0.47955 0.0
C288 C 0.83181 0.26872 0.4927 0.0
C289 C 0.89436 0.22677 0.51731 0.0
C290 C 0.87243 0.21766 0.56899 0.0
H291 H 0.89209 0.25796 0.43981 0.0
H292 H 0.92737 0.21448 0.50606 0.0
S293 S 0.76181 0.2544 0.62431 0.0
N294 N 0.76903 0.27476 0.56145 0.0
N295 N 0.80654 0.2274 0.63221 0.0
C296 C 0.82943 0.2341 0.58203 0.0
C297 C 0.8091 0.25971 0.54381 0.0
C298 C 0.80797 0.74784 0.14 0.0
C299 C 0.85192 0.76398 0.12872 0.0
C300 C 0.78621 0.72326 0.10034 0.0
C301 C 0.80804 0.7138 1.04849 0.0
H302 H 0.78959 0.75454 0.17912 0.0
H303 H 0.75181 0.71167 0.10991 0.0
S304 S 0.9228 0.74839 0.99812 0.0
N305 N 0.91637 0.76877 0.06195 0.0
N306 N 0.87591 0.72229 0.98767 0.0
C307 C 0.85289 0.72933 1.03775 0.0
C308 C 0.87485 0.75446 0.07793 0.0
C309 C 0.37221 0.75371 0.62223 0.0
C310 C 0.35701 0.72712 0.58929 0.0
C311 C 0.34686 0.77848 0.58617 0.0
C312 C 0.30543 0.77751 0.5159 0.0
H313 H 0.40174 0.75528 0.67743 0.0
H314 H 0.35842 0.79847 0.61432 0.0
S315 S 0.25658 0.7133 0.40326 0.0
N316 N 0.30191 0.70134 0.48081 0.0
N317 N 0.25472 0.74796 0.41247 0.0
C318 C 0.29196 0.75113 0.48129 0.0
C319 C 0.31772 0.72593 0.51807 0.0
C320 C 0.30496 0.48828 0.96455 0.0
C321 C 0.31692 0.51718 0.98015 0.0
C322 C 0.30518 0.46911 1.01764 0.0
C323 C 0.31828 0.47783 0.08888 0.0
H324 H 0.29228 0.48054 0.91013 0.0
H325 H 0.29232 0.44745 1.00205 0.0
S326 S 0.35874 0.55051 0.15982 0.0
N327 N 0.34683 0.55311 0.07365 0.0
N328 N 0.3478 0.51698 0.17344 0.0
C329 C 0.33413 0.50625 0.10639 0.0
C330 C 0.33323 0.52592 1.05202 0.0
C331 C 0.86379 0.47475 0.62256 0.0
C332 C 0.86489 0.50386 0.60882 0.0
C333 C 0.8626 0.45443 0.57099 0.0
C334 C 0.86127 0.46224 0.5029 0.0
H335 H 0.86789 0.46743 0.67522 0.0
H336 H 0.86665 0.43236 0.5862 0.0
S337 S 0.85318 0.53545 0.43523 0.0
N338 N 0.8573 0.53942 0.5188 0.0
N339 N 0.85428 0.50103 0.42149 0.0
C340 C 0.85708 0.49116 0.48607 0.0
C341 C 0.85924 0.512 0.53916 0.0
C342 C 0.83911 0.47355 1.04644 0.0
C343 C 0.85583 0.48184 0.11871 0.0
C344 C 0.83861 0.49293 0.99333 0.0
C345 C 0.85531 0.52124 1.01083 0.0
H346 H 0.82946 0.45161 1.0313 0.0
H347 H 0.82959 0.48514 0.93952 0.0
S348 S 0.89528 0.55474 0.1897 0.0
N349 N 0.88313 0.52135 0.2029 0.0
N350 N 0.88294 0.5573 0.10347 0.0
C351 C 0.86766 0.53025 0.08161 0.0
C352 C 0.8677 0.5107 0.13546 0.0
C353 C 0.29844 0.50579 0.60251 0.0
C354 C 0.32052 0.53294 0.59921 0.0
C355 C 0.2892 0.48616 0.54659 0.0
C356 C 0.30328 0.4927 0.48645 0.0
H357 H 0.28294 0.50066 0.64509 0.0
H358 H 0.26803 0.46631 0.54867 0.0
S359 S 0.36591 0.56019 0.45474 0.0
N360 N 0.35824 0.56489 0.53249 0.0
N361 N 0.34387 0.5276 0.4293 0.0
C362 C 0.32959 0.51894 0.48528 0.0
C363 C 0.33746 0.53916 0.54123 0.0
C364 C 0.82017 0.96107 1.04326 0.0
C365 C 0.81566 0.96745 0.10968 0.0
C366 C 0.81511 0.98217 0.99245 0.0
C367 C 0.8037 0.01044 1.00523 0.0
H368 H 0.82344 0.93925 1.0284 0.0
H369 H 0.81531 0.97584 0.94056 0.0
S370 S 0.79795 0.03915 0.17491 0.0
N371 N 0.80766 0.00483 0.18927 0.0
N372 N 0.79568 0.04434 0.09256 0.0
C373 C 0.80366 0.01751 0.0734 0.0
C374 C 0.81046 0.99607 0.12602 0.0
C375 C 0.35138 0.99458 0.63236 0.0
C376 C 0.35785 0.02329 0.61898 0.0
C377 C 0.34948 0.97372 0.58169 0.0
C378 C 0.35218 0.98081 0.51504 0.0
H379 H 0.35274 0.98788 0.68446 0.0
H380 H 0.3498 0.95172 0.59661 0.0
S381 S 0.35958 0.05318 0.44924 0.0
N382 N 0.36065 0.05795 0.53131 0.0
N383 N 0.35432 0.01872 0.43493 0.0
C384 C 0.35272 0.00955 0.49819 0.0
C385 C 0.35628 0.03081 0.55054 0.0
C386 C 0.46153 0.99045 0.12118 0.0
C387 C 0.41411 0.98701 0.14401 0.0
C388 C 0.45846 0.00912 0.06624 0.0
C389 C 0.40753 0.02475 1.03024 0.0
H390 H 0.50273 0.97979 0.14832 0.0
H391 H 0.49753 0.01244 0.05428 0.0
S392 S 0.26863 0.02128 0.06257 0.0
N393 N 0.3125 -0.00079 0.12157 0.0
N394 N 0.30695 0.03405 1.01684 0.0
C395 C 0.35828 0.02011 1.04841 0.0
C396 C 0.36151 0.00127 0.10555 0.0
C397 C 0.81344 0.97801 0.54888 0.0
C398 C 0.79712 0.98772 0.47792 0.0
C399 C 0.81474 0.99627 0.60504 0.0
C400 C 0.79956 0.02499 0.5925 0.0
H401 H 0.82302 0.95586 0.56092 0.0
H402 H 0.82426 0.98738 0.65771 0.0
S403 S 0.76134 0.06203 0.41891 0.0
N404 N 0.7714 0.02887 0.40026 0.0
N405 N 0.77329 0.06283 0.50532 0.0
C406 C 0.7866 0.03531 0.52282 0.0
C407 C 0.78554 0.01681 0.46574 0.0
C408 C 0.10035 0.51506 1.0101 0.0
C409 C 1.04539 0.50211 0.98958 0.0
C410 C 0.14189 0.51112 0.07865 0.0
C411 C 0.1297 0.49411 0.12881 0.0
H412 H 0.11125 0.52849 0.97321 0.0
H413 H 0.18444 0.52078 0.09153 0.0
S414 S 0.9911 0.45692 0.10279 0.0
N415 N 0.98011 0.47233 1.02544 0.0
N416 N 1.05822 0.46545 0.15491 0.0
C417 C 1.07446 0.48168 0.10966 0.0
C418 C 1.03235 0.4854 1.03966 0.0
C419 C 0.13846 0.486 0.58922 0.0
C420 C 0.12786 0.5138 0.60518 0.0
C421 C 0.10143 0.47309 0.52692 0.0
C422 C 1.05282 0.48761 0.47993 0.0
H423 H 0.17613 0.47444 0.62404 0.0
H424 H 0.11026 0.45144 0.51602 0.0
S425 S 1.00674 0.56077 0.49903 0.0
N426 N 1.06599 0.55555 0.57068 0.0
N427 N 0.99621 0.53109 0.45234 0.0
C428 C 1.0423 0.51555 0.49475 0.0
C429 C 1.07978 0.52866 0.55835 0.0
C430 C 0.60875 0.01938 0.99388 0.0
C431 C 0.55828 0.00596 0.94726 0.0
C432 C 0.64079 0.00763 0.05986 0.0
C433 C 0.62423 0.98178 0.08003 0.0
H434 H 0.62091 0.0402 0.98177 0.0
H435 H 0.67802 0.01909 0.09568 0.0
S436 S 0.49962 0.93674 0.97379 0.0
N437 N 0.49573 0.96449 0.92276 0.0
N438 N 0.55787 0.94175 1.04692 0.0
C439 C 0.57688 0.96694 1.0316 0.0
C440 C 0.5436 0.97911 0.96454 0.0
C441 C 0.53261 0.00973 0.54386 0.0
C442 C 0.54638 0.98872 0.50263 0.0
C443 C 0.57061 0.01574 0.61349 0.0
C444 C 0.62333 0.00081 0.64396 0.0
H445 H 0.49188 0.02137 0.52266 0.0
H446 H 0.55935 0.03268 0.64275 0.0
S447 S 0.67917 0.94376 0.55771 0.0
N448 N 0.61622 0.95325 0.49652 0.0
N449 N 0.68702 0.96384 0.62808 0.0
C450 C 0.6371 0.97947 0.60349 0.0
C451 C 0.59891 0.97371 0.5324 0.0
C452 C 0.104 0.37999 0.73779 0.0
C453 C 1.07239 0.4034 0.69959 0.0
C454 C 0.13305 0.38105 0.81312 0.0
C455 C 0.13059 0.40534 0.85326 0.0
H456 H 0.10774 0.36106 0.70917 0.0
H457 H 0.15751 0.36269 0.84005 0.0
S458 S 1.05064 0.47182 0.77854 0.0
N459 N 1.03885 0.45119 0.70819 0.0
N460 N 0.09194 0.45313 0.84769 0.0
C461 C 0.09778 0.42857 0.81533 0.0
C462 C 1.06913 0.4276 0.73923 0.0
C463 C 1.07476 0.61606 0.35715 0.0
C464 C 0.11896 0.59653 0.39337 0.0
C465 C 1.04507 0.61452 0.2819 0.0
C466 C 1.05886 0.59356 0.23993 0.0
H467 H 1.06145 0.63191 0.38734 0.0
H468 H 1.0104 0.62954 0.25671 0.0
S469 S 0.17545 0.53902 0.30975 0.0
N470 N 0.17731 0.5568 0.3814 0.0
N471 N 0.12327 0.55391 0.24206 0.0
C472 C 0.10472 0.57465 0.27604 0.0
C473 C 0.13421 0.57613 0.352 0.0
C474 C 0.62527 0.89024 0.86762 0.0
C475 C 0.59065 0.88097 0.90589 0.0
C476 C 0.60187 0.89365 0.79276 0.0
C477 C 0.54274 0.88768 0.75197 0.0
H478 H 0.67071 0.89567 0.89585 0.0
H479 H 0.63054 0.9014 0.76678 0.0
S480 S 0.43342 0.86163 0.82509 0.0
N481 N 0.49391 0.86505 0.89616 0.0
N482 N 0.45046 0.87119 0.75611 0.0
C483 C 0.50791 0.87766 0.7892 0.0
C484 C 0.53163 0.87442 0.8657 0.0
C485 C 0.5783 0.12768 0.25904 0.0
C486 C 0.53571 0.10736 0.22323 0.0
C487 C 0.61362 0.12472 0.33225 0.0
C488 C 0.608 0.10121 0.37225 0.0
H489 H 0.58372 0.14622 0.23068 0.0
H490 H 0.64493 0.14115 0.35783 0.0
S491 S 0.5086 0.04004 0.30067 0.0
N492 N 0.49395 0.06165 0.23215 0.0
N493 N 0.55967 0.05599 0.36766 0.0
C494 C 0.56698 0.08028 0.33596 0.0
C495 C 0.53108 0.08338 0.26215 0.0
C496 C 0.09763 0.40033 0.20188 0.0
C497 C 0.15744 0.4012 0.24535 0.0
C498 C 1.05372 0.40023 0.23147 0.0
C499 C 1.06768 0.40045 0.30597 0.0
H500 H 1.08436 0.40011 0.14413 0.0
H501 H 1.00849 0.39993 0.19555 0.0
S502 S 0.21818 0.40066 0.44366 0.0
N503 N 0.22837 0.40104 0.36676 0.0
N504 N 0.14668 0.40063 0.42278 0.0
C505 C 0.12758 0.40075 0.35013 0.0
C506 C 0.17219 0.40121 0.31984 0.0
C507 C 0.13001 0.59223 0.86103 0.0
C508 C 0.11742 0.59778 0.78804 0.0
C509 C 1.08539 0.59053 0.88916 0.0
C510 C 1.02608 0.59387 0.8455 0.0
H511 H 0.17469 0.58899 0.89693 0.0
H512 H 0.09756 0.5862 0.9457 0.0
S513 S 0.96891 0.60984 0.65161 0.0
N514 N 1.04031 0.60739 0.67295 0.0
N515 N 0.95719 0.60403 0.72633 0.0
C516 C 1.01266 0.59957 0.77269 0.0
C517 C 1.05809 0.60161 0.74396 0.0
C518 C 0.58071 0.89528 0.39668 0.0
C519 C 0.52075 0.89594 0.35387 0.0
C520 C 0.62407 0.89656 0.36644 0.0
C521 C 0.60947 0.89782 0.29188 0.0
H522 H 0.59454 0.89452 0.45439 0.0
H523 H 0.66945 0.89677 0.40197 0.0
S524 S 0.45886 0.89831 0.15537 0.0
N525 N 0.44918 0.89675 0.2325 0.0
N526 N 0.53029 0.89878 0.17565 0.0
C527 C 0.54966 0.89749 0.24821 0.0
C528 C 0.50548 0.8966 0.27913 0.0
C529 C 0.61393 0.09714 0.85681 0.0
C530 C 0.55467 0.10225 0.81464 0.0
C531 C 0.65709 0.09533 0.82637 0.0
C532 C 0.64282 0.09831 0.75247 0.0
H533 H 0.6274 0.0944 0.91414 0.0
H534 H 0.70211 0.09232 0.86114 0.0
S535 S 0.49444 0.11224 0.61809 0.0
N536 N 0.4847 0.11117 0.6952 0.0
N537 N 0.56477 0.10633 0.6373 0.0
C538 C 0.58367 0.10318 0.7095 0.0
C539 C 0.53989 0.10546 0.74065 0.0
loop_
_geom_bond_atom_site_label_1
_geom_bond_atom_site_label_2
_geom_bond_distance
_geom_bond_site_symmetry_2
_ccdc_geom_bond_type
O0 Tb1 2.292 . S
O0 C3 1.255 . S
Tb1 O0 2.292 . S
Tb1 O17 2.326 . S
Tb1 O19 2.500 . S
Tb1 O20 2.473 . S
Tb1 O23 2.324 . S
Eu2 O6 2.292 1_554 S
Eu2 C7 2.852 . S
Eu2 O18 2.324 . S
Eu2 O22 2.326 . S
Eu2 O24 2.500 . S
Eu2 O25 2.473 . S
C3 O0 1.255 . S
C3 O4 1.247 . S
O4 C3 1.247 . S
C5 O17 1.242 . S
C5 O18 1.258 . S
O6 Eu2 2.292 1_556 S
O6 C8 1.255 . S
C7 Eu2 2.852 . S
C7 C11 1.503 . S
C7 O24 1.273 . S
C7 O25 1.257 . S
C8 O6 1.255 . S
C8 O9 1.247 . S
O9 C8 1.247 . S
C10 O22 1.242 . S
C10 O23 1.258 . S
C11 C7 1.503 . S
C11 C12 1.379 . S
C11 C16 1.392 . S
C12 C11 1.379 . S
C12 C13 1.404 . S
C12 H26 0.929 . S
C13 C12 1.404 . S
C13 C14 1.389 . S
C14 C13 1.389 . S
C14 C15 1.399 . S
C14 H27 0.931 . S
C15 C14 1.399 . S
C15 C16 1.390 . S
C16 C11 1.392 . S
C16 C15 1.390 . S
C16 H28 0.929 . S
O17 Tb1 2.326 . S
O17 C5 1.242 . S
O18 Eu2 2.324 . S
O18 C5 1.258 . S
O19 Tb1 2.500 . S
O19 C21 1.273 . S
O20 Tb1 2.473 . S
O20 C21 1.257 . S
C21 O19 1.273 . S
C21 O20 1.257 . S
O22 Eu2 2.326 . S
O22 C10 1.242 . S
O23 Tb1 2.324 . S
O23 C10 1.258 . S
O24 Eu2 2.500 . S
O24 C7 1.273 . S
O25 Eu2 2.473 . S
O25 C7 1.257 . S
H26 C12 0.929 . S
H27 C14 0.931 . S
H28 C16 0.929 . S
O29 Tb30 2.292 . S
O29 C32 1.255 . S
Tb30 O29 2.292 . S
Tb30 O46 2.326 . S
Tb30 O48 2.500 . S
Tb30 O49 2.473 . S
Tb30 O52 2.324 . S
Eu31 O35 2.292 . S
Eu31 C36 2.852 . S
Eu31 O47 2.324 . S
Eu31 O51 2.326 . S
Eu31 O53 2.500 . S
Eu31 O54 2.473 . S
C32 O29 1.255 . S
C32 O33 1.247 . S
O33 C32 1.247 . S
C34 O46 1.242 . S
C34 O47 1.258 . S
O35 Eu31 2.292 . S
O35 C37 1.255 . S
C36 Eu31 2.852 . S
C36 C40 1.503 . S
C36 O53 1.273 . S
C36 O54 1.257 . S
C37 O35 1.255 . S
C37 O38 1.247 . S
O38 C37 1.247 . S
C39 O51 1.242 . S
C39 O52 1.258 . S
C40 C36 1.503 . S
C40 C41 1.379 . S
C40 C45 1.392 . S
C41 C40 1.379 . S
C41 C42 1.404 . S
C41 H55 0.929 . S
C42 C41 1.404 . S
C42 C43 1.389 . S
C43 C42 1.389 . S
C43 C44 1.399 . S
C43 H56 0.931 . S
C44 C43 1.399 . S
C44 C45 1.390 . S
C45 C40 1.392 . S
C45 C44 1.390 . S
C45 H57 0.929 . S
O46 Tb30 2.326 . S
O46 C34 1.242 . S
O47 Eu31 2.324 . S
O47 C34 1.258 . S
O48 Tb30 2.500 . S
O48 C50 1.273 . S
O49 Tb30 2.473 . S
O49 C50 1.257 . S
C50 O48 1.273 . S
C50 O49 1.257 . S
O51 Eu31 2.326 . S
O51 C39 1.242 . S
O52 Tb30 2.324 . S
O52 C39 1.258 . S
O53 Eu31 2.500 . S
O53 C36 1.273 . S
O54 Eu31 2.473 . S
O54 C36 1.257 . S
H55 C41 0.929 . S
H56 C43 0.931 . S
H57 C45 0.929 . S
O58 Tb59 2.292 . S
O58 C61 1.255 . S
Tb59 O58 2.292 . S
Tb59 O75 2.326 . S
Tb59 O77 2.500 . S
Tb59 O78 2.473 . S
Tb59 O81 2.324 . S
Eu60 O64 2.292 1_556 S
Eu60 C65 2.852 . S
Eu60 O76 2.324 . S
Eu60 O80 2.326 . S
Eu60 O82 2.500 . S
Eu60 O83 2.473 . S
C61 O58 1.255 . S
C61 O62 1.247 . S
O62 C61 1.247 . S
C63 O75 1.242 . S
C63 O76 1.258 . S
O64 Eu60 2.292 1_554 S
O64 C66 1.255 . S
C65 Eu60 2.852 . S
C65 C69 1.503 . S
C65 O82 1.273 . S
C65 O83 1.257 . S
C66 O64 1.255 . S
C66 O67 1.247 . S
O67 C66 1.247 . S
C68 O80 1.242 . S
C68 O81 1.258 . S
C69 C65 1.503 . S
C69 C70 1.379 . S
C69 C74 1.392 . S
C70 C69 1.379 . S
C70 C71 1.404 . S
C70 H84 0.929 . S
C71 C70 1.404 . S
C71 C72 1.389 . S
C72 C71 1.389 . S
C72 C73 1.399 . S
C72 H85 0.931 . S
C73 C72 1.399 . S
C73 C74 1.390 . S
C74 C69 1.392 . S
C74 C73 1.390 . S
C74 H86 0.929 . S
O75 Tb59 2.326 . S
O75 C63 1.242 . S
O76 Eu60 2.324 . S
O76 C63 1.258 . S
O77 Tb59 2.500 . S
O77 C79 1.273 . S
O78 Tb59 2.473 . S
O78 C79 1.257 . S
C79 O77 1.273 . S
C79 O78 1.257 . S
O80 Eu60 2.326 . S
O80 C68 1.242 . S
O81 Tb59 2.324 . S
O81 C68 1.258 . S
O82 Eu60 2.500 . S
O82 C65 1.273 . S
O83 Eu60 2.473 . S
O83 C65 1.257 . S
H84 C70 0.929 . S
H85 C72 0.931 . S
H86 C74 0.929 . S
O87 Tb88 2.292 . S
O87 C90 1.255 . S
Tb88 O87 2.292 . S
Tb88 O104 2.326 . S
Tb88 O106 2.500 . S
Tb88 O107 2.473 . S
Tb88 O110 2.324 . S
Eu89 O93 2.292 . S
Eu89 C94 2.852 . S
Eu89 O105 2.324 . S
Eu89 O109 2.326 . S
Eu89 O111 2.500 . S
Eu89 O112 2.473 . S
C90 O87 1.255 . S
C90 O91 1.247 . S
O91 C90 1.247 . S
C92 O104 1.242 . S
C92 O105 1.258 . S
O93 Eu89 2.292 . S
O93 C95 1.255 . S
C94 Eu89 2.852 . S
C94 C98 1.503 . S
C94 O111 1.273 . S
C94 O112 1.257 . S
C95 O93 1.255 . S
C95 O96 1.247 . S
O96 C95 1.247 . S
C97 O109 1.242 . S
C97 O110 1.258 . S
C98 C94 1.503 . S
C98 C99 1.379 . S
C98 C103 1.392 . S
C99 C98 1.379 . S
C99 C100 1.404 . S
C99 H113 0.929 . S
C100 C99 1.404 . S
C100 C101 1.389 . S
C101 C100 1.389 . S
C101 C102 1.399 . S
C101 H114 0.931 . S
C102 C101 1.399 . S
C102 C103 1.390 . S
C103 C98 1.392 . S
C103 C102 1.390 . S
C103 H115 0.929 . S
O104 Tb88 2.326 . S
O104 C92 1.242 . S
O105 Eu89 2.324 . S
O105 C92 1.258 . S
O106 Tb88 2.500 . S
O106 C108 1.273 . S
O107 Tb88 2.473 . S
O107 C108 1.257 . S
C108 O106 1.273 . S
C108 O107 1.257 . S
O109 Eu89 2.326 . S
O109 C97 1.242 . S
O110 Tb88 2.324 . S
O110 C97 1.258 . S
O111 Eu89 2.500 . S
O111 C94 1.273 . S
O112 Eu89 2.473 . S
O112 C94 1.257 . S
H113 C99 0.929 . S
H114 C101 0.931 . S
H115 C103 0.929 . S
O116 Tb117 2.292 . S
O116 C119 1.255 . S
Tb117 O116 2.292 . S
Tb117 O133 2.326 . S
Tb117 O135 2.508 . S
Tb117 O136 2.473 . S
Tb117 O139 2.324 . S
Eu118 O122 2.292 1_554 S
Eu118 C123 2.852 . S
Eu118 O134 2.324 . S
Eu118 O138 2.326 . S
Eu118 O140 2.500 . S
Eu118 O141 2.473 . S
C119 O116 1.255 . S
C119 O120 1.247 . S
O120 C119 1.247 . S
C121 O133 1.242 . S
C121 O134 1.258 . S
O122 Eu118 2.292 1_556 S
O122 C124 1.255 . S
C123 Eu118 2.852 . S
C123 C127 1.503 . S
C123 O140 1.273 . S
C123 O141 1.257 . S
C124 O122 1.255 . S
C124 O125 1.247 . S
O125 C124 1.247 . S
C126 O138 1.242 . S
C126 O139 1.258 . S
C127 C123 1.503 . S
C127 C128 1.379 . S
C127 C132 1.392 . S
C128 C127 1.379 . S
C128 C129 1.404 . S
C128 H142 0.929 . S
C129 C128 1.404 . S
C129 C130 1.389 . S
C130 C129 1.389 . S
C130 C131 1.399 . S
C130 H143 0.931 . S
C131 C130 1.399 . S
C131 C132 1.390 . S
C132 C127 1.392 . S
C132 C131 1.390 . S
C132 H144 0.929 . S
O133 Tb117 2.326 . S
O133 C121 1.242 . S
O134 Eu118 2.324 . S
O134 C121 1.258 . S
O135 Tb117 2.508 . S
O135 C137 1.276 . S
O136 Tb117 2.473 . S
O136 C137 1.257 . S
C137 O135 1.276 . S
C137 O136 1.257 . S
O138 Eu118 2.326 . S
O138 C126 1.242 . S
O139 Tb117 2.324 . S
O139 C126 1.258 . S
O140 Eu118 2.500 . S
O140 C123 1.273 . S
O141 Eu118 2.473 . S
O141 C123 1.257 . S
H142 C128 0.929 . S
H143 C130 0.931 . S
H144 C132 0.929 . S
O145 Tb146 2.292 . S
O145 C148 1.255 . S
Tb146 O145 2.292 . S
Tb146 O162 2.326 . S
Tb146 O164 2.508 . S
Tb146 O165 2.473 . S
Tb146 O168 2.324 . S
Eu147 O151 2.292 . S
Eu147 C152 2.852 . S
Eu147 O163 2.324 . S
Eu147 O167 2.326 . S
Eu147 O169 2.500 . S
Eu147 O170 2.473 . S
C148 O145 1.255 . S
C148 O149 1.247 . S
O149 C148 1.247 . S
C150 O162 1.242 . S
C150 O163 1.258 . S
O151 Eu147 2.292 . S
O151 C153 1.255 . S
C152 Eu147 2.852 . S
C152 C156 1.503 . S
C152 O169 1.273 . S
C152 O170 1.257 . S
C153 O151 1.255 . S
C153 O154 1.247 . S
O154 C153 1.247 . S
C155 O167 1.242 . S
C155 O168 1.258 . S
C156 C152 1.503 . S
C156 C157 1.379 . S
C156 C161 1.392 . S
C157 C156 1.379 . S
C157 C158 1.404 . S
C157 H171 0.929 . S
C158 C157 1.404 . S
C158 C159 1.389 . S
C159 C158 1.389 . S
C159 C160 1.399 . S
C159 H172 0.931 . S
C160 C159 1.399 . S
C160 C161 1.390 . S
C161 C156 1.392 . S
C161 C160 1.390 . S
C161 H173 0.929 . S
O162 Tb146 2.326 . S
O162 C150 1.242 . S
O163 Eu147 2.324 . S
O163 C150 1.258 . S
O164 Tb146 2.508 . S
O164 C166 1.276 . S
O165 Tb146 2.473 . S
O165 C166 1.257 . S
C166 O164 1.276 . S
C166 O165 1.257 . S
O167 Eu147 2.326 . S
O167 C155 1.242 . S
O168 Tb146 2.324 . S
O168 C155 1.258 . S
O169 Eu147 2.500 . S
O169 C152 1.273 . S
O170 Eu147 2.473 . S
O170 C152 1.257 . S
H171 C157 0.929 . S
H172 C159 0.931 . S
H173 C161 0.929 . S
O174 Tb175 2.292 . S
O174 C177 1.255 . S
Tb175 O174 2.292 . S
Tb175 O191 2.326 . S
Tb175 O193 2.508 . S
Tb175 O194 2.473 . S
Tb175 O197 2.324 . S
Eu176 O180 2.292 1_556 S
Eu176 C181 2.852 . S
Eu176 O192 2.324 . S
Eu176 O196 2.326 . S
Eu176 O198 2.500 . S
Eu176 O199 2.473 . S
C177 O174 1.255 . S
C177 O178 1.247 . S
O178 C177 1.247 . S
C179 O191 1.242 . S
C179 O192 1.258 . S
O180 Eu176 2.292 1_554 S
O180 C182 1.255 . S
C181 Eu176 2.852 . S
C181 C185 1.503 . S
C181 O198 1.273 . S
C181 O199 1.257 . S
C182 O180 1.255 . S
C182 O183 1.247 . S
O183 C182 1.247 . S
C184 O196 1.242 . S
C184 O197 1.258 . S
C185 C181 1.503 . S
C185 C186 1.379 . S
C185 C190 1.392 . S
C186 C185 1.379 . S
C186 C187 1.404 . S
C186 H200 0.929 . S
C187 C186 1.404 . S
C187 C188 1.389 . S
C188 C187 1.389 . S
C188 C189 1.399 . S
C188 H201 0.931 . S
C189 C188 1.399 . S
C189 C190 1.390 . S
C190 C185 1.392 . S
C190 C189 1.390 . S
C190 H202 0.929 . S
O191 Tb175 2.326 . S
O191 C179 1.242 . S
O192 Eu176 2.324 . S
O192 C179 1.258 . S
O193 Tb175 2.508 . S
O193 C195 1.276 . S
O194 Tb175 2.473 . S
O194 C195 1.257 . S
C195 O193 1.276 . S
C195 O194 1.257 . S
O196 Eu176 2.326 . S
O196 C184 1.242 . S
O197 Tb175 2.324 . S
O197 C184 1.258 . S
O198 Eu176 2.500 . S
O198 C181 1.273 . S
O199 Eu176 2.473 . S
O199 C181 1.257 . S
H200 C186 0.929 . S
H201 C188 0.931 . S
H202 C190 0.929 . S
O203 Tb204 2.292 . S
O203 C206 1.255 . S
Tb204 O203 2.292 . S
Tb204 O220 2.326 . S
Tb204 O222 2.508 . S
Tb204 O223 2.473 . S
Tb204 O226 2.324 . S
Eu205 O209 2.292 . S
Eu205 C210 2.852 . S
Eu205 O221 2.324 . S
Eu205 O225 2.326 . S
Eu205 O227 2.500 . S
Eu205 O228 2.473 . S
C206 O203 1.255 . S
C206 O207 1.247 . S
O207 C206 1.247 . S
C208 O220 1.242 . S
C208 O221 1.258 . S
O209 Eu205 2.292 . S
O209 C211 1.255 . S
C210 Eu205 2.852 . S
C210 C214 1.503 . S
C210 O227 1.273 . S
C210 O228 1.257 . S
C211 O209 1.255 . S
C211 O212 1.247 . S
O212 C211 1.247 . S
C213 O225 1.242 . S
C213 O226 1.258 . S
C214 C210 1.503 . S
C214 C215 1.379 . S
C214 C219 1.392 . S
C215 C214 1.379 . S
C215 C216 1.404 . S
C215 H229 0.929 . S
C216 C215 1.404 . S
C216 C217 1.389 . S
C217 C216 1.389 . S
C217 C218 1.399 . S
C217 H230 0.931 . S
C218 C217 1.399 . S
C218 C219 1.390 . S
C219 C214 1.392 . S
C219 C218 1.390 . S
C219 H231 0.929 . S
O220 Tb204 2.326 . S
O220 C208 1.242 . S
O221 Eu205 2.324 . S
O221 C208 1.258 . S
O222 Tb204 2.508 . S
O222 C224 1.276 . S
O223 Tb204 2.473 . S
O223 C224 1.257 . S
C224 O222 1.276 . S
C224 O223 1.257 . S
O225 Eu205 2.326 . S
O225 C213 1.242 . S
O226 Tb204 2.324 . S
O226 C213 1.258 . S
O227 Eu205 2.500 . S
O227 C210 1.273 . S
O228 Eu205 2.473 . S
O228 C210 1.257 . S
H229 C215 0.929 . S
H230 C217 0.931 . S
H231 C219 0.929 . S
C232 C233 1.369 . S
C232 C234 1.419 . S
C232 H236 0.930 . S
C233 C232 1.369 . S
C233 C242 1.429 . S
C234 C232 1.419 . S
C234 C235 1.363 . S
C234 H237 0.929 . S
C235 C234 1.363 . S
C235 C241 1.428 . S
H236 C232 0.930 . S
H237 C234 0.929 . S
S238 N239 1.613 . S
S238 N240 1.610 . S
N239 S238 1.613 . S
N239 C242 1.350 . S
N240 S238 1.610 . S
N240 C241 1.351 . S
C241 C235 1.428 . S
C241 N240 1.351 . S
C241 C242 1.434 . S
C242 C233 1.429 . S
C242 N239 1.350 . S
C242 C241 1.434 . S
C243 C244 1.369 . S
C243 C245 1.419 . S
C243 H247 0.930 . S
C244 C243 1.369 . S
C244 C253 1.429 . S
C245 C243 1.419 . S
C245 C246 1.363 . S
C245 H248 0.929 . S
C246 C245 1.363 . S
C246 C252 1.428 . S
H247 C243 0.930 . S
H248 C245 0.929 . S
S249 N250 1.613 . S
S249 N251 1.610 . S
N250 S249 1.613 . S
N250 C253 1.350 . S
N251 S249 1.610 . S
N251 C252 1.351 . S
C252 C246 1.428 . S
C252 N251 1.351 . S
C252 C253 1.434 . S
C253 C244 1.429 . S
C253 N250 1.350 . S
C253 C252 1.434 . S
C254 C255 1.369 . S
C254 C256 1.419 1_655 S
C254 H258 0.930 . S
C255 C254 1.369 . S
C255 C264 1.429 . S
C256 C254 1.419 1_455 S
C256 C257 1.363 . S
C256 H259 0.929 . S
C257 C256 1.363 . S
C257 C263 1.428 . S
H258 C254 0.930 . S
H259 C256 0.929 . S
S260 N261 1.613 . S
S260 N262 1.610 1_655 S
N261 S260 1.613 . S
N261 C264 1.350 . S
N262 S260 1.610 1_455 S
N262 C263 1.351 . S
C263 C257 1.428 . S
C263 N262 1.351 . S
C263 C264 1.434 1_455 S
C264 C255 1.429 . S
C264 N261 1.350 . S
C264 C263 1.434 1_655 S
C265 C266 1.369 . S
C265 C267 1.419 1_655 S
C265 H269 0.930 . S
C266 C265 1.369 . S
C266 C275 1.429 . S
C267 C265 1.419 1_455 S
C267 C268 1.363 . S
C267 H270 0.929 . S
C268 C267 1.363 . S
C268 C274 1.428 . S
H269 C265 0.930 . S
H270 C267 0.929 . S
S271 N272 1.613 1_455 S
S271 N273 1.610 . S
N272 S271 1.613 1_655 S
N272 C275 1.350 . S
N273 S271 1.610 . S
N273 C274 1.351 . S
C274 C268 1.428 . S
C274 N273 1.351 . S
C274 C275 1.434 1_455 S
C275 C266 1.429 . S
C275 N272 1.350 . S
C275 C274 1.434 1_655 S
C276 C277 1.369 . S
C276 C278 1.419 . S
C276 H280 0.930 . S
C277 C276 1.369 . S
C277 C286 1.429 1_556 S
C278 C276 1.419 . S
C278 C279 1.363 1_556 S
C278 H281 0.929 . S
C279 C278 1.363 1_554 S
C279 C285 1.428 . S
H280 C276 0.930 . S
H281 C278 0.929 . S
S282 N283 1.613 . S
S282 N284 1.610 . S
N283 S282 1.613 . S
N283 C286 1.350 . S
N284 S282 1.610 . S
N284 C285 1.351 . S
C285 C279 1.428 . S
C285 N284 1.351 . S
C285 C286 1.434 . S
C286 C277 1.429 1_554 S
C286 N283 1.350 . S
C286 C285 1.434 . S
C287 C288 1.369 . S
C287 C289 1.419 . S
C287 H291 0.930 . S
C288 C287 1.369 . S
C288 C297 1.429 . S
C289 C287 1.419 . S
C289 C290 1.363 . S
C289 H292 0.929 . S
C290 C289 1.363 . S
C290 C296 1.428 . S
H291 C287 0.930 . S
H292 C289 0.929 . S
S293 N294 1.613 . S
S293 N295 1.610 . S
N294 S293 1.613 . S
N294 C297 1.350 . S
N295 S293 1.610 . S
N295 C296 1.351 . S
C296 C290 1.428 . S
C296 N295 1.351 . S
C296 C297 1.434 . S
C297 C288 1.429 . S
C297 N294 1.350 . S
C297 C296 1.434 . S
C298 C299 1.369 . S
C298 C300 1.419 . S
C298 H302 0.930 . S
C299 C298 1.369 . S
C299 C308 1.429 1_554 S
C300 C298 1.419 . S
C300 C301 1.363 1_554 S
C300 H303 0.929 . S
C301 C300 1.363 1_556 S
C301 C307 1.428 . S
H302 C298 0.930 . S
H303 C300 0.929 . S
S304 N305 1.613 . S
S304 N306 1.610 . S
N305 S304 1.613 . S
N305 C308 1.350 . S
N306 S304 1.610 . S
N306 C307 1.351 . S
C307 C301 1.428 . S
C307 N306 1.351 . S
C307 C308 1.434 . S
C308 C299 1.429 1_556 S
C308 N305 1.350 . S
C308 C307 1.434 . S
C309 C310 1.369 . S
C309 C311 1.419 . S
C309 H313 0.930 . S
C310 C309 1.369 . S
C310 C319 1.429 . S
C311 C309 1.419 . S
C311 C312 1.363 . S
C311 H314 0.929 . S
C312 C311 1.363 . S
C312 C318 1.428 . S
H313 C309 0.930 . S
H314 C311 0.929 . S
S315 N316 1.613 . S
S315 N317 1.610 . S
N316 S315 1.613 . S
N316 C319 1.350 . S
N317 S315 1.610 . S
N317 C318 1.351 . S
C318 C312 1.428 . S
C318 N317 1.351 . S
C318 C319 1.434 . S
C319 C310 1.429 . S
C319 N316 1.350 . S
C319 C318 1.434 . S
C320 C321 1.369 . S
C320 C322 1.419 . S
C320 H324 0.930 . S
C321 C320 1.369 . S
C321 C330 1.429 . S
C322 C320 1.419 . S
C322 C323 1.363 . S
C322 H325 0.929 . S
C323 C322 1.363 . S
C323 C329 1.428 . S
H324 C320 0.930 . S
H325 C322 0.929 . S
S326 N327 1.613 1_554 S
S326 N328 1.610 . S
N327 S326 1.613 1_556 S
N327 C330 1.350 . S
N328 S326 1.610 . S
N328 C329 1.351 1_554 S
C329 C323 1.428 . S
C329 N328 1.351 1_556 S
C329 C330 1.434 . S
C330 C321 1.429 . S
C330 N327 1.350 . S
C330 C329 1.434 . S
C331 C332 1.369 . S
C331 C333 1.419 . S
C331 H335 0.930 . S
C332 C331 1.369 . S
C332 C341 1.429 . S
C333 C331 1.419 . S
C333 C334 1.363 . S
C333 H336 0.929 . S
C334 C333 1.363 . S
C334 C340 1.428 . S
H335 C331 0.930 . S
H336 C333 0.929 . S
S337 N338 1.613 . S
S337 N339 1.610 . S
N338 S337 1.613 . S
N338 C341 1.350 . S
N339 S337 1.610 . S
N339 C340 1.351 . S
C340 C334 1.428 . S
C340 N339 1.351 . S
C340 C341 1.434 . S
C341 C332 1.429 . S
C341 N338 1.350 . S
C341 C340 1.434 . S
C342 C343 1.369 . S
C342 C344 1.419 . S
C342 H346 0.930 . S
C343 C342 1.369 . S
C343 C352 1.429 . S
C344 C342 1.419 . S
C344 C345 1.363 . S
C344 H347 0.929 1_554 S
C345 C344 1.363 . S
C345 C351 1.428 . S
H346 C342 0.930 . S
H347 C344 0.929 1_556 S
S348 N349 1.613 . S
S348 N350 1.610 . S
N349 S348 1.613 . S
N349 C352 1.350 . S
N350 S348 1.610 . S
N350 C351 1.351 . S
C351 C345 1.428 . S
C351 N350 1.351 . S
C351 C352 1.434 . S
C352 C343 1.429 . S
C352 N349 1.350 . S
C352 C351 1.434 . S
C353 C354 1.369 . S
C353 C355 1.419 . S
C353 H357 0.930 . S
C354 C353 1.369 . S
C354 C363 1.429 . S
C355 C353 1.419 . S
C355 C356 1.363 . S
C355 H358 0.929 . S
C356 C355 1.363 . S
C356 C362 1.428 . S
H357 C353 0.930 . S
H358 C355 0.929 . S
S359 N360 1.613 . S
S359 N361 1.610 . S
N360 S359 1.613 . S
N360 C363 1.350 . S
N361 S359 1.610 . S
N361 C362 1.351 . S
C362 C356 1.428 . S
C362 N361 1.351 . S
C362 C363 1.434 . S
C363 C354 1.429 . S
C363 N360 1.350 . S
C363 C362 1.434 . S
C364 C365 1.369 . S
C364 C366 1.419 . S
C364 H368 0.930 . S
C365 C364 1.369 . S
C365 C374 1.429 . S
C366 C364 1.419 . S
C366 C367 1.363 1_565 S
C366 H369 0.929 . S
C367 C366 1.363 1_545 S
C367 C373 1.428 . S
H368 C364 0.930 . S
H369 C366 0.929 . S
S370 N371 1.613 . S
S370 N372 1.610 . S
N371 S370 1.613 . S
N371 C374 1.350 1_545 S
N372 S370 1.610 . S
N372 C373 1.351 . S
C373 C367 1.428 . S
C373 N372 1.351 . S
C373 C374 1.434 1_545 S
C374 C365 1.429 . S
C374 N371 1.350 1_565 S
C374 C373 1.434 1_565 S
C375 C376 1.369 1_565 S
C375 C377 1.419 . S
C375 H379 0.930 . S
C376 C375 1.369 1_545 S
C376 C385 1.429 . S
C377 C375 1.419 . S
C377 C378 1.363 . S
C377 H380 0.929 . S
C378 C377 1.363 . S
C378 C384 1.428 . S
H379 C375 0.930 . S
H380 C377 0.929 . S
S381 N382 1.613 . S
S381 N383 1.610 1_545 S
N382 S381 1.613 . S
N382 C385 1.350 . S
N383 S381 1.610 1_565 S
N383 C384 1.351 . S
C384 C378 1.428 . S
C384 N383 1.351 . S
C384 C385 1.434 1_565 S
C385 C376 1.429 . S
C385 N382 1.350 . S
C385 C384 1.434 1_545 S
C386 C387 1.369 . S
C386 C388 1.419 1_565 S
C386 H390 0.930 . S
C387 C386 1.369 . S
C387 C396 1.429 1_565 S
C388 C386 1.419 1_545 S
C388 C389 1.363 . S
C388 H391 0.929 . S
C389 C388 1.363 . S
C389 C395 1.428 . S
H390 C386 0.930 . S
H391 C388 0.929 . S
S392 N393 1.613 . S
S392 N394 1.610 . S
N393 S392 1.613 . S
N393 C396 1.350 . S
N394 S392 1.610 . S
N394 C395 1.351 . S
C395 C389 1.428 . S
C395 N394 1.351 . S
C395 C396 1.434 . S
C396 C387 1.429 1_545 S
C396 N393 1.350 . S
C396 C395 1.434 . S
C397 C398 1.369 . S
C397 C399 1.419 1_565 S
C397 H401 0.930 . S
C398 C397 1.369 . S
C398 C407 1.429 1_565 S
C399 C397 1.419 1_545 S
C399 C400 1.363 . S
C399 H402 0.929 . S
C400 C399 1.363 . S
C400 C406 1.428 . S
H401 C397 0.930 . S
H402 C399 0.929 . S
S403 N404 1.613 . S
S403 N405 1.610 . S
N404 S403 1.613 . S
N404 C407 1.350 . S
N405 S403 1.610 . S
N405 C406 1.351 . S
C406 C400 1.428 . S
C406 N405 1.351 . S
C406 C407 1.434 . S
C407 C398 1.429 1_545 S
C407 N404 1.350 . S
C407 C406 1.434 . S
C408 C409 1.369 1_455 S
C408 C410 1.419 1_556 S
C408 H412 0.930 . S
C409 C408 1.369 1_655 S
C409 C418 1.429 . S
C410 C408 1.419 1_554 S
C410 C411 1.363 . S
C410 H413 0.929 . S
C411 C410 1.363 . S
C411 C417 1.428 1_455 S
H412 C408 0.930 . S
H413 C410 0.929 . S
S414 N415 1.613 . S
S414 N416 1.610 1_556 S
N415 S414 1.613 . S
N415 C418 1.350 . S
N416 S414 1.610 1_554 S
N416 C417 1.351 . S
C417 C411 1.428 1_655 S
C417 N416 1.351 . S
C417 C418 1.434 1_554 S
C418 C409 1.429 . S
C418 N415 1.350 . S
C418 C417 1.434 1_556 S
C419 C420 1.369 . S
C419 C421 1.420 1_455 S
C419 H423 0.930 . S
C420 C419 1.369 . S
C420 C429 1.429 1_455 S
C421 C419 1.420 1_655 S
C421 C422 1.364 . S
C421 H424 0.929 . S
C422 C421 1.364 . S
C422 C428 1.428 . S
H423 C419 0.930 . S
H424 C421 0.929 . S
S425 N426 1.613 . S
S425 N427 1.610 . S
N426 S425 1.613 . S
N426 C429 1.350 . S
N427 S425 1.610 . S
N427 C428 1.351 . S
C428 C422 1.428 . S
C428 N427 1.351 . S
C428 C429 1.434 . S
C429 C420 1.429 1_655 S
C429 N426 1.350 . S
C429 C428 1.434 . S
C430 C431 1.366 1_565 S
C430 C432 1.421 1_556 S
C430 H434 0.932 . S
C431 C430 1.366 1_545 S
C431 C440 1.429 . S
C432 C430 1.421 1_554 S
C432 C433 1.363 . S
C432 H435 0.929 . S
C433 C432 1.363 . S
C433 C439 1.428 1_565 S
H434 C430 0.932 . S
H435 C432 0.929 . S
S436 N437 1.613 . S
S436 N438 1.610 1_556 S
N437 S436 1.613 . S
N437 C440 1.350 . S
N438 S436 1.610 1_554 S
N438 C439 1.351 . S
C439 C433 1.428 1_545 S
C439 N438 1.351 . S
C439 C440 1.434 1_554 S
C440 C431 1.429 . S
C440 N437 1.350 . S
C440 C439 1.434 1_556 S
C441 C442 1.369 1_545 S
C441 C443 1.419 . S
C441 H445 0.930 . S
C442 C441 1.369 1_565 S
C442 C451 1.429 . S
C443 C441 1.419 . S
C443 C444 1.363 . S
C443 H446 0.929 . S
C444 C443 1.363 . S
C444 C450 1.428 1_545 S
H445 C441 0.930 . S
H446 C443 0.929 . S
S447 N448 1.613 . S
S447 N449 1.610 . S
N448 S447 1.613 . S
N448 C451 1.350 . S
N449 S447 1.610 . S
N449 C450 1.351 . S
C450 C444 1.428 1_565 S
C450 N449 1.351 . S
C450 C451 1.434 . S
C451 C442 1.429 . S
C451 N448 1.350 . S
C451 C450 1.434 . S
C452 C453 1.369 . S
C452 C454 1.419 1_655 S
C452 H456 0.930 . S
C453 C452 1.369 . S
C453 C462 1.429 . S
C454 C452 1.419 1_455 S
C454 C455 1.363 . S
C454 H457 0.929 . S
C455 C454 1.363 . S
C455 C461 1.428 . S
H456 C452 0.930 . S
H457 C454 0.929 . S
S458 N459 1.613 1_455 S
S458 N460 1.610 . S
N459 S458 1.613 1_655 S
N459 C462 1.350 . S
N460 S458 1.610 . S
N460 C461 1.351 . S
C461 C455 1.428 . S
C461 N460 1.351 . S
C461 C462 1.434 1_455 S
C462 C453 1.429 . S
C462 N459 1.350 . S
C462 C461 1.434 1_655 S
C463 C464 1.369 1_655 S
C463 C465 1.419 . S
C463 H467 0.930 . S
C464 C463 1.369 1_455 S
C464 C473 1.429 . S
C465 C463 1.419 . S
C465 C466 1.363 . S
C465 H468 0.929 . S
C466 C465 1.363 . S
C466 C472 1.428 1_655 S
H467 C463 0.930 . S
H468 C465 0.929 . S
S469 N470 1.613 . S
S469 N471 1.610 . S
N470 S469 1.613 . S
N470 C473 1.350 . S
N471 S469 1.610 . S
N471 C472 1.351 . S
C472 C466 1.428 1_455 S
C472 N471 1.351 . S
C472 C473 1.434 . S
C473 C464 1.429 . S
C473 N470 1.350 . S
C473 C472 1.434 . S
C474 C475 1.369 . S
C474 C476 1.419 . S
C474 H478 0.930 . S
C475 C474 1.369 . S
C475 C484 1.429 . S
C476 C474 1.419 . S
C476 C477 1.363 . S
C476 H479 0.929 . S
C477 C476 1.363 . S
C477 C483 1.428 . S
H478 C474 0.930 . S
H479 C476 0.929 . S
S480 N481 1.613 . S
S480 N482 1.610 . S
N481 S480 1.613 . S
N481 C484 1.350 . S
N482 S480 1.610 . S
N482 C483 1.351 . S
C483 C477 1.428 . S
C483 N482 1.351 . S
C483 C484 1.434 . S
C484 C475 1.429 . S
C484 N481 1.350 . S
C484 C483 1.434 . S
C485 C486 1.369 . S
C485 C487 1.419 . S
C485 H489 0.930 . S
C486 C485 1.369 . S
C486 C495 1.429 . S
C487 C485 1.419 . S
C487 C488 1.363 . S
C487 H490 0.929 . S
C488 C487 1.363 . S
C488 C494 1.428 . S
H489 C485 0.930 . S
H490 C487 0.929 . S
S491 N492 1.613 . S
S491 N493 1.610 . S
N492 S491 1.613 . S
N492 C495 1.350 . S
N493 S491 1.610 . S
N493 C494 1.351 . S
C494 C488 1.428 . S
C494 N493 1.351 . S
C494 C495 1.434 . S
C495 C486 1.429 . S
C495 N492 1.350 . S
C495 C494 1.434 . S
C496 C497 1.379 . S
C496 C498 1.406 1_455 S
C496 H500 0.934 1_455 S
C497 C496 1.379 . S
C497 C506 1.429 . S
C498 C496 1.406 1_655 S
C498 C499 1.363 . S
C498 H501 0.929 . S
C499 C498 1.363 . S
C499 C505 1.430 1_655 S
H500 C496 0.934 1_655 S
H501 C498 0.929 . S
S502 N503 1.613 . S
S502 N504 1.610 . S
N503 S502 1.613 . S
N503 C506 1.350 . S
N504 S502 1.610 . S
N504 C505 1.351 . S
C505 C499 1.430 1_455 S
C505 N504 1.351 . S
C505 C506 1.432 . S
C506 C497 1.429 . S
C506 N503 1.350 . S
C506 C505 1.432 . S
C507 C508 1.369 . S
C507 C509 1.419 . S
C507 H511 0.930 . S
C508 C507 1.369 . S
C508 C517 1.429 1_455 S
C509 C507 1.419 . S
C509 C510 1.363 1_455 S
C509 H512 0.929 . S
C510 C509 1.363 1_655 S
C510 C516 1.428 . S
H511 C507 0.930 . S
H512 C509 0.929 . S
S513 N514 1.613 . S
S513 N515 1.610 . S
N514 S513 1.613 . S
N514 C517 1.350 . S
N515 S513 1.610 . S
N515 C516 1.351 . S
C516 C510 1.428 . S
C516 N515 1.351 . S
C516 C517 1.434 . S
C517 C508 1.429 1_655 S
C517 N514 1.350 . S
C517 C516 1.434 . S
C518 C519 1.369 . S
C518 C520 1.419 . S
C518 H522 0.930 . S
C519 C518 1.369 . S
C519 C528 1.429 . S
C520 C518 1.419 . S
C520 C521 1.363 . S
C520 H523 0.929 . S
C521 C520 1.363 . S
C521 C527 1.428 . S
H522 C518 0.930 . S
H523 C520 0.929 . S
S524 N525 1.613 . S
S524 N526 1.610 . S
N525 S524 1.613 . S
N525 C528 1.350 . S
N526 S524 1.610 . S
N526 C527 1.351 . S
C527 C521 1.428 . S
C527 N526 1.351 . S
C527 C528 1.434 . S
C528 C519 1.429 . S
C528 N525 1.350 . S
C528 C527 1.434 . S
C529 C530 1.369 . S
C529 C531 1.419 . S
C529 H533 0.930 . S
C530 C529 1.369 . S
C530 C539 1.429 . S
C531 C529 1.419 . S
C531 C532 1.363 . S
C531 H534 0.929 . S
C532 C531 1.363 . S
C532 C538 1.428 . S
H533 C529 0.930 . S
H534 C531 0.929 . S
S535 N536 1.613 . S
S535 N537 1.610 . S
N536 S535 1.613 . S
N536 C539 1.350 . S
N537 S535 1.610 . S
N537 C538 1.351 . S
C538 C532 1.428 . S
C538 N537 1.351 . S
C538 C539 1.434 . S
C539 C530 1.429 . S
C539 N536 1.350 . S
C539 C538 1.434 . S
C233 C42 2.942 . S
C235 C13 2.936 . S
C244 C100 2.936 . S
C246 C71 2.942 . S
C255 C129 2.936 . S
C257 C158 2.939 . S
C266 C216 2.941 . S
C268 C187 2.939 . S
C277 C189 3.025 . S
C279 C15 3.020 . S
C288 C44 3.026 . S
C290 C218 3.019 . S
C299 C131 3.026 . S
C301 C73 3.019 . S
C310 C102 3.022 . S
C312 C160 3.023 . S
C321 C90 2.009 . S
C323 C10 1.902 1_556 S
C332 C61 2.009 . S
C334 C39 1.901 . S
C343 C32 2.004 . S
C345 C68 1.907 1_554 S
C354 C97 1.908 . S
C356 C3 2.005 . S
C365 C126 1.899 1_556 S
C367 C206 2.008 . S
C376 C177 2.009 . S
C378 C155 1.902 . S
C387 C148 2.008 . S
C389 C184 1.905 1_554 S
C398 C119 2.007 . S
C400 C213 1.906 . S
C409 C79 0.732 . S
C411 C21 0.761 . S
C420 C108 0.755 . S
C422 C50 0.746 . S
C431 C195 0.732 . S
C433 C137 0.762 . S
C442 C166 0.732 . S
C444 C224 0.761 . S
C453 C37 0.997 . S
C455 C8 1.004 . S
C464 C95 1.009 . S
C466 C66 0.999 . S
C475 C124 1.003 . S
C477 C153 1.012 . S
C486 C182 0.999 . S
C488 C211 1.002 . S
C497 C5 2.202 . S
C499 C34 2.201 . S
C508 C92 2.201 . S
C510 C63 2.202 . S
C519 C150 2.202 . S
C521 C121 2.201 . S
C530 C179 2.202 . S
C532 C208 2.201 . S
