# Generated by pormake.
# Topology uod, (4)-cn, num edge types: 1
# Building blocks:
#     Node 0, Type 0, BuildingBlock: QUQFOY_clean_sbu_3, # of connection points: 4
#     Node 1, Type 0, BuildingBlock: QUQFOY_clean_sbu_3, # of connection points: 4
#     Node 2, Type 0, BuildingBlock: QUQFOY_clean_sbu_3, # of connection points: 4
#     Node 3, Type 0, BuildingBlock: QUQFOY_clean_sbu_3, # of connection points: 4
#     Node 4, Type 0, BuildingBlock: QUQFOY_clean_sbu_3, # of connection points: 4
#     Node 5, Type 0, BuildingBlock: QUQFOY_clean_sbu_3, # of connection points: 4
#     Node 6, Type 0, BuildingBlock: QUQFOY_clean_sbu_3, # of connection points: 4
#     Node 7, Type 0, BuildingBlock: QUQFOY_clean_sbu_3, # of connection points: 4
#     Node 8, Type 0, BuildingBlock: QUQFOY_clean_sbu_3, # of connection points: 4
#     Node 9, Type 0, BuildingBlock: QUQFOY_clean_sbu_3, # of connection points: 4
#     Node 10, Type 0, BuildingBlock: QUQFOY_clean_sbu_3, # of connection points: 4
#     Node 11, Type 0, BuildingBlock: QUQFOY_clean_sbu_3, # of connection points: 4
#     Node 12, Type 0, BuildingBlock: QUQFOY_clean_sbu_3, # of connection points: 4
#     Node 13, Type 0, BuildingBlock: QUQFOY_clean_sbu_3, # of connection points: 4
#     Node 14, Type 0, BuildingBlock: QUQFOY_clean_sbu_3, # of connection points: 4
#     Node 15, Type 0, BuildingBlock: QUQFOY_clean_sbu_3, # of connection points: 4
#     Node 16, Type 0, BuildingBlock: QUQFOY_clean_sbu_3, # of connection points: 4
#     Node 17, Type 0, BuildingBlock: QUQFOY_clean_sbu_3, # of connection points: 4
#     Node 18, Type 0, BuildingBlock: QUQFOY_clean_sbu_3, # of connection points: 4
#     Node 19, Type 0, BuildingBlock: QUQFOY_clean_sbu_3, # of connection points: 4
#     Node 20, Type 0, BuildingBlock: QUQFOY_clean_sbu_3, # of connection points: 4
#     Node 21, Type 0, BuildingBlock: QUQFOY_clean_sbu_3, # of connection points: 4
#     Node 22, Type 0, BuildingBlock: QUQFOY_clean_sbu_3, # of connection points: 4
#     Node 23, Type 0, BuildingBlock: QUQFOY_clean_sbu_3, # of connection points: 4
#     Node 24, Type 0, BuildingBlock: QUQFOY_clean_sbu_3, # of connection points: 4
#     Node 25, Type 0, BuildingBlock: QUQFOY_clean_sbu_3, # of connection points: 4
#     Node 26, Type 0, BuildingBlock: QUQFOY_clean_sbu_3, # of connection points: 4
#     Node 27, Type 0, BuildingBlock: QUQFOY_clean_sbu_3, # of connection points: 4
#     Node 28, Type 0, BuildingBlock: QUQFOY_clean_sbu_3, # of connection points: 4
#     Node 29, Type 0, BuildingBlock: QUQFOY_clean_sbu_3, # of connection points: 4
#     Node 30, Type 0, BuildingBlock: QUQFOY_clean_sbu_3, # of connection points: 4
#     Node 31, Type 0, BuildingBlock: QUQFOY_clean_sbu_3, # of connection points: 4
#     Edge 32, Type (0, 0), BuildingBlock: OJICUG_clean_linker_0, # of connection points: 2
#     Edge 33, Type (0, 0), BuildingBlock: OJICUG_clean_linker_0, # of connection points: 2
#     Edge 34, Type (0, 0), BuildingBlock: OJICUG_clean_linker_0, # of connection points: 2
#     Edge 35, Type (0, 0), BuildingBlock: OJICUG_clean_linker_0, # of connection points: 2
#     Edge 36, Type (0, 0), BuildingBlock: OJICUG_clean_linker_0, # of connection points: 2
#     Edge 37, Type (0, 0), BuildingBlock: OJICUG_clean_linker_0, # of connection points: 2
#     Edge 38, Type (0, 0), BuildingBlock: OJICUG_clean_linker_0, # of connection points: 2
#     Edge 39, Type (0, 0), BuildingBlock: OJICUG_clean_linker_0, # of connection points: 2
#     Edge 40, Type (0, 0), BuildingBlock: OJICUG_clean_linker_0, # of connection points: 2
#     Edge 41, Type (0, 0), BuildingBlock: OJICUG_clean_linker_0, # of connection points: 2
#     Edge 42, Type (0, 0), BuildingBlock: OJICUG_clean_linker_0, # of connection points: 2
#     Edge 43, Type (0, 0), BuildingBlock: OJICUG_clean_linker_0, # of connection points: 2
#     Edge 44, Type (0, 0), BuildingBlock: OJICUG_clean_linker_0, # of connection points: 2
#     Edge 45, Type (0, 0), BuildingBlock: OJICUG_clean_linker_0, # of connection points: 2
#     Edge 46, Type (0, 0), BuildingBlock: OJICUG_clean_linker_0, # of connection points: 2
#     Edge 47, Type (0, 0), BuildingBlock: OJICUG_clean_linker_0, # of connection points: 2
#     Edge 48, Type (0, 0), BuildingBlock: OJICUG_clean_linker_0, # of connection points: 2
#     Edge 49, Type (0, 0), BuildingBlock: OJICUG_clean_linker_0, # of connection points: 2
#     Edge 50, Type (0, 0), BuildingBlock: OJICUG_clean_linker_0, # of connection points: 2
#     Edge 51, Type (0, 0), BuildingBlock: OJICUG_clean_linker_0, # of connection points: 2
#     Edge 52, Type (0, 0), BuildingBlock: OJICUG_clean_linker_0, # of connection points: 2
#     Edge 53, Type (0, 0), BuildingBlock: OJICUG_clean_linker_0, # of connection points: 2
#     Edge 54, Type (0, 0), BuildingBlock: OJICUG_clean_linker_0, # of connection points: 2
#     Edge 55, Type (0, 0), BuildingBlock: OJICUG_clean_linker_0, # of connection points: 2
#     Edge 56, Type (0, 0), BuildingBlock: OJICUG_clean_linker_0, # of connection points: 2
#     Edge 57, Type (0, 0), BuildingBlock: OJICUG_clean_linker_0, # of connection points: 2
#     Edge 58, Type (0, 0), BuildingBlock: OJICUG_clean_linker_0, # of connection points: 2
#     Edge 59, Type (0, 0), BuildingBlock: OJICUG_clean_linker_0, # of connection points: 2
#     Edge 60, Type (0, 0), BuildingBlock: OJICUG_clean_linker_0, # of connection points: 2
#     Edge 61, Type (0, 0), BuildingBlock: OJICUG_clean_linker_0, # of connection points: 2
#     Edge 62, Type (0, 0), BuildingBlock: OJICUG_clean_linker_0, # of connection points: 2
#     Edge 63, Type (0, 0), BuildingBlock: OJICUG_clean_linker_0, # of connection points: 2
#     Edge 64, Type (0, 0), BuildingBlock: OJICUG_clean_linker_0, # of connection points: 2
#     Edge 65, Type (0, 0), BuildingBlock: OJICUG_clean_linker_0, # of connection points: 2
#     Edge 66, Type (0, 0), BuildingBlock: OJICUG_clean_linker_0, # of connection points: 2
#     Edge 67, Type (0, 0), BuildingBlock: OJICUG_clean_linker_0, # of connection points: 2
#     Edge 68, Type (0, 0), BuildingBlock: OJICUG_clean_linker_0, # of connection points: 2
#     Edge 69, Type (0, 0), BuildingBlock: OJICUG_clean_linker_0, # of connection points: 2
#     Edge 70, Type (0, 0), BuildingBlock: OJICUG_clean_linker_0, # of connection points: 2
#     Edge 71, Type (0, 0), BuildingBlock: OJICUG_clean_linker_0, # of connection points: 2
#     Edge 72, Type (0, 0), BuildingBlock: OJICUG_clean_linker_0, # of connection points: 2
#     Edge 73, Type (0, 0), BuildingBlock: OJICUG_clean_linker_0, # of connection points: 2
#     Edge 74, Type (0, 0), BuildingBlock: OJICUG_clean_linker_0, # of connection points: 2
#     Edge 75, Type (0, 0), BuildingBlock: OJICUG_clean_linker_0, # of connection points: 2
#     Edge 76, Type (0, 0), BuildingBlock: OJICUG_clean_linker_0, # of connection points: 2
#     Edge 77, Type (0, 0), BuildingBlock: OJICUG_clean_linker_0, # of connection points: 2
#     Edge 78, Type (0, 0), BuildingBlock: OJICUG_clean_linker_0, # of connection points: 2
#     Edge 79, Type (0, 0), BuildingBlock: OJICUG_clean_linker_0, # of connection points: 2
#     Edge 80, Type (0, 0), BuildingBlock: OJICUG_clean_linker_0, # of connection points: 2
#     Edge 81, Type (0, 0), BuildingBlock: OJICUG_clean_linker_0, # of connection points: 2
#     Edge 82, Type (0, 0), BuildingBlock: OJICUG_clean_linker_0, # of connection points: 2
#     Edge 83, Type (0, 0), BuildingBlock: OJICUG_clean_linker_0, # of connection points: 2
#     Edge 84, Type (0, 0), BuildingBlock: OJICUG_clean_linker_0, # of connection points: 2
#     Edge 85, Type (0, 0), BuildingBlock: OJICUG_clean_linker_0, # of connection points: 2
#     Edge 86, Type (0, 0), BuildingBlock: OJICUG_clean_linker_0, # of connection points: 2
#     Edge 87, Type (0, 0), BuildingBlock: OJICUG_clean_linker_0, # of connection points: 2
#     Edge 88, Type (0, 0), BuildingBlock: OJICUG_clean_linker_0, # of connection points: 2
#     Edge 89, Type (0, 0), BuildingBlock: OJICUG_clean_linker_0, # of connection points: 2
#     Edge 90, Type (0, 0), BuildingBlock: OJICUG_clean_linker_0, # of connection points: 2
#     Edge 91, Type (0, 0), BuildingBlock: OJICUG_clean_linker_0, # of connection points: 2
#     Edge 92, Type (0, 0), BuildingBlock: OJICUG_clean_linker_0, # of connection points: 2
#     Edge 93, Type (0, 0), BuildingBlock: OJICUG_clean_linker_0, # of connection points: 2
#     Edge 94, Type (0, 0), BuildingBlock: OJICUG_clean_linker_0, # of connection points: 2
#     Edge 95, Type (0, 0), BuildingBlock: OJICUG_clean_linker_0, # of connection points: 2
# Relax obj value: 0.156
# Max RMSD: 0.154
# Mean RMSD: 0.154
data_MOF--net-uod--node1-QUQFOY_clean_sbu_3--edge1-OJICUG_clean_linker_0
_symmetry_space_group_name_H-M    P1
_symmetry_Int_Tables_number       1
_symmetry_cell_setting            triclinic
loop_
_symmetry_equiv_pos_as_xyz
'x, y, z'
_cell_length_a     66.897398
_cell_length_b     20.110699
_cell_length_c     47.836601
_cell_angle_alpha  90.028914
_cell_angle_beta   90.007742
_cell_angle_gamma 90.067739
loop_
_atom_site_label
_atom_site_type_symbol
_atom_site_fract_x
_atom_site_fract_y
_atom_site_fract_z
_atom_type_partial_charge
C0 C 0.01239 0.191 0.12662 0.0
O1 O 0.01269 0.20088 0.1528 0.0
Cd2 Cd 0.02798 0.30019 0.171 0.0
O3 O 0.01884 0.23557 0.11017 0.0
Cd4 Cd 0.03086 0.34902 0.11646 0.0
C5 C 0.07474 0.30191 0.14017 0.0
O6 O 0.01234 0.4013 0.15353 0.0
O7 O 0.04366 0.42168 0.15321 0.0
O8 O 1.00465 0.38907 0.08621 0.0
C9 C 0.02609 0.44445 0.1557 0.0
O10 O 0.0648 0.29632 0.16283 0.0
C11 C 0.01553 0.42427 0.07039 0.0
O12 O 0.06576 0.31601 0.11742 0.0
O13 O 0.03429 0.42233 0.07485 0.0
C14 C 0.22435 0.96521 0.0941 0.0
O15 O 0.22154 0.9316 0.11618 0.0
Cd16 Cd 0.2055 0.82736 0.11864 0.0
O17 O 0.21994 0.94156 0.07015 0.0
Cd18 Cd 0.20897 0.83393 0.0507 0.0
C19 C 0.16287 0.85604 0.07776 0.0
O20 O 0.22211 0.76177 0.08566 0.0
O21 O 0.19746 0.72298 0.06143 0.0
O22 O 0.23997 0.82372 0.02514 0.0
C23 C 0.21087 0.71333 0.07966 0.0
O24 O 0.17165 0.8441 0.10088 0.0
C25 C 0.23213 0.80782 0.00197 0.0
O26 O 0.17278 0.85974 0.05492 0.0
O27 O 0.21311 0.80978 0.00056 0.0
C28 C 0.01293 0.92545 0.08802 0.0
O29 O 0.01404 0.90757 0.06263 0.0
Cd30 Cd 0.03044 0.80308 0.05201 0.0
O31 O 0.01967 0.88807 0.10713 0.0
Cd32 Cd 0.03483 0.78012 0.11188 0.0
C33 C 0.07676 0.83164 0.08181 0.0
O34 O 0.01759 0.71007 0.07959 0.0
O35 O 0.04903 0.6916 0.08376 0.0
O36 O 0.00905 0.7468 0.14406 0.0
C37 C 0.03139 0.66843 0.08461 0.0
O38 O 0.06669 0.82276 0.05946 0.0
C39 C 0.02027 0.72889 0.16398 0.0
O40 O 0.06846 0.82457 0.10564 0.0
O41 O 0.03899 0.73735 0.16056 0.0
C42 C 0.22264 0.24099 0.11294 0.0
O43 O 0.21834 0.28024 0.09309 0.0
Cd44 Cd 0.20118 0.38102 0.10071 0.0
O45 O 0.21908 0.25668 0.1383 0.0
Cd46 Cd 0.20721 0.35089 0.1668 0.0
C47 C 0.16102 0.32339 0.14142 0.0
O48 O 0.21935 0.43418 0.13646 0.0
O49 O 0.19525 0.46507 0.16347 0.0
O50 O 0.23935 0.34759 0.18961 0.0
C51 C 0.20893 0.48077 0.14637 0.0
O52 O 0.16869 0.34667 0.11906 0.0
C53 C 0.23311 0.36451 0.21358 0.0
O54 O 0.17169 0.31533 0.16337 0.0
O55 O 0.21421 0.36611 0.21698 0.0
C56 C 0.9851 0.72065 0.88649 0.0
O57 O 0.98304 0.68801 0.86397 0.0
Cd58 Cd 0.96373 0.58991 0.85994 0.0
O59 O 0.97785 0.69901 0.90937 0.0
Cd60 Cd 0.96143 0.59816 0.92722 0.0
C61 C 0.91903 0.63691 0.89182 0.0
O62 O 0.97553 0.51887 0.89544 0.0
O63 O 0.94817 0.48954 0.91608 0.0
O64 O 0.98917 0.5854 0.95934 0.0
C65 C 0.96273 0.47417 0.90045 0.0
O66 O 0.92908 0.62032 0.87027 0.0
C67 C 0.97872 0.57164 0.98067 0.0
O68 O 0.92715 0.6376 0.91606 0.0
O69 O 0.95982 0.57586 0.97792 0.0
C70 C 0.76766 0.9489 0.89513 0.0
O71 O 0.76849 0.96364 0.8694 0.0
Cd72 Cd 0.78874 0.04917 0.85063 0.0
O73 O 0.77656 -0.01536 0.91318 0.0
Cd74 Cd 0.79247 0.0947 0.91077 0.0
C75 C 0.83511 0.03813 0.88271 0.0
O76 O 0.77838 0.15083 0.87014 0.0
O77 O 0.80856 0.17658 0.88272 0.0
O78 O 0.76532 0.14619 0.93617 0.0
C79 C 0.79309 0.19042 0.86864 0.0
O80 O 0.82432 0.03443 0.86079 0.0
C81 C 0.77563 0.17035 0.95592 0.0
O82 O 0.82729 0.05408 0.90619 0.0
O83 O 0.79422 0.15643 0.95592 0.0
C84 C 0.98597 -0.00522 0.8738 0.0
O85 O 0.98382 0.0342 0.8943 0.0
Cd86 Cd 0.96453 0.13294 0.8908 0.0
O87 O 0.97866 0.00846 0.84988 0.0
Cd88 Cd 0.96111 0.09576 0.82399 0.0
C89 C 0.92013 0.06556 0.86434 0.0
O90 O 0.97539 0.18552 0.84928 0.0
O91 O 0.94839 0.20858 0.82658 0.0
O92 O 0.98846 0.09215 0.79086 0.0
C93 C 0.96299 0.22874 0.84118 0.0
O94 O 0.93024 0.09319 0.88377 0.0
C95 C 0.97781 0.09833 0.76911 0.0
O96 O 0.9278 0.056 0.84013 0.0
O97 O 0.95892 0.09662 0.77253 0.0
C98 C 0.76696 0.68104 0.89676 0.0
O99 O 0.77129 0.63868 0.91541 0.0
Cd100 Cd 0.79176 0.54605 0.90273 0.0
O101 O 0.77311 0.67416 0.87175 0.0
Cd102 Cd 0.79094 0.6007 0.8399 0.0
C103 C 0.83378 0.62666 0.87624 0.0
O104 O 0.77955 0.49883 0.86007 0.0
O105 O 0.80605 0.49458 0.83391 0.0
O106 O 0.7613 0.60351 0.8111 0.0
C107 C 0.792 0.46436 0.84629 0.0
O108 O 0.82495 0.59286 0.8951 0.0
C109 C 0.77032 0.60264 0.78782 0.0
O110 O 0.82484 0.64128 0.85339 0.0
O111 O 0.78922 0.61071 0.78851 0.0
C112 C 0.01473 0.71875 0.64997 0.0
O113 O 0.01455 0.73156 0.67595 0.0
Cd114 Cd 0.02897 0.83416 0.69277 0.0
O115 O 0.02131 0.76174 0.63283 0.0
Cd116 Cd 0.03382 0.876 0.63654 0.0
C117 C 0.07652 0.82668 0.66425 0.0
O118 O 0.01427 0.93272 0.67091 0.0
O119 O 0.04555 0.95261 0.67278 0.0
O120 O 0.00848 0.91429 0.60474 0.0
C121 C 0.02803 0.97622 0.67088 0.0
O122 O 0.0659 0.82489 0.68641 0.0
C123 C 0.01971 0.94722 0.58854 0.0
O124 O 0.06842 0.84002 0.64077 0.0
O125 O 0.03842 0.94429 0.59333 0.0
C126 C 0.22023 0.4413 0.6228 0.0
O127 O 0.21582 0.41077 0.64515 0.0
Cd128 Cd 0.19856 0.30994 0.64864 0.0
O129 O 0.21663 0.41564 0.59889 0.0
Cd130 Cd 0.20479 0.30443 0.58247 0.0
C131 C 0.15813 0.33771 0.60356 0.0
O132 O 0.21736 0.23926 0.62028 0.0
O133 O 0.19181 0.19849 0.59857 0.0
O134 O 0.23605 0.28303 0.55913 0.0
C135 C 0.20611 0.19018 0.61557 0.0
O136 O 0.16579 0.32803 0.62762 0.0
C137 C 0.22865 0.25753 0.53723 0.0
O138 O 0.16902 0.3362 0.5816 0.0
O139 O 0.20974 0.2613 0.53446 0.0
C140 C 0.0111 0.45089 0.61024 0.0
O141 O 0.01134 0.43726 0.58435 0.0
Cd142 Cd 0.02507 0.33198 0.56904 0.0
O143 O 0.01664 0.40747 0.62785 0.0
Cd144 Cd 0.02816 0.29257 0.625 0.0
C145 C 0.07171 0.33906 0.60043 0.0
O146 O 0.01023 0.232 0.59049 0.0
O147 O 0.0418 0.22017 0.58813 0.0
O148 O 1.0022 0.25273 0.65571 0.0
C149 C 0.02495 0.19224 0.59114 0.0
O150 O 0.06194 0.34026 0.57749 0.0
C151 C 0.01341 0.22243 0.67281 0.0
O152 O 0.06272 0.32718 0.62338 0.0
O153 O 0.03217 0.22716 0.66876 0.0
C154 C 0.22348 0.71635 0.64369 0.0
O155 O 0.2202 0.75844 0.62448 0.0
Cd156 Cd 0.20563 0.86424 0.63211 0.0
O157 O 0.22005 0.7303 0.66928 0.0
Cd158 Cd 0.20927 0.82423 0.69895 0.0
C159 C 0.16304 0.81617 0.67004 0.0
O160 O 0.22229 0.91073 0.67067 0.0
O161 O 0.19827 0.93839 0.69844 0.0
O162 O 0.24047 0.82261 0.72468 0.0
C163 C 0.21155 0.95604 0.6811 0.0
O164 O 0.17193 0.83915 0.64851 0.0
C165 C 0.23268 0.83301 0.74844 0.0
O166 O 0.17286 0.8015 0.6922 0.0
O167 O 0.21367 0.82955 0.74985 0.0
C168 C 0.97703 0.22971 0.39496 0.0
O169 O 0.97392 0.19172 0.37424 0.0
Cd170 Cd 0.96059 0.08345 0.37615 0.0
O171 O 0.9741 0.20946 0.41995 0.0
Cd172 Cd 0.96426 0.10273 0.4429 0.0
C173 C 0.91773 0.11492 0.41548 0.0
O174 O 0.97986 0.02863 0.41023 0.0
O175 O 0.9554 -0.0131 0.4335 0.0
O176 O 0.99305 0.09963 0.47455 0.0
C177 C 0.96973 0.97793 0.41662 0.0
O178 O 0.92629 0.09818 0.39272 0.0
C179 C 0.98301 0.08595 0.49629 0.0
O180 O 0.92794 0.12445 0.43771 0.0
O181 O 0.96408 0.08653 0.49375 0.0
C182 C 0.7722 0.50642 0.36778 0.0
O183 O 0.77221 0.51871 0.34177 0.0
Cd184 Cd 0.78539 0.62222 0.32433 0.0
O185 O 0.77805 0.55057 0.38496 0.0
Cd186 Cd 0.78974 0.66592 0.38004 0.0
C187 C 0.83293 0.62169 0.35308 0.0
O188 O 0.76958 0.71986 0.34565 0.0
O189 O 0.80073 0.73943 0.34197 0.0
O190 O 0.7656 0.70956 0.41281 0.0
C191 C 0.78332 0.76333 0.34478 0.0
O192 O 0.8225 0.61793 0.33077 0.0
C193 C 0.77776 0.74226 0.42777 0.0
O194 O 0.8245 0.63419 0.37636 0.0
O195 O 0.79622 0.73627 0.42188 0.0
C196 C 0.97825 0.50744 0.37093 0.0
O197 O 0.97574 0.54771 0.39105 0.0
Cd198 Cd 0.96306 0.65687 0.38686 0.0
O199 O 0.97513 0.52539 0.34569 0.0
Cd200 Cd 0.96564 0.62778 0.31961 0.0
C201 C 0.91959 0.62119 0.34908 0.0
O202 O 0.98131 0.70607 0.35021 0.0
O203 O 0.95758 0.74541 0.32483 0.0
O204 O 0.99421 0.62427 0.2878 0.0
C205 C 0.97143 0.75611 0.34234 0.0
O206 O 0.9286 0.64025 0.37119 0.0
C207 C 0.98403 0.63134 0.26562 0.0
O208 O 0.92935 0.60881 0.3267 0.0
O209 O 0.96511 0.63121 0.26832 0.0
C210 C 0.77081 0.23718 0.40663 0.0
O211 O 0.77109 0.22321 0.43248 0.0
Cd212 Cd 0.78432 0.11731 0.44736 0.0
O213 O 0.77604 0.1937 0.38882 0.0
Cd214 Cd 0.78667 0.0773 0.3912 0.0
C215 C 0.83097 0.11783 0.41516 0.0
O216 O 0.76815 0.01966 0.42602 0.0
O217 O 0.79954 0.00407 0.42842 0.0
O218 O 0.75992 0.03999 0.36103 0.0
C219 C 0.78242 0.97817 0.4253 0.0
O220 O 0.82116 0.12185 0.43802 0.0
C221 C 0.77056 0.00697 0.3441 0.0
O222 O 0.82187 0.10583 0.39229 0.0
O223 O 0.78941 0.00955 0.34776 0.0
C224 C 0.52245 0.28441 0.63046 0.0
O225 O 0.52614 0.32775 0.64901 0.0
Cd226 Cd 0.54624 0.4222 0.63592 0.0
O227 O 0.52872 0.2919 0.60558 0.0
Cd228 Cd 0.54613 0.36652 0.57413 0.0
C229 C 0.58851 0.34141 0.6114 0.0
O230 O 0.53587 0.47283 0.59269 0.0
O231 O 0.56279 0.46934 0.56728 0.0
O232 O 0.51738 0.36425 0.5434 0.0
C233 C 0.54939 0.50363 0.57917 0.0
O234 O 0.57973 0.37679 0.62977 0.0
C235 C 0.52714 0.35622 0.52094 0.0
O236 O 0.57955 0.32518 0.58875 0.0
O237 O 0.54584 0.34563 0.52339 0.0
C238 C 0.75143 -0.01767 0.62903 0.0
O239 O 0.74719 0.93998 0.64775 0.0
Cd240 Cd 0.72692 0.84555 0.63646 0.0
O241 O 0.74561 0.97419 0.60392 0.0
Cd242 Cd 0.72818 0.89667 0.57325 0.0
C243 C 0.68528 0.9251 0.60858 0.0
O244 O 0.73816 0.79374 0.5944 0.0
O245 O 0.71106 0.79343 0.56944 0.0
O246 O 0.75671 0.89314 0.54201 0.0
C247 C 0.72454 0.76102 0.58202 0.0
O248 O 0.69367 0.89108 0.62775 0.0
C249 C 0.74655 0.89435 0.51964 0.0
O250 O 0.6947 0.93983 0.58614 0.0
O251 O 0.72791 0.90589 0.52212 0.0
C252 C 0.53057 0.01928 0.62524 0.0
O253 O 0.53289 0.00965 0.59926 0.0
Cd254 Cd 0.55475 0.9286 0.58041 0.0
O255 O 0.53896 -0.01875 0.6429 0.0
Cd256 Cd 0.55649 0.87387 0.63762 0.0
C257 C 0.59949 0.94041 0.61597 0.0
O258 O 0.54317 0.82315 0.59526 0.0
O259 O 0.57305 0.79481 0.60779 0.0
O260 O 0.52975 0.81513 0.66065 0.0
C261 C 0.55736 0.78162 0.594 0.0
O262 O 0.58988 0.94625 0.5931 0.0
C263 C 0.54002 0.78969 0.68012 0.0
O264 O 0.59064 0.91933 0.6379 0.0
O265 O 0.55837 0.80649 0.68128 0.0
C266 C 0.74316 0.24902 0.63072 0.0
O267 O 0.74054 0.26414 0.60526 0.0
Cd268 Cd 0.71884 0.34818 0.589 0.0
O269 O 0.73483 0.28252 0.65003 0.0
Cd270 Cd 0.71648 0.38902 0.65062 0.0
C271 C 0.67398 0.32622 0.62387 0.0
O272 O 0.72995 0.44707 0.61041 0.0
O273 O 0.70056 0.47665 0.62482 0.0
O274 O 0.74305 0.44131 0.67687 0.0
C275 C 0.71596 0.48938 0.61037 0.0
O276 O 0.68393 0.32624 0.60117 0.0
C277 C 0.73252 0.46192 0.69707 0.0
O278 O 0.68236 0.34238 0.64692 0.0
O279 O 0.71415 0.44512 0.69697 0.0
C280 C 0.50468 0.68331 0.35139 0.0
O281 O 0.50408 0.66749 0.32571 0.0
Cd282 Cd 0.48813 0.56438 0.31158 0.0
O283 O 0.49787 0.64365 0.36969 0.0
Cd284 Cd 0.48259 0.53414 0.3701 0.0
C285 C 0.44164 0.59317 0.34019 0.0
O286 O 0.49973 0.46645 0.33719 0.0
O287 O 0.46791 0.45449 0.33769 0.0
O288 O 0.50679 0.49033 0.40241 0.0
C289 C 0.48494 0.42743 0.34026 0.0
O290 O 0.45177 0.58517 0.31784 0.0
C291 C 0.49458 0.46882 0.4205 0.0
O292 O 0.44965 0.58296 0.36401 0.0
O293 O 0.47614 0.48104 0.41628 0.0
C294 C 0.2904 0.01138 0.35617 0.0
O295 O 0.29671 0.05349 0.33854 0.0
Cd296 Cd 0.3155 0.14714 0.3539 0.0
O297 O 0.29324 0.01983 0.38229 0.0
Cd298 Cd 0.30644 0.09961 0.41653 0.0
C299 C 0.35303 0.07016 0.39334 0.0
O300 O 0.29812 0.19782 0.39156 0.0
O301 O 0.32195 0.20636 0.42215 0.0
O302 O 0.27346 0.1019 0.43694 0.0
C303 C 0.30932 0.23443 0.40637 0.0
O304 O 0.3467 0.10143 0.37192 0.0
C305 C 0.27928 0.10908 0.46196 0.0
O306 O 0.34133 0.05746 0.41382 0.0
O307 O 0.29791 0.10146 0.46657 0.0
C308 C 0.50245 0.9506 0.38944 0.0
O309 O 0.50107 0.96159 0.41548 0.0
Cd310 Cd 0.48459 0.06054 0.43195 0.0
O311 O 0.49649 -0.00576 0.37217 0.0
Cd312 Cd 0.48318 0.10731 0.37692 0.0
C313 C 0.43908 0.05413 0.39759 0.0
O314 O 0.49962 0.16344 0.41473 0.0
O315 O 0.46808 0.17795 0.41276 0.0
O316 O 0.5098 0.15166 0.34821 0.0
C317 C 0.48522 0.20444 0.41495 0.0
O318 O 0.44822 0.05068 0.42097 0.0
C319 C 0.49895 0.18729 0.33253 0.0
O320 O 0.44869 0.06932 0.37546 0.0
O321 O 0.48013 0.18241 0.33592 0.0
C322 C 0.29122 0.74141 0.34542 0.0
O323 O 0.29487 0.72424 0.37037 0.0
Cd324 Cd 0.31499 0.6345 0.38423 0.0
O325 O 0.29689 0.70566 0.32496 0.0
Cd326 Cd 0.30984 0.59043 0.32303 0.0
C327 C 0.35626 0.6342 0.33955 0.0
O328 O 0.29938 0.5395 0.36667 0.0
O329 O 0.32667 0.50318 0.34761 0.0
O330 O 0.27864 0.54784 0.30538 0.0
C331 C 0.31284 0.4955 0.36539 0.0
O332 O 0.34831 0.63991 0.36365 0.0
C333 C 0.28564 0.51825 0.28417 0.0
O334 O 0.34549 0.62079 0.3182 0.0
O335 O 0.30423 0.52617 0.2793 0.0
C336 C 0.52421 0.76813 0.14017 0.0
O337 O 0.52571 0.80513 0.16156 0.0
Cd338 Cd 0.54491 0.9041 0.16252 0.0
O339 O 0.53176 0.78545 0.11682 0.0
Cd340 Cd 0.5483 0.88006 0.09425 0.0
C341 C 0.58965 0.84582 0.13318 0.0
O342 O 0.53492 0.96465 0.12301 0.0
O343 O 0.56216 -0.01091 0.10084 0.0
O344 O 0.51926 0.88894 0.06497 0.0
C345 C 0.54781 0.00772 0.11623 0.0
O346 O 0.57912 0.86743 0.15347 0.0
C347 C 0.52847 0.9033 0.04262 0.0
O348 O 0.58231 0.8412 0.10847 0.0
O349 O 0.54748 0.89832 0.04313 0.0
C350 C 0.74269 0.48387 0.1349 0.0
O351 O 0.74187 0.44962 0.15714 0.0
Cd352 Cd 0.72327 0.35033 0.1622 0.0
O353 O 0.73498 0.46257 0.11222 0.0
Cd354 Cd 0.71917 0.36079 0.09398 0.0
C355 C 0.67791 0.40008 0.13231 0.0
O356 O 0.73311 0.28132 0.12522 0.0
O357 O 0.70523 0.2539 0.10536 0.0
O358 O 0.74749 0.34382 0.06354 0.0
C359 C 0.71987 0.23771 0.1207 0.0
O360 O 0.68871 0.38277 0.15304 0.0
C361 C 0.7376 0.32887 0.04183 0.0
O362 O 0.68508 0.40065 0.10743 0.0
O363 O 0.71867 0.33584 0.04323 0.0
C364 C 0.52699 0.49374 0.15265 0.0
O365 O 0.52846 0.45758 0.131 0.0
Cd366 Cd 0.54704 0.35762 0.12869 0.0
O367 O 0.53491 0.47621 0.17573 0.0
Cd368 Cd 0.5524 0.38119 0.19654 0.0
C369 C 0.59318 0.40959 0.15542 0.0
O370 O 0.53722 0.29788 0.16857 0.0
O371 O 0.56496 0.27085 0.18876 0.0
O372 O 0.52509 0.37361 0.22936 0.0
C373 C 0.5499 0.25355 0.17447 0.0
O374 O 0.58202 0.3887 0.13565 0.0
C375 C 0.53563 0.35801 0.25036 0.0
O376 O 0.5863 0.41647 0.18028 0.0
O377 O 0.55454 0.36184 0.2474 0.0
C378 C 0.73955 0.75908 0.14883 0.0
O379 O 0.73785 0.79888 0.12839 0.0
Cd380 Cd 0.71986 0.90023 0.13103 0.0
O381 O 0.73225 0.77308 0.17275 0.0
Cd382 Cd 0.71531 0.86266 0.19842 0.0
C383 C 0.67422 0.84097 0.15688 0.0
O384 O 0.73052 0.95009 0.1731 0.0
O385 O 0.70384 0.97645 0.19594 0.0
O386 O 0.74288 0.85862 0.23112 0.0
C387 C 0.71857 -0.00527 0.18119 0.0
O388 O 0.68511 0.86594 0.13767 0.0
C389 C 0.73254 0.86849 0.25293 0.0
O390 O 0.68131 0.83037 0.18139 0.0
O391 O 0.7136 0.86766 0.24995 0.0
C392 C 0.48851 0.25948 0.88324 0.0
O393 O 0.48485 0.23712 0.85898 0.0
Cd394 Cd 0.46517 0.14394 0.84773 0.0
O395 O 0.48236 0.2291 0.90497 0.0
Cd396 Cd 0.46683 0.11882 0.91289 0.0
C397 C 0.42204 0.16448 0.88772 0.0
O398 O 0.47973 0.05796 0.8735 0.0
O399 O 0.45209 0.02191 0.89162 0.0
O400 O 0.49595 0.0819 0.93853 0.0
C401 C 0.46681 0.01233 0.87548 0.0
O402 O 0.43099 0.15986 0.86428 0.0
C403 C 0.48664 0.05796 0.95927 0.0
O404 O 0.43168 0.15735 0.91062 0.0
O405 O 0.46782 0.06757 0.95997 0.0
C406 C 0.27863 0.5089 0.8334 0.0
O407 O 0.28158 0.53239 0.80917 0.0
Cd408 Cd 0.30056 0.63535 0.80703 0.0
O409 O 0.28494 0.53988 0.85472 0.0
Cd410 Cd 0.30096 0.643 0.86685 0.0
C411 C 0.34441 0.59452 0.84146 0.0
O412 O 0.28776 0.72584 0.83617 0.0
O413 O 0.31867 0.73652 0.84808 0.0
O414 O 0.27154 0.66526 0.89352 0.0
C415 C 0.30162 0.76324 0.84543 0.0
O416 O 0.33565 0.60876 0.81854 0.0
C417 C 0.28006 0.68554 0.91555 0.0
O418 O 0.3348 0.59686 0.8645 0.0
O419 O 0.29908 0.68141 0.91628 0.0
C420 C 0.49396 0.53043 0.87032 0.0
O421 O 0.48904 0.5726 0.88879 0.0
Cd422 Cd 0.47046 0.66908 0.87689 0.0
O423 O 0.49007 0.54045 0.84457 0.0
Cd424 Cd 0.4762 0.62427 0.81266 0.0
C425 C 0.43048 0.59774 0.84061 0.0
O426 O 0.48602 0.72063 0.83803 0.0
O427 O 0.46096 0.73222 0.80973 0.0
O428 O 0.50746 0.62918 0.78739 0.0
C429 C 0.47396 0.75878 0.82545 0.0
O430 O 0.4379 0.62717 0.86184 0.0
C431 C 0.4997 0.63226 0.76325 0.0
O432 O 0.44119 0.58572 0.81902 0.0
O433 O 0.48092 0.62229 0.76169 0.0
C434 C 0.27254 0.24499 0.86892 0.0
O435 O 0.27147 0.23811 0.89522 0.0
Cd436 Cd 0.28894 0.14775 0.91722 0.0
O437 O 0.28062 0.19989 0.85424 0.0
Cd438 Cd 0.29319 0.0887 0.86479 0.0
C439 C 0.33567 0.15225 0.88594 0.0
O440 O 0.27663 0.03872 0.90434 0.0
O441 O 0.30837 0.02706 0.90313 0.0
O442 O 0.26607 0.04011 0.83934 0.0
C443 C 0.29149 0.00026 0.90745 0.0
O444 O 0.32537 0.16045 0.90813 0.0
C445 C 0.27624 0.00143 0.82406 0.0
O446 O 0.32743 0.12967 0.86382 0.0
O447 O 0.29521 0.00613 0.82586 0.0
C448 C 0.04199 0.60579 0.12679 0.0
C449 C 0.02767 0.61619 0.1057 0.0
H450 H 0.0515 0.54673 0.16119 0.0
C451 C 0.01 0.57845 0.10608 0.0
H452 H 0.05546 0.63561 0.12797 0.0
C453 C 0.00785 0.52614 0.12531 0.0
C454 C 0.02327 0.51206 0.1445 0.0
H455 H 0.99847 0.58682 0.09058 0.0
H456 H 0.99503 0.4935 0.12349 0.0
C457 C 0.03955 0.55565 0.14635 0.0
C458 C 0.22802 0.62986 0.10868 0.0
C459 C 0.2102 0.65561 0.09783 0.0
H460 H 0.24141 0.55237 0.13288 0.0
C461 C 0.19178 0.6272 0.10513 0.0
H462 H 0.24232 0.65182 0.10336 0.0
C463 C 0.19122 0.57228 0.12275 0.0
C464 C 0.20912 0.5447 0.13248 0.0
H465 H 0.17787 0.64743 0.09724 0.0
H466 H 0.17695 0.54954 0.12764 0.0
C467 C 0.22749 0.57379 0.12559 0.0
C468 C 0.94465 0.3238 0.86158 0.0
C469 C 0.96284 0.29411 0.8542 0.0
H470 H 0.93043 0.40423 0.88297 0.0
C471 C 0.98096 0.32445 0.86154 0.0
H472 H 0.93052 0.30057 0.8563 0.0
C473 C 0.98091 0.38397 0.87633 0.0
C474 C 0.96274 0.41244 0.88457 0.0
H475 H 0.99512 0.30186 0.85603 0.0
H476 H 0.99503 0.40687 0.88192 0.0
C477 C 0.9446 0.38235 0.87705 0.0
C478 C 0.77348 0.35942 0.85426 0.0
C479 C 0.79124 0.39206 0.84684 0.0
H480 H 0.76003 0.26717 0.86605 0.0
C481 C 0.80859 0.35527 0.84142 0.0
H482 H 0.75984 0.38704 0.85796 0.0
C483 C 0.80872 0.28724 0.84619 0.0
C484 C 0.79139 0.25551 0.85583 0.0
H485 H 0.82239 0.37951 0.8353 0.0
H486 H 0.82263 0.26015 0.84401 0.0
C487 C 0.7735 0.29105 0.85846 0.0
C488 C 0.00749 0.05631 0.64148 0.0
C489 C 0.02593 0.03611 0.65296 0.0
H490 H 0.99252 0.12164 0.6125 0.0
C491 C 0.04347 0.06747 0.64366 0.0
H492 H 0.9937 0.0328 0.64804 0.0
C493 C 0.0429 0.11441 0.62255 0.0
C494 C 0.02465 0.13516 0.61086 0.0
H495 H 0.05799 0.05391 0.65189 0.0
H496 H 0.05703 0.13557 0.61594 0.0
C497 C 0.00684 0.10614 0.62078 0.0
C498 C 0.19125 0.04405 0.65928 0.0
C499 C 0.21008 0.01941 0.66686 0.0
H500 H 0.17523 0.11765 0.63595 0.0
C501 C 0.22751 0.05166 0.65804 0.0
H502 H 0.17768 0.01886 0.66564 0.0
C503 C 0.22614 0.10836 0.64159 0.0
C504 C 0.20735 0.13162 0.63316 0.0
H505 H 0.24214 0.03257 0.66363 0.0
H506 H 0.2397 0.13292 0.63485 0.0
C507 C 0.18991 0.09956 0.64212 0.0
C508 C 0.98859 0.89506 0.38889 0.0
C509 C 0.97023 0.91983 0.3984 0.0
H510 H 1.00329 0.82209 0.3635 0.0
C511 C 0.9523 0.8924 0.3885 0.0
H512 H 1.00254 0.9163 0.39618 0.0
C513 C 0.95273 0.84088 0.36909 0.0
C514 C 0.97109 0.81523 0.35997 0.0
H515 H 0.93799 0.91174 0.39528 0.0
H516 H 0.93873 0.81986 0.36184 0.0
C517 C 0.98901 0.84204 0.37013 0.0
C518 C 0.76359 0.84524 0.37442 0.0
C519 C 0.78182 0.82295 0.36301 0.0
H520 H 0.74927 0.91235 0.40334 0.0
C521 C 0.79967 0.85212 0.37247 0.0
H522 H 0.74957 0.82354 0.36768 0.0
C523 C 0.79956 0.89877 0.39372 0.0
C524 C 0.78153 0.92164 0.40532 0.0
H525 H 0.81407 0.83698 0.36432 0.0
H526 H 0.81389 0.918 0.40051 0.0
C527 C 0.76343 0.89506 0.39517 0.0
C528 C 0.57061 0.67601 0.57557 0.0
C529 C 0.55417 0.71397 0.58406 0.0
H530 H 0.58186 0.57888 0.56713 0.0
C531 C 0.53553 0.68341 0.58814 0.0
H532 H 0.58511 0.6989 0.57244 0.0
C533 C 0.53378 0.6146 0.58592 0.0
C534 C 0.55054 0.57618 0.57903 0.0
H535 H 0.52271 0.71194 0.59503 0.0
H536 H 0.51951 0.59137 0.59041 0.0
C537 C 0.56876 0.60752 0.57276 0.0
C538 C 0.73972 0.65129 0.5918 0.0
C539 C 0.72279 0.68936 0.5855 0.0
H540 H 0.75079 0.55589 0.60383 0.0
C541 C 0.70394 0.659 0.58378 0.0
H542 H 0.75441 0.6739 0.59284 0.0
C543 C 0.70183 0.59215 0.5904 0.0
C544 C 0.71862 0.55489 0.5981 0.0
H545 H 0.6907 0.68758 0.57877 0.0
H546 H 0.68703 0.57022 0.59053 0.0
C547 C 0.73767 0.58398 0.59776 0.0
C548 C 0.50442 0.34051 0.36721 0.0
C549 C 0.48633 0.37297 0.36109 0.0
H550 H 0.51862 0.26115 0.38985 0.0
C551 C 0.46926 0.35674 0.37688 0.0
H552 H 0.51794 0.35324 0.35597 0.0
C553 C 0.46993 0.30754 0.39714 0.0
C554 C 0.48735 0.2702 0.40135 0.0
H555 H 0.45516 0.382 0.37369 0.0
H556 H 0.45622 0.29546 0.40811 0.0
C557 C 0.5049 0.2889 0.38705 0.0
C558 C 0.32936 0.40256 0.38964 0.0
C559 C 0.31173 0.43512 0.38181 0.0
H560 H 0.34228 0.3121 0.40454 0.0
C561 C 0.29313 0.40472 0.38595 0.0
H562 H 0.34382 0.42585 0.3866 0.0
C563 C 0.2923 0.33948 0.39534 0.0
C564 C 0.31002 0.30542 0.40141 0.0
H565 H 0.2794 0.42934 0.37985 0.0
H566 H 0.27793 0.31474 0.39674 0.0
C567 C 0.32848 0.338 0.39985 0.0
C568 C 0.56732 0.1594 0.15218 0.0
C569 C 0.54941 0.19008 0.16014 0.0
H570 H 0.58075 0.07728 0.13104 0.0
C571 C 0.53099 0.16136 0.15318 0.0
H572 H 0.58166 0.1815 0.15717 0.0
C573 C 0.53048 0.10158 0.13869 0.0
C574 C 0.54838 0.07132 0.13045 0.0
H575 H 0.51706 0.18481 0.15918 0.0
H576 H 0.51615 0.07929 0.13373 0.0
C577 C 0.5668 0.10055 0.13705 0.0
C578 C 0.70089 0.0909 0.1608 0.0
C579 C 0.71889 0.05961 0.1679 0.0
H580 H 0.68716 0.17203 0.13932 0.0
C581 C 0.73719 0.08779 0.16002 0.0
H582 H 0.68661 0.06931 0.16651 0.0
C583 C 0.73751 0.14676 0.14492 0.0
C584 C 0.71951 0.17674 0.13695 0.0
H585 H 0.7512 0.06391 0.16534 0.0
H586 H 0.75176 0.168 0.13887 0.0
C587 C 0.7012 0.14888 0.14505 0.0
C588 C 0.45313 0.85532 0.83821 0.0
C589 C 0.47211 0.82754 0.83418 0.0
H590 H 0.43657 0.93672 0.85525 0.0
C591 C 0.48931 0.86349 0.84129 0.0
H592 H 0.43971 0.82783 0.83292 0.0
C593 C 0.48754 0.92596 0.85339 0.0
C594 C 0.46854 0.95177 0.85918 0.0
H595 H 0.50406 0.84244 0.83819 0.0
H596 H 0.50095 0.95236 0.85958 0.0
C597 C 0.45134 0.91698 0.85107 0.0
C598 C 0.27842 0.85222 0.86364 0.0
C599 C 0.29686 0.819 0.86448 0.0
H600 H 0.26152 0.9361 0.87814 0.0
C601 C 0.31081 0.83691 0.8852 0.0
H602 H 0.26706 0.83764 0.84872 0.0
C603 C 0.30735 0.89085 0.90263 0.0
C604 C 0.29016 0.92973 0.89926 0.0
H605 H 0.32484 0.8106 0.8875 0.0
H606 H 0.3191 0.90613 0.91688 0.0
C607 C 0.27507 0.90752 0.88095 0.0
C608 C 0.00915 0.53898 0.00803 0.0
C609 C 0.98818 0.5427 0.00589 0.0
H610 H 0.03432 0.49862 0.03006 0.0
C611 C 0.97645 0.51074 0.02615 0.0
H612 H 0.01863 0.56315 0.99273 0.0
C613 C 0.98544 0.47304 0.0472 0.0
C614 C 0.00637 0.46678 0.04861 0.0
H615 H 0.96028 0.51243 0.02508 0.0
H616 H 0.97591 0.4478 0.06212 0.0
C617 C 0.01817 0.50162 0.02926 0.0
C618 C 0.24718 0.72171 0.93496 0.0
C619 C 0.26807 0.71672 0.938 0.0
H620 H 0.21953 0.75536 0.9524 0.0
C621 C 0.27715 0.7451 0.9616 0.0
H622 H 0.23969 0.70094 0.91687 0.0
C623 C 0.26551 0.77685 0.98194 0.0
C624 C 0.24459 0.78104 0.97901 0.0
H625 H 0.29321 0.74282 0.96436 0.0
H626 H 0.2729 0.79725 0.00018 0.0
C627 C 0.23559 0.75353 0.95519 0.0
C628 C 0.99083 0.6867 0.19074 0.0
C629 C 0.01154 0.69871 0.18946 0.0
H630 H 0.96598 0.65498 0.21551 0.0
C631 C 0.02342 0.68198 0.2126 0.0
H632 H 0.98124 0.69805 0.17314 0.0
C633 C 0.01461 0.65674 0.23698 0.0
C634 C 0.99375 0.64759 0.23862 0.0
H635 H 0.03944 0.68989 0.21213 0.0
H636 H 0.02406 0.64656 0.25485 0.0
C637 C 0.98205 0.66147 0.215 0.0
C638 C 0.23977 0.42634 0.25804 0.0
C639 C 0.24711 0.39395 0.23417 0.0
H640 H 0.2461 0.49155 0.29219 0.0
C641 C 0.26759 0.39979 0.22769 0.0
H642 H 0.22408 0.42332 0.26353 0.0
C643 C 0.28022 0.43974 0.24393 0.0
C644 C 0.27263 0.47463 0.26701 0.0
H645 H 0.27374 0.3757 0.20936 0.0
H646 H 0.29579 0.44432 0.23808 0.0
C647 C 0.25238 0.4662 0.27425 0.0
C648 C 0.77756 0.24345 0.99855 0.0
C649 C 0.7662 0.21405 0.97719 0.0
H650 H 0.7775 0.30408 0.03532 0.0
C651 C 0.74557 0.22777 0.97588 0.0
H652 H 0.79349 0.23456 -2e-05 0.0
C653 C 0.73638 0.26803 0.996 0.0
C654 C 0.74762 0.29565 0.0179 0.0
H655 H 0.73637 0.20649 0.95951 0.0
H656 H 0.72038 0.27569 0.99488 0.0
C657 C 0.76838 0.28381 0.01866 0.0
C658 C 0.97509 0.14221 0.72034 0.0
C659 C 0.98704 0.11819 0.74222 0.0
H660 H 0.97407 0.1943 0.68145 0.0
C661 C 0.00798 0.12314 0.73981 0.0
H662 H 0.95894 0.13924 0.72151 0.0
C663 C 0.01671 0.15515 0.71685 0.0
C664 C 1.00464 0.1832 0.69597 0.0
H665 H 0.01764 0.10492 0.75628 0.0
H666 H 0.03282 0.16002 0.71599 0.0
C667 C 0.98379 0.17447 0.69751 0.0
C668 C 0.73028 0.52573 0.74222 0.0
C669 C 0.74151 0.50429 0.71916 0.0
H670 H 0.73047 0.57561 0.78176 0.0
C671 C 0.7617 0.52378 0.71719 0.0
H672 H 0.71465 0.51241 0.74417 0.0
C673 C 0.77074 0.56063 0.73854 0.0
C674 C 0.75982 0.57878 0.7624 0.0
H675 H 0.77073 0.509 0.69947 0.0
H676 H 0.78654 0.57188 0.73696 0.0
C677 C 0.73933 0.56258 0.76362 0.0
C678 C 0.01377 0.05358 0.52333 0.0
C679 C 0.99283 0.06029 0.52191 0.0
H680 H 0.03883 0.01251 0.54553 0.0
C681 C 0.98116 0.03384 0.5436 0.0
H682 H 0.0232 0.07347 0.50693 0.0
C683 C 0.99006 -0.00182 0.5653 0.0
C684 C 0.01088 -0.01158 0.56602 0.0
H685 H 0.96503 0.03813 0.54324 0.0
H686 H 0.9805 0.97718 0.5813 0.0
C687 C 0.02273 0.01823 0.54528 0.0
C688 C 0.2454 0.14922 0.47658 0.0
C689 C 0.26571 0.13881 0.483 0.0
H690 H 0.21779 0.19568 0.48836 0.0
C691 C 0.27355 0.16719 0.50747 0.0
H692 H 0.23893 0.12854 0.45772 0.0
C693 C 0.26156 0.20682 0.52463 0.0
C694 C 0.24139 0.21866 0.51786 0.0
H695 H 0.28917 0.16098 0.51285 0.0
H696 H 0.26817 0.22831 0.54323 0.0
C697 C 0.23334 0.18851 0.49389 0.0
C698 C 0.23505 0.89477 0.79354 0.0
C699 C 0.24472 0.86324 0.77116 0.0
H700 H 0.23738 0.96372 0.8273 0.0
C701 C 0.2655 0.87248 0.76788 0.0
H702 H 0.21911 0.88893 0.79669 0.0
C703 C 0.27606 0.91586 0.7855 0.0
C704 C 0.26597 0.95132 0.80644 0.0
H705 H 0.27341 0.84888 0.75081 0.0
H706 H 0.29188 0.92367 0.78198 0.0
C707 C 0.24551 0.93856 0.81083 0.0
C708 C 0.74988 0.80297 0.4512 0.0
C709 C 0.77036 0.78746 0.4499 0.0
H710 H 0.72642 0.85162 0.47355 0.0
C711 C 0.78338 0.81619 0.46952 0.0
H712 H 0.7395 0.78294 0.43598 0.0
C713 C 0.77582 0.85575 0.49119 0.0
C714 C 0.75515 0.86815 0.49334 0.0
H715 H 0.79927 0.80615 0.46873 0.0
H716 H 0.78604 0.87412 0.50697 0.0
C717 C 0.7424 0.84335 0.47249 0.0
C718 C 0.76327 0.89573 0.28072 0.0
C719 C 0.74226 0.89261 0.27889 0.0
H720 H 0.78875 0.9345 0.30264 0.0
C721 C 0.73082 0.92297 0.29991 0.0
H722 H 0.77254 0.87276 0.26488 0.0
C723 C 0.74012 0.95917 0.32122 0.0
C724 C 0.76107 0.96561 0.32212 0.0
H725 H 0.71464 0.92176 0.29912 0.0
H726 H 0.7308 -0.01651 0.33665 0.0
C727 C 0.77258 0.93169 0.30217 0.0
C728 C 0.48951 0.41806 0.468 0.0
C729 C 0.50191 0.43105 0.44499 0.0
H730 H 0.48775 0.38276 0.51016 0.0
C731 C 0.52189 0.40928 0.44575 0.0
H732 H 0.47398 0.43328 0.46785 0.0
C733 C 0.52973 0.37961 0.46975 0.0
C734 C 0.51778 0.37135 0.49361 0.0
H735 H 0.53172 0.41714 0.42807 0.0
H736 H 0.54544 0.36671 0.47012 0.0
C737 C 0.49739 0.38869 0.49214 0.0
C738 C 0.54104 0.71949 0.72364 0.0
C739 C 0.5307 0.74243 0.70002 0.0
H740 H 0.53944 0.66488 0.76199 0.0
C741 C 0.51098 0.72041 0.69551 0.0
H742 H 0.55632 0.73482 0.7275 0.0
C743 C 0.50138 0.67971 0.71501 0.0
C744 C 0.51125 0.66028 0.73956 0.0
H745 H 0.50268 0.73618 0.67724 0.0
H746 H 0.48587 0.66654 0.71153 0.0
C747 C 0.5314 0.67889 0.74325 0.0
C748 C 0.52907 0.24235 0.31179 0.0
C749 C 0.50815 0.23495 0.31268 0.0
H750 H 0.55418 0.28873 0.29203 0.0
C751 C 0.49633 0.27519 0.29534 0.0
H752 H 0.53862 0.21312 0.3253 0.0
C753 C 0.5053 0.31917 0.27643 0.0
C754 C 0.52627 0.32407 0.27455 0.0
H755 H 0.48018 0.27177 0.29597 0.0
H756 H 0.49579 0.34741 0.26248 0.0
C757 C 0.53802 0.28654 0.29301 0.0
C758 C 0.48668 -0.01549 0.00168 0.0
C759 C 0.49723 0.01677 0.98026 0.0
H760 H 0.48821 0.92169 0.03766 0.0
C761 C 0.51799 0.00625 0.97803 0.0
H762 H 0.47067 -0.00932 0.00373 0.0
C763 C 0.52806 0.96606 0.9973 0.0
C764 C 0.5176 0.93541 0.01923 0.0
H765 H 0.52655 0.02966 0.96152 0.0
H766 H 0.54413 0.96088 0.99555 0.0
C767 C 0.49674 0.94427 0.02092 0.0
C768 C 0.12851 0.29917 0.16642 0.0
C769 C 0.1392 0.309 0.14146 0.0
H770 H 0.0997 0.28888 0.18567 0.0
C771 C 0.12858 0.30981 0.11605 0.0
H772 H 0.13621 0.29813 0.18633 0.0
C773 C 0.10778 0.30449 0.11564 0.0
C774 C 0.09694 0.29822 0.14063 0.0
H775 H 0.13629 0.31644 0.09633 0.0
H776 H 0.10017 0.30744 0.09568 0.0
C777 C 0.10757 0.29389 0.16601 0.0
C778 C 0.10863 0.8461 0.05427 0.0
C779 C 0.09852 0.84626 0.08012 0.0
H780 H 0.13692 0.84969 0.03307 0.0
C781 C 0.10964 0.8567 0.10463 0.0
H782 H 0.10052 0.83852 0.03493 0.0
C783 C 0.1304 0.86331 0.10352 0.0
C784 C 0.14068 0.85963 0.07788 0.0
H785 H 0.10239 0.85783 0.12487 0.0
H786 H 0.13847 0.8692 0.12301 0.0
C787 C 0.1295 0.85277 0.05315 0.0
C788 C 0.86803 0.65373 0.85775 0.0
C789 C 0.85523 0.64295 0.88055 0.0
H790 H 0.89829 0.66066 0.84346 0.0
C791 C 0.86356 0.63971 0.90758 0.0
H792 H 0.86213 0.65652 0.8367 0.0
C793 C 0.88428 0.64254 0.91154 0.0
C794 C 0.89718 0.64792 0.88852 0.0
H795 H 0.8541 0.63207 0.92568 0.0
H796 H 0.89018 0.63653 0.93247 0.0
C797 C 0.88879 0.65581 0.86168 0.0
C798 C 0.8862 0.026 0.84853 0.0
C799 C 0.89883 0.0486 0.86997 0.0
H800 H 0.85627 0.00369 0.83585 0.0
C801 C 0.89056 0.05943 0.89671 0.0
H802 H 0.89202 0.01664 0.82777 0.0
C803 C 0.87002 0.0519 0.90143 0.0
C804 C 0.8572 0.03337 0.87952 0.0
H805 H 0.89984 0.07623 0.91388 0.0
H806 H 0.86411 0.06372 0.92191 0.0
C807 C 0.86565 0.01846 0.85324 0.0
C808 C 0.13102 0.81671 0.64305 0.0
C809 C 0.14087 0.81061 0.66894 0.0
H810 H 0.1033 0.82605 0.62126 0.0
C811 C 0.12924 0.80476 0.6933 0.0
H812 H 0.13943 0.82076 0.62377 0.0
C813 C 0.10828 0.80797 0.69182 0.0
C814 C 0.09854 0.81688 0.66594 0.0
H815 H 0.13632 0.80013 0.71357 0.0
H816 H 0.09976 0.80532 0.71103 0.0
C817 C 0.11021 0.81975 0.64157 0.0
C818 C 0.1049 0.34425 0.57543 0.0
C819 C 0.09378 0.34688 0.60042 0.0
H820 H 0.13405 0.3394 0.55664 0.0
C821 C 0.10407 0.35259 0.62588 0.0
H822 H 0.09742 0.33994 0.55543 0.0
C823 C 0.12491 0.35256 0.62654 0.0
C824 C 0.13612 0.34651 0.60177 0.0
H825 H 0.09604 0.35543 0.6455 0.0
H826 H 0.13221 0.35537 0.64672 0.0
C827 C 0.12589 0.34398 0.5761 0.0
C828 C 0.86385 0.1306 0.44054 0.0
C829 C 0.85316 0.12279 0.41537 0.0
H830 H 0.89261 0.13451 0.46046 0.0
C831 C 0.86395 0.11615 0.39033 0.0
H832 H 0.85602 0.13589 0.46023 0.0
C833 C 0.88482 0.11525 0.39049 0.0
C834 C 0.89556 0.12104 0.41568 0.0
H835 H 0.85628 0.11026 0.37054 0.0
H836 H 0.89251 0.10887 0.37075 0.0
C837 C 0.88483 0.12981 0.44069 0.0
C838 C 0.88727 0.62225 0.3754 0.0
C839 C 0.89743 0.61564 0.34979 0.0
H840 H 0.85923 0.62869 0.39652 0.0
C841 C 0.88613 0.60684 0.32526 0.0
H842 H 0.89541 0.6286 0.39479 0.0
C843 C 0.86516 0.60699 0.32628 0.0
C844 C 0.85506 0.61569 0.35187 0.0
H845 H 0.89346 0.60155 0.3052 0.0
H846 H 0.85687 0.60174 0.30695 0.0
C847 C 0.86642 0.62219 0.37642 0.0
C848 C 0.622 0.30299 0.59366 0.0
C849 C 0.60993 0.32482 0.61585 0.0
H850 H 0.65171 0.28538 0.57889 0.0
C851 C 0.61899 0.3375 0.64193 0.0
H852 H 0.61554 0.29244 0.57337 0.0
C853 C 0.63973 0.33328 0.64517 0.0
C854 C 0.65196 0.31658 0.62238 0.0
H855 H 0.61013 0.35362 0.65963 0.0
H856 H 0.64622 0.3468 0.66512 0.0
C857 C 0.64278 0.29904 0.59687 0.0
C858 C 0.63306 0.9319 0.63916 0.0
C859 C 0.62155 0.94942 0.61575 0.0
H860 H 0.66216 0.91129 0.65534 0.0
C861 C 0.6315 0.96778 0.59094 0.0
H862 H 0.62596 0.91787 0.65863 0.0
C863 C 0.65236 0.96389 0.58899 0.0
C864 C 0.66373 0.94146 0.61179 0.0
H865 H 0.62314 -0.01796 0.57252 0.0
H866 H 0.65944 0.9751 0.56918 0.0
C867 C 0.65388 0.92793 0.6372 0.0
C868 C 0.40922 0.60375 0.31372 0.0
C869 C 0.42022 0.61184 0.33859 0.0
H870 H 0.38027 0.60475 0.29429 0.0
C871 C 0.41032 0.63487 0.36255 0.0
H872 H 0.41645 0.58631 0.29483 0.0
C873 C 0.38976 0.64633 0.36213 0.0
C874 C 0.37844 0.63427 0.33781 0.0
H875 H 0.41836 0.64258 0.38194 0.0
H876 H 0.38263 0.66203 0.38135 0.0
C877 C 0.38849 0.61457 0.31336 0.0
C878 C 0.40552 0.04049 0.42107 0.0
C879 C 0.41696 0.04697 0.39647 0.0
H880 H 0.37622 0.042 0.4395 0.0
C881 C 0.40692 0.05252 0.37079 0.0
H882 H 0.41276 0.0358 0.44122 0.0
C883 C 0.3861 0.05602 0.36985 0.0
C884 C 0.37467 0.05393 0.39454 0.0
H885 H 0.41517 0.0569 0.35139 0.0
H886 H 0.37898 0.06295 0.34972 0.0
C887 C 0.38456 0.04381 0.42011 0.0
C888 C 0.63859 0.82449 0.1723 0.0
C889 C 0.65266 0.83004 0.15067 0.0
H890 H 0.60767 0.82457 0.18368 0.0
C891 C 0.64572 0.83211 0.12283 0.0
H892 H 0.64337 0.82265 0.19392 0.0
C893 C 0.62521 0.83282 0.11688 0.0
C894 C 0.61115 0.83214 0.13865 0.0
H895 H 0.65614 0.83578 0.10558 0.0
H896 H 0.62042 0.83759 0.09534 0.0
C897 C 0.61809 0.82585 0.16637 0.0
C898 C 0.64241 0.41427 0.11578 0.0
C899 C 0.6564 0.41407 0.13765 0.0
H900 H 0.61151 0.41369 0.10423 0.0
C901 C 0.64938 0.42082 0.16532 0.0
H902 H 0.64723 0.40935 0.09427 0.0
C903 C 0.62887 0.42348 0.1711 0.0
C904 C 0.61484 0.4191 0.14937 0.0
H905 H 0.65972 0.42153 0.18273 0.0
H906 H 0.62404 0.42565 0.19269 0.0
C907 C 0.62188 0.41657 0.12158 0.0
C908 C 0.38941 0.16938 0.86209 0.0
C909 C 0.39989 0.17097 0.88765 0.0
H910 H 0.3611 0.16217 0.84151 0.0
C911 C 0.38887 0.1726 0.91265 0.0
H912 H 0.39733 0.16841 0.84234 0.0
C913 C 0.36792 0.1696 0.91209 0.0
C914 C 0.35758 0.16416 0.88652 0.0
H915 H 0.39641 0.17397 0.93268 0.0
H916 H 0.3599 0.16874 0.93174 0.0
C917 C 0.36857 0.16563 0.86155 0.0
C918 C 0.3981 0.58384 0.86617 0.0
C919 C 0.40869 0.58371 0.84073 0.0
H920 H 0.36959 0.58621 0.88644 0.0
C921 C 0.39789 0.57818 0.81565 0.0
H922 H 0.40596 0.58736 0.88592 0.0
C923 C 0.37694 0.57798 0.81596 0.0
C924 C 0.36635 0.58266 0.84136 0.0
H925 H 0.40558 0.57795 0.79572 0.0
H926 H 0.36906 0.57707 0.79618 0.0
C927 C 0.3772 0.58301 0.8665 0.0
C928 C 1.00233 0.00728 0.12392 0.0
C929 C 0.00681 -0.00675 0.09581 0.0
H930 H 1.00034 0.08142 0.15576 0.0
C931 C 0.00907 0.04596 0.0769 0.0
H932 H 1.00018 0.96747 0.13888 0.0
C933 C 0.00925 0.11146 0.08662 0.0
C934 C 0.00709 0.12494 0.11536 0.0
H935 H 0.01243 0.03654 0.0551 0.0
H936 H 0.01251 0.15096 0.07192 0.0
C937 C 1.00246 0.07259 0.13361 0.0
C938 C 0.22731 0.07948 0.07441 0.0
C939 C 0.22993 0.03561 0.09692 0.0
H940 H 0.22319 0.18035 0.06184 0.0
C941 C 0.23476 0.06124 0.1234 0.0
H942 H 0.22392 0.06112 0.05365 0.0
C943 C 0.23427 0.12944 0.12813 0.0
C944 C 0.22903 0.17286 0.10641 0.0
H945 H 0.23738 0.02855 0.14102 0.0
H946 H 0.23651 0.14756 0.14923 0.0
C947 C 0.22689 0.14784 0.07913 0.0
C948 C 0.99182 0.83049 0.90871 0.0
C949 C 0.99274 0.78918 0.88506 0.0
H950 H 0.98939 0.93016 0.92369 0.0
C951 C 0.99735 0.81722 0.85894 0.0
H952 H 0.9888 0.81013 0.92924 0.0
C953 C 0.99762 0.88595 0.85576 0.0
C954 C 0.99346 0.92721 0.87868 0.0
H955 H 0.99875 0.78652 0.84044 0.0
H956 H 0.99917 0.90642 0.83492 0.0
C957 C 0.99224 0.89935 0.90554 0.0
C958 C 0.76723 0.8498 0.92623 0.0
C959 C 0.75952 0.88362 0.90291 0.0
H960 H 0.7751 0.75476 0.94297 0.0
C961 C 0.74785 0.84872 0.88341 0.0
H962 H 0.77596 0.87581 0.94188 0.0
C963 C 0.74734 0.77967 0.88411 0.0
C964 C 0.7584 0.74539 0.90436 0.0
H965 H 0.7412 0.874 0.86571 0.0
H966 H 0.74056 0.75324 0.86676 0.0
C967 C 0.76663 0.78043 0.92698 0.0
C968 C 0.00901 0.63828 0.61083 0.0
C969 C 0.00947 0.65156 0.63971 0.0
H970 H 0.00876 0.56413 0.57874 0.0
C971 C 0.00712 0.59859 0.65854 0.0
H972 H 0.01054 0.67812 0.59575 0.0
C973 C 0.00614 0.53322 0.64877 0.0
C974 C 0.00737 0.51957 0.61997 0.0
H975 H 0.00724 0.60713 0.6809 0.0
H976 H 0.0055 0.4932 0.6639 0.0
C977 C 0.00789 0.57291 0.60105 0.0
C978 C 0.22392 0.55593 0.60348 0.0
C979 C 0.22699 0.51064 0.62535 0.0
H980 H 0.22062 0.65811 0.59217 0.0
C981 C 0.23333 0.53429 0.65155 0.0
H982 H 0.21923 0.539 0.583 0.0
C983 C 0.23399 0.60221 0.65689 0.0
C984 C 0.22845 0.6475 0.63603 0.0
H985 H 0.2363 0.50033 0.66863 0.0
H986 H 0.23743 0.61892 0.67788 0.0
C987 C 0.22468 0.62415 0.6088 0.0
C988 C 0.98405 0.3903 0.35571 0.0
C989 C 0.98235 0.43702 0.37735 0.0
H990 H 0.98409 0.28777 0.34439 0.0
C991 C 0.98222 0.41471 0.40524 0.0
H992 H 0.98448 0.40588 0.33404 0.0
C993 C 0.98188 0.34683 0.41123 0.0
C994 C 0.98175 0.30017 0.38943 0.0
H995 H 0.98117 0.44952 0.42246 0.0
H996 H 0.98054 0.3312 0.43281 0.0
C997 C 0.98381 0.32251 0.36169 0.0
C998 C 0.76536 0.32006 0.36847 0.0
C999 C 0.76693 0.30597 0.39718 0.0
H1000 H 0.76547 0.39461 0.33664 0.0
C1001 C 0.76726 0.35899 0.41631 0.0
H1002 H 0.76485 0.2803 0.3532 0.0
C1003 C 0.76772 0.42466 0.40678 0.0
C1004 C 0.76772 0.43854 0.37796 0.0
H1005 H 0.76836 0.34983 0.43857 0.0
H1006 H 0.76907 0.46433 0.42199 0.0
C1007 C 0.76568 0.38567 0.35896 0.0
C1008 C 0.52783 0.11537 0.65785 0.0
C1009 C 0.52075 0.08099 0.63427 0.0
H1010 H 0.53309 0.21128 0.67581 0.0
C1011 C 0.5077 0.11321 0.61574 0.0
H1012 H 0.53767 0.09125 0.67269 0.0
C1013 C 0.50491 0.18157 0.61772 0.0
C1014 C 0.5153 0.21801 0.63808 0.0
H1015 H 0.5016 0.0872 0.59782 0.0
H1016 H 0.49707 0.20686 0.601 0.0
C1017 C 0.52504 0.18409 0.6598 0.0
C1018 C 0.74749 0.14858 0.66048 0.0
C1019 C 0.75327 0.18599 0.63706 0.0
H1020 H 0.74314 0.05062 0.67673 0.0
C1021 C 0.76516 0.1562 0.61638 0.0
H1022 H 0.73864 0.17074 0.677 0.0
C1023 C 0.76781 0.08765 0.6163 0.0
C1024 C 0.75855 0.04869 0.63686 0.0
H1025 H 0.77036 0.18454 0.59854 0.0
H1026 H 0.7747 0.06462 0.59822 0.0
C1027 C 0.7502 0.07974 0.66043 0.0
C1028 C 0.509 0.80425 0.34088 0.0
C1029 C 0.50988 0.75163 0.36011 0.0
H1030 H 0.50608 0.90923 0.33514 0.0
C1031 C 0.51219 0.76621 0.38869 0.0
H1032 H 0.50733 0.79464 0.31872 0.0
C1033 C 0.51145 0.8318 0.39813 0.0
C1034 C 0.50831 0.88403 0.37917 0.0
H1035 H 0.51319 0.72668 0.404 0.0
H1036 H 0.51193 0.84097 0.42043 0.0
C1037 C 0.50818 0.86996 0.35034 0.0
C1038 C 0.29129 0.84839 0.31957 0.0
C1039 C 0.28339 0.80859 0.34097 0.0
H1040 H 0.29945 0.94718 0.30754 0.0
C1041 C 0.27221 0.83822 0.36243 0.0
H1042 H 0.2998 0.82646 0.30265 0.0
C1043 C 0.27208 0.90695 0.36532 0.0
C1044 C 0.28307 0.94643 0.34668 0.0
H1045 H 0.26556 0.80822 0.3788 0.0
H1046 H 0.26533 0.92847 0.38382 0.0
C1047 C 0.29111 0.91751 0.32241 0.0
C1048 C 0.51633 0.58918 0.12324 0.0
C1049 C 0.51899 0.56142 0.14992 0.0
H1050 H 0.51554 0.67844 0.09916 0.0
C1051 C 0.51751 0.60241 0.17358 0.0
H1052 H 0.51689 0.55859 0.10461 0.0
C1053 C 0.51656 0.67112 0.17044 0.0
C1054 C 0.51729 0.6993 0.1436 0.0
H1055 H 0.51894 0.58205 0.19445 0.0
H1056 H 0.51742 0.70188 0.189 0.0
C1057 C 0.51556 0.6579 0.12009 0.0
C1058 C 0.75272 0.58204 0.16321 0.0
C1059 C 0.74901 0.55383 0.13683 0.0
H1060 H 0.75271 0.67078 0.18773 0.0
C1061 C 0.74745 0.59559 0.11341 0.0
H1062 H 0.75449 0.55118 0.1816 0.0
C1063 C 0.74661 0.66431 0.11694 0.0
C1064 C 0.74719 0.69168 0.14395 0.0
H1065 H 0.74502 0.57525 0.09271 0.0
H1066 H 0.74351 0.69508 0.09888 0.0
C1067 C 0.75167 0.65059 0.16678 0.0
C1068 C 0.50726 0.35277 0.86206 0.0
C1069 C 0.49726 0.32625 0.88534 0.0
H1070 H 0.51453 0.4407 0.83926 0.0
C1071 C 0.492 0.36833 0.90755 0.0
H1072 H 0.51201 0.321 0.84501 0.0
C1073 C 0.49359 0.43711 0.90431 0.0
C1074 C 0.50035 0.46367 0.87882 0.0
H1075 H 0.48456 0.3489 0.92593 0.0
H1076 H 0.48727 0.46895 0.9203 0.0
C1077 C 0.50876 0.42124 0.85879 0.0
C1078 C 0.26013 0.36136 0.87265 0.0
C1079 C 0.26776 0.30978 0.85606 0.0
H1080 H 0.25719 0.46634 0.87783 0.0
C1081 C 0.27408 0.32411 0.82861 0.0
H1082 H 0.25474 0.35182 0.89363 0.0
C1083 C 0.27539 0.39001 0.81948 0.0
C1084 C 0.27041 0.44192 0.83774 0.0
H1085 H 0.27976 0.28521 0.81512 0.0
H1086 H 0.28223 0.40035 0.79941 0.0
C1087 C 0.26148 0.42696 0.86357 0.0
loop_
_geom_bond_atom_site_label_1
_geom_bond_atom_site_label_2
_geom_bond_distance
_geom_bond_site_symmetry_2
_ccdc_geom_bond_type
C0 O1 1.306 . S
C0 O3 1.160 . S
O1 C0 1.306 . S
O1 Cd2 2.228 . S
Cd2 O1 2.228 . S
Cd2 O6 2.273 . S
Cd2 O10 2.277 . S
O3 C0 1.160 . S
O3 Cd4 2.203 . S
Cd4 O3 2.203 . S
Cd4 O6 2.411 . S
Cd4 O7 2.333 . S
Cd4 O8 2.352 . S
Cd4 O12 2.277 . S
Cd4 O13 2.356 . S
C5 O10 1.209 . S
C5 O12 1.226 . S
O6 Cd2 2.273 . S
O6 Cd4 2.411 . S
O6 C9 1.320 . S
O7 Cd4 2.333 . S
O7 C9 1.214 . S
O8 Cd4 2.352 . S
O8 C11 1.258 . S
C9 O6 1.320 . S
C9 O7 1.214 . S
O10 Cd2 2.277 . S
O10 C5 1.209 . S
C11 O8 1.258 . S
C11 O13 1.282 . S
O12 Cd4 2.277 . S
O12 C5 1.226 . S
O13 Cd4 2.356 . S
O13 C11 1.282 . S
C14 O15 1.306 . S
C14 O17 1.160 . S
O15 C14 1.306 . S
O15 Cd16 2.228 . S
Cd16 O15 2.228 . S
Cd16 O20 2.273 . S
Cd16 O24 2.277 . S
O17 C14 1.160 . S
O17 Cd18 2.203 . S
Cd18 O17 2.203 . S
Cd18 O20 2.411 . S
Cd18 O21 2.333 . S
Cd18 O22 2.352 . S
Cd18 O26 2.277 . S
Cd18 O27 2.356 . S
C19 O24 1.209 . S
C19 O26 1.226 . S
O20 Cd16 2.273 . S
O20 Cd18 2.411 . S
O20 C23 1.320 . S
O21 Cd18 2.333 . S
O21 C23 1.214 . S
O22 Cd18 2.352 . S
O22 C25 1.258 . S
C23 O20 1.320 . S
C23 O21 1.214 . S
O24 Cd16 2.277 . S
O24 C19 1.209 . S
C25 O22 1.258 . S
C25 O27 1.282 . S
O26 Cd18 2.277 . S
O26 C19 1.226 . S
O27 Cd18 2.356 . S
O27 C25 1.282 . S
C28 O29 1.306 . S
C28 O31 1.160 . S
O29 C28 1.306 . S
O29 Cd30 2.228 . S
Cd30 O29 2.228 . S
Cd30 O34 2.273 . S
Cd30 O38 2.277 . S
O31 C28 1.160 . S
O31 Cd32 2.203 . S
Cd32 O31 2.203 . S
Cd32 O34 2.411 . S
Cd32 O35 2.333 . S
Cd32 O36 2.352 . S
Cd32 O40 2.277 . S
Cd32 O41 2.356 . S
C33 O38 1.209 . S
C33 O40 1.226 . S
O34 Cd30 2.273 . S
O34 Cd32 2.411 . S
O34 C37 1.320 . S
O35 Cd32 2.333 . S
O35 C37 1.214 . S
O36 Cd32 2.352 . S
O36 C39 1.258 . S
C37 O34 1.320 . S
C37 O35 1.214 . S
O38 Cd30 2.277 . S
O38 C33 1.209 . S
C39 O36 1.258 . S
C39 O41 1.282 . S
O40 Cd32 2.277 . S
O40 C33 1.226 . S
O41 Cd32 2.356 . S
O41 C39 1.282 . S
C42 O43 1.306 . S
C42 O45 1.160 . S
O43 C42 1.306 . S
O43 Cd44 2.228 . S
Cd44 O43 2.228 . S
Cd44 O48 2.273 . S
Cd44 O52 2.277 . S
O45 C42 1.160 . S
O45 Cd46 2.203 . S
Cd46 O45 2.203 . S
Cd46 O48 2.411 . S
Cd46 O49 2.333 . S
Cd46 O50 2.352 . S
Cd46 O54 2.277 . S
Cd46 O55 2.356 . S
C47 O52 1.209 . S
C47 O54 1.226 . S
O48 Cd44 2.273 . S
O48 Cd46 2.411 . S
O48 C51 1.320 . S
O49 Cd46 2.333 . S
O49 C51 1.214 . S
O50 Cd46 2.352 . S
O50 C53 1.258 . S
C51 O48 1.320 . S
C51 O49 1.214 . S
O52 Cd44 2.277 . S
O52 C47 1.209 . S
C53 O50 1.258 . S
C53 O55 1.282 . S
O54 Cd46 2.277 . S
O54 C47 1.226 . S
O55 Cd46 2.356 . S
O55 C53 1.282 . S
C56 O57 1.306 . S
C56 O59 1.160 . S
O57 C56 1.306 . S
O57 Cd58 2.228 . S
Cd58 O57 2.228 . S
Cd58 O62 2.273 . S
Cd58 O66 2.277 . S
O59 C56 1.160 . S
O59 Cd60 2.203 . S
Cd60 O59 2.203 . S
Cd60 O62 2.411 . S
Cd60 O63 2.333 . S
Cd60 O64 2.352 . S
Cd60 O68 2.277 . S
Cd60 O69 2.356 . S
C61 O66 1.209 . S
C61 O68 1.226 . S
O62 Cd58 2.273 . S
O62 Cd60 2.411 . S
O62 C65 1.320 . S
O63 Cd60 2.333 . S
O63 C65 1.214 . S
O64 Cd60 2.352 . S
O64 C67 1.258 . S
C65 O62 1.320 . S
C65 O63 1.214 . S
O66 Cd58 2.277 . S
O66 C61 1.209 . S
C67 O64 1.258 . S
C67 O69 1.282 . S
O68 Cd60 2.277 . S
O68 C61 1.226 . S
O69 Cd60 2.356 . S
O69 C67 1.282 . S
C70 O71 1.306 . S
C70 O73 1.160 . S
O71 C70 1.306 . S
O71 Cd72 2.228 . S
Cd72 O71 2.228 . S
Cd72 O76 2.273 . S
Cd72 O80 2.277 . S
O73 C70 1.160 . S
O73 Cd74 2.203 . S
Cd74 O73 2.203 . S
Cd74 O76 2.411 . S
Cd74 O77 2.333 . S
Cd74 O78 2.352 . S
Cd74 O82 2.277 . S
Cd74 O83 2.356 . S
C75 O80 1.209 . S
C75 O82 1.226 . S
O76 Cd72 2.273 . S
O76 Cd74 2.411 . S
O76 C79 1.320 . S
O77 Cd74 2.333 . S
O77 C79 1.214 . S
O78 Cd74 2.352 . S
O78 C81 1.258 . S
C79 O76 1.320 . S
C79 O77 1.214 . S
O80 Cd72 2.277 . S
O80 C75 1.209 . S
C81 O78 1.258 . S
C81 O83 1.282 . S
O82 Cd74 2.277 . S
O82 C75 1.226 . S
O83 Cd74 2.356 . S
O83 C81 1.282 . S
C84 O85 1.306 . S
C84 O87 1.160 . S
O85 C84 1.306 . S
O85 Cd86 2.228 . S
Cd86 O85 2.228 . S
Cd86 O90 2.273 . S
Cd86 O94 2.277 . S
O87 C84 1.160 . S
O87 Cd88 2.203 . S
Cd88 O87 2.203 . S
Cd88 O90 2.411 . S
Cd88 O91 2.333 . S
Cd88 O92 2.352 . S
Cd88 O96 2.277 . S
Cd88 O97 2.356 . S
C89 O94 1.209 . S
C89 O96 1.226 . S
O90 Cd86 2.273 . S
O90 Cd88 2.411 . S
O90 C93 1.320 . S
O91 Cd88 2.333 . S
O91 C93 1.214 . S
O92 Cd88 2.352 . S
O92 C95 1.258 . S
C93 O90 1.320 . S
C93 O91 1.214 . S
O94 Cd86 2.277 . S
O94 C89 1.209 . S
C95 O92 1.258 . S
C95 O97 1.282 . S
O96 Cd88 2.277 . S
O96 C89 1.226 . S
O97 Cd88 2.356 . S
O97 C95 1.282 . S
C98 O99 1.306 . S
C98 O101 1.160 . S
O99 C98 1.306 . S
O99 Cd100 2.228 . S
Cd100 O99 2.228 . S
Cd100 O104 2.273 . S
Cd100 O108 2.277 . S
O101 C98 1.160 . S
O101 Cd102 2.203 . S
Cd102 O101 2.203 . S
Cd102 O104 2.411 . S
Cd102 O105 2.333 . S
Cd102 O106 2.352 . S
Cd102 O110 2.277 . S
Cd102 O111 2.356 . S
C103 O108 1.209 . S
C103 O110 1.226 . S
O104 Cd100 2.273 . S
O104 Cd102 2.411 . S
O104 C107 1.320 . S
O105 Cd102 2.333 . S
O105 C107 1.214 . S
O106 Cd102 2.352 . S
O106 C109 1.258 . S
C107 O104 1.320 . S
C107 O105 1.214 . S
O108 Cd100 2.277 . S
O108 C103 1.209 . S
C109 O106 1.258 . S
C109 O111 1.282 . S
O110 Cd102 2.277 . S
O110 C103 1.226 . S
O111 Cd102 2.356 . S
O111 C109 1.282 . S
C112 O113 1.306 . S
C112 O115 1.160 . S
O113 C112 1.306 . S
O113 Cd114 2.228 . S
Cd114 O113 2.228 . S
Cd114 O118 2.273 . S
Cd114 O122 2.277 . S
O115 C112 1.160 . S
O115 Cd116 2.203 . S
Cd116 O115 2.203 . S
Cd116 O118 2.411 . S
Cd116 O119 2.333 1_565 S
Cd116 O120 2.352 . S
Cd116 O124 2.277 . S
Cd116 O125 2.356 . S
C117 O122 1.209 . S
C117 O124 1.226 . S
O118 Cd114 2.273 . S
O118 Cd116 2.411 . S
O118 C121 1.320 1_565 S
O119 Cd116 2.333 1_545 S
O119 C121 1.214 . S
O120 Cd116 2.352 . S
O120 C123 1.258 . S
C121 O118 1.320 1_545 S
C121 O119 1.214 . S
O122 Cd114 2.277 . S
O122 C117 1.209 . S
C123 O120 1.258 . S
C123 O125 1.282 . S
O124 Cd116 2.277 . S
O124 C117 1.226 . S
O125 Cd116 2.356 . S
O125 C123 1.282 . S
C126 O127 1.306 . S
C126 O129 1.160 . S
O127 C126 1.306 . S
O127 Cd128 2.228 . S
Cd128 O127 2.228 . S
Cd128 O132 2.273 . S
Cd128 O136 2.277 . S
O129 C126 1.160 . S
O129 Cd130 2.203 . S
Cd130 O129 2.203 . S
Cd130 O132 2.411 . S
Cd130 O133 2.333 . S
Cd130 O134 2.352 . S
Cd130 O138 2.277 . S
Cd130 O139 2.356 . S
C131 O136 1.209 . S
C131 O138 1.226 . S
O132 Cd128 2.273 . S
O132 Cd130 2.411 . S
O132 C135 1.320 . S
O133 Cd130 2.333 . S
O133 C135 1.214 . S
O134 Cd130 2.352 . S
O134 C137 1.258 . S
C135 O132 1.320 . S
C135 O133 1.214 . S
O136 Cd128 2.277 . S
O136 C131 1.209 . S
C137 O134 1.258 . S
C137 O139 1.282 . S
O138 Cd130 2.277 . S
O138 C131 1.226 . S
O139 Cd130 2.356 . S
O139 C137 1.282 . S
C140 O141 1.306 . S
C140 O143 1.160 . S
O141 C140 1.306 . S
O141 Cd142 2.228 . S
Cd142 O141 2.228 . S
Cd142 O146 2.273 . S
Cd142 O150 2.277 . S
O143 C140 1.160 . S
O143 Cd144 2.203 . S
Cd144 O143 2.203 . S
Cd144 O146 2.411 . S
Cd144 O147 2.333 . S
Cd144 O148 2.352 . S
Cd144 O152 2.277 . S
Cd144 O153 2.356 . S
C145 O150 1.209 . S
C145 O152 1.226 . S
O146 Cd142 2.273 . S
O146 Cd144 2.411 . S
O146 C149 1.320 . S
O147 Cd144 2.333 . S
O147 C149 1.214 . S
O148 Cd144 2.352 . S
O148 C151 1.258 . S
C149 O146 1.320 . S
C149 O147 1.214 . S
O150 Cd142 2.277 . S
O150 C145 1.209 . S
C151 O148 1.258 . S
C151 O153 1.282 . S
O152 Cd144 2.277 . S
O152 C145 1.226 . S
O153 Cd144 2.356 . S
O153 C151 1.282 . S
C154 O155 1.306 . S
C154 O157 1.160 . S
O155 C154 1.306 . S
O155 Cd156 2.228 . S
Cd156 O155 2.228 . S
Cd156 O160 2.273 . S
Cd156 O164 2.277 . S
O157 C154 1.160 . S
O157 Cd158 2.203 . S
Cd158 O157 2.203 . S
Cd158 O160 2.411 . S
Cd158 O161 2.333 1_565 S
Cd158 O162 2.352 . S
Cd158 O166 2.277 . S
Cd158 O167 2.356 . S
C159 O164 1.209 . S
C159 O166 1.226 . S
O160 Cd156 2.273 . S
O160 Cd158 2.411 . S
O160 C163 1.320 1_565 S
O161 Cd158 2.333 1_545 S
O161 C163 1.214 . S
O162 Cd158 2.352 . S
O162 C165 1.258 . S
C163 O160 1.320 1_545 S
C163 O161 1.214 . S
O164 Cd156 2.277 . S
O164 C159 1.209 . S
C165 O162 1.258 . S
C165 O167 1.282 . S
O166 Cd158 2.277 . S
O166 C159 1.226 . S
O167 Cd158 2.356 . S
O167 C165 1.282 . S
C168 O169 1.306 . S
C168 O171 1.160 . S
O169 C168 1.306 . S
O169 Cd170 2.228 . S
Cd170 O169 2.228 . S
Cd170 O174 2.273 . S
Cd170 O178 2.277 . S
O171 C168 1.160 . S
O171 Cd172 2.203 . S
Cd172 O171 2.203 . S
Cd172 O174 2.411 . S
Cd172 O175 2.333 1_545 S
Cd172 O176 2.352 . S
Cd172 O180 2.277 . S
Cd172 O181 2.356 . S
C173 O178 1.209 . S
C173 O180 1.226 . S
O174 Cd170 2.273 . S
O174 Cd172 2.411 . S
O174 C177 1.320 1_545 S
O175 Cd172 2.333 1_565 S
O175 C177 1.214 . S
O176 Cd172 2.352 . S
O176 C179 1.258 . S
C177 O174 1.320 1_565 S
C177 O175 1.214 . S
O178 Cd170 2.277 . S
O178 C173 1.209 . S
C179 O176 1.258 . S
C179 O181 1.282 . S
O180 Cd172 2.277 . S
O180 C173 1.226 . S
O181 Cd172 2.356 . S
O181 C179 1.282 . S
C182 O183 1.306 . S
C182 O185 1.160 . S
O183 C182 1.306 . S
O183 Cd184 2.228 . S
Cd184 O183 2.228 . S
Cd184 O188 2.273 . S
Cd184 O192 2.277 . S
O185 C182 1.160 . S
O185 Cd186 2.203 . S
Cd186 O185 2.203 . S
Cd186 O188 2.411 . S
Cd186 O189 2.333 . S
Cd186 O190 2.352 . S
Cd186 O194 2.277 . S
Cd186 O195 2.356 . S
C187 O192 1.209 . S
C187 O194 1.226 . S
O188 Cd184 2.273 . S
O188 Cd186 2.411 . S
O188 C191 1.320 . S
O189 Cd186 2.333 . S
O189 C191 1.214 . S
O190 Cd186 2.352 . S
O190 C193 1.258 . S
C191 O188 1.320 . S
C191 O189 1.214 . S
O192 Cd184 2.277 . S
O192 C187 1.209 . S
C193 O190 1.258 . S
C193 O195 1.282 . S
O194 Cd186 2.277 . S
O194 C187 1.226 . S
O195 Cd186 2.356 . S
O195 C193 1.282 . S
C196 O197 1.306 . S
C196 O199 1.160 . S
O197 C196 1.306 . S
O197 Cd198 2.228 . S
Cd198 O197 2.228 . S
Cd198 O202 2.273 . S
Cd198 O206 2.277 . S
O199 C196 1.160 . S
O199 Cd200 2.203 . S
Cd200 O199 2.203 . S
Cd200 O202 2.411 . S
Cd200 O203 2.333 . S
Cd200 O204 2.352 . S
Cd200 O208 2.277 . S
Cd200 O209 2.356 . S
C201 O206 1.209 . S
C201 O208 1.226 . S
O202 Cd198 2.273 . S
O202 Cd200 2.411 . S
O202 C205 1.320 . S
O203 Cd200 2.333 . S
O203 C205 1.214 . S
O204 Cd200 2.352 . S
O204 C207 1.258 . S
C205 O202 1.320 . S
C205 O203 1.214 . S
O206 Cd198 2.277 . S
O206 C201 1.209 . S
C207 O204 1.258 . S
C207 O209 1.282 . S
O208 Cd200 2.277 . S
O208 C201 1.226 . S
O209 Cd200 2.356 . S
O209 C207 1.282 . S
C210 O211 1.306 . S
C210 O213 1.160 . S
O211 C210 1.306 . S
O211 Cd212 2.228 . S
Cd212 O211 2.228 . S
Cd212 O216 2.273 . S
Cd212 O220 2.277 . S
O213 C210 1.160 . S
O213 Cd214 2.203 . S
Cd214 O213 2.203 . S
Cd214 O216 2.411 . S
Cd214 O217 2.333 1_545 S
Cd214 O218 2.352 . S
Cd214 O222 2.277 . S
Cd214 O223 2.356 . S
C215 O220 1.209 . S
C215 O222 1.226 . S
O216 Cd212 2.273 . S
O216 Cd214 2.411 . S
O216 C219 1.320 1_545 S
O217 Cd214 2.333 1_565 S
O217 C219 1.214 . S
O218 Cd214 2.352 . S
O218 C221 1.258 . S
C219 O216 1.320 1_565 S
C219 O217 1.214 . S
O220 Cd212 2.277 . S
O220 C215 1.209 . S
C221 O218 1.258 . S
C221 O223 1.282 . S
O222 Cd214 2.277 . S
O222 C215 1.226 . S
O223 Cd214 2.356 . S
O223 C221 1.282 . S
C224 O225 1.306 . S
C224 O227 1.160 . S
O225 C224 1.306 . S
O225 Cd226 2.228 . S
Cd226 O225 2.228 . S
Cd226 O230 2.273 . S
Cd226 O234 2.277 . S
O227 C224 1.160 . S
O227 Cd228 2.203 . S
Cd228 O227 2.203 . S
Cd228 O230 2.411 . S
Cd228 O231 2.333 . S
Cd228 O232 2.352 . S
Cd228 O236 2.277 . S
Cd228 O237 2.356 . S
C229 O234 1.209 . S
C229 O236 1.226 . S
O230 Cd226 2.273 . S
O230 Cd228 2.411 . S
O230 C233 1.320 . S
O231 Cd228 2.333 . S
O231 C233 1.214 . S
O232 Cd228 2.352 . S
O232 C235 1.258 . S
C233 O230 1.320 . S
C233 O231 1.214 . S
O234 Cd226 2.277 . S
O234 C229 1.209 . S
C235 O232 1.258 . S
C235 O237 1.282 . S
O236 Cd228 2.277 . S
O236 C229 1.226 . S
O237 Cd228 2.356 . S
O237 C235 1.282 . S
C238 O239 1.306 . S
C238 O241 1.160 . S
O239 C238 1.306 . S
O239 Cd240 2.228 . S
Cd240 O239 2.228 . S
Cd240 O244 2.273 . S
Cd240 O248 2.277 . S
O241 C238 1.160 . S
O241 Cd242 2.203 . S
Cd242 O241 2.203 . S
Cd242 O244 2.411 . S
Cd242 O245 2.333 . S
Cd242 O246 2.352 . S
Cd242 O250 2.277 . S
Cd242 O251 2.356 . S
C243 O248 1.209 . S
C243 O250 1.226 . S
O244 Cd240 2.273 . S
O244 Cd242 2.411 . S
O244 C247 1.320 . S
O245 Cd242 2.333 . S
O245 C247 1.214 . S
O246 Cd242 2.352 . S
O246 C249 1.258 . S
C247 O244 1.320 . S
C247 O245 1.214 . S
O248 Cd240 2.277 . S
O248 C243 1.209 . S
C249 O246 1.258 . S
C249 O251 1.282 . S
O250 Cd242 2.277 . S
O250 C243 1.226 . S
O251 Cd242 2.356 . S
O251 C249 1.282 . S
C252 O253 1.306 . S
C252 O255 1.160 . S
O253 C252 1.306 . S
O253 Cd254 2.228 . S
Cd254 O253 2.228 . S
Cd254 O258 2.273 . S
Cd254 O262 2.277 . S
O255 C252 1.160 . S
O255 Cd256 2.203 . S
Cd256 O255 2.203 . S
Cd256 O258 2.411 . S
Cd256 O259 2.333 . S
Cd256 O260 2.352 . S
Cd256 O264 2.277 . S
Cd256 O265 2.356 . S
C257 O262 1.209 . S
C257 O264 1.226 . S
O258 Cd254 2.273 . S
O258 Cd256 2.411 . S
O258 C261 1.320 . S
O259 Cd256 2.333 . S
O259 C261 1.214 . S
O260 Cd256 2.352 . S
O260 C263 1.258 . S
C261 O258 1.320 . S
C261 O259 1.214 . S
O262 Cd254 2.277 . S
O262 C257 1.209 . S
C263 O260 1.258 . S
C263 O265 1.282 . S
O264 Cd256 2.277 . S
O264 C257 1.226 . S
O265 Cd256 2.356 . S
O265 C263 1.282 . S
C266 O267 1.306 . S
C266 O269 1.160 . S
O267 C266 1.306 . S
O267 Cd268 2.228 . S
Cd268 O267 2.228 . S
Cd268 O272 2.273 . S
Cd268 O276 2.277 . S
O269 C266 1.160 . S
O269 Cd270 2.203 . S
Cd270 O269 2.203 . S
Cd270 O272 2.411 . S
Cd270 O273 2.333 . S
Cd270 O274 2.352 . S
Cd270 O278 2.277 . S
Cd270 O279 2.356 . S
C271 O276 1.209 . S
C271 O278 1.226 . S
O272 Cd268 2.273 . S
O272 Cd270 2.411 . S
O272 C275 1.320 . S
O273 Cd270 2.333 . S
O273 C275 1.214 . S
O274 Cd270 2.352 . S
O274 C277 1.258 . S
C275 O272 1.320 . S
C275 O273 1.214 . S
O276 Cd268 2.277 . S
O276 C271 1.209 . S
C277 O274 1.258 . S
C277 O279 1.282 . S
O278 Cd270 2.277 . S
O278 C271 1.226 . S
O279 Cd270 2.356 . S
O279 C277 1.282 . S
C280 O281 1.306 . S
C280 O283 1.160 . S
O281 C280 1.306 . S
O281 Cd282 2.228 . S
Cd282 O281 2.228 . S
Cd282 O286 2.273 . S
Cd282 O290 2.277 . S
O283 C280 1.160 . S
O283 Cd284 2.203 . S
Cd284 O283 2.203 . S
Cd284 O286 2.411 . S
Cd284 O287 2.333 . S
Cd284 O288 2.352 . S
Cd284 O292 2.277 . S
Cd284 O293 2.356 . S
C285 O290 1.209 . S
C285 O292 1.226 . S
O286 Cd282 2.273 . S
O286 Cd284 2.411 . S
O286 C289 1.320 . S
O287 Cd284 2.333 . S
O287 C289 1.214 . S
O288 Cd284 2.352 . S
O288 C291 1.258 . S
C289 O286 1.320 . S
C289 O287 1.214 . S
O290 Cd282 2.277 . S
O290 C285 1.209 . S
C291 O288 1.258 . S
C291 O293 1.282 . S
O292 Cd284 2.277 . S
O292 C285 1.226 . S
O293 Cd284 2.356 . S
O293 C291 1.282 . S
C294 O295 1.306 . S
C294 O297 1.160 . S
O295 C294 1.306 . S
O295 Cd296 2.228 . S
Cd296 O295 2.228 . S
Cd296 O300 2.273 . S
Cd296 O304 2.277 . S
O297 C294 1.160 . S
O297 Cd298 2.203 . S
Cd298 O297 2.203 . S
Cd298 O300 2.411 . S
Cd298 O301 2.333 . S
Cd298 O302 2.352 . S
Cd298 O306 2.277 . S
Cd298 O307 2.356 . S
C299 O304 1.209 . S
C299 O306 1.226 . S
O300 Cd296 2.273 . S
O300 Cd298 2.411 . S
O300 C303 1.320 . S
O301 Cd298 2.333 . S
O301 C303 1.214 . S
O302 Cd298 2.352 . S
O302 C305 1.258 . S
C303 O300 1.320 . S
C303 O301 1.214 . S
O304 Cd296 2.277 . S
O304 C299 1.209 . S
C305 O302 1.258 . S
C305 O307 1.282 . S
O306 Cd298 2.277 . S
O306 C299 1.226 . S
O307 Cd298 2.356 . S
O307 C305 1.282 . S
C308 O309 1.306 . S
C308 O311 1.160 . S
O309 C308 1.306 . S
O309 Cd310 2.228 . S
Cd310 O309 2.228 . S
Cd310 O314 2.273 . S
Cd310 O318 2.277 . S
O311 C308 1.160 . S
O311 Cd312 2.203 . S
Cd312 O311 2.203 . S
Cd312 O314 2.411 . S
Cd312 O315 2.333 . S
Cd312 O316 2.352 . S
Cd312 O320 2.277 . S
Cd312 O321 2.356 . S
C313 O318 1.209 . S
C313 O320 1.226 . S
O314 Cd310 2.273 . S
O314 Cd312 2.411 . S
O314 C317 1.320 . S
O315 Cd312 2.333 . S
O315 C317 1.214 . S
O316 Cd312 2.352 . S
O316 C319 1.258 . S
C317 O314 1.320 . S
C317 O315 1.214 . S
O318 Cd310 2.277 . S
O318 C313 1.209 . S
C319 O316 1.258 . S
C319 O321 1.282 . S
O320 Cd312 2.277 . S
O320 C313 1.226 . S
O321 Cd312 2.356 . S
O321 C319 1.282 . S
C322 O323 1.306 . S
C322 O325 1.160 . S
O323 C322 1.306 . S
O323 Cd324 2.228 . S
Cd324 O323 2.228 . S
Cd324 O328 2.273 . S
Cd324 O332 2.277 . S
O325 C322 1.160 . S
O325 Cd326 2.203 . S
Cd326 O325 2.203 . S
Cd326 O328 2.411 . S
Cd326 O329 2.333 . S
Cd326 O330 2.352 . S
Cd326 O334 2.277 . S
Cd326 O335 2.356 . S
C327 O332 1.209 . S
C327 O334 1.226 . S
O328 Cd324 2.273 . S
O328 Cd326 2.411 . S
O328 C331 1.320 . S
O329 Cd326 2.333 . S
O329 C331 1.214 . S
O330 Cd326 2.352 . S
O330 C333 1.258 . S
C331 O328 1.320 . S
C331 O329 1.214 . S
O332 Cd324 2.277 . S
O332 C327 1.209 . S
C333 O330 1.258 . S
C333 O335 1.282 . S
O334 Cd326 2.277 . S
O334 C327 1.226 . S
O335 Cd326 2.356 . S
O335 C333 1.282 . S
C336 O337 1.306 . S
C336 O339 1.160 . S
O337 C336 1.306 . S
O337 Cd338 2.228 . S
Cd338 O337 2.228 . S
Cd338 O342 2.273 . S
Cd338 O346 2.277 . S
O339 C336 1.160 . S
O339 Cd340 2.203 . S
Cd340 O339 2.203 . S
Cd340 O342 2.411 . S
Cd340 O343 2.333 1_565 S
Cd340 O344 2.352 . S
Cd340 O348 2.277 . S
Cd340 O349 2.356 . S
C341 O346 1.209 . S
C341 O348 1.226 . S
O342 Cd338 2.273 . S
O342 Cd340 2.411 . S
O342 C345 1.320 1_565 S
O343 Cd340 2.333 1_545 S
O343 C345 1.214 . S
O344 Cd340 2.352 . S
O344 C347 1.258 . S
C345 O342 1.320 1_545 S
C345 O343 1.214 . S
O346 Cd338 2.277 . S
O346 C341 1.209 . S
C347 O344 1.258 . S
C347 O349 1.282 . S
O348 Cd340 2.277 . S
O348 C341 1.226 . S
O349 Cd340 2.356 . S
O349 C347 1.282 . S
C350 O351 1.306 . S
C350 O353 1.160 . S
O351 C350 1.306 . S
O351 Cd352 2.228 . S
Cd352 O351 2.228 . S
Cd352 O356 2.273 . S
Cd352 O360 2.277 . S
O353 C350 1.160 . S
O353 Cd354 2.203 . S
Cd354 O353 2.203 . S
Cd354 O356 2.411 . S
Cd354 O357 2.333 . S
Cd354 O358 2.352 . S
Cd354 O362 2.277 . S
Cd354 O363 2.356 . S
C355 O360 1.209 . S
C355 O362 1.226 . S
O356 Cd352 2.273 . S
O356 Cd354 2.411 . S
O356 C359 1.320 . S
O357 Cd354 2.333 . S
O357 C359 1.214 . S
O358 Cd354 2.352 . S
O358 C361 1.258 . S
C359 O356 1.320 . S
C359 O357 1.214 . S
O360 Cd352 2.277 . S
O360 C355 1.209 . S
C361 O358 1.258 . S
C361 O363 1.282 . S
O362 Cd354 2.277 . S
O362 C355 1.226 . S
O363 Cd354 2.356 . S
O363 C361 1.282 . S
C364 O365 1.306 . S
C364 O367 1.160 . S
O365 C364 1.306 . S
O365 Cd366 2.228 . S
Cd366 O365 2.228 . S
Cd366 O370 2.273 . S
Cd366 O374 2.277 . S
O367 C364 1.160 . S
O367 Cd368 2.203 . S
Cd368 O367 2.203 . S
Cd368 O370 2.411 . S
Cd368 O371 2.333 . S
Cd368 O372 2.352 . S
Cd368 O376 2.277 . S
Cd368 O377 2.356 . S
C369 O374 1.209 . S
C369 O376 1.226 . S
O370 Cd366 2.273 . S
O370 Cd368 2.411 . S
O370 C373 1.320 . S
O371 Cd368 2.333 . S
O371 C373 1.214 . S
O372 Cd368 2.352 . S
O372 C375 1.258 . S
C373 O370 1.320 . S
C373 O371 1.214 . S
O374 Cd366 2.277 . S
O374 C369 1.209 . S
C375 O372 1.258 . S
C375 O377 1.282 . S
O376 Cd368 2.277 . S
O376 C369 1.226 . S
O377 Cd368 2.356 . S
O377 C375 1.282 . S
C378 O379 1.306 . S
C378 O381 1.160 . S
O379 C378 1.306 . S
O379 Cd380 2.228 . S
Cd380 O379 2.228 . S
Cd380 O384 2.273 . S
Cd380 O388 2.277 . S
O381 C378 1.160 . S
O381 Cd382 2.203 . S
Cd382 O381 2.203 . S
Cd382 O384 2.411 . S
Cd382 O385 2.333 1_565 S
Cd382 O386 2.352 . S
Cd382 O390 2.277 . S
Cd382 O391 2.356 . S
C383 O388 1.209 . S
C383 O390 1.226 . S
O384 Cd380 2.273 . S
O384 Cd382 2.411 . S
O384 C387 1.320 1_565 S
O385 Cd382 2.333 1_545 S
O385 C387 1.214 . S
O386 Cd382 2.352 . S
O386 C389 1.258 . S
C387 O384 1.320 1_545 S
C387 O385 1.214 . S
O388 Cd380 2.277 . S
O388 C383 1.209 . S
C389 O386 1.258 . S
C389 O391 1.282 . S
O390 Cd382 2.277 . S
O390 C383 1.226 . S
O391 Cd382 2.356 . S
O391 C389 1.282 . S
C392 O393 1.306 . S
C392 O395 1.160 . S
O393 C392 1.306 . S
O393 Cd394 2.228 . S
Cd394 O393 2.228 . S
Cd394 O398 2.273 . S
Cd394 O402 2.277 . S
O395 C392 1.160 . S
O395 Cd396 2.203 . S
Cd396 O395 2.203 . S
Cd396 O398 2.411 . S
Cd396 O399 2.333 1_545 S
Cd396 O400 2.352 . S
Cd396 O404 2.277 . S
Cd396 O405 2.356 . S
C397 O402 1.209 . S
C397 O404 1.226 . S
O398 Cd394 2.273 . S
O398 Cd396 2.411 . S
O398 C401 1.320 1_545 S
O399 Cd396 2.333 1_565 S
O399 C401 1.214 . S
O400 Cd396 2.352 . S
O400 C403 1.258 . S
C401 O398 1.320 1_565 S
C401 O399 1.214 . S
O402 Cd394 2.277 . S
O402 C397 1.209 . S
C403 O400 1.258 . S
C403 O405 1.282 . S
O404 Cd396 2.277 . S
O404 C397 1.226 . S
O405 Cd396 2.356 . S
O405 C403 1.282 . S
C406 O407 1.306 . S
C406 O409 1.160 . S
O407 C406 1.306 . S
O407 Cd408 2.228 . S
Cd408 O407 2.228 . S
Cd408 O412 2.273 . S
Cd408 O416 2.277 . S
O409 C406 1.160 . S
O409 Cd410 2.203 . S
Cd410 O409 2.203 . S
Cd410 O412 2.411 . S
Cd410 O413 2.333 . S
Cd410 O414 2.352 . S
Cd410 O418 2.277 . S
Cd410 O419 2.356 . S
C411 O416 1.209 . S
C411 O418 1.226 . S
O412 Cd408 2.273 . S
O412 Cd410 2.411 . S
O412 C415 1.320 . S
O413 Cd410 2.333 . S
O413 C415 1.214 . S
O414 Cd410 2.352 . S
O414 C417 1.258 . S
C415 O412 1.320 . S
C415 O413 1.214 . S
O416 Cd408 2.277 . S
O416 C411 1.209 . S
C417 O414 1.258 . S
C417 O419 1.282 . S
O418 Cd410 2.277 . S
O418 C411 1.226 . S
O419 Cd410 2.356 . S
O419 C417 1.282 . S
C420 O421 1.306 . S
C420 O423 1.160 . S
O421 C420 1.306 . S
O421 Cd422 2.228 . S
Cd422 O421 2.228 . S
Cd422 O426 2.273 . S
Cd422 O430 2.277 . S
O423 C420 1.160 . S
O423 Cd424 2.203 . S
Cd424 O423 2.203 . S
Cd424 O426 2.411 . S
Cd424 O427 2.333 . S
Cd424 O428 2.352 . S
Cd424 O432 2.277 . S
Cd424 O433 2.356 . S
C425 O430 1.209 . S
C425 O432 1.226 . S
O426 Cd422 2.273 . S
O426 Cd424 2.411 . S
O426 C429 1.320 . S
O427 Cd424 2.333 . S
O427 C429 1.214 . S
O428 Cd424 2.352 . S
O428 C431 1.258 . S
C429 O426 1.320 . S
C429 O427 1.214 . S
O430 Cd422 2.277 . S
O430 C425 1.209 . S
C431 O428 1.258 . S
C431 O433 1.282 . S
O432 Cd424 2.277 . S
O432 C425 1.226 . S
O433 Cd424 2.356 . S
O433 C431 1.282 . S
C434 O435 1.306 . S
C434 O437 1.160 . S
O435 C434 1.306 . S
O435 Cd436 2.228 . S
Cd436 O435 2.228 . S
Cd436 O440 2.273 . S
Cd436 O444 2.277 . S
O437 C434 1.160 . S
O437 Cd438 2.203 . S
Cd438 O437 2.203 . S
Cd438 O440 2.411 . S
Cd438 O441 2.333 1_545 S
Cd438 O442 2.352 . S
Cd438 O446 2.277 . S
Cd438 O447 2.356 . S
C439 O444 1.209 . S
C439 O446 1.226 . S
O440 Cd436 2.273 . S
O440 Cd438 2.411 . S
O440 C443 1.320 1_545 S
O441 Cd438 2.333 1_565 S
O441 C443 1.214 . S
O442 Cd438 2.352 . S
O442 C445 1.258 . S
C443 O440 1.320 1_565 S
C443 O441 1.214 . S
O444 Cd436 2.277 . S
O444 C439 1.209 . S
C445 O442 1.258 . S
C445 O447 1.282 . S
O446 Cd438 2.277 . S
O446 C439 1.226 . S
O447 Cd438 2.356 . S
O447 C445 1.282 . S
C448 C449 1.387 . S
C448 H452 0.950 . S
C448 C457 1.390 . S
C449 C448 1.387 . S
C449 C451 1.387 . S
H450 C457 0.950 . S
C451 C449 1.387 . S
C451 C453 1.390 . S
C451 H455 0.950 . S
H452 C448 0.950 . S
C453 C451 1.390 . S
C453 C454 1.387 . S
C453 H456 0.950 . S
C454 C453 1.387 . S
C454 C457 1.387 . S
H455 C451 0.950 . S
H456 C453 0.950 . S
C457 C448 1.390 . S
C457 H450 0.950 . S
C457 C454 1.387 . S
C458 C459 1.387 . S
C458 H462 0.950 . S
C458 C467 1.390 . S
C459 C458 1.387 . S
C459 C461 1.387 . S
H460 C467 0.950 . S
C461 C459 1.387 . S
C461 C463 1.390 . S
C461 H465 0.950 . S
H462 C458 0.950 . S
C463 C461 1.390 . S
C463 C464 1.387 . S
C463 H466 0.950 . S
C464 C463 1.387 . S
C464 C467 1.387 . S
H465 C461 0.950 . S
H466 C463 0.950 . S
C467 C458 1.390 . S
C467 H460 0.950 . S
C467 C464 1.387 . S
C468 C469 1.387 . S
C468 H472 0.950 . S
C468 C477 1.390 . S
C469 C468 1.387 . S
C469 C471 1.387 . S
H470 C477 0.950 . S
C471 C469 1.387 . S
C471 C473 1.390 . S
C471 H475 0.950 . S
H472 C468 0.950 . S
C473 C471 1.390 . S
C473 C474 1.387 . S
C473 H476 0.950 . S
C474 C473 1.387 . S
C474 C477 1.387 . S
H475 C471 0.950 . S
H476 C473 0.950 . S
C477 C468 1.390 . S
C477 H470 0.950 . S
C477 C474 1.387 . S
C478 C479 1.387 . S
C478 H482 0.950 . S
C478 C487 1.390 . S
C479 C478 1.387 . S
C479 C481 1.387 . S
H480 C487 0.950 . S
C481 C479 1.387 . S
C481 C483 1.390 . S
C481 H485 0.950 . S
H482 C478 0.950 . S
C483 C481 1.390 . S
C483 C484 1.387 . S
C483 H486 0.950 . S
C484 C483 1.387 . S
C484 C487 1.387 . S
H485 C481 0.950 . S
H486 C483 0.950 . S
C487 C478 1.390 . S
C487 H480 0.950 . S
C487 C484 1.387 . S
C488 C489 1.387 . S
C488 H492 0.950 . S
C488 C497 1.390 . S
C489 C488 1.387 . S
C489 C491 1.387 . S
H490 C497 0.950 . S
C491 C489 1.387 . S
C491 C493 1.390 . S
C491 H495 0.950 . S
H492 C488 0.950 . S
C493 C491 1.390 . S
C493 C494 1.387 . S
C493 H496 0.950 . S
C494 C493 1.387 . S
C494 C497 1.387 . S
H495 C491 0.950 . S
H496 C493 0.950 . S
C497 C488 1.390 . S
C497 H490 0.950 . S
C497 C494 1.387 . S
C498 C499 1.387 . S
C498 H502 0.950 . S
C498 C507 1.390 . S
C499 C498 1.387 . S
C499 C501 1.387 . S
H500 C507 0.950 . S
C501 C499 1.387 . S
C501 C503 1.390 . S
C501 H505 0.950 . S
H502 C498 0.950 . S
C503 C501 1.390 . S
C503 C504 1.387 . S
C503 H506 0.950 . S
C504 C503 1.387 . S
C504 C507 1.387 . S
H505 C501 0.950 . S
H506 C503 0.950 . S
C507 C498 1.390 . S
C507 H500 0.950 . S
C507 C504 1.387 . S
C508 C509 1.387 . S
C508 H512 0.950 . S
C508 C517 1.390 . S
C509 C508 1.387 . S
C509 C511 1.387 . S
H510 C517 0.950 . S
C511 C509 1.387 . S
C511 C513 1.390 . S
C511 H515 0.950 . S
H512 C508 0.950 . S
C513 C511 1.390 . S
C513 C514 1.387 . S
C513 H516 0.950 . S
C514 C513 1.387 . S
C514 C517 1.387 . S
H515 C511 0.950 . S
H516 C513 0.950 . S
C517 C508 1.390 . S
C517 H510 0.950 . S
C517 C514 1.387 . S
C518 C519 1.387 . S
C518 H522 0.950 . S
C518 C527 1.390 . S
C519 C518 1.387 . S
C519 C521 1.387 . S
H520 C527 0.950 . S
C521 C519 1.387 . S
C521 C523 1.390 . S
C521 H525 0.950 . S
H522 C518 0.950 . S
C523 C521 1.390 . S
C523 C524 1.387 . S
C523 H526 0.950 . S
C524 C523 1.387 . S
C524 C527 1.387 . S
H525 C521 0.950 . S
H526 C523 0.950 . S
C527 C518 1.390 . S
C527 H520 0.950 . S
C527 C524 1.387 . S
C528 C529 1.387 . S
C528 H532 0.950 . S
C528 C537 1.390 . S
C529 C528 1.387 . S
C529 C531 1.387 . S
H530 C537 0.950 . S
C531 C529 1.387 . S
C531 C533 1.390 . S
C531 H535 0.950 . S
H532 C528 0.950 . S
C533 C531 1.390 . S
C533 C534 1.387 . S
C533 H536 0.950 . S
C534 C533 1.387 . S
C534 C537 1.387 . S
H535 C531 0.950 . S
H536 C533 0.950 . S
C537 C528 1.390 . S
C537 H530 0.950 . S
C537 C534 1.387 . S
C538 C539 1.387 . S
C538 H542 0.950 . S
C538 C547 1.390 . S
C539 C538 1.387 . S
C539 C541 1.387 . S
H540 C547 0.950 . S
C541 C539 1.387 . S
C541 C543 1.390 . S
C541 H545 0.950 . S
H542 C538 0.950 . S
C543 C541 1.390 . S
C543 C544 1.387 . S
C543 H546 0.950 . S
C544 C543 1.387 . S
C544 C547 1.387 . S
H545 C541 0.950 . S
H546 C543 0.950 . S
C547 C538 1.390 . S
C547 H540 0.950 . S
C547 C544 1.387 . S
C548 C549 1.387 . S
C548 H552 0.950 . S
C548 C557 1.390 . S
C549 C548 1.387 . S
C549 C551 1.387 . S
H550 C557 0.950 . S
C551 C549 1.387 . S
C551 C553 1.390 . S
C551 H555 0.950 . S
H552 C548 0.950 . S
C553 C551 1.390 . S
C553 C554 1.387 . S
C553 H556 0.950 . S
C554 C553 1.387 . S
C554 C557 1.387 . S
H555 C551 0.950 . S
H556 C553 0.950 . S
C557 C548 1.390 . S
C557 H550 0.950 . S
C557 C554 1.387 . S
C558 C559 1.387 . S
C558 H562 0.950 . S
C558 C567 1.390 . S
C559 C558 1.387 . S
C559 C561 1.387 . S
H560 C567 0.950 . S
C561 C559 1.387 . S
C561 C563 1.390 . S
C561 H565 0.950 . S
H562 C558 0.950 . S
C563 C561 1.390 . S
C563 C564 1.387 . S
C563 H566 0.950 . S
C564 C563 1.387 . S
C564 C567 1.387 . S
H565 C561 0.950 . S
H566 C563 0.950 . S
C567 C558 1.390 . S
C567 H560 0.950 . S
C567 C564 1.387 . S
C568 C569 1.387 . S
C568 H572 0.950 . S
C568 C577 1.390 . S
C569 C568 1.387 . S
C569 C571 1.387 . S
H570 C577 0.950 . S
C571 C569 1.387 . S
C571 C573 1.390 . S
C571 H575 0.950 . S
H572 C568 0.950 . S
C573 C571 1.390 . S
C573 C574 1.387 . S
C573 H576 0.950 . S
C574 C573 1.387 . S
C574 C577 1.387 . S
H575 C571 0.950 . S
H576 C573 0.950 . S
C577 C568 1.390 . S
C577 H570 0.950 . S
C577 C574 1.387 . S
C578 C579 1.387 . S
C578 H582 0.950 . S
C578 C587 1.390 . S
C579 C578 1.387 . S
C579 C581 1.387 . S
H580 C587 0.950 . S
C581 C579 1.387 . S
C581 C583 1.390 . S
C581 H585 0.950 . S
H582 C578 0.950 . S
C583 C581 1.390 . S
C583 C584 1.387 . S
C583 H586 0.950 . S
C584 C583 1.387 . S
C584 C587 1.387 . S
H585 C581 0.950 . S
H586 C583 0.950 . S
C587 C578 1.390 . S
C587 H580 0.950 . S
C587 C584 1.387 . S
C588 C589 1.387 . S
C588 H592 0.950 . S
C588 C597 1.390 . S
C589 C588 1.387 . S
C589 C591 1.387 . S
H590 C597 0.950 . S
C591 C589 1.387 . S
C591 C593 1.390 . S
C591 H595 0.950 . S
H592 C588 0.950 . S
C593 C591 1.390 . S
C593 C594 1.387 . S
C593 H596 0.950 . S
C594 C593 1.387 . S
C594 C597 1.387 . S
H595 C591 0.950 . S
H596 C593 0.950 . S
C597 C588 1.390 . S
C597 H590 0.950 . S
C597 C594 1.387 . S
C598 C599 1.387 . S
C598 H602 0.950 . S
C598 C607 1.390 . S
C599 C598 1.387 . S
C599 C601 1.387 . S
H600 C607 0.950 . S
C601 C599 1.387 . S
C601 C603 1.390 . S
C601 H605 0.950 . S
H602 C598 0.950 . S
C603 C601 1.390 . S
C603 C604 1.387 . S
C603 H606 0.950 . S
C604 C603 1.387 . S
C604 C607 1.387 . S
H605 C601 0.950 . S
H606 C603 0.950 . S
C607 C598 1.390 . S
C607 H600 0.950 . S
C607 C604 1.387 . S
C608 C609 1.387 1_554 S
C608 H612 0.950 . S
C608 C617 1.390 1_655 S
C609 C608 1.387 1_556 S
C609 C611 1.387 . S
H610 C617 0.950 . S
C611 C609 1.387 . S
C611 C613 1.390 1_655 S
C611 H615 0.950 . S
H612 C608 0.950 . S
C613 C611 1.390 1_455 S
C613 C614 1.387 1_556 S
C613 H616 0.950 . S
C614 C613 1.387 1_554 S
C614 C617 1.387 . S
H615 C611 0.950 . S
H616 C613 0.950 . S
C617 C608 1.390 1_455 S
C617 H610 0.950 . S
C617 C614 1.387 . S
C618 C619 1.387 . S
C618 H622 0.950 . S
C618 C627 1.390 . S
C619 C618 1.387 . S
C619 C621 1.387 1_556 S
H620 C627 0.950 . S
C621 C619 1.387 1_554 S
C621 C623 1.390 . S
C621 H625 0.950 . S
H622 C618 0.950 . S
C623 C621 1.390 . S
C623 C624 1.387 . S
C623 H626 0.950 . S
C624 C623 1.387 . S
C624 C627 1.387 1_554 S
H625 C621 0.950 . S
H626 C623 0.950 . S
C627 C618 1.390 . S
C627 H620 0.950 . S
C627 C624 1.387 1_556 S
C628 C629 1.391 . S
C628 H632 0.950 . S
C628 C637 1.387 1_455 S
C629 C628 1.391 . S
C629 C631 1.387 . S
H630 C637 0.950 . S
C631 C629 1.387 . S
C631 C633 1.387 1_455 S
C631 H635 0.950 . S
H632 C628 0.950 . S
C633 C631 1.387 1_655 S
C633 C634 1.391 . S
C633 H636 0.950 . S
C634 C633 1.391 . S
C634 C637 1.387 . S
H635 C631 0.950 . S
H636 C633 0.950 . S
C637 C628 1.387 1_655 S
C637 H630 0.950 . S
C637 C634 1.387 . S
C638 C639 1.387 . S
C638 H642 0.950 . S
C638 C647 1.390 . S
C639 C638 1.387 . S
C639 C641 1.387 . S
H640 C647 0.950 . S
C641 C639 1.387 . S
C641 C643 1.390 . S
C641 H645 0.950 . S
H642 C638 0.950 . S
C643 C641 1.390 . S
C643 C644 1.387 . S
C643 H646 0.950 . S
C644 C643 1.387 . S
C644 C647 1.387 . S
H645 C641 0.950 . S
H646 C643 0.950 . S
C647 C638 1.390 . S
C647 H640 0.950 . S
C647 C644 1.387 . S
C648 C649 1.387 . S
C648 H652 0.950 . S
C648 C657 1.390 . S
C649 C648 1.387 . S
C649 C651 1.387 1_556 S
H650 C657 0.950 . S
C651 C649 1.387 1_554 S
C651 C653 1.390 . S
C651 H655 0.950 . S
H652 C648 0.950 . S
C653 C651 1.390 . S
C653 C654 1.387 . S
C653 H656 0.950 . S
C654 C653 1.387 . S
C654 C657 1.387 1_554 S
H655 C651 0.950 . S
H656 C653 0.950 . S
C657 C648 1.390 . S
C657 H650 0.950 . S
C657 C654 1.387 1_556 S
C658 C659 1.387 . S
C658 H662 0.950 . S
C658 C667 1.390 . S
C659 C658 1.387 . S
C659 C661 1.387 1_655 S
H660 C667 0.950 . S
C661 C659 1.387 1_455 S
C661 C663 1.390 . S
C661 H665 0.950 . S
H662 C658 0.950 . S
C663 C661 1.390 . S
C663 C664 1.387 . S
C663 H666 0.950 . S
C664 C663 1.387 . S
C664 C667 1.387 1_455 S
H665 C661 0.950 . S
H666 C663 0.950 . S
C667 C658 1.390 . S
C667 H660 0.950 . S
C667 C664 1.387 1_655 S
C668 C669 1.387 . S
C668 H672 0.950 . S
C668 C677 1.390 . S
C669 C668 1.387 . S
C669 C671 1.387 . S
H670 C677 0.950 . S
C671 C669 1.387 . S
C671 C673 1.390 . S
C671 H675 0.950 . S
H672 C668 0.950 . S
C673 C671 1.390 . S
C673 C674 1.387 . S
C673 H676 0.950 . S
C674 C673 1.387 . S
C674 C677 1.387 . S
H675 C671 0.950 . S
H676 C673 0.950 . S
C677 C668 1.390 . S
C677 H670 0.950 . S
C677 C674 1.387 . S
C678 C679 1.387 1_455 S
C678 H682 0.950 . S
C678 C687 1.390 1_545 S
C679 C678 1.387 1_655 S
C679 C681 1.387 . S
H680 C687 0.950 . S
C681 C679 1.387 . S
C681 C683 1.390 1_545 S
C681 H685 0.950 . S
H682 C678 0.950 . S
C683 C681 1.390 1_565 S
C683 C684 1.387 1_655 S
C683 H686 0.950 . S
C684 C683 1.387 1_455 S
C684 C687 1.387 . S
H685 C681 0.950 . S
H686 C683 0.950 . S
C687 C678 1.390 1_565 S
C687 H680 0.950 . S
C687 C684 1.387 . S
C688 C689 1.387 . S
C688 H692 0.950 . S
C688 C697 1.390 . S
C689 C688 1.387 . S
C689 C691 1.387 . S
H690 C697 0.950 . S
C691 C689 1.387 . S
C691 C693 1.390 . S
C691 H695 0.950 . S
H692 C688 0.950 . S
C693 C691 1.390 . S
C693 C694 1.387 . S
C693 H696 0.950 . S
C694 C693 1.387 . S
C694 C697 1.387 . S
H695 C691 0.950 . S
H696 C693 0.950 . S
C697 C688 1.390 . S
C697 H690 0.950 . S
C697 C694 1.387 . S
C698 C699 1.387 . S
C698 H702 0.950 . S
C698 C707 1.390 . S
C699 C698 1.387 . S
C699 C701 1.387 1_565 S
H700 C707 0.950 . S
C701 C699 1.387 1_545 S
C701 C703 1.390 . S
C701 H705 0.950 . S
H702 C698 0.950 . S
C703 C701 1.390 . S
C703 C704 1.387 . S
C703 H706 0.950 . S
C704 C703 1.387 . S
C704 C707 1.387 1_545 S
H705 C701 0.950 . S
H706 C703 0.950 . S
C707 C698 1.390 . S
C707 H700 0.950 . S
C707 C704 1.387 1_565 S
C708 C709 1.387 . S
C708 H712 0.950 . S
C708 C717 1.390 . S
C709 C708 1.387 . S
C709 C711 1.387 . S
H710 C717 0.950 . S
C711 C709 1.387 . S
C711 C713 1.390 . S
C711 H715 0.950 . S
H712 C708 0.950 . S
C713 C711 1.390 . S
C713 C714 1.387 . S
C713 H716 0.950 . S
C714 C713 1.387 . S
C714 C717 1.387 . S
H715 C711 0.950 . S
H716 C713 0.950 . S
C717 C708 1.390 . S
C717 H710 0.950 . S
C717 C714 1.387 . S
C718 C719 1.387 1_545 S
C718 H722 0.950 . S
C718 C727 1.390 . S
C719 C718 1.387 1_565 S
C719 C721 1.387 . S
H720 C727 0.950 . S
C721 C719 1.387 . S
C721 C723 1.390 . S
C721 H725 0.950 . S
H722 C718 0.950 . S
C723 C721 1.390 . S
C723 C724 1.387 1_565 S
C723 H726 0.950 . S
C724 C723 1.387 1_545 S
C724 C727 1.387 . S
H725 C721 0.950 . S
H726 C723 0.950 . S
C727 C718 1.390 . S
C727 H720 0.950 . S
C727 C724 1.387 . S
C728 C729 1.387 . S
C728 H732 0.950 . S
C728 C737 1.390 . S
C729 C728 1.387 . S
C729 C731 1.387 . S
H730 C737 0.950 . S
C731 C729 1.387 . S
C731 C733 1.390 . S
C731 H735 0.950 . S
H732 C728 0.950 . S
C733 C731 1.390 . S
C733 C734 1.387 . S
C733 H736 0.950 . S
C734 C733 1.387 . S
C734 C737 1.387 . S
H735 C731 0.950 . S
H736 C733 0.950 . S
C737 C728 1.390 . S
C737 H730 0.950 . S
C737 C734 1.387 . S
C738 C739 1.387 . S
C738 H742 0.950 . S
C738 C747 1.390 . S
C739 C738 1.387 . S
C739 C741 1.387 . S
H740 C747 0.950 . S
C741 C739 1.387 . S
C741 C743 1.390 . S
C741 H745 0.950 . S
H742 C738 0.950 . S
C743 C741 1.390 . S
C743 C744 1.387 . S
C743 H746 0.950 . S
C744 C743 1.387 . S
C744 C747 1.387 . S
H745 C741 0.950 . S
H746 C743 0.950 . S
C747 C738 1.390 . S
C747 H740 0.950 . S
C747 C744 1.387 . S
C748 C749 1.387 . S
C748 H752 0.950 . S
C748 C757 1.390 . S
C749 C748 1.387 . S
C749 C751 1.387 . S
H750 C757 0.950 . S
C751 C749 1.387 . S
C751 C753 1.390 . S
C751 H755 0.950 . S
H752 C748 0.950 . S
C753 C751 1.390 . S
C753 C754 1.387 . S
C753 H756 0.950 . S
C754 C753 1.387 . S
C754 C757 1.387 . S
H755 C751 0.950 . S
H756 C753 0.950 . S
C757 C748 1.390 . S
C757 H750 0.950 . S
C757 C754 1.387 . S
C758 C759 1.387 1_554 S
C758 H762 0.950 . S
C758 C767 1.390 1_545 S
C759 C758 1.387 1_556 S
C759 C761 1.387 . S
H760 C767 0.950 . S
C761 C759 1.387 . S
C761 C763 1.390 1_545 S
C761 H765 0.950 . S
H762 C758 0.950 . S
C763 C761 1.390 1_565 S
C763 C764 1.387 1_556 S
C763 H766 0.950 . S
C764 C763 1.387 1_554 S
C764 C767 1.387 . S
H765 C761 0.950 . S
H766 C763 0.950 . S
C767 C758 1.390 1_565 S
C767 H760 0.950 . S
C767 C764 1.387 . S
C768 C769 1.387 . S
C768 H772 0.950 . S
C768 C777 1.390 . S
C769 C768 1.387 . S
C769 C771 1.387 . S
H770 C777 0.950 . S
C771 C769 1.387 . S
C771 C773 1.390 . S
C771 H775 0.950 . S
H772 C768 0.950 . S
C773 C771 1.390 . S
C773 C774 1.387 . S
C773 H776 0.950 . S
C774 C773 1.387 . S
C774 C777 1.387 . S
H775 C771 0.950 . S
H776 C773 0.950 . S
C777 C768 1.390 . S
C777 H770 0.950 . S
C777 C774 1.387 . S
C778 C779 1.387 . S
C778 H782 0.950 . S
C778 C787 1.390 . S
C779 C778 1.387 . S
C779 C781 1.387 . S
H780 C787 0.950 . S
C781 C779 1.387 . S
C781 C783 1.390 . S
C781 H785 0.950 . S
H782 C778 0.950 . S
C783 C781 1.390 . S
C783 C784 1.387 . S
C783 H786 0.950 . S
C784 C783 1.387 . S
C784 C787 1.387 . S
H785 C781 0.950 . S
H786 C783 0.950 . S
C787 C778 1.390 . S
C787 H780 0.950 . S
C787 C784 1.387 . S
C788 C789 1.387 . S
C788 H792 0.950 . S
C788 C797 1.390 . S
C789 C788 1.387 . S
C789 C791 1.387 . S
H790 C797 0.950 . S
C791 C789 1.387 . S
C791 C793 1.390 . S
C791 H795 0.950 . S
H792 C788 0.950 . S
C793 C791 1.390 . S
C793 C794 1.387 . S
C793 H796 0.950 . S
C794 C793 1.387 . S
C794 C797 1.387 . S
H795 C791 0.950 . S
H796 C793 0.950 . S
C797 C788 1.390 . S
C797 H790 0.950 . S
C797 C794 1.387 . S
C798 C799 1.387 . S
C798 H802 0.950 . S
C798 C807 1.390 . S
C799 C798 1.387 . S
C799 C801 1.387 . S
H800 C807 0.950 . S
C801 C799 1.387 . S
C801 C803 1.390 . S
C801 H805 0.950 . S
H802 C798 0.950 . S
C803 C801 1.390 . S
C803 C804 1.387 . S
C803 H806 0.950 . S
C804 C803 1.387 . S
C804 C807 1.387 . S
H805 C801 0.950 . S
H806 C803 0.950 . S
C807 C798 1.390 . S
C807 H800 0.950 . S
C807 C804 1.387 . S
C808 C809 1.387 . S
C808 H812 0.950 . S
C808 C817 1.390 . S
C809 C808 1.387 . S
C809 C811 1.387 . S
H810 C817 0.950 . S
C811 C809 1.387 . S
C811 C813 1.390 . S
C811 H815 0.960 . S
H812 C808 0.950 . S
C813 C811 1.390 . S
C813 C814 1.387 . S
C813 H816 0.960 . S
C814 C813 1.387 . S
C814 C817 1.387 . S
H815 C811 0.960 . S
H816 C813 0.960 . S
C817 C808 1.390 . S
C817 H810 0.950 . S
C817 C814 1.387 . S
C818 C819 1.387 . S
C818 H822 0.950 . S
C818 C827 1.390 . S
C819 C818 1.387 . S
C819 C821 1.387 . S
H820 C827 0.950 . S
C821 C819 1.387 . S
C821 C823 1.390 . S
C821 H825 0.950 . S
H822 C818 0.950 . S
C823 C821 1.390 . S
C823 C824 1.387 . S
C823 H826 0.950 . S
C824 C823 1.387 . S
C824 C827 1.387 . S
H825 C821 0.950 . S
H826 C823 0.950 . S
C827 C818 1.390 . S
C827 H820 0.950 . S
C827 C824 1.387 . S
C828 C829 1.387 . S
C828 H832 0.960 . S
C828 C837 1.390 . S
C829 C828 1.387 . S
C829 C831 1.387 . S
H830 C837 0.960 . S
C831 C829 1.387 . S
C831 C833 1.390 . S
C831 H835 0.950 . S
H832 C828 0.960 . S
C833 C831 1.390 . S
C833 C834 1.387 . S
C833 H836 0.950 . S
C834 C833 1.387 . S
C834 C837 1.387 . S
H835 C831 0.950 . S
H836 C833 0.950 . S
C837 C828 1.390 . S
C837 H830 0.960 . S
C837 C834 1.387 . S
C838 C839 1.387 . S
C838 H842 0.950 . S
C838 C847 1.390 . S
C839 C838 1.387 . S
C839 C841 1.387 . S
H840 C847 0.950 . S
C841 C839 1.387 . S
C841 C843 1.390 . S
C841 H845 0.950 . S
H842 C838 0.950 . S
C843 C841 1.390 . S
C843 C844 1.387 . S
C843 H846 0.950 . S
C844 C843 1.387 . S
C844 C847 1.387 . S
H845 C841 0.950 . S
H846 C843 0.950 . S
C847 C838 1.390 . S
C847 H840 0.950 . S
C847 C844 1.387 . S
C848 C849 1.387 . S
C848 H852 0.950 . S
C848 C857 1.390 . S
C849 C848 1.387 . S
C849 C851 1.387 . S
H850 C857 0.950 . S
C851 C849 1.387 . S
C851 C853 1.390 . S
C851 H855 0.950 . S
H852 C848 0.950 . S
C853 C851 1.390 . S
C853 C854 1.387 . S
C853 H856 0.950 . S
C854 C853 1.387 . S
C854 C857 1.387 . S
H855 C851 0.950 . S
H856 C853 0.950 . S
C857 C848 1.390 . S
C857 H850 0.950 . S
C857 C854 1.387 . S
C858 C859 1.387 . S
C858 H862 0.950 . S
C858 C867 1.390 . S
C859 C858 1.387 . S
C859 C861 1.387 . S
H860 C867 0.950 . S
C861 C859 1.387 . S
C861 C863 1.390 . S
C861 H865 0.950 . S
H862 C858 0.950 . S
C863 C861 1.390 . S
C863 C864 1.387 . S
C863 H866 0.950 . S
C864 C863 1.387 . S
C864 C867 1.387 . S
H865 C861 0.950 . S
H866 C863 0.950 . S
C867 C858 1.390 . S
C867 H860 0.950 . S
C867 C864 1.387 . S
C868 C869 1.387 . S
C868 H872 0.950 . S
C868 C877 1.390 . S
C869 C868 1.387 . S
C869 C871 1.387 . S
H870 C877 0.950 . S
C871 C869 1.387 . S
C871 C873 1.390 . S
C871 H875 0.950 . S
H872 C868 0.950 . S
C873 C871 1.390 . S
C873 C874 1.387 . S
C873 H876 0.950 . S
C874 C873 1.387 . S
C874 C877 1.387 . S
H875 C871 0.950 . S
H876 C873 0.950 . S
C877 C868 1.390 . S
C877 H870 0.950 . S
C877 C874 1.387 . S
C878 C879 1.387 . S
C878 H882 0.950 . S
C878 C887 1.390 . S
C879 C878 1.387 . S
C879 C881 1.387 . S
H880 C887 0.950 . S
C881 C879 1.387 . S
C881 C883 1.390 . S
C881 H885 0.950 . S
H882 C878 0.950 . S
C883 C881 1.390 . S
C883 C884 1.387 . S
C883 H886 0.950 . S
C884 C883 1.387 . S
C884 C887 1.387 . S
H885 C881 0.950 . S
H886 C883 0.950 . S
C887 C878 1.390 . S
C887 H880 0.950 . S
C887 C884 1.387 . S
C888 C889 1.387 . S
C888 H892 0.950 . S
C888 C897 1.390 . S
C889 C888 1.387 . S
C889 C891 1.387 . S
H890 C897 0.950 . S
C891 C889 1.387 . S
C891 C893 1.390 . S
C891 H895 0.960 . S
H892 C888 0.950 . S
C893 C891 1.390 . S
C893 C894 1.387 . S
C893 H896 0.960 . S
C894 C893 1.387 . S
C894 C897 1.387 . S
H895 C891 0.960 . S
H896 C893 0.960 . S
C897 C888 1.390 . S
C897 H890 0.950 . S
C897 C894 1.387 . S
C898 C899 1.387 . S
C898 H902 0.950 . S
C898 C907 1.390 . S
C899 C898 1.387 . S
C899 C901 1.387 . S
H900 C907 0.950 . S
C901 C899 1.387 . S
C901 C903 1.390 . S
C901 H905 0.950 . S
H902 C898 0.950 . S
C903 C901 1.390 . S
C903 C904 1.387 . S
C903 H906 0.950 . S
C904 C903 1.387 . S
C904 C907 1.387 . S
H905 C901 0.950 . S
H906 C903 0.950 . S
C907 C898 1.390 . S
C907 H900 0.950 . S
C907 C904 1.387 . S
C908 C909 1.387 . S
C908 H912 0.960 . S
C908 C917 1.390 . S
C909 C908 1.387 . S
C909 C911 1.387 . S
H910 C917 0.960 . S
C911 C909 1.387 . S
C911 C913 1.390 . S
C911 H915 0.950 . S
H912 C908 0.960 . S
C913 C911 1.390 . S
C913 C914 1.387 . S
C913 H916 0.950 . S
C914 C913 1.387 . S
C914 C917 1.387 . S
H915 C911 0.950 . S
H916 C913 0.950 . S
C917 C908 1.390 . S
C917 H910 0.960 . S
C917 C914 1.387 . S
C918 C919 1.387 . S
C918 H922 0.950 . S
C918 C927 1.390 . S
C919 C918 1.387 . S
C919 C921 1.387 . S
H920 C927 0.950 . S
C921 C919 1.387 . S
C921 C923 1.390 . S
C921 H925 0.950 . S
H922 C918 0.950 . S
C923 C921 1.390 . S
C923 C924 1.387 . S
C923 H926 0.950 . S
C924 C923 1.387 . S
C924 C927 1.387 . S
H925 C921 0.950 . S
H926 C923 0.950 . S
C927 C918 1.390 . S
C927 H920 0.950 . S
C927 C924 1.387 . S
C928 C929 1.387 . S
C928 H932 0.950 . S
C928 C937 1.390 . S
C929 C928 1.387 . S
C929 C931 1.387 . S
H930 C937 0.950 . S
C931 C929 1.387 . S
C931 C933 1.390 . S
C931 H935 0.950 . S
H932 C928 0.950 . S
C933 C931 1.390 . S
C933 C934 1.387 . S
C933 H936 0.950 . S
C934 C933 1.387 . S
C934 C937 1.387 . S
H935 C931 0.950 . S
H936 C933 0.950 . S
C937 C928 1.390 . S
C937 H930 0.950 . S
C937 C934 1.387 . S
C938 C939 1.387 . S
C938 H942 0.950 . S
C938 C947 1.390 . S
C939 C938 1.387 . S
C939 C941 1.387 . S
H940 C947 0.950 . S
C941 C939 1.387 . S
C941 C943 1.390 . S
C941 H945 0.950 . S
H942 C938 0.950 . S
C943 C941 1.390 . S
C943 C944 1.387 . S
C943 H946 0.950 . S
C944 C943 1.387 . S
C944 C947 1.387 . S
H945 C941 0.950 . S
H946 C943 0.950 . S
C947 C938 1.390 . S
C947 H940 0.950 . S
C947 C944 1.387 . S
C948 C949 1.387 . S
C948 H952 0.950 . S
C948 C957 1.390 . S
C949 C948 1.387 . S
C949 C951 1.387 . S
H950 C957 0.950 . S
C951 C949 1.387 . S
C951 C953 1.390 . S
C951 H955 0.950 . S
H952 C948 0.950 . S
C953 C951 1.390 . S
C953 C954 1.387 . S
C953 H956 0.950 . S
C954 C953 1.387 . S
C954 C957 1.387 . S
H955 C951 0.950 . S
H956 C953 0.950 . S
C957 C948 1.390 . S
C957 H950 0.950 . S
C957 C954 1.387 . S
C958 C959 1.387 . S
C958 H962 0.950 . S
C958 C967 1.390 . S
C959 C958 1.387 . S
C959 C961 1.387 . S
H960 C967 0.950 . S
C961 C959 1.387 . S
C961 C963 1.390 . S
C961 H965 0.950 . S
H962 C958 0.950 . S
C963 C961 1.390 . S
C963 C964 1.387 . S
C963 H966 0.950 . S
C964 C963 1.387 . S
C964 C967 1.387 . S
H965 C961 0.950 . S
H966 C963 0.950 . S
C967 C958 1.390 . S
C967 H960 0.950 . S
C967 C964 1.387 . S
C968 C969 1.387 . S
C968 H972 0.950 . S
C968 C977 1.390 . S
C969 C968 1.387 . S
C969 C971 1.387 . S
H970 C977 0.950 . S
C971 C969 1.387 . S
C971 C973 1.390 . S
C971 H975 0.950 . S
H972 C968 0.950 . S
C973 C971 1.390 . S
C973 C974 1.387 . S
C973 H976 0.950 . S
C974 C973 1.387 . S
C974 C977 1.387 . S
H975 C971 0.950 . S
H976 C973 0.950 . S
C977 C968 1.390 . S
C977 H970 0.950 . S
C977 C974 1.387 . S
C978 C979 1.387 . S
C978 H982 0.950 . S
C978 C987 1.390 . S
C979 C978 1.387 . S
C979 C981 1.387 . S
H980 C987 0.950 . S
C981 C979 1.387 . S
C981 C983 1.390 . S
C981 H985 0.950 . S
H982 C978 0.950 . S
C983 C981 1.390 . S
C983 C984 1.387 . S
C983 H986 0.950 . S
C984 C983 1.387 . S
C984 C987 1.387 . S
H985 C981 0.950 . S
H986 C983 0.950 . S
C987 C978 1.390 . S
C987 H980 0.950 . S
C987 C984 1.387 . S
C988 C989 1.387 . S
C988 H992 0.950 . S
C988 C997 1.390 . S
C989 C988 1.387 . S
C989 C991 1.387 . S
H990 C997 0.950 . S
C991 C989 1.387 . S
C991 C993 1.390 . S
C991 H995 0.950 . S
H992 C988 0.950 . S
C993 C991 1.390 . S
C993 C994 1.387 . S
C993 H996 0.950 . S
C994 C993 1.387 . S
C994 C997 1.387 . S
H995 C991 0.950 . S
H996 C993 0.950 . S
C997 C988 1.390 . S
C997 H990 0.950 . S
C997 C994 1.387 . S
C998 C999 1.387 . S
C998 H1002 0.950 . S
C998 C1007 1.390 . S
C999 C998 1.387 . S
C999 C1001 1.387 . S
H1000 C1007 0.950 . S
C1001 C999 1.387 . S
C1001 C1003 1.390 . S
C1001 H1005 0.950 . S
H1002 C998 0.950 . S
C1003 C1001 1.390 . S
C1003 C1004 1.387 . S
C1003 H1006 0.950 . S
C1004 C1003 1.387 . S
C1004 C1007 1.387 . S
H1005 C1001 0.950 . S
H1006 C1003 0.950 . S
C1007 C998 1.390 . S
C1007 H1000 0.950 . S
C1007 C1004 1.387 . S
C1008 C1009 1.387 . S
C1008 H1012 0.950 . S
C1008 C1017 1.390 . S
C1009 C1008 1.387 . S
C1009 C1011 1.387 . S
H1010 C1017 0.950 . S
C1011 C1009 1.387 . S
C1011 C1013 1.390 . S
C1011 H1015 0.950 . S
H1012 C1008 0.950 . S
C1013 C1011 1.390 . S
C1013 C1014 1.387 . S
C1013 H1016 0.950 . S
C1014 C1013 1.387 . S
C1014 C1017 1.387 . S
H1015 C1011 0.950 . S
H1016 C1013 0.950 . S
C1017 C1008 1.390 . S
C1017 H1010 0.950 . S
C1017 C1014 1.387 . S
C1018 C1019 1.387 . S
C1018 H1022 0.950 . S
C1018 C1027 1.390 . S
C1019 C1018 1.387 . S
C1019 C1021 1.387 . S
H1020 C1027 0.950 . S
C1021 C1019 1.387 . S
C1021 C1023 1.390 . S
C1021 H1025 0.950 . S
H1022 C1018 0.950 . S
C1023 C1021 1.390 . S
C1023 C1024 1.387 . S
C1023 H1026 0.950 . S
C1024 C1023 1.387 . S
C1024 C1027 1.387 . S
H1025 C1021 0.950 . S
H1026 C1023 0.950 . S
C1027 C1018 1.390 . S
C1027 H1020 0.950 . S
C1027 C1024 1.387 . S
C1028 C1029 1.387 . S
C1028 H1032 0.950 . S
C1028 C1037 1.390 . S
C1029 C1028 1.387 . S
C1029 C1031 1.387 . S
H1030 C1037 0.950 . S
C1031 C1029 1.387 . S
C1031 C1033 1.390 . S
C1031 H1035 0.950 . S
H1032 C1028 0.950 . S
C1033 C1031 1.390 . S
C1033 C1034 1.387 . S
C1033 H1036 0.950 . S
C1034 C1033 1.387 . S
C1034 C1037 1.387 . S
H1035 C1031 0.950 . S
H1036 C1033 0.950 . S
C1037 C1028 1.390 . S
C1037 H1030 0.950 . S
C1037 C1034 1.387 . S
C1038 C1039 1.387 . S
C1038 H1042 0.950 . S
C1038 C1047 1.390 . S
C1039 C1038 1.387 . S
C1039 C1041 1.387 . S
H1040 C1047 0.950 . S
C1041 C1039 1.387 . S
C1041 C1043 1.390 . S
C1041 H1045 0.950 . S
H1042 C1038 0.950 . S
C1043 C1041 1.390 . S
C1043 C1044 1.387 . S
C1043 H1046 0.950 . S
C1044 C1043 1.387 . S
C1044 C1047 1.387 . S
H1045 C1041 0.950 . S
H1046 C1043 0.950 . S
C1047 C1038 1.390 . S
C1047 H1040 0.950 . S
C1047 C1044 1.387 . S
C1048 C1049 1.387 . S
C1048 H1052 0.950 . S
C1048 C1057 1.390 . S
C1049 C1048 1.387 . S
C1049 C1051 1.387 . S
H1050 C1057 0.950 . S
C1051 C1049 1.387 . S
C1051 C1053 1.390 . S
C1051 H1055 0.950 . S
H1052 C1048 0.950 . S
C1053 C1051 1.390 . S
C1053 C1054 1.387 . S
C1053 H1056 0.950 . S
C1054 C1053 1.387 . S
C1054 C1057 1.387 . S
H1055 C1051 0.950 . S
H1056 C1053 0.950 . S
C1057 C1048 1.390 . S
C1057 H1050 0.950 . S
C1057 C1054 1.387 . S
C1058 C1059 1.387 . S
C1058 H1062 0.950 . S
C1058 C1067 1.390 . S
C1059 C1058 1.387 . S
C1059 C1061 1.387 . S
H1060 C1067 0.950 . S
C1061 C1059 1.387 . S
C1061 C1063 1.390 . S
C1061 H1065 0.950 . S
H1062 C1058 0.950 . S
C1063 C1061 1.390 . S
C1063 C1064 1.387 . S
C1063 H1066 0.950 . S
C1064 C1063 1.387 . S
C1064 C1067 1.387 . S
H1065 C1061 0.950 . S
H1066 C1063 0.950 . S
C1067 C1058 1.390 . S
C1067 H1060 0.950 . S
C1067 C1064 1.387 . S
C1068 C1069 1.387 . S
C1068 H1072 0.950 . S
C1068 C1077 1.390 . S
C1069 C1068 1.387 . S
C1069 C1071 1.387 . S
H1070 C1077 0.950 . S
C1071 C1069 1.387 . S
C1071 C1073 1.390 . S
C1071 H1075 0.950 . S
H1072 C1068 0.950 . S
C1073 C1071 1.390 . S
C1073 C1074 1.387 . S
C1073 H1076 0.950 . S
C1074 C1073 1.387 . S
C1074 C1077 1.387 . S
H1075 C1071 0.950 . S
H1076 C1073 0.950 . S
C1077 C1068 1.390 . S
C1077 H1070 0.950 . S
C1077 C1074 1.387 . S
C1078 C1079 1.387 . S
C1078 H1082 0.950 . S
C1078 C1087 1.390 . S
C1079 C1078 1.387 . S
C1079 C1081 1.387 . S
H1080 C1087 0.950 . S
C1081 C1079 1.387 . S
C1081 C1083 1.390 . S
C1081 H1085 0.950 . S
H1082 C1078 0.950 . S
C1083 C1081 1.390 . S
C1083 C1084 1.387 . S
C1083 H1086 0.950 . S
C1084 C1083 1.387 . S
C1084 C1087 1.387 . S
H1085 C1081 0.950 . S
H1086 C1083 0.950 . S
C1087 C1078 1.390 . S
C1087 H1080 0.950 . S
C1087 C1084 1.387 . S
C449 C37 0.798 . S
C454 C9 0.798 . S
C459 C23 0.789 . S
C464 C51 0.789 . S
C469 C93 0.789 . S
C474 C65 0.789 . S
C479 C107 0.798 . S
C484 C79 0.798 . S
C489 C121 0.789 . S
C494 C149 0.789 . S
C499 C163 0.798 . S
C504 C135 0.798 . S
C509 C177 0.798 . S
C514 C205 0.798 . S
C519 C191 0.798 . S
C524 C219 0.798 . S
C529 C261 0.798 . S
C534 C233 0.798 . S
C539 C247 0.789 . S
C544 C275 0.789 . S
C549 C289 0.798 . S
C554 C317 0.798 . S
C559 C331 0.789 . S
C564 C303 0.789 . S
C569 C373 0.798 . S
C574 C345 0.798 . S
C579 C387 0.798 . S
C584 C359 0.798 . S
C589 C429 0.789 . S
C594 C401 0.789 . S
C599 C415 0.798 . S
C604 C443 0.798 . S
C609 C67 1.606 . S
C614 C11 1.606 . S
C619 C417 1.604 . S
C624 C25 1.604 . S
C629 C39 1.607 . S
C634 C207 1.607 . S
C639 C53 1.604 . S
C644 C333 1.604 . S
C649 C81 1.605 . S
C654 C361 1.605 . S
C659 C95 1.606 . S
C664 C151 1.606 . S
C669 C277 1.606 . S
C674 C109 1.606 . S
C679 C179 1.604 . S
C684 C123 1.604 . S
C689 C305 1.604 . S
C694 C137 1.604 . S
C699 C165 1.605 . S
C704 C445 1.605 . S
C709 C193 1.604 . S
C714 C249 1.604 . S
C719 C389 1.607 . S
C724 C221 1.607 . S
C729 C291 1.607 . S
C734 C235 1.607 . S
C739 C263 1.604 . S
C744 C431 1.604 . S
C749 C319 1.605 . S
C754 C375 1.605 . S
C759 C403 1.607 . S
C764 C347 1.607 . S
C769 C47 1.510 . S
C774 C5 1.510 . S
C779 C33 1.511 . S
C784 C19 1.511 . S
C789 C103 1.511 . S
C794 C61 1.511 . S
C799 C89 1.511 . S
C804 C75 1.511 . S
C809 C159 1.510 . S
C814 C117 1.510 . S
C819 C145 1.509 . S
C824 C131 1.509 . S
C829 C215 1.510 . S
C834 C173 1.510 . S
C839 C201 1.509 . S
C844 C187 1.509 . S
C849 C229 1.509 . S
C854 C271 1.509 . S
C859 C257 1.511 . S
C864 C243 1.511 . S
C869 C285 1.509 . S
C874 C327 1.509 . S
C879 C313 1.511 . S
C884 C299 1.511 . S
C889 C383 1.509 . S
C894 C341 1.509 . S
C899 C355 1.511 . S
C904 C369 1.511 . S
C909 C397 1.509 . S
C914 C439 1.509 . S
C919 C425 1.509 . S
C924 C411 1.509 . S
C929 C28 1.532 1_545 S
C934 C0 1.532 . S
C939 C14 1.532 1_545 S
C944 C42 1.532 . S
C949 C56 1.532 . S
C954 C84 1.532 1_565 S
C959 C70 1.532 1_565 S
C964 C98 1.532 . S
C969 C112 1.532 . S
C974 C140 1.532 . S
C979 C126 1.532 . S
C984 C154 1.532 . S
C989 C196 1.532 . S
C994 C168 1.532 . S
C999 C210 1.532 . S
C1004 C182 1.532 . S
C1009 C252 1.532 1_545 S
C1014 C224 1.532 . S
C1019 C266 1.532 . S
C1024 C238 1.532 1_545 S
C1029 C280 1.532 . S
C1034 C308 1.532 1_565 S
C1039 C322 1.532 . S
C1044 C294 1.532 1_565 S
C1049 C364 1.532 . S
C1054 C336 1.532 . S
C1059 C350 1.532 . S
C1064 C378 1.532 . S
C1069 C392 1.532 . S
C1074 C420 1.532 . S
C1079 C434 1.532 . S
C1084 C406 1.532 . S
