# Generated by pormake.
# Topology umx, (4)-cn, num edge types: 1
# Building blocks:
#     Node 0, Type 0, BuildingBlock: GALJAG_clean_sbu_0, # of connection points: 4
#     Node 1, Type 0, BuildingBlock: GALJAG_clean_sbu_0, # of connection points: 4
#     Node 2, Type 0, BuildingBlock: GALJAG_clean_sbu_0, # of connection points: 4
#     Node 3, Type 0, BuildingBlock: GALJAG_clean_sbu_0, # of connection points: 4
#     Node 4, Type 0, BuildingBlock: GALJAG_clean_sbu_0, # of connection points: 4
#     Node 5, Type 0, BuildingBlock: GALJAG_clean_sbu_0, # of connection points: 4
#     Node 6, Type 0, BuildingBlock: GALJAG_clean_sbu_0, # of connection points: 4
#     Node 7, Type 0, BuildingBlock: GALJAG_clean_sbu_0, # of connection points: 4
#     Edge 8, Type (0, 0), BuildingBlock: FUNLAD_clean_linker_1, # of connection points: 2
#     Edge 9, Type (0, 0), BuildingBlock: FUNLAD_clean_linker_1, # of connection points: 2
#     Edge 10, Type (0, 0), BuildingBlock: FUNLAD_clean_linker_1, # of connection points: 2
#     Edge 11, Type (0, 0), BuildingBlock: FUNLAD_clean_linker_1, # of connection points: 2
#     Edge 12, Type (0, 0), BuildingBlock: FUNLAD_clean_linker_1, # of connection points: 2
#     Edge 13, Type (0, 0), BuildingBlock: FUNLAD_clean_linker_1, # of connection points: 2
#     Edge 14, Type (0, 0), BuildingBlock: FUNLAD_clean_linker_1, # of connection points: 2
#     Edge 15, Type (0, 0), BuildingBlock: FUNLAD_clean_linker_1, # of connection points: 2
#     Edge 16, Type (0, 0), BuildingBlock: FUNLAD_clean_linker_1, # of connection points: 2
#     Edge 17, Type (0, 0), BuildingBlock: FUNLAD_clean_linker_1, # of connection points: 2
#     Edge 18, Type (0, 0), BuildingBlock: FUNLAD_clean_linker_1, # of connection points: 2
#     Edge 19, Type (0, 0), BuildingBlock: FUNLAD_clean_linker_1, # of connection points: 2
#     Edge 20, Type (0, 0), BuildingBlock: FUNLAD_clean_linker_1, # of connection points: 2
#     Edge 21, Type (0, 0), BuildingBlock: FUNLAD_clean_linker_1, # of connection points: 2
#     Edge 22, Type (0, 0), BuildingBlock: FUNLAD_clean_linker_1, # of connection points: 2
#     Edge 23, Type (0, 0), BuildingBlock: FUNLAD_clean_linker_1, # of connection points: 2
# Relax obj value: 0.096
# Max RMSD: 0.176
# Mean RMSD: 0.176
data_MOF--net-umx--node1-GALJAG_clean_sbu_0--edge1-FUNLAD_clean_linker_1
_symmetry_space_group_name_H-M    P1
_symmetry_Int_Tables_number       1
_symmetry_cell_setting            triclinic
loop_
_symmetry_equiv_pos_as_xyz
'x, y, z'
_cell_length_a     40.121932
_cell_length_b     40.089386
_cell_length_c     29.943194
_cell_angle_alpha  90.000416
_cell_angle_beta   89.983301
_cell_angle_gamma 89.988265
loop_
_atom_site_label
_atom_site_type_symbol
_atom_site_fract_x
_atom_site_fract_y
_atom_site_fract_z
_atom_type_partial_charge
In0 In 0.16903 0.44936 0.03277 0.0
O1 O 0.20069 0.47849 0.0841 0.0
O2 O 0.16041 0.44819 0.10704 0.0
C3 C 0.18546 0.46595 0.94846 0.0
C4 C 0.1948 0.38752 0.03446 0.0
C5 C 0.1069 0.47371 0.03136 0.0
O6 O 0.20004 0.47928 0.98154 0.0
O7 O 0.1632 0.44504 0.95823 0.0
O8 O 0.11275 0.44266 0.03226 0.0
O9 O 0.13232 0.49232 0.03107 0.0
C10 C 0.18404 0.46749 0.11697 0.0
O11 O 0.16367 0.39239 0.03366 0.0
O12 O 0.2124 0.4136 0.0345 0.0
In13 In 0.55075 0.18345 0.53101 0.0
O14 O 0.607 0.17379 0.53033 0.0
O15 O 0.58975 0.2241 0.53163 0.0
C16 C 0.52457 0.12155 0.52983 0.0
C17 C 0.532 0.20379 0.61266 0.0
C18 C 0.53172 0.20551 0.45028 0.0
O19 O 0.55568 0.12647 0.53008 0.0
O20 O 0.50702 0.14755 0.53013 0.0
O21 O 0.51811 0.21567 0.48576 0.0
O22 O 0.55478 0.18448 0.45562 0.0
C23 C 0.61434 0.20443 0.53084 0.0
O24 O 0.51911 0.21557 0.57761 0.0
O25 O 0.55431 0.1821 0.60645 0.0
In26 In 0.78824 0.53845 0.03152 0.0
O27 O 0.75851 0.50505 0.07959 0.0
O28 O 0.79274 0.54026 0.10676 0.0
C29 C 0.77034 0.52054 0.94811 0.0
C30 C 0.76068 0.59939 0.0349 0.0
C31 C 0.85175 0.51747 0.03019 0.0
O32 O 0.75651 0.50807 0.98221 0.0
O33 O 0.79284 0.54165 0.95628 0.0
O34 O 0.84424 0.54813 0.03037 0.0
O35 O 0.82736 0.4976 0.03076 0.0
C36 C 0.77147 0.51776 0.11415 0.0
O37 O 0.79195 0.59553 0.03413 0.0
O38 O 0.74384 0.57291 0.03353 0.0
In39 In 0.45623 0.8044 0.53203 0.0
O40 O 0.48767 0.78343 0.58976 0.0
O41 O 0.44309 0.81055 0.60456 0.0
C42 C 0.48052 0.78703 0.45185 0.0
C43 C 0.40093 0.7675 0.52897 0.0
C44 C 0.47373 0.86882 0.52848 0.0
O45 O 0.49484 0.77815 0.48768 0.0
O46 O 0.45426 0.804 0.45695 0.0
O47 O 0.44348 0.85991 0.52554 0.0
O48 O 0.49448 0.84548 0.53325 0.0
C49 C 0.468 0.79483 0.61925 0.0
O50 O 0.39971 0.79906 0.52625 0.0
O51 O 0.42973 0.75506 0.5326 0.0
In52 In 0.19659 0.53334 0.53285 0.0
O53 O 0.22975 0.50316 0.48482 0.0
O54 O 0.19302 0.53552 0.45734 0.0
C55 C 0.21668 0.51634 0.61597 0.0
C56 C 0.21608 0.59755 0.5317 0.0
C57 C 0.13512 0.50675 0.53316 0.0
O58 O 0.23162 0.50591 0.58151 0.0
O59 O 0.19196 0.5349 0.60831 0.0
O60 O 0.14004 0.5379 0.53343 0.0
O61 O 0.16113 0.48904 0.53267 0.0
C62 C 0.21618 0.51493 0.45011 0.0
O63 O 0.18566 0.58951 0.53222 0.0
O64 O 0.23623 0.5734 0.53187 0.0
In65 In 0.45519 0.20459 0.03219 0.0
O66 O 0.39812 0.20519 0.03292 0.0
O67 O 0.42422 0.25148 0.02799 0.0
C68 C 0.47325 0.14 0.03349 0.0
C69 C 0.47722 0.21905 0.95001 0.0
C70 C 0.47638 0.22229 0.11371 0.0
O71 O 0.44289 0.14861 0.03362 0.0
O72 O 0.49385 0.16365 0.0328 0.0
O73 O 0.49083 0.23233 0.07872 0.0
O74 O 0.45124 0.204 0.10735 0.0
C75 C 0.39655 0.23663 0.02977 0.0
O76 O 0.49169 0.22994 0.98453 0.0
O77 O 0.45168 0.20144 0.95712 0.0
In78 In 0.8153 0.44935 0.53114 0.0
O79 O 0.78763 0.48246 0.4803 0.0
O80 O 0.82485 0.44845 0.45714 0.0
C81 C 0.80124 0.4669 0.61569 0.0
C82 C 0.78059 0.39232 0.52685 0.0
C83 C 0.87971 0.46639 0.53272 0.0
O84 O 0.7883 0.48222 0.58292 0.0
O85 O 0.82077 0.44348 0.60553 0.0
O86 O 0.87051 0.43614 0.5312 0.0
O87 O 0.8565 0.48771 0.53362 0.0
C88 C 0.80342 0.47024 0.44743 0.0
O89 O 0.8121 0.39218 0.52938 0.0
O90 O 0.76719 0.42073 0.52671 0.0
In91 In 0.55403 0.82653 0.0325 0.0
O92 O 0.61032 0.83317 0.04115 0.0
O93 O 0.59067 0.78408 0.0319 0.0
C94 C 0.5271 0.88784 0.03644 0.0
C95 C 0.54408 0.81312 0.94555 0.0
C96 C 0.53207 0.80271 0.11116 0.0
O97 O 0.55829 0.88329 0.03829 0.0
O98 O 0.50986 0.86172 0.03272 0.0
O99 O 0.51901 0.79378 0.07457 0.0
O100 O 0.55574 0.82327 0.10767 0.0
C101 C 0.61606 0.80222 0.03781 0.0
O102 O 0.52759 0.79833 0.97574 0.0
O103 O 0.56494 0.83421 0.95933 0.0
H104 H 0.171 0.46957 0.18781 0.0
C105 C 0.19054 0.47583 0.16406 0.0
H106 H 0.23924 0.49497 0.15634 0.0
H107 H 0.22983 0.57289 0.34189 0.0
H108 H 0.24136 0.61758 0.28944 0.0
H109 H 0.24473 0.6064 0.20854 0.0
H110 H 0.23696 0.55041 0.17961 0.0
C111 C 0.21939 0.48839 0.17939 0.0
C112 C 0.22378 0.49424 0.22841 0.0
C113 C 0.22855 0.52704 0.24474 0.0
C114 C 0.22597 0.53358 0.29136 0.0
C115 C 0.23087 0.56663 0.30676 0.0
C116 C 0.23764 0.59249 0.27704 0.0
C117 C 0.23958 0.58618 0.23149 0.0
C118 C 0.23503 0.55392 0.21532 0.0
H119 H 0.24767 0.48891 0.40015 0.0
C120 C 0.22632 0.50528 0.40444 0.0
H121 H 0.18837 0.53305 0.3731 0.0
H122 H 0.22397 0.4275 0.20973 0.0
H123 H 0.21231 0.38248 0.26171 0.0
H124 H 0.20125 0.39429 0.3412 0.0
H125 H 0.20282 0.45077 0.36943 0.0
C126 C 0.20912 0.51594 0.36857 0.0
C127 C 0.21815 0.50741 0.32156 0.0
C128 C 0.21564 0.47417 0.3055 0.0
C129 C 0.21977 0.46752 0.25911 0.0
C130 C 0.21923 0.434 0.24423 0.0
C131 C 0.21285 0.40794 0.27374 0.0
C132 C 0.20677 0.41458 0.31852 0.0
C133 C 0.20802 0.44723 0.33438 0.0
H134 H 0.49749 0.22756 0.66038 0.0
C135 C 0.52025 0.21301 0.65746 0.0
H136 H 0.55827 0.18692 0.69127 0.0
H137 H 0.48047 0.27643 0.84936 0.0
H138 H 0.49985 0.32559 0.80994 0.0
H139 H 0.53035 0.32042 0.73871 0.0
H140 H 0.54101 0.26609 0.70605 0.0
C141 C 0.53592 0.2021 0.69426 0.0
C142 C 0.52071 0.20565 0.73922 0.0
C143 C 0.51605 0.23757 0.75872 0.0
C144 C 0.49994 0.24047 0.80085 0.0
C145 C 0.49378 0.2727 0.81835 0.0
C146 C 0.5046 0.30116 0.79593 0.0
C147 C 0.52166 0.29825 0.75575 0.0
C148 C 0.52741 0.2669 0.73722 0.0
H149 H 0.51562 0.23442 0.90138 0.0
C150 C 0.49073 0.22406 0.90488 0.0
H151 H 0.44934 0.20253 0.87249 0.0
H152 H 0.52535 0.14066 0.71083 0.0
H153 H 0.50852 0.09147 0.75194 0.0
H154 H 0.4838 0.09631 0.82709 0.0
H155 H 0.47537 0.15039 0.86125 0.0
C156 C 0.47391 0.21364 0.86874 0.0
C157 C 0.49006 0.21135 0.82425 0.0
C158 C 0.49545 0.1794 0.8052 0.0
C159 C 0.5105 0.17657 0.76245 0.0
C160 C 0.51468 0.14436 0.74363 0.0
C161 C 0.50504 0.11584 0.76682 0.0
C162 C 0.49107 0.11856 0.80907 0.0
C163 C 0.48627 0.14986 0.82821 0.0
H164 H 0.81773 0.47337 0.37711 0.0
C165 C 0.79798 0.47966 0.40054 0.0
H166 H 0.74911 0.49854 0.40756 0.0
H167 H 0.75796 0.57582 0.22159 0.0
H168 H 0.74578 0.62061 0.2736 0.0
H169 H 0.74263 0.60983 0.35461 0.0
H170 H 0.75123 0.55411 0.38408 0.0
C171 C 0.76927 0.49225 0.38484 0.0
C172 C 0.7651 0.49786 0.33578 0.0
C173 C 0.75997 0.53052 0.31917 0.0
C174 C 0.7625 0.53684 0.27251 0.0
C175 C 0.75705 0.56972 0.25678 0.0
C176 C 0.74989 0.59565 0.28625 0.0
C177 C 0.74808 0.58957 0.33185 0.0
C178 C 0.7531 0.55746 0.34833 0.0
H179 H 0.74182 0.49011 0.16451 0.0
C180 C 0.76237 0.50742 0.15989 0.0
H181 H 0.79928 0.53698 0.1905 0.0
H182 H 0.76531 0.43116 0.35497 0.0
H183 H 0.7779 0.38605 0.30354 0.0
H184 H 0.78957 0.39765 0.22414 0.0
H185 H 0.78755 0.45399 0.19545 0.0
C186 C 0.77933 0.519 0.19544 0.0
C187 C 0.77075 0.51061 0.24259 0.0
C188 C 0.77378 0.4775 0.25896 0.0
C189 C 0.76951 0.47103 0.30535 0.0
C190 C 0.77027 0.43757 0.3205 0.0
C191 C 0.77718 0.41145 0.29129 0.0
C192 C 0.78357 0.41797 0.24657 0.0
C193 C 0.78204 0.45053 0.23043 0.0
H194 H 0.55652 0.82055 0.875 0.0
C195 C 0.53955 0.80756 0.89736 0.0
H196 H 0.49778 0.77563 0.90155 0.0
H197 H 0.5027 0.84674 0.69785 0.0
H198 H 0.49331 0.89886 0.7368 0.0
H199 H 0.48911 0.90031 0.81899 0.0
H200 H 0.49541 0.84981 0.8626 0.0
C201 C 0.5147 0.78933 0.87995 0.0
C202 C 0.51028 0.78737 0.83051 0.0
C203 C 0.50403 0.81678 0.80541 0.0
C204 C 0.50384 0.81554 0.75797 0.0
C205 C 0.50089 0.84584 0.73386 0.0
C206 C 0.49583 0.87604 0.75582 0.0
C207 C 0.49366 0.87688 0.80207 0.0
C208 C 0.49766 0.8477 0.82673 0.0
H209 H 0.45306 0.79996 0.68923 0.0
C210 C 0.47328 0.79175 0.66767 0.0
H211 H 0.52284 0.77395 0.66547 0.0
H212 H 0.52201 0.72635 0.86829 0.0
H213 H 0.52791 0.67363 0.82925 0.0
H214 H 0.52373 0.67092 0.74713 0.0
H215 H 0.51401 0.72098 0.70344 0.0
C216 C 0.50231 0.78254 0.68617 0.0
C217 C 0.50679 0.78441 0.73561 0.0
C218 C 0.51217 0.75491 0.76069 0.0
C219 C 0.51409 0.75641 0.80816 0.0
C220 C 0.52003 0.72661 0.83227 0.0
C221 C 0.52346 0.69618 0.81027 0.0
C222 C 0.52112 0.69465 0.76402 0.0
C223 C 0.51553 0.72358 0.73935 0.0
H224 H 0.81258 0.46467 0.68706 0.0
C225 C 0.79534 0.47527 0.66288 0.0
H226 H 0.75217 0.50459 0.6539 0.0
H227 H 0.77651 0.45412 0.86778 0.0
H228 H 0.76736 0.39833 0.83975 0.0
H229 H 0.75477 0.38865 0.76016 0.0
H230 H 0.75253 0.43492 0.70789 0.0
C231 C 0.76955 0.49362 0.67752 0.0
C232 C 0.7657 0.50037 0.7264 0.0
C233 C 0.76393 0.47352 0.75725 0.0
C234 C 0.76859 0.47941 0.80372 0.0
C235 C 0.77082 0.45158 0.83273 0.0
C236 C 0.76595 0.41924 0.81696 0.0
C237 C 0.75904 0.41377 0.77213 0.0
C238 C 0.75809 0.44048 0.74246 0.0
H239 H 0.73812 0.49739 0.89662 0.0
C240 C 0.76098 0.51134 0.90205 0.0
H241 H 0.80308 0.53407 0.87322 0.0
H242 H 0.76533 0.55786 0.67701 0.0
H243 H 0.76801 0.61438 0.70556 0.0
H244 H 0.7713 0.62509 0.78656 0.0
H245 H 0.7724 0.57933 0.83948 0.0
C246 C 0.78056 0.51966 0.86729 0.0
C247 C 0.77193 0.51262 0.81971 0.0
C248 C 0.76997 0.53968 0.78918 0.0
C249 C 0.76724 0.53355 0.74249 0.0
C250 C 0.76695 0.56105 0.7128 0.0
C251 C 0.76845 0.59366 0.72874 0.0
C252 C 0.77035 0.59969 0.77433 0.0
C253 C 0.77112 0.57315 0.80434 0.0
H254 H 0.49519 0.77979 0.15693 0.0
C255 C 0.51936 0.79192 0.15511 0.0
H256 H 0.56016 0.81178 0.19055 0.0
H257 H 0.48557 0.85261 0.3646 0.0
H258 H 0.49683 0.90639 0.33103 0.0
H259 H 0.51899 0.91046 0.25439 0.0
H260 H 0.53007 0.86076 0.21092 0.0
C261 C 0.53625 0.79912 0.1927 0.0
C262 C 0.52114 0.79592 0.2379 0.0
C263 C 0.51448 0.82533 0.26273 0.0
C264 C 0.50112 0.82303 0.30657 0.0
C265 C 0.49518 0.85283 0.33083 0.0
C266 C 0.50166 0.88393 0.31205 0.0
C267 C 0.51417 0.88622 0.26894 0.0
C268 C 0.52053 0.85739 0.24441 0.0
H269 H 0.51959 0.77027 0.40449 0.0
C270 C 0.4946 0.78055 0.40712 0.0
H271 H 0.45337 0.80099 0.37306 0.0
H272 H 0.53342 0.73465 0.20095 0.0
H273 H 0.52046 0.68082 0.23374 0.0
H274 H 0.4946 0.67699 0.30833 0.0
H275 H 0.48199 0.72696 0.35092 0.0
C276 C 0.47798 0.78984 0.37014 0.0
C277 C 0.49409 0.79136 0.32545 0.0
C278 C 0.50064 0.76194 0.30067 0.0
C279 C 0.5146 0.7642 0.25701 0.0
C280 C 0.52197 0.73442 0.23365 0.0
C281 C 0.5148 0.70335 0.25218 0.0
C282 C 0.5003 0.70119 0.29423 0.0
C283 C 0.49326 0.73006 0.31837 0.0
H284 H 0.17514 0.46382 0.87682 0.0
C285 C 0.19256 0.47368 0.90131 0.0
H286 H 0.23675 0.50139 0.91081 0.0
H287 H 0.21405 0.45002 0.69706 0.0
H288 H 0.22259 0.39437 0.72602 0.0
H289 H 0.23398 0.38519 0.80605 0.0
H290 H 0.2358 0.43183 0.85778 0.0
C291 C 0.21922 0.4909 0.887 0.0
C292 C 0.22369 0.49724 0.8381 0.0
C293 C 0.22535 0.47013 0.80764 0.0
C294 C 0.22102 0.4757 0.76102 0.0
C295 C 0.21914 0.44768 0.7323 0.0
C296 C 0.22374 0.41544 0.74859 0.0
C297 C 0.22999 0.41025 0.79366 0.0
C298 C 0.23073 0.43717 0.82301 0.0
H299 H 0.25077 0.49481 0.66667 0.0
C300 C 0.22724 0.50772 0.66184 0.0
H301 H 0.18487 0.52901 0.69199 0.0
H302 H 0.22498 0.55509 0.88657 0.0
H303 H 0.22273 0.61142 0.85717 0.0
H304 H 0.2192 0.62147 0.77603 0.0
H305 H 0.21748 0.57523 0.7238 0.0
C306 C 0.20798 0.5154 0.69722 0.0
C307 C 0.21759 0.50877 0.74458 0.0
C308 C 0.21982 0.53605 0.7747 0.0
C309 C 0.22258 0.53029 0.82148 0.0
C310 C 0.22324 0.55803 0.85075 0.0
C311 C 0.222 0.59051 0.83431 0.0
C312 C 0.21997 0.59617 0.78863 0.0
C313 C 0.21885 0.56939 0.75904 0.0
H314 H 0.49612 0.22835 0.40322 0.0
C315 C 0.51992 0.21554 0.40583 0.0
H316 H 0.56036 0.19383 0.37154 0.0
H317 H 0.48125 0.15457 0.19934 0.0
H318 H 0.49476 0.10061 0.23085 0.0
H319 H 0.52016 0.09609 0.30561 0.0
H320 H 0.53252 0.14549 0.34902 0.0
C321 C 0.53685 0.20716 0.36883 0.0
C322 C 0.52172 0.21052 0.32381 0.0
C323 C 0.51426 0.18124 0.29918 0.0
C324 C 0.49891 0.1838 0.25661 0.0
C325 C 0.49232 0.15416 0.23228 0.0
C326 C 0.50004 0.12295 0.2499 0.0
C327 C 0.51439 0.12041 0.29193 0.0
C328 C 0.52144 0.14908 0.31644 0.0
H329 H 0.5142 0.24009 0.16168 0.0
C330 C 0.48977 0.22861 0.15861 0.0
H331 H 0.44982 0.20506 0.19177 0.0
H332 H 0.53643 0.27164 0.35984 0.0
H333 H 0.52135 0.32563 0.32928 0.0
H334 H 0.49106 0.32986 0.2578 0.0
H335 H 0.4762 0.28014 0.21608 0.0
C336 C 0.47379 0.21748 0.19505 0.0
C337 C 0.49063 0.21558 0.23905 0.0
C338 C 0.49812 0.24488 0.26358 0.0
C339 C 0.51432 0.24237 0.30568 0.0
C340 C 0.52299 0.27204 0.32855 0.0
C341 C 0.51468 0.30321 0.31123 0.0
C342 C 0.49772 0.30559 0.27091 0.0
C343 C 0.48947 0.27686 0.24721 0.0
H344 H 0.89023 0.47835 0.02893 0.0
C345 C 0.88629 0.50519 0.02913 0.0
H346 H 0.90923 0.55262 0.0299 0.0
H347 H 0.04253 0.49228 0.11209 0.0
H348 H 0.02076 0.52287 0.17553 0.0
H349 H 0.96517 0.54908 0.17245 0.0
H350 H 0.93096 0.54469 0.10593 0.0
C351 C 0.91265 0.52576 0.02829 0.0
C352 C 0.94716 0.51218 0.0285 0.0
C353 C 0.96714 0.51567 0.06724 0.0
C354 C -0.00061 0.50098 0.06876 0.0
C355 C 0.01824 0.50368 0.10859 0.0
C356 C 0.00594 0.52099 0.14542 0.0
C357 C 0.97463 0.53571 0.14371 0.0
C358 C 0.95528 0.53304 0.10526 0.0
H359 H 0.07036 0.51473 0.03064 0.0
C360 C 0.07302 0.48774 0.03117 0.0
H361 H 0.04792 0.44143 0.03121 0.0
H362 H 0.91667 0.50387 0.94734 0.0
H363 H 0.93858 0.47362 0.88366 0.0
H364 H 0.99417 0.4474 0.88669 0.0
H365 H 0.02824 0.45144 0.95339 0.0
C366 C 0.04572 0.46844 0.03206 0.0
C367 C 0.01181 0.48341 0.03113 0.0
C368 C 0.99197 0.48024 0.99222 0.0
C369 C 0.95973 0.49493 0.99071 0.0
C370 C 0.94094 0.49242 0.95079 0.0
C371 C 0.95333 0.47532 0.91384 0.0
C372 C 0.98464 0.4606 0.91553 0.0
C373 C 0.0039 0.46305 0.95408 0.0
H374 H 0.51176 0.90808 0.52757 0.0
C375 C 0.48503 0.90364 0.52643 0.0
H376 H 0.43737 0.92612 0.52432 0.0
H377 H 0.50453 0.05674 0.60984 0.0
H378 H 0.4738 0.03555 0.67351 0.0
H379 H 0.44433 0.98162 0.66941 0.0
H380 H 0.44557 0.9485 0.60155 0.0
C381 C 0.46421 0.9297 0.52384 0.0
C382 C 0.47797 0.96414 0.52394 0.0
C383 C 0.47611 0.98364 0.56331 0.0
C384 C 0.49264 0.01498 0.5654 0.0
C385 C 0.49169 0.03321 0.60592 0.0
C386 C 0.47431 0.02122 0.64287 0.0
C387 C 0.45777 0.99084 0.64058 0.0
C388 C 0.45867 0.97209 0.60142 0.0
H389 H 0.48212 0.08686 0.52973 0.0
C390 C 0.50918 0.08828 0.52952 0.0
H391 H 0.55417 0.06098 0.52742 0.0
H392 H 0.48378 0.93428 0.44207 0.0
H393 H 0.5141 0.95568 0.378 0.0
H394 H 0.54287 0.00996 0.3816 0.0
H395 H 0.54159 0.04321 0.44929 0.0
C396 C 0.52713 0.06009 0.52915 0.0
C397 C 0.51034 0.02705 0.52766 0.0
C398 C 0.51164 0.00781 0.488 0.0
C399 C 0.49526 0.9764 0.48602 0.0
C400 C 0.49635 0.958 0.44567 0.0
C401 C 0.51348 0.97007 0.40856 0.0
C402 C 0.52967 0.00066 0.41058 0.0
C403 C 0.52878 0.01946 0.44968 0.0
H404 H 0.09966 0.46473 0.53259 0.0
C405 C 0.10165 0.49176 0.53345 0.0
H406 H 0.07556 0.5375 0.53426 0.0
H407 H 0.94449 0.47694 0.44983 0.0
H408 H 0.96649 0.50781 0.38672 0.0
H409 H 0.02247 0.53316 0.3899 0.0
H410 H 0.05682 0.52765 0.45613 0.0
C411 C 0.07391 0.51044 0.53481 0.0
C412 C 0.04026 0.49496 0.53332 0.0
C413 C 0.02034 0.49884 0.49459 0.0
C414 C 0.9879 0.48464 0.49299 0.0
C415 C 0.96894 0.488 0.45333 0.0
C416 C 0.98137 0.50545 0.41672 0.0
C417 C 0.01289 0.51969 0.41848 0.0
C418 C 0.03231 0.51641 0.45679 0.0
H419 H 0.92011 0.5034 0.53339 0.0
C420 C 0.91484 0.4768 0.53255 0.0
H421 H 0.93553 0.42831 0.53108 0.0
H422 H 0.07136 0.4841 0.61361 0.0
H423 H 0.04957 0.45259 0.67621 0.0
H424 H 0.99366 0.42712 0.67282 0.0
H425 H 0.95913 0.4332 0.60679 0.0
C426 C 0.94018 0.45501 0.53066 0.0
C427 C 0.97522 0.46712 0.53048 0.0
C428 C 0.99543 0.46252 0.56879 0.0
C429 C 0.02788 0.47676 0.57044 0.0
C430 C 0.04692 0.47308 0.60998 0.0
C431 C 0.03462 0.45522 0.64633 0.0
C432 C 0.00312 0.44093 0.64444 0.0
C433 C 0.98358 0.44458 0.60631 0.0
H434 H 0.48418 0.92197 0.03808 0.0
C435 C 0.51126 0.9209 0.03814 0.0
H436 H 0.55587 0.94887 0.0371 0.0
H437 H 0.47888 0.07268 0.95178 0.0
H438 H 0.506 0.05047 0.88572 0.0
H439 H 0.53598 0.99677 0.88848 0.0
H440 H 0.53896 0.96492 0.9573 0.0
C441 C 0.52882 0.94932 0.03878 0.0
C442 C 0.5115 0.98209 0.03778 0.0
C443 C 0.51047 0.00059 0.99749 0.0
C444 C 0.49358 0.03174 0.99606 0.0
C445 C 0.49209 0.04928 0.95503 0.0
C446 C 0.50735 0.0367 0.91677 0.0
C447 C 0.5242 0.00645 0.91831 0.0
C448 C 0.52575 0.98845 0.95806 0.0
H449 H 0.51156 0.10104 0.03134 0.0
C450 C 0.48482 0.10523 0.03332 0.0
H451 H 0.43751 0.08233 0.03878 0.0
H452 H 0.50938 0.95315 0.12062 0.0
H453 H 0.482 0.97526 0.18655 0.0
H454 H 0.45256 0.02928 0.18396 0.0
H455 H 0.45026 0.06148 0.11534 0.0
C456 C 0.46425 0.07894 0.03525 0.0
C457 C 0.47835 0.04462 0.0352 0.0
C458 C 0.47877 0.02579 0.07524 0.0
C459 C 0.49554 0.99455 0.07663 0.0
C460 C 0.49651 0.97675 0.11747 0.0
C461 C 0.48103 0.98923 0.15563 0.0
C462 C 0.46448 0.01966 0.15418 0.0
C463 C 0.46334 0.03788 0.11459 0.0
H464 H 0.19357 0.33218 0.03446 0.0
C465 C 0.20972 0.35393 0.03472 0.0
H466 H 0.25916 0.37194 0.03387 0.0
H467 H 0.313 0.23424 0.11314 0.0
H468 H 0.28651 0.25148 0.18249 0.0
H469 H 0.24725 0.29888 0.18379 0.0
H470 H 0.23413 0.32928 0.1158 0.0
C471 C 0.24297 0.35022 0.0346 0.0
C472 C 0.25948 0.31719 0.03254 0.0
C473 C 0.26611 0.29927 0.07233 0.0
C474 C 0.28884 0.27205 0.07163 0.0
C475 C 0.29594 0.25513 0.11199 0.0
C476 C 0.28089 0.26475 0.15192 0.0
C477 C 0.25877 0.29144 0.15265 0.0
C478 C 0.25146 0.30868 0.11343 0.0
H479 H 0.36703 0.28224 0.02241 0.0
C480 C 0.36519 0.25546 0.0277 0.0
H481 H 0.33235 0.21504 0.03954 0.0
H482 H 0.24785 0.34307 0.94952 0.0
H483 H 0.27228 0.32405 0.8797 0.0
H484 H 0.31124 0.27638 0.87846 0.0
H485 H 0.32613 0.24755 0.94716 0.0
C486 C 0.33502 0.2415 0.03253 0.0
C487 C 0.30502 0.26324 0.03129 0.0
C488 C 0.29574 0.27899 0.99081 0.0
C489 C 0.27308 0.30619 0.99148 0.0
C490 C 0.26505 0.32229 0.9508 0.0
C491 C 0.2788 0.31155 0.91054 0.0
C492 C 0.30075 0.28472 0.90985 0.0
C493 C 0.30921 0.26853 0.94943 0.0
H494 H 0.73327 0.36589 0.51975 0.0
C495 C 0.75998 0.36218 0.52372 0.0
H496 H 0.79835 0.32635 0.53157 0.0
H497 H 0.67874 0.23509 0.60834 0.0
H498 H 0.71321 0.24177 0.6744 0.0
H499 H 0.76433 0.27595 0.67203 0.0
H500 H 0.78126 0.30375 0.60347 0.0
C501 C 0.77201 0.33102 0.52595 0.0
C502 C 0.74812 0.30271 0.52388 0.0
C503 C 0.73946 0.28552 0.5635 0.0
C504 C 0.71012 0.26563 0.56473 0.0
C505 C 0.70096 0.2502 0.60543 0.0
C506 C 0.7205 0.25387 0.64359 0.0
C507 C 0.74928 0.27314 0.64227 0.0
C508 C 0.7587 0.28898 0.60281 0.0
H509 H 0.66927 0.19848 0.52944 0.0
C510 C 0.64902 0.21648 0.53 0.0
H511 H 0.63539 0.2673 0.52848 0.0
H512 H 0.76251 0.32599 0.4404 0.0
H513 H 0.72954 0.31739 0.37315 0.0
H514 H 0.67828 0.28336 0.37526 0.0
H515 H 0.65975 0.25762 0.44449 0.0
C516 C 0.65563 0.24928 0.52931 0.0
C517 C 0.68996 0.26275 0.52605 0.0
C518 C 0.70062 0.27709 0.48527 0.0
C519 C 0.72992 0.29689 0.4841 0.0
C520 C 0.74002 0.31119 0.44306 0.0
C521 C 0.72146 0.30629 0.40429 0.0
C522 C 0.69261 0.28712 0.40547 0.0
C523 C 0.68219 0.27261 0.4454 0.0
H524 H 0.71699 0.63174 0.04005 0.0
C525 C 0.74408 0.6319 0.03828 0.0
H526 H 0.78726 0.66236 0.03671 0.0
H527 H 0.68208 0.77138 0.9619 0.0
H528 H 0.71731 0.76332 0.89669 0.0
H529 H 0.76387 0.72308 0.89827 0.0
H530 H 0.77545 0.69055 0.96515 0.0
C531 C 0.7603 0.66113 0.03971 0.0
C532 C 0.74043 0.69229 0.04325 0.0
C533 C 0.73502 0.71202 0.00476 0.0
C534 C 0.70829 0.7353 0.00396 0.0
C535 C 0.70219 0.75348 0.9643 0.0
C536 C 0.72221 0.74909 0.92671 0.0
C537 C 0.74843 0.72642 0.92759 0.0
C538 C 0.75479 0.7079 0.96605 0.0
H539 H 0.671 0.80451 0.04593 0.0
C540 C 0.64986 0.78802 0.04082 0.0
H541 H 0.6332 0.73839 0.03343 0.0
H542 H 0.74987 0.66423 0.12532 0.0
H543 H 0.71644 0.67413 0.19192 0.0
H544 H 0.66962 0.7141 0.19045 0.0
H545 H 0.65604 0.74452 0.12251 0.0
C546 C 0.65442 0.75496 0.03757 0.0
C547 C 0.68749 0.73885 0.0419 0.0
C548 C 0.69542 0.72195 0.082 0.0
C549 C 0.72214 0.69877 0.08277 0.0
C550 C 0.7294 0.68174 0.123 0.0
C551 C 0.71055 0.68732 0.16138 0.0
C552 C 0.68419 0.70984 0.16055 0.0
C553 C 0.67658 0.72702 0.12139 0.0
H554 H 0.37574 0.71925 0.53322 0.0
C555 C 0.3714 0.74593 0.52979 0.0
H556 H 0.33467 0.78367 0.5237 0.0
H557 H 0.24397 0.66155 0.45107 0.0
H558 H 0.24919 0.69507 0.38384 0.0
H559 H 0.28287 0.74659 0.38372 0.0
H560 H 0.31166 0.76485 0.45095 0.0
C561 C 0.33999 0.75731 0.5281 0.0
C562 C 0.31219 0.73294 0.53144 0.0
C563 C 0.29453 0.72346 0.49257 0.0
C564 C 0.27493 0.69391 0.49278 0.0
C565 C 0.25892 0.68395 0.45284 0.0
C566 C 0.26175 0.70295 0.41404 0.0
C567 C 0.28074 0.73196 0.41396 0.0
C568 C 0.29715 0.74213 0.45265 0.0
H569 H 0.20898 0.65241 0.53188 0.0
C570 C 0.22736 0.63251 0.53118 0.0
H571 H 0.27841 0.61986 0.53066 0.0
H572 H 0.33639 0.74906 0.6139 0.0
H573 H 0.32899 0.7172 0.68237 0.0
H574 H 0.29549 0.66555 0.68273 0.0
H575 H 0.2691 0.64552 0.61473 0.0
C576 C 0.25999 0.63975 0.53021 0.0
C577 C 0.27287 0.67436 0.53212 0.0
C578 C 0.2876 0.68588 0.5722 0.0
C579 C 0.3071 0.7154 0.57193 0.0
C580 C 0.32181 0.72637 0.6123 0.0
C581 C 0.31759 0.70845 0.65177 0.0
C582 C 0.29872 0.67937 0.65197 0.0
C583 C 0.28383 0.66809 0.61274 0.0
loop_
_geom_bond_atom_site_label_1
_geom_bond_atom_site_label_2
_geom_bond_distance
_geom_bond_site_symmetry_2
_ccdc_geom_bond_type
In0 O1 2.294 . S
In0 O2 2.326 . S
In0 O6 2.266 1_554 S
In0 O7 2.326 1_554 S
In0 O8 2.266 . S
In0 O9 2.326 . S
In0 O11 2.294 . S
In0 O12 2.326 . S
O1 In0 2.294 . S
O1 C10 1.240 . S
O2 In0 2.326 . S
O2 C10 1.252 . S
C3 O6 1.252 . S
C3 O7 1.260 . S
C4 O11 1.240 . S
C4 O12 1.252 . S
C5 O8 1.252 . S
C5 O9 1.260 . S
O6 In0 2.266 1_556 S
O6 C3 1.252 . S
O7 In0 2.326 1_556 S
O7 C3 1.260 . S
O8 In0 2.266 . S
O8 C5 1.252 . S
O9 In0 2.326 . S
O9 C5 1.260 . S
C10 O1 1.240 . S
C10 O2 1.252 . S
O11 In0 2.294 . S
O11 C4 1.240 . S
O12 In0 2.326 . S
O12 C4 1.252 . S
In13 O14 2.294 . S
In13 O15 2.326 . S
In13 O19 2.266 . S
In13 O20 2.326 . S
In13 O21 2.266 . S
In13 O22 2.326 . S
In13 O24 2.294 . S
In13 O25 2.326 . S
O14 In13 2.294 . S
O14 C23 1.240 . S
O15 In13 2.326 . S
O15 C23 1.252 . S
C16 O19 1.252 . S
C16 O20 1.260 . S
C17 O24 1.240 . S
C17 O25 1.252 . S
C18 O21 1.252 . S
C18 O22 1.260 . S
O19 In13 2.266 . S
O19 C16 1.252 . S
O20 In13 2.326 . S
O20 C16 1.260 . S
O21 In13 2.266 . S
O21 C18 1.252 . S
O22 In13 2.326 . S
O22 C18 1.260 . S
C23 O14 1.240 . S
C23 O15 1.252 . S
O24 In13 2.294 . S
O24 C17 1.240 . S
O25 In13 2.326 . S
O25 C17 1.252 . S
In26 O27 2.294 . S
In26 O28 2.326 . S
In26 O32 2.266 1_554 S
In26 O33 2.326 1_554 S
In26 O34 2.266 . S
In26 O35 2.326 . S
In26 O37 2.294 . S
In26 O38 2.326 . S
O27 In26 2.294 . S
O27 C36 1.240 . S
O28 In26 2.326 . S
O28 C36 1.252 . S
C29 O32 1.252 . S
C29 O33 1.260 . S
C30 O37 1.240 . S
C30 O38 1.252 . S
C31 O34 1.252 . S
C31 O35 1.260 . S
O32 In26 2.266 1_556 S
O32 C29 1.252 . S
O33 In26 2.326 1_556 S
O33 C29 1.260 . S
O34 In26 2.266 . S
O34 C31 1.252 . S
O35 In26 2.326 . S
O35 C31 1.260 . S
C36 O27 1.240 . S
C36 O28 1.252 . S
O37 In26 2.294 . S
O37 C30 1.240 . S
O38 In26 2.326 . S
O38 C30 1.252 . S
In39 O40 2.294 . S
In39 O41 2.326 . S
In39 O45 2.266 . S
In39 O46 2.326 . S
In39 O47 2.266 . S
In39 O48 2.326 . S
In39 O50 2.294 . S
In39 O51 2.326 . S
O40 In39 2.294 . S
O40 C49 1.240 . S
O41 In39 2.326 . S
O41 C49 1.252 . S
C42 O45 1.252 . S
C42 O46 1.260 . S
C43 O50 1.240 . S
C43 O51 1.252 . S
C44 O47 1.252 . S
C44 O48 1.260 . S
O45 In39 2.266 . S
O45 C42 1.252 . S
O46 In39 2.326 . S
O46 C42 1.260 . S
O47 In39 2.266 . S
O47 C44 1.252 . S
O48 In39 2.326 . S
O48 C44 1.260 . S
C49 O40 1.240 . S
C49 O41 1.252 . S
O50 In39 2.294 . S
O50 C43 1.240 . S
O51 In39 2.326 . S
O51 C43 1.252 . S
In52 O53 2.294 . S
In52 O54 2.326 . S
In52 O58 2.266 . S
In52 O59 2.326 . S
In52 O60 2.266 . S
In52 O61 2.326 . S
In52 O63 2.294 . S
In52 O64 2.326 . S
O53 In52 2.294 . S
O53 C62 1.240 . S
O54 In52 2.326 . S
O54 C62 1.252 . S
C55 O58 1.252 . S
C55 O59 1.260 . S
C56 O63 1.240 . S
C56 O64 1.252 . S
C57 O60 1.252 . S
C57 O61 1.260 . S
O58 In52 2.266 . S
O58 C55 1.252 . S
O59 In52 2.326 . S
O59 C55 1.260 . S
O60 In52 2.266 . S
O60 C57 1.252 . S
O61 In52 2.326 . S
O61 C57 1.260 . S
C62 O53 1.240 . S
C62 O54 1.252 . S
O63 In52 2.294 . S
O63 C56 1.240 . S
O64 In52 2.326 . S
O64 C56 1.252 . S
In65 O66 2.294 . S
In65 O67 2.326 . S
In65 O71 2.266 . S
In65 O72 2.326 . S
In65 O73 2.266 . S
In65 O74 2.326 . S
In65 O76 2.294 1_554 S
In65 O77 2.326 1_554 S
O66 In65 2.294 . S
O66 C75 1.240 . S
O67 In65 2.326 . S
O67 C75 1.252 . S
C68 O71 1.252 . S
C68 O72 1.260 . S
C69 O76 1.240 . S
C69 O77 1.252 . S
C70 O73 1.252 . S
C70 O74 1.260 . S
O71 In65 2.266 . S
O71 C68 1.252 . S
O72 In65 2.326 . S
O72 C68 1.260 . S
O73 In65 2.266 . S
O73 C70 1.252 . S
O74 In65 2.326 . S
O74 C70 1.260 . S
C75 O66 1.240 . S
C75 O67 1.252 . S
O76 In65 2.294 1_556 S
O76 C69 1.240 . S
O77 In65 2.326 1_556 S
O77 C69 1.252 . S
In78 O79 2.294 . S
In78 O80 2.326 . S
In78 O84 2.266 . S
In78 O85 2.326 . S
In78 O86 2.266 . S
In78 O87 2.326 . S
In78 O89 2.294 . S
In78 O90 2.326 . S
O79 In78 2.294 . S
O79 C88 1.240 . S
O80 In78 2.326 . S
O80 C88 1.252 . S
C81 O84 1.252 . S
C81 O85 1.260 . S
C82 O89 1.240 . S
C82 O90 1.252 . S
C83 O86 1.252 . S
C83 O87 1.260 . S
O84 In78 2.266 . S
O84 C81 1.252 . S
O85 In78 2.326 . S
O85 C81 1.260 . S
O86 In78 2.266 . S
O86 C83 1.252 . S
O87 In78 2.326 . S
O87 C83 1.260 . S
C88 O79 1.240 . S
C88 O80 1.252 . S
O89 In78 2.294 . S
O89 C82 1.240 . S
O90 In78 2.326 . S
O90 C82 1.252 . S
In91 O92 2.294 . S
In91 O93 2.326 . S
In91 O97 2.266 . S
In91 O98 2.326 . S
In91 O99 2.266 . S
In91 O100 2.326 . S
In91 O102 2.294 1_554 S
In91 O103 2.326 1_554 S
O92 In91 2.294 . S
O92 C101 1.240 . S
O93 In91 2.326 . S
O93 C101 1.252 . S
C94 O97 1.252 . S
C94 O98 1.260 . S
C95 O102 1.240 . S
C95 O103 1.252 . S
C96 O99 1.252 . S
C96 O100 1.260 . S
O97 In91 2.266 . S
O97 C94 1.252 . S
O98 In91 2.326 . S
O98 C94 1.260 . S
O99 In91 2.266 . S
O99 C96 1.252 . S
O100 In91 2.326 . S
O100 C96 1.260 . S
C101 O92 1.240 . S
C101 O93 1.252 . S
O102 In91 2.294 1_556 S
O102 C95 1.240 . S
O103 In91 2.326 1_556 S
O103 C95 1.252 . S
H104 C105 0.951 . S
C105 H104 0.951 . S
C105 C111 1.265 . S
H106 C111 0.950 . S
H107 C115 0.949 . S
H108 C116 0.950 . S
H109 C117 0.951 . S
H110 C118 0.951 . S
C111 C105 1.265 . S
C111 H106 0.950 . S
C111 C112 1.478 . S
C112 C111 1.478 . S
C112 C113 1.397 . S
C112 C129 1.394 . S
C113 C112 1.397 . S
C113 C114 1.438 . S
C113 C118 1.429 . S
C114 C113 1.438 . S
C114 C115 1.428 . S
C114 C127 1.394 . S
C115 H107 0.949 . S
C115 C114 1.428 . S
C115 C116 1.345 . S
C116 H108 0.950 . S
C116 C115 1.345 . S
C116 C117 1.424 . S
C117 H109 0.951 . S
C117 C116 1.424 . S
C117 C118 1.347 . S
C118 H110 0.951 . S
C118 C113 1.429 . S
C118 C117 1.347 . S
H119 C120 0.951 . S
C120 H119 0.951 . S
C120 C126 1.265 . S
H121 C126 0.950 . S
H122 C130 0.949 . S
H123 C131 0.950 . S
H124 C132 0.951 . S
H125 C133 0.951 . S
C126 C120 1.265 . S
C126 H121 0.950 . S
C126 C127 1.478 . S
C127 C114 1.394 . S
C127 C126 1.478 . S
C127 C128 1.397 . S
C128 C127 1.397 . S
C128 C129 1.438 . S
C128 C133 1.429 . S
C129 C112 1.394 . S
C129 C128 1.438 . S
C129 C130 1.428 . S
C130 H122 0.949 . S
C130 C129 1.428 . S
C130 C131 1.345 . S
C131 H123 0.950 . S
C131 C130 1.345 . S
C131 C132 1.424 . S
C132 H124 0.951 . S
C132 C131 1.424 . S
C132 C133 1.347 . S
C133 H125 0.951 . S
C133 C128 1.429 . S
C133 C132 1.347 . S
H134 C135 0.951 . S
C135 H134 0.951 . S
C135 C141 1.265 . S
H136 C141 0.950 . S
H137 C145 0.949 . S
H138 C146 0.950 . S
H139 C147 0.951 . S
H140 C148 0.951 . S
C141 C135 1.265 . S
C141 H136 0.950 . S
C141 C142 1.478 . S
C142 C141 1.478 . S
C142 C143 1.397 . S
C142 C159 1.394 . S
C143 C142 1.397 . S
C143 C144 1.438 . S
C143 C148 1.429 . S
C144 C143 1.438 . S
C144 C145 1.428 . S
C144 C157 1.394 . S
C145 H137 0.949 . S
C145 C144 1.428 . S
C145 C146 1.345 . S
C146 H138 0.950 . S
C146 C145 1.345 . S
C146 C147 1.424 . S
C147 H139 0.951 . S
C147 C146 1.424 . S
C147 C148 1.347 . S
C148 H140 0.951 . S
C148 C143 1.429 . S
C148 C147 1.347 . S
H149 C150 0.951 . S
C150 H149 0.951 . S
C150 C156 1.265 . S
H151 C156 0.950 . S
H152 C160 0.949 . S
H153 C161 0.950 . S
H154 C162 0.951 . S
H155 C163 0.951 . S
C156 C150 1.265 . S
C156 H151 0.950 . S
C156 C157 1.478 . S
C157 C144 1.394 . S
C157 C156 1.478 . S
C157 C158 1.397 . S
C158 C157 1.397 . S
C158 C159 1.438 . S
C158 C163 1.429 . S
C159 C142 1.394 . S
C159 C158 1.438 . S
C159 C160 1.428 . S
C160 H152 0.949 . S
C160 C159 1.428 . S
C160 C161 1.345 . S
C161 H153 0.950 . S
C161 C160 1.345 . S
C161 C162 1.424 . S
C162 H154 0.951 . S
C162 C161 1.424 . S
C162 C163 1.347 . S
C163 H155 0.951 . S
C163 C158 1.429 . S
C163 C162 1.347 . S
H164 C165 0.951 . S
C165 H164 0.951 . S
C165 C171 1.265 . S
H166 C171 0.950 . S
H167 C175 0.949 . S
H168 C176 0.950 . S
H169 C177 0.951 . S
H170 C178 0.951 . S
C171 C165 1.265 . S
C171 H166 0.950 . S
C171 C172 1.478 . S
C172 C171 1.478 . S
C172 C173 1.397 . S
C172 C189 1.394 . S
C173 C172 1.397 . S
C173 C174 1.438 . S
C173 C178 1.429 . S
C174 C173 1.438 . S
C174 C175 1.428 . S
C174 C187 1.394 . S
C175 H167 0.949 . S
C175 C174 1.428 . S
C175 C176 1.345 . S
C176 H168 0.950 . S
C176 C175 1.345 . S
C176 C177 1.424 . S
C177 H169 0.951 . S
C177 C176 1.424 . S
C177 C178 1.347 . S
C178 H170 0.951 . S
C178 C173 1.429 . S
C178 C177 1.347 . S
H179 C180 0.951 . S
C180 H179 0.951 . S
C180 C186 1.265 . S
H181 C186 0.950 . S
H182 C190 0.949 . S
H183 C191 0.950 . S
H184 C192 0.951 . S
H185 C193 0.951 . S
C186 C180 1.265 . S
C186 H181 0.950 . S
C186 C187 1.478 . S
C187 C174 1.394 . S
C187 C186 1.478 . S
C187 C188 1.397 . S
C188 C187 1.397 . S
C188 C189 1.438 . S
C188 C193 1.429 . S
C189 C172 1.394 . S
C189 C188 1.438 . S
C189 C190 1.428 . S
C190 H182 0.949 . S
C190 C189 1.428 . S
C190 C191 1.345 . S
C191 H183 0.950 . S
C191 C190 1.345 . S
C191 C192 1.424 . S
C192 H184 0.951 . S
C192 C191 1.424 . S
C192 C193 1.347 . S
C193 H185 0.951 . S
C193 C188 1.429 . S
C193 C192 1.347 . S
H194 C195 0.951 . S
C195 H194 0.951 . S
C195 C201 1.265 . S
H196 C201 0.950 . S
H197 C205 0.949 . S
H198 C206 0.950 . S
H199 C207 0.951 . S
H200 C208 0.951 . S
C201 C195 1.265 . S
C201 H196 0.950 . S
C201 C202 1.478 . S
C202 C201 1.478 . S
C202 C203 1.397 . S
C202 C219 1.394 . S
C203 C202 1.397 . S
C203 C204 1.438 . S
C203 C208 1.429 . S
C204 C203 1.438 . S
C204 C205 1.428 . S
C204 C217 1.394 . S
C205 H197 0.949 . S
C205 C204 1.428 . S
C205 C206 1.345 . S
C206 H198 0.950 . S
C206 C205 1.345 . S
C206 C207 1.424 . S
C207 H199 0.951 . S
C207 C206 1.424 . S
C207 C208 1.347 . S
C208 H200 0.951 . S
C208 C203 1.429 . S
C208 C207 1.347 . S
H209 C210 0.951 . S
C210 H209 0.951 . S
C210 C216 1.265 . S
H211 C216 0.950 . S
H212 C220 0.949 . S
H213 C221 0.950 . S
H214 C222 0.951 . S
H215 C223 0.951 . S
C216 C210 1.265 . S
C216 H211 0.950 . S
C216 C217 1.478 . S
C217 C204 1.394 . S
C217 C216 1.478 . S
C217 C218 1.397 . S
C218 C217 1.397 . S
C218 C219 1.438 . S
C218 C223 1.429 . S
C219 C202 1.394 . S
C219 C218 1.438 . S
C219 C220 1.428 . S
C220 H212 0.949 . S
C220 C219 1.428 . S
C220 C221 1.345 . S
C221 H213 0.950 . S
C221 C220 1.345 . S
C221 C222 1.424 . S
C222 H214 0.951 . S
C222 C221 1.424 . S
C222 C223 1.347 . S
C223 H215 0.951 . S
C223 C218 1.429 . S
C223 C222 1.347 . S
H224 C225 0.951 . S
C225 H224 0.951 . S
C225 C231 1.265 . S
H226 C231 0.950 . S
H227 C235 0.949 . S
H228 C236 0.950 . S
H229 C237 0.951 . S
H230 C238 0.951 . S
C231 C225 1.265 . S
C231 H226 0.950 . S
C231 C232 1.478 . S
C232 C231 1.478 . S
C232 C233 1.397 . S
C232 C249 1.394 . S
C233 C232 1.397 . S
C233 C234 1.438 . S
C233 C238 1.429 . S
C234 C233 1.438 . S
C234 C235 1.428 . S
C234 C247 1.394 . S
C235 H227 0.949 . S
C235 C234 1.428 . S
C235 C236 1.345 . S
C236 H228 0.950 . S
C236 C235 1.345 . S
C236 C237 1.424 . S
C237 H229 0.951 . S
C237 C236 1.424 . S
C237 C238 1.347 . S
C238 H230 0.951 . S
C238 C233 1.429 . S
C238 C237 1.347 . S
H239 C240 0.951 . S
C240 H239 0.951 . S
C240 C246 1.265 . S
H241 C246 0.950 . S
H242 C250 0.949 . S
H243 C251 0.950 . S
H244 C252 0.951 . S
H245 C253 0.951 . S
C246 C240 1.265 . S
C246 H241 0.950 . S
C246 C247 1.478 . S
C247 C234 1.394 . S
C247 C246 1.478 . S
C247 C248 1.397 . S
C248 C247 1.397 . S
C248 C249 1.438 . S
C248 C253 1.429 . S
C249 C232 1.394 . S
C249 C248 1.438 . S
C249 C250 1.428 . S
C250 H242 0.949 . S
C250 C249 1.428 . S
C250 C251 1.345 . S
C251 H243 0.950 . S
C251 C250 1.345 . S
C251 C252 1.424 . S
C252 H244 0.951 . S
C252 C251 1.424 . S
C252 C253 1.347 . S
C253 H245 0.951 . S
C253 C248 1.429 . S
C253 C252 1.347 . S
H254 C255 0.951 . S
C255 H254 0.951 . S
C255 C261 1.265 . S
H256 C261 0.950 . S
H257 C265 0.949 . S
H258 C266 0.950 . S
H259 C267 0.951 . S
H260 C268 0.951 . S
C261 C255 1.265 . S
C261 H256 0.950 . S
C261 C262 1.478 . S
C262 C261 1.478 . S
C262 C263 1.397 . S
C262 C279 1.394 . S
C263 C262 1.397 . S
C263 C264 1.438 . S
C263 C268 1.429 . S
C264 C263 1.438 . S
C264 C265 1.428 . S
C264 C277 1.394 . S
C265 H257 0.949 . S
C265 C264 1.428 . S
C265 C266 1.345 . S
C266 H258 0.950 . S
C266 C265 1.345 . S
C266 C267 1.424 . S
C267 H259 0.951 . S
C267 C266 1.424 . S
C267 C268 1.347 . S
C268 H260 0.951 . S
C268 C263 1.429 . S
C268 C267 1.347 . S
H269 C270 0.951 . S
C270 H269 0.951 . S
C270 C276 1.265 . S
H271 C276 0.950 . S
H272 C280 0.949 . S
H273 C281 0.950 . S
H274 C282 0.951 . S
H275 C283 0.951 . S
C276 C270 1.265 . S
C276 H271 0.950 . S
C276 C277 1.478 . S
C277 C264 1.394 . S
C277 C276 1.478 . S
C277 C278 1.397 . S
C278 C277 1.397 . S
C278 C279 1.438 . S
C278 C283 1.429 . S
C279 C262 1.394 . S
C279 C278 1.438 . S
C279 C280 1.428 . S
C280 H272 0.949 . S
C280 C279 1.428 . S
C280 C281 1.345 . S
C281 H273 0.950 . S
C281 C280 1.345 . S
C281 C282 1.424 . S
C282 H274 0.951 . S
C282 C281 1.424 . S
C282 C283 1.347 . S
C283 H275 0.951 . S
C283 C278 1.429 . S
C283 C282 1.347 . S
H284 C285 0.951 . S
C285 H284 0.951 . S
C285 C291 1.265 . S
H286 C291 0.950 . S
H287 C295 0.949 . S
H288 C296 0.950 . S
H289 C297 0.951 . S
H290 C298 0.951 . S
C291 C285 1.265 . S
C291 H286 0.950 . S
C291 C292 1.478 . S
C292 C291 1.478 . S
C292 C293 1.397 . S
C292 C309 1.394 . S
C293 C292 1.397 . S
C293 C294 1.438 . S
C293 C298 1.429 . S
C294 C293 1.438 . S
C294 C295 1.428 . S
C294 C307 1.394 . S
C295 H287 0.949 . S
C295 C294 1.428 . S
C295 C296 1.345 . S
C296 H288 0.950 . S
C296 C295 1.345 . S
C296 C297 1.424 . S
C297 H289 0.951 . S
C297 C296 1.424 . S
C297 C298 1.347 . S
C298 H290 0.951 . S
C298 C293 1.429 . S
C298 C297 1.347 . S
H299 C300 0.951 . S
C300 H299 0.951 . S
C300 C306 1.265 . S
H301 C306 0.950 . S
H302 C310 0.949 . S
H303 C311 0.950 . S
H304 C312 0.951 . S
H305 C313 0.951 . S
C306 C300 1.265 . S
C306 H301 0.950 . S
C306 C307 1.478 . S
C307 C294 1.394 . S
C307 C306 1.478 . S
C307 C308 1.397 . S
C308 C307 1.397 . S
C308 C309 1.438 . S
C308 C313 1.429 . S
C309 C292 1.394 . S
C309 C308 1.438 . S
C309 C310 1.428 . S
C310 H302 0.949 . S
C310 C309 1.428 . S
C310 C311 1.345 . S
C311 H303 0.950 . S
C311 C310 1.345 . S
C311 C312 1.424 . S
C312 H304 0.951 . S
C312 C311 1.424 . S
C312 C313 1.347 . S
C313 H305 0.951 . S
C313 C308 1.429 . S
C313 C312 1.347 . S
H314 C315 0.951 . S
C315 H314 0.951 . S
C315 C321 1.265 . S
H316 C321 0.950 . S
H317 C325 0.949 . S
H318 C326 0.950 . S
H319 C327 0.951 . S
H320 C328 0.951 . S
C321 C315 1.265 . S
C321 H316 0.950 . S
C321 C322 1.478 . S
C322 C321 1.478 . S
C322 C323 1.397 . S
C322 C339 1.394 . S
C323 C322 1.397 . S
C323 C324 1.438 . S
C323 C328 1.429 . S
C324 C323 1.438 . S
C324 C325 1.428 . S
C324 C337 1.394 . S
C325 H317 0.949 . S
C325 C324 1.428 . S
C325 C326 1.345 . S
C326 H318 0.950 . S
C326 C325 1.345 . S
C326 C327 1.424 . S
C327 H319 0.951 . S
C327 C326 1.424 . S
C327 C328 1.347 . S
C328 H320 0.951 . S
C328 C323 1.429 . S
C328 C327 1.347 . S
H329 C330 0.951 . S
C330 H329 0.951 . S
C330 C336 1.265 . S
H331 C336 0.950 . S
H332 C340 0.949 . S
H333 C341 0.950 . S
H334 C342 0.951 . S
H335 C343 0.951 . S
C336 C330 1.265 . S
C336 H331 0.950 . S
C336 C337 1.478 . S
C337 C324 1.394 . S
C337 C336 1.478 . S
C337 C338 1.397 . S
C338 C337 1.397 . S
C338 C339 1.438 . S
C338 C343 1.429 . S
C339 C322 1.394 . S
C339 C338 1.438 . S
C339 C340 1.428 . S
C340 H332 0.949 . S
C340 C339 1.428 . S
C340 C341 1.345 . S
C341 H333 0.950 . S
C341 C340 1.345 . S
C341 C342 1.424 . S
C342 H334 0.951 . S
C342 C341 1.424 . S
C342 C343 1.347 . S
C343 H335 0.951 . S
C343 C338 1.429 . S
C343 C342 1.347 . S
H344 C345 0.951 . S
C345 H344 0.951 . S
C345 C351 1.265 . S
H346 C351 0.950 . S
H347 C355 0.949 . S
H348 C356 0.950 . S
H349 C357 0.955 . S
H350 C358 0.951 . S
C351 C345 1.265 . S
C351 H346 0.950 . S
C351 C352 1.478 . S
C352 C351 1.478 . S
C352 C353 1.397 . S
C352 C369 1.394 1_554 S
C353 C352 1.397 . S
C353 C354 1.438 1_655 S
C353 C358 1.429 . S
C354 C353 1.438 1_455 S
C354 C355 1.428 . S
C354 C367 1.394 . S
C355 H347 0.949 . S
C355 C354 1.428 . S
C355 C356 1.345 . S
C356 H348 0.950 . S
C356 C355 1.345 . S
C356 C357 1.412 1_455 S
C357 H349 0.955 . S
C357 C356 1.412 1_655 S
C357 C358 1.355 . S
C358 H350 0.951 . S
C358 C353 1.429 . S
C358 C357 1.355 . S
H359 C360 0.951 . S
C360 H359 0.951 . S
C360 C366 1.265 . S
H361 C366 0.949 1_556 S
H362 C370 0.949 . S
H363 C371 0.950 . S
H364 C372 0.955 . S
H365 C373 0.951 . S
C366 C360 1.265 . S
C366 H361 0.949 1_554 S
C366 C367 1.478 . S
C367 C354 1.394 . S
C367 C366 1.478 . S
C367 C368 1.397 1_554 S
C368 C367 1.397 1_556 S
C368 C369 1.438 1_455 S
C368 C373 1.429 . S
C369 C352 1.394 1_556 S
C369 C368 1.438 1_655 S
C369 C370 1.428 . S
C370 H362 0.949 . S
C370 C369 1.428 . S
C370 C371 1.345 . S
C371 H363 0.950 . S
C371 C370 1.345 . S
C371 C372 1.412 1_655 S
C372 H364 0.955 . S
C372 C371 1.412 1_455 S
C372 C373 1.355 . S
C373 H365 0.951 . S
C373 C368 1.429 . S
C373 C372 1.355 . S
H374 C375 0.951 . S
C375 H374 0.951 . S
C375 C381 1.265 . S
H376 C381 0.950 . S
H377 C385 0.949 . S
H378 C386 0.950 . S
H379 C387 0.951 1_565 S
H380 C388 0.951 . S
C381 C375 1.265 . S
C381 H376 0.950 . S
C381 C382 1.478 . S
C382 C381 1.478 . S
C382 C383 1.397 . S
C382 C399 1.394 . S
C383 C382 1.397 . S
C383 C384 1.438 1_565 S
C383 C388 1.429 . S
C384 C383 1.438 1_545 S
C384 C385 1.428 . S
C384 C397 1.394 . S
C385 H377 0.949 . S
C385 C384 1.428 . S
C385 C386 1.345 . S
C386 H378 0.950 . S
C386 C385 1.345 . S
C386 C387 1.424 . S
C387 H379 0.951 1_545 S
C387 C386 1.424 . S
C387 C388 1.347 1_545 S
C388 H380 0.951 . S
C388 C383 1.429 . S
C388 C387 1.347 1_565 S
H389 C390 0.951 . S
C390 H389 0.951 . S
C390 C396 1.265 . S
H391 C396 0.950 . S
H392 C400 0.949 . S
H393 C401 0.950 . S
H394 C402 0.951 1_545 S
H395 C403 0.951 . S
C396 C390 1.265 . S
C396 H391 0.950 . S
C396 C397 1.478 . S
C397 C384 1.394 . S
C397 C396 1.478 . S
C397 C398 1.397 . S
C398 C397 1.397 . S
C398 C399 1.438 1_545 S
C398 C403 1.429 . S
C399 C382 1.394 . S
C399 C398 1.438 1_565 S
C399 C400 1.428 . S
C400 H392 0.949 . S
C400 C399 1.428 . S
C400 C401 1.345 . S
C401 H393 0.950 . S
C401 C400 1.345 . S
C401 C402 1.424 . S
C402 H394 0.951 1_565 S
C402 C401 1.424 . S
C402 C403 1.347 1_565 S
C403 H395 0.951 . S
C403 C398 1.429 . S
C403 C402 1.347 1_545 S
H404 C405 0.951 . S
C405 H404 0.951 . S
C405 C411 1.265 . S
H406 C411 0.950 . S
H407 C415 0.949 . S
H408 C416 0.950 . S
H409 C417 0.951 1_455 S
H410 C418 0.951 . S
C411 C405 1.265 . S
C411 H406 0.950 . S
C411 C412 1.478 . S
C412 C411 1.478 . S
C412 C413 1.397 . S
C412 C429 1.394 . S
C413 C412 1.397 . S
C413 C414 1.438 1_455 S
C413 C418 1.429 . S
C414 C413 1.438 1_655 S
C414 C415 1.428 . S
C414 C427 1.394 . S
C415 H407 0.949 . S
C415 C414 1.428 . S
C415 C416 1.345 . S
C416 H408 0.950 . S
C416 C415 1.345 . S
C416 C417 1.424 . S
C417 H409 0.951 1_655 S
C417 C416 1.424 . S
C417 C418 1.347 1_655 S
C418 H410 0.951 . S
C418 C413 1.429 . S
C418 C417 1.347 1_455 S
H419 C420 0.951 . S
C420 H419 0.951 . S
C420 C426 1.265 . S
H421 C426 0.950 . S
H422 C430 0.949 . S
H423 C431 0.950 . S
H424 C432 0.951 1_655 S
H425 C433 0.951 . S
C426 C420 1.265 . S
C426 H421 0.950 . S
C426 C427 1.478 . S
C427 C414 1.394 . S
C427 C426 1.478 . S
C427 C428 1.397 . S
C428 C427 1.397 . S
C428 C429 1.438 1_655 S
C428 C433 1.429 . S
C429 C412 1.394 . S
C429 C428 1.438 1_455 S
C429 C430 1.428 . S
C430 H422 0.949 . S
C430 C429 1.428 . S
C430 C431 1.345 . S
C431 H423 0.950 . S
C431 C430 1.345 . S
C431 C432 1.424 . S
C432 H424 0.951 1_455 S
C432 C431 1.424 . S
C432 C433 1.347 1_455 S
C433 H425 0.951 . S
C433 C428 1.429 . S
C433 C432 1.347 1_655 S
H434 C435 0.951 . S
C435 H434 0.951 . S
C435 C441 1.265 . S
H436 C441 0.950 . S
H437 C445 0.949 . S
H438 C446 0.950 . S
H439 C447 0.950 . S
H440 C448 0.951 . S
C441 C435 1.265 . S
C441 H436 0.950 . S
C441 C442 1.478 . S
C442 C441 1.478 . S
C442 C443 1.397 . S
C442 C459 1.394 . S
C443 C442 1.397 . S
C443 C444 1.438 1_565 S
C443 C448 1.429 1_554 S
C444 C443 1.438 1_545 S
C444 C445 1.428 1_554 S
C444 C457 1.394 . S
C445 H437 0.949 . S
C445 C444 1.428 1_556 S
C445 C446 1.345 . S
C446 H438 0.950 . S
C446 C445 1.345 . S
C446 C447 1.427 1_545 S
C447 H439 0.950 . S
C447 C446 1.427 1_565 S
C447 C448 1.345 . S
C448 H440 0.951 . S
C448 C443 1.429 1_556 S
C448 C447 1.345 . S
H449 C450 0.951 . S
C450 H449 0.951 . S
C450 C456 1.265 . S
H451 C456 0.950 . S
H452 C460 0.949 . S
H453 C461 0.950 . S
H454 C462 0.950 . S
H455 C463 0.951 . S
C456 C450 1.265 . S
C456 H451 0.950 . S
C456 C457 1.478 . S
C457 C444 1.394 . S
C457 C456 1.478 . S
C457 C458 1.397 . S
C458 C457 1.397 . S
C458 C459 1.438 1_545 S
C458 C463 1.429 . S
C459 C442 1.394 . S
C459 C458 1.438 1_565 S
C459 C460 1.428 . S
C460 H452 0.949 . S
C460 C459 1.428 . S
C460 C461 1.345 . S
C461 H453 0.950 . S
C461 C460 1.345 . S
C461 C462 1.427 1_565 S
C462 H454 0.950 . S
C462 C461 1.427 1_545 S
C462 C463 1.345 . S
C463 H455 0.951 . S
C463 C458 1.429 . S
C463 C462 1.345 . S
H464 C465 0.951 . S
C465 H464 0.951 . S
C465 C471 1.265 . S
H466 C471 0.950 . S
H467 C475 0.949 . S
H468 C476 0.950 . S
H469 C477 0.951 . S
H470 C478 0.951 . S
C471 C465 1.265 . S
C471 H466 0.950 . S
C471 C472 1.478 . S
C472 C471 1.478 . S
C472 C473 1.397 . S
C472 C489 1.394 1_554 S
C473 C472 1.397 . S
C473 C474 1.438 . S
C473 C478 1.429 . S
C474 C473 1.438 . S
C474 C475 1.428 . S
C474 C487 1.394 . S
C475 H467 0.949 . S
C475 C474 1.428 . S
C475 C476 1.345 . S
C476 H468 0.950 . S
C476 C475 1.345 . S
C476 C477 1.424 . S
C477 H469 0.951 . S
C477 C476 1.424 . S
C477 C478 1.347 . S
C478 H470 0.951 . S
C478 C473 1.429 . S
C478 C477 1.347 . S
H479 C480 0.951 . S
C480 H479 0.951 . S
C480 C486 1.265 . S
H481 C486 0.950 . S
H482 C490 0.949 . S
H483 C491 0.950 . S
H484 C492 0.951 . S
H485 C493 0.951 . S
C486 C480 1.265 . S
C486 H481 0.950 . S
C486 C487 1.478 . S
C487 C474 1.394 . S
C487 C486 1.478 . S
C487 C488 1.397 1_554 S
C488 C487 1.397 1_556 S
C488 C489 1.438 . S
C488 C493 1.429 . S
C489 C472 1.394 1_556 S
C489 C488 1.438 . S
C489 C490 1.428 . S
C490 H482 0.949 . S
C490 C489 1.428 . S
C490 C491 1.345 . S
C491 H483 0.950 . S
C491 C490 1.345 . S
C491 C492 1.424 . S
C492 H484 0.951 . S
C492 C491 1.424 . S
C492 C493 1.347 . S
C493 H485 0.951 . S
C493 C488 1.429 . S
C493 C492 1.347 . S
H494 C495 0.951 . S
C495 H494 0.951 . S
C495 C501 1.265 . S
H496 C501 0.950 . S
H497 C505 0.949 . S
H498 C506 0.950 . S
H499 C507 0.951 . S
H500 C508 0.951 . S
C501 C495 1.265 . S
C501 H496 0.950 . S
C501 C502 1.478 . S
C502 C501 1.478 . S
C502 C503 1.397 . S
C502 C519 1.394 . S
C503 C502 1.397 . S
C503 C504 1.438 . S
C503 C508 1.429 . S
C504 C503 1.438 . S
C504 C505 1.428 . S
C504 C517 1.394 . S
C505 H497 0.949 . S
C505 C504 1.428 . S
C505 C506 1.345 . S
C506 H498 0.950 . S
C506 C505 1.345 . S
C506 C507 1.424 . S
C507 H499 0.951 . S
C507 C506 1.424 . S
C507 C508 1.347 . S
C508 H500 0.951 . S
C508 C503 1.429 . S
C508 C507 1.347 . S
H509 C510 0.951 . S
C510 H509 0.951 . S
C510 C516 1.265 . S
H511 C516 0.950 . S
H512 C520 0.949 . S
H513 C521 0.950 . S
H514 C522 0.951 . S
H515 C523 0.951 . S
C516 C510 1.265 . S
C516 H511 0.950 . S
C516 C517 1.478 . S
C517 C504 1.394 . S
C517 C516 1.478 . S
C517 C518 1.397 . S
C518 C517 1.397 . S
C518 C519 1.438 . S
C518 C523 1.429 . S
C519 C502 1.394 . S
C519 C518 1.438 . S
C519 C520 1.428 . S
C520 H512 0.949 . S
C520 C519 1.428 . S
C520 C521 1.345 . S
C521 H513 0.950 . S
C521 C520 1.345 . S
C521 C522 1.424 . S
C522 H514 0.951 . S
C522 C521 1.424 . S
C522 C523 1.347 . S
C523 H515 0.951 . S
C523 C518 1.429 . S
C523 C522 1.347 . S
H524 C525 0.951 . S
C525 H524 0.951 . S
C525 C531 1.265 . S
H526 C531 0.950 . S
H527 C535 0.949 . S
H528 C536 0.950 . S
H529 C537 0.951 . S
H530 C538 0.951 . S
C531 C525 1.265 . S
C531 H526 0.950 . S
C531 C532 1.478 . S
C532 C531 1.478 . S
C532 C533 1.397 1_554 S
C532 C549 1.394 . S
C533 C532 1.397 1_556 S
C533 C534 1.438 . S
C533 C538 1.429 . S
C534 C533 1.438 . S
C534 C535 1.428 . S
C534 C547 1.394 1_556 S
C535 H527 0.949 . S
C535 C534 1.428 . S
C535 C536 1.345 . S
C536 H528 0.950 . S
C536 C535 1.345 . S
C536 C537 1.424 . S
C537 H529 0.951 . S
C537 C536 1.424 . S
C537 C538 1.347 . S
C538 H530 0.951 . S
C538 C533 1.429 . S
C538 C537 1.347 . S
H539 C540 0.951 . S
C540 H539 0.951 . S
C540 C546 1.265 . S
H541 C546 0.950 . S
H542 C550 0.949 . S
H543 C551 0.950 . S
H544 C552 0.951 . S
H545 C553 0.951 . S
C546 C540 1.265 . S
C546 H541 0.950 . S
C546 C547 1.478 . S
C547 C534 1.394 1_554 S
C547 C546 1.478 . S
C547 C548 1.397 . S
C548 C547 1.397 . S
C548 C549 1.438 . S
C548 C553 1.429 . S
C549 C532 1.394 . S
C549 C548 1.438 . S
C549 C550 1.428 . S
C550 H542 0.949 . S
C550 C549 1.428 . S
C550 C551 1.345 . S
C551 H543 0.950 . S
C551 C550 1.345 . S
C551 C552 1.424 . S
C552 H544 0.951 . S
C552 C551 1.424 . S
C552 C553 1.347 . S
C553 H545 0.951 . S
C553 C548 1.429 . S
C553 C552 1.347 . S
H554 C555 0.951 . S
C555 H554 0.951 . S
C555 C561 1.265 . S
H556 C561 0.950 . S
H557 C565 0.949 . S
H558 C566 0.950 . S
H559 C567 0.951 . S
H560 C568 0.951 . S
C561 C555 1.265 . S
C561 H556 0.950 . S
C561 C562 1.478 . S
C562 C561 1.478 . S
C562 C563 1.397 . S
C562 C579 1.394 . S
C563 C562 1.397 . S
C563 C564 1.438 . S
C563 C568 1.429 . S
C564 C563 1.438 . S
C564 C565 1.428 . S
C564 C577 1.394 . S
C565 H557 0.949 . S
C565 C564 1.428 . S
C565 C566 1.345 . S
C566 H558 0.950 . S
C566 C565 1.345 . S
C566 C567 1.424 . S
C567 H559 0.951 . S
C567 C566 1.424 . S
C567 C568 1.347 . S
C568 H560 0.951 . S
C568 C563 1.429 . S
C568 C567 1.347 . S
H569 C570 0.951 . S
C570 H569 0.951 . S
C570 C576 1.265 . S
H571 C576 0.950 . S
H572 C580 0.949 . S
H573 C581 0.950 . S
H574 C582 0.951 . S
H575 C583 0.951 . S
C576 C570 1.265 . S
C576 H571 0.950 . S
C576 C577 1.478 . S
C577 C564 1.394 . S
C577 C576 1.478 . S
C577 C578 1.397 . S
C578 C577 1.397 . S
C578 C579 1.438 . S
C578 C583 1.429 . S
C579 C562 1.394 . S
C579 C578 1.438 . S
C579 C580 1.428 . S
C580 H572 0.949 . S
C580 C579 1.428 . S
C580 C581 1.345 . S
C581 H573 0.950 . S
C581 C580 1.345 . S
C581 C582 1.424 . S
C582 H574 0.951 . S
C582 C581 1.424 . S
C582 C583 1.347 . S
C583 H575 0.951 . S
C583 C578 1.429 . S
C583 C582 1.347 . S
C105 C10 1.597 . S
C120 C62 1.628 . S
C135 C17 1.630 . S
C150 C69 1.640 . S
C165 C88 1.595 . S
C180 C36 1.626 . S
C195 C95 1.592 . S
C210 C49 1.586 . S
C225 C81 1.010 . S
C240 C29 1.041 . S
C255 C96 1.076 . S
C270 C42 1.075 . S
C285 C3 1.012 . S
C300 C55 1.042 . S
C315 C18 1.076 . S
C330 C70 1.075 . S
C345 C31 1.410 . S
C360 C5 1.408 . S
C375 C44 1.409 . S
C390 C16 1.409 . S
C405 C57 1.408 . S
C420 C83 1.410 . S
C435 C94 1.409 . S
C450 C68 1.409 . S
C465 C4 1.411 . S
C480 C75 1.399 . S
C495 C82 1.401 . S
C510 C23 1.414 . S
C525 C30 1.401 . S
C540 C101 1.414 . S
C555 C43 1.400 . S
C570 C56 1.412 . S
