# Generated by pormake.
# Topology lcy-a, (4)-cn, num edge types: 1
# Building blocks:
#     Node 0, Type 0, BuildingBlock: GALJAG_clean_sbu_0, # of connection points: 4
#     Node 1, Type 0, BuildingBlock: GALJAG_clean_sbu_0, # of connection points: 4
#     Node 2, Type 0, BuildingBlock: GALJAG_clean_sbu_0, # of connection points: 4
#     Node 3, Type 0, BuildingBlock: GALJAG_clean_sbu_0, # of connection points: 4
#     Node 4, Type 0, BuildingBlock: GALJAG_clean_sbu_0, # of connection points: 4
#     Node 5, Type 0, BuildingBlock: GALJAG_clean_sbu_0, # of connection points: 4
#     Node 6, Type 0, BuildingBlock: GALJAG_clean_sbu_0, # of connection points: 4
#     Node 7, Type 0, BuildingBlock: GALJAG_clean_sbu_0, # of connection points: 4
#     Node 8, Type 0, BuildingBlock: GALJAG_clean_sbu_0, # of connection points: 4
#     Node 9, Type 0, BuildingBlock: GALJAG_clean_sbu_0, # of connection points: 4
#     Node 10, Type 0, BuildingBlock: GALJAG_clean_sbu_0, # of connection points: 4
#     Node 11, Type 0, BuildingBlock: GALJAG_clean_sbu_0, # of connection points: 4
#     Node 12, Type 0, BuildingBlock: GALJAG_clean_sbu_0, # of connection points: 4
#     Node 13, Type 0, BuildingBlock: GALJAG_clean_sbu_0, # of connection points: 4
#     Node 14, Type 0, BuildingBlock: GALJAG_clean_sbu_0, # of connection points: 4
#     Node 15, Type 0, BuildingBlock: GALJAG_clean_sbu_0, # of connection points: 4
#     Node 16, Type 0, BuildingBlock: GALJAG_clean_sbu_0, # of connection points: 4
#     Node 17, Type 0, BuildingBlock: GALJAG_clean_sbu_0, # of connection points: 4
#     Node 18, Type 0, BuildingBlock: GALJAG_clean_sbu_0, # of connection points: 4
#     Node 19, Type 0, BuildingBlock: GALJAG_clean_sbu_0, # of connection points: 4
#     Node 20, Type 0, BuildingBlock: GALJAG_clean_sbu_0, # of connection points: 4
#     Node 21, Type 0, BuildingBlock: GALJAG_clean_sbu_0, # of connection points: 4
#     Node 22, Type 0, BuildingBlock: GALJAG_clean_sbu_0, # of connection points: 4
#     Node 23, Type 0, BuildingBlock: GALJAG_clean_sbu_0, # of connection points: 4
#     Edge 24, Type (0, 0), BuildingBlock: ZUJKAS_clean_linker_0, # of connection points: 2
#     Edge 25, Type (0, 0), BuildingBlock: ZUJKAS_clean_linker_0, # of connection points: 2
#     Edge 26, Type (0, 0), BuildingBlock: ZUJKAS_clean_linker_0, # of connection points: 2
#     Edge 27, Type (0, 0), BuildingBlock: ZUJKAS_clean_linker_0, # of connection points: 2
#     Edge 28, Type (0, 0), BuildingBlock: ZUJKAS_clean_linker_0, # of connection points: 2
#     Edge 29, Type (0, 0), BuildingBlock: ZUJKAS_clean_linker_0, # of connection points: 2
#     Edge 30, Type (0, 0), BuildingBlock: ZUJKAS_clean_linker_0, # of connection points: 2
#     Edge 31, Type (0, 0), BuildingBlock: ZUJKAS_clean_linker_0, # of connection points: 2
#     Edge 32, Type (0, 0), BuildingBlock: ZUJKAS_clean_linker_0, # of connection points: 2
#     Edge 33, Type (0, 0), BuildingBlock: ZUJKAS_clean_linker_0, # of connection points: 2
#     Edge 34, Type (0, 0), BuildingBlock: ZUJKAS_clean_linker_0, # of connection points: 2
#     Edge 35, Type (0, 0), BuildingBlock: ZUJKAS_clean_linker_0, # of connection points: 2
#     Edge 36, Type (0, 0), BuildingBlock: ZUJKAS_clean_linker_0, # of connection points: 2
#     Edge 37, Type (0, 0), BuildingBlock: ZUJKAS_clean_linker_0, # of connection points: 2
#     Edge 38, Type (0, 0), BuildingBlock: ZUJKAS_clean_linker_0, # of connection points: 2
#     Edge 39, Type (0, 0), BuildingBlock: ZUJKAS_clean_linker_0, # of connection points: 2
#     Edge 40, Type (0, 0), BuildingBlock: ZUJKAS_clean_linker_0, # of connection points: 2
#     Edge 41, Type (0, 0), BuildingBlock: ZUJKAS_clean_linker_0, # of connection points: 2
#     Edge 42, Type (0, 0), BuildingBlock: ZUJKAS_clean_linker_0, # of connection points: 2
#     Edge 43, Type (0, 0), BuildingBlock: ZUJKAS_clean_linker_0, # of connection points: 2
#     Edge 44, Type (0, 0), BuildingBlock: ZUJKAS_clean_linker_0, # of connection points: 2
#     Edge 45, Type (0, 0), BuildingBlock: ZUJKAS_clean_linker_0, # of connection points: 2
#     Edge 46, Type (0, 0), BuildingBlock: ZUJKAS_clean_linker_0, # of connection points: 2
#     Edge 47, Type (0, 0), BuildingBlock: ZUJKAS_clean_linker_0, # of connection points: 2
#     Edge 48, Type (0, 0), BuildingBlock: ZUJKAS_clean_linker_0, # of connection points: 2
#     Edge 49, Type (0, 0), BuildingBlock: ZUJKAS_clean_linker_0, # of connection points: 2
#     Edge 50, Type (0, 0), BuildingBlock: ZUJKAS_clean_linker_0, # of connection points: 2
#     Edge 51, Type (0, 0), BuildingBlock: ZUJKAS_clean_linker_0, # of connection points: 2
#     Edge 52, Type (0, 0), BuildingBlock: ZUJKAS_clean_linker_0, # of connection points: 2
#     Edge 53, Type (0, 0), BuildingBlock: ZUJKAS_clean_linker_0, # of connection points: 2
#     Edge 54, Type (0, 0), BuildingBlock: ZUJKAS_clean_linker_0, # of connection points: 2
#     Edge 55, Type (0, 0), BuildingBlock: ZUJKAS_clean_linker_0, # of connection points: 2
#     Edge 56, Type (0, 0), BuildingBlock: ZUJKAS_clean_linker_0, # of connection points: 2
#     Edge 57, Type (0, 0), BuildingBlock: ZUJKAS_clean_linker_0, # of connection points: 2
#     Edge 58, Type (0, 0), BuildingBlock: ZUJKAS_clean_linker_0, # of connection points: 2
#     Edge 59, Type (0, 0), BuildingBlock: ZUJKAS_clean_linker_0, # of connection points: 2
#     Edge 60, Type (0, 0), BuildingBlock: ZUJKAS_clean_linker_0, # of connection points: 2
#     Edge 61, Type (0, 0), BuildingBlock: ZUJKAS_clean_linker_0, # of connection points: 2
#     Edge 62, Type (0, 0), BuildingBlock: ZUJKAS_clean_linker_0, # of connection points: 2
#     Edge 63, Type (0, 0), BuildingBlock: ZUJKAS_clean_linker_0, # of connection points: 2
#     Edge 64, Type (0, 0), BuildingBlock: ZUJKAS_clean_linker_0, # of connection points: 2
#     Edge 65, Type (0, 0), BuildingBlock: ZUJKAS_clean_linker_0, # of connection points: 2
#     Edge 66, Type (0, 0), BuildingBlock: ZUJKAS_clean_linker_0, # of connection points: 2
#     Edge 67, Type (0, 0), BuildingBlock: ZUJKAS_clean_linker_0, # of connection points: 2
#     Edge 68, Type (0, 0), BuildingBlock: ZUJKAS_clean_linker_0, # of connection points: 2
#     Edge 69, Type (0, 0), BuildingBlock: ZUJKAS_clean_linker_0, # of connection points: 2
#     Edge 70, Type (0, 0), BuildingBlock: ZUJKAS_clean_linker_0, # of connection points: 2
#     Edge 71, Type (0, 0), BuildingBlock: ZUJKAS_clean_linker_0, # of connection points: 2
# Relax obj value: 0.436
# Max RMSD: 0.150
# Mean RMSD: 0.150
data_MOF--net-lcy-a--node1-GALJAG_clean_sbu_0--edge1-ZUJKAS_clean_linker_0
_symmetry_space_group_name_H-M    P1
_symmetry_Int_Tables_number       1
_symmetry_cell_setting            triclinic
loop_
_symmetry_equiv_pos_as_xyz
'x, y, z'
_cell_length_a     72.348538
_cell_length_b     72.322545
_cell_length_c     72.364485
_cell_angle_alpha  90.009442
_cell_angle_beta   89.96986
_cell_angle_gamma 90.027038
loop_
_atom_site_label
_atom_site_type_symbol
_atom_site_fract_x
_atom_site_fract_y
_atom_site_fract_z
_atom_type_partial_charge
In0 In 0.18188 0.29889 0.39199 0.0
O1 O 0.19976 0.29843 0.41777 0.0
O2 O 0.18603 0.32359 0.4111 0.0
C3 C 0.20734 0.27423 0.38038 0.0
C4 C 0.15205 0.28415 0.40871 0.0
C5 C 0.17713 0.31981 0.36134 0.0
O6 O 0.21155 0.28961 0.38742 0.0
O7 O 0.19021 0.27138 0.3788 0.0
O8 O 0.16748 0.30562 0.36438 0.0
O9 O 0.18849 0.32357 0.37392 0.0
C10 C 0.19682 0.31513 0.42191 0.0
O11 O 0.15493 0.30135 0.40846 0.0
O12 O 0.16359 0.27473 0.39974 0.0
In13 In 0.9493 0.94138 0.64831 0.0
O14 O 0.94498 0.91579 0.66644 0.0
O15 O 0.97152 0.92036 0.6549 0.0
C16 C 0.92671 0.93849 0.61874 0.0
C17 C 0.93425 0.95813 0.67782 0.0
C18 C 0.97681 0.96326 0.63569 0.0
O19 O 0.93801 0.9259 0.62294 0.0
O20 O 0.92663 0.95207 0.62959 0.0
O21 O 0.96446 0.96887 0.64662 0.0
O22 O 0.97511 0.94663 0.63075 0.0
C23 C 0.9616 0.91069 0.66543 0.0
O24 O 0.95145 0.9579 0.67488 0.0
O25 O 0.9246 0.94973 0.66591 0.0
In26 In 0.31163 0.69445 0.89326 0.0
O27 O 0.33511 0.69285 0.91451 0.0
O28 O 0.33039 0.71834 0.90098 0.0
C29 C 0.32287 0.67211 0.86532 0.0
C30 C 0.2874 0.67545 0.9141 0.0
C31 C 0.28984 0.72265 0.88231 0.0
O32 O 0.32564 0.68929 0.86534 0.0
O33 O 0.31556 0.6661 0.8799 0.0
O34 O 0.28972 0.71647 0.8986 0.0
O35 O 0.30081 0.71451 0.87148 0.0
C36 C 0.33933 0.70969 0.9131 0.0
O37 O 0.28382 0.68039 0.89774 0.0
O38 O 0.30323 0.68002 0.91987 0.0
In39 In 0.55142 0.06159 0.14154 0.0
O40 O 0.55491 0.08722 0.15983 0.0
O41 O 0.52876 0.0823 0.14762 0.0
C42 C 0.57247 0.06382 0.11082 0.0
C43 C 0.56962 0.04588 0.1698 0.0
C44 C 0.52358 0.03901 0.13108 0.0
O45 O 0.56249 0.07715 0.11603 0.0
O46 O 0.57199 0.0499 0.12122 0.0
O47 O 0.53569 0.03435 0.14268 0.0
O48 O 0.52563 0.05501 0.12447 0.0
C49 C 0.53824 0.09207 0.15844 0.0
O50 O 0.55223 0.04537 0.16835 0.0
O51 O 0.57787 0.05456 0.15706 0.0
In52 In 0.69242 0.19447 0.58974 0.0
O53 O 0.71238 0.19218 0.56567 0.0
O54 O 0.69666 0.16828 0.57267 0.0
C55 C 0.71255 0.22487 0.5978 0.0
C56 C 0.65945 0.20668 0.57724 0.0
C57 C 0.69453 0.17238 0.61961 0.0
O58 O 0.71003 0.21933 0.58147 0.0
O59 O 0.70497 0.21505 0.61005 0.0
O60 O 0.67965 0.18038 0.61517 0.0
O61 O 0.70792 0.17536 0.60888 0.0
C62 C 0.70864 0.17549 0.5622 0.0
O63 O 0.66695 0.19217 0.57125 0.0
O64 O 0.66794 0.21423 0.5904 0.0
In65 In 0.04986 0.43631 0.8521 0.0
O66 O 0.06754 0.46173 0.84625 0.0
O67 O 0.06323 0.4427 0.8243 0.0
C68 C 0.02306 0.46126 0.85923 0.0
C69 C 0.03302 0.40682 0.83688 0.0
C70 C 0.07063 0.42432 0.88077 0.0
O71 O 0.02455 0.45327 0.84381 0.0
O72 O 0.03515 0.45677 0.87095 0.0
O73 O 0.05337 0.4263 0.88173 0.0
O74 O 0.07732 0.42733 0.86497 0.0
C75 C 0.07053 0.45763 0.82957 0.0
O76 O 0.04894 0.41201 0.83204 0.0
O77 O 0.02622 0.41575 0.85019 0.0
In78 In 0.80861 0.79071 0.11069 0.0
O79 O 0.83448 0.79338 0.09281 0.0
O80 O 0.83094 0.76873 0.10817 0.0
C81 C 0.81639 0.81084 0.14119 0.0
C82 C 0.78645 0.81162 0.08928 0.0
C83 C 0.78572 0.7614 0.11375 0.0
O84 O 0.8133 0.7937 0.14162 0.0
O85 O 0.81659 0.81771 0.12519 0.0
O86 O 0.79133 0.76735 0.09836 0.0
O87 O 0.79158 0.77028 0.12756 0.0
C88 C 0.84037 0.77739 0.0964 0.0
O89 O 0.78291 0.80842 0.10606 0.0
O90 O 0.8012 0.80441 0.08341 0.0
In91 In 0.44716 0.55757 0.35321 0.0
O92 O 0.44554 0.58075 0.33197 0.0
O93 O 0.46503 0.58351 0.35362 0.0
C94 C 0.42368 0.55759 0.38221 0.0
C95 C 0.42952 0.53789 0.32709 0.0
C96 C 0.47859 0.53948 0.36194 0.0
O97 O 0.43302 0.57175 0.37802 0.0
O98 O 0.42621 0.54388 0.37181 0.0
O99 O 0.47433 0.54365 0.34558 0.0
O100 O 0.46698 0.54445 0.37398 0.0
C101 C 0.45866 0.58996 0.33876 0.0
O102 O 0.44492 0.53313 0.33372 0.0
O103 O 0.42299 0.55276 0.33353 0.0
In104 In 0.39888 0.19636 0.30237 0.0
O105 O 0.4166 0.2219 0.30646 0.0
O106 O 0.41628 0.2018 0.32802 0.0
C107 C 0.38861 0.21494 0.27171 0.0
C108 C 0.41787 0.16651 0.29033 0.0
C109 C 0.3686 0.19282 0.32387 0.0
O110 O 0.4048 0.21565 0.27813 0.0
O111 O 0.37758 0.20494 0.28079 0.0
O112 O 0.37464 0.17952 0.31432 0.0
O113 O 0.37797 0.20743 0.32275 0.0
C114 C 0.4224 0.21712 0.32221 0.0
O115 O 0.42203 0.175 0.30491 0.0
O116 O 0.40353 0.17239 0.28247 0.0
In117 In 0.05227 0.14582 0.55838 0.0
O118 O 0.02319 0.15493 0.56603 0.0
O119 O 0.04509 0.16196 0.58442 0.0
C120 C 0.03262 0.13545 0.52839 0.0
C121 C 0.07745 0.17102 0.54736 0.0
C122 C 0.06621 0.11541 0.57517 0.0
O123 O 0.03104 0.1276 0.54388 0.0
O124 O 0.04393 0.1487 0.52806 0.0
O125 O 0.06761 0.11818 0.55805 0.0
O126 O 0.05871 0.12845 0.58393 0.0
C127 C 0.02802 0.16289 0.5808 0.0
O128 O 0.08012 0.15387 0.54565 0.0
O129 O 0.06264 0.17525 0.55542 0.0
In130 In 0.10663 0.80807 0.80146 0.0
O131 O 0.08163 0.82659 0.80653 0.0
O132 O 0.09995 0.83418 0.78507 0.0
C133 C 0.13799 0.81786 0.81935 0.0
C134 C 0.08393 0.78408 0.8186 0.0
C135 C 0.11777 0.78695 0.77284 0.0
O136 O 0.13507 0.8219 0.80269 0.0
O137 O 0.12474 0.80975 0.82719 0.0
O138 O 0.12326 0.78434 0.78918 0.0
O139 O 0.10656 0.80016 0.77094 0.0
C140 C 0.08501 0.83742 0.79337 0.0
O141 O 0.08625 0.78411 0.80131 0.0
O142 O 0.09315 0.79612 0.82727 0.0
In143 In 0.43767 0.85488 0.05523 0.0
O144 O 0.46214 0.83519 0.05629 0.0
O145 O 0.44468 0.83664 0.07994 0.0
C146 C 0.45997 0.86564 0.02734 0.0
C147 C 0.40806 0.83503 0.04425 0.0
C148 C 0.42912 0.88595 0.07434 0.0
O149 O 0.4627 0.87028 0.04393 0.0
O150 O 0.44601 0.85552 0.0248 0.0
O151 O 0.42257 0.8826 0.05858 0.0
O152 O 0.43921 0.87331 0.08069 0.0
C153 C 0.45877 0.82954 0.07244 0.0
O154 O 0.41734 0.83098 0.05838 0.0
O155 O 0.413 0.84976 0.03637 0.0
In156 In 0.88319 0.30782 0.69661 0.0
O157 O 0.88749 0.33407 0.71368 0.0
O158 O 0.90957 0.32493 0.69683 0.0
C159 C 0.85344 0.31935 0.67714 0.0
C160 C 0.9045 0.28321 0.6783 0.0
C161 C 0.87119 0.28599 0.72425 0.0
O162 O 0.85269 0.31515 0.694 0.0
O163 O 0.86944 0.31866 0.67026 0.0
O164 O 0.86613 0.28384 0.70768 0.0
O165 O 0.88226 0.29922 0.72689 0.0
C166 C 0.90403 0.33633 0.70872 0.0
O167 O 0.90315 0.28351 0.69565 0.0
O168 O 0.89502 0.29531 0.67007 0.0
In169 In 0.93878 0.64414 0.93954 0.0
O170 O 0.91272 0.64716 0.95716 0.0
O171 O 0.92333 0.67107 0.94393 0.0
C172 C 0.92699 0.61369 0.92122 0.0
C173 C 0.96074 0.66392 0.91687 0.0
C174 C 0.96206 0.63619 0.96754 0.0
O175 O 0.92876 0.61423 0.93852 0.0
O176 O 0.93005 0.62887 0.91326 0.0
O177 O 0.96155 0.62695 0.95275 0.0
O178 O 0.95087 0.64954 0.9682 0.0
C179 C 0.91151 0.6644 0.95483 0.0
O180 O 0.9669 0.65439 0.93008 0.0
O181 O 0.94341 0.66336 0.91489 0.0
In182 In 0.60368 0.68722 0.19035 0.0
O183 O 0.59699 0.71304 0.1736 0.0
O184 O 0.57785 0.69075 0.17272 0.0
C185 C 0.60992 0.71385 0.21571 0.0
C186 C 0.58659 0.66019 0.20937 0.0
C187 C 0.63308 0.67314 0.1719 0.0
O188 O 0.59523 0.70446 0.21535 0.0
O189 O 0.62138 0.70995 0.20315 0.0
O190 O 0.63298 0.67567 0.1891 0.0
O191 O 0.61798 0.67678 0.16407 0.0
C192 C 0.58181 0.70694 0.16757 0.0
O193 O 0.58116 0.66549 0.19369 0.0
O194 O 0.60137 0.66763 0.21481 0.0
In195 In 0.55962 0.36174 0.44753 0.0
O196 O 0.54215 0.33584 0.44431 0.0
O197 O 0.54472 0.35345 0.42094 0.0
C198 C 0.53495 0.3702 0.47412 0.0
C199 C 0.58911 0.34209 0.45894 0.0
C200 C 0.57122 0.39349 0.43157 0.0
O201 O 0.5324 0.37415 0.45733 0.0
O202 O 0.54996 0.36203 0.4775 0.0
O203 O 0.56576 0.39254 0.44806 0.0
O204 O 0.57164 0.37819 0.42324 0.0
C205 C 0.53803 0.33878 0.42765 0.0
O206 O 0.58058 0.33849 0.44421 0.0
O207 O 0.58363 0.35645 0.46712 0.0
In208 In 0.30268 0.39498 0.19002 0.0
O209 O 0.31023 0.40877 0.21713 0.0
O210 O 0.32879 0.41201 0.19445 0.0
C211 C 0.27456 0.38387 0.21191 0.0
C212 C 0.28961 0.41806 0.16384 0.0
C213 C 0.32043 0.36414 0.17836 0.0
O214 O 0.2912 0.37972 0.21504 0.0
O215 O 0.27207 0.39375 0.19779 0.0
O216 O 0.30315 0.36597 0.17751 0.0
O217 O 0.32883 0.37824 0.18414 0.0
C218 C 0.32507 0.41575 0.21112 0.0
O219 O 0.28993 0.40077 0.16157 0.0
O220 O 0.2965 0.42352 0.17882 0.0
In221 In 0.8042 0.09833 0.80577 0.0
O222 O 0.82358 0.09084 0.78234 0.0
O223 O 0.82823 0.07817 0.80852 0.0
C224 C 0.77995 0.10794 0.77925 0.0
C225 C 0.78649 0.07214 0.82532 0.0
C226 C 0.81632 0.131 0.81965 0.0
O227 O 0.79646 0.10351 0.77577 0.0
O228 O 0.77572 0.10778 0.79617 0.0
O229 O 0.79951 0.12755 0.81687 0.0
O230 O 0.82692 0.11757 0.81654 0.0
C231 C 0.83305 0.07963 0.79179 0.0
O232 O 0.79466 0.08542 0.83322 0.0
O233 O 0.7874 0.07228 0.80797 0.0
In234 In 0.1411 0.55048 0.04972 0.0
O235 O 0.1462 0.56783 0.02388 0.0
O236 O 0.16744 0.56671 0.04415 0.0
C237 C 0.13689 0.5228 0.02512 0.0
C238 C 0.15674 0.5346 0.07957 0.0
C239 C 0.11078 0.56941 0.06081 0.0
O240 O 0.15243 0.52723 0.03165 0.0
O241 O 0.12355 0.53252 0.03078 0.0
O242 O 0.11083 0.55219 0.05836 0.0
O243 O 0.12626 0.57703 0.05847 0.0
C244 C 0.1622 0.57284 0.02869 0.0
O245 O 0.1602 0.55101 0.07486 0.0
O246 O 0.14464 0.5267 0.0699 0.0
In247 In 0.68787 0.89842 0.30774 0.0
O248 O 0.68419 0.91882 0.28415 0.0
O249 O 0.66261 0.91692 0.30407 0.0
C250 C 0.71409 0.88945 0.28278 0.0
C251 C 0.70279 0.91376 0.33834 0.0
C252 C 0.66751 0.86779 0.31464 0.0
O253 O 0.69823 0.88217 0.28282 0.0
O254 O 0.71664 0.90147 0.29515 0.0
O255 O 0.6847 0.86844 0.31733 0.0
O256 O 0.66052 0.88283 0.30938 0.0
C257 C 0.66858 0.92447 0.2895 0.0
O258 O 0.6901 0.92133 0.32921 0.0
O259 O 0.70708 0.89783 0.33279 0.0
In260 In 0.34476 0.43817 0.55483 0.0
O261 O 0.34376 0.45906 0.57832 0.0
O262 O 0.32225 0.43919 0.57681 0.0
C263 C 0.375 0.41753 0.56232 0.0
C264 C 0.31915 0.41796 0.53697 0.0
C265 C 0.35419 0.46607 0.53186 0.0
O266 O 0.37111 0.43191 0.57136 0.0
O267 O 0.36331 0.4133 0.55017 0.0
O268 O 0.36398 0.45179 0.53387 0.0
O269 O 0.33946 0.46616 0.54118 0.0
C270 C 0.32864 0.4533 0.58478 0.0
O271 O 0.32679 0.43195 0.52984 0.0
O272 O 0.32445 0.41413 0.55315 0.0
In273 In 0.1935 0.60413 0.69238 0.0
O274 O 0.19301 0.58206 0.66986 0.0
O275 O 0.21625 0.59989 0.67114 0.0
C276 C 0.17306 0.63396 0.68261 0.0
C277 C 0.17267 0.58101 0.71278 0.0
C278 C 0.22184 0.61224 0.7152 0.0
O279 O 0.18855 0.63057 0.67541 0.0
O280 O 0.16771 0.62199 0.69401 0.0
O281 O 0.21891 0.59614 0.70919 0.0
O282 O 0.21038 0.62424 0.70982 0.0
C283 C 0.20875 0.5861 0.66359 0.0
O284 O 0.18305 0.59311 0.71987 0.0
O285 O 0.17269 0.58062 0.69532 0.0
In286 In 0.6455 0.93432 0.9468 0.0
O287 O 0.65468 0.925 0.97532 0.0
O288 O 0.66534 0.91046 0.95204 0.0
C289 C 0.63165 0.96396 0.96474 0.0
C290 C 0.67208 0.94677 0.92407 0.0
C291 C 0.61544 0.91613 0.93392 0.0
O292 O 0.63057 0.94773 0.97103 0.0
O293 O 0.63957 0.96526 0.94929 0.0
O294 O 0.61833 0.93298 0.93054 0.0
O295 O 0.62824 0.90833 0.94273 0.0
C296 C 0.66503 0.91225 0.96941 0.0
O297 O 0.65782 0.93875 0.91791 0.0
O298 O 0.6728 0.94817 0.9414 0.0
In299 In 0.85603 0.05022 0.43488 0.0
O300 O 0.8385 0.04925 0.40858 0.0
O301 O 0.85274 0.02498 0.41656 0.0
C302 C 0.88624 0.07207 0.43261 0.0
C303 C 0.82645 0.06955 0.44625 0.0
C304 C 0.86536 0.02485 0.46053 0.0
O305 O 0.8816 0.06157 0.41948 0.0
O306 O 0.87567 0.07154 0.44638 0.0
O307 O 0.85419 0.03785 0.46375 0.0
O308 O 0.87208 0.02481 0.44445 0.0
C309 C 0.8415 0.03236 0.40556 0.0
O310 O 0.82895 0.0528 0.45051 0.0
O311 O 0.83877 0.07648 0.43597 0.0
H312 H 0.10385 0.16504 0.52114 0.0
H313 H 0.11566 0.18792 0.49917 0.0
H314 H 0.08706 0.23119 0.5285 0.0
H315 H 0.07509 0.20844 0.5505 0.0
H316 H 0.0851 0.21168 0.47986 0.0
H317 H 0.14204 0.25067 0.51423 0.0
H318 H 0.13724 0.22679 0.51986 0.0
H319 H 0.12168 0.24456 0.52728 0.0
C320 C 0.10058 0.1795 0.52328 0.0
C321 C 0.08844 0.18497 0.53741 0.0
C322 C 0.10726 0.19251 0.51069 0.0
C323 C 0.10211 0.21113 0.51226 0.0
C324 C 0.09121 0.21686 0.52719 0.0
H325 H 0.13227 0.30027 0.43657 0.0
H326 H 0.11614 0.28409 0.46161 0.0
C327 C 0.08442 0.20386 0.53972 0.0
C328 C 0.10606 0.224 0.49702 0.0
H329 H 0.13442 0.25917 0.48376 0.0
C330 C 0.09581 0.22215 0.48068 0.0
C331 C 0.11975 0.2378 0.49842 0.0
C332 C 0.13092 0.24019 0.51584 0.0
C333 C 0.09927 0.2335 0.46539 0.0
C334 C 0.11362 0.24673 0.46642 0.0
C335 C 0.12339 0.24904 0.48304 0.0
C336 C 0.12011 0.25685 0.44991 0.0
C337 C 0.08762 0.23114 0.44827 0.0
C338 C 0.12714 0.2469 0.43483 0.0
C339 C 0.13625 0.25606 0.42055 0.0
C340 C 0.13862 0.27532 0.42119 0.0
C341 C 0.13053 0.28542 0.43568 0.0
C342 C 0.12143 0.27621 0.45003 0.0
H343 H 0.07374 0.22554 0.45171 0.0
H344 H 0.08588 0.24444 0.4408 0.0
H345 H 0.09447 0.22115 0.43885 0.0
H346 H 0.1266 0.23194 0.43462 0.0
H347 H 0.1424 0.24793 0.40958 0.0
H348 H 0.94636 0.89705 0.69716 0.0
H349 H 0.96355 0.88356 0.72307 0.0
H350 H 0.01291 0.88225 0.68971 0.0
H351 H 0.99595 0.89574 0.66383 0.0
H352 H 0.99423 0.84925 0.72408 0.0
H353 H 0.01644 0.92185 0.73699 0.0
H354 H 0.99485 0.91623 0.72574 0.0
H355 H 0.01622 0.91395 0.71338 0.0
C356 C 0.96069 0.89322 0.69513 0.0
C357 C 0.96992 0.89761 0.67859 0.0
C358 C 0.97048 0.88562 0.70995 0.0
C359 C 0.98946 0.88224 0.70824 0.0
C360 C -0.00176 0.88492 0.6912 0.0
H361 H 0.08808 0.85989 0.76334 0.0
H362 H 0.0625 0.87301 0.74567 0.0
C363 C 0.98854 0.89256 0.67645 0.0
C364 C 0.00077 0.87823 0.72464 0.0
H365 H 0.03245 0.89834 0.75317 0.0
C366 C 0.00235 0.85995 0.73075 0.0
C367 C 0.01124 0.89235 0.73315 0.0
C368 C 0.00961 0.91226 0.72713 0.0
C369 C 0.01501 0.85524 0.74465 0.0
C370 C 0.02606 0.86929 0.75267 0.0
C371 C 0.02387 0.88768 0.74704 0.0
C372 C 0.04144 0.86475 0.76525 0.0
C373 C 0.01723 0.83517 0.74992 0.0
C374 C 0.03808 0.85679 0.78258 0.0
C375 C 0.05269 0.84933 0.79275 0.0
C376 C 0.07078 0.84975 0.78564 0.0
C377 C 0.07427 0.8593 0.76911 0.0
C378 C 0.05967 0.86676 0.75898 0.0
H379 H 0.0096 0.82579 0.74044 0.0
H380 H 0.03206 0.83121 0.74985 0.0
H381 H 0.01185 0.83302 0.76412 0.0
H382 H 0.02409 0.85544 0.78775 0.0
H383 H 0.04961 0.84213 0.80551 0.0
H384 H 0.35201 0.69657 0.94618 0.0
H385 H 0.36319 0.7154 0.97209 0.0
H386 H 0.36239 0.76383 0.93737 0.0
H387 H 0.35123 0.74524 0.91151 0.0
H388 H 0.39461 0.74322 0.97571 0.0
H389 H 0.32377 0.77237 0.98093 0.0
H390 H 0.32873 0.75099 0.969 0.0
H391 H 0.33372 0.77277 0.95816 0.0
C392 C 0.35477 0.71112 0.94394 0.0
C393 C 0.35057 0.71952 0.92692 0.0
C394 C 0.36104 0.72184 0.95875 0.0
C395 C 0.36315 0.74099 0.95664 0.0
C396 C 0.36051 0.74908 0.93926 0.0
H397 H 0.38912 0.83942 0.01206 0.0
H398 H 0.37566 0.81476 0.99334 0.0
C399 C 0.35425 0.73843 0.9245 0.0
C400 C 0.36669 0.7529 0.97277 0.0
H401 H 0.34733 0.78769 -0.00194 0.0
C402 C 0.38425 0.75276 0.98086 0.0
C403 C 0.353 0.76519 0.97939 0.0
C404 C 0.33368 0.7653 0.97156 0.0
C405 C 0.38886 0.76542 0.99481 0.0
C406 C 0.37537 0.77823 0.00094 0.0
C407 C 0.35757 0.77781 0.99334 0.0
C408 C 0.38013 0.79336 0.01376 0.0
C409 C 0.40839 0.76567 0.00215 0.0
C410 C 0.38606 0.78962 0.03181 0.0
C411 C 0.39374 0.8037 0.04256 0.0
C412 C 0.39554 0.82167 0.03535 0.0
C413 C 0.38799 0.82569 0.01793 0.0
C414 C 0.38034 0.81161 0.00721 0.0
H415 H 0.41786 0.75704 0.99369 0.0
H416 H 0.41384 0.78003 0.00251 0.0
H417 H 0.40848 0.76022 0.01647 0.0
H418 H 0.38564 0.77566 0.0372 0.0
H419 H 0.39936 0.80024 0.05599 0.0
H420 H 0.50353 0.10611 0.15636 0.0
H421 H 0.48584 0.11927 0.18191 0.0
H422 H 0.53467 0.11902 0.21607 0.0
H423 H 0.55256 0.10598 0.19046 0.0
H424 H 0.48424 0.0972 0.21552 0.0
H425 H 0.50849 0.16933 0.22777 0.0
H426 H 0.51108 0.15801 0.20565 0.0
H427 H 0.52574 0.15167 0.22459 0.0
C428 C 0.51066 0.10947 0.16909 0.0
C429 C 0.52937 0.1049 0.1715 0.0
C430 C 0.50053 0.1169 0.18368 0.0
C431 C 0.50896 0.11995 0.20084 0.0
C432 C 0.52799 0.11688 0.20285 0.0
H433 H 0.45284 0.15729 0.30099 0.0
H434 H 0.47638 0.14245 0.28173 0.0
C435 C 0.53819 0.10949 0.18819 0.0
C436 C 0.49729 0.12395 0.21707 0.0
H437 H 0.48567 0.15765 0.24783 0.0
C438 C 0.4846 0.11038 0.22269 0.0
C439 C 0.49811 0.14099 0.22652 0.0
C440 C 0.5115 0.15594 0.22086 0.0
C441 C 0.47222 0.11364 0.23719 0.0
C442 C 0.47237 0.13102 0.24606 0.0
C443 C 0.48563 0.1443 0.24099 0.0
C444 C 0.45771 0.13654 0.25915 0.0
C445 C 0.45895 0.09853 0.24274 0.0
C446 C 0.43934 0.13751 0.25304 0.0
C447 C 0.42589 0.14591 0.26399 0.0
C448 C 0.43065 0.1536 0.28116 0.0
C449 C 0.44877 0.15143 0.28783 0.0
C450 C 0.46225 0.14305 0.27683 0.0
H451 H 0.46452 0.08464 0.23926 0.0
H452 H 0.4559 0.09901 0.25778 0.0
H453 H 0.44578 0.10033 0.2351 0.0
H454 H 0.43561 0.13285 0.23931 0.0
H455 H 0.41205 0.14744 0.25848 0.0
H456 H 0.6436 0.2397 0.58575 0.0
H457 H 0.6283 0.26031 0.564 0.0
H458 H 0.62807 0.21707 0.52293 0.0
H459 H 0.64368 0.19638 0.54459 0.0
H460 H 0.64696 0.24805 0.51194 0.0
H461 H 0.57851 0.26798 0.53961 0.0
H462 H 0.59642 0.27004 0.55662 0.0
H463 H 0.59069 0.24763 0.54742 0.0
C464 C 0.63965 0.23433 0.57235 0.0
C465 C 0.64505 0.21653 0.56676 0.0
C466 C 0.63083 0.24612 0.55993 0.0
C467 C 0.6271 0.24022 0.54184 0.0
C468 C 0.63087 0.22186 0.53683 0.0
H469 H 0.59813 0.30763 0.4466 0.0
H470 H 0.60939 0.28209 0.46562 0.0
C471 C 0.6397 0.21004 0.54926 0.0
C472 C 0.62228 0.25399 0.52757 0.0
H473 H 0.59236 0.28903 0.51785 0.0
C474 C 0.63485 0.25682 0.51303 0.0
C475 C 0.60657 0.26546 0.52913 0.0
C476 C 0.59219 0.26252 0.54395 0.0
C477 C 0.63252 0.27135 0.50042 0.0
C478 C 0.61715 0.28318 0.50239 0.0
C479 C 0.60429 0.28002 0.51658 0.0
C480 C 0.61396 0.29896 0.48989 0.0
C481 C 0.6468 0.27436 0.48552 0.0
C482 C 0.6135 0.31695 0.49709 0.0
C483 C 0.6071 0.33156 0.48627 0.0
C484 C 0.60091 0.32831 0.46816 0.0
C485 C 0.60286 0.31055 0.4605 0.0
C486 C 0.60926 0.29593 0.47135 0.0
H487 H 0.65967 0.26643 0.4882 0.0
H488 H 0.64108 0.26977 0.47205 0.0
H489 H 0.65032 0.28926 0.48432 0.0
H490 H 0.61715 0.3195 0.51138 0.0
H491 H 0.60576 0.3451 0.49253 0.0
H492 H 0.89709 0.35642 0.73983 0.0
H493 H 0.92024 0.36919 0.76091 0.0
H494 H 0.96338 0.35521 0.72222 0.0
H495 H 0.94036 0.34248 0.70104 0.0
H496 H 0.94866 0.34454 0.77431 0.0
H497 H 0.97766 0.40756 0.74112 0.0
H498 H 0.95517 0.39841 0.73526 0.0
H499 H 0.97568 0.38753 0.72653 0.0
C500 C 0.91143 0.35664 0.73553 0.0
C501 C 0.91696 0.34834 0.71887 0.0
C502 C 0.92463 0.36385 0.74762 0.0
C503 C 0.94346 0.36307 0.74309 0.0
C504 C 0.94888 0.35609 0.72585 0.0
H505 H 0.04284 0.38982 0.80466 0.0
H506 H 0.02176 0.37599 0.78212 0.0
C507 C 0.93571 0.34882 0.71379 0.0
C508 C 0.95751 0.3673 0.75725 0.0
H509 H 0.99317 0.39626 0.76759 0.0
C510 C 0.95837 0.35589 0.77291 0.0
C511 C 0.97027 0.3819 0.75515 0.0
C512 C 0.96965 0.39468 0.73869 0.0
C513 C 0.97174 0.35872 0.78663 0.0
C514 C 0.98431 0.37355 0.78474 0.0
C515 C 0.98357 0.38482 0.76893 0.0
C516 C 0.99753 0.3785 0.79949 0.0
C517 C 0.97242 0.34567 0.80288 0.0
C518 C 0.99098 0.38383 0.81694 0.0
C519 C 0.00298 0.39158 0.82987 0.0
C520 C 0.0217 0.39434 0.82545 0.0
C521 C 0.02849 0.38783 0.80846 0.0
C522 C 0.01646 0.38003 0.79553 0.0
H523 H 0.96616 0.33206 0.79944 0.0
H524 H 0.98684 0.34341 0.80761 0.0
H525 H 0.96442 0.35169 0.81451 0.0
H526 H 0.97638 0.38306 0.82016 0.0
H527 H 0.99734 0.39654 0.84282 0.0
H528 H 0.85205 0.74175 0.09903 0.0
H529 H 0.8668 0.72387 0.07459 0.0
H530 H 0.87386 0.77352 0.04231 0.0
H531 H 0.85874 0.7915 0.06662 0.0
H532 H 0.85389 0.74697 0.02437 0.0
H533 H 0.91777 0.7161 0.05301 0.0
H534 H 0.89809 0.71248 0.06766 0.0
H535 H 0.90638 0.7356 0.06365 0.0
C536 C 0.85734 0.74898 0.08703 0.0
C537 C 0.85408 0.76798 0.08463 0.0
C538 C 0.86583 0.73874 0.07308 0.0
C539 C 0.87141 0.74738 0.05664 0.0
C540 C 0.86962 0.76662 0.05491 0.0
H541 H 0.9066 0.70158 0.95192 0.0
H542 H 0.89483 0.72221 0.97594 0.0
C543 C 0.86107 0.77688 0.06885 0.0
C544 C 0.87648 0.73602 0.04043 0.0
H545 H 0.90519 0.70155 0.02599 0.0
C546 C 0.86527 0.73721 0.02462 0.0
C547 C 0.89119 0.7232 0.04089 0.0
C548 C 0.90415 0.72187 0.05715 0.0
C549 C 0.8681 0.72555 0.0094 0.0
C550 C 0.88258 0.71251 0.01003 0.0
C551 C 0.89395 0.71147 0.02571 0.0
C552 C 0.88663 0.70012 0.99435 0.0
C553 C 0.85535 0.72693 0.99297 0.0
C554 C 0.88538 0.68089 0.99659 0.0
C555 C 0.89201 0.66906 0.98286 0.0
C556 C 0.90021 0.67635 0.96683 0.0
C557 C 0.90031 0.69559 0.96412 0.0
C558 C 0.8936 0.7074 0.97781 0.0
H559 H 0.84256 0.73476 0.99628 0.0
H560 H 0.86259 0.7342 0.98157 0.0
H561 H 0.85145 0.71295 0.98794 0.0
H562 H 0.88003 0.67507 0.00931 0.0
H563 H 0.89183 0.6543 0.98535 0.0
H564 H 0.55224 0.64641 0.20222 0.0
H565 H 0.52979 0.63552 0.22506 0.0
H566 H 0.57103 0.63991 0.26785 0.0
H567 H 0.59363 0.65061 0.24509 0.0
H568 H 0.54791 0.60826 0.27051 0.0
H569 H 0.50787 0.67328 0.26207 0.0
H570 H 0.51178 0.66055 0.24111 0.0
H571 H 0.53104 0.67051 0.25322 0.0
C572 C 0.55665 0.64462 0.21641 0.0
C573 C 0.57462 0.64953 0.22193 0.0
C574 C 0.54377 0.6386 0.22945 0.0
C575 C 0.54867 0.63746 0.24816 0.0
C576 C 0.56697 0.64094 0.25347 0.0
H577 H 0.49 0.60848 0.34857 0.0
H578 H 0.51166 0.62327 0.32723 0.0
C579 C 0.57987 0.64695 0.24045 0.0
C580 C 0.53454 0.63352 0.26234 0.0
H581 H 0.49487 0.65039 0.28162 0.0
C582 C 0.53636 0.61748 0.27302 0.0
C583 C 0.51958 0.64571 0.26559 0.0
C584 C 0.51746 0.66357 0.25502 0.0
C585 C 0.52331 0.61302 0.28662 0.0
C586 C 0.50828 0.62514 0.28979 0.0
C587 C 0.5065 0.64124 0.27918 0.0
C588 C 0.4938 0.62061 0.30342 0.0
C589 C 0.52542 0.59511 0.29713 0.0
C590 C 0.47612 0.6156 0.29729 0.0
C591 C 0.46366 0.6073 0.30946 0.0
C592 C 0.46879 0.60389 0.32788 0.0
C593 C 0.48573 0.6108 0.33441 0.0
C594 C 0.49817 0.61913 0.32223 0.0
H595 H 0.53553 0.58567 0.29046 0.0
H596 H 0.53037 0.59814 0.31132 0.0
H597 H 0.51194 0.58784 0.29827 0.0
H598 H 0.47248 0.61683 0.28282 0.0
H599 H 0.45065 0.60221 0.30406 0.0
H600 H 0.29072 0.45558 0.16406 0.0
H601 H 0.26865 0.47652 0.14935 0.0
H602 H 0.24244 0.4302 0.12251 0.0
H603 H 0.26457 0.40908 0.1371 0.0
H604 H 0.25589 0.47963 0.10803 0.0
H605 H 0.20389 0.45699 0.16018 0.0
H606 H 0.22846 0.45461 0.16394 0.0
H607 H 0.21683 0.4394 0.14821 0.0
C608 C 0.28056 0.4499 0.15465 0.0
C609 C 0.27923 0.43072 0.15181 0.0
C610 C 0.26798 0.46187 0.1463 0.0
C611 C 0.25387 0.45479 0.13513 0.0
C612 C 0.25324 0.4358 0.13123 0.0
H613 H 0.15443 0.4981 0.08823 0.0
H614 H 0.17804 0.47956 0.10358 0.0
C615 C 0.26593 0.42381 0.13947 0.0
C616 C 0.23891 0.46706 0.12892 0.0
H617 H 0.1941 0.47862 0.13791 0.0
C618 C 0.24237 0.4795 0.11452 0.0
C619 C 0.22141 0.46677 0.13758 0.0
C620 C 0.21731 0.45382 0.15342 0.0
C621 C 0.22851 0.49146 0.10817 0.0
C622 C 0.21096 0.49123 0.11688 0.0
C623 C 0.20761 0.47884 0.1314 0.0
C624 C 0.19557 0.50288 0.11025 0.0
C625 C 0.2326 0.50376 0.09182 0.0
C626 C 0.19716 0.52221 0.10986 0.0
C627 C 0.1837 0.53286 0.10102 0.0
C628 C 0.16843 0.52428 0.09263 0.0
C629 C 0.1661 0.50508 0.0945 0.0
C630 C 0.1796 0.49446 0.10322 0.0
H631 H 0.24503 0.49909 0.0841 0.0
H632 H 0.2207 0.50415 0.08214 0.0
H633 H 0.23521 0.51805 0.09676 0.0
H634 H 0.20917 0.52898 0.11569 0.0
H635 H 0.18578 0.54765 0.09989 0.0
H636 H 0.67201 0.9502 0.88636 0.0
H637 H 0.69393 0.96806 0.86758 0.0
H638 H 0.72536 0.98105 0.91655 0.0
H639 H 0.7039 0.96308 0.93521 0.0
H640 H 0.69959 0.00515 0.87227 0.0
H641 H 0.76595 0.96795 0.88042 0.0
H642 H 0.74396 0.95752 0.886 0.0
H643 H 0.75512 0.97277 0.9022 0.0
C644 C 0.68385 0.95652 0.893 0.0
C645 C 0.68625 0.95532 0.91222 0.0
C646 C 0.69631 0.96671 0.8823 0.0
C647 C 0.71138 0.97566 0.89067 0.0
C648 C 0.7141 0.9739 0.90975 0.0
H649 H 0.78307 0.06724 0.86277 0.0
H650 H 0.76515 0.04305 0.87862 0.0
C651 C 0.70171 0.96374 0.92041 0.0
C652 C 0.72308 0.98856 0.88 0.0
H653 H 0.76793 -0.00043 0.87024 0.0
C654 C 0.7145 0.00379 0.8716 0.0
C655 C 0.74254 0.98679 0.87929 0.0
C656 C 0.75241 0.97027 0.88731 0.0
C657 C 0.72494 0.0176 0.86294 0.0
C658 C 0.74438 0.01605 0.86266 0.0
C659 C 0.75299 0.00072 0.87076 0.0
C660 C 0.75587 0.03001 0.85336 0.0
C661 C 0.71522 0.03396 0.85441 0.0
C662 C 0.75661 0.03038 0.83406 0.0
C663 C 0.76676 0.04402 0.82506 0.0
C664 C 0.77632 0.05755 0.83523 0.0
C665 C 0.77579 0.057 0.85463 0.0
C666 C 0.76564 0.04323 0.86366 0.0
H667 H 0.70028 0.03434 0.85798 0.0
H668 H 0.72176 0.04706 0.85906 0.0
H669 H 0.71655 0.03326 0.83915 0.0
H670 H 0.74916 0.0202 0.82597 0.0
H671 H 0.76694 0.04406 0.81009 0.0
H672 H 0.73445 0.9023 0.35527 0.0
H673 H 0.75821 0.92237 0.36853 0.0
H674 H 0.72212 0.96941 0.36228 0.0
H675 H 0.69824 0.94945 0.34931 0.0
H676 H 0.77279 0.95017 0.34663 0.0
H677 H 0.74589 0.97921 0.41227 0.0
H678 H 0.73635 0.95865 0.40178 0.0
H679 H 0.72997 0.98115 0.39336 0.0
C680 C 0.73132 0.9168 0.35738 0.0
C681 C 0.71457 0.92437 0.35111 0.0
C682 C 0.74493 0.92824 0.36485 0.0
C683 C 0.74192 0.94735 0.36631 0.0
C684 C 0.72463 0.95467 0.3615 0.0
H685 H 0.81016 0.04309 0.38761 0.0
H686 H 0.78642 0.02249 0.37508 0.0
C687 C 0.711 0.94323 0.35406 0.0
C688 C 0.75752 0.9599 0.3703 0.0
H689 H 0.7717 0.99468 0.39874 0.0
C690 C 0.77266 0.9598 0.35812 0.0
C691 C 0.75715 0.97256 0.38515 0.0
C692 C 0.74154 0.97283 0.39899 0.0
C693 C 0.78737 0.97222 0.36028 0.0
C694 C 0.78695 0.98492 0.37508 0.0
C695 C 0.77184 0.98502 0.38727 0.0
C696 C 0.80248 0.99756 0.37892 0.0
C697 C 0.80307 0.97189 0.34656 0.0
C698 C 0.81959 0.99037 0.38448 0.0
C699 C 0.83316 0.00208 0.39158 0.0
C700 C 0.82975 0.02113 0.39332 0.0
C701 C 0.81318 0.02848 0.38636 0.0
C702 C 0.79958 0.01673 0.37932 0.0
H703 H 0.79907 0.96486 0.33351 0.0
H704 H 0.80779 0.98613 0.34328 0.0
H705 H 0.8149 0.96425 0.35262 0.0
H706 H 0.82199 0.97559 0.38447 0.0
H707 H 0.84579 0.99604 0.39688 0.0
H708 H 0.24355 0.59103 0.6502 0.0
H709 H 0.26311 0.56758 0.63589 0.0
H710 H 0.21722 0.52947 0.63517 0.0
H711 H 0.19757 0.55284 0.64976 0.0
H712 H 0.24849 0.51591 0.65307 0.0
H713 H 0.26684 0.54478 0.58449 0.0
H714 H 0.27048 0.5607 0.60316 0.0
H715 H 0.24743 0.55309 0.59781 0.0
C716 C 0.23747 0.57785 0.64652 0.0
C717 C 0.21907 0.57372 0.65116 0.0
C718 C 0.24866 0.56447 0.63829 0.0
C719 C 0.24157 0.54684 0.63444 0.0
C720 C 0.2229 0.54304 0.63804 0.0
H721 H 0.29381 0.446 0.59717 0.0
H722 H 0.27274 0.46803 0.6117 0.0
C723 C 0.21169 0.55642 0.64627 0.0
C724 C 0.25415 0.53188 0.62857 0.0
H725 H 0.28548 0.5199 0.59549 0.0
C726 C 0.25646 0.51665 0.64039 0.0
C727 C 0.26458 0.53302 0.61211 0.0
C728 C 0.26211 0.54869 0.59857 0.0
C729 C 0.2693 0.50269 0.63638 0.0
C730 C 0.27989 0.50398 0.62005 0.0
C731 C 0.27743 0.5191 0.60813 0.0
C732 C 0.29328 0.48959 0.61462 0.0
C733 C 0.27175 0.48694 0.64981 0.0
C734 C 0.3119 0.49427 0.61195 0.0
C735 C 0.32396 0.48173 0.60364 0.0
C736 C 0.3175 0.46439 0.59773 0.0
C737 C 0.29918 0.45924 0.60164 0.0
C738 C 0.28712 0.47181 0.60996 0.0
H739 H 0.266 0.4903 0.66365 0.0
H740 H 0.26438 0.47457 0.64449 0.0
H741 H 0.28658 0.48333 0.65135 0.0
H742 H 0.31687 0.50796 0.61548 0.0
H743 H 0.33801 0.48607 0.60079 0.0
H744 H 0.29965 0.38828 0.54988 0.0
H745 H 0.27721 0.36941 0.53283 0.0
H746 H 0.28485 0.40375 0.48472 0.0
H747 H 0.30726 0.42264 0.50158 0.0
H748 H 0.24333 0.38143 0.51361 0.0
H749 H 0.29587 0.34956 0.46751 0.0
H750 H 0.30184 0.36077 0.489 0.0
H751 H 0.29672 0.37436 0.46888 0.0
C752 C 0.29651 0.39181 0.53567 0.0
C753 C 0.30527 0.40685 0.527 0.0
C754 C 0.28369 0.38107 0.526 0.0
C755 C 0.27958 0.38513 0.50751 0.0
C756 C 0.28805 0.40031 0.49893 0.0
H757 H 0.19421 0.35131 0.4324 0.0
H758 H 0.21313 0.36734 0.4554 0.0
C759 C 0.3008 0.41109 0.50859 0.0
C760 C 0.26666 0.37336 0.49698 0.0
H761 H 0.26441 0.34462 0.4597 0.0
C762 C 0.2479 0.37326 0.5019 0.0
C763 C 0.27278 0.36257 0.4819 0.0
C764 C 0.29292 0.36163 0.47654 0.0
C765 C 0.23494 0.36305 0.49168 0.0
C766 C 0.24097 0.35286 0.47613 0.0
C767 C 0.25983 0.35253 0.47159 0.0
C768 C 0.228 0.34283 0.46394 0.0
C769 C 0.21495 0.36321 0.49758 0.0
C770 C 0.23009 0.32375 0.46116 0.0
C771 C 0.21939 0.31459 0.44798 0.0
C772 C 0.2065 0.3244 0.43727 0.0
C773 C 0.20399 0.34339 0.4405 0.0
C774 C 0.21471 0.35255 0.4537 0.0
H775 H 0.21341 0.36745 0.51226 0.0
H776 H 0.20723 0.37324 0.48892 0.0
H777 H 0.20854 0.34938 0.49572 0.0
H778 H 0.24035 0.31605 0.46887 0.0
H779 H 0.22163 0.29994 0.44579 0.0
H780 H 0.95233 0.97536 0.70604 0.0
H781 H 0.93878 0.99427 0.73061 0.0
H782 H 0.8843 0.98339 0.70896 0.0
H783 H 0.89769 0.96414 0.68466 0.0
H784 H 0.91955 0.02553 0.72595 0.0
H785 H 0.87615 0.97507 0.76345 0.0
H786 H 0.89384 0.96807 0.74729 0.0
H787 H 0.87129 0.97481 0.73916 0.0
C788 C 0.93743 0.97677 0.70671 0.0
C789 C 0.92604 0.96829 0.69346 0.0
C790 C 0.92973 0.98756 0.72075 0.0
C791 C 0.91053 0.99002 0.72178 0.0
C792 C 0.89912 0.9813 0.70872 0.0
H793 H 0.84447 0.07961 0.75599 0.0
H794 H 0.86606 0.05827 0.74136 0.0
C795 C 0.90679 0.97041 0.69476 0.0
C796 C 0.90247 0.00299 0.7354 0.0
H797 H 0.8678 0.00724 0.76706 0.0
C798 C 0.90845 0.02146 0.73518 0.0
C799 C 0.88825 0.99762 0.7477 0.0
C800 C 0.88215 0.97776 0.74958 0.0
C801 C 0.89983 0.03493 0.74613 0.0
C802 C 0.88459 0.02983 0.75725 0.0
C803 C 0.87935 0.01117 0.75833 0.0
C804 C 0.87292 0.04378 0.76662 0.0
C805 C 0.90695 0.05452 0.74543 0.0
C806 C 0.86945 0.04259 0.78567 0.0
C807 C 0.85695 0.05471 0.79406 0.0
C808 C 0.84766 0.06809 0.78348 0.0
C809 C 0.8515 0.06952 0.76451 0.0
C810 C 0.86395 0.0574 0.75615 0.0
H811 H 0.92185 0.0549 0.74173 0.0
H812 H 0.89929 0.06229 0.73466 0.0
H813 H 0.90503 0.06167 0.75888 0.0
H814 H 0.87615 0.03208 0.79395 0.0
H815 H 0.85419 0.05327 0.80871 0.0
H816 H 0.25235 0.66486 0.905 0.0
H817 H 0.23004 0.64848 0.92452 0.0
H818 H 0.26999 0.64661 0.9687 0.0
H819 H 0.29227 0.66318 0.94938 0.0
H820 H 0.23365 0.61361 0.94092 0.0
H821 H 0.22414 0.66839 0.99381 0.0
H822 H 0.23479 0.6728 0.97167 0.0
H823 H 0.24782 0.66207 0.9899 0.0
C824 C 0.25635 0.661 0.91889 0.0
C825 C 0.27401 0.66536 0.92571 0.0
C826 C 0.24361 0.65166 0.93001 0.0
C827 C 0.24829 0.64663 0.94813 0.0
C828 C 0.26599 0.65075 0.95489 0.0
H829 H 0.19698 0.58514 0.03635 0.0
H830 H 0.21729 0.60333 0.01634 0.0
C831 C 0.27873 0.6601 0.9438 0.0
C832 C 0.23484 0.63658 0.95981 0.0
H833 H 0.21135 0.63886 0.00067 0.0
C834 C 0.22864 0.61917 0.95392 0.0
C835 C 0.22838 0.64391 0.97675 0.0
C836 C 0.23398 0.66289 0.98337 0.0
C837 C 0.2165 0.60864 0.96476 0.0
C838 C 0.21018 0.61589 0.98178 0.0
C839 C 0.21625 0.63337 0.98761 0.0
C840 C 0.19759 0.60535 0.99395 0.0
C841 C 0.21093 0.58963 0.95819 0.0
C842 C 0.17969 0.60076 0.98807 0.0
C843 C 0.16806 0.59036 -0.00054 0.0
C844 C 0.17414 0.58448 0.01694 0.0
C845 C 0.19194 0.58944 0.02293 0.0
C846 C 0.20354 0.59984 0.01154 0.0
H847 H 0.22019 0.58447 0.94708 0.0
H848 H 0.21106 0.57958 0.96978 0.0
H849 H 0.19666 0.59021 0.95259 0.0
H850 H 0.17475 0.60519 0.97466 0.0
H851 H 0.15437 0.58682 0.99453 0.0
H852 H 0.60676 0.04007 0.17276 0.0
H853 H 0.62274 0.02121 0.19585 0.0
H854 H 0.57093 0.01114 0.22364 0.0
H855 H 0.55481 0.02957 0.20034 0.0
H856 H 0.62569 0.02345 0.23385 0.0
H857 H 0.58919 0.95915 0.21293 0.0
H858 H 0.58827 0.98008 0.19941 0.0
H859 H 0.57412 0.97765 0.21971 0.0
C860 C 0.59881 0.03393 0.18386 0.0
C861 C 0.57953 0.03609 0.18466 0.0
C862 C 0.60794 0.02319 0.19704 0.0
C863 C 0.59795 0.01449 0.21121 0.0
C864 C 0.57882 0.01737 0.21254 0.0
H865 H 0.63331 0.93626 0.296 0.0
H866 H 0.61582 0.95938 0.27842 0.0
C867 C 0.56966 0.02797 0.19928 0.0
C868 C 0.6075 0.00192 0.22421 0.0
H869 H 0.60915 0.95702 0.23866 0.0
C870 C 0.62206 0.00893 0.23494 0.0
C871 C 0.60274 0.98298 0.22554 0.0
C872 C 0.58785 0.97444 0.21367 0.0
C873 C 0.63201 0.99747 0.24699 0.0
C874 C 0.62732 0.97854 0.2482 0.0
C875 C 0.61258 0.97159 0.23773 0.0
C876 C 0.63815 0.96545 0.25947 0.0
C877 C 0.64746 0.00563 0.25837 0.0
C878 C 0.65638 0.9612 0.25448 0.0
C879 C 0.66631 0.94795 0.26436 0.0
C880 C 0.65816 0.93876 0.2794 0.0
C881 C 0.63994 0.94317 0.28449 0.0
C882 C 0.62996 0.95635 0.2745 0.0
H883 H 0.64654 0.02094 0.25912 0.0
H884 H 0.6473 -6e-05 0.27262 0.0
H885 H 0.66091 0.00196 0.25196 0.0
H886 H 0.6628 0.96787 0.24271 0.0
H887 H 0.68033 0.94481 0.26012 0.0
H888 H 0.70744 0.13832 0.55562 0.0
H889 H 0.72519 0.12104 0.5325 0.0
H890 H 0.7483 0.17206 0.51201 0.0
H891 H 0.73102 0.18935 0.53534 0.0
H892 H 0.72689 0.12244 0.49403 0.0
H893 H 0.79396 0.14232 0.52564 0.0
H894 H 0.77214 0.14611 0.53708 0.0
H895 H 0.77979 0.16163 0.51923 0.0
C896 C 0.71624 0.14584 0.54611 0.0
C897 C 0.71807 0.16514 0.54741 0.0
C898 C 0.72632 0.13597 0.53291 0.0
C899 C 0.7383 0.14526 0.52081 0.0
C900 C 0.73945 0.16461 0.52151 0.0
H901 H 0.82041 0.10657 0.44227 0.0
H902 H 0.79713 0.12531 0.45816 0.0
C903 C 0.72953 0.17446 0.5348 0.0
C904 C 0.75018 0.13468 0.50798 0.0
H905 H 0.7953 0.12582 0.49751 0.0
C906 C 0.74185 0.12317 0.49475 0.0
C907 C 0.76969 0.13562 0.50905 0.0
C908 C 0.77946 0.14694 0.52361 0.0
C909 C 0.75256 0.11266 0.48244 0.0
C910 C 0.77203 0.11366 0.48353 0.0
C911 C 0.78034 0.12527 0.49663 0.0
C912 C 0.78422 0.1021 0.47193 0.0
C913 C 0.74303 0.10068 0.46829 0.0
C914 C 0.78448 0.08286 0.4743 0.0
C915 C 0.7978 0.07215 0.46533 0.0
C916 C 0.81109 0.08054 0.45391 0.0
C917 C 0.81033 0.09973 0.45099 0.0
C918 C 0.79706 0.11044 0.46003 0.0
H919 H 0.7284 0.10486 0.46623 0.0
H920 H 0.75033 0.1013 0.4548 0.0
H921 H 0.74318 0.08611 0.4731 0.0
H922 H 0.7749 0.07622 0.4837 0.0
H923 H 0.79807 0.05739 0.46785 0.0
H924 H 0.1519 0.55176 0.70096 0.0
H925 H 0.1338 0.53033 0.72004 0.0
H926 H 0.15033 0.55993 0.76905 0.0
H927 H 0.16844 0.58135 0.75016 0.0
H928 H 0.1481 0.50803 0.75095 0.0
H929 H 0.09254 0.55702 0.77139 0.0
H930 H 0.10722 0.56081 0.75154 0.0
H931 H 0.11577 0.56532 0.77439 0.0
C932 C 0.15159 0.55373 0.71579 0.0
C933 C 0.16151 0.56824 0.72409 0.0
C934 C 0.1413 0.54149 0.72664 0.0
C935 C 0.14062 0.54372 0.74588 0.0
C936 C 0.15051 0.55817 0.75419 0.0
H937 H 0.08881 0.4894 0.83833 0.0
H938 H 0.10621 0.50958 0.81749 0.0
C939 C 0.16089 0.57033 0.74339 0.0
C940 C 0.12995 0.5307 0.75741 0.0
H941 H 0.09325 0.52816 0.78689 0.0
C942 C 0.13602 0.51234 0.75872 0.0
C943 C 0.11428 0.53648 0.76752 0.0
C944 C 0.10691 0.55594 0.76609 0.0
C945 C 0.12708 0.49965 0.77036 0.0
C946 C 0.11145 0.50545 0.78059 0.0
C947 C 0.10527 0.52378 0.77906 0.0
C948 C 0.1014 0.49283 0.79317 0.0
C949 C 0.13479 0.48033 0.77204 0.0
C950 C 0.09288 0.47679 0.78636 0.0
C951 C 0.08303 0.46519 0.79825 0.0
C952 C 0.08139 0.46957 0.8171 0.0
C953 C 0.08988 0.48567 0.82387 0.0
C954 C 0.09979 0.49721 0.81199 0.0
H955 H 0.14935 0.47958 0.76722 0.0
H956 H 0.13415 0.47539 0.78656 0.0
H957 H 0.12646 0.4708 0.76339 0.0
H958 H 0.09362 0.47338 0.77181 0.0
H959 H 0.07651 0.45293 0.79264 0.0
H960 H 0.69184 0.88752 0.95983 0.0
H961 H 0.71198 0.86997 0.98065 0.0
H962 H 0.68429 0.89381 0.02773 0.0
H963 H 0.66416 0.9115 0.00706 0.0
H964 H 0.7352 0.8878 0.01025 0.0
H965 H 0.68469 0.83567 0.03594 0.0
H966 H 0.68168 0.84772 0.01426 0.0
H967 H 0.67733 0.85945 0.03567 0.0
C968 C 0.68994 0.88889 0.97462 0.0
C969 C 0.67645 0.90085 0.98185 0.0
C970 C 0.70145 0.8789 0.98646 0.0
C971 C 0.69947 0.88055 0.00566 0.0
C972 C 0.68585 0.89225 0.01292 0.0
H973 H 0.7553 0.83046 0.09924 0.0
H974 H 0.73456 0.84801 0.07906 0.0
C975 C 0.67443 0.90236 0.00111 0.0
C976 C 0.7122 0.87065 0.01813 0.0
H977 H 0.71427 0.83573 0.04971 0.0
C978 C 0.73069 0.87637 0.01885 0.0
C979 C 0.70613 0.85591 0.02939 0.0
C980 C 0.6864 0.84916 0.02879 0.0
C981 C 0.74334 0.86781 0.03078 0.0
C982 C 0.73737 0.85284 0.04188 0.0
C983 C 0.7188 0.8472 0.04118 0.0
C984 C 0.7502 0.84266 0.05412 0.0
C985 C 0.76285 0.87516 0.03167 0.0
C986 C 0.76577 0.83374 0.04675 0.0
C987 C 0.77769 0.82386 0.05825 0.0
C988 C 0.7741 0.82251 0.07728 0.0
C989 C 0.75843 0.83132 0.08463 0.0
C990 C 0.74657 0.84131 0.07312 0.0
H991 H 0.76366 0.88968 0.02671 0.0
H992 H 0.76836 0.87455 0.04597 0.0
H993 H 0.77187 0.86663 0.02266 0.0
H994 H 0.76858 0.83422 0.03205 0.0
H995 H 0.78957 0.81707 0.05218 0.0
H996 H 0.31866 0.4269 0.24647 0.0
H997 H 0.33707 0.44836 0.26496 0.0
H998 H 0.37616 0.45363 0.22023 0.0
H999 H 0.35761 0.43238 0.20148 0.0
H1000 H 0.37318 0.44546 0.27639 0.0
H1001 H 0.36335 0.50742 0.23215 0.0
H1002 H 0.34949 0.4868 0.22972 0.0
H1003 H 0.37243 0.48762 0.22022 0.0
C1004 C 0.33118 0.43262 0.24056 0.0
C1005 C 0.33667 0.42804 0.22251 0.0
C1006 C 0.34166 0.44488 0.25113 0.0
C1007 C 0.35779 0.4528 0.24384 0.0
C1008 C 0.36353 0.44797 0.22595 0.0
H1009 H 0.44214 0.50696 0.30979 0.0
H1010 H 0.4251 0.48668 0.28881 0.0
C1011 C 0.353 0.43573 0.21532 0.0
C1012 C 0.36871 0.46584 0.25518 0.0
H1013 H 0.38461 0.51026 0.25696 0.0
C1014 C 0.37569 0.45963 0.27216 0.0
C1015 C 0.37171 0.48438 0.2497 0.0
C1016 C 0.36372 0.49206 0.23204 0.0
C1017 C 0.38573 0.47143 0.28379 0.0
C1018 C 0.3892 0.48981 0.27807 0.0
C1019 C 0.38207 0.4961 0.26118 0.0
C1020 C 0.39991 0.50279 0.28967 0.0
C1021 C 0.39219 0.46421 0.30226 0.0
C1022 C 0.39161 0.51895 0.29647 0.0
C1023 C 0.40138 0.53067 0.30832 0.0
C1024 C 0.41959 0.52638 0.31351 0.0
C1025 C 0.42806 0.51052 0.30616 0.0
C1026 C 0.41833 0.49888 0.29426 0.0
H1027 H 0.38438 0.45168 0.30653 0.0
H1028 H 0.40702 0.46041 0.30129 0.0
H1029 H 0.39068 0.47489 0.31318 0.0
H1030 H 0.37744 0.52225 0.29298 0.0
H1031 H 0.39454 0.54285 0.31375 0.0
H1032 H 0.52705 0.34211 0.39168 0.0
H1033 H 0.50772 0.32058 0.37404 0.0
H1034 H 0.50395 0.28478 0.42156 0.0
H1035 H 0.52302 0.30629 0.43932 0.0
H1036 H 0.51419 0.28288 0.36626 0.0
H1037 H 0.44978 0.29275 0.40692 0.0
H1038 H 0.46913 0.30845 0.4084 0.0
H1039 H 0.4697 0.28672 0.42043 0.0
C1040 C 0.52203 0.32968 0.39837 0.0
C1041 C 0.52642 0.32592 0.4169 0.0
C1042 C 0.51103 0.31741 0.38828 0.0
C1043 C 0.50421 0.30126 0.3966 0.0
C1044 C 0.50878 0.29736 0.41501 0.0
H1045 H 0.43496 0.21108 0.35729 0.0
H1046 H 0.45577 0.23085 0.37533 0.0
C1047 C 0.51974 0.30962 0.42511 0.0
C1048 C 0.49252 0.28834 0.38592 0.0
H1049 H 0.44956 0.26887 0.38451 0.0
C1050 C 0.50004 0.27985 0.37019 0.0
C1051 C 0.4741 0.28439 0.39118 0.0
C1052 C 0.4651 0.29366 0.40756 0.0
C1053 C 0.48965 0.26733 0.35963 0.0
C1054 C 0.47122 0.26348 0.36483 0.0
C1055 C 0.46374 0.27185 0.38063 0.0
C1056 C 0.45923 0.25123 0.35373 0.0
C1057 C 0.49853 0.25815 0.34314 0.0
C1058 C 0.45422 0.25629 0.33571 0.0
C1059 C 0.44233 0.24511 0.32543 0.0
C1060 C 0.43522 0.2287 0.33303 0.0
C1061 C 0.44028 0.22364 0.35108 0.0
C1062 C 0.45213 0.23488 0.36138 0.0
H1063 H 0.51386 0.25898 0.34373 0.0
H1064 H 0.4944 0.24339 0.3422 0.0
H1065 H 0.4939 0.26521 0.33034 0.0
H1066 H 0.4593 0.26904 0.3297 0.0
H1067 H 0.43862 0.24938 0.31158 0.0
H1068 H 0.03554 0.18291 0.61187 0.0
H1069 H 0.01403 0.20203 0.62971 0.0
H1070 H 0.96957 0.18609 0.59336 0.0
H1071 H 0.99092 0.16684 0.57555 0.0
H1072 H 0.99341 0.23186 0.61554 0.0
H1073 H 0.94797 0.17764 0.64538 0.0
H1074 H 0.97049 0.17259 0.63586 0.0
H1075 H 0.95107 0.17612 0.62079 0.0
C1076 C 0.02113 0.1833 0.60783 0.0
C1077 C 0.01488 0.17337 0.59235 0.0
C1078 C 0.00889 0.19424 0.618 0.0
C1079 C 0.99021 0.1953 0.61294 0.0
C1080 C 0.98388 0.18519 0.59766 0.0
H1081 H 0.91118 0.28102 0.64119 0.0
H1082 H 0.932 0.25954 0.62529 0.0
C1083 C 0.99611 0.17428 0.58747 0.0
C1084 C 0.97755 0.2078 0.62301 0.0
H1085 H 0.93783 0.20877 0.64846 0.0
C1086 C 0.98129 0.22683 0.62281 0.0
C1087 C 0.96186 0.20113 0.63258 0.0
C1088 C 0.95764 0.18074 0.63386 0.0
C1089 C 0.96957 0.23945 0.63169 0.0
C1090 C 0.95359 0.23284 0.64079 0.0
C1091 C 0.95001 0.21378 0.64128 0.0
C1092 C 0.94063 0.2455 0.65024 0.0
C1093 C 0.97449 0.25973 0.63147 0.0
C1094 C 0.93831 0.24438 0.66944 0.0
C1095 C 0.92643 0.25657 0.67853 0.0
C1096 C 0.91658 0.27 0.66853 0.0
C1097 C 0.91865 0.27086 0.64925 0.0
C1098 C 0.93058 0.25867 0.64017 0.0
H1099 H 0.98919 0.26202 0.62763 0.0
H1100 H 0.96572 0.26694 0.62117 0.0
H1101 H 0.97192 0.26613 0.64519 0.0
H1102 H 0.9459 0.23423 0.67742 0.0
H1103 H 0.92506 0.25554 0.6934 0.0
H1104 H -0.00198 0.66779 0.91968 0.0
H1105 H 0.01811 0.68793 0.90147 0.0
H1106 H 0.97123 0.70583 0.8693 0.0
H1107 H 0.95093 0.68586 0.8877 0.0
H1108 H 0.02487 0.68859 0.86355 0.0
H1109 H 0.99378 0.75444 0.88812 0.0
H1110 H 0.98939 0.73255 0.89926 0.0
H1111 H 0.97776 0.73831 0.8781 0.0
C1112 C 0.99198 0.67598 0.90871 0.0
C1113 C 0.9729 0.67536 0.90517 0.0
C1114 C 0.00348 0.68745 0.89831 0.0
C1115 C 0.9961 0.69854 0.88424 0.0
C1116 C 0.97712 0.69762 0.88035 0.0
H1117 H 0.06216 0.75777 0.80263 0.0
H1118 H 0.04055 0.73677 0.81803 0.0
C1119 C 0.96557 0.68615 0.89078 0.0
C1120 C 0.00838 0.71112 0.87383 0.0
H1121 H 0.01703 0.75671 0.86527 0.0
C1122 C 0.02315 0.70348 0.86385 0.0
C1123 C 0.00618 0.73054 0.8745 0.0
C1124 C 0.99103 0.73952 0.88569 0.0
C1125 C 0.03585 0.71477 0.8545 0.0
C1126 C 0.03348 0.73417 0.85493 0.0
C1127 C 0.0187 0.74181 0.8649 0.0
C1128 C 0.04649 0.74683 0.84556 0.0
C1129 C 0.05194 0.70588 0.84465 0.0
C1130 C 0.05669 0.75967 0.85593 0.0
C1131 C 0.06895 0.77173 0.84717 0.0
C1132 C 0.07115 0.7712 0.82789 0.0
C1133 C 0.06083 0.75841 0.81752 0.0
C1134 C 0.04855 0.74636 0.82629 0.0
H1135 H 0.05421 0.69142 0.84931 0.0
H1136 H 0.04912 0.7056 0.82958 0.0
H1137 H 0.06485 0.71387 0.84693 0.0
H1138 H 0.05522 0.76027 0.87081 0.0
H1139 H 0.07669 0.78149 0.8555 0.0
H1140 H 0.58791 0.74158 0.15403 0.0
H1141 H 0.56609 0.76121 0.13726 0.0
H1142 H 0.52524 0.7178 0.13938 0.0
H1143 H 0.54712 0.69794 0.15586 0.0
H1144 H 0.52708 0.73482 0.10524 0.0
H1145 H 0.52198 0.78664 0.1615 0.0
H1146 H 0.54525 0.78265 0.15388 0.0
H1147 H 0.53251 0.76426 0.16476 0.0
C1148 C 0.57432 0.73618 0.15083 0.0
C1149 C 0.56915 0.71829 0.15634 0.0
C1150 C 0.56184 0.74745 0.14136 0.0
C1151 C 0.54394 0.74108 0.13745 0.0
C1152 C 0.53895 0.723 0.1424 0.0
H1153 H 0.45306 0.81348 0.10611 0.0
H1154 H 0.47279 0.7908 0.12166 0.0
C1155 C 0.55146 0.71169 0.1518 0.0
C1156 C 0.53038 0.75334 0.12831 0.0
H1157 H 0.50848 0.79488 0.13267 0.0
C1158 C 0.52292 0.74791 0.11126 0.0
C1159 C 0.52473 0.77023 0.13639 0.0
C1160 C 0.53137 0.77624 0.15523 0.0
C1161 C 0.51031 0.7592 0.1018 0.0
C1162 C 0.50536 0.7765 0.10946 0.0
C1163 C 0.51245 0.78169 0.12674 0.0
C1164 C 0.49307 0.7896 0.09969 0.0
C1165 C 0.50227 0.75239 0.0838 0.0
C1166 C 0.49803 0.79653 0.08227 0.0
C1167 C 0.48676 0.80939 0.07334 0.0
C1168 C 0.47045 0.81571 0.08179 0.0
C1169 C 0.46555 0.80884 0.09928 0.0
C1170 C 0.47679 0.7959 0.10816 0.0
H1171 H 0.50305 0.73708 0.0827 0.0
H1172 H 0.48761 0.75668 0.0823 0.0
H1173 H 0.51025 0.75835 0.07214 0.0
H1174 H 0.51076 0.79221 0.0757 0.0
H1175 H 0.49095 0.81454 0.05992 0.0
H1176 H 0.15925 0.3106 0.32916 0.0
H1177 H 0.1659 0.32309 0.2983 0.0
H1178 H 0.20311 0.36294 0.32251 0.0
H1179 H 0.19615 0.35102 0.35314 0.0
H1180 H 0.18525 0.37695 0.29225 0.0
H1181 H 0.21557 0.30765 0.27729 0.0
H1182 H 0.19126 0.30846 0.28225 0.0
H1183 H 0.20768 0.31391 0.30006 0.0
C1184 C 0.16842 0.32238 0.32789 0.0
C1185 C 0.17747 0.32962 0.34348 0.0
C1186 C 0.1723 0.32941 0.31027 0.0
C1187 C 0.18538 0.34361 0.30809 0.0
C1188 C 0.19306 0.35191 0.32384 0.0
H1189 H 0.27729 0.36521 0.24437 0.0
H1190 H 0.25223 0.35538 0.26469 0.0
C1191 C 0.18912 0.34501 0.34136 0.0
C1192 C 0.1932 0.34839 0.28979 0.0
H1193 H 0.22308 0.33171 0.25731 0.0
C1194 C 0.19319 0.36702 0.28431 0.0
C1195 C 0.20365 0.33536 0.27957 0.0
C1196 C 0.20472 0.31524 0.28506 0.0
C1197 C 0.20441 0.37322 0.26973 0.0
C1198 C 0.21559 0.36033 0.26019 0.0
C1199 C 0.2145 0.34151 0.26474 0.0
C1200 C 0.23039 0.36625 0.24736 0.0
C1201 C 0.20526 0.39365 0.26558 0.0
C1202 C 0.22641 0.37555 0.23082 0.0
C1203 C 0.24078 0.38134 0.21923 0.0
C1204 C 0.25929 0.37774 0.22395 0.0
C1205 C 0.26317 0.36819 0.24038 0.0
C1206 C 0.24886 0.36253 0.25197 0.0
H1207 H 0.19793 0.40203 0.27616 0.0
H1208 H 0.21984 0.3984 0.26481 0.0
H1209 H 0.19871 0.39634 0.25198 0.0
H1210 H 0.21224 0.37827 0.22686 0.0
H1211 H 0.23741 0.38858 0.20657 0.0
H1212 H 0.8554 0.02438 0.49678 0.0
H1213 H 0.86374 0.00145 0.52012 0.0
H1214 H 0.89341 0.97009 0.47897 0.0
H1215 H 0.88551 0.9933 0.45559 0.0
H1216 H 0.85715 0.96361 0.52245 0.0
H1217 H 0.93255 0.97885 0.5183 0.0
H1218 H 0.91546 0.99353 0.50766 0.0
H1219 H 0.92161 0.97189 0.49714 0.0
C1220 C 0.86371 0.01261 0.4927 0.0
C1221 C 0.87001 0.01072 0.47445 0.0
C1222 C 0.86838 -0.00052 0.50602 0.0
C1223 C 0.87937 0.9842 0.50131 0.0
C1224 C 0.88521 0.98196 0.48295 0.0
H1225 H 0.93253 0.91785 0.5876 0.0
H1226 H 0.91883 0.92328 0.55704 0.0
C1227 C 0.88067 0.9952 0.46963 0.0
C1228 C 0.88522 0.97119 0.51596 0.0
H1229 H 0.92287 0.95815 0.54112 0.0
C1230 C 0.87154 0.96216 0.52638 0.0
C1231 C 0.90403 0.9692 0.52094 0.0
C1232 C 0.9193 0.97895 0.51055 0.0
C1233 C 0.87611 0.95198 0.54223 0.0
C1234 C 0.89478 0.95098 0.54783 0.0
C1235 C 0.90856 0.95891 0.53672 0.0
C1236 C 0.90012 0.94462 0.56649 0.0
C1237 C 0.86086 0.94294 0.55319 0.0
C1238 C 0.89383 0.95453 0.58192 0.0
C1239 C 0.9017 0.95159 0.59923 0.0
C1240 C 0.91601 0.93867 0.60144 0.0
C1241 C 0.92145 0.92783 0.58627 0.0
C1242 C 0.91367 0.93092 0.56884 0.0
H1243 H 0.84891 0.93939 0.54422 0.0
H1244 H 0.8658 0.93018 0.56016 0.0
H1245 H 0.85591 0.95271 0.56393 0.0
H1246 H 0.88369 0.96543 0.58036 0.0
H1247 H 0.89725 0.96012 0.61071 0.0
H1248 H 0.23002 0.6456 0.73062 0.0
H1249 H 0.25381 0.65231 0.75366 0.0
H1250 H 0.27165 0.59544 0.75205 0.0
H1251 H 0.24791 0.58861 0.72887 0.0
H1252 H 0.25438 0.63326 0.78828 0.0
H1253 H 0.3207 0.62635 0.74985 0.0
H1254 H 0.29892 0.63067 0.7384 0.0
H1255 H 0.30405 0.60804 0.74713 0.0
C1256 C 0.23916 0.63457 0.73498 0.0
C1257 C 0.23706 0.61656 0.72805 0.0
C1258 C 0.25276 0.63844 0.74809 0.0
C1259 C 0.26457 0.6244 0.75438 0.0
C1260 C 0.26287 0.60651 0.74712 0.0
H1261 H 0.31603 0.63521 0.86164 0.0
H1262 H 0.30592 0.61998 0.83322 0.0
C1263 C 0.24922 0.60262 0.734 0.0
C1264 C 0.27722 0.62818 0.76994 0.0
H1265 H 0.32271 0.63227 0.782 0.0
C1266 C 0.26932 0.63294 0.78695 0.0
C1267 C 0.29667 0.62774 0.76805 0.0
C1268 C 0.3057 0.62305 0.74987 0.0
C1269 C 0.28032 0.63761 0.80214 0.0
C1270 C 0.29979 0.63719 0.80033 0.0
C1271 C 0.30778 0.63228 0.78335 0.0
C1272 C 0.31167 0.64349 0.81568 0.0
C1273 C 0.27098 0.64356 0.81985 0.0
C1274 C 0.31961 0.66116 0.81487 0.0
C1275 C 0.32551 0.66987 0.83106 0.0
C1276 C 0.32337 0.66101 0.84822 0.0
C1277 C 0.31765 0.64244 0.84862 0.0
C1278 C 0.31186 0.63371 0.83241 0.0
H1279 H 0.25597 0.64618 0.8179 0.0
H1280 H 0.27254 0.6325 0.83037 0.0
H1281 H 0.27748 0.65632 0.82538 0.0
H1282 H 0.31961 0.66888 0.80204 0.0
H1283 H 0.32999 0.68414 0.83031 0.0
H1284 H 0.56694 0.08566 0.0803 0.0
H1285 H 0.57866 0.0796 0.04896 0.0
H1286 H 0.61122 0.0343 0.07001 0.0
H1287 H 0.59981 0.04034 0.10106 0.0
H1288 H 0.6287 0.05453 0.0411 0.0
H1289 H 0.55655 0.03298 0.02423 0.0
H1290 H 0.56056 0.0563 0.03191 0.0
H1291 H 0.56361 0.03742 0.04771 0.0
C1292 C 0.57702 0.07478 0.07825 0.0
C1293 C 0.58228 0.06327 0.09299 0.0
C1294 C 0.58361 0.07128 0.06038 0.0
C1295 C 0.59555 0.05631 0.05717 0.0
C1296 C 0.60199 0.0459 0.07218 0.0
H1297 H 0.61297 0.96397 0.9973 0.0
H1298 H 0.60358 0.9907 0.01563 0.0
C1299 C 0.59539 0.04931 0.08992 0.0
C1300 C 0.59954 0.04947 0.03833 0.0
H1301 H 0.58018 0.02193 0.00529 0.0
C1302 C 0.61808 0.04791 0.03285 0.0
C1303 C 0.58558 0.04077 0.02773 0.0
C1304 C 0.56544 0.04181 0.03311 0.0
C1305 C 0.62319 0.03653 0.01799 0.0
C1306 C 0.60934 0.02667 0.00836 0.0
C1307 C 0.5907 0.02954 0.01279 0.0
C1308 C 0.61402 0.01094 0.99622 0.0
C1309 C 0.64343 0.03384 0.01372 0.0
C1310 C 0.62274 0.01354 0.97911 0.0
C1311 C 0.62814 -0.00177 0.96858 0.0
C1312 C 0.62489 0.98018 0.97507 0.0
C1313 C 0.61571 0.9777 0.99198 0.0
C1314 C 0.61029 0.99295 0.00242 0.0
H1315 H 0.65251 0.04158 0.02339 0.0
H1316 H 0.64703 0.01893 0.01446 0.0
H1317 H 0.64635 0.03864 -0.00055 0.0
H1318 H 0.62558 0.02735 0.97405 0.0
H1319 H 0.63516 0.00052 0.95555 0.0
H1320 H 0.67079 0.16979 0.6491 0.0
H1321 H 0.67726 0.15525 0.67914 0.0
H1322 H 0.73013 0.13675 0.65871 0.0
H1323 H 0.72376 0.15097 0.62888 0.0
H1324 H 0.71063 0.11014 0.68072 0.0
H1325 H 0.71589 0.17957 0.71399 0.0
H1326 H 0.6948 0.1738 0.70214 0.0
H1327 H 0.71573 0.17687 0.6892 0.0
C1328 C 0.68363 0.16233 0.65097 0.0
C1329 C 0.69687 0.16165 0.63676 0.0
C1330 C 0.68733 0.15414 0.66812 0.0
C1331 C 0.70427 0.14518 0.67115 0.0
C1332 C 0.71699 0.14364 0.65663 0.0
H1333 H 0.78538 0.10638 0.7421 0.0
H1334 H 0.76327 0.11383 0.71773 0.0
C1335 C 0.71336 0.15183 0.63961 0.0
C1336 C 0.70975 0.13853 0.68966 0.0
H1337 H 0.72687 0.15419 0.73072 0.0
C1338 C 0.71381 0.11969 0.69184 0.0
C1339 C 0.71381 0.15104 0.70413 0.0
C1340 C 0.70996 0.17148 0.70236 0.0
C1341 C 0.72282 0.11319 0.7077 0.0
C1342 C 0.72812 0.12592 0.72153 0.0
C1343 C 0.72285 0.14452 0.71999 0.0
C1344 C 0.74099 0.1207 0.73649 0.0
C1345 C 0.7272 0.09286 0.70922 0.0
C1346 C 0.73589 0.12255 0.7551 0.0
C1347 C 0.74855 0.11836 0.76908 0.0
C1348 C 0.76654 0.11249 0.76461 0.0
C1349 C 0.77161 0.11082 0.74596 0.0
C1350 C 0.75895 0.11491 0.73203 0.0
H1351 H 0.71743 0.0844 0.70091 0.0
H1352 H 0.74134 0.09035 0.70383 0.0
H1353 H 0.72668 0.08814 0.72381 0.0
H1354 H 0.72215 0.12722 0.75877 0.0
H1355 H 0.74429 0.1198 0.78337 0.0
H1356 H 0.16372 0.50188 0.00864 0.0
H1357 H 0.15936 0.47694 0.98602 0.0
H1358 H 0.1003 0.48394 0.98962 0.0
H1359 H 0.10448 0.50887 0.01208 0.0
H1360 H 0.11747 0.44391 0.99053 0.0
H1361 H 0.13748 0.49011 0.93205 0.0
H1362 H 0.15152 0.48935 0.95261 0.0
H1363 H 0.12896 0.49951 0.95354 0.0
C1364 C 0.14981 0.49802 0.00467 0.0
C1365 C 0.13443 0.50739 0.01199 0.0
C1366 C 0.14737 0.48376 0.99184 0.0
C1367 C 0.12953 0.47866 0.98627 0.0
C1368 C 0.11417 0.48767 0.99389 0.0
H1369 H 0.05919 0.42395 0.91655 0.0
H1370 H 0.07788 0.4316 0.94334 0.0
C1371 C 0.11658 0.50197 0.0066 0.0
C1372 C 0.12664 0.46489 0.97151 0.0
H1373 H 0.1238 0.46181 0.92468 0.0
C1374 C 0.11919 0.44759 0.97609 0.0
C1375 C 0.12917 0.46969 0.95278 0.0
C1376 C 0.13719 0.48817 0.94728 0.0
C1377 C 0.11324 0.43529 0.9623 0.0
C1378 C 0.11429 0.44076 0.94355 0.0
C1379 C 0.12297 0.45756 0.93902 0.0
C1380 C 0.104 0.43107 0.92868 0.0
C1381 C 0.10549 0.4168 0.96802 0.0
C1382 C 0.11242 0.42767 0.9115 0.0
C1383 C 0.10163 0.42363 0.89599 0.0
C1384 C 0.08227 0.42291 0.89745 0.0
C1385 C 0.07407 0.42442 0.91498 0.0
C1386 C 0.08482 0.42864 0.93041 0.0
H1387 H 0.11264 0.41156 0.98055 0.0
H1388 H 0.09065 0.41842 0.97156 0.0
H1389 H 0.1068 0.40636 0.95684 0.0
H1390 H 0.12719 0.42947 0.90982 0.0
H1391 H 0.10834 0.42247 0.88265 0.0
H1392 H 0.7122 0.86265 0.25649 0.0
H1393 H 0.73596 0.85401 0.23412 0.0
H1394 H 0.77211 0.89617 0.25587 0.0
H1395 H 0.74844 0.9047 0.2786 0.0
H1396 H 0.75155 0.8764 0.2072 0.0
H1397 H 0.80495 0.84978 0.25572 0.0
H1398 H 0.78128 0.85355 0.26267 0.0
H1399 H 0.79664 0.87285 0.25985 0.0
C1400 C 0.72522 0.87005 0.25656 0.0
C1401 C 0.72849 0.88433 0.26929 0.0
C1402 C 0.73878 0.8651 0.24379 0.0
C1403 C 0.75585 0.87433 0.24348 0.0
C1404 C 0.75916 0.88867 0.2561 0.0
H1405 H 0.81988 0.84843 0.14388 0.0
H1406 H 0.81004 0.86749 0.17009 0.0
C1407 C 0.74559 0.89359 0.26898 0.0
C1408 C 0.76979 0.86907 0.22946 0.0
H1409 H 0.81152 0.84772 0.22393 0.0
C1410 C 0.76479 0.87037 0.2108 0.0
C1411 C 0.78701 0.8612 0.23431 0.0
C1412 C 0.79284 0.85909 0.25421 0.0
C1413 C 0.77608 0.86314 0.19683 0.0
C1414 C 0.79314 0.85483 0.20166 0.0
C1415 C 0.79855 0.85429 0.22029 0.0
C1416 C 0.80396 0.84422 0.18789 0.0
C1417 C 0.76902 0.86338 0.17719 0.0
C1418 C 0.8053 0.82497 0.18983 0.0
C1419 C 0.8112 0.8141 0.17504 0.0
C1420 C 0.81571 0.82233 0.15803 0.0
C1421 C 0.81627 0.84172 0.15677 0.0
C1422 C 0.81055 0.85261 0.17168 0.0
H1423 H 0.75418 0.86724 0.17641 0.0
H1424 H 0.77699 0.87365 0.16905 0.0
H1425 H 0.77079 0.84963 0.1706 0.0
H1426 H 0.80043 0.81822 0.20228 0.0
H1427 H 0.81078 0.7992 0.17649 0.0
H1428 H 0.38394 0.46761 0.50893 0.0
H1429 H 0.39242 0.49247 0.48782 0.0
H1430 H 0.3453 0.52425 0.50593 0.0
H1431 H 0.33647 0.4991 0.52689 0.0
H1432 H 0.34747 0.52361 0.46923 0.0
H1433 H 0.41606 0.542 0.4965 0.0
H1434 H 0.41492 0.51754 0.49279 0.0
H1435 H 0.39982 0.5282 0.50953 0.0
C1436 C 0.37547 0.47995 0.50855 0.0
C1437 C 0.35955 0.48142 0.51955 0.0
C1438 C 0.38044 0.49425 0.49662 0.0
C1439 C 0.36976 0.51043 0.49563 0.0
C1440 C 0.35386 0.51198 0.50665 0.0
H1441 H 0.4218 0.58124 0.41188 0.0
H1442 H 0.4051 0.57586 0.44101 0.0
C1443 C 0.34882 0.4976 0.51856 0.0
C1444 C 0.37446 0.52481 0.48182 0.0
H1445 H 0.41167 0.54698 0.46326 0.0
C1446 C 0.36137 0.52915 0.46818 0.0
C1447 C 0.39238 0.53257 0.48071 0.0
C1448 C 0.40649 0.52999 0.49583 0.0
C1449 C 0.36634 0.53937 0.45249 0.0
C1450 C 0.38494 0.54496 0.45022 0.0
C1451 C 0.39747 0.54239 0.4648 0.0
C1452 C 0.39242 0.5503 0.43193 0.0
C1453 C 0.35182 0.54331 0.43808 0.0
C1454 C 0.39067 0.53786 0.41716 0.0
C1455 C 0.40015 0.54085 0.40071 0.0
C1456 C 0.41173 0.5563 0.39866 0.0
C1457 C 0.4129 0.56925 0.41309 0.0
C1458 C 0.40339 0.5662 0.4297 0.0
H1459 H 0.33807 0.54533 0.44463 0.0
H1460 H 0.35526 0.55579 0.42983 0.0
H1461 H 0.35069 0.53129 0.42861 0.0
H1462 H 0.38274 0.52524 0.41869 0.0
H1463 H 0.39897 0.53063 0.38983 0.0
H1464 H 0.24459 0.27739 0.38382 0.0
H1465 H 0.26803 0.25435 0.37619 0.0
H1466 H 0.22553 0.21664 0.35812 0.0
H1467 H 0.20184 0.23977 0.36565 0.0
H1468 H 0.27044 0.21629 0.39036 0.0
H1469 H 0.26262 0.22093 0.31378 0.0
H1470 H 0.25416 0.23892 0.32888 0.0
H1471 H 0.24235 0.21715 0.32774 0.0
C1472 C 0.2402 0.26423 0.37815 0.0
C1473 C 0.2214 0.2604 0.37523 0.0
C1474 C 0.2536 0.25106 0.3739 0.0
C1475 C 0.24848 0.23386 0.36658 0.0
C1476 C 0.22972 0.22991 0.36364 0.0
H1477 H 0.33943 0.16915 0.31899 0.0
H1478 H 0.30812 0.1729 0.33169 0.0
C1479 C 0.21625 0.24312 0.36794 0.0
C1480 C 0.26309 0.22042 0.36182 0.0
H1481 H 0.28834 0.205 0.32516 0.0
C1482 C 0.27415 0.21343 0.37611 0.0
C1483 C 0.26769 0.21653 0.34325 0.0
C1484 C 0.25619 0.22377 0.32744 0.0
C1485 C 0.29048 0.20374 0.37227 0.0
C1486 C 0.29598 0.20133 0.35369 0.0
C1487 C 0.28409 0.20691 0.33941 0.0
C1488 C 0.31521 0.19643 0.34876 0.0
C1489 C 0.30214 0.19695 0.38815 0.0
C1490 C 0.32955 0.20821 0.3544 0.0
C1491 C 0.34724 0.2062 0.3471 0.0
C1492 C 0.35096 0.19237 0.33402 0.0
C1493 C 0.33692 0.17984 0.32917 0.0
C1494 C 0.31907 0.18199 0.33637 0.0
H1495 H 0.2934 0.19347 0.40028 0.0
H1496 H 0.31035 0.18459 0.3842 0.0
H1497 H 0.31181 0.20807 0.39242 0.0
H1498 H 0.32682 0.21971 0.36359 0.0
H1499 H 0.35782 0.21604 0.35107 0.0
H1500 H 0.98404 -0.00156 0.64668 0.0
H1501 H 0.00902 0.01862 0.63624 0.0
H1502 H 0.02947 0.97533 0.60072 0.0
H1503 H 0.00436 0.95494 0.6111 0.0
H1504 H 0.0498 0.01231 0.63632 0.0
H1505 H 0.01828 0.0209 0.56647 0.0
H1506 H 0.00504 0.01235 0.58581 0.0
H1507 H 0.02208 0.99787 0.5751 0.0
C1508 C 0.99387 0.99317 0.63668 0.0
C1509 C 0.99217 0.97519 0.62956 0.0
C1510 C 0.00819 0.00467 0.63084 0.0
C1511 C 0.02101 -0.00156 0.61772 0.0
C1512 C 0.01962 0.98037 0.61082 0.0
H1513 H 0.07992 0.08442 0.5585 0.0
H1514 H 0.07607 0.05264 0.5694 0.0
C1515 C 0.00529 0.96879 0.61672 0.0
C1516 C 0.03495 0.01152 0.61055 0.0
H1517 H 0.04242 0.04072 0.57442 0.0
C1518 C 0.04851 0.0183 0.62264 0.0
C1519 C 0.03333 0.01909 0.59264 0.0
C1520 C 0.01889 0.01231 0.57919 0.0
C1521 C 0.05983 0.03325 0.61764 0.0
C1522 C 0.05713 0.04187 0.6003 0.0
C1523 C 0.04451 0.03414 0.58772 0.0
C1524 C 0.06472 0.06042 0.59596 0.0
C1525 C 0.07415 0.03998 0.6312 0.0
C1526 C 0.06052 0.07537 0.60763 0.0
C1527 C 0.06288 0.09351 0.6015 0.0
C1528 C 0.06916 0.09702 0.58348 0.0
C1529 C 0.07497 0.08212 0.57244 0.0
C1530 C 0.07276 0.06395 0.57864 0.0
H1531 H 0.07981 0.02827 0.63936 0.0
H1532 H 0.08573 0.04717 0.62414 0.0
H1533 H 0.06758 0.04971 0.64107 0.0
H1534 H 0.05391 0.0731 0.62086 0.0
H1535 H 0.05826 0.10471 0.61032 0.0
H1536 H 0.26036 0.73715 0.90067 0.0
H1537 H 0.23897 0.7609 0.88967 0.0
H1538 H 0.27127 0.76704 0.8399 0.0
H1539 H 0.29231 0.74275 0.85052 0.0
H1540 H 0.24218 0.79714 0.87948 0.0
H1541 H 0.22123 0.75392 0.81944 0.0
H1542 H 0.23531 0.74503 0.83794 0.0
H1543 H 0.24542 0.75931 0.82026 0.0
C1544 C 0.26293 0.74362 0.88741 0.0
C1545 C 0.27779 0.73793 0.8763 0.0
C1546 C 0.25076 0.75723 0.88118 0.0
C1547 C 0.25335 0.76549 0.86382 0.0
C1548 C 0.26877 0.76052 0.85314 0.0
H1549 H 0.17046 0.82723 0.80259 0.0
H1550 H 0.20147 0.81997 0.81391 0.0
C1551 C 0.28078 0.74669 0.85923 0.0
C1552 C 0.23921 0.77837 0.85653 0.0
H1553 H 0.20686 0.78273 0.82256 0.0
C1554 C 0.23457 0.79412 0.86693 0.0
C1555 C 0.22928 0.77437 0.84016 0.0
C1556 C 0.2329 0.75717 0.82887 0.0
C1557 C 0.21993 0.80571 0.86162 0.0
C1558 C 0.20973 0.80137 0.84557 0.0
C1559 C 0.21487 0.78611 0.83477 0.0
C1560 C 0.19222 0.81077 0.84081 0.0
C1561 C 0.21526 0.82226 0.87338 0.0
C1562 C 0.17687 0.80873 0.85249 0.0
C1563 C 0.15915 0.81277 0.84604 0.0
C1564 C 0.15653 0.81883 0.82778 0.0
C1565 C 0.17206 0.82255 0.81672 0.0
C1566 C 0.18979 0.81842 0.82316 0.0
H1567 H 0.22739 0.82693 0.88157 0.0
H1568 H 0.21028 0.83395 0.86477 0.0
H1569 H 0.20411 0.81846 0.88321 0.0
H1570 H 0.17839 0.80255 0.86604 0.0
H1571 H 0.14742 0.8098 0.85488 0.0
H1572 H 0.51686 0.00424 0.14368 0.0
H1573 H 0.49193 0.9834 0.1345 0.0
H1574 H 0.47027 0.02517 0.09792 0.0
H1575 H 0.49541 0.04612 0.10689 0.0
H1576 H 0.45234 0.98793 0.13588 0.0
H1577 H 0.47967 0.97999 0.06422 0.0
H1578 H 0.49339 0.98985 0.08256 0.0
H1579 H 0.4751 0.00306 0.07226 0.0
C1580 C 0.50678 0.00902 0.13371 0.0
C1581 C 0.50817 0.02672 0.12585 0.0
C1582 C 0.49249 0.99715 0.12857 0.0
C1583 C 0.47936 0.00273 0.11546 0.0
C1584 C 0.4804 0.02057 0.10791 0.0
H1585 H 0.4145 0.91771 0.06 0.0
H1586 H 0.42037 0.94919 0.07103 0.0
C1587 C 0.49475 0.03248 0.11305 0.0
C1588 C 0.46533 0.9893 0.10912 0.0
H1589 H 0.45543 0.96064 0.07308 0.0
C1590 C 0.45274 0.98216 0.12204 0.0
C1591 C 0.46578 0.98197 0.09101 0.0
C1592 C 0.47924 0.98897 0.07667 0.0
C1593 C 0.44124 0.96717 0.11761 0.0
C1594 C 0.44267 0.95896 0.09994 0.0
C1595 C 0.45432 0.96697 0.08663 0.0
C1596 C 0.43474 0.94053 0.09578 0.0
C1597 C 0.4281 0.95993 0.13209 0.0
C1598 C 0.44025 0.92525 0.10639 0.0
C1599 C 0.4369 0.90732 0.10015 0.0
C1600 C 0.42815 0.90435 0.08309 0.0
C1601 C 0.42128 0.9196 0.07321 0.0
C1602 C 0.42464 0.93758 0.07948 0.0
H1603 H 0.42333 0.97126 0.1413 0.0
H1604 H 0.41585 0.95319 0.12575 0.0
H1605 H 0.43538 0.94963 0.1408 0.0
H1606 H 0.44842 0.92713 0.11878 0.0
H1607 H 0.44235 0.89583 0.10805 0.0
H1608 H 0.73131 0.24724 0.57383 0.0
H1609 H 0.75262 0.27243 0.58166 0.0
H1610 H 0.74119 0.26413 0.63956 0.0
H1611 H 0.7198 0.23909 0.63188 0.0
H1612 H 0.74398 0.30298 0.62736 0.0
H1613 H 0.80304 0.2584 0.60568 0.0
H1614 H 0.78485 0.26224 0.58919 0.0
H1615 H 0.78026 0.24908 0.60971 0.0
C1616 C 0.73319 0.25094 0.58821 0.0
C1617 C 0.72409 0.24108 0.60228 0.0
C1618 C 0.74533 0.26532 0.59264 0.0
C1619 C 0.74855 0.26998 0.61118 0.0
C1620 C 0.73884 0.26073 0.62517 0.0
H1621 H 0.81772 0.31673 0.68855 0.0
H1622 H 0.79103 0.31052 0.66912 0.0
C1623 C 0.72672 0.24637 0.62077 0.0
C1624 C 0.76327 0.28319 0.61629 0.0
H1625 H 0.81006 0.28609 0.62055 0.0
C1626 C 0.75846 0.29952 0.62561 0.0
C1627 C 0.78211 0.27867 0.61381 0.0
C1628 C 0.78801 0.26112 0.60416 0.0
C1629 C 0.77207 0.31107 0.63326 0.0
C1630 C 0.79087 0.30586 0.6319 0.0
C1631 C 0.79566 0.29013 0.62156 0.0
C1632 C 0.80556 0.31457 0.64324 0.0
C1633 C 0.76612 0.32847 0.64306 0.0
C1634 C 0.82259 0.31939 0.63525 0.0
C1635 C 0.83803 0.32266 0.6464 0.0
C1636 C 0.83664 0.32111 0.66571 0.0
C1637 C 0.81922 0.31802 0.67371 0.0
C1638 C 0.80386 0.31462 0.66257 0.0
H1639 H 0.75345 0.3343 0.63664 0.0
H1640 H 0.76277 0.32514 0.65765 0.0
H1641 H 0.77714 0.33916 0.64285 0.0
H1642 H 0.82424 0.31938 0.62037 0.0
H1643 H 0.85128 0.32507 0.63985 0.0
H1644 H 0.01851 0.48117 0.89078 0.0
H1645 H 0.99538 0.50501 0.89697 0.0
H1646 H 0.97166 0.49633 0.84301 0.0
H1647 H 0.99486 0.47237 0.83664 0.0
H1648 H 0.99119 0.53753 0.87125 0.0
H1649 H 0.92715 0.4962 0.88276 0.0
H1650 H 0.94987 0.48665 0.88684 0.0
H1651 H 0.94214 0.4905 0.86365 0.0
C1652 C 0.00829 0.48421 0.88028 0.0
C1653 C 0.00853 0.47499 0.8632 0.0
C1654 C 0.99508 0.49778 0.88385 0.0
C1655 C 0.9818 0.50225 0.87049 0.0
C1656 C 0.98171 0.49286 0.85355 0.0
H1657 H 0.9269 0.60863 0.8838 0.0
H1658 H 0.93564 0.58014 0.86778 0.0
C1659 C 0.995 0.47929 0.84992 0.0
C1660 C 0.9691 0.51784 0.87393 0.0
H1661 H 0.92507 0.52846 0.8872 0.0
C1662 C 0.97666 0.53565 0.87445 0.0
C1663 C 0.95023 0.51515 0.87814 0.0
C1664 C 0.94173 0.49612 0.87792 0.0
C1665 C 0.96599 0.55089 0.87977 0.0
C1666 C 0.94716 0.54823 0.88441 0.0
C1667 C 0.93943 0.53044 0.88338 0.0
C1668 C 0.93626 0.56346 0.89257 0.0
C1669 C 0.97527 0.56954 0.88138 0.0
C1670 C 0.93227 0.56306 0.91153 0.0
C1671 C 0.92715 0.57925 0.9207 0.0
C1672 C 0.92604 0.59605 0.91101 0.0
C1673 C 0.92784 0.59592 0.89166 0.0
C1674 C 0.93287 0.57968 0.88248 0.0
H1675 H 0.99056 0.56854 0.88026 0.0
H1676 H 0.97028 0.57869 0.87014 0.0
H1677 H 0.9718 0.57617 0.89478 0.0
H1678 H 0.93472 0.55064 0.91953 0.0
H1679 H 0.92569 0.5789 0.9356 0.0
H1680 H 0.63739 0.6697 0.13451 0.0
H1681 H 0.66623 0.67393 0.11737 0.0
H1682 H 0.69641 0.67566 0.16877 0.0
H1683 H 0.66789 0.67079 0.18581 0.0
H1684 H 0.68307 0.70532 0.12088 0.0
H1685 H 0.73438 0.65176 0.13726 0.0
H1686 H 0.71001 0.64841 0.14157 0.0
H1687 H 0.7244 0.65999 0.15834 0.0
C1688 C 0.6503 0.67018 0.14208 0.0
C1689 C 0.65038 0.67018 0.1615 0.0
C1690 C 0.66677 0.67262 0.13227 0.0
C1691 C 0.68355 0.6751 0.14173 0.0
C1692 C 0.68379 0.67337 0.16106 0.0
H1693 H 0.77306 0.74555 0.14544 0.0
H1694 H 0.74965 0.72133 0.14839 0.0
C1695 C 0.66738 0.67075 0.17085 0.0
C1696 C 0.69973 0.68335 0.13219 0.0
H1697 H 0.74693 0.68315 0.13212 0.0
C1698 C 0.697 0.70013 0.12279 0.0
C1699 C 0.71794 0.67665 0.13468 0.0
C1700 C 0.72178 0.6581 0.14335 0.0
C1701 C 0.71196 0.71113 0.11727 0.0
C1702 C 0.73012 0.70511 0.12115 0.0
C1703 C 0.73294 0.68776 0.12934 0.0
C1704 C 0.746 0.71775 0.11894 0.0
C1705 C 0.70822 0.72975 0.10861 0.0
C1706 C 0.7519 0.72344 0.10138 0.0
C1707 C 0.76524 0.73733 0.09964 0.0
C1708 C 0.7728 0.74571 0.11546 0.0
C1709 C 0.76739 0.73942 0.13301 0.0
C1710 C 0.75412 0.72552 0.13472 0.0
H1711 H 0.69325 0.73317 0.10836 0.0
H1712 H 0.71565 0.74079 0.11627 0.0
H1713 H 0.7134 0.72979 0.09417 0.0
H1714 H 0.74581 0.71751 0.08905 0.0
H1715 H 0.76925 0.74184 0.08594 0.0
H1716 H 0.50436 0.52584 0.338 0.0
H1717 H 0.52986 0.50476 0.34518 0.0
H1718 H 0.51575 0.50733 0.40302 0.0
H1719 H 0.49029 0.52846 0.39601 0.0
H1720 H 0.55637 0.50756 0.39328 0.0
H1721 H 0.51477 0.45094 0.36141 0.0
H1722 H 0.51893 0.47145 0.34798 0.0
H1723 H 0.50448 0.47266 0.36809 0.0
C1724 C 0.50687 0.52214 0.35228 0.0
C1725 C 0.49521 0.52859 0.36644 0.0
C1726 C 0.52144 0.51014 0.35634 0.0
C1727 C 0.52454 0.50445 0.37459 0.0
C1728 C 0.51356 0.51165 0.38885 0.0
H1729 H 0.56749 0.42779 0.44639 0.0
H1730 H 0.56225 0.45635 0.42956 0.0
C1731 C 0.49898 0.52362 0.38482 0.0
C1732 C 0.53774 0.48946 0.37875 0.0
H1733 H 0.54129 0.44254 0.37756 0.0
C1734 C 0.55333 0.49335 0.38959 0.0
C1735 C 0.5338 0.471 0.37371 0.0
C1736 C 0.51707 0.46611 0.36223 0.0
C1737 C 0.56466 0.47907 0.39626 0.0
C1738 C 0.55991 0.46049 0.39238 0.0
C1739 C 0.54499 0.45676 0.38052 0.0
C1740 C 0.56802 0.44467 0.40259 0.0
C1741 C 0.58132 0.48405 0.40774 0.0
C1742 C 0.57345 0.42857 0.39315 0.0
C1743 C 0.57612 0.41203 0.40279 0.0
C1744 C 0.57339 0.41138 0.42201 0.0
C1745 C 0.56967 0.42786 0.43158 0.0
C1746 C 0.56685 0.44431 0.42195 0.0
H1747 H 0.58739 0.49736 0.40306 0.0
H1748 H 0.57701 0.48585 0.42235 0.0
H1749 H 0.59213 0.47317 0.40708 0.0
H1750 H 0.57437 0.42851 0.37821 0.0
H1751 H 0.57904 0.39954 0.39506 0.0
H1752 H 0.356 0.21243 0.25302 0.0
H1753 H 0.34515 0.23242 0.22801 0.0
H1754 H 0.39684 0.26218 0.22929 0.0
H1755 H 0.40797 0.24188 0.25384 0.0
H1756 H 0.33987 0.2681 0.23257 0.0
H1757 H 0.38864 0.25915 0.17452 0.0
H1758 H 0.38738 0.243 0.19352 0.0
H1759 H 0.40057 0.26403 0.19567 0.0
C1760 C 0.36518 0.223 0.24768 0.0
C1761 C 0.38278 0.2257 0.25542 0.0
C1762 C 0.359 0.23435 0.23336 0.0
C1763 C 0.37027 0.24864 0.22657 0.0
C1764 C 0.38809 0.25093 0.23389 0.0
H1765 H 0.35644 0.35572 0.18556 0.0
H1766 H 0.36856 0.32495 0.19236 0.0
C1767 C 0.39436 0.23945 0.24808 0.0
C1768 C 0.36247 0.26276 0.21395 0.0
H1769 H 0.37149 0.28801 0.17506 0.0
C1770 C 0.34653 0.27215 0.21976 0.0
C1771 C 0.37125 0.2681 0.1973 0.0
C1772 C 0.3878 0.25789 0.1898 0.0
C1773 C 0.3397 0.28736 0.20998 0.0
C1774 C 0.34891 0.29319 0.19373 0.0
C1775 C 0.36445 0.28343 0.18749 0.0
C1776 C 0.34355 0.31059 0.18447 0.0
C1777 C 0.3233 0.29773 0.21772 0.0
C1778 C 0.32592 0.31252 0.17665 0.0
C1779 C 0.31889 0.3301 0.17288 0.0
C1780 C 0.32948 0.34593 0.17679 0.0
C1781 C 0.34791 0.34378 0.18254 0.0
C1782 C 0.35488 0.3262 0.1864 0.0
H1783 H 0.31978 0.29325 0.23198 0.0
H1784 H 0.32605 0.31284 0.2179 0.0
H1785 H 0.31107 0.29525 0.20882 0.0
H1786 H 0.31708 0.30055 0.17486 0.0
H1787 H 0.3047 0.33134 0.16828 0.0
H1788 H 0.79653 0.16293 0.81745 0.0
H1789 H 0.80905 0.19319 0.80943 0.0
H1790 H 0.86438 0.17277 0.81799 0.0
H1791 H 0.85195 0.14217 0.82542 0.0
H1792 H 0.83376 0.22091 0.82119 0.0
H1793 H 0.86105 0.17989 0.76201 0.0
H1794 H 0.84534 0.17021 0.77873 0.0
H1795 H 0.86935 0.17317 0.78439 0.0
C1796 C 0.81133 0.16502 0.81828 0.0
C1797 C 0.8233 0.15008 0.82155 0.0
C1798 C 0.81847 0.18236 0.81372 0.0
C1799 C 0.83764 0.18501 0.81257 0.0
C1800 C 0.84954 0.17083 0.81838 0.0
H1801 H 0.88381 0.28483 0.75985 0.0
H1802 H 0.87634 0.26168 0.78348 0.0
C1803 C 0.84241 0.15339 0.82271 0.0
C1804 C 0.84484 0.20102 0.80204 0.0
H1805 H 0.86462 0.2119 0.76062 0.0
C1806 C 0.84075 0.21902 0.80807 0.0
C1807 C 0.85364 0.19842 0.78474 0.0
C1808 C 0.8575 0.17941 0.77694 0.0
C1809 C 0.84488 0.23449 0.79703 0.0
C1810 C 0.85343 0.23178 0.77967 0.0
C1811 C 0.85805 0.21386 0.77396 0.0
C1812 C 0.85661 0.24703 0.76644 0.0
C1813 C 0.83933 0.25349 0.80358 0.0
C1814 C 0.84799 0.24642 0.74908 0.0
C1815 C 0.85236 0.25943 0.73555 0.0
C1816 C 0.86544 0.27331 0.73914 0.0
C1817 C 0.87363 0.27429 0.75674 0.0
C1818 C 0.86931 0.26117 0.77028 0.0
H1819 H 0.82992 0.25288 0.8157 0.0
H1820 H 0.85189 0.26131 0.80764 0.0
H1821 H 0.8324 0.26126 0.79232 0.0
H1822 H 0.83817 0.23557 0.74585 0.0
H1823 H 0.84578 0.25837 0.72215 0.0
H1824 H 0.96564 0.65388 0.0008 0.0
H1825 H 0.98906 0.6481 0.0247 0.0
H1826 H 0.01164 0.60381 0.9918 0.0
H1827 H 0.98842 0.60944 0.96797 0.0
H1828 H -0.00141 0.6122 0.04421 0.0
H1829 H 0.05482 0.6422 0.00161 0.0
H1830 H 0.03068 0.64729 0.99767 0.0
H1831 H 0.04048 0.62601 0.98939 0.0
C1832 C 0.97554 0.64285 -0.00126 0.0
C1833 C 0.97532 0.63218 0.98248 0.0
C1834 C 0.98884 0.63956 0.0124 0.0
C1835 C 0.00211 0.62568 0.00985 0.0
C1836 C 0.00157 0.61471 0.99388 0.0
H1837 H 0.07563 0.55609 0.06022 0.0
H1838 H 0.0478 0.57376 0.05381 0.0
C1839 C 0.9883 0.61793 0.9803 0.0
C1840 C 0.01706 0.6228 0.0234 0.0
H1841 H 0.06398 0.62179 0.02594 0.0
C1842 C 0.01291 0.61463 0.04048 0.0
C1843 C 0.03563 0.62643 0.01866 0.0
C1844 C 0.04072 0.63614 0.00091 0.0
C1845 C 0.02707 0.6086 0.05232 0.0
C1846 C 0.04571 0.61056 0.04669 0.0
C1847 C 0.04973 0.62015 0.03029 0.0
C1848 C 0.0611 0.60054 0.05577 0.0
C1849 C 0.02189 0.59972 0.07045 0.0
C1850 C 0.07783 0.60965 0.05955 0.0
C1851 C 0.09392 0.59949 0.06289 0.0
C1852 C 0.09348 0.58007 0.06252 0.0
C1853 C 0.0764 0.57104 0.06058 0.0
C1854 C 0.06038 0.58118 0.05707 0.0
H1855 H 0.00901 0.60592 0.07608 0.0
H1856 H 0.01919 0.58479 0.06817 0.0
H1857 H 0.03306 0.60118 0.08086 0.0
H1858 H 0.07873 0.62458 0.05858 0.0
H1859 H 0.10689 0.60682 0.06443 0.0
H1860 H 0.63047 0.86315 0.30953 0.0
H1861 H 0.61506 0.8347 0.29977 0.0
H1862 H 0.66602 0.8046 0.30695 0.0
H1863 H 0.68135 0.83284 0.31714 0.0
H1864 H 0.62656 0.8194 0.26833 0.0
H1865 H 0.62888 0.76624 0.32312 0.0
H1866 H 0.6321 0.79055 0.32791 0.0
H1867 H 0.65108 0.77672 0.31966 0.0
C1868 C 0.6382 0.85032 0.30972 0.0
C1869 C 0.65716 0.85023 0.31388 0.0
C1870 C 0.62937 0.83408 0.30413 0.0
C1871 C 0.63937 0.81751 0.30263 0.0
C1872 C 0.65791 0.8171 0.30833 0.0
H1873 H 0.63941 0.73716 0.21769 0.0
H1874 H 0.64462 0.76191 0.24013 0.0
C1875 C 0.66671 0.83332 0.31406 0.0
C1876 C 0.63168 0.80186 0.29189 0.0
H1877 H 0.6269 0.75487 0.29157 0.0
C1878 C 0.62627 0.80535 0.27358 0.0
C1879 C 0.63127 0.78353 0.2987 0.0
C1880 C 0.63597 0.77906 0.3185 0.0
C1881 C 0.62139 0.79094 0.26164 0.0
C1882 C 0.62217 0.77254 0.26809 0.0
C1883 C 0.62659 0.76903 0.28664 0.0
C1884 C 0.61938 0.75685 0.25536 0.0
C1885 C 0.61586 0.79545 0.24205 0.0
C1886 C 0.60363 0.74565 0.25679 0.0
C1887 C 0.60057 0.73154 0.24393 0.0
C1888 C 0.61332 0.72838 0.2296 0.0
C1889 C 0.62931 0.73934 0.22853 0.0
C1890 C 0.6323 0.75347 0.24131 0.0
H1891 H 0.61168 0.81016 0.24056 0.0
H1892 H 0.62778 0.79293 0.23273 0.0
H1893 H 0.60426 0.78651 0.23745 0.0
H1894 H 0.59354 0.74809 0.26759 0.0
H1895 H 0.58817 0.72323 0.24514 0.0
H1896 H 0.38585 0.38674 0.54383 0.0
H1897 H 0.4174 0.37635 0.53895 0.0
H1898 H 0.43704 0.41709 0.57786 0.0
H1899 H 0.40529 0.42793 0.58247 0.0
H1900 H 0.45291 0.42144 0.54552 0.0
H1901 H 0.45787 0.34759 0.56291 0.0
H1902 H 0.43788 0.35123 0.5488 0.0
H1903 H 0.43921 0.36192 0.57129 0.0
C1904 C 0.39679 0.3931 0.55182 0.0
C1905 C 0.39315 0.40829 0.56335 0.0
C1906 C 0.41487 0.38701 0.54916 0.0
C1907 C 0.42963 0.39582 0.55815 0.0
C1908 C 0.42585 0.41003 0.57085 0.0
H1909 H 0.537 0.36221 0.511 0.0
H1910 H 0.51402 0.36933 0.53491 0.0
C1911 C 0.40771 0.41619 0.57349 0.0
C1912 C 0.44874 0.39251 0.55154 0.0
H1913 H 0.47725 0.35793 0.53683 0.0
C1914 C 0.45848 0.40758 0.54412 0.0
C1915 C 0.45624 0.37452 0.54989 0.0
C1916 C 0.4473 0.35796 0.55886 0.0
C1917 C 0.47457 0.40496 0.53368 0.0
C1918 C 0.48086 0.38678 0.53029 0.0
C1919 C 0.47215 0.37185 0.53911 0.0
C1920 C 0.49512 0.38292 0.51617 0.0
C1921 C 0.48428 0.42165 0.52577 0.0
C1922 C 0.49194 0.38799 0.49772 0.0
C1923 C 0.50496 0.38396 0.48409 0.0
C1924 C 0.52136 0.37466 0.48865 0.0
C1925 C 0.5245 0.36947 0.50712 0.0
C1926 C 0.51142 0.3735 0.52077 0.0
H1927 H 0.48182 0.43412 0.53439 0.0
H1928 H 0.49941 0.41931 0.52464 0.0
H1929 H 0.47876 0.42451 0.51175 0.0
H1930 H 0.47924 0.39488 0.49381 0.0
H1931 H 0.50211 0.38802 0.46997 0.0
H1932 H 0.14086 0.64435 0.69875 0.0
H1933 H 0.12966 0.67569 0.70269 0.0
H1934 H 0.17239 0.69584 0.66622 0.0
H1935 H 0.18418 0.66427 0.66278 0.0
H1936 H 0.1747 0.71259 0.69735 0.0
H1937 H 0.10147 0.71548 0.67824 0.0
H1938 H 0.10454 0.69568 0.69272 0.0
H1939 H 0.11622 0.6968 0.67067 0.0
C1940 C 0.14754 0.65534 0.69107 0.0
C1941 C 0.16355 0.6519 0.68066 0.0
C1942 C 0.14096 0.67332 0.69317 0.0
C1943 C 0.15004 0.68821 0.68463 0.0
C1944 C 0.16511 0.68458 0.6729 0.0
H1945 H 0.10868 0.79047 0.73631 0.0
H1946 H 0.11778 0.77005 0.71079 0.0
C1947 C 0.17182 0.66654 0.67092 0.0
C1948 C 0.14602 0.7073 0.69098 0.0
H1949 H 0.11018 0.73404 0.70591 0.0
C1950 C 0.16062 0.71756 0.69867 0.0
C1951 C 0.12776 0.71418 0.69242 0.0
C1952 C 0.11169 0.70499 0.68284 0.0
C1953 C 0.15723 0.73331 0.70941 0.0
C1954 C 0.13877 0.73863 0.71296 0.0
C1955 C 0.12433 0.72964 0.70363 0.0
C1956 C 0.13413 0.75181 0.72793 0.0
C1957 C 0.17347 0.74362 0.71748 0.0
C1958 C 0.14013 0.74819 0.74602 0.0
C1959 C 0.13504 0.7598 0.76053 0.0
C1960 C 0.12362 0.77513 0.75729 0.0
C1961 C 0.11755 0.77876 0.73918 0.0
C1962 C 0.12273 0.76714 0.72461 0.0
H1963 H 0.18571 0.74267 0.70824 0.0
H1964 H 0.17018 0.75843 0.71981 0.0
H1965 H 0.17731 0.73727 0.7309 0.0
H1966 H 0.14846 0.73611 0.74901 0.0
H1967 H 0.13981 0.75657 0.77434 0.0
H1968 H 0.45461 0.86173 0.99011 0.0
H1969 H 0.47606 0.87026 0.96526 0.0
H1970 H 0.5153 0.8895 0.00584 0.0
H1971 H 0.49376 0.88166 0.03056 0.0
H1972 H 0.51181 0.91339 0.9777 0.0
H1973 H 0.52196 0.84222 0.95025 0.0
H1974 H 0.49863 0.85072 0.95032 0.0
H1975 H 0.5103 0.8466 0.97184 0.0
C1976 C 0.46782 0.86782 0.99367 0.0
C1977 C 0.47258 0.871 0.01225 0.0
C1978 C 0.48008 0.87257 0.97948 0.0
C1979 C 0.49739 0.88025 0.9837 0.0
C1980 C 0.50201 0.88358 0.00225 0.0
H1981 H 0.60421 0.88301 0.94756 0.0
H1982 H 0.57243 0.87392 0.95352 0.0
C1983 C 0.48971 0.87908 0.01638 0.0
C1984 C 0.51096 0.88496 0.96909 0.0
H1985 H 0.54034 0.86571 0.93757 0.0
C1986 C 0.5179 0.90306 0.96869 0.0
C1987 C 0.51876 0.87142 0.95732 0.0
C1988 C 0.51217 0.85161 0.95746 0.0
C1989 C 0.53338 0.9077 0.95801 0.0
C1990 C 0.54171 0.89397 0.94676 0.0
C1991 C 0.53387 0.87621 0.94609 0.0
C1992 C 0.56029 0.89683 0.93855 0.0
C1993 C 0.54151 0.92683 0.96018 0.0
C1994 C 0.56408 0.91195 0.92697 0.0
C1995 C 0.58237 0.91745 0.92386 0.0
C1996 C 0.59703 0.90758 0.93193 0.0
C1997 C 0.5932 0.89103 0.94133 0.0
C1998 C 0.57498 0.88578 0.94473 0.0
H1999 H 0.53527 0.93451 0.97192 0.0
H2000 H 0.55667 0.92608 0.96247 0.0
H2001 H 0.53897 0.93493 0.94742 0.0
H2002 H 0.55294 0.9203 0.9215 0.0
H2003 H 0.58495 0.93012 0.91632 0.0
H2004 H 0.89465 0.09967 0.45628 0.0
H2005 H 0.92461 0.11391 0.46121 0.0
H2006 H 0.94698 0.08349 0.41502 0.0
H2007 H 0.91669 0.06881 0.41016 0.0
H2008 H 0.96673 0.07797 0.44555 0.0
H2009 H 0.95671 0.15288 0.4387 0.0
H2010 H 0.9385 0.14383 0.4528 0.0
H2011 H 0.94055 0.13644 0.42906 0.0
C2012 C 0.9058 0.09634 0.44685 0.0
C2013 C 0.90341 0.08304 0.43293 0.0
C2014 C 0.92291 0.10468 0.44954 0.0
C2015 C 0.93801 0.10002 0.4383 0.0
C2016 C 0.93545 0.08743 0.42372 0.0
H2017 H 0.03393 0.14999 0.49352 0.0
H2018 H 0.01504 0.14104 0.46682 0.0
C2019 C 0.91818 0.07908 0.42095 0.0
C2020 C 0.95673 0.10602 0.44405 0.0
H2021 H 0.97823 0.14313 0.46356 0.0
C2022 C 0.96955 0.09231 0.44893 0.0
C2023 C 0.96072 0.12474 0.44809 0.0
C2024 C 0.94843 0.14028 0.44165 0.0
C2025 C 0.98512 0.09658 0.45963 0.0
C2026 C 0.98763 0.11493 0.46591 0.0
C2027 C 0.97604 0.12896 0.45917 0.0
C2028 C 0.00035 0.11937 0.48131 0.0
C2029 C -0.0018 0.08122 0.46487 0.0
C2030 C -0.00178 0.11028 0.49832 0.0
C2031 C 0.00892 0.11534 0.51352 0.0
C2032 C 0.02183 0.12975 0.51206 0.0
C2033 C 0.02407 0.13881 0.49501 0.0
C2034 C 0.01334 0.1337 0.47976 0.0
H2035 H -0.00116 0.07057 0.45382 0.0
H2036 H 0.01237 0.08653 0.46746 0.0
H2037 H 0.9931 0.07436 0.4776 0.0
H2038 H 0.98787 0.09959 0.50003 0.0
H2039 H 0.00683 0.10818 0.52649 0.0
loop_
_geom_bond_atom_site_label_1
_geom_bond_atom_site_label_2
_geom_bond_distance
_geom_bond_site_symmetry_2
_ccdc_geom_bond_type
In0 O1 2.294 . S
In0 O2 2.326 . S
In0 O6 2.266 . S
In0 O7 2.326 . S
In0 O8 2.266 . S
In0 O9 2.326 . S
In0 O11 2.294 . S
In0 O12 2.326 . S
O1 In0 2.294 . S
O1 C10 1.240 . S
O2 In0 2.326 . S
O2 C10 1.252 . S
C3 O6 1.252 . S
C3 O7 1.260 . S
C4 O11 1.240 . S
C4 O12 1.252 . S
C5 O8 1.252 . S
C5 O9 1.260 . S
O6 In0 2.266 . S
O6 C3 1.252 . S
O7 In0 2.326 . S
O7 C3 1.260 . S
O8 In0 2.266 . S
O8 C5 1.252 . S
O9 In0 2.326 . S
O9 C5 1.260 . S
C10 O1 1.240 . S
C10 O2 1.252 . S
O11 In0 2.294 . S
O11 C4 1.240 . S
O12 In0 2.326 . S
O12 C4 1.252 . S
In13 O14 2.294 . S
In13 O15 2.326 . S
In13 O19 2.266 . S
In13 O20 2.326 . S
In13 O21 2.266 . S
In13 O22 2.326 . S
In13 O24 2.294 . S
In13 O25 2.326 . S
O14 In13 2.294 . S
O14 C23 1.240 . S
O15 In13 2.326 . S
O15 C23 1.252 . S
C16 O19 1.252 . S
C16 O20 1.260 . S
C17 O24 1.240 . S
C17 O25 1.252 . S
C18 O21 1.252 . S
C18 O22 1.260 . S
O19 In13 2.266 . S
O19 C16 1.252 . S
O20 In13 2.326 . S
O20 C16 1.260 . S
O21 In13 2.266 . S
O21 C18 1.252 . S
O22 In13 2.326 . S
O22 C18 1.260 . S
C23 O14 1.240 . S
C23 O15 1.252 . S
O24 In13 2.294 . S
O24 C17 1.240 . S
O25 In13 2.326 . S
O25 C17 1.252 . S
In26 O27 2.294 . S
In26 O28 2.326 . S
In26 O32 2.266 . S
In26 O33 2.326 . S
In26 O34 2.266 . S
In26 O35 2.326 . S
In26 O37 2.294 . S
In26 O38 2.326 . S
O27 In26 2.294 . S
O27 C36 1.240 . S
O28 In26 2.326 . S
O28 C36 1.252 . S
C29 O32 1.252 . S
C29 O33 1.260 . S
C30 O37 1.240 . S
C30 O38 1.252 . S
C31 O34 1.252 . S
C31 O35 1.260 . S
O32 In26 2.266 . S
O32 C29 1.252 . S
O33 In26 2.326 . S
O33 C29 1.260 . S
O34 In26 2.266 . S
O34 C31 1.252 . S
O35 In26 2.326 . S
O35 C31 1.260 . S
C36 O27 1.240 . S
C36 O28 1.252 . S
O37 In26 2.294 . S
O37 C30 1.240 . S
O38 In26 2.326 . S
O38 C30 1.252 . S
In39 O40 2.294 . S
In39 O41 2.326 . S
In39 O45 2.266 . S
In39 O46 2.326 . S
In39 O47 2.266 . S
In39 O48 2.326 . S
In39 O50 2.294 . S
In39 O51 2.326 . S
O40 In39 2.294 . S
O40 C49 1.240 . S
O41 In39 2.326 . S
O41 C49 1.252 . S
C42 O45 1.252 . S
C42 O46 1.260 . S
C43 O50 1.240 . S
C43 O51 1.252 . S
C44 O47 1.252 . S
C44 O48 1.260 . S
O45 In39 2.266 . S
O45 C42 1.252 . S
O46 In39 2.326 . S
O46 C42 1.260 . S
O47 In39 2.266 . S
O47 C44 1.252 . S
O48 In39 2.326 . S
O48 C44 1.260 . S
C49 O40 1.240 . S
C49 O41 1.252 . S
O50 In39 2.294 . S
O50 C43 1.240 . S
O51 In39 2.326 . S
O51 C43 1.252 . S
In52 O53 2.294 . S
In52 O54 2.326 . S
In52 O58 2.266 . S
In52 O59 2.326 . S
In52 O60 2.266 . S
In52 O61 2.326 . S
In52 O63 2.294 . S
In52 O64 2.326 . S
O53 In52 2.294 . S
O53 C62 1.240 . S
O54 In52 2.326 . S
O54 C62 1.252 . S
C55 O58 1.252 . S
C55 O59 1.260 . S
C56 O63 1.240 . S
C56 O64 1.252 . S
C57 O60 1.252 . S
C57 O61 1.260 . S
O58 In52 2.266 . S
O58 C55 1.252 . S
O59 In52 2.326 . S
O59 C55 1.260 . S
O60 In52 2.266 . S
O60 C57 1.252 . S
O61 In52 2.326 . S
O61 C57 1.260 . S
C62 O53 1.240 . S
C62 O54 1.252 . S
O63 In52 2.294 . S
O63 C56 1.240 . S
O64 In52 2.326 . S
O64 C56 1.252 . S
In65 O66 2.294 . S
In65 O67 2.326 . S
In65 O71 2.266 . S
In65 O72 2.326 . S
In65 O73 2.266 . S
In65 O74 2.326 . S
In65 O76 2.294 . S
In65 O77 2.326 . S
O66 In65 2.294 . S
O66 C75 1.240 . S
O67 In65 2.326 . S
O67 C75 1.252 . S
C68 O71 1.252 . S
C68 O72 1.260 . S
C69 O76 1.240 . S
C69 O77 1.252 . S
C70 O73 1.252 . S
C70 O74 1.260 . S
O71 In65 2.266 . S
O71 C68 1.252 . S
O72 In65 2.326 . S
O72 C68 1.260 . S
O73 In65 2.266 . S
O73 C70 1.252 . S
O74 In65 2.326 . S
O74 C70 1.260 . S
C75 O66 1.240 . S
C75 O67 1.252 . S
O76 In65 2.294 . S
O76 C69 1.240 . S
O77 In65 2.326 . S
O77 C69 1.252 . S
In78 O79 2.294 . S
In78 O80 2.326 . S
In78 O84 2.266 . S
In78 O85 2.326 . S
In78 O86 2.266 . S
In78 O87 2.326 . S
In78 O89 2.294 . S
In78 O90 2.326 . S
O79 In78 2.294 . S
O79 C88 1.240 . S
O80 In78 2.326 . S
O80 C88 1.252 . S
C81 O84 1.252 . S
C81 O85 1.260 . S
C82 O89 1.240 . S
C82 O90 1.252 . S
C83 O86 1.252 . S
C83 O87 1.260 . S
O84 In78 2.266 . S
O84 C81 1.252 . S
O85 In78 2.326 . S
O85 C81 1.260 . S
O86 In78 2.266 . S
O86 C83 1.252 . S
O87 In78 2.326 . S
O87 C83 1.260 . S
C88 O79 1.240 . S
C88 O80 1.252 . S
O89 In78 2.294 . S
O89 C82 1.240 . S
O90 In78 2.326 . S
O90 C82 1.252 . S
In91 O92 2.294 . S
In91 O93 2.326 . S
In91 O97 2.266 . S
In91 O98 2.326 . S
In91 O99 2.266 . S
In91 O100 2.326 . S
In91 O102 2.294 . S
In91 O103 2.326 . S
O92 In91 2.294 . S
O92 C101 1.240 . S
O93 In91 2.326 . S
O93 C101 1.252 . S
C94 O97 1.252 . S
C94 O98 1.260 . S
C95 O102 1.240 . S
C95 O103 1.252 . S
C96 O99 1.252 . S
C96 O100 1.260 . S
O97 In91 2.266 . S
O97 C94 1.252 . S
O98 In91 2.326 . S
O98 C94 1.260 . S
O99 In91 2.266 . S
O99 C96 1.252 . S
O100 In91 2.326 . S
O100 C96 1.260 . S
C101 O92 1.240 . S
C101 O93 1.252 . S
O102 In91 2.294 . S
O102 C95 1.240 . S
O103 In91 2.326 . S
O103 C95 1.252 . S
In104 O105 2.294 . S
In104 O106 2.326 . S
In104 O110 2.266 . S
In104 O111 2.326 . S
In104 O112 2.266 . S
In104 O113 2.326 . S
In104 O115 2.294 . S
In104 O116 2.326 . S
O105 In104 2.294 . S
O105 C114 1.240 . S
O106 In104 2.326 . S
O106 C114 1.252 . S
C107 O110 1.252 . S
C107 O111 1.260 . S
C108 O115 1.240 . S
C108 O116 1.252 . S
C109 O112 1.252 . S
C109 O113 1.260 . S
O110 In104 2.266 . S
O110 C107 1.252 . S
O111 In104 2.326 . S
O111 C107 1.260 . S
O112 In104 2.266 . S
O112 C109 1.252 . S
O113 In104 2.326 . S
O113 C109 1.260 . S
C114 O105 1.240 . S
C114 O106 1.252 . S
O115 In104 2.294 . S
O115 C108 1.240 . S
O116 In104 2.326 . S
O116 C108 1.252 . S
In117 O118 2.294 . S
In117 O119 2.326 . S
In117 O123 2.266 . S
In117 O124 2.326 . S
In117 O125 2.266 . S
In117 O126 2.326 . S
In117 O128 2.294 . S
In117 O129 2.326 . S
O118 In117 2.294 . S
O118 C127 1.240 . S
O119 In117 2.326 . S
O119 C127 1.252 . S
C120 O123 1.252 . S
C120 O124 1.260 . S
C121 O128 1.240 . S
C121 O129 1.252 . S
C122 O125 1.252 . S
C122 O126 1.260 . S
O123 In117 2.266 . S
O123 C120 1.252 . S
O124 In117 2.326 . S
O124 C120 1.260 . S
O125 In117 2.266 . S
O125 C122 1.252 . S
O126 In117 2.326 . S
O126 C122 1.260 . S
C127 O118 1.240 . S
C127 O119 1.252 . S
O128 In117 2.294 . S
O128 C121 1.240 . S
O129 In117 2.326 . S
O129 C121 1.252 . S
In130 O131 2.294 . S
In130 O132 2.326 . S
In130 O136 2.266 . S
In130 O137 2.326 . S
In130 O138 2.266 . S
In130 O139 2.326 . S
In130 O141 2.294 . S
In130 O142 2.326 . S
O131 In130 2.294 . S
O131 C140 1.240 . S
O132 In130 2.326 . S
O132 C140 1.252 . S
C133 O136 1.252 . S
C133 O137 1.260 . S
C134 O141 1.240 . S
C134 O142 1.252 . S
C135 O138 1.252 . S
C135 O139 1.260 . S
O136 In130 2.266 . S
O136 C133 1.252 . S
O137 In130 2.326 . S
O137 C133 1.260 . S
O138 In130 2.266 . S
O138 C135 1.252 . S
O139 In130 2.326 . S
O139 C135 1.260 . S
C140 O131 1.240 . S
C140 O132 1.252 . S
O141 In130 2.294 . S
O141 C134 1.240 . S
O142 In130 2.326 . S
O142 C134 1.252 . S
In143 O144 2.294 . S
In143 O145 2.326 . S
In143 O149 2.266 . S
In143 O150 2.326 . S
In143 O151 2.266 . S
In143 O152 2.326 . S
In143 O154 2.294 . S
In143 O155 2.326 . S
O144 In143 2.294 . S
O144 C153 1.240 . S
O145 In143 2.326 . S
O145 C153 1.252 . S
C146 O149 1.252 . S
C146 O150 1.260 . S
C147 O154 1.240 . S
C147 O155 1.252 . S
C148 O151 1.252 . S
C148 O152 1.260 . S
O149 In143 2.266 . S
O149 C146 1.252 . S
O150 In143 2.326 . S
O150 C146 1.260 . S
O151 In143 2.266 . S
O151 C148 1.252 . S
O152 In143 2.326 . S
O152 C148 1.260 . S
C153 O144 1.240 . S
C153 O145 1.252 . S
O154 In143 2.294 . S
O154 C147 1.240 . S
O155 In143 2.326 . S
O155 C147 1.252 . S
In156 O157 2.294 . S
In156 O158 2.326 . S
In156 O162 2.266 . S
In156 O163 2.326 . S
In156 O164 2.266 . S
In156 O165 2.326 . S
In156 O167 2.294 . S
In156 O168 2.326 . S
O157 In156 2.294 . S
O157 C166 1.240 . S
O158 In156 2.326 . S
O158 C166 1.252 . S
C159 O162 1.252 . S
C159 O163 1.260 . S
C160 O167 1.240 . S
C160 O168 1.252 . S
C161 O164 1.252 . S
C161 O165 1.260 . S
O162 In156 2.266 . S
O162 C159 1.252 . S
O163 In156 2.326 . S
O163 C159 1.260 . S
O164 In156 2.266 . S
O164 C161 1.252 . S
O165 In156 2.326 . S
O165 C161 1.260 . S
C166 O157 1.240 . S
C166 O158 1.252 . S
O167 In156 2.294 . S
O167 C160 1.240 . S
O168 In156 2.326 . S
O168 C160 1.252 . S
In169 O170 2.294 . S
In169 O171 2.326 . S
In169 O175 2.266 . S
In169 O176 2.326 . S
In169 O177 2.266 . S
In169 O178 2.326 . S
In169 O180 2.294 . S
In169 O181 2.326 . S
O170 In169 2.294 . S
O170 C179 1.240 . S
O171 In169 2.326 . S
O171 C179 1.252 . S
C172 O175 1.252 . S
C172 O176 1.260 . S
C173 O180 1.240 . S
C173 O181 1.252 . S
C174 O177 1.252 . S
C174 O178 1.260 . S
O175 In169 2.266 . S
O175 C172 1.252 . S
O176 In169 2.326 . S
O176 C172 1.260 . S
O177 In169 2.266 . S
O177 C174 1.252 . S
O178 In169 2.326 . S
O178 C174 1.260 . S
C179 O170 1.240 . S
C179 O171 1.252 . S
O180 In169 2.294 . S
O180 C173 1.240 . S
O181 In169 2.326 . S
O181 C173 1.252 . S
In182 O183 2.294 . S
In182 O184 2.326 . S
In182 O188 2.266 . S
In182 O189 2.326 . S
In182 O190 2.266 . S
In182 O191 2.326 . S
In182 O193 2.294 . S
In182 O194 2.326 . S
O183 In182 2.294 . S
O183 C192 1.240 . S
O184 In182 2.326 . S
O184 C192 1.252 . S
C185 O188 1.252 . S
C185 O189 1.260 . S
C186 O193 1.240 . S
C186 O194 1.252 . S
C187 O190 1.252 . S
C187 O191 1.260 . S
O188 In182 2.266 . S
O188 C185 1.252 . S
O189 In182 2.326 . S
O189 C185 1.260 . S
O190 In182 2.266 . S
O190 C187 1.252 . S
O191 In182 2.326 . S
O191 C187 1.260 . S
C192 O183 1.240 . S
C192 O184 1.252 . S
O193 In182 2.294 . S
O193 C186 1.240 . S
O194 In182 2.326 . S
O194 C186 1.252 . S
In195 O196 2.294 . S
In195 O197 2.326 . S
In195 O201 2.266 . S
In195 O202 2.326 . S
In195 O203 2.266 . S
In195 O204 2.326 . S
In195 O206 2.294 . S
In195 O207 2.326 . S
O196 In195 2.294 . S
O196 C205 1.240 . S
O197 In195 2.326 . S
O197 C205 1.252 . S
C198 O201 1.252 . S
C198 O202 1.260 . S
C199 O206 1.240 . S
C199 O207 1.252 . S
C200 O203 1.252 . S
C200 O204 1.260 . S
O201 In195 2.266 . S
O201 C198 1.252 . S
O202 In195 2.326 . S
O202 C198 1.260 . S
O203 In195 2.266 . S
O203 C200 1.252 . S
O204 In195 2.326 . S
O204 C200 1.260 . S
C205 O196 1.240 . S
C205 O197 1.252 . S
O206 In195 2.294 . S
O206 C199 1.240 . S
O207 In195 2.326 . S
O207 C199 1.252 . S
In208 O209 2.294 . S
In208 O210 2.326 . S
In208 O214 2.266 . S
In208 O215 2.326 . S
In208 O216 2.266 . S
In208 O217 2.326 . S
In208 O219 2.294 . S
In208 O220 2.326 . S
O209 In208 2.294 . S
O209 C218 1.240 . S
O210 In208 2.326 . S
O210 C218 1.252 . S
C211 O214 1.252 . S
C211 O215 1.260 . S
C212 O219 1.240 . S
C212 O220 1.252 . S
C213 O216 1.252 . S
C213 O217 1.260 . S
O214 In208 2.266 . S
O214 C211 1.252 . S
O215 In208 2.326 . S
O215 C211 1.260 . S
O216 In208 2.266 . S
O216 C213 1.252 . S
O217 In208 2.326 . S
O217 C213 1.260 . S
C218 O209 1.240 . S
C218 O210 1.252 . S
O219 In208 2.294 . S
O219 C212 1.240 . S
O220 In208 2.326 . S
O220 C212 1.252 . S
In221 O222 2.294 . S
In221 O223 2.326 . S
In221 O227 2.266 . S
In221 O228 2.326 . S
In221 O229 2.266 . S
In221 O230 2.326 . S
In221 O232 2.294 . S
In221 O233 2.326 . S
O222 In221 2.294 . S
O222 C231 1.240 . S
O223 In221 2.326 . S
O223 C231 1.252 . S
C224 O227 1.252 . S
C224 O228 1.260 . S
C225 O232 1.240 . S
C225 O233 1.252 . S
C226 O229 1.252 . S
C226 O230 1.260 . S
O227 In221 2.266 . S
O227 C224 1.252 . S
O228 In221 2.326 . S
O228 C224 1.260 . S
O229 In221 2.266 . S
O229 C226 1.252 . S
O230 In221 2.326 . S
O230 C226 1.260 . S
C231 O222 1.240 . S
C231 O223 1.252 . S
O232 In221 2.294 . S
O232 C225 1.240 . S
O233 In221 2.326 . S
O233 C225 1.252 . S
In234 O235 2.294 . S
In234 O236 2.326 . S
In234 O240 2.266 . S
In234 O241 2.326 . S
In234 O242 2.266 . S
In234 O243 2.326 . S
In234 O245 2.294 . S
In234 O246 2.326 . S
O235 In234 2.294 . S
O235 C244 1.240 . S
O236 In234 2.326 . S
O236 C244 1.252 . S
C237 O240 1.252 . S
C237 O241 1.260 . S
C238 O245 1.240 . S
C238 O246 1.252 . S
C239 O242 1.252 . S
C239 O243 1.260 . S
O240 In234 2.266 . S
O240 C237 1.252 . S
O241 In234 2.326 . S
O241 C237 1.260 . S
O242 In234 2.266 . S
O242 C239 1.252 . S
O243 In234 2.326 . S
O243 C239 1.260 . S
C244 O235 1.240 . S
C244 O236 1.252 . S
O245 In234 2.294 . S
O245 C238 1.240 . S
O246 In234 2.326 . S
O246 C238 1.252 . S
In247 O248 2.294 . S
In247 O249 2.326 . S
In247 O253 2.266 . S
In247 O254 2.326 . S
In247 O255 2.266 . S
In247 O256 2.326 . S
In247 O258 2.294 . S
In247 O259 2.326 . S
O248 In247 2.294 . S
O248 C257 1.240 . S
O249 In247 2.326 . S
O249 C257 1.252 . S
C250 O253 1.252 . S
C250 O254 1.260 . S
C251 O258 1.240 . S
C251 O259 1.252 . S
C252 O255 1.252 . S
C252 O256 1.260 . S
O253 In247 2.266 . S
O253 C250 1.252 . S
O254 In247 2.326 . S
O254 C250 1.260 . S
O255 In247 2.266 . S
O255 C252 1.252 . S
O256 In247 2.326 . S
O256 C252 1.260 . S
C257 O248 1.240 . S
C257 O249 1.252 . S
O258 In247 2.294 . S
O258 C251 1.240 . S
O259 In247 2.326 . S
O259 C251 1.252 . S
In260 O261 2.294 . S
In260 O262 2.326 . S
In260 O266 2.266 . S
In260 O267 2.326 . S
In260 O268 2.266 . S
In260 O269 2.326 . S
In260 O271 2.294 . S
In260 O272 2.326 . S
O261 In260 2.294 . S
O261 C270 1.240 . S
O262 In260 2.326 . S
O262 C270 1.252 . S
C263 O266 1.252 . S
C263 O267 1.260 . S
C264 O271 1.240 . S
C264 O272 1.252 . S
C265 O268 1.252 . S
C265 O269 1.260 . S
O266 In260 2.266 . S
O266 C263 1.252 . S
O267 In260 2.326 . S
O267 C263 1.260 . S
O268 In260 2.266 . S
O268 C265 1.252 . S
O269 In260 2.326 . S
O269 C265 1.260 . S
C270 O261 1.240 . S
C270 O262 1.252 . S
O271 In260 2.294 . S
O271 C264 1.240 . S
O272 In260 2.326 . S
O272 C264 1.252 . S
In273 O274 2.294 . S
In273 O275 2.326 . S
In273 O279 2.266 . S
In273 O280 2.326 . S
In273 O281 2.266 . S
In273 O282 2.326 . S
In273 O284 2.294 . S
In273 O285 2.326 . S
O274 In273 2.294 . S
O274 C283 1.240 . S
O275 In273 2.326 . S
O275 C283 1.252 . S
C276 O279 1.252 . S
C276 O280 1.260 . S
C277 O284 1.240 . S
C277 O285 1.252 . S
C278 O281 1.252 . S
C278 O282 1.260 . S
O279 In273 2.266 . S
O279 C276 1.252 . S
O280 In273 2.326 . S
O280 C276 1.260 . S
O281 In273 2.266 . S
O281 C278 1.252 . S
O282 In273 2.326 . S
O282 C278 1.260 . S
C283 O274 1.240 . S
C283 O275 1.252 . S
O284 In273 2.294 . S
O284 C277 1.240 . S
O285 In273 2.326 . S
O285 C277 1.252 . S
In286 O287 2.294 . S
In286 O288 2.326 . S
In286 O292 2.266 . S
In286 O293 2.326 . S
In286 O294 2.266 . S
In286 O295 2.326 . S
In286 O297 2.294 . S
In286 O298 2.326 . S
O287 In286 2.294 . S
O287 C296 1.240 . S
O288 In286 2.326 . S
O288 C296 1.252 . S
C289 O292 1.252 . S
C289 O293 1.260 . S
C290 O297 1.240 . S
C290 O298 1.252 . S
C291 O294 1.252 . S
C291 O295 1.260 . S
O292 In286 2.266 . S
O292 C289 1.252 . S
O293 In286 2.326 . S
O293 C289 1.260 . S
O294 In286 2.266 . S
O294 C291 1.252 . S
O295 In286 2.326 . S
O295 C291 1.260 . S
C296 O287 1.240 . S
C296 O288 1.252 . S
O297 In286 2.294 . S
O297 C290 1.240 . S
O298 In286 2.326 . S
O298 C290 1.252 . S
In299 O300 2.294 . S
In299 O301 2.326 . S
In299 O305 2.266 . S
In299 O306 2.326 . S
In299 O307 2.266 . S
In299 O308 2.326 . S
In299 O310 2.294 . S
In299 O311 2.326 . S
O300 In299 2.294 . S
O300 C309 1.240 . S
O301 In299 2.326 . S
O301 C309 1.252 . S
C302 O305 1.252 . S
C302 O306 1.260 . S
C303 O310 1.240 . S
C303 O311 1.252 . S
C304 O307 1.252 . S
C304 O308 1.260 . S
O305 In299 2.266 . S
O305 C302 1.252 . S
O306 In299 2.326 . S
O306 C302 1.260 . S
O307 In299 2.266 . S
O307 C304 1.252 . S
O308 In299 2.326 . S
O308 C304 1.260 . S
C309 O300 1.240 . S
C309 O301 1.252 . S
O310 In299 2.294 . S
O310 C303 1.240 . S
O311 In299 2.326 . S
O311 C303 1.252 . S
H312 C320 0.929 . S
H313 C322 0.930 . S
H314 C324 0.930 . S
H315 C327 0.929 . S
H316 C330 0.930 . S
H317 C332 0.960 . S
H318 C332 0.960 . S
H319 C332 0.960 . S
C320 H312 0.929 . S
C320 C321 1.377 . S
C320 C322 1.384 . S
C321 C320 1.377 . S
C321 C327 1.390 . S
C322 H313 0.930 . S
C322 C320 1.384 . S
C322 C323 1.372 . S
C323 C322 1.372 . S
C323 C324 1.400 . S
C323 C328 1.490 . S
C324 H314 0.930 . S
C324 C323 1.400 . S
C324 C327 1.386 . S
H325 C341 0.930 . S
H326 C342 0.931 . S
C327 H315 0.929 . S
C327 C321 1.390 . S
C327 C324 1.386 . S
C328 C323 1.490 . S
C328 C330 1.395 . S
C328 C331 1.403 . S
H329 C335 0.930 . S
C330 H316 0.930 . S
C330 C328 1.395 . S
C330 C333 1.403 . S
C331 C328 1.403 . S
C331 C332 1.524 . S
C331 C335 1.400 . S
C332 H317 0.960 . S
C332 H318 0.960 . S
C332 H319 0.960 . S
C332 C331 1.524 . S
C333 C330 1.403 . S
C333 C334 1.392 . S
C333 C337 1.495 . S
C334 C333 1.392 . S
C334 C335 1.385 . S
C334 C336 1.478 . S
C335 H329 0.930 . S
C335 C331 1.400 . S
C335 C334 1.385 . S
C336 C334 1.478 . S
C336 C338 1.381 . S
C336 C342 1.383 . S
C337 C333 1.495 . S
C337 H343 0.959 . S
C337 H344 0.961 . S
C337 H345 0.960 . S
C338 C336 1.381 . S
C338 C339 1.394 . S
C338 H346 0.930 . S
C339 C338 1.394 . S
C339 C340 1.383 . S
C339 H347 0.929 . S
C340 C339 1.383 . S
C340 C341 1.377 . S
C341 H325 0.930 . S
C341 C340 1.377 . S
C341 C342 1.379 . S
C342 H326 0.931 . S
C342 C336 1.383 . S
C342 C341 1.379 . S
H343 C337 0.959 . S
H344 C337 0.961 . S
H345 C337 0.960 . S
H346 C338 0.930 . S
H347 C339 0.929 . S
H348 C356 0.929 . S
H349 C358 0.930 . S
H350 C360 0.930 . S
H351 C363 0.929 . S
H352 C366 0.930 1_655 S
H353 C368 0.960 . S
H354 C368 0.960 . S
H355 C368 0.960 . S
C356 H348 0.929 . S
C356 C357 1.377 . S
C356 C358 1.384 . S
C357 C356 1.377 . S
C357 C363 1.390 . S
C358 H349 0.930 . S
C358 C356 1.384 . S
C358 C359 1.372 . S
C359 C358 1.372 . S
C359 C360 1.400 1_655 S
C359 C364 1.490 1_655 S
C360 H350 0.930 . S
C360 C359 1.400 1_455 S
C360 C363 1.386 1_455 S
H361 C377 0.930 . S
H362 C378 0.931 . S
C363 H351 0.929 . S
C363 C357 1.390 . S
C363 C360 1.386 1_655 S
C364 C359 1.490 1_455 S
C364 C366 1.395 . S
C364 C367 1.403 . S
H365 C371 0.930 . S
C366 H352 0.930 1_455 S
C366 C364 1.395 . S
C366 C369 1.403 . S
C367 C364 1.403 . S
C367 C368 1.524 . S
C367 C371 1.400 . S
C368 H353 0.960 . S
C368 H354 0.960 . S
C368 H355 0.960 . S
C368 C367 1.524 . S
C369 C366 1.403 . S
C369 C370 1.392 . S
C369 C373 1.495 . S
C370 C369 1.392 . S
C370 C371 1.385 . S
C370 C372 1.478 . S
C371 H365 0.930 . S
C371 C367 1.400 . S
C371 C370 1.385 . S
C372 C370 1.478 . S
C372 C374 1.381 . S
C372 C378 1.383 . S
C373 C369 1.495 . S
C373 H379 0.959 . S
C373 H380 0.961 . S
C373 H381 0.960 . S
C374 C372 1.381 . S
C374 C375 1.394 . S
C374 H382 0.930 . S
C375 C374 1.394 . S
C375 C376 1.383 . S
C375 H383 0.929 . S
C376 C375 1.383 . S
C376 C377 1.377 . S
C377 H361 0.930 . S
C377 C376 1.377 . S
C377 C378 1.379 . S
C378 H362 0.931 . S
C378 C372 1.383 . S
C378 C377 1.379 . S
H379 C373 0.959 . S
H380 C373 0.961 . S
H381 C373 0.960 . S
H382 C374 0.930 . S
H383 C375 0.929 . S
H384 C392 0.929 . S
H385 C394 0.930 . S
H386 C396 0.930 . S
H387 C399 0.929 . S
H388 C402 0.930 . S
H389 C404 0.960 . S
H390 C404 0.960 . S
H391 C404 0.960 . S
C392 H384 0.929 . S
C392 C393 1.377 . S
C392 C394 1.384 . S
C393 C392 1.377 . S
C393 C399 1.390 . S
C394 H385 0.930 . S
C394 C392 1.384 . S
C394 C395 1.372 . S
C395 C394 1.372 . S
C395 C396 1.400 . S
C395 C400 1.490 . S
C396 H386 0.930 . S
C396 C395 1.400 . S
C396 C399 1.386 . S
H397 C413 0.930 . S
H398 C414 0.931 . S
C399 H387 0.929 . S
C399 C393 1.390 . S
C399 C396 1.386 . S
C400 C395 1.490 . S
C400 C402 1.395 . S
C400 C403 1.403 . S
H401 C407 0.930 . S
C402 H388 0.930 . S
C402 C400 1.395 . S
C402 C405 1.403 . S
C403 C400 1.403 . S
C403 C404 1.524 . S
C403 C407 1.400 . S
C404 H389 0.960 . S
C404 H390 0.960 . S
C404 H391 0.960 . S
C404 C403 1.524 . S
C405 C402 1.403 . S
C405 C406 1.392 . S
C405 C409 1.495 . S
C406 C405 1.392 . S
C406 C407 1.385 . S
C406 C408 1.478 1_556 S
C407 H401 0.930 . S
C407 C403 1.400 . S
C407 C406 1.385 . S
C408 C406 1.478 1_554 S
C408 C410 1.381 . S
C408 C414 1.383 1_554 S
C409 C405 1.495 . S
C409 H415 0.959 . S
C409 H416 0.961 . S
C409 H417 0.960 1_556 S
C410 C408 1.381 . S
C410 C411 1.394 . S
C410 H418 0.930 . S
C411 C410 1.394 . S
C411 C412 1.383 . S
C411 H419 0.929 . S
C412 C411 1.383 . S
C412 C413 1.377 . S
C413 H397 0.930 . S
C413 C412 1.377 . S
C413 C414 1.379 1_554 S
C414 H398 0.931 . S
C414 C408 1.383 1_556 S
C414 C413 1.379 1_556 S
H415 C409 0.959 . S
H416 C409 0.961 . S
H417 C409 0.960 1_554 S
H418 C410 0.930 . S
H419 C411 0.929 . S
H420 C428 0.929 . S
H421 C430 0.930 . S
H422 C432 0.930 . S
H423 C435 0.929 . S
H424 C438 0.930 . S
H425 C440 0.960 . S
H426 C440 0.960 . S
H427 C440 0.960 . S
C428 H420 0.929 . S
C428 C429 1.377 . S
C428 C430 1.384 . S
C429 C428 1.377 . S
C429 C435 1.390 . S
C430 H421 0.930 . S
C430 C428 1.384 . S
C430 C431 1.372 . S
C431 C430 1.372 . S
C431 C432 1.400 . S
C431 C436 1.490 . S
C432 H422 0.930 . S
C432 C431 1.400 . S
C432 C435 1.386 . S
H433 C449 0.930 . S
H434 C450 0.931 . S
C435 H423 0.929 . S
C435 C429 1.390 . S
C435 C432 1.386 . S
C436 C431 1.490 . S
C436 C438 1.395 . S
C436 C439 1.403 . S
H437 C443 0.930 . S
C438 H424 0.930 . S
C438 C436 1.395 . S
C438 C441 1.403 . S
C439 C436 1.403 . S
C439 C440 1.524 . S
C439 C443 1.400 . S
C440 H425 0.960 . S
C440 H426 0.960 . S
C440 H427 0.960 . S
C440 C439 1.524 . S
C441 C438 1.403 . S
C441 C442 1.392 . S
C441 C445 1.495 . S
C442 C441 1.392 . S
C442 C443 1.385 . S
C442 C444 1.478 . S
C443 H437 0.930 . S
C443 C439 1.400 . S
C443 C442 1.385 . S
C444 C442 1.478 . S
C444 C446 1.381 . S
C444 C450 1.383 . S
C445 C441 1.495 . S
C445 H451 0.959 . S
C445 H452 0.961 . S
C445 H453 0.960 . S
C446 C444 1.381 . S
C446 C447 1.394 . S
C446 H454 0.930 . S
C447 C446 1.394 . S
C447 C448 1.383 . S
C447 H455 0.929 . S
C448 C447 1.383 . S
C448 C449 1.377 . S
C449 H433 0.930 . S
C449 C448 1.377 . S
C449 C450 1.379 . S
C450 H434 0.931 . S
C450 C444 1.383 . S
C450 C449 1.379 . S
H451 C445 0.959 . S
H452 C445 0.961 . S
H453 C445 0.960 . S
H454 C446 0.930 . S
H455 C447 0.929 . S
H456 C464 0.929 . S
H457 C466 0.930 . S
H458 C468 0.930 . S
H459 C471 0.929 . S
H460 C474 0.930 . S
H461 C476 0.960 . S
H462 C476 0.960 . S
H463 C476 0.960 . S
C464 H456 0.929 . S
C464 C465 1.377 . S
C464 C466 1.384 . S
C465 C464 1.377 . S
C465 C471 1.390 . S
C466 H457 0.930 . S
C466 C464 1.384 . S
C466 C467 1.372 . S
C467 C466 1.372 . S
C467 C468 1.400 . S
C467 C472 1.490 . S
C468 H458 0.930 . S
C468 C467 1.400 . S
C468 C471 1.386 . S
H469 C485 0.930 . S
H470 C486 0.931 . S
C471 H459 0.929 . S
C471 C465 1.390 . S
C471 C468 1.386 . S
C472 C467 1.490 . S
C472 C474 1.395 . S
C472 C475 1.403 . S
H473 C479 0.930 . S
C474 H460 0.930 . S
C474 C472 1.395 . S
C474 C477 1.403 . S
C475 C472 1.403 . S
C475 C476 1.524 . S
C475 C479 1.400 . S
C476 H461 0.960 . S
C476 H462 0.960 . S
C476 H463 0.960 . S
C476 C475 1.524 . S
C477 C474 1.403 . S
C477 C478 1.392 . S
C477 C481 1.495 . S
C478 C477 1.392 . S
C478 C479 1.385 . S
C478 C480 1.478 . S
C479 H473 0.930 . S
C479 C475 1.400 . S
C479 C478 1.385 . S
C480 C478 1.478 . S
C480 C482 1.381 . S
C480 C486 1.383 . S
C481 C477 1.495 . S
C481 H487 0.959 . S
C481 H488 0.961 . S
C481 H489 0.960 . S
C482 C480 1.381 . S
C482 C483 1.394 . S
C482 H490 0.930 . S
C483 C482 1.394 . S
C483 C484 1.383 . S
C483 H491 0.929 . S
C484 C483 1.383 . S
C484 C485 1.377 . S
C485 H469 0.930 . S
C485 C484 1.377 . S
C485 C486 1.379 . S
C486 H470 0.931 . S
C486 C480 1.383 . S
C486 C485 1.379 . S
H487 C481 0.959 . S
H488 C481 0.961 . S
H489 C481 0.960 . S
H490 C482 0.930 . S
H491 C483 0.929 . S
H492 C500 0.929 . S
H493 C502 0.930 . S
H494 C504 0.930 . S
H495 C507 0.929 . S
H496 C510 0.930 . S
H497 C512 0.960 1_455 S
H498 C512 0.960 . S
H499 C512 0.960 . S
C500 H492 0.929 . S
C500 C501 1.377 . S
C500 C502 1.384 . S
C501 C500 1.377 . S
C501 C507 1.390 . S
C502 H493 0.930 . S
C502 C500 1.384 . S
C502 C503 1.372 . S
C503 C502 1.372 . S
C503 C504 1.400 . S
C503 C508 1.490 . S
C504 H494 0.930 . S
C504 C503 1.400 . S
C504 C507 1.386 . S
H505 C521 0.930 . S
H506 C522 0.931 . S
C507 H495 0.929 . S
C507 C501 1.390 . S
C507 C504 1.386 . S
C508 C503 1.490 . S
C508 C510 1.395 . S
C508 C511 1.403 . S
H509 C515 0.930 1_455 S
C510 H496 0.930 . S
C510 C508 1.395 . S
C510 C513 1.403 . S
C511 C508 1.403 . S
C511 C512 1.524 . S
C511 C515 1.400 . S
C512 H497 0.960 1_655 S
C512 H498 0.960 . S
C512 H499 0.960 . S
C512 C511 1.524 . S
C513 C510 1.403 . S
C513 C514 1.392 . S
C513 C517 1.495 . S
C514 C513 1.392 . S
C514 C515 1.385 . S
C514 C516 1.478 1_655 S
C515 H509 0.930 1_655 S
C515 C511 1.400 . S
C515 C514 1.385 . S
C516 C514 1.478 1_455 S
C516 C518 1.381 1_455 S
C516 C522 1.383 . S
C517 C513 1.495 . S
C517 H523 0.959 . S
C517 H524 0.961 . S
C517 H525 0.960 . S
C518 C516 1.381 1_655 S
C518 C519 1.394 1_655 S
C518 H526 0.930 . S
C519 C518 1.394 1_455 S
C519 C520 1.383 . S
C519 H527 0.929 . S
C520 C519 1.383 . S
C520 C521 1.377 . S
C521 H505 0.930 . S
C521 C520 1.377 . S
C521 C522 1.379 . S
C522 H506 0.931 . S
C522 C516 1.383 . S
C522 C521 1.379 . S
H523 C517 0.959 . S
H524 C517 0.961 . S
H525 C517 0.960 . S
H526 C518 0.930 . S
H527 C519 0.929 . S
H528 C536 0.929 . S
H529 C538 0.930 . S
H530 C540 0.930 . S
H531 C543 0.929 . S
H532 C546 0.930 . S
H533 C548 0.960 . S
H534 C548 0.960 . S
H535 C548 0.960 . S
C536 H528 0.929 . S
C536 C537 1.377 . S
C536 C538 1.384 . S
C537 C536 1.377 . S
C537 C543 1.390 . S
C538 H529 0.930 . S
C538 C536 1.384 . S
C538 C539 1.372 . S
C539 C538 1.372 . S
C539 C540 1.400 . S
C539 C544 1.490 . S
C540 H530 0.930 . S
C540 C539 1.400 . S
C540 C543 1.386 . S
H541 C557 0.930 . S
H542 C558 0.931 . S
C543 H531 0.929 . S
C543 C537 1.390 . S
C543 C540 1.386 . S
C544 C539 1.490 . S
C544 C546 1.395 . S
C544 C547 1.403 . S
H545 C551 0.930 . S
C546 H532 0.930 . S
C546 C544 1.395 . S
C546 C549 1.403 . S
C547 C544 1.403 . S
C547 C548 1.524 . S
C547 C551 1.400 . S
C548 H533 0.960 . S
C548 H534 0.960 . S
C548 H535 0.960 . S
C548 C547 1.524 . S
C549 C546 1.403 . S
C549 C550 1.392 . S
C549 C553 1.495 1_554 S
C550 C549 1.392 . S
C550 C551 1.385 . S
C550 C552 1.478 1_554 S
C551 H545 0.930 . S
C551 C547 1.400 . S
C551 C550 1.385 . S
C552 C550 1.478 1_556 S
C552 C554 1.381 . S
C552 C558 1.383 . S
C553 C549 1.495 1_556 S
C553 H559 0.959 . S
C553 H560 0.961 . S
C553 H561 0.960 . S
C554 C552 1.381 . S
C554 C555 1.394 . S
C554 H562 0.930 . S
C555 C554 1.394 . S
C555 C556 1.383 . S
C555 H563 0.929 . S
C556 C555 1.383 . S
C556 C557 1.377 . S
C557 H541 0.930 . S
C557 C556 1.377 . S
C557 C558 1.379 . S
C558 H542 0.931 . S
C558 C552 1.383 . S
C558 C557 1.379 . S
H559 C553 0.959 . S
H560 C553 0.961 . S
H561 C553 0.960 . S
H562 C554 0.930 . S
H563 C555 0.929 . S
H564 C572 0.929 . S
H565 C574 0.930 . S
H566 C576 0.930 . S
H567 C579 0.929 . S
H568 C582 0.930 . S
H569 C584 0.960 . S
H570 C584 0.960 . S
H571 C584 0.960 . S
C572 H564 0.929 . S
C572 C573 1.377 . S
C572 C574 1.384 . S
C573 C572 1.377 . S
C573 C579 1.390 . S
C574 H565 0.930 . S
C574 C572 1.384 . S
C574 C575 1.372 . S
C575 C574 1.372 . S
C575 C576 1.400 . S
C575 C580 1.490 . S
C576 H566 0.930 . S
C576 C575 1.400 . S
C576 C579 1.386 . S
H577 C593 0.930 . S
H578 C594 0.931 . S
C579 H567 0.929 . S
C579 C573 1.390 . S
C579 C576 1.386 . S
C580 C575 1.490 . S
C580 C582 1.395 . S
C580 C583 1.403 . S
H581 C587 0.930 . S
C582 H568 0.930 . S
C582 C580 1.395 . S
C582 C585 1.403 . S
C583 C580 1.403 . S
C583 C584 1.524 . S
C583 C587 1.400 . S
C584 H569 0.960 . S
C584 H570 0.960 . S
C584 H571 0.960 . S
C584 C583 1.524 . S
C585 C582 1.403 . S
C585 C586 1.392 . S
C585 C589 1.495 . S
C586 C585 1.392 . S
C586 C587 1.385 . S
C586 C588 1.478 . S
C587 H581 0.930 . S
C587 C583 1.400 . S
C587 C586 1.385 . S
C588 C586 1.478 . S
C588 C590 1.381 . S
C588 C594 1.383 . S
C589 C585 1.495 . S
C589 H595 0.959 . S
C589 H596 0.961 . S
C589 H597 0.960 . S
C590 C588 1.381 . S
C590 C591 1.394 . S
C590 H598 0.930 . S
C591 C590 1.394 . S
C591 C592 1.383 . S
C591 H599 0.929 . S
C592 C591 1.383 . S
C592 C593 1.377 . S
C593 H577 0.930 . S
C593 C592 1.377 . S
C593 C594 1.379 . S
C594 H578 0.931 . S
C594 C588 1.383 . S
C594 C593 1.379 . S
H595 C589 0.959 . S
H596 C589 0.961 . S
H597 C589 0.960 . S
H598 C590 0.930 . S
H599 C591 0.929 . S
H600 C608 0.929 . S
H601 C610 0.930 . S
H602 C612 0.930 . S
H603 C615 0.929 . S
H604 C618 0.930 . S
H605 C620 0.960 . S
H606 C620 0.960 . S
H607 C620 0.960 . S
C608 H600 0.929 . S
C608 C609 1.377 . S
C608 C610 1.384 . S
C609 C608 1.377 . S
C609 C615 1.390 . S
C610 H601 0.930 . S
C610 C608 1.384 . S
C610 C611 1.372 . S
C611 C610 1.372 . S
C611 C612 1.400 . S
C611 C616 1.490 . S
C612 H602 0.930 . S
C612 C611 1.400 . S
C612 C615 1.386 . S
H613 C629 0.930 . S
H614 C630 0.931 . S
C615 H603 0.929 . S
C615 C609 1.390 . S
C615 C612 1.386 . S
C616 C611 1.490 . S
C616 C618 1.395 . S
C616 C619 1.403 . S
H617 C623 0.930 . S
C618 H604 0.930 . S
C618 C616 1.395 . S
C618 C621 1.403 . S
C619 C616 1.403 . S
C619 C620 1.524 . S
C619 C623 1.400 . S
C620 H605 0.960 . S
C620 H606 0.960 . S
C620 H607 0.960 . S
C620 C619 1.524 . S
C621 C618 1.403 . S
C621 C622 1.392 . S
C621 C625 1.495 . S
C622 C621 1.392 . S
C622 C623 1.385 . S
C622 C624 1.478 . S
C623 H617 0.930 . S
C623 C619 1.400 . S
C623 C622 1.385 . S
C624 C622 1.478 . S
C624 C626 1.381 . S
C624 C630 1.383 . S
C625 C621 1.495 . S
C625 H631 0.959 . S
C625 H632 0.961 . S
C625 H633 0.960 . S
C626 C624 1.381 . S
C626 C627 1.394 . S
C626 H634 0.930 . S
C627 C626 1.394 . S
C627 C628 1.383 . S
C627 H635 0.929 . S
C628 C627 1.383 . S
C628 C629 1.377 . S
C629 H613 0.930 . S
C629 C628 1.377 . S
C629 C630 1.379 . S
C630 H614 0.931 . S
C630 C624 1.383 . S
C630 C629 1.379 . S
H631 C625 0.959 . S
H632 C625 0.961 . S
H633 C625 0.960 . S
H634 C626 0.930 . S
H635 C627 0.929 . S
H636 C644 0.929 . S
H637 C646 0.930 . S
H638 C648 0.930 . S
H639 C651 0.929 . S
H640 C654 0.930 . S
H641 C656 0.960 . S
H642 C656 0.960 . S
H643 C656 0.960 . S
C644 H636 0.929 . S
C644 C645 1.377 . S
C644 C646 1.384 . S
C645 C644 1.377 . S
C645 C651 1.390 . S
C646 H637 0.930 . S
C646 C644 1.384 . S
C646 C647 1.372 . S
C647 C646 1.372 . S
C647 C648 1.400 . S
C647 C652 1.490 1_565 S
C648 H638 0.930 . S
C648 C647 1.400 . S
C648 C651 1.386 . S
H649 C665 0.930 . S
H650 C666 0.931 . S
C651 H639 0.929 . S
C651 C645 1.390 . S
C651 C648 1.386 . S
C652 C647 1.490 1_545 S
C652 C654 1.395 . S
C652 C655 1.403 . S
H653 C659 0.930 . S
C654 H640 0.930 . S
C654 C652 1.395 . S
C654 C657 1.403 . S
C655 C652 1.403 . S
C655 C656 1.524 1_545 S
C655 C659 1.400 . S
C656 H641 0.960 . S
C656 H642 0.960 . S
C656 H643 0.960 . S
C656 C655 1.524 1_565 S
C657 C654 1.403 . S
C657 C658 1.392 . S
C657 C661 1.495 . S
C658 C657 1.392 . S
C658 C659 1.385 . S
C658 C660 1.478 . S
C659 H653 0.930 . S
C659 C655 1.400 . S
C659 C658 1.385 . S
C660 C658 1.478 . S
C660 C662 1.381 . S
C660 C666 1.383 . S
C661 C657 1.495 . S
C661 H667 0.959 . S
C661 H668 0.961 . S
C661 H669 0.960 . S
C662 C660 1.381 . S
C662 C663 1.394 . S
C662 H670 0.930 . S
C663 C662 1.394 . S
C663 C664 1.383 . S
C663 H671 0.929 . S
C664 C663 1.383 . S
C664 C665 1.377 . S
C665 H649 0.930 . S
C665 C664 1.377 . S
C665 C666 1.379 . S
C666 H650 0.931 . S
C666 C660 1.383 . S
C666 C665 1.379 . S
H667 C661 0.959 . S
H668 C661 0.961 . S
H669 C661 0.960 . S
H670 C662 0.930 . S
H671 C663 0.929 . S
H672 C680 0.929 . S
H673 C682 0.930 . S
H674 C684 0.930 . S
H675 C687 0.929 . S
H676 C690 0.930 . S
H677 C692 0.960 . S
H678 C692 0.960 . S
H679 C692 0.960 . S
C680 H672 0.929 . S
C680 C681 1.377 . S
C680 C682 1.384 . S
C681 C680 1.377 . S
C681 C687 1.390 . S
C682 H673 0.930 . S
C682 C680 1.384 . S
C682 C683 1.372 . S
C683 C682 1.372 . S
C683 C684 1.400 . S
C683 C688 1.490 . S
C684 H674 0.930 . S
C684 C683 1.400 . S
C684 C687 1.386 . S
H685 C701 0.930 . S
H686 C702 0.931 . S
C687 H675 0.929 . S
C687 C681 1.390 . S
C687 C684 1.386 . S
C688 C683 1.490 . S
C688 C690 1.395 . S
C688 C691 1.403 . S
H689 C695 0.930 . S
C690 H676 0.930 . S
C690 C688 1.395 . S
C690 C693 1.403 . S
C691 C688 1.403 . S
C691 C692 1.524 . S
C691 C695 1.400 . S
C692 H677 0.960 . S
C692 H678 0.960 . S
C692 H679 0.960 . S
C692 C691 1.524 . S
C693 C690 1.403 . S
C693 C694 1.392 . S
C693 C697 1.495 . S
C694 C693 1.392 . S
C694 C695 1.385 . S
C694 C696 1.478 1_565 S
C695 H689 0.930 . S
C695 C691 1.400 . S
C695 C694 1.385 . S
C696 C694 1.478 1_545 S
C696 C698 1.381 1_545 S
C696 C702 1.383 . S
C697 C693 1.495 . S
C697 H703 0.959 . S
C697 H704 0.961 . S
C697 H705 0.960 . S
C698 C696 1.381 1_565 S
C698 C699 1.394 1_565 S
C698 H706 0.930 . S
C699 C698 1.394 1_545 S
C699 C700 1.383 . S
C699 H707 0.929 . S
C700 C699 1.383 . S
C700 C701 1.377 . S
C701 H685 0.930 . S
C701 C700 1.377 . S
C701 C702 1.379 . S
C702 H686 0.931 . S
C702 C696 1.383 . S
C702 C701 1.379 . S
H703 C697 0.959 . S
H704 C697 0.961 . S
H705 C697 0.960 . S
H706 C698 0.930 . S
H707 C699 0.929 . S
H708 C716 0.929 . S
H709 C718 0.930 . S
H710 C720 0.930 . S
H711 C723 0.929 . S
H712 C726 0.930 . S
H713 C728 0.960 . S
H714 C728 0.960 . S
H715 C728 0.960 . S
C716 H708 0.929 . S
C716 C717 1.377 . S
C716 C718 1.384 . S
C717 C716 1.377 . S
C717 C723 1.390 . S
C718 H709 0.930 . S
C718 C716 1.384 . S
C718 C719 1.372 . S
C719 C718 1.372 . S
C719 C720 1.400 . S
C719 C724 1.490 . S
C720 H710 0.930 . S
C720 C719 1.400 . S
C720 C723 1.386 . S
H721 C737 0.930 . S
H722 C738 0.931 . S
C723 H711 0.929 . S
C723 C717 1.390 . S
C723 C720 1.386 . S
C724 C719 1.490 . S
C724 C726 1.395 . S
C724 C727 1.403 . S
H725 C731 0.930 . S
C726 H712 0.930 . S
C726 C724 1.395 . S
C726 C729 1.403 . S
C727 C724 1.403 . S
C727 C728 1.524 . S
C727 C731 1.400 . S
C728 H713 0.960 . S
C728 H714 0.960 . S
C728 H715 0.960 . S
C728 C727 1.524 . S
C729 C726 1.403 . S
C729 C730 1.392 . S
C729 C733 1.495 . S
C730 C729 1.392 . S
C730 C731 1.385 . S
C730 C732 1.478 . S
C731 H725 0.930 . S
C731 C727 1.400 . S
C731 C730 1.385 . S
C732 C730 1.478 . S
C732 C734 1.381 . S
C732 C738 1.383 . S
C733 C729 1.495 . S
C733 H739 0.959 . S
C733 H740 0.961 . S
C733 H741 0.960 . S
C734 C732 1.381 . S
C734 C735 1.394 . S
C734 H742 0.930 . S
C735 C734 1.394 . S
C735 C736 1.383 . S
C735 H743 0.929 . S
C736 C735 1.383 . S
C736 C737 1.377 . S
C737 H721 0.930 . S
C737 C736 1.377 . S
C737 C738 1.379 . S
C738 H722 0.931 . S
C738 C732 1.383 . S
C738 C737 1.379 . S
H739 C733 0.959 . S
H740 C733 0.961 . S
H741 C733 0.960 . S
H742 C734 0.930 . S
H743 C735 0.929 . S
H744 C752 0.929 . S
H745 C754 0.930 . S
H746 C756 0.930 . S
H747 C759 0.929 . S
H748 C762 0.930 . S
H749 C764 0.960 . S
H750 C764 0.960 . S
H751 C764 0.960 . S
C752 H744 0.929 . S
C752 C753 1.377 . S
C752 C754 1.384 . S
C753 C752 1.377 . S
C753 C759 1.390 . S
C754 H745 0.930 . S
C754 C752 1.384 . S
C754 C755 1.372 . S
C755 C754 1.372 . S
C755 C756 1.400 . S
C755 C760 1.490 . S
C756 H746 0.930 . S
C756 C755 1.400 . S
C756 C759 1.386 . S
H757 C773 0.930 . S
H758 C774 0.931 . S
C759 H747 0.929 . S
C759 C753 1.390 . S
C759 C756 1.386 . S
C760 C755 1.490 . S
C760 C762 1.395 . S
C760 C763 1.403 . S
H761 C767 0.930 . S
C762 H748 0.930 . S
C762 C760 1.395 . S
C762 C765 1.403 . S
C763 C760 1.403 . S
C763 C764 1.524 . S
C763 C767 1.400 . S
C764 H749 0.960 . S
C764 H750 0.960 . S
C764 H751 0.960 . S
C764 C763 1.524 . S
C765 C762 1.403 . S
C765 C766 1.392 . S
C765 C769 1.495 . S
C766 C765 1.392 . S
C766 C767 1.385 . S
C766 C768 1.478 . S
C767 H761 0.930 . S
C767 C763 1.400 . S
C767 C766 1.385 . S
C768 C766 1.478 . S
C768 C770 1.381 . S
C768 C774 1.383 . S
C769 C765 1.495 . S
C769 H775 0.959 . S
C769 H776 0.961 . S
C769 H777 0.960 . S
C770 C768 1.381 . S
C770 C771 1.394 . S
C770 H778 0.930 . S
C771 C770 1.394 . S
C771 C772 1.383 . S
C771 H779 0.929 . S
C772 C771 1.383 . S
C772 C773 1.377 . S
C773 H757 0.930 . S
C773 C772 1.377 . S
C773 C774 1.379 . S
C774 H758 0.931 . S
C774 C768 1.383 . S
C774 C773 1.379 . S
H775 C769 0.959 . S
H776 C769 0.961 . S
H777 C769 0.960 . S
H778 C770 0.930 . S
H779 C771 0.929 . S
H780 C788 0.929 . S
H781 C790 0.930 . S
H782 C792 0.930 . S
H783 C795 0.929 . S
H784 C798 0.930 . S
H785 C800 0.960 . S
H786 C800 0.960 . S
H787 C800 0.960 . S
C788 H780 0.929 . S
C788 C789 1.377 . S
C788 C790 1.384 . S
C789 C788 1.377 . S
C789 C795 1.390 . S
C790 H781 0.930 . S
C790 C788 1.384 . S
C790 C791 1.372 . S
C791 C790 1.372 . S
C791 C792 1.400 . S
C791 C796 1.490 . S
C792 H782 0.930 . S
C792 C791 1.400 . S
C792 C795 1.386 . S
H793 C809 0.930 . S
H794 C810 0.931 . S
C795 H783 0.929 . S
C795 C789 1.390 . S
C795 C792 1.386 . S
C796 C791 1.490 . S
C796 C798 1.395 1_565 S
C796 C799 1.403 . S
H797 C803 0.930 . S
C798 H784 0.930 . S
C798 C796 1.395 1_545 S
C798 C801 1.403 . S
C799 C796 1.403 . S
C799 C800 1.524 . S
C799 C803 1.400 1_565 S
C800 H785 0.960 . S
C800 H786 0.960 . S
C800 H787 0.960 . S
C800 C799 1.524 . S
C801 C798 1.403 . S
C801 C802 1.392 . S
C801 C805 1.495 . S
C802 C801 1.392 . S
C802 C803 1.385 . S
C802 C804 1.478 . S
C803 H797 0.930 . S
C803 C799 1.400 1_545 S
C803 C802 1.385 . S
C804 C802 1.478 . S
C804 C806 1.381 . S
C804 C810 1.383 . S
C805 C801 1.495 . S
C805 H811 0.959 . S
C805 H812 0.961 . S
C805 H813 0.960 . S
C806 C804 1.381 . S
C806 C807 1.394 . S
C806 H814 0.930 . S
C807 C806 1.394 . S
C807 C808 1.383 . S
C807 H815 0.929 . S
C808 C807 1.383 . S
C808 C809 1.377 . S
C809 H793 0.930 . S
C809 C808 1.377 . S
C809 C810 1.379 . S
C810 H794 0.931 . S
C810 C804 1.383 . S
C810 C809 1.379 . S
H811 C805 0.959 . S
H812 C805 0.961 . S
H813 C805 0.960 . S
H814 C806 0.930 . S
H815 C807 0.929 . S
H816 C824 0.929 . S
H817 C826 0.930 . S
H818 C828 0.930 . S
H819 C831 0.929 . S
H820 C834 0.930 . S
H821 C836 0.960 1_554 S
H822 C836 0.960 . S
H823 C836 0.960 . S
C824 H816 0.929 . S
C824 C825 1.377 . S
C824 C826 1.384 . S
C825 C824 1.377 . S
C825 C831 1.390 . S
C826 H817 0.930 . S
C826 C824 1.384 . S
C826 C827 1.372 . S
C827 C826 1.372 . S
C827 C828 1.400 . S
C827 C832 1.490 . S
C828 H818 0.930 . S
C828 C827 1.400 . S
C828 C831 1.386 . S
H829 C845 0.930 . S
H830 C846 0.931 . S
C831 H819 0.929 . S
C831 C825 1.390 . S
C831 C828 1.386 . S
C832 C827 1.490 . S
C832 C834 1.395 . S
C832 C835 1.403 . S
H833 C839 0.930 . S
C834 H820 0.930 . S
C834 C832 1.395 . S
C834 C837 1.403 . S
C835 C832 1.403 . S
C835 C836 1.524 . S
C835 C839 1.400 1_556 S
C836 H821 0.960 1_556 S
C836 H822 0.960 . S
C836 H823 0.960 . S
C836 C835 1.524 . S
C837 C834 1.403 . S
C837 C838 1.392 1_556 S
C837 C841 1.495 . S
C838 C837 1.392 1_554 S
C838 C839 1.385 . S
C838 C840 1.478 . S
C839 H833 0.930 . S
C839 C835 1.400 1_554 S
C839 C838 1.385 . S
C840 C838 1.478 . S
C840 C842 1.381 . S
C840 C846 1.383 . S
C841 C837 1.495 . S
C841 H847 0.959 . S
C841 H848 0.961 1_556 S
C841 H849 0.960 . S
C842 C840 1.381 . S
C842 C843 1.394 . S
C842 H850 0.930 1_554 S
C843 C842 1.394 . S
C843 C844 1.383 . S
C843 H851 0.929 . S
C844 C843 1.383 . S
C844 C845 1.377 . S
C845 H829 0.930 . S
C845 C844 1.377 . S
C845 C846 1.379 . S
C846 H830 0.931 . S
C846 C840 1.383 . S
C846 C845 1.379 . S
H847 C841 0.959 . S
H848 C841 0.961 1_554 S
H849 C841 0.960 . S
H850 C842 0.930 1_556 S
H851 C843 0.929 . S
H852 C860 0.929 . S
H853 C862 0.930 . S
H854 C864 0.930 . S
H855 C867 0.929 . S
H856 C870 0.930 . S
H857 C872 0.960 . S
H858 C872 0.960 . S
H859 C872 1.003 . S
C860 H852 0.929 . S
C860 C861 1.377 . S
C860 C862 1.384 . S
C861 C860 1.377 . S
C861 C867 1.390 . S
C862 H853 0.930 . S
C862 C860 1.384 . S
C862 C863 1.372 . S
C863 C862 1.372 . S
C863 C864 1.400 . S
C863 C868 1.490 . S
C864 H854 0.930 . S
C864 C863 1.400 . S
C864 C867 1.386 . S
H865 C881 0.930 . S
H866 C882 0.931 . S
C867 H855 0.929 . S
C867 C861 1.390 . S
C867 C864 1.386 . S
C868 C863 1.490 . S
C868 C870 1.395 . S
C868 C871 1.403 1_545 S
H869 C875 0.930 . S
C870 H856 0.930 . S
C870 C868 1.395 . S
C870 C873 1.403 1_545 S
C871 C868 1.403 1_565 S
C871 C872 1.524 . S
C871 C875 1.400 . S
C872 H857 0.960 . S
C872 H858 0.960 . S
C872 H859 1.003 . S
C872 C871 1.524 . S
C873 C870 1.403 1_565 S
C873 C874 1.392 . S
C873 C877 1.495 . S
C874 C873 1.392 . S
C874 C875 1.385 . S
C874 C876 1.478 . S
C875 H869 0.930 . S
C875 C871 1.400 . S
C875 C874 1.385 . S
C876 C874 1.478 . S
C876 C878 1.381 . S
C876 C882 1.383 . S
C877 C873 1.495 . S
C877 H883 0.959 1_565 S
C877 H884 0.961 1_565 S
C877 H885 0.960 . S
C878 C876 1.381 . S
C878 C879 1.394 . S
C878 H886 0.930 . S
C879 C878 1.394 . S
C879 C880 1.383 . S
C879 H887 0.929 . S
C880 C879 1.383 . S
C880 C881 1.377 . S
C881 H865 0.930 . S
C881 C880 1.377 . S
C881 C882 1.379 . S
C882 H866 0.931 . S
C882 C876 1.383 . S
C882 C881 1.379 . S
H883 C877 0.959 1_545 S
H884 C877 0.961 1_545 S
H885 C877 0.960 . S
H886 C878 0.930 . S
H887 C879 0.929 . S
H888 C896 0.929 . S
H889 C898 0.930 . S
H890 C900 0.930 . S
H891 C903 0.929 . S
H892 C906 0.930 . S
H893 C908 0.960 . S
H894 C908 0.960 . S
H895 C908 0.960 . S
C896 H888 0.929 . S
C896 C897 1.377 . S
C896 C898 1.384 . S
C897 C896 1.377 . S
C897 C903 1.390 . S
C898 H889 0.930 . S
C898 C896 1.384 . S
C898 C899 1.372 . S
C899 C898 1.372 . S
C899 C900 1.400 . S
C899 C904 1.490 . S
C900 H890 0.930 . S
C900 C899 1.400 . S
C900 C903 1.386 . S
H901 C917 0.930 . S
H902 C918 0.931 . S
C903 H891 0.929 . S
C903 C897 1.390 . S
C903 C900 1.386 . S
C904 C899 1.490 . S
C904 C906 1.395 . S
C904 C907 1.403 . S
H905 C911 0.930 . S
C906 H892 0.930 . S
C906 C904 1.395 . S
C906 C909 1.403 . S
C907 C904 1.403 . S
C907 C908 1.524 . S
C907 C911 1.400 . S
C908 H893 0.960 . S
C908 H894 0.960 . S
C908 H895 0.960 . S
C908 C907 1.524 . S
C909 C906 1.403 . S
C909 C910 1.392 . S
C909 C913 1.495 . S
C910 C909 1.392 . S
C910 C911 1.385 . S
C910 C912 1.478 . S
C911 H905 0.930 . S
C911 C907 1.400 . S
C911 C910 1.385 . S
C912 C910 1.478 . S
C912 C914 1.381 . S
C912 C918 1.383 . S
C913 C909 1.495 . S
C913 H919 0.959 . S
C913 H920 0.961 . S
C913 H921 0.960 . S
C914 C912 1.381 . S
C914 C915 1.394 . S
C914 H922 0.930 . S
C915 C914 1.394 . S
C915 C916 1.383 . S
C915 H923 0.929 . S
C916 C915 1.383 . S
C916 C917 1.377 . S
C917 H901 0.930 . S
C917 C916 1.377 . S
C917 C918 1.379 . S
C918 H902 0.931 . S
C918 C912 1.383 . S
C918 C917 1.379 . S
H919 C913 0.959 . S
H920 C913 0.961 . S
H921 C913 0.960 . S
H922 C914 0.930 . S
H923 C915 0.929 . S
H924 C932 0.929 . S
H925 C934 0.930 . S
H926 C936 0.930 . S
H927 C939 0.929 . S
H928 C942 0.930 . S
H929 C944 0.960 . S
H930 C944 0.960 . S
H931 C944 0.960 . S
C932 H924 0.929 . S
C932 C933 1.377 . S
C932 C934 1.384 . S
C933 C932 1.377 . S
C933 C939 1.390 . S
C934 H925 0.930 . S
C934 C932 1.384 . S
C934 C935 1.372 . S
C935 C934 1.372 . S
C935 C936 1.400 . S
C935 C940 1.490 . S
C936 H926 0.930 . S
C936 C935 1.400 . S
C936 C939 1.386 . S
H937 C953 0.930 . S
H938 C954 0.931 . S
C939 H927 0.929 . S
C939 C933 1.390 . S
C939 C936 1.386 . S
C940 C935 1.490 . S
C940 C942 1.395 . S
C940 C943 1.403 . S
H941 C947 0.930 . S
C942 H928 0.930 . S
C942 C940 1.395 . S
C942 C945 1.403 . S
C943 C940 1.403 . S
C943 C944 1.524 . S
C943 C947 1.400 . S
C944 H929 0.960 . S
C944 H930 0.960 . S
C944 H931 0.960 . S
C944 C943 1.524 . S
C945 C942 1.403 . S
C945 C946 1.392 . S
C945 C949 1.495 . S
C946 C945 1.392 . S
C946 C947 1.385 . S
C946 C948 1.478 . S
C947 H941 0.930 . S
C947 C943 1.400 . S
C947 C946 1.385 . S
C948 C946 1.478 . S
C948 C950 1.381 . S
C948 C954 1.383 . S
C949 C945 1.495 . S
C949 H955 0.959 . S
C949 H956 0.961 . S
C949 H957 0.960 . S
C950 C948 1.381 . S
C950 C951 1.394 . S
C950 H958 0.930 . S
C951 C950 1.394 . S
C951 C952 1.383 . S
C951 H959 0.929 . S
C952 C951 1.383 . S
C952 C953 1.377 . S
C953 H937 0.930 . S
C953 C952 1.377 . S
C953 C954 1.379 . S
C954 H938 0.931 . S
C954 C948 1.383 . S
C954 C953 1.379 . S
H955 C949 0.959 . S
H956 C949 0.961 . S
H957 C949 0.960 . S
H958 C950 0.930 . S
H959 C951 0.929 . S
H960 C968 0.929 . S
H961 C970 0.930 . S
H962 C972 0.934 1_554 S
H963 C975 0.929 . S
H964 C978 0.930 . S
H965 C980 0.960 . S
H966 C980 0.960 . S
H967 C980 0.960 . S
C968 H960 0.929 . S
C968 C969 1.377 . S
C968 C970 1.384 . S
C969 C968 1.377 . S
C969 C975 1.390 . S
C970 H961 0.930 . S
C970 C968 1.384 . S
C970 C971 1.372 . S
C971 C970 1.372 . S
C971 C972 1.400 . S
C971 C976 1.490 . S
C972 H962 0.934 1_556 S
C972 C971 1.400 . S
C972 C975 1.386 . S
H973 C989 0.930 . S
H974 C990 0.931 . S
C975 H963 0.929 . S
C975 C969 1.390 . S
C975 C972 1.386 . S
C976 C971 1.490 . S
C976 C978 1.395 . S
C976 C979 1.403 1_556 S
H977 C983 0.930 . S
C978 H964 0.930 . S
C978 C976 1.395 . S
C978 C981 1.403 1_556 S
C979 C976 1.403 1_554 S
C979 C980 1.524 . S
C979 C983 1.400 . S
C980 H965 0.960 . S
C980 H966 0.960 . S
C980 H967 0.960 . S
C980 C979 1.524 . S
C981 C978 1.403 1_554 S
C981 C982 1.392 . S
C981 C985 1.495 1_554 S
C982 C981 1.392 . S
C982 C983 1.385 . S
C982 C984 1.478 . S
C983 H977 0.930 . S
C983 C979 1.400 . S
C983 C982 1.385 . S
C984 C982 1.478 . S
C984 C986 1.381 . S
C984 C990 1.383 . S
C985 C981 1.495 1_556 S
C985 H991 0.959 . S
C985 H992 0.961 1_556 S
C985 H993 0.960 . S
C986 C984 1.381 . S
C986 C987 1.394 . S
C986 H994 0.930 . S
C987 C986 1.394 . S
C987 C988 1.383 . S
C987 H995 0.929 . S
C988 C987 1.383 . S
C988 C989 1.377 . S
C989 H973 0.930 . S
C989 C988 1.377 . S
C989 C990 1.379 . S
C990 H974 0.931 . S
C990 C984 1.383 . S
C990 C989 1.379 . S
H991 C985 0.959 . S
H992 C985 0.961 1_554 S
H993 C985 0.960 . S
H994 C986 0.930 . S
H995 C987 0.929 . S
H996 C1004 0.929 . S
H997 C1006 0.930 . S
H998 C1008 0.930 . S
H999 C1011 0.929 . S
H1000 C1014 0.930 . S
H1001 C1016 0.960 . S
H1002 C1016 0.960 . S
H1003 C1016 0.960 . S
C1004 H996 0.929 . S
C1004 C1005 1.377 . S
C1004 C1006 1.384 . S
C1005 C1004 1.377 . S
C1005 C1011 1.390 . S
C1006 H997 0.930 . S
C1006 C1004 1.384 . S
C1006 C1007 1.372 . S
C1007 C1006 1.372 . S
C1007 C1008 1.400 . S
C1007 C1012 1.490 . S
C1008 H998 0.930 . S
C1008 C1007 1.400 . S
C1008 C1011 1.386 . S
H1009 C1025 0.930 . S
H1010 C1026 0.931 . S
C1011 H999 0.929 . S
C1011 C1005 1.390 . S
C1011 C1008 1.386 . S
C1012 C1007 1.490 . S
C1012 C1014 1.395 . S
C1012 C1015 1.403 . S
H1013 C1019 0.930 . S
C1014 H1000 0.930 . S
C1014 C1012 1.395 . S
C1014 C1017 1.403 . S
C1015 C1012 1.403 . S
C1015 C1016 1.524 . S
C1015 C1019 1.400 . S
C1016 H1001 0.960 . S
C1016 H1002 0.960 . S
C1016 H1003 0.960 . S
C1016 C1015 1.524 . S
C1017 C1014 1.403 . S
C1017 C1018 1.392 . S
C1017 C1021 1.495 . S
C1018 C1017 1.392 . S
C1018 C1019 1.385 . S
C1018 C1020 1.478 . S
C1019 H1013 0.930 . S
C1019 C1015 1.400 . S
C1019 C1018 1.385 . S
C1020 C1018 1.478 . S
C1020 C1022 1.381 . S
C1020 C1026 1.383 . S
C1021 C1017 1.495 . S
C1021 H1027 0.959 . S
C1021 H1028 0.961 . S
C1021 H1029 0.960 . S
C1022 C1020 1.381 . S
C1022 C1023 1.394 . S
C1022 H1030 0.930 . S
C1023 C1022 1.394 . S
C1023 C1024 1.383 . S
C1023 H1031 0.929 . S
C1024 C1023 1.383 . S
C1024 C1025 1.377 . S
C1025 H1009 0.930 . S
C1025 C1024 1.377 . S
C1025 C1026 1.379 . S
C1026 H1010 0.931 . S
C1026 C1020 1.383 . S
C1026 C1025 1.379 . S
H1027 C1021 0.959 . S
H1028 C1021 0.961 . S
H1029 C1021 0.960 . S
H1030 C1022 0.930 . S
H1031 C1023 0.929 . S
H1032 C1040 0.929 . S
H1033 C1042 0.930 . S
H1034 C1044 0.930 . S
H1035 C1047 0.929 . S
H1036 C1050 0.930 . S
H1037 C1052 0.960 . S
H1038 C1052 0.960 . S
H1039 C1052 0.960 . S
C1040 H1032 0.929 . S
C1040 C1041 1.377 . S
C1040 C1042 1.384 . S
C1041 C1040 1.377 . S
C1041 C1047 1.390 . S
C1042 H1033 0.930 . S
C1042 C1040 1.384 . S
C1042 C1043 1.372 . S
C1043 C1042 1.372 . S
C1043 C1044 1.400 . S
C1043 C1048 1.490 . S
C1044 H1034 0.930 . S
C1044 C1043 1.400 . S
C1044 C1047 1.386 . S
H1045 C1061 0.930 . S
H1046 C1062 0.931 . S
C1047 H1035 0.929 . S
C1047 C1041 1.390 . S
C1047 C1044 1.386 . S
C1048 C1043 1.490 . S
C1048 C1050 1.395 . S
C1048 C1051 1.403 . S
H1049 C1055 0.930 . S
C1050 H1036 0.930 . S
C1050 C1048 1.395 . S
C1050 C1053 1.403 . S
C1051 C1048 1.403 . S
C1051 C1052 1.524 . S
C1051 C1055 1.400 . S
C1052 H1037 0.960 . S
C1052 H1038 0.960 . S
C1052 H1039 0.960 . S
C1052 C1051 1.524 . S
C1053 C1050 1.403 . S
C1053 C1054 1.392 . S
C1053 C1057 1.495 . S
C1054 C1053 1.392 . S
C1054 C1055 1.385 . S
C1054 C1056 1.478 . S
C1055 H1049 0.930 . S
C1055 C1051 1.400 . S
C1055 C1054 1.385 . S
C1056 C1054 1.478 . S
C1056 C1058 1.381 . S
C1056 C1062 1.383 . S
C1057 C1053 1.495 . S
C1057 H1063 0.959 . S
C1057 H1064 0.961 . S
C1057 H1065 0.960 . S
C1058 C1056 1.381 . S
C1058 C1059 1.394 . S
C1058 H1066 0.930 . S
C1059 C1058 1.394 . S
C1059 C1060 1.383 . S
C1059 H1067 0.929 . S
C1060 C1059 1.383 . S
C1060 C1061 1.377 . S
C1061 H1045 0.930 . S
C1061 C1060 1.377 . S
C1061 C1062 1.379 . S
C1062 H1046 0.931 . S
C1062 C1056 1.383 . S
C1062 C1061 1.379 . S
H1063 C1057 0.959 . S
H1064 C1057 0.961 . S
H1065 C1057 0.960 . S
H1066 C1058 0.930 . S
H1067 C1059 0.929 . S
H1068 C1076 0.929 . S
H1069 C1078 0.930 . S
H1070 C1080 0.930 . S
H1071 C1083 0.929 . S
H1072 C1086 0.930 . S
H1073 C1088 0.960 . S
H1074 C1088 0.960 . S
H1075 C1088 0.960 . S
C1076 H1068 0.929 . S
C1076 C1077 1.377 . S
C1076 C1078 1.384 . S
C1077 C1076 1.377 . S
C1077 C1083 1.390 . S
C1078 H1069 0.930 . S
C1078 C1076 1.384 . S
C1078 C1079 1.372 . S
C1079 C1078 1.372 . S
C1079 C1080 1.400 . S
C1079 C1084 1.490 . S
C1080 H1070 0.930 . S
C1080 C1079 1.400 . S
C1080 C1083 1.386 . S
H1081 C1097 0.930 . S
H1082 C1098 0.931 . S
C1083 H1071 0.929 . S
C1083 C1077 1.390 . S
C1083 C1080 1.386 . S
C1084 C1079 1.490 . S
C1084 C1086 1.395 . S
C1084 C1087 1.403 1_455 S
H1085 C1091 0.930 . S
C1086 H1072 0.930 . S
C1086 C1084 1.395 . S
C1086 C1089 1.403 . S
C1087 C1084 1.403 1_655 S
C1087 C1088 1.524 . S
C1087 C1091 1.400 . S
C1088 H1073 0.960 . S
C1088 H1074 0.960 . S
C1088 H1075 0.960 . S
C1088 C1087 1.524 . S
C1089 C1086 1.403 . S
C1089 C1090 1.392 1_455 S
C1089 C1093 1.495 . S
C1090 C1089 1.392 1_655 S
C1090 C1091 1.385 . S
C1090 C1092 1.478 . S
C1091 H1085 0.930 . S
C1091 C1087 1.400 . S
C1091 C1090 1.385 . S
C1092 C1090 1.478 . S
C1092 C1094 1.381 . S
C1092 C1098 1.383 . S
C1093 C1089 1.495 . S
C1093 H1099 0.959 . S
C1093 H1100 0.961 . S
C1093 H1101 0.960 . S
C1094 C1092 1.381 . S
C1094 C1095 1.394 . S
C1094 H1102 0.930 . S
C1095 C1094 1.394 . S
C1095 C1096 1.383 . S
C1095 H1103 0.929 . S
C1096 C1095 1.383 . S
C1096 C1097 1.377 . S
C1097 H1081 0.930 . S
C1097 C1096 1.377 . S
C1097 C1098 1.379 . S
C1098 H1082 0.931 . S
C1098 C1092 1.383 . S
C1098 C1097 1.379 . S
H1099 C1093 0.959 . S
H1100 C1093 0.961 . S
H1101 C1093 0.960 . S
H1102 C1094 0.930 . S
H1103 C1095 0.929 . S
H1104 C1112 0.929 . S
H1105 C1114 0.930 . S
H1106 C1116 0.930 . S
H1107 C1119 0.929 . S
H1108 C1122 0.930 . S
H1109 C1124 0.960 . S
H1110 C1124 0.960 . S
H1111 C1124 0.960 . S
C1112 H1104 0.929 . S
C1112 C1113 1.377 . S
C1112 C1114 1.384 . S
C1113 C1112 1.377 . S
C1113 C1119 1.390 . S
C1114 H1105 0.930 . S
C1114 C1112 1.384 . S
C1114 C1115 1.372 . S
C1115 C1114 1.372 . S
C1115 C1116 1.400 . S
C1115 C1120 1.490 . S
C1116 H1106 0.930 . S
C1116 C1115 1.400 . S
C1116 C1119 1.386 . S
H1117 C1133 0.930 . S
H1118 C1134 0.931 . S
C1119 H1107 0.929 . S
C1119 C1113 1.390 . S
C1119 C1116 1.386 . S
C1120 C1115 1.490 . S
C1120 C1122 1.395 1_655 S
C1120 C1123 1.403 . S
H1121 C1127 0.928 1_655 S
C1122 H1108 0.930 . S
C1122 C1120 1.395 1_455 S
C1122 C1125 1.403 . S
C1123 C1120 1.403 . S
C1123 C1124 1.524 . S
C1123 C1127 1.400 1_655 S
C1124 H1109 0.960 . S
C1124 H1110 0.960 . S
C1124 H1111 0.960 . S
C1124 C1123 1.524 . S
C1125 C1122 1.403 . S
C1125 C1126 1.392 . S
C1125 C1129 1.495 . S
C1126 C1125 1.392 . S
C1126 C1127 1.385 . S
C1126 C1128 1.478 . S
C1127 H1121 0.928 1_455 S
C1127 C1123 1.400 1_455 S
C1127 C1126 1.385 . S
C1128 C1126 1.478 . S
C1128 C1130 1.381 . S
C1128 C1134 1.383 . S
C1129 C1125 1.495 . S
C1129 H1135 0.959 . S
C1129 H1136 0.961 . S
C1129 H1137 0.960 . S
C1130 C1128 1.381 . S
C1130 C1131 1.394 . S
C1130 H1138 0.930 . S
C1131 C1130 1.394 . S
C1131 C1132 1.383 . S
C1131 H1139 0.929 . S
C1132 C1131 1.383 . S
C1132 C1133 1.377 . S
C1133 H1117 0.930 . S
C1133 C1132 1.377 . S
C1133 C1134 1.379 . S
C1134 H1118 0.931 . S
C1134 C1128 1.383 . S
C1134 C1133 1.379 . S
H1135 C1129 0.959 . S
H1136 C1129 0.961 . S
H1137 C1129 0.960 . S
H1138 C1130 0.930 . S
H1139 C1131 0.929 . S
H1140 C1148 0.929 . S
H1141 C1150 0.930 . S
H1142 C1152 0.930 . S
H1143 C1155 0.929 . S
H1144 C1158 0.930 . S
H1145 C1160 0.960 . S
H1146 C1160 0.960 . S
H1147 C1160 0.960 . S
C1148 H1140 0.929 . S
C1148 C1149 1.377 . S
C1148 C1150 1.384 . S
C1149 C1148 1.377 . S
C1149 C1155 1.390 . S
C1150 H1141 0.930 . S
C1150 C1148 1.384 . S
C1150 C1151 1.372 . S
C1151 C1150 1.372 . S
C1151 C1152 1.400 . S
C1151 C1156 1.490 . S
C1152 H1142 0.930 . S
C1152 C1151 1.400 . S
C1152 C1155 1.386 . S
H1153 C1169 0.930 . S
H1154 C1170 0.931 . S
C1155 H1143 0.929 . S
C1155 C1149 1.390 . S
C1155 C1152 1.386 . S
C1156 C1151 1.490 . S
C1156 C1158 1.395 . S
C1156 C1159 1.403 . S
H1157 C1163 0.930 . S
C1158 H1144 0.930 . S
C1158 C1156 1.395 . S
C1158 C1161 1.403 . S
C1159 C1156 1.403 . S
C1159 C1160 1.524 . S
C1159 C1163 1.400 . S
C1160 H1145 0.960 . S
C1160 H1146 0.960 . S
C1160 H1147 0.960 . S
C1160 C1159 1.524 . S
C1161 C1158 1.403 . S
C1161 C1162 1.392 . S
C1161 C1165 1.495 . S
C1162 C1161 1.392 . S
C1162 C1163 1.385 . S
C1162 C1164 1.478 . S
C1163 H1157 0.930 . S
C1163 C1159 1.400 . S
C1163 C1162 1.385 . S
C1164 C1162 1.478 . S
C1164 C1166 1.381 . S
C1164 C1170 1.383 . S
C1165 C1161 1.495 . S
C1165 H1171 0.959 . S
C1165 H1172 0.961 . S
C1165 H1173 0.960 . S
C1166 C1164 1.381 . S
C1166 C1167 1.394 . S
C1166 H1174 0.930 . S
C1167 C1166 1.394 . S
C1167 C1168 1.383 . S
C1167 H1175 0.929 . S
C1168 C1167 1.383 . S
C1168 C1169 1.377 . S
C1169 H1153 0.930 . S
C1169 C1168 1.377 . S
C1169 C1170 1.379 . S
C1170 H1154 0.931 . S
C1170 C1164 1.383 . S
C1170 C1169 1.379 . S
H1171 C1165 0.959 . S
H1172 C1165 0.961 . S
H1173 C1165 0.960 . S
H1174 C1166 0.930 . S
H1175 C1167 0.929 . S
H1176 C1184 0.929 . S
H1177 C1186 0.930 . S
H1178 C1188 0.930 . S
H1179 C1191 0.929 . S
H1180 C1194 0.930 . S
H1181 C1196 0.960 . S
H1182 C1196 0.960 . S
H1183 C1196 0.960 . S
C1184 H1176 0.929 . S
C1184 C1185 1.377 . S
C1184 C1186 1.384 . S
C1185 C1184 1.377 . S
C1185 C1191 1.390 . S
C1186 H1177 0.930 . S
C1186 C1184 1.384 . S
C1186 C1187 1.372 . S
C1187 C1186 1.372 . S
C1187 C1188 1.400 . S
C1187 C1192 1.490 . S
C1188 H1178 0.930 . S
C1188 C1187 1.400 . S
C1188 C1191 1.386 . S
H1189 C1205 0.930 . S
H1190 C1206 0.931 . S
C1191 H1179 0.929 . S
C1191 C1185 1.390 . S
C1191 C1188 1.386 . S
C1192 C1187 1.490 . S
C1192 C1194 1.395 . S
C1192 C1195 1.403 . S
H1193 C1199 0.930 . S
C1194 H1180 0.930 . S
C1194 C1192 1.395 . S
C1194 C1197 1.403 . S
C1195 C1192 1.403 . S
C1195 C1196 1.524 . S
C1195 C1199 1.400 . S
C1196 H1181 0.960 . S
C1196 H1182 0.960 . S
C1196 H1183 0.960 . S
C1196 C1195 1.524 . S
C1197 C1194 1.403 . S
C1197 C1198 1.392 . S
C1197 C1201 1.495 . S
C1198 C1197 1.392 . S
C1198 C1199 1.385 . S
C1198 C1200 1.478 . S
C1199 H1193 0.930 . S
C1199 C1195 1.400 . S
C1199 C1198 1.385 . S
C1200 C1198 1.478 . S
C1200 C1202 1.381 . S
C1200 C1206 1.383 . S
C1201 C1197 1.495 . S
C1201 H1207 0.959 . S
C1201 H1208 0.961 . S
C1201 H1209 0.960 . S
C1202 C1200 1.381 . S
C1202 C1203 1.394 . S
C1202 H1210 0.930 . S
C1203 C1202 1.394 . S
C1203 C1204 1.383 . S
C1203 H1211 0.929 . S
C1204 C1203 1.383 . S
C1204 C1205 1.377 . S
C1205 H1189 0.930 . S
C1205 C1204 1.377 . S
C1205 C1206 1.379 . S
C1206 H1190 0.931 . S
C1206 C1200 1.383 . S
C1206 C1205 1.379 . S
H1207 C1201 0.959 . S
H1208 C1201 0.961 . S
H1209 C1201 0.960 . S
H1210 C1202 0.930 . S
H1211 C1203 0.929 . S
H1212 C1220 0.929 . S
H1213 C1222 0.930 . S
H1214 C1224 0.941 . S
H1215 C1227 0.929 . S
H1216 C1230 0.930 . S
H1217 C1232 0.960 . S
H1218 C1232 0.960 . S
H1219 C1232 0.960 . S
C1220 H1212 0.929 . S
C1220 C1221 1.377 . S
C1220 C1222 1.384 . S
C1221 C1220 1.377 . S
C1221 C1227 1.390 . S
C1222 H1213 0.930 . S
C1222 C1220 1.384 . S
C1222 C1223 1.353 1_545 S
C1223 C1222 1.353 1_565 S
C1223 C1224 1.400 . S
C1223 C1228 1.510 . S
C1224 H1214 0.941 . S
C1224 C1223 1.400 . S
C1224 C1227 1.375 1_565 S
H1225 C1241 0.930 . S
H1226 C1242 0.931 . S
C1227 H1215 0.929 . S
C1227 C1221 1.390 . S
C1227 C1224 1.375 1_545 S
C1228 C1223 1.510 . S
C1228 C1230 1.395 . S
C1228 C1231 1.403 . S
H1229 C1235 0.930 . S
C1230 H1216 0.930 . S
C1230 C1228 1.395 . S
C1230 C1233 1.403 . S
C1231 C1228 1.403 . S
C1231 C1232 1.524 1_565 S
C1231 C1235 1.400 . S
C1232 H1217 0.960 . S
C1232 H1218 0.960 . S
C1232 H1219 0.960 . S
C1232 C1231 1.524 1_545 S
C1233 C1230 1.403 . S
C1233 C1234 1.392 . S
C1233 C1237 1.495 . S
C1234 C1233 1.392 . S
C1234 C1235 1.385 . S
C1234 C1236 1.478 . S
C1235 H1229 0.930 . S
C1235 C1231 1.400 . S
C1235 C1234 1.385 . S
C1236 C1234 1.478 . S
C1236 C1238 1.381 . S
C1236 C1242 1.383 . S
C1237 C1233 1.495 . S
C1237 H1243 0.959 . S
C1237 H1244 0.961 . S
C1237 H1245 0.960 . S
C1238 C1236 1.381 . S
C1238 C1239 1.394 . S
C1238 H1246 0.930 . S
C1239 C1238 1.394 . S
C1239 C1240 1.383 . S
C1239 H1247 0.929 . S
C1240 C1239 1.383 . S
C1240 C1241 1.377 . S
C1241 H1225 0.930 . S
C1241 C1240 1.377 . S
C1241 C1242 1.379 . S
C1242 H1226 0.931 . S
C1242 C1236 1.383 . S
C1242 C1241 1.379 . S
H1243 C1237 0.959 . S
H1244 C1237 0.961 . S
H1245 C1237 0.960 . S
H1246 C1238 0.930 . S
H1247 C1239 0.929 . S
H1248 C1256 0.929 . S
H1249 C1258 0.930 . S
H1250 C1260 0.930 . S
H1251 C1263 0.929 . S
H1252 C1266 0.930 . S
H1253 C1268 0.960 . S
H1254 C1268 0.960 . S
H1255 C1268 0.960 . S
C1256 H1248 0.929 . S
C1256 C1257 1.377 . S
C1256 C1258 1.384 . S
C1257 C1256 1.377 . S
C1257 C1263 1.390 . S
C1258 H1249 0.930 . S
C1258 C1256 1.384 . S
C1258 C1259 1.372 . S
C1259 C1258 1.372 . S
C1259 C1260 1.400 . S
C1259 C1264 1.490 . S
C1260 H1250 0.930 . S
C1260 C1259 1.400 . S
C1260 C1263 1.386 . S
H1261 C1277 0.930 . S
H1262 C1278 0.931 . S
C1263 H1251 0.929 . S
C1263 C1257 1.390 . S
C1263 C1260 1.386 . S
C1264 C1259 1.490 . S
C1264 C1266 1.395 . S
C1264 C1267 1.403 . S
H1265 C1271 0.930 . S
C1266 H1252 0.930 . S
C1266 C1264 1.395 . S
C1266 C1269 1.403 . S
C1267 C1264 1.403 . S
C1267 C1268 1.524 . S
C1267 C1271 1.400 . S
C1268 H1253 0.960 . S
C1268 H1254 0.960 . S
C1268 H1255 0.960 . S
C1268 C1267 1.524 . S
C1269 C1266 1.403 . S
C1269 C1270 1.392 . S
C1269 C1273 1.495 . S
C1270 C1269 1.392 . S
C1270 C1271 1.385 . S
C1270 C1272 1.478 . S
C1271 H1265 0.930 . S
C1271 C1267 1.400 . S
C1271 C1270 1.385 . S
C1272 C1270 1.478 . S
C1272 C1274 1.381 . S
C1272 C1278 1.383 . S
C1273 C1269 1.495 . S
C1273 H1279 0.959 . S
C1273 H1280 0.961 . S
C1273 H1281 0.960 . S
C1274 C1272 1.381 . S
C1274 C1275 1.394 . S
C1274 H1282 0.930 . S
C1275 C1274 1.394 . S
C1275 C1276 1.383 . S
C1275 H1283 0.929 . S
C1276 C1275 1.383 . S
C1276 C1277 1.377 . S
C1277 H1261 0.930 . S
C1277 C1276 1.377 . S
C1277 C1278 1.379 . S
C1278 H1262 0.931 . S
C1278 C1272 1.383 . S
C1278 C1277 1.379 . S
H1279 C1273 0.959 . S
H1280 C1273 0.961 . S
H1281 C1273 0.960 . S
H1282 C1274 0.930 . S
H1283 C1275 0.929 . S
H1284 C1292 0.929 . S
H1285 C1294 0.930 . S
H1286 C1296 0.930 . S
H1287 C1299 0.929 . S
H1288 C1302 0.930 . S
H1289 C1304 0.960 . S
H1290 C1304 0.960 1_545 S
H1291 C1304 0.960 . S
C1292 H1284 0.929 . S
C1292 C1293 1.377 . S
C1292 C1294 1.384 . S
C1293 C1292 1.377 . S
C1293 C1299 1.390 . S
C1294 H1285 0.930 . S
C1294 C1292 1.384 . S
C1294 C1295 1.372 . S
C1295 C1294 1.372 . S
C1295 C1296 1.400 . S
C1295 C1300 1.490 . S
C1296 H1286 0.930 . S
C1296 C1295 1.400 . S
C1296 C1299 1.386 . S
H1297 C1313 0.930 . S
H1298 C1314 0.931 . S
C1299 H1287 0.929 . S
C1299 C1293 1.390 . S
C1299 C1296 1.386 . S
C1300 C1295 1.490 . S
C1300 C1302 1.395 . S
C1300 C1303 1.403 . S
H1301 C1307 0.930 1_565 S
C1302 H1288 0.930 . S
C1302 C1300 1.395 . S
C1302 C1305 1.403 . S
C1303 C1300 1.403 . S
C1303 C1304 1.524 1_545 S
C1303 C1307 1.400 . S
C1304 H1289 0.960 . S
C1304 H1290 0.960 1_565 S
C1304 H1291 0.960 . S
C1304 C1303 1.524 1_565 S
C1305 C1302 1.403 . S
C1305 C1306 1.392 . S
C1305 C1309 1.495 . S
C1306 C1305 1.392 . S
C1306 C1307 1.385 . S
C1306 C1308 1.528 . S
C1307 H1301 0.930 1_545 S
C1307 C1303 1.400 . S
C1307 C1306 1.385 . S
C1308 C1306 1.528 . S
C1308 C1310 1.328 1_554 S
C1308 C1314 1.387 1_545 S
C1309 C1305 1.495 . S
C1309 H1315 0.959 . S
C1309 H1316 0.961 . S
C1309 H1317 0.960 1_554 S
C1310 C1308 1.328 1_556 S
C1310 C1311 1.394 1_545 S
C1310 H1318 0.930 . S
C1311 C1310 1.394 1_565 S
C1311 C1312 1.383 . S
C1311 H1319 0.940 . S
C1312 C1311 1.383 . S
C1312 C1313 1.377 . S
C1313 H1297 0.930 . S
C1313 C1312 1.377 . S
C1313 C1314 1.379 1_556 S
C1314 H1298 0.931 . S
C1314 C1308 1.387 1_565 S
C1314 C1313 1.379 1_554 S
H1315 C1309 0.959 . S
H1316 C1309 0.961 . S
H1317 C1309 0.960 1_556 S
H1318 C1310 0.930 . S
H1319 C1311 0.940 . S
H1320 C1328 0.929 . S
H1321 C1330 0.930 . S
H1322 C1332 0.930 . S
H1323 C1335 0.929 . S
H1324 C1338 0.930 . S
H1325 C1340 0.960 . S
H1326 C1340 0.960 . S
H1327 C1340 0.960 . S
C1328 H1320 0.929 . S
C1328 C1329 1.377 . S
C1328 C1330 1.384 . S
C1329 C1328 1.377 . S
C1329 C1335 1.390 . S
C1330 H1321 0.930 . S
C1330 C1328 1.384 . S
C1330 C1331 1.372 . S
C1331 C1330 1.372 . S
C1331 C1332 1.400 . S
C1331 C1336 1.490 . S
C1332 H1322 0.930 . S
C1332 C1331 1.400 . S
C1332 C1335 1.386 . S
H1333 C1349 0.930 . S
H1334 C1350 0.931 . S
C1335 H1323 0.929 . S
C1335 C1329 1.390 . S
C1335 C1332 1.386 . S
C1336 C1331 1.490 . S
C1336 C1338 1.395 . S
C1336 C1339 1.403 . S
H1337 C1343 0.930 . S
C1338 H1324 0.930 . S
C1338 C1336 1.395 . S
C1338 C1341 1.403 . S
C1339 C1336 1.403 . S
C1339 C1340 1.524 . S
C1339 C1343 1.400 . S
C1340 H1325 0.960 . S
C1340 H1326 0.960 . S
C1340 H1327 0.960 . S
C1340 C1339 1.524 . S
C1341 C1338 1.403 . S
C1341 C1342 1.392 . S
C1341 C1345 1.495 . S
C1342 C1341 1.392 . S
C1342 C1343 1.385 . S
C1342 C1344 1.478 . S
C1343 H1337 0.930 . S
C1343 C1339 1.400 . S
C1343 C1342 1.385 . S
C1344 C1342 1.478 . S
C1344 C1346 1.381 . S
C1344 C1350 1.383 . S
C1345 C1341 1.495 . S
C1345 H1351 0.959 . S
C1345 H1352 0.961 . S
C1345 H1353 0.960 . S
C1346 C1344 1.381 . S
C1346 C1347 1.394 . S
C1346 H1354 0.930 . S
C1347 C1346 1.394 . S
C1347 C1348 1.383 . S
C1347 H1355 0.929 . S
C1348 C1347 1.383 . S
C1348 C1349 1.377 . S
C1349 H1333 0.930 . S
C1349 C1348 1.377 . S
C1349 C1350 1.379 . S
C1350 H1334 0.931 . S
C1350 C1344 1.383 . S
C1350 C1349 1.379 . S
H1351 C1345 0.959 . S
H1352 C1345 0.961 . S
H1353 C1345 0.960 . S
H1354 C1346 0.930 . S
H1355 C1347 0.929 . S
H1356 C1364 0.929 . S
H1357 C1366 0.930 . S
H1358 C1368 0.930 1_556 S
H1359 C1371 0.929 . S
H1360 C1374 0.930 . S
H1361 C1376 0.960 . S
H1362 C1376 0.960 . S
H1363 C1376 0.960 . S
C1364 H1356 0.929 . S
C1364 C1365 1.377 . S
C1364 C1366 1.384 . S
C1365 C1364 1.377 . S
C1365 C1371 1.390 . S
C1366 H1357 0.930 . S
C1366 C1364 1.384 . S
C1366 C1367 1.372 1_554 S
C1367 C1366 1.372 1_556 S
C1367 C1368 1.400 1_556 S
C1367 C1372 1.490 . S
C1368 H1358 0.930 1_554 S
C1368 C1367 1.400 1_554 S
C1368 C1371 1.386 . S
H1369 C1385 0.930 . S
H1370 C1386 0.931 . S
C1371 H1359 0.929 . S
C1371 C1365 1.390 . S
C1371 C1368 1.386 . S
C1372 C1367 1.490 . S
C1372 C1374 1.395 . S
C1372 C1375 1.403 . S
H1373 C1379 0.930 . S
C1374 H1360 0.930 . S
C1374 C1372 1.395 . S
C1374 C1377 1.403 . S
C1375 C1372 1.403 . S
C1375 C1376 1.524 . S
C1375 C1379 1.400 . S
C1376 H1361 0.960 . S
C1376 H1362 0.960 . S
C1376 H1363 0.960 . S
C1376 C1375 1.524 . S
C1377 C1374 1.403 . S
C1377 C1378 1.392 . S
C1377 C1381 1.495 . S
C1378 C1377 1.392 . S
C1378 C1379 1.385 . S
C1378 C1380 1.478 . S
C1379 H1373 0.930 . S
C1379 C1375 1.400 . S
C1379 C1378 1.385 . S
C1380 C1378 1.478 . S
C1380 C1382 1.381 . S
C1380 C1386 1.383 . S
C1381 C1377 1.495 . S
C1381 H1387 0.959 . S
C1381 H1388 0.961 . S
C1381 H1389 0.960 . S
C1382 C1380 1.381 . S
C1382 C1383 1.394 . S
C1382 H1390 0.930 . S
C1383 C1382 1.394 . S
C1383 C1384 1.383 . S
C1383 H1391 0.929 . S
C1384 C1383 1.383 . S
C1384 C1385 1.377 . S
C1385 H1369 0.930 . S
C1385 C1384 1.377 . S
C1385 C1386 1.379 . S
C1386 H1370 0.931 . S
C1386 C1380 1.383 . S
C1386 C1385 1.379 . S
H1387 C1381 0.959 . S
H1388 C1381 0.961 . S
H1389 C1381 0.960 . S
H1390 C1382 0.930 . S
H1391 C1383 0.929 . S
H1392 C1400 0.929 . S
H1393 C1402 0.930 . S
H1394 C1404 0.930 . S
H1395 C1407 0.929 . S
H1396 C1410 0.930 . S
H1397 C1412 0.960 . S
H1398 C1412 0.960 . S
H1399 C1412 0.960 . S
C1400 H1392 0.929 . S
C1400 C1401 1.377 . S
C1400 C1402 1.384 . S
C1401 C1400 1.377 . S
C1401 C1407 1.390 . S
C1402 H1393 0.930 . S
C1402 C1400 1.384 . S
C1402 C1403 1.372 . S
C1403 C1402 1.372 . S
C1403 C1404 1.400 . S
C1403 C1408 1.490 . S
C1404 H1394 0.930 . S
C1404 C1403 1.400 . S
C1404 C1407 1.386 . S
H1405 C1421 0.930 . S
H1406 C1422 0.931 . S
C1407 H1395 0.929 . S
C1407 C1401 1.390 . S
C1407 C1404 1.386 . S
C1408 C1403 1.490 . S
C1408 C1410 1.395 . S
C1408 C1411 1.403 . S
H1409 C1415 0.930 . S
C1410 H1396 0.930 . S
C1410 C1408 1.395 . S
C1410 C1413 1.403 . S
C1411 C1408 1.403 . S
C1411 C1412 1.524 . S
C1411 C1415 1.400 . S
C1412 H1397 0.960 . S
C1412 H1398 0.960 . S
C1412 H1399 0.960 . S
C1412 C1411 1.524 . S
C1413 C1410 1.403 . S
C1413 C1414 1.392 . S
C1413 C1417 1.495 . S
C1414 C1413 1.392 . S
C1414 C1415 1.385 . S
C1414 C1416 1.478 . S
C1415 H1409 0.930 . S
C1415 C1411 1.400 . S
C1415 C1414 1.385 . S
C1416 C1414 1.478 . S
C1416 C1418 1.381 . S
C1416 C1422 1.383 . S
C1417 C1413 1.495 . S
C1417 H1423 0.959 . S
C1417 H1424 0.961 . S
C1417 H1425 0.960 . S
C1418 C1416 1.381 . S
C1418 C1419 1.394 . S
C1418 H1426 0.930 . S
C1419 C1418 1.394 . S
C1419 C1420 1.383 . S
C1419 H1427 0.929 . S
C1420 C1419 1.383 . S
C1420 C1421 1.377 . S
C1421 H1405 0.930 . S
C1421 C1420 1.377 . S
C1421 C1422 1.379 . S
C1422 H1406 0.931 . S
C1422 C1416 1.383 . S
C1422 C1421 1.379 . S
H1423 C1417 0.959 . S
H1424 C1417 0.961 . S
H1425 C1417 0.960 . S
H1426 C1418 0.930 . S
H1427 C1419 0.929 . S
H1428 C1436 0.929 . S
H1429 C1438 0.930 . S
H1430 C1440 0.930 . S
H1431 C1443 0.929 . S
H1432 C1446 0.930 . S
H1433 C1448 0.960 . S
H1434 C1448 0.960 . S
H1435 C1448 0.960 . S
C1436 H1428 0.929 . S
C1436 C1437 1.377 . S
C1436 C1438 1.384 . S
C1437 C1436 1.377 . S
C1437 C1443 1.390 . S
C1438 H1429 0.930 . S
C1438 C1436 1.384 . S
C1438 C1439 1.372 . S
C1439 C1438 1.372 . S
C1439 C1440 1.400 . S
C1439 C1444 1.490 . S
C1440 H1430 0.930 . S
C1440 C1439 1.400 . S
C1440 C1443 1.386 . S
H1441 C1457 0.930 . S
H1442 C1458 0.931 . S
C1443 H1431 0.929 . S
C1443 C1437 1.390 . S
C1443 C1440 1.386 . S
C1444 C1439 1.490 . S
C1444 C1446 1.395 . S
C1444 C1447 1.403 . S
H1445 C1451 0.930 . S
C1446 H1432 0.930 . S
C1446 C1444 1.395 . S
C1446 C1449 1.403 . S
C1447 C1444 1.403 . S
C1447 C1448 1.524 . S
C1447 C1451 1.400 . S
C1448 H1433 0.960 . S
C1448 H1434 0.960 . S
C1448 H1435 0.960 . S
C1448 C1447 1.524 . S
C1449 C1446 1.403 . S
C1449 C1450 1.392 . S
C1449 C1453 1.495 . S
C1450 C1449 1.392 . S
C1450 C1451 1.385 . S
C1450 C1452 1.478 . S
C1451 H1445 0.930 . S
C1451 C1447 1.400 . S
C1451 C1450 1.385 . S
C1452 C1450 1.478 . S
C1452 C1454 1.381 . S
C1452 C1458 1.383 . S
C1453 C1449 1.495 . S
C1453 H1459 0.959 . S
C1453 H1460 0.961 . S
C1453 H1461 0.960 . S
C1454 C1452 1.381 . S
C1454 C1455 1.394 . S
C1454 H1462 0.930 . S
C1455 C1454 1.394 . S
C1455 C1456 1.383 . S
C1455 H1463 0.929 . S
C1456 C1455 1.383 . S
C1456 C1457 1.377 . S
C1457 H1441 0.930 . S
C1457 C1456 1.377 . S
C1457 C1458 1.379 . S
C1458 H1442 0.931 . S
C1458 C1452 1.383 . S
C1458 C1457 1.379 . S
H1459 C1453 0.959 . S
H1460 C1453 0.961 . S
H1461 C1453 0.960 . S
H1462 C1454 0.930 . S
H1463 C1455 0.929 . S
H1464 C1472 0.929 . S
H1465 C1474 0.930 . S
H1466 C1476 0.930 . S
H1467 C1479 0.929 . S
H1468 C1482 0.930 . S
H1469 C1484 0.960 . S
H1470 C1484 0.960 . S
H1471 C1484 0.960 . S
C1472 H1464 0.929 . S
C1472 C1473 1.377 . S
C1472 C1474 1.384 . S
C1473 C1472 1.377 . S
C1473 C1479 1.390 . S
C1474 H1465 0.930 . S
C1474 C1472 1.384 . S
C1474 C1475 1.372 . S
C1475 C1474 1.372 . S
C1475 C1476 1.400 . S
C1475 C1480 1.490 . S
C1476 H1466 0.930 . S
C1476 C1475 1.400 . S
C1476 C1479 1.386 . S
H1477 C1493 0.930 . S
H1478 C1494 0.931 . S
C1479 H1467 0.929 . S
C1479 C1473 1.390 . S
C1479 C1476 1.386 . S
C1480 C1475 1.490 . S
C1480 C1482 1.395 . S
C1480 C1483 1.403 . S
H1481 C1487 0.930 . S
C1482 H1468 0.930 . S
C1482 C1480 1.395 . S
C1482 C1485 1.403 . S
C1483 C1480 1.403 . S
C1483 C1484 1.524 . S
C1483 C1487 1.400 . S
C1484 H1469 0.960 . S
C1484 H1470 0.960 . S
C1484 H1471 0.960 . S
C1484 C1483 1.524 . S
C1485 C1482 1.403 . S
C1485 C1486 1.392 . S
C1485 C1489 1.495 . S
C1486 C1485 1.392 . S
C1486 C1487 1.385 . S
C1486 C1488 1.478 . S
C1487 H1481 0.930 . S
C1487 C1483 1.400 . S
C1487 C1486 1.385 . S
C1488 C1486 1.478 . S
C1488 C1490 1.381 . S
C1488 C1494 1.383 . S
C1489 C1485 1.495 . S
C1489 H1495 0.959 . S
C1489 H1496 0.961 . S
C1489 H1497 0.960 . S
C1490 C1488 1.381 . S
C1490 C1491 1.394 . S
C1490 H1498 0.930 . S
C1491 C1490 1.394 . S
C1491 C1492 1.383 . S
C1491 H1499 0.929 . S
C1492 C1491 1.383 . S
C1492 C1493 1.377 . S
C1493 H1477 0.930 . S
C1493 C1492 1.377 . S
C1493 C1494 1.379 . S
C1494 H1478 0.931 . S
C1494 C1488 1.383 . S
C1494 C1493 1.379 . S
H1495 C1489 0.959 . S
H1496 C1489 0.961 . S
H1497 C1489 0.960 . S
H1498 C1490 0.930 . S
H1499 C1491 0.929 . S
H1500 C1508 0.929 . S
H1501 C1510 0.930 . S
H1502 C1512 0.955 . S
H1503 C1515 0.929 . S
H1504 C1518 0.930 . S
H1505 C1520 0.960 . S
H1506 C1520 0.960 . S
H1507 C1520 0.960 . S
C1508 H1500 0.929 . S
C1508 C1509 1.377 . S
C1508 C1510 1.384 1_565 S
C1509 C1508 1.377 . S
C1509 C1515 1.390 . S
C1510 H1501 0.930 . S
C1510 C1508 1.384 1_545 S
C1510 C1511 1.353 1_655 S
C1511 C1510 1.353 1_455 S
C1511 C1512 1.400 1_545 S
C1511 C1516 1.509 . S
C1512 H1502 0.955 . S
C1512 C1511 1.400 1_565 S
C1512 C1515 1.363 1_455 S
H1513 C1529 0.930 . S
H1514 C1530 0.931 . S
C1515 H1503 0.929 . S
C1515 C1509 1.390 . S
C1515 C1512 1.363 1_655 S
C1516 C1511 1.509 . S
C1516 C1518 1.395 . S
C1516 C1519 1.403 . S
H1517 C1523 0.930 . S
C1518 H1504 0.930 . S
C1518 C1516 1.395 . S
C1518 C1521 1.403 . S
C1519 C1516 1.403 . S
C1519 C1520 1.524 1_455 S
C1519 C1523 1.400 . S
C1520 H1505 0.960 . S
C1520 H1506 0.960 . S
C1520 H1507 0.960 . S
C1520 C1519 1.524 1_655 S
C1521 C1518 1.403 . S
C1521 C1522 1.392 . S
C1521 C1525 1.495 . S
C1522 C1521 1.392 . S
C1522 C1523 1.385 . S
C1522 C1524 1.478 . S
C1523 H1517 0.930 . S
C1523 C1519 1.400 . S
C1523 C1522 1.385 . S
C1524 C1522 1.478 . S
C1524 C1526 1.381 . S
C1524 C1530 1.383 . S
C1525 C1521 1.495 . S
C1525 H1531 0.959 . S
C1525 H1532 0.961 . S
C1525 H1533 0.960 . S
C1526 C1524 1.381 . S
C1526 C1527 1.394 . S
C1526 H1534 0.930 . S
C1527 C1526 1.394 . S
C1527 C1528 1.383 . S
C1527 H1535 0.929 . S
C1528 C1527 1.383 . S
C1528 C1529 1.377 . S
C1529 H1513 0.930 . S
C1529 C1528 1.377 . S
C1529 C1530 1.379 . S
C1530 H1514 0.931 . S
C1530 C1524 1.383 . S
C1530 C1529 1.379 . S
H1531 C1525 0.959 . S
H1532 C1525 0.961 . S
H1533 C1525 0.960 . S
H1534 C1526 0.930 . S
H1535 C1527 0.929 . S
H1536 C1544 0.929 . S
H1537 C1546 0.930 . S
H1538 C1548 0.930 . S
H1539 C1551 0.929 . S
H1540 C1554 0.930 . S
H1541 C1556 0.960 . S
H1542 C1556 0.960 . S
H1543 C1556 0.960 . S
C1544 H1536 0.929 . S
C1544 C1545 1.377 . S
C1544 C1546 1.384 . S
C1545 C1544 1.377 . S
C1545 C1551 1.390 . S
C1546 H1537 0.930 . S
C1546 C1544 1.384 . S
C1546 C1547 1.372 . S
C1547 C1546 1.372 . S
C1547 C1548 1.400 . S
C1547 C1552 1.490 . S
C1548 H1538 0.930 . S
C1548 C1547 1.400 . S
C1548 C1551 1.386 . S
H1549 C1565 0.930 . S
H1550 C1566 0.931 . S
C1551 H1539 0.929 . S
C1551 C1545 1.390 . S
C1551 C1548 1.386 . S
C1552 C1547 1.490 . S
C1552 C1554 1.395 . S
C1552 C1555 1.403 . S
H1553 C1559 0.930 . S
C1554 H1540 0.930 . S
C1554 C1552 1.395 . S
C1554 C1557 1.403 . S
C1555 C1552 1.403 . S
C1555 C1556 1.524 . S
C1555 C1559 1.400 . S
C1556 H1541 0.960 . S
C1556 H1542 0.960 . S
C1556 H1543 0.960 . S
C1556 C1555 1.524 . S
C1557 C1554 1.403 . S
C1557 C1558 1.392 . S
C1557 C1561 1.495 . S
C1558 C1557 1.392 . S
C1558 C1559 1.385 . S
C1558 C1560 1.478 . S
C1559 H1553 0.930 . S
C1559 C1555 1.400 . S
C1559 C1558 1.385 . S
C1560 C1558 1.478 . S
C1560 C1562 1.381 . S
C1560 C1566 1.383 . S
C1561 C1557 1.495 . S
C1561 H1567 0.959 . S
C1561 H1568 0.961 . S
C1561 H1569 0.960 . S
C1562 C1560 1.381 . S
C1562 C1563 1.394 . S
C1562 H1570 0.930 . S
C1563 C1562 1.394 . S
C1563 C1564 1.383 . S
C1563 H1571 0.929 . S
C1564 C1563 1.383 . S
C1564 C1565 1.377 . S
C1565 H1549 0.930 . S
C1565 C1564 1.377 . S
C1565 C1566 1.379 . S
C1566 H1550 0.931 . S
C1566 C1560 1.383 . S
C1566 C1565 1.379 . S
H1567 C1561 0.959 . S
H1568 C1561 0.961 . S
H1569 C1561 0.960 . S
H1570 C1562 0.930 . S
H1571 C1563 0.929 . S
H1572 C1580 0.929 . S
H1573 C1582 0.892 1_565 S
H1574 C1584 0.930 . S
H1575 C1587 0.929 . S
H1576 C1590 0.930 . S
H1577 C1592 0.960 . S
H1578 C1592 0.960 . S
H1579 C1592 0.960 . S
C1580 H1572 0.929 . S
C1580 C1581 1.377 . S
C1580 C1582 1.436 . S
C1581 C1580 1.377 . S
C1581 C1587 1.390 . S
C1582 H1573 0.892 1_545 S
C1582 C1580 1.436 . S
C1582 C1583 1.360 1_545 S
C1583 C1582 1.360 1_565 S
C1583 C1584 1.400 1_565 S
C1583 C1588 1.490 . S
C1584 H1574 0.930 . S
C1584 C1583 1.400 1_545 S
C1584 C1587 1.386 . S
H1585 C1601 0.930 . S
H1586 C1602 0.931 . S
C1587 H1575 0.929 . S
C1587 C1581 1.390 . S
C1587 C1584 1.386 . S
C1588 C1583 1.490 . S
C1588 C1590 1.395 . S
C1588 C1591 1.403 . S
H1589 C1595 0.930 . S
C1590 H1576 0.930 . S
C1590 C1588 1.395 . S
C1590 C1593 1.403 . S
C1591 C1588 1.403 . S
C1591 C1592 1.524 . S
C1591 C1595 1.400 . S
C1592 H1577 0.960 . S
C1592 H1578 0.960 . S
C1592 H1579 0.960 . S
C1592 C1591 1.524 . S
C1593 C1590 1.403 . S
C1593 C1594 1.392 . S
C1593 C1597 1.495 . S
C1594 C1593 1.392 . S
C1594 C1595 1.385 . S
C1594 C1596 1.478 . S
C1595 H1589 0.930 . S
C1595 C1591 1.400 . S
C1595 C1594 1.385 . S
C1596 C1594 1.478 . S
C1596 C1598 1.381 . S
C1596 C1602 1.383 . S
C1597 C1593 1.495 . S
C1597 H1603 0.959 . S
C1597 H1604 0.961 . S
C1597 H1605 0.960 . S
C1598 C1596 1.381 . S
C1598 C1599 1.394 . S
C1598 H1606 0.930 . S
C1599 C1598 1.394 . S
C1599 C1600 1.383 . S
C1599 H1607 0.929 . S
C1600 C1599 1.383 . S
C1600 C1601 1.377 . S
C1601 H1585 0.930 . S
C1601 C1600 1.377 . S
C1601 C1602 1.379 . S
C1602 H1586 0.931 . S
C1602 C1596 1.383 . S
C1602 C1601 1.379 . S
H1603 C1597 0.959 . S
H1604 C1597 0.961 . S
H1605 C1597 0.960 . S
H1606 C1598 0.930 . S
H1607 C1599 0.929 . S
H1608 C1616 0.929 . S
H1609 C1618 0.930 . S
H1610 C1620 0.930 . S
H1611 C1623 0.929 . S
H1612 C1626 0.930 . S
H1613 C1628 0.960 . S
H1614 C1628 0.960 . S
H1615 C1628 0.960 . S
C1616 H1608 0.929 . S
C1616 C1617 1.377 . S
C1616 C1618 1.384 . S
C1617 C1616 1.377 . S
C1617 C1623 1.390 . S
C1618 H1609 0.930 . S
C1618 C1616 1.384 . S
C1618 C1619 1.372 . S
C1619 C1618 1.372 . S
C1619 C1620 1.400 . S
C1619 C1624 1.490 . S
C1620 H1610 0.930 . S
C1620 C1619 1.400 . S
C1620 C1623 1.386 . S
H1621 C1637 0.930 . S
H1622 C1638 0.931 . S
C1623 H1611 0.929 . S
C1623 C1617 1.390 . S
C1623 C1620 1.386 . S
C1624 C1619 1.490 . S
C1624 C1626 1.395 . S
C1624 C1627 1.403 . S
H1625 C1631 0.930 . S
C1626 H1612 0.930 . S
C1626 C1624 1.395 . S
C1626 C1629 1.403 . S
C1627 C1624 1.403 . S
C1627 C1628 1.524 . S
C1627 C1631 1.400 . S
C1628 H1613 0.960 . S
C1628 H1614 0.960 . S
C1628 H1615 0.960 . S
C1628 C1627 1.524 . S
C1629 C1626 1.403 . S
C1629 C1630 1.392 . S
C1629 C1633 1.495 . S
C1630 C1629 1.392 . S
C1630 C1631 1.385 . S
C1630 C1632 1.478 . S
C1631 H1625 0.930 . S
C1631 C1627 1.400 . S
C1631 C1630 1.385 . S
C1632 C1630 1.478 . S
C1632 C1634 1.381 . S
C1632 C1638 1.383 . S
C1633 C1629 1.495 . S
C1633 H1639 0.959 . S
C1633 H1640 0.961 . S
C1633 H1641 0.960 . S
C1634 C1632 1.381 . S
C1634 C1635 1.394 . S
C1634 H1642 0.930 . S
C1635 C1634 1.394 . S
C1635 C1636 1.383 . S
C1635 H1643 0.929 . S
C1636 C1635 1.383 . S
C1636 C1637 1.377 . S
C1637 H1621 0.930 . S
C1637 C1636 1.377 . S
C1637 C1638 1.379 . S
C1638 H1622 0.931 . S
C1638 C1632 1.383 . S
C1638 C1637 1.379 . S
H1639 C1633 0.959 . S
H1640 C1633 0.961 . S
H1641 C1633 0.960 . S
H1642 C1634 0.930 . S
H1643 C1635 0.929 . S
H1644 C1652 0.929 . S
H1645 C1654 0.930 . S
H1646 C1656 0.930 . S
H1647 C1659 0.917 1_655 S
H1648 C1662 0.934 1_455 S
H1649 C1664 0.960 . S
H1650 C1664 0.960 . S
H1651 C1664 0.960 . S
C1652 H1644 0.929 . S
C1652 C1653 1.377 . S
C1652 C1654 1.384 . S
C1653 C1652 1.377 . S
C1653 C1659 1.416 . S
C1654 H1645 0.930 . S
C1654 C1652 1.384 . S
C1654 C1655 1.350 1_455 S
C1655 C1654 1.350 1_655 S
C1655 C1656 1.410 . S
C1655 C1660 1.502 . S
C1656 H1646 0.930 . S
C1656 C1655 1.410 . S
C1656 C1659 1.372 1_655 S
H1657 C1673 0.930 . S
H1658 C1674 0.931 . S
C1659 H1647 0.917 1_455 S
C1659 C1653 1.416 . S
C1659 C1656 1.372 1_455 S
C1660 C1655 1.502 . S
C1660 C1662 1.392 . S
C1660 C1663 1.403 . S
H1661 C1667 0.930 . S
C1662 H1648 0.934 1_655 S
C1662 C1660 1.392 . S
C1662 C1665 1.402 . S
C1663 C1660 1.403 . S
C1663 C1664 1.524 . S
C1663 C1667 1.400 . S
C1664 H1649 0.960 . S
C1664 H1650 0.960 . S
C1664 H1651 0.960 . S
C1664 C1663 1.524 . S
C1665 C1662 1.402 . S
C1665 C1666 1.392 . S
C1665 C1669 1.495 1_655 S
C1666 C1665 1.392 . S
C1666 C1667 1.385 . S
C1666 C1668 1.478 . S
C1667 H1661 0.930 . S
C1667 C1663 1.400 . S
C1667 C1666 1.385 . S
C1668 C1666 1.478 . S
C1668 C1670 1.381 . S
C1668 C1674 1.383 . S
C1669 C1665 1.495 1_455 S
C1669 H1675 0.959 . S
C1669 H1676 0.961 1_455 S
C1669 H1677 0.960 . S
C1670 C1668 1.381 . S
C1670 C1671 1.394 . S
C1670 H1678 0.930 . S
C1671 C1670 1.394 . S
C1671 C1672 1.383 . S
C1671 H1679 0.929 . S
C1672 C1671 1.383 . S
C1672 C1673 1.377 . S
C1673 H1657 0.930 . S
C1673 C1672 1.377 . S
C1673 C1674 1.379 . S
C1674 H1658 0.931 . S
C1674 C1668 1.383 . S
C1674 C1673 1.379 . S
H1675 C1669 0.959 . S
H1676 C1669 0.961 1_655 S
H1677 C1669 0.960 . S
H1678 C1670 0.930 . S
H1679 C1671 0.929 . S
H1680 C1688 0.929 . S
H1681 C1690 0.930 . S
H1682 C1692 0.930 . S
H1683 C1695 0.929 . S
H1684 C1698 0.930 . S
H1685 C1700 0.960 . S
H1686 C1700 0.960 . S
H1687 C1700 0.960 . S
C1688 H1680 0.929 . S
C1688 C1689 1.377 . S
C1688 C1690 1.384 . S
C1689 C1688 1.377 . S
C1689 C1695 1.390 . S
C1690 H1681 0.930 . S
C1690 C1688 1.384 . S
C1690 C1691 1.372 . S
C1691 C1690 1.372 . S
C1691 C1692 1.400 . S
C1691 C1696 1.490 . S
C1692 H1682 0.930 . S
C1692 C1691 1.400 . S
C1692 C1695 1.386 . S
H1693 C1709 0.930 . S
H1694 C1710 0.931 . S
C1695 H1683 0.929 . S
C1695 C1689 1.390 . S
C1695 C1692 1.386 . S
C1696 C1691 1.490 . S
C1696 C1698 1.395 . S
C1696 C1699 1.403 . S
H1697 C1703 0.930 . S
C1698 H1684 0.930 . S
C1698 C1696 1.395 . S
C1698 C1701 1.403 . S
C1699 C1696 1.403 . S
C1699 C1700 1.524 . S
C1699 C1703 1.400 . S
C1700 H1685 0.960 . S
C1700 H1686 0.960 . S
C1700 H1687 0.960 . S
C1700 C1699 1.524 . S
C1701 C1698 1.403 . S
C1701 C1702 1.392 . S
C1701 C1705 1.495 . S
C1702 C1701 1.392 . S
C1702 C1703 1.385 . S
C1702 C1704 1.478 . S
C1703 H1697 0.930 . S
C1703 C1699 1.400 . S
C1703 C1702 1.385 . S
C1704 C1702 1.478 . S
C1704 C1706 1.381 . S
C1704 C1710 1.383 . S
C1705 C1701 1.495 . S
C1705 H1711 0.959 . S
C1705 H1712 0.961 . S
C1705 H1713 0.960 . S
C1706 C1704 1.381 . S
C1706 C1707 1.394 . S
C1706 H1714 0.930 . S
C1707 C1706 1.394 . S
C1707 C1708 1.383 . S
C1707 H1715 0.929 . S
C1708 C1707 1.383 . S
C1708 C1709 1.377 . S
C1709 H1693 0.930 . S
C1709 C1708 1.377 . S
C1709 C1710 1.379 . S
C1710 H1694 0.931 . S
C1710 C1704 1.383 . S
C1710 C1709 1.379 . S
H1711 C1705 0.959 . S
H1712 C1705 0.961 . S
H1713 C1705 0.960 . S
H1714 C1706 0.930 . S
H1715 C1707 0.929 . S
H1716 C1724 0.929 . S
H1717 C1726 0.930 . S
H1718 C1728 0.930 . S
H1719 C1731 0.929 . S
H1720 C1734 0.930 . S
H1721 C1736 0.960 . S
H1722 C1736 0.960 . S
H1723 C1736 0.960 . S
C1724 H1716 0.929 . S
C1724 C1725 1.377 . S
C1724 C1726 1.384 . S
C1725 C1724 1.377 . S
C1725 C1731 1.390 . S
C1726 H1717 0.930 . S
C1726 C1724 1.384 . S
C1726 C1727 1.372 . S
C1727 C1726 1.372 . S
C1727 C1728 1.400 . S
C1727 C1732 1.490 . S
C1728 H1718 0.930 . S
C1728 C1727 1.400 . S
C1728 C1731 1.386 . S
H1729 C1745 0.930 . S
H1730 C1746 0.931 . S
C1731 H1719 0.929 . S
C1731 C1725 1.390 . S
C1731 C1728 1.386 . S
C1732 C1727 1.490 . S
C1732 C1734 1.395 . S
C1732 C1735 1.403 . S
H1733 C1739 0.930 . S
C1734 H1720 0.930 . S
C1734 C1732 1.395 . S
C1734 C1737 1.403 . S
C1735 C1732 1.403 . S
C1735 C1736 1.524 . S
C1735 C1739 1.400 . S
C1736 H1721 0.960 . S
C1736 H1722 0.960 . S
C1736 H1723 0.960 . S
C1736 C1735 1.524 . S
C1737 C1734 1.403 . S
C1737 C1738 1.392 . S
C1737 C1741 1.495 . S
C1738 C1737 1.392 . S
C1738 C1739 1.385 . S
C1738 C1740 1.478 . S
C1739 H1733 0.930 . S
C1739 C1735 1.400 . S
C1739 C1738 1.385 . S
C1740 C1738 1.478 . S
C1740 C1742 1.381 . S
C1740 C1746 1.383 . S
C1741 C1737 1.495 . S
C1741 H1747 0.959 . S
C1741 H1748 0.961 . S
C1741 H1749 0.960 . S
C1742 C1740 1.381 . S
C1742 C1743 1.394 . S
C1742 H1750 0.930 . S
C1743 C1742 1.394 . S
C1743 C1744 1.383 . S
C1743 H1751 0.929 . S
C1744 C1743 1.383 . S
C1744 C1745 1.377 . S
C1745 H1729 0.930 . S
C1745 C1744 1.377 . S
C1745 C1746 1.379 . S
C1746 H1730 0.931 . S
C1746 C1740 1.383 . S
C1746 C1745 1.379 . S
H1747 C1741 0.959 . S
H1748 C1741 0.961 . S
H1749 C1741 0.960 . S
H1750 C1742 0.930 . S
H1751 C1743 0.929 . S
H1752 C1760 0.929 . S
H1753 C1762 0.930 . S
H1754 C1764 0.930 . S
H1755 C1767 0.929 . S
H1756 C1770 0.930 . S
H1757 C1772 0.960 . S
H1758 C1772 0.960 . S
H1759 C1772 0.960 . S
C1760 H1752 0.929 . S
C1760 C1761 1.377 . S
C1760 C1762 1.384 . S
C1761 C1760 1.377 . S
C1761 C1767 1.390 . S
C1762 H1753 0.930 . S
C1762 C1760 1.384 . S
C1762 C1763 1.372 . S
C1763 C1762 1.372 . S
C1763 C1764 1.400 . S
C1763 C1768 1.490 . S
C1764 H1754 0.930 . S
C1764 C1763 1.400 . S
C1764 C1767 1.386 . S
H1765 C1781 0.930 . S
H1766 C1782 0.931 . S
C1767 H1755 0.929 . S
C1767 C1761 1.390 . S
C1767 C1764 1.386 . S
C1768 C1763 1.490 . S
C1768 C1770 1.395 . S
C1768 C1771 1.403 . S
H1769 C1775 0.930 . S
C1770 H1756 0.930 . S
C1770 C1768 1.395 . S
C1770 C1773 1.403 . S
C1771 C1768 1.403 . S
C1771 C1772 1.524 . S
C1771 C1775 1.400 . S
C1772 H1757 0.960 . S
C1772 H1758 0.960 . S
C1772 H1759 0.960 . S
C1772 C1771 1.524 . S
C1773 C1770 1.403 . S
C1773 C1774 1.392 . S
C1773 C1777 1.495 . S
C1774 C1773 1.392 . S
C1774 C1775 1.385 . S
C1774 C1776 1.478 . S
C1775 H1769 0.930 . S
C1775 C1771 1.400 . S
C1775 C1774 1.385 . S
C1776 C1774 1.478 . S
C1776 C1778 1.381 . S
C1776 C1782 1.383 . S
C1777 C1773 1.495 . S
C1777 H1783 0.959 . S
C1777 H1784 0.961 . S
C1777 H1785 0.960 . S
C1778 C1776 1.381 . S
C1778 C1779 1.394 . S
C1778 H1786 0.930 . S
C1779 C1778 1.394 . S
C1779 C1780 1.383 . S
C1779 H1787 0.929 . S
C1780 C1779 1.383 . S
C1780 C1781 1.377 . S
C1781 H1765 0.930 . S
C1781 C1780 1.377 . S
C1781 C1782 1.379 . S
C1782 H1766 0.931 . S
C1782 C1776 1.383 . S
C1782 C1781 1.379 . S
H1783 C1777 0.959 . S
H1784 C1777 0.961 . S
H1785 C1777 0.960 . S
H1786 C1778 0.930 . S
H1787 C1779 0.929 . S
H1788 C1796 0.929 . S
H1789 C1798 0.930 . S
H1790 C1800 0.930 . S
H1791 C1803 0.929 . S
H1792 C1806 0.930 . S
H1793 C1808 0.960 . S
H1794 C1808 0.960 . S
H1795 C1808 0.960 . S
C1796 H1788 0.929 . S
C1796 C1797 1.377 . S
C1796 C1798 1.384 . S
C1797 C1796 1.377 . S
C1797 C1803 1.390 . S
C1798 H1789 0.930 . S
C1798 C1796 1.384 . S
C1798 C1799 1.372 . S
C1799 C1798 1.372 . S
C1799 C1800 1.400 . S
C1799 C1804 1.490 . S
C1800 H1790 0.930 . S
C1800 C1799 1.400 . S
C1800 C1803 1.386 . S
H1801 C1817 0.930 . S
H1802 C1818 0.931 . S
C1803 H1791 0.929 . S
C1803 C1797 1.390 . S
C1803 C1800 1.386 . S
C1804 C1799 1.490 . S
C1804 C1806 1.395 . S
C1804 C1807 1.403 . S
H1805 C1811 0.930 . S
C1806 H1792 0.930 . S
C1806 C1804 1.395 . S
C1806 C1809 1.403 . S
C1807 C1804 1.403 . S
C1807 C1808 1.524 . S
C1807 C1811 1.400 . S
C1808 H1793 0.960 . S
C1808 H1794 0.960 . S
C1808 H1795 0.960 . S
C1808 C1807 1.524 . S
C1809 C1806 1.403 . S
C1809 C1810 1.392 . S
C1809 C1813 1.495 . S
C1810 C1809 1.392 . S
C1810 C1811 1.385 . S
C1810 C1812 1.478 . S
C1811 H1805 0.930 . S
C1811 C1807 1.400 . S
C1811 C1810 1.385 . S
C1812 C1810 1.478 . S
C1812 C1814 1.381 . S
C1812 C1818 1.383 . S
C1813 C1809 1.495 . S
C1813 H1819 0.959 . S
C1813 H1820 0.961 . S
C1813 H1821 0.960 . S
C1814 C1812 1.381 . S
C1814 C1815 1.394 . S
C1814 H1822 0.930 . S
C1815 C1814 1.394 . S
C1815 C1816 1.383 . S
C1815 H1823 0.929 . S
C1816 C1815 1.383 . S
C1816 C1817 1.377 . S
C1817 H1801 0.930 . S
C1817 C1816 1.377 . S
C1817 C1818 1.379 . S
C1818 H1802 0.931 . S
C1818 C1812 1.383 . S
C1818 C1817 1.379 . S
H1819 C1813 0.959 . S
H1820 C1813 0.961 . S
H1821 C1813 0.960 . S
H1822 C1814 0.930 . S
H1823 C1815 0.929 . S
H1824 C1832 0.950 . S
H1825 C1834 0.930 . S
H1826 C1836 0.897 1_455 S
H1827 C1839 0.929 . S
H1828 C1842 0.930 . S
H1829 C1844 0.960 . S
H1830 C1844 0.960 . S
H1831 C1844 0.960 . S
C1832 H1824 0.950 . S
C1832 C1833 1.337 1_554 S
C1832 C1834 1.405 . S
C1833 C1832 1.337 1_556 S
C1833 C1839 1.390 . S
C1834 H1825 0.930 . S
C1834 C1832 1.405 . S
C1834 C1835 1.372 1_655 S
C1835 C1834 1.372 1_455 S
C1835 C1836 1.392 1_454 S
C1835 C1840 1.490 . S
C1836 H1826 0.897 1_655 S
C1836 C1835 1.392 1_656 S
C1836 C1839 1.427 . S
H1837 C1853 0.930 . S
H1838 C1854 0.931 . S
C1839 H1827 0.929 . S
C1839 C1833 1.390 . S
C1839 C1836 1.427 . S
C1840 C1835 1.490 . S
C1840 C1842 1.395 . S
C1840 C1843 1.403 . S
H1841 C1847 0.930 . S
C1842 H1828 0.930 . S
C1842 C1840 1.395 . S
C1842 C1845 1.403 . S
C1843 C1840 1.403 . S
C1843 C1844 1.524 1_554 S
C1843 C1847 1.400 . S
C1844 H1829 0.960 . S
C1844 H1830 0.960 . S
C1844 H1831 0.960 . S
C1844 C1843 1.524 1_556 S
C1845 C1842 1.403 . S
C1845 C1846 1.392 . S
C1845 C1849 1.495 . S
C1846 C1845 1.392 . S
C1846 C1847 1.385 . S
C1846 C1848 1.478 . S
C1847 H1841 0.930 . S
C1847 C1843 1.400 . S
C1847 C1846 1.385 . S
C1848 C1846 1.478 . S
C1848 C1850 1.381 . S
C1848 C1854 1.383 . S
C1849 C1845 1.495 . S
C1849 H1855 0.959 . S
C1849 H1856 0.961 . S
C1849 H1857 0.960 . S
C1850 C1848 1.381 . S
C1850 C1851 1.394 . S
C1850 H1858 0.930 . S
C1851 C1850 1.394 . S
C1851 C1852 1.383 . S
C1851 H1859 0.929 . S
C1852 C1851 1.383 . S
C1852 C1853 1.377 . S
C1853 H1837 0.930 . S
C1853 C1852 1.377 . S
C1853 C1854 1.379 . S
C1854 H1838 0.931 . S
C1854 C1848 1.383 . S
C1854 C1853 1.379 . S
H1855 C1849 0.959 . S
H1856 C1849 0.961 . S
H1857 C1849 0.960 . S
H1858 C1850 0.930 . S
H1859 C1851 0.929 . S
H1860 C1868 0.929 . S
H1861 C1870 0.930 . S
H1862 C1872 0.930 . S
H1863 C1875 0.929 . S
H1864 C1878 0.930 . S
H1865 C1880 0.960 . S
H1866 C1880 0.960 . S
H1867 C1880 0.960 . S
C1868 H1860 0.929 . S
C1868 C1869 1.377 . S
C1868 C1870 1.384 . S
C1869 C1868 1.377 . S
C1869 C1875 1.390 . S
C1870 H1861 0.930 . S
C1870 C1868 1.384 . S
C1870 C1871 1.372 . S
C1871 C1870 1.372 . S
C1871 C1872 1.400 . S
C1871 C1876 1.490 . S
C1872 H1862 0.930 . S
C1872 C1871 1.400 . S
C1872 C1875 1.386 . S
H1873 C1889 0.930 . S
H1874 C1890 0.931 . S
C1875 H1863 0.929 . S
C1875 C1869 1.390 . S
C1875 C1872 1.386 . S
C1876 C1871 1.490 . S
C1876 C1878 1.395 . S
C1876 C1879 1.403 . S
H1877 C1883 0.930 . S
C1878 H1864 0.930 . S
C1878 C1876 1.395 . S
C1878 C1881 1.403 . S
C1879 C1876 1.403 . S
C1879 C1880 1.524 . S
C1879 C1883 1.400 . S
C1880 H1865 0.960 . S
C1880 H1866 0.960 . S
C1880 H1867 0.960 . S
C1880 C1879 1.524 . S
C1881 C1878 1.403 . S
C1881 C1882 1.392 . S
C1881 C1885 1.495 . S
C1882 C1881 1.392 . S
C1882 C1883 1.385 . S
C1882 C1884 1.478 . S
C1883 H1877 0.930 . S
C1883 C1879 1.400 . S
C1883 C1882 1.385 . S
C1884 C1882 1.478 . S
C1884 C1886 1.381 . S
C1884 C1890 1.383 . S
C1885 C1881 1.495 . S
C1885 H1891 0.959 . S
C1885 H1892 0.961 . S
C1885 H1893 0.960 . S
C1886 C1884 1.381 . S
C1886 C1887 1.394 . S
C1886 H1894 0.930 . S
C1887 C1886 1.394 . S
C1887 C1888 1.383 . S
C1887 H1895 0.929 . S
C1888 C1887 1.383 . S
C1888 C1889 1.377 . S
C1889 H1873 0.930 . S
C1889 C1888 1.377 . S
C1889 C1890 1.379 . S
C1890 H1874 0.931 . S
C1890 C1884 1.383 . S
C1890 C1889 1.379 . S
H1891 C1885 0.959 . S
H1892 C1885 0.961 . S
H1893 C1885 0.960 . S
H1894 C1886 0.930 . S
H1895 C1887 0.929 . S
H1896 C1904 0.929 . S
H1897 C1906 0.930 . S
H1898 C1908 0.930 . S
H1899 C1911 0.929 . S
H1900 C1914 0.930 . S
H1901 C1916 0.960 . S
H1902 C1916 0.960 . S
H1903 C1916 0.960 . S
C1904 H1896 0.929 . S
C1904 C1905 1.377 . S
C1904 C1906 1.384 . S
C1905 C1904 1.377 . S
C1905 C1911 1.390 . S
C1906 H1897 0.930 . S
C1906 C1904 1.384 . S
C1906 C1907 1.372 . S
C1907 C1906 1.372 . S
C1907 C1908 1.400 . S
C1907 C1912 1.490 . S
C1908 H1898 0.930 . S
C1908 C1907 1.400 . S
C1908 C1911 1.386 . S
H1909 C1925 0.930 . S
H1910 C1926 0.931 . S
C1911 H1899 0.929 . S
C1911 C1905 1.390 . S
C1911 C1908 1.386 . S
C1912 C1907 1.490 . S
C1912 C1914 1.395 . S
C1912 C1915 1.403 . S
H1913 C1919 0.930 . S
C1914 H1900 0.930 . S
C1914 C1912 1.395 . S
C1914 C1917 1.403 . S
C1915 C1912 1.403 . S
C1915 C1916 1.524 . S
C1915 C1919 1.400 . S
C1916 H1901 0.960 . S
C1916 H1902 0.960 . S
C1916 H1903 0.960 . S
C1916 C1915 1.524 . S
C1917 C1914 1.403 . S
C1917 C1918 1.392 . S
C1917 C1921 1.495 . S
C1918 C1917 1.392 . S
C1918 C1919 1.385 . S
C1918 C1920 1.478 . S
C1919 H1913 0.930 . S
C1919 C1915 1.400 . S
C1919 C1918 1.385 . S
C1920 C1918 1.478 . S
C1920 C1922 1.381 . S
C1920 C1926 1.383 . S
C1921 C1917 1.495 . S
C1921 H1927 0.959 . S
C1921 H1928 0.961 . S
C1921 H1929 0.960 . S
C1922 C1920 1.381 . S
C1922 C1923 1.394 . S
C1922 H1930 0.930 . S
C1923 C1922 1.394 . S
C1923 C1924 1.383 . S
C1923 H1931 0.929 . S
C1924 C1923 1.383 . S
C1924 C1925 1.377 . S
C1925 H1909 0.930 . S
C1925 C1924 1.377 . S
C1925 C1926 1.379 . S
C1926 H1910 0.931 . S
C1926 C1920 1.383 . S
C1926 C1925 1.379 . S
H1927 C1921 0.959 . S
H1928 C1921 0.961 . S
H1929 C1921 0.960 . S
H1930 C1922 0.930 . S
H1931 C1923 0.929 . S
H1932 C1940 0.929 . S
H1933 C1942 0.930 . S
H1934 C1944 0.930 . S
H1935 C1947 0.929 . S
H1936 C1950 0.930 . S
H1937 C1952 0.960 . S
H1938 C1952 0.960 . S
H1939 C1952 0.960 . S
C1940 H1932 0.929 . S
C1940 C1941 1.377 . S
C1940 C1942 1.384 . S
C1941 C1940 1.377 . S
C1941 C1947 1.390 . S
C1942 H1933 0.930 . S
C1942 C1940 1.384 . S
C1942 C1943 1.372 . S
C1943 C1942 1.372 . S
C1943 C1944 1.400 . S
C1943 C1948 1.490 . S
C1944 H1934 0.930 . S
C1944 C1943 1.400 . S
C1944 C1947 1.386 . S
H1945 C1961 0.930 . S
H1946 C1962 0.931 . S
C1947 H1935 0.929 . S
C1947 C1941 1.390 . S
C1947 C1944 1.386 . S
C1948 C1943 1.490 . S
C1948 C1950 1.395 . S
C1948 C1951 1.403 . S
H1949 C1955 0.930 . S
C1950 H1936 0.930 . S
C1950 C1948 1.395 . S
C1950 C1953 1.403 . S
C1951 C1948 1.403 . S
C1951 C1952 1.524 . S
C1951 C1955 1.400 . S
C1952 H1937 0.960 . S
C1952 H1938 0.960 . S
C1952 H1939 0.960 . S
C1952 C1951 1.524 . S
C1953 C1950 1.403 . S
C1953 C1954 1.392 . S
C1953 C1957 1.495 . S
C1954 C1953 1.392 . S
C1954 C1955 1.385 . S
C1954 C1956 1.478 . S
C1955 H1949 0.930 . S
C1955 C1951 1.400 . S
C1955 C1954 1.385 . S
C1956 C1954 1.478 . S
C1956 C1958 1.381 . S
C1956 C1962 1.383 . S
C1957 C1953 1.495 . S
C1957 H1963 0.959 . S
C1957 H1964 0.961 . S
C1957 H1965 0.960 . S
C1958 C1956 1.381 . S
C1958 C1959 1.394 . S
C1958 H1966 0.930 . S
C1959 C1958 1.394 . S
C1959 C1960 1.383 . S
C1959 H1967 0.929 . S
C1960 C1959 1.383 . S
C1960 C1961 1.377 . S
C1961 H1945 0.930 . S
C1961 C1960 1.377 . S
C1961 C1962 1.379 . S
C1962 H1946 0.931 . S
C1962 C1956 1.383 . S
C1962 C1961 1.379 . S
H1963 C1957 0.959 . S
H1964 C1957 0.961 . S
H1965 C1957 0.960 . S
H1966 C1958 0.930 . S
H1967 C1959 0.929 . S
H1968 C1976 0.926 1_556 S
H1969 C1978 0.930 . S
H1970 C1980 0.930 . S
H1971 C1983 0.929 . S
H1972 C1986 0.930 . S
H1973 C1988 0.960 . S
H1974 C1988 0.960 . S
H1975 C1988 0.960 . S
C1976 H1968 0.926 1_554 S
C1976 C1977 1.384 . S
C1976 C1978 1.380 1_554 S
C1977 C1976 1.384 . S
C1977 C1983 1.390 . S
C1978 H1969 0.930 . S
C1978 C1976 1.380 1_556 S
C1978 C1979 1.372 . S
C1979 C1978 1.372 . S
C1979 C1980 1.400 1_556 S
C1979 C1984 1.490 . S
C1980 H1970 0.930 . S
C1980 C1979 1.400 1_554 S
C1980 C1983 1.386 . S
H1981 C1997 0.930 . S
H1982 C1998 0.931 . S
C1983 H1971 0.929 . S
C1983 C1977 1.390 . S
C1983 C1980 1.386 . S
C1984 C1979 1.490 . S
C1984 C1986 1.395 . S
C1984 C1987 1.403 . S
H1985 C1991 0.930 . S
C1986 H1972 0.930 . S
C1986 C1984 1.395 . S
C1986 C1989 1.403 . S
C1987 C1984 1.403 . S
C1987 C1988 1.524 . S
C1987 C1991 1.400 . S
C1988 H1973 0.960 . S
C1988 H1974 0.960 . S
C1988 H1975 0.960 . S
C1988 C1987 1.524 . S
C1989 C1986 1.403 . S
C1989 C1990 1.392 . S
C1989 C1993 1.495 . S
C1990 C1989 1.392 . S
C1990 C1991 1.385 . S
C1990 C1992 1.478 . S
C1991 H1985 0.930 . S
C1991 C1987 1.400 . S
C1991 C1990 1.385 . S
C1992 C1990 1.478 . S
C1992 C1994 1.381 . S
C1992 C1998 1.383 . S
C1993 C1989 1.495 . S
C1993 H1999 0.959 . S
C1993 H2000 0.961 . S
C1993 H2001 0.960 . S
C1994 C1992 1.381 . S
C1994 C1995 1.394 . S
C1994 H2002 0.930 . S
C1995 C1994 1.394 . S
C1995 C1996 1.383 . S
C1995 H2003 0.929 . S
C1996 C1995 1.383 . S
C1996 C1997 1.377 . S
C1997 H1981 0.930 . S
C1997 C1996 1.377 . S
C1997 C1998 1.379 . S
C1998 H1982 0.931 . S
C1998 C1992 1.383 . S
C1998 C1997 1.379 . S
H1999 C1993 0.959 . S
H2000 C1993 0.961 . S
H2001 C1993 0.960 . S
H2002 C1994 0.930 . S
H2003 C1995 0.929 . S
H2004 C2012 0.929 . S
H2005 C2014 0.930 . S
H2006 C2016 0.930 . S
H2007 C2019 0.929 . S
H2008 C2022 0.930 . S
H2009 C2024 0.960 . S
H2010 C2024 0.960 . S
H2011 C2024 0.960 . S
C2012 H2004 0.929 . S
C2012 C2013 1.377 . S
C2012 C2014 1.384 . S
C2013 C2012 1.377 . S
C2013 C2019 1.390 . S
C2014 H2005 0.930 . S
C2014 C2012 1.384 . S
C2014 C2015 1.372 . S
C2015 C2014 1.372 . S
C2015 C2016 1.400 . S
C2015 C2020 1.490 . S
C2016 H2006 0.930 . S
C2016 C2015 1.400 . S
C2016 C2019 1.386 . S
H2017 C2033 0.930 . S
H2018 C2034 0.931 . S
C2019 H2007 0.929 . S
C2019 C2013 1.390 . S
C2019 C2016 1.386 . S
C2020 C2015 1.490 . S
C2020 C2022 1.395 . S
C2020 C2023 1.403 . S
H2021 C2027 0.930 . S
C2022 H2008 0.930 . S
C2022 C2020 1.395 . S
C2022 C2025 1.403 . S
C2023 C2020 1.403 . S
C2023 C2024 1.524 . S
C2023 C2027 1.400 . S
C2024 H2009 0.960 . S
C2024 H2010 0.960 . S
C2024 H2011 0.960 . S
C2024 C2023 1.524 . S
C2025 C2022 1.403 . S
C2025 C2026 1.392 . S
C2025 C2029 1.495 . S
C2026 C2025 1.392 . S
C2026 C2027 1.385 . S
C2026 C2028 1.478 . S
C2027 H2021 0.930 . S
C2027 C2023 1.400 . S
C2027 C2026 1.385 . S
C2028 C2026 1.478 . S
C2028 C2030 1.381 . S
C2028 C2034 1.383 1_655 S
C2029 C2025 1.495 . S
C2029 H2035 0.959 . S
C2029 H2036 0.961 . S
C2029 H2037 0.960 . S
C2030 C2028 1.381 . S
C2030 C2031 1.394 1_655 S
C2030 H2038 0.930 . S
C2031 C2030 1.394 1_455 S
C2031 C2032 1.383 . S
C2031 H2039 0.929 . S
C2032 C2031 1.383 . S
C2032 C2033 1.377 . S
C2033 H2017 0.930 . S
C2033 C2032 1.377 . S
C2033 C2034 1.379 . S
C2034 H2018 0.931 . S
C2034 C2028 1.383 1_455 S
C2034 C2033 1.379 . S
H2035 C2029 0.959 . S
H2036 C2029 0.961 . S
H2037 C2029 0.960 . S
H2038 C2030 0.930 . S
H2039 C2031 0.929 . S
C321 C121 1.023 . S
C340 C4 1.010 . S
C357 C23 1.015 . S
C376 C140 0.989 . S
C393 C36 1.014 . S
C412 C147 0.991 . S
C429 C49 1.023 . S
C448 C108 1.039 . S
C465 C56 1.019 . S
C484 C199 1.043 . S
C501 C166 1.024 . S
C520 C69 1.022 . S
C537 C88 1.014 . S
C556 C179 1.026 . S
C573 C186 1.021 . S
C592 C101 1.002 . S
C609 C212 1.013 . S
C628 C238 1.022 . S
C645 C290 1.023 . S
C664 C225 1.014 . S
C681 C251 1.023 . S
C700 C309 1.040 . S
C717 C283 1.015 . S
C736 C270 1.032 . S
C753 C264 1.838 . S
C772 C10 1.851 . S
C789 C17 1.838 . S
C808 C231 1.831 . S
C825 C30 1.832 . S
C844 C244 1.819 . S
C861 C43 1.832 . S
C880 C257 1.823 . S
C897 C62 1.833 . S
C916 C303 1.831 . S
C933 C277 1.840 . S
C952 C75 1.852 . S
C969 C296 1.839 . S
C988 C82 1.852 . S
C1005 C218 1.835 . S
C1024 C95 1.816 . S
C1041 C205 1.835 . S
C1060 C114 1.842 . S
C1077 C127 1.837 . S
C1096 C160 1.848 . S
C1113 C173 1.837 . S
C1132 C134 1.824 . S
C1149 C192 1.832 . S
C1168 C153 1.824 . S
C1185 C5 1.136 . S
C1204 C211 1.171 . S
C1221 C304 1.157 . S
C1240 C16 1.171 . S
C1257 C278 1.166 . S
C1276 C29 1.112 . S
C1293 C42 1.135 . S
C1312 C289 1.174 . S
C1329 C57 1.146 . S
C1348 C224 1.140 . S
C1365 C237 1.158 . S
C1384 C70 1.162 . S
C1401 C250 1.163 . S
C1420 C81 1.131 . S
C1437 C265 1.160 . S
C1456 C94 1.153 . S
C1473 C3 1.159 . S
C1492 C109 1.155 . S
C1509 C18 1.157 . S
C1528 C122 1.171 . S
C1545 C31 1.159 . S
C1564 C133 1.155 . S
C1581 C44 1.157 . S
C1600 C148 1.173 . S
C1617 C55 1.158 . S
C1636 C159 1.166 . S
C1653 C68 1.165 . S
C1672 C172 1.118 . S
C1689 C187 1.147 . S
C1708 C83 1.136 . S
C1725 C96 1.157 . S
C1744 C200 1.169 . S
C1761 C107 1.167 . S
C1780 C213 1.103 . S
C1797 C226 1.133 . S
C1816 C161 1.183 . S
C1833 C174 1.160 . S
C1852 C239 1.151 . S
C1869 C252 1.147 . S
C1888 C185 1.135 . S
C1905 C263 1.143 . S
C1924 C198 1.149 . S
C1941 C276 1.138 . S
C1960 C135 1.164 . S
C1977 C146 1.165 . S
C1996 C291 1.118 . S
C2013 C302 1.140 . S
C2032 C120 1.159 . S
