# Generated by pormake.
# Topology wfa, (4)-cn, num edge types: 1
# Building blocks:
#     Node 0, Type 0, BuildingBlock: CEKHIL_clean_sbu_0, # of connection points: 4
#     Node 1, Type 0, BuildingBlock: CEKHIL_clean_sbu_0, # of connection points: 4
#     Node 2, Type 0, BuildingBlock: CEKHIL_clean_sbu_0, # of connection points: 4
#     Node 3, Type 0, BuildingBlock: CEKHIL_clean_sbu_0, # of connection points: 4
#     Node 4, Type 0, BuildingBlock: CEKHIL_clean_sbu_0, # of connection points: 4
#     Node 5, Type 0, BuildingBlock: CEKHIL_clean_sbu_0, # of connection points: 4
#     Node 6, Type 0, BuildingBlock: CEKHIL_clean_sbu_0, # of connection points: 4
#     Node 7, Type 0, BuildingBlock: CEKHIL_clean_sbu_0, # of connection points: 4
#     Node 8, Type 0, BuildingBlock: CEKHIL_clean_sbu_0, # of connection points: 4
#     Node 9, Type 0, BuildingBlock: CEKHIL_clean_sbu_0, # of connection points: 4
#     Node 10, Type 0, BuildingBlock: CEKHIL_clean_sbu_0, # of connection points: 4
#     Node 11, Type 0, BuildingBlock: CEKHIL_clean_sbu_0, # of connection points: 4
#     Node 12, Type 0, BuildingBlock: CEKHIL_clean_sbu_0, # of connection points: 4
#     Node 13, Type 0, BuildingBlock: CEKHIL_clean_sbu_0, # of connection points: 4
#     Node 14, Type 0, BuildingBlock: CEKHIL_clean_sbu_0, # of connection points: 4
#     Node 15, Type 0, BuildingBlock: CEKHIL_clean_sbu_0, # of connection points: 4
#     Edge 16, Type (0, 0), BuildingBlock: AJUNOK_clean_linker_0, # of connection points: 2
#     Edge 17, Type (0, 0), BuildingBlock: AJUNOK_clean_linker_0, # of connection points: 2
#     Edge 18, Type (0, 0), BuildingBlock: AJUNOK_clean_linker_0, # of connection points: 2
#     Edge 19, Type (0, 0), BuildingBlock: AJUNOK_clean_linker_0, # of connection points: 2
#     Edge 20, Type (0, 0), BuildingBlock: AJUNOK_clean_linker_0, # of connection points: 2
#     Edge 21, Type (0, 0), BuildingBlock: AJUNOK_clean_linker_0, # of connection points: 2
#     Edge 22, Type (0, 0), BuildingBlock: AJUNOK_clean_linker_0, # of connection points: 2
#     Edge 23, Type (0, 0), BuildingBlock: AJUNOK_clean_linker_0, # of connection points: 2
#     Edge 24, Type (0, 0), BuildingBlock: AJUNOK_clean_linker_0, # of connection points: 2
#     Edge 25, Type (0, 0), BuildingBlock: AJUNOK_clean_linker_0, # of connection points: 2
#     Edge 26, Type (0, 0), BuildingBlock: AJUNOK_clean_linker_0, # of connection points: 2
#     Edge 27, Type (0, 0), BuildingBlock: AJUNOK_clean_linker_0, # of connection points: 2
#     Edge 28, Type (0, 0), BuildingBlock: AJUNOK_clean_linker_0, # of connection points: 2
#     Edge 29, Type (0, 0), BuildingBlock: AJUNOK_clean_linker_0, # of connection points: 2
#     Edge 30, Type (0, 0), BuildingBlock: AJUNOK_clean_linker_0, # of connection points: 2
#     Edge 31, Type (0, 0), BuildingBlock: AJUNOK_clean_linker_0, # of connection points: 2
#     Edge 32, Type (0, 0), BuildingBlock: AJUNOK_clean_linker_0, # of connection points: 2
#     Edge 33, Type (0, 0), BuildingBlock: AJUNOK_clean_linker_0, # of connection points: 2
#     Edge 34, Type (0, 0), BuildingBlock: AJUNOK_clean_linker_0, # of connection points: 2
#     Edge 35, Type (0, 0), BuildingBlock: AJUNOK_clean_linker_0, # of connection points: 2
#     Edge 36, Type (0, 0), BuildingBlock: AJUNOK_clean_linker_0, # of connection points: 2
#     Edge 37, Type (0, 0), BuildingBlock: AJUNOK_clean_linker_0, # of connection points: 2
#     Edge 38, Type (0, 0), BuildingBlock: AJUNOK_clean_linker_0, # of connection points: 2
#     Edge 39, Type (0, 0), BuildingBlock: AJUNOK_clean_linker_0, # of connection points: 2
#     Edge 40, Type (0, 0), BuildingBlock: AJUNOK_clean_linker_0, # of connection points: 2
#     Edge 41, Type (0, 0), BuildingBlock: AJUNOK_clean_linker_0, # of connection points: 2
#     Edge 42, Type (0, 0), BuildingBlock: AJUNOK_clean_linker_0, # of connection points: 2
#     Edge 43, Type (0, 0), BuildingBlock: AJUNOK_clean_linker_0, # of connection points: 2
#     Edge 44, Type (0, 0), BuildingBlock: AJUNOK_clean_linker_0, # of connection points: 2
#     Edge 45, Type (0, 0), BuildingBlock: AJUNOK_clean_linker_0, # of connection points: 2
#     Edge 46, Type (0, 0), BuildingBlock: AJUNOK_clean_linker_0, # of connection points: 2
#     Edge 47, Type (0, 0), BuildingBlock: AJUNOK_clean_linker_0, # of connection points: 2
# Relax obj value: 0.219
# Max RMSD: 0.278
# Mean RMSD: 0.272
data_MOF--net-wfa--node1-CEKHIL_clean_sbu_0--edge1-AJUNOK_clean_linker_0
_symmetry_space_group_name_H-M    P1
_symmetry_Int_Tables_number       1
_symmetry_cell_setting            triclinic
loop_
_symmetry_equiv_pos_as_xyz
'x, y, z'
_cell_length_a     33.387138
_cell_length_b     33.42457
_cell_length_c     17.269471
_cell_angle_alpha  89.661757
_cell_angle_beta   89.735516
_cell_angle_gamma 89.485539
loop_
_atom_site_label
_atom_site_type_symbol
_atom_site_fract_x
_atom_site_fract_y
_atom_site_fract_z
_atom_type_partial_charge
Co0 Co 0.65797 0.99172 0.03934 0.0
O1 O 0.67642 0.95392 0.96201 0.0
O2 O 0.70435 0.01245 0.98393 0.0
C3 C 0.5909 0.99053 0.01136 0.0
O4 O 0.64594 0.03782 0.11217 0.0
Co5 Co 0.60289 0.95597 0.16906 0.0
O6 O 0.60686 0.01166 0.20674 0.0
C7 C 0.68999 0.95294 0.19105 0.0
C8 C 0.70364 0.97968 0.94361 0.0
C9 C 0.62677 0.04031 0.1768 0.0
O10 O 0.69495 0.96917 0.1235 0.0
O11 O 0.65581 0.94214 0.21708 0.0
O12 O 0.6156 0.01133 0.96963 0.0
O13 O 0.60845 0.9664 0.05959 0.0
Co14 Co 0.51702 0.66031 0.02621 0.0
O15 O 0.55545 0.67902 0.94997 0.0
O16 O 0.49576 0.70613 0.96889 0.0
C17 C 0.51922 0.59338 0.99766 0.0
O18 O 0.4702 0.64815 0.09831 0.0
Co19 Co 0.55143 0.60262 0.15473 0.0
O20 O 0.49502 0.6061 0.18988 0.0
C21 C 0.55181 0.69009 0.18043 0.0
C22 C 0.52899 0.70547 0.92906 0.0
C23 C 0.46684 0.62742 0.16106 0.0
O24 O 0.53875 0.69682 0.111 0.0
O25 O 0.56112 0.65514 0.2055 0.0
O26 O 0.4985 0.61825 0.95584 0.0
O27 O 0.54287 0.61062 0.04593 0.0
Co28 Co 0.84825 0.51587 0.03323 0.0
O29 O 0.83095 0.55129 0.95016 0.0
O30 O 0.80131 0.4947 0.98157 0.0
C31 C 0.91544 0.51445 1.00382 0.0
O32 O 0.85859 0.47212 0.11308 0.0
Co33 Co 0.9051 0.55378 0.15622 0.0
O34 O 0.89771 0.50035 0.20396 0.0
C35 C 0.81771 0.55676 0.18265 0.0
C36 C 0.80301 0.52578 0.93585 0.0
C37 C 0.87669 0.47155 0.17873 0.0
O38 O 0.81184 0.54217 0.11434 0.0
O39 O 0.85246 0.56587 0.20761 0.0
O40 O 0.89021 0.49275 0.9661 0.0
O41 O 0.89851 0.54049 0.04874 0.0
Co42 Co 0.99148 0.85164 0.0208 0.0
O43 O 0.95383 0.83461 0.94333 0.0
O44 O 0.01369 0.8075 0.9604 0.0
C45 C 0.98853 0.91899 0.99824 0.0
O46 O 0.03705 0.86255 0.09555 0.0
Co47 Co 0.95267 0.903 0.15342 0.0
O48 O 0.0082 0.89813 0.19247 0.0
C49 C 0.95396 0.81547 0.16912 0.0
C50 C 0.98032 0.80846 0.92151 0.0
C51 C 0.03795 0.87959 0.16228 0.0
O52 O 0.97007 0.81242 0.10124 0.0
O53 O 0.9416 0.84862 0.19754 0.0
O54 O 0.00987 0.89567 0.95445 0.0
O55 O 0.96455 0.90008 0.04441 0.0
Co56 Co 0.15478 0.01437 0.48914 0.0
O57 O 0.17406 0.05197 0.5655 0.0
O58 O 0.19967 0.99176 0.54727 0.0
C59 C 0.08748 0.01855 0.51641 0.0
O60 O 0.14208 0.96812 0.41705 0.0
Co61 Co 0.09898 0.05024 0.3592 0.0
O62 O 0.10148 0.99397 0.32438 0.0
C63 C 0.18671 0.04816 0.33465 0.0
C64 C 0.19982 0.02487 0.58667 0.0
C65 C 0.12188 0.96531 0.35394 0.0
O66 O 0.19267 0.03528 0.40461 0.0
O67 O 0.15217 0.05806 0.30871 0.0
O68 O 0.11129 0.99692 0.55888 0.0
O69 O 0.10598 0.04168 0.46824 0.0
Co70 Co 0.49199 0.16024 0.49963 0.0
O71 O 0.45383 0.1789 0.57637 0.0
O72 O 0.51429 0.2038 0.55936 0.0
C73 C 0.48838 0.09291 0.52296 0.0
O74 O 0.53841 0.14779 0.42693 0.0
Co75 Co 0.45487 0.10967 0.36614 0.0
O76 O 0.511 0.11272 0.32911 0.0
C77 C 0.4561 0.1971 0.3501 0.0
C78 C 0.4808 0.20399 0.59835 0.0
C79 C 0.54036 0.13048 0.36061 0.0
O80 O 0.47192 0.19981 0.41798 0.0
O81 O 0.44382 0.16417 0.32175 0.0
O82 O 0.50915 0.11601 0.56706 0.0
O83 O 0.46502 0.1122 0.47578 0.0
Co84 Co 0.35113 0.48657 0.4811 0.0
O85 O 0.33193 0.44836 0.55766 0.0
O86 O 0.30591 0.50848 0.5394 0.0
C87 C 0.4185 0.48284 0.50817 0.0
O88 O 0.36349 0.53336 0.40912 0.0
Co89 Co 0.40748 0.45213 0.35071 0.0
O90 O 0.40344 0.50831 0.31458 0.0
C91 C 0.31975 0.45425 0.32622 0.0
C92 C 0.30591 0.47517 0.57891 0.0
C93 C 0.38301 0.53664 0.34494 0.0
O94 O 0.31354 0.46592 0.39674 0.0
O95 O 0.35448 0.44515 0.29972 0.0
O96 O 0.39429 0.50401 0.55056 0.0
O97 O 0.40038 0.45984 0.45998 0.0
Co98 Co 0.00931 0.35149 0.50304 0.0
O99 O 0.04944 0.33311 0.57561 0.0
O100 O 0.98873 0.30788 0.56628 0.0
C101 C 0.01324 0.41869 0.5242 0.0
O102 O 0.96106 0.36386 0.43566 0.0
Co103 Co 0.04286 0.40253 0.36465 0.0
O104 O 0.98542 0.40121 0.33659 0.0
C105 C 0.04295 0.31513 0.35118 0.0
C106 C 0.02323 0.30788 0.60121 0.0
C107 C 0.95709 0.38275 0.371 0.0
O108 O 0.02763 0.31216 0.41984 0.0
O109 O 0.0547 0.34819 0.32162 0.0
O110 O 0.99361 0.39569 0.5713 0.0
O111 O 0.03549 0.39942 0.47518 0.0
Co112 Co 0.34924 0.01413 0.98963 0.0
O113 O 0.33019 0.05072 0.0686 0.0
O114 O 0.30523 0.99075 0.04782 0.0
C115 C 0.4166 0.01883 0.01242 0.0
O116 O 0.36252 0.96873 0.91619 0.0
Co117 Co 0.39918 0.05285 0.85582 0.0
O118 O 0.3984 0.99684 0.81908 0.0
C119 C 0.31195 0.05041 0.84001 0.0
C120 C 0.30483 0.02339 0.08864 0.0
C121 C 0.38082 0.96713 0.85058 0.0
O122 O 0.30938 0.03448 0.90832 0.0
O123 O 0.34481 0.06316 0.81116 0.0
O124 O 0.39388 0.99686 0.05611 0.0
O125 O 0.39688 0.04213 0.96574 0.0
Co126 Co 0.49051 0.3535 0.99595 0.0
O127 O 0.45374 0.33561 0.07574 0.0
O128 O 0.51423 0.3102 0.05679 0.0
C129 C 0.486 0.42108 0.01575 0.0
O130 O 0.53551 0.36498 0.91936 0.0
Co131 Co 0.45043 0.40305 0.8621 0.0
O132 O 0.50561 0.39812 0.82033 0.0
C133 C 0.45303 0.3156 0.85051 0.0
C134 C 0.48119 0.3103 0.09722 0.0
C135 C 0.53583 0.38071 0.85107 0.0
O136 O 0.46975 0.31334 0.91774 0.0
O137 O 0.4397 0.3483 0.82123 0.0
O138 O 0.50806 0.39849 0.05983 0.0
O139 O 0.46238 0.40129 0.97108 0.0
Co140 Co 0.15687 0.48664 0.98197 0.0
O141 O 0.17521 0.45132 0.06435 0.0
O142 O 0.20117 0.51038 0.0379 0.0
C143 C 0.08931 0.48331 1.00551 0.0
O144 O 0.14449 0.53064 0.90372 0.0
Co145 Co 0.10684 0.44579 0.8524 0.0
O146 O 0.10971 0.50058 0.80857 0.0
C147 C 0.19414 0.4483 0.83482 0.0
C148 C 0.20105 0.47849 0.08163 0.0
C149 C 0.12737 0.53078 0.83706 0.0
O150 O 0.19676 0.46434 0.9026 0.0
O151 O 0.16124 0.43566 0.80686 0.0
O152 O 0.11222 0.50579 0.04693 0.0
O153 O 0.10887 0.45885 0.96106 0.0
Co154 Co 0.01203 0.15842 1.00041 0.0
O155 O 0.04792 0.17758 0.07932 0.0
O156 O 0.98685 0.20125 0.05997 0.0
C157 C 0.01846 0.09125 0.02241 0.0
O158 O 0.96783 0.14484 0.92429 0.0
Co159 Co 0.0546 0.1097 0.86859 0.0
O160 O 0.99905 0.11027 0.82875 0.0
C161 C 0.05137 0.19698 0.85569 0.0
C162 C 0.01974 0.20213 0.10028 0.0
C163 C 0.96811 0.12704 0.85826 0.0
O164 O 0.03216 0.19879 0.9207 0.0
O165 O 0.06649 0.16461 0.82882 0.0
O166 O 0.9955 0.11317 0.06596 0.0
O167 O 0.04172 0.11167 0.9773 0.0
Co168 Co 0.84862 0.98606 0.54006 0.0
O169 O 0.82831 0.94762 0.46634 0.0
O170 O 0.80191 0.00744 0.48552 0.0
C171 C 0.9152 0.98346 0.50653 0.0
O172 O 0.86216 0.03281 0.61004 0.0
Co173 Co 0.90858 0.95161 0.66452 0.0
O174 O 0.90569 0.008 0.69877 0.0
C175 C 0.82146 0.95111 0.6975 0.0
C176 C 0.80157 0.9741 0.44687 0.0
C177 C 0.88392 0.03614 0.67102 0.0
O178 O 0.81351 0.96487 0.62883 0.0
O179 O 0.85676 0.94065 0.71828 0.0
O180 O 0.88978 0.00415 0.46592 0.0
O181 O 0.89852 0.95998 0.55652 0.0
Co182 Co 0.51838 0.85245 0.52347 0.0
O183 O 0.55446 0.83479 0.44195 0.0
O184 O 0.49523 0.80841 0.46632 0.0
C185 C 0.52159 0.92008 0.50224 0.0
O186 O 0.4737 0.86399 0.60039 0.0
Co187 Co 0.55803 0.90185 0.65554 0.0
O188 O 0.50281 0.89817 0.69742 0.0
C189 C 0.55665 0.81468 0.67047 0.0
C190 C 0.52753 0.80883 0.42381 0.0
C191 C 0.47294 0.88055 0.66744 0.0
O192 O 0.54035 0.81232 0.60283 0.0
O193 O 0.56938 0.84739 0.69882 0.0
O194 O 0.49951 0.89762 0.45907 0.0
O195 O 0.54577 0.90012 0.54662 0.0
Co196 Co 0.65785 0.51686 0.53039 0.0
O197 O 0.67729 0.55637 0.45669 0.0
O198 O 0.70466 0.49668 0.4742 0.0
C199 C 0.59097 0.51866 0.49952 0.0
O200 O 0.64535 0.46914 0.59992 0.0
Co201 Co 0.59836 0.54909 0.65806 0.0
O202 O 0.60094 0.49208 0.68908 0.0
C203 C 0.68566 0.54881 0.68817 0.0
C204 C 0.70446 0.53052 0.43649 0.0
C205 C 0.62318 0.46461 0.66049 0.0
O206 O 0.69331 0.53778 0.61779 0.0
O207 O 0.65029 0.55683 0.71276 0.0
O208 O 0.61654 0.49887 0.45763 0.0
O209 O 0.60752 0.54201 0.5492 0.0
Co210 Co 0.99 0.65841 0.52141 0.0
O211 O 0.95206 0.6791 0.44656 0.0
O212 O 0.01394 0.70079 0.45944 0.0
C213 C 0.98236 0.59154 0.50015 0.0
O214 O 0.03646 0.64322 0.5916 0.0
Co215 Co 0.95182 0.60961 0.6581 0.0
O216 O 0.00871 0.60793 0.69012 0.0
C217 C 0.9547 0.69684 0.66995 0.0
C218 C 0.98004 0.70279 0.42249 0.0
C219 C 0.03854 0.62446 0.6568 0.0
O220 O 0.97258 0.69875 0.60351 0.0
O221 O 0.94032 0.66453 0.69812 0.0
O222 O 0.00411 0.61318 0.45408 0.0
O223 O 0.9607 0.61222 0.54793 0.0
C224 C 0.60753 0.10091 0.34916 0.0
C225 C 0.57846 0.127 0.31873 0.0
C226 C 0.63029 0.07668 0.29946 0.0
C227 C 0.62431 0.07822 0.21877 0.0
H228 H 0.60817 0.09452 0.41075 0.0
H229 H 0.64802 0.05263 0.32467 0.0
S230 S 0.56143 0.15116 0.11193 0.0
N231 N 0.5526 0.16071 0.20424 0.0
N232 N 0.59518 0.1147 0.1108 0.0
C233 C 0.60131 0.10959 0.18798 0.0
C234 C 0.57829 0.13432 0.23845 0.0
C235 C 0.37817 0.57388 0.22241 0.0
C236 C 0.38447 0.57488 0.30301 0.0
C237 C 0.40003 0.59865 0.1724 0.0
C238 C 0.42851 0.62482 0.20233 0.0
H239 H 0.36099 0.5499 0.19737 0.0
H240 H 0.39938 0.59253 0.11084 0.0
S241 S 0.44557 0.64789 0.40889 0.0
N242 N 0.41302 0.61094 0.41054 0.0
N243 N 0.45362 0.6582 0.31645 0.0
C244 C 0.42867 0.63168 0.2826 0.0
C245 C 0.4067 0.60628 0.33346 0.0
C246 C 0.89539 0.40112 0.20249 0.0
C247 C 0.87591 0.43587 0.22843 0.0
C248 C 0.91608 0.37659 0.25518 0.0
C249 C 0.91793 0.38682 0.33413 0.0
H250 H 0.89996 0.3963 0.14106 0.0
H251 H 0.93605 0.35375 0.23229 0.0
S252 S 0.86048 0.46699 0.43192 0.0
N253 N 0.85027 0.47289 0.339 0.0
N254 N 0.89013 0.42723 0.43763 0.0
C255 C 0.89193 0.41651 0.36188 0.0
C256 C 0.87066 0.44124 0.30858 0.0
C257 C 0.10569 0.90602 0.1797 0.0
C258 C 0.07506 0.88129 0.20725 0.0
C259 C 0.12798 0.92882 0.23165 0.0
C260 C 0.11987 0.92741 0.31181 0.0
H261 H 0.10816 0.91259 0.11834 0.0
H262 H 0.14713 0.95194 0.20822 0.0
S263 S 0.05186 0.85744 0.41221 0.0
N264 N 0.04522 0.84858 0.31915 0.0
N265 N 0.08665 0.8922 0.41663 0.0
C266 C 0.09499 0.8972 0.34011 0.0
C267 C 0.07258 0.87377 0.2874 0.0
C268 C 0.37947 0.92903 0.72983 0.0
C269 C 0.38597 0.92901 0.81037 0.0
C270 C 0.40408 0.90633 0.68072 0.0
C271 C 0.4355 0.88332 0.71166 0.0
H272 H 0.35948 0.95106 0.70406 0.0
H273 H 0.40241 0.91168 0.61885 0.0
S274 S 0.45562 0.86333 0.91903 0.0
N275 N 0.41872 0.8966 0.91928 0.0
N276 N 0.46494 0.85355 0.827 0.0
C277 C 0.43688 0.87717 0.79221 0.0
C278 C 0.41187 0.90024 0.84203 0.0
C279 C 0.62887 0.42634 0.78085 0.0
C280 C 0.62097 0.42604 0.70074 0.0
C281 C 0.60485 0.4047 0.83272 0.0
C282 C 0.57284 0.38215 0.80497 0.0
H283 H 0.64916 0.44827 0.8043 0.0
H284 H 0.60746 0.41062 0.89412 0.0
S285 S 0.54942 0.36104 0.59986 0.0
N286 N 0.58633 0.39359 0.59573 0.0
N287 N 0.54168 0.352 0.69288 0.0
C288 C 0.57032 0.3753 0.72482 0.0
C289 C 0.59452 0.39754 0.6723 0.0
C290 C 0.07869 0.62457 0.77538 0.0
C291 C 0.07713 0.61786 0.69497 0.0
C292 C 0.10186 0.59978 0.82347 0.0
C293 C 0.12377 0.56786 0.79175 0.0
H294 H 0.05758 0.64513 0.80221 0.0
H295 H 0.09777 0.6019 0.88561 0.0
S296 S 0.13925 0.54629 0.5836 0.0
N297 N 0.10664 0.58377 0.58478 0.0
N298 N 0.1507 0.5373 0.67507 0.0
C299 C 0.12823 0.56591 0.71082 0.0
C300 C 0.10465 0.59108 0.66203 0.0
C301 C 0.93327 0.12762 0.7332 0.0
C302 C 0.93107 0.1219 0.81407 0.0
C303 C 0.91097 0.10382 0.68302 0.0
C304 C 0.88591 0.07404 0.71292 0.0
H305 H 0.95646 0.14635 0.70856 0.0
H306 H 0.91795 0.10468 0.62168 0.0
S307 S 0.86082 0.05606 0.9192 0.0
N308 N 0.89524 0.09124 0.92109 0.0
N309 N 0.8528 0.04675 0.82672 0.0
C310 C 0.87805 0.07341 0.79299 0.0
C311 C 0.90086 0.09748 0.844 0.0
C312 C 0.7217 0.97029 0.80312 0.0
C313 C 0.7332 0.97108 0.88146 0.0
C314 C 0.74984 0.96235 0.7437 0.0
C315 C 0.79034 0.95372 0.76062 0.0
H316 H 0.69091 0.97675 0.78755 0.0
H317 H 0.73988 0.96359 0.68413 0.0
S318 S 0.83408 0.94904 0.95921 0.0
N319 N 0.78663 0.96112 0.97369 0.0
N320 N 0.83932 0.94473 0.86455 0.0
C321 C 0.80147 0.95295 0.83994 0.0
C322 C 0.77301 0.96202 0.89962 0.0
C323 C 0.58221 0.76985 0.77736 0.0
C324 C 0.55114 0.78129 0.72679 0.0
C325 C 0.57493 0.74477 0.84175 0.0
C326 C 0.53597 0.73171 0.86024 0.0
H327 H 0.61218 0.78112 0.76804 0.0
H328 H 0.59981 0.73666 0.87888 0.0
S329 S 0.4441 0.75378 0.74722 0.0
N330 N 0.48001 0.77701 0.69922 0.0
N331 N 0.46611 0.7317 0.82173 0.0
C332 C 0.50472 0.74285 0.81005 0.0
C333 C 0.51236 0.76713 0.74305 0.0
C334 C 0.73389 0.52242 0.88127 0.0
C335 C 0.77433 0.53216 0.87104 0.0
C336 C 0.70587 0.52911 0.82217 0.0
C337 C 0.7171 0.54483 0.74912 0.0
H338 H 0.72361 0.51007 0.93593 0.0
H339 H 0.67504 0.521 0.83355 0.0
S340 S 0.82006 0.57326 0.69119 0.0
N341 N 0.82469 0.55788 0.78191 0.0
N342 N 0.77215 0.56862 0.66945 0.0
C343 C 0.7577 0.55385 0.73736 0.0
C344 C 0.7862 0.5481 0.79866 0.0
C345 C 0.00407 0.77047 0.80438 0.0
C346 C 0.97266 0.78194 0.85434 0.0
C347 C 0.99713 0.74566 0.74028 0.0
C348 C 0.9587 0.73061 0.72474 0.0
H349 H 0.03426 0.78062 0.81501 0.0
H350 H 0.0225 0.7364 0.70513 0.0
S351 S 0.86628 0.7519 0.83729 0.0
N352 N 0.90136 0.77736 0.88212 0.0
N353 N 0.88892 0.7293 0.76416 0.0
C354 C 0.92703 0.74224 0.77366 0.0
C355 C 0.93385 0.76829 0.83767 0.0
C356 C 0.24032 0.07 0.67219 0.0
C357 C 0.22669 0.0313 0.65442 0.0
C358 C 0.26636 0.07669 0.73487 0.0
C359 C 0.27833 0.04527 0.78452 0.0
H360 H 0.23192 0.09516 0.63573 0.0
H361 H 0.27784 0.10652 0.74367 0.0
S362 S 0.24995 0.93865 0.76542 0.0
N363 N 0.22686 0.96127 0.69272 0.0
N364 N 0.27412 0.97405 0.81182 0.0
C365 C 0.26375 0.00673 0.76894 0.0
C366 C 0.23839 0.99969 0.70372 0.0
C367 C 0.43481 0.24477 0.68304 0.0
C368 C 0.4737 0.23042 0.6662 0.0
C369 C 0.42751 0.27072 0.74565 0.0
C370 C 0.45851 0.28181 0.79588 0.0
H371 H 0.41003 0.23708 0.64585 0.0
H372 H 0.39763 0.28291 0.75378 0.0
S373 S 0.56531 0.25099 0.77933 0.0
N374 N 0.54338 0.22873 0.70589 0.0
N375 N 0.52946 0.27578 0.82515 0.0
C376 C 0.49719 0.26634 0.78139 0.0
C377 C 0.50485 0.24111 0.71621 0.0
C378 C 0.26567 0.4295 0.66566 0.0
C379 C 0.27903 0.46835 0.64709 0.0
C380 C 0.23972 0.42248 0.72897 0.0
C381 C 0.22763 0.45371 0.77847 0.0
H382 H 0.27424 0.40449 0.62938 0.0
H383 H 0.22843 0.39256 0.73843 0.0
S384 S 0.25512 0.56061 0.75708 0.0
N385 N 0.27829 0.53831 0.68423 0.0
N386 N 0.23135 0.52492 0.80462 0.0
C387 C 0.24191 0.4924 0.762 0.0
C388 C 0.26711 0.49976 0.69611 0.0
C389 C 1.00142 0.27209 0.72213 0.0
C390 C 0.03199 0.28176 0.66913 0.0
C391 C 0.00907 0.24749 0.78683 0.0
C392 C 0.04737 0.23079 0.80006 0.0
H393 H 0.97128 0.28345 0.71337 0.0
H394 H 0.98418 0.23959 0.82424 0.0
S395 S 0.1379 0.24752 0.67952 0.0
N396 N 0.10251 0.27411 0.63611 0.0
N397 N 0.11629 0.22636 0.75546 0.0
C398 C 0.07832 0.24081 0.74825 0.0
C399 C 0.07079 0.26669 0.68348 0.0
C400 C 0.20772 0.02639 0.20295 0.0
C401 C 0.21857 0.04317 0.27469 0.0
C402 C 0.23596 0.01922 0.14426 0.0
C403 C 0.27617 0.02973 0.15352 0.0
H404 H 0.17696 0.01811 0.19222 0.0
H405 H 0.22601 0.00613 0.09049 0.0
S406 S 0.32078 0.07415 0.3295 0.0
N407 N 0.27293 0.06892 0.35219 0.0
N408 N 0.32592 0.05755 0.23995 0.0
C409 C 0.28767 0.0468 0.22451 0.0
C410 C 0.25896 0.05289 0.28562 0.0
C411 C 0.42971 0.24174 0.24375 0.0
C412 C 0.46083 0.23093 0.29462 0.0
C413 C 0.43635 0.26822 0.18129 0.0
C414 C 0.47477 0.28345 0.16519 0.0
H415 H 0.40022 0.22899 0.25139 0.0
H416 H 0.41149 0.27566 0.14361 0.0
S417 S 0.56648 0.26402 0.28022 0.0
N418 N 0.53136 0.2382 0.32531 0.0
N419 N 0.54412 0.28626 0.20626 0.0
C420 C 0.50605 0.27302 0.21578 0.0
C421 C 0.499 0.24723 0.28084 0.0
C422 C 0.29844 0.47585 0.19413 0.0
C423 C 0.28774 0.45927 0.26674 0.0
C424 C 0.27008 0.48293 0.13584 0.0
C425 C 0.22982 0.47259 0.14637 0.0
H426 H 0.32919 0.48404 0.18231 0.0
H427 H 0.27999 0.49579 0.08136 0.0
S428 S 0.18545 0.42897 0.32518 0.0
N429 N 0.23337 0.43405 0.34644 0.0
N430 N 0.18019 0.44529 0.23518 0.0
C431 C 0.21845 0.45582 0.21833 0.0
C432 C 0.24729 0.44979 0.27896 0.0
C433 C 0.06389 0.24331 0.18554 0.0
C434 C 0.02536 0.22914 0.16763 0.0
C435 C 0.07008 0.26963 0.24768 0.0
C436 C 0.0383 0.28139 0.29643 0.0
H437 H 0.0893 0.2351 0.14958 0.0
H438 H 0.09977 0.2815 0.25671 0.0
S439 S 0.93199 0.25173 0.27662 0.0
N440 N 0.95512 0.22858 0.20471 0.0
N441 N 0.96698 0.27652 0.32303 0.0
C442 C 0.99993 0.26634 0.28078 0.0
C443 C 0.99339 0.24062 0.21608 0.0
C444 C 0.74089 0.99253 0.26282 0.0
C445 C 0.72293 0.95525 0.24883 0.0
C446 C 0.76558 0.99858 0.32765 0.0
C447 C 0.77417 0.96734 0.38019 0.0
H448 H 0.73422 0.01786 0.22545 0.0
H449 H 0.77816 0.02795 0.33651 0.0
S450 S 0.73555 0.86377 0.369 0.0
N451 N 0.71542 0.88675 0.29346 0.0
N452 N 0.7635 0.89738 0.41246 0.0
C453 C 0.75743 0.9296 0.36554 0.0
C454 C 0.73135 0.92378 0.30082 0.0
C455 C 0.53022 0.73892 0.37478 0.0
C456 C 0.53438 0.77992 0.3601 0.0
C457 C 0.53787 0.71061 0.31684 0.0
C458 C 0.54859 0.72199 0.24054 0.0
H459 H 0.52155 0.72852 0.43196 0.0
H460 H 0.53421 0.67935 0.33187 0.0
S461 S 0.56286 0.82629 0.1722 0.0
N462 N 0.55079 0.83101 0.26469 0.0
N463 N 0.56265 0.77777 0.15406 0.0
C464 C 0.55245 0.76312 0.22488 0.0
C465 C 0.54603 0.79203 0.28504 0.0
C466 C 0.73206 0.5149 0.30428 0.0
C467 C 0.73232 0.53888 0.37095 0.0
C468 C 0.75743 0.52305 0.24067 0.0
C469 C 0.78476 0.55503 0.24176 0.0
H470 H 0.71208 0.4896 0.30128 0.0
H471 H 0.75702 0.50281 0.19193 0.0
S472 S 0.79676 0.6268 0.40342 0.0
N473 N 0.76106 0.59651 0.43371 0.0
N474 N 0.80981 0.611 0.31632 0.0
C475 C 0.78477 0.57949 0.30814 0.0
C476 C 0.75831 0.57166 0.37202 0.0
C477 C 0.92795 0.77166 0.27669 0.0
C478 C 0.95889 0.78174 0.22476 0.0
C479 C 0.93488 0.74542 0.33944 0.0
C480 C 0.97341 0.72971 0.35469 0.0
H481 H 0.8984 0.78479 0.26964 0.0
H482 H 0.91013 0.73849 0.37788 0.0
S483 S 0.06477 0.74744 0.23693 0.0
N484 N 0.0294 0.77345 0.19232 0.0
N485 N 0.0427 0.72581 0.31182 0.0
C486 C 0.00452 0.73947 0.30308 0.0
C487 C 0.99718 0.76502 0.23778 0.0
C488 C 0.47926 0.98481 0.06149 0.0
C489 C 0.4612 0.01303 0.01108 0.0
C490 C 0.52089 0.97743 0.06077 0.0
C491 C 0.54652 0.99785 0.00945 0.0
H492 H 0.46108 0.96803 0.10212 0.0
H493 H 0.53302 0.95557 0.10106 0.0
S494 S 0.51475 0.07452 0.86464 0.0
N495 N 0.47268 0.06141 0.90805 0.0
N496 N 0.55045 0.04754 0.90603 0.0
C497 C 0.52889 0.02608 0.95844 0.0
C498 C 0.48647 0.03367 0.95942 0.0
C499 C 0.52233 0.483 0.05686 0.0
C500 C 0.49281 0.46526 0.01029 0.0
C501 C 0.53105 0.52405 0.0516 0.0
C502 C 0.51069 0.54945 0.99944 0.0
H503 H 0.53918 0.46498 0.09788 0.0
H504 H 0.55391 0.53594 0.0891 0.0
S505 S 0.43035 0.51843 0.86446 0.0
N506 N 0.44292 0.47679 0.9105 0.0
N507 N 0.45928 0.55359 0.90007 0.0
C508 C 0.48103 0.53217 0.95244 0.0
C509 C 0.47208 0.49029 0.95802 0.0
C510 C 0.98546 0.52642 0.0526 0.0
C511 C 0.9597 0.50635 1.00189 0.0
C512 C 0.02694 0.5183 0.0536 0.0
C513 C 0.04477 0.48972 1.00404 0.0
H514 H 0.97355 0.5485 0.09227 0.0
H515 H 0.04522 0.53482 0.09386 0.0
S516 S 0.99086 0.42919 0.85886 0.0
N517 N 0.95541 0.45675 0.89963 0.0
N518 N 0.03295 0.44151 0.90211 0.0
C519 C 0.01938 0.46944 0.95289 0.0
C520 C 0.97708 0.47777 0.95169 0.0
C521 C 0.9818 0.02851 0.05976 0.0
C522 C 0.01248 0.04709 0.01641 0.0
C523 C 0.97391 0.98737 0.05307 0.0
C524 C 0.99627 0.96292 1.0025 0.0
H525 H 0.96337 0.04592 0.09911 0.0
H526 H 0.95009 0.97468 0.08789 0.0
S527 S 0.08045 0.99643 0.87665 0.0
N528 N 0.06575 0.03737 0.92199 0.0
N529 N 0.05089 0.96054 0.90853 0.0
C530 C 0.02712 0.9811 0.95886 0.0
C531 C 0.03524 0.02295 0.96603 0.0
C532 C 0.0266 0.97958 0.55785 0.0
C533 C 0.0433 0.01105 0.51382 0.0
C534 C 0.98552 0.97049 0.55426 0.0
C535 C 0.95914 0.99235 0.50627 0.0
H536 H 0.04547 0.96149 0.59532 0.0
H537 H 0.97439 0.94612 0.58963 0.0
S538 S 0.98719 0.07829 0.38012 0.0
N539 N 0.02963 0.0646 0.42164 0.0
N540 N 0.95296 0.04738 0.41404 0.0
C541 C 0.97541 0.02393 0.46192 0.0
C542 C 0.01722 0.03331 0.46593 0.0
C543 C 0.48589 0.98329 0.45941 0.0
C544 C 0.5145 0.96435 0.50761 0.0
C545 C 0.47715 0.02454 0.46509 0.0
C546 C 0.49645 0.04876 0.51964 0.0
H547 H 0.46989 0.96607 0.4167 0.0
H548 H 0.45519 0.03752 0.42622 0.0
S549 S 0.57369 0.01422 0.66028 0.0
N550 N 0.56227 0.97361 0.61151 0.0
N551 N 0.54551 0.05034 0.62353 0.0
C552 C 0.52502 0.03017 0.56844 0.0
C553 C 0.53415 0.9883 0.5621 0.0
C554 C 0.52005 0.53158 0.54567 0.0
C555 C 0.54707 0.50924 0.4999 0.0
C556 C 0.4789 0.52244 0.54871 0.0
C557 C 0.46275 0.49043 0.50632 0.0
H558 H 0.53071 0.55647 0.57949 0.0
H559 H 0.45954 0.54097 0.58429 0.0
S560 S 0.52075 0.42112 0.38039 0.0
N561 N 0.5545 0.45262 0.41279 0.0
N562 N 0.47771 0.4355 0.41908 0.0
C563 C 0.48949 0.46752 0.46109 0.0
C564 C 0.53138 0.47689 0.45773 0.0
C565 C 0.01867 0.52838 0.4614 0.0
C566 C 0.9884 0.54722 0.50586 0.0
C567 C 0.02675 0.48709 0.46798 0.0
C568 C 0.00504 0.46272 0.51959 0.0
H569 H 0.03669 0.54572 0.42139 0.0
H570 H 0.0503 0.47423 0.43242 0.0
S571 S 0.92159 0.49677 0.64749 0.0
N572 N 0.93586 0.53777 0.60175 0.0
N573 N 0.95107 0.46063 0.61497 0.0
C574 C 0.97445 0.48112 0.56405 0.0
C575 C 0.96612 0.52315 0.55698 0.0
loop_
_geom_bond_atom_site_label_1
_geom_bond_atom_site_label_2
_geom_bond_distance
_geom_bond_site_symmetry_2
_ccdc_geom_bond_type
Co0 O1 2.216 1_544 S
Co0 O2 2.091 1_554 S
Co0 O4 2.004 . S
Co0 O10 2.021 1_545 S
Co0 O12 2.137 1_544 S
Co0 O13 2.244 1_545 S
O1 Co0 2.216 1_566 S
O1 C8 1.247 1_565 S
O2 Co0 2.091 1_556 S
O2 C8 1.261 . S
C3 O12 1.247 1_554 S
C3 O13 1.272 . S
O4 Co0 2.004 . S
O4 C9 1.259 . S
Co5 O6 2.061 1_565 S
Co5 O11 2.052 . S
Co5 O13 2.135 . S
O6 Co5 2.061 1_545 S
O6 C9 1.235 . S
C7 O10 1.238 . S
C7 O11 1.241 . S
C8 O1 1.247 1_545 S
C8 O2 1.261 . S
C9 O4 1.259 . S
C9 O6 1.235 . S
O10 Co0 2.021 1_565 S
O10 C7 1.238 . S
O11 Co5 2.052 . S
O11 C7 1.241 . S
O12 Co0 2.137 1_566 S
O12 C3 1.247 1_556 S
O13 Co0 2.244 1_565 S
O13 C3 1.272 . S
O13 Co5 2.135 . S
Co14 O15 2.216 1_554 S
Co14 O16 2.091 1_554 S
Co14 O18 2.004 . S
Co14 O24 2.021 . S
Co14 O26 2.137 1_554 S
Co14 O27 2.244 . S
O15 Co14 2.216 1_556 S
O15 C22 1.247 . S
O16 Co14 2.091 1_556 S
O16 C22 1.261 . S
C17 O26 1.247 1_554 S
C17 O27 1.272 . S
O18 Co14 2.004 . S
O18 C23 1.259 . S
Co19 O20 2.061 . S
Co19 O25 2.052 . S
Co19 O27 2.135 . S
O20 Co19 2.061 . S
O20 C23 1.235 . S
C21 O24 1.238 . S
C21 O25 1.241 . S
C22 O15 1.247 . S
C22 O16 1.261 . S
C23 O18 1.259 . S
C23 O20 1.235 . S
O24 Co14 2.021 . S
O24 C21 1.238 . S
O25 Co19 2.052 . S
O25 C21 1.241 . S
O26 Co14 2.137 1_556 S
O26 C17 1.247 1_556 S
O27 Co14 2.244 . S
O27 C17 1.272 . S
O27 Co19 2.135 . S
Co28 O29 2.216 1_554 S
Co28 O30 2.091 1_554 S
Co28 O32 2.004 . S
Co28 O38 2.021 . S
Co28 O40 2.137 1_554 S
Co28 O41 2.244 . S
O29 Co28 2.216 1_556 S
O29 C36 1.247 . S
O30 Co28 2.091 1_556 S
O30 C36 1.261 . S
C31 O40 1.247 1_554 S
C31 O41 1.272 . S
O32 Co28 2.004 . S
O32 C37 1.259 . S
Co33 O34 2.061 . S
Co33 O39 2.052 . S
Co33 O41 2.135 . S
O34 Co33 2.061 . S
O34 C37 1.235 . S
C35 O38 1.238 . S
C35 O39 1.241 . S
C36 O29 1.247 . S
C36 O30 1.261 . S
C37 O32 1.259 . S
C37 O34 1.235 . S
O38 Co28 2.021 . S
O38 C35 1.238 . S
O39 Co33 2.052 . S
O39 C35 1.241 . S
O40 Co28 2.137 1_556 S
O40 C31 1.247 1_556 S
O41 Co28 2.244 . S
O41 C31 1.272 . S
O41 Co33 2.135 . S
Co42 O43 2.216 1_454 S
Co42 O44 2.091 1_554 S
Co42 O46 2.004 . S
Co42 O52 2.021 1_455 S
Co42 O54 2.137 1_454 S
Co42 O55 2.244 1_455 S
O43 Co42 2.216 1_656 S
O43 C50 1.247 1_655 S
O44 Co42 2.091 1_556 S
O44 C50 1.261 . S
C45 O54 1.247 1_554 S
C45 O55 1.272 . S
O46 Co42 2.004 . S
O46 C51 1.259 . S
Co47 O48 2.061 1_655 S
Co47 O53 2.052 . S
Co47 O55 2.135 . S
O48 Co47 2.061 1_455 S
O48 C51 1.235 . S
C49 O52 1.238 . S
C49 O53 1.241 . S
C50 O43 1.247 1_455 S
C50 O44 1.261 . S
C51 O46 1.259 . S
C51 O48 1.235 . S
O52 Co42 2.021 1_655 S
O52 C49 1.238 . S
O53 Co47 2.052 . S
O53 C49 1.241 . S
O54 Co42 2.137 1_656 S
O54 C45 1.247 1_556 S
O55 Co42 2.244 1_655 S
O55 C45 1.272 . S
O55 Co47 2.135 . S
Co56 O57 2.216 1_565 S
Co56 O58 2.091 . S
Co56 O60 2.004 . S
Co56 O66 2.021 1_565 S
Co56 O68 2.137 1_565 S
Co56 O69 2.244 1_565 S
O57 Co56 2.216 1_545 S
O57 C64 1.247 1_545 S
O58 Co56 2.091 . S
O58 C64 1.261 . S
C59 O68 1.247 . S
C59 O69 1.272 . S
O60 Co56 2.004 . S
O60 C65 1.259 . S
Co61 O62 2.061 1_545 S
Co61 O67 2.052 . S
Co61 O69 2.135 . S
O62 Co61 2.061 1_565 S
O62 C65 1.235 . S
C63 O66 1.238 . S
C63 O67 1.241 . S
C64 O57 1.247 1_565 S
C64 O58 1.261 . S
C65 O60 1.259 . S
C65 O62 1.235 . S
O66 Co56 2.021 1_545 S
O66 C63 1.238 . S
O67 Co61 2.052 . S
O67 C63 1.241 . S
O68 Co56 2.137 1_545 S
O68 C59 1.247 . S
O69 Co56 2.244 1_545 S
O69 C59 1.272 . S
O69 Co61 2.135 . S
Co70 O71 2.216 . S
Co70 O72 2.091 . S
Co70 O74 2.004 . S
Co70 O80 2.021 . S
Co70 O82 2.137 . S
Co70 O83 2.244 . S
O71 Co70 2.216 . S
O71 C78 1.247 . S
O72 Co70 2.091 . S
O72 C78 1.261 . S
C73 O82 1.247 . S
C73 O83 1.272 . S
O74 Co70 2.004 . S
O74 C79 1.259 . S
Co75 O76 2.061 . S
Co75 O81 2.052 . S
Co75 O83 2.135 . S
O76 Co75 2.061 . S
O76 C79 1.235 . S
C77 O80 1.238 . S
C77 O81 1.241 . S
C78 O71 1.247 . S
C78 O72 1.261 . S
C79 O74 1.259 . S
C79 O76 1.235 . S
O80 Co70 2.021 . S
O80 C77 1.238 . S
O81 Co75 2.052 . S
O81 C77 1.241 . S
O82 Co70 2.137 . S
O82 C73 1.247 . S
O83 Co70 2.244 . S
O83 C73 1.272 . S
O83 Co75 2.135 . S
Co84 O85 2.216 . S
Co84 O86 2.091 . S
Co84 O88 2.004 . S
Co84 O94 2.021 . S
Co84 O96 2.137 . S
Co84 O97 2.244 . S
O85 Co84 2.216 . S
O85 C92 1.247 . S
O86 Co84 2.091 . S
O86 C92 1.261 . S
C87 O96 1.247 . S
C87 O97 1.272 . S
O88 Co84 2.004 . S
O88 C93 1.259 . S
Co89 O90 2.061 . S
Co89 O95 2.052 . S
Co89 O97 2.135 . S
O90 Co89 2.061 . S
O90 C93 1.235 . S
C91 O94 1.238 . S
C91 O95 1.241 . S
C92 O85 1.247 . S
C92 O86 1.261 . S
C93 O88 1.259 . S
C93 O90 1.235 . S
O94 Co84 2.021 . S
O94 C91 1.238 . S
O95 Co89 2.052 . S
O95 C91 1.241 . S
O96 Co84 2.137 . S
O96 C87 1.247 . S
O97 Co84 2.244 . S
O97 C87 1.272 . S
O97 Co89 2.135 . S
Co98 O99 2.216 1_655 S
Co98 O100 2.091 . S
Co98 O102 2.004 . S
Co98 O108 2.021 1_655 S
Co98 O110 2.137 1_655 S
Co98 O111 2.244 1_655 S
O99 Co98 2.216 1_455 S
O99 C106 1.247 1_455 S
O100 Co98 2.091 . S
O100 C106 1.261 . S
C101 O110 1.247 . S
C101 O111 1.272 . S
O102 Co98 2.004 . S
O102 C107 1.259 . S
Co103 O104 2.061 1_455 S
Co103 O109 2.052 . S
Co103 O111 2.135 . S
O104 Co103 2.061 1_655 S
O104 C107 1.235 . S
C105 O108 1.238 . S
C105 O109 1.241 . S
C106 O99 1.247 1_655 S
C106 O100 1.261 . S
C107 O102 1.259 . S
C107 O104 1.235 . S
O108 Co98 2.021 1_455 S
O108 C105 1.238 . S
O109 Co103 2.052 . S
O109 C105 1.241 . S
O110 Co98 2.137 1_455 S
O110 C101 1.247 . S
O111 Co98 2.244 1_455 S
O111 C101 1.272 . S
O111 Co103 2.135 . S
Co112 O113 2.216 1_566 S
Co112 O114 2.091 1_556 S
Co112 O116 2.004 . S
Co112 O122 2.021 1_565 S
Co112 O124 2.137 1_566 S
Co112 O125 2.244 1_565 S
O113 Co112 2.216 1_544 S
O113 C120 1.247 1_545 S
O114 Co112 2.091 1_554 S
O114 C120 1.261 . S
C115 O124 1.247 1_556 S
C115 O125 1.272 . S
O116 Co112 2.004 . S
O116 C121 1.259 . S
Co117 O118 2.061 1_545 S
Co117 O123 2.052 . S
Co117 O125 2.135 . S
O118 Co117 2.061 1_565 S
O118 C121 1.235 . S
C119 O122 1.238 . S
C119 O123 1.241 . S
C120 O113 1.247 1_565 S
C120 O114 1.261 . S
C121 O116 1.259 . S
C121 O118 1.235 . S
O122 Co112 2.021 1_545 S
O122 C119 1.238 . S
O123 Co117 2.052 . S
O123 C119 1.241 . S
O124 Co112 2.137 1_544 S
O124 C115 1.247 1_554 S
O125 Co112 2.244 1_545 S
O125 C115 1.272 . S
O125 Co117 2.135 . S
Co126 O127 2.216 1_556 S
Co126 O128 2.091 1_556 S
Co126 O130 2.004 . S
Co126 O136 2.021 . S
Co126 O138 2.137 1_556 S
Co126 O139 2.244 . S
O127 Co126 2.216 1_554 S
O127 C134 1.247 . S
O128 Co126 2.091 1_554 S
O128 C134 1.261 . S
C129 O138 1.247 1_556 S
C129 O139 1.272 . S
O130 Co126 2.004 . S
O130 C135 1.259 . S
Co131 O132 2.061 . S
Co131 O137 2.052 . S
Co131 O139 2.135 . S
O132 Co131 2.061 . S
O132 C135 1.235 . S
C133 O136 1.238 . S
C133 O137 1.241 . S
C134 O127 1.247 . S
C134 O128 1.261 . S
C135 O130 1.259 . S
C135 O132 1.235 . S
O136 Co126 2.021 . S
O136 C133 1.238 . S
O137 Co131 2.052 . S
O137 C133 1.241 . S
O138 Co126 2.137 1_554 S
O138 C129 1.247 1_554 S
O139 Co126 2.244 . S
O139 C129 1.272 . S
O139 Co131 2.135 . S
Co140 O141 2.216 1_556 S
Co140 O142 2.091 1_556 S
Co140 O144 2.004 . S
Co140 O150 2.021 . S
Co140 O152 2.137 1_556 S
Co140 O153 2.244 . S
O141 Co140 2.216 1_554 S
O141 C148 1.247 . S
O142 Co140 2.091 1_554 S
O142 C148 1.261 . S
C143 O152 1.247 1_556 S
C143 O153 1.272 . S
O144 Co140 2.004 . S
O144 C149 1.259 . S
Co145 O146 2.061 . S
Co145 O151 2.052 . S
Co145 O153 2.135 . S
O146 Co145 2.061 . S
O146 C149 1.235 . S
C147 O150 1.238 . S
C147 O151 1.241 . S
C148 O141 1.247 . S
C148 O142 1.261 . S
C149 O144 1.259 . S
C149 O146 1.235 . S
O150 Co140 2.021 . S
O150 C147 1.238 . S
O151 Co145 2.052 . S
O151 C147 1.241 . S
O152 Co140 2.137 1_554 S
O152 C143 1.247 1_554 S
O153 Co140 2.244 . S
O153 C143 1.272 . S
O153 Co145 2.135 . S
Co154 O155 2.216 1_656 S
Co154 O156 2.091 1_556 S
Co154 O158 2.004 . S
Co154 O164 2.021 1_655 S
Co154 O166 2.137 1_656 S
Co154 O167 2.244 1_655 S
O155 Co154 2.216 1_454 S
O155 C162 1.247 1_455 S
O156 Co154 2.091 1_554 S
O156 C162 1.261 . S
C157 O166 1.247 1_556 S
C157 O167 1.272 . S
O158 Co154 2.004 . S
O158 C163 1.259 . S
Co159 O160 2.061 1_455 S
Co159 O165 2.052 . S
Co159 O167 2.135 . S
O160 Co159 2.061 1_655 S
O160 C163 1.235 . S
C161 O164 1.238 . S
C161 O165 1.241 . S
C162 O155 1.247 1_655 S
C162 O156 1.261 . S
C163 O158 1.259 . S
C163 O160 1.235 . S
O164 Co154 2.021 1_455 S
O164 C161 1.238 . S
O165 Co159 2.052 . S
O165 C161 1.241 . S
O166 Co154 2.137 1_454 S
O166 C157 1.247 1_554 S
O167 Co154 2.244 1_455 S
O167 C157 1.272 . S
O167 Co159 2.135 . S
Co168 O169 2.216 1_545 S
Co168 O170 2.091 . S
Co168 O172 2.004 . S
Co168 O178 2.021 1_545 S
Co168 O180 2.137 1_545 S
Co168 O181 2.244 1_545 S
O169 Co168 2.216 1_565 S
O169 C176 1.247 1_565 S
O170 Co168 2.091 . S
O170 C176 1.261 . S
C171 O180 1.247 . S
C171 O181 1.272 . S
O172 Co168 2.004 . S
O172 C177 1.259 . S
Co173 O174 2.061 1_565 S
Co173 O179 2.052 . S
Co173 O181 2.135 . S
O174 Co173 2.061 1_545 S
O174 C177 1.235 . S
C175 O178 1.238 . S
C175 O179 1.241 . S
C176 O169 1.247 1_545 S
C176 O170 1.261 . S
C177 O172 1.259 . S
C177 O174 1.235 . S
O178 Co168 2.021 1_565 S
O178 C175 1.238 . S
O179 Co173 2.052 . S
O179 C175 1.241 . S
O180 Co168 2.137 1_565 S
O180 C171 1.247 . S
O181 Co168 2.244 1_565 S
O181 C171 1.272 . S
O181 Co173 2.135 . S
Co182 O183 2.216 . S
Co182 O184 2.091 . S
Co182 O186 2.004 . S
Co182 O192 2.021 . S
Co182 O194 2.137 . S
Co182 O195 2.244 . S
O183 Co182 2.216 . S
O183 C190 1.247 . S
O184 Co182 2.091 . S
O184 C190 1.261 . S
C185 O194 1.247 . S
C185 O195 1.272 . S
O186 Co182 2.004 . S
O186 C191 1.259 . S
Co187 O188 2.061 . S
Co187 O193 2.052 . S
Co187 O195 2.135 . S
O188 Co187 2.061 . S
O188 C191 1.235 . S
C189 O192 1.238 . S
C189 O193 1.241 . S
C190 O183 1.247 . S
C190 O184 1.261 . S
C191 O186 1.259 . S
C191 O188 1.235 . S
O192 Co182 2.021 . S
O192 C189 1.238 . S
O193 Co187 2.052 . S
O193 C189 1.241 . S
O194 Co182 2.137 . S
O194 C185 1.247 . S
O195 Co182 2.244 . S
O195 C185 1.272 . S
O195 Co187 2.135 . S
Co196 O197 2.216 . S
Co196 O198 2.091 . S
Co196 O200 2.004 . S
Co196 O206 2.021 . S
Co196 O208 2.137 . S
Co196 O209 2.244 . S
O197 Co196 2.216 . S
O197 C204 1.247 . S
O198 Co196 2.091 . S
O198 C204 1.261 . S
C199 O208 1.247 . S
C199 O209 1.272 . S
O200 Co196 2.004 . S
O200 C205 1.259 . S
Co201 O202 2.061 . S
Co201 O207 2.052 . S
Co201 O209 2.135 . S
O202 Co201 2.061 . S
O202 C205 1.235 . S
C203 O206 1.238 . S
C203 O207 1.241 . S
C204 O197 1.247 . S
C204 O198 1.261 . S
C205 O200 1.259 . S
C205 O202 1.235 . S
O206 Co196 2.021 . S
O206 C203 1.238 . S
O207 Co201 2.052 . S
O207 C203 1.241 . S
O208 Co196 2.137 . S
O208 C199 1.247 . S
O209 Co196 2.244 . S
O209 C199 1.272 . S
O209 Co201 2.135 . S
Co210 O211 2.216 1_455 S
Co210 O212 2.091 . S
Co210 O214 2.004 . S
Co210 O220 2.021 1_455 S
Co210 O222 2.137 1_455 S
Co210 O223 2.244 1_455 S
O211 Co210 2.216 1_655 S
O211 C218 1.247 1_655 S
O212 Co210 2.091 . S
O212 C218 1.261 . S
C213 O222 1.247 . S
C213 O223 1.272 . S
O214 Co210 2.004 . S
O214 C219 1.259 . S
Co215 O216 2.061 1_655 S
Co215 O221 2.052 . S
Co215 O223 2.135 . S
O216 Co215 2.061 1_455 S
O216 C219 1.235 . S
C217 O220 1.238 . S
C217 O221 1.241 . S
C218 O211 1.247 1_455 S
C218 O212 1.261 . S
C219 O214 1.259 . S
C219 O216 1.235 . S
O220 Co210 2.021 1_655 S
O220 C217 1.238 . S
O221 Co215 2.052 . S
O221 C217 1.241 . S
O222 Co210 2.137 1_655 S
O222 C213 1.247 . S
O223 Co210 2.244 1_655 S
O223 C213 1.272 . S
O223 Co215 2.135 . S
C224 C225 1.369 . S
C224 C226 1.419 . S
C224 H228 0.930 . S
C225 C224 1.369 . S
C225 C234 1.429 . S
C226 C224 1.419 . S
C226 C227 1.363 . S
C226 H229 0.929 . S
C227 C226 1.363 . S
C227 C233 1.428 . S
H228 C224 0.930 . S
H229 C226 0.929 . S
S230 N231 1.613 . S
S230 N232 1.610 . S
N231 S230 1.613 . S
N231 C234 1.350 . S
N232 S230 1.610 . S
N232 C233 1.351 . S
C233 C227 1.428 . S
C233 N232 1.351 . S
C233 C234 1.434 . S
C234 C225 1.429 . S
C234 N231 1.350 . S
C234 C233 1.434 . S
C235 C236 1.369 . S
C235 C237 1.419 . S
C235 H239 0.930 . S
C236 C235 1.369 . S
C236 C245 1.429 . S
C237 C235 1.419 . S
C237 C238 1.363 . S
C237 H240 0.929 . S
C238 C237 1.363 . S
C238 C244 1.428 . S
H239 C235 0.930 . S
H240 C237 0.929 . S
S241 N242 1.613 . S
S241 N243 1.610 . S
N242 S241 1.613 . S
N242 C245 1.350 . S
N243 S241 1.610 . S
N243 C244 1.351 . S
C244 C238 1.428 . S
C244 N243 1.351 . S
C244 C245 1.434 . S
C245 C236 1.429 . S
C245 N242 1.350 . S
C245 C244 1.434 . S
C246 C247 1.369 . S
C246 C248 1.419 . S
C246 H250 0.930 . S
C247 C246 1.369 . S
C247 C256 1.429 . S
C248 C246 1.419 . S
C248 C249 1.363 . S
C248 H251 0.929 . S
C249 C248 1.363 . S
C249 C255 1.428 . S
H250 C246 0.930 . S
H251 C248 0.929 . S
S252 N253 1.613 . S
S252 N254 1.610 . S
N253 S252 1.613 . S
N253 C256 1.350 . S
N254 S252 1.610 . S
N254 C255 1.351 . S
C255 C249 1.428 . S
C255 N254 1.351 . S
C255 C256 1.434 . S
C256 C247 1.429 . S
C256 N253 1.350 . S
C256 C255 1.434 . S
C257 C258 1.369 . S
C257 C259 1.419 . S
C257 H261 0.930 . S
C258 C257 1.369 . S
C258 C267 1.429 . S
C259 C257 1.419 . S
C259 C260 1.363 . S
C259 H262 0.929 . S
C260 C259 1.363 . S
C260 C266 1.428 . S
H261 C257 0.930 . S
H262 C259 0.929 . S
S263 N264 1.613 . S
S263 N265 1.610 . S
N264 S263 1.613 . S
N264 C267 1.350 . S
N265 S263 1.610 . S
N265 C266 1.351 . S
C266 C260 1.428 . S
C266 N265 1.351 . S
C266 C267 1.434 . S
C267 C258 1.429 . S
C267 N264 1.350 . S
C267 C266 1.434 . S
C268 C269 1.369 . S
C268 C270 1.419 . S
C268 H272 0.930 . S
C269 C268 1.369 . S
C269 C278 1.429 . S
C270 C268 1.419 . S
C270 C271 1.363 . S
C270 H273 0.929 . S
C271 C270 1.363 . S
C271 C277 1.428 . S
H272 C268 0.930 . S
H273 C270 0.929 . S
S274 N275 1.613 . S
S274 N276 1.610 . S
N275 S274 1.613 . S
N275 C278 1.350 . S
N276 S274 1.610 . S
N276 C277 1.351 . S
C277 C271 1.428 . S
C277 N276 1.351 . S
C277 C278 1.434 . S
C278 C269 1.429 . S
C278 N275 1.350 . S
C278 C277 1.434 . S
C279 C280 1.369 . S
C279 C281 1.419 . S
C279 H283 0.930 . S
C280 C279 1.369 . S
C280 C289 1.429 . S
C281 C279 1.419 . S
C281 C282 1.363 . S
C281 H284 0.929 . S
C282 C281 1.363 . S
C282 C288 1.428 . S
H283 C279 0.930 . S
H284 C281 0.929 . S
S285 N286 1.613 . S
S285 N287 1.610 . S
N286 S285 1.613 . S
N286 C289 1.350 . S
N287 S285 1.610 . S
N287 C288 1.351 . S
C288 C282 1.428 . S
C288 N287 1.351 . S
C288 C289 1.434 . S
C289 C280 1.429 . S
C289 N286 1.350 . S
C289 C288 1.434 . S
C290 C291 1.369 . S
C290 C292 1.419 . S
C290 H294 0.930 . S
C291 C290 1.369 . S
C291 C300 1.429 . S
C292 C290 1.419 . S
C292 C293 1.363 . S
C292 H295 0.929 . S
C293 C292 1.363 . S
C293 C299 1.428 . S
H294 C290 0.930 . S
H295 C292 0.929 . S
S296 N297 1.613 . S
S296 N298 1.610 . S
N297 S296 1.613 . S
N297 C300 1.350 . S
N298 S296 1.610 . S
N298 C299 1.351 . S
C299 C293 1.428 . S
C299 N298 1.351 . S
C299 C300 1.434 . S
C300 C291 1.429 . S
C300 N297 1.350 . S
C300 C299 1.434 . S
C301 C302 1.369 . S
C301 C303 1.419 . S
C301 H305 0.930 . S
C302 C301 1.369 . S
C302 C311 1.429 . S
C303 C301 1.419 . S
C303 C304 1.363 . S
C303 H306 0.929 . S
C304 C303 1.363 . S
C304 C310 1.428 . S
H305 C301 0.930 . S
H306 C303 0.929 . S
S307 N308 1.613 . S
S307 N309 1.610 . S
N308 S307 1.613 . S
N308 C311 1.350 . S
N309 S307 1.610 . S
N309 C310 1.351 . S
C310 C304 1.428 . S
C310 N309 1.351 . S
C310 C311 1.434 . S
C311 C302 1.429 . S
C311 N308 1.350 . S
C311 C310 1.434 . S
C312 C313 1.369 . S
C312 C314 1.419 . S
C312 H316 0.930 . S
C313 C312 1.369 . S
C313 C322 1.429 1_565 S
C314 C312 1.419 . S
C314 C315 1.363 . S
C314 H317 0.929 . S
C315 C314 1.363 . S
C315 C321 1.428 . S
H316 C312 0.930 . S
H317 C314 0.929 . S
S318 N319 1.613 . S
S318 N320 1.610 . S
N319 S318 1.613 . S
N319 C322 1.350 . S
N320 S318 1.610 . S
N320 C321 1.351 1_545 S
C321 C315 1.428 . S
C321 N320 1.351 1_565 S
C321 C322 1.434 1_565 S
C322 C313 1.429 1_545 S
C322 N319 1.350 . S
C322 C321 1.434 1_545 S
C323 C324 1.369 . S
C323 C325 1.419 . S
C323 H327 0.930 . S
C324 C323 1.369 . S
C324 C333 1.429 . S
C325 C323 1.419 . S
C325 C326 1.363 . S
C325 H328 0.929 . S
C326 C325 1.363 . S
C326 C332 1.428 . S
H327 C323 0.930 . S
H328 C325 0.929 . S
S329 N330 1.613 . S
S329 N331 1.610 . S
N330 S329 1.613 . S
N330 C333 1.350 . S
N331 S329 1.610 . S
N331 C332 1.351 . S
C332 C326 1.428 . S
C332 N331 1.351 . S
C332 C333 1.434 . S
C333 C324 1.429 . S
C333 N330 1.350 . S
C333 C332 1.434 . S
C334 C335 1.369 . S
C334 C336 1.419 . S
C334 H338 0.930 . S
C335 C334 1.369 . S
C335 C344 1.429 . S
C336 C334 1.419 . S
C336 C337 1.363 . S
C336 H339 0.929 . S
C337 C336 1.363 . S
C337 C343 1.428 . S
H338 C334 0.930 . S
H339 C336 0.929 . S
S340 N341 1.613 . S
S340 N342 1.610 . S
N341 S340 1.613 . S
N341 C344 1.350 . S
N342 S340 1.610 . S
N342 C343 1.351 . S
C343 C337 1.428 . S
C343 N342 1.351 . S
C343 C344 1.434 . S
C344 C335 1.429 . S
C344 N341 1.350 . S
C344 C343 1.434 . S
C345 C346 1.369 1_455 S
C345 C347 1.419 . S
C345 H349 0.930 . S
C346 C345 1.369 1_655 S
C346 C355 1.429 . S
C347 C345 1.419 . S
C347 C348 1.363 1_455 S
C347 H350 0.929 . S
C348 C347 1.363 1_655 S
C348 C354 1.428 . S
H349 C345 0.930 . S
H350 C347 0.929 . S
S351 N352 1.613 . S
S351 N353 1.610 . S
N352 S351 1.613 . S
N352 C355 1.350 . S
N353 S351 1.610 . S
N353 C354 1.351 . S
C354 C348 1.428 . S
C354 N353 1.351 . S
C354 C355 1.434 . S
C355 C346 1.429 . S
C355 N352 1.350 . S
C355 C354 1.434 . S
C356 C357 1.369 . S
C356 C358 1.419 . S
C356 H360 0.930 . S
C357 C356 1.369 . S
C357 C366 1.429 1_545 S
C358 C356 1.419 . S
C358 C359 1.363 . S
C358 H361 0.929 . S
C359 C358 1.363 . S
C359 C365 1.428 1_545 S
H360 C356 0.930 . S
H361 C358 0.929 . S
S362 N363 1.613 . S
S362 N364 1.610 . S
N363 S362 1.613 . S
N363 C366 1.350 . S
N364 S362 1.610 . S
N364 C365 1.351 . S
C365 C359 1.428 1_565 S
C365 N364 1.351 . S
C365 C366 1.434 . S
C366 C357 1.429 1_565 S
C366 N363 1.350 . S
C366 C365 1.434 . S
C367 C368 1.369 . S
C367 C369 1.419 . S
C367 H371 0.930 . S
C368 C367 1.369 . S
C368 C377 1.429 . S
C369 C367 1.419 . S
C369 C370 1.363 . S
C369 H372 0.929 . S
C370 C369 1.363 . S
C370 C376 1.428 . S
H371 C367 0.930 . S
H372 C369 0.929 . S
S373 N374 1.613 . S
S373 N375 1.610 . S
N374 S373 1.613 . S
N374 C377 1.350 . S
N375 S373 1.610 . S
N375 C376 1.351 . S
C376 C370 1.428 . S
C376 N375 1.351 . S
C376 C377 1.434 . S
C377 C368 1.429 . S
C377 N374 1.350 . S
C377 C376 1.434 . S
C378 C379 1.369 . S
C378 C380 1.419 . S
C378 H382 0.930 . S
C379 C378 1.369 . S
C379 C388 1.429 . S
C380 C378 1.419 . S
C380 C381 1.363 . S
C380 H383 0.929 . S
C381 C380 1.363 . S
C381 C387 1.428 . S
H382 C378 0.930 . S
H383 C380 0.929 . S
S384 N385 1.613 . S
S384 N386 1.610 . S
N385 S384 1.613 . S
N385 C388 1.350 . S
N386 S384 1.610 . S
N386 C387 1.351 . S
C387 C381 1.428 . S
C387 N386 1.351 . S
C387 C388 1.434 . S
C388 C379 1.429 . S
C388 N385 1.350 . S
C388 C387 1.434 . S
C389 C390 1.369 1_655 S
C389 C391 1.419 . S
C389 H393 0.930 . S
C390 C389 1.369 1_455 S
C390 C399 1.429 . S
C391 C389 1.419 . S
C391 C392 1.363 1_655 S
C391 H394 0.929 . S
C392 C391 1.363 1_455 S
C392 C398 1.428 . S
H393 C389 0.930 . S
H394 C391 0.929 . S
S395 N396 1.613 . S
S395 N397 1.610 . S
N396 S395 1.613 . S
N396 C399 1.350 . S
N397 S395 1.610 . S
N397 C398 1.351 . S
C398 C392 1.428 . S
C398 N397 1.351 . S
C398 C399 1.434 . S
C399 C390 1.429 . S
C399 N396 1.350 . S
C399 C398 1.434 . S
C400 C401 1.369 . S
C400 C402 1.419 . S
C400 H404 0.930 . S
C401 C400 1.369 . S
C401 C410 1.429 . S
C402 C400 1.419 . S
C402 C403 1.363 . S
C402 H405 0.929 . S
C403 C402 1.363 . S
C403 C409 1.428 . S
H404 C400 0.930 . S
H405 C402 0.929 . S
S406 N407 1.613 . S
S406 N408 1.614 . S
N407 S406 1.613 . S
N407 C410 1.350 . S
N408 S406 1.614 . S
N408 C409 1.354 . S
C409 C403 1.428 . S
C409 N408 1.354 . S
C409 C410 1.434 . S
C410 C401 1.429 . S
C410 N407 1.350 . S
C410 C409 1.434 . S
C411 C412 1.369 . S
C411 C413 1.419 . S
C411 H415 0.930 . S
C412 C411 1.369 . S
C412 C421 1.429 . S
C413 C411 1.419 . S
C413 C414 1.363 . S
C413 H416 0.929 . S
C414 C413 1.363 . S
C414 C420 1.428 . S
H415 C411 0.930 . S
H416 C413 0.929 . S
S417 N418 1.613 . S
S417 N419 1.610 . S
N418 S417 1.613 . S
N418 C421 1.350 . S
N419 S417 1.610 . S
N419 C420 1.351 . S
C420 C414 1.428 . S
C420 N419 1.351 . S
C420 C421 1.434 . S
C421 C412 1.429 . S
C421 N418 1.350 . S
C421 C420 1.434 . S
C422 C423 1.369 . S
C422 C424 1.419 . S
C422 H426 0.930 . S
C423 C422 1.369 . S
C423 C432 1.429 . S
C424 C422 1.419 . S
C424 C425 1.363 . S
C424 H427 0.929 . S
C425 C424 1.363 . S
C425 C431 1.428 . S
H426 C422 0.930 . S
H427 C424 0.929 . S
S428 N429 1.613 . S
S428 N430 1.610 . S
N429 S428 1.613 . S
N429 C432 1.350 . S
N430 S428 1.610 . S
N430 C431 1.351 . S
C431 C425 1.428 . S
C431 N430 1.351 . S
C431 C432 1.434 . S
C432 C423 1.429 . S
C432 N429 1.350 . S
C432 C431 1.434 . S
C433 C434 1.369 . S
C433 C435 1.419 . S
C433 H437 0.930 . S
C434 C433 1.369 . S
C434 C443 1.429 1_455 S
C435 C433 1.419 . S
C435 C436 1.363 . S
C435 H438 0.929 . S
C436 C435 1.363 . S
C436 C442 1.428 1_455 S
H437 C433 0.930 . S
H438 C435 0.929 . S
S439 N440 1.613 . S
S439 N441 1.610 . S
N440 S439 1.613 . S
N440 C443 1.350 . S
N441 S439 1.610 . S
N441 C442 1.351 . S
C442 C436 1.428 1_655 S
C442 N441 1.351 . S
C442 C443 1.434 . S
C443 C434 1.429 1_655 S
C443 N440 1.350 . S
C443 C442 1.434 . S
C444 C445 1.369 1_545 S
C444 C446 1.419 . S
C444 H448 0.930 . S
C445 C444 1.369 1_565 S
C445 C454 1.429 . S
C446 C444 1.419 . S
C446 C447 1.363 1_545 S
C446 H449 0.929 . S
C447 C446 1.363 1_565 S
C447 C453 1.428 . S
H448 C444 0.930 . S
H449 C446 0.929 . S
S450 N451 1.613 . S
S450 N452 1.610 . S
N451 S450 1.613 . S
N451 C454 1.350 . S
N452 S450 1.610 . S
N452 C453 1.351 . S
C453 C447 1.428 . S
C453 N452 1.351 . S
C453 C454 1.434 . S
C454 C445 1.429 . S
C454 N451 1.350 . S
C454 C453 1.434 . S
C455 C456 1.369 . S
C455 C457 1.419 . S
C455 H459 0.930 . S
C456 C455 1.369 . S
C456 C465 1.429 . S
C457 C455 1.419 . S
C457 C458 1.363 . S
C457 H460 0.929 . S
C458 C457 1.363 . S
C458 C464 1.428 . S
H459 C455 0.930 . S
H460 C457 0.929 . S
S461 N462 1.613 . S
S461 N463 1.610 . S
N462 S461 1.613 . S
N462 C465 1.350 . S
N463 S461 1.610 . S
N463 C464 1.351 . S
C464 C458 1.428 . S
C464 N463 1.351 . S
C464 C465 1.434 . S
C465 C456 1.429 . S
C465 N462 1.350 . S
C465 C464 1.434 . S
C466 C467 1.369 . S
C466 C468 1.419 . S
C466 H470 0.930 . S
C467 C466 1.369 . S
C467 C476 1.429 . S
C468 C466 1.419 . S
C468 C469 1.363 . S
C468 H471 0.929 . S
C469 C468 1.363 . S
C469 C475 1.428 . S
H470 C466 0.930 . S
H471 C468 0.929 . S
S472 N473 1.613 . S
S472 N474 1.610 . S
N473 S472 1.613 . S
N473 C476 1.350 . S
N474 S472 1.610 . S
N474 C475 1.351 . S
C475 C469 1.428 . S
C475 N474 1.351 . S
C475 C476 1.434 . S
C476 C467 1.429 . S
C476 N473 1.350 . S
C476 C475 1.434 . S
C477 C478 1.369 . S
C477 C479 1.419 . S
C477 H481 0.930 . S
C478 C477 1.369 . S
C478 C487 1.429 1_655 S
C479 C477 1.419 . S
C479 C480 1.363 . S
C479 H482 0.929 . S
C480 C479 1.363 . S
C480 C486 1.428 1_655 S
H481 C477 0.930 . S
H482 C479 0.929 . S
S483 N484 1.613 . S
S483 N485 1.610 . S
N484 S483 1.613 . S
N484 C487 1.350 . S
N485 S483 1.610 . S
N485 C486 1.351 . S
C486 C480 1.428 1_455 S
C486 N485 1.351 . S
C486 C487 1.434 . S
C487 C478 1.429 1_455 S
C487 N484 1.350 . S
C487 C486 1.434 . S
C488 C489 1.369 1_564 S
C488 C490 1.419 . S
C488 H492 0.930 . S
C489 C488 1.369 1_546 S
C489 C498 1.429 . S
C490 C488 1.419 . S
C490 C491 1.363 . S
C490 H493 0.929 . S
C491 C490 1.363 . S
C491 C497 1.428 1_564 S
H492 C488 0.930 . S
H493 C490 0.929 . S
S494 N495 1.613 . S
S494 N496 1.610 . S
N495 S494 1.613 . S
N495 C498 1.350 . S
N496 S494 1.610 . S
N496 C497 1.351 . S
C497 C491 1.428 1_546 S
C497 N496 1.351 . S
C497 C498 1.434 . S
C498 C489 1.429 . S
C498 N495 1.350 . S
C498 C497 1.434 . S
C499 C500 1.369 . S
C499 C501 1.419 . S
C499 H503 0.930 . S
C500 C499 1.369 . S
C500 C509 1.429 1_556 S
C501 C499 1.419 . S
C501 C502 1.363 1_556 S
C501 H504 0.929 . S
C502 C501 1.363 1_554 S
C502 C508 1.428 . S
H503 C499 0.930 . S
H504 C501 0.929 . S
S505 N506 1.613 . S
S505 N507 1.610 . S
N506 S505 1.613 . S
N506 C509 1.350 . S
N507 S505 1.610 . S
N507 C508 1.351 . S
C508 C502 1.428 . S
C508 N507 1.351 . S
C508 C509 1.434 . S
C509 C500 1.429 1_554 S
C509 N506 1.350 . S
C509 C508 1.434 . S
C510 C511 1.369 1_456 S
C510 C512 1.419 . S
C510 H514 0.930 . S
C511 C510 1.369 1_654 S
C511 C520 1.429 . S
C512 C510 1.419 . S
C512 C513 1.363 . S
C512 H515 0.929 . S
C513 C512 1.363 . S
C513 C519 1.428 1_456 S
H514 C510 0.930 . S
H515 C512 0.929 . S
S516 N517 1.613 . S
S516 N518 1.610 . S
N517 S516 1.613 . S
N517 C520 1.350 . S
N518 S516 1.610 . S
N518 C519 1.351 . S
C519 C513 1.428 1_654 S
C519 N518 1.351 . S
C519 C520 1.434 . S
C520 C511 1.429 . S
C520 N517 1.350 . S
C520 C519 1.434 . S
C521 C522 1.369 1_655 S
C521 C523 1.419 1_545 S
C521 H525 0.930 . S
C522 C521 1.369 1_455 S
C522 C531 1.429 1_556 S
C523 C521 1.419 1_565 S
C523 C524 1.363 1_556 S
C523 H526 0.929 . S
C524 C523 1.363 1_554 S
C524 C530 1.428 1_655 S
H525 C521 0.930 . S
H526 C523 0.929 . S
S527 N528 1.613 1_565 S
S527 N529 1.610 . S
N528 S527 1.613 1_545 S
N528 C531 1.350 . S
N529 S527 1.610 . S
N529 C530 1.351 . S
C530 C524 1.428 1_455 S
C530 N529 1.351 . S
C530 C531 1.434 1_565 S
C531 C522 1.429 1_554 S
C531 N528 1.350 . S
C531 C530 1.434 1_545 S
C532 C533 1.369 1_565 S
C532 C534 1.419 1_455 S
C532 H536 0.930 . S
C533 C532 1.369 1_545 S
C533 C542 1.429 . S
C534 C532 1.419 1_655 S
C534 C535 1.363 . S
C534 H537 0.929 . S
C535 C534 1.363 . S
C535 C541 1.428 1_565 S
H536 C532 0.930 . S
H537 C534 0.929 . S
S538 N539 1.597 1_655 S
S538 N540 1.610 . S
N539 S538 1.597 1_455 S
N539 C542 1.351 . S
N540 S538 1.610 . S
N540 C541 1.351 . S
C541 C535 1.428 1_545 S
C541 N540 1.351 . S
C541 C542 1.434 1_655 S
C542 C533 1.429 . S
C542 N539 1.351 . S
C542 C541 1.434 1_455 S
C543 C544 1.369 . S
C543 C545 1.419 1_565 S
C543 H547 0.930 . S
C544 C543 1.369 . S
C544 C553 1.429 . S
C545 C543 1.419 1_545 S
C545 C546 1.363 . S
C545 H548 0.929 . S
C546 C545 1.363 . S
C546 C552 1.428 . S
H547 C543 0.930 . S
H548 C545 0.929 . S
S549 N550 1.600 1_545 S
S549 N551 1.610 . S
N550 S549 1.600 1_565 S
N550 C553 1.351 . S
N551 S549 1.610 . S
N551 C552 1.351 . S
C552 C546 1.428 . S
C552 N551 1.351 . S
C552 C553 1.434 1_545 S
C553 C544 1.429 . S
C553 N550 1.351 . S
C553 C552 1.434 1_565 S
C554 C555 1.369 . S
C554 C556 1.419 . S
C554 H558 0.930 . S
C555 C554 1.369 . S
C555 C564 1.429 . S
C556 C554 1.419 . S
C556 C557 1.363 . S
C556 H559 0.929 . S
C557 C556 1.363 . S
C557 C563 1.428 . S
H558 C554 0.930 . S
H559 C556 0.929 . S
S560 N561 1.613 . S
S560 N562 1.610 . S
N561 S560 1.613 . S
N561 C564 1.350 . S
N562 S560 1.610 . S
N562 C563 1.351 . S
C563 C557 1.428 . S
C563 N562 1.351 . S
C563 C564 1.434 . S
C564 C555 1.429 . S
C564 N561 1.350 . S
C564 C563 1.434 . S
C565 C566 1.369 1_455 S
C565 C567 1.419 . S
C565 H569 0.930 . S
C566 C565 1.369 1_655 S
C566 C575 1.429 . S
C567 C565 1.419 . S
C567 C568 1.363 . S
C567 H570 0.929 . S
C568 C567 1.363 . S
C568 C574 1.428 1_455 S
H569 C565 0.930 . S
H570 C567 0.929 . S
S571 N572 1.613 . S
S571 N573 1.610 . S
N572 S571 1.613 . S
N572 C575 1.350 . S
N573 S571 1.610 . S
N573 C574 1.351 . S
C574 C568 1.428 1_655 S
C574 N573 1.351 . S
C574 C575 1.434 . S
C575 C566 1.429 . S
C575 N572 1.350 . S
C575 C574 1.434 . S
C225 C79 0.594 . S
C227 C9 0.619 . S
C236 C93 0.636 . S
C238 C23 0.630 . S
C247 C37 0.589 . S
C249 C107 0.614 . S
C258 C51 0.585 . S
C260 C65 0.598 . S
C269 C121 0.615 . S
C271 C191 0.589 . S
C280 C205 0.620 . S
C282 C135 0.617 . S
C291 C219 0.620 . S
C293 C149 0.592 . S
C302 C163 0.602 . S
C304 C177 0.582 . S
C313 C8 1.660 1_565 S
C315 C175 1.554 . S
C324 C189 1.605 . S
C326 C22 1.724 . S
C335 C36 1.704 . S
C337 C203 1.614 . S
C346 C50 1.666 1_655 S
C348 C217 1.574 . S
C357 C64 1.667 1_545 S
C359 C119 1.575 . S
C368 C78 1.706 . S
C370 C133 1.611 . S
C379 C92 1.725 . S
C381 C147 1.605 . S
C390 C106 1.656 1_455 S
C392 C161 1.561 . S
C401 C63 1.564 . S
C403 C120 1.657 1_545 S
C412 C77 1.612 . S
C414 C134 1.723 . S
C423 C91 1.614 . S
C425 C148 1.705 . S
C434 C162 1.668 1_455 S
C436 C105 1.570 . S
C445 C7 1.572 . S
C447 C176 1.666 1_565 S
C456 C190 1.705 . S
C458 C21 1.613 . S
C467 C204 1.723 . S
C469 C35 1.607 . S
C478 C49 1.558 . S
C480 C218 1.659 1_655 S
C489 C115 1.710 . S
C491 C3 1.705 . S
C500 C129 1.778 . S
C502 C17 1.767 . S
C511 C31 1.870 . S
C513 C143 1.880 . S
C522 C157 1.766 . S
C524 C45 1.753 . S
C533 C59 1.765 . S
C535 C171 1.754 . S
C544 C185 1.875 . S
C546 C73 1.876 . S
C555 C199 1.774 . S
C557 C87 1.771 . S
C566 C213 1.707 . S
C568 C101 1.707 . S
