# Generated by pormake.
# Topology whr, (6)-cn, num edge types: 1
# Building blocks:
#     Node 0, Type 0, BuildingBlock: IZENUY_clean_sbu_0, # of connection points: 6
#     Node 1, Type 0, BuildingBlock: IZENUY_clean_sbu_0, # of connection points: 6
#     Node 2, Type 0, BuildingBlock: IZENUY_clean_sbu_0, # of connection points: 6
#     Node 3, Type 0, BuildingBlock: IZENUY_clean_sbu_0, # of connection points: 6
#     Node 4, Type 0, BuildingBlock: IZENUY_clean_sbu_0, # of connection points: 6
#     Node 5, Type 0, BuildingBlock: IZENUY_clean_sbu_0, # of connection points: 6
#     Node 6, Type 0, BuildingBlock: IZENUY_clean_sbu_0, # of connection points: 6
#     Node 7, Type 0, BuildingBlock: IZENUY_clean_sbu_0, # of connection points: 6
#     Node 8, Type 0, BuildingBlock: IZENUY_clean_sbu_0, # of connection points: 6
#     Node 9, Type 0, BuildingBlock: IZENUY_clean_sbu_0, # of connection points: 6
#     Node 10, Type 0, BuildingBlock: IZENUY_clean_sbu_0, # of connection points: 6
#     Node 11, Type 0, BuildingBlock: IZENUY_clean_sbu_0, # of connection points: 6
#     Node 12, Type 0, BuildingBlock: IZENUY_clean_sbu_0, # of connection points: 6
#     Node 13, Type 0, BuildingBlock: IZENUY_clean_sbu_0, # of connection points: 6
#     Node 14, Type 0, BuildingBlock: IZENUY_clean_sbu_0, # of connection points: 6
#     Node 15, Type 0, BuildingBlock: IZENUY_clean_sbu_0, # of connection points: 6
#     Edge 16, Type (0, 0), BuildingBlock: XUDNAN_clean_linker_2, # of connection points: 2
#     Edge 17, Type (0, 0), BuildingBlock: XUDNAN_clean_linker_2, # of connection points: 2
#     Edge 18, Type (0, 0), BuildingBlock: XUDNAN_clean_linker_2, # of connection points: 2
#     Edge 19, Type (0, 0), BuildingBlock: XUDNAN_clean_linker_2, # of connection points: 2
#     Edge 20, Type (0, 0), BuildingBlock: XUDNAN_clean_linker_2, # of connection points: 2
#     Edge 21, Type (0, 0), BuildingBlock: XUDNAN_clean_linker_2, # of connection points: 2
#     Edge 22, Type (0, 0), BuildingBlock: XUDNAN_clean_linker_2, # of connection points: 2
#     Edge 23, Type (0, 0), BuildingBlock: XUDNAN_clean_linker_2, # of connection points: 2
#     Edge 24, Type (0, 0), BuildingBlock: XUDNAN_clean_linker_2, # of connection points: 2
#     Edge 25, Type (0, 0), BuildingBlock: XUDNAN_clean_linker_2, # of connection points: 2
#     Edge 26, Type (0, 0), BuildingBlock: XUDNAN_clean_linker_2, # of connection points: 2
#     Edge 27, Type (0, 0), BuildingBlock: XUDNAN_clean_linker_2, # of connection points: 2
#     Edge 28, Type (0, 0), BuildingBlock: XUDNAN_clean_linker_2, # of connection points: 2
#     Edge 29, Type (0, 0), BuildingBlock: XUDNAN_clean_linker_2, # of connection points: 2
#     Edge 30, Type (0, 0), BuildingBlock: XUDNAN_clean_linker_2, # of connection points: 2
#     Edge 31, Type (0, 0), BuildingBlock: XUDNAN_clean_linker_2, # of connection points: 2
#     Edge 32, Type (0, 0), BuildingBlock: XUDNAN_clean_linker_2, # of connection points: 2
#     Edge 33, Type (0, 0), BuildingBlock: XUDNAN_clean_linker_2, # of connection points: 2
#     Edge 34, Type (0, 0), BuildingBlock: XUDNAN_clean_linker_2, # of connection points: 2
#     Edge 35, Type (0, 0), BuildingBlock: XUDNAN_clean_linker_2, # of connection points: 2
#     Edge 36, Type (0, 0), BuildingBlock: XUDNAN_clean_linker_2, # of connection points: 2
#     Edge 37, Type (0, 0), BuildingBlock: XUDNAN_clean_linker_2, # of connection points: 2
#     Edge 38, Type (0, 0), BuildingBlock: XUDNAN_clean_linker_2, # of connection points: 2
#     Edge 39, Type (0, 0), BuildingBlock: XUDNAN_clean_linker_2, # of connection points: 2
#     Edge 40, Type (0, 0), BuildingBlock: XUDNAN_clean_linker_2, # of connection points: 2
#     Edge 41, Type (0, 0), BuildingBlock: XUDNAN_clean_linker_2, # of connection points: 2
#     Edge 42, Type (0, 0), BuildingBlock: XUDNAN_clean_linker_2, # of connection points: 2
#     Edge 43, Type (0, 0), BuildingBlock: XUDNAN_clean_linker_2, # of connection points: 2
#     Edge 44, Type (0, 0), BuildingBlock: XUDNAN_clean_linker_2, # of connection points: 2
#     Edge 45, Type (0, 0), BuildingBlock: XUDNAN_clean_linker_2, # of connection points: 2
#     Edge 46, Type (0, 0), BuildingBlock: XUDNAN_clean_linker_2, # of connection points: 2
#     Edge 47, Type (0, 0), BuildingBlock: XUDNAN_clean_linker_2, # of connection points: 2
#     Edge 48, Type (0, 0), BuildingBlock: XUDNAN_clean_linker_2, # of connection points: 2
#     Edge 49, Type (0, 0), BuildingBlock: XUDNAN_clean_linker_2, # of connection points: 2
#     Edge 50, Type (0, 0), BuildingBlock: XUDNAN_clean_linker_2, # of connection points: 2
#     Edge 51, Type (0, 0), BuildingBlock: XUDNAN_clean_linker_2, # of connection points: 2
#     Edge 52, Type (0, 0), BuildingBlock: XUDNAN_clean_linker_2, # of connection points: 2
#     Edge 53, Type (0, 0), BuildingBlock: XUDNAN_clean_linker_2, # of connection points: 2
#     Edge 54, Type (0, 0), BuildingBlock: XUDNAN_clean_linker_2, # of connection points: 2
#     Edge 55, Type (0, 0), BuildingBlock: XUDNAN_clean_linker_2, # of connection points: 2
#     Edge 56, Type (0, 0), BuildingBlock: XUDNAN_clean_linker_2, # of connection points: 2
#     Edge 57, Type (0, 0), BuildingBlock: XUDNAN_clean_linker_2, # of connection points: 2
#     Edge 58, Type (0, 0), BuildingBlock: XUDNAN_clean_linker_2, # of connection points: 2
#     Edge 59, Type (0, 0), BuildingBlock: XUDNAN_clean_linker_2, # of connection points: 2
#     Edge 60, Type (0, 0), BuildingBlock: XUDNAN_clean_linker_2, # of connection points: 2
#     Edge 61, Type (0, 0), BuildingBlock: XUDNAN_clean_linker_2, # of connection points: 2
#     Edge 62, Type (0, 0), BuildingBlock: XUDNAN_clean_linker_2, # of connection points: 2
#     Edge 63, Type (0, 0), BuildingBlock: XUDNAN_clean_linker_2, # of connection points: 2
# Relax obj value: 0.339
# Max RMSD: 0.260
# Mean RMSD: 0.260
data_MOF--net-whr--node1-IZENUY_clean_sbu_0--edge1-XUDNAN_clean_linker_2
_symmetry_space_group_name_H-M    P1
_symmetry_Int_Tables_number       1
_symmetry_cell_setting            triclinic
loop_
_symmetry_equiv_pos_as_xyz
'x, y, z'
_cell_length_a     47.891054
_cell_length_b     47.831666
_cell_length_c     28.041322
_cell_angle_alpha  90.013529
_cell_angle_beta   90.070314
_cell_angle_gamma 89.934576
loop_
_atom_site_label
_atom_site_type_symbol
_atom_site_fract_x
_atom_site_fract_y
_atom_site_fract_z
_atom_type_partial_charge
Fe0 Fe 0.20215 0.06635 0.11296 0.0
Fe1 Fe 0.2558 0.04876 0.05925 0.0
O2 O 0.22955 0.07409 0.07256 0.0
Fe3 Fe 0.23049 0.10734 0.04455 0.0
O4 O 0.19304 0.11359 0.04602 0.0
O5 O 0.17484 0.07419 0.06953 0.0
O6 O 0.19882 0.02979 0.09529 0.0
C7 C 0.20785 0.01649 0.0596 0.0
C8 C 0.21809 0.12171 0.13704 0.0
O9 O 0.22978 0.02381 0.03797 0.0
C10 C 0.28816 0.09566 0.05834 0.0
O11 O 0.22644 0.05807 0.16015 0.0
O12 O 0.25595 0.0326 0.1189 0.0
O13 O 0.23447 0.12533 0.102 0.0
O14 O 0.201 0.10153 0.13777 0.0
C15 C 0.24333 0.07294 0.9697 0.0
O16 O 0.28427 0.07218 0.07831 0.0
O17 O 0.26819 0.10808 0.03794 0.0
C18 C 0.24545 0.03995 0.1584 0.0
O19 O 0.2598 0.05985 0.9971 0.0
O20 O 0.22642 0.09107 0.98575 0.0
C21 C 0.17213 0.09794 0.05083 0.0
Fe22 Fe 0.04267 0.77511 0.95583 0.0
Fe23 Fe 0.10368 0.79078 0.97911 0.0
O24 O 0.07268 0.79603 0.94546 0.0
Fe25 Fe 0.07185 0.8224 0.90139 0.0
O26 O 0.04403 0.84055 0.9319 0.0
O27 O 0.01753 0.80363 0.94383 0.0
O28 O 0.04131 0.78576 0.01745 0.0
C29 C 0.06049 0.78183 0.04735 0.0
C30 C 0.03957 0.7792 0.85887 0.0
O31 O 0.08565 0.77929 0.03396 0.0
C32 C 0.12388 0.80186 0.8857 0.0
O33 O 0.06286 0.74306 0.97095 0.0
O34 O 0.10651 0.75527 0.95778 0.0
O35 O 0.04725 0.80438 0.86218 0.0
O36 O 0.04111 0.76297 0.89429 0.0
C37 C 0.10281 0.84769 0.97583 0.0
O38 O 0.12741 0.80095 0.9305 0.0
O39 O 0.09985 0.80574 0.86843 0.0
C40 C 0.08835 0.73662 0.96442 0.0
O41 O 0.10315 0.82637 1.00241 0.0
O42 O 0.09603 0.84582 0.93236 0.0
C43 C 0.0209 0.82999 0.94341 0.0
Fe44 Fe 0.78664 0.90841 0.02493 0.0
Fe45 Fe 0.81472 0.94829 0.09545 0.0
O46 O 0.7862 0.94021 0.05748 0.0
Fe47 Fe 0.75756 0.9636 0.05053 0.0
O48 O 0.75259 0.95549 0.98699 0.0
O49 O 0.78791 0.92771 0.96878 0.0
O50 O 0.82464 0.90475 0.02201 0.0
C51 C 0.84387 0.92263 0.02471 0.0
C52 C 0.72884 0.91461 0.04524 0.0
O53 O 0.83995 0.94498 0.04732 0.0
C54 C 0.7717 0.96907 0.14951 0.0
O55 O 0.78557 0.88808 0.08004 0.0
O56 O 0.81965 0.91192 0.1145 0.0
O57 O 0.73198 0.93704 0.06854 0.0
O58 O 0.74879 0.90503 0.02078 0.0
C59 C 0.80239 0.99999 0.05125 0.0
O60 O 0.79243 0.95285 0.14697 0.0
O61 O 0.75831 0.97626 0.11245 0.0
C62 C 0.80362 0.89084 0.11279 0.0
O63 O 0.81441 0.98567 0.08298 0.0
O64 O 0.78018 0.99196 0.03134 0.0
C65 C 0.76971 0.94566 0.95686 0.0
Fe66 Fe 0.95057 0.18883 0.91927 0.0
Fe67 Fe 0.97004 0.24466 0.96091 0.0
O68 O 0.94353 0.21919 0.95349 0.0
Fe69 Fe 0.9104 0.22378 0.97984 0.0
O70 O 0.91248 0.19088 0.011 0.0
O71 O 0.92552 0.16578 0.95006 0.0
O72 O 0.97723 0.17777 0.96114 0.0
C73 C 0.99803 0.19287 0.97141 0.0
C74 C 0.8992 0.20342 0.88552 0.0
O75 O 0.99854 0.21866 0.96027 0.0
C76 C 0.92024 0.27807 0.95755 0.0
O77 O 0.97654 0.20576 0.8809 0.0
O78 O 0.97241 0.25052 0.89664 0.0
O79 O 0.89127 0.20841 0.92816 0.0
O80 O 0.92456 0.19875 0.87623 0.0
C81 C 0.94929 0.24062 0.0518 0.0
O82 O 0.94613 0.27525 0.96611 0.0
O83 O 0.90537 0.25688 0.95088 0.0
C84 C 0.97928 0.23103 0.86847 0.0
O85 O 0.96992 0.23988 0.02418 0.0
O86 O 0.92438 0.23986 0.0357 0.0
C87 C 0.91386 0.16766 0.99036 0.0
Fe88 Fe 0.81949 0.06221 0.59659 0.0
Fe89 Fe 0.76304 0.04806 0.54841 0.0
O90 O 0.79161 0.07116 0.55756 0.0
Fe91 Fe 0.79239 0.10335 0.5262 0.0
O92 O 0.8304 0.10692 0.52453 0.0
O93 O 0.84591 0.0669 0.55084 0.0
O94 O 0.81956 0.02486 0.58121 0.0
C95 C 0.80812 0.01181 0.54711 0.0
C96 C 0.80817 0.11953 0.61592 0.0
O97 O 0.78617 0.02078 0.52742 0.0
C98 C 0.73442 0.09704 0.54564 0.0
O99 O 0.79634 0.05664 0.64652 0.0
O100 O 0.76312 0.03372 0.60921 0.0
O101 O 0.7909 0.123 0.58208 0.0
O102 O 0.82377 0.09811 0.61819 0.0
C103 C 0.77572 0.06738 0.45604 0.0
O104 O 0.73738 0.07418 0.56778 0.0
O105 O 0.75447 0.10689 0.52168 0.0
C106 C 0.7756 0.04055 0.64728 0.0
O107 O 0.75828 0.0576 0.48553 0.0
O108 O 0.7941 0.08484 0.46907 0.0
C109 C 0.85003 0.08962 0.52941 0.0
Fe110 Fe 0.06402 0.19925 0.41074 0.0
Fe111 Fe 0.04743 0.25201 0.4673 0.0
O112 O 0.07226 0.22571 0.45273 0.0
Fe113 Fe 0.10523 0.22533 0.4815 0.0
O114 O 0.1102 0.18743 0.47914 0.0
O115 O 0.07002 0.17146 0.45389 0.0
O116 O 0.02681 0.19713 0.42632 0.0
C117 C 0.01442 0.20477 0.46392 0.0
C118 C 0.1207 0.21287 0.39032 0.0
O119 O 0.02258 0.22578 0.48717 0.0
C120 C 0.0948 0.28362 0.47034 0.0
O121 O 0.05729 0.22472 0.36442 0.0
O122 O 0.03157 0.25337 0.40715 0.0
O123 O 0.12353 0.22971 0.42482 0.0
O124 O 0.09981 0.19665 0.38778 0.0
C125 C 0.07004 0.23672 0.55631 0.0
O126 O 0.07123 0.28055 0.45023 0.0
O127 O 0.10682 0.263 0.4897 0.0
C128 C 0.03901 0.24366 0.36697 0.0
O129 O 0.05803 0.25457 0.52995 0.0
O130 O 0.08872 0.22071 0.53965 0.0
C131 C 0.09302 0.16762 0.47478 0.0
Fe132 Fe 0.19573 0.94625 0.61882 0.0
Fe133 Fe 0.24475 0.97205 0.565 0.0
O134 O 0.22256 0.94317 0.5761 0.0
Fe135 Fe 0.22637 0.91111 0.54527 0.0
O136 O 0.19071 0.91249 0.52237 0.0
O137 O 0.17284 0.91988 0.59255 0.0
O138 O 0.17835 0.97199 0.5827 0.0
C139 C 0.1895 0.9945 0.56889 0.0
C140 C 0.21744 0.89574 0.64198 0.0
O141 O 0.21593 0.99802 0.57157 0.0
C142 C 0.28143 0.92427 0.56034 0.0
O143 O 0.21241 0.97336 0.65431 0.0
O144 O 0.25514 0.97498 0.62771 0.0
O145 O 0.21644 0.88957 0.59778 0.0
O146 O 0.2127 0.92042 0.65595 0.0
C147 C 0.23714 0.95217 0.47382 0.0
O148 O 0.27666 0.9503 0.55441 0.0
O149 O 0.26168 0.90724 0.5655 0.0
C150 C 0.23767 0.97963 0.66046 0.0
O151 O 0.23615 0.97224 0.50265 0.0
O152 O 0.23767 0.92705 0.48834 0.0
C153 C 0.16996 0.91224 0.54982 0.0
Fe154 Fe 0.95333 0.81518 0.39835 0.0
Fe155 Fe 0.96937 0.76276 0.45441 0.0
O156 O 0.94476 0.78951 0.44139 0.0
Fe157 Fe 0.91205 0.79089 0.47077 0.0
O158 O 0.91753 0.82652 0.49168 0.0
O159 O 0.93142 0.84284 0.42315 0.0
O160 O 0.98212 0.82764 0.43465 0.0
C161 C 1.00175 0.81184 0.44816 0.0
C162 C 0.89978 0.8031 0.37272 0.0
O163 O 0.99978 0.78545 0.44482 0.0
C164 C 0.91722 0.73419 0.46193 0.0
O165 O 0.97626 0.79256 0.36383 0.0
O166 O 0.96967 0.75049 0.39275 0.0
O167 O 0.89287 0.80274 0.41666 0.0
O168 O 0.92514 0.80381 0.36046 0.0
C169 C 0.95105 0.77659 0.54419 0.0
O170 O 0.94336 0.73548 0.46835 0.0
O171 O 0.90336 0.75584 0.45266 0.0
C172 C 0.97584 0.76639 0.3584 0.0
O173 O 0.97116 0.77334 0.51587 0.0
O174 O 0.92606 0.77893 0.5292 0.0
C175 C 0.92049 0.84673 0.46347 0.0
Fe176 Fe 0.7474 0.5454 0.57079 0.0
Fe177 Fe 0.72114 0.60131 0.53857 0.0
O178 O 0.72028 0.57069 0.57385 0.0
Fe179 Fe 0.69184 0.56526 0.61306 0.0
O180 O 0.68127 0.53438 0.5799 0.0
O181 O 0.72349 0.51569 0.58069 0.0
O182 O 0.74206 0.53999 0.50803 0.0
C183 C 0.74173 0.55858 0.47634 0.0
C184 C 0.7372 0.54314 0.66573 0.0
O185 O 0.73729 0.58411 0.48627 0.0
C186 C 0.70414 0.61976 0.63047 0.0
O187 O 0.77573 0.57076 0.55894 0.0
O188 O 0.75452 0.61144 0.56243 0.0
O189 O 0.71143 0.54413 0.65613 0.0
O190 O 0.75506 0.5485 0.63406 0.0
C191 C 0.66538 0.59228 0.5352 0.0
O192 O 0.70548 0.62378 0.58564 0.0
O193 O 0.70164 0.59551 0.64754 0.0
C194 C 0.77662 0.59725 0.56097 0.0
O195 O 0.68758 0.59365 0.5115 0.0
O196 O 0.66618 0.58578 0.57881 0.0
C197 C 0.69726 0.51355 0.5744 0.0
Fe198 Fe 0.54134 0.26628 0.46645 0.0
Fe199 Fe 0.60267 0.28132 0.48578 0.0
O200 O 0.57062 0.28826 0.45694 0.0
Fe201 Fe 0.56765 0.31735 0.41879 0.0
O202 O 0.54106 0.33244 0.4561 0.0
O203 O 0.51516 0.29461 0.45939 0.0
O204 O 0.54135 0.27464 0.5288 0.0
C205 C 0.56159 0.2713 0.55683 0.0
C206 C 0.53626 0.27537 0.37144 0.0
O207 O 0.58622 0.26751 0.54109 0.0
C208 C 0.61864 0.29824 0.392 0.0
O209 O 0.56232 0.23397 0.47698 0.0
O210 O 0.60469 0.24734 0.45849 0.0
O211 O 0.54191 0.30083 0.37941 0.0
O212 O 0.53926 0.25713 0.40366 0.0
C213 C 0.60237 0.33798 0.49319 0.0
O214 O 0.62457 0.29417 0.43572 0.0
O215 O 0.59399 0.30367 0.37952 0.0
C216 C 0.58746 0.2281 0.46632 0.0
O217 O 0.60287 0.31496 0.51485 0.0
O218 O 0.59308 0.33943 0.45093 0.0
C219 C 0.5181 0.32081 0.46513 0.0
Fe220 Fe 0.26742 0.47216 0.56349 0.0
Fe221 Fe 0.28512 0.41124 0.54213 0.0
O222 O 0.28972 0.4431 0.57351 0.0
Fe223 Fe 0.31706 0.44606 0.61529 0.0
O224 O 0.33333 0.47312 0.58022 0.0
O225 O 0.29527 0.49863 0.5728 0.0
O226 O 0.27685 0.47321 0.50156 0.0
C227 C 0.27488 0.45342 0.47222 0.0
C228 C 0.27409 0.47723 0.65928 0.0
O229 O 0.273 0.4282 0.48622 0.0
C230 C 0.29728 0.39454 0.63738 0.0
O231 O 0.23593 0.45072 0.55033 0.0
O232 O 0.24993 0.40767 0.56424 0.0
O233 O 0.29954 0.47164 0.65282 0.0
O234 O 0.25666 0.47358 0.62597 0.0
C235 C 0.34187 0.41393 0.54298 0.0
O236 O 0.29635 0.38903 0.59299 0.0
O237 O 0.3018 0.41907 0.65193 0.0
C238 C 0.23055 0.425 0.5572 0.0
O239 O 0.32025 0.41231 0.51754 0.0
O240 O 0.34038 0.42123 0.58608 0.0
C241 C 0.32161 0.49584 0.5691 0.0
Fe242 Fe 0.4677 0.74937 0.46373 0.0
Fe243 Fe 0.40746 0.72799 0.48035 0.0
O244 O 0.44017 0.72561 0.45061 0.0
Fe245 Fe 0.44556 0.69916 0.40761 0.0
O246 O 0.47367 0.68395 0.44183 0.0
O247 O 0.49598 0.72352 0.45388 0.0
O248 O 0.46815 0.73835 0.52505 0.0
C249 C 0.44768 0.73821 0.55311 0.0
C250 C 0.4737 0.74549 0.36747 0.0
O251 O 0.42274 0.73957 0.53779 0.0
C252 C 0.39289 0.71541 0.38368 0.0
O253 O 0.44431 0.7794 0.47741 0.0
O254 O 0.40235 0.76353 0.46058 0.0
O255 O 0.46974 0.71951 0.37159 0.0
O256 O 0.46967 0.76177 0.40227 0.0
C257 C 0.41339 0.67121 0.47724 0.0
O258 O 0.38665 0.7168 0.42774 0.0
O259 O 0.41794 0.71284 0.37077 0.0
C260 C 0.41847 0.7836 0.46984 0.0
O261 O 0.40972 0.69246 0.50297 0.0
O262 O 0.42242 0.67347 0.43517 0.0
C263 C 0.49537 0.69697 0.45402 0.0
Fe264 Fe 0.30928 0.56794 0.11451 0.0
Fe265 Fe 0.25615 0.55043 0.06018 0.0
O266 O 0.28312 0.57508 0.07153 0.0
Fe267 Fe 0.28415 0.60688 0.03926 0.0
O268 O 0.32216 0.6107 0.04059 0.0
O269 O 0.33719 0.57128 0.0709 0.0
O270 O 0.31004 0.53029 0.10353 0.0
C271 C 0.30169 0.51563 0.06883 0.0
C272 C 0.29708 0.62532 0.1288 0.0
O273 O 0.2815 0.52353 0.04304 0.0
C274 C 0.22589 0.59862 0.0532 0.0
O275 O 0.28363 0.56396 0.16146 0.0
O276 O 0.25484 0.53697 0.12159 0.0
O277 O 0.28054 0.62747 0.0938 0.0
O278 O 0.31306 0.6044 0.13328 0.0
C279 C 0.27001 0.57036 0.96847 0.0
O280 O 0.22861 0.57571 0.07551 0.0
O281 O 0.24647 0.60934 0.03179 0.0
C282 C 0.26453 0.54583 0.16084 0.0
O283 O 0.25296 0.55903 0.99686 0.0
O284 O 0.28774 0.58807 0.98287 0.0
C285 C 0.34162 0.59334 0.04754 0.0
Fe286 Fe 0.56614 0.69241 0.91655 0.0
Fe287 Fe 0.53905 0.74272 0.96533 0.0
O288 O 0.56883 0.7217 0.95446 0.0
Fe289 Fe 0.60112 0.72984 0.98151 0.0
O290 O 0.603 0.69627 0.01075 0.0
O291 O 0.59298 0.67137 0.94737 0.0
O292 O 0.54082 0.67637 0.95536 0.0
C293 C 0.51776 0.68733 0.96614 0.0
C294 C 0.61582 0.71332 0.88688 0.0
O295 O 0.51383 0.71342 0.96022 0.0
C296 C 0.58382 0.78248 0.96288 0.0
O297 O 0.53903 0.7079 0.87839 0.0
O298 O 0.53552 0.75152 0.90266 0.0
O299 O 0.62249 0.71756 0.93026 0.0
O300 O 0.59117 0.70696 0.87585 0.0
C301 C 0.5609 0.73962 0.05464 0.0
O302 O 0.55903 0.77579 0.97442 0.0
O303 O 0.60149 0.7638 0.95388 0.0
C304 C 0.53251 0.73319 0.87064 0.0
O305 O 0.54052 0.73476 0.02763 0.0
O306 O 0.58525 0.74346 0.03767 0.0
C307 C 0.60293 0.6732 0.98916 0.0
Fe308 Fe 0.69524 0.44883 0.11505 0.0
Fe309 Fe 0.75 0.46652 0.06875 0.0
O310 O 0.72296 0.44146 0.07544 0.0
Fe311 Fe 0.72333 0.40954 0.04306 0.0
O312 O 0.68901 0.41552 0.01725 0.0
O313 O 0.66876 0.42844 0.08364 0.0
O314 O 0.68465 0.47881 0.07962 0.0
C315 C 0.70069 0.49926 0.07221 0.0
C316 C 0.70717 0.39455 0.1373 0.0
O317 O 0.72686 0.4969 0.07839 0.0
C318 C 0.77934 0.41452 0.05984 0.0
O319 O 0.7159 0.47072 0.15507 0.0
O320 O 0.75923 0.46485 0.13201 0.0
O321 O 0.70875 0.38882 0.09305 0.0
O322 O 0.70478 0.41939 0.15189 0.0
C323 C 0.74036 0.45089 0.97604 0.0
O324 O 0.77803 0.44089 0.05597 0.0
O325 O 0.75749 0.40031 0.06541 0.0
C326 C 0.74177 0.47179 0.1637 0.0
O327 O 0.74218 0.47022 1.00634 0.0
O328 O 0.73804 0.4254 0.98829 0.0
C329 C 0.66727 0.42027 0.04103 0.0
Fe330 Fe 0.46876 0.27401 0.96697 0.0
Fe331 Fe 0.40694 0.28718 0.98499 0.0
O332 O 0.43864 0.29447 0.95534 0.0
Fe333 Fe 0.44042 0.32243 0.91439 0.0
O334 O 0.46683 0.33984 0.94982 0.0
O335 O 0.49377 0.30289 0.95724 0.0
O336 O 0.46841 0.28424 0.02866 0.0
C337 C 0.44842 0.28006 0.05682 0.0
C338 C 0.47366 0.28009 0.87119 0.0
O339 O 0.42392 0.27545 0.04115 0.0
C340 C 0.38987 0.30104 0.89013 0.0
O341 O 0.44921 0.24136 0.98027 0.0
O342 O 0.40609 0.25208 0.96106 0.0
O343 O 0.46668 0.30551 0.87632 0.0
O344 O 0.47124 0.26294 0.90519 0.0
C345 C 0.40504 0.34411 0.98706 0.0
O346 O 0.38444 0.29782 0.93419 0.0
O347 O 0.41432 0.30658 0.87672 0.0
C348 C 0.42437 0.23396 0.97048 0.0
O349 O 0.40566 0.32181 0.01092 0.0
O350 O 0.41414 0.34459 0.94463 0.0
C351 C 0.49018 0.32915 0.95998 0.0
H352 H 0.20488 0.11004 0.22791 0.0
H353 H 0.22309 0.17945 0.13389 0.0
H354 H 0.2067 0.21251 0.19635 0.0
H355 H 0.14252 0.13365 0.26451 0.0
H356 H 0.14477 0.12089 0.32489 0.0
H357 H 0.16411 0.10383 0.27846 0.0
H358 H 0.21006 0.11107 0.32539 0.0
H359 H 0.19082 0.128 0.37245 0.0
H360 H 0.21977 0.14569 0.34472 0.0
H361 H 0.18052 0.23706 0.2652 0.0
H362 H 0.14751 0.24966 0.33027 0.0
H363 H 0.14527 0.16312 0.37499 0.0
C364 C 0.20639 0.13229 0.22106 0.0
C365 C 0.21547 0.14225 0.17631 0.0
C366 C 0.21673 0.17143 0.16831 0.0
C367 C 0.20731 0.19029 0.20356 0.0
C368 C 0.19707 0.17957 0.24659 0.0
C369 C 0.19695 0.15112 0.25542 0.0
C370 C 0.18173 0.14412 0.30109 0.0
C371 C 0.15681 0.12449 0.29162 0.0
C372 C 0.20181 0.13148 0.3381 0.0
C373 C 0.17213 0.17292 0.31587 0.0
C374 C 0.18161 0.19332 0.28487 0.0
C375 C 0.17348 0.22127 0.29006 0.0
C376 C 0.15481 0.22831 0.32708 0.0
C377 C 0.14415 0.20734 0.35756 0.0
C378 C 0.15343 0.17955 0.35234 0.0
H379 H 0.12669 0.79488 0.7889 0.0
H380 H 0.17573 0.81982 0.91184 0.0
H381 H 0.21236 0.83777 0.85869 0.0
H382 H 0.19041 0.77811 0.70803 0.0
H383 H 0.17188 0.79134 0.65677 0.0
H384 H 0.15307 0.77396 0.70389 0.0
H385 H 0.12085 0.81722 0.71261 0.0
H386 H 0.13957 0.8345 0.66592 0.0
H387 H 0.13627 0.85104 0.72338 0.0
H388 H 0.23529 0.8652 0.79562 0.0
H389 H 0.24538 0.89527 0.72621 0.0
H390 H 0.18677 0.84782 0.64117 0.0
C391 C 0.14572 0.80302 0.80449 0.0
C392 C 0.14835 0.80598 0.8544 0.0
C393 C 0.17333 0.81708 0.87371 0.0
C394 C 0.19432 0.82733 0.84374 0.0
C395 C 0.19045 0.82552 0.79458 0.0
C396 C 0.16716 0.81283 0.77497 0.0
C397 C 0.16649 0.81647 0.72129 0.0
C398 C 0.17073 0.78829 0.69601 0.0
C399 C 0.1392 0.83067 0.70493 0.0
C400 C 0.19157 0.83534 0.71438 0.0
C401 C 0.20533 0.84002 0.75707 0.0
C402 C 0.22559 0.8608 0.76157 0.0
C403 C 0.23118 0.87782 0.72206 0.0
C404 C 0.217 0.87359 0.67843 0.0
C405 C 0.19814 0.85115 0.67393 0.0
H406 H 0.90911 0.8129 0.27823 0.0
H407 H 0.84236 0.80517 0.38194 0.0
H408 H 0.80814 0.81906 0.31997 0.0
H409 H 0.8861 0.87396 0.22978 0.0
H410 H 0.89686 0.86623 0.1696 0.0
H411 H 0.91473 0.85028 0.2189 0.0
H412 H 0.90463 0.80136 0.18373 0.0
H413 H 0.88652 0.81713 0.1342 0.0
H414 H 0.8692 0.79131 0.17041 0.0
H415 H 0.78217 0.83977 0.24883 0.0
H416 H 0.76817 0.86854 0.17901 0.0
H417 H 0.85267 0.86425 0.125 0.0
C418 C 0.88722 0.81332 0.28786 0.0
C419 C 0.87844 0.8077 0.33503 0.0
C420 C 0.8496 0.80914 0.34601 0.0
C421 C 0.83 0.81692 0.31094 0.0
C422 C 0.83957 0.82309 0.26509 0.0
C423 C 0.86759 0.82135 0.25367 0.0
C424 C 0.87334 0.83249 0.20417 0.0
C425 C 0.89395 0.85721 0.20576 0.0
C426 C 0.88404 0.80917 0.17118 0.0
C427 C 0.84433 0.84184 0.19 0.0
C428 C 0.82491 0.83562 0.22492 0.0
C429 C 0.7971 0.84424 0.22093 0.0
C430 C 0.78925 0.86039 0.18112 0.0
C431 C 0.8093 0.86805 0.14661 0.0
C432 C 0.83689 0.85805 0.15057 0.0
H433 H 0.85752 0.14405 0.6336 0.0
H434 H 0.77131 0.14275 0.67937 0.0
H435 H 0.78404 0.17054 0.75108 0.0
H436 H 0.88666 0.132 0.74043 0.0
H437 H 0.91666 0.15433 0.73326 0.0
H438 H 0.8998 0.13982 0.68169 0.0
H439 H 0.89267 0.18938 0.64672 0.0
H440 H 0.90987 0.20417 0.69804 0.0
H441 H 0.87534 0.2158 0.68179 0.0
H442 H 0.80854 0.19067 0.82495 0.0
H443 H 0.84136 0.20352 0.88987 0.0
H444 H 0.9108 0.19246 0.79232 0.0
C445 C 0.84117 0.15071 0.65776 0.0
C446 C 0.81343 0.14182 0.65094 0.0
C447 C 0.79257 0.15006 0.68367 0.0
C448 C 0.79969 0.16567 0.72453 0.0
C449 C 0.82762 0.17318 0.73135 0.0
C450 C 0.84789 0.16644 0.6981 0.0
C451 C 0.87675 0.17435 0.71524 0.0
C452 C 0.89607 0.14859 0.71783 0.0
C453 C 0.88939 0.1973 0.68357 0.0
C454 C 0.86984 0.1854 0.76433 0.0
C455 C 0.84146 0.1849 0.77311 0.0
C456 C 0.83073 0.19175 0.81798 0.0
C457 C 0.84952 0.19897 0.85472 0.0
C458 C 0.8787 0.19909 0.84637 0.0
C459 C 0.88866 0.19281 0.80012 0.0
H460 H 0.60745 0.71066 0.79082 0.0
H461 H 0.67254 0.70664 0.89837 0.0
H462 H 0.70596 0.69067 0.83703 0.0
H463 H 0.62208 0.65016 0.73758 0.0
H464 H 0.61496 0.66056 0.67702 0.0
H465 H 0.59811 0.67839 0.72537 0.0
H466 H 0.61711 0.72562 0.6956 0.0
H467 H 0.63435 0.70841 0.64656 0.0
H468 H 0.65412 0.73015 0.68671 0.0
H469 H 0.72862 0.66512 0.76996 0.0
H470 H 0.73917 0.63395 0.70194 0.0
H471 H 0.66015 0.65553 0.63666 0.0
C472 C 0.629 0.70738 0.80122 0.0
C473 C 0.6374 0.70993 0.84945 0.0
C474 C 0.66568 0.70512 0.86165 0.0
C475 C 0.6848 0.69603 0.82697 0.0
C476 C 0.67544 0.69235 0.78018 0.0
C477 C 0.64825 0.69834 0.76711 0.0
C478 C 0.64233 0.68938 0.71621 0.0
C479 C 0.61795 0.66838 0.71396 0.0
C480 C 0.63665 0.71491 0.68439 0.0
C481 C 0.66989 0.67571 0.70359 0.0
C482 C 0.68891 0.67814 0.74066 0.0
C483 C 0.71436 0.66396 0.74006 0.0
C484 C 0.72022 0.64634 0.70136 0.0
C485 C 0.70085 0.64326 0.66368 0.0
C486 C 0.67576 0.65866 0.66415 0.0
H487 H 0.6126 0.29932 0.29536 0.0
H488 H 0.67428 0.30917 0.40753 0.0
H489 H 0.70789 0.32737 0.34842 0.0
H490 H 0.66344 0.28279 0.19501 0.0
H491 H 0.64267 0.30255 0.15324 0.0
H492 H 0.62603 0.28432 0.20176 0.0
H493 H 0.60259 0.33046 0.22857 0.0
H494 H 0.61922 0.34883 0.1806 0.0
H495 H 0.62406 0.36053 0.24117 0.0
H496 H 0.73011 0.35433 0.28248 0.0
H497 H 0.74034 0.38502 0.2137 0.0
H498 H 0.66532 0.3563 0.14295 0.0
C499 C 0.63354 0.30433 0.30724 0.0
C500 C 0.64085 0.30278 0.35609 0.0
C501 C 0.6683 0.30988 0.37029 0.0
C502 C 0.68752 0.32028 0.33689 0.0
C503 C 0.67912 0.32292 0.28939 0.0
C504 C 0.6529 0.31463 0.27439 0.0
C505 C 0.6477 0.32266 0.22281 0.0
C506 C 0.6448 0.29651 0.19135 0.0
C507 C 0.62189 0.34176 0.21807 0.0
C508 C 0.67443 0.33826 0.21187 0.0
C509 C 0.69246 0.33782 0.25054 0.0
C510 C 0.71669 0.35396 0.2514 0.0
C511 C 0.72234 0.37133 0.21231 0.0
C512 C 0.70404 0.37218 0.17277 0.0
C513 C 0.68019 0.35497 0.17202 0.0
H514 H 0.39423 0.30086 0.79304 0.0
H515 H 0.33449 0.31183 0.90771 0.0
H516 H 0.29969 0.32907 0.84969 0.0
H517 H 0.38125 0.36106 0.73678 0.0
H518 H 0.38495 0.34851 0.67649 0.0
H519 H 0.40262 0.33087 0.72427 0.0
H520 H 0.37889 0.28429 0.70068 0.0
H521 H 0.3612 0.30179 0.65234 0.0
H522 H 0.34138 0.28259 0.69602 0.0
H523 H 0.27616 0.35534 0.78406 0.0
H524 H 0.26479 0.38553 0.71502 0.0
H525 H 0.33833 0.35563 0.64145 0.0
C526 C 0.37346 0.30587 0.80571 0.0
C527 C 0.36706 0.3049 0.85493 0.0
C528 C 0.3398 0.31205 0.87017 0.0
C529 C 0.31988 0.32191 0.83741 0.0
C530 C 0.32736 0.32395 0.78942 0.0
C531 C 0.35335 0.31557 0.77344 0.0
C532 C 0.35747 0.32288 0.7213 0.0
C533 C 0.38306 0.34196 0.71436 0.0
C534 C 0.35986 0.2963 0.69079 0.0
C535 C 0.33043 0.33824 0.71116 0.0
C536 C 0.31314 0.33829 0.75073 0.0
C537 C 0.28894 0.35454 0.75229 0.0
C538 C 0.2826 0.3716 0.71301 0.0
C539 C 0.30017 0.37197 0.67258 0.0
C540 C 0.32392 0.35456 0.67115 0.0
H541 H 0.34395 0.65582 0.13678 0.0
H542 H 0.26164 0.64501 0.19721 0.0
H543 H 0.27508 0.6748 0.266 0.0
H544 H 0.38024 0.64774 0.23686 0.0
H545 H 0.40699 0.67339 0.22557 0.0
H546 H 0.389 0.65738 0.17652 0.0
H547 H 0.37429 0.70597 0.14469 0.0
H548 H 0.39271 0.72227 0.19339 0.0
H549 H 0.35633 0.73008 0.18344 0.0
H550 H 0.301 0.69703 0.33532 0.0
H551 H 0.33576 0.71146 0.39591 0.0
H552 H 0.40054 0.70893 0.28788 0.0
C553 C 0.3284 0.66098 0.16342 0.0
C554 C 0.30162 0.64886 0.16154 0.0
C555 C 0.28198 0.6549 0.19763 0.0
C556 C 0.28953 0.67166 0.23684 0.0
C557 C 0.31662 0.68245 0.23877 0.0
C558 C 0.33555 0.67782 0.20231 0.0
C559 C 0.36423 0.68883 0.21496 0.0
C560 C 0.38638 0.66543 0.21342 0.0
C561 C 0.37235 0.71325 0.18218 0.0
C562 C 0.359 0.69882 0.26536 0.0
C563 C 0.33138 0.69544 0.27839 0.0
C564 C 0.3225 0.70046 0.32507 0.0
C565 C 0.34241 0.70862 0.35933 0.0
C566 C 0.37091 0.71147 0.3468 0.0
C567 C 0.37891 0.70728 0.29876 0.0
H568 H 0.21737 0.95951 0.06014 0.0
H569 H 0.15752 0.02327 0.01953 0.0
H570 H 0.12358 0.98674 0.99706 0.0
H571 H 0.19879 0.90896 0.9663 0.0
H572 H 0.20315 0.87906 1.0047 0.0
H573 H 0.22339 0.91021 0.01496 0.0
H574 H 0.20509 0.91207 0.10181 0.0
H575 H 0.18441 0.88119 0.09155 0.0
H576 H 0.16798 0.91282 0.11249 0.0
H577 H 0.09605 0.9442 0.98004 0.0
H578 H 0.07675 0.89713 0.96547 0.0
H579 H 0.15281 0.85972 0.02014 0.0
C580 C 0.19731 0.96557 0.04553 0.0
C581 C 0.19002 0.99406 0.04071 0.0
C582 C 0.16343 1.00147 0.02279 0.0
C583 C 0.14403 0.98091 0.0102 0.0
C584 C 0.15146 0.95299 0.01624 0.0
C585 C 0.17746 0.94516 0.03313 0.0
C586 C 0.17962 0.91352 0.03689 0.0
C587 C 0.2026 0.90228 1.00374 0.0
C588 C 0.18457 0.90437 0.08878 0.0
C589 C 0.15078 0.90493 0.01967 0.0
C590 C 0.13499 0.92815 1.0079 0.0
C591 C 0.1081 0.92585 0.98943 0.0
C592 C 0.09725 0.89909 0.98153 0.0
C593 C 0.11307 0.87498 0.99268 0.0
C594 C 0.14002 0.87789 0.01271 0.0
H595 H 0.86381 0.86993 0.00964 0.0
H596 H 0.88844 0.95721 1.00655 0.0
H597 H 0.93651 0.94303 0.98437 0.0
H598 H 0.92673 0.84467 0.06273 0.0
H599 H 0.92688 0.81238 0.02961 0.0
H600 H 0.8943 0.82948 0.04297 0.0
H601 H 0.88164 0.8304 0.95314 0.0
H602 H 0.91407 0.81313 0.93932 0.0
H603 H 0.90556 0.84597 0.91128 0.0
H604 H 0.98187 0.91894 0.96304 0.0
H605 H 0.02119 0.88727 0.94557 0.0
H606 H 0.96667 0.81567 0.96505 0.0
C607 C 0.87918 0.88615 1.00369 0.0
C608 C 0.87233 0.91473 0.00926 0.0
C609 C 0.89324 0.93522 1.00224 0.0
C610 C 0.92054 0.92734 0.98966 0.0
C611 C 0.92658 0.89892 0.9848 0.0
C612 C 0.90649 0.87866 0.99182 0.0
C613 C 0.91846 0.84953 0.98613 0.0
C614 C 0.91648 0.83305 0.03315 0.0
C615 C 0.90408 0.83384 0.94502 0.0
C616 C 0.94844 0.8565 0.9741 0.0
C617 C 0.95271 0.88509 0.97353 0.0
C618 C 0.97874 0.89654 0.96335 0.0
C619 C 1.00095 0.87832 0.9534 0.0
C620 C 0.99707 0.8489 0.95371 0.0
C621 C 0.97038 0.83799 0.96435 0.0
H622 H 0.91417 0.11208 0.96341 0.0
H623 H 0.87193 0.17155 0.05575 0.0
H624 H 0.83741 0.13571 0.07699 0.0
H625 H 0.85363 0.0769 0.9199 0.0
H626 H 0.86889 0.04245 0.9214 0.0
H627 H 0.89082 0.07262 0.91297 0.0
H628 H 0.92084 0.05827 0.98604 0.0
H629 H 0.89923 0.02784 0.99412 0.0
H630 H 0.90405 0.05214 0.04258 0.0
H631 H 0.80578 0.09471 0.08511 0.0
H632 H 0.78314 0.04821 0.08907 0.0
H633 H 0.84673 0.01422 0.9958 0.0
C634 C 0.89785 0.11743 0.98852 0.0
C635 C 0.8958 0.1447 1.00776 0.0
C636 C 0.87414 0.15082 0.04064 0.0
C637 C 0.85422 0.13066 0.0527 0.0
C638 C 0.85639 0.10428 0.0322 0.0
C639 C 0.87796 0.09735 1.00167 0.0
C640 C 0.87591 0.06702 0.98621 0.0
C641 C 0.87208 0.06463 0.93189 0.0
C642 C 0.90153 0.05033 1.00326 0.0
C643 C 0.8497 0.05821 0.01246 0.0
C644 C 0.83858 0.08018 0.03824 0.0
C645 C 0.8143 0.07731 0.06521 0.0
C646 C 0.80146 0.05101 0.06696 0.0
C647 C 0.81309 0.02811 0.04218 0.0
C648 C 0.83734 0.03172 0.01436 0.0
H649 H 0.02 0.14024 0.95723 0.0
H650 H 0.03258 0.21777 0.03463 0.0
H651 H 0.07517 0.1984 0.07125 0.0
H652 H 0.04936 0.09197 0.04849 0.0
H653 H 0.06644 0.07033 1.00469 0.0
H654 H 0.03453 0.08835 0.9897 0.0
H655 H 0.05905 0.11164 0.91769 0.0
H656 H 0.09097 0.0937 0.93239 0.0
H657 H 0.09069 0.13127 0.92729 0.0
H658 H 0.11745 0.17327 0.09417 0.0
H659 H 0.16009 0.14482 0.09846 0.0
H660 H 0.12309 0.08327 1.00391 0.0
C661 C 0.03152 0.15281 0.98264 0.0
C662 C 0.0229 0.18034 0.99379 0.0
C663 C 0.03878 0.19658 0.02602 0.0
C664 C 0.0629 0.1857 0.04714 0.0
C665 C 0.07109 0.15868 0.03505 0.0
C666 C 0.05615 0.14244 1.00327 0.0
C667 C 0.07144 0.11525 0.99275 0.0
C668 C 0.05442 0.08998 0.00994 0.0
C669 C 0.07845 0.11284 0.93937 0.0
C670 C 0.0976 0.11915 0.02267 0.0
C671 C 0.0965 0.14418 0.04736 0.0
C672 C 0.11851 0.15353 0.0754 0.0
C673 C 0.14265 0.13726 0.07744 0.0
C674 C 0.14476 0.11195 0.05148 0.0
C675 C 0.12174 0.10236 0.02454 0.0
H676 H 0.84499 0.9763 0.59285 0.0
H677 H 0.80131 0.98938 0.45878 0.0
H678 H 0.82549 0.94866 0.42439 0.0
H679 H 0.91031 0.95504 0.54425 0.0
H680 H 0.91707 0.92825 0.58799 0.0
H681 H 0.89596 0.9581 0.60344 0.0
H682 H 0.85564 0.92536 0.62901 0.0
H683 H 0.87671 0.89539 0.61404 0.0
H684 H 0.84265 0.89965 0.58756 0.0
H685 H 0.85673 0.91012 0.40184 0.0
H686 H 0.88916 0.87054 0.39488 0.0
H687 H 0.91098 0.87875 0.54461 0.0
C688 C 0.84043 0.97046 0.55635 0.0
C689 C 0.82129 0.98606 0.52845 0.0
C690 C 0.81573 0.97769 0.48093 0.0
C691 C 0.82949 0.95471 0.46093 0.0
C692 C 0.84851 0.9401 0.48902 0.0
C693 C 0.85368 0.94718 0.53593 0.0
C694 C 0.8748 0.92733 0.5582 0.0
C695 C 0.90109 0.94313 0.57442 0.0
C696 C 0.86166 0.91096 0.59966 0.0
C697 C 0.881 0.90835 0.5161 0.0
C698 C 0.86574 0.91647 0.47654 0.0
C699 C 0.86858 0.90333 0.43262 0.0
C700 C 0.88727 0.88102 0.429 0.0
C701 C 0.90267 0.8717 0.46918 0.0
C702 C 0.89939 0.88545 0.51344 0.0
H703 H 0.87582 0.11155 0.45056 0.0
H704 H 0.88732 0.09469 0.60112 0.0
H705 H 0.93051 0.12295 0.60101 0.0
H706 H 0.95177 0.10811 0.42054 0.0
H707 H 0.9487 0.13523 0.37622 0.0
H708 H 0.91956 0.11246 0.38801 0.0
H709 H 0.88853 0.15578 0.40451 0.0
H710 H 0.91768 0.17866 0.39382 0.0
H711 H 0.89903 0.18057 0.44953 0.0
H712 H 0.96843 0.15836 0.58683 0.0
H713 H 1.00452 0.19067 0.55616 0.0
H714 H 0.97196 0.18037 0.41286 0.0
C715 C 0.88804 0.11309 0.48299 0.0
C716 C 0.87866 0.10059 0.52566 0.0
C717 C 0.89465 0.10353 0.56784 0.0
C718 C 0.919 0.1198 0.56822 0.0
C719 C 0.9274 0.13243 0.52582 0.0
C720 C 0.91294 0.12853 0.48361 0.0
C721 C 0.92673 0.14421 0.44295 0.0
C722 C 0.93732 0.12379 0.40467 0.0
C723 C 0.9068 0.1661 0.42146 0.0
C724 C 0.95076 0.15804 0.46911 0.0
C725 C 0.95044 0.15137 0.51707 0.0
C726 C 0.96929 0.16322 0.54917 0.0
C727 C 0.98952 0.18173 0.53155 0.0
C728 C 0.99108 0.18774 0.4822 0.0
C729 C 0.97137 0.17581 0.45068 0.0
H730 H 0.14618 0.14987 0.49383 0.0
H731 H 0.06043 0.1208 0.48549 0.0
H732 H 0.07618 0.07314 0.50713 0.0
H733 H 0.1775 0.08795 0.44316 0.0
H734 H 0.20786 0.08932 0.48111 0.0
H735 H 0.18998 0.12111 0.46508 0.0
H736 H 0.18379 0.13358 0.55429 0.0
H737 H 0.2018 0.10197 0.57085 0.0
H738 H 0.1673 0.10883 0.59368 0.0
H739 H 0.10112 0.02924 0.5311 0.0
H740 H 0.13315 0.99165 0.55527 0.0
H741 H 0.20311 0.04922 0.5468 0.0
C742 C 0.13062 0.13355 0.49677 0.0
C743 C 0.10199 0.13908 0.48831 0.0
C744 C 0.08243 0.11703 0.49187 0.0
C745 C 0.09119 0.08993 0.5041 0.0
C746 C 0.11958 0.08526 0.51216 0.0
C747 C 0.13901 0.10642 0.50845 0.0
C748 C 0.16829 0.09587 0.51865 0.0
C749 C 0.187 0.09873 0.47436 0.0
C750 C 0.18103 0.11096 0.56195 0.0
C751 C 0.16226 0.06549 0.52968 0.0
C752 C 0.13404 0.05984 0.52549 0.0
C753 C 0.12324 0.03341 0.53443 0.0
C754 C 0.1417 0.0122 0.5483 0.0
C755 C 0.17074 0.01745 0.55327 0.0
C756 C 0.18109 0.04449 0.54342 0.0
H757 H 0.133 0.91544 0.47376 0.0
H758 H 0.15218 0.86953 0.60281 0.0
H759 H 0.11276 0.83785 0.58798 0.0
H760 H 0.05839 0.91314 0.49353 0.0
H761 H 0.04933 0.91016 0.43133 0.0
H762 H 0.08096 0.92782 0.44866 0.0
H763 H 0.10973 0.89474 0.39446 0.0
H764 H 0.07817 0.877 0.37691 0.0
H765 H 0.10677 0.85744 0.40218 0.0
H766 H 0.07361 0.81027 0.55871 0.0
H767 H 0.0308 0.79126 0.52237 0.0
H768 H 0.03101 0.85834 0.41816 0.0
C769 C 0.12896 0.89844 0.49829 0.0
C770 C 0.14609 0.89413 0.53867 0.0
C771 C 0.13977 0.87243 0.57107 0.0
C772 C 0.11739 0.85447 0.56305 0.0
C773 C 0.10089 0.85906 0.52309 0.0
C774 C 0.10583 0.88078 0.49169 0.0
C775 C 0.08302 0.88217 0.45405 0.0
C776 C 0.06697 0.90998 0.45709 0.0
C777 C 0.09516 0.87756 0.40393 0.0
C778 C 0.06486 0.85772 0.46927 0.0
C779 C 0.07606 0.84449 0.50867 0.0
C780 C 0.06423 0.82062 0.52836 0.0
C781 C 0.04001 0.80999 0.50748 0.0
C782 C 0.02751 0.82364 0.46816 0.0
C783 C 0.04001 0.84787 0.44878 0.0
H784 H 0.65414 0.4969 0.51632 0.0
H785 H 0.71311 0.467 0.62222 0.0
H786 H 0.69302 0.41961 0.61618 0.0
H787 H 0.5952 0.4532 0.54989 0.0
H788 H 0.58456 0.44654 0.48927 0.0
H789 H 0.60209 0.47871 0.50409 0.0
H790 H 0.6398 0.46839 0.44026 0.0
H791 H 0.62232 0.43627 0.42512 0.0
H792 H 0.6586 0.43574 0.44229 0.0
H793 H 0.66668 0.37604 0.59974 0.0
H794 H 0.63911 0.337 0.56752 0.0
H795 H 0.59914 0.39358 0.4672 0.0
C796 C 0.66256 0.48034 0.53842 0.0
C797 C 0.68498 0.48547 0.57 0.0
C798 C 0.69595 0.46335 0.59779 0.0
C799 C 0.68458 0.43646 0.5948 0.0
C800 C 0.66256 0.43197 0.56327 0.0
C801 C 0.65188 0.45311 0.535 0.0
C802 C 0.62947 0.44203 0.50168 0.0
C803 C 0.60115 0.45595 0.51186 0.0
C804 C 0.63807 0.44583 0.44924 0.0
C805 C 0.62928 0.4114 0.51574 0.0
C806 C 0.64823 0.40625 0.55188 0.0
C807 C 0.65182 0.37974 0.57132 0.0
C808 C 0.63595 0.35771 0.55282 0.0
C809 C 0.617 0.36217 0.51468 0.0
C810 C 0.61352 0.38949 0.49622 0.0
H811 H 0.35744 0.36379 0.50305 0.0
H812 H 0.38833 0.44507 0.54615 0.0
H813 H 0.43646 0.43037 0.52759 0.0
H814 H 0.41226 0.32589 0.55698 0.0
H815 H 0.41465 0.29921 0.51176 0.0
H816 H 0.38199 0.3169 0.52195 0.0
H817 H 0.37981 0.33155 0.43304 0.0
H818 H 0.4123 0.31356 0.4224 0.0
H819 H 0.40886 0.34999 0.40703 0.0
H820 H 0.48078 0.40664 0.51023 0.0
H821 H 0.52003 0.37513 0.4932 0.0
H822 H 0.46182 0.30749 0.46464 0.0
C823 C 0.37435 0.37864 0.50692 0.0
C824 C 0.36936 0.40583 0.52457 0.0
C825 C 0.39189 0.42444 0.53148 0.0
C826 C 0.41923 0.41622 0.5213 0.0
C827 C 0.42369 0.38911 0.50501 0.0
C828 C 0.402 0.37051 0.49778 0.0
C829 C 0.41307 0.34192 0.48368 0.0
C830 C 0.40501 0.31968 0.52081 0.0
C831 C 0.4029 0.33378 0.43355 0.0
C832 C 0.44427 0.34747 0.48423 0.0
C833 C 0.44976 0.37489 0.49647 0.0
C834 C 0.47681 0.38516 0.50021 0.0
C835 C 0.49897 0.36703 0.49049 0.0
C836 C 0.49404 0.33885 0.47733 0.0
C837 C 0.46626 0.3289 0.47462 0.0
H838 H 0.30974 0.55252 0.57257 0.0
H839 H 0.37387 0.49281 0.53235 0.0
H840 H 0.40476 0.53137 0.50867 0.0
H841 H 0.32234 0.60143 0.47756 0.0
H842 H 0.31654 0.63204 0.51373 0.0
H843 H 0.29923 0.59973 0.52816 0.0
H844 H 0.3199 0.6017 0.61351 0.0
H845 H 0.33742 0.63396 0.59928 0.0
H846 H 0.35717 0.60456 0.62129 0.0
H847 H 0.42791 0.57543 0.4856 0.0
H848 H 0.44259 0.62347 0.46559 0.0
H849 H 0.36532 0.65589 0.52427 0.0
C850 C 0.33027 0.54764 0.55875 0.0
C851 C 0.33945 0.51961 0.55455 0.0
C852 C 0.3665 0.51407 0.53642 0.0
C853 C 0.38421 0.53584 0.52275 0.0
C854 C 0.37473 0.56316 0.52776 0.0
C855 C 0.34849 0.56926 0.54542 0.0
C856 C 0.34367 0.60064 0.54684 0.0
C857 C 0.31898 0.60894 0.51465 0.0
C858 C 0.33928 0.61081 0.5983 0.0
C859 C 0.37119 0.61108 0.52678 0.0
C860 C 0.38869 0.58898 0.5159 0.0
C861 C 0.41459 0.59296 0.49449 0.0
C862 C 0.42275 0.62025 0.48329 0.0
C863 C 0.40527 0.64323 0.49411 0.0
C864 C 0.37932 0.63865 0.51675 0.0
H865 H 0.52954 0.69008 0.53201 0.0
H866 H 0.51921 0.66702 0.38357 0.0
H867 H 0.56153 0.63743 0.38809 0.0
H868 H 0.60559 0.69154 0.53295 0.0
H869 H 0.60873 0.67622 0.59136 0.0
H870 H 0.5785 0.69694 0.57661 0.0
H871 H 0.54613 0.65602 0.59956 0.0
H872 H 0.57609 0.63509 0.61494 0.0
H873 H 0.55107 0.62227 0.57214 0.0
H874 H 0.60535 0.61127 0.408 0.0
H875 H 0.64683 0.58824 0.44342 0.0
H876 H 0.62667 0.62477 0.58073 0.0
C877 C 0.53653 0.67902 0.50048 0.0
C878 C 0.52153 0.68092 0.45723 0.0
C879 C 0.5307 0.66582 0.41682 0.0
C880 C 0.55464 0.649 0.41909 0.0
C881 C 0.56889 0.64719 0.4623 0.0
C882 C 0.56016 0.66163 0.5024 0.0
C883 C 0.57874 0.65507 0.54483 0.0
C884 C 0.59377 0.68153 0.56246 0.0
C885 C 0.562 0.64128 0.58524 0.0
C886 C 0.5991 0.63463 0.52229 0.0
C887 C 0.59327 0.63071 0.47449 0.0
C888 C 0.60997 0.61389 0.44551 0.0
C889 C 0.63342 0.60088 0.46585 0.0
C890 C 0.63957 0.60431 0.51483 0.0
C891 C 0.62202 0.62123 0.5434 0.0
H892 H 0.38218 0.38936 0.93917 0.0
H893 H 0.39391 0.35422 0.08063 0.0
H894 H 0.36691 0.39309 0.11514 0.0
H895 H 0.38733 0.4622 0.9739 0.0
H896 H 0.36062 0.47392 0.93318 0.0
H897 H 0.3812 0.44349 0.91905 0.0
H898 H 0.33598 0.41447 0.90935 0.0
H899 H 0.31526 0.44476 0.9239 0.0
H900 H 0.31129 0.41298 0.95776 0.0
H901 H 0.33975 0.43532 0.13512 0.0
H902 H 0.31431 0.48 0.14007 0.0
H903 H 0.31779 0.48828 0.98608 0.0
C904 C 0.37927 0.39002 0.97744 0.0
C905 C 0.39027 0.36871 1.00724 0.0
C906 C 0.38569 0.37019 0.05707 0.0
C907 C 0.37033 0.39218 0.07704 0.0
C908 C 0.35944 0.41253 0.04676 0.0
C909 C 0.36366 0.4118 0.99806 0.0
C910 C 0.34943 0.43651 0.97391 0.0
C911 C 0.37093 0.45513 0.94852 0.0
C912 C 0.32664 0.42657 0.93917 0.0
C913 C 0.3368 0.45128 0.01679 0.0
C914 C 0.34293 0.43693 0.05834 0.0
C915 C 0.33466 0.44668 0.10288 0.0
C916 C 0.32022 0.47205 0.10531 0.0
C917 C 0.31391 0.48741 0.06348 0.0
C918 C 0.32189 0.47665 0.01849 0.0
H919 H 0.3604 0.64591 0.02742 0.0
H920 H 0.38825 0.55988 0.04145 0.0
H921 H 0.43667 0.57485 0.02381 0.0
H922 H 0.40495 0.66575 0.93131 0.0
H923 H 0.41119 0.7004 0.95422 0.0
H924 H 0.37897 0.68274 0.96771 0.0
H925 H 0.38827 0.68948 0.05801 0.0
H926 H 0.42066 0.70701 0.04501 0.0
H927 H 0.42045 0.67688 0.08358 0.0
H928 H 0.48173 0.59932 1.00366 0.0
H929 H 0.52021 0.631 0.98235 0.0
H930 H 0.46274 0.70134 0.98323 0.0
C931 C 0.37659 0.63009 0.02638 0.0
C932 C 0.37051 0.60162 0.03534 0.0
C933 C 0.39243 0.58176 0.03451 0.0
C934 C 0.41996 0.59008 0.02461 0.0
C935 C 0.42517 0.61836 0.01618 0.0
C936 C 0.4041 0.63806 0.01716 0.0
C937 C 0.4152 0.66717 1.00755 0.0
C938 C 0.40178 0.67974 0.96252 0.0
C939 C 0.41089 0.68625 0.05113 0.0
C940 C 0.44581 0.66076 0.99989 0.0
C941 C 0.45114 0.6325 1.00531 0.0
C942 C 0.47779 0.62147 0.9994 0.0
C943 C 0.49952 0.6397 0.9872 0.0
C944 C 0.49454 0.66873 0.98085 0.0
C945 C 0.46728 0.67932 0.98778 0.0
H946 H 0.6033 0.61813 0.95968 0.0
H947 H 0.63797 0.67438 0.06602 0.0
H948 H 0.66645 0.63593 0.09823 0.0
H949 H 0.59923 0.55742 0.03743 0.0
H950 H 0.6086 0.53299 0.99116 0.0
H951 H 0.59066 0.56493 0.97613 0.0
H952 H 0.63025 0.57758 0.91694 0.0
H953 H 0.64835 0.54575 0.93201 0.0
H954 H 0.66582 0.5789 0.93793 0.0
H955 H 0.69356 0.59276 0.11567 0.0
H956 H 0.71424 0.54554 0.12265 0.0
H957 H 0.66009 0.5159 0.0094 0.0
C958 C 0.61676 0.6223 0.98991 0.0
C959 C 0.61842 0.64936 0.01018 0.0
C960 C 0.63623 0.65389 0.04987 0.0
C961 C 0.65261 0.63219 0.06837 0.0
C962 C 0.65076 0.60595 0.04722 0.0
C963 C 0.63306 0.60073 0.0093 0.0
C964 C 0.63489 0.57039 0.99376 0.0
C965 C 0.60666 0.55556 1.00001 0.0
C966 C 0.64546 0.56803 0.9421 0.0
C967 C 0.65643 0.55948 0.02884 0.0
C968 C 0.66556 0.5805 0.05887 0.0
C969 C 0.68638 0.57603 0.09275 0.0
C970 C 0.69808 0.54927 0.0963 0.0
C971 C 0.68855 0.5273 0.06675 0.0
C972 C 0.6674 0.53241 0.03274 0.0
H973 H 0.546 0.31528 0.96578 0.0
H974 H 0.48865 0.38531 0.97824 0.0
H975 H 0.52823 0.41669 0.99524 0.0
H976 H 0.59212 0.33619 0.06002 0.0
H977 H 0.6233 0.32462 0.02995 0.0
H978 H 0.59046 0.30771 0.018 0.0
H979 H 0.59643 0.31789 0.92778 0.0
H980 H 0.62921 0.33505 0.93951 0.0
H981 H 0.60188 0.35335 0.90812 0.0
H982 H 0.57346 0.44 0.01555 0.0
H983 H 0.62175 0.4537 0.03671 0.0
H984 H 0.65033 0.36956 1.00664 0.0
C985 C 0.54175 0.33722 0.97201 0.0
C986 C 0.51415 0.3478 0.97057 0.0
C987 C 0.50956 0.37668 0.97892 0.0
C988 C 0.53193 0.3947 0.9886 0.0
C989 C 0.55883 0.38364 0.98947 0.0
C990 C 0.56389 0.35559 0.98133 0.0
C991 C 0.59481 0.34903 0.98502 0.0
C992 C 0.6005 0.32816 0.02567 0.0
C993 C 0.60625 0.33819 0.93726 0.0
C994 C 0.60632 0.37775 0.99669 0.0
C995 C 0.58515 0.39738 0.99933 0.0
C996 C 0.59027 0.42495 0.01281 0.0
C997 C 0.61768 0.43257 0.02461 0.0
C998 C 0.63963 0.41285 0.022 0.0
C999 C 0.63396 0.38521 1.00728 0.0
H1000 H 0.20241 0.99484 0.73214 0.0
H1001 H 0.28871 1.00243 0.68664 0.0
H1002 H 0.29851 0.03175 0.75781 0.0
H1003 H 0.19441 0.065 0.77716 0.0
H1004 H 0.17263 0.05426 0.82622 0.0
H1005 H 0.1725 0.03456 0.77144 0.0
H1006 H 0.18519 0.9894 0.81783 0.0
H1007 H 0.18494 0.00886 0.87273 0.0
H1008 H 0.21551 0.98918 0.85599 0.0
H1009 H 0.2989 0.05815 0.83675 0.0
H1010 H 0.29063 0.07732 0.91752 0.0
H1011 H 0.20349 0.05395 0.90817 0.0
C1012 C 0.22346 1.00264 0.73676 0.0
C1013 C 0.24484 0.99629 0.70355 0.0
C1014 C 0.27202 0.00695 0.71149 0.0
C1015 C 0.27769 0.02374 0.75167 0.0
C1016 C 0.25591 0.02981 0.78323 0.0
C1017 C 0.22936 0.01946 0.77614 0.0
C1018 C 0.20967 0.02812 0.81575 0.0
C1019 C 0.1859 0.04659 0.79647 0.0
C1020 C 0.19817 1.00236 0.84213 0.0
C1021 C 0.22932 0.04475 0.84699 0.0
C1022 C 0.25591 0.0456 0.82756 0.0
C1023 C 0.2781 0.05799 0.85176 0.0
C1024 C 0.27318 0.06896 0.89743 0.0
C1025 C 0.24626 0.06776 0.91819 0.0
C1026 C 0.22396 0.05608 0.89221 0.0
H1027 H 0.95855 0.779 0.27006 0.0
H1028 H 0.02176 0.733 0.34776 0.0
H1029 H 0.05029 0.72968 0.27414 0.0
H1030 H 0.96882 0.74227 0.15083 0.0
H1031 H 0.96188 0.77458 0.11988 0.0
H1032 H 0.94503 0.76745 0.17601 0.0
H1033 H 0.9642 0.81464 0.20769 0.0
H1034 H 0.98236 0.82097 0.15272 0.0
H1035 H 1.00139 0.82056 0.20822 0.0
H1036 H 0.07515 0.73915 0.19558 0.0
H1037 H 0.09121 0.75416 0.11567 0.0
H1038 H 0.01101 0.79396 0.09081 0.0
C1039 C 0.97775 0.76698 0.27079 0.0
C1040 C 0.98781 0.75567 0.31391 0.0
C1041 C 0.01343 0.74099 0.31451 0.0
C1042 C 0.02985 0.73934 0.27303 0.0
C1043 C 0.02002 0.75217 0.23151 0.0
C1044 C 0.99414 0.76501 0.22983 0.0
C1045 C 0.98909 0.77905 0.18226 0.0
C1046 C 0.96477 0.76499 0.15565 0.0
C1047 C 0.98398 0.81067 0.18813 0.0
C1048 C 0.01666 0.77324 0.15806 0.0
C1049 C 0.03423 0.7576 0.18674 0.0
C1050 C 0.06136 0.75096 0.17254 0.0
C1051 C 0.07042 0.75987 0.12735 0.0
C1052 C 0.05237 0.77522 0.097 0.0
C1053 C 0.02527 0.78211 0.11302 0.0
H1054 H 0.80845 0.97141 0.90092 0.0
H1055 H 0.72314 0.94145 0.9024 0.0
H1056 H 0.71515 0.96227 0.82265 0.0
H1057 H 0.79247 0.03716 0.85015 0.0
H1058 H 0.82379 0.0395 0.81479 0.0
H1059 H 0.82387 0.01961 0.8693 0.0
H1060 H 0.84085 0.9757 0.82352 0.0
H1061 H 0.84122 0.99558 0.76897 0.0
H1062 H 0.82143 0.96362 0.7724 0.0
H1063 H 0.71625 0.98738 0.74363 0.0
H1064 H 0.72622 0.01524 0.67127 0.0
H1065 H 0.80971 0.03195 0.72443 0.0
C1066 C 0.7884 0.9686 0.88363 0.0
C1067 C 0.76657 0.95429 0.90682 0.0
C1068 C 0.7402 0.95194 0.88443 0.0
C1069 C 0.73547 0.96377 0.83937 0.0
C1070 C 0.75722 0.97834 0.8177 0.0
C1071 C 0.78316 0.98085 0.83907 0.0
C1072 C 0.80236 0.99916 0.80965 0.0
C1073 C 0.81113 0.02541 0.83765 0.0
C1074 C 0.82798 0.98252 0.79262 0.0
C1075 C 0.78319 1.0065 0.76843 0.0
C1076 C 0.75733 0.99411 0.77353 0.0
C1077 C 0.73639 0.99728 0.73931 0.0
C1078 C 0.7422 0.01319 0.69841 0.0
C1079 C 0.76858 0.02604 0.69241 0.0
C1080 C 0.78915 0.02283 0.72831 0.0
H1081 H 0.99605 0.22264 0.09601 0.0
H1082 H 0.91757 0.26471 0.12425 0.0
H1083 H 0.93264 0.27241 0.20833 0.0
H1084 H 1.00257 0.18781 0.20834 0.0
H1085 H 0.03997 0.19183 0.21004 0.0
H1086 H 0.0222 0.18961 0.15359 0.0
H1087 H 0.04431 0.23659 0.128 0.0
H1088 H 0.06194 0.23921 0.18455 0.0
H1089 H 0.03948 0.26716 0.16471 0.0
H1090 H 0.95839 0.27644 0.28973 0.0
H1091 H 0.98922 0.27254 0.36039 0.0
H1092 H 0.05038 0.22813 0.27497 0.0
C1093 C 0.9819 0.23353 0.11971 0.0
C1094 C 0.9557 0.24332 0.10343 0.0
C1095 C 0.93769 0.25696 0.13598 0.0
C1096 C 0.94621 0.26158 0.18362 0.0
C1097 C 0.97268 0.25227 0.19793 0.0
C1098 C 0.99003 0.23823 0.16675 0.0
C1099 C 0.01729 0.22989 0.19002 0.0
C1100 C 0.02068 0.19789 0.19055 0.0
C1101 C 0.04222 0.24407 0.16535 0.0
C1102 C 0.01282 0.2414 0.2396 0.0
C1103 C 0.9871 0.2544 0.24368 0.0
C1104 C 0.97852 0.26629 0.28671 0.0
C1105 C 0.9963 0.26415 0.32664 0.0
C1106 C 0.02235 0.25009 0.32342 0.0
C1107 C 0.03073 0.23911 0.27886 0.0
H1108 H 0.80768 0.97653 0.2248 0.0
H1109 H 0.724 0.99668 0.176 0.0
H1110 H 0.71713 0.0265 0.24708 0.0
H1111 H 0.79294 0.97484 0.35209 0.0
H1112 H 0.82588 0.99075 0.3673 0.0
H1113 H 0.82293 0.96983 0.31419 0.0
H1114 H 0.84184 0.01179 0.2652 0.0
H1115 H 0.84378 0.03288 0.31835 0.0
H1116 H 0.82386 0.04489 0.26775 0.0
H1117 H 0.71923 0.05376 0.32368 0.0
H1118 H 0.72954 0.07511 0.40214 0.0
H1119 H 0.81278 0.03967 0.39889 0.0
C1120 C 0.78769 0.98675 0.22947 0.0
C1121 C 0.76621 0.98397 0.19501 0.0
C1122 C 0.74065 0.99831 0.20202 0.0
C1123 C 0.73662 0.0154 0.24217 0.0
C1124 C 0.75847 0.01823 0.27474 0.0
C1125 C 0.78347 1.00422 0.26896 0.0
C1126 C 0.80384 0.01137 0.30864 0.0
C1127 C 0.81184 0.98513 0.33724 0.0
C1128 C 0.82987 0.02611 0.28878 0.0
C1129 C 0.78624 0.03128 0.33811 0.0
C1130 C 0.76014 0.03497 0.31779 0.0
C1131 C 0.73969 0.05129 0.33958 0.0
C1132 C 0.74576 0.06348 0.38388 0.0
C1133 C 0.77217 0.05964 0.40559 0.0
C1134 C 0.79281 0.04373 0.38206 0.0
H1135 H 0.01976 0.25023 0.59529 0.0
H1136 H 0.10263 0.22064 0.6324 0.0
H1137 H 0.08921 0.22026 0.71777 0.0
H1138 H 0.00792 0.29458 0.69752 0.0
H1139 H 0.97168 0.28502 0.70321 0.0
H1140 H 0.98822 0.28436 0.64554 0.0
H1141 H 0.97407 0.23244 0.63457 0.0
H1142 H 0.95718 0.2331 0.69188 0.0
H1143 H 0.98365 0.20729 0.67956 0.0
H1144 H 0.0664 0.22242 0.79859 0.0
H1145 H 0.03477 0.22247 0.86827 0.0
H1146 H 0.96626 0.24938 0.77833 0.0
C1147 C 0.0352 0.24397 0.62146 0.0
C1148 C 0.0624 0.23584 0.60741 0.0
C1149 C 0.08176 0.22704 0.64248 0.0
C1150 C 0.07434 0.22692 0.69098 0.0
C1151 C 0.04739 0.23531 0.70362 0.0
C1152 C 0.028 0.24329 0.66978 0.0
C1153 C 0.99988 0.24956 0.69227 0.0
C1154 C 0.99144 0.28021 0.68415 0.0
C1155 C 0.97738 0.22939 0.67346 0.0
C1156 C 0.00646 0.24405 0.7443 0.0
C1157 C 0.03407 0.23608 0.75005 0.0
C1158 C 0.04486 0.22888 0.79453 0.0
C1159 C 0.02684 0.22915 0.83389 0.0
C1160 C 0.99841 0.23663 0.82861 0.0
C1161 C 0.98814 0.24447 0.78339 0.0
H1162 H 0.22325 1.0012 0.43076 0.0
H1163 H 0.25823 0.91926 0.40132 0.0
H1164 H 0.26713 0.93374 0.3177 0.0
H1165 H 0.18866 0.01029 0.31802 0.0
H1166 H 0.1957 0.04729 0.316 0.0
H1167 H 0.1922 0.02992 0.37259 0.0
H1168 H 0.24082 0.04851 0.39747 0.0
H1169 H 0.24473 0.06545 0.34054 0.0
H1170 H 0.27077 0.04092 0.36076 0.0
H1171 H 0.27322 0.95837 0.23734 0.0
H1172 H 0.27108 0.98861 0.16584 0.0
H1173 H 0.2319 0.0539 0.25006 0.0
C1174 C 0.23272 0.98617 0.40678 0.0
C1175 C 0.24018 0.9591 0.4226 0.0
C1176 C 0.25224 0.94005 0.38989 0.0
C1177 C 0.25756 0.94818 0.3425 0.0
C1178 C 0.25053 0.97533 0.32851 0.0
C1179 C 0.23802 0.99386 0.35968 0.0
C1180 C 0.23181 0.02162 0.33604 0.0
C1181 C 0.20022 0.02761 0.33562 0.0
C1182 C 0.24801 0.04552 0.36014 0.0
C1183 C 0.24274 0.01589 0.28644 0.0
C1184 C 0.25371 0.98922 0.28274 0.0
C1185 C 0.26467 0.97927 0.23991 0.0
C1186 C 0.26357 0.99669 0.19955 0.0
C1187 C 0.25137 0.02367 0.20227 0.0
C1188 C 0.24143 0.03345 0.2467 0.0
H1189 H 0.05066 0.79559 0.76829 0.0
H1190 H 0.99302 0.74585 0.85164 0.0
H1191 H 0.96258 0.74044 0.78048 0.0
H1192 H 1.00176 0.83278 0.70114 0.0
H1193 H 0.02152 0.83211 0.64645 0.0
H1194 H 0.03933 0.83046 0.70292 0.0
H1195 H 0.06362 0.7846 0.67728 0.0
H1196 H 0.04593 0.78583 0.62061 0.0
H1197 H 0.0428 0.75533 0.65783 0.0
H1198 H 0.93622 0.74479 0.7003 0.0
H1199 H 0.9206 0.75213 0.61656 0.0
H1200 H 0.99686 0.79767 0.5876 0.0
C1201 C 0.0319 0.78306 0.7713 0.0
C1202 C 0.0242 0.77102 0.81528 0.0
C1203 C 0.99948 0.75488 0.818 0.0
C1204 C 0.98195 0.75197 0.77792 0.0
C1205 C 0.98971 0.76499 0.73536 0.0
C1206 C 0.0145 0.77965 0.73169 0.0
C1207 C 0.01845 0.79151 0.68219 0.0
C1208 C 0.02037 0.82362 0.68329 0.0
C1209 C 0.04423 0.77854 0.65807 0.0
C1210 C 0.99172 0.78187 0.6587 0.0
C1211 C 0.97521 0.76675 0.68974 0.0
C1212 C 0.94917 0.75637 0.67566 0.0
C1213 C 0.94031 0.76087 0.62828 0.0
C1214 C 0.9576 0.77535 0.59571 0.0
C1215 C 0.98334 0.78628 0.61163 0.0
H1216 H 0.71168 0.56333 0.39384 0.0
H1217 H 0.78985 0.5329 0.45168 0.0
H1218 H 0.80159 0.51157 0.37383 0.0
H1219 H 0.69591 0.50279 0.33299 0.0
H1220 H 0.67973 0.51936 0.28225 0.0
H1221 H 0.6799 0.53674 0.33909 0.0
H1222 H 0.70385 0.57989 0.30112 0.0
H1223 H 0.70359 0.56269 0.24392 0.0
H1224 H 0.73595 0.57544 0.26848 0.0
H1225 H 0.80248 0.48929 0.29176 0.0
H1226 H 0.79121 0.46677 0.21417 0.0
H1227 H 0.7116 0.51016 0.21265 0.0
C1228 C 0.73167 0.55306 0.38933 0.0
C1229 C 0.75018 0.55016 0.42803 0.0
C1230 C 0.77567 0.53559 0.42189 0.0
C1231 C 0.78251 0.52347 0.37788 0.0
C1232 C 0.76349 0.52592 0.3405 0.0
C1233 C 0.73858 0.5404 0.3458 0.0
C1234 C 0.72029 0.53716 0.30216 0.0
C1235 C 0.69232 0.52317 0.31491 0.0
C1236 C 0.71566 0.56548 0.27746 0.0
C1237 C 0.73843 0.51809 0.27221 0.0
C1238 C 0.76349 0.51218 0.29432 0.0
C1239 C 0.78301 0.494 0.27386 0.0
C1240 C 0.7765 0.4813 0.2299 0.0
C1241 C 0.75051 0.48651 0.20764 0.0
C1242 C 0.73159 0.50552 0.22894 0.0
H1243 H 0.52113 0.29986 0.60262 0.0
H1244 H 0.58657 0.23868 0.62618 0.0
H1245 H 0.57024 0.2326 0.70974 0.0
H1246 H 0.52467 0.33199 0.71931 0.0
H1247 H 0.48751 0.33786 0.72162 0.0
H1248 H 0.50518 0.33732 0.66501 0.0
H1249 H 0.47126 0.29879 0.63561 0.0
H1250 H 0.4538 0.29885 0.69243 0.0
H1251 H 0.46811 0.26678 0.66911 0.0
H1252 H 0.54386 0.23149 0.78973 0.0
H1253 H 0.51443 0.23992 0.86107 0.0
H1254 H 0.46796 0.303 0.78316 0.0
C1255 C 0.53222 0.28532 0.62548 0.0
C1256 C 0.55503 0.26964 0.60814 0.0
C1257 C 0.56916 0.25102 0.63908 0.0
C1258 C 0.55987 0.2473 0.68632 0.0
C1259 C 0.53671 0.26262 0.70185 0.0
C1260 C 0.52346 0.28163 0.6724 0.0
C1261 C 0.4994 0.29598 0.69722 0.0
C1262 C 0.50452 0.32766 0.70103 0.0
C1263 C 0.4715 0.28971 0.67209 0.0
C1264 C 0.50092 0.282 0.74541 0.0
C1265 C 0.52231 0.26259 0.74747 0.0
C1266 C 0.52721 0.24679 0.7885 0.0
C1267 C 0.51027 0.25154 0.82868 0.0
C1268 C 0.48901 0.27216 0.82756 0.0
C1269 C 0.48417 0.28721 0.78511 0.0
H1270 H 0.28307 0.5572 0.25149 0.0
H1271 H 0.2339 0.49763 0.17022 0.0
H1272 H 0.23159 0.46673 0.24058 0.0
H1273 H 0.32401 0.50819 0.31246 0.0
H1274 H 0.32487 0.52715 0.368 0.0
H1275 H 0.32076 0.54575 0.31264 0.0
H1276 H 0.27507 0.56851 0.34348 0.0
H1277 H 0.2794 0.55044 0.39935 0.0
H1278 H 0.24747 0.54656 0.36589 0.0
H1279 H 0.23823 0.44029 0.3188 0.0
H1280 H 0.24846 0.42372 0.4009 0.0
H1281 H 0.29294 0.50094 0.42928 0.0
C1282 C 0.27128 0.53796 0.24865 0.0
C1283 C 0.25865 0.52994 0.20518 0.0
C1284 C 0.24362 0.50441 0.20312 0.0
C1285 C 0.24234 0.48658 0.24285 0.0
C1286 C 0.25599 0.49464 0.28454 0.0
C1287 C 0.26974 0.51998 0.28789 0.0
C1288 C 0.28318 0.52361 0.33633 0.0
C1289 C 0.31509 0.52632 0.33207 0.0
C1290 C 0.27051 0.54876 0.36283 0.0
C1291 C 0.27506 0.49627 0.35956 0.0
C1292 C 0.25952 0.47969 0.32923 0.0
C1293 C 0.2502 0.45322 0.34299 0.0
C1294 C 0.25631 0.44385 0.38945 0.0
C1295 C 0.27141 0.46105 0.42143 0.0
C1296 C 0.28119 0.48736 0.40575 0.0
H1297 H 0.49003 0.7119 0.59895 0.0
H1298 H 0.4199 0.76759 0.62262 0.0
H1299 H 0.43492 0.77393 0.70672 0.0
H1300 H 0.48712 0.67812 0.71536 0.0
H1301 H 0.52456 0.6747 0.71899 0.0
H1302 H 0.50754 0.67461 0.66171 0.0
H1303 H 0.53926 0.71548 0.63482 0.0
H1304 H 0.55594 0.71601 0.69237 0.0
H1305 H 0.53992 0.74732 0.66924 0.0
H1306 H 0.46031 0.77681 0.78658 0.0
H1307 H 0.48938 0.77031 0.85898 0.0
H1308 H 0.54081 0.71044 0.78298 0.0
C1309 C 0.47767 0.7252 0.62204 0.0
C1310 C 0.45387 0.73934 0.60457 0.0
C1311 C 0.43806 0.75643 0.63565 0.0
C1312 C 0.44659 0.76031 0.68322 0.0
C1313 C 0.47064 0.74658 0.69901 0.0
C1314 C 0.48557 0.72888 0.66954 0.0
C1315 C 0.5102 0.71592 0.6952 0.0
C1316 C 0.50715 0.68395 0.69799 0.0
C1317 C 0.53796 0.7242 0.67149 0.0
C1318 C 0.50707 0.72936 0.74371 0.0
C1319 C 0.48439 0.74727 0.74514 0.0
C1320 C 0.47793 0.76263 0.78598 0.0
C1321 C 0.49465 0.759 0.82675 0.0
C1322 C 0.51719 0.73983 0.82641 0.0
C1323 C 0.52356 0.72511 0.78419 0.0
H1324 H 0.30888 0.54797 0.90911 0.0
H1325 H 0.22298 0.57599 0.91579 0.0
H1326 H 0.21417 0.55631 0.83547 0.0
H1327 H 0.31947 0.55744 0.77927 0.0
H1328 H 0.33997 0.52592 0.77479 0.0
H1329 H 0.34009 0.54582 0.82934 0.0
H1330 H 0.32507 0.50145 0.87591 0.0
H1331 H 0.32442 0.48158 0.82144 0.0
H1332 H 0.29374 0.48327 0.85848 0.0
H1333 H 0.21406 0.53009 0.75647 0.0
H1334 H 0.22348 0.50128 0.68459 0.0
H1335 H 0.30858 0.48851 0.73386 0.0
C1336 C 0.28859 0.55085 0.89269 0.0
C1337 C 0.26678 0.56403 0.9176 0.0
C1338 C 0.24004 0.56637 0.89639 0.0
C1339 C 0.23483 0.55517 0.85103 0.0
C1340 C 0.25653 0.54137 0.82779 0.0
C1341 C 0.28292 0.53932 0.84784 0.0
C1342 C 0.30197 0.5215 0.81752 0.0
C1343 C 0.32684 0.5387 0.79913 0.0
C1344 C 0.31186 0.49541 0.84498 0.0
C1345 C 0.2822 0.51381 0.77752 0.0
C1346 C 0.25612 0.5255 0.78371 0.0
C1347 C 0.23449 0.52094 0.75109 0.0
C1348 C 0.23994 0.50443 0.71055 0.0
C1349 C 0.26673 0.49264 0.70338 0.0
C1350 C 0.28784 0.49722 0.7379 0.0
H1351 H 0.51756 0.7174 0.10257 0.0
H1352 H 0.58857 0.77252 0.12117 0.0
H1353 H 0.57197 0.78399 0.20301 0.0
H1354 H 0.46743 0.75962 0.16133 0.0
H1355 H 0.44934 0.73034 0.18738 0.0
H1356 H 0.46745 0.72618 0.1316 0.0
H1357 H 0.4966 0.68536 0.16673 0.0
H1358 H 0.47801 0.68891 0.22208 0.0
H1359 H 0.51561 0.69055 0.22155 0.0
H1360 H 0.54566 0.78948 0.28381 0.0
H1361 H 0.51627 0.78392 0.35632 0.0
H1362 H 0.4629 0.72633 0.2795 0.0
C1363 C 0.52982 0.7318 0.12384 0.0
C1364 C 0.55434 0.74412 0.10559 0.0
C1365 C 0.56986 0.76265 0.13473 0.0
C1366 C 0.56039 0.76949 0.18095 0.0
C1367 C 0.53546 0.75757 0.19713 0.0
C1368 C 0.52069 0.73883 0.16934 0.0
C1369 C 0.49487 0.72827 0.19422 0.0
C1370 C 0.46821 0.73662 0.167 0.0
C1371 C 0.49639 0.6964 0.2016 0.0
C1372 C 0.49727 0.74383 0.24078 0.0
C1373 C 0.5206 0.76085 0.24211 0.0
C1374 C 0.5273 0.77633 0.28288 0.0
C1375 C 0.51036 0.77334 0.32369 0.0
C1376 C 0.48727 0.7549 0.32314 0.0
C1377 C 0.48031 0.74078 0.28068 0.0
H1378 H 0.7132 0.49316 0.93225 0.0
H1379 H 0.77357 0.42724 0.9073 0.0
H1380 H 0.78211 0.4459 0.82587 0.0
H1381 H 0.68377 0.49222 0.8127 0.0
H1382 H 0.67789 0.52945 0.81229 0.0
H1383 H 0.67714 0.51054 0.86775 0.0
H1384 H 0.71471 0.54391 0.90174 0.0
H1385 H 0.71615 0.56253 0.846 0.0
H1386 H 0.74754 0.54771 0.871 0.0
H1387 H 0.78592 0.4743 0.74899 0.0
H1388 H 0.77861 0.50434 0.67801 0.0
H1389 H 0.71341 0.54931 0.7529 0.0
C1390 C 0.72798 0.48249 0.90933 0.0
C1391 C 0.7428 0.45885 0.9256 0.0
C1392 C 0.76189 0.44525 0.89496 0.0
C1393 C 0.76703 0.45588 0.84902 0.0
C1394 C 0.75253 0.47976 0.83441 0.0
C1395 C 0.73288 0.49243 0.86334 0.0
C1396 C 0.71915 0.51703 0.83884 0.0
C1397 C 0.68763 0.51199 0.8325 0.0
C1398 C 0.72474 0.54441 0.86603 0.0
C1399 C 0.7343 0.51649 0.79159 0.0
C1400 C 0.75383 0.49519 0.7899 0.0
C1401 C 0.77058 0.49092 0.74986 0.0
C1402 C 0.76653 0.50825 0.70996 0.0
C1403 C 0.74559 0.52916 0.71031 0.0
C1404 C 0.72967 0.53354 0.75192 0.0
H1405 H 0.54385 0.29998 0.28554 0.0
H1406 H 0.49491 0.23639 0.35703 0.0
H1407 H 0.46563 0.23113 0.28448 0.0
H1408 H 0.48901 0.33309 0.22514 0.0
H1409 H 0.5085 0.33962 0.17133 0.0
H1410 H 0.52642 0.33712 0.22763 0.0
H1411 H 0.55822 0.29785 0.19436 0.0
H1412 H 0.54084 0.30067 0.13759 0.0
H1413 H 0.54258 0.26738 0.16758 0.0
H1414 H 0.43933 0.23617 0.20516 0.0
H1415 H 0.42277 0.24616 0.12293 0.0
H1416 H 0.49043 0.30539 0.10492 0.0
C1417 C 0.52722 0.28464 0.28566 0.0
C1418 C 0.52155 0.26859 0.32669 0.0
C1419 C 0.49971 0.24867 0.32565 0.0
C1420 C 0.48287 0.24574 0.28481 0.0
C1421 C 0.4885 0.2626 0.24534 0.0
C1422 C 0.51057 0.28123 0.24524 0.0
C1423 C 0.51252 0.29689 0.1986 0.0
C1424 C 0.50888 0.32855 0.20617 0.0
C1425 C 0.54017 0.29029 0.17303 0.0
C1426 C 0.48783 0.28452 0.17253 0.0
C1427 C 0.47401 0.26495 0.19998 0.0
C1428 C 0.45015 0.2513 0.18326 0.0
C1429 C 0.44072 0.25728 0.1368 0.0
C1430 C 0.45534 0.27652 0.10775 0.0
C1431 C 0.4789 0.2905 0.12631 0.0
H1432 H 0.38226 0.20544 0.92755 0.0
H1433 H 0.44224 0.19944 0.04273 0.0
H1434 H 0.4174 0.15788 0.07412 0.0
H1435 H 0.32464 0.19213 0.99255 0.0
H1436 H 0.30642 0.17202 0.94796 0.0
H1437 H 0.33187 0.19746 0.93012 0.0
H1438 H 0.35909 0.15948 0.88332 0.0
H1439 H 0.33349 0.13384 0.90069 0.0
H1440 H 0.36994 0.12795 0.91332 0.0
H1441 H 0.37994 0.12155 0.10044 0.0
H1442 H 0.33629 0.09445 0.11497 0.0
H1443 H 0.30352 0.12415 0.98 0.0
C1444 C 0.39081 0.1947 0.95829 0.0
C1445 C 0.41436 0.20543 0.98228 0.0
C1446 C 0.42458 0.19119 0.0231 0.0
C1447 C 0.41046 0.16765 0.04137 0.0
C1448 C 0.38649 0.15825 0.01787 0.0
C1449 C 0.37722 0.1711 0.97648 0.0
C1450 C 0.34984 0.15891 0.95976 0.0
C1451 C 0.32686 0.18147 0.95751 0.0
C1452 C 0.35331 0.14416 0.91141 0.0
C1453 C 0.34438 0.13808 0.99918 0.0
C1454 C 0.36568 0.13755 0.03238 0.0
C1455 C 0.36346 0.12143 0.07401 0.0
C1456 C 0.33866 0.10602 0.08205 0.0
C1457 C 0.31645 0.1072 0.0488 0.0
C1458 C 0.32003 0.12279 1.00637 0.0
H1459 H 0.21256 0.63094 0.9777 0.0
H1460 H 0.17665 0.59596 0.10639 0.0
H1461 H 0.13287 0.62271 0.09072 0.0
H1462 H 0.18878 0.6978 0.99336 0.0
H1463 H 0.18317 0.7045 0.93082 0.0
H1464 H 0.20895 0.6794 0.94906 0.0
H1465 H 0.18488 0.64153 0.89713 0.0
H1466 H 0.15886 0.6666 0.87882 0.0
H1467 H 0.14834 0.63408 0.90582 0.0
H1468 H 0.09499 0.65865 0.06391 0.0
H1469 H 0.06948 0.70003 0.03283 0.0
H1470 H 0.13232 0.71039 0.92341 0.0
C1471 C 0.19545 0.62847 1.00258 0.0
C1472 C 0.19814 0.61146 0.04357 0.0
C1473 C 0.17504 0.60878 0.07469 0.0
C1474 C 0.15013 0.6239 0.06594 0.0
C1475 C 0.14864 0.64116 0.0256 0.0
C1476 C 0.17083 0.64322 0.99442 0.0
C1477 C 0.16569 0.66473 0.95596 0.0
C1478 C 0.18795 0.68797 0.95744 0.0
C1479 C 0.16436 0.6509 0.90651 0.0
C1480 C 0.13742 0.67548 0.97099 0.0
C1481 C 0.12746 0.6614 0.01062 0.0
C1482 C 0.10246 0.66937 0.03245 0.0
C1483 C 0.08796 0.69277 0.01432 0.0
C1484 C 0.09878 0.70815 0.97529 0.0
C1485 C 0.12334 0.69875 0.95275 0.0
H1486 H 0.71368 0.88071 0.97233 0.0
H1487 H 0.68071 0.91876 0.10091 0.0
H1488 H 0.63567 0.89391 0.0875 0.0
H1489 H 0.64911 0.88191 0.90266 0.0
H1490 H 0.65702 0.84881 0.87501 0.0
H1491 H 0.68493 0.87178 0.89298 0.0
H1492 H 0.70664 0.8321 0.94413 0.0
H1493 H 0.67906 0.80903 0.92588 0.0
H1494 H 0.68547 0.81494 0.98843 0.0
H1495 H 0.59561 0.85984 0.06241 0.0
H1496 H 0.56739 0.82018 0.03189 0.0
H1497 H 0.62781 0.80706 0.91931 0.0
C1498 C 0.69703 0.88415 0.99778 0.0
C1499 C 0.70089 0.90159 0.038 0.0
C1500 C 0.67828 0.90552 0.06985 0.0
C1501 C 0.65262 0.89153 0.06235 0.0
C1502 C 0.64981 0.87414 0.0224 0.0
C1503 C 0.67156 0.8707 0.99062 0.0
C1504 C 0.66457 0.84981 0.95199 0.0
C1505 C 0.66386 0.86393 0.90275 0.0
C1506 C 0.68514 0.82501 0.9527 0.0
C1507 C 0.6357 0.84108 0.96751 0.0
C1508 C 0.62716 0.85547 1.00779 0.0
C1509 C 0.60198 0.84893 0.03039 0.0
C1510 C 0.58587 0.82653 0.01251 0.0
C1511 C 0.59518 0.81079 0.97272 0.0
C1512 C 0.61986 0.81902 0.94919 0.0
H1513 H 0.7836 0.3624 0.02219 0.0
H1514 H 0.83421 0.43264 0.06753 0.0
H1515 H 0.87694 0.40702 0.04203 0.0
H1516 H 0.82967 0.30753 0.05625 0.0
H1517 H 0.82133 0.28647 1.00488 0.0
H1518 H 0.79586 0.31047 0.02831 0.0
H1519 H 0.79181 0.33381 0.94507 0.0
H1520 H 0.81762 0.31014 0.92159 0.0
H1521 H 0.82271 0.34736 0.91667 0.0
H1522 H 0.91471 0.37074 0.01382 0.0
H1523 H 0.94184 0.32956 0.98573 0.0
H1524 H 0.86418 0.28706 0.95267 0.0
C1525 C 0.80364 0.3724 0.02745 0.0
C1526 C 0.80557 0.39936 0.04777 0.0
C1527 C 0.83225 0.41186 0.05257 0.0
C1528 C 0.85659 0.39748 0.03801 0.0
C1529 C 0.85381 0.3709 0.0177 0.0
C1530 C 0.82782 0.35875 0.01217 0.0
C1531 C 0.82978 0.33048 0.98845 0.0
C1532 C 0.81851 0.30738 0.02144 0.0
C1533 C 0.81458 0.33047 0.94008 0.0
C1534 C 0.861 0.32814 0.98207 0.0
C1535 C 0.87478 0.35143 0.99925 0.0
C1536 C 0.90398 0.35263 0.9997 0.0
C1537 C 0.91928 0.3292 0.98338 0.0
C1538 C 0.90533 0.30501 0.9664 0.0
C1539 C 0.87578 0.30516 0.96471 0.0
H1540 H 0.71973 0.13293 0.47519 0.0
H1541 H 0.68577 0.09088 0.59924 0.0
H1542 H 0.64041 0.1152 0.58585 0.0
H1543 H 0.68953 0.1977 0.49476 0.0
H1544 H 0.68394 0.20493 0.43239 0.0
H1545 H 0.71186 0.18213 0.45035 0.0
H1546 H 0.69207 0.14319 0.39546 0.0
H1547 H 0.66381 0.16586 0.37779 0.0
H1548 H 0.65642 0.13195 0.40275 0.0
H1549 H 0.5999 0.14893 0.56146 0.0
H1550 H 0.57104 0.18857 0.53229 0.0
H1551 H 0.63274 0.20564 0.42338 0.0
C1552 C 0.70282 0.12853 0.49967 0.0
C1553 C 0.70646 0.11009 0.53861 0.0
C1554 C 0.68352 0.10492 0.5692 0.0
C1555 C 0.65767 0.11859 0.56169 0.0
C1556 C 0.65504 0.13691 0.52296 0.0
C1557 C 0.67716 0.14162 0.49244 0.0
C1558 C 0.67019 0.16321 0.45497 0.0
C1559 C 0.69004 0.18848 0.45836 0.0
C1560 C 0.67064 0.15027 0.40478 0.0
C1561 C 0.64086 0.17083 0.46974 0.0
C1562 C 0.63212 0.15534 0.50863 0.0
C1563 C 0.60644 0.16073 0.53051 0.0
C1564 C 0.59 0.18312 0.5134 0.0
C1565 C 0.59948 0.19996 0.47512 0.0
C1566 C 0.62471 0.19286 0.45215 0.0
H1567 H 0.1301 0.29625 0.54228 0.0
H1568 H 0.08855 0.3342 0.42096 0.0
H1569 H 0.11453 0.37846 0.43667 0.0
H1570 H 0.13358 0.35818 0.61849 0.0
H1571 H 0.16745 0.34834 0.64109 0.0
H1572 H 0.14295 0.32176 0.62316 0.0
H1573 H 0.17969 0.30094 0.56525 0.0
H1574 H 0.20427 0.32726 0.58315 0.0
H1575 H 0.19547 0.32321 0.52101 0.0
H1576 H 0.15015 0.41727 0.46299 0.0
H1577 H 0.19107 0.44389 0.49298 0.0
H1578 H 0.20773 0.37831 0.59561 0.0
C1579 C 0.12604 0.31385 0.51897 0.0
C1580 C 0.10733 0.3116 0.48005 0.0
C1581 C 0.10268 0.3354 0.45106 0.0
C1582 C 0.11737 0.36059 0.45983 0.0
C1583 C 0.13626 0.36166 0.49809 0.0
C1584 C 0.14031 0.33874 0.5272 0.0
C1585 C 0.16296 0.34371 0.56379 0.0
C1586 C 0.15101 0.34296 0.61464 0.0
C1587 C 0.18701 0.32254 0.5579 0.0
C1588 C 0.17191 0.37286 0.55024 0.0
C1589 C 0.15614 0.38328 0.51281 0.0
C1590 C 0.16222 0.40934 0.49272 0.0
C1591 C 0.18538 0.42447 0.51025 0.0
C1592 C 0.20241 0.41331 0.54705 0.0
C1593 C 0.19491 0.38758 0.56794 0.0
H1594 H 0.37376 0.78989 0.52694 0.0
H1595 H 0.43323 0.8378 0.44454 0.0
H1596 H 0.40764 0.88157 0.46551 0.0
H1597 H 0.31373 0.82673 0.49638 0.0
H1598 H 0.29806 0.82394 0.55459 0.0
H1599 H 0.32234 0.79775 0.5348 0.0
H1600 H 0.35276 0.80645 0.60996 0.0
H1601 H 0.32858 0.83288 0.62982 0.0
H1602 H 0.36503 0.84128 0.62275 0.0
H1603 H 0.37047 0.91972 0.48984 0.0
H1604 H 0.32842 0.94636 0.51543 0.0
H1605 H 0.29762 0.87227 0.58712 0.0
C1606 C 0.38156 0.80963 0.51349 0.0
C1607 C 0.40523 0.8105 0.48364 0.0
C1608 C 0.41505 0.83673 0.46738 0.0
C1609 C 0.40063 0.86163 0.47919 0.0
C1610 C 0.37694 0.85993 0.50834 0.0
C1611 C 0.36792 0.83444 0.52577 0.0
C1612 C 0.34184 0.83746 0.55553 0.0
C1613 C 0.31757 0.82048 0.53402 0.0
C1614 C 0.3474 0.82902 0.6076 0.0
C1615 C 0.33681 0.86854 0.55115 0.0
C1616 C 0.3571 0.88143 0.52393 0.0
C1617 C 0.35486 0.9098 0.51196 0.0
C1618 C 0.33098 0.9249 0.52696 0.0
C1619 C 0.30968 0.91159 0.55366 0.0
C1620 C 0.31349 0.88333 0.56712 0.0
H1621 H 0.86182 0.7304 0.48119 0.0
H1622 H 0.93705 0.68002 0.47278 0.0
H1623 H 0.91008 0.63864 0.50015 0.0
H1624 H 0.83655 0.70056 0.58834 0.0
H1625 H 0.80043 0.70309 0.57068 0.0
H1626 H 0.82548 0.72774 0.54797 0.0
H1627 H 0.8118 0.71486 0.46114 0.0
H1628 H 0.7864 0.69052 0.48358 0.0
H1629 H 0.8129 0.67878 0.44259 0.0
H1630 H 0.87279 0.6023 0.52782 0.0
H1631 H 0.83042 0.57609 0.55249 0.0
H1632 H 0.78268 0.65323 0.54777 0.0
C1633 C 0.87274 0.71064 0.48431 0.0
C1634 C 0.90153 0.70841 0.47413 0.0
C1635 C 0.91494 0.68218 0.47992 0.0
C1636 C 0.89979 0.65862 0.49561 0.0
C1637 C 0.87143 0.66182 0.50606 0.0
C1638 C 0.85823 0.68734 0.50069 0.0
C1639 C 0.828 0.68611 0.51548 0.0
C1640 C 0.8223 0.70552 0.55815 0.0
C1641 C 0.80864 0.69296 0.47318 0.0
C1642 C 0.8259 0.65577 0.52964 0.0
C1643 C 0.85096 0.64184 0.52388 0.0
C1644 C 0.85318 0.61317 0.53284 0.0
C1645 C 0.82905 0.59846 0.54705 0.0
C1646 C 0.80317 0.61254 0.55258 0.0
C1647 C 0.80205 0.64168 0.54459 0.0
loop_
_geom_bond_atom_site_label_1
_geom_bond_atom_site_label_2
_geom_bond_distance
_geom_bond_site_symmetry_2
_ccdc_geom_bond_type
Fe0 O2 1.918 . S
Fe0 O5 1.997 . S
Fe0 O6 2.002 . S
Fe0 O11 1.976 . S
Fe0 O14 1.996 . S
Fe1 O2 1.918 . S
Fe1 O9 1.997 . S
Fe1 O12 1.996 . S
Fe1 O16 1.976 . S
Fe1 O19 2.002 1_554 S
O2 Fe0 1.918 . S
O2 Fe1 1.918 . S
O2 Fe3 1.918 . S
Fe3 O2 1.918 . S
Fe3 O4 2.002 . S
Fe3 O13 1.976 . S
Fe3 O17 1.996 . S
Fe3 O20 1.997 1_554 S
O4 Fe3 2.002 . S
O4 C21 1.295 . S
O5 Fe0 1.997 . S
O5 C21 1.235 . S
O6 Fe0 2.002 . S
O6 C7 1.295 1_545 S
C7 O6 1.295 1_565 S
C7 O9 1.235 1_565 S
C8 O13 1.287 . S
C8 O14 1.255 . S
O9 Fe1 1.997 . S
O9 C7 1.235 1_545 S
C10 O16 1.287 . S
C10 O17 1.255 . S
O11 Fe0 1.976 . S
O11 C18 1.287 . S
O12 Fe1 1.996 . S
O12 C18 1.255 . S
O13 Fe3 1.976 . S
O13 C8 1.287 . S
O14 Fe0 1.996 . S
O14 C8 1.255 . S
C15 O19 1.295 . S
C15 O20 1.235 . S
O16 Fe1 1.976 . S
O16 C10 1.287 . S
O17 Fe3 1.996 . S
O17 C10 1.255 . S
C18 O11 1.287 . S
C18 O12 1.255 . S
O19 Fe1 2.002 1_556 S
O19 C15 1.295 . S
O20 Fe3 1.997 1_556 S
O20 C15 1.235 . S
C21 O4 1.295 . S
C21 O5 1.235 . S
Fe22 O24 1.918 . S
Fe22 O27 1.997 . S
Fe22 O28 2.002 1_556 S
Fe22 O33 1.976 . S
Fe22 O36 1.996 . S
Fe23 O24 1.918 . S
Fe23 O31 1.997 1_556 S
Fe23 O34 1.996 . S
Fe23 O38 1.976 . S
Fe23 O41 2.002 . S
O24 Fe22 1.918 . S
O24 Fe23 1.918 . S
O24 Fe25 1.918 . S
Fe25 O24 1.918 . S
Fe25 O26 2.002 . S
Fe25 O35 1.976 . S
Fe25 O39 1.996 . S
Fe25 O42 1.997 . S
O26 Fe25 2.002 . S
O26 C43 1.295 1_455 S
O27 Fe22 1.997 . S
O27 C43 1.235 1_455 S
O28 Fe22 2.002 1_554 S
O28 C29 1.295 . S
C29 O28 1.295 . S
C29 O31 1.235 . S
C30 O35 1.287 . S
C30 O36 1.255 . S
O31 Fe23 1.997 1_554 S
O31 C29 1.235 . S
C32 O38 1.287 . S
C32 O39 1.255 . S
O33 Fe22 1.976 . S
O33 C40 1.287 . S
O34 Fe23 1.996 . S
O34 C40 1.255 . S
O35 Fe25 1.976 . S
O35 C30 1.287 . S
O36 Fe22 1.996 . S
O36 C30 1.255 . S
C37 O41 1.295 . S
C37 O42 1.235 . S
O38 Fe23 1.976 . S
O38 C32 1.287 . S
O39 Fe25 1.996 . S
O39 C32 1.255 . S
C40 O33 1.287 . S
C40 O34 1.255 . S
O41 Fe23 2.002 . S
O41 C37 1.295 . S
O42 Fe25 1.997 . S
O42 C37 1.235 . S
C43 O26 1.295 1_655 S
C43 O27 1.235 1_655 S
Fe44 O46 1.918 . S
Fe44 O49 1.997 1_554 S
Fe44 O50 2.002 . S
Fe44 O55 1.976 . S
Fe44 O58 1.996 . S
Fe45 O46 1.918 . S
Fe45 O53 1.997 . S
Fe45 O56 1.996 . S
Fe45 O60 1.976 . S
Fe45 O63 2.002 . S
O46 Fe44 1.918 . S
O46 Fe45 1.918 . S
O46 Fe47 1.918 . S
Fe47 O46 1.918 . S
Fe47 O48 2.002 1_554 S
Fe47 O57 1.976 . S
Fe47 O61 1.996 . S
Fe47 O64 1.997 . S
O48 Fe47 2.002 1_556 S
O48 C65 1.295 . S
O49 Fe44 1.997 1_556 S
O49 C65 1.235 . S
O50 Fe44 2.002 . S
O50 C51 1.295 . S
C51 O50 1.295 . S
C51 O53 1.235 . S
C52 O57 1.287 . S
C52 O58 1.255 . S
O53 Fe45 1.997 . S
O53 C51 1.235 . S
C54 O60 1.287 . S
C54 O61 1.255 . S
O55 Fe44 1.976 . S
O55 C62 1.287 . S
O56 Fe45 1.996 . S
O56 C62 1.255 . S
O57 Fe47 1.976 . S
O57 C52 1.287 . S
O58 Fe44 1.996 . S
O58 C52 1.255 . S
C59 O63 1.295 1_545 S
C59 O64 1.235 1_545 S
O60 Fe45 1.976 . S
O60 C54 1.287 . S
O61 Fe47 1.996 . S
O61 C54 1.255 . S
C62 O55 1.287 . S
C62 O56 1.255 . S
O63 Fe45 2.002 . S
O63 C59 1.295 1_565 S
O64 Fe47 1.997 . S
O64 C59 1.235 1_565 S
C65 O48 1.295 . S
C65 O49 1.235 . S
Fe66 O68 1.918 . S
Fe66 O71 1.997 . S
Fe66 O72 2.002 . S
Fe66 O77 1.976 . S
Fe66 O80 1.996 . S
Fe67 O68 1.918 . S
Fe67 O75 1.997 . S
Fe67 O78 1.996 . S
Fe67 O82 1.976 . S
Fe67 O85 2.002 1_556 S
O68 Fe66 1.918 . S
O68 Fe67 1.918 . S
O68 Fe69 1.918 . S
Fe69 O68 1.918 . S
Fe69 O70 2.002 . S
Fe69 O79 1.976 . S
Fe69 O83 1.996 . S
Fe69 O86 1.997 1_556 S
O70 Fe69 2.002 . S
O70 C87 1.295 . S
O71 Fe66 1.997 . S
O71 C87 1.235 . S
O72 Fe66 2.002 . S
O72 C73 1.295 1_655 S
C73 O72 1.295 1_455 S
C73 O75 1.235 1_455 S
C74 O79 1.287 . S
C74 O80 1.255 . S
O75 Fe67 1.997 . S
O75 C73 1.235 1_655 S
C76 O82 1.287 . S
C76 O83 1.255 . S
O77 Fe66 1.976 . S
O77 C84 1.287 . S
O78 Fe67 1.996 . S
O78 C84 1.255 . S
O79 Fe69 1.976 . S
O79 C74 1.287 . S
O80 Fe66 1.996 . S
O80 C74 1.255 . S
C81 O85 1.295 . S
C81 O86 1.235 . S
O82 Fe67 1.976 . S
O82 C76 1.287 . S
O83 Fe69 1.996 . S
O83 C76 1.255 . S
C84 O77 1.287 . S
C84 O78 1.255 . S
O85 Fe67 2.002 1_554 S
O85 C81 1.295 . S
O86 Fe69 1.997 1_554 S
O86 C81 1.235 . S
C87 O70 1.295 . S
C87 O71 1.235 . S
Fe88 O90 1.918 . S
Fe88 O93 1.997 . S
Fe88 O94 2.002 . S
Fe88 O99 1.976 . S
Fe88 O102 1.996 . S
Fe89 O90 1.918 . S
Fe89 O97 1.997 . S
Fe89 O100 1.996 . S
Fe89 O104 1.976 . S
Fe89 O107 2.002 . S
O90 Fe88 1.918 . S
O90 Fe89 1.918 . S
O90 Fe91 1.918 . S
Fe91 O90 1.918 . S
Fe91 O92 2.002 . S
Fe91 O101 1.976 . S
Fe91 O105 1.996 . S
Fe91 O108 1.997 . S
O92 Fe91 2.002 . S
O92 C109 1.295 . S
O93 Fe88 1.997 . S
O93 C109 1.235 . S
O94 Fe88 2.002 . S
O94 C95 1.295 1_545 S
C95 O94 1.295 1_565 S
C95 O97 1.235 1_565 S
C96 O101 1.287 . S
C96 O102 1.255 . S
O97 Fe89 1.997 . S
O97 C95 1.235 1_545 S
C98 O104 1.287 . S
C98 O105 1.255 . S
O99 Fe88 1.976 . S
O99 C106 1.287 . S
O100 Fe89 1.996 . S
O100 C106 1.255 . S
O101 Fe91 1.976 . S
O101 C96 1.287 . S
O102 Fe88 1.996 . S
O102 C96 1.255 . S
C103 O107 1.295 . S
C103 O108 1.235 . S
O104 Fe89 1.976 . S
O104 C98 1.287 . S
O105 Fe91 1.996 . S
O105 C98 1.255 . S
C106 O99 1.287 . S
C106 O100 1.255 . S
O107 Fe89 2.002 . S
O107 C103 1.295 . S
O108 Fe91 1.997 . S
O108 C103 1.235 . S
C109 O92 1.295 . S
C109 O93 1.235 . S
Fe110 O112 1.918 . S
Fe110 O115 1.997 . S
Fe110 O116 2.002 . S
Fe110 O121 1.976 . S
Fe110 O124 1.996 . S
Fe111 O112 1.918 . S
Fe111 O119 1.997 . S
Fe111 O122 1.996 . S
Fe111 O126 1.976 . S
Fe111 O129 2.002 . S
O112 Fe110 1.918 . S
O112 Fe111 1.918 . S
O112 Fe113 1.918 . S
Fe113 O112 1.918 . S
Fe113 O114 2.002 . S
Fe113 O123 1.976 . S
Fe113 O127 1.996 . S
Fe113 O130 1.997 . S
O114 Fe113 2.002 . S
O114 C131 1.295 . S
O115 Fe110 1.997 . S
O115 C131 1.235 . S
O116 Fe110 2.002 . S
O116 C117 1.295 1_455 S
C117 O116 1.295 1_655 S
C117 O119 1.235 1_655 S
C118 O123 1.287 . S
C118 O124 1.255 . S
O119 Fe111 1.997 . S
O119 C117 1.235 1_455 S
C120 O126 1.287 . S
C120 O127 1.255 . S
O121 Fe110 1.976 . S
O121 C128 1.287 . S
O122 Fe111 1.996 . S
O122 C128 1.255 . S
O123 Fe113 1.976 . S
O123 C118 1.287 . S
O124 Fe110 1.996 . S
O124 C118 1.255 . S
C125 O129 1.295 . S
C125 O130 1.235 . S
O126 Fe111 1.976 . S
O126 C120 1.287 . S
O127 Fe113 1.996 . S
O127 C120 1.255 . S
C128 O121 1.287 . S
C128 O122 1.255 . S
O129 Fe111 2.002 . S
O129 C125 1.295 . S
O130 Fe113 1.997 . S
O130 C125 1.235 . S
C131 O114 1.295 . S
C131 O115 1.235 . S
Fe132 O134 1.918 . S
Fe132 O137 1.997 . S
Fe132 O138 2.002 . S
Fe132 O143 1.976 . S
Fe132 O146 1.996 . S
Fe133 O134 1.918 . S
Fe133 O141 1.997 . S
Fe133 O144 1.996 . S
Fe133 O148 1.976 . S
Fe133 O151 2.002 . S
O134 Fe132 1.918 . S
O134 Fe133 1.918 . S
O134 Fe135 1.918 . S
Fe135 O134 1.918 . S
Fe135 O136 2.002 . S
Fe135 O145 1.976 . S
Fe135 O149 1.996 . S
Fe135 O152 1.997 . S
O136 Fe135 2.002 . S
O136 C153 1.295 . S
O137 Fe132 1.997 . S
O137 C153 1.235 . S
O138 Fe132 2.002 . S
O138 C139 1.295 1_565 S
C139 O138 1.295 1_545 S
C139 O141 1.235 1_545 S
C140 O145 1.287 . S
C140 O146 1.255 . S
O141 Fe133 1.997 . S
O141 C139 1.235 1_565 S
C142 O148 1.287 . S
C142 O149 1.255 . S
O143 Fe132 1.976 . S
O143 C150 1.287 . S
O144 Fe133 1.996 . S
O144 C150 1.255 . S
O145 Fe135 1.976 . S
O145 C140 1.287 . S
O146 Fe132 1.996 . S
O146 C140 1.255 . S
C147 O151 1.295 . S
C147 O152 1.235 . S
O148 Fe133 1.976 . S
O148 C142 1.287 . S
O149 Fe135 1.996 . S
O149 C142 1.255 . S
C150 O143 1.287 . S
C150 O144 1.255 . S
O151 Fe133 2.002 . S
O151 C147 1.295 . S
O152 Fe135 1.997 . S
O152 C147 1.235 . S
C153 O136 1.295 . S
C153 O137 1.235 . S
Fe154 O156 1.918 . S
Fe154 O159 1.997 . S
Fe154 O160 2.002 . S
Fe154 O165 1.976 . S
Fe154 O168 1.996 . S
Fe155 O156 1.918 . S
Fe155 O163 1.997 . S
Fe155 O166 1.996 . S
Fe155 O170 1.976 . S
Fe155 O173 2.002 . S
O156 Fe154 1.918 . S
O156 Fe155 1.918 . S
O156 Fe157 1.918 . S
Fe157 O156 1.918 . S
Fe157 O158 2.002 . S
Fe157 O167 1.976 . S
Fe157 O171 1.996 . S
Fe157 O174 1.997 . S
O158 Fe157 2.002 . S
O158 C175 1.295 . S
O159 Fe154 1.997 . S
O159 C175 1.235 . S
O160 Fe154 2.002 . S
O160 C161 1.295 1_655 S
C161 O160 1.295 1_455 S
C161 O163 1.235 1_455 S
C162 O167 1.287 . S
C162 O168 1.255 . S
O163 Fe155 1.997 . S
O163 C161 1.235 1_655 S
C164 O170 1.287 . S
C164 O171 1.255 . S
O165 Fe154 1.976 . S
O165 C172 1.287 . S
O166 Fe155 1.996 . S
O166 C172 1.255 . S
O167 Fe157 1.976 . S
O167 C162 1.287 . S
O168 Fe154 1.996 . S
O168 C162 1.255 . S
C169 O173 1.295 . S
C169 O174 1.235 . S
O170 Fe155 1.976 . S
O170 C164 1.287 . S
O171 Fe157 1.996 . S
O171 C164 1.255 . S
C172 O165 1.287 . S
C172 O166 1.255 . S
O173 Fe155 2.002 . S
O173 C169 1.295 . S
O174 Fe157 1.997 . S
O174 C169 1.235 . S
C175 O158 1.295 . S
C175 O159 1.235 . S
Fe176 O178 1.918 . S
Fe176 O181 1.997 . S
Fe176 O182 2.002 . S
Fe176 O187 1.976 . S
Fe176 O190 1.996 . S
Fe177 O178 1.918 . S
Fe177 O185 1.997 . S
Fe177 O188 1.996 . S
Fe177 O192 1.976 . S
Fe177 O195 2.002 . S
O178 Fe176 1.918 . S
O178 Fe177 1.918 . S
O178 Fe179 1.918 . S
Fe179 O178 1.918 . S
Fe179 O180 2.002 . S
Fe179 O189 1.976 . S
Fe179 O193 1.996 . S
Fe179 O196 1.997 . S
O180 Fe179 2.002 . S
O180 C197 1.295 . S
O181 Fe176 1.997 . S
O181 C197 1.235 . S
O182 Fe176 2.002 . S
O182 C183 1.295 . S
C183 O182 1.295 . S
C183 O185 1.235 . S
C184 O189 1.287 . S
C184 O190 1.255 . S
O185 Fe177 1.997 . S
O185 C183 1.235 . S
C186 O192 1.287 . S
C186 O193 1.255 . S
O187 Fe176 1.976 . S
O187 C194 1.287 . S
O188 Fe177 1.996 . S
O188 C194 1.255 . S
O189 Fe179 1.976 . S
O189 C184 1.287 . S
O190 Fe176 1.996 . S
O190 C184 1.255 . S
C191 O195 1.295 . S
C191 O196 1.235 . S
O192 Fe177 1.976 . S
O192 C186 1.287 . S
O193 Fe179 1.996 . S
O193 C186 1.255 . S
C194 O187 1.287 . S
C194 O188 1.255 . S
O195 Fe177 2.002 . S
O195 C191 1.295 . S
O196 Fe179 1.997 . S
O196 C191 1.235 . S
C197 O180 1.295 . S
C197 O181 1.235 . S
Fe198 O200 1.918 . S
Fe198 O203 1.997 . S
Fe198 O204 2.002 . S
Fe198 O209 1.976 . S
Fe198 O212 1.996 . S
Fe199 O200 1.918 . S
Fe199 O207 1.997 . S
Fe199 O210 1.996 . S
Fe199 O214 1.976 . S
Fe199 O217 2.002 . S
O200 Fe198 1.918 . S
O200 Fe199 1.918 . S
O200 Fe201 1.918 . S
Fe201 O200 1.918 . S
Fe201 O202 2.002 . S
Fe201 O211 1.976 . S
Fe201 O215 1.996 . S
Fe201 O218 1.997 . S
O202 Fe201 2.002 . S
O202 C219 1.295 . S
O203 Fe198 1.997 . S
O203 C219 1.235 . S
O204 Fe198 2.002 . S
O204 C205 1.295 . S
C205 O204 1.295 . S
C205 O207 1.235 . S
C206 O211 1.287 . S
C206 O212 1.255 . S
O207 Fe199 1.997 . S
O207 C205 1.235 . S
C208 O214 1.287 . S
C208 O215 1.255 . S
O209 Fe198 1.976 . S
O209 C216 1.287 . S
O210 Fe199 1.996 . S
O210 C216 1.255 . S
O211 Fe201 1.976 . S
O211 C206 1.287 . S
O212 Fe198 1.996 . S
O212 C206 1.255 . S
C213 O217 1.295 . S
C213 O218 1.235 . S
O214 Fe199 1.976 . S
O214 C208 1.287 . S
O215 Fe201 1.996 . S
O215 C208 1.255 . S
C216 O209 1.287 . S
C216 O210 1.255 . S
O217 Fe199 2.002 . S
O217 C213 1.295 . S
O218 Fe201 1.997 . S
O218 C213 1.235 . S
C219 O202 1.295 . S
C219 O203 1.235 . S
Fe220 O222 1.918 . S
Fe220 O225 1.997 . S
Fe220 O226 2.002 . S
Fe220 O231 1.976 . S
Fe220 O234 1.996 . S
Fe221 O222 1.918 . S
Fe221 O229 1.997 . S
Fe221 O232 1.996 . S
Fe221 O236 1.976 . S
Fe221 O239 2.002 . S
O222 Fe220 1.918 . S
O222 Fe221 1.918 . S
O222 Fe223 1.918 . S
Fe223 O222 1.918 . S
Fe223 O224 2.002 . S
Fe223 O233 1.976 . S
Fe223 O237 1.996 . S
Fe223 O240 1.997 . S
O224 Fe223 2.002 . S
O224 C241 1.295 . S
O225 Fe220 1.997 . S
O225 C241 1.235 . S
O226 Fe220 2.002 . S
O226 C227 1.295 . S
C227 O226 1.295 . S
C227 O229 1.235 . S
C228 O233 1.287 . S
C228 O234 1.255 . S
O229 Fe221 1.997 . S
O229 C227 1.235 . S
C230 O236 1.287 . S
C230 O237 1.255 . S
O231 Fe220 1.976 . S
O231 C238 1.287 . S
O232 Fe221 1.996 . S
O232 C238 1.255 . S
O233 Fe223 1.976 . S
O233 C228 1.287 . S
O234 Fe220 1.996 . S
O234 C228 1.255 . S
C235 O239 1.295 . S
C235 O240 1.235 . S
O236 Fe221 1.976 . S
O236 C230 1.287 . S
O237 Fe223 1.996 . S
O237 C230 1.255 . S
C238 O231 1.287 . S
C238 O232 1.255 . S
O239 Fe221 2.002 . S
O239 C235 1.295 . S
O240 Fe223 1.997 . S
O240 C235 1.235 . S
C241 O224 1.295 . S
C241 O225 1.235 . S
Fe242 O244 1.918 . S
Fe242 O247 1.997 . S
Fe242 O248 2.002 . S
Fe242 O253 1.976 . S
Fe242 O256 1.996 . S
Fe243 O244 1.918 . S
Fe243 O251 1.997 . S
Fe243 O254 1.996 . S
Fe243 O258 1.976 . S
Fe243 O261 2.002 . S
O244 Fe242 1.918 . S
O244 Fe243 1.918 . S
O244 Fe245 1.918 . S
Fe245 O244 1.918 . S
Fe245 O246 2.002 . S
Fe245 O255 1.976 . S
Fe245 O259 1.996 . S
Fe245 O262 1.997 . S
O246 Fe245 2.002 . S
O246 C263 1.295 . S
O247 Fe242 1.997 . S
O247 C263 1.235 . S
O248 Fe242 2.002 . S
O248 C249 1.295 . S
C249 O248 1.295 . S
C249 O251 1.235 . S
C250 O255 1.287 . S
C250 O256 1.255 . S
O251 Fe243 1.997 . S
O251 C249 1.235 . S
C252 O258 1.287 . S
C252 O259 1.255 . S
O253 Fe242 1.976 . S
O253 C260 1.287 . S
O254 Fe243 1.996 . S
O254 C260 1.255 . S
O255 Fe245 1.976 . S
O255 C250 1.287 . S
O256 Fe242 1.996 . S
O256 C250 1.255 . S
C257 O261 1.295 . S
C257 O262 1.235 . S
O258 Fe243 1.976 . S
O258 C252 1.287 . S
O259 Fe245 1.996 . S
O259 C252 1.255 . S
C260 O253 1.287 . S
C260 O254 1.255 . S
O261 Fe243 2.002 . S
O261 C257 1.295 . S
O262 Fe245 1.997 . S
O262 C257 1.235 . S
C263 O246 1.295 . S
C263 O247 1.235 . S
Fe264 O266 1.918 . S
Fe264 O269 1.997 . S
Fe264 O270 2.002 . S
Fe264 O275 1.976 . S
Fe264 O278 1.996 . S
Fe265 O266 1.918 . S
Fe265 O273 1.997 . S
Fe265 O276 1.996 . S
Fe265 O280 1.976 . S
Fe265 O283 2.002 1_554 S
O266 Fe264 1.918 . S
O266 Fe265 1.918 . S
O266 Fe267 1.918 . S
Fe267 O266 1.918 . S
Fe267 O268 2.002 . S
Fe267 O277 1.976 . S
Fe267 O281 1.996 . S
Fe267 O284 1.997 1_554 S
O268 Fe267 2.002 . S
O268 C285 1.295 . S
O269 Fe264 1.997 . S
O269 C285 1.235 . S
O270 Fe264 2.002 . S
O270 C271 1.295 . S
C271 O270 1.295 . S
C271 O273 1.235 . S
C272 O277 1.287 . S
C272 O278 1.255 . S
O273 Fe265 1.997 . S
O273 C271 1.235 . S
C274 O280 1.287 . S
C274 O281 1.255 . S
O275 Fe264 1.976 . S
O275 C282 1.287 . S
O276 Fe265 1.996 . S
O276 C282 1.255 . S
O277 Fe267 1.976 . S
O277 C272 1.287 . S
O278 Fe264 1.996 . S
O278 C272 1.255 . S
C279 O283 1.295 . S
C279 O284 1.235 . S
O280 Fe265 1.976 . S
O280 C274 1.287 . S
O281 Fe267 1.996 . S
O281 C274 1.255 . S
C282 O275 1.287 . S
C282 O276 1.255 . S
O283 Fe265 2.002 1_556 S
O283 C279 1.295 . S
O284 Fe267 1.997 1_556 S
O284 C279 1.235 . S
C285 O268 1.295 . S
C285 O269 1.235 . S
Fe286 O288 1.918 . S
Fe286 O291 1.997 . S
Fe286 O292 2.002 . S
Fe286 O297 1.976 . S
Fe286 O300 1.996 . S
Fe287 O288 1.918 . S
Fe287 O295 1.997 . S
Fe287 O298 1.996 . S
Fe287 O302 1.976 . S
Fe287 O305 2.002 1_556 S
O288 Fe286 1.918 . S
O288 Fe287 1.918 . S
O288 Fe289 1.918 . S
Fe289 O288 1.918 . S
Fe289 O290 2.002 . S
Fe289 O299 1.976 . S
Fe289 O303 1.996 . S
Fe289 O306 1.997 1_556 S
O290 Fe289 2.002 . S
O290 C307 1.295 . S
O291 Fe286 1.997 . S
O291 C307 1.235 . S
O292 Fe286 2.002 . S
O292 C293 1.295 . S
C293 O292 1.295 . S
C293 O295 1.235 . S
C294 O299 1.287 . S
C294 O300 1.255 . S
O295 Fe287 1.997 . S
O295 C293 1.235 . S
C296 O302 1.287 . S
C296 O303 1.255 . S
O297 Fe286 1.976 . S
O297 C304 1.287 . S
O298 Fe287 1.996 . S
O298 C304 1.255 . S
O299 Fe289 1.976 . S
O299 C294 1.287 . S
O300 Fe286 1.996 . S
O300 C294 1.255 . S
C301 O305 1.295 . S
C301 O306 1.235 . S
O302 Fe287 1.976 . S
O302 C296 1.287 . S
O303 Fe289 1.996 . S
O303 C296 1.255 . S
C304 O297 1.287 . S
C304 O298 1.255 . S
O305 Fe287 2.002 1_554 S
O305 C301 1.295 . S
O306 Fe289 1.997 1_554 S
O306 C301 1.235 . S
C307 O290 1.295 . S
C307 O291 1.235 . S
Fe308 O310 1.918 . S
Fe308 O313 1.997 . S
Fe308 O314 2.002 . S
Fe308 O319 1.976 . S
Fe308 O322 1.996 . S
Fe309 O310 1.918 . S
Fe309 O317 1.997 . S
Fe309 O320 1.996 . S
Fe309 O324 1.976 . S
Fe309 O327 2.002 1_554 S
O310 Fe308 1.918 . S
O310 Fe309 1.918 . S
O310 Fe311 1.918 . S
Fe311 O310 1.918 . S
Fe311 O312 2.002 . S
Fe311 O321 1.976 . S
Fe311 O325 1.996 . S
Fe311 O328 1.997 1_554 S
O312 Fe311 2.002 . S
O312 C329 1.295 . S
O313 Fe308 1.997 . S
O313 C329 1.235 . S
O314 Fe308 2.002 . S
O314 C315 1.295 . S
C315 O314 1.295 . S
C315 O317 1.235 . S
C316 O321 1.287 . S
C316 O322 1.255 . S
O317 Fe309 1.997 . S
O317 C315 1.235 . S
C318 O324 1.287 . S
C318 O325 1.255 . S
O319 Fe308 1.976 . S
O319 C326 1.287 . S
O320 Fe309 1.996 . S
O320 C326 1.255 . S
O321 Fe311 1.976 . S
O321 C316 1.287 . S
O322 Fe308 1.996 . S
O322 C316 1.255 . S
C323 O327 1.295 . S
C323 O328 1.235 . S
O324 Fe309 1.976 . S
O324 C318 1.287 . S
O325 Fe311 1.996 . S
O325 C318 1.255 . S
C326 O319 1.287 . S
C326 O320 1.255 . S
O327 Fe309 2.002 1_556 S
O327 C323 1.295 . S
O328 Fe311 1.997 1_556 S
O328 C323 1.235 . S
C329 O312 1.295 . S
C329 O313 1.235 . S
Fe330 O332 1.918 . S
Fe330 O335 1.997 . S
Fe330 O336 2.002 1_556 S
Fe330 O341 1.976 . S
Fe330 O344 1.996 . S
Fe331 O332 1.918 . S
Fe331 O339 1.997 1_556 S
Fe331 O342 1.996 . S
Fe331 O346 1.976 . S
Fe331 O349 2.002 . S
O332 Fe330 1.918 . S
O332 Fe331 1.918 . S
O332 Fe333 1.918 . S
Fe333 O332 1.918 . S
Fe333 O334 2.002 . S
Fe333 O343 1.976 . S
Fe333 O347 1.996 . S
Fe333 O350 1.997 . S
O334 Fe333 2.002 . S
O334 C351 1.295 . S
O335 Fe330 1.997 . S
O335 C351 1.235 . S
O336 Fe330 2.002 1_554 S
O336 C337 1.295 . S
C337 O336 1.295 . S
C337 O339 1.235 . S
C338 O343 1.287 . S
C338 O344 1.255 . S
O339 Fe331 1.997 1_554 S
O339 C337 1.235 . S
C340 O346 1.287 . S
C340 O347 1.255 . S
O341 Fe330 1.976 . S
O341 C348 1.287 . S
O342 Fe331 1.996 . S
O342 C348 1.255 . S
O343 Fe333 1.976 . S
O343 C338 1.287 . S
O344 Fe330 1.996 . S
O344 C338 1.255 . S
C345 O349 1.295 . S
C345 O350 1.235 . S
O346 Fe331 1.976 . S
O346 C340 1.287 . S
O347 Fe333 1.996 . S
O347 C340 1.255 . S
C348 O341 1.287 . S
C348 O342 1.255 . S
O349 Fe331 2.002 . S
O349 C345 1.295 . S
O350 Fe333 1.997 . S
O350 C345 1.235 . S
C351 O334 1.295 . S
C351 O335 1.235 . S
H352 C364 0.930 . S
H353 C366 0.930 . S
H354 C367 0.930 . S
H355 C371 0.959 . S
H356 C371 0.959 . S
H357 C371 0.961 . S
H358 C372 0.960 . S
H359 C372 0.961 . S
H360 C372 0.959 . S
H361 C375 0.929 . S
H362 C376 0.931 . S
H363 C378 0.930 . S
C364 H352 0.930 . S
C364 C365 1.399 . S
C364 C369 1.399 . S
C365 C364 1.399 . S
C365 C366 1.376 . S
C366 H353 0.930 . S
C366 C365 1.376 . S
C366 C367 1.388 . S
C367 H354 0.930 . S
C367 C366 1.388 . S
C367 C368 1.390 . S
C368 C367 1.390 . S
C368 C369 1.394 . S
C368 C374 1.465 . S
C369 C364 1.399 . S
C369 C368 1.394 . S
C369 C370 1.516 . S
C370 C369 1.516 . S
C370 C371 1.502 . S
C370 C372 1.561 . S
C370 C373 1.526 . S
C371 H355 0.959 . S
C371 H356 0.959 . S
C371 H357 0.961 . S
C371 C370 1.502 . S
C372 H358 0.960 . S
C372 H359 0.961 . S
C372 H360 0.959 . S
C372 C370 1.561 . S
C373 C370 1.526 . S
C373 C374 1.396 . S
C373 C378 1.390 . S
C374 C368 1.465 . S
C374 C373 1.396 . S
C374 C375 1.399 . S
C375 H361 0.929 . S
C375 C374 1.399 . S
C375 C376 1.385 . S
C376 H362 0.931 . S
C376 C375 1.385 . S
C376 C377 1.389 . S
C377 C376 1.389 . S
C377 C378 1.387 . S
C378 H363 0.930 . S
C378 C373 1.390 . S
C378 C377 1.387 . S
H379 C391 0.930 . S
H380 C393 0.930 . S
H381 C394 0.930 . S
H382 C398 0.959 . S
H383 C398 0.959 . S
H384 C398 0.961 . S
H385 C399 0.960 . S
H386 C399 0.961 . S
H387 C399 0.959 . S
H388 C402 0.929 . S
H389 C403 0.931 . S
H390 C405 0.930 . S
C391 H379 0.930 . S
C391 C392 1.399 . S
C391 C396 1.399 . S
C392 C391 1.399 . S
C392 C393 1.376 . S
C393 H380 0.930 . S
C393 C392 1.376 . S
C393 C394 1.388 . S
C394 H381 0.930 . S
C394 C393 1.388 . S
C394 C395 1.390 . S
C395 C394 1.390 . S
C395 C396 1.394 . S
C395 C401 1.465 . S
C396 C391 1.399 . S
C396 C395 1.394 . S
C396 C397 1.516 . S
C397 C396 1.516 . S
C397 C398 1.502 . S
C397 C399 1.561 . S
C397 C400 1.526 . S
C398 H382 0.959 . S
C398 H383 0.959 . S
C398 H384 0.961 . S
C398 C397 1.502 . S
C399 H385 0.960 . S
C399 H386 0.961 . S
C399 H387 0.959 . S
C399 C397 1.561 . S
C400 C397 1.526 . S
C400 C401 1.396 . S
C400 C405 1.390 . S
C401 C395 1.465 . S
C401 C400 1.396 . S
C401 C402 1.399 . S
C402 H388 0.929 . S
C402 C401 1.399 . S
C402 C403 1.385 . S
C403 H389 0.931 . S
C403 C402 1.385 . S
C403 C404 1.389 . S
C404 C403 1.389 . S
C404 C405 1.387 . S
C405 H390 0.930 . S
C405 C400 1.390 . S
C405 C404 1.387 . S
H406 C418 0.930 . S
H407 C420 0.930 . S
H408 C421 0.930 . S
H409 C425 0.959 . S
H410 C425 0.959 . S
H411 C425 0.961 . S
H412 C426 0.960 . S
H413 C426 0.961 . S
H414 C426 0.959 . S
H415 C429 0.929 . S
H416 C430 0.931 . S
H417 C432 0.930 . S
C418 H406 0.930 . S
C418 C419 1.399 . S
C418 C423 1.399 . S
C419 C418 1.399 . S
C419 C420 1.376 . S
C420 H407 0.930 . S
C420 C419 1.376 . S
C420 C421 1.388 . S
C421 H408 0.930 . S
C421 C420 1.388 . S
C421 C422 1.390 . S
C422 C421 1.390 . S
C422 C423 1.394 . S
C422 C428 1.465 . S
C423 C418 1.399 . S
C423 C422 1.394 . S
C423 C424 1.516 . S
C424 C423 1.516 . S
C424 C425 1.502 . S
C424 C426 1.561 . S
C424 C427 1.526 . S
C425 H409 0.959 . S
C425 H410 0.959 . S
C425 H411 0.961 . S
C425 C424 1.502 . S
C426 H412 0.960 . S
C426 H413 0.961 . S
C426 H414 0.959 . S
C426 C424 1.561 . S
C427 C424 1.526 . S
C427 C428 1.396 . S
C427 C432 1.390 . S
C428 C422 1.465 . S
C428 C427 1.396 . S
C428 C429 1.399 . S
C429 H415 0.929 . S
C429 C428 1.399 . S
C429 C430 1.385 . S
C430 H416 0.931 . S
C430 C429 1.385 . S
C430 C431 1.389 . S
C431 C430 1.389 . S
C431 C432 1.387 . S
C432 H417 0.930 . S
C432 C427 1.390 . S
C432 C431 1.387 . S
H433 C445 0.930 . S
H434 C447 0.930 . S
H435 C448 0.930 . S
H436 C452 0.959 . S
H437 C452 0.959 . S
H438 C452 0.961 . S
H439 C453 0.960 . S
H440 C453 0.961 . S
H441 C453 0.959 . S
H442 C456 0.929 . S
H443 C457 0.931 . S
H444 C459 0.930 . S
C445 H433 0.930 . S
C445 C446 1.399 . S
C445 C450 1.399 . S
C446 C445 1.399 . S
C446 C447 1.376 . S
C447 H434 0.930 . S
C447 C446 1.376 . S
C447 C448 1.388 . S
C448 H435 0.930 . S
C448 C447 1.388 . S
C448 C449 1.390 . S
C449 C448 1.390 . S
C449 C450 1.394 . S
C449 C455 1.465 . S
C450 C445 1.399 . S
C450 C449 1.394 . S
C450 C451 1.516 . S
C451 C450 1.516 . S
C451 C452 1.502 . S
C451 C453 1.561 . S
C451 C454 1.526 . S
C452 H436 0.959 . S
C452 H437 0.959 . S
C452 H438 0.961 . S
C452 C451 1.502 . S
C453 H439 0.960 . S
C453 H440 0.961 . S
C453 H441 0.959 . S
C453 C451 1.561 . S
C454 C451 1.526 . S
C454 C455 1.396 . S
C454 C459 1.390 . S
C455 C449 1.465 . S
C455 C454 1.396 . S
C455 C456 1.399 . S
C456 H442 0.929 . S
C456 C455 1.399 . S
C456 C457 1.385 . S
C457 H443 0.931 . S
C457 C456 1.385 . S
C457 C458 1.389 . S
C458 C457 1.389 . S
C458 C459 1.387 . S
C459 H444 0.930 . S
C459 C454 1.390 . S
C459 C458 1.387 . S
H460 C472 0.930 . S
H461 C474 0.930 . S
H462 C475 0.930 . S
H463 C479 0.959 . S
H464 C479 0.959 . S
H465 C479 0.961 . S
H466 C480 0.960 . S
H467 C480 0.961 . S
H468 C480 0.959 . S
H469 C483 0.929 . S
H470 C484 0.931 . S
H471 C486 0.930 . S
C472 H460 0.930 . S
C472 C473 1.399 . S
C472 C477 1.399 . S
C473 C472 1.399 . S
C473 C474 1.376 . S
C474 H461 0.930 . S
C474 C473 1.376 . S
C474 C475 1.388 . S
C475 H462 0.930 . S
C475 C474 1.388 . S
C475 C476 1.390 . S
C476 C475 1.390 . S
C476 C477 1.394 . S
C476 C482 1.465 . S
C477 C472 1.399 . S
C477 C476 1.394 . S
C477 C478 1.516 . S
C478 C477 1.516 . S
C478 C479 1.502 . S
C478 C480 1.561 . S
C478 C481 1.526 . S
C479 H463 0.959 . S
C479 H464 0.959 . S
C479 H465 0.961 . S
C479 C478 1.502 . S
C480 H466 0.960 . S
C480 H467 0.961 . S
C480 H468 0.959 . S
C480 C478 1.561 . S
C481 C478 1.526 . S
C481 C482 1.396 . S
C481 C486 1.390 . S
C482 C476 1.465 . S
C482 C481 1.396 . S
C482 C483 1.399 . S
C483 H469 0.929 . S
C483 C482 1.399 . S
C483 C484 1.385 . S
C484 H470 0.931 . S
C484 C483 1.385 . S
C484 C485 1.389 . S
C485 C484 1.389 . S
C485 C486 1.387 . S
C486 H471 0.930 . S
C486 C481 1.390 . S
C486 C485 1.387 . S
H487 C499 0.930 . S
H488 C501 0.930 . S
H489 C502 0.930 . S
H490 C506 0.959 . S
H491 C506 0.959 . S
H492 C506 0.961 . S
H493 C507 0.960 . S
H494 C507 0.961 . S
H495 C507 0.959 . S
H496 C510 0.929 . S
H497 C511 0.931 . S
H498 C513 0.930 . S
C499 H487 0.930 . S
C499 C500 1.399 . S
C499 C504 1.399 . S
C500 C499 1.399 . S
C500 C501 1.376 . S
C501 H488 0.930 . S
C501 C500 1.376 . S
C501 C502 1.388 . S
C502 H489 0.930 . S
C502 C501 1.388 . S
C502 C503 1.390 . S
C503 C502 1.390 . S
C503 C504 1.394 . S
C503 C509 1.465 . S
C504 C499 1.399 . S
C504 C503 1.394 . S
C504 C505 1.516 . S
C505 C504 1.516 . S
C505 C506 1.502 . S
C505 C507 1.561 . S
C505 C508 1.526 . S
C506 H490 0.959 . S
C506 H491 0.959 . S
C506 H492 0.961 . S
C506 C505 1.502 . S
C507 H493 0.960 . S
C507 H494 0.961 . S
C507 H495 0.959 . S
C507 C505 1.561 . S
C508 C505 1.526 . S
C508 C509 1.396 . S
C508 C513 1.390 . S
C509 C503 1.465 . S
C509 C508 1.396 . S
C509 C510 1.399 . S
C510 H496 0.929 . S
C510 C509 1.399 . S
C510 C511 1.385 . S
C511 H497 0.931 . S
C511 C510 1.385 . S
C511 C512 1.389 . S
C512 C511 1.389 . S
C512 C513 1.387 . S
C513 H498 0.930 . S
C513 C508 1.390 . S
C513 C512 1.387 . S
H514 C526 0.930 . S
H515 C528 0.930 . S
H516 C529 0.930 . S
H517 C533 0.959 . S
H518 C533 0.959 . S
H519 C533 0.961 . S
H520 C534 0.960 . S
H521 C534 0.961 . S
H522 C534 0.959 . S
H523 C537 0.929 . S
H524 C538 0.931 . S
H525 C540 0.930 . S
C526 H514 0.930 . S
C526 C527 1.399 . S
C526 C531 1.399 . S
C527 C526 1.399 . S
C527 C528 1.376 . S
C528 H515 0.930 . S
C528 C527 1.376 . S
C528 C529 1.388 . S
C529 H516 0.930 . S
C529 C528 1.388 . S
C529 C530 1.390 . S
C530 C529 1.390 . S
C530 C531 1.394 . S
C530 C536 1.465 . S
C531 C526 1.399 . S
C531 C530 1.394 . S
C531 C532 1.516 . S
C532 C531 1.516 . S
C532 C533 1.502 . S
C532 C534 1.561 . S
C532 C535 1.526 . S
C533 H517 0.959 . S
C533 H518 0.959 . S
C533 H519 0.961 . S
C533 C532 1.502 . S
C534 H520 0.960 . S
C534 H521 0.961 . S
C534 H522 0.959 . S
C534 C532 1.561 . S
C535 C532 1.526 . S
C535 C536 1.396 . S
C535 C540 1.390 . S
C536 C530 1.465 . S
C536 C535 1.396 . S
C536 C537 1.399 . S
C537 H523 0.929 . S
C537 C536 1.399 . S
C537 C538 1.385 . S
C538 H524 0.931 . S
C538 C537 1.385 . S
C538 C539 1.389 . S
C539 C538 1.389 . S
C539 C540 1.387 . S
C540 H525 0.930 . S
C540 C535 1.390 . S
C540 C539 1.387 . S
H541 C553 0.930 . S
H542 C555 0.930 . S
H543 C556 0.930 . S
H544 C560 0.959 . S
H545 C560 0.959 . S
H546 C560 0.961 . S
H547 C561 0.960 . S
H548 C561 0.961 . S
H549 C561 0.959 . S
H550 C564 0.929 . S
H551 C565 0.931 . S
H552 C567 0.930 . S
C553 H541 0.930 . S
C553 C554 1.399 . S
C553 C558 1.399 . S
C554 C553 1.399 . S
C554 C555 1.376 . S
C555 H542 0.930 . S
C555 C554 1.376 . S
C555 C556 1.388 . S
C556 H543 0.930 . S
C556 C555 1.388 . S
C556 C557 1.390 . S
C557 C556 1.390 . S
C557 C558 1.394 . S
C557 C563 1.465 . S
C558 C553 1.399 . S
C558 C557 1.394 . S
C558 C559 1.516 . S
C559 C558 1.516 . S
C559 C560 1.502 . S
C559 C561 1.561 . S
C559 C562 1.526 . S
C560 H544 0.959 . S
C560 H545 0.959 . S
C560 H546 0.961 . S
C560 C559 1.502 . S
C561 H547 0.960 . S
C561 H548 0.961 . S
C561 H549 0.959 . S
C561 C559 1.561 . S
C562 C559 1.526 . S
C562 C563 1.396 . S
C562 C567 1.390 . S
C563 C557 1.465 . S
C563 C562 1.396 . S
C563 C564 1.399 . S
C564 H550 0.929 . S
C564 C563 1.399 . S
C564 C565 1.385 . S
C565 H551 0.931 . S
C565 C564 1.385 . S
C565 C566 1.389 . S
C566 C565 1.389 . S
C566 C567 1.387 . S
C567 H552 0.930 . S
C567 C562 1.390 . S
C567 C566 1.387 . S
H568 C580 0.930 . S
H569 C582 0.912 1_545 S
H570 C583 0.930 . S
H571 C587 0.959 . S
H572 C587 0.959 . S
H573 C587 0.961 . S
H574 C588 0.960 . S
H575 C588 0.961 . S
H576 C588 0.959 . S
H577 C591 0.929 . S
H578 C592 0.931 . S
H579 C594 0.930 . S
C580 H568 0.930 . S
C580 C581 1.399 . S
C580 C585 1.399 . S
C581 C580 1.399 . S
C581 C582 1.376 . S
C582 H569 0.912 1_565 S
C582 C581 1.376 . S
C582 C583 1.388 . S
C583 H570 0.930 . S
C583 C582 1.388 . S
C583 C584 1.390 . S
C584 C583 1.390 . S
C584 C585 1.394 . S
C584 C590 1.465 . S
C585 C580 1.399 . S
C585 C584 1.394 . S
C585 C586 1.516 . S
C586 C585 1.516 . S
C586 C587 1.502 1_554 S
C586 C588 1.561 . S
C586 C589 1.526 . S
C587 H571 0.959 . S
C587 H572 0.959 . S
C587 H573 0.961 . S
C587 C586 1.502 1_556 S
C588 H574 0.960 . S
C588 H575 0.961 . S
C588 H576 0.959 . S
C588 C586 1.561 . S
C589 C586 1.526 . S
C589 C590 1.396 . S
C589 C594 1.390 1_554 S
C590 C584 1.465 . S
C590 C589 1.396 . S
C590 C591 1.399 . S
C591 H577 0.929 . S
C591 C590 1.399 . S
C591 C592 1.385 . S
C592 H578 0.931 . S
C592 C591 1.385 . S
C592 C593 1.389 1_554 S
C593 C592 1.389 1_556 S
C593 C594 1.387 . S
C594 H579 0.930 . S
C594 C589 1.390 1_556 S
C594 C593 1.387 . S
H595 C607 0.930 . S
H596 C609 0.930 . S
H597 C610 0.930 . S
H598 C614 0.959 . S
H599 C614 0.959 . S
H600 C614 0.961 . S
H601 C615 0.960 . S
H602 C615 0.961 . S
H603 C615 0.959 . S
H604 C618 0.929 . S
H605 C619 0.931 . S
H606 C621 0.930 . S
C607 H595 0.930 . S
C607 C608 1.399 1_556 S
C607 C612 1.399 . S
C608 C607 1.399 1_554 S
C608 C609 1.376 . S
C609 H596 0.930 . S
C609 C608 1.376 . S
C609 C610 1.388 . S
C610 H597 0.930 . S
C610 C609 1.388 . S
C610 C611 1.390 . S
C611 C610 1.390 . S
C611 C612 1.394 1_554 S
C611 C617 1.465 . S
C612 C607 1.399 . S
C612 C611 1.394 1_556 S
C612 C613 1.516 . S
C613 C612 1.516 . S
C613 C614 1.502 . S
C613 C615 1.561 . S
C613 C616 1.526 . S
C614 H598 0.959 . S
C614 H599 0.959 . S
C614 H600 0.961 . S
C614 C613 1.502 . S
C615 H601 0.960 . S
C615 H602 0.961 . S
C615 H603 0.959 . S
C615 C613 1.561 . S
C616 C613 1.526 . S
C616 C617 1.396 1_556 S
C616 C621 1.390 . S
C617 C611 1.465 . S
C617 C616 1.396 1_554 S
C617 C618 1.399 . S
C618 H604 0.929 . S
C618 C617 1.399 . S
C618 C619 1.385 . S
C619 H605 0.931 . S
C619 C618 1.385 . S
C619 C620 1.389 1_554 S
C620 C619 1.389 1_556 S
C620 C621 1.387 . S
C621 H606 0.930 . S
C621 C616 1.390 . S
C621 C620 1.387 . S
H622 C634 0.930 . S
H623 C636 0.930 . S
H624 C637 0.930 . S
H625 C641 0.959 . S
H626 C641 0.959 . S
H627 C641 0.961 . S
H628 C642 0.960 . S
H629 C642 0.961 . S
H630 C642 0.959 . S
H631 C645 0.929 . S
H632 C646 0.931 . S
H633 C648 0.930 . S
C634 H622 0.930 . S
C634 C635 1.399 . S
C634 C639 1.399 1_556 S
C635 C634 1.399 . S
C635 C636 1.376 . S
C636 H623 0.930 . S
C636 C635 1.376 . S
C636 C637 1.388 1_556 S
C637 H624 0.930 . S
C637 C636 1.388 1_554 S
C637 C638 1.390 . S
C638 C637 1.390 . S
C638 C639 1.394 . S
C638 C644 1.465 . S
C639 C634 1.399 1_554 S
C639 C638 1.394 . S
C639 C640 1.516 . S
C640 C639 1.516 . S
C640 C641 1.502 1_554 S
C640 C642 1.561 . S
C640 C643 1.526 . S
C641 H625 0.959 . S
C641 H626 0.959 . S
C641 H627 0.961 . S
C641 C640 1.502 1_556 S
C642 H628 0.960 . S
C642 H629 0.961 . S
C642 H630 0.959 . S
C642 C640 1.561 . S
C643 C640 1.526 . S
C643 C644 1.396 . S
C643 C648 1.390 . S
C644 C638 1.465 . S
C644 C643 1.396 . S
C644 C645 1.399 . S
C645 H631 0.929 . S
C645 C644 1.399 . S
C645 C646 1.385 . S
C646 H632 0.931 . S
C646 C645 1.385 . S
C646 C647 1.389 . S
C647 C646 1.389 . S
C647 C648 1.387 . S
C648 H633 0.930 . S
C648 C643 1.390 . S
C648 C647 1.387 . S
H649 C661 0.930 . S
H650 C663 0.930 . S
H651 C664 0.930 . S
H652 C668 0.959 . S
H653 C668 0.959 . S
H654 C668 0.961 . S
H655 C669 0.960 . S
H656 C669 0.961 . S
H657 C669 0.959 . S
H658 C672 0.929 . S
H659 C673 0.931 . S
H660 C675 0.930 . S
C661 H649 0.930 . S
C661 C662 1.399 . S
C661 C666 1.399 . S
C662 C661 1.399 . S
C662 C663 1.376 1_556 S
C663 H650 0.930 . S
C663 C662 1.376 1_554 S
C663 C664 1.388 . S
C664 H651 0.930 . S
C664 C663 1.388 . S
C664 C665 1.390 1_554 S
C665 C664 1.390 1_556 S
C665 C666 1.394 . S
C665 C671 1.465 1_556 S
C666 C661 1.399 . S
C666 C665 1.394 . S
C666 C667 1.516 . S
C667 C666 1.516 . S
C667 C668 1.502 . S
C667 C669 1.561 . S
C667 C670 1.526 . S
C668 H652 0.959 . S
C668 H653 0.959 . S
C668 H654 0.961 . S
C668 C667 1.502 . S
C669 H655 0.960 . S
C669 H656 0.961 . S
C669 H657 0.959 . S
C669 C667 1.561 . S
C670 C667 1.526 . S
C670 C671 1.396 1_556 S
C670 C675 1.390 . S
C671 C665 1.465 1_554 S
C671 C670 1.396 1_554 S
C671 C672 1.399 . S
C672 H658 0.929 . S
C672 C671 1.399 . S
C672 C673 1.385 . S
C673 H659 0.931 . S
C673 C672 1.385 . S
C673 C674 1.389 . S
C674 C673 1.389 . S
C674 C675 1.387 1_554 S
C675 H660 0.930 . S
C675 C670 1.390 . S
C675 C674 1.387 1_556 S
H676 C688 0.930 . S
H677 C690 0.930 . S
H678 C691 0.930 . S
H679 C695 0.959 . S
H680 C695 0.959 . S
H681 C695 0.961 . S
H682 C696 0.960 . S
H683 C696 0.961 . S
H684 C696 0.959 . S
H685 C699 0.929 . S
H686 C700 0.931 . S
H687 C702 0.930 . S
C688 H676 0.930 . S
C688 C689 1.399 . S
C688 C693 1.399 . S
C689 C688 1.399 . S
C689 C690 1.376 . S
C690 H677 0.930 . S
C690 C689 1.376 . S
C690 C691 1.388 . S
C691 H678 0.930 . S
C691 C690 1.388 . S
C691 C692 1.390 . S
C692 C691 1.390 . S
C692 C693 1.394 . S
C692 C698 1.465 . S
C693 C688 1.399 . S
C693 C692 1.394 . S
C693 C694 1.516 . S
C694 C693 1.516 . S
C694 C695 1.502 . S
C694 C696 1.561 . S
C694 C697 1.526 . S
C695 H679 0.959 . S
C695 H680 0.959 . S
C695 H681 0.961 . S
C695 C694 1.502 . S
C696 H682 0.960 . S
C696 H683 0.961 . S
C696 H684 0.959 . S
C696 C694 1.561 . S
C697 C694 1.526 . S
C697 C698 1.396 . S
C697 C702 1.390 . S
C698 C692 1.465 . S
C698 C697 1.396 . S
C698 C699 1.399 . S
C699 H685 0.929 . S
C699 C698 1.399 . S
C699 C700 1.385 . S
C700 H686 0.931 . S
C700 C699 1.385 . S
C700 C701 1.389 . S
C701 C700 1.389 . S
C701 C702 1.387 . S
C702 H687 0.930 . S
C702 C697 1.390 . S
C702 C701 1.387 . S
H703 C715 0.930 . S
H704 C717 0.930 . S
H705 C718 0.930 . S
H706 C722 0.959 . S
H707 C722 0.959 . S
H708 C722 0.961 . S
H709 C723 0.960 . S
H710 C723 0.961 . S
H711 C723 0.959 . S
H712 C726 0.929 . S
H713 C727 0.931 . S
H714 C729 0.930 . S
C715 H703 0.930 . S
C715 C716 1.399 . S
C715 C720 1.399 . S
C716 C715 1.399 . S
C716 C717 1.376 . S
C717 H704 0.930 . S
C717 C716 1.376 . S
C717 C718 1.388 . S
C718 H705 0.930 . S
C718 C717 1.388 . S
C718 C719 1.390 . S
C719 C718 1.390 . S
C719 C720 1.394 . S
C719 C725 1.465 . S
C720 C715 1.399 . S
C720 C719 1.394 . S
C720 C721 1.516 . S
C721 C720 1.516 . S
C721 C722 1.502 . S
C721 C723 1.561 . S
C721 C724 1.526 . S
C722 H706 0.959 . S
C722 H707 0.959 . S
C722 H708 0.961 . S
C722 C721 1.502 . S
C723 H709 0.960 . S
C723 H710 0.961 . S
C723 H711 0.959 . S
C723 C721 1.561 . S
C724 C721 1.526 . S
C724 C725 1.396 . S
C724 C729 1.390 . S
C725 C719 1.465 . S
C725 C724 1.396 . S
C725 C726 1.399 . S
C726 H712 0.929 . S
C726 C725 1.399 . S
C726 C727 1.385 . S
C727 H713 0.931 . S
C727 C726 1.385 . S
C727 C728 1.389 . S
C728 C727 1.389 . S
C728 C729 1.387 . S
C729 H714 0.930 . S
C729 C724 1.390 . S
C729 C728 1.387 . S
H730 C742 0.930 . S
H731 C744 0.930 . S
H732 C745 0.930 . S
H733 C749 0.959 . S
H734 C749 0.959 . S
H735 C749 0.961 . S
H736 C750 0.960 . S
H737 C750 0.961 . S
H738 C750 0.959 . S
H739 C753 0.929 . S
H740 C754 0.931 . S
H741 C756 0.930 . S
C742 H730 0.930 . S
C742 C743 1.399 . S
C742 C747 1.399 . S
C743 C742 1.399 . S
C743 C744 1.376 . S
C744 H731 0.930 . S
C744 C743 1.376 . S
C744 C745 1.388 . S
C745 H732 0.930 . S
C745 C744 1.388 . S
C745 C746 1.390 . S
C746 C745 1.390 . S
C746 C747 1.394 . S
C746 C752 1.465 . S
C747 C742 1.399 . S
C747 C746 1.394 . S
C747 C748 1.516 . S
C748 C747 1.516 . S
C748 C749 1.502 . S
C748 C750 1.561 . S
C748 C751 1.526 . S
C749 H733 0.959 . S
C749 H734 0.959 . S
C749 H735 0.961 . S
C749 C748 1.502 . S
C750 H736 0.960 . S
C750 H737 0.961 . S
C750 H738 0.959 . S
C750 C748 1.561 . S
C751 C748 1.526 . S
C751 C752 1.396 . S
C751 C756 1.390 . S
C752 C746 1.465 . S
C752 C751 1.396 . S
C752 C753 1.399 . S
C753 H739 0.929 . S
C753 C752 1.399 . S
C753 C754 1.385 . S
C754 H740 0.931 . S
C754 C753 1.385 . S
C754 C755 1.389 . S
C755 C754 1.389 . S
C755 C756 1.387 . S
C756 H741 0.930 . S
C756 C751 1.390 . S
C756 C755 1.387 . S
H757 C769 0.930 . S
H758 C771 0.930 . S
H759 C772 0.930 . S
H760 C776 0.959 . S
H761 C776 0.959 . S
H762 C776 0.961 . S
H763 C777 0.960 . S
H764 C777 0.961 . S
H765 C777 0.959 . S
H766 C780 0.929 . S
H767 C781 0.931 . S
H768 C783 0.930 . S
C769 H757 0.930 . S
C769 C770 1.399 . S
C769 C774 1.399 . S
C770 C769 1.399 . S
C770 C771 1.376 . S
C771 H758 0.930 . S
C771 C770 1.376 . S
C771 C772 1.388 . S
C772 H759 0.930 . S
C772 C771 1.388 . S
C772 C773 1.390 . S
C773 C772 1.390 . S
C773 C774 1.394 . S
C773 C779 1.465 . S
C774 C769 1.399 . S
C774 C773 1.394 . S
C774 C775 1.516 . S
C775 C774 1.516 . S
C775 C776 1.502 . S
C775 C777 1.561 . S
C775 C778 1.526 . S
C776 H760 0.959 . S
C776 H761 0.959 . S
C776 H762 0.961 . S
C776 C775 1.502 . S
C777 H763 0.960 . S
C777 H764 0.961 . S
C777 H765 0.959 . S
C777 C775 1.561 . S
C778 C775 1.526 . S
C778 C779 1.396 . S
C778 C783 1.390 . S
C779 C773 1.465 . S
C779 C778 1.396 . S
C779 C780 1.399 . S
C780 H766 0.929 . S
C780 C779 1.399 . S
C780 C781 1.385 . S
C781 H767 0.931 . S
C781 C780 1.385 . S
C781 C782 1.389 . S
C782 C781 1.389 . S
C782 C783 1.387 . S
C783 H768 0.930 . S
C783 C778 1.390 . S
C783 C782 1.387 . S
H784 C796 0.930 . S
H785 C798 0.930 . S
H786 C799 0.930 . S
H787 C803 0.959 . S
H788 C803 0.959 . S
H789 C803 0.961 . S
H790 C804 0.960 . S
H791 C804 0.961 . S
H792 C804 0.959 . S
H793 C807 0.929 . S
H794 C808 0.931 . S
H795 C810 0.930 . S
C796 H784 0.930 . S
C796 C797 1.399 . S
C796 C801 1.399 . S
C797 C796 1.399 . S
C797 C798 1.376 . S
C798 H785 0.930 . S
C798 C797 1.376 . S
C798 C799 1.388 . S
C799 H786 0.930 . S
C799 C798 1.388 . S
C799 C800 1.390 . S
C800 C799 1.390 . S
C800 C801 1.394 . S
C800 C806 1.465 . S
C801 C796 1.399 . S
C801 C800 1.394 . S
C801 C802 1.516 . S
C802 C801 1.516 . S
C802 C803 1.502 . S
C802 C804 1.561 . S
C802 C805 1.526 . S
C803 H787 0.959 . S
C803 H788 0.959 . S
C803 H789 0.961 . S
C803 C802 1.502 . S
C804 H790 0.960 . S
C804 H791 0.961 . S
C804 H792 0.959 . S
C804 C802 1.561 . S
C805 C802 1.526 . S
C805 C806 1.396 . S
C805 C810 1.390 . S
C806 C800 1.465 . S
C806 C805 1.396 . S
C806 C807 1.399 . S
C807 H793 0.929 . S
C807 C806 1.399 . S
C807 C808 1.385 . S
C808 H794 0.931 . S
C808 C807 1.385 . S
C808 C809 1.389 . S
C809 C808 1.389 . S
C809 C810 1.387 . S
C810 H795 0.930 . S
C810 C805 1.390 . S
C810 C809 1.387 . S
H811 C823 0.930 . S
H812 C825 0.930 . S
H813 C826 0.930 . S
H814 C830 0.959 . S
H815 C830 0.959 . S
H816 C830 0.961 . S
H817 C831 0.960 . S
H818 C831 0.961 . S
H819 C831 0.959 . S
H820 C834 0.929 . S
H821 C835 0.931 . S
H822 C837 0.930 . S
C823 H811 0.930 . S
C823 C824 1.399 . S
C823 C828 1.399 . S
C824 C823 1.399 . S
C824 C825 1.376 . S
C825 H812 0.930 . S
C825 C824 1.376 . S
C825 C826 1.388 . S
C826 H813 0.930 . S
C826 C825 1.388 . S
C826 C827 1.390 . S
C827 C826 1.390 . S
C827 C828 1.394 . S
C827 C833 1.465 . S
C828 C823 1.399 . S
C828 C827 1.394 . S
C828 C829 1.516 . S
C829 C828 1.516 . S
C829 C830 1.502 . S
C829 C831 1.561 . S
C829 C832 1.526 . S
C830 H814 0.959 . S
C830 H815 0.959 . S
C830 H816 0.961 . S
C830 C829 1.502 . S
C831 H817 0.960 . S
C831 H818 0.961 . S
C831 H819 0.959 . S
C831 C829 1.561 . S
C832 C829 1.526 . S
C832 C833 1.396 . S
C832 C837 1.390 . S
C833 C827 1.465 . S
C833 C832 1.396 . S
C833 C834 1.399 . S
C834 H820 0.929 . S
C834 C833 1.399 . S
C834 C835 1.385 . S
C835 H821 0.931 . S
C835 C834 1.385 . S
C835 C836 1.389 . S
C836 C835 1.389 . S
C836 C837 1.387 . S
C837 H822 0.930 . S
C837 C832 1.390 . S
C837 C836 1.387 . S
H838 C850 0.930 . S
H839 C852 0.930 . S
H840 C853 0.930 . S
H841 C857 0.959 . S
H842 C857 0.959 . S
H843 C857 0.961 . S
H844 C858 0.960 . S
H845 C858 0.961 . S
H846 C858 0.959 . S
H847 C861 0.929 . S
H848 C862 0.931 . S
H849 C864 0.930 . S
C850 H838 0.930 . S
C850 C851 1.399 . S
C850 C855 1.399 . S
C851 C850 1.399 . S
C851 C852 1.376 . S
C852 H839 0.930 . S
C852 C851 1.376 . S
C852 C853 1.388 . S
C853 H840 0.930 . S
C853 C852 1.388 . S
C853 C854 1.390 . S
C854 C853 1.390 . S
C854 C855 1.394 . S
C854 C860 1.465 . S
C855 C850 1.399 . S
C855 C854 1.394 . S
C855 C856 1.516 . S
C856 C855 1.516 . S
C856 C857 1.502 . S
C856 C858 1.561 . S
C856 C859 1.526 . S
C857 H841 0.959 . S
C857 H842 0.959 . S
C857 H843 0.961 . S
C857 C856 1.502 . S
C858 H844 0.960 . S
C858 H845 0.961 . S
C858 H846 0.959 . S
C858 C856 1.561 . S
C859 C856 1.526 . S
C859 C860 1.396 . S
C859 C864 1.390 . S
C860 C854 1.465 . S
C860 C859 1.396 . S
C860 C861 1.399 . S
C861 H847 0.929 . S
C861 C860 1.399 . S
C861 C862 1.385 . S
C862 H848 0.931 . S
C862 C861 1.385 . S
C862 C863 1.389 . S
C863 C862 1.389 . S
C863 C864 1.387 . S
C864 H849 0.930 . S
C864 C859 1.390 . S
C864 C863 1.387 . S
H865 C877 0.930 . S
H866 C879 0.930 . S
H867 C880 0.930 . S
H868 C884 0.959 . S
H869 C884 0.959 . S
H870 C884 0.961 . S
H871 C885 0.960 . S
H872 C885 0.961 . S
H873 C885 0.959 . S
H874 C888 0.929 . S
H875 C889 0.931 . S
H876 C891 0.930 . S
C877 H865 0.930 . S
C877 C878 1.399 . S
C877 C882 1.399 . S
C878 C877 1.399 . S
C878 C879 1.376 . S
C879 H866 0.930 . S
C879 C878 1.376 . S
C879 C880 1.388 . S
C880 H867 0.930 . S
C880 C879 1.388 . S
C880 C881 1.390 . S
C881 C880 1.390 . S
C881 C882 1.394 . S
C881 C887 1.465 . S
C882 C877 1.399 . S
C882 C881 1.394 . S
C882 C883 1.516 . S
C883 C882 1.516 . S
C883 C884 1.502 . S
C883 C885 1.561 . S
C883 C886 1.526 . S
C884 H868 0.959 . S
C884 H869 0.959 . S
C884 H870 0.961 . S
C884 C883 1.502 . S
C885 H871 0.960 . S
C885 H872 0.961 . S
C885 H873 0.959 . S
C885 C883 1.561 . S
C886 C883 1.526 . S
C886 C887 1.396 . S
C886 C891 1.390 . S
C887 C881 1.465 . S
C887 C886 1.396 . S
C887 C888 1.399 . S
C888 H874 0.929 . S
C888 C887 1.399 . S
C888 C889 1.385 . S
C889 H875 0.931 . S
C889 C888 1.385 . S
C889 C890 1.389 . S
C890 C889 1.389 . S
C890 C891 1.387 . S
C891 H876 0.930 . S
C891 C886 1.390 . S
C891 C890 1.387 . S
H892 C904 0.930 . S
H893 C906 0.930 . S
H894 C907 0.930 . S
H895 C911 0.959 . S
H896 C911 0.959 . S
H897 C911 0.961 . S
H898 C912 0.960 . S
H899 C912 0.961 . S
H900 C912 0.959 . S
H901 C915 0.929 . S
H902 C916 0.931 . S
H903 C918 0.930 . S
C904 H892 0.930 . S
C904 C905 1.399 . S
C904 C909 1.399 1_556 S
C905 C904 1.399 . S
C905 C906 1.376 1_556 S
C906 H893 0.930 . S
C906 C905 1.376 1_554 S
C906 C907 1.388 . S
C907 H894 0.930 . S
C907 C906 1.388 . S
C907 C908 1.390 . S
C908 C907 1.390 . S
C908 C909 1.394 . S
C908 C914 1.465 . S
C909 C904 1.399 1_554 S
C909 C908 1.394 . S
C909 C910 1.516 . S
C910 C909 1.516 . S
C910 C911 1.502 1_554 S
C910 C912 1.561 . S
C910 C913 1.526 . S
C911 H895 0.959 . S
C911 H896 0.959 . S
C911 H897 0.961 . S
C911 C910 1.502 1_556 S
C912 H898 0.960 . S
C912 H899 0.961 . S
C912 H900 0.959 . S
C912 C910 1.561 . S
C913 C910 1.526 . S
C913 C914 1.396 . S
C913 C918 1.390 . S
C914 C908 1.465 . S
C914 C913 1.396 . S
C914 C915 1.399 . S
C915 H901 0.929 . S
C915 C914 1.399 . S
C915 C916 1.385 . S
C916 H902 0.931 . S
C916 C915 1.385 . S
C916 C917 1.389 . S
C917 C916 1.389 . S
C917 C918 1.387 . S
C918 H903 0.930 . S
C918 C913 1.390 . S
C918 C917 1.387 . S
H919 C931 0.930 . S
H920 C933 0.930 . S
H921 C934 0.930 . S
H922 C938 0.959 . S
H923 C938 0.959 . S
H924 C938 0.961 . S
H925 C939 0.960 . S
H926 C939 0.961 . S
H927 C939 0.959 . S
H928 C942 0.929 . S
H929 C943 0.931 . S
H930 C945 0.930 1_554 S
C931 H919 0.930 . S
C931 C932 1.399 . S
C931 C936 1.399 . S
C932 C931 1.399 . S
C932 C933 1.376 1_554 S
C933 H920 0.930 . S
C933 C932 1.376 1_556 S
C933 C934 1.388 . S
C934 H921 0.930 . S
C934 C933 1.388 . S
C934 C935 1.390 . S
C935 C934 1.390 . S
C935 C936 1.394 1_556 S
C935 C941 1.465 . S
C936 C931 1.399 . S
C936 C935 1.394 1_554 S
C936 C937 1.516 . S
C937 C936 1.516 . S
C937 C938 1.502 . S
C937 C939 1.561 . S
C937 C940 1.526 1_554 S
C938 H922 0.959 . S
C938 H923 0.959 . S
C938 H924 0.961 . S
C938 C937 1.502 . S
C939 H925 0.960 . S
C939 H926 0.961 . S
C939 H927 0.959 . S
C939 C937 1.561 . S
C940 C937 1.526 1_556 S
C940 C941 1.396 . S
C940 C945 1.390 . S
C941 C935 1.465 . S
C941 C940 1.396 . S
C941 C942 1.399 . S
C942 H928 0.929 . S
C942 C941 1.399 . S
C942 C943 1.385 . S
C943 H929 0.931 . S
C943 C942 1.385 . S
C943 C944 1.389 . S
C944 C943 1.389 . S
C944 C945 1.387 . S
C945 H930 0.930 1_556 S
C945 C940 1.390 . S
C945 C944 1.387 . S
H946 C958 0.930 . S
H947 C960 0.930 . S
H948 C961 0.930 . S
H949 C965 0.959 . S
H950 C965 0.959 . S
H951 C965 0.961 . S
H952 C966 0.960 . S
H953 C966 0.961 . S
H954 C966 0.959 . S
H955 C969 0.929 . S
H956 C970 0.931 . S
H957 C972 0.930 1_556 S
C958 H946 0.930 . S
C958 C959 1.399 . S
C958 C963 1.399 . S
C959 C958 1.399 . S
C959 C960 1.376 1_556 S
C960 H947 0.930 . S
C960 C959 1.376 1_554 S
C960 C961 1.388 . S
C961 H948 0.930 . S
C961 C960 1.388 . S
C961 C962 1.390 . S
C962 C961 1.390 . S
C962 C963 1.394 1_554 S
C962 C968 1.465 . S
C963 C958 1.399 . S
C963 C962 1.394 1_556 S
C963 C964 1.516 . S
C964 C963 1.516 . S
C964 C965 1.502 . S
C964 C966 1.561 . S
C964 C967 1.526 1_556 S
C965 H949 0.959 . S
C965 H950 0.959 . S
C965 H951 0.961 . S
C965 C964 1.502 . S
C966 H952 0.960 . S
C966 H953 0.961 . S
C966 H954 0.959 . S
C966 C964 1.561 . S
C967 C964 1.526 1_554 S
C967 C968 1.396 . S
C967 C972 1.390 . S
C968 C962 1.465 . S
C968 C967 1.396 . S
C968 C969 1.399 . S
C969 H955 0.929 . S
C969 C968 1.399 . S
C969 C970 1.385 . S
C970 H956 0.931 . S
C970 C969 1.385 . S
C970 C971 1.389 . S
C971 C970 1.389 . S
C971 C972 1.387 . S
C972 H957 0.930 1_554 S
C972 C967 1.390 . S
C972 C971 1.387 . S
H973 C985 0.930 . S
H974 C987 0.930 . S
H975 C988 0.930 . S
H976 C992 0.959 . S
H977 C992 0.959 . S
H978 C992 0.961 . S
H979 C993 0.960 . S
H980 C993 0.961 . S
H981 C993 0.959 . S
H982 C996 0.929 . S
H983 C997 0.931 . S
H984 C999 0.930 . S
C985 H973 0.930 . S
C985 C986 1.399 . S
C985 C990 1.399 . S
C986 C985 1.399 . S
C986 C987 1.376 1_556 S
C987 H974 0.930 . S
C987 C986 1.376 1_554 S
C987 C988 1.388 . S
C988 H975 0.930 . S
C988 C987 1.388 . S
C988 C989 1.397 . S
C989 C988 1.397 . S
C989 C990 1.382 1_554 S
C989 C995 1.468 . S
C990 C985 1.399 . S
C990 C989 1.382 1_556 S
C990 C991 1.516 . S
C991 C990 1.516 . S
C991 C992 1.502 . S
C991 C993 1.561 . S
C991 C994 1.526 . S
C992 H976 0.959 . S
C992 H977 0.959 . S
C992 H978 0.961 . S
C992 C991 1.502 . S
C993 H979 0.960 . S
C993 H980 0.961 . S
C993 H981 0.959 . S
C993 C991 1.561 . S
C994 C991 1.526 . S
C994 C995 1.396 1_556 S
C994 C999 1.390 . S
C995 C989 1.468 . S
C995 C994 1.396 1_554 S
C995 C996 1.399 . S
C996 H982 0.929 . S
C996 C995 1.399 . S
C996 C997 1.385 . S
C997 H983 0.931 . S
C997 C996 1.385 . S
C997 C998 1.389 . S
C998 C997 1.389 . S
C998 C999 1.387 1_554 S
C999 H984 0.930 . S
C999 C994 1.390 . S
C999 C998 1.387 1_556 S
H1000 C1012 0.930 . S
H1001 C1014 0.930 . S
H1002 C1015 0.930 . S
H1003 C1019 0.959 . S
H1004 C1019 0.959 . S
H1005 C1019 0.961 . S
H1006 C1020 0.960 . S
H1007 C1020 0.961 . S
H1008 C1020 0.959 . S
H1009 C1023 0.929 1_565 S
H1010 C1024 0.931 . S
H1011 C1026 0.930 . S
C1012 H1000 0.930 . S
C1012 C1013 1.399 1_545 S
C1012 C1017 1.399 . S
C1013 C1012 1.399 1_565 S
C1013 C1014 1.376 . S
C1014 H1001 0.930 . S
C1014 C1013 1.376 . S
C1014 C1015 1.388 . S
C1015 H1002 0.930 . S
C1015 C1014 1.388 . S
C1015 C1016 1.390 . S
C1016 C1015 1.390 . S
C1016 C1017 1.394 1_565 S
C1016 C1022 1.465 1_565 S
C1017 C1012 1.399 . S
C1017 C1016 1.394 1_545 S
C1017 C1018 1.516 . S
C1018 C1017 1.516 . S
C1018 C1019 1.502 . S
C1018 C1020 1.561 . S
C1018 C1021 1.526 . S
C1019 H1003 0.959 . S
C1019 H1004 0.959 . S
C1019 H1005 0.961 . S
C1019 C1018 1.502 . S
C1020 H1006 0.960 . S
C1020 H1007 0.961 . S
C1020 H1008 0.959 . S
C1020 C1018 1.561 . S
C1021 C1018 1.526 . S
C1021 C1022 1.396 . S
C1021 C1026 1.390 . S
C1022 C1016 1.465 1_545 S
C1022 C1021 1.396 . S
C1022 C1023 1.399 . S
C1023 H1009 0.929 1_545 S
C1023 C1022 1.399 . S
C1023 C1024 1.385 . S
C1024 H1010 0.931 . S
C1024 C1023 1.385 . S
C1024 C1025 1.389 . S
C1025 C1024 1.389 . S
C1025 C1026 1.387 . S
C1026 H1011 0.930 . S
C1026 C1021 1.390 . S
C1026 C1025 1.387 . S
H1027 C1039 0.930 . S
H1028 C1041 0.930 . S
H1029 C1042 0.930 . S
H1030 C1046 0.959 . S
H1031 C1046 0.959 . S
H1032 C1046 0.961 . S
H1033 C1047 0.960 . S
H1034 C1047 0.961 . S
H1035 C1047 0.959 . S
H1036 C1050 0.929 . S
H1037 C1051 0.931 . S
H1038 C1053 0.930 . S
C1039 H1027 0.930 . S
C1039 C1040 1.399 1_455 S
C1039 C1044 1.399 . S
C1040 C1039 1.399 1_655 S
C1040 C1041 1.376 . S
C1041 H1028 0.930 . S
C1041 C1040 1.376 . S
C1041 C1042 1.388 . S
C1042 H1029 0.930 . S
C1042 C1041 1.388 . S
C1042 C1043 1.390 1_655 S
C1043 C1042 1.390 1_455 S
C1043 C1044 1.394 . S
C1043 C1049 1.465 . S
C1044 C1039 1.399 . S
C1044 C1043 1.394 . S
C1044 C1045 1.516 . S
C1045 C1044 1.516 . S
C1045 C1046 1.502 . S
C1045 C1047 1.561 . S
C1045 C1048 1.526 . S
C1046 H1030 0.959 . S
C1046 H1031 0.959 . S
C1046 H1032 0.961 . S
C1046 C1045 1.502 . S
C1047 H1033 0.960 . S
C1047 H1034 0.961 . S
C1047 H1035 0.959 . S
C1047 C1045 1.561 . S
C1048 C1045 1.526 . S
C1048 C1049 1.396 . S
C1048 C1053 1.390 . S
C1049 C1043 1.465 . S
C1049 C1048 1.396 . S
C1049 C1050 1.399 . S
C1050 H1036 0.929 . S
C1050 C1049 1.399 . S
C1050 C1051 1.385 . S
C1051 H1037 0.931 . S
C1051 C1050 1.385 . S
C1051 C1052 1.389 . S
C1052 C1051 1.389 . S
C1052 C1053 1.387 . S
C1053 H1038 0.930 . S
C1053 C1048 1.390 . S
C1053 C1052 1.387 . S
H1054 C1066 0.930 . S
H1055 C1068 0.930 . S
H1056 C1069 0.930 1_545 S
H1057 C1073 0.959 . S
H1058 C1073 0.959 . S
H1059 C1073 0.961 . S
H1060 C1074 0.960 . S
H1061 C1074 0.961 . S
H1062 C1074 0.959 . S
H1063 C1077 0.929 . S
H1064 C1078 0.931 . S
H1065 C1080 0.930 . S
C1066 H1054 0.930 . S
C1066 C1067 1.399 . S
C1066 C1071 1.399 . S
C1067 C1066 1.399 . S
C1067 C1068 1.376 . S
C1068 H1055 0.930 . S
C1068 C1067 1.376 . S
C1068 C1069 1.388 . S
C1069 H1056 0.930 1_565 S
C1069 C1068 1.388 . S
C1069 C1070 1.390 . S
C1070 C1069 1.390 . S
C1070 C1071 1.394 . S
C1070 C1076 1.453 1_565 S
C1071 C1066 1.399 . S
C1071 C1070 1.394 . S
C1071 C1072 1.516 . S
C1072 C1071 1.516 . S
C1072 C1073 1.502 . S
C1072 C1074 1.561 . S
C1072 C1075 1.526 . S
C1073 H1057 0.959 . S
C1073 H1058 0.959 . S
C1073 H1059 0.961 . S
C1073 C1072 1.502 . S
C1074 H1060 0.960 . S
C1074 H1061 0.961 . S
C1074 H1062 0.959 . S
C1074 C1072 1.561 . S
C1075 C1072 1.526 . S
C1075 C1076 1.379 1_565 S
C1075 C1080 1.390 . S
C1076 C1070 1.453 1_545 S
C1076 C1075 1.379 1_545 S
C1076 C1077 1.423 . S
C1077 H1063 0.929 . S
C1077 C1076 1.423 . S
C1077 C1078 1.385 . S
C1078 H1064 0.931 . S
C1078 C1077 1.385 . S
C1078 C1079 1.389 . S
C1079 C1078 1.389 . S
C1079 C1080 1.387 1_545 S
C1080 H1065 0.930 . S
C1080 C1075 1.390 . S
C1080 C1079 1.387 1_565 S
H1081 C1093 0.930 . S
H1082 C1095 0.930 . S
H1083 C1096 0.930 . S
H1084 C1100 0.959 . S
H1085 C1100 0.959 . S
H1086 C1100 0.961 . S
H1087 C1101 0.960 . S
H1088 C1101 0.961 . S
H1089 C1101 0.959 1_655 S
H1090 C1104 0.929 . S
H1091 C1105 0.931 . S
H1092 C1107 0.930 . S
C1093 H1081 0.930 . S
C1093 C1094 1.399 . S
C1093 C1098 1.399 . S
C1094 C1093 1.399 . S
C1094 C1095 1.376 . S
C1095 H1082 0.930 . S
C1095 C1094 1.376 . S
C1095 C1096 1.388 . S
C1096 H1083 0.930 . S
C1096 C1095 1.388 . S
C1096 C1097 1.390 . S
C1097 C1096 1.390 . S
C1097 C1098 1.394 . S
C1097 C1103 1.465 . S
C1098 C1093 1.399 . S
C1098 C1097 1.394 . S
C1098 C1099 1.516 1_655 S
C1099 C1098 1.516 1_455 S
C1099 C1100 1.502 . S
C1099 C1101 1.561 . S
C1099 C1102 1.526 . S
C1100 H1084 0.959 . S
C1100 H1085 0.959 . S
C1100 H1086 0.961 . S
C1100 C1099 1.502 . S
C1101 H1087 0.960 . S
C1101 H1088 0.961 . S
C1101 H1089 0.959 1_455 S
C1101 C1099 1.561 . S
C1102 C1099 1.526 . S
C1102 C1103 1.396 1_455 S
C1102 C1107 1.390 . S
C1103 C1097 1.465 . S
C1103 C1102 1.396 1_655 S
C1103 C1104 1.399 . S
C1104 H1090 0.929 . S
C1104 C1103 1.399 . S
C1104 C1105 1.385 . S
C1105 H1091 0.931 . S
C1105 C1104 1.385 . S
C1105 C1106 1.389 1_655 S
C1106 C1105 1.389 1_455 S
C1106 C1107 1.387 . S
C1107 H1092 0.930 . S
C1107 C1102 1.390 . S
C1107 C1106 1.387 . S
H1108 C1120 0.930 . S
H1109 C1122 0.930 . S
H1110 C1123 0.930 . S
H1111 C1127 0.959 . S
H1112 C1127 0.959 . S
H1113 C1127 0.961 . S
H1114 C1128 0.960 . S
H1115 C1128 0.961 . S
H1116 C1128 0.959 . S
H1117 C1131 0.900 1_565 S
H1118 C1132 0.931 . S
H1119 C1134 0.930 . S
C1120 H1108 0.930 . S
C1120 C1121 1.399 1_545 S
C1120 C1125 1.399 . S
C1121 C1120 1.399 1_565 S
C1121 C1122 1.376 . S
C1122 H1109 0.930 . S
C1122 C1121 1.376 . S
C1122 C1123 1.388 . S
C1123 H1110 0.930 . S
C1123 C1122 1.388 . S
C1123 C1124 1.390 . S
C1124 C1123 1.390 . S
C1124 C1125 1.394 1_565 S
C1124 C1130 1.465 1_565 S
C1125 C1120 1.399 . S
C1125 C1124 1.394 1_545 S
C1125 C1126 1.516 . S
C1126 C1125 1.516 . S
C1126 C1127 1.502 . S
C1126 C1128 1.561 . S
C1126 C1129 1.526 . S
C1127 H1111 0.959 . S
C1127 H1112 0.959 . S
C1127 H1113 0.961 . S
C1127 C1126 1.502 . S
C1128 H1114 0.960 . S
C1128 H1115 0.961 . S
C1128 H1116 0.959 . S
C1128 C1126 1.561 . S
C1129 C1126 1.526 . S
C1129 C1130 1.396 . S
C1129 C1134 1.390 . S
C1130 C1124 1.465 1_545 S
C1130 C1129 1.396 . S
C1130 C1131 1.410 . S
C1131 H1117 0.900 1_545 S
C1131 C1130 1.410 . S
C1131 C1132 1.404 . S
C1132 H1118 0.931 . S
C1132 C1131 1.404 . S
C1132 C1133 1.389 . S
C1133 C1132 1.389 . S
C1133 C1134 1.387 . S
C1134 H1119 0.930 . S
C1134 C1129 1.390 . S
C1134 C1133 1.387 . S
H1135 C1147 0.930 . S
H1136 C1149 0.930 . S
H1137 C1150 0.930 1_655 S
H1138 C1154 0.959 . S
H1139 C1154 0.959 . S
H1140 C1154 0.961 . S
H1141 C1155 0.960 . S
H1142 C1155 0.961 . S
H1143 C1155 0.959 . S
H1144 C1158 0.929 . S
H1145 C1159 0.931 . S
H1146 C1161 0.930 . S
C1147 H1135 0.930 . S
C1147 C1148 1.399 . S
C1147 C1152 1.399 . S
C1148 C1147 1.399 . S
C1148 C1149 1.376 . S
C1149 H1136 0.930 . S
C1149 C1148 1.376 . S
C1149 C1150 1.388 . S
C1150 H1137 0.930 1_455 S
C1150 C1149 1.388 . S
C1150 C1151 1.390 . S
C1151 C1150 1.390 . S
C1151 C1152 1.394 . S
C1151 C1157 1.465 1_455 S
C1152 C1147 1.399 . S
C1152 C1151 1.394 . S
C1152 C1153 1.516 . S
C1153 C1152 1.516 . S
C1153 C1154 1.502 . S
C1153 C1155 1.561 . S
C1153 C1156 1.526 . S
C1154 H1138 0.959 . S
C1154 H1139 0.959 . S
C1154 H1140 0.961 . S
C1154 C1153 1.502 . S
C1155 H1141 0.960 . S
C1155 H1142 0.961 . S
C1155 H1143 0.959 . S
C1155 C1153 1.561 . S
C1156 C1153 1.526 . S
C1156 C1157 1.396 1_455 S
C1156 C1161 1.390 . S
C1157 C1151 1.465 1_655 S
C1157 C1156 1.396 1_655 S
C1157 C1158 1.399 . S
C1158 H1144 0.929 . S
C1158 C1157 1.399 . S
C1158 C1159 1.385 . S
C1159 H1145 0.931 . S
C1159 C1158 1.385 . S
C1159 C1160 1.389 . S
C1160 C1159 1.389 . S
C1160 C1161 1.387 1_655 S
C1161 H1146 0.930 . S
C1161 C1156 1.390 . S
C1161 C1160 1.387 1_455 S
H1162 C1174 0.930 . S
H1163 C1176 0.930 . S
H1164 C1177 0.930 . S
H1165 C1181 0.959 . S
H1166 C1181 0.959 . S
H1167 C1181 0.961 . S
H1168 C1182 0.960 . S
H1169 C1182 0.961 . S
H1170 C1182 0.959 . S
H1171 C1185 0.929 . S
H1172 C1186 0.931 . S
H1173 C1188 0.930 . S
C1174 H1162 0.930 . S
C1174 C1175 1.399 . S
C1174 C1179 1.399 . S
C1175 C1174 1.399 . S
C1175 C1176 1.376 . S
C1176 H1163 0.930 . S
C1176 C1175 1.376 . S
C1176 C1177 1.388 . S
C1177 H1164 0.930 . S
C1177 C1176 1.388 . S
C1177 C1178 1.390 . S
C1178 C1177 1.390 . S
C1178 C1179 1.394 . S
C1178 C1184 1.465 . S
C1179 C1174 1.399 . S
C1179 C1178 1.394 . S
C1179 C1180 1.516 1_565 S
C1180 C1179 1.516 1_545 S
C1180 C1181 1.502 . S
C1180 C1182 1.561 . S
C1180 C1183 1.526 . S
C1181 H1165 0.959 . S
C1181 H1166 0.959 . S
C1181 H1167 0.961 . S
C1181 C1180 1.502 . S
C1182 H1168 0.960 . S
C1182 H1169 0.961 . S
C1182 H1170 0.959 . S
C1182 C1180 1.561 . S
C1183 C1180 1.526 . S
C1183 C1184 1.396 1_545 S
C1183 C1188 1.390 . S
C1184 C1178 1.465 . S
C1184 C1183 1.396 1_565 S
C1184 C1185 1.399 . S
C1185 H1171 0.929 . S
C1185 C1184 1.399 . S
C1185 C1186 1.385 . S
C1186 H1172 0.931 . S
C1186 C1185 1.385 . S
C1186 C1187 1.389 1_565 S
C1187 C1186 1.389 1_545 S
C1187 C1188 1.387 . S
C1188 H1173 0.930 . S
C1188 C1183 1.390 . S
C1188 C1187 1.387 . S
H1189 C1201 0.930 1_655 S
H1190 C1203 0.930 . S
H1191 C1204 0.930 . S
H1192 C1208 0.959 . S
H1193 C1208 0.959 . S
H1194 C1208 0.961 . S
H1195 C1209 0.960 1_455 S
H1196 C1209 0.961 . S
H1197 C1209 0.959 1_455 S
H1198 C1212 0.929 . S
H1199 C1213 0.931 . S
H1200 C1215 0.930 . S
C1201 H1189 0.930 1_455 S
C1201 C1202 1.399 . S
C1201 C1206 1.399 1_455 S
C1202 C1201 1.399 . S
C1202 C1203 1.376 . S
C1203 H1190 0.930 . S
C1203 C1202 1.376 . S
C1203 C1204 1.388 . S
C1204 H1191 0.930 . S
C1204 C1203 1.388 . S
C1204 C1205 1.390 1_455 S
C1205 C1204 1.390 1_655 S
C1205 C1206 1.394 . S
C1205 C1211 1.465 . S
C1206 C1201 1.399 1_655 S
C1206 C1205 1.394 . S
C1206 C1207 1.516 . S
C1207 C1206 1.516 . S
C1207 C1208 1.502 . S
C1207 C1209 1.561 . S
C1207 C1210 1.526 . S
C1208 H1192 0.959 . S
C1208 H1193 0.959 . S
C1208 H1194 0.961 . S
C1208 C1207 1.502 . S
C1209 H1195 0.960 1_655 S
C1209 H1196 0.961 . S
C1209 H1197 0.959 1_655 S
C1209 C1207 1.561 . S
C1210 C1207 1.526 . S
C1210 C1211 1.396 . S
C1210 C1215 1.390 . S
C1211 C1205 1.465 . S
C1211 C1210 1.396 . S
C1211 C1212 1.399 . S
C1212 H1198 0.929 . S
C1212 C1211 1.399 . S
C1212 C1213 1.385 . S
C1213 H1199 0.931 . S
C1213 C1212 1.385 . S
C1213 C1214 1.389 . S
C1214 C1213 1.389 . S
C1214 C1215 1.387 . S
C1215 H1200 0.930 . S
C1215 C1210 1.390 . S
C1215 C1214 1.387 . S
H1216 C1228 0.930 . S
H1217 C1230 0.930 . S
H1218 C1231 0.930 . S
H1219 C1235 0.959 . S
H1220 C1235 0.959 . S
H1221 C1235 0.961 . S
H1222 C1236 0.960 . S
H1223 C1236 0.961 . S
H1224 C1236 0.959 . S
H1225 C1239 0.929 . S
H1226 C1240 0.931 . S
H1227 C1242 0.930 . S
C1228 H1216 0.930 . S
C1228 C1229 1.399 . S
C1228 C1233 1.399 . S
C1229 C1228 1.399 . S
C1229 C1230 1.376 . S
C1230 H1217 0.930 . S
C1230 C1229 1.376 . S
C1230 C1231 1.388 . S
C1231 H1218 0.930 . S
C1231 C1230 1.388 . S
C1231 C1232 1.390 . S
C1232 C1231 1.390 . S
C1232 C1233 1.394 . S
C1232 C1238 1.465 . S
C1233 C1228 1.399 . S
C1233 C1232 1.394 . S
C1233 C1234 1.516 . S
C1234 C1233 1.516 . S
C1234 C1235 1.502 . S
C1234 C1236 1.561 . S
C1234 C1237 1.526 . S
C1235 H1219 0.959 . S
C1235 H1220 0.959 . S
C1235 H1221 0.961 . S
C1235 C1234 1.502 . S
C1236 H1222 0.960 . S
C1236 H1223 0.961 . S
C1236 H1224 0.959 . S
C1236 C1234 1.561 . S
C1237 C1234 1.526 . S
C1237 C1238 1.396 . S
C1237 C1242 1.390 . S
C1238 C1232 1.465 . S
C1238 C1237 1.396 . S
C1238 C1239 1.399 . S
C1239 H1225 0.929 . S
C1239 C1238 1.399 . S
C1239 C1240 1.385 . S
C1240 H1226 0.931 . S
C1240 C1239 1.385 . S
C1240 C1241 1.389 . S
C1241 C1240 1.389 . S
C1241 C1242 1.387 . S
C1242 H1227 0.930 . S
C1242 C1237 1.390 . S
C1242 C1241 1.387 . S
H1243 C1255 0.930 . S
H1244 C1257 0.930 . S
H1245 C1258 0.930 . S
H1246 C1262 0.959 . S
H1247 C1262 0.959 . S
H1248 C1262 0.961 . S
H1249 C1263 0.960 . S
H1250 C1263 0.961 . S
H1251 C1263 0.959 . S
H1252 C1266 0.929 . S
H1253 C1267 0.931 . S
H1254 C1269 0.930 . S
C1255 H1243 0.930 . S
C1255 C1256 1.399 . S
C1255 C1260 1.399 . S
C1256 C1255 1.399 . S
C1256 C1257 1.376 . S
C1257 H1244 0.930 . S
C1257 C1256 1.376 . S
C1257 C1258 1.388 . S
C1258 H1245 0.930 . S
C1258 C1257 1.388 . S
C1258 C1259 1.390 . S
C1259 C1258 1.390 . S
C1259 C1260 1.394 . S
C1259 C1265 1.465 . S
C1260 C1255 1.399 . S
C1260 C1259 1.394 . S
C1260 C1261 1.516 . S
C1261 C1260 1.516 . S
C1261 C1262 1.502 . S
C1261 C1263 1.561 . S
C1261 C1264 1.526 . S
C1262 H1246 0.959 . S
C1262 H1247 0.959 . S
C1262 H1248 0.961 . S
C1262 C1261 1.502 . S
C1263 H1249 0.960 . S
C1263 H1250 0.961 . S
C1263 H1251 0.959 . S
C1263 C1261 1.561 . S
C1264 C1261 1.526 . S
C1264 C1265 1.396 . S
C1264 C1269 1.390 . S
C1265 C1259 1.465 . S
C1265 C1264 1.396 . S
C1265 C1266 1.399 . S
C1266 H1252 0.929 . S
C1266 C1265 1.399 . S
C1266 C1267 1.385 . S
C1267 H1253 0.931 . S
C1267 C1266 1.385 . S
C1267 C1268 1.389 . S
C1268 C1267 1.389 . S
C1268 C1269 1.387 . S
C1269 H1254 0.930 . S
C1269 C1264 1.390 . S
C1269 C1268 1.387 . S
H1270 C1282 0.930 . S
H1271 C1284 0.930 . S
H1272 C1285 0.930 . S
H1273 C1289 0.959 . S
H1274 C1289 0.959 . S
H1275 C1289 0.961 . S
H1276 C1290 0.960 . S
H1277 C1290 0.961 . S
H1278 C1290 0.959 . S
H1279 C1293 0.929 . S
H1280 C1294 0.931 . S
H1281 C1296 0.930 . S
C1282 H1270 0.930 . S
C1282 C1283 1.399 . S
C1282 C1287 1.399 . S
C1283 C1282 1.399 . S
C1283 C1284 1.376 . S
C1284 H1271 0.930 . S
C1284 C1283 1.376 . S
C1284 C1285 1.388 . S
C1285 H1272 0.930 . S
C1285 C1284 1.388 . S
C1285 C1286 1.390 . S
C1286 C1285 1.390 . S
C1286 C1287 1.394 . S
C1286 C1292 1.465 . S
C1287 C1282 1.399 . S
C1287 C1286 1.394 . S
C1287 C1288 1.516 . S
C1288 C1287 1.516 . S
C1288 C1289 1.502 . S
C1288 C1290 1.561 . S
C1288 C1291 1.526 . S
C1289 H1273 0.959 . S
C1289 H1274 0.959 . S
C1289 H1275 0.961 . S
C1289 C1288 1.502 . S
C1290 H1276 0.960 . S
C1290 H1277 0.961 . S
C1290 H1278 0.959 . S
C1290 C1288 1.561 . S
C1291 C1288 1.526 . S
C1291 C1292 1.396 . S
C1291 C1296 1.390 . S
C1292 C1286 1.465 . S
C1292 C1291 1.396 . S
C1292 C1293 1.399 . S
C1293 H1279 0.929 . S
C1293 C1292 1.399 . S
C1293 C1294 1.385 . S
C1294 H1280 0.931 . S
C1294 C1293 1.385 . S
C1294 C1295 1.389 . S
C1295 C1294 1.389 . S
C1295 C1296 1.387 . S
C1296 H1281 0.930 . S
C1296 C1291 1.390 . S
C1296 C1295 1.387 . S
H1297 C1309 0.930 . S
H1298 C1311 0.930 . S
H1299 C1312 0.930 . S
H1300 C1316 0.959 . S
H1301 C1316 0.959 . S
H1302 C1316 0.961 . S
H1303 C1317 0.960 . S
H1304 C1317 0.961 . S
H1305 C1317 0.959 . S
H1306 C1320 0.929 . S
H1307 C1321 0.931 . S
H1308 C1323 0.930 . S
C1309 H1297 0.930 . S
C1309 C1310 1.399 . S
C1309 C1314 1.399 . S
C1310 C1309 1.399 . S
C1310 C1311 1.376 . S
C1311 H1298 0.930 . S
C1311 C1310 1.376 . S
C1311 C1312 1.388 . S
C1312 H1299 0.930 . S
C1312 C1311 1.388 . S
C1312 C1313 1.390 . S
C1313 C1312 1.390 . S
C1313 C1314 1.394 . S
C1313 C1319 1.465 . S
C1314 C1309 1.399 . S
C1314 C1313 1.394 . S
C1314 C1315 1.516 . S
C1315 C1314 1.516 . S
C1315 C1316 1.502 . S
C1315 C1317 1.561 . S
C1315 C1318 1.526 . S
C1316 H1300 0.959 . S
C1316 H1301 0.959 . S
C1316 H1302 0.961 . S
C1316 C1315 1.502 . S
C1317 H1303 0.960 . S
C1317 H1304 0.961 . S
C1317 H1305 0.959 . S
C1317 C1315 1.561 . S
C1318 C1315 1.526 . S
C1318 C1319 1.396 . S
C1318 C1323 1.390 . S
C1319 C1313 1.465 . S
C1319 C1318 1.396 . S
C1319 C1320 1.399 . S
C1320 H1306 0.929 . S
C1320 C1319 1.399 . S
C1320 C1321 1.385 . S
C1321 H1307 0.931 . S
C1321 C1320 1.385 . S
C1321 C1322 1.389 . S
C1322 C1321 1.389 . S
C1322 C1323 1.387 . S
C1323 H1308 0.930 . S
C1323 C1318 1.390 . S
C1323 C1322 1.387 . S
H1324 C1336 0.930 . S
H1325 C1338 0.930 . S
H1326 C1339 0.930 . S
H1327 C1343 0.959 . S
H1328 C1343 0.959 . S
H1329 C1343 0.961 . S
H1330 C1344 0.960 . S
H1331 C1344 0.961 . S
H1332 C1344 0.959 . S
H1333 C1347 0.929 . S
H1334 C1348 0.931 . S
H1335 C1350 0.930 . S
C1336 H1324 0.930 . S
C1336 C1337 1.399 . S
C1336 C1341 1.399 . S
C1337 C1336 1.399 . S
C1337 C1338 1.376 . S
C1338 H1325 0.930 . S
C1338 C1337 1.376 . S
C1338 C1339 1.388 . S
C1339 H1326 0.930 . S
C1339 C1338 1.388 . S
C1339 C1340 1.390 . S
C1340 C1339 1.390 . S
C1340 C1341 1.394 . S
C1340 C1346 1.465 . S
C1341 C1336 1.399 . S
C1341 C1340 1.394 . S
C1341 C1342 1.516 . S
C1342 C1341 1.516 . S
C1342 C1343 1.502 . S
C1342 C1344 1.561 . S
C1342 C1345 1.526 . S
C1343 H1327 0.959 . S
C1343 H1328 0.959 . S
C1343 H1329 0.961 . S
C1343 C1342 1.502 . S
C1344 H1330 0.960 . S
C1344 H1331 0.961 . S
C1344 H1332 0.959 . S
C1344 C1342 1.561 . S
C1345 C1342 1.526 . S
C1345 C1346 1.396 . S
C1345 C1350 1.390 . S
C1346 C1340 1.465 . S
C1346 C1345 1.396 . S
C1346 C1347 1.399 . S
C1347 H1333 0.929 . S
C1347 C1346 1.399 . S
C1347 C1348 1.385 . S
C1348 H1334 0.931 . S
C1348 C1347 1.385 . S
C1348 C1349 1.389 . S
C1349 C1348 1.389 . S
C1349 C1350 1.387 . S
C1350 H1335 0.930 . S
C1350 C1345 1.390 . S
C1350 C1349 1.387 . S
H1351 C1363 0.930 . S
H1352 C1365 0.930 . S
H1353 C1366 0.930 . S
H1354 C1370 0.959 . S
H1355 C1370 0.959 . S
H1356 C1370 0.961 . S
H1357 C1371 0.960 . S
H1358 C1371 0.961 . S
H1359 C1371 0.959 . S
H1360 C1374 0.929 . S
H1361 C1375 0.931 . S
H1362 C1377 0.930 . S
C1363 H1351 0.930 . S
C1363 C1364 1.399 . S
C1363 C1368 1.399 . S
C1364 C1363 1.399 . S
C1364 C1365 1.376 . S
C1365 H1352 0.930 . S
C1365 C1364 1.376 . S
C1365 C1366 1.388 . S
C1366 H1353 0.930 . S
C1366 C1365 1.388 . S
C1366 C1367 1.390 . S
C1367 C1366 1.390 . S
C1367 C1368 1.394 . S
C1367 C1373 1.465 . S
C1368 C1363 1.399 . S
C1368 C1367 1.394 . S
C1368 C1369 1.516 . S
C1369 C1368 1.516 . S
C1369 C1370 1.502 . S
C1369 C1371 1.561 . S
C1369 C1372 1.526 . S
C1370 H1354 0.959 . S
C1370 H1355 0.959 . S
C1370 H1356 0.961 . S
C1370 C1369 1.502 . S
C1371 H1357 0.960 . S
C1371 H1358 0.961 . S
C1371 H1359 0.959 . S
C1371 C1369 1.561 . S
C1372 C1369 1.526 . S
C1372 C1373 1.396 . S
C1372 C1377 1.390 . S
C1373 C1367 1.465 . S
C1373 C1372 1.396 . S
C1373 C1374 1.399 . S
C1374 H1360 0.929 . S
C1374 C1373 1.399 . S
C1374 C1375 1.385 . S
C1375 H1361 0.931 . S
C1375 C1374 1.385 . S
C1375 C1376 1.389 . S
C1376 C1375 1.389 . S
C1376 C1377 1.387 . S
C1377 H1362 0.930 . S
C1377 C1372 1.390 . S
C1377 C1376 1.387 . S
H1378 C1390 0.930 . S
H1379 C1392 0.930 . S
H1380 C1393 0.930 . S
H1381 C1397 0.959 . S
H1382 C1397 0.959 . S
H1383 C1397 0.961 . S
H1384 C1398 0.960 . S
H1385 C1398 0.961 . S
H1386 C1398 0.959 . S
H1387 C1401 0.929 . S
H1388 C1402 0.931 . S
H1389 C1404 0.930 . S
C1390 H1378 0.930 . S
C1390 C1391 1.399 . S
C1390 C1395 1.399 . S
C1391 C1390 1.399 . S
C1391 C1392 1.376 . S
C1392 H1379 0.930 . S
C1392 C1391 1.376 . S
C1392 C1393 1.388 . S
C1393 H1380 0.930 . S
C1393 C1392 1.388 . S
C1393 C1394 1.390 . S
C1394 C1393 1.390 . S
C1394 C1395 1.394 . S
C1394 C1400 1.465 . S
C1395 C1390 1.399 . S
C1395 C1394 1.394 . S
C1395 C1396 1.516 . S
C1396 C1395 1.516 . S
C1396 C1397 1.502 . S
C1396 C1398 1.561 . S
C1396 C1399 1.526 . S
C1397 H1381 0.959 . S
C1397 H1382 0.959 . S
C1397 H1383 0.961 . S
C1397 C1396 1.502 . S
C1398 H1384 0.960 . S
C1398 H1385 0.961 . S
C1398 H1386 0.959 . S
C1398 C1396 1.561 . S
C1399 C1396 1.526 . S
C1399 C1400 1.396 . S
C1399 C1404 1.390 . S
C1400 C1394 1.465 . S
C1400 C1399 1.396 . S
C1400 C1401 1.399 . S
C1401 H1387 0.929 . S
C1401 C1400 1.399 . S
C1401 C1402 1.385 . S
C1402 H1388 0.931 . S
C1402 C1401 1.385 . S
C1402 C1403 1.389 . S
C1403 C1402 1.389 . S
C1403 C1404 1.387 . S
C1404 H1389 0.930 . S
C1404 C1399 1.390 . S
C1404 C1403 1.387 . S
H1405 C1417 0.930 . S
H1406 C1419 0.930 . S
H1407 C1420 0.930 . S
H1408 C1424 0.959 . S
H1409 C1424 0.959 . S
H1410 C1424 0.961 . S
H1411 C1425 0.960 . S
H1412 C1425 0.961 . S
H1413 C1425 0.959 . S
H1414 C1428 0.929 . S
H1415 C1429 0.931 . S
H1416 C1431 0.930 . S
C1417 H1405 0.930 . S
C1417 C1418 1.399 . S
C1417 C1422 1.399 . S
C1418 C1417 1.399 . S
C1418 C1419 1.376 . S
C1419 H1406 0.930 . S
C1419 C1418 1.376 . S
C1419 C1420 1.388 . S
C1420 H1407 0.930 . S
C1420 C1419 1.388 . S
C1420 C1421 1.390 . S
C1421 C1420 1.390 . S
C1421 C1422 1.394 . S
C1421 C1427 1.465 . S
C1422 C1417 1.399 . S
C1422 C1421 1.394 . S
C1422 C1423 1.516 . S
C1423 C1422 1.516 . S
C1423 C1424 1.502 . S
C1423 C1425 1.561 . S
C1423 C1426 1.526 . S
C1424 H1408 0.959 . S
C1424 H1409 0.959 . S
C1424 H1410 0.961 . S
C1424 C1423 1.502 . S
C1425 H1411 0.960 . S
C1425 H1412 0.961 . S
C1425 H1413 0.959 . S
C1425 C1423 1.561 . S
C1426 C1423 1.526 . S
C1426 C1427 1.396 . S
C1426 C1431 1.390 . S
C1427 C1421 1.465 . S
C1427 C1426 1.396 . S
C1427 C1428 1.399 . S
C1428 H1414 0.929 . S
C1428 C1427 1.399 . S
C1428 C1429 1.385 . S
C1429 H1415 0.931 . S
C1429 C1428 1.385 . S
C1429 C1430 1.389 . S
C1430 C1429 1.389 . S
C1430 C1431 1.387 . S
C1431 H1416 0.930 . S
C1431 C1426 1.390 . S
C1431 C1430 1.387 . S
H1432 C1444 0.930 . S
H1433 C1446 0.930 . S
H1434 C1447 0.930 . S
H1435 C1451 0.959 . S
H1436 C1451 0.959 . S
H1437 C1451 0.961 . S
H1438 C1452 0.960 . S
H1439 C1452 0.961 . S
H1440 C1452 0.959 . S
H1441 C1455 0.929 . S
H1442 C1456 0.931 . S
H1443 C1458 0.930 1_556 S
C1444 H1432 0.930 . S
C1444 C1445 1.399 . S
C1444 C1449 1.399 . S
C1445 C1444 1.399 . S
C1445 C1446 1.376 1_556 S
C1446 H1433 0.930 . S
C1446 C1445 1.376 1_554 S
C1446 C1447 1.388 . S
C1447 H1434 0.930 . S
C1447 C1446 1.388 . S
C1447 C1448 1.390 . S
C1448 C1447 1.390 . S
C1448 C1449 1.394 1_554 S
C1448 C1454 1.465 . S
C1449 C1444 1.399 . S
C1449 C1448 1.394 1_556 S
C1449 C1450 1.516 . S
C1450 C1449 1.516 . S
C1450 C1451 1.502 . S
C1450 C1452 1.561 . S
C1450 C1453 1.526 . S
C1451 H1435 0.959 . S
C1451 H1436 0.959 . S
C1451 H1437 0.961 . S
C1451 C1450 1.502 . S
C1452 H1438 0.960 . S
C1452 H1439 0.961 . S
C1452 H1440 0.959 . S
C1452 C1450 1.561 . S
C1453 C1450 1.526 . S
C1453 C1454 1.396 1_556 S
C1453 C1458 1.390 1_556 S
C1454 C1448 1.465 . S
C1454 C1453 1.396 1_554 S
C1454 C1455 1.399 . S
C1455 H1441 0.929 . S
C1455 C1454 1.399 . S
C1455 C1456 1.385 . S
C1456 H1442 0.931 . S
C1456 C1455 1.385 . S
C1456 C1457 1.389 . S
C1457 C1456 1.389 . S
C1457 C1458 1.387 . S
C1458 H1443 0.930 1_554 S
C1458 C1453 1.390 1_554 S
C1458 C1457 1.387 . S
H1459 C1471 0.930 1_556 S
H1460 C1473 0.930 . S
H1461 C1474 0.930 . S
H1462 C1478 0.959 . S
H1463 C1478 0.959 . S
H1464 C1478 0.961 . S
H1465 C1479 0.960 . S
H1466 C1479 0.961 . S
H1467 C1479 0.959 . S
H1468 C1482 0.929 . S
H1469 C1483 0.931 . S
H1470 C1485 0.930 . S
C1471 H1459 0.930 1_554 S
C1471 C1472 1.399 . S
C1471 C1476 1.399 1_554 S
C1472 C1471 1.399 . S
C1472 C1473 1.376 . S
C1473 H1460 0.930 . S
C1473 C1472 1.376 . S
C1473 C1474 1.388 . S
C1474 H1461 0.930 . S
C1474 C1473 1.388 . S
C1474 C1475 1.390 . S
C1475 C1474 1.390 . S
C1475 C1476 1.394 1_554 S
C1475 C1481 1.465 . S
C1476 C1471 1.399 1_556 S
C1476 C1475 1.394 1_556 S
C1476 C1477 1.516 . S
C1477 C1476 1.516 . S
C1477 C1478 1.502 . S
C1477 C1479 1.561 . S
C1477 C1480 1.526 . S
C1478 H1462 0.959 . S
C1478 H1463 0.959 . S
C1478 H1464 0.961 . S
C1478 C1477 1.502 . S
C1479 H1465 0.960 . S
C1479 H1466 0.961 . S
C1479 H1467 0.959 . S
C1479 C1477 1.561 . S
C1480 C1477 1.526 . S
C1480 C1481 1.396 1_556 S
C1480 C1485 1.390 . S
C1481 C1475 1.465 . S
C1481 C1480 1.396 1_554 S
C1481 C1482 1.399 . S
C1482 H1468 0.929 . S
C1482 C1481 1.399 . S
C1482 C1483 1.385 . S
C1483 H1469 0.931 . S
C1483 C1482 1.385 . S
C1483 C1484 1.389 1_554 S
C1484 C1483 1.389 1_556 S
C1484 C1485 1.387 . S
C1485 H1470 0.930 . S
C1485 C1480 1.390 . S
C1485 C1484 1.387 . S
H1486 C1498 0.930 . S
H1487 C1500 0.930 . S
H1488 C1501 0.930 . S
H1489 C1505 0.959 1_554 S
H1490 C1505 0.959 . S
H1491 C1505 0.958 1_554 S
H1492 C1506 0.960 . S
H1493 C1506 0.961 . S
H1494 C1506 0.959 . S
H1495 C1509 0.929 1_554 S
H1496 C1510 0.931 . S
H1497 C1512 0.930 . S
C1498 H1486 0.930 . S
C1498 C1499 1.399 . S
C1498 C1503 1.399 . S
C1499 C1498 1.399 . S
C1499 C1500 1.376 . S
C1500 H1487 0.930 . S
C1500 C1499 1.376 . S
C1500 C1501 1.388 . S
C1501 H1488 0.930 . S
C1501 C1500 1.388 . S
C1501 C1502 1.390 . S
C1502 C1501 1.390 . S
C1502 C1503 1.394 . S
C1502 C1508 1.465 1_554 S
C1503 C1498 1.399 . S
C1503 C1502 1.394 . S
C1503 C1504 1.516 1_554 S
C1504 C1503 1.516 1_556 S
C1504 C1505 1.502 . S
C1504 C1506 1.561 . S
C1504 C1507 1.526 . S
C1505 H1489 0.959 1_556 S
C1505 H1490 0.959 . S
C1505 H1491 0.958 1_556 S
C1505 C1504 1.502 . S
C1506 H1492 0.960 . S
C1506 H1493 0.961 . S
C1506 H1494 0.959 . S
C1506 C1504 1.561 . S
C1507 C1504 1.526 . S
C1507 C1508 1.396 . S
C1507 C1512 1.390 . S
C1508 C1502 1.465 1_556 S
C1508 C1507 1.396 . S
C1508 C1509 1.399 . S
C1509 H1495 0.929 1_556 S
C1509 C1508 1.399 . S
C1509 C1510 1.385 . S
C1510 H1496 0.931 . S
C1510 C1509 1.385 . S
C1510 C1511 1.389 . S
C1511 C1510 1.389 . S
C1511 C1512 1.387 . S
C1512 H1497 0.930 . S
C1512 C1507 1.390 . S
C1512 C1511 1.387 . S
H1513 C1525 0.930 . S
H1514 C1527 0.930 . S
H1515 C1528 0.930 . S
H1516 C1532 0.959 . S
H1517 C1532 0.959 . S
H1518 C1532 0.961 . S
H1519 C1533 0.960 . S
H1520 C1533 0.961 . S
H1521 C1533 0.959 . S
H1522 C1536 0.929 . S
H1523 C1537 0.931 . S
H1524 C1539 0.930 1_554 S
C1525 H1513 0.930 . S
C1525 C1526 1.399 . S
C1525 C1530 1.399 . S
C1526 C1525 1.399 . S
C1526 C1527 1.376 1_554 S
C1527 H1514 0.930 . S
C1527 C1526 1.376 1_556 S
C1527 C1528 1.388 . S
C1528 H1515 0.930 . S
C1528 C1527 1.388 . S
C1528 C1529 1.390 . S
C1529 C1528 1.390 . S
C1529 C1530 1.394 1_556 S
C1529 C1535 1.465 . S
C1530 C1525 1.399 . S
C1530 C1529 1.394 1_554 S
C1530 C1531 1.516 . S
C1531 C1530 1.516 . S
C1531 C1532 1.502 . S
C1531 C1533 1.561 . S
C1531 C1534 1.526 . S
C1532 H1516 0.959 . S
C1532 H1517 0.959 . S
C1532 H1518 0.961 . S
C1532 C1531 1.502 . S
C1533 H1519 0.960 . S
C1533 H1520 0.961 . S
C1533 H1521 0.959 . S
C1533 C1531 1.561 . S
C1534 C1531 1.526 . S
C1534 C1535 1.396 1_554 S
C1534 C1539 1.390 1_554 S
C1535 C1529 1.465 . S
C1535 C1534 1.396 1_556 S
C1535 C1536 1.399 . S
C1536 H1522 0.929 . S
C1536 C1535 1.399 . S
C1536 C1537 1.385 . S
C1537 H1523 0.931 . S
C1537 C1536 1.385 . S
C1537 C1538 1.389 . S
C1538 C1537 1.389 . S
C1538 C1539 1.387 . S
C1539 H1524 0.930 1_556 S
C1539 C1534 1.390 1_556 S
C1539 C1538 1.387 . S
H1540 C1552 0.930 . S
H1541 C1554 0.930 . S
H1542 C1555 0.930 . S
H1543 C1559 0.959 . S
H1544 C1559 0.959 . S
H1545 C1559 0.961 . S
H1546 C1560 0.960 . S
H1547 C1560 0.961 . S
H1548 C1560 0.959 . S
H1549 C1563 0.929 . S
H1550 C1564 0.931 . S
H1551 C1566 0.930 . S
C1552 H1540 0.930 . S
C1552 C1553 1.399 . S
C1552 C1557 1.399 . S
C1553 C1552 1.399 . S
C1553 C1554 1.376 . S
C1554 H1541 0.930 . S
C1554 C1553 1.376 . S
C1554 C1555 1.388 . S
C1555 H1542 0.930 . S
C1555 C1554 1.388 . S
C1555 C1556 1.390 . S
C1556 C1555 1.390 . S
C1556 C1557 1.394 . S
C1556 C1562 1.465 . S
C1557 C1552 1.399 . S
C1557 C1556 1.394 . S
C1557 C1558 1.516 . S
C1558 C1557 1.516 . S
C1558 C1559 1.502 . S
C1558 C1560 1.561 . S
C1558 C1561 1.526 . S
C1559 H1543 0.959 . S
C1559 H1544 0.959 . S
C1559 H1545 0.961 . S
C1559 C1558 1.502 . S
C1560 H1546 0.960 . S
C1560 H1547 0.961 . S
C1560 H1548 0.959 . S
C1560 C1558 1.561 . S
C1561 C1558 1.526 . S
C1561 C1562 1.396 . S
C1561 C1566 1.390 . S
C1562 C1556 1.465 . S
C1562 C1561 1.396 . S
C1562 C1563 1.399 . S
C1563 H1549 0.929 . S
C1563 C1562 1.399 . S
C1563 C1564 1.385 . S
C1564 H1550 0.931 . S
C1564 C1563 1.385 . S
C1564 C1565 1.389 . S
C1565 C1564 1.389 . S
C1565 C1566 1.387 . S
C1566 H1551 0.930 . S
C1566 C1561 1.390 . S
C1566 C1565 1.387 . S
H1567 C1579 0.930 . S
H1568 C1581 0.930 . S
H1569 C1582 0.930 . S
H1570 C1586 0.959 . S
H1571 C1586 0.959 . S
H1572 C1586 0.961 . S
H1573 C1587 0.960 . S
H1574 C1587 0.961 . S
H1575 C1587 0.959 . S
H1576 C1590 0.929 . S
H1577 C1591 0.931 . S
H1578 C1593 0.930 . S
C1579 H1567 0.930 . S
C1579 C1580 1.399 . S
C1579 C1584 1.399 . S
C1580 C1579 1.399 . S
C1580 C1581 1.376 . S
C1581 H1568 0.930 . S
C1581 C1580 1.376 . S
C1581 C1582 1.388 . S
C1582 H1569 0.930 . S
C1582 C1581 1.388 . S
C1582 C1583 1.390 . S
C1583 C1582 1.390 . S
C1583 C1584 1.394 . S
C1583 C1589 1.465 . S
C1584 C1579 1.399 . S
C1584 C1583 1.394 . S
C1584 C1585 1.516 . S
C1585 C1584 1.516 . S
C1585 C1586 1.502 . S
C1585 C1587 1.561 . S
C1585 C1588 1.526 . S
C1586 H1570 0.959 . S
C1586 H1571 0.959 . S
C1586 H1572 0.961 . S
C1586 C1585 1.502 . S
C1587 H1573 0.960 . S
C1587 H1574 0.961 . S
C1587 H1575 0.959 . S
C1587 C1585 1.561 . S
C1588 C1585 1.526 . S
C1588 C1589 1.396 . S
C1588 C1593 1.390 . S
C1589 C1583 1.465 . S
C1589 C1588 1.396 . S
C1589 C1590 1.399 . S
C1590 H1576 0.929 . S
C1590 C1589 1.399 . S
C1590 C1591 1.385 . S
C1591 H1577 0.931 . S
C1591 C1590 1.385 . S
C1591 C1592 1.389 . S
C1592 C1591 1.389 . S
C1592 C1593 1.387 . S
C1593 H1578 0.930 . S
C1593 C1588 1.390 . S
C1593 C1592 1.387 . S
H1594 C1606 0.930 . S
H1595 C1608 0.930 . S
H1596 C1609 0.930 . S
H1597 C1613 0.959 . S
H1598 C1613 0.959 . S
H1599 C1613 0.961 . S
H1600 C1614 0.960 . S
H1601 C1614 0.961 . S
H1602 C1614 0.959 . S
H1603 C1617 0.929 . S
H1604 C1618 0.931 . S
H1605 C1620 0.930 . S
C1606 H1594 0.930 . S
C1606 C1607 1.399 . S
C1606 C1611 1.399 . S
C1607 C1606 1.399 . S
C1607 C1608 1.376 . S
C1608 H1595 0.930 . S
C1608 C1607 1.376 . S
C1608 C1609 1.388 . S
C1609 H1596 0.930 . S
C1609 C1608 1.388 . S
C1609 C1610 1.390 . S
C1610 C1609 1.390 . S
C1610 C1611 1.394 . S
C1610 C1616 1.465 . S
C1611 C1606 1.399 . S
C1611 C1610 1.394 . S
C1611 C1612 1.516 . S
C1612 C1611 1.516 . S
C1612 C1613 1.502 . S
C1612 C1614 1.561 . S
C1612 C1615 1.526 . S
C1613 H1597 0.959 . S
C1613 H1598 0.959 . S
C1613 H1599 0.961 . S
C1613 C1612 1.502 . S
C1614 H1600 0.960 . S
C1614 H1601 0.961 . S
C1614 H1602 0.959 . S
C1614 C1612 1.561 . S
C1615 C1612 1.526 . S
C1615 C1616 1.396 . S
C1615 C1620 1.390 . S
C1616 C1610 1.465 . S
C1616 C1615 1.396 . S
C1616 C1617 1.399 . S
C1617 H1603 0.929 . S
C1617 C1616 1.399 . S
C1617 C1618 1.385 . S
C1618 H1604 0.931 . S
C1618 C1617 1.385 . S
C1618 C1619 1.389 . S
C1619 C1618 1.389 . S
C1619 C1620 1.387 . S
C1620 H1605 0.930 . S
C1620 C1615 1.390 . S
C1620 C1619 1.387 . S
H1621 C1633 0.930 . S
H1622 C1635 0.930 . S
H1623 C1636 0.930 . S
H1624 C1640 0.959 . S
H1625 C1640 0.959 . S
H1626 C1640 0.961 . S
H1627 C1641 0.960 . S
H1628 C1641 0.961 . S
H1629 C1641 0.959 . S
H1630 C1644 0.929 . S
H1631 C1645 0.931 . S
H1632 C1647 0.930 . S
C1633 H1621 0.930 . S
C1633 C1634 1.399 . S
C1633 C1638 1.399 . S
C1634 C1633 1.399 . S
C1634 C1635 1.376 . S
C1635 H1622 0.930 . S
C1635 C1634 1.376 . S
C1635 C1636 1.388 . S
C1636 H1623 0.930 . S
C1636 C1635 1.388 . S
C1636 C1637 1.390 . S
C1637 C1636 1.390 . S
C1637 C1638 1.394 . S
C1637 C1643 1.465 . S
C1638 C1633 1.399 . S
C1638 C1637 1.394 . S
C1638 C1639 1.516 . S
C1639 C1638 1.516 . S
C1639 C1640 1.502 . S
C1639 C1641 1.561 . S
C1639 C1642 1.526 . S
C1640 H1624 0.959 . S
C1640 H1625 0.959 . S
C1640 H1626 0.961 . S
C1640 C1639 1.502 . S
C1641 H1627 0.960 . S
C1641 H1628 0.961 . S
C1641 H1629 0.959 . S
C1641 C1639 1.561 . S
C1642 C1639 1.526 . S
C1642 C1643 1.396 . S
C1642 C1647 1.390 . S
C1643 C1637 1.465 . S
C1643 C1642 1.396 . S
C1643 C1644 1.399 . S
C1644 H1630 0.929 . S
C1644 C1643 1.399 . S
C1644 C1645 1.385 . S
C1645 H1631 0.931 . S
C1645 C1644 1.385 . S
C1645 C1646 1.389 . S
C1646 C1645 1.389 . S
C1646 C1647 1.387 . S
C1647 H1632 0.930 . S
C1647 C1642 1.390 . S
C1647 C1646 1.387 . S
C365 C8 1.243 . S
C377 C118 1.240 . S
C392 C32 1.162 . S
C404 C140 1.164 . S
C419 C162 1.198 . S
C431 C62 1.176 . S
C446 C96 1.202 . S
C458 C74 1.202 . S
C473 C294 1.207 . S
C485 C186 1.183 . S
C500 C208 1.174 . S
C512 C316 1.175 . S
C527 C340 1.196 . S
C539 C230 1.175 . S
C554 C272 1.197 . S
C566 C252 1.197 . S
C581 C7 1.477 . S
C593 C37 1.482 . S
C608 C51 1.436 . S
C620 C43 1.502 . S
C635 C87 1.416 . S
C647 C59 1.510 . S
C662 C73 1.513 . S
C674 C21 1.402 . S
C689 C95 1.512 . S
C701 C175 1.407 . S
C716 C109 1.398 . S
C728 C117 1.513 . S
C743 C131 1.462 . S
C755 C139 1.491 . S
C770 C153 1.398 . S
C782 C161 1.511 . S
C797 C197 1.492 . S
C809 C213 1.461 . S
C824 C235 1.443 . S
C836 C219 1.499 . S
C851 C241 1.482 . S
C863 C257 1.458 . S
C878 C263 1.477 . S
C890 C191 1.480 . S
C905 C345 1.482 . S
C917 C271 1.477 . S
C932 C285 1.480 . S
C944 C293 1.482 . S
C959 C307 1.425 . S
C971 C315 1.497 . S
C986 C351 1.491 . S
C998 C329 1.436 . S
C1013 C150 1.301 . S
C1025 C15 1.297 . S
C1040 C172 1.346 . S
C1052 C29 1.311 . S
C1067 C65 1.299 . S
C1079 C106 1.331 . S
C1094 C81 1.348 . S
C1106 C128 1.304 . S
C1121 C54 1.326 . S
C1133 C103 1.295 . S
C1148 C125 1.295 . S
C1160 C84 1.308 . S
C1175 C147 1.338 . S
C1187 C18 1.329 . S
C1202 C30 1.341 . S
C1214 C169 1.309 . S
C1229 C183 1.299 . S
C1241 C326 1.330 . S
C1256 C205 1.341 . S
C1268 C338 1.287 . S
C1283 C282 1.340 . S
C1295 C227 1.341 . S
C1310 C249 1.294 . S
C1322 C304 1.329 . S
C1337 C279 1.314 . S
C1349 C228 1.294 . S
C1364 C301 1.338 . S
C1376 C250 1.342 . S
C1391 C323 1.322 . S
C1403 C184 1.343 . S
C1418 C206 1.333 . S
C1430 C337 1.302 . S
C1445 C348 1.387 . S
C1457 C10 1.433 . S
C1472 C274 1.426 . S
C1484 C40 1.358 . S
C1499 C52 1.363 . S
C1511 C296 1.360 . S
C1526 C318 1.353 . S
C1538 C76 1.416 . S
C1553 C98 1.384 . S
C1565 C216 1.437 . S
C1580 C120 1.406 . S
C1592 C238 1.359 . S
C1607 C260 1.436 . S
C1619 C142 1.395 . S
C1634 C164 1.413 . S
C1646 C194 1.364 . S
