# Generated by pormake.
# Topology wkp, (6)-cn, num edge types: 1
# Building blocks:
#     Node 0, Type 0, BuildingBlock: OJICUG_clean_sbu_0, # of connection points: 6
#     Node 1, Type 0, BuildingBlock: OJICUG_clean_sbu_0, # of connection points: 6
#     Node 2, Type 0, BuildingBlock: OJICUG_clean_sbu_0, # of connection points: 6
#     Node 3, Type 0, BuildingBlock: OJICUG_clean_sbu_0, # of connection points: 6
#     Node 4, Type 0, BuildingBlock: OJICUG_clean_sbu_0, # of connection points: 6
#     Node 5, Type 0, BuildingBlock: OJICUG_clean_sbu_0, # of connection points: 6
#     Node 6, Type 0, BuildingBlock: OJICUG_clean_sbu_0, # of connection points: 6
#     Node 7, Type 0, BuildingBlock: OJICUG_clean_sbu_0, # of connection points: 6
#     Node 8, Type 0, BuildingBlock: OJICUG_clean_sbu_0, # of connection points: 6
#     Node 9, Type 0, BuildingBlock: OJICUG_clean_sbu_0, # of connection points: 6
#     Node 10, Type 0, BuildingBlock: OJICUG_clean_sbu_0, # of connection points: 6
#     Node 11, Type 0, BuildingBlock: OJICUG_clean_sbu_0, # of connection points: 6
#     Edge 12, Type (0, 0), BuildingBlock: MIFKUJ_clean_linker_0, # of connection points: 2
#     Edge 13, Type (0, 0), BuildingBlock: MIFKUJ_clean_linker_0, # of connection points: 2
#     Edge 14, Type (0, 0), BuildingBlock: MIFKUJ_clean_linker_0, # of connection points: 2
#     Edge 15, Type (0, 0), BuildingBlock: MIFKUJ_clean_linker_0, # of connection points: 2
#     Edge 16, Type (0, 0), BuildingBlock: MIFKUJ_clean_linker_0, # of connection points: 2
#     Edge 17, Type (0, 0), BuildingBlock: MIFKUJ_clean_linker_0, # of connection points: 2
#     Edge 18, Type (0, 0), BuildingBlock: MIFKUJ_clean_linker_0, # of connection points: 2
#     Edge 19, Type (0, 0), BuildingBlock: MIFKUJ_clean_linker_0, # of connection points: 2
#     Edge 20, Type (0, 0), BuildingBlock: MIFKUJ_clean_linker_0, # of connection points: 2
#     Edge 21, Type (0, 0), BuildingBlock: MIFKUJ_clean_linker_0, # of connection points: 2
#     Edge 22, Type (0, 0), BuildingBlock: MIFKUJ_clean_linker_0, # of connection points: 2
#     Edge 23, Type (0, 0), BuildingBlock: MIFKUJ_clean_linker_0, # of connection points: 2
#     Edge 24, Type (0, 0), BuildingBlock: MIFKUJ_clean_linker_0, # of connection points: 2
#     Edge 25, Type (0, 0), BuildingBlock: MIFKUJ_clean_linker_0, # of connection points: 2
#     Edge 26, Type (0, 0), BuildingBlock: MIFKUJ_clean_linker_0, # of connection points: 2
#     Edge 27, Type (0, 0), BuildingBlock: MIFKUJ_clean_linker_0, # of connection points: 2
#     Edge 28, Type (0, 0), BuildingBlock: MIFKUJ_clean_linker_0, # of connection points: 2
#     Edge 29, Type (0, 0), BuildingBlock: MIFKUJ_clean_linker_0, # of connection points: 2
#     Edge 30, Type (0, 0), BuildingBlock: MIFKUJ_clean_linker_0, # of connection points: 2
#     Edge 31, Type (0, 0), BuildingBlock: MIFKUJ_clean_linker_0, # of connection points: 2
#     Edge 32, Type (0, 0), BuildingBlock: MIFKUJ_clean_linker_0, # of connection points: 2
#     Edge 33, Type (0, 0), BuildingBlock: MIFKUJ_clean_linker_0, # of connection points: 2
#     Edge 34, Type (0, 0), BuildingBlock: MIFKUJ_clean_linker_0, # of connection points: 2
#     Edge 35, Type (0, 0), BuildingBlock: MIFKUJ_clean_linker_0, # of connection points: 2
#     Edge 36, Type (0, 0), BuildingBlock: MIFKUJ_clean_linker_0, # of connection points: 2
#     Edge 37, Type (0, 0), BuildingBlock: MIFKUJ_clean_linker_0, # of connection points: 2
#     Edge 38, Type (0, 0), BuildingBlock: MIFKUJ_clean_linker_0, # of connection points: 2
#     Edge 39, Type (0, 0), BuildingBlock: MIFKUJ_clean_linker_0, # of connection points: 2
#     Edge 40, Type (0, 0), BuildingBlock: MIFKUJ_clean_linker_0, # of connection points: 2
#     Edge 41, Type (0, 0), BuildingBlock: MIFKUJ_clean_linker_0, # of connection points: 2
#     Edge 42, Type (0, 0), BuildingBlock: MIFKUJ_clean_linker_0, # of connection points: 2
#     Edge 43, Type (0, 0), BuildingBlock: MIFKUJ_clean_linker_0, # of connection points: 2
#     Edge 44, Type (0, 0), BuildingBlock: MIFKUJ_clean_linker_0, # of connection points: 2
#     Edge 45, Type (0, 0), BuildingBlock: MIFKUJ_clean_linker_0, # of connection points: 2
#     Edge 46, Type (0, 0), BuildingBlock: MIFKUJ_clean_linker_0, # of connection points: 2
#     Edge 47, Type (0, 0), BuildingBlock: MIFKUJ_clean_linker_0, # of connection points: 2
# Relax obj value: 0.288
# Max RMSD: 0.309
# Mean RMSD: 0.309
data_MOF--net-wkp--node1-OJICUG_clean_sbu_0--edge1-MIFKUJ_clean_linker_0
_symmetry_space_group_name_H-M    P1
_symmetry_Int_Tables_number       1
_symmetry_cell_setting            triclinic
loop_
_symmetry_equiv_pos_as_xyz
'x, y, z'
_cell_length_a     54.84698
_cell_length_b     54.828126
_cell_length_c     38.985092
_cell_angle_alpha  90.011266
_cell_angle_beta   89.97008
_cell_angle_gamma 120.0523
loop_
_atom_site_label
_atom_site_type_symbol
_atom_site_fract_x
_atom_site_fract_y
_atom_site_fract_z
_atom_type_partial_charge
Sc0 Sc 0.21682 0.42001 0.02346 0.0
Sc1 Sc 0.21239 0.35413 0.01115 0.0
Sc2 Sc 0.26306 0.40374 0.06735 0.0
O3 O 0.23065 0.39256 0.03416 0.0
C4 C 0.28309 0.46104 0.02684 0.0
C5 C 0.21697 0.39449 0.94973 0.0
C6 C 0.27691 0.36996 0.01246 0.0
C7 C 0.15921 0.36199 0.0239 0.0
C8 C 0.22899 0.42967 0.10374 0.0
C9 C 0.22183 0.33869 0.08661 0.0
O10 O 0.25857 0.45482 0.01714 0.0
O11 O 0.21663 0.37265 0.96132 0.0
O12 O 0.28478 0.38921 0.03487 0.0
O13 O 0.17352 0.38843 0.0284 0.0
O14 O 0.24567 0.41992 0.10399 0.0
O15 O 0.20783 0.33205 0.05874 0.0
O16 O 0.21655 0.43077 0.07674 0.0
O17 O 0.17029 0.34704 0.01699 0.0
O18 O 0.24186 0.36352 0.0929 0.0
O19 O 0.21585 0.41274 0.9688 0.0
O20 O 0.28802 0.44472 0.04491 0.0
O21 O 0.25164 0.3557 0.00215 0.0
Sc22 Sc 0.86515 0.27822 0.21013 0.0
Sc23 Sc 0.84151 0.20789 0.18621 0.0
Sc24 Sc 0.79317 0.23212 0.1946 0.0
O25 O 0.83328 0.23937 0.19716 0.0
C26 C 0.81654 0.26755 0.26357 0.0
C27 C 0.8845 0.23889 0.24765 0.0
C28 C 0.78369 0.17398 0.22554 0.0
C29 C 0.89149 0.26082 0.14855 0.0
C30 C 0.82702 0.29498 0.1664 0.0
C31 C 0.79679 0.20063 0.12816 0.0
O32 O 0.84217 0.28021 0.2539 0.0
O33 O 0.87023 0.21728 0.22896 0.0
O34 O 0.77563 0.19128 0.21769 0.0
O35 O 0.89069 0.27934 0.16745 0.0
O36 O 0.80455 0.27169 0.171 0.0
O37 O 0.8148 0.19528 0.14144 0.0
O38 O 0.85059 0.30008 0.17833 0.0
O39 O 0.87543 0.23454 0.1529 0.0
O40 O 0.78739 0.21465 0.1437 0.0
O41 O 0.88422 0.26171 0.24371 0.0
O42 O 0.79647 0.24934 0.24514 0.0
O43 O 0.8078 0.17771 0.21769 0.0
Sc44 Sc 0.56827 0.7898 0.33987 0.0
Sc45 Sc 0.63179 0.85406 0.32788 0.0
Sc46 Sc 0.57428 0.8528 0.37015 0.0
O47 O 0.59152 0.83229 0.34594 0.0
C48 C 0.52294 0.80757 0.32447 0.0
C49 C 0.60179 0.80831 0.26878 0.0
C50 C 0.60748 0.89438 0.30859 0.0
C51 C 0.62827 0.79977 0.3619 0.0
C52 C 0.5502 0.79746 0.4153 0.0
C53 C 0.63764 0.88721 0.39766 0.0
O54 O 0.5329 0.7914 0.31926 0.0
O55 O 0.62099 0.83216 0.27944 0.0
O56 O 0.58798 0.88439 0.33093 0.0
O57 O 0.60163 0.785 0.36037 0.0
O58 O 0.55908 0.82363 0.41217 0.0
O59 O 0.64806 0.87963 0.37357 0.0
O60 O 0.5511 0.78253 0.39097 0.0
O61 O 0.64255 0.82462 0.34999 0.0
O62 O 0.6115 0.87887 0.39974 0.0
O63 O 0.582 0.79088 0.28796 0.0
O64 O 0.53506 0.82945 0.34321 0.0
O65 O 0.62476 0.88552 0.30456 0.0
Sc66 Sc 0.71534 0.57454 0.55071 0.0
Sc67 Sc 0.77518 0.62473 0.50784 0.0
Sc68 Sc 0.76167 0.5557 0.51334 0.0
O69 O 0.75066 0.58484 0.5241 0.0
C70 C 0.73899 0.53889 0.58884 0.0
C71 C 0.75261 0.6345 0.57968 0.0
C72 C 0.81927 0.60992 0.53646 0.0
C73 C 0.71613 0.61575 0.49175 0.0
C74 C 0.69512 0.52194 0.50208 0.0
C75 C 0.77973 0.5901 0.44486 0.0
O76 O 0.72153 0.54764 0.58584 0.0
O77 O 0.76532 0.64314 0.55115 0.0
O78 O 0.80539 0.58478 0.52503 0.0
O79 O 0.70562 0.60091 0.5187 0.0
O80 O 0.71918 0.52382 0.50118 0.0
O81 O 0.7877 0.61318 0.46064 0.0
O82 O 0.69059 0.53993 0.51696 0.0
O83 O 0.74062 0.62294 0.48067 0.0
O84 O 0.76714 0.56645 0.45994 0.0
O85 O 0.73721 0.60852 0.5866 0.0
O86 O 0.75656 0.54211 0.56557 0.0
O87 O 0.81022 0.62722 0.53513 0.0
Sc88 Sc 0.19986 0.77844 0.67008 0.0
Sc89 Sc 0.13638 0.77728 0.65884 0.0
Sc90 Sc 0.14209 0.73636 0.72264 0.0
O91 O 0.15963 0.76419 0.68407 0.0
C92 C 0.1766 0.71299 0.6846 0.0
C93 C 0.17285 0.77291 0.59792 0.0
C94 C 0.09262 0.71418 0.66728 0.0
C95 C 0.19336 0.83349 0.66708 0.0
C96 C 0.20494 0.77646 0.7496 0.0
C97 C 0.11274 0.77061 0.73598 0.0
O98 O 0.19618 0.73744 0.67584 0.0
O99 O 0.15592 0.78034 0.60965 0.0
O100 O 0.10161 0.71369 0.69723 0.0
O101 O 0.20741 0.82087 0.66309 0.0
O102 O 0.18017 0.75548 0.75262 0.0
O103 O 0.1119 0.77458 0.70393 0.0
O104 O 0.21461 0.78983 0.72174 0.0
O105 O 0.16663 0.82043 0.67007 0.0
O106 O 0.12863 0.76225 0.74867 0.0
O107 O 0.1885 0.76798 0.61722 0.0
O108 O 0.15398 0.70864 0.69906 0.0
O109 O 0.10579 0.73466 0.64665 0.0
Sc110 Sc 0.40688 0.13189 0.85149 0.0
Sc111 Sc 0.36141 0.15861 0.83839 0.0
Sc112 Sc 0.43488 0.20485 0.84267 0.0
O113 O 0.40105 0.16516 0.8442 0.0
C114 C 0.44647 0.17666 0.9077 0.0
C115 C 0.35027 0.11283 0.89447 0.0
C116 C 0.39026 0.21572 0.88144 0.0
C117 C 0.3595 0.10776 0.79518 0.0
C118 C 0.4609 0.17149 0.80637 0.0
C119 C 0.3972 0.20347 0.77951 0.0
O120 O 0.43113 0.15142 0.89714 0.0
O121 O 0.34525 0.13173 0.88343 0.0
O122 O 0.41509 0.22234 0.873 0.0
O123 O 0.38224 0.11026 0.80712 0.0
O124 O 0.46012 0.19378 0.81205 0.0
O125 O 0.37406 0.18413 0.79216 0.0
O126 O 0.44362 0.14803 0.81974 0.0
O127 O 0.34899 0.12248 0.8058 0.0
O128 O 0.42062 0.21367 0.79529 0.0
O129 O 0.37051 0.11004 0.88351 0.0
O130 O 0.45104 0.19816 0.8901 0.0
O131 O 0.36871 0.19353 0.87071 0.0
Sc132 Sc 0.56393 0.71166 0.81032 0.0
Sc133 Sc 0.61169 0.7782 0.8443 0.0
Sc134 Sc 0.54019 0.75754 0.83567 0.0
O135 O 0.57202 0.74917 0.82981 0.0
C136 C 0.52775 0.72908 0.76231 0.0
C137 C 0.62399 0.75172 0.77766 0.0
C138 C 0.5912 0.81709 0.81165 0.0
C139 C 0.60654 0.72162 0.87175 0.0
C140 C 0.50936 0.69254 0.85505 0.0
C141 C 0.57377 0.78126 0.90476 0.0
O142 O 0.53827 0.71364 0.76969 0.0
O143 O 0.63167 0.7702 0.80121 0.0
O144 O 0.56575 0.80064 0.82014 0.0
O145 O 0.58875 0.70624 0.84908 0.0
O146 O 0.50998 0.71585 0.85203 0.0
O147 O 0.59736 0.78906 0.89032 0.0
O148 O 0.5283 0.68822 0.84294 0.0
O149 O 0.61608 0.74796 0.87419 0.0
O150 O 0.55038 0.76775 0.88906 0.0
O151 O 0.59928 0.73053 0.77593 0.0
O152 O 0.52801 0.74727 0.78286 0.0
O153 O 0.61058 0.81111 0.81587 0.0
Sc154 Sc 0.78732 0.56319 0.00685 0.0
Sc155 Sc 0.8391 0.63435 0.01583 0.0
Sc156 Sc 0.85603 0.58682 0.9779 0.0
O157 O 0.82749 0.59483 6e-05 0.0
C158 C 0.82237 0.53234 0.02275 0.0
C159 C 0.79891 0.59591 0.07688 0.0
C160 C 0.8921 0.63042 0.03715 0.0
C161 C 0.77897 0.61499 0.98626 0.0
C162 C 0.80056 0.5493 0.93326 0.0
C163 C 0.87454 0.64635 0.94596 0.0
O164 O 0.79947 0.53275 0.02051 0.0
O165 O 0.81508 0.61969 0.06296 0.0
O166 O 0.88884 0.6133 0.01321 0.0
O167 O 0.76967 0.58934 0.99418 0.0
O168 O 0.82658 0.55951 0.93988 0.0
O169 O 0.86597 0.65435 0.97167 0.0
O170 O 0.78349 0.55108 0.95381 0.0
O171 O 0.80469 0.63385 0.98934 0.0
O172 O 0.86965 0.62124 0.94251 0.0
O173 O 0.7885 0.57282 0.06043 0.0
O174 O 0.8456 0.55195 0.01121 0.0
O175 O 0.87441 0.6383 0.04351 0.0
Sc176 Sc 0.28421 0.85994 0.15915 0.0
Sc177 Sc 0.21878 0.84759 0.19036 0.0
Sc178 Sc 0.22739 0.79083 0.16484 0.0
O179 O 0.24346 0.83284 0.17142 0.0
C180 C 0.26293 0.81599 0.0971 0.0
C181 C 0.2541 0.89329 0.13263 0.0
C182 C 0.17535 0.79827 0.14334 0.0
C183 C 0.27681 0.88658 0.22829 0.0
C184 C 0.28932 0.80959 0.19022 0.0
C185 C 0.20234 0.79326 0.23699 0.0
O186 O 0.28109 0.83872 0.11151 0.0
O187 O 0.23355 0.88161 0.15351 0.0
O188 O 0.18786 0.78426 0.14664 0.0
O189 O 0.29182 0.88427 0.20511 0.0
O190 O 0.26463 0.79106 0.18157 0.0
O191 O 0.20156 0.81546 0.22947 0.0
O192 O 0.29904 0.83581 0.18608 0.0
O193 O 0.25012 0.87406 0.22685 0.0
O194 O 0.21251 0.78224 0.21701 0.0
O195 O 0.27346 0.88699 0.13107 0.0
O196 O 0.2413 0.79695 0.11252 0.0
O197 O 0.18466 0.82263 0.15608 0.0
Sc198 Sc 0.42904 0.22044 0.33948 0.0
Sc199 Sc 0.36019 0.20784 0.35019 0.0
Sc200 Sc 0.40709 0.26211 0.2959 0.0
O201 O 0.39874 0.23009 0.32838 0.0
C202 C 0.46448 0.28758 0.33612 0.0
C203 C 0.40131 0.21388 0.41232 0.0
C204 C 0.37109 0.26989 0.35499 0.0
C205 C 0.37346 0.15964 0.33557 0.0
C206 C 0.43717 0.23178 0.25942 0.0
C207 C 0.3443 0.21924 0.27505 0.0
O208 O 0.46232 0.26374 0.34151 0.0
O209 O 0.37717 0.20553 0.39917 0.0
O210 O 0.38614 0.27801 0.328 0.0
O211 O 0.39978 0.17589 0.33962 0.0
O212 O 0.42911 0.24986 0.26043 0.0
O213 O 0.33777 0.20801 0.30464 0.0
O214 O 0.43657 0.2174 0.28544 0.0
O215 O 0.35598 0.16841 0.33459 0.0
O216 O 0.36938 0.23726 0.26665 0.0
O217 O 0.42351 0.22272 0.39422 0.0
O218 O 0.44524 0.29039 0.32193 0.0
O219 O 0.36153 0.24544 0.36774 0.0
Sc220 Sc 0.14078 0.42202 0.49712 0.0
Sc221 Sc 0.1592 0.37191 0.52289 0.0
Sc222 Sc 0.21154 0.44365 0.51603 0.0
O223 O 0.17051 0.41248 0.51185 0.0
C224 C 0.19213 0.45923 0.44645 0.0
C225 C 0.11972 0.36317 0.45872 0.0
C226 C 0.21821 0.39301 0.48657 0.0
C227 C 0.10824 0.37636 0.55515 0.0
C228 C 0.17975 0.47497 0.5437 0.0
C229 C 0.20245 0.407 0.58316 0.0
O230 O 0.16634 0.44759 0.45518 0.0
O231 O 0.13285 0.35484 0.47798 0.0
O232 O 0.22749 0.41882 0.49324 0.0
O233 O 0.1121 0.39735 0.53722 0.0
O234 O 0.20172 0.47317 0.53948 0.0
O235 O 0.18309 0.38442 0.56971 0.0
O236 O 0.15614 0.45762 0.53063 0.0
O237 O 0.12352 0.36513 0.5525 0.0
O238 O 0.21492 0.4304 0.56719 0.0
O239 O 0.12122 0.38693 0.4624 0.0
O240 O 0.21103 0.45909 0.46529 0.0
O241 O 0.19365 0.37368 0.49477 0.0
Sc242 Sc 0.77372 0.20303 0.69092 0.0
Sc243 Sc 0.78125 0.14325 0.69678 0.0
Sc244 Sc 0.7299 0.14263 0.64319 0.0
O245 O 0.76169 0.16302 0.67684 0.0
C246 C 0.70695 0.17511 0.68658 0.0
C247 C 0.7778 0.17757 0.76154 0.0
C248 C 0.71799 0.09513 0.69886 0.0
C249 C 0.83227 0.2037 0.68398 0.0
C250 C 0.76333 0.205 0.61188 0.0
C251 C 0.76903 0.11941 0.61961 0.0
O252 O 0.73128 0.19578 0.69312 0.0
O253 O 0.78521 0.16143 0.74718 0.0
O254 O 0.71165 0.10379 0.67188 0.0
O255 O 0.81756 0.21522 0.69021 0.0
O256 O 0.74422 0.17917 0.61108 0.0
O257 O 0.77884 0.12094 0.64963 0.0
O258 O 0.77817 0.21679 0.63832 0.0
O259 O 0.82184 0.17716 0.6819 0.0
O260 O 0.75378 0.12997 0.61192 0.0
O261 O 0.77022 0.19246 0.74458 0.0
O262 O 0.70303 0.15309 0.67113 0.0
O263 O 0.74203 0.10844 0.71308 0.0
H264 H 0.17107 0.36572 0.62929 0.0
H265 H 0.17763 0.36628 0.69088 0.0
H266 H 0.25439 0.44654 0.68283 0.0
H267 H 0.2473 0.4467 0.6208 0.0
H268 H 0.21317 0.36529 0.73101 0.0
H269 H 0.26329 0.48522 0.75525 0.0
H270 H 0.26401 0.52654 0.729 0.0
H271 H 0.18318 0.47273 0.68331 0.0
H272 H 0.1818 0.43117 0.70969 0.0
H273 H 0.24887 0.38417 0.90537 0.0
H274 H 0.25174 0.39002 0.84311 0.0
H275 H 0.19171 0.41907 0.84737 0.0
H276 H 0.19042 0.41509 0.91004 0.0
H277 H 0.22655 0.44677 0.80079 0.0
H278 H 0.17356 0.34802 0.82582 0.0
H279 H 0.16421 0.30319 0.85201 0.0
H280 H 0.23538 0.30851 0.799 0.0
H281 H 0.24533 0.35356 0.77281 0.0
C282 C 0.18955 0.38344 0.64042 0.0
C283 C 0.20861 0.40626 0.62003 0.0
C284 C 0.19328 0.3837 0.67578 0.0
C285 C 0.21631 0.40659 0.69168 0.0
C286 C 0.23612 0.42889 0.67127 0.0
C287 C 0.23215 0.42888 0.63578 0.0
C288 C 0.21883 0.4071 0.72967 0.0
C289 C 0.21623 0.38319 0.74622 0.0
C290 C 0.2222 0.43017 0.74968 0.0
C291 C 0.22264 0.45507 0.7341 0.0
C292 C 0.24565 0.48223 0.73969 0.0
C293 C 0.24616 0.50569 0.72479 0.0
C294 C 0.2237 0.50225 0.70439 0.0
C295 C 0.20061 0.47536 0.699 0.0
C296 C 0.19996 0.45185 0.71391 0.0
C297 C 0.23643 0.39196 0.89294 0.0
C298 C 0.21917 0.39889 0.91232 0.0
C299 C 0.23797 0.39518 0.85736 0.0
C300 C 0.22137 0.40427 0.84029 0.0
C301 C 0.20468 0.41194 0.85982 0.0
C302 C 0.20383 0.40956 0.89558 0.0
C303 C 0.22061 0.40481 0.80214 0.0
C304 C 0.22368 0.42895 0.78556 0.0
C305 C 0.21635 0.38143 0.78207 0.0
C306 C 0.21035 0.35428 0.79764 0.0
C307 C 0.18731 0.3397 0.81992 0.0
C308 C 0.18189 0.31425 0.83474 0.0
C309 C 0.19924 0.30305 0.82725 0.0
C310 C 0.22199 0.31723 0.80482 0.0
C311 C 0.22751 0.34271 0.78996 0.0
H312 H 0.19501 0.28334 0.83875 0.0
H313 H 0.22417 0.52043 0.69283 0.0
H314 H 0.76448 0.21378 0.08675 0.0
H315 H 0.75737 0.20626 0.02494 0.0
H316 H 0.8038 0.16191 0.02524 0.0
H317 H 0.81129 0.16952 0.08685 0.0
H318 H 0.82374 0.20241 0.97784 0.0
H319 H 0.73321 0.12738 0.01134 0.0
H320 H 0.68764 0.10533 0.04166 0.0
H321 H 0.66445 0.15903 0.98787 0.0
H322 H 0.71011 0.18174 0.95761 0.0
H323 H 0.79826 0.15385 0.80653 0.0
H324 H 0.79797 0.1553 0.86905 0.0
H325 H 0.75683 0.20477 0.86572 0.0
H326 H 0.75689 0.20339 0.80293 0.0
H327 H 0.73331 0.16146 0.91439 0.0
H328 H 0.82479 0.23691 0.88195 0.0
H329 H 0.87054 0.25858 0.85204 0.0
H330 H 0.89183 0.20295 0.90458 0.0
H331 H 0.846 0.18065 0.93445 0.0
C332 C 0.77276 0.20197 0.07383 0.0
C333 C 0.78866 0.19245 0.09185 0.0
C334 C 0.76862 0.19765 0.03845 0.0
C335 C 0.78009 0.18355 0.02045 0.0
C336 C 0.79488 0.17297 0.03859 0.0
C337 C 0.79906 0.17729 0.07389 0.0
C338 C 0.77856 0.18168 0.98245 0.0
C339 C 0.80392 0.19304 0.96402 0.0
C340 C 0.75275 0.17016 0.96439 0.0
C341 C 0.72522 0.15647 0.98245 0.0
C342 C 0.7185 0.13467 0.00618 0.0
C343 C 0.69264 0.12201 0.02333 0.0
C344 C 0.67319 0.13082 0.01676 0.0
C345 C 0.67955 0.15225 0.99296 0.0
C346 C 0.70542 0.16502 0.97579 0.0
C347 C 0.78912 0.16506 0.81897 0.0
C348 C 0.77775 0.17866 0.79959 0.0
C349 C 0.78901 0.16588 0.85476 0.0
C350 C 0.77756 0.18031 0.87199 0.0
C351 C 0.76577 0.19352 0.85287 0.0
C352 C 0.766 0.19285 0.81699 0.0
C353 C 0.77847 0.18201 0.90997 0.0
C354 C 0.75307 0.17074 0.92833 0.0
C355 C 0.80424 0.19351 0.92807 0.0
C356 C 0.83183 0.20691 0.91017 0.0
C357 C 0.83912 0.22913 0.8869 0.0
C358 C 0.86508 0.24156 0.87 0.0
C359 C 0.88405 0.2321 0.87633 0.0
C360 C 0.8771 0.21023 0.89966 0.0
C361 C 0.85114 0.1977 0.9166 0.0
H362 H 0.90415 0.24176 0.86323 0.0
H363 H 0.65317 0.12099 0.03005 0.0
H364 H 0.61715 0.81961 0.94417 0.0
H365 H 0.62024 0.82085 0.00659 0.0
H366 H 0.53435 0.75249 0.01303 0.0
H367 H 0.53085 0.75161 0.95038 0.0
H368 H 0.54418 0.78727 0.06413 0.0
H369 H 0.58821 0.73945 0.02001 0.0
H370 H 0.61897 0.72986 0.98313 0.0
H371 H 0.69196 0.80143 0.02556 0.0
H372 H 0.66161 0.81178 0.06229 0.0
H373 H 0.56366 0.75988 0.23589 0.0
H374 H 0.55912 0.75087 0.17426 0.0
H375 H 0.63366 0.83126 0.15636 0.0
H376 H 0.63861 0.84053 0.21804 0.0
H377 H 0.62642 0.78393 0.11197 0.0
H378 H 0.57382 0.82962 0.15435 0.0
H379 H 0.54012 0.82774 0.19773 0.0
H380 H 0.4776 0.74633 0.16079 0.0
H381 H 0.51113 0.74748 0.11763 0.0
C382 C 0.59874 0.80515 0.95885 0.0
C383 C 0.57384 0.78535 0.9423 0.0
C384 C 0.60059 0.80575 0.99455 0.0
C385 C 0.57778 0.78623 0.01447 0.0
C386 C 0.55229 0.7676 0.99817 0.0
C387 C 0.5503 0.7672 0.96235 0.0
C388 C 0.58121 0.78463 0.05205 0.0
C389 C 0.56202 0.78626 0.07446 0.0
C390 C 0.60409 0.7826 0.06576 0.0
C391 C 0.62258 0.77658 0.04369 0.0
C392 C 0.61081 0.75333 0.02125 0.0
C393 C 0.62817 0.74774 0.00037 0.0
C394 C 0.6574 0.76508 0.00192 0.0
C395 C 0.66931 0.78804 0.02436 0.0
C396 C 0.65203 0.79378 0.04523 0.0
C397 C 0.57943 0.7755 0.219 0.0
C398 C 0.60127 0.80117 0.23197 0.0
C399 C 0.57682 0.77022 0.18377 0.0
C400 C 0.59589 0.79053 0.16084 0.0
C401 C 0.61876 0.81533 0.17372 0.0
C402 C 0.62142 0.82065 0.20899 0.0
C403 C 0.59007 0.78762 0.12356 0.0
C404 C 0.60869 0.78498 0.10134 0.0
C405 C 0.56611 0.78759 0.11007 0.0
C406 C 0.54501 0.78856 0.13295 0.0
C407 C 0.55283 0.81139 0.15538 0.0
C408 C 0.53386 0.81036 0.18009 0.0
C409 C 0.50691 0.78675 0.1823 0.0
C410 C 0.4986 0.76446 0.15924 0.0
C411 C 0.51755 0.76532 0.1346 0.0
H412 H 0.49234 0.78587 0.20163 0.0
H413 H 0.67081 0.76066 0.98581 0.0
H414 H 0.76237 0.54526 0.40117 0.0
H415 H 0.7652 0.54625 0.33872 0.0
H416 H 0.8086 0.6371 0.34033 0.0
H417 H 0.80548 0.63637 0.40287 0.0
H418 H 0.76705 0.61649 0.29389 0.0
H419 H 0.84362 0.60147 0.32271 0.0
H420 H 0.86642 0.57783 0.35094 0.0
H421 H 0.81063 0.50079 0.29852 0.0
H422 H 0.78724 0.52389 0.27031 0.0
H423 H 0.81572 0.64044 0.12104 0.0
H424 H 0.81087 0.63876 0.18336 0.0
H425 H 0.76562 0.54792 0.18014 0.0
H426 H 0.77053 0.5493 0.1178 0.0
H427 H 0.80742 0.56799 0.22726 0.0
H428 H 0.73133 0.58309 0.19773 0.0
H429 H 0.70845 0.60661 0.16944 0.0
H430 H 0.76319 0.68336 0.22304 0.0
H431 H 0.7867 0.66041 0.2513 0.0
C432 C 0.77281 0.56551 0.38836 0.0
C433 C 0.78374 0.59075 0.40716 0.0
C434 C 0.77444 0.56602 0.35258 0.0
C435 C 0.78728 0.59176 0.33485 0.0
C436 C 0.79858 0.617 0.3535 0.0
C437 C 0.79689 0.61652 0.38929 0.0
C438 C 0.78814 0.59232 0.2968 0.0
C439 C 0.77625 0.60624 0.27931 0.0
C440 C 0.79942 0.57826 0.27779 0.0
C441 C 0.8135 0.56434 0.29466 0.0
C442 C 0.83607 0.57943 0.31741 0.0
C443 C 0.84912 0.56614 0.33337 0.0
C444 C 0.83993 0.53781 0.3266 0.0
C445 C 0.81771 0.52273 0.30378 0.0
C446 C 0.80456 0.53591 0.28777 0.0
C447 C 0.80445 0.62006 0.13347 0.0
C448 C 0.79357 0.595 0.1143 0.0
C449 C 0.80163 0.61916 0.16914 0.0
C450 C 0.7878 0.59321 0.18637 0.0
C451 C 0.77641 0.56817 0.16733 0.0
C452 C 0.77914 0.56903 0.13165 0.0
C453 C 0.78642 0.59224 0.22437 0.0
C454 C 0.79821 0.57823 0.24184 0.0
C455 C 0.77505 0.60622 0.24334 0.0
C456 C 0.76097 0.6201 0.22638 0.0
C457 C 0.73867 0.60506 0.20326 0.0
C458 C 0.72555 0.61827 0.18727 0.0
C459 C 0.73441 0.64648 0.19436 0.0
C460 C 0.75637 0.66152 0.21753 0.0
C461 C 0.76959 0.64841 0.23357 0.0
H462 H 0.72422 0.65668 0.18197 0.0
H463 H 0.85007 0.52755 0.33898 0.0
H464 H 0.19841 0.74839 0.56293 0.0
H465 H 0.19983 0.74282 0.50086 0.0
H466 H 0.15196 0.7849 0.48594 0.0
H467 H 0.1498 0.7899 0.54781 0.0
H468 H 0.13295 0.74078 0.44507 0.0
H469 H 0.22472 0.81859 0.47543 0.0
H470 H 0.27021 0.84174 0.50597 0.0
H471 H 0.2909 0.78221 0.46309 0.0
H472 H 0.24533 0.75846 0.43267 0.0
H473 H 0.17005 0.80327 0.28168 0.0
H474 H 0.16084 0.78958 0.3418 0.0
H475 H 0.20482 0.74313 0.33177 0.0
H476 H 0.21434 0.7569 0.27134 0.0
H477 H 0.22463 0.78054 0.38462 0.0
H478 H 0.13512 0.70788 0.34655 0.0
H479 H 0.09033 0.68696 0.31466 0.0
H480 H 0.06576 0.73865 0.37065 0.0
H481 H 0.11059 0.76021 0.40255 0.0
C482 C 0.18822 0.7565 0.54644 0.0
C483 C 0.17414 0.76976 0.56035 0.0
C484 C 0.18907 0.7533 0.51096 0.0
C485 C 0.17623 0.76368 0.48874 0.0
C486 C 0.16194 0.77664 0.5026 0.0
C487 C 0.16085 0.77961 0.53801 0.0
C488 C 0.17803 0.76167 0.45098 0.0
C489 C 0.153 0.74959 0.43181 0.0
C490 C 0.20414 0.77233 0.43376 0.0
C491 C 0.23146 0.78652 0.45217 0.0
C492 C 0.23886 0.81028 0.47278 0.0
C493 C 0.26467 0.82354 0.49002 0.0
C494 C 0.28338 0.81338 0.48658 0.0
C495 C 0.27635 0.79 0.46582 0.0
C496 C 0.25053 0.77663 0.44857 0.0
C497 C 0.17737 0.78973 0.29203 0.0
C498 C 0.19309 0.78133 0.27175 0.0
C499 C 0.17192 0.78177 0.32638 0.0
C500 C 0.18203 0.76522 0.34118 0.0
C501 C 0.19677 0.75584 0.32074 0.0
C502 C 0.20208 0.76364 0.28621 0.0
C503 C 0.17961 0.76039 0.37869 0.0
C504 C 0.20453 0.77119 0.39786 0.0
C505 C 0.15342 0.74877 0.39586 0.0
C506 C 0.12633 0.73578 0.37683 0.0
C507 C 0.12027 0.71494 0.35191 0.0
C508 C 0.09485 0.70294 0.33385 0.0
C509 C 0.07523 0.7115 0.34059 0.0
C510 C 0.08098 0.73204 0.36546 0.0
C511 C 0.10637 0.74413 0.38358 0.0
H512 H 0.05556 0.70218 0.32658 0.0
H513 H 0.30337 0.82369 0.49992 0.0
H514 H 0.35791 0.18915 0.45803 0.0
H515 H 0.36001 0.19198 0.52027 0.0
H516 H 0.45062 0.24206 0.51595 0.0
H517 H 0.44879 0.23902 0.45307 0.0
H518 H 0.43341 0.20341 0.56735 0.0
H519 H 0.41198 0.27333 0.53039 0.0
H520 H 0.38671 0.29235 0.49774 0.0
H521 H 0.30981 0.23549 0.54968 0.0
H522 H 0.33451 0.21576 0.58224 0.0
H523 H 0.44283 0.24119 0.74178 0.0
H524 H 0.44534 0.24784 0.67977 0.0
H525 H 0.35585 0.19102 0.67195 0.0
H526 H 0.35297 0.18414 0.73413 0.0
H527 H 0.37618 0.23769 0.62686 0.0
H528 H 0.39785 0.16539 0.65969 0.0
H529 H 0.42388 0.14777 0.69342 0.0
H530 H 0.50183 0.21152 0.64962 0.0
H531 H 0.47626 0.22978 0.61597 0.0
C532 C 0.37839 0.20074 0.47013 0.0
C533 C 0.4032 0.2141 0.45037 0.0
C534 C 0.37951 0.2024 0.50585 0.0
C535 C 0.40542 0.21773 0.52281 0.0
C536 C 0.43036 0.23027 0.50337 0.0
C537 C 0.42928 0.22851 0.46744 0.0
C538 C 0.40607 0.22074 0.56077 0.0
C539 C 0.42131 0.21139 0.5803 0.0
C540 C 0.38999 0.23083 0.57779 0.0
C541 C 0.37508 0.2429 0.55859 0.0
C542 C 0.38964 0.26474 0.5347 0.0
C543 C 0.37542 0.27566 0.51621 0.0
C544 C 0.34666 0.2651 0.52158 0.0
C545 C 0.33209 0.24364 0.54553 0.0
C546 C 0.34619 0.23259 0.56403 0.0
C547 C 0.4235 0.23049 0.72711 0.0
C548 C 0.39771 0.21183 0.74309 0.0
C549 C 0.42505 0.23428 0.69157 0.0
C550 C 0.40088 0.21954 0.67122 0.0
C551 C 0.37478 0.2025 0.6872 0.0
C552 C 0.3732 0.1986 0.7228 0.0
C553 C 0.40318 0.22004 0.63325 0.0
C554 C 0.38849 0.23 0.61379 0.0
C555 C 0.41989 0.21069 0.6163 0.0
C556 C 0.43517 0.19912 0.63557 0.0
C557 C 0.42055 0.17572 0.65736 0.0
C558 C 0.43522 0.16562 0.67647 0.0
C559 C 0.46451 0.17858 0.67376 0.0
C560 C 0.47915 0.20154 0.65174 0.0
C561 C 0.46458 0.21175 0.63261 0.0
H562 H 0.47584 0.1708 0.68867 0.0
H563 H 0.33569 0.27358 0.50723 0.0
H564 H 0.33443 0.39791 0.02084 0.0
H565 H 0.36608 0.37937 0.0085 0.0
H566 H 0.29611 0.3034 0.96786 0.0
H567 H 0.26464 0.32164 0.97912 0.0
H568 H 0.33445 0.3001 0.02527 0.0
H569 H 0.33069 0.33926 0.91122 0.0
H570 H 0.33914 0.37951 0.8747 0.0
H571 H 0.42585 0.42422 0.90603 0.0
H572 H 0.41774 0.38429 0.9431 0.0
H573 H 0.34182 0.20691 0.91268 0.0
H574 H 0.33549 0.24024 0.94755 0.0
H575 H 0.42394 0.30127 0.93778 0.0
H576 H 0.43053 0.26816 0.9027 0.0
H577 H 0.39212 0.32314 0.91941 0.0
H578 H 0.39927 0.2773 0.01698 0.0
H579 H 0.39254 0.23877 0.0555 0.0
H580 H 0.30371 0.20858 0.05943 0.0
H581 H 0.30985 0.24698 0.02103 0.0
C582 C 0.32593 0.37746 0.00875 0.0
C583 C 0.29702 0.36124 0.00098 0.0
C584 C 0.34396 0.3669 0.00199 0.0
C585 C 0.33314 0.33996 0.98783 0.0
C586 C 0.30461 0.32415 0.97917 0.0
C587 C 0.28675 0.33478 0.98532 0.0
C588 C 0.35106 0.32761 0.98156 0.0
C589 C 0.34735 0.30516 0.00238 0.0
C590 C 0.3687 0.33521 0.95255 0.0
C591 C 0.37354 0.35903 0.93022 0.0
C592 C 0.35148 0.35779 0.91055 0.0
C593 C 0.35622 0.3805 0.88971 0.0
C594 C 0.38299 0.40445 0.88815 0.0
C595 C 0.40511 0.40569 0.90734 0.0
C596 C 0.40045 0.38304 0.92826 0.0
C597 C 0.35998 0.22731 0.91816 0.0
C598 C 0.38656 0.23502 0.90445 0.0
C599 C 0.35642 0.24622 0.93848 0.0
C600 C 0.37934 0.27311 0.94547 0.0
C601 C 0.40606 0.28055 0.93279 0.0
C602 C 0.4097 0.26161 0.91263 0.0
C603 C 0.37428 0.29436 0.96207 0.0
C604 C 0.38033 0.31856 0.94319 0.0
C605 C 0.35911 0.28853 0.99318 0.0
C606 C 0.35504 0.26504 0.01597 0.0
C607 C 0.37826 0.26236 0.02587 0.0
C608 C 0.37456 0.24058 0.04778 0.0
C609 C 0.34771 0.22118 0.05979 0.0
C610 C 0.3245 0.22362 0.05009 0.0
C611 C 0.3281 0.24549 0.02838 0.0
H612 H 0.34489 0.20427 0.07665 0.0
H613 H 0.38663 0.42201 0.87199 0.0
H614 H 0.89472 0.22849 0.09745 0.0
H615 H 0.93386 0.24157 0.05798 0.0
H616 H 0.9753 0.3264 0.09766 0.0
H617 H 0.93622 0.31367 0.13719 0.0
H618 H 0.98441 0.32321 0.02663 0.0
H619 H 0.9836 0.27799 0.13494 0.0
H620 H 0.9637 0.23867 0.1763 0.0
H621 H 0.96853 0.18428 0.10071 0.0
H622 H 0.98795 0.22318 0.05867 0.0
H623 H 0.12837 0.38551 0.04557 0.0
H624 H 0.07748 0.36342 0.04904 0.0
H625 H 0.06865 0.28584 0.0096 0.0
H626 H 0.11996 0.30772 0.0066 0.0
H627 H 0.03737 0.27647 0.06447 0.0
H628 H 0.04823 0.32445 0.9604 0.0
H629 H 0.06882 0.36374 0.91906 0.0
H630 H 0.0457 0.41208 0.98414 0.0
H631 H 0.02535 0.37329 0.02616 0.0
C632 C 0.91192 0.25009 0.09742 0.0
C633 C 0.91278 0.2699 0.12111 0.0
C634 C 0.9341 0.25752 0.07463 0.0
C635 C 0.95749 0.28477 0.07538 0.0
C636 C 0.95732 0.30524 0.0968 0.0
C637 C 0.9351 0.29786 0.11958 0.0
C638 C 0.98393 0.29091 0.0584 0.0
C639 C -0.00395 0.31299 0.03462 0.0
C640 C -0.00155 0.27672 0.06813 0.0
C641 C 0.98689 0.25341 0.09353 0.0
C642 C 0.98022 0.2576 0.12706 0.0
C643 C 0.96904 0.2354 0.15063 0.0
C644 C 0.96482 0.20899 0.14112 0.0
C645 C 0.97177 0.20474 0.10802 0.0
C646 C 0.98282 0.22685 0.0843 0.0
C647 C 0.1157 0.3638 0.03739 0.0
C648 C 0.12825 0.34836 0.02589 0.0
C649 C 0.08655 0.35129 0.03903 0.0
C650 C 0.0693 0.3232 0.02882 0.0
C651 C 0.08166 0.30766 0.01724 0.0
C652 C 0.11094 0.32015 0.01574 0.0
C653 C 0.03854 0.30967 0.03363 0.0
C654 C 0.02552 0.28614 0.05528 0.0
C655 C 0.0232 0.32245 0.02177 0.0
C656 C 0.0353 0.34591 0.99652 0.0
C657 C 0.04768 0.34352 0.96602 0.0
C658 C 0.05929 0.36571 0.94244 0.0
C659 C 0.05858 0.39039 0.94898 0.0
C660 C 0.04621 0.39293 0.9791 0.0
C661 C 0.03458 0.37082 0.00278 0.0
H662 H 0.06759 0.40755 0.93069 0.0
H663 H 0.95621 0.19183 0.15942 0.0
H664 H 0.78381 0.12444 0.22319 0.0
H665 H 0.74466 0.0778 0.23739 0.0
H666 H 0.69687 0.11504 0.27538 0.0
H667 H 0.73583 0.16201 0.26068 0.0
H668 H 0.69814 0.06527 0.31543 0.0
H669 H 0.67605 0.09399 0.20799 0.0
H670 H 0.68804 0.11504 0.15019 0.0
H671 H 0.708 0.05212 0.11818 0.0
H672 H 0.6966 0.031 0.17601 0.0
H673 H 0.58501 0.92812 0.32177 0.0
H674 H 0.60517 0.97718 0.30424 0.0
H675 H 0.66334 0.96879 0.23758 0.0
H676 H 0.64334 0.91973 0.25475 0.0
H677 H 0.64907 0.00735 0.21309 0.0
H678 H 0.6803 0.98404 0.31774 0.0
H679 H 0.67344 0.96264 0.37506 0.0
H680 H 0.64187 0.0152 0.41253 0.0
H681 H 0.64787 0.03644 0.35504 0.0
C682 C 0.76528 0.12284 0.2353 0.0
C683 C 0.76273 0.14682 0.24052 0.0
C684 C 0.74294 0.09621 0.24321 0.0
C685 C 0.71798 0.09325 0.25689 0.0
C686 C 0.71605 0.11714 0.2646 0.0
C687 C 0.73825 0.14384 0.25618 0.0
C688 C 0.69341 0.06492 0.26063 0.0
C689 C 0.68674 0.05275 0.29328 0.0
C690 C 0.67927 0.04872 0.23143 0.0
C691 C 0.68568 0.06106 0.19643 0.0
C692 C 0.68322 0.08479 0.18872 0.0
C693 C 0.68987 0.09671 0.15593 0.0
C694 C 0.69883 0.08497 0.13054 0.0
C695 C 0.70107 0.06121 0.13788 0.0
C696 C 0.69449 0.04924 0.17065 0.0
C697 C 0.60141 0.93636 0.30244 0.0
C698 C 0.61322 0.92032 0.29042 0.0
C699 C 0.61288 0.96442 0.2925 0.0
C700 C 0.63613 0.97663 0.27037 0.0
C701 C 0.64551 0.9597 0.25495 0.0
C702 C 0.63417 0.9317 0.26497 0.0
C703 C 0.65384 0.00748 0.26793 0.0
C704 C 0.65954 0.02009 0.23546 0.0
C705 C 0.66746 0.024 0.29729 0.0
C706 C 0.66402 0.01143 0.33193 0.0
C707 C 0.67159 0.99081 0.33809 0.0
C708 C 0.66789 0.97873 0.37062 0.0
C709 C 0.65706 0.98742 0.39737 0.0
C710 C 0.65009 0.00836 0.39171 0.0
C711 C 0.65357 0.02039 0.35913 0.0
H712 H 0.65408 0.97793 0.42247 0.0
H713 H 0.704 0.09424 0.10518 0.0
H714 H 0.67697 0.626 0.5208 0.0
H715 H 0.66105 0.65725 0.49856 0.0
H716 H 0.70642 0.66697 0.40434 0.0
H717 H 0.72296 0.6362 0.4267 0.0
H718 H 0.72098 0.71677 0.43306 0.0
H719 H 0.63384 0.63121 0.40774 0.0
H720 H 0.59209 0.5853 0.4212 0.0
H721 H 0.56561 0.62475 0.49605 0.0
H722 H 0.60742 0.67083 0.48343 0.0
H723 H 0.67014 0.79234 0.33631 0.0
H724 H 0.68658 0.76192 0.3608 0.0
H725 H 0.63545 0.74891 0.45074 0.0
H726 H 0.61787 0.77789 0.4254 0.0
H727 H 0.62391 0.70102 0.42582 0.0
H728 H 0.70891 0.78551 0.45343 0.0
H729 H 0.75059 0.83221 0.44321 0.0
H730 H 0.78131 0.79632 0.36881 0.0
H731 H 0.7396 0.74944 0.37822 0.0
C732 C 0.68286 0.63411 0.49495 0.0
C733 C 0.70136 0.62888 0.47553 0.0
C734 C 0.67378 0.65199 0.48231 0.0
C735 C 0.68267 0.66443 0.44988 0.0
C736 C 0.69954 0.65767 0.42953 0.0
C737 C 0.70885 0.64005 0.44227 0.0
C738 C 0.67674 0.68657 0.43854 0.0
C739 C 0.69973 0.71327 0.43091 0.0
C740 C 0.6491 0.68219 0.43729 0.0
C741 C 0.62393 0.65444 0.44486 0.0
C742 C 0.61925 0.63006 0.42728 0.0
C743 C 0.59554 0.60401 0.43473 0.0
C744 C 0.57625 0.60209 0.45953 0.0
C745 C 0.58059 0.62624 0.47689 0.0
C746 C 0.60428 0.65234 0.46958 0.0
C747 C 0.66308 0.78347 0.36165 0.0
C748 C 0.64278 0.78708 0.37908 0.0
C749 C 0.67246 0.76621 0.37567 0.0
C750 C 0.66212 0.7531 0.40758 0.0
C751 C 0.64339 0.75856 0.42597 0.0
C752 C 0.63352 0.77517 0.41163 0.0
C753 C 0.66815 0.73125 0.42002 0.0
C754 C 0.64519 0.70461 0.42795 0.0
C755 C 0.69583 0.73581 0.42204 0.0
C756 C 0.72098 0.76399 0.41631 0.0
C757 C 0.72443 0.7876 0.43468 0.0
C758 C 0.74809 0.81411 0.42907 0.0
C759 C 0.76855 0.81724 0.40532 0.0
C760 C 0.76543 0.79386 0.38718 0.0
C761 C 0.7418 0.76731 0.39267 0.0
H762 H 0.78685 0.83778 0.40101 0.0
H763 H 0.55791 0.5819 0.46524 0.0
H764 H 0.07186 0.69493 0.60354 0.0
H765 H 0.02216 0.66993 0.58736 0.0
H766 H -0.00159 0.662 0.69406 0.0
H767 H 0.04809 0.68617 0.71049 0.0
H768 H 0.95813 0.61829 0.65621 0.0
H769 H 0.00744 0.71795 0.65523 0.0
H770 H 0.04703 0.7654 0.64237 0.0
H771 H 0.03215 0.74917 0.53441 0.0
H772 H 0.99271 0.70139 0.54666 0.0
H773 H 0.85172 0.65823 0.57294 0.0
H774 H 0.8955 0.6715 0.60338 0.0
H775 H 0.89209 0.59501 0.56905 0.0
H776 H 0.84811 0.58129 0.53912 0.0
H777 H 0.94409 0.68309 0.5805 0.0
H778 H 0.91998 0.57137 0.62841 0.0
H779 H 0.87949 0.52821 0.65167 0.0
H780 H 0.84035 0.57565 0.68276 0.0
H781 H 0.88069 0.61909 0.66018 0.0
C782 C 0.056 0.68695 0.62355 0.0
C783 C 0.06369 0.69281 0.65816 0.0
C784 C 0.02769 0.6727 0.61432 0.0
C785 C 0.00679 0.66485 0.63954 0.0
C786 C 0.01429 0.66802 0.67429 0.0
C787 C 0.04267 0.68185 0.68359 0.0
C788 C 0.97815 0.65794 0.62936 0.0
C789 C 0.95492 0.63228 0.63954 0.0
C790 C 0.97397 0.67711 0.60944 0.0
C791 C -0.00273 0.70603 0.60185 0.0
C792 C 0.01271 0.72445 0.62874 0.0
C793 C 0.03512 0.7514 0.62157 0.0
C794 C 0.04214 0.76028 0.58758 0.0
C795 C 0.0267 0.74224 0.56071 0.0
C796 C 0.00429 0.71523 0.56775 0.0
C797 C 0.86029 0.64424 0.5718 0.0
C798 C 0.84646 0.61874 0.5535 0.0
C799 C 0.88524 0.65181 0.58933 0.0
C800 C 0.89678 0.63404 0.58885 0.0
C801 C 0.88318 0.60872 0.57038 0.0
C802 C 0.85818 0.60106 0.55299 0.0
C803 C 0.92397 0.64269 0.60581 0.0
C804 C 0.94705 0.66893 0.59714 0.0
C805 C 0.92764 0.62465 0.62858 0.0
C806 C 0.90329 0.59847 0.64224 0.0
C807 C 0.90278 0.57261 0.6403 0.0
C808 C 0.87982 0.54808 0.65337 0.0
C809 C 0.8573 0.54916 0.6686 0.0
C810 C 0.85772 0.57478 0.67085 0.0
C811 C 0.8806 0.59936 0.65785 0.0
H812 H 0.83958 0.53016 0.67873 0.0
H813 H 0.05952 0.78114 0.58207 0.0
H814 H 0.37546 0.07376 0.76225 0.0
H815 H 0.34548 0.03166 0.72844 0.0
H816 H 0.27653 0.04786 0.73807 0.0
H817 H 0.30621 0.08997 0.77178 0.0
H818 H 0.26421 0.99537 0.76162 0.0
H819 H 0.30341 0.052 0.66162 0.0
H820 H 0.34144 0.08587 0.62394 0.0
H821 H 0.37355 0.02907 0.61427 0.0
H822 H 0.33599 0.99503 0.65238 0.0
H823 H 0.1722 0.86902 0.6762 0.0
H824 H 0.19885 0.91977 0.68665 0.0
H825 H 0.27671 0.91901 0.6755 0.0
H826 H 0.25044 0.86853 0.66444 0.0
H827 H 0.28109 0.96616 0.64772 0.0
H828 H 0.24902 0.91435 0.75378 0.0
H829 H 0.21386 0.88057 0.79442 0.0
H830 H 0.17151 0.92856 0.79543 0.0
H831 H 0.20622 0.96243 0.75436 0.0
C832 C 0.35409 0.0687 0.75664 0.0
C833 C 0.34314 0.08504 0.77016 0.0
C834 C 0.33705 0.04473 0.73714 0.0
C835 C 0.30883 0.03672 0.73085 0.0
C836 C 0.29828 0.05376 0.7427 0.0
C837 C 0.31533 0.07783 0.76196 0.0
C838 C 0.28952 0.00886 0.71575 0.0
C839 C 0.26746 0.98917 0.73635 0.0
C840 C 0.29442 0.00068 0.68326 0.0
C841 C 0.31696 0.02103 0.6601 0.0
C842 C 0.3187 0.04681 0.6517 0.0
C843 C 0.34017 0.06604 0.63022 0.0
C844 C 0.35993 0.05965 0.61677 0.0
C845 C 0.35823 0.034 0.62472 0.0
C846 C 0.33683 0.01471 0.64624 0.0
C847 C 0.19499 0.87968 0.67551 0.0
C848 C 0.20915 0.86459 0.66995 0.0
C849 C 0.21017 0.90868 0.68149 0.0
C850 C 0.23973 0.92302 0.6823 0.0
C851 C 0.25391 0.90833 0.67498 0.0
C852 C 0.23879 0.87939 0.66888 0.0
C853 C 0.25592 0.9527 0.69372 0.0
C854 C 0.27749 0.97261 0.67263 0.0
C855 C 0.25091 0.96109 0.72605 0.0
C856 C 0.22999 0.94071 0.75067 0.0
C857 C 0.23206 0.91756 0.76244 0.0
C858 C 0.21224 0.89842 0.7856 0.0
C859 C 0.19041 0.90238 0.79743 0.0
C860 C 0.18839 0.9255 0.78618 0.0
C861 C 0.20813 0.94467 0.76296 0.0
H862 H 0.17509 0.88758 0.81537 0.0
H863 H 0.37653 0.07456 0.60015 0.0
H864 H 0.5865 0.6656 0.88355 0.0
H865 H 0.61199 0.64483 0.91096 0.0
H866 H 0.67999 0.72778 0.93621 0.0
H867 H 0.65462 0.74883 0.90971 0.0
H868 H 0.68248 0.68063 0.88284 0.0
H869 H 0.66687 0.70701 0.99788 0.0
H870 H 0.63591 0.70655 0.04409 0.0
H871 H 0.59176 0.61608 0.04498 0.0
H872 H 0.62235 0.61603 0.99851 0.0
H873 H 0.79065 0.66571 0.95929 0.0
H874 H 0.75704 0.68048 0.9431 0.0
H875 H 0.68807 0.59852 0.97042 0.0
H876 H 0.72148 0.58347 0.98687 0.0
H877 H 0.68237 0.64163 0.99771 0.0
H878 H 0.70082 0.61437 0.88925 0.0
H879 H 0.72852 0.61233 0.84065 0.0
H880 H 0.76363 0.70103 0.82345 0.0
H881 H 0.73657 0.70375 0.87239 0.0
C882 C 0.60654 0.6794 0.89575 0.0
C883 C 0.61881 0.70885 0.89394 0.0
C884 C 0.62092 0.66749 0.91152 0.0
C885 C 0.64766 0.68491 0.92548 0.0
C886 C 0.65916 0.71415 0.92577 0.0
C887 C 0.64467 0.72608 0.91049 0.0
C888 C 0.66556 0.67303 0.93404 0.0
C889 C 0.68284 0.67239 0.90803 0.0
C890 C 0.6649 0.66148 0.9665 0.0
C891 C 0.6466 0.66151 0.99442 0.0
C892 C 0.65034 0.68702 0.00763 0.0
C893 C 0.63293 0.68686 0.03394 0.0
C894 C 0.61177 0.66131 0.04731 0.0
C895 C 0.6081 0.63586 0.03453 0.0
C896 C 0.62549 0.63591 0.00825 0.0
C897 C 0.76835 0.65074 0.96169 0.0
C898 C 0.75874 0.62343 0.97441 0.0
C899 C 0.7492 0.65919 0.95233 0.0
C900 C 0.72018 0.6405 0.95551 0.0
C901 C 0.71045 0.61318 0.96788 0.0
C902 C 0.72958 0.60463 0.97707 0.0
C903 C 0.7001 0.6499 0.94669 0.0
C904 C 0.68217 0.64987 0.97248 0.0
C905 C 0.70002 0.66071 0.9138 0.0
C906 C 0.71689 0.65932 0.88481 0.0
C907 C 0.71473 0.63353 0.87542 0.0
C908 C 0.73028 0.63224 0.84775 0.0
C909 C 0.74791 0.65656 0.82907 0.0
C910 C 0.75003 0.68223 0.83802 0.0
C911 C 0.73459 0.68365 0.86573 0.0
H912 H 0.75983 0.65549 0.80756 0.0
H913 H 0.59831 0.66123 0.06767 0.0
H914 H 0.9341 0.61739 0.03524 0.0
H915 H 0.9822 0.64656 0.05608 0.0
H916 H 0.96003 0.70514 0.09977 0.0
H917 H 0.91184 0.67615 0.07933 0.0
H918 H 0.00564 0.72924 0.05338 0.0
H919 H 0.97478 0.66926 0.15243 0.0
H920 H 0.95229 0.62392 0.1833 0.0
H921 H 0.01181 0.60367 0.13945 0.0
H922 H 0.03443 0.64874 0.1079 0.0
H923 H 0.13549 0.81443 0.14329 0.0
H924 H 0.08691 0.7866 0.12306 0.0
H925 H 0.1044 0.72314 0.08459 0.0
H926 H 0.1528 0.7506 0.10464 0.0
H927 H 0.06053 0.70206 0.12952 0.0
H928 H 0.09095 0.76033 0.02968 0.0
H929 H 0.11328 0.80456 0.99653 0.0
H930 H 0.0549 0.82697 0.03899 0.0
H931 H 0.03246 0.78304 0.07283 0.0
C932 C 0.93925 0.63613 0.04995 0.0
C933 C 0.91925 0.64462 0.05532 0.0
C934 C 0.9667 0.65271 0.06185 0.0
C935 C 0.97445 0.67795 0.07917 0.0
C936 C 0.95425 0.68571 0.08626 0.0
C937 C 0.92674 0.66903 0.07469 0.0
C938 C 0.00418 0.69741 0.08715 0.0
C939 C 0.01764 0.72361 0.0705 0.0
C940 C 0.01968 0.6894 0.10856 0.0
C941 C 0.00614 0.66228 0.12754 0.0
C942 C 0.98293 0.65504 0.14912 0.0
C943 C 0.97018 0.62941 0.16679 0.0
C944 C 0.98057 0.6109 0.16327 0.0
C945 C 0.00377 0.61802 0.14212 0.0
C946 C 0.01658 0.64362 0.12437 0.0
C947 C 0.12916 0.79486 0.12986 0.0
C948 C 0.14778 0.78443 0.12612 0.0
C949 C 0.10146 0.77904 0.11828 0.0
C950 C 0.09221 0.75281 0.10266 0.0
C951 C 0.11123 0.74327 0.09689 0.0
C952 C 0.13883 0.75899 0.10842 0.0
C953 C 0.06213 0.73393 0.09563 0.0
C954 C 0.04857 0.70781 0.1125 0.0
C955 C 0.04662 0.74194 0.07417 0.0
C956 C 0.06027 0.76856 0.05417 0.0
C957 C 0.08308 0.77485 0.03229 0.0
C958 C 0.0957 0.79982 0.01328 0.0
C959 C 0.08559 0.81862 0.01575 0.0
C960 C 0.06276 0.81242 0.03717 0.0
C961 C 0.05007 0.78748 0.05625 0.0
H962 H 0.09539 0.83794 0.001 0.0
H963 H 0.97068 0.59106 0.17698 0.0
H964 H 0.25314 0.89521 0.28544 0.0
H965 H 0.273 0.93892 0.3182 0.0
H966 H 0.35211 0.9699 0.26528 0.0
H967 H 0.33263 0.92637 0.23238 0.0
H968 H 0.32528 0.98111 0.35612 0.0
H969 H 0.35749 0.0267 0.22157 0.0
H970 H 0.34724 0.01143 0.16112 0.0
H971 H 0.26288 0.94875 0.18867 0.0
H972 H 0.27242 0.96417 0.24896 0.0
H973 H 0.40164 0.13183 0.35091 0.0
H974 H 0.38488 0.08165 0.34453 0.0
H975 H 0.30499 0.06827 0.3075 0.0
H976 H 0.32152 0.11857 0.31378 0.0
H977 H 0.33018 0.04683 0.26506 0.0
H978 H 0.30723 0.04495 0.38401 0.0
H979 H 0.31654 0.0598 0.44455 0.0
H980 H 0.37935 0.03504 0.44952 0.0
H981 H 0.37072 0.02042 0.38882 0.0
C982 C 0.27509 0.91086 0.28165 0.0
C983 C 0.291 0.90785 0.25539 0.0
C984 C 0.28647 0.93569 0.3007 0.0
C985 C 0.31371 0.95764 0.29345 0.0
C986 C 0.33092 0.95309 0.27089 0.0
C987 C 0.31965 0.92825 0.25196 0.0
C988 C 0.32122 0.98663 0.30218 0.0
C989 C 0.32657 0.99564 0.33636 0.0
C990 C 0.32211 0.00511 0.27625 0.0
C991 C 0.31581 0.99632 0.23982 0.0
C992 C 0.33672 0.00977 0.21464 0.0
C993 C 0.33102 0.00111 0.1804 0.0
C994 C 0.30446 0.97907 0.17104 0.0
C995 C 0.28347 0.96578 0.19588 0.0
C996 C 0.289 0.97448 0.2301 0.0
C997 C 0.38044 0.11824 0.34151 0.0
C998 C 0.36294 0.12918 0.33255 0.0
C999 C 0.37086 0.08956 0.33823 0.0
C1000 C 0.3437 0.07141 0.32585 0.0
C1001 C 0.32601 0.0821 0.31728 0.0
C1002 C 0.33548 0.11078 0.32083 0.0
C1003 C 0.33468 0.04169 0.31908 0.0
C1004 C 0.32901 0.03247 0.28502 0.0
C1005 C 0.33334 0.02314 0.34521 0.0
C1006 C 0.3385 0.03182 0.38175 0.0
C1007 C 0.32321 0.0429 0.39791 0.0
C1008 C 0.32832 0.05123 0.43228 0.0
C1009 C 0.34857 0.04843 0.45085 0.0
C1010 C 0.36369 0.03722 0.4351 0.0
C1011 C 0.35867 0.02888 0.40072 0.0
H1012 H 0.3525 0.05489 0.47746 0.0
H1013 H 0.30015 0.97236 0.14455 0.0
H1014 H 0.21421 0.34148 0.48746 0.0
H1015 H 0.24814 0.32912 0.46488 0.0
H1016 H 0.29957 0.4137 0.42653 0.0
H1017 H 0.26586 0.42653 0.4495 0.0
H1018 H 0.28795 0.36567 0.37946 0.0
H1019 H 0.32357 0.40307 0.49151 0.0
H1020 H 0.31989 0.40784 0.5539 0.0
H1021 H 0.29327 0.32031 0.56774 0.0
H1022 H 0.29632 0.31488 0.50535 0.0
H1023 H 0.38812 0.32458 0.33759 0.0
H1024 H 0.3704 0.35417 0.36079 0.0
H1025 H 0.31758 0.28797 0.43151 0.0
H1026 H 0.33558 0.25864 0.40928 0.0
H1027 H 0.33826 0.33715 0.4616 0.0
H1028 H 0.29296 0.29628 0.35327 0.0
H1029 H 0.29167 0.28701 0.29117 0.0
H1030 H 0.33134 0.37573 0.27052 0.0
H1031 H 0.33319 0.38553 0.33258 0.0
C1032 C 0.23258 0.35742 0.47396 0.0
C1033 C 0.23746 0.38501 0.47037 0.0
C1034 C 0.25196 0.35035 0.46125 0.0
C1035 C 0.27634 0.37064 0.44447 0.0
C1036 C 0.28086 0.3979 0.43963 0.0
C1037 C 0.26166 0.40514 0.4528 0.0
C1038 C 0.29713 0.36307 0.43256 0.0
C1039 C 0.29956 0.36007 0.39726 0.0
C1040 C 0.31163 0.35529 0.45607 0.0
C1041 C 0.30998 0.35854 0.49368 0.0
C1042 C 0.3167 0.38478 0.50781 0.0
C1043 C 0.31476 0.38761 0.54319 0.0
C1044 C 0.30629 0.36438 0.56476 0.0
C1045 C 0.29981 0.33828 0.551 0.0
C1046 C 0.30167 0.33533 0.51562 0.0
C1047 C 0.37299 0.31645 0.35837 0.0
C1048 C 0.36291 0.28906 0.3712 0.0
C1049 C 0.36287 0.33338 0.37152 0.0
C1050 C 0.34232 0.32302 0.39738 0.0
C1051 C 0.33339 0.29632 0.41146 0.0
C1052 C 0.34362 0.27951 0.39856 0.0
C1053 C 0.3285 0.33889 0.40844 0.0
C1054 C 0.32732 0.34345 0.44365 0.0
C1055 C 0.31466 0.34753 0.38486 0.0
C1056 C 0.31355 0.34166 0.34756 0.0
C1057 C 0.30161 0.31382 0.3355 0.0
C1058 C 0.30074 0.30847 0.30031 0.0
C1059 C 0.31149 0.33078 0.27693 0.0
C1060 C 0.32308 0.35848 0.28868 0.0
C1061 C 0.32405 0.36394 0.32384 0.0
H1062 H 0.31077 0.32659 0.2497 0.0
H1063 H 0.30481 0.36662 0.59215 0.0
H1064 H 0.85991 0.26061 0.67514 0.0
H1065 H 0.9092 0.29127 0.66033 0.0
H1066 H 0.92293 0.22044 0.66338 0.0
H1067 H 0.87326 0.18919 0.67819 0.0
H1068 H 0.96692 0.27355 0.69525 0.0
H1069 H 0.91453 0.23653 0.59031 0.0
H1070 H 0.87501 0.22496 0.55094 0.0
H1071 H 0.89961 0.3125 0.54451 0.0
H1072 H 0.93906 0.32455 0.5843 0.0
H1073 H 0.08992 0.32807 0.59228 0.0
H1074 H 0.0451 0.30142 0.62183 0.0
H1075 H 0.02528 0.3666 0.59924 0.0
H1076 H 0.06995 0.39328 0.56875 0.0
H1077 H 0.9843 0.31641 0.57922 0.0
H1078 H 0.03864 0.35423 0.68151 0.0
H1079 H 0.07772 0.36588 0.72162 0.0
H1080 H 0.04985 0.27794 0.7339 0.0
H1081 H 0.01083 0.26575 0.69345 0.0
C1082 C 0.87336 0.25146 0.67308 0.0
C1083 C 0.8626 0.22237 0.67754 0.0
C1084 C 0.90151 0.26906 0.66464 0.0
C1085 C 0.91941 0.25796 0.66064 0.0
C1086 C 0.90923 0.22923 0.66646 0.0
C1087 C 0.88089 0.21146 0.67467 0.0
C1088 C 0.94819 0.27621 0.64794 0.0
C1089 C 0.97092 0.28274 0.66978 0.0
C1090 C 0.95296 0.28852 0.61501 0.0
C1091 C 0.92957 0.2814 0.59057 0.0
C1092 C 0.91138 0.25329 0.58071 0.0
C1093 C 0.88902 0.24665 0.55829 0.0
C1094 C 0.88475 0.26797 0.54531 0.0
C1095 C 0.90292 0.296 0.55463 0.0
C1096 C 0.92531 0.30275 0.57709 0.0
C1097 C 0.07632 0.33706 0.59405 0.0
C1098 C 0.08338 0.36268 0.57778 0.0
C1099 C 0.05074 0.32183 0.61116 0.0
C1100 C 0.03198 0.33211 0.61278 0.0
C1101 C 0.03955 0.35834 0.59815 0.0
C1102 C 0.06508 0.37355 0.58081 0.0
C1103 C 0.00338 0.31419 0.62664 0.0
C1104 C 0.98053 0.30751 0.60484 0.0
C1105 C -0.00141 0.30185 0.65963 0.0
C1106 C 0.02192 0.30909 0.68421 0.0
C1107 C 0.04096 0.33738 0.69256 0.0
C1108 C 0.06308 0.34408 0.71539 0.0
C1109 C 0.0663 0.32267 0.73024 0.0
C1110 C 0.04734 0.2945 0.72236 0.0
C1111 C 0.02519 0.28768 0.69951 0.0
H1112 H 0.08345 0.3279 0.7479 0.0
H1113 H 0.86742 0.26278 0.52796 0.0
H1114 H 0.55636 0.83204 0.77983 0.0
H1115 H 0.56791 0.87931 0.7611 0.0
H1116 H 0.65362 0.9121 0.79482 0.0
H1117 H 0.64246 0.86499 0.8132 0.0
H1118 H 0.62367 0.94159 0.81897 0.0
H1119 H 0.64349 0.90286 0.71556 0.0
H1120 H 0.62906 0.86758 0.66932 0.0
H1121 H 0.56458 0.88553 0.63818 0.0
H1122 H 0.57843 0.92068 0.68459 0.0
H1123 H 0.72583 0.06651 0.75072 0.0
H1124 H 0.69295 0.0196 0.77135 0.0
H1125 H 0.62941 0.01463 0.70177 0.0
H1126 H 0.66271 0.06169 0.68004 0.0
H1127 H 0.63342 0.96948 0.69644 0.0
H1128 H 0.62069 0.01623 0.78952 0.0
H1129 H 0.63329 0.0514 0.83551 0.0
H1130 H 0.67982 0.01851 0.88716 0.0
H1131 H 0.6679 0.98342 0.84124 0.0
C1132 C 0.57771 0.84933 0.78307 0.0
C1133 C 0.59856 0.84494 0.79799 0.0
C1134 C 0.58419 0.87619 0.77241 0.0
C1135 C 0.61147 0.89895 0.77694 0.0
C1136 C 0.63238 0.89463 0.79143 0.0
C1137 C 0.62605 0.86774 0.80161 0.0
C1138 C 0.61861 0.92751 0.76659 0.0
C1139 C 0.62583 0.94788 0.79225 0.0
C1140 C 0.61984 0.93504 0.73177 0.0
C1141 C 0.61173 0.91409 0.70379 0.0
C1142 C 0.62607 0.89908 0.69905 0.0
C1143 C 0.61804 0.87916 0.67277 0.0
C1144 C 0.59584 0.87423 0.65091 0.0
C1145 C 0.58172 0.88931 0.65519 0.0
C1146 C 0.58965 0.90924 0.68146 0.0
C1147 C 0.70478 0.05571 0.74004 0.0
C1148 C 0.69697 0.06778 0.71355 0.0
C1149 C 0.68586 0.02892 0.75214 0.0
C1150 C 0.65857 0.01381 0.7385 0.0
C1151 C 0.65034 0.02606 0.71275 0.0
C1152 C 0.66941 0.05289 0.70037 0.0
C1153 C 0.64013 0.98418 0.74886 0.0
C1154 C 0.63053 0.96339 0.72327 0.0
C1155 C 0.63625 0.97621 0.78383 0.0
C1156 C 0.6434 -0.00283 0.81181 0.0
C1157 C 0.63374 0.01657 0.81058 0.0
C1158 C 0.64075 0.0365 0.83666 0.0
C1159 C 0.65735 0.03719 0.86423 0.0
C1160 C 0.66693 0.01793 0.8658 0.0
C1161 C 0.65999 -0.00204 0.83978 0.0
H1162 H 0.66277 0.05265 0.88438 0.0
H1163 H 0.58965 0.8588 0.63058 0.0
H1164 H 0.33899 0.47719 0.02771 0.0
H1165 H 0.37781 0.52011 0.0034 0.0
H1166 H 0.32016 0.54899 0.97638 0.0
H1167 H 0.28111 0.50589 -7e-05 0.0
H1168 H 0.35089 0.55171 0.92333 0.0
H1169 H 0.36892 0.58103 0.04003 0.0
H1170 H 0.3766 0.57742 0.10167 0.0
H1171 H 0.45069 0.57272 0.07854 0.0
H1172 H 0.44322 0.57587 0.01668 0.0
H1173 H 0.45858 0.68765 0.87026 0.0
H1174 H 0.42027 0.65042 0.9036 0.0
H1175 H 0.46924 0.60945 0.91759 0.0
H1176 H 0.50769 0.64647 0.88409 0.0
H1177 H 0.4427 0.61535 0.97886 0.0
H1178 H 0.42154 0.58296 0.86141 0.0
H1179 H 0.41333 0.5874 0.80014 0.0
H1180 H 0.34399 0.5994 0.82631 0.0
H1181 H 0.35208 0.59545 0.88782 0.0
C1182 C 0.33463 0.49286 0.01704 0.0
C1183 C 0.30698 0.48808 0.01544 0.0
C1184 C 0.35685 0.51742 0.00332 0.0
C1185 C 0.35181 0.53773 0.98831 0.0
C1186 C 0.3244 0.53349 0.98782 0.0
C1187 C 0.30215 0.50885 0.00124 0.0
C1188 C 0.37467 0.56218 0.97044 0.0
C1189 C 0.37076 0.56595 0.9357 0.0
C1190 C 0.40075 0.58031 0.98645 0.0
C1191 C 0.40536 0.57844 0.02366 0.0
C1192 C 0.38672 0.57899 0.04805 0.0
C1193 C 0.39106 0.57707 0.08304 0.0
C1194 C 0.41408 0.57478 0.09401 0.0
C1195 C 0.43285 0.57447 0.07 0.0
C1196 C 0.42859 0.57635 0.03497 0.0
C1197 C 0.46121 0.67072 0.88042 0.0
C1198 C 0.48603 0.66985 0.87444 0.0
C1199 C 0.43935 0.64955 0.89941 0.0
C1200 C 0.44212 0.62738 0.91286 0.0
C1201 C 0.46693 0.62656 0.90736 0.0
C1202 C 0.48869 0.64754 0.88802 0.0
C1203 C 0.41876 0.60461 0.932 0.0
C1204 C 0.42265 0.60118 0.96681 0.0
C1205 C 0.39254 0.58691 0.9162 0.0
C1206 C 0.38763 0.58924 0.87923 0.0
C1207 C 0.40472 0.58682 0.85412 0.0
C1208 C 0.40005 0.58919 0.81935 0.0
C1209 C 0.3782 0.59377 0.80934 0.0
C1210 C 0.36093 0.59591 0.8341 0.0
C1211 C 0.36554 0.59359 0.86892 0.0
H1212 H 0.37461 0.59559 0.7824 0.0
H1213 H 0.41741 0.57331 0.12112 0.0
H1214 H 0.86718 0.52596 0.03972 0.0
H1215 H 0.86589 0.48381 0.06213 0.0
H1216 H 0.77502 0.44014 0.06228 0.0
H1217 H 0.77602 0.48236 0.0405 0.0
H1218 H 0.79479 0.42976 0.1196 0.0
H1219 H 0.81031 0.42816 -0.00086 0.0
H1220 H 0.83367 0.44721 0.94359 0.0
H1221 H 0.91116 0.45749 0.98374 0.0
H1222 H 0.88836 0.43887 0.03971 0.0
H1223 H 0.77985 0.29475 0.1431 0.0
H1224 H 0.77736 0.33351 0.11578 0.0
H1225 H 0.8679 0.38482 0.11995 0.0
H1226 H 0.87075 0.34622 0.14703 0.0
H1227 H 0.84547 0.3891 0.0581 0.0
H1228 H 0.82977 0.39293 0.17962 0.0
H1229 H 0.8058 0.37346 0.23476 0.0
H1230 H 0.72742 0.35812 0.19132 0.0
H1231 H 0.75088 0.37714 0.13575 0.0
C1232 C 0.8469 0.50744 0.04461 0.0
C1233 C 0.8217 0.50744 0.0381 0.0
C1234 C 0.84622 0.48335 0.05727 0.0
C1235 C 0.82035 0.45878 0.0632 0.0
C1236 C 0.79518 0.45891 0.05766 0.0
C1237 C 0.79582 0.48305 0.04522 0.0
C1238 C 0.81964 0.43293 0.07519 0.0
C1239 C 0.80548 0.42059 0.10588 0.0
C1240 C 0.83393 0.42128 0.05742 0.0
C1241 C 0.84768 0.43234 0.02372 0.0
C1242 C 0.83239 0.43467 0.9962 0.0
C1243 C 0.84552 0.44537 0.96463 0.0
C1244 C 0.8739 0.45361 0.96016 0.0
C1245 C 0.88918 0.45112 0.98724 0.0
C1246 C 0.87616 0.44047 0.01889 0.0
C1247 C 0.79928 0.31417 0.13795 0.0
C1248 C 0.8255 0.3175 0.14757 0.0
C1249 C 0.79778 0.33628 0.12243 0.0
C1250 C 0.82243 0.362 0.11633 0.0
C1251 C 0.84867 0.36506 0.1246 0.0
C1252 C 0.85021 0.34303 0.1402 0.0
C1253 C 0.8209 0.3862 0.1026 0.0
C1254 C 0.83462 0.39819 0.07161 0.0
C1255 C 0.80608 0.39744 0.11997 0.0
C1256 C 0.79201 0.38617 0.15343 0.0
C1257 C 0.80738 0.38519 0.18175 0.0
C1258 C 0.7939 0.37427 0.2131 0.0
C1259 C 0.76509 0.36448 0.21652 0.0
C1260 C 0.74972 0.36566 0.18862 0.0
C1261 C 0.7631 0.37652 0.1572 0.0
H1262 H 0.75469 0.35604 0.24081 0.0
H1263 H 0.88403 0.46189 0.93569 0.0
H1264 H 0.49554 0.77064 0.2718 0.0
H1265 H 0.45019 0.75927 0.24623 0.0
H1266 H 0.44414 0.81725 0.31575 0.0
H1267 H 0.48903 0.82867 0.34137 0.0
H1268 H 0.39531 0.76642 0.31255 0.0
H1269 H 0.4647 0.83651 0.23779 0.0
H1270 H 0.50327 0.85935 0.19578 0.0
H1271 H 0.45716 0.79173 0.12469 0.0
H1272 H 0.41855 0.7681 0.16666 0.0
H1273 H 0.33055 0.8368 0.2375 0.0
H1274 H 0.36296 0.82214 0.25974 0.0
H1275 H 0.32267 0.74706 0.19753 0.0
H1276 H 0.28949 0.76113 0.17588 0.0
H1277 H 0.38768 0.79099 0.19214 0.0
H1278 H 0.31333 0.72873 0.26718 0.0
H1279 H 0.27428 0.71609 0.30773 0.0
H1280 H 0.33126 0.7787 0.37855 0.0
H1281 H 0.37059 0.79206 0.33818 0.0
C1282 C 0.48446 0.78086 0.28168 0.0
C1283 C 0.49582 0.80054 0.30861 0.0
C1284 C 0.45867 0.7744 0.267 0.0
C1285 C 0.44396 0.7874 0.27926 0.0
C1286 C 0.4552 0.80689 0.30616 0.0
C1287 C 0.48094 0.81351 0.3206 0.0
C1288 C 0.41689 0.78127 0.26419 0.0
C1289 C 0.39352 0.77152 0.28611 0.0
C1290 C 0.41458 0.78745 0.22952 0.0
C1291 C 0.43895 0.80023 0.20567 0.0
C1292 C 0.46303 0.82615 0.21354 0.0
C1293 C 0.48481 0.83939 0.18959 0.0
C1294 C 0.48259 0.82709 0.15751 0.0
C1295 C 0.45878 0.80131 0.14949 0.0
C1296 C 0.43703 0.78791 0.17342 0.0
C1297 C 0.32842 0.81703 0.2289 0.0
C1298 C 0.30773 0.80012 0.20496 0.0
C1299 C 0.34671 0.80861 0.24173 0.0
C1300 C 0.34484 0.78349 0.23032 0.0
C1301 C 0.32405 0.76636 0.20673 0.0
C1302 C 0.30526 0.77443 0.19447 0.0
C1303 C 0.36668 0.77711 0.24077 0.0
C1304 C 0.38911 0.7846 0.21807 0.0
C1305 C 0.36843 0.76967 0.2749 0.0
C1306 C 0.34491 0.76148 0.29952 0.0
C1307 C 0.31751 0.73996 0.29128 0.0
C1308 C 0.29532 0.73263 0.31427 0.0
C1309 C 0.30027 0.74661 0.34568 0.0
C1310 C 0.32745 0.76789 0.35421 0.0
C1311 C 0.34972 0.77531 0.3313 0.0
H1312 H 0.28306 0.74093 0.36343 0.0
H1313 H 0.49943 0.83741 0.13897 0.0
H1314 H 0.64517 0.51716 0.4823 0.0
H1315 H 0.60665 0.47796 0.45178 0.0
H1316 H 0.65284 0.43328 0.45217 0.0
H1317 H 0.69184 0.47276 0.48178 0.0
H1318 H 0.63061 0.42957 0.39159 0.0
H1319 H 0.59717 0.41573 0.50744 0.0
H1320 H 0.58516 0.42876 0.56284 0.0
H1321 H 0.52492 0.44485 0.51271 0.0
H1322 H 0.53686 0.43227 0.4569 0.0
H1323 H 0.51399 0.29216 0.35794 0.0
H1324 H 0.55436 0.33358 0.38289 0.0
H1325 H 0.51264 0.38174 0.36784 0.0
H1326 H 0.47218 0.34055 0.34281 0.0
H1327 H 0.53236 0.38388 0.43477 0.0
H1328 H 0.56587 0.3954 0.31849 0.0
H1329 H 0.57777 0.3803 0.26452 0.0
H1330 H 0.63786 0.36584 0.31784 0.0
H1331 H 0.62602 0.38048 0.37226 0.0
C1332 C 0.64708 0.49893 0.47604 0.0
C1333 C 0.67148 0.49798 0.48453 0.0
C1334 C 0.62503 0.47654 0.45868 0.0
C1335 C 0.62678 0.4526 0.45013 0.0
C1336 C 0.65112 0.4516 0.45854 0.0
C1337 C 0.67333 0.47413 0.47552 0.0
C1338 C 0.60335 0.42871 0.43204 0.0
C1339 C 0.60918 0.41934 0.40126 0.0
C1340 C 0.57535 0.41575 0.4444 0.0
C1341 C 0.56812 0.42333 0.47794 0.0
C1342 C 0.58153 0.42226 0.50818 0.0
C1343 C 0.5747 0.42953 0.53967 0.0
C1344 C 0.55435 0.4377 0.54128 0.0
C1345 C 0.54072 0.43855 0.51141 0.0
C1346 C 0.54749 0.43134 0.47985 0.0
C1347 C 0.51349 0.31162 0.35963 0.0
C1348 C 0.48985 0.31305 0.34852 0.0
C1349 C 0.5366 0.33525 0.37374 0.0
C1350 C 0.53635 0.36058 0.37704 0.0
C1351 C 0.51309 0.36228 0.36541 0.0
C1352 C 0.49008 0.33876 0.35103 0.0
C1353 C 0.55969 0.38486 0.39445 0.0
C1354 C 0.55381 0.39422 0.42513 0.0
C1355 C 0.58766 0.39752 0.38225 0.0
C1356 C 0.59485 0.38878 0.34952 0.0
C1357 C 0.58144 0.38876 0.31877 0.0
C1358 C 0.58821 0.38033 0.28808 0.0
C1359 C 0.60851 0.37204 0.28776 0.0
C1360 C 0.62212 0.37223 0.31813 0.0
C1361 C 0.61541 0.38062 0.3489 0.0
H1362 H 0.61373 0.36553 0.26397 0.0
H1363 H 0.54908 0.44331 0.56569 0.0
H1364 H 0.13672 0.47885 0.57295 0.0
H1365 H 0.13941 0.51934 0.60238 0.0
H1366 H 0.22966 0.56523 0.58925 0.0
H1367 H 0.22727 0.5244 0.56049 0.0
H1368 H 0.21514 0.57634 0.65081 0.0
H1369 H 0.18845 0.57567 0.53414 0.0
H1370 H 0.16086 0.55543 0.48134 0.0
H1371 H 0.08583 0.54149 0.53314 0.0
H1372 H 0.11291 0.56127 0.58643 0.0
H1373 H 0.22408 0.71264 0.66324 0.0
H1374 H 0.22758 0.67175 0.64505 0.0
H1375 H 0.13963 0.6171 0.6684 0.0
H1376 H 0.13585 0.65756 0.68677 0.0
H1377 H 0.15596 0.61234 0.60093 0.0
H1378 H 0.18515 0.61459 0.71831 0.0
H1379 H 0.21479 0.63663 0.76923 0.0
H1380 H 0.28807 0.65072 0.713 0.0
H1381 H 0.25891 0.62913 0.66155 0.0
C1382 C 0.15718 0.49747 0.5765 0.0
C1383 C 0.18174 0.49863 0.5639 0.0
C1384 C 0.15868 0.52058 0.59333 0.0
C1385 C 0.18466 0.54544 0.59726 0.0
C1386 C 0.2094 0.54624 0.58626 0.0
C1387 C 0.20797 0.52296 0.56976 0.0
C1388 C 0.18562 0.57102 0.61098 0.0
C1389 C 0.20249 0.58446 0.63969 0.0
C1390 C 0.16903 0.58148 0.59644 0.0
C1391 C 0.15267 0.56973 0.56437 0.0
C1392 C 0.16603 0.5681 0.53434 0.0
C1393 C 0.15049 0.55674 0.50432 0.0
C1394 C 0.1216 0.54712 0.5039 0.0
C1395 C 0.10821 0.54892 0.53351 0.0
C1396 C 0.12365 0.56023 0.56363 0.0
C1397 C 0.20555 0.69189 0.66484 0.0
C1398 C 0.17963 0.68838 0.67623 0.0
C1399 C 0.20766 0.66859 0.65463 0.0
C1400 C 0.18386 0.64155 0.6555 0.0
C1401 C 0.1582 0.63788 0.66764 0.0
C1402 C 0.15613 0.66105 0.67815 0.0
C1403 C 0.18496 0.61726 0.64116 0.0
C1404 C 0.1686 0.60421 0.61207 0.0
C1405 C 0.20236 0.60755 0.65504 0.0
C1406 C 0.21989 0.62054 0.68596 0.0
C1407 C 0.20763 0.62265 0.71669 0.0
C1408 C 0.22433 0.635 0.74568 0.0
C1409 C 0.25331 0.64515 0.74433 0.0
C1410 C 0.26563 0.6429 0.714 0.0
C1411 C 0.24902 0.63059 0.68492 0.0
H1412 H 0.2662 0.65469 0.7668 0.0
H1413 H 0.1096 0.53833 0.48063 0.0
H1414 H 0.46667 0.12801 0.78186 0.0
H1415 H 0.50827 0.13127 0.75476 0.0
H1416 H 0.54893 0.22199 0.75586 0.0
H1417 H 0.50723 0.21905 0.78247 0.0
H1418 H 0.56288 0.20174 0.69832 0.0
H1419 H 0.56065 0.19167 0.82043 0.0
H1420 H 0.53963 0.17019 0.87618 0.0
H1421 H 0.53314 0.09221 0.84413 0.0
H1422 H 0.55371 0.11312 0.78792 0.0
H1423 H 0.70375 0.22224 0.70136 0.0
H1424 H 0.66138 0.22417 0.71679 0.0
H1425 H 0.61174 0.13356 0.71032 0.0
H1426 H 0.65365 0.13136 0.69477 0.0
H1427 H 0.60421 0.15732 0.77112 0.0
H1428 H 0.60723 0.16919 0.64787 0.0
H1429 H 0.62939 0.19246 0.59329 0.0
H1430 H 0.63673 0.26982 0.62957 0.0
H1431 H 0.615 0.2471 0.68462 0.0
C1432 C 0.48426 0.14866 0.77587 0.0
C1433 C 0.48398 0.17329 0.78515 0.0
C1434 C 0.50794 0.15047 0.7603 0.0
C1435 C 0.53176 0.17687 0.75416 0.0
C1436 C 0.53073 0.20145 0.76068 0.0
C1437 C 0.50695 0.19968 0.77607 0.0
C1438 C 0.55864 0.17872 0.74483 0.0
C1439 C 0.57214 0.19233 0.71434 0.0
C1440 C 0.57059 0.16646 0.76595 0.0
C1441 C 0.55847 0.15388 0.79985 0.0
C1442 C 0.55455 0.16988 0.82517 0.0
C1443 C 0.54274 0.15782 0.85686 0.0
C1444 C 0.53499 0.12983 0.86366 0.0
C1445 C 0.53911 0.11388 0.8388 0.0
C1446 C 0.55086 0.12582 0.80703 0.0
C1447 C 0.6838 0.20275 0.70334 0.0
C1448 C 0.68195 0.17665 0.69685 0.0
C1449 C 0.6597 0.20392 0.71191 0.0
C1450 C 0.63361 0.17901 0.71437 0.0
C1451 C 0.63178 0.15297 0.70836 0.0
C1452 C 0.65571 0.15179 0.69944 0.0
C1453 C 0.60813 0.17973 0.72422 0.0
C1454 C 0.595 0.16678 0.75508 0.0
C1455 C 0.59683 0.1929 0.70364 0.0
C1456 C 0.6098 0.20654 0.67052 0.0
C1457 C 0.61383 0.19124 0.64435 0.0
C1458 C 0.62626 0.20431 0.61329 0.0
C1459 C 0.63455 0.23263 0.608 0.0
C1460 C 0.63035 0.2479 0.63373 0.0
C1461 C 0.61797 0.23493 0.66485 0.0
H1462 H 0.64416 0.24271 0.58394 0.0
H1463 H 0.52585 0.12053 0.88822 0.0
H1464 H 0.2398 0.34386 0.15289 0.0
H1465 H 0.24902 0.31055 0.18351 0.0
H1466 H 0.20742 0.24905 0.10362 0.0
H1467 H 0.19795 0.28225 0.07266 0.0
H1468 H 0.20358 0.22545 0.17326 0.0
H1469 H 0.27066 0.28466 0.089 0.0
H1470 H 0.30039 0.32922 0.05855 0.0
H1471 H 0.34452 0.36743 0.15195 0.0
H1472 H 0.31481 0.32292 0.18311 0.0
H1473 H 0.34595 0.22219 0.20507 0.0
H1474 H 0.31325 0.228 0.16807 0.0
H1475 H 0.26009 0.2162 0.25553 0.0
H1476 H 0.29184 0.20886 0.29202 0.0
H1477 H 0.3078 0.2703 0.17264 0.0
H1478 H 0.19562 0.20364 0.23365 0.0
H1479 H 0.16545 0.1558 0.25674 0.0
H1480 H 0.211 0.12552 0.19775 0.0
H1481 H 0.24119 0.17306 0.17391 0.0
C1482 C 0.23165 0.32291 0.14237 0.0
C1483 C 0.21867 0.31595 0.10996 0.0
C1484 C 0.23691 0.30387 0.15996 0.0
C1485 C 0.22935 0.2776 0.14545 0.0
C1486 C 0.21343 0.26926 0.11517 0.0
C1487 C 0.20805 0.28832 0.09752 0.0
C1488 C 0.24273 0.26173 0.1584 0.0
C1489 C 0.22633 0.23504 0.17322 0.0
C1490 C 0.27229 0.27382 0.15686 0.0
C1491 C 0.29036 0.3006 0.13841 0.0
C1492 C 0.28657 0.30263 0.10309 0.0
C1493 C 0.30346 0.32787 0.08568 0.0
C1494 C 0.32429 0.35124 0.10327 0.0
C1495 C 0.32835 0.34934 0.13835 0.0
C1496 C 0.31153 0.32408 0.1559 0.0
C1497 C 0.3267 0.21975 0.21607 0.0
C1498 C 0.32152 0.21525 0.25143 0.0
C1499 C 0.30806 0.22318 0.19496 0.0
C1500 C 0.28422 0.22278 0.20895 0.0
C1501 C 0.27797 0.21614 0.24383 0.0
C1502 C 0.29626 0.21203 0.26479 0.0
C1503 C 0.26887 0.23393 0.18881 0.0
C1504 C 0.28499 0.26011 0.17258 0.0
C1505 C 0.23905 0.22075 0.18814 0.0
C1506 C 0.22082 0.19202 0.20219 0.0
C1507 C 0.19912 0.18676 0.22546 0.0
C1508 C 0.18203 0.15968 0.23871 0.0
C1509 C 0.18635 0.13765 0.22878 0.0
C1510 C 0.20774 0.14263 0.20552 0.0
C1511 C 0.22488 0.16965 0.19218 0.0
H1512 H 0.1731 0.11671 0.23908 0.0
H1513 H 0.33733 0.37078 0.08969 0.0
H1514 H 0.09645 0.37597 0.405 0.0
H1515 H 0.057 0.34331 0.36935 0.0
H1516 H 0.05556 0.2729 0.42032 0.0
H1517 H 0.09553 0.30554 0.45613 0.0
H1518 H 0.04812 0.29905 0.32451 0.0
H1519 H 0.98068 0.22686 0.43374 0.0
H1520 H 0.97655 0.22724 0.49681 0.0
H1521 H 0.01134 0.31695 0.49519 0.0
H1522 H 0.01523 0.31701 0.43214 0.0
H1523 H 0.9152 0.21191 0.24496 0.0
H1524 H 0.95503 0.2209 0.28217 0.0
H1525 H 0.93859 0.27593 0.34489 0.0
H1526 H 0.89912 0.26711 0.30805 0.0
H1527 H 0.95599 0.24698 0.38406 0.0
H1528 H 0.98387 0.30187 0.2787 0.0
H1529 H 0.99061 0.31094 0.21645 0.0
H1530 H 0.03594 0.266 0.21088 0.0
H1531 H 0.02915 0.25636 0.27306 0.0
C1532 C 0.08831 0.35357 0.40811 0.0
C1533 C 0.09925 0.3434 0.43336 0.0
C1534 C 0.06581 0.33496 0.38762 0.0
C1535 C 0.05344 0.3058 0.39222 0.0
C1536 C 0.06489 0.29539 0.41641 0.0
C1537 C 0.0878 0.31407 0.43669 0.0
C1538 C 0.0272 0.2869 0.3734 0.0
C1539 C 0.02801 0.28703 0.33747 0.0
C1540 C 0.00099 0.27172 0.39042 0.0
C1541 C -0.00132 0.27195 0.42831 0.0
C1542 C 0.98744 0.24664 0.44688 0.0
C1543 C 0.9851 0.24679 0.48261 0.0
C1544 C 0.9938 0.27213 0.50001 0.0
C1545 C 0.00475 0.29736 0.4817 0.0
C1546 C 0.00706 0.29731 0.44598 0.0
C1547 C 0.91961 0.22522 0.26731 0.0
C1548 C 0.90422 0.23897 0.27353 0.0
C1549 C 0.94245 0.23047 0.2884 0.0
C1550 C 0.94995 0.24932 0.3161 0.0
C1551 C 0.9332 0.26129 0.32373 0.0
C1552 C 0.9107 0.25633 0.30256 0.0
C1553 C 0.97682 0.25938 0.33498 0.0
C1554 C 0.97615 0.25777 0.37099 0.0
C1555 C 0.00318 0.27384 0.31804 0.0
C1556 C 0.00566 0.27806 0.28039 0.0
C1557 C -0.00512 0.29355 0.2641 0.0
C1558 C -0.00117 0.29891 0.22888 0.0
C1559 C 0.01379 0.28914 0.20979 0.0
C1560 C 0.02442 0.2736 0.22574 0.0
C1561 C 0.02049 0.26814 0.26094 0.0
H1562 H 0.01731 0.29377 0.18269 0.0
H1563 H 0.99196 0.2722 0.52766 0.0
H1564 H 0.77094 0.1242 0.55 0.0
H1565 H 0.7592 0.08624 0.50878 0.0
H1566 H 0.75531 0.03196 0.59128 0.0
H1567 H 0.76876 0.07041 0.63211 0.0
H1568 H 0.76885 0.01583 0.53428 0.0
H1569 H 0.69819 0.03966 0.56746 0.0
H1570 H 0.67846 0.07119 0.57313 0.0
H1571 H 0.68115 0.08146 0.46374 0.0
H1572 H 0.70156 0.05055 0.45749 0.0
H1573 H 0.62334 0.90319 0.45722 0.0
H1574 H 0.65359 0.9428 0.49409 0.0
H1575 H 0.7254 0.9606 0.43125 0.0
H1576 H 0.69528 0.92048 0.39444 0.0
H1577 H 0.68017 0.99575 0.47642 0.0
H1578 H 0.78579 0.99617 0.48098 0.0
H1579 H 0.80299 0.96232 0.47961 0.0
H1580 H 0.72418 0.89782 0.52066 0.0
H1581 H 0.70666 0.93136 0.52269 0.0
C1582 C 0.76879 0.10456 0.55902 0.0
C1583 C 0.77052 0.10018 0.59421 0.0
C1584 C 0.76185 0.08279 0.53554 0.0
C1585 C 0.75537 0.05592 0.5471 0.0
C1586 C 0.75997 0.0524 0.58174 0.0
C1587 C 0.7677 0.07445 0.6051 0.0
C1588 C 0.73987 0.03078 0.52465 0.0
C1589 C 0.74961 0.01156 0.52131 0.0
C1590 C 0.71436 0.02478 0.5083 0.0
C1591 C 0.70178 0.04312 0.51206 0.0
C1592 C 0.69478 0.04883 0.54465 0.0
C1593 C 0.68351 0.06662 0.54796 0.0
C1594 C 0.6787 0.07846 0.51883 0.0
C1595 C 0.68503 0.07242 0.4863 0.0
C1596 C 0.69651 0.05481 0.48286 0.0
C1597 C 0.64564 0.91518 0.45147 0.0
C1598 C 0.65681 0.90867 0.4227 0.0
C1599 C 0.66292 0.93792 0.47257 0.0
C1600 C 0.69176 0.95478 0.46542 0.0
C1601 C 0.70327 0.94774 0.43752 0.0
C1602 C 0.68598 0.92477 0.41648 0.0
C1603 C 0.7091 0.98075 0.48586 0.0
C1604 C 0.69964 0.00015 0.48884 0.0
C1605 C 0.73442 0.98649 0.50237 0.0
C1606 C 0.74483 0.96621 0.50158 0.0
C1607 C 0.77217 0.97479 0.48979 0.0
C1608 C 0.78197 0.95565 0.4889 0.0
C1609 C 0.76465 0.92791 0.49992 0.0
C1610 C 0.73753 0.91928 0.51199 0.0
C1611 C 0.72764 0.93833 0.51296 0.0
H1612 H 0.77227 0.91313 0.49918 0.0
H1613 H 0.66997 0.09223 0.52144 0.0
H1614 H 0.76191 0.64303 0.64897 0.0
H1615 H 0.75145 0.67323 0.68535 0.0
H1616 H 0.72308 0.69867 0.59596 0.0
H1617 H 0.73615 0.67088 0.55975 0.0
H1618 H 0.74296 0.73958 0.63351 0.0
H1619 H 0.67836 0.64088 0.65789 0.0
H1620 H 0.6647 0.5927 0.67658 0.0
H1621 H 0.70243 0.62433 0.77505 0.0
H1622 H 0.71669 0.67277 0.75677 0.0
H1623 H 0.61683 0.7311 0.71241 0.0
H1624 H 0.64955 0.72158 0.68015 0.0
H1625 H 0.71156 0.76075 0.76002 0.0
H1626 H 0.67936 0.77122 0.79194 0.0
H1627 H 0.68194 0.69327 0.73435 0.0
H1628 H 0.73949 0.79306 0.7068 0.0
H1629 H 0.74616 0.8381 0.68455 0.0
H1630 H 0.71275 0.79946 0.58695 0.0
H1631 H 0.70547 0.75405 0.60883 0.0
C1632 C 0.75413 0.65573 0.63726 0.0
C1633 C 0.74998 0.65488 0.60169 0.0
C1634 C 0.74778 0.6727 0.65802 0.0
C1635 C 0.73562 0.68776 0.64372 0.0
C1636 C 0.73246 0.68749 0.6079 0.0
C1637 C 0.7399 0.67153 0.58712 0.0
C1638 C 0.72454 0.70245 0.66561 0.0
C1639 C 0.7296 0.72928 0.65551 0.0
C1640 C 0.70733 0.68951 0.69481 0.0
C1641 C 0.69892 0.66045 0.70579 0.0
C1642 C 0.68392 0.63757 0.68344 0.0
C1643 C 0.67607 0.61023 0.69397 0.0
C1644 C 0.68282 0.60548 0.72693 0.0
C1645 C 0.69735 0.62807 0.74948 0.0
C1646 C 0.70533 0.65546 0.73905 0.0
C1647 C 0.63779 0.73854 0.72252 0.0
C1648 C 0.64556 0.75198 0.75463 0.0
C1649 C 0.65641 0.73307 0.70412 0.0
C1650 C 0.68289 0.74052 0.71776 0.0
C1651 C 0.69128 0.75512 0.74898 0.0
C1652 C 0.67291 0.7612 0.76705 0.0
C1653 C 0.69993 0.72965 0.70153 0.0
C1654 C 0.69581 0.70358 0.71271 0.0
C1655 C 0.71719 0.74281 0.6728 0.0
C1656 C 0.72165 0.7701 0.65959 0.0
C1657 C 0.73327 0.79409 0.68073 0.0
C1658 C 0.73724 0.81971 0.66815 0.0
C1659 C 0.72981 0.82162 0.63439 0.0
C1660 C 0.71846 0.79794 0.61311 0.0
C1661 C 0.71444 0.77226 0.62558 0.0
H1662 H 0.73291 0.84148 0.62469 0.0
H1663 H 0.6767 0.5843 0.73505 0.0
H1664 H 0.05795 0.74404 0.71915 0.0
H1665 H 0.01809 0.73264 0.75601 0.0
H1666 H 0.07473 0.78123 0.83802 0.0
H1667 H 0.11503 0.79024 0.8016 0.0
H1668 H 0.03765 0.73938 0.86544 0.0
H1669 H 0.02799 0.80083 0.78961 0.0
H1670 H 0.02663 0.82222 0.73454 0.0
H1671 H 0.95429 0.74446 0.7036 0.0
H1672 H 0.95537 0.72248 0.75831 0.0
H1673 H 0.91144 0.70192 0.95876 0.0
H1674 H 0.95215 0.73392 0.92373 0.0
H1675 H 0.92479 0.67106 0.8441 0.0
H1676 H 0.88437 0.63874 0.8792 0.0
H1677 H 0.94885 0.73082 0.82136 0.0
H1678 H 0.96685 0.67098 0.90033 0.0
H1679 H 0.96946 0.65494 0.95865 0.0
H1680 H 0.0288 0.73999 0.98784 0.0
H1681 H 0.02613 0.7566 0.9299 0.0
C1682 C 0.06194 0.75282 0.74482 0.0
C1683 C 0.08955 0.76843 0.75739 0.0
C1684 C 0.03902 0.74649 0.76594 0.0
C1685 C 0.04304 0.75676 0.79975 0.0
C1686 C 0.07084 0.77311 0.81206 0.0
C1687 C 0.0939 0.7785 0.79123 0.0
C1688 C 0.01815 0.74817 0.8227 0.0
C1689 C 0.01858 0.73832 0.8559 0.0
C1690 C 0.99296 0.74674 0.81086 0.0
C1691 C 0.99184 0.75998 0.77808 0.0
C1692 C 0.01184 0.78825 0.77103 0.0
C1693 C 0.01111 0.80049 0.73987 0.0
C1694 C 0.9904 0.7847 0.71558 0.0
C1695 C 0.9703 0.75667 0.72245 0.0
C1696 C 0.97091 0.74434 0.75359 0.0
C1697 C 0.91359 0.69523 0.93335 0.0
C1698 C 0.89475 0.66775 0.92177 0.0
C1699 C 0.93695 0.71349 0.91348 0.0
C1700 C 0.94156 0.70472 0.88153 0.0
C1701 C 0.92157 0.6782 0.86872 0.0
C1702 C 0.89851 0.65975 0.8888 0.0
C1703 C 0.96855 0.72156 0.863 0.0
C1704 C 0.96835 0.7328 0.83081 0.0
C1705 C -0.0058 0.72528 0.87627 0.0
C1706 C -0.00397 0.71507 0.9109 0.0
C1707 C 0.98026 0.68629 0.91927 0.0
C1708 C 0.98177 0.67709 0.95225 0.0
C1709 C -0.00076 0.69644 0.97695 0.0
C1710 C 0.01525 0.72503 0.96872 0.0
C1711 C 0.01373 0.73434 0.93582 0.0
H1712 H 0.00046 0.68927 0.00241 0.0
H1713 H 0.98992 0.7942 0.69144 0.0
H1714 H 0.32651 0.12034 0.95313 0.0
H1715 H 0.30019 0.08443 0.99745 0.0
H1716 H 0.30592 0.02205 0.93585 0.0
H1717 H 0.33189 0.05739 0.89227 0.0
H1718 H 0.25566 -0.00069 0.96374 0.0
H1719 H 0.35154 0.0557 0.99843 0.0
H1720 H 0.39611 0.09691 0.01673 0.0
H1721 H 0.35436 0.10844 0.10318 0.0
H1722 H 0.3093 0.06759 0.08489 0.0
H1723 H 0.28407 0.91163 0.07319 0.0
H1724 H 0.28936 0.94978 0.03591 0.0
H1725 H 0.23476 0.96411 0.10198 0.0
H1726 H 0.22847 0.92515 0.13909 0.0
H1727 H 0.29974 0.01313 0.07846 0.0
H1728 H 0.20413 0.94539 0.04236 0.0
H1729 H 0.16763 0.89799 0.0236 0.0
H1730 H 0.21836 0.90337 0.93684 0.0
H1731 H 0.25532 0.95065 0.95533 0.0
C1732 C 0.32155 0.0988 0.94896 0.0
C1733 C 0.33126 0.09157 0.91945 0.0
C1734 C 0.30671 0.07838 0.97427 0.0
C1735 C 0.30115 0.05053 0.97 0.0
C1736 C 0.30976 0.04327 0.93971 0.0
C1737 C 0.32476 0.06354 0.91488 0.0
C1738 C 0.28816 0.02899 0.99749 0.0
C1739 C 0.26507 0.00253 0.98901 0.0
C1740 C 0.30046 0.03301 0.03046 0.0
C1741 C 0.32692 0.05895 0.0399 0.0
C1742 C 0.35171 0.0674 0.0209 0.0
C1743 C 0.3771 0.09062 0.03137 0.0
C1744 C 0.37807 0.10533 0.06108 0.0
C1745 C 0.35356 0.09706 0.08013 0.0
C1746 C 0.32806 0.07395 0.06964 0.0
C1747 C 0.27298 0.9227 0.07975 0.0
C1748 C 0.25599 0.91547 0.10926 0.0
C1749 C 0.27597 0.94442 0.05836 0.0
C1750 C 0.26239 0.95959 0.06626 0.0
C1751 C 0.24526 0.95245 0.09548 0.0
C1752 C 0.24171 0.93022 0.11657 0.0
C1753 C 0.26761 0.98375 0.04446 0.0
C1754 C 0.28948 0.0105 0.05384 0.0
C1755 C 0.25497 0.97972 0.01186 0.0
C1756 C 0.23256 0.9515 0.00037 0.0
C1757 C 0.20759 0.93638 0.01942 0.0
C1758 C 0.18679 0.90956 0.00879 0.0
C1759 C 0.19069 0.89766 0.97906 0.0
C1760 C 0.21535 0.91261 0.95984 0.0
C1761 C 0.23621 0.93945 0.97035 0.0
H1762 H 0.17458 0.87688 0.97091 0.0
H1763 H 0.39784 0.12306 0.06944 0.0
H1764 H 0.16352 0.47634 0.40459 0.0
H1765 H 0.17103 0.48636 0.34318 0.0
H1766 H 0.24419 0.47637 0.34703 0.0
H1767 H 0.23744 0.46741 0.4085 0.0
H1768 H 0.25195 0.51461 0.30045 0.0
H1769 H 0.17547 0.41908 0.32843 0.0
H1770 H 0.12979 0.38488 0.35399 0.0
H1771 H 0.08911 0.422 0.29793 0.0
H1772 H 0.13465 0.45638 0.27195 0.0
H1773 H 0.25791 0.43793 0.16342 0.0
H1774 H 0.25241 0.45734 0.21685 0.0
H1775 H 0.18656 0.46804 0.17179 0.0
H1776 H 0.19181 0.44833 0.11761 0.0
H1777 H 0.17165 0.44151 0.23336 0.0
H1778 H 0.24793 0.52597 0.19132 0.0
H1779 H 0.29381 0.55654 0.1637 0.0
H1780 H 0.3358 0.53917 0.24488 0.0
H1781 H 0.29015 0.50812 0.27275 0.0
C1782 C 0.18158 0.47693 0.39247 0.0
C1783 C 0.19964 0.47063 0.41126 0.0
C1784 C 0.1858 0.4826 0.35737 0.0
C1785 C 0.20773 0.48139 0.34034 0.0
C1786 C 0.22705 0.47733 0.35958 0.0
C1787 C 0.22313 0.47213 0.39476 0.0
C1788 C 0.20883 0.48088 0.30235 0.0
C1789 C 0.2344 0.49873 0.28569 0.0
C1790 C 0.18562 0.46084 0.28282 0.0
C1791 C 0.15841 0.44045 0.29868 0.0
C1792 C 0.15678 0.42002 0.32177 0.0
C1793 C 0.13092 0.40059 0.33628 0.0
C1794 C 0.10657 0.40139 0.32777 0.0
C1795 C 0.10801 0.42149 0.30458 0.0
C1796 C 0.13381 0.44091 0.28991 0.0
C1797 C 0.24227 0.44445 0.16461 0.0
C1798 C 0.22519 0.44142 0.13617 0.0
C1799 C 0.23941 0.4559 0.19516 0.0
C1800 C 0.2195 0.46468 0.19805 0.0
C1801 C 0.20231 0.46171 0.16986 0.0
C1802 C 0.20526 0.45034 0.13902 0.0
C1803 C 0.21516 0.47428 0.23179 0.0
C1804 C 0.18896 0.45813 0.2477 0.0
C1805 C 0.23788 0.49573 0.25055 0.0
C1806 C 0.26553 0.51463 0.23411 0.0
C1807 C 0.26692 0.52853 0.20321 0.0
C1808 C 0.2929 0.54596 0.18751 0.0
C1809 C 0.3177 0.54979 0.20252 0.0
C1810 C 0.31657 0.53621 0.2333 0.0
C1811 C 0.29064 0.51873 0.24911 0.0
H1812 H 0.3378 0.56328 0.1903 0.0
H1813 H 0.08657 0.38641 0.339 0.0
H1814 H 0.7256 0.19708 0.56223 0.0
H1815 H 0.73545 0.2179 0.50512 0.0
H1816 H 0.82324 0.2698 0.53135 0.0
H1817 H 0.81339 0.24926 0.58925 0.0
H1818 H 0.80249 0.2966 0.48562 0.0
H1819 H 0.80775 0.21212 0.49316 0.0
H1820 H 0.79181 0.16314 0.51011 0.0
H1821 H 0.71585 0.13457 0.45181 0.0
H1822 H 0.73144 0.18352 0.43446 0.0
H1823 H 0.85377 0.30036 0.31355 0.0
H1824 H 0.84415 0.29948 0.3748 0.0
H1825 H 0.75565 0.24355 0.35595 0.0
H1826 H 0.76495 0.24408 0.29474 0.0
H1827 H 0.77888 0.22151 0.39917 0.0
H1828 H 0.77823 0.30847 0.38705 0.0
H1829 H 0.79741 0.35805 0.36993 0.0
H1830 H 0.86844 0.38295 0.43639 0.0
H1831 H 0.84989 0.33344 0.45355 0.0
C1832 C 0.74693 0.21331 0.5561 0.0
C1833 C 0.76884 0.22123 0.57989 0.0
C1834 C 0.75248 0.22526 0.52354 0.0
C1835 C 0.78012 0.24497 0.51394 0.0
C1836 C 0.80178 0.25456 0.53838 0.0
C1837 C 0.79614 0.24279 0.57132 0.0
C1838 C 0.78652 0.25232 0.47733 0.0
C1839 C 0.79767 0.28034 0.46663 0.0
C1840 C 0.78005 0.23099 0.45273 0.0
C1841 C 0.77064 0.20148 0.46278 0.0
C1842 C 0.78757 0.1954 0.48413 0.0
C1843 C 0.7786 0.16762 0.49378 0.0
C1844 C 0.75272 0.14571 0.48224 0.0
C1845 C 0.73585 0.15154 0.4608 0.0
C1846 C 0.74479 0.1793 0.45095 0.0
C1847 C 0.83214 0.28842 0.32225 0.0
C1848 C 0.81019 0.27186 0.29924 0.0
C1849 C 0.82669 0.28809 0.3573 0.0
C1850 C 0.79922 0.27136 0.36984 0.0
C1851 C 0.77702 0.25653 0.3467 0.0
C1852 C 0.78241 0.25684 0.3117 0.0
C1853 C 0.79422 0.26578 0.40701 0.0
C1854 C 0.78356 0.23791 0.41794 0.0
C1855 C 0.80163 0.28739 0.43157 0.0
C1856 C 0.81279 0.31718 0.42133 0.0
C1857 C 0.79807 0.32447 0.39778 0.0
C1858 C 0.8088 0.35258 0.38812 0.0
C1859 C 0.83416 0.37363 0.402 0.0
C1860 C 0.84881 0.36662 0.42564 0.0
C1861 C 0.83818 0.33854 0.43536 0.0
H1862 H 0.84243 0.39537 0.39449 0.0
H1863 H 0.74577 0.12422 0.4898 0.0
H1864 H 0.52206 0.76937 0.72825 0.0
H1865 H 0.51335 0.77063 0.6673 0.0
H1866 H 0.50089 0.68684 0.65535 0.0
H1867 H 0.51073 0.68591 0.71633 0.0
H1868 H 0.53648 0.71881 0.61102 0.0
H1869 H 0.4462 0.70216 0.64141 0.0
H1870 H 0.41019 0.70727 0.67331 0.0
H1871 H 0.44673 0.79292 0.63899 0.0
H1872 H 0.48322 0.78849 0.60726 0.0
H1873 H 0.52754 0.74168 0.43235 0.0
H1874 H 0.51175 0.72025 0.48893 0.0
H1875 H 0.53223 0.8011 0.53095 0.0
H1876 H 0.54755 0.82263 0.47461 0.0
H1877 H 0.48275 0.75898 0.55635 0.0
H1878 H 0.57795 0.77493 0.53457 0.0
H1879 H 0.61274 0.7674 0.50319 0.0
H1880 H 0.56312 0.67836 0.52141 0.0
H1881 H 0.52782 0.68532 0.55244 0.0
C1882 C 0.51678 0.75091 0.71286 0.0
C1883 C 0.51731 0.72763 0.72703 0.0
C1884 C 0.51162 0.75158 0.67795 0.0
C1885 C 0.50622 0.72872 0.65667 0.0
C1886 C 0.50506 0.70474 0.67123 0.0
C1887 C 0.51067 0.70424 0.70607 0.0
C1888 C 0.50548 0.73151 0.61889 0.0
C1889 C 0.52411 0.72686 0.59897 0.0
C1890 C 0.4895 0.74217 0.60306 0.0
C1891 C 0.46755 0.745 0.62204 0.0
C1892 C 0.44668 0.72215 0.64083 0.0
C1893 C 0.42616 0.72492 0.65886 0.0
C1894 C 0.42619 0.75041 0.6582 0.0
C1895 C 0.44672 0.77318 0.63945 0.0
C1896 C 0.4673 0.77053 0.62138 0.0
C1897 C 0.52848 0.75489 0.45356 0.0
C1898 C 0.53907 0.78396 0.44897 0.0
C1899 C 0.51946 0.74257 0.48586 0.0
C1900 C 0.52111 0.75916 0.51414 0.0
C1901 C 0.53074 0.78793 0.50941 0.0
C1902 C 0.53964 0.80023 0.47718 0.0
C1903 C 0.51445 0.74725 0.54918 0.0
C1904 C 0.49446 0.7502 0.56845 0.0
C1905 C 0.52886 0.73463 0.56434 0.0
C1906 C 0.55008 0.7306 0.54545 0.0
C1907 C 0.57434 0.75372 0.53161 0.0
C1908 C 0.59416 0.74956 0.51393 0.0
C1909 C 0.59009 0.72241 0.51027 0.0
C1910 C 0.5662 0.69936 0.52423 0.0
C1911 C 0.54629 0.7034 0.54183 0.0
H1912 H 0.60549 0.71918 0.49677 0.0
H1913 H 0.41028 0.75251 0.67218 0.0
H1914 H 0.82679 0.53177 0.88831 0.0
H1915 H 0.81326 0.51638 0.82918 0.0
H1916 H 0.73825 0.52232 0.84191 0.0
H1917 H 0.75134 0.53728 0.90135 0.0
H1918 H 0.72883 0.47797 0.80069 0.0
H1919 H 0.798 0.57706 0.8125 0.0
H1920 H 0.84345 0.61785 0.82966 0.0
H1921 H 0.88742 0.58796 0.76689 0.0
H1922 H 0.84223 0.54664 0.74995 0.0
H1923 H 0.70471 0.52721 0.64477 0.0
H1924 H 0.71218 0.51442 0.702 0.0
H1925 H 0.78395 0.50973 0.66533 0.0
H1926 H 0.77691 0.52284 0.60798 0.0
H1927 H 0.79739 0.54575 0.71695 0.0
H1928 H 0.72684 0.45106 0.69677 0.0
H1929 H 0.68089 0.41195 0.67802 0.0
H1930 H 0.639 0.43473 0.75382 0.0
H1931 H 0.68467 0.47426 0.77272 0.0
C1932 C 0.80719 0.52942 0.87872 0.0
C1933 C 0.79037 0.53627 0.89929 0.0
C1934 C 0.79947 0.52053 0.84497 0.0
C1935 C 0.77505 0.51872 0.83111 0.0
C1936 C 0.75723 0.52365 0.85221 0.0
C1937 C 0.7648 0.53233 0.8861 0.0
C1938 C 0.76966 0.51485 0.79387 0.0
C1939 C 0.74374 0.49274 0.78226 0.0
C1940 C 0.78954 0.53377 0.76992 0.0
C1941 C 0.81675 0.55848 0.78044 0.0
C1942 C 0.81737 0.57899 0.80271 0.0
C1943 C 0.84309 0.60223 0.81236 0.0
C1944 C 0.86832 0.60542 0.79954 0.0
C1945 C 0.86787 0.58539 0.77696 0.0
C1946 C 0.84222 0.56203 0.76737 0.0
C1947 C 0.72174 0.52288 0.64862 0.0
C1948 C 0.74046 0.52648 0.62188 0.0
C1949 C 0.72581 0.51529 0.68134 0.0
C1950 C 0.74854 0.511 0.68783 0.0
C1951 C 0.76623 0.51286 0.66075 0.0
C1952 C 0.76217 0.52043 0.62801 0.0
C1953 C 0.75632 0.50915 0.72359 0.0
C1954 C 0.78272 0.53038 0.73507 0.0
C1955 C 0.73682 0.48956 0.74727 0.0
C1956 C 0.70923 0.46576 0.73605 0.0
C1957 C 0.70783 0.44788 0.70929 0.0
C1958 C 0.68182 0.4256 0.69866 0.0
C1959 C 0.65704 0.42088 0.71469 0.0
C1960 C 0.65822 0.43841 0.74143 0.0
C1961 C 0.68418 0.46073 0.75216 0.0
H1962 H 0.63692 0.40361 0.70642 0.0
H1963 H 0.8882 0.62346 0.80699 0.0
H1964 H 0.2072 0.74305 0.7989 0.0
H1965 H 0.23158 0.75778 0.85388 0.0
H1966 H 0.26667 0.84497 0.82491 0.0
H1967 H 0.24268 0.83025 0.76916 0.0
H1968 H 0.28865 0.7949 0.87805 0.0
H1969 H 0.2498 0.87235 0.8965 0.0
H1970 H 0.21497 0.88377 0.87263 0.0
H1971 H 0.15979 0.79656 0.84818 0.0
H1972 H 0.19412 0.78464 0.87223 0.0
H1973 H 0.30928 0.84665 0.05647 0.0
H1974 H 0.3111 0.84608 0.99365 0.0
H1975 H 0.22449 0.7791 0.99101 0.0
H1976 H 0.22243 0.77917 0.05345 0.0
H1977 H 0.23872 0.83003 0.95135 0.0
H1978 H 0.26855 0.76121 0.97399 0.0
H1979 H 0.30036 0.74623 -0.00131 0.0
H1980 H 0.36985 0.81141 0.94255 0.0
H1981 H 0.33848 0.82701 0.91788 0.0
C1982 C 0.22062 0.76535 0.80398 0.0
C1983 C 0.22286 0.78558 0.78021 0.0
C1984 C 0.23477 0.77372 0.83514 0.0
C1985 C 0.25083 0.8024 0.84326 0.0
C1986 C 0.25446 0.82273 0.81882 0.0
C1987 C 0.24071 0.81433 0.7872 0.0
C1988 C 0.25938 0.81027 0.87915 0.0
C1989 C 0.2783 0.80321 0.89405 0.0
C1990 C 0.24558 0.82083 0.89985 0.0
C1991 C 0.22468 0.82771 0.88567 0.0
C1992 C 0.23022 0.85565 0.88603 0.0
C1993 C 0.21056 0.86219 0.87253 0.0
C1994 C 0.18522 0.84091 0.85884 0.0
C1995 C 0.17946 0.81303 0.85868 0.0
C1996 C 0.19902 0.80638 0.8722 0.0
C1997 C 0.29076 0.83149 0.04252 0.0
C1998 C 0.26563 0.81306 0.0599 0.0
C1999 C 0.29188 0.83125 0.00674 0.0
C2000 C 0.26785 0.81276 0.98803 0.0
C2001 C 0.24316 0.79363 0.00526 0.0
C2002 C 0.2421 0.79359 0.04092 0.0
C2003 C 0.26754 0.81409 0.95039 0.0
C2004 C 0.25006 0.82288 0.93524 0.0
C2005 C 0.28248 0.8049 0.92964 0.0
C2006 C 0.30128 0.79553 0.9445 0.0
C2007 C 0.29067 0.77254 0.96722 0.0
C2008 C 0.3086 0.76389 0.98113 0.0
C2009 C 0.33713 0.77793 0.9723 0.0
C2010 C 0.34777 0.8006 0.94944 0.0
C2011 C 0.32992 0.80935 0.93548 0.0
H2012 H 0.35098 0.77119 0.98309 0.0
H2013 H 0.17001 0.84597 0.84843 0.0
H2014 H 0.4253 0.13839 0.95988 0.0
H2015 H 0.43119 0.14862 0.02115 0.0
H2016 H 0.49293 0.23509 3e-05 0.0
H2017 H 0.48694 0.22533 0.9383 0.0
H2018 H 0.50344 0.20951 0.06149 0.0
H2019 H 0.43512 0.22487 0.00656 0.0
H2020 H 0.39438 0.21337 0.9698 0.0
H2021 H 0.34018 0.14756 0.03915 0.0
H2022 H 0.38077 0.15858 0.07629 0.0
H2023 H 0.46241 0.26936 0.20754 0.0
H2024 H 0.47133 0.25961 0.14901 0.0
H2025 H 0.43936 0.17252 0.17568 0.0
H2026 H 0.43106 0.18224 0.23478 0.0
H2027 H 0.41609 0.20067 0.11153 0.0
H2028 H 0.49007 0.1842 0.16103 0.0
H2029 H 0.53262 0.19977 0.19642 0.0
H2030 H 0.57644 0.27538 0.13646 0.0
H2031 H 0.53394 0.26038 0.10105 0.0
C2032 C 0.44079 0.15943 0.9681 0.0
C2033 C 0.45542 0.18115 0.9441 0.0
C2034 C 0.44398 0.16521 0.00319 0.0
C2035 C 0.46208 0.19264 0.01494 0.0
C2036 C 0.47877 0.21379 0.99134 0.0
C2037 C 0.47526 0.20817 0.95611 0.0
C2038 C 0.46087 0.19971 0.05128 0.0
C2039 C 0.48436 0.20761 0.0724 0.0
C2040 C 0.43604 0.19766 0.0653 0.0
C2041 C 0.41132 0.19171 0.04354 0.0
C2042 C 0.41468 0.2075 0.01364 0.0
C2043 C 0.39153 0.20122 0.9928 0.0
C2044 C 0.36473 0.17948 0.00182 0.0
C2045 C 0.36099 0.16421 0.03196 0.0
C2046 C 0.3841 0.17046 0.05291 0.0
C2047 C 0.45779 0.24823 0.20114 0.0
C2048 C 0.44604 0.22653 0.22571 0.0
C2049 C 0.46295 0.24275 0.16776 0.0
C2050 C 0.45614 0.21544 0.15825 0.0
C2051 C 0.44505 0.19382 0.18281 0.0
C2052 C 0.4404 0.19941 0.21649 0.0
C2053 C 0.45815 0.20917 0.12186 0.0
C2054 C 0.43493 0.20202 0.1006 0.0
C2055 C 0.48328 0.21244 0.1076 0.0
C2056 C 0.50876 0.22136 0.12876 0.0
C2057 C 0.50867 0.20429 0.15569 0.0
C2058 C 0.5328 0.21297 0.17567 0.0
C2059 C 0.55719 0.2386 0.16878 0.0
C2060 C 0.55752 0.25556 0.14182 0.0
C2061 C 0.53343 0.24698 0.12179 0.0
H2062 H 0.57585 0.24528 0.18426 0.0
H2063 H 0.34683 0.17469 0.98567 0.0
loop_
_geom_bond_atom_site_label_1
_geom_bond_atom_site_label_2
_geom_bond_distance
_geom_bond_site_symmetry_2
_ccdc_geom_bond_type
Sc0 O3 2.025 . S
Sc0 O10 2.105 1_554 S
Sc0 O13 2.105 . S
Sc0 O16 2.105 . S
Sc0 O19 2.105 1_554 S
Sc1 O3 2.025 1_556 S
Sc1 O11 2.105 . S
Sc1 O15 2.105 1_556 S
Sc1 O17 2.105 1_556 S
Sc1 O21 2.105 . S
Sc2 O3 2.025 . S
Sc2 O12 2.105 1_554 S
Sc2 O14 2.105 . S
Sc2 O18 2.105 . S
Sc2 O20 2.105 . S
O3 Sc0 2.025 . S
O3 Sc1 2.025 1_554 S
O3 Sc2 2.025 . S
C4 O10 1.268 . S
C4 O20 1.268 1_556 S
C5 O11 1.268 . S
C5 O19 1.268 . S
C6 O12 1.268 . S
C6 O21 1.268 . S
C7 O13 1.268 . S
C7 O17 1.268 . S
C8 O14 1.268 . S
C8 O16 1.268 . S
C9 O15 1.268 . S
C9 O18 1.268 . S
O10 Sc0 2.105 1_556 S
O10 C4 1.268 . S
O11 Sc1 2.105 . S
O11 C5 1.268 . S
O12 Sc2 2.105 1_556 S
O12 C6 1.268 . S
O13 Sc0 2.105 . S
O13 C7 1.268 . S
O14 Sc2 2.105 . S
O14 C8 1.268 . S
O15 Sc1 2.105 1_554 S
O15 C9 1.268 . S
O16 Sc0 2.105 . S
O16 C8 1.268 . S
O17 Sc1 2.105 1_554 S
O17 C7 1.268 . S
O18 Sc2 2.105 . S
O18 C9 1.268 . S
O19 Sc0 2.105 1_556 S
O19 C5 1.268 . S
O20 Sc2 2.105 . S
O20 C4 1.268 1_554 S
O21 Sc1 2.105 . S
O21 C6 1.268 . S
Sc22 O25 2.025 . S
Sc22 O32 2.105 . S
Sc22 O35 2.105 . S
Sc22 O38 2.105 . S
Sc22 O41 2.105 . S
Sc23 O25 2.025 . S
Sc23 O33 2.105 . S
Sc23 O37 2.105 . S
Sc23 O39 2.105 . S
Sc23 O43 2.105 . S
Sc24 O25 2.025 . S
Sc24 O34 2.105 . S
Sc24 O36 2.105 . S
Sc24 O40 2.105 . S
Sc24 O42 2.105 . S
O25 Sc22 2.025 . S
O25 Sc23 2.025 . S
O25 Sc24 2.025 . S
C26 O32 1.268 . S
C26 O42 1.268 . S
C27 O33 1.268 . S
C27 O41 1.268 . S
C28 O34 1.268 . S
C28 O43 1.268 . S
C29 O35 1.268 . S
C29 O39 1.268 . S
C30 O36 1.268 . S
C30 O38 1.268 . S
C31 O37 1.268 . S
C31 O40 1.268 . S
O32 Sc22 2.105 . S
O32 C26 1.268 . S
O33 Sc23 2.105 . S
O33 C27 1.268 . S
O34 Sc24 2.105 . S
O34 C28 1.268 . S
O35 Sc22 2.105 . S
O35 C29 1.268 . S
O36 Sc24 2.105 . S
O36 C30 1.268 . S
O37 Sc23 2.105 . S
O37 C31 1.268 . S
O38 Sc22 2.105 . S
O38 C30 1.268 . S
O39 Sc23 2.105 . S
O39 C29 1.268 . S
O40 Sc24 2.105 . S
O40 C31 1.268 . S
O41 Sc22 2.105 . S
O41 C27 1.268 . S
O42 Sc24 2.105 . S
O42 C26 1.268 . S
O43 Sc23 2.105 . S
O43 C28 1.268 . S
Sc44 O47 2.025 . S
Sc44 O54 2.105 . S
Sc44 O57 2.105 . S
Sc44 O60 2.105 . S
Sc44 O63 2.105 . S
Sc45 O47 2.025 . S
Sc45 O55 2.105 . S
Sc45 O59 2.105 . S
Sc45 O61 2.105 . S
Sc45 O65 2.105 . S
Sc46 O47 2.025 . S
Sc46 O56 2.105 . S
Sc46 O58 2.105 . S
Sc46 O62 2.105 . S
Sc46 O64 2.105 . S
O47 Sc44 2.025 . S
O47 Sc45 2.025 . S
O47 Sc46 2.025 . S
C48 O54 1.268 . S
C48 O64 1.268 . S
C49 O55 1.268 . S
C49 O63 1.268 . S
C50 O56 1.268 . S
C50 O65 1.268 . S
C51 O57 1.268 . S
C51 O61 1.268 . S
C52 O58 1.268 . S
C52 O60 1.268 . S
C53 O59 1.268 . S
C53 O62 1.268 . S
O54 Sc44 2.105 . S
O54 C48 1.268 . S
O55 Sc45 2.105 . S
O55 C49 1.268 . S
O56 Sc46 2.105 . S
O56 C50 1.268 . S
O57 Sc44 2.105 . S
O57 C51 1.268 . S
O58 Sc46 2.105 . S
O58 C52 1.268 . S
O59 Sc45 2.105 . S
O59 C53 1.268 . S
O60 Sc44 2.105 . S
O60 C52 1.268 . S
O61 Sc45 2.105 . S
O61 C51 1.268 . S
O62 Sc46 2.105 . S
O62 C53 1.268 . S
O63 Sc44 2.105 . S
O63 C49 1.268 . S
O64 Sc46 2.105 . S
O64 C48 1.268 . S
O65 Sc45 2.105 . S
O65 C50 1.268 . S
Sc66 O69 2.025 . S
Sc66 O76 2.105 . S
Sc66 O79 2.105 . S
Sc66 O82 2.105 . S
Sc66 O85 2.105 . S
Sc67 O69 2.025 . S
Sc67 O77 2.105 . S
Sc67 O81 2.105 . S
Sc67 O83 2.105 . S
Sc67 O87 2.105 . S
Sc68 O69 2.025 . S
Sc68 O78 2.105 . S
Sc68 O80 2.105 . S
Sc68 O84 2.105 . S
Sc68 O86 2.105 . S
O69 Sc66 2.025 . S
O69 Sc67 2.025 . S
O69 Sc68 2.025 . S
C70 O76 1.268 . S
C70 O86 1.268 . S
C71 O77 1.268 . S
C71 O85 1.268 . S
C72 O78 1.268 . S
C72 O87 1.268 . S
C73 O79 1.268 . S
C73 O83 1.268 . S
C74 O80 1.268 . S
C74 O82 1.268 . S
C75 O81 1.268 . S
C75 O84 1.268 . S
O76 Sc66 2.105 . S
O76 C70 1.268 . S
O77 Sc67 2.105 . S
O77 C71 1.268 . S
O78 Sc68 2.105 . S
O78 C72 1.268 . S
O79 Sc66 2.105 . S
O79 C73 1.268 . S
O80 Sc68 2.105 . S
O80 C74 1.268 . S
O81 Sc67 2.105 . S
O81 C75 1.268 . S
O82 Sc66 2.105 . S
O82 C74 1.268 . S
O83 Sc67 2.105 . S
O83 C73 1.268 . S
O84 Sc68 2.105 . S
O84 C75 1.268 . S
O85 Sc66 2.105 . S
O85 C71 1.268 . S
O86 Sc68 2.105 . S
O86 C70 1.268 . S
O87 Sc67 2.105 . S
O87 C72 1.268 . S
Sc88 O91 2.025 . S
Sc88 O98 2.105 . S
Sc88 O101 2.105 . S
Sc88 O104 2.105 . S
Sc88 O107 2.105 . S
Sc89 O91 2.025 . S
Sc89 O99 2.105 . S
Sc89 O103 2.105 . S
Sc89 O105 2.105 . S
Sc89 O109 2.105 . S
Sc90 O91 2.025 . S
Sc90 O100 2.105 . S
Sc90 O102 2.105 . S
Sc90 O106 2.105 . S
Sc90 O108 2.105 . S
O91 Sc88 2.025 . S
O91 Sc89 2.025 . S
O91 Sc90 2.025 . S
C92 O98 1.268 . S
C92 O108 1.268 . S
C93 O99 1.268 . S
C93 O107 1.268 . S
C94 O100 1.268 . S
C94 O109 1.268 . S
C95 O101 1.268 . S
C95 O105 1.268 . S
C96 O102 1.268 . S
C96 O104 1.268 . S
C97 O103 1.268 . S
C97 O106 1.268 . S
O98 Sc88 2.105 . S
O98 C92 1.268 . S
O99 Sc89 2.105 . S
O99 C93 1.268 . S
O100 Sc90 2.105 . S
O100 C94 1.268 . S
O101 Sc88 2.105 . S
O101 C95 1.268 . S
O102 Sc90 2.105 . S
O102 C96 1.268 . S
O103 Sc89 2.105 . S
O103 C97 1.268 . S
O104 Sc88 2.105 . S
O104 C96 1.268 . S
O105 Sc89 2.105 . S
O105 C95 1.268 . S
O106 Sc90 2.105 . S
O106 C97 1.268 . S
O107 Sc88 2.105 . S
O107 C93 1.268 . S
O108 Sc90 2.105 . S
O108 C92 1.268 . S
O109 Sc89 2.105 . S
O109 C94 1.268 . S
Sc110 O113 2.025 . S
Sc110 O120 2.105 . S
Sc110 O123 2.105 . S
Sc110 O126 2.105 . S
Sc110 O129 2.105 . S
Sc111 O113 2.025 . S
Sc111 O121 2.105 . S
Sc111 O125 2.105 . S
Sc111 O127 2.105 . S
Sc111 O131 2.105 . S
Sc112 O113 2.025 . S
Sc112 O122 2.105 . S
Sc112 O124 2.105 . S
Sc112 O128 2.105 . S
Sc112 O130 2.105 . S
O113 Sc110 2.025 . S
O113 Sc111 2.025 . S
O113 Sc112 2.025 . S
C114 O120 1.268 . S
C114 O130 1.268 . S
C115 O121 1.268 . S
C115 O129 1.268 . S
C116 O122 1.268 . S
C116 O131 1.268 . S
C117 O123 1.268 . S
C117 O127 1.268 . S
C118 O124 1.268 . S
C118 O126 1.268 . S
C119 O125 1.268 . S
C119 O128 1.268 . S
O120 Sc110 2.105 . S
O120 C114 1.268 . S
O121 Sc111 2.105 . S
O121 C115 1.268 . S
O122 Sc112 2.105 . S
O122 C116 1.268 . S
O123 Sc110 2.105 . S
O123 C117 1.268 . S
O124 Sc112 2.105 . S
O124 C118 1.268 . S
O125 Sc111 2.105 . S
O125 C119 1.268 . S
O126 Sc110 2.105 . S
O126 C118 1.268 . S
O127 Sc111 2.105 . S
O127 C117 1.268 . S
O128 Sc112 2.105 . S
O128 C119 1.268 . S
O129 Sc110 2.105 . S
O129 C115 1.268 . S
O130 Sc112 2.105 . S
O130 C114 1.268 . S
O131 Sc111 2.105 . S
O131 C116 1.268 . S
Sc132 O135 2.025 . S
Sc132 O142 2.105 . S
Sc132 O145 2.105 . S
Sc132 O148 2.105 . S
Sc132 O151 2.105 . S
Sc133 O135 2.025 . S
Sc133 O143 2.105 . S
Sc133 O147 2.105 . S
Sc133 O149 2.105 . S
Sc133 O153 2.105 . S
Sc134 O135 2.025 . S
Sc134 O144 2.105 . S
Sc134 O146 2.105 . S
Sc134 O150 2.105 . S
Sc134 O152 2.105 . S
O135 Sc132 2.025 . S
O135 Sc133 2.025 . S
O135 Sc134 2.025 . S
C136 O142 1.268 . S
C136 O152 1.268 . S
C137 O143 1.268 . S
C137 O151 1.268 . S
C138 O144 1.268 . S
C138 O153 1.268 . S
C139 O145 1.268 . S
C139 O149 1.268 . S
C140 O146 1.268 . S
C140 O148 1.268 . S
C141 O147 1.268 . S
C141 O150 1.268 . S
O142 Sc132 2.105 . S
O142 C136 1.268 . S
O143 Sc133 2.105 . S
O143 C137 1.268 . S
O144 Sc134 2.105 . S
O144 C138 1.268 . S
O145 Sc132 2.105 . S
O145 C139 1.268 . S
O146 Sc134 2.105 . S
O146 C140 1.268 . S
O147 Sc133 2.105 . S
O147 C141 1.268 . S
O148 Sc132 2.105 . S
O148 C140 1.268 . S
O149 Sc133 2.105 . S
O149 C139 1.268 . S
O150 Sc134 2.105 . S
O150 C141 1.268 . S
O151 Sc132 2.105 . S
O151 C137 1.268 . S
O152 Sc134 2.105 . S
O152 C136 1.268 . S
O153 Sc133 2.105 . S
O153 C138 1.268 . S
Sc154 O157 2.025 . S
Sc154 O164 2.105 . S
Sc154 O167 2.105 . S
Sc154 O170 2.105 1_554 S
Sc154 O173 2.105 . S
Sc155 O157 2.025 . S
Sc155 O165 2.105 . S
Sc155 O169 2.105 1_554 S
Sc155 O171 2.105 . S
Sc155 O175 2.105 . S
Sc156 O157 2.025 1_556 S
Sc156 O166 2.105 1_556 S
Sc156 O168 2.105 . S
Sc156 O172 2.105 . S
Sc156 O174 2.105 1_556 S
O157 Sc154 2.025 . S
O157 Sc155 2.025 . S
O157 Sc156 2.025 1_554 S
C158 O164 1.268 . S
C158 O174 1.268 . S
C159 O165 1.268 . S
C159 O173 1.268 . S
C160 O166 1.268 . S
C160 O175 1.268 . S
C161 O167 1.268 . S
C161 O171 1.268 . S
C162 O168 1.268 . S
C162 O170 1.268 . S
C163 O169 1.268 . S
C163 O172 1.268 . S
O164 Sc154 2.105 . S
O164 C158 1.268 . S
O165 Sc155 2.105 . S
O165 C159 1.268 . S
O166 Sc156 2.105 1_554 S
O166 C160 1.268 . S
O167 Sc154 2.105 . S
O167 C161 1.268 . S
O168 Sc156 2.105 . S
O168 C162 1.268 . S
O169 Sc155 2.105 1_556 S
O169 C163 1.268 . S
O170 Sc154 2.105 1_556 S
O170 C162 1.268 . S
O171 Sc155 2.105 . S
O171 C161 1.268 . S
O172 Sc156 2.105 . S
O172 C163 1.268 . S
O173 Sc154 2.105 . S
O173 C159 1.268 . S
O174 Sc156 2.105 1_554 S
O174 C158 1.268 . S
O175 Sc155 2.105 . S
O175 C160 1.268 . S
Sc176 O179 2.025 . S
Sc176 O186 2.105 . S
Sc176 O189 2.105 . S
Sc176 O192 2.105 . S
Sc176 O195 2.105 . S
Sc177 O179 2.025 . S
Sc177 O187 2.105 . S
Sc177 O191 2.105 . S
Sc177 O193 2.105 . S
Sc177 O197 2.105 . S
Sc178 O179 2.025 . S
Sc178 O188 2.105 . S
Sc178 O190 2.105 . S
Sc178 O194 2.105 . S
Sc178 O196 2.105 . S
O179 Sc176 2.025 . S
O179 Sc177 2.025 . S
O179 Sc178 2.025 . S
C180 O186 1.268 . S
C180 O196 1.268 . S
C181 O187 1.268 . S
C181 O195 1.268 . S
C182 O188 1.268 . S
C182 O197 1.268 . S
C183 O189 1.268 . S
C183 O193 1.268 . S
C184 O190 1.268 . S
C184 O192 1.268 . S
C185 O191 1.268 . S
C185 O194 1.268 . S
O186 Sc176 2.105 . S
O186 C180 1.268 . S
O187 Sc177 2.105 . S
O187 C181 1.268 . S
O188 Sc178 2.105 . S
O188 C182 1.268 . S
O189 Sc176 2.105 . S
O189 C183 1.268 . S
O190 Sc178 2.105 . S
O190 C184 1.268 . S
O191 Sc177 2.105 . S
O191 C185 1.268 . S
O192 Sc176 2.105 . S
O192 C184 1.268 . S
O193 Sc177 2.105 . S
O193 C183 1.268 . S
O194 Sc178 2.105 . S
O194 C185 1.268 . S
O195 Sc176 2.105 . S
O195 C181 1.268 . S
O196 Sc178 2.105 . S
O196 C180 1.268 . S
O197 Sc177 2.105 . S
O197 C182 1.268 . S
Sc198 O201 2.025 . S
Sc198 O208 2.105 . S
Sc198 O211 2.105 . S
Sc198 O214 2.105 . S
Sc198 O217 2.105 . S
Sc199 O201 2.025 . S
Sc199 O209 2.105 . S
Sc199 O213 2.105 . S
Sc199 O215 2.105 . S
Sc199 O219 2.105 . S
Sc200 O201 2.025 . S
Sc200 O210 2.105 . S
Sc200 O212 2.105 . S
Sc200 O216 2.105 . S
Sc200 O218 2.105 . S
O201 Sc198 2.025 . S
O201 Sc199 2.025 . S
O201 Sc200 2.025 . S
C202 O208 1.268 . S
C202 O218 1.268 . S
C203 O209 1.268 . S
C203 O217 1.268 . S
C204 O210 1.268 . S
C204 O219 1.268 . S
C205 O211 1.268 . S
C205 O215 1.268 . S
C206 O212 1.268 . S
C206 O214 1.268 . S
C207 O213 1.268 . S
C207 O216 1.268 . S
O208 Sc198 2.105 . S
O208 C202 1.268 . S
O209 Sc199 2.105 . S
O209 C203 1.268 . S
O210 Sc200 2.105 . S
O210 C204 1.268 . S
O211 Sc198 2.105 . S
O211 C205 1.268 . S
O212 Sc200 2.105 . S
O212 C206 1.268 . S
O213 Sc199 2.105 . S
O213 C207 1.268 . S
O214 Sc198 2.105 . S
O214 C206 1.268 . S
O215 Sc199 2.105 . S
O215 C205 1.268 . S
O216 Sc200 2.105 . S
O216 C207 1.268 . S
O217 Sc198 2.105 . S
O217 C203 1.268 . S
O218 Sc200 2.105 . S
O218 C202 1.268 . S
O219 Sc199 2.105 . S
O219 C204 1.268 . S
Sc220 O223 2.025 . S
Sc220 O230 2.105 . S
Sc220 O233 2.105 . S
Sc220 O236 2.105 . S
Sc220 O239 2.105 . S
Sc221 O223 2.025 . S
Sc221 O231 2.105 . S
Sc221 O235 2.105 . S
Sc221 O237 2.105 . S
Sc221 O241 2.105 . S
Sc222 O223 2.025 . S
Sc222 O232 2.105 . S
Sc222 O234 2.105 . S
Sc222 O238 2.105 . S
Sc222 O240 2.105 . S
O223 Sc220 2.025 . S
O223 Sc221 2.025 . S
O223 Sc222 2.025 . S
C224 O230 1.268 . S
C224 O240 1.268 . S
C225 O231 1.268 . S
C225 O239 1.268 . S
C226 O232 1.268 . S
C226 O241 1.268 . S
C227 O233 1.268 . S
C227 O237 1.268 . S
C228 O234 1.268 . S
C228 O236 1.268 . S
C229 O235 1.268 . S
C229 O238 1.268 . S
O230 Sc220 2.105 . S
O230 C224 1.268 . S
O231 Sc221 2.105 . S
O231 C225 1.268 . S
O232 Sc222 2.105 . S
O232 C226 1.268 . S
O233 Sc220 2.105 . S
O233 C227 1.268 . S
O234 Sc222 2.105 . S
O234 C228 1.268 . S
O235 Sc221 2.105 . S
O235 C229 1.268 . S
O236 Sc220 2.105 . S
O236 C228 1.268 . S
O237 Sc221 2.105 . S
O237 C227 1.268 . S
O238 Sc222 2.105 . S
O238 C229 1.268 . S
O239 Sc220 2.105 . S
O239 C225 1.268 . S
O240 Sc222 2.105 . S
O240 C224 1.268 . S
O241 Sc221 2.105 . S
O241 C226 1.268 . S
Sc242 O245 2.025 . S
Sc242 O252 2.105 . S
Sc242 O255 2.105 . S
Sc242 O258 2.105 . S
Sc242 O261 2.105 . S
Sc243 O245 2.025 . S
Sc243 O253 2.105 . S
Sc243 O257 2.105 . S
Sc243 O259 2.105 . S
Sc243 O263 2.105 . S
Sc244 O245 2.025 . S
Sc244 O254 2.105 . S
Sc244 O256 2.105 . S
Sc244 O260 2.105 . S
Sc244 O262 2.105 . S
O245 Sc242 2.025 . S
O245 Sc243 2.025 . S
O245 Sc244 2.025 . S
C246 O252 1.268 . S
C246 O262 1.268 . S
C247 O253 1.268 . S
C247 O261 1.268 . S
C248 O254 1.268 . S
C248 O263 1.268 . S
C249 O255 1.268 . S
C249 O259 1.268 . S
C250 O256 1.268 . S
C250 O258 1.268 . S
C251 O257 1.268 . S
C251 O260 1.268 . S
O252 Sc242 2.105 . S
O252 C246 1.268 . S
O253 Sc243 2.105 . S
O253 C247 1.268 . S
O254 Sc244 2.105 . S
O254 C248 1.268 . S
O255 Sc242 2.105 . S
O255 C249 1.268 . S
O256 Sc244 2.105 . S
O256 C250 1.268 . S
O257 Sc243 2.105 . S
O257 C251 1.268 . S
O258 Sc242 2.105 . S
O258 C250 1.268 . S
O259 Sc243 2.105 . S
O259 C249 1.268 . S
O260 Sc244 2.105 . S
O260 C251 1.268 . S
O261 Sc242 2.105 . S
O261 C247 1.268 . S
O262 Sc244 2.105 . S
O262 C246 1.268 . S
O263 Sc243 2.105 . S
O263 C248 1.268 . S
H264 C282 0.951 . S
H265 C284 0.951 . S
H266 C286 0.950 . S
H267 C287 0.950 . S
H268 C289 0.950 . S
H269 C292 0.950 . S
H270 C293 0.950 . S
H271 C295 0.950 . S
H272 C296 0.950 . S
H273 C297 0.951 . S
H274 C299 0.951 . S
H275 C301 0.950 . S
H276 C302 0.950 . S
H277 C304 0.950 . S
H278 C307 0.950 . S
H279 C308 0.950 . S
H280 C310 0.950 . S
H281 C311 0.950 . S
C282 H264 0.951 . S
C282 C283 1.366 . S
C282 C284 1.388 . S
C283 C282 1.366 . S
C283 C287 1.385 . S
C284 H265 0.951 . S
C284 C282 1.388 . S
C284 C285 1.366 . S
C285 C284 1.366 . S
C285 C286 1.414 . S
C285 C288 1.499 . S
C286 H266 0.950 . S
C286 C285 1.414 . S
C286 C287 1.374 . S
C287 H267 0.950 . S
C287 C283 1.385 . S
C287 C286 1.374 . S
C288 C285 1.499 . S
C288 C289 1.373 . S
C288 C290 1.389 . S
C289 H268 0.950 . S
C289 C288 1.373 . S
C289 C305 1.377 . S
C290 C288 1.389 . S
C290 C291 1.524 . S
C290 C304 1.377 . S
C291 C290 1.524 . S
C291 C292 1.397 . S
C291 C296 1.363 . S
C292 H269 0.950 . S
C292 C291 1.397 . S
C292 C293 1.334 . S
C293 H270 0.950 . S
C293 C292 1.334 . S
C293 C294 1.287 . S
C294 C293 1.287 . S
C294 C295 1.524 . S
C294 H313 0.913 . S
C295 H271 0.950 . S
C295 C294 1.524 . S
C295 C296 1.415 . S
C296 H272 0.950 . S
C296 C291 1.363 . S
C296 C295 1.415 . S
C297 H273 0.951 . S
C297 C298 1.366 . S
C297 C299 1.388 . S
C298 C297 1.366 . S
C298 C302 1.385 . S
C299 H274 0.951 . S
C299 C297 1.388 . S
C299 C300 1.366 . S
C300 C299 1.366 . S
C300 C301 1.414 . S
C300 C303 1.499 . S
C301 H275 0.950 . S
C301 C300 1.414 . S
C301 C302 1.374 . S
C302 H276 0.950 . S
C302 C298 1.385 . S
C302 C301 1.374 . S
C303 C300 1.499 . S
C303 C304 1.373 . S
C303 C305 1.389 . S
C304 H277 0.950 . S
C304 C290 1.377 . S
C304 C303 1.373 . S
C305 C289 1.377 . S
C305 C303 1.389 . S
C305 C306 1.524 . S
C306 C305 1.524 . S
C306 C307 1.397 . S
C306 C311 1.363 . S
C307 H278 0.950 . S
C307 C306 1.397 . S
C307 C308 1.334 . S
C308 H279 0.950 . S
C308 C307 1.334 . S
C308 C309 1.287 . S
C309 C308 1.287 . S
C309 C310 1.524 . S
C309 H312 0.999 . S
C310 H280 0.950 . S
C310 C309 1.524 . S
C310 C311 1.415 . S
C311 H281 0.950 . S
C311 C306 1.363 . S
C311 C310 1.415 . S
H312 C309 0.999 . S
H313 C294 0.913 . S
H314 C332 0.951 . S
H315 C334 0.951 . S
H316 C336 0.950 . S
H317 C337 0.950 . S
H318 C339 0.950 . S
H319 C342 0.950 1_554 S
H320 C343 0.950 . S
H321 C345 0.950 . S
H322 C346 0.950 . S
H323 C347 0.951 . S
H324 C349 0.951 . S
H325 C351 0.950 . S
H326 C352 0.950 . S
H327 C354 0.950 . S
H328 C357 0.950 . S
H329 C358 0.950 . S
H330 C360 0.950 . S
H331 C361 0.950 . S
C332 H314 0.951 . S
C332 C333 1.366 . S
C332 C334 1.388 . S
C333 C332 1.366 . S
C333 C337 1.385 . S
C334 H315 0.951 . S
C334 C332 1.388 . S
C334 C335 1.366 . S
C335 C334 1.366 . S
C335 C336 1.414 . S
C335 C338 1.499 1_554 S
C336 H316 0.950 . S
C336 C335 1.414 . S
C336 C337 1.374 . S
C337 H317 0.950 . S
C337 C333 1.385 . S
C337 C336 1.374 . S
C338 C335 1.499 1_556 S
C338 C339 1.373 . S
C338 C340 1.389 . S
C339 H318 0.950 . S
C339 C338 1.373 . S
C339 C355 1.377 . S
C340 C338 1.389 . S
C340 C341 1.524 . S
C340 C354 1.377 . S
C341 C340 1.524 . S
C341 C342 1.397 . S
C341 C346 1.363 . S
C342 H319 0.950 1_556 S
C342 C341 1.397 . S
C342 C343 1.334 1_556 S
C343 H320 0.950 . S
C343 C342 1.334 1_554 S
C343 C344 1.287 . S
C344 C343 1.287 . S
C344 C345 1.524 1_554 S
C344 H363 0.913 . S
C345 H321 0.950 . S
C345 C344 1.524 1_556 S
C345 C346 1.415 . S
C346 H322 0.950 . S
C346 C341 1.363 . S
C346 C345 1.415 . S
C347 H323 0.951 . S
C347 C348 1.366 . S
C347 C349 1.388 . S
C348 C347 1.366 . S
C348 C352 1.385 . S
C349 H324 0.951 . S
C349 C347 1.388 . S
C349 C350 1.366 . S
C350 C349 1.366 . S
C350 C351 1.414 . S
C350 C353 1.499 . S
C351 H325 0.950 . S
C351 C350 1.414 . S
C351 C352 1.374 . S
C352 H326 0.950 . S
C352 C348 1.385 . S
C352 C351 1.374 . S
C353 C350 1.499 . S
C353 C354 1.373 . S
C353 C355 1.389 . S
C354 H327 0.950 . S
C354 C340 1.377 . S
C354 C353 1.373 . S
C355 C339 1.377 . S
C355 C353 1.389 . S
C355 C356 1.524 . S
C356 C355 1.524 . S
C356 C357 1.397 . S
C356 C361 1.363 . S
C357 H328 0.950 . S
C357 C356 1.397 . S
C357 C358 1.334 . S
C358 H329 0.950 . S
C358 C357 1.334 . S
C358 C359 1.287 . S
C359 C358 1.287 . S
C359 C360 1.524 . S
C359 H362 0.999 . S
C360 H330 0.950 . S
C360 C359 1.524 . S
C360 C361 1.415 . S
C361 H331 0.950 . S
C361 C356 1.363 . S
C361 C360 1.415 . S
H362 C359 0.999 . S
H363 C344 0.913 . S
H364 C382 0.951 . S
H365 C384 0.962 . S
H366 C386 0.950 . S
H367 C387 0.950 . S
H368 C389 0.950 . S
H369 C392 0.950 . S
H370 C393 0.950 . S
H371 C395 0.950 . S
H372 C396 0.950 . S
H373 C397 0.951 . S
H374 C399 0.951 . S
H375 C401 0.950 . S
H376 C402 0.950 . S
H377 C404 0.950 . S
H378 C407 0.950 . S
H379 C408 0.950 . S
H380 C410 0.950 . S
H381 C411 0.950 . S
C382 H364 0.951 . S
C382 C383 1.366 . S
C382 C384 1.354 1_556 S
C383 C382 1.366 . S
C383 C387 1.385 . S
C384 H365 0.962 . S
C384 C382 1.354 1_554 S
C384 C385 1.389 . S
C385 C384 1.389 . S
C385 C386 1.414 . S
C385 C388 1.499 . S
C386 H366 0.950 . S
C386 C385 1.414 . S
C386 C387 1.374 1_554 S
C387 H367 0.950 . S
C387 C383 1.385 . S
C387 C386 1.374 1_556 S
C388 C385 1.499 . S
C388 C389 1.373 . S
C388 C390 1.389 . S
C389 H368 0.950 . S
C389 C388 1.373 . S
C389 C405 1.377 . S
C390 C388 1.389 . S
C390 C391 1.524 . S
C390 C404 1.377 . S
C391 C390 1.524 . S
C391 C392 1.397 . S
C391 C396 1.363 . S
C392 H369 0.950 . S
C392 C391 1.397 . S
C392 C393 1.334 . S
C393 H370 0.950 . S
C393 C392 1.334 . S
C393 C394 1.287 . S
C394 C393 1.287 . S
C394 C395 1.524 . S
C394 H413 0.913 . S
C395 H371 0.950 . S
C395 C394 1.524 . S
C395 C396 1.415 . S
C396 H372 0.950 . S
C396 C391 1.363 . S
C396 C395 1.415 . S
C397 H373 0.951 . S
C397 C398 1.366 . S
C397 C399 1.388 . S
C398 C397 1.366 . S
C398 C402 1.385 . S
C399 H374 0.951 . S
C399 C397 1.388 . S
C399 C400 1.366 . S
C400 C399 1.366 . S
C400 C401 1.414 . S
C400 C403 1.499 . S
C401 H375 0.950 . S
C401 C400 1.414 . S
C401 C402 1.374 . S
C402 H376 0.950 . S
C402 C398 1.385 . S
C402 C401 1.374 . S
C403 C400 1.499 . S
C403 C404 1.373 . S
C403 C405 1.389 . S
C404 H377 0.950 . S
C404 C390 1.377 . S
C404 C403 1.373 . S
C405 C389 1.377 . S
C405 C403 1.389 . S
C405 C406 1.524 . S
C406 C405 1.524 . S
C406 C407 1.397 . S
C406 C411 1.363 . S
C407 H378 0.950 . S
C407 C406 1.397 . S
C407 C408 1.334 . S
C408 H379 0.950 . S
C408 C407 1.334 . S
C408 C409 1.287 . S
C409 C408 1.287 . S
C409 C410 1.524 . S
C409 H412 0.999 . S
C410 H380 0.950 . S
C410 C409 1.524 . S
C410 C411 1.415 . S
C411 H381 0.950 . S
C411 C406 1.363 . S
C411 C410 1.415 . S
H412 C409 0.999 . S
H413 C394 0.913 . S
H414 C432 0.951 . S
H415 C434 0.951 . S
H416 C436 0.950 . S
H417 C437 0.950 . S
H418 C439 0.950 . S
H419 C442 0.950 . S
H420 C443 0.950 . S
H421 C445 0.950 . S
H422 C446 0.950 . S
H423 C447 0.951 . S
H424 C449 0.951 . S
H425 C451 0.950 . S
H426 C452 0.950 . S
H427 C454 0.950 . S
H428 C457 0.950 . S
H429 C458 0.950 . S
H430 C460 0.950 . S
H431 C461 0.950 . S
C432 H414 0.951 . S
C432 C433 1.366 . S
C432 C434 1.388 . S
C433 C432 1.366 . S
C433 C437 1.385 . S
C434 H415 0.951 . S
C434 C432 1.388 . S
C434 C435 1.366 . S
C435 C434 1.366 . S
C435 C436 1.414 . S
C435 C438 1.499 . S
C436 H416 0.950 . S
C436 C435 1.414 . S
C436 C437 1.374 . S
C437 H417 0.950 . S
C437 C433 1.385 . S
C437 C436 1.374 . S
C438 C435 1.499 . S
C438 C439 1.373 . S
C438 C440 1.389 . S
C439 H418 0.950 . S
C439 C438 1.373 . S
C439 C455 1.377 . S
C440 C438 1.389 . S
C440 C441 1.524 . S
C440 C454 1.377 . S
C441 C440 1.524 . S
C441 C442 1.397 . S
C441 C446 1.363 . S
C442 H419 0.950 . S
C442 C441 1.397 . S
C442 C443 1.334 . S
C443 H420 0.950 . S
C443 C442 1.334 . S
C443 C444 1.287 . S
C444 C443 1.287 . S
C444 C445 1.524 . S
C444 H463 0.913 . S
C445 H421 0.950 . S
C445 C444 1.524 . S
C445 C446 1.415 . S
C446 H422 0.950 . S
C446 C441 1.363 . S
C446 C445 1.415 . S
C447 H423 0.951 . S
C447 C448 1.366 . S
C447 C449 1.388 . S
C448 C447 1.366 . S
C448 C452 1.385 . S
C449 H424 0.951 . S
C449 C447 1.388 . S
C449 C450 1.366 . S
C450 C449 1.366 . S
C450 C451 1.414 . S
C450 C453 1.499 . S
C451 H425 0.950 . S
C451 C450 1.414 . S
C451 C452 1.374 . S
C452 H426 0.950 . S
C452 C448 1.385 . S
C452 C451 1.374 . S
C453 C450 1.499 . S
C453 C454 1.373 . S
C453 C455 1.389 . S
C454 H427 0.950 . S
C454 C440 1.377 . S
C454 C453 1.373 . S
C455 C439 1.377 . S
C455 C453 1.389 . S
C455 C456 1.524 . S
C456 C455 1.524 . S
C456 C457 1.397 . S
C456 C461 1.363 . S
C457 H428 0.950 . S
C457 C456 1.397 . S
C457 C458 1.334 . S
C458 H429 0.950 . S
C458 C457 1.334 . S
C458 C459 1.287 . S
C459 C458 1.287 . S
C459 C460 1.524 . S
C459 H462 0.999 . S
C460 H430 0.950 . S
C460 C459 1.524 . S
C460 C461 1.415 . S
C461 H431 0.950 . S
C461 C456 1.363 . S
C461 C460 1.415 . S
H462 C459 0.999 . S
H463 C444 0.913 . S
H464 C482 0.951 . S
H465 C484 0.951 . S
H466 C486 0.950 . S
H467 C487 0.950 . S
H468 C489 0.950 . S
H469 C492 0.950 . S
H470 C493 0.950 . S
H471 C495 0.950 . S
H472 C496 0.950 . S
H473 C497 0.951 . S
H474 C499 0.951 . S
H475 C501 0.950 . S
H476 C502 0.950 . S
H477 C504 0.950 . S
H478 C507 0.950 . S
H479 C508 0.950 . S
H480 C510 0.950 . S
H481 C511 0.950 . S
C482 H464 0.951 . S
C482 C483 1.366 . S
C482 C484 1.388 . S
C483 C482 1.366 . S
C483 C487 1.385 . S
C484 H465 0.951 . S
C484 C482 1.388 . S
C484 C485 1.366 . S
C485 C484 1.366 . S
C485 C486 1.414 . S
C485 C488 1.499 . S
C486 H466 0.950 . S
C486 C485 1.414 . S
C486 C487 1.374 . S
C487 H467 0.950 . S
C487 C483 1.385 . S
C487 C486 1.374 . S
C488 C485 1.499 . S
C488 C489 1.373 . S
C488 C490 1.389 . S
C489 H468 0.950 . S
C489 C488 1.373 . S
C489 C505 1.377 . S
C490 C488 1.389 . S
C490 C491 1.524 . S
C490 C504 1.377 . S
C491 C490 1.524 . S
C491 C492 1.397 . S
C491 C496 1.363 . S
C492 H469 0.950 . S
C492 C491 1.397 . S
C492 C493 1.334 . S
C493 H470 0.950 . S
C493 C492 1.334 . S
C493 C494 1.287 . S
C494 C493 1.287 . S
C494 C495 1.524 . S
C494 H513 0.913 . S
C495 H471 0.950 . S
C495 C494 1.524 . S
C495 C496 1.415 . S
C496 H472 0.950 . S
C496 C491 1.363 . S
C496 C495 1.415 . S
C497 H473 0.951 . S
C497 C498 1.366 . S
C497 C499 1.388 . S
C498 C497 1.366 . S
C498 C502 1.385 . S
C499 H474 0.951 . S
C499 C497 1.388 . S
C499 C500 1.366 . S
C500 C499 1.366 . S
C500 C501 1.414 . S
C500 C503 1.499 . S
C501 H475 0.950 . S
C501 C500 1.414 . S
C501 C502 1.374 . S
C502 H476 0.950 . S
C502 C498 1.385 . S
C502 C501 1.374 . S
C503 C500 1.499 . S
C503 C504 1.373 . S
C503 C505 1.389 . S
C504 H477 0.950 . S
C504 C490 1.377 . S
C504 C503 1.373 . S
C505 C489 1.377 . S
C505 C503 1.389 . S
C505 C506 1.524 . S
C506 C505 1.524 . S
C506 C507 1.397 . S
C506 C511 1.363 . S
C507 H478 0.950 . S
C507 C506 1.397 . S
C507 C508 1.334 . S
C508 H479 0.950 . S
C508 C507 1.334 . S
C508 C509 1.287 . S
C509 C508 1.287 . S
C509 C510 1.524 . S
C509 H512 0.999 . S
C510 H480 0.950 . S
C510 C509 1.524 . S
C510 C511 1.415 . S
C511 H481 0.950 . S
C511 C506 1.363 . S
C511 C510 1.415 . S
H512 C509 0.999 . S
H513 C494 0.913 . S
H514 C532 0.951 . S
H515 C534 0.951 . S
H516 C536 0.950 . S
H517 C537 0.950 . S
H518 C539 0.950 . S
H519 C542 0.950 . S
H520 C543 0.950 . S
H521 C545 0.950 . S
H522 C546 0.950 . S
H523 C547 0.951 . S
H524 C549 0.951 . S
H525 C551 0.950 . S
H526 C552 0.950 . S
H527 C554 0.950 . S
H528 C557 0.950 . S
H529 C558 0.950 . S
H530 C560 0.950 . S
H531 C561 0.950 . S
C532 H514 0.951 . S
C532 C533 1.366 . S
C532 C534 1.388 . S
C533 C532 1.366 . S
C533 C537 1.385 . S
C534 H515 0.951 . S
C534 C532 1.388 . S
C534 C535 1.366 . S
C535 C534 1.366 . S
C535 C536 1.414 . S
C535 C538 1.499 . S
C536 H516 0.950 . S
C536 C535 1.414 . S
C536 C537 1.374 . S
C537 H517 0.950 . S
C537 C533 1.385 . S
C537 C536 1.374 . S
C538 C535 1.499 . S
C538 C539 1.373 . S
C538 C540 1.389 . S
C539 H518 0.950 . S
C539 C538 1.373 . S
C539 C555 1.377 . S
C540 C538 1.389 . S
C540 C541 1.524 . S
C540 C554 1.377 . S
C541 C540 1.524 . S
C541 C542 1.397 . S
C541 C546 1.363 . S
C542 H519 0.950 . S
C542 C541 1.397 . S
C542 C543 1.334 . S
C543 H520 0.950 . S
C543 C542 1.334 . S
C543 C544 1.287 . S
C544 C543 1.287 . S
C544 C545 1.524 . S
C544 H563 0.913 . S
C545 H521 0.950 . S
C545 C544 1.524 . S
C545 C546 1.415 . S
C546 H522 0.950 . S
C546 C541 1.363 . S
C546 C545 1.415 . S
C547 H523 0.951 . S
C547 C548 1.366 . S
C547 C549 1.388 . S
C548 C547 1.366 . S
C548 C552 1.385 . S
C549 H524 0.951 . S
C549 C547 1.388 . S
C549 C550 1.366 . S
C550 C549 1.366 . S
C550 C551 1.414 . S
C550 C553 1.499 . S
C551 H525 0.950 . S
C551 C550 1.414 . S
C551 C552 1.374 . S
C552 H526 0.950 . S
C552 C548 1.385 . S
C552 C551 1.374 . S
C553 C550 1.499 . S
C553 C554 1.373 . S
C553 C555 1.389 . S
C554 H527 0.950 . S
C554 C540 1.377 . S
C554 C553 1.373 . S
C555 C539 1.377 . S
C555 C553 1.389 . S
C555 C556 1.524 . S
C556 C555 1.524 . S
C556 C557 1.397 . S
C556 C561 1.363 . S
C557 H528 0.950 . S
C557 C556 1.397 . S
C557 C558 1.334 . S
C558 H529 0.950 . S
C558 C557 1.334 . S
C558 C559 1.287 . S
C559 C558 1.287 . S
C559 C560 1.524 . S
C559 H562 0.999 . S
C560 H530 0.950 . S
C560 C559 1.524 . S
C560 C561 1.415 . S
C561 H531 0.950 . S
C561 C556 1.363 . S
C561 C560 1.415 . S
H562 C559 0.999 . S
H563 C544 0.913 . S
H564 C582 0.951 . S
H565 C584 0.951 . S
H566 C586 0.950 . S
H567 C587 0.950 . S
H568 C589 0.950 . S
H569 C592 0.950 . S
H570 C593 0.950 . S
H571 C595 0.950 . S
H572 C596 0.950 . S
H573 C597 0.951 . S
H574 C599 0.951 . S
H575 C601 0.950 . S
H576 C602 0.950 . S
H577 C604 0.950 . S
H578 C607 0.950 . S
H579 C608 0.950 . S
H580 C610 0.950 . S
H581 C611 0.950 1_554 S
C582 H564 0.951 . S
C582 C583 1.366 . S
C582 C584 1.388 . S
C583 C582 1.366 . S
C583 C587 1.385 . S
C584 H565 0.951 . S
C584 C582 1.388 . S
C584 C585 1.366 . S
C585 C584 1.366 . S
C585 C586 1.414 . S
C585 C588 1.499 . S
C586 H566 0.950 . S
C586 C585 1.414 . S
C586 C587 1.374 . S
C587 H567 0.950 . S
C587 C583 1.385 . S
C587 C586 1.374 . S
C588 C585 1.499 . S
C588 C589 1.373 . S
C588 C590 1.389 . S
C589 H568 0.950 . S
C589 C588 1.373 . S
C589 C605 1.377 . S
C590 C588 1.389 . S
C590 C591 1.524 . S
C590 C604 1.377 . S
C591 C590 1.524 . S
C591 C592 1.397 . S
C591 C596 1.363 . S
C592 H569 0.950 . S
C592 C591 1.397 . S
C592 C593 1.334 . S
C593 H570 0.950 . S
C593 C592 1.334 . S
C593 C594 1.287 . S
C594 C593 1.287 . S
C594 C595 1.524 . S
C594 H613 0.913 . S
C595 H571 0.950 . S
C595 C594 1.524 . S
C595 C596 1.415 . S
C596 H572 0.950 . S
C596 C591 1.363 . S
C596 C595 1.415 . S
C597 H573 0.951 . S
C597 C598 1.366 . S
C597 C599 1.388 . S
C598 C597 1.366 . S
C598 C602 1.385 . S
C599 H574 0.951 . S
C599 C597 1.388 . S
C599 C600 1.366 . S
C600 C599 1.366 . S
C600 C601 1.414 . S
C600 C603 1.499 . S
C601 H575 0.950 . S
C601 C600 1.414 . S
C601 C602 1.374 . S
C602 H576 0.950 . S
C602 C598 1.385 . S
C602 C601 1.374 . S
C603 C600 1.499 . S
C603 C604 1.373 . S
C603 C605 1.389 . S
C604 H577 0.950 . S
C604 C590 1.377 . S
C604 C603 1.373 . S
C605 C589 1.377 . S
C605 C603 1.389 . S
C605 C606 1.524 . S
C606 C605 1.524 . S
C606 C607 1.397 . S
C606 C611 1.363 . S
C607 H578 0.950 . S
C607 C606 1.397 . S
C607 C608 1.334 . S
C608 H579 0.950 . S
C608 C607 1.334 . S
C608 C609 1.287 1_556 S
C609 C608 1.287 1_554 S
C609 C610 1.524 . S
C609 H612 0.999 . S
C610 H580 0.950 . S
C610 C609 1.524 . S
C610 C611 1.415 1_554 S
C611 H581 0.950 1_556 S
C611 C606 1.363 . S
C611 C610 1.415 1_556 S
H612 C609 0.999 . S
H613 C594 0.913 . S
H614 C632 0.951 . S
H615 C634 0.951 . S
H616 C636 0.951 . S
H617 C637 0.950 . S
H618 C639 0.950 . S
H619 C642 0.950 1_455 S
H620 C643 0.950 . S
H621 C645 0.950 . S
H622 C646 0.950 . S
H623 C647 0.951 . S
H624 C649 0.951 . S
H625 C651 0.950 . S
H626 C652 0.950 . S
H627 C654 0.950 . S
H628 C657 0.950 . S
H629 C658 0.950 1_556 S
H630 C660 0.950 . S
H631 C661 0.950 . S
C632 H614 0.951 . S
C632 C633 1.366 . S
C632 C634 1.388 . S
C633 C632 1.366 . S
C633 C637 1.385 . S
C634 H615 0.951 . S
C634 C632 1.388 . S
C634 C635 1.366 . S
C635 C634 1.366 . S
C635 C636 1.414 . S
C635 C638 1.499 1_655 S
C636 H616 0.951 . S
C636 C635 1.414 . S
C636 C637 1.374 . S
C637 H617 0.950 . S
C637 C633 1.385 . S
C637 C636 1.374 . S
C638 C635 1.499 1_455 S
C638 C639 1.373 . S
C638 C640 1.389 . S
C639 H618 0.950 . S
C639 C638 1.373 . S
C639 C655 1.377 . S
C640 C638 1.389 . S
C640 C641 1.524 . S
C640 C654 1.377 . S
C641 C640 1.524 . S
C641 C642 1.397 1_455 S
C641 C646 1.363 . S
C642 H619 0.950 1_655 S
C642 C641 1.397 1_655 S
C642 C643 1.334 . S
C643 H620 0.950 . S
C643 C642 1.334 . S
C643 C644 1.287 . S
C644 C643 1.287 . S
C644 C645 1.524 . S
C644 H663 0.913 . S
C645 H621 0.950 . S
C645 C644 1.524 . S
C645 C646 1.415 1_655 S
C646 H622 0.950 . S
C646 C641 1.363 . S
C646 C645 1.415 1_455 S
C647 H623 0.951 . S
C647 C648 1.366 . S
C647 C649 1.388 . S
C648 C647 1.366 . S
C648 C652 1.385 . S
C649 H624 0.951 . S
C649 C647 1.388 . S
C649 C650 1.366 . S
C650 C649 1.366 . S
C650 C651 1.414 . S
C650 C653 1.499 . S
C651 H625 0.950 . S
C651 C650 1.414 . S
C651 C652 1.374 . S
C652 H626 0.950 . S
C652 C648 1.385 . S
C652 C651 1.374 . S
C653 C650 1.499 . S
C653 C654 1.373 . S
C653 C655 1.389 . S
C654 H627 0.950 . S
C654 C640 1.377 . S
C654 C653 1.373 . S
C655 C639 1.377 . S
C655 C653 1.389 . S
C655 C656 1.524 . S
C656 C655 1.524 . S
C656 C657 1.397 . S
C656 C661 1.363 . S
C657 H628 0.950 . S
C657 C656 1.397 . S
C657 C658 1.334 . S
C658 H629 0.950 1_554 S
C658 C657 1.334 . S
C658 C659 1.287 . S
C659 C658 1.287 . S
C659 C660 1.524 . S
C659 H662 0.999 . S
C660 H630 0.950 . S
C660 C659 1.524 . S
C660 C661 1.415 . S
C661 H631 0.950 . S
C661 C656 1.363 . S
C661 C660 1.415 . S
H662 C659 0.999 . S
H663 C644 0.913 . S
H664 C682 0.951 . S
H665 C684 0.951 . S
H666 C686 0.950 . S
H667 C687 0.950 . S
H668 C689 0.950 . S
H669 C692 0.950 . S
H670 C693 0.950 . S
H671 C695 0.950 . S
H672 C696 0.950 . S
H673 C697 0.951 . S
H674 C699 0.953 . S
H675 C701 0.950 . S
H676 C702 0.950 . S
H677 C704 0.950 . S
H678 C707 0.950 . S
H679 C708 0.950 1_565 S
H680 C710 0.950 . S
H681 C711 0.950 . S
C682 H664 0.951 . S
C682 C683 1.366 . S
C682 C684 1.388 . S
C683 C682 1.366 . S
C683 C687 1.385 . S
C684 H665 0.951 . S
C684 C682 1.388 . S
C684 C685 1.366 . S
C685 C684 1.366 . S
C685 C686 1.414 . S
C685 C688 1.499 . S
C686 H666 0.950 . S
C686 C685 1.414 . S
C686 C687 1.374 . S
C687 H667 0.950 . S
C687 C683 1.385 . S
C687 C686 1.374 . S
C688 C685 1.499 . S
C688 C689 1.373 . S
C688 C690 1.389 . S
C689 H668 0.950 . S
C689 C688 1.373 . S
C689 C705 1.377 . S
C690 C688 1.389 . S
C690 C691 1.524 . S
C690 C704 1.377 . S
C691 C690 1.524 . S
C691 C692 1.397 . S
C691 C696 1.363 . S
C692 H669 0.950 . S
C692 C691 1.397 . S
C692 C693 1.334 . S
C693 H670 0.950 . S
C693 C692 1.334 . S
C693 C694 1.287 . S
C694 C693 1.287 . S
C694 C695 1.524 . S
C694 H713 0.913 . S
C695 H671 0.950 . S
C695 C694 1.524 . S
C695 C696 1.415 . S
C696 H672 0.950 . S
C696 C691 1.363 . S
C696 C695 1.415 . S
C697 H673 0.951 . S
C697 C698 1.366 . S
C697 C699 1.388 . S
C698 C697 1.366 . S
C698 C702 1.385 . S
C699 H674 0.953 . S
C699 C697 1.388 . S
C699 C700 1.366 . S
C700 C699 1.366 . S
C700 C701 1.414 . S
C700 C703 1.499 1_565 S
C701 H675 0.950 . S
C701 C700 1.414 . S
C701 C702 1.374 . S
C702 H676 0.950 . S
C702 C698 1.385 . S
C702 C701 1.374 . S
C703 C700 1.499 1_545 S
C703 C704 1.373 . S
C703 C705 1.389 . S
C704 H677 0.950 . S
C704 C690 1.377 . S
C704 C703 1.373 . S
C705 C689 1.377 . S
C705 C703 1.389 . S
C705 C706 1.524 . S
C706 C705 1.524 . S
C706 C707 1.397 . S
C706 C711 1.363 . S
C707 H678 0.950 . S
C707 C706 1.397 . S
C707 C708 1.334 . S
C708 H679 0.950 1_545 S
C708 C707 1.334 . S
C708 C709 1.287 . S
C709 C708 1.287 . S
C709 C710 1.524 . S
C709 H712 0.999 . S
C710 H680 0.950 . S
C710 C709 1.524 . S
C710 C711 1.415 . S
C711 H681 0.950 . S
C711 C706 1.363 . S
C711 C710 1.415 . S
H712 C709 0.999 . S
H713 C694 0.913 . S
H714 C732 0.951 . S
H715 C734 0.951 . S
H716 C736 0.950 . S
H717 C737 0.950 . S
H718 C739 0.950 . S
H719 C742 0.950 . S
H720 C743 0.950 . S
H721 C745 0.950 . S
H722 C746 0.950 . S
H723 C747 0.951 . S
H724 C749 0.951 . S
H725 C751 0.950 . S
H726 C752 0.950 . S
H727 C754 0.950 . S
H728 C757 0.950 . S
H729 C758 0.950 . S
H730 C760 0.950 . S
H731 C761 0.950 . S
C732 H714 0.951 . S
C732 C733 1.366 . S
C732 C734 1.388 . S
C733 C732 1.366 . S
C733 C737 1.385 . S
C734 H715 0.951 . S
C734 C732 1.388 . S
C734 C735 1.366 . S
C735 C734 1.366 . S
C735 C736 1.414 . S
C735 C738 1.499 . S
C736 H716 0.950 . S
C736 C735 1.414 . S
C736 C737 1.374 . S
C737 H717 0.950 . S
C737 C733 1.385 . S
C737 C736 1.374 . S
C738 C735 1.499 . S
C738 C739 1.373 . S
C738 C740 1.389 . S
C739 H718 0.950 . S
C739 C738 1.373 . S
C739 C755 1.377 . S
C740 C738 1.389 . S
C740 C741 1.524 . S
C740 C754 1.377 . S
C741 C740 1.524 . S
C741 C742 1.397 . S
C741 C746 1.363 . S
C742 H719 0.950 . S
C742 C741 1.397 . S
C742 C743 1.334 . S
C743 H720 0.950 . S
C743 C742 1.334 . S
C743 C744 1.287 . S
C744 C743 1.287 . S
C744 C745 1.524 . S
C744 H763 0.913 . S
C745 H721 0.950 . S
C745 C744 1.524 . S
C745 C746 1.415 . S
C746 H722 0.950 . S
C746 C741 1.363 . S
C746 C745 1.415 . S
C747 H723 0.951 . S
C747 C748 1.366 . S
C747 C749 1.388 . S
C748 C747 1.366 . S
C748 C752 1.385 . S
C749 H724 0.951 . S
C749 C747 1.388 . S
C749 C750 1.366 . S
C750 C749 1.366 . S
C750 C751 1.414 . S
C750 C753 1.499 . S
C751 H725 0.950 . S
C751 C750 1.414 . S
C751 C752 1.374 . S
C752 H726 0.950 . S
C752 C748 1.385 . S
C752 C751 1.374 . S
C753 C750 1.499 . S
C753 C754 1.373 . S
C753 C755 1.389 . S
C754 H727 0.950 . S
C754 C740 1.377 . S
C754 C753 1.373 . S
C755 C739 1.377 . S
C755 C753 1.389 . S
C755 C756 1.524 . S
C756 C755 1.524 . S
C756 C757 1.397 . S
C756 C761 1.363 . S
C757 H728 0.950 . S
C757 C756 1.397 . S
C757 C758 1.334 . S
C758 H729 0.950 . S
C758 C757 1.334 . S
C758 C759 1.287 . S
C759 C758 1.287 . S
C759 C760 1.524 . S
C759 H762 0.999 . S
C760 H730 0.950 . S
C760 C759 1.524 . S
C760 C761 1.415 . S
C761 H731 0.950 . S
C761 C756 1.363 . S
C761 C760 1.415 . S
H762 C759 0.999 . S
H763 C744 0.913 . S
H764 C782 0.951 . S
H765 C784 0.951 . S
H766 C786 0.950 . S
H767 C787 0.950 . S
H768 C789 0.950 . S
H769 C792 0.950 . S
H770 C793 0.950 . S
H771 C795 0.950 . S
H772 C796 0.950 1_655 S
H773 C797 0.951 . S
H774 C799 0.951 . S
H775 C801 0.950 . S
H776 C802 0.950 . S
H777 C804 0.950 . S
H778 C807 0.950 . S
H779 C808 0.950 . S
H780 C810 0.950 . S
H781 C811 0.950 . S
C782 H764 0.951 . S
C782 C783 1.366 . S
C782 C784 1.388 . S
C783 C782 1.366 . S
C783 C787 1.385 . S
C784 H765 0.951 . S
C784 C782 1.388 . S
C784 C785 1.366 . S
C785 C784 1.366 . S
C785 C786 1.414 . S
C785 C788 1.499 1_455 S
C786 H766 0.950 . S
C786 C785 1.414 . S
C786 C787 1.374 . S
C787 H767 0.950 . S
C787 C783 1.385 . S
C787 C786 1.374 . S
C788 C785 1.499 1_655 S
C788 C789 1.373 . S
C788 C790 1.389 . S
C789 H768 0.950 . S
C789 C788 1.373 . S
C789 C805 1.377 . S
C790 C788 1.389 . S
C790 C791 1.523 1_655 S
C790 C804 1.377 . S
C791 C790 1.523 1_455 S
C791 C792 1.398 . S
C791 C796 1.363 . S
C792 H769 0.950 . S
C792 C791 1.398 . S
C792 C793 1.334 . S
C793 H770 0.950 . S
C793 C792 1.334 . S
C793 C794 1.287 . S
C794 C793 1.287 . S
C794 C795 1.524 . S
C794 H813 0.913 . S
C795 H771 0.950 . S
C795 C794 1.524 . S
C795 C796 1.415 . S
C796 H772 0.950 1_455 S
C796 C791 1.363 . S
C796 C795 1.415 . S
C797 H773 0.951 . S
C797 C798 1.366 . S
C797 C799 1.388 . S
C798 C797 1.366 . S
C798 C802 1.385 . S
C799 H774 0.951 . S
C799 C797 1.388 . S
C799 C800 1.366 . S
C800 C799 1.366 . S
C800 C801 1.414 . S
C800 C803 1.499 . S
C801 H775 0.950 . S
C801 C800 1.414 . S
C801 C802 1.374 . S
C802 H776 0.950 . S
C802 C798 1.385 . S
C802 C801 1.374 . S
C803 C800 1.499 . S
C803 C804 1.373 . S
C803 C805 1.389 . S
C804 H777 0.950 . S
C804 C790 1.377 . S
C804 C803 1.373 . S
C805 C789 1.377 . S
C805 C803 1.389 . S
C805 C806 1.524 . S
C806 C805 1.524 . S
C806 C807 1.397 . S
C806 C811 1.363 . S
C807 H778 0.950 . S
C807 C806 1.397 . S
C807 C808 1.334 . S
C808 H779 0.950 . S
C808 C807 1.334 . S
C808 C809 1.287 . S
C809 C808 1.287 . S
C809 C810 1.524 . S
C809 H812 0.999 . S
C810 H780 0.950 . S
C810 C809 1.524 . S
C810 C811 1.415 . S
C811 H781 0.950 . S
C811 C806 1.363 . S
C811 C810 1.415 . S
H812 C809 0.999 . S
H813 C794 0.913 . S
H814 C832 0.951 . S
H815 C834 0.949 1_565 S
H816 C836 0.950 . S
H817 C837 0.950 . S
H818 C839 0.950 . S
H819 C842 0.950 . S
H820 C843 0.950 1_545 S
H821 C845 0.950 . S
H822 C846 0.950 . S
H823 C847 0.951 . S
H824 C849 0.951 . S
H825 C851 0.950 . S
H826 C852 0.950 . S
H827 C854 0.950 . S
H828 C857 0.950 . S
H829 C858 0.950 . S
H830 C860 0.950 . S
H831 C861 0.950 . S
C832 H814 0.951 . S
C832 C833 1.366 . S
C832 C834 1.388 . S
C833 C832 1.366 . S
C833 C837 1.385 . S
C834 H815 0.949 1_545 S
C834 C832 1.388 . S
C834 C835 1.366 . S
C835 C834 1.366 . S
C835 C836 1.414 . S
C835 C838 1.499 1_545 S
C836 H816 0.950 . S
C836 C835 1.414 . S
C836 C837 1.374 . S
C837 H817 0.950 . S
C837 C833 1.385 . S
C837 C836 1.374 . S
C838 C835 1.499 1_565 S
C838 C839 1.373 . S
C838 C840 1.389 . S
C839 H818 0.950 . S
C839 C838 1.373 . S
C839 C855 1.377 . S
C840 C838 1.389 . S
C840 C841 1.524 . S
C840 C854 1.377 . S
C841 C840 1.524 . S
C841 C842 1.397 . S
C841 C846 1.363 . S
C842 H819 0.950 . S
C842 C841 1.397 . S
C842 C843 1.334 . S
C843 H820 0.950 1_565 S
C843 C842 1.334 . S
C843 C844 1.287 . S
C844 C843 1.287 . S
C844 C845 1.524 . S
C844 H863 0.913 . S
C845 H821 0.950 . S
C845 C844 1.524 . S
C845 C846 1.415 . S
C846 H822 0.950 . S
C846 C841 1.363 . S
C846 C845 1.415 . S
C847 H823 0.951 . S
C847 C848 1.366 . S
C847 C849 1.388 . S
C848 C847 1.366 . S
C848 C852 1.385 . S
C849 H824 0.951 . S
C849 C847 1.388 . S
C849 C850 1.366 . S
C850 C849 1.366 . S
C850 C851 1.414 . S
C850 C853 1.499 . S
C851 H825 0.950 . S
C851 C850 1.414 . S
C851 C852 1.374 . S
C852 H826 0.950 . S
C852 C848 1.385 . S
C852 C851 1.374 . S
C853 C850 1.499 . S
C853 C854 1.373 . S
C853 C855 1.389 . S
C854 H827 0.950 . S
C854 C840 1.377 . S
C854 C853 1.373 . S
C855 C839 1.377 . S
C855 C853 1.389 . S
C855 C856 1.524 . S
C856 C855 1.524 . S
C856 C857 1.397 . S
C856 C861 1.363 . S
C857 H828 0.950 . S
C857 C856 1.397 . S
C857 C858 1.334 . S
C858 H829 0.950 . S
C858 C857 1.334 . S
C858 C859 1.287 . S
C859 C858 1.287 . S
C859 C860 1.524 . S
C859 H862 0.999 . S
C860 H830 0.950 . S
C860 C859 1.524 . S
C860 C861 1.415 . S
C861 H831 0.950 . S
C861 C856 1.363 . S
C861 C860 1.415 . S
H862 C859 0.999 . S
H863 C844 0.913 . S
H864 C882 0.951 . S
H865 C884 0.951 . S
H866 C886 0.950 . S
H867 C887 0.950 . S
H868 C889 0.950 . S
H869 C892 0.950 1_556 S
H870 C893 0.950 . S
H871 C895 0.950 . S
H872 C896 0.950 . S
H873 C897 0.951 . S
H874 C899 0.951 . S
H875 C901 0.950 . S
H876 C902 0.950 . S
H877 C904 0.950 . S
H878 C907 0.950 . S
H879 C908 0.950 . S
H880 C910 0.950 . S
H881 C911 0.950 . S
C882 H864 0.951 . S
C882 C883 1.366 . S
C882 C884 1.388 . S
C883 C882 1.366 . S
C883 C887 1.385 . S
C884 H865 0.951 . S
C884 C882 1.388 . S
C884 C885 1.366 . S
C885 C884 1.366 . S
C885 C886 1.414 . S
C885 C888 1.499 . S
C886 H866 0.950 . S
C886 C885 1.414 . S
C886 C887 1.374 . S
C887 H867 0.950 . S
C887 C883 1.385 . S
C887 C886 1.374 . S
C888 C885 1.499 . S
C888 C889 1.373 . S
C888 C890 1.389 . S
C889 H868 0.950 . S
C889 C888 1.373 . S
C889 C905 1.377 . S
C890 C888 1.389 . S
C890 C891 1.524 . S
C890 C904 1.377 . S
C891 C890 1.524 . S
C891 C892 1.397 1_556 S
C891 C896 1.363 . S
C892 H869 0.950 1_554 S
C892 C891 1.397 1_554 S
C892 C893 1.334 . S
C893 H870 0.950 . S
C893 C892 1.334 . S
C893 C894 1.287 . S
C894 C893 1.287 . S
C894 C895 1.524 . S
C894 H913 0.913 . S
C895 H871 0.950 . S
C895 C894 1.524 . S
C895 C896 1.415 1_554 S
C896 H872 0.950 . S
C896 C891 1.363 . S
C896 C895 1.415 1_556 S
C897 H873 0.951 . S
C897 C898 1.366 . S
C897 C899 1.388 . S
C898 C897 1.366 . S
C898 C902 1.385 . S
C899 H874 0.951 . S
C899 C897 1.388 . S
C899 C900 1.366 . S
C900 C899 1.366 . S
C900 C901 1.414 . S
C900 C903 1.499 . S
C901 H875 0.950 . S
C901 C900 1.414 . S
C901 C902 1.374 . S
C902 H876 0.950 . S
C902 C898 1.385 . S
C902 C901 1.374 . S
C903 C900 1.499 . S
C903 C904 1.373 . S
C903 C905 1.389 . S
C904 H877 0.950 . S
C904 C890 1.377 . S
C904 C903 1.373 . S
C905 C889 1.377 . S
C905 C903 1.389 . S
C905 C906 1.524 . S
C906 C905 1.524 . S
C906 C907 1.397 . S
C906 C911 1.363 . S
C907 H878 0.950 . S
C907 C906 1.397 . S
C907 C908 1.334 . S
C908 H879 0.950 . S
C908 C907 1.334 . S
C908 C909 1.287 . S
C909 C908 1.287 . S
C909 C910 1.524 . S
C909 H912 0.999 . S
C910 H880 0.950 . S
C910 C909 1.524 . S
C910 C911 1.415 . S
C911 H881 0.950 . S
C911 C906 1.363 . S
C911 C910 1.415 . S
H912 C909 0.999 . S
H913 C894 0.913 . S
H914 C932 0.951 . S
H915 C934 0.951 . S
H916 C936 0.950 . S
H917 C937 0.950 . S
H918 C939 0.950 . S
H919 C942 0.950 . S
H920 C943 0.950 . S
H921 C945 0.950 . S
H922 C946 0.950 . S
H923 C947 0.951 . S
H924 C949 0.951 . S
H925 C951 0.950 . S
H926 C952 0.950 . S
H927 C954 0.950 . S
H928 C957 0.950 . S
H929 C958 0.950 . S
H930 C960 0.950 . S
H931 C961 0.950 . S
C932 H914 0.951 . S
C932 C933 1.366 . S
C932 C934 1.388 . S
C933 C932 1.366 . S
C933 C937 1.385 . S
C934 H915 0.951 . S
C934 C932 1.388 . S
C934 C935 1.366 . S
C935 C934 1.366 . S
C935 C936 1.414 . S
C935 C938 1.499 1_655 S
C936 H916 0.950 . S
C936 C935 1.414 . S
C936 C937 1.374 . S
C937 H917 0.950 . S
C937 C933 1.385 . S
C937 C936 1.374 . S
C938 C935 1.499 1_455 S
C938 C939 1.373 . S
C938 C940 1.389 . S
C939 H918 0.950 . S
C939 C938 1.373 . S
C939 C955 1.377 . S
C940 C938 1.389 . S
C940 C941 1.524 . S
C940 C954 1.377 . S
C941 C940 1.524 . S
C941 C942 1.397 1_455 S
C941 C946 1.363 . S
C942 H919 0.950 . S
C942 C941 1.397 1_655 S
C942 C943 1.334 . S
C943 H920 0.950 . S
C943 C942 1.334 . S
C943 C944 1.287 . S
C944 C943 1.287 . S
C944 C945 1.524 1_655 S
C944 H963 0.913 . S
C945 H921 0.950 . S
C945 C944 1.524 1_455 S
C945 C946 1.415 . S
C946 H922 0.950 . S
C946 C941 1.363 . S
C946 C945 1.415 . S
C947 H923 0.951 . S
C947 C948 1.366 . S
C947 C949 1.388 . S
C948 C947 1.366 . S
C948 C952 1.385 . S
C949 H924 0.951 . S
C949 C947 1.388 . S
C949 C950 1.366 . S
C950 C949 1.366 . S
C950 C951 1.414 . S
C950 C953 1.499 . S
C951 H925 0.950 . S
C951 C950 1.414 . S
C951 C952 1.374 . S
C952 H926 0.950 . S
C952 C948 1.385 . S
C952 C951 1.374 . S
C953 C950 1.499 . S
C953 C954 1.373 . S
C953 C955 1.389 . S
C954 H927 0.950 . S
C954 C940 1.377 . S
C954 C953 1.373 . S
C955 C939 1.377 . S
C955 C953 1.389 . S
C955 C956 1.524 . S
C956 C955 1.524 . S
C956 C957 1.397 . S
C956 C961 1.363 . S
C957 H928 0.950 . S
C957 C956 1.397 . S
C957 C958 1.334 . S
C958 H929 0.950 . S
C958 C957 1.334 . S
C958 C959 1.287 . S
C959 C958 1.287 . S
C959 C960 1.524 . S
C959 H962 0.999 . S
C960 H930 0.950 . S
C960 C959 1.524 . S
C960 C961 1.415 . S
C961 H931 0.950 . S
C961 C956 1.363 . S
C961 C960 1.415 . S
H962 C959 0.999 . S
H963 C944 0.913 . S
H964 C982 0.951 . S
H965 C984 0.951 . S
H966 C986 0.950 . S
H967 C987 0.950 . S
H968 C989 0.950 . S
H969 C992 0.950 . S
H970 C993 0.950 . S
H971 C995 0.950 . S
H972 C996 0.950 . S
H973 C997 0.951 . S
H974 C999 0.951 . S
H975 C1001 0.950 . S
H976 C1002 0.950 . S
H977 C1004 0.950 . S
H978 C1007 0.950 . S
H979 C1008 0.950 . S
H980 C1010 0.950 . S
H981 C1011 0.950 . S
C982 H964 0.951 . S
C982 C983 1.366 . S
C982 C984 1.388 . S
C983 C982 1.366 . S
C983 C987 1.385 . S
C984 H965 0.951 . S
C984 C982 1.388 . S
C984 C985 1.366 . S
C985 C984 1.366 . S
C985 C986 1.414 . S
C985 C988 1.499 1_565 S
C986 H966 0.950 . S
C986 C985 1.414 . S
C986 C987 1.374 . S
C987 H967 0.950 . S
C987 C983 1.385 . S
C987 C986 1.374 . S
C988 C985 1.499 1_545 S
C988 C989 1.373 . S
C988 C990 1.389 . S
C989 H968 0.950 . S
C989 C988 1.373 . S
C989 C1005 1.377 . S
C990 C988 1.389 . S
C990 C991 1.524 . S
C990 C1004 1.377 . S
C991 C990 1.524 . S
C991 C992 1.397 . S
C991 C996 1.363 . S
C992 H969 0.950 . S
C992 C991 1.397 . S
C992 C993 1.334 . S
C993 H970 0.950 . S
C993 C992 1.334 . S
C993 C994 1.287 . S
C994 C993 1.287 . S
C994 C995 1.524 . S
C994 H1013 0.913 . S
C995 H971 0.950 . S
C995 C994 1.524 . S
C995 C996 1.415 . S
C996 H972 0.950 . S
C996 C991 1.363 . S
C996 C995 1.415 . S
C997 H973 0.951 . S
C997 C998 1.366 . S
C997 C999 1.388 . S
C998 C997 1.366 . S
C998 C1002 1.385 . S
C999 H974 0.951 . S
C999 C997 1.388 . S
C999 C1000 1.366 . S
C1000 C999 1.366 . S
C1000 C1001 1.414 . S
C1000 C1003 1.499 . S
C1001 H975 0.950 . S
C1001 C1000 1.414 . S
C1001 C1002 1.374 . S
C1002 H976 0.950 . S
C1002 C998 1.385 . S
C1002 C1001 1.374 . S
C1003 C1000 1.499 . S
C1003 C1004 1.373 . S
C1003 C1005 1.389 . S
C1004 H977 0.950 . S
C1004 C990 1.377 . S
C1004 C1003 1.373 . S
C1005 C989 1.377 . S
C1005 C1003 1.389 . S
C1005 C1006 1.524 . S
C1006 C1005 1.524 . S
C1006 C1007 1.397 . S
C1006 C1011 1.363 . S
C1007 H978 0.950 . S
C1007 C1006 1.397 . S
C1007 C1008 1.334 . S
C1008 H979 0.950 . S
C1008 C1007 1.334 . S
C1008 C1009 1.287 . S
C1009 C1008 1.287 . S
C1009 C1010 1.524 . S
C1009 H1012 0.999 . S
C1010 H980 0.950 . S
C1010 C1009 1.524 . S
C1010 C1011 1.415 . S
C1011 H981 0.950 . S
C1011 C1006 1.363 . S
C1011 C1010 1.415 . S
H1012 C1009 0.999 . S
H1013 C994 0.913 . S
H1014 C1032 0.951 . S
H1015 C1034 0.951 . S
H1016 C1036 0.950 . S
H1017 C1037 0.950 . S
H1018 C1039 0.950 . S
H1019 C1042 0.950 . S
H1020 C1043 0.950 . S
H1021 C1045 0.950 . S
H1022 C1046 0.950 . S
H1023 C1047 0.951 . S
H1024 C1049 0.951 . S
H1025 C1051 0.950 . S
H1026 C1052 0.950 . S
H1027 C1054 0.950 . S
H1028 C1057 0.950 . S
H1029 C1058 0.950 . S
H1030 C1060 0.950 . S
H1031 C1061 0.950 . S
C1032 H1014 0.951 . S
C1032 C1033 1.366 . S
C1032 C1034 1.388 . S
C1033 C1032 1.366 . S
C1033 C1037 1.385 . S
C1034 H1015 0.951 . S
C1034 C1032 1.388 . S
C1034 C1035 1.366 . S
C1035 C1034 1.366 . S
C1035 C1036 1.414 . S
C1035 C1038 1.499 . S
C1036 H1016 0.950 . S
C1036 C1035 1.414 . S
C1036 C1037 1.374 . S
C1037 H1017 0.950 . S
C1037 C1033 1.385 . S
C1037 C1036 1.374 . S
C1038 C1035 1.499 . S
C1038 C1039 1.373 . S
C1038 C1040 1.389 . S
C1039 H1018 0.950 . S
C1039 C1038 1.373 . S
C1039 C1055 1.377 . S
C1040 C1038 1.389 . S
C1040 C1041 1.524 . S
C1040 C1054 1.377 . S
C1041 C1040 1.524 . S
C1041 C1042 1.397 . S
C1041 C1046 1.363 . S
C1042 H1019 0.950 . S
C1042 C1041 1.397 . S
C1042 C1043 1.334 . S
C1043 H1020 0.950 . S
C1043 C1042 1.334 . S
C1043 C1044 1.287 . S
C1044 C1043 1.287 . S
C1044 C1045 1.524 . S
C1044 H1063 0.913 . S
C1045 H1021 0.950 . S
C1045 C1044 1.524 . S
C1045 C1046 1.415 . S
C1046 H1022 0.950 . S
C1046 C1041 1.363 . S
C1046 C1045 1.415 . S
C1047 H1023 0.951 . S
C1047 C1048 1.366 . S
C1047 C1049 1.388 . S
C1048 C1047 1.366 . S
C1048 C1052 1.385 . S
C1049 H1024 0.951 . S
C1049 C1047 1.388 . S
C1049 C1050 1.366 . S
C1050 C1049 1.366 . S
C1050 C1051 1.414 . S
C1050 C1053 1.499 . S
C1051 H1025 0.950 . S
C1051 C1050 1.414 . S
C1051 C1052 1.374 . S
C1052 H1026 0.950 . S
C1052 C1048 1.385 . S
C1052 C1051 1.374 . S
C1053 C1050 1.499 . S
C1053 C1054 1.373 . S
C1053 C1055 1.389 . S
C1054 H1027 0.950 . S
C1054 C1040 1.377 . S
C1054 C1053 1.373 . S
C1055 C1039 1.377 . S
C1055 C1053 1.389 . S
C1055 C1056 1.524 . S
C1056 C1055 1.524 . S
C1056 C1057 1.397 . S
C1056 C1061 1.363 . S
C1057 H1028 0.950 . S
C1057 C1056 1.397 . S
C1057 C1058 1.334 . S
C1058 H1029 0.950 . S
C1058 C1057 1.334 . S
C1058 C1059 1.287 . S
C1059 C1058 1.287 . S
C1059 C1060 1.524 . S
C1059 H1062 0.999 . S
C1060 H1030 0.950 . S
C1060 C1059 1.524 . S
C1060 C1061 1.415 . S
C1061 H1031 0.950 . S
C1061 C1056 1.363 . S
C1061 C1060 1.415 . S
H1062 C1059 0.999 . S
H1063 C1044 0.913 . S
H1064 C1082 0.951 . S
H1065 C1084 0.951 . S
H1066 C1086 0.950 . S
H1067 C1087 0.950 . S
H1068 C1089 0.950 . S
H1069 C1092 0.950 . S
H1070 C1093 0.950 . S
H1071 C1095 0.950 . S
H1072 C1096 0.950 . S
H1073 C1097 0.951 . S
H1074 C1099 0.951 . S
H1075 C1101 0.950 . S
H1076 C1102 0.950 . S
H1077 C1104 0.950 . S
H1078 C1107 0.950 . S
H1079 C1108 0.950 . S
H1080 C1110 0.950 . S
H1081 C1111 0.950 1_655 S
C1082 H1064 0.951 . S
C1082 C1083 1.366 . S
C1082 C1084 1.388 . S
C1083 C1082 1.366 . S
C1083 C1087 1.385 . S
C1084 H1065 0.951 . S
C1084 C1082 1.388 . S
C1084 C1085 1.366 . S
C1085 C1084 1.366 . S
C1085 C1086 1.414 . S
C1085 C1088 1.499 . S
C1086 H1066 0.950 . S
C1086 C1085 1.414 . S
C1086 C1087 1.374 . S
C1087 H1067 0.950 . S
C1087 C1083 1.385 . S
C1087 C1086 1.374 . S
C1088 C1085 1.499 . S
C1088 C1089 1.373 . S
C1088 C1090 1.389 . S
C1089 H1068 0.950 . S
C1089 C1088 1.373 . S
C1089 C1105 1.377 . S
C1090 C1088 1.389 . S
C1090 C1091 1.524 . S
C1090 C1104 1.377 . S
C1091 C1090 1.524 . S
C1091 C1092 1.397 . S
C1091 C1096 1.363 . S
C1092 H1069 0.950 . S
C1092 C1091 1.397 . S
C1092 C1093 1.334 . S
C1093 H1070 0.950 . S
C1093 C1092 1.334 . S
C1093 C1094 1.287 . S
C1094 C1093 1.287 . S
C1094 C1095 1.524 . S
C1094 H1113 0.913 . S
C1095 H1071 0.950 . S
C1095 C1094 1.524 . S
C1095 C1096 1.415 . S
C1096 H1072 0.950 . S
C1096 C1091 1.363 . S
C1096 C1095 1.415 . S
C1097 H1073 0.951 . S
C1097 C1098 1.366 . S
C1097 C1099 1.388 . S
C1098 C1097 1.366 . S
C1098 C1102 1.385 . S
C1099 H1074 0.951 . S
C1099 C1097 1.388 . S
C1099 C1100 1.366 . S
C1100 C1099 1.366 . S
C1100 C1101 1.414 . S
C1100 C1103 1.499 1_455 S
C1101 H1075 0.950 . S
C1101 C1100 1.414 . S
C1101 C1102 1.374 . S
C1102 H1076 0.950 . S
C1102 C1098 1.385 . S
C1102 C1101 1.374 . S
C1103 C1100 1.499 1_655 S
C1103 C1104 1.373 . S
C1103 C1105 1.389 . S
C1104 H1077 0.950 . S
C1104 C1090 1.377 . S
C1104 C1103 1.373 . S
C1105 C1089 1.377 . S
C1105 C1103 1.389 . S
C1105 C1106 1.524 . S
C1106 C1105 1.524 . S
C1106 C1107 1.397 1_655 S
C1106 C1111 1.363 1_655 S
C1107 H1078 0.950 . S
C1107 C1106 1.397 1_455 S
C1107 C1108 1.334 . S
C1108 H1079 0.950 . S
C1108 C1107 1.334 . S
C1108 C1109 1.287 . S
C1109 C1108 1.287 . S
C1109 C1110 1.524 . S
C1109 H1112 0.999 . S
C1110 H1080 0.950 . S
C1110 C1109 1.524 . S
C1110 C1111 1.415 . S
C1111 H1081 0.950 1_455 S
C1111 C1106 1.363 1_455 S
C1111 C1110 1.415 . S
H1112 C1109 0.999 . S
H1113 C1094 0.913 . S
H1114 C1132 0.951 . S
H1115 C1134 0.951 . S
H1116 C1136 0.950 . S
H1117 C1137 0.950 . S
H1118 C1139 0.950 . S
H1119 C1142 0.950 . S
H1120 C1143 0.950 . S
H1121 C1145 0.950 . S
H1122 C1146 0.950 . S
H1123 C1147 0.951 . S
H1124 C1149 0.951 . S
H1125 C1151 0.950 . S
H1126 C1152 0.950 . S
H1127 C1154 0.950 . S
H1128 C1157 0.950 . S
H1129 C1158 0.950 . S
H1130 C1160 0.950 . S
H1131 C1161 0.950 1_565 S
C1132 H1114 0.951 . S
C1132 C1133 1.366 . S
C1132 C1134 1.388 . S
C1133 C1132 1.366 . S
C1133 C1137 1.385 . S
C1134 H1115 0.951 . S
C1134 C1132 1.388 . S
C1134 C1135 1.366 . S
C1135 C1134 1.366 . S
C1135 C1136 1.414 . S
C1135 C1138 1.499 . S
C1136 H1116 0.950 . S
C1136 C1135 1.414 . S
C1136 C1137 1.374 . S
C1137 H1117 0.950 . S
C1137 C1133 1.385 . S
C1137 C1136 1.374 . S
C1138 C1135 1.499 . S
C1138 C1139 1.373 . S
C1138 C1140 1.389 . S
C1139 H1118 0.950 . S
C1139 C1138 1.373 . S
C1139 C1155 1.377 . S
C1140 C1138 1.389 . S
C1140 C1141 1.524 . S
C1140 C1154 1.377 . S
C1141 C1140 1.524 . S
C1141 C1142 1.397 . S
C1141 C1146 1.363 . S
C1142 H1119 0.950 . S
C1142 C1141 1.397 . S
C1142 C1143 1.334 . S
C1143 H1120 0.950 . S
C1143 C1142 1.334 . S
C1143 C1144 1.287 . S
C1144 C1143 1.287 . S
C1144 C1145 1.524 . S
C1144 H1163 0.913 . S
C1145 H1121 0.950 . S
C1145 C1144 1.524 . S
C1145 C1146 1.415 . S
C1146 H1122 0.950 . S
C1146 C1141 1.363 . S
C1146 C1145 1.415 . S
C1147 H1123 0.951 . S
C1147 C1148 1.366 . S
C1147 C1149 1.388 . S
C1148 C1147 1.366 . S
C1148 C1152 1.385 . S
C1149 H1124 0.951 . S
C1149 C1147 1.388 . S
C1149 C1150 1.366 . S
C1150 C1149 1.366 . S
C1150 C1151 1.414 . S
C1150 C1153 1.499 1_545 S
C1151 H1125 0.950 . S
C1151 C1150 1.414 . S
C1151 C1152 1.374 . S
C1152 H1126 0.950 . S
C1152 C1148 1.385 . S
C1152 C1151 1.374 . S
C1153 C1150 1.499 1_565 S
C1153 C1154 1.373 . S
C1153 C1155 1.389 . S
C1154 H1127 0.950 . S
C1154 C1140 1.377 . S
C1154 C1153 1.373 . S
C1155 C1139 1.377 . S
C1155 C1153 1.389 . S
C1155 C1156 1.524 . S
C1156 C1155 1.524 . S
C1156 C1157 1.397 1_565 S
C1156 C1161 1.363 1_565 S
C1157 H1128 0.950 . S
C1157 C1156 1.397 1_545 S
C1157 C1158 1.334 . S
C1158 H1129 0.950 . S
C1158 C1157 1.334 . S
C1158 C1159 1.287 . S
C1159 C1158 1.287 . S
C1159 C1160 1.524 . S
C1159 H1162 0.999 . S
C1160 H1130 0.950 . S
C1160 C1159 1.524 . S
C1160 C1161 1.415 . S
C1161 H1131 0.950 1_545 S
C1161 C1156 1.363 1_545 S
C1161 C1160 1.415 . S
H1162 C1159 0.999 . S
H1163 C1144 0.913 . S
H1164 C1182 0.951 1_554 S
H1165 C1184 0.951 1_554 S
H1166 C1186 0.950 . S
H1167 C1187 0.950 . S
H1168 C1189 0.950 . S
H1169 C1192 0.950 . S
H1170 C1193 0.950 . S
H1171 C1195 0.950 . S
H1172 C1196 0.950 . S
H1173 C1197 0.951 . S
H1174 C1199 0.951 . S
H1175 C1201 0.950 . S
H1176 C1202 0.950 . S
H1177 C1204 0.950 . S
H1178 C1207 0.950 . S
H1179 C1208 0.950 . S
H1180 C1210 0.950 . S
H1181 C1211 0.950 . S
C1182 H1164 0.951 1_556 S
C1182 C1183 1.366 . S
C1182 C1184 1.388 . S
C1183 C1182 1.366 . S
C1183 C1187 1.385 . S
C1184 H1165 0.951 1_556 S
C1184 C1182 1.388 . S
C1184 C1185 1.366 . S
C1185 C1184 1.366 . S
C1185 C1186 1.414 . S
C1185 C1188 1.499 . S
C1186 H1166 0.950 . S
C1186 C1185 1.414 . S
C1186 C1187 1.374 . S
C1187 H1167 0.950 . S
C1187 C1183 1.385 . S
C1187 C1186 1.374 . S
C1188 C1185 1.499 . S
C1188 C1189 1.373 . S
C1188 C1190 1.389 . S
C1189 H1168 0.950 . S
C1189 C1188 1.373 . S
C1189 C1205 1.377 . S
C1190 C1188 1.389 . S
C1190 C1191 1.524 . S
C1190 C1204 1.377 . S
C1191 C1190 1.524 . S
C1191 C1192 1.397 . S
C1191 C1196 1.363 1_556 S
C1192 H1169 0.950 . S
C1192 C1191 1.397 . S
C1192 C1193 1.334 1_556 S
C1193 H1170 0.950 . S
C1193 C1192 1.334 1_554 S
C1193 C1194 1.287 . S
C1194 C1193 1.287 . S
C1194 C1195 1.524 . S
C1194 H1213 0.913 . S
C1195 H1171 0.950 . S
C1195 C1194 1.524 . S
C1195 C1196 1.415 . S
C1196 H1172 0.950 . S
C1196 C1191 1.363 1_554 S
C1196 C1195 1.415 . S
C1197 H1173 0.951 . S
C1197 C1198 1.366 . S
C1197 C1199 1.388 . S
C1198 C1197 1.366 . S
C1198 C1202 1.385 . S
C1199 H1174 0.951 . S
C1199 C1197 1.388 . S
C1199 C1200 1.366 . S
C1200 C1199 1.366 . S
C1200 C1201 1.414 . S
C1200 C1203 1.499 . S
C1201 H1175 0.950 . S
C1201 C1200 1.414 . S
C1201 C1202 1.374 . S
C1202 H1176 0.950 . S
C1202 C1198 1.385 . S
C1202 C1201 1.374 . S
C1203 C1200 1.499 . S
C1203 C1204 1.373 . S
C1203 C1205 1.389 . S
C1204 H1177 0.950 . S
C1204 C1190 1.377 . S
C1204 C1203 1.373 . S
C1205 C1189 1.377 . S
C1205 C1203 1.389 . S
C1205 C1206 1.524 . S
C1206 C1205 1.524 . S
C1206 C1207 1.397 . S
C1206 C1211 1.363 . S
C1207 H1178 0.950 . S
C1207 C1206 1.397 . S
C1207 C1208 1.334 . S
C1208 H1179 0.950 . S
C1208 C1207 1.334 . S
C1208 C1209 1.287 . S
C1209 C1208 1.287 . S
C1209 C1210 1.524 . S
C1209 H1212 0.999 . S
C1210 H1180 0.950 . S
C1210 C1209 1.524 . S
C1210 C1211 1.415 . S
C1211 H1181 0.950 . S
C1211 C1206 1.363 . S
C1211 C1210 1.415 . S
H1212 C1209 0.999 . S
H1213 C1194 0.913 . S
H1214 C1232 0.951 . S
H1215 C1234 0.951 . S
H1216 C1236 0.950 . S
H1217 C1237 0.950 . S
H1218 C1239 0.950 . S
H1219 C1242 0.950 . S
H1220 C1243 0.950 1_556 S
H1221 C1245 0.950 . S
H1222 C1246 0.950 . S
H1223 C1247 0.951 . S
H1224 C1249 0.951 . S
H1225 C1251 0.950 . S
H1226 C1252 0.950 . S
H1227 C1254 0.950 . S
H1228 C1257 0.950 . S
H1229 C1258 0.950 . S
H1230 C1260 0.950 . S
H1231 C1261 0.950 . S
C1232 H1214 0.951 . S
C1232 C1233 1.366 . S
C1232 C1234 1.388 . S
C1233 C1232 1.366 . S
C1233 C1237 1.385 . S
C1234 H1215 0.951 . S
C1234 C1232 1.388 . S
C1234 C1235 1.366 . S
C1235 C1234 1.366 . S
C1235 C1236 1.414 . S
C1235 C1238 1.499 . S
C1236 H1216 0.950 . S
C1236 C1235 1.414 . S
C1236 C1237 1.374 . S
C1237 H1217 0.950 . S
C1237 C1233 1.385 . S
C1237 C1236 1.374 . S
C1238 C1235 1.499 . S
C1238 C1239 1.373 . S
C1238 C1240 1.389 . S
C1239 H1218 0.950 . S
C1239 C1238 1.373 . S
C1239 C1255 1.377 . S
C1240 C1238 1.389 . S
C1240 C1241 1.524 . S
C1240 C1254 1.377 . S
C1241 C1240 1.524 . S
C1241 C1242 1.397 . S
C1241 C1246 1.363 . S
C1242 H1219 0.950 . S
C1242 C1241 1.397 . S
C1242 C1243 1.334 . S
C1243 H1220 0.950 1_554 S
C1243 C1242 1.334 . S
C1243 C1244 1.287 . S
C1244 C1243 1.287 . S
C1244 C1245 1.524 . S
C1244 H1263 0.913 . S
C1245 H1221 0.950 . S
C1245 C1244 1.524 . S
C1245 C1246 1.415 . S
C1246 H1222 0.950 . S
C1246 C1241 1.363 . S
C1246 C1245 1.415 . S
C1247 H1223 0.951 . S
C1247 C1248 1.366 . S
C1247 C1249 1.388 . S
C1248 C1247 1.366 . S
C1248 C1252 1.385 . S
C1249 H1224 0.951 . S
C1249 C1247 1.388 . S
C1249 C1250 1.366 . S
C1250 C1249 1.366 . S
C1250 C1251 1.414 . S
C1250 C1253 1.499 . S
C1251 H1225 0.950 . S
C1251 C1250 1.414 . S
C1251 C1252 1.374 . S
C1252 H1226 0.950 . S
C1252 C1248 1.385 . S
C1252 C1251 1.374 . S
C1253 C1250 1.499 . S
C1253 C1254 1.373 . S
C1253 C1255 1.389 . S
C1254 H1227 0.950 . S
C1254 C1240 1.377 . S
C1254 C1253 1.373 . S
C1255 C1239 1.377 . S
C1255 C1253 1.389 . S
C1255 C1256 1.524 . S
C1256 C1255 1.524 . S
C1256 C1257 1.397 . S
C1256 C1261 1.363 . S
C1257 H1228 0.950 . S
C1257 C1256 1.397 . S
C1257 C1258 1.334 . S
C1258 H1229 0.950 . S
C1258 C1257 1.334 . S
C1258 C1259 1.287 . S
C1259 C1258 1.287 . S
C1259 C1260 1.524 . S
C1259 H1262 0.999 . S
C1260 H1230 0.950 . S
C1260 C1259 1.524 . S
C1260 C1261 1.415 . S
C1261 H1231 0.950 . S
C1261 C1256 1.363 . S
C1261 C1260 1.415 . S
H1262 C1259 0.999 . S
H1263 C1244 0.913 . S
H1264 C1282 0.951 . S
H1265 C1284 0.951 . S
H1266 C1286 0.950 . S
H1267 C1287 0.950 . S
H1268 C1289 0.950 . S
H1269 C1292 0.950 . S
H1270 C1293 0.950 . S
H1271 C1295 0.950 . S
H1272 C1296 0.950 . S
H1273 C1297 0.951 . S
H1274 C1299 0.951 . S
H1275 C1301 0.950 . S
H1276 C1302 0.950 . S
H1277 C1304 0.950 . S
H1278 C1307 0.950 . S
H1279 C1308 0.950 . S
H1280 C1310 0.950 . S
H1281 C1311 0.950 . S
C1282 H1264 0.951 . S
C1282 C1283 1.366 . S
C1282 C1284 1.388 . S
C1283 C1282 1.366 . S
C1283 C1287 1.385 . S
C1284 H1265 0.951 . S
C1284 C1282 1.388 . S
C1284 C1285 1.366 . S
C1285 C1284 1.366 . S
C1285 C1286 1.414 . S
C1285 C1288 1.499 . S
C1286 H1266 0.950 . S
C1286 C1285 1.414 . S
C1286 C1287 1.374 . S
C1287 H1267 0.950 . S
C1287 C1283 1.385 . S
C1287 C1286 1.374 . S
C1288 C1285 1.499 . S
C1288 C1289 1.373 . S
C1288 C1290 1.389 . S
C1289 H1268 0.950 . S
C1289 C1288 1.373 . S
C1289 C1305 1.377 . S
C1290 C1288 1.389 . S
C1290 C1291 1.524 . S
C1290 C1304 1.377 . S
C1291 C1290 1.524 . S
C1291 C1292 1.397 . S
C1291 C1296 1.363 . S
C1292 H1269 0.950 . S
C1292 C1291 1.397 . S
C1292 C1293 1.334 . S
C1293 H1270 0.950 . S
C1293 C1292 1.334 . S
C1293 C1294 1.287 . S
C1294 C1293 1.287 . S
C1294 C1295 1.524 . S
C1294 H1313 0.913 . S
C1295 H1271 0.950 . S
C1295 C1294 1.524 . S
C1295 C1296 1.415 . S
C1296 H1272 0.950 . S
C1296 C1291 1.363 . S
C1296 C1295 1.415 . S
C1297 H1273 0.951 . S
C1297 C1298 1.366 . S
C1297 C1299 1.388 . S
C1298 C1297 1.366 . S
C1298 C1302 1.385 . S
C1299 H1274 0.951 . S
C1299 C1297 1.388 . S
C1299 C1300 1.366 . S
C1300 C1299 1.366 . S
C1300 C1301 1.414 . S
C1300 C1303 1.499 . S
C1301 H1275 0.950 . S
C1301 C1300 1.414 . S
C1301 C1302 1.374 . S
C1302 H1276 0.950 . S
C1302 C1298 1.385 . S
C1302 C1301 1.374 . S
C1303 C1300 1.499 . S
C1303 C1304 1.373 . S
C1303 C1305 1.389 . S
C1304 H1277 0.950 . S
C1304 C1290 1.377 . S
C1304 C1303 1.373 . S
C1305 C1289 1.377 . S
C1305 C1303 1.389 . S
C1305 C1306 1.524 . S
C1306 C1305 1.524 . S
C1306 C1307 1.397 . S
C1306 C1311 1.363 . S
C1307 H1278 0.950 . S
C1307 C1306 1.397 . S
C1307 C1308 1.334 . S
C1308 H1279 0.950 . S
C1308 C1307 1.334 . S
C1308 C1309 1.287 . S
C1309 C1308 1.287 . S
C1309 C1310 1.524 . S
C1309 H1312 0.999 . S
C1310 H1280 0.950 . S
C1310 C1309 1.524 . S
C1310 C1311 1.415 . S
C1311 H1281 0.950 . S
C1311 C1306 1.363 . S
C1311 C1310 1.415 . S
H1312 C1309 0.999 . S
H1313 C1294 0.913 . S
H1314 C1332 0.951 . S
H1315 C1334 0.951 . S
H1316 C1336 0.950 . S
H1317 C1337 0.950 . S
H1318 C1339 0.950 . S
H1319 C1342 0.950 . S
H1320 C1343 0.950 . S
H1321 C1345 0.950 . S
H1322 C1346 0.950 . S
H1323 C1347 0.951 . S
H1324 C1349 0.951 . S
H1325 C1351 0.950 . S
H1326 C1352 0.950 . S
H1327 C1354 0.950 . S
H1328 C1357 0.950 . S
H1329 C1358 0.950 . S
H1330 C1360 0.950 . S
H1331 C1361 0.950 . S
C1332 H1314 0.951 . S
C1332 C1333 1.366 . S
C1332 C1334 1.388 . S
C1333 C1332 1.366 . S
C1333 C1337 1.385 . S
C1334 H1315 0.951 . S
C1334 C1332 1.388 . S
C1334 C1335 1.366 . S
C1335 C1334 1.366 . S
C1335 C1336 1.414 . S
C1335 C1338 1.499 . S
C1336 H1316 0.950 . S
C1336 C1335 1.414 . S
C1336 C1337 1.374 . S
C1337 H1317 0.950 . S
C1337 C1333 1.385 . S
C1337 C1336 1.374 . S
C1338 C1335 1.499 . S
C1338 C1339 1.373 . S
C1338 C1340 1.389 . S
C1339 H1318 0.950 . S
C1339 C1338 1.373 . S
C1339 C1355 1.377 . S
C1340 C1338 1.389 . S
C1340 C1341 1.524 . S
C1340 C1354 1.377 . S
C1341 C1340 1.524 . S
C1341 C1342 1.397 . S
C1341 C1346 1.363 . S
C1342 H1319 0.950 . S
C1342 C1341 1.397 . S
C1342 C1343 1.334 . S
C1343 H1320 0.950 . S
C1343 C1342 1.334 . S
C1343 C1344 1.287 . S
C1344 C1343 1.287 . S
C1344 C1345 1.524 . S
C1344 H1363 0.913 . S
C1345 H1321 0.950 . S
C1345 C1344 1.524 . S
C1345 C1346 1.415 . S
C1346 H1322 0.950 . S
C1346 C1341 1.363 . S
C1346 C1345 1.415 . S
C1347 H1323 0.951 . S
C1347 C1348 1.366 . S
C1347 C1349 1.388 . S
C1348 C1347 1.366 . S
C1348 C1352 1.385 . S
C1349 H1324 0.951 . S
C1349 C1347 1.388 . S
C1349 C1350 1.366 . S
C1350 C1349 1.366 . S
C1350 C1351 1.414 . S
C1350 C1353 1.499 . S
C1351 H1325 0.950 . S
C1351 C1350 1.414 . S
C1351 C1352 1.374 . S
C1352 H1326 0.950 . S
C1352 C1348 1.385 . S
C1352 C1351 1.374 . S
C1353 C1350 1.499 . S
C1353 C1354 1.373 . S
C1353 C1355 1.389 . S
C1354 H1327 0.950 . S
C1354 C1340 1.377 . S
C1354 C1353 1.373 . S
C1355 C1339 1.377 . S
C1355 C1353 1.389 . S
C1355 C1356 1.524 . S
C1356 C1355 1.524 . S
C1356 C1357 1.397 . S
C1356 C1361 1.363 . S
C1357 H1328 0.950 . S
C1357 C1356 1.397 . S
C1357 C1358 1.334 . S
C1358 H1329 0.950 . S
C1358 C1357 1.334 . S
C1358 C1359 1.287 . S
C1359 C1358 1.287 . S
C1359 C1360 1.524 . S
C1359 H1362 0.999 . S
C1360 H1330 0.950 . S
C1360 C1359 1.524 . S
C1360 C1361 1.415 . S
C1361 H1331 0.950 . S
C1361 C1356 1.363 . S
C1361 C1360 1.415 . S
H1362 C1359 0.999 . S
H1363 C1344 0.913 . S
H1364 C1382 0.951 . S
H1365 C1384 0.951 . S
H1366 C1386 0.950 . S
H1367 C1387 0.950 . S
H1368 C1389 0.950 . S
H1369 C1392 0.950 . S
H1370 C1393 0.950 . S
H1371 C1395 0.950 . S
H1372 C1396 0.950 . S
H1373 C1397 0.951 . S
H1374 C1399 0.951 . S
H1375 C1401 0.950 . S
H1376 C1402 0.950 . S
H1377 C1404 0.950 . S
H1378 C1407 0.950 . S
H1379 C1408 0.950 . S
H1380 C1410 0.950 . S
H1381 C1411 0.950 . S
C1382 H1364 0.951 . S
C1382 C1383 1.366 . S
C1382 C1384 1.388 . S
C1383 C1382 1.366 . S
C1383 C1387 1.385 . S
C1384 H1365 0.951 . S
C1384 C1382 1.388 . S
C1384 C1385 1.366 . S
C1385 C1384 1.366 . S
C1385 C1386 1.414 . S
C1385 C1388 1.499 . S
C1386 H1366 0.950 . S
C1386 C1385 1.414 . S
C1386 C1387 1.374 . S
C1387 H1367 0.950 . S
C1387 C1383 1.385 . S
C1387 C1386 1.374 . S
C1388 C1385 1.499 . S
C1388 C1389 1.373 . S
C1388 C1390 1.389 . S
C1389 H1368 0.950 . S
C1389 C1388 1.373 . S
C1389 C1405 1.377 . S
C1390 C1388 1.389 . S
C1390 C1391 1.524 . S
C1390 C1404 1.377 . S
C1391 C1390 1.524 . S
C1391 C1392 1.397 . S
C1391 C1396 1.363 . S
C1392 H1369 0.950 . S
C1392 C1391 1.397 . S
C1392 C1393 1.334 . S
C1393 H1370 0.950 . S
C1393 C1392 1.334 . S
C1393 C1394 1.287 . S
C1394 C1393 1.287 . S
C1394 C1395 1.524 . S
C1394 H1413 0.913 . S
C1395 H1371 0.950 . S
C1395 C1394 1.524 . S
C1395 C1396 1.415 . S
C1396 H1372 0.950 . S
C1396 C1391 1.363 . S
C1396 C1395 1.415 . S
C1397 H1373 0.951 . S
C1397 C1398 1.366 . S
C1397 C1399 1.388 . S
C1398 C1397 1.366 . S
C1398 C1402 1.385 . S
C1399 H1374 0.951 . S
C1399 C1397 1.388 . S
C1399 C1400 1.366 . S
C1400 C1399 1.366 . S
C1400 C1401 1.414 . S
C1400 C1403 1.499 . S
C1401 H1375 0.950 . S
C1401 C1400 1.414 . S
C1401 C1402 1.374 . S
C1402 H1376 0.950 . S
C1402 C1398 1.385 . S
C1402 C1401 1.374 . S
C1403 C1400 1.499 . S
C1403 C1404 1.373 . S
C1403 C1405 1.389 . S
C1404 H1377 0.950 . S
C1404 C1390 1.377 . S
C1404 C1403 1.373 . S
C1405 C1389 1.377 . S
C1405 C1403 1.389 . S
C1405 C1406 1.524 . S
C1406 C1405 1.524 . S
C1406 C1407 1.397 . S
C1406 C1411 1.363 . S
C1407 H1378 0.950 . S
C1407 C1406 1.397 . S
C1407 C1408 1.334 . S
C1408 H1379 0.950 . S
C1408 C1407 1.334 . S
C1408 C1409 1.287 . S
C1409 C1408 1.287 . S
C1409 C1410 1.524 . S
C1409 H1412 0.999 . S
C1410 H1380 0.950 . S
C1410 C1409 1.524 . S
C1410 C1411 1.415 . S
C1411 H1381 0.950 . S
C1411 C1406 1.363 . S
C1411 C1410 1.415 . S
H1412 C1409 0.999 . S
H1413 C1394 0.913 . S
H1414 C1432 0.951 . S
H1415 C1434 0.951 . S
H1416 C1436 0.950 . S
H1417 C1437 0.950 . S
H1418 C1439 0.950 . S
H1419 C1442 0.950 . S
H1420 C1443 0.950 . S
H1421 C1445 0.950 . S
H1422 C1446 0.950 . S
H1423 C1447 0.951 . S
H1424 C1449 0.951 . S
H1425 C1451 0.950 . S
H1426 C1452 0.950 . S
H1427 C1454 0.950 . S
H1428 C1457 0.950 . S
H1429 C1458 0.950 . S
H1430 C1460 0.950 . S
H1431 C1461 0.950 . S
C1432 H1414 0.951 . S
C1432 C1433 1.366 . S
C1432 C1434 1.388 . S
C1433 C1432 1.366 . S
C1433 C1437 1.385 . S
C1434 H1415 0.951 . S
C1434 C1432 1.388 . S
C1434 C1435 1.366 . S
C1435 C1434 1.366 . S
C1435 C1436 1.414 . S
C1435 C1438 1.499 . S
C1436 H1416 0.950 . S
C1436 C1435 1.414 . S
C1436 C1437 1.374 . S
C1437 H1417 0.950 . S
C1437 C1433 1.385 . S
C1437 C1436 1.374 . S
C1438 C1435 1.499 . S
C1438 C1439 1.373 . S
C1438 C1440 1.389 . S
C1439 H1418 0.950 . S
C1439 C1438 1.373 . S
C1439 C1455 1.377 . S
C1440 C1438 1.389 . S
C1440 C1441 1.524 . S
C1440 C1454 1.377 . S
C1441 C1440 1.524 . S
C1441 C1442 1.397 . S
C1441 C1446 1.363 . S
C1442 H1419 0.950 . S
C1442 C1441 1.397 . S
C1442 C1443 1.334 . S
C1443 H1420 0.950 . S
C1443 C1442 1.334 . S
C1443 C1444 1.287 . S
C1444 C1443 1.287 . S
C1444 C1445 1.524 . S
C1444 H1463 0.913 . S
C1445 H1421 0.950 . S
C1445 C1444 1.524 . S
C1445 C1446 1.415 . S
C1446 H1422 0.950 . S
C1446 C1441 1.363 . S
C1446 C1445 1.415 . S
C1447 H1423 0.951 . S
C1447 C1448 1.366 . S
C1447 C1449 1.388 . S
C1448 C1447 1.366 . S
C1448 C1452 1.385 . S
C1449 H1424 0.951 . S
C1449 C1447 1.388 . S
C1449 C1450 1.366 . S
C1450 C1449 1.366 . S
C1450 C1451 1.414 . S
C1450 C1453 1.499 . S
C1451 H1425 0.950 . S
C1451 C1450 1.414 . S
C1451 C1452 1.374 . S
C1452 H1426 0.950 . S
C1452 C1448 1.385 . S
C1452 C1451 1.374 . S
C1453 C1450 1.499 . S
C1453 C1454 1.373 . S
C1453 C1455 1.389 . S
C1454 H1427 0.950 . S
C1454 C1440 1.377 . S
C1454 C1453 1.373 . S
C1455 C1439 1.377 . S
C1455 C1453 1.389 . S
C1455 C1456 1.524 . S
C1456 C1455 1.524 . S
C1456 C1457 1.397 . S
C1456 C1461 1.363 . S
C1457 H1428 0.950 . S
C1457 C1456 1.397 . S
C1457 C1458 1.334 . S
C1458 H1429 0.950 . S
C1458 C1457 1.334 . S
C1458 C1459 1.287 . S
C1459 C1458 1.287 . S
C1459 C1460 1.524 . S
C1459 H1462 0.999 . S
C1460 H1430 0.950 . S
C1460 C1459 1.524 . S
C1460 C1461 1.415 . S
C1461 H1431 0.950 . S
C1461 C1456 1.363 . S
C1461 C1460 1.415 . S
H1462 C1459 0.999 . S
H1463 C1444 0.913 . S
H1464 C1482 0.951 . S
H1465 C1484 0.951 . S
H1466 C1486 0.950 . S
H1467 C1487 0.950 . S
H1468 C1489 0.950 . S
H1469 C1492 0.950 . S
H1470 C1493 0.950 . S
H1471 C1495 0.950 . S
H1472 C1496 0.950 . S
H1473 C1497 0.951 . S
H1474 C1499 0.951 . S
H1475 C1501 0.950 . S
H1476 C1502 0.950 . S
H1477 C1504 0.950 . S
H1478 C1507 0.950 . S
H1479 C1508 0.950 . S
H1480 C1510 0.950 . S
H1481 C1511 0.950 . S
C1482 H1464 0.951 . S
C1482 C1483 1.366 . S
C1482 C1484 1.388 . S
C1483 C1482 1.366 . S
C1483 C1487 1.385 . S
C1484 H1465 0.951 . S
C1484 C1482 1.388 . S
C1484 C1485 1.366 . S
C1485 C1484 1.366 . S
C1485 C1486 1.414 . S
C1485 C1488 1.499 . S
C1486 H1466 0.950 . S
C1486 C1485 1.414 . S
C1486 C1487 1.374 . S
C1487 H1467 0.950 . S
C1487 C1483 1.385 . S
C1487 C1486 1.374 . S
C1488 C1485 1.499 . S
C1488 C1489 1.373 . S
C1488 C1490 1.389 . S
C1489 H1468 0.950 . S
C1489 C1488 1.373 . S
C1489 C1505 1.377 . S
C1490 C1488 1.389 . S
C1490 C1491 1.524 . S
C1490 C1504 1.377 . S
C1491 C1490 1.524 . S
C1491 C1492 1.397 . S
C1491 C1496 1.363 . S
C1492 H1469 0.950 . S
C1492 C1491 1.397 . S
C1492 C1493 1.334 . S
C1493 H1470 0.950 . S
C1493 C1492 1.334 . S
C1493 C1494 1.287 . S
C1494 C1493 1.287 . S
C1494 C1495 1.524 . S
C1494 H1513 0.913 . S
C1495 H1471 0.950 . S
C1495 C1494 1.524 . S
C1495 C1496 1.415 . S
C1496 H1472 0.950 . S
C1496 C1491 1.363 . S
C1496 C1495 1.415 . S
C1497 H1473 0.951 . S
C1497 C1498 1.366 . S
C1497 C1499 1.388 . S
C1498 C1497 1.366 . S
C1498 C1502 1.385 . S
C1499 H1474 0.951 . S
C1499 C1497 1.388 . S
C1499 C1500 1.366 . S
C1500 C1499 1.366 . S
C1500 C1501 1.414 . S
C1500 C1503 1.499 . S
C1501 H1475 0.950 . S
C1501 C1500 1.414 . S
C1501 C1502 1.374 . S
C1502 H1476 0.950 . S
C1502 C1498 1.385 . S
C1502 C1501 1.374 . S
C1503 C1500 1.499 . S
C1503 C1504 1.373 . S
C1503 C1505 1.389 . S
C1504 H1477 0.950 . S
C1504 C1490 1.377 . S
C1504 C1503 1.373 . S
C1505 C1489 1.377 . S
C1505 C1503 1.389 . S
C1505 C1506 1.524 . S
C1506 C1505 1.524 . S
C1506 C1507 1.397 . S
C1506 C1511 1.363 . S
C1507 H1478 0.950 . S
C1507 C1506 1.397 . S
C1507 C1508 1.334 . S
C1508 H1479 0.950 . S
C1508 C1507 1.334 . S
C1508 C1509 1.287 . S
C1509 C1508 1.287 . S
C1509 C1510 1.524 . S
C1509 H1512 0.999 . S
C1510 H1480 0.950 . S
C1510 C1509 1.524 . S
C1510 C1511 1.415 . S
C1511 H1481 0.950 . S
C1511 C1506 1.363 . S
C1511 C1510 1.415 . S
H1512 C1509 0.999 . S
H1513 C1494 0.913 . S
H1514 C1532 0.951 . S
H1515 C1534 0.951 . S
H1516 C1536 0.950 . S
H1517 C1537 0.950 . S
H1518 C1539 0.950 . S
H1519 C1542 0.950 . S
H1520 C1543 0.950 . S
H1521 C1545 0.950 . S
H1522 C1546 0.950 . S
H1523 C1547 0.951 . S
H1524 C1549 0.951 . S
H1525 C1551 0.950 . S
H1526 C1552 0.950 . S
H1527 C1554 0.950 . S
H1528 C1557 0.950 . S
H1529 C1558 0.950 . S
H1530 C1560 0.950 . S
H1531 C1561 0.950 . S
C1532 H1514 0.951 . S
C1532 C1533 1.366 . S
C1532 C1534 1.388 . S
C1533 C1532 1.366 . S
C1533 C1537 1.385 . S
C1534 H1515 0.951 . S
C1534 C1532 1.388 . S
C1534 C1535 1.366 . S
C1535 C1534 1.366 . S
C1535 C1536 1.414 . S
C1535 C1538 1.499 . S
C1536 H1516 0.950 . S
C1536 C1535 1.414 . S
C1536 C1537 1.374 . S
C1537 H1517 0.950 . S
C1537 C1533 1.385 . S
C1537 C1536 1.374 . S
C1538 C1535 1.499 . S
C1538 C1539 1.373 . S
C1538 C1540 1.423 . S
C1539 H1518 0.950 . S
C1539 C1538 1.373 . S
C1539 C1555 1.355 1_455 S
C1540 C1538 1.423 . S
C1540 C1541 1.511 1_455 S
C1540 C1554 1.355 1_455 S
C1541 C1540 1.511 1_655 S
C1541 C1542 1.397 . S
C1541 C1546 1.363 . S
C1542 H1519 0.950 . S
C1542 C1541 1.397 . S
C1542 C1543 1.334 . S
C1543 H1520 0.950 . S
C1543 C1542 1.334 . S
C1543 C1544 1.287 . S
C1544 C1543 1.287 . S
C1544 C1545 1.524 . S
C1544 H1563 0.913 . S
C1545 H1521 0.950 . S
C1545 C1544 1.524 . S
C1545 C1546 1.415 . S
C1546 H1522 0.950 . S
C1546 C1541 1.363 . S
C1546 C1545 1.415 . S
C1547 H1523 0.951 . S
C1547 C1548 1.366 . S
C1547 C1549 1.388 . S
C1548 C1547 1.366 . S
C1548 C1552 1.385 . S
C1549 H1524 0.951 . S
C1549 C1547 1.388 . S
C1549 C1550 1.366 . S
C1550 C1549 1.366 . S
C1550 C1551 1.414 . S
C1550 C1553 1.499 . S
C1551 H1525 0.950 . S
C1551 C1550 1.414 . S
C1551 C1552 1.374 . S
C1552 H1526 0.950 . S
C1552 C1548 1.385 . S
C1552 C1551 1.374 . S
C1553 C1550 1.499 . S
C1553 C1554 1.373 . S
C1553 C1555 1.423 . S
C1554 H1527 0.950 . S
C1554 C1540 1.355 1_655 S
C1554 C1553 1.373 . S
C1555 C1539 1.355 1_655 S
C1555 C1553 1.423 . S
C1555 C1556 1.511 1_655 S
C1556 C1555 1.511 1_455 S
C1556 C1557 1.397 . S
C1556 C1561 1.363 . S
C1557 H1528 0.950 . S
C1557 C1556 1.397 . S
C1557 C1558 1.334 . S
C1558 H1529 0.950 . S
C1558 C1557 1.334 . S
C1558 C1559 1.287 . S
C1559 C1558 1.287 . S
C1559 C1560 1.524 . S
C1559 H1562 0.999 . S
C1560 H1530 0.950 . S
C1560 C1559 1.524 . S
C1560 C1561 1.415 . S
C1561 H1531 0.950 . S
C1561 C1556 1.363 . S
C1561 C1560 1.415 . S
H1562 C1559 0.999 . S
H1563 C1544 0.913 . S
H1564 C1582 0.951 . S
H1565 C1584 0.951 . S
H1566 C1586 0.950 . S
H1567 C1587 0.950 . S
H1568 C1589 0.942 . S
H1569 C1592 0.950 . S
H1570 C1593 0.950 . S
H1571 C1595 0.950 . S
H1572 C1596 0.950 . S
H1573 C1597 0.951 . S
H1574 C1599 0.951 . S
H1575 C1601 0.950 . S
H1576 C1602 0.950 . S
H1577 C1604 0.942 . S
H1578 C1607 0.950 . S
H1579 C1608 0.950 . S
H1580 C1610 0.950 . S
H1581 C1611 0.950 . S
C1582 H1564 0.951 . S
C1582 C1583 1.366 . S
C1582 C1584 1.388 . S
C1583 C1582 1.366 . S
C1583 C1587 1.385 . S
C1584 H1565 0.951 . S
C1584 C1582 1.388 . S
C1584 C1585 1.366 . S
C1585 C1584 1.366 . S
C1585 C1586 1.414 . S
C1585 C1588 1.499 . S
C1586 H1566 0.950 . S
C1586 C1585 1.414 . S
C1586 C1587 1.374 . S
C1587 H1567 0.950 . S
C1587 C1583 1.385 . S
C1587 C1586 1.374 . S
C1588 C1585 1.499 . S
C1588 C1589 1.363 1_545 S
C1588 C1590 1.389 . S
C1589 H1568 0.942 . S
C1589 C1588 1.363 1_565 S
C1589 C1605 1.383 . S
C1590 C1588 1.389 . S
C1590 C1591 1.524 . S
C1590 C1604 1.384 . S
C1591 C1590 1.524 . S
C1591 C1592 1.397 . S
C1591 C1596 1.363 . S
C1592 H1569 0.950 . S
C1592 C1591 1.397 . S
C1592 C1593 1.334 . S
C1593 H1570 0.950 . S
C1593 C1592 1.334 . S
C1593 C1594 1.287 . S
C1594 C1593 1.287 . S
C1594 C1595 1.524 . S
C1594 H1613 0.913 . S
C1595 H1571 0.950 . S
C1595 C1594 1.524 . S
C1595 C1596 1.415 . S
C1596 H1572 0.950 . S
C1596 C1591 1.363 . S
C1596 C1595 1.415 . S
C1597 H1573 0.951 . S
C1597 C1598 1.366 . S
C1597 C1599 1.388 . S
C1598 C1597 1.366 . S
C1598 C1602 1.385 . S
C1599 H1574 0.951 . S
C1599 C1597 1.388 . S
C1599 C1600 1.366 . S
C1600 C1599 1.366 . S
C1600 C1601 1.414 . S
C1600 C1603 1.499 . S
C1601 H1575 0.950 . S
C1601 C1600 1.414 . S
C1601 C1602 1.374 . S
C1602 H1576 0.950 . S
C1602 C1598 1.385 . S
C1602 C1601 1.374 . S
C1603 C1600 1.499 . S
C1603 C1604 1.363 1_565 S
C1603 C1605 1.389 . S
C1604 H1577 0.942 . S
C1604 C1590 1.384 . S
C1604 C1603 1.363 1_545 S
C1605 C1589 1.383 . S
C1605 C1603 1.389 . S
C1605 C1606 1.524 . S
C1606 C1605 1.524 . S
C1606 C1607 1.397 . S
C1606 C1611 1.363 . S
C1607 H1578 0.950 . S
C1607 C1606 1.397 . S
C1607 C1608 1.334 . S
C1608 H1579 0.950 . S
C1608 C1607 1.334 . S
C1608 C1609 1.287 . S
C1609 C1608 1.287 . S
C1609 C1610 1.524 . S
C1609 H1612 0.999 . S
C1610 H1580 0.950 . S
C1610 C1609 1.524 . S
C1610 C1611 1.415 . S
C1611 H1581 0.950 . S
C1611 C1606 1.363 . S
C1611 C1610 1.415 . S
H1612 C1609 0.999 . S
H1613 C1594 0.913 . S
H1614 C1632 0.951 . S
H1615 C1634 0.951 . S
H1616 C1636 0.950 . S
H1617 C1637 0.950 . S
H1618 C1639 0.950 . S
H1619 C1642 0.950 . S
H1620 C1643 0.950 . S
H1621 C1645 0.950 . S
H1622 C1646 0.950 . S
H1623 C1647 0.951 . S
H1624 C1649 0.951 . S
H1625 C1651 0.950 . S
H1626 C1652 0.950 . S
H1627 C1654 0.950 . S
H1628 C1657 0.950 . S
H1629 C1658 0.950 . S
H1630 C1660 0.950 . S
H1631 C1661 0.950 . S
C1632 H1614 0.951 . S
C1632 C1633 1.366 . S
C1632 C1634 1.388 . S
C1633 C1632 1.366 . S
C1633 C1637 1.385 . S
C1634 H1615 0.951 . S
C1634 C1632 1.388 . S
C1634 C1635 1.366 . S
C1635 C1634 1.366 . S
C1635 C1636 1.414 . S
C1635 C1638 1.499 . S
C1636 H1616 0.950 . S
C1636 C1635 1.414 . S
C1636 C1637 1.374 . S
C1637 H1617 0.950 . S
C1637 C1633 1.385 . S
C1637 C1636 1.374 . S
C1638 C1635 1.499 . S
C1638 C1639 1.373 . S
C1638 C1640 1.389 . S
C1639 H1618 0.950 . S
C1639 C1638 1.373 . S
C1639 C1655 1.377 . S
C1640 C1638 1.389 . S
C1640 C1641 1.524 . S
C1640 C1654 1.377 . S
C1641 C1640 1.524 . S
C1641 C1642 1.397 . S
C1641 C1646 1.363 . S
C1642 H1619 0.950 . S
C1642 C1641 1.397 . S
C1642 C1643 1.334 . S
C1643 H1620 0.950 . S
C1643 C1642 1.334 . S
C1643 C1644 1.287 . S
C1644 C1643 1.287 . S
C1644 C1645 1.524 . S
C1644 H1663 0.913 . S
C1645 H1621 0.950 . S
C1645 C1644 1.524 . S
C1645 C1646 1.415 . S
C1646 H1622 0.950 . S
C1646 C1641 1.363 . S
C1646 C1645 1.415 . S
C1647 H1623 0.951 . S
C1647 C1648 1.366 . S
C1647 C1649 1.388 . S
C1648 C1647 1.366 . S
C1648 C1652 1.385 . S
C1649 H1624 0.951 . S
C1649 C1647 1.388 . S
C1649 C1650 1.366 . S
C1650 C1649 1.366 . S
C1650 C1651 1.414 . S
C1650 C1653 1.499 . S
C1651 H1625 0.950 . S
C1651 C1650 1.414 . S
C1651 C1652 1.374 . S
C1652 H1626 0.950 . S
C1652 C1648 1.385 . S
C1652 C1651 1.374 . S
C1653 C1650 1.499 . S
C1653 C1654 1.373 . S
C1653 C1655 1.389 . S
C1654 H1627 0.950 . S
C1654 C1640 1.377 . S
C1654 C1653 1.373 . S
C1655 C1639 1.377 . S
C1655 C1653 1.389 . S
C1655 C1656 1.524 . S
C1656 C1655 1.524 . S
C1656 C1657 1.397 . S
C1656 C1661 1.363 . S
C1657 H1628 0.950 . S
C1657 C1656 1.397 . S
C1657 C1658 1.334 . S
C1658 H1629 0.950 . S
C1658 C1657 1.334 . S
C1658 C1659 1.287 . S
C1659 C1658 1.287 . S
C1659 C1660 1.524 . S
C1659 H1662 0.999 . S
C1660 H1630 0.950 . S
C1660 C1659 1.524 . S
C1660 C1661 1.415 . S
C1661 H1631 0.950 . S
C1661 C1656 1.363 . S
C1661 C1660 1.415 . S
H1662 C1659 0.999 . S
H1663 C1644 0.913 . S
H1664 C1682 0.951 . S
H1665 C1684 0.951 . S
H1666 C1686 0.950 . S
H1667 C1687 0.950 . S
H1668 C1689 0.950 . S
H1669 C1692 0.950 . S
H1670 C1693 0.950 . S
H1671 C1695 0.950 . S
H1672 C1696 0.950 . S
H1673 C1697 0.951 . S
H1674 C1699 0.951 . S
H1675 C1701 0.950 . S
H1676 C1702 0.950 . S
H1677 C1704 0.950 . S
H1678 C1707 0.950 . S
H1679 C1708 0.950 . S
H1680 C1710 0.950 . S
H1681 C1711 0.950 . S
C1682 H1664 0.951 . S
C1682 C1683 1.366 . S
C1682 C1684 1.388 . S
C1683 C1682 1.366 . S
C1683 C1687 1.385 . S
C1684 H1665 0.951 . S
C1684 C1682 1.388 . S
C1684 C1685 1.366 . S
C1685 C1684 1.366 . S
C1685 C1686 1.414 . S
C1685 C1688 1.499 . S
C1686 H1666 0.950 . S
C1686 C1685 1.414 . S
C1686 C1687 1.374 . S
C1687 H1667 0.950 . S
C1687 C1683 1.385 . S
C1687 C1686 1.374 . S
C1688 C1685 1.499 . S
C1688 C1689 1.373 . S
C1688 C1690 1.401 . S
C1689 H1668 0.950 . S
C1689 C1688 1.373 . S
C1689 C1705 1.369 1_455 S
C1690 C1688 1.401 . S
C1690 C1691 1.517 1_455 S
C1690 C1704 1.369 1_455 S
C1691 C1690 1.517 1_655 S
C1691 C1692 1.395 1_655 S
C1691 C1696 1.367 . S
C1692 H1669 0.950 . S
C1692 C1691 1.395 1_455 S
C1692 C1693 1.334 . S
C1693 H1670 0.950 . S
C1693 C1692 1.334 . S
C1693 C1694 1.287 . S
C1694 C1693 1.287 . S
C1694 C1695 1.524 1_455 S
C1694 H1713 0.913 . S
C1695 H1671 0.950 . S
C1695 C1694 1.524 1_655 S
C1695 C1696 1.415 . S
C1696 H1672 0.950 . S
C1696 C1691 1.367 . S
C1696 C1695 1.415 . S
C1697 H1673 0.951 . S
C1697 C1698 1.366 . S
C1697 C1699 1.388 . S
C1698 C1697 1.366 . S
C1698 C1702 1.385 . S
C1699 H1674 0.951 . S
C1699 C1697 1.388 . S
C1699 C1700 1.366 . S
C1700 C1699 1.366 . S
C1700 C1701 1.414 . S
C1700 C1703 1.499 . S
C1701 H1675 0.950 . S
C1701 C1700 1.414 . S
C1701 C1702 1.374 . S
C1702 H1676 0.950 . S
C1702 C1698 1.385 . S
C1702 C1701 1.374 . S
C1703 C1700 1.499 . S
C1703 C1704 1.373 . S
C1703 C1705 1.401 . S
C1704 H1677 0.950 . S
C1704 C1690 1.369 1_655 S
C1704 C1703 1.373 . S
C1705 C1689 1.369 1_655 S
C1705 C1703 1.401 . S
C1705 C1706 1.517 1_655 S
C1706 C1705 1.517 1_455 S
C1706 C1707 1.395 1_455 S
C1706 C1711 1.367 . S
C1707 H1678 0.950 . S
C1707 C1706 1.395 1_655 S
C1707 C1708 1.334 . S
C1708 H1679 0.950 . S
C1708 C1707 1.334 . S
C1708 C1709 1.287 . S
C1709 C1708 1.287 . S
C1709 C1710 1.524 1_655 S
C1709 H1712 0.999 . S
C1710 H1680 0.950 . S
C1710 C1709 1.524 1_455 S
C1710 C1711 1.415 . S
C1711 H1681 0.950 . S
C1711 C1706 1.367 . S
C1711 C1710 1.415 . S
H1712 C1709 0.999 . S
H1713 C1694 0.913 . S
H1714 C1732 0.951 . S
H1715 C1734 0.927 1_554 S
H1716 C1736 0.950 . S
H1717 C1737 0.950 . S
H1718 C1739 0.950 . S
H1719 C1742 0.950 1_556 S
H1720 C1743 0.950 1_556 S
H1721 C1745 0.950 . S
H1722 C1746 0.950 . S
H1723 C1747 0.951 . S
H1724 C1749 0.951 . S
H1725 C1751 0.950 . S
H1726 C1752 0.950 . S
H1727 C1754 0.950 . S
H1728 C1757 0.950 . S
H1729 C1758 0.950 . S
H1730 C1760 0.950 . S
H1731 C1761 0.950 . S
C1732 H1714 0.951 . S
C1732 C1733 1.366 . S
C1732 C1734 1.388 . S
C1733 C1732 1.366 . S
C1733 C1737 1.385 . S
C1734 H1715 0.927 1_556 S
C1734 C1732 1.388 . S
C1734 C1735 1.366 . S
C1735 C1734 1.366 . S
C1735 C1736 1.414 . S
C1735 C1738 1.499 . S
C1736 H1716 0.950 . S
C1736 C1735 1.414 . S
C1736 C1737 1.374 . S
C1737 H1717 0.950 . S
C1737 C1733 1.385 . S
C1737 C1736 1.374 . S
C1738 C1735 1.499 . S
C1738 C1739 1.373 1_545 S
C1738 C1740 1.389 1_556 S
C1739 H1718 0.950 . S
C1739 C1738 1.373 1_565 S
C1739 C1755 1.377 1_556 S
C1740 C1738 1.389 1_554 S
C1740 C1741 1.524 . S
C1740 C1754 1.377 . S
C1741 C1740 1.524 . S
C1741 C1742 1.397 . S
C1741 C1746 1.363 . S
C1742 H1719 0.950 1_554 S
C1742 C1741 1.397 . S
C1742 C1743 1.334 . S
C1743 H1720 0.950 1_554 S
C1743 C1742 1.334 . S
C1743 C1744 1.287 . S
C1744 C1743 1.287 . S
C1744 C1745 1.524 . S
C1744 H1763 0.913 . S
C1745 H1721 0.950 . S
C1745 C1744 1.524 . S
C1745 C1746 1.415 . S
C1746 H1722 0.950 . S
C1746 C1741 1.363 . S
C1746 C1745 1.415 . S
C1747 H1723 0.951 . S
C1747 C1748 1.366 . S
C1747 C1749 1.388 . S
C1748 C1747 1.366 . S
C1748 C1752 1.385 . S
C1749 H1724 0.951 . S
C1749 C1747 1.388 . S
C1749 C1750 1.366 . S
C1750 C1749 1.366 . S
C1750 C1751 1.414 . S
C1750 C1753 1.499 . S
C1751 H1725 0.950 . S
C1751 C1750 1.414 . S
C1751 C1752 1.374 . S
C1752 H1726 0.950 . S
C1752 C1748 1.385 . S
C1752 C1751 1.374 . S
C1753 C1750 1.499 . S
C1753 C1754 1.373 1_565 S
C1753 C1755 1.389 . S
C1754 H1727 0.950 . S
C1754 C1740 1.377 . S
C1754 C1753 1.373 1_545 S
C1755 C1739 1.377 1_554 S
C1755 C1753 1.389 . S
C1755 C1756 1.524 1_554 S
C1756 C1755 1.524 1_556 S
C1756 C1757 1.397 1_556 S
C1756 C1761 1.363 . S
C1757 H1728 0.950 . S
C1757 C1756 1.397 1_554 S
C1757 C1758 1.334 . S
C1758 H1729 0.950 . S
C1758 C1757 1.334 . S
C1758 C1759 1.287 1_554 S
C1759 C1758 1.287 1_556 S
C1759 C1760 1.524 . S
C1759 H1762 0.999 . S
C1760 H1730 0.950 . S
C1760 C1759 1.524 . S
C1760 C1761 1.415 . S
C1761 H1731 0.950 . S
C1761 C1756 1.363 . S
C1761 C1760 1.415 . S
H1762 C1759 0.999 . S
H1763 C1744 0.913 . S
H1764 C1782 0.951 . S
H1765 C1784 0.951 . S
H1766 C1786 0.950 . S
H1767 C1787 0.950 . S
H1768 C1789 0.950 . S
H1769 C1792 0.950 . S
H1770 C1793 0.950 . S
H1771 C1795 0.950 . S
H1772 C1796 0.950 . S
H1773 C1797 0.951 . S
H1774 C1799 0.951 . S
H1775 C1801 0.950 . S
H1776 C1802 0.950 . S
H1777 C1804 0.950 . S
H1778 C1807 0.950 . S
H1779 C1808 0.950 . S
H1780 C1810 0.950 . S
H1781 C1811 0.950 . S
C1782 H1764 0.951 . S
C1782 C1783 1.366 . S
C1782 C1784 1.388 . S
C1783 C1782 1.366 . S
C1783 C1787 1.385 . S
C1784 H1765 0.951 . S
C1784 C1782 1.388 . S
C1784 C1785 1.366 . S
C1785 C1784 1.366 . S
C1785 C1786 1.414 . S
C1785 C1788 1.499 . S
C1786 H1766 0.950 . S
C1786 C1785 1.414 . S
C1786 C1787 1.374 . S
C1787 H1767 0.950 . S
C1787 C1783 1.385 . S
C1787 C1786 1.374 . S
C1788 C1785 1.499 . S
C1788 C1789 1.373 . S
C1788 C1790 1.389 . S
C1789 H1768 0.950 . S
C1789 C1788 1.373 . S
C1789 C1805 1.377 . S
C1790 C1788 1.389 . S
C1790 C1791 1.524 . S
C1790 C1804 1.377 . S
C1791 C1790 1.524 . S
C1791 C1792 1.397 . S
C1791 C1796 1.363 . S
C1792 H1769 0.950 . S
C1792 C1791 1.397 . S
C1792 C1793 1.334 . S
C1793 H1770 0.950 . S
C1793 C1792 1.334 . S
C1793 C1794 1.287 . S
C1794 C1793 1.287 . S
C1794 C1795 1.524 . S
C1794 H1813 0.913 . S
C1795 H1771 0.950 . S
C1795 C1794 1.524 . S
C1795 C1796 1.415 . S
C1796 H1772 0.950 . S
C1796 C1791 1.363 . S
C1796 C1795 1.415 . S
C1797 H1773 0.951 . S
C1797 C1798 1.366 . S
C1797 C1799 1.388 . S
C1798 C1797 1.366 . S
C1798 C1802 1.385 . S
C1799 H1774 0.951 . S
C1799 C1797 1.388 . S
C1799 C1800 1.366 . S
C1800 C1799 1.366 . S
C1800 C1801 1.414 . S
C1800 C1803 1.499 . S
C1801 H1775 0.950 . S
C1801 C1800 1.414 . S
C1801 C1802 1.374 . S
C1802 H1776 0.950 . S
C1802 C1798 1.385 . S
C1802 C1801 1.374 . S
C1803 C1800 1.499 . S
C1803 C1804 1.373 . S
C1803 C1805 1.389 . S
C1804 H1777 0.950 . S
C1804 C1790 1.377 . S
C1804 C1803 1.373 . S
C1805 C1789 1.377 . S
C1805 C1803 1.389 . S
C1805 C1806 1.524 . S
C1806 C1805 1.524 . S
C1806 C1807 1.397 . S
C1806 C1811 1.363 . S
C1807 H1778 0.950 . S
C1807 C1806 1.397 . S
C1807 C1808 1.334 . S
C1808 H1779 0.950 . S
C1808 C1807 1.334 . S
C1808 C1809 1.287 . S
C1809 C1808 1.287 . S
C1809 C1810 1.524 . S
C1809 H1812 0.999 . S
C1810 H1780 0.950 . S
C1810 C1809 1.524 . S
C1810 C1811 1.415 . S
C1811 H1781 0.950 . S
C1811 C1806 1.363 . S
C1811 C1810 1.415 . S
H1812 C1809 0.999 . S
H1813 C1794 0.913 . S
H1814 C1832 0.951 . S
H1815 C1834 0.951 . S
H1816 C1836 0.950 . S
H1817 C1837 0.950 . S
H1818 C1839 0.950 . S
H1819 C1842 0.950 . S
H1820 C1843 0.950 . S
H1821 C1845 0.950 . S
H1822 C1846 0.950 . S
H1823 C1847 0.951 . S
H1824 C1849 0.951 . S
H1825 C1851 0.950 . S
H1826 C1852 0.950 . S
H1827 C1854 0.950 . S
H1828 C1857 0.950 . S
H1829 C1858 0.950 . S
H1830 C1860 0.950 . S
H1831 C1861 0.950 . S
C1832 H1814 0.951 . S
C1832 C1833 1.366 . S
C1832 C1834 1.388 . S
C1833 C1832 1.366 . S
C1833 C1837 1.385 . S
C1834 H1815 0.951 . S
C1834 C1832 1.388 . S
C1834 C1835 1.366 . S
C1835 C1834 1.366 . S
C1835 C1836 1.414 . S
C1835 C1838 1.499 . S
C1836 H1816 0.950 . S
C1836 C1835 1.414 . S
C1836 C1837 1.374 . S
C1837 H1817 0.950 . S
C1837 C1833 1.385 . S
C1837 C1836 1.374 . S
C1838 C1835 1.499 . S
C1838 C1839 1.373 . S
C1838 C1840 1.389 . S
C1839 H1818 0.950 . S
C1839 C1838 1.373 . S
C1839 C1855 1.377 . S
C1840 C1838 1.389 . S
C1840 C1841 1.524 . S
C1840 C1854 1.377 . S
C1841 C1840 1.524 . S
C1841 C1842 1.397 . S
C1841 C1846 1.363 . S
C1842 H1819 0.950 . S
C1842 C1841 1.397 . S
C1842 C1843 1.334 . S
C1843 H1820 0.950 . S
C1843 C1842 1.334 . S
C1843 C1844 1.287 . S
C1844 C1843 1.287 . S
C1844 C1845 1.524 . S
C1844 H1863 0.913 . S
C1845 H1821 0.950 . S
C1845 C1844 1.524 . S
C1845 C1846 1.415 . S
C1846 H1822 0.950 . S
C1846 C1841 1.363 . S
C1846 C1845 1.415 . S
C1847 H1823 0.951 . S
C1847 C1848 1.366 . S
C1847 C1849 1.388 . S
C1848 C1847 1.366 . S
C1848 C1852 1.385 . S
C1849 H1824 0.951 . S
C1849 C1847 1.388 . S
C1849 C1850 1.366 . S
C1850 C1849 1.366 . S
C1850 C1851 1.414 . S
C1850 C1853 1.499 . S
C1851 H1825 0.950 . S
C1851 C1850 1.414 . S
C1851 C1852 1.374 . S
C1852 H1826 0.950 . S
C1852 C1848 1.385 . S
C1852 C1851 1.374 . S
C1853 C1850 1.499 . S
C1853 C1854 1.373 . S
C1853 C1855 1.389 . S
C1854 H1827 0.950 . S
C1854 C1840 1.377 . S
C1854 C1853 1.373 . S
C1855 C1839 1.377 . S
C1855 C1853 1.389 . S
C1855 C1856 1.524 . S
C1856 C1855 1.524 . S
C1856 C1857 1.397 . S
C1856 C1861 1.363 . S
C1857 H1828 0.950 . S
C1857 C1856 1.397 . S
C1857 C1858 1.334 . S
C1858 H1829 0.950 . S
C1858 C1857 1.334 . S
C1858 C1859 1.287 . S
C1859 C1858 1.287 . S
C1859 C1860 1.524 . S
C1859 H1862 0.999 . S
C1860 H1830 0.950 . S
C1860 C1859 1.524 . S
C1860 C1861 1.415 . S
C1861 H1831 0.950 . S
C1861 C1856 1.363 . S
C1861 C1860 1.415 . S
H1862 C1859 0.999 . S
H1863 C1844 0.913 . S
H1864 C1882 0.951 . S
H1865 C1884 0.951 . S
H1866 C1886 0.950 . S
H1867 C1887 0.950 . S
H1868 C1889 0.950 . S
H1869 C1892 0.950 . S
H1870 C1893 0.950 . S
H1871 C1895 0.950 . S
H1872 C1896 0.950 . S
H1873 C1897 0.951 . S
H1874 C1899 0.951 . S
H1875 C1901 0.950 . S
H1876 C1902 0.950 . S
H1877 C1904 0.950 . S
H1878 C1907 0.950 . S
H1879 C1908 0.950 . S
H1880 C1910 0.950 . S
H1881 C1911 0.950 . S
C1882 H1864 0.951 . S
C1882 C1883 1.366 . S
C1882 C1884 1.388 . S
C1883 C1882 1.366 . S
C1883 C1887 1.385 . S
C1884 H1865 0.951 . S
C1884 C1882 1.388 . S
C1884 C1885 1.366 . S
C1885 C1884 1.366 . S
C1885 C1886 1.414 . S
C1885 C1888 1.499 . S
C1886 H1866 0.950 . S
C1886 C1885 1.414 . S
C1886 C1887 1.374 . S
C1887 H1867 0.950 . S
C1887 C1883 1.385 . S
C1887 C1886 1.374 . S
C1888 C1885 1.499 . S
C1888 C1889 1.373 . S
C1888 C1890 1.389 . S
C1889 H1868 0.950 . S
C1889 C1888 1.373 . S
C1889 C1905 1.377 . S
C1890 C1888 1.389 . S
C1890 C1891 1.524 . S
C1890 C1904 1.377 . S
C1891 C1890 1.524 . S
C1891 C1892 1.397 . S
C1891 C1896 1.363 . S
C1892 H1869 0.950 . S
C1892 C1891 1.397 . S
C1892 C1893 1.334 . S
C1893 H1870 0.950 . S
C1893 C1892 1.334 . S
C1893 C1894 1.287 . S
C1894 C1893 1.287 . S
C1894 C1895 1.524 . S
C1894 H1913 0.913 . S
C1895 H1871 0.950 . S
C1895 C1894 1.524 . S
C1895 C1896 1.415 . S
C1896 H1872 0.950 . S
C1896 C1891 1.363 . S
C1896 C1895 1.415 . S
C1897 H1873 0.951 . S
C1897 C1898 1.366 . S
C1897 C1899 1.388 . S
C1898 C1897 1.366 . S
C1898 C1902 1.385 . S
C1899 H1874 0.951 . S
C1899 C1897 1.388 . S
C1899 C1900 1.366 . S
C1900 C1899 1.366 . S
C1900 C1901 1.414 . S
C1900 C1903 1.499 . S
C1901 H1875 0.950 . S
C1901 C1900 1.414 . S
C1901 C1902 1.374 . S
C1902 H1876 0.950 . S
C1902 C1898 1.385 . S
C1902 C1901 1.374 . S
C1903 C1900 1.499 . S
C1903 C1904 1.373 . S
C1903 C1905 1.389 . S
C1904 H1877 0.950 . S
C1904 C1890 1.377 . S
C1904 C1903 1.373 . S
C1905 C1889 1.377 . S
C1905 C1903 1.389 . S
C1905 C1906 1.524 . S
C1906 C1905 1.524 . S
C1906 C1907 1.397 . S
C1906 C1911 1.363 . S
C1907 H1878 0.950 . S
C1907 C1906 1.397 . S
C1907 C1908 1.334 . S
C1908 H1879 0.950 . S
C1908 C1907 1.334 . S
C1908 C1909 1.287 . S
C1909 C1908 1.287 . S
C1909 C1910 1.524 . S
C1909 H1912 0.999 . S
C1910 H1880 0.950 . S
C1910 C1909 1.524 . S
C1910 C1911 1.415 . S
C1911 H1881 0.950 . S
C1911 C1906 1.363 . S
C1911 C1910 1.415 . S
H1912 C1909 0.999 . S
H1913 C1894 0.913 . S
H1914 C1932 0.951 . S
H1915 C1934 0.951 . S
H1916 C1936 0.950 . S
H1917 C1937 0.950 . S
H1918 C1939 0.950 . S
H1919 C1942 0.950 . S
H1920 C1943 0.950 . S
H1921 C1945 0.950 . S
H1922 C1946 0.950 . S
H1923 C1947 0.951 . S
H1924 C1949 0.951 . S
H1925 C1951 0.950 . S
H1926 C1952 0.950 . S
H1927 C1954 0.950 . S
H1928 C1957 0.950 . S
H1929 C1958 0.950 . S
H1930 C1960 0.950 . S
H1931 C1961 0.950 . S
C1932 H1914 0.951 . S
C1932 C1933 1.366 . S
C1932 C1934 1.388 . S
C1933 C1932 1.366 . S
C1933 C1937 1.385 . S
C1934 H1915 0.951 . S
C1934 C1932 1.388 . S
C1934 C1935 1.366 . S
C1935 C1934 1.366 . S
C1935 C1936 1.414 . S
C1935 C1938 1.499 . S
C1936 H1916 0.950 . S
C1936 C1935 1.414 . S
C1936 C1937 1.374 . S
C1937 H1917 0.950 . S
C1937 C1933 1.385 . S
C1937 C1936 1.374 . S
C1938 C1935 1.499 . S
C1938 C1939 1.373 . S
C1938 C1940 1.389 . S
C1939 H1918 0.950 . S
C1939 C1938 1.373 . S
C1939 C1955 1.377 . S
C1940 C1938 1.389 . S
C1940 C1941 1.524 . S
C1940 C1954 1.377 . S
C1941 C1940 1.524 . S
C1941 C1942 1.397 . S
C1941 C1946 1.363 . S
C1942 H1919 0.950 . S
C1942 C1941 1.397 . S
C1942 C1943 1.334 . S
C1943 H1920 0.950 . S
C1943 C1942 1.334 . S
C1943 C1944 1.287 . S
C1944 C1943 1.287 . S
C1944 C1945 1.524 . S
C1944 H1963 0.913 . S
C1945 H1921 0.950 . S
C1945 C1944 1.524 . S
C1945 C1946 1.415 . S
C1946 H1922 0.950 . S
C1946 C1941 1.363 . S
C1946 C1945 1.415 . S
C1947 H1923 0.951 . S
C1947 C1948 1.366 . S
C1947 C1949 1.388 . S
C1948 C1947 1.366 . S
C1948 C1952 1.385 . S
C1949 H1924 0.951 . S
C1949 C1947 1.388 . S
C1949 C1950 1.366 . S
C1950 C1949 1.366 . S
C1950 C1951 1.414 . S
C1950 C1953 1.499 . S
C1951 H1925 0.950 . S
C1951 C1950 1.414 . S
C1951 C1952 1.374 . S
C1952 H1926 0.950 . S
C1952 C1948 1.385 . S
C1952 C1951 1.374 . S
C1953 C1950 1.499 . S
C1953 C1954 1.373 . S
C1953 C1955 1.389 . S
C1954 H1927 0.950 . S
C1954 C1940 1.377 . S
C1954 C1953 1.373 . S
C1955 C1939 1.377 . S
C1955 C1953 1.389 . S
C1955 C1956 1.524 . S
C1956 C1955 1.524 . S
C1956 C1957 1.397 . S
C1956 C1961 1.363 . S
C1957 H1928 0.950 . S
C1957 C1956 1.397 . S
C1957 C1958 1.334 . S
C1958 H1929 0.950 . S
C1958 C1957 1.334 . S
C1958 C1959 1.287 . S
C1959 C1958 1.287 . S
C1959 C1960 1.524 . S
C1959 H1962 0.999 . S
C1960 H1930 0.950 . S
C1960 C1959 1.524 . S
C1960 C1961 1.415 . S
C1961 H1931 0.950 . S
C1961 C1956 1.363 . S
C1961 C1960 1.415 . S
H1962 C1959 0.999 . S
H1963 C1944 0.913 . S
H1964 C1982 0.951 . S
H1965 C1984 0.951 . S
H1966 C1986 0.950 . S
H1967 C1987 0.950 . S
H1968 C1989 0.950 . S
H1969 C1992 0.950 . S
H1970 C1993 0.950 . S
H1971 C1995 0.950 . S
H1972 C1996 0.950 . S
H1973 C1997 0.951 . S
H1974 C1999 0.951 1_556 S
H1975 C2001 0.950 . S
H1976 C2002 0.950 . S
H1977 C2004 0.950 . S
H1978 C2007 0.950 1_554 S
H1979 C2008 0.950 . S
H1980 C2010 0.950 . S
H1981 C2011 0.950 . S
C1982 H1964 0.951 . S
C1982 C1983 1.366 . S
C1982 C1984 1.388 . S
C1983 C1982 1.366 . S
C1983 C1987 1.385 . S
C1984 H1965 0.951 . S
C1984 C1982 1.388 . S
C1984 C1985 1.366 . S
C1985 C1984 1.366 . S
C1985 C1986 1.414 . S
C1985 C1988 1.499 . S
C1986 H1966 0.950 . S
C1986 C1985 1.414 . S
C1986 C1987 1.374 . S
C1987 H1967 0.950 . S
C1987 C1983 1.385 . S
C1987 C1986 1.374 . S
C1988 C1985 1.499 . S
C1988 C1989 1.373 . S
C1988 C1990 1.389 . S
C1989 H1968 0.950 . S
C1989 C1988 1.373 . S
C1989 C2005 1.377 . S
C1990 C1988 1.389 . S
C1990 C1991 1.524 . S
C1990 C2004 1.377 . S
C1991 C1990 1.524 . S
C1991 C1992 1.397 . S
C1991 C1996 1.363 . S
C1992 H1969 0.950 . S
C1992 C1991 1.397 . S
C1992 C1993 1.334 . S
C1993 H1970 0.950 . S
C1993 C1992 1.334 . S
C1993 C1994 1.287 . S
C1994 C1993 1.287 . S
C1994 C1995 1.524 . S
C1994 H2013 0.913 . S
C1995 H1971 0.950 . S
C1995 C1994 1.524 . S
C1995 C1996 1.415 . S
C1996 H1972 0.950 . S
C1996 C1991 1.363 . S
C1996 C1995 1.415 . S
C1997 H1973 0.951 . S
C1997 C1998 1.366 . S
C1997 C1999 1.388 . S
C1998 C1997 1.366 . S
C1998 C2002 1.385 . S
C1999 H1974 0.951 1_554 S
C1999 C1997 1.388 . S
C1999 C2000 1.366 . S
C2000 C1999 1.366 . S
C2000 C2001 1.414 . S
C2000 C2003 1.499 1_554 S
C2001 H1975 0.950 . S
C2001 C2000 1.414 . S
C2001 C2002 1.374 . S
C2002 H1976 0.950 . S
C2002 C1998 1.385 . S
C2002 C2001 1.374 . S
C2003 C2000 1.499 1_556 S
C2003 C2004 1.373 . S
C2003 C2005 1.389 . S
C2004 H1977 0.950 . S
C2004 C1990 1.377 . S
C2004 C2003 1.373 . S
C2005 C1989 1.377 . S
C2005 C2003 1.389 . S
C2005 C2006 1.524 . S
C2006 C2005 1.524 . S
C2006 C2007 1.397 . S
C2006 C2011 1.363 . S
C2007 H1978 0.950 1_556 S
C2007 C2006 1.397 . S
C2007 C2008 1.334 1_556 S
C2008 H1979 0.950 . S
C2008 C2007 1.334 1_554 S
C2008 C2009 1.296 . S
C2009 C2008 1.296 . S
C2009 C2010 1.506 1_554 S
C2009 H2012 1.010 . S
C2010 H1980 0.950 . S
C2010 C2009 1.506 1_556 S
C2010 C2011 1.415 . S
C2011 H1981 0.950 . S
C2011 C2006 1.363 . S
C2011 C2010 1.415 . S
H2012 C2009 1.010 . S
H2013 C1994 0.913 . S
H2014 C2032 0.951 . S
H2015 C2034 0.951 . S
H2016 C2036 0.950 . S
H2017 C2037 0.950 . S
H2018 C2039 0.950 . S
H2019 C2042 0.950 . S
H2020 C2043 0.950 1_556 S
H2021 C2045 0.950 . S
H2022 C2046 0.950 . S
H2023 C2047 0.951 . S
H2024 C2049 0.951 . S
H2025 C2051 0.950 . S
H2026 C2052 0.950 . S
H2027 C2054 0.950 . S
H2028 C2057 0.950 . S
H2029 C2058 0.950 . S
H2030 C2060 0.950 . S
H2031 C2061 0.950 . S
C2032 H2014 0.951 . S
C2032 C2033 1.366 . S
C2032 C2034 1.388 1_556 S
C2033 C2032 1.366 . S
C2033 C2037 1.385 . S
C2034 H2015 0.951 . S
C2034 C2032 1.388 1_554 S
C2034 C2035 1.366 . S
C2035 C2034 1.366 . S
C2035 C2036 1.414 . S
C2035 C2038 1.499 . S
C2036 H2016 0.950 . S
C2036 C2035 1.414 . S
C2036 C2037 1.374 1_554 S
C2037 H2017 0.950 . S
C2037 C2033 1.385 . S
C2037 C2036 1.374 1_556 S
C2038 C2035 1.499 . S
C2038 C2039 1.373 . S
C2038 C2040 1.389 . S
C2039 H2018 0.950 . S
C2039 C2038 1.373 . S
C2039 C2055 1.377 . S
C2040 C2038 1.389 . S
C2040 C2041 1.524 . S
C2040 C2054 1.377 . S
C2041 C2040 1.524 . S
C2041 C2042 1.397 . S
C2041 C2046 1.363 . S
C2042 H2019 0.950 . S
C2042 C2041 1.397 . S
C2042 C2043 1.334 . S
C2043 H2020 0.950 1_554 S
C2043 C2042 1.334 . S
C2043 C2044 1.287 . S
C2044 C2043 1.287 . S
C2044 C2045 1.524 . S
C2044 H2063 0.913 . S
C2045 H2021 0.950 . S
C2045 C2044 1.524 . S
C2045 C2046 1.415 . S
C2046 H2022 0.950 . S
C2046 C2041 1.363 . S
C2046 C2045 1.415 . S
C2047 H2023 0.951 . S
C2047 C2048 1.366 . S
C2047 C2049 1.388 . S
C2048 C2047 1.366 . S
C2048 C2052 1.385 . S
C2049 H2024 0.951 . S
C2049 C2047 1.388 . S
C2049 C2050 1.366 . S
C2050 C2049 1.366 . S
C2050 C2051 1.414 . S
C2050 C2053 1.499 . S
C2051 H2025 0.950 . S
C2051 C2050 1.414 . S
C2051 C2052 1.374 . S
C2052 H2026 0.950 . S
C2052 C2048 1.385 . S
C2052 C2051 1.374 . S
C2053 C2050 1.499 . S
C2053 C2054 1.373 . S
C2053 C2055 1.389 . S
C2054 H2027 0.950 . S
C2054 C2040 1.377 . S
C2054 C2053 1.373 . S
C2055 C2039 1.377 . S
C2055 C2053 1.389 . S
C2055 C2056 1.524 . S
C2056 C2055 1.524 . S
C2056 C2057 1.397 . S
C2056 C2061 1.363 . S
C2057 H2028 0.950 . S
C2057 C2056 1.397 . S
C2057 C2058 1.334 . S
C2058 H2029 0.950 . S
C2058 C2057 1.334 . S
C2058 C2059 1.287 . S
C2059 C2058 1.287 . S
C2059 C2060 1.524 . S
C2059 H2062 0.999 . S
C2060 H2030 0.950 . S
C2060 C2059 1.524 . S
C2060 C2061 1.415 . S
C2061 H2031 0.950 . S
C2061 C2056 1.363 . S
C2061 C2060 1.415 . S
H2062 C2059 0.999 . S
H2063 C2044 0.913 . S
C283 C229 1.119 . S
C298 C5 1.119 . S
C333 C31 1.119 . S
C348 C247 1.119 . S
C383 C141 1.119 . S
C398 C49 1.119 . S
C433 C75 1.119 . S
C448 C159 1.119 . S
C483 C93 1.119 . S
C498 C185 1.119 . S
C533 C203 1.119 . S
C548 C119 1.119 . S
C583 C6 1.145 . S
C598 C116 1.211 . S
C633 C29 1.146 . S
C648 C7 1.211 . S
C683 C28 1.211 . S
C698 C50 1.146 . S
C733 C73 1.145 . S
C748 C51 1.211 . S
C783 C94 1.146 . S
C798 C72 1.211 . S
C833 C117 1.144 . S
C848 C95 1.210 . S
C883 C139 1.144 . S
C898 C161 1.210 1_556 S
C933 C160 1.144 . S
C948 C182 1.210 . S
C983 C183 1.146 . S
C998 C205 1.211 . S
C1033 C226 1.211 . S
C1048 C204 1.145 . S
C1083 C249 1.210 . S
C1098 C227 1.144 . S
C1133 C138 1.210 . S
C1148 C248 1.144 . S
C1183 C4 1.219 . S
C1198 C140 1.219 . S
C1233 C158 1.219 . S
C1248 C30 1.219 . S
C1283 C48 1.219 . S
C1298 C184 1.219 . S
C1333 C74 1.219 . S
C1348 C202 1.219 . S
C1383 C228 1.220 . S
C1398 C92 1.219 . S
C1433 C118 1.219 . S
C1448 C246 1.219 . S
C1483 C9 0.993 . S
C1498 C207 0.991 . S
C1533 C225 0.993 . S
C1548 C27 0.992 . S
C1583 C251 0.993 . S
C1598 C53 0.991 . S
C1633 C71 0.993 . S
C1648 C137 0.991 . S
C1683 C97 0.992 . S
C1698 C163 0.993 . S
C1733 C115 0.992 . S
C1748 C181 0.991 . S
C1783 C224 1.766 . S
C1798 C8 1.765 . S
C1833 C250 1.765 . S
C1848 C26 1.765 . S
C1883 C136 1.765 . S
C1898 C52 1.765 . S
C1933 C162 1.766 . S
C1948 C70 1.765 . S
C1983 C96 1.766 . S
C1998 C180 1.765 . S
C2033 C114 1.766 . S
C2048 C206 1.765 . S
