# Generated by pormake.
# Topology umo, (4)-cn, num edge types: 1
# Building blocks:
#     Node 0, Type 0, BuildingBlock: NAWXER_clean_sbu_0, # of connection points: 4
#     Node 1, Type 0, BuildingBlock: NAWXER_clean_sbu_0, # of connection points: 4
#     Node 2, Type 0, BuildingBlock: NAWXER_clean_sbu_0, # of connection points: 4
#     Node 3, Type 0, BuildingBlock: NAWXER_clean_sbu_0, # of connection points: 4
#     Node 4, Type 0, BuildingBlock: NAWXER_clean_sbu_0, # of connection points: 4
#     Node 5, Type 0, BuildingBlock: NAWXER_clean_sbu_0, # of connection points: 4
#     Node 6, Type 0, BuildingBlock: NAWXER_clean_sbu_0, # of connection points: 4
#     Node 7, Type 0, BuildingBlock: NAWXER_clean_sbu_0, # of connection points: 4
#     Node 8, Type 0, BuildingBlock: NAWXER_clean_sbu_0, # of connection points: 4
#     Node 9, Type 0, BuildingBlock: NAWXER_clean_sbu_0, # of connection points: 4
#     Node 10, Type 0, BuildingBlock: NAWXER_clean_sbu_0, # of connection points: 4
#     Node 11, Type 0, BuildingBlock: NAWXER_clean_sbu_0, # of connection points: 4
#     Edge 12, Type (0, 0), BuildingBlock: ZUJKAS_clean_linker_0, # of connection points: 2
#     Edge 13, Type (0, 0), BuildingBlock: ZUJKAS_clean_linker_0, # of connection points: 2
#     Edge 14, Type (0, 0), BuildingBlock: ZUJKAS_clean_linker_0, # of connection points: 2
#     Edge 15, Type (0, 0), BuildingBlock: ZUJKAS_clean_linker_0, # of connection points: 2
#     Edge 16, Type (0, 0), BuildingBlock: ZUJKAS_clean_linker_0, # of connection points: 2
#     Edge 17, Type (0, 0), BuildingBlock: ZUJKAS_clean_linker_0, # of connection points: 2
#     Edge 18, Type (0, 0), BuildingBlock: ZUJKAS_clean_linker_0, # of connection points: 2
#     Edge 19, Type (0, 0), BuildingBlock: ZUJKAS_clean_linker_0, # of connection points: 2
#     Edge 20, Type (0, 0), BuildingBlock: ZUJKAS_clean_linker_0, # of connection points: 2
#     Edge 21, Type (0, 0), BuildingBlock: ZUJKAS_clean_linker_0, # of connection points: 2
#     Edge 22, Type (0, 0), BuildingBlock: ZUJKAS_clean_linker_0, # of connection points: 2
#     Edge 23, Type (0, 0), BuildingBlock: ZUJKAS_clean_linker_0, # of connection points: 2
#     Edge 24, Type (0, 0), BuildingBlock: ZUJKAS_clean_linker_0, # of connection points: 2
#     Edge 25, Type (0, 0), BuildingBlock: ZUJKAS_clean_linker_0, # of connection points: 2
#     Edge 26, Type (0, 0), BuildingBlock: ZUJKAS_clean_linker_0, # of connection points: 2
#     Edge 27, Type (0, 0), BuildingBlock: ZUJKAS_clean_linker_0, # of connection points: 2
#     Edge 28, Type (0, 0), BuildingBlock: ZUJKAS_clean_linker_0, # of connection points: 2
#     Edge 29, Type (0, 0), BuildingBlock: ZUJKAS_clean_linker_0, # of connection points: 2
#     Edge 30, Type (0, 0), BuildingBlock: ZUJKAS_clean_linker_0, # of connection points: 2
#     Edge 31, Type (0, 0), BuildingBlock: ZUJKAS_clean_linker_0, # of connection points: 2
#     Edge 32, Type (0, 0), BuildingBlock: ZUJKAS_clean_linker_0, # of connection points: 2
#     Edge 33, Type (0, 0), BuildingBlock: ZUJKAS_clean_linker_0, # of connection points: 2
#     Edge 34, Type (0, 0), BuildingBlock: ZUJKAS_clean_linker_0, # of connection points: 2
#     Edge 35, Type (0, 0), BuildingBlock: ZUJKAS_clean_linker_0, # of connection points: 2
# Relax obj value: 0.169
# Max RMSD: 0.217
# Mean RMSD: 0.217
data_MOF--net-umo--node1-NAWXER_clean_sbu_0--edge1-ZUJKAS_clean_linker_0
_symmetry_space_group_name_H-M    P1
_symmetry_Int_Tables_number       1
_symmetry_cell_setting            triclinic
loop_
_symmetry_equiv_pos_as_xyz
'x, y, z'
_cell_length_a     64.057397
_cell_length_b     64.07461
_cell_length_c     48.423254
_cell_angle_alpha  89.985138
_cell_angle_beta   89.990541
_cell_angle_gamma 119.9777
loop_
_atom_site_label
_atom_site_type_symbol
_atom_site_fract_x
_atom_site_fract_y
_atom_site_fract_z
_atom_type_partial_charge
C0 C 0.1954 0.57093 0.41116 0.0
C1 C 0.11469 0.50685 0.39044 0.0
O2 O 0.19117 0.55083 0.42184 0.0
Zn3 Zn 0.16151 0.51392 0.42275 0.0
O4 O 0.17936 0.57187 0.39666 0.0
Zn5 Zn 0.15543 0.53884 0.40084 0.0
O6 O 0.14821 0.53694 0.44447 0.0
O7 O 0.15509 0.50923 0.46214 0.0
O8 O 0.12511 0.52893 0.38379 0.0
O9 O 0.12608 0.49895 0.40489 0.0
O10 O 0.175 0.49648 0.4038 0.0
O11 O 0.17068 0.52174 0.37679 0.0
C12 C 0.14899 0.52515 0.46548 0.0
C13 C 0.17737 0.50611 0.38019 0.0
C14 C 0.60273 0.11717 0.55461 0.0
C15 C 0.61617 0.19735 0.57152 0.0
O16 O 0.6221 0.12962 0.56864 0.0
Zn17 Zn 0.64132 0.16566 0.58534 0.0
O18 O 0.5901 0.12649 0.5477 0.0
Zn19 Zn 0.60971 0.15749 0.56343 0.0
O20 O 0.64198 0.17276 0.53896 0.0
O21 O 0.6722 0.17979 0.5665 0.0
O22 O 0.59919 0.18027 0.55811 0.0
O23 O 0.63275 0.19433 0.5824 0.0
O24 O 0.64008 0.16059 0.62501 0.0
O25 O 0.60491 0.1516 0.60719 0.0
C26 C 0.66452 0.18055 0.54252 0.0
C27 C 0.61786 0.15365 0.62833 0.0
C28 C 0.48315 0.66915 0.71298 0.0
C29 C 0.4609 0.62171 0.79848 0.0
O30 O 0.46846 0.64664 0.70914 0.0
Zn31 Zn 0.45049 0.61426 0.73323 0.0
O32 O 0.4909 0.6767 0.73721 0.0
Zn33 Zn 0.47352 0.64564 0.75574 0.0
O34 O 0.49053 0.62632 0.73954 0.0
O35 O 0.46191 0.59459 0.71796 0.0
O36 O 0.4761 0.64399 0.79556 0.0
O37 O 0.45056 0.60893 0.77705 0.0
O38 O 0.41751 0.6044 0.72629 0.0
O39 O 0.43661 0.63753 0.75137 0.0
C40 C 0.48375 0.60706 0.72535 0.0
C41 C 0.41731 0.62138 0.73957 0.0
C42 C 0.78733 0.41688 0.90518 0.0
C43 C 0.86814 0.48089 0.88551 0.0
O44 O 0.79144 0.43685 0.91611 0.0
Zn45 Zn 0.82131 0.47362 0.91804 0.0
O46 O 0.80365 0.41615 0.89106 0.0
Zn47 Zn 0.82749 0.4491 0.89559 0.0
O48 O 0.83474 0.45052 0.93919 0.0
O49 O 0.82735 0.4777 0.95741 0.0
O50 O 0.8575 0.459 0.87808 0.0
O51 O 0.85705 0.48872 0.90062 0.0
O52 O 0.80801 0.49144 0.89971 0.0
O53 O 0.81275 0.46689 0.87194 0.0
C54 C 0.83372 0.46196 0.96041 0.0
C55 C 0.80608 0.48249 0.87579 0.0
C56 C 0.38009 0.87182 0.05768 0.0
C57 C 0.365 0.79112 0.07478 0.0
O58 O 0.36071 0.85972 0.0718 0.0
Zn59 Zn 0.34083 0.82376 0.08854 0.0
O60 O 0.39232 0.86206 0.05076 0.0
Zn61 Zn 0.37228 0.83124 0.06672 0.0
O62 O 0.34003 0.81624 0.04226 0.0
O63 O 0.31006 0.81054 0.06953 0.0
O64 O 0.38225 0.80809 0.06154 0.0
O65 O 0.34859 0.79448 0.0856 0.0
O66 O 0.34218 0.82888 0.12825 0.0
O67 O 0.37717 0.83725 0.11044 0.0
C68 C 0.31761 0.80914 0.04569 0.0
C69 C 0.36433 0.8355 0.13158 0.0
C70 C 0.50169 0.32041 0.20917 0.0
C71 C 0.52395 0.36883 0.29373 0.0
O72 O 0.51645 0.34284 0.20497 0.0
Zn73 Zn 0.53454 0.37548 0.22842 0.0
O74 O 0.49401 0.31315 0.23349 0.0
Zn75 Zn 0.5114 0.34443 0.25151 0.0
O76 O 0.49456 0.36364 0.23478 0.0
O77 O 0.52306 0.39504 0.21258 0.0
O78 O 0.50845 0.3466 0.29115 0.0
O79 O 0.5345 0.38127 0.27215 0.0
O80 O 0.56754 0.38513 0.22178 0.0
O81 O 0.54841 0.35257 0.24781 0.0
C82 C 0.50126 0.3827 0.22021 0.0
C83 C 0.56776 0.36852 0.23587 0.0
C84 C 0.48213 0.8102 0.4856 0.0
C85 C 0.45934 0.8353 0.40039 0.0
O86 O 0.4672 0.81771 0.48952 0.0
Zn87 Zn 0.44891 0.83187 0.46572 0.0
O88 O 0.49 0.81066 0.46135 0.0
Zn89 Zn 0.4723 0.82411 0.44293 0.0
O90 O 0.48878 0.86032 0.45918 0.0
O91 O 0.45999 0.86291 0.48111 0.0
O92 O 0.47503 0.82881 0.40314 0.0
O93 O 0.44877 0.83724 0.42192 0.0
O94 O 0.41605 0.80841 0.47257 0.0
O95 O 0.43544 0.79499 0.44695 0.0
C96 C 0.4818 0.87259 0.47348 0.0
C97 C 0.41604 0.79152 0.45885 0.0
C98 C 0.61918 0.46387 0.56239 0.0
C99 C 0.66502 0.48376 0.64876 0.0
O100 O 0.60604 0.45304 0.58342 0.0
Zn101 Zn 0.61042 0.45198 0.62722 0.0
O102 O 0.64139 0.47904 0.56589 0.0
Zn103 Zn 0.64231 0.47523 0.60562 0.0
O104 O 0.6336 0.43799 0.60889 0.0
O105 O 0.59982 0.4187 0.63284 0.0
O106 O 0.67304 0.49188 0.62476 0.0
O107 O 0.64242 0.46913 0.65209 0.0
O108 O 0.59074 0.46345 0.64247 0.0
O109 O 0.62315 0.49225 0.62205 0.0
C110 C 0.61688 0.41846 0.61976 0.0
C111 C 0.60365 0.48544 0.6358 0.0
C112 C 0.17909 0.66968 0.81809 0.0
C113 C 0.14981 0.62014 0.73437 0.0
O114 O 0.173 0.6476 0.82203 0.0
Zn115 Zn 0.15788 0.61482 0.79919 0.0
O116 O 0.17601 0.67627 0.79439 0.0
Zn117 Zn 0.16287 0.64496 0.77618 0.0
O118 O 0.12762 0.62398 0.79439 0.0
O119 O 0.12825 0.59468 0.81763 0.0
O120 O 0.15583 0.64221 0.73693 0.0
O121 O 0.14958 0.60822 0.75578 0.0
O122 O 0.18229 0.60639 0.80312 0.0
O123 O 0.19296 0.63834 0.77672 0.0
C124 C 0.11706 0.60533 0.80998 0.0
C125 C 0.19777 0.623 0.78778 0.0
C126 C 0.50151 0.11536 0.97121 0.0
C127 C 0.5668 0.19643 0.95494 0.0
O128 O 0.49421 0.12745 0.95709 0.0
Zn129 Zn 0.51026 0.16346 0.94041 0.0
O130 O 0.52348 0.12515 0.97824 0.0
Zn131 Zn 0.53417 0.15603 0.96253 0.0
O132 O 0.51624 0.17042 0.9868 0.0
O133 O 0.49267 0.17677 0.9591 0.0
O134 O 0.5672 0.17951 0.96816 0.0
O135 O 0.54707 0.19286 0.94385 0.0
O136 O 0.50688 0.15848 0.90067 0.0
O137 O 0.5335 0.15028 0.91883 0.0
C138 C 0.50106 0.17766 0.98314 0.0
C139 C 0.52256 0.15203 0.89756 0.0
C140 C 0.37765 0.50316 0.13899 0.0
C141 C 0.36414 0.56971 0.12106 0.0
O142 O 0.35829 0.49614 0.1249 0.0
Zn143 Zn 0.33883 0.51273 0.10817 0.0
O144 O 0.39021 0.52515 0.14575 0.0
Zn145 Zn 0.37064 0.5364 0.12954 0.0
O146 O 0.33852 0.52011 0.15436 0.0
O147 O 0.30818 0.49593 0.12753 0.0
O148 O 0.38138 0.56978 0.13408 0.0
O149 O 0.34735 0.54997 0.11068 0.0
O150 O 0.33963 0.50866 0.06849 0.0
O151 O 0.37516 0.53442 0.0858 0.0
C152 C 0.31599 0.50512 0.1512 0.0
C153 C 0.36193 0.52345 0.06488 0.0
C154 C 0.80741 0.32269 0.31571 0.0
C155 C 0.83511 0.3698 0.23024 0.0
O156 O 0.81459 0.3451 0.31921 0.0
Zn157 Zn 0.8292 0.37728 0.29495 0.0
O158 O 0.80862 0.31517 0.2918 0.0
Zn159 Zn 0.82248 0.3461 0.27293 0.0
O160 O 0.85816 0.36634 0.29049 0.0
O161 O 0.85971 0.39762 0.31147 0.0
O162 O 0.82861 0.34768 0.23352 0.0
O163 O 0.83621 0.38245 0.2513 0.0
O164 O 0.80529 0.3865 0.29952 0.0
O165 O 0.79318 0.35377 0.27415 0.0
C166 C 0.86985 0.3857 0.30475 0.0
C167 C 0.78913 0.36969 0.285 0.0
H168 H 0.22697 0.57872 0.45286 0.0
H169 H 0.26422 0.61601 0.46347 0.0
H170 H 0.25363 0.64989 0.39196 0.0
H171 H 0.21583 0.61294 0.3819 0.0
H172 H 0.30477 0.64044 0.43607 0.0
H173 H 0.2643 0.69843 0.45023 0.0
H174 H 0.24628 0.66611 0.44732 0.0
H175 H 0.25767 0.68455 0.41682 0.0
C176 C 0.23258 0.59413 0.43942 0.0
C177 C 0.21845 0.59303 0.41667 0.0
C178 C 0.25383 0.61542 0.44552 0.0
C179 C 0.26142 0.63588 0.42886 0.0
C180 C 0.24772 0.63456 0.40561 0.0
H181 H 0.40579 0.75724 0.41974 0.0
H182 H 0.36833 0.71908 0.41393 0.0
C183 C 0.22624 0.6134 0.39975 0.0
C184 C 0.28393 0.65842 0.43549 0.0
H185 H 0.30719 0.71869 0.44566 0.0
C186 C 0.30527 0.65753 0.43841 0.0
C187 C 0.28447 0.6806 0.43911 0.0
C188 C 0.2619 0.68247 0.43851 0.0
C189 C 0.32727 0.67833 0.44416 0.0
C190 C 0.32805 0.70075 0.44605 0.0
C191 C 0.30661 0.70154 0.44384 0.0
C192 C 0.35092 0.72368 0.4499 0.0
C193 C 0.34932 0.67595 0.44854 0.0
C194 C 0.35328 0.73933 0.47149 0.0
C195 C 0.37448 0.76143 0.47447 0.0
C196 C 0.39373 0.76811 0.45604 0.0
C197 C 0.39136 0.7524 0.43449 0.0
C198 C 0.37003 0.73051 0.43126 0.0
H199 H 0.34434 0.65753 0.45562 0.0
H200 H 0.35913 0.67922 0.42869 0.0
H201 H 0.3617 0.68915 0.46397 0.0
H202 H 0.33869 0.73446 0.48602 0.0
H203 H 0.37584 0.7732 0.49128 0.0
H204 H 0.65038 0.23773 0.5978 0.0
H205 H 0.64992 0.27509 0.60615 0.0
H206 H 0.58208 0.24625 0.56322 0.0
H207 H 0.5825 0.20888 0.55437 0.0
H208 H 0.61541 0.29334 0.54817 0.0
H209 H 0.6064 0.28313 0.66208 0.0
H210 H 0.63145 0.28129 0.64828 0.0
H211 H 0.60122 0.25864 0.6394 0.0
C212 C 0.63537 0.23932 0.59008 0.0
C213 C 0.6164 0.2203 0.57555 0.0
C214 C 0.63507 0.26062 0.59503 0.0
C215 C 0.61575 0.26318 0.58575 0.0
C216 C 0.59706 0.24448 0.57071 0.0
H217 H 0.58275 0.37335 0.63656 0.0
H218 H 0.58214 0.33544 0.62798 0.0
C219 C 0.59735 0.22318 0.56567 0.0
C220 C 0.61517 0.28551 0.59145 0.0
H221 H 0.61483 0.32101 0.64374 0.0
C222 C 0.61519 0.29938 0.56904 0.0
C223 C 0.61452 0.29306 0.61872 0.0
C224 C 0.61316 0.27816 0.64352 0.0
C225 C 0.61508 0.32097 0.57319 0.0
C226 C 0.61541 0.32901 0.60046 0.0
C227 C 0.61486 0.31487 0.62287 0.0
C228 C 0.61617 0.352 0.60616 0.0
C229 C 0.61431 0.33481 0.54836 0.0
C230 C 0.63576 0.37383 0.59721 0.0
C231 C 0.63616 0.3955 0.60199 0.0
C232 C 0.61703 0.39568 0.61603 0.0
C233 C 0.59773 0.37381 0.62563 0.0
C234 C 0.59734 0.35214 0.62076 0.0
H235 H 0.60773 0.32325 0.52966 0.0
H236 H 0.60248 0.34258 0.55223 0.0
H237 H 0.63275 0.34985 0.54397 0.0
H238 H 0.65072 0.3741 0.58644 0.0
H239 H 0.65137 0.41205 0.5945 0.0
H240 H 0.22809 0.64582 0.7447 0.0
H241 H 0.265 0.64545 0.73288 0.0
H242 H 0.25671 0.60295 0.80554 0.0
H243 H 0.21928 0.60242 0.81687 0.0
H244 H 0.30644 0.66217 0.75862 0.0
H245 H 0.26541 0.56347 0.74756 0.0
H246 H 0.24754 0.57793 0.75067 0.0
H247 H 0.25958 0.57142 0.781 0.0
C248 C 0.23415 0.6364 0.75815 0.0
C249 C 0.22076 0.62399 0.78159 0.0
C250 C 0.25519 0.63617 0.75134 0.0
C251 C 0.26328 0.6237 0.76798 0.0
C252 C 0.25036 0.61201 0.79192 0.0
H253 H 0.40695 0.64635 0.77728 0.0
H254 H 0.36956 0.64737 0.78196 0.0
C255 C 0.22911 0.6119 0.7985 0.0
C256 C 0.28555 0.62341 0.76065 0.0
H257 H 0.30845 0.58596 0.75155 0.0
C258 C 0.30685 0.6455 0.75679 0.0
C259 C 0.28593 0.60165 0.75762 0.0
C260 C 0.26332 0.57729 0.75912 0.0
C261 C 0.32872 0.64644 0.75093 0.0
C262 C 0.32941 0.62473 0.74988 0.0
C263 C 0.30796 0.60262 0.75277 0.0
C264 C 0.35224 0.62449 0.74658 0.0
C265 C 0.35075 0.67068 0.74566 0.0
C266 C 0.3546 0.61058 0.72574 0.0
C267 C 0.37577 0.6095 0.72342 0.0
C268 C 0.39496 0.62249 0.74179 0.0
C269 C 0.39256 0.63641 0.7626 0.0
C270 C 0.37128 0.63717 0.76517 0.0
H271 H 0.34572 0.68388 0.73782 0.0
H272 H 0.36068 0.67785 0.76533 0.0
H273 H 0.36303 0.66935 0.73049 0.0
H274 H 0.34005 0.60052 0.7113 0.0
H275 H 0.37715 0.59865 0.70717 0.0
H276 H 0.74792 0.41239 0.93244 0.0
H277 H 0.70989 0.37535 0.94144 0.0
H278 H 0.73613 0.33429 0.89793 0.0
H279 H 0.77403 0.37122 0.8884 0.0
H280 H 0.68959 0.32198 0.88351 0.0
H281 H 0.70038 0.32345 0.99742 0.0
H282 H 0.70267 0.35044 0.98332 0.0
H283 H 0.72491 0.34227 0.97453 0.0
C284 C 0.74559 0.39549 0.92475 0.0
C285 C 0.76403 0.39471 0.90982 0.0
C286 C 0.72393 0.37435 0.93006 0.0
C287 C 0.72044 0.35211 0.92076 0.0
C288 C 0.73858 0.35131 0.9054 0.0
H289 H 0.61238 0.20889 0.97148 0.0
H290 H 0.64949 0.24703 0.96317 0.0
C291 C 0.76021 0.37243 0.89999 0.0
C292 C 0.69776 0.32961 0.92672 0.0
H293 H 0.66266 0.29379 0.97929 0.0
C294 C 0.68368 0.31578 0.90443 0.0
C295 C 0.69036 0.32149 0.95405 0.0
C296 C 0.70545 0.33504 0.97873 0.0
C297 C 0.66218 0.29405 0.90874 0.0
C298 C 0.65441 0.28628 0.93608 0.0
C299 C 0.66861 0.29999 0.95837 0.0
C300 C 0.63182 0.26366 0.94192 0.0
C301 C 0.64824 0.27936 0.884 0.0
C302 C 0.60963 0.26068 0.93321 0.0
C303 C 0.58842 0.23891 0.9378 0.0
C304 C 0.58907 0.21986 0.95142 0.0
C305 C 0.61129 0.2232 0.96086 0.0
C306 C 0.6325 0.24495 0.95616 0.0
H307 H 0.65959 0.28462 0.8651 0.0
H308 H 0.64093 0.25982 0.88775 0.0
H309 H 0.63287 0.28234 0.88004 0.0
H310 H 0.60873 0.27513 0.9227 0.0
H311 H 0.57157 0.23698 0.93047 0.0
H312 H 0.3303 0.75087 0.10091 0.0
H313 H 0.32996 0.71302 0.10872 0.0
H314 H 0.39762 0.74106 0.06554 0.0
H315 H 0.39801 0.77887 0.05723 0.0
H316 H 0.36357 0.69425 0.05017 0.0
H317 H 0.3732 0.70386 0.16414 0.0
H318 H 0.34837 0.70618 0.15047 0.0
H319 H 0.37871 0.72859 0.14167 0.0
C320 C 0.3451 0.74899 0.09302 0.0
C321 C 0.36425 0.76791 0.07858 0.0
C322 C 0.34493 0.72741 0.09765 0.0
C323 C 0.36397 0.72449 0.08812 0.0
C324 C 0.38285 0.7431 0.07319 0.0
H325 H 0.39816 0.61508 0.1371 0.0
H326 H 0.3981 0.65267 0.12867 0.0
C327 C 0.38302 0.76466 0.06848 0.0
C328 C 0.36417 0.70193 0.09354 0.0
H329 H 0.36501 0.66628 0.14536 0.0
C330 C 0.36393 0.68812 0.07095 0.0
C331 C 0.365 0.69426 0.1207 0.0
C332 C 0.36657 0.70908 0.14566 0.0
C333 C 0.36413 0.66654 0.07481 0.0
C334 C 0.36413 0.65846 0.10199 0.0
C335 C 0.36475 0.67246 0.12457 0.0
C336 C 0.36381 0.63565 0.10742 0.0
C337 C 0.36474 0.65281 0.0498 0.0
C338 C 0.34432 0.61367 0.09867 0.0
C339 C 0.34431 0.59218 0.10336 0.0
C340 C 0.36372 0.59233 0.1171 0.0
C341 C 0.38296 0.61436 0.12641 0.0
C342 C 0.38298 0.63585 0.12163 0.0
H343 H 0.37093 0.66438 0.03107 0.0
H344 H 0.37681 0.64526 0.05328 0.0
H345 H 0.34632 0.63762 0.04571 0.0
H346 H 0.32913 0.61315 0.08819 0.0
H347 H 0.32914 0.5755 0.09611 0.0
H348 H 0.75741 0.34611 0.24339 0.0
H349 H 0.72019 0.34628 0.23302 0.0
H350 H 0.73114 0.39079 0.30455 0.0
H351 H 0.76896 0.39153 0.31436 0.0
H352 H 0.67986 0.33011 0.2606 0.0
H353 H 0.71984 0.42852 0.24667 0.0
H354 H 0.738 0.41435 0.24943 0.0
H355 H 0.72654 0.42118 0.28001 0.0
C356 C 0.7519 0.35596 0.25689 0.0
C357 C 0.76613 0.36894 0.27959 0.0
C358 C 0.73065 0.35607 0.25092 0.0
C359 C 0.72314 0.36896 0.26767 0.0
C360 C 0.73698 0.38135 0.29084 0.0
H361 H 0.57809 0.34494 0.27552 0.0
H362 H 0.61576 0.34477 0.28209 0.0
C363 C 0.75846 0.3816 0.29656 0.0
C364 C 0.70053 0.3689 0.26121 0.0
H365 H 0.67697 0.40568 0.25085 0.0
C366 C 0.67926 0.34664 0.25826 0.0
C367 C 0.69985 0.39047 0.2576 0.0
C368 C 0.72233 0.41496 0.25829 0.0
C369 C 0.65721 0.34532 0.25237 0.0
C370 C 0.65629 0.36688 0.25039 0.0
C371 C 0.67765 0.38916 0.25273 0.0
C372 C 0.63336 0.3668 0.2462 0.0
C373 C 0.63528 0.32085 0.24788 0.0
C374 C 0.63103 0.37995 0.22441 0.0
C375 C 0.60968 0.38053 0.22098 0.0
C376 C 0.59026 0.3678 0.23916 0.0
C377 C 0.59264 0.35465 0.26094 0.0
C378 C 0.6141 0.3544 0.26462 0.0
H379 H 0.6404 0.30747 0.24098 0.0
H380 H 0.62533 0.31429 0.26765 0.0
H381 H 0.62298 0.3216 0.23227 0.0
H382 H 0.64573 0.38977 0.21005 0.0
H383 H 0.60833 0.39082 0.20401 0.0
H384 H 0.14869 0.63927 0.68385 0.0
H385 H 0.14464 0.62088 0.63826 0.0
H386 H 0.13672 0.55669 0.67683 0.0
H387 H 0.14063 0.57471 0.72229 0.0
H388 H 0.1739 0.57882 0.63408 0.0
H389 H 0.08413 0.56304 0.60036 0.0
H390 H 0.10475 0.59238 0.61409 0.0
H391 H 0.09298 0.56652 0.63626 0.0
C392 C 0.14573 0.6211 0.68265 0.0
C393 C 0.145 0.6085 0.70678 0.0
C394 C 0.14335 0.61061 0.65659 0.0
C395 C 0.14025 0.58737 0.65422 0.0
C396 C 0.13903 0.5746 0.67823 0.0
H397 H 0.14754 0.50362 0.51518 0.0
H398 H 0.14385 0.51708 0.56138 0.0
C399 C 0.14123 0.58497 0.70422 0.0
C400 C 0.13987 0.57692 0.62676 0.0
H401 H 0.10689 0.55539 0.56762 0.0
C402 C 0.15921 0.57357 0.61955 0.0
C403 C 0.12074 0.57023 0.60789 0.0
C404 C 0.09933 0.57302 0.61496 0.0
C405 C 0.16022 0.56418 0.59369 0.0
C406 C 0.14097 0.55725 0.57481 0.0
C407 C 0.12156 0.56053 0.58213 0.0
C408 C 0.14122 0.54767 0.54688 0.0
C409 C 0.18232 0.56258 0.58654 0.0
C410 C 0.1398 0.55963 0.52332 0.0
C411 C 0.14151 0.55176 0.49695 0.0
C412 C 0.14473 0.53173 0.49349 0.0
C413 C 0.14526 0.51921 0.51709 0.0
C414 C 0.14335 0.52701 0.54353 0.0
H415 H 0.19789 0.57447 0.5999 0.0
H416 H 0.17837 0.54379 0.58965 0.0
H417 H 0.18762 0.5676 0.56465 0.0
H418 H 0.13803 0.57552 0.52533 0.0
H419 H 0.14098 0.56186 0.47928 0.0
H420 H 0.5728 0.14474 0.64189 0.0
H421 H 0.55613 0.14211 0.68782 0.0
H422 H 0.62129 0.15052 0.72437 0.0
H423 H 0.63851 0.15393 0.67825 0.0
H424 H 0.54596 0.11175 0.73043 0.0
H425 H 0.61598 0.20375 0.76198 0.0
H426 H 0.61302 0.19323 0.72689 0.0
H427 H 0.62804 0.18486 0.75226 0.0
C428 C 0.58363 0.14593 0.65964 0.0
C429 C 0.60712 0.14976 0.65634 0.0
C430 C 0.57401 0.14441 0.68595 0.0
C431 C 0.58761 0.14662 0.7096 0.0
C432 C 0.6107 0.14942 0.70643 0.0
H433 H 0.55872 0.14296 0.88468 0.0
H434 H 0.57316 0.14025 0.83893 0.0
C435 C 0.62045 0.15117 0.68005 0.0
C436 C 0.57759 0.14633 0.73742 0.0
H437 H 0.58811 0.17938 0.79644 0.0
C438 C 0.55516 0.12657 0.74482 0.0
C439 C 0.58949 0.16578 0.75614 0.0
C440 C 0.61284 0.18822 0.74887 0.0
C441 C 0.54451 0.12561 0.77053 0.0
C442 C 0.55658 0.14489 0.78928 0.0
C443 C 0.57897 0.1646 0.78198 0.0
C444 C 0.54647 0.14489 0.81681 0.0
C445 C 0.5206 0.10389 0.77774 0.0
C446 C 0.52653 0.14827 0.81949 0.0
C447 C 0.51823 0.14998 0.84572 0.0
C448 C 0.52973 0.14827 0.86967 0.0
C449 C 0.54936 0.1443 0.86675 0.0
C450 C 0.55771 0.14278 0.84061 0.0
H451 H 0.51525 0.08898 0.7627 0.0
H452 H 0.52132 0.09726 0.79871 0.0
H453 H 0.50646 0.10908 0.77792 0.0
H454 H 0.51777 0.15016 0.80131 0.0
H455 H 0.50314 0.1531 0.84722 0.0
H456 H 0.33832 0.5121 0.01503 0.0
H457 H 0.35601 0.52645 0.96916 0.0
H458 H 0.42697 0.5638 1.00529 0.0
H459 H 0.40955 0.5496 0.05104 0.0
H460 H 0.38482 0.57654 0.95439 0.0
H461 H 0.43417 0.52666 0.93911 0.0
H462 H 0.40999 0.51737 0.96384 0.0
H463 H 0.4395 0.54199 0.97166 0.0
C464 C 0.35772 0.52302 1.01316 0.0
C465 C 0.3725 0.52968 0.03673 0.0
C466 C 0.36779 0.53128 0.98695 0.0
C467 C 0.39282 0.54604 0.9838 0.0
C468 C 0.40765 0.55216 1.00718 0.0
H469 H 0.47169 0.64438 0.84892 0.0
H470 H 0.45592 0.62604 0.89419 0.0
C471 C 0.39762 0.54408 0.03336 0.0
C472 C 0.40337 0.55635 0.95641 0.0
H473 H 0.44256 0.55816 0.90727 0.0
C474 C 0.39737 0.57246 0.94402 0.0
C475 C 0.41968 0.55093 0.94291 0.0
C476 C 0.42612 0.53314 0.95487 0.0
C477 C 0.40753 0.58359 0.91867 0.0
C478 C 0.42427 0.57862 0.90547 0.0
C479 C 0.42995 0.56217 0.91761 0.0
C480 C 0.43531 0.58965 0.87851 0.0
C481 C 0.40004 0.60036 0.90598 0.0
C482 C 0.42955 0.57519 0.85486 0.0
C483 C 0.43849 0.58558 0.82903 0.0
C484 C 0.45359 0.61067 0.82632 0.0
C485 C 0.46012 0.62503 0.85025 0.0
C486 C 0.45101 0.6146 0.87611 0.0
H487 H 0.38355 0.59855 0.91585 0.0
H488 H 0.4148 0.61925 0.9086 0.0
H489 H 0.39666 0.59683 0.88351 0.0
H490 H 0.41756 0.5559 0.85629 0.0
H491 H 0.43316 0.57395 0.81108 0.0
H492 H 0.83452 0.34905 0.18027 0.0
H493 H 0.83802 0.36642 0.13414 0.0
H494 H 0.84846 0.43222 0.17086 0.0
H495 H 0.84515 0.41524 0.21683 0.0
H496 H 0.80963 0.40863 0.12901 0.0
H497 H 0.8989 0.42351 0.0943 0.0
H498 H 0.87843 0.39479 0.10962 0.0
H499 H 0.89088 0.42151 0.13039 0.0
C500 C 0.83792 0.36734 0.17853 0.0
C501 C 0.83953 0.38071 0.20228 0.0
C502 C 0.83996 0.37724 0.15217 0.0
C503 C 0.84361 0.40063 0.14916 0.0
C504 C 0.84573 0.41417 0.17278 0.0
H505 H 0.83551 0.48343 1.01017 0.0
H506 H 0.83937 0.46987 0.05622 0.0
C507 C 0.84385 0.4044 0.19905 0.0
C508 C 0.84362 0.41051 0.12149 0.0
H509 H 0.87615 0.43146 0.06196 0.0
C510 C 0.82419 0.41371 0.11433 0.0
C511 C 0.86258 0.41695 0.10244 0.0
C512 C 0.88402 0.41421 0.10946 0.0
C513 C 0.82297 0.42283 0.08839 0.0
C514 C 0.84211 0.42964 0.06937 0.0
C515 C 0.86158 0.42641 0.07659 0.0
C516 C 0.84178 0.43923 0.0415 0.0
C517 C 0.80081 0.42434 0.08133 0.0
C518 C 0.84304 0.42725 0.01787 0.0
C519 C 0.84123 0.43518 0.99156 0.0
C520 C 0.83808 0.45527 0.98828 0.0
C521 C 0.83772 0.46779 1.01196 0.0
C522 C 0.83973 0.45994 0.03831 0.0
H523 H 0.7853 0.41243 0.09477 0.0
H524 H 0.80471 0.44311 0.08442 0.0
H525 H 0.79545 0.41929 0.05946 0.0
H526 H 0.84475 0.41133 0.01978 0.0
H527 H 0.84163 0.4251 0.97382 0.0
H528 H 0.34322 0.83375 0.18169 0.0
H529 H 0.3607 0.83754 0.22774 0.0
H530 H 0.42682 0.84886 0.19078 0.0
H531 H 0.40985 0.84573 0.14497 0.0
H532 H 0.37589 0.80916 0.25086 0.0
H533 H 0.45274 0.90253 0.24638 0.0
H534 H 0.42862 0.89093 0.2214 0.0
H535 H 0.45286 0.88451 0.21812 0.0
C536 C 0.36161 0.83744 0.18338 0.0
C537 C 0.37514 0.83956 0.15958 0.0
C538 C 0.37157 0.83955 0.20972 0.0
C539 C 0.39524 0.84388 0.21278 0.0
C540 C 0.40879 0.84618 0.18904 0.0
H541 H 0.47772 0.83345 0.34962 0.0
H542 H 0.46262 0.83646 0.30401 0.0
C543 C 0.39894 0.84422 0.16278 0.0
C544 C 0.40528 0.84442 0.24066 0.0
H545 H 0.45366 0.87767 0.28278 0.0
C546 C 0.39277 0.82425 0.25791 0.0
C547 C 0.42737 0.86409 0.24989 0.0
C548 C 0.44105 0.88683 0.23309 0.0
C549 C 0.40198 0.82303 0.28381 0.0
C550 C 0.42423 0.84247 0.29275 0.0
C551 C 0.4367 0.86271 0.27569 0.0
C552 C 0.4344 0.8422 0.32014 0.0
C553 C 0.38808 0.80079 0.30135 0.0
C554 C 0.42383 0.84494 0.34417 0.0
C555 C 0.43245 0.84339 0.37014 0.0
C556 C 0.45181 0.83897 0.37265 0.0
C557 C 0.46279 0.83685 0.34845 0.0
C558 C 0.4542 0.83856 0.32239 0.0
H559 H 0.37311 0.78585 0.28976 0.0
H560 H 0.40026 0.7945 0.30931 0.0
H561 H 0.38033 0.80521 0.31941 0.0
H562 H 0.40864 0.84793 0.34281 0.0
H563 H 0.42354 0.84515 0.38827 0.0
H564 H 0.5048 0.34912 0.34441 0.0
H565 H 0.51968 0.36727 0.38999 0.0
H566 H 0.57503 0.43193 0.35123 0.0
H567 H 0.56032 0.41417 0.30577 0.0
H568 H 0.59001 0.40818 0.39435 0.0
H569 H 0.51748 0.42656 0.42731 0.0
H570 H 0.50848 0.39744 0.41263 0.0
H571 H 0.52343 0.42382 0.39139 0.0
C572 C 0.51994 0.36731 0.34558 0.0
C573 C 0.53134 0.38017 0.3214 0.0
C574 C 0.52838 0.37766 0.37162 0.0
C575 C 0.54837 0.40097 0.3739 0.0
C576 C 0.55953 0.41395 0.34987 0.0
H577 H 0.64025 0.48415 0.51257 0.0
H578 H 0.62329 0.47043 0.46635 0.0
C579 C 0.55103 0.40374 0.3239 0.0
C580 C 0.55857 0.41139 0.40127 0.0
H581 H 0.548 0.43435 0.45979 0.0
C582 C 0.58092 0.414 0.40868 0.0
C583 C 0.54656 0.41882 0.41983 0.0
C584 C 0.5227 0.41672 0.4125 0.0
C585 C 0.59141 0.42342 0.43449 0.0
C586 C 0.57953 0.43114 0.45307 0.0
C587 C 0.55718 0.4286 0.44551 0.0
C588 C 0.58943 0.4408 0.48092 0.0
C589 C 0.61467 0.4242 0.44193 0.0
C590 C 0.57566 0.42947 0.50449 0.0
C591 C 0.58512 0.4375 0.53085 0.0
C592 C 0.60864 0.45706 0.53429 0.0
C593 C 0.62216 0.46893 0.51066 0.0
C594 C 0.61255 0.46098 0.48422 0.0
H595 H 0.61782 0.41177 0.4289 0.0
H596 H 0.62994 0.44272 0.43859 0.0
H597 H 0.61472 0.41936 0.46394 0.0
H598 H 0.55774 0.41396 0.50251 0.0
H599 H 0.57415 0.42792 0.54854 0.0
H600 H 0.89905 0.42563 0.33511 0.0
H601 H 0.94052 0.43987 0.34933 0.0
H602 H 0.93892 0.37903 0.30915 0.0
H603 H 0.89729 0.36465 0.29447 0.0
H604 H 0.95903 0.41554 0.3816 0.0
H605 H -0.00139 0.43863 0.27591 0.0
H606 H 0.96874 0.43332 0.2834 0.0
H607 H 0.97414 0.40846 0.28133 0.0
C608 C 0.90746 0.41524 0.32923 0.0
C609 C 0.89491 0.39407 0.31351 0.0
C610 C 0.93113 0.42337 0.33747 0.0
C611 C 0.94277 0.41059 0.3301 0.0
C612 C 0.93029 0.38929 0.31473 0.0
H613 H 0.08676 0.45844 0.40063 0.0
H614 H 0.04512 0.43161 0.3857 0.0
C615 C 0.90652 0.38109 0.30643 0.0
C616 C 0.96812 0.42007 0.33839 0.0
H617 H 0.02548 0.44829 0.31304 0.0
C618 C 0.9736 0.4224 0.36667 0.0
C619 C 0.98695 0.42905 0.31875 0.0
C620 C 0.98199 0.42745 0.28813 0.0
C621 C -0.00245 0.43437 0.3759 0.0
C622 C 0.0164 0.44396 0.35625 0.0
C623 C 0.01091 0.44079 0.32798 0.0
C624 C 0.04179 0.45955 0.36455 0.0
C625 C 0.00252 0.43778 0.40652 0.0
C626 C 0.05372 0.48395 0.35712 0.0
C627 C 0.07741 0.49926 0.3655 0.0
C628 C 0.08966 0.49042 0.38143 0.0
C629 C 0.07776 0.46583 0.38852 0.0
C630 C 0.05399 0.45049 0.38008 0.0
H631 H 0.98594 0.43264 0.4187 0.0
H632 H 0.01009 0.42641 0.41342 0.0
H633 H 0.01599 0.45684 0.41117 0.0
H634 H 0.04456 0.49125 0.34513 0.0
H635 H 0.08605 0.51807 0.3596 0.0
H636 H 0.47244 0.90284 0.50366 0.0
H637 H 0.50053 0.94428 0.517 0.0
H638 H 0.55827 0.94078 0.47549 0.0
H639 H 0.53011 0.89911 0.46169 0.0
H640 H 0.54413 0.96233 0.54821 0.0
H641 H 0.55871 0.00071 0.44197 0.0
H642 H 0.5339 0.97119 0.45017 0.0
H643 H 0.56389 0.9759 0.44755 0.0
C644 C 0.49109 0.91081 0.49728 0.0
C645 C 0.49901 0.89771 0.48146 0.0
C646 C 0.50713 0.93448 0.50503 0.0
C647 C 0.53139 0.94556 0.49709 0.0
C648 C 0.53953 0.93256 0.48154 0.0
H649 H 0.62566 0.09147 0.56487 0.0
H650 H 0.61273 0.05004 0.55056 0.0
C651 C 0.52343 0.90878 0.47373 0.0
C652 C 0.54771 0.97093 0.50488 0.0
H653 H 0.57557 0.02798 0.4787 0.0
C654 C 0.55143 0.97673 0.53306 0.0
C655 C 0.55706 0.98954 0.48495 0.0
C656 C 0.55317 0.9842 0.45444 0.0
C657 C 0.56322 0.00077 0.54194 0.0
C658 C 0.57169 0.01937 0.52203 0.0
C659 C 0.56907 0.01358 0.49383 0.0
C660 C 0.58042 0.04465 0.52999 0.0
C661 C 0.56523 0.00608 0.5725 0.0
C662 C 0.56671 0.05534 0.52276 0.0
C663 C 0.57401 0.07887 0.5308 0.0
C664 C 0.59523 0.09223 0.5462 0.0
C665 C 0.60914 0.08158 0.55317 0.0
C666 C 0.60179 0.05794 0.54506 0.0
H667 H 0.55475 0.98951 0.58505 0.0
H668 H 0.58441 0.01465 0.57883 0.0
H669 H 0.55876 0.01885 0.57727 0.0
H670 H 0.55013 0.04531 0.51116 0.0
H671 H 0.5629 0.08653 0.525 0.0
H672 H 0.47467 0.56732 0.6957 0.0
H673 H 0.5033 0.55511 0.68083 0.0
H674 H 0.56114 0.6177 0.72016 0.0
H675 H 0.53243 0.63012 0.73548 0.0
H676 H 0.54595 0.5823 0.6476 0.0
H677 H 0.56476 0.55912 0.75222 0.0
H678 H 0.53885 0.56245 0.74555 0.0
H679 H 0.56835 0.58856 0.74708 0.0
C680 C 0.49345 0.57853 0.70131 0.0
C681 C 0.50125 0.59965 0.71689 0.0
C682 C 0.50979 0.57156 0.69267 0.0
C683 C 0.53425 0.58548 0.69948 0.0
C684 C 0.54225 0.60664 0.71493 0.0
H685 H 0.62708 0.53414 0.62598 0.0
H686 H 0.61502 0.56304 0.64154 0.0
C687 C 0.52585 0.61368 0.72363 0.0
C688 C 0.55092 0.57719 0.69052 0.0
H689 H 0.57991 0.54828 0.71415 0.0
C690 C 0.55386 0.5753 0.66208 0.0
C691 C 0.56108 0.5681 0.7096 0.0
C692 C 0.55811 0.56947 0.74035 0.0
C693 C 0.56554 0.56324 0.65215 0.0
C694 C 0.57462 0.55307 0.67123 0.0
C695 C 0.57292 0.5562 0.69966 0.0
C696 C 0.58274 0.53628 0.66228 0.0
C697 C 0.56669 0.56006 0.62141 0.0
C698 C 0.56868 0.51183 0.66906 0.0
C699 C 0.57544 0.49536 0.66026 0.0
C700 C 0.59649 0.50305 0.64456 0.0
C701 C 0.61069 0.52765 0.63792 0.0
C702 C 0.60386 0.54416 0.64675 0.0
H703 H 0.55637 0.56677 0.60955 0.0
H704 H 0.58574 0.57011 0.6145 0.0
H705 H 0.55947 0.54075 0.61637 0.0
H706 H 0.55227 0.50543 0.68097 0.0
H707 H 0.56411 0.47658 0.66583 0.0
H708 H 0.09449 0.57691 0.85437 0.0
H709 H 0.05223 0.55944 0.86753 0.0
H710 H 0.04032 0.59453 0.79819 0.0
H711 H 0.08297 0.61293 0.78555 0.0
H712 H 0.01604 0.59553 0.84326 0.0
H713 H -0.00035 0.50299 0.82703 0.0
H714 H 0.02282 0.51919 0.85207 0.0
H715 H 0.02732 0.52933 0.81673 0.0
C716 C 0.08289 0.58098 0.84199 0.0
C717 C 0.09189 0.59598 0.81871 0.0
C718 C 0.05875 0.57093 0.84947 0.0
C719 C 0.04302 0.57516 0.8334 0.0
C720 C 0.05215 0.59089 0.81075 0.0
H721 H 0.88951 0.47728 0.83889 0.0
H722 H 0.9314 0.50259 0.82478 0.0
C723 C 0.07646 0.60133 0.80352 0.0
C724 C 0.01693 0.56247 0.8397 0.0
H725 H 0.96857 0.50642 0.8496 0.0
C726 C 0.00556 0.57604 0.84448 0.0
C727 C 0.00322 0.53703 0.84072 0.0
C728 C 0.01382 0.52128 0.83357 0.0
C729 C 0.98088 0.5648 0.85076 0.0
C730 C 0.96747 0.53939 0.85313 0.0
C731 C 0.97886 0.52591 0.84801 0.0
C732 C 0.94153 0.52608 0.86043 0.0
C733 C 0.96939 0.58025 0.85419 0.0
C734 C 0.93314 0.53108 0.88497 0.0
C735 C 0.90899 0.5169 0.89277 0.0
C736 C 0.89311 0.4971 0.87654 0.0
C737 C 0.90146 0.49232 0.85189 0.0
C738 C 0.92537 0.50678 0.8438 0.0
H739 H 0.97981 0.59775 0.84324 0.0
H740 H 0.95061 0.57098 0.84629 0.0
H741 H 0.96904 0.5842 0.87644 0.0
H742 H 0.94538 0.54543 0.89853 0.0
H743 H 0.90298 0.52082 0.91198 0.0
H744 H 0.51151 0.0855 1.00132 0.0
H745 H 0.48365 0.04428 0.01572 0.0
H746 H 0.4251 0.04725 0.97558 0.0
H747 H 0.453 0.08869 0.96073 0.0
H748 H 0.44061 0.02699 0.04818 0.0
H749 H 0.42388 0.9866 0.94288 0.0
H750 H 0.44898 0.01619 0.95018 0.0
H751 H 0.41903 0.01166 0.94811 0.0
C752 C 0.49273 0.07745 0.99546 0.0
C753 C 0.48449 0.09034 0.97974 0.0
C754 C 0.47683 0.05392 1.00382 0.0
C755 C 0.45241 0.04276 0.99658 0.0
C756 C 0.44397 0.05554 0.9811 0.0
H757 H 0.35799 0.89831 0.06779 0.0
H758 H 0.37137 0.93968 0.05279 0.0
C759 C 0.45992 0.07918 0.97269 0.0
C760 C 0.43619 0.01756 1.00508 0.0
H761 H 0.40753 0.96004 0.98035 0.0
C762 C 0.43297 0.0123 0.03341 0.0
C763 C 0.4264 -0.0014 0.98563 0.0
C764 C 0.42976 0.00336 0.95497 0.0
C765 C 0.42117 0.98843 0.0429 0.0
C766 C 0.41222 0.96947 0.02346 0.0
C767 C 0.4144 0.97473 0.99512 0.0
C768 C 0.40331 0.94429 0.032 0.0
C769 C 0.41962 0.98368 0.07357 0.0
C770 C 0.41669 0.93322 0.02492 0.0
C771 C 0.40914 0.90972 0.03337 0.0
C772 C 0.38798 0.89679 0.04902 0.0
C773 C 0.37444 0.90786 0.0559 0.0
C774 C 0.38205 0.93146 0.0474 0.0
H775 H 0.43039 0.00045 0.08568 0.0
H776 H 0.40055 0.97535 0.0803 0.0
H777 H 0.42603 0.97089 0.07849 0.0
H778 H 0.43319 0.9429 1.01309 0.0
H779 H 0.41997 0.90174 0.02764 0.0
H780 H 0.35629 0.45501 0.12668 0.0
H781 H 0.36921 0.42663 0.14161 0.0
H782 H 0.42883 0.48379 0.18575 0.0
H783 H 0.41609 0.5121 0.17123 0.0
H784 H 0.41358 0.42969 0.131 0.0
H785 H 0.39839 0.42984 0.24338 0.0
H786 H 0.38483 0.44046 0.21845 0.0
H787 H 0.41539 0.45981 0.22972 0.0
C788 C 0.37206 0.46148 0.1397 0.0
C789 C 0.38514 0.4858 0.14781 0.0
C790 C 0.37936 0.44525 0.14824 0.0
C791 C 0.39966 0.45305 0.16522 0.0
C792 C 0.41276 0.4773 0.17322 0.0
H793 H 0.50933 0.4205 0.18725 0.0
H794 H 0.48051 0.43275 0.17317 0.0
C795 C 0.40555 0.4935 0.16467 0.0
C796 C 0.40838 0.4365 0.1733 0.0
H797 H 0.42749 0.41833 0.2293 0.0
C798 C 0.41617 0.42675 0.15248 0.0
C799 C 0.41131 0.4323 0.20132 0.0
C800 C 0.40179 0.44094 0.2245 0.0
C801 C 0.42852 0.41447 0.159 0.0
C802 C 0.43344 0.41229 0.18699 0.0
C803 C 0.424 0.42037 0.20783 0.0
C804 C 0.45034 0.40394 0.1949 0.0
C805 C 0.43681 0.40459 0.13586 0.0
C806 C 0.44303 0.38403 0.21241 0.0
C807 C 0.45955 0.37702 0.22068 0.0
C808 C 0.48367 0.39001 0.21178 0.0
C809 C 0.49089 0.41005 0.19442 0.0
C810 C 0.47439 0.41697 0.18614 0.0
H811 H 0.42528 0.40069 0.11726 0.0
H812 H 0.45551 0.41819 0.13001 0.0
H813 H 0.43663 0.38786 0.14224 0.0
H814 H 0.42457 0.37394 0.21962 0.0
H815 H 0.45344 0.36153 0.2341 0.0
H816 H 0.19299 0.53038 0.33164 0.0
H817 H 0.21235 0.52225 0.2933 0.0
H818 H 0.20615 0.46047 0.3364 0.0
H819 H 0.18734 0.46908 0.37567 0.0
H820 H 0.24932 0.48557 0.31465 0.0
H821 H 0.18408 0.47345 0.2334 0.0
H822 H 0.19436 0.50185 0.25015 0.0
H823 H 0.1777 0.47429 0.26955 0.0
C824 C 0.19549 0.51489 0.33298 0.0
C825 C 0.18844 0.50027 0.35671 0.0
C826 C 0.20641 0.51013 0.31083 0.0
C827 C 0.21013 0.49033 0.31151 0.0
C828 C 0.20322 0.47569 0.33523 0.0
H829 H 0.26886 0.46866 0.15618 0.0
H830 H 0.2419 0.46034 0.1958 0.0
C831 C 0.19249 0.48063 0.35766 0.0
C832 C 0.22262 0.48612 0.28808 0.0
H833 H 0.22462 0.48572 0.2176 0.0
C834 C 0.24366 0.48514 0.29345 0.0
C835 C 0.215 0.48488 0.26036 0.0
C836 C 0.19138 0.48338 0.25308 0.0
C837 C 0.25807 0.48463 0.27189 0.0
C838 C 0.25174 0.48595 0.24416 0.0
C839 C 0.22984 0.48523 0.2388 0.0
C840 C 0.26831 0.48987 0.22065 0.0
C841 C 0.28004 0.48285 0.27916 0.0
C842 C 0.29201 0.50936 0.22119 0.0
C843 C 0.30745 0.51393 0.19882 0.0
C844 C 0.29943 0.49946 0.17501 0.0
C845 C 0.2756 0.48011 0.17423 0.0
C846 C 0.26019 0.47534 0.19688 0.0
H847 H 0.27729 0.47286 0.29883 0.0
H848 H 0.28451 0.47368 0.26269 0.0
H849 H 0.29565 0.50124 0.28212 0.0
H850 H 0.2985 0.52141 0.23876 0.0
H851 H 0.32558 0.52919 0.20002 0.0
H852 H 0.80908 0.33451 0.36993 0.0
H853 H 0.78817 0.30783 0.40861 0.0
H854 H 0.76 0.24641 0.35419 0.0
H855 H 0.7813 0.27311 0.31517 0.0
H856 H 0.73921 0.27987 0.41142 0.0
H857 H 0.78197 0.22323 0.42138 0.0
H858 H 0.79565 0.25118 0.40223 0.0
H859 H 0.77148 0.22427 0.38726 0.0
C860 C 0.79874 0.3153 0.36616 0.0
C861 C 0.79675 0.30596 0.33939 0.0
C862 C 0.78682 0.30006 0.38835 0.0
C863 C 0.77264 0.27511 0.38437 0.0
C864 C 0.77119 0.26556 0.35786 0.0
H865 H 0.65279 0.18071 0.48847 0.0
H866 H 0.67977 0.2022 0.45015 0.0
C867 C 0.78327 0.28085 0.33554 0.0
C868 C 0.75767 0.25967 0.40751 0.0
H869 H 0.74666 0.21161 0.44823 0.0
C870 C 0.74092 0.265 0.4195 0.0
C871 C 0.76004 0.24039 0.41818 0.0
C872 C 0.77839 0.23448 0.40681 0.0
C873 C 0.72632 0.25149 0.44164 0.0
C874 C 0.7282 0.23181 0.45184 0.0
C875 C 0.74516 0.2266 0.44019 0.0
C876 C 0.71236 0.21645 0.47444 0.0
C877 C 0.70915 0.25855 0.45415 0.0
C878 C 0.72185 0.2166 0.50063 0.0
C879 C 0.70642 0.20422 0.52272 0.0
C880 C 0.68128 0.19151 0.51889 0.0
C881 C 0.67202 0.19052 0.49227 0.0
C882 C 0.68741 0.2028 0.47029 0.0
H883 H 0.71393 0.27722 0.44844 0.0
H884 H 0.69065 0.24615 0.44652 0.0
H885 H 0.70896 0.25716 0.47702 0.0
H886 H 0.7411 0.227 0.50419 0.0
H887 H 0.71413 0.20528 0.54293 0.0
H888 H 0.50647 0.71874 0.71372 0.0
H889 H 0.51186 0.74553 0.67472 0.0
H890 H 0.47953 0.68435 0.61998 0.0
H891 H 0.47393 0.65755 0.65853 0.0
H892 H 0.53467 0.75214 0.61897 0.0
H893 H 0.4356 0.71545 0.61666 0.0
H894 H 0.45077 0.71149 0.6459 0.0
H895 H 0.44492 0.69326 0.61556 0.0
C896 C 0.50085 0.71105 0.6933 0.0
C897 C 0.48948 0.68597 0.68933 0.0
C898 C 0.50397 0.72638 0.67106 0.0
C899 C 0.49579 0.71684 0.64458 0.0
C900 C 0.48569 0.69202 0.64032 0.0
H901 H 0.50641 0.78481 0.48485 0.0
H902 H 0.51253 0.76393 0.52385 0.0
C903 C 0.4825 0.67673 0.66244 0.0
C904 C 0.49596 0.73237 0.62178 0.0
H905 H 0.45825 0.74161 0.58032 0.0
C906 C 0.51801 0.74995 0.61051 0.0
C907 C 0.47418 0.72956 0.611 0.0
C908 C 0.44999 0.71158 0.62299 0.0
C909 C 0.51879 0.76458 0.58837 0.0
C910 C 0.49695 0.76136 0.57723 0.0
C911 C 0.47497 0.74395 0.58878 0.0
C912 C 0.49617 0.77619 0.55413 0.0
C913 C 0.54289 0.78359 0.57734 0.0
C914 C 0.48508 0.79006 0.55821 0.0
C915 C 0.48144 0.8018 0.53607 0.0
C916 C 0.48872 0.79989 0.50922 0.0
C917 C 0.50067 0.78672 0.50527 0.0
C918 C 0.50428 0.77487 0.52756 0.0
H919 H 0.55779 0.78729 0.59184 0.0
H920 H 0.54651 0.77733 0.5575 0.0
H921 H 0.54289 0.80066 0.57332 0.0
H922 H 0.47866 0.7913 0.57852 0.0
H923 H 0.47231 0.81189 0.53995 0.0
H924 H 0.78268 0.5087 0.87709 0.0
H925 H 0.76064 0.51441 0.83902 0.0
H926 H 0.78263 0.47598 0.78416 0.0
H927 H 0.80444 0.47007 0.82175 0.0
H928 H 0.77571 0.53443 0.78163 0.0
H929 H 0.70701 0.43711 0.78588 0.0
H930 H 0.72782 0.45243 0.81378 0.0
H931 H 0.73765 0.44353 0.78353 0.0
C932 C 0.78307 0.50176 0.85683 0.0
C933 C 0.79506 0.48866 0.85256 0.0
C934 C 0.77052 0.50507 0.83512 0.0
C935 C 0.76979 0.49533 0.80893 0.0
C936 C 0.78274 0.48337 0.80432 0.0
H937 H 0.71451 0.50599 0.64901 0.0
H938 H 0.74056 0.51167 0.68877 0.0
C939 C 0.7952 0.48001 0.82589 0.0
C940 C 0.75419 0.49601 0.78679 0.0
H941 H 0.70499 0.45921 0.74781 0.0
C942 C 0.76014 0.51806 0.77429 0.0
C943 C 0.73378 0.47463 0.77752 0.0
C944 C 0.72598 0.45058 0.79098 0.0
C945 C 0.74645 0.51917 0.75219 0.0
C946 C 0.72652 0.49763 0.74229 0.0
C947 C 0.72035 0.47571 0.75528 0.0
C948 C 0.71151 0.49709 0.71864 0.0
C949 C 0.75325 0.54335 0.73982 0.0
C950 C 0.68658 0.48703 0.72218 0.0
C951 C 0.67169 0.48351 0.69956 0.0
C952 C 0.6814 0.48997 0.6728 0.0
C953 C 0.7065 0.50091 0.66936 0.0
C954 C 0.72142 0.50431 0.69209 0.0
H955 H 0.76463 0.55835 0.75411 0.0
H956 H 0.76367 0.5459 0.72058 0.0
H957 H 0.73695 0.54443 0.73448 0.0
H958 H 0.67853 0.48129 0.74245 0.0
H959 H 0.65246 0.47518 0.70301 0.0
H960 H 0.32679 0.79545 0.99611 0.0
H961 H 0.29943 0.77682 0.9575 0.0
H962 H 0.24322 0.78081 1.0021 0.0
H963 H 0.2705 0.79881 0.0416 0.0
H964 H 0.22581 0.73843 0.97971 0.0
H965 H 0.27744 0.8045 0.89862 0.0
H966 H 0.29618 0.7946 0.91462 0.0
H967 H 0.28503 0.81069 0.93472 0.0
C968 C 0.3087 0.79264 0.99771 0.0
C969 C 0.30088 0.79874 0.02195 0.0
C970 C 0.29309 0.78217 0.9754 0.0
C971 C 0.26941 0.77799 0.97646 0.0
C972 C 0.2615 0.7841 1.00064 0.0
H973 H 0.18789 0.71639 0.82186 0.0
H974 H 0.20638 0.74435 0.86079 0.0
C975 C 0.27708 0.79436 0.02321 0.0
C976 C 0.25263 0.76552 0.95308 0.0
H977 H 0.24991 0.76366 0.8826 0.0
C978 C 0.23088 0.74424 0.95851 0.0
C979 C 0.25874 0.77332 0.92535 0.0
C980 C 0.28049 0.79719 0.91806 0.0
C981 C 0.21606 0.7297 0.93699 0.0
C982 C 0.22357 0.73616 0.90925 0.0
C983 C 0.24435 0.75835 0.90381 0.0
C984 C 0.21141 0.71924 0.88593 0.0
C985 C 0.19265 0.70737 0.94432 0.0
C986 C 0.20848 0.69604 0.88684 0.0
C987 C 0.19779 0.68009 0.86492 0.0
C988 C 0.19016 0.68704 0.84116 0.0
C989 C 0.1935 0.71045 0.83991 0.0
C990 C 0.20403 0.72642 0.86214 0.0
H991 H 0.18523 0.70988 0.96398 0.0
H992 H 0.17893 0.70252 0.92785 0.0
H993 H 0.19597 0.6921 0.94733 0.0
H994 H 0.21482 0.69032 0.90442 0.0
H995 H 0.19586 0.66234 0.86648 0.0
H996 H 0.50945 0.33151 0.15454 0.0
H997 H 0.50297 0.30446 0.11604 0.0
H998 H 0.47306 0.24382 0.17174 0.0
H999 H 0.47921 0.27089 0.21062 0.0
H1000 H 0.52523 0.27746 0.11261 0.0
H1001 H 0.42583 0.21875 0.10622 0.0
H1002 H 0.44002 0.24706 0.12463 0.0
H1003 H 0.43848 0.22078 0.13992 0.0
C1004 C 0.50115 0.31237 0.15865 0.0
C1005 C 0.49499 0.30337 0.18572 0.0
C1006 C 0.49742 0.29693 0.13656 0.0
C1007 C 0.48741 0.27212 0.14095 0.0
C1008 C 0.48042 0.26287 0.16779 0.0
H1009 H 0.5126 0.17765 0.03727 0.0
H1010 H 0.50686 0.19904 0.07549 0.0
C1011 C 0.48406 0.27836 0.19001 0.0
C1012 C 0.48673 0.25658 0.11783 0.0
H1013 H 0.44944 0.20763 0.07846 0.0
C1014 C 0.50863 0.26225 0.1051 0.0
C1015 C 0.46504 0.23685 0.10793 0.0
C1016 C 0.44095 0.23054 0.12017 0.0
C1017 C 0.50951 0.24862 0.08299 0.0
C1018 C 0.48795 0.22852 0.07354 0.0
C1019 C 0.46594 0.22297 0.08591 0.0
C1020 C 0.48833 0.21303 0.05108 0.0
C1021 C 0.53354 0.25595 0.06973 0.0
C1022 C 0.479 0.2131 0.02487 0.0
C1023 C 0.48222 0.20081 1.00282 0.0
C1024 C 0.49483 0.18829 1.00673 0.0
C1025 C 0.50303 0.18731 0.03341 0.0
C1026 C 0.49976 0.19951 0.05533 0.0
H1027 H 0.54738 0.2747 0.07519 0.0
H1028 H 0.54002 0.24373 0.07697 0.0
H1029 H 0.53185 0.25446 0.0469 0.0
H1030 H 0.47008 0.22344 0.02124 0.0
H1031 H 0.47564 0.20186 0.98256 0.0
loop_
_geom_bond_atom_site_label_1
_geom_bond_atom_site_label_2
_geom_bond_distance
_geom_bond_site_symmetry_2
_ccdc_geom_bond_type
C0 O2 1.247 . S
C0 O4 1.258 . S
C1 O8 1.247 . S
C1 O9 1.258 . S
O2 C0 1.247 . S
O2 Zn3 2.028 . S
Zn3 O2 2.028 . S
Zn3 O7 2.035 . S
Zn3 O9 2.035 . S
Zn3 O10 2.028 . S
O4 C0 1.258 . S
O4 Zn5 2.035 . S
Zn5 O4 2.035 . S
Zn5 O6 2.028 . S
Zn5 O8 2.028 . S
Zn5 O11 2.035 . S
O6 Zn5 2.028 . S
O6 C12 1.247 . S
O7 Zn3 2.035 . S
O7 C12 1.258 . S
O8 C1 1.247 . S
O8 Zn5 2.028 . S
O9 C1 1.258 . S
O9 Zn3 2.035 . S
O10 Zn3 2.028 . S
O10 C13 1.247 . S
O11 Zn5 2.035 . S
O11 C13 1.258 . S
C12 O6 1.247 . S
C12 O7 1.258 . S
C13 O10 1.247 . S
C13 O11 1.258 . S
C14 O16 1.247 . S
C14 O18 1.258 . S
C15 O22 1.247 . S
C15 O23 1.258 . S
O16 C14 1.247 . S
O16 Zn17 2.028 . S
Zn17 O16 2.028 . S
Zn17 O21 2.035 . S
Zn17 O23 2.035 . S
Zn17 O24 2.028 . S
O18 C14 1.258 . S
O18 Zn19 2.035 . S
Zn19 O18 2.035 . S
Zn19 O20 2.028 . S
Zn19 O22 2.028 . S
Zn19 O25 2.035 . S
O20 Zn19 2.028 . S
O20 C26 1.247 . S
O21 Zn17 2.035 . S
O21 C26 1.258 . S
O22 C15 1.247 . S
O22 Zn19 2.028 . S
O23 C15 1.258 . S
O23 Zn17 2.035 . S
O24 Zn17 2.028 . S
O24 C27 1.247 . S
O25 Zn19 2.035 . S
O25 C27 1.258 . S
C26 O20 1.247 . S
C26 O21 1.258 . S
C27 O24 1.247 . S
C27 O25 1.258 . S
C28 O30 1.247 . S
C28 O32 1.258 . S
C29 O36 1.247 . S
C29 O37 1.258 . S
O30 C28 1.247 . S
O30 Zn31 2.028 . S
Zn31 O30 2.028 . S
Zn31 O35 2.035 . S
Zn31 O37 2.035 . S
Zn31 O38 2.028 . S
O32 C28 1.258 . S
O32 Zn33 2.035 . S
Zn33 O32 2.035 . S
Zn33 O34 2.028 . S
Zn33 O36 2.028 . S
Zn33 O39 2.035 . S
O34 Zn33 2.028 . S
O34 C40 1.247 . S
O35 Zn31 2.035 . S
O35 C40 1.258 . S
O36 C29 1.247 . S
O36 Zn33 2.028 . S
O37 C29 1.258 . S
O37 Zn31 2.035 . S
O38 Zn31 2.028 . S
O38 C41 1.247 . S
O39 Zn33 2.035 . S
O39 C41 1.258 . S
C40 O34 1.247 . S
C40 O35 1.258 . S
C41 O38 1.247 . S
C41 O39 1.258 . S
C42 O44 1.247 . S
C42 O46 1.258 . S
C43 O50 1.247 . S
C43 O51 1.258 . S
O44 C42 1.247 . S
O44 Zn45 2.028 . S
Zn45 O44 2.028 . S
Zn45 O49 2.035 . S
Zn45 O51 2.035 . S
Zn45 O52 2.028 . S
O46 C42 1.258 . S
O46 Zn47 2.035 . S
Zn47 O46 2.035 . S
Zn47 O48 2.028 . S
Zn47 O50 2.028 . S
Zn47 O53 2.035 . S
O48 Zn47 2.028 . S
O48 C54 1.247 . S
O49 Zn45 2.035 . S
O49 C54 1.258 . S
O50 C43 1.247 . S
O50 Zn47 2.028 . S
O51 C43 1.258 . S
O51 Zn45 2.035 . S
O52 Zn45 2.028 . S
O52 C55 1.247 . S
O53 Zn47 2.035 . S
O53 C55 1.258 . S
C54 O48 1.247 . S
C54 O49 1.258 . S
C55 O52 1.247 . S
C55 O53 1.258 . S
C56 O58 1.247 . S
C56 O60 1.258 . S
C57 O64 1.247 . S
C57 O65 1.258 . S
O58 C56 1.247 . S
O58 Zn59 2.028 . S
Zn59 O58 2.028 . S
Zn59 O63 2.035 . S
Zn59 O65 2.035 . S
Zn59 O66 2.028 . S
O60 C56 1.258 . S
O60 Zn61 2.035 . S
Zn61 O60 2.035 . S
Zn61 O62 2.028 . S
Zn61 O64 2.028 . S
Zn61 O67 2.035 . S
O62 Zn61 2.028 . S
O62 C68 1.247 . S
O63 Zn59 2.035 . S
O63 C68 1.258 . S
O64 C57 1.247 . S
O64 Zn61 2.028 . S
O65 C57 1.258 . S
O65 Zn59 2.035 . S
O66 Zn59 2.028 . S
O66 C69 1.247 . S
O67 Zn61 2.035 . S
O67 C69 1.258 . S
C68 O62 1.247 . S
C68 O63 1.258 . S
C69 O66 1.247 . S
C69 O67 1.258 . S
C70 O72 1.247 . S
C70 O74 1.258 . S
C71 O78 1.247 . S
C71 O79 1.258 . S
O72 C70 1.247 . S
O72 Zn73 2.028 . S
Zn73 O72 2.028 . S
Zn73 O77 2.035 . S
Zn73 O79 2.035 . S
Zn73 O80 2.028 . S
O74 C70 1.258 . S
O74 Zn75 2.035 . S
Zn75 O74 2.035 . S
Zn75 O76 2.028 . S
Zn75 O78 2.028 . S
Zn75 O81 2.035 . S
O76 Zn75 2.028 . S
O76 C82 1.247 . S
O77 Zn73 2.035 . S
O77 C82 1.258 . S
O78 C71 1.247 . S
O78 Zn75 2.028 . S
O79 C71 1.258 . S
O79 Zn73 2.035 . S
O80 Zn73 2.028 . S
O80 C83 1.247 . S
O81 Zn75 2.035 . S
O81 C83 1.258 . S
C82 O76 1.247 . S
C82 O77 1.258 . S
C83 O80 1.247 . S
C83 O81 1.258 . S
C84 O86 1.247 . S
C84 O88 1.258 . S
C85 O92 1.247 . S
C85 O93 1.258 . S
O86 C84 1.247 . S
O86 Zn87 2.028 . S
Zn87 O86 2.028 . S
Zn87 O91 2.035 . S
Zn87 O93 2.035 . S
Zn87 O94 2.028 . S
O88 C84 1.258 . S
O88 Zn89 2.035 . S
Zn89 O88 2.035 . S
Zn89 O90 2.028 . S
Zn89 O92 2.028 . S
Zn89 O95 2.035 . S
O90 Zn89 2.028 . S
O90 C96 1.247 . S
O91 Zn87 2.035 . S
O91 C96 1.258 . S
O92 C85 1.247 . S
O92 Zn89 2.028 . S
O93 C85 1.258 . S
O93 Zn87 2.035 . S
O94 Zn87 2.028 . S
O94 C97 1.247 . S
O95 Zn89 2.035 . S
O95 C97 1.258 . S
C96 O90 1.247 . S
C96 O91 1.258 . S
C97 O94 1.247 . S
C97 O95 1.258 . S
C98 O100 1.247 . S
C98 O102 1.258 . S
C99 O106 1.247 . S
C99 O107 1.258 . S
O100 C98 1.247 . S
O100 Zn101 2.028 . S
Zn101 O100 2.028 . S
Zn101 O105 2.035 . S
Zn101 O107 2.035 . S
Zn101 O108 2.028 . S
O102 C98 1.258 . S
O102 Zn103 2.035 . S
Zn103 O102 2.035 . S
Zn103 O104 2.028 . S
Zn103 O106 2.028 . S
Zn103 O109 2.035 . S
O104 Zn103 2.028 . S
O104 C110 1.247 . S
O105 Zn101 2.035 . S
O105 C110 1.258 . S
O106 C99 1.247 . S
O106 Zn103 2.028 . S
O107 C99 1.258 . S
O107 Zn101 2.035 . S
O108 Zn101 2.028 . S
O108 C111 1.247 . S
O109 Zn103 2.035 . S
O109 C111 1.258 . S
C110 O104 1.247 . S
C110 O105 1.258 . S
C111 O108 1.247 . S
C111 O109 1.258 . S
C112 O114 1.247 . S
C112 O116 1.258 . S
C113 O120 1.247 . S
C113 O121 1.258 . S
O114 C112 1.247 . S
O114 Zn115 2.028 . S
Zn115 O114 2.028 . S
Zn115 O119 2.035 . S
Zn115 O121 2.035 . S
Zn115 O122 2.028 . S
O116 C112 1.258 . S
O116 Zn117 2.035 . S
Zn117 O116 2.035 . S
Zn117 O118 2.028 . S
Zn117 O120 2.028 . S
Zn117 O123 2.035 . S
O118 Zn117 2.028 . S
O118 C124 1.247 . S
O119 Zn115 2.035 . S
O119 C124 1.258 . S
O120 C113 1.247 . S
O120 Zn117 2.028 . S
O121 C113 1.258 . S
O121 Zn115 2.035 . S
O122 Zn115 2.028 . S
O122 C125 1.247 . S
O123 Zn117 2.035 . S
O123 C125 1.258 . S
C124 O118 1.247 . S
C124 O119 1.258 . S
C125 O122 1.247 . S
C125 O123 1.258 . S
C126 O128 1.247 . S
C126 O130 1.258 . S
C127 O134 1.247 . S
C127 O135 1.258 . S
O128 C126 1.247 . S
O128 Zn129 2.028 . S
Zn129 O128 2.028 . S
Zn129 O133 2.035 . S
Zn129 O135 2.035 . S
Zn129 O136 2.028 . S
O130 C126 1.258 . S
O130 Zn131 2.035 . S
Zn131 O130 2.035 . S
Zn131 O132 2.028 . S
Zn131 O134 2.028 . S
Zn131 O137 2.035 . S
O132 Zn131 2.028 . S
O132 C138 1.247 . S
O133 Zn129 2.035 . S
O133 C138 1.258 . S
O134 C127 1.247 . S
O134 Zn131 2.028 . S
O135 C127 1.258 . S
O135 Zn129 2.035 . S
O136 Zn129 2.028 . S
O136 C139 1.247 . S
O137 Zn131 2.035 . S
O137 C139 1.258 . S
C138 O132 1.247 . S
C138 O133 1.258 . S
C139 O136 1.247 . S
C139 O137 1.258 . S
C140 O142 1.247 . S
C140 O144 1.258 . S
C141 O148 1.247 . S
C141 O149 1.258 . S
O142 C140 1.247 . S
O142 Zn143 2.028 . S
Zn143 O142 2.028 . S
Zn143 O147 2.035 . S
Zn143 O149 2.035 . S
Zn143 O150 2.028 . S
O144 C140 1.258 . S
O144 Zn145 2.035 . S
Zn145 O144 2.035 . S
Zn145 O146 2.028 . S
Zn145 O148 2.028 . S
Zn145 O151 2.035 . S
O146 Zn145 2.028 . S
O146 C152 1.247 . S
O147 Zn143 2.035 . S
O147 C152 1.258 . S
O148 C141 1.247 . S
O148 Zn145 2.028 . S
O149 C141 1.258 . S
O149 Zn143 2.035 . S
O150 Zn143 2.028 . S
O150 C153 1.247 . S
O151 Zn145 2.035 . S
O151 C153 1.258 . S
C152 O146 1.247 . S
C152 O147 1.258 . S
C153 O150 1.247 . S
C153 O151 1.258 . S
C154 O156 1.247 . S
C154 O158 1.258 . S
C155 O162 1.247 . S
C155 O163 1.258 . S
O156 C154 1.247 . S
O156 Zn157 2.028 . S
Zn157 O156 2.028 . S
Zn157 O161 2.035 . S
Zn157 O163 2.035 . S
Zn157 O164 2.028 . S
O158 C154 1.258 . S
O158 Zn159 2.035 . S
Zn159 O158 2.035 . S
Zn159 O160 2.028 . S
Zn159 O162 2.028 . S
Zn159 O165 2.035 . S
O160 Zn159 2.028 . S
O160 C166 1.247 . S
O161 Zn157 2.035 . S
O161 C166 1.258 . S
O162 C155 1.247 . S
O162 Zn159 2.028 . S
O163 C155 1.258 . S
O163 Zn157 2.035 . S
O164 Zn157 2.028 . S
O164 C167 1.247 . S
O165 Zn159 2.035 . S
O165 C167 1.258 . S
C166 O160 1.247 . S
C166 O161 1.258 . S
C167 O164 1.247 . S
C167 O165 1.258 . S
H168 C176 0.929 . S
H169 C178 0.930 . S
H170 C180 0.930 . S
H171 C183 0.929 . S
H172 C186 0.930 . S
H173 C188 0.960 . S
H174 C188 0.960 . S
H175 C188 0.960 . S
C176 H168 0.929 . S
C176 C177 1.377 . S
C176 C178 1.384 . S
C177 C176 1.377 . S
C177 C183 1.390 . S
C178 H169 0.930 . S
C178 C176 1.384 . S
C178 C179 1.372 . S
C179 C178 1.372 . S
C179 C180 1.400 . S
C179 C184 1.490 . S
C180 H170 0.930 . S
C180 C179 1.400 . S
C180 C183 1.386 . S
H181 C197 0.930 . S
H182 C198 0.931 . S
C183 H171 0.929 . S
C183 C177 1.390 . S
C183 C180 1.386 . S
C184 C179 1.490 . S
C184 C186 1.395 . S
C184 C187 1.403 . S
H185 C191 0.930 . S
C186 H172 0.930 . S
C186 C184 1.395 . S
C186 C189 1.403 . S
C187 C184 1.403 . S
C187 C188 1.524 . S
C187 C191 1.400 . S
C188 H173 0.960 . S
C188 H174 0.960 . S
C188 H175 0.960 . S
C188 C187 1.524 . S
C189 C186 1.403 . S
C189 C190 1.392 . S
C189 C193 1.495 . S
C190 C189 1.392 . S
C190 C191 1.385 . S
C190 C192 1.478 . S
C191 H185 0.930 . S
C191 C187 1.400 . S
C191 C190 1.385 . S
C192 C190 1.478 . S
C192 C194 1.381 . S
C192 C198 1.383 . S
C193 C189 1.495 . S
C193 H199 0.959 . S
C193 H200 0.961 . S
C193 H201 0.960 . S
C194 C192 1.381 . S
C194 C195 1.394 . S
C194 H202 0.930 . S
C195 C194 1.394 . S
C195 C196 1.383 . S
C195 H203 0.929 . S
C196 C195 1.383 . S
C196 C197 1.377 . S
C197 H181 0.930 . S
C197 C196 1.377 . S
C197 C198 1.379 . S
C198 H182 0.931 . S
C198 C192 1.383 . S
C198 C197 1.379 . S
H199 C193 0.959 . S
H200 C193 0.961 . S
H201 C193 0.960 . S
H202 C194 0.930 . S
H203 C195 0.929 . S
H204 C212 0.929 . S
H205 C214 0.930 . S
H206 C216 0.930 . S
H207 C219 0.929 . S
H208 C222 0.930 . S
H209 C224 0.960 . S
H210 C224 0.960 . S
H211 C224 0.960 . S
C212 H204 0.929 . S
C212 C213 1.377 . S
C212 C214 1.384 . S
C213 C212 1.377 . S
C213 C219 1.390 . S
C214 H205 0.930 . S
C214 C212 1.384 . S
C214 C215 1.372 . S
C215 C214 1.372 . S
C215 C216 1.400 . S
C215 C220 1.490 . S
C216 H206 0.930 . S
C216 C215 1.400 . S
C216 C219 1.386 . S
H217 C233 0.930 . S
H218 C234 0.931 . S
C219 H207 0.929 . S
C219 C213 1.390 . S
C219 C216 1.386 . S
C220 C215 1.490 . S
C220 C222 1.395 . S
C220 C223 1.403 . S
H221 C227 0.930 . S
C222 H208 0.930 . S
C222 C220 1.395 . S
C222 C225 1.403 . S
C223 C220 1.403 . S
C223 C224 1.524 . S
C223 C227 1.400 . S
C224 H209 0.960 . S
C224 H210 0.960 . S
C224 H211 0.960 . S
C224 C223 1.524 . S
C225 C222 1.403 . S
C225 C226 1.392 . S
C225 C229 1.495 . S
C226 C225 1.392 . S
C226 C227 1.385 . S
C226 C228 1.478 . S
C227 H221 0.930 . S
C227 C223 1.400 . S
C227 C226 1.385 . S
C228 C226 1.478 . S
C228 C230 1.381 . S
C228 C234 1.383 . S
C229 C225 1.495 . S
C229 H235 0.959 . S
C229 H236 0.961 . S
C229 H237 0.960 . S
C230 C228 1.381 . S
C230 C231 1.394 . S
C230 H238 0.930 . S
C231 C230 1.394 . S
C231 C232 1.383 . S
C231 H239 0.929 . S
C232 C231 1.383 . S
C232 C233 1.377 . S
C233 H217 0.930 . S
C233 C232 1.377 . S
C233 C234 1.379 . S
C234 H218 0.931 . S
C234 C228 1.383 . S
C234 C233 1.379 . S
H235 C229 0.959 . S
H236 C229 0.961 . S
H237 C229 0.960 . S
H238 C230 0.930 . S
H239 C231 0.929 . S
H240 C248 0.929 . S
H241 C250 0.930 . S
H242 C252 0.930 . S
H243 C255 0.929 . S
H244 C258 0.930 . S
H245 C260 0.960 . S
H246 C260 0.960 . S
H247 C260 0.960 . S
C248 H240 0.929 . S
C248 C249 1.377 . S
C248 C250 1.384 . S
C249 C248 1.377 . S
C249 C255 1.390 . S
C250 H241 0.930 . S
C250 C248 1.384 . S
C250 C251 1.372 . S
C251 C250 1.372 . S
C251 C252 1.400 . S
C251 C256 1.490 . S
C252 H242 0.930 . S
C252 C251 1.400 . S
C252 C255 1.386 . S
H253 C269 0.930 . S
H254 C270 0.931 . S
C255 H243 0.929 . S
C255 C249 1.390 . S
C255 C252 1.386 . S
C256 C251 1.490 . S
C256 C258 1.395 . S
C256 C259 1.403 . S
H257 C263 0.930 . S
C258 H244 0.930 . S
C258 C256 1.395 . S
C258 C261 1.403 . S
C259 C256 1.403 . S
C259 C260 1.524 . S
C259 C263 1.400 . S
C260 H245 0.960 . S
C260 H246 0.960 . S
C260 H247 0.960 . S
C260 C259 1.524 . S
C261 C258 1.403 . S
C261 C262 1.392 . S
C261 C265 1.495 . S
C262 C261 1.392 . S
C262 C263 1.385 . S
C262 C264 1.478 . S
C263 H257 0.930 . S
C263 C259 1.400 . S
C263 C262 1.385 . S
C264 C262 1.478 . S
C264 C266 1.381 . S
C264 C270 1.383 . S
C265 C261 1.495 . S
C265 H271 0.959 . S
C265 H272 0.961 . S
C265 H273 0.960 . S
C266 C264 1.381 . S
C266 C267 1.394 . S
C266 H274 0.930 . S
C267 C266 1.394 . S
C267 C268 1.383 . S
C267 H275 0.929 . S
C268 C267 1.383 . S
C268 C269 1.377 . S
C269 H253 0.930 . S
C269 C268 1.377 . S
C269 C270 1.379 . S
C270 H254 0.931 . S
C270 C264 1.383 . S
C270 C269 1.379 . S
H271 C265 0.959 . S
H272 C265 0.961 . S
H273 C265 0.960 . S
H274 C266 0.930 . S
H275 C267 0.929 . S
H276 C284 0.929 . S
H277 C286 0.930 . S
H278 C288 0.930 . S
H279 C291 0.929 . S
H280 C294 0.930 . S
H281 C296 0.960 . S
H282 C296 0.960 . S
H283 C296 0.960 . S
C284 H276 0.929 . S
C284 C285 1.377 . S
C284 C286 1.384 . S
C285 C284 1.377 . S
C285 C291 1.390 . S
C286 H277 0.930 . S
C286 C284 1.384 . S
C286 C287 1.372 . S
C287 C286 1.372 . S
C287 C288 1.400 . S
C287 C292 1.490 . S
C288 H278 0.930 . S
C288 C287 1.400 . S
C288 C291 1.386 . S
H289 C305 0.930 . S
H290 C306 0.931 . S
C291 H279 0.929 . S
C291 C285 1.390 . S
C291 C288 1.386 . S
C292 C287 1.490 . S
C292 C294 1.395 . S
C292 C295 1.403 . S
H293 C299 0.930 . S
C294 H280 0.930 . S
C294 C292 1.395 . S
C294 C297 1.403 . S
C295 C292 1.403 . S
C295 C296 1.524 . S
C295 C299 1.400 . S
C296 H281 0.960 . S
C296 H282 0.960 . S
C296 H283 0.960 . S
C296 C295 1.524 . S
C297 C294 1.403 . S
C297 C298 1.392 . S
C297 C301 1.495 . S
C298 C297 1.392 . S
C298 C299 1.385 . S
C298 C300 1.478 . S
C299 H293 0.930 . S
C299 C295 1.400 . S
C299 C298 1.385 . S
C300 C298 1.478 . S
C300 C302 1.381 . S
C300 C306 1.383 . S
C301 C297 1.495 . S
C301 H307 0.959 . S
C301 H308 0.961 . S
C301 H309 0.960 . S
C302 C300 1.381 . S
C302 C303 1.394 . S
C302 H310 0.930 . S
C303 C302 1.394 . S
C303 C304 1.383 . S
C303 H311 0.929 . S
C304 C303 1.383 . S
C304 C305 1.377 . S
C305 H289 0.930 . S
C305 C304 1.377 . S
C305 C306 1.379 . S
C306 H290 0.931 . S
C306 C300 1.383 . S
C306 C305 1.379 . S
H307 C301 0.959 . S
H308 C301 0.961 . S
H309 C301 0.960 . S
H310 C302 0.930 . S
H311 C303 0.929 . S
H312 C320 0.929 . S
H313 C322 0.930 . S
H314 C324 0.930 . S
H315 C327 0.929 . S
H316 C330 0.930 . S
H317 C332 0.960 . S
H318 C332 0.960 . S
H319 C332 0.960 . S
C320 H312 0.929 . S
C320 C321 1.377 . S
C320 C322 1.384 . S
C321 C320 1.377 . S
C321 C327 1.390 . S
C322 H313 0.930 . S
C322 C320 1.384 . S
C322 C323 1.372 . S
C323 C322 1.372 . S
C323 C324 1.400 . S
C323 C328 1.490 . S
C324 H314 0.930 . S
C324 C323 1.400 . S
C324 C327 1.386 . S
H325 C341 0.930 . S
H326 C342 0.931 . S
C327 H315 0.929 . S
C327 C321 1.390 . S
C327 C324 1.386 . S
C328 C323 1.490 . S
C328 C330 1.395 . S
C328 C331 1.403 . S
H329 C335 0.930 . S
C330 H316 0.930 . S
C330 C328 1.395 . S
C330 C333 1.403 . S
C331 C328 1.403 . S
C331 C332 1.524 . S
C331 C335 1.400 . S
C332 H317 0.960 . S
C332 H318 0.960 . S
C332 H319 0.960 . S
C332 C331 1.524 . S
C333 C330 1.403 . S
C333 C334 1.392 . S
C333 C337 1.495 . S
C334 C333 1.392 . S
C334 C335 1.385 . S
C334 C336 1.478 . S
C335 H329 0.930 . S
C335 C331 1.400 . S
C335 C334 1.385 . S
C336 C334 1.478 . S
C336 C338 1.381 . S
C336 C342 1.383 . S
C337 C333 1.495 . S
C337 H343 0.959 . S
C337 H344 0.961 . S
C337 H345 0.960 . S
C338 C336 1.381 . S
C338 C339 1.394 . S
C338 H346 0.930 . S
C339 C338 1.394 . S
C339 C340 1.383 . S
C339 H347 0.929 . S
C340 C339 1.383 . S
C340 C341 1.377 . S
C341 H325 0.930 . S
C341 C340 1.377 . S
C341 C342 1.379 . S
C342 H326 0.931 . S
C342 C336 1.383 . S
C342 C341 1.379 . S
H343 C337 0.959 . S
H344 C337 0.961 . S
H345 C337 0.960 . S
H346 C338 0.930 . S
H347 C339 0.929 . S
H348 C356 0.929 . S
H349 C358 0.930 . S
H350 C360 0.930 . S
H351 C363 0.929 . S
H352 C366 0.930 . S
H353 C368 0.960 . S
H354 C368 0.960 . S
H355 C368 0.960 . S
C356 H348 0.929 . S
C356 C357 1.377 . S
C356 C358 1.384 . S
C357 C356 1.377 . S
C357 C363 1.390 . S
C358 H349 0.930 . S
C358 C356 1.384 . S
C358 C359 1.372 . S
C359 C358 1.372 . S
C359 C360 1.400 . S
C359 C364 1.490 . S
C360 H350 0.930 . S
C360 C359 1.400 . S
C360 C363 1.386 . S
H361 C377 0.930 . S
H362 C378 0.931 . S
C363 H351 0.929 . S
C363 C357 1.390 . S
C363 C360 1.386 . S
C364 C359 1.490 . S
C364 C366 1.395 . S
C364 C367 1.403 . S
H365 C371 0.930 . S
C366 H352 0.930 . S
C366 C364 1.395 . S
C366 C369 1.403 . S
C367 C364 1.403 . S
C367 C368 1.524 . S
C367 C371 1.400 . S
C368 H353 0.960 . S
C368 H354 0.960 . S
C368 H355 0.960 . S
C368 C367 1.524 . S
C369 C366 1.403 . S
C369 C370 1.392 . S
C369 C373 1.495 . S
C370 C369 1.392 . S
C370 C371 1.385 . S
C370 C372 1.478 . S
C371 H365 0.930 . S
C371 C367 1.400 . S
C371 C370 1.385 . S
C372 C370 1.478 . S
C372 C374 1.381 . S
C372 C378 1.383 . S
C373 C369 1.495 . S
C373 H379 0.959 . S
C373 H380 0.961 . S
C373 H381 0.960 . S
C374 C372 1.381 . S
C374 C375 1.394 . S
C374 H382 0.930 . S
C375 C374 1.394 . S
C375 C376 1.383 . S
C375 H383 0.929 . S
C376 C375 1.383 . S
C376 C377 1.377 . S
C377 H361 0.930 . S
C377 C376 1.377 . S
C377 C378 1.379 . S
C378 H362 0.931 . S
C378 C372 1.383 . S
C378 C377 1.379 . S
H379 C373 0.959 . S
H380 C373 0.961 . S
H381 C373 0.960 . S
H382 C374 0.930 . S
H383 C375 0.929 . S
H384 C392 0.929 . S
H385 C394 0.930 . S
H386 C396 0.930 . S
H387 C399 0.929 . S
H388 C402 0.930 . S
H389 C404 0.960 . S
H390 C404 0.960 . S
H391 C404 0.960 . S
C392 H384 0.929 . S
C392 C393 1.377 . S
C392 C394 1.384 . S
C393 C392 1.377 . S
C393 C399 1.390 . S
C394 H385 0.930 . S
C394 C392 1.384 . S
C394 C395 1.372 . S
C395 C394 1.372 . S
C395 C396 1.400 . S
C395 C400 1.490 . S
C396 H386 0.930 . S
C396 C395 1.400 . S
C396 C399 1.386 . S
H397 C413 0.930 . S
H398 C414 0.931 . S
C399 H387 0.929 . S
C399 C393 1.390 . S
C399 C396 1.386 . S
C400 C395 1.490 . S
C400 C402 1.395 . S
C400 C403 1.403 . S
H401 C407 0.930 . S
C402 H388 0.930 . S
C402 C400 1.395 . S
C402 C405 1.403 . S
C403 C400 1.403 . S
C403 C404 1.524 . S
C403 C407 1.400 . S
C404 H389 0.960 . S
C404 H390 0.960 . S
C404 H391 0.960 . S
C404 C403 1.524 . S
C405 C402 1.403 . S
C405 C406 1.392 . S
C405 C409 1.495 . S
C406 C405 1.392 . S
C406 C407 1.385 . S
C406 C408 1.478 . S
C407 H401 0.930 . S
C407 C403 1.400 . S
C407 C406 1.385 . S
C408 C406 1.478 . S
C408 C410 1.381 . S
C408 C414 1.383 . S
C409 C405 1.495 . S
C409 H415 0.959 . S
C409 H416 0.961 . S
C409 H417 0.960 . S
C410 C408 1.381 . S
C410 C411 1.394 . S
C410 H418 0.930 . S
C411 C410 1.394 . S
C411 C412 1.383 . S
C411 H419 0.929 . S
C412 C411 1.383 . S
C412 C413 1.377 . S
C413 H397 0.930 . S
C413 C412 1.377 . S
C413 C414 1.379 . S
C414 H398 0.931 . S
C414 C408 1.383 . S
C414 C413 1.379 . S
H415 C409 0.959 . S
H416 C409 0.961 . S
H417 C409 0.960 . S
H418 C410 0.930 . S
H419 C411 0.929 . S
H420 C428 0.929 . S
H421 C430 0.930 . S
H422 C432 0.930 . S
H423 C435 0.929 . S
H424 C438 0.930 . S
H425 C440 0.960 . S
H426 C440 0.960 . S
H427 C440 0.960 . S
C428 H420 0.929 . S
C428 C429 1.377 . S
C428 C430 1.384 . S
C429 C428 1.377 . S
C429 C435 1.390 . S
C430 H421 0.930 . S
C430 C428 1.384 . S
C430 C431 1.372 . S
C431 C430 1.372 . S
C431 C432 1.400 . S
C431 C436 1.490 . S
C432 H422 0.930 . S
C432 C431 1.400 . S
C432 C435 1.386 . S
H433 C449 0.930 . S
H434 C450 0.931 . S
C435 H423 0.929 . S
C435 C429 1.390 . S
C435 C432 1.386 . S
C436 C431 1.490 . S
C436 C438 1.395 . S
C436 C439 1.403 . S
H437 C443 0.930 . S
C438 H424 0.930 . S
C438 C436 1.395 . S
C438 C441 1.403 . S
C439 C436 1.403 . S
C439 C440 1.524 . S
C439 C443 1.400 . S
C440 H425 0.960 . S
C440 H426 0.960 . S
C440 H427 0.960 . S
C440 C439 1.524 . S
C441 C438 1.403 . S
C441 C442 1.392 . S
C441 C445 1.495 . S
C442 C441 1.392 . S
C442 C443 1.385 . S
C442 C444 1.478 . S
C443 H437 0.930 . S
C443 C439 1.400 . S
C443 C442 1.385 . S
C444 C442 1.478 . S
C444 C446 1.381 . S
C444 C450 1.383 . S
C445 C441 1.495 . S
C445 H451 0.959 . S
C445 H452 0.961 . S
C445 H453 0.960 . S
C446 C444 1.381 . S
C446 C447 1.394 . S
C446 H454 0.930 . S
C447 C446 1.394 . S
C447 C448 1.383 . S
C447 H455 0.929 . S
C448 C447 1.383 . S
C448 C449 1.377 . S
C449 H433 0.930 . S
C449 C448 1.377 . S
C449 C450 1.379 . S
C450 H434 0.931 . S
C450 C444 1.383 . S
C450 C449 1.379 . S
H451 C445 0.959 . S
H452 C445 0.961 . S
H453 C445 0.960 . S
H454 C446 0.930 . S
H455 C447 0.929 . S
H456 C464 0.929 . S
H457 C466 0.930 . S
H458 C468 0.930 . S
H459 C471 0.929 . S
H460 C474 0.930 . S
H461 C476 0.960 . S
H462 C476 0.960 . S
H463 C476 0.960 . S
C464 H456 0.929 . S
C464 C465 1.377 . S
C464 C466 1.384 1_554 S
C465 C464 1.377 . S
C465 C471 1.390 . S
C466 H457 0.930 . S
C466 C464 1.384 1_556 S
C466 C467 1.372 . S
C467 C466 1.372 . S
C467 C468 1.400 . S
C467 C472 1.490 . S
C468 H458 0.930 . S
C468 C467 1.400 . S
C468 C471 1.386 1_556 S
H469 C485 0.930 . S
H470 C486 0.931 . S
C471 H459 0.929 . S
C471 C465 1.390 . S
C471 C468 1.386 1_554 S
C472 C467 1.490 . S
C472 C474 1.395 . S
C472 C475 1.403 . S
H473 C479 0.930 . S
C474 H460 0.930 . S
C474 C472 1.395 . S
C474 C477 1.403 . S
C475 C472 1.403 . S
C475 C476 1.524 . S
C475 C479 1.400 . S
C476 H461 0.960 . S
C476 H462 0.960 . S
C476 H463 0.960 . S
C476 C475 1.524 . S
C477 C474 1.403 . S
C477 C478 1.392 . S
C477 C481 1.495 . S
C478 C477 1.392 . S
C478 C479 1.385 . S
C478 C480 1.478 . S
C479 H473 0.930 . S
C479 C475 1.400 . S
C479 C478 1.385 . S
C480 C478 1.478 . S
C480 C482 1.381 . S
C480 C486 1.383 . S
C481 C477 1.495 . S
C481 H487 0.959 . S
C481 H488 0.961 . S
C481 H489 0.960 . S
C482 C480 1.381 . S
C482 C483 1.394 . S
C482 H490 0.930 . S
C483 C482 1.394 . S
C483 C484 1.383 . S
C483 H491 0.929 . S
C484 C483 1.383 . S
C484 C485 1.377 . S
C485 H469 0.930 . S
C485 C484 1.377 . S
C485 C486 1.379 . S
C486 H470 0.931 . S
C486 C480 1.383 . S
C486 C485 1.379 . S
H487 C481 0.959 . S
H488 C481 0.961 . S
H489 C481 0.960 . S
H490 C482 0.930 . S
H491 C483 0.929 . S
H492 C500 0.929 . S
H493 C502 0.930 . S
H494 C504 0.930 . S
H495 C507 0.929 . S
H496 C510 0.930 . S
H497 C512 0.960 . S
H498 C512 0.960 . S
H499 C512 0.960 . S
C500 H492 0.929 . S
C500 C501 1.377 . S
C500 C502 1.384 . S
C501 C500 1.377 . S
C501 C507 1.390 . S
C502 H493 0.930 . S
C502 C500 1.384 . S
C502 C503 1.372 . S
C503 C502 1.372 . S
C503 C504 1.400 . S
C503 C508 1.490 . S
C504 H494 0.930 . S
C504 C503 1.400 . S
C504 C507 1.386 . S
H505 C521 0.930 . S
H506 C522 0.931 . S
C507 H495 0.929 . S
C507 C501 1.390 . S
C507 C504 1.386 . S
C508 C503 1.490 . S
C508 C510 1.395 . S
C508 C511 1.403 . S
H509 C515 0.930 . S
C510 H496 0.930 . S
C510 C508 1.395 . S
C510 C513 1.403 . S
C511 C508 1.403 . S
C511 C512 1.524 . S
C511 C515 1.400 . S
C512 H497 0.960 . S
C512 H498 0.960 . S
C512 H499 0.960 . S
C512 C511 1.524 . S
C513 C510 1.403 . S
C513 C514 1.392 . S
C513 C517 1.495 . S
C514 C513 1.392 . S
C514 C515 1.385 . S
C514 C516 1.478 . S
C515 H509 0.930 . S
C515 C511 1.400 . S
C515 C514 1.385 . S
C516 C514 1.478 . S
C516 C518 1.381 . S
C516 C522 1.383 . S
C517 C513 1.495 . S
C517 H523 0.959 . S
C517 H524 0.961 . S
C517 H525 0.960 . S
C518 C516 1.381 . S
C518 C519 1.394 1_554 S
C518 H526 0.930 . S
C519 C518 1.394 1_556 S
C519 C520 1.383 . S
C519 H527 0.929 . S
C520 C519 1.383 . S
C520 C521 1.377 . S
C521 H505 0.930 . S
C521 C520 1.377 . S
C521 C522 1.379 1_556 S
C522 H506 0.931 . S
C522 C516 1.383 . S
C522 C521 1.379 1_554 S
H523 C517 0.959 . S
H524 C517 0.961 . S
H525 C517 0.960 . S
H526 C518 0.930 . S
H527 C519 0.929 . S
H528 C536 0.929 . S
H529 C538 0.930 . S
H530 C540 0.930 . S
H531 C543 0.929 . S
H532 C546 0.930 . S
H533 C548 0.960 . S
H534 C548 0.960 . S
H535 C548 0.960 . S
C536 H528 0.929 . S
C536 C537 1.377 . S
C536 C538 1.384 . S
C537 C536 1.377 . S
C537 C543 1.390 . S
C538 H529 0.930 . S
C538 C536 1.384 . S
C538 C539 1.372 . S
C539 C538 1.372 . S
C539 C540 1.400 . S
C539 C544 1.490 . S
C540 H530 0.930 . S
C540 C539 1.400 . S
C540 C543 1.386 . S
H541 C557 0.930 . S
H542 C558 0.931 . S
C543 H531 0.929 . S
C543 C537 1.390 . S
C543 C540 1.386 . S
C544 C539 1.490 . S
C544 C546 1.395 . S
C544 C547 1.403 . S
H545 C551 0.930 . S
C546 H532 0.930 . S
C546 C544 1.395 . S
C546 C549 1.403 . S
C547 C544 1.403 . S
C547 C548 1.524 . S
C547 C551 1.400 . S
C548 H533 0.960 . S
C548 H534 0.960 . S
C548 H535 0.960 . S
C548 C547 1.524 . S
C549 C546 1.403 . S
C549 C550 1.392 . S
C549 C553 1.495 . S
C550 C549 1.392 . S
C550 C551 1.385 . S
C550 C552 1.478 . S
C551 H545 0.930 . S
C551 C547 1.400 . S
C551 C550 1.385 . S
C552 C550 1.478 . S
C552 C554 1.381 . S
C552 C558 1.383 . S
C553 C549 1.495 . S
C553 H559 0.959 . S
C553 H560 0.961 . S
C553 H561 0.960 . S
C554 C552 1.381 . S
C554 C555 1.394 . S
C554 H562 0.930 . S
C555 C554 1.394 . S
C555 C556 1.383 . S
C555 H563 0.929 . S
C556 C555 1.383 . S
C556 C557 1.377 . S
C557 H541 0.930 . S
C557 C556 1.377 . S
C557 C558 1.379 . S
C558 H542 0.931 . S
C558 C552 1.383 . S
C558 C557 1.379 . S
H559 C553 0.959 . S
H560 C553 0.961 . S
H561 C553 0.960 . S
H562 C554 0.930 . S
H563 C555 0.929 . S
H564 C572 0.929 . S
H565 C574 0.930 . S
H566 C576 0.930 . S
H567 C579 0.929 . S
H568 C582 0.930 . S
H569 C584 0.960 . S
H570 C584 0.960 . S
H571 C584 0.960 . S
C572 H564 0.929 . S
C572 C573 1.377 . S
C572 C574 1.384 . S
C573 C572 1.377 . S
C573 C579 1.390 . S
C574 H565 0.930 . S
C574 C572 1.384 . S
C574 C575 1.372 . S
C575 C574 1.372 . S
C575 C576 1.400 . S
C575 C580 1.490 . S
C576 H566 0.930 . S
C576 C575 1.400 . S
C576 C579 1.386 . S
H577 C593 0.930 . S
H578 C594 0.931 . S
C579 H567 0.929 . S
C579 C573 1.390 . S
C579 C576 1.386 . S
C580 C575 1.490 . S
C580 C582 1.395 . S
C580 C583 1.403 . S
H581 C587 0.930 . S
C582 H568 0.930 . S
C582 C580 1.395 . S
C582 C585 1.403 . S
C583 C580 1.403 . S
C583 C584 1.524 . S
C583 C587 1.400 . S
C584 H569 0.960 . S
C584 H570 0.960 . S
C584 H571 0.960 . S
C584 C583 1.524 . S
C585 C582 1.403 . S
C585 C586 1.392 . S
C585 C589 1.495 . S
C586 C585 1.392 . S
C586 C587 1.385 . S
C586 C588 1.478 . S
C587 H581 0.930 . S
C587 C583 1.400 . S
C587 C586 1.385 . S
C588 C586 1.478 . S
C588 C590 1.381 . S
C588 C594 1.383 . S
C589 C585 1.495 . S
C589 H595 0.959 . S
C589 H596 0.961 . S
C589 H597 0.960 . S
C590 C588 1.381 . S
C590 C591 1.394 . S
C590 H598 0.930 . S
C591 C590 1.394 . S
C591 C592 1.383 . S
C591 H599 0.929 . S
C592 C591 1.383 . S
C592 C593 1.377 . S
C593 H577 0.930 . S
C593 C592 1.377 . S
C593 C594 1.379 . S
C594 H578 0.931 . S
C594 C588 1.383 . S
C594 C593 1.379 . S
H595 C589 0.959 . S
H596 C589 0.961 . S
H597 C589 0.960 . S
H598 C590 0.930 . S
H599 C591 0.929 . S
H600 C608 0.929 . S
H601 C610 0.930 . S
H602 C612 0.930 . S
H603 C615 0.929 . S
H604 C618 0.930 . S
H605 C620 0.949 1_455 S
H606 C620 0.968 . S
H607 C620 0.962 . S
C608 H600 0.929 . S
C608 C609 1.377 . S
C608 C610 1.384 . S
C609 C608 1.377 . S
C609 C615 1.390 . S
C610 H601 0.930 . S
C610 C608 1.384 . S
C610 C611 1.372 . S
C611 C610 1.372 . S
C611 C612 1.400 . S
C611 C616 1.490 . S
C612 H602 0.930 . S
C612 C611 1.400 . S
C612 C615 1.386 . S
H613 C629 0.930 . S
H614 C630 0.931 . S
C615 H603 0.929 . S
C615 C609 1.390 . S
C615 C612 1.386 . S
C616 C611 1.490 . S
C616 C618 1.395 . S
C616 C619 1.403 . S
H617 C623 0.930 . S
C618 H604 0.930 . S
C618 C616 1.395 . S
C618 C621 1.415 . S
C619 C616 1.403 . S
C619 C620 1.525 . S
C619 C623 1.400 1_655 S
C620 H605 0.949 1_655 S
C620 H606 0.968 . S
C620 H607 0.962 . S
C620 C619 1.525 . S
C621 C618 1.415 . S
C621 C622 1.379 1_655 S
C621 C625 1.491 . S
C622 C621 1.379 1_455 S
C622 C623 1.385 . S
C622 C624 1.478 . S
C623 H617 0.930 . S
C623 C619 1.400 1_455 S
C623 C622 1.385 . S
C624 C622 1.478 . S
C624 C626 1.381 . S
C624 C630 1.383 . S
C625 C621 1.491 . S
C625 H631 1.000 . S
C625 H632 0.932 1_655 S
C625 H633 0.956 1_655 S
C626 C624 1.381 . S
C626 C627 1.394 . S
C626 H634 0.930 . S
C627 C626 1.394 . S
C627 C628 1.383 . S
C627 H635 0.929 . S
C628 C627 1.383 . S
C628 C629 1.377 . S
C629 H613 0.930 . S
C629 C628 1.377 . S
C629 C630 1.379 . S
C630 H614 0.931 . S
C630 C624 1.383 . S
C630 C629 1.379 . S
H631 C625 1.000 . S
H632 C625 0.932 1_455 S
H633 C625 0.956 1_455 S
H634 C626 0.930 . S
H635 C627 0.929 . S
H636 C644 0.929 . S
H637 C646 0.930 . S
H638 C648 0.930 . S
H639 C651 0.929 . S
H640 C654 0.930 . S
H641 C656 0.960 1_545 S
H642 C656 0.960 . S
H643 C656 0.960 . S
C644 H636 0.929 . S
C644 C645 1.377 . S
C644 C646 1.384 . S
C645 C644 1.377 . S
C645 C651 1.390 . S
C646 H637 0.930 . S
C646 C644 1.384 . S
C646 C647 1.372 . S
C647 C646 1.372 . S
C647 C648 1.400 . S
C647 C652 1.490 . S
C648 H638 0.930 . S
C648 C647 1.400 . S
C648 C651 1.386 . S
H649 C665 0.930 . S
H650 C666 0.931 . S
C651 H639 0.929 . S
C651 C645 1.390 . S
C651 C648 1.386 . S
C652 C647 1.490 . S
C652 C654 1.395 . S
C652 C655 1.403 . S
H653 C659 0.930 . S
C654 H640 0.930 . S
C654 C652 1.395 . S
C654 C657 1.409 . S
C655 C652 1.403 . S
C655 C656 1.524 . S
C655 C659 1.400 1_565 S
C656 H641 0.960 1_565 S
C656 H642 0.960 . S
C656 H643 0.960 . S
C656 C655 1.524 . S
C657 C654 1.409 . S
C657 C658 1.385 1_565 S
C657 C661 1.496 . S
C658 C657 1.385 1_545 S
C658 C659 1.385 . S
C658 C660 1.478 . S
C659 H653 0.930 . S
C659 C655 1.400 1_545 S
C659 C658 1.385 . S
C660 C658 1.478 . S
C660 C662 1.381 . S
C660 C666 1.383 . S
C661 C657 1.496 . S
C661 H667 0.962 . S
C661 H668 0.961 1_565 S
C661 H669 0.958 1_565 S
C662 C660 1.381 . S
C662 C663 1.394 . S
C662 H670 0.930 . S
C663 C662 1.394 . S
C663 C664 1.383 . S
C663 H671 0.929 . S
C664 C663 1.383 . S
C664 C665 1.377 . S
C665 H649 0.930 . S
C665 C664 1.377 . S
C665 C666 1.379 . S
C666 H650 0.931 . S
C666 C660 1.383 . S
C666 C665 1.379 . S
H667 C661 0.962 . S
H668 C661 0.961 1_545 S
H669 C661 0.958 1_545 S
H670 C662 0.930 . S
H671 C663 0.929 . S
H672 C680 0.929 . S
H673 C682 0.930 . S
H674 C684 0.930 . S
H675 C687 0.929 . S
H676 C690 0.930 . S
H677 C692 0.960 . S
H678 C692 0.960 . S
H679 C692 0.960 . S
C680 H672 0.929 . S
C680 C681 1.377 . S
C680 C682 1.384 . S
C681 C680 1.377 . S
C681 C687 1.390 . S
C682 H673 0.930 . S
C682 C680 1.384 . S
C682 C683 1.372 . S
C683 C682 1.372 . S
C683 C684 1.400 . S
C683 C688 1.490 . S
C684 H674 0.930 . S
C684 C683 1.400 . S
C684 C687 1.386 . S
H685 C701 0.930 . S
H686 C702 0.931 . S
C687 H675 0.929 . S
C687 C681 1.390 . S
C687 C684 1.386 . S
C688 C683 1.490 . S
C688 C690 1.395 . S
C688 C691 1.403 . S
H689 C695 0.930 . S
C690 H676 0.930 . S
C690 C688 1.395 . S
C690 C693 1.403 . S
C691 C688 1.403 . S
C691 C692 1.524 . S
C691 C695 1.400 . S
C692 H677 0.960 . S
C692 H678 0.960 . S
C692 H679 0.960 . S
C692 C691 1.524 . S
C693 C690 1.403 . S
C693 C694 1.392 . S
C693 C697 1.495 . S
C694 C693 1.392 . S
C694 C695 1.385 . S
C694 C696 1.478 . S
C695 H689 0.930 . S
C695 C691 1.400 . S
C695 C694 1.385 . S
C696 C694 1.478 . S
C696 C698 1.381 . S
C696 C702 1.383 . S
C697 C693 1.495 . S
C697 H703 0.959 . S
C697 H704 0.961 . S
C697 H705 0.960 . S
C698 C696 1.381 . S
C698 C699 1.394 . S
C698 H706 0.930 . S
C699 C698 1.394 . S
C699 C700 1.383 . S
C699 H707 0.929 . S
C700 C699 1.383 . S
C700 C701 1.377 . S
C701 H685 0.930 . S
C701 C700 1.377 . S
C701 C702 1.379 . S
C702 H686 0.931 . S
C702 C696 1.383 . S
C702 C701 1.379 . S
H703 C697 0.959 . S
H704 C697 0.961 . S
H705 C697 0.960 . S
H706 C698 0.930 . S
H707 C699 0.929 . S
H708 C716 0.929 . S
H709 C718 0.930 . S
H710 C720 0.930 . S
H711 C723 0.929 . S
H712 C726 0.930 . S
H713 C728 0.960 1_655 S
H714 C728 0.960 . S
H715 C728 0.960 . S
C716 H708 0.929 . S
C716 C717 1.377 . S
C716 C718 1.384 . S
C717 C716 1.377 . S
C717 C723 1.390 . S
C718 H709 0.930 . S
C718 C716 1.384 . S
C718 C719 1.372 . S
C719 C718 1.372 . S
C719 C720 1.400 . S
C719 C724 1.490 . S
C720 H710 0.930 . S
C720 C719 1.400 . S
C720 C723 1.386 . S
H721 C737 0.930 . S
H722 C738 0.931 . S
C723 H711 0.929 . S
C723 C717 1.390 . S
C723 C720 1.386 . S
C724 C719 1.490 . S
C724 C726 1.395 . S
C724 C727 1.403 . S
H725 C731 0.930 . S
C726 H712 0.930 . S
C726 C724 1.395 . S
C726 C729 1.403 1_455 S
C727 C724 1.403 . S
C727 C728 1.524 . S
C727 C731 1.400 1_455 S
C728 H713 0.960 1_455 S
C728 H714 0.960 . S
C728 H715 0.960 . S
C728 C727 1.524 . S
C729 C726 1.403 1_655 S
C729 C730 1.392 . S
C729 C733 1.495 . S
C730 C729 1.392 . S
C730 C731 1.385 . S
C730 C732 1.478 . S
C731 H725 0.930 . S
C731 C727 1.400 1_655 S
C731 C730 1.385 . S
C732 C730 1.478 . S
C732 C734 1.381 . S
C732 C738 1.383 . S
C733 C729 1.495 . S
C733 H739 0.959 1_655 S
C733 H740 0.961 . S
C733 H741 0.960 . S
C734 C732 1.381 . S
C734 C735 1.394 . S
C734 H742 0.930 . S
C735 C734 1.394 . S
C735 C736 1.383 . S
C735 H743 0.929 . S
C736 C735 1.383 . S
C736 C737 1.377 . S
C737 H721 0.930 . S
C737 C736 1.377 . S
C737 C738 1.379 . S
C738 H722 0.931 . S
C738 C732 1.383 . S
C738 C737 1.379 . S
H739 C733 0.959 1_455 S
H740 C733 0.961 . S
H741 C733 0.960 . S
H742 C734 0.930 . S
H743 C735 0.929 . S
H744 C752 0.929 . S
H745 C754 0.930 1_554 S
H746 C756 0.930 . S
H747 C759 0.929 . S
H748 C762 0.930 . S
H749 C764 0.960 1_565 S
H750 C764 0.960 . S
H751 C764 0.960 . S
C752 H744 0.929 . S
C752 C753 1.377 . S
C752 C754 1.384 . S
C753 C752 1.377 . S
C753 C759 1.390 . S
C754 H745 0.930 1_556 S
C754 C752 1.384 . S
C754 C755 1.372 . S
C755 C754 1.372 . S
C755 C756 1.400 . S
C755 C760 1.490 . S
C756 H746 0.930 . S
C756 C755 1.400 . S
C756 C759 1.386 . S
H757 C773 0.930 . S
H758 C774 0.931 1_556 S
C759 H747 0.929 . S
C759 C753 1.390 . S
C759 C756 1.386 . S
C760 C755 1.490 . S
C760 C762 1.395 1_556 S
C760 C763 1.403 . S
H761 C767 0.930 . S
C762 H748 0.930 . S
C762 C760 1.395 1_554 S
C762 C765 1.403 1_545 S
C763 C760 1.403 . S
C763 C764 1.524 . S
C763 C767 1.400 1_545 S
C764 H749 0.960 1_545 S
C764 H750 0.960 . S
C764 H751 0.960 . S
C764 C763 1.524 . S
C765 C762 1.403 1_565 S
C765 C766 1.392 . S
C765 C769 1.495 . S
C766 C765 1.392 . S
C766 C767 1.385 1_554 S
C766 C768 1.478 . S
C767 H761 0.930 . S
C767 C763 1.400 1_565 S
C767 C766 1.385 1_556 S
C768 C766 1.478 . S
C768 C770 1.381 . S
C768 C774 1.383 . S
C769 C765 1.495 . S
C769 H775 0.959 1_565 S
C769 H776 0.961 . S
C769 H777 0.960 . S
C770 C768 1.381 . S
C770 C771 1.394 . S
C770 H778 0.930 . S
C771 C770 1.394 . S
C771 C772 1.383 . S
C771 H779 0.929 . S
C772 C771 1.383 . S
C772 C773 1.377 . S
C773 H757 0.930 . S
C773 C772 1.377 . S
C773 C774 1.379 . S
C774 H758 0.931 1_554 S
C774 C768 1.383 . S
C774 C773 1.379 . S
H775 C769 0.959 1_545 S
H776 C769 0.961 . S
H777 C769 0.960 . S
H778 C770 0.930 . S
H779 C771 0.929 . S
H780 C788 0.929 . S
H781 C790 0.930 . S
H782 C792 0.930 . S
H783 C795 0.929 . S
H784 C798 0.930 . S
H785 C800 0.960 . S
H786 C800 0.960 . S
H787 C800 0.960 . S
C788 H780 0.929 . S
C788 C789 1.377 . S
C788 C790 1.384 . S
C789 C788 1.377 . S
C789 C795 1.390 . S
C790 H781 0.930 . S
C790 C788 1.384 . S
C790 C791 1.372 . S
C791 C790 1.372 . S
C791 C792 1.400 . S
C791 C796 1.490 . S
C792 H782 0.930 . S
C792 C791 1.400 . S
C792 C795 1.386 . S
H793 C809 0.930 . S
H794 C810 0.931 . S
C795 H783 0.929 . S
C795 C789 1.390 . S
C795 C792 1.386 . S
C796 C791 1.490 . S
C796 C798 1.395 . S
C796 C799 1.403 . S
H797 C803 0.930 . S
C798 H784 0.930 . S
C798 C796 1.395 . S
C798 C801 1.403 . S
C799 C796 1.403 . S
C799 C800 1.524 . S
C799 C803 1.400 . S
C800 H785 0.960 . S
C800 H786 0.960 . S
C800 H787 0.960 . S
C800 C799 1.524 . S
C801 C798 1.403 . S
C801 C802 1.392 . S
C801 C805 1.495 . S
C802 C801 1.392 . S
C802 C803 1.385 . S
C802 C804 1.478 . S
C803 H797 0.930 . S
C803 C799 1.400 . S
C803 C802 1.385 . S
C804 C802 1.478 . S
C804 C806 1.381 . S
C804 C810 1.383 . S
C805 C801 1.495 . S
C805 H811 0.959 . S
C805 H812 0.961 . S
C805 H813 0.960 . S
C806 C804 1.381 . S
C806 C807 1.394 . S
C806 H814 0.930 . S
C807 C806 1.394 . S
C807 C808 1.383 . S
C807 H815 0.929 . S
C808 C807 1.383 . S
C808 C809 1.377 . S
C809 H793 0.930 . S
C809 C808 1.377 . S
C809 C810 1.379 . S
C810 H794 0.931 . S
C810 C804 1.383 . S
C810 C809 1.379 . S
H811 C805 0.959 . S
H812 C805 0.961 . S
H813 C805 0.960 . S
H814 C806 0.930 . S
H815 C807 0.929 . S
H816 C824 0.929 . S
H817 C826 0.930 . S
H818 C828 0.930 . S
H819 C831 0.929 . S
H820 C834 0.930 . S
H821 C836 0.960 . S
H822 C836 0.960 . S
H823 C836 0.960 . S
C824 H816 0.929 . S
C824 C825 1.377 . S
C824 C826 1.384 . S
C825 C824 1.377 . S
C825 C831 1.390 . S
C826 H817 0.930 . S
C826 C824 1.384 . S
C826 C827 1.372 . S
C827 C826 1.372 . S
C827 C828 1.400 . S
C827 C832 1.490 . S
C828 H818 0.930 . S
C828 C827 1.400 . S
C828 C831 1.386 . S
H829 C845 0.930 . S
H830 C846 0.931 . S
C831 H819 0.929 . S
C831 C825 1.390 . S
C831 C828 1.386 . S
C832 C827 1.490 . S
C832 C834 1.395 . S
C832 C835 1.403 . S
H833 C839 0.930 . S
C834 H820 0.930 . S
C834 C832 1.395 . S
C834 C837 1.403 . S
C835 C832 1.403 . S
C835 C836 1.524 . S
C835 C839 1.400 . S
C836 H821 0.960 . S
C836 H822 0.960 . S
C836 H823 0.960 . S
C836 C835 1.524 . S
C837 C834 1.403 . S
C837 C838 1.392 . S
C837 C841 1.495 . S
C838 C837 1.392 . S
C838 C839 1.385 . S
C838 C840 1.478 . S
C839 H833 0.930 . S
C839 C835 1.400 . S
C839 C838 1.385 . S
C840 C838 1.478 . S
C840 C842 1.381 . S
C840 C846 1.383 . S
C841 C837 1.495 . S
C841 H847 0.959 . S
C841 H848 0.961 . S
C841 H849 0.960 . S
C842 C840 1.381 . S
C842 C843 1.394 . S
C842 H850 0.930 . S
C843 C842 1.394 . S
C843 C844 1.383 . S
C843 H851 0.929 . S
C844 C843 1.383 . S
C844 C845 1.377 . S
C845 H829 0.930 . S
C845 C844 1.377 . S
C845 C846 1.379 . S
C846 H830 0.931 . S
C846 C840 1.383 . S
C846 C845 1.379 . S
H847 C841 0.959 . S
H848 C841 0.961 . S
H849 C841 0.960 . S
H850 C842 0.930 . S
H851 C843 0.929 . S
H852 C860 0.929 . S
H853 C862 0.930 . S
H854 C864 0.930 . S
H855 C867 0.929 . S
H856 C870 0.930 . S
H857 C872 0.960 . S
H858 C872 0.960 . S
H859 C872 0.960 . S
C860 H852 0.929 . S
C860 C861 1.377 . S
C860 C862 1.384 . S
C861 C860 1.377 . S
C861 C867 1.390 . S
C862 H853 0.930 . S
C862 C860 1.384 . S
C862 C863 1.372 . S
C863 C862 1.372 . S
C863 C864 1.400 . S
C863 C868 1.490 . S
C864 H854 0.930 . S
C864 C863 1.400 . S
C864 C867 1.386 . S
H865 C881 0.930 . S
H866 C882 0.931 . S
C867 H855 0.929 . S
C867 C861 1.390 . S
C867 C864 1.386 . S
C868 C863 1.490 . S
C868 C870 1.395 . S
C868 C871 1.403 . S
H869 C875 0.930 . S
C870 H856 0.930 . S
C870 C868 1.395 . S
C870 C873 1.403 . S
C871 C868 1.403 . S
C871 C872 1.524 . S
C871 C875 1.400 . S
C872 H857 0.960 . S
C872 H858 0.960 . S
C872 H859 0.960 . S
C872 C871 1.524 . S
C873 C870 1.403 . S
C873 C874 1.392 . S
C873 C877 1.495 . S
C874 C873 1.392 . S
C874 C875 1.385 . S
C874 C876 1.478 . S
C875 H869 0.930 . S
C875 C871 1.400 . S
C875 C874 1.385 . S
C876 C874 1.478 . S
C876 C878 1.381 . S
C876 C882 1.383 . S
C877 C873 1.495 . S
C877 H883 0.959 . S
C877 H884 0.961 . S
C877 H885 0.960 . S
C878 C876 1.381 . S
C878 C879 1.394 . S
C878 H886 0.930 . S
C879 C878 1.394 . S
C879 C880 1.383 . S
C879 H887 0.929 . S
C880 C879 1.383 . S
C880 C881 1.377 . S
C881 H865 0.930 . S
C881 C880 1.377 . S
C881 C882 1.379 . S
C882 H866 0.931 . S
C882 C876 1.383 . S
C882 C881 1.379 . S
H883 C877 0.959 . S
H884 C877 0.961 . S
H885 C877 0.960 . S
H886 C878 0.930 . S
H887 C879 0.929 . S
H888 C896 0.929 . S
H889 C898 0.930 . S
H890 C900 0.930 . S
H891 C903 0.929 . S
H892 C906 0.930 . S
H893 C908 0.960 . S
H894 C908 0.960 . S
H895 C908 0.960 . S
C896 H888 0.929 . S
C896 C897 1.377 . S
C896 C898 1.384 . S
C897 C896 1.377 . S
C897 C903 1.390 . S
C898 H889 0.930 . S
C898 C896 1.384 . S
C898 C899 1.372 . S
C899 C898 1.372 . S
C899 C900 1.400 . S
C899 C904 1.490 . S
C900 H890 0.930 . S
C900 C899 1.400 . S
C900 C903 1.386 . S
H901 C917 0.930 . S
H902 C918 0.931 . S
C903 H891 0.929 . S
C903 C897 1.390 . S
C903 C900 1.386 . S
C904 C899 1.490 . S
C904 C906 1.395 . S
C904 C907 1.403 . S
H905 C911 0.930 . S
C906 H892 0.930 . S
C906 C904 1.395 . S
C906 C909 1.403 . S
C907 C904 1.403 . S
C907 C908 1.524 . S
C907 C911 1.400 . S
C908 H893 0.960 . S
C908 H894 0.960 . S
C908 H895 0.960 . S
C908 C907 1.524 . S
C909 C906 1.403 . S
C909 C910 1.392 . S
C909 C913 1.495 . S
C910 C909 1.392 . S
C910 C911 1.385 . S
C910 C912 1.478 . S
C911 H905 0.930 . S
C911 C907 1.400 . S
C911 C910 1.385 . S
C912 C910 1.478 . S
C912 C914 1.381 . S
C912 C918 1.383 . S
C913 C909 1.495 . S
C913 H919 0.959 . S
C913 H920 0.961 . S
C913 H921 0.960 . S
C914 C912 1.381 . S
C914 C915 1.394 . S
C914 H922 0.930 . S
C915 C914 1.394 . S
C915 C916 1.383 . S
C915 H923 0.929 . S
C916 C915 1.383 . S
C916 C917 1.377 . S
C917 H901 0.930 . S
C917 C916 1.377 . S
C917 C918 1.379 . S
C918 H902 0.931 . S
C918 C912 1.383 . S
C918 C917 1.379 . S
H919 C913 0.959 . S
H920 C913 0.961 . S
H921 C913 0.960 . S
H922 C914 0.930 . S
H923 C915 0.929 . S
H924 C932 0.929 . S
H925 C934 0.930 . S
H926 C936 0.930 . S
H927 C939 0.929 . S
H928 C942 0.930 . S
H929 C944 0.960 . S
H930 C944 0.960 . S
H931 C944 0.960 . S
C932 H924 0.929 . S
C932 C933 1.377 . S
C932 C934 1.384 . S
C933 C932 1.377 . S
C933 C939 1.390 . S
C934 H925 0.930 . S
C934 C932 1.384 . S
C934 C935 1.372 . S
C935 C934 1.372 . S
C935 C936 1.400 . S
C935 C940 1.490 . S
C936 H926 0.930 . S
C936 C935 1.400 . S
C936 C939 1.386 . S
H937 C953 0.930 . S
H938 C954 0.931 . S
C939 H927 0.929 . S
C939 C933 1.390 . S
C939 C936 1.386 . S
C940 C935 1.490 . S
C940 C942 1.395 . S
C940 C943 1.403 . S
H941 C947 0.930 . S
C942 H928 0.930 . S
C942 C940 1.395 . S
C942 C945 1.403 . S
C943 C940 1.403 . S
C943 C944 1.524 . S
C943 C947 1.400 . S
C944 H929 0.960 . S
C944 H930 0.960 . S
C944 H931 0.960 . S
C944 C943 1.524 . S
C945 C942 1.403 . S
C945 C946 1.392 . S
C945 C949 1.495 . S
C946 C945 1.392 . S
C946 C947 1.385 . S
C946 C948 1.478 . S
C947 H941 0.930 . S
C947 C943 1.400 . S
C947 C946 1.385 . S
C948 C946 1.478 . S
C948 C950 1.381 . S
C948 C954 1.383 . S
C949 C945 1.495 . S
C949 H955 0.959 . S
C949 H956 0.961 . S
C949 H957 0.960 . S
C950 C948 1.381 . S
C950 C951 1.394 . S
C950 H958 0.930 . S
C951 C950 1.394 . S
C951 C952 1.383 . S
C951 H959 0.929 . S
C952 C951 1.383 . S
C952 C953 1.377 . S
C953 H937 0.930 . S
C953 C952 1.377 . S
C953 C954 1.379 . S
C954 H938 0.931 . S
C954 C948 1.383 . S
C954 C953 1.379 . S
H955 C949 0.959 . S
H956 C949 0.961 . S
H957 C949 0.960 . S
H958 C950 0.930 . S
H959 C951 0.929 . S
H960 C968 0.929 . S
H961 C970 0.930 . S
H962 C972 0.930 . S
H963 C975 0.936 . S
H964 C978 0.930 . S
H965 C980 0.960 . S
H966 C980 0.960 . S
H967 C980 0.960 . S
C968 H960 0.929 . S
C968 C969 1.377 . S
C968 C970 1.384 . S
C969 C968 1.377 . S
C969 C975 1.390 . S
C970 H961 0.930 . S
C970 C968 1.384 . S
C970 C971 1.372 . S
C971 C970 1.372 . S
C971 C972 1.400 . S
C971 C976 1.490 . S
C972 H962 0.930 . S
C972 C971 1.400 . S
C972 C975 1.386 . S
H973 C989 0.930 . S
H974 C990 0.931 . S
C975 H963 0.936 . S
C975 C969 1.390 . S
C975 C972 1.386 . S
C976 C971 1.490 . S
C976 C978 1.395 . S
C976 C979 1.403 . S
H977 C983 0.930 . S
C978 H964 0.930 . S
C978 C976 1.395 . S
C978 C981 1.403 . S
C979 C976 1.403 . S
C979 C980 1.524 . S
C979 C983 1.400 . S
C980 H965 0.960 . S
C980 H966 0.960 . S
C980 H967 0.960 . S
C980 C979 1.524 . S
C981 C978 1.403 . S
C981 C982 1.392 . S
C981 C985 1.495 . S
C982 C981 1.392 . S
C982 C983 1.385 . S
C982 C984 1.478 . S
C983 H977 0.930 . S
C983 C979 1.400 . S
C983 C982 1.385 . S
C984 C982 1.478 . S
C984 C986 1.381 . S
C984 C990 1.383 . S
C985 C981 1.495 . S
C985 H991 0.959 . S
C985 H992 0.961 . S
C985 H993 0.960 . S
C986 C984 1.381 . S
C986 C987 1.394 . S
C986 H994 0.930 . S
C987 C986 1.394 . S
C987 C988 1.383 . S
C987 H995 0.929 . S
C988 C987 1.383 . S
C988 C989 1.377 . S
C989 H973 0.930 . S
C989 C988 1.377 . S
C989 C990 1.379 . S
C990 H974 0.931 . S
C990 C984 1.383 . S
C990 C989 1.379 . S
H991 C985 0.959 . S
H992 C985 0.961 . S
H993 C985 0.960 . S
H994 C986 0.930 . S
H995 C987 0.929 . S
H996 C1004 0.929 . S
H997 C1006 0.930 . S
H998 C1008 0.930 . S
H999 C1011 0.929 . S
H1000 C1014 0.930 . S
H1001 C1016 0.960 . S
H1002 C1016 0.960 . S
H1003 C1016 0.960 . S
C1004 H996 0.929 . S
C1004 C1005 1.377 . S
C1004 C1006 1.384 . S
C1005 C1004 1.377 . S
C1005 C1011 1.390 . S
C1006 H997 0.930 . S
C1006 C1004 1.384 . S
C1006 C1007 1.372 . S
C1007 C1006 1.372 . S
C1007 C1008 1.400 . S
C1007 C1012 1.490 . S
C1008 H998 0.930 . S
C1008 C1007 1.400 . S
C1008 C1011 1.386 . S
H1009 C1025 0.930 . S
H1010 C1026 0.931 . S
C1011 H999 0.929 . S
C1011 C1005 1.390 . S
C1011 C1008 1.386 . S
C1012 C1007 1.490 . S
C1012 C1014 1.395 . S
C1012 C1015 1.403 . S
H1013 C1019 0.930 . S
C1014 H1000 0.930 . S
C1014 C1012 1.395 . S
C1014 C1017 1.403 . S
C1015 C1012 1.403 . S
C1015 C1016 1.524 . S
C1015 C1019 1.400 . S
C1016 H1001 0.960 . S
C1016 H1002 0.960 . S
C1016 H1003 0.960 . S
C1016 C1015 1.524 . S
C1017 C1014 1.403 . S
C1017 C1018 1.392 . S
C1017 C1021 1.495 . S
C1018 C1017 1.392 . S
C1018 C1019 1.385 . S
C1018 C1020 1.478 . S
C1019 H1013 0.930 . S
C1019 C1015 1.400 . S
C1019 C1018 1.385 . S
C1020 C1018 1.478 . S
C1020 C1022 1.381 . S
C1020 C1026 1.383 . S
C1021 C1017 1.495 . S
C1021 H1027 0.959 . S
C1021 H1028 0.961 . S
C1021 H1029 0.960 . S
C1022 C1020 1.381 . S
C1022 C1023 1.394 1_554 S
C1022 H1030 0.930 . S
C1023 C1022 1.394 1_556 S
C1023 C1024 1.392 . S
C1023 H1031 0.929 . S
C1024 C1023 1.392 . S
C1024 C1025 1.344 1_556 S
C1025 H1009 0.930 . S
C1025 C1024 1.344 1_554 S
C1025 C1026 1.379 . S
C1026 H1010 0.931 . S
C1026 C1020 1.383 . S
C1026 C1025 1.379 . S
H1027 C1021 0.959 . S
H1028 C1021 0.961 . S
H1029 C1021 0.960 . S
H1030 C1022 0.930 . S
H1031 C1023 0.929 . S
C177 C0 1.429 . S
C196 C97 1.442 . S
C213 C15 1.430 . S
C232 C110 1.443 . S
C249 C125 1.428 . S
C268 C41 1.441 . S
C285 C42 1.434 . S
C304 C127 1.419 . S
C321 C57 1.429 . S
C340 C141 1.443 . S
C357 C167 1.428 . S
C376 C83 1.441 . S
C393 C113 1.524 . S
C412 C12 1.510 . S
C429 C27 1.520 . S
C448 C139 1.532 . S
C465 C153 1.526 . S
C484 C29 1.503 . S
C501 C155 1.524 . S
C520 C54 1.508 . S
C537 C69 1.529 . S
C556 C85 1.518 . S
C573 C71 1.523 . S
C592 C98 1.511 . S
C609 C166 1.895 . S
C628 C1 1.902 . S
C645 C96 1.893 . S
C664 C14 1.908 . S
C681 C40 1.897 . S
C700 C111 1.891 . S
C717 C124 1.891 . S
C736 C43 1.904 . S
C753 C126 1.892 . S
C772 C56 1.907 . S
C789 C140 1.892 . S
C808 C82 1.884 . S
C825 C13 1.591 . S
C844 C152 1.592 . S
C861 C154 1.591 . S
C880 C26 1.583 . S
C897 C28 1.589 . S
C916 C84 1.595 . S
C933 C55 1.587 . S
C952 C99 1.588 . S
C969 C68 1.591 1_556 S
C988 C112 1.592 . S
C1005 C70 1.591 . S
C1024 C138 1.607 . S
