# Generated by pormake.
# Topology uox, (4)-cn, num edge types: 1
# Building blocks:
#     Node 0, Type 0, BuildingBlock: ICAMEG_clean_sbu_1, # of connection points: 4
#     Node 1, Type 0, BuildingBlock: ICAMEG_clean_sbu_1, # of connection points: 4
#     Node 2, Type 0, BuildingBlock: ICAMEG_clean_sbu_1, # of connection points: 4
#     Node 3, Type 0, BuildingBlock: ICAMEG_clean_sbu_1, # of connection points: 4
#     Node 4, Type 0, BuildingBlock: ICAMEG_clean_sbu_1, # of connection points: 4
#     Node 5, Type 0, BuildingBlock: ICAMEG_clean_sbu_1, # of connection points: 4
#     Node 6, Type 0, BuildingBlock: ICAMEG_clean_sbu_1, # of connection points: 4
#     Node 7, Type 0, BuildingBlock: ICAMEG_clean_sbu_1, # of connection points: 4
#     Node 8, Type 0, BuildingBlock: ICAMEG_clean_sbu_1, # of connection points: 4
#     Node 9, Type 0, BuildingBlock: ICAMEG_clean_sbu_1, # of connection points: 4
#     Node 10, Type 0, BuildingBlock: ICAMEG_clean_sbu_1, # of connection points: 4
#     Node 11, Type 0, BuildingBlock: ICAMEG_clean_sbu_1, # of connection points: 4
#     Node 12, Type 0, BuildingBlock: ICAMEG_clean_sbu_1, # of connection points: 4
#     Node 13, Type 0, BuildingBlock: ICAMEG_clean_sbu_1, # of connection points: 4
#     Node 14, Type 0, BuildingBlock: ICAMEG_clean_sbu_1, # of connection points: 4
#     Node 15, Type 0, BuildingBlock: ICAMEG_clean_sbu_1, # of connection points: 4
#     Node 16, Type 0, BuildingBlock: ICAMEG_clean_sbu_1, # of connection points: 4
#     Node 17, Type 0, BuildingBlock: ICAMEG_clean_sbu_1, # of connection points: 4
#     Node 18, Type 0, BuildingBlock: ICAMEG_clean_sbu_1, # of connection points: 4
#     Node 19, Type 0, BuildingBlock: ICAMEG_clean_sbu_1, # of connection points: 4
#     Node 20, Type 0, BuildingBlock: ICAMEG_clean_sbu_1, # of connection points: 4
#     Node 21, Type 0, BuildingBlock: ICAMEG_clean_sbu_1, # of connection points: 4
#     Node 22, Type 0, BuildingBlock: ICAMEG_clean_sbu_1, # of connection points: 4
#     Node 23, Type 0, BuildingBlock: ICAMEG_clean_sbu_1, # of connection points: 4
#     Node 24, Type 0, BuildingBlock: ICAMEG_clean_sbu_1, # of connection points: 4
#     Node 25, Type 0, BuildingBlock: ICAMEG_clean_sbu_1, # of connection points: 4
#     Node 26, Type 0, BuildingBlock: ICAMEG_clean_sbu_1, # of connection points: 4
#     Node 27, Type 0, BuildingBlock: ICAMEG_clean_sbu_1, # of connection points: 4
#     Node 28, Type 0, BuildingBlock: ICAMEG_clean_sbu_1, # of connection points: 4
#     Node 29, Type 0, BuildingBlock: ICAMEG_clean_sbu_1, # of connection points: 4
#     Node 30, Type 0, BuildingBlock: ICAMEG_clean_sbu_1, # of connection points: 4
#     Node 31, Type 0, BuildingBlock: ICAMEG_clean_sbu_1, # of connection points: 4
#     Edge 32, Type (0, 0), BuildingBlock: CIFDUS_clean_linker_0, # of connection points: 2
#     Edge 33, Type (0, 0), BuildingBlock: CIFDUS_clean_linker_0, # of connection points: 2
#     Edge 34, Type (0, 0), BuildingBlock: CIFDUS_clean_linker_0, # of connection points: 2
#     Edge 35, Type (0, 0), BuildingBlock: CIFDUS_clean_linker_0, # of connection points: 2
#     Edge 36, Type (0, 0), BuildingBlock: CIFDUS_clean_linker_0, # of connection points: 2
#     Edge 37, Type (0, 0), BuildingBlock: CIFDUS_clean_linker_0, # of connection points: 2
#     Edge 38, Type (0, 0), BuildingBlock: CIFDUS_clean_linker_0, # of connection points: 2
#     Edge 39, Type (0, 0), BuildingBlock: CIFDUS_clean_linker_0, # of connection points: 2
#     Edge 40, Type (0, 0), BuildingBlock: CIFDUS_clean_linker_0, # of connection points: 2
#     Edge 41, Type (0, 0), BuildingBlock: CIFDUS_clean_linker_0, # of connection points: 2
#     Edge 42, Type (0, 0), BuildingBlock: CIFDUS_clean_linker_0, # of connection points: 2
#     Edge 43, Type (0, 0), BuildingBlock: CIFDUS_clean_linker_0, # of connection points: 2
#     Edge 44, Type (0, 0), BuildingBlock: CIFDUS_clean_linker_0, # of connection points: 2
#     Edge 45, Type (0, 0), BuildingBlock: CIFDUS_clean_linker_0, # of connection points: 2
#     Edge 46, Type (0, 0), BuildingBlock: CIFDUS_clean_linker_0, # of connection points: 2
#     Edge 47, Type (0, 0), BuildingBlock: CIFDUS_clean_linker_0, # of connection points: 2
#     Edge 48, Type (0, 0), BuildingBlock: CIFDUS_clean_linker_0, # of connection points: 2
#     Edge 49, Type (0, 0), BuildingBlock: CIFDUS_clean_linker_0, # of connection points: 2
#     Edge 50, Type (0, 0), BuildingBlock: CIFDUS_clean_linker_0, # of connection points: 2
#     Edge 51, Type (0, 0), BuildingBlock: CIFDUS_clean_linker_0, # of connection points: 2
#     Edge 52, Type (0, 0), BuildingBlock: CIFDUS_clean_linker_0, # of connection points: 2
#     Edge 53, Type (0, 0), BuildingBlock: CIFDUS_clean_linker_0, # of connection points: 2
#     Edge 54, Type (0, 0), BuildingBlock: CIFDUS_clean_linker_0, # of connection points: 2
#     Edge 55, Type (0, 0), BuildingBlock: CIFDUS_clean_linker_0, # of connection points: 2
#     Edge 56, Type (0, 0), BuildingBlock: CIFDUS_clean_linker_0, # of connection points: 2
#     Edge 57, Type (0, 0), BuildingBlock: CIFDUS_clean_linker_0, # of connection points: 2
#     Edge 58, Type (0, 0), BuildingBlock: CIFDUS_clean_linker_0, # of connection points: 2
#     Edge 59, Type (0, 0), BuildingBlock: CIFDUS_clean_linker_0, # of connection points: 2
#     Edge 60, Type (0, 0), BuildingBlock: CIFDUS_clean_linker_0, # of connection points: 2
#     Edge 61, Type (0, 0), BuildingBlock: CIFDUS_clean_linker_0, # of connection points: 2
#     Edge 62, Type (0, 0), BuildingBlock: CIFDUS_clean_linker_0, # of connection points: 2
#     Edge 63, Type (0, 0), BuildingBlock: CIFDUS_clean_linker_0, # of connection points: 2
#     Edge 64, Type (0, 0), BuildingBlock: CIFDUS_clean_linker_0, # of connection points: 2
#     Edge 65, Type (0, 0), BuildingBlock: CIFDUS_clean_linker_0, # of connection points: 2
#     Edge 66, Type (0, 0), BuildingBlock: CIFDUS_clean_linker_0, # of connection points: 2
#     Edge 67, Type (0, 0), BuildingBlock: CIFDUS_clean_linker_0, # of connection points: 2
#     Edge 68, Type (0, 0), BuildingBlock: CIFDUS_clean_linker_0, # of connection points: 2
#     Edge 69, Type (0, 0), BuildingBlock: CIFDUS_clean_linker_0, # of connection points: 2
#     Edge 70, Type (0, 0), BuildingBlock: CIFDUS_clean_linker_0, # of connection points: 2
#     Edge 71, Type (0, 0), BuildingBlock: CIFDUS_clean_linker_0, # of connection points: 2
#     Edge 72, Type (0, 0), BuildingBlock: CIFDUS_clean_linker_0, # of connection points: 2
#     Edge 73, Type (0, 0), BuildingBlock: CIFDUS_clean_linker_0, # of connection points: 2
#     Edge 74, Type (0, 0), BuildingBlock: CIFDUS_clean_linker_0, # of connection points: 2
#     Edge 75, Type (0, 0), BuildingBlock: CIFDUS_clean_linker_0, # of connection points: 2
#     Edge 76, Type (0, 0), BuildingBlock: CIFDUS_clean_linker_0, # of connection points: 2
#     Edge 77, Type (0, 0), BuildingBlock: CIFDUS_clean_linker_0, # of connection points: 2
#     Edge 78, Type (0, 0), BuildingBlock: CIFDUS_clean_linker_0, # of connection points: 2
#     Edge 79, Type (0, 0), BuildingBlock: CIFDUS_clean_linker_0, # of connection points: 2
#     Edge 80, Type (0, 0), BuildingBlock: CIFDUS_clean_linker_0, # of connection points: 2
#     Edge 81, Type (0, 0), BuildingBlock: CIFDUS_clean_linker_0, # of connection points: 2
#     Edge 82, Type (0, 0), BuildingBlock: CIFDUS_clean_linker_0, # of connection points: 2
#     Edge 83, Type (0, 0), BuildingBlock: CIFDUS_clean_linker_0, # of connection points: 2
#     Edge 84, Type (0, 0), BuildingBlock: CIFDUS_clean_linker_0, # of connection points: 2
#     Edge 85, Type (0, 0), BuildingBlock: CIFDUS_clean_linker_0, # of connection points: 2
#     Edge 86, Type (0, 0), BuildingBlock: CIFDUS_clean_linker_0, # of connection points: 2
#     Edge 87, Type (0, 0), BuildingBlock: CIFDUS_clean_linker_0, # of connection points: 2
#     Edge 88, Type (0, 0), BuildingBlock: CIFDUS_clean_linker_0, # of connection points: 2
#     Edge 89, Type (0, 0), BuildingBlock: CIFDUS_clean_linker_0, # of connection points: 2
#     Edge 90, Type (0, 0), BuildingBlock: CIFDUS_clean_linker_0, # of connection points: 2
#     Edge 91, Type (0, 0), BuildingBlock: CIFDUS_clean_linker_0, # of connection points: 2
#     Edge 92, Type (0, 0), BuildingBlock: CIFDUS_clean_linker_0, # of connection points: 2
#     Edge 93, Type (0, 0), BuildingBlock: CIFDUS_clean_linker_0, # of connection points: 2
#     Edge 94, Type (0, 0), BuildingBlock: CIFDUS_clean_linker_0, # of connection points: 2
#     Edge 95, Type (0, 0), BuildingBlock: CIFDUS_clean_linker_0, # of connection points: 2
# Relax obj value: 0.071
# Max RMSD: 0.114
# Mean RMSD: 0.114
data_MOF--net-uox--node1-ICAMEG_clean_sbu_1--edge1-CIFDUS_clean_linker_0
_symmetry_space_group_name_H-M    P1
_symmetry_Int_Tables_number       1
_symmetry_cell_setting            triclinic
loop_
_symmetry_equiv_pos_as_xyz
'x, y, z'
_cell_length_a     42.374803
_cell_length_b     42.31805
_cell_length_c     74.356769
_cell_angle_alpha  90.091325
_cell_angle_beta   89.919057
_cell_angle_gamma 89.938417
loop_
_atom_site_label
_atom_site_type_symbol
_atom_site_fract_x
_atom_site_fract_y
_atom_site_fract_z
_atom_type_partial_charge
Co0 Co 0.42184 0.06418 0.15298 0.0
Co1 Co 0.43075 0.10315 0.19335 0.0
O2 O 0.41764 0.06595 0.17935 0.0
C3 C 0.35499 0.04484 0.1584 0.0
O4 O 0.35147 0.06928 0.16913 0.0
C5 C 0.44873 0.04676 0.21677 0.0
O6 O 0.44426 0.02685 0.20348 0.0
O7 O 0.47396 0.10092 0.18249 0.0
O8 O 0.46221 0.08863 0.15389 0.0
H9 H 0.4823 0.20916 0.20108 0.0
H10 H 0.41119 1.00409 0.17251 0.0
O11 O 0.38164 0.03938 0.15111 0.0
H12 H 0.51373 0.99104 0.14194 0.0
H13 H 0.41624 0.01135 0.09232 0.0
H14 H 0.4394 0.11037 0.12473 0.0
H15 H 0.48333 0.04038 0.13865 0.0
H16 H 0.41192 0.01388 0.12537 0.0
O17 O 0.44526 0.07637 0.21428 0.0
H18 H 0.46477 0.16213 0.18423 0.0
H19 H 0.42549 0.12314 0.23187 0.0
H20 H 0.4443 0.1088 0.09169 0.0
H21 H 0.44063 0.95415 0.17596 0.0
H22 H 0.43267 0.05901 0.07526 0.0
H23 H 0.49235 0.94744 0.16065 0.0
O24 O 0.39779 0.1044 0.15028 0.0
H25 H 0.33263 0.0573 0.22112 0.0
H26 H 0.38421 0.15489 0.20023 0.0
H27 H 0.33027 0.15755 0.21251 0.0
H28 H 0.30412 0.10849 0.22314 0.0
H29 H 0.38632 0.0557 0.20849 0.0
H30 H 0.44289 0.1696 0.24925 0.0
H31 H 0.47138 0.21311 0.23383 0.0
O32 O 0.41638 0.13217 0.17364 0.0
C33 C 0.48136 0.09856 0.16587 0.0
C34 C 0.46984 0.19039 0.20794 0.0
C35 C 0.44776 0.16817 0.23498 0.0
N36 N 0.44399 0.13996 0.20702 0.0
C37 C 0.45979 0.16373 0.19846 0.0
C38 C 0.43807 0.14185 0.22507 0.0
C39 C 0.46373 0.19258 0.22632 0.0
C40 C 0.43357 1.00125 0.1657 0.0
N41 N 0.44554 0.02516 0.15544 0.0
C42 C 0.45019 0.97297 0.16775 0.0
C43 C 0.47922 0.96923 0.15918 0.0
C44 C 0.49125 0.9937 0.1487 0.0
C45 C 0.47399 0.02167 0.14697 0.0
C46 C 0.42144 0.03316 0.09933 0.0
C47 C 0.4345 0.08856 0.11769 0.0
C48 C 0.41897 0.03476 0.11804 0.0
N49 N 0.42566 0.06219 0.12699 0.0
C50 C 0.43723 0.08784 0.09898 0.0
C51 C 0.43067 0.05991 0.08976 0.0
C52 C 0.40154 0.13035 0.15874 0.0
C53 C 0.34382 0.07887 0.21661 0.0
C54 C 0.373 0.13344 0.20471 0.0
C55 C 0.34245 0.13509 0.21173 0.0
C56 C 0.32781 0.10758 0.21771 0.0
N57 N 0.38865 0.10522 0.20373 0.0
C58 C 0.37437 0.07814 0.20954 0.0
Co59 Co 0.19275 0.17321 0.4002 0.0
Co60 Co 0.15182 0.1791 0.4401 0.0
O61 O 0.18976 0.16643 0.42643 0.0
C62 C 0.22434 0.10963 0.40643 0.0
O63 O 0.2175 0.11006 0.42363 0.0
C64 C 0.20442 0.20164 0.46464 0.0
O65 O 0.22217 0.20993 0.45096 0.0
O66 O 0.15604 0.22349 0.43123 0.0
O67 O 0.16913 0.21394 0.4025 0.0
H68 H 0.04725 0.23361 0.4479 0.0
H69 H 0.25116 0.16166 0.42163 0.0
O70 O 0.21639 0.13244 0.39624 0.0
H71 H 0.2674 0.2646 0.39221 0.0
H72 H 0.24677 0.17391 0.33977 0.0
H73 H 0.14742 0.19446 0.37236 0.0
H74 H 0.21828 0.23471 0.38732 0.0
H75 H 0.24352 0.16582 0.37256 0.0
O76 O 0.17734 0.18953 0.46204 0.0
H77 H 0.09497 0.21699 0.43139 0.0
H78 H 0.12835 0.16837 0.47755 0.0
H79 H 0.14972 0.20316 0.33961 0.0
H80 H 0.30074 0.1905 0.42667 0.0
H81 H 0.19969 0.19287 0.32309 0.0
H82 H 0.30915 0.24244 0.41193 0.0
O83 O 0.15243 0.15007 0.39624 0.0
H84 H 0.19235 0.07829 0.4672 0.0
H85 H 0.09904 0.13222 0.44233 0.0
H86 H 0.09437 0.07711 0.45262 0.0
H87 H 0.14126 0.04977 0.46523 0.0
H88 H 0.19602 0.13326 0.45646 0.0
H89 H 0.08115 0.18473 0.49461 0.0
H90 H 0.04011 0.21749 0.47975 0.0
O91 O 0.1239 0.16868 0.41926 0.0
C92 C 0.1591 0.23227 0.4149 0.0
C93 C 0.06496 0.21932 0.45452 0.0
C94 C 0.084 0.19193 0.48074 0.0
N95 N 0.11446 0.1917 0.45347 0.0
C96 C 0.09202 0.20981 0.44523 0.0
C97 C 0.11075 0.18284 0.47103 0.0
C98 C 0.06097 0.21029 0.47239 0.0
C99 C 0.25473 0.1839 0.41491 0.0
N100 N 0.23197 0.19609 0.40393 0.0
C101 C 0.28283 0.2003 0.41793 0.0
C102 C 0.28751 0.22947 0.4097 0.0
C103 C 0.26409 0.24192 0.39864 0.0
C104 C 0.23629 0.22487 0.39594 0.0
C105 C 0.2249 0.17858 0.34683 0.0
C106 C 0.16932 0.19018 0.3653 0.0
C107 C 0.22289 0.17399 0.36539 0.0
N108 N 0.19539 0.18002 0.37442 0.0
C109 C 0.17045 0.19503 0.34674 0.0
C110 C 0.19847 0.18922 0.33747 0.0
C111 C 0.12611 0.15466 0.40412 0.0
C112 C 0.17175 0.08992 0.46171 0.0
C113 C 0.11963 0.12039 0.44752 0.0
C114 C 0.1168 0.08923 0.45347 0.0
C115 C 0.1431 0.07392 0.46058 0.0
N116 N 0.14784 0.13589 0.44859 0.0
C117 C 0.17367 0.12107 0.45564 0.0
Co118 Co 0.0992 0.95254 0.64612 0.0
Co119 Co 0.08449 0.91699 0.68704 0.0
O120 O 0.09916 0.9533 0.67268 0.0
C121 C 0.16295 0.97913 0.6553 0.0
O122 O 0.16398 0.96134 0.66971 0.0
C123 C 0.05608 0.97358 0.70624 0.0
O124 O 0.0539 0.98911 0.69103 0.0
O125 O 0.04305 0.91682 0.67398 0.0
O126 O 0.05959 0.92689 0.64589 0.0
H127 H 0.03446 0.81039 0.69529 0.0
H128 H 0.105 0.01434 0.66462 0.0
O129 O 0.13905 0.97836 0.64496 0.0
H130 H 0.0075 0.02184 0.62875 0.0
H131 H 0.11244 0.99974 0.5844 0.0
H132 H 0.08734 0.90322 0.61855 0.0
H133 H 0.03966 0.97325 0.6282 0.0
H134 H 0.11172 1.00051 0.61755 0.0
O135 O 0.0666 0.94539 0.70635 0.0
H136 H 0.05354 0.85625 0.67801 0.0
H137 H 0.08404 0.90072 0.72621 0.0
H138 H 0.08754 0.90144 0.58542 0.0
H139 H 0.07378 0.06356 0.66536 0.0
H140 H 0.10017 0.94998 0.5681 0.0
H141 H 0.02458 0.06748 0.64737 0.0
O142 O 0.12449 0.91276 0.64582 0.0
H143 H 0.17435 0.96833 0.72001 0.0
H144 H 0.13157 0.86761 0.69746 0.0
H145 H 0.18287 0.86796 0.71302 0.0
H146 H 0.20454 0.91863 0.72451 0.0
H147 H 0.12347 0.96688 0.70401 0.0
H148 H 0.06498 0.85548 0.744 0.0
H149 H 0.04011 0.80982 0.72853 0.0
O150 O 0.10259 0.88663 0.66892 0.0
C151 C 0.03881 0.91703 0.65697 0.0
C152 C 0.04531 0.83012 0.70218 0.0
C153 C 0.06239 0.85545 0.72952 0.0
N154 N 0.06998 0.88113 0.70106 0.0
C155 C 0.05622 0.85614 0.69247 0.0
C156 C 0.07303 0.88107 0.71937 0.0
C157 C 0.04846 0.82983 0.72083 0.0
C158 C 0.08381 0.016 0.65661 0.0
N159 N 0.07424 0.991 0.64634 0.0
C160 C 0.06614 0.04387 0.65715 0.0
C161 C 0.03851 0.04603 0.64708 0.0
C162 C 0.02889 0.02042 0.63664 0.0
C163 C 0.04714 0.99292 0.63644 0.0
C164 C 0.10682 0.97846 0.59179 0.0
C165 C 0.0926 0.92448 0.61113 0.0
C166 C 0.10642 0.97873 0.61058 0.0
N167 N 0.09921 0.95197 0.62001 0.0
C168 C 0.09279 0.92331 0.59236 0.0
C169 C 0.09992 0.95054 0.58266 0.0
C170 C 0.11952 0.88744 0.65468 0.0
C171 C 0.16518 0.9461 0.71505 0.0
C172 C 0.14108 0.88975 0.70211 0.0
C173 C 0.17003 0.88981 0.71107 0.0
C174 C 0.18214 0.91822 0.71755 0.0
N175 N 0.12464 0.91719 0.69964 0.0
C176 C 0.1363 0.94511 0.70604 0.0
Co177 Co 0.30368 0.84605 0.89425 0.0
Co178 Co 0.33577 0.83223 0.93608 0.0
O179 O 0.30083 0.84692 0.92073 0.0
C180 C 0.27844 0.91061 0.90199 0.0
O181 O 0.29661 0.91239 0.91623 0.0
C182 C 0.27657 0.8089 0.95481 0.0
O183 O 0.26052 0.81012 0.93975 0.0
O184 O 0.33623 0.79032 0.92344 0.0
O185 O 0.32906 0.80635 0.89498 0.0
H186 H 0.44076 0.78065 0.94735 0.0
H187 H 0.2403 0.85317 0.9107 0.0
O188 O 0.27839 0.88593 0.89223 0.0
H189 H 0.23555 0.75411 0.8758 0.0
H190 H 0.26147 0.85797 0.83131 0.0
H191 H 0.35498 0.83313 0.86803 0.0
H192 H 0.2843 0.78583 0.87644 0.0
H193 H 0.25813 0.85813 0.86441 0.0
O194 O 0.30588 0.81546 0.9549 0.0
H195 H 0.39656 0.79988 0.92881 0.0
H196 H 0.34919 0.83296 0.97561 0.0
H197 H 0.35933 0.83244 0.83498 0.0
H198 H 0.19089 0.82242 0.91021 0.0
H199 H 0.31232 0.84494 0.81636 0.0
H200 H 0.18835 0.77243 0.89272 0.0
O201 O 0.34347 0.87105 0.89481 0.0
H202 H 0.28398 0.92506 0.96647 0.0
H203 H 0.3852 0.87866 0.94717 0.0
H204 H 0.38484 0.93065 0.96211 0.0
H205 H 0.33392 0.95415 0.97198 0.0
H206 H 0.28545 0.87345 0.95114 0.0
H207 H 0.39273 0.81377 0.99464 0.0
H208 H 0.43901 0.78752 0.98051 0.0
O209 O 0.36756 0.84904 0.91854 0.0
C210 C 0.33768 0.78575 0.90647 0.0
C211 C 0.42075 0.79209 0.95366 0.0
C212 C 0.39377 0.81064 0.9802 0.0
N213 N 0.37032 0.81762 0.95108 0.0
C214 C 0.39566 0.80309 0.94323 0.0
C215 C 0.36911 0.82135 0.96935 0.0
C216 C 0.41974 0.79593 0.97227 0.0
C217 C 0.23928 0.83161 0.90292 0.0
N218 N 0.26516 0.82133 0.89362 0.0
C219 C 0.21128 0.81422 0.90275 0.0
C220 C 0.20989 0.78615 0.89297 0.0
C221 C 0.23638 0.77583 0.88349 0.0
C222 C 0.26397 0.79383 0.88398 0.0
C223 C 0.28209 0.85239 0.83926 0.0
C224 C 0.33437 0.83831 0.86004 0.0
C225 C 0.28037 0.85248 0.85802 0.0
N226 N 0.3063 0.84533 0.86817 0.0
C227 C 0.337 0.83801 0.84132 0.0
C228 C 0.31063 0.84507 0.83089 0.0
C229 C 0.36801 0.86577 0.90426 0.0
C230 C 0.30633 0.91505 0.96227 0.0
C231 C 0.36297 0.88887 0.95118 0.0
C232 C 0.3629 0.91825 0.95976 0.0
C233 C 0.33434 0.93139 0.96532 0.0
N234 N 0.33541 0.87296 0.94822 0.0
C235 C 0.30733 0.88571 0.95366 0.0
Co236 Co 0.42326 0.9603 0.37845 0.0
Co237 Co 0.42178 0.9151 0.34027 0.0
O238 O 0.41345 0.95537 0.35274 0.0
C239 C 0.35782 0.98662 0.37694 0.0
O240 O 0.34949 0.96398 0.36584 0.0
C241 C 0.44601 0.96338 0.31363 0.0
O242 O 0.45785 0.98048 0.32673 0.0
O243 O 0.4672 0.91675 0.3475 0.0
O244 O 0.46054 0.93159 0.37619 0.0
H245 H 0.46692 0.80563 0.33466 0.0
H246 H 0.41439 0.01763 0.35634 0.0
O247 O 0.38629 0.98911 0.38217 0.0
H248 H 0.52312 0.02476 0.37955 0.0
H249 H 0.43564 0.02092 0.43638 0.0
H250 H 0.44239 0.91618 0.40746 0.0
H251 H 0.48909 0.97973 0.38766 0.0
H252 H 0.42418 0.01472 0.40406 0.0
O253 O 0.43153 0.93772 0.31711 0.0
H254 H 0.45589 0.85624 0.34987 0.0
H255 H 0.40571 0.88885 0.30409 0.0
H256 H 0.4543 0.92137 0.43977 0.0
H257 H 0.44751 0.0633 0.34804 0.0
H258 H 0.45094 0.97404 0.45445 0.0
H259 H 0.50233 0.067 0.35964 0.0
O260 O 0.39616 0.92334 0.38445 0.0
H261 H 0.32083 0.95988 0.31573 0.0
H262 H 0.37146 0.86574 0.34204 0.0
H263 H 0.31508 0.86385 0.33398 0.0
H264 H 0.28942 0.91113 0.32066 0.0
H265 H 0.3771 0.96086 0.32419 0.0
H266 H 0.41651 0.83871 0.2883 0.0
H267 H 0.4472 0.7966 0.30363 0.0
O268 O 0.41168 0.89035 0.36259 0.0
C269 C 0.47699 0.91928 0.36365 0.0
C270 C 0.45349 0.82378 0.32784 0.0
C271 C 0.42524 0.84236 0.30182 0.0
N272 N 0.43009 0.87548 0.32792 0.0
C273 C 0.44712 0.85248 0.3364 0.0
C274 C 0.41929 0.87076 0.31081 0.0
C275 C 0.44244 0.81874 0.31043 0.0
C276 C 0.43813 0.01926 0.36156 0.0
N277 N 0.44975 0.99614 0.37251 0.0
C278 C 0.45681 0.04509 0.35677 0.0
C279 C 0.48758 0.04713 0.36326 0.0
C280 C 0.49927 0.02342 0.37442 0.0
C281 C 0.47992 0.99793 0.37891 0.0
C282 C 0.43724 0.99785 0.43013 0.0
C283 C 0.44104 0.93921 0.41371 0.0
C284 C 0.43072 0.99418 0.41184 0.0
N285 N 0.4328 0.96514 0.40384 0.0
C286 C 0.44774 0.94199 0.43203 0.0
C287 C 0.44583 0.97154 0.44026 0.0
C288 C 0.39844 0.89571 0.37773 0.0
C289 C 0.33177 0.93909 0.32147 0.0
C290 C 0.36044 0.88648 0.33634 0.0
C291 C 0.32852 0.88523 0.33175 0.0
C292 C 0.31414 0.91175 0.32427 0.0
N293 N 0.37759 0.91337 0.33352 0.0
C294 C 0.36365 0.93948 0.32621 0.0
Co295 Co 0.31044 0.17007 0.62371 0.0
Co296 Co 0.34745 0.1796 0.58267 0.0
O297 O 0.31081 0.16632 0.59719 0.0
C298 C 0.28769 0.10404 0.61718 0.0
O299 O 0.3076 0.10161 0.60372 0.0
C300 C 0.29102 0.20093 0.56034 0.0
O301 O 0.27166 0.19895 0.57407 0.0
O302 O 0.34597 0.22264 0.59378 0.0
O303 O 0.33452 0.21074 0.62246 0.0
H304 H 0.45322 0.23086 0.57378 0.0
H305 H 0.24979 0.15951 0.60486 0.0
O306 O 0.28596 0.12954 0.62623 0.0
H307 H 0.23738 0.26147 0.6363 0.0
H308 H 0.26131 0.16384 0.68535 0.0
H309 H 0.35805 0.1879 0.6511 0.0
H310 H 0.28692 0.2312 0.63879 0.0
H311 H 0.2619 0.15965 0.65227 0.0
O312 O 0.32021 0.19468 0.56226 0.0
H313 H 0.40679 0.21344 0.59113 0.0
H314 H 0.36603 0.17441 0.5439 0.0
H315 H 0.35841 0.19266 0.68414 0.0
H316 H 0.19966 0.18881 0.6022 0.0
H317 H 0.30978 0.18057 0.7015 0.0
H318 H 0.19327 0.24024 0.61795 0.0
O319 O 0.35088 0.14611 0.62566 0.0
H320 H 0.29952 0.08377 0.5535 0.0
H321 H 0.39816 0.13209 0.57513 0.0
H322 H 0.39955 0.07859 0.56206 0.0
H323 H 0.34995 0.0541 0.55103 0.0
H324 H 0.29919 0.13693 0.56703 0.0
H325 H 0.41187 0.19169 0.52602 0.0
H326 H 0.45597 0.22001 0.54097 0.0
O327 O 0.37712 0.16483 0.60179 0.0
C328 C 0.34405 0.22999 0.61042 0.0
C329 C 0.43418 0.21849 0.56711 0.0
C330 C 0.41096 0.19655 0.54031 0.0
N331 N 0.38374 0.19281 0.56858 0.0
C332 C 0.40785 0.20852 0.57688 0.0
C333 C 0.385 0.18691 0.5505 0.0
C334 C 0.4357 0.21242 0.54871 0.0
C335 C 0.24707 0.18173 0.61188 0.0
N336 N 0.27124 0.19358 0.62198 0.0
C337 C 0.21868 0.19827 0.61027 0.0
C338 C 0.21513 0.22715 0.61908 0.0
C339 C 0.23989 0.23909 0.62936 0.0
C340 C 0.26794 0.2219 0.63066 0.0
C341 C 0.28263 0.16923 0.67793 0.0
C342 C 0.33673 0.1828 0.65854 0.0
C343 C 0.28313 0.16684 0.65919 0.0
N344 N 0.30993 0.17377 0.64973 0.0
C345 C 0.33711 0.18544 0.67726 0.0
C346 C 0.30983 0.17863 0.68699 0.0
C347 C 0.37627 0.1501 0.61673 0.0
C348 C 0.3213 0.0942 0.55822 0.0
C349 C 0.37647 0.12149 0.57061 0.0
C350 C 0.3774 0.09124 0.56309 0.0
C351 C 0.34959 0.07754 0.55688 0.0
N352 N 0.34865 0.13771 0.57191 0.0
C353 C 0.3213 0.12442 0.56581 0.0
Co354 Co 0.08757 0.05453 0.86921 0.0
Co355 Co 0.07535 0.09055 0.82818 0.0
O356 O 0.08843 0.05387 0.8427 0.0
C357 C 0.1521 0.03025 0.86135 0.0
O358 O 0.1544 0.05068 0.84816 0.0
C359 C 0.04854 0.0339 0.80837 0.0
O360 O 0.04693 0.01774 0.82339 0.0
O361 O 0.03346 0.09216 0.8409 0.0
O362 O 0.0487 0.08113 0.86913 0.0
H363 H 0.02874 0.19863 0.81932 0.0
H364 H 0.09319 0.99243 0.85104 0.0
O365 O 0.12684 0.02821 0.87053 0.0
H366 H 0.99387 0.98728 0.88556 0.0
H367 H 0.09825 0.00664 0.93089 0.0
H368 H 0.07583 0.1039 0.89682 0.0
H369 H 0.02682 0.03525 0.88635 0.0
H370 H 0.09843 0.00615 0.89774 0.0
O371 O 0.05754 0.0626 0.80864 0.0
H372 H 0.04583 0.15225 0.83683 0.0
H373 H 0.07686 0.10671 0.789 0.0
H374 H 0.07513 0.10543 0.92996 0.0
H375 H 0.06119 0.94378 0.85008 0.0
H376 H 0.08642 0.05652 0.94724 0.0
H377 H 0.01107 0.94105 0.86738 0.0
O378 O 0.11362 0.09358 0.86981 0.0
H379 H 0.16594 0.03626 0.79714 0.0
H380 H 0.12383 0.13857 0.8179 0.0
H381 H 0.17591 0.13665 0.80317 0.0
H382 H 0.19726 0.08518 0.79258 0.0
H383 H 0.11428 0.03926 0.81227 0.0
H384 H 0.05978 0.15244 0.77098 0.0
H385 H 0.03565 0.19891 0.78615 0.0
O386 O 0.09363 0.12037 0.84642 0.0
C387 C 0.02879 0.09207 0.8579 0.0
C388 C 0.03926 0.17854 0.81256 0.0
C389 C 0.05663 0.1526 0.78542 0.0
N390 N 0.06239 0.12678 0.81398 0.0
C391 C 0.04904 0.15222 0.82241 0.0
C392 C 0.06613 0.12669 0.7957 0.0
C393 C 0.04312 0.17867 0.79394 0.0
C394 C 0.07157 0.99129 0.85874 0.0
N395 N 0.06191 0.01662 0.86874 0.0
C396 C 0.05347 0.96374 0.85808 0.0
C397 C 0.02533 0.96225 0.86776 0.0
C398 C 0.01565 0.98819 0.87795 0.0
C399 C 0.03433 0.01535 0.87827 0.0
C400 C 0.09319 0.02808 0.92352 0.0
C401 C 0.08046 0.08248 0.90423 0.0
C402 C 0.09329 0.02797 0.90474 0.0
N403 N 0.08681 0.05493 0.89533 0.0
C404 C 0.08017 0.0835 0.923 0.0
C405 C 0.08655 0.05607 0.93268 0.0
C406 C 0.10995 0.11896 0.86083 0.0
C407 C 0.1569 0.05883 0.80167 0.0
C408 C 0.13312 0.11609 0.81359 0.0
C409 C 0.16255 0.11514 0.80512 0.0
C410 C 0.17448 0.08628 0.79915 0.0
N411 N 0.11601 0.08909 0.81606 0.0
C412 C 0.12755 0.06071 0.81019 0.0
Co413 Co 0.21254 0.84591 0.11833 0.0
Co414 Co 0.16747 0.83924 0.08 0.0
O415 O 0.2062 0.85192 0.09244 0.0
C416 C 0.2325 0.90961 0.13041 0.0
O417 O 0.2091 0.90832 0.14198 0.0
C418 C 0.21827 0.81074 0.05721 0.0
O419 O 0.23221 0.80099 0.07195 0.0
O420 O 0.17067 0.79559 0.09008 0.0
O421 O 0.18879 0.80504 0.11795 0.0
H422 H 0.06055 0.78867 0.07554 0.0
H423 H 0.26797 0.85902 0.09517 0.0
O424 O 0.23664 0.887 0.11922 0.0
H425 H 0.2887 0.75466 0.12212 0.0
H426 H 0.27628 0.84582 0.17555 0.0
H427 H 0.17161 0.82678 0.14878 0.0
H428 H 0.24012 0.78401 0.12959 0.0
H429 H 0.26779 0.85305 0.143 0.0
O430 O 0.19244 0.82604 0.05819 0.0
H431 H 0.10941 0.80523 0.09086 0.0
H432 H 0.14364 0.84576 0.04239 0.0
H433 H 0.17907 0.81917 0.18137 0.0
H434 H 0.31704 0.83063 0.08749 0.0
H435 H 0.23173 0.82872 0.19496 0.0
H436 H 0.32761 0.77801 0.10096 0.0
O437 O 0.17237 0.86864 0.12368 0.0
H438 H 0.20982 0.93705 0.05039 0.0
H439 H 0.11563 0.88683 0.07674 0.0
H440 H 0.11183 0.94112 0.06497 0.0
H441 H 0.15916 0.96656 0.05161 0.0
H442 H 0.21262 0.88289 0.06252 0.0
H443 H 0.09529 0.82935 0.02651 0.0
H444 H 0.05326 0.80072 0.04312 0.0
O445 O 0.14111 0.85271 0.10109 0.0
C446 C 0.17611 0.78698 0.10624 0.0
C447 C 0.07866 0.8012 0.06816 0.0
C448 C 0.09818 0.82399 0.04064 0.0
N449 N 0.12928 0.82659 0.06756 0.0
C450 C 0.10635 0.8107 0.07677 0.0
C451 C 0.12555 0.83313 0.04969 0.0
C452 C 0.0746 0.80794 0.04997 0.0
C453 C 0.27258 0.8363 0.10125 0.0
N454 N 0.25129 0.82331 0.1129 0.0
C455 C 0.30033 0.82026 0.09678 0.0
C456 C 0.30622 0.79071 0.10432 0.0
C457 C 0.28438 0.77759 0.11617 0.0
C458 C 0.25686 0.79429 0.12031 0.0
C459 C 0.25325 0.84153 0.16978 0.0
C460 C 0.19461 0.83087 0.15458 0.0
C461 C 0.2483 0.84556 0.15136 0.0
N462 N 0.21926 0.84016 0.14397 0.0
C463 C 0.19869 0.82657 0.17305 0.0
C464 C 0.22824 0.83194 0.18067 0.0
C465 C 0.14531 0.86599 0.11635 0.0
C466 C 0.18903 0.92622 0.05616 0.0
C467 C 0.13637 0.89782 0.0711 0.0
C468 C 0.13405 0.92853 0.06438 0.0
C469 C 0.16061 0.94277 0.05687 0.0
N470 N 0.16431 0.8817 0.07033 0.0
C471 C 0.19045 0.89554 0.06302 0.0
Co472 Co 0.59038 0.94867 0.87186 0.0
Co473 Co 0.58201 0.91227 0.83073 0.0
O474 O 0.59541 0.94801 0.84564 0.0
C475 C 0.65766 0.96579 0.86659 0.0
O476 O 0.66018 0.94171 0.85552 0.0
C477 C 0.55439 0.9681 0.8121 0.0
O478 O 0.54621 0.97975 0.82781 0.0
O479 O 0.53874 0.91408 0.84133 0.0
O480 O 0.549 0.92625 0.87013 0.0
H481 H 0.52954 0.80776 0.81933 0.0
H482 H 0.60373 0.00853 0.85265 0.0
O483 O 0.63147 0.97158 0.87433 0.0
H484 H 0.50159 0.02549 0.88304 0.0
H485 H 0.59661 0.99838 0.93334 0.0
H486 H 0.56967 0.90214 0.8992 0.0
H487 H 0.52995 0.97491 0.88626 0.0
H488 H 0.60188 0.99713 0.9003 0.0
O489 O 0.56856 0.94166 0.8111 0.0
H490 H 0.54737 0.8528 0.8378 0.0
H491 H 0.58727 0.89642 0.79166 0.0
H492 H 0.56377 0.90244 0.9322 0.0
H493 H 0.57633 0.05962 0.84924 0.0
H494 H 0.5773 0.95083 0.9495 0.0
H495 H 0.52482 0.06831 0.86446 0.0
O496 O 0.61256 0.90729 0.87416 0.0
H497 H 0.67958 0.96002 0.80369 0.0
H498 H 0.62879 0.861 0.82302 0.0
H499 H 0.68288 0.85941 0.81082 0.0
H500 H 0.70864 0.90921 0.80102 0.0
H501 H 0.62564 0.9605 0.81619 0.0
H502 H 0.5696 0.85201 0.77268 0.0
H503 H 0.54064 0.8072 0.78652 0.0
O504 O 0.59566 0.88144 0.84963 0.0
C505 C 0.53035 0.91698 0.85774 0.0
C506 C 0.54223 0.8271 0.81315 0.0
C507 C 0.56467 0.85196 0.78696 0.0
N508 N 0.56854 0.87709 0.81585 0.0
C509 C 0.55246 0.85262 0.82355 0.0
C510 C 0.57454 0.87708 0.79778 0.0
C511 C 0.54843 0.82682 0.79474 0.0
C512 C 0.58149 0.01225 0.85946 0.0
N513 N 0.56853 0.9888 0.86969 0.0
C514 C 0.56601 0.04118 0.85742 0.0
C515 C 0.53709 0.04602 0.86594 0.0
C516 C 0.52402 0.02199 0.87635 0.0
C517 C 0.54015 0.99336 0.87807 0.0
C518 C 0.59058 0.97717 0.92595 0.0
C519 C 0.5754 0.92335 0.90662 0.0
C520 C 0.59358 0.9763 0.90724 0.0
N521 N 0.58584 0.94966 0.89782 0.0
C522 C 0.57211 0.92335 0.92531 0.0
C523 C 0.57973 0.95049 0.93501 0.0
C524 C 0.60934 0.88208 0.86493 0.0
C525 C 0.66862 0.93816 0.80791 0.0
C526 C 0.63992 0.88275 0.81897 0.0
C527 C 0.67051 0.88171 0.81196 0.0
C528 C 0.68492 0.90965 0.80644 0.0
N529 N 0.62411 0.9108 0.82043 0.0
C530 C 0.63805 0.93827 0.81496 0.0
Co531 Co 0.80322 0.84314 0.6193 0.0
Co532 Co 0.85046 0.83602 0.582 0.0
O533 O 0.81108 0.84975 0.59353 0.0
C534 C 0.78789 0.91131 0.61478 0.0
O535 O 0.81428 0.91442 0.60567 0.0
C536 C 0.80027 0.81395 0.55601 0.0
O537 O 0.78205 0.80585 0.56953 0.0
O538 O 0.84378 0.79195 0.59083 0.0
O539 O 0.82632 0.8017 0.61881 0.0
H540 H 0.95478 0.77961 0.57966 0.0
H541 H 0.74923 0.8579 0.59548 0.0
O542 O 0.77977 0.88433 0.62077 0.0
H543 H 0.72503 0.75366 0.62162 0.0
H544 H 0.7373 0.8455 0.6757 0.0
H545 H 0.84192 0.82114 0.65005 0.0
H546 H 0.77394 0.7817 0.62981 0.0
H547 H 0.7475 0.85269 0.6433 0.0
O548 O 0.82745 0.82579 0.55897 0.0
H549 H 0.90519 0.79762 0.59375 0.0
H550 H 0.87901 0.84459 0.54557 0.0
H551 H 0.83265 0.81329 0.68248 0.0
H552 H 0.69985 0.83085 0.58707 0.0
H553 H 0.78001 0.82552 0.69551 0.0
H554 H 0.68754 0.77829 0.60014 0.0
O555 O 0.84319 0.86521 0.62563 0.0
H556 H 0.81655 0.93817 0.55363 0.0
H557 H 0.90471 0.88116 0.5822 0.0
H558 H 0.91237 0.93617 0.57228 0.0
H559 H 0.8681 0.96505 0.55784 0.0
H560 H 0.80982 0.88321 0.56394 0.0
H561 H 0.92817 0.82683 0.53091 0.0
H562 H 0.96653 0.79422 0.54801 0.0
O563 O 0.87547 0.84642 0.60426 0.0
C564 C 0.83795 0.78321 0.60693 0.0
C565 C 0.93828 0.79386 0.57207 0.0
C566 C 0.92333 0.82033 0.54471 0.0
N567 N 0.88928 0.82225 0.57053 0.0
C568 C 0.91018 0.80417 0.57999 0.0
C569 C 0.89547 0.83023 0.55307 0.0
C570 C 0.94485 0.80204 0.55431 0.0
C571 C 0.74388 0.83518 0.60135 0.0
N572 N 0.76439 0.82145 0.61315 0.0
C573 C 0.71595 0.81991 0.59648 0.0
C574 C 0.70909 0.7904 0.60379 0.0
C575 C 0.73013 0.77655 0.61583 0.0
C576 C 0.75785 0.7925 0.62037 0.0
C577 C 0.76031 0.84001 0.67017 0.0
C578 C 0.81888 0.82627 0.65559 0.0
C579 C 0.76624 0.84409 0.65184 0.0
N580 N 0.7952 0.83704 0.64475 0.0
C581 C 0.81381 0.82189 0.67398 0.0
C582 C 0.78428 0.82879 0.68128 0.0
C583 C 0.87073 0.86058 0.61922 0.0
C584 C 0.83604 0.92581 0.55986 0.0
C585 C 0.88528 0.89359 0.57601 0.0
C586 C 0.88979 0.92472 0.57037 0.0
C587 C 0.86495 0.9409 0.56225 0.0
N588 N 0.85686 0.87894 0.57361 0.0
C589 C 0.83241 0.89465 0.56565 0.0
Co590 Co 0.91757 0.05668 0.36087 0.0
Co591 Co 0.92605 0.09849 0.3215 0.0
O592 O 0.913 0.06066 0.33474 0.0
C593 C 0.85409 0.03584 0.37253 0.0
O594 O 0.85401 0.0602 0.3835 0.0
C595 C 0.95596 0.0462 0.30052 0.0
O596 O 0.96502 0.03328 0.3157 0.0
O597 O 0.96917 0.09648 0.33237 0.0
O598 O 0.95775 0.08117 0.36054 0.0
H599 H 0.9762 0.20541 0.3151 0.0
H600 H 0.90693 0.99894 0.33907 0.0
O601 O 0.87716 0.03177 0.36168 0.0
H602 H 0.00983 0.98273 0.36855 0.0
H603 H 0.91592 0.99787 0.41982 0.0
H604 H 0.93382 0.10072 0.39048 0.0
H605 H 0.97924 0.03139 0.37402 0.0
H606 H 0.91045 1.00334 0.38695 0.0
O607 O 0.94051 0.07198 0.30066 0.0
H608 H 0.95898 0.15773 0.33141 0.0
H609 H 0.92145 0.11923 0.28319 0.0
H610 H 0.93964 0.0963 0.42336 0.0
H611 H 0.93658 0.94974 0.33341 0.0
H612 H 0.93066 0.04457 0.43825 0.0
H613 H 0.98847 0.94143 0.34817 0.0
O614 O 0.89385 0.09691 0.36466 0.0
H615 H 0.83018 0.05249 0.29169 0.0
H616 H 0.87853 0.1497 0.31559 0.0
H617 H 0.82491 0.15192 0.30285 0.0
H618 H 0.80041 0.10305 0.29071 0.0
H619 H 0.88363 0.05133 0.30478 0.0
H620 H 0.93855 0.16634 0.26633 0.0
H621 H 0.96601 0.20992 0.28232 0.0
O622 O 0.91128 0.12641 0.34163 0.0
C623 C 0.97654 0.09276 0.34887 0.0
C624 C 0.96418 0.18662 0.30799 0.0
C625 C 0.94309 0.16467 0.28062 0.0
N626 N 0.93907 0.1358 0.3083 0.0
C627 C 0.9543 0.1596 0.31717 0.0
C628 C 0.93356 0.138 0.29023 0.0
C629 C 0.95849 0.18912 0.2896 0.0
C630 C 0.92931 0.99534 0.34571 0.0
N631 N 0.9412 0.01794 0.35696 0.0
C632 C 0.94607 0.9675 0.34238 0.0
C633 C 0.97522 0.96288 0.35063 0.0
C634 C 0.98723 0.98606 0.36206 0.0
C635 C 0.96983 0.01362 0.36506 0.0
C636 C 0.91997 0.02052 0.41349 0.0
C637 C 0.93 0.07811 0.39684 0.0
C638 C 0.91693 0.02376 0.39488 0.0
N639 N 0.92198 0.0523 0.38678 0.0
C640 C 0.93328 0.07575 0.41548 0.0
C641 C 0.92822 0.04673 0.42382 0.0
C642 C 0.89703 0.1234 0.3567 0.0
C643 C 0.84059 0.07394 0.29694 0.0
C644 C 0.86791 0.12831 0.31054 0.0
C645 C 0.8376 0.12973 0.30324 0.0
C646 C 0.82389 0.10231 0.29641 0.0
N647 N 0.88416 0.10042 0.31102 0.0
C648 C 0.87086 0.07344 0.30435 0.0
Co649 Co 0.7044 0.17229 0.12229 0.0
Co650 Co 0.67018 0.18135 0.08057 0.0
O651 O 0.70529 0.16751 0.09594 0.0
C652 C 0.7234 0.10531 0.11676 0.0
O653 O 0.70237 0.1035 0.10387 0.0
C654 C 0.72877 0.20325 0.06093 0.0
O655 O 0.74339 0.20728 0.07631 0.0
O656 O 0.67206 0.2248 0.0912 0.0
O657 O 0.68157 0.21359 0.12021 0.0
H658 H 0.56679 0.23535 0.06831 0.0
H659 H 0.76579 0.15884 0.10469 0.0
O660 O 0.72725 0.13103 0.12538 0.0
H661 H 0.7796 0.26163 0.13498 0.0
H662 H 0.75022 0.16614 0.18466 0.0
H663 H 0.65601 0.19242 0.14881 0.0
H664 H 0.72896 0.2332 0.13693 0.0
H665 H 0.75111 0.16105 0.15161 0.0
O666 O 0.70012 0.19416 0.06071 0.0
H667 H 0.6111 0.21713 0.0871 0.0
H668 H 0.65505 0.17558 0.04143 0.0
H669 H 0.65416 0.19812 0.18179 0.0
H670 H 0.81701 0.18625 0.10262 0.0
H671 H 0.70153 0.18493 0.19996 0.0
H672 H 0.82411 0.2381 0.11778 0.0
O673 O 0.66322 0.14989 0.12381 0.0
H674 H 0.7169 0.08296 0.05349 0.0
H675 H 0.61857 0.13508 0.07303 0.0
H676 H 0.61638 0.08105 0.06069 0.0
H677 H 0.66581 0.05464 0.05075 0.0
H678 H 0.71802 0.13678 0.0662 0.0
H679 H 0.61137 0.19363 0.02213 0.0
H680 H 0.56675 0.22362 0.03557 0.0
O681 O 0.63849 0.16837 0.09934 0.0
C682 C 0.67283 0.23255 0.10782 0.0
C683 C 0.58606 0.22224 0.0623 0.0
C684 C 0.6111 0.19886 0.03638 0.0
N685 N 0.63557 0.19517 0.06541 0.0
C686 C 0.61119 0.2118 0.07288 0.0
C687 C 0.63583 0.18879 0.04738 0.0
C688 C 0.58607 0.21567 0.04393 0.0
C689 C 0.76882 0.18122 0.11148 0.0
N690 N 0.74443 0.19436 0.12093 0.0
C691 C 0.79782 0.19671 0.11019 0.0
C692 C 0.80177 0.22583 0.11867 0.0
C693 C 0.77679 0.23906 0.12831 0.0
C694 C 0.74812 0.22291 0.12929 0.0
C695 C 0.72946 0.17206 0.17689 0.0
C696 C 0.67679 0.18688 0.15659 0.0
C697 C 0.72981 0.16918 0.15817 0.0
N698 N 0.70373 0.17675 0.14826 0.0
C699 C 0.67557 0.19004 0.17528 0.0
C700 C 0.70214 0.1826 0.18546 0.0
C701 C 0.63833 0.15426 0.11453 0.0
C702 C 0.69518 0.09422 0.05774 0.0
C703 C 0.64019 0.12366 0.06892 0.0
C704 C 0.63879 0.09311 0.06184 0.0
C705 C 0.66653 0.07833 0.05624 0.0
N706 N 0.66838 0.1391 0.07038 0.0
C707 C 0.69565 0.12478 0.06487 0.0
Co708 Co 0.59365 0.05974 0.65424 0.0
Co709 Co 0.58288 0.09693 0.69487 0.0
O710 O 0.59737 0.06099 0.68048 0.0
C711 C 0.65834 0.04017 0.643 0.0
O712 O 0.65907 0.06501 0.63243 0.0
C713 C 0.55473 0.04151 0.71359 0.0
O714 O 0.54676 0.02981 0.69788 0.0
O715 O 0.54018 0.09447 0.68365 0.0
O716 O 0.55264 0.08328 0.65498 0.0
H717 H 0.52883 0.2013 0.70458 0.0
H718 H 0.60462 1.00001 0.67415 0.0
O719 O 0.63457 0.03555 0.65323 0.0
H720 H 0.50354 0.9849 0.64254 0.0
H721 H 0.59925 0.00749 0.5933 0.0
H722 H 0.57683 0.10634 0.62613 0.0
H723 H 0.53322 0.03463 0.63928 0.0
H724 H 0.6034 0.00954 0.62637 0.0
O725 O 0.56895 0.0679 0.71458 0.0
H726 H 0.54805 0.15595 0.68678 0.0
H727 H 0.58589 0.11381 0.73388 0.0
H728 H 0.57234 0.10533 0.59308 0.0
H729 H 0.57592 0.94973 0.67757 0.0
H730 H 0.5836 0.05563 0.57644 0.0
H731 H 0.52493 0.94197 0.66174 0.0
O732 O 0.61665 0.1008 0.65217 0.0
H733 H 0.67977 0.05105 0.72367 0.0
H734 H 0.62838 0.14898 0.70305 0.0
H735 H 0.68162 0.15162 0.71625 0.0
H736 H 0.70766 0.10237 0.72674 0.0
H737 H 0.62667 0.04952 0.71016 0.0
H738 H 0.5668 0.15854 0.75221 0.0
H739 H 0.53817 0.20278 0.73754 0.0
O740 O 0.59702 0.12726 0.67588 0.0
C741 C 0.53307 0.09232 0.66702 0.0
C742 C 0.54136 0.18221 0.71112 0.0
C743 C 0.56263 0.15819 0.73785 0.0
N744 N 0.56826 0.13236 0.70925 0.0
C745 C 0.55237 0.15651 0.7011 0.0
C746 C 0.5733 0.13288 0.7274 0.0
C747 C 0.54658 0.18301 0.72961 0.0
C748 C 0.58267 0.99668 0.66703 0.0
N749 N 0.57076 0.02019 0.65643 0.0
C750 C 0.56643 0.96821 0.66909 0.0
C751 C 0.53778 0.9639 0.66024 0.0
C752 C 0.52575 0.98799 0.64949 0.0
C753 C 0.54263 0.01615 0.64775 0.0
C754 C 0.59427 0.02928 0.6004 0.0
C755 C 0.58174 0.08462 0.619 0.0
C756 C 0.59658 0.03059 0.61912 0.0
N757 N 0.59033 0.05804 0.62819 0.0
C758 C 0.57916 0.08419 0.60028 0.0
C759 C 0.58549 0.0563 0.59095 0.0
C760 C 0.61209 0.12633 0.66099 0.0
C761 C 0.6687 0.07267 0.71913 0.0
C762 C 0.63967 0.12746 0.70736 0.0
C763 C 0.66976 0.12909 0.71494 0.0
C764 C 0.68434 0.10146 0.72084 0.0
N765 N 0.62447 0.09914 0.70573 0.0
C766 C 0.63861 0.07196 0.71149 0.0
Co767 Co 0.71111 0.83896 0.39676 0.0
Co768 Co 0.66425 0.82808 0.43384 0.0
O769 O 0.7039 0.84235 0.42278 0.0
C770 C 0.72859 0.90584 0.40356 0.0
O771 O 0.70246 0.90891 0.41292 0.0
C772 C 0.71559 0.80681 0.45946 0.0
O773 O 0.73542 0.80378 0.44601 0.0
O774 O 0.66984 0.78495 0.42313 0.0
O775 O 0.68609 0.7989 0.39554 0.0
H776 H 0.55874 0.77394 0.43413 0.0
H777 H 0.76687 0.84867 0.42012 0.0
O778 O 0.73608 0.87913 0.39688 0.0
H779 H 0.78511 0.74649 0.38985 0.0
H780 H 0.77627 0.84574 0.34021 0.0
H781 H 0.6708 0.82388 0.3653 0.0
H782 H 0.73704 0.77746 0.38362 0.0
H783 H 0.76692 0.84873 0.3729 0.0
O784 O 0.68704 0.81488 0.45652 0.0
H785 H 0.6086 0.79244 0.42069 0.0
H786 H 0.63601 0.83291 0.47059 0.0
H787 H 0.67916 0.82029 0.33254 0.0
H788 H 0.81553 0.8187 0.42654 0.0
H789 H 0.73223 0.83128 0.31978 0.0
H790 H 0.82482 0.76715 0.4114 0.0
O791 O 0.67199 0.86344 0.39188 0.0
H792 H 0.69979 0.92646 0.46588 0.0
H793 H 0.61073 0.87398 0.43547 0.0
H794 H 0.60378 0.92783 0.44754 0.0
H795 H 0.64849 0.95441 0.46292 0.0
H796 H 0.70583 0.87276 0.45343 0.0
H797 H 0.58656 0.81456 0.48461 0.0
H798 H 0.54745 0.78497 0.46632 0.0
O799 O 0.63946 0.8415 0.41207 0.0
C800 C 0.67389 0.77906 0.40642 0.0
C801 C 0.57558 0.78685 0.44223 0.0
C802 C 0.59121 0.80962 0.47057 0.0
N803 N 0.62518 0.81383 0.44481 0.0
C804 C 0.60385 0.79743 0.43469 0.0
C805 C 0.61923 0.81985 0.46257 0.0
C806 C 0.56927 0.79303 0.4603 0.0
C807 C 0.77091 0.82641 0.41335 0.0
N808 N 0.74914 0.81483 0.40153 0.0
C809 C 0.79844 0.80948 0.41709 0.0
C810 C 0.8036 0.78053 0.40862 0.0
C811 C 0.78131 0.7689 0.39655 0.0
C812 C 0.75405 0.78647 0.39315 0.0
C813 C 0.75307 0.84077 0.3456 0.0
C814 C 0.69402 0.82836 0.35988 0.0
C815 C 0.74762 0.84245 0.36411 0.0
N816 N 0.71842 0.83605 0.37104 0.0
C817 C 0.69858 0.82644 0.3413 0.0
C818 C 0.72835 0.83265 0.33415 0.0
C819 C 0.64439 0.85799 0.39795 0.0
C820 C 0.68009 0.91508 0.45927 0.0
C821 C 0.63034 0.88539 0.4421 0.0
C822 C 0.62623 0.91587 0.44894 0.0
C823 C 0.65132 0.93076 0.45758 0.0
N824 N 0.6586 0.8701 0.44387 0.0
C825 C 0.68332 0.88459 0.45228 0.0
Co826 Co 0.91213 0.95518 0.14139 0.0
Co827 Co 0.93262 0.92226 0.18202 0.0
O828 O 0.9139 0.95685 0.16788 0.0
C829 C 0.84799 0.97877 0.15229 0.0
O830 O 0.84954 0.96242 0.16723 0.0
C831 C 0.95734 0.98131 0.19973 0.0
O832 O 0.95823 0.99584 0.18417 0.0
O833 O 0.97297 0.92566 0.16814 0.0
O834 O 0.95354 0.93256 0.14041 0.0
H835 H 0.99297 0.82092 0.18976 0.0
H836 H 0.90332 0.01706 0.15948 0.0
O837 O 0.87057 0.97806 0.14101 0.0
H838 H 0.99701 0.03019 0.12083 0.0
H839 H 0.89119 0.99884 0.07954 0.0
H840 H 0.92536 0.90562 0.11414 0.0
H841 H 0.96849 0.97946 0.12162 0.0
H842 H 0.89422 1.00102 0.11263 0.0
O843 O 0.94879 0.95256 0.20063 0.0
H844 H 0.9687 0.86446 0.17266 0.0
H845 H 0.93684 0.90694 0.22122 0.0
H846 H 0.92288 0.90248 0.08107 0.0
H847 H 0.93085 0.06835 0.1589 0.0
H848 H 0.9057 0.94934 0.06353 0.0
H849 H 0.97814 0.07513 0.13952 0.0
O850 O 0.8898 0.91376 0.14222 0.0
H851 H 0.84093 0.96537 0.21734 0.0
H852 H 0.89054 0.86897 0.19306 0.0
H853 H 0.84055 0.86477 0.20983 0.0
H854 H 0.81545 0.91324 0.2222 0.0
H855 H 0.89056 0.96849 0.20012 0.0
H856 H 0.96102 0.86401 0.23884 0.0
H857 H 0.98923 0.82051 0.2231 0.0
O858 O 0.91657 0.89016 0.16446 0.0
C859 C 0.97601 0.92538 0.15106 0.0
C860 C 0.98069 0.8397 0.19677 0.0
C861 C 0.96279 0.86391 0.22431 0.0
N862 N 0.95124 0.88818 0.1959 0.0
C863 C 0.96684 0.8644 0.18716 0.0
C864 C 0.94923 0.88822 0.21426 0.0
C865 C 0.9786 0.8395 0.21548 0.0
C866 C 0.92364 0.01993 0.15086 0.0
N867 N 0.93418 0.99532 0.14055 0.0
C868 C 0.93924 0.04898 0.15065 0.0
C869 C 0.96581 0.05275 0.1398 0.0
C870 C 0.97643 0.02754 0.12933 0.0
C871 C 0.96025 0.99882 0.12989 0.0
C872 C 0.8988 0.97829 0.08703 0.0
C873 C 0.91808 0.92618 0.10661 0.0
C874 C 0.90053 0.97936 0.10577 0.0
N875 N 0.91027 0.95355 0.11532 0.0
C876 C 0.91662 0.92423 0.08788 0.0
C877 C 0.90695 0.95052 0.07805 0.0
C878 C 0.89805 0.88916 0.15094 0.0
C879 C 0.85162 0.94408 0.21202 0.0
C880 C 0.87955 0.89017 0.19811 0.0
C881 C 0.85134 0.88765 0.20774 0.0
C882 C 0.83731 0.91483 0.21471 0.0
N883 N 0.8934 0.91894 0.19546 0.0
C884 C 0.87983 0.94567 0.20232 0.0
Co885 Co 0.79686 0.17059 0.89918 0.0
Co886 Co 0.84512 0.17918 0.93593 0.0
O887 O 0.80585 0.16493 0.92475 0.0
C888 C 0.77767 0.10606 0.88834 0.0
O889 O 0.7997 0.1077 0.87593 0.0
C890 C 0.7945 0.20502 0.95959 0.0
O891 O 0.78054 0.21493 0.94489 0.0
O892 O 0.83909 0.22268 0.92607 0.0
O893 O 0.81974 0.21203 0.89863 0.0
H894 H 0.95007 0.23424 0.93743 0.0
H895 H 0.7439 0.15656 0.92401 0.0
O896 O 0.7738 0.12899 0.89932 0.0
H897 H 0.71837 0.26003 0.89729 0.0
H898 H 0.72788 0.16795 0.84401 0.0
H899 H 0.83444 0.18999 0.86742 0.0
H900 H 0.76688 0.23168 0.88851 0.0
H901 H 0.73958 0.16164 0.8763 0.0
O902 O 0.82109 0.191 0.95849 0.0
H903 H 0.90066 0.21567 0.92348 0.0
H904 H 0.87236 0.17372 0.97278 0.0
H905 H 0.82375 0.19673 0.83507 0.0
H906 H 0.69494 0.18393 0.933 0.0
H907 H 0.77013 0.18567 0.82316 0.0
H908 H 0.68197 0.23611 0.91965 0.0
O909 O 0.83688 0.14867 0.89284 0.0
H910 H 0.81075 0.0793 0.9667 0.0
H911 H 0.89916 0.13391 0.93683 0.0
H912 H 0.90682 0.07979 0.94827 0.0
H913 H 0.86244 0.05215 0.96339 0.0
H914 H 0.80403 0.13335 0.95491 0.0
H915 H 0.92133 0.1921 0.98732 0.0
H916 H 0.96065 0.22247 0.96958 0.0
O917 O 0.87019 0.16698 0.91386 0.0
C918 C 0.83253 0.23075 0.90996 0.0
C919 C 0.93315 0.22096 0.94529 0.0
C920 C 0.917 0.19735 0.97329 0.0
N921 N 0.88376 0.19346 0.94727 0.0
C922 C 0.90517 0.21031 0.93745 0.0
C923 C 0.88928 0.18708 0.965 0.0
C924 C 0.93906 0.21437 0.96333 0.0
C925 C 0.73822 0.17906 0.91797 0.0
N926 N 0.75815 0.19239 0.90567 0.0
C927 C 0.71055 0.19453 0.92318 0.0
C928 C 0.70332 0.22384 0.91572 0.0
C929 C 0.72375 0.23729 0.90319 0.0
C930 C 0.75125 0.22116 0.89832 0.0
C931 C 0.75131 0.17293 0.84904 0.0
C932 C 0.81101 0.18529 0.86237 0.0
C933 C 0.75807 0.16942 0.86731 0.0
N934 N 0.78761 0.17569 0.87377 0.0
C935 C 0.80511 0.18908 0.84402 0.0
C936 C 0.77503 0.18286 0.83735 0.0
C937 C 0.86466 0.15277 0.89897 0.0
C938 C 0.83029 0.09113 0.96018 0.0
C939 C 0.87969 0.12201 0.94332 0.0
C940 C 0.8842 0.09138 0.94981 0.0
C941 C 0.85929 0.0759 0.9583 0.0
N942 N 0.85122 0.13684 0.94529 0.0
C943 C 0.82665 0.12176 0.95352 0.0
Co944 Co 0.91415 0.55886 0.64592 0.0
Co945 Co 0.93236 0.59333 0.68665 0.0
O946 O 0.91556 0.55778 0.67242 0.0
C947 C 0.8502 0.53428 0.65617 0.0
O948 O 0.85037 0.55198 0.67066 0.0
C949 C 0.95831 0.53486 0.70495 0.0
O950 O 0.95929 0.51999 0.68947 0.0
O951 O 0.97315 0.59204 0.6728 0.0
O952 O 0.95446 0.58326 0.64503 0.0
H953 H 0.987 0.69773 0.6946 0.0
H954 H 0.90736 0.49688 0.66402 0.0
O955 O 0.87358 0.53436 0.64542 0.0
H956 H 1.0027 0.48709 0.62631 0.0
H957 H 0.89616 0.5129 0.58423 0.0
H958 H 0.92553 0.6083 0.61843 0.0
H959 H 0.97209 0.53667 0.62675 0.0
H960 H 0.89879 0.51164 0.61734 0.0
O961 O 0.94979 0.56373 0.70557 0.0
H962 H 0.96526 0.6529 0.67742 0.0
H963 H 0.93546 0.60896 0.72588 0.0
H964 H 0.92344 0.61057 0.58533 0.0
H965 H 0.937 0.44668 0.66377 0.0
H966 H 0.90866 0.5626 0.56799 0.0
H967 H 0.98512 0.44161 0.64486 0.0
O968 O 0.89009 0.59932 0.64642 0.0
H969 H 0.84192 0.54574 0.72102 0.0
H970 H 0.88785 0.64457 0.69787 0.0
H971 H 0.83737 0.64638 0.71432 0.0
H972 H 0.81412 0.59668 0.72612 0.0
H973 H 0.892 0.54501 0.70414 0.0
H974 H 0.95716 0.65316 0.74358 0.0
H975 H 0.98303 0.69804 0.72793 0.0
O976 O 0.91463 0.62467 0.66895 0.0
C977 C 0.97628 0.59222 0.65568 0.0
C978 C 0.97573 0.67833 0.70157 0.0
C979 C 0.95903 0.6533 0.72906 0.0
N980 N 0.94902 0.62835 0.7006 0.0
C981 C 0.96332 0.65291 0.69191 0.0
C982 C 0.94689 0.62827 0.71896 0.0
C983 C 0.97352 0.67848 0.72028 0.0
C984 C 0.92807 0.49473 0.65561 0.0
N985 N 0.93792 0.51965 0.64539 0.0
C986 C 0.94485 0.4663 0.65558 0.0
C987 C 0.97188 0.46349 0.645 0.0
C988 C 0.98178 0.48901 0.63461 0.0
C989 C 0.96442 0.51708 0.63498 0.0
C990 C 0.90273 0.53393 0.59163 0.0
C991 C 0.91936 0.58727 0.61098 0.0
C992 C 0.90423 0.53338 0.61039 0.0
N993 N 0.91266 0.55981 0.61982 0.0
C994 C 0.91809 0.58872 0.59224 0.0
C995 C 0.90975 0.56182 0.58252 0.0
C996 C 0.89661 0.62446 0.65515 0.0
C997 C 0.85181 0.56756 0.71595 0.0
C998 C 0.87768 0.62284 0.70269 0.0
C999 C 0.84919 0.62401 0.71213 0.0
C1000 C 0.8362 0.59613 0.71878 0.0
N1001 N 0.89284 0.59473 0.69992 0.0
C1002 C 0.88027 0.56732 0.70645 0.0
Co1003 Co 0.71434 0.67024 0.90104 0.0
Co1004 Co 0.66873 0.67475 0.93933 0.0
O1005 O 0.7076 0.66262 0.92674 0.0
C1006 C 0.73401 0.60738 0.88766 0.0
O1007 O 0.71085 0.60984 0.87602 0.0
C1008 C 0.71962 0.70123 0.96239 0.0
O1009 O 0.73336 0.71169 0.94773 0.0
O1010 O 0.67206 0.719 0.93016 0.0
O1011 O 0.69056 0.71103 0.90219 0.0
H1012 H 0.5618 0.72537 0.9446 0.0
H1013 H 0.76956 0.65533 0.92394 0.0
O1014 O 0.73827 0.62914 0.89935 0.0
H1015 H 0.79059 0.76147 0.89945 0.0
H1016 H 0.77896 0.67395 0.84408 0.0
H1017 H 0.67375 0.69094 0.87082 0.0
H1018 H 0.74205 0.73282 0.89125 0.0
H1019 H 0.77 0.66473 0.87643 0.0
O1020 O 0.69356 0.68643 0.96135 0.0
H1021 H 0.61078 0.70956 0.92903 0.0
H1022 H 0.64457 0.66616 0.97676 0.0
H1023 H 0.68168 0.70057 0.83843 0.0
H1024 H 0.81859 0.683 0.93232 0.0
H1025 H 0.73461 0.69206 0.82485 0.0
H1026 H 0.82931 0.73652 0.92009 0.0
O1027 O 0.67428 0.64802 0.89518 0.0
H1028 H 0.71034 0.57488 0.96706 0.0
H1029 H 0.61673 0.62727 0.94143 0.0
H1030 H 0.61257 0.5723 0.95207 0.0
H1031 H 0.6596 0.54576 0.96507 0.0
H1032 H 0.71351 0.62975 0.95605 0.0
H1033 H 0.59609 0.68178 0.99288 0.0
H1034 H 0.55422 0.71148 0.97676 0.0
O1035 O 0.64263 0.66275 0.91792 0.0
C1036 C 0.67754 0.72838 0.91415 0.0
C1037 C 0.57984 0.71237 0.95176 0.0
C1038 C 0.5991 0.68794 0.97886 0.0
N1039 N 0.63043 0.6868 0.95194 0.0
C1040 C 0.60759 0.70328 0.943 0.0
C1041 C 0.62655 0.67925 0.96967 0.0
C1042 C 0.57561 0.70459 0.96981 0.0
C1043 C 0.77424 0.67844 0.91839 0.0
N1044 N 0.75305 0.69233 0.90703 0.0
C1045 C 0.80196 0.69407 0.92326 0.0
C1046 C 0.80793 0.72412 0.91642 0.0
C1047 C 0.7862 0.73815 0.90486 0.0
C1048 C 0.7587 0.72184 0.90031 0.0
C1049 C 0.75582 0.67784 0.84985 0.0
C1050 C 0.69689 0.68737 0.86504 0.0
C1051 C 0.75061 0.6727 0.86816 0.0
N1052 N 0.72143 0.67758 0.87555 0.0
C1053 C 0.70122 0.69278 0.84668 0.0
C1054 C 0.73092 0.68798 0.83907 0.0
C1055 C 0.64713 0.65034 0.90245 0.0
C1056 C 0.68968 0.58619 0.96144 0.0
C1057 C 0.63734 0.61583 0.94692 0.0
C1058 C 0.63482 0.58472 0.953 0.0
C1059 C 0.66121 0.56986 0.9603 0.0
N1060 N 0.66532 0.63173 0.94812 0.0
C1061 C 0.69131 0.61728 0.95522 0.0
Co1062 Co 0.58416 0.45317 0.14767 0.0
Co1063 Co 0.57632 0.42005 0.18974 0.0
O1064 O 0.58942 0.45529 0.17402 0.0
C1065 C 0.65041 0.47786 0.15151 0.0
O1066 O 0.65457 0.46149 0.16628 0.0
C1067 C 0.5545 0.47873 0.2098 0.0
O1068 O 0.55149 0.49417 0.19462 0.0
O1069 O 0.53258 0.42112 0.17944 0.0
O1070 O 0.54411 0.42883 0.15037 0.0
H1071 H 0.52445 0.3158 0.20266 0.0
H1072 H 0.59523 0.51579 0.16427 0.0
O1073 O 0.62403 0.47748 0.14337 0.0
H1074 H 0.49133 0.52412 0.13487 0.0
H1075 H 0.58556 0.49627 0.08453 0.0
H1076 H 0.56645 0.40232 0.12212 0.0
H1077 H 0.52189 0.47459 0.13325 0.0
H1078 H 0.59159 0.49911 0.11747 0.0
O1079 O 0.56318 0.44989 0.20969 0.0
H1080 H 0.54158 0.36027 0.18362 0.0
H1081 H 0.58299 0.40532 0.2289 0.0
H1082 H 0.55986 0.39852 0.08926 0.0
H1083 H 0.56567 0.56597 0.16599 0.0
H1084 H 0.56944 0.44574 0.07022 0.0
H1085 H 0.51326 0.5703 0.15127 0.0
O1086 O 0.6085 0.41299 0.14663 0.0
H1087 H 0.67414 0.46859 0.21605 0.0
H1088 H 0.62348 0.36914 0.19724 0.0
H1089 H 0.67757 0.36787 0.20933 0.0
H1090 H 0.70323 0.41787 0.21893 0.0
H1091 H 0.62028 0.46879 0.20356 0.0
H1092 H 0.56603 0.36149 0.24844 0.0
H1093 H 0.53665 0.31624 0.23533 0.0
O1094 O 0.58971 0.38822 0.17102 0.0
C1095 C 0.52505 0.42075 0.16281 0.0
C1096 C 0.53729 0.33536 0.20853 0.0
C1097 C 0.56058 0.36102 0.23422 0.0
N1098 N 0.56338 0.38533 0.2051 0.0
C1099 C 0.54711 0.36058 0.19781 0.0
C1100 C 0.57004 0.38583 0.22309 0.0
C1101 C 0.54412 0.33563 0.22686 0.0
C1102 C 0.57259 0.51762 0.15768 0.0
N1103 N 0.56034 0.49231 0.14867 0.0
C1104 C 0.55589 0.54604 0.15877 0.0
C1105 C 0.52647 0.54843 0.15053 0.0
C1106 C 0.51413 0.52252 0.14135 0.0
C1107 C 0.53149 0.49447 0.14055 0.0
C1108 C 0.58121 0.47556 0.09269 0.0
C1109 C 0.57041 0.42305 0.11395 0.0
C1110 C 0.58462 0.47701 0.11135 0.0
N1111 N 0.57901 0.45099 0.12175 0.0
C1112 C 0.56675 0.42072 0.09534 0.0
C1113 C 0.57216 0.44721 0.08466 0.0
C1114 C 0.60457 0.38815 0.15603 0.0
C1115 C 0.6632 0.44664 0.21194 0.0
C1116 C 0.63458 0.39101 0.20117 0.0
C1117 C 0.66517 0.39013 0.20812 0.0
C1118 C 0.67953 0.41818 0.21353 0.0
N1119 N 0.6187 0.419 0.19965 0.0
C1120 C 0.63263 0.44658 0.20494 0.0
Co1121 Co 0.80284 0.33359 0.40309 0.0
Co1122 Co 0.84329 0.31953 0.44216 0.0
O1123 O 0.8065 0.33618 0.42932 0.0
C1124 C 0.78457 0.39882 0.39295 0.0
O1125 O 0.80882 0.39879 0.38192 0.0
C1126 C 0.78846 0.29528 0.46339 0.0
O1127 O 0.77397 0.28843 0.44829 0.0
O1128 O 0.8374 0.27715 0.43068 0.0
O1129 O 0.82552 0.29215 0.40256 0.0
H1130 H 0.9455 0.25993 0.44732 0.0
H1131 H 0.74508 0.34535 0.42468 0.0
O1132 O 0.77973 0.37514 0.40321 0.0
H1133 H 0.72521 0.2454 0.39248 0.0
H1134 H 0.74563 0.34204 0.34385 0.0
H1135 H 0.8468 0.31752 0.37341 0.0
H1136 H 0.77528 0.27404 0.38822 0.0
H1137 H 0.75053 0.34497 0.37685 0.0
O1138 O 0.81609 0.30696 0.46307 0.0
H1139 H 0.89918 0.28162 0.43153 0.0
H1140 H 0.86511 0.32132 0.48035 0.0
H1141 H 0.84291 0.31421 0.34038 0.0
H1142 H 0.69448 0.3177 0.42911 0.0
H1143 H 0.79203 0.32652 0.32538 0.0
H1144 H 0.68433 0.26728 0.41299 0.0
O1145 O 0.84408 0.35581 0.40023 0.0
H1146 H 0.80655 0.41829 0.47343 0.0
H1147 H 0.89843 0.36239 0.44792 0.0
H1148 H 0.90557 0.41528 0.46123 0.0
H1149 H 0.85941 0.44357 0.47417 0.0
H1150 H 0.80044 0.3655 0.45978 0.0
H1151 H 0.91091 0.2998 0.4967 0.0
H1152 H 0.95159 0.26898 0.48015 0.0
O1153 O 0.87199 0.33236 0.42206 0.0
C1154 C 0.83469 0.27143 0.41388 0.0
C1155 C 0.92797 0.27338 0.45468 0.0
C1156 C 0.90853 0.29571 0.48239 0.0
N1157 N 0.87953 0.30285 0.45497 0.0
C1158 C 0.90172 0.28577 0.4458 0.0
C1159 C 0.88259 0.30775 0.47307 0.0
C1160 C 0.93136 0.27844 0.4731 0.0
C1161 C 0.74069 0.32364 0.41743 0.0
N1162 N 0.76306 0.31147 0.40612 0.0
C1163 C 0.71206 0.308 0.42008 0.0
C1164 C 0.7064 0.27967 0.41106 0.0
C1165 C 0.72935 0.26736 0.39957 0.0
C1166 C 0.75772 0.28364 0.39727 0.0
C1167 C 0.76791 0.33656 0.35023 0.0
C1168 C 0.82456 0.32283 0.367 0.0
C1169 C 0.77082 0.33815 0.36891 0.0
N1170 N 0.7989 0.33127 0.37707 0.0
C1171 C 0.82251 0.32095 0.34828 0.0
C1172 C 0.79396 0.32787 0.33987 0.0
C1173 C 0.87023 0.34906 0.4078 0.0
C1174 C 0.82685 0.40619 0.46785 0.0
C1175 C 0.87821 0.37463 0.45338 0.0
C1176 C 0.88241 0.40453 0.46098 0.0
C1177 C 0.85651 0.42037 0.46825 0.0
N1178 N 0.84906 0.36083 0.45307 0.0
C1179 C 0.82355 0.37626 0.46014 0.0
Co1180 Co 0.91944 0.44821 0.86561 0.0
Co1181 Co 0.932 0.41054 0.82516 0.0
O1182 O 0.91878 0.44766 0.8392 0.0
C1183 C 0.85443 0.47115 0.85809 0.0
O1184 O 0.8508 0.4473 0.84696 0.0
C1185 C 0.96085 0.46614 0.80559 0.0
O1186 O 0.96522 0.48069 0.82098 0.0
O1187 O 0.97384 0.40955 0.83795 0.0
O1188 O 0.95806 0.42131 0.86603 0.0
H1189 H 0.97891 0.3023 0.81728 0.0
H1190 H 0.91473 0.50942 0.84645 0.0
O1191 O 0.88056 0.47512 0.86618 0.0
H1192 H 0.01346 0.51547 0.88131 0.0
H1193 H 0.90837 0.49941 0.9265 0.0
H1194 H 0.93042 0.40019 0.89399 0.0
H1195 H 0.98006 0.46786 0.88269 0.0
H1196 H 0.90867 0.49814 0.89335 0.0
O1197 O 0.94962 0.43822 0.80539 0.0
H1198 H 0.96155 0.34918 0.83438 0.0
H1199 H 0.93104 0.39325 0.78613 0.0
H1200 H 0.93064 0.40042 0.92714 0.0
H1201 H 0.94719 0.55769 0.8449 0.0
H1202 H 0.91953 0.45032 0.94363 0.0
H1203 H 0.99701 0.56088 0.86237 0.0
O1204 O 0.89321 0.40919 0.86668 0.0
H1205 H 0.84096 0.46342 0.79407 0.0
H1206 H 0.88377 0.36193 0.81544 0.0
H1207 H 0.83152 0.36318 0.80096 0.0
H1208 H 0.8098 0.41423 0.79009 0.0
H1209 H 0.89291 0.46108 0.80887 0.0
H1210 H 0.94839 0.34699 0.76851 0.0
H1211 H 0.9724 0.30101 0.7841 0.0
O1212 O 0.91371 0.38125 0.84377 0.0
C1213 C 0.97818 0.41007 0.85498 0.0
C1214 C 0.96844 0.32216 0.81034 0.0
C1215 C 0.95136 0.34727 0.78296 0.0
N1216 N 0.9452 0.37391 0.81129 0.0
C1217 C 0.9585 0.34876 0.81995 0.0
C1218 C 0.94169 0.37346 0.79302 0.0
C1219 C 0.9648 0.32147 0.79172 0.0
C1220 C 0.93621 0.51076 0.85424 0.0
N1221 N 0.94545 0.48587 0.86466 0.0
C1222 C 0.95457 0.5381 0.85324 0.0
C1223 C 0.98255 0.53984 0.86302 0.0
C1224 C 0.99181 0.51436 0.87363 0.0
C1225 C 0.97287 0.4874 0.87429 0.0
C1226 C 0.91331 0.47754 0.91947 0.0
C1227 C 0.92582 0.42202 0.90105 0.0
C1228 C 0.91345 0.47665 0.90069 0.0
N1229 N 0.9198 0.44914 0.89172 0.0
C1230 C 0.92586 0.422 0.91983 0.0
C1231 C 0.91959 0.44999 0.92907 0.0
C1232 C 0.89711 0.38333 0.85811 0.0
C1233 C 0.85017 0.44102 0.79873 0.0
C1234 C 0.87436 0.38422 0.81094 0.0
C1235 C 0.84483 0.38479 0.80264 0.0
C1236 C 0.83268 0.41343 0.79653 0.0
N1237 N 0.89138 0.41137 0.81309 0.0
C1238 C 0.87964 0.43953 0.80708 0.0
Co1239 Co 0.80919 0.66759 0.1256 0.0
Co1240 Co 0.84012 0.67246 0.0828 0.0
O1241 O 0.80615 0.65975 0.09946 0.0
C1242 C 0.78346 0.60125 0.12296 0.0
O1243 O 0.79605 0.59755 0.10698 0.0
C1244 C 0.7815 0.69482 0.06379 0.0
O1245 O 0.76798 0.70161 0.07921 0.0
O1246 O 0.83798 0.71692 0.09178 0.0
O1247 O 0.8316 0.70838 0.12129 0.0
H1248 H 0.94174 0.72646 0.06651 0.0
H1249 H 0.74667 0.65298 0.10982 0.0
O1250 O 0.78664 0.62715 0.13149 0.0
H1251 H 0.73516 0.75867 0.13706 0.0
H1252 H 0.76902 0.67049 0.18941 0.0
H1253 H 0.86014 0.69021 0.14969 0.0
H1254 H 0.78575 0.73004 0.13886 0.0
H1255 H 0.76504 0.66105 0.15676 0.0
O1256 O 0.80914 0.68311 0.06335 0.0
H1257 H 0.89891 0.70966 0.08683 0.0
H1258 H 0.85306 0.6627 0.04363 0.0
H1259 H 0.86505 0.70022 0.18223 0.0
H1260 H 0.69551 0.6806 0.10792 0.0
H1261 H 0.81926 0.69035 0.20234 0.0
H1262 H 0.68955 0.7339 0.12156 0.0
O1263 O 0.85046 0.64505 0.12672 0.0
H1264 H 0.7935 0.57171 0.05894 0.0
H1265 H 0.89192 0.62578 0.0761 0.0
H1266 H 0.8942 0.57082 0.06519 0.0
H1267 H 0.84471 0.54342 0.05644 0.0
H1268 H 0.79231 0.62651 0.07027 0.0
H1269 H 0.89522 0.67927 0.02282 0.0
H1270 H 0.94005 0.71127 0.03424 0.0
O1271 O 0.87302 0.66195 0.10122 0.0
C1272 C 0.8383 0.72632 0.10807 0.0
C1273 C 0.92237 0.71245 0.06138 0.0
C1274 C 0.89625 0.686 0.03685 0.0
N1275 N 0.87358 0.68507 0.06647 0.0
C1276 C 0.89808 0.70281 0.07283 0.0
C1277 C 0.87239 0.67676 0.0487 0.0
C1278 C 0.92139 0.70394 0.04327 0.0
C1279 C 0.74416 0.67599 0.11597 0.0
N1280 N 0.76912 0.68976 0.12453 0.0
C1281 C 0.71517 0.69159 0.11477 0.0
C1282 C 0.71186 0.72152 0.1224 0.0
C1283 C 0.73745 0.73545 0.13108 0.0
C1284 C 0.76608 0.71915 0.13201 0.0
C1285 C 0.78911 0.67496 0.18078 0.0
C1286 C 0.84003 0.68607 0.15832 0.0
C1287 C 0.78702 0.66962 0.16228 0.0
N1288 N 0.81225 0.67537 0.15128 0.0
C1289 C 0.84299 0.69168 0.17675 0.0
C1290 C 0.8173 0.68611 0.18803 0.0
C1291 C 0.87456 0.64898 0.11669 0.0
C1292 C 0.81522 0.58338 0.06272 0.0
C1293 C 0.87028 0.61391 0.07259 0.0
C1294 C 0.87172 0.58284 0.06629 0.0
C1295 C 0.84396 0.56751 0.06134 0.0
N1296 N 0.842 0.62929 0.07397 0.0
C1297 C 0.81471 0.61445 0.06908 0.0
Co1298 Co 0.58948 0.54545 0.37229 0.0
Co1299 Co 0.57774 0.59193 0.33505 0.0
O1300 O 0.59217 0.55256 0.34631 0.0
C1301 C 0.65641 0.5284 0.36494 0.0
O1302 O 0.6592 0.55446 0.35551 0.0
C1303 C 0.55039 0.54054 0.31205 0.0
O1304 O 0.54269 0.52545 0.32683 0.0
O1305 O 0.53506 0.58773 0.34661 0.0
O1306 O 0.54909 0.56963 0.37378 0.0
H1307 H 0.52539 0.6985 0.33414 0.0
H1308 H 0.59923 0.49032 0.34832 0.0
O1309 O 0.62996 0.52099 0.37188 0.0
H1310 H 0.49869 0.46982 0.37966 0.0
H1311 H 0.59849 0.4806 0.42879 0.0
H1312 H 0.57448 0.58578 0.40384 0.0
H1313 H 0.52915 0.51816 0.38606 0.0
H1314 H 0.60057 0.4898 0.39607 0.0
O1315 O 0.56322 0.56771 0.31309 0.0
H1316 H 0.54405 0.64902 0.34803 0.0
H1317 H 0.58035 0.61789 0.29774 0.0
H1318 H 0.57185 0.57757 0.43663 0.0
H1319 H 0.5697 0.44148 0.34166 0.0
H1320 H 0.5839 0.52465 0.44931 0.0
H1321 H 0.51899 0.43104 0.35735 0.0
O1322 O 0.61328 0.58506 0.37706 0.0
H1323 H 0.67342 0.55271 0.30179 0.0
H1324 H 0.62417 0.64463 0.33147 0.0
H1325 H 0.67733 0.64987 0.31833 0.0
H1326 H 0.70229 0.60369 0.3033 0.0
H1327 H 0.62043 0.54843 0.3153 0.0
H1328 H 0.56182 0.6669 0.28328 0.0
H1329 H 0.53424 0.70769 0.30153 0.0
O1330 O 0.59287 0.61752 0.35625 0.0
C1331 C 0.52916 0.58246 0.36321 0.0
C1332 C 0.53743 0.68094 0.32605 0.0
C1333 C 0.55784 0.66318 0.2975 0.0
N1334 N 0.5634 0.63065 0.32373 0.0
C1335 C 0.54811 0.6529 0.33385 0.0
C1336 C 0.56819 0.63542 0.30576 0.0
C1337 C 0.54238 0.68606 0.30775 0.0
C1338 C 0.57735 0.48576 0.35534 0.0
N1339 N 0.56599 0.50701 0.3676 0.0
C1340 C 0.56066 0.45814 0.35145 0.0
C1341 C 0.53218 0.45234 0.36023 0.0
C1342 C 0.52076 0.4741 0.37274 0.0
C1343 C 0.53806 0.50149 0.37626 0.0
C1344 C 0.59306 0.50374 0.42343 0.0
C1345 C 0.57948 0.56262 0.40924 0.0
C1346 C 0.59423 0.5091 0.40491 0.0
N1347 N 0.58725 0.53821 0.39803 0.0
C1348 C 0.57807 0.55815 0.42782 0.0
C1349 C 0.58488 0.52846 0.43493 0.0
C1350 C 0.60878 0.61259 0.3706 0.0
C1351 C 0.66277 0.57302 0.30826 0.0
C1352 C 0.63492 0.62439 0.32506 0.0
C1353 C 0.665 0.62753 0.31758 0.0
C1354 C 0.67897 0.60162 0.30914 0.0
N1355 N 0.61915 0.59628 0.32413 0.0
C1356 C 0.63271 0.57078 0.31587 0.0
Co1357 Co 0.70455 0.34308 0.6251 0.0
Co1358 Co 0.66922 0.33328 0.58376 0.0
O1359 O 0.7048 0.34732 0.59872 0.0
C1360 C 0.72478 0.40977 0.61914 0.0
O1361 O 0.70448 0.41171 0.60588 0.0
C1362 C 0.72523 0.30604 0.56445 0.0
O1363 O 0.73837 0.2991 0.57992 0.0
O1364 O 0.6712 0.29013 0.59455 0.0
O1365 O 0.68175 0.30182 0.62336 0.0
H1366 H 0.56525 0.27974 0.57269 0.0
H1367 H 0.76507 0.35548 0.60642 0.0
O1368 O 0.72769 0.38421 0.62797 0.0
H1369 H 0.77997 0.25365 0.63744 0.0
H1370 H 0.75194 0.34971 0.68709 0.0
H1371 H 0.65672 0.32369 0.65205 0.0
H1372 H 0.72963 0.2826 0.64004 0.0
H1373 H 0.75206 0.35438 0.65403 0.0
O1374 O 0.69843 0.31957 0.56397 0.0
H1375 H 0.61014 0.29809 0.59101 0.0
H1376 H 0.65313 0.33817 0.54472 0.0
H1377 H 0.65566 0.31841 0.68506 0.0
H1378 H 0.81594 0.32748 0.60362 0.0
H1379 H 0.70353 0.33147 0.70282 0.0
H1380 H 0.82359 0.27614 0.61916 0.0
O1381 O 0.66338 0.36576 0.62688 0.0
H1382 H 0.71597 0.43004 0.55522 0.0
H1383 H 0.61781 0.38004 0.57647 0.0
H1384 H 0.61579 0.4337 0.5637 0.0
H1385 H 0.66515 0.45904 0.5529 0.0
H1386 H 0.71692 0.37658 0.56837 0.0
H1387 H 0.60886 0.31998 0.52589 0.0
H1388 H 0.56444 0.29065 0.53989 0.0
O1389 O 0.63826 0.34691 0.60262 0.0
C1390 C 0.67289 0.28259 0.61113 0.0
C1391 C 0.58444 0.29256 0.56645 0.0
C1392 C 0.60893 0.31511 0.54018 0.0
N1393 N 0.63415 0.31934 0.56898 0.0
C1394 C 0.60988 0.30308 0.57676 0.0
C1395 C 0.63398 0.32527 0.55091 0.0
C1396 C 0.584 0.29867 0.54804 0.0
C1397 C 0.76835 0.33331 0.61337 0.0
N1398 N 0.74447 0.32077 0.62344 0.0
C1399 C 0.79715 0.31749 0.61167 0.0
C1400 C 0.80141 0.28866 0.62037 0.0
C1401 C 0.77693 0.27602 0.63061 0.0
C1402 C 0.74844 0.29248 0.63199 0.0
C1403 C 0.73096 0.34386 0.6795 0.0
C1404 C 0.67772 0.32919 0.65966 0.0
C1405 C 0.73087 0.34651 0.66078 0.0
N1406 N 0.70451 0.33901 0.6511 0.0
C1407 C 0.67694 0.32626 0.67836 0.0
C1408 C 0.70379 0.33362 0.68831 0.0
C1409 C 0.63835 0.36133 0.61772 0.0
C1410 C 0.6943 0.41926 0.55986 0.0
C1411 C 0.6394 0.39102 0.57201 0.0
C1412 C 0.6381 0.42135 0.56468 0.0
C1413 C 0.66579 0.43553 0.55859 0.0
N1414 N 0.66745 0.37523 0.57326 0.0
C1415 C 0.69467 0.38894 0.56726 0.0
Co1416 Co 0.07879 0.4551 0.37424 0.0
Co1417 Co 0.07363 0.42213 0.33206 0.0
O1418 O 0.08518 0.45718 0.34808 0.0
C1419 C 0.14454 0.47933 0.37034 0.0
O1420 O 0.14834 0.46179 0.35595 0.0
C1421 C 0.0434 0.47694 0.31315 0.0
O1422 O 0.02939 0.48528 0.3282 0.0
O1423 O 0.02954 0.42188 0.34176 0.0
O1424 O 0.0391 0.43049 0.37102 0.0
H1425 H 0.0247 0.31722 0.31716 0.0
H1426 H 0.0896 0.51707 0.35689 0.0
O1427 O 0.11841 0.47965 0.37876 0.0
H1428 H 0.98502 0.52561 0.38567 0.0
H1429 H 0.07762 0.49902 0.43725 0.0
H1430 H 0.06016 0.40454 0.39971 0.0
H1431 H 0.01621 0.47658 0.38822 0.0
H1432 H 0.08499 0.5014 0.40437 0.0
O1433 O 0.0612 0.45271 0.31274 0.0
H1434 H 0.0401 0.36132 0.337 0.0
H1435 H 0.08199 0.4091 0.29281 0.0
H1436 H 0.05222 0.40117 0.43249 0.0
H1437 H 0.05931 0.56665 0.35412 0.0
H1438 H 0.06097 0.44867 0.45151 0.0
H1439 H 0.00659 0.5711 0.36855 0.0
O1440 O 0.10312 0.41491 0.37564 0.0
H1441 H 0.17082 0.4732 0.3065 0.0
H1442 H 0.12238 0.37251 0.32497 0.0
H1443 H 0.1768 0.37264 0.31326 0.0
H1444 H 0.20135 0.42326 0.30384 0.0
H1445 H 0.11665 0.47201 0.31864 0.0
H1446 H 0.06678 0.36566 0.27247 0.0
H1447 H 0.03803 0.31923 0.28464 0.0
O1448 O 0.08662 0.39025 0.35062 0.0
C1449 C 0.02113 0.42161 0.35824 0.0
C1450 C 0.03729 0.33729 0.3117 0.0
C1451 C 0.06086 0.3645 0.28662 0.0
N1452 N 0.06207 0.3877 0.3161 0.0
C1453 C 0.04613 0.3623 0.32288 0.0
C1454 C 0.06933 0.38908 0.2982 0.0
C1455 C 0.04475 0.33845 0.29346 0.0
C1456 C 0.0668 0.51895 0.36334 0.0
N1457 N 0.05479 0.49406 0.3728 0.0
C1458 C 0.04971 0.54703 0.36167 0.0
C1459 C 0.02011 0.54949 0.36975 0.0
C1460 C 0.00798 0.52397 0.37935 0.0
C1461 C 0.02573 0.49625 0.38071 0.0
C1462 C 0.07362 0.4782 0.4291 0.0
C1463 C 0.06371 0.42538 0.40786 0.0
C1464 C 0.07779 0.47939 0.41048 0.0
N1465 N 0.0726 0.45322 0.40009 0.0
C1466 C 0.05932 0.4233 0.42644 0.0
C1467 C 0.06427 0.44994 0.4371 0.0
C1468 C 0.10013 0.39015 0.36599 0.0
C1469 C 0.1604 0.45099 0.31056 0.0
C1470 C 0.13303 0.39466 0.32118 0.0
C1471 C 0.1638 0.39457 0.31442 0.0
C1472 C 0.17753 0.42297 0.3091 0.0
N1473 N 0.1164 0.42223 0.32264 0.0
C1474 C 0.12968 0.45015 0.31738 0.0
Co1475 Co 0.30321 0.34326 0.11775 0.0
Co1476 Co 0.34081 0.32976 0.07757 0.0
O1477 O 0.30515 0.34606 0.0915 0.0
C1478 C 0.28612 0.40917 0.12785 0.0
O1479 O 0.31059 0.40919 0.13869 0.0
C1480 C 0.28374 0.30577 0.05808 0.0
O1481 O 0.27054 0.29968 0.07367 0.0
O1482 O 0.33627 0.28737 0.08914 0.0
O1483 O 0.32565 0.30153 0.11764 0.0
H1484 H 0.44295 0.27111 0.06924 0.0
H1485 H 0.24403 0.35574 0.09762 0.0
O1486 O 0.28049 0.38504 0.11805 0.0
H1487 H 0.22558 0.25573 0.12988 0.0
H1488 H 0.24983 0.35294 0.17816 0.0
H1489 H 0.34858 0.32613 0.14644 0.0
H1490 H 0.27619 0.28387 0.13298 0.0
H1491 H 0.25281 0.35572 0.14507 0.0
O1492 O 0.31167 0.31682 0.05745 0.0
H1493 H 0.39796 0.29253 0.08646 0.0
H1494 H 0.35902 0.33138 0.03874 0.0
H1495 H 0.34662 0.32295 0.17953 0.0
H1496 H 0.19288 0.32865 0.09439 0.0
H1497 H 0.29697 0.33642 0.19561 0.0
H1498 H 0.18344 0.27818 0.11053 0.0
O1499 O 0.3448 0.36504 0.11987 0.0
H1500 H 0.30058 0.42823 0.04765 0.0
H1501 H 0.39503 0.37293 0.0701 0.0
H1502 H 0.40061 0.42583 0.05665 0.0
H1503 H 0.35314 0.45381 0.04524 0.0
H1504 H 0.29607 0.37543 0.0614 0.0
H1505 H 0.40343 0.31012 0.02099 0.0
H1506 H 0.44588 0.27986 0.03626 0.0
O1507 O 0.37125 0.34298 0.09689 0.0
C1508 C 0.33444 0.2812 0.10593 0.0
C1509 C 0.42464 0.28432 0.06244 0.0
C1510 C 0.40244 0.30618 0.03536 0.0
N1511 N 0.37598 0.31334 0.06365 0.0
C1512 C 0.39915 0.29657 0.07213 0.0
C1513 C 0.37729 0.31808 0.04548 0.0
C1514 C 0.42626 0.28921 0.04393 0.0
C1515 C 0.23997 0.33404 0.10489 0.0
N1516 N 0.26305 0.32153 0.11555 0.0
C1517 C 0.21101 0.31869 0.10292 0.0
C1518 C 0.20575 0.29034 0.11195 0.0
C1519 C 0.22941 0.27771 0.12278 0.0
C1520 C 0.25808 0.29369 0.12442 0.0
C1521 C 0.27159 0.34696 0.17131 0.0
C1522 C 0.32686 0.33194 0.15333 0.0
C1523 C 0.27341 0.34848 0.15257 0.0
N1524 N 0.30081 0.34097 0.14382 0.0
C1525 C 0.32591 0.33013 0.17207 0.0
C1526 C 0.29805 0.3377 0.18109 0.0
C1527 C 0.37044 0.35882 0.11156 0.0
C1528 C 0.32144 0.41627 0.05255 0.0
C1529 C 0.37426 0.38504 0.06532 0.0
C1530 C 0.37757 0.41495 0.05763 0.0
C1531 C 0.35093 0.43062 0.05122 0.0
N1532 N 0.34527 0.37107 0.06654 0.0
C1533 C 0.31905 0.38633 0.06032 0.0
Co1534 Co 0.42045 0.55067 0.87518 0.0
Co1535 Co 0.4335 0.59538 0.83754 0.0
O1536 O 0.41912 0.55671 0.84921 0.0
C1537 C 0.35559 0.5293 0.88285 0.0
O1538 O 0.35383 0.55277 0.89439 0.0
C1539 C 0.46701 0.54477 0.8172 0.0
O1540 O 0.4779 0.53444 0.83264 0.0
O1541 O 0.47524 0.59265 0.85 0.0
O1542 O 0.46009 0.57576 0.87729 0.0
H1543 H 0.4838 0.70277 0.83511 0.0
H1544 H 0.41398 0.49489 0.85129 0.0
O1545 O 0.3805 0.52547 0.87343 0.0
H1546 H 0.51271 0.4775 0.88489 0.0
H1547 H 0.4111 0.4869 0.93214 0.0
H1548 H 0.43159 0.59237 0.90662 0.0
H1549 H 0.48037 0.52501 0.89046 0.0
H1550 H 0.41036 0.49515 0.89931 0.0
O1551 O 0.44977 0.56945 0.81677 0.0
H1552 H 0.46516 0.65403 0.84982 0.0
H1553 H 0.43334 0.61828 0.79962 0.0
H1554 H 0.43266 0.58518 0.93951 0.0
H1555 H 0.44543 0.44688 0.84544 0.0
H1556 H 0.42237 0.53212 0.95248 0.0
H1557 H 0.49524 0.438 0.86227 0.0
O1558 O 0.39576 0.59018 0.87882 0.0
H1559 H 0.34111 0.55312 0.80271 0.0
H1560 H 0.38648 0.64707 0.83221 0.0
H1561 H 0.33444 0.65098 0.81758 0.0
H1562 H 0.31147 0.6038 0.80263 0.0
H1563 H 0.39294 0.55017 0.81766 0.0
H1564 H 0.45191 0.66652 0.78434 0.0
H1565 H 0.47721 0.70925 0.80213 0.0
O1566 O 0.41673 0.62201 0.85786 0.0
C1567 C 0.48022 0.58841 0.86676 0.0
C1568 C 0.47275 0.68435 0.82722 0.0
C1569 C 0.45488 0.66399 0.79872 0.0
N1570 N 0.44801 0.63343 0.82561 0.0
C1571 C 0.46208 0.65673 0.83548 0.0
C1572 C 0.4445 0.63669 0.80743 0.0
C1573 C 0.46907 0.68796 0.80871 0.0
C1574 C 0.43543 0.49101 0.85882 0.0
N1575 N 0.44517 0.51261 0.8713 0.0
C1576 C 0.45322 0.46386 0.85539 0.0
C1577 C 0.48119 0.45892 0.86481 0.0
C1578 C 0.49102 0.48108 0.8775 0.0
C1579 C 0.47264 0.50798 0.88056 0.0
C1580 C 0.41574 0.51011 0.92665 0.0
C1581 C 0.4273 0.56918 0.91215 0.0
C1582 C 0.4154 0.51492 0.90808 0.0
N1583 N 0.42127 0.54417 0.90104 0.0
C1584 C 0.42784 0.56526 0.93079 0.0
C1585 C 0.42205 0.53549 0.93806 0.0
C1586 C 0.40024 0.61748 0.87206 0.0
C1587 C 0.3509 0.57386 0.80914 0.0
C1588 C 0.37658 0.62639 0.82582 0.0
C1589 C 0.34714 0.62877 0.81751 0.0
C1590 C 0.33427 0.60229 0.80912 0.0
N1591 N 0.39281 0.59845 0.82572 0.0
C1592 C 0.38028 0.57236 0.81759 0.0
Co1593 Co 0.21145 0.6687 0.61853 0.0
Co1594 Co 0.16603 0.67549 0.58045 0.0
O1595 O 0.20457 0.66194 0.59278 0.0
C1596 C 0.22593 0.60046 0.61385 0.0
O1597 O 0.1999 0.59778 0.60441 0.0
C1598 C 0.21855 0.69944 0.55745 0.0
O1599 O 0.23266 0.70863 0.57226 0.0
O1600 O 0.17109 0.71952 0.58983 0.0
O1601 O 0.18911 0.71039 0.61772 0.0
H1602 H 0.0609 0.72981 0.57584 0.0
H1603 H 0.26626 0.65272 0.59544 0.0
O1604 O 0.23404 0.6272 0.62022 0.0
H1605 H 0.29093 0.75695 0.62159 0.0
H1606 H 0.27502 0.66572 0.67568 0.0
H1607 H 0.17182 0.69139 0.64883 0.0
H1608 H 0.24126 0.72978 0.62926 0.0
H1609 H 0.26602 0.65846 0.64317 0.0
O1610 O 0.1914 0.68656 0.5583 0.0
H1611 H 0.10943 0.71219 0.59114 0.0
H1612 H 0.14141 0.66813 0.54309 0.0
H1613 H 0.17988 0.69933 0.68136 0.0
H1614 H 0.31638 0.67889 0.58756 0.0
H1615 H 0.2318 0.68644 0.69499 0.0
H1616 H 0.32893 0.73145 0.60063 0.0
O1617 O 0.17093 0.64742 0.62438 0.0
H1618 H 0.20381 0.57453 0.55198 0.0
H1619 H 0.11254 0.62967 0.57875 0.0
H1620 H 0.10648 0.57482 0.56809 0.0
H1621 H 0.15232 0.54689 0.55455 0.0
H1622 H 0.20891 0.62929 0.56299 0.0
H1623 H 0.09338 0.68553 0.52722 0.0
H1624 H 0.05265 0.71649 0.54364 0.0
O1625 O 0.13942 0.66402 0.60205 0.0
C1626 C 0.17711 0.72855 0.60586 0.0
C1627 C 0.07844 0.71627 0.56855 0.0
C1628 C 0.09669 0.69145 0.54125 0.0
N1629 N 0.12812 0.68898 0.56805 0.0
C1630 C 0.10592 0.70616 0.57715 0.0
C1631 C 0.12388 0.68174 0.5503 0.0
C1632 C 0.07383 0.70881 0.55048 0.0
C1633 C 0.27172 0.67542 0.60133 0.0
N1634 N 0.2509 0.68965 0.61283 0.0
C1635 C 0.30006 0.6902 0.59676 0.0
C1636 C 0.30706 0.71971 0.60406 0.0
C1637 C 0.28573 0.73405 0.61581 0.0
C1638 C 0.25759 0.7186 0.62006 0.0
C1639 C 0.25233 0.67152 0.66989 0.0
C1640 C 0.19455 0.686 0.65463 0.0
C1641 C 0.24708 0.66742 0.65149 0.0
N1642 N 0.21853 0.67485 0.64407 0.0
C1643 C 0.19894 0.69042 0.67307 0.0
C1644 C 0.22807 0.68315 0.68072 0.0
C1645 C 0.14371 0.65092 0.61738 0.0
C1646 C 0.18364 0.58647 0.55781 0.0
C1647 C 0.13264 0.61765 0.57296 0.0
C1648 C 0.12903 0.58661 0.56689 0.0
C1649 C 0.15476 0.57096 0.55928 0.0
N1650 N 0.16103 0.63271 0.57146 0.0
C1651 C 0.18635 0.61753 0.564 0.0
Co1652 Co 0.09633 0.56441 0.14748 0.0
Co1653 Co 0.0895 0.5973 0.18963 0.0
O1654 O 0.10151 0.56277 0.17355 0.0
C1655 C 0.16362 0.54678 0.152 0.0
O1656 O 0.16613 0.57046 0.16334 0.0
C1657 C 0.05174 0.56484 0.21797 0.0
O1658 O 0.02992 0.58658 0.21582 0.0
O1659 O 0.04585 0.59769 0.1793 0.0
O1660 O 0.05522 0.58711 0.15012 0.0
H1661 H 0.0387 0.70106 0.20534 0.0
H1662 H 0.10894 0.50302 0.16527 0.0
O1663 O 0.13736 0.5413 0.14429 0.0
H1664 H 0.00713 0.48946 0.13416 0.0
H1665 H 0.1021 0.52001 0.08469 0.0
H1666 H 0.07547 0.61329 0.12154 0.0
H1667 H 0.03583 0.54003 0.13241 0.0
H1668 H 0.10759 0.51842 0.1177 0.0
O1669 O 0.07632 0.56488 0.208 0.0
H1670 H 0.05427 0.65721 0.1853 0.0
H1671 H 0.09938 0.61062 0.22882 0.0
H1672 H 0.06935 0.61584 0.0886 0.0
H1673 H 0.08115 0.45194 0.16725 0.0
H1674 H 0.08272 0.56894 0.06993 0.0
H1675 H 0.02985 0.44494 0.15163 0.0
O1676 O 0.11869 0.60575 0.14619 0.0
H1677 H 0.1866 0.5444 0.21408 0.0
H1678 H 0.13841 0.64633 0.19756 0.0
H1679 H 0.19304 0.6452 0.20885 0.0
H1680 H 0.21749 0.59394 0.21725 0.0
H1681 H 0.13218 0.5466 0.20248 0.0
H1682 H 0.08428 0.65395 0.24933 0.0
H1683 H 0.0537 0.69958 0.23761 0.0
O1684 O 0.10311 0.62993 0.17161 0.0
C1685 C 0.03709 0.5962 0.16287 0.0
C1686 C 0.05201 0.6813 0.21061 0.0
C1687 C 0.0776 0.65487 0.2353 0.0
N1688 N 0.07769 0.63137 0.20587 0.0
C1689 C 0.06089 0.6564 0.19933 0.0
C1690 C 0.0861 0.63041 0.22362 0.0
C1691 C 0.06044 0.68046 0.22871 0.0
C1692 C 0.08672 0.50008 0.15835 0.0
N1693 N 0.07413 0.5244 0.14865 0.0
C1694 C 0.07105 0.47114 0.15955 0.0
C1695 C 0.04225 0.46723 0.1508 0.0
C1696 C 0.02948 0.49221 0.14101 0.0
C1697 C 0.04581 0.52081 0.1401 0.0
C1698 C 0.09613 0.54057 0.09267 0.0
C1699 C 0.08112 0.59273 0.11353 0.0
C1700 C 0.09926 0.53984 0.11137 0.0
N1701 N 0.0916 0.56566 0.12154 0.0
C1702 C 0.07771 0.59434 0.09487 0.0
C1703 C 0.08525 0.56803 0.08441 0.0
C1704 C 0.11608 0.63029 0.15607 0.0
C1705 C 0.17619 0.5669 0.2105 0.0
C1706 C 0.14894 0.62394 0.20102 0.0
C1707 C 0.17985 0.62345 0.20751 0.0
C1708 C 0.19353 0.59469 0.21224 0.0
N1709 N 0.13206 0.59659 0.19933 0.0
C1710 C 0.14532 0.56831 0.204 0.0
Co1711 Co 0.20923 0.33315 0.89801 0.0
Co1712 Co 0.1613 0.32782 0.93521 0.0
O1713 O 0.20063 0.34046 0.92349 0.0
C1714 C 0.22258 0.4011 0.90268 0.0
O1715 O 0.19564 0.40343 0.91133 0.0
C1716 C 0.21208 0.30185 0.95833 0.0
O1717 O 0.22502 0.29109 0.94348 0.0
O1718 O 0.16585 0.28368 0.92602 0.0
O1719 O 0.1867 0.29173 0.89862 0.0
H1720 H 0.05491 0.27587 0.93861 0.0
H1721 H 0.26235 0.34929 0.92222 0.0
O1722 O 0.23181 0.37449 0.89664 0.0
H1723 H 0.28852 0.24442 0.8973 0.0
H1724 H 0.27691 0.3348 0.84231 0.0
H1725 H 0.17167 0.31038 0.86697 0.0
H1726 H 0.23961 0.27176 0.8883 0.0
H1727 H 0.26556 0.34267 0.87456 0.0
O1728 O 0.18572 0.31639 0.95761 0.0
H1729 H 0.10444 0.29228 0.92388 0.0
H1730 H 0.13528 0.33593 0.97222 0.0
H1731 H 0.18207 0.30182 0.83469 0.0
H1732 H 0.31168 0.32293 0.93144 0.0
H1733 H 0.23503 0.31407 0.82216 0.0
H1734 H 0.32497 0.27005 0.91899 0.0
O1735 O 0.16925 0.35445 0.8912 0.0
H1736 H 0.19929 0.42817 0.96416 0.0
H1737 H 0.10875 0.37484 0.93568 0.0
H1738 H 0.10311 0.42991 0.9461 0.0
H1739 H 0.14859 0.45693 0.96048 0.0
H1740 H 0.204 0.37321 0.9534 0.0
H1741 H 0.08622 0.31974 0.98754 0.0
H1742 H 0.04556 0.28961 0.97068 0.0
O1743 O 0.13601 0.33954 0.91316 0.0
C1744 C 0.17313 0.27421 0.91025 0.0
C1745 C 0.07241 0.28907 0.94609 0.0
C1746 C 0.09 0.31366 0.97356 0.0
N1747 N 0.1226 0.31523 0.94715 0.0
C1748 C 0.10046 0.29849 0.93781 0.0
C1749 C 0.11776 0.32269 0.96483 0.0
C1750 C 0.06719 0.29676 0.96408 0.0
C1751 C 0.26815 0.32644 0.91659 0.0
N1752 N 0.24819 0.31214 0.90469 0.0
C1753 C 0.29604 0.31156 0.92193 0.0
C1754 C 0.30345 0.28187 0.91497 0.0
C1755 C 0.28299 0.26746 0.90281 0.0
C1756 C 0.25528 0.28302 0.8978 0.0
C1757 C 0.25378 0.32924 0.84762 0.0
C1758 C 0.19486 0.31544 0.86166 0.0
C1759 C 0.24721 0.33368 0.86587 0.0
N1760 N 0.21811 0.32654 0.87269 0.0
C1761 C 0.20057 0.3107 0.84335 0.0
C1762 C 0.23028 0.31762 0.83632 0.0
C1763 C 0.14156 0.35185 0.89774 0.0
C1764 C 0.17927 0.41662 0.95797 0.0
C1765 C 0.12868 0.38645 0.94189 0.0
C1766 C 0.12532 0.41762 0.94779 0.0
C1767 C 0.15084 0.43276 0.95587 0.0
N1768 N 0.15664 0.37076 0.94401 0.0
C1769 C 0.18176 0.38544 0.95193 0.0
Co1770 Co 0.42128 0.45311 0.65209 0.0
Co1771 Co 0.42931 0.42057 0.69389 0.0
O1772 O 0.41652 0.45486 0.6781 0.0
C1773 C 0.35698 0.47266 0.64023 0.0
O1774 O 0.35574 0.44707 0.63022 0.0
C1775 C 0.46568 0.45463 0.72243 0.0
O1776 O 0.48831 0.43363 0.72057 0.0
O1777 O 0.4729 0.42146 0.68337 0.0
O1778 O 0.46157 0.42885 0.65416 0.0
H1779 H 0.48284 0.31804 0.709 0.0
H1780 H 0.4117 0.51485 0.67033 0.0
O1781 O 0.38106 0.47794 0.65006 0.0
H1782 H 0.51312 0.52455 0.63821 0.0
H1783 H 0.41792 0.49845 0.58946 0.0
H1784 H 0.43848 0.40328 0.6258 0.0
H1785 H 0.48232 0.47525 0.63649 0.0
H1786 H 0.41287 0.50014 0.62251 0.0
O1787 O 0.44135 0.45339 0.71235 0.0
H1788 H 0.46597 0.36156 0.68919 0.0
H1789 H 0.42018 0.40684 0.73308 0.0
H1790 H 0.44389 0.40054 0.59281 0.0
H1791 H 0.44158 0.56471 0.67224 0.0
H1792 H 0.43357 0.44838 0.57441 0.0
H1793 H 0.4927 0.56978 0.65611 0.0
O1794 O 0.3975 0.41247 0.65124 0.0
H1795 H 0.33055 0.47011 0.71876 0.0
H1796 H 0.38219 0.36992 0.70192 0.0
H1797 H 0.32777 0.3691 0.71363 0.0
H1798 H 0.30162 0.41947 0.72224 0.0
H1799 H 0.3848 0.46987 0.70675 0.0
H1800 H 0.43659 0.36383 0.75337 0.0
H1801 H 0.46815 0.31901 0.74135 0.0
O1802 O 0.41652 0.38777 0.67567 0.0
C1803 C 0.4806 0.42116 0.66673 0.0
C1804 C 0.46911 0.33744 0.7144 0.0
C1805 C 0.44314 0.36313 0.7393 0.0
N1806 N 0.44215 0.38674 0.70996 0.0
C1807 C 0.4595 0.36216 0.70325 0.0
C1808 C 0.43392 0.38742 0.72775 0.0
C1809 C 0.46085 0.338 0.73255 0.0
C1810 C 0.43378 0.51696 0.66314 0.0
N1811 N 0.44507 0.49225 0.65317 0.0
C1812 C 0.45066 0.54521 0.66433 0.0
C1813 C 0.47936 0.54803 0.6553 0.0
C1814 C 0.49084 0.52266 0.64526 0.0
C1815 C 0.47332 0.49477 0.64438 0.0
C1816 C 0.4225 0.47745 0.59733 0.0
C1817 C 0.434 0.4242 0.61789 0.0
C1818 C 0.41966 0.47826 0.61604 0.0
N1819 N 0.42542 0.45183 0.62608 0.0
C1820 C 0.43708 0.42251 0.59921 0.0
C1821 C 0.43128 0.44935 0.5889 0.0
C1822 C 0.40184 0.38759 0.66063 0.0
C1823 C 0.34171 0.448 0.71509 0.0
C1824 C 0.3709 0.39194 0.70545 0.0
C1825 C 0.34012 0.39132 0.71217 0.0
C1826 C 0.32548 0.41958 0.71702 0.0
N1827 N 0.38675 0.41988 0.70366 0.0
C1828 C 0.37248 0.4477 0.70833 0.0
Co1829 Co 0.29728 0.67647 0.39327 0.0
Co1830 Co 0.33637 0.67085 0.43385 0.0
O1831 O 0.29848 0.6653 0.41892 0.0
C1832 C 0.27199 0.61104 0.39383 0.0
O1833 O 0.2931 0.60384 0.40606 0.0
C1834 C 0.28391 0.69862 0.45607 0.0
O1835 O 0.27118 0.70976 0.4413 0.0
O1836 O 0.34005 0.71619 0.42651 0.0
O1837 O 0.32484 0.71383 0.3976 0.0
H1838 H 0.44742 0.70627 0.44609 0.0
H1839 H 0.23673 0.66523 0.41213 0.0
O1840 O 0.26997 0.63906 0.38777 0.0
H1841 H 0.23167 0.77569 0.3913 0.0
H1842 H 0.24504 0.69089 0.33303 0.0
H1843 H 0.34486 0.69846 0.36677 0.0
H1844 H 0.27835 0.74274 0.38476 0.0
H1845 H 0.24686 0.67757 0.36529 0.0
O1846 O 0.30982 0.68334 0.45531 0.0
H1847 H 0.39955 0.69885 0.42775 0.0
H1848 H 0.35323 0.65485 0.47178 0.0
H1849 H 0.34404 0.71221 0.33457 0.0
H1850 H 0.18939 0.69722 0.41877 0.0
H1851 H 0.29386 0.70846 0.31747 0.0
H1852 H 0.18673 0.75291 0.40838 0.0
O1853 O 0.3354 0.65044 0.38829 0.0
H1854 H 0.2786 0.57468 0.45579 0.0
H1855 H 0.38138 0.6166 0.43594 0.0
H1856 H 0.37694 0.56047 0.44435 0.0
H1857 H 0.32525 0.53917 0.45443 0.0
H1858 H 0.28403 0.63058 0.44699 0.0
H1859 H 0.40049 0.6621 0.49065 0.0
H1860 H 0.44808 0.68785 0.47779 0.0
O1861 O 0.36439 0.6579 0.41318 0.0
C1862 C 0.33775 0.728 0.41079 0.0
C1863 C 0.42686 0.69495 0.45184 0.0
C1864 C 0.4005 0.6702 0.47685 0.0
N1865 N 0.37368 0.67628 0.44864 0.0
C1866 C 0.39971 0.69062 0.4415 0.0
C1867 C 0.37377 0.66625 0.46611 0.0
C1868 C 0.4272 0.68463 0.46962 0.0
C1869 C 0.23557 0.68933 0.4074 0.0
N1870 N 0.26021 0.70207 0.39803 0.0
C1871 C 0.20878 0.70738 0.41127 0.0
C1872 C 0.20733 0.73864 0.40546 0.0
C1873 C 0.23255 0.75145 0.3959 0.0
C1874 C 0.25897 0.73271 0.39229 0.0
C1875 C 0.26704 0.69267 0.34035 0.0
C1876 C 0.32288 0.69694 0.35946 0.0
C1877 C 0.26822 0.68511 0.35861 0.0
N1878 N 0.29589 0.68743 0.36795 0.0
C1879 C 0.32259 0.70468 0.34121 0.0
C1880 C 0.29443 0.70254 0.33162 0.0
C1881 C 0.3613 0.64849 0.39691 0.0
C1882 C 0.30126 0.58369 0.45146 0.0
C1883 C 0.35877 0.60747 0.44015 0.0
C1884 C 0.35642 0.57569 0.44499 0.0
C1885 C 0.32743 0.56377 0.45066 0.0
N1886 N 0.333 0.62687 0.44096 0.0
C1887 C 0.30451 0.61536 0.44654 0.0
H1888 H 0.4626 0.02174 0.30048 0.0
H1889 H 0.43437 0.92833 0.28359 0.0
H1890 H 0.43488 0.94504 0.25229 0.0
H1891 H 0.44067 0.98674 0.22956 0.0
H1892 H 0.46714 0.08072 0.24627 0.0
H1893 H 0.47021 0.0632 0.27748 0.0
C1894 C 0.45682 1.00498 0.28994 0.0
C1895 C 0.44831 0.97382 0.29453 0.0
C1896 C 0.45677 0.01486 0.2718 0.0
C1897 C 0.44077 0.95252 0.2806 0.0
C1898 C 0.4411 0.96204 0.26261 0.0
C1899 C 0.4475 1.00332 0.23998 0.0
C1900 C 0.45363 0.03503 0.23546 0.0
C1901 C 0.44869 0.99323 0.25803 0.0
C1902 C 0.46218 0.05618 0.24927 0.0
C1903 C 0.46391 0.04619 0.26719 0.0
H1904 H 0.2299 0.19951 0.54848 0.0
H1905 H 0.32544 0.21452 0.53026 0.0
H1906 H 0.30729 0.2178 0.49923 0.0
H1907 H 0.2646 0.21304 0.4768 0.0
H1908 H 0.16928 0.19721 0.49523 0.0
H1909 H 0.18699 0.1978 0.5263 0.0
C1910 C 0.24671 0.20392 0.53776 0.0
C1911 C 0.27902 0.20653 0.5418 0.0
C1912 C 0.23618 0.20541 0.5198 0.0
C1913 C 0.30043 0.21213 0.52763 0.0
C1914 C 0.29008 0.21401 0.5098 0.0
C1915 C 0.24768 0.21004 0.48762 0.0
C1916 C 0.21568 0.20476 0.48354 0.0
C1917 C 0.25806 0.21013 0.50566 0.0
C1918 C 0.19413 0.20091 0.49782 0.0
C1919 C 0.20421 0.20131 0.5157 0.0
H1920 H 0.04457 0.06112 0.7751 0.0
H1921 H 0.04451 0.97037 0.80152 0.0
H1922 H 0.04509 0.94385 0.7723 0.0
H1923 H 0.04937 0.94632 0.7393 0.0
H1924 H 0.04911 0.037 0.71282 0.0
H1925 H 0.04471 0.06352 0.74197 0.0
C1926 C 0.04439 0.03553 0.77451 0.0
C1927 C 0.04473 0.01785 0.79061 0.0
C1928 C 0.04485 0.02036 0.75761 0.0
C1929 C 0.0442 0.98467 0.78945 0.0
C1930 C 0.0447 0.96945 0.7727 0.0
C1931 C 0.04812 0.9719 0.73985 0.0
C1932 C 0.04985 0.98959 0.72379 0.0
C1933 C 0.04561 0.98703 0.7567 0.0
C1934 C 0.04783 0.02271 0.72487 0.0
C1935 C 0.04543 0.03793 0.74158 0.0
H1936 H 0.3029 0.79658 0.98751 0.0
H1937 H 0.21321 0.81338 0.96177 0.0
H1938 H 0.18717 0.81442 0.99113 0.0
H1939 H 0.19039 0.8141 0.02423 0.0
H1940 H 0.2799 0.79622 0.04991 0.0
H1941 H 0.30541 0.79207 0.02047 0.0
C1942 C 0.27759 0.80017 0.98828 0.0
C1943 C 0.26012 0.80513 0.97238 0.0
C1944 C 0.26275 0.80081 1.00523 0.0
C1945 C 0.22729 0.80943 0.97371 0.0
C1946 C 0.21239 0.81022 0.99053 0.0
C1947 C 0.21546 0.80913 0.0234 0.0
C1948 C 0.23324 0.80576 0.03931 0.0
C1949 C 0.22996 0.80653 1.0064 0.0
C1950 C 0.26562 0.79893 0.03794 0.0
C1951 C 0.28026 0.79663 0.02108 0.0
H1952 H 0.54964 0.94526 0.77813 0.0
H1953 H 0.54886 0.03213 0.80858 0.0
H1954 H 0.54732 0.06258 0.78063 0.0
H1955 H 0.54998 0.06442 0.74757 0.0
H1956 H 0.54883 0.97754 0.71713 0.0
H1957 H 0.54706 0.94711 0.74508 0.0
C1958 C 0.54886 0.97087 0.77864 0.0
C1959 C 0.54968 0.98646 0.79539 0.0
C1960 C 0.54774 0.98816 0.76254 0.0
C1961 C 0.54822 0.0196 0.79587 0.0
C1962 C 0.54749 0.037 0.77989 0.0
C1963 C 0.54907 0.03882 0.74706 0.0
C1964 C 0.54985 0.02322 0.73031 0.0
C1965 C 0.54782 0.02153 0.76316 0.0
C1966 C 0.54821 0.99009 0.72984 0.0
C1967 C 0.54736 0.97269 0.74582 0.0
H1968 H 0.7763 0.80874 0.47188 0.0
H1969 H 0.67989 0.7997 0.48984 0.0
H1970 H 0.69739 0.79952 0.52113 0.0
H1971 H 0.73998 0.80434 0.54366 0.0
H1972 H 0.83606 0.81585 0.52551 0.0
H1973 H 0.81883 0.8126 0.4943 0.0
C1974 C 0.75913 0.80636 0.48262 0.0
C1975 C 0.72679 0.80415 0.47841 0.0
C1976 C 0.76931 0.80693 0.50068 0.0
C1977 C 0.70492 0.80148 0.4926 0.0
C1978 C 0.71491 0.8014 0.51055 0.0
C1979 C 0.75718 0.80589 0.53288 0.0
C1980 C 0.78932 0.81038 0.53705 0.0
C1981 C 0.74703 0.80449 0.5148 0.0
C1982 C 0.81117 0.81257 0.52281 0.0
C1983 C 0.80134 0.81067 0.50489 0.0
H1984 H 0.95466 0.07219 0.26708 0.0
H1985 H 0.96959 0.98382 0.29469 0.0
H1986 H 0.97357 0.95632 0.26581 0.0
H1987 H 0.9691 0.95686 0.23284 0.0
H1988 H 0.95503 0.04531 0.20516 0.0
H1989 H 0.95487 0.07338 0.23396 0.0
C1990 C 0.959 0.04694 0.26679 0.0
C1991 C 0.96151 0.03003 0.28306 0.0
C1992 C 0.96141 0.03131 0.25013 0.0
C1993 C 0.96757 0.9974 0.28241 0.0
C1994 C 0.96973 0.98165 0.26589 0.0
C1995 C 0.96631 0.98234 0.23307 0.0
C1996 C 0.96181 0.99892 0.21683 0.0
C1997 C 0.96616 0.99828 0.24968 0.0
C1998 C 0.95861 0.03196 0.21741 0.0
C1999 C 0.95831 0.04799 0.2339 0.0
H2000 H 0.82031 0.20177 0.99332 0.0
H2001 H 0.73172 0.21438 0.96567 0.0
H2002 H 0.70382 0.21571 0.99441 0.0
H2003 H 0.7041 0.21133 0.02741 0.0
H2004 H 0.79267 0.20127 0.05535 0.0
H2005 H 0.82093 0.20119 0.02662 0.0
C2006 C 0.79491 0.20497 0.99359 0.0
C2007 C 0.77817 0.20781 0.97728 0.0
C2008 C 0.77895 0.20617 0.01027 0.0
C2009 C 0.74529 0.21222 0.97794 0.0
C2010 C 0.72925 0.21289 0.99441 0.0
C2011 C 0.72962 0.20932 0.02724 0.0
C2012 C 0.74617 0.20614 0.04358 0.0
C2013 C 0.74577 0.20962 0.01065 0.0
C2014 C 0.77928 0.20386 0.04304 0.0
C2015 C 0.79547 0.20366 0.02658 0.0
H2016 H 0.96587 0.55912 0.73885 0.0
H2017 H 0.96067 0.47076 0.70995 0.0
H2018 H 0.96243 0.44178 0.73834 0.0
H2019 H 0.9622 0.44146 0.77153 0.0
H2020 H 0.96854 0.52975 0.80041 0.0
H2021 H 0.96978 0.5586 0.77196 0.0
C2022 C 0.9654 0.5335 0.73872 0.0
C2023 C 0.96295 0.51725 0.72217 0.0
C2024 C 0.96649 0.51688 0.75516 0.0
C2025 C 0.96261 0.48401 0.72238 0.0
C2026 C 0.96348 0.46736 0.73866 0.0
C2027 C 0.96413 0.467 0.77163 0.0
C2028 C 0.96509 0.48332 0.78821 0.0
C2029 C 0.96493 0.48354 0.75516 0.0
C2030 C 0.96783 0.51645 0.78796 0.0
C2031 C 0.9684 0.53303 0.77165 0.0
H2032 H 0.80737 0.70427 0.0309 0.0
H2033 H 0.71768 0.69499 0.05787 0.0
H2034 H 0.69043 0.69703 0.02882 0.0
H2035 H 0.6925 0.69857 0.99562 0.0
H2036 H 0.78228 0.71024 0.96898 0.0
H2037 H 0.8091 0.71029 0.99807 0.0
C2038 C 0.78182 0.70287 0.03044 0.0
C2039 C 0.76457 0.69916 0.04652 0.0
C2040 C 0.76638 0.7044 0.01375 0.0
C2041 C 0.73148 0.69787 0.04571 0.0
C2042 C 0.71593 0.6989 0.02909 0.0
C2043 C 0.71793 0.70134 0.99619 0.0
C2044 C 0.7354 0.70416 0.98012 0.0
C2045 C 0.73318 0.70171 0.01301 0.0
C2046 C 0.76827 0.70809 0.98111 0.0
C2047 C 0.78363 0.708 0.99775 0.0
H2048 H 0.55279 0.56764 0.27863 0.0
H2049 H 0.54142 0.47773 0.30515 0.0
H2050 H 0.54083 0.45092 0.27603 0.0
H2051 H 0.54595 0.45253 0.24302 0.0
H2052 H 0.55526 0.54248 0.21631 0.0
H2053 H 0.55402 0.56959 0.2454 0.0
C2054 C 0.54995 0.5422 0.27804 0.0
C2055 C 0.54729 0.52479 0.29416 0.0
C2056 C 0.54934 0.52685 0.26117 0.0
C2057 C 0.54341 0.49183 0.29305 0.0
C2058 C 0.5432 0.47641 0.27637 0.0
C2059 C 0.54752 0.4781 0.24353 0.0
C2060 C 0.5509 0.49537 0.22741 0.0
C2061 C 0.54651 0.49361 0.26033 0.0
C2062 C 0.55257 0.52852 0.22841 0.0
C2063 C 0.552 0.54406 0.24509 0.0
H2064 H 0.69909 0.29944 0.53135 0.0
H2065 H 0.78873 0.29909 0.55879 0.0
H2066 H 0.81619 0.29419 0.5299 0.0
H2067 H 0.81471 0.29331 0.49676 0.0
H2068 H 0.72489 0.29199 0.46947 0.0
H2069 H 0.69749 0.29396 0.49843 0.0
C2070 C 0.72465 0.29811 0.53103 0.0
C2071 C 0.74187 0.29996 0.54721 0.0
C2072 C 0.74021 0.29504 0.5144 0.0
C2073 C 0.77492 0.29771 0.54656 0.0
C2074 C 0.79062 0.29504 0.53003 0.0
C2075 C 0.78912 0.29319 0.49714 0.0
C2076 C 0.77187 0.29276 0.48093 0.0
C2077 C 0.77352 0.29417 0.51386 0.0
C2078 C 0.73875 0.29224 0.4817 0.0
C2079 C 0.72306 0.29353 0.49827 0.0
H2080 H 0.07256 0.46756 0.281 0.0
H2081 H 0.00559 0.52889 0.30755 0.0
H2082 H 1.00049 0.56017 0.28002 0.0
H2083 H 0.01669 0.57126 0.24868 0.0
H2084 H 0.08514 0.51055 0.22293 0.0
H2085 H 0.08769 0.47772 0.24984 0.0
C2086 C 0.05667 0.48767 0.28082 0.0
C2087 C 0.03949 0.4958 0.29642 0.0
C2088 C 0.05406 0.50566 0.26503 0.0
C2089 C 0.01916 0.52206 0.29581 0.0
C2090 C 0.0162 0.53996 0.28004 0.0
C2091 C 0.03183 0.55059 0.24887 0.0
C2092 C 0.05061 0.54334 0.23373 0.0
C2093 C 0.0337 0.5321 0.26459 0.0
C2094 C 0.07043 0.5167 0.23434 0.0
C2095 C 0.07197 0.49794 0.24975 0.0
H2096 H 0.30666 0.29864 0.02409 0.0
H2097 H 0.2196 0.30601 0.05393 0.0
H2098 H 0.18959 0.30531 0.02582 0.0
H2099 H 0.18821 0.30471 0.99253 0.0
H2100 H 0.27534 0.29423 0.96301 0.0
H2101 H 0.30504 0.29398 0.99112 0.0
C2102 C 0.28109 0.2999 0.02446 0.0
C2103 C 0.26544 0.30255 0.04112 0.0
C2104 C 0.26395 0.29904 1.00824 0.0
C2105 C 0.23228 0.30384 0.04133 0.0
C2106 C 0.21509 0.30359 0.02523 0.0
C2107 C 0.21368 0.30221 0.99228 0.0
C2108 C 0.22949 0.29965 0.97564 0.0
C2109 C 0.23068 0.30153 1.00858 0.0
C2110 C 0.2625 0.29613 0.97557 0.0
C2111 C 0.27956 0.29609 0.99167 0.0
H2112 H 0.44006 0.5539 0.78433 0.0
H2113 H 0.50675 0.49438 0.81217 0.0
H2114 H 0.51416 0.46281 0.78492 0.0
H2115 H 0.49965 0.45034 0.75356 0.0
H2116 H 0.43096 0.50847 0.72639 0.0
H2117 H 0.42664 0.54236 0.75289 0.0
C2118 C 0.45645 0.53419 0.78443 0.0
C2119 C 0.47284 0.52662 0.80035 0.0
C2120 C 0.46023 0.51579 0.76878 0.0
C2121 C 0.49378 0.50081 0.80017 0.0
C2122 C 0.49804 0.4827 0.78456 0.0
C2123 C 0.48409 0.4707 0.75334 0.0
C2124 C 0.46575 0.47687 0.73794 0.0
C2125 C 0.48115 0.48975 0.76883 0.0
C2126 C 0.44535 0.50312 0.73803 0.0
C2127 C 0.44281 0.52251 0.75321 0.0
H2128 H 0.19285 0.70289 0.5238 0.0
H2129 H 0.28205 0.7002 0.55163 0.0
H2130 H 0.31012 0.6998 0.52288 0.0
H2131 H 0.30942 0.69848 0.48971 0.0
H2132 H 0.22053 0.70505 0.46179 0.0
H2133 H 0.19236 0.70586 0.49056 0.0
C2134 C 0.21844 0.70239 0.52355 0.0
C2135 C 0.23529 0.70141 0.53988 0.0
C2136 C 0.23452 0.70282 0.50691 0.0
C2137 C 0.26846 0.70109 0.53931 0.0
C2138 C 0.28456 0.70073 0.52285 0.0
C2139 C 0.28388 0.70026 0.48993 0.0
C2140 C 0.26711 0.70151 0.47359 0.0
C2141 C 0.26785 0.70134 0.50655 0.0
C2142 C 0.23405 0.70416 0.47414 0.0
C2143 C 0.2179 0.70449 0.4906 0.0
H2144 H 0.35194 0.99865 0.13298 0.0
H2145 H 0.29767 0.04235 0.17546 0.0
H2146 H 0.25434 0.00546 0.1699 0.0
H2147 H 0.2327 0.95953 0.15372 0.0
H2148 H 0.28724 0.91615 0.11122 0.0
H2149 H 0.32944 0.95442 0.11597 0.0
C2150 C 0.33063 1.0002 0.14103 0.0
C2151 C 0.3282 0.02318 0.15471 0.0
C2152 C 0.30579 0.97899 0.13773 0.0
C2153 C 0.30025 0.02493 0.16486 0.0
C2154 C 0.27545 1.0038 0.1617 0.0
C2155 C 0.25368 0.95857 0.14537 0.0
C2156 C 0.25671 0.93483 0.13215 0.0
C2157 C 0.27805 0.98058 0.14825 0.0
C2158 C 0.28414 0.93409 0.12148 0.0
C2159 C 0.3084 0.95593 0.12423 0.0
H2160 H 0.27225 0.07857 0.42292 0.0
H2161 H 0.22215 0.08491 0.37266 0.0
H2162 H 0.25765 0.04573 0.35921 0.0
H2163 H 0.30473 0.01118 0.3614 0.0
H2164 H 0.35762 0.00956 0.4109 0.0
H2165 H 0.31951 0.04513 0.42493 0.0
C2166 C 0.2689 0.07102 0.4091 0.0
C2167 C 0.24444 0.08427 0.39886 0.0
C2168 C 0.29015 0.04945 0.40126 0.0
C2169 C 0.24077 0.07487 0.38083 0.0
C2170 C 0.26109 0.05253 0.37313 0.0
C2171 C 0.3077 0.01855 0.37527 0.0
C2172 C 0.33391 0.00778 0.38508 0.0
C2173 C 0.28613 0.03989 0.38314 0.0
C2174 C 0.33775 0.01773 0.40301 0.0
C2175 C 0.31591 0.038 0.41108 0.0
H2176 H 0.18587 0.99527 0.62248 0.0
H2177 H 0.19778 0.01352 0.67912 0.0
H2178 H 0.23736 0.05402 0.67236 0.0
H2179 H 0.26719 0.08567 0.65018 0.0
H2180 H 0.25902 0.06375 0.59374 0.0
H2181 H 0.21955 0.02318 0.60051 0.0
C2182 C 0.19733 0.008 0.63333 0.0
C2183 C 0.18878 1.00163 0.65127 0.0
C2184 C 0.22067 0.03061 0.62935 0.0
C2185 C 0.20404 0.01797 0.66522 0.0
C2186 C 0.22657 0.0412 0.66135 0.0
C2187 C 0.25687 0.07183 0.6394 0.0
C2188 C 0.26577 0.07783 0.62146 0.0
C2189 C 0.23485 0.04794 0.64345 0.0
C2190 C 0.25258 0.0595 0.60763 0.0
C2191 C 0.22993 0.0364 0.6115 0.0
H2192 H 0.17167 0.01371 0.8946 0.0
H2193 H 0.1923 1.00022 0.83832 0.0
H2194 H 0.23383 0.96213 0.84599 0.0
H2195 H 0.2624 0.93086 0.86876 0.0
H2196 H 0.24503 0.94795 0.92508 0.0
H2197 H 0.2042 0.98675 0.91742 0.0
C2198 C 0.18545 1.00252 0.88405 0.0
C2199 C 0.17882 0.00936 0.86592 0.0
C2200 C 0.20977 0.9814 0.88859 0.0
C2201 C 0.19705 0.99523 0.85235 0.0
C2202 C 0.22068 0.97343 0.85674 0.0
C2203 C 0.24983 0.94335 0.87933 0.0
C2204 C 0.25642 0.93647 0.89746 0.0
C2205 C 0.22697 0.96607 0.8748 0.0
C2206 C 0.24035 0.95298 0.91105 0.0
C2207 C 0.21694 0.975 0.90667 0.0
H2208 H 0.77737 0.05472 0.86609 0.0
H2209 H 0.72566 0.09834 0.90966 0.0
H2210 H 0.68483 0.05801 0.9072 0.0
H2211 H 0.6623 0.01226 0.89167 0.0
H2212 H 0.71348 0.96847 0.848 0.0
H2213 H 0.75608 0.00693 0.85159 0.0
C2214 C 0.75733 0.05528 0.87516 0.0
C2215 C 0.75459 0.07971 0.88798 0.0
C2216 C 0.73373 0.03208 0.8736 0.0
C2217 C 0.72845 0.07991 0.89965 0.0
C2218 C 0.70499 0.05688 0.89822 0.0
C2219 C 0.68282 0.01097 0.88297 0.0
C2220 C 0.68456 0.9876 0.8695 0.0
C2221 C 0.70714 0.03317 0.88507 0.0
C2222 C 0.7115 0.98619 0.85847 0.0
C2223 C 0.73584 0.00823 0.86049 0.0
H2224 H 0.70932 0.03847 0.62029 0.0
H2225 H 0.6613 0.98426 0.66117 0.0
H2226 H 0.69709 0.9401 0.65608 0.0
H2227 H 0.74053 0.91581 0.63929 0.0
H2228 H 0.78952 0.96955 0.59867 0.0
H2229 H 0.75488 0.01482 0.60441 0.0
C2230 C 0.70686 0.01713 0.62822 0.0
C2231 C 0.68245 0.01481 0.64106 0.0
C2232 C 0.72756 0.99156 0.62518 0.0
C2233 C 0.67974 0.98686 0.65118 0.0
C2234 C 0.70017 0.96146 0.64825 0.0
C2235 C 0.74368 0.9374 0.63166 0.0
C2236 C 0.76747 0.93914 0.61846 0.0
C2237 C 0.72387 0.96337 0.63512 0.0
C2238 C 0.77139 0.9675 0.60889 0.0
C2239 C 0.75156 0.99341 0.61216 0.0
H2240 H 0.77396 0.91075 0.37796 0.0
H2241 H 0.72825 0.96359 0.42032 0.0
H2242 H 0.76189 0.0092 0.41381 0.0
H2243 H 0.80538 0.03341 0.39661 0.0
H2244 H 0.85023 0.98016 0.35404 0.0
H2245 H 0.81549 0.93553 0.36001 0.0
C2246 C 0.77136 0.93219 0.38583 0.0
C2247 C 0.74879 0.93362 0.39973 0.0
C2248 C 0.7905 0.95834 0.3819 0.0
C2249 C 0.74548 0.9618 0.40959 0.0
C2250 C 0.7647 0.98789 0.40586 0.0
C2251 C 0.80737 0.01218 0.38851 0.0
C2252 C 0.83053 0.01023 0.37492 0.0
C2253 C 0.78739 0.98638 0.39209 0.0
C2254 C 0.83269 0.98244 0.36458 0.0
C2255 C 0.8129 0.95679 0.36803 0.0
H2256 H 0.74556 0.08702 0.14934 0.0
H2257 H 0.74794 0.06293 0.09299 0.0
H2258 H 0.78631 0.02095 0.09906 0.0
H2259 H 0.82131 0.99304 0.12024 0.0
H2260 H 0.81561 0.01396 0.17691 0.0
H2261 H 0.77617 0.05504 0.17097 0.0
C2262 C 0.75434 0.07236 0.13844 0.0
C2263 C 0.74424 0.07817 0.12072 0.0
C2264 C 0.77576 0.04777 0.14211 0.0
C2265 C 0.75538 0.05883 0.10673 0.0
C2266 C 0.77739 0.03493 0.11019 0.0
C2267 C 0.81112 0.00639 0.13129 0.0
C2268 C 0.82143 1.00069 0.14898 0.0
C2269 C 0.78803 0.02946 0.12779 0.0
C2270 C 0.8079 0.01786 0.16321 0.0
C2271 C 0.78552 0.04145 0.15979 0.0
H2272 H 0.74569 0.42824 0.65198 0.0
H2273 H 0.75158 0.45099 0.59558 0.0
H2274 H 0.79077 0.49197 0.60209 0.0
H2275 H 0.82532 0.51945 0.62373 0.0
H2276 H 0.81602 0.50012 0.68038 0.0
H2277 H 0.77601 0.45983 0.67396 0.0
C2278 C 0.75541 0.4424 0.64116 0.0
C2279 C 0.74603 0.4365 0.6233 0.0
C2280 C 0.7773 0.46643 0.64507 0.0
C2281 C 0.75842 0.45519 0.60941 0.0
C2282 C 0.7809 0.4785 0.61313 0.0
C2283 C 0.81427 0.50658 0.63466 0.0
C2284 C 0.8237 0.51249 0.65249 0.0
C2285 C 0.7908 0.48406 0.63088 0.0
C2286 C 0.80903 0.496 0.66657 0.0
C2287 C 0.78629 0.47289 0.66288 0.0
H2288 H 0.85122 0.51551 0.88446 0.0
H2289 H 0.79839 0.47691 0.83996 0.0
H2290 H 0.75573 0.51463 0.84578 0.0
H2291 H 0.73431 0.55968 0.86292 0.0
H2292 H 0.78754 0.59786 0.90741 0.0
H2293 H 0.82905 0.55889 0.90223 0.0
C2294 C 0.83041 0.51528 0.87599 0.0
C2295 C 0.82815 0.4935 0.86169 0.0
C2296 C 0.80598 0.5369 0.87945 0.0
C2297 C 0.8008 0.49341 0.85103 0.0
C2298 C 0.7764 0.515 0.85435 0.0
C2299 C 0.75485 0.55936 0.87159 0.0
C2300 C 0.75775 0.58181 0.88552 0.0
C2301 C 0.77883 0.53698 0.86846 0.0
C2302 C 0.78459 0.58093 0.89661 0.0
C2303 C 0.80844 0.5587 0.89362 0.0
H2304 H 0.74525 0.55973 0.10551 0.0
H2305 H 0.77575 0.58792 0.15843 0.0
H2306 H 0.73931 0.55012 0.1721 0.0
H2307 H 0.69617 0.51118 0.16907 0.0
H2308 H 0.66218 0.48732 0.11614 0.0
H2309 H 0.70238 0.52091 0.10247 0.0
C2310 C 0.7442 0.55721 0.12002 0.0
C2311 C 0.7633 0.57638 0.13094 0.0
C2312 C 0.72231 0.53628 0.12781 0.0
C2313 C 0.76127 0.57336 0.14974 0.0
C2314 C 0.74041 0.55178 0.15757 0.0
C2315 C 0.6979 0.51312 0.15456 0.0
C2316 C 0.67635 0.49674 0.14364 0.0
C2317 C 0.72044 0.53342 0.14676 0.0
C2318 C 0.67847 0.4998 0.12484 0.0
C2319 C 0.70146 0.51899 0.117 0.0
H2320 H 0.78245 0.44834 0.36936 0.0
H2321 H 0.73027 0.40424 0.41249 0.0
H2322 H 0.68647 0.4405 0.4076 0.0
H2323 H 0.66188 0.48293 0.39036 0.0
H2324 H 0.71342 0.52793 0.34737 0.0
H2325 H 0.75854 0.49304 0.35294 0.0
C2326 C 0.76166 0.44688 0.37783 0.0
C2327 C 0.75973 0.42342 0.39124 0.0
C2328 C 0.73629 0.46774 0.37487 0.0
C2329 C 0.73252 0.42194 0.40206 0.0
C2330 C 0.70733 0.44262 0.39924 0.0
C2331 C 0.68293 0.48515 0.38215 0.0
C2332 C 0.68412 0.50783 0.36833 0.0
C2333 C 0.70876 0.46525 0.38552 0.0
C2334 C 0.71183 0.51062 0.35805 0.0
C2335 C 0.73763 0.49067 0.36124 0.0
H2336 H 0.17991 0.52071 0.35125 0.0
H2337 H 0.16572 0.48354 0.40454 0.0
H2338 H 0.20607 0.51927 0.41646 0.0
H2339 H 0.24358 0.56313 0.41193 0.0
H2340 H 0.25261 0.60477 0.35931 0.0
H2341 H 0.21631 0.56553 0.34688 0.0
C2342 C 0.18606 0.52028 0.36541 0.0
C2343 C 0.17038 0.4994 0.377 0.0
C2344 C 0.2082 0.54189 0.37228 0.0
C2345 C 0.17779 0.4994 0.3954 0.0
C2346 C 0.20076 0.51983 0.40221 0.0
C2347 C 0.23772 0.56334 0.39773 0.0
C2348 C 0.2508 0.58656 0.38651 0.0
C2349 C 0.21586 0.54147 0.39082 0.0
C2350 C 0.24272 0.58706 0.36819 0.0
C2351 C 0.22202 0.56463 0.36108 0.0
H2352 H 0.28559 0.4604 0.15035 0.0
H2353 H 0.23286 0.41589 0.1076 0.0
H2354 H 0.19109 0.45507 0.11092 0.0
H2355 H 0.1681 0.50022 0.12689 0.0
H2356 H 0.2202 0.54493 0.16978 0.0
H2357 H 0.26358 0.50752 0.1654 0.0
C2358 C 0.26513 0.45944 0.14163 0.0
C2359 C 0.26243 0.43504 0.1288 0.0
C2360 C 0.24092 0.48199 0.1437 0.0
C2361 C 0.23565 0.43426 0.11763 0.0
C2362 C 0.21164 0.45665 0.11954 0.0
C2363 C 0.18899 0.50192 0.13525 0.0
C2364 C 0.19076 0.5253 0.14871 0.0
C2365 C 0.2138 0.48032 0.1327 0.0
C2366 C 0.21815 0.52721 0.15931 0.0
C2367 C 0.24297 0.50576 0.15684 0.0
H2368 H 0.30162 0.5274 0.90282 0.0
H2369 H 0.35451 0.47509 0.86294 0.0
H2370 H 0.31735 0.43139 0.86523 0.0
H2371 H 0.27183 0.40676 0.87971 0.0
H2372 H 0.21857 0.4585 0.91959 0.0
H2373 H 0.25394 0.50377 0.91609 0.0
C2374 C 0.30487 0.50658 0.89449 0.0
C2375 C 0.33098 0.5045 0.88281 0.0
C2376 C 0.28351 0.48134 0.89597 0.0
C2377 C 0.33471 0.47736 0.87208 0.0
C2378 C 0.31352 0.45227 0.87341 0.0
C2379 C 0.26788 0.42795 0.88763 0.0
C2380 C 0.24279 0.42916 0.90002 0.0
C2381 C 0.2882 0.45379 0.88553 0.0
C2382 C 0.23775 0.45695 0.90999 0.0
C2383 C 0.25799 0.48281 0.90801 0.0
H2384 H 0.30587 0.47409 0.61765 0.0
H2385 H 0.35346 0.52801 0.65886 0.0
H2386 H 0.31691 0.57163 0.65448 0.0
H2387 H 0.27306 0.59561 0.63825 0.0
H2388 H 0.22446 0.54255 0.59717 0.0
H2389 H 0.2597 0.49752 0.60226 0.0
C2390 C 0.30806 0.49526 0.62579 0.0
C2391 C 0.33259 0.4977 0.6385 0.0
C2392 C 0.28691 0.52055 0.62316 0.0
C2393 C 0.33499 0.52538 0.64892 0.0
C2394 C 0.3141 0.55046 0.64642 0.0
C2395 C 0.27009 0.57421 0.63039 0.0
C2396 C 0.24629 0.57258 0.61725 0.0
C2397 C 0.29028 0.54848 0.63342 0.0
C2398 C 0.2426 0.54447 0.60736 0.0
C2399 C 0.26279 0.51873 0.61025 0.0
H2400 H 0.37951 0.14166 0.12443 0.0
H2401 H 0.39537 0.18701 0.17576 0.0
H2402 H 0.37459 0.2362 0.16416 0.0
H2403 H 0.35308 0.2671 0.13967 0.0
H2404 H 0.34051 0.22499 0.08731 0.0
H2405 H 0.35901 0.17402 0.09906 0.0
C2406 C 0.37824 0.16225 0.1331 0.0
C2407 C 0.38855 0.16017 0.15112 0.0
C2408 C 0.367 0.1912 0.12615 0.0
C2409 C 0.38721 0.18741 0.16199 0.0
C2410 C 0.37542 0.21579 0.15534 0.0
C2411 C 0.35408 0.2468 0.13077 0.0
C2412 C 0.34506 0.24988 0.11266 0.0
C2413 C 0.36533 0.21798 0.13748 0.0
C2414 C 0.3472 0.22331 0.10133 0.0
C2415 C 0.35777 0.19415 0.10805 0.0
H2416 H 0.1162 0.13315 0.36947 0.0
H2417 H 0.06798 0.15321 0.41952 0.0
H2418 H 0.01871 0.13542 0.40682 0.0
H2419 H 0.98875 0.11448 0.38196 0.0
H2420 H 0.03345 0.09707 0.3308 0.0
H2421 H 0.08444 0.11404 0.34336 0.0
C2422 C 0.09494 0.13348 0.37759 0.0
C2423 C 0.09626 0.14388 0.39563 0.0
C2424 C 0.06593 0.12395 0.36998 0.0
C2425 C 0.0682 0.14475 0.40579 0.0
C2426 C 0.03975 0.13474 0.3985 0.0
C2427 C 0.00963 0.11417 0.37351 0.0
C2428 C 0.00742 0.10409 0.35557 0.0
C2429 C 0.03836 0.12425 0.3807 0.0
C2430 C 0.03459 0.10466 0.3447 0.0
C2431 C 0.06371 0.11425 0.35191 0.0
H2432 H 0.13831 0.87149 0.62031 0.0
H2433 H 0.12898 0.83377 0.674 0.0
H2434 H 0.14767 0.78276 0.66375 0.0
H2435 H 0.16444 0.74788 0.63968 0.0
H2436 H 0.16913 0.78203 0.58514 0.0
H2437 H 0.15403 0.83513 0.5955 0.0
C2438 C 0.14061 0.85219 0.62978 0.0
C2439 C 0.13267 0.85692 0.64804 0.0
C2440 C 0.1502 0.82207 0.6236 0.0
C2441 C 0.13534 0.83132 0.66 0.0
C2442 C 0.14586 0.80188 0.65411 0.0
C2443 C 0.16245 0.76691 0.63 0.0
C2444 C 0.1682 0.76098 0.61167 0.0
C2445 C 0.15308 0.79692 0.63596 0.0
C2446 C 0.16485 0.78593 0.59934 0.0
C2447 C 0.15629 0.81629 0.60527 0.0
H2448 H 0.50966 0.90382 0.89125 0.0
H2449 H 0.47748 0.91151 0.8364 0.0
H2450 H 0.42359 0.89869 0.84606 0.0
H2451 H 0.38587 0.88438 0.8703 0.0
H2452 H 0.421 0.87284 0.92442 0.0
H2453 H 0.47321 0.88881 0.91484 0.0
C2454 C 0.49093 0.90287 0.88134 0.0
C2455 C 0.49765 0.90876 0.86313 0.0
C2456 C 0.46036 0.89506 0.88691 0.0
C2457 C 0.47301 0.90699 0.85051 0.0
C2458 C 0.44217 0.89977 0.85604 0.0
C2459 C 0.40488 0.88561 0.88001 0.0
C2460 C 0.39915 0.87776 0.89816 0.0
C2461 C 0.43556 0.89369 0.87425 0.0
C2462 C 0.42432 0.87912 0.91046 0.0
C2463 C 0.45441 0.88806 0.90497 0.0
H2464 H 0.32721 0.78905 0.42192 0.0
H2465 H 0.38716 0.73082 0.3887 0.0
H2466 H 0.4125 0.77767 0.37627 0.0
H2467 H 0.41479 0.83461 0.37299 0.0
H2468 H 0.35495 0.89457 0.40534 0.0
H2469 H 0.33255 0.84781 0.42009 0.0
C2470 C 0.34631 0.78685 0.41228 0.0
C2471 C 0.35558 0.75671 0.40626 0.0
C2472 C 0.36045 0.81412 0.40488 0.0
C2473 C 0.3799 0.7539 0.39354 0.0
C2474 C 0.39425 0.78063 0.38637 0.0
C2475 C 0.39689 0.83761 0.38329 0.0
C2476 C 0.38624 0.86807 0.38784 0.0
C2477 C 0.3842 0.8108 0.39161 0.0
C2478 C 0.36346 0.87138 0.4015 0.0
C2479 C 0.35062 0.84463 0.40992 0.0
H2480 H 0.3908 0.13083 0.6512 0.0
H2481 H 0.43137 0.14362 0.59834 0.0
H2482 H 0.48204 0.12567 0.60911 0.0
H2483 H 0.51571 0.10787 0.63329 0.0
H2484 H 0.4785 0.09845 0.68704 0.0
H2485 H 0.42598 0.11389 0.67622 0.0
C2486 C 0.41067 0.12941 0.64202 0.0
C2487 C 0.40679 0.13803 0.62383 0.0
C2488 C 0.44056 0.11998 0.64849 0.0
C2489 C 0.43311 0.13662 0.61227 0.0
C2490 C 0.46238 0.12653 0.61845 0.0
C2491 C 0.49617 0.10898 0.6427 0.0
C2492 C 0.50107 0.10179 0.66093 0.0
C2493 C 0.46642 0.11832 0.63649 0.0
C2494 C 0.47542 0.10388 0.67292 0.0
C2495 C 0.44537 0.11264 0.66672 0.0
H2496 H 0.1284 0.13367 0.89527 0.0
H2497 H 0.12215 0.17215 0.84161 0.0
H2498 H 0.14315 0.22206 0.85209 0.0
H2499 H 0.16101 0.25577 0.87634 0.0
H2500 H 0.16257 0.22111 0.93083 0.0
H2501 H 0.1453 0.16887 0.92024 0.0
C2502 C 0.13186 0.1529 0.88586 0.0
C2503 C 0.12412 0.14877 0.86756 0.0
C2504 C 0.14281 0.18236 0.89216 0.0
C2505 C 0.1283 0.17422 0.85565 0.0
C2506 C 0.14017 0.20299 0.86166 0.0
C2507 C 0.15791 0.23678 0.88595 0.0
C2508 C 0.1634 0.24225 0.90432 0.0
C2509 C 0.14723 0.20739 0.87986 0.0
C2510 C 0.15856 0.21747 0.91659 0.0
C2511 C 0.14873 0.18764 0.91053 0.0
H2512 H 0.08637 0.87271 0.10287 0.0
H2513 H 0.14023 0.88702 0.15141 0.0
H2514 H 0.09271 0.90626 0.16679 0.0
H2515 H 0.03519 0.91892 0.1663 0.0
H2516 H 0.98402 0.90625 0.11656 0.0
H2517 H 0.03116 0.8868 0.10194 0.0
C2518 C 0.08801 0.88021 0.11678 0.0
C2519 C 0.11701 0.87847 0.12587 0.0
C2520 C 0.06089 0.89163 0.12541 0.0
C2521 C 0.11829 0.88821 0.14398 0.0
C2522 C 0.09108 0.89917 0.15282 0.0
C2523 C 0.03444 0.91193 0.15228 0.0
C2524 C 0.00586 0.91415 0.14264 0.0
C2525 C 0.06213 0.90098 0.14365 0.0
C2526 C 0.00546 0.90507 0.12441 0.0
C2527 C 0.0325 0.8938 0.11595 0.0
H2528 H 0.65986 0.74494 0.88078 0.0
H2529 H 0.66844 0.7822 0.93453 0.0
H2530 H 0.64898 0.83376 0.92406 0.0
H2531 H 0.62924 0.86801 0.89929 0.0
H2532 H 0.61712 0.82706 0.84645 0.0
H2533 H 0.6385 0.77738 0.85693 0.0
C2534 C 0.65779 0.76435 0.89024 0.0
C2535 C 0.66604 0.75986 0.90835 0.0
C2536 C 0.64597 0.79337 0.88425 0.0
C2537 C 0.66239 0.78511 0.92048 0.0
C2538 C 0.65129 0.81456 0.91449 0.0
C2539 C 0.63142 0.84826 0.89006 0.0
C2540 C 0.6221 0.85176 0.87195 0.0
C2541 C 0.64297 0.81898 0.89635 0.0
C2542 C 0.62455 0.82558 0.86032 0.0
C2543 C 0.63669 0.79692 0.86632 0.0
H2544 H 0.97765 0.91726 0.67011 0.0
H2545 H 0.03506 0.88506 0.62571 0.0
H2546 H 0.9888 0.86446 0.61058 0.0
H2547 H 0.93222 0.85675 0.60916 0.0
H2548 H 0.87275 0.8895 0.65253 0.0
H2549 H 0.91937 0.90846 0.66875 0.0
C2550 C 0.97993 0.90551 0.6572 0.0
C2551 C 0.00986 0.90305 0.64901 0.0
C2552 C 0.9528 0.89391 0.64828 0.0
C2553 C 0.01238 0.88783 0.63223 0.0
C2554 C 0.98588 0.87588 0.62354 0.0
C2555 C 0.92923 0.86804 0.62215 0.0
C2556 C 0.89881 0.8718 0.62947 0.0
C2557 C 0.95598 0.8791 0.6313 0.0
C2558 C 0.89578 0.88637 0.64644 0.0
C2559 C 0.92249 0.89722 0.65577 0.0
H2560 H 0.84974 0.25856 0.37945 0.0
H2561 H 0.84305 0.21456 0.4316 0.0
H2562 H 0.86039 0.16408 0.41846 0.0
H2563 H 0.87825 0.13284 0.39185 0.0
H2564 H 0.88807 0.18041 0.34074 0.0
H2565 H 0.86833 0.22891 0.35382 0.0
C2566 C 0.85177 0.23798 0.38804 0.0
C2567 C 0.84477 0.24037 0.40648 0.0
C2568 C 0.86226 0.20953 0.38051 0.0
C2569 C 0.8482 0.21341 0.41735 0.0
C2570 C 0.85808 0.18455 0.40982 0.0
C2571 C 0.87586 0.15377 0.38357 0.0
C2572 C 0.88424 0.15257 0.36518 0.0
C2573 C 0.86527 0.18234 0.39137 0.0
C2574 C 0.88145 0.18019 0.35478 0.0
C2575 C 0.87027 0.20816 0.36228 0.0
H2576 H 0.62329 0.1371 0.1492 0.0
H2577 H 0.58307 0.14793 0.09618 0.0
H2578 H 0.53203 0.13105 0.10739 0.0
H2579 H 0.49837 0.11398 0.13195 0.0
H2580 H 0.53593 0.1061 0.18566 0.0
H2581 H 0.58827 0.12145 0.17449 0.0
C2582 C 0.60341 0.1356 0.14008 0.0
C2583 C 0.60741 0.14336 0.12174 0.0
C2584 C 0.57352 0.12664 0.14675 0.0
C2585 C 0.5811 0.14175 0.11025 0.0
C2586 C 0.55171 0.13221 0.11667 0.0
C2587 C 0.51794 0.11545 0.14129 0.0
C2588 C 0.51318 0.10859 0.15962 0.0
C2589 C 0.54764 0.12467 0.13485 0.0
C2590 C 0.53887 0.11121 0.17149 0.0
C2591 C 0.56882 0.11991 0.16508 0.0
H2592 H 0.65521 0.26553 0.64453 0.0
H2593 H 0.66734 0.22785 0.59104 0.0
H2594 H 0.65095 0.17544 0.60174 0.0
H2595 H 0.63267 0.14049 0.62666 0.0
H2596 H 0.61746 0.18174 0.6792 0.0
H2597 H 0.63595 0.23229 0.66849 0.0
C2598 C 0.6545 0.24592 0.63514 0.0
C2599 C 0.66279 0.25064 0.61703 0.0
C2600 C 0.64463 0.2163 0.64128 0.0
C2601 C 0.66112 0.22491 0.60507 0.0
C2602 C 0.65181 0.19493 0.6112 0.0
C2603 C 0.63362 0.1605 0.63577 0.0
C2604 C 0.62416 0.15685 0.65387 0.0
C2605 C 0.64348 0.19031 0.62934 0.0
C2606 C 0.62504 0.18333 0.66534 0.0
C2607 C 0.63547 0.21251 0.65921 0.0
H2608 H 0.53807 0.92597 0.35166 0.0
H2609 H 0.47944 0.87495 0.38909 0.0
H2610 H 0.52587 0.85068 0.40257 0.0
H2611 H 0.58274 0.8464 0.40511 0.0
H2612 H 0.64307 0.89766 0.36857 0.0
H2613 H 0.59656 0.91933 0.3534 0.0
C2614 C 0.53566 0.9091 0.36254 0.0
C2615 C 0.50552 0.90215 0.3694 0.0
C2616 C 0.56271 0.89561 0.37055 0.0
C2617 C 0.5025 0.88063 0.38366 0.0
C2618 C 0.52901 0.86682 0.3914 0.0
C2619 C 0.58592 0.86225 0.39381 0.0
C2620 C 0.61649 0.87056 0.38816 0.0
C2621 C 0.55921 0.87461 0.38521 0.0
C2622 C 0.61985 0.89095 0.37333 0.0
C2623 C 0.59324 0.90335 0.36461 0.0
H2624 H 0.86322 0.74625 0.13925 0.0
H2625 H 0.83595 0.77983 0.08681 0.0
H2626 H 0.85068 0.83394 0.09556 0.0
H2627 H 0.87123 0.87161 0.11859 0.0
H2628 H 0.90129 0.83456 0.16996 0.0
H2629 H 0.88493 0.78213 0.1612 0.0
C2630 C 0.86028 0.76533 0.12968 0.0
C2631 C 0.84818 0.75903 0.11247 0.0
C2632 C 0.86905 0.79592 0.1347 0.0
C2633 C 0.84522 0.78405 0.10017 0.0
C2634 C 0.85352 0.81498 0.1052 0.0
C2635 C 0.87396 0.85209 0.12789 0.0
C2636 C 0.88691 0.85746 0.14512 0.0
C2637 C 0.86537 0.82124 0.12252 0.0
C2638 C 0.89085 0.83163 0.15681 0.0
C2639 C 0.8817 0.80138 0.15177 0.0
H2640 H 0.96661 0.09064 0.84673 0.0
H2641 H 0.02853 0.12956 0.88705 0.0
H2642 H 0.98379 0.15196 0.90306 0.0
H2643 H 0.92715 0.15867 0.90664 0.0
H2644 H 0.86376 0.12021 0.86686 0.0
H2645 H 0.90865 0.09968 0.84977 0.0
C2646 C 0.97018 0.10436 0.85888 0.0
C2647 C 1.00086 0.10805 0.8658 0.0
C2648 C 0.94402 0.11707 0.86828 0.0
C2649 C 0.00515 0.12582 0.88162 0.0
C2650 C 0.97955 0.13876 0.89079 0.0
C2651 C 0.92299 0.14585 0.89423 0.0
C2652 C 0.89193 0.14082 0.88824 0.0
C2653 C 0.94886 0.1341 0.88445 0.0
C2654 C 0.88731 0.1243 0.87197 0.0
C2655 C 0.91305 0.11256 0.86212 0.0
H2656 H 0.85416 0.76502 0.64042 0.0
H2657 H 0.84259 0.72894 0.58658 0.0
H2658 H 0.8576 0.6759 0.59692 0.0
H2659 H 0.87488 0.64006 0.62144 0.0
H2660 H 0.89127 0.67913 0.6743 0.0
H2661 H 0.87295 0.73043 0.66423 0.0
C2662 C 0.85465 0.74555 0.63092 0.0
C2663 C 0.84693 0.7509 0.61278 0.0
C2664 C 0.86402 0.71552 0.63685 0.0
C2665 C 0.84839 0.72546 0.60062 0.0
C2666 C 0.8569 0.69514 0.60655 0.0
C2667 C 0.87427 0.65973 0.63078 0.0
C2668 C 0.88405 0.65533 0.64875 0.0
C2669 C 0.86486 0.68988 0.62466 0.0
C2670 C 0.8835 0.68139 0.66053 0.0
C2671 C 0.87317 0.71095 0.65474 0.0
H2672 H 0.58776 0.64399 0.91538 0.0
H2673 H 0.64318 0.62988 0.86728 0.0
H2674 H 0.59631 0.61035 0.85153 0.0
H2675 H 0.5391 0.59662 0.8517 0.0
H2676 H 0.48624 0.60901 0.90091 0.0
H2677 H 0.53261 0.62966 0.91587 0.0
C2678 C 0.58985 0.63653 0.90148 0.0
C2679 C 0.61911 0.63828 0.89263 0.0
C2680 C 0.56312 0.62491 0.89265 0.0
C2681 C 0.62102 0.62864 0.87452 0.0
C2682 C 0.59419 0.61751 0.86548 0.0
C2683 C 0.53786 0.6039 0.86567 0.0
C2684 C 0.50923 0.60104 0.87517 0.0
C2685 C 0.56505 0.61544 0.87444 0.0
C2686 C 0.50798 0.61049 0.89331 0.0
C2687 C 0.5345 0.62248 0.9019 0.0
H2688 H 0.62701 0.37346 0.12221 0.0
H2689 H 0.60959 0.3329 0.17461 0.0
H2690 H 0.63019 0.28249 0.16442 0.0
H2691 H 0.65244 0.24944 0.14091 0.0
H2692 H 0.66687 0.28698 0.08764 0.0
H2693 H 0.64793 0.33888 0.09787 0.0
C2694 C 0.62786 0.35364 0.13143 0.0
C2695 C 0.61719 0.35742 0.14932 0.0
C2696 C 0.63906 0.32406 0.12531 0.0
C2697 C 0.61801 0.33116 0.1609 0.0
C2698 C 0.6297 0.30211 0.15506 0.0
C2699 C 0.6517 0.26892 0.13148 0.0
C2700 C 0.66144 0.26429 0.11356 0.0
C2701 C 0.64027 0.2983 0.13734 0.0
C2702 C 0.65963 0.28984 0.10153 0.0
C2703 C 0.64882 0.31953 0.10739 0.0
H2704 H 0.88071 0.37852 0.37514 0.0
H2705 H 0.92846 0.34448 0.42274 0.0
H2706 H 0.97826 0.36347 0.4113 0.0
H2707 H 0.00867 0.38998 0.38846 0.0
H2708 H 0.96432 0.423 0.33989 0.0
H2709 H 0.91297 0.40357 0.35084 0.0
C2710 C 0.90201 0.37534 0.38299 0.0
C2711 C 0.90043 0.36054 0.39999 0.0
C2712 C 0.93127 0.38591 0.37614 0.0
C2713 C 0.92849 0.35617 0.4098 0.0
C2714 C 0.95723 0.36691 0.40324 0.0
C2715 C 0.9878 0.39314 0.38024 0.0
C2716 C 0.99018 0.40836 0.36354 0.0
C2717 C 0.95885 0.38192 0.38655 0.0
C2718 C 0.96303 0.41141 0.35285 0.0
C2719 C 0.93371 0.40044 0.35916 0.0
H2720 H 0.87767 0.37044 0.89265 0.0
H2721 H 0.88552 0.32888 0.83974 0.0
H2722 H 0.86426 0.27951 0.85093 0.0
H2723 H 0.84556 0.24711 0.87569 0.0
H2724 H 0.84234 0.28527 0.92947 0.0
H2725 H 0.85995 0.33677 0.91806 0.0
C2726 C 0.87452 0.35066 0.88355 0.0
C2727 C 0.88283 0.35378 0.86524 0.0
C2728 C 0.86334 0.32156 0.89027 0.0
C2729 C 0.879 0.3276 0.85377 0.0
C2730 C 0.86695 0.29914 0.86019 0.0
C2731 C 0.84837 0.26671 0.88496 0.0
C2732 C 0.84231 0.26238 0.90339 0.0
C2733 C 0.85929 0.29577 0.87841 0.0
C2734 C 0.84677 0.28797 0.9152 0.0
C2735 C 0.85682 0.31741 0.90867 0.0
H2736 H 0.01677 0.61253 0.1298 0.0
H2737 H 0.98427 0.60204 0.18447 0.0
H2738 H 0.93059 0.61645 0.17507 0.0
H2739 H 0.89287 0.6318 0.15092 0.0
H2740 H 0.92846 0.64481 0.09692 0.0
H2741 H 0.98072 0.62925 0.1065 0.0
C2742 C 0.99804 0.61325 0.13975 0.0
C2743 C 1.00459 0.60592 0.1578 0.0
C2744 C 0.96759 0.62182 0.13431 0.0
C2745 C 0.97994 0.60755 0.17047 0.0
C2746 C 0.94922 0.61569 0.16507 0.0
C2747 C 0.91202 0.63103 0.14125 0.0
C2748 C 0.90629 0.63895 0.12309 0.0
C2749 C 0.94272 0.62278 0.14697 0.0
C2750 C 0.93168 0.63837 0.11086 0.0
C2751 C 0.96182 0.62962 0.11635 0.0
H2752 H 0.61085 0.67335 0.35898 0.0
H2753 H 0.63647 0.61471 0.4041 0.0
H2754 H 0.65784 0.66093 0.41975 0.0
H2755 H 0.67002 0.71865 0.42037 0.0
H2756 H 0.64579 0.77509 0.37411 0.0
H2757 H 0.62333 0.72925 0.35929 0.0
C2758 C 0.6212 0.67046 0.37221 0.0
C2759 C 0.6221 0.64042 0.38024 0.0
C2760 C 0.63383 0.69693 0.381 0.0
C2761 C 0.63554 0.63747 0.39748 0.0
C2762 C 0.64775 0.66395 0.40648 0.0
C2763 C 0.65975 0.72077 0.40708 0.0
C2764 C 0.65995 0.75025 0.39831 0.0
C2765 C 0.64712 0.69389 0.39835 0.0
C2766 C 0.64655 0.75265 0.38106 0.0
C2767 C 0.63349 0.72643 0.37256 0.0
H2768 H 0.6232 0.38184 0.65196 0.0
H2769 H 0.58309 0.36519 0.59934 0.0
H2770 H 0.53198 0.38256 0.60993 0.0
H2771 H 0.49816 0.40172 0.63369 0.0
H2772 H 0.53499 0.41626 0.68712 0.0
H2773 H 0.58767 0.40004 0.67668 0.0
C2774 C 0.60331 0.38222 0.6428 0.0
C2775 C 0.60743 0.37267 0.62473 0.0
C2776 C 0.57326 0.39158 0.64913 0.0
C2777 C 0.58111 0.37281 0.61319 0.0
C2778 C 0.55163 0.38261 0.61925 0.0
C2779 C 0.51761 0.40154 0.64315 0.0
C2780 C 0.51259 0.41051 0.66114 0.0
C2781 C 0.54744 0.39198 0.63714 0.0
C2782 C 0.53816 0.40951 0.67317 0.0
C2783 C 0.56829 0.40032 0.66719 0.0
H2784 H 0.11746 0.37435 0.40056 0.0
H2785 H 0.10828 0.33586 0.34693 0.0
H2786 H 0.12655 0.28492 0.35739 0.0
H2787 H 0.14409 0.25082 0.38136 0.0
H2788 H 0.15045 0.28584 0.43574 0.0
H2789 H 0.13395 0.3385 0.4254 0.0
C2790 C 0.11966 0.35487 0.39116 0.0
C2791 C 0.11196 0.35936 0.37285 0.0
C2792 C 0.12943 0.32492 0.3974 0.0
C2793 C 0.11444 0.33356 0.36097 0.0
C2794 C 0.12477 0.3042 0.36696 0.0
C2795 C 0.14212 0.26988 0.39105 0.0
C2796 C 0.14885 0.26437 0.4093 0.0
C2797 C 0.13223 0.29962 0.38509 0.0
C2798 C 0.14549 0.28942 0.42161 0.0
C2799 C 0.13612 0.31952 0.41568 0.0
H2800 H 0.38317 0.38191 0.1456 0.0
H2801 H 0.42743 0.35928 0.09475 0.0
H2802 H 0.47802 0.37632 0.10626 0.0
H2803 H 0.51007 0.3973 0.13028 0.0
H2804 H 0.46898 0.41818 0.18204 0.0
H2805 H 0.41696 0.40162 0.17075 0.0
C2806 C 0.40386 0.38085 0.13703 0.0
C2807 C 0.40109 0.36972 0.11915 0.0
C2808 C 0.43355 0.3901 0.14392 0.0
C2809 C 0.42841 0.36807 0.10841 0.0
C2810 C 0.45757 0.3777 0.11501 0.0
C2811 C 0.48983 0.39842 0.13918 0.0
C2812 C 0.49347 0.40936 0.15695 0.0
C2813 C 0.4604 0.38875 0.13268 0.0
C2814 C 0.4669 0.40991 0.1683 0.0
C2815 C 0.43715 0.40056 0.16181 0.0
H2816 H 0.3364 0.72489 0.91987 0.0
H2817 H 0.3726 0.78164 0.87631 0.0
H2818 H 0.39474 0.73513 0.86202 0.0
H2819 H 0.40306 0.67854 0.86119 0.0
H2820 H 0.36715 0.61988 0.904 0.0
H2821 H 0.34574 0.66666 0.91914 0.0
C2822 C 0.34933 0.72696 0.90734 0.0
C2823 C 0.35247 0.75673 0.8991 0.0
C2824 C 0.36192 0.69973 0.89893 0.0
C2825 C 0.36927 0.75903 0.88281 0.0
C2826 C 0.38209 0.73241 0.87461 0.0
C2827 C 0.39053 0.67578 0.87382 0.0
C2828 C 0.38665 0.64558 0.88132 0.0
C2829 C 0.37829 0.70264 0.88241 0.0
C2830 C 0.37038 0.64278 0.89778 0.0
C2831 C 0.35818 0.66957 0.90651 0.0
H2832 H 0.03696 0.59695 0.66936 0.0
H2833 H 0.98077 0.61732 0.62236 0.0
H2834 H 0.02669 0.63742 0.60682 0.0
H2835 H 0.08282 0.64869 0.6059 0.0
H2836 H 0.14103 0.62749 0.6519 0.0
H2837 H 0.09466 0.60855 0.6683 0.0
C2838 C 0.03483 0.6059 0.65576 0.0
C2839 C 0.00526 0.60527 0.64709 0.0
C2840 C 0.06182 0.6173 0.64658 0.0
C2841 C 1.00308 0.61698 0.6294 0.0
C2842 C 0.02942 0.62866 0.62042 0.0
C2843 C 0.08555 0.63991 0.6195 0.0
C2844 C 0.11557 0.63946 0.62752 0.0
C2845 C 0.05892 0.62875 0.62879 0.0
C2846 C 0.11831 0.62802 0.64525 0.0
C2847 C 0.09173 0.61719 0.6547 0.0
H2848 H 0.13138 0.64641 0.12135 0.0
H2849 H 0.12723 0.68397 0.17538 0.0
H2850 H 0.14671 0.73454 0.16476 0.0
H2851 H 0.16391 0.76866 0.14036 0.0
H2852 H 0.16456 0.73391 0.08579 0.0
H2853 H 0.14725 0.68183 0.09639 0.0
C2854 C 0.1349 0.66559 0.13082 0.0
C2855 C 0.12825 0.66099 0.14924 0.0
C2856 C 0.14533 0.69523 0.12452 0.0
C2857 C 0.13248 0.68643 0.16121 0.0
C2858 C 0.14354 0.71553 0.15514 0.0
C2859 C 0.16051 0.74971 0.13073 0.0
C2860 C 0.16585 0.75517 0.11231 0.0
C2861 C 0.14996 0.72022 0.13685 0.0
C2862 C 0.16069 0.73037 0.10005 0.0
C2863 C 0.15083 0.70058 0.10612 0.0
H2864 H 0.0789 0.34601 0.90516 0.0
H2865 H 0.14308 0.38342 0.86543 0.0
H2866 H 0.09852 0.40293 0.84779 0.0
H2867 H 0.04062 0.4114 0.84421 0.0
H2868 H 0.97781 0.37345 0.88442 0.0
H2869 H 0.02225 0.35206 0.90103 0.0
C2870 C 0.08328 0.35839 0.89265 0.0
C2871 C 0.11444 0.36336 0.8868 0.0
C2872 C 0.0576 0.36952 0.88253 0.0
C2873 C 0.1194 0.37931 0.8704 0.0
C2874 C 0.09387 0.39048 0.86024 0.0
C2875 C 0.0368 0.39807 0.85646 0.0
C2876 C 0.00595 0.39437 0.86316 0.0
C2877 C 0.06277 0.38594 0.86621 0.0
C2878 C 1.00133 0.37715 0.87912 0.0
C2879 C 0.02675 0.36481 0.88866 0.0
H2880 H 0.35974 0.24751 0.64426 0.0
H2881 H 0.35143 0.28432 0.5904 0.0
H2882 H 0.36722 0.33679 0.60122 0.0
H2883 H 0.38362 0.37213 0.6262 0.0
H2884 H 0.39506 0.33272 0.67938 0.0
H2885 H 0.37744 0.28157 0.66857 0.0
C2886 C 0.36122 0.26695 0.63482 0.0
C2887 C 0.35414 0.26191 0.61654 0.0
C2888 C 0.37075 0.29675 0.64105 0.0
C2889 C 0.35671 0.28745 0.60454 0.0
C2890 C 0.36568 0.31749 0.61074 0.0
C2891 C 0.3821 0.3524 0.63545 0.0
C2892 C 0.3903 0.35665 0.6537 0.0
C2893 C 0.37274 0.32244 0.62901 0.0
C2894 C 0.3886 0.33054 0.66536 0.0
C2895 C 0.37862 0.30109 0.65917 0.0
H2896 H 0.47316 0.5999 0.3467 0.0
H2897 H 0.51734 0.5904 0.39877 0.0
H2898 H 0.47021 0.60982 0.41339 0.0
H2899 H 0.41682 0.6303 0.4119 0.0
H2900 H 0.3698 0.63783 0.36066 0.0
H2901 H 0.41734 0.61853 0.34541 0.0
C2902 C 0.47239 0.60201 0.36123 0.0
C2903 C 0.49907 0.5936 0.3715 0.0
C2904 C 0.4446 0.61291 0.36982 0.0
C2905 C 0.49741 0.59643 0.39037 0.0
C2906 C 0.47035 0.60768 0.39886 0.0
C2907 C 0.41671 0.62756 0.39741 0.0
C2908 C 0.3896 0.63553 0.38753 0.0
C2909 C 0.44386 0.61604 0.38876 0.0
C2910 C 0.39023 0.63179 0.3687 0.0
C2911 C 0.41749 0.62081 0.35993 0.0
loop_
_geom_bond_atom_site_label_1
_geom_bond_atom_site_label_2
_geom_bond_distance
_geom_bond_site_symmetry_2
_ccdc_geom_bond_type
Co0 O2 2.143 . S
Co0 O8 2.074 . S
Co0 O11 2.093 . S
Co0 O24 2.097 . S
Co0 N41 2.151 1_545 S
Co0 N49 2.214 . S
Co1 O2 2.160 . S
Co1 O7 2.058 . S
Co1 O17 2.057 . S
Co1 O32 2.037 . S
Co1 N36 2.145 . S
Co1 N57 2.257 . S
O2 Co0 2.143 . S
O2 Co1 2.160 . S
C3 O4 1.278 1_565 S
C3 O11 1.224 1_565 S
O4 C3 1.278 1_545 S
C5 O6 1.245 . S
C5 O17 1.232 . S
O6 C5 1.245 . S
O7 Co1 2.058 . S
O7 C33 1.269 . S
O8 Co0 2.074 . S
O8 C33 1.257 . S
H9 C34 0.930 . S
H10 C40 0.930 . S
O11 Co0 2.093 . S
O11 C3 1.224 1_545 S
H12 C44 0.929 . S
H13 C46 0.930 . S
H14 C47 0.930 . S
H15 C45 0.929 1_545 S
H16 C48 0.928 . S
O17 Co1 2.057 . S
O17 C5 1.232 . S
H18 C37 0.929 . S
H19 C38 0.929 . S
H20 C50 0.931 . S
H21 C42 0.929 . S
H22 C51 0.930 . S
H23 C43 0.931 . S
O24 Co0 2.097 . S
O24 C52 1.214 . S
H25 C53 0.929 . S
H26 C54 0.929 . S
H27 C55 0.930 . S
H28 C56 0.929 . S
H29 C58 0.930 . S
H30 C35 0.930 . S
H31 C39 0.930 . S
O32 Co1 2.037 . S
O32 C52 1.234 . S
C33 O7 1.269 . S
C33 O8 1.257 . S
C34 H9 0.930 . S
C34 C37 1.388 . S
C34 C39 1.418 . S
C35 H30 0.930 . S
C35 C38 1.404 . S
C35 C39 1.353 . S
N36 Co1 2.145 . S
N36 C37 1.397 . S
N36 C38 1.334 . S
C37 H18 0.929 . S
C37 C34 1.388 . S
C37 N36 1.397 . S
C38 H19 0.929 . S
C38 C35 1.404 . S
C38 N36 1.334 . S
C39 H31 0.930 . S
C39 C34 1.418 . S
C39 C35 1.353 . S
C40 H10 0.930 . S
C40 N41 1.330 . S
C40 C42 1.446 . S
N41 Co0 2.151 1_565 S
N41 C40 1.330 . S
N41 C45 1.418 . S
C42 H21 0.929 . S
C42 C40 1.446 . S
C42 C43 1.332 . S
C43 H23 0.931 . S
C43 C42 1.332 . S
C43 C44 1.267 . S
C44 H12 0.929 . S
C44 C43 1.267 . S
C44 C45 1.251 . S
C45 H15 0.929 1_565 S
C45 N41 1.418 . S
C45 C44 1.251 . S
C46 H13 0.930 . S
C46 C48 1.406 . S
C46 C51 1.261 . S
C47 H14 0.930 . S
C47 N49 1.325 . S
C47 C50 1.357 . S
C48 H16 0.928 . S
C48 C46 1.406 . S
C48 N49 1.261 . S
N49 Co0 2.214 . S
N49 C47 1.325 . S
N49 C48 1.261 . S
C50 H20 0.931 . S
C50 C47 1.357 . S
C50 C51 1.312 . S
C51 H22 0.930 . S
C51 C46 1.261 . S
C51 C50 1.312 . S
C52 O24 1.214 . S
C52 O32 1.234 . S
C53 H25 0.929 . S
C53 C56 1.391 . S
C53 C58 1.391 . S
C54 H26 0.929 . S
C54 C55 1.390 . S
C54 N57 1.391 . S
C55 H27 0.930 . S
C55 C54 1.390 . S
C55 C56 1.392 . S
C56 H28 0.929 . S
C56 C53 1.391 . S
C56 C55 1.392 . S
N57 Co1 2.257 . S
N57 C54 1.391 . S
N57 C58 1.388 . S
C58 H29 0.930 . S
C58 C53 1.391 . S
C58 N57 1.388 . S
Co59 O61 2.143 . S
Co59 O67 2.074 . S
Co59 O70 2.093 . S
Co59 O83 2.097 . S
Co59 N100 2.151 . S
Co59 N108 2.214 . S
Co60 O61 2.160 . S
Co60 O66 2.058 . S
Co60 O76 2.057 . S
Co60 O91 2.037 . S
Co60 N95 2.145 . S
Co60 N116 2.257 . S
O61 Co59 2.143 . S
O61 Co60 2.160 . S
C62 O63 1.278 . S
C62 O70 1.224 . S
O63 C62 1.278 . S
C64 O65 1.245 . S
C64 O76 1.232 . S
O65 C64 1.245 . S
O66 Co60 2.058 . S
O66 C92 1.269 . S
O67 Co59 2.074 . S
O67 C92 1.257 . S
H68 C93 0.930 . S
H69 C99 0.930 . S
O70 Co59 2.093 . S
O70 C62 1.224 . S
H71 C103 0.929 . S
H72 C105 0.930 . S
H73 C106 0.930 . S
H74 C104 0.929 . S
H75 C107 0.928 . S
O76 Co60 2.057 . S
O76 C64 1.232 . S
H77 C96 0.929 . S
H78 C97 0.929 . S
H79 C109 0.931 . S
H80 C101 0.929 . S
H81 C110 0.930 . S
H82 C102 0.931 . S
O83 Co59 2.097 . S
O83 C111 1.214 . S
H84 C112 0.929 . S
H85 C113 0.929 . S
H86 C114 0.930 . S
H87 C115 0.929 . S
H88 C117 0.930 . S
H89 C94 0.930 . S
H90 C98 0.930 . S
O91 Co60 2.037 . S
O91 C111 1.234 . S
C92 O66 1.269 . S
C92 O67 1.257 . S
C93 H68 0.930 . S
C93 C96 1.388 . S
C93 C98 1.418 . S
C94 H89 0.930 . S
C94 C97 1.404 . S
C94 C98 1.353 . S
N95 Co60 2.145 . S
N95 C96 1.397 . S
N95 C97 1.334 . S
C96 H77 0.929 . S
C96 C93 1.388 . S
C96 N95 1.397 . S
C97 H78 0.929 . S
C97 C94 1.404 . S
C97 N95 1.334 . S
C98 H90 0.930 . S
C98 C93 1.418 . S
C98 C94 1.353 . S
C99 H69 0.930 . S
C99 N100 1.330 . S
C99 C101 1.446 . S
N100 Co59 2.151 . S
N100 C99 1.330 . S
N100 C104 1.418 . S
C101 H80 0.929 . S
C101 C99 1.446 . S
C101 C102 1.332 . S
C102 H82 0.931 . S
C102 C101 1.332 . S
C102 C103 1.267 . S
C103 H71 0.929 . S
C103 C102 1.267 . S
C103 C104 1.251 . S
C104 H74 0.929 . S
C104 N100 1.418 . S
C104 C103 1.251 . S
C105 H72 0.930 . S
C105 C107 1.406 . S
C105 C110 1.261 . S
C106 H73 0.930 . S
C106 N108 1.325 . S
C106 C109 1.357 . S
C107 H75 0.928 . S
C107 C105 1.406 . S
C107 N108 1.261 . S
N108 Co59 2.214 . S
N108 C106 1.325 . S
N108 C107 1.261 . S
C109 H79 0.931 . S
C109 C106 1.357 . S
C109 C110 1.312 . S
C110 H81 0.930 . S
C110 C105 1.261 . S
C110 C109 1.312 . S
C111 O83 1.214 . S
C111 O91 1.234 . S
C112 H84 0.929 . S
C112 C115 1.391 . S
C112 C117 1.391 . S
C113 H85 0.929 . S
C113 C114 1.390 . S
C113 N116 1.391 . S
C114 H86 0.930 . S
C114 C113 1.390 . S
C114 C115 1.392 . S
C115 H87 0.929 . S
C115 C112 1.391 . S
C115 C114 1.392 . S
N116 Co60 2.257 . S
N116 C113 1.391 . S
N116 C117 1.388 . S
C117 H88 0.930 . S
C117 C112 1.391 . S
C117 N116 1.388 . S
Co118 O120 2.143 . S
Co118 O126 2.074 . S
Co118 O129 2.093 . S
Co118 O142 2.097 . S
Co118 N159 2.151 1_565 S
Co118 N167 2.214 . S
Co119 O120 2.160 . S
Co119 O125 2.058 . S
Co119 O135 2.057 . S
Co119 O150 2.037 . S
Co119 N154 2.145 . S
Co119 N175 2.257 . S
O120 Co118 2.143 . S
O120 Co119 2.160 . S
C121 O122 1.278 1_545 S
C121 O129 1.224 1_545 S
O122 C121 1.278 1_565 S
C123 O124 1.245 . S
C123 O135 1.232 . S
O124 C123 1.245 . S
O125 Co119 2.058 . S
O125 C151 1.269 . S
O126 Co118 2.074 . S
O126 C151 1.257 . S
H127 C152 0.930 . S
H128 C158 0.930 . S
O129 Co118 2.093 . S
O129 C121 1.224 1_565 S
H130 C162 0.929 . S
H131 C164 0.930 . S
H132 C165 0.930 . S
H133 C163 0.929 1_565 S
H134 C166 0.928 . S
O135 Co119 2.057 . S
O135 C123 1.232 . S
H136 C155 0.929 . S
H137 C156 0.929 . S
H138 C168 0.931 . S
H139 C160 0.929 . S
H140 C169 0.930 . S
H141 C161 0.931 1_655 S
O142 Co118 2.097 . S
O142 C170 1.214 . S
H143 C171 0.929 . S
H144 C172 0.929 . S
H145 C173 0.930 . S
H146 C174 0.929 . S
H147 C176 0.930 . S
H148 C153 0.930 . S
H149 C157 0.930 . S
O150 Co119 2.037 . S
O150 C170 1.234 . S
C151 O125 1.269 . S
C151 O126 1.257 . S
C152 H127 0.930 . S
C152 C155 1.388 . S
C152 C157 1.418 . S
C153 H148 0.930 . S
C153 C156 1.404 . S
C153 C157 1.353 . S
N154 Co119 2.145 . S
N154 C155 1.397 . S
N154 C156 1.334 . S
C155 H136 0.929 . S
C155 C152 1.388 . S
C155 N154 1.397 . S
C156 H137 0.929 . S
C156 C153 1.404 . S
C156 N154 1.334 . S
C157 H149 0.930 . S
C157 C152 1.418 . S
C157 C153 1.353 . S
C158 H128 0.930 . S
C158 N159 1.330 . S
C158 C160 1.446 . S
N159 Co118 2.151 1_545 S
N159 C158 1.330 . S
N159 C163 1.418 . S
C160 H139 0.929 . S
C160 C158 1.446 . S
C160 C161 1.332 . S
C161 H141 0.931 1_455 S
C161 C160 1.332 . S
C161 C162 1.267 1_455 S
C162 H130 0.929 . S
C162 C161 1.267 1_655 S
C162 C163 1.251 1_655 S
C163 H133 0.929 1_545 S
C163 N159 1.418 . S
C163 C162 1.251 1_455 S
C164 H131 0.930 . S
C164 C166 1.406 . S
C164 C169 1.261 . S
C165 H132 0.930 . S
C165 N167 1.325 . S
C165 C168 1.357 . S
C166 H134 0.928 . S
C166 C164 1.406 . S
C166 N167 1.261 . S
N167 Co118 2.214 . S
N167 C165 1.325 . S
N167 C166 1.261 . S
C168 H138 0.931 . S
C168 C165 1.357 . S
C168 C169 1.312 . S
C169 H140 0.930 . S
C169 C164 1.261 . S
C169 C168 1.312 . S
C170 O142 1.214 . S
C170 O150 1.234 . S
C171 H143 0.929 . S
C171 C174 1.391 . S
C171 C176 1.391 . S
C172 H144 0.929 . S
C172 C173 1.390 . S
C172 N175 1.391 . S
C173 H145 0.930 . S
C173 C172 1.390 . S
C173 C174 1.392 . S
C174 H146 0.929 . S
C174 C171 1.391 . S
C174 C173 1.392 . S
N175 Co119 2.257 . S
N175 C172 1.391 . S
N175 C176 1.388 . S
C176 H147 0.930 . S
C176 C171 1.391 . S
C176 N175 1.388 . S
Co177 O179 2.143 . S
Co177 O185 2.074 . S
Co177 O188 2.093 . S
Co177 O201 2.097 . S
Co177 N218 2.151 . S
Co177 N226 2.214 . S
Co178 O179 2.160 . S
Co178 O184 2.058 . S
Co178 O194 2.057 . S
Co178 O209 2.037 . S
Co178 N213 2.145 . S
Co178 N234 2.257 . S
O179 Co177 2.143 . S
O179 Co178 2.160 . S
C180 O181 1.278 . S
C180 O188 1.224 . S
O181 C180 1.278 . S
C182 O183 1.245 . S
C182 O194 1.232 . S
O183 C182 1.245 . S
O184 Co178 2.058 . S
O184 C210 1.269 . S
O185 Co177 2.074 . S
O185 C210 1.257 . S
H186 C211 0.930 . S
H187 C217 0.930 . S
O188 Co177 2.093 . S
O188 C180 1.224 . S
H189 C221 0.929 . S
H190 C223 0.930 . S
H191 C224 0.930 . S
H192 C222 0.929 . S
H193 C225 0.928 . S
O194 Co178 2.057 . S
O194 C182 1.232 . S
H195 C214 0.929 . S
H196 C215 0.929 . S
H197 C227 0.931 . S
H198 C219 0.929 . S
H199 C228 0.930 . S
H200 C220 0.931 . S
O201 Co177 2.097 . S
O201 C229 1.214 . S
H202 C230 0.929 . S
H203 C231 0.929 . S
H204 C232 0.930 . S
H205 C233 0.929 . S
H206 C235 0.930 . S
H207 C212 0.930 . S
H208 C216 0.930 . S
O209 Co178 2.037 . S
O209 C229 1.234 . S
C210 O184 1.269 . S
C210 O185 1.257 . S
C211 H186 0.930 . S
C211 C214 1.388 . S
C211 C216 1.418 . S
C212 H207 0.930 . S
C212 C215 1.404 . S
C212 C216 1.353 . S
N213 Co178 2.145 . S
N213 C214 1.397 . S
N213 C215 1.334 . S
C214 H195 0.929 . S
C214 C211 1.388 . S
C214 N213 1.397 . S
C215 H196 0.929 . S
C215 C212 1.404 . S
C215 N213 1.334 . S
C216 H208 0.930 . S
C216 C211 1.418 . S
C216 C212 1.353 . S
C217 H187 0.930 . S
C217 N218 1.330 . S
C217 C219 1.446 . S
N218 Co177 2.151 . S
N218 C217 1.330 . S
N218 C222 1.418 . S
C219 H198 0.929 . S
C219 C217 1.446 . S
C219 C220 1.332 . S
C220 H200 0.931 . S
C220 C219 1.332 . S
C220 C221 1.267 . S
C221 H189 0.929 . S
C221 C220 1.267 . S
C221 C222 1.251 . S
C222 H192 0.929 . S
C222 N218 1.418 . S
C222 C221 1.251 . S
C223 H190 0.930 . S
C223 C225 1.406 . S
C223 C228 1.261 . S
C224 H191 0.930 . S
C224 N226 1.325 . S
C224 C227 1.357 . S
C225 H193 0.928 . S
C225 C223 1.406 . S
C225 N226 1.261 . S
N226 Co177 2.214 . S
N226 C224 1.325 . S
N226 C225 1.261 . S
C227 H197 0.931 . S
C227 C224 1.357 . S
C227 C228 1.312 . S
C228 H199 0.930 . S
C228 C223 1.261 . S
C228 C227 1.312 . S
C229 O201 1.214 . S
C229 O209 1.234 . S
C230 H202 0.929 . S
C230 C233 1.391 . S
C230 C235 1.391 . S
C231 H203 0.929 . S
C231 C232 1.390 . S
C231 N234 1.391 . S
C232 H204 0.930 . S
C232 C231 1.390 . S
C232 C233 1.392 . S
C233 H205 0.929 . S
C233 C230 1.391 . S
C233 C232 1.392 . S
N234 Co178 2.257 . S
N234 C231 1.391 . S
N234 C235 1.388 . S
C235 H206 0.930 . S
C235 C230 1.391 . S
C235 N234 1.388 . S
Co236 O238 2.143 . S
Co236 O244 2.074 . S
Co236 O247 2.093 . S
Co236 O260 2.097 . S
Co236 N277 2.151 1_565 S
Co236 N285 2.214 . S
Co237 O238 2.160 . S
Co237 O243 2.058 . S
Co237 O253 2.057 . S
Co237 O268 2.037 . S
Co237 N272 2.145 . S
Co237 N293 2.257 . S
O238 Co236 2.143 . S
O238 Co237 2.160 . S
C239 O240 1.278 1_545 S
C239 O247 1.224 1_545 S
O240 C239 1.278 1_565 S
C241 O242 1.245 . S
C241 O253 1.232 . S
O242 C241 1.245 . S
O243 Co237 2.058 . S
O243 C269 1.269 . S
O244 Co236 2.074 . S
O244 C269 1.257 . S
H245 C270 0.930 . S
H246 C276 0.930 . S
O247 Co236 2.093 . S
O247 C239 1.224 1_565 S
H248 C280 0.929 . S
H249 C282 0.930 . S
H250 C283 0.930 . S
H251 C281 0.929 1_565 S
H252 C284 0.928 . S
O253 Co237 2.057 . S
O253 C241 1.232 . S
H254 C273 0.929 . S
H255 C274 0.929 . S
H256 C286 0.931 . S
H257 C278 0.929 . S
H258 C287 0.930 . S
H259 C279 0.931 . S
O260 Co236 2.097 . S
O260 C288 1.214 . S
H261 C289 0.929 . S
H262 C290 0.929 . S
H263 C291 0.930 . S
H264 C292 0.929 . S
H265 C294 0.930 . S
H266 C271 0.930 . S
H267 C275 0.930 . S
O268 Co237 2.037 . S
O268 C288 1.234 . S
C269 O243 1.269 . S
C269 O244 1.257 . S
C270 H245 0.930 . S
C270 C273 1.388 . S
C270 C275 1.418 . S
C271 H266 0.930 . S
C271 C274 1.404 . S
C271 C275 1.353 . S
N272 Co237 2.145 . S
N272 C273 1.397 . S
N272 C274 1.334 . S
C273 H254 0.929 . S
C273 C270 1.388 . S
C273 N272 1.397 . S
C274 H255 0.929 . S
C274 C271 1.404 . S
C274 N272 1.334 . S
C275 H267 0.930 . S
C275 C270 1.418 . S
C275 C271 1.353 . S
C276 H246 0.930 . S
C276 N277 1.330 . S
C276 C278 1.446 . S
N277 Co236 2.151 1_545 S
N277 C276 1.330 . S
N277 C281 1.418 . S
C278 H257 0.929 . S
C278 C276 1.446 . S
C278 C279 1.332 . S
C279 H259 0.931 . S
C279 C278 1.332 . S
C279 C280 1.267 . S
C280 H248 0.929 . S
C280 C279 1.267 . S
C280 C281 1.251 . S
C281 H251 0.929 1_545 S
C281 N277 1.418 . S
C281 C280 1.251 . S
C282 H249 0.930 . S
C282 C284 1.406 . S
C282 C287 1.261 . S
C283 H250 0.930 . S
C283 N285 1.325 . S
C283 C286 1.357 . S
C284 H252 0.928 . S
C284 C282 1.406 . S
C284 N285 1.261 . S
N285 Co236 2.214 . S
N285 C283 1.325 . S
N285 C284 1.261 . S
C286 H256 0.931 . S
C286 C283 1.357 . S
C286 C287 1.312 . S
C287 H258 0.930 . S
C287 C282 1.261 . S
C287 C286 1.312 . S
C288 O260 1.214 . S
C288 O268 1.234 . S
C289 H261 0.929 . S
C289 C292 1.391 . S
C289 C294 1.391 . S
C290 H262 0.929 . S
C290 C291 1.390 . S
C290 N293 1.391 . S
C291 H263 0.930 . S
C291 C290 1.390 . S
C291 C292 1.392 . S
C292 H264 0.929 . S
C292 C289 1.391 . S
C292 C291 1.392 . S
N293 Co237 2.257 . S
N293 C290 1.391 . S
N293 C294 1.388 . S
C294 H265 0.930 . S
C294 C289 1.391 . S
C294 N293 1.388 . S
Co295 O297 2.143 . S
Co295 O303 2.074 . S
Co295 O306 2.093 . S
Co295 O319 2.097 . S
Co295 N336 2.151 . S
Co295 N344 2.214 . S
Co296 O297 2.160 . S
Co296 O302 2.058 . S
Co296 O312 2.057 . S
Co296 O327 2.037 . S
Co296 N331 2.145 . S
Co296 N352 2.257 . S
O297 Co295 2.143 . S
O297 Co296 2.160 . S
C298 O299 1.278 . S
C298 O306 1.224 . S
O299 C298 1.278 . S
C300 O301 1.245 . S
C300 O312 1.232 . S
O301 C300 1.245 . S
O302 Co296 2.058 . S
O302 C328 1.269 . S
O303 Co295 2.074 . S
O303 C328 1.257 . S
H304 C329 0.930 . S
H305 C335 0.930 . S
O306 Co295 2.093 . S
O306 C298 1.224 . S
H307 C339 0.929 . S
H308 C341 0.930 . S
H309 C342 0.930 . S
H310 C340 0.929 . S
H311 C343 0.928 . S
O312 Co296 2.057 . S
O312 C300 1.232 . S
H313 C332 0.929 . S
H314 C333 0.929 . S
H315 C345 0.931 . S
H316 C337 0.929 . S
H317 C346 0.930 . S
H318 C338 0.931 . S
O319 Co295 2.097 . S
O319 C347 1.214 . S
H320 C348 0.929 . S
H321 C349 0.929 . S
H322 C350 0.930 . S
H323 C351 0.929 . S
H324 C353 0.930 . S
H325 C330 0.930 . S
H326 C334 0.930 . S
O327 Co296 2.037 . S
O327 C347 1.234 . S
C328 O302 1.269 . S
C328 O303 1.257 . S
C329 H304 0.930 . S
C329 C332 1.388 . S
C329 C334 1.418 . S
C330 H325 0.930 . S
C330 C333 1.404 . S
C330 C334 1.353 . S
N331 Co296 2.145 . S
N331 C332 1.397 . S
N331 C333 1.334 . S
C332 H313 0.929 . S
C332 C329 1.388 . S
C332 N331 1.397 . S
C333 H314 0.929 . S
C333 C330 1.404 . S
C333 N331 1.334 . S
C334 H326 0.930 . S
C334 C329 1.418 . S
C334 C330 1.353 . S
C335 H305 0.930 . S
C335 N336 1.330 . S
C335 C337 1.446 . S
N336 Co295 2.151 . S
N336 C335 1.330 . S
N336 C340 1.418 . S
C337 H316 0.929 . S
C337 C335 1.446 . S
C337 C338 1.332 . S
C338 H318 0.931 . S
C338 C337 1.332 . S
C338 C339 1.267 . S
C339 H307 0.929 . S
C339 C338 1.267 . S
C339 C340 1.251 . S
C340 H310 0.929 . S
C340 N336 1.418 . S
C340 C339 1.251 . S
C341 H308 0.930 . S
C341 C343 1.406 . S
C341 C346 1.261 . S
C342 H309 0.930 . S
C342 N344 1.325 . S
C342 C345 1.357 . S
C343 H311 0.928 . S
C343 C341 1.406 . S
C343 N344 1.261 . S
N344 Co295 2.214 . S
N344 C342 1.325 . S
N344 C343 1.261 . S
C345 H315 0.931 . S
C345 C342 1.357 . S
C345 C346 1.312 . S
C346 H317 0.930 . S
C346 C341 1.261 . S
C346 C345 1.312 . S
C347 O319 1.214 . S
C347 O327 1.234 . S
C348 H320 0.929 . S
C348 C351 1.391 . S
C348 C353 1.391 . S
C349 H321 0.929 . S
C349 C350 1.390 . S
C349 N352 1.391 . S
C350 H322 0.930 . S
C350 C349 1.390 . S
C350 C351 1.392 . S
C351 H323 0.929 . S
C351 C348 1.391 . S
C351 C350 1.392 . S
N352 Co296 2.257 . S
N352 C349 1.391 . S
N352 C353 1.388 . S
C353 H324 0.930 . S
C353 C348 1.391 . S
C353 N352 1.388 . S
Co354 O356 2.143 . S
Co354 O362 2.074 . S
Co354 O365 2.093 . S
Co354 O378 2.097 . S
Co354 N395 2.151 1_545 S
Co354 N403 2.214 . S
Co355 O356 2.160 . S
Co355 O361 2.058 . S
Co355 O371 2.057 . S
Co355 O386 2.037 . S
Co355 N390 2.145 . S
Co355 N411 2.257 . S
O356 Co354 2.143 . S
O356 Co355 2.160 . S
C357 O358 1.278 1_565 S
C357 O365 1.224 1_565 S
O358 C357 1.278 1_545 S
C359 O360 1.245 . S
C359 O371 1.232 . S
O360 C359 1.245 . S
O361 Co355 2.058 . S
O361 C387 1.269 . S
O362 Co354 2.074 . S
O362 C387 1.257 . S
H363 C388 0.930 . S
H364 C394 0.930 . S
O365 Co354 2.093 . S
O365 C357 1.224 1_545 S
H366 C398 0.929 . S
H367 C400 0.930 . S
H368 C401 0.930 . S
H369 C399 0.929 1_545 S
H370 C402 0.928 . S
O371 Co355 2.057 . S
O371 C359 1.232 . S
H372 C391 0.929 . S
H373 C392 0.929 . S
H374 C404 0.931 . S
H375 C396 0.929 . S
H376 C405 0.930 . S
H377 C397 0.931 1_655 S
O378 Co354 2.097 . S
O378 C406 1.214 . S
H379 C407 0.929 . S
H380 C408 0.929 . S
H381 C409 0.930 . S
H382 C410 0.929 . S
H383 C412 0.930 . S
H384 C389 0.930 . S
H385 C393 0.930 . S
O386 Co355 2.037 . S
O386 C406 1.234 . S
C387 O361 1.269 . S
C387 O362 1.257 . S
C388 H363 0.930 . S
C388 C391 1.388 . S
C388 C393 1.418 . S
C389 H384 0.930 . S
C389 C392 1.404 . S
C389 C393 1.353 . S
N390 Co355 2.145 . S
N390 C391 1.397 . S
N390 C392 1.334 . S
C391 H372 0.929 . S
C391 C388 1.388 . S
C391 N390 1.397 . S
C392 H373 0.929 . S
C392 C389 1.404 . S
C392 N390 1.334 . S
C393 H385 0.930 . S
C393 C388 1.418 . S
C393 C389 1.353 . S
C394 H364 0.930 . S
C394 N395 1.330 . S
C394 C396 1.446 . S
N395 Co354 2.151 1_565 S
N395 C394 1.330 . S
N395 C399 1.418 . S
C396 H375 0.929 . S
C396 C394 1.446 . S
C396 C397 1.332 . S
C397 H377 0.931 1_455 S
C397 C396 1.332 . S
C397 C398 1.267 1_455 S
C398 H366 0.929 . S
C398 C397 1.267 1_655 S
C398 C399 1.251 1_655 S
C399 H369 0.929 1_565 S
C399 N395 1.418 . S
C399 C398 1.251 1_455 S
C400 H367 0.930 . S
C400 C402 1.406 . S
C400 C405 1.261 . S
C401 H368 0.930 . S
C401 N403 1.325 . S
C401 C404 1.357 . S
C402 H370 0.928 . S
C402 C400 1.406 . S
C402 N403 1.261 . S
N403 Co354 2.214 . S
N403 C401 1.325 . S
N403 C402 1.261 . S
C404 H374 0.931 . S
C404 C401 1.357 . S
C404 C405 1.312 . S
C405 H376 0.930 . S
C405 C400 1.261 . S
C405 C404 1.312 . S
C406 O378 1.214 . S
C406 O386 1.234 . S
C407 H379 0.929 . S
C407 C410 1.391 . S
C407 C412 1.391 . S
C408 H380 0.929 . S
C408 C409 1.390 . S
C408 N411 1.391 . S
C409 H381 0.930 . S
C409 C408 1.390 . S
C409 C410 1.392 . S
C410 H382 0.929 . S
C410 C407 1.391 . S
C410 C409 1.392 . S
N411 Co355 2.257 . S
N411 C408 1.391 . S
N411 C412 1.388 . S
C412 H383 0.930 . S
C412 C407 1.391 . S
C412 N411 1.388 . S
Co413 O415 2.143 . S
Co413 O421 2.074 . S
Co413 O424 2.093 . S
Co413 O437 2.097 . S
Co413 N454 2.151 . S
Co413 N462 2.214 . S
Co414 O415 2.160 . S
Co414 O420 2.058 . S
Co414 O430 2.057 . S
Co414 O445 2.037 . S
Co414 N449 2.145 . S
Co414 N470 2.257 . S
O415 Co413 2.143 . S
O415 Co414 2.160 . S
C416 O417 1.278 . S
C416 O424 1.224 . S
O417 C416 1.278 . S
C418 O419 1.245 . S
C418 O430 1.232 . S
O419 C418 1.245 . S
O420 Co414 2.058 . S
O420 C446 1.269 . S
O421 Co413 2.074 . S
O421 C446 1.257 . S
H422 C447 0.930 . S
H423 C453 0.930 . S
O424 Co413 2.093 . S
O424 C416 1.224 . S
H425 C457 0.929 . S
H426 C459 0.930 . S
H427 C460 0.930 . S
H428 C458 0.929 . S
H429 C461 0.928 . S
O430 Co414 2.057 . S
O430 C418 1.232 . S
H431 C450 0.929 . S
H432 C451 0.929 . S
H433 C463 0.931 . S
H434 C455 0.929 . S
H435 C464 0.930 . S
H436 C456 0.931 . S
O437 Co413 2.097 . S
O437 C465 1.214 . S
H438 C466 0.929 . S
H439 C467 0.929 . S
H440 C468 0.930 . S
H441 C469 0.929 . S
H442 C471 0.930 . S
H443 C448 0.930 . S
H444 C452 0.930 . S
O445 Co414 2.037 . S
O445 C465 1.234 . S
C446 O420 1.269 . S
C446 O421 1.257 . S
C447 H422 0.930 . S
C447 C450 1.388 . S
C447 C452 1.418 . S
C448 H443 0.930 . S
C448 C451 1.404 . S
C448 C452 1.353 . S
N449 Co414 2.145 . S
N449 C450 1.397 . S
N449 C451 1.334 . S
C450 H431 0.929 . S
C450 C447 1.388 . S
C450 N449 1.397 . S
C451 H432 0.929 . S
C451 C448 1.404 . S
C451 N449 1.334 . S
C452 H444 0.930 . S
C452 C447 1.418 . S
C452 C448 1.353 . S
C453 H423 0.930 . S
C453 N454 1.330 . S
C453 C455 1.446 . S
N454 Co413 2.151 . S
N454 C453 1.330 . S
N454 C458 1.418 . S
C455 H434 0.929 . S
C455 C453 1.446 . S
C455 C456 1.332 . S
C456 H436 0.931 . S
C456 C455 1.332 . S
C456 C457 1.267 . S
C457 H425 0.929 . S
C457 C456 1.267 . S
C457 C458 1.251 . S
C458 H428 0.929 . S
C458 N454 1.418 . S
C458 C457 1.251 . S
C459 H426 0.930 . S
C459 C461 1.406 . S
C459 C464 1.261 . S
C460 H427 0.930 . S
C460 N462 1.325 . S
C460 C463 1.357 . S
C461 H429 0.928 . S
C461 C459 1.406 . S
C461 N462 1.261 . S
N462 Co413 2.214 . S
N462 C460 1.325 . S
N462 C461 1.261 . S
C463 H433 0.931 . S
C463 C460 1.357 . S
C463 C464 1.312 . S
C464 H435 0.930 . S
C464 C459 1.261 . S
C464 C463 1.312 . S
C465 O437 1.214 . S
C465 O445 1.234 . S
C466 H438 0.929 . S
C466 C469 1.391 . S
C466 C471 1.391 . S
C467 H439 0.929 . S
C467 C468 1.390 . S
C467 N470 1.391 . S
C468 H440 0.930 . S
C468 C467 1.390 . S
C468 C469 1.392 . S
C469 H441 0.929 . S
C469 C466 1.391 . S
C469 C468 1.392 . S
N470 Co414 2.257 . S
N470 C467 1.391 . S
N470 C471 1.388 . S
C471 H442 0.930 . S
C471 C466 1.391 . S
C471 N470 1.388 . S
Co472 O474 2.143 . S
Co472 O480 2.074 . S
Co472 O483 2.093 . S
Co472 O496 2.097 . S
Co472 N513 2.151 1_565 S
Co472 N521 2.214 . S
Co473 O474 2.160 . S
Co473 O479 2.058 . S
Co473 O489 2.057 . S
Co473 O504 2.037 . S
Co473 N508 2.145 . S
Co473 N529 2.257 . S
O474 Co472 2.143 . S
O474 Co473 2.160 . S
C475 O476 1.278 1_545 S
C475 O483 1.224 1_545 S
O476 C475 1.278 1_565 S
C477 O478 1.245 . S
C477 O489 1.232 . S
O478 C477 1.245 . S
O479 Co473 2.058 . S
O479 C505 1.269 . S
O480 Co472 2.074 . S
O480 C505 1.257 . S
H481 C506 0.930 . S
H482 C512 0.930 . S
O483 Co472 2.093 . S
O483 C475 1.224 1_565 S
H484 C516 0.929 . S
H485 C518 0.930 . S
H486 C519 0.930 . S
H487 C517 0.929 1_565 S
H488 C520 0.928 . S
O489 Co473 2.057 . S
O489 C477 1.232 . S
H490 C509 0.929 . S
H491 C510 0.929 . S
H492 C522 0.931 . S
H493 C514 0.929 . S
H494 C523 0.930 . S
H495 C515 0.931 . S
O496 Co472 2.097 . S
O496 C524 1.214 . S
H497 C525 0.929 . S
H498 C526 0.929 . S
H499 C527 0.930 . S
H500 C528 0.929 . S
H501 C530 0.930 . S
H502 C507 0.930 . S
H503 C511 0.930 . S
O504 Co473 2.037 . S
O504 C524 1.234 . S
C505 O479 1.269 . S
C505 O480 1.257 . S
C506 H481 0.930 . S
C506 C509 1.388 . S
C506 C511 1.418 . S
C507 H502 0.930 . S
C507 C510 1.404 . S
C507 C511 1.353 . S
N508 Co473 2.145 . S
N508 C509 1.397 . S
N508 C510 1.334 . S
C509 H490 0.929 . S
C509 C506 1.388 . S
C509 N508 1.397 . S
C510 H491 0.929 . S
C510 C507 1.404 . S
C510 N508 1.334 . S
C511 H503 0.930 . S
C511 C506 1.418 . S
C511 C507 1.353 . S
C512 H482 0.930 . S
C512 N513 1.330 . S
C512 C514 1.446 . S
N513 Co472 2.151 1_545 S
N513 C512 1.330 . S
N513 C517 1.418 . S
C514 H493 0.929 . S
C514 C512 1.446 . S
C514 C515 1.332 . S
C515 H495 0.931 . S
C515 C514 1.332 . S
C515 C516 1.267 . S
C516 H484 0.929 . S
C516 C515 1.267 . S
C516 C517 1.251 . S
C517 H487 0.929 1_545 S
C517 N513 1.418 . S
C517 C516 1.251 . S
C518 H485 0.930 . S
C518 C520 1.406 . S
C518 C523 1.261 . S
C519 H486 0.930 . S
C519 N521 1.325 . S
C519 C522 1.357 . S
C520 H488 0.928 . S
C520 C518 1.406 . S
C520 N521 1.261 . S
N521 Co472 2.214 . S
N521 C519 1.325 . S
N521 C520 1.261 . S
C522 H492 0.931 . S
C522 C519 1.357 . S
C522 C523 1.312 . S
C523 H494 0.930 . S
C523 C518 1.261 . S
C523 C522 1.312 . S
C524 O496 1.214 . S
C524 O504 1.234 . S
C525 H497 0.929 . S
C525 C528 1.391 . S
C525 C530 1.391 . S
C526 H498 0.929 . S
C526 C527 1.390 . S
C526 N529 1.391 . S
C527 H499 0.930 . S
C527 C526 1.390 . S
C527 C528 1.392 . S
C528 H500 0.929 . S
C528 C525 1.391 . S
C528 C527 1.392 . S
N529 Co473 2.257 . S
N529 C526 1.391 . S
N529 C530 1.388 . S
C530 H501 0.930 . S
C530 C525 1.391 . S
C530 N529 1.388 . S
Co531 O533 2.143 . S
Co531 O539 2.074 . S
Co531 O542 2.093 . S
Co531 O555 2.097 . S
Co531 N572 2.151 . S
Co531 N580 2.214 . S
Co532 O533 2.160 . S
Co532 O538 2.058 . S
Co532 O548 2.057 . S
Co532 O563 2.037 . S
Co532 N567 2.145 . S
Co532 N588 2.257 . S
O533 Co531 2.143 . S
O533 Co532 2.160 . S
C534 O535 1.278 . S
C534 O542 1.224 . S
O535 C534 1.278 . S
C536 O537 1.245 . S
C536 O548 1.232 . S
O537 C536 1.245 . S
O538 Co532 2.058 . S
O538 C564 1.269 . S
O539 Co531 2.074 . S
O539 C564 1.257 . S
H540 C565 0.930 . S
H541 C571 0.930 . S
O542 Co531 2.093 . S
O542 C534 1.224 . S
H543 C575 0.929 . S
H544 C577 0.930 . S
H545 C578 0.930 . S
H546 C576 0.929 . S
H547 C579 0.928 . S
O548 Co532 2.057 . S
O548 C536 1.232 . S
H549 C568 0.929 . S
H550 C569 0.929 . S
H551 C581 0.931 . S
H552 C573 0.929 . S
H553 C582 0.930 . S
H554 C574 0.931 . S
O555 Co531 2.097 . S
O555 C583 1.214 . S
H556 C584 0.929 . S
H557 C585 0.929 . S
H558 C586 0.930 . S
H559 C587 0.929 . S
H560 C589 0.930 . S
H561 C566 0.930 . S
H562 C570 0.930 . S
O563 Co532 2.037 . S
O563 C583 1.234 . S
C564 O538 1.269 . S
C564 O539 1.257 . S
C565 H540 0.930 . S
C565 C568 1.388 . S
C565 C570 1.418 . S
C566 H561 0.930 . S
C566 C569 1.404 . S
C566 C570 1.353 . S
N567 Co532 2.145 . S
N567 C568 1.397 . S
N567 C569 1.334 . S
C568 H549 0.929 . S
C568 C565 1.388 . S
C568 N567 1.397 . S
C569 H550 0.929 . S
C569 C566 1.404 . S
C569 N567 1.334 . S
C570 H562 0.930 . S
C570 C565 1.418 . S
C570 C566 1.353 . S
C571 H541 0.930 . S
C571 N572 1.330 . S
C571 C573 1.446 . S
N572 Co531 2.151 . S
N572 C571 1.330 . S
N572 C576 1.418 . S
C573 H552 0.929 . S
C573 C571 1.446 . S
C573 C574 1.332 . S
C574 H554 0.931 . S
C574 C573 1.332 . S
C574 C575 1.267 . S
C575 H543 0.929 . S
C575 C574 1.267 . S
C575 C576 1.251 . S
C576 H546 0.929 . S
C576 N572 1.418 . S
C576 C575 1.251 . S
C577 H544 0.930 . S
C577 C579 1.406 . S
C577 C582 1.261 . S
C578 H545 0.930 . S
C578 N580 1.325 . S
C578 C581 1.357 . S
C579 H547 0.928 . S
C579 C577 1.406 . S
C579 N580 1.261 . S
N580 Co531 2.214 . S
N580 C578 1.325 . S
N580 C579 1.261 . S
C581 H551 0.931 . S
C581 C578 1.357 . S
C581 C582 1.312 . S
C582 H553 0.930 . S
C582 C577 1.261 . S
C582 C581 1.312 . S
C583 O555 1.214 . S
C583 O563 1.234 . S
C584 H556 0.929 . S
C584 C587 1.391 . S
C584 C589 1.391 . S
C585 H557 0.929 . S
C585 C586 1.390 . S
C585 N588 1.391 . S
C586 H558 0.930 . S
C586 C585 1.390 . S
C586 C587 1.392 . S
C587 H559 0.929 . S
C587 C584 1.391 . S
C587 C586 1.392 . S
N588 Co532 2.257 . S
N588 C585 1.391 . S
N588 C589 1.388 . S
C589 H560 0.930 . S
C589 C584 1.391 . S
C589 N588 1.388 . S
Co590 O592 2.143 . S
Co590 O598 2.074 . S
Co590 O601 2.093 . S
Co590 O614 2.097 . S
Co590 N631 2.151 1_545 S
Co590 N639 2.214 . S
Co591 O592 2.160 . S
Co591 O597 2.058 . S
Co591 O607 2.057 . S
Co591 O622 2.037 . S
Co591 N626 2.145 . S
Co591 N647 2.257 . S
O592 Co590 2.143 . S
O592 Co591 2.160 . S
C593 O594 1.278 1_565 S
C593 O601 1.224 1_565 S
O594 C593 1.278 1_545 S
C595 O596 1.245 . S
C595 O607 1.232 . S
O596 C595 1.245 . S
O597 Co591 2.058 . S
O597 C623 1.269 . S
O598 Co590 2.074 . S
O598 C623 1.257 . S
H599 C624 0.930 . S
H600 C630 0.930 . S
O601 Co590 2.093 . S
O601 C593 1.224 1_545 S
H602 C634 0.929 . S
H603 C636 0.930 . S
H604 C637 0.930 . S
H605 C635 0.929 1_545 S
H606 C638 0.928 . S
O607 Co591 2.057 . S
O607 C595 1.232 . S
H608 C627 0.929 . S
H609 C628 0.929 . S
H610 C640 0.931 . S
H611 C632 0.929 . S
H612 C641 0.930 . S
H613 C633 0.931 1_455 S
O614 Co590 2.097 . S
O614 C642 1.214 . S
H615 C643 0.929 . S
H616 C644 0.929 . S
H617 C645 0.930 . S
H618 C646 0.929 . S
H619 C648 0.930 . S
H620 C625 0.930 . S
H621 C629 0.930 . S
O622 Co591 2.037 . S
O622 C642 1.234 . S
C623 O597 1.269 . S
C623 O598 1.257 . S
C624 H599 0.930 . S
C624 C627 1.388 . S
C624 C629 1.418 . S
C625 H620 0.930 . S
C625 C628 1.404 . S
C625 C629 1.353 . S
N626 Co591 2.145 . S
N626 C627 1.397 . S
N626 C628 1.334 . S
C627 H608 0.929 . S
C627 C624 1.388 . S
C627 N626 1.397 . S
C628 H609 0.929 . S
C628 C625 1.404 . S
C628 N626 1.334 . S
C629 H621 0.930 . S
C629 C624 1.418 . S
C629 C625 1.353 . S
C630 H600 0.930 . S
C630 N631 1.330 . S
C630 C632 1.446 . S
N631 Co590 2.151 1_565 S
N631 C630 1.330 . S
N631 C635 1.418 . S
C632 H611 0.929 . S
C632 C630 1.446 . S
C632 C633 1.332 . S
C633 H613 0.931 1_655 S
C633 C632 1.332 . S
C633 C634 1.267 1_655 S
C634 H602 0.929 . S
C634 C633 1.267 1_455 S
C634 C635 1.251 1_455 S
C635 H605 0.929 1_565 S
C635 N631 1.418 . S
C635 C634 1.251 1_655 S
C636 H603 0.930 . S
C636 C638 1.406 . S
C636 C641 1.261 . S
C637 H604 0.930 . S
C637 N639 1.325 . S
C637 C640 1.357 . S
C638 H606 0.928 . S
C638 C636 1.406 . S
C638 N639 1.261 . S
N639 Co590 2.214 . S
N639 C637 1.325 . S
N639 C638 1.261 . S
C640 H610 0.931 . S
C640 C637 1.357 . S
C640 C641 1.312 . S
C641 H612 0.930 . S
C641 C636 1.261 . S
C641 C640 1.312 . S
C642 O614 1.214 . S
C642 O622 1.234 . S
C643 H615 0.929 . S
C643 C646 1.391 . S
C643 C648 1.391 . S
C644 H616 0.929 . S
C644 C645 1.390 . S
C644 N647 1.391 . S
C645 H617 0.930 . S
C645 C644 1.390 . S
C645 C646 1.392 . S
C646 H618 0.929 . S
C646 C643 1.391 . S
C646 C645 1.392 . S
N647 Co591 2.257 . S
N647 C644 1.391 . S
N647 C648 1.388 . S
C648 H619 0.930 . S
C648 C643 1.391 . S
C648 N647 1.388 . S
Co649 O651 2.143 . S
Co649 O657 2.074 . S
Co649 O660 2.093 . S
Co649 O673 2.097 . S
Co649 N690 2.151 . S
Co649 N698 2.214 . S
Co650 O651 2.160 . S
Co650 O656 2.058 . S
Co650 O666 2.057 . S
Co650 O681 2.037 . S
Co650 N685 2.145 . S
Co650 N706 2.257 . S
O651 Co649 2.143 . S
O651 Co650 2.160 . S
C652 O653 1.278 . S
C652 O660 1.224 . S
O653 C652 1.278 . S
C654 O655 1.245 . S
C654 O666 1.232 . S
O655 C654 1.245 . S
O656 Co650 2.058 . S
O656 C682 1.269 . S
O657 Co649 2.074 . S
O657 C682 1.257 . S
H658 C683 0.930 . S
H659 C689 0.930 . S
O660 Co649 2.093 . S
O660 C652 1.224 . S
H661 C693 0.929 . S
H662 C695 0.930 . S
H663 C696 0.930 . S
H664 C694 0.929 . S
H665 C697 0.928 . S
O666 Co650 2.057 . S
O666 C654 1.232 . S
H667 C686 0.929 . S
H668 C687 0.929 . S
H669 C699 0.931 . S
H670 C691 0.929 . S
H671 C700 0.930 . S
H672 C692 0.931 . S
O673 Co649 2.097 . S
O673 C701 1.214 . S
H674 C702 0.929 . S
H675 C703 0.929 . S
H676 C704 0.930 . S
H677 C705 0.929 . S
H678 C707 0.930 . S
H679 C684 0.930 . S
H680 C688 0.930 . S
O681 Co650 2.037 . S
O681 C701 1.234 . S
C682 O656 1.269 . S
C682 O657 1.257 . S
C683 H658 0.930 . S
C683 C686 1.388 . S
C683 C688 1.418 . S
C684 H679 0.930 . S
C684 C687 1.404 . S
C684 C688 1.353 . S
N685 Co650 2.145 . S
N685 C686 1.397 . S
N685 C687 1.334 . S
C686 H667 0.929 . S
C686 C683 1.388 . S
C686 N685 1.397 . S
C687 H668 0.929 . S
C687 C684 1.404 . S
C687 N685 1.334 . S
C688 H680 0.930 . S
C688 C683 1.418 . S
C688 C684 1.353 . S
C689 H659 0.930 . S
C689 N690 1.330 . S
C689 C691 1.446 . S
N690 Co649 2.151 . S
N690 C689 1.330 . S
N690 C694 1.418 . S
C691 H670 0.929 . S
C691 C689 1.446 . S
C691 C692 1.332 . S
C692 H672 0.931 . S
C692 C691 1.332 . S
C692 C693 1.267 . S
C693 H661 0.929 . S
C693 C692 1.267 . S
C693 C694 1.251 . S
C694 H664 0.929 . S
C694 N690 1.418 . S
C694 C693 1.251 . S
C695 H662 0.930 . S
C695 C697 1.406 . S
C695 C700 1.261 . S
C696 H663 0.930 . S
C696 N698 1.325 . S
C696 C699 1.357 . S
C697 H665 0.928 . S
C697 C695 1.406 . S
C697 N698 1.261 . S
N698 Co649 2.214 . S
N698 C696 1.325 . S
N698 C697 1.261 . S
C699 H669 0.931 . S
C699 C696 1.357 . S
C699 C700 1.312 . S
C700 H671 0.930 . S
C700 C695 1.261 . S
C700 C699 1.312 . S
C701 O673 1.214 . S
C701 O681 1.234 . S
C702 H674 0.929 . S
C702 C705 1.391 . S
C702 C707 1.391 . S
C703 H675 0.929 . S
C703 C704 1.390 . S
C703 N706 1.391 . S
C704 H676 0.930 . S
C704 C703 1.390 . S
C704 C705 1.392 . S
C705 H677 0.929 . S
C705 C702 1.391 . S
C705 C704 1.392 . S
N706 Co650 2.257 . S
N706 C703 1.391 . S
N706 C707 1.388 . S
C707 H678 0.930 . S
C707 C702 1.391 . S
C707 N706 1.388 . S
Co708 O710 2.143 . S
Co708 O716 2.074 . S
Co708 O719 2.093 . S
Co708 O732 2.097 . S
Co708 N749 2.151 1_545 S
Co708 N757 2.214 . S
Co709 O710 2.160 . S
Co709 O715 2.058 . S
Co709 O725 2.057 . S
Co709 O740 2.037 . S
Co709 N744 2.145 . S
Co709 N765 2.257 . S
O710 Co708 2.143 . S
O710 Co709 2.160 . S
C711 O712 1.278 1_565 S
C711 O719 1.224 1_565 S
O712 C711 1.278 1_545 S
C713 O714 1.245 . S
C713 O725 1.232 . S
O714 C713 1.245 . S
O715 Co709 2.058 . S
O715 C741 1.269 . S
O716 Co708 2.074 . S
O716 C741 1.257 . S
H717 C742 0.930 . S
H718 C748 0.930 . S
O719 Co708 2.093 . S
O719 C711 1.224 1_545 S
H720 C752 0.929 . S
H721 C754 0.930 . S
H722 C755 0.930 . S
H723 C753 0.929 1_545 S
H724 C756 0.928 . S
O725 Co709 2.057 . S
O725 C713 1.232 . S
H726 C745 0.929 . S
H727 C746 0.929 . S
H728 C758 0.931 . S
H729 C750 0.929 . S
H730 C759 0.930 . S
H731 C751 0.931 . S
O732 Co708 2.097 . S
O732 C760 1.214 . S
H733 C761 0.929 . S
H734 C762 0.929 . S
H735 C763 0.930 . S
H736 C764 0.929 . S
H737 C766 0.930 . S
H738 C743 0.930 . S
H739 C747 0.930 . S
O740 Co709 2.037 . S
O740 C760 1.234 . S
C741 O715 1.269 . S
C741 O716 1.257 . S
C742 H717 0.930 . S
C742 C745 1.388 . S
C742 C747 1.418 . S
C743 H738 0.930 . S
C743 C746 1.404 . S
C743 C747 1.353 . S
N744 Co709 2.145 . S
N744 C745 1.397 . S
N744 C746 1.334 . S
C745 H726 0.929 . S
C745 C742 1.388 . S
C745 N744 1.397 . S
C746 H727 0.929 . S
C746 C743 1.404 . S
C746 N744 1.334 . S
C747 H739 0.930 . S
C747 C742 1.418 . S
C747 C743 1.353 . S
C748 H718 0.930 . S
C748 N749 1.330 . S
C748 C750 1.446 . S
N749 Co708 2.151 1_565 S
N749 C748 1.330 . S
N749 C753 1.418 . S
C750 H729 0.929 . S
C750 C748 1.446 . S
C750 C751 1.332 . S
C751 H731 0.931 . S
C751 C750 1.332 . S
C751 C752 1.267 . S
C752 H720 0.929 . S
C752 C751 1.267 . S
C752 C753 1.251 . S
C753 H723 0.929 1_565 S
C753 N749 1.418 . S
C753 C752 1.251 . S
C754 H721 0.930 . S
C754 C756 1.406 . S
C754 C759 1.261 . S
C755 H722 0.930 . S
C755 N757 1.325 . S
C755 C758 1.357 . S
C756 H724 0.928 . S
C756 C754 1.406 . S
C756 N757 1.261 . S
N757 Co708 2.214 . S
N757 C755 1.325 . S
N757 C756 1.261 . S
C758 H728 0.931 . S
C758 C755 1.357 . S
C758 C759 1.312 . S
C759 H730 0.930 . S
C759 C754 1.261 . S
C759 C758 1.312 . S
C760 O732 1.214 . S
C760 O740 1.234 . S
C761 H733 0.929 . S
C761 C764 1.391 . S
C761 C766 1.391 . S
C762 H734 0.929 . S
C762 C763 1.390 . S
C762 N765 1.391 . S
C763 H735 0.930 . S
C763 C762 1.390 . S
C763 C764 1.392 . S
C764 H736 0.929 . S
C764 C761 1.391 . S
C764 C763 1.392 . S
N765 Co709 2.257 . S
N765 C762 1.391 . S
N765 C766 1.388 . S
C766 H737 0.930 . S
C766 C761 1.391 . S
C766 N765 1.388 . S
Co767 O769 2.143 . S
Co767 O775 2.074 . S
Co767 O778 2.093 . S
Co767 O791 2.097 . S
Co767 N808 2.151 . S
Co767 N816 2.214 . S
Co768 O769 2.160 . S
Co768 O774 2.058 . S
Co768 O784 2.057 . S
Co768 O799 2.037 . S
Co768 N803 2.145 . S
Co768 N824 2.257 . S
O769 Co767 2.143 . S
O769 Co768 2.160 . S
C770 O771 1.278 . S
C770 O778 1.224 . S
O771 C770 1.278 . S
C772 O773 1.245 . S
C772 O784 1.232 . S
O773 C772 1.245 . S
O774 Co768 2.058 . S
O774 C800 1.269 . S
O775 Co767 2.074 . S
O775 C800 1.257 . S
H776 C801 0.930 . S
H777 C807 0.930 . S
O778 Co767 2.093 . S
O778 C770 1.224 . S
H779 C811 0.929 . S
H780 C813 0.930 . S
H781 C814 0.930 . S
H782 C812 0.929 . S
H783 C815 0.928 . S
O784 Co768 2.057 . S
O784 C772 1.232 . S
H785 C804 0.929 . S
H786 C805 0.929 . S
H787 C817 0.931 . S
H788 C809 0.929 . S
H789 C818 0.930 . S
H790 C810 0.931 . S
O791 Co767 2.097 . S
O791 C819 1.214 . S
H792 C820 0.929 . S
H793 C821 0.929 . S
H794 C822 0.930 . S
H795 C823 0.929 . S
H796 C825 0.930 . S
H797 C802 0.930 . S
H798 C806 0.930 . S
O799 Co768 2.037 . S
O799 C819 1.234 . S
C800 O774 1.269 . S
C800 O775 1.257 . S
C801 H776 0.930 . S
C801 C804 1.388 . S
C801 C806 1.418 . S
C802 H797 0.930 . S
C802 C805 1.404 . S
C802 C806 1.353 . S
N803 Co768 2.145 . S
N803 C804 1.397 . S
N803 C805 1.334 . S
C804 H785 0.929 . S
C804 C801 1.388 . S
C804 N803 1.397 . S
C805 H786 0.929 . S
C805 C802 1.404 . S
C805 N803 1.334 . S
C806 H798 0.930 . S
C806 C801 1.418 . S
C806 C802 1.353 . S
C807 H777 0.930 . S
C807 N808 1.330 . S
C807 C809 1.446 . S
N808 Co767 2.151 . S
N808 C807 1.330 . S
N808 C812 1.418 . S
C809 H788 0.929 . S
C809 C807 1.446 . S
C809 C810 1.332 . S
C810 H790 0.931 . S
C810 C809 1.332 . S
C810 C811 1.267 . S
C811 H779 0.929 . S
C811 C810 1.267 . S
C811 C812 1.251 . S
C812 H782 0.929 . S
C812 N808 1.418 . S
C812 C811 1.251 . S
C813 H780 0.930 . S
C813 C815 1.406 . S
C813 C818 1.261 . S
C814 H781 0.930 . S
C814 N816 1.325 . S
C814 C817 1.357 . S
C815 H783 0.928 . S
C815 C813 1.406 . S
C815 N816 1.261 . S
N816 Co767 2.214 . S
N816 C814 1.325 . S
N816 C815 1.261 . S
C817 H787 0.931 . S
C817 C814 1.357 . S
C817 C818 1.312 . S
C818 H789 0.930 . S
C818 C813 1.261 . S
C818 C817 1.312 . S
C819 O791 1.214 . S
C819 O799 1.234 . S
C820 H792 0.929 . S
C820 C823 1.391 . S
C820 C825 1.391 . S
C821 H793 0.929 . S
C821 C822 1.390 . S
C821 N824 1.391 . S
C822 H794 0.930 . S
C822 C821 1.390 . S
C822 C823 1.392 . S
C823 H795 0.929 . S
C823 C820 1.391 . S
C823 C822 1.392 . S
N824 Co768 2.257 . S
N824 C821 1.391 . S
N824 C825 1.388 . S
C825 H796 0.930 . S
C825 C820 1.391 . S
C825 N824 1.388 . S
Co826 O828 2.143 . S
Co826 O834 2.074 . S
Co826 O837 2.093 . S
Co826 O850 2.097 . S
Co826 N867 2.151 1_565 S
Co826 N875 2.214 . S
Co827 O828 2.160 . S
Co827 O833 2.058 . S
Co827 O843 2.057 . S
Co827 O858 2.037 . S
Co827 N862 2.145 . S
Co827 N883 2.257 . S
O828 Co826 2.143 . S
O828 Co827 2.160 . S
C829 O830 1.278 1_545 S
C829 O837 1.224 1_545 S
O830 C829 1.278 1_565 S
C831 O832 1.245 . S
C831 O843 1.232 . S
O832 C831 1.245 . S
O833 Co827 2.058 . S
O833 C859 1.269 . S
O834 Co826 2.074 . S
O834 C859 1.257 . S
H835 C860 0.930 . S
H836 C866 0.930 . S
O837 Co826 2.093 . S
O837 C829 1.224 1_565 S
H838 C870 0.929 . S
H839 C872 0.930 . S
H840 C873 0.930 . S
H841 C871 0.929 1_565 S
H842 C874 0.928 . S
O843 Co827 2.057 . S
O843 C831 1.232 . S
H844 C863 0.929 . S
H845 C864 0.929 . S
H846 C876 0.931 . S
H847 C868 0.929 . S
H848 C877 0.930 . S
H849 C869 0.931 1_455 S
O850 Co826 2.097 . S
O850 C878 1.214 . S
H851 C879 0.929 . S
H852 C880 0.929 . S
H853 C881 0.930 . S
H854 C882 0.929 . S
H855 C884 0.930 . S
H856 C861 0.930 . S
H857 C865 0.930 . S
O858 Co827 2.037 . S
O858 C878 1.234 . S
C859 O833 1.269 . S
C859 O834 1.257 . S
C860 H835 0.930 . S
C860 C863 1.388 . S
C860 C865 1.418 . S
C861 H856 0.930 . S
C861 C864 1.404 . S
C861 C865 1.353 . S
N862 Co827 2.145 . S
N862 C863 1.397 . S
N862 C864 1.334 . S
C863 H844 0.929 . S
C863 C860 1.388 . S
C863 N862 1.397 . S
C864 H845 0.929 . S
C864 C861 1.404 . S
C864 N862 1.334 . S
C865 H857 0.930 . S
C865 C860 1.418 . S
C865 C861 1.353 . S
C866 H836 0.930 . S
C866 N867 1.330 . S
C866 C868 1.446 . S
N867 Co826 2.151 1_545 S
N867 C866 1.330 . S
N867 C871 1.418 . S
C868 H847 0.929 . S
C868 C866 1.446 . S
C868 C869 1.332 . S
C869 H849 0.931 1_655 S
C869 C868 1.332 . S
C869 C870 1.267 1_655 S
C870 H838 0.929 . S
C870 C869 1.267 1_455 S
C870 C871 1.251 1_455 S
C871 H841 0.929 1_545 S
C871 N867 1.418 . S
C871 C870 1.251 1_655 S
C872 H839 0.930 . S
C872 C874 1.406 . S
C872 C877 1.261 . S
C873 H840 0.930 . S
C873 N875 1.325 . S
C873 C876 1.357 . S
C874 H842 0.928 . S
C874 C872 1.406 . S
C874 N875 1.261 . S
N875 Co826 2.214 . S
N875 C873 1.325 . S
N875 C874 1.261 . S
C876 H846 0.931 . S
C876 C873 1.357 . S
C876 C877 1.312 . S
C877 H848 0.930 . S
C877 C872 1.261 . S
C877 C876 1.312 . S
C878 O850 1.214 . S
C878 O858 1.234 . S
C879 H851 0.929 . S
C879 C882 1.391 . S
C879 C884 1.391 . S
C880 H852 0.929 . S
C880 C881 1.390 . S
C880 N883 1.391 . S
C881 H853 0.930 . S
C881 C880 1.390 . S
C881 C882 1.392 . S
C882 H854 0.929 . S
C882 C879 1.391 . S
C882 C881 1.392 . S
N883 Co827 2.257 . S
N883 C880 1.391 . S
N883 C884 1.388 . S
C884 H855 0.930 . S
C884 C879 1.391 . S
C884 N883 1.388 . S
Co885 O887 2.143 . S
Co885 O893 2.074 . S
Co885 O896 2.093 . S
Co885 O909 2.097 . S
Co885 N926 2.151 . S
Co885 N934 2.214 . S
Co886 O887 2.160 . S
Co886 O892 2.058 . S
Co886 O902 2.057 . S
Co886 O917 2.037 . S
Co886 N921 2.145 . S
Co886 N942 2.257 . S
O887 Co885 2.143 . S
O887 Co886 2.160 . S
C888 O889 1.278 . S
C888 O896 1.224 . S
O889 C888 1.278 . S
C890 O891 1.245 . S
C890 O902 1.232 . S
O891 C890 1.245 . S
O892 Co886 2.058 . S
O892 C918 1.269 . S
O893 Co885 2.074 . S
O893 C918 1.257 . S
H894 C919 0.930 . S
H895 C925 0.930 . S
O896 Co885 2.093 . S
O896 C888 1.224 . S
H897 C929 0.929 . S
H898 C931 0.930 . S
H899 C932 0.930 . S
H900 C930 0.929 . S
H901 C933 0.928 . S
O902 Co886 2.057 . S
O902 C890 1.232 . S
H903 C922 0.929 . S
H904 C923 0.929 . S
H905 C935 0.931 . S
H906 C927 0.929 . S
H907 C936 0.930 . S
H908 C928 0.931 . S
O909 Co885 2.097 . S
O909 C937 1.214 . S
H910 C938 0.929 . S
H911 C939 0.929 . S
H912 C940 0.930 . S
H913 C941 0.929 . S
H914 C943 0.930 . S
H915 C920 0.930 . S
H916 C924 0.930 . S
O917 Co886 2.037 . S
O917 C937 1.234 . S
C918 O892 1.269 . S
C918 O893 1.257 . S
C919 H894 0.930 . S
C919 C922 1.388 . S
C919 C924 1.418 . S
C920 H915 0.930 . S
C920 C923 1.404 . S
C920 C924 1.353 . S
N921 Co886 2.145 . S
N921 C922 1.397 . S
N921 C923 1.334 . S
C922 H903 0.929 . S
C922 C919 1.388 . S
C922 N921 1.397 . S
C923 H904 0.929 . S
C923 C920 1.404 . S
C923 N921 1.334 . S
C924 H916 0.930 . S
C924 C919 1.418 . S
C924 C920 1.353 . S
C925 H895 0.930 . S
C925 N926 1.330 . S
C925 C927 1.446 . S
N926 Co885 2.151 . S
N926 C925 1.330 . S
N926 C930 1.418 . S
C927 H906 0.929 . S
C927 C925 1.446 . S
C927 C928 1.332 . S
C928 H908 0.931 . S
C928 C927 1.332 . S
C928 C929 1.267 . S
C929 H897 0.929 . S
C929 C928 1.267 . S
C929 C930 1.251 . S
C930 H900 0.929 . S
C930 N926 1.418 . S
C930 C929 1.251 . S
C931 H898 0.930 . S
C931 C933 1.406 . S
C931 C936 1.261 . S
C932 H899 0.930 . S
C932 N934 1.325 . S
C932 C935 1.357 . S
C933 H901 0.928 . S
C933 C931 1.406 . S
C933 N934 1.261 . S
N934 Co885 2.214 . S
N934 C932 1.325 . S
N934 C933 1.261 . S
C935 H905 0.931 . S
C935 C932 1.357 . S
C935 C936 1.312 . S
C936 H907 0.930 . S
C936 C931 1.261 . S
C936 C935 1.312 . S
C937 O909 1.214 . S
C937 O917 1.234 . S
C938 H910 0.929 . S
C938 C941 1.391 . S
C938 C943 1.391 . S
C939 H911 0.929 . S
C939 C940 1.390 . S
C939 N942 1.391 . S
C940 H912 0.930 . S
C940 C939 1.390 . S
C940 C941 1.392 . S
C941 H913 0.929 . S
C941 C938 1.391 . S
C941 C940 1.392 . S
N942 Co886 2.257 . S
N942 C939 1.391 . S
N942 C943 1.388 . S
C943 H914 0.930 . S
C943 C938 1.391 . S
C943 N942 1.388 . S
Co944 O946 2.143 . S
Co944 O952 2.074 . S
Co944 O955 2.093 . S
Co944 O968 2.097 . S
Co944 N985 2.151 . S
Co944 N993 2.214 . S
Co945 O946 2.160 . S
Co945 O951 2.058 . S
Co945 O961 2.057 . S
Co945 O976 2.037 . S
Co945 N980 2.145 . S
Co945 N1001 2.257 . S
O946 Co944 2.143 . S
O946 Co945 2.160 . S
C947 O948 1.278 . S
C947 O955 1.224 . S
O948 C947 1.278 . S
C949 O950 1.245 . S
C949 O961 1.232 . S
O950 C949 1.245 . S
O951 Co945 2.058 . S
O951 C977 1.269 . S
O952 Co944 2.074 . S
O952 C977 1.257 . S
H953 C978 0.930 . S
H954 C984 0.930 . S
O955 Co944 2.093 . S
O955 C947 1.224 . S
H956 C988 0.929 . S
H957 C990 0.930 . S
H958 C991 0.930 . S
H959 C989 0.929 . S
H960 C992 0.928 . S
O961 Co945 2.057 . S
O961 C949 1.232 . S
H962 C981 0.929 . S
H963 C982 0.929 . S
H964 C994 0.931 . S
H965 C986 0.929 . S
H966 C995 0.930 . S
H967 C987 0.931 1_455 S
O968 Co944 2.097 . S
O968 C996 1.214 . S
H969 C997 0.929 . S
H970 C998 0.929 . S
H971 C999 0.930 . S
H972 C1000 0.929 . S
H973 C1002 0.930 . S
H974 C979 0.930 . S
H975 C983 0.930 . S
O976 Co945 2.037 . S
O976 C996 1.234 . S
C977 O951 1.269 . S
C977 O952 1.257 . S
C978 H953 0.930 . S
C978 C981 1.388 . S
C978 C983 1.418 . S
C979 H974 0.930 . S
C979 C982 1.404 . S
C979 C983 1.353 . S
N980 Co945 2.145 . S
N980 C981 1.397 . S
N980 C982 1.334 . S
C981 H962 0.929 . S
C981 C978 1.388 . S
C981 N980 1.397 . S
C982 H963 0.929 . S
C982 C979 1.404 . S
C982 N980 1.334 . S
C983 H975 0.930 . S
C983 C978 1.418 . S
C983 C979 1.353 . S
C984 H954 0.930 . S
C984 N985 1.330 . S
C984 C986 1.446 . S
N985 Co944 2.151 . S
N985 C984 1.330 . S
N985 C989 1.418 . S
C986 H965 0.929 . S
C986 C984 1.446 . S
C986 C987 1.332 . S
C987 H967 0.931 1_655 S
C987 C986 1.332 . S
C987 C988 1.267 1_655 S
C988 H956 0.929 . S
C988 C987 1.267 1_455 S
C988 C989 1.251 1_455 S
C989 H959 0.929 . S
C989 N985 1.418 . S
C989 C988 1.251 1_655 S
C990 H957 0.930 . S
C990 C992 1.406 . S
C990 C995 1.261 . S
C991 H958 0.930 . S
C991 N993 1.325 . S
C991 C994 1.357 . S
C992 H960 0.928 . S
C992 C990 1.406 . S
C992 N993 1.261 . S
N993 Co944 2.214 . S
N993 C991 1.325 . S
N993 C992 1.261 . S
C994 H964 0.931 . S
C994 C991 1.357 . S
C994 C995 1.312 . S
C995 H966 0.930 . S
C995 C990 1.261 . S
C995 C994 1.312 . S
C996 O968 1.214 . S
C996 O976 1.234 . S
C997 H969 0.929 . S
C997 C1000 1.391 . S
C997 C1002 1.391 . S
C998 H970 0.929 . S
C998 C999 1.390 . S
C998 N1001 1.391 . S
C999 H971 0.930 . S
C999 C998 1.390 . S
C999 C1000 1.392 . S
C1000 H972 0.929 . S
C1000 C997 1.391 . S
C1000 C999 1.392 . S
N1001 Co945 2.257 . S
N1001 C998 1.391 . S
N1001 C1002 1.388 . S
C1002 H973 0.930 . S
C1002 C997 1.391 . S
C1002 N1001 1.388 . S
Co1003 O1005 2.143 . S
Co1003 O1011 2.074 . S
Co1003 O1014 2.093 . S
Co1003 O1027 2.097 . S
Co1003 N1044 2.151 . S
Co1003 N1052 2.214 . S
Co1004 O1005 2.160 . S
Co1004 O1010 2.058 . S
Co1004 O1020 2.057 . S
Co1004 O1035 2.037 . S
Co1004 N1039 2.145 . S
Co1004 N1060 2.257 . S
O1005 Co1003 2.143 . S
O1005 Co1004 2.160 . S
C1006 O1007 1.278 . S
C1006 O1014 1.224 . S
O1007 C1006 1.278 . S
C1008 O1009 1.245 . S
C1008 O1020 1.232 . S
O1009 C1008 1.245 . S
O1010 Co1004 2.058 . S
O1010 C1036 1.269 . S
O1011 Co1003 2.074 . S
O1011 C1036 1.257 . S
H1012 C1037 0.930 . S
H1013 C1043 0.930 . S
O1014 Co1003 2.093 . S
O1014 C1006 1.224 . S
H1015 C1047 0.929 . S
H1016 C1049 0.930 . S
H1017 C1050 0.930 . S
H1018 C1048 0.929 . S
H1019 C1051 0.928 . S
O1020 Co1004 2.057 . S
O1020 C1008 1.232 . S
H1021 C1040 0.929 . S
H1022 C1041 0.929 . S
H1023 C1053 0.931 . S
H1024 C1045 0.929 . S
H1025 C1054 0.930 . S
H1026 C1046 0.931 . S
O1027 Co1003 2.097 . S
O1027 C1055 1.214 . S
H1028 C1056 0.929 . S
H1029 C1057 0.929 . S
H1030 C1058 0.930 . S
H1031 C1059 0.929 . S
H1032 C1061 0.930 . S
H1033 C1038 0.930 . S
H1034 C1042 0.930 . S
O1035 Co1004 2.037 . S
O1035 C1055 1.234 . S
C1036 O1010 1.269 . S
C1036 O1011 1.257 . S
C1037 H1012 0.930 . S
C1037 C1040 1.388 . S
C1037 C1042 1.418 . S
C1038 H1033 0.930 . S
C1038 C1041 1.404 . S
C1038 C1042 1.353 . S
N1039 Co1004 2.145 . S
N1039 C1040 1.397 . S
N1039 C1041 1.334 . S
C1040 H1021 0.929 . S
C1040 C1037 1.388 . S
C1040 N1039 1.397 . S
C1041 H1022 0.929 . S
C1041 C1038 1.404 . S
C1041 N1039 1.334 . S
C1042 H1034 0.930 . S
C1042 C1037 1.418 . S
C1042 C1038 1.353 . S
C1043 H1013 0.930 . S
C1043 N1044 1.330 . S
C1043 C1045 1.446 . S
N1044 Co1003 2.151 . S
N1044 C1043 1.330 . S
N1044 C1048 1.418 . S
C1045 H1024 0.929 . S
C1045 C1043 1.446 . S
C1045 C1046 1.332 . S
C1046 H1026 0.931 . S
C1046 C1045 1.332 . S
C1046 C1047 1.267 . S
C1047 H1015 0.929 . S
C1047 C1046 1.267 . S
C1047 C1048 1.251 . S
C1048 H1018 0.929 . S
C1048 N1044 1.418 . S
C1048 C1047 1.251 . S
C1049 H1016 0.930 . S
C1049 C1051 1.406 . S
C1049 C1054 1.261 . S
C1050 H1017 0.930 . S
C1050 N1052 1.325 . S
C1050 C1053 1.357 . S
C1051 H1019 0.928 . S
C1051 C1049 1.406 . S
C1051 N1052 1.261 . S
N1052 Co1003 2.214 . S
N1052 C1050 1.325 . S
N1052 C1051 1.261 . S
C1053 H1023 0.931 . S
C1053 C1050 1.357 . S
C1053 C1054 1.312 . S
C1054 H1025 0.930 . S
C1054 C1049 1.261 . S
C1054 C1053 1.312 . S
C1055 O1027 1.214 . S
C1055 O1035 1.234 . S
C1056 H1028 0.929 . S
C1056 C1059 1.391 . S
C1056 C1061 1.391 . S
C1057 H1029 0.929 . S
C1057 C1058 1.390 . S
C1057 N1060 1.391 . S
C1058 H1030 0.930 . S
C1058 C1057 1.390 . S
C1058 C1059 1.392 . S
C1059 H1031 0.929 . S
C1059 C1056 1.391 . S
C1059 C1058 1.392 . S
N1060 Co1004 2.257 . S
N1060 C1057 1.391 . S
N1060 C1061 1.388 . S
C1061 H1032 0.930 . S
C1061 C1056 1.391 . S
C1061 N1060 1.388 . S
Co1062 O1064 2.143 . S
Co1062 O1070 2.074 . S
Co1062 O1073 2.093 . S
Co1062 O1086 2.097 . S
Co1062 N1103 2.151 . S
Co1062 N1111 2.214 . S
Co1063 O1064 2.160 . S
Co1063 O1069 2.058 . S
Co1063 O1079 2.057 . S
Co1063 O1094 2.037 . S
Co1063 N1098 2.145 . S
Co1063 N1119 2.257 . S
O1064 Co1062 2.143 . S
O1064 Co1063 2.160 . S
C1065 O1066 1.278 . S
C1065 O1073 1.224 . S
O1066 C1065 1.278 . S
C1067 O1068 1.245 . S
C1067 O1079 1.232 . S
O1068 C1067 1.245 . S
O1069 Co1063 2.058 . S
O1069 C1095 1.269 . S
O1070 Co1062 2.074 . S
O1070 C1095 1.257 . S
H1071 C1096 0.930 . S
H1072 C1102 0.930 . S
O1073 Co1062 2.093 . S
O1073 C1065 1.224 . S
H1074 C1106 0.929 . S
H1075 C1108 0.930 . S
H1076 C1109 0.930 . S
H1077 C1107 0.929 . S
H1078 C1110 0.928 . S
O1079 Co1063 2.057 . S
O1079 C1067 1.232 . S
H1080 C1099 0.929 . S
H1081 C1100 0.929 . S
H1082 C1112 0.931 . S
H1083 C1104 0.929 . S
H1084 C1113 0.930 . S
H1085 C1105 0.931 . S
O1086 Co1062 2.097 . S
O1086 C1114 1.214 . S
H1087 C1115 0.929 . S
H1088 C1116 0.929 . S
H1089 C1117 0.930 . S
H1090 C1118 0.929 . S
H1091 C1120 0.930 . S
H1092 C1097 0.930 . S
H1093 C1101 0.930 . S
O1094 Co1063 2.037 . S
O1094 C1114 1.234 . S
C1095 O1069 1.269 . S
C1095 O1070 1.257 . S
C1096 H1071 0.930 . S
C1096 C1099 1.388 . S
C1096 C1101 1.418 . S
C1097 H1092 0.930 . S
C1097 C1100 1.404 . S
C1097 C1101 1.353 . S
N1098 Co1063 2.145 . S
N1098 C1099 1.397 . S
N1098 C1100 1.334 . S
C1099 H1080 0.929 . S
C1099 C1096 1.388 . S
C1099 N1098 1.397 . S
C1100 H1081 0.929 . S
C1100 C1097 1.404 . S
C1100 N1098 1.334 . S
C1101 H1093 0.930 . S
C1101 C1096 1.418 . S
C1101 C1097 1.353 . S
C1102 H1072 0.930 . S
C1102 N1103 1.330 . S
C1102 C1104 1.446 . S
N1103 Co1062 2.151 . S
N1103 C1102 1.330 . S
N1103 C1107 1.418 . S
C1104 H1083 0.929 . S
C1104 C1102 1.446 . S
C1104 C1105 1.332 . S
C1105 H1085 0.931 . S
C1105 C1104 1.332 . S
C1105 C1106 1.267 . S
C1106 H1074 0.929 . S
C1106 C1105 1.267 . S
C1106 C1107 1.251 . S
C1107 H1077 0.929 . S
C1107 N1103 1.418 . S
C1107 C1106 1.251 . S
C1108 H1075 0.930 . S
C1108 C1110 1.406 . S
C1108 C1113 1.261 . S
C1109 H1076 0.930 . S
C1109 N1111 1.325 . S
C1109 C1112 1.357 . S
C1110 H1078 0.928 . S
C1110 C1108 1.406 . S
C1110 N1111 1.261 . S
N1111 Co1062 2.214 . S
N1111 C1109 1.325 . S
N1111 C1110 1.261 . S
C1112 H1082 0.931 . S
C1112 C1109 1.357 . S
C1112 C1113 1.312 . S
C1113 H1084 0.930 . S
C1113 C1108 1.261 . S
C1113 C1112 1.312 . S
C1114 O1086 1.214 . S
C1114 O1094 1.234 . S
C1115 H1087 0.929 . S
C1115 C1118 1.391 . S
C1115 C1120 1.391 . S
C1116 H1088 0.929 . S
C1116 C1117 1.390 . S
C1116 N1119 1.391 . S
C1117 H1089 0.930 . S
C1117 C1116 1.390 . S
C1117 C1118 1.392 . S
C1118 H1090 0.929 . S
C1118 C1115 1.391 . S
C1118 C1117 1.392 . S
N1119 Co1063 2.257 . S
N1119 C1116 1.391 . S
N1119 C1120 1.388 . S
C1120 H1091 0.930 . S
C1120 C1115 1.391 . S
C1120 N1119 1.388 . S
Co1121 O1123 2.143 . S
Co1121 O1129 2.074 . S
Co1121 O1132 2.093 . S
Co1121 O1145 2.097 . S
Co1121 N1162 2.151 . S
Co1121 N1170 2.214 . S
Co1122 O1123 2.160 . S
Co1122 O1128 2.058 . S
Co1122 O1138 2.057 . S
Co1122 O1153 2.037 . S
Co1122 N1157 2.145 . S
Co1122 N1178 2.257 . S
O1123 Co1121 2.143 . S
O1123 Co1122 2.160 . S
C1124 O1125 1.278 . S
C1124 O1132 1.224 . S
O1125 C1124 1.278 . S
C1126 O1127 1.245 . S
C1126 O1138 1.232 . S
O1127 C1126 1.245 . S
O1128 Co1122 2.058 . S
O1128 C1154 1.269 . S
O1129 Co1121 2.074 . S
O1129 C1154 1.257 . S
H1130 C1155 0.930 . S
H1131 C1161 0.930 . S
O1132 Co1121 2.093 . S
O1132 C1124 1.224 . S
H1133 C1165 0.929 . S
H1134 C1167 0.930 . S
H1135 C1168 0.930 . S
H1136 C1166 0.929 . S
H1137 C1169 0.928 . S
O1138 Co1122 2.057 . S
O1138 C1126 1.232 . S
H1139 C1158 0.929 . S
H1140 C1159 0.929 . S
H1141 C1171 0.931 . S
H1142 C1163 0.929 . S
H1143 C1172 0.930 . S
H1144 C1164 0.931 . S
O1145 Co1121 2.097 . S
O1145 C1173 1.214 . S
H1146 C1174 0.929 . S
H1147 C1175 0.929 . S
H1148 C1176 0.930 . S
H1149 C1177 0.929 . S
H1150 C1179 0.930 . S
H1151 C1156 0.930 . S
H1152 C1160 0.930 . S
O1153 Co1122 2.037 . S
O1153 C1173 1.234 . S
C1154 O1128 1.269 . S
C1154 O1129 1.257 . S
C1155 H1130 0.930 . S
C1155 C1158 1.388 . S
C1155 C1160 1.418 . S
C1156 H1151 0.930 . S
C1156 C1159 1.404 . S
C1156 C1160 1.353 . S
N1157 Co1122 2.145 . S
N1157 C1158 1.397 . S
N1157 C1159 1.334 . S
C1158 H1139 0.929 . S
C1158 C1155 1.388 . S
C1158 N1157 1.397 . S
C1159 H1140 0.929 . S
C1159 C1156 1.404 . S
C1159 N1157 1.334 . S
C1160 H1152 0.930 . S
C1160 C1155 1.418 . S
C1160 C1156 1.353 . S
C1161 H1131 0.930 . S
C1161 N1162 1.330 . S
C1161 C1163 1.446 . S
N1162 Co1121 2.151 . S
N1162 C1161 1.330 . S
N1162 C1166 1.418 . S
C1163 H1142 0.929 . S
C1163 C1161 1.446 . S
C1163 C1164 1.332 . S
C1164 H1144 0.931 . S
C1164 C1163 1.332 . S
C1164 C1165 1.267 . S
C1165 H1133 0.929 . S
C1165 C1164 1.267 . S
C1165 C1166 1.251 . S
C1166 H1136 0.929 . S
C1166 N1162 1.418 . S
C1166 C1165 1.251 . S
C1167 H1134 0.930 . S
C1167 C1169 1.406 . S
C1167 C1172 1.261 . S
C1168 H1135 0.930 . S
C1168 N1170 1.325 . S
C1168 C1171 1.357 . S
C1169 H1137 0.928 . S
C1169 C1167 1.406 . S
C1169 N1170 1.261 . S
N1170 Co1121 2.214 . S
N1170 C1168 1.325 . S
N1170 C1169 1.261 . S
C1171 H1141 0.931 . S
C1171 C1168 1.357 . S
C1171 C1172 1.312 . S
C1172 H1143 0.930 . S
C1172 C1167 1.261 . S
C1172 C1171 1.312 . S
C1173 O1145 1.214 . S
C1173 O1153 1.234 . S
C1174 H1146 0.929 . S
C1174 C1177 1.391 . S
C1174 C1179 1.391 . S
C1175 H1147 0.929 . S
C1175 C1176 1.390 . S
C1175 N1178 1.391 . S
C1176 H1148 0.930 . S
C1176 C1175 1.390 . S
C1176 C1177 1.392 . S
C1177 H1149 0.929 . S
C1177 C1174 1.391 . S
C1177 C1176 1.392 . S
N1178 Co1122 2.257 . S
N1178 C1175 1.391 . S
N1178 C1179 1.388 . S
C1179 H1150 0.930 . S
C1179 C1174 1.391 . S
C1179 N1178 1.388 . S
Co1180 O1182 2.143 . S
Co1180 O1188 2.074 . S
Co1180 O1191 2.093 . S
Co1180 O1204 2.097 . S
Co1180 N1221 2.151 . S
Co1180 N1229 2.214 . S
Co1181 O1182 2.160 . S
Co1181 O1187 2.058 . S
Co1181 O1197 2.057 . S
Co1181 O1212 2.037 . S
Co1181 N1216 2.145 . S
Co1181 N1237 2.257 . S
O1182 Co1180 2.143 . S
O1182 Co1181 2.160 . S
C1183 O1184 1.278 . S
C1183 O1191 1.224 . S
O1184 C1183 1.278 . S
C1185 O1186 1.245 . S
C1185 O1197 1.232 . S
O1186 C1185 1.245 . S
O1187 Co1181 2.058 . S
O1187 C1213 1.269 . S
O1188 Co1180 2.074 . S
O1188 C1213 1.257 . S
H1189 C1214 0.930 . S
H1190 C1220 0.930 . S
O1191 Co1180 2.093 . S
O1191 C1183 1.224 . S
H1192 C1224 0.929 . S
H1193 C1226 0.930 . S
H1194 C1227 0.930 . S
H1195 C1225 0.929 . S
H1196 C1228 0.928 . S
O1197 Co1181 2.057 . S
O1197 C1185 1.232 . S
H1198 C1217 0.929 . S
H1199 C1218 0.929 . S
H1200 C1230 0.931 . S
H1201 C1222 0.929 . S
H1202 C1231 0.930 . S
H1203 C1223 0.931 1_455 S
O1204 Co1180 2.097 . S
O1204 C1232 1.214 . S
H1205 C1233 0.929 . S
H1206 C1234 0.929 . S
H1207 C1235 0.930 . S
H1208 C1236 0.929 . S
H1209 C1238 0.930 . S
H1210 C1215 0.930 . S
H1211 C1219 0.930 . S
O1212 Co1181 2.037 . S
O1212 C1232 1.234 . S
C1213 O1187 1.269 . S
C1213 O1188 1.257 . S
C1214 H1189 0.930 . S
C1214 C1217 1.388 . S
C1214 C1219 1.418 . S
C1215 H1210 0.930 . S
C1215 C1218 1.404 . S
C1215 C1219 1.353 . S
N1216 Co1181 2.145 . S
N1216 C1217 1.397 . S
N1216 C1218 1.334 . S
C1217 H1198 0.929 . S
C1217 C1214 1.388 . S
C1217 N1216 1.397 . S
C1218 H1199 0.929 . S
C1218 C1215 1.404 . S
C1218 N1216 1.334 . S
C1219 H1211 0.930 . S
C1219 C1214 1.418 . S
C1219 C1215 1.353 . S
C1220 H1190 0.930 . S
C1220 N1221 1.330 . S
C1220 C1222 1.446 . S
N1221 Co1180 2.151 . S
N1221 C1220 1.330 . S
N1221 C1225 1.418 . S
C1222 H1201 0.929 . S
C1222 C1220 1.446 . S
C1222 C1223 1.332 . S
C1223 H1203 0.931 1_655 S
C1223 C1222 1.332 . S
C1223 C1224 1.267 1_655 S
C1224 H1192 0.929 . S
C1224 C1223 1.267 1_455 S
C1224 C1225 1.251 1_455 S
C1225 H1195 0.929 . S
C1225 N1221 1.418 . S
C1225 C1224 1.251 1_655 S
C1226 H1193 0.930 . S
C1226 C1228 1.406 . S
C1226 C1231 1.261 . S
C1227 H1194 0.930 . S
C1227 N1229 1.325 . S
C1227 C1230 1.357 . S
C1228 H1196 0.928 . S
C1228 C1226 1.406 . S
C1228 N1229 1.261 . S
N1229 Co1180 2.214 . S
N1229 C1227 1.325 . S
N1229 C1228 1.261 . S
C1230 H1200 0.931 . S
C1230 C1227 1.357 . S
C1230 C1231 1.312 . S
C1231 H1202 0.930 . S
C1231 C1226 1.261 . S
C1231 C1230 1.312 . S
C1232 O1204 1.214 . S
C1232 O1212 1.234 . S
C1233 H1205 0.929 . S
C1233 C1236 1.391 . S
C1233 C1238 1.391 . S
C1234 H1206 0.929 . S
C1234 C1235 1.390 . S
C1234 N1237 1.391 . S
C1235 H1207 0.930 . S
C1235 C1234 1.390 . S
C1235 C1236 1.392 . S
C1236 H1208 0.929 . S
C1236 C1233 1.391 . S
C1236 C1235 1.392 . S
N1237 Co1181 2.257 . S
N1237 C1234 1.391 . S
N1237 C1238 1.388 . S
C1238 H1209 0.930 . S
C1238 C1233 1.391 . S
C1238 N1237 1.388 . S
Co1239 O1241 2.143 . S
Co1239 O1247 2.074 . S
Co1239 O1250 2.093 . S
Co1239 O1263 2.097 . S
Co1239 N1280 2.151 . S
Co1239 N1288 2.214 . S
Co1240 O1241 2.160 . S
Co1240 O1246 2.058 . S
Co1240 O1256 2.057 . S
Co1240 O1271 2.037 . S
Co1240 N1275 2.145 . S
Co1240 N1296 2.257 . S
O1241 Co1239 2.143 . S
O1241 Co1240 2.160 . S
C1242 O1243 1.278 . S
C1242 O1250 1.224 . S
O1243 C1242 1.278 . S
C1244 O1245 1.245 . S
C1244 O1256 1.232 . S
O1245 C1244 1.245 . S
O1246 Co1240 2.058 . S
O1246 C1272 1.269 . S
O1247 Co1239 2.074 . S
O1247 C1272 1.257 . S
H1248 C1273 0.930 . S
H1249 C1279 0.930 . S
O1250 Co1239 2.093 . S
O1250 C1242 1.224 . S
H1251 C1283 0.929 . S
H1252 C1285 0.930 . S
H1253 C1286 0.930 . S
H1254 C1284 0.929 . S
H1255 C1287 0.928 . S
O1256 Co1240 2.057 . S
O1256 C1244 1.232 . S
H1257 C1276 0.929 . S
H1258 C1277 0.929 . S
H1259 C1289 0.931 . S
H1260 C1281 0.929 . S
H1261 C1290 0.930 . S
H1262 C1282 0.931 . S
O1263 Co1239 2.097 . S
O1263 C1291 1.214 . S
H1264 C1292 0.929 . S
H1265 C1293 0.929 . S
H1266 C1294 0.930 . S
H1267 C1295 0.929 . S
H1268 C1297 0.930 . S
H1269 C1274 0.930 . S
H1270 C1278 0.930 . S
O1271 Co1240 2.037 . S
O1271 C1291 1.234 . S
C1272 O1246 1.269 . S
C1272 O1247 1.257 . S
C1273 H1248 0.930 . S
C1273 C1276 1.388 . S
C1273 C1278 1.418 . S
C1274 H1269 0.930 . S
C1274 C1277 1.404 . S
C1274 C1278 1.353 . S
N1275 Co1240 2.145 . S
N1275 C1276 1.397 . S
N1275 C1277 1.334 . S
C1276 H1257 0.929 . S
C1276 C1273 1.388 . S
C1276 N1275 1.397 . S
C1277 H1258 0.929 . S
C1277 C1274 1.404 . S
C1277 N1275 1.334 . S
C1278 H1270 0.930 . S
C1278 C1273 1.418 . S
C1278 C1274 1.353 . S
C1279 H1249 0.930 . S
C1279 N1280 1.330 . S
C1279 C1281 1.446 . S
N1280 Co1239 2.151 . S
N1280 C1279 1.330 . S
N1280 C1284 1.418 . S
C1281 H1260 0.929 . S
C1281 C1279 1.446 . S
C1281 C1282 1.332 . S
C1282 H1262 0.931 . S
C1282 C1281 1.332 . S
C1282 C1283 1.267 . S
C1283 H1251 0.929 . S
C1283 C1282 1.267 . S
C1283 C1284 1.251 . S
C1284 H1254 0.929 . S
C1284 N1280 1.418 . S
C1284 C1283 1.251 . S
C1285 H1252 0.930 . S
C1285 C1287 1.406 . S
C1285 C1290 1.261 . S
C1286 H1253 0.930 . S
C1286 N1288 1.325 . S
C1286 C1289 1.357 . S
C1287 H1255 0.928 . S
C1287 C1285 1.406 . S
C1287 N1288 1.261 . S
N1288 Co1239 2.214 . S
N1288 C1286 1.325 . S
N1288 C1287 1.261 . S
C1289 H1259 0.931 . S
C1289 C1286 1.357 . S
C1289 C1290 1.312 . S
C1290 H1261 0.930 . S
C1290 C1285 1.261 . S
C1290 C1289 1.312 . S
C1291 O1263 1.214 . S
C1291 O1271 1.234 . S
C1292 H1264 0.929 . S
C1292 C1295 1.391 . S
C1292 C1297 1.391 . S
C1293 H1265 0.929 . S
C1293 C1294 1.390 . S
C1293 N1296 1.391 . S
C1294 H1266 0.930 . S
C1294 C1293 1.390 . S
C1294 C1295 1.392 . S
C1295 H1267 0.929 . S
C1295 C1292 1.391 . S
C1295 C1294 1.392 . S
N1296 Co1240 2.257 . S
N1296 C1293 1.391 . S
N1296 C1297 1.388 . S
C1297 H1268 0.930 . S
C1297 C1292 1.391 . S
C1297 N1296 1.388 . S
Co1298 O1300 2.143 . S
Co1298 O1306 2.074 . S
Co1298 O1309 2.093 . S
Co1298 O1322 2.097 . S
Co1298 N1339 2.151 . S
Co1298 N1347 2.214 . S
Co1299 O1300 2.160 . S
Co1299 O1305 2.058 . S
Co1299 O1315 2.057 . S
Co1299 O1330 2.037 . S
Co1299 N1334 2.145 . S
Co1299 N1355 2.257 . S
O1300 Co1298 2.143 . S
O1300 Co1299 2.160 . S
C1301 O1302 1.278 . S
C1301 O1309 1.224 . S
O1302 C1301 1.278 . S
C1303 O1304 1.245 . S
C1303 O1315 1.232 . S
O1304 C1303 1.245 . S
O1305 Co1299 2.058 . S
O1305 C1331 1.269 . S
O1306 Co1298 2.074 . S
O1306 C1331 1.257 . S
H1307 C1332 0.930 . S
H1308 C1338 0.930 . S
O1309 Co1298 2.093 . S
O1309 C1301 1.224 . S
H1310 C1342 0.929 . S
H1311 C1344 0.930 . S
H1312 C1345 0.930 . S
H1313 C1343 0.929 . S
H1314 C1346 0.928 . S
O1315 Co1299 2.057 . S
O1315 C1303 1.232 . S
H1316 C1335 0.929 . S
H1317 C1336 0.929 . S
H1318 C1348 0.931 . S
H1319 C1340 0.929 . S
H1320 C1349 0.930 . S
H1321 C1341 0.931 . S
O1322 Co1298 2.097 . S
O1322 C1350 1.214 . S
H1323 C1351 0.929 . S
H1324 C1352 0.929 . S
H1325 C1353 0.930 . S
H1326 C1354 0.929 . S
H1327 C1356 0.930 . S
H1328 C1333 0.930 . S
H1329 C1337 0.930 . S
O1330 Co1299 2.037 . S
O1330 C1350 1.234 . S
C1331 O1305 1.269 . S
C1331 O1306 1.257 . S
C1332 H1307 0.930 . S
C1332 C1335 1.388 . S
C1332 C1337 1.418 . S
C1333 H1328 0.930 . S
C1333 C1336 1.404 . S
C1333 C1337 1.353 . S
N1334 Co1299 2.145 . S
N1334 C1335 1.397 . S
N1334 C1336 1.334 . S
C1335 H1316 0.929 . S
C1335 C1332 1.388 . S
C1335 N1334 1.397 . S
C1336 H1317 0.929 . S
C1336 C1333 1.404 . S
C1336 N1334 1.334 . S
C1337 H1329 0.930 . S
C1337 C1332 1.418 . S
C1337 C1333 1.353 . S
C1338 H1308 0.930 . S
C1338 N1339 1.330 . S
C1338 C1340 1.446 . S
N1339 Co1298 2.151 . S
N1339 C1338 1.330 . S
N1339 C1343 1.418 . S
C1340 H1319 0.929 . S
C1340 C1338 1.446 . S
C1340 C1341 1.332 . S
C1341 H1321 0.931 . S
C1341 C1340 1.332 . S
C1341 C1342 1.267 . S
C1342 H1310 0.929 . S
C1342 C1341 1.267 . S
C1342 C1343 1.251 . S
C1343 H1313 0.929 . S
C1343 N1339 1.418 . S
C1343 C1342 1.251 . S
C1344 H1311 0.930 . S
C1344 C1346 1.406 . S
C1344 C1349 1.261 . S
C1345 H1312 0.930 . S
C1345 N1347 1.325 . S
C1345 C1348 1.357 . S
C1346 H1314 0.928 . S
C1346 C1344 1.406 . S
C1346 N1347 1.261 . S
N1347 Co1298 2.214 . S
N1347 C1345 1.325 . S
N1347 C1346 1.261 . S
C1348 H1318 0.931 . S
C1348 C1345 1.357 . S
C1348 C1349 1.312 . S
C1349 H1320 0.930 . S
C1349 C1344 1.261 . S
C1349 C1348 1.312 . S
C1350 O1322 1.214 . S
C1350 O1330 1.234 . S
C1351 H1323 0.929 . S
C1351 C1354 1.391 . S
C1351 C1356 1.391 . S
C1352 H1324 0.929 . S
C1352 C1353 1.390 . S
C1352 N1355 1.391 . S
C1353 H1325 0.930 . S
C1353 C1352 1.390 . S
C1353 C1354 1.392 . S
C1354 H1326 0.929 . S
C1354 C1351 1.391 . S
C1354 C1353 1.392 . S
N1355 Co1299 2.257 . S
N1355 C1352 1.391 . S
N1355 C1356 1.388 . S
C1356 H1327 0.930 . S
C1356 C1351 1.391 . S
C1356 N1355 1.388 . S
Co1357 O1359 2.143 . S
Co1357 O1365 2.074 . S
Co1357 O1368 2.093 . S
Co1357 O1381 2.097 . S
Co1357 N1398 2.151 . S
Co1357 N1406 2.214 . S
Co1358 O1359 2.160 . S
Co1358 O1364 2.058 . S
Co1358 O1374 2.057 . S
Co1358 O1389 2.037 . S
Co1358 N1393 2.145 . S
Co1358 N1414 2.257 . S
O1359 Co1357 2.143 . S
O1359 Co1358 2.160 . S
C1360 O1361 1.278 . S
C1360 O1368 1.224 . S
O1361 C1360 1.278 . S
C1362 O1363 1.245 . S
C1362 O1374 1.232 . S
O1363 C1362 1.245 . S
O1364 Co1358 2.058 . S
O1364 C1390 1.269 . S
O1365 Co1357 2.074 . S
O1365 C1390 1.257 . S
H1366 C1391 0.930 . S
H1367 C1397 0.930 . S
O1368 Co1357 2.093 . S
O1368 C1360 1.224 . S
H1369 C1401 0.929 . S
H1370 C1403 0.930 . S
H1371 C1404 0.930 . S
H1372 C1402 0.929 . S
H1373 C1405 0.928 . S
O1374 Co1358 2.057 . S
O1374 C1362 1.232 . S
H1375 C1394 0.929 . S
H1376 C1395 0.929 . S
H1377 C1407 0.931 . S
H1378 C1399 0.929 . S
H1379 C1408 0.930 . S
H1380 C1400 0.931 . S
O1381 Co1357 2.097 . S
O1381 C1409 1.214 . S
H1382 C1410 0.929 . S
H1383 C1411 0.929 . S
H1384 C1412 0.930 . S
H1385 C1413 0.929 . S
H1386 C1415 0.930 . S
H1387 C1392 0.930 . S
H1388 C1396 0.930 . S
O1389 Co1358 2.037 . S
O1389 C1409 1.234 . S
C1390 O1364 1.269 . S
C1390 O1365 1.257 . S
C1391 H1366 0.930 . S
C1391 C1394 1.388 . S
C1391 C1396 1.418 . S
C1392 H1387 0.930 . S
C1392 C1395 1.404 . S
C1392 C1396 1.353 . S
N1393 Co1358 2.145 . S
N1393 C1394 1.397 . S
N1393 C1395 1.334 . S
C1394 H1375 0.929 . S
C1394 C1391 1.388 . S
C1394 N1393 1.397 . S
C1395 H1376 0.929 . S
C1395 C1392 1.404 . S
C1395 N1393 1.334 . S
C1396 H1388 0.930 . S
C1396 C1391 1.418 . S
C1396 C1392 1.353 . S
C1397 H1367 0.930 . S
C1397 N1398 1.330 . S
C1397 C1399 1.446 . S
N1398 Co1357 2.151 . S
N1398 C1397 1.330 . S
N1398 C1402 1.418 . S
C1399 H1378 0.929 . S
C1399 C1397 1.446 . S
C1399 C1400 1.332 . S
C1400 H1380 0.931 . S
C1400 C1399 1.332 . S
C1400 C1401 1.267 . S
C1401 H1369 0.929 . S
C1401 C1400 1.267 . S
C1401 C1402 1.251 . S
C1402 H1372 0.929 . S
C1402 N1398 1.418 . S
C1402 C1401 1.251 . S
C1403 H1370 0.930 . S
C1403 C1405 1.406 . S
C1403 C1408 1.261 . S
C1404 H1371 0.930 . S
C1404 N1406 1.325 . S
C1404 C1407 1.357 . S
C1405 H1373 0.928 . S
C1405 C1403 1.406 . S
C1405 N1406 1.261 . S
N1406 Co1357 2.214 . S
N1406 C1404 1.325 . S
N1406 C1405 1.261 . S
C1407 H1377 0.931 . S
C1407 C1404 1.357 . S
C1407 C1408 1.312 . S
C1408 H1379 0.930 . S
C1408 C1403 1.261 . S
C1408 C1407 1.312 . S
C1409 O1381 1.214 . S
C1409 O1389 1.234 . S
C1410 H1382 0.929 . S
C1410 C1413 1.391 . S
C1410 C1415 1.391 . S
C1411 H1383 0.929 . S
C1411 C1412 1.390 . S
C1411 N1414 1.391 . S
C1412 H1384 0.930 . S
C1412 C1411 1.390 . S
C1412 C1413 1.392 . S
C1413 H1385 0.929 . S
C1413 C1410 1.391 . S
C1413 C1412 1.392 . S
N1414 Co1358 2.257 . S
N1414 C1411 1.391 . S
N1414 C1415 1.388 . S
C1415 H1386 0.930 . S
C1415 C1410 1.391 . S
C1415 N1414 1.388 . S
Co1416 O1418 2.143 . S
Co1416 O1424 2.074 . S
Co1416 O1427 2.093 . S
Co1416 O1440 2.097 . S
Co1416 N1457 2.151 . S
Co1416 N1465 2.214 . S
Co1417 O1418 2.160 . S
Co1417 O1423 2.058 . S
Co1417 O1433 2.057 . S
Co1417 O1448 2.037 . S
Co1417 N1452 2.145 . S
Co1417 N1473 2.257 . S
O1418 Co1416 2.143 . S
O1418 Co1417 2.160 . S
C1419 O1420 1.278 . S
C1419 O1427 1.224 . S
O1420 C1419 1.278 . S
C1421 O1422 1.245 . S
C1421 O1433 1.232 . S
O1422 C1421 1.245 . S
O1423 Co1417 2.058 . S
O1423 C1449 1.269 . S
O1424 Co1416 2.074 . S
O1424 C1449 1.257 . S
H1425 C1450 0.930 . S
H1426 C1456 0.930 . S
O1427 Co1416 2.093 . S
O1427 C1419 1.224 . S
H1428 C1460 0.929 . S
H1429 C1462 0.930 . S
H1430 C1463 0.930 . S
H1431 C1461 0.929 . S
H1432 C1464 0.928 . S
O1433 Co1417 2.057 . S
O1433 C1421 1.232 . S
H1434 C1453 0.929 . S
H1435 C1454 0.929 . S
H1436 C1466 0.931 . S
H1437 C1458 0.929 . S
H1438 C1467 0.930 . S
H1439 C1459 0.931 1_655 S
O1440 Co1416 2.097 . S
O1440 C1468 1.214 . S
H1441 C1469 0.929 . S
H1442 C1470 0.929 . S
H1443 C1471 0.930 . S
H1444 C1472 0.929 . S
H1445 C1474 0.930 . S
H1446 C1451 0.930 . S
H1447 C1455 0.930 . S
O1448 Co1417 2.037 . S
O1448 C1468 1.234 . S
C1449 O1423 1.269 . S
C1449 O1424 1.257 . S
C1450 H1425 0.930 . S
C1450 C1453 1.388 . S
C1450 C1455 1.418 . S
C1451 H1446 0.930 . S
C1451 C1454 1.404 . S
C1451 C1455 1.353 . S
N1452 Co1417 2.145 . S
N1452 C1453 1.397 . S
N1452 C1454 1.334 . S
C1453 H1434 0.929 . S
C1453 C1450 1.388 . S
C1453 N1452 1.397 . S
C1454 H1435 0.929 . S
C1454 C1451 1.404 . S
C1454 N1452 1.334 . S
C1455 H1447 0.930 . S
C1455 C1450 1.418 . S
C1455 C1451 1.353 . S
C1456 H1426 0.930 . S
C1456 N1457 1.330 . S
C1456 C1458 1.446 . S
N1457 Co1416 2.151 . S
N1457 C1456 1.330 . S
N1457 C1461 1.418 . S
C1458 H1437 0.929 . S
C1458 C1456 1.446 . S
C1458 C1459 1.332 . S
C1459 H1439 0.931 1_455 S
C1459 C1458 1.332 . S
C1459 C1460 1.267 1_455 S
C1460 H1428 0.929 . S
C1460 C1459 1.267 1_655 S
C1460 C1461 1.251 1_655 S
C1461 H1431 0.929 . S
C1461 N1457 1.418 . S
C1461 C1460 1.251 1_455 S
C1462 H1429 0.930 . S
C1462 C1464 1.406 . S
C1462 C1467 1.261 . S
C1463 H1430 0.930 . S
C1463 N1465 1.325 . S
C1463 C1466 1.357 . S
C1464 H1432 0.928 . S
C1464 C1462 1.406 . S
C1464 N1465 1.261 . S
N1465 Co1416 2.214 . S
N1465 C1463 1.325 . S
N1465 C1464 1.261 . S
C1466 H1436 0.931 . S
C1466 C1463 1.357 . S
C1466 C1467 1.312 . S
C1467 H1438 0.930 . S
C1467 C1462 1.261 . S
C1467 C1466 1.312 . S
C1468 O1440 1.214 . S
C1468 O1448 1.234 . S
C1469 H1441 0.929 . S
C1469 C1472 1.391 . S
C1469 C1474 1.391 . S
C1470 H1442 0.929 . S
C1470 C1471 1.390 . S
C1470 N1473 1.391 . S
C1471 H1443 0.930 . S
C1471 C1470 1.390 . S
C1471 C1472 1.392 . S
C1472 H1444 0.929 . S
C1472 C1469 1.391 . S
C1472 C1471 1.392 . S
N1473 Co1417 2.257 . S
N1473 C1470 1.391 . S
N1473 C1474 1.388 . S
C1474 H1445 0.930 . S
C1474 C1469 1.391 . S
C1474 N1473 1.388 . S
Co1475 O1477 2.143 . S
Co1475 O1483 2.074 . S
Co1475 O1486 2.093 . S
Co1475 O1499 2.097 . S
Co1475 N1516 2.151 . S
Co1475 N1524 2.214 . S
Co1476 O1477 2.160 . S
Co1476 O1482 2.058 . S
Co1476 O1492 2.057 . S
Co1476 O1507 2.037 . S
Co1476 N1511 2.145 . S
Co1476 N1532 2.257 . S
O1477 Co1475 2.143 . S
O1477 Co1476 2.160 . S
C1478 O1479 1.278 . S
C1478 O1486 1.224 . S
O1479 C1478 1.278 . S
C1480 O1481 1.245 . S
C1480 O1492 1.232 . S
O1481 C1480 1.245 . S
O1482 Co1476 2.058 . S
O1482 C1508 1.269 . S
O1483 Co1475 2.074 . S
O1483 C1508 1.257 . S
H1484 C1509 0.930 . S
H1485 C1515 0.930 . S
O1486 Co1475 2.093 . S
O1486 C1478 1.224 . S
H1487 C1519 0.929 . S
H1488 C1521 0.930 . S
H1489 C1522 0.930 . S
H1490 C1520 0.929 . S
H1491 C1523 0.928 . S
O1492 Co1476 2.057 . S
O1492 C1480 1.232 . S
H1493 C1512 0.929 . S
H1494 C1513 0.929 . S
H1495 C1525 0.931 . S
H1496 C1517 0.929 . S
H1497 C1526 0.930 . S
H1498 C1518 0.931 . S
O1499 Co1475 2.097 . S
O1499 C1527 1.214 . S
H1500 C1528 0.929 . S
H1501 C1529 0.929 . S
H1502 C1530 0.930 . S
H1503 C1531 0.929 . S
H1504 C1533 0.930 . S
H1505 C1510 0.930 . S
H1506 C1514 0.930 . S
O1507 Co1476 2.037 . S
O1507 C1527 1.234 . S
C1508 O1482 1.269 . S
C1508 O1483 1.257 . S
C1509 H1484 0.930 . S
C1509 C1512 1.388 . S
C1509 C1514 1.418 . S
C1510 H1505 0.930 . S
C1510 C1513 1.404 . S
C1510 C1514 1.353 . S
N1511 Co1476 2.145 . S
N1511 C1512 1.397 . S
N1511 C1513 1.334 . S
C1512 H1493 0.929 . S
C1512 C1509 1.388 . S
C1512 N1511 1.397 . S
C1513 H1494 0.929 . S
C1513 C1510 1.404 . S
C1513 N1511 1.334 . S
C1514 H1506 0.930 . S
C1514 C1509 1.418 . S
C1514 C1510 1.353 . S
C1515 H1485 0.930 . S
C1515 N1516 1.330 . S
C1515 C1517 1.446 . S
N1516 Co1475 2.151 . S
N1516 C1515 1.330 . S
N1516 C1520 1.418 . S
C1517 H1496 0.929 . S
C1517 C1515 1.446 . S
C1517 C1518 1.332 . S
C1518 H1498 0.931 . S
C1518 C1517 1.332 . S
C1518 C1519 1.267 . S
C1519 H1487 0.929 . S
C1519 C1518 1.267 . S
C1519 C1520 1.251 . S
C1520 H1490 0.929 . S
C1520 N1516 1.418 . S
C1520 C1519 1.251 . S
C1521 H1488 0.930 . S
C1521 C1523 1.406 . S
C1521 C1526 1.261 . S
C1522 H1489 0.930 . S
C1522 N1524 1.325 . S
C1522 C1525 1.357 . S
C1523 H1491 0.928 . S
C1523 C1521 1.406 . S
C1523 N1524 1.261 . S
N1524 Co1475 2.214 . S
N1524 C1522 1.325 . S
N1524 C1523 1.261 . S
C1525 H1495 0.931 . S
C1525 C1522 1.357 . S
C1525 C1526 1.312 . S
C1526 H1497 0.930 . S
C1526 C1521 1.261 . S
C1526 C1525 1.312 . S
C1527 O1499 1.214 . S
C1527 O1507 1.234 . S
C1528 H1500 0.929 . S
C1528 C1531 1.391 . S
C1528 C1533 1.391 . S
C1529 H1501 0.929 . S
C1529 C1530 1.390 . S
C1529 N1532 1.391 . S
C1530 H1502 0.930 . S
C1530 C1529 1.390 . S
C1530 C1531 1.392 . S
C1531 H1503 0.929 . S
C1531 C1528 1.391 . S
C1531 C1530 1.392 . S
N1532 Co1476 2.257 . S
N1532 C1529 1.391 . S
N1532 C1533 1.388 . S
C1533 H1504 0.930 . S
C1533 C1528 1.391 . S
C1533 N1532 1.388 . S
Co1534 O1536 2.143 . S
Co1534 O1542 2.074 . S
Co1534 O1545 2.093 . S
Co1534 O1558 2.097 . S
Co1534 N1575 2.151 . S
Co1534 N1583 2.214 . S
Co1535 O1536 2.160 . S
Co1535 O1541 2.058 . S
Co1535 O1551 2.057 . S
Co1535 O1566 2.037 . S
Co1535 N1570 2.145 . S
Co1535 N1591 2.257 . S
O1536 Co1534 2.143 . S
O1536 Co1535 2.160 . S
C1537 O1538 1.278 . S
C1537 O1545 1.224 . S
O1538 C1537 1.278 . S
C1539 O1540 1.245 . S
C1539 O1551 1.232 . S
O1540 C1539 1.245 . S
O1541 Co1535 2.058 . S
O1541 C1567 1.269 . S
O1542 Co1534 2.074 . S
O1542 C1567 1.257 . S
H1543 C1568 0.930 . S
H1544 C1574 0.930 . S
O1545 Co1534 2.093 . S
O1545 C1537 1.224 . S
H1546 C1578 0.929 . S
H1547 C1580 0.930 . S
H1548 C1581 0.930 . S
H1549 C1579 0.929 . S
H1550 C1582 0.928 . S
O1551 Co1535 2.057 . S
O1551 C1539 1.232 . S
H1552 C1571 0.929 . S
H1553 C1572 0.929 . S
H1554 C1584 0.931 . S
H1555 C1576 0.929 . S
H1556 C1585 0.930 . S
H1557 C1577 0.931 . S
O1558 Co1534 2.097 . S
O1558 C1586 1.214 . S
H1559 C1587 0.929 . S
H1560 C1588 0.929 . S
H1561 C1589 0.930 . S
H1562 C1590 0.929 . S
H1563 C1592 0.930 . S
H1564 C1569 0.930 . S
H1565 C1573 0.930 . S
O1566 Co1535 2.037 . S
O1566 C1586 1.234 . S
C1567 O1541 1.269 . S
C1567 O1542 1.257 . S
C1568 H1543 0.930 . S
C1568 C1571 1.388 . S
C1568 C1573 1.418 . S
C1569 H1564 0.930 . S
C1569 C1572 1.404 . S
C1569 C1573 1.353 . S
N1570 Co1535 2.145 . S
N1570 C1571 1.397 . S
N1570 C1572 1.334 . S
C1571 H1552 0.929 . S
C1571 C1568 1.388 . S
C1571 N1570 1.397 . S
C1572 H1553 0.929 . S
C1572 C1569 1.404 . S
C1572 N1570 1.334 . S
C1573 H1565 0.930 . S
C1573 C1568 1.418 . S
C1573 C1569 1.353 . S
C1574 H1544 0.930 . S
C1574 N1575 1.330 . S
C1574 C1576 1.446 . S
N1575 Co1534 2.151 . S
N1575 C1574 1.330 . S
N1575 C1579 1.418 . S
C1576 H1555 0.929 . S
C1576 C1574 1.446 . S
C1576 C1577 1.332 . S
C1577 H1557 0.931 . S
C1577 C1576 1.332 . S
C1577 C1578 1.267 . S
C1578 H1546 0.929 . S
C1578 C1577 1.267 . S
C1578 C1579 1.251 . S
C1579 H1549 0.929 . S
C1579 N1575 1.418 . S
C1579 C1578 1.251 . S
C1580 H1547 0.930 . S
C1580 C1582 1.406 . S
C1580 C1585 1.261 . S
C1581 H1548 0.930 . S
C1581 N1583 1.325 . S
C1581 C1584 1.357 . S
C1582 H1550 0.928 . S
C1582 C1580 1.406 . S
C1582 N1583 1.261 . S
N1583 Co1534 2.214 . S
N1583 C1581 1.325 . S
N1583 C1582 1.261 . S
C1584 H1554 0.931 . S
C1584 C1581 1.357 . S
C1584 C1585 1.312 . S
C1585 H1556 0.930 . S
C1585 C1580 1.261 . S
C1585 C1584 1.312 . S
C1586 O1558 1.214 . S
C1586 O1566 1.234 . S
C1587 H1559 0.929 . S
C1587 C1590 1.391 . S
C1587 C1592 1.391 . S
C1588 H1560 0.929 . S
C1588 C1589 1.390 . S
C1588 N1591 1.391 . S
C1589 H1561 0.930 . S
C1589 C1588 1.390 . S
C1589 C1590 1.392 . S
C1590 H1562 0.929 . S
C1590 C1587 1.391 . S
C1590 C1589 1.392 . S
N1591 Co1535 2.257 . S
N1591 C1588 1.391 . S
N1591 C1592 1.388 . S
C1592 H1563 0.930 . S
C1592 C1587 1.391 . S
C1592 N1591 1.388 . S
Co1593 O1595 2.143 . S
Co1593 O1601 2.074 . S
Co1593 O1604 2.093 . S
Co1593 O1617 2.097 . S
Co1593 N1634 2.151 . S
Co1593 N1642 2.214 . S
Co1594 O1595 2.160 . S
Co1594 O1600 2.058 . S
Co1594 O1610 2.057 . S
Co1594 O1625 2.037 . S
Co1594 N1629 2.145 . S
Co1594 N1650 2.257 . S
O1595 Co1593 2.143 . S
O1595 Co1594 2.160 . S
C1596 O1597 1.278 . S
C1596 O1604 1.224 . S
O1597 C1596 1.278 . S
C1598 O1599 1.245 . S
C1598 O1610 1.232 . S
O1599 C1598 1.245 . S
O1600 Co1594 2.058 . S
O1600 C1626 1.269 . S
O1601 Co1593 2.074 . S
O1601 C1626 1.257 . S
H1602 C1627 0.930 . S
H1603 C1633 0.930 . S
O1604 Co1593 2.093 . S
O1604 C1596 1.224 . S
H1605 C1637 0.929 . S
H1606 C1639 0.930 . S
H1607 C1640 0.930 . S
H1608 C1638 0.929 . S
H1609 C1641 0.928 . S
O1610 Co1594 2.057 . S
O1610 C1598 1.232 . S
H1611 C1630 0.929 . S
H1612 C1631 0.929 . S
H1613 C1643 0.931 . S
H1614 C1635 0.929 . S
H1615 C1644 0.930 . S
H1616 C1636 0.931 . S
O1617 Co1593 2.097 . S
O1617 C1645 1.214 . S
H1618 C1646 0.929 . S
H1619 C1647 0.929 . S
H1620 C1648 0.930 . S
H1621 C1649 0.929 . S
H1622 C1651 0.930 . S
H1623 C1628 0.930 . S
H1624 C1632 0.930 . S
O1625 Co1594 2.037 . S
O1625 C1645 1.234 . S
C1626 O1600 1.269 . S
C1626 O1601 1.257 . S
C1627 H1602 0.930 . S
C1627 C1630 1.388 . S
C1627 C1632 1.418 . S
C1628 H1623 0.930 . S
C1628 C1631 1.404 . S
C1628 C1632 1.353 . S
N1629 Co1594 2.145 . S
N1629 C1630 1.397 . S
N1629 C1631 1.334 . S
C1630 H1611 0.929 . S
C1630 C1627 1.388 . S
C1630 N1629 1.397 . S
C1631 H1612 0.929 . S
C1631 C1628 1.404 . S
C1631 N1629 1.334 . S
C1632 H1624 0.930 . S
C1632 C1627 1.418 . S
C1632 C1628 1.353 . S
C1633 H1603 0.930 . S
C1633 N1634 1.330 . S
C1633 C1635 1.446 . S
N1634 Co1593 2.151 . S
N1634 C1633 1.330 . S
N1634 C1638 1.418 . S
C1635 H1614 0.929 . S
C1635 C1633 1.446 . S
C1635 C1636 1.332 . S
C1636 H1616 0.931 . S
C1636 C1635 1.332 . S
C1636 C1637 1.267 . S
C1637 H1605 0.929 . S
C1637 C1636 1.267 . S
C1637 C1638 1.251 . S
C1638 H1608 0.929 . S
C1638 N1634 1.418 . S
C1638 C1637 1.251 . S
C1639 H1606 0.930 . S
C1639 C1641 1.406 . S
C1639 C1644 1.261 . S
C1640 H1607 0.930 . S
C1640 N1642 1.325 . S
C1640 C1643 1.357 . S
C1641 H1609 0.928 . S
C1641 C1639 1.406 . S
C1641 N1642 1.261 . S
N1642 Co1593 2.214 . S
N1642 C1640 1.325 . S
N1642 C1641 1.261 . S
C1643 H1613 0.931 . S
C1643 C1640 1.357 . S
C1643 C1644 1.312 . S
C1644 H1615 0.930 . S
C1644 C1639 1.261 . S
C1644 C1643 1.312 . S
C1645 O1617 1.214 . S
C1645 O1625 1.234 . S
C1646 H1618 0.929 . S
C1646 C1649 1.391 . S
C1646 C1651 1.391 . S
C1647 H1619 0.929 . S
C1647 C1648 1.390 . S
C1647 N1650 1.391 . S
C1648 H1620 0.930 . S
C1648 C1647 1.390 . S
C1648 C1649 1.392 . S
C1649 H1621 0.929 . S
C1649 C1646 1.391 . S
C1649 C1648 1.392 . S
N1650 Co1594 2.257 . S
N1650 C1647 1.391 . S
N1650 C1651 1.388 . S
C1651 H1622 0.930 . S
C1651 C1646 1.391 . S
C1651 N1650 1.388 . S
Co1652 O1654 2.143 . S
Co1652 O1660 2.074 . S
Co1652 O1663 2.093 . S
Co1652 O1676 2.097 . S
Co1652 N1693 2.151 . S
Co1652 N1701 2.214 . S
Co1653 O1654 2.160 . S
Co1653 O1659 2.058 . S
Co1653 O1669 2.057 . S
Co1653 O1684 2.037 . S
Co1653 N1688 2.145 . S
Co1653 N1709 2.257 . S
O1654 Co1652 2.143 . S
O1654 Co1653 2.160 . S
C1655 O1656 1.278 . S
C1655 O1663 1.224 . S
O1656 C1655 1.278 . S
C1657 O1658 1.245 . S
C1657 O1669 1.232 . S
O1658 C1657 1.245 . S
O1659 Co1653 2.058 . S
O1659 C1685 1.269 . S
O1660 Co1652 2.074 . S
O1660 C1685 1.257 . S
H1661 C1686 0.930 . S
H1662 C1692 0.930 . S
O1663 Co1652 2.093 . S
O1663 C1655 1.224 . S
H1664 C1696 0.929 . S
H1665 C1698 0.930 . S
H1666 C1699 0.930 . S
H1667 C1697 0.929 . S
H1668 C1700 0.928 . S
O1669 Co1653 2.057 . S
O1669 C1657 1.232 . S
H1670 C1689 0.929 . S
H1671 C1690 0.929 . S
H1672 C1702 0.931 . S
H1673 C1694 0.929 . S
H1674 C1703 0.930 . S
H1675 C1695 0.931 1_655 S
O1676 Co1652 2.097 . S
O1676 C1704 1.214 . S
H1677 C1705 0.929 . S
H1678 C1706 0.929 . S
H1679 C1707 0.930 . S
H1680 C1708 0.929 . S
H1681 C1710 0.930 . S
H1682 C1687 0.930 . S
H1683 C1691 0.930 . S
O1684 Co1653 2.037 . S
O1684 C1704 1.234 . S
C1685 O1659 1.269 . S
C1685 O1660 1.257 . S
C1686 H1661 0.930 . S
C1686 C1689 1.388 . S
C1686 C1691 1.418 . S
C1687 H1682 0.930 . S
C1687 C1690 1.404 . S
C1687 C1691 1.353 . S
N1688 Co1653 2.145 . S
N1688 C1689 1.397 . S
N1688 C1690 1.334 . S
C1689 H1670 0.929 . S
C1689 C1686 1.388 . S
C1689 N1688 1.397 . S
C1690 H1671 0.929 . S
C1690 C1687 1.404 . S
C1690 N1688 1.334 . S
C1691 H1683 0.930 . S
C1691 C1686 1.418 . S
C1691 C1687 1.353 . S
C1692 H1662 0.930 . S
C1692 N1693 1.330 . S
C1692 C1694 1.446 . S
N1693 Co1652 2.151 . S
N1693 C1692 1.330 . S
N1693 C1697 1.418 . S
C1694 H1673 0.929 . S
C1694 C1692 1.446 . S
C1694 C1695 1.332 . S
C1695 H1675 0.931 1_455 S
C1695 C1694 1.332 . S
C1695 C1696 1.267 1_455 S
C1696 H1664 0.929 . S
C1696 C1695 1.267 1_655 S
C1696 C1697 1.251 1_655 S
C1697 H1667 0.929 . S
C1697 N1693 1.418 . S
C1697 C1696 1.251 1_455 S
C1698 H1665 0.930 . S
C1698 C1700 1.406 . S
C1698 C1703 1.261 . S
C1699 H1666 0.930 . S
C1699 N1701 1.325 . S
C1699 C1702 1.357 . S
C1700 H1668 0.928 . S
C1700 C1698 1.406 . S
C1700 N1701 1.261 . S
N1701 Co1652 2.214 . S
N1701 C1699 1.325 . S
N1701 C1700 1.261 . S
C1702 H1672 0.931 . S
C1702 C1699 1.357 . S
C1702 C1703 1.312 . S
C1703 H1674 0.930 . S
C1703 C1698 1.261 . S
C1703 C1702 1.312 . S
C1704 O1676 1.214 . S
C1704 O1684 1.234 . S
C1705 H1677 0.929 . S
C1705 C1708 1.391 . S
C1705 C1710 1.391 . S
C1706 H1678 0.929 . S
C1706 C1707 1.390 . S
C1706 N1709 1.391 . S
C1707 H1679 0.930 . S
C1707 C1706 1.390 . S
C1707 C1708 1.392 . S
C1708 H1680 0.929 . S
C1708 C1705 1.391 . S
C1708 C1707 1.392 . S
N1709 Co1653 2.257 . S
N1709 C1706 1.391 . S
N1709 C1710 1.388 . S
C1710 H1681 0.930 . S
C1710 C1705 1.391 . S
C1710 N1709 1.388 . S
Co1711 O1713 2.143 . S
Co1711 O1719 2.074 . S
Co1711 O1722 2.093 . S
Co1711 O1735 2.097 . S
Co1711 N1752 2.151 . S
Co1711 N1760 2.214 . S
Co1712 O1713 2.160 . S
Co1712 O1718 2.058 . S
Co1712 O1728 2.057 . S
Co1712 O1743 2.037 . S
Co1712 N1747 2.145 . S
Co1712 N1768 2.257 . S
O1713 Co1711 2.143 . S
O1713 Co1712 2.160 . S
C1714 O1715 1.278 . S
C1714 O1722 1.224 . S
O1715 C1714 1.278 . S
C1716 O1717 1.245 . S
C1716 O1728 1.232 . S
O1717 C1716 1.245 . S
O1718 Co1712 2.058 . S
O1718 C1744 1.269 . S
O1719 Co1711 2.074 . S
O1719 C1744 1.257 . S
H1720 C1745 0.930 . S
H1721 C1751 0.930 . S
O1722 Co1711 2.093 . S
O1722 C1714 1.224 . S
H1723 C1755 0.929 . S
H1724 C1757 0.930 . S
H1725 C1758 0.930 . S
H1726 C1756 0.929 . S
H1727 C1759 0.928 . S
O1728 Co1712 2.057 . S
O1728 C1716 1.232 . S
H1729 C1748 0.929 . S
H1730 C1749 0.929 . S
H1731 C1761 0.931 . S
H1732 C1753 0.929 . S
H1733 C1762 0.930 . S
H1734 C1754 0.931 . S
O1735 Co1711 2.097 . S
O1735 C1763 1.214 . S
H1736 C1764 0.929 . S
H1737 C1765 0.929 . S
H1738 C1766 0.930 . S
H1739 C1767 0.929 . S
H1740 C1769 0.930 . S
H1741 C1746 0.930 . S
H1742 C1750 0.930 . S
O1743 Co1712 2.037 . S
O1743 C1763 1.234 . S
C1744 O1718 1.269 . S
C1744 O1719 1.257 . S
C1745 H1720 0.930 . S
C1745 C1748 1.388 . S
C1745 C1750 1.418 . S
C1746 H1741 0.930 . S
C1746 C1749 1.404 . S
C1746 C1750 1.353 . S
N1747 Co1712 2.145 . S
N1747 C1748 1.397 . S
N1747 C1749 1.334 . S
C1748 H1729 0.929 . S
C1748 C1745 1.388 . S
C1748 N1747 1.397 . S
C1749 H1730 0.929 . S
C1749 C1746 1.404 . S
C1749 N1747 1.334 . S
C1750 H1742 0.930 . S
C1750 C1745 1.418 . S
C1750 C1746 1.353 . S
C1751 H1721 0.930 . S
C1751 N1752 1.330 . S
C1751 C1753 1.446 . S
N1752 Co1711 2.151 . S
N1752 C1751 1.330 . S
N1752 C1756 1.418 . S
C1753 H1732 0.929 . S
C1753 C1751 1.446 . S
C1753 C1754 1.332 . S
C1754 H1734 0.931 . S
C1754 C1753 1.332 . S
C1754 C1755 1.267 . S
C1755 H1723 0.929 . S
C1755 C1754 1.267 . S
C1755 C1756 1.251 . S
C1756 H1726 0.929 . S
C1756 N1752 1.418 . S
C1756 C1755 1.251 . S
C1757 H1724 0.930 . S
C1757 C1759 1.406 . S
C1757 C1762 1.261 . S
C1758 H1725 0.930 . S
C1758 N1760 1.325 . S
C1758 C1761 1.357 . S
C1759 H1727 0.928 . S
C1759 C1757 1.406 . S
C1759 N1760 1.261 . S
N1760 Co1711 2.214 . S
N1760 C1758 1.325 . S
N1760 C1759 1.261 . S
C1761 H1731 0.931 . S
C1761 C1758 1.357 . S
C1761 C1762 1.312 . S
C1762 H1733 0.930 . S
C1762 C1757 1.261 . S
C1762 C1761 1.312 . S
C1763 O1735 1.214 . S
C1763 O1743 1.234 . S
C1764 H1736 0.929 . S
C1764 C1767 1.391 . S
C1764 C1769 1.391 . S
C1765 H1737 0.929 . S
C1765 C1766 1.390 . S
C1765 N1768 1.391 . S
C1766 H1738 0.930 . S
C1766 C1765 1.390 . S
C1766 C1767 1.392 . S
C1767 H1739 0.929 . S
C1767 C1764 1.391 . S
C1767 C1766 1.392 . S
N1768 Co1712 2.257 . S
N1768 C1765 1.391 . S
N1768 C1769 1.388 . S
C1769 H1740 0.930 . S
C1769 C1764 1.391 . S
C1769 N1768 1.388 . S
Co1770 O1772 2.143 . S
Co1770 O1778 2.074 . S
Co1770 O1781 2.093 . S
Co1770 O1794 2.097 . S
Co1770 N1811 2.151 . S
Co1770 N1819 2.214 . S
Co1771 O1772 2.160 . S
Co1771 O1777 2.058 . S
Co1771 O1787 2.057 . S
Co1771 O1802 2.037 . S
Co1771 N1806 2.145 . S
Co1771 N1827 2.257 . S
O1772 Co1770 2.143 . S
O1772 Co1771 2.160 . S
C1773 O1774 1.278 . S
C1773 O1781 1.224 . S
O1774 C1773 1.278 . S
C1775 O1776 1.245 . S
C1775 O1787 1.232 . S
O1776 C1775 1.245 . S
O1777 Co1771 2.058 . S
O1777 C1803 1.269 . S
O1778 Co1770 2.074 . S
O1778 C1803 1.257 . S
H1779 C1804 0.930 . S
H1780 C1810 0.930 . S
O1781 Co1770 2.093 . S
O1781 C1773 1.224 . S
H1782 C1814 0.929 . S
H1783 C1816 0.930 . S
H1784 C1817 0.930 . S
H1785 C1815 0.929 . S
H1786 C1818 0.928 . S
O1787 Co1771 2.057 . S
O1787 C1775 1.232 . S
H1788 C1807 0.929 . S
H1789 C1808 0.929 . S
H1790 C1820 0.931 . S
H1791 C1812 0.929 . S
H1792 C1821 0.930 . S
H1793 C1813 0.931 . S
O1794 Co1770 2.097 . S
O1794 C1822 1.214 . S
H1795 C1823 0.929 . S
H1796 C1824 0.929 . S
H1797 C1825 0.930 . S
H1798 C1826 0.929 . S
H1799 C1828 0.930 . S
H1800 C1805 0.930 . S
H1801 C1809 0.930 . S
O1802 Co1771 2.037 . S
O1802 C1822 1.234 . S
C1803 O1777 1.269 . S
C1803 O1778 1.257 . S
C1804 H1779 0.930 . S
C1804 C1807 1.388 . S
C1804 C1809 1.418 . S
C1805 H1800 0.930 . S
C1805 C1808 1.404 . S
C1805 C1809 1.353 . S
N1806 Co1771 2.145 . S
N1806 C1807 1.397 . S
N1806 C1808 1.334 . S
C1807 H1788 0.929 . S
C1807 C1804 1.388 . S
C1807 N1806 1.397 . S
C1808 H1789 0.929 . S
C1808 C1805 1.404 . S
C1808 N1806 1.334 . S
C1809 H1801 0.930 . S
C1809 C1804 1.418 . S
C1809 C1805 1.353 . S
C1810 H1780 0.930 . S
C1810 N1811 1.330 . S
C1810 C1812 1.446 . S
N1811 Co1770 2.151 . S
N1811 C1810 1.330 . S
N1811 C1815 1.418 . S
C1812 H1791 0.929 . S
C1812 C1810 1.446 . S
C1812 C1813 1.332 . S
C1813 H1793 0.931 . S
C1813 C1812 1.332 . S
C1813 C1814 1.267 . S
C1814 H1782 0.929 . S
C1814 C1813 1.267 . S
C1814 C1815 1.251 . S
C1815 H1785 0.929 . S
C1815 N1811 1.418 . S
C1815 C1814 1.251 . S
C1816 H1783 0.930 . S
C1816 C1818 1.406 . S
C1816 C1821 1.261 . S
C1817 H1784 0.930 . S
C1817 N1819 1.325 . S
C1817 C1820 1.357 . S
C1818 H1786 0.928 . S
C1818 C1816 1.406 . S
C1818 N1819 1.261 . S
N1819 Co1770 2.214 . S
N1819 C1817 1.325 . S
N1819 C1818 1.261 . S
C1820 H1790 0.931 . S
C1820 C1817 1.357 . S
C1820 C1821 1.312 . S
C1821 H1792 0.930 . S
C1821 C1816 1.261 . S
C1821 C1820 1.312 . S
C1822 O1794 1.214 . S
C1822 O1802 1.234 . S
C1823 H1795 0.929 . S
C1823 C1826 1.391 . S
C1823 C1828 1.391 . S
C1824 H1796 0.929 . S
C1824 C1825 1.390 . S
C1824 N1827 1.391 . S
C1825 H1797 0.930 . S
C1825 C1824 1.390 . S
C1825 C1826 1.392 . S
C1826 H1798 0.929 . S
C1826 C1823 1.391 . S
C1826 C1825 1.392 . S
N1827 Co1771 2.257 . S
N1827 C1824 1.391 . S
N1827 C1828 1.388 . S
C1828 H1799 0.930 . S
C1828 C1823 1.391 . S
C1828 N1827 1.388 . S
Co1829 O1831 2.143 . S
Co1829 O1837 2.074 . S
Co1829 O1840 2.093 . S
Co1829 O1853 2.097 . S
Co1829 N1870 2.151 . S
Co1829 N1878 2.214 . S
Co1830 O1831 2.160 . S
Co1830 O1836 2.058 . S
Co1830 O1846 2.057 . S
Co1830 O1861 2.037 . S
Co1830 N1865 2.145 . S
Co1830 N1886 2.257 . S
O1831 Co1829 2.143 . S
O1831 Co1830 2.160 . S
C1832 O1833 1.278 . S
C1832 O1840 1.224 . S
O1833 C1832 1.278 . S
C1834 O1835 1.245 . S
C1834 O1846 1.232 . S
O1835 C1834 1.245 . S
O1836 Co1830 2.058 . S
O1836 C1862 1.269 . S
O1837 Co1829 2.074 . S
O1837 C1862 1.257 . S
H1838 C1863 0.930 . S
H1839 C1869 0.930 . S
O1840 Co1829 2.093 . S
O1840 C1832 1.224 . S
H1841 C1873 0.929 . S
H1842 C1875 0.930 . S
H1843 C1876 0.930 . S
H1844 C1874 0.929 . S
H1845 C1877 0.928 . S
O1846 Co1830 2.057 . S
O1846 C1834 1.232 . S
H1847 C1866 0.929 . S
H1848 C1867 0.929 . S
H1849 C1879 0.931 . S
H1850 C1871 0.929 . S
H1851 C1880 0.930 . S
H1852 C1872 0.931 . S
O1853 Co1829 2.097 . S
O1853 C1881 1.214 . S
H1854 C1882 0.929 . S
H1855 C1883 0.929 . S
H1856 C1884 0.930 . S
H1857 C1885 0.929 . S
H1858 C1887 0.930 . S
H1859 C1864 0.930 . S
H1860 C1868 0.930 . S
O1861 Co1830 2.037 . S
O1861 C1881 1.234 . S
C1862 O1836 1.269 . S
C1862 O1837 1.257 . S
C1863 H1838 0.930 . S
C1863 C1866 1.388 . S
C1863 C1868 1.418 . S
C1864 H1859 0.930 . S
C1864 C1867 1.404 . S
C1864 C1868 1.353 . S
N1865 Co1830 2.145 . S
N1865 C1866 1.397 . S
N1865 C1867 1.334 . S
C1866 H1847 0.929 . S
C1866 C1863 1.388 . S
C1866 N1865 1.397 . S
C1867 H1848 0.929 . S
C1867 C1864 1.404 . S
C1867 N1865 1.334 . S
C1868 H1860 0.930 . S
C1868 C1863 1.418 . S
C1868 C1864 1.353 . S
C1869 H1839 0.930 . S
C1869 N1870 1.330 . S
C1869 C1871 1.446 . S
N1870 Co1829 2.151 . S
N1870 C1869 1.330 . S
N1870 C1874 1.418 . S
C1871 H1850 0.929 . S
C1871 C1869 1.446 . S
C1871 C1872 1.332 . S
C1872 H1852 0.931 . S
C1872 C1871 1.332 . S
C1872 C1873 1.267 . S
C1873 H1841 0.929 . S
C1873 C1872 1.267 . S
C1873 C1874 1.251 . S
C1874 H1844 0.929 . S
C1874 N1870 1.418 . S
C1874 C1873 1.251 . S
C1875 H1842 0.930 . S
C1875 C1877 1.406 . S
C1875 C1880 1.261 . S
C1876 H1843 0.930 . S
C1876 N1878 1.325 . S
C1876 C1879 1.357 . S
C1877 H1845 0.928 . S
C1877 C1875 1.406 . S
C1877 N1878 1.261 . S
N1878 Co1829 2.214 . S
N1878 C1876 1.325 . S
N1878 C1877 1.261 . S
C1879 H1849 0.931 . S
C1879 C1876 1.357 . S
C1879 C1880 1.312 . S
C1880 H1851 0.930 . S
C1880 C1875 1.261 . S
C1880 C1879 1.312 . S
C1881 O1853 1.214 . S
C1881 O1861 1.234 . S
C1882 H1854 0.929 . S
C1882 C1885 1.391 . S
C1882 C1887 1.391 . S
C1883 H1855 0.929 . S
C1883 C1884 1.390 . S
C1883 N1886 1.391 . S
C1884 H1856 0.930 . S
C1884 C1883 1.390 . S
C1884 C1885 1.392 . S
C1885 H1857 0.929 . S
C1885 C1882 1.391 . S
C1885 C1884 1.392 . S
N1886 Co1830 2.257 . S
N1886 C1883 1.391 . S
N1886 C1887 1.388 . S
C1887 H1858 0.930 . S
C1887 C1882 1.391 . S
C1887 N1886 1.388 . S
H1888 C1894 0.930 . S
H1889 C1897 0.930 . S
H1890 C1898 0.930 . S
H1891 C1899 0.930 . S
H1892 C1902 0.930 . S
H1893 C1903 0.930 . S
C1894 H1888 0.930 . S
C1894 C1895 1.355 1_545 S
C1894 C1896 1.415 . S
C1895 C1894 1.355 1_565 S
C1895 C1897 1.419 . S
C1896 C1894 1.415 . S
C1896 C1901 1.425 1_545 S
C1896 C1903 1.409 . S
C1897 H1889 0.930 . S
C1897 C1895 1.419 . S
C1897 C1898 1.362 . S
C1898 H1890 0.930 . S
C1898 C1897 1.362 . S
C1898 C1901 1.409 . S
C1899 H1891 0.930 . S
C1899 C1900 1.355 1_565 S
C1899 C1901 1.415 . S
C1900 C1899 1.355 1_545 S
C1900 C1902 1.419 . S
C1901 C1896 1.425 1_565 S
C1901 C1898 1.409 . S
C1901 C1899 1.415 . S
C1902 H1892 0.930 . S
C1902 C1900 1.419 . S
C1902 C1903 1.362 . S
C1903 H1893 0.930 . S
C1903 C1896 1.409 . S
C1903 C1902 1.362 . S
H1904 C1910 0.930 . S
H1905 C1913 0.930 . S
H1906 C1914 0.930 . S
H1907 C1915 0.930 . S
H1908 C1918 0.930 . S
H1909 C1919 0.930 . S
C1910 H1904 0.930 . S
C1910 C1911 1.355 . S
C1910 C1912 1.415 . S
C1911 C1910 1.355 . S
C1911 C1913 1.419 . S
C1912 C1910 1.415 . S
C1912 C1917 1.425 . S
C1912 C1919 1.409 . S
C1913 H1905 0.930 . S
C1913 C1911 1.419 . S
C1913 C1914 1.362 . S
C1914 H1906 0.930 . S
C1914 C1913 1.362 . S
C1914 C1917 1.409 . S
C1915 H1907 0.930 . S
C1915 C1916 1.355 . S
C1915 C1917 1.415 . S
C1916 C1915 1.355 . S
C1916 C1918 1.419 . S
C1917 C1912 1.425 . S
C1917 C1914 1.409 . S
C1917 C1915 1.415 . S
C1918 H1908 0.930 . S
C1918 C1916 1.419 . S
C1918 C1919 1.362 . S
C1919 H1909 0.930 . S
C1919 C1912 1.409 . S
C1919 C1918 1.362 . S
H1920 C1926 0.930 . S
H1921 C1929 0.930 . S
H1922 C1930 0.930 . S
H1923 C1931 0.930 . S
H1924 C1934 0.930 . S
H1925 C1935 0.930 . S
C1926 H1920 0.930 . S
C1926 C1927 1.355 . S
C1926 C1928 1.415 . S
C1927 C1926 1.355 . S
C1927 C1929 1.419 1_545 S
C1928 C1926 1.415 . S
C1928 C1933 1.425 1_545 S
C1928 C1935 1.409 . S
C1929 H1921 0.930 . S
C1929 C1927 1.419 1_565 S
C1929 C1930 1.362 . S
C1930 H1922 0.930 . S
C1930 C1929 1.362 . S
C1930 C1933 1.409 . S
C1931 H1923 0.930 . S
C1931 C1932 1.355 . S
C1931 C1933 1.415 . S
C1932 C1931 1.355 . S
C1932 C1934 1.419 1_565 S
C1933 C1928 1.425 1_565 S
C1933 C1930 1.409 . S
C1933 C1931 1.415 . S
C1934 H1924 0.930 . S
C1934 C1932 1.419 1_545 S
C1934 C1935 1.362 . S
C1935 H1925 0.930 . S
C1935 C1928 1.409 . S
C1935 C1934 1.362 . S
H1936 C1942 0.930 . S
H1937 C1945 0.930 . S
H1938 C1946 0.930 . S
H1939 C1947 0.930 . S
H1940 C1950 0.930 . S
H1941 C1951 0.930 . S
C1942 H1936 0.930 . S
C1942 C1943 1.355 . S
C1942 C1944 1.415 . S
C1943 C1942 1.355 . S
C1943 C1945 1.419 . S
C1944 C1942 1.415 . S
C1944 C1949 1.425 1_556 S
C1944 C1951 1.409 1_556 S
C1945 H1937 0.930 . S
C1945 C1943 1.419 . S
C1945 C1946 1.362 . S
C1946 H1938 0.930 . S
C1946 C1945 1.362 . S
C1946 C1949 1.409 1_556 S
C1947 H1939 0.930 . S
C1947 C1948 1.355 . S
C1947 C1949 1.415 . S
C1948 C1947 1.355 . S
C1948 C1950 1.419 . S
C1949 C1944 1.425 1_554 S
C1949 C1946 1.409 1_554 S
C1949 C1947 1.415 . S
C1950 H1940 0.930 . S
C1950 C1948 1.419 . S
C1950 C1951 1.362 . S
C1951 H1941 0.930 . S
C1951 C1944 1.409 1_554 S
C1951 C1950 1.362 . S
H1952 C1958 0.930 . S
H1953 C1961 0.930 . S
H1954 C1962 0.930 . S
H1955 C1963 0.930 . S
H1956 C1966 0.930 . S
H1957 C1967 0.930 . S
C1958 H1952 0.930 . S
C1958 C1959 1.355 . S
C1958 C1960 1.415 . S
C1959 C1958 1.355 . S
C1959 C1961 1.419 1_565 S
C1960 C1958 1.415 . S
C1960 C1965 1.425 1_565 S
C1960 C1967 1.409 . S
C1961 H1953 0.930 . S
C1961 C1959 1.419 1_545 S
C1961 C1962 1.362 . S
C1962 H1954 0.930 . S
C1962 C1961 1.362 . S
C1962 C1965 1.409 . S
C1963 H1955 0.930 . S
C1963 C1964 1.355 . S
C1963 C1965 1.415 . S
C1964 C1963 1.355 . S
C1964 C1966 1.419 1_545 S
C1965 C1960 1.425 1_545 S
C1965 C1962 1.409 . S
C1965 C1963 1.415 . S
C1966 H1956 0.930 . S
C1966 C1964 1.419 1_565 S
C1966 C1967 1.362 . S
C1967 H1957 0.930 . S
C1967 C1960 1.409 . S
C1967 C1966 1.362 . S
H1968 C1974 0.930 . S
H1969 C1977 0.930 . S
H1970 C1978 0.930 . S
H1971 C1979 0.930 . S
H1972 C1982 0.930 . S
H1973 C1983 0.930 . S
C1974 H1968 0.930 . S
C1974 C1975 1.355 . S
C1974 C1976 1.415 . S
C1975 C1974 1.355 . S
C1975 C1977 1.419 . S
C1976 C1974 1.415 . S
C1976 C1981 1.425 . S
C1976 C1983 1.409 . S
C1977 H1969 0.930 . S
C1977 C1975 1.419 . S
C1977 C1978 1.362 . S
C1978 H1970 0.930 . S
C1978 C1977 1.362 . S
C1978 C1981 1.409 . S
C1979 H1971 0.930 . S
C1979 C1980 1.355 . S
C1979 C1981 1.415 . S
C1980 C1979 1.355 . S
C1980 C1982 1.419 . S
C1981 C1976 1.425 . S
C1981 C1978 1.409 . S
C1981 C1979 1.415 . S
C1982 H1972 0.930 . S
C1982 C1980 1.419 . S
C1982 C1983 1.362 . S
C1983 H1973 0.930 . S
C1983 C1976 1.409 . S
C1983 C1982 1.362 . S
H1984 C1990 0.930 . S
H1985 C1993 0.930 . S
H1986 C1994 0.930 . S
H1987 C1995 0.930 . S
H1988 C1998 0.930 . S
H1989 C1999 0.930 . S
C1990 H1984 0.930 . S
C1990 C1991 1.355 . S
C1990 C1992 1.415 . S
C1991 C1990 1.355 . S
C1991 C1993 1.419 1_545 S
C1992 C1990 1.415 . S
C1992 C1997 1.425 1_545 S
C1992 C1999 1.409 . S
C1993 H1985 0.930 . S
C1993 C1991 1.419 1_565 S
C1993 C1994 1.362 . S
C1994 H1986 0.930 . S
C1994 C1993 1.362 . S
C1994 C1997 1.409 . S
C1995 H1987 0.930 . S
C1995 C1996 1.355 . S
C1995 C1997 1.415 . S
C1996 C1995 1.355 . S
C1996 C1998 1.419 1_565 S
C1997 C1992 1.425 1_565 S
C1997 C1994 1.409 . S
C1997 C1995 1.415 . S
C1998 H1988 0.930 . S
C1998 C1996 1.419 1_545 S
C1998 C1999 1.362 . S
C1999 H1989 0.930 . S
C1999 C1992 1.409 . S
C1999 C1998 1.362 . S
H2000 C2006 0.930 . S
H2001 C2009 0.930 . S
H2002 C2010 0.930 . S
H2003 C2011 0.930 . S
H2004 C2014 0.930 . S
H2005 C2015 0.930 . S
C2006 H2000 0.930 . S
C2006 C2007 1.355 . S
C2006 C2008 1.415 . S
C2007 C2006 1.355 . S
C2007 C2009 1.419 . S
C2008 C2006 1.415 . S
C2008 C2013 1.425 1_556 S
C2008 C2015 1.409 1_556 S
C2009 H2001 0.930 . S
C2009 C2007 1.419 . S
C2009 C2010 1.362 . S
C2010 H2002 0.930 . S
C2010 C2009 1.362 . S
C2010 C2013 1.409 1_556 S
C2011 H2003 0.930 . S
C2011 C2012 1.355 . S
C2011 C2013 1.415 . S
C2012 C2011 1.355 . S
C2012 C2014 1.419 . S
C2013 C2008 1.425 1_554 S
C2013 C2010 1.409 1_554 S
C2013 C2011 1.415 . S
C2014 H2004 0.930 . S
C2014 C2012 1.419 . S
C2014 C2015 1.362 . S
C2015 H2005 0.930 . S
C2015 C2008 1.409 1_554 S
C2015 C2014 1.362 . S
H2016 C2022 0.930 . S
H2017 C2025 0.920 1_455 S
H2018 C2026 0.930 1_455 S
H2019 C2027 0.930 . S
H2020 C2030 0.930 . S
H2021 C2031 0.930 . S
C2022 H2016 0.930 . S
C2022 C2023 1.355 . S
C2022 C2024 1.415 . S
C2023 C2022 1.355 . S
C2023 C2025 1.419 . S
C2024 C2022 1.415 . S
C2024 C2029 1.425 . S
C2024 C2031 1.409 . S
C2025 H2017 0.920 1_655 S
C2025 C2023 1.419 . S
C2025 C2026 1.362 . S
C2026 H2018 0.930 1_655 S
C2026 C2025 1.362 . S
C2026 C2029 1.409 . S
C2027 H2019 0.930 . S
C2027 C2028 1.355 . S
C2027 C2029 1.415 . S
C2028 C2027 1.355 . S
C2028 C2030 1.419 . S
C2029 C2024 1.425 . S
C2029 C2026 1.409 . S
C2029 C2027 1.415 . S
C2030 H2020 0.930 . S
C2030 C2028 1.419 . S
C2030 C2031 1.362 . S
C2031 H2021 0.930 . S
C2031 C2024 1.409 . S
C2031 C2030 1.362 . S
H2032 C2038 0.930 . S
H2033 C2041 0.930 . S
H2034 C2042 0.930 . S
H2035 C2043 0.930 . S
H2036 C2046 0.930 . S
H2037 C2047 0.930 . S
C2038 H2032 0.930 . S
C2038 C2039 1.355 . S
C2038 C2040 1.415 . S
C2039 C2038 1.355 . S
C2039 C2041 1.419 . S
C2040 C2038 1.415 . S
C2040 C2045 1.425 1_554 S
C2040 C2047 1.409 1_554 S
C2041 H2033 0.930 . S
C2041 C2039 1.419 . S
C2041 C2042 1.362 . S
C2042 H2034 0.930 . S
C2042 C2041 1.362 . S
C2042 C2045 1.409 1_554 S
C2043 H2035 0.930 . S
C2043 C2044 1.355 . S
C2043 C2045 1.415 . S
C2044 C2043 1.355 . S
C2044 C2046 1.419 . S
C2045 C2040 1.425 1_556 S
C2045 C2042 1.409 1_556 S
C2045 C2043 1.415 . S
C2046 H2036 0.930 . S
C2046 C2044 1.419 . S
C2046 C2047 1.362 . S
C2047 H2037 0.930 . S
C2047 C2040 1.409 1_556 S
C2047 C2046 1.362 . S
H2048 C2054 0.930 . S
H2049 C2057 0.930 . S
H2050 C2058 0.930 . S
H2051 C2059 0.930 . S
H2052 C2062 0.930 . S
H2053 C2063 0.930 . S
C2054 H2048 0.930 . S
C2054 C2055 1.355 . S
C2054 C2056 1.415 . S
C2055 C2054 1.355 . S
C2055 C2057 1.419 . S
C2056 C2054 1.415 . S
C2056 C2061 1.425 . S
C2056 C2063 1.409 . S
C2057 H2049 0.930 . S
C2057 C2055 1.419 . S
C2057 C2058 1.362 . S
C2058 H2050 0.930 . S
C2058 C2057 1.362 . S
C2058 C2061 1.409 . S
C2059 H2051 0.930 . S
C2059 C2060 1.355 . S
C2059 C2061 1.415 . S
C2060 C2059 1.355 . S
C2060 C2062 1.419 . S
C2061 C2056 1.425 . S
C2061 C2058 1.409 . S
C2061 C2059 1.415 . S
C2062 H2052 0.930 . S
C2062 C2060 1.419 . S
C2062 C2063 1.362 . S
C2063 H2053 0.930 . S
C2063 C2056 1.409 . S
C2063 C2062 1.362 . S
H2064 C2070 0.930 . S
H2065 C2073 0.930 . S
H2066 C2074 0.930 . S
H2067 C2075 0.930 . S
H2068 C2078 0.930 . S
H2069 C2079 0.930 . S
C2070 H2064 0.930 . S
C2070 C2071 1.355 . S
C2070 C2072 1.415 . S
C2071 C2070 1.355 . S
C2071 C2073 1.419 . S
C2072 C2070 1.415 . S
C2072 C2077 1.425 . S
C2072 C2079 1.409 . S
C2073 H2065 0.930 . S
C2073 C2071 1.419 . S
C2073 C2074 1.362 . S
C2074 H2066 0.930 . S
C2074 C2073 1.362 . S
C2074 C2077 1.409 . S
C2075 H2067 0.930 . S
C2075 C2076 1.355 . S
C2075 C2077 1.415 . S
C2076 C2075 1.355 . S
C2076 C2078 1.419 . S
C2077 C2072 1.425 . S
C2077 C2074 1.409 . S
C2077 C2075 1.415 . S
C2078 H2068 0.930 . S
C2078 C2076 1.419 . S
C2078 C2079 1.362 . S
C2079 H2069 0.930 . S
C2079 C2072 1.409 . S
C2079 C2078 1.362 . S
H2080 C2086 0.930 . S
H2081 C2089 0.930 . S
H2082 C2090 0.930 . S
H2083 C2091 0.930 . S
H2084 C2094 0.930 . S
H2085 C2095 0.930 . S
C2086 H2080 0.930 . S
C2086 C2087 1.355 . S
C2086 C2088 1.415 . S
C2087 C2086 1.355 . S
C2087 C2089 1.419 . S
C2088 C2086 1.415 . S
C2088 C2093 1.425 . S
C2088 C2095 1.409 . S
C2089 H2081 0.930 . S
C2089 C2087 1.419 . S
C2089 C2090 1.362 . S
C2090 H2082 0.930 . S
C2090 C2089 1.362 . S
C2090 C2093 1.409 . S
C2091 H2083 0.930 . S
C2091 C2092 1.355 . S
C2091 C2093 1.415 . S
C2092 C2091 1.355 . S
C2092 C2094 1.419 . S
C2093 C2088 1.425 . S
C2093 C2090 1.409 . S
C2093 C2091 1.415 . S
C2094 H2084 0.930 . S
C2094 C2092 1.419 . S
C2094 C2095 1.362 . S
C2095 H2085 0.930 . S
C2095 C2088 1.409 . S
C2095 C2094 1.362 . S
H2096 C2102 0.930 . S
H2097 C2105 0.930 . S
H2098 C2106 0.930 . S
H2099 C2107 0.930 . S
H2100 C2110 0.930 . S
H2101 C2111 0.930 . S
C2102 H2096 0.930 . S
C2102 C2103 1.355 . S
C2102 C2104 1.415 . S
C2103 C2102 1.355 . S
C2103 C2105 1.419 . S
C2104 C2102 1.415 . S
C2104 C2109 1.425 1_554 S
C2104 C2111 1.409 1_554 S
C2105 H2097 0.930 . S
C2105 C2103 1.419 . S
C2105 C2106 1.362 . S
C2106 H2098 0.930 . S
C2106 C2105 1.362 . S
C2106 C2109 1.409 1_554 S
C2107 H2099 0.930 . S
C2107 C2108 1.355 . S
C2107 C2109 1.415 . S
C2108 C2107 1.355 . S
C2108 C2110 1.419 . S
C2109 C2104 1.425 1_556 S
C2109 C2106 1.409 1_556 S
C2109 C2107 1.415 . S
C2110 H2100 0.930 . S
C2110 C2108 1.419 . S
C2110 C2111 1.362 . S
C2111 H2101 0.930 . S
C2111 C2104 1.409 1_556 S
C2111 C2110 1.362 . S
H2112 C2118 0.930 . S
H2113 C2121 0.930 . S
H2114 C2122 0.930 . S
H2115 C2123 0.930 . S
H2116 C2126 0.930 . S
H2117 C2127 0.930 . S
C2118 H2112 0.930 . S
C2118 C2119 1.355 . S
C2118 C2120 1.415 . S
C2119 C2118 1.355 . S
C2119 C2121 1.419 . S
C2120 C2118 1.415 . S
C2120 C2125 1.425 . S
C2120 C2127 1.409 . S
C2121 H2113 0.930 . S
C2121 C2119 1.419 . S
C2121 C2122 1.362 . S
C2122 H2114 0.930 . S
C2122 C2121 1.362 . S
C2122 C2125 1.409 . S
C2123 H2115 0.930 . S
C2123 C2124 1.355 . S
C2123 C2125 1.415 . S
C2124 C2123 1.355 . S
C2124 C2126 1.419 . S
C2125 C2120 1.425 . S
C2125 C2122 1.409 . S
C2125 C2123 1.415 . S
C2126 H2116 0.930 . S
C2126 C2124 1.419 . S
C2126 C2127 1.362 . S
C2127 H2117 0.930 . S
C2127 C2120 1.409 . S
C2127 C2126 1.362 . S
H2128 C2134 0.930 . S
H2129 C2137 0.930 . S
H2130 C2138 0.930 . S
H2131 C2139 0.930 . S
H2132 C2142 0.930 . S
H2133 C2143 0.930 . S
C2134 H2128 0.930 . S
C2134 C2135 1.355 . S
C2134 C2136 1.415 . S
C2135 C2134 1.355 . S
C2135 C2137 1.419 . S
C2136 C2134 1.415 . S
C2136 C2141 1.425 . S
C2136 C2143 1.409 . S
C2137 H2129 0.930 . S
C2137 C2135 1.419 . S
C2137 C2138 1.362 . S
C2138 H2130 0.930 . S
C2138 C2137 1.362 . S
C2138 C2141 1.409 . S
C2139 H2131 0.930 . S
C2139 C2140 1.355 . S
C2139 C2141 1.415 . S
C2140 C2139 1.355 . S
C2140 C2142 1.419 . S
C2141 C2136 1.425 . S
C2141 C2138 1.409 . S
C2141 C2139 1.415 . S
C2142 H2132 0.930 . S
C2142 C2140 1.419 . S
C2142 C2143 1.362 . S
C2143 H2133 0.930 . S
C2143 C2136 1.409 . S
C2143 C2142 1.362 . S
H2144 C2150 0.930 . S
H2145 C2153 0.930 1_545 S
H2146 C2154 0.930 . S
H2147 C2155 0.930 . S
H2148 C2158 0.930 . S
H2149 C2159 0.930 . S
C2150 H2144 0.930 . S
C2150 C2151 1.355 . S
C2150 C2152 1.415 . S
C2151 C2150 1.355 . S
C2151 C2153 1.419 . S
C2152 C2150 1.415 . S
C2152 C2157 1.425 . S
C2152 C2159 1.409 . S
C2153 H2145 0.930 1_565 S
C2153 C2151 1.419 . S
C2153 C2154 1.362 . S
C2154 H2146 0.930 . S
C2154 C2153 1.362 . S
C2154 C2157 1.409 . S
C2155 H2147 0.930 . S
C2155 C2156 1.355 . S
C2155 C2157 1.415 . S
C2156 C2155 1.355 . S
C2156 C2158 1.419 . S
C2157 C2152 1.425 . S
C2157 C2154 1.409 . S
C2157 C2155 1.415 . S
C2158 H2148 0.930 . S
C2158 C2156 1.419 . S
C2158 C2159 1.362 . S
C2159 H2149 0.930 . S
C2159 C2152 1.409 . S
C2159 C2158 1.362 . S
H2160 C2166 0.930 . S
H2161 C2169 0.930 . S
H2162 C2170 0.930 . S
H2163 C2171 0.930 . S
H2164 C2174 0.930 . S
H2165 C2175 0.930 . S
C2166 H2160 0.930 . S
C2166 C2167 1.355 . S
C2166 C2168 1.415 . S
C2167 C2166 1.355 . S
C2167 C2169 1.419 . S
C2168 C2166 1.415 . S
C2168 C2173 1.425 . S
C2168 C2175 1.409 . S
C2169 H2161 0.930 . S
C2169 C2167 1.419 . S
C2169 C2170 1.362 . S
C2170 H2162 0.930 . S
C2170 C2169 1.362 . S
C2170 C2173 1.409 . S
C2171 H2163 0.930 . S
C2171 C2172 1.355 . S
C2171 C2173 1.415 . S
C2172 C2171 1.355 . S
C2172 C2174 1.419 . S
C2173 C2168 1.425 . S
C2173 C2170 1.409 . S
C2173 C2171 1.415 . S
C2174 H2164 0.930 . S
C2174 C2172 1.419 . S
C2174 C2175 1.362 . S
C2175 H2165 0.930 . S
C2175 C2168 1.409 . S
C2175 C2174 1.362 . S
H2176 C2182 0.930 . S
H2177 C2185 0.930 . S
H2178 C2186 0.930 . S
H2179 C2187 0.930 . S
H2180 C2190 0.930 . S
H2181 C2191 0.930 . S
C2182 H2176 0.930 . S
C2182 C2183 1.355 . S
C2182 C2184 1.415 . S
C2183 C2182 1.355 . S
C2183 C2185 1.419 . S
C2184 C2182 1.415 . S
C2184 C2189 1.425 . S
C2184 C2191 1.409 . S
C2185 H2177 0.930 . S
C2185 C2183 1.419 . S
C2185 C2186 1.362 . S
C2186 H2178 0.930 . S
C2186 C2185 1.362 . S
C2186 C2189 1.409 . S
C2187 H2179 0.930 . S
C2187 C2188 1.355 . S
C2187 C2189 1.415 . S
C2188 C2187 1.355 . S
C2188 C2190 1.419 . S
C2189 C2184 1.425 . S
C2189 C2186 1.409 . S
C2189 C2187 1.415 . S
C2190 H2180 0.930 . S
C2190 C2188 1.419 . S
C2190 C2191 1.362 . S
C2191 H2181 0.930 . S
C2191 C2184 1.409 . S
C2191 C2190 1.362 . S
H2192 C2198 0.930 . S
H2193 C2201 0.930 . S
H2194 C2202 0.930 . S
H2195 C2203 0.930 . S
H2196 C2206 0.930 . S
H2197 C2207 0.930 . S
C2198 H2192 0.930 . S
C2198 C2199 1.355 . S
C2198 C2200 1.415 . S
C2199 C2198 1.355 . S
C2199 C2201 1.419 . S
C2200 C2198 1.415 . S
C2200 C2205 1.425 . S
C2200 C2207 1.409 . S
C2201 H2193 0.930 . S
C2201 C2199 1.419 . S
C2201 C2202 1.362 . S
C2202 H2194 0.930 . S
C2202 C2201 1.362 . S
C2202 C2205 1.409 . S
C2203 H2195 0.930 . S
C2203 C2204 1.355 . S
C2203 C2205 1.415 . S
C2204 C2203 1.355 . S
C2204 C2206 1.419 . S
C2205 C2200 1.425 . S
C2205 C2202 1.409 . S
C2205 C2203 1.415 . S
C2206 H2196 0.930 . S
C2206 C2204 1.419 . S
C2206 C2207 1.362 . S
C2207 H2197 0.930 . S
C2207 C2200 1.409 . S
C2207 C2206 1.362 . S
H2208 C2214 0.930 . S
H2209 C2217 0.930 . S
H2210 C2218 0.930 . S
H2211 C2219 0.930 . S
H2212 C2222 0.930 1_565 S
H2213 C2223 0.930 . S
C2214 H2208 0.930 . S
C2214 C2215 1.355 . S
C2214 C2216 1.415 . S
C2215 C2214 1.355 . S
C2215 C2217 1.419 . S
C2216 C2214 1.415 . S
C2216 C2221 1.425 . S
C2216 C2223 1.409 . S
C2217 H2209 0.930 . S
C2217 C2215 1.419 . S
C2217 C2218 1.362 . S
C2218 H2210 0.930 . S
C2218 C2217 1.362 . S
C2218 C2221 1.409 . S
C2219 H2211 0.930 . S
C2219 C2220 1.355 . S
C2219 C2221 1.415 . S
C2220 C2219 1.355 . S
C2220 C2222 1.419 . S
C2221 C2216 1.425 . S
C2221 C2218 1.409 . S
C2221 C2219 1.415 . S
C2222 H2212 0.930 1_545 S
C2222 C2220 1.419 . S
C2222 C2223 1.362 . S
C2223 H2213 0.930 . S
C2223 C2216 1.409 . S
C2223 C2222 1.362 . S
H2224 C2230 0.930 . S
H2225 C2233 0.930 . S
H2226 C2234 0.930 . S
H2227 C2235 0.930 . S
H2228 C2238 0.930 . S
H2229 C2239 0.930 . S
C2230 H2224 0.930 . S
C2230 C2231 1.355 . S
C2230 C2232 1.415 . S
C2231 C2230 1.355 . S
C2231 C2233 1.419 . S
C2232 C2230 1.415 . S
C2232 C2237 1.425 . S
C2232 C2239 1.409 . S
C2233 H2225 0.930 . S
C2233 C2231 1.419 . S
C2233 C2234 1.362 . S
C2234 H2226 0.930 . S
C2234 C2233 1.362 . S
C2234 C2237 1.409 . S
C2235 H2227 0.930 . S
C2235 C2236 1.355 . S
C2235 C2237 1.415 . S
C2236 C2235 1.355 . S
C2236 C2238 1.419 . S
C2237 C2232 1.425 . S
C2237 C2234 1.409 . S
C2237 C2235 1.415 . S
C2238 H2228 0.930 . S
C2238 C2236 1.419 . S
C2238 C2239 1.362 . S
C2239 H2229 0.930 . S
C2239 C2232 1.409 . S
C2239 C2238 1.362 . S
H2240 C2246 0.930 . S
H2241 C2249 0.930 . S
H2242 C2250 0.930 . S
H2243 C2251 0.930 . S
H2244 C2254 0.930 . S
H2245 C2255 0.930 . S
C2246 H2240 0.930 . S
C2246 C2247 1.355 . S
C2246 C2248 1.415 . S
C2247 C2246 1.355 . S
C2247 C2249 1.419 . S
C2248 C2246 1.415 . S
C2248 C2253 1.425 . S
C2248 C2255 1.409 . S
C2249 H2241 0.930 . S
C2249 C2247 1.419 . S
C2249 C2250 1.362 . S
C2250 H2242 0.930 . S
C2250 C2249 1.362 . S
C2250 C2253 1.409 . S
C2251 H2243 0.930 . S
C2251 C2252 1.355 . S
C2251 C2253 1.415 . S
C2252 C2251 1.355 . S
C2252 C2254 1.419 . S
C2253 C2248 1.425 . S
C2253 C2250 1.409 . S
C2253 C2251 1.415 . S
C2254 H2244 0.930 . S
C2254 C2252 1.419 . S
C2254 C2255 1.362 . S
C2255 H2245 0.930 . S
C2255 C2248 1.409 . S
C2255 C2254 1.362 . S
H2256 C2262 0.930 . S
H2257 C2265 0.930 . S
H2258 C2266 0.930 . S
H2259 C2267 0.930 . S
H2260 C2270 0.930 . S
H2261 C2271 0.930 . S
C2262 H2256 0.930 . S
C2262 C2263 1.355 . S
C2262 C2264 1.415 . S
C2263 C2262 1.355 . S
C2263 C2265 1.419 . S
C2264 C2262 1.415 . S
C2264 C2269 1.425 . S
C2264 C2271 1.409 . S
C2265 H2257 0.930 . S
C2265 C2263 1.419 . S
C2265 C2266 1.362 . S
C2266 H2258 0.930 . S
C2266 C2265 1.362 . S
C2266 C2269 1.409 . S
C2267 H2259 0.930 . S
C2267 C2268 1.355 . S
C2267 C2269 1.415 . S
C2268 C2267 1.355 . S
C2268 C2270 1.419 . S
C2269 C2264 1.425 . S
C2269 C2266 1.409 . S
C2269 C2267 1.415 . S
C2270 H2260 0.930 . S
C2270 C2268 1.419 . S
C2270 C2271 1.362 . S
C2271 H2261 0.930 . S
C2271 C2264 1.409 . S
C2271 C2270 1.362 . S
H2272 C2278 0.930 . S
H2273 C2281 0.930 . S
H2274 C2282 0.930 . S
H2275 C2283 0.930 . S
H2276 C2286 0.930 . S
H2277 C2287 0.930 . S
C2278 H2272 0.930 . S
C2278 C2279 1.355 . S
C2278 C2280 1.415 . S
C2279 C2278 1.355 . S
C2279 C2281 1.419 . S
C2280 C2278 1.415 . S
C2280 C2285 1.425 . S
C2280 C2287 1.409 . S
C2281 H2273 0.930 . S
C2281 C2279 1.419 . S
C2281 C2282 1.362 . S
C2282 H2274 0.930 . S
C2282 C2281 1.362 . S
C2282 C2285 1.409 . S
C2283 H2275 0.930 . S
C2283 C2284 1.355 . S
C2283 C2285 1.415 . S
C2284 C2283 1.355 . S
C2284 C2286 1.419 . S
C2285 C2280 1.425 . S
C2285 C2282 1.409 . S
C2285 C2283 1.415 . S
C2286 H2276 0.930 . S
C2286 C2284 1.419 . S
C2286 C2287 1.362 . S
C2287 H2277 0.930 . S
C2287 C2280 1.409 . S
C2287 C2286 1.362 . S
H2288 C2294 0.930 . S
H2289 C2297 0.930 . S
H2290 C2298 0.930 . S
H2291 C2299 0.930 . S
H2292 C2302 0.930 . S
H2293 C2303 0.930 . S
C2294 H2288 0.930 . S
C2294 C2295 1.355 . S
C2294 C2296 1.415 . S
C2295 C2294 1.355 . S
C2295 C2297 1.419 . S
C2296 C2294 1.415 . S
C2296 C2301 1.425 . S
C2296 C2303 1.409 . S
C2297 H2289 0.930 . S
C2297 C2295 1.419 . S
C2297 C2298 1.362 . S
C2298 H2290 0.930 . S
C2298 C2297 1.362 . S
C2298 C2301 1.409 . S
C2299 H2291 0.930 . S
C2299 C2300 1.355 . S
C2299 C2301 1.415 . S
C2300 C2299 1.355 . S
C2300 C2302 1.419 . S
C2301 C2296 1.425 . S
C2301 C2298 1.409 . S
C2301 C2299 1.415 . S
C2302 H2292 0.930 . S
C2302 C2300 1.419 . S
C2302 C2303 1.362 . S
C2303 H2293 0.930 . S
C2303 C2296 1.409 . S
C2303 C2302 1.362 . S
H2304 C2310 0.930 . S
H2305 C2313 0.930 . S
H2306 C2314 0.930 . S
H2307 C2315 0.930 . S
H2308 C2318 0.930 . S
H2309 C2319 0.930 . S
C2310 H2304 0.930 . S
C2310 C2311 1.355 . S
C2310 C2312 1.415 . S
C2311 C2310 1.355 . S
C2311 C2313 1.419 . S
C2312 C2310 1.415 . S
C2312 C2317 1.425 . S
C2312 C2319 1.409 . S
C2313 H2305 0.930 . S
C2313 C2311 1.419 . S
C2313 C2314 1.362 . S
C2314 H2306 0.930 . S
C2314 C2313 1.362 . S
C2314 C2317 1.409 . S
C2315 H2307 0.930 . S
C2315 C2316 1.355 . S
C2315 C2317 1.415 . S
C2316 C2315 1.355 . S
C2316 C2318 1.419 . S
C2317 C2312 1.425 . S
C2317 C2314 1.409 . S
C2317 C2315 1.415 . S
C2318 H2308 0.930 . S
C2318 C2316 1.419 . S
C2318 C2319 1.362 . S
C2319 H2309 0.930 . S
C2319 C2312 1.409 . S
C2319 C2318 1.362 . S
H2320 C2326 0.930 . S
H2321 C2329 0.930 . S
H2322 C2330 0.930 . S
H2323 C2331 0.930 . S
H2324 C2334 0.930 . S
H2325 C2335 0.930 . S
C2326 H2320 0.930 . S
C2326 C2327 1.355 . S
C2326 C2328 1.415 . S
C2327 C2326 1.355 . S
C2327 C2329 1.419 . S
C2328 C2326 1.415 . S
C2328 C2333 1.425 . S
C2328 C2335 1.409 . S
C2329 H2321 0.930 . S
C2329 C2327 1.419 . S
C2329 C2330 1.362 . S
C2330 H2322 0.930 . S
C2330 C2329 1.362 . S
C2330 C2333 1.409 . S
C2331 H2323 0.930 . S
C2331 C2332 1.355 . S
C2331 C2333 1.415 . S
C2332 C2331 1.355 . S
C2332 C2334 1.419 . S
C2333 C2328 1.425 . S
C2333 C2330 1.409 . S
C2333 C2331 1.415 . S
C2334 H2324 0.930 . S
C2334 C2332 1.419 . S
C2334 C2335 1.362 . S
C2335 H2325 0.930 . S
C2335 C2328 1.409 . S
C2335 C2334 1.362 . S
H2336 C2342 0.930 . S
H2337 C2345 0.930 . S
H2338 C2346 0.930 . S
H2339 C2347 0.930 . S
H2340 C2350 0.930 . S
H2341 C2351 0.930 . S
C2342 H2336 0.930 . S
C2342 C2343 1.355 . S
C2342 C2344 1.415 . S
C2343 C2342 1.355 . S
C2343 C2345 1.419 . S
C2344 C2342 1.415 . S
C2344 C2349 1.425 . S
C2344 C2351 1.409 . S
C2345 H2337 0.930 . S
C2345 C2343 1.419 . S
C2345 C2346 1.362 . S
C2346 H2338 0.930 . S
C2346 C2345 1.362 . S
C2346 C2349 1.409 . S
C2347 H2339 0.930 . S
C2347 C2348 1.355 . S
C2347 C2349 1.415 . S
C2348 C2347 1.355 . S
C2348 C2350 1.419 . S
C2349 C2344 1.425 . S
C2349 C2346 1.409 . S
C2349 C2347 1.415 . S
C2350 H2340 0.930 . S
C2350 C2348 1.419 . S
C2350 C2351 1.362 . S
C2351 H2341 0.930 . S
C2351 C2344 1.409 . S
C2351 C2350 1.362 . S
H2352 C2358 0.930 . S
H2353 C2361 0.930 . S
H2354 C2362 0.930 . S
H2355 C2363 0.930 . S
H2356 C2366 0.930 . S
H2357 C2367 0.930 . S
C2358 H2352 0.930 . S
C2358 C2359 1.355 . S
C2358 C2360 1.415 . S
C2359 C2358 1.355 . S
C2359 C2361 1.419 . S
C2360 C2358 1.415 . S
C2360 C2365 1.425 . S
C2360 C2367 1.409 . S
C2361 H2353 0.930 . S
C2361 C2359 1.419 . S
C2361 C2362 1.362 . S
C2362 H2354 0.930 . S
C2362 C2361 1.362 . S
C2362 C2365 1.409 . S
C2363 H2355 0.930 . S
C2363 C2364 1.355 . S
C2363 C2365 1.415 . S
C2364 C2363 1.355 . S
C2364 C2366 1.419 . S
C2365 C2360 1.425 . S
C2365 C2362 1.409 . S
C2365 C2363 1.415 . S
C2366 H2356 0.930 . S
C2366 C2364 1.419 . S
C2366 C2367 1.362 . S
C2367 H2357 0.930 . S
C2367 C2360 1.409 . S
C2367 C2366 1.362 . S
H2368 C2374 0.930 . S
H2369 C2377 0.930 . S
H2370 C2378 0.930 . S
H2371 C2379 0.930 . S
H2372 C2382 0.930 . S
H2373 C2383 0.930 . S
C2374 H2368 0.930 . S
C2374 C2375 1.355 . S
C2374 C2376 1.415 . S
C2375 C2374 1.355 . S
C2375 C2377 1.419 . S
C2376 C2374 1.415 . S
C2376 C2381 1.425 . S
C2376 C2383 1.409 . S
C2377 H2369 0.930 . S
C2377 C2375 1.419 . S
C2377 C2378 1.362 . S
C2378 H2370 0.930 . S
C2378 C2377 1.362 . S
C2378 C2381 1.409 . S
C2379 H2371 0.930 . S
C2379 C2380 1.355 . S
C2379 C2381 1.415 . S
C2380 C2379 1.355 . S
C2380 C2382 1.419 . S
C2381 C2376 1.425 . S
C2381 C2378 1.409 . S
C2381 C2379 1.415 . S
C2382 H2372 0.930 . S
C2382 C2380 1.419 . S
C2382 C2383 1.362 . S
C2383 H2373 0.930 . S
C2383 C2376 1.409 . S
C2383 C2382 1.362 . S
H2384 C2390 0.930 . S
H2385 C2393 0.930 . S
H2386 C2394 0.930 . S
H2387 C2395 0.930 . S
H2388 C2398 0.930 . S
H2389 C2399 0.930 . S
C2390 H2384 0.930 . S
C2390 C2391 1.355 . S
C2390 C2392 1.415 . S
C2391 C2390 1.355 . S
C2391 C2393 1.419 . S
C2392 C2390 1.415 . S
C2392 C2397 1.425 . S
C2392 C2399 1.409 . S
C2393 H2385 0.930 . S
C2393 C2391 1.419 . S
C2393 C2394 1.362 . S
C2394 H2386 0.930 . S
C2394 C2393 1.362 . S
C2394 C2397 1.409 . S
C2395 H2387 0.930 . S
C2395 C2396 1.355 . S
C2395 C2397 1.415 . S
C2396 C2395 1.355 . S
C2396 C2398 1.419 . S
C2397 C2392 1.425 . S
C2397 C2394 1.409 . S
C2397 C2395 1.415 . S
C2398 H2388 0.930 . S
C2398 C2396 1.419 . S
C2398 C2399 1.362 . S
C2399 H2389 0.930 . S
C2399 C2392 1.409 . S
C2399 C2398 1.362 . S
H2400 C2406 0.930 . S
H2401 C2409 0.930 . S
H2402 C2410 0.930 . S
H2403 C2411 0.930 . S
H2404 C2414 0.930 . S
H2405 C2415 0.930 . S
C2406 H2400 0.930 . S
C2406 C2407 1.355 . S
C2406 C2408 1.415 . S
C2407 C2406 1.355 . S
C2407 C2409 1.419 . S
C2408 C2406 1.415 . S
C2408 C2413 1.425 . S
C2408 C2415 1.409 . S
C2409 H2401 0.930 . S
C2409 C2407 1.419 . S
C2409 C2410 1.362 . S
C2410 H2402 0.930 . S
C2410 C2409 1.362 . S
C2410 C2413 1.409 . S
C2411 H2403 0.930 . S
C2411 C2412 1.355 . S
C2411 C2413 1.415 . S
C2412 C2411 1.355 . S
C2412 C2414 1.419 . S
C2413 C2408 1.425 . S
C2413 C2410 1.409 . S
C2413 C2411 1.415 . S
C2414 H2404 0.930 . S
C2414 C2412 1.419 . S
C2414 C2415 1.362 . S
C2415 H2405 0.930 . S
C2415 C2408 1.409 . S
C2415 C2414 1.362 . S
H2416 C2422 0.930 . S
H2417 C2425 0.930 . S
H2418 C2426 0.930 . S
H2419 C2427 0.930 . S
H2420 C2430 0.930 . S
H2421 C2431 0.930 . S
C2422 H2416 0.930 . S
C2422 C2423 1.355 . S
C2422 C2424 1.415 . S
C2423 C2422 1.355 . S
C2423 C2425 1.419 . S
C2424 C2422 1.415 . S
C2424 C2429 1.425 . S
C2424 C2431 1.409 . S
C2425 H2417 0.930 . S
C2425 C2423 1.419 . S
C2425 C2426 1.362 . S
C2426 H2418 0.930 . S
C2426 C2425 1.362 . S
C2426 C2429 1.409 . S
C2427 H2419 0.930 . S
C2427 C2428 1.355 . S
C2427 C2429 1.415 . S
C2428 C2427 1.355 . S
C2428 C2430 1.419 . S
C2429 C2424 1.425 . S
C2429 C2426 1.409 . S
C2429 C2427 1.415 . S
C2430 H2420 0.930 . S
C2430 C2428 1.419 . S
C2430 C2431 1.362 . S
C2431 H2421 0.930 . S
C2431 C2424 1.409 . S
C2431 C2430 1.362 . S
H2432 C2438 0.930 . S
H2433 C2441 0.930 . S
H2434 C2442 0.930 . S
H2435 C2443 0.930 . S
H2436 C2446 0.930 . S
H2437 C2447 0.930 . S
C2438 H2432 0.930 . S
C2438 C2439 1.355 . S
C2438 C2440 1.415 . S
C2439 C2438 1.355 . S
C2439 C2441 1.419 . S
C2440 C2438 1.415 . S
C2440 C2445 1.425 . S
C2440 C2447 1.409 . S
C2441 H2433 0.930 . S
C2441 C2439 1.419 . S
C2441 C2442 1.362 . S
C2442 H2434 0.930 . S
C2442 C2441 1.362 . S
C2442 C2445 1.409 . S
C2443 H2435 0.930 . S
C2443 C2444 1.355 . S
C2443 C2445 1.415 . S
C2444 C2443 1.355 . S
C2444 C2446 1.419 . S
C2445 C2440 1.425 . S
C2445 C2442 1.409 . S
C2445 C2443 1.415 . S
C2446 H2436 0.930 . S
C2446 C2444 1.419 . S
C2446 C2447 1.362 . S
C2447 H2437 0.930 . S
C2447 C2440 1.409 . S
C2447 C2446 1.362 . S
H2448 C2454 0.930 . S
H2449 C2457 0.930 . S
H2450 C2458 0.930 . S
H2451 C2459 0.930 . S
H2452 C2462 0.930 . S
H2453 C2463 0.930 . S
C2454 H2448 0.930 . S
C2454 C2455 1.355 . S
C2454 C2456 1.415 . S
C2455 C2454 1.355 . S
C2455 C2457 1.419 . S
C2456 C2454 1.415 . S
C2456 C2461 1.425 . S
C2456 C2463 1.409 . S
C2457 H2449 0.930 . S
C2457 C2455 1.419 . S
C2457 C2458 1.362 . S
C2458 H2450 0.930 . S
C2458 C2457 1.362 . S
C2458 C2461 1.409 . S
C2459 H2451 0.930 . S
C2459 C2460 1.355 . S
C2459 C2461 1.415 . S
C2460 C2459 1.355 . S
C2460 C2462 1.419 . S
C2461 C2456 1.425 . S
C2461 C2458 1.409 . S
C2461 C2459 1.415 . S
C2462 H2452 0.930 . S
C2462 C2460 1.419 . S
C2462 C2463 1.362 . S
C2463 H2453 0.930 . S
C2463 C2456 1.409 . S
C2463 C2462 1.362 . S
H2464 C2470 0.930 . S
H2465 C2473 0.930 . S
H2466 C2474 0.930 . S
H2467 C2475 0.930 . S
H2468 C2478 0.930 . S
H2469 C2479 0.930 . S
C2470 H2464 0.930 . S
C2470 C2471 1.355 . S
C2470 C2472 1.415 . S
C2471 C2470 1.355 . S
C2471 C2473 1.419 . S
C2472 C2470 1.415 . S
C2472 C2477 1.425 . S
C2472 C2479 1.409 . S
C2473 H2465 0.930 . S
C2473 C2471 1.419 . S
C2473 C2474 1.362 . S
C2474 H2466 0.930 . S
C2474 C2473 1.362 . S
C2474 C2477 1.409 . S
C2475 H2467 0.930 . S
C2475 C2476 1.355 . S
C2475 C2477 1.415 . S
C2476 C2475 1.355 . S
C2476 C2478 1.419 . S
C2477 C2472 1.425 . S
C2477 C2474 1.409 . S
C2477 C2475 1.415 . S
C2478 H2468 0.930 . S
C2478 C2476 1.419 . S
C2478 C2479 1.362 . S
C2479 H2469 0.930 . S
C2479 C2472 1.409 . S
C2479 C2478 1.362 . S
H2480 C2486 0.930 . S
H2481 C2489 0.930 . S
H2482 C2490 0.930 . S
H2483 C2491 0.930 . S
H2484 C2494 0.930 . S
H2485 C2495 0.930 . S
C2486 H2480 0.930 . S
C2486 C2487 1.355 . S
C2486 C2488 1.415 . S
C2487 C2486 1.355 . S
C2487 C2489 1.419 . S
C2488 C2486 1.415 . S
C2488 C2493 1.425 . S
C2488 C2495 1.409 . S
C2489 H2481 0.930 . S
C2489 C2487 1.419 . S
C2489 C2490 1.362 . S
C2490 H2482 0.930 . S
C2490 C2489 1.362 . S
C2490 C2493 1.409 . S
C2491 H2483 0.930 . S
C2491 C2492 1.355 . S
C2491 C2493 1.415 . S
C2492 C2491 1.355 . S
C2492 C2494 1.419 . S
C2493 C2488 1.425 . S
C2493 C2490 1.409 . S
C2493 C2491 1.415 . S
C2494 H2484 0.930 . S
C2494 C2492 1.419 . S
C2494 C2495 1.362 . S
C2495 H2485 0.930 . S
C2495 C2488 1.409 . S
C2495 C2494 1.362 . S
H2496 C2502 0.930 . S
H2497 C2505 0.930 . S
H2498 C2506 0.930 . S
H2499 C2507 0.930 . S
H2500 C2510 0.930 . S
H2501 C2511 0.930 . S
C2502 H2496 0.930 . S
C2502 C2503 1.355 . S
C2502 C2504 1.415 . S
C2503 C2502 1.355 . S
C2503 C2505 1.419 . S
C2504 C2502 1.415 . S
C2504 C2509 1.425 . S
C2504 C2511 1.409 . S
C2505 H2497 0.930 . S
C2505 C2503 1.419 . S
C2505 C2506 1.362 . S
C2506 H2498 0.930 . S
C2506 C2505 1.362 . S
C2506 C2509 1.409 . S
C2507 H2499 0.930 . S
C2507 C2508 1.355 . S
C2507 C2509 1.415 . S
C2508 C2507 1.355 . S
C2508 C2510 1.419 . S
C2509 C2504 1.425 . S
C2509 C2506 1.409 . S
C2509 C2507 1.415 . S
C2510 H2500 0.930 . S
C2510 C2508 1.419 . S
C2510 C2511 1.362 . S
C2511 H2501 0.930 . S
C2511 C2504 1.409 . S
C2511 C2510 1.362 . S
H2512 C2518 0.930 . S
H2513 C2521 0.930 . S
H2514 C2522 0.930 . S
H2515 C2523 0.930 . S
H2516 C2526 0.930 . S
H2517 C2527 0.930 . S
C2518 H2512 0.930 . S
C2518 C2519 1.355 . S
C2518 C2520 1.415 . S
C2519 C2518 1.355 . S
C2519 C2521 1.419 . S
C2520 C2518 1.415 . S
C2520 C2525 1.425 . S
C2520 C2527 1.409 . S
C2521 H2513 0.930 . S
C2521 C2519 1.419 . S
C2521 C2522 1.362 . S
C2522 H2514 0.930 . S
C2522 C2521 1.362 . S
C2522 C2525 1.409 . S
C2523 H2515 0.930 . S
C2523 C2524 1.355 . S
C2523 C2525 1.415 . S
C2524 C2523 1.355 . S
C2524 C2526 1.419 . S
C2525 C2520 1.425 . S
C2525 C2522 1.409 . S
C2525 C2523 1.415 . S
C2526 H2516 0.930 . S
C2526 C2524 1.419 . S
C2526 C2527 1.362 . S
C2527 H2517 0.930 . S
C2527 C2520 1.409 . S
C2527 C2526 1.362 . S
H2528 C2534 0.930 . S
H2529 C2537 0.930 . S
H2530 C2538 0.930 . S
H2531 C2539 0.930 . S
H2532 C2542 0.930 . S
H2533 C2543 0.930 . S
C2534 H2528 0.930 . S
C2534 C2535 1.355 . S
C2534 C2536 1.415 . S
C2535 C2534 1.355 . S
C2535 C2537 1.419 . S
C2536 C2534 1.415 . S
C2536 C2541 1.425 . S
C2536 C2543 1.409 . S
C2537 H2529 0.930 . S
C2537 C2535 1.419 . S
C2537 C2538 1.362 . S
C2538 H2530 0.930 . S
C2538 C2537 1.362 . S
C2538 C2541 1.409 . S
C2539 H2531 0.930 . S
C2539 C2540 1.355 . S
C2539 C2541 1.415 . S
C2540 C2539 1.355 . S
C2540 C2542 1.419 . S
C2541 C2536 1.425 . S
C2541 C2538 1.409 . S
C2541 C2539 1.415 . S
C2542 H2532 0.930 . S
C2542 C2540 1.419 . S
C2542 C2543 1.362 . S
C2543 H2533 0.930 . S
C2543 C2536 1.409 . S
C2543 C2542 1.362 . S
H2544 C2550 0.930 . S
H2545 C2553 0.930 1_455 S
H2546 C2554 0.930 . S
H2547 C2555 0.930 . S
H2548 C2558 0.930 . S
H2549 C2559 0.930 . S
C2550 H2544 0.930 . S
C2550 C2551 1.355 . S
C2550 C2552 1.415 . S
C2551 C2550 1.355 . S
C2551 C2553 1.419 . S
C2552 C2550 1.415 . S
C2552 C2557 1.425 . S
C2552 C2559 1.409 . S
C2553 H2545 0.930 1_655 S
C2553 C2551 1.419 . S
C2553 C2554 1.362 . S
C2554 H2546 0.930 . S
C2554 C2553 1.362 . S
C2554 C2557 1.409 . S
C2555 H2547 0.930 . S
C2555 C2556 1.355 . S
C2555 C2557 1.415 . S
C2556 C2555 1.355 . S
C2556 C2558 1.419 . S
C2557 C2552 1.425 . S
C2557 C2554 1.409 . S
C2557 C2555 1.415 . S
C2558 H2548 0.930 . S
C2558 C2556 1.419 . S
C2558 C2559 1.362 . S
C2559 H2549 0.930 . S
C2559 C2552 1.409 . S
C2559 C2558 1.362 . S
H2560 C2566 0.930 . S
H2561 C2569 0.930 . S
H2562 C2570 0.930 . S
H2563 C2571 0.930 . S
H2564 C2574 0.930 . S
H2565 C2575 0.930 . S
C2566 H2560 0.930 . S
C2566 C2567 1.355 . S
C2566 C2568 1.415 . S
C2567 C2566 1.355 . S
C2567 C2569 1.419 . S
C2568 C2566 1.415 . S
C2568 C2573 1.425 . S
C2568 C2575 1.409 . S
C2569 H2561 0.930 . S
C2569 C2567 1.419 . S
C2569 C2570 1.362 . S
C2570 H2562 0.930 . S
C2570 C2569 1.362 . S
C2570 C2573 1.409 . S
C2571 H2563 0.930 . S
C2571 C2572 1.355 . S
C2571 C2573 1.415 . S
C2572 C2571 1.355 . S
C2572 C2574 1.419 . S
C2573 C2568 1.425 . S
C2573 C2570 1.409 . S
C2573 C2571 1.415 . S
C2574 H2564 0.930 . S
C2574 C2572 1.419 . S
C2574 C2575 1.362 . S
C2575 H2565 0.930 . S
C2575 C2568 1.409 . S
C2575 C2574 1.362 . S
H2576 C2582 0.930 . S
H2577 C2585 0.930 . S
H2578 C2586 0.930 . S
H2579 C2587 0.930 . S
H2580 C2590 0.930 . S
H2581 C2591 0.930 . S
C2582 H2576 0.930 . S
C2582 C2583 1.355 . S
C2582 C2584 1.415 . S
C2583 C2582 1.355 . S
C2583 C2585 1.419 . S
C2584 C2582 1.415 . S
C2584 C2589 1.425 . S
C2584 C2591 1.409 . S
C2585 H2577 0.930 . S
C2585 C2583 1.419 . S
C2585 C2586 1.362 . S
C2586 H2578 0.930 . S
C2586 C2585 1.362 . S
C2586 C2589 1.409 . S
C2587 H2579 0.930 . S
C2587 C2588 1.355 . S
C2587 C2589 1.415 . S
C2588 C2587 1.355 . S
C2588 C2590 1.419 . S
C2589 C2584 1.425 . S
C2589 C2586 1.409 . S
C2589 C2587 1.415 . S
C2590 H2580 0.930 . S
C2590 C2588 1.419 . S
C2590 C2591 1.362 . S
C2591 H2581 0.930 . S
C2591 C2584 1.409 . S
C2591 C2590 1.362 . S
H2592 C2598 0.930 . S
H2593 C2601 0.930 . S
H2594 C2602 0.930 . S
H2595 C2603 0.930 . S
H2596 C2606 0.930 . S
H2597 C2607 0.930 . S
C2598 H2592 0.930 . S
C2598 C2599 1.355 . S
C2598 C2600 1.415 . S
C2599 C2598 1.355 . S
C2599 C2601 1.419 . S
C2600 C2598 1.415 . S
C2600 C2605 1.425 . S
C2600 C2607 1.409 . S
C2601 H2593 0.930 . S
C2601 C2599 1.419 . S
C2601 C2602 1.362 . S
C2602 H2594 0.930 . S
C2602 C2601 1.362 . S
C2602 C2605 1.409 . S
C2603 H2595 0.930 . S
C2603 C2604 1.355 . S
C2603 C2605 1.415 . S
C2604 C2603 1.355 . S
C2604 C2606 1.419 . S
C2605 C2600 1.425 . S
C2605 C2602 1.409 . S
C2605 C2603 1.415 . S
C2606 H2596 0.930 . S
C2606 C2604 1.419 . S
C2606 C2607 1.362 . S
C2607 H2597 0.930 . S
C2607 C2600 1.409 . S
C2607 C2606 1.362 . S
H2608 C2614 0.930 . S
H2609 C2617 0.930 . S
H2610 C2618 0.930 . S
H2611 C2619 0.930 . S
H2612 C2622 0.930 . S
H2613 C2623 0.930 . S
C2614 H2608 0.930 . S
C2614 C2615 1.355 . S
C2614 C2616 1.415 . S
C2615 C2614 1.355 . S
C2615 C2617 1.419 . S
C2616 C2614 1.415 . S
C2616 C2621 1.425 . S
C2616 C2623 1.409 . S
C2617 H2609 0.930 . S
C2617 C2615 1.419 . S
C2617 C2618 1.362 . S
C2618 H2610 0.930 . S
C2618 C2617 1.362 . S
C2618 C2621 1.409 . S
C2619 H2611 0.930 . S
C2619 C2620 1.355 . S
C2619 C2621 1.415 . S
C2620 C2619 1.355 . S
C2620 C2622 1.419 . S
C2621 C2616 1.425 . S
C2621 C2618 1.409 . S
C2621 C2619 1.415 . S
C2622 H2612 0.930 . S
C2622 C2620 1.419 . S
C2622 C2623 1.362 . S
C2623 H2613 0.930 . S
C2623 C2616 1.409 . S
C2623 C2622 1.362 . S
H2624 C2630 0.930 . S
H2625 C2633 0.930 . S
H2626 C2634 0.930 . S
H2627 C2635 0.930 . S
H2628 C2638 0.930 . S
H2629 C2639 0.930 . S
C2630 H2624 0.930 . S
C2630 C2631 1.355 . S
C2630 C2632 1.415 . S
C2631 C2630 1.355 . S
C2631 C2633 1.419 . S
C2632 C2630 1.415 . S
C2632 C2637 1.425 . S
C2632 C2639 1.409 . S
C2633 H2625 0.930 . S
C2633 C2631 1.419 . S
C2633 C2634 1.362 . S
C2634 H2626 0.930 . S
C2634 C2633 1.362 . S
C2634 C2637 1.409 . S
C2635 H2627 0.930 . S
C2635 C2636 1.355 . S
C2635 C2637 1.415 . S
C2636 C2635 1.355 . S
C2636 C2638 1.419 . S
C2637 C2632 1.425 . S
C2637 C2634 1.409 . S
C2637 C2635 1.415 . S
C2638 H2628 0.930 . S
C2638 C2636 1.419 . S
C2638 C2639 1.362 . S
C2639 H2629 0.930 . S
C2639 C2632 1.409 . S
C2639 C2638 1.362 . S
H2640 C2646 0.930 . S
H2641 C2649 0.930 1_455 S
H2642 C2650 0.930 . S
H2643 C2651 0.930 . S
H2644 C2654 0.930 . S
H2645 C2655 0.930 . S
C2646 H2640 0.930 . S
C2646 C2647 1.355 . S
C2646 C2648 1.415 . S
C2647 C2646 1.355 . S
C2647 C2649 1.419 . S
C2648 C2646 1.415 . S
C2648 C2653 1.425 . S
C2648 C2655 1.409 . S
C2649 H2641 0.930 1_655 S
C2649 C2647 1.419 . S
C2649 C2650 1.362 . S
C2650 H2642 0.930 . S
C2650 C2649 1.362 . S
C2650 C2653 1.409 . S
C2651 H2643 0.930 . S
C2651 C2652 1.355 . S
C2651 C2653 1.415 . S
C2652 C2651 1.355 . S
C2652 C2654 1.419 . S
C2653 C2648 1.425 . S
C2653 C2650 1.409 . S
C2653 C2651 1.415 . S
C2654 H2644 0.930 . S
C2654 C2652 1.419 . S
C2654 C2655 1.362 . S
C2655 H2645 0.930 . S
C2655 C2648 1.409 . S
C2655 C2654 1.362 . S
H2656 C2662 0.930 . S
H2657 C2665 0.930 . S
H2658 C2666 0.930 . S
H2659 C2667 0.930 . S
H2660 C2670 0.930 . S
H2661 C2671 0.930 . S
C2662 H2656 0.930 . S
C2662 C2663 1.355 . S
C2662 C2664 1.415 . S
C2663 C2662 1.355 . S
C2663 C2665 1.419 . S
C2664 C2662 1.415 . S
C2664 C2669 1.425 . S
C2664 C2671 1.409 . S
C2665 H2657 0.930 . S
C2665 C2663 1.419 . S
C2665 C2666 1.362 . S
C2666 H2658 0.930 . S
C2666 C2665 1.362 . S
C2666 C2669 1.409 . S
C2667 H2659 0.930 . S
C2667 C2668 1.355 . S
C2667 C2669 1.415 . S
C2668 C2667 1.355 . S
C2668 C2670 1.419 . S
C2669 C2664 1.425 . S
C2669 C2666 1.409 . S
C2669 C2667 1.415 . S
C2670 H2660 0.930 . S
C2670 C2668 1.419 . S
C2670 C2671 1.362 . S
C2671 H2661 0.930 . S
C2671 C2664 1.409 . S
C2671 C2670 1.362 . S
H2672 C2678 0.930 . S
H2673 C2681 0.930 . S
H2674 C2682 0.930 . S
H2675 C2683 0.930 . S
H2676 C2686 0.930 . S
H2677 C2687 0.930 . S
C2678 H2672 0.930 . S
C2678 C2679 1.355 . S
C2678 C2680 1.415 . S
C2679 C2678 1.355 . S
C2679 C2681 1.419 . S
C2680 C2678 1.415 . S
C2680 C2685 1.425 . S
C2680 C2687 1.409 . S
C2681 H2673 0.930 . S
C2681 C2679 1.419 . S
C2681 C2682 1.362 . S
C2682 H2674 0.930 . S
C2682 C2681 1.362 . S
C2682 C2685 1.409 . S
C2683 H2675 0.930 . S
C2683 C2684 1.355 . S
C2683 C2685 1.415 . S
C2684 C2683 1.355 . S
C2684 C2686 1.419 . S
C2685 C2680 1.425 . S
C2685 C2682 1.409 . S
C2685 C2683 1.415 . S
C2686 H2676 0.930 . S
C2686 C2684 1.419 . S
C2686 C2687 1.362 . S
C2687 H2677 0.930 . S
C2687 C2680 1.409 . S
C2687 C2686 1.362 . S
H2688 C2694 0.930 . S
H2689 C2697 0.930 . S
H2690 C2698 0.930 . S
H2691 C2699 0.930 . S
H2692 C2702 0.930 . S
H2693 C2703 0.930 . S
C2694 H2688 0.930 . S
C2694 C2695 1.355 . S
C2694 C2696 1.415 . S
C2695 C2694 1.355 . S
C2695 C2697 1.419 . S
C2696 C2694 1.415 . S
C2696 C2701 1.425 . S
C2696 C2703 1.409 . S
C2697 H2689 0.930 . S
C2697 C2695 1.419 . S
C2697 C2698 1.362 . S
C2698 H2690 0.930 . S
C2698 C2697 1.362 . S
C2698 C2701 1.409 . S
C2699 H2691 0.930 . S
C2699 C2700 1.355 . S
C2699 C2701 1.415 . S
C2700 C2699 1.355 . S
C2700 C2702 1.419 . S
C2701 C2696 1.425 . S
C2701 C2698 1.409 . S
C2701 C2699 1.415 . S
C2702 H2692 0.930 . S
C2702 C2700 1.419 . S
C2702 C2703 1.362 . S
C2703 H2693 0.930 . S
C2703 C2696 1.409 . S
C2703 C2702 1.362 . S
H2704 C2710 0.930 . S
H2705 C2713 0.930 . S
H2706 C2714 0.930 . S
H2707 C2715 0.930 . S
H2708 C2718 0.930 . S
H2709 C2719 0.930 . S
C2710 H2704 0.930 . S
C2710 C2711 1.355 . S
C2710 C2712 1.415 . S
C2711 C2710 1.355 . S
C2711 C2713 1.419 . S
C2712 C2710 1.415 . S
C2712 C2717 1.425 . S
C2712 C2719 1.409 . S
C2713 H2705 0.930 . S
C2713 C2711 1.419 . S
C2713 C2714 1.362 . S
C2714 H2706 0.930 . S
C2714 C2713 1.362 . S
C2714 C2717 1.409 . S
C2715 H2707 0.930 . S
C2715 C2716 1.355 . S
C2715 C2717 1.415 . S
C2716 C2715 1.355 . S
C2716 C2718 1.419 . S
C2717 C2712 1.425 . S
C2717 C2714 1.409 . S
C2717 C2715 1.415 . S
C2718 H2708 0.930 . S
C2718 C2716 1.419 . S
C2718 C2719 1.362 . S
C2719 H2709 0.930 . S
C2719 C2712 1.409 . S
C2719 C2718 1.362 . S
H2720 C2726 0.930 . S
H2721 C2729 0.930 . S
H2722 C2730 0.930 . S
H2723 C2731 0.930 . S
H2724 C2734 0.930 . S
H2725 C2735 0.930 . S
C2726 H2720 0.930 . S
C2726 C2727 1.355 . S
C2726 C2728 1.415 . S
C2727 C2726 1.355 . S
C2727 C2729 1.419 . S
C2728 C2726 1.415 . S
C2728 C2733 1.425 . S
C2728 C2735 1.409 . S
C2729 H2721 0.930 . S
C2729 C2727 1.419 . S
C2729 C2730 1.362 . S
C2730 H2722 0.930 . S
C2730 C2729 1.362 . S
C2730 C2733 1.409 . S
C2731 H2723 0.930 . S
C2731 C2732 1.355 . S
C2731 C2733 1.415 . S
C2732 C2731 1.355 . S
C2732 C2734 1.419 . S
C2733 C2728 1.425 . S
C2733 C2730 1.409 . S
C2733 C2731 1.415 . S
C2734 H2724 0.930 . S
C2734 C2732 1.419 . S
C2734 C2735 1.362 . S
C2735 H2725 0.930 . S
C2735 C2728 1.409 . S
C2735 C2734 1.362 . S
H2736 C2742 0.930 . S
H2737 C2745 0.930 . S
H2738 C2746 0.930 . S
H2739 C2747 0.930 . S
H2740 C2750 0.930 . S
H2741 C2751 0.930 . S
C2742 H2736 0.930 . S
C2742 C2743 1.355 . S
C2742 C2744 1.415 . S
C2743 C2742 1.355 . S
C2743 C2745 1.419 . S
C2744 C2742 1.415 . S
C2744 C2749 1.425 . S
C2744 C2751 1.409 . S
C2745 H2737 0.930 . S
C2745 C2743 1.419 . S
C2745 C2746 1.362 . S
C2746 H2738 0.930 . S
C2746 C2745 1.362 . S
C2746 C2749 1.409 . S
C2747 H2739 0.930 . S
C2747 C2748 1.355 . S
C2747 C2749 1.415 . S
C2748 C2747 1.355 . S
C2748 C2750 1.419 . S
C2749 C2744 1.425 . S
C2749 C2746 1.409 . S
C2749 C2747 1.415 . S
C2750 H2740 0.930 . S
C2750 C2748 1.419 . S
C2750 C2751 1.362 . S
C2751 H2741 0.930 . S
C2751 C2744 1.409 . S
C2751 C2750 1.362 . S
H2752 C2758 0.930 . S
H2753 C2761 0.930 . S
H2754 C2762 0.930 . S
H2755 C2763 0.930 . S
H2756 C2766 0.930 . S
H2757 C2767 0.930 . S
C2758 H2752 0.930 . S
C2758 C2759 1.355 . S
C2758 C2760 1.415 . S
C2759 C2758 1.355 . S
C2759 C2761 1.419 . S
C2760 C2758 1.415 . S
C2760 C2765 1.425 . S
C2760 C2767 1.409 . S
C2761 H2753 0.930 . S
C2761 C2759 1.419 . S
C2761 C2762 1.362 . S
C2762 H2754 0.930 . S
C2762 C2761 1.362 . S
C2762 C2765 1.409 . S
C2763 H2755 0.930 . S
C2763 C2764 1.355 . S
C2763 C2765 1.415 . S
C2764 C2763 1.355 . S
C2764 C2766 1.419 . S
C2765 C2760 1.425 . S
C2765 C2762 1.409 . S
C2765 C2763 1.415 . S
C2766 H2756 0.930 . S
C2766 C2764 1.419 . S
C2766 C2767 1.362 . S
C2767 H2757 0.930 . S
C2767 C2760 1.409 . S
C2767 C2766 1.362 . S
H2768 C2774 0.930 . S
H2769 C2777 0.930 . S
H2770 C2778 0.930 . S
H2771 C2779 0.930 . S
H2772 C2782 0.930 . S
H2773 C2783 0.930 . S
C2774 H2768 0.930 . S
C2774 C2775 1.355 . S
C2774 C2776 1.415 . S
C2775 C2774 1.355 . S
C2775 C2777 1.419 . S
C2776 C2774 1.415 . S
C2776 C2781 1.425 . S
C2776 C2783 1.409 . S
C2777 H2769 0.930 . S
C2777 C2775 1.419 . S
C2777 C2778 1.362 . S
C2778 H2770 0.930 . S
C2778 C2777 1.362 . S
C2778 C2781 1.409 . S
C2779 H2771 0.930 . S
C2779 C2780 1.355 . S
C2779 C2781 1.415 . S
C2780 C2779 1.355 . S
C2780 C2782 1.419 . S
C2781 C2776 1.425 . S
C2781 C2778 1.409 . S
C2781 C2779 1.415 . S
C2782 H2772 0.930 . S
C2782 C2780 1.419 . S
C2782 C2783 1.362 . S
C2783 H2773 0.930 . S
C2783 C2776 1.409 . S
C2783 C2782 1.362 . S
H2784 C2790 0.930 . S
H2785 C2793 0.930 . S
H2786 C2794 0.930 . S
H2787 C2795 0.930 . S
H2788 C2798 0.930 . S
H2789 C2799 0.930 . S
C2790 H2784 0.930 . S
C2790 C2791 1.355 . S
C2790 C2792 1.415 . S
C2791 C2790 1.355 . S
C2791 C2793 1.419 . S
C2792 C2790 1.415 . S
C2792 C2797 1.425 . S
C2792 C2799 1.409 . S
C2793 H2785 0.930 . S
C2793 C2791 1.419 . S
C2793 C2794 1.362 . S
C2794 H2786 0.930 . S
C2794 C2793 1.362 . S
C2794 C2797 1.409 . S
C2795 H2787 0.930 . S
C2795 C2796 1.355 . S
C2795 C2797 1.415 . S
C2796 C2795 1.355 . S
C2796 C2798 1.419 . S
C2797 C2792 1.425 . S
C2797 C2794 1.409 . S
C2797 C2795 1.415 . S
C2798 H2788 0.930 . S
C2798 C2796 1.419 . S
C2798 C2799 1.362 . S
C2799 H2789 0.930 . S
C2799 C2792 1.409 . S
C2799 C2798 1.362 . S
H2800 C2806 0.930 . S
H2801 C2809 0.930 . S
H2802 C2810 0.930 . S
H2803 C2811 0.930 . S
H2804 C2814 0.930 . S
H2805 C2815 0.930 . S
C2806 H2800 0.930 . S
C2806 C2807 1.355 . S
C2806 C2808 1.415 . S
C2807 C2806 1.355 . S
C2807 C2809 1.419 . S
C2808 C2806 1.415 . S
C2808 C2813 1.425 . S
C2808 C2815 1.409 . S
C2809 H2801 0.930 . S
C2809 C2807 1.419 . S
C2809 C2810 1.362 . S
C2810 H2802 0.930 . S
C2810 C2809 1.362 . S
C2810 C2813 1.409 . S
C2811 H2803 0.930 . S
C2811 C2812 1.355 . S
C2811 C2813 1.415 . S
C2812 C2811 1.355 . S
C2812 C2814 1.419 . S
C2813 C2808 1.425 . S
C2813 C2810 1.409 . S
C2813 C2811 1.415 . S
C2814 H2804 0.930 . S
C2814 C2812 1.419 . S
C2814 C2815 1.362 . S
C2815 H2805 0.930 . S
C2815 C2808 1.409 . S
C2815 C2814 1.362 . S
H2816 C2822 0.930 . S
H2817 C2825 0.930 . S
H2818 C2826 0.930 . S
H2819 C2827 0.930 . S
H2820 C2830 0.930 . S
H2821 C2831 0.930 . S
C2822 H2816 0.930 . S
C2822 C2823 1.355 . S
C2822 C2824 1.415 . S
C2823 C2822 1.355 . S
C2823 C2825 1.419 . S
C2824 C2822 1.415 . S
C2824 C2829 1.425 . S
C2824 C2831 1.409 . S
C2825 H2817 0.930 . S
C2825 C2823 1.419 . S
C2825 C2826 1.362 . S
C2826 H2818 0.930 . S
C2826 C2825 1.362 . S
C2826 C2829 1.409 . S
C2827 H2819 0.930 . S
C2827 C2828 1.355 . S
C2827 C2829 1.415 . S
C2828 C2827 1.355 . S
C2828 C2830 1.419 . S
C2829 C2824 1.425 . S
C2829 C2826 1.409 . S
C2829 C2827 1.415 . S
C2830 H2820 0.930 . S
C2830 C2828 1.419 . S
C2830 C2831 1.362 . S
C2831 H2821 0.930 . S
C2831 C2824 1.409 . S
C2831 C2830 1.362 . S
H2832 C2838 0.930 . S
H2833 C2841 0.930 1_655 S
H2834 C2842 0.930 . S
H2835 C2843 0.930 . S
H2836 C2846 0.930 . S
H2837 C2847 0.930 . S
C2838 H2832 0.930 . S
C2838 C2839 1.355 . S
C2838 C2840 1.415 . S
C2839 C2838 1.355 . S
C2839 C2841 1.419 . S
C2840 C2838 1.415 . S
C2840 C2845 1.425 . S
C2840 C2847 1.409 . S
C2841 H2833 0.930 1_455 S
C2841 C2839 1.419 . S
C2841 C2842 1.362 . S
C2842 H2834 0.930 . S
C2842 C2841 1.362 . S
C2842 C2845 1.409 . S
C2843 H2835 0.930 . S
C2843 C2844 1.355 . S
C2843 C2845 1.415 . S
C2844 C2843 1.355 . S
C2844 C2846 1.419 . S
C2845 C2840 1.425 . S
C2845 C2842 1.409 . S
C2845 C2843 1.415 . S
C2846 H2836 0.930 . S
C2846 C2844 1.419 . S
C2846 C2847 1.362 . S
C2847 H2837 0.930 . S
C2847 C2840 1.409 . S
C2847 C2846 1.362 . S
H2848 C2854 0.930 . S
H2849 C2857 0.930 . S
H2850 C2858 0.930 . S
H2851 C2859 0.930 . S
H2852 C2862 0.930 . S
H2853 C2863 0.930 . S
C2854 H2848 0.930 . S
C2854 C2855 1.355 . S
C2854 C2856 1.415 . S
C2855 C2854 1.355 . S
C2855 C2857 1.419 . S
C2856 C2854 1.415 . S
C2856 C2861 1.425 . S
C2856 C2863 1.409 . S
C2857 H2849 0.930 . S
C2857 C2855 1.419 . S
C2857 C2858 1.362 . S
C2858 H2850 0.930 . S
C2858 C2857 1.362 . S
C2858 C2861 1.409 . S
C2859 H2851 0.930 . S
C2859 C2860 1.355 . S
C2859 C2861 1.415 . S
C2860 C2859 1.355 . S
C2860 C2862 1.419 . S
C2861 C2856 1.425 . S
C2861 C2858 1.409 . S
C2861 C2859 1.415 . S
C2862 H2852 0.930 . S
C2862 C2860 1.419 . S
C2862 C2863 1.362 . S
C2863 H2853 0.930 . S
C2863 C2856 1.409 . S
C2863 C2862 1.362 . S
H2864 C2870 0.930 . S
H2865 C2873 0.930 . S
H2866 C2874 0.930 . S
H2867 C2875 0.930 . S
H2868 C2878 0.930 1_655 S
H2869 C2879 0.930 . S
C2870 H2864 0.930 . S
C2870 C2871 1.355 . S
C2870 C2872 1.415 . S
C2871 C2870 1.355 . S
C2871 C2873 1.419 . S
C2872 C2870 1.415 . S
C2872 C2877 1.425 . S
C2872 C2879 1.409 . S
C2873 H2865 0.930 . S
C2873 C2871 1.419 . S
C2873 C2874 1.362 . S
C2874 H2866 0.930 . S
C2874 C2873 1.362 . S
C2874 C2877 1.409 . S
C2875 H2867 0.930 . S
C2875 C2876 1.355 . S
C2875 C2877 1.415 . S
C2876 C2875 1.355 . S
C2876 C2878 1.419 . S
C2877 C2872 1.425 . S
C2877 C2874 1.409 . S
C2877 C2875 1.415 . S
C2878 H2868 0.930 1_455 S
C2878 C2876 1.419 . S
C2878 C2879 1.362 . S
C2879 H2869 0.930 . S
C2879 C2872 1.409 . S
C2879 C2878 1.362 . S
H2880 C2886 0.930 . S
H2881 C2889 0.930 . S
H2882 C2890 0.930 . S
H2883 C2891 0.930 . S
H2884 C2894 0.930 . S
H2885 C2895 0.930 . S
C2886 H2880 0.930 . S
C2886 C2887 1.355 . S
C2886 C2888 1.415 . S
C2887 C2886 1.355 . S
C2887 C2889 1.419 . S
C2888 C2886 1.415 . S
C2888 C2893 1.425 . S
C2888 C2895 1.409 . S
C2889 H2881 0.930 . S
C2889 C2887 1.419 . S
C2889 C2890 1.362 . S
C2890 H2882 0.930 . S
C2890 C2889 1.362 . S
C2890 C2893 1.409 . S
C2891 H2883 0.930 . S
C2891 C2892 1.355 . S
C2891 C2893 1.415 . S
C2892 C2891 1.355 . S
C2892 C2894 1.419 . S
C2893 C2888 1.425 . S
C2893 C2890 1.409 . S
C2893 C2891 1.415 . S
C2894 H2884 0.930 . S
C2894 C2892 1.419 . S
C2894 C2895 1.362 . S
C2895 H2885 0.930 . S
C2895 C2888 1.409 . S
C2895 C2894 1.362 . S
H2896 C2902 0.930 . S
H2897 C2905 0.930 . S
H2898 C2906 0.930 . S
H2899 C2907 0.930 . S
H2900 C2910 0.930 . S
H2901 C2911 0.930 . S
C2902 H2896 0.930 . S
C2902 C2903 1.355 . S
C2902 C2904 1.415 . S
C2903 C2902 1.355 . S
C2903 C2905 1.419 . S
C2904 C2902 1.415 . S
C2904 C2909 1.425 . S
C2904 C2911 1.409 . S
C2905 H2897 0.930 . S
C2905 C2903 1.419 . S
C2905 C2906 1.362 . S
C2906 H2898 0.930 . S
C2906 C2905 1.362 . S
C2906 C2909 1.409 . S
C2907 H2899 0.930 . S
C2907 C2908 1.355 . S
C2907 C2909 1.415 . S
C2908 C2907 1.355 . S
C2908 C2910 1.419 . S
C2909 C2904 1.425 . S
C2909 C2906 1.409 . S
C2909 C2907 1.415 . S
C2910 H2900 0.930 . S
C2910 C2908 1.419 . S
C2910 C2911 1.362 . S
C2911 H2901 0.930 . S
C2911 C2904 1.409 . S
C2911 C2910 1.362 . S
C1895 C241 1.591 . S
C1900 C5 1.596 . S
C1911 C300 1.592 . S
C1916 C64 1.595 . S
C1927 C359 1.612 . S
C1932 C123 1.605 . S
C1943 C182 1.600 . S
C1948 C418 1.612 . S
C1959 C477 1.611 . S
C1964 C713 1.608 . S
C1975 C772 1.591 . S
C1980 C536 1.602 . S
C1991 C595 1.612 . S
C1996 C831 1.606 . S
C2007 C890 1.610 . S
C2012 C654 1.609 . S
C2023 C949 1.606 . S
C2028 C1185 1.592 . S
C2039 C1244 1.612 . S
C2044 C1008 1.599 . S
C2055 C1303 1.610 . S
C2060 C1067 1.610 . S
C2071 C1362 1.612 . S
C2076 C1126 1.603 . S
C2087 C1421 1.605 . S
C2092 C1657 1.592 . S
C2103 C1480 1.592 . S
C2108 C1716 1.606 . S
C2119 C1539 1.609 . S
C2124 C1775 1.595 . S
C2135 C1598 1.610 . S
C2140 C1834 1.610 . S
C2151 C3 1.388 . S
C2156 C416 1.411 . S
C2167 C62 1.403 . S
C2172 C239 1.390 . S
C2183 C121 1.395 . S
C2188 C298 1.417 . S
C2199 C357 1.394 . S
C2204 C180 1.417 . S
C2215 C888 1.414 . S
C2220 C475 1.389 . S
C2231 C711 1.414 . S
C2236 C534 1.389 . S
C2247 C770 1.400 . S
C2252 C593 1.416 . S
C2263 C652 1.410 . S
C2268 C829 1.408 . S
C2279 C1360 1.402 . S
C2284 C947 1.415 . S
C2295 C1183 1.388 . S
C2300 C1006 1.411 . S
C2311 C1242 1.407 . S
C2316 C1065 1.389 . S
C2327 C1124 1.416 . S
C2332 C1301 1.397 . S
C2343 C1419 1.389 . S
C2348 C1832 1.415 . S
C2359 C1478 1.414 . S
C2364 C1655 1.389 . S
C2375 C1537 1.410 . S
C2380 C1714 1.388 . S
C2391 C1773 1.414 . S
C2396 C1596 1.389 . S
C2407 C52 1.596 . S
C2412 C1508 1.584 . S
C2423 C111 1.584 . S
C2428 C623 1.595 1_455 S
C2439 C170 1.574 . S
C2444 C1626 1.579 . S
C2455 C505 1.587 . S
C2460 C229 1.576 . S
C2471 C1862 1.570 . S
C2476 C288 1.583 . S
C2487 C347 1.574 . S
C2492 C741 1.578 . S
C2503 C406 1.596 . S
C2508 C1744 1.590 . S
C2519 C465 1.595 . S
C2524 C859 1.581 1_455 S
C2535 C1036 1.584 . S
C2540 C524 1.596 . S
C2551 C151 1.570 1_655 S
C2556 C583 1.582 . S
C2567 C1154 1.587 . S
C2572 C642 1.575 . S
C2583 C701 1.578 . S
C2588 C33 1.591 . S
C2599 C1390 1.593 . S
C2604 C760 1.581 . S
C2615 C269 1.572 . S
C2620 C819 1.588 . S
C2631 C1272 1.587 . S
C2636 C878 1.596 . S
C2647 C387 1.576 1_655 S
C2652 C937 1.575 . S
C2663 C564 1.579 . S
C2668 C996 1.574 . S
C2679 C1055 1.583 . S
C2684 C1567 1.570 . S
C2695 C1114 1.589 . S
C2700 C682 1.596 . S
C2711 C1173 1.595 . S
C2716 C1449 1.592 1_655 S
C2727 C1232 1.574 . S
C2732 C918 1.581 . S
C2743 C1685 1.584 1_655 S
C2748 C1291 1.574 . S
C2759 C1350 1.575 . S
C2764 C800 1.576 . S
C2775 C1409 1.578 . S
C2780 C1803 1.591 . S
C2791 C1468 1.585 . S
C2796 C92 1.596 . S
C2807 C1527 1.576 . S
C2812 C1095 1.574 . S
C2823 C210 1.571 . S
C2828 C1586 1.578 . S
C2839 C977 1.572 1_455 S
C2844 C1645 1.578 . S
C2855 C1704 1.582 . S
C2860 C446 1.595 . S
C2871 C1763 1.586 . S
C2876 C1213 1.571 1_455 S
C2887 C328 1.594 . S
C2892 C1822 1.593 . S
C2903 C1331 1.576 . S
C2908 C1881 1.593 . S
