# Generated by pormake.
# Topology wjf, (4)-cn, num edge types: 1
# Building blocks:
#     Node 0, Type 0, BuildingBlock: GALJAG_clean_sbu_0, # of connection points: 4
#     Node 1, Type 0, BuildingBlock: GALJAG_clean_sbu_0, # of connection points: 4
#     Node 2, Type 0, BuildingBlock: GALJAG_clean_sbu_0, # of connection points: 4
#     Node 3, Type 0, BuildingBlock: GALJAG_clean_sbu_0, # of connection points: 4
#     Node 4, Type 0, BuildingBlock: GALJAG_clean_sbu_0, # of connection points: 4
#     Node 5, Type 0, BuildingBlock: GALJAG_clean_sbu_0, # of connection points: 4
#     Node 6, Type 0, BuildingBlock: GALJAG_clean_sbu_0, # of connection points: 4
#     Node 7, Type 0, BuildingBlock: GALJAG_clean_sbu_0, # of connection points: 4
#     Node 8, Type 0, BuildingBlock: GALJAG_clean_sbu_0, # of connection points: 4
#     Node 9, Type 0, BuildingBlock: GALJAG_clean_sbu_0, # of connection points: 4
#     Node 10, Type 0, BuildingBlock: GALJAG_clean_sbu_0, # of connection points: 4
#     Node 11, Type 0, BuildingBlock: GALJAG_clean_sbu_0, # of connection points: 4
#     Edge 12, Type (0, 0), BuildingBlock: CIFDUS_clean_linker_0, # of connection points: 2
#     Edge 13, Type (0, 0), BuildingBlock: CIFDUS_clean_linker_0, # of connection points: 2
#     Edge 14, Type (0, 0), BuildingBlock: CIFDUS_clean_linker_0, # of connection points: 2
#     Edge 15, Type (0, 0), BuildingBlock: CIFDUS_clean_linker_0, # of connection points: 2
#     Edge 16, Type (0, 0), BuildingBlock: CIFDUS_clean_linker_0, # of connection points: 2
#     Edge 17, Type (0, 0), BuildingBlock: CIFDUS_clean_linker_0, # of connection points: 2
#     Edge 18, Type (0, 0), BuildingBlock: CIFDUS_clean_linker_0, # of connection points: 2
#     Edge 19, Type (0, 0), BuildingBlock: CIFDUS_clean_linker_0, # of connection points: 2
#     Edge 20, Type (0, 0), BuildingBlock: CIFDUS_clean_linker_0, # of connection points: 2
#     Edge 21, Type (0, 0), BuildingBlock: CIFDUS_clean_linker_0, # of connection points: 2
#     Edge 22, Type (0, 0), BuildingBlock: CIFDUS_clean_linker_0, # of connection points: 2
#     Edge 23, Type (0, 0), BuildingBlock: CIFDUS_clean_linker_0, # of connection points: 2
#     Edge 24, Type (0, 0), BuildingBlock: CIFDUS_clean_linker_0, # of connection points: 2
#     Edge 25, Type (0, 0), BuildingBlock: CIFDUS_clean_linker_0, # of connection points: 2
#     Edge 26, Type (0, 0), BuildingBlock: CIFDUS_clean_linker_0, # of connection points: 2
#     Edge 27, Type (0, 0), BuildingBlock: CIFDUS_clean_linker_0, # of connection points: 2
#     Edge 28, Type (0, 0), BuildingBlock: CIFDUS_clean_linker_0, # of connection points: 2
#     Edge 29, Type (0, 0), BuildingBlock: CIFDUS_clean_linker_0, # of connection points: 2
#     Edge 30, Type (0, 0), BuildingBlock: CIFDUS_clean_linker_0, # of connection points: 2
#     Edge 31, Type (0, 0), BuildingBlock: CIFDUS_clean_linker_0, # of connection points: 2
#     Edge 32, Type (0, 0), BuildingBlock: CIFDUS_clean_linker_0, # of connection points: 2
#     Edge 33, Type (0, 0), BuildingBlock: CIFDUS_clean_linker_0, # of connection points: 2
#     Edge 34, Type (0, 0), BuildingBlock: CIFDUS_clean_linker_0, # of connection points: 2
#     Edge 35, Type (0, 0), BuildingBlock: CIFDUS_clean_linker_0, # of connection points: 2
# Relax obj value: 0.086
# Max RMSD: 0.104
# Mean RMSD: 0.104
data_MOF--net-wjf--node1-GALJAG_clean_sbu_0--edge1-CIFDUS_clean_linker_0
_symmetry_space_group_name_H-M    P1
_symmetry_Int_Tables_number       1
_symmetry_cell_setting            triclinic
loop_
_symmetry_equiv_pos_as_xyz
'x, y, z'
_cell_length_a     43.926604
_cell_length_b     43.937079
_cell_length_c     24.991276
_cell_angle_alpha  89.982071
_cell_angle_beta   89.997845
_cell_angle_gamma 120.20811
loop_
_atom_site_label
_atom_site_type_symbol
_atom_site_fract_x
_atom_site_fract_y
_atom_site_fract_z
_atom_type_partial_charge
In0 In 0.32388 0.37437 0.07891 0.0
O1 O 0.29154 0.39968 0.05771 0.0
O2 O 0.26511 0.34364 0.06647 0.0
C3 C 0.38976 0.42921 0.08918 0.0
C4 C 0.32776 0.34986 0.98247 0.0
C5 C 0.31087 0.34884 0.17908 0.0
O6 O 0.36323 0.43322 0.08742 0.0
O7 O 0.38285 0.39772 0.08629 0.0
O8 O 0.31849 0.33422 0.14194 0.0
O9 O 0.30955 0.37578 0.16525 0.0
C10 C 0.26298 0.3705 0.05469 0.0
O11 O 0.32755 0.33396 0.02491 0.0
O12 O 0.32688 0.37779 0.98936 0.0
In13 In 0.95009 0.32753 0.41188 0.0
O14 O 0.98354 0.32371 0.3444 0.0
O15 O 0.93975 0.32994 0.32428 0.0
C16 C 0.97178 0.31432 0.50507 0.0
C17 C 0.88645 0.27043 0.4023 0.0
C18 C 0.97247 0.39644 0.42416 0.0
O19 O 0.98871 0.31885 0.462 0.0
O20 O 0.94386 0.31563 0.50045 0.0
O21 O 0.94019 0.37321 0.42679 0.0
O22 O -0.00701 0.38476 0.41552 0.0
C23 C 0.96473 0.32606 0.30802 0.0
O24 O 0.89031 0.30045 0.41231 0.0
O25 O 0.91463 0.26931 0.40007 0.0
In26 In 0.60914 0.94048 0.76793 0.0
O27 O 0.57629 0.88164 0.75407 0.0
O28 O 0.63222 0.90659 0.74531 0.0
C29 C 0.55762 0.95597 0.78105 0.0
C30 C 0.634 0.96791 0.67056 0.0
C31 C 0.63825 0.95345 0.86647 0.0
O32 O 0.55147 0.92467 0.77921 0.0
O33 O 0.58964 0.97921 0.7767 0.0
O34 O 0.65109 0.97586 0.82915 0.0
O35 O 0.61171 0.92457 0.85343 0.0
C36 C 0.60259 0.87867 0.74154 0.0
O37 O 0.65202 0.98154 0.71246 0.0
O38 O 0.60387 0.94162 0.67836 0.0
In39 In 0.66128 0.6215 0.0668 0.0
O40 O 0.65816 0.66165 0.0115 0.0
O41 O 0.65685 0.61648 0.9774 0.0
C42 C 0.67445 0.64824 0.1662 0.0
C43 C 0.72198 0.62477 0.04313 0.0
C44 C 0.59561 0.56677 0.08008 0.0
O45 O 0.66572 0.6618 0.12884 0.0
O46 O 0.67702 0.62194 0.15289 0.0
O47 O 0.62214 0.56277 0.07775 0.0
O48 O 0.6024 0.59816 0.07582 0.0
C49 C 0.65683 0.64478 0.9696 0.0
O50 O 0.69336 0.59572 0.047 0.0
O51 O 0.72001 0.65189 0.05358 0.0
In52 In 0.03577 0.66368 0.414 0.0
O53 O 0.09552 0.69041 0.41396 0.0
O54 O 0.07153 0.72189 0.40207 0.0
C55 C 0.01329 0.59469 0.42561 0.0
C56 C 0.02067 0.66537 0.3104 0.0
C57 C 0.01455 0.67687 0.50765 0.0
O58 O 0.04558 0.61787 0.42809 0.0
O59 O -0.00721 0.60646 0.41748 0.0
O60 O -0.00238 0.67274 0.4647 0.0
O61 O 0.04226 0.67522 0.50268 0.0
C62 C 0.09959 0.72052 0.404 0.0
O63 O 0.00185 0.66737 0.34711 0.0
O64 O 0.04591 0.66178 0.32619 0.0
In65 In 0.37786 0.04995 0.76684 0.0
O66 O 0.33533 0.00854 0.71143 0.0
O67 O 0.38295 0.04925 0.67716 0.0
C68 C 0.3492 0.03665 0.86568 0.0
C69 C 0.38313 0.11145 0.74199 0.0
C70 C 0.42974 0.03495 0.77955 0.0
O71 O 0.33603 0.01444 0.82816 0.0
O72 O 0.37587 0.06547 0.85273 0.0
O73 O 0.43575 0.06619 0.77686 0.0
O74 O 0.39771 0.01157 0.77615 0.0
C75 C 0.35311 0.02253 0.66946 0.0
O76 O 0.40984 0.1089 0.7533 0.0
O77 O 0.35378 0.08323 0.74593 0.0
In78 In 0.60935 0.66559 0.5628 0.0
O79 O 0.58316 0.69727 0.58336 0.0
O80 O 0.63923 0.72436 0.57463 0.0
C81 C 0.55596 0.59885 0.55368 0.0
C82 C 0.63447 0.66289 0.6593 0.0
C83 C 0.63436 0.67876 0.46239 0.0
O84 O 0.5508 0.62468 0.5554 0.0
O85 O 0.58782 0.60691 0.55599 0.0
O86 O 0.64984 0.67223 0.49955 0.0
O87 O 0.60677 0.67882 0.47628 0.0
C88 C 0.61212 0.72609 0.58621 0.0
O89 O 0.65044 0.66322 0.61686 0.0
O90 O 0.60618 0.6631 0.6524 0.0
In91 In 0.9412 0.6131 0.90479 0.0
O92 O 0.88149 0.58324 0.90294 0.0
O93 O 0.90846 0.63866 0.91808 0.0
C94 C 0.95514 0.56055 0.89116 0.0
C95 C 0.95681 0.62924 0.00871 0.0
C96 C 0.96674 0.64973 0.81334 0.0
O97 O 0.92427 0.55559 0.88822 0.0
O98 O 0.97869 0.59186 0.90069 0.0
O99 O 0.98422 0.65882 0.85641 0.0
O100 O 0.93645 0.62292 0.81704 0.0
C101 C 0.87936 0.61016 0.91452 0.0
O102 O 0.97616 0.64977 0.97205 0.0
O103 O 0.9309 0.60081 0.99272 0.0
In104 In 0.32486 0.95046 0.26266 0.0
O105 O 0.29132 0.89225 0.28176 0.0
O106 O 0.26598 0.92278 0.27418 0.0
C107 C 0.39049 0.96091 0.25333 0.0
C108 C 0.3293 0.97914 0.35938 0.0
C109 C 0.31342 0.96378 0.16174 0.0
O110 O 0.3637 0.93038 0.25557 0.0
O111 O 0.38396 0.98573 0.25551 0.0
O112 O 0.32022 0.98568 0.19923 0.0
O113 O 0.31202 0.93549 0.17561 0.0
C114 C 0.26304 0.89324 0.28455 0.0
O115 O 0.33004 0.99519 0.31682 0.0
O116 O 0.32688 0.9496 0.35257 0.0
In117 In 0.37079 0.32512 0.57492 0.0
O118 O 0.3974 0.29365 0.59414 0.0
O119 O 0.34118 0.26641 0.58788 0.0
C120 C 0.4241 0.39165 0.56269 0.0
C121 C 0.34702 0.32859 0.67218 0.0
C122 C 0.34451 0.31166 0.47528 0.0
O123 O 0.42924 0.36583 0.56505 0.0
O124 O 0.39231 0.3837 0.56632 0.0
O125 O 0.33006 0.31931 0.51267 0.0
O126 O 0.37154 0.3104 0.48865 0.0
C127 C 0.36854 0.26482 0.59806 0.0
O128 O 0.33007 0.32709 0.63027 0.0
O129 O 0.37563 0.32916 0.66437 0.0
In130 In 0.04432 0.37687 0.90236 0.0
O131 O 0.00898 0.34 0.96923 0.0
O132 O 0.05428 0.3888 0.99038 0.0
C133 C 0.01944 0.34031 0.81073 0.0
C134 C 0.10643 0.3806 0.9137 0.0
C135 C 0.03009 0.42925 0.88904 0.0
O136 O 0.00182 0.33099 0.85366 0.0
O137 O 0.04957 0.36731 0.81465 0.0
O138 O 0.06097 0.4343 0.88572 0.0
O139 O 0.00663 0.39791 0.89866 0.0
C140 C 0.02825 0.36036 0.00608 0.0
O141 O 0.10404 0.40725 0.90127 0.0
O142 O 0.07749 0.3519 0.91699 0.0
In143 In 0.66183 0.03898 0.26345 0.0
O144 O 0.69504 0.09724 0.28231 0.0
O145 O 0.72072 0.06702 0.27493 0.0
C146 C 0.59613 0.02833 0.25393 0.0
C147 C 0.65761 0.01048 0.36029 0.0
C148 C 0.67354 0.02576 0.16263 0.0
O149 O 0.62288 0.05888 0.25614 0.0
O150 O 0.60273 0.00356 0.25627 0.0
O151 O 0.66674 0.00385 0.20014 0.0
O152 O 0.67479 0.05397 0.17643 0.0
C153 C 0.72344 0.09649 0.28513 0.0
O154 O 0.65679 0.99435 0.31779 0.0
O155 O 0.65999 0.03999 0.35336 0.0
H156 H 0.33244 0.30697 0.22508 0.0
H157 H 0.28114 0.36653 0.25959 0.0
H158 H 0.28248 0.35582 0.35522 0.0
H159 H 0.30472 0.33574 0.42936 0.0
H160 H 0.36025 0.28032 0.39488 0.0
H161 H 0.35038 0.28271 0.29917 0.0
C162 C 0.32097 0.317 0.25353 0.0
C163 C 0.30696 0.33769 0.23551 0.0
C164 C 0.32285 0.31171 0.30855 0.0
C165 C 0.29233 0.35073 0.27268 0.0
C166 C 0.29313 0.34467 0.32735 0.0
C167 C 0.31398 0.32357 0.40089 0.0
C168 C 0.33333 0.30808 0.41893 0.0
C169 C 0.30929 0.32612 0.34584 0.0
C170 C 0.34547 0.29262 0.38175 0.0
C171 C 0.33992 0.29404 0.32705 0.0
H172 H 0.9346 0.28935 0.59672 0.0
H173 H 0.03972 0.33568 0.53224 0.0
H174 H 0.06384 0.3441 0.62277 0.0
H175 H 0.05542 0.34587 0.71984 0.0
H176 H 0.95022 0.29903 0.78423 0.0
H177 H 0.92562 0.2827 0.69409 0.0
C178 C 0.96273 0.30065 0.60253 0.0
C179 C 0.98545 0.31239 0.5581 0.0
C180 C 0.97636 0.30559 0.6546 0.0
C181 C 0.02176 0.32654 0.56592 0.0
C182 C 0.03556 0.33157 0.61766 0.0
C183 C 0.02709 0.33148 0.71415 0.0
C184 C 0.00464 0.32414 0.75836 0.0
C185 C 0.01319 0.32236 0.66225 0.0
C186 C 0.96801 0.30507 0.75072 0.0
C187 C 0.95395 0.29593 0.69918 0.0
H188 H 0.67737 0.01788 0.91191 0.0
H189 H 0.62441 0.90676 0.94722 0.0
H190 H 0.63477 0.9195 0.0428 0.0
H191 H 0.65246 0.96204 0.1168 0.0
H192 H 0.70143 0.07292 0.08125 0.0
H193 H 0.6994 0.06059 0.98568 0.0
C194 C 0.6688 -0.00349 0.94049 0.0
C195 C 0.65004 0.96147 0.92266 0.0
C196 C 0.67377 0.00401 0.99551 0.0
C197 C 0.63878 0.93399 0.9601 0.0
C198 C 0.64458 0.94124 0.01476 0.0
C199 C 0.66326 0.98349 0.08812 0.0
C200 C 0.67683 0.01828 0.10596 0.0
C201 C 0.66106 0.97612 0.03305 0.0
C202 C 0.69058 0.04586 0.06842 0.0
C203 C 0.6894 0.03884 0.01374 0.0
H204 H 0.64763 0.6856 0.21211 0.0
H205 H 0.70759 0.63472 0.24657 0.0
H206 H 0.70449 0.64404 0.3423 0.0
H207 H 0.67847 0.66 0.4164 0.0
H208 H 0.61451 0.70655 0.38181 0.0
H209 H 0.62567 0.70595 0.28622 0.0
C210 C 0.66063 0.67726 0.24058 0.0
C211 C 0.67762 0.65936 0.22253 0.0
C212 C 0.65767 0.68158 0.29563 0.0
C213 C 0.69414 0.64839 0.25971 0.0
C214 C 0.69231 0.65361 0.31442 0.0
C215 C 0.66755 0.6706 0.38794 0.0
C216 C 0.64552 0.68304 0.40593 0.0
C217 C 0.67317 0.66915 0.33292 0.0
C218 C 0.63135 0.69655 0.36875 0.0
C219 C 0.63768 0.69619 0.3141 0.0
H220 H 0.93106 0.64528 0.72265 0.0
H221 H 0.0361 0.69011 0.78694 0.0
H222 H 0.06081 0.70663 0.69685 0.0
H223 H 0.05182 0.70073 0.59942 0.0
H224 H 0.94686 0.65644 0.5351 0.0
H225 H 0.92279 0.64782 0.6257 0.0
C226 C 0.9594 0.65927 0.71695 0.0
C227 C 0.98175 0.666 0.7611 0.0
C228 C 0.97335 0.66851 0.6651 0.0
C229 C 0.01839 0.68455 0.75346 0.0
C230 C 0.0325 0.69381 0.70196 0.0
C231 C 0.02375 0.68983 0.6053 0.0
C232 C 0.00104 0.67872 0.56086 0.0
C233 C 0.01015 0.68478 0.6574 0.0
C234 C 0.96482 0.66509 0.56878 0.0
C235 C 0.95104 0.65994 0.62055 0.0
H236 H 0.33483 0.02759 0.11602 0.0
H237 H 0.28565 0.91675 0.08018 0.0
H238 H 0.2879 0.92927 0.98463 0.0
H239 H 0.31005 0.97213 0.91095 0.0
H240 H 0.36323 0.08318 0.94664 0.0
H241 H 0.35279 0.07027 0.04217 0.0
C242 C 0.32404 0.00619 0.08729 0.0
C243 C 0.31032 0.97136 0.10504 0.0
C244 C 0.32636 0.01366 0.03224 0.0
C245 C 0.2966 0.94385 0.06742 0.0
C246 C 0.2979 0.95097 0.01275 0.0
C247 C 0.31867 0.99344 0.93961 0.0
C248 C 0.33749 0.02852 0.9219 0.0
C249 C 0.31363 0.98584 0.99461 0.0
C250 C 0.34881 0.05593 0.95943 0.0
C251 C 0.34296 0.04858 0.01406 0.0
H252 H 0.11462 0.33013 0.96137 0.0
H253 H 0.17249 0.43824 0.90838 0.0
H254 H 0.22615 0.44514 0.94953 0.0
H255 H 0.25593 0.42078 0.00291 0.0
H256 H 0.19745 0.31274 0.05621 0.0
H257 H 0.14433 0.30565 0.01335 0.0
C258 C 0.13908 0.35507 0.95817 0.0
C259 C 0.13972 0.38359 0.93172 0.0
C260 C 0.16945 0.35903 0.98282 0.0
C261 C 0.17147 0.41585 0.92834 0.0
C262 C 0.20204 0.41988 0.95217 0.0
C263 C 0.23145 0.39582 0.00556 0.0
C264 C 0.23044 0.36741 0.03297 0.0
C265 C 0.20118 0.39178 0.98018 0.0
C266 C 0.19875 0.33504 0.03554 0.0
C267 C 0.16846 0.33091 0.01082 0.0
H268 H 0.87504 0.20812 0.36445 0.0
H269 H 0.82152 0.26478 0.40461 0.0
H270 H 0.76615 0.21608 0.37027 0.0
H271 H 0.73351 0.15798 0.32678 0.0
H272 H 0.78797 0.10229 0.28605 0.0
H273 H 0.8427 0.15043 0.32203 0.0
C274 C 0.85119 0.2097 0.36625 0.0
C275 C 0.85227 0.23988 0.38721 0.0
C276 C 0.81981 0.18204 0.34562 0.0
C277 C 0.82125 0.24168 0.38886 0.0
C278 C 0.78968 0.21397 0.36896 0.0
C279 C 0.75744 0.15656 0.32545 0.0
C280 C 0.7568 0.12677 0.30356 0.0
C281 C 0.78877 0.1842 0.34669 0.0
C282 C 0.78786 0.12504 0.30253 0.0
C283 C 0.81912 0.15246 0.32328 0.0
H284 H 0.65253 0.87192 0.68921 0.0
H285 H 0.54365 0.81351 0.73842 0.0
H286 H 0.53628 0.76135 0.69146 0.0
H287 H 0.56099 0.73259 0.63647 0.0
H288 H 0.66987 0.79162 0.58716 0.0
H289 H 0.67685 0.84368 0.63332 0.0
C290 C 0.62728 0.84766 0.69014 0.0
C291 C 0.59876 0.84635 0.71758 0.0
C292 C 0.6231 0.81815 0.66235 0.0
C293 C 0.56605 0.81498 0.7178 0.0
C294 C 0.56177 0.78527 0.69074 0.0
C295 C 0.58609 0.757 0.63527 0.0
C296 C 0.61484 0.75838 0.60836 0.0
C297 C 0.59008 0.78665 0.66261 0.0
C298 C 0.64733 0.79 0.60753 0.0
C299 C 0.65141 0.81969 0.63415 0.0
H300 H 0.72916 0.57312 0.99638 0.0
H301 H 0.78754 0.68255 0.04277 0.0
H302 H 0.84097 0.68822 0.00324 0.0
H303 H 0.87104 0.66205 0.95649 0.0
H304 H 0.81321 0.55258 0.91034 0.0
H305 H 0.75924 0.54711 0.94788 0.0
C306 C 0.75367 0.5981 -0.0018 0.0
C307 C 0.75457 0.6273 0.02276 0.0
C308 C 0.78414 0.60129 0.9748 0.0
C309 C 0.78631 0.65965 0.02428 0.0
C310 C 0.81679 0.66297 0.00149 0.0
C311 C 0.84654 0.6371 0.95402 0.0
C312 C 0.84601 0.60779 0.93058 0.0
C313 C 0.81595 0.634 0.97652 0.0
C314 C 0.81418 0.57556 0.92802 0.0
C315 C 0.78341 0.57236 0.94978 0.0
H316 H 0.11134 0.78278 0.36526 0.0
H317 H 0.1643 0.72571 0.4063 0.0
H318 H 0.21974 0.77396 0.37127 0.0
H319 H 0.25261 0.83177 0.32697 0.0
H320 H 0.19871 0.88789 0.28536 0.0
H321 H 0.1439 0.8402 0.32198 0.0
C322 C 0.13508 0.78102 0.36711 0.0
C323 C 0.13383 0.75086 0.38853 0.0
C324 C 0.1665 0.80841 0.34608 0.0
C325 C 0.16471 0.74881 0.39022 0.0
C326 C 0.19632 0.77626 0.36992 0.0
C327 C 0.22878 0.83338 0.32557 0.0
C328 C 0.2296 0.86317 0.30327 0.0
C329 C 0.19741 0.80601 0.3472 0.0
C330 C 0.19867 0.86514 0.30216 0.0
C331 C 0.16738 0.83798 0.32328 0.0
H332 H 0.3315 0.11841 0.69569 0.0
H333 H 0.44183 0.17671 0.73688 0.0
H334 H 0.44758 0.22917 0.69309 0.0
H335 H 0.42109 0.25819 0.64296 0.0
H336 H 0.31074 0.19934 0.60173 0.0
H337 H 0.30528 0.14702 0.64496 0.0
C338 C 0.35673 0.14269 0.69554 0.0
C339 C 0.38613 0.14386 0.71977 0.0
C340 C 0.35993 0.17241 0.66965 0.0
C341 C 0.41877 0.17532 0.71871 0.0
C342 C 0.42211 0.20521 0.69347 0.0
C343 C 0.39597 0.23379 0.64294 0.0
C344 C 0.3664 0.23252 0.61909 0.0
C345 C 0.3929 0.20397 0.66852 0.0
C346 C 0.33391 0.20088 0.61974 0.0
C347 C 0.33071 0.17103 0.64467 0.0
H348 H 0.36274 0.3058 0.76222 0.0
H349 H 0.30515 0.35468 0.70394 0.0
H350 H 0.2922 0.3636 0.79615 0.0
H351 H 0.30173 0.36185 0.89273 0.0
H352 H 0.35734 0.31095 0.95116 0.0
H353 H 0.36642 0.29797 0.85901 0.0
C354 C 0.34708 0.31813 0.76981 0.0
C355 C 0.33529 0.3301 0.72673 0.0
C356 C 0.33959 0.32283 0.82264 0.0
C357 C 0.31451 0.34541 0.73668 0.0
C358 C 0.30728 0.35061 0.78927 0.0
C359 C 0.31556 0.34762 0.8852 0.0
C360 C 0.32935 0.33775 0.92825 0.0
C361 C 0.32036 0.34012 0.83245 0.0
C362 C 0.34662 0.3188 0.91842 0.0
C363 C 0.35192 0.31157 0.86586 0.0
H364 H 0.02747 0.35103 0.25742 0.0
H365 H 0.91547 0.2987 0.23016 0.0
H366 H 0.92487 0.30113 0.13348 0.0
H367 H 0.96525 0.32249 0.05636 0.0
H368 H 0.07731 0.38042 0.0839 0.0
H369 H 0.06782 0.37138 0.18031 0.0
C370 C 0.00523 0.33974 0.23016 0.0
C371 C 0.97092 0.32469 0.25048 0.0
C372 C 0.01089 0.34251 0.1746 0.0
C373 C 0.94218 0.31056 0.21507 0.0
C374 C 0.94751 0.31195 0.15988 0.0
C375 C 0.98747 0.33267 0.0836 0.0
C376 C 0.02184 0.35206 0.06344 0.0
C377 C 0.98178 0.32851 0.13911 0.0
C378 C 0.05056 0.36557 0.09885 0.0
C379 C 0.04518 0.36041 0.1539 0.0
H380 H 0.61613 0.92975 0.57982 0.0
H381 H 0.67959 0.03558 0.63969 0.0
H382 H 0.69426 0.05795 0.5478 0.0
H383 H 0.6849 0.0476 0.45084 0.0
H384 H 0.62388 0.94148 0.39095 0.0
H385 H 0.61258 0.91872 0.48279 0.0
C386 C 0.63342 0.95769 0.57262 0.0
C387 C 0.64642 0.98117 0.6161 0.0
C388 C 0.64201 0.97015 0.51995 0.0
C389 C 0.66928 0.01715 0.60666 0.0
C390 C 0.67751 0.02989 0.55424 0.0
C391 C 0.66944 0.01945 0.458 0.0
C392 C 0.65481 -0.00383 0.41453 0.0
C393 C 0.66342 0.00669 0.51065 0.0
C394 C 0.63534 0.95979 0.42395 0.0
C395 C 0.62875 0.94686 0.47636 0.0
H396 H 0.62177 0.68843 0.74899 0.0
H397 H 0.67468 0.63477 0.6907 0.0
H398 H 0.68815 0.62627 0.78284 0.0
H399 H 0.68022 0.62981 0.87959 0.0
H400 H 0.62931 0.68545 0.93783 0.0
H401 H 0.61986 0.69792 0.84559 0.0
C402 C 0.63655 0.67517 0.75656 0.0
C403 C 0.64685 0.66174 0.71353 0.0
C404 C 0.64432 0.67068 0.80932 0.0
C405 C 0.66649 0.6452 0.72341 0.0
C406 C 0.674 0.64023 0.77597 0.0
C407 C 0.66733 0.64494 0.87198 0.0
C408 C 0.65494 0.6563 0.91506 0.0
C409 C 0.66233 0.65216 0.81916 0.0
C410 C 0.63891 0.67641 0.90509 0.0
C411 C 0.63341 0.68337 0.85249 0.0
H412 H 0.95757 0.63797 0.26022 0.0
H413 H 0.06959 0.69493 0.23244 0.0
H414 H 0.05992 0.69214 0.1358 0.0
H415 H 0.01951 0.66921 0.05888 0.0
H416 H 0.90769 0.60681 0.08693 0.0
H417 H 0.91713 0.61602 0.18329 0.0
C418 C 0.97972 0.6502 0.23285 0.0
C419 C 0.01415 0.66668 0.25299 0.0
C420 C 0.97396 0.64721 0.17732 0.0
C421 C 0.04281 0.682 0.21746 0.0
C422 C 0.03732 0.68038 0.1623 0.0
C423 C -0.0027 0.65805 0.08621 0.0
C424 C 0.96305 0.63737 0.06616 0.0
C425 C 0.00301 0.6624 0.1417 0.0
C426 C 0.93437 0.62265 0.10174 0.0
C427 C 0.93972 0.62793 0.15677 0.0
H428 H 0.30251 0.94218 0.45025 0.0
H429 H 0.36272 0.04821 0.38958 0.0
H430 H 0.37405 0.07121 0.48127 0.0
H431 H 0.37068 0.06045 0.57838 0.0
H432 H 0.30802 0.95468 0.63899 0.0
H433 H 0.29342 0.93204 0.54728 0.0
C434 C 0.31781 0.97036 0.4572 0.0
C435 C 0.3322 0.99356 0.41355 0.0
C436 C 0.32385 0.98326 0.50977 0.0
C437 C 0.35146 0.02997 0.42272 0.0
C438 C 0.35806 0.04304 0.47504 0.0
C439 C 0.35358 0.03247 0.57139 0.0
C440 C 0.34079 0.00909 0.61504 0.0
C441 C 0.34502 0.01985 0.5188 0.0
C442 C 0.31818 0.97304 0.60584 0.0
C443 C 0.30998 0.96014 0.55351 0.0
H444 H 0.4495 0.42566 0.09212 0.0
H445 H 0.41187 0.49943 0.09214 0.0
H446 H 0.47256 0.54862 0.09134 0.0
H447 H 0.53604 0.57043 0.08691 0.0
H448 H 0.57365 0.49665 0.08586 0.0
H449 H 0.51304 0.44752 0.09097 0.0
C450 C 0.45457 0.45251 0.09225 0.0
C451 C 0.42629 0.45895 0.09195 0.0
C452 C 0.48944 0.48056 0.09141 0.0
C453 C 0.43324 0.49383 0.09226 0.0
C454 C 0.4679 0.52193 0.09172 0.0
C455 C 0.53099 0.5436 0.08803 0.0
C456 C 0.55922 0.53712 0.08574 0.0
C457 C 0.49616 0.51557 0.09069 0.0
C458 C 0.55231 0.50227 0.08744 0.0
C459 C 0.5177 0.4742 0.09031 0.0
H460 H 0.05201 0.56228 0.43075 0.0
H461 H 0.94505 0.5417 0.42985 0.0
H462 H 0.92281 0.47841 0.43205 0.0
H463 H 0.93371 0.42881 0.43024 0.0
H464 H 0.04069 0.44942 0.42854 0.0
H465 H 0.06291 0.51268 0.4316 0.0
C466 C 0.02386 0.54392 0.4314 0.0
C467 C 0.00023 0.5566 0.42995 0.0
C468 C 0.01123 0.50754 0.43202 0.0
C469 C 0.9638 0.53255 0.43073 0.0
C470 C 0.95103 0.49636 0.43197 0.0
C471 C 0.96186 0.44717 0.4309 0.0
C472 C 0.9855 0.4345 0.42897 0.0
C473 C 0.97449 0.48354 0.43201 0.0
C474 C 0.02193 0.45855 0.42977 0.0
C475 C 0.03469 0.49474 0.43151 0.0
H476 H 0.56558 0.02115 0.78476 0.0
H477 H 0.48677 0.91071 0.78709 0.0
H478 H 0.44015 0.92562 0.78912 0.0
H479 H 0.42191 0.96994 0.78631 0.0
H480 H 0.50067 0.08037 0.7829 0.0
H481 H 0.54734 0.06553 0.78545 0.0
C482 C 0.5382 0.00035 0.78602 0.0
C483 C 0.52957 0.9649 0.78553 0.0
C484 C 0.51161 0.0091 0.78683 0.0
C485 C 0.49403 0.93821 0.78733 0.0
C486 C 0.46739 0.9467 0.78841 0.0
C487 C 0.4493 0.99076 0.78641 0.0
C488 C 0.45789 0.02618 0.78416 0.0
C489 C 0.4759 0.98204 0.78756 0.0
C490 C 0.49344 0.0529 0.7845 0.0
C491 C 0.5201 0.04444 0.78588 0.0
H492 H 0.56205 0.54054 0.55136 0.0
H493 H 0.48518 0.57425 0.55128 0.0
H494 H 0.43752 0.51282 0.55231 0.0
H495 H 0.41792 0.44981 0.55644 0.0
H496 H 0.4948 0.41612 0.55753 0.0
H497 H 0.54241 0.47748 0.55274 0.0
C498 C 0.53486 0.53446 0.55129 0.0
C499 C 0.52711 0.56186 0.55142 0.0
C500 C 0.5077 0.49917 0.55223 0.0
C501 C 0.49179 0.55359 0.55125 0.0
C502 C 0.46456 0.51851 0.55191 0.0
C503 C 0.44509 0.45588 0.55542 0.0
C504 C 0.45288 0.42852 0.55755 0.0
C505 C 0.47224 0.49113 0.55292 0.0
C506 C 0.48817 0.43675 0.55604 0.0
C507 C 0.51537 0.4718 0.55335 0.0
H508 H 0.0196 0.56695 0.8851 0.0
H509 H 0.90859 0.48995 0.88578 0.0
H510 H 0.92213 0.44237 0.88312 0.0
H511 H 0.96553 0.42281 0.88474 0.0
H512 H 0.07654 0.49984 0.88319 0.0
H513 H 0.06297 0.5474 0.88175 0.0
C514 C -0.00162 0.53974 0.88441 0.0
C515 C 0.96317 0.5319 0.88602 0.0
C516 C 0.00635 0.51262 0.88284 0.0
C517 C 0.93591 0.4966 0.88466 0.0
C518 C 0.94363 0.46942 0.88325 0.0
C519 C 0.98675 0.45002 0.88381 0.0
C520 C 0.02197 0.45787 0.88444 0.0
C521 C 0.97875 0.47714 0.88298 0.0
C522 C 0.04921 0.49318 0.88281 0.0
C523 C 0.04147 0.52035 0.88211 0.0
H524 H 0.53598 0.96502 0.25 0.0
H525 H 0.57476 0.07687 0.25025 0.0
H526 H 0.51432 0.06569 0.24826 0.0
H527 H 0.45065 0.02417 0.24938 0.0
H528 H 0.41183 0.91232 0.25015 0.0
H529 H 0.47228 0.92349 0.24861 0.0
C530 C 0.53121 0.98697 0.24941 0.0
C531 C 0.55976 0.02173 0.25047 0.0
C532 C 0.49647 0.98033 0.24856 0.0
C533 C 0.5532 0.04988 0.24957 0.0
C534 C 0.51868 0.0435 0.24847 0.0
C535 C 0.45541 0.00222 0.249 0.0
C536 C 0.42685 0.96746 0.25007 0.0
C537 C 0.49014 0.00885 0.24842 0.0
C538 C 0.4334 0.9393 0.24944 0.0
C539 C 0.46793 0.94568 0.24862 0.0
loop_
_geom_bond_atom_site_label_1
_geom_bond_atom_site_label_2
_geom_bond_distance
_geom_bond_site_symmetry_2
_ccdc_geom_bond_type
In0 O1 2.294 . S
In0 O2 2.326 . S
In0 O6 2.266 . S
In0 O7 2.326 . S
In0 O8 2.266 . S
In0 O9 2.326 . S
In0 O11 2.294 . S
In0 O12 2.326 1_554 S
O1 In0 2.294 . S
O1 C10 1.240 . S
O2 In0 2.326 . S
O2 C10 1.252 . S
C3 O6 1.252 . S
C3 O7 1.260 . S
C4 O11 1.240 1_556 S
C4 O12 1.252 . S
C5 O8 1.252 . S
C5 O9 1.260 . S
O6 In0 2.266 . S
O6 C3 1.252 . S
O7 In0 2.326 . S
O7 C3 1.260 . S
O8 In0 2.266 . S
O8 C5 1.252 . S
O9 In0 2.326 . S
O9 C5 1.260 . S
C10 O1 1.240 . S
C10 O2 1.252 . S
O11 In0 2.294 . S
O11 C4 1.240 1_554 S
O12 In0 2.326 1_556 S
O12 C4 1.252 . S
In13 O14 2.294 1_655 S
In13 O15 2.326 . S
In13 O19 2.266 1_655 S
In13 O20 2.326 . S
In13 O21 2.266 . S
In13 O22 2.326 1_655 S
In13 O24 2.294 . S
In13 O25 2.326 . S
O14 In13 2.294 1_455 S
O14 C23 1.240 1_455 S
O15 In13 2.326 . S
O15 C23 1.252 . S
C16 O19 1.252 1_655 S
C16 O20 1.260 . S
C17 O24 1.240 . S
C17 O25 1.252 . S
C18 O21 1.252 . S
C18 O22 1.260 1_655 S
O19 In13 2.266 1_455 S
O19 C16 1.252 1_455 S
O20 In13 2.326 . S
O20 C16 1.260 . S
O21 In13 2.266 . S
O21 C18 1.252 . S
O22 In13 2.326 1_455 S
O22 C18 1.260 1_455 S
C23 O14 1.240 1_655 S
C23 O15 1.252 . S
O24 In13 2.294 . S
O24 C17 1.240 . S
O25 In13 2.326 . S
O25 C17 1.252 . S
In26 O27 2.294 . S
In26 O28 2.326 . S
In26 O32 2.266 . S
In26 O33 2.326 1_565 S
In26 O34 2.266 1_565 S
In26 O35 2.326 . S
In26 O37 2.294 1_565 S
In26 O38 2.326 . S
O27 In26 2.294 . S
O27 C36 1.240 . S
O28 In26 2.326 . S
O28 C36 1.252 . S
C29 O32 1.252 . S
C29 O33 1.260 1_565 S
C30 O37 1.240 1_565 S
C30 O38 1.252 . S
C31 O34 1.252 1_565 S
C31 O35 1.260 . S
O32 In26 2.266 . S
O32 C29 1.252 . S
O33 In26 2.326 1_545 S
O33 C29 1.260 1_545 S
O34 In26 2.266 1_545 S
O34 C31 1.252 1_545 S
O35 In26 2.326 . S
O35 C31 1.260 . S
C36 O27 1.240 . S
C36 O28 1.252 . S
O37 In26 2.294 1_545 S
O37 C30 1.240 1_545 S
O38 In26 2.326 . S
O38 C30 1.252 . S
In39 O40 2.294 . S
In39 O41 2.326 1_554 S
In39 O45 2.266 . S
In39 O46 2.326 . S
In39 O47 2.266 . S
In39 O48 2.326 . S
In39 O50 2.294 . S
In39 O51 2.326 . S
O40 In39 2.294 . S
O40 C49 1.240 1_554 S
O41 In39 2.326 1_556 S
O41 C49 1.252 . S
C42 O45 1.252 . S
C42 O46 1.260 . S
C43 O50 1.240 . S
C43 O51 1.252 . S
C44 O47 1.252 . S
C44 O48 1.260 . S
O45 In39 2.266 . S
O45 C42 1.252 . S
O46 In39 2.326 . S
O46 C42 1.260 . S
O47 In39 2.266 . S
O47 C44 1.252 . S
O48 In39 2.326 . S
O48 C44 1.260 . S
C49 O40 1.240 1_556 S
C49 O41 1.252 . S
O50 In39 2.294 . S
O50 C43 1.240 . S
O51 In39 2.326 . S
O51 C43 1.252 . S
In52 O53 2.294 . S
In52 O54 2.326 . S
In52 O58 2.266 . S
In52 O59 2.326 1_455 S
In52 O60 2.266 1_455 S
In52 O61 2.326 . S
In52 O63 2.294 1_455 S
In52 O64 2.326 . S
O53 In52 2.294 . S
O53 C62 1.240 . S
O54 In52 2.326 . S
O54 C62 1.252 . S
C55 O58 1.252 . S
C55 O59 1.260 1_455 S
C56 O63 1.240 1_455 S
C56 O64 1.252 . S
C57 O60 1.252 1_455 S
C57 O61 1.260 . S
O58 In52 2.266 . S
O58 C55 1.252 . S
O59 In52 2.326 1_655 S
O59 C55 1.260 1_655 S
O60 In52 2.266 1_655 S
O60 C57 1.252 1_655 S
O61 In52 2.326 . S
O61 C57 1.260 . S
C62 O53 1.240 . S
C62 O54 1.252 . S
O63 In52 2.294 1_655 S
O63 C56 1.240 1_655 S
O64 In52 2.326 . S
O64 C56 1.252 . S
In65 O66 2.294 1_545 S
In65 O67 2.326 . S
In65 O71 2.266 1_545 S
In65 O72 2.326 . S
In65 O73 2.266 . S
In65 O74 2.326 1_545 S
In65 O76 2.294 . S
In65 O77 2.326 . S
O66 In65 2.294 1_565 S
O66 C75 1.240 1_565 S
O67 In65 2.326 . S
O67 C75 1.252 . S
C68 O71 1.252 1_545 S
C68 O72 1.260 . S
C69 O76 1.240 . S
C69 O77 1.252 . S
C70 O73 1.252 . S
C70 O74 1.260 1_545 S
O71 In65 2.266 1_565 S
O71 C68 1.252 1_565 S
O72 In65 2.326 . S
O72 C68 1.260 . S
O73 In65 2.266 . S
O73 C70 1.252 . S
O74 In65 2.326 1_565 S
O74 C70 1.260 1_565 S
C75 O66 1.240 1_545 S
C75 O67 1.252 . S
O76 In65 2.294 . S
O76 C69 1.240 . S
O77 In65 2.326 . S
O77 C69 1.252 . S
In78 O79 2.294 . S
In78 O80 2.326 . S
In78 O84 2.266 . S
In78 O85 2.326 . S
In78 O86 2.266 . S
In78 O87 2.326 . S
In78 O89 2.294 . S
In78 O90 2.326 . S
O79 In78 2.294 . S
O79 C88 1.240 . S
O80 In78 2.326 . S
O80 C88 1.252 . S
C81 O84 1.252 . S
C81 O85 1.260 . S
C82 O89 1.240 . S
C82 O90 1.252 . S
C83 O86 1.252 . S
C83 O87 1.260 . S
O84 In78 2.266 . S
O84 C81 1.252 . S
O85 In78 2.326 . S
O85 C81 1.260 . S
O86 In78 2.266 . S
O86 C83 1.252 . S
O87 In78 2.326 . S
O87 C83 1.260 . S
C88 O79 1.240 . S
C88 O80 1.252 . S
O89 In78 2.294 . S
O89 C82 1.240 . S
O90 In78 2.326 . S
O90 C82 1.252 . S
In91 O92 2.294 . S
In91 O93 2.326 . S
In91 O97 2.266 . S
In91 O98 2.326 1_655 S
In91 O99 2.266 1_655 S
In91 O100 2.326 . S
In91 O102 2.294 1_655 S
In91 O103 2.326 1_556 S
O92 In91 2.294 . S
O92 C101 1.240 . S
O93 In91 2.326 . S
O93 C101 1.252 . S
C94 O97 1.252 . S
C94 O98 1.260 1_655 S
C95 O102 1.240 1_654 S
C95 O103 1.252 . S
C96 O99 1.252 1_655 S
C96 O100 1.260 . S
O97 In91 2.266 . S
O97 C94 1.252 . S
O98 In91 2.326 1_455 S
O98 C94 1.260 1_455 S
O99 In91 2.266 1_455 S
O99 C96 1.252 1_455 S
O100 In91 2.326 . S
O100 C96 1.260 . S
C101 O92 1.240 . S
C101 O93 1.252 . S
O102 In91 2.294 1_455 S
O102 C95 1.240 1_456 S
O103 In91 2.326 1_554 S
O103 C95 1.252 . S
In104 O105 2.294 . S
In104 O106 2.326 . S
In104 O110 2.266 . S
In104 O111 2.326 1_565 S
In104 O112 2.266 1_565 S
In104 O113 2.326 . S
In104 O115 2.294 1_565 S
In104 O116 2.326 . S
O105 In104 2.294 . S
O105 C114 1.240 . S
O106 In104 2.326 . S
O106 C114 1.252 . S
C107 O110 1.252 . S
C107 O111 1.260 1_565 S
C108 O115 1.240 1_565 S
C108 O116 1.252 . S
C109 O112 1.252 1_565 S
C109 O113 1.260 . S
O110 In104 2.266 . S
O110 C107 1.252 . S
O111 In104 2.326 1_545 S
O111 C107 1.260 1_545 S
O112 In104 2.266 1_545 S
O112 C109 1.252 1_545 S
O113 In104 2.326 . S
O113 C109 1.260 . S
C114 O105 1.240 . S
C114 O106 1.252 . S
O115 In104 2.294 1_545 S
O115 C108 1.240 1_545 S
O116 In104 2.326 . S
O116 C108 1.252 . S
In117 O118 2.294 . S
In117 O119 2.326 . S
In117 O123 2.266 . S
In117 O124 2.326 . S
In117 O125 2.266 . S
In117 O126 2.326 . S
In117 O128 2.294 . S
In117 O129 2.326 . S
O118 In117 2.294 . S
O118 C127 1.240 . S
O119 In117 2.326 . S
O119 C127 1.252 . S
C120 O123 1.252 . S
C120 O124 1.260 . S
C121 O128 1.240 . S
C121 O129 1.252 . S
C122 O125 1.252 . S
C122 O126 1.260 . S
O123 In117 2.266 . S
O123 C120 1.252 . S
O124 In117 2.326 . S
O124 C120 1.260 . S
O125 In117 2.266 . S
O125 C122 1.252 . S
O126 In117 2.326 . S
O126 C122 1.260 . S
C127 O118 1.240 . S
C127 O119 1.252 . S
O128 In117 2.294 . S
O128 C121 1.240 . S
O129 In117 2.326 . S
O129 C121 1.252 . S
In130 O131 2.294 1_455 S
In130 O132 2.326 1_556 S
In130 O136 2.266 1_455 S
In130 O137 2.326 . S
In130 O138 2.266 . S
In130 O139 2.326 1_455 S
In130 O141 2.294 . S
In130 O142 2.326 . S
O131 In130 2.294 1_655 S
O131 C140 1.240 1_656 S
O132 In130 2.326 1_554 S
O132 C140 1.252 . S
C133 O136 1.252 1_455 S
C133 O137 1.260 . S
C134 O141 1.240 . S
C134 O142 1.252 . S
C135 O138 1.252 . S
C135 O139 1.260 1_455 S
O136 In130 2.266 1_655 S
O136 C133 1.252 1_655 S
O137 In130 2.326 . S
O137 C133 1.260 . S
O138 In130 2.266 . S
O138 C135 1.252 . S
O139 In130 2.326 1_655 S
O139 C135 1.260 1_655 S
C140 O131 1.240 1_454 S
C140 O132 1.252 . S
O141 In130 2.294 . S
O141 C134 1.240 . S
O142 In130 2.326 . S
O142 C134 1.252 . S
In143 O144 2.294 . S
In143 O145 2.326 . S
In143 O149 2.266 . S
In143 O150 2.326 1_545 S
In143 O151 2.266 1_545 S
In143 O152 2.326 . S
In143 O154 2.294 1_545 S
In143 O155 2.326 . S
O144 In143 2.294 . S
O144 C153 1.240 . S
O145 In143 2.326 . S
O145 C153 1.252 . S
C146 O149 1.252 . S
C146 O150 1.260 1_545 S
C147 O154 1.240 1_545 S
C147 O155 1.252 . S
C148 O151 1.252 1_545 S
C148 O152 1.260 . S
O149 In143 2.266 . S
O149 C146 1.252 . S
O150 In143 2.326 1_565 S
O150 C146 1.260 1_565 S
O151 In143 2.266 1_565 S
O151 C148 1.252 1_565 S
O152 In143 2.326 . S
O152 C148 1.260 . S
C153 O144 1.240 . S
C153 O145 1.252 . S
O154 In143 2.294 1_565 S
O154 C147 1.240 1_565 S
O155 In143 2.326 . S
O155 C147 1.252 . S
H156 C162 0.930 . S
H157 C165 0.930 . S
H158 C166 0.930 . S
H159 C167 0.930 . S
H160 C170 0.930 . S
H161 C171 0.930 . S
C162 H156 0.930 . S
C162 C163 1.355 . S
C162 C164 1.415 . S
C163 C162 1.355 . S
C163 C165 1.419 . S
C164 C162 1.415 . S
C164 C169 1.425 . S
C164 C171 1.409 . S
C165 H157 0.930 . S
C165 C163 1.419 . S
C165 C166 1.362 . S
C166 H158 0.930 . S
C166 C165 1.362 . S
C166 C169 1.409 . S
C167 H159 0.930 . S
C167 C168 1.355 . S
C167 C169 1.415 . S
C168 C167 1.355 . S
C168 C170 1.419 . S
C169 C164 1.425 . S
C169 C166 1.409 . S
C169 C167 1.415 . S
C170 H160 0.930 . S
C170 C168 1.419 . S
C170 C171 1.362 . S
C171 H161 0.930 . S
C171 C164 1.409 . S
C171 C170 1.362 . S
H172 C178 0.930 . S
H173 C181 0.930 . S
H174 C182 0.930 . S
H175 C183 0.930 . S
H176 C186 0.930 . S
H177 C187 0.930 . S
C178 H172 0.930 . S
C178 C179 1.355 . S
C178 C180 1.415 . S
C179 C178 1.355 . S
C179 C181 1.419 1_655 S
C180 C178 1.415 . S
C180 C185 1.425 1_655 S
C180 C187 1.409 . S
C181 H173 0.930 . S
C181 C179 1.419 1_455 S
C181 C182 1.362 . S
C182 H174 0.930 . S
C182 C181 1.362 . S
C182 C185 1.409 . S
C183 H175 0.930 . S
C183 C184 1.355 . S
C183 C185 1.415 . S
C184 C183 1.355 . S
C184 C186 1.419 1_455 S
C185 C180 1.425 1_455 S
C185 C182 1.409 . S
C185 C183 1.415 . S
C186 H176 0.930 . S
C186 C184 1.419 1_655 S
C186 C187 1.362 . S
C187 H177 0.930 . S
C187 C180 1.409 . S
C187 C186 1.362 . S
H188 C194 0.930 . S
H189 C197 0.930 . S
H190 C198 0.930 . S
H191 C199 0.930 . S
H192 C202 0.930 . S
H193 C203 0.930 . S
C194 H188 0.930 . S
C194 C195 1.355 1_545 S
C194 C196 1.415 . S
C195 C194 1.355 1_565 S
C195 C197 1.419 . S
C196 C194 1.415 . S
C196 C201 1.425 1_546 S
C196 C203 1.409 1_556 S
C197 H189 0.930 . S
C197 C195 1.419 . S
C197 C198 1.362 . S
C198 H190 0.930 . S
C198 C197 1.362 . S
C198 C201 1.409 1_556 S
C199 H191 0.930 . S
C199 C200 1.355 1_565 S
C199 C201 1.415 . S
C200 C199 1.355 1_545 S
C200 C202 1.419 . S
C201 C196 1.425 1_564 S
C201 C198 1.409 1_554 S
C201 C199 1.415 . S
C202 H192 0.930 . S
C202 C200 1.419 . S
C202 C203 1.362 . S
C203 H193 0.930 . S
C203 C196 1.409 1_554 S
C203 C202 1.362 . S
H204 C210 0.930 . S
H205 C213 0.930 . S
H206 C214 0.930 . S
H207 C215 0.930 . S
H208 C218 0.930 . S
H209 C219 0.930 . S
C210 H204 0.930 . S
C210 C211 1.355 . S
C210 C212 1.415 . S
C211 C210 1.355 . S
C211 C213 1.419 . S
C212 C210 1.415 . S
C212 C217 1.425 . S
C212 C219 1.409 . S
C213 H205 0.930 . S
C213 C211 1.419 . S
C213 C214 1.362 . S
C214 H206 0.930 . S
C214 C213 1.362 . S
C214 C217 1.409 . S
C215 H207 0.930 . S
C215 C216 1.355 . S
C215 C217 1.415 . S
C216 C215 1.355 . S
C216 C218 1.419 . S
C217 C212 1.425 . S
C217 C214 1.409 . S
C217 C215 1.415 . S
C218 H208 0.930 . S
C218 C216 1.419 . S
C218 C219 1.362 . S
C219 H209 0.930 . S
C219 C212 1.409 . S
C219 C218 1.362 . S
H220 C226 0.930 . S
H221 C229 0.930 . S
H222 C230 0.930 . S
H223 C231 0.930 . S
H224 C234 0.930 . S
H225 C235 0.930 . S
C226 H220 0.930 . S
C226 C227 1.355 . S
C226 C228 1.415 . S
C227 C226 1.355 . S
C227 C229 1.419 1_655 S
C228 C226 1.415 . S
C228 C233 1.425 1_655 S
C228 C235 1.409 . S
C229 H221 0.930 . S
C229 C227 1.419 1_455 S
C229 C230 1.362 . S
C230 H222 0.930 . S
C230 C229 1.362 . S
C230 C233 1.409 . S
C231 H223 0.930 . S
C231 C232 1.355 . S
C231 C233 1.415 . S
C232 C231 1.355 . S
C232 C234 1.419 1_455 S
C233 C228 1.425 1_455 S
C233 C230 1.409 . S
C233 C231 1.415 . S
C234 H224 0.930 . S
C234 C232 1.419 1_655 S
C234 C235 1.362 . S
C235 H225 0.930 . S
C235 C228 1.409 . S
C235 C234 1.362 . S
H236 C242 0.930 . S
H237 C245 0.930 . S
H238 C246 0.930 . S
H239 C247 0.930 . S
H240 C250 0.930 . S
H241 C251 0.930 . S
C242 H236 0.930 . S
C242 C243 1.355 1_545 S
C242 C244 1.415 . S
C243 C242 1.355 1_565 S
C243 C245 1.419 . S
C244 C242 1.415 . S
C244 C249 1.425 1_544 S
C244 C251 1.409 1_554 S
C245 H237 0.930 . S
C245 C243 1.419 . S
C245 C246 1.362 . S
C246 H238 0.930 . S
C246 C245 1.362 . S
C246 C249 1.409 1_554 S
C247 H239 0.930 . S
C247 C248 1.355 1_565 S
C247 C249 1.415 . S
C248 C247 1.355 1_545 S
C248 C250 1.419 . S
C249 C244 1.425 1_566 S
C249 C246 1.409 1_556 S
C249 C247 1.415 . S
C250 H240 0.930 . S
C250 C248 1.419 . S
C250 C251 1.362 . S
C251 H241 0.930 . S
C251 C244 1.409 1_556 S
C251 C250 1.362 . S
H252 C258 0.930 . S
H253 C261 0.930 . S
H254 C262 0.930 . S
H255 C263 0.930 . S
H256 C266 0.930 . S
H257 C267 0.930 . S
C258 H252 0.930 . S
C258 C259 1.355 . S
C258 C260 1.415 . S
C259 C258 1.355 . S
C259 C261 1.419 1_556 S
C260 C258 1.415 . S
C260 C265 1.425 1_556 S
C260 C267 1.409 . S
C261 H253 0.930 . S
C261 C259 1.419 1_554 S
C261 C262 1.362 . S
C262 H254 0.930 . S
C262 C261 1.362 . S
C262 C265 1.409 . S
C263 H255 0.930 . S
C263 C264 1.355 . S
C263 C265 1.415 . S
C264 C263 1.355 . S
C264 C266 1.419 1_554 S
C265 C260 1.425 1_554 S
C265 C262 1.409 . S
C265 C263 1.415 . S
C266 H256 0.930 . S
C266 C264 1.419 1_556 S
C266 C267 1.362 . S
C267 H257 0.930 . S
C267 C260 1.409 . S
C267 C266 1.362 . S
H268 C274 0.930 . S
H269 C277 0.930 . S
H270 C278 0.930 . S
H271 C279 0.930 . S
H272 C282 0.930 . S
H273 C283 0.930 . S
C274 H268 0.930 . S
C274 C275 1.355 . S
C274 C276 1.415 . S
C275 C274 1.355 . S
C275 C277 1.419 . S
C276 C274 1.415 . S
C276 C281 1.425 . S
C276 C283 1.409 . S
C277 H269 0.930 . S
C277 C275 1.419 . S
C277 C278 1.362 . S
C278 H270 0.930 . S
C278 C277 1.362 . S
C278 C281 1.409 . S
C279 H271 0.930 . S
C279 C280 1.355 . S
C279 C281 1.415 . S
C280 C279 1.355 . S
C280 C282 1.419 . S
C281 C276 1.425 . S
C281 C278 1.409 . S
C281 C279 1.415 . S
C282 H272 0.930 . S
C282 C280 1.419 . S
C282 C283 1.362 . S
C283 H273 0.930 . S
C283 C276 1.409 . S
C283 C282 1.362 . S
H284 C290 0.930 . S
H285 C293 0.930 . S
H286 C294 0.930 . S
H287 C295 0.930 . S
H288 C298 0.930 . S
H289 C299 0.930 . S
C290 H284 0.930 . S
C290 C291 1.355 . S
C290 C292 1.415 . S
C291 C290 1.355 . S
C291 C293 1.419 . S
C292 C290 1.415 . S
C292 C297 1.425 . S
C292 C299 1.409 . S
C293 H285 0.930 . S
C293 C291 1.419 . S
C293 C294 1.362 . S
C294 H286 0.930 . S
C294 C293 1.362 . S
C294 C297 1.409 . S
C295 H287 0.930 . S
C295 C296 1.355 . S
C295 C297 1.415 . S
C296 C295 1.355 . S
C296 C298 1.419 . S
C297 C292 1.425 . S
C297 C294 1.409 . S
C297 C295 1.415 . S
C298 H288 0.930 . S
C298 C296 1.419 . S
C298 C299 1.362 . S
C299 H289 0.930 . S
C299 C292 1.409 . S
C299 C298 1.362 . S
H300 C306 0.930 . S
H301 C309 0.930 . S
H302 C310 0.930 . S
H303 C311 0.930 . S
H304 C314 0.930 . S
H305 C315 0.930 . S
C306 H300 0.930 . S
C306 C307 1.355 . S
C306 C308 1.415 . S
C307 C306 1.355 . S
C307 C309 1.419 1_554 S
C308 C306 1.415 . S
C308 C313 1.425 1_554 S
C308 C315 1.409 . S
C309 H301 0.930 . S
C309 C307 1.419 1_556 S
C309 C310 1.362 . S
C310 H302 0.930 . S
C310 C309 1.362 . S
C310 C313 1.409 . S
C311 H303 0.930 . S
C311 C312 1.355 . S
C311 C313 1.415 . S
C312 C311 1.355 . S
C312 C314 1.419 1_556 S
C313 C308 1.425 1_556 S
C313 C310 1.409 . S
C313 C311 1.415 . S
C314 H304 0.930 . S
C314 C312 1.419 1_554 S
C314 C315 1.362 . S
C315 H305 0.930 . S
C315 C308 1.409 . S
C315 C314 1.362 . S
H316 C322 0.930 . S
H317 C325 0.930 . S
H318 C326 0.930 . S
H319 C327 0.930 . S
H320 C330 0.930 . S
H321 C331 0.930 . S
C322 H316 0.930 . S
C322 C323 1.355 . S
C322 C324 1.415 . S
C323 C322 1.355 . S
C323 C325 1.419 . S
C324 C322 1.415 . S
C324 C329 1.425 . S
C324 C331 1.409 . S
C325 H317 0.930 . S
C325 C323 1.419 . S
C325 C326 1.362 . S
C326 H318 0.930 . S
C326 C325 1.362 . S
C326 C329 1.409 . S
C327 H319 0.930 . S
C327 C328 1.355 . S
C327 C329 1.415 . S
C328 C327 1.355 . S
C328 C330 1.419 . S
C329 C324 1.425 . S
C329 C326 1.409 . S
C329 C327 1.415 . S
C330 H320 0.930 . S
C330 C328 1.419 . S
C330 C331 1.362 . S
C331 H321 0.930 . S
C331 C324 1.409 . S
C331 C330 1.362 . S
H332 C338 0.930 . S
H333 C341 0.930 . S
H334 C342 0.930 . S
H335 C343 0.930 . S
H336 C346 0.930 . S
H337 C347 0.930 . S
C338 H332 0.930 . S
C338 C339 1.355 . S
C338 C340 1.415 . S
C339 C338 1.355 . S
C339 C341 1.419 . S
C340 C338 1.415 . S
C340 C345 1.425 . S
C340 C347 1.409 . S
C341 H333 0.930 . S
C341 C339 1.419 . S
C341 C342 1.362 . S
C342 H334 0.930 . S
C342 C341 1.362 . S
C342 C345 1.409 . S
C343 H335 0.930 . S
C343 C344 1.355 . S
C343 C345 1.415 . S
C344 C343 1.355 . S
C344 C346 1.419 . S
C345 C340 1.425 . S
C345 C342 1.409 . S
C345 C343 1.415 . S
C346 H336 0.930 . S
C346 C344 1.419 . S
C346 C347 1.362 . S
C347 H337 0.930 . S
C347 C340 1.409 . S
C347 C346 1.362 . S
H348 C354 0.930 . S
H349 C357 0.930 . S
H350 C358 0.930 . S
H351 C359 0.930 . S
H352 C362 0.930 . S
H353 C363 0.930 . S
C354 H348 0.930 . S
C354 C355 1.355 . S
C354 C356 1.415 . S
C355 C354 1.355 . S
C355 C357 1.419 . S
C356 C354 1.415 . S
C356 C361 1.425 . S
C356 C363 1.409 . S
C357 H349 0.930 . S
C357 C355 1.419 . S
C357 C358 1.362 . S
C358 H350 0.930 . S
C358 C357 1.362 . S
C358 C361 1.409 . S
C359 H351 0.930 . S
C359 C360 1.355 . S
C359 C361 1.415 . S
C360 C359 1.355 . S
C360 C362 1.419 . S
C361 C356 1.425 . S
C361 C358 1.409 . S
C361 C359 1.415 . S
C362 H352 0.930 . S
C362 C360 1.419 . S
C362 C363 1.362 . S
C363 H353 0.930 . S
C363 C356 1.409 . S
C363 C362 1.362 . S
H364 C370 0.930 . S
H365 C373 0.930 . S
H366 C374 0.930 . S
H367 C375 0.930 . S
H368 C378 0.930 . S
H369 C379 0.930 . S
C370 H364 0.930 . S
C370 C371 1.355 1_455 S
C370 C372 1.415 . S
C371 C370 1.355 1_655 S
C371 C373 1.419 . S
C372 C370 1.415 . S
C372 C377 1.425 1_455 S
C372 C379 1.409 . S
C373 H365 0.930 . S
C373 C371 1.419 . S
C373 C374 1.362 . S
C374 H366 0.930 . S
C374 C373 1.362 . S
C374 C377 1.409 . S
C375 H367 0.930 . S
C375 C376 1.355 1_655 S
C375 C377 1.415 . S
C376 C375 1.355 1_455 S
C376 C378 1.419 . S
C377 C372 1.425 1_655 S
C377 C374 1.409 . S
C377 C375 1.415 . S
C378 H368 0.930 . S
C378 C376 1.419 . S
C378 C379 1.362 . S
C379 H369 0.930 . S
C379 C372 1.409 . S
C379 C378 1.362 . S
H380 C386 0.930 . S
H381 C389 0.930 . S
H382 C390 0.930 . S
H383 C391 0.930 . S
H384 C394 0.930 . S
H385 C395 0.930 . S
C386 H380 0.930 . S
C386 C387 1.355 . S
C386 C388 1.415 . S
C387 C386 1.355 . S
C387 C389 1.419 1_565 S
C388 C386 1.415 . S
C388 C393 1.425 1_565 S
C388 C395 1.409 . S
C389 H381 0.930 . S
C389 C387 1.419 1_545 S
C389 C390 1.362 . S
C390 H382 0.930 . S
C390 C389 1.362 . S
C390 C393 1.409 . S
C391 H383 0.930 . S
C391 C392 1.355 . S
C391 C393 1.415 . S
C392 C391 1.355 . S
C392 C394 1.419 1_545 S
C393 C388 1.425 1_545 S
C393 C390 1.409 . S
C393 C391 1.415 . S
C394 H384 0.930 . S
C394 C392 1.419 1_565 S
C394 C395 1.362 . S
C395 H385 0.930 . S
C395 C388 1.409 . S
C395 C394 1.362 . S
H396 C402 0.930 . S
H397 C405 0.930 . S
H398 C406 0.930 . S
H399 C407 0.930 . S
H400 C410 0.930 . S
H401 C411 0.930 . S
C402 H396 0.930 . S
C402 C403 1.355 . S
C402 C404 1.415 . S
C403 C402 1.355 . S
C403 C405 1.419 . S
C404 C402 1.415 . S
C404 C409 1.425 . S
C404 C411 1.409 . S
C405 H397 0.930 . S
C405 C403 1.419 . S
C405 C406 1.362 . S
C406 H398 0.930 . S
C406 C405 1.362 . S
C406 C409 1.409 . S
C407 H399 0.930 . S
C407 C408 1.355 . S
C407 C409 1.415 . S
C408 C407 1.355 . S
C408 C410 1.419 . S
C409 C404 1.425 . S
C409 C406 1.409 . S
C409 C407 1.415 . S
C410 H400 0.930 . S
C410 C408 1.419 . S
C410 C411 1.362 . S
C411 H401 0.930 . S
C411 C404 1.409 . S
C411 C410 1.362 . S
H412 C418 0.930 . S
H413 C421 0.930 . S
H414 C422 0.930 . S
H415 C423 0.930 . S
H416 C426 0.930 . S
H417 C427 0.930 . S
C418 H412 0.930 . S
C418 C419 1.355 1_655 S
C418 C420 1.415 . S
C419 C418 1.355 1_455 S
C419 C421 1.419 . S
C420 C418 1.415 . S
C420 C425 1.425 1_655 S
C420 C427 1.409 . S
C421 H413 0.930 . S
C421 C419 1.419 . S
C421 C422 1.362 . S
C422 H414 0.930 . S
C422 C421 1.362 . S
C422 C425 1.409 . S
C423 H415 0.930 . S
C423 C424 1.355 1_455 S
C423 C425 1.415 . S
C424 C423 1.355 1_655 S
C424 C426 1.419 . S
C425 C420 1.425 1_455 S
C425 C422 1.409 . S
C425 C423 1.415 . S
C426 H416 0.930 . S
C426 C424 1.419 . S
C426 C427 1.362 . S
C427 H417 0.930 . S
C427 C420 1.409 . S
C427 C426 1.362 . S
H428 C434 0.930 . S
H429 C437 0.930 . S
H430 C438 0.930 . S
H431 C439 0.930 . S
H432 C442 0.930 . S
H433 C443 0.930 . S
C434 H428 0.930 . S
C434 C435 1.347 1_565 S
C434 C436 1.415 . S
C435 C434 1.347 1_545 S
C435 C437 1.429 . S
C436 C434 1.415 . S
C436 C441 1.425 1_565 S
C436 C443 1.409 . S
C437 H429 0.930 . S
C437 C435 1.429 . S
C437 C438 1.362 . S
C438 H430 0.930 . S
C438 C437 1.362 . S
C438 C441 1.409 . S
C439 H431 0.930 . S
C439 C440 1.348 1_545 S
C439 C441 1.415 . S
C440 C439 1.348 1_565 S
C440 C442 1.428 . S
C441 C436 1.425 1_545 S
C441 C438 1.409 . S
C441 C439 1.415 . S
C442 H432 0.930 . S
C442 C440 1.428 . S
C442 C443 1.362 . S
C443 H433 0.930 . S
C443 C436 1.409 . S
C443 C442 1.362 . S
H444 C450 0.930 . S
H445 C453 0.930 . S
H446 C454 0.930 . S
H447 C455 0.930 . S
H448 C458 0.930 . S
H449 C459 0.930 . S
C450 H444 0.930 . S
C450 C451 1.355 . S
C450 C452 1.415 . S
C451 C450 1.355 . S
C451 C453 1.419 . S
C452 C450 1.415 . S
C452 C457 1.425 . S
C452 C459 1.409 . S
C453 H445 0.930 . S
C453 C451 1.419 . S
C453 C454 1.362 . S
C454 H446 0.930 . S
C454 C453 1.362 . S
C454 C457 1.409 . S
C455 H447 0.930 . S
C455 C456 1.355 . S
C455 C457 1.415 . S
C456 C455 1.355 . S
C456 C458 1.419 . S
C457 C452 1.425 . S
C457 C454 1.409 . S
C457 C455 1.415 . S
C458 H448 0.930 . S
C458 C456 1.419 . S
C458 C459 1.362 . S
C459 H449 0.930 . S
C459 C452 1.409 . S
C459 C458 1.362 . S
H460 C466 0.930 . S
H461 C469 0.930 . S
H462 C470 0.930 . S
H463 C471 0.930 . S
H464 C474 0.930 . S
H465 C475 0.930 . S
C466 H460 0.930 . S
C466 C467 1.355 . S
C466 C468 1.415 . S
C467 C466 1.355 . S
C467 C469 1.419 1_455 S
C468 C466 1.415 . S
C468 C473 1.425 1_455 S
C468 C475 1.409 . S
C469 H461 0.930 . S
C469 C467 1.419 1_655 S
C469 C470 1.362 . S
C470 H462 0.930 . S
C470 C469 1.362 . S
C470 C473 1.409 . S
C471 H463 0.930 . S
C471 C472 1.355 . S
C471 C473 1.415 . S
C472 C471 1.355 . S
C472 C474 1.419 1_655 S
C473 C468 1.425 1_655 S
C473 C470 1.409 . S
C473 C471 1.415 . S
C474 H464 0.930 . S
C474 C472 1.419 1_455 S
C474 C475 1.362 . S
C475 H465 0.930 . S
C475 C468 1.409 . S
C475 C474 1.362 . S
H476 C482 0.930 . S
H477 C485 0.930 . S
H478 C486 0.930 . S
H479 C487 0.930 . S
H480 C490 0.930 . S
H481 C491 0.930 . S
C482 H476 0.930 . S
C482 C483 1.355 1_545 S
C482 C484 1.415 . S
C483 C482 1.355 1_565 S
C483 C485 1.419 . S
C484 C482 1.415 . S
C484 C489 1.425 1_545 S
C484 C491 1.409 . S
C485 H477 0.930 . S
C485 C483 1.419 . S
C485 C486 1.362 . S
C486 H478 0.930 . S
C486 C485 1.362 . S
C486 C489 1.409 . S
C487 H479 0.930 . S
C487 C488 1.355 1_565 S
C487 C489 1.415 . S
C488 C487 1.355 1_545 S
C488 C490 1.419 . S
C489 C484 1.425 1_565 S
C489 C486 1.409 . S
C489 C487 1.415 . S
C490 H480 0.930 . S
C490 C488 1.419 . S
C490 C491 1.362 . S
C491 H481 0.930 . S
C491 C484 1.409 . S
C491 C490 1.362 . S
H492 C498 0.930 . S
H493 C501 0.930 . S
H494 C502 0.930 . S
H495 C503 0.930 . S
H496 C506 0.930 . S
H497 C507 0.930 . S
C498 H492 0.930 . S
C498 C499 1.355 . S
C498 C500 1.415 . S
C499 C498 1.355 . S
C499 C501 1.419 . S
C500 C498 1.415 . S
C500 C505 1.425 . S
C500 C507 1.409 . S
C501 H493 0.930 . S
C501 C499 1.419 . S
C501 C502 1.362 . S
C502 H494 0.930 . S
C502 C501 1.362 . S
C502 C505 1.409 . S
C503 H495 0.930 . S
C503 C504 1.355 . S
C503 C505 1.415 . S
C504 C503 1.355 . S
C504 C506 1.419 . S
C505 C500 1.425 . S
C505 C502 1.409 . S
C505 C503 1.415 . S
C506 H496 0.930 . S
C506 C504 1.419 . S
C506 C507 1.362 . S
C507 H497 0.930 . S
C507 C500 1.409 . S
C507 C506 1.362 . S
H508 C514 0.930 . S
H509 C517 0.930 . S
H510 C518 0.930 . S
H511 C519 0.930 . S
H512 C522 0.930 . S
H513 C523 0.930 . S
C514 H508 0.930 . S
C514 C515 1.355 1_455 S
C514 C516 1.415 . S
C515 C514 1.355 1_655 S
C515 C517 1.419 . S
C516 C514 1.415 . S
C516 C521 1.425 1_455 S
C516 C523 1.409 . S
C517 H509 0.930 . S
C517 C515 1.419 . S
C517 C518 1.362 . S
C518 H510 0.930 . S
C518 C517 1.362 . S
C518 C521 1.409 . S
C519 H511 0.930 . S
C519 C520 1.355 1_655 S
C519 C521 1.415 . S
C520 C519 1.355 1_455 S
C520 C522 1.419 . S
C521 C516 1.425 1_655 S
C521 C518 1.409 . S
C521 C519 1.415 . S
C522 H512 0.930 . S
C522 C520 1.419 . S
C522 C523 1.362 . S
C523 H513 0.930 . S
C523 C516 1.409 . S
C523 C522 1.362 . S
H524 C530 0.930 . S
H525 C533 0.930 . S
H526 C534 0.930 . S
H527 C535 0.930 . S
H528 C538 0.930 . S
H529 C539 0.930 . S
C530 H524 0.930 . S
C530 C531 1.355 1_565 S
C530 C532 1.415 . S
C531 C530 1.355 1_545 S
C531 C533 1.419 . S
C532 C530 1.415 . S
C532 C537 1.425 1_565 S
C532 C539 1.409 . S
C533 H525 0.930 . S
C533 C531 1.419 . S
C533 C534 1.362 . S
C534 H526 0.930 . S
C534 C533 1.362 . S
C534 C537 1.409 . S
C535 H527 0.930 . S
C535 C536 1.355 1_545 S
C535 C537 1.415 . S
C536 C535 1.355 1_565 S
C536 C538 1.419 . S
C537 C532 1.425 1_545 S
C537 C534 1.409 . S
C537 C535 1.415 . S
C538 H528 0.930 . S
C538 C536 1.419 . S
C538 C539 1.362 . S
C539 H529 0.930 . S
C539 C532 1.409 . S
C539 C538 1.362 . S
C163 C5 1.432 . S
C168 C122 1.405 . S
C179 C16 1.434 . S
C184 C133 1.443 . S
C195 C31 1.405 . S
C200 C148 1.410 . S
C211 C42 1.439 . S
C216 C83 1.411 . S
C227 C96 1.434 . S
C232 C57 1.443 . S
C243 C109 1.412 . S
C248 C68 1.404 . S
C259 C134 1.584 . S
C264 C10 1.584 . S
C275 C17 1.592 . S
C280 C153 1.599 . S
C291 C36 1.584 . S
C296 C88 1.584 . S
C307 C43 1.587 . S
C312 C101 1.584 . S
C323 C62 1.604 . S
C328 C114 1.610 . S
C339 C69 1.584 . S
C344 C127 1.584 . S
C355 C121 1.195 . S
C360 C4 1.160 . S
C371 C23 1.134 . S
C376 C140 1.148 . S
C387 C30 1.185 . S
C392 C147 1.148 . S
C403 C82 1.194 . S
C408 C49 1.202 . S
C419 C56 1.135 . S
C424 C95 1.143 . S
C435 C108 1.200 1_545 S
C440 C75 1.179 1_565 S
C451 C3 1.599 . S
C456 C44 1.592 . S
C467 C55 1.586 . S
C472 C18 1.602 . S
C483 C29 1.599 . S
C488 C70 1.593 . S
C499 C81 1.602 . S
C504 C120 1.586 . S
C515 C94 1.595 . S
C520 C135 1.597 . S
C531 C146 1.602 . S
C536 C107 1.589 . S
