# Generated by pormake.
# Topology wlt, (5)-cn, num edge types: 1
# Building blocks:
#     Node 0, Type 0, BuildingBlock: BEQFEK_clean_sbu_0, # of connection points: 5
#     Node 1, Type 0, BuildingBlock: BEQFEK_clean_sbu_0, # of connection points: 5
#     Node 2, Type 0, BuildingBlock: BEQFEK_clean_sbu_0, # of connection points: 5
#     Node 3, Type 0, BuildingBlock: BEQFEK_clean_sbu_0, # of connection points: 5
#     Node 4, Type 0, BuildingBlock: BEQFEK_clean_sbu_0, # of connection points: 5
#     Node 5, Type 0, BuildingBlock: BEQFEK_clean_sbu_0, # of connection points: 5
#     Node 6, Type 0, BuildingBlock: BEQFEK_clean_sbu_0, # of connection points: 5
#     Node 7, Type 0, BuildingBlock: BEQFEK_clean_sbu_0, # of connection points: 5
#     Node 8, Type 0, BuildingBlock: BEQFEK_clean_sbu_0, # of connection points: 5
#     Node 9, Type 0, BuildingBlock: BEQFEK_clean_sbu_0, # of connection points: 5
#     Node 10, Type 0, BuildingBlock: BEQFEK_clean_sbu_0, # of connection points: 5
#     Node 11, Type 0, BuildingBlock: BEQFEK_clean_sbu_0, # of connection points: 5
#     Node 12, Type 0, BuildingBlock: BEQFEK_clean_sbu_0, # of connection points: 5
#     Node 13, Type 0, BuildingBlock: BEQFEK_clean_sbu_0, # of connection points: 5
#     Node 14, Type 0, BuildingBlock: BEQFEK_clean_sbu_0, # of connection points: 5
#     Node 15, Type 0, BuildingBlock: BEQFEK_clean_sbu_0, # of connection points: 5
#     Node 16, Type 0, BuildingBlock: BEQFEK_clean_sbu_0, # of connection points: 5
#     Node 17, Type 0, BuildingBlock: BEQFEK_clean_sbu_0, # of connection points: 5
#     Node 18, Type 0, BuildingBlock: BEQFEK_clean_sbu_0, # of connection points: 5
#     Node 19, Type 0, BuildingBlock: BEQFEK_clean_sbu_0, # of connection points: 5
#     Node 20, Type 0, BuildingBlock: BEQFEK_clean_sbu_0, # of connection points: 5
#     Node 21, Type 0, BuildingBlock: BEQFEK_clean_sbu_0, # of connection points: 5
#     Node 22, Type 0, BuildingBlock: BEQFEK_clean_sbu_0, # of connection points: 5
#     Node 23, Type 0, BuildingBlock: BEQFEK_clean_sbu_0, # of connection points: 5
#     Node 24, Type 0, BuildingBlock: BEQFEK_clean_sbu_0, # of connection points: 5
#     Node 25, Type 0, BuildingBlock: BEQFEK_clean_sbu_0, # of connection points: 5
#     Node 26, Type 0, BuildingBlock: BEQFEK_clean_sbu_0, # of connection points: 5
#     Node 27, Type 0, BuildingBlock: BEQFEK_clean_sbu_0, # of connection points: 5
#     Node 28, Type 0, BuildingBlock: BEQFEK_clean_sbu_0, # of connection points: 5
#     Node 29, Type 0, BuildingBlock: BEQFEK_clean_sbu_0, # of connection points: 5
#     Node 30, Type 0, BuildingBlock: BEQFEK_clean_sbu_0, # of connection points: 5
#     Node 31, Type 0, BuildingBlock: BEQFEK_clean_sbu_0, # of connection points: 5
#     Node 32, Type 0, BuildingBlock: BEQFEK_clean_sbu_0, # of connection points: 5
#     Node 33, Type 0, BuildingBlock: BEQFEK_clean_sbu_0, # of connection points: 5
#     Node 34, Type 0, BuildingBlock: BEQFEK_clean_sbu_0, # of connection points: 5
#     Node 35, Type 0, BuildingBlock: BEQFEK_clean_sbu_0, # of connection points: 5
#     Edge 36, Type (0, 0), BuildingBlock: CIFDUS_clean_linker_0, # of connection points: 2
#     Edge 37, Type (0, 0), BuildingBlock: CIFDUS_clean_linker_0, # of connection points: 2
#     Edge 38, Type (0, 0), BuildingBlock: CIFDUS_clean_linker_0, # of connection points: 2
#     Edge 39, Type (0, 0), BuildingBlock: CIFDUS_clean_linker_0, # of connection points: 2
#     Edge 40, Type (0, 0), BuildingBlock: CIFDUS_clean_linker_0, # of connection points: 2
#     Edge 41, Type (0, 0), BuildingBlock: CIFDUS_clean_linker_0, # of connection points: 2
#     Edge 42, Type (0, 0), BuildingBlock: CIFDUS_clean_linker_0, # of connection points: 2
#     Edge 43, Type (0, 0), BuildingBlock: CIFDUS_clean_linker_0, # of connection points: 2
#     Edge 44, Type (0, 0), BuildingBlock: CIFDUS_clean_linker_0, # of connection points: 2
#     Edge 45, Type (0, 0), BuildingBlock: CIFDUS_clean_linker_0, # of connection points: 2
#     Edge 46, Type (0, 0), BuildingBlock: CIFDUS_clean_linker_0, # of connection points: 2
#     Edge 47, Type (0, 0), BuildingBlock: CIFDUS_clean_linker_0, # of connection points: 2
#     Edge 48, Type (0, 0), BuildingBlock: CIFDUS_clean_linker_0, # of connection points: 2
#     Edge 49, Type (0, 0), BuildingBlock: CIFDUS_clean_linker_0, # of connection points: 2
#     Edge 50, Type (0, 0), BuildingBlock: CIFDUS_clean_linker_0, # of connection points: 2
#     Edge 51, Type (0, 0), BuildingBlock: CIFDUS_clean_linker_0, # of connection points: 2
#     Edge 52, Type (0, 0), BuildingBlock: CIFDUS_clean_linker_0, # of connection points: 2
#     Edge 53, Type (0, 0), BuildingBlock: CIFDUS_clean_linker_0, # of connection points: 2
#     Edge 54, Type (0, 0), BuildingBlock: CIFDUS_clean_linker_0, # of connection points: 2
#     Edge 55, Type (0, 0), BuildingBlock: CIFDUS_clean_linker_0, # of connection points: 2
#     Edge 56, Type (0, 0), BuildingBlock: CIFDUS_clean_linker_0, # of connection points: 2
#     Edge 57, Type (0, 0), BuildingBlock: CIFDUS_clean_linker_0, # of connection points: 2
#     Edge 58, Type (0, 0), BuildingBlock: CIFDUS_clean_linker_0, # of connection points: 2
#     Edge 59, Type (0, 0), BuildingBlock: CIFDUS_clean_linker_0, # of connection points: 2
#     Edge 60, Type (0, 0), BuildingBlock: CIFDUS_clean_linker_0, # of connection points: 2
#     Edge 61, Type (0, 0), BuildingBlock: CIFDUS_clean_linker_0, # of connection points: 2
#     Edge 62, Type (0, 0), BuildingBlock: CIFDUS_clean_linker_0, # of connection points: 2
#     Edge 63, Type (0, 0), BuildingBlock: CIFDUS_clean_linker_0, # of connection points: 2
#     Edge 64, Type (0, 0), BuildingBlock: CIFDUS_clean_linker_0, # of connection points: 2
#     Edge 65, Type (0, 0), BuildingBlock: CIFDUS_clean_linker_0, # of connection points: 2
#     Edge 66, Type (0, 0), BuildingBlock: CIFDUS_clean_linker_0, # of connection points: 2
#     Edge 67, Type (0, 0), BuildingBlock: CIFDUS_clean_linker_0, # of connection points: 2
#     Edge 68, Type (0, 0), BuildingBlock: CIFDUS_clean_linker_0, # of connection points: 2
#     Edge 69, Type (0, 0), BuildingBlock: CIFDUS_clean_linker_0, # of connection points: 2
#     Edge 70, Type (0, 0), BuildingBlock: CIFDUS_clean_linker_0, # of connection points: 2
#     Edge 71, Type (0, 0), BuildingBlock: CIFDUS_clean_linker_0, # of connection points: 2
#     Edge 72, Type (0, 0), BuildingBlock: CIFDUS_clean_linker_0, # of connection points: 2
#     Edge 73, Type (0, 0), BuildingBlock: CIFDUS_clean_linker_0, # of connection points: 2
#     Edge 74, Type (0, 0), BuildingBlock: CIFDUS_clean_linker_0, # of connection points: 2
#     Edge 75, Type (0, 0), BuildingBlock: CIFDUS_clean_linker_0, # of connection points: 2
#     Edge 76, Type (0, 0), BuildingBlock: CIFDUS_clean_linker_0, # of connection points: 2
#     Edge 77, Type (0, 0), BuildingBlock: CIFDUS_clean_linker_0, # of connection points: 2
#     Edge 78, Type (0, 0), BuildingBlock: CIFDUS_clean_linker_0, # of connection points: 2
#     Edge 79, Type (0, 0), BuildingBlock: CIFDUS_clean_linker_0, # of connection points: 2
#     Edge 80, Type (0, 0), BuildingBlock: CIFDUS_clean_linker_0, # of connection points: 2
#     Edge 81, Type (0, 0), BuildingBlock: CIFDUS_clean_linker_0, # of connection points: 2
#     Edge 82, Type (0, 0), BuildingBlock: CIFDUS_clean_linker_0, # of connection points: 2
#     Edge 83, Type (0, 0), BuildingBlock: CIFDUS_clean_linker_0, # of connection points: 2
#     Edge 84, Type (0, 0), BuildingBlock: CIFDUS_clean_linker_0, # of connection points: 2
#     Edge 85, Type (0, 0), BuildingBlock: CIFDUS_clean_linker_0, # of connection points: 2
#     Edge 86, Type (0, 0), BuildingBlock: CIFDUS_clean_linker_0, # of connection points: 2
#     Edge 87, Type (0, 0), BuildingBlock: CIFDUS_clean_linker_0, # of connection points: 2
#     Edge 88, Type (0, 0), BuildingBlock: CIFDUS_clean_linker_0, # of connection points: 2
#     Edge 89, Type (0, 0), BuildingBlock: CIFDUS_clean_linker_0, # of connection points: 2
#     Edge 90, Type (0, 0), BuildingBlock: CIFDUS_clean_linker_0, # of connection points: 2
#     Edge 91, Type (0, 0), BuildingBlock: CIFDUS_clean_linker_0, # of connection points: 2
#     Edge 92, Type (0, 0), BuildingBlock: CIFDUS_clean_linker_0, # of connection points: 2
#     Edge 93, Type (0, 0), BuildingBlock: CIFDUS_clean_linker_0, # of connection points: 2
#     Edge 94, Type (0, 0), BuildingBlock: CIFDUS_clean_linker_0, # of connection points: 2
#     Edge 95, Type (0, 0), BuildingBlock: CIFDUS_clean_linker_0, # of connection points: 2
#     Edge 96, Type (0, 0), BuildingBlock: CIFDUS_clean_linker_0, # of connection points: 2
#     Edge 97, Type (0, 0), BuildingBlock: CIFDUS_clean_linker_0, # of connection points: 2
#     Edge 98, Type (0, 0), BuildingBlock: CIFDUS_clean_linker_0, # of connection points: 2
#     Edge 99, Type (0, 0), BuildingBlock: CIFDUS_clean_linker_0, # of connection points: 2
#     Edge 100, Type (0, 0), BuildingBlock: CIFDUS_clean_linker_0, # of connection points: 2
#     Edge 101, Type (0, 0), BuildingBlock: CIFDUS_clean_linker_0, # of connection points: 2
#     Edge 102, Type (0, 0), BuildingBlock: CIFDUS_clean_linker_0, # of connection points: 2
#     Edge 103, Type (0, 0), BuildingBlock: CIFDUS_clean_linker_0, # of connection points: 2
#     Edge 104, Type (0, 0), BuildingBlock: CIFDUS_clean_linker_0, # of connection points: 2
#     Edge 105, Type (0, 0), BuildingBlock: CIFDUS_clean_linker_0, # of connection points: 2
#     Edge 106, Type (0, 0), BuildingBlock: CIFDUS_clean_linker_0, # of connection points: 2
#     Edge 107, Type (0, 0), BuildingBlock: CIFDUS_clean_linker_0, # of connection points: 2
#     Edge 108, Type (0, 0), BuildingBlock: CIFDUS_clean_linker_0, # of connection points: 2
#     Edge 109, Type (0, 0), BuildingBlock: CIFDUS_clean_linker_0, # of connection points: 2
#     Edge 110, Type (0, 0), BuildingBlock: CIFDUS_clean_linker_0, # of connection points: 2
#     Edge 111, Type (0, 0), BuildingBlock: CIFDUS_clean_linker_0, # of connection points: 2
#     Edge 112, Type (0, 0), BuildingBlock: CIFDUS_clean_linker_0, # of connection points: 2
#     Edge 113, Type (0, 0), BuildingBlock: CIFDUS_clean_linker_0, # of connection points: 2
#     Edge 114, Type (0, 0), BuildingBlock: CIFDUS_clean_linker_0, # of connection points: 2
#     Edge 115, Type (0, 0), BuildingBlock: CIFDUS_clean_linker_0, # of connection points: 2
#     Edge 116, Type (0, 0), BuildingBlock: CIFDUS_clean_linker_0, # of connection points: 2
#     Edge 117, Type (0, 0), BuildingBlock: CIFDUS_clean_linker_0, # of connection points: 2
#     Edge 118, Type (0, 0), BuildingBlock: CIFDUS_clean_linker_0, # of connection points: 2
#     Edge 119, Type (0, 0), BuildingBlock: CIFDUS_clean_linker_0, # of connection points: 2
#     Edge 120, Type (0, 0), BuildingBlock: CIFDUS_clean_linker_0, # of connection points: 2
#     Edge 121, Type (0, 0), BuildingBlock: CIFDUS_clean_linker_0, # of connection points: 2
#     Edge 122, Type (0, 0), BuildingBlock: CIFDUS_clean_linker_0, # of connection points: 2
#     Edge 123, Type (0, 0), BuildingBlock: CIFDUS_clean_linker_0, # of connection points: 2
#     Edge 124, Type (0, 0), BuildingBlock: CIFDUS_clean_linker_0, # of connection points: 2
#     Edge 125, Type (0, 0), BuildingBlock: CIFDUS_clean_linker_0, # of connection points: 2
# Relax obj value: 0.133
# Max RMSD: 0.162
# Mean RMSD: 0.162
data_MOF--net-wlt--node1-BEQFEK_clean_sbu_0--edge1-CIFDUS_clean_linker_0
_symmetry_space_group_name_H-M    P1
_symmetry_Int_Tables_number       1
_symmetry_cell_setting            triclinic
loop_
_symmetry_equiv_pos_as_xyz
'x, y, z'
_cell_length_a     61.854627
_cell_length_b     61.843162
_cell_length_c     44.583184
_cell_angle_alpha  90.045831
_cell_angle_beta   90.028828
_cell_angle_gamma 119.90065
loop_
_atom_site_label
_atom_site_type_symbol
_atom_site_fract_x
_atom_site_fract_y
_atom_site_fract_z
_atom_type_partial_charge
Co0 Co 0.26757 0.21914 0.12696 0.0
Co1 Co 0.22363 0.22139 0.0939 0.0
C2 C 0.27537 0.26603 0.09666 0.0
O3 O 0.2842 0.25428 0.11113 0.0
O4 O 0.25246 0.25541 0.08883 0.0
C5 C 0.31118 0.21251 0.13885 0.0
O6 O 0.32029 0.22219 0.11246 0.0
C7 C 0.19022 0.22709 0.04945 0.0
C8 C 0.15379 0.19767 0.0666 0.0
C9 C 0.1646 0.2157 0.04458 0.0
N10 N 0.1942 0.21604 0.0732 0.0
N11 N 0.1723 0.19852 0.08322 0.0
C12 C 0.21041 0.24871 0.03277 0.0
H13 H 0.22654 0.25989 0.04765 0.0
H14 H 0.21681 0.24157 0.01392 0.0
H15 H 0.20345 0.26076 0.02348 0.0
C16 C 0.25258 0.17705 0.08408 0.0
N17 N 0.25004 0.19567 0.0961 0.0
N18 N 0.23245 0.19736 0.08145 0.0
C19 C 0.22396 0.18053 0.05895 0.0
C20 C 0.23647 0.16713 0.05991 0.0
C21 C 0.26867 0.16752 0.09672 0.0
H22 H 0.28798 0.17915 0.08834 0.0
H23 H 0.26189 0.14794 0.08975 0.0
H24 H 0.26865 0.1683 0.12153 0.0
O25 O 0.24445 0.21525 0.15919 0.0
O26 O 0.2136 0.21723 0.13665 0.0
H27 H 0.18677 0.16985 0.0456 0.0
H28 H 0.20553 0.16779 0.01589 0.0
C29 C 0.20572 0.17878 0.03566 0.0
H30 H 0.21065 0.19776 0.02813 0.0
H31 H 0.17 0.18711 0.10158 0.0
O32 O 0.29094 0.21093 0.14764 0.0
C33 C 0.22373 0.21479 0.16019 0.0
Co34 Co 0.79099 0.05525 0.12533 0.0
Co35 Co 0.78746 0.0041 0.10817 0.0
C36 C 0.74241 0.01109 0.10559 0.0
O37 O 0.75487 0.03406 0.11339 0.0
O38 O 0.75282 0.99778 0.10306 0.0
C39 C 0.79703 0.10664 0.12402 0.0
O40 O 0.78244 0.101 0.10044 0.0
C41 C 0.7801 0.95894 0.07434 0.0
C42 C 0.80576 0.95065 0.09988 0.0
C43 C 0.78932 0.94254 0.07597 0.0
N44 N 0.79088 0.97613 0.09622 0.0
N45 N 0.80614 0.97095 0.11133 0.0
C46 C 0.76067 0.95765 0.05323 0.0
H47 H 0.75142 0.96754 0.06265 0.0
H48 H 0.76962 0.96671 0.03175 0.0
H49 H 0.7466 0.93792 0.04843 0.0
C50 C 0.83158 0.07348 0.08026 0.0
N51 N 0.81266 0.05487 0.0955 0.0
N52 N 0.81054 0.03345 0.08727 0.0
C53 C 0.82753 0.03769 0.06576 0.0
C54 C 0.84148 0.06324 0.06062 0.0
C55 C 0.84166 0.10061 0.08678 0.0
H56 H 0.84242 0.10362 0.11134 0.0
H57 H 0.82915 0.10666 0.0767 0.0
H58 H 0.86073 0.1123 0.0777 0.0
O59 O 0.79725 0.04337 0.16326 0.0
O60 O 0.79558 0.00782 0.15152 0.0
H61 H 0.83767 0.00933 0.06509 0.0
H62 H 0.84119 0.02453 0.02926 0.0
C63 C 0.82955 0.01751 0.04973 0.0
H64 H 0.81072 0.00262 0.04307 0.0
H65 H 0.81689 0.98133 0.12957 0.0
O66 O 0.80099 0.0902 0.13565 0.0
C67 C 0.79902 0.02451 0.17062 0.0
Co68 Co 0.95435 0.73305 0.11893 0.0
Co69 Co 0.00259 0.78158 0.09991 0.0
C70 C 0.99778 0.72996 0.09624 0.0
O71 O 0.97521 0.71892 0.10529 0.0
O72 O 0.01031 0.75372 0.09364 0.0
C73 C 0.90468 0.68622 0.12716 0.0
O74 O 0.90701 0.67494 0.10343 0.0
C75 C 0.04427 0.81566 0.06052 0.0
C76 C 0.0524 0.85236 0.0782 0.0
C77 C 0.0595 0.84117 0.05643 0.0
N78 N 0.02885 0.81199 0.08365 0.0
N79 N 0.03399 0.83402 0.09425 0.0
C80 C 0.0432 0.79511 0.04172 0.0
H81 H 0.02377 0.77928 0.04065 0.0
H82 H 0.05022 0.80177 0.01873 0.0
H83 H 0.05499 0.78834 0.05224 0.0
C84 C 0.9315 0.75056 0.07377 0.0
N85 N 0.95135 0.75298 0.08911 0.0
N86 N 0.97141 0.7738 0.08118 0.0
C87 C 0.96481 0.78539 0.06042 0.0
C88 C 0.93922 0.77107 0.05512 0.0
C89 C 0.90598 0.72813 0.07568 0.0
H90 H 0.89806 0.72739 0.09823 0.0
H91 H 0.90743 0.71113 0.07267 0.0
H92 H 0.89321 0.72821 0.05829 0.0
O93 O 0.96789 0.75252 0.15556 0.0
O94 O 0.00197 0.78772 0.14399 0.0
H95 H 0.99199 0.82392 0.06538 0.0
H96 H 0.97281 0.81727 0.0325 0.0
C97 C 0.98248 0.81025 0.0471 0.0
H98 H 0.99689 0.80876 0.03391 0.0
H99 H 0.0246 0.83653 0.11216 0.0
O100 O 0.92159 0.70807 0.13396 0.0
C101 C 0.986 0.77349 0.1632 0.0
Co102 Co 0.21371 0.26393 0.37239 0.0
Co103 Co 0.21069 0.21493 0.39811 0.0
C104 C 0.25897 0.26413 0.39683 0.0
O105 O 0.24924 0.27656 0.38614 0.0
O106 O 0.24584 0.24083 0.40203 0.0
C107 C 0.21446 0.31248 0.36625 0.0
O108 O 0.23085 0.32186 0.38811 0.0
C109 C 0.21798 0.18123 0.43858 0.0
C110 C 0.18567 0.14473 0.42637 0.0
C111 C 0.20623 0.15593 0.44516 0.0
N112 N 0.20494 0.18474 0.41685 0.0
N113 N 0.18576 0.16282 0.40956 0.0
C114 C 0.24001 0.20194 0.45416 0.0
H115 H 0.23825 0.21893 0.45475 0.0
H116 H 0.24179 0.19654 0.47737 0.0
H117 H 0.25717 0.20631 0.44154 0.0
C118 C 0.17223 0.24891 0.41593 0.0
N119 N 0.19024 0.24583 0.40304 0.0
N120 N 0.18971 0.226 0.41461 0.0
C121 C 0.172 0.21638 0.43597 0.0
C122 C 0.16015 0.23041 0.43733 0.0
C123 C 0.16505 0.26753 0.40569 0.0
H124 H 0.16425 0.26754 0.38087 0.0
H125 H 0.17932 0.28639 0.41341 0.0
H126 H 0.14658 0.26328 0.41447 0.0
O127 O 0.20729 0.24226 0.33717 0.0
O128 O 0.20404 0.20729 0.35498 0.0
H129 H 0.15661 0.17721 0.44273 0.0
H130 H 0.15656 0.19395 0.47593 0.0
C131 C 0.16726 0.19481 0.45557 0.0
H132 H 0.18524 0.19656 0.46266 0.0
H133 H 0.17254 0.16027 0.3933 0.0
O134 O 0.207 0.29035 0.35733 0.0
C135 C 0.20364 0.22033 0.33319 0.0
Co136 Co 0.74011 0.94783 0.37459 0.0
Co137 Co 0.78781 0.99476 0.40096 0.0
C138 C 0.73842 0.9932 0.39529 0.0
O139 O 0.7266 0.97072 0.38552 0.0
O140 O 0.76159 0.00391 0.40161 0.0
C141 C 0.69496 0.89685 0.36668 0.0
O142 O 0.68609 0.89803 0.39302 0.0
C143 C 0.82337 0.04184 0.43171 0.0
C144 C 0.85386 0.03438 0.44252 0.0
C145 C 0.84623 0.0518 0.44669 0.0
N146 N 0.81755 0.01929 0.42074 0.0
N147 N 0.83625 0.01536 0.42647 0.0
C148 C 0.80875 0.05443 0.42427 0.0
H149 H 0.79889 0.04722 0.40267 0.0
H150 H 0.79474 0.05049 0.4421 0.0
H151 H 0.82115 0.07486 0.42197 0.0
C152 C 0.75379 0.92264 0.42188 0.0
N153 N 0.7572 0.94316 0.40714 0.0
N154 N 0.77548 0.96307 0.42003 0.0
C155 C 0.78281 0.9559 0.44477 0.0
C156 C 0.76972 0.93007 0.44635 0.0
C157 C 0.7377 0.89645 0.41103 0.0
H158 H 0.73722 0.89596 0.3862 0.0
H159 H 0.71854 0.88904 0.41984 0.0
H160 H 0.74484 0.88419 0.41903 0.0
O161 O 0.76303 0.96214 0.34095 0.0
O162 O 0.79739 0.99466 0.35846 0.0
H163 H 0.81877 0.9771 0.46528 0.0
H164 H 0.79331 0.96445 0.49117 0.0
C165 C 0.79942 0.97321 0.46875 0.0
H166 H 0.79901 0.99092 0.46848 0.0
H167 H 0.8368 0.99947 0.41976 0.0
O168 O 0.71505 0.91531 0.35724 0.0
C169 C 0.78499 0.98012 0.33709 0.0
Co170 Co 0.05442 0.78554 0.3782 0.0
Co171 Co 0.00437 0.78266 0.39828 0.0
C172 C 0.01221 0.73764 0.39941 0.0
O173 O 0.03478 0.74994 0.39038 0.0
O174 O 0.99896 0.74805 0.40277 0.0
C175 C 0.10314 0.78726 0.36806 0.0
O176 O 0.09557 0.76599 0.38205 0.0
C177 C 0.96372 0.7751 0.44053 0.0
C178 C 0.9528 0.80116 0.42127 0.0
C179 C 0.94825 0.78519 0.44521 0.0
N180 N 0.97716 0.78521 0.41541 0.0
N181 N 0.97022 0.80048 0.40387 0.0
C182 C 0.96523 0.75566 0.45896 0.0
H183 H 0.96919 0.74351 0.44444 0.0
H184 H 0.98065 0.76481 0.47543 0.0
H185 H 0.94754 0.744 0.47123 0.0
C186 C 0.07473 0.82333 0.42578 0.0
N187 N 0.05545 0.80659 0.4092 0.0
N188 N 0.03483 0.80598 0.41786 0.0
C189 C 0.04045 0.82245 0.44058 0.0
C190 C 0.06592 0.83381 0.44644 0.0
C191 C 0.10128 0.82997 0.42067 0.0
H192 H 0.10634 0.83569 0.39698 0.0
H193 H 0.10323 0.81334 0.42483 0.0
H194 H 0.11448 0.84554 0.4352 0.0
O195 O 0.0406 0.79157 0.34191 0.0
O196 O 0.00532 0.79029 0.35431 0.0
H197 H 0.01101 0.83111 0.44151 0.0
H198 H 0.0303 0.84082 0.47482 0.0
C199 C 0.02161 0.82614 0.45742 0.0
H200 H 0.00835 0.80849 0.46864 0.0
H201 H 0.97794 0.81105 0.38453 0.0
O202 O 0.08866 0.79614 0.36557 0.0
C203 C 0.0217 0.79336 0.33485 0.0
Co204 Co 0.73585 0.79086 0.88401 0.0
Co205 Co 0.77959 0.78607 0.91456 0.0
C206 C 0.72686 0.74228 0.91094 0.0
O207 O 0.71876 0.75516 0.89756 0.0
O208 O 0.74972 0.75194 0.91897 0.0
C209 C 0.68905 0.79036 0.86701 0.0
O210 O 0.67633 0.76759 0.87771 0.0
C211 C 0.81402 0.77959 0.95719 0.0
C212 C 0.84994 0.80539 0.93555 0.0
C213 C 0.83977 0.78911 0.95945 0.0
N214 N 0.80951 0.78996 0.93309 0.0
N215 N 0.83114 0.80534 0.92044 0.0
C216 C 0.79399 0.76016 0.97645 0.0
H217 H 0.77599 0.75077 0.96421 0.0
H218 H 0.79161 0.76925 0.99666 0.0
H219 H 0.79913 0.74616 0.98376 0.0
C220 C 0.75166 0.83073 0.9292 0.0
N221 N 0.75397 0.8124 0.91603 0.0
N222 N 0.77242 0.81093 0.92872 0.0
C223 C 0.78255 0.82851 0.95037 0.0
C224 C 0.76976 0.84172 0.95125 0.0
C225 C 0.73148 0.83656 0.92187 0.0
H226 H 0.73507 0.8454 0.89941 0.0
H227 H 0.71326 0.81901 0.92115 0.0
H228 H 0.73036 0.84919 0.93866 0.0
O229 O 0.75828 0.79531 0.85002 0.0
O230 O 0.78806 0.7907 0.87142 0.0
H231 H 0.82036 0.83675 0.95366 0.0
H232 H 0.81081 0.8494 0.98397 0.0
C233 C 0.8047 0.83318 0.96877 0.0
H234 H 0.80004 0.8163 0.98216 0.0
H235 H 0.83308 0.81582 0.90127 0.0
O236 O 0.71272 0.80171 0.86781 0.0
C237 C 0.77833 0.79442 0.84832 0.0
Co238 Co 0.21859 0.95694 0.88039 0.0
Co239 Co 0.21583 0.00258 0.90623 0.0
C240 C 0.26361 1.00083 0.9087 0.0
O241 O 0.25372 0.97921 0.89637 0.0
O242 O 0.25084 0.0115 0.91387 0.0
C243 C 0.2175 0.90807 0.87224 0.0
O244 O 0.23249 0.91242 0.89515 0.0
C245 C 0.21725 0.04227 0.94514 0.0
C246 C 0.18439 0.04337 0.92742 0.0
C247 C 0.20295 0.05369 0.94896 0.0
N248 N 0.2074 0.02587 0.92243 0.0
N249 N 0.18795 0.02683 0.9118 0.0
C250 C 0.23841 0.04508 0.96422 0.0
H251 H 0.23923 0.02756 0.96408 0.0
H252 H 0.23643 0.05001 0.98761 0.0
H253 H 0.25617 0.06021 0.9549 0.0
C254 C 0.17509 0.9299 0.92164 0.0
N255 N 0.19375 0.95099 0.90957 0.0
N256 N 0.19348 0.97031 0.92144 0.0
C257 C 0.17537 0.96223 0.94236 0.0
C258 C 0.16284 0.93629 0.943 0.0
C259 C 0.16775 0.90419 0.91092 0.0
H260 H 0.16806 0.90392 0.88608 0.0
H261 H 0.18133 0.89893 0.9195 0.0
H262 H 0.14878 0.89022 0.91851 0.0
O263 O 0.21368 0.97253 0.84452 0.0
O264 O 0.21203 0.00499 0.86255 0.0
H265 H 0.16078 0.98655 0.95081 0.0
H266 H 0.1609 0.96917 0.98327 0.0
C267 C 0.17137 0.9791 0.96286 0.0
H268 H 0.18959 0.99492 0.96987 0.0
H269 H 0.17675 0.01573 0.89424 0.0
O270 O 0.21185 0.92436 0.86443 0.0
C271 C 0.21145 0.99164 0.8406 0.0
Co272 Co 0.04594 0.2578 0.87231 0.0
Co273 Co 1.00024 0.20868 0.89659 0.0
C274 C 0.00245 0.25927 0.89747 0.0
O275 O 0.02458 0.27165 0.88686 0.0
O276 O 0.99195 0.23573 0.90171 0.0
C277 C 0.09553 0.30436 0.85846 0.0
O278 O 0.09285 0.3181 0.87898 0.0
C279 C 0.95983 0.17529 0.93735 0.0
C280 C 0.95316 0.13839 0.92225 0.0
C281 C 0.94522 0.14989 0.94255 0.0
N282 N 0.9757 0.17864 0.91493 0.0
N283 N 0.9715 0.15651 0.9059 0.0
C284 C 0.95965 0.19613 0.95418 0.0
H285 H 0.97877 0.21249 0.9552 0.0
H286 H 0.9523 0.19023 0.97723 0.0
H287 H 0.94753 0.20178 0.94215 0.0
C288 C 0.07179 0.24466 0.91882 0.0
N289 N 0.05123 0.23973 0.90306 0.0
N290 N 0.0323 0.21869 0.91266 0.0
C291 C 0.04027 0.20944 0.93471 0.0
C292 C 0.0656 0.22561 0.9394 0.0
C293 C 0.09622 0.26837 0.9161 0.0
H294 H 0.10503 0.26842 0.8944 0.0
H295 H 0.09288 0.28438 0.91632 0.0
H296 H 0.10914 0.27073 0.93467 0.0
O297 O 0.02938 0.23647 0.83708 0.0
O298 O 0.99799 0.20098 0.85362 0.0
H299 H 0.01429 0.17033 0.93371 0.0
H300 H 0.03476 0.17997 0.9656 0.0
C301 C 0.02396 0.18533 0.95053 0.0
H302 H 0.00963 0.18697 0.9637 0.0
H303 H 0.98126 0.15379 0.88859 0.0
O304 O 0.07863 0.28182 0.85474 0.0
C305 C 0.01113 0.21475 0.83223 0.0
Co306 Co 0.80237 0.75357 0.63486 0.0
Co307 Co 0.80542 0.80248 0.61094 0.0
C308 C 0.75754 0.75219 0.60853 0.0
O309 O 0.76744 0.74008 0.61968 0.0
O310 O 0.77028 0.77573 0.60425 0.0
C311 C 0.80358 0.70613 0.64615 0.0
O312 O 0.78702 0.69394 0.62511 0.0
C313 C 0.80115 0.83707 0.56926 0.0
C314 C 0.82984 0.87341 0.58769 0.0
C315 C 0.81248 0.86264 0.56489 0.0
N316 N 0.81144 0.83298 0.59357 0.0
N317 N 0.82839 0.85475 0.60462 0.0
C318 C 0.78229 0.8168 0.54964 0.0
H319 H 0.78435 0.8 0.55103 0.0
H320 H 0.78429 0.82313 0.52599 0.0
H321 H 0.76332 0.81168 0.55753 0.0
C322 C 0.84085 0.76648 0.58765 0.0
N323 N 0.826 0.7719 0.60441 0.0
N324 N 0.82781 0.79282 0.59476 0.0
C325 C 0.844 0.80146 0.5716 0.0
C326 C 0.85277 0.78502 0.56621 0.0
C327 C 0.84102 0.74242 0.58976 0.0
H328 H 0.82161 0.72671 0.58826 0.0
H329 H 0.8521 0.74033 0.57164 0.0
H330 H 0.84879 0.74142 0.61181 0.0
O331 O 0.80627 0.77395 0.67083 0.0
O332 O 0.80949 0.80911 0.65438 0.0
H333 H 0.85495 0.84018 0.57029 0.0
H334 H 0.8668 0.83021 0.53958 0.0
C335 C 0.8505 0.82471 0.55444 0.0
H336 H 0.83426 0.8216 0.54066 0.0
H337 H 0.83931 0.85685 0.62344 0.0
O338 O 0.81031 0.72877 0.65151 0.0
C339 C 0.80881 0.79531 0.67581 0.0
Co340 Co 0.25557 0.04577 0.6229 0.0
Co341 Co 0.20617 0.99919 0.59995 0.0
C342 C 0.25558 0.00104 0.59501 0.0
O343 O 0.26765 0.02299 0.60639 0.0
O344 O 0.23199 0.99014 0.59119 0.0
C345 C 0.30325 0.09444 0.62515 0.0
O346 O 0.31051 0.08859 0.60026 0.0
C347 C 0.16741 0.95807 0.56325 0.0
C348 C 0.13375 0.95863 0.57888 0.0
C349 C 0.14186 0.94712 0.55885 0.0
N350 N 0.1741 0.97542 0.58488 0.0
N351 N 0.15384 0.97539 0.59436 0.0
C352 C 0.18547 0.95383 0.54548 0.0
H353 H 0.20327 0.97163 0.54274 0.0
H354 H 0.17775 0.94579 0.52311 0.0
H355 H 0.18945 0.94063 0.55785 0.0
C356 C 0.23732 0.07152 0.58199 0.0
N357 N 0.23538 0.0508 0.5947 0.0
N358 N 0.21547 0.03113 0.58398 0.0
C359 C 0.20474 0.03861 0.5632 0.0
C360 C 0.21802 0.06447 0.56148 0.0
C361 C 0.25608 0.09758 0.59103 0.0
H362 H 0.25832 0.0987 0.61574 0.0
H363 H 0.2743 0.10274 0.5806 0.0
H364 H 0.25034 0.11115 0.58385 0.0
O365 O 0.23659 0.03077 0.6599 0.0
O366 O 0.20183 0.99785 0.64397 0.0
H367 H 0.16568 0.01454 0.55601 0.0
H368 H 0.18262 0.03064 0.52277 0.0
C369 C 0.18341 0.02125 0.54359 0.0
H370 H 0.18543 0.00504 0.53727 0.0
H371 H 0.15386 0.9874 0.61084 0.0
O372 O 0.28253 0.07886 0.63683 0.0
C373 C 0.21553 0.01166 0.66512 0.0
Co374 Co 0.94861 0.21497 0.62051 0.0
Co375 Co 0.99871 0.22328 0.59294 0.0
C376 C 0.98794 0.26516 0.59603 0.0
O377 O 0.96636 0.25132 0.60761 0.0
O378 O 0.00221 0.25651 0.58919 0.0
C379 C 0.89732 0.20649 0.62436 0.0
O380 O 0.90212 0.22108 0.60095 0.0
C381 C 0.04269 0.23432 0.55506 0.0
C382 C 0.04698 0.20204 0.5676 0.0
C383 C 0.0567 0.22286 0.54934 0.0
N384 N 0.02536 0.22065 0.57571 0.0
N385 N 0.02826 0.2016 0.58329 0.0
C386 C 0.04428 0.25651 0.5396 0.0
H387 H 0.02568 0.25509 0.53902 0.0
H388 H 0.05151 0.25821 0.51642 0.0
H389 H 0.05721 0.27358 0.55229 0.0
C390 C 0.92832 0.17357 0.57569 0.0
N391 N 0.94731 0.19367 0.589 0.0
N392 N 0.96828 0.1987 0.57581 0.0
C393 C 0.96325 0.183 0.55253 0.0
C394 C 0.93773 0.16621 0.55182 0.0
C395 C 0.90223 0.16024 0.58764 0.0
H396 H 0.90251 0.1612 0.61246 0.0
H397 H 0.89192 0.16931 0.5789 0.0
H398 H 0.89224 0.14032 0.5809 0.0
O399 O 0.96571 0.2111 0.65558 0.0
O400 O 1.00118 0.21726 0.63593 0.0
H401 H 0.99214 0.17582 0.5385 0.0
H402 H 0.97354 0.17718 0.50813 0.0
C403 C 0.98231 0.18546 0.53002 0.0
H404 H 0.99615 0.20541 0.52653 0.0
H405 H 0.017 0.18793 0.59874 0.0
O406 O 0.91436 0.20309 0.63519 0.0
C407 C 0.98686 0.21262 0.65831 0.0
Co408 Co 0.9273 0.54594 0.45773 0.0
Co409 Co 0.87877 0.54298 0.43025 0.0
C410 C 0.92858 0.59094 0.43068 0.0
O411 O 0.9405 0.58115 0.4427 0.0
O412 O 0.90527 0.57805 0.42513 0.0
C413 C 0.97582 0.54711 0.46784 0.0
O414 O 0.98671 0.56505 0.44798 0.0
C415 C 0.84468 0.54929 0.38896 0.0
C416 C 0.80851 0.51651 0.40101 0.0
C417 C 0.81934 0.53705 0.38223 0.0
N418 N 0.84852 0.53656 0.4108 0.0
N419 N 0.82679 0.51706 0.41793 0.0
C420 C 0.86517 0.57153 0.37351 0.0
H421 H 0.8824 0.5702 0.37313 0.0
H422 H 0.85979 0.57311 0.35021 0.0
H423 H 0.86914 0.58861 0.3861 0.0
C424 C 0.91427 0.50573 0.41309 0.0
N425 N 0.90964 0.52233 0.42706 0.0
N426 N 0.88977 0.52141 0.41502 0.0
C427 C 0.88153 0.50465 0.39243 0.0
C428 C 0.89676 0.49412 0.39052 0.0
C429 C 0.93425 0.50014 0.4223 0.0
H430 H 0.9336 0.49745 0.44692 0.0
H431 H 0.95272 0.51613 0.41626 0.0
H432 H 0.93199 0.48302 0.4114 0.0
O433 O 0.90538 0.54053 0.49235 0.0
O434 O 0.87095 0.53794 0.47364 0.0
H435 H 0.84272 0.48953 0.38328 0.0
H436 H 0.86073 0.49017 0.35106 0.0
C437 C 0.86082 0.50041 0.37154 0.0
H438 H 0.86288 0.51857 0.36477 0.0
H439 H 0.82449 0.50398 0.43424 0.0
O440 O 0.95299 0.53873 0.47417 0.0
C441 C 0.88373 0.53771 0.49584 0.0
Co442 Co 0.45408 0.387 0.44756 0.0
Co443 Co 0.45088 0.3363 0.42964 0.0
C444 C 0.40622 0.34393 0.42595 0.0
O445 O 0.41875 0.36644 0.4351 0.0
O446 O 0.41625 0.33028 0.42301 0.0
C447 C 0.48207 0.43506 0.47129 0.0
O448 O 0.49601 0.42552 0.4793 0.0
C449 C 0.44261 0.29281 0.39275 0.0
C450 C 0.47081 0.28489 0.41224 0.0
C451 C 0.45289 0.2774 0.38998 0.0
N452 N 0.4541 0.30878 0.41556 0.0
N453 N 0.47069 0.30369 0.4273 0.0
C454 C 0.42364 0.29369 0.37279 0.0
H455 H 0.42689 0.31301 0.37157 0.0
H456 H 0.42423 0.28686 0.34994 0.0
H457 H 0.40481 0.28156 0.38235 0.0
C458 C 0.49126 0.40546 0.39866 0.0
N459 N 0.47511 0.38711 0.41681 0.0
N460 N 0.47444 0.36613 0.40962 0.0
C461 C 0.49054 0.37064 0.38687 0.0
C462 C 0.50173 0.39573 0.37925 0.0
C463 C 0.49477 0.43123 0.39795 0.0
H464 H 0.47684 0.43056 0.40258 0.0
H465 H 0.50186 0.44023 0.37585 0.0
H466 H 0.50847 0.44276 0.41544 0.0
O467 O 0.45986 0.37421 0.48558 0.0
O468 O 0.45754 0.33839 0.4734 0.0
H469 H 0.49956 0.34161 0.39107 0.0
H470 H 0.51154 0.35987 0.35751 0.0
C471 C 0.49548 0.35143 0.37314 0.0
H472 H 0.47863 0.33756 0.36084 0.0
H473 H 0.48245 0.31355 0.44513 0.0
O474 O 0.46215 0.42159 0.45656 0.0
C475 C 0.46079 0.35483 0.49282 0.0
Co476 Co 0.6199 0.06996 0.45167 0.0
Co477 Co 0.67063 0.1152 0.43296 0.0
C478 C 0.66014 0.06151 0.42967 0.0
O479 O 0.63779 0.05229 0.43914 0.0
O480 O 0.67433 0.08507 0.42671 0.0
C481 C 0.56756 0.02689 0.46046 0.0
O482 O 0.56837 0.01327 0.43833 0.0
C483 C 0.71319 0.14695 0.39374 0.0
C484 C 0.72514 0.18411 0.4133 0.0
C485 C 0.73009 0.17214 0.39037 0.0
N486 N 0.69879 0.14418 0.41763 0.0
N487 N 0.70625 0.16642 0.42943 0.0
C488 C 0.70943 0.12612 0.37339 0.0
H489 H 0.68966 0.11097 0.3739 0.0
H490 H 0.71497 0.13294 0.35008 0.0
H491 H 0.72125 0.11843 0.38129 0.0
C492 C 0.60143 0.08964 0.40365 0.0
N493 N 0.61988 0.09088 0.42089 0.0
N494 N 0.64111 0.11058 0.41335 0.0
C495 C 0.63676 0.12271 0.39105 0.0
C496 C 0.61142 0.10983 0.38417 0.0
C497 C 0.57522 0.06826 0.40419 0.0
H498 H 0.56613 0.0688 0.4254 0.0
H499 H 0.57558 0.05054 0.4035 0.0
H500 H 0.56409 0.0686 0.38489 0.0
O501 O 0.63429 0.08907 0.48847 0.0
O502 O 0.6704 0.12183 0.47659 0.0
H503 H 0.66763 0.15982 0.39501 0.0
H504 H 0.64811 0.15518 0.3629 0.0
C505 C 0.65637 0.14646 0.37715 0.0
H506 H 0.66892 0.14255 0.36331 0.0
H507 H 0.69794 0.16958 0.448 0.0
O508 O 0.58608 0.04814 0.46606 0.0
C509 C 0.65377 0.10907 0.49586 0.0
Co510 Co 0.8802 0.59193 0.71175 0.0
Co511 Co 0.87857 0.54375 0.73608 0.0
C512 C 0.92562 0.5944 0.73946 0.0
O513 O 0.91524 0.60572 0.72736 0.0
O514 O 0.91346 0.57085 0.74409 0.0
C515 C 0.87814 0.63912 0.70211 0.0
O516 O 0.89382 0.65079 0.72414 0.0
C517 C 0.88022 0.50654 0.77646 0.0
C518 C 0.85133 0.4717 0.7551 0.0
C519 C 0.86756 0.48073 0.77918 0.0
N520 N 0.87162 0.51242 0.75191 0.0
N521 N 0.85459 0.49151 0.73911 0.0
C522 C 0.89863 0.52537 0.79783 0.0
H523 H 0.89811 0.54302 0.7965 0.0
H524 H 0.89476 0.51811 0.82114 0.0
H525 H 0.91765 0.52939 0.79158 0.0
C526 C 0.83991 0.57701 0.75719 0.0
N527 N 0.85639 0.57303 0.7418 0.0
N528 N 0.85539 0.55253 0.75174 0.0
C529 C 0.8382 0.5428 0.77378 0.0
C530 C 0.82786 0.55801 0.77802 0.0
C531 C 0.83756 0.59982 0.75392 0.0
H532 H 0.85611 0.61657 0.75732 0.0
H533 H 0.82439 0.60032 0.77037 0.0
H534 H 0.83113 0.60049 0.73088 0.0
O535 O 0.87573 0.57166 0.67544 0.0
O536 O 0.8749 0.53776 0.6926 0.0
H537 H 0.82742 0.50414 0.77417 0.0
H538 H 0.81525 0.51338 0.80512 0.0
C539 C 0.83169 0.51931 0.7904 0.0
H540 H 0.84786 0.52227 0.80422 0.0
H541 H 0.8447 0.4908 0.71982 0.0
O542 O 0.87219 0.61685 0.6957 0.0
C543 C 0.87403 0.55059 0.67097 0.0
Co544 Co 0.40263 0.27748 0.70446 0.0
Co545 Co 0.45187 0.32587 0.72457 0.0
C546 C 0.40158 0.32314 0.72483 0.0
O547 O 0.38919 0.30023 0.71675 0.0
O548 O 0.42517 0.33418 0.72821 0.0
C549 C 0.35573 0.22795 0.70344 0.0
O550 O 0.34787 0.23419 0.72753 0.0
C551 C 0.48619 0.37075 0.75966 0.0
C552 C 0.52251 0.37347 0.74998 0.0
C553 C 0.51152 0.38467 0.76592 0.0
N554 N 0.48241 0.35216 0.74081 0.0
N555 N 0.50424 0.35406 0.73495 0.0
C556 C 0.46572 0.37379 0.77312 0.0
H557 H 0.44934 0.35522 0.77789 0.0
H558 H 0.47191 0.38488 0.79414 0.0
H559 H 0.45995 0.3835 0.75681 0.0
C560 C 0.42123 0.25497 0.74967 0.0
N561 N 0.42286 0.27475 0.73483 0.0
N562 N 0.44261 0.29518 0.7444 0.0
C563 C 0.45343 0.2892 0.76671 0.0
C564 C 0.44045 0.26344 0.77062 0.0
C565 C 0.40327 0.22838 0.7417 0.0
H566 H 0.40123 0.22633 0.71701 0.0
H567 H 0.38481 0.22287 0.75167 0.0
H568 H 0.40966 0.21561 0.75001 0.0
O569 O 0.42231 0.29076 0.66754 0.0
O570 O 0.45767 0.32432 0.68093 0.0
H571 H 0.49245 0.31398 0.77312 0.0
H572 H 0.4756 0.30013 0.80731 0.0
C573 C 0.47472 0.30798 0.78528 0.0
H574 H 0.4726 0.3245 0.78927 0.0
H575 H 0.5066 0.34181 0.72105 0.0
O576 O 0.37647 0.24355 0.69182 0.0
C577 C 0.4436 0.30903 0.66098 0.0
Co578 Co 0.7192 0.11774 0.71178 0.0
Co579 Co 0.67399 0.12499 0.72951 0.0
C580 C 0.67231 0.0744 0.73212 0.0
O581 O 0.69499 0.08285 0.72425 0.0
O582 O 0.66305 0.08876 0.73436 0.0
C583 C 0.76685 0.11544 0.70288 0.0
O584 O 0.76007 0.09625 0.72077 0.0
C585 C 0.63742 0.1243 0.77289 0.0
C586 C 0.62259 0.14498 0.74802 0.0
C587 C 0.62034 0.13275 0.77489 0.0
N588 N 0.64913 0.13138 0.74623 0.0
N589 N 0.64019 0.14379 0.73156 0.0
C590 C 0.64183 0.10872 0.79503 0.0
H591 H 0.65117 0.09944 0.78423 0.0
H592 H 0.65424 0.1209 0.81313 0.0
H593 H 0.62395 0.09451 0.80517 0.0
C594 C 0.74445 0.15743 0.75677 0.0
N595 N 0.72374 0.14113 0.74187 0.0
N596 N 0.70549 0.14544 0.74839 0.0
C597 C 0.71425 0.16506 0.7674 0.0
C598 C 0.73931 0.17335 0.77324 0.0
C599 C 0.76858 0.15732 0.75569 0.0
H600 H 0.76482 0.13784 0.75669 0.0
H601 H 0.78098 0.16797 0.77464 0.0
H602 H 0.77822 0.16574 0.73425 0.0
O603 O 0.7073 0.12568 0.67479 0.0
O604 O 0.67598 0.13206 0.68579 0.0
H605 H 0.71185 0.1962 0.78575 0.0
H606 H 0.68702 0.16566 0.79621 0.0
C607 C 0.69951 0.17688 0.77765 0.0
H608 H 0.6878 0.17716 0.759 0.0
H609 H 0.64598 0.15129 0.71016 0.0
O610 O 0.75238 0.12415 0.69863 0.0
C611 C 0.69096 0.13125 0.66687 0.0
Co612 Co 0.41026 0.12272 0.20936 0.0
Co613 Co 0.4598 0.12459 0.23031 0.0
C614 C 0.4096 0.07669 0.2313 0.0
O615 O 0.39727 0.08708 0.2225 0.0
O616 O 0.43322 0.08928 0.23464 0.0
C617 C 0.36446 0.12828 0.20439 0.0
O618 O 0.35697 0.1199 0.23168 0.0
C619 C 0.49492 0.11864 0.27069 0.0
C620 C 0.53114 0.1476 0.25257 0.0
C621 C 0.52056 0.12985 0.27497 0.0
N622 N 0.49061 0.12968 0.2472 0.0
N623 N 0.51238 0.14681 0.23639 0.0
C624 C 0.47486 0.09732 0.28798 0.0
H625 H 0.46641 0.10456 0.30422 0.0
H626 H 0.48233 0.08688 0.30029 0.0
H627 H 0.45999 0.08434 0.27261 0.0
C628 C 0.42825 0.16486 0.25314 0.0
N629 N 0.43006 0.1464 0.2393 0.0
N630 N 0.45005 0.14627 0.24925 0.0
C631 C 0.46081 0.16381 0.27085 0.0
C632 C 0.44741 0.17629 0.27399 0.0
C633 C 0.41057 0.17355 0.24389 0.0
H634 H 0.40795 0.17196 0.21926 0.0
H635 H 0.39235 0.1619 0.25505 0.0
H636 H 0.41768 0.19331 0.25028 0.0
O637 O 0.4304 0.12931 0.17318 0.0
O638 O 0.46612 0.13188 0.18641 0.0
H639 H 0.49983 0.17688 0.27525 0.0
H640 H 0.48521 0.17881 0.30954 0.0
C641 C 0.48271 0.16753 0.28915 0.0
H642 H 0.47992 0.1492 0.29631 0.0
H643 H 0.51444 0.15823 0.21814 0.0
O644 O 0.38407 0.12933 0.19402 0.0
C645 C 0.45189 0.13294 0.16654 0.0
Co646 Co 0.88386 0.28655 0.20908 0.0
Co647 Co 0.87959 0.33163 0.23487 0.0
C648 C 0.92826 0.33173 0.23616 0.0
O649 O 0.91892 0.30993 0.22446 0.0
O650 O 0.9149 0.34175 0.24129 0.0
C651 C 0.88339 0.23815 0.20391 0.0
O652 O 0.89611 0.24291 0.22901 0.0
C653 C 0.8808 0.37127 0.27382 0.0
C654 C 0.84635 0.37035 0.25839 0.0
C655 C 0.86572 0.38168 0.27877 0.0
N656 N 0.8706 0.35441 0.25159 0.0
N657 N 0.85021 0.35422 0.24228 0.0
C658 C 0.90313 0.37549 0.29152 0.0
H659 H 0.90457 0.35831 0.29175 0.0
H660 H 0.90214 0.38119 0.31486 0.0
H661 H 0.92016 0.39056 0.28075 0.0
C662 C 0.84072 0.25897 0.25063 0.0
N663 N 0.85911 0.2802 0.23848 0.0
N664 N 0.85858 0.29933 0.25057 0.0
C665 C 0.84076 0.29104 0.27182 0.0
C666 C 0.82857 0.26515 0.2723 0.0
C667 C 0.83337 0.23333 0.23967 0.0
H668 H 0.83464 0.23334 0.21488 0.0
H669 H 0.84622 0.22752 0.2493 0.0
H670 H 0.81401 0.21956 0.24627 0.0
O671 O 0.87796 0.30152 0.17345 0.0
O672 O 0.87459 0.33308 0.19141 0.0
H673 H 0.82531 0.31442 0.28156 0.0
H674 H 0.82725 0.29771 0.31365 0.0
C675 C 0.83682 0.30767 0.29281 0.0
H676 H 0.85501 0.32392 0.29904 0.0
H677 H 0.83855 0.34253 0.22539 0.0
O678 O 0.87845 0.25424 0.19332 0.0
C679 C 0.87448 0.31989 0.16953 0.0
Co680 Co 0.71672 0.5896 0.20012 0.0
Co681 Co 0.6669 0.54435 0.22257 0.0
C682 C 0.67681 0.59753 0.22609 0.0
O683 O 0.69885 0.60677 0.21554 0.0
O684 O 0.66282 0.57401 0.2294 0.0
C685 C 0.76838 0.63258 0.19394 0.0
O686 O 0.76759 0.6412 0.22062 0.0
C687 C 0.62514 0.51143 0.26312 0.0
C688 C 0.61561 0.47449 0.24474 0.0
C689 C 0.60966 0.48592 0.26743 0.0
N690 N 0.63992 0.51477 0.23936 0.0
N691 N 0.63389 0.49261 0.22835 0.0
C692 C 0.6255 0.53231 0.28055 0.0
H693 H 0.62848 0.54764 0.26526 0.0
H694 H 0.64117 0.53975 0.29682 0.0
H695 H 0.60775 0.52595 0.29282 0.0
C696 C 0.73808 0.56844 0.24314 0.0
N697 N 0.71868 0.56846 0.22937 0.0
N698 N 0.69771 0.54985 0.23969 0.0
C699 C 0.70316 0.53791 0.26117 0.0
C700 C 0.72895 0.54927 0.26404 0.0
C701 C 0.76483 0.58513 0.23474 0.0
H702 H 0.76655 0.58743 0.21007 0.0
H703 H 0.77171 0.60366 0.2453 0.0
H704 H 0.77668 0.5774 0.24234 0.0
O705 O 0.70061 0.57034 0.16411 0.0
O706 O 0.66523 0.53761 0.17853 0.0
H707 H 0.67405 0.50006 0.2661 0.0
H708 H 0.69242 0.51322 0.29968 0.0
C709 C 0.684 0.51716 0.27998 0.0
H710 H 0.67025 0.52228 0.28815 0.0
H711 H 0.64264 0.48985 0.20994 0.0
O712 O 0.74967 0.61298 0.18405 0.0
C713 C 0.68076 0.55021 0.15809 0.0
Co714 Co 0.461 0.07131 0.95097 0.0
Co715 Co 0.45586 0.11764 0.93353 0.0
C716 C 0.41167 0.06418 0.93255 0.0
O717 O 0.42473 0.05421 0.94001 0.0
O718 O 0.42152 0.08784 0.92978 0.0
C719 C 0.4693 0.02728 0.96199 0.0
O720 O 0.44911 0.01089 0.94776 0.0
C721 C 0.44403 0.14959 0.89534 0.0
C722 C 0.47101 0.18696 0.91287 0.0
C723 C 0.45276 0.17488 0.89129 0.0
N724 N 0.45669 0.14691 0.91824 0.0
N725 N 0.47254 0.16931 0.92882 0.0
C726 C 0.42552 0.12848 0.87641 0.0
H727 H 0.42989 0.11311 0.87618 0.0
H728 H 0.42536 0.1348 0.85316 0.0
H729 H 0.40666 0.12123 0.88619 0.0
C730 C 0.49798 0.09082 0.90213 0.0
N731 N 0.48098 0.09217 0.91967 0.0
N732 N 0.47946 0.11196 0.91233 0.0
C733 C 0.4956 0.12391 0.8897 0.0
C734 C 0.50795 0.11093 0.88261 0.0
C735 C 0.50338 0.06978 0.90303 0.0
H736 H 0.51462 0.07171 0.92331 0.0
H737 H 0.48562 0.05181 0.90455 0.0
H738 H 0.51373 0.06951 0.88285 0.0
O739 O 0.46665 0.09062 0.988 0.0
O740 O 0.46445 0.12429 0.9769 0.0
H741 H 0.50362 0.16163 0.89375 0.0
H742 H 0.51554 0.15548 0.85989 0.0
C743 C 0.49971 0.14769 0.87587 0.0
H744 H 0.48252 0.14421 0.86394 0.0
H745 H 0.48494 0.17259 0.94641 0.0
O746 O 0.4746 0.04987 0.96355 0.0
C747 C 0.46804 0.111 0.99579 0.0
Co748 Co 0.93233 0.38246 0.96039 0.0
Co749 Co 0.88697 0.33605 0.92939 0.0
C750 C 0.93801 0.34179 0.92936 0.0
O751 O 0.9473 0.36257 0.94352 0.0
O752 O 0.9149 0.3295 0.92226 0.0
C753 C 0.97661 0.43298 0.96906 0.0
O754 O 0.98441 0.43179 0.94203 0.0
C755 C 0.84819 0.29361 0.89218 0.0
C756 C 0.81501 0.29509 0.90779 0.0
C757 C 0.82234 0.28199 0.88923 0.0
N758 N 0.85563 0.31276 0.91159 0.0
N759 N 0.83565 0.31347 0.92064 0.0
C760 C 0.86526 0.28576 0.87844 0.0
H761 H 0.88127 0.29052 0.89351 0.0
H762 H 0.87259 0.29593 0.85701 0.0
H763 H 0.8552 0.26543 0.87373 0.0
C764 C 0.91621 0.40922 0.91873 0.0
N765 N 0.91386 0.38815 0.93071 0.0
N766 N 0.89618 0.36882 0.91632 0.0
C767 C 0.88767 0.37703 0.89371 0.0
C768 C 0.90009 0.40293 0.89455 0.0
C769 C 0.93195 0.43479 0.93158 0.0
H770 H 0.93262 0.43382 0.95635 0.0
H771 H 0.95109 0.44315 0.92238 0.0
H772 H 0.92434 0.44711 0.92557 0.0
O773 O 0.9106 0.36448 0.99399 0.0
O774 O 0.87914 0.33138 0.9728 0.0
H775 H 0.85037 0.35316 0.87854 0.0
H776 H 0.87194 0.37079 0.84907 0.0
C777 C 0.86969 0.36047 0.87025 0.0
H778 H 0.8726 0.34449 0.86564 0.0
H779 H 0.83611 0.3264 0.93606 0.0
O780 O 0.95699 0.41443 0.97931 0.0
C781 C 0.88998 0.34428 0.99589 0.0
Co782 Co 0.61045 0.54623 0.94343 0.0
Co783 Co 0.65943 0.54518 0.92682 0.0
C784 C 0.65674 0.59324 0.92792 0.0
O785 O 0.63344 0.58274 0.93398 0.0
O786 O 0.66765 0.58047 0.92507 0.0
C787 C 0.56288 0.54779 0.95356 0.0
O788 O 0.57287 0.57085 0.94383 0.0
C789 C 0.70132 0.55258 0.88736 0.0
C790 C 0.71264 0.52764 0.909 0.0
C791 C 0.71783 0.54354 0.88483 0.0
N792 N 0.68678 0.54207 0.91158 0.0
N793 N 0.69383 0.52735 0.92448 0.0
C794 C 0.6997 0.57129 0.86758 0.0
H795 H 0.69254 0.5818 0.88023 0.0
H796 H 0.6866 0.56146 0.84887 0.0
H797 H 0.71825 0.58452 0.85802 0.0
C798 C 0.58988 0.50676 0.89675 0.0
N799 N 0.60931 0.52469 0.91223 0.0
N800 N 0.62968 0.52414 0.90518 0.0
C801 C 0.62393 0.50604 0.88464 0.0
C802 C 0.59846 0.49428 0.87867 0.0
C803 C 0.56331 0.49982 0.90231 0.0
H804 H 0.55879 0.49474 0.92626 0.0
H805 H 0.56096 0.51617 0.89771 0.0
H806 H 0.54999 0.48381 0.88846 0.0
O807 O 0.62186 0.5381 0.98085 0.0
O808 O 0.65549 0.53561 0.96982 0.0
H809 H 0.65039 0.49351 0.88884 0.0
H810 H 0.63431 0.48597 0.85306 0.0
C811 C 0.64254 0.50016 0.87108 0.0
H812 H 0.65798 0.51731 0.8612 0.0
H813 H 0.68557 0.51684 0.94371 0.0
O814 O 0.57574 0.53698 0.95393 0.0
C815 C 0.63927 0.53401 0.98862 0.0
Co816 Co 0.59293 0.87919 0.78932 0.0
Co817 Co 0.54671 0.88349 0.76601 0.0
C818 C 0.59973 0.92697 0.76288 0.0
O819 O 0.60885 0.9143 0.77446 0.0
O820 O 0.57626 0.9174 0.75826 0.0
C821 C 0.64046 0.87956 0.80275 0.0
O822 O 0.65308 0.9029 0.79392 0.0
C823 C 0.50905 0.88866 0.72769 0.0
C824 C 0.47525 0.86504 0.75438 0.0
C825 C 0.48337 0.87971 0.72888 0.0
N826 N 0.51552 0.87952 0.75143 0.0
N827 N 0.49511 0.86539 0.76709 0.0
C828 C 0.52727 0.90647 0.70542 0.0
H829 H 0.54643 0.91586 0.71479 0.0
H830 H 0.527 0.89602 0.68506 0.0
H831 H 0.52206 0.92057 0.69879 0.0
C832 C 0.5744 0.8399 0.74361 0.0
N833 N 0.57212 0.85724 0.75929 0.0
N834 N 0.55254 0.85828 0.74965 0.0
C835 C 0.54151 0.84123 0.72759 0.0
C836 C 0.55497 0.82895 0.72315 0.0
C837 C 0.59642 0.83606 0.746 0.0
H838 H 0.59498 0.82585 0.76704 0.0
H839 H 0.6138 0.85442 0.74693 0.0
H840 H 0.5977 0.82545 0.7267 0.0
O841 O 0.5739 0.87591 0.82608 0.0
O842 O 0.54214 0.87993 0.81022 0.0
H843 H 0.50415 0.83475 0.72752 0.0
H844 H 0.51089 0.81984 0.69699 0.0
C845 C 0.51856 0.83683 0.71118 0.0
H846 H 0.52314 0.85321 0.69685 0.0
H847 H 0.49474 0.856 0.78668 0.0
O848 O 0.61678 0.86811 0.80202 0.0
C849 C 0.55419 0.87683 0.83129 0.0
Co850 Co 0.12083 0.72844 0.78424 0.0
Co851 Co 0.11822 0.67823 0.76587 0.0
C852 C 0.07237 0.68487 0.76635 0.0
O853 O 0.0845 0.7079 0.77385 0.0
O854 O 0.08332 0.67211 0.76314 0.0
C855 C 0.1251 0.77891 0.7914 0.0
O856 O 0.10524 0.77252 0.77484 0.0
C857 C 0.11055 0.63723 0.72478 0.0
C858 C 0.13249 0.62302 0.7481 0.0
C859 C 0.11835 0.61968 0.72258 0.0
N860 N 0.12004 0.65043 0.75018 0.0
N861 N 0.13298 0.6417 0.76404 0.0
C862 C 0.09365 0.64089 0.70397 0.0
H863 H 0.08433 0.64974 0.71584 0.0
H864 H 0.10476 0.6534 0.68538 0.0
H865 H 0.07937 0.62278 0.69431 0.0
C866 C 0.15772 0.74739 0.73498 0.0
N867 N 0.1411 0.72864 0.75234 0.0
N868 N 0.14083 0.70789 0.74503 0.0
C869 C 0.15762 0.71292 0.72296 0.0
C870 C 0.16882 0.7381 0.71582 0.0
C871 C 0.16185 0.77337 0.73579 0.0
H872 H 0.17208 0.78277 0.7566 0.0
H873 H 0.14358 0.77265 0.73613 0.0
H874 H 0.17262 0.78444 0.7161 0.0
O875 O 0.12802 0.71551 0.82115 0.0
O876 O 0.1275 0.68063 0.80868 0.0
H877 H 0.16497 0.68274 0.72844 0.0
H878 H 0.18218 0.70382 0.69832 0.0
C879 C 0.16403 0.69442 0.71023 0.0
H880 H 0.14932 0.68213 0.69415 0.0
H881 H 0.14246 0.64875 0.78423 0.0
O882 O 0.13235 0.76331 0.79615 0.0
C883 C 0.13056 0.69699 0.82808 0.0
Co884 Co 0.28612 0.4037 0.78371 0.0
Co885 Co 0.33605 0.44718 0.75706 0.0
C886 C 0.3242 0.39318 0.75651 0.0
O887 O 0.30291 0.38499 0.76906 0.0
O888 O 0.33826 0.41639 0.75078 0.0
C889 C 0.2343 0.36107 0.79553 0.0
O890 O 0.23643 0.34725 0.77465 0.0
C891 C 0.37792 0.48061 0.71586 0.0
C892 C 0.38965 0.5166 0.73852 0.0
C893 C 0.39498 0.50613 0.7142 0.0
N894 N 0.36323 0.47651 0.73997 0.0
N895 N 0.37047 0.49813 0.75333 0.0
C896 C 0.37619 0.46033 0.69594 0.0
H897 H 0.36686 0.44215 0.70769 0.0
H898 H 0.36492 0.45884 0.67586 0.0
H899 H 0.39502 0.46457 0.6885 0.0
C900 C 0.26488 0.4228 0.73818 0.0
N901 N 0.28446 0.42389 0.75284 0.0
N902 N 0.30523 0.44247 0.74207 0.0
C903 C 0.2995 0.45389 0.72026 0.0
C904 C 0.27372 0.4418 0.71708 0.0
C905 C 0.23845 0.4025 0.74249 0.0
H906 H 0.23212 0.40408 0.76525 0.0
H907 H 0.23752 0.38419 0.74068 0.0
H908 H 0.2257 0.4032 0.72555 0.0
O909 O 0.30431 0.42424 0.81878 0.0
O910 O 0.33962 0.45457 0.80031 0.0
H911 H 0.3309 0.49083 0.71922 0.0
H912 H 0.30949 0.48409 0.68863 0.0
C913 C 0.31836 0.47621 0.70322 0.0
H914 H 0.32981 0.47086 0.68929 0.0
H915 H 0.36218 0.5003 0.77261 0.0
O916 O 0.25235 0.38279 0.80078 0.0
C917 C 0.32531 0.44383 0.82236 0.0
Co918 Co 0.55011 0.92203 0.05085 0.0
Co919 Co 0.54804 0.8728 0.07268 0.0
C920 C 0.59542 0.92402 0.07662 0.0
O921 O 0.58523 0.93602 0.06593 0.0
O922 O 0.58301 0.90031 0.08003 0.0
C923 C 0.5467 0.96861 0.03515 0.0
O924 O 0.56654 0.98471 0.05018 0.0
C925 C 0.55078 0.83472 0.11156 0.0
C926 C 0.52541 0.80072 0.08599 0.0
C927 C 0.54058 0.8089 0.11111 0.0
N928 N 0.54188 0.84128 0.08776 0.0
N929 N 0.52668 0.8208 0.07275 0.0
C930 C 0.56956 0.85295 0.13314 0.0
H931 H 0.57978 0.87181 0.12312 0.0
H932 H 0.55976 0.85399 0.15345 0.0
H933 H 0.58293 0.84684 0.14 0.0
C934 C 0.51065 0.90666 0.09667 0.0
N935 N 0.5267 0.9025 0.08069 0.0
N936 N 0.52499 0.8814 0.08937 0.0
C937 C 0.50752 0.87127 0.11107 0.0
C938 C 0.4978 0.88697 0.11645 0.0
C939 C 0.50951 0.93024 0.09491 0.0
H940 H 0.49902 0.92975 0.07447 0.0
H941 H 0.52867 0.94642 0.09314 0.0
H942 H 0.50029 0.93278 0.11485 0.0
O943 O 0.54609 0.9026 0.01412 0.0
O944 O 0.54393 0.8675 0.02882 0.0
H945 H 0.49739 0.83278 0.109 0.0
H946 H 0.48274 0.84012 0.13921 0.0
C947 C 0.50018 0.84695 0.12611 0.0
H948 H 0.51543 0.84933 0.14129 0.0
H949 H 0.51728 0.82056 0.05321 0.0
O950 O 0.54024 0.94567 0.03516 0.0
C951 C 0.54377 0.88149 0.00814 0.0
Co952 Co 0.07982 0.62123 0.03766 0.0
Co953 Co 0.13067 0.66646 0.06026 0.0
C954 C 0.08178 0.66682 0.06424 0.0
O955 O 0.06891 0.64481 0.05333 0.0
O956 O 0.10536 0.6769 0.06792 0.0
C957 C 0.03149 0.57215 0.02944 0.0
O958 O 0.02188 0.57438 0.05472 0.0
C959 C 0.16874 0.70632 0.09932 0.0
C960 C 0.20294 0.70708 0.08334 0.0
C961 C 0.19432 0.71768 0.10402 0.0
N962 N 0.16256 0.68968 0.07688 0.0
N963 N 0.18316 0.69048 0.06726 0.0
C964 C 0.15026 0.70989 0.11709 0.0
H965 H 0.13246 0.69196 0.11893 0.0
H966 H 0.15756 0.71725 0.13982 0.0
H967 H 0.14645 0.72342 0.10526 0.0
C968 C 0.09477 0.59389 0.07986 0.0
N969 N 0.09866 0.61507 0.06643 0.0
N970 N 0.11965 0.63392 0.0765 0.0
C971 C 0.12932 0.6253 0.09738 0.0
C972 C 0.11398 0.59966 0.0999 0.0
C973 C 0.07252 0.56871 0.07457 0.0
H974 H 0.0556 0.56896 0.0821 0.0
H975 H 0.07369 0.55384 0.08707 0.0
H976 H 0.0708 0.56431 0.05028 0.0
O977 O 0.09995 0.63551 0.00165 0.0
O978 O 0.13605 0.66748 0.01606 0.0
H979 H 0.15593 0.63053 0.13229 0.0
H980 H 0.15237 0.65729 0.1244 0.0
C981 C 0.15294 0.64118 0.11434 0.0
H982 H 0.16891 0.64838 0.09862 0.0
H983 H 0.18362 0.67924 0.05009 0.0
O984 O 0.05294 0.58921 0.02127 0.0
C985 C 0.12155 0.65334 0.99561 0.0
Co986 Co 0.38137 0.45829 0.03931 0.0
Co987 Co 0.33334 0.45903 0.06129 0.0
C988 C 0.33842 0.41222 0.06253 0.0
O989 O 0.36096 0.42275 0.05317 0.0
O990 O 0.327 0.42447 0.06588 0.0
C991 C 0.42836 0.45772 0.02449 0.0
O992 O 0.41873 0.43489 0.03491 0.0
C993 C 0.29541 0.45395 0.10572 0.0
C994 C 0.28057 0.47581 0.08356 0.0
C995 C 0.27849 0.46239 0.10931 0.0
N996 N 0.30714 0.4624 0.07927 0.0
N997 N 0.29805 0.47532 0.06613 0.0
C998 C 0.29962 0.43726 0.12628 0.0
H999 H 0.30716 0.427 0.1138 0.0
H1000 H 0.3134 0.44868 0.14373 0.0
H1001 H 0.28198 0.42379 0.13753 0.0
C1002 C 0.40396 0.49664 0.08664 0.0
N1003 N 0.3842 0.48074 0.06996 0.0
N1004 N 0.36446 0.48193 0.07849 0.0
C1005 C 0.37116 0.49893 0.10066 0.0
C1006 C 0.39634 0.50867 0.10666 0.0
C1007 C 0.42904 0.4986 0.08502 0.0
H1008 H 0.42675 0.47966 0.0835 0.0
H1009 H 0.4407 0.50837 0.10484 0.0
H1010 H 0.43875 0.50899 0.06445 0.0
O1011 O 0.36528 0.46241 0.00302 0.0
O1012 O 0.33233 0.46467 0.01807 0.0
H1013 H 0.36461 0.52443 0.12707 0.0
H1014 H 0.3426 0.49185 0.13251 0.0
C1015 C 0.354 0.50613 0.11559 0.0
H1016 H 0.34138 0.50721 0.09877 0.0
H1017 H 0.30399 0.48406 0.04535 0.0
O1018 O 0.41562 0.46865 0.02519 0.0
C1019 C 0.34646 0.46486 0.9973 0.0
Co1020 Co 0.07087 0.45858 0.54871 0.0
Co1021 Co 0.11969 0.46036 0.573 0.0
C1022 C 0.06841 0.41333 0.57527 0.0
O1023 O 0.05639 0.4233 0.56401 0.0
O1024 O 0.09196 0.42599 0.57939 0.0
C1025 C 0.02309 0.45891 0.53867 0.0
O1026 O 0.01123 0.4391 0.55576 0.0
C1027 C 0.15478 0.45654 0.61568 0.0
C1028 C 0.19029 0.47904 0.59142 0.0
C1029 C 0.18028 0.4651 0.61718 0.0
N1030 N 0.15013 0.46522 0.59022 0.0
N1031 N 0.17147 0.47868 0.57595 0.0
C1032 C 0.13505 0.43938 0.6371 0.0
H1033 H 0.11648 0.43009 0.62623 0.0
H1034 H 0.13435 0.45032 0.65641 0.0
H1035 H 0.1394 0.42513 0.64571 0.0
C1036 C 0.08634 0.49856 0.59441 0.0
N1037 N 0.09033 0.48218 0.57884 0.0
N1038 N 0.11112 0.48355 0.58832 0.0
C1039 C 0.12112 0.50098 0.61007 0.0
C1040 C 0.10571 0.51101 0.61471 0.0
C1041 C 0.06319 0.50042 0.59185 0.0
H1042 H 0.06303 0.50862 0.56978 0.0
H1043 H 0.04663 0.48148 0.59306 0.0
H1044 H 0.0619 0.51206 0.60991 0.0
O1045 O 0.09111 0.46193 0.51252 0.0
O1046 O 0.12573 0.46406 0.52968 0.0
H1047 H 0.15932 0.50989 0.60969 0.0
H1048 H 0.15203 0.52571 0.63857 0.0
C1049 C 0.14498 0.50792 0.62607 0.0
H1050 H 0.1418 0.49292 0.64209 0.0
H1051 H 0.17317 0.48751 0.55544 0.0
O1052 O 0.04624 0.46792 0.5338 0.0
C1053 C 0.11231 0.46383 0.50803 0.0
Co1054 Co 0.56516 0.62234 0.55487 0.0
Co1055 Co 0.56377 0.66986 0.57746 0.0
C1056 C 0.61057 0.66596 0.58112 0.0
O1057 O 0.59968 0.64402 0.56996 0.0
O1058 O 0.59899 0.67801 0.58525 0.0
C1059 C 0.5408 0.57612 0.52629 0.0
O1060 O 0.52657 0.58537 0.51843 0.0
C1061 C 0.56358 0.70796 0.61846 0.0
C1062 C 0.54002 0.71853 0.59206 0.0
C1063 C 0.55271 0.72303 0.619 0.0
N1064 N 0.55718 0.69499 0.59257 0.0
N1065 N 0.54324 0.70157 0.57691 0.0
C1066 C 0.58059 0.70657 0.6413 0.0
H1067 H 0.5925 0.69995 0.63086 0.0
H1068 H 0.56931 0.69313 0.65907 0.0
H1069 H 0.5925 0.7251 0.65181 0.0
C1070 C 0.52476 0.59814 0.59984 0.0
N1071 N 0.54172 0.6184 0.58471 0.0
N1072 N 0.54035 0.638 0.5935 0.0
C1073 C 0.52195 0.63063 0.61401 0.0
C1074 C 0.51154 0.60515 0.61871 0.0
C1075 C 0.52262 0.57296 0.59814 0.0
H1076 H 0.54125 0.5749 0.59464 0.0
H1077 H 0.51439 0.56213 0.61897 0.0
H1078 H 0.51036 0.56244 0.57904 0.0
O1079 O 0.56005 0.63689 0.51776 0.0
O1080 O 0.55967 0.6706 0.53378 0.0
H1081 H 0.49521 0.63653 0.63877 0.0
H1082 H 0.52754 0.65945 0.64479 0.0
C1083 C 0.51367 0.64737 0.6278 0.0
H1084 H 0.51239 0.65939 0.61031 0.0
H1085 H 0.53559 0.69418 0.55596 0.0
O1086 O 0.55972 0.58914 0.54281 0.0
C1087 C 0.55833 0.65619 0.51268 0.0
Co1088 Co 0.38417 0.93616 0.54081 0.0
Co1089 Co 0.33676 0.88802 0.56235 0.0
C1090 C 0.34156 0.93988 0.56429 0.0
O1091 O 0.36398 0.9509 0.55478 0.0
O1092 O 0.32924 0.91616 0.56749 0.0
C1093 C 0.43366 0.98245 0.52923 0.0
O1094 O 0.43245 0.99492 0.55242 0.0
C1095 C 0.29844 0.85424 0.60613 0.0
C1096 C 0.28455 0.81796 0.58331 0.0
C1097 C 0.28146 0.8288 0.60897 0.0
N1098 N 0.31093 0.85799 0.58015 0.0
N1099 N 0.3025 0.8362 0.5667 0.0
C1100 C 0.30215 0.87483 0.62693 0.0
H1101 H 0.31125 0.89301 0.61525 0.0
H1102 H 0.31447 0.87596 0.64568 0.0
H1103 H 0.28403 0.87119 0.63634 0.0
C1104 C 0.40869 0.91962 0.58475 0.0
N1105 N 0.3882 0.91701 0.57083 0.0
N1106 N 0.36849 0.89638 0.57999 0.0
C1107 C 0.37598 0.8852 0.60028 0.0
C1108 C 0.40176 0.89954 0.60385 0.0
C1109 C 0.43432 0.94144 0.58046 0.0
H1110 H 0.4406 0.94128 0.55719 0.0
H1111 H 0.43372 0.95889 0.58374 0.0
H1112 H 0.44795 0.94129 0.59649 0.0
O1113 O 0.36955 0.91581 0.50505 0.0
O1114 O 0.33616 0.88062 0.51834 0.0
H1115 H 0.34711 0.84699 0.59737 0.0
H1116 H 0.36968 0.85321 0.62672 0.0
C1117 C 0.35904 0.86061 0.61469 0.0
H1118 H 0.34671 0.86291 0.63085 0.0
H1119 H 0.30902 0.83376 0.54611 0.0
O1120 O 0.41633 0.96042 0.52411 0.0
C1121 C 0.35143 0.89456 0.49836 0.0
Co1122 Co 0.12387 0.40819 0.29206 0.0
Co1123 Co 0.11836 0.45332 0.26799 0.0
C1124 C 0.07589 0.4001 0.26436 0.0
O1125 O 0.08862 0.3912 0.27636 0.0
O1126 O 0.08529 0.4235 0.25963 0.0
C1127 C 0.12722 0.36211 0.29845 0.0
O1128 O 0.10761 0.3507 0.2809 0.0
C1129 C 0.11298 0.49029 0.22944 0.0
C1130 C 0.13443 0.52397 0.2574 0.0
C1131 C 0.12107 0.51572 0.23094 0.0
N1132 N 0.12143 0.48401 0.25393 0.0
N1133 N 0.13419 0.50429 0.27042 0.0
C1134 C 0.09651 0.47209 0.20615 0.0
H1135 H 0.08727 0.4528 0.21509 0.0
H1136 H 0.10793 0.47302 0.1865 0.0
H1137 H 0.0823 0.47682 0.19847 0.0
C1138 C 0.16376 0.42791 0.2462 0.0
N1139 N 0.14617 0.42958 0.26224 0.0
N1140 N 0.14438 0.44873 0.25259 0.0
C1141 C 0.16103 0.46005 0.23034 0.0
C1142 C 0.17377 0.44717 0.22543 0.0
C1143 C 0.16853 0.40649 0.24836 0.0
H1144 H 0.17661 0.40677 0.27067 0.0
H1145 H 0.15061 0.38876 0.24622 0.0
H1146 H 0.18135 0.40703 0.23065 0.0
O1147 O 0.12558 0.42686 0.32918 0.0
O1148 O 0.12068 0.4576 0.31161 0.0
H1149 H 0.1654 0.49666 0.22993 0.0
H1150 H 0.18182 0.49111 0.20022 0.0
C1151 C 0.16448 0.48259 0.21378 0.0
H1152 H 0.14832 0.47715 0.19871 0.0
H1153 H 0.14287 0.50473 0.29067 0.0
O1154 O 0.13554 0.38488 0.30517 0.0
C1155 C 0.12355 0.44611 0.3334 0.0
Co1156 Co 0.59852 0.70828 0.29562 0.0
Co1157 Co 0.54829 0.66283 0.27238 0.0
C1158 C 0.59901 0.6656 0.26662 0.0
O1159 O 0.61204 0.68752 0.27763 0.0
O1160 O 0.57537 0.65537 0.26425 0.0
C1161 C 0.64476 0.75827 0.30659 0.0
O1162 O 0.65561 0.75668 0.28202 0.0
C1163 C 0.51427 0.62799 0.22616 0.0
C1164 C 0.47806 0.61277 0.24945 0.0
C1165 C 0.4888 0.61152 0.2227 0.0
N1166 N 0.51812 0.63853 0.25353 0.0
N1167 N 0.4964 0.62929 0.26729 0.0
C1168 C 0.53475 0.63304 0.20451 0.0
H1169 H 0.55295 0.64106 0.21607 0.0
H1170 H 0.53604 0.64677 0.18759 0.0
H1171 H 0.53088 0.61563 0.19277 0.0
C1172 C 0.58154 0.7354 0.25545 0.0
N1173 N 0.57858 0.71423 0.26797 0.0
N1174 N 0.55722 0.69535 0.2589 0.0
C1175 C 0.54598 0.70394 0.24031 0.0
C1176 C 0.56102 0.72957 0.23756 0.0
C1177 C 0.60427 0.7605 0.25915 0.0
H1178 H 0.60593 0.76642 0.28292 0.0
H1179 H 0.62093 0.75921 0.25305 0.0
H1180 H 0.60372 0.7748 0.24472 0.0
O1181 O 0.57848 0.69063 0.33114 0.0
O1182 O 0.54222 0.65923 0.316 0.0
H1183 H 0.50768 0.67525 0.24324 0.0
H1184 H 0.51343 0.69959 0.21672 0.0
C1185 C 0.52093 0.68808 0.22625 0.0
H1186 H 0.52256 0.67677 0.20804 0.0
H1187 H 0.49409 0.63433 0.28888 0.0
O1188 O 0.62338 0.74053 0.31382 0.0
C1189 C 0.55705 0.67222 0.33684 0.0
Co1190 Co 0.28234 0.88173 0.28253 0.0
Co1191 Co 0.33218 0.88382 0.26347 0.0
C1192 C 0.32543 0.92945 0.26117 0.0
O1193 O 0.3028 0.91731 0.27008 0.0
O1194 O 0.33851 0.91881 0.25808 0.0
C1195 C 0.2336 0.88065 0.29154 0.0
O1196 O 0.24118 0.90184 0.27738 0.0
C1197 C 0.37455 0.89044 0.22445 0.0
C1198 C 0.38265 0.86278 0.24508 0.0
C1199 C 0.38962 0.87966 0.22167 0.0
N1200 N 0.35917 0.87997 0.24806 0.0
N1201 N 0.36435 0.86363 0.26034 0.0
C1202 C 0.37524 0.91086 0.20573 0.0
H1203 H 0.36955 0.92224 0.21915 0.0
H1204 H 0.36199 0.90256 0.18675 0.0
H1205 H 0.39422 0.92308 0.1966 0.0
C1206 C 0.26181 0.84306 0.23578 0.0
N1207 N 0.28114 0.86006 0.25211 0.0
N1208 N 0.30175 0.86062 0.24354 0.0
C1209 C 0.29612 0.84402 0.22096 0.0
C1210 C 0.27058 0.83242 0.21522 0.0
C1211 C 0.23523 0.83621 0.24116 0.0
H1212 H 0.23063 0.83141 0.26514 0.0
H1213 H 0.23288 0.85246 0.23596 0.0
H1214 H 0.22196 0.81996 0.22755 0.0
O1215 O 0.29537 0.87575 0.31954 0.0
O1216 O 0.33055 0.87667 0.30775 0.0
H1217 H 0.32431 0.83367 0.21958 0.0
H1218 H 0.30662 0.82726 0.18514 0.0
C1219 C 0.31505 0.84053 0.20406 0.0
H1220 H 0.32945 0.85873 0.195 0.0
H1221 H 0.35502 0.85268 0.27891 0.0
O1222 O 0.2481 0.87183 0.29439 0.0
C1223 C 0.31415 0.8739 0.32702 0.0
H1224 H 0.18875 0.23472 0.28352 0.0
H1225 H 0.21561 0.18595 0.31343 0.0
H1226 H 0.22174 0.17772 0.2615 0.0
H1227 H 0.225 0.1891 0.20832 0.0
H1228 H 0.19738 0.23705 0.17801 0.0
H1229 H 0.1857 0.2407 0.22944 0.0
C1230 C 0.19551 0.22194 0.27861 0.0
C1231 C 0.20216 0.21132 0.30221 0.0
C1232 C 0.19907 0.21736 0.24873 0.0
C1233 C 0.21046 0.19444 0.29563 0.0
C1234 C 0.21413 0.18985 0.26596 0.0
C1235 C 0.21603 0.2 0.21298 0.0
C1236 C 0.21242 0.21316 0.18971 0.0
C1237 C 0.20938 0.20195 0.24245 0.0
C1238 C 0.20039 0.22685 0.19571 0.0
C1239 C 0.19386 0.22904 0.22509 0.0
H1240 H 0.792 0.98227 0.19796 0.0
H1241 H 0.81701 0.06004 0.21445 0.0
H1242 H 0.81978 0.05394 0.26806 0.0
H1243 H 0.80917 0.02529 0.31068 0.0
H1244 H 0.78018 0.94692 0.29428 0.0
H1245 H 0.78552 0.9545 0.24028 0.0
C1246 C 0.79846 0.99797 0.21322 0.0
C1247 C 0.80388 0.02145 0.20232 0.0
C1248 C 0.7993 0.99419 0.2441 0.0
C1249 C 0.81231 0.04165 0.22236 0.0
C1250 C 0.81396 0.03821 0.25302 0.0
C1251 C 0.80483 0.01007 0.29526 0.0
C1252 C 0.79436 0.98564 0.30619 0.0
C1253 C 0.80669 0.0144 0.26424 0.0
C1254 C 0.78831 0.9659 0.28615 0.0
C1255 C 0.79117 0.9702 0.25533 0.0
H1256 H 0.97842 0.7764 0.30352 0.0
H1257 H 0.05839 0.81922 0.29438 0.0
H1258 H 0.0544 0.81992 0.24 0.0
H1259 H 0.02845 0.80363 0.19466 0.0
H1260 H 0.94866 0.75815 0.20392 0.0
H1261 H 0.95224 0.76342 0.25821 0.0
C1262 C 0.99489 0.78637 0.28963 0.0
C1263 C 0.01862 0.79757 0.30289 0.0
C1264 C 0.99251 0.78595 0.25822 0.0
C1265 C 0.03988 0.81025 0.28462 0.0
C1266 C 0.03763 0.81062 0.2535 0.0
C1267 C 0.01186 0.79534 0.20855 0.0
C1268 C 0.9884 0.78034 0.19532 0.0
C1269 C 0.01409 0.7978 0.23996 0.0
C1270 C 0.96701 0.76956 0.21362 0.0
C1271 C 0.96901 0.77254 0.2447 0.0
H1272 H 0.82013 0.77893 0.72668 0.0
H1273 H 0.79327 0.8272 0.69495 0.0
H1274 H 0.7826 0.83239 0.74615 0.0
H1275 H 0.77673 0.81949 0.79915 0.0
H1276 H 0.80517 0.77263 0.83113 0.0
H1277 H 0.81947 0.77069 0.78067 0.0
C1278 C 0.81234 0.79093 0.73107 0.0
C1279 C 0.80722 0.8024 0.70705 0.0
C1280 C 0.80625 0.79384 0.76054 0.0
C1281 C 0.79742 0.81816 0.71305 0.0
C1282 C 0.79111 0.82098 0.74231 0.0
C1283 C 0.78629 0.80908 0.79506 0.0
C1284 C 0.78956 0.79592 0.81865 0.0
C1285 C 0.79475 0.8083 0.76608 0.0
C1286 C 0.80236 0.78286 0.81327 0.0
C1287 C 0.81048 0.78167 0.78442 0.0
H1288 H 0.19034 0.96181 0.79235 0.0
H1289 H 0.22972 0.03895 0.81991 0.0
H1290 H 0.23287 0.05219 0.76766 0.0
H1291 H 0.22801 0.0417 0.71392 0.0
H1292 H 0.18687 0.96455 0.68654 0.0
H1293 H 0.18049 0.9514 0.73899 0.0
C1294 C 0.19933 0.9815 0.78687 0.0
C1295 C 0.2101 0.9994 0.80976 0.0
C1296 C 0.20082 0.98894 0.75688 0.0
C1297 C 0.22133 0.02485 0.80258 0.0
C1298 C 0.22325 0.03242 0.77273 0.0
C1299 C 0.21735 0.02204 0.71951 0.0
C1300 C 0.20821 0.0041 0.6965 0.0
C1301 C 0.2136 0.01463 0.74967 0.0
C1302 C 0.1941 0.9787 0.70392 0.0
C1303 C 0.19058 0.97116 0.73388 0.0
H1304 H 0.9589 0.18753 0.70654 0.0
H1305 H 0.03495 0.23442 0.67751 0.0
H1306 H 0.04964 0.23713 0.72897 0.0
H1307 H 0.04034 0.23004 0.78275 0.0
H1308 H 0.96447 0.18214 0.81173 0.0
H1309 H 0.95027 0.17556 0.75966 0.0
C1310 C 0.97871 0.19807 0.71148 0.0
C1311 C 0.99579 0.21109 0.68845 0.0
C1312 C 0.98703 0.19941 0.74105 0.0
C1313 C 0.02143 0.22431 0.69494 0.0
C1314 C 0.02984 0.22596 0.72435 0.0
C1315 C 0.02076 0.21783 0.77759 0.0
C1316 C 0.00343 0.20689 0.80097 0.0
C1317 C 0.01274 0.21416 0.74767 0.0
C1318 C 0.97817 0.1908 0.79407 0.0
C1319 C 0.97001 0.18717 0.76433 0.0
H1320 H 0.85475 0.56081 0.62177 0.0
H1321 H 0.89187 0.52105 0.65073 0.0
H1322 H 0.89617 0.51145 0.5987 0.0
H1323 H 0.89329 0.51818 0.54492 0.0
H1324 H 0.85454 0.55621 0.5157 0.0
H1325 H 0.84655 0.56231 0.56789 0.0
C1326 C 0.8635 0.54979 0.61664 0.0
C1327 C 0.87332 0.54197 0.63994 0.0
C1328 C 0.86565 0.54409 0.58669 0.0
C1329 C 0.88423 0.52734 0.63313 0.0
C1330 C 0.88679 0.52193 0.6034 0.0
C1331 C 0.88273 0.52742 0.55003 0.0
C1332 C 0.87477 0.53701 0.52665 0.0
C1333 C 0.87814 0.53076 0.57999 0.0
C1334 C 0.86082 0.54865 0.5334 0.0
C1335 C 0.85642 0.55231 0.56322 0.0
H1336 H 0.44732 0.31076 0.52041 0.0
H1337 H 0.48148 0.38984 0.53702 0.0
H1338 H 0.48264 0.38281 0.59076 0.0
H1339 H 0.4697 0.35384 0.63342 0.0
H1340 H 0.43199 0.2746 0.6169 0.0
H1341 H 0.43682 0.282 0.56284 0.0
C1342 C 0.45539 0.32648 0.53574 0.0
C1343 C 0.46414 0.35075 0.52477 0.0
C1344 C 0.45527 0.32224 0.5667 0.0
C1345 C 0.4744 0.37093 0.54495 0.0
C1346 C 0.47508 0.36694 0.57568 0.0
C1347 C 0.46309 0.33825 0.61795 0.0
C1348 C 0.45055 0.31373 0.62902 0.0
C1349 C 0.46498 0.34263 0.58689 0.0
C1350 C 0.44167 0.29365 0.6088 0.0
C1351 C 0.44434 0.29787 0.57792 0.0
H1352 H 0.64853 0.11809 0.6357 0.0
H1353 H 0.72818 0.15165 0.62578 0.0
H1354 H 0.72402 0.15091 0.57124 0.0
H1355 H 0.6973 0.13586 0.52644 0.0
H1356 H 0.61737 0.09866 0.53674 0.0
H1357 H 0.62201 0.10583 0.59077 0.0
C1358 C 0.66497 0.12576 0.62155 0.0
C1359 C 0.68858 0.13485 0.63461 0.0
C1360 C 0.66234 0.12431 0.5902 0.0
C1361 C 0.70977 0.14444 0.61611 0.0
C1362 C 0.70741 0.14395 0.58495 0.0
C1363 C 0.68096 0.12977 0.5405 0.0
C1364 C 0.65707 0.11661 0.52771 0.0
C1365 C 0.68372 0.13318 0.57172 0.0
C1366 C 0.636 0.10862 0.54616 0.0
C1367 C 0.63861 0.11271 0.57706 0.0
H1368 H 0.47896 0.11637 0.13624 0.0
H1369 H 0.44004 0.15745 0.12524 0.0
H1370 H 0.44469 0.15733 0.07088 0.0
H1371 H 0.45488 0.1408 0.02633 0.0
H1372 H 0.49065 0.09666 0.0373 0.0
H1373 H 0.49241 0.10289 0.09148 0.0
C1374 C 0.47208 0.12581 0.12192 0.0
C1375 C 0.45913 0.13682 0.13462 0.0
C1376 C 0.47394 0.12481 0.09056 0.0
C1377 C 0.44998 0.14872 0.11587 0.0
C1378 C 0.45255 0.1486 0.08479 0.0
C1379 C 0.46349 0.13298 0.04055 0.0
C1380 C 0.47239 0.11812 0.02785 0.0
C1381 C 0.46373 0.13596 0.07183 0.0
C1382 C 0.48339 0.10796 0.04657 0.0
C1383 C 0.48441 0.1115 0.07758 0.0
H1384 H 0.8585 0.29049 0.12009 0.0
H1385 H 0.88729 0.3664 0.14989 0.0
H1386 H 0.89221 0.38045 0.09791 0.0
H1387 H 0.89342 0.3718 0.04444 0.0
H1388 H 0.86377 0.29592 0.0143 0.0
H1389 H 0.85372 0.28108 0.06607 0.0
C1390 C 0.86548 0.31004 0.11515 0.0
C1391 C 0.87295 0.32746 0.13866 0.0
C1392 C 0.86825 0.31798 0.08526 0.0
C1393 C 0.88152 0.35267 0.13211 0.0
C1394 C 0.88447 0.36073 0.10242 0.0
C1395 C 0.88439 0.35199 0.04923 0.0
C1396 C 0.8797 0.33497 0.02587 0.0
C1397 C 0.87869 0.34366 0.07889 0.0
C1398 C 0.86759 0.30932 0.03207 0.0
C1399 C 0.86201 0.30087 0.06163 0.0
H1400 H 0.6811 0.54223 0.01809 0.0
H1401 H 0.60287 0.51646 0.03129 0.0
H1402 H 0.60809 0.51561 0.08549 0.0
H1403 H 0.63596 0.52733 0.1294 0.0
H1404 H 0.71472 0.55656 0.11573 0.0
H1405 H 0.70822 0.55061 0.06169 0.0
C1406 C 0.6651 0.53594 0.03279 0.0
C1407 C 0.64171 0.52962 0.02072 0.0
C1408 C 0.66839 0.53632 0.06398 0.0
C1409 C 0.62117 0.52166 0.04008 0.0
C1410 C 0.62412 0.52119 0.07109 0.0
C1411 C 0.65154 0.53183 0.11457 0.0
C1412 C 0.67576 0.54246 0.1264 0.0
C1413 C 0.6478 0.52925 0.08336 0.0
C1414 C 0.69591 0.54851 0.10702 0.0
C1415 C 0.69222 0.54516 0.07613 0.0
H1416 H 0.5269 0.89616 0.9606 0.0
H1417 H 0.55935 0.85089 0.98456 0.0
H1418 H 0.56406 0.84408 0.93152 0.0
H1419 H 0.5625 0.85429 0.87851 0.0
H1420 H 0.52846 0.8981 0.85451 0.0
H1421 H 0.52058 0.902 0.90741 0.0
C1422 C 0.53472 0.88456 0.95417 0.0
C1423 C 0.54307 0.87431 0.9764 0.0
C1424 C 0.53721 0.8806 0.92368 0.0
C1425 C 0.55281 0.859 0.96784 0.0
C1426 C 0.55563 0.85522 0.93752 0.0
C1427 C 0.55311 0.86445 0.88488 0.0
C1428 C 0.54637 0.87618 0.86273 0.0
C1429 C 0.54846 0.86643 0.91528 0.0
C1430 C 0.53386 0.88895 0.87118 0.0
C1431 C 0.52946 0.89128 0.90142 0.0
H1432 H 0.14428 0.69831 0.96807 0.0
H1433 H 0.11289 0.61955 0.95198 0.0
H1434 H 0.11605 0.62663 0.89785 0.0
H1435 H 0.12248 0.6544 0.8555 0.0
H1436 H 0.15002 0.73267 0.8717 0.0
H1437 H 0.15376 0.72671 0.92519 0.0
C1438 C 0.13881 0.68287 0.95262 0.0
C1439 C 0.12847 0.6585 0.96378 0.0
C1440 C 0.13957 0.68695 0.92154 0.0
C1441 C 0.12095 0.63848 0.94371 0.0
C1442 C 0.12261 0.6425 0.91282 0.0
C1443 C 0.12969 0.67023 0.87066 0.0
C1444 C 0.13572 0.69387 0.85969 0.0
C1445 C 0.13106 0.66654 0.9015 0.0
C1446 C 0.14496 0.71419 0.87965 0.0
C1447 C 0.14714 0.71082 0.91024 0.0
H1448 H 0.37656 0.47843 0.94847 0.0
H1449 H 0.30013 0.4505 0.97529 0.0
H1450 H 0.28689 0.44283 0.92291 0.0
H1451 H 0.29652 0.43994 0.87007 0.0
H1452 H 0.37305 0.46922 0.843 0.0
H1453 H 0.38681 0.48061 0.89492 0.0
C1454 C 0.35706 0.47103 0.94278 0.0
C1455 C 0.33931 0.46473 0.96569 0.0
C1456 C 0.34957 0.46666 0.91265 0.0
C1457 C 0.31416 0.45549 0.95805 0.0
C1458 C 0.30654 0.45092 0.92812 0.0
C1459 C 0.31622 0.44903 0.87556 0.0
C1460 C 0.33373 0.45338 0.85295 0.0
C1461 C 0.32399 0.45575 0.90534 0.0
C1462 C 0.35924 0.4656 0.86013 0.0
C1463 C 0.3671 0.47204 0.88979 0.0
H1464 H 0.14384 0.4392 0.38416 0.0
H1465 H 0.10011 0.47106 0.35156 0.0
H1466 H 0.09394 0.48081 0.40273 0.0
H1467 H 0.09832 0.47747 0.45698 0.0
H1468 H 0.14379 0.44762 0.48969 0.0
H1469 H 0.15219 0.44024 0.43833 0.0
C1470 C 0.13315 0.44845 0.38831 0.0
C1471 C 0.12222 0.45412 0.3642 0.0
C1472 C 0.12994 0.45436 0.4178 0.0
C1473 C 0.10871 0.46647 0.36978 0.0
C1474 C 0.10509 0.47199 0.39904 0.0
C1475 C 0.1103 0.46962 0.45281 0.0
C1476 C 0.12018 0.46286 0.47704 0.0
C1477 C 0.11523 0.46561 0.42325 0.0
C1478 C 0.13595 0.45301 0.47138 0.0
C1479 C 0.14066 0.44863 0.44202 0.0
H1480 H 0.53681 0.62487 0.46544 0.0
H1481 H 0.57557 0.70271 0.49022 0.0
H1482 H 0.57677 0.71456 0.43778 0.0
H1483 H 0.57017 0.70289 0.38464 0.0
H1484 H 0.52968 0.62523 0.35952 0.0
H1485 H 0.52536 0.61312 0.41244 0.0
C1486 C 0.5453 0.6444 0.4593 0.0
C1487 C 0.55642 0.66292 0.48149 0.0
C1488 C 0.5456 0.65107 0.42915 0.0
C1489 C 0.56696 0.68814 0.47347 0.0
C1490 C 0.56773 0.69493 0.44351 0.0
C1491 C 0.56008 0.68333 0.39084 0.0
C1492 C 0.5505 0.66495 0.3684 0.0
C1493 C 0.55759 0.67658 0.42115 0.0
C1494 C 0.53716 0.63968 0.37654 0.0
C1495 C 0.53487 0.63276 0.40673 0.0
H1496 H 0.35735 0.88934 0.35813 0.0
H1497 H 0.27738 0.85028 0.3682 0.0
H1498 H 0.28166 0.84998 0.42258 0.0
H1499 H 0.30818 0.86559 0.46765 0.0
H1500 H 0.3881 0.90739 0.45734 0.0
H1501 H 0.38385 0.90159 0.40313 0.0
C1502 C 0.3409 0.88028 0.37222 0.0
C1503 C 0.31714 0.87004 0.35918 0.0
C1504 C 0.34349 0.8809 0.40362 0.0
C1505 C 0.29594 0.85853 0.37774 0.0
C1506 C 0.29834 0.85837 0.40888 0.0
C1507 C 0.32461 0.87291 0.45354 0.0
C1508 C 0.34836 0.88703 0.46644 0.0
C1509 C 0.32203 0.87022 0.42216 0.0
C1510 C 0.36955 0.89663 0.44788 0.0
C1511 C 0.36717 0.89337 0.41685 0.0
H1512 H 0.26016 0.29882 0.08294 0.0
H1513 H 0.32672 0.29399 0.096 0.0
H1514 H 0.35253 0.33879 0.08579 0.0
H1515 H 0.35592 0.37972 0.07365 0.0
H1516 H 0.28823 0.3832 0.06361 0.0
H1517 H 0.26331 0.33868 0.0721 0.0
C1518 C 0.28033 0.30745 0.08339 0.0
C1519 C 0.29146 0.29299 0.09002 0.0
C1520 C 0.29492 0.33312 0.07812 0.0
C1521 C 0.31764 0.30467 0.09093 0.0
C1522 C 0.3324 0.3303 0.08508 0.0
C1523 C 0.33574 0.37067 0.0733 0.0
C1524 C 0.32406 0.38492 0.06802 0.0
C1525 C 0.32124 0.34478 0.07874 0.0
C1526 C 0.29783 0.37288 0.06781 0.0
C1527 C 0.28346 0.34731 0.07258 0.0
H1528 H 0.62839 0.97466 0.07876 0.0
H1529 H 0.62384 0.90316 0.09071 0.0
H1530 H 0.66838 0.92372 0.1002 0.0
H1531 H 0.70886 0.96159 0.10441 0.0
H1532 H 0.71436 0.03356 0.09468 0.0
H1533 H 0.66939 0.01324 0.08507 0.0
C1534 C 0.63712 0.96359 0.08354 0.0
C1535 C 0.62257 0.93731 0.08386 0.0
C1536 C 0.66302 0.9756 0.0893 0.0
C1537 C 0.63434 0.92336 0.09029 0.0
C1538 C 0.65994 0.9351 0.09568 0.0
C1539 C 0.70031 0.97292 0.10012 0.0
C1540 C 0.71509 0.9991 0.10005 0.0
C1541 C 0.67448 0.96115 0.09507 0.0
C1542 C 0.70349 0.01338 0.09484 0.0
C1543 C 0.67775 0.00175 0.08932 0.0
H1544 H 0.0475 0.74562 0.09268 0.0
H1545 H 0.97484 0.67999 0.08433 0.0
H1546 H 0.99416 0.65467 0.07378 0.0
H1547 H 0.03176 0.651 0.06701 0.0
H1548 H 0.10435 0.71649 0.07754 0.0
H1549 H 0.08499 0.74176 0.08729 0.0
C1550 C 0.03588 0.7258 0.08843 0.0
C1551 C 0.00973 0.71481 0.0892 0.0
C1552 C 0.04711 0.71119 0.0829 0.0
C1553 C 0.99501 0.689 0.08394 0.0
C1554 C 0.00604 0.67446 0.07789 0.0
C1555 C 0.04336 0.67078 0.0715 0.0
C1556 C 0.06953 0.68171 0.07146 0.0
C1557 C 0.03209 0.68532 0.07738 0.0
C1558 C 0.08419 0.70742 0.07749 0.0
C1559 C 0.07313 0.72199 0.08299 0.0
H1560 H 0.3715 0.29508 0.41889 0.0
H1561 H 0.38027 0.36881 0.41836 0.0
H1562 H 0.33566 0.351 0.40872 0.0
H1563 H 0.29372 0.31412 0.40113 0.0
H1564 H 0.28579 0.24067 0.40376 0.0
H1565 H 0.33025 0.25876 0.41193 0.0
C1566 C 0.36373 0.30731 0.41654 0.0
C1567 C 0.37928 0.33324 0.41931 0.0
C1568 C 0.33804 0.29697 0.41149 0.0
C1569 C 0.36875 0.34875 0.41641 0.0
C1570 C 0.34321 0.33858 0.41088 0.0
C1571 C 0.30175 0.30212 0.40347 0.0
C1572 C 0.28627 0.27605 0.40196 0.0
C1573 C 0.32759 0.31267 0.40851 0.0
C1574 C 0.29707 0.26079 0.40513 0.0
C1575 C 0.3226 0.2711 0.40969 0.0
H1576 H 0.68933 0.9776 0.40876 0.0
H1577 H 0.75974 0.04297 0.38798 0.0
H1578 H 0.7417 0.0695 0.39593 0.0
H1579 H 0.70675 0.07473 0.41056 0.0
H1580 H 0.63599 0.01025 0.43251 0.0
H1581 H 0.65324 0.98297 0.42222 0.0
C1582 C 0.70058 0.99762 0.40577 0.0
C1583 C 0.72596 0.00828 0.39821 0.0
C1584 C 0.69008 0.01303 0.4107 0.0
C1585 C 0.74032 0.03428 0.39442 0.0
C1586 C 0.73 0.04953 0.39882 0.0
C1587 C 0.69498 0.05471 0.41303 0.0
C1588 C 0.67012 0.04466 0.42245 0.0
C1589 C 0.70503 0.03918 0.40735 0.0
C1590 C 0.65524 0.01859 0.4254 0.0
C1591 C 0.66509 0.00294 0.41951 0.0
H1592 H 0.97891 0.6245 0.4266 0.0
H1593 H 0.90649 0.61871 0.42069 0.0
H1594 H 0.92588 0.66314 0.41117 0.0
H1595 H 0.96303 0.70377 0.40454 0.0
H1596 H 0.03584 0.71049 0.40813 0.0
H1597 H 0.01671 0.66579 0.41851 0.0
C1598 C 0.96742 0.63299 0.42321 0.0
C1599 C 0.94124 0.61813 0.42435 0.0
C1600 C 0.97874 0.6588 0.41736 0.0
C1601 C 0.92665 0.6295 0.41974 0.0
C1602 C 0.93772 0.65501 0.41439 0.0
C1603 C 0.97479 0.69554 0.40768 0.0
C1604 C 1.00084 0.71054 0.40569 0.0
C1605 C 0.96369 0.66984 0.41317 0.0
C1606 C 0.01571 0.6994 0.4095 0.0
C1607 C 0.00478 0.67381 0.41548 0.0
H1608 H 0.64199 0.62852 0.92137 0.0
H1609 H 0.70723 0.62046 0.92973 0.0
H1610 H 0.73408 0.6653 0.92694 0.0
H1611 H 0.73971 0.70695 0.9213 0.0
H1612 H 0.67556 0.71625 0.91 0.0
H1613 H 0.64788 0.67111 0.91494 0.0
C1614 C 0.66207 0.6366 0.9226 0.0
C1615 C 0.67241 0.62091 0.92572 0.0
C1616 C 0.67774 0.66276 0.92054 0.0
C1617 C 0.69856 0.63184 0.92714 0.0
C1618 C 0.71407 0.65762 0.92565 0.0
C1619 C 0.71966 0.6992 0.92016 0.0
C1620 C 0.70979 0.71507 0.91546 0.0
C1621 C 0.70392 0.67325 0.92229 0.0
C1622 C 0.68373 0.70451 0.91363 0.0
C1623 C 0.66786 0.67866 0.91642 0.0
H1624 H 0.37687 0.07855 0.93456 0.0
H1625 H 0.38482 0.01391 0.92008 0.0
H1626 H 0.33976 0.98829 0.91163 0.0
H1627 H 0.29788 0.98452 0.90762 0.0
H1628 H 0.29101 0.04963 0.92479 0.0
H1629 H 0.33562 0.07452 0.93301 0.0
C1630 C 0.36882 0.05886 0.92949 0.0
C1631 C 0.38431 0.04827 0.92772 0.0
C1632 C 0.34293 0.04421 0.9252 0.0
C1633 C 0.37338 0.02261 0.92155 0.0
C1634 C 0.34758 0.00794 0.91669 0.0
C1635 C 0.30613 0.00411 0.91329 0.0
C1636 C 0.29087 0.01504 0.91542 0.0
C1637 C 0.33212 0.01855 0.91838 0.0
C1638 C 0.30204 0.04051 0.92298 0.0
C1639 C 0.32769 0.05491 0.92764 0.0
H1640 H 0.92295 0.29312 0.9196 0.0
H1641 H 0.98906 0.36566 0.92442 0.0
H1642 H 0.01509 0.34684 0.91447 0.0
H1643 H 0.01896 0.30934 0.90486 0.0
H1644 H 0.95219 0.23697 0.90317 0.0
H1645 H 0.92672 0.25617 0.91152 0.0
C1646 C 0.94305 0.3049 0.91826 0.0
C1647 C 0.954 0.33079 0.9225 0.0
C1648 C 0.95787 0.29393 0.91326 0.0
C1649 C 0.98013 0.34567 0.9212 0.0
C1650 C 0.99503 0.33491 0.91552 0.0
C1651 C 0.99885 0.29782 0.90634 0.0
C1652 C 0.98761 0.27171 0.90339 0.0
C1653 C 0.98411 0.30899 0.91161 0.0
C1654 C 0.96148 0.25706 0.90555 0.0
C1655 C 0.94679 0.26803 0.91021 0.0
H1656 H 0.72417 0.70187 0.60762 0.0
H1657 H 0.72947 0.77363 0.59516 0.0
H1658 H 0.68469 0.75345 0.5871 0.0
H1659 H 0.6438 0.7156 0.58362 0.0
H1660 H 0.63818 0.64358 0.59328 0.0
H1661 H 0.68308 0.66366 0.60259 0.0
C1662 C 0.71554 0.71308 0.60306 0.0
C1663 C 0.73032 0.73927 0.60209 0.0
C1664 C 0.68961 0.70132 0.59812 0.0
C1665 C 0.71873 0.75345 0.59598 0.0
C1666 C 0.69302 0.74194 0.59147 0.0
C1667 C 0.65236 0.70429 0.58799 0.0
C1668 C 0.63761 0.67814 0.58798 0.0
C1669 C 0.67825 0.71592 0.5926 0.0
C1670 C 0.6491 0.66376 0.59319 0.0
C1671 C 0.67479 0.67523 0.59849 0.0
H1672 H 0.29187 0.92386 0.56699 0.0
H1673 H 0.36405 0.9899 0.57629 0.0
H1674 H 0.34418 0.01483 0.58651 0.0
H1675 H 0.30603 0.0179 0.5929 0.0
H1676 H 0.23412 0.95171 0.58104 0.0
H1677 H 0.25413 0.92712 0.57161 0.0
C1678 C 0.30327 0.94369 0.57139 0.0
C1679 C 0.32942 0.95491 0.57103 0.0
C1680 C 0.29174 0.95802 0.57666 0.0
C1681 C 0.34388 0.98073 0.5764 0.0
C1682 C 0.33252 0.99503 0.58226 0.0
C1683 C 0.29475 0.99813 0.58815 0.0
C1684 C 0.26854 0.98682 0.58777 0.0
C1685 C 0.30643 0.9839 0.5824 0.0
C1686 C 0.2543 0.96111 0.58143 0.0
C1687 C 0.26572 0.94689 0.57611 0.0
H1688 H 0.03609 0.30078 0.59777 0.0
H1689 H 0.96238 0.29067 0.58676 0.0
H1690 H 0.98044 0.33589 0.57963 0.0
H1691 H 0.01791 0.37846 0.57537 0.0
H1692 H 0.09082 0.38663 0.58958 0.0
H1693 H 0.07224 0.34216 0.59672 0.0
C1694 C 0.02388 0.30839 0.5937 0.0
C1695 C 0.99796 0.29235 0.59236 0.0
C1696 C 0.0343 0.33418 0.59028 0.0
C1697 C 0.98243 0.30263 0.58775 0.0
C1698 C 0.99278 0.32847 0.58366 0.0
C1699 C 0.02967 0.37049 0.5802 0.0
C1700 C 0.05581 0.38611 0.5817 0.0
C1701 C 0.01878 0.34449 0.58472 0.0
C1702 C 0.0707 0.37534 0.58821 0.0
C1703 C 0.06012 0.34977 0.59225 0.0
H1704 H 0.03966 0.63515 0.7674 0.0
H1705 H 0.04319 0.70599 0.75494 0.0
H1706 H 0.9981 0.6845 0.74583 0.0
H1707 H 0.95762 0.64522 0.74033 0.0
H1708 H 0.95493 0.57487 0.75514 0.0
H1709 H 0.99957 0.59658 0.76448 0.0
C1710 C 0.03063 0.64596 0.76267 0.0
C1711 C 0.04491 0.67218 0.76162 0.0
C1712 C 0.00473 0.63353 0.75789 0.0
C1713 C 0.03272 0.68581 0.75587 0.0
C1714 C 0.00691 0.67351 0.75061 0.0
C1715 C 0.96678 0.63465 0.74572 0.0
C1716 C 0.95275 0.60835 0.74683 0.0
C1717 C 0.9927 0.64733 0.75141 0.0
C1718 C 0.96505 0.59506 0.75408 0.0
C1719 C 0.99069 0.60746 0.75938 0.0
H1720 H 0.37086 0.40554 0.73904 0.0
H1721 H 0.29915 0.34171 0.75917 0.0
H1722 H 0.31613 0.31393 0.75008 0.0
H1723 H 0.35224 0.308 0.73775 0.0
H1724 H 0.4237 0.37318 0.71984 0.0
H1725 H 0.40587 0.39993 0.72673 0.0
C1726 C 0.35877 0.38554 0.7413 0.0
C1727 C 0.33372 0.37582 0.74976 0.0
C1728 C 0.36871 0.3698 0.73657 0.0
C1729 C 0.31853 0.34979 0.75271 0.0
C1730 C 0.32825 0.33387 0.74753 0.0
C1731 C 0.3638 0.32803 0.73527 0.0
C1732 C 0.38936 0.33847 0.72853 0.0
C1733 C 0.35344 0.34367 0.73966 0.0
C1734 C 0.40409 0.36453 0.72544 0.0
C1735 C 0.3939 0.37996 0.72925 0.0
H1736 H 0.5873 0.96299 0.75448 0.0
H1737 H 0.65049 0.95131 0.75603 0.0
H1738 H 0.67856 0.99567 0.74632 0.0
H1739 H 0.68527 0.0381 0.73804 0.0
H1740 H 0.62181 0.04948 0.73893 0.0
H1741 H 0.59397 0.00512 0.74712 0.0
C1742 C 0.6072 0.97008 0.7525 0.0
C1743 C 0.6167 0.95375 0.75585 0.0
C1744 C 0.6233 0.99569 0.74751 0.0
C1745 C 0.64261 0.96341 0.75357 0.0
C1746 C 0.65871 0.98881 0.74802 0.0
C1747 C 0.66536 0.03088 0.74002 0.0
C1748 C 0.65577 0.04726 0.7378 0.0
C1749 C 0.64929 0.00519 0.74509 0.0
C1750 C 0.62986 0.03747 0.7406 0.0
C1751 C 0.61383 0.01201 0.74523 0.0
H1752 H 0.35934 0.04332 0.23746 0.0
H1753 H 0.43146 0.04814 0.23714 0.0
H1754 H 0.41191 0.00351 0.24553 0.0
H1755 H 0.37467 0.96294 0.25325 0.0
H1756 H 0.3023 0.95734 0.25535 0.0
H1757 H 0.32158 0.00215 0.24593 0.0
C1758 C 0.37076 0.0346 0.23921 0.0
C1759 C 0.3969 0.04929 0.23673 0.0
C1760 C 0.35936 0.00866 0.24433 0.0
C1761 C 0.41135 0.03754 0.23918 0.0
C1762 C 0.40018 0.01189 0.24389 0.0
C1763 C 0.36303 0.97144 0.25154 0.0
C1764 C 0.33703 0.95665 0.25493 0.0
C1765 C 0.37424 0.99726 0.24653 0.0
C1766 C 0.32237 0.96818 0.25288 0.0
C1767 C 0.33339 0.99386 0.24747 0.0
H1768 H 0.96349 0.31672 0.23918 0.0
H1769 H 0.95459 0.38157 0.24627 0.0
H1770 H 0.99904 0.40799 0.25414 0.0
H1771 H 0.0405 0.41327 0.25918 0.0
H1772 H 0.05066 0.34922 0.25545 0.0
H1773 H 0.00589 0.32209 0.24602 0.0
C1774 C 0.97131 0.33661 0.2425 0.0
C1775 C 0.95552 0.347 0.24208 0.0
C1776 C 0.99719 0.35196 0.2475 0.0
C1777 C 0.96606 0.37287 0.2466 0.0
C1778 C 0.9916 0.38813 0.25101 0.0
C1779 C 0.03303 0.39339 0.25609 0.0
C1780 C 0.04899 0.38337 0.25773 0.0
C1781 C 0.00733 0.37793 0.25145 0.0
C1782 C 0.03881 0.35747 0.2542 0.0
C1783 C 0.01319 0.34194 0.24884 0.0
H1784 H 0.649 0.68038 0.26079 0.0
H1785 H 0.57501 0.61633 0.25266 0.0
H1786 H 0.59251 0.5901 0.24022 0.0
H1787 H 0.62834 0.58464 0.23196 0.0
H1788 H 0.70271 0.64799 0.23742 0.0
H1789 H 0.68557 0.67498 0.2505 0.0
C1790 C 0.63675 0.66072 0.25622 0.0
C1791 C 0.61068 0.6505 0.25781 0.0
C1792 C 0.64697 0.64546 0.24864 0.0
C1793 C 0.59512 0.62491 0.25162 0.0
C1794 C 0.60509 0.60974 0.24453 0.0
C1795 C 0.64088 0.60434 0.23612 0.0
C1796 C 0.66678 0.61419 0.23394 0.0
C1797 C 0.63093 0.61975 0.2431 0.0
C1798 C 0.68267 0.63987 0.23897 0.0
C1799 C 0.67287 0.65532 0.24647 0.0
H1800 H 0.33783 0.19184 0.11722 0.0
H1801 H 0.30536 0.20116 0.19833 0.0
H1802 H 0.31736 0.17448 0.22555 0.0
H1803 H 0.33708 0.14834 0.2263 0.0
H1804 H 0.36898 0.1387 0.14481 0.0
H1805 H 0.35683 0.16521 0.11774 0.0
C1806 C 0.33373 0.18833 0.14095 0.0
C1807 C 0.321 0.1987 0.1558 0.0
C1808 C 0.34018 0.17251 0.15632 0.0
C1809 C 0.31531 0.19352 0.18642 0.0
C1810 C 0.32203 0.17814 0.20198 0.0
C1811 C 0.341 0.15172 0.20253 0.0
C1812 C 0.35382 0.14145 0.18761 0.0
C1813 C 0.33429 0.16735 0.1871 0.0
C1814 C 0.35909 0.14634 0.15685 0.0
C1815 C 0.35228 0.16163 0.14135 0.0
H1816 H 0.85014 0.22103 0.15779 0.0
H1817 H 0.88788 0.1979 0.22055 0.0
H1818 H 0.86428 0.15522 0.20139 0.0
H1819 H 0.83225 0.12442 0.16795 0.0
H1820 H 0.79413 0.14742 0.1056 0.0
H1821 H 0.81854 0.19034 0.1238 0.0
C1822 C 0.85342 0.20675 0.16717 0.0
C1823 C 0.87085 0.21275 0.19061 0.0
C1824 C 0.83954 0.18221 0.15636 0.0
C1825 C 0.87467 0.19388 0.2025 0.0
C1826 C 0.8611 0.16944 0.19163 0.0
C1827 C 0.82915 0.13876 0.15833 0.0
C1828 C 0.81121 0.13261 0.13549 0.0
C1829 C 0.84332 0.16337 0.1688 0.0
C1830 C 0.80769 0.15155 0.12325 0.0
C1831 C 0.8217 0.17611 0.1336 0.0
H1832 H 0.85758 0.65761 0.10617 0.0
H1833 H 0.8998 0.6925 0.18626 0.0
H1834 H 0.86137 0.68022 0.21399 0.0
H1835 H 0.81571 0.66026 0.21521 0.0
H1836 H 0.77354 0.62615 0.13471 0.0
H1837 H 0.8119 0.63781 0.10733 0.0
C1838 C 0.85824 0.66208 0.12981 0.0
C1839 C 0.88132 0.67564 0.14428 0.0
C1840 C 0.83612 0.65557 0.1454 0.0
C1841 C 0.88211 0.68189 0.17475 0.0
C1842 C 0.86019 0.67505 0.19056 0.0
C1843 C 0.81498 0.65571 0.19159 0.0
C1844 C 0.79188 0.64249 0.17701 0.0
C1845 C 0.8371 0.66217 0.17602 0.0
C1846 C 0.79116 0.63638 0.14646 0.0
C1847 C 0.81306 0.6429 0.13079 0.0
H1848 H 0.16894 0.38115 0.33343 0.0
H1849 H 0.11644 0.31439 0.28613 0.0
H1850 H 0.13945 0.29374 0.30186 0.0
H1851 H 0.1741 0.29441 0.32933 0.0
H1852 H 0.22618 0.36072 0.37763 0.0
H1853 H 0.20377 0.38183 0.36093 0.0
C1854 C 0.16245 0.36205 0.32658 0.0
C1855 C 0.14088 0.34935 0.30864 0.0
C1856 C 0.17578 0.35025 0.33574 0.0
C1857 C 0.13288 0.32463 0.29997 0.0
C1858 C 0.14608 0.31281 0.30891 0.0
C1859 C 0.18072 0.31355 0.3361 0.0
C1860 C 0.2019 0.32596 0.35469 0.0
C1861 C 0.16754 0.32543 0.32678 0.0
C1862 C 0.21 0.3507 0.36332 0.0
C1863 C 0.19714 0.36277 0.35383 0.0
H1864 H 0.66667 0.8499 0.3892 0.0
H1865 H 0.70284 0.88989 0.30836 0.0
H1866 H 0.69223 0.85077 0.28323 0.0
H1867 H 0.67307 0.80511 0.28425 0.0
H1868 H 0.63636 0.76499 0.36474 0.0
H1869 H 0.64714 0.80415 0.39006 0.0
C1870 C 0.67187 0.85001 0.36595 0.0
C1871 C 0.68539 0.87279 0.35066 0.0
C1872 C 0.66605 0.82742 0.35171 0.0
C1873 C 0.69235 0.87261 0.32065 0.0
C1874 C 0.68643 0.85025 0.30628 0.0
C1875 C 0.66783 0.805 0.30748 0.0
C1876 C 0.65423 0.78223 0.32271 0.0
C1877 C 0.67355 0.82756 0.32169 0.0
C1878 C 0.64702 0.78233 0.3526 0.0
C1879 C 0.65302 0.8047 0.36704 0.0
H1880 H 0.21379 0.83665 0.32128 0.0
H1881 H 0.19614 0.8922 0.29013 0.0
H1882 H 0.15418 0.86795 0.31116 0.0
H1883 H 0.12287 0.83124 0.33824 0.0
H1884 H 0.14056 0.7757 0.36933 0.0
H1885 H 0.1825 0.79995 0.34827 0.0
C1886 C 0.20083 0.84356 0.31903 0.0
C1887 C 0.20814 0.86629 0.30413 0.0
C1888 C 0.17685 0.82956 0.33111 0.0
C1889 C 0.19103 0.87483 0.30148 0.0
C1890 C 0.16705 0.86096 0.31349 0.0
C1891 C 0.13584 0.82434 0.34046 0.0
C1892 C 0.12855 0.80161 0.35536 0.0
C1893 C 0.15982 0.83833 0.32834 0.0
C1894 C 0.14566 0.79307 0.35797 0.0
C1895 C 0.16962 0.80693 0.34595 0.0
H1896 H 0.71023 0.83806 0.84626 0.0
H1897 H 0.63881 0.77204 0.86103 0.0
H1898 H 0.61766 0.79376 0.84224 0.0
H1899 H 0.61938 0.83151 0.82211 0.0
H1900 H 0.69078 0.89765 0.80764 0.0
H1901 H 0.71196 0.87577 0.82584 0.0
C1902 C 0.69003 0.82834 0.84534 0.0
C1903 C 0.67615 0.80338 0.85508 0.0
C1904 C 0.67797 0.84098 0.8346 0.0
C1905 C 0.64998 0.7912 0.85371 0.0
C1906 C 0.63786 0.80363 0.84297 0.0
C1907 C 0.63959 0.8412 0.82289 0.0
C1908 C 0.65344 0.86627 0.81353 0.0
C1909 C 0.65166 0.82853 0.83343 0.0
C1910 C 0.67962 0.87841 0.81471 0.0
C1911 C 0.69176 0.8659 0.82512 0.0
H1912 H 0.17927 0.89156 0.83242 0.0
H1913 H 0.22469 0.86814 0.88058 0.0
H1914 H 0.20011 0.82619 0.85946 0.0
H1915 H 0.1652 0.79612 0.82851 0.0
H1916 H 0.11904 0.81934 0.78168 0.0
H1917 H 0.1445 0.8616 0.80146 0.0
C1918 C 0.18399 0.87738 0.83822 0.0
C1919 C 0.2039 0.88306 0.85807 0.0
C1920 C 0.16953 0.85327 0.82646 0.0
C1921 C 0.20953 0.86433 0.86537 0.0
C1922 C 0.19543 0.84033 0.85336 0.0
C1923 C 0.16064 0.81039 0.82256 0.0
C1924 C 0.14015 0.80451 0.80362 0.0
C1925 C 0.17528 0.83457 0.8341 0.0
C1926 C 0.1346 0.82328 0.79625 0.0
C1927 C 0.1492 0.84747 0.8075 0.0
H1928 H 0.1412 0.34392 0.87236 0.0
H1929 H 0.10332 0.2844 0.80808 0.0
H1930 H 0.14279 0.29605 0.78345 0.0
H1931 H 0.18831 0.32258 0.7806 0.0
H1932 H 0.22628 0.38206 0.84492 0.0
H1933 H 0.18673 0.37085 0.86907 0.0
C1934 C 0.14156 0.33371 0.85276 0.0
C1935 C 0.11933 0.31336 0.84212 0.0
C1936 C 0.16443 0.34029 0.83884 0.0
C1937 C 0.12017 0.30014 0.81683 0.0
C1938 C 0.14276 0.30673 0.80273 0.0
C1939 C 0.18795 0.33296 0.80002 0.0
C1940 C 0.21026 0.35303 0.81095 0.0
C1941 C 0.16506 0.32659 0.81372 0.0
C1942 C 0.20939 0.36647 0.83599 0.0
C1943 C 0.18675 0.36014 0.84982 0.0
H1944 H 0.87322 0.67851 0.7206 0.0
H1945 H 0.85129 0.62333 0.65044 0.0
H1946 H 0.82519 0.63813 0.62778 0.0
H1947 H 0.80828 0.66662 0.62786 0.0
H1948 H 0.83035 0.72193 0.69784 0.0
H1949 H 0.85633 0.70703 0.72065 0.0
C1950 C 0.86295 0.66992 0.70018 0.0
C1951 C 0.86429 0.64992 0.68723 0.0
C1952 C 0.84768 0.67832 0.68737 0.0
C1953 C 0.85061 0.63879 0.66092 0.0
C1954 C 0.83558 0.64717 0.64796 0.0
C1955 C 0.81854 0.67519 0.64829 0.0
C1956 C 0.81729 0.69526 0.66116 0.0
C1957 C 0.8338 0.66679 0.6611 0.0
C1958 C 0.83098 0.70642 0.68744 0.0
C1959 C 0.84594 0.69798 0.70048 0.0
H1960 H 0.37054 0.20839 0.65855 0.0
H1961 H 0.31109 0.18896 0.72228 0.0
H1962 H 0.29023 0.14585 0.70436 0.0
H1963 H 0.28887 0.1138 0.6707 0.0
H1964 H 0.34819 0.13326 0.60678 0.0
H1965 H 0.36925 0.17629 0.625 0.0
C1966 C 0.35294 0.1948 0.66849 0.0
C1967 C 0.34236 0.20201 0.69171 0.0
C1968 C 0.34114 0.17002 0.65821 0.0
C1969 C 0.31964 0.18402 0.70435 0.0
C1970 C 0.30773 0.15933 0.69416 0.0
C1971 C 0.3065 0.12736 0.66083 0.0
C1972 C 0.31696 0.1202 0.6374 0.0
C1973 C 0.31836 0.15212 0.67118 0.0
C1974 C 0.33973 0.13817 0.62484 0.0
C1975 C 0.35175 0.16281 0.6352 0.0
H1976 H 0.87975 0.16746 0.66312 0.0
H1977 H 0.85715 0.21232 0.61233 0.0
H1978 H 0.81469 0.1875 0.63159 0.0
H1979 H 0.7843 0.1535 0.66297 0.0
H1980 H 0.80653 0.10816 0.71336 0.0
H1981 H 0.84897 0.13271 0.69374 0.0
C1982 C 0.86559 0.17193 0.65634 0.0
C1983 C 0.87169 0.19189 0.63645 0.0
C1984 C 0.84118 0.15742 0.66723 0.0
C1985 C 0.853 0.19716 0.62765 0.0
C1986 C 0.82872 0.18294 0.63863 0.0
C1987 C 0.79835 0.14886 0.66967 0.0
C1988 C 0.79221 0.129 0.68973 0.0
C1989 C 0.82264 0.16307 0.65841 0.0
C1990 C 0.8107 0.12327 0.69794 0.0
C1991 C 0.83499 0.13737 0.68682 0.0
H1992 H 0.95579 0.50497 0.50183 0.0
H1993 H 0.02485 0.55997 0.46112 0.0
H1994 H 0.04536 0.53737 0.47919 0.0
H1995 H 0.04353 0.50177 0.5059 0.0
H1996 H 0.97426 0.44649 0.54596 0.0
H1997 H 0.95395 0.46942 0.52851 0.0
C1998 C 0.97538 0.51216 0.497 0.0
C1999 C 0.98876 0.53425 0.48015 0.0
C2000 C 0.98697 0.49891 0.50714 0.0
C2001 C 0.01409 0.5431 0.47404 0.0
C2002 C 0.02582 0.53013 0.48431 0.0
C2003 C 0.02395 0.49463 0.51077 0.0
C2004 C 0.01044 0.47232 0.52721 0.0
C2005 C 0.0124 0.50795 0.50072 0.0
C2006 C 0.98512 0.46351 0.53333 0.0
C2007 C 0.9735 0.47667 0.52341 0.0
H2008 H 0.50142 0.54416 0.4921 0.0
H2009 H 0.56418 0.55001 0.54153 0.0
H2010 H 0.55155 0.5069 0.52864 0.0
H2011 H 0.5224 0.46748 0.50397 0.0
H2012 H 0.45949 0.46162 0.45487 0.0
H2013 H 0.47253 0.50492 0.46708 0.0
C2014 C 0.51241 0.53607 0.50001 0.0
C2015 C 0.53373 0.55031 0.51775 0.0
C2016 C 0.50498 0.51128 0.49265 0.0
C2017 C 0.54772 0.53949 0.5278 0.0
C2018 C 0.54049 0.51483 0.52048 0.0
C2019 C 0.51153 0.47565 0.4959 0.0
C2020 C 0.48996 0.46129 0.47859 0.0
C2021 C 0.5191 0.50053 0.50302 0.0
C2022 C 0.47611 0.47221 0.46832 0.0
C2023 C 0.48357 0.49698 0.47526 0.0
H2024 H 0.51974 0.9984 0.44144 0.0
H2025 H 0.56433 0.03984 0.5175 0.0
H2026 H 0.52693 0.03183 0.54484 0.0
H2027 H 0.48138 0.01272 0.54736 0.0
H2028 H 0.43676 0.97123 0.47136 0.0
H2029 H 0.47423 0.98003 0.44357 0.0
C2030 C 0.52115 0.00533 0.46413 0.0
C2031 C 0.5446 0.01944 0.47755 0.0
C2032 C 0.49961 0.00109 0.47954 0.0
C2033 C 0.54634 0.02881 0.50677 0.0
C2034 C 0.52502 0.02438 0.52237 0.0
C2035 C 0.47998 0.00609 0.52452 0.0
C2036 C 0.4565 0.99153 0.51134 0.0
C2037 C 0.50155 0.01071 0.5089 0.0
C2038 C 0.45478 0.98258 0.4819 0.0
C2039 C 0.47614 0.98742 0.46607 0.0
H2040 H 0.5502 0.01449 0.03427 0.0
H2041 H 0.50704 0.9397 0.99911 0.0
H2042 H 0.47952 0.95106 0.97328 0.0
H2043 H 0.46696 0.98195 0.96114 0.0
H2044 H 0.5101 0.05676 0.99623 0.0
H2045 H 0.53806 0.04562 0.02137 0.0
C2046 C 0.53485 1.00073 0.02086 0.0
C2047 C 0.53076 0.97631 0.0188 0.0
C2048 C 0.51889 0.00731 0.00601 0.0
C2049 C 0.51068 0.95867 0.0013 0.0
C2050 C 0.49484 0.96511 0.98644 0.0
C2051 C 0.48247 0.99581 0.97426 0.0
C2052 C 0.48628 0.02009 0.97676 0.0
C2053 C 0.49865 0.98933 0.98876 0.0
C2054 C 0.50661 0.03786 0.99382 0.0
C2055 C 0.5227 0.03154 0.00829 0.0
H2056 H 0.00431 0.47972 0.94597 0.0
H2057 H 0.97061 0.44031 0.028 0.0
H2058 H 0.98274 0.47971 0.05343 0.0
H2059 H 0.00288 0.52554 0.05244 0.0
H2060 H 0.03695 0.56488 0.97055 0.0
H2061 H 0.02432 0.52543 0.94493 0.0
C2062 C 0.99994 0.47978 0.96951 0.0
C2063 C 0.98675 0.45711 0.98509 0.0
C2064 C 0.00661 0.50251 0.98392 0.0
C2065 C 0.98086 0.45752 0.01549 0.0
C2066 C 0.98765 0.48004 0.03003 0.0
C2067 C 0.00711 0.5254 0.02885 0.0
C2068 C 0.02058 0.54806 0.01333 0.0
C2069 C 1.00032 0.50265 0.01441 0.0
C2070 C 0.02644 0.54765 0.98294 0.0
C2071 C 0.01939 0.52511 0.96831 0.0
H2072 H 0.45239 0.50429 0.00025 0.0
H2073 H 0.46209 0.44137 0.02058 0.0
H2074 H 0.50432 0.46366 6e-05 0.0
H2075 H 0.53842 0.50093 0.97676 0.0
H2076 H 0.52887 0.56394 0.95643 0.0
H2077 H 0.48646 0.54151 0.97651 0.0
C2078 C 0.46369 0.49537 0.00021 0.0
C2079 C 0.454 0.47111 0.01199 0.0
C2080 C 0.48793 0.50829 0.98835 0.0
C2081 C 0.46899 0.45996 0.01168 0.0
C2082 C 0.49316 0.47271 -6e-05 0.0
C2083 C 0.5271 0.50982 0.97661 0.0
C2084 C 0.53691 0.53417 0.96508 0.0
C2085 C 0.5028 0.49687 0.98825 0.0
C2086 C 0.52187 0.54528 0.96515 0.0
C2087 C 0.49761 0.53246 0.97666 0.0
H2088 H 0.24556 0.09395 0.96907 0.0
H2089 H 0.16553 0.0555 0.97817 0.0
H2090 H 0.16869 0.08712 0.0136 0.0
H2091 H 0.19428 0.12594 0.04173 0.0
H2092 H 0.27418 0.16497 0.03155 0.0
H2093 H 0.27115 0.13266 0.9973 0.0
C2094 C 0.22889 0.09225 0.97928 0.0
C2095 C 0.2054 0.07227 0.97147 0.0
C2096 C 0.23084 0.11062 -0.00063 0.0
C2097 C 0.18384 0.07074 0.98401 0.0
C2098 C 0.18562 0.08877 0.00424 0.0
C2099 C 0.21094 0.12735 0.0318 0.0
C2100 C 0.23438 0.14765 0.03902 0.0
C2101 C 0.20902 0.10887 0.01195 0.0
C2102 C 0.25595 0.1493 0.02642 0.0
C2103 C 0.25422 0.13091 0.00679 0.0
H2104 H 0.84884 0.10062 0.02306 0.0
H2105 H 0.88136 0.05648 0.05154 0.0
H2106 H 0.91616 0.07913 0.01687 0.0
H2107 H 0.93755 0.11192 0.97887 0.0
H2108 H 0.90677 0.15833 0.95367 0.0
H2109 H 0.87139 0.13493 0.98737 0.0
C2110 C 0.8637 0.09616 0.02186 0.0
C2111 C 0.86248 0.0768 0.03955 0.0
C2112 C 0.88404 0.10987 0.00278 0.0
C2113 C 0.88167 0.07099 0.03763 0.0
C2114 C 0.90166 0.08407 0.01806 0.0
C2115 C 0.9231 0.11691 0.98095 0.0
C2116 C 0.92473 0.13686 0.96416 0.0
C2117 C 0.90305 0.10357 0.00057 0.0
C2118 C 0.90605 0.1433 0.96688 0.0
C2119 C 0.88576 0.12981 0.98592 0.0
H2120 H 0.89569 0.77028 0.06683 0.0
H2121 H 0.9476 0.7821 0.99571 0.0
H2122 H 0.92115 0.78833 0.95995 0.0
H2123 H 0.88308 0.78978 0.94883 0.0
H2124 H 0.8309 0.77792 0.01979 0.0
H2125 H 0.85717 0.77153 0.05548 0.0
C2126 C 0.90111 0.77416 0.04345 0.0
C2127 C 0.9236 0.77586 0.03387 0.0
C2128 C 0.88556 0.77728 0.02295 0.0
C2129 C 0.93055 0.78106 0.00364 0.0
C2130 C 0.91534 0.78441 0.98318 0.0
C2131 C 0.87736 0.78572 0.9721 0.0
C2132 C 0.8547 0.78383 0.98137 0.0
C2133 C 0.89277 0.78247 0.99258 0.0
C2134 C 0.84772 0.77866 0.01166 0.0
C2135 C 0.86296 0.77534 0.03223 0.0
H2136 H 0.15378 0.26373 0.47044 0.0
H2137 H 0.11759 0.18615 0.44498 0.0
H2138 H 0.08206 0.17722 0.47694 0.0
H2139 H 0.06188 0.19122 0.51304 0.0
H2140 H 0.09666 0.26895 0.5372 0.0
H2141 H 0.13191 0.27836 0.50405 0.0
C2142 C 0.13794 0.24496 0.47168 0.0
C2143 C 0.13835 0.22553 0.45578 0.0
C2144 C 0.11734 0.24009 0.48959 0.0
C2145 C 0.11785 0.20126 0.45757 0.0
C2146 C 0.09749 0.1962 0.47562 0.0
C2147 C 0.07713 0.21025 0.51085 0.0
C2148 C 0.07678 0.22939 0.52736 0.0
C2149 C 0.09715 0.21541 0.49191 0.0
C2150 C 0.09645 0.254 0.52431 0.0
C2151 C 0.11666 0.25932 0.5056 0.0
H2152 H 0.81336 0.93522 0.46567 0.0
H2153 H 0.73378 0.8892 0.47583 0.0
H2154 H 0.73985 0.86306 0.51228 0.0
H2155 H 0.76806 0.8545 0.54271 0.0
H2156 H 0.84762 0.90229 0.53427 0.0
H2157 H 0.84138 0.92699 0.4961 0.0
C2158 C 0.79737 0.91966 0.47617 0.0
C2159 C 0.7732 0.91416 0.4683 0.0
C2160 C 0.80104 0.90513 0.49739 0.0
C2161 C 0.75258 0.89361 0.48144 0.0
C2162 C 0.75605 0.87877 0.50234 0.0
C2163 C 0.78397 0.87007 0.53211 0.0
C2164 C 0.80825 0.87644 0.54086 0.0
C2165 C 0.78022 0.88443 0.51058 0.0
C2166 C 0.82876 0.89708 0.52771 0.0
C2167 C 0.82522 0.91117 0.50593 0.0
H2168 H 0.06863 0.87822 0.45768 0.0
H2169 H 0.09602 0.83009 0.4878 0.0
H2170 H 0.12291 0.86137 0.52461 0.0
H2171 H 0.13891 0.9027 0.5479 0.0
H2172 H 0.10924 0.94953 0.52043 0.0
H2173 H 0.08269 0.91846 0.48314 0.0
C2174 C 0.08022 0.87451 0.47267 0.0
C2175 C 0.08052 0.85206 0.47009 0.0
C2176 C 0.09526 0.89238 0.49409 0.0
C2177 C 0.09575 0.84744 0.48932 0.0
C2178 C 0.11107 0.86527 0.51033 0.0
C2179 C 0.12671 0.90605 0.53356 0.0
C2180 C 0.12616 0.92835 0.53641 0.0
C2181 C 0.11113 0.88788 0.51276 0.0
C2182 C 0.10994 0.93243 0.51836 0.0
C2183 C 0.0948 0.91472 0.49711 0.0
H2184 H 0.78591 0.93981 0.01505 0.0
H2185 H 0.78236 0.89762 0.09365 0.0
H2186 H 0.77641 0.86268 0.06213 0.0
H2187 H 0.77226 0.8441 0.01202 0.0
H2188 H 0.7771 0.88681 0.93347 0.0
H2189 H 0.78225 0.92148 0.96502 0.0
C2190 C 0.7833 0.92277 0.02525 0.0
C2191 C 0.78403 0.92104 0.0566 0.0
C2192 C 0.78032 0.90294 0.00696 0.0
C2193 C 0.78164 0.89924 0.06952 0.0
C2194 C 0.77829 0.8793 0.05153 0.0
C2195 C 0.77472 0.86114 0.00193 0.0
C2196 C 0.77435 0.86304 0.9706 0.0
C2197 C 0.77774 0.88098 0.02022 0.0
C2198 C 0.77724 0.88501 0.95763 0.0
C2199 C 0.78017 0.90479 0.97563 0.0
H2200 H 0.06597 0.87997 0.02256 0.0
H2201 H 0.09736 0.83281 0.04049 0.0
H2202 H 0.13217 0.85792 0.00652 0.0
H2203 H 0.15482 0.8949 0.97397 0.0
H2204 H 0.12142 0.93991 0.95333 0.0
H2205 H 0.08645 0.91435 0.98648 0.0
C2206 C 0.08037 0.87512 0.01878 0.0
C2207 C 0.0792 0.85465 0.03386 0.0
C2208 C 0.10007 0.88945 0.99906 0.0
C2209 C 0.09779 0.84836 0.02878 0.0
C2210 C 0.11775 0.86281 0.00956 0.0
C2211 C 0.13967 0.89882 0.97636 0.0
C2212 C 0.14089 0.9195 0.96158 0.0
C2213 C 0.11923 0.88358 0.99483 0.0
C2214 C 0.12121 0.92447 0.96504 0.0
C2215 C 0.10112 0.90976 0.98381 0.0
H2216 H 0.12081 0.21438 0.05205 0.0
H2217 H 0.17608 0.22694 0.98501 0.0
H2218 H 0.15045 0.2316 0.94655 0.0
H2219 H 0.11121 0.2301 0.93166 0.0
H2220 H 0.05648 0.21811 0.99916 0.0
H2221 H 0.08273 0.2147 0.03774 0.0
C2222 C 0.12731 0.21831 0.02904 0.0
C2223 C 0.15044 0.22066 0.02146 0.0
C2224 C 0.11239 0.22069 0.0071 0.0
C2225 C 0.15866 0.2257 0.99158 0.0
C2226 C 0.14386 0.22807 0.96952 0.0
C2227 C 0.1052 0.22692 0.95488 0.0
C2228 C 0.08187 0.22403 0.96261 0.0
C2229 C 0.12059 0.22537 0.97698 0.0
C2230 C 0.07417 0.2199 0.99268 0.0
C2231 C 0.08923 0.21813 0.01473 0.0
H2232 H 0.89444 0.78076 0.56781 0.0
H2233 H 0.84476 0.78886 0.50702 0.0
H2234 H 0.86943 0.78874 0.46422 0.0
H2235 H 0.90536 0.78675 0.44412 0.0
H2236 H 0.95558 0.77938 0.50489 0.0
H2237 H 0.93019 0.77805 0.54746 0.0
C2238 C 0.88904 0.78238 0.54514 0.0
C2239 C 0.86798 0.78502 0.5405 0.0
C2240 C 0.9032 0.78206 0.52062 0.0
C2241 C 0.86113 0.78719 0.5111 0.0
C2242 C 0.87512 0.78695 0.48665 0.0
C2243 C 0.91063 0.78464 0.46668 0.0
C2244 C 0.93199 0.78247 0.47113 0.0
C2245 C 0.89623 0.78446 0.49114 0.0
C2246 C 0.93873 0.78006 0.50055 0.0
C2247 C 0.9244 0.7797 0.52503 0.0
H2248 H 0.25021 0.1039 0.52721 0.0
H2249 H 0.17298 0.06126 0.5534 0.0
H2250 H 0.16258 0.08597 0.51986 0.0
H2251 H 0.17525 0.11896 0.4821 0.0
H2252 H 0.25266 0.16291 0.45723 0.0
H2253 H 0.26337 0.13891 0.49175 0.0
C2254 C 0.2312 0.10031 0.52586 0.0
C2255 C 0.21232 0.08065 0.54247 0.0
C2256 C 0.22544 0.11489 0.50689 0.0
C2257 C 0.18772 0.07602 0.54038 0.0
C2258 C 0.18179 0.09021 0.52135 0.0
C2259 C 0.19448 0.12334 0.48442 0.0
C2260 C 0.21317 0.14274 0.4674 0.0
C2261 C 0.20045 0.10952 0.5043 0.0
C2262 C 0.23802 0.14834 0.47055 0.0
C2263 C 0.24411 0.13449 0.49009 0.0
H2264 H 0.8918 0.1495 0.52689 0.0
H2265 H 0.95258 0.13417 0.53085 0.0
H2266 H 0.93071 0.09943 0.49616 0.0
H2267 H 0.89389 0.07258 0.46622 0.0
H2268 H 0.82949 0.08234 0.47151 0.0
H2269 H 0.85309 0.11982 0.50098 0.0
C2270 C 0.90011 0.13834 0.52056 0.0
C2271 C 0.92399 0.14472 0.53118 0.0
C2272 C 0.88681 0.11744 0.50196 0.0
C2273 C 0.93459 0.13022 0.52234 0.0
C2274 C 0.92196 0.11013 0.50275 0.0
C2275 C 0.88489 0.08287 0.4736 0.0
C2276 C 0.86015 0.07503 0.46489 0.0
C2277 C 0.89801 0.10352 0.49252 0.0
C2278 C 0.84886 0.08845 0.47565 0.0
C2279 C 0.86226 0.10979 0.4933 0.0
H2280 H 0.856 0.45019 0.37621 0.0
H2281 H 0.9342 0.49622 0.35633 0.0
H2282 H 0.93202 0.46479 0.32112 0.0
H2283 H 0.90745 0.42458 0.29503 0.0
H2284 H 0.82873 0.37975 0.313 0.0
H2285 H 0.83135 0.41042 0.34959 0.0
C2286 C 0.87247 0.45334 0.36396 0.0
C2287 C 0.89522 0.4753 0.36884 0.0
C2288 C 0.87095 0.43542 0.34345 0.0
C2289 C 0.91654 0.47922 0.35311 0.0
C2290 C 0.91528 0.46134 0.33293 0.0
C2291 C 0.89101 0.42142 0.30733 0.0
C2292 C 0.86802 0.39987 0.30175 0.0
C2293 C 0.89257 0.43936 0.32791 0.0
C2294 C 0.84665 0.39624 0.3171 0.0
C2295 C 0.84812 0.41374 0.33798 0.0
H2296 H 0.56612 0.44259 0.26281 0.0
H2297 H 0.61366 0.4984 0.327 0.0
H2298 H 0.58433 0.47535 0.36713 0.0
H2299 H 0.54539 0.4389 0.38417 0.0
H2300 H 0.49815 0.38272 0.32033 0.0
H2301 H 0.52741 0.40594 0.27992 0.0
C2302 C 0.56997 0.44974 0.28558 0.0
C2303 C 0.59161 0.47257 0.29174 0.0
C2304 C 0.55326 0.43612 0.30863 0.0
C2305 C 0.59661 0.48145 0.32139 0.0
C2306 C 0.58002 0.46808 0.34445 0.0
C2307 C 0.54158 0.43184 0.36136 0.0
C2308 C 0.51985 0.40916 0.3551 0.0
C2309 C 0.5583 0.44541 0.33832 0.0
C2310 C 0.51501 0.4 0.32561 0.0
C2311 C 0.53161 0.41334 0.30254 0.0
H2312 H 0.56405 0.12973 0.26932 0.0
H2313 H 0.50919 0.1218 0.33468 0.0
H2314 H 0.53279 0.11545 0.37424 0.0
H2315 H 0.56914 0.11221 0.39035 0.0
H2316 H 0.62371 0.11948 0.32507 0.0
H2317 H 0.60056 0.1267 0.2855 0.0
C2318 C 0.55727 0.12654 0.29224 0.0
C2319 C 0.53457 0.12553 0.29893 0.0
C2320 C 0.57106 0.12311 0.31491 0.0
C2321 C 0.52612 0.12172 0.32874 0.0
C2322 C 0.53977 0.11839 0.35145 0.0
C2323 C 0.57587 0.11533 0.36741 0.0
C2324 C 0.59806 0.11538 0.36054 0.0
C2325 C 0.5622 0.11896 0.34477 0.0
C2326 C 0.6068 0.11966 0.33088 0.0
C2327 C 0.59348 0.1236 0.30825 0.0
H2328 H 0.78404 0.5574 0.7704 0.0
H2329 H 0.83193 0.55394 0.83812 0.0
H2330 H 0.80232 0.54971 0.87724 0.0
H2331 H 0.76258 0.54651 0.89204 0.0
H2332 H 0.7143 0.54934 0.82423 0.0
H2333 H 0.74443 0.55489 0.78542 0.0
C2334 C 0.78796 0.55588 0.79378 0.0
C2335 C 0.80996 0.55584 0.80149 0.0
C2336 C 0.77092 0.55361 0.81611 0.0
C2337 C 0.81492 0.55373 0.83174 0.0
C2338 C 0.79808 0.55142 0.85407 0.0
C2339 C 0.75873 0.54849 0.86877 0.0
C2340 C 0.7365 0.54815 0.86119 0.0
C2341 C 0.77597 0.55125 0.8465 0.0
C2342 C 0.73165 0.55049 0.83091 0.0
C2343 C 0.74875 0.55332 0.8086 0.0
H2344 H 0.48411 0.21318 0.85628 0.0
H2345 H 0.40607 0.16478 0.87499 0.0
H2346 H 0.3952 0.18814 0.83943 0.0
H2347 H 0.40832 0.22365 0.80472 0.0
H2348 H 0.48625 0.26929 0.78271 0.0
H2349 H 0.49687 0.24611 0.81834 0.0
C2350 C 0.46472 0.20771 0.85237 0.0
C2351 C 0.44588 0.18742 0.86813 0.0
C2352 C 0.45868 0.22094 0.83164 0.0
C2353 C 0.42083 0.18026 0.86284 0.0
C2354 C 0.41466 0.19369 0.84268 0.0
C2355 C 0.42757 0.22825 0.80739 0.0
C2356 C 0.44651 0.24843 0.7914 0.0
C2357 C 0.43347 0.21422 0.82714 0.0
C2358 C 0.47139 0.2543 0.79532 0.0
C2359 C 0.47746 0.2409 0.81548 0.0
H2360 H 0.82806 0.26985 0.83201 0.0
H2361 H 0.77701 0.24493 0.90667 0.0
H2362 H 0.74648 0.20936 0.87737 0.0
H2363 H 0.73416 0.18522 0.83035 0.0
H2364 H 0.78469 0.2106 0.75529 0.0
H2365 H 0.8156 0.24588 0.78482 0.0
C2366 C 0.81045 0.25636 0.842 0.0
C2367 C 0.80495 0.25976 0.8716 0.0
C2368 C 0.79282 0.2361 0.82486 0.0
C2369 C 0.7817 0.24261 0.88393 0.0
C2370 C 0.76422 0.22229 0.8672 0.0
C2371 C 0.75188 0.19863 0.8205 0.0
C2372 C 0.75727 0.19533 0.79086 0.0
C2373 C 0.76951 0.21889 0.83759 0.0
C2374 C 0.78031 0.21268 0.77826 0.0
C2375 C 0.79795 0.23285 0.79509 0.0
H2376 H 0.41389 0.18269 0.30668 0.0
H2377 H 0.49235 0.21764 0.28628 0.0
H2378 H 0.50095 0.25172 0.3208 0.0
H2379 H 0.48614 0.2715 0.35706 0.0
H2380 H 0.40737 0.23893 0.37358 0.0
H2381 H 0.39871 0.20435 0.33955 0.0
C2382 C 0.43283 0.19794 0.30949 0.0
C2383 C 0.45251 0.19738 0.29433 0.0
C2384 C 0.4375 0.21798 0.32845 0.0
C2385 C 0.47696 0.21722 0.29835 0.0
C2386 C 0.48186 0.23685 0.31784 0.0
C2387 C 0.46709 0.25686 0.35301 0.0
C2388 C 0.44739 0.25764 0.36769 0.0
C2389 C 0.46229 0.23736 0.3331 0.0
C2390 C 0.42276 0.23877 0.36223 0.0
C2391 C 0.41785 0.21896 0.34296 0.0
H2392 H 0.82152 0.22387 0.30249 0.0
H2393 H 0.78714 0.26835 0.28392 0.0
H2394 H 0.75332 0.24311 0.31859 0.0
H2395 H 0.73463 0.20968 0.35597 0.0
H2396 H 0.76663 0.16279 0.3718 0.0
H2397 H 0.80002 0.1872 0.33572 0.0
C2398 C 0.80636 0.2277 0.30564 0.0
C2399 C 0.80703 0.24821 0.29117 0.0
C2400 C 0.78661 0.21266 0.325 0.0
C2401 C 0.78736 0.25307 0.29548 0.0
C2402 C 0.76794 0.23855 0.31511 0.0
C2403 C 0.74884 0.20475 0.35123 0.0
C2404 C 0.74849 0.18474 0.36644 0.0
C2405 C 0.7676 0.21858 0.33033 0.0
C2406 C 0.76666 0.17815 0.36011 0.0
C2407 C 0.78575 0.19215 0.33967 0.0
H2408 H 0.78097 0.50558 0.3468 0.0
H2409 H 0.82652 0.58343 0.36935 0.0
H2410 H 0.80252 0.59401 0.33476 0.0
H2411 H 0.76774 0.58092 0.29917 0.0
H2412 H 0.72314 0.50331 0.2752 0.0
H2413 H 0.74718 0.49269 0.30977 0.0
C2414 C 0.78568 0.52487 0.344 0.0
C2415 C 0.80572 0.54374 0.36023 0.0
C2416 C 0.77176 0.53078 0.32412 0.0
C2417 C 0.81161 0.56864 0.35652 0.0
C2418 C 0.79772 0.57467 0.33698 0.0
C2419 C 0.76348 0.56172 0.30134 0.0
C2420 C 0.74361 0.54288 0.28488 0.0
C2421 C 0.77772 0.55588 0.32075 0.0
C2422 C 0.73809 0.51805 0.28806 0.0
C2423 C 0.75193 0.51202 0.30764 0.0
H2424 H 0.57531 0.12957 0.76853 0.0
H2425 H 0.62521 0.12934 0.83607 0.0
H2426 H 0.5948 0.12237 0.87493 0.0
H2427 H 0.55373 0.11615 0.88999 0.0
H2428 H 0.50453 0.11809 0.82298 0.0
H2429 H 0.53514 0.1252 0.78376 0.0
C2430 C 0.57958 0.12803 0.79176 0.0
C2431 C 0.60226 0.1291 0.79908 0.0
C2432 C 0.56219 0.1246 0.81417 0.0
C2433 C 0.60755 0.1274 0.82939 0.0
C2434 C 0.59025 0.12379 0.8518 0.0
C2435 C 0.54983 0.1182 0.86676 0.0
C2436 C 0.52703 0.11664 0.85923 0.0
C2437 C 0.56746 0.1222 0.84443 0.0
C2438 C 0.5221 0.11945 0.82921 0.0
C2439 C 0.53952 0.12337 0.80683 0.0
H2440 H 0.90984 0.48528 0.80348 0.0
H2441 H 0.82968 0.44064 0.80633 0.0
H2442 H 0.83248 0.41271 0.84295 0.0
H2443 H 0.85786 0.40061 0.87346 0.0
H2444 H 0.93804 0.44386 0.86816 0.0
H2445 H 0.9352 0.47301 0.83368 0.0
C2446 C 0.89304 0.4697 0.81258 0.0
C2447 C 0.86961 0.46514 0.80269 0.0
C2448 C 0.89482 0.45348 0.8331 0.0
C2449 C 0.84792 0.44448 0.81383 0.0
C2450 C 0.84951 0.42853 0.8347 0.0
C2451 C 0.87465 0.41633 0.86454 0.0
C2452 C 0.89809 0.42022 0.87338 0.0
C2453 C 0.87286 0.43272 0.84429 0.0
C2454 C 0.91978 0.44076 0.86199 0.0
C2455 C 0.91818 0.45734 0.84216 0.0
H2456 H 0.54549 0.3919 0.80843 0.0
H2457 H 0.50738 0.42656 0.76722 0.0
H2458 H 0.53117 0.46385 0.79827 0.0
H2459 H 0.56387 0.48703 0.83622 0.0
H2460 H 0.59925 0.45072 0.8802 0.0
H2461 H 0.57586 0.4138 0.84874 0.0
C2462 C 0.54238 0.40763 0.8064 0.0
C2463 C 0.52476 0.40659 0.78574 0.0
C2464 C 0.55582 0.42875 0.82461 0.0
C2465 C 0.5207 0.42692 0.78329 0.0
C2466 C 0.53438 0.44826 0.8009 0.0
C2467 C 0.5662 0.47089 0.83907 0.0
C2468 C 0.58349 0.47168 0.86014 0.0
C2469 C 0.55209 0.44943 0.82154 0.0
C2470 C 0.58644 0.45073 0.86363 0.0
C2471 C 0.57295 0.42956 0.84582 0.0
H2472 H 0.55346 0.78506 0.73224 0.0
H2473 H 0.54922 0.83127 0.66286 0.0
H2474 H 0.54797 0.8023 0.62448 0.0
H2475 H 0.55028 0.76503 0.61077 0.0
H2476 H 0.55437 0.71874 0.68038 0.0
H2477 H 0.55432 0.74693 0.71853 0.0
C2478 C 0.5521 0.78862 0.70868 0.0
C2479 C 0.55136 0.81013 0.70025 0.0
C2480 C 0.55199 0.77222 0.68684 0.0
C2481 C 0.54948 0.81462 0.66979 0.0
C2482 C 0.54904 0.79822 0.6479 0.0
C2483 C 0.55119 0.76111 0.6343 0.0
C2484 C 0.55317 0.74019 0.64257 0.0
C2485 C 0.55065 0.77716 0.65617 0.0
C2486 C 0.554 0.73523 0.67318 0.0
C2487 C 0.55354 0.75116 0.6951 0.0
H2488 H 0.23728 0.78626 0.60271 0.0
H2489 H 0.28467 0.83915 0.66971 0.0
H2490 H 0.25378 0.81609 0.70824 0.0
H2491 H 0.21324 0.78044 0.72322 0.0
H2492 H 0.16689 0.72649 0.65679 0.0
H2493 H 0.19768 0.75 0.61785 0.0
C2494 C 0.24089 0.79279 0.62574 0.0
C2495 C 0.26299 0.81498 0.63296 0.0
C2496 C 0.22331 0.77903 0.64798 0.0
C2497 C 0.26743 0.82291 0.66303 0.0
C2498 C 0.24989 0.80945 0.68528 0.0
C2499 C 0.20996 0.77395 0.70016 0.0
C2500 C 0.18791 0.75192 0.69269 0.0
C2501 C 0.22773 0.78755 0.67799 0.0
C2502 C 0.18385 0.74339 0.66294 0.0
C2503 C 0.20136 0.75686 0.64072 0.0
H2504 H 0.21991 0.45906 0.60733 0.0
H2505 H 0.17391 0.46153 0.67842 0.0
H2506 H 0.19884 0.45457 0.71553 0.0
H2507 H 0.23432 0.44843 0.72785 0.0
H2508 H 0.28004 0.44577 0.65666 0.0
H2509 H 0.25507 0.45281 0.61949 0.0
C2510 C 0.21532 0.45804 0.63096 0.0
C2511 C 0.19474 0.46026 0.64001 0.0
C2512 C 0.22991 0.45433 0.65215 0.0
C2513 C 0.18908 0.45902 0.6707 0.0
C2514 C 0.20355 0.45536 0.69199 0.0
C2515 C 0.23868 0.44934 0.70416 0.0
C2516 C 0.25897 0.44673 0.69487 0.0
C2517 C 0.22401 0.453 0.68296 0.0
C2518 C 0.26466 0.44806 0.66423 0.0
C2519 C 0.25031 0.45191 0.64303 0.0
H2520 H 0.45677 0.89161 0.10868 0.0
H2521 H 0.49812 0.87736 0.176 0.0
H2522 H 0.46858 0.87441 0.21451 0.0
H2523 H 0.43113 0.8761 0.22903 0.0
H2524 H 0.3893 0.88961 0.16148 0.0
H2525 H 0.4192 0.89337 0.12332 0.0
C2526 C 0.45929 0.88793 0.13183 0.0
C2527 C 0.47945 0.88453 0.13953 0.0
C2528 C 0.44237 0.88653 0.15387 0.0
C2529 C 0.4825 0.87965 0.16951 0.0
C2530 C 0.46574 0.87816 0.19154 0.0
C2531 C 0.42863 0.88001 0.20597 0.0
C2532 C 0.40834 0.88329 0.1984 0.0
C2533 C 0.44562 0.88159 0.18398 0.0
C2534 C 0.40523 0.88804 0.16833 0.0
C2535 C 0.42216 0.88981 0.14633 0.0
H2536 H 0.11212 0.59929 0.16033 0.0
H2537 H 0.12069 0.5609 0.08472 0.0
H2538 H 0.1224 0.53041 0.11837 0.0
H2539 H 0.12207 0.51521 0.16957 0.0
H2540 H 0.11328 0.55379 0.24508 0.0
H2541 H 0.11108 0.5837 0.21136 0.0
C2542 C 0.11456 0.58432 0.1514 0.0
C2543 C 0.11649 0.58228 0.12033 0.0
C2544 C 0.11527 0.56683 0.17083 0.0
C2545 C 0.11933 0.56275 0.10871 0.0
C2546 C 0.1202 0.54533 0.12789 0.0
C2547 C 0.11906 0.52977 0.17857 0.0
C2548 C 0.11739 0.53201 0.20975 0.0
C2549 C 0.11809 0.54712 0.15903 0.0
C2550 C 0.11447 0.55161 0.22112 0.0
C2551 C 0.11327 0.56876 0.20188 0.0
H2552 H 0.43981 0.55241 0.10257 0.0
H2553 H 0.38514 0.50232 0.16581 0.0
H2554 H 0.40929 0.52963 0.20734 0.0
H2555 H 0.44597 0.56745 0.2255 0.0
H2556 H 0.49929 0.61919 0.16201 0.0
H2557 H 0.47601 0.59139 0.12085 0.0
C2558 C 0.43333 0.5476 0.1255 0.0
C2559 C 0.41088 0.52555 0.13136 0.0
C2560 C 0.44719 0.56349 0.14917 0.0
C2561 C 0.40236 0.51937 0.16097 0.0
C2562 C 0.41618 0.5349 0.18464 0.0
C2563 C 0.45255 0.5727 0.20267 0.0
C2564 C 0.4749 0.59504 0.19712 0.0
C2565 C 0.43862 0.55698 0.17899 0.0
C2566 C 0.48291 0.60163 0.16731 0.0
C2567 C 0.46934 0.58588 0.14359 0.0
H2568 H 0.11594 0.5752 0.72911 0.0
H2569 H 0.11273 0.62356 0.66169 0.0
H2570 H 0.10749 0.59371 0.62271 0.0
H2571 H 0.10539 0.55432 0.60738 0.0
H2572 H 0.11074 0.50716 0.67456 0.0
H2573 H 0.11417 0.53629 0.71396 0.0
C2574 C 0.11398 0.57919 0.7059 0.0
C2575 C 0.114 0.60132 0.69857 0.0
C2576 C 0.11173 0.56227 0.68348 0.0
C2577 C 0.1117 0.60628 0.66832 0.0
C2578 C 0.10911 0.58935 0.64586 0.0
C2579 C 0.10722 0.5505 0.6307 0.0
C2580 C 0.10791 0.52881 0.63823 0.0
C2581 C 0.10922 0.56735 0.65316 0.0
C2582 C 0.11043 0.52394 0.66837 0.0
C2583 C 0.11226 0.54049 0.69085 0.0
H2584 H 0.43776 0.54889 0.72499 0.0
H2585 H 0.39711 0.49701 0.65378 0.0
H2586 H 0.43001 0.52273 0.61834 0.0
H2587 H 0.46983 0.56099 0.60715 0.0
H2588 H 0.50926 0.61351 0.67808 0.0
H2589 H 0.47699 0.58687 0.71396 0.0
C2590 C 0.43607 0.54311 0.70173 0.0
C2591 C 0.4152 0.52065 0.69234 0.0
C2592 C 0.4547 0.55836 0.68132 0.0
C2593 C 0.41332 0.5136 0.66205 0.0
C2594 C 0.432 0.52855 0.64159 0.0
C2595 C 0.4713 0.56646 0.63051 0.0
C2596 C 0.49171 0.58914 0.64008 0.0
C2597 C 0.4527 0.55103 0.65096 0.0
C2598 C 0.49349 0.59624 0.67026 0.0
C2599 C 0.47516 0.58097 0.69075 0.0
H2600 H 0.39961 0.89302 0.66416 0.0
H2601 H 0.4417 0.89567 0.58599 0.0
H2602 H 0.47139 0.89062 0.61744 0.0
H2603 H 0.48532 0.88537 0.66745 0.0
H2604 H 0.44327 0.88336 0.74561 0.0
H2605 H 0.4137 0.88808 0.71408 0.0
C2606 C 0.41518 0.89225 0.65411 0.0
C2607 C 0.41852 0.89465 0.62291 0.0
C2608 C 0.43232 0.88965 0.67238 0.0
C2609 C 0.43885 0.89387 0.61004 0.0
C2610 C 0.45584 0.89105 0.62801 0.0
C2611 C 0.47004 0.88651 0.67765 0.0
C2612 C 0.46684 0.88442 0.70897 0.0
C2613 C 0.4529 0.88911 0.65928 0.0
C2614 C 0.44628 0.88501 0.72159 0.0
C2615 C 0.42929 0.88769 0.70357 0.0
H2616 H 0.21952 0.4516 0.22945 0.0
H2617 H 0.16621 0.45005 0.16598 0.0
H2618 H 0.19392 0.45443 0.12443 0.0
H2619 H 0.23299 0.45809 0.10622 0.0
H2620 H 0.28678 0.46037 0.16966 0.0
H2621 H 0.25902 0.45567 0.21107 0.0
C2622 C 0.21408 0.45221 0.20647 0.0
C2623 C 0.19102 0.45063 0.20063 0.0
C2624 C 0.22999 0.45446 0.18273 0.0
C2625 C 0.18405 0.45154 0.1709 0.0
C2626 C 0.19979 0.45388 0.14719 0.0
C2627 C 0.23861 0.45749 0.12912 0.0
C2628 C 0.26163 0.45887 0.13472 0.0
C2629 C 0.22276 0.45527 0.15285 0.0
C2630 C 0.26877 0.45832 0.16453 0.0
C2631 C 0.25303 0.456 0.18831 0.0
H2632 H 0.55349 0.72609 0.17782 0.0
H2633 H 0.55986 0.77126 0.25452 0.0
H2634 H 0.5546 0.80042 0.22224 0.0
H2635 H 0.54767 0.81258 0.1721 0.0
H2636 H 0.54208 0.76743 0.09542 0.0
H2637 H 0.54717 0.73853 0.12778 0.0
C2638 C 0.55356 0.74227 0.18736 0.0
C2639 C 0.557 0.74666 0.21831 0.0
C2640 C 0.55072 0.75893 0.16869 0.0
C2641 C 0.55729 0.76769 0.23062 0.0
C2642 C 0.5543 0.78431 0.21221 0.0
C2643 C 0.54815 0.79678 0.16237 0.0
C2644 C 0.54497 0.79246 0.13129 0.0
C2645 C 0.55111 0.78017 0.18115 0.0
C2646 C 0.54459 0.77125 0.11927 0.0
C2647 C 0.54751 0.75469 0.13774 0.0
H2648 H 0.26885 0.78839 0.20349 0.0
H2649 H 0.23914 0.83489 0.17471 0.0
H2650 H 0.21179 0.80297 0.13883 0.0
H2651 H 0.19605 0.76154 0.11582 0.0
H2652 H 0.22798 0.71634 0.14173 0.0
H2653 H 0.25486 0.74795 0.17833 0.0
C2654 C 0.25663 0.7916 0.18902 0.0
C2655 C 0.25581 0.8138 0.19182 0.0
C2656 C 0.24125 0.77331 0.1681 0.0
C2657 C 0.23981 0.81775 0.17314 0.0
C2658 C 0.22421 0.79954 0.15263 0.0
C2659 C 0.20876 0.75861 0.12972 0.0
C2660 C 0.20984 0.73659 0.12658 0.0
C2661 C 0.2246 0.77715 0.15009 0.0
C2662 C 0.22679 0.73316 0.14404 0.0
C2663 C 0.24215 0.75121 0.16489 0.0
loop_
_geom_bond_atom_site_label_1
_geom_bond_atom_site_label_2
_geom_bond_distance
_geom_bond_site_symmetry_2
_ccdc_geom_bond_type
Co0 O3 1.970 . S
Co0 N17 1.989 . S
Co0 O25 1.967 . S
Co0 O32 1.920 . S
Co1 O4 1.966 . S
Co1 N10 2.022 . S
Co1 N18 1.993 . S
Co1 O26 1.941 . S
C2 O3 1.258 . S
C2 O4 1.263 . S
O3 Co0 1.970 . S
O3 C2 1.258 . S
O4 Co1 1.966 . S
O4 C2 1.263 . S
C5 O6 1.235 . S
C5 O32 1.289 . S
O6 C5 1.235 . S
C7 C9 1.400 . S
C7 N10 1.351 . S
C7 C12 1.501 . S
C8 C9 1.387 . S
C8 N11 1.341 . S
C9 C7 1.400 . S
C9 C8 1.387 . S
N10 Co1 2.022 . S
N10 C7 1.351 . S
N10 N11 1.365 . S
N11 C8 1.341 . S
N11 N10 1.365 . S
N11 H31 0.862 . S
C12 C7 1.501 . S
C12 H13 0.961 . S
C12 H14 0.961 . S
C12 H15 0.960 . S
H13 C12 0.961 . S
H14 C12 0.961 . S
H15 C12 0.960 . S
C16 N17 1.342 . S
C16 C20 1.401 . S
C16 C21 1.499 . S
N17 Co0 1.989 . S
N17 C16 1.342 . S
N17 N18 1.388 . S
N18 Co1 1.993 . S
N18 N17 1.388 . S
N18 C19 1.346 . S
C19 N18 1.346 . S
C19 C20 1.396 . S
C19 C29 1.510 . S
C20 C16 1.401 . S
C20 C19 1.396 . S
C21 C16 1.499 . S
C21 H22 0.959 . S
C21 H23 0.960 . S
C21 H24 0.961 . S
H22 C21 0.959 . S
H23 C21 0.960 . S
H24 C21 0.961 . S
O25 Co0 1.967 . S
O25 C33 1.258 . S
O26 Co1 1.941 . S
O26 C33 1.266 . S
H27 C29 0.959 . S
H28 C29 0.961 . S
C29 C19 1.510 . S
C29 H27 0.959 . S
C29 H28 0.961 . S
C29 H30 0.960 . S
H30 C29 0.960 . S
H31 N11 0.862 . S
O32 Co0 1.920 . S
O32 C5 1.289 . S
C33 O25 1.258 . S
C33 O26 1.266 . S
Co34 O37 1.970 . S
Co34 N51 1.989 . S
Co34 O59 1.967 . S
Co34 O66 1.920 . S
Co35 O38 1.984 1_545 S
Co35 N44 2.022 1_545 S
Co35 N52 1.993 . S
Co35 O60 1.952 . S
C36 O37 1.258 . S
C36 O38 1.220 1_545 S
O37 Co34 1.970 . S
O37 C36 1.258 . S
O38 Co35 1.984 1_565 S
O38 C36 1.220 1_565 S
C39 O40 1.235 . S
C39 O66 1.289 . S
O40 C39 1.235 . S
C41 C43 1.400 . S
C41 N44 1.351 . S
C41 C46 1.501 . S
C42 C43 1.387 . S
C42 N45 1.341 . S
C43 C41 1.400 . S
C43 C42 1.387 . S
N44 Co35 2.022 1_565 S
N44 C41 1.351 . S
N44 N45 1.365 . S
N45 C42 1.341 . S
N45 N44 1.365 . S
N45 H65 0.862 . S
C46 C41 1.501 . S
C46 H47 0.961 . S
C46 H48 0.961 . S
C46 H49 0.960 . S
H47 C46 0.961 . S
H48 C46 0.961 . S
H49 C46 0.960 . S
C50 N51 1.342 . S
C50 C54 1.401 . S
C50 C55 1.499 . S
N51 Co34 1.989 . S
N51 C50 1.342 . S
N51 N52 1.388 . S
N52 Co35 1.993 . S
N52 N51 1.388 . S
N52 C53 1.346 . S
C53 N52 1.346 . S
C53 C54 1.396 . S
C53 C63 1.510 . S
C54 C50 1.401 . S
C54 C53 1.396 . S
C55 C50 1.499 . S
C55 H56 0.959 . S
C55 H57 0.960 . S
C55 H58 0.961 . S
H56 C55 0.959 . S
H57 C55 0.960 . S
H58 C55 0.961 . S
O59 Co34 1.967 . S
O59 C67 1.258 . S
O60 Co35 1.952 . S
O60 C67 1.305 . S
H61 C63 0.959 . S
H62 C63 0.961 . S
C63 C53 1.510 . S
C63 H61 0.959 . S
C63 H62 0.961 . S
C63 H64 0.960 . S
H64 C63 0.960 . S
H65 N45 0.862 . S
O66 Co34 1.920 . S
O66 C39 1.289 . S
C67 O59 1.258 . S
C67 O60 1.305 . S
Co68 O71 1.970 . S
Co68 N85 1.989 . S
Co68 O93 1.967 . S
Co68 O100 1.920 . S
Co69 O72 1.935 1_655 S
Co69 N78 2.022 1_655 S
Co69 N86 1.993 . S
Co69 O94 1.942 . S
C70 O71 1.258 . S
C70 O72 1.262 1_655 S
O71 Co68 1.970 . S
O71 C70 1.258 . S
O72 Co69 1.935 1_455 S
O72 C70 1.262 1_455 S
C73 O74 1.235 . S
C73 O100 1.289 . S
O74 C73 1.235 . S
C75 C77 1.400 . S
C75 N78 1.351 . S
C75 C80 1.501 . S
C76 C77 1.387 . S
C76 N79 1.341 . S
C77 C75 1.400 . S
C77 C76 1.387 . S
N78 Co69 2.022 1_455 S
N78 C75 1.351 . S
N78 N79 1.365 . S
N79 C76 1.341 . S
N79 N78 1.365 . S
N79 H99 0.862 . S
C80 C75 1.501 . S
C80 H81 0.961 . S
C80 H82 0.961 . S
C80 H83 0.960 . S
H81 C80 0.961 . S
H82 C80 0.961 . S
H83 C80 0.960 . S
C84 N85 1.342 . S
C84 C88 1.401 . S
C84 C89 1.499 . S
N85 Co68 1.989 . S
N85 C84 1.342 . S
N85 N86 1.388 . S
N86 Co69 1.993 . S
N86 N85 1.388 . S
N86 C87 1.346 . S
C87 N86 1.346 . S
C87 C88 1.396 . S
C87 C97 1.510 . S
C88 C84 1.401 . S
C88 C87 1.396 . S
C89 C84 1.499 . S
C89 H90 0.959 . S
C89 H91 0.960 . S
C89 H92 0.961 . S
H90 C89 0.959 . S
H91 C89 0.960 . S
H92 C89 0.961 . S
O93 Co68 1.967 . S
O93 C101 1.258 . S
O94 Co69 1.942 . S
O94 C101 1.284 . S
H95 C97 0.959 . S
H96 C97 0.961 . S
C97 C87 1.510 . S
C97 H95 0.959 . S
C97 H96 0.961 . S
C97 H98 0.960 . S
H98 C97 0.960 . S
H99 N79 0.862 . S
O100 Co68 1.920 . S
O100 C73 1.289 . S
C101 O93 1.258 . S
C101 O94 1.284 . S
Co102 O105 1.970 . S
Co102 N119 1.989 . S
Co102 O127 1.967 . S
Co102 O134 1.920 . S
Co103 O106 1.966 . S
Co103 N112 2.022 . S
Co103 N120 1.993 . S
Co103 O128 1.941 . S
C104 O105 1.258 . S
C104 O106 1.263 . S
O105 Co102 1.970 . S
O105 C104 1.258 . S
O106 Co103 1.966 . S
O106 C104 1.263 . S
C107 O108 1.235 . S
C107 O134 1.289 . S
O108 C107 1.235 . S
C109 C111 1.400 . S
C109 N112 1.351 . S
C109 C114 1.501 . S
C110 C111 1.387 . S
C110 N113 1.341 . S
C111 C109 1.400 . S
C111 C110 1.387 . S
N112 Co103 2.022 . S
N112 C109 1.351 . S
N112 N113 1.365 . S
N113 C110 1.341 . S
N113 N112 1.365 . S
N113 H133 0.862 . S
C114 C109 1.501 . S
C114 H115 0.961 . S
C114 H116 0.961 . S
C114 H117 0.960 . S
H115 C114 0.961 . S
H116 C114 0.961 . S
H117 C114 0.960 . S
C118 N119 1.342 . S
C118 C122 1.401 . S
C118 C123 1.499 . S
N119 Co102 1.989 . S
N119 C118 1.342 . S
N119 N120 1.388 . S
N120 Co103 1.993 . S
N120 N119 1.388 . S
N120 C121 1.346 . S
C121 N120 1.346 . S
C121 C122 1.396 . S
C121 C131 1.510 . S
C122 C118 1.401 . S
C122 C121 1.396 . S
C123 C118 1.499 . S
C123 H124 0.959 . S
C123 H125 0.960 . S
C123 H126 0.961 . S
H124 C123 0.959 . S
H125 C123 0.960 . S
H126 C123 0.961 . S
O127 Co102 1.967 . S
O127 C135 1.258 . S
O128 Co103 1.941 . S
O128 C135 1.266 . S
H129 C131 0.959 . S
H130 C131 0.961 . S
C131 C121 1.510 . S
C131 H129 0.959 . S
C131 H130 0.961 . S
C131 H132 0.960 . S
H132 C131 0.960 . S
H133 N113 0.862 . S
O134 Co102 1.920 . S
O134 C107 1.289 . S
C135 O127 1.258 . S
C135 O128 1.266 . S
Co136 O139 1.970 . S
Co136 N153 1.989 . S
Co136 O161 1.967 . S
Co136 O168 1.920 . S
Co137 O140 1.935 1_565 S
Co137 N146 2.022 1_565 S
Co137 N154 1.993 . S
Co137 O162 1.943 . S
C138 O139 1.258 . S
C138 O140 1.262 1_565 S
O139 Co136 1.970 . S
O139 C138 1.258 . S
O140 Co137 1.935 1_545 S
O140 C138 1.262 1_545 S
C141 O142 1.235 . S
C141 O168 1.289 . S
O142 C141 1.235 . S
C143 C145 1.400 . S
C143 N146 1.351 . S
C143 C148 1.501 . S
C144 C145 1.387 . S
C144 N147 1.341 . S
C145 C143 1.400 . S
C145 C144 1.387 . S
N146 Co137 2.022 1_545 S
N146 C143 1.351 . S
N146 N147 1.365 . S
N147 C144 1.341 . S
N147 N146 1.365 . S
N147 H167 0.862 . S
C148 C143 1.501 . S
C148 H149 0.961 . S
C148 H150 0.961 . S
C148 H151 0.960 . S
H149 C148 0.961 . S
H150 C148 0.961 . S
H151 C148 0.960 . S
C152 N153 1.342 . S
C152 C156 1.401 . S
C152 C157 1.499 . S
N153 Co136 1.989 . S
N153 C152 1.342 . S
N153 N154 1.388 . S
N154 Co137 1.993 . S
N154 N153 1.388 . S
N154 C155 1.346 . S
C155 N154 1.346 . S
C155 C156 1.396 . S
C155 C165 1.510 . S
C156 C152 1.401 . S
C156 C155 1.396 . S
C157 C152 1.499 . S
C157 H158 0.959 . S
C157 H159 0.960 . S
C157 H160 0.961 . S
H158 C157 0.959 . S
H159 C157 0.960 . S
H160 C157 0.961 . S
O161 Co136 1.967 . S
O161 C169 1.258 . S
O162 Co137 1.943 . S
O162 C169 1.285 . S
H163 C165 0.959 . S
H164 C165 0.961 . S
C165 C155 1.510 . S
C165 H163 0.959 . S
C165 H164 0.961 . S
C165 H166 0.960 . S
H166 C165 0.960 . S
H167 N147 0.862 . S
O168 Co136 1.920 . S
O168 C141 1.289 . S
C169 O161 1.258 . S
C169 O162 1.285 . S
Co170 O173 1.970 . S
Co170 N187 1.989 . S
Co170 O195 1.967 . S
Co170 O202 1.920 . S
Co171 O174 1.984 1_455 S
Co171 N180 2.022 1_455 S
Co171 N188 1.993 . S
Co171 O196 1.953 . S
C172 O173 1.258 . S
C172 O174 1.220 1_455 S
O173 Co170 1.970 . S
O173 C172 1.258 . S
O174 Co171 1.984 1_655 S
O174 C172 1.220 1_655 S
C175 O176 1.235 . S
C175 O202 1.289 . S
O176 C175 1.235 . S
C177 C179 1.400 . S
C177 N180 1.351 . S
C177 C182 1.501 . S
C178 C179 1.387 . S
C178 N181 1.341 . S
C179 C177 1.400 . S
C179 C178 1.387 . S
N180 Co171 2.022 1_655 S
N180 C177 1.351 . S
N180 N181 1.365 . S
N181 C178 1.341 . S
N181 N180 1.365 . S
N181 H201 0.862 . S
C182 C177 1.501 . S
C182 H183 0.961 . S
C182 H184 0.961 . S
C182 H185 0.960 . S
H183 C182 0.961 . S
H184 C182 0.961 . S
H185 C182 0.960 . S
C186 N187 1.342 . S
C186 C190 1.401 . S
C186 C191 1.499 . S
N187 Co170 1.989 . S
N187 C186 1.342 . S
N187 N188 1.388 . S
N188 Co171 1.993 . S
N188 N187 1.388 . S
N188 C189 1.346 . S
C189 N188 1.346 . S
C189 C190 1.396 . S
C189 C199 1.510 . S
C190 C186 1.401 . S
C190 C189 1.396 . S
C191 C186 1.499 . S
C191 H192 0.959 . S
C191 H193 0.960 . S
C191 H194 0.961 . S
H192 C191 0.959 . S
H193 C191 0.960 . S
H194 C191 0.961 . S
O195 Co170 1.967 . S
O195 C203 1.258 . S
O196 Co171 1.953 . S
O196 C203 1.305 . S
H197 C199 0.959 . S
H198 C199 0.961 . S
C199 C189 1.510 . S
C199 H197 0.959 . S
C199 H198 0.961 . S
C199 H200 0.960 . S
H200 C199 0.960 . S
H201 N181 0.862 . S
O202 Co170 1.920 . S
O202 C175 1.289 . S
C203 O195 1.258 . S
C203 O196 1.305 . S
Co204 O207 1.970 . S
Co204 N221 1.989 . S
Co204 O229 1.967 . S
Co204 O236 1.920 . S
Co205 O208 1.966 . S
Co205 N214 2.022 . S
Co205 N222 1.993 . S
Co205 O230 1.941 . S
C206 O207 1.258 . S
C206 O208 1.263 . S
O207 Co204 1.970 . S
O207 C206 1.258 . S
O208 Co205 1.966 . S
O208 C206 1.263 . S
C209 O210 1.235 . S
C209 O236 1.289 . S
O210 C209 1.235 . S
C211 C213 1.400 . S
C211 N214 1.351 . S
C211 C216 1.501 . S
C212 C213 1.387 . S
C212 N215 1.341 . S
C213 C211 1.400 . S
C213 C212 1.387 . S
N214 Co205 2.022 . S
N214 C211 1.351 . S
N214 N215 1.365 . S
N215 C212 1.341 . S
N215 N214 1.365 . S
N215 H235 0.862 . S
C216 C211 1.501 . S
C216 H217 0.961 . S
C216 H218 0.961 . S
C216 H219 0.960 . S
H217 C216 0.961 . S
H218 C216 0.961 . S
H219 C216 0.960 . S
C220 N221 1.342 . S
C220 C224 1.401 . S
C220 C225 1.499 . S
N221 Co204 1.989 . S
N221 C220 1.342 . S
N221 N222 1.388 . S
N222 Co205 1.993 . S
N222 N221 1.388 . S
N222 C223 1.346 . S
C223 N222 1.346 . S
C223 C224 1.396 . S
C223 C233 1.510 . S
C224 C220 1.401 . S
C224 C223 1.396 . S
C225 C220 1.499 . S
C225 H226 0.959 . S
C225 H227 0.960 . S
C225 H228 0.961 . S
H226 C225 0.959 . S
H227 C225 0.960 . S
H228 C225 0.961 . S
O229 Co204 1.967 . S
O229 C237 1.258 . S
O230 Co205 1.941 . S
O230 C237 1.266 . S
H231 C233 0.959 . S
H232 C233 0.961 . S
C233 C223 1.510 . S
C233 H231 0.959 . S
C233 H232 0.961 . S
C233 H234 0.960 . S
H234 C233 0.960 . S
H235 N215 0.862 . S
O236 Co204 1.920 . S
O236 C209 1.289 . S
C237 O229 1.258 . S
C237 O230 1.266 . S
Co238 O241 1.970 . S
Co238 N255 1.989 . S
Co238 O263 1.967 . S
Co238 O270 1.920 . S
Co239 O242 1.984 1_565 S
Co239 N248 2.022 1_565 S
Co239 N256 1.993 . S
Co239 O264 1.952 . S
C240 O241 1.258 . S
C240 O242 1.220 1_565 S
O241 Co238 1.970 . S
O241 C240 1.258 . S
O242 Co239 1.984 1_545 S
O242 C240 1.220 1_545 S
C243 O244 1.235 . S
C243 O270 1.289 . S
O244 C243 1.235 . S
C245 C247 1.400 . S
C245 N248 1.351 . S
C245 C250 1.501 . S
C246 C247 1.387 . S
C246 N249 1.341 . S
C247 C245 1.400 . S
C247 C246 1.387 . S
N248 Co239 2.022 1_545 S
N248 C245 1.351 . S
N248 N249 1.365 . S
N249 C246 1.341 . S
N249 N248 1.365 . S
N249 H269 0.862 . S
C250 C245 1.501 . S
C250 H251 0.961 . S
C250 H252 0.961 . S
C250 H253 0.960 . S
H251 C250 0.961 . S
H252 C250 0.961 . S
H253 C250 0.960 . S
C254 N255 1.342 . S
C254 C258 1.401 . S
C254 C259 1.499 . S
N255 Co238 1.989 . S
N255 C254 1.342 . S
N255 N256 1.388 . S
N256 Co239 1.993 . S
N256 N255 1.388 . S
N256 C257 1.346 . S
C257 N256 1.346 . S
C257 C258 1.396 . S
C257 C267 1.510 . S
C258 C254 1.401 . S
C258 C257 1.396 . S
C259 C254 1.499 . S
C259 H260 0.959 . S
C259 H261 0.960 . S
C259 H262 0.961 . S
H260 C259 0.959 . S
H261 C259 0.960 . S
H262 C259 0.961 . S
O263 Co238 1.967 . S
O263 C271 1.258 . S
O264 Co239 1.952 . S
O264 C271 1.305 . S
H265 C267 0.959 . S
H266 C267 0.961 . S
C267 C257 1.510 . S
C267 H265 0.959 . S
C267 H266 0.961 . S
C267 H268 0.960 . S
H268 C267 0.960 . S
H269 N249 0.862 . S
O270 Co238 1.920 . S
O270 C243 1.289 . S
C271 O263 1.258 . S
C271 O264 1.305 . S
Co272 O275 1.970 . S
Co272 N289 1.989 . S
Co272 O297 1.967 . S
Co272 O304 1.920 . S
Co273 O276 1.935 1_455 S
Co273 N282 2.022 1_455 S
Co273 N290 1.993 . S
Co273 O298 1.942 . S
C274 O275 1.258 . S
C274 O276 1.262 1_455 S
O275 Co272 1.970 . S
O275 C274 1.258 . S
O276 Co273 1.935 1_655 S
O276 C274 1.262 1_655 S
C277 O278 1.235 . S
C277 O304 1.289 . S
O278 C277 1.235 . S
C279 C281 1.400 . S
C279 N282 1.351 . S
C279 C284 1.501 . S
C280 C281 1.387 . S
C280 N283 1.341 . S
C281 C279 1.400 . S
C281 C280 1.387 . S
N282 Co273 2.022 1_655 S
N282 C279 1.351 . S
N282 N283 1.365 . S
N283 C280 1.341 . S
N283 N282 1.365 . S
N283 H303 0.862 . S
C284 C279 1.501 . S
C284 H285 0.961 . S
C284 H286 0.961 . S
C284 H287 0.960 . S
H285 C284 0.961 . S
H286 C284 0.961 . S
H287 C284 0.960 . S
C288 N289 1.342 . S
C288 C292 1.401 . S
C288 C293 1.499 . S
N289 Co272 1.989 . S
N289 C288 1.342 . S
N289 N290 1.388 . S
N290 Co273 1.993 . S
N290 N289 1.388 . S
N290 C291 1.346 . S
C291 N290 1.346 . S
C291 C292 1.396 . S
C291 C301 1.510 . S
C292 C288 1.401 . S
C292 C291 1.396 . S
C293 C288 1.499 . S
C293 H294 0.959 . S
C293 H295 0.960 . S
C293 H296 0.961 . S
H294 C293 0.959 . S
H295 C293 0.960 . S
H296 C293 0.961 . S
O297 Co272 1.967 . S
O297 C305 1.258 . S
O298 Co273 1.942 . S
O298 C305 1.284 . S
H299 C301 0.959 . S
H300 C301 0.961 . S
C301 C291 1.510 . S
C301 H299 0.959 . S
C301 H300 0.961 . S
C301 H302 0.960 . S
H302 C301 0.960 . S
H303 N283 0.862 . S
O304 Co272 1.920 . S
O304 C277 1.289 . S
C305 O297 1.258 . S
C305 O298 1.284 . S
Co306 O309 1.970 . S
Co306 N323 1.989 . S
Co306 O331 1.967 . S
Co306 O338 1.920 . S
Co307 O310 1.966 . S
Co307 N316 2.022 . S
Co307 N324 1.993 . S
Co307 O332 1.941 . S
C308 O309 1.258 . S
C308 O310 1.263 . S
O309 Co306 1.970 . S
O309 C308 1.258 . S
O310 Co307 1.966 . S
O310 C308 1.263 . S
C311 O312 1.235 . S
C311 O338 1.289 . S
O312 C311 1.235 . S
C313 C315 1.400 . S
C313 N316 1.351 . S
C313 C318 1.501 . S
C314 C315 1.387 . S
C314 N317 1.341 . S
C315 C313 1.400 . S
C315 C314 1.387 . S
N316 Co307 2.022 . S
N316 C313 1.351 . S
N316 N317 1.365 . S
N317 C314 1.341 . S
N317 N316 1.365 . S
N317 H337 0.862 . S
C318 C313 1.501 . S
C318 H319 0.961 . S
C318 H320 0.961 . S
C318 H321 0.960 . S
H319 C318 0.961 . S
H320 C318 0.961 . S
H321 C318 0.960 . S
C322 N323 1.342 . S
C322 C326 1.401 . S
C322 C327 1.499 . S
N323 Co306 1.989 . S
N323 C322 1.342 . S
N323 N324 1.388 . S
N324 Co307 1.993 . S
N324 N323 1.388 . S
N324 C325 1.346 . S
C325 N324 1.346 . S
C325 C326 1.396 . S
C325 C335 1.510 . S
C326 C322 1.401 . S
C326 C325 1.396 . S
C327 C322 1.499 . S
C327 H328 0.959 . S
C327 H329 0.960 . S
C327 H330 0.961 . S
H328 C327 0.959 . S
H329 C327 0.960 . S
H330 C327 0.961 . S
O331 Co306 1.967 . S
O331 C339 1.258 . S
O332 Co307 1.941 . S
O332 C339 1.266 . S
H333 C335 0.959 . S
H334 C335 0.961 . S
C335 C325 1.510 . S
C335 H333 0.959 . S
C335 H334 0.961 . S
C335 H336 0.960 . S
H336 C335 0.960 . S
H337 N317 0.862 . S
O338 Co306 1.920 . S
O338 C311 1.289 . S
C339 O331 1.258 . S
C339 O332 1.266 . S
Co340 O343 1.970 . S
Co340 N357 1.989 . S
Co340 O365 1.967 . S
Co340 O372 1.920 . S
Co341 O344 1.935 1_545 S
Co341 N350 2.022 1_545 S
Co341 N358 1.993 . S
Co341 O366 1.943 . S
C342 O343 1.258 . S
C342 O344 1.262 1_545 S
O343 Co340 1.970 . S
O343 C342 1.258 . S
O344 Co341 1.935 1_565 S
O344 C342 1.262 1_565 S
C345 O346 1.235 . S
C345 O372 1.289 . S
O346 C345 1.235 . S
C347 C349 1.400 . S
C347 N350 1.351 . S
C347 C352 1.501 . S
C348 C349 1.387 . S
C348 N351 1.341 . S
C349 C347 1.400 . S
C349 C348 1.387 . S
N350 Co341 2.022 1_565 S
N350 C347 1.351 . S
N350 N351 1.365 . S
N351 C348 1.341 . S
N351 N350 1.365 . S
N351 H371 0.862 . S
C352 C347 1.501 . S
C352 H353 0.961 . S
C352 H354 0.961 . S
C352 H355 0.960 . S
H353 C352 0.961 . S
H354 C352 0.961 . S
H355 C352 0.960 . S
C356 N357 1.342 . S
C356 C360 1.401 . S
C356 C361 1.499 . S
N357 Co340 1.989 . S
N357 C356 1.342 . S
N357 N358 1.388 . S
N358 Co341 1.993 . S
N358 N357 1.388 . S
N358 C359 1.346 . S
C359 N358 1.346 . S
C359 C360 1.396 . S
C359 C369 1.510 . S
C360 C356 1.401 . S
C360 C359 1.396 . S
C361 C356 1.499 . S
C361 H362 0.959 . S
C361 H363 0.960 . S
C361 H364 0.961 . S
H362 C361 0.959 . S
H363 C361 0.960 . S
H364 C361 0.961 . S
O365 Co340 1.967 . S
O365 C373 1.258 . S
O366 Co341 1.943 . S
O366 C373 1.285 . S
H367 C369 0.959 . S
H368 C369 0.961 . S
C369 C359 1.510 . S
C369 H367 0.959 . S
C369 H368 0.961 . S
C369 H370 0.960 . S
H370 C369 0.960 . S
H371 N351 0.862 . S
O372 Co340 1.920 . S
O372 C345 1.289 . S
C373 O365 1.258 . S
C373 O366 1.285 . S
Co374 O377 1.970 . S
Co374 N391 1.989 . S
Co374 O399 1.967 . S
Co374 O406 1.920 . S
Co375 O378 1.984 1_655 S
Co375 N384 2.022 1_655 S
Co375 N392 1.993 . S
Co375 O400 1.953 . S
C376 O377 1.258 . S
C376 O378 1.220 1_655 S
O377 Co374 1.970 . S
O377 C376 1.258 . S
O378 Co375 1.984 1_455 S
O378 C376 1.220 1_455 S
C379 O380 1.235 . S
C379 O406 1.289 . S
O380 C379 1.235 . S
C381 C383 1.400 . S
C381 N384 1.351 . S
C381 C386 1.501 . S
C382 C383 1.387 . S
C382 N385 1.341 . S
C383 C381 1.400 . S
C383 C382 1.387 . S
N384 Co375 2.022 1_455 S
N384 C381 1.351 . S
N384 N385 1.365 . S
N385 C382 1.341 . S
N385 N384 1.365 . S
N385 H405 0.862 . S
C386 C381 1.501 . S
C386 H387 0.961 . S
C386 H388 0.961 . S
C386 H389 0.960 . S
H387 C386 0.961 . S
H388 C386 0.961 . S
H389 C386 0.960 . S
C390 N391 1.342 . S
C390 C394 1.401 . S
C390 C395 1.499 . S
N391 Co374 1.989 . S
N391 C390 1.342 . S
N391 N392 1.388 . S
N392 Co375 1.993 . S
N392 N391 1.388 . S
N392 C393 1.346 . S
C393 N392 1.346 . S
C393 C394 1.396 . S
C393 C403 1.510 . S
C394 C390 1.401 . S
C394 C393 1.396 . S
C395 C390 1.499 . S
C395 H396 0.959 . S
C395 H397 0.960 . S
C395 H398 0.961 . S
H396 C395 0.959 . S
H397 C395 0.960 . S
H398 C395 0.961 . S
O399 Co374 1.967 . S
O399 C407 1.258 . S
O400 Co375 1.953 . S
O400 C407 1.305 . S
H401 C403 0.959 . S
H402 C403 0.961 . S
C403 C393 1.510 . S
C403 H401 0.959 . S
C403 H402 0.961 . S
C403 H404 0.960 . S
H404 C403 0.960 . S
H405 N385 0.862 . S
O406 Co374 1.920 . S
O406 C379 1.289 . S
C407 O399 1.258 . S
C407 O400 1.305 . S
Co408 O411 1.970 . S
Co408 N425 1.989 . S
Co408 O433 1.967 . S
Co408 O440 1.920 . S
Co409 O412 1.966 . S
Co409 N418 2.022 . S
Co409 N426 1.993 . S
Co409 O434 1.941 . S
C410 O411 1.258 . S
C410 O412 1.263 . S
O411 Co408 1.970 . S
O411 C410 1.258 . S
O412 Co409 1.966 . S
O412 C410 1.263 . S
C413 O414 1.235 . S
C413 O440 1.289 . S
O414 C413 1.235 . S
C415 C417 1.400 . S
C415 N418 1.351 . S
C415 C420 1.501 . S
C416 C417 1.387 . S
C416 N419 1.341 . S
C417 C415 1.400 . S
C417 C416 1.387 . S
N418 Co409 2.022 . S
N418 C415 1.351 . S
N418 N419 1.365 . S
N419 C416 1.341 . S
N419 N418 1.365 . S
N419 H439 0.862 . S
C420 C415 1.501 . S
C420 H421 0.961 . S
C420 H422 0.961 . S
C420 H423 0.960 . S
H421 C420 0.961 . S
H422 C420 0.961 . S
H423 C420 0.960 . S
C424 N425 1.342 . S
C424 C428 1.401 . S
C424 C429 1.499 . S
N425 Co408 1.989 . S
N425 C424 1.342 . S
N425 N426 1.388 . S
N426 Co409 1.993 . S
N426 N425 1.388 . S
N426 C427 1.346 . S
C427 N426 1.346 . S
C427 C428 1.396 . S
C427 C437 1.510 . S
C428 C424 1.401 . S
C428 C427 1.396 . S
C429 C424 1.499 . S
C429 H430 0.959 . S
C429 H431 0.960 . S
C429 H432 0.961 . S
H430 C429 0.959 . S
H431 C429 0.960 . S
H432 C429 0.961 . S
O433 Co408 1.967 . S
O433 C441 1.258 . S
O434 Co409 1.941 . S
O434 C441 1.266 . S
H435 C437 0.959 . S
H436 C437 0.961 . S
C437 C427 1.510 . S
C437 H435 0.959 . S
C437 H436 0.961 . S
C437 H438 0.960 . S
H438 C437 0.960 . S
H439 N419 0.862 . S
O440 Co408 1.920 . S
O440 C413 1.289 . S
C441 O433 1.258 . S
C441 O434 1.266 . S
Co442 O445 1.970 . S
Co442 N459 1.989 . S
Co442 O467 1.967 . S
Co442 O474 1.920 . S
Co443 O446 1.966 . S
Co443 N452 2.022 . S
Co443 N460 1.993 . S
Co443 O468 1.941 . S
C444 O445 1.258 . S
C444 O446 1.263 . S
O445 Co442 1.970 . S
O445 C444 1.258 . S
O446 Co443 1.966 . S
O446 C444 1.263 . S
C447 O448 1.235 . S
C447 O474 1.289 . S
O448 C447 1.235 . S
C449 C451 1.400 . S
C449 N452 1.351 . S
C449 C454 1.501 . S
C450 C451 1.387 . S
C450 N453 1.341 . S
C451 C449 1.400 . S
C451 C450 1.387 . S
N452 Co443 2.022 . S
N452 C449 1.351 . S
N452 N453 1.365 . S
N453 C450 1.341 . S
N453 N452 1.365 . S
N453 H473 0.862 . S
C454 C449 1.501 . S
C454 H455 0.961 . S
C454 H456 0.961 . S
C454 H457 0.960 . S
H455 C454 0.961 . S
H456 C454 0.961 . S
H457 C454 0.960 . S
C458 N459 1.342 . S
C458 C462 1.401 . S
C458 C463 1.499 . S
N459 Co442 1.989 . S
N459 C458 1.342 . S
N459 N460 1.388 . S
N460 Co443 1.993 . S
N460 N459 1.388 . S
N460 C461 1.346 . S
C461 N460 1.346 . S
C461 C462 1.396 . S
C461 C471 1.510 . S
C462 C458 1.401 . S
C462 C461 1.396 . S
C463 C458 1.499 . S
C463 H464 0.959 . S
C463 H465 0.960 . S
C463 H466 0.961 . S
H464 C463 0.959 . S
H465 C463 0.960 . S
H466 C463 0.961 . S
O467 Co442 1.967 . S
O467 C475 1.258 . S
O468 Co443 1.941 . S
O468 C475 1.266 . S
H469 C471 0.959 . S
H470 C471 0.961 . S
C471 C461 1.510 . S
C471 H469 0.959 . S
C471 H470 0.961 . S
C471 H472 0.960 . S
H472 C471 0.960 . S
H473 N453 0.862 . S
O474 Co442 1.920 . S
O474 C447 1.289 . S
C475 O467 1.258 . S
C475 O468 1.266 . S
Co476 O479 1.970 . S
Co476 N493 1.989 . S
Co476 O501 1.967 . S
Co476 O508 1.920 . S
Co477 O480 1.966 . S
Co477 N486 2.022 . S
Co477 N494 1.993 . S
Co477 O502 1.941 . S
C478 O479 1.258 . S
C478 O480 1.263 . S
O479 Co476 1.970 . S
O479 C478 1.258 . S
O480 Co477 1.966 . S
O480 C478 1.263 . S
C481 O482 1.235 . S
C481 O508 1.289 . S
O482 C481 1.235 . S
C483 C485 1.400 . S
C483 N486 1.351 . S
C483 C488 1.501 . S
C484 C485 1.387 . S
C484 N487 1.341 . S
C485 C483 1.400 . S
C485 C484 1.387 . S
N486 Co477 2.022 . S
N486 C483 1.351 . S
N486 N487 1.365 . S
N487 C484 1.341 . S
N487 N486 1.365 . S
N487 H507 0.862 . S
C488 C483 1.501 . S
C488 H489 0.961 . S
C488 H490 0.961 . S
C488 H491 0.960 . S
H489 C488 0.961 . S
H490 C488 0.961 . S
H491 C488 0.960 . S
C492 N493 1.342 . S
C492 C496 1.401 . S
C492 C497 1.499 . S
N493 Co476 1.989 . S
N493 C492 1.342 . S
N493 N494 1.388 . S
N494 Co477 1.993 . S
N494 N493 1.388 . S
N494 C495 1.346 . S
C495 N494 1.346 . S
C495 C496 1.396 . S
C495 C505 1.510 . S
C496 C492 1.401 . S
C496 C495 1.396 . S
C497 C492 1.499 . S
C497 H498 0.959 . S
C497 H499 0.960 . S
C497 H500 0.961 . S
H498 C497 0.959 . S
H499 C497 0.960 . S
H500 C497 0.961 . S
O501 Co476 1.967 . S
O501 C509 1.258 . S
O502 Co477 1.941 . S
O502 C509 1.266 . S
H503 C505 0.959 . S
H504 C505 0.961 . S
C505 C495 1.510 . S
C505 H503 0.959 . S
C505 H504 0.961 . S
C505 H506 0.960 . S
H506 C505 0.960 . S
H507 N487 0.862 . S
O508 Co476 1.920 . S
O508 C481 1.289 . S
C509 O501 1.258 . S
C509 O502 1.266 . S
Co510 O513 1.970 . S
Co510 N527 1.989 . S
Co510 O535 1.967 . S
Co510 O542 1.920 . S
Co511 O514 1.966 . S
Co511 N520 2.022 . S
Co511 N528 1.993 . S
Co511 O536 1.941 . S
C512 O513 1.258 . S
C512 O514 1.263 . S
O513 Co510 1.970 . S
O513 C512 1.258 . S
O514 Co511 1.966 . S
O514 C512 1.263 . S
C515 O516 1.235 . S
C515 O542 1.289 . S
O516 C515 1.235 . S
C517 C519 1.400 . S
C517 N520 1.351 . S
C517 C522 1.501 . S
C518 C519 1.387 . S
C518 N521 1.341 . S
C519 C517 1.400 . S
C519 C518 1.387 . S
N520 Co511 2.022 . S
N520 C517 1.351 . S
N520 N521 1.365 . S
N521 C518 1.341 . S
N521 N520 1.365 . S
N521 H541 0.862 . S
C522 C517 1.501 . S
C522 H523 0.961 . S
C522 H524 0.961 . S
C522 H525 0.960 . S
H523 C522 0.961 . S
H524 C522 0.961 . S
H525 C522 0.960 . S
C526 N527 1.342 . S
C526 C530 1.401 . S
C526 C531 1.499 . S
N527 Co510 1.989 . S
N527 C526 1.342 . S
N527 N528 1.388 . S
N528 Co511 1.993 . S
N528 N527 1.388 . S
N528 C529 1.346 . S
C529 N528 1.346 . S
C529 C530 1.396 . S
C529 C539 1.510 . S
C530 C526 1.401 . S
C530 C529 1.396 . S
C531 C526 1.499 . S
C531 H532 0.959 . S
C531 H533 0.960 . S
C531 H534 0.961 . S
H532 C531 0.959 . S
H533 C531 0.960 . S
H534 C531 0.961 . S
O535 Co510 1.967 . S
O535 C543 1.258 . S
O536 Co511 1.941 . S
O536 C543 1.266 . S
H537 C539 0.959 . S
H538 C539 0.961 . S
C539 C529 1.510 . S
C539 H537 0.959 . S
C539 H538 0.961 . S
C539 H540 0.960 . S
H540 C539 0.960 . S
H541 N521 0.862 . S
O542 Co510 1.920 . S
O542 C515 1.289 . S
C543 O535 1.258 . S
C543 O536 1.266 . S
Co544 O547 1.970 . S
Co544 N561 1.989 . S
Co544 O569 1.967 . S
Co544 O576 1.920 . S
Co545 O548 1.966 . S
Co545 N554 2.022 . S
Co545 N562 1.993 . S
Co545 O570 1.941 . S
C546 O547 1.258 . S
C546 O548 1.263 . S
O547 Co544 1.970 . S
O547 C546 1.258 . S
O548 Co545 1.966 . S
O548 C546 1.263 . S
C549 O550 1.235 . S
C549 O576 1.289 . S
O550 C549 1.235 . S
C551 C553 1.400 . S
C551 N554 1.351 . S
C551 C556 1.501 . S
C552 C553 1.387 . S
C552 N555 1.341 . S
C553 C551 1.400 . S
C553 C552 1.387 . S
N554 Co545 2.022 . S
N554 C551 1.351 . S
N554 N555 1.365 . S
N555 C552 1.341 . S
N555 N554 1.365 . S
N555 H575 0.862 . S
C556 C551 1.501 . S
C556 H557 0.961 . S
C556 H558 0.961 . S
C556 H559 0.960 . S
H557 C556 0.961 . S
H558 C556 0.961 . S
H559 C556 0.960 . S
C560 N561 1.342 . S
C560 C564 1.401 . S
C560 C565 1.499 . S
N561 Co544 1.989 . S
N561 C560 1.342 . S
N561 N562 1.388 . S
N562 Co545 1.993 . S
N562 N561 1.388 . S
N562 C563 1.346 . S
C563 N562 1.346 . S
C563 C564 1.396 . S
C563 C573 1.510 . S
C564 C560 1.401 . S
C564 C563 1.396 . S
C565 C560 1.499 . S
C565 H566 0.959 . S
C565 H567 0.960 . S
C565 H568 0.961 . S
H566 C565 0.959 . S
H567 C565 0.960 . S
H568 C565 0.961 . S
O569 Co544 1.967 . S
O569 C577 1.258 . S
O570 Co545 1.941 . S
O570 C577 1.266 . S
H571 C573 0.959 . S
H572 C573 0.961 . S
C573 C563 1.510 . S
C573 H571 0.959 . S
C573 H572 0.961 . S
C573 H574 0.960 . S
H574 C573 0.960 . S
H575 N555 0.862 . S
O576 Co544 1.920 . S
O576 C549 1.289 . S
C577 O569 1.258 . S
C577 O570 1.266 . S
Co578 O581 1.970 . S
Co578 N595 1.989 . S
Co578 O603 1.967 . S
Co578 O610 1.920 . S
Co579 O582 1.966 . S
Co579 N588 2.022 . S
Co579 N596 1.993 . S
Co579 O604 1.941 . S
C580 O581 1.258 . S
C580 O582 1.263 . S
O581 Co578 1.970 . S
O581 C580 1.258 . S
O582 Co579 1.966 . S
O582 C580 1.263 . S
C583 O584 1.235 . S
C583 O610 1.289 . S
O584 C583 1.235 . S
C585 C587 1.400 . S
C585 N588 1.351 . S
C585 C590 1.501 . S
C586 C587 1.387 . S
C586 N589 1.341 . S
C587 C585 1.400 . S
C587 C586 1.387 . S
N588 Co579 2.022 . S
N588 C585 1.351 . S
N588 N589 1.365 . S
N589 C586 1.341 . S
N589 N588 1.365 . S
N589 H609 0.862 . S
C590 C585 1.501 . S
C590 H591 0.961 . S
C590 H592 0.961 . S
C590 H593 0.960 . S
H591 C590 0.961 . S
H592 C590 0.961 . S
H593 C590 0.960 . S
C594 N595 1.342 . S
C594 C598 1.401 . S
C594 C599 1.499 . S
N595 Co578 1.989 . S
N595 C594 1.342 . S
N595 N596 1.388 . S
N596 Co579 1.993 . S
N596 N595 1.388 . S
N596 C597 1.346 . S
C597 N596 1.346 . S
C597 C598 1.396 . S
C597 C607 1.510 . S
C598 C594 1.401 . S
C598 C597 1.396 . S
C599 C594 1.499 . S
C599 H600 0.959 . S
C599 H601 0.960 . S
C599 H602 0.961 . S
H600 C599 0.959 . S
H601 C599 0.960 . S
H602 C599 0.961 . S
O603 Co578 1.967 . S
O603 C611 1.258 . S
O604 Co579 1.941 . S
O604 C611 1.266 . S
H605 C607 0.959 . S
H606 C607 0.961 . S
C607 C597 1.510 . S
C607 H605 0.959 . S
C607 H606 0.961 . S
C607 H608 0.960 . S
H608 C607 0.960 . S
H609 N589 0.862 . S
O610 Co578 1.920 . S
O610 C583 1.289 . S
C611 O603 1.258 . S
C611 O604 1.266 . S
Co612 O615 1.970 . S
Co612 N629 1.989 . S
Co612 O637 1.967 . S
Co612 O644 1.920 . S
Co613 O616 1.966 . S
Co613 N622 2.022 . S
Co613 N630 1.993 . S
Co613 O638 1.941 . S
C614 O615 1.258 . S
C614 O616 1.263 . S
O615 Co612 1.970 . S
O615 C614 1.258 . S
O616 Co613 1.966 . S
O616 C614 1.263 . S
C617 O618 1.235 . S
C617 O644 1.289 . S
O618 C617 1.235 . S
C619 C621 1.400 . S
C619 N622 1.351 . S
C619 C624 1.501 . S
C620 C621 1.387 . S
C620 N623 1.341 . S
C621 C619 1.400 . S
C621 C620 1.387 . S
N622 Co613 2.022 . S
N622 C619 1.351 . S
N622 N623 1.365 . S
N623 C620 1.341 . S
N623 N622 1.365 . S
N623 H643 0.862 . S
C624 C619 1.501 . S
C624 H625 0.961 . S
C624 H626 0.961 . S
C624 H627 0.960 . S
H625 C624 0.961 . S
H626 C624 0.961 . S
H627 C624 0.960 . S
C628 N629 1.342 . S
C628 C632 1.401 . S
C628 C633 1.499 . S
N629 Co612 1.989 . S
N629 C628 1.342 . S
N629 N630 1.388 . S
N630 Co613 1.993 . S
N630 N629 1.388 . S
N630 C631 1.346 . S
C631 N630 1.346 . S
C631 C632 1.396 . S
C631 C641 1.510 . S
C632 C628 1.401 . S
C632 C631 1.396 . S
C633 C628 1.499 . S
C633 H634 0.959 . S
C633 H635 0.960 . S
C633 H636 0.961 . S
H634 C633 0.959 . S
H635 C633 0.960 . S
H636 C633 0.961 . S
O637 Co612 1.967 . S
O637 C645 1.258 . S
O638 Co613 1.941 . S
O638 C645 1.266 . S
H639 C641 0.959 . S
H640 C641 0.961 . S
C641 C631 1.510 . S
C641 H639 0.959 . S
C641 H640 0.961 . S
C641 H642 0.960 . S
H642 C641 0.960 . S
H643 N623 0.862 . S
O644 Co612 1.920 . S
O644 C617 1.289 . S
C645 O637 1.258 . S
C645 O638 1.266 . S
Co646 O649 1.970 . S
Co646 N663 1.989 . S
Co646 O671 1.967 . S
Co646 O678 1.920 . S
Co647 O650 1.966 . S
Co647 N656 2.022 . S
Co647 N664 1.993 . S
Co647 O672 1.941 . S
C648 O649 1.258 . S
C648 O650 1.263 . S
O649 Co646 1.970 . S
O649 C648 1.258 . S
O650 Co647 1.966 . S
O650 C648 1.263 . S
C651 O652 1.235 . S
C651 O678 1.289 . S
O652 C651 1.235 . S
C653 C655 1.400 . S
C653 N656 1.351 . S
C653 C658 1.501 . S
C654 C655 1.387 . S
C654 N657 1.341 . S
C655 C653 1.400 . S
C655 C654 1.387 . S
N656 Co647 2.022 . S
N656 C653 1.351 . S
N656 N657 1.365 . S
N657 C654 1.341 . S
N657 N656 1.365 . S
N657 H677 0.862 . S
C658 C653 1.501 . S
C658 H659 0.961 . S
C658 H660 0.961 . S
C658 H661 0.960 . S
H659 C658 0.961 . S
H660 C658 0.961 . S
H661 C658 0.960 . S
C662 N663 1.342 . S
C662 C666 1.401 . S
C662 C667 1.499 . S
N663 Co646 1.989 . S
N663 C662 1.342 . S
N663 N664 1.388 . S
N664 Co647 1.993 . S
N664 N663 1.388 . S
N664 C665 1.346 . S
C665 N664 1.346 . S
C665 C666 1.396 . S
C665 C675 1.510 . S
C666 C662 1.401 . S
C666 C665 1.396 . S
C667 C662 1.499 . S
C667 H668 0.959 . S
C667 H669 0.960 . S
C667 H670 0.961 . S
H668 C667 0.959 . S
H669 C667 0.960 . S
H670 C667 0.961 . S
O671 Co646 1.967 . S
O671 C679 1.258 . S
O672 Co647 1.941 . S
O672 C679 1.266 . S
H673 C675 0.959 . S
H674 C675 0.961 . S
C675 C665 1.510 . S
C675 H673 0.959 . S
C675 H674 0.961 . S
C675 H676 0.960 . S
H676 C675 0.960 . S
H677 N657 0.862 . S
O678 Co646 1.920 . S
O678 C651 1.289 . S
C679 O671 1.258 . S
C679 O672 1.266 . S
Co680 O683 1.970 . S
Co680 N697 1.989 . S
Co680 O705 1.967 . S
Co680 O712 1.920 . S
Co681 O684 1.966 . S
Co681 N690 2.022 . S
Co681 N698 1.993 . S
Co681 O706 1.941 . S
C682 O683 1.258 . S
C682 O684 1.263 . S
O683 Co680 1.970 . S
O683 C682 1.258 . S
O684 Co681 1.966 . S
O684 C682 1.263 . S
C685 O686 1.235 . S
C685 O712 1.289 . S
O686 C685 1.235 . S
C687 C689 1.400 . S
C687 N690 1.351 . S
C687 C692 1.501 . S
C688 C689 1.387 . S
C688 N691 1.341 . S
C689 C687 1.400 . S
C689 C688 1.387 . S
N690 Co681 2.022 . S
N690 C687 1.351 . S
N690 N691 1.365 . S
N691 C688 1.341 . S
N691 N690 1.365 . S
N691 H711 0.862 . S
C692 C687 1.501 . S
C692 H693 0.961 . S
C692 H694 0.961 . S
C692 H695 0.960 . S
H693 C692 0.961 . S
H694 C692 0.961 . S
H695 C692 0.960 . S
C696 N697 1.342 . S
C696 C700 1.401 . S
C696 C701 1.499 . S
N697 Co680 1.989 . S
N697 C696 1.342 . S
N697 N698 1.388 . S
N698 Co681 1.993 . S
N698 N697 1.388 . S
N698 C699 1.346 . S
C699 N698 1.346 . S
C699 C700 1.396 . S
C699 C709 1.510 . S
C700 C696 1.401 . S
C700 C699 1.396 . S
C701 C696 1.499 . S
C701 H702 0.959 . S
C701 H703 0.960 . S
C701 H704 0.961 . S
H702 C701 0.959 . S
H703 C701 0.960 . S
H704 C701 0.961 . S
O705 Co680 1.967 . S
O705 C713 1.258 . S
O706 Co681 1.941 . S
O706 C713 1.266 . S
H707 C709 0.959 . S
H708 C709 0.961 . S
C709 C699 1.510 . S
C709 H707 0.959 . S
C709 H708 0.961 . S
C709 H710 0.960 . S
H710 C709 0.960 . S
H711 N691 0.862 . S
O712 Co680 1.920 . S
O712 C685 1.289 . S
C713 O705 1.258 . S
C713 O706 1.266 . S
Co714 O717 1.970 . S
Co714 N731 1.989 . S
Co714 O739 1.967 . S
Co714 O746 1.920 . S
Co715 O718 1.966 . S
Co715 N724 2.022 . S
Co715 N732 1.993 . S
Co715 O740 1.941 . S
C716 O717 1.258 . S
C716 O718 1.263 . S
O717 Co714 1.970 . S
O717 C716 1.258 . S
O718 Co715 1.966 . S
O718 C716 1.263 . S
C719 O720 1.235 . S
C719 O746 1.289 . S
O720 C719 1.235 . S
C721 C723 1.400 . S
C721 N724 1.351 . S
C721 C726 1.501 . S
C722 C723 1.387 . S
C722 N725 1.341 . S
C723 C721 1.400 . S
C723 C722 1.387 . S
N724 Co715 2.022 . S
N724 C721 1.351 . S
N724 N725 1.365 . S
N725 C722 1.341 . S
N725 N724 1.365 . S
N725 H745 0.862 . S
C726 C721 1.501 . S
C726 H727 0.961 . S
C726 H728 0.961 . S
C726 H729 0.960 . S
H727 C726 0.961 . S
H728 C726 0.961 . S
H729 C726 0.960 . S
C730 N731 1.342 . S
C730 C734 1.401 . S
C730 C735 1.499 . S
N731 Co714 1.989 . S
N731 C730 1.342 . S
N731 N732 1.388 . S
N732 Co715 1.993 . S
N732 N731 1.388 . S
N732 C733 1.346 . S
C733 N732 1.346 . S
C733 C734 1.396 . S
C733 C743 1.510 . S
C734 C730 1.401 . S
C734 C733 1.396 . S
C735 C730 1.499 . S
C735 H736 0.959 . S
C735 H737 0.960 . S
C735 H738 0.961 . S
H736 C735 0.959 . S
H737 C735 0.960 . S
H738 C735 0.961 . S
O739 Co714 1.967 . S
O739 C747 1.258 . S
O740 Co715 1.941 . S
O740 C747 1.266 . S
H741 C743 0.959 . S
H742 C743 0.961 . S
C743 C733 1.510 . S
C743 H741 0.959 . S
C743 H742 0.961 . S
C743 H744 0.960 . S
H744 C743 0.960 . S
H745 N725 0.862 . S
O746 Co714 1.920 . S
O746 C719 1.289 . S
C747 O739 1.258 . S
C747 O740 1.266 . S
Co748 O751 1.970 . S
Co748 N765 1.989 . S
Co748 O773 1.967 . S
Co748 O780 1.920 . S
Co749 O752 1.966 . S
Co749 N758 2.022 . S
Co749 N766 1.993 . S
Co749 O774 1.941 . S
C750 O751 1.258 . S
C750 O752 1.263 . S
O751 Co748 1.970 . S
O751 C750 1.258 . S
O752 Co749 1.966 . S
O752 C750 1.263 . S
C753 O754 1.235 . S
C753 O780 1.289 . S
O754 C753 1.235 . S
C755 C757 1.400 . S
C755 N758 1.351 . S
C755 C760 1.501 . S
C756 C757 1.387 . S
C756 N759 1.341 . S
C757 C755 1.400 . S
C757 C756 1.387 . S
N758 Co749 2.022 . S
N758 C755 1.351 . S
N758 N759 1.365 . S
N759 C756 1.341 . S
N759 N758 1.365 . S
N759 H779 0.862 . S
C760 C755 1.501 . S
C760 H761 0.961 . S
C760 H762 0.961 . S
C760 H763 0.960 . S
H761 C760 0.961 . S
H762 C760 0.961 . S
H763 C760 0.960 . S
C764 N765 1.342 . S
C764 C768 1.401 . S
C764 C769 1.499 . S
N765 Co748 1.989 . S
N765 C764 1.342 . S
N765 N766 1.388 . S
N766 Co749 1.993 . S
N766 N765 1.388 . S
N766 C767 1.346 . S
C767 N766 1.346 . S
C767 C768 1.396 . S
C767 C777 1.510 . S
C768 C764 1.401 . S
C768 C767 1.396 . S
C769 C764 1.499 . S
C769 H770 0.959 . S
C769 H771 0.960 . S
C769 H772 0.961 . S
H770 C769 0.959 . S
H771 C769 0.960 . S
H772 C769 0.961 . S
O773 Co748 1.967 . S
O773 C781 1.258 . S
O774 Co749 1.941 . S
O774 C781 1.266 . S
H775 C777 0.959 . S
H776 C777 0.961 . S
C777 C767 1.510 . S
C777 H775 0.959 . S
C777 H776 0.961 . S
C777 H778 0.960 . S
H778 C777 0.960 . S
H779 N759 0.862 . S
O780 Co748 1.920 . S
O780 C753 1.289 . S
C781 O773 1.258 . S
C781 O774 1.266 . S
Co782 O785 1.970 . S
Co782 N799 1.989 . S
Co782 O807 1.967 . S
Co782 O814 1.920 . S
Co783 O786 1.966 . S
Co783 N792 2.022 . S
Co783 N800 1.993 . S
Co783 O808 1.941 . S
C784 O785 1.258 . S
C784 O786 1.263 . S
O785 Co782 1.970 . S
O785 C784 1.258 . S
O786 Co783 1.966 . S
O786 C784 1.263 . S
C787 O788 1.235 . S
C787 O814 1.289 . S
O788 C787 1.235 . S
C789 C791 1.400 . S
C789 N792 1.351 . S
C789 C794 1.501 . S
C790 C791 1.387 . S
C790 N793 1.341 . S
C791 C789 1.400 . S
C791 C790 1.387 . S
N792 Co783 2.022 . S
N792 C789 1.351 . S
N792 N793 1.365 . S
N793 C790 1.341 . S
N793 N792 1.365 . S
N793 H813 0.862 . S
C794 C789 1.501 . S
C794 H795 0.961 . S
C794 H796 0.961 . S
C794 H797 0.960 . S
H795 C794 0.961 . S
H796 C794 0.961 . S
H797 C794 0.960 . S
C798 N799 1.342 . S
C798 C802 1.401 . S
C798 C803 1.499 . S
N799 Co782 1.989 . S
N799 C798 1.342 . S
N799 N800 1.388 . S
N800 Co783 1.993 . S
N800 N799 1.388 . S
N800 C801 1.346 . S
C801 N800 1.346 . S
C801 C802 1.396 . S
C801 C811 1.510 . S
C802 C798 1.401 . S
C802 C801 1.396 . S
C803 C798 1.499 . S
C803 H804 0.959 . S
C803 H805 0.960 . S
C803 H806 0.961 . S
H804 C803 0.959 . S
H805 C803 0.960 . S
H806 C803 0.961 . S
O807 Co782 1.967 . S
O807 C815 1.258 . S
O808 Co783 1.941 . S
O808 C815 1.266 . S
H809 C811 0.959 . S
H810 C811 0.961 . S
C811 C801 1.510 . S
C811 H809 0.959 . S
C811 H810 0.961 . S
C811 H812 0.960 . S
H812 C811 0.960 . S
H813 N793 0.862 . S
O814 Co782 1.920 . S
O814 C787 1.289 . S
C815 O807 1.258 . S
C815 O808 1.266 . S
Co816 O819 1.970 . S
Co816 N833 1.989 . S
Co816 O841 1.967 . S
Co816 O848 1.920 . S
Co817 O820 1.966 . S
Co817 N826 2.022 . S
Co817 N834 1.993 . S
Co817 O842 1.941 . S
C818 O819 1.258 . S
C818 O820 1.263 . S
O819 Co816 1.970 . S
O819 C818 1.258 . S
O820 Co817 1.966 . S
O820 C818 1.263 . S
C821 O822 1.235 . S
C821 O848 1.289 . S
O822 C821 1.235 . S
C823 C825 1.400 . S
C823 N826 1.351 . S
C823 C828 1.501 . S
C824 C825 1.387 . S
C824 N827 1.341 . S
C825 C823 1.400 . S
C825 C824 1.387 . S
N826 Co817 2.022 . S
N826 C823 1.351 . S
N826 N827 1.365 . S
N827 C824 1.341 . S
N827 N826 1.365 . S
N827 H847 0.862 . S
C828 C823 1.501 . S
C828 H829 0.961 . S
C828 H830 0.961 . S
C828 H831 0.960 . S
H829 C828 0.961 . S
H830 C828 0.961 . S
H831 C828 0.960 . S
C832 N833 1.342 . S
C832 C836 1.401 . S
C832 C837 1.499 . S
N833 Co816 1.989 . S
N833 C832 1.342 . S
N833 N834 1.388 . S
N834 Co817 1.993 . S
N834 N833 1.388 . S
N834 C835 1.346 . S
C835 N834 1.346 . S
C835 C836 1.396 . S
C835 C845 1.510 . S
C836 C832 1.401 . S
C836 C835 1.396 . S
C837 C832 1.499 . S
C837 H838 0.959 . S
C837 H839 0.960 . S
C837 H840 0.961 . S
H838 C837 0.959 . S
H839 C837 0.960 . S
H840 C837 0.961 . S
O841 Co816 1.967 . S
O841 C849 1.258 . S
O842 Co817 1.941 . S
O842 C849 1.266 . S
H843 C845 0.959 . S
H844 C845 0.961 . S
C845 C835 1.510 . S
C845 H843 0.959 . S
C845 H844 0.961 . S
C845 H846 0.960 . S
H846 C845 0.960 . S
H847 N827 0.862 . S
O848 Co816 1.920 . S
O848 C821 1.289 . S
C849 O841 1.258 . S
C849 O842 1.266 . S
Co850 O853 1.970 . S
Co850 N867 1.989 . S
Co850 O875 1.967 . S
Co850 O882 1.920 . S
Co851 O854 1.966 . S
Co851 N860 2.022 . S
Co851 N868 1.993 . S
Co851 O876 1.941 . S
C852 O853 1.258 . S
C852 O854 1.263 . S
O853 Co850 1.970 . S
O853 C852 1.258 . S
O854 Co851 1.966 . S
O854 C852 1.263 . S
C855 O856 1.235 . S
C855 O882 1.289 . S
O856 C855 1.235 . S
C857 C859 1.400 . S
C857 N860 1.351 . S
C857 C862 1.501 . S
C858 C859 1.387 . S
C858 N861 1.341 . S
C859 C857 1.400 . S
C859 C858 1.387 . S
N860 Co851 2.022 . S
N860 C857 1.351 . S
N860 N861 1.365 . S
N861 C858 1.341 . S
N861 N860 1.365 . S
N861 H881 0.862 . S
C862 C857 1.501 . S
C862 H863 0.961 . S
C862 H864 0.961 . S
C862 H865 0.960 . S
H863 C862 0.961 . S
H864 C862 0.961 . S
H865 C862 0.960 . S
C866 N867 1.342 . S
C866 C870 1.401 . S
C866 C871 1.499 . S
N867 Co850 1.989 . S
N867 C866 1.342 . S
N867 N868 1.388 . S
N868 Co851 1.993 . S
N868 N867 1.388 . S
N868 C869 1.346 . S
C869 N868 1.346 . S
C869 C870 1.396 . S
C869 C879 1.510 . S
C870 C866 1.401 . S
C870 C869 1.396 . S
C871 C866 1.499 . S
C871 H872 0.959 . S
C871 H873 0.960 . S
C871 H874 0.961 . S
H872 C871 0.959 . S
H873 C871 0.960 . S
H874 C871 0.961 . S
O875 Co850 1.967 . S
O875 C883 1.258 . S
O876 Co851 1.941 . S
O876 C883 1.266 . S
H877 C879 0.959 . S
H878 C879 0.961 . S
C879 C869 1.510 . S
C879 H877 0.959 . S
C879 H878 0.961 . S
C879 H880 0.960 . S
H880 C879 0.960 . S
H881 N861 0.862 . S
O882 Co850 1.920 . S
O882 C855 1.289 . S
C883 O875 1.258 . S
C883 O876 1.266 . S
Co884 O887 1.970 . S
Co884 N901 1.989 . S
Co884 O909 1.967 . S
Co884 O916 1.920 . S
Co885 O888 1.966 . S
Co885 N894 2.022 . S
Co885 N902 1.993 . S
Co885 O910 1.941 . S
C886 O887 1.258 . S
C886 O888 1.263 . S
O887 Co884 1.970 . S
O887 C886 1.258 . S
O888 Co885 1.966 . S
O888 C886 1.263 . S
C889 O890 1.235 . S
C889 O916 1.289 . S
O890 C889 1.235 . S
C891 C893 1.400 . S
C891 N894 1.351 . S
C891 C896 1.501 . S
C892 C893 1.387 . S
C892 N895 1.341 . S
C893 C891 1.400 . S
C893 C892 1.387 . S
N894 Co885 2.022 . S
N894 C891 1.351 . S
N894 N895 1.365 . S
N895 C892 1.341 . S
N895 N894 1.365 . S
N895 H915 0.862 . S
C896 C891 1.501 . S
C896 H897 0.961 . S
C896 H898 0.961 . S
C896 H899 0.960 . S
H897 C896 0.961 . S
H898 C896 0.961 . S
H899 C896 0.960 . S
C900 N901 1.342 . S
C900 C904 1.401 . S
C900 C905 1.499 . S
N901 Co884 1.989 . S
N901 C900 1.342 . S
N901 N902 1.388 . S
N902 Co885 1.993 . S
N902 N901 1.388 . S
N902 C903 1.346 . S
C903 N902 1.346 . S
C903 C904 1.396 . S
C903 C913 1.510 . S
C904 C900 1.401 . S
C904 C903 1.396 . S
C905 C900 1.499 . S
C905 H906 0.959 . S
C905 H907 0.960 . S
C905 H908 0.961 . S
H906 C905 0.959 . S
H907 C905 0.960 . S
H908 C905 0.961 . S
O909 Co884 1.967 . S
O909 C917 1.258 . S
O910 Co885 1.941 . S
O910 C917 1.266 . S
H911 C913 0.959 . S
H912 C913 0.961 . S
C913 C903 1.510 . S
C913 H911 0.959 . S
C913 H912 0.961 . S
C913 H914 0.960 . S
H914 C913 0.960 . S
H915 N895 0.862 . S
O916 Co884 1.920 . S
O916 C889 1.289 . S
C917 O909 1.258 . S
C917 O910 1.266 . S
Co918 O921 1.970 . S
Co918 N935 1.989 . S
Co918 O943 1.967 . S
Co918 O950 1.920 . S
Co919 O922 1.966 . S
Co919 N928 2.022 . S
Co919 N936 1.993 . S
Co919 O944 1.941 . S
C920 O921 1.258 . S
C920 O922 1.263 . S
O921 Co918 1.970 . S
O921 C920 1.258 . S
O922 Co919 1.966 . S
O922 C920 1.263 . S
C923 O924 1.235 . S
C923 O950 1.289 . S
O924 C923 1.235 . S
C925 C927 1.400 . S
C925 N928 1.351 . S
C925 C930 1.501 . S
C926 C927 1.387 . S
C926 N929 1.341 . S
C927 C925 1.400 . S
C927 C926 1.387 . S
N928 Co919 2.022 . S
N928 C925 1.351 . S
N928 N929 1.365 . S
N929 C926 1.341 . S
N929 N928 1.365 . S
N929 H949 0.862 . S
C930 C925 1.501 . S
C930 H931 0.961 . S
C930 H932 0.961 . S
C930 H933 0.960 . S
H931 C930 0.961 . S
H932 C930 0.961 . S
H933 C930 0.960 . S
C934 N935 1.342 . S
C934 C938 1.401 . S
C934 C939 1.499 . S
N935 Co918 1.989 . S
N935 C934 1.342 . S
N935 N936 1.388 . S
N936 Co919 1.993 . S
N936 N935 1.388 . S
N936 C937 1.346 . S
C937 N936 1.346 . S
C937 C938 1.396 . S
C937 C947 1.510 . S
C938 C934 1.401 . S
C938 C937 1.396 . S
C939 C934 1.499 . S
C939 H940 0.959 . S
C939 H941 0.960 . S
C939 H942 0.961 . S
H940 C939 0.959 . S
H941 C939 0.960 . S
H942 C939 0.961 . S
O943 Co918 1.967 . S
O943 C951 1.258 . S
O944 Co919 1.941 . S
O944 C951 1.266 . S
H945 C947 0.959 . S
H946 C947 0.961 . S
C947 C937 1.510 . S
C947 H945 0.959 . S
C947 H946 0.961 . S
C947 H948 0.960 . S
H948 C947 0.960 . S
H949 N929 0.862 . S
O950 Co918 1.920 . S
O950 C923 1.289 . S
C951 O943 1.258 . S
C951 O944 1.266 . S
Co952 O955 1.970 . S
Co952 N969 1.989 . S
Co952 O977 1.967 . S
Co952 O984 1.920 . S
Co953 O956 1.966 . S
Co953 N962 2.022 . S
Co953 N970 1.993 . S
Co953 O978 1.941 . S
C954 O955 1.258 . S
C954 O956 1.263 . S
O955 Co952 1.970 . S
O955 C954 1.258 . S
O956 Co953 1.966 . S
O956 C954 1.263 . S
C957 O958 1.235 . S
C957 O984 1.289 . S
O958 C957 1.235 . S
C959 C961 1.400 . S
C959 N962 1.351 . S
C959 C964 1.501 . S
C960 C961 1.387 . S
C960 N963 1.341 . S
C961 C959 1.400 . S
C961 C960 1.387 . S
N962 Co953 2.022 . S
N962 C959 1.351 . S
N962 N963 1.365 . S
N963 C960 1.341 . S
N963 N962 1.365 . S
N963 H983 0.862 . S
C964 C959 1.501 . S
C964 H965 0.961 . S
C964 H966 0.961 . S
C964 H967 0.960 . S
H965 C964 0.961 . S
H966 C964 0.961 . S
H967 C964 0.960 . S
C968 N969 1.342 . S
C968 C972 1.401 . S
C968 C973 1.499 . S
N969 Co952 1.989 . S
N969 C968 1.342 . S
N969 N970 1.388 . S
N970 Co953 1.993 . S
N970 N969 1.388 . S
N970 C971 1.346 . S
C971 N970 1.346 . S
C971 C972 1.396 . S
C971 C981 1.510 . S
C972 C968 1.401 . S
C972 C971 1.396 . S
C973 C968 1.499 . S
C973 H974 0.959 . S
C973 H975 0.960 . S
C973 H976 0.961 . S
H974 C973 0.959 . S
H975 C973 0.960 . S
H976 C973 0.961 . S
O977 Co952 1.967 . S
O977 C985 1.258 . S
O978 Co953 1.941 . S
O978 C985 1.266 . S
H979 C981 0.959 . S
H980 C981 0.961 . S
C981 C971 1.510 . S
C981 H979 0.959 . S
C981 H980 0.961 . S
C981 H982 0.960 . S
H982 C981 0.960 . S
H983 N963 0.862 . S
O984 Co952 1.920 . S
O984 C957 1.289 . S
C985 O977 1.258 . S
C985 O978 1.266 . S
Co986 O989 1.970 . S
Co986 N1003 1.989 . S
Co986 O1011 1.967 . S
Co986 O1018 1.920 . S
Co987 O990 1.966 . S
Co987 N996 2.022 . S
Co987 N1004 1.993 . S
Co987 O1012 1.941 . S
C988 O989 1.258 . S
C988 O990 1.263 . S
O989 Co986 1.970 . S
O989 C988 1.258 . S
O990 Co987 1.966 . S
O990 C988 1.263 . S
C991 O992 1.235 . S
C991 O1018 1.289 . S
O992 C991 1.235 . S
C993 C995 1.400 . S
C993 N996 1.351 . S
C993 C998 1.501 . S
C994 C995 1.387 . S
C994 N997 1.341 . S
C995 C993 1.400 . S
C995 C994 1.387 . S
N996 Co987 2.022 . S
N996 C993 1.351 . S
N996 N997 1.365 . S
N997 C994 1.341 . S
N997 N996 1.365 . S
N997 H1017 0.862 . S
C998 C993 1.501 . S
C998 H999 0.961 . S
C998 H1000 0.961 . S
C998 H1001 0.960 . S
H999 C998 0.961 . S
H1000 C998 0.961 . S
H1001 C998 0.960 . S
C1002 N1003 1.342 . S
C1002 C1006 1.401 . S
C1002 C1007 1.499 . S
N1003 Co986 1.989 . S
N1003 C1002 1.342 . S
N1003 N1004 1.388 . S
N1004 Co987 1.993 . S
N1004 N1003 1.388 . S
N1004 C1005 1.346 . S
C1005 N1004 1.346 . S
C1005 C1006 1.396 . S
C1005 C1015 1.510 . S
C1006 C1002 1.401 . S
C1006 C1005 1.396 . S
C1007 C1002 1.499 . S
C1007 H1008 0.959 . S
C1007 H1009 0.960 . S
C1007 H1010 0.961 . S
H1008 C1007 0.959 . S
H1009 C1007 0.960 . S
H1010 C1007 0.961 . S
O1011 Co986 1.967 . S
O1011 C1019 1.258 . S
O1012 Co987 1.941 . S
O1012 C1019 1.266 . S
H1013 C1015 0.959 . S
H1014 C1015 0.961 . S
C1015 C1005 1.510 . S
C1015 H1013 0.959 . S
C1015 H1014 0.961 . S
C1015 H1016 0.960 . S
H1016 C1015 0.960 . S
H1017 N997 0.862 . S
O1018 Co986 1.920 . S
O1018 C991 1.289 . S
C1019 O1011 1.258 . S
C1019 O1012 1.266 . S
Co1020 O1023 1.970 . S
Co1020 N1037 1.989 . S
Co1020 O1045 1.967 . S
Co1020 O1052 1.920 . S
Co1021 O1024 1.966 . S
Co1021 N1030 2.022 . S
Co1021 N1038 1.993 . S
Co1021 O1046 1.941 . S
C1022 O1023 1.258 . S
C1022 O1024 1.263 . S
O1023 Co1020 1.970 . S
O1023 C1022 1.258 . S
O1024 Co1021 1.966 . S
O1024 C1022 1.263 . S
C1025 O1026 1.235 . S
C1025 O1052 1.289 . S
O1026 C1025 1.235 . S
C1027 C1029 1.400 . S
C1027 N1030 1.351 . S
C1027 C1032 1.501 . S
C1028 C1029 1.387 . S
C1028 N1031 1.341 . S
C1029 C1027 1.400 . S
C1029 C1028 1.387 . S
N1030 Co1021 2.022 . S
N1030 C1027 1.351 . S
N1030 N1031 1.365 . S
N1031 C1028 1.341 . S
N1031 N1030 1.365 . S
N1031 H1051 0.862 . S
C1032 C1027 1.501 . S
C1032 H1033 0.961 . S
C1032 H1034 0.961 . S
C1032 H1035 0.960 . S
H1033 C1032 0.961 . S
H1034 C1032 0.961 . S
H1035 C1032 0.960 . S
C1036 N1037 1.342 . S
C1036 C1040 1.401 . S
C1036 C1041 1.499 . S
N1037 Co1020 1.989 . S
N1037 C1036 1.342 . S
N1037 N1038 1.388 . S
N1038 Co1021 1.993 . S
N1038 N1037 1.388 . S
N1038 C1039 1.346 . S
C1039 N1038 1.346 . S
C1039 C1040 1.396 . S
C1039 C1049 1.510 . S
C1040 C1036 1.401 . S
C1040 C1039 1.396 . S
C1041 C1036 1.499 . S
C1041 H1042 0.959 . S
C1041 H1043 0.960 . S
C1041 H1044 0.961 . S
H1042 C1041 0.959 . S
H1043 C1041 0.960 . S
H1044 C1041 0.961 . S
O1045 Co1020 1.967 . S
O1045 C1053 1.258 . S
O1046 Co1021 1.941 . S
O1046 C1053 1.266 . S
H1047 C1049 0.959 . S
H1048 C1049 0.961 . S
C1049 C1039 1.510 . S
C1049 H1047 0.959 . S
C1049 H1048 0.961 . S
C1049 H1050 0.960 . S
H1050 C1049 0.960 . S
H1051 N1031 0.862 . S
O1052 Co1020 1.920 . S
O1052 C1025 1.289 . S
C1053 O1045 1.258 . S
C1053 O1046 1.266 . S
Co1054 O1057 1.970 . S
Co1054 N1071 1.989 . S
Co1054 O1079 1.967 . S
Co1054 O1086 1.920 . S
Co1055 O1058 1.966 . S
Co1055 N1064 2.022 . S
Co1055 N1072 1.993 . S
Co1055 O1080 1.941 . S
C1056 O1057 1.258 . S
C1056 O1058 1.263 . S
O1057 Co1054 1.970 . S
O1057 C1056 1.258 . S
O1058 Co1055 1.966 . S
O1058 C1056 1.263 . S
C1059 O1060 1.235 . S
C1059 O1086 1.289 . S
O1060 C1059 1.235 . S
C1061 C1063 1.400 . S
C1061 N1064 1.351 . S
C1061 C1066 1.501 . S
C1062 C1063 1.387 . S
C1062 N1065 1.341 . S
C1063 C1061 1.400 . S
C1063 C1062 1.387 . S
N1064 Co1055 2.022 . S
N1064 C1061 1.351 . S
N1064 N1065 1.365 . S
N1065 C1062 1.341 . S
N1065 N1064 1.365 . S
N1065 H1085 0.862 . S
C1066 C1061 1.501 . S
C1066 H1067 0.961 . S
C1066 H1068 0.961 . S
C1066 H1069 0.960 . S
H1067 C1066 0.961 . S
H1068 C1066 0.961 . S
H1069 C1066 0.960 . S
C1070 N1071 1.342 . S
C1070 C1074 1.401 . S
C1070 C1075 1.499 . S
N1071 Co1054 1.989 . S
N1071 C1070 1.342 . S
N1071 N1072 1.388 . S
N1072 Co1055 1.993 . S
N1072 N1071 1.388 . S
N1072 C1073 1.346 . S
C1073 N1072 1.346 . S
C1073 C1074 1.396 . S
C1073 C1083 1.510 . S
C1074 C1070 1.401 . S
C1074 C1073 1.396 . S
C1075 C1070 1.499 . S
C1075 H1076 0.959 . S
C1075 H1077 0.960 . S
C1075 H1078 0.961 . S
H1076 C1075 0.959 . S
H1077 C1075 0.960 . S
H1078 C1075 0.961 . S
O1079 Co1054 1.967 . S
O1079 C1087 1.258 . S
O1080 Co1055 1.941 . S
O1080 C1087 1.266 . S
H1081 C1083 0.959 . S
H1082 C1083 0.961 . S
C1083 C1073 1.510 . S
C1083 H1081 0.959 . S
C1083 H1082 0.961 . S
C1083 H1084 0.960 . S
H1084 C1083 0.960 . S
H1085 N1065 0.862 . S
O1086 Co1054 1.920 . S
O1086 C1059 1.289 . S
C1087 O1079 1.258 . S
C1087 O1080 1.266 . S
Co1088 O1091 1.970 . S
Co1088 N1105 1.989 . S
Co1088 O1113 1.967 . S
Co1088 O1120 1.920 . S
Co1089 O1092 1.966 . S
Co1089 N1098 2.022 . S
Co1089 N1106 1.993 . S
Co1089 O1114 1.941 . S
C1090 O1091 1.258 . S
C1090 O1092 1.263 . S
O1091 Co1088 1.970 . S
O1091 C1090 1.258 . S
O1092 Co1089 1.966 . S
O1092 C1090 1.263 . S
C1093 O1094 1.235 . S
C1093 O1120 1.289 . S
O1094 C1093 1.235 . S
C1095 C1097 1.400 . S
C1095 N1098 1.351 . S
C1095 C1100 1.501 . S
C1096 C1097 1.387 . S
C1096 N1099 1.341 . S
C1097 C1095 1.400 . S
C1097 C1096 1.387 . S
N1098 Co1089 2.022 . S
N1098 C1095 1.351 . S
N1098 N1099 1.365 . S
N1099 C1096 1.341 . S
N1099 N1098 1.365 . S
N1099 H1119 0.862 . S
C1100 C1095 1.501 . S
C1100 H1101 0.961 . S
C1100 H1102 0.961 . S
C1100 H1103 0.960 . S
H1101 C1100 0.961 . S
H1102 C1100 0.961 . S
H1103 C1100 0.960 . S
C1104 N1105 1.342 . S
C1104 C1108 1.401 . S
C1104 C1109 1.499 . S
N1105 Co1088 1.989 . S
N1105 C1104 1.342 . S
N1105 N1106 1.388 . S
N1106 Co1089 1.993 . S
N1106 N1105 1.388 . S
N1106 C1107 1.346 . S
C1107 N1106 1.346 . S
C1107 C1108 1.396 . S
C1107 C1117 1.510 . S
C1108 C1104 1.401 . S
C1108 C1107 1.396 . S
C1109 C1104 1.499 . S
C1109 H1110 0.959 . S
C1109 H1111 0.960 . S
C1109 H1112 0.961 . S
H1110 C1109 0.959 . S
H1111 C1109 0.960 . S
H1112 C1109 0.961 . S
O1113 Co1088 1.967 . S
O1113 C1121 1.258 . S
O1114 Co1089 1.941 . S
O1114 C1121 1.266 . S
H1115 C1117 0.959 . S
H1116 C1117 0.961 . S
C1117 C1107 1.510 . S
C1117 H1115 0.959 . S
C1117 H1116 0.961 . S
C1117 H1118 0.960 . S
H1118 C1117 0.960 . S
H1119 N1099 0.862 . S
O1120 Co1088 1.920 . S
O1120 C1093 1.289 . S
C1121 O1113 1.258 . S
C1121 O1114 1.266 . S
Co1122 O1125 1.970 . S
Co1122 N1139 1.989 . S
Co1122 O1147 1.967 . S
Co1122 O1154 1.920 . S
Co1123 O1126 1.966 . S
Co1123 N1132 2.022 . S
Co1123 N1140 1.993 . S
Co1123 O1148 1.941 . S
C1124 O1125 1.258 . S
C1124 O1126 1.263 . S
O1125 Co1122 1.970 . S
O1125 C1124 1.258 . S
O1126 Co1123 1.966 . S
O1126 C1124 1.263 . S
C1127 O1128 1.235 . S
C1127 O1154 1.289 . S
O1128 C1127 1.235 . S
C1129 C1131 1.400 . S
C1129 N1132 1.351 . S
C1129 C1134 1.501 . S
C1130 C1131 1.387 . S
C1130 N1133 1.341 . S
C1131 C1129 1.400 . S
C1131 C1130 1.387 . S
N1132 Co1123 2.022 . S
N1132 C1129 1.351 . S
N1132 N1133 1.365 . S
N1133 C1130 1.341 . S
N1133 N1132 1.365 . S
N1133 H1153 0.862 . S
C1134 C1129 1.501 . S
C1134 H1135 0.961 . S
C1134 H1136 0.961 . S
C1134 H1137 0.960 . S
H1135 C1134 0.961 . S
H1136 C1134 0.961 . S
H1137 C1134 0.960 . S
C1138 N1139 1.342 . S
C1138 C1142 1.401 . S
C1138 C1143 1.499 . S
N1139 Co1122 1.989 . S
N1139 C1138 1.342 . S
N1139 N1140 1.388 . S
N1140 Co1123 1.993 . S
N1140 N1139 1.388 . S
N1140 C1141 1.346 . S
C1141 N1140 1.346 . S
C1141 C1142 1.396 . S
C1141 C1151 1.510 . S
C1142 C1138 1.401 . S
C1142 C1141 1.396 . S
C1143 C1138 1.499 . S
C1143 H1144 0.959 . S
C1143 H1145 0.960 . S
C1143 H1146 0.961 . S
H1144 C1143 0.959 . S
H1145 C1143 0.960 . S
H1146 C1143 0.961 . S
O1147 Co1122 1.967 . S
O1147 C1155 1.258 . S
O1148 Co1123 1.941 . S
O1148 C1155 1.266 . S
H1149 C1151 0.959 . S
H1150 C1151 0.961 . S
C1151 C1141 1.510 . S
C1151 H1149 0.959 . S
C1151 H1150 0.961 . S
C1151 H1152 0.960 . S
H1152 C1151 0.960 . S
H1153 N1133 0.862 . S
O1154 Co1122 1.920 . S
O1154 C1127 1.289 . S
C1155 O1147 1.258 . S
C1155 O1148 1.266 . S
Co1156 O1159 1.970 . S
Co1156 N1173 1.989 . S
Co1156 O1181 1.967 . S
Co1156 O1188 1.920 . S
Co1157 O1160 1.966 . S
Co1157 N1166 2.022 . S
Co1157 N1174 1.993 . S
Co1157 O1182 1.941 . S
C1158 O1159 1.258 . S
C1158 O1160 1.263 . S
O1159 Co1156 1.970 . S
O1159 C1158 1.258 . S
O1160 Co1157 1.966 . S
O1160 C1158 1.263 . S
C1161 O1162 1.235 . S
C1161 O1188 1.289 . S
O1162 C1161 1.235 . S
C1163 C1165 1.400 . S
C1163 N1166 1.351 . S
C1163 C1168 1.501 . S
C1164 C1165 1.387 . S
C1164 N1167 1.341 . S
C1165 C1163 1.400 . S
C1165 C1164 1.387 . S
N1166 Co1157 2.022 . S
N1166 C1163 1.351 . S
N1166 N1167 1.365 . S
N1167 C1164 1.341 . S
N1167 N1166 1.365 . S
N1167 H1187 0.862 . S
C1168 C1163 1.501 . S
C1168 H1169 0.961 . S
C1168 H1170 0.961 . S
C1168 H1171 0.960 . S
H1169 C1168 0.961 . S
H1170 C1168 0.961 . S
H1171 C1168 0.960 . S
C1172 N1173 1.342 . S
C1172 C1176 1.401 . S
C1172 C1177 1.499 . S
N1173 Co1156 1.989 . S
N1173 C1172 1.342 . S
N1173 N1174 1.388 . S
N1174 Co1157 1.993 . S
N1174 N1173 1.388 . S
N1174 C1175 1.346 . S
C1175 N1174 1.346 . S
C1175 C1176 1.396 . S
C1175 C1185 1.510 . S
C1176 C1172 1.401 . S
C1176 C1175 1.396 . S
C1177 C1172 1.499 . S
C1177 H1178 0.959 . S
C1177 H1179 0.960 . S
C1177 H1180 0.961 . S
H1178 C1177 0.959 . S
H1179 C1177 0.960 . S
H1180 C1177 0.961 . S
O1181 Co1156 1.967 . S
O1181 C1189 1.258 . S
O1182 Co1157 1.941 . S
O1182 C1189 1.266 . S
H1183 C1185 0.959 . S
H1184 C1185 0.961 . S
C1185 C1175 1.510 . S
C1185 H1183 0.959 . S
C1185 H1184 0.961 . S
C1185 H1186 0.960 . S
H1186 C1185 0.960 . S
H1187 N1167 0.862 . S
O1188 Co1156 1.920 . S
O1188 C1161 1.289 . S
C1189 O1181 1.258 . S
C1189 O1182 1.266 . S
Co1190 O1193 1.970 . S
Co1190 N1207 1.989 . S
Co1190 O1215 1.967 . S
Co1190 O1222 1.920 . S
Co1191 O1194 1.966 . S
Co1191 N1200 2.022 . S
Co1191 N1208 1.993 . S
Co1191 O1216 1.941 . S
C1192 O1193 1.258 . S
C1192 O1194 1.263 . S
O1193 Co1190 1.970 . S
O1193 C1192 1.258 . S
O1194 Co1191 1.966 . S
O1194 C1192 1.263 . S
C1195 O1196 1.235 . S
C1195 O1222 1.289 . S
O1196 C1195 1.235 . S
C1197 C1199 1.400 . S
C1197 N1200 1.351 . S
C1197 C1202 1.501 . S
C1198 C1199 1.387 . S
C1198 N1201 1.341 . S
C1199 C1197 1.400 . S
C1199 C1198 1.387 . S
N1200 Co1191 2.022 . S
N1200 C1197 1.351 . S
N1200 N1201 1.365 . S
N1201 C1198 1.341 . S
N1201 N1200 1.365 . S
N1201 H1221 0.862 . S
C1202 C1197 1.501 . S
C1202 H1203 0.961 . S
C1202 H1204 0.961 . S
C1202 H1205 0.960 . S
H1203 C1202 0.961 . S
H1204 C1202 0.961 . S
H1205 C1202 0.960 . S
C1206 N1207 1.342 . S
C1206 C1210 1.401 . S
C1206 C1211 1.499 . S
N1207 Co1190 1.989 . S
N1207 C1206 1.342 . S
N1207 N1208 1.388 . S
N1208 Co1191 1.993 . S
N1208 N1207 1.388 . S
N1208 C1209 1.346 . S
C1209 N1208 1.346 . S
C1209 C1210 1.396 . S
C1209 C1219 1.510 . S
C1210 C1206 1.401 . S
C1210 C1209 1.396 . S
C1211 C1206 1.499 . S
C1211 H1212 0.959 . S
C1211 H1213 0.960 . S
C1211 H1214 0.961 . S
H1212 C1211 0.959 . S
H1213 C1211 0.960 . S
H1214 C1211 0.961 . S
O1215 Co1190 1.967 . S
O1215 C1223 1.258 . S
O1216 Co1191 1.941 . S
O1216 C1223 1.266 . S
H1217 C1219 0.959 . S
H1218 C1219 0.961 . S
C1219 C1209 1.510 . S
C1219 H1217 0.959 . S
C1219 H1218 0.961 . S
C1219 H1220 0.960 . S
H1220 C1219 0.960 . S
H1221 N1201 0.862 . S
O1222 Co1190 1.920 . S
O1222 C1195 1.289 . S
C1223 O1215 1.258 . S
C1223 O1216 1.266 . S
H1224 C1230 0.930 . S
H1225 C1233 0.930 . S
H1226 C1234 0.930 . S
H1227 C1235 0.930 . S
H1228 C1238 0.930 . S
H1229 C1239 0.930 . S
C1230 H1224 0.930 . S
C1230 C1231 1.355 . S
C1230 C1232 1.415 . S
C1231 C1230 1.355 . S
C1231 C1233 1.419 . S
C1232 C1230 1.415 . S
C1232 C1237 1.425 . S
C1232 C1239 1.409 . S
C1233 H1225 0.930 . S
C1233 C1231 1.419 . S
C1233 C1234 1.362 . S
C1234 H1226 0.930 . S
C1234 C1233 1.362 . S
C1234 C1237 1.409 . S
C1235 H1227 0.930 . S
C1235 C1236 1.355 . S
C1235 C1237 1.415 . S
C1236 C1235 1.355 . S
C1236 C1238 1.419 . S
C1237 C1232 1.425 . S
C1237 C1234 1.409 . S
C1237 C1235 1.415 . S
C1238 H1228 0.930 . S
C1238 C1236 1.419 . S
C1238 C1239 1.362 . S
C1239 H1229 0.930 . S
C1239 C1232 1.409 . S
C1239 C1238 1.362 . S
H1240 C1246 0.930 . S
H1241 C1249 0.930 . S
H1242 C1250 0.930 . S
H1243 C1251 0.930 . S
H1244 C1254 0.930 . S
H1245 C1255 0.930 . S
C1246 H1240 0.930 . S
C1246 C1247 1.355 1_565 S
C1246 C1248 1.415 . S
C1247 C1246 1.355 1_545 S
C1247 C1249 1.419 . S
C1248 C1246 1.415 . S
C1248 C1253 1.425 1_565 S
C1248 C1255 1.409 . S
C1249 H1241 0.930 . S
C1249 C1247 1.419 . S
C1249 C1250 1.362 . S
C1250 H1242 0.930 . S
C1250 C1249 1.362 . S
C1250 C1253 1.409 . S
C1251 H1243 0.930 . S
C1251 C1252 1.355 1_545 S
C1251 C1253 1.415 . S
C1252 C1251 1.355 1_565 S
C1252 C1254 1.419 . S
C1253 C1248 1.425 1_545 S
C1253 C1250 1.409 . S
C1253 C1251 1.415 . S
C1254 H1244 0.930 . S
C1254 C1252 1.419 . S
C1254 C1255 1.362 . S
C1255 H1245 0.930 . S
C1255 C1248 1.409 . S
C1255 C1254 1.362 . S
H1256 C1262 0.930 . S
H1257 C1265 0.930 . S
H1258 C1266 0.930 . S
H1259 C1267 0.930 . S
H1260 C1270 0.930 . S
H1261 C1271 0.930 . S
C1262 H1256 0.930 . S
C1262 C1263 1.355 1_655 S
C1262 C1264 1.415 . S
C1263 C1262 1.355 1_455 S
C1263 C1265 1.419 . S
C1264 C1262 1.415 . S
C1264 C1269 1.425 1_655 S
C1264 C1271 1.409 . S
C1265 H1257 0.930 . S
C1265 C1263 1.419 . S
C1265 C1266 1.362 . S
C1266 H1258 0.930 . S
C1266 C1265 1.362 . S
C1266 C1269 1.409 . S
C1267 H1259 0.930 . S
C1267 C1268 1.355 1_455 S
C1267 C1269 1.415 . S
C1268 C1267 1.355 1_655 S
C1268 C1270 1.419 . S
C1269 C1264 1.425 1_455 S
C1269 C1266 1.409 . S
C1269 C1267 1.415 . S
C1270 H1260 0.930 . S
C1270 C1268 1.419 . S
C1270 C1271 1.362 . S
C1271 H1261 0.930 . S
C1271 C1264 1.409 . S
C1271 C1270 1.362 . S
H1272 C1278 0.930 . S
H1273 C1281 0.930 . S
H1274 C1282 0.930 . S
H1275 C1283 0.930 . S
H1276 C1286 0.930 . S
H1277 C1287 0.930 . S
C1278 H1272 0.930 . S
C1278 C1279 1.355 . S
C1278 C1280 1.415 . S
C1279 C1278 1.355 . S
C1279 C1281 1.419 . S
C1280 C1278 1.415 . S
C1280 C1285 1.425 . S
C1280 C1287 1.409 . S
C1281 H1273 0.930 . S
C1281 C1279 1.419 . S
C1281 C1282 1.362 . S
C1282 H1274 0.930 . S
C1282 C1281 1.362 . S
C1282 C1285 1.409 . S
C1283 H1275 0.930 . S
C1283 C1284 1.355 . S
C1283 C1285 1.415 . S
C1284 C1283 1.355 . S
C1284 C1286 1.419 . S
C1285 C1280 1.425 . S
C1285 C1282 1.409 . S
C1285 C1283 1.415 . S
C1286 H1276 0.930 . S
C1286 C1284 1.419 . S
C1286 C1287 1.362 . S
C1287 H1277 0.930 . S
C1287 C1280 1.409 . S
C1287 C1286 1.362 . S
H1288 C1294 0.930 . S
H1289 C1297 0.930 . S
H1290 C1298 0.930 . S
H1291 C1299 0.930 . S
H1292 C1302 0.930 . S
H1293 C1303 0.930 . S
C1294 H1288 0.930 . S
C1294 C1295 1.355 . S
C1294 C1296 1.415 . S
C1295 C1294 1.355 . S
C1295 C1297 1.419 1_565 S
C1296 C1294 1.415 . S
C1296 C1301 1.425 1_565 S
C1296 C1303 1.409 . S
C1297 H1289 0.930 . S
C1297 C1295 1.419 1_545 S
C1297 C1298 1.362 . S
C1298 H1290 0.930 . S
C1298 C1297 1.362 . S
C1298 C1301 1.409 . S
C1299 H1291 0.930 . S
C1299 C1300 1.355 . S
C1299 C1301 1.415 . S
C1300 C1299 1.355 . S
C1300 C1302 1.419 1_545 S
C1301 C1296 1.425 1_545 S
C1301 C1298 1.409 . S
C1301 C1299 1.415 . S
C1302 H1292 0.930 . S
C1302 C1300 1.419 1_565 S
C1302 C1303 1.362 . S
C1303 H1293 0.930 . S
C1303 C1296 1.409 . S
C1303 C1302 1.362 . S
H1304 C1310 0.930 . S
H1305 C1313 0.930 . S
H1306 C1314 0.930 . S
H1307 C1315 0.930 . S
H1308 C1318 0.930 . S
H1309 C1319 0.930 . S
C1310 H1304 0.930 . S
C1310 C1311 1.355 . S
C1310 C1312 1.415 . S
C1311 C1310 1.355 . S
C1311 C1313 1.419 1_655 S
C1312 C1310 1.415 . S
C1312 C1317 1.425 1_655 S
C1312 C1319 1.409 . S
C1313 H1305 0.930 . S
C1313 C1311 1.419 1_455 S
C1313 C1314 1.362 . S
C1314 H1306 0.930 . S
C1314 C1313 1.362 . S
C1314 C1317 1.409 . S
C1315 H1307 0.930 . S
C1315 C1316 1.355 . S
C1315 C1317 1.415 . S
C1316 C1315 1.355 . S
C1316 C1318 1.419 1_455 S
C1317 C1312 1.425 1_455 S
C1317 C1314 1.409 . S
C1317 C1315 1.415 . S
C1318 H1308 0.930 . S
C1318 C1316 1.419 1_655 S
C1318 C1319 1.362 . S
C1319 H1309 0.930 . S
C1319 C1312 1.409 . S
C1319 C1318 1.362 . S
H1320 C1326 0.930 . S
H1321 C1329 0.930 . S
H1322 C1330 0.930 . S
H1323 C1331 0.930 . S
H1324 C1334 0.930 . S
H1325 C1335 0.930 . S
C1326 H1320 0.930 . S
C1326 C1327 1.355 . S
C1326 C1328 1.415 . S
C1327 C1326 1.355 . S
C1327 C1329 1.419 . S
C1328 C1326 1.415 . S
C1328 C1333 1.425 . S
C1328 C1335 1.409 . S
C1329 H1321 0.930 . S
C1329 C1327 1.419 . S
C1329 C1330 1.362 . S
C1330 H1322 0.930 . S
C1330 C1329 1.362 . S
C1330 C1333 1.409 . S
C1331 H1323 0.930 . S
C1331 C1332 1.355 . S
C1331 C1333 1.415 . S
C1332 C1331 1.355 . S
C1332 C1334 1.419 . S
C1333 C1328 1.425 . S
C1333 C1330 1.409 . S
C1333 C1331 1.415 . S
C1334 H1324 0.930 . S
C1334 C1332 1.419 . S
C1334 C1335 1.362 . S
C1335 H1325 0.930 . S
C1335 C1328 1.409 . S
C1335 C1334 1.362 . S
H1336 C1342 0.930 . S
H1337 C1345 0.930 . S
H1338 C1346 0.930 . S
H1339 C1347 0.930 . S
H1340 C1350 0.930 . S
H1341 C1351 0.930 . S
C1342 H1336 0.930 . S
C1342 C1343 1.355 . S
C1342 C1344 1.415 . S
C1343 C1342 1.355 . S
C1343 C1345 1.419 . S
C1344 C1342 1.415 . S
C1344 C1349 1.425 . S
C1344 C1351 1.409 . S
C1345 H1337 0.930 . S
C1345 C1343 1.419 . S
C1345 C1346 1.362 . S
C1346 H1338 0.930 . S
C1346 C1345 1.362 . S
C1346 C1349 1.409 . S
C1347 H1339 0.930 . S
C1347 C1348 1.355 . S
C1347 C1349 1.415 . S
C1348 C1347 1.355 . S
C1348 C1350 1.419 . S
C1349 C1344 1.425 . S
C1349 C1346 1.409 . S
C1349 C1347 1.415 . S
C1350 H1340 0.930 . S
C1350 C1348 1.419 . S
C1350 C1351 1.362 . S
C1351 H1341 0.930 . S
C1351 C1344 1.409 . S
C1351 C1350 1.362 . S
H1352 C1358 0.930 . S
H1353 C1361 0.930 . S
H1354 C1362 0.930 . S
H1355 C1363 0.930 . S
H1356 C1366 0.930 . S
H1357 C1367 0.930 . S
C1358 H1352 0.930 . S
C1358 C1359 1.355 . S
C1358 C1360 1.415 . S
C1359 C1358 1.355 . S
C1359 C1361 1.419 . S
C1360 C1358 1.415 . S
C1360 C1365 1.425 . S
C1360 C1367 1.409 . S
C1361 H1353 0.930 . S
C1361 C1359 1.419 . S
C1361 C1362 1.362 . S
C1362 H1354 0.930 . S
C1362 C1361 1.362 . S
C1362 C1365 1.409 . S
C1363 H1355 0.930 . S
C1363 C1364 1.355 . S
C1363 C1365 1.415 . S
C1364 C1363 1.355 . S
C1364 C1366 1.419 . S
C1365 C1360 1.425 . S
C1365 C1362 1.409 . S
C1365 C1363 1.415 . S
C1366 H1356 0.930 . S
C1366 C1364 1.419 . S
C1366 C1367 1.362 . S
C1367 H1357 0.930 . S
C1367 C1360 1.409 . S
C1367 C1366 1.362 . S
H1368 C1374 0.930 . S
H1369 C1377 0.930 . S
H1370 C1378 0.930 . S
H1371 C1379 0.930 . S
H1372 C1382 0.930 . S
H1373 C1383 0.930 . S
C1374 H1368 0.930 . S
C1374 C1375 1.355 . S
C1374 C1376 1.415 . S
C1375 C1374 1.355 . S
C1375 C1377 1.419 . S
C1376 C1374 1.415 . S
C1376 C1381 1.425 . S
C1376 C1383 1.409 . S
C1377 H1369 0.930 . S
C1377 C1375 1.419 . S
C1377 C1378 1.362 . S
C1378 H1370 0.930 . S
C1378 C1377 1.362 . S
C1378 C1381 1.409 . S
C1379 H1371 0.930 . S
C1379 C1380 1.355 . S
C1379 C1381 1.415 . S
C1380 C1379 1.355 . S
C1380 C1382 1.419 . S
C1381 C1376 1.425 . S
C1381 C1378 1.409 . S
C1381 C1379 1.415 . S
C1382 H1372 0.930 . S
C1382 C1380 1.419 . S
C1382 C1383 1.362 . S
C1383 H1373 0.930 . S
C1383 C1376 1.409 . S
C1383 C1382 1.362 . S
H1384 C1390 0.930 . S
H1385 C1393 0.930 . S
H1386 C1394 0.930 . S
H1387 C1395 0.930 . S
H1388 C1398 0.930 . S
H1389 C1399 0.930 . S
C1390 H1384 0.930 . S
C1390 C1391 1.355 . S
C1390 C1392 1.415 . S
C1391 C1390 1.355 . S
C1391 C1393 1.419 . S
C1392 C1390 1.415 . S
C1392 C1397 1.425 . S
C1392 C1399 1.409 . S
C1393 H1385 0.930 . S
C1393 C1391 1.419 . S
C1393 C1394 1.362 . S
C1394 H1386 0.930 . S
C1394 C1393 1.362 . S
C1394 C1397 1.409 . S
C1395 H1387 0.930 . S
C1395 C1396 1.355 . S
C1395 C1397 1.415 . S
C1396 C1395 1.355 . S
C1396 C1398 1.419 . S
C1397 C1392 1.425 . S
C1397 C1394 1.409 . S
C1397 C1395 1.415 . S
C1398 H1388 0.930 . S
C1398 C1396 1.419 . S
C1398 C1399 1.362 . S
C1399 H1389 0.930 . S
C1399 C1392 1.409 . S
C1399 C1398 1.362 . S
H1400 C1406 0.930 . S
H1401 C1409 0.930 . S
H1402 C1410 0.930 . S
H1403 C1411 0.930 . S
H1404 C1414 0.930 . S
H1405 C1415 0.930 . S
C1406 H1400 0.930 . S
C1406 C1407 1.355 . S
C1406 C1408 1.415 . S
C1407 C1406 1.355 . S
C1407 C1409 1.419 . S
C1408 C1406 1.415 . S
C1408 C1413 1.425 . S
C1408 C1415 1.409 . S
C1409 H1401 0.930 . S
C1409 C1407 1.419 . S
C1409 C1410 1.362 . S
C1410 H1402 0.930 . S
C1410 C1409 1.362 . S
C1410 C1413 1.409 . S
C1411 H1403 0.930 . S
C1411 C1412 1.355 . S
C1411 C1413 1.415 . S
C1412 C1411 1.355 . S
C1412 C1414 1.419 . S
C1413 C1408 1.425 . S
C1413 C1410 1.409 . S
C1413 C1411 1.415 . S
C1414 H1404 0.930 . S
C1414 C1412 1.419 . S
C1414 C1415 1.362 . S
C1415 H1405 0.930 . S
C1415 C1408 1.409 . S
C1415 C1414 1.362 . S
H1416 C1422 0.930 . S
H1417 C1425 0.930 . S
H1418 C1426 0.930 . S
H1419 C1427 0.930 . S
H1420 C1430 0.930 . S
H1421 C1431 0.930 . S
C1422 H1416 0.930 . S
C1422 C1423 1.355 . S
C1422 C1424 1.415 . S
C1423 C1422 1.355 . S
C1423 C1425 1.419 . S
C1424 C1422 1.415 . S
C1424 C1429 1.425 . S
C1424 C1431 1.409 . S
C1425 H1417 0.930 . S
C1425 C1423 1.419 . S
C1425 C1426 1.362 . S
C1426 H1418 0.930 . S
C1426 C1425 1.362 . S
C1426 C1429 1.409 . S
C1427 H1419 0.930 . S
C1427 C1428 1.355 . S
C1427 C1429 1.415 . S
C1428 C1427 1.355 . S
C1428 C1430 1.419 . S
C1429 C1424 1.425 . S
C1429 C1426 1.409 . S
C1429 C1427 1.415 . S
C1430 H1420 0.930 . S
C1430 C1428 1.419 . S
C1430 C1431 1.362 . S
C1431 H1421 0.930 . S
C1431 C1424 1.409 . S
C1431 C1430 1.362 . S
H1432 C1438 0.930 . S
H1433 C1441 0.930 . S
H1434 C1442 0.930 . S
H1435 C1443 0.930 . S
H1436 C1446 0.930 . S
H1437 C1447 0.930 . S
C1438 H1432 0.930 . S
C1438 C1439 1.355 . S
C1438 C1440 1.415 . S
C1439 C1438 1.355 . S
C1439 C1441 1.419 . S
C1440 C1438 1.415 . S
C1440 C1445 1.425 . S
C1440 C1447 1.409 . S
C1441 H1433 0.930 . S
C1441 C1439 1.419 . S
C1441 C1442 1.362 . S
C1442 H1434 0.930 . S
C1442 C1441 1.362 . S
C1442 C1445 1.409 . S
C1443 H1435 0.930 . S
C1443 C1444 1.355 . S
C1443 C1445 1.415 . S
C1444 C1443 1.355 . S
C1444 C1446 1.419 . S
C1445 C1440 1.425 . S
C1445 C1442 1.409 . S
C1445 C1443 1.415 . S
C1446 H1436 0.930 . S
C1446 C1444 1.419 . S
C1446 C1447 1.362 . S
C1447 H1437 0.930 . S
C1447 C1440 1.409 . S
C1447 C1446 1.362 . S
H1448 C1454 0.930 . S
H1449 C1457 0.930 . S
H1450 C1458 0.930 . S
H1451 C1459 0.930 . S
H1452 C1462 0.930 . S
H1453 C1463 0.930 . S
C1454 H1448 0.930 . S
C1454 C1455 1.355 . S
C1454 C1456 1.415 . S
C1455 C1454 1.355 . S
C1455 C1457 1.419 . S
C1456 C1454 1.415 . S
C1456 C1461 1.425 . S
C1456 C1463 1.409 . S
C1457 H1449 0.930 . S
C1457 C1455 1.419 . S
C1457 C1458 1.362 . S
C1458 H1450 0.930 . S
C1458 C1457 1.362 . S
C1458 C1461 1.409 . S
C1459 H1451 0.930 . S
C1459 C1460 1.355 . S
C1459 C1461 1.415 . S
C1460 C1459 1.355 . S
C1460 C1462 1.419 . S
C1461 C1456 1.425 . S
C1461 C1458 1.409 . S
C1461 C1459 1.415 . S
C1462 H1452 0.930 . S
C1462 C1460 1.419 . S
C1462 C1463 1.362 . S
C1463 H1453 0.930 . S
C1463 C1456 1.409 . S
C1463 C1462 1.362 . S
H1464 C1470 0.930 . S
H1465 C1473 0.930 . S
H1466 C1474 0.930 . S
H1467 C1475 0.930 . S
H1468 C1478 0.930 . S
H1469 C1479 0.930 . S
C1470 H1464 0.930 . S
C1470 C1471 1.355 . S
C1470 C1472 1.415 . S
C1471 C1470 1.355 . S
C1471 C1473 1.419 . S
C1472 C1470 1.415 . S
C1472 C1477 1.425 . S
C1472 C1479 1.409 . S
C1473 H1465 0.930 . S
C1473 C1471 1.419 . S
C1473 C1474 1.362 . S
C1474 H1466 0.930 . S
C1474 C1473 1.362 . S
C1474 C1477 1.409 . S
C1475 H1467 0.930 . S
C1475 C1476 1.355 . S
C1475 C1477 1.415 . S
C1476 C1475 1.355 . S
C1476 C1478 1.419 . S
C1477 C1472 1.425 . S
C1477 C1474 1.409 . S
C1477 C1475 1.415 . S
C1478 H1468 0.930 . S
C1478 C1476 1.419 . S
C1478 C1479 1.362 . S
C1479 H1469 0.930 . S
C1479 C1472 1.409 . S
C1479 C1478 1.362 . S
H1480 C1486 0.930 . S
H1481 C1489 0.930 . S
H1482 C1490 0.930 . S
H1483 C1491 0.930 . S
H1484 C1494 0.930 . S
H1485 C1495 0.930 . S
C1486 H1480 0.930 . S
C1486 C1487 1.355 . S
C1486 C1488 1.415 . S
C1487 C1486 1.355 . S
C1487 C1489 1.419 . S
C1488 C1486 1.415 . S
C1488 C1493 1.425 . S
C1488 C1495 1.409 . S
C1489 H1481 0.930 . S
C1489 C1487 1.419 . S
C1489 C1490 1.362 . S
C1490 H1482 0.930 . S
C1490 C1489 1.362 . S
C1490 C1493 1.409 . S
C1491 H1483 0.930 . S
C1491 C1492 1.355 . S
C1491 C1493 1.415 . S
C1492 C1491 1.355 . S
C1492 C1494 1.419 . S
C1493 C1488 1.425 . S
C1493 C1490 1.409 . S
C1493 C1491 1.415 . S
C1494 H1484 0.930 . S
C1494 C1492 1.419 . S
C1494 C1495 1.362 . S
C1495 H1485 0.930 . S
C1495 C1488 1.409 . S
C1495 C1494 1.362 . S
H1496 C1502 0.930 . S
H1497 C1505 0.930 . S
H1498 C1506 0.930 . S
H1499 C1507 0.930 . S
H1500 C1510 0.930 . S
H1501 C1511 0.930 . S
C1502 H1496 0.930 . S
C1502 C1503 1.355 . S
C1502 C1504 1.415 . S
C1503 C1502 1.355 . S
C1503 C1505 1.419 . S
C1504 C1502 1.415 . S
C1504 C1509 1.425 . S
C1504 C1511 1.409 . S
C1505 H1497 0.930 . S
C1505 C1503 1.419 . S
C1505 C1506 1.362 . S
C1506 H1498 0.930 . S
C1506 C1505 1.362 . S
C1506 C1509 1.409 . S
C1507 H1499 0.930 . S
C1507 C1508 1.355 . S
C1507 C1509 1.415 . S
C1508 C1507 1.355 . S
C1508 C1510 1.419 . S
C1509 C1504 1.425 . S
C1509 C1506 1.409 . S
C1509 C1507 1.415 . S
C1510 H1500 0.930 . S
C1510 C1508 1.419 . S
C1510 C1511 1.362 . S
C1511 H1501 0.930 . S
C1511 C1504 1.409 . S
C1511 C1510 1.362 . S
H1512 C1518 0.930 . S
H1513 C1521 0.930 . S
H1514 C1522 0.930 . S
H1515 C1523 0.930 . S
H1516 C1526 0.930 . S
H1517 C1527 0.930 . S
C1518 H1512 0.930 . S
C1518 C1519 1.355 . S
C1518 C1520 1.415 . S
C1519 C1518 1.355 . S
C1519 C1521 1.419 . S
C1520 C1518 1.415 . S
C1520 C1525 1.425 . S
C1520 C1527 1.409 . S
C1521 H1513 0.930 . S
C1521 C1519 1.419 . S
C1521 C1522 1.362 . S
C1522 H1514 0.930 . S
C1522 C1521 1.362 . S
C1522 C1525 1.409 . S
C1523 H1515 0.930 . S
C1523 C1524 1.355 . S
C1523 C1525 1.415 . S
C1524 C1523 1.355 . S
C1524 C1526 1.419 . S
C1525 C1520 1.425 . S
C1525 C1522 1.409 . S
C1525 C1523 1.415 . S
C1526 H1516 0.930 . S
C1526 C1524 1.419 . S
C1526 C1527 1.362 . S
C1527 H1517 0.930 . S
C1527 C1520 1.409 . S
C1527 C1526 1.362 . S
H1528 C1534 0.930 . S
H1529 C1537 0.930 . S
H1530 C1538 0.930 . S
H1531 C1539 0.930 . S
H1532 C1542 0.930 1_545 S
H1533 C1543 0.930 . S
C1534 H1528 0.930 . S
C1534 C1535 1.355 . S
C1534 C1536 1.415 . S
C1535 C1534 1.355 . S
C1535 C1537 1.419 . S
C1536 C1534 1.415 . S
C1536 C1541 1.425 . S
C1536 C1543 1.409 . S
C1537 H1529 0.930 . S
C1537 C1535 1.419 . S
C1537 C1538 1.362 . S
C1538 H1530 0.930 . S
C1538 C1537 1.362 . S
C1538 C1541 1.409 . S
C1539 H1531 0.930 . S
C1539 C1540 1.355 . S
C1539 C1541 1.415 . S
C1540 C1539 1.355 . S
C1540 C1542 1.419 . S
C1541 C1536 1.425 . S
C1541 C1538 1.409 . S
C1541 C1539 1.415 . S
C1542 H1532 0.930 1_565 S
C1542 C1540 1.419 . S
C1542 C1543 1.362 . S
C1543 H1533 0.930 . S
C1543 C1536 1.409 . S
C1543 C1542 1.362 . S
H1544 C1550 0.930 . S
H1545 C1553 0.930 . S
H1546 C1554 0.930 . S
H1547 C1555 0.930 . S
H1548 C1558 0.930 . S
H1549 C1559 0.930 . S
C1550 H1544 0.930 . S
C1550 C1551 1.355 . S
C1550 C1552 1.415 . S
C1551 C1550 1.355 . S
C1551 C1553 1.419 1_455 S
C1552 C1550 1.415 . S
C1552 C1557 1.425 . S
C1552 C1559 1.409 . S
C1553 H1545 0.930 . S
C1553 C1551 1.419 1_655 S
C1553 C1554 1.362 . S
C1554 H1546 0.930 . S
C1554 C1553 1.362 . S
C1554 C1557 1.409 1_655 S
C1555 H1547 0.930 . S
C1555 C1556 1.355 . S
C1555 C1557 1.415 . S
C1556 C1555 1.355 . S
C1556 C1558 1.419 . S
C1557 C1552 1.425 . S
C1557 C1554 1.409 1_455 S
C1557 C1555 1.415 . S
C1558 H1548 0.930 . S
C1558 C1556 1.419 . S
C1558 C1559 1.362 . S
C1559 H1549 0.930 . S
C1559 C1552 1.409 . S
C1559 C1558 1.362 . S
H1560 C1566 0.930 . S
H1561 C1569 0.930 . S
H1562 C1570 0.930 . S
H1563 C1571 0.930 . S
H1564 C1574 0.930 . S
H1565 C1575 0.930 . S
C1566 H1560 0.930 . S
C1566 C1567 1.355 . S
C1566 C1568 1.415 . S
C1567 C1566 1.355 . S
C1567 C1569 1.419 . S
C1568 C1566 1.415 . S
C1568 C1573 1.425 . S
C1568 C1575 1.409 . S
C1569 H1561 0.930 . S
C1569 C1567 1.419 . S
C1569 C1570 1.362 . S
C1570 H1562 0.930 . S
C1570 C1569 1.362 . S
C1570 C1573 1.409 . S
C1571 H1563 0.930 . S
C1571 C1572 1.355 . S
C1571 C1573 1.415 . S
C1572 C1571 1.355 . S
C1572 C1574 1.419 . S
C1573 C1568 1.425 . S
C1573 C1570 1.409 . S
C1573 C1571 1.415 . S
C1574 H1564 0.930 . S
C1574 C1572 1.419 . S
C1574 C1575 1.362 . S
C1575 H1565 0.930 . S
C1575 C1568 1.409 . S
C1575 C1574 1.362 . S
H1576 C1582 0.930 . S
H1577 C1585 0.930 . S
H1578 C1586 0.930 . S
H1579 C1587 0.930 . S
H1580 C1590 0.930 . S
H1581 C1591 0.930 . S
C1582 H1576 0.930 . S
C1582 C1583 1.355 . S
C1582 C1584 1.415 . S
C1583 C1582 1.355 . S
C1583 C1585 1.419 . S
C1584 C1582 1.415 . S
C1584 C1589 1.425 . S
C1584 C1591 1.409 . S
C1585 H1577 0.930 . S
C1585 C1583 1.419 . S
C1585 C1586 1.362 . S
C1586 H1578 0.930 . S
C1586 C1585 1.362 . S
C1586 C1589 1.409 . S
C1587 H1579 0.930 . S
C1587 C1588 1.355 . S
C1587 C1589 1.415 . S
C1588 C1587 1.355 . S
C1588 C1590 1.419 . S
C1589 C1584 1.425 . S
C1589 C1586 1.409 . S
C1589 C1587 1.415 . S
C1590 H1580 0.930 . S
C1590 C1588 1.419 . S
C1590 C1591 1.362 . S
C1591 H1581 0.930 . S
C1591 C1584 1.409 . S
C1591 C1590 1.362 . S
H1592 C1598 0.930 . S
H1593 C1601 0.930 . S
H1594 C1602 0.930 . S
H1595 C1603 0.930 . S
H1596 C1606 0.930 . S
H1597 C1607 0.930 . S
C1598 H1592 0.930 . S
C1598 C1599 1.355 . S
C1598 C1600 1.415 . S
C1599 C1598 1.355 . S
C1599 C1601 1.419 . S
C1600 C1598 1.415 . S
C1600 C1605 1.425 . S
C1600 C1607 1.409 1_655 S
C1601 H1593 0.930 . S
C1601 C1599 1.419 . S
C1601 C1602 1.362 . S
C1602 H1594 0.930 . S
C1602 C1601 1.362 . S
C1602 C1605 1.409 . S
C1603 H1595 0.930 . S
C1603 C1604 1.355 . S
C1603 C1605 1.415 . S
C1604 C1603 1.355 . S
C1604 C1606 1.419 1_655 S
C1605 C1600 1.425 . S
C1605 C1602 1.409 . S
C1605 C1603 1.415 . S
C1606 H1596 0.930 . S
C1606 C1604 1.419 1_455 S
C1606 C1607 1.362 . S
C1607 H1597 0.930 . S
C1607 C1600 1.409 1_455 S
C1607 C1606 1.362 . S
H1608 C1614 0.930 . S
H1609 C1617 0.930 . S
H1610 C1618 0.930 . S
H1611 C1619 0.930 . S
H1612 C1622 0.930 . S
H1613 C1623 0.930 . S
C1614 H1608 0.930 . S
C1614 C1615 1.355 . S
C1614 C1616 1.415 . S
C1615 C1614 1.355 . S
C1615 C1617 1.419 . S
C1616 C1614 1.415 . S
C1616 C1621 1.425 . S
C1616 C1623 1.409 . S
C1617 H1609 0.930 . S
C1617 C1615 1.419 . S
C1617 C1618 1.362 . S
C1618 H1610 0.930 . S
C1618 C1617 1.362 . S
C1618 C1621 1.409 . S
C1619 H1611 0.930 . S
C1619 C1620 1.355 . S
C1619 C1621 1.415 . S
C1620 C1619 1.355 . S
C1620 C1622 1.419 . S
C1621 C1616 1.425 . S
C1621 C1618 1.409 . S
C1621 C1619 1.415 . S
C1622 H1612 0.930 . S
C1622 C1620 1.419 . S
C1622 C1623 1.362 . S
C1623 H1613 0.930 . S
C1623 C1616 1.409 . S
C1623 C1622 1.362 . S
H1624 C1630 0.930 . S
H1625 C1633 0.930 . S
H1626 C1634 0.930 1_565 S
H1627 C1635 0.930 1_565 S
H1628 C1638 0.930 . S
H1629 C1639 0.930 . S
C1630 H1624 0.930 . S
C1630 C1631 1.355 . S
C1630 C1632 1.415 . S
C1631 C1630 1.355 . S
C1631 C1633 1.419 . S
C1632 C1630 1.415 . S
C1632 C1637 1.425 . S
C1632 C1639 1.409 . S
C1633 H1625 0.930 . S
C1633 C1631 1.419 . S
C1633 C1634 1.362 . S
C1634 H1626 0.930 1_545 S
C1634 C1633 1.362 . S
C1634 C1637 1.409 . S
C1635 H1627 0.930 1_545 S
C1635 C1636 1.355 . S
C1635 C1637 1.415 . S
C1636 C1635 1.355 . S
C1636 C1638 1.419 . S
C1637 C1632 1.425 . S
C1637 C1634 1.409 . S
C1637 C1635 1.415 . S
C1638 H1628 0.930 . S
C1638 C1636 1.419 . S
C1638 C1639 1.362 . S
C1639 H1629 0.930 . S
C1639 C1632 1.409 . S
C1639 C1638 1.362 . S
H1640 C1646 0.930 . S
H1641 C1649 0.930 . S
H1642 C1650 0.930 . S
H1643 C1651 0.930 1_455 S
H1644 C1654 0.930 . S
H1645 C1655 0.930 . S
C1646 H1640 0.930 . S
C1646 C1647 1.355 . S
C1646 C1648 1.415 . S
C1647 C1646 1.355 . S
C1647 C1649 1.419 . S
C1648 C1646 1.415 . S
C1648 C1653 1.425 . S
C1648 C1655 1.409 . S
C1649 H1641 0.930 . S
C1649 C1647 1.419 . S
C1649 C1650 1.362 . S
C1650 H1642 0.930 . S
C1650 C1649 1.362 . S
C1650 C1653 1.409 . S
C1651 H1643 0.930 1_655 S
C1651 C1652 1.355 . S
C1651 C1653 1.415 . S
C1652 C1651 1.355 . S
C1652 C1654 1.419 . S
C1653 C1648 1.425 . S
C1653 C1650 1.409 . S
C1653 C1651 1.415 . S
C1654 H1644 0.930 . S
C1654 C1652 1.419 . S
C1654 C1655 1.362 . S
C1655 H1645 0.930 . S
C1655 C1648 1.409 . S
C1655 C1654 1.362 . S
H1656 C1662 0.930 . S
H1657 C1665 0.930 . S
H1658 C1666 0.930 . S
H1659 C1667 0.930 . S
H1660 C1670 0.930 . S
H1661 C1671 0.930 . S
C1662 H1656 0.930 . S
C1662 C1663 1.355 . S
C1662 C1664 1.415 . S
C1663 C1662 1.355 . S
C1663 C1665 1.419 . S
C1664 C1662 1.415 . S
C1664 C1669 1.425 . S
C1664 C1671 1.409 . S
C1665 H1657 0.930 . S
C1665 C1663 1.419 . S
C1665 C1666 1.362 . S
C1666 H1658 0.930 . S
C1666 C1665 1.362 . S
C1666 C1669 1.409 . S
C1667 H1659 0.930 . S
C1667 C1668 1.355 . S
C1667 C1669 1.415 . S
C1668 C1667 1.355 . S
C1668 C1670 1.419 . S
C1669 C1664 1.425 . S
C1669 C1666 1.409 . S
C1669 C1667 1.415 . S
C1670 H1660 0.930 . S
C1670 C1668 1.419 . S
C1670 C1671 1.362 . S
C1671 H1661 0.930 . S
C1671 C1664 1.409 . S
C1671 C1670 1.362 . S
H1672 C1678 0.930 . S
H1673 C1681 0.930 . S
H1674 C1682 0.930 . S
H1675 C1683 0.930 1_545 S
H1676 C1686 0.930 . S
H1677 C1687 0.930 . S
C1678 H1672 0.930 . S
C1678 C1679 1.355 . S
C1678 C1680 1.415 . S
C1679 C1678 1.355 . S
C1679 C1681 1.419 . S
C1680 C1678 1.415 . S
C1680 C1685 1.425 . S
C1680 C1687 1.409 . S
C1681 H1673 0.930 . S
C1681 C1679 1.419 . S
C1681 C1682 1.362 . S
C1682 H1674 0.930 . S
C1682 C1681 1.362 . S
C1682 C1685 1.409 . S
C1683 H1675 0.930 1_565 S
C1683 C1684 1.355 . S
C1683 C1685 1.415 . S
C1684 C1683 1.355 . S
C1684 C1686 1.419 . S
C1685 C1680 1.425 . S
C1685 C1682 1.409 . S
C1685 C1683 1.415 . S
C1686 H1676 0.930 . S
C1686 C1684 1.419 . S
C1686 C1687 1.362 . S
C1687 H1677 0.930 . S
C1687 C1680 1.409 . S
C1687 C1686 1.362 . S
H1688 C1694 0.930 . S
H1689 C1697 0.930 . S
H1690 C1698 0.930 1_655 S
H1691 C1699 0.930 . S
H1692 C1702 0.930 . S
H1693 C1703 0.930 . S
C1694 H1688 0.930 . S
C1694 C1695 1.355 . S
C1694 C1696 1.415 . S
C1695 C1694 1.355 . S
C1695 C1697 1.419 1_455 S
C1696 C1694 1.415 . S
C1696 C1701 1.425 . S
C1696 C1703 1.409 . S
C1697 H1689 0.930 . S
C1697 C1695 1.419 1_655 S
C1697 C1698 1.362 1_655 S
C1698 H1690 0.930 1_455 S
C1698 C1697 1.362 1_455 S
C1698 C1701 1.409 . S
C1699 H1691 0.930 . S
C1699 C1700 1.355 . S
C1699 C1701 1.415 . S
C1700 C1699 1.355 . S
C1700 C1702 1.419 . S
C1701 C1696 1.425 . S
C1701 C1698 1.409 . S
C1701 C1699 1.415 . S
C1702 H1692 0.930 . S
C1702 C1700 1.419 . S
C1702 C1703 1.362 . S
C1703 H1693 0.930 . S
C1703 C1696 1.409 . S
C1703 C1702 1.362 . S
H1704 C1710 0.930 . S
H1705 C1713 0.930 . S
H1706 C1714 0.930 . S
H1707 C1715 0.930 . S
H1708 C1718 0.930 . S
H1709 C1719 0.930 . S
C1710 H1704 0.930 . S
C1710 C1711 1.355 . S
C1710 C1712 1.415 . S
C1711 C1710 1.355 . S
C1711 C1713 1.419 . S
C1712 C1710 1.415 . S
C1712 C1717 1.425 1_455 S
C1712 C1719 1.409 1_455 S
C1713 H1705 0.930 . S
C1713 C1711 1.419 . S
C1713 C1714 1.362 . S
C1714 H1706 0.930 . S
C1714 C1713 1.362 . S
C1714 C1717 1.409 1_455 S
C1715 H1707 0.930 . S
C1715 C1716 1.355 . S
C1715 C1717 1.415 . S
C1716 C1715 1.355 . S
C1716 C1718 1.419 . S
C1717 C1712 1.425 1_655 S
C1717 C1714 1.409 1_655 S
C1717 C1715 1.415 . S
C1718 H1708 0.930 . S
C1718 C1716 1.419 . S
C1718 C1719 1.362 . S
C1719 H1709 0.930 . S
C1719 C1712 1.409 1_655 S
C1719 C1718 1.362 . S
H1720 C1726 0.930 . S
H1721 C1729 0.930 . S
H1722 C1730 0.930 . S
H1723 C1731 0.930 . S
H1724 C1734 0.930 . S
H1725 C1735 0.930 . S
C1726 H1720 0.930 . S
C1726 C1727 1.355 . S
C1726 C1728 1.415 . S
C1727 C1726 1.355 . S
C1727 C1729 1.419 . S
C1728 C1726 1.415 . S
C1728 C1733 1.425 . S
C1728 C1735 1.409 . S
C1729 H1721 0.930 . S
C1729 C1727 1.419 . S
C1729 C1730 1.362 . S
C1730 H1722 0.930 . S
C1730 C1729 1.362 . S
C1730 C1733 1.409 . S
C1731 H1723 0.930 . S
C1731 C1732 1.355 . S
C1731 C1733 1.415 . S
C1732 C1731 1.355 . S
C1732 C1734 1.419 . S
C1733 C1728 1.425 . S
C1733 C1730 1.409 . S
C1733 C1731 1.415 . S
C1734 H1724 0.930 . S
C1734 C1732 1.419 . S
C1734 C1735 1.362 . S
C1735 H1725 0.930 . S
C1735 C1728 1.409 . S
C1735 C1734 1.362 . S
H1736 C1742 0.930 . S
H1737 C1745 0.930 . S
H1738 C1746 0.930 . S
H1739 C1747 0.930 . S
H1740 C1750 0.930 . S
H1741 C1751 0.930 . S
C1742 H1736 0.930 . S
C1742 C1743 1.355 . S
C1742 C1744 1.415 . S
C1743 C1742 1.355 . S
C1743 C1745 1.419 . S
C1744 C1742 1.415 . S
C1744 C1749 1.425 1_565 S
C1744 C1751 1.409 1_565 S
C1745 H1737 0.930 . S
C1745 C1743 1.419 . S
C1745 C1746 1.362 . S
C1746 H1738 0.930 . S
C1746 C1745 1.362 . S
C1746 C1749 1.409 1_565 S
C1747 H1739 0.930 . S
C1747 C1748 1.355 . S
C1747 C1749 1.415 . S
C1748 C1747 1.355 . S
C1748 C1750 1.419 . S
C1749 C1744 1.425 1_545 S
C1749 C1746 1.409 1_545 S
C1749 C1747 1.415 . S
C1750 H1740 0.930 . S
C1750 C1748 1.419 . S
C1750 C1751 1.362 . S
C1751 H1741 0.930 . S
C1751 C1744 1.409 1_545 S
C1751 C1750 1.362 . S
H1752 C1758 0.930 . S
H1753 C1761 0.930 . S
H1754 C1762 0.930 . S
H1755 C1763 0.930 . S
H1756 C1766 0.930 . S
H1757 C1767 0.930 . S
C1758 H1752 0.930 . S
C1758 C1759 1.355 . S
C1758 C1760 1.415 . S
C1759 C1758 1.355 . S
C1759 C1761 1.419 . S
C1760 C1758 1.415 . S
C1760 C1765 1.425 1_545 S
C1760 C1767 1.409 1_545 S
C1761 H1753 0.930 . S
C1761 C1759 1.419 . S
C1761 C1762 1.362 . S
C1762 H1754 0.930 . S
C1762 C1761 1.362 . S
C1762 C1765 1.409 1_545 S
C1763 H1755 0.930 . S
C1763 C1764 1.355 . S
C1763 C1765 1.415 . S
C1764 C1763 1.355 . S
C1764 C1766 1.419 . S
C1765 C1760 1.425 1_565 S
C1765 C1762 1.409 1_565 S
C1765 C1763 1.415 . S
C1766 H1756 0.930 . S
C1766 C1764 1.419 . S
C1766 C1767 1.362 . S
C1767 H1757 0.930 . S
C1767 C1760 1.409 1_565 S
C1767 C1766 1.362 . S
H1768 C1774 0.930 . S
H1769 C1777 0.930 . S
H1770 C1778 0.934 . S
H1771 C1779 0.930 . S
H1772 C1782 0.930 . S
H1773 C1783 0.934 . S
C1774 H1768 0.930 . S
C1774 C1775 1.355 . S
C1774 C1776 1.415 . S
C1775 C1774 1.355 . S
C1775 C1777 1.419 . S
C1776 C1774 1.415 . S
C1776 C1781 1.425 1_655 S
C1776 C1783 1.409 1_655 S
C1777 H1769 0.930 . S
C1777 C1775 1.419 . S
C1777 C1778 1.362 . S
C1778 H1770 0.934 . S
C1778 C1777 1.362 . S
C1778 C1781 1.409 1_655 S
C1779 H1771 0.930 . S
C1779 C1780 1.355 . S
C1779 C1781 1.415 . S
C1780 C1779 1.355 . S
C1780 C1782 1.419 . S
C1781 C1776 1.425 1_455 S
C1781 C1778 1.409 1_455 S
C1781 C1779 1.415 . S
C1782 H1772 0.930 . S
C1782 C1780 1.419 . S
C1782 C1783 1.362 . S
C1783 H1773 0.934 . S
C1783 C1776 1.409 1_455 S
C1783 C1782 1.362 . S
H1784 C1790 0.930 . S
H1785 C1793 0.930 . S
H1786 C1794 0.930 . S
H1787 C1795 0.930 . S
H1788 C1798 0.930 . S
H1789 C1799 0.930 . S
C1790 H1784 0.930 . S
C1790 C1791 1.355 . S
C1790 C1792 1.415 . S
C1791 C1790 1.355 . S
C1791 C1793 1.419 . S
C1792 C1790 1.415 . S
C1792 C1797 1.425 . S
C1792 C1799 1.409 . S
C1793 H1785 0.930 . S
C1793 C1791 1.419 . S
C1793 C1794 1.362 . S
C1794 H1786 0.930 . S
C1794 C1793 1.362 . S
C1794 C1797 1.409 . S
C1795 H1787 0.930 . S
C1795 C1796 1.355 . S
C1795 C1797 1.415 . S
C1796 C1795 1.355 . S
C1796 C1798 1.419 . S
C1797 C1792 1.425 . S
C1797 C1794 1.409 . S
C1797 C1795 1.415 . S
C1798 H1788 0.930 . S
C1798 C1796 1.419 . S
C1798 C1799 1.362 . S
C1799 H1789 0.930 . S
C1799 C1792 1.409 . S
C1799 C1798 1.362 . S
H1800 C1806 0.930 . S
H1801 C1809 0.930 . S
H1802 C1810 0.930 . S
H1803 C1811 0.930 . S
H1804 C1814 0.930 . S
H1805 C1815 0.930 . S
C1806 H1800 0.930 . S
C1806 C1807 1.355 . S
C1806 C1808 1.415 . S
C1807 C1806 1.355 . S
C1807 C1809 1.419 . S
C1808 C1806 1.415 . S
C1808 C1813 1.425 . S
C1808 C1815 1.409 . S
C1809 H1801 0.930 . S
C1809 C1807 1.419 . S
C1809 C1810 1.362 . S
C1810 H1802 0.930 . S
C1810 C1809 1.362 . S
C1810 C1813 1.409 . S
C1811 H1803 0.930 . S
C1811 C1812 1.355 . S
C1811 C1813 1.415 . S
C1812 C1811 1.355 . S
C1812 C1814 1.419 . S
C1813 C1808 1.425 . S
C1813 C1810 1.409 . S
C1813 C1811 1.415 . S
C1814 H1804 0.930 . S
C1814 C1812 1.419 . S
C1814 C1815 1.362 . S
C1815 H1805 0.930 . S
C1815 C1808 1.409 . S
C1815 C1814 1.362 . S
H1816 C1822 0.930 . S
H1817 C1825 0.930 . S
H1818 C1826 0.930 . S
H1819 C1827 0.930 . S
H1820 C1830 0.930 . S
H1821 C1831 0.930 . S
C1822 H1816 0.930 . S
C1822 C1823 1.355 . S
C1822 C1824 1.415 . S
C1823 C1822 1.355 . S
C1823 C1825 1.419 . S
C1824 C1822 1.415 . S
C1824 C1829 1.425 . S
C1824 C1831 1.409 . S
C1825 H1817 0.930 . S
C1825 C1823 1.419 . S
C1825 C1826 1.362 . S
C1826 H1818 0.930 . S
C1826 C1825 1.362 . S
C1826 C1829 1.409 . S
C1827 H1819 0.930 . S
C1827 C1828 1.355 . S
C1827 C1829 1.415 . S
C1828 C1827 1.355 . S
C1828 C1830 1.419 . S
C1829 C1824 1.425 . S
C1829 C1826 1.409 . S
C1829 C1827 1.415 . S
C1830 H1820 0.930 . S
C1830 C1828 1.419 . S
C1830 C1831 1.362 . S
C1831 H1821 0.930 . S
C1831 C1824 1.409 . S
C1831 C1830 1.362 . S
H1832 C1838 0.930 . S
H1833 C1841 0.930 . S
H1834 C1842 0.930 . S
H1835 C1843 0.930 . S
H1836 C1846 0.930 . S
H1837 C1847 0.930 . S
C1838 H1832 0.930 . S
C1838 C1839 1.355 . S
C1838 C1840 1.415 . S
C1839 C1838 1.355 . S
C1839 C1841 1.419 . S
C1840 C1838 1.415 . S
C1840 C1845 1.425 . S
C1840 C1847 1.409 . S
C1841 H1833 0.930 . S
C1841 C1839 1.419 . S
C1841 C1842 1.362 . S
C1842 H1834 0.930 . S
C1842 C1841 1.362 . S
C1842 C1845 1.409 . S
C1843 H1835 0.930 . S
C1843 C1844 1.355 . S
C1843 C1845 1.415 . S
C1844 C1843 1.355 . S
C1844 C1846 1.419 . S
C1845 C1840 1.425 . S
C1845 C1842 1.409 . S
C1845 C1843 1.415 . S
C1846 H1836 0.930 . S
C1846 C1844 1.419 . S
C1846 C1847 1.362 . S
C1847 H1837 0.930 . S
C1847 C1840 1.409 . S
C1847 C1846 1.362 . S
H1848 C1854 0.930 . S
H1849 C1857 0.930 . S
H1850 C1858 0.930 . S
H1851 C1859 0.930 . S
H1852 C1862 0.930 . S
H1853 C1863 0.930 . S
C1854 H1848 0.930 . S
C1854 C1855 1.355 . S
C1854 C1856 1.415 . S
C1855 C1854 1.355 . S
C1855 C1857 1.419 . S
C1856 C1854 1.415 . S
C1856 C1861 1.425 . S
C1856 C1863 1.409 . S
C1857 H1849 0.930 . S
C1857 C1855 1.419 . S
C1857 C1858 1.362 . S
C1858 H1850 0.930 . S
C1858 C1857 1.362 . S
C1858 C1861 1.409 . S
C1859 H1851 0.930 . S
C1859 C1860 1.355 . S
C1859 C1861 1.415 . S
C1860 C1859 1.355 . S
C1860 C1862 1.419 . S
C1861 C1856 1.425 . S
C1861 C1858 1.409 . S
C1861 C1859 1.415 . S
C1862 H1852 0.930 . S
C1862 C1860 1.419 . S
C1862 C1863 1.362 . S
C1863 H1853 0.930 . S
C1863 C1856 1.409 . S
C1863 C1862 1.362 . S
H1864 C1870 0.930 . S
H1865 C1873 0.930 . S
H1866 C1874 0.930 . S
H1867 C1875 0.930 . S
H1868 C1878 0.930 . S
H1869 C1879 0.930 . S
C1870 H1864 0.930 . S
C1870 C1871 1.355 . S
C1870 C1872 1.415 . S
C1871 C1870 1.355 . S
C1871 C1873 1.419 . S
C1872 C1870 1.415 . S
C1872 C1877 1.425 . S
C1872 C1879 1.409 . S
C1873 H1865 0.930 . S
C1873 C1871 1.419 . S
C1873 C1874 1.362 . S
C1874 H1866 0.930 . S
C1874 C1873 1.362 . S
C1874 C1877 1.409 . S
C1875 H1867 0.930 . S
C1875 C1876 1.355 . S
C1875 C1877 1.415 . S
C1876 C1875 1.355 . S
C1876 C1878 1.419 . S
C1877 C1872 1.425 . S
C1877 C1874 1.409 . S
C1877 C1875 1.415 . S
C1878 H1868 0.930 . S
C1878 C1876 1.419 . S
C1878 C1879 1.362 . S
C1879 H1869 0.930 . S
C1879 C1872 1.409 . S
C1879 C1878 1.362 . S
H1880 C1886 0.930 . S
H1881 C1889 0.930 . S
H1882 C1890 0.930 . S
H1883 C1891 0.930 . S
H1884 C1894 0.930 . S
H1885 C1895 0.930 . S
C1886 H1880 0.930 . S
C1886 C1887 1.355 . S
C1886 C1888 1.415 . S
C1887 C1886 1.355 . S
C1887 C1889 1.419 . S
C1888 C1886 1.415 . S
C1888 C1893 1.425 . S
C1888 C1895 1.409 . S
C1889 H1881 0.930 . S
C1889 C1887 1.419 . S
C1889 C1890 1.362 . S
C1890 H1882 0.930 . S
C1890 C1889 1.362 . S
C1890 C1893 1.409 . S
C1891 H1883 0.930 . S
C1891 C1892 1.355 . S
C1891 C1893 1.415 . S
C1892 C1891 1.355 . S
C1892 C1894 1.419 . S
C1893 C1888 1.425 . S
C1893 C1890 1.409 . S
C1893 C1891 1.415 . S
C1894 H1884 0.930 . S
C1894 C1892 1.419 . S
C1894 C1895 1.362 . S
C1895 H1885 0.930 . S
C1895 C1888 1.409 . S
C1895 C1894 1.362 . S
H1896 C1902 0.930 . S
H1897 C1905 0.930 . S
H1898 C1906 0.930 . S
H1899 C1907 0.930 . S
H1900 C1910 0.930 . S
H1901 C1911 0.930 . S
C1902 H1896 0.930 . S
C1902 C1903 1.355 . S
C1902 C1904 1.415 . S
C1903 C1902 1.355 . S
C1903 C1905 1.419 . S
C1904 C1902 1.415 . S
C1904 C1909 1.425 . S
C1904 C1911 1.409 . S
C1905 H1897 0.930 . S
C1905 C1903 1.419 . S
C1905 C1906 1.362 . S
C1906 H1898 0.930 . S
C1906 C1905 1.362 . S
C1906 C1909 1.409 . S
C1907 H1899 0.930 . S
C1907 C1908 1.355 . S
C1907 C1909 1.415 . S
C1908 C1907 1.355 . S
C1908 C1910 1.419 . S
C1909 C1904 1.425 . S
C1909 C1906 1.409 . S
C1909 C1907 1.415 . S
C1910 H1900 0.930 . S
C1910 C1908 1.419 . S
C1910 C1911 1.362 . S
C1911 H1901 0.930 . S
C1911 C1904 1.409 . S
C1911 C1910 1.362 . S
H1912 C1918 0.930 . S
H1913 C1921 0.930 . S
H1914 C1922 0.930 . S
H1915 C1923 0.930 . S
H1916 C1926 0.930 . S
H1917 C1927 0.930 . S
C1918 H1912 0.930 . S
C1918 C1919 1.355 . S
C1918 C1920 1.415 . S
C1919 C1918 1.355 . S
C1919 C1921 1.419 . S
C1920 C1918 1.415 . S
C1920 C1925 1.425 . S
C1920 C1927 1.409 . S
C1921 H1913 0.930 . S
C1921 C1919 1.419 . S
C1921 C1922 1.362 . S
C1922 H1914 0.930 . S
C1922 C1921 1.362 . S
C1922 C1925 1.409 . S
C1923 H1915 0.930 . S
C1923 C1924 1.355 . S
C1923 C1925 1.415 . S
C1924 C1923 1.355 . S
C1924 C1926 1.419 . S
C1925 C1920 1.425 . S
C1925 C1922 1.409 . S
C1925 C1923 1.415 . S
C1926 H1916 0.930 . S
C1926 C1924 1.419 . S
C1926 C1927 1.362 . S
C1927 H1917 0.930 . S
C1927 C1920 1.409 . S
C1927 C1926 1.362 . S
H1928 C1934 0.930 . S
H1929 C1937 0.930 . S
H1930 C1938 0.930 . S
H1931 C1939 0.930 . S
H1932 C1942 0.930 . S
H1933 C1943 0.930 . S
C1934 H1928 0.930 . S
C1934 C1935 1.355 . S
C1934 C1936 1.415 . S
C1935 C1934 1.355 . S
C1935 C1937 1.419 . S
C1936 C1934 1.415 . S
C1936 C1941 1.425 . S
C1936 C1943 1.409 . S
C1937 H1929 0.930 . S
C1937 C1935 1.419 . S
C1937 C1938 1.362 . S
C1938 H1930 0.930 . S
C1938 C1937 1.362 . S
C1938 C1941 1.409 . S
C1939 H1931 0.930 . S
C1939 C1940 1.355 . S
C1939 C1941 1.415 . S
C1940 C1939 1.355 . S
C1940 C1942 1.419 . S
C1941 C1936 1.425 . S
C1941 C1938 1.409 . S
C1941 C1939 1.415 . S
C1942 H1932 0.930 . S
C1942 C1940 1.419 . S
C1942 C1943 1.362 . S
C1943 H1933 0.930 . S
C1943 C1936 1.409 . S
C1943 C1942 1.362 . S
H1944 C1950 0.930 . S
H1945 C1953 0.930 . S
H1946 C1954 0.930 . S
H1947 C1955 0.930 . S
H1948 C1958 0.930 . S
H1949 C1959 0.930 . S
C1950 H1944 0.930 . S
C1950 C1951 1.355 . S
C1950 C1952 1.415 . S
C1951 C1950 1.355 . S
C1951 C1953 1.419 . S
C1952 C1950 1.415 . S
C1952 C1957 1.425 . S
C1952 C1959 1.409 . S
C1953 H1945 0.930 . S
C1953 C1951 1.419 . S
C1953 C1954 1.362 . S
C1954 H1946 0.930 . S
C1954 C1953 1.362 . S
C1954 C1957 1.409 . S
C1955 H1947 0.930 . S
C1955 C1956 1.355 . S
C1955 C1957 1.415 . S
C1956 C1955 1.355 . S
C1956 C1958 1.419 . S
C1957 C1952 1.425 . S
C1957 C1954 1.409 . S
C1957 C1955 1.415 . S
C1958 H1948 0.930 . S
C1958 C1956 1.419 . S
C1958 C1959 1.362 . S
C1959 H1949 0.930 . S
C1959 C1952 1.409 . S
C1959 C1958 1.362 . S
H1960 C1966 0.930 . S
H1961 C1969 0.930 . S
H1962 C1970 0.930 . S
H1963 C1971 0.930 . S
H1964 C1974 0.930 . S
H1965 C1975 0.930 . S
C1966 H1960 0.930 . S
C1966 C1967 1.355 . S
C1966 C1968 1.415 . S
C1967 C1966 1.355 . S
C1967 C1969 1.419 . S
C1968 C1966 1.415 . S
C1968 C1973 1.425 . S
C1968 C1975 1.409 . S
C1969 H1961 0.930 . S
C1969 C1967 1.419 . S
C1969 C1970 1.362 . S
C1970 H1962 0.930 . S
C1970 C1969 1.362 . S
C1970 C1973 1.409 . S
C1971 H1963 0.930 . S
C1971 C1972 1.355 . S
C1971 C1973 1.415 . S
C1972 C1971 1.355 . S
C1972 C1974 1.419 . S
C1973 C1968 1.425 . S
C1973 C1970 1.409 . S
C1973 C1971 1.415 . S
C1974 H1964 0.930 . S
C1974 C1972 1.419 . S
C1974 C1975 1.362 . S
C1975 H1965 0.930 . S
C1975 C1968 1.409 . S
C1975 C1974 1.362 . S
H1976 C1982 0.930 . S
H1977 C1985 0.930 . S
H1978 C1986 0.930 . S
H1979 C1987 0.930 . S
H1980 C1990 0.930 . S
H1981 C1991 0.930 . S
C1982 H1976 0.930 . S
C1982 C1983 1.355 . S
C1982 C1984 1.415 . S
C1983 C1982 1.355 . S
C1983 C1985 1.419 . S
C1984 C1982 1.415 . S
C1984 C1989 1.425 . S
C1984 C1991 1.409 . S
C1985 H1977 0.930 . S
C1985 C1983 1.419 . S
C1985 C1986 1.362 . S
C1986 H1978 0.930 . S
C1986 C1985 1.362 . S
C1986 C1989 1.409 . S
C1987 H1979 0.930 . S
C1987 C1988 1.355 . S
C1987 C1989 1.415 . S
C1988 C1987 1.355 . S
C1988 C1990 1.419 . S
C1989 C1984 1.425 . S
C1989 C1986 1.409 . S
C1989 C1987 1.415 . S
C1990 H1980 0.930 . S
C1990 C1988 1.419 . S
C1990 C1991 1.362 . S
C1991 H1981 0.930 . S
C1991 C1984 1.409 . S
C1991 C1990 1.362 . S
H1992 C1998 0.930 . S
H1993 C2001 0.930 . S
H1994 C2002 0.930 . S
H1995 C2003 0.930 . S
H1996 C2006 0.930 . S
H1997 C2007 0.930 . S
C1998 H1992 0.930 . S
C1998 C1999 1.355 . S
C1998 C2000 1.415 . S
C1999 C1998 1.355 . S
C1999 C2001 1.419 . S
C2000 C1998 1.415 . S
C2000 C2005 1.425 1_655 S
C2000 C2007 1.409 . S
C2001 H1993 0.930 . S
C2001 C1999 1.419 . S
C2001 C2002 1.362 1_655 S
C2002 H1994 0.930 . S
C2002 C2001 1.362 1_455 S
C2002 C2005 1.409 . S
C2003 H1995 0.930 . S
C2003 C2004 1.355 . S
C2003 C2005 1.415 . S
C2004 C2003 1.355 . S
C2004 C2006 1.419 . S
C2005 C2000 1.425 1_455 S
C2005 C2002 1.409 . S
C2005 C2003 1.415 . S
C2006 H1996 0.930 . S
C2006 C2004 1.419 . S
C2006 C2007 1.362 1_455 S
C2007 H1997 0.930 . S
C2007 C2000 1.409 . S
C2007 C2006 1.362 1_655 S
H2008 C2014 0.930 . S
H2009 C2017 0.930 . S
H2010 C2018 0.930 . S
H2011 C2019 0.930 . S
H2012 C2022 0.930 . S
H2013 C2023 0.930 . S
C2014 H2008 0.930 . S
C2014 C2015 1.355 . S
C2014 C2016 1.415 . S
C2015 C2014 1.355 . S
C2015 C2017 1.419 . S
C2016 C2014 1.415 . S
C2016 C2021 1.425 . S
C2016 C2023 1.409 . S
C2017 H2009 0.930 . S
C2017 C2015 1.419 . S
C2017 C2018 1.362 . S
C2018 H2010 0.930 . S
C2018 C2017 1.362 . S
C2018 C2021 1.409 . S
C2019 H2011 0.930 . S
C2019 C2020 1.355 . S
C2019 C2021 1.415 . S
C2020 C2019 1.355 . S
C2020 C2022 1.419 . S
C2021 C2016 1.425 . S
C2021 C2018 1.409 . S
C2021 C2019 1.415 . S
C2022 H2012 0.930 . S
C2022 C2020 1.419 . S
C2022 C2023 1.362 . S
C2023 H2013 0.930 . S
C2023 C2016 1.409 . S
C2023 C2022 1.362 . S
H2024 C2030 0.930 . S
H2025 C2033 0.913 1_565 S
H2026 C2034 0.930 . S
H2027 C2035 0.930 . S
H2028 C2038 0.913 1_545 S
H2029 C2039 0.930 . S
C2030 H2024 0.930 . S
C2030 C2031 1.355 . S
C2030 C2032 1.415 . S
C2031 C2030 1.355 . S
C2031 C2033 1.439 . S
C2032 C2030 1.415 . S
C2032 C2037 1.425 1_545 S
C2032 C2039 1.409 . S
C2033 H2025 0.913 1_545 S
C2033 C2031 1.439 . S
C2033 C2034 1.360 1_545 S
C2034 H2026 0.930 . S
C2034 C2033 1.360 1_565 S
C2034 C2037 1.409 . S
C2035 H2027 0.930 . S
C2035 C2036 1.355 . S
C2035 C2037 1.415 . S
C2036 C2035 1.355 . S
C2036 C2038 1.439 . S
C2037 C2032 1.425 1_565 S
C2037 C2034 1.409 . S
C2037 C2035 1.415 . S
C2038 H2028 0.913 1_565 S
C2038 C2036 1.439 . S
C2038 C2039 1.360 1_565 S
C2039 H2029 0.930 . S
C2039 C2032 1.409 . S
C2039 C2038 1.360 1_545 S
H2040 C2046 0.930 . S
H2041 C2049 0.930 . S
H2042 C2050 0.930 . S
H2043 C2051 0.930 . S
H2044 C2054 0.930 . S
H2045 C2055 0.930 . S
C2046 H2040 0.930 . S
C2046 C2047 1.355 . S
C2046 C2048 1.415 1_565 S
C2047 C2046 1.355 . S
C2047 C2049 1.419 1_554 S
C2048 C2046 1.415 1_545 S
C2048 C2053 1.425 1_544 S
C2048 C2055 1.409 . S
C2049 H2041 0.930 . S
C2049 C2047 1.419 1_556 S
C2049 C2050 1.362 . S
C2050 H2042 0.930 . S
C2050 C2049 1.362 . S
C2050 C2053 1.409 . S
C2051 H2043 0.930 . S
C2051 C2052 1.355 . S
C2051 C2053 1.415 1_545 S
C2052 C2051 1.355 . S
C2052 C2054 1.419 1_556 S
C2053 C2048 1.425 1_566 S
C2053 C2050 1.409 . S
C2053 C2051 1.415 1_565 S
C2054 H2044 0.930 . S
C2054 C2052 1.419 1_554 S
C2054 C2055 1.362 . S
C2055 H2045 0.930 . S
C2055 C2048 1.409 . S
C2055 C2054 1.362 . S
H2056 C2062 0.930 . S
H2057 C2065 0.930 . S
H2058 C2066 0.930 1_455 S
H2059 C2067 0.930 . S
H2060 C2070 0.930 . S
H2061 C2071 0.930 1_655 S
C2062 H2056 0.930 . S
C2062 C2063 1.355 . S
C2062 C2064 1.415 . S
C2063 C2062 1.355 . S
C2063 C2065 1.419 1_556 S
C2064 C2062 1.415 . S
C2064 C2069 1.425 1_656 S
C2064 C2071 1.409 1_655 S
C2065 H2057 0.930 . S
C2065 C2063 1.419 1_554 S
C2065 C2066 1.362 . S
C2066 H2058 0.930 1_655 S
C2066 C2065 1.362 . S
C2066 C2069 1.409 1_655 S
C2067 H2059 0.930 . S
C2067 C2068 1.355 . S
C2067 C2069 1.415 . S
C2068 C2067 1.355 . S
C2068 C2070 1.419 1_554 S
C2069 C2064 1.425 1_454 S
C2069 C2066 1.409 1_455 S
C2069 C2067 1.415 . S
C2070 H2060 0.930 . S
C2070 C2068 1.419 1_556 S
C2070 C2071 1.362 . S
C2071 H2061 0.930 1_455 S
C2071 C2064 1.409 1_455 S
C2071 C2070 1.362 . S
H2072 C2078 0.918 1_556 S
H2073 C2081 0.930 . S
H2074 C2082 0.930 . S
H2075 C2083 0.918 1_554 S
H2076 C2086 0.930 . S
H2077 C2087 0.930 . S
C2078 H2072 0.918 1_554 S
C2078 C2079 1.372 . S
C2078 C2080 1.409 1_554 S
C2079 C2078 1.372 . S
C2079 C2081 1.419 . S
C2080 C2078 1.409 1_556 S
C2080 C2085 1.425 1_556 S
C2080 C2087 1.409 . S
C2081 H2073 0.930 . S
C2081 C2079 1.419 . S
C2081 C2082 1.362 . S
C2082 H2074 0.930 . S
C2082 C2081 1.362 . S
C2082 C2085 1.409 . S
C2083 H2075 0.918 1_556 S
C2083 C2084 1.372 . S
C2083 C2085 1.409 1_556 S
C2084 C2083 1.372 . S
C2084 C2086 1.419 . S
C2085 C2080 1.425 1_554 S
C2085 C2082 1.409 . S
C2085 C2083 1.409 1_554 S
C2086 H2076 0.930 . S
C2086 C2084 1.419 . S
C2086 C2087 1.362 . S
C2087 H2077 0.930 . S
C2087 C2080 1.409 . S
C2087 C2086 1.362 . S
H2088 C2094 0.930 . S
H2089 C2097 0.930 . S
H2090 C2098 0.930 . S
H2091 C2099 0.930 . S
H2092 C2102 0.930 . S
H2093 C2103 0.930 . S
C2094 H2088 0.930 . S
C2094 C2095 1.355 . S
C2094 C2096 1.415 1_556 S
C2095 C2094 1.355 . S
C2095 C2097 1.419 . S
C2096 C2094 1.415 1_554 S
C2096 C2101 1.425 . S
C2096 C2103 1.409 . S
C2097 H2089 0.930 . S
C2097 C2095 1.419 . S
C2097 C2098 1.362 1_556 S
C2098 H2090 0.930 . S
C2098 C2097 1.362 1_554 S
C2098 C2101 1.409 . S
C2099 H2091 0.930 . S
C2099 C2100 1.355 . S
C2099 C2101 1.415 . S
C2100 C2099 1.355 . S
C2100 C2102 1.419 . S
C2101 C2096 1.425 . S
C2101 C2098 1.409 . S
C2101 C2099 1.415 . S
C2102 H2092 0.930 . S
C2102 C2100 1.419 . S
C2102 C2103 1.362 . S
C2103 H2093 0.930 . S
C2103 C2096 1.409 . S
C2103 C2102 1.362 . S
H2104 C2110 0.930 . S
H2105 C2113 0.930 . S
H2106 C2114 0.930 . S
H2107 C2115 0.930 . S
H2108 C2118 0.930 . S
H2109 C2119 0.930 . S
C2110 H2104 0.930 . S
C2110 C2111 1.355 . S
C2110 C2112 1.415 . S
C2111 C2110 1.355 . S
C2111 C2113 1.419 . S
C2112 C2110 1.415 . S
C2112 C2117 1.425 . S
C2112 C2119 1.409 1_554 S
C2113 H2105 0.930 . S
C2113 C2111 1.419 . S
C2113 C2114 1.362 . S
C2114 H2106 0.930 . S
C2114 C2113 1.362 . S
C2114 C2117 1.409 . S
C2115 H2107 0.930 . S
C2115 C2116 1.355 1_554 S
C2115 C2117 1.415 . S
C2116 C2115 1.355 1_556 S
C2116 C2118 1.419 . S
C2117 C2112 1.425 . S
C2117 C2114 1.409 . S
C2117 C2115 1.415 . S
C2118 H2108 0.930 . S
C2118 C2116 1.419 . S
C2118 C2119 1.362 . S
C2119 H2109 0.930 . S
C2119 C2112 1.409 1_556 S
C2119 C2118 1.362 . S
H2120 C2126 0.930 . S
H2121 C2129 0.930 . S
H2122 C2130 0.930 . S
H2123 C2131 0.930 . S
H2124 C2134 0.930 . S
H2125 C2135 0.930 . S
C2126 H2120 0.930 . S
C2126 C2127 1.355 . S
C2126 C2128 1.415 . S
C2127 C2126 1.355 . S
C2127 C2129 1.419 . S
C2128 C2126 1.415 . S
C2128 C2133 1.425 . S
C2128 C2135 1.409 . S
C2129 H2121 0.930 . S
C2129 C2127 1.419 . S
C2129 C2130 1.362 1_554 S
C2130 H2122 0.930 . S
C2130 C2129 1.362 1_556 S
C2130 C2133 1.409 1_556 S
C2131 H2123 0.930 . S
C2131 C2132 1.355 . S
C2131 C2133 1.415 1_556 S
C2132 C2131 1.355 . S
C2132 C2134 1.419 1_556 S
C2133 C2128 1.425 . S
C2133 C2130 1.409 1_554 S
C2133 C2131 1.415 1_554 S
C2134 H2124 0.930 . S
C2134 C2132 1.419 1_554 S
C2134 C2135 1.362 . S
C2135 H2125 0.930 . S
C2135 C2128 1.409 . S
C2135 C2134 1.362 . S
H2136 C2142 0.930 . S
H2137 C2145 0.930 . S
H2138 C2146 0.930 . S
H2139 C2147 0.930 . S
H2140 C2150 0.930 . S
H2141 C2151 0.930 . S
C2142 H2136 0.930 . S
C2142 C2143 1.355 . S
C2142 C2144 1.415 . S
C2143 C2142 1.355 . S
C2143 C2145 1.419 . S
C2144 C2142 1.415 . S
C2144 C2149 1.425 . S
C2144 C2151 1.409 . S
C2145 H2137 0.930 . S
C2145 C2143 1.419 . S
C2145 C2146 1.362 . S
C2146 H2138 0.930 . S
C2146 C2145 1.362 . S
C2146 C2149 1.409 . S
C2147 H2139 0.930 . S
C2147 C2148 1.355 . S
C2147 C2149 1.415 . S
C2148 C2147 1.355 . S
C2148 C2150 1.419 . S
C2149 C2144 1.425 . S
C2149 C2146 1.409 . S
C2149 C2147 1.415 . S
C2150 H2140 0.930 . S
C2150 C2148 1.419 . S
C2150 C2151 1.362 . S
C2151 H2141 0.930 . S
C2151 C2144 1.409 . S
C2151 C2150 1.362 . S
H2152 C2158 0.930 . S
H2153 C2161 0.930 . S
H2154 C2162 0.930 . S
H2155 C2163 0.930 . S
H2156 C2166 0.930 . S
H2157 C2167 0.930 . S
C2158 H2152 0.930 . S
C2158 C2159 1.355 . S
C2158 C2160 1.415 . S
C2159 C2158 1.355 . S
C2159 C2161 1.419 . S
C2160 C2158 1.415 . S
C2160 C2165 1.425 . S
C2160 C2167 1.409 . S
C2161 H2153 0.930 . S
C2161 C2159 1.419 . S
C2161 C2162 1.362 . S
C2162 H2154 0.930 . S
C2162 C2161 1.362 . S
C2162 C2165 1.409 . S
C2163 H2155 0.930 . S
C2163 C2164 1.355 . S
C2163 C2165 1.415 . S
C2164 C2163 1.355 . S
C2164 C2166 1.419 . S
C2165 C2160 1.425 . S
C2165 C2162 1.409 . S
C2165 C2163 1.415 . S
C2166 H2156 0.930 . S
C2166 C2164 1.419 . S
C2166 C2167 1.362 . S
C2167 H2157 0.930 . S
C2167 C2160 1.409 . S
C2167 C2166 1.362 . S
H2168 C2174 0.930 . S
H2169 C2177 0.930 . S
H2170 C2178 0.930 . S
H2171 C2179 0.930 . S
H2172 C2182 0.930 . S
H2173 C2183 0.930 . S
C2174 H2168 0.930 . S
C2174 C2175 1.355 . S
C2174 C2176 1.415 . S
C2175 C2174 1.355 . S
C2175 C2177 1.419 . S
C2176 C2174 1.415 . S
C2176 C2181 1.425 . S
C2176 C2183 1.409 . S
C2177 H2169 0.930 . S
C2177 C2175 1.419 . S
C2177 C2178 1.362 . S
C2178 H2170 0.930 . S
C2178 C2177 1.362 . S
C2178 C2181 1.409 . S
C2179 H2171 0.930 . S
C2179 C2180 1.355 . S
C2179 C2181 1.415 . S
C2180 C2179 1.355 . S
C2180 C2182 1.419 . S
C2181 C2176 1.425 . S
C2181 C2178 1.409 . S
C2181 C2179 1.415 . S
C2182 H2172 0.930 . S
C2182 C2180 1.419 . S
C2182 C2183 1.362 . S
C2183 H2173 0.930 . S
C2183 C2176 1.409 . S
C2183 C2182 1.362 . S
H2184 C2190 0.930 . S
H2185 C2193 0.930 . S
H2186 C2194 0.930 . S
H2187 C2195 0.930 . S
H2188 C2198 0.930 . S
H2189 C2199 0.930 . S
C2190 H2184 0.930 . S
C2190 C2191 1.355 1_556 S
C2190 C2192 1.415 . S
C2191 C2190 1.355 1_554 S
C2191 C2193 1.419 . S
C2192 C2190 1.415 . S
C2192 C2197 1.425 . S
C2192 C2199 1.409 . S
C2193 H2185 0.930 . S
C2193 C2191 1.419 . S
C2193 C2194 1.362 . S
C2194 H2186 0.930 . S
C2194 C2193 1.362 . S
C2194 C2197 1.409 1_554 S
C2195 H2187 0.930 . S
C2195 C2196 1.355 . S
C2195 C2197 1.415 . S
C2196 C2195 1.355 . S
C2196 C2198 1.419 . S
C2197 C2192 1.425 . S
C2197 C2194 1.409 1_556 S
C2197 C2195 1.415 . S
C2198 H2188 0.930 . S
C2198 C2196 1.419 . S
C2198 C2199 1.362 . S
C2199 H2189 0.930 . S
C2199 C2192 1.409 . S
C2199 C2198 1.362 . S
H2200 C2206 0.930 . S
H2201 C2209 0.930 . S
H2202 C2210 0.930 . S
H2203 C2211 0.930 . S
H2204 C2214 0.930 . S
H2205 C2215 0.930 . S
C2206 H2200 0.930 . S
C2206 C2207 1.355 . S
C2206 C2208 1.415 1_554 S
C2207 C2206 1.355 . S
C2207 C2209 1.419 . S
C2208 C2206 1.415 1_556 S
C2208 C2213 1.425 . S
C2208 C2215 1.409 . S
C2209 H2201 0.930 . S
C2209 C2207 1.419 . S
C2209 C2210 1.362 1_554 S
C2210 H2202 0.930 . S
C2210 C2209 1.362 1_556 S
C2210 C2213 1.409 . S
C2211 H2203 0.930 . S
C2211 C2212 1.355 . S
C2211 C2213 1.415 . S
C2212 C2211 1.355 . S
C2212 C2214 1.419 . S
C2213 C2208 1.425 . S
C2213 C2210 1.409 . S
C2213 C2211 1.415 . S
C2214 H2204 0.930 . S
C2214 C2212 1.419 . S
C2214 C2215 1.362 . S
C2215 H2205 0.930 . S
C2215 C2208 1.409 . S
C2215 C2214 1.362 . S
H2216 C2222 0.930 . S
H2217 C2225 0.930 . S
H2218 C2226 0.930 . S
H2219 C2227 0.930 . S
H2220 C2230 0.930 . S
H2221 C2231 0.930 . S
C2222 H2216 0.930 . S
C2222 C2223 1.355 . S
C2222 C2224 1.405 1_554 S
C2223 C2222 1.355 . S
C2223 C2225 1.419 1_554 S
C2224 C2222 1.405 1_556 S
C2224 C2229 1.438 . S
C2224 C2231 1.407 1_556 S
C2225 H2217 0.930 . S
C2225 C2223 1.419 1_556 S
C2225 C2226 1.362 . S
C2226 H2218 0.930 . S
C2226 C2225 1.362 . S
C2226 C2229 1.409 . S
C2227 H2219 0.930 . S
C2227 C2228 1.355 . S
C2227 C2229 1.415 . S
C2228 C2227 1.355 . S
C2228 C2230 1.419 . S
C2229 C2224 1.438 . S
C2229 C2226 1.409 . S
C2229 C2227 1.415 . S
C2230 H2220 0.930 . S
C2230 C2228 1.419 . S
C2230 C2231 1.362 1_556 S
C2231 H2221 0.930 . S
C2231 C2224 1.407 1_554 S
C2231 C2230 1.362 1_554 S
H2232 C2238 0.930 . S
H2233 C2241 0.930 . S
H2234 C2242 0.930 . S
H2235 C2243 0.930 . S
H2236 C2246 0.930 . S
H2237 C2247 0.930 . S
C2238 H2232 0.930 . S
C2238 C2239 1.355 . S
C2238 C2240 1.415 . S
C2239 C2238 1.355 . S
C2239 C2241 1.419 . S
C2240 C2238 1.415 . S
C2240 C2245 1.425 . S
C2240 C2247 1.409 . S
C2241 H2233 0.930 . S
C2241 C2239 1.419 . S
C2241 C2242 1.362 . S
C2242 H2234 0.930 . S
C2242 C2241 1.362 . S
C2242 C2245 1.409 . S
C2243 H2235 0.930 . S
C2243 C2244 1.355 . S
C2243 C2245 1.415 . S
C2244 C2243 1.355 . S
C2244 C2246 1.419 . S
C2245 C2240 1.425 . S
C2245 C2242 1.409 . S
C2245 C2243 1.415 . S
C2246 H2236 0.930 . S
C2246 C2244 1.419 . S
C2246 C2247 1.362 . S
C2247 H2237 0.930 . S
C2247 C2240 1.409 . S
C2247 C2246 1.362 . S
H2248 C2254 0.930 . S
H2249 C2257 0.930 . S
H2250 C2258 0.930 . S
H2251 C2259 0.930 . S
H2252 C2262 0.930 . S
H2253 C2263 0.930 . S
C2254 H2248 0.930 . S
C2254 C2255 1.355 . S
C2254 C2256 1.415 . S
C2255 C2254 1.355 . S
C2255 C2257 1.419 . S
C2256 C2254 1.415 . S
C2256 C2261 1.425 . S
C2256 C2263 1.409 . S
C2257 H2249 0.930 . S
C2257 C2255 1.419 . S
C2257 C2258 1.362 . S
C2258 H2250 0.930 . S
C2258 C2257 1.362 . S
C2258 C2261 1.409 . S
C2259 H2251 0.930 . S
C2259 C2260 1.355 . S
C2259 C2261 1.415 . S
C2260 C2259 1.355 . S
C2260 C2262 1.419 . S
C2261 C2256 1.425 . S
C2261 C2258 1.409 . S
C2261 C2259 1.415 . S
C2262 H2252 0.930 . S
C2262 C2260 1.419 . S
C2262 C2263 1.362 . S
C2263 H2253 0.930 . S
C2263 C2256 1.409 . S
C2263 C2262 1.362 . S
H2264 C2270 0.930 . S
H2265 C2273 0.930 . S
H2266 C2274 0.930 . S
H2267 C2275 0.930 . S
H2268 C2278 0.930 . S
H2269 C2279 0.930 . S
C2270 H2264 0.930 . S
C2270 C2271 1.355 . S
C2270 C2272 1.415 . S
C2271 C2270 1.355 . S
C2271 C2273 1.419 . S
C2272 C2270 1.415 . S
C2272 C2277 1.425 . S
C2272 C2279 1.409 . S
C2273 H2265 0.930 . S
C2273 C2271 1.419 . S
C2273 C2274 1.362 . S
C2274 H2266 0.930 . S
C2274 C2273 1.362 . S
C2274 C2277 1.409 . S
C2275 H2267 0.930 . S
C2275 C2276 1.355 . S
C2275 C2277 1.415 . S
C2276 C2275 1.355 . S
C2276 C2278 1.419 . S
C2277 C2272 1.425 . S
C2277 C2274 1.409 . S
C2277 C2275 1.415 . S
C2278 H2268 0.930 . S
C2278 C2276 1.419 . S
C2278 C2279 1.362 . S
C2279 H2269 0.930 . S
C2279 C2272 1.409 . S
C2279 C2278 1.362 . S
H2280 C2286 0.930 . S
H2281 C2289 0.930 . S
H2282 C2290 0.930 . S
H2283 C2291 0.930 . S
H2284 C2294 0.930 . S
H2285 C2295 0.930 . S
C2286 H2280 0.930 . S
C2286 C2287 1.355 . S
C2286 C2288 1.415 . S
C2287 C2286 1.355 . S
C2287 C2289 1.419 . S
C2288 C2286 1.415 . S
C2288 C2293 1.425 . S
C2288 C2295 1.409 . S
C2289 H2281 0.930 . S
C2289 C2287 1.419 . S
C2289 C2290 1.362 . S
C2290 H2282 0.930 . S
C2290 C2289 1.362 . S
C2290 C2293 1.409 . S
C2291 H2283 0.930 . S
C2291 C2292 1.355 . S
C2291 C2293 1.415 . S
C2292 C2291 1.355 . S
C2292 C2294 1.419 . S
C2293 C2288 1.425 . S
C2293 C2290 1.409 . S
C2293 C2291 1.415 . S
C2294 H2284 0.930 . S
C2294 C2292 1.419 . S
C2294 C2295 1.362 . S
C2295 H2285 0.930 . S
C2295 C2288 1.409 . S
C2295 C2294 1.362 . S
H2296 C2302 0.930 . S
H2297 C2305 0.930 . S
H2298 C2306 0.930 . S
H2299 C2307 0.930 . S
H2300 C2310 0.930 . S
H2301 C2311 0.930 . S
C2302 H2296 0.930 . S
C2302 C2303 1.355 . S
C2302 C2304 1.415 . S
C2303 C2302 1.355 . S
C2303 C2305 1.419 . S
C2304 C2302 1.415 . S
C2304 C2309 1.425 . S
C2304 C2311 1.409 . S
C2305 H2297 0.930 . S
C2305 C2303 1.419 . S
C2305 C2306 1.362 . S
C2306 H2298 0.930 . S
C2306 C2305 1.362 . S
C2306 C2309 1.409 . S
C2307 H2299 0.930 . S
C2307 C2308 1.355 . S
C2307 C2309 1.415 . S
C2308 C2307 1.355 . S
C2308 C2310 1.419 . S
C2309 C2304 1.425 . S
C2309 C2306 1.409 . S
C2309 C2307 1.415 . S
C2310 H2300 0.930 . S
C2310 C2308 1.419 . S
C2310 C2311 1.362 . S
C2311 H2301 0.930 . S
C2311 C2304 1.409 . S
C2311 C2310 1.362 . S
H2312 C2318 0.930 . S
H2313 C2321 0.930 . S
H2314 C2322 0.930 . S
H2315 C2323 0.930 . S
H2316 C2326 0.930 . S
H2317 C2327 0.930 . S
C2318 H2312 0.930 . S
C2318 C2319 1.355 . S
C2318 C2320 1.415 . S
C2319 C2318 1.355 . S
C2319 C2321 1.419 . S
C2320 C2318 1.415 . S
C2320 C2325 1.425 . S
C2320 C2327 1.409 . S
C2321 H2313 0.930 . S
C2321 C2319 1.419 . S
C2321 C2322 1.362 . S
C2322 H2314 0.930 . S
C2322 C2321 1.362 . S
C2322 C2325 1.409 . S
C2323 H2315 0.930 . S
C2323 C2324 1.355 . S
C2323 C2325 1.415 . S
C2324 C2323 1.355 . S
C2324 C2326 1.419 . S
C2325 C2320 1.425 . S
C2325 C2322 1.409 . S
C2325 C2323 1.415 . S
C2326 H2316 0.930 . S
C2326 C2324 1.419 . S
C2326 C2327 1.362 . S
C2327 H2317 0.930 . S
C2327 C2320 1.409 . S
C2327 C2326 1.362 . S
H2328 C2334 0.930 . S
H2329 C2337 0.930 . S
H2330 C2338 0.930 . S
H2331 C2339 0.930 . S
H2332 C2342 0.930 . S
H2333 C2343 0.930 . S
C2334 H2328 0.930 . S
C2334 C2335 1.355 . S
C2334 C2336 1.415 . S
C2335 C2334 1.355 . S
C2335 C2337 1.419 . S
C2336 C2334 1.415 . S
C2336 C2341 1.425 . S
C2336 C2343 1.409 . S
C2337 H2329 0.930 . S
C2337 C2335 1.419 . S
C2337 C2338 1.362 . S
C2338 H2330 0.930 . S
C2338 C2337 1.362 . S
C2338 C2341 1.409 . S
C2339 H2331 0.930 . S
C2339 C2340 1.355 . S
C2339 C2341 1.415 . S
C2340 C2339 1.355 . S
C2340 C2342 1.419 . S
C2341 C2336 1.425 . S
C2341 C2338 1.409 . S
C2341 C2339 1.415 . S
C2342 H2332 0.930 . S
C2342 C2340 1.419 . S
C2342 C2343 1.362 . S
C2343 H2333 0.930 . S
C2343 C2336 1.409 . S
C2343 C2342 1.362 . S
H2344 C2350 0.930 . S
H2345 C2353 0.930 . S
H2346 C2354 0.930 . S
H2347 C2355 0.930 . S
H2348 C2358 0.930 . S
H2349 C2359 0.930 . S
C2350 H2344 0.930 . S
C2350 C2351 1.355 . S
C2350 C2352 1.415 . S
C2351 C2350 1.355 . S
C2351 C2353 1.419 . S
C2352 C2350 1.415 . S
C2352 C2357 1.425 . S
C2352 C2359 1.409 . S
C2353 H2345 0.930 . S
C2353 C2351 1.419 . S
C2353 C2354 1.362 . S
C2354 H2346 0.930 . S
C2354 C2353 1.362 . S
C2354 C2357 1.409 . S
C2355 H2347 0.930 . S
C2355 C2356 1.355 . S
C2355 C2357 1.415 . S
C2356 C2355 1.355 . S
C2356 C2358 1.419 . S
C2357 C2352 1.425 . S
C2357 C2354 1.409 . S
C2357 C2355 1.415 . S
C2358 H2348 0.930 . S
C2358 C2356 1.419 . S
C2358 C2359 1.362 . S
C2359 H2349 0.930 . S
C2359 C2352 1.409 . S
C2359 C2358 1.362 . S
H2360 C2366 0.930 . S
H2361 C2369 0.930 . S
H2362 C2370 0.930 . S
H2363 C2371 0.930 . S
H2364 C2374 0.930 . S
H2365 C2375 0.930 . S
C2366 H2360 0.930 . S
C2366 C2367 1.355 . S
C2366 C2368 1.415 . S
C2367 C2366 1.355 . S
C2367 C2369 1.419 . S
C2368 C2366 1.415 . S
C2368 C2373 1.425 . S
C2368 C2375 1.409 . S
C2369 H2361 0.930 . S
C2369 C2367 1.419 . S
C2369 C2370 1.362 . S
C2370 H2362 0.930 . S
C2370 C2369 1.362 . S
C2370 C2373 1.409 . S
C2371 H2363 0.930 . S
C2371 C2372 1.355 . S
C2371 C2373 1.415 . S
C2372 C2371 1.355 . S
C2372 C2374 1.419 . S
C2373 C2368 1.425 . S
C2373 C2370 1.409 . S
C2373 C2371 1.415 . S
C2374 H2364 0.930 . S
C2374 C2372 1.419 . S
C2374 C2375 1.362 . S
C2375 H2365 0.930 . S
C2375 C2368 1.409 . S
C2375 C2374 1.362 . S
H2376 C2382 0.930 . S
H2377 C2385 0.930 . S
H2378 C2386 0.930 . S
H2379 C2387 0.930 . S
H2380 C2390 0.930 . S
H2381 C2391 0.930 . S
C2382 H2376 0.930 . S
C2382 C2383 1.355 . S
C2382 C2384 1.415 . S
C2383 C2382 1.355 . S
C2383 C2385 1.419 . S
C2384 C2382 1.415 . S
C2384 C2389 1.425 . S
C2384 C2391 1.409 . S
C2385 H2377 0.930 . S
C2385 C2383 1.419 . S
C2385 C2386 1.362 . S
C2386 H2378 0.930 . S
C2386 C2385 1.362 . S
C2386 C2389 1.409 . S
C2387 H2379 0.930 . S
C2387 C2388 1.355 . S
C2387 C2389 1.415 . S
C2388 C2387 1.355 . S
C2388 C2390 1.419 . S
C2389 C2384 1.425 . S
C2389 C2386 1.409 . S
C2389 C2387 1.415 . S
C2390 H2380 0.930 . S
C2390 C2388 1.419 . S
C2390 C2391 1.362 . S
C2391 H2381 0.930 . S
C2391 C2384 1.409 . S
C2391 C2390 1.362 . S
H2392 C2398 0.930 . S
H2393 C2401 0.930 . S
H2394 C2402 0.930 . S
H2395 C2403 0.930 . S
H2396 C2406 0.930 . S
H2397 C2407 0.930 . S
C2398 H2392 0.930 . S
C2398 C2399 1.355 . S
C2398 C2400 1.415 . S
C2399 C2398 1.355 . S
C2399 C2401 1.419 . S
C2400 C2398 1.415 . S
C2400 C2405 1.425 . S
C2400 C2407 1.409 . S
C2401 H2393 0.930 . S
C2401 C2399 1.419 . S
C2401 C2402 1.362 . S
C2402 H2394 0.930 . S
C2402 C2401 1.362 . S
C2402 C2405 1.409 . S
C2403 H2395 0.930 . S
C2403 C2404 1.355 . S
C2403 C2405 1.415 . S
C2404 C2403 1.355 . S
C2404 C2406 1.419 . S
C2405 C2400 1.425 . S
C2405 C2402 1.409 . S
C2405 C2403 1.415 . S
C2406 H2396 0.930 . S
C2406 C2404 1.419 . S
C2406 C2407 1.362 . S
C2407 H2397 0.930 . S
C2407 C2400 1.409 . S
C2407 C2406 1.362 . S
H2408 C2414 0.930 . S
H2409 C2417 0.930 . S
H2410 C2418 0.930 . S
H2411 C2419 0.930 . S
H2412 C2422 0.930 . S
H2413 C2423 0.930 . S
C2414 H2408 0.930 . S
C2414 C2415 1.355 . S
C2414 C2416 1.415 . S
C2415 C2414 1.355 . S
C2415 C2417 1.419 . S
C2416 C2414 1.415 . S
C2416 C2421 1.425 . S
C2416 C2423 1.409 . S
C2417 H2409 0.930 . S
C2417 C2415 1.419 . S
C2417 C2418 1.362 . S
C2418 H2410 0.930 . S
C2418 C2417 1.362 . S
C2418 C2421 1.409 . S
C2419 H2411 0.930 . S
C2419 C2420 1.355 . S
C2419 C2421 1.415 . S
C2420 C2419 1.355 . S
C2420 C2422 1.419 . S
C2421 C2416 1.425 . S
C2421 C2418 1.409 . S
C2421 C2419 1.415 . S
C2422 H2412 0.930 . S
C2422 C2420 1.419 . S
C2422 C2423 1.362 . S
C2423 H2413 0.930 . S
C2423 C2416 1.409 . S
C2423 C2422 1.362 . S
H2424 C2430 0.930 . S
H2425 C2433 0.930 . S
H2426 C2434 0.930 . S
H2427 C2435 0.930 . S
H2428 C2438 0.930 . S
H2429 C2439 0.930 . S
C2430 H2424 0.930 . S
C2430 C2431 1.355 . S
C2430 C2432 1.415 . S
C2431 C2430 1.355 . S
C2431 C2433 1.419 . S
C2432 C2430 1.415 . S
C2432 C2437 1.425 . S
C2432 C2439 1.409 . S
C2433 H2425 0.930 . S
C2433 C2431 1.419 . S
C2433 C2434 1.362 . S
C2434 H2426 0.930 . S
C2434 C2433 1.362 . S
C2434 C2437 1.409 . S
C2435 H2427 0.930 . S
C2435 C2436 1.355 . S
C2435 C2437 1.415 . S
C2436 C2435 1.355 . S
C2436 C2438 1.419 . S
C2437 C2432 1.425 . S
C2437 C2434 1.409 . S
C2437 C2435 1.415 . S
C2438 H2428 0.930 . S
C2438 C2436 1.419 . S
C2438 C2439 1.362 . S
C2439 H2429 0.930 . S
C2439 C2432 1.409 . S
C2439 C2438 1.362 . S
H2440 C2446 0.930 . S
H2441 C2449 0.930 . S
H2442 C2450 0.930 . S
H2443 C2451 0.930 . S
H2444 C2454 0.930 . S
H2445 C2455 0.930 . S
C2446 H2440 0.930 . S
C2446 C2447 1.355 . S
C2446 C2448 1.415 . S
C2447 C2446 1.355 . S
C2447 C2449 1.419 . S
C2448 C2446 1.415 . S
C2448 C2453 1.425 . S
C2448 C2455 1.409 . S
C2449 H2441 0.930 . S
C2449 C2447 1.419 . S
C2449 C2450 1.362 . S
C2450 H2442 0.930 . S
C2450 C2449 1.362 . S
C2450 C2453 1.409 . S
C2451 H2443 0.930 . S
C2451 C2452 1.355 . S
C2451 C2453 1.415 . S
C2452 C2451 1.355 . S
C2452 C2454 1.419 . S
C2453 C2448 1.425 . S
C2453 C2450 1.409 . S
C2453 C2451 1.415 . S
C2454 H2444 0.930 . S
C2454 C2452 1.419 . S
C2454 C2455 1.362 . S
C2455 H2445 0.930 . S
C2455 C2448 1.409 . S
C2455 C2454 1.362 . S
H2456 C2462 0.930 . S
H2457 C2465 0.930 . S
H2458 C2466 0.930 . S
H2459 C2467 0.930 . S
H2460 C2470 0.930 . S
H2461 C2471 0.930 . S
C2462 H2456 0.930 . S
C2462 C2463 1.355 . S
C2462 C2464 1.415 . S
C2463 C2462 1.355 . S
C2463 C2465 1.419 . S
C2464 C2462 1.415 . S
C2464 C2469 1.425 . S
C2464 C2471 1.409 . S
C2465 H2457 0.930 . S
C2465 C2463 1.419 . S
C2465 C2466 1.362 . S
C2466 H2458 0.930 . S
C2466 C2465 1.362 . S
C2466 C2469 1.409 . S
C2467 H2459 0.930 . S
C2467 C2468 1.355 . S
C2467 C2469 1.415 . S
C2468 C2467 1.355 . S
C2468 C2470 1.419 . S
C2469 C2464 1.425 . S
C2469 C2466 1.409 . S
C2469 C2467 1.415 . S
C2470 H2460 0.930 . S
C2470 C2468 1.419 . S
C2470 C2471 1.362 . S
C2471 H2461 0.930 . S
C2471 C2464 1.409 . S
C2471 C2470 1.362 . S
H2472 C2478 0.930 . S
H2473 C2481 0.930 . S
H2474 C2482 0.930 . S
H2475 C2483 0.930 . S
H2476 C2486 0.930 . S
H2477 C2487 0.930 . S
C2478 H2472 0.930 . S
C2478 C2479 1.355 . S
C2478 C2480 1.415 . S
C2479 C2478 1.355 . S
C2479 C2481 1.419 . S
C2480 C2478 1.415 . S
C2480 C2485 1.425 . S
C2480 C2487 1.409 . S
C2481 H2473 0.930 . S
C2481 C2479 1.419 . S
C2481 C2482 1.362 . S
C2482 H2474 0.930 . S
C2482 C2481 1.362 . S
C2482 C2485 1.409 . S
C2483 H2475 0.930 . S
C2483 C2484 1.355 . S
C2483 C2485 1.415 . S
C2484 C2483 1.355 . S
C2484 C2486 1.419 . S
C2485 C2480 1.425 . S
C2485 C2482 1.409 . S
C2485 C2483 1.415 . S
C2486 H2476 0.930 . S
C2486 C2484 1.419 . S
C2486 C2487 1.362 . S
C2487 H2477 0.930 . S
C2487 C2480 1.409 . S
C2487 C2486 1.362 . S
H2488 C2494 0.930 . S
H2489 C2497 0.930 . S
H2490 C2498 0.930 . S
H2491 C2499 0.930 . S
H2492 C2502 0.930 . S
H2493 C2503 0.930 . S
C2494 H2488 0.930 . S
C2494 C2495 1.355 . S
C2494 C2496 1.415 . S
C2495 C2494 1.355 . S
C2495 C2497 1.419 . S
C2496 C2494 1.415 . S
C2496 C2501 1.425 . S
C2496 C2503 1.409 . S
C2497 H2489 0.930 . S
C2497 C2495 1.419 . S
C2497 C2498 1.362 . S
C2498 H2490 0.930 . S
C2498 C2497 1.362 . S
C2498 C2501 1.409 . S
C2499 H2491 0.930 . S
C2499 C2500 1.355 . S
C2499 C2501 1.415 . S
C2500 C2499 1.355 . S
C2500 C2502 1.419 . S
C2501 C2496 1.425 . S
C2501 C2498 1.409 . S
C2501 C2499 1.415 . S
C2502 H2492 0.930 . S
C2502 C2500 1.419 . S
C2502 C2503 1.362 . S
C2503 H2493 0.930 . S
C2503 C2496 1.409 . S
C2503 C2502 1.362 . S
H2504 C2510 0.930 . S
H2505 C2513 0.930 . S
H2506 C2514 0.930 . S
H2507 C2515 0.930 . S
H2508 C2518 0.930 . S
H2509 C2519 0.930 . S
C2510 H2504 0.930 . S
C2510 C2511 1.355 . S
C2510 C2512 1.415 . S
C2511 C2510 1.355 . S
C2511 C2513 1.419 . S
C2512 C2510 1.415 . S
C2512 C2517 1.425 . S
C2512 C2519 1.409 . S
C2513 H2505 0.930 . S
C2513 C2511 1.419 . S
C2513 C2514 1.362 . S
C2514 H2506 0.930 . S
C2514 C2513 1.362 . S
C2514 C2517 1.409 . S
C2515 H2507 0.930 . S
C2515 C2516 1.355 . S
C2515 C2517 1.415 . S
C2516 C2515 1.355 . S
C2516 C2518 1.419 . S
C2517 C2512 1.425 . S
C2517 C2514 1.409 . S
C2517 C2515 1.415 . S
C2518 H2508 0.930 . S
C2518 C2516 1.419 . S
C2518 C2519 1.362 . S
C2519 H2509 0.930 . S
C2519 C2512 1.409 . S
C2519 C2518 1.362 . S
H2520 C2526 0.930 . S
H2521 C2529 0.930 . S
H2522 C2530 0.930 . S
H2523 C2531 0.930 . S
H2524 C2534 0.930 . S
H2525 C2535 0.930 . S
C2526 H2520 0.930 . S
C2526 C2527 1.355 . S
C2526 C2528 1.415 . S
C2527 C2526 1.355 . S
C2527 C2529 1.419 . S
C2528 C2526 1.415 . S
C2528 C2533 1.425 . S
C2528 C2535 1.409 . S
C2529 H2521 0.930 . S
C2529 C2527 1.419 . S
C2529 C2530 1.362 . S
C2530 H2522 0.930 . S
C2530 C2529 1.362 . S
C2530 C2533 1.409 . S
C2531 H2523 0.930 . S
C2531 C2532 1.355 . S
C2531 C2533 1.415 . S
C2532 C2531 1.355 . S
C2532 C2534 1.419 . S
C2533 C2528 1.425 . S
C2533 C2530 1.409 . S
C2533 C2531 1.415 . S
C2534 H2524 0.930 . S
C2534 C2532 1.419 . S
C2534 C2535 1.362 . S
C2535 H2525 0.930 . S
C2535 C2528 1.409 . S
C2535 C2534 1.362 . S
H2536 C2542 0.930 . S
H2537 C2545 0.930 . S
H2538 C2546 0.930 . S
H2539 C2547 0.930 . S
H2540 C2550 0.930 . S
H2541 C2551 0.930 . S
C2542 H2536 0.930 . S
C2542 C2543 1.355 . S
C2542 C2544 1.415 . S
C2543 C2542 1.355 . S
C2543 C2545 1.419 . S
C2544 C2542 1.415 . S
C2544 C2549 1.425 . S
C2544 C2551 1.409 . S
C2545 H2537 0.930 . S
C2545 C2543 1.419 . S
C2545 C2546 1.362 . S
C2546 H2538 0.930 . S
C2546 C2545 1.362 . S
C2546 C2549 1.409 . S
C2547 H2539 0.930 . S
C2547 C2548 1.355 . S
C2547 C2549 1.415 . S
C2548 C2547 1.355 . S
C2548 C2550 1.419 . S
C2549 C2544 1.425 . S
C2549 C2546 1.409 . S
C2549 C2547 1.415 . S
C2550 H2540 0.930 . S
C2550 C2548 1.419 . S
C2550 C2551 1.362 . S
C2551 H2541 0.930 . S
C2551 C2544 1.409 . S
C2551 C2550 1.362 . S
H2552 C2558 0.930 . S
H2553 C2561 0.930 . S
H2554 C2562 0.930 . S
H2555 C2563 0.930 . S
H2556 C2566 0.930 . S
H2557 C2567 0.930 . S
C2558 H2552 0.930 . S
C2558 C2559 1.355 . S
C2558 C2560 1.415 . S
C2559 C2558 1.355 . S
C2559 C2561 1.419 . S
C2560 C2558 1.415 . S
C2560 C2565 1.425 . S
C2560 C2567 1.409 . S
C2561 H2553 0.930 . S
C2561 C2559 1.419 . S
C2561 C2562 1.362 . S
C2562 H2554 0.930 . S
C2562 C2561 1.362 . S
C2562 C2565 1.409 . S
C2563 H2555 0.930 . S
C2563 C2564 1.355 . S
C2563 C2565 1.415 . S
C2564 C2563 1.355 . S
C2564 C2566 1.419 . S
C2565 C2560 1.425 . S
C2565 C2562 1.409 . S
C2565 C2563 1.415 . S
C2566 H2556 0.930 . S
C2566 C2564 1.419 . S
C2566 C2567 1.362 . S
C2567 H2557 0.930 . S
C2567 C2560 1.409 . S
C2567 C2566 1.362 . S
H2568 C2574 0.930 . S
H2569 C2577 0.930 . S
H2570 C2578 0.930 . S
H2571 C2579 0.930 . S
H2572 C2582 0.930 . S
H2573 C2583 0.930 . S
C2574 H2568 0.930 . S
C2574 C2575 1.355 . S
C2574 C2576 1.415 . S
C2575 C2574 1.355 . S
C2575 C2577 1.419 . S
C2576 C2574 1.415 . S
C2576 C2581 1.425 . S
C2576 C2583 1.409 . S
C2577 H2569 0.930 . S
C2577 C2575 1.419 . S
C2577 C2578 1.362 . S
C2578 H2570 0.930 . S
C2578 C2577 1.362 . S
C2578 C2581 1.409 . S
C2579 H2571 0.930 . S
C2579 C2580 1.355 . S
C2579 C2581 1.415 . S
C2580 C2579 1.355 . S
C2580 C2582 1.419 . S
C2581 C2576 1.425 . S
C2581 C2578 1.409 . S
C2581 C2579 1.415 . S
C2582 H2572 0.930 . S
C2582 C2580 1.419 . S
C2582 C2583 1.362 . S
C2583 H2573 0.930 . S
C2583 C2576 1.409 . S
C2583 C2582 1.362 . S
H2584 C2590 0.930 . S
H2585 C2593 0.930 . S
H2586 C2594 0.930 . S
H2587 C2595 0.930 . S
H2588 C2598 0.930 . S
H2589 C2599 0.930 . S
C2590 H2584 0.930 . S
C2590 C2591 1.355 . S
C2590 C2592 1.415 . S
C2591 C2590 1.355 . S
C2591 C2593 1.419 . S
C2592 C2590 1.415 . S
C2592 C2597 1.425 . S
C2592 C2599 1.409 . S
C2593 H2585 0.930 . S
C2593 C2591 1.419 . S
C2593 C2594 1.362 . S
C2594 H2586 0.930 . S
C2594 C2593 1.362 . S
C2594 C2597 1.409 . S
C2595 H2587 0.930 . S
C2595 C2596 1.355 . S
C2595 C2597 1.415 . S
C2596 C2595 1.355 . S
C2596 C2598 1.419 . S
C2597 C2592 1.425 . S
C2597 C2594 1.409 . S
C2597 C2595 1.415 . S
C2598 H2588 0.930 . S
C2598 C2596 1.419 . S
C2598 C2599 1.362 . S
C2599 H2589 0.930 . S
C2599 C2592 1.409 . S
C2599 C2598 1.362 . S
H2600 C2606 0.930 . S
H2601 C2609 0.930 . S
H2602 C2610 0.930 . S
H2603 C2611 0.930 . S
H2604 C2614 0.930 . S
H2605 C2615 0.930 . S
C2606 H2600 0.930 . S
C2606 C2607 1.355 . S
C2606 C2608 1.415 . S
C2607 C2606 1.355 . S
C2607 C2609 1.419 . S
C2608 C2606 1.415 . S
C2608 C2613 1.425 . S
C2608 C2615 1.409 . S
C2609 H2601 0.930 . S
C2609 C2607 1.419 . S
C2609 C2610 1.362 . S
C2610 H2602 0.930 . S
C2610 C2609 1.362 . S
C2610 C2613 1.409 . S
C2611 H2603 0.930 . S
C2611 C2612 1.355 . S
C2611 C2613 1.415 . S
C2612 C2611 1.355 . S
C2612 C2614 1.419 . S
C2613 C2608 1.425 . S
C2613 C2610 1.409 . S
C2613 C2611 1.415 . S
C2614 H2604 0.930 . S
C2614 C2612 1.419 . S
C2614 C2615 1.362 . S
C2615 H2605 0.930 . S
C2615 C2608 1.409 . S
C2615 C2614 1.362 . S
H2616 C2622 0.930 . S
H2617 C2625 0.930 . S
H2618 C2626 0.930 . S
H2619 C2627 0.930 . S
H2620 C2630 0.930 . S
H2621 C2631 0.930 . S
C2622 H2616 0.930 . S
C2622 C2623 1.355 . S
C2622 C2624 1.415 . S
C2623 C2622 1.355 . S
C2623 C2625 1.419 . S
C2624 C2622 1.415 . S
C2624 C2629 1.425 . S
C2624 C2631 1.409 . S
C2625 H2617 0.930 . S
C2625 C2623 1.419 . S
C2625 C2626 1.362 . S
C2626 H2618 0.930 . S
C2626 C2625 1.362 . S
C2626 C2629 1.409 . S
C2627 H2619 0.930 . S
C2627 C2628 1.355 . S
C2627 C2629 1.415 . S
C2628 C2627 1.355 . S
C2628 C2630 1.419 . S
C2629 C2624 1.425 . S
C2629 C2626 1.409 . S
C2629 C2627 1.415 . S
C2630 H2620 0.930 . S
C2630 C2628 1.419 . S
C2630 C2631 1.362 . S
C2631 H2621 0.930 . S
C2631 C2624 1.409 . S
C2631 C2630 1.362 . S
H2632 C2638 0.930 . S
H2633 C2641 0.930 . S
H2634 C2642 0.930 . S
H2635 C2643 0.930 . S
H2636 C2646 0.930 . S
H2637 C2647 0.930 . S
C2638 H2632 0.930 . S
C2638 C2639 1.355 . S
C2638 C2640 1.415 . S
C2639 C2638 1.355 . S
C2639 C2641 1.419 . S
C2640 C2638 1.415 . S
C2640 C2645 1.425 . S
C2640 C2647 1.409 . S
C2641 H2633 0.930 . S
C2641 C2639 1.419 . S
C2641 C2642 1.362 . S
C2642 H2634 0.930 . S
C2642 C2641 1.362 . S
C2642 C2645 1.409 . S
C2643 H2635 0.930 . S
C2643 C2644 1.355 . S
C2643 C2645 1.415 . S
C2644 C2643 1.355 . S
C2644 C2646 1.419 . S
C2645 C2640 1.425 . S
C2645 C2642 1.409 . S
C2645 C2643 1.415 . S
C2646 H2636 0.930 . S
C2646 C2644 1.419 . S
C2646 C2647 1.362 . S
C2647 H2637 0.930 . S
C2647 C2640 1.409 . S
C2647 C2646 1.362 . S
H2648 C2654 0.930 . S
H2649 C2657 0.930 . S
H2650 C2658 0.930 . S
H2651 C2659 0.930 . S
H2652 C2662 0.930 . S
H2653 C2663 0.930 . S
C2654 H2648 0.930 . S
C2654 C2655 1.355 . S
C2654 C2656 1.415 . S
C2655 C2654 1.355 . S
C2655 C2657 1.419 . S
C2656 C2654 1.415 . S
C2656 C2661 1.425 . S
C2656 C2663 1.409 . S
C2657 H2649 0.930 . S
C2657 C2655 1.419 . S
C2657 C2658 1.362 . S
C2658 H2650 0.930 . S
C2658 C2657 1.362 . S
C2658 C2661 1.409 . S
C2659 H2651 0.930 . S
C2659 C2660 1.355 . S
C2659 C2661 1.415 . S
C2660 C2659 1.355 . S
C2660 C2662 1.419 . S
C2661 C2656 1.425 . S
C2661 C2658 1.409 . S
C2661 C2659 1.415 . S
C2662 H2652 0.930 . S
C2662 C2660 1.419 . S
C2662 C2663 1.362 . S
C2663 H2653 0.930 . S
C2663 C2656 1.409 . S
C2663 C2662 1.362 . S
C1231 C135 1.494 . S
C1236 C33 1.468 . S
C1247 C67 1.469 . S
C1252 C169 1.491 . S
C1263 C203 1.475 . S
C1268 C101 1.485 . S
C1279 C339 1.470 . S
C1284 C237 1.492 . S
C1295 C271 1.472 . S
C1300 C373 1.491 . S
C1311 C407 1.477 . S
C1316 C305 1.486 . S
C1327 C543 1.467 . S
C1332 C441 1.495 . S
C1343 C475 1.479 . S
C1348 C577 1.481 . S
C1359 C611 1.486 . S
C1364 C509 1.474 . S
C1375 C645 1.489 . S
C1380 C747 1.471 1_554 S
C1391 C679 1.469 . S
C1396 C781 1.493 1_554 S
C1407 C815 1.471 1_554 S
C1412 C713 1.490 . S
C1423 C951 1.493 1_556 S
C1428 C849 1.469 . S
C1439 C985 1.467 1_556 S
C1444 C883 1.494 . S
C1455 C1019 1.494 1_556 S
C1460 C917 1.467 . S
C1471 C1155 1.489 . S
C1476 C1053 1.474 . S
C1487 C1087 1.492 . S
C1492 C1189 1.470 . S
C1503 C1223 1.483 . S
C1508 C1121 1.477 . S
C1519 C2 2.293 . S
C1524 C988 2.292 . S
C1535 C920 2.294 . S
C1540 C36 2.294 1_565 S
C1551 C70 2.289 1_455 S
C1556 C954 2.287 . S
C1567 C444 2.294 . S
C1572 C104 2.293 . S
C1583 C138 2.286 1_545 S
C1588 C478 2.287 . S
C1599 C410 2.291 . S
C1604 C172 2.293 1_655 S
C1615 C784 2.287 . S
C1620 C206 2.286 . S
C1631 C716 2.292 . S
C1636 C240 2.290 1_545 S
C1647 C750 2.294 . S
C1652 C274 2.294 1_655 S
C1663 C308 2.289 . S
C1668 C1056 2.291 . S
C1679 C1090 2.290 . S
C1684 C342 2.287 1_565 S
C1695 C376 2.289 1_455 S
C1700 C1022 2.287 . S
C1711 C852 2.291 . S
C1716 C512 2.288 . S
C1727 C886 2.293 . S
C1732 C546 2.291 . S
C1743 C818 2.289 . S
C1748 C580 2.287 . S
C1759 C614 2.286 . S
C1764 C1192 2.287 . S
C1775 C648 2.291 . S
C1780 C1124 2.293 . S
C1791 C1158 2.286 . S
C1796 C682 2.287 . S
C1807 C5 1.452 . S
C1812 C617 1.452 . S
C1823 C651 1.500 . S
C1828 C39 1.500 . S
C1839 C73 1.484 . S
C1844 C685 1.484 . S
C1855 C1127 1.452 . S
C1860 C107 1.452 . S
C1871 C141 1.506 . S
C1876 C1161 1.506 . S
C1887 C1195 1.458 . S
C1892 C175 1.458 . S
C1903 C209 1.459 . S
C1908 C821 1.459 . S
C1919 C243 1.453 . S
C1924 C855 1.453 . S
C1935 C277 1.502 . S
C1940 C889 1.502 . S
C1951 C515 1.452 . S
C1956 C311 1.452 . S
C1967 C549 1.498 . S
C1972 C345 1.498 . S
C1983 C379 1.490 . S
C1988 C583 1.490 . S
C1999 C413 1.482 . S
C2004 C1025 1.482 . S
C2015 C1059 1.457 . S
C2020 C447 1.457 . S
C2031 C481 1.504 . S
C2036 C1093 1.504 . S
C2047 C923 1.482 . S
C2052 C719 1.482 . S
C2063 C753 1.505 . S
C2068 C957 1.505 . S
C2079 C991 1.496 . S
C2084 C787 1.496 . S
C2095 C247 1.121 . S
C2100 C20 1.106 . S
C2111 C54 1.173 . S
C2116 C281 1.136 . S
C2127 C88 1.107 . S
C2132 C213 1.129 . S
C2143 C122 1.168 . S
C2148 C383 1.158 . S
C2159 C156 1.106 . S
C2164 C315 1.108 . S
C2175 C190 1.131 . S
C2180 C349 1.082 . S
C2191 C43 1.120 . S
C2196 C224 1.171 . S
C2207 C77 1.164 . S
C2212 C258 1.163 . S
C2223 C9 1.147 . S
C2228 C292 1.114 . S
C2239 C326 1.126 . S
C2244 C179 1.160 . S
C2255 C360 1.173 . S
C2260 C111 1.137 . S
C2271 C394 1.161 . S
C2276 C145 1.165 . S
C2287 C428 1.120 . S
C2292 C655 1.085 . S
C2303 C689 1.145 . S
C2308 C462 1.113 . S
C2319 C621 1.165 . S
C2324 C496 1.132 . S
C2335 C530 1.108 . S
C2340 C791 1.134 . S
C2351 C723 1.126 . S
C2356 C564 1.173 . S
C2367 C757 1.084 . S
C2372 C598 1.123 . S
C2383 C632 1.160 . S
C2388 C451 1.166 . S
C2399 C666 1.173 . S
C2404 C485 1.145 . S
C2415 C417 1.146 . S
C2420 C700 1.173 . S
C2431 C587 1.139 . S
C2436 C734 1.110 . S
C2447 C519 1.083 . S
C2452 C768 1.142 . S
C2463 C553 1.125 . S
C2468 C802 1.172 . S
C2479 C836 1.106 . S
C2484 C1063 1.122 . S
C2495 C1097 1.167 . S
C2500 C870 1.137 . S
C2511 C1029 1.160 . S
C2516 C904 1.125 . S
C2527 C938 1.110 . S
C2532 C1199 1.139 . S
C2543 C972 1.151 . S
C2548 C1131 1.089 . S
C2559 C1006 1.132 . S
C2564 C1165 1.165 . S
C2575 C859 1.136 . S
C2580 C1040 1.109 . S
C2591 C893 1.169 . S
C2596 C1074 1.141 . S
C2607 C1108 1.151 . S
C2612 C825 1.088 . S
C2623 C1142 1.129 . S
C2628 C995 1.163 . S
C2639 C1176 1.158 . S
C2644 C927 1.095 . S
C2655 C1210 1.110 . S
C2660 C961 1.137 . S
