# Generated by pormake.
# Topology smu, (6)-cn, num edge types: 1
# Building blocks:
#     Node 0, Type 0, BuildingBlock: OJICUG_clean_sbu_0, # of connection points: 6
#     Node 1, Type 0, BuildingBlock: OJICUG_clean_sbu_0, # of connection points: 6
#     Node 2, Type 0, BuildingBlock: OJICUG_clean_sbu_0, # of connection points: 6
#     Node 3, Type 0, BuildingBlock: OJICUG_clean_sbu_0, # of connection points: 6
#     Node 4, Type 0, BuildingBlock: OJICUG_clean_sbu_0, # of connection points: 6
#     Node 5, Type 0, BuildingBlock: OJICUG_clean_sbu_0, # of connection points: 6
#     Edge 6, Type (0, 0), BuildingBlock: ZUJKAS_clean_linker_0, # of connection points: 2
#     Edge 7, Type (0, 0), BuildingBlock: ZUJKAS_clean_linker_0, # of connection points: 2
#     Edge 8, Type (0, 0), BuildingBlock: ZUJKAS_clean_linker_0, # of connection points: 2
#     Edge 9, Type (0, 0), BuildingBlock: ZUJKAS_clean_linker_0, # of connection points: 2
#     Edge 10, Type (0, 0), BuildingBlock: ZUJKAS_clean_linker_0, # of connection points: 2
#     Edge 11, Type (0, 0), BuildingBlock: ZUJKAS_clean_linker_0, # of connection points: 2
#     Edge 12, Type (0, 0), BuildingBlock: ZUJKAS_clean_linker_0, # of connection points: 2
#     Edge 13, Type (0, 0), BuildingBlock: ZUJKAS_clean_linker_0, # of connection points: 2
#     Edge 14, Type (0, 0), BuildingBlock: ZUJKAS_clean_linker_0, # of connection points: 2
#     Edge 15, Type (0, 0), BuildingBlock: ZUJKAS_clean_linker_0, # of connection points: 2
#     Edge 16, Type (0, 0), BuildingBlock: ZUJKAS_clean_linker_0, # of connection points: 2
#     Edge 17, Type (0, 0), BuildingBlock: ZUJKAS_clean_linker_0, # of connection points: 2
#     Edge 18, Type (0, 0), BuildingBlock: ZUJKAS_clean_linker_0, # of connection points: 2
#     Edge 19, Type (0, 0), BuildingBlock: ZUJKAS_clean_linker_0, # of connection points: 2
#     Edge 20, Type (0, 0), BuildingBlock: ZUJKAS_clean_linker_0, # of connection points: 2
#     Edge 21, Type (0, 0), BuildingBlock: ZUJKAS_clean_linker_0, # of connection points: 2
#     Edge 22, Type (0, 0), BuildingBlock: ZUJKAS_clean_linker_0, # of connection points: 2
#     Edge 23, Type (0, 0), BuildingBlock: ZUJKAS_clean_linker_0, # of connection points: 2
# Relax obj value: 0.250
# Max RMSD: 0.294
# Mean RMSD: 0.265
data_MOF--net-smu--node1-OJICUG_clean_sbu_0--edge1-ZUJKAS_clean_linker_0
_symmetry_space_group_name_H-M    P1
_symmetry_Int_Tables_number       1
_symmetry_cell_setting            triclinic
loop_
_symmetry_equiv_pos_as_xyz
'x, y, z'
_cell_length_a     38.275642
_cell_length_b     38.291269
_cell_length_c     39.417156
_cell_angle_alpha  95.658776
_cell_angle_beta   95.655499
_cell_angle_gamma 120.05222
loop_
_atom_site_label
_atom_site_type_symbol
_atom_site_fract_x
_atom_site_fract_y
_atom_site_fract_z
_atom_type_partial_charge
Sc0 Sc 0.30352 0.05486 0.19957 0.0
Sc1 Sc 0.32694 0.99222 0.24479 0.0
Sc2 Sc 0.352 0.09032 0.28614 0.0
O3 O 0.32725 0.04563 0.24365 0.0
C4 C 0.37968 0.14412 0.22618 0.0
C5 C 0.34715 0.01004 0.16948 0.0
C6 C 0.41719 0.06189 0.28113 0.0
C7 C 0.23842 0.96147 0.2033 0.0
C8 C 0.272 0.09112 0.25772 0.0
C9 C 0.3133 0.01061 0.3217 0.0
O10 O 0.35405 0.11577 0.20181 0.0
O11 O 0.34477 0.9906 0.19429 0.0
O12 O 0.40758 0.08827 0.29086 0.0
O13 O 0.24987 0.99496 0.19215 0.0
O14 O 0.2982 0.09609 0.28325 0.0
O15 O 0.31088 0.98625 0.29596 0.0
O16 O 0.27148 0.07749 0.22684 0.0
O17 O 0.26243 0.9555 0.22334 0.0
O18 O 0.32706 0.04831 0.32126 0.0
O19 O 0.33415 0.0345 0.16827 0.0
O20 O 0.38125 0.13938 0.25757 0.0
O21 O 0.3911 0.02564 0.26565 0.0
Sc22 Sc 0.73068 0.63151 0.20155 0.0
Sc23 Sc 0.67121 0.65286 0.25202 0.0
Sc24 Sc 0.775 0.69097 0.28323 0.0
O25 O 0.72555 0.65849 0.24562 0.0
C26 C 0.78411 0.6151 0.25483 0.0
C27 C 0.64199 0.56435 0.21448 0.0
C28 C 0.70609 0.6452 0.3267 0.0
C29 C 0.6752 0.66369 0.17253 0.0
C30 C 0.81671 0.71629 0.2187 0.0
C31 C 0.73239 0.74486 0.28582 0.0
O32 O 0.75564 0.60125 0.22884 0.0
O33 O 0.63965 0.58736 0.23856 0.0
O34 O 0.74177 0.65658 0.32032 0.0
O35 O 0.70643 0.66028 0.17158 0.0
O36 O 0.81197 0.72734 0.24852 0.0
O37 O 0.69907 0.71811 0.26609 0.0
O38 O 0.79159 0.68138 0.20041 0.0
O39 O 0.65647 0.65775 0.19835 0.0
O40 O 0.76027 0.73764 0.29641 0.0
O41 O 0.6709 0.57748 0.19694 0.0
O42 O 0.79663 0.64884 0.27474 0.0
O43 O 0.67895 0.64648 0.3062 0.0
Sc44 Sc 0.89271 0.19834 0.20929 0.0
Sc45 Sc 0.97575 0.29831 0.24344 0.0
Sc46 Sc 0.89199 0.25116 0.28655 0.0
O47 O 0.92002 0.24929 0.24624 0.0
C48 C 0.81883 0.2106 0.22177 0.0
C49 C 0.93721 0.26625 0.16302 0.0
C50 C 0.92845 0.34119 0.26649 0.0
C51 C 0.98585 0.22094 0.22896 0.0
C52 C 0.86508 0.15744 0.27584 0.0
C53 C 0.98272 0.29917 0.32516 0.0
O54 O 0.83515 0.19677 0.20199 0.0
O55 O 0.96403 0.29291 0.18786 0.0
O56 O 0.90718 0.31289 0.28304 0.0
O57 O 0.94817 0.19597 0.21609 0.0
O58 O 0.873 0.18974 0.29543 0.0
O59 O -0.00287 0.31367 0.29879 0.0
O60 O 0.87057 0.15661 0.24472 0.0
O61 O 0.00081 0.25902 0.23964 0.0
O62 O 0.94551 0.27211 0.32397 0.0
O63 O 0.90925 0.23149 0.16737 0.0
O64 O 0.83575 0.23005 0.25239 0.0
O65 O 0.95318 0.33956 0.24796 0.0
Sc66 Sc 0.06774 0.31258 0.7069 0.0
Sc67 Sc 0.0017 0.33792 0.74363 0.0
Sc68 Sc 0.10109 0.37305 0.78917 0.0
O69 O 0.05677 0.34105 0.74679 0.0
C70 C 0.10407 0.29111 0.77184 0.0
C71 C 0.97361 0.2481 0.70876 0.0
C72 C 0.02045 0.33309 0.82333 0.0
C73 C 0.0244 0.35256 0.66843 0.0
C74 C 0.1563 0.3929 0.73077 0.0
C75 C 0.06572 0.4315 0.7753 0.0
O76 O 0.08614 0.28231 0.74066 0.0
O77 O 0.96748 0.27246 0.72796 0.0
O78 O 0.05858 0.3482 0.82394 0.0
O79 O 0.05108 0.34223 0.67151 0.0
O80 O 0.14951 0.4023 0.76012 0.0
O81 O 0.03111 0.40279 0.7589 0.0
O82 O 0.13014 0.36086 0.70961 0.0
O83 O 0.00102 0.34877 0.69043 0.0
O84 O 0.09356 0.42542 0.78857 0.0
O85 O 0.00702 0.25943 0.69757 0.0
O86 O 0.11326 0.32358 0.79236 0.0
O87 O -0.00401 0.32801 0.79644 0.0
Sc88 Sc 0.20925 0.92164 0.71905 0.0
Sc89 Sc 0.31345 0.9919 0.75104 0.0
Sc90 Sc 0.25735 0.91108 0.79365 0.0
O91 O 0.2599 0.94126 0.7543 0.0
C92 C 0.16927 0.9026 0.7861 0.0
C93 C 0.24894 0.01905 0.73789 0.0
C94 C 0.31587 -0.00114 0.833 0.0
C95 C 0.27559 0.95291 0.67089 0.0
C96 C 0.20602 0.83863 0.73103 0.0
C97 C 0.34437 0.93499 0.77152 0.0
O98 O 0.17162 0.91501 0.75731 0.0
O99 O 0.28394 0.02687 0.75228 0.0
O100 O 0.2821 0.96564 0.83082 0.0
O101 O 0.24111 0.92581 0.6767 0.0
O102 O 0.23233 0.855 0.75868 0.0
O103 O 0.34454 0.95847 0.75074 0.0
O104 O 0.19203 0.8576 0.71494 0.0
O105 O 0.30307 0.9812 0.69466 0.0
O106 O 0.31752 0.92005 0.79101 0.0
O107 O 0.22123 0.9837 0.72133 0.0
O108 O 0.19664 0.89721 0.80134 0.0
O109 O 0.33327 0.01009 0.80692 0.0
Sc110 Sc 0.64194 0.7403 0.70624 0.0
Sc111 Sc 0.66443 0.67867 0.75351 0.0
Sc112 Sc 0.69583 0.77956 0.79106 0.0
O113 O 0.66749 0.73283 0.75025 0.0
C114 C 0.72444 0.82796 0.7292 0.0
C115 C 0.67983 0.68993 0.6757 0.0
C116 C 0.75461 0.7424 0.79242 0.0
C117 C 0.57576 0.64855 0.71348 0.0
C118 C 0.61859 0.78608 0.76224 0.0
C119 C 0.64969 0.70384 0.82875 0.0
O120 O 0.69261 0.8016 0.70767 0.0
O121 O 0.67643 0.67107 0.70121 0.0
O122 O 0.74559 0.76897 0.80277 0.0
O123 O 0.5878 0.68031 0.69948 0.0
O124 O 0.64977 0.79638 0.78471 0.0
O125 O 0.65106 0.67871 0.80594 0.0
O126 O 0.60998 0.76334 0.73332 0.0
O127 O 0.59941 0.64416 0.73534 0.0
O128 O 0.6625 0.74084 0.82578 0.0
O129 O 0.67133 0.71793 0.6751 0.0
O130 O 0.73159 0.82297 0.75995 0.0
O131 O 0.72944 0.70896 0.7721 0.0
H132 H 0.28438 0.00985 0.88897 0.0
H133 H 0.31734 0.02719 0.94938 0.0
H134 H 0.43033 0.05004 0.91711 0.0
H135 H 0.39752 0.03331 0.8563 0.0
H136 H 0.39509 0.98673 0.95948 0.0
H137 H 0.4079 0.13104 0.01774 0.0
H138 H 0.35953 0.09681 0.99006 0.0
H139 H 0.40586 0.11798 0.97192 0.0
C140 C 0.31669 0.02017 0.89477 0.0
C141 C 0.33847 0.02039 0.86809 0.0
C142 C 0.33551 0.0301 0.92926 0.0
C143 C 0.37627 0.04 0.93763 0.0
C144 C 0.39894 0.0428 0.91108 0.0
H145 H 0.42341 0.06417 0.16055 0.0
H146 H 0.44683 0.0726 0.10467 0.0
C147 C 0.38027 0.03354 0.87644 0.0
C148 C 0.39221 0.04097 0.97361 0.0
H149 H 0.39914 0.08265 0.0561 0.0
C150 C 0.39729 0.00841 0.98074 0.0
C151 C 0.39553 0.06947 0.00119 0.0
C152 C 0.39232 0.10605 0.99489 0.0
C153 C 0.40165 0.00142 0.01477 0.0
C154 C 0.40061 0.02753 0.04207 0.0
C155 C 0.39961 0.06236 0.03514 0.0
C156 C 0.39388 0.01631 0.07674 0.0
C157 C 0.40531 0.96508 0.021 0.0
C158 C 0.35743 0.98079 0.07988 0.0
C159 C 0.34421 0.97586 0.11182 0.0
C160 C 0.36734 0.00637 0.14086 0.0
C161 C 0.40557 0.03993 0.13845 0.0
C162 C 0.41882 0.04486 0.10657 0.0
H163 H 0.42044 0.95773 0.00117 0.0
H164 H 0.42293 0.97063 0.04708 0.0
H165 H 0.37419 0.93793 0.0191 0.0
H166 H 0.3372 0.95885 0.05713 0.0
H167 H 0.31417 0.95035 0.11305 0.0
H168 H 0.71311 0.73599 0.62687 0.0
H169 H 0.71916 0.71274 0.56933 0.0
H170 H 0.67763 0.59216 0.59384 0.0
H171 H 0.67066 0.61523 0.65194 0.0
H172 H 0.76197 0.67817 0.54445 0.0
H173 H 0.59308 0.57152 0.50939 0.0
H174 H 0.61612 0.6096 0.54824 0.0
H175 H 0.61945 0.56434 0.5459 0.0
C176 C 0.70573 0.70462 0.6203 0.0
C177 C 0.69086 0.67727 0.64379 0.0
C178 C 0.70932 0.6914 0.58738 0.0
C179 C 0.6981 0.65055 0.5771 0.0
C180 C 0.68573 0.62365 0.60113 0.0
H181 H 0.7397 0.6108 0.36529 0.0
H182 H 0.73475 0.60144 0.42546 0.0
C183 C 0.68219 0.63697 0.63437 0.0
C184 C 0.69723 0.63662 0.54046 0.0
H185 H 0.63123 0.58335 0.46441 0.0
C186 C 0.73357 0.65679 0.52695 0.0
C187 C 0.65995 0.60908 0.51778 0.0
C188 C 0.61978 0.58746 0.53082 0.0
C189 C 0.73339 0.65212 0.4912 0.0
C190 C 0.69589 0.62549 0.46838 0.0
C191 C 0.65987 0.6036 0.482 0.0
C192 C 0.693 0.62347 0.43038 0.0
C193 C 0.77291 0.67797 0.47822 0.0
C194 C 0.6689 0.63619 0.41249 0.0
C195 C 0.671 0.64077 0.37785 0.0
C196 C 0.6976 0.6331 0.36077 0.0
C197 C 0.71948 0.61764 0.37804 0.0
C198 C 0.71682 0.61242 0.41244 0.0
H199 H 0.79668 0.70319 0.49873 0.0
H200 H 0.78514 0.65847 0.46933 0.0
H201 H 0.76773 0.69159 0.45606 0.0
H202 H 0.65009 0.64465 0.42583 0.0
H203 H 0.65376 0.65267 0.36518 0.0
H204 H -0.00224 0.33201 0.14004 0.0
H205 H 0.00296 0.34238 0.08005 0.0
H206 H 0.88638 0.23081 0.0451 0.0
H207 H 0.88102 0.21985 0.10468 0.0
H208 H 0.9472 0.23384 0.01176 0.0
H209 H 0.94346 0.3767 0.01112 0.0
H210 H 0.9808 0.38076 0.04516 0.0
H211 H 0.9272 0.34627 0.04493 0.0
C212 C 0.97294 0.30998 0.11966 0.0
C213 C 0.93911 0.27497 0.12722 0.0
C214 C 0.97585 0.31609 0.0854 0.0
C215 C 0.94482 0.28756 0.0582 0.0
C216 C 0.91057 0.25325 0.06574 0.0
H217 H 0.94616 0.31707 0.83967 0.0
H218 H 0.92275 0.30287 0.89525 0.0
C219 C 0.90766 0.24704 0.09987 0.0
C220 C 0.9497 0.29148 0.02174 0.0
H221 H 0.96637 0.35569 0.96301 0.0
C222 C 0.9509 0.26026 0.00098 0.0
C223 C 0.95401 0.32571 0.00764 0.0
C224 C 0.95092 0.3591 0.02824 0.0
C225 C 0.95797 0.26315 0.96689 0.0
C226 C 0.96444 0.29836 0.9534 0.0
C227 C 0.96158 0.32882 0.97359 0.0
C228 C 0.97743 0.30548 0.91944 0.0
C229 C 0.95908 0.22879 0.94569 0.0
C230 C 0.01583 0.31167 0.91489 0.0
C231 C 0.0293 0.31986 0.88346 0.0
C232 C 0.00461 0.32208 0.85585 0.0
C233 C 0.96581 0.31535 0.86034 0.0
C234 C 0.95245 0.30741 0.89205 0.0
H235 H 0.94306 0.19981 0.95613 0.0
H236 H 0.94479 0.22334 0.9183 0.0
H237 H 0.99144 0.23722 0.94624 0.0
H238 H 0.03571 0.31077 0.93591 0.0
H239 H 0.0593 0.32478 0.88095 0.0
H240 H 0.30569 0.94101 0.34248 0.0
H241 H 0.29624 0.92193 0.40001 0.0
H242 H 0.28868 0.02832 0.43307 0.0
H243 H 0.29783 0.04747 0.37605 0.0
H244 H 0.34936 0.97283 0.4639 0.0
H245 H 0.18883 0.93361 0.46339 0.0
H246 H 0.21001 0.93533 0.42418 0.0
H247 H 0.22051 0.98188 0.45022 0.0
C248 C 0.30123 0.95989 0.36181 0.0
C249 C 0.30253 0.99577 0.35466 0.0
C250 C 0.29608 0.94907 0.39468 0.0
C251 C 0.29151 0.9736 0.42065 0.0
C252 C 0.29162 0.00869 0.41325 0.0
H253 H 0.33645 0.01336 0.64327 0.0
H254 H 0.34199 0.01465 0.58198 0.0
C255 C 0.29703 0.01966 0.38064 0.0
C256 C 0.28886 0.96419 0.45618 0.0
H257 H 0.22909 0.94673 0.51856 0.0
C258 C 0.32289 0.96656 0.4758 0.0
C259 C 0.2542 0.95578 0.47149 0.0
C260 C 0.21613 0.95109 0.45117 0.0
C261 C 0.32372 0.96225 0.51082 0.0
C262 C 0.28984 0.9559 0.52658 0.0
C263 C 0.25524 0.952 0.50654 0.0
C264 C 0.28948 0.95367 0.56391 0.0
C265 C 0.36083 0.96457 0.53061 0.0
C266 C 0.2582 0.91903 0.5741 0.0
C267 C 0.25475 0.91833 0.60897 0.0
C268 C 0.28246 0.95239 0.63449 0.0
C269 C 0.31472 0.98656 0.62435 0.0
C270 C 0.31804 0.98727 0.58932 0.0
H271 H 0.37851 0.95798 0.51296 0.0
H272 H 0.3813 0.99595 0.54555 0.0
H273 H 0.35191 0.9427 0.54911 0.0
H274 H 0.23582 0.8928 0.55494 0.0
H275 H 0.22968 0.89135 0.61579 0.0
H276 H 0.61459 0.62656 0.8458 0.0
H277 H 0.59564 0.60751 0.90167 0.0
H278 H 0.63328 0.73267 0.94083 0.0
H279 H 0.65076 0.75153 0.88542 0.0
H280 H 0.64646 0.63319 0.95911 0.0
H281 H 0.53299 0.67661 0.98239 0.0
H282 H 0.54595 0.67207 0.93999 0.0
H283 H 0.5761 0.71923 0.97063 0.0
C284 C 0.61801 0.6498 0.86612 0.0
C285 C 0.63446 0.69062 0.8611 0.0
C286 C 0.60701 0.63884 0.898 0.0
C287 C 0.61223 0.66847 0.92535 0.0
C288 C 0.62753 0.70888 0.91993 0.0
H289 H 0.71783 0.71476 0.12999 0.0
H290 H 0.69327 0.71189 0.06965 0.0
C291 C 0.63813 0.71975 0.88817 0.0
C292 C 0.60798 0.65926 0.96094 0.0
H293 H 0.57861 0.68307 0.03468 0.0
C294 C 0.63058 0.64302 0.9753 0.0
C295 C 0.58678 0.67139 0.9822 0.0
C296 C 0.55873 0.68533 0.96778 0.0
C297 C 0.63557 0.64203 0.01078 0.0
C298 C 0.61833 0.6586 0.03258 0.0
C299 C 0.59268 0.6714 0.01797 0.0
C300 C 0.63029 0.6662 0.07058 0.0
C301 C 0.66086 0.6249 0.0249 0.0
C302 C 0.60232 0.64357 0.0916 0.0
C303 C 0.61626 0.64572 0.12645 0.0
C304 C 0.65825 0.67028 0.14027 0.0
C305 C 0.68535 0.69547 0.11986 0.0
C306 C 0.67142 0.69368 0.08539 0.0
H307 H 0.66137 0.60287 0.00466 0.0
H308 H 0.69291 0.65034 0.03418 0.0
H309 H 0.64889 0.60923 0.04698 0.0
H310 H 0.5704 0.62239 0.08057 0.0
H311 H 0.59487 0.62574 0.14164 0.0
H312 H 0.0349 0.38058 0.34829 0.0
H313 H 0.05895 0.41401 0.40922 0.0
H314 H 0.00858 0.29573 0.44067 0.0
H315 H 0.98375 0.26227 0.38012 0.0
H316 H -0.00574 0.38996 0.45441 0.0
H317 H 0.12426 0.37268 0.50479 0.0
H318 H 0.11166 0.37422 0.45971 0.0
H319 H 0.08283 0.32793 0.47672 0.0
C320 C 0.0305 0.36189 0.36822 0.0
C321 C 0.0076 0.31892 0.35972 0.0
C322 C 0.04394 0.38098 0.4029 0.0
C323 C 0.03551 0.35723 0.4292 0.0
C324 C 0.01569 0.31449 0.4206 0.0
H325 H 0.95998 0.32353 0.61582 0.0
H326 H 0.96573 0.34034 0.55744 0.0
C327 C 0.00159 0.29543 0.3861 0.0
C328 C 0.04156 0.3757 0.46546 0.0
H329 H 0.08442 0.37832 0.5461 0.0
C330 C 0.01479 0.38866 0.47459 0.0
C331 C 0.06851 0.37416 0.49148 0.0
C332 C 0.09875 0.36184 0.48277 0.0
C333 C 0.01193 0.39683 0.50937 0.0
C334 C 0.03629 0.39162 0.5353 0.0
C335 C 0.06552 0.3821 0.52617 0.0
C336 C 0.0288 0.39041 0.57135 0.0
C337 C 0.98173 0.40925 0.51794 0.0
C338 C 0.06171 0.41401 0.59867 0.0
C339 C 0.0585 0.40409 0.63172 0.0
C340 C 0.02226 0.3707 0.63791 0.0
C341 C 0.98792 0.34979 0.61157 0.0
C342 C 0.99125 0.35949 0.5783 0.0
H343 H 0.9763 0.42529 0.49791 0.0
H344 H 0.95199 0.38141 0.51872 0.0
H345 H 0.99257 0.42952 0.54354 0.0
H346 H 0.09093 0.43783 0.59381 0.0
H347 H 0.0854 0.42039 0.65182 0.0
H348 H 0.48322 0.13995 0.30101 0.0
H349 H 0.5517 0.16517 0.28694 0.0
H350 H 0.51885 0.04172 0.24723 0.0
H351 H 0.45037 0.01593 0.26118 0.0
H352 H 0.61361 0.14182 0.30368 0.0
H353 H 0.54829 0.10668 0.16357 0.0
H354 H 0.52087 0.11028 0.19722 0.0
H355 H 0.52481 0.0657 0.18782 0.0
C356 C 0.49078 0.11796 0.29016 0.0
C357 C 0.461 0.07594 0.28172 0.0
C358 C 0.52984 0.1325 0.28194 0.0
C359 C 0.53961 0.1053 0.26521 0.0
C360 C 0.51133 0.06314 0.25946 0.0
H361 H 0.75499 0.13605 0.19008 0.0
H362 H 0.68309 0.11073 0.19475 0.0
C363 C 0.47233 0.04852 0.26774 0.0
C364 C 0.57865 0.1212 0.25221 0.0
H365 H 0.61948 0.13248 0.17796 0.0
C366 C 0.61501 0.13992 0.27625 0.0
C367 C 0.57998 0.11846 0.21634 0.0
C368 C 0.54149 0.09948 0.18962 0.0
C369 C 0.65298 0.15561 0.26534 0.0
C370 C 0.65446 0.15332 0.22947 0.0
C371 C 0.61805 0.13438 0.20538 0.0
C372 C 0.69395 0.16995 0.21709 0.0
C373 C 0.69121 0.17389 0.29231 0.0
C374 C 0.72282 0.21197 0.2257 0.0
C375 C 0.76371 0.22636 0.22327 0.0
C376 C 0.77597 0.19893 0.2117 0.0
C377 C 0.74614 0.15777 0.19881 0.0
C378 C 0.70518 0.14326 0.20168 0.0
H379 H 0.68407 0.16496 0.31786 0.0
H380 H 0.71246 0.16418 0.28415 0.0
H381 H 0.70731 0.20779 0.29559 0.0
H382 H 0.7144 0.23302 0.23714 0.0
H383 H 0.78627 0.25828 0.23323 0.0
H384 H 0.63557 0.50581 0.16422 0.0
H385 H 0.58801 0.432 0.15566 0.0
H386 H 0.53142 0.44843 0.24032 0.0
H387 H 0.57847 0.52236 0.24893 0.0
H388 H 0.58307 0.38381 0.20445 0.0
H389 H 0.43284 0.36954 0.16542 0.0
H390 H 0.48088 0.41524 0.16396 0.0
H391 H 0.46198 0.40623 0.20417 0.0
C392 C 0.61267 0.49388 0.18077 0.0
C393 C 0.61095 0.52007 0.20738 0.0
C394 C 0.5855 0.45168 0.17576 0.0
C395 C 0.55597 0.43491 0.19708 0.0
C396 C 0.55347 0.46092 0.22311 0.0
H397 H 0.44393 0.20989 0.26981 0.0
H398 H 0.48771 0.27842 0.25751 0.0
C399 C 0.58059 0.50316 0.22814 0.0
C400 C 0.53027 0.39005 0.19427 0.0
H401 H 0.43131 0.31204 0.18654 0.0
C402 C 0.54986 0.36796 0.19999 0.0
C403 C 0.48701 0.36944 0.18796 0.0
C404 C 0.4644 0.39126 0.17967 0.0
C405 C 0.52731 0.32608 0.20142 0.0
C406 C 0.48419 0.30611 0.19749 0.0
C407 C 0.46446 0.32765 0.18988 0.0
C408 C 0.45924 0.26382 0.20381 0.0
C409 C 0.54982 0.30371 0.20773 0.0
C410 C 0.4285 0.23309 0.1777 0.0
C411 C 0.40322 0.19378 0.18465 0.0
C412 C 0.40803 0.18482 0.21797 0.0
C413 C 0.43931 0.2157 0.24389 0.0
C414 C 0.46458 0.25484 0.23687 0.0
H415 H 0.58048 0.31954 0.19991 0.0
H416 H 0.5544 0.30264 0.23576 0.0
H417 H 0.53207 0.27176 0.19338 0.0
H418 H 0.42384 0.23965 0.15209 0.0
H419 H 0.37938 0.17074 0.16412 0.0
H420 H 0.97519 0.41401 0.24416 0.0
H421 H 0.96522 0.47262 0.24773 0.0
H422 H 0.85992 0.40749 0.29672 0.0
H423 H 0.86998 0.34958 0.29403 0.0
H424 H 0.90066 0.47452 0.21774 0.0
H425 H 0.91948 0.51731 0.35891 0.0
H426 H 0.93561 0.48397 0.33995 0.0
H427 H 0.88308 0.46371 0.34551 0.0
C428 C 0.95016 0.41238 0.256 0.0
C429 C 0.92348 0.37717 0.26892 0.0
C430 C 0.94463 0.44592 0.25813 0.0
C431 C 0.91245 0.44475 0.27325 0.0
C432 C 0.88579 0.40962 0.28602 0.0
H433 H 0.75879 0.53666 0.22611 0.0
H434 H 0.79636 0.50105 0.23173 0.0
C435 C 0.8914 0.37632 0.28413 0.0
C436 C 0.90394 0.47834 0.273 0.0
H437 H 0.87676 0.53522 0.32362 0.0
C438 C 0.8963 0.48849 0.24099 0.0
C439 C 0.89912 0.49724 0.30342 0.0
C440 C 0.91024 0.4903 0.3389 0.0
C441 C 0.88094 0.51466 0.23827 0.0
C442 C 0.87207 0.5301 0.26821 0.0
C443 C 0.88272 0.52255 0.30058 0.0
C444 C 0.84915 0.55162 0.26605 0.0
C445 C 0.87355 0.52477 0.20321 0.0
C446 C 0.86554 0.59106 0.28491 0.0
C447 C 0.84381 0.61134 0.2822 0.0
C448 C 0.80537 0.5924 0.26055 0.0
C449 C 0.78852 0.55231 0.24267 0.0
C450 C 0.8101 0.53203 0.24561 0.0
H451 H 0.89424 0.52273 0.18628 0.0
H452 H 0.84156 0.50236 0.19037 0.0
H453 H 0.87815 0.55599 0.20546 0.0
H454 H 0.89544 0.60643 0.30118 0.0
H455 H 0.85764 0.64222 0.29631 0.0
H456 H 0.01334 0.45679 0.7533 0.0
H457 H 0.03162 0.52475 0.7416 0.0
H458 H 0.15822 0.5704 0.78287 0.0
H459 H 0.14041 0.50249 0.79483 0.0
H460 H 0.12743 0.62318 0.80283 0.0
H461 H 0.09438 0.56928 0.66058 0.0
H462 H 0.05396 0.54071 0.68407 0.0
H463 H 0.1008 0.54038 0.69161 0.0
C464 C 0.04504 0.48135 0.76041 0.0
C465 C 0.07552 0.47401 0.77465 0.0
C466 C 0.05539 0.52008 0.75347 0.0
C467 C 0.09633 0.55212 0.76059 0.0
C468 C 0.12646 0.54577 0.77688 0.0
H469 H 0.24606 0.79726 0.73297 0.0
H470 H 0.21519 0.72413 0.73422 0.0
C471 C 0.11618 0.50699 0.78385 0.0
C472 C 0.10805 0.59194 0.75004 0.0
H473 H 0.11586 0.63869 0.67927 0.0
C474 C 0.12469 0.62657 0.77586 0.0
C475 C 0.10436 0.59604 0.71475 0.0
C476 C 0.0877 0.55976 0.68604 0.0
C477 C 0.13811 0.66544 0.76733 0.0
C478 C 0.13523 0.66968 0.73209 0.0
C479 C 0.11782 0.63504 0.7062 0.0
C480 C 0.15285 0.71057 0.72232 0.0
C481 C 0.1559 0.70194 0.79601 0.0
C482 C 0.1278 0.72629 0.71303 0.0
C483 C 0.14541 0.76812 0.71192 0.0
C484 C 0.18811 0.79434 0.72045 0.0
C485 C 0.21304 0.77761 0.7264 0.0
C486 C 0.19551 0.73597 0.72721 0.0
H487 H 0.14911 0.69266 0.82152 0.0
H488 H 0.18967 0.72011 0.79775 0.0
H489 H 0.14373 0.7221 0.79049 0.0
H490 H 0.09475 0.7069 0.70921 0.0
H491 H 0.1256 0.78042 0.70761 0.0
H492 H 0.3433 0.87119 0.79747 0.0
H493 H 0.39635 0.85357 0.8006 0.0
H494 H 0.47226 0.95826 0.75452 0.0
H495 H 0.41859 0.97544 0.75025 0.0
H496 H 0.46974 0.89241 0.72448 0.0
H497 H 0.5027 0.90313 0.86595 0.0
H498 H 0.44914 0.86926 0.8496 0.0
H499 H 0.47291 0.92276 0.84639 0.0
C500 C 0.37141 0.8907 0.78824 0.0
C501 C 0.37682 0.92477 0.77367 0.0
C502 C 0.40188 0.88078 0.79036 0.0
C503 C 0.43867 0.9052 0.77862 0.0
C504 C 0.44421 0.93925 0.76404 0.0
H505 H 0.63829 0.85479 0.80745 0.0
H506 H 0.59733 0.88719 0.8127 0.0
C507 C 0.41349 0.94892 0.7615 0.0
C508 C 0.46992 0.89324 0.77926 0.0
H509 H 0.52298 0.86297 0.83107 0.0
C510 C 0.48184 0.88657 0.7479 0.0
C511 C 0.48635 0.88639 0.80993 0.0
C512 C 0.47745 0.89623 0.8449 0.0
C513 C 0.50818 0.87131 0.74605 0.0
C514 C 0.52185 0.86125 0.77617 0.0
C515 C 0.51171 0.86991 0.80789 0.0
C516 C 0.54559 0.84054 0.77488 0.0
C517 C 0.52096 0.86603 0.71179 0.0
C518 C 0.52936 0.8029 0.75288 0.0
C519 C 0.55269 0.78457 0.7496 0.0
C520 C 0.59243 0.8032 0.76878 0.0
C521 C 0.60776 0.83974 0.79232 0.0
C522 C 0.5845 0.85834 0.79528 0.0
H523 H 0.51919 0.88696 0.695 0.0
H524 H 0.5527 0.8719 0.71543 0.0
H525 H 0.49996 0.83417 0.69798 0.0
H526 H 0.49884 0.78802 0.73776 0.0
H527 H 0.5398 0.75608 0.73164 0.0
H528 H 0.22214 0.46126 0.77066 0.0
H529 H 0.2904 0.50241 0.75686 0.0
H530 H 0.25127 0.42666 0.65623 0.0
H531 H 0.18277 0.38463 0.66995 0.0
H532 H 0.32329 0.43832 0.6901 0.0
H533 H 0.33117 0.58684 0.69334 0.0
H534 H 0.31672 0.56603 0.73192 0.0
H535 H 0.28352 0.53922 0.69091 0.0
C536 C 0.22778 0.45349 0.74542 0.0
C537 C 0.1969 0.41956 0.72143 0.0
C538 C 0.26681 0.47727 0.7375 0.0
C539 C 0.27566 0.46795 0.70533 0.0
C540 C 0.2449 0.43446 0.68112 0.0
H541 H 0.51734 0.64141 0.66262 0.0
H542 H 0.4435 0.59352 0.65393 0.0
C543 C 0.2058 0.41052 0.68904 0.0
C544 C 0.31782 0.49176 0.69809 0.0
H545 H 0.3957 0.58949 0.70028 0.0
C546 C 0.339 0.47131 0.69175 0.0
C547 C 0.33797 0.53464 0.69961 0.0
C548 C 0.31601 0.5579 0.70394 0.0
C549 C 0.38058 0.49297 0.68882 0.0
C550 C 0.40153 0.53619 0.69306 0.0
C551 C 0.37972 0.55636 0.69745 0.0
C552 C 0.44647 0.56145 0.69532 0.0
C553 C 0.40169 0.46938 0.68159 0.0
C554 C 0.47267 0.55894 0.7212 0.0
C555 C 0.51492 0.58609 0.72614 0.0
C556 C 0.53171 0.6167 0.7056 0.0
C557 C 0.50545 0.61833 0.67901 0.0
C558 C 0.46323 0.59098 0.67396 0.0
H559 H 0.37954 0.43781 0.66758 0.0
H560 H 0.42614 0.48496 0.66604 0.0
H561 H 0.41583 0.46687 0.70649 0.0
H562 H 0.46033 0.53707 0.73856 0.0
H563 H 0.53418 0.58412 0.747 0.0
H564 H 0.24601 0.10333 0.31844 0.0
H565 H 0.19175 0.11924 0.32452 0.0
H566 H 0.17543 0.12142 0.21506 0.0
H567 H 0.2281 0.10513 0.20865 0.0
H568 H 0.18486 0.18513 0.309 0.0
H569 H 0.05972 0.04218 0.22827 0.0
H570 H 0.1082 0.04801 0.24553 0.0
H571 H 0.10215 0.06551 0.20575 0.0
C572 C 0.23068 0.10713 0.29576 0.0
C573 C 0.24091 0.1023 0.263 0.0
C574 C 0.19974 0.11611 0.29925 0.0
C575 C 0.17883 0.12027 0.27002 0.0
C576 C 0.19017 0.11692 0.23772 0.0
H577 H 0.06834 0.25862 0.2299 0.0
H578 H 0.11289 0.23196 0.24533 0.0
C579 C 0.22053 0.10776 0.23418 0.0
C580 C 0.14588 0.12944 0.27239 0.0
H581 H 0.05178 0.10151 0.22918 0.0
C582 C 0.15531 0.16646 0.29224 0.0
C583 C 0.10695 0.10452 0.25126 0.0
C584 C 0.09353 0.06262 0.23185 0.0
C585 C 0.12801 0.1808 0.28925 0.0
C586 C 0.09115 0.15814 0.26486 0.0
C587 C 0.08042 0.11952 0.24726 0.0
C588 C 0.06423 0.17451 0.25574 0.0
C589 C 0.13931 0.22028 0.31198 0.0
C590 C 0.02175 0.15023 0.25446 0.0
C591 C -0.00389 0.16475 0.24425 0.0
C592 C 0.01255 0.20409 0.23562 0.0
C593 C 0.05496 0.22824 0.23655 0.0
C594 C 0.08048 0.21329 0.24594 0.0
H595 H 0.15836 0.22472 0.33701 0.0
H596 H 0.15778 0.2464 0.2989 0.0
H597 H 0.11173 0.22099 0.31738 0.0
H598 H 0.0084 0.1201 0.26162 0.0
H599 H 0.96356 0.1457 0.24425 0.0
H600 H 0.87045 0.79814 0.24111 0.0
H601 H 0.94 0.8385 0.22909 0.0
H602 H 0.92141 0.73394 0.15971 0.0
H603 H 0.85155 0.69394 0.17055 0.0
H604 H -0.0029 0.82088 0.24644 0.0
H605 H 0.98133 0.82328 0.10565 0.0
H606 H 0.93875 0.80806 0.1286 0.0
H607 H 0.95435 0.77235 0.11522 0.0
C608 C 0.88083 0.7841 0.22258 0.0
C609 C 0.85559 0.74283 0.2069 0.0
C610 C 0.92057 0.80715 0.21577 0.0
C611 C 0.93584 0.78928 0.19339 0.0
C612 C 0.91004 0.74867 0.17645 0.0
H613 H 0.19921 0.88437 0.22033 0.0
H614 H 0.12513 0.83763 0.21414 0.0
C615 C 0.8701 0.72577 0.18284 0.0
C616 C 0.97996 0.81146 0.19112 0.0
H617 H 0.04789 0.84291 0.13491 0.0
C618 C 0.0082 0.82592 0.22205 0.0
C619 C -0.00567 0.81792 0.15928 0.0
C620 C 0.9656 0.80494 0.12535 0.0
C621 C 0.05046 0.847 0.22215 0.0
C622 C 0.06487 0.8525 0.19026 0.0
C623 C 0.03667 0.83795 0.15925 0.0
C624 C 0.10914 0.8767 0.18897 0.0
C625 C 0.07917 0.86439 0.25652 0.0
C626 C 0.12444 0.91273 0.17489 0.0
C627 C 0.16652 0.93907 0.17784 0.0
C628 C 0.19423 0.93003 0.19518 0.0
C629 C 0.17875 0.89252 0.20725 0.0
C630 C 0.13647 0.8659 0.20391 0.0
H631 H 0.06332 0.86606 0.27823 0.0
H632 H 0.09161 0.84439 0.26164 0.0
H633 H 0.10527 0.8956 0.25635 0.0
H634 H 0.10386 0.92151 0.16306 0.0
H635 H 0.17721 0.96749 0.16794 0.0
H636 H 0.79846 0.08789 0.24241 0.0
H637 H 0.77173 0.0192 0.25599 0.0
H638 H 0.86237 0.06852 0.34907 0.0
H639 H 0.88861 0.13816 0.33589 0.0
H640 H 0.82361 0.98838 0.2591 0.0
H641 H 0.75722 0.97989 0.37969 0.0
H642 H 0.76487 0.01826 0.35319 0.0
H643 H 0.80778 0.02286 0.38058 0.0
C644 C 0.81204 0.08416 0.26621 0.0
C645 C 0.84569 0.11798 0.28803 0.0
C646 C 0.79672 0.045 0.27398 0.0
C647 C 0.81506 0.03879 0.30349 0.0
C648 C 0.8474 0.07278 0.32644 0.0
H649 H 0.79643 0.80838 0.33183 0.0
H650 H 0.81507 0.88009 0.34116 0.0
C651 C 0.86244 0.1124 0.31888 0.0
C652 C 0.80366 -0.00356 0.30696 0.0
H653 H 0.75807 0.9212 0.35529 0.0
C654 C 0.80937 0.97377 0.28019 0.0
C655 C 0.78534 0.97764 0.33462 0.0
C656 C 0.77809 0.00068 0.36363 0.0
C657 C 0.79647 0.93252 0.2799 0.0
C658 C 0.77733 0.91342 0.30706 0.0
C659 C 0.77255 0.93615 0.33443 0.0
C660 C 0.76205 0.86958 0.3066 0.0
C661 C 0.80294 0.90933 0.25034 0.0
C662 C 0.72555 0.84005 0.28466 0.0
C663 C 0.71478 0.79902 0.27909 0.0
C664 C 0.74058 0.78702 0.29523 0.0
C665 C 0.77602 0.81656 0.31871 0.0
C666 C 0.78664 0.85751 0.32433 0.0
H667 H 0.82236 0.92979 0.23333 0.0
H668 H 0.81754 0.89278 0.26045 0.0
H669 H 0.77282 0.88616 0.23445 0.0
H670 H 0.70641 0.84908 0.27062 0.0
H671 H 0.68723 0.77714 0.26096 0.0
H672 H 0.17131 0.31033 0.81913 0.0
H673 H 0.20119 0.26718 0.8264 0.0
H674 H 0.09786 0.16726 0.75577 0.0
H675 H 0.06784 0.20969 0.74869 0.0
H676 H 0.12797 0.14322 0.81281 0.0
H677 H 0.24993 0.24546 0.74275 0.0
H678 H 0.24369 0.26866 0.78184 0.0
H679 H 0.20404 0.24748 0.74448 0.0
C680 C 0.15447 0.27878 0.80602 0.0
C681 C 0.11761 0.26349 0.78294 0.0
C682 C 0.17169 0.25433 0.80997 0.0
C683 C 0.15205 0.21441 0.79103 0.0
C684 C 0.11358 0.19809 0.77042 0.0
H685 H 0.17637 0.01411 0.71496 0.0
H686 H 0.15629 0.06382 0.73147 0.0
C687 C 0.09655 0.22242 0.76633 0.0
C688 C 0.17278 0.19067 0.78923 0.0
H689 H 0.2467 0.1845 0.75185 0.0
C690 C 0.15436 0.15248 0.80002 0.0
C691 C 0.2071 0.20289 0.77238 0.0
C692 C 0.22737 0.24321 0.75944 0.0
C693 C 0.16857 0.12553 0.79343 0.0
C694 C 0.20151 0.13688 0.77498 0.0
C695 C 0.22124 0.17588 0.76574 0.0
C696 C 0.21461 0.10795 0.76358 0.0
C697 C 0.14783 0.08492 0.80582 0.0
C698 C 0.25472 0.11731 0.77473 0.0
C699 C 0.26652 0.08918 0.76504 0.0
C700 C 0.23839 0.05121 0.74387 0.0
C701 C 0.19878 0.04288 0.73142 0.0
C702 C 0.18708 0.07106 0.74113 0.0
H703 H 0.13204 0.08593 0.82776 0.0
H704 H 0.12443 0.06104 0.78437 0.0
H705 H 0.1702 0.07572 0.81409 0.0
H706 H 0.27655 0.14591 0.79171 0.0
H707 H 0.29731 0.09674 0.77506 0.0
H708 H 0.10853 0.91668 0.7638 0.0
H709 H 0.04185 0.88919 0.78101 0.0
H710 H 0.07614 0.8344 0.85819 0.0
H711 H 0.14331 0.86103 0.84029 0.0
H712 H 0.00334 0.78003 0.81934 0.0
H713 H 0.00199 0.92055 0.86182 0.0
H714 H 0.01639 0.92176 0.81989 0.0
H715 H 0.04871 0.92149 0.8563 0.0
C716 C 0.10237 0.89935 0.78484 0.0
C717 C 0.13134 0.89094 0.80055 0.0
C718 C 0.0642 0.88394 0.7949 0.0
C719 C 0.05417 0.8603 0.82129 0.0
C720 C 0.0834 0.85287 0.83793 0.0
H721 H 0.80602 0.78892 0.8526 0.0
H722 H 0.87868 0.8122 0.86786 0.0
C723 C 0.1218 0.86823 0.82775 0.0
C724 C 0.01177 0.84043 0.82867 0.0
H725 H 0.9353 0.85992 0.83774 0.0
C726 C 0.9886 0.79749 0.82422 0.0
C727 C 0.99267 0.86311 0.83587 0.0
C728 C 0.01647 0.90929 0.84413 0.0
C729 C 0.94618 0.77662 0.82406 0.0
C730 C 0.92634 0.79929 0.82734 0.0
C731 C 0.95014 0.84228 0.83453 0.0
C732 C 0.88102 0.77965 0.8208 0.0
C733 C 0.92316 0.73052 0.81984 0.0
C734 C 0.85777 0.75283 0.78961 0.0
C735 C 0.816 0.7388 0.78119 0.0
C736 C 0.79703 0.75231 0.80334 0.0
C737 C 0.81998 0.77822 0.83494 0.0
C738 C 0.86148 0.7915 0.84369 0.0
H739 H 0.94294 0.71974 0.83146 0.0
H740 H 0.8953 0.71863 0.83202 0.0
H741 H 0.91391 0.71729 0.79186 0.0
H742 H 0.87223 0.74424 0.77093 0.0
H743 H 0.79915 0.71922 0.75649 0.0
H744 H 0.9102 0.20626 0.74321 0.0
H745 H 0.86574 0.13197 0.73673 0.0
H746 H 0.92111 0.1158 0.65102 0.0
H747 H 0.96643 0.18995 0.65784 0.0
H748 H 0.80956 0.07016 0.68401 0.0
H749 H 0.94439 0.05394 0.71917 0.0
H750 H 0.94796 0.10299 0.72374 0.0
H751 H 0.94564 0.07772 0.68191 0.0
C752 C 0.91252 0.18695 0.72265 0.0
C753 C 0.94228 0.20395 0.7014 0.0
C754 C 0.88711 0.14451 0.71899 0.0
C755 C 0.89088 0.11845 0.69394 0.0
C756 C 0.91852 0.13539 0.67111 0.0
H757 H 0.72014 0.85236 0.66644 0.0
H758 H 0.76142 0.92113 0.65296 0.0
C759 C 0.94423 0.17777 0.67497 0.0
C760 C 0.86769 0.0737 0.69327 0.0
H761 H 0.87973 0.99331 0.7065 0.0
C762 C 0.82479 0.0532 0.68863 0.0
C763 C 0.88784 0.0519 0.69973 0.0
C764 C 0.93398 0.07273 0.70674 0.0
C765 C 0.80143 0.01155 0.69099 0.0
C766 C 0.8216 0.98976 0.69738 0.0
C767 C 0.86443 0.01007 0.70123 0.0
C768 C 0.79923 0.94708 0.70371 0.0
C769 C 0.75559 0.99178 0.68823 0.0
C770 C 0.80825 0.93851 0.73609 0.0
C771 C 0.78517 0.89927 0.74377 0.0
C772 C 0.75244 0.86778 0.7192 0.0
C773 C 0.74484 0.87597 0.6861 0.0
C774 C 0.76819 0.91531 0.67839 0.0
H775 H 0.74604 0.01482 0.69061 0.0
H776 H 0.74038 0.97167 0.66265 0.0
H777 H 0.74446 0.97261 0.70857 0.0
H778 H 0.83231 0.96259 0.75592 0.0
H779 H 0.79211 0.89412 0.76945 0.0
loop_
_geom_bond_atom_site_label_1
_geom_bond_atom_site_label_2
_geom_bond_distance
_geom_bond_site_symmetry_2
_ccdc_geom_bond_type
Sc0 O3 2.025 . S
Sc0 O10 2.105 . S
Sc0 O13 2.105 . S
Sc0 O16 2.105 . S
Sc0 O19 2.105 . S
Sc1 O3 2.025 . S
Sc1 O11 2.105 . S
Sc1 O15 2.105 . S
Sc1 O17 2.105 1_545 S
Sc1 O21 2.105 . S
Sc2 O3 2.025 . S
Sc2 O12 2.105 . S
Sc2 O14 2.105 . S
Sc2 O18 2.105 . S
Sc2 O20 2.105 . S
O3 Sc0 2.025 . S
O3 Sc1 2.025 . S
O3 Sc2 2.025 . S
C4 O10 1.268 . S
C4 O20 1.268 . S
C5 O11 1.268 . S
C5 O19 1.268 . S
C6 O12 1.268 . S
C6 O21 1.268 . S
C7 O13 1.268 1_565 S
C7 O17 1.268 . S
C8 O14 1.268 . S
C8 O16 1.268 . S
C9 O15 1.268 . S
C9 O18 1.268 . S
O10 Sc0 2.105 . S
O10 C4 1.268 . S
O11 Sc1 2.105 . S
O11 C5 1.268 . S
O12 Sc2 2.105 . S
O12 C6 1.268 . S
O13 Sc0 2.105 . S
O13 C7 1.268 1_545 S
O14 Sc2 2.105 . S
O14 C8 1.268 . S
O15 Sc1 2.105 . S
O15 C9 1.268 . S
O16 Sc0 2.105 . S
O16 C8 1.268 . S
O17 Sc1 2.105 1_565 S
O17 C7 1.268 . S
O18 Sc2 2.105 . S
O18 C9 1.268 . S
O19 Sc0 2.105 . S
O19 C5 1.268 . S
O20 Sc2 2.105 . S
O20 C4 1.268 . S
O21 Sc1 2.105 . S
O21 C6 1.268 . S
Sc22 O25 2.025 . S
Sc22 O32 2.105 . S
Sc22 O35 2.105 . S
Sc22 O38 2.105 . S
Sc22 O41 2.105 . S
Sc23 O25 2.025 . S
Sc23 O33 2.105 . S
Sc23 O37 2.105 . S
Sc23 O39 2.105 . S
Sc23 O43 2.105 . S
Sc24 O25 2.025 . S
Sc24 O34 2.105 . S
Sc24 O36 2.105 . S
Sc24 O40 2.105 . S
Sc24 O42 2.105 . S
O25 Sc22 2.025 . S
O25 Sc23 2.025 . S
O25 Sc24 2.025 . S
C26 O32 1.268 . S
C26 O42 1.268 . S
C27 O33 1.268 . S
C27 O41 1.268 . S
C28 O34 1.268 . S
C28 O43 1.268 . S
C29 O35 1.268 . S
C29 O39 1.268 . S
C30 O36 1.268 . S
C30 O38 1.268 . S
C31 O37 1.268 . S
C31 O40 1.268 . S
O32 Sc22 2.105 . S
O32 C26 1.268 . S
O33 Sc23 2.105 . S
O33 C27 1.268 . S
O34 Sc24 2.105 . S
O34 C28 1.268 . S
O35 Sc22 2.105 . S
O35 C29 1.268 . S
O36 Sc24 2.105 . S
O36 C30 1.268 . S
O37 Sc23 2.105 . S
O37 C31 1.268 . S
O38 Sc22 2.105 . S
O38 C30 1.268 . S
O39 Sc23 2.105 . S
O39 C29 1.268 . S
O40 Sc24 2.105 . S
O40 C31 1.268 . S
O41 Sc22 2.105 . S
O41 C27 1.268 . S
O42 Sc24 2.105 . S
O42 C26 1.268 . S
O43 Sc23 2.105 . S
O43 C28 1.268 . S
Sc44 O47 2.025 . S
Sc44 O54 2.105 . S
Sc44 O57 2.105 . S
Sc44 O60 2.105 . S
Sc44 O63 2.105 . S
Sc45 O47 2.025 . S
Sc45 O55 2.105 . S
Sc45 O59 2.105 . S
Sc45 O61 2.105 1_655 S
Sc45 O65 2.105 . S
Sc46 O47 2.025 . S
Sc46 O56 2.105 . S
Sc46 O58 2.105 . S
Sc46 O62 2.105 . S
Sc46 O64 2.105 . S
O47 Sc44 2.025 . S
O47 Sc45 2.025 . S
O47 Sc46 2.025 . S
C48 O54 1.268 . S
C48 O64 1.268 . S
C49 O55 1.268 . S
C49 O63 1.268 . S
C50 O56 1.268 . S
C50 O65 1.268 . S
C51 O57 1.287 . S
C51 O61 1.277 1_655 S
C52 O58 1.268 . S
C52 O60 1.268 . S
C53 O59 1.268 . S
C53 O62 1.268 . S
O54 Sc44 2.105 . S
O54 C48 1.268 . S
O55 Sc45 2.105 . S
O55 C49 1.268 . S
O56 Sc46 2.105 . S
O56 C50 1.268 . S
O57 Sc44 2.105 . S
O57 C51 1.287 . S
O58 Sc46 2.105 . S
O58 C52 1.268 . S
O59 Sc45 2.105 . S
O59 C53 1.268 . S
O60 Sc44 2.105 . S
O60 C52 1.268 . S
O61 Sc45 2.105 1_455 S
O61 C51 1.277 1_455 S
O62 Sc46 2.105 . S
O62 C53 1.268 . S
O63 Sc44 2.105 . S
O63 C49 1.268 . S
O64 Sc46 2.105 . S
O64 C48 1.268 . S
O65 Sc45 2.105 . S
O65 C50 1.268 . S
Sc66 O69 2.025 . S
Sc66 O76 2.105 . S
Sc66 O79 2.105 . S
Sc66 O82 2.105 . S
Sc66 O85 2.105 . S
Sc67 O69 2.025 . S
Sc67 O77 2.105 1_455 S
Sc67 O81 2.105 . S
Sc67 O83 2.105 . S
Sc67 O87 2.105 . S
Sc68 O69 2.025 . S
Sc68 O78 2.105 . S
Sc68 O80 2.105 . S
Sc68 O84 2.105 . S
Sc68 O86 2.105 . S
O69 Sc66 2.025 . S
O69 Sc67 2.025 . S
O69 Sc68 2.025 . S
C70 O76 1.268 . S
C70 O86 1.268 . S
C71 O77 1.268 . S
C71 O85 1.268 1_655 S
C72 O78 1.268 . S
C72 O87 1.268 . S
C73 O79 1.268 . S
C73 O83 1.268 . S
C74 O80 1.268 . S
C74 O82 1.268 . S
C75 O81 1.268 . S
C75 O84 1.268 . S
O76 Sc66 2.105 . S
O76 C70 1.268 . S
O77 Sc67 2.105 1_655 S
O77 C71 1.268 . S
O78 Sc68 2.105 . S
O78 C72 1.268 . S
O79 Sc66 2.105 . S
O79 C73 1.268 . S
O80 Sc68 2.105 . S
O80 C74 1.268 . S
O81 Sc67 2.105 . S
O81 C75 1.268 . S
O82 Sc66 2.105 . S
O82 C74 1.268 . S
O83 Sc67 2.105 . S
O83 C73 1.268 . S
O84 Sc68 2.105 . S
O84 C75 1.268 . S
O85 Sc66 2.105 . S
O85 C71 1.268 1_455 S
O86 Sc68 2.105 . S
O86 C70 1.268 . S
O87 Sc67 2.105 . S
O87 C72 1.268 . S
Sc88 O91 2.025 . S
Sc88 O98 2.105 . S
Sc88 O101 2.105 . S
Sc88 O104 2.105 . S
Sc88 O107 2.105 . S
Sc89 O91 2.025 . S
Sc89 O99 2.105 1_565 S
Sc89 O103 2.105 . S
Sc89 O105 2.105 . S
Sc89 O109 2.105 . S
Sc90 O91 2.025 . S
Sc90 O100 2.105 . S
Sc90 O102 2.105 . S
Sc90 O106 2.105 . S
Sc90 O108 2.105 . S
O91 Sc88 2.025 . S
O91 Sc89 2.025 . S
O91 Sc90 2.025 . S
C92 O98 1.268 . S
C92 O108 1.268 . S
C93 O99 1.277 1_565 S
C93 O107 1.287 . S
C94 O100 1.268 . S
C94 O109 1.268 . S
C95 O101 1.268 . S
C95 O105 1.268 . S
C96 O102 1.268 . S
C96 O104 1.268 . S
C97 O103 1.268 . S
C97 O106 1.268 . S
O98 Sc88 2.105 . S
O98 C92 1.268 . S
O99 Sc89 2.105 1_545 S
O99 C93 1.277 1_545 S
O100 Sc90 2.105 . S
O100 C94 1.268 . S
O101 Sc88 2.105 . S
O101 C95 1.268 . S
O102 Sc90 2.105 . S
O102 C96 1.268 . S
O103 Sc89 2.105 . S
O103 C97 1.268 . S
O104 Sc88 2.105 . S
O104 C96 1.268 . S
O105 Sc89 2.105 . S
O105 C95 1.268 . S
O106 Sc90 2.105 . S
O106 C97 1.268 . S
O107 Sc88 2.105 . S
O107 C93 1.287 . S
O108 Sc90 2.105 . S
O108 C92 1.268 . S
O109 Sc89 2.105 . S
O109 C94 1.268 . S
Sc110 O113 2.025 . S
Sc110 O120 2.105 . S
Sc110 O123 2.105 . S
Sc110 O126 2.105 . S
Sc110 O129 2.105 . S
Sc111 O113 2.025 . S
Sc111 O121 2.105 . S
Sc111 O125 2.105 . S
Sc111 O127 2.105 . S
Sc111 O131 2.105 . S
Sc112 O113 2.025 . S
Sc112 O122 2.105 . S
Sc112 O124 2.105 . S
Sc112 O128 2.105 . S
Sc112 O130 2.105 . S
O113 Sc110 2.025 . S
O113 Sc111 2.025 . S
O113 Sc112 2.025 . S
C114 O120 1.268 . S
C114 O130 1.268 . S
C115 O121 1.268 . S
C115 O129 1.268 . S
C116 O122 1.268 . S
C116 O131 1.268 . S
C117 O123 1.268 . S
C117 O127 1.268 . S
C118 O124 1.268 . S
C118 O126 1.268 . S
C119 O125 1.268 . S
C119 O128 1.268 . S
O120 Sc110 2.105 . S
O120 C114 1.268 . S
O121 Sc111 2.105 . S
O121 C115 1.268 . S
O122 Sc112 2.105 . S
O122 C116 1.268 . S
O123 Sc110 2.105 . S
O123 C117 1.268 . S
O124 Sc112 2.105 . S
O124 C118 1.268 . S
O125 Sc111 2.105 . S
O125 C119 1.268 . S
O126 Sc110 2.105 . S
O126 C118 1.268 . S
O127 Sc111 2.105 . S
O127 C117 1.268 . S
O128 Sc112 2.105 . S
O128 C119 1.268 . S
O129 Sc110 2.105 . S
O129 C115 1.268 . S
O130 Sc112 2.105 . S
O130 C114 1.268 . S
O131 Sc111 2.105 . S
O131 C116 1.268 . S
H132 C140 0.929 . S
H133 C142 0.930 . S
H134 C144 0.930 . S
H135 C147 0.929 . S
H136 C150 0.930 . S
H137 C152 0.960 . S
H138 C152 0.960 . S
H139 C152 0.960 . S
C140 H132 0.929 . S
C140 C141 1.377 . S
C140 C142 1.384 . S
C141 C140 1.377 . S
C141 C147 1.390 1_565 S
C142 H133 0.930 . S
C142 C140 1.384 . S
C142 C143 1.372 . S
C143 C142 1.372 . S
C143 C144 1.400 1_565 S
C143 C148 1.490 . S
C144 H134 0.930 . S
C144 C143 1.400 1_545 S
C144 C147 1.386 . S
H145 C161 0.930 . S
H146 C162 0.931 . S
C147 H135 0.929 . S
C147 C141 1.390 1_545 S
C147 C144 1.386 . S
C148 C143 1.490 . S
C148 C150 1.395 . S
C148 C151 1.403 1_565 S
H149 C155 0.930 . S
C150 H136 0.930 . S
C150 C148 1.395 . S
C150 C153 1.403 1_556 S
C151 C148 1.403 1_545 S
C151 C152 1.524 . S
C151 C155 1.400 1_556 S
C152 H137 0.960 . S
C152 H138 0.960 . S
C152 H139 0.960 . S
C152 C151 1.524 . S
C153 C150 1.403 1_554 S
C153 C154 1.392 1_565 S
C153 C157 1.495 . S
C154 C153 1.392 1_545 S
C154 C155 1.385 . S
C154 C156 1.478 . S
C155 H149 0.930 . S
C155 C151 1.400 1_554 S
C155 C154 1.385 . S
C156 C154 1.478 . S
C156 C158 1.381 1_545 S
C156 C162 1.383 . S
C157 C153 1.495 . S
C157 H163 0.959 . S
C157 H164 0.961 . S
C157 H165 0.960 . S
C158 C156 1.381 1_565 S
C158 C159 1.392 1_565 S
C158 H166 0.930 . S
C159 C158 1.392 1_545 S
C159 C160 1.397 . S
C159 H167 0.919 1_545 S
C160 C159 1.397 . S
C160 C161 1.377 . S
C161 H145 0.930 . S
C161 C160 1.377 . S
C161 C162 1.379 . S
C162 H146 0.931 . S
C162 C156 1.383 . S
C162 C161 1.379 . S
H163 C157 0.959 . S
H164 C157 0.961 . S
H165 C157 0.960 . S
H166 C158 0.930 . S
H167 C159 0.919 1_565 S
H168 C176 0.929 . S
H169 C178 0.930 . S
H170 C180 0.930 . S
H171 C183 0.929 . S
H172 C186 0.930 . S
H173 C188 0.960 . S
H174 C188 0.960 . S
H175 C188 0.960 . S
C176 H168 0.929 . S
C176 C177 1.377 . S
C176 C178 1.384 . S
C177 C176 1.377 . S
C177 C183 1.390 . S
C178 H169 0.930 . S
C178 C176 1.384 . S
C178 C179 1.372 . S
C179 C178 1.372 . S
C179 C180 1.400 . S
C179 C184 1.490 . S
C180 H170 0.930 . S
C180 C179 1.400 . S
C180 C183 1.386 . S
H181 C197 0.930 . S
H182 C198 0.931 . S
C183 H171 0.929 . S
C183 C177 1.390 . S
C183 C180 1.386 . S
C184 C179 1.490 . S
C184 C186 1.395 . S
C184 C187 1.403 . S
H185 C191 0.930 . S
C186 H172 0.930 . S
C186 C184 1.395 . S
C186 C189 1.403 . S
C187 C184 1.403 . S
C187 C188 1.524 . S
C187 C191 1.400 . S
C188 H173 0.960 . S
C188 H174 0.960 . S
C188 H175 0.960 . S
C188 C187 1.524 . S
C189 C186 1.403 . S
C189 C190 1.392 . S
C189 C193 1.495 . S
C190 C189 1.392 . S
C190 C191 1.385 . S
C190 C192 1.478 . S
C191 H185 0.930 . S
C191 C187 1.400 . S
C191 C190 1.385 . S
C192 C190 1.478 . S
C192 C194 1.381 . S
C192 C198 1.383 . S
C193 C189 1.495 . S
C193 H199 0.959 . S
C193 H200 0.961 . S
C193 H201 0.960 . S
C194 C192 1.381 . S
C194 C195 1.394 . S
C194 H202 0.930 . S
C195 C194 1.394 . S
C195 C196 1.383 . S
C195 H203 0.929 . S
C196 C195 1.383 . S
C196 C197 1.377 . S
C197 H181 0.930 . S
C197 C196 1.377 . S
C197 C198 1.379 . S
C198 H182 0.931 . S
C198 C192 1.383 . S
C198 C197 1.379 . S
H199 C193 0.959 . S
H200 C193 0.961 . S
H201 C193 0.960 . S
H202 C194 0.930 . S
H203 C195 0.929 . S
H204 C212 0.929 1_455 S
H205 C214 0.930 . S
H206 C216 0.930 . S
H207 C219 0.929 . S
H208 C222 0.930 . S
H209 C224 0.960 . S
H210 C224 0.966 . S
H211 C224 0.960 . S
C212 H204 0.929 1_655 S
C212 C213 1.377 . S
C212 C214 1.384 1_655 S
C213 C212 1.377 . S
C213 C219 1.390 . S
C214 H205 0.930 . S
C214 C212 1.384 1_455 S
C214 C215 1.372 1_455 S
C215 C214 1.372 1_655 S
C215 C216 1.400 . S
C215 C220 1.490 . S
C216 H206 0.930 . S
C216 C215 1.400 . S
C216 C219 1.386 . S
H217 C233 0.930 . S
H218 C234 0.931 . S
C219 H207 0.929 . S
C219 C213 1.390 . S
C219 C216 1.386 . S
C220 C215 1.490 . S
C220 C222 1.395 . S
C220 C223 1.403 . S
H221 C227 0.930 . S
C222 H208 0.930 . S
C222 C220 1.395 . S
C222 C225 1.403 1_654 S
C223 C220 1.403 . S
C223 C224 1.524 . S
C223 C227 1.400 1_554 S
C224 H209 0.960 . S
C224 H210 0.966 . S
C224 H211 0.960 . S
C224 C223 1.524 . S
C225 C222 1.403 1_456 S
C225 C226 1.392 . S
C225 C229 1.495 . S
C226 C225 1.392 . S
C226 C227 1.385 1_455 S
C226 C228 1.478 . S
C227 H221 0.930 . S
C227 C223 1.400 1_556 S
C227 C226 1.385 1_655 S
C228 C226 1.478 . S
C228 C230 1.381 . S
C228 C234 1.383 1_455 S
C229 C225 1.495 . S
C229 H235 0.959 . S
C229 H236 0.961 1_455 S
C229 H237 0.960 . S
C230 C228 1.381 . S
C230 C231 1.394 . S
C230 H238 0.930 . S
C231 C230 1.394 . S
C231 C232 1.383 . S
C231 H239 0.929 . S
C232 C231 1.383 . S
C232 C233 1.377 1_455 S
C233 H217 0.930 . S
C233 C232 1.377 1_655 S
C233 C234 1.379 . S
C234 H218 0.931 . S
C234 C228 1.383 1_655 S
C234 C233 1.379 . S
H235 C229 0.959 . S
H236 C229 0.961 1_655 S
H237 C229 0.960 . S
H238 C230 0.930 . S
H239 C231 0.929 . S
H240 C248 0.929 . S
H241 C250 0.930 . S
H242 C252 0.930 . S
H243 C255 0.929 . S
H244 C258 0.930 . S
H245 C260 0.960 1_565 S
H246 C260 0.960 1_565 S
H247 C260 0.960 . S
C248 H240 0.929 . S
C248 C249 1.377 1_565 S
C248 C250 1.384 . S
C249 C248 1.377 1_545 S
C249 C255 1.390 . S
C250 H241 0.930 . S
C250 C248 1.384 . S
C250 C251 1.372 1_565 S
C251 C250 1.372 1_545 S
C251 C252 1.400 . S
C251 C256 1.481 1_545 S
C252 H242 0.930 . S
C252 C251 1.400 . S
C252 C255 1.386 . S
H253 C269 0.930 1_545 S
H254 C270 0.931 . S
C255 H243 0.929 . S
C255 C249 1.390 . S
C255 C252 1.386 . S
C256 C251 1.481 1_565 S
C256 C258 1.413 . S
C256 C259 1.394 . S
H257 C263 0.930 . S
C258 H244 0.930 . S
C258 C256 1.413 . S
C258 C261 1.403 . S
C259 C256 1.394 . S
C259 C260 1.524 1_565 S
C259 C263 1.400 . S
C260 H245 0.960 1_545 S
C260 H246 0.960 1_545 S
C260 H247 0.960 . S
C260 C259 1.524 1_545 S
C261 C258 1.403 . S
C261 C262 1.392 . S
C261 C265 1.495 . S
C262 C261 1.392 . S
C262 C263 1.385 . S
C262 C264 1.478 . S
C263 H257 0.930 . S
C263 C259 1.400 . S
C263 C262 1.385 . S
C264 C262 1.478 . S
C264 C266 1.381 . S
C264 C270 1.383 1_565 S
C265 C261 1.495 . S
C265 H271 0.959 . S
C265 H272 0.961 . S
C265 H273 0.960 . S
C266 C264 1.381 . S
C266 C267 1.394 . S
C266 H274 0.930 . S
C267 C266 1.394 . S
C267 C268 1.383 . S
C267 H275 0.929 . S
C268 C267 1.383 . S
C268 C269 1.377 . S
C269 H253 0.930 1_565 S
C269 C268 1.377 . S
C269 C270 1.379 1_565 S
C270 H254 0.931 . S
C270 C264 1.383 1_545 S
C270 C269 1.379 1_545 S
H271 C265 0.959 . S
H272 C265 0.961 . S
H273 C265 0.960 . S
H274 C266 0.930 . S
H275 C267 0.929 . S
H276 C284 0.929 . S
H277 C286 0.930 . S
H278 C288 0.930 . S
H279 C291 0.929 . S
H280 C294 0.930 . S
H281 C296 0.960 . S
H282 C296 0.960 . S
H283 C296 0.960 . S
C284 H276 0.929 . S
C284 C285 1.377 . S
C284 C286 1.384 . S
C285 C284 1.377 . S
C285 C291 1.390 . S
C286 H277 0.930 . S
C286 C284 1.384 . S
C286 C287 1.372 . S
C287 C286 1.372 . S
C287 C288 1.400 . S
C287 C292 1.490 . S
C288 H278 0.930 . S
C288 C287 1.400 . S
C288 C291 1.386 . S
H289 C305 0.930 . S
H290 C306 0.931 . S
C291 H279 0.929 . S
C291 C285 1.390 . S
C291 C288 1.386 . S
C292 C287 1.490 . S
C292 C294 1.395 . S
C292 C295 1.403 . S
H293 C299 0.930 . S
C294 H280 0.930 . S
C294 C292 1.395 . S
C294 C297 1.403 . S
C295 C292 1.403 . S
C295 C296 1.524 . S
C295 C299 1.400 1_556 S
C296 H281 0.960 . S
C296 H282 0.960 . S
C296 H283 0.960 . S
C296 C295 1.524 . S
C297 C294 1.403 . S
C297 C298 1.392 1_556 S
C297 C301 1.495 1_556 S
C298 C297 1.392 1_554 S
C298 C299 1.385 . S
C298 C300 1.478 . S
C299 H293 0.930 . S
C299 C295 1.400 1_554 S
C299 C298 1.385 . S
C300 C298 1.478 . S
C300 C302 1.381 . S
C300 C306 1.383 . S
C301 C297 1.495 1_554 S
C301 H307 0.959 1_554 S
C301 H308 0.961 . S
C301 H309 0.960 . S
C302 C300 1.381 . S
C302 C303 1.394 . S
C302 H310 0.930 . S
C303 C302 1.394 . S
C303 C304 1.383 . S
C303 H311 0.929 . S
C304 C303 1.383 . S
C304 C305 1.377 . S
C305 H289 0.930 . S
C305 C304 1.377 . S
C305 C306 1.379 . S
C306 H290 0.931 . S
C306 C300 1.383 . S
C306 C305 1.379 . S
H307 C301 0.959 1_556 S
H308 C301 0.961 . S
H309 C301 0.960 . S
H310 C302 0.930 . S
H311 C303 0.929 . S
H312 C320 0.929 . S
H313 C322 0.930 . S
H314 C324 0.930 . S
H315 C327 0.929 . S
H316 C330 0.930 . S
H317 C332 0.960 . S
H318 C332 0.960 1_455 S
H319 C332 0.960 . S
C320 H312 0.929 . S
C320 C321 1.377 1_455 S
C320 C322 1.384 . S
C321 C320 1.377 1_655 S
C321 C327 1.390 . S
C322 H313 0.930 . S
C322 C320 1.384 . S
C322 C323 1.372 1_455 S
C323 C322 1.372 1_655 S
C323 C324 1.400 . S
C323 C328 1.490 1_655 S
C324 H314 0.930 . S
C324 C323 1.400 . S
C324 C327 1.386 . S
H325 C341 0.915 1_655 S
H326 C342 0.931 . S
C327 H315 0.929 . S
C327 C321 1.390 . S
C327 C324 1.386 . S
C328 C323 1.490 1_455 S
C328 C330 1.395 . S
C328 C331 1.403 1_455 S
H329 C335 0.930 . S
C330 H316 0.930 . S
C330 C328 1.395 . S
C330 C333 1.403 . S
C331 C328 1.403 1_655 S
C331 C332 1.524 . S
C331 C335 1.400 1_655 S
C332 H317 0.960 . S
C332 H318 0.960 1_655 S
C332 H319 0.960 . S
C332 C331 1.524 . S
C333 C330 1.403 . S
C333 C334 1.392 . S
C333 C337 1.495 . S
C334 C333 1.392 . S
C334 C335 1.385 . S
C334 C336 1.478 . S
C335 H329 0.930 . S
C335 C331 1.400 1_455 S
C335 C334 1.385 . S
C336 C334 1.478 . S
C336 C338 1.381 . S
C336 C342 1.383 1_455 S
C337 C333 1.495 . S
C337 H343 0.959 . S
C337 H344 0.961 . S
C337 H345 0.960 . S
C338 C336 1.381 . S
C338 C339 1.394 . S
C338 H346 0.930 . S
C339 C338 1.394 . S
C339 C340 1.383 . S
C339 H347 0.929 . S
C340 C339 1.383 . S
C340 C341 1.392 . S
C341 H325 0.915 1_455 S
C341 C340 1.392 . S
C341 C342 1.379 1_455 S
C342 H326 0.931 . S
C342 C336 1.383 1_655 S
C342 C341 1.379 1_655 S
H343 C337 0.959 . S
H344 C337 0.961 . S
H345 C337 0.960 . S
H346 C338 0.930 . S
H347 C339 0.929 . S
H348 C356 0.929 . S
H349 C358 0.930 . S
H350 C360 0.930 . S
H351 C363 0.929 . S
H352 C366 0.930 . S
H353 C368 0.960 . S
H354 C368 0.960 . S
H355 C368 0.960 . S
C356 H348 0.929 . S
C356 C357 1.377 . S
C356 C358 1.384 . S
C357 C356 1.377 . S
C357 C363 1.390 . S
C358 H349 0.930 . S
C358 C356 1.384 . S
C358 C359 1.372 . S
C359 C358 1.372 . S
C359 C360 1.400 . S
C359 C364 1.490 . S
C360 H350 0.930 . S
C360 C359 1.400 . S
C360 C363 1.386 . S
H361 C377 0.930 . S
H362 C378 0.931 . S
C363 H351 0.929 . S
C363 C357 1.390 . S
C363 C360 1.386 . S
C364 C359 1.490 . S
C364 C366 1.395 . S
C364 C367 1.403 . S
H365 C371 0.930 . S
C366 H352 0.930 . S
C366 C364 1.395 . S
C366 C369 1.403 . S
C367 C364 1.403 . S
C367 C368 1.524 . S
C367 C371 1.400 . S
C368 H353 0.960 . S
C368 H354 0.960 . S
C368 H355 0.960 . S
C368 C367 1.524 . S
C369 C366 1.403 . S
C369 C370 1.392 . S
C369 C373 1.495 . S
C370 C369 1.392 . S
C370 C371 1.385 . S
C370 C372 1.478 . S
C371 H365 0.930 . S
C371 C367 1.400 . S
C371 C370 1.385 . S
C372 C370 1.478 . S
C372 C374 1.381 . S
C372 C378 1.383 . S
C373 C369 1.495 . S
C373 H379 0.959 . S
C373 H380 0.961 . S
C373 H381 0.960 . S
C374 C372 1.381 . S
C374 C375 1.394 . S
C374 H382 0.930 . S
C375 C374 1.394 . S
C375 C376 1.383 . S
C375 H383 0.929 . S
C376 C375 1.383 . S
C376 C377 1.377 . S
C377 H361 0.930 . S
C377 C376 1.377 . S
C377 C378 1.379 . S
C378 H362 0.931 . S
C378 C372 1.383 . S
C378 C377 1.379 . S
H379 C373 0.959 . S
H380 C373 0.961 . S
H381 C373 0.960 . S
H382 C374 0.930 . S
H383 C375 0.929 . S
H384 C392 0.929 . S
H385 C394 0.930 . S
H386 C396 0.930 . S
H387 C399 0.929 . S
H388 C402 0.930 . S
H389 C404 0.960 . S
H390 C404 0.960 . S
H391 C404 0.960 . S
C392 H384 0.929 . S
C392 C393 1.377 . S
C392 C394 1.384 . S
C393 C392 1.377 . S
C393 C399 1.390 . S
C394 H385 0.930 . S
C394 C392 1.384 . S
C394 C395 1.372 . S
C395 C394 1.372 . S
C395 C396 1.400 . S
C395 C400 1.490 . S
C396 H386 0.930 . S
C396 C395 1.400 . S
C396 C399 1.386 . S
H397 C413 0.930 . S
H398 C414 0.931 . S
C399 H387 0.929 . S
C399 C393 1.390 . S
C399 C396 1.386 . S
C400 C395 1.490 . S
C400 C402 1.395 . S
C400 C403 1.403 . S
H401 C407 0.930 . S
C402 H388 0.930 . S
C402 C400 1.395 . S
C402 C405 1.403 . S
C403 C400 1.403 . S
C403 C404 1.524 . S
C403 C407 1.400 . S
C404 H389 0.960 . S
C404 H390 0.960 . S
C404 H391 0.960 . S
C404 C403 1.524 . S
C405 C402 1.403 . S
C405 C406 1.392 . S
C405 C409 1.495 . S
C406 C405 1.392 . S
C406 C407 1.385 . S
C406 C408 1.478 . S
C407 H401 0.930 . S
C407 C403 1.400 . S
C407 C406 1.385 . S
C408 C406 1.478 . S
C408 C410 1.381 . S
C408 C414 1.383 . S
C409 C405 1.495 . S
C409 H415 0.959 . S
C409 H416 0.961 . S
C409 H417 0.960 . S
C410 C408 1.381 . S
C410 C411 1.394 . S
C410 H418 0.930 . S
C411 C410 1.394 . S
C411 C412 1.383 . S
C411 H419 0.929 . S
C412 C411 1.383 . S
C412 C413 1.377 . S
C413 H397 0.930 . S
C413 C412 1.377 . S
C413 C414 1.379 . S
C414 H398 0.931 . S
C414 C408 1.383 . S
C414 C413 1.379 . S
H415 C409 0.959 . S
H416 C409 0.961 . S
H417 C409 0.960 . S
H418 C410 0.930 . S
H419 C411 0.929 . S
H420 C428 0.929 . S
H421 C430 0.930 . S
H422 C432 0.930 . S
H423 C435 0.929 . S
H424 C438 0.930 . S
H425 C440 0.960 . S
H426 C440 0.960 . S
H427 C440 0.960 . S
C428 H420 0.929 . S
C428 C429 1.377 . S
C428 C430 1.384 . S
C429 C428 1.377 . S
C429 C435 1.390 . S
C430 H421 0.930 . S
C430 C428 1.384 . S
C430 C431 1.372 . S
C431 C430 1.372 . S
C431 C432 1.400 . S
C431 C436 1.490 . S
C432 H422 0.930 . S
C432 C431 1.400 . S
C432 C435 1.386 . S
H433 C449 0.930 . S
H434 C450 0.931 . S
C435 H423 0.929 . S
C435 C429 1.390 . S
C435 C432 1.386 . S
C436 C431 1.490 . S
C436 C438 1.395 . S
C436 C439 1.403 . S
H437 C443 0.930 . S
C438 H424 0.930 . S
C438 C436 1.395 . S
C438 C441 1.403 . S
C439 C436 1.403 . S
C439 C440 1.524 . S
C439 C443 1.400 . S
C440 H425 0.960 . S
C440 H426 0.960 . S
C440 H427 0.960 . S
C440 C439 1.524 . S
C441 C438 1.403 . S
C441 C442 1.392 . S
C441 C445 1.495 . S
C442 C441 1.392 . S
C442 C443 1.385 . S
C442 C444 1.478 . S
C443 H437 0.930 . S
C443 C439 1.400 . S
C443 C442 1.385 . S
C444 C442 1.478 . S
C444 C446 1.381 . S
C444 C450 1.383 . S
C445 C441 1.495 . S
C445 H451 0.959 . S
C445 H452 0.961 . S
C445 H453 0.960 . S
C446 C444 1.381 . S
C446 C447 1.394 . S
C446 H454 0.930 . S
C447 C446 1.394 . S
C447 C448 1.383 . S
C447 H455 0.929 . S
C448 C447 1.383 . S
C448 C449 1.377 . S
C449 H433 0.930 . S
C449 C448 1.377 . S
C449 C450 1.379 . S
C450 H434 0.931 . S
C450 C444 1.383 . S
C450 C449 1.379 . S
H451 C445 0.959 . S
H452 C445 0.961 . S
H453 C445 0.960 . S
H454 C446 0.930 . S
H455 C447 0.929 . S
H456 C464 0.929 . S
H457 C466 0.930 . S
H458 C468 0.930 . S
H459 C471 0.929 . S
H460 C474 0.930 . S
H461 C476 0.960 . S
H462 C476 0.960 . S
H463 C476 0.960 . S
C464 H456 0.929 . S
C464 C465 1.377 . S
C464 C466 1.384 . S
C465 C464 1.377 . S
C465 C471 1.390 . S
C466 H457 0.930 . S
C466 C464 1.384 . S
C466 C467 1.372 . S
C467 C466 1.372 . S
C467 C468 1.400 . S
C467 C472 1.490 . S
C468 H458 0.930 . S
C468 C467 1.400 . S
C468 C471 1.386 . S
H469 C485 0.930 . S
H470 C486 0.931 . S
C471 H459 0.929 . S
C471 C465 1.390 . S
C471 C468 1.386 . S
C472 C467 1.490 . S
C472 C474 1.395 . S
C472 C475 1.403 . S
H473 C479 0.930 . S
C474 H460 0.930 . S
C474 C472 1.395 . S
C474 C477 1.403 . S
C475 C472 1.403 . S
C475 C476 1.524 . S
C475 C479 1.400 . S
C476 H461 0.960 . S
C476 H462 0.960 . S
C476 H463 0.960 . S
C476 C475 1.524 . S
C477 C474 1.403 . S
C477 C478 1.392 . S
C477 C481 1.495 . S
C478 C477 1.392 . S
C478 C479 1.385 . S
C478 C480 1.478 . S
C479 H473 0.930 . S
C479 C475 1.400 . S
C479 C478 1.385 . S
C480 C478 1.478 . S
C480 C482 1.381 . S
C480 C486 1.383 . S
C481 C477 1.495 . S
C481 H487 0.959 . S
C481 H488 0.961 . S
C481 H489 0.960 . S
C482 C480 1.381 . S
C482 C483 1.394 . S
C482 H490 0.930 . S
C483 C482 1.394 . S
C483 C484 1.383 . S
C483 H491 0.929 . S
C484 C483 1.383 . S
C484 C485 1.377 . S
C485 H469 0.930 . S
C485 C484 1.377 . S
C485 C486 1.379 . S
C486 H470 0.931 . S
C486 C480 1.383 . S
C486 C485 1.379 . S
H487 C481 0.959 . S
H488 C481 0.961 . S
H489 C481 0.960 . S
H490 C482 0.930 . S
H491 C483 0.929 . S
H492 C500 0.929 . S
H493 C502 0.930 . S
H494 C504 0.930 . S
H495 C507 0.929 . S
H496 C510 0.930 . S
H497 C512 0.960 . S
H498 C512 0.960 . S
H499 C512 0.960 . S
C500 H492 0.929 . S
C500 C501 1.377 . S
C500 C502 1.384 . S
C501 C500 1.377 . S
C501 C507 1.390 . S
C502 H493 0.930 . S
C502 C500 1.384 . S
C502 C503 1.372 . S
C503 C502 1.372 . S
C503 C504 1.400 . S
C503 C508 1.490 . S
C504 H494 0.930 . S
C504 C503 1.400 . S
C504 C507 1.386 . S
H505 C521 0.930 . S
H506 C522 0.931 . S
C507 H495 0.929 . S
C507 C501 1.390 . S
C507 C504 1.386 . S
C508 C503 1.490 . S
C508 C510 1.395 . S
C508 C511 1.403 . S
H509 C515 0.930 . S
C510 H496 0.930 . S
C510 C508 1.395 . S
C510 C513 1.403 . S
C511 C508 1.403 . S
C511 C512 1.524 . S
C511 C515 1.400 . S
C512 H497 0.960 . S
C512 H498 0.960 . S
C512 H499 0.960 . S
C512 C511 1.524 . S
C513 C510 1.403 . S
C513 C514 1.392 . S
C513 C517 1.495 . S
C514 C513 1.392 . S
C514 C515 1.385 . S
C514 C516 1.478 . S
C515 H509 0.930 . S
C515 C511 1.400 . S
C515 C514 1.385 . S
C516 C514 1.478 . S
C516 C518 1.381 . S
C516 C522 1.383 . S
C517 C513 1.495 . S
C517 H523 0.959 . S
C517 H524 0.961 . S
C517 H525 0.960 . S
C518 C516 1.381 . S
C518 C519 1.394 . S
C518 H526 0.930 . S
C519 C518 1.394 . S
C519 C520 1.383 . S
C519 H527 0.929 . S
C520 C519 1.383 . S
C520 C521 1.377 . S
C521 H505 0.930 . S
C521 C520 1.377 . S
C521 C522 1.379 . S
C522 H506 0.931 . S
C522 C516 1.383 . S
C522 C521 1.379 . S
H523 C517 0.959 . S
H524 C517 0.961 . S
H525 C517 0.960 . S
H526 C518 0.930 . S
H527 C519 0.929 . S
H528 C536 0.929 . S
H529 C538 0.930 . S
H530 C540 0.930 . S
H531 C543 0.929 . S
H532 C546 0.930 . S
H533 C548 0.960 . S
H534 C548 0.960 . S
H535 C548 0.960 . S
C536 H528 0.929 . S
C536 C537 1.377 . S
C536 C538 1.384 . S
C537 C536 1.377 . S
C537 C543 1.390 . S
C538 H529 0.930 . S
C538 C536 1.384 . S
C538 C539 1.372 . S
C539 C538 1.372 . S
C539 C540 1.400 . S
C539 C544 1.490 . S
C540 H530 0.930 . S
C540 C539 1.400 . S
C540 C543 1.386 . S
H541 C557 0.930 . S
H542 C558 0.931 . S
C543 H531 0.929 . S
C543 C537 1.390 . S
C543 C540 1.386 . S
C544 C539 1.490 . S
C544 C546 1.395 . S
C544 C547 1.403 . S
H545 C551 0.930 . S
C546 H532 0.930 . S
C546 C544 1.395 . S
C546 C549 1.403 . S
C547 C544 1.403 . S
C547 C548 1.524 . S
C547 C551 1.400 . S
C548 H533 0.960 . S
C548 H534 0.960 . S
C548 H535 0.960 . S
C548 C547 1.524 . S
C549 C546 1.403 . S
C549 C550 1.392 . S
C549 C553 1.495 . S
C550 C549 1.392 . S
C550 C551 1.385 . S
C550 C552 1.478 . S
C551 H545 0.930 . S
C551 C547 1.400 . S
C551 C550 1.385 . S
C552 C550 1.478 . S
C552 C554 1.381 . S
C552 C558 1.383 . S
C553 C549 1.495 . S
C553 H559 0.959 . S
C553 H560 0.961 . S
C553 H561 0.960 . S
C554 C552 1.381 . S
C554 C555 1.394 . S
C554 H562 0.930 . S
C555 C554 1.394 . S
C555 C556 1.383 . S
C555 H563 0.929 . S
C556 C555 1.383 . S
C556 C557 1.377 . S
C557 H541 0.930 . S
C557 C556 1.377 . S
C557 C558 1.379 . S
C558 H542 0.931 . S
C558 C552 1.383 . S
C558 C557 1.379 . S
H559 C553 0.959 . S
H560 C553 0.961 . S
H561 C553 0.960 . S
H562 C554 0.930 . S
H563 C555 0.929 . S
H564 C572 0.929 . S
H565 C574 0.930 . S
H566 C576 0.930 . S
H567 C579 0.929 . S
H568 C582 0.930 . S
H569 C584 0.960 . S
H570 C584 0.960 . S
H571 C584 0.960 . S
C572 H564 0.929 . S
C572 C573 1.377 . S
C572 C574 1.384 . S
C573 C572 1.377 . S
C573 C579 1.390 . S
C574 H565 0.930 . S
C574 C572 1.384 . S
C574 C575 1.372 . S
C575 C574 1.372 . S
C575 C576 1.400 . S
C575 C580 1.490 . S
C576 H566 0.930 . S
C576 C575 1.400 . S
C576 C579 1.386 . S
H577 C593 0.930 . S
H578 C594 0.931 . S
C579 H567 0.929 . S
C579 C573 1.390 . S
C579 C576 1.386 . S
C580 C575 1.490 . S
C580 C582 1.395 . S
C580 C583 1.403 . S
H581 C587 0.930 . S
C582 H568 0.930 . S
C582 C580 1.395 . S
C582 C585 1.403 . S
C583 C580 1.403 . S
C583 C584 1.524 . S
C583 C587 1.400 . S
C584 H569 0.960 . S
C584 H570 0.960 . S
C584 H571 0.960 . S
C584 C583 1.524 . S
C585 C582 1.403 . S
C585 C586 1.392 . S
C585 C589 1.495 . S
C586 C585 1.392 . S
C586 C587 1.385 . S
C586 C588 1.478 . S
C587 H581 0.930 . S
C587 C583 1.400 . S
C587 C586 1.385 . S
C588 C586 1.478 . S
C588 C590 1.381 . S
C588 C594 1.383 . S
C589 C585 1.495 . S
C589 H595 0.959 . S
C589 H596 0.961 . S
C589 H597 0.960 . S
C590 C588 1.381 . S
C590 C591 1.394 . S
C590 H598 0.930 . S
C591 C590 1.394 . S
C591 C592 1.383 . S
C591 H599 0.929 . S
C592 C591 1.383 . S
C592 C593 1.377 . S
C593 H577 0.930 . S
C593 C592 1.377 . S
C593 C594 1.379 . S
C594 H578 0.931 . S
C594 C588 1.383 . S
C594 C593 1.379 . S
H595 C589 0.959 . S
H596 C589 0.961 . S
H597 C589 0.960 . S
H598 C590 0.930 . S
H599 C591 0.929 . S
H600 C608 0.929 . S
H601 C610 0.930 . S
H602 C612 0.930 . S
H603 C615 0.929 . S
H604 C618 0.930 1_655 S
H605 C620 0.960 . S
H606 C620 0.960 1_655 S
H607 C620 0.960 1_655 S
C608 H600 0.929 . S
C608 C609 1.377 . S
C608 C610 1.384 . S
C609 C608 1.377 . S
C609 C615 1.390 . S
C610 H601 0.930 . S
C610 C608 1.384 . S
C610 C611 1.372 . S
C611 C610 1.372 . S
C611 C612 1.400 . S
C611 C616 1.490 . S
C612 H602 0.930 . S
C612 C611 1.400 . S
C612 C615 1.386 . S
H613 C629 0.930 . S
H614 C630 0.931 . S
C615 H603 0.929 . S
C615 C609 1.390 . S
C615 C612 1.386 . S
C616 C611 1.490 . S
C616 C618 1.395 1_655 S
C616 C619 1.403 1_655 S
H617 C623 0.930 . S
C618 H604 0.930 1_455 S
C618 C616 1.395 1_455 S
C618 C621 1.403 . S
C619 C616 1.403 1_455 S
C619 C620 1.524 . S
C619 C623 1.400 . S
C620 H605 0.960 . S
C620 H606 0.960 1_455 S
C620 H607 0.960 1_455 S
C620 C619 1.524 . S
C621 C618 1.403 . S
C621 C622 1.392 . S
C621 C625 1.495 . S
C622 C621 1.392 . S
C622 C623 1.385 . S
C622 C624 1.478 . S
C623 H617 0.930 . S
C623 C619 1.400 . S
C623 C622 1.385 . S
C624 C622 1.478 . S
C624 C626 1.381 . S
C624 C630 1.383 . S
C625 C621 1.495 . S
C625 H631 0.959 . S
C625 H632 0.961 . S
C625 H633 0.960 . S
C626 C624 1.381 . S
C626 C627 1.394 . S
C626 H634 0.930 . S
C627 C626 1.394 . S
C627 C628 1.383 . S
C627 H635 0.929 1_565 S
C628 C627 1.383 . S
C628 C629 1.377 . S
C629 H613 0.930 . S
C629 C628 1.377 . S
C629 C630 1.379 . S
C630 H614 0.931 . S
C630 C624 1.383 . S
C630 C629 1.379 . S
H631 C625 0.959 . S
H632 C625 0.961 . S
H633 C625 0.960 . S
H634 C626 0.930 . S
H635 C627 0.929 1_545 S
H636 C644 0.929 . S
H637 C646 0.930 . S
H638 C648 0.930 . S
H639 C651 0.929 . S
H640 C654 0.930 1_545 S
H641 C656 0.960 . S
H642 C656 0.960 1_545 S
H643 C656 0.960 1_545 S
C644 H636 0.929 . S
C644 C645 1.377 . S
C644 C646 1.384 . S
C645 C644 1.377 . S
C645 C651 1.390 . S
C646 H637 0.930 . S
C646 C644 1.384 . S
C646 C647 1.372 . S
C647 C646 1.372 . S
C647 C648 1.400 . S
C647 C652 1.490 . S
C648 H638 0.930 . S
C648 C647 1.400 . S
C648 C651 1.386 . S
H649 C665 0.930 . S
H650 C666 0.931 . S
C651 H639 0.929 . S
C651 C645 1.390 . S
C651 C648 1.386 . S
C652 C647 1.490 . S
C652 C654 1.395 1_545 S
C652 C655 1.403 1_545 S
H653 C659 0.930 . S
C654 H640 0.930 1_565 S
C654 C652 1.395 1_565 S
C654 C657 1.403 . S
C655 C652 1.403 1_565 S
C655 C656 1.524 . S
C655 C659 1.400 . S
C656 H641 0.960 . S
C656 H642 0.960 1_565 S
C656 H643 0.960 1_565 S
C656 C655 1.524 . S
C657 C654 1.403 . S
C657 C658 1.392 . S
C657 C661 1.495 . S
C658 C657 1.392 . S
C658 C659 1.385 . S
C658 C660 1.478 . S
C659 H653 0.930 . S
C659 C655 1.400 . S
C659 C658 1.385 . S
C660 C658 1.478 . S
C660 C662 1.381 . S
C660 C666 1.383 . S
C661 C657 1.495 . S
C661 H667 0.959 . S
C661 H668 0.961 . S
C661 H669 0.960 . S
C662 C660 1.381 . S
C662 C663 1.394 . S
C662 H670 0.930 . S
C663 C662 1.394 . S
C663 C664 1.383 . S
C663 H671 0.929 . S
C664 C663 1.383 . S
C664 C665 1.377 . S
C665 H649 0.930 . S
C665 C664 1.377 . S
C665 C666 1.379 . S
C666 H650 0.931 . S
C666 C660 1.383 . S
C666 C665 1.379 . S
H667 C661 0.959 . S
H668 C661 0.961 . S
H669 C661 0.960 . S
H670 C662 0.930 . S
H671 C663 0.929 . S
H672 C680 0.929 . S
H673 C682 0.930 . S
H674 C684 0.930 . S
H675 C687 0.929 . S
H676 C690 0.930 . S
H677 C692 0.960 . S
H678 C692 0.960 . S
H679 C692 0.960 . S
C680 H672 0.929 . S
C680 C681 1.377 . S
C680 C682 1.384 . S
C681 C680 1.377 . S
C681 C687 1.390 . S
C682 H673 0.930 . S
C682 C680 1.384 . S
C682 C683 1.372 . S
C683 C682 1.372 . S
C683 C684 1.400 . S
C683 C688 1.490 . S
C684 H674 0.930 . S
C684 C683 1.400 . S
C684 C687 1.386 . S
H685 C701 0.930 . S
H686 C702 0.931 . S
C687 H675 0.929 . S
C687 C681 1.390 . S
C687 C684 1.386 . S
C688 C683 1.490 . S
C688 C690 1.395 . S
C688 C691 1.403 . S
H689 C695 0.930 . S
C690 H676 0.930 . S
C690 C688 1.395 . S
C690 C693 1.403 . S
C691 C688 1.403 . S
C691 C692 1.524 . S
C691 C695 1.400 . S
C692 H677 0.960 . S
C692 H678 0.960 . S
C692 H679 0.960 . S
C692 C691 1.524 . S
C693 C690 1.403 . S
C693 C694 1.392 . S
C693 C697 1.495 . S
C694 C693 1.392 . S
C694 C695 1.385 . S
C694 C696 1.478 . S
C695 H689 0.930 . S
C695 C691 1.400 . S
C695 C694 1.385 . S
C696 C694 1.478 . S
C696 C698 1.381 . S
C696 C702 1.383 . S
C697 C693 1.495 . S
C697 H703 0.959 . S
C697 H704 0.961 . S
C697 H705 0.960 . S
C698 C696 1.381 . S
C698 C699 1.394 . S
C698 H706 0.930 . S
C699 C698 1.394 . S
C699 C700 1.383 . S
C699 H707 0.929 . S
C700 C699 1.383 . S
C700 C701 1.377 . S
C701 H685 0.930 . S
C701 C700 1.377 . S
C701 C702 1.379 . S
C702 H686 0.931 . S
C702 C696 1.383 . S
C702 C701 1.379 . S
H703 C697 0.959 . S
H704 C697 0.961 . S
H705 C697 0.960 . S
H706 C698 0.930 . S
H707 C699 0.929 . S
H708 C716 0.929 . S
H709 C718 0.930 . S
H710 C720 0.930 . S
H711 C723 0.929 . S
H712 C726 0.930 . S
H713 C728 0.960 1_655 S
H714 C728 0.960 . S
H715 C728 0.960 . S
C716 H708 0.929 . S
C716 C717 1.377 . S
C716 C718 1.384 . S
C717 C716 1.377 . S
C717 C723 1.390 . S
C718 H709 0.930 . S
C718 C716 1.384 . S
C718 C719 1.372 . S
C719 C718 1.372 . S
C719 C720 1.400 . S
C719 C724 1.490 . S
C720 H710 0.930 . S
C720 C719 1.400 . S
C720 C723 1.386 . S
H721 C737 0.930 . S
H722 C738 0.931 . S
C723 H711 0.929 . S
C723 C717 1.390 . S
C723 C720 1.386 . S
C724 C719 1.490 . S
C724 C726 1.395 1_455 S
C724 C727 1.403 1_455 S
H725 C731 0.930 . S
C726 H712 0.930 . S
C726 C724 1.395 1_655 S
C726 C729 1.403 . S
C727 C724 1.403 1_655 S
C727 C728 1.524 1_655 S
C727 C731 1.400 . S
C728 H713 0.960 1_455 S
C728 H714 0.960 . S
C728 H715 0.960 . S
C728 C727 1.524 1_455 S
C729 C726 1.403 . S
C729 C730 1.392 . S
C729 C733 1.495 . S
C730 C729 1.392 . S
C730 C731 1.385 . S
C730 C732 1.478 . S
C731 H725 0.930 . S
C731 C727 1.400 . S
C731 C730 1.385 . S
C732 C730 1.478 . S
C732 C734 1.381 . S
C732 C738 1.383 . S
C733 C729 1.495 . S
C733 H739 0.959 . S
C733 H740 0.961 . S
C733 H741 0.960 . S
C734 C732 1.381 . S
C734 C735 1.394 . S
C734 H742 0.930 . S
C735 C734 1.394 . S
C735 C736 1.383 . S
C735 H743 0.929 . S
C736 C735 1.383 . S
C736 C737 1.377 . S
C737 H721 0.930 . S
C737 C736 1.377 . S
C737 C738 1.379 . S
C738 H722 0.931 . S
C738 C732 1.383 . S
C738 C737 1.379 . S
H739 C733 0.959 . S
H740 C733 0.961 . S
H741 C733 0.960 . S
H742 C734 0.930 . S
H743 C735 0.929 . S
H744 C752 0.929 . S
H745 C754 0.930 . S
H746 C756 0.930 . S
H747 C759 0.929 . S
H748 C762 0.930 . S
H749 C764 0.960 . S
H750 C764 0.960 . S
H751 C764 0.960 . S
C752 H744 0.929 . S
C752 C753 1.377 . S
C752 C754 1.384 . S
C753 C752 1.377 . S
C753 C759 1.390 . S
C754 H745 0.930 . S
C754 C752 1.384 . S
C754 C755 1.372 . S
C755 C754 1.372 . S
C755 C756 1.400 . S
C755 C760 1.490 . S
C756 H746 0.930 . S
C756 C755 1.400 . S
C756 C759 1.386 . S
H757 C773 0.930 . S
H758 C774 0.931 . S
C759 H747 0.929 . S
C759 C753 1.390 . S
C759 C756 1.386 . S
C760 C755 1.490 . S
C760 C762 1.395 . S
C760 C763 1.403 . S
H761 C767 0.930 1_565 S
C762 H748 0.930 . S
C762 C760 1.395 . S
C762 C765 1.403 . S
C763 C760 1.403 . S
C763 C764 1.524 . S
C763 C767 1.400 . S
C764 H749 0.960 . S
C764 H750 0.960 . S
C764 H751 0.960 . S
C764 C763 1.524 . S
C765 C762 1.403 . S
C765 C766 1.392 1_545 S
C765 C769 1.495 . S
C766 C765 1.392 1_565 S
C766 C767 1.385 1_565 S
C766 C768 1.478 . S
C767 H761 0.930 1_545 S
C767 C763 1.400 . S
C767 C766 1.385 1_545 S
C768 C766 1.478 . S
C768 C770 1.381 . S
C768 C774 1.383 . S
C769 C765 1.495 . S
C769 H775 0.959 . S
C769 H776 0.961 . S
C769 H777 0.960 . S
C770 C768 1.381 . S
C770 C771 1.394 . S
C770 H778 0.930 . S
C771 C770 1.394 . S
C771 C772 1.383 . S
C771 H779 0.929 . S
C772 C771 1.383 . S
C772 C773 1.377 . S
C773 H757 0.930 . S
C773 C772 1.377 . S
C773 C774 1.379 . S
C774 H758 0.931 . S
C774 C768 1.383 . S
C774 C773 1.379 . S
H775 C769 0.959 . S
H776 C769 0.961 . S
H777 C769 0.960 . S
H778 C770 0.930 . S
H779 C771 0.929 . S
C141 C94 0.422 . S
C160 C5 0.499 . S
C177 C115 1.314 . S
C196 C28 1.277 . S
C213 C49 2.266 . S
C232 C72 2.342 . S
C249 C9 2.339 . S
C268 C95 2.279 . S
C285 C119 1.294 . S
C304 C29 1.301 . S
C321 C53 0.431 . S
C340 C73 0.532 . S
C357 C6 1.271 . S
C376 C48 1.168 . S
C393 C27 1.131 . S
C412 C4 1.118 . S
C429 C50 1.157 . S
C448 C26 1.098 . S
C465 C75 1.272 . S
C484 C96 1.168 . S
C501 C97 1.157 . S
C520 C118 1.097 . S
C537 C74 1.092 . S
C556 C117 1.133 . S
C573 C8 1.158 . S
C592 C51 1.169 1_455 S
C609 C30 1.157 . S
C628 C7 1.183 . S
C645 C52 1.180 . S
C664 C31 1.237 . S
C681 C70 1.158 . S
C700 C93 1.167 1_545 S
C717 C92 1.178 . S
C736 C116 1.229 . S
C753 C71 1.182 . S
C772 C114 1.126 . S
