# Generated by pormake.
# Topology fni, (5)-cn, num edge types: 1
# Building blocks:
#     Node 0, Type 0, BuildingBlock: XOMCOT_clean_sbu_0, # of connection points: 5
#     Node 1, Type 0, BuildingBlock: XOMCOT_clean_sbu_0, # of connection points: 5
#     Node 2, Type 0, BuildingBlock: XOMCOT_clean_sbu_0, # of connection points: 5
#     Node 3, Type 0, BuildingBlock: XOMCOT_clean_sbu_0, # of connection points: 5
#     Node 4, Type 0, BuildingBlock: XOMCOT_clean_sbu_0, # of connection points: 5
#     Node 5, Type 0, BuildingBlock: XOMCOT_clean_sbu_0, # of connection points: 5
#     Node 6, Type 0, BuildingBlock: XOMCOT_clean_sbu_0, # of connection points: 5
#     Node 7, Type 0, BuildingBlock: XOMCOT_clean_sbu_0, # of connection points: 5
#     Edge 8, Type (0, 0), BuildingBlock: UVAHIK_clean_linker_0, # of connection points: 2
#     Edge 9, Type (0, 0), BuildingBlock: UVAHIK_clean_linker_0, # of connection points: 2
#     Edge 10, Type (0, 0), BuildingBlock: UVAHIK_clean_linker_0, # of connection points: 2
#     Edge 11, Type (0, 0), BuildingBlock: UVAHIK_clean_linker_0, # of connection points: 2
#     Edge 12, Type (0, 0), BuildingBlock: UVAHIK_clean_linker_0, # of connection points: 2
#     Edge 13, Type (0, 0), BuildingBlock: UVAHIK_clean_linker_0, # of connection points: 2
#     Edge 14, Type (0, 0), BuildingBlock: UVAHIK_clean_linker_0, # of connection points: 2
#     Edge 15, Type (0, 0), BuildingBlock: UVAHIK_clean_linker_0, # of connection points: 2
#     Edge 16, Type (0, 0), BuildingBlock: UVAHIK_clean_linker_0, # of connection points: 2
#     Edge 17, Type (0, 0), BuildingBlock: UVAHIK_clean_linker_0, # of connection points: 2
#     Edge 18, Type (0, 0), BuildingBlock: UVAHIK_clean_linker_0, # of connection points: 2
#     Edge 19, Type (0, 0), BuildingBlock: UVAHIK_clean_linker_0, # of connection points: 2
#     Edge 20, Type (0, 0), BuildingBlock: UVAHIK_clean_linker_0, # of connection points: 2
#     Edge 21, Type (0, 0), BuildingBlock: UVAHIK_clean_linker_0, # of connection points: 2
#     Edge 22, Type (0, 0), BuildingBlock: UVAHIK_clean_linker_0, # of connection points: 2
#     Edge 23, Type (0, 0), BuildingBlock: UVAHIK_clean_linker_0, # of connection points: 2
#     Edge 24, Type (0, 0), BuildingBlock: UVAHIK_clean_linker_0, # of connection points: 2
#     Edge 25, Type (0, 0), BuildingBlock: UVAHIK_clean_linker_0, # of connection points: 2
#     Edge 26, Type (0, 0), BuildingBlock: UVAHIK_clean_linker_0, # of connection points: 2
#     Edge 27, Type (0, 0), BuildingBlock: UVAHIK_clean_linker_0, # of connection points: 2
# Relax obj value: 0.073
# Max RMSD: 0.155
# Mean RMSD: 0.154
data_MOF--net-fni--node1-XOMCOT_clean_sbu_0--edge1-UVAHIK_clean_linker_0
_symmetry_space_group_name_H-M    P1
_symmetry_Int_Tables_number       1
_symmetry_cell_setting            triclinic
loop_
_symmetry_equiv_pos_as_xyz
'x, y, z'
_cell_length_a     68.539078
_cell_length_b     69.111488
_cell_length_c     22.089358
_cell_angle_alpha  89.590474
_cell_angle_beta   90.401824
_cell_angle_gamma 90.009779
loop_
_atom_site_label
_atom_site_type_symbol
_atom_site_fract_x
_atom_site_fract_y
_atom_site_fract_z
_atom_type_partial_charge
Co0 Co 0.3968 0.36263 0.01092 0.0
C1 C 0.39346 0.365 0.14422 0.0
C2 C 0.36555 0.36237 0.10019 0.0
C3 C 0.36267 0.36307 0.16166 0.0
N4 N 0.3848 0.36374 0.08938 0.0
N5 N 0.38021 0.3647 0.18931 0.0
H6 H 0.40908 0.36603 0.15086 0.0
H7 H 0.35442 0.3605 0.06584 0.0
C8 C 0.37222 0.3912 0.9364 0.0
O9 O 0.38742 0.39791 0.90706 0.0
N10 N 0.4086 0.3611 0.93137 0.0
C11 C 0.42776 0.36009 0.91811 0.0
C12 C 0.42981 0.35816 0.85666 0.0
C13 C 0.39929 0.35895 0.87769 0.0
N14 N 0.41191 0.35756 0.83117 0.0
C15 C 0.43174 0.38261 0.0445 0.0
C16 C 0.41679 0.41969 0.04544 0.0
C17 C 0.437 0.41709 0.05256 0.0
C18 C 0.44427 0.39818 0.05408 0.0
C19 C 0.40472 0.40358 0.03573 0.0
N20 N 0.41246 0.38541 0.03115 0.0
H21 H 0.43776 0.36824 0.04725 0.0
H22 H 0.38921 0.40588 0.03223 0.0
H23 H 0.43962 0.36023 0.95027 0.0
H24 H 0.38359 0.35824 0.87285 0.0
O25 O 0.41421 0.34248 0.04012 0.0
O26 O 0.38523 0.33744 0.99837 0.0
O27 O 0.37426 0.37835 0.97782 0.0
C28 C 0.40092 0.3302 0.02308 0.0
H29 H 0.34877 0.36182 0.18431 0.0
H30 H 0.4435 0.3575 0.83263 0.0
H31 H 0.41042 0.43402 0.04606 0.0
H32 H 0.4596 0.39538 0.06261 0.0
Co33 Co 0.63775 0.89415 0.24893 0.0
C34 C 0.6356 0.8895 0.38394 0.0
C35 C 0.64108 0.8628 0.33867 0.0
C36 C 0.64138 0.85936 0.4001 0.0
N37 N 0.63696 0.88162 0.32822 0.0
N38 N 0.63798 0.87619 0.42853 0.0
H39 H 0.6336 0.90465 0.39243 0.0
H40 H 0.64433 0.85235 0.30394 0.0
C41 C 0.61084 0.86033 0.23116 0.0
O42 O 0.60148 0.8652 0.28049 0.0
N43 N 0.63907 0.90621 0.17004 0.0
C44 C 0.63795 0.92526 0.15764 0.0
C45 C 0.63858 0.92782 0.0958 0.0
C46 C 0.64045 0.8974 0.11596 0.0
N47 N 0.64012 0.91029 0.06956 0.0
C48 C 0.61239 0.92227 0.30235 0.0
C49 C 0.58065 0.916 0.22729 0.0
C50 C 0.57951 0.93046 0.27125 0.0
C51 C 0.59563 0.9335 0.30916 0.0
C52 C 0.59758 0.90479 0.22292 0.0
N53 N 0.61301 0.90752 0.26161 0.0
H54 H 0.62522 0.92628 0.32764 0.0
H55 H 0.59854 0.89455 0.18641 0.0
H56 H 0.63639 0.93647 0.19118 0.0
H57 H 0.6417 0.8819 0.11081 0.0
O58 O 0.65557 0.91343 0.28061 0.0
O59 O 0.66431 0.88543 0.24078 0.0
O60 O 0.62478 0.87087 0.21158 0.0
C61 C 0.66952 0.90162 0.26588 0.0
H62 H 0.64472 0.8457 0.42209 0.0
H63 H 0.63743 0.94153 0.07208 0.0
H64 H 0.56869 0.91362 0.19588 0.0
H65 H 0.59566 0.94514 0.34173 0.0
Co66 Co 0.1072 0.13915 0.49196 0.0
C67 C 0.11054 0.13627 0.62512 0.0
C68 C 0.13858 0.13549 0.58238 0.0
C69 C 0.1413 0.1343 0.64407 0.0
N70 N 0.11931 0.13661 0.57067 0.0
N71 N 0.12368 0.13483 0.67088 0.0
H72 H 0.09489 0.13704 0.63098 0.0
H73 H 0.1499 0.13586 0.54854 0.0
C74 C 0.13075 0.10945 0.42116 0.0
O75 O 0.11514 0.10049 0.40093 0.0
N76 N 0.09527 0.1421 0.41203 0.0
C77 C 0.07677 0.14746 0.39891 0.0
C78 C 0.07457 0.14904 0.33721 0.0
C79 C 0.10424 0.14144 0.35774 0.0
N80 N 0.09185 0.14516 0.31123 0.0
C81 C 0.07171 0.11864 0.51426 0.0
C82 C 0.08779 0.08247 0.53351 0.0
C83 C 0.06739 0.08436 0.53243 0.0
C84 C 0.05947 0.10289 0.52449 0.0
C85 C 0.09956 0.09875 0.52306 0.0
N86 N 0.0914 0.11633 0.50957 0.0
H87 H 0.06525 0.13278 0.51137 0.0
H88 H 0.11521 0.09716 0.52578 0.0
H89 H 0.06566 0.15089 0.43137 0.0
H90 H 0.1197 0.13908 0.35222 0.0
O91 O 0.09013 0.15904 0.52331 0.0
O92 O 0.1191 0.16419 0.48229 0.0
O93 O 0.12934 0.12381 0.45687 0.0
C94 C 0.10363 0.1713 0.50757 0.0
H95 H 0.15523 0.13367 0.66744 0.0
H96 H 0.06122 0.15282 0.31351 0.0
H97 H 0.09461 0.06853 0.54137 0.0
H98 H 0.04388 0.10529 0.52689 0.0
Co99 Co 0.87124 0.61031 0.76207 0.0
C100 C 0.86704 0.60724 0.62726 0.0
C101 C 0.83962 0.6103 0.67178 0.0
C102 C 0.83635 0.61061 0.61034 0.0
N103 N 0.85882 0.60762 0.68281 0.0
N104 N 0.85363 0.60876 0.58221 0.0
H105 H 0.88252 0.60746 0.61939 0.0
H106 H 0.82874 0.6128 0.70604 0.0
C107 C 0.83814 0.58281 0.78389 0.0
O108 O 0.84387 0.57274 0.73701 0.0
N109 N 0.88332 0.61361 0.84064 0.0
C110 C 0.90263 0.61434 0.85195 0.0
C111 C 0.90553 0.61517 0.91359 0.0
C112 C 0.87469 0.61416 0.89535 0.0
N113 N 0.88797 0.61499 0.94089 0.0
C114 C 0.90031 0.58471 0.7142 0.0
C115 C 0.89663 0.55644 0.80247 0.0
C116 C 0.91177 0.55495 0.76054 0.0
C117 C 0.91328 0.56912 0.71524 0.0
C118 C 0.8837 0.57207 0.79906 0.0
N119 N 0.88548 0.58597 0.75497 0.0
H120 H 0.90328 0.59647 0.68356 0.0
H121 H 0.87314 0.57362 0.83468 0.0
H122 H 0.91384 0.6138 0.81778 0.0
H123 H 0.85909 0.61329 0.9018 0.0
O124 O 0.89018 0.62783 0.72689 0.0
O125 O 0.86163 0.63648 0.76477 0.0
O126 O 0.84806 0.59743 0.8014 0.0
C127 C 0.87779 0.64157 0.73849 0.0
H128 H 0.82234 0.6126 0.58832 0.0
H129 H 0.91953 0.61576 0.93646 0.0
H130 H 0.89522 0.54599 0.83896 0.0
H131 H 0.92524 0.56888 0.68343 0.0
Co132 Co 0.36445 0.10512 0.26044 0.0
C133 C 0.3666 0.1085 0.39387 0.0
C134 C 0.36446 0.13621 0.34967 0.0
C135 C 0.3649 0.13904 0.41123 0.0
N136 N 0.36566 0.11711 0.33891 0.0
N137 N 0.36622 0.12162 0.43905 0.0
H138 H 0.3674 0.093 0.4005 0.0
H139 H 0.36284 0.14729 0.31521 0.0
C140 C 0.39173 0.12974 0.18332 0.0
O141 O 0.39818 0.11459 0.15393 0.0
N142 N 0.36279 0.09323 0.1811 0.0
C143 C 0.36337 0.07421 0.16792 0.0
C144 C 0.36113 0.07199 0.1065 0.0
C145 C 0.35939 0.10222 0.1275 0.0
N146 N 0.35878 0.08961 0.081 0.0
C147 C 0.3858 0.0712 0.29692 0.0
C148 C 0.42277 0.08687 0.28947 0.0
C149 C 0.4208 0.06695 0.29992 0.0
C150 C 0.40202 0.05928 0.306 0.0
C151 C 0.4061 0.09836 0.28194 0.0
N152 N 0.38791 0.09022 0.28087 0.0
H153 H 0.37148 0.0649 0.30124 0.0
H154 H 0.40804 0.11374 0.27708 0.0
H155 H 0.365 0.06255 0.20013 0.0
H156 H 0.3575 0.1177 0.12264 0.0
O157 O 0.3445 0.08743 0.28956 0.0
O158 O 0.33891 0.11611 0.24765 0.0
O159 O 0.3796 0.12777 0.2266 0.0
C160 C 0.3319 0.10046 0.27214 0.0
H161 H 0.36365 0.15284 0.43373 0.0
H162 H 0.36161 0.05842 0.08241 0.0
H163 H 0.43707 0.09349 0.28718 0.0
H164 H 0.39984 0.04403 0.31545 0.0
Co165 Co 0.89017 0.87255 0.53235 0.0
C166 C 0.88611 0.87407 0.66551 0.0
C167 C 0.85832 0.87381 0.62005 0.0
C168 C 0.85521 0.87371 0.68151 0.0
N169 N 0.87766 0.87412 0.61014 0.0
N170 N 0.87269 0.87379 0.71019 0.0
H171 H 0.90174 0.87357 0.67272 0.0
H172 H 0.84724 0.87321 0.58506 0.0
C173 C 0.86749 0.90179 0.45581 0.0
O174 O 0.88344 0.90822 0.42982 0.0
N175 N 0.90257 0.87051 0.4535 0.0
C176 C 0.92178 0.86879 0.44179 0.0
C177 C 0.92434 0.86742 0.38035 0.0
C178 C 0.89369 0.86914 0.39874 0.0
N179 N 0.90669 0.86784 0.35311 0.0
C180 C 0.92531 0.89235 0.56655 0.0
C181 C 0.90999 0.92926 0.5691 0.0
C182 C 0.93022 0.92687 0.57606 0.0
C183 C 0.93772 0.90801 0.57676 0.0
C184 C 0.89809 0.9131 0.55924 0.0
N185 N 0.90601 0.89507 0.55338 0.0
H186 H 0.93138 0.87798 0.56877 0.0
H187 H 0.88253 0.91524 0.55662 0.0
H188 H 0.93332 0.868 0.47499 0.0
H189 H 0.87804 0.86944 0.39236 0.0
O190 O 0.90686 0.85211 0.56372 0.0
O191 O 0.87811 0.84772 0.5194 0.0
O192 O 0.86835 0.88868 0.49682 0.0
C193 C 0.89329 0.84018 0.54612 0.0
H194 H 0.84112 0.87348 0.70324 0.0
H195 H 0.93819 0.86589 0.35765 0.0
H196 H 0.9034 0.94347 0.57135 0.0
H197 H 0.95315 0.90533 0.58342 0.0
Co198 Co 0.13858 0.3962 0.75235 0.0
C199 C 0.137 0.39243 0.8857 0.0
C200 C 0.14086 0.36498 0.84244 0.0
C201 C 0.14066 0.36204 0.9041 0.0
N202 N 0.13843 0.38398 0.83106 0.0
N203 N 0.13826 0.37931 0.93131 0.0
H204 H 0.13515 0.40784 0.89179 0.0
H205 H 0.14309 0.35408 0.80833 0.0
C206 C 0.1114 0.37071 0.67774 0.0
O207 O 0.10382 0.38563 0.64886 0.0
N208 N 0.13916 0.4083 0.67264 0.0
C209 C 0.13826 0.42732 0.65885 0.0
C210 C 0.13998 0.42965 0.59728 0.0
C211 C 0.14222 0.39942 0.61918 0.0
N212 N 0.14234 0.41208 0.57225 0.0
C213 C 0.11529 0.42909 0.7858 0.0
C214 C 0.07969 0.41036 0.78563 0.0
C215 C 0.08008 0.43049 0.79218 0.0
C216 C 0.09823 0.43978 0.79474 0.0
C217 C 0.09713 0.40022 0.77801 0.0
N218 N 0.11451 0.4098 0.77301 0.0
H219 H 0.12914 0.43647 0.78822 0.0
H220 H 0.09647 0.38467 0.77624 0.0
H221 H 0.1369 0.43895 0.69071 0.0
H222 H 0.14441 0.38399 0.61482 0.0
O223 O 0.15803 0.41458 0.78111 0.0
O224 O 0.16437 0.38632 0.73899 0.0
O225 O 0.12421 0.37307 0.7193 0.0
C226 C 0.17099 0.40203 0.76366 0.0
H227 H 0.14275 0.34832 0.92711 0.0
H228 H 0.13925 0.44326 0.57285 0.0
H229 H 0.066 0.40252 0.78647 0.0
H230 H 0.09922 0.45525 0.8016 0.0
Co231 Co 0.61366 0.62971 0.03607 0.0
C232 C 0.61762 0.62881 0.16961 0.0
C233 C 0.64526 0.63182 0.12536 0.0
C234 C 0.64833 0.63224 0.18691 0.0
N235 N 0.62605 0.62957 0.11465 0.0
N236 N 0.63095 0.63042 0.2148 0.0
H237 H 0.60202 0.62775 0.17614 0.0
H238 H 0.65622 0.63353 0.0908 0.0
C239 C 0.63878 0.60118 0.96529 0.0
O240 O 0.62365 0.59371 0.937 0.0
N241 N 0.60137 0.63027 0.95641 0.0
C242 C 0.58211 0.63058 0.94355 0.0
C243 C 0.57955 0.63144 0.8819 0.0
C244 C 0.61023 0.63188 0.90207 0.0
N245 N 0.59723 0.63208 0.8557 0.0
C246 C 0.5795 0.60887 0.07226 0.0
C247 C 0.59566 0.57232 0.07611 0.0
C248 C 0.57541 0.57424 0.08329 0.0
C249 C 0.56752 0.59294 0.08316 0.0
C250 C 0.60716 0.58876 0.06543 0.0
N251 N 0.5988 0.60664 0.05916 0.0
H252 H 0.57301 0.62306 0.07337 0.0
H253 H 0.62273 0.58695 0.0626 0.0
H254 H 0.57049 0.63077 0.97608 0.0
H255 H 0.62589 0.63259 0.89655 0.0
O256 O 0.59584 0.64956 0.06333 0.0
O257 O 0.62441 0.65508 0.0204 0.0
O258 O 0.63652 0.61441 1.00474 0.0
C259 C 0.60875 0.66205 0.04499 0.0
H260 H 0.66233 0.63385 0.20922 0.0
H261 H 0.56567 0.63193 0.85828 0.0
H262 H 0.60258 0.55826 0.07883 0.0
H263 H 0.55205 0.59532 0.08955 0.0
C264 C 0.56552 0.54058 0.05299 0.0
C265 C 0.5624 0.55703 0.0888 0.0
C266 C 0.55222 0.52521 0.05351 0.0
C267 C 0.50059 0.51443 0.08564 0.0
H268 H 0.51765 0.46102 0.07968 0.0
C269 C 0.4464 0.44972 0.09448 0.0
C270 C 0.45066 0.43376 0.05776 0.0
C271 C 0.45989 0.46485 0.10086 0.0
C272 C 0.51261 0.47587 0.08065 0.0
H273 H 0.54327 0.56964 0.15573 0.0
H274 H 0.52006 0.5429 0.15631 0.0
H275 H 0.54179 0.48679 0.08735 0.0
H276 H 0.47201 0.42163 0.9968 0.0
H277 H 0.49528 0.44795 1.00721 0.0
H278 H 0.47143 0.50354 0.07801 0.0
C279 C 0.53263 0.54207 0.12698 0.0
C280 C 0.52648 0.49064 0.08518 0.0
C281 C 0.54596 0.5574 0.12664 0.0
C282 C 0.46845 0.43351 0.02648 0.0
C283 C 0.48184 0.44861 0.0326 0.0
C284 C 0.48671 0.49965 0.08086 0.0
C285 C 0.53544 0.52591 0.08978 0.0
C286 C 0.52066 0.51012 0.08735 0.0
C287 C 0.47787 0.46438 0.0704 0.0
C288 C 0.49254 0.48017 0.0778 0.0
H289 H 0.57785 0.53989 0.0227 0.0
H290 H 0.55474 0.51307 0.02384 0.0
H291 H 0.49561 0.5293 0.08639 0.0
H292 H 0.43288 0.45028 0.11948 0.0
H293 H 0.45639 0.47669 0.13072 0.0
C294 C 0.44049 0.04033 0.34845 0.0
C295 C 0.43809 0.05405 0.30181 0.0
C296 C 0.4561 0.02729 0.34762 0.0
C297 C 0.5036 0.01745 0.2701 0.0
H298 H 0.49523 0.96558 0.33285 0.0
C299 C 0.55547 0.95323 0.22305 0.0
C300 C 0.56229 0.94338 0.27486 0.0
C301 C 0.54024 0.96661 0.2273 0.0
C302 C 0.49776 0.98004 0.31541 0.0
H303 H 0.45 0.06486 0.21765 0.0
H304 H 0.47674 0.04173 0.21459 0.0
H305 H 0.4691 0.98942 0.33867 0.0
H306 H 0.55828 0.93936 0.37129 0.0
H307 H 0.53116 0.96238 0.3784 0.0
H308 H 0.53206 0.00762 0.24477 0.0
C309 C 0.46708 0.04134 0.25313 0.0
C310 C 0.48285 0.99381 0.31912 0.0
C311 C 0.45169 0.0546 0.25464 0.0
C312 C 0.55327 0.94678 0.33071 0.0
C313 C 0.53776 0.95987 0.33473 0.0
C314 C 0.51834 0.00356 0.26537 0.0
C315 C 0.46948 0.02738 0.29942 0.0
C316 C 0.48554 0.01276 0.29655 0.0
C317 C 0.5313 0.97011 0.28322 0.0
C318 C 0.51557 0.98475 0.28802 0.0
H319 H 0.43026 0.0397 0.38559 0.0
H320 H 0.45763 0.01713 0.38486 0.0
H321 H 0.50649 0.03192 0.2534 0.0
H322 H 0.5623 0.95099 0.17957 0.0
H323 H 0.53544 0.97426 0.18688 0.0
C324 C 0.9599 0.94348 0.61925 0.0
C325 C 0.94353 0.94384 0.58046 0.0
C326 C 0.97325 0.9588 0.61942 0.0
C327 C 0.97927 0.01011 0.57219 0.0
H328 H 0.03448 0.99777 0.57413 0.0
C329 C 0.03709 0.06613 0.50445 0.0
C330 C 0.0542 0.0674 0.53971 0.0
C331 C 0.02396 0.05094 0.51287 0.0
C332 C 0.01913 0.00148 0.57432 0.0
H333 H 0.92832 0.96075 0.51185 0.0
H334 H 0.95153 0.98741 0.51213 0.0
H335 H 0.01048 0.97184 0.58412 0.0
H336 H 0.0711 0.05334 0.61073 0.0
H337 H 0.04812 0.02661 0.62529 0.0
H338 H 0.98788 0.03968 0.56156 0.0
C339 C 0.95393 0.97542 0.5431 0.0
C340 C 0.00536 0.98662 0.58013 0.0
C341 C 0.94059 0.96012 0.54297 0.0
C342 C 0.05813 0.05273 0.58255 0.0
C343 C 0.04495 0.03744 0.59095 0.0
C344 C 0.99301 0.02493 0.56628 0.0
C345 C 0.97055 0.97486 0.58083 0.0
C346 C 0.98524 0.99074 0.57841 0.0
C347 C 0.02758 0.03653 0.55671 0.0
C348 C 0.0131 0.02078 0.56647 0.0
H349 H 0.96245 0.9313 0.6494 0.0
H350 H 0.9857 0.95805 0.6498 0.0
H351 H 0.96393 0.01386 0.57187 0.0
H352 H 0.03382 0.07693 0.47007 0.0
H353 H 0.01098 0.05043 0.4847 0.0
C354 C 0.04724 0.43903 0.7498 0.0
C355 C 0.06168 0.44176 0.79429 0.0
C356 C 0.03031 0.45032 0.74921 0.0
C357 C 0.01015 0.4963 0.81121 0.0
H358 H 0.9615 0.47583 0.74777 0.0
C359 C 0.93678 0.53752 0.82354 0.0
C360 C 0.92715 0.53998 0.76762 0.0
C361 C 0.95249 0.52472 0.82923 0.0
C362 C 0.97502 0.48172 0.76547 0.0
H363 H 0.06953 0.45801 0.87421 0.0
H364 H 0.03962 0.47717 0.87517 0.0
H365 H 0.99004 0.45485 0.75557 0.0
H366 H 0.92603 0.53063 0.67431 0.0
H367 H 0.95323 0.50774 0.68473 0.0
H368 H 0.99476 0.52303 0.82261 0.0
C369 C 0.04157 0.46681 0.83922 0.0
C370 C 0.99146 0.46976 0.76963 0.0
C371 C 0.05868 0.45574 0.83906 0.0
C372 C 0.9332 0.52898 0.7179 0.0
C373 C 0.94868 0.51587 0.72392 0.0
C374 C 0.99361 0.50812 0.80811 0.0
C375 C 0.02721 0.46444 0.79382 0.0
C376 C 0.00936 0.47692 0.79198 0.0
C377 C 0.95867 0.51385 0.7794 0.0
C378 C 0.97594 0.501 0.7847 0.0
H379 H 0.0493 0.42851 0.71426 0.0
H380 H 0.01992 0.44826 0.7127 0.0
H381 H 0.02366 0.50258 0.82745 0.0
H382 H 0.93256 0.54599 0.86241 0.0
H383 H 0.9599 0.52337 0.87253 0.0
C384 C 0.40113 0.35739 0.27836 0.0
C385 C 0.38379 0.36501 0.25369 0.0
C386 C 0.40402 0.35672 0.3411 0.0
C387 C 0.37674 0.35761 0.48532 0.0
H388 H 0.42771 0.36774 0.55536 0.0
C389 C 0.39035 0.36518 0.74374 0.0
C390 C 0.40751 0.35678 0.76728 0.0
C391 C 0.38698 0.36584 0.68118 0.0
C392 C 0.41342 0.36467 0.53645 0.0
H393 H 0.35626 0.37864 0.27545 0.0
H394 H 0.36136 0.37768 0.38464 0.0
H395 H 0.42311 0.37019 0.44609 0.0
H396 H 0.43405 0.34162 0.74362 0.0
H397 H 0.42819 0.34278 0.63487 0.0
H398 H 0.36706 0.35222 0.57591 0.0
C399 C 0.37253 0.37176 0.3557 0.0
C400 C 0.41079 0.36607 0.47378 0.0
C401 C 0.36962 0.37235 0.29307 0.0
C402 C 0.42089 0.34854 0.72699 0.0
C403 C 0.41754 0.34923 0.66461 0.0
C404 C 0.37936 0.35628 0.54805 0.0
C405 C 0.38967 0.36375 0.38057 0.0
C406 C 0.39243 0.3625 0.44739 0.0
C407 C 0.4007 0.35813 0.64089 0.0
C408 C 0.39776 0.35971 0.5743 0.0
H409 H 0.41222 0.35141 0.24931 0.0
H410 H 0.4173 0.35023 0.35869 0.0
H411 H 0.36247 0.35447 0.46647 0.0
H412 H 0.37986 0.37185 0.77344 0.0
H413 H 0.37392 0.37293 0.66429 0.0
C414 C 0.63446 0.88818 0.98312 0.0
C415 C 0.64048 0.90626 1.00544 0.0
C416 C 0.63424 0.88457 0.92083 0.0
C417 C 0.63249 0.90976 0.77277 0.0
H418 H 0.65054 0.86074 0.70986 0.0
C419 C 0.64332 0.89749 0.51689 0.0
C420 C 0.638 0.87941 0.49307 0.0
C421 C 0.64349 0.90053 0.57942 0.0
C422 C 0.64522 0.87442 0.72669 0.0
H423 H 0.65157 0.93449 0.97927 0.0
H424 H 0.65109 0.92823 0.87103 0.0
H425 H 0.65118 0.86633 0.81881 0.0
H426 H 0.62841 0.85046 0.51654 0.0
H427 H 0.62856 0.85576 0.62556 0.0
H428 H 0.62643 0.91785 0.68089 0.0
C429 C 0.64622 0.91695 0.90166 0.0
C430 C 0.6456 0.87763 0.78918 0.0
C431 C 0.64649 0.92053 0.96385 0.0
C432 C 0.63283 0.86446 0.53338 0.0
C433 C 0.63294 0.86751 0.59594 0.0
C434 C 0.63205 0.90654 0.71036 0.0
C435 C 0.63999 0.89897 0.87933 0.0
C436 C 0.63933 0.89538 0.81295 0.0
C437 C 0.63829 0.88559 0.6198 0.0
C438 C 0.63849 0.88886 0.68644 0.0
H439 H 0.62948 0.87692 0.01356 0.0
H440 H 0.62915 0.87063 0.90511 0.0
H441 H 0.62723 0.92346 0.78963 0.0
H442 H 0.64773 0.90923 0.48735 0.0
H443 H 0.64802 0.91453 0.59616 0.0
C444 C 0.10373 0.14453 0.75855 0.0
C445 C 0.11996 0.13478 0.73506 0.0
C446 C 0.10073 0.14528 0.82108 0.0
C447 C 0.12703 0.13974 0.9676 0.0
H448 H 0.07478 0.13707 0.03324 0.0
C449 C 0.11144 0.13354 0.22484 0.0
C450 C 0.09596 0.14474 0.24721 0.0
C451 C 0.11471 0.13231 0.16251 0.0
C452 C 0.08945 0.13802 0.01555 0.0
H453 H 0.14534 0.11755 0.75869 0.0
H454 H 0.13999 0.11859 0.86753 0.0
H455 H 0.07947 0.13441 0.92435 0.0
H456 H 0.07231 0.16401 0.22117 0.0
H457 H 0.07793 0.16174 0.11287 0.0
H458 H 0.13697 0.1432 0.05907 0.0
C459 C 0.12984 0.12611 0.83786 0.0
C460 C 0.09215 0.13652 0.95309 0.0
C461 C 0.13289 0.12546 0.77542 0.0
C462 C 0.0841 0.15495 0.20571 0.0
C463 C 0.08732 0.15365 0.14351 0.0
C464 C 0.12433 0.14115 0.03012 0.0
C465 C 0.11382 0.13619 0.86158 0.0
C466 C 0.11096 0.13744 0.92825 0.0
C467 C 0.10254 0.14219 0.12112 0.0
C468 C 0.1055 0.1404 0.05478 0.0
H469 H 0.09365 0.15207 0.72874 0.0
H470 H 0.08839 0.15341 0.83769 0.0
H471 H 0.1417 0.14083 0.95006 0.0
H472 H 0.12071 0.12529 0.2553 0.0
H473 H 0.12645 0.12322 0.14665 0.0
C474 C 0.89831 0.60698 0.04568 0.0
C475 C 0.88433 0.61463 1.00523 0.0
C476 C 0.89489 0.60659 0.10797 0.0
C477 C 0.85527 0.60907 0.22115 0.0
H478 H 0.89793 0.61968 0.33233 0.0
C479 C 0.84358 0.61854 0.47827 0.0
C480 C 0.85716 0.60969 0.51775 0.0
C481 C 0.84689 0.6193 0.4159 0.0
C482 C 0.88591 0.61649 0.30192 0.0
H483 H 0.85579 0.628 0.99895 0.0
H484 H 0.84984 0.62749 0.10779 0.0
H485 H 0.90355 0.62099 0.22353 0.0
H486 H 0.88487 0.59456 0.52177 0.0
H487 H 0.8907 0.59603 0.41305 0.0
H488 H 0.83762 0.60471 0.29971 0.0
C489 C 0.86337 0.6215 0.09118 0.0
C490 C 0.88912 0.61722 0.23947 0.0
C491 C 0.86677 0.62182 0.02873 0.0
C492 C 0.87421 0.60172 0.49305 0.0
C493 C 0.87756 0.60255 0.43062 0.0
C494 C 0.85204 0.60842 0.28362 0.0
C495 C 0.8774 0.61389 0.13165 0.0
C496 C 0.87386 0.61346 0.19822 0.0
C497 C 0.8639 0.6113 0.39127 0.0
C498 C 0.86733 0.61207 0.32478 0.0
H499 H 0.91183 0.60096 0.02919 0.0
H500 H 0.90587 0.60025 0.13751 0.0
H501 H 0.84324 0.60579 0.19087 0.0
H502 H 0.83046 0.62517 0.49542 0.0
H503 H 0.83623 0.62643 0.38702 0.0
C504 C 0.36494 0.11141 0.99368 0.0
C505 C 0.35762 0.0939 0.01705 0.0
C506 C 0.3654 0.11474 0.9311 0.0
C507 C 0.36568 0.08833 0.78618 0.0
H508 H 0.35354 0.13847 0.7158 0.0
C509 C 0.35877 0.10062 0.52737 0.0
C510 C 0.36616 0.11804 0.50352 0.0
C511 C 0.35784 0.09766 0.59004 0.0
C512 C 0.3572 0.12443 0.73478 0.0
H513 H 0.34418 0.06659 0.99303 0.0
H514 H 0.3449 0.07241 0.88422 0.0
H515 H 0.35115 0.13373 0.82504 0.0
H516 H 0.37905 0.14566 0.52708 0.0
H517 H 0.37752 0.14046 0.63604 0.0
H518 H 0.3718 0.07903 0.69607 0.0
C519 C 0.35069 0.0834 0.91409 0.0
C520 C 0.35581 0.12172 0.79743 0.0
C521 C 0.35024 0.08008 0.97651 0.0
C522 C 0.37294 0.13223 0.54385 0.0
C523 C 0.37203 0.12926 0.60641 0.0
C524 C 0.36709 0.09104 0.72358 0.0
C525 C 0.35854 0.10064 0.89053 0.0
C526 C 0.35999 0.10362 0.82389 0.0
C527 C 0.36431 0.11201 0.63035 0.0
C528 C 0.36286 0.10912 0.69706 0.0
H529 H 0.37097 0.12226 0.02357 0.0
H530 H 0.37171 0.12811 0.91447 0.0
H531 H 0.36935 0.07429 0.80516 0.0
H532 H 0.35321 0.08949 0.4977 0.0
H533 H 0.3516 0.08428 0.60689 0.0
C534 C 0.88491 0.86158 0.26501 0.0
C535 C 0.90286 0.86801 0.28868 0.0
C536 C 0.88138 0.86186 0.20242 0.0
C537 C 0.90716 0.86412 0.05503 0.0
H538 H 0.85664 0.87978 0.9918 0.0
C539 C 0.89372 0.87962 0.80015 0.0
C540 C 0.87612 0.8729 0.77482 0.0
C541 C 0.8969 0.87883 0.86282 0.0
C542 C 0.87078 0.87518 0.00872 0.0
H543 H 0.93088 0.88039 0.26474 0.0
H544 H 0.92476 0.88092 0.15644 0.0
H545 H 0.86209 0.87853 0.10102 0.0
H546 H 0.84826 0.85963 0.7961 0.0
H547 H 0.85377 0.85836 0.90485 0.0
H548 H 0.91588 0.86088 0.96275 0.0
C549 C 0.91355 0.87521 0.18591 0.0
C550 C 0.87389 0.87443 0.0714 0.0
C551 C 0.91708 0.87489 0.24825 0.0
C552 C 0.86183 0.8653 0.81383 0.0
C553 C 0.86499 0.86455 0.87638 0.0
C554 C 0.90406 0.86491 0.99241 0.0
C555 C 0.89571 0.86863 0.16206 0.0
C556 C 0.89215 0.86896 0.09537 0.0
C557 C 0.88255 0.87132 0.90172 0.0
C558 C 0.88584 0.87049 0.96844 0.0
H559 H 0.87369 0.85605 0.29471 0.0
H560 H 0.86754 0.8565 0.1856 0.0
H561 H 0.92131 0.85951 0.07183 0.0
H562 H 0.90495 0.88578 0.77172 0.0
H563 H 0.9105 0.8844 0.8809 0.0
C564 C 0.15028 0.42197 0.46746 0.0
C565 C 0.14348 0.40789 0.50844 0.0
C566 C 0.15001 0.41857 0.40521 0.0
C567 C 0.1471 0.37991 0.29073 0.0
H568 H 0.12935 0.42157 0.18543 0.0
C569 C 0.13197 0.36824 0.03611 0.0
C570 C 0.13799 0.38283 0.99564 0.0
C571 C 0.13243 0.37127 0.09859 0.0
C572 C 0.13456 0.40986 0.21406 0.0
H573 H 0.13129 0.37902 0.51581 0.0
H574 H 0.13092 0.37302 0.407 0.0
H575 H 0.13107 0.42658 0.29441 0.0
H576 H 0.1492 0.4121 0.98944 0.0
H577 H 0.15009 0.41739 0.09846 0.0
H578 H 0.15067 0.3632 0.21035 0.0
C579 C 0.13662 0.38666 0.42323 0.0
C580 C 0.13555 0.41273 0.27659 0.0
C581 C 0.13687 0.39008 0.48564 0.0
C582 C 0.14423 0.40064 0.01922 0.0
C583 C 0.14474 0.40367 0.08179 0.0
C584 C 0.14616 0.37705 0.22813 0.0
C585 C 0.14295 0.40098 0.38223 0.0
C586 C 0.14187 0.39781 0.3157 0.0
C587 C 0.13896 0.38897 0.1223 0.0
C588 C 0.13989 0.39199 0.18898 0.0
H589 H 0.1558 0.43569 0.48346 0.0
H590 H 0.15538 0.42975 0.375 0.0
H591 H 0.15226 0.3682 0.31948 0.0
H592 H 0.12675 0.35448 0.01949 0.0
H593 H 0.1275 0.35977 0.12832 0.0
C594 C 0.61837 0.64013 0.76829 0.0
C595 C 0.60112 0.63207 0.79155 0.0
C596 C 0.62185 0.6402 0.70585 0.0
C597 C 0.59615 0.63585 0.55805 0.0
H598 H 0.64782 0.62508 0.49648 0.0
C599 C 0.61069 0.62231 0.30406 0.0
C600 C 0.62747 0.63087 0.27921 0.0
C601 C 0.60752 0.62261 0.36659 0.0
C602 C 0.63334 0.62831 0.51297 0.0
H603 H 0.57438 0.61712 0.76736 0.0
H604 H 0.58044 0.61717 0.65924 0.0
H605 H 0.64246 0.62549 0.60555 0.0
H606 H 0.65381 0.6469 0.30107 0.0
H607 H 0.64834 0.64729 0.40961 0.0
H608 H 0.58701 0.63854 0.46549 0.0
C609 C 0.59108 0.62389 0.68886 0.0
C610 C 0.63028 0.62857 0.57551 0.0
C611 C 0.58759 0.62387 0.75102 0.0
C612 C 0.64092 0.63981 0.31848 0.0
C613 C 0.63778 0.64007 0.38088 0.0
C614 C 0.5992 0.63553 0.49557 0.0
C615 C 0.60818 0.63215 0.66535 0.0
C616 C 0.61163 0.63229 0.59885 0.0
C617 C 0.62108 0.63144 0.40574 0.0
C618 C 0.61782 0.63172 0.47226 0.0
H619 H 0.62902 0.64669 0.79816 0.0
H620 H 0.6351 0.64686 0.68925 0.0
H621 H 0.58167 0.6391 0.5744 0.0
H622 H 0.60014 0.61509 0.27539 0.0
H623 H 0.5946 0.61563 0.38438 0.0
C624 C 0.20521 0.39019 0.75515 0.0
C625 C 0.19221 0.40462 0.77406 0.0
C626 C 0.22503 0.39133 0.76934 0.0
C627 C 0.26516 0.42318 0.81719 0.0
H628 H 0.286 0.37584 0.88736 0.0
C629 C 0.34805 0.40693 0.86468 0.0
C630 C 0.35215 0.39743 0.91989 0.0
C631 C 0.32866 0.41042 0.8467 0.0
C632 C 0.28041 0.3892 0.86808 0.0
H633 H 0.18999 0.43206 0.8204 0.0
H634 H 0.22493 0.43409 0.84523 0.0
H635 H 0.25208 0.37701 0.8545 0.0
H636 H 0.33912 0.38547 1.00126 0.0
H637 H 0.30564 0.39144 0.96991 0.0
H638 H 0.29377 0.43527 0.83096 0.0
C639 C 0.21963 0.4219 0.81932 0.0
C640 C 0.26101 0.38983 0.84876 0.0
C641 C 0.19965 0.4207 0.80533 0.0
C642 C 0.33654 0.39248 0.95797 0.0
C643 C 0.3173 0.39589 0.94002 0.0
C644 C 0.28477 0.42248 0.83598 0.0
C645 C 0.23242 0.40696 0.80264 0.0
C646 C 0.25313 0.40678 0.8231 0.0
C647 C 0.31309 0.4044 0.88355 0.0
C648 C 0.29252 0.40549 0.86204 0.0
H649 H 0.20003 0.37767 0.73054 0.0
H650 H 0.23457 0.37975 0.75506 0.0
H651 H 0.25947 0.43642 0.79733 0.0
H652 H 0.35973 0.41093 0.83431 0.0
H653 H 0.32582 0.41699 0.80285 0.0
C654 C 0.61807 0.83567 0.15185 0.0
C655 C 0.60702 0.8414 0.20207 0.0
C656 C 0.61636 0.81697 0.12881 0.0
C657 C 0.58569 0.77298 0.12672 0.0
H658 H 0.63501 0.74696 0.10077 0.0
C659 C 0.59171 0.69002 0.09324 0.0
C660 C 0.60634 0.68306 0.05483 0.0
C661 C 0.5905 0.70976 0.10648 0.0
C662 C 0.62107 0.75404 0.10664 0.0
H663 H 0.58476 0.83221 0.2654 0.0
H664 H 0.58175 0.79951 0.22488 0.0
H665 H 0.63481 0.78067 0.13104 0.0
H666 H 0.63064 0.69141 0.99808 0.0
H667 H 0.62822 0.72583 0.01962 0.0
H668 H 0.57194 0.7463 0.10217 0.0
C669 C 0.59174 0.80955 0.20344 0.0
C670 C 0.62097 0.77341 0.12419 0.0
C671 C 0.59351 0.82827 0.22676 0.0
C672 C 0.61931 0.69631 0.02829 0.0
C673 C 0.61799 0.71605 0.04103 0.0
C674 C 0.58577 0.75359 0.10865 0.0
C675 C 0.6035 0.80355 0.15516 0.0
C676 C 0.60331 0.78311 0.13462 0.0
C677 C 0.60381 0.72301 0.0812 0.0
C678 C 0.60349 0.74384 0.09856 0.0
H679 H 0.62851 0.84542 0.1313 0.0
H680 H 0.62538 0.8129 0.0909 0.0
H681 H 0.57184 0.78011 0.13398 0.0
H682 H 0.58155 0.68014 0.1146 0.0
H683 H 0.57953 0.71451 0.13811 0.0
C684 C 0.30276 0.08012 0.29913 0.0
C685 C 0.31065 0.09793 0.28037 0.0
C686 C 0.28258 0.07804 0.30702 0.0
C687 C 0.23525 0.10251 0.26996 0.0
H688 H 0.21589 0.07394 0.40886 0.0
C689 C 0.16422 0.11956 0.3924 0.0
C690 C 0.15029 0.10473 0.3976 0.0
C691 C 0.18286 0.11566 0.37098 0.0
C692 C 0.2211 0.08166 0.36929 0.0
H693 H 0.30364 0.12756 0.25582 0.0
H694 H 0.26883 0.1242 0.27127 0.0
H695 H 0.25074 0.07312 0.38539 0.0
H696 H 0.14496 0.07413 0.38469 0.0
H697 H 0.17825 0.06712 0.34893 0.0
H698 H 0.20578 0.11208 0.25664 0.0
C699 C 0.27796 0.11158 0.27818 0.0
C700 C 0.24104 0.0812 0.35571 0.0
C701 C 0.29802 0.11359 0.26979 0.0
C702 C 0.15543 0.08582 0.38093 0.0
C703 C 0.17439 0.0818 0.36075 0.0
C704 C 0.21545 0.10319 0.28412 0.0
C705 C 0.26991 0.09378 0.29668 0.0
C706 C 0.24846 0.09209 0.30682 0.0
C707 C 0.18817 0.09677 0.35537 0.0
C708 C 0.20829 0.09314 0.33464 0.0
H709 H 0.31215 0.06776 0.30745 0.0
H710 H 0.27692 0.06407 0.32081 0.0
H711 H 0.24028 0.11063 0.23096 0.0
H712 H 0.16066 0.13431 0.40445 0.0
H713 H 0.19329 0.1274 0.36748 0.0
C714 C 0.86886 0.67658 0.74013 0.0
C715 C 0.8814 0.66188 0.72052 0.0
C716 C 0.87151 0.69567 0.72073 0.0
C717 C 0.87197 0.73166 0.64306 0.0
H718 H 0.92326 0.75429 0.62203 0.0
C719 C 0.88078 0.80655 0.53283 0.0
C720 C 0.89433 0.81922 0.55927 0.0
C721 C 0.88051 0.78699 0.54913 0.0
C722 C 0.90883 0.74823 0.62803 0.0
H723 H 0.90676 0.65567 0.66588 0.0
H724 H 0.91117 0.68898 0.63087 0.0
H725 H 0.92031 0.72123 0.66052 0.0
H726 H 0.9186 0.82128 0.62232 0.0
H727 H 0.91787 0.78719 0.65196 0.0
H728 H 0.86041 0.75874 0.61274 0.0
C729 C 0.89947 0.68583 0.6621 0.0
C730 C 0.90714 0.72919 0.64945 0.0
C731 C 0.89689 0.66672 0.68194 0.0
C732 C 0.90802 0.81183 0.60101 0.0
C733 C 0.90764 0.79226 0.6178 0.0
C734 C 0.87365 0.75067 0.622 0.0
C735 C 0.88666 0.70051 0.68072 0.0
C736 C 0.88867 0.72069 0.65747 0.0
C737 C 0.89364 0.77967 0.59282 0.0
C738 C 0.89209 0.75923 0.61416 0.0
H739 H 0.85688 0.67334 0.77028 0.0
H740 H 0.86162 0.70664 0.7371 0.0
H741 H 0.85751 0.72553 0.64769 0.0
H742 H 0.87016 0.81179 0.50007 0.0
H743 H 0.86982 0.77765 0.52788 0.0
C744 C 0.84523 0.91678 0.37753 0.0
C745 C 0.84801 0.90847 0.43521 0.0
C746 C 0.82635 0.92061 0.35571 0.0
C747 C 0.77444 0.92467 0.40354 0.0
H748 H 0.76302 0.90564 0.2425 0.0
C749 C 0.70486 0.89274 0.26276 0.0
C750 C 0.69028 0.90604 0.27843 0.0
C751 C 0.72441 0.89639 0.27685 0.0
C752 C 0.76596 0.91103 0.28757 0.0
H753 H 0.83326 0.89875 0.51649 0.0
H754 H 0.8006 0.90527 0.47866 0.0
H755 H 0.79672 0.90669 0.2784 0.0
H756 H 0.6848 0.93382 0.31995 0.0
H757 H 0.71902 0.94029 0.34424 0.0
H758 H 0.74363 0.92809 0.41392 0.0
C759 C 0.81287 0.90892 0.45013 0.0
C760 C 0.78532 0.91188 0.30786 0.0
C761 C 0.83164 0.905 0.47166 0.0
C762 C 0.69571 0.92326 0.30747 0.0
C763 C 0.7153 0.92692 0.32161 0.0
C764 C 0.75509 0.92382 0.38328 0.0
C765 C 0.80993 0.91639 0.39143 0.0
C766 C 0.78975 0.91824 0.36668 0.0
C767 C 0.72988 0.91345 0.30693 0.0
C768 C 0.75057 0.91653 0.32559 0.0
H769 H 0.85756 0.91959 0.34833 0.0
H770 H 0.82458 0.92654 0.3105 0.0
H771 H 0.77737 0.9299 0.44882 0.0
H772 H 0.70116 0.87931 0.24044 0.0
H773 H 0.73518 0.88554 0.26572 0.0
C774 C 0.08512 0.19997 0.54633 0.0
C775 C 0.1019 0.19226 0.51938 0.0
C776 C 0.08411 0.21969 0.56017 0.0
C777 C 0.08334 0.2644 0.55706 0.0
H778 H 0.1294 0.28524 0.63601 0.0
C779 C 0.09715 0.34648 0.60517 0.0
C780 C 0.10594 0.35069 0.66125 0.0
C781 C 0.09442 0.32721 0.58741 0.0
C782 C 0.11638 0.27963 0.6143 0.0
H783 H 0.13053 0.19926 0.48413 0.0
H784 H 0.12879 0.23351 0.50833 0.0
H785 H 0.12907 0.25161 0.60442 0.0
H786 H 0.11743 0.33805 0.74438 0.0
H787 H 0.11264 0.30473 0.71359 0.0
H788 H 0.07068 0.29262 0.56752 0.0
C789 C 0.11648 0.22433 0.51929 0.0
C790 C 0.11626 0.26041 0.59562 0.0
C791 C 0.11744 0.20471 0.50522 0.0
C792 C 0.11095 0.33534 0.7004 0.0
C793 C 0.10824 0.31621 0.68275 0.0
C794 C 0.08351 0.28378 0.57539 0.0
C795 C 0.09994 0.232 0.54768 0.0
C796 C 0.09977 0.25255 0.56685 0.0
C797 C 0.10047 0.3119 0.62546 0.0
C798 C 0.10001 0.29153 0.60461 0.0
H799 H 0.07289 0.19072 0.55765 0.0
H800 H 0.07123 0.22518 0.58239 0.0
H801 H 0.07046 0.25874 0.53469 0.0
H802 H 0.09315 0.35801 0.57401 0.0
H803 H 0.08841 0.32431 0.54292 0.0
C804 C 0.67452 0.60072 0.98829 0.0
C805 C 0.65894 0.59495 0.9508 0.0
C806 C 0.69376 0.59675 0.9726 0.0
C807 C 0.72564 0.56698 0.87675 0.0
H808 H 0.76079 0.6106 0.89405 0.0
C809 C 0.80423 0.56915 0.77778 0.0
C810 C 0.81851 0.57957 0.80988 0.0
C811 C 0.78485 0.5688 0.79756 0.0
C812 C 0.75132 0.59812 0.88985 0.0
H813 H 0.65142 0.57966 0.86851 0.0
H814 H 0.68531 0.57273 0.84082 0.0
H815 H 0.72685 0.61397 0.92251 0.0
H816 H 0.82393 0.59663 0.89025 0.0
H817 H 0.79041 0.59556 0.92563 0.0
H818 H 0.75029 0.55114 0.84395 0.0
C819 C 0.68248 0.58032 0.88257 0.0
C820 C 0.73179 0.6001 0.90601 0.0
C821 C 0.66308 0.58432 0.89836 0.0
C822 C 0.81325 0.58865 0.86407 0.0
C823 C 0.79396 0.58816 0.88408 0.0
C824 C 0.74532 0.56496 0.86075 0.0
C825 C 0.69804 0.58691 0.9189 0.0
C826 C 0.71872 0.58455 0.90009 0.0
C827 C 0.77937 0.57877 0.85011 0.0
C828 C 0.75844 0.5805 0.8675 0.0
H829 H 0.67191 0.60863 0.02956 0.0
H830 H 0.70537 0.60165 1.00231 0.0
H831 H 0.71595 0.5547 0.87193 0.0
H832 H 0.80778 0.56206 0.7357 0.0
H833 H 0.77402 0.56149 0.77006 0.0
C834 C 0.42006 0.3017 0.0615 0.0
C835 C 0.40325 0.30912 0.03296 0.0
C836 C 0.42185 0.28185 0.07333 0.0
C837 C 0.41529 0.24212 0.12975 0.0
H838 H 0.39516 0.20382 0.01806 0.0
C839 C 0.39443 0.1651 0.20463 0.0
C840 C 0.39775 0.14954 0.16536 0.0
C841 C 0.39819 0.18408 0.18624 0.0
C842 C 0.40111 0.21429 0.04944 0.0
H843 H 0.37526 0.30151 0.99344 0.0
H844 H 0.37825 0.26697 0.01461 0.0
H845 H 0.39594 0.23785 0.98786 0.0
H846 H 0.40818 0.14171 0.07642 0.0
H847 H 0.41485 0.17505 0.04417 0.0
H848 H 0.42037 0.2186 0.19142 0.0
C849 C 0.3902 0.27641 0.02721 0.0
C850 C 0.40133 0.23383 0.03241 0.0
C851 C 0.38842 0.29624 0.01543 0.0
C852 C 0.40553 0.15338 0.10779 0.0
C853 C 0.40919 0.17247 0.08917 0.0
C854 C 0.41504 0.2226 0.14679 0.0
C855 C 0.40685 0.26898 0.05682 0.0
C856 C 0.40812 0.24803 0.07275 0.0
C857 C 0.40532 0.18806 0.12798 0.0
C858 C 0.40762 0.20848 0.10728 0.0
H859 H 0.43179 0.31124 0.07536 0.0
H860 H 0.43497 0.2766 0.09554 0.0
H861 H 0.42049 0.25265 0.16216 0.0
H862 H 0.38854 0.16266 0.2494 0.0
H863 H 0.39482 0.19571 0.21707 0.0
loop_
_geom_bond_atom_site_label_1
_geom_bond_atom_site_label_2
_geom_bond_distance
_geom_bond_site_symmetry_2
_ccdc_geom_bond_type
Co0 N4 2.148 . S
Co0 N10 2.128 1_554 S
Co0 N20 2.194 . S
Co0 O25 2.351 . S
Co0 O26 2.155 . S
Co0 O27 2.096 1_554 S
C1 N4 1.301 . S
C1 N5 1.328 . S
C1 H6 0.930 . S
C2 C3 1.333 . S
C2 N4 1.317 . S
C2 H7 0.930 . S
C3 C2 1.333 . S
C3 N5 1.350 . S
C3 H29 0.931 . S
N4 Co0 2.148 . S
N4 C1 1.301 . S
N4 C2 1.317 . S
N5 C1 1.328 . S
N5 C3 1.350 . S
H6 C1 0.930 . S
H7 C2 0.930 . S
C8 O9 1.224 . S
C8 O27 1.247 . S
O9 C8 1.224 . S
N10 Co0 2.128 1_556 S
N10 C11 1.355 . S
N10 C13 1.311 . S
C11 N10 1.355 . S
C11 C12 1.363 . S
C11 H23 0.929 . S
C12 C11 1.363 . S
C12 N14 1.375 . S
C12 H30 0.931 . S
C13 N10 1.311 . S
C13 N14 1.347 . S
C13 H24 0.929 . S
N14 C12 1.375 . S
N14 C13 1.347 . S
C15 C18 1.365 . S
C15 N20 1.328 . S
C15 H21 0.929 . S
C16 C17 1.362 1_556 S
C16 C19 1.378 . S
C16 H31 0.929 . S
C17 C16 1.362 1_554 S
C17 C18 1.366 . S
C18 C15 1.365 . S
C18 C17 1.366 . S
C18 H32 0.930 . S
C19 C16 1.378 . S
C19 N20 1.315 1_556 S
C19 H22 0.930 . S
N20 Co0 2.194 . S
N20 C15 1.328 . S
N20 C19 1.315 1_554 S
H21 C15 0.929 . S
H22 C19 0.930 . S
H23 C11 0.929 . S
H24 C13 0.929 . S
O25 Co0 2.351 . S
O25 C28 1.244 . S
O26 Co0 2.155 . S
O26 C28 1.240 . S
O27 Co0 2.096 1_556 S
O27 C8 1.247 . S
C28 O25 1.244 . S
C28 O26 1.240 . S
H29 C3 0.931 . S
H30 C12 0.931 . S
H31 C16 0.929 . S
H32 C18 0.930 . S
Co33 N37 2.148 . S
Co33 N43 2.128 . S
Co33 N53 2.194 . S
Co33 O58 2.351 . S
Co33 O59 2.155 . S
Co33 O60 2.096 . S
C34 N37 1.301 . S
C34 N38 1.328 . S
C34 H39 0.930 . S
C35 C36 1.333 . S
C35 N37 1.317 . S
C35 H40 0.930 . S
C36 C35 1.333 . S
C36 N38 1.350 . S
C36 H62 0.931 . S
N37 Co33 2.148 . S
N37 C34 1.301 . S
N37 C35 1.317 . S
N38 C34 1.328 . S
N38 C36 1.350 . S
H39 C34 0.930 . S
H40 C35 0.930 . S
C41 O42 1.224 . S
C41 O60 1.247 . S
O42 C41 1.224 . S
N43 Co33 2.128 . S
N43 C44 1.355 . S
N43 C46 1.311 . S
C44 N43 1.355 . S
C44 C45 1.363 . S
C44 H56 0.929 . S
C45 C44 1.363 . S
C45 N47 1.375 . S
C45 H63 0.931 . S
C46 N43 1.311 . S
C46 N47 1.347 . S
C46 H57 0.929 . S
N47 C45 1.375 . S
N47 C46 1.347 . S
C48 C51 1.365 . S
C48 N53 1.328 . S
C48 H54 0.929 . S
C49 C50 1.362 . S
C49 C52 1.378 . S
C49 H64 0.929 . S
C50 C49 1.362 . S
C50 C51 1.366 . S
C51 C48 1.365 . S
C51 C50 1.366 . S
C51 H65 0.930 . S
C52 C49 1.378 . S
C52 N53 1.315 . S
C52 H55 0.930 . S
N53 Co33 2.194 . S
N53 C48 1.328 . S
N53 C52 1.315 . S
H54 C48 0.929 . S
H55 C52 0.930 . S
H56 C44 0.929 . S
H57 C46 0.929 . S
O58 Co33 2.351 . S
O58 C61 1.244 . S
O59 Co33 2.155 . S
O59 C61 1.240 . S
O60 Co33 2.096 . S
O60 C41 1.247 . S
C61 O58 1.244 . S
C61 O59 1.240 . S
H62 C36 0.931 . S
H63 C45 0.931 . S
H64 C49 0.929 . S
H65 C51 0.930 . S
Co66 N70 2.148 . S
Co66 N76 2.128 . S
Co66 N86 2.194 . S
Co66 O91 2.351 . S
Co66 O92 2.155 . S
Co66 O93 2.096 . S
C67 N70 1.301 . S
C67 N71 1.328 . S
C67 H72 0.930 . S
C68 C69 1.333 . S
C68 N70 1.317 . S
C68 H73 0.930 . S
C69 C68 1.333 . S
C69 N71 1.350 . S
C69 H95 0.931 . S
N70 Co66 2.148 . S
N70 C67 1.301 . S
N70 C68 1.317 . S
N71 C67 1.328 . S
N71 C69 1.350 . S
H72 C67 0.930 . S
H73 C68 0.930 . S
C74 O75 1.224 . S
C74 O93 1.247 . S
O75 C74 1.224 . S
N76 Co66 2.128 . S
N76 C77 1.355 . S
N76 C79 1.311 . S
C77 N76 1.355 . S
C77 C78 1.363 . S
C77 H89 0.929 . S
C78 C77 1.363 . S
C78 N80 1.375 . S
C78 H96 0.931 . S
C79 N76 1.311 . S
C79 N80 1.347 . S
C79 H90 0.929 . S
N80 C78 1.375 . S
N80 C79 1.347 . S
C81 C84 1.365 . S
C81 N86 1.328 . S
C81 H87 0.929 . S
C82 C83 1.362 . S
C82 C85 1.378 . S
C82 H97 0.929 . S
C83 C82 1.362 . S
C83 C84 1.366 . S
C84 C81 1.365 . S
C84 C83 1.366 . S
C84 H98 0.930 . S
C85 C82 1.378 . S
C85 N86 1.315 . S
C85 H88 0.930 . S
N86 Co66 2.194 . S
N86 C81 1.328 . S
N86 C85 1.315 . S
H87 C81 0.929 . S
H88 C85 0.930 . S
H89 C77 0.929 . S
H90 C79 0.929 . S
O91 Co66 2.351 . S
O91 C94 1.244 . S
O92 Co66 2.155 . S
O92 C94 1.240 . S
O93 Co66 2.096 . S
O93 C74 1.247 . S
C94 O91 1.244 . S
C94 O92 1.240 . S
H95 C69 0.931 . S
H96 C78 0.931 . S
H97 C82 0.929 . S
H98 C84 0.930 . S
Co99 N103 2.148 . S
Co99 N109 2.128 . S
Co99 N119 2.194 . S
Co99 O124 2.351 . S
Co99 O125 2.155 . S
Co99 O126 2.096 . S
C100 N103 1.301 . S
C100 N104 1.328 . S
C100 H105 0.930 . S
C101 C102 1.333 . S
C101 N103 1.317 . S
C101 H106 0.930 . S
C102 C101 1.333 . S
C102 N104 1.350 . S
C102 H128 0.931 . S
N103 Co99 2.148 . S
N103 C100 1.301 . S
N103 C101 1.317 . S
N104 C100 1.328 . S
N104 C102 1.350 . S
H105 C100 0.930 . S
H106 C101 0.930 . S
C107 O108 1.224 . S
C107 O126 1.247 . S
O108 C107 1.224 . S
N109 Co99 2.128 . S
N109 C110 1.355 . S
N109 C112 1.311 . S
C110 N109 1.355 . S
C110 C111 1.363 . S
C110 H122 0.929 . S
C111 C110 1.363 . S
C111 N113 1.375 . S
C111 H129 0.931 . S
C112 N109 1.311 . S
C112 N113 1.347 . S
C112 H123 0.929 . S
N113 C111 1.375 . S
N113 C112 1.347 . S
C114 C117 1.365 . S
C114 N119 1.328 . S
C114 H120 0.929 . S
C115 C116 1.362 . S
C115 C118 1.378 . S
C115 H130 0.929 . S
C116 C115 1.362 . S
C116 C117 1.366 . S
C117 C114 1.365 . S
C117 C116 1.366 . S
C117 H131 0.930 . S
C118 C115 1.378 . S
C118 N119 1.315 . S
C118 H121 0.930 . S
N119 Co99 2.194 . S
N119 C114 1.328 . S
N119 C118 1.315 . S
H120 C114 0.929 . S
H121 C118 0.930 . S
H122 C110 0.929 . S
H123 C112 0.929 . S
O124 Co99 2.351 . S
O124 C127 1.244 . S
O125 Co99 2.155 . S
O125 C127 1.240 . S
O126 Co99 2.096 . S
O126 C107 1.247 . S
C127 O124 1.244 . S
C127 O125 1.240 . S
H128 C102 0.931 . S
H129 C111 0.931 . S
H130 C115 0.929 . S
H131 C117 0.930 . S
Co132 N136 2.148 . S
Co132 N142 2.128 . S
Co132 N152 2.194 . S
Co132 O157 2.351 . S
Co132 O158 2.155 . S
Co132 O159 2.096 . S
C133 N136 1.301 . S
C133 N137 1.328 . S
C133 H138 0.930 . S
C134 C135 1.333 . S
C134 N136 1.317 . S
C134 H139 0.930 . S
C135 C134 1.333 . S
C135 N137 1.350 . S
C135 H161 0.931 . S
N136 Co132 2.148 . S
N136 C133 1.301 . S
N136 C134 1.317 . S
N137 C133 1.328 . S
N137 C135 1.350 . S
H138 C133 0.930 . S
H139 C134 0.930 . S
C140 O141 1.224 . S
C140 O159 1.247 . S
O141 C140 1.224 . S
N142 Co132 2.128 . S
N142 C143 1.355 . S
N142 C145 1.311 . S
C143 N142 1.355 . S
C143 C144 1.363 . S
C143 H155 0.929 . S
C144 C143 1.363 . S
C144 N146 1.375 . S
C144 H162 0.931 . S
C145 N142 1.311 . S
C145 N146 1.347 . S
C145 H156 0.929 . S
N146 C144 1.375 . S
N146 C145 1.347 . S
C147 C150 1.365 . S
C147 N152 1.328 . S
C147 H153 0.929 . S
C148 C149 1.362 . S
C148 C151 1.378 . S
C148 H163 0.929 . S
C149 C148 1.362 . S
C149 C150 1.366 . S
C150 C147 1.365 . S
C150 C149 1.366 . S
C150 H164 0.930 . S
C151 C148 1.378 . S
C151 N152 1.315 . S
C151 H154 0.930 . S
N152 Co132 2.194 . S
N152 C147 1.328 . S
N152 C151 1.315 . S
H153 C147 0.929 . S
H154 C151 0.930 . S
H155 C143 0.929 . S
H156 C145 0.929 . S
O157 Co132 2.351 . S
O157 C160 1.244 . S
O158 Co132 2.155 . S
O158 C160 1.240 . S
O159 Co132 2.096 . S
O159 C140 1.247 . S
C160 O157 1.244 . S
C160 O158 1.240 . S
H161 C135 0.931 . S
H162 C144 0.931 . S
H163 C148 0.929 . S
H164 C150 0.930 . S
Co165 N169 2.148 . S
Co165 N175 2.128 . S
Co165 N185 2.194 . S
Co165 O190 2.351 . S
Co165 O191 2.155 . S
Co165 O192 2.096 . S
C166 N169 1.301 . S
C166 N170 1.328 . S
C166 H171 0.930 . S
C167 C168 1.333 . S
C167 N169 1.317 . S
C167 H172 0.930 . S
C168 C167 1.333 . S
C168 N170 1.350 . S
C168 H194 0.931 . S
N169 Co165 2.148 . S
N169 C166 1.301 . S
N169 C167 1.317 . S
N170 C166 1.328 . S
N170 C168 1.350 . S
H171 C166 0.930 . S
H172 C167 0.930 . S
C173 O174 1.224 . S
C173 O192 1.247 . S
O174 C173 1.224 . S
N175 Co165 2.128 . S
N175 C176 1.355 . S
N175 C178 1.311 . S
C176 N175 1.355 . S
C176 C177 1.363 . S
C176 H188 0.929 . S
C177 C176 1.363 . S
C177 N179 1.375 . S
C177 H195 0.931 . S
C178 N175 1.311 . S
C178 N179 1.347 . S
C178 H189 0.929 . S
N179 C177 1.375 . S
N179 C178 1.347 . S
C180 C183 1.365 . S
C180 N185 1.328 . S
C180 H186 0.929 . S
C181 C182 1.362 . S
C181 C184 1.378 . S
C181 H196 0.929 . S
C182 C181 1.362 . S
C182 C183 1.366 . S
C183 C180 1.365 . S
C183 C182 1.366 . S
C183 H197 0.930 . S
C184 C181 1.378 . S
C184 N185 1.315 . S
C184 H187 0.930 . S
N185 Co165 2.194 . S
N185 C180 1.328 . S
N185 C184 1.315 . S
H186 C180 0.929 . S
H187 C184 0.930 . S
H188 C176 0.929 . S
H189 C178 0.929 . S
O190 Co165 2.351 . S
O190 C193 1.244 . S
O191 Co165 2.155 . S
O191 C193 1.240 . S
O192 Co165 2.096 . S
O192 C173 1.247 . S
C193 O190 1.244 . S
C193 O191 1.240 . S
H194 C168 0.931 . S
H195 C177 0.931 . S
H196 C181 0.929 . S
H197 C183 0.930 . S
Co198 N202 2.148 . S
Co198 N208 2.128 . S
Co198 N218 2.194 . S
Co198 O223 2.351 . S
Co198 O224 2.155 . S
Co198 O225 2.096 . S
C199 N202 1.301 . S
C199 N203 1.328 . S
C199 H204 0.930 . S
C200 C201 1.333 . S
C200 N202 1.317 . S
C200 H205 0.930 . S
C201 C200 1.333 . S
C201 N203 1.350 . S
C201 H227 0.931 . S
N202 Co198 2.148 . S
N202 C199 1.301 . S
N202 C200 1.317 . S
N203 C199 1.328 . S
N203 C201 1.350 . S
H204 C199 0.930 . S
H205 C200 0.930 . S
C206 O207 1.224 . S
C206 O225 1.247 . S
O207 C206 1.224 . S
N208 Co198 2.128 . S
N208 C209 1.355 . S
N208 C211 1.311 . S
C209 N208 1.355 . S
C209 C210 1.363 . S
C209 H221 0.929 . S
C210 C209 1.363 . S
C210 N212 1.375 . S
C210 H228 0.931 . S
C211 N208 1.311 . S
C211 N212 1.347 . S
C211 H222 0.929 . S
N212 C210 1.375 . S
N212 C211 1.347 . S
C213 C216 1.365 . S
C213 N218 1.328 . S
C213 H219 0.929 . S
C214 C215 1.362 . S
C214 C217 1.378 . S
C214 H229 0.929 . S
C215 C214 1.362 . S
C215 C216 1.366 . S
C216 C213 1.365 . S
C216 C215 1.366 . S
C216 H230 0.930 . S
C217 C214 1.378 . S
C217 N218 1.315 . S
C217 H220 0.930 . S
N218 Co198 2.194 . S
N218 C213 1.328 . S
N218 C217 1.315 . S
H219 C213 0.929 . S
H220 C217 0.930 . S
H221 C209 0.929 . S
H222 C211 0.929 . S
O223 Co198 2.351 . S
O223 C226 1.244 . S
O224 Co198 2.155 . S
O224 C226 1.240 . S
O225 Co198 2.096 . S
O225 C206 1.247 . S
C226 O223 1.244 . S
C226 O224 1.240 . S
H227 C201 0.931 . S
H228 C210 0.931 . S
H229 C214 0.929 . S
H230 C216 0.930 . S
Co231 N235 2.148 . S
Co231 N241 2.128 1_554 S
Co231 N251 2.194 . S
Co231 O256 2.351 . S
Co231 O257 2.155 . S
Co231 O258 2.096 1_554 S
C232 N235 1.301 . S
C232 N236 1.328 . S
C232 H237 0.930 . S
C233 C234 1.333 . S
C233 N235 1.317 . S
C233 H238 0.930 . S
C234 C233 1.333 . S
C234 N236 1.350 . S
C234 H260 0.931 . S
N235 Co231 2.148 . S
N235 C232 1.301 . S
N235 C233 1.317 . S
N236 C232 1.328 . S
N236 C234 1.350 . S
H237 C232 0.930 . S
H238 C233 0.930 . S
C239 O240 1.224 . S
C239 O258 1.247 . S
O240 C239 1.224 . S
N241 Co231 2.128 1_556 S
N241 C242 1.355 . S
N241 C244 1.311 . S
C242 N241 1.355 . S
C242 C243 1.363 . S
C242 H254 0.929 . S
C243 C242 1.363 . S
C243 N245 1.375 . S
C243 H261 0.931 . S
C244 N241 1.311 . S
C244 N245 1.347 . S
C244 H255 0.929 . S
N245 C243 1.375 . S
N245 C244 1.347 . S
C246 C249 1.365 . S
C246 N251 1.328 . S
C246 H252 0.929 . S
C247 C248 1.362 1_556 S
C247 C250 1.378 1_556 S
C247 H262 0.929 . S
C248 C247 1.362 1_554 S
C248 C249 1.366 . S
C249 C246 1.365 . S
C249 C248 1.366 . S
C249 H263 0.930 . S
C250 C247 1.378 1_554 S
C250 N251 1.315 . S
C250 H253 0.930 1_554 S
N251 Co231 2.194 . S
N251 C246 1.328 . S
N251 C250 1.315 . S
H252 C246 0.929 . S
H253 C250 0.930 1_556 S
H254 C242 0.929 . S
H255 C244 0.929 . S
O256 Co231 2.351 . S
O256 C259 1.244 . S
O257 Co231 2.155 . S
O257 C259 1.240 . S
O258 Co231 2.096 1_556 S
O258 C239 1.247 . S
C259 O256 1.244 . S
C259 O257 1.240 . S
H260 C234 0.931 . S
H261 C243 0.931 . S
H262 C247 0.929 . S
H263 C249 0.930 . S
C264 C265 1.349 1_556 S
C264 C266 1.327 . S
C264 H289 0.950 . S
C265 C264 1.349 1_554 S
C265 C281 1.349 . S
C266 C264 1.327 . S
C266 C285 1.429 1_556 S
C266 H290 0.950 . S
C267 C284 1.574 . S
C267 C286 1.368 . S
C267 H291 0.949 . S
H268 C272 0.949 . S
C269 C270 1.349 . S
C269 C271 1.327 . S
C269 H292 0.950 . S
C270 C269 1.349 . S
C270 C282 1.349 1_554 S
C271 C269 1.327 . S
C271 C287 1.429 . S
C271 H293 0.950 . S
C272 H268 0.949 . S
C272 C280 1.574 . S
C272 C288 1.368 1_556 S
H273 C281 0.950 . S
H274 C279 0.950 . S
H275 C280 0.949 . S
H276 C282 0.950 . S
H277 C283 0.950 . S
H278 C284 0.949 . S
C279 H274 0.950 . S
C279 C281 1.327 . S
C279 C285 1.429 . S
C280 C272 1.574 . S
C280 H275 0.949 . S
C280 C286 1.368 1_556 S
C281 C265 1.349 . S
C281 H273 0.950 . S
C281 C279 1.327 . S
C282 C270 1.349 1_556 S
C282 H276 0.950 . S
C282 C283 1.327 . S
C283 H277 0.950 . S
C283 C282 1.327 . S
C283 C287 1.429 1_556 S
C284 C267 1.574 . S
C284 H278 0.949 . S
C284 C288 1.368 . S
C285 C266 1.429 1_554 S
C285 C279 1.429 . S
C285 C286 1.523 . S
C286 C267 1.368 . S
C286 C280 1.368 1_554 S
C286 C285 1.523 . S
C287 C271 1.429 . S
C287 C283 1.429 1_554 S
C287 C288 1.523 . S
C288 C272 1.368 1_554 S
C288 C284 1.368 . S
C288 C287 1.523 . S
H289 C264 0.950 . S
H290 C266 0.950 . S
H291 C267 0.949 . S
H292 C269 0.950 . S
H293 C271 0.950 . S
C294 C295 1.349 . S
C294 C296 1.327 . S
C294 H319 0.950 . S
C295 C294 1.349 . S
C295 C311 1.349 . S
C296 C294 1.327 . S
C296 C315 1.429 . S
C296 H320 0.950 . S
C297 C314 1.574 1_545 S
C297 C316 1.368 . S
C297 H321 0.949 . S
H298 C302 0.949 . S
C299 C300 1.349 . S
C299 C301 1.327 . S
C299 H322 0.950 . S
C300 C299 1.349 . S
C300 C312 1.349 . S
C301 C299 1.327 . S
C301 C317 1.429 . S
C301 H323 0.950 . S
C302 H298 0.949 . S
C302 C310 1.574 . S
C302 C318 1.368 . S
H303 C311 0.950 . S
H304 C309 0.950 . S
H305 C310 0.952 . S
H306 C312 0.950 . S
H307 C313 0.950 . S
H308 C314 0.949 . S
C309 H304 0.950 . S
C309 C311 1.327 . S
C309 C315 1.429 . S
C310 C302 1.574 . S
C310 H305 0.952 . S
C310 C316 1.368 1_565 S
C311 C295 1.349 . S
C311 H303 0.950 . S
C311 C309 1.327 . S
C312 C300 1.349 . S
C312 H306 0.950 . S
C312 C313 1.327 . S
C313 H307 0.950 . S
C313 C312 1.327 . S
C313 C317 1.429 . S
C314 C297 1.574 1_565 S
C314 H308 0.949 . S
C314 C318 1.368 . S
C315 C296 1.429 . S
C315 C309 1.429 . S
C315 C316 1.523 . S
C316 C297 1.368 . S
C316 C310 1.368 1_545 S
C316 C315 1.523 . S
C317 C301 1.429 . S
C317 C313 1.429 . S
C317 C318 1.523 . S
C318 C302 1.368 . S
C318 C314 1.368 . S
C318 C317 1.523 . S
H319 C294 0.950 . S
H320 C296 0.950 . S
H321 C297 0.949 . S
H322 C299 0.950 . S
H323 C301 0.950 . S
C324 C325 1.349 . S
C324 C326 1.327 . S
C324 H349 0.950 . S
C325 C324 1.349 . S
C325 C341 1.349 . S
C326 C324 1.327 . S
C326 C345 1.429 . S
C326 H350 0.950 . S
C327 C344 1.574 . S
C327 C346 1.368 1_545 S
C327 H351 0.952 . S
H328 C332 0.949 . S
C329 C330 1.349 . S
C329 C331 1.327 . S
C329 H352 0.950 . S
C330 C329 1.349 . S
C330 C342 1.349 . S
C331 C329 1.327 . S
C331 C347 1.429 . S
C331 H353 0.950 . S
C332 H328 0.949 . S
C332 C340 1.574 1_445 S
C332 C348 1.368 . S
H333 C341 0.950 . S
H334 C339 0.950 . S
H335 C340 0.949 . S
H336 C342 0.950 . S
H337 C343 0.950 . S
H338 C344 0.949 . S
C339 H334 0.950 . S
C339 C341 1.327 . S
C339 C345 1.429 . S
C340 C332 1.574 1_665 S
C340 H335 0.949 . S
C340 C346 1.368 . S
C341 C325 1.349 . S
C341 H333 0.950 . S
C341 C339 1.327 . S
C342 C330 1.349 . S
C342 H336 0.950 . S
C342 C343 1.327 . S
C343 H337 0.950 . S
C343 C342 1.327 . S
C343 C347 1.429 . S
C344 C327 1.574 . S
C344 H338 0.949 . S
C344 C348 1.368 1_655 S
C345 C326 1.429 . S
C345 C339 1.429 . S
C345 C346 1.523 . S
C346 C327 1.368 1_565 S
C346 C340 1.368 . S
C346 C345 1.523 . S
C347 C331 1.429 . S
C347 C343 1.429 . S
C347 C348 1.523 . S
C348 C332 1.368 . S
C348 C344 1.368 1_455 S
C348 C347 1.523 . S
H349 C324 0.950 . S
H350 C326 0.950 . S
H351 C327 0.952 . S
H352 C329 0.950 . S
H353 C331 0.950 . S
C354 C355 1.349 . S
C354 C356 1.327 . S
C354 H379 0.950 . S
C355 C354 1.349 . S
C355 C371 1.349 . S
C356 C354 1.327 . S
C356 C375 1.429 . S
C356 H380 0.950 . S
C357 C374 1.573 1_455 S
C357 C376 1.368 . S
C357 H381 0.949 . S
H358 C362 0.949 . S
C359 C360 1.349 . S
C359 C361 1.327 . S
C359 H382 0.950 . S
C360 C359 1.349 . S
C360 C372 1.349 . S
C361 C359 1.327 . S
C361 C377 1.429 . S
C361 H383 0.950 . S
C362 H358 0.949 . S
C362 C370 1.574 1_655 S
C362 C378 1.368 . S
H363 C371 0.950 . S
H364 C369 0.950 . S
H365 C370 0.949 . S
H366 C372 0.950 . S
H367 C373 0.950 . S
H368 C374 0.947 . S
C369 H364 0.950 . S
C369 C371 1.327 . S
C369 C375 1.429 . S
C370 C362 1.574 1_455 S
C370 H365 0.949 . S
C370 C376 1.368 . S
C371 C355 1.349 . S
C371 H363 0.950 . S
C371 C369 1.327 . S
C372 C360 1.349 . S
C372 H366 0.950 . S
C372 C373 1.327 . S
C373 H367 0.950 . S
C373 C372 1.327 . S
C373 C377 1.429 . S
C374 C357 1.573 1_655 S
C374 H368 0.947 . S
C374 C378 1.369 . S
C375 C356 1.429 . S
C375 C369 1.429 . S
C375 C376 1.523 . S
C376 C357 1.368 . S
C376 C370 1.368 . S
C376 C375 1.523 . S
C377 C361 1.429 . S
C377 C373 1.429 . S
C377 C378 1.523 . S
C378 C362 1.368 . S
C378 C374 1.369 . S
C378 C377 1.523 . S
H379 C354 0.950 . S
H380 C356 0.950 . S
H381 C357 0.949 . S
H382 C359 0.950 . S
H383 C361 0.950 . S
C384 C385 1.349 . S
C384 C386 1.327 . S
C384 H409 0.950 . S
C385 C384 1.349 . S
C385 C401 1.349 . S
C386 C384 1.327 . S
C386 C405 1.429 . S
C386 H410 0.950 . S
C387 C404 1.574 . S
C387 C406 1.368 . S
C387 H411 0.949 . S
H388 C392 0.949 . S
C389 C390 1.349 . S
C389 C391 1.327 . S
C389 H412 0.950 . S
C390 C389 1.349 . S
C390 C402 1.349 . S
C391 C389 1.327 . S
C391 C407 1.429 . S
C391 H413 0.950 . S
C392 H388 0.949 . S
C392 C400 1.574 . S
C392 C408 1.368 . S
H393 C401 0.950 . S
H394 C399 0.950 . S
H395 C400 0.949 . S
H396 C402 0.950 . S
H397 C403 0.950 . S
H398 C404 0.949 . S
C399 H394 0.950 . S
C399 C401 1.327 . S
C399 C405 1.429 . S
C400 C392 1.574 . S
C400 H395 0.949 . S
C400 C406 1.368 . S
C401 C385 1.349 . S
C401 H393 0.950 . S
C401 C399 1.327 . S
C402 C390 1.349 . S
C402 H396 0.950 . S
C402 C403 1.327 . S
C403 H397 0.950 . S
C403 C402 1.327 . S
C403 C407 1.429 . S
C404 C387 1.574 . S
C404 H398 0.949 . S
C404 C408 1.368 . S
C405 C386 1.429 . S
C405 C399 1.429 . S
C405 C406 1.523 . S
C406 C387 1.368 . S
C406 C400 1.368 . S
C406 C405 1.523 . S
C407 C391 1.429 . S
C407 C403 1.429 . S
C407 C408 1.523 . S
C408 C392 1.368 . S
C408 C404 1.368 . S
C408 C407 1.523 . S
H409 C384 0.950 . S
H410 C386 0.950 . S
H411 C387 0.949 . S
H412 C389 0.950 . S
H413 C391 0.950 . S
C414 C415 1.349 1_556 S
C414 C416 1.327 . S
C414 H439 0.950 1_556 S
C415 C414 1.349 1_554 S
C415 C431 1.349 1_554 S
C416 C414 1.327 . S
C416 C435 1.429 . S
C416 H440 0.950 . S
C417 C434 1.574 . S
C417 C436 1.368 . S
C417 H441 0.949 . S
H418 C422 0.949 . S
C419 C420 1.349 . S
C419 C421 1.327 . S
C419 H442 0.950 . S
C420 C419 1.349 . S
C420 C432 1.349 . S
C421 C419 1.327 . S
C421 C437 1.429 . S
C421 H443 0.950 . S
C422 H418 0.949 . S
C422 C430 1.574 . S
C422 C438 1.368 . S
H423 C431 0.950 . S
H424 C429 0.950 . S
H425 C430 0.949 . S
H426 C432 0.950 . S
H427 C433 0.950 . S
H428 C434 0.949 . S
C429 H424 0.950 . S
C429 C431 1.327 . S
C429 C435 1.429 . S
C430 C422 1.574 . S
C430 H425 0.949 . S
C430 C436 1.368 . S
C431 C415 1.349 1_556 S
C431 H423 0.950 . S
C431 C429 1.327 . S
C432 C420 1.349 . S
C432 H426 0.950 . S
C432 C433 1.327 . S
C433 H427 0.950 . S
C433 C432 1.327 . S
C433 C437 1.429 . S
C434 C417 1.574 . S
C434 H428 0.949 . S
C434 C438 1.368 . S
C435 C416 1.429 . S
C435 C429 1.429 . S
C435 C436 1.523 . S
C436 C417 1.368 . S
C436 C430 1.368 . S
C436 C435 1.523 . S
C437 C421 1.429 . S
C437 C433 1.429 . S
C437 C438 1.523 . S
C438 C422 1.368 . S
C438 C434 1.368 . S
C438 C437 1.523 . S
H439 C414 0.950 1_554 S
H440 C416 0.950 . S
H441 C417 0.949 . S
H442 C419 0.950 . S
H443 C421 0.950 . S
C444 C445 1.349 . S
C444 C446 1.327 . S
C444 H469 0.950 . S
C445 C444 1.349 . S
C445 C461 1.349 . S
C446 C444 1.327 . S
C446 C465 1.429 . S
C446 H470 0.950 . S
C447 C464 1.574 1_556 S
C447 C466 1.368 . S
C447 H471 0.949 . S
H448 C452 0.949 . S
C449 C450 1.349 . S
C449 C451 1.327 . S
C449 H472 0.950 . S
C450 C449 1.349 . S
C450 C462 1.349 . S
C451 C449 1.327 . S
C451 C467 1.429 . S
C451 H473 0.950 . S
C452 H448 0.949 . S
C452 C460 1.574 1_554 S
C452 C468 1.368 . S
H453 C461 0.950 . S
H454 C459 0.950 . S
H455 C460 0.949 . S
H456 C462 0.950 . S
H457 C463 0.950 . S
H458 C464 0.949 . S
C459 H454 0.950 . S
C459 C461 1.327 . S
C459 C465 1.429 . S
C460 C452 1.574 1_556 S
C460 H455 0.949 . S
C460 C466 1.368 . S
C461 C445 1.349 . S
C461 H453 0.950 . S
C461 C459 1.327 . S
C462 C450 1.349 . S
C462 H456 0.950 . S
C462 C463 1.327 . S
C463 H457 0.950 . S
C463 C462 1.327 . S
C463 C467 1.429 . S
C464 C447 1.574 1_554 S
C464 H458 0.949 . S
C464 C468 1.368 . S
C465 C446 1.429 . S
C465 C459 1.429 . S
C465 C466 1.523 . S
C466 C447 1.368 . S
C466 C460 1.368 . S
C466 C465 1.523 . S
C467 C451 1.429 . S
C467 C463 1.429 . S
C467 C468 1.523 . S
C468 C452 1.368 . S
C468 C464 1.368 . S
C468 C467 1.523 . S
H469 C444 0.950 . S
H470 C446 0.950 . S
H471 C447 0.949 . S
H472 C449 0.950 . S
H473 C451 0.950 . S
C474 C475 1.349 1_554 S
C474 C476 1.327 . S
C474 H499 0.950 . S
C475 C474 1.349 1_556 S
C475 C491 1.349 1_556 S
C476 C474 1.327 . S
C476 C495 1.429 . S
C476 H500 0.950 . S
C477 C494 1.574 . S
C477 C496 1.368 . S
C477 H501 0.949 . S
H478 C482 0.949 . S
C479 C480 1.349 . S
C479 C481 1.327 . S
C479 H502 0.950 . S
C480 C479 1.349 . S
C480 C492 1.349 . S
C481 C479 1.327 . S
C481 C497 1.429 . S
C481 H503 0.950 . S
C482 H478 0.949 . S
C482 C490 1.574 . S
C482 C498 1.368 . S
H483 C491 0.950 . S
H484 C489 0.950 . S
H485 C490 0.949 . S
H486 C492 0.950 . S
H487 C493 0.950 . S
H488 C494 0.949 . S
C489 H484 0.950 . S
C489 C491 1.327 . S
C489 C495 1.429 . S
C490 C482 1.574 . S
C490 H485 0.949 . S
C490 C496 1.368 . S
C491 C475 1.349 1_554 S
C491 H483 0.950 . S
C491 C489 1.327 . S
C492 C480 1.349 . S
C492 H486 0.950 . S
C492 C493 1.327 . S
C493 H487 0.950 . S
C493 C492 1.327 . S
C493 C497 1.429 . S
C494 C477 1.574 . S
C494 H488 0.949 . S
C494 C498 1.368 . S
C495 C476 1.429 . S
C495 C489 1.429 . S
C495 C496 1.523 . S
C496 C477 1.368 . S
C496 C490 1.368 . S
C496 C495 1.523 . S
C497 C481 1.429 . S
C497 C493 1.429 . S
C497 C498 1.523 . S
C498 C482 1.368 . S
C498 C494 1.368 . S
C498 C497 1.523 . S
H499 C474 0.950 . S
H500 C476 0.950 . S
H501 C477 0.949 . S
H502 C479 0.950 . S
H503 C481 0.950 . S
C504 C505 1.349 1_556 S
C504 C506 1.327 . S
C504 H529 0.953 . S
C505 C504 1.349 1_554 S
C505 C521 1.349 1_554 S
C506 C504 1.327 . S
C506 C525 1.429 . S
C506 H530 0.950 . S
C507 C524 1.574 . S
C507 C526 1.368 . S
C507 H531 0.949 . S
H508 C512 0.949 . S
C509 C510 1.349 . S
C509 C511 1.327 . S
C509 H532 0.950 . S
C510 C509 1.349 . S
C510 C522 1.349 . S
C511 C509 1.327 . S
C511 C527 1.429 . S
C511 H533 0.950 . S
C512 H508 0.949 . S
C512 C520 1.574 . S
C512 C528 1.368 . S
H513 C521 0.950 . S
H514 C519 0.950 . S
H515 C520 0.949 . S
H516 C522 0.950 . S
H517 C523 0.950 . S
H518 C524 0.949 . S
C519 H514 0.950 . S
C519 C521 1.327 . S
C519 C525 1.429 . S
C520 C512 1.574 . S
C520 H515 0.949 . S
C520 C526 1.368 . S
C521 C505 1.349 1_556 S
C521 H513 0.950 . S
C521 C519 1.327 . S
C522 C510 1.349 . S
C522 H516 0.950 . S
C522 C523 1.327 . S
C523 H517 0.950 . S
C523 C522 1.327 . S
C523 C527 1.429 . S
C524 C507 1.574 . S
C524 H518 0.949 . S
C524 C528 1.368 . S
C525 C506 1.429 . S
C525 C519 1.429 . S
C525 C526 1.523 . S
C526 C507 1.368 . S
C526 C520 1.368 . S
C526 C525 1.523 . S
C527 C511 1.429 . S
C527 C523 1.429 . S
C527 C528 1.523 . S
C528 C512 1.368 . S
C528 C524 1.368 . S
C528 C527 1.523 . S
H529 C504 0.953 . S
H530 C506 0.950 . S
H531 C507 0.949 . S
H532 C509 0.950 . S
H533 C511 0.950 . S
C534 C535 1.349 . S
C534 C536 1.327 . S
C534 H559 0.950 . S
C535 C534 1.349 . S
C535 C551 1.349 . S
C536 C534 1.327 . S
C536 C555 1.429 . S
C536 H560 0.950 . S
C537 C554 1.574 1_554 S
C537 C556 1.368 . S
C537 H561 0.949 . S
H538 C542 0.949 . S
C539 C540 1.349 . S
C539 C541 1.327 . S
C539 H562 0.950 . S
C540 C539 1.349 . S
C540 C552 1.349 . S
C541 C539 1.327 . S
C541 C557 1.429 . S
C541 H563 0.950 . S
C542 H538 0.949 . S
C542 C550 1.574 1_556 S
C542 C558 1.368 . S
H543 C551 0.950 . S
H544 C549 0.950 . S
H545 C550 0.949 . S
H546 C552 0.950 . S
H547 C553 0.950 . S
H548 C554 0.949 . S
C549 H544 0.950 . S
C549 C551 1.327 . S
C549 C555 1.429 . S
C550 C542 1.574 1_554 S
C550 H545 0.949 . S
C550 C556 1.368 . S
C551 C535 1.349 . S
C551 H543 0.950 . S
C551 C549 1.327 . S
C552 C540 1.349 . S
C552 H546 0.950 . S
C552 C553 1.327 . S
C553 H547 0.950 . S
C553 C552 1.327 . S
C553 C557 1.429 . S
C554 C537 1.574 1_556 S
C554 H548 0.949 . S
C554 C558 1.368 . S
C555 C536 1.429 . S
C555 C549 1.429 . S
C555 C556 1.523 . S
C556 C537 1.368 . S
C556 C550 1.368 . S
C556 C555 1.523 . S
C557 C541 1.429 . S
C557 C553 1.429 . S
C557 C558 1.523 . S
C558 C542 1.368 . S
C558 C554 1.368 . S
C558 C557 1.523 . S
H559 C534 0.950 . S
H560 C536 0.950 . S
H561 C537 0.949 . S
H562 C539 0.950 . S
H563 C541 0.950 . S
C564 C565 1.349 . S
C564 C566 1.327 . S
C564 H589 0.950 . S
C565 C564 1.349 . S
C565 C581 1.349 . S
C566 C564 1.327 . S
C566 C585 1.429 . S
C566 H590 0.950 . S
C567 C584 1.574 . S
C567 C586 1.368 . S
C567 H591 0.949 . S
H568 C572 0.949 . S
C569 C570 1.349 1_554 S
C569 C571 1.327 . S
C569 H592 0.950 . S
C570 C569 1.349 1_556 S
C570 C582 1.349 1_556 S
C571 C569 1.327 . S
C571 C587 1.429 . S
C571 H593 0.950 . S
C572 H568 0.949 . S
C572 C580 1.574 . S
C572 C588 1.368 . S
H573 C581 0.950 . S
H574 C579 0.950 . S
H575 C580 0.949 . S
H576 C582 0.950 1_556 S
H577 C583 0.950 . S
H578 C584 0.949 . S
C579 H574 0.950 . S
C579 C581 1.327 . S
C579 C585 1.429 . S
C580 C572 1.574 . S
C580 H575 0.949 . S
C580 C586 1.368 . S
C581 C565 1.349 . S
C581 H573 0.950 . S
C581 C579 1.327 . S
C582 C570 1.349 1_554 S
C582 H576 0.950 1_554 S
C582 C583 1.327 . S
C583 H577 0.950 . S
C583 C582 1.327 . S
C583 C587 1.429 . S
C584 C567 1.574 . S
C584 H578 0.949 . S
C584 C588 1.368 . S
C585 C566 1.429 . S
C585 C579 1.429 . S
C585 C586 1.523 . S
C586 C567 1.368 . S
C586 C580 1.368 . S
C586 C585 1.523 . S
C587 C571 1.429 . S
C587 C583 1.429 . S
C587 C588 1.523 . S
C588 C572 1.368 . S
C588 C584 1.368 . S
C588 C587 1.523 . S
H589 C564 0.950 . S
H590 C566 0.950 . S
H591 C567 0.949 . S
H592 C569 0.950 . S
H593 C571 0.950 . S
C594 C595 1.349 . S
C594 C596 1.327 . S
C594 H619 0.950 . S
C595 C594 1.349 . S
C595 C611 1.349 . S
C596 C594 1.327 . S
C596 C615 1.429 . S
C596 H620 0.950 . S
C597 C614 1.574 . S
C597 C616 1.368 . S
C597 H621 0.949 . S
H598 C602 0.949 . S
C599 C600 1.349 . S
C599 C601 1.327 . S
C599 H622 0.950 . S
C600 C599 1.349 . S
C600 C612 1.349 . S
C601 C599 1.327 . S
C601 C617 1.429 . S
C601 H623 0.950 . S
C602 H598 0.949 . S
C602 C610 1.574 . S
C602 C618 1.368 . S
H603 C611 0.950 . S
H604 C609 0.950 . S
H605 C610 0.949 . S
H606 C612 0.950 . S
H607 C613 0.950 . S
H608 C614 0.949 . S
C609 H604 0.950 . S
C609 C611 1.327 . S
C609 C615 1.429 . S
C610 C602 1.574 . S
C610 H605 0.949 . S
C610 C616 1.368 . S
C611 C595 1.349 . S
C611 H603 0.950 . S
C611 C609 1.327 . S
C612 C600 1.349 . S
C612 H606 0.950 . S
C612 C613 1.327 . S
C613 H607 0.950 . S
C613 C612 1.327 . S
C613 C617 1.429 . S
C614 C597 1.574 . S
C614 H608 0.949 . S
C614 C618 1.368 . S
C615 C596 1.429 . S
C615 C609 1.429 . S
C615 C616 1.523 . S
C616 C597 1.368 . S
C616 C610 1.368 . S
C616 C615 1.523 . S
C617 C601 1.429 . S
C617 C613 1.429 . S
C617 C618 1.523 . S
C618 C602 1.368 . S
C618 C614 1.368 . S
C618 C617 1.523 . S
H619 C594 0.950 . S
H620 C596 0.950 . S
H621 C597 0.949 . S
H622 C599 0.950 . S
H623 C601 0.950 . S
C624 C625 1.349 . S
C624 C626 1.327 . S
C624 H649 0.950 . S
C625 C624 1.349 . S
C625 C641 1.349 . S
C626 C624 1.327 . S
C626 C645 1.429 . S
C626 H650 0.950 . S
C627 C644 1.574 . S
C627 C646 1.368 . S
C627 H651 0.949 . S
H628 C632 0.949 . S
C629 C630 1.349 . S
C629 C631 1.327 . S
C629 H652 0.950 . S
C630 C629 1.349 . S
C630 C642 1.349 . S
C631 C629 1.327 . S
C631 C647 1.429 . S
C631 H653 0.950 . S
C632 H628 0.949 . S
C632 C640 1.574 . S
C632 C648 1.368 . S
H633 C641 0.950 . S
H634 C639 0.950 . S
H635 C640 0.949 . S
H636 C642 0.950 . S
H637 C643 0.950 . S
H638 C644 0.949 . S
C639 H634 0.950 . S
C639 C641 1.327 . S
C639 C645 1.429 . S
C640 C632 1.574 . S
C640 H635 0.949 . S
C640 C646 1.368 . S
C641 C625 1.349 . S
C641 H633 0.950 . S
C641 C639 1.327 . S
C642 C630 1.349 . S
C642 H636 0.950 . S
C642 C643 1.327 . S
C643 H637 0.950 . S
C643 C642 1.327 . S
C643 C647 1.429 . S
C644 C627 1.574 . S
C644 H638 0.949 . S
C644 C648 1.368 . S
C645 C626 1.429 . S
C645 C639 1.429 . S
C645 C646 1.523 . S
C646 C627 1.368 . S
C646 C640 1.368 . S
C646 C645 1.523 . S
C647 C631 1.429 . S
C647 C643 1.429 . S
C647 C648 1.523 . S
C648 C632 1.368 . S
C648 C644 1.368 . S
C648 C647 1.523 . S
H649 C624 0.950 . S
H650 C626 0.950 . S
H651 C627 0.949 . S
H652 C629 0.950 . S
H653 C631 0.950 . S
C654 C655 1.349 . S
C654 C656 1.327 . S
C654 H679 0.950 . S
C655 C654 1.349 . S
C655 C671 1.349 . S
C656 C654 1.327 . S
C656 C675 1.429 . S
C656 H680 0.950 . S
C657 C674 1.574 . S
C657 C676 1.368 . S
C657 H681 0.949 . S
H658 C662 0.949 . S
C659 C660 1.349 . S
C659 C661 1.327 . S
C659 H682 0.950 . S
C660 C659 1.349 . S
C660 C672 1.349 . S
C661 C659 1.327 . S
C661 C677 1.429 . S
C661 H683 0.950 . S
C662 H658 0.949 . S
C662 C670 1.574 . S
C662 C678 1.368 . S
H663 C671 0.950 . S
H664 C669 0.950 . S
H665 C670 0.949 . S
H666 C672 0.950 1_556 S
H667 C673 0.950 . S
H668 C674 0.949 . S
C669 H664 0.950 . S
C669 C671 1.327 . S
C669 C675 1.429 . S
C670 C662 1.574 . S
C670 H665 0.949 . S
C670 C676 1.368 . S
C671 C655 1.349 . S
C671 H663 0.950 . S
C671 C669 1.327 . S
C672 C660 1.349 . S
C672 H666 0.950 1_554 S
C672 C673 1.327 . S
C673 H667 0.950 . S
C673 C672 1.327 . S
C673 C677 1.429 . S
C674 C657 1.574 . S
C674 H668 0.949 . S
C674 C678 1.368 . S
C675 C656 1.429 . S
C675 C669 1.429 . S
C675 C676 1.523 . S
C676 C657 1.368 . S
C676 C670 1.368 . S
C676 C675 1.523 . S
C677 C661 1.429 . S
C677 C673 1.429 . S
C677 C678 1.523 . S
C678 C662 1.368 . S
C678 C674 1.368 . S
C678 C677 1.523 . S
H679 C654 0.950 . S
H680 C656 0.950 . S
H681 C657 0.949 . S
H682 C659 0.950 . S
H683 C661 0.950 . S
C684 C685 1.349 . S
C684 C686 1.327 . S
C684 H709 0.950 . S
C685 C684 1.349 . S
C685 C701 1.349 . S
C686 C684 1.327 . S
C686 C705 1.429 . S
C686 H710 0.950 . S
C687 C704 1.574 . S
C687 C706 1.368 . S
C687 H711 0.949 . S
H688 C692 0.949 . S
C689 C690 1.349 . S
C689 C691 1.327 . S
C689 H712 0.950 . S
C690 C689 1.349 . S
C690 C702 1.349 . S
C691 C689 1.327 . S
C691 C707 1.429 . S
C691 H713 0.950 . S
C692 H688 0.949 . S
C692 C700 1.574 . S
C692 C708 1.368 . S
H693 C701 0.950 . S
H694 C699 0.950 . S
H695 C700 0.949 . S
H696 C702 0.950 . S
H697 C703 0.950 . S
H698 C704 0.949 . S
C699 H694 0.950 . S
C699 C701 1.327 . S
C699 C705 1.429 . S
C700 C692 1.574 . S
C700 H695 0.949 . S
C700 C706 1.368 . S
C701 C685 1.349 . S
C701 H693 0.950 . S
C701 C699 1.327 . S
C702 C690 1.349 . S
C702 H696 0.950 . S
C702 C703 1.327 . S
C703 H697 0.950 . S
C703 C702 1.327 . S
C703 C707 1.429 . S
C704 C687 1.574 . S
C704 H698 0.949 . S
C704 C708 1.368 . S
C705 C686 1.429 . S
C705 C699 1.429 . S
C705 C706 1.523 . S
C706 C687 1.368 . S
C706 C700 1.368 . S
C706 C705 1.523 . S
C707 C691 1.429 . S
C707 C703 1.429 . S
C707 C708 1.523 . S
C708 C692 1.368 . S
C708 C704 1.368 . S
C708 C707 1.523 . S
H709 C684 0.950 . S
H710 C686 0.950 . S
H711 C687 0.949 . S
H712 C689 0.950 . S
H713 C691 0.950 . S
C714 C715 1.349 . S
C714 C716 1.327 . S
C714 H739 0.950 . S
C715 C714 1.349 . S
C715 C731 1.349 . S
C716 C714 1.327 . S
C716 C735 1.429 . S
C716 H740 0.950 . S
C717 C734 1.574 . S
C717 C736 1.368 . S
C717 H741 0.949 . S
H718 C722 0.949 . S
C719 C720 1.349 . S
C719 C721 1.327 . S
C719 H742 0.950 . S
C720 C719 1.349 . S
C720 C732 1.349 . S
C721 C719 1.327 . S
C721 C737 1.429 . S
C721 H743 0.950 . S
C722 H718 0.949 . S
C722 C730 1.574 . S
C722 C738 1.368 . S
H723 C731 0.950 . S
H724 C729 0.950 . S
H725 C730 0.949 . S
H726 C732 0.950 . S
H727 C733 0.950 . S
H728 C734 0.949 . S
C729 H724 0.950 . S
C729 C731 1.327 . S
C729 C735 1.429 . S
C730 C722 1.574 . S
C730 H725 0.949 . S
C730 C736 1.368 . S
C731 C715 1.349 . S
C731 H723 0.950 . S
C731 C729 1.327 . S
C732 C720 1.349 . S
C732 H726 0.950 . S
C732 C733 1.327 . S
C733 H727 0.950 . S
C733 C732 1.327 . S
C733 C737 1.429 . S
C734 C717 1.574 . S
C734 H728 0.949 . S
C734 C738 1.368 . S
C735 C716 1.429 . S
C735 C729 1.429 . S
C735 C736 1.523 . S
C736 C717 1.368 . S
C736 C730 1.368 . S
C736 C735 1.523 . S
C737 C721 1.429 . S
C737 C733 1.429 . S
C737 C738 1.523 . S
C738 C722 1.368 . S
C738 C734 1.368 . S
C738 C737 1.523 . S
H739 C714 0.950 . S
H740 C716 0.950 . S
H741 C717 0.949 . S
H742 C719 0.950 . S
H743 C721 0.950 . S
C744 C745 1.349 . S
C744 C746 1.327 . S
C744 H769 0.950 . S
C745 C744 1.349 . S
C745 C761 1.349 . S
C746 C744 1.327 . S
C746 C765 1.429 . S
C746 H770 0.950 . S
C747 C764 1.574 . S
C747 C766 1.368 . S
C747 H771 0.949 . S
H748 C752 0.949 . S
C749 C750 1.349 . S
C749 C751 1.327 . S
C749 H772 0.950 . S
C750 C749 1.349 . S
C750 C762 1.349 . S
C751 C749 1.327 . S
C751 C767 1.429 . S
C751 H773 0.950 . S
C752 H748 0.949 . S
C752 C760 1.574 . S
C752 C768 1.368 . S
H753 C761 0.950 . S
H754 C759 0.950 . S
H755 C760 0.949 . S
H756 C762 0.950 . S
H757 C763 0.950 . S
H758 C764 0.949 . S
C759 H754 0.950 . S
C759 C761 1.327 . S
C759 C765 1.429 . S
C760 C752 1.574 . S
C760 H755 0.949 . S
C760 C766 1.368 . S
C761 C745 1.349 . S
C761 H753 0.950 . S
C761 C759 1.327 . S
C762 C750 1.349 . S
C762 H756 0.950 . S
C762 C763 1.327 . S
C763 H757 0.950 . S
C763 C762 1.327 . S
C763 C767 1.429 . S
C764 C747 1.574 . S
C764 H758 0.949 . S
C764 C768 1.368 . S
C765 C746 1.429 . S
C765 C759 1.429 . S
C765 C766 1.523 . S
C766 C747 1.368 . S
C766 C760 1.368 . S
C766 C765 1.523 . S
C767 C751 1.429 . S
C767 C763 1.429 . S
C767 C768 1.523 . S
C768 C752 1.368 . S
C768 C764 1.368 . S
C768 C767 1.523 . S
H769 C744 0.950 . S
H770 C746 0.950 . S
H771 C747 0.949 . S
H772 C749 0.950 . S
H773 C751 0.950 . S
C774 C775 1.349 . S
C774 C776 1.327 . S
C774 H799 0.950 . S
C775 C774 1.349 . S
C775 C791 1.349 . S
C776 C774 1.327 . S
C776 C795 1.429 . S
C776 H800 0.950 . S
C777 C794 1.574 . S
C777 C796 1.368 . S
C777 H801 0.949 . S
H778 C782 0.949 . S
C779 C780 1.349 . S
C779 C781 1.327 . S
C779 H802 0.950 . S
C780 C779 1.349 . S
C780 C792 1.349 . S
C781 C779 1.327 . S
C781 C797 1.429 . S
C781 H803 0.950 . S
C782 H778 0.949 . S
C782 C790 1.574 . S
C782 C798 1.368 . S
H783 C791 0.950 . S
H784 C789 0.950 . S
H785 C790 0.949 . S
H786 C792 0.950 . S
H787 C793 0.950 . S
H788 C794 0.949 . S
C789 H784 0.950 . S
C789 C791 1.327 . S
C789 C795 1.429 . S
C790 C782 1.574 . S
C790 H785 0.949 . S
C790 C796 1.368 . S
C791 C775 1.349 . S
C791 H783 0.950 . S
C791 C789 1.327 . S
C792 C780 1.349 . S
C792 H786 0.950 . S
C792 C793 1.327 . S
C793 H787 0.950 . S
C793 C792 1.327 . S
C793 C797 1.429 . S
C794 C777 1.574 . S
C794 H788 0.949 . S
C794 C798 1.368 . S
C795 C776 1.429 . S
C795 C789 1.429 . S
C795 C796 1.523 . S
C796 C777 1.368 . S
C796 C790 1.368 . S
C796 C795 1.523 . S
C797 C781 1.429 . S
C797 C793 1.429 . S
C797 C798 1.523 . S
C798 C782 1.368 . S
C798 C794 1.368 . S
C798 C797 1.523 . S
H799 C774 0.950 . S
H800 C776 0.950 . S
H801 C777 0.949 . S
H802 C779 0.950 . S
H803 C781 0.950 . S
C804 C805 1.349 . S
C804 C806 1.327 . S
C804 H829 0.950 1_556 S
C805 C804 1.349 . S
C805 C821 1.349 . S
C806 C804 1.327 . S
C806 C825 1.429 . S
C806 H830 0.950 . S
C807 C824 1.574 . S
C807 C826 1.368 . S
C807 H831 0.949 . S
H808 C812 0.949 . S
C809 C810 1.349 . S
C809 C811 1.327 . S
C809 H832 0.950 . S
C810 C809 1.349 . S
C810 C822 1.349 . S
C811 C809 1.327 . S
C811 C827 1.429 . S
C811 H833 0.950 . S
C812 H808 0.949 . S
C812 C820 1.574 . S
C812 C828 1.368 . S
H813 C821 0.950 . S
H814 C819 0.950 . S
H815 C820 0.949 . S
H816 C822 0.950 . S
H817 C823 0.950 . S
H818 C824 0.949 . S
C819 H814 0.950 . S
C819 C821 1.327 . S
C819 C825 1.429 . S
C820 C812 1.574 . S
C820 H815 0.949 . S
C820 C826 1.368 . S
C821 C805 1.349 . S
C821 H813 0.950 . S
C821 C819 1.327 . S
C822 C810 1.349 . S
C822 H816 0.950 . S
C822 C823 1.327 . S
C823 H817 0.950 . S
C823 C822 1.327 . S
C823 C827 1.429 . S
C824 C807 1.574 . S
C824 H818 0.949 . S
C824 C828 1.368 . S
C825 C806 1.429 . S
C825 C819 1.429 . S
C825 C826 1.523 . S
C826 C807 1.368 . S
C826 C820 1.368 . S
C826 C825 1.523 . S
C827 C811 1.429 . S
C827 C823 1.429 . S
C827 C828 1.523 . S
C828 C812 1.368 . S
C828 C824 1.368 . S
C828 C827 1.523 . S
H829 C804 0.950 1_554 S
H830 C806 0.950 . S
H831 C807 0.949 . S
H832 C809 0.950 . S
H833 C811 0.950 . S
C834 C835 1.349 . S
C834 C836 1.327 . S
C834 H859 0.950 1_554 S
C835 C834 1.349 . S
C835 C851 1.349 . S
C836 C834 1.327 . S
C836 C855 1.429 . S
C836 H860 0.950 . S
C837 C854 1.574 . S
C837 C856 1.368 . S
C837 H861 0.949 . S
H838 C842 0.949 . S
C839 C840 1.349 . S
C839 C841 1.327 . S
C839 H862 0.950 . S
C840 C839 1.349 . S
C840 C852 1.349 . S
C841 C839 1.327 . S
C841 C857 1.429 . S
C841 H863 0.950 . S
C842 H838 0.949 . S
C842 C850 1.574 . S
C842 C858 1.368 . S
H843 C851 0.950 . S
H844 C849 0.950 . S
H845 C850 0.949 . S
H846 C852 0.950 . S
H847 C853 0.950 . S
H848 C854 0.949 . S
C849 H844 0.950 . S
C849 C851 1.327 . S
C849 C855 1.429 . S
C850 C842 1.574 . S
C850 H845 0.949 . S
C850 C856 1.368 . S
C851 C835 1.349 . S
C851 H843 0.950 . S
C851 C849 1.327 . S
C852 C840 1.349 . S
C852 H846 0.950 . S
C852 C853 1.327 . S
C853 H847 0.950 . S
C853 C852 1.327 . S
C853 C857 1.429 . S
C854 C837 1.574 . S
C854 H848 0.949 . S
C854 C858 1.368 . S
C855 C836 1.429 . S
C855 C849 1.429 . S
C855 C856 1.523 . S
C856 C837 1.368 . S
C856 C850 1.368 . S
C856 C855 1.523 . S
C857 C841 1.429 . S
C857 C853 1.429 . S
C857 C858 1.523 . S
C858 C842 1.368 . S
C858 C854 1.368 . S
C858 C857 1.523 . S
H859 C834 0.950 1_556 S
H860 C836 0.950 . S
H861 C837 0.949 . S
H862 C839 0.950 . S
H863 C841 0.950 . S
C265 C248 1.168 . S
C270 C17 1.168 . S
C295 C149 1.151 . S
C300 C50 1.150 . S
C325 C182 1.135 . S
C330 C83 1.134 . S
C355 C215 1.150 . S
C360 C116 1.151 . S
C385 N5 1.393 . S
C390 N14 1.388 . S
C415 N47 1.388 . S
C420 N38 1.393 . S
C445 N71 1.393 . S
C450 N80 1.388 . S
C475 N113 1.388 . S
C480 N104 1.393 . S
C505 N146 1.388 . S
C510 N137 1.393 . S
C535 N179 1.384 . S
C540 N170 1.389 . S
C565 N212 1.388 . S
C570 N203 1.393 . S
C595 N245 1.392 . S
C600 N236 1.397 . S
C625 C226 1.310 . S
C630 C8 1.317 . S
C655 C41 1.340 . S
C660 C259 1.335 . S
C685 C160 1.292 . S
C690 C74 1.300 . S
C715 C127 1.268 . S
C720 C193 1.267 . S
C745 C173 1.265 . S
C750 C61 1.260 . S
C775 C94 1.283 . S
C780 C206 1.291 . S
C805 C239 1.332 . S
C810 C107 1.331 . S
C835 C28 1.301 . S
C840 C140 1.309 . S
