# Generated by pormake.
# Topology bmn, (3)-cn, num edge types: 1
# Building blocks:
#     Node 0, Type 0, BuildingBlock: OLANEW_clean_sbu_2, # of connection points: 3
#     Node 1, Type 0, BuildingBlock: OLANEW_clean_sbu_2, # of connection points: 3
#     Node 2, Type 0, BuildingBlock: OLANEW_clean_sbu_2, # of connection points: 3
#     Node 3, Type 0, BuildingBlock: OLANEW_clean_sbu_2, # of connection points: 3
#     Node 4, Type 0, BuildingBlock: OLANEW_clean_sbu_2, # of connection points: 3
#     Node 5, Type 0, BuildingBlock: OLANEW_clean_sbu_2, # of connection points: 3
#     Node 6, Type 0, BuildingBlock: OLANEW_clean_sbu_2, # of connection points: 3
#     Node 7, Type 0, BuildingBlock: OLANEW_clean_sbu_2, # of connection points: 3
#     Node 8, Type 0, BuildingBlock: OLANEW_clean_sbu_2, # of connection points: 3
#     Node 9, Type 0, BuildingBlock: OLANEW_clean_sbu_2, # of connection points: 3
#     Node 10, Type 0, BuildingBlock: OLANEW_clean_sbu_2, # of connection points: 3
#     Node 11, Type 0, BuildingBlock: OLANEW_clean_sbu_2, # of connection points: 3
#     Node 12, Type 0, BuildingBlock: OLANEW_clean_sbu_2, # of connection points: 3
#     Node 13, Type 0, BuildingBlock: OLANEW_clean_sbu_2, # of connection points: 3
#     Node 14, Type 0, BuildingBlock: OLANEW_clean_sbu_2, # of connection points: 3
#     Node 15, Type 0, BuildingBlock: OLANEW_clean_sbu_2, # of connection points: 3
#     Node 16, Type 0, BuildingBlock: OLANEW_clean_sbu_2, # of connection points: 3
#     Node 17, Type 0, BuildingBlock: OLANEW_clean_sbu_2, # of connection points: 3
#     Node 18, Type 0, BuildingBlock: OLANEW_clean_sbu_2, # of connection points: 3
#     Node 19, Type 0, BuildingBlock: OLANEW_clean_sbu_2, # of connection points: 3
#     Node 20, Type 0, BuildingBlock: OLANEW_clean_sbu_2, # of connection points: 3
#     Node 21, Type 0, BuildingBlock: OLANEW_clean_sbu_2, # of connection points: 3
#     Node 22, Type 0, BuildingBlock: OLANEW_clean_sbu_2, # of connection points: 3
#     Node 23, Type 0, BuildingBlock: OLANEW_clean_sbu_2, # of connection points: 3
#     Edge 24, Type (0, 0), BuildingBlock: UVAHIK_clean_linker_0, # of connection points: 2
#     Edge 25, Type (0, 0), BuildingBlock: UVAHIK_clean_linker_0, # of connection points: 2
#     Edge 26, Type (0, 0), BuildingBlock: UVAHIK_clean_linker_0, # of connection points: 2
#     Edge 27, Type (0, 0), BuildingBlock: UVAHIK_clean_linker_0, # of connection points: 2
#     Edge 28, Type (0, 0), BuildingBlock: UVAHIK_clean_linker_0, # of connection points: 2
#     Edge 29, Type (0, 0), BuildingBlock: UVAHIK_clean_linker_0, # of connection points: 2
#     Edge 30, Type (0, 0), BuildingBlock: UVAHIK_clean_linker_0, # of connection points: 2
#     Edge 31, Type (0, 0), BuildingBlock: UVAHIK_clean_linker_0, # of connection points: 2
#     Edge 32, Type (0, 0), BuildingBlock: UVAHIK_clean_linker_0, # of connection points: 2
#     Edge 33, Type (0, 0), BuildingBlock: UVAHIK_clean_linker_0, # of connection points: 2
#     Edge 34, Type (0, 0), BuildingBlock: UVAHIK_clean_linker_0, # of connection points: 2
#     Edge 35, Type (0, 0), BuildingBlock: UVAHIK_clean_linker_0, # of connection points: 2
#     Edge 36, Type (0, 0), BuildingBlock: UVAHIK_clean_linker_0, # of connection points: 2
#     Edge 37, Type (0, 0), BuildingBlock: UVAHIK_clean_linker_0, # of connection points: 2
#     Edge 38, Type (0, 0), BuildingBlock: UVAHIK_clean_linker_0, # of connection points: 2
#     Edge 39, Type (0, 0), BuildingBlock: UVAHIK_clean_linker_0, # of connection points: 2
#     Edge 40, Type (0, 0), BuildingBlock: UVAHIK_clean_linker_0, # of connection points: 2
#     Edge 41, Type (0, 0), BuildingBlock: UVAHIK_clean_linker_0, # of connection points: 2
#     Edge 42, Type (0, 0), BuildingBlock: UVAHIK_clean_linker_0, # of connection points: 2
#     Edge 43, Type (0, 0), BuildingBlock: UVAHIK_clean_linker_0, # of connection points: 2
#     Edge 44, Type (0, 0), BuildingBlock: UVAHIK_clean_linker_0, # of connection points: 2
#     Edge 45, Type (0, 0), BuildingBlock: UVAHIK_clean_linker_0, # of connection points: 2
#     Edge 46, Type (0, 0), BuildingBlock: UVAHIK_clean_linker_0, # of connection points: 2
#     Edge 47, Type (0, 0), BuildingBlock: UVAHIK_clean_linker_0, # of connection points: 2
#     Edge 48, Type (0, 0), BuildingBlock: UVAHIK_clean_linker_0, # of connection points: 2
#     Edge 49, Type (0, 0), BuildingBlock: UVAHIK_clean_linker_0, # of connection points: 2
#     Edge 50, Type (0, 0), BuildingBlock: UVAHIK_clean_linker_0, # of connection points: 2
#     Edge 51, Type (0, 0), BuildingBlock: UVAHIK_clean_linker_0, # of connection points: 2
#     Edge 52, Type (0, 0), BuildingBlock: UVAHIK_clean_linker_0, # of connection points: 2
#     Edge 53, Type (0, 0), BuildingBlock: UVAHIK_clean_linker_0, # of connection points: 2
#     Edge 54, Type (0, 0), BuildingBlock: UVAHIK_clean_linker_0, # of connection points: 2
#     Edge 55, Type (0, 0), BuildingBlock: UVAHIK_clean_linker_0, # of connection points: 2
#     Edge 56, Type (0, 0), BuildingBlock: UVAHIK_clean_linker_0, # of connection points: 2
#     Edge 57, Type (0, 0), BuildingBlock: UVAHIK_clean_linker_0, # of connection points: 2
#     Edge 58, Type (0, 0), BuildingBlock: UVAHIK_clean_linker_0, # of connection points: 2
#     Edge 59, Type (0, 0), BuildingBlock: UVAHIK_clean_linker_0, # of connection points: 2
# Relax obj value: 0.042
# Max RMSD: 0.071
# Mean RMSD: 0.032
data_MOF--net-bmn--node1-OLANEW_clean_sbu_2--edge1-UVAHIK_clean_linker_0
_symmetry_space_group_name_H-M    P1
_symmetry_Int_Tables_number       1
_symmetry_cell_setting            triclinic
loop_
_symmetry_equiv_pos_as_xyz
'x, y, z'
_cell_length_a     78.258098
_cell_length_b     78.067464
_cell_length_c     78.515495
_cell_angle_alpha  102.86745
_cell_angle_beta   97.447997
_cell_angle_gamma 97.448948
loop_
_atom_site_label
_atom_site_type_symbol
_atom_site_fract_x
_atom_site_fract_y
_atom_site_fract_z
_atom_type_partial_charge
O0 O 0.17212 0.52978 0.36305 0.0
Cd1 Cd 0.15135 0.53959 0.38242 0.0
O2 O 0.19469 0.54818 0.38002 0.0
Cd3 Cd 0.17842 0.56233 0.39692 0.0
O4 O 0.16344 0.58376 0.40427 0.0
C5 C 0.16521 0.59577 0.39575 0.0
O6 O 0.17567 0.59434 0.38387 0.0
C7 C 0.18843 0.53568 0.36634 0.0
C8 C 0.1488 0.51977 0.40777 0.0
O9 O 0.13897 0.51472 0.39258 0.0
O10 O 0.1598 0.53422 0.41098 0.0
O11 O 0.98478 0.94364 0.5617 0.0
Cd12 Cd 0.97606 0.92723 0.58318 0.0
O13 O 0.98147 0.96954 0.57783 0.0
Cd14 Cd 0.96845 0.95726 0.59615 0.0
O15 O 0.94658 0.94486 0.6063 0.0
C16 C 0.93152 0.94682 0.59954 0.0
O17 O 0.93035 0.95613 0.58752 0.0
C18 C 0.9861 0.96046 0.56413 0.0
C19 C 0.0055 0.92397 0.60567 0.0
O20 O 0.99948 0.91213 0.59123 0.0
O21 O 0.99747 0.93726 0.60957 0.0
O22 O 0.4249 0.64874 0.77221 0.0
Cd23 Cd 0.42459 0.63566 0.79772 0.0
O24 O 0.44149 0.6717 0.79093 0.0
Cd25 Cd 0.45529 0.69916 0.79939 0.0
O26 O 0.46644 0.72705 0.81121 0.0
C27 C 0.47375 0.73151 0.82733 0.0
O28 O 0.47467 0.71913 0.83618 0.0
C29 C 0.43374 0.66426 0.77525 0.0
C30 C 0.44847 0.61221 0.79903 0.0
O31 O 0.43233 0.60642 0.7925 0.0
O32 O 0.45333 0.62906 0.80485 0.0
O33 O 0.77085 0.26575 0.07713 0.0
Cd34 Cd 0.79817 0.26454 0.09538 0.0
O35 O 0.76523 0.28551 0.09931 0.0
Cd36 Cd 0.75111 0.30515 0.11324 0.0
O37 O 0.737 0.32149 0.13092 0.0
C38 C 0.72197 0.32466 0.12559 0.0
O39 O 0.7149 0.31828 0.10887 0.0
C40 C 0.76079 0.27614 0.08347 0.0
C41 C 0.82536 0.28718 0.08817 0.0
O42 O 0.82121 0.27089 0.07938 0.0
O43 O 0.81678 0.29271 0.10057 0.0
O44 O 0.01991 0.06296 0.42799 0.0
Cd45 Cd 0.02535 0.07885 0.40523 0.0
O46 O 0.03645 0.04392 0.41741 0.0
Cd47 Cd 0.04997 0.02111 0.41742 0.0
O48 O 0.05716 0.99489 0.41647 0.0
C49 C 0.0587 0.98899 0.43034 0.0
O50 O 0.0566 0.99918 0.44541 0.0
C51 C 0.02668 0.04914 0.42862 0.0
C52 C 0.04145 0.11387 0.42058 0.0
O53 O 0.02477 0.10974 0.41709 0.0
O54 O 0.05052 0.10143 0.41666 0.0
O55 O 0.46539 0.74436 0.62397 0.0
Cd56 Cd 0.4713 0.75579 0.59843 0.0
O57 O 0.44078 0.75494 0.62377 0.0
Cd58 Cd 0.41786 0.76207 0.63513 0.0
O59 O 0.39746 0.77347 0.64807 0.0
C60 C 0.40146 0.78276 0.66394 0.0
O61 O 0.41763 0.78485 0.6721 0.0
C62 C 0.45163 0.74658 0.63059 0.0
C63 C 0.50684 0.76848 0.60173 0.0
O64 O 0.49627 0.77904 0.60692 0.0
O65 O 0.50055 0.75203 0.59485 0.0
O66 O 0.58647 0.27742 0.97646 0.0
Cd67 Cd 0.55742 0.27307 0.95863 0.0
O68 O 0.59766 0.26182 0.95496 0.0
Cd69 Cd 0.57235 0.25011 0.93865 0.0
O70 O 0.5518 0.2272 0.92726 0.0
C71 C 0.54184 0.22205 0.93733 0.0
O72 O 0.54342 0.23155 0.9537 0.0
C73 C 0.5996 0.27177 0.97051 0.0
C74 C 0.557 0.29435 0.93432 0.0
O75 O 0.55407 0.30032 0.95006 0.0
O76 O 0.55996 0.27832 0.93006 0.0
O77 O 0.30898 0.49749 0.2329 0.0
Cd78 Cd 0.32593 0.49303 0.20872 0.0
O79 O 0.2854 0.49029 0.21291 0.0
Cd80 Cd 0.25769 0.48668 0.20179 0.0
O81 O 0.23267 0.48109 0.18406 0.0
C82 C 0.23264 0.48477 0.16908 0.0
O83 O 0.24737 0.49202 0.16534 0.0
C84 C 0.29244 0.49499 0.22915 0.0
C85 C 0.35325 0.47481 0.21594 0.0
O86 O 0.35526 0.49185 0.2208 0.0
O87 O 0.3383 0.46638 0.20757 0.0
O88 O 0.32598 0.30914 0.51661 0.0
Cd89 Cd 0.35679 0.31105 0.51369 0.0
O90 O 0.32944 0.29344 0.53638 0.0
Cd91 Cd 0.32024 0.27834 0.5547 0.0
O92 O 0.31069 0.26257 0.57226 0.0
C93 C 0.29619 0.25204 0.56734 0.0
O94 O 0.28718 0.25095 0.55169 0.0
C95 C 0.31968 0.30127 0.52748 0.0
C96 C 0.36357 0.28608 0.48509 0.0
O97 O 0.36481 0.28309 0.50058 0.0
O98 O 0.35884 0.30073 0.48311 0.0
O99 O 0.21626 0.10749 0.70843 0.0
Cd100 Cd 0.20962 0.13695 0.70712 0.0
O101 O 0.22583 0.11881 0.73676 0.0
Cd102 Cd 0.23826 0.11641 0.76254 0.0
O103 O 0.25115 0.11028 0.78631 0.0
C104 C 0.25849 0.09655 0.78492 0.0
O105 O 0.2583 0.08638 0.7691 0.0
C106 C 0.22253 0.10547 0.72347 0.0
C107 C 0.22597 0.15215 0.68327 0.0
O108 O 0.23343 0.15453 0.69934 0.0
O109 O 0.2109 0.14233 0.67842 0.0
O110 O 0.34988 0.03155 0.02803 0.0
Cd111 Cd 0.32566 0.04188 0.04189 0.0
O112 O 0.34113 0.04302 0.00611 0.0
Cd113 Cd 0.34128 0.05188 0.98157 0.0
O114 O 0.33488 0.06045 0.95723 0.0
C115 C 0.33449 0.05007 0.94216 0.0
O116 O 0.33861 0.03415 0.94135 0.0
C117 C 0.35193 0.03474 0.01318 0.0
C118 C 0.33812 0.06628 0.07429 0.0
O119 O 0.33409 0.04962 0.07339 0.0
O120 O 0.33609 0.07143 0.05986 0.0
O121 O 0.48357 0.2075 0.32076 0.0
Cd122 Cd 0.46746 0.18075 0.32606 0.0
O123 O 0.46596 0.20146 0.29552 0.0
Cd124 Cd 0.45401 0.20214 0.26895 0.0
O125 O 0.43758 0.1912 0.2431 0.0
C126 C 0.42785 0.17637 0.24144 0.0
O127 O 0.42825 0.16917 0.25508 0.0
C128 C 0.47859 0.21172 0.30641 0.0
C129 C 0.44483 0.19064 0.34971 0.0
O130 O 0.46004 0.18757 0.35516 0.0
O131 O 0.44022 0.18867 0.33303 0.0
O132 O 0.58847 0.37753 0.29037 0.0
Cd133 Cd 0.60576 0.40459 0.28698 0.0
O134 O 0.56542 0.38724 0.27975 0.0
Cd135 Cd 0.53784 0.38882 0.27267 0.0
O136 O 0.5134 0.39849 0.26667 0.0
C137 C 0.49984 0.38874 0.25688 0.0
O138 O 0.50021 0.37183 0.25011 0.0
C139 C 0.57201 0.37526 0.28572 0.0
C140 C 0.62509 0.3966 0.25972 0.0
O141 O 0.63155 0.39728 0.27576 0.0
O142 O 0.60951 0.39987 0.2566 0.0
O143 O 0.03528 0.42657 0.99716 0.0
Cd144 Cd 0.05527 0.40653 0.0039 0.0
O145 O 0.01693 0.41389 0.01119 0.0
Cd146 Cd 0.99178 0.40701 0.01932 0.0
O147 O 0.96865 0.39329 0.0264 0.0
C148 C 0.96227 0.39977 0.04004 0.0
O149 O 0.96952 0.41552 0.05007 0.0
C150 C 0.02054 0.42528 0.00232 0.0
C151 C 0.08248 0.42275 0.03169 0.0
O152 O 0.08388 0.42306 0.01567 0.0
O153 O 0.0681 0.41491 0.03459 0.0
O154 O 0.00482 0.72734 0.36902 0.0
Cd155 Cd 0.02934 0.74826 0.38827 0.0
O156 O 0.99937 0.74451 0.35091 0.0
Cd157 Cd 0.01948 0.76671 0.36577 0.0
O158 O 0.03418 0.79352 0.37655 0.0
C159 C 0.03682 0.8008 0.39304 0.0
O160 O 0.03122 0.79165 0.40395 0.0
C161 C 0.99596 0.72988 0.35531 0.0
C162 C 0.05577 0.72911 0.39606 0.0
O163 O 0.04395 0.73139 0.40584 0.0
O164 O 0.05533 0.7363 0.38287 0.0
O165 O 0.74272 0.79778 0.59756 0.0
Cd166 Cd 0.74089 0.82502 0.61923 0.0
O167 O 0.73249 0.80773 0.57483 0.0
Cd168 Cd 0.72207 0.82862 0.59174 0.0
O169 O 0.69735 0.83023 0.60152 0.0
C170 C 0.68991 0.81524 0.60291 0.0
O171 O 0.69809 0.80149 0.59947 0.0
C172 C 0.73924 0.79589 0.5809 0.0
C173 C 0.77126 0.8493 0.62226 0.0
O174 O 0.77042 0.83827 0.63214 0.0
O175 O 0.75759 0.84912 0.61125 0.0
O176 O 0.16129 0.37713 0.56104 0.0
Cd177 Cd 0.13796 0.39511 0.56244 0.0
O178 O 0.14447 0.35712 0.5392 0.0
Cd179 Cd 0.13778 0.33115 0.52025 0.0
O180 O 0.12787 0.30403 0.50464 0.0
C181 C 0.12329 0.2923 0.51282 0.0
O182 O 0.125 0.29695 0.53018 0.0
C183 C 0.15905 0.36241 0.54952 0.0
C184 C 0.13874 0.41569 0.53763 0.0
O185 O 0.14745 0.42158 0.55332 0.0
O186 O 0.12955 0.4001 0.5337 0.0
O187 O 0.25513 0.92834 0.75748 0.0
Cd188 Cd 0.25498 0.8995 0.76482 0.0
O189 O 0.22718 0.92034 0.74722 0.0
Cd190 Cd 0.20078 0.92353 0.73661 0.0
O191 O 0.17513 0.92544 0.72309 0.0
C192 C 0.1682 0.91354 0.70917 0.0
O193 O 0.17665 0.90047 0.70348 0.0
C194 C 0.24097 0.93193 0.7503 0.0
C195 C 0.27835 0.88004 0.7484 0.0
O196 O 0.26254 0.87863 0.74079 0.0
O197 O 0.2831 0.89071 0.76377 0.0
O198 O 0.61551 0.46865 0.7945 0.0
Cd199 Cd 0.59557 0.46821 0.816 0.0
O200 O 0.60226 0.44231 0.77851 0.0
Cd201 Cd 0.58603 0.43679 0.7979 0.0
O202 O 0.57676 0.422 0.8164 0.0
C203 C 0.57584 0.40519 0.81171 0.0
O204 O 0.57976 0.39811 0.79618 0.0
C205 C 0.61381 0.45601 0.7807 0.0
C206 C 0.57182 0.49156 0.8132 0.0
O207 O 0.58568 0.49619 0.82489 0.0
O208 O 0.56918 0.47591 0.80288 0.0
O209 O 0.72777 0.43555 0.63999 0.0
Cd210 Cd 0.74734 0.42881 0.61843 0.0
O211 O 0.7498 0.45104 0.65989 0.0
Cd212 Cd 0.7631 0.46522 0.68651 0.0
O213 O 0.77786 0.47904 0.71255 0.0
C214 C 0.77103 0.47976 0.72647 0.0
O215 O 0.75476 0.47212 0.72505 0.0
C216 C 0.73356 0.44486 0.65563 0.0
C217 C 0.74763 0.45102 0.59514 0.0
O218 O 0.73618 0.43691 0.592 0.0
O219 O 0.75886 0.45471 0.60939 0.0
O220 O 0.91694 0.55224 0.93738 0.0
Cd221 Cd 0.9014 0.57456 0.92787 0.0
O222 O 0.89671 0.54746 0.95332 0.0
Cd223 Cd 0.88261 0.53509 0.97097 0.0
O224 O 0.86915 0.52963 0.99232 0.0
C225 C 0.85771 0.53906 0.99698 0.0
O226 O 0.85414 0.55119 0.98844 0.0
C227 C 0.91089 0.54398 0.9481 0.0
C228 C 0.87922 0.5603 0.89563 0.0
O229 O 0.89512 0.56725 0.89622 0.0
O230 O 0.8738 0.56013 0.91032 0.0
O231 O 0.86469 0.57587 0.23999 0.0
Cd232 Cd 0.84296 0.55102 0.22177 0.0
O233 O 0.85162 0.5963 0.23091 0.0
Cd234 Cd 0.83432 0.57669 0.20937 0.0
O235 O 0.82687 0.56147 0.18192 0.0
C236 C 0.81928 0.56863 0.17068 0.0
O237 O 0.81499 0.58441 0.17623 0.0
C238 C 0.86364 0.59218 0.24102 0.0
C239 C 0.81613 0.54601 0.24116 0.0
O240 O 0.82942 0.53811 0.2426 0.0
O241 O 0.81525 0.55582 0.23008 0.0
O242 O 0.75149 0.61578 0.46786 0.0
Cd243 Cd 0.75323 0.58633 0.45001 0.0
O244 O 0.73321 0.62278 0.44776 0.0
Cd245 Cd 0.73368 0.59864 0.42761 0.0
O246 O 0.73773 0.58184 0.40275 0.0
C247 C 0.72902 0.58327 0.38845 0.0
O248 O 0.71738 0.59402 0.38934 0.0
C249 C 0.74222 0.62669 0.46318 0.0
C250 C 0.75279 0.56223 0.47141 0.0
O251 O 0.76715 0.57143 0.47009 0.0
O252 O 0.73865 0.5642 0.46233 0.0
O253 O 0.506 0.96359 0.94561 0.0
Cd254 Cd 0.53139 0.95298 0.93435 0.0
O255 O 0.50524 0.98037 0.92667 0.0
Cd256 Cd 0.49671 0.0021 0.91616 0.0
O257 O 0.49357 0.02771 0.91046 0.0
C258 C 0.48803 0.03922 0.92164 0.0
O259 O 0.48364 0.03506 0.93599 0.0
C260 C 0.49895 0.97493 0.93902 0.0
C261 C 0.52398 0.91702 0.91682 0.0
O262 O 0.5298 0.92196 0.93348 0.0
O263 O 0.52169 0.92911 0.90846 0.0
C264 C 0.26479 0.48892 0.24144 0.0
C265 C 0.28189 0.4981 0.24353 0.0
C266 C 0.25501 0.49202 0.25519 0.0
C267 C 0.25264 0.5254 0.29602 0.0
H268 H 0.22262 0.4866 0.30618 0.0
C269 C 0.21772 0.5364 0.35662 0.0
C270 C 0.19991 0.52902 0.35363 0.0
C271 C 0.22817 0.5315 0.34381 0.0
C272 C 0.23087 0.49758 0.30342 0.0
H273 H 0.30237 0.51725 0.26187 0.0
H274 H 0.28545 0.52246 0.28593 0.0
H275 H 0.2399 0.48038 0.2824 0.0
H276 H 0.17931 0.51011 0.33511 0.0
H277 H 0.19757 0.50162 0.31274 0.0
H278 H 0.24361 0.5426 0.31695 0.0
C279 C 0.27941 0.51319 0.27354 0.0
C280 C 0.24073 0.49403 0.28977 0.0
C281 C 0.28915 0.5101 0.25979 0.0
C282 C 0.19297 0.51608 0.33784 0.0
C283 C 0.20345 0.51115 0.32503 0.0
C284 C 0.24284 0.52893 0.30966 0.0
C285 C 0.26217 0.50427 0.27137 0.0
C286 C 0.25172 0.50791 0.28591 0.0
C287 C 0.22109 0.51907 0.32773 0.0
C288 C 0.23183 0.51508 0.31351 0.0
H289 H 0.25906 0.47907 0.22935 0.0
H290 H 0.24176 0.48494 0.25307 0.0
H291 H 0.26073 0.53645 0.2932 0.0
H292 H 0.22352 0.54632 0.36867 0.0
H293 H 0.24179 0.53761 0.34641 0.0
C294 C 0.02147 0.04918 0.45931 0.0
C295 C 0.02344 0.03963 0.44247 0.0
C296 C 0.01841 0.04033 0.47253 0.0
C297 C 0.00221 0.99602 0.47911 0.0
H298 H 0.02472 0.01706 0.52764 0.0
C299 C 0.99587 0.95927 0.53475 0.0
C300 C 0.9923 0.96935 0.55072 0.0
C301 C 0.00073 0.96758 0.52167 0.0
C302 C 0.01825 0.01108 0.51417 0.0
H303 H 0.0226 0.01322 0.42591 0.0
H304 H 0.01791 0.99779 0.44911 0.0
H305 H 0.03102 0.032 0.50444 0.0
H306 H 0.99144 0.99613 0.56561 0.0
H307 H -0.00012 0.01058 0.54278 0.0
H308 H 0.98942 0.97513 0.48887 0.0
C309 C 0.01882 0.01214 0.45218 0.0
C310 C 0.02183 0.01965 0.50088 0.0
C311 C 0.02187 0.02101 0.43897 0.0
C312 C 0.99409 0.98796 0.55347 0.0
C313 C 0.99902 0.99627 0.54042 0.0
C314 C 0.99868 0.98743 0.4924 0.0
C315 C 0.01712 0.0217 0.46915 0.0
C316 C 0.01375 0.01229 0.4832 0.0
C317 C 0.00222 0.98615 0.5243 0.0
C318 C 0.00657 0.99493 0.5101 0.0
H319 H 0.02242 0.06354 0.46231 0.0
H320 H 0.01681 0.04807 0.48533 0.0
H321 H 0.99556 0.99011 0.4657 0.0
H322 H 0.99466 0.94491 0.53221 0.0
H323 H 0.00332 0.95945 0.50948 0.0
C324 C 0.42021 0.67118 0.74747 0.0
C325 C 0.43465 0.67355 0.76087 0.0
C326 C 0.42108 0.67995 0.73382 0.0
C327 C 0.44739 0.71733 0.72151 0.0
H328 H 0.42473 0.6927 0.67384 0.0
C329 C 0.46291 0.73965 0.65906 0.0
C330 C 0.44867 0.73975 0.64623 0.0
C331 C 0.46034 0.73255 0.67354 0.0
C332 C 0.43095 0.69982 0.68712 0.0
H333 H 0.4616 0.68615 0.77004 0.0
H334 H 0.46329 0.70123 0.74617 0.0
H335 H 0.42202 0.67819 0.69805 0.0
H336 H 0.42068 0.73198 0.63812 0.0
H337 H 0.41616 0.71956 0.66349 0.0
H338 H 0.45677 0.73871 0.71036 0.0
C339 C 0.45103 0.69319 0.74648 0.0
C340 C 0.42937 0.69153 0.70103 0.0
C341 C 0.45008 0.68457 0.76021 0.0
C342 C 0.43182 0.73252 0.64807 0.0
C343 C 0.42927 0.7252 0.66245 0.0
C344 C 0.44912 0.72551 0.70757 0.0
C345 C 0.43652 0.69106 0.73313 0.0
C346 C 0.43767 0.70013 0.7184 0.0
C347 C 0.44352 0.72512 0.67531 0.0
C348 C 0.441 0.7168 0.69023 0.0
H349 H 0.40815 0.66272 0.74768 0.0
H350 H 0.40957 0.67815 0.72391 0.0
H351 H 0.45366 0.72453 0.73474 0.0
H352 H 0.47605 0.74506 0.65789 0.0
H353 H 0.47158 0.73248 0.68314 0.0
C354 C 0.63178 0.27135 0.97483 0.0
C355 C 0.61688 0.27559 0.98202 0.0
C356 C 0.64776 0.27319 0.98583 0.0
C357 C 0.67174 0.29306 0.03159 0.0
H358 H 0.6984 0.25477 0.01964 0.0
C359 C 0.72969 0.28154 0.07959 0.0
C360 C 0.74454 0.27746 0.07224 0.0
C361 C 0.71436 0.28247 0.0687 0.0
C362 C 0.69121 0.26566 0.02306 0.0
H363 H 0.60724 0.28566 0.00638 0.0
H364 H 0.63505 0.28851 0.02563 0.0
H365 H 0.67141 0.25474 0.00041 0.0
H366 H 0.75493 0.27087 0.04774 0.0
H367 H 0.72818 0.27234 0.02874 0.0
H368 H 0.69151 0.3037 0.05451 0.0
C369 C 0.63446 0.28402 0.01145 0.0
C370 C 0.67575 0.2657 0.012 0.0
C371 C 0.61848 0.28232 0.00042 0.0
C372 C 0.74369 0.27407 0.05379 0.0
C373 C 0.72838 0.27489 0.04291 0.0
C374 C 0.68719 0.29295 0.04274 0.0
C375 C 0.64922 0.27914 0.00431 0.0
C376 C 0.66583 0.27942 0.01608 0.0
C377 C 0.71353 0.27906 0.05024 0.0
C378 C 0.6971 0.27927 0.03854 0.0
H379 H 0.63104 0.26631 0.96069 0.0
H380 H 0.65894 0.26972 0.97983 0.0
H381 H 0.66454 0.30393 0.03504 0.0
H382 H 0.72964 0.28342 0.09364 0.0
H383 H 0.70301 0.28535 0.07468 0.0
C384 C 0.18478 0.35165 0.5634 0.0
C385 C 0.17336 0.35185 0.54814 0.0
C386 C 0.19919 0.34285 0.56206 0.0
C387 C 0.21936 0.31134 0.53047 0.0
H388 H 0.2623 0.336 0.56145 0.0
C389 C 0.2887 0.30238 0.51593 0.0
C390 C 0.30145 0.30209 0.53016 0.0
C391 C 0.27193 0.30532 0.51875 0.0
C392 C 0.25037 0.32878 0.55289 0.0
H393 H 0.16817 0.34331 0.51951 0.0
H394 H 0.19344 0.32828 0.51706 0.0
H395 H 0.23515 0.34717 0.56528 0.0
H396 H 0.30673 0.3048 0.5585 0.0
H397 H 0.2774 0.30977 0.56342 0.0
H398 H 0.23498 0.29344 0.51758 0.0
C399 C 0.19101 0.33432 0.53015 0.0
C400 C 0.23474 0.33516 0.5551 0.0
C401 C 0.17647 0.34293 0.53153 0.0
C402 C 0.29703 0.3044 0.5472 0.0
C403 C 0.28032 0.30752 0.55006 0.0
C404 C 0.23507 0.30508 0.52813 0.0
C405 C 0.2027 0.33437 0.54539 0.0
C406 C 0.21905 0.32665 0.5438 0.0
C407 C 0.2677 0.30832 0.53591 0.0
C408 C 0.25076 0.31385 0.53922 0.0
H409 H 0.18263 0.35841 0.57638 0.0
H410 H 0.20769 0.34291 0.57411 0.0
H411 H 0.2075 0.30426 0.52171 0.0
H412 H 0.29182 0.30075 0.50268 0.0
H413 H 0.26254 0.30607 0.50763 0.0
C414 C 0.22102 0.08189 0.74024 0.0
C415 C 0.22563 0.08778 0.72558 0.0
C416 C 0.22377 0.06513 0.74234 0.0
C417 C 0.23154 0.02123 0.71773 0.0
H418 H 0.24479 0.01535 0.76514 0.0
C419 C 0.25268 0.96442 0.75647 0.0
C420 C 0.24062 0.94958 0.74639 0.0
C421 C 0.25215 0.98127 0.7533 0.0
C422 C 0.24134 0.01674 0.75176 0.0
H423 H 0.23639 0.08076 0.70141 0.0
H424 H 0.24178 0.05156 0.7053 0.0
H425 H 0.24206 0.04478 0.76085 0.0
H426 H 0.21959 0.94059 0.72399 0.0
H427 H 0.21782 0.97003 0.71918 0.0
H428 H 0.2314 0.99328 0.70859 0.0
C429 C 0.23579 0.05978 0.71508 0.0
C430 C 0.23949 0.03363 0.74933 0.0
C431 C 0.23281 0.0765 0.71288 0.0
C432 C 0.22845 0.95185 0.73261 0.0
C433 C 0.22777 0.96873 0.72955 0.0
C434 C 0.23357 0.00436 0.72015 0.0
C435 C 0.23135 0.05389 0.72989 0.0
C436 C 0.23431 0.03606 0.73231 0.0
C437 C 0.2395 0.98372 0.73997 0.0
C438 C 0.23827 0.00184 0.73722 0.0
H439 H 0.21495 0.09012 0.74993 0.0
H440 H 0.21973 0.0609 0.75364 0.0
H441 H 0.22741 0.02255 0.70444 0.0
H442 H 0.26241 0.96306 0.76703 0.0
H443 H 0.26168 0.99239 0.76131 0.0
C444 C 0.36639 0.02587 0.98647 0.0
C445 C 0.36697 0.02934 0.00489 0.0
C446 C 0.38075 0.0208 0.97889 0.0
C447 C 0.42834 0.0205 0.99024 0.0
H448 H 0.42078 0.98442 0.94598 0.0
C449 C 0.48301 0.98424 0.96422 0.0
C450 C 0.48407 0.98209 0.94617 0.0
C451 C 0.46887 0.99082 0.97104 0.0
C452 C 0.42309 0.99465 0.95825 0.0
H453 H 0.38285 0.02966 0.02976 0.0
H454 H 0.40765 0.02036 0.01657 0.0
H455 H 0.39574 0.99424 0.9585 0.0
H456 H 0.47082 0.98434 0.92095 0.0
H457 H 0.44618 0.99602 0.93291 0.0
H458 H 0.4557 0.02056 0.99014 0.0
C459 C 0.39635 0.02208 0.00797 0.0
C460 C 0.40875 0.00032 0.96542 0.0
C461 C 0.38205 0.02725 0.01552 0.0
C462 C 0.4706 0.98637 0.93501 0.0
C463 C 0.45638 0.9928 0.9418 0.0
C464 C 0.44266 0.01472 0.98314 0.0
C465 C 0.39593 0.01887 0.98955 0.0
C466 C 0.41119 0.01325 0.98157 0.0
C467 C 0.45539 0.99512 0.9599 0.0
C468 C 0.44019 0.00167 0.96712 0.0
H469 H 0.35474 0.02662 0.97781 0.0
H470 H 0.37995 0.01846 0.96466 0.0
H471 H 0.43073 0.03073 0.00251 0.0
H472 H 0.49317 0.98093 0.97309 0.0
H473 H 0.46834 0.99224 0.985 0.0
C474 C 0.47925 0.23678 0.29095 0.0
C475 C 0.48751 0.22819 0.30286 0.0
C476 C 0.48755 0.25288 0.28856 0.0
C477 C 0.52111 0.29146 0.31139 0.0
H478 H 0.52245 0.29978 0.26467 0.0
C479 C 0.56708 0.35022 0.3004 0.0
C480 C 0.56102 0.35915 0.28773 0.0
C481 C 0.55716 0.33468 0.30213 0.0
C482 C 0.52197 0.29778 0.27783 0.0
H483 H 0.51098 0.2298 0.32158 0.0
H484 H 0.52536 0.25781 0.31745 0.0
H485 H 0.50689 0.27164 0.26766 0.0
H486 H 0.54013 0.35825 0.26637 0.0
H487 H 0.52247 0.33149 0.26981 0.0
H488 H 0.53608 0.31752 0.32163 0.0
C489 C 0.51246 0.25215 0.31 0.0
C490 C 0.51309 0.28165 0.27952 0.0
C491 C 0.50424 0.23605 0.3123 0.0
C492 C 0.54487 0.35209 0.27669 0.0
C493 C 0.5349 0.33653 0.27844 0.0
C494 C 0.52988 0.3076 0.30972 0.0
C495 C 0.50417 0.26081 0.2982 0.0
C496 C 0.51279 0.27823 0.29632 0.0
C497 C 0.54094 0.32763 0.29118 0.0
C498 C 0.53064 0.31087 0.29291 0.0
H499 H 0.46616 0.23151 0.28396 0.0
H500 H 0.48074 0.25938 0.27956 0.0
H501 H 0.52081 0.28935 0.32454 0.0
H502 H 0.57955 0.35523 0.309 0.0
H503 H 0.56239 0.32801 0.31185 0.0
C504 C 0.93073 0.52145 0.94309 0.0
C505 C 0.92029 0.53054 0.95404 0.0
C506 C 0.94013 0.5091 0.94865 0.0
C507 C 0.95842 0.4963 0.98897 0.0
H508 H 0.96378 0.4537 0.95503 0.0
C509 C 0.99582 0.44208 0.00834 0.0
C510 C 0.0077 0.43629 0.99722 0.0
C511 C 0.98397 0.4528 0.00345 0.0
C512 C 0.96245 0.46558 0.96464 0.0
H513 H 0.91227 0.53444 0.97985 0.0
H514 H 0.92804 0.51233 0.9893 0.0
H515 H 0.94498 0.47367 0.94581 0.0
H516 H 0.01664 0.43728 0.97241 0.0
H517 H 0.99595 0.4559 0.96385 0.0
H518 H 0.97595 0.48812 0.00778 0.0
C519 C 0.92895 0.51472 0.97636 0.0
C520 C 0.95172 0.47705 0.95936 0.0
C521 C 0.91959 0.52715 0.97079 0.0
C522 C 0.00756 0.44147 0.9812 0.0
C523 C 0.99564 0.45202 0.97624 0.0
C524 C 0.96907 0.48473 0.99428 0.0
C525 C 0.93935 0.50555 0.96536 0.0
C526 C 0.94978 0.49271 0.97137 0.0
C527 C 0.98372 0.45782 0.98731 0.0
C528 C 0.97141 0.4694 0.98209 0.0
H529 H 0.93168 0.52391 0.93016 0.0
H530 H 0.94828 0.50259 0.93997 0.0
H531 H 0.95741 0.50834 0.99852 0.0
H532 H 0.99595 0.43871 0.02099 0.0
H533 H 0.97495 0.4571 0.01225 0.0
C534 C 0.97041 0.71928 0.33066 0.0
C535 C 0.98182 0.71576 0.34437 0.0
C536 C 0.95719 0.70592 0.3202 0.0
C537 C 0.94529 0.65742 0.30487 0.0
H538 H 0.89842 0.66733 0.29358 0.0
C539 C 0.88851 0.60206 0.26645 0.0
C540 C 0.87654 0.60633 0.25371 0.0
C541 C 0.90094 0.61538 0.27815 0.0
C542 C 0.91148 0.66439 0.29643 0.0
H543 H 0.98825 0.69542 0.35784 0.0
H544 H 0.96521 0.67207 0.33946 0.0
H545 H 0.92096 0.6907 0.31268 0.0
H546 H 0.86825 0.62798 0.2433 0.0
H547 H 0.89016 0.65113 0.2634 0.0
H548 H 0.936 0.63127 0.28837 0.0
C549 C 0.96655 0.68518 0.33682 0.0
C550 C 0.92438 0.67777 0.3074 0.0
C551 C 0.97968 0.69858 0.3474 0.0
C552 C 0.87722 0.62424 0.25301 0.0
C553 C 0.88973 0.63754 0.26463 0.0
C554 C 0.93244 0.64408 0.29379 0.0
C555 C 0.95518 0.68871 0.32311 0.0
C556 C 0.94141 0.67443 0.31172 0.0
C557 C 0.9018 0.63328 0.27731 0.0
C558 C 0.91538 0.6474 0.28939 0.0
H559 H 0.97168 0.73237 0.32798 0.0
H560 H 0.94872 0.70897 0.30961 0.0
H561 H 0.95837 0.65454 0.30778 0.0
H562 H 0.88826 0.58841 0.26742 0.0
H563 H 0.90982 0.61164 0.28794 0.0
C564 C 0.73395 0.65717 0.46973 0.0
C565 C 0.74232 0.6441 0.4755 0.0
C566 C 0.73454 0.67381 0.48118 0.0
C567 C 0.74125 0.69678 0.52833 0.0
H568 H 0.75067 0.73951 0.51137 0.0
C569 C 0.75013 0.76666 0.57515 0.0
C570 C 0.74196 0.77945 0.56865 0.0
C571 C 0.75143 0.75051 0.56378 0.0
C572 C 0.74785 0.72771 0.51627 0.0
H573 H 0.75772 0.63823 0.49792 0.0
H574 H 0.75866 0.66727 0.5179 0.0
H575 H 0.74993 0.71042 0.49155 0.0
H576 H 0.72911 0.78547 0.54498 0.0
H577 H 0.7311 0.75723 0.52524 0.0
H578 H 0.73884 0.71396 0.55293 0.0
C579 C 0.75161 0.66459 0.50453 0.0
C580 C 0.74744 0.71105 0.50491 0.0
C581 C 0.75112 0.64799 0.49305 0.0
C582 C 0.73554 0.77593 0.55043 0.0
C583 C 0.73675 0.75975 0.53908 0.0
C584 C 0.74156 0.71342 0.53966 0.0
C585 C 0.74341 0.67771 0.49869 0.0
C586 C 0.74408 0.69541 0.51081 0.0
C587 C 0.74451 0.74674 0.54565 0.0
C588 C 0.74481 0.72909 0.53375 0.0
H589 H 0.72705 0.65462 0.45631 0.0
H590 H 0.72791 0.68358 0.47638 0.0
H591 H 0.73841 0.68494 0.53318 0.0
H592 H 0.75532 0.76899 0.58909 0.0
H593 H 0.75777 0.74093 0.56922 0.0
C594 C 0.70703 0.4342 0.66722 0.0
C595 C 0.72158 0.44736 0.66875 0.0
C596 C 0.69573 0.43612 0.67963 0.0
C597 C 0.68115 0.46926 0.71371 0.0
H598 H 0.66431 0.42755 0.72964 0.0
C599 C 0.63957 0.47092 0.77026 0.0
C600 C 0.62572 0.45667 0.76755 0.0
C601 C 0.65146 0.47075 0.75836 0.0
C602 C 0.66875 0.43929 0.7252 0.0
H603 H 0.73498 0.47343 0.68384 0.0
H604 H 0.71557 0.47655 0.70594 0.0
H605 H 0.68489 0.42545 0.70885 0.0
H606 H 0.61318 0.43139 0.74984 0.0
H607 H 0.63373 0.4312 0.72913 0.0
H608 H 0.66493 0.48307 0.73015 0.0
C609 C 0.71298 0.46468 0.69516 0.0
C610 C 0.68055 0.43808 0.71328 0.0
C611 C 0.72431 0.46274 0.6827 0.0
C612 C 0.62376 0.44252 0.75244 0.0
C613 C 0.63561 0.44235 0.7406 0.0
C614 C 0.66933 0.47047 0.7257 0.0
C615 C 0.69865 0.4513 0.69385 0.0
C616 C 0.68674 0.45298 0.70721 0.0
C617 C 0.64975 0.45631 0.74355 0.0
C618 C 0.66284 0.45542 0.73139 0.0
H619 H 0.70448 0.42227 0.65651 0.0
H620 H 0.68461 0.42573 0.67801 0.0
H621 H 0.68557 0.48095 0.70918 0.0
H622 H 0.64146 0.48203 0.78176 0.0
H623 H 0.66226 0.48167 0.76102 0.0
C624 C 0.06813 0.70827 0.41255 0.0
C625 C 0.06898 0.71777 0.39935 0.0
C626 C 0.07973 0.69642 0.41468 0.0
C627 C 0.12177 0.68402 0.40377 0.0
H628 H 0.10158 0.63707 0.40715 0.0
C629 C 0.15707 0.62356 0.38854 0.0
C630 C 0.15538 0.61086 0.39865 0.0
C631 C 0.14746 0.63754 0.39073 0.0
C632 C 0.10751 0.65019 0.40653 0.0
H633 H 0.08305 0.72271 0.3784 0.0
H634 H 0.10325 0.70204 0.3821 0.0
H635 H 0.08332 0.66012 0.40744 0.0
H636 H 0.14251 0.60307 0.41926 0.0
H637 H 0.12583 0.62765 0.42323 0.0
H638 H 0.14591 0.67404 0.40263 0.0
C639 C 0.09368 0.70382 0.39088 0.0
C640 C 0.09703 0.66341 0.40668 0.0
C641 C 0.08204 0.7156 0.3887 0.0
C642 C 0.14405 0.6126 0.41121 0.0
C643 C 0.13444 0.62663 0.41343 0.0
C644 C 0.13226 0.67083 0.40368 0.0
C645 C 0.09249 0.6939 0.40372 0.0
C646 C 0.10398 0.68038 0.40503 0.0
C647 C 0.13596 0.63921 0.40313 0.0
C648 C 0.12519 0.65367 0.40476 0.0
H649 H 0.05825 0.70967 0.42101 0.0
H650 H 0.07862 0.68913 0.42482 0.0
H651 H 0.12757 0.69705 0.40275 0.0
H652 H 0.16565 0.62261 0.37872 0.0
H653 H 0.14875 0.6468 0.38238 0.0
C654 C 0.78846 0.87342 0.61216 0.0
C655 C 0.78773 0.86134 0.623 0.0
C656 C 0.80426 0.88396 0.61197 0.0
C657 C 0.85166 0.88487 0.62066 0.0
H658 H 0.85396 0.9339 0.61732 0.0
C659 C 0.91645 0.92801 0.61708 0.0
C660 C 0.91549 0.93838 0.60457 0.0
C661 C 0.90119 0.91961 0.62127 0.0
C662 C 0.85351 0.92018 0.61813 0.0
H663 H 0.80297 0.85116 0.64249 0.0
H664 H 0.83055 0.86963 0.64219 0.0
H665 H 0.82658 0.91753 0.62123 0.0
H666 H 0.89775 0.94822 0.58682 0.0
H667 H 0.87128 0.93344 0.59394 0.0
H668 H 0.87847 0.88737 0.61718 0.0
C669 C 0.81891 0.87081 0.6337 0.0
C670 C 0.83783 0.91082 0.62038 0.0
C671 C 0.80309 0.86031 0.63394 0.0
C672 C 0.89898 0.94036 0.59654 0.0
C673 C 0.88377 0.93198 0.60072 0.0
C674 C 0.86734 0.89422 0.61837 0.0
C675 C 0.81971 0.88262 0.62257 0.0
C676 C 0.83667 0.89298 0.62144 0.0
C677 C 0.88467 0.92142 0.61306 0.0
C678 C 0.86839 0.91191 0.61683 0.0
H679 H 0.77688 0.87453 0.60355 0.0
H680 H 0.80446 0.89278 0.60309 0.0
H681 H 0.85114 0.87107 0.6212 0.0
H682 H 0.92897 0.92626 0.62354 0.0
H683 H 0.90234 0.91173 0.63098 0.0
C684 C 0.4791 0.60584 0.80179 0.0
C685 C 0.46111 0.5998 0.8 0.0
C686 C 0.49106 0.59413 0.80281 0.0
C687 C 0.51477 0.56984 0.81439 0.0
H688 H 0.50172 0.52003 0.7898 0.0
C689 C 0.5589 0.51834 0.82584 0.0
C690 C 0.55925 0.50394 0.81161 0.0
C691 C 0.54688 0.52993 0.82439 0.0
C692 C 0.50574 0.53393 0.79658 0.0
H693 H 0.44152 0.57685 0.79814 0.0
H694 H 0.46234 0.55661 0.80077 0.0
H695 H 0.48134 0.54039 0.78655 0.0
H696 H 0.54757 0.49054 0.78458 0.0
H697 H 0.5272 0.51116 0.7817 0.0
H698 H 0.53954 0.56359 0.82361 0.0
C699 C 0.46729 0.57021 0.80074 0.0
C700 C 0.49386 0.54562 0.79497 0.0
C701 C 0.45532 0.58185 0.79935 0.0
C702 C 0.54749 0.50145 0.79584 0.0
C703 C 0.53571 0.51324 0.79425 0.0
C704 C 0.52677 0.55823 0.81574 0.0
C705 C 0.48535 0.57616 0.80244 0.0
C706 C 0.49815 0.56373 0.80393 0.0
C707 C 0.53515 0.52761 0.80854 0.0
C708 C 0.52241 0.54007 0.80693 0.0
H709 H 0.48393 0.61959 0.80217 0.0
H710 H 0.50478 0.59918 0.80371 0.0
H711 H 0.51853 0.5836 0.82175 0.0
H712 H 0.56773 0.5205 0.83822 0.0
H713 H 0.54667 0.54056 0.83584 0.0
C714 C 0.94006 0.39624 0.05992 0.0
C715 C 0.94732 0.38927 0.04491 0.0
C716 C 0.92631 0.38601 0.06476 0.0
C717 C 0.89186 0.34631 0.0471 0.0
H718 H 0.89258 0.34641 0.09661 0.0
C719 C 0.84772 0.2934 0.06931 0.0
C720 C 0.8394 0.29931 0.08384 0.0
C721 C 0.86057 0.30497 0.06483 0.0
C722 C 0.8921 0.34639 0.08276 0.0
H723 H 0.94576 0.36612 0.02316 0.0
H724 H 0.92204 0.34828 0.03172 0.0
H725 H 0.91537 0.36575 0.08815 0.0
H726 H 0.83819 0.32194 0.1052 0.0
H727 H 0.8607 0.34215 0.09735 0.0
H728 H 0.86874 0.32677 0.04169 0.0
C729 C 0.92674 0.36173 0.03961 0.0
C730 C 0.90513 0.3575 0.0779 0.0
C731 C 0.94043 0.37194 0.03476 0.0
C732 C 0.84437 0.31698 0.09393 0.0
C733 C 0.85731 0.32854 0.08949 0.0
C734 C 0.87889 0.33518 0.05195 0.0
C735 C 0.91955 0.3686 0.0547 0.0
C736 C 0.90525 0.35747 0.06 0.0
C737 C 0.86546 0.32269 0.07481 0.0
C738 C 0.87895 0.33498 0.0698 0.0
H739 H 0.94503 0.40957 0.06799 0.0
H740 H 0.92092 0.39179 0.07633 0.0
H741 H 0.89136 0.34621 0.03323 0.0
H742 H 0.84422 0.27986 0.06129 0.0
H743 H 0.8668 0.3 0.05359 0.0
C744 C 0.06102 0.96305 0.44396 0.0
C745 C 0.06142 0.97037 0.42917 0.0
C746 C 0.0621 0.94504 0.44243 0.0
C747 C 0.07367 0.90522 0.41337 0.0
H748 H 0.03869 0.87928 0.43304 0.0
C749 C 0.04932 0.82992 0.3876 0.0
C750 C 0.04438 0.81993 0.39953 0.0
C751 C 0.05469 0.84832 0.39332 0.0
C752 C 0.04879 0.88632 0.42776 0.0
H753 H 0.06394 0.96469 0.40135 0.0
H754 H 0.06565 0.93332 0.39866 0.0
H755 H 0.04221 0.9116 0.43934 0.0
H756 H 0.04209 0.82133 0.42703 0.0
H757 H 0.05161 0.85348 0.43704 0.0
H758 H 0.0799 0.87985 0.40139 0.0
C759 C 0.06467 0.9415 0.41149 0.0
C760 C 0.0508 0.90488 0.43136 0.0
C761 C 0.06355 0.95947 0.413 0.0
C762 C 0.04568 0.82865 0.41747 0.0
C763 C 0.05105 0.84708 0.4232 0.0
C764 C 0.07167 0.88665 0.40978 0.0
C765 C 0.06365 0.934 0.4261 0.0
C766 C 0.063 0.91452 0.42391 0.0
C767 C 0.05527 0.85718 0.41111 0.0
C768 C 0.05894 0.87696 0.41662 0.0
H769 H 0.05947 0.9711 0.45663 0.0
H770 H 0.06148 0.93971 0.45398 0.0
H771 H 0.08339 0.9123 0.40767 0.0
H772 H 0.04852 0.82362 0.37369 0.0
H773 H 0.05765 0.85569 0.38361 0.0
C774 C 0.66234 0.82695 0.60926 0.0
C775 C 0.67181 0.81272 0.60662 0.0
C776 C 0.64477 0.82401 0.61134 0.0
C777 C 0.61092 0.79053 0.62049 0.0
H778 H 0.57851 0.8129 0.5945 0.0
C779 C 0.53752 0.76286 0.60123 0.0
C780 C 0.52578 0.77501 0.60383 0.0
C781 C 0.55545 0.76892 0.60345 0.0
C782 C 0.58743 0.80674 0.60201 0.0
H783 H 0.67038 0.78436 0.60455 0.0
H784 H 0.6399 0.77922 0.6078 0.0
H785 H 0.60988 0.82114 0.59555 0.0
H786 H 0.52361 0.80305 0.61065 0.0
H787 H 0.55501 0.81364 0.61427 0.0
H788 H 0.5884 0.77567 0.62636 0.0
C789 C 0.646 0.79271 0.60859 0.0
C790 C 0.60541 0.81149 0.60268 0.0
C791 C 0.66351 0.79564 0.60659 0.0
C792 C 0.53234 0.79336 0.60857 0.0
C793 C 0.55028 0.79943 0.61059 0.0
C794 C 0.59297 0.78568 0.61968 0.0
C795 C 0.63634 0.8068 0.6108 0.0
C796 C 0.61736 0.8032 0.61166 0.0
C797 C 0.56201 0.78725 0.60814 0.0
C798 C 0.58104 0.79351 0.61018 0.0
H799 H 0.66838 0.84028 0.60941 0.0
H800 H 0.63778 0.8352 0.61324 0.0
H801 H 0.61975 0.78417 0.62786 0.0
H802 H 0.5329 0.74864 0.59759 0.0
H803 H 0.56417 0.75923 0.60126 0.0
C804 C 0.55986 0.29864 0.9041 0.0
C805 C 0.55729 0.30567 0.9215 0.0
C806 C 0.56075 0.30941 0.89212 0.0
C807 C 0.55002 0.35198 0.88376 0.0
H808 H 0.58518 0.34649 0.85329 0.0
C809 C 0.56852 0.40129 0.841 0.0
C810 C 0.57167 0.39383 0.82389 0.0
C811 C 0.56573 0.39055 0.8528 0.0
C812 C 0.57515 0.34805 0.86155 0.0
H813 H 0.55341 0.32951 0.93991 0.0
H814 H 0.55522 0.34839 0.91905 0.0
H815 H 0.58233 0.32779 0.87408 0.0
H816 H 0.57379 0.36916 0.80561 0.0
H817 H 0.56883 0.35052 0.8261 0.0
H818 H 0.54299 0.37242 0.87125 0.0
C819 C 0.55632 0.33448 0.9146 0.0
C820 C 0.57351 0.33732 0.87347 0.0
C821 C 0.55538 0.32367 0.92658 0.0
C822 C 0.57152 0.37537 0.81871 0.0
C823 C 0.56878 0.36468 0.8305 0.0
C824 C 0.5517 0.36278 0.87184 0.0
C825 C 0.55916 0.3275 0.89726 0.0
C826 C 0.56087 0.33908 0.88467 0.0
C827 C 0.56609 0.37217 0.84775 0.0
C828 C 0.56424 0.36086 0.86054 0.0
H829 H 0.56127 0.2848 0.89971 0.0
H830 H 0.56265 0.30352 0.87879 0.0
H831 H 0.54003 0.35355 0.89206 0.0
H832 H 0.56854 0.41546 0.8454 0.0
H833 H 0.5638 0.39674 0.86604 0.0
C834 C 0.20083 0.47194 0.15933 0.0
C835 C 0.21655 0.48017 0.15568 0.0
C836 C 0.1859 0.46685 0.14631 0.0
C837 C 0.17279 0.45532 0.0979 0.0
H838 H 0.12672 0.46182 0.10862 0.0
C839 C 0.11272 0.43977 0.04298 0.0
C840 C 0.09721 0.43081 0.04631 0.0
C841 C 0.12693 0.44671 0.05661 0.0
C842 C 0.13948 0.45975 0.10545 0.0
H843 H 0.22879 0.48991 0.13563 0.0
H844 H 0.20277 0.48113 0.11301 0.0
H845 H 0.15217 0.47229 0.13201 0.0
H846 H 0.08436 0.42236 0.06664 0.0
H847 H 0.10924 0.43427 0.09037 0.0
H848 H 0.16019 0.44262 0.07145 0.0
C849 C 0.20204 0.47839 0.12585 0.0
C850 C 0.15405 0.46576 0.11885 0.0
C851 C 0.21693 0.48351 0.13886 0.0
C852 C 0.09611 0.42921 0.06364 0.0
C853 C 0.11035 0.43613 0.07727 0.0
C854 C 0.15825 0.44928 0.08454 0.0
C855 C 0.18641 0.46984 0.12936 0.0
C856 C 0.17087 0.46362 0.1152 0.0
C857 C 0.12598 0.44481 0.07387 0.0
C858 C 0.14142 0.45144 0.08814 0.0
H859 H 0.2001 0.46918 0.17217 0.0
H860 H 0.1741 0.46016 0.14938 0.0
H861 H 0.18554 0.45317 0.09473 0.0
H862 H 0.11396 0.44132 0.02981 0.0
H863 H 0.13867 0.45358 0.0536 0.0
C864 C 0.22556 0.15905 0.65355 0.0
C865 C 0.23425 0.16099 0.67087 0.0
C866 C 0.23296 0.16815 0.64214 0.0
C867 C 0.26476 0.20758 0.64269 0.0
H868 H 0.2612 0.1855 0.5927 0.0
C869 C 0.29919 0.24237 0.59581 0.0
C870 C 0.28959 0.24114 0.57904 0.0
C871 C 0.29292 0.23214 0.60689 0.0
C872 C 0.26215 0.1919 0.6066 0.0
H873 H 0.25775 0.17366 0.68963 0.0
H874 H 0.27074 0.18937 0.66965 0.0
H875 H 0.24961 0.1682 0.6122 0.0
H876 H 0.26588 0.22815 0.56074 0.0
H877 H 0.25488 0.21043 0.58014 0.0
H878 H 0.27721 0.2313 0.6371 0.0
C879 C 0.25807 0.18104 0.66499 0.0
C880 C 0.25552 0.18198 0.61777 0.0
C881 C 0.25067 0.17194 0.6764 0.0
C882 C 0.27362 0.2294 0.57356 0.0
C883 C 0.26736 0.21915 0.58464 0.0
C884 C 0.2714 0.21748 0.63153 0.0
C885 C 0.24922 0.17939 0.64779 0.0
C886 C 0.25669 0.18973 0.63595 0.0
C887 C 0.27692 0.22044 0.60145 0.0
C888 C 0.27012 0.20978 0.61334 0.0
H889 H 0.21288 0.15074 0.64888 0.0
H890 H 0.2257 0.16674 0.62905 0.0
H891 H 0.26561 0.21404 0.65657 0.0
H892 H 0.31157 0.25124 0.60042 0.0
H893 H 0.3007 0.23328 0.61967 0.0
C894 C 0.2738 0.07601 0.79954 0.0
C895 C 0.26706 0.09201 0.8009 0.0
C896 C 0.28173 0.07166 0.81467 0.0
C897 C 0.28404 0.08204 0.86328 0.0
H898 H 0.32573 0.06009 0.86243 0.0
C899 C 0.32294 0.07208 0.92675 0.0
C900 C 0.32838 0.05546 0.92578 0.0
C901 C 0.3162 0.07678 0.91139 0.0
C902 C 0.31401 0.06607 0.86282 0.0
H903 H 0.26352 0.11608 0.81921 0.0
H904 H 0.27755 0.10861 0.84553 0.0
H905 H 0.31242 0.06777 0.83583 0.0
H906 H 0.33139 0.03094 0.90783 0.0
H907 H 0.31954 0.03914 0.88101 0.0
H908 H 0.28561 0.08036 0.89024 0.0
C909 C 0.27646 0.09927 0.83281 0.0
C910 C 0.30637 0.07046 0.84759 0.0
C911 C 0.2685 0.1036 0.8177 0.0
C912 C 0.32731 0.04384 0.90905 0.0
C913 C 0.3206 0.04857 0.89367 0.0
C914 C 0.29169 0.0777 0.87851 0.0
C915 C 0.28312 0.08322 0.83149 0.0
C916 C 0.2913 0.07851 0.84765 0.0
C917 C 0.31477 0.065 0.89469 0.0
C918 C 0.30677 0.06969 0.87847 0.0
H919 H 0.27282 0.06674 0.7868 0.0
H920 H 0.28652 0.05909 0.8132 0.0
H921 H 0.27226 0.08792 0.8637 0.0
H922 H 0.32366 0.08139 0.93941 0.0
H923 H 0.31207 0.08965 0.9126 0.0
C924 C 0.35153 0.09702 0.09209 0.0
C925 C 0.34527 0.07914 0.09144 0.0
C926 C 0.35898 0.10896 0.10822 0.0
C927 C 0.36168 0.1159 0.15663 0.0
H928 H 0.406 0.14563 0.15873 0.0
C929 C 0.40708 0.14995 0.22247 0.0
C930 C 0.41674 0.16692 0.22434 0.0
C931 C 0.39711 0.14059 0.20622 0.0
C932 C 0.39349 0.13767 0.15834 0.0
H933 H 0.3416 0.05985 0.10726 0.0
H934 H 0.3546 0.08067 0.13538 0.0
H935 H 0.39069 0.12685 0.13038 0.0
H936 H 0.42319 0.18758 0.21068 0.0
H937 H 0.40556 0.17132 0.18232 0.0
H938 H 0.3645 0.12659 0.18459 0.0
C939 C 0.35366 0.08549 0.12343 0.0
C940 C 0.38473 0.12688 0.14209 0.0
C941 C 0.34631 0.07353 0.1073 0.0
C942 C 0.41596 0.17448 0.20965 0.0
C943 C 0.40593 0.16512 0.19338 0.0
C944 C 0.37039 0.12675 0.17287 0.0
C945 C 0.36022 0.10329 0.12405 0.0
C946 C 0.36886 0.11568 0.1411 0.0
C947 C 0.39649 0.148 0.19144 0.0
C948 C 0.38654 0.13756 0.17397 0.0
H949 H 0.35089 0.10177 0.0801 0.0
H950 H 0.36378 0.12264 0.10831 0.0
H951 H 0.34933 0.10763 0.15623 0.0
H952 H 0.40741 0.1437 0.2335 0.0
H953 H 0.39025 0.12733 0.20516 0.0
C954 C 0.41868 0.20441 0.35687 0.0
C955 C 0.43329 0.19708 0.36238 0.0
C956 C 0.40866 0.21195 0.36914 0.0
C957 C 0.39771 0.21353 0.41352 0.0
H958 H 0.39116 0.26194 0.41365 0.0
C959 C 0.37812 0.26028 0.47316 0.0
C960 C 0.36825 0.27341 0.4701 0.0
C961 C 0.38389 0.24935 0.45916 0.0
C962 C 0.39249 0.2483 0.41364 0.0
H963 H 0.44842 0.1912 0.38493 0.0
H964 H 0.43075 0.20418 0.40632 0.0
H965 H 0.40479 0.24536 0.39058 0.0
H966 H 0.35589 0.28478 0.44987 0.0
H967 H 0.36538 0.2653 0.42534 0.0
H968 H 0.38534 0.21638 0.43651 0.0
C969 C 0.42711 0.20413 0.39251 0.0
C970 C 0.40038 0.23883 0.40042 0.0
C971 C 0.43727 0.1968 0.38029 0.0
C972 C 0.36365 0.2749 0.45267 0.0
C973 C 0.3692 0.2638 0.43862 0.0
C974 C 0.38959 0.22292 0.42663 0.0
C975 C 0.41291 0.21208 0.38711 0.0
C976 C 0.40329 0.22146 0.40037 0.0
C977 C 0.37972 0.25113 0.44172 0.0
C978 C 0.3871 0.24054 0.42702 0.0
H979 H 0.41527 0.20482 0.34316 0.0
H980 H 0.39769 0.21788 0.36462 0.0
H981 H 0.39966 0.20007 0.41367 0.0
H982 H 0.38193 0.25886 0.48648 0.0
H983 H 0.39216 0.23995 0.46214 0.0
C984 C 0.65255 0.38908 0.24889 0.0
C985 C 0.63519 0.39177 0.24519 0.0
C986 C 0.6619 0.38384 0.23515 0.0
C987 C 0.65554 0.3609 0.18812 0.0
H988 H 0.70448 0.3803 0.19201 0.0
C989 C 0.69544 0.33795 0.13271 0.0
C990 C 0.71224 0.33467 0.13832 0.0
C991 C 0.68599 0.34665 0.14495 0.0
C992 C 0.69085 0.37466 0.19077 0.0
H993 H 0.6141 0.39137 0.22416 0.0
H994 H 0.63045 0.38221 0.20016 0.0
H995 H 0.68804 0.39236 0.21497 0.0
H996 H 0.7324 0.33822 0.16116 0.0
H997 H 0.71586 0.3531 0.18245 0.0
H998 H 0.65842 0.34292 0.16416 0.0
C999 C 0.63677 0.38404 0.2137 0.0
C1000 C 0.68144 0.38159 0.20392 0.0
C1001 C 0.62745 0.38937 0.22745 0.0
C1002 C 0.7195 0.34056 0.15637 0.0
C1003 C 0.71005 0.34921 0.16859 0.0
C1004 C 0.66497 0.35393 0.175 0.0
C1005 C 0.65406 0.38111 0.2174 0.0
C1006 C 0.66374 0.37463 0.20285 0.0
C1007 C 0.69313 0.35224 0.16306 0.0
C1008 C 0.68279 0.36056 0.17629 0.0
H1009 H 0.6589 0.39082 0.26241 0.0
H1010 H 0.67513 0.38149 0.23843 0.0
H1011 H 0.64198 0.35511 0.18703 0.0
H1012 H 0.6895 0.33365 0.11889 0.0
H1013 H 0.67307 0.34897 0.14023 0.0
C1014 C 0.11349 0.26885 0.48439 0.0
C1015 C 0.11559 0.27386 0.50297 0.0
C1016 C 0.10574 0.25155 0.47512 0.0
C1017 C 0.07638 0.21246 0.47959 0.0
H1018 H 0.09496 0.18732 0.43952 0.0
C1019 C 0.03991 0.14577 0.43404 0.0
C1020 C 0.04999 0.13239 0.42915 0.0
C1021 C 0.04796 0.16316 0.44259 0.0
C1022 C 0.08967 0.19413 0.45074 0.0
H1023 H 0.11145 0.26456 0.52641 0.0
H1024 H 0.09808 0.2344 0.51027 0.0
H1025 H 0.10931 0.21726 0.45565 0.0
H1026 H 0.07644 0.12681 0.42922 0.0
H1027 H 0.09048 0.15713 0.44424 0.0
H1028 H 0.05693 0.18926 0.4749 0.0
C1029 C 0.1022 0.2439 0.50284 0.0
C1030 C 0.09778 0.21135 0.45987 0.0
C1031 C 0.10996 0.26116 0.5121 0.0
C1032 C 0.0683 0.13681 0.4328 0.0
C1033 C 0.07635 0.15421 0.44132 0.0
C1034 C 0.06825 0.19529 0.47044 0.0
C1035 C 0.0999 0.23892 0.48425 0.0
C1036 C 0.09126 0.22068 0.47443 0.0
C1037 C 0.06627 0.16755 0.44641 0.0
C1038 C 0.07482 0.18591 0.45594 0.0
H1039 H 0.11767 0.27832 0.47695 0.0
H1040 H 0.10401 0.24818 0.46079 0.0
H1041 H 0.07091 0.21937 0.49063 0.0
H1042 H 0.02577 0.14282 0.43137 0.0
H1043 H 0.03983 0.17319 0.44613 0.0
C1044 C 0.0304 0.90809 0.61264 0.0
C1045 C 0.02147 0.92251 0.61729 0.0
C1046 C 0.04576 0.90699 0.62331 0.0
C1047 C 0.08173 0.93472 0.65725 0.0
H1048 H 0.09093 0.88928 0.66524 0.0
C1049 C 0.14203 0.92861 0.70516 0.0
C1050 C 0.15097 0.91445 0.69938 0.0
C1051 C 0.12587 0.92953 0.69575 0.0
C1052 C 0.08862 0.90204 0.663 0.0
H1053 H 0.02155 0.94695 0.63695 0.0
H1054 H 0.04828 0.94493 0.65566 0.0
H1055 H 0.0633 0.89094 0.64782 0.0
H1056 H 0.14989 0.89013 0.67919 0.0
H1057 H 0.12182 0.89183 0.66272 0.0
H1058 H 0.10709 0.94581 0.67234 0.0
C1059 C 0.04352 0.93459 0.64363 0.0
C1060 C 0.07279 0.903 0.65302 0.0
C1061 C 0.02814 0.9357 0.63296 0.0
C1062 C 0.14335 0.9012 0.68404 0.0
C1063 C 0.12719 0.90211 0.67465 0.0
C1064 C 0.09756 0.93377 0.66724 0.0
C1065 C 0.05256 0.92027 0.63888 0.0
C1066 C 0.06919 0.91933 0.64994 0.0
C1067 C 0.11828 0.91631 0.68036 0.0
C1068 C 0.10123 0.9174 0.67016 0.0
H1069 H 0.02563 0.89773 0.60063 0.0
H1070 H 0.05251 0.89589 0.61915 0.0
H1071 H 0.07949 0.94747 0.65491 0.0
H1072 H 0.14751 0.93902 0.71695 0.0
H1073 H 0.11925 0.94054 0.70062 0.0
C1074 C 0.51331 0.89262 0.88931 0.0
C1075 C 0.51992 0.89791 0.90753 0.0
C1076 C 0.50923 0.87457 0.88059 0.0
C1077 C 0.49838 0.83009 0.88892 0.0
H1078 H 0.50925 0.81339 0.84184 0.0
C1079 C 0.48806 0.75537 0.85421 0.0
C1080 C 0.48045 0.75045 0.83624 0.0
C1081 C 0.49374 0.77329 0.86285 0.0
C1082 C 0.50599 0.81788 0.85492 0.0
H1083 H 0.52762 0.8884 0.93086 0.0
H1084 H 0.52064 0.85692 0.91562 0.0
H1085 H 0.51755 0.84484 0.85708 0.0
H1086 H 0.4731 0.76048 0.81315 0.0
H1087 H 0.48288 0.79176 0.82828 0.0
H1088 H 0.48674 0.80318 0.88674 0.0
C1089 C 0.5184 0.86672 0.90811 0.0
C1090 C 0.51074 0.83589 0.86365 0.0
C1091 C 0.52248 0.88477 0.91683 0.0
C1092 C 0.47892 0.76382 0.82701 0.0
C1093 C 0.48461 0.78175 0.83565 0.0
C1094 C 0.49365 0.81209 0.8802 0.0
C1095 C 0.51166 0.86141 0.88991 0.0
C1096 C 0.50694 0.84221 0.88073 0.0
C1097 C 0.49195 0.78669 0.85371 0.0
C1098 C 0.49735 0.80578 0.86308 0.0
H1099 H 0.51115 0.90241 0.88176 0.0
H1100 H 0.50386 0.87092 0.86661 0.0
H1101 H 0.49501 0.83456 0.90195 0.0
H1102 H 0.48951 0.7454 0.86169 0.0
H1103 H 0.49957 0.77664 0.8767 0.0
C1104 C 0.1294 0.4202 0.50738 0.0
C1105 C 0.13941 0.42653 0.52439 0.0
C1106 C 0.13021 0.43036 0.49482 0.0
C1107 C 0.15834 0.46653 0.48361 0.0
H1108 H 0.11599 0.47045 0.45409 0.0
C1109 C 0.15785 0.51522 0.43804 0.0
C1110 C 0.14752 0.50919 0.42117 0.0
C1111 C 0.15672 0.50519 0.45066 0.0
C1112 C 0.12797 0.46932 0.46208 0.0
H1113 H 0.15805 0.44853 0.54159 0.0
H1114 H 0.15939 0.46625 0.51971 0.0
H1115 H 0.11426 0.45281 0.47602 0.0
H1116 H 0.12794 0.48785 0.40431 0.0
H1117 H 0.12614 0.47024 0.42624 0.0
H1118 H 0.17207 0.48294 0.46964 0.0
C1119 C 0.15105 0.45337 0.51602 0.0
C1120 C 0.12696 0.45922 0.47466 0.0
C1121 C 0.1502 0.44325 0.52859 0.0
C1122 C 0.13603 0.49291 0.41721 0.0
C1123 C 0.13492 0.48286 0.42982 0.0
C1124 C 0.15935 0.47659 0.47101 0.0
C1125 C 0.14109 0.44703 0.49899 0.0
C1126 C 0.14213 0.45773 0.48558 0.0
C1127 C 0.14527 0.48887 0.4467 0.0
C1128 C 0.14417 0.47813 0.4601 0.0
H1129 H 0.12098 0.40736 0.50371 0.0
H1130 H 0.12252 0.42502 0.48176 0.0
H1131 H 0.1703 0.46542 0.49164 0.0
H1132 H 0.16679 0.52774 0.44154 0.0
H1133 H 0.16469 0.51034 0.46361 0.0
C1134 C 0.5212 0.19775 0.94355 0.0
C1135 C 0.53066 0.2043 0.93165 0.0
C1136 C 0.51274 0.18008 0.93922 0.0
C1137 C 0.51694 0.13671 0.91204 0.0
H1138 H 0.47414 0.12057 0.92788 0.0
C1139 C 0.49331 0.06216 0.90426 0.0
C1140 C 0.48826 0.05759 0.91942 0.0
C1141 C 0.4953 0.07986 0.903 0.0
C1142 C 0.48613 0.12487 0.92341 0.0
H1143 H 0.53762 0.19778 0.90537 0.0
H1144 H 0.52271 0.16699 0.89777 0.0
H1145 H 0.48308 0.15232 0.93039 0.0
H1146 H 0.48055 0.06792 0.9448 0.0
H1147 H 0.4843 0.0988 0.94274 0.0
H1148 H 0.52037 0.10945 0.90562 0.0
C1149 C 0.52212 0.17544 0.91058 0.0
C1150 C 0.49124 0.14305 0.92483 0.0
C1151 C 0.53058 0.19311 0.91491 0.0
C1152 C 0.48449 0.07099 0.93295 0.0
C1153 C 0.48653 0.0887 0.93171 0.0
C1154 C 0.51186 0.11858 0.91064 0.0
C1155 C 0.51353 0.16858 0.92289 0.0
C1156 C 0.50688 0.1492 0.91946 0.0
C1157 C 0.49233 0.0934 0.91689 0.0
C1158 C 0.49657 0.11246 0.91661 0.0
H1159 H 0.52094 0.20602 0.95654 0.0
H1160 H 0.50637 0.17521 0.94906 0.0
H1161 H 0.52921 0.141 0.90806 0.0
H1162 H 0.49616 0.05213 0.89352 0.0
H1163 H 0.4995 0.08299 0.89127 0.0
C1164 C 0.36579 0.44658 0.21387 0.0
C1165 C 0.36775 0.46518 0.22001 0.0
C1166 C 0.37948 0.43752 0.21787 0.0
C1167 C 0.41961 0.44191 0.24981 0.0
H1168 H 0.43198 0.40539 0.2134 0.0
C1169 C 0.48411 0.41488 0.25948 0.0
C1170 C 0.484 0.39658 0.25289 0.0
C1171 C 0.46934 0.42247 0.2556 0.0
C1172 C 0.42853 0.41537 0.22378 0.0
H1173 H 0.38565 0.48887 0.23509 0.0
H1174 H 0.40951 0.47308 0.24203 0.0
H1175 H 0.40724 0.42011 0.2063 0.0
H1176 H 0.46821 0.37187 0.2371 0.0
H1177 H 0.44228 0.38513 0.23048 0.0
H1178 H 0.44085 0.43725 0.2673 0.0
C1179 C 0.39733 0.46547 0.23426 0.0
C1180 C 0.41438 0.42382 0.2197 0.0
C1181 C 0.38369 0.47453 0.2302 0.0
C1182 C 0.46873 0.38602 0.24236 0.0
C1183 C 0.45391 0.39363 0.23848 0.0
C1184 C 0.4337 0.43344 0.2539 0.0
C1185 C 0.39537 0.44687 0.22818 0.0
C1186 C 0.4099 0.43732 0.23263 0.0
C1187 C 0.45406 0.41195 0.24507 0.0
C1188 C 0.43846 0.42022 0.24089 0.0
H1189 H 0.35366 0.43898 0.20599 0.0
H1190 H 0.37753 0.42316 0.21313 0.0
H1191 H 0.41627 0.45203 0.26014 0.0
H1192 H 0.49567 0.42344 0.26757 0.0
H1193 H 0.47001 0.43668 0.26064 0.0
C1194 C 0.30793 0.87102 0.74835 0.0
C1195 C 0.29072 0.86962 0.73974 0.0
C1196 C 0.3196 0.86113 0.74021 0.0
C1197 C 0.32746 0.83745 0.69647 0.0
H1198 H 0.35841 0.81504 0.72403 0.0
C1199 C 0.37108 0.78974 0.6641 0.0
C1200 C 0.38832 0.79169 0.67288 0.0
C1201 C 0.35886 0.79868 0.67233 0.0
C1202 C 0.34997 0.82136 0.71619 0.0
H1203 H 0.27226 0.8567 0.71582 0.0
H1204 H 0.2926 0.83937 0.70166 0.0
H1205 H 0.33774 0.83186 0.73822 0.0
H1206 H 0.40616 0.80443 0.69728 0.0
H1207 H 0.3849 0.82015 0.71155 0.0
H1208 H 0.33975 0.82706 0.67446 0.0
C1209 C 0.29712 0.84826 0.71464 0.0
C1210 C 0.33813 0.831 0.72432 0.0
C1211 C 0.28544 0.85812 0.7228 0.0
C1212 C 0.39299 0.8026 0.69015 0.0
C1213 C 0.38077 0.81155 0.69838 0.0
C1214 C 0.33931 0.82783 0.68834 0.0
C1215 C 0.31433 0.84964 0.72325 0.0
C1216 C 0.32677 0.8392 0.71456 0.0
C1217 C 0.36358 0.80978 0.68953 0.0
C1218 C 0.35074 0.8197 0.69811 0.0
H1219 H 0.31243 0.87979 0.7614 0.0
H1220 H 0.33283 0.86268 0.7471 0.0
H1221 H 0.31907 0.84383 0.68864 0.0
H1222 H 0.36703 0.78138 0.6508 0.0
H1223 H 0.34566 0.79683 0.66525 0.0
C1224 C 0.7988 0.49705 0.7455 0.0
C1225 C 0.78142 0.48882 0.74406 0.0
C1226 C 0.80873 0.50536 0.76208 0.0
C1227 C 0.81161 0.50596 0.80942 0.0
H1228 H 0.84255 0.55076 0.81596 0.0
C1229 C 0.85005 0.54514 0.87794 0.0
C1230 C 0.8675 0.55265 0.87848 0.0
C1231 C 0.83904 0.53781 0.86172 0.0
C1232 C 0.8341 0.53817 0.81431 0.0
H1233 H 0.76081 0.48301 0.75893 0.0
H1234 H 0.77815 0.49762 0.78789 0.0
H1235 H 0.82418 0.53723 0.78735 0.0
H1236 H 0.88706 0.55834 0.86242 0.0
H1237 H 0.86792 0.54539 0.83416 0.0
H1238 H 0.82165 0.50683 0.83634 0.0
C1239 C 0.78413 0.49747 0.77618 0.0
C1240 C 0.82357 0.53042 0.79792 0.0
C1241 C 0.77417 0.48918 0.75958 0.0
C1242 C 0.87368 0.55271 0.86247 0.0
C1243 C 0.86267 0.54538 0.84626 0.0
C1244 C 0.82217 0.51371 0.82582 0.0
C1245 C 0.80154 0.50563 0.77762 0.0
C1246 C 0.81228 0.51417 0.79524 0.0
C1247 C 0.84523 0.53783 0.84569 0.0
C1248 C 0.83362 0.52985 0.82842 0.0
H1249 H 0.80481 0.49699 0.73382 0.0
H1250 H 0.82217 0.51131 0.76274 0.0
H1251 H 0.80324 0.49332 0.80773 0.0
H1252 H 0.84487 0.54493 0.89004 0.0
H1253 H 0.82562 0.53228 0.86175 0.0
C1254 C 0.82419 0.54473 0.14549 0.0
C1255 C 0.81772 0.56059 0.15148 0.0
C1256 C 0.82509 0.53855 0.12755 0.0
C1257 C 0.81066 0.54435 0.08247 0.0
H1258 H 0.8562 0.53305 0.07443 0.0
C1259 C 0.83854 0.54941 0.01904 0.0
C1260 C 0.84959 0.53749 0.0127 0.0
C1261 C 0.8321 0.54902 0.03475 0.0
C1262 C 0.84328 0.53579 0.07633 0.0
H1263 H 0.80609 0.58178 0.14318 0.0
H1264 H 0.80782 0.57111 0.11196 0.0
H1265 H 0.84901 0.53775 0.10411 0.0
H1266 H 0.86185 0.51523 0.01743 0.0
H1267 H 0.85042 0.5144 0.04475 0.0
H1268 H 0.80513 0.54284 0.05468 0.0
C1269 C 0.81211 0.56337 0.12108 0.0
C1270 C 0.83915 0.53849 0.09339 0.0
C1271 C 0.81121 0.56956 0.13902 0.0
C1272 C 0.85348 0.5247 0.02204 0.0
C1273 C 0.847 0.52428 0.03774 0.0
C1274 C 0.81478 0.5416 0.06536 0.0
C1275 C 0.81953 0.54809 0.11523 0.0
C1276 C 0.82292 0.54314 0.09673 0.0
C1277 C 0.83652 0.53667 0.04447 0.0
C1278 C 0.83128 0.53763 0.06216 0.0
H1279 H 0.82917 0.53741 0.15472 0.0
H1280 H 0.8306 0.52656 0.1234 0.0
H1281 H 0.79796 0.54769 0.08458 0.0
H1282 H 0.83526 0.55942 0.01216 0.0
H1283 H 0.82425 0.5589 0.03964 0.0
C1284 C 0.80569 0.53702 0.26719 0.0
C1285 C 0.80287 0.54492 0.25287 0.0
C1286 C 0.79433 0.53796 0.27959 0.0
C1287 C 0.76352 0.56625 0.29749 0.0
H1288 H 0.7544 0.53018 0.32354 0.0
C1289 C 0.72517 0.57809 0.35545 0.0
C1290 C 0.73333 0.57467 0.3711 0.0
C1291 C 0.73068 0.57175 0.33932 0.0
C1292 C 0.75685 0.54036 0.31636 0.0
H1293 H 0.78531 0.55902 0.23967 0.0
H1294 H 0.76525 0.5603 0.26106 0.0
H1295 H 0.76919 0.52372 0.29782 0.0
H1296 H 0.75302 0.56106 0.38191 0.0
H1297 H 0.76266 0.55008 0.35376 0.0
H1298 H 0.7515 0.58298 0.31617 0.0
C1299 C 0.7765 0.55377 0.26299 0.0
C1300 C 0.76534 0.53669 0.30166 0.0
C1301 C 0.78794 0.55295 0.25067 0.0
C1302 C 0.7465 0.56399 0.37011 0.0
C1303 C 0.75196 0.5576 0.35395 0.0
C1304 C 0.75496 0.56986 0.31209 0.0
C1305 C 0.77981 0.54671 0.27787 0.0
C1306 C 0.76908 0.54972 0.29225 0.0
C1307 C 0.7444 0.56179 0.33847 0.0
C1308 C 0.75181 0.55709 0.32189 0.0
H1309 H 0.81709 0.53075 0.26928 0.0
H1310 H 0.79743 0.53255 0.29095 0.0
H1311 H 0.76645 0.57673 0.2908 0.0
H1312 H 0.7149 0.58615 0.35571 0.0
H1313 H 0.72444 0.57498 0.32755 0.0
C1314 C 0.73419 0.46 0.56842 0.0
C1315 C 0.74801 0.46257 0.58255 0.0
C1316 C 0.73466 0.47072 0.55636 0.0
C1317 C 0.75691 0.51361 0.55057 0.0
H1318 H 0.73863 0.49254 0.5009 0.0
C1319 C 0.76739 0.55055 0.49574 0.0
C1320 C 0.7525 0.5501 0.48344 0.0
C1321 C 0.76691 0.53968 0.50767 0.0
C1322 C 0.74367 0.49862 0.51475 0.0
H1323 H 0.77321 0.47835 0.59506 0.0
H1324 H 0.77428 0.49673 0.57379 0.0
H1325 H 0.73775 0.47403 0.52213 0.0
H1326 H 0.72551 0.53765 0.47377 0.0
H1327 H 0.72475 0.51849 0.49449 0.0
H1328 H 0.76311 0.53814 0.54304 0.0
C1329 C 0.76286 0.48672 0.57222 0.0
C1330 C 0.74311 0.48804 0.52695 0.0
C1331 C 0.7623 0.4761 0.58438 0.0
C1332 C 0.7372 0.53831 0.4831 0.0
C1333 C 0.73678 0.52729 0.4949 0.0
C1334 C 0.75762 0.52413 0.53834 0.0
C1335 C 0.74905 0.48417 0.55804 0.0
C1336 C 0.74969 0.49541 0.54503 0.0
C1337 C 0.75158 0.52799 0.50741 0.0
C1338 C 0.75097 0.51675 0.52032 0.0
H1339 H 0.72293 0.44975 0.56671 0.0
H1340 H 0.72365 0.46857 0.54582 0.0
H1341 H 0.7618 0.51984 0.56441 0.0
H1342 H 0.77938 0.5595 0.49636 0.0
H1343 H 0.77856 0.54036 0.51706 0.0
loop_
_geom_bond_atom_site_label_1
_geom_bond_atom_site_label_2
_geom_bond_distance
_geom_bond_site_symmetry_2
_ccdc_geom_bond_type
O0 Cd1 2.300 . S
O0 C7 1.275 . S
Cd1 O0 2.300 . S
Cd1 O9 2.381 . S
Cd1 O10 2.378 . S
O2 Cd3 2.385 . S
O2 C7 1.255 . S
Cd3 O2 2.385 . S
Cd3 O4 2.317 . S
O4 Cd3 2.317 . S
O4 C5 1.232 . S
C5 O4 1.232 . S
C5 O6 1.218 . S
O6 C5 1.218 . S
C7 O0 1.275 . S
C7 O2 1.255 . S
C8 O9 1.258 . S
C8 O10 1.256 . S
O9 Cd1 2.381 . S
O9 C8 1.258 . S
O10 Cd1 2.378 . S
O10 C8 1.256 . S
O11 Cd12 2.300 . S
O11 C18 1.275 . S
Cd12 O11 2.300 . S
Cd12 O20 2.381 . S
Cd12 O21 2.378 . S
O13 Cd14 2.385 . S
O13 C18 1.255 1_655 S
Cd14 O13 2.385 . S
Cd14 O15 2.317 . S
O15 Cd14 2.317 . S
O15 C16 1.232 . S
C16 O15 1.232 . S
C16 O17 1.218 . S
O17 C16 1.218 . S
C18 O11 1.275 . S
C18 O13 1.255 1_455 S
C19 O20 1.258 . S
C19 O21 1.256 . S
O20 Cd12 2.381 . S
O20 C19 1.258 . S
O21 Cd12 2.378 . S
O21 C19 1.256 . S
O22 Cd23 2.300 . S
O22 C29 1.275 . S
Cd23 O22 2.300 . S
Cd23 O31 2.381 . S
Cd23 O32 2.378 . S
O24 Cd25 2.385 . S
O24 C29 1.255 . S
Cd25 O24 2.385 . S
Cd25 O26 2.317 . S
O26 Cd25 2.317 . S
O26 C27 1.232 . S
C27 O26 1.232 . S
C27 O28 1.218 . S
O28 C27 1.218 . S
C29 O22 1.275 . S
C29 O24 1.255 . S
C30 O31 1.258 . S
C30 O32 1.256 . S
O31 Cd23 2.381 . S
O31 C30 1.258 . S
O32 Cd23 2.378 . S
O32 C30 1.256 . S
O33 Cd34 2.300 . S
O33 C40 1.275 . S
Cd34 O33 2.300 . S
Cd34 O42 2.381 . S
Cd34 O43 2.378 . S
O35 Cd36 2.385 . S
O35 C40 1.255 . S
Cd36 O35 2.385 . S
Cd36 O37 2.317 . S
O37 Cd36 2.317 . S
O37 C38 1.232 . S
C38 O37 1.232 . S
C38 O39 1.218 . S
O39 C38 1.218 . S
C40 O33 1.275 . S
C40 O35 1.255 . S
C41 O42 1.258 . S
C41 O43 1.256 . S
O42 Cd34 2.381 . S
O42 C41 1.258 . S
O43 Cd34 2.378 . S
O43 C41 1.256 . S
O44 Cd45 2.300 1_655 S
O44 C51 1.275 1_545 S
Cd45 O44 2.300 1_455 S
Cd45 O53 2.383 . S
Cd45 O54 2.378 . S
O46 Cd47 2.385 . S
O46 C51 1.255 1_455 S
Cd47 O46 2.385 . S
Cd47 O48 2.317 . S
O48 Cd47 2.317 . S
O48 C49 1.232 . S
C49 O48 1.232 . S
C49 O50 1.218 . S
O50 C49 1.218 . S
C51 O44 1.275 1_565 S
C51 O46 1.255 1_655 S
C52 O53 1.260 . S
C52 O54 1.256 . S
O53 Cd45 2.383 . S
O53 C52 1.260 . S
O54 Cd45 2.378 . S
O54 C52 1.256 . S
O55 Cd56 2.300 . S
O55 C62 1.275 . S
Cd56 O55 2.300 . S
Cd56 O64 2.381 . S
Cd56 O65 2.378 . S
O57 Cd58 2.385 . S
O57 C62 1.255 . S
Cd58 O57 2.385 . S
Cd58 O59 2.317 . S
O59 Cd58 2.317 . S
O59 C60 1.232 . S
C60 O59 1.232 . S
C60 O61 1.218 . S
O61 C60 1.218 . S
C62 O55 1.275 . S
C62 O57 1.255 . S
C63 O64 1.258 . S
C63 O65 1.256 . S
O64 Cd56 2.381 . S
O64 C63 1.258 . S
O65 Cd56 2.378 . S
O65 C63 1.256 . S
O66 Cd67 2.300 . S
O66 C73 1.275 . S
Cd67 O66 2.300 . S
Cd67 O75 2.381 . S
Cd67 O76 2.378 . S
O68 Cd69 2.385 . S
O68 C73 1.255 . S
Cd69 O68 2.385 . S
Cd69 O70 2.317 . S
O70 Cd69 2.317 . S
O70 C71 1.232 . S
C71 O70 1.232 . S
C71 O72 1.218 . S
O72 C71 1.218 . S
C73 O66 1.275 . S
C73 O68 1.255 . S
C74 O75 1.258 . S
C74 O76 1.256 . S
O75 Cd67 2.381 . S
O75 C74 1.258 . S
O76 Cd67 2.378 . S
O76 C74 1.256 . S
O77 Cd78 2.300 . S
O77 C84 1.275 . S
Cd78 O77 2.300 . S
Cd78 O86 2.381 . S
Cd78 O87 2.378 . S
O79 Cd80 2.385 . S
O79 C84 1.255 . S
Cd80 O79 2.385 . S
Cd80 O81 2.317 . S
O81 Cd80 2.317 . S
O81 C82 1.232 . S
C82 O81 1.232 . S
C82 O83 1.218 . S
O83 C82 1.218 . S
C84 O77 1.275 . S
C84 O79 1.255 . S
C85 O86 1.258 . S
C85 O87 1.256 . S
O86 Cd78 2.381 . S
O86 C85 1.258 . S
O87 Cd78 2.378 . S
O87 C85 1.256 . S
O88 Cd89 2.300 . S
O88 C95 1.275 . S
Cd89 O88 2.300 . S
Cd89 O97 2.381 . S
Cd89 O98 2.378 . S
O90 Cd91 2.385 . S
O90 C95 1.255 . S
Cd91 O90 2.385 . S
Cd91 O92 2.317 . S
O92 Cd91 2.317 . S
O92 C93 1.232 . S
C93 O92 1.232 . S
C93 O94 1.218 . S
O94 C93 1.218 . S
C95 O88 1.275 . S
C95 O90 1.255 . S
C96 O97 1.258 . S
C96 O98 1.256 . S
O97 Cd89 2.381 . S
O97 C96 1.258 . S
O98 Cd89 2.378 . S
O98 C96 1.256 . S
O99 Cd100 2.300 . S
O99 C106 1.275 . S
Cd100 O99 2.300 . S
Cd100 O108 2.381 . S
Cd100 O109 2.378 . S
O101 Cd102 2.385 . S
O101 C106 1.255 . S
Cd102 O101 2.385 . S
Cd102 O103 2.317 . S
O103 Cd102 2.317 . S
O103 C104 1.232 . S
C104 O103 1.232 . S
C104 O105 1.218 . S
O105 C104 1.218 . S
C106 O99 1.275 . S
C106 O101 1.255 . S
C107 O108 1.258 . S
C107 O109 1.256 . S
O108 Cd100 2.381 . S
O108 C107 1.258 . S
O109 Cd100 2.378 . S
O109 C107 1.256 . S
O110 Cd111 2.300 . S
O110 C117 1.275 1_554 S
Cd111 O110 2.300 . S
Cd111 O119 2.381 . S
Cd111 O120 2.378 . S
O112 Cd113 2.385 . S
O112 C117 1.255 . S
Cd113 O112 2.385 . S
Cd113 O114 2.317 . S
O114 Cd113 2.317 . S
O114 C115 1.232 . S
C115 O114 1.232 . S
C115 O116 1.218 . S
O116 C115 1.218 . S
C117 O110 1.275 1_556 S
C117 O112 1.255 . S
C118 O119 1.258 . S
C118 O120 1.256 . S
O119 Cd111 2.381 . S
O119 C118 1.258 . S
O120 Cd111 2.378 . S
O120 C118 1.256 . S
O121 Cd122 2.300 . S
O121 C128 1.275 . S
Cd122 O121 2.300 . S
Cd122 O130 2.381 . S
Cd122 O131 2.378 . S
O123 Cd124 2.385 . S
O123 C128 1.255 . S
Cd124 O123 2.385 . S
Cd124 O125 2.317 . S
O125 Cd124 2.317 . S
O125 C126 1.232 . S
C126 O125 1.232 . S
C126 O127 1.218 . S
O127 C126 1.218 . S
C128 O121 1.275 . S
C128 O123 1.255 . S
C129 O130 1.258 . S
C129 O131 1.256 . S
O130 Cd122 2.381 . S
O130 C129 1.258 . S
O131 Cd122 2.378 . S
O131 C129 1.256 . S
O132 Cd133 2.300 . S
O132 C139 1.275 . S
Cd133 O132 2.300 . S
Cd133 O141 2.381 . S
Cd133 O142 2.378 . S
O134 Cd135 2.385 . S
O134 C139 1.255 . S
Cd135 O134 2.385 . S
Cd135 O136 2.317 . S
O136 Cd135 2.317 . S
O136 C137 1.232 . S
C137 O136 1.232 . S
C137 O138 1.218 . S
O138 C137 1.218 . S
C139 O132 1.275 . S
C139 O134 1.255 . S
C140 O141 1.258 . S
C140 O142 1.256 . S
O141 Cd133 2.381 . S
O141 C140 1.258 . S
O142 Cd133 2.378 . S
O142 C140 1.256 . S
O143 Cd144 2.300 . S
O143 C150 1.275 1_455 S
Cd144 O143 2.300 . S
Cd144 O152 2.381 . S
Cd144 O153 2.378 . S
O145 Cd146 2.385 . S
O145 C150 1.255 . S
Cd146 O145 2.385 . S
Cd146 O147 2.317 . S
O147 Cd146 2.317 . S
O147 C148 1.232 . S
C148 O147 1.232 . S
C148 O149 1.218 . S
O149 C148 1.218 . S
C150 O143 1.275 1_655 S
C150 O145 1.255 . S
C151 O152 1.258 . S
C151 O153 1.256 . S
O152 Cd144 2.381 . S
O152 C151 1.258 . S
O153 Cd144 2.378 . S
O153 C151 1.256 . S
O154 Cd155 2.300 . S
O154 C161 1.275 . S
Cd155 O154 2.300 . S
Cd155 O163 2.381 . S
Cd155 O164 2.378 . S
O156 Cd157 2.385 . S
O156 C161 1.255 . S
Cd157 O156 2.385 . S
Cd157 O158 2.317 . S
O158 Cd157 2.317 . S
O158 C159 1.232 . S
C159 O158 1.232 . S
C159 O160 1.218 . S
O160 C159 1.218 . S
C161 O154 1.275 . S
C161 O156 1.255 . S
C162 O163 1.258 . S
C162 O164 1.256 . S
O163 Cd155 2.381 . S
O163 C162 1.258 . S
O164 Cd155 2.378 . S
O164 C162 1.256 . S
O165 Cd166 2.300 . S
O165 C172 1.275 . S
Cd166 O165 2.300 . S
Cd166 O174 2.381 . S
Cd166 O175 2.378 . S
O167 Cd168 2.385 . S
O167 C172 1.255 . S
Cd168 O167 2.385 . S
Cd168 O169 2.317 . S
O169 Cd168 2.317 . S
O169 C170 1.232 . S
C170 O169 1.232 . S
C170 O171 1.218 . S
O171 C170 1.218 . S
C172 O165 1.275 . S
C172 O167 1.255 . S
C173 O174 1.258 . S
C173 O175 1.256 . S
O174 Cd166 2.381 . S
O174 C173 1.258 . S
O175 Cd166 2.378 . S
O175 C173 1.256 . S
O176 Cd177 2.300 . S
O176 C183 1.275 . S
Cd177 O176 2.300 . S
Cd177 O185 2.381 . S
Cd177 O186 2.378 . S
O178 Cd179 2.385 . S
O178 C183 1.255 . S
Cd179 O178 2.385 . S
Cd179 O180 2.317 . S
O180 Cd179 2.317 . S
O180 C181 1.232 . S
C181 O180 1.232 . S
C181 O182 1.218 . S
O182 C181 1.218 . S
C183 O176 1.275 . S
C183 O178 1.255 . S
C184 O185 1.258 . S
C184 O186 1.256 . S
O185 Cd177 2.381 . S
O185 C184 1.258 . S
O186 Cd177 2.378 . S
O186 C184 1.256 . S
O187 Cd188 2.300 . S
O187 C194 1.275 . S
Cd188 O187 2.300 . S
Cd188 O196 2.381 . S
Cd188 O197 2.378 . S
O189 Cd190 2.385 . S
O189 C194 1.255 . S
Cd190 O189 2.385 . S
Cd190 O191 2.317 . S
O191 Cd190 2.317 . S
O191 C192 1.232 . S
C192 O191 1.232 . S
C192 O193 1.218 . S
O193 C192 1.218 . S
C194 O187 1.275 . S
C194 O189 1.255 . S
C195 O196 1.258 . S
C195 O197 1.256 . S
O196 Cd188 2.381 . S
O196 C195 1.258 . S
O197 Cd188 2.378 . S
O197 C195 1.256 . S
O198 Cd199 2.300 . S
O198 C205 1.275 . S
Cd199 O198 2.300 . S
Cd199 O207 2.381 . S
Cd199 O208 2.378 . S
O200 Cd201 2.385 . S
O200 C205 1.255 . S
Cd201 O200 2.385 . S
Cd201 O202 2.317 . S
O202 Cd201 2.317 . S
O202 C203 1.232 . S
C203 O202 1.232 . S
C203 O204 1.218 . S
O204 C203 1.218 . S
C205 O198 1.275 . S
C205 O200 1.255 . S
C206 O207 1.258 . S
C206 O208 1.256 . S
O207 Cd199 2.381 . S
O207 C206 1.258 . S
O208 Cd199 2.378 . S
O208 C206 1.256 . S
O209 Cd210 2.300 . S
O209 C216 1.275 . S
Cd210 O209 2.300 . S
Cd210 O218 2.381 . S
Cd210 O219 2.378 . S
O211 Cd212 2.385 . S
O211 C216 1.255 . S
Cd212 O211 2.385 . S
Cd212 O213 2.317 . S
O213 Cd212 2.317 . S
O213 C214 1.232 . S
C214 O213 1.232 . S
C214 O215 1.218 . S
O215 C214 1.218 . S
C216 O209 1.275 . S
C216 O211 1.255 . S
C217 O218 1.258 . S
C217 O219 1.256 . S
O218 Cd210 2.381 . S
O218 C217 1.258 . S
O219 Cd210 2.378 . S
O219 C217 1.256 . S
O220 Cd221 2.300 . S
O220 C227 1.275 1_556 S
Cd221 O220 2.300 . S
Cd221 O229 2.381 . S
Cd221 O230 2.378 . S
O222 Cd223 2.385 . S
O222 C227 1.255 . S
Cd223 O222 2.385 . S
Cd223 O224 2.317 . S
O224 Cd223 2.317 . S
O224 C225 1.232 . S
C225 O224 1.232 . S
C225 O226 1.218 . S
O226 C225 1.218 . S
C227 O220 1.275 1_554 S
C227 O222 1.255 . S
C228 O229 1.258 . S
C228 O230 1.256 . S
O229 Cd221 2.381 . S
O229 C228 1.258 . S
O230 Cd221 2.378 . S
O230 C228 1.256 . S
O231 Cd232 2.300 . S
O231 C238 1.275 . S
Cd232 O231 2.300 . S
Cd232 O240 2.381 . S
Cd232 O241 2.378 . S
O233 Cd234 2.385 . S
O233 C238 1.255 . S
Cd234 O233 2.385 . S
Cd234 O235 2.317 . S
O235 Cd234 2.317 . S
O235 C236 1.232 . S
C236 O235 1.232 . S
C236 O237 1.218 . S
O237 C236 1.218 . S
C238 O231 1.275 . S
C238 O233 1.255 . S
C239 O240 1.258 . S
C239 O241 1.256 . S
O240 Cd232 2.381 . S
O240 C239 1.258 . S
O241 Cd232 2.378 . S
O241 C239 1.256 . S
O242 Cd243 2.300 . S
O242 C249 1.275 . S
Cd243 O242 2.300 . S
Cd243 O251 2.381 . S
Cd243 O252 2.378 . S
O244 Cd245 2.385 . S
O244 C249 1.255 . S
Cd245 O244 2.385 . S
Cd245 O246 2.317 . S
O246 Cd245 2.317 . S
O246 C247 1.232 . S
C247 O246 1.232 . S
C247 O248 1.218 . S
O248 C247 1.218 . S
C249 O242 1.275 . S
C249 O244 1.255 . S
C250 O251 1.258 . S
C250 O252 1.256 . S
O251 Cd243 2.381 . S
O251 C250 1.258 . S
O252 Cd243 2.378 . S
O252 C250 1.256 . S
O253 Cd254 2.300 . S
O253 C260 1.275 1_565 S
Cd254 O253 2.300 . S
Cd254 O262 2.381 . S
Cd254 O263 2.378 . S
O255 Cd256 2.385 . S
O255 C260 1.255 . S
Cd256 O255 2.385 . S
Cd256 O257 2.317 . S
O257 Cd256 2.317 . S
O257 C258 1.232 . S
C258 O257 1.232 . S
C258 O259 1.218 . S
O259 C258 1.218 . S
C260 O253 1.275 1_545 S
C260 O255 1.255 . S
C261 O262 1.258 . S
C261 O263 1.256 . S
O262 Cd254 2.381 . S
O262 C261 1.258 . S
O263 Cd254 2.378 . S
O263 C261 1.256 . S
C264 C265 1.349 . S
C264 C266 1.327 . S
C264 H289 0.950 . S
C265 C264 1.349 . S
C265 C281 1.349 . S
C266 C264 1.327 . S
C266 C285 1.429 . S
C266 H290 0.950 . S
C267 C284 1.574 . S
C267 C286 1.368 . S
C267 H291 0.949 . S
H268 C272 0.949 . S
C269 C270 1.349 . S
C269 C271 1.327 . S
C269 H292 0.950 . S
C270 C269 1.349 . S
C270 C282 1.349 . S
C271 C269 1.327 . S
C271 C287 1.429 . S
C271 H293 0.950 . S
C272 H268 0.949 . S
C272 C280 1.574 . S
C272 C288 1.368 . S
H273 C281 0.950 . S
H274 C279 0.950 . S
H275 C280 0.949 . S
H276 C282 0.950 . S
H277 C283 0.950 . S
H278 C284 0.949 . S
C279 H274 0.950 . S
C279 C281 1.327 . S
C279 C285 1.429 . S
C280 C272 1.574 . S
C280 H275 0.949 . S
C280 C286 1.368 . S
C281 C265 1.349 . S
C281 H273 0.950 . S
C281 C279 1.327 . S
C282 C270 1.349 . S
C282 H276 0.950 . S
C282 C283 1.327 . S
C283 H277 0.950 . S
C283 C282 1.327 . S
C283 C287 1.429 . S
C284 C267 1.574 . S
C284 H278 0.949 . S
C284 C288 1.368 . S
C285 C266 1.429 . S
C285 C279 1.429 . S
C285 C286 1.523 . S
C286 C267 1.368 . S
C286 C280 1.368 . S
C286 C285 1.523 . S
C287 C271 1.429 . S
C287 C283 1.429 . S
C287 C288 1.523 . S
C288 C272 1.368 . S
C288 C284 1.368 . S
C288 C287 1.523 . S
H289 C264 0.950 . S
H290 C266 0.950 . S
H291 C267 0.949 . S
H292 C269 0.950 . S
H293 C271 0.950 . S
C294 C295 1.349 . S
C294 C296 1.327 . S
C294 H319 0.950 1_565 S
C295 C294 1.349 . S
C295 C311 1.349 . S
C296 C294 1.327 . S
C296 C315 1.429 . S
C296 H320 0.950 . S
C297 C314 1.574 . S
C297 C316 1.368 1_455 S
C297 H321 0.949 . S
H298 C302 0.949 . S
C299 C300 1.349 1_455 S
C299 C301 1.327 . S
C299 H322 0.950 . S
C300 C299 1.349 1_655 S
C300 C312 1.349 . S
C301 C299 1.327 . S
C301 C317 1.429 1_455 S
C301 H323 0.950 . S
C302 H298 0.949 . S
C302 C310 1.574 . S
C302 C318 1.368 . S
H303 C311 0.950 1_455 S
H304 C309 0.947 . S
H305 C310 0.949 . S
H306 C312 0.950 . S
H307 C313 0.950 . S
H308 C314 0.949 . S
C309 H304 0.947 . S
C309 C311 1.327 1_455 S
C309 C315 1.431 1_455 S
C310 C302 1.574 . S
C310 H305 0.949 . S
C310 C316 1.368 . S
C311 C295 1.349 . S
C311 H303 0.950 1_655 S
C311 C309 1.327 1_655 S
C312 C300 1.349 . S
C312 H306 0.950 . S
C312 C313 1.327 . S
C313 H307 0.950 . S
C313 C312 1.327 . S
C313 C317 1.429 . S
C314 C297 1.574 . S
C314 H308 0.949 . S
C314 C318 1.368 1_455 S
C315 C296 1.429 . S
C315 C309 1.431 1_655 S
C315 C316 1.523 . S
C316 C297 1.368 1_655 S
C316 C310 1.368 . S
C316 C315 1.523 . S
C317 C301 1.429 1_655 S
C317 C313 1.429 . S
C317 C318 1.523 . S
C318 C302 1.368 . S
C318 C314 1.368 1_655 S
C318 C317 1.523 . S
H319 C294 0.950 1_545 S
H320 C296 0.950 . S
H321 C297 0.949 . S
H322 C299 0.950 . S
H323 C301 0.950 . S
C324 C325 1.349 . S
C324 C326 1.327 . S
C324 H349 0.950 . S
C325 C324 1.349 . S
C325 C341 1.349 . S
C326 C324 1.327 . S
C326 C345 1.429 . S
C326 H350 0.950 . S
C327 C344 1.574 . S
C327 C346 1.368 . S
C327 H351 0.949 . S
H328 C332 0.949 . S
C329 C330 1.349 . S
C329 C331 1.327 . S
C329 H352 0.950 . S
C330 C329 1.349 . S
C330 C342 1.349 . S
C331 C329 1.327 . S
C331 C347 1.429 . S
C331 H353 0.950 . S
C332 H328 0.949 . S
C332 C340 1.574 . S
C332 C348 1.368 . S
H333 C341 0.950 . S
H334 C339 0.950 . S
H335 C340 0.949 . S
H336 C342 0.950 . S
H337 C343 0.950 . S
H338 C344 0.949 . S
C339 H334 0.950 . S
C339 C341 1.327 . S
C339 C345 1.429 . S
C340 C332 1.574 . S
C340 H335 0.949 . S
C340 C346 1.368 . S
C341 C325 1.349 . S
C341 H333 0.950 . S
C341 C339 1.327 . S
C342 C330 1.349 . S
C342 H336 0.950 . S
C342 C343 1.327 . S
C343 H337 0.950 . S
C343 C342 1.327 . S
C343 C347 1.429 . S
C344 C327 1.574 . S
C344 H338 0.949 . S
C344 C348 1.368 . S
C345 C326 1.429 . S
C345 C339 1.429 . S
C345 C346 1.523 . S
C346 C327 1.368 . S
C346 C340 1.368 . S
C346 C345 1.523 . S
C347 C331 1.429 . S
C347 C343 1.429 . S
C347 C348 1.523 . S
C348 C332 1.368 . S
C348 C344 1.368 . S
C348 C347 1.523 . S
H349 C324 0.950 . S
H350 C326 0.950 . S
H351 C327 0.949 . S
H352 C329 0.950 . S
H353 C331 0.950 . S
C354 C355 1.349 . S
C354 C356 1.327 . S
C354 H379 0.950 . S
C355 C354 1.349 . S
C355 C371 1.349 . S
C356 C354 1.327 . S
C356 C375 1.429 . S
C356 H380 0.950 . S
C357 C374 1.574 . S
C357 C376 1.368 1_554 S
C357 H381 0.949 1_554 S
H358 C362 0.949 . S
C359 C360 1.349 . S
C359 C361 1.327 . S
C359 H382 0.950 . S
C360 C359 1.349 . S
C360 C372 1.349 . S
C361 C359 1.327 . S
C361 C377 1.429 . S
C361 H383 0.950 . S
C362 H358 0.949 . S
C362 C370 1.574 1_554 S
C362 C378 1.368 . S
H363 C371 0.950 . S
H364 C369 0.950 . S
H365 C370 0.949 . S
H366 C372 0.950 . S
H367 C373 0.950 . S
H368 C374 0.949 . S
C369 H364 0.950 . S
C369 C371 1.327 . S
C369 C375 1.429 . S
C370 C362 1.574 1_556 S
C370 H365 0.949 . S
C370 C376 1.368 . S
C371 C355 1.349 . S
C371 H363 0.950 . S
C371 C369 1.327 . S
C372 C360 1.349 . S
C372 H366 0.950 . S
C372 C373 1.327 . S
C373 H367 0.950 . S
C373 C372 1.327 . S
C373 C377 1.429 . S
C374 C357 1.574 . S
C374 H368 0.949 . S
C374 C378 1.368 . S
C375 C356 1.429 . S
C375 C369 1.429 . S
C375 C376 1.523 . S
C376 C357 1.368 1_556 S
C376 C370 1.368 . S
C376 C375 1.523 . S
C377 C361 1.429 . S
C377 C373 1.429 . S
C377 C378 1.523 . S
C378 C362 1.368 . S
C378 C374 1.368 . S
C378 C377 1.523 . S
H379 C354 0.950 . S
H380 C356 0.950 . S
H381 C357 0.949 1_556 S
H382 C359 0.950 . S
H383 C361 0.950 . S
C384 C385 1.349 . S
C384 C386 1.327 . S
C384 H409 0.950 . S
C385 C384 1.349 . S
C385 C401 1.349 . S
C386 C384 1.327 . S
C386 C405 1.429 . S
C386 H410 0.950 . S
C387 C404 1.574 . S
C387 C406 1.368 . S
C387 H411 0.949 . S
H388 C392 0.949 . S
C389 C390 1.349 . S
C389 C391 1.327 . S
C389 H412 0.950 . S
C390 C389 1.349 . S
C390 C402 1.349 . S
C391 C389 1.327 . S
C391 C407 1.429 . S
C391 H413 0.950 . S
C392 H388 0.949 . S
C392 C400 1.574 . S
C392 C408 1.368 . S
H393 C401 0.950 . S
H394 C399 0.950 . S
H395 C400 0.949 . S
H396 C402 0.950 . S
H397 C403 0.950 . S
H398 C404 0.949 . S
C399 H394 0.950 . S
C399 C401 1.327 . S
C399 C405 1.429 . S
C400 C392 1.574 . S
C400 H395 0.949 . S
C400 C406 1.368 . S
C401 C385 1.349 . S
C401 H393 0.950 . S
C401 C399 1.327 . S
C402 C390 1.349 . S
C402 H396 0.950 . S
C402 C403 1.327 . S
C403 H397 0.950 . S
C403 C402 1.327 . S
C403 C407 1.429 . S
C404 C387 1.574 . S
C404 H398 0.949 . S
C404 C408 1.368 . S
C405 C386 1.429 . S
C405 C399 1.429 . S
C405 C406 1.523 . S
C406 C387 1.368 . S
C406 C400 1.368 . S
C406 C405 1.523 . S
C407 C391 1.429 . S
C407 C403 1.429 . S
C407 C408 1.523 . S
C408 C392 1.368 . S
C408 C404 1.368 . S
C408 C407 1.523 . S
H409 C384 0.950 . S
H410 C386 0.950 . S
H411 C387 0.949 . S
H412 C389 0.950 . S
H413 C391 0.950 . S
C414 C415 1.349 . S
C414 C416 1.327 . S
C414 H439 0.950 . S
C415 C414 1.349 . S
C415 C431 1.349 . S
C416 C414 1.327 . S
C416 C435 1.429 . S
C416 H440 0.950 . S
C417 C434 1.574 1_545 S
C417 C436 1.368 . S
C417 H441 0.949 . S
H418 C422 0.949 . S
C419 C420 1.349 . S
C419 C421 1.327 . S
C419 H442 0.950 . S
C420 C419 1.349 . S
C420 C432 1.349 . S
C421 C419 1.327 . S
C421 C437 1.429 . S
C421 H443 0.950 . S
C422 H418 0.949 . S
C422 C430 1.574 1_565 S
C422 C438 1.368 . S
H423 C431 0.950 . S
H424 C429 0.950 . S
H425 C430 0.949 . S
H426 C432 0.950 . S
H427 C433 0.950 . S
H428 C434 0.949 . S
C429 H424 0.950 . S
C429 C431 1.327 . S
C429 C435 1.429 . S
C430 C422 1.574 1_545 S
C430 H425 0.949 . S
C430 C436 1.368 . S
C431 C415 1.349 . S
C431 H423 0.950 . S
C431 C429 1.327 . S
C432 C420 1.349 . S
C432 H426 0.950 . S
C432 C433 1.327 . S
C433 H427 0.950 . S
C433 C432 1.327 . S
C433 C437 1.429 . S
C434 C417 1.574 1_565 S
C434 H428 0.949 . S
C434 C438 1.368 . S
C435 C416 1.429 . S
C435 C429 1.429 . S
C435 C436 1.523 . S
C436 C417 1.368 . S
C436 C430 1.368 . S
C436 C435 1.523 . S
C437 C421 1.429 . S
C437 C433 1.429 . S
C437 C438 1.523 . S
C438 C422 1.368 . S
C438 C434 1.368 . S
C438 C437 1.523 . S
H439 C414 0.950 . S
H440 C416 0.950 . S
H441 C417 0.949 . S
H442 C419 0.950 . S
H443 C421 0.950 . S
C444 C445 1.349 . S
C444 C446 1.327 . S
C444 H469 0.950 . S
C445 C444 1.349 . S
C445 C461 1.349 . S
C446 C444 1.327 . S
C446 C465 1.429 . S
C446 H470 0.950 . S
C447 C464 1.574 . S
C447 C466 1.368 . S
C447 H471 0.949 . S
H448 C452 0.949 . S
C449 C450 1.349 . S
C449 C451 1.327 . S
C449 H472 0.950 . S
C450 C449 1.349 . S
C450 C462 1.349 . S
C451 C449 1.327 . S
C451 C467 1.429 . S
C451 H473 0.950 . S
C452 H448 0.949 . S
C452 C460 1.574 . S
C452 C468 1.368 . S
H453 C461 0.950 1_554 S
H454 C459 0.958 . S
H455 C460 0.949 . S
H456 C462 0.950 . S
H457 C463 0.950 . S
H458 C464 0.949 . S
C459 H454 0.958 . S
C459 C461 1.327 . S
C459 C465 1.429 . S
C460 C452 1.574 . S
C460 H455 0.949 . S
C460 C466 1.368 . S
C461 C445 1.349 . S
C461 H453 0.950 1_556 S
C461 C459 1.327 . S
C462 C450 1.349 . S
C462 H456 0.950 . S
C462 C463 1.327 . S
C463 H457 0.950 . S
C463 C462 1.327 . S
C463 C467 1.429 . S
C464 C447 1.574 . S
C464 H458 0.949 . S
C464 C468 1.368 . S
C465 C446 1.429 . S
C465 C459 1.429 . S
C465 C466 1.523 . S
C466 C447 1.368 . S
C466 C460 1.368 . S
C466 C465 1.523 . S
C467 C451 1.429 . S
C467 C463 1.429 . S
C467 C468 1.523 . S
C468 C452 1.368 . S
C468 C464 1.368 . S
C468 C467 1.523 . S
H469 C444 0.950 . S
H470 C446 0.950 . S
H471 C447 0.949 . S
H472 C449 0.950 . S
H473 C451 0.950 . S
C474 C475 1.349 . S
C474 C476 1.327 . S
C474 H499 0.950 . S
C475 C474 1.349 . S
C475 C491 1.349 . S
C476 C474 1.327 . S
C476 C495 1.429 . S
C476 H500 0.950 . S
C477 C494 1.574 . S
C477 C496 1.368 . S
C477 H501 0.949 . S
H478 C482 0.949 . S
C479 C480 1.349 . S
C479 C481 1.327 . S
C479 H502 0.950 . S
C480 C479 1.349 . S
C480 C492 1.349 . S
C481 C479 1.327 . S
C481 C497 1.429 . S
C481 H503 0.950 . S
C482 H478 0.949 . S
C482 C490 1.574 . S
C482 C498 1.368 . S
H483 C491 0.950 . S
H484 C489 0.950 . S
H485 C490 0.949 . S
H486 C492 0.950 . S
H487 C493 0.950 . S
H488 C494 0.949 . S
C489 H484 0.950 . S
C489 C491 1.327 . S
C489 C495 1.429 . S
C490 C482 1.574 . S
C490 H485 0.949 . S
C490 C496 1.368 . S
C491 C475 1.349 . S
C491 H483 0.950 . S
C491 C489 1.327 . S
C492 C480 1.349 . S
C492 H486 0.950 . S
C492 C493 1.327 . S
C493 H487 0.950 . S
C493 C492 1.327 . S
C493 C497 1.429 . S
C494 C477 1.574 . S
C494 H488 0.949 . S
C494 C498 1.368 . S
C495 C476 1.429 . S
C495 C489 1.429 . S
C495 C496 1.523 . S
C496 C477 1.368 . S
C496 C490 1.368 . S
C496 C495 1.523 . S
C497 C481 1.429 . S
C497 C493 1.429 . S
C497 C498 1.523 . S
C498 C482 1.368 . S
C498 C494 1.368 . S
C498 C497 1.523 . S
H499 C474 0.950 . S
H500 C476 0.950 . S
H501 C477 0.949 . S
H502 C479 0.950 . S
H503 C481 0.950 . S
C504 C505 1.349 . S
C504 C506 1.327 . S
C504 H529 0.950 1_554 S
C505 C504 1.349 . S
C505 C521 1.349 . S
C506 C504 1.327 . S
C506 C525 1.429 . S
C506 H530 0.917 1_554 S
C507 C524 1.574 . S
C507 C526 1.368 . S
C507 H531 0.949 . S
H508 C512 0.949 . S
C509 C510 1.349 . S
C509 C511 1.327 . S
C509 H532 0.950 . S
C510 C509 1.349 . S
C510 C522 1.349 . S
C511 C509 1.327 . S
C511 C527 1.429 . S
C511 H533 0.950 . S
C512 H508 0.949 . S
C512 C520 1.574 . S
C512 C528 1.368 . S
H513 C521 0.950 . S
H514 C519 0.950 . S
H515 C520 0.949 . S
H516 C522 0.950 . S
H517 C523 0.950 . S
H518 C524 0.949 . S
C519 H514 0.950 . S
C519 C521 1.327 . S
C519 C525 1.429 . S
C520 C512 1.574 . S
C520 H515 0.949 . S
C520 C526 1.368 . S
C521 C505 1.349 . S
C521 H513 0.950 . S
C521 C519 1.327 . S
C522 C510 1.349 . S
C522 H516 0.950 . S
C522 C523 1.327 . S
C523 H517 0.950 . S
C523 C522 1.327 . S
C523 C527 1.429 . S
C524 C507 1.574 . S
C524 H518 0.949 . S
C524 C528 1.368 . S
C525 C506 1.429 . S
C525 C519 1.429 . S
C525 C526 1.523 . S
C526 C507 1.368 . S
C526 C520 1.368 . S
C526 C525 1.523 . S
C527 C511 1.429 . S
C527 C523 1.429 . S
C527 C528 1.523 . S
C528 C512 1.368 . S
C528 C524 1.368 . S
C528 C527 1.523 . S
H529 C504 0.950 1_556 S
H530 C506 0.917 1_556 S
H531 C507 0.949 . S
H532 C509 0.950 . S
H533 C511 0.950 . S
C534 C535 1.349 . S
C534 C536 1.327 1_455 S
C534 H559 0.950 . S
C535 C534 1.349 . S
C535 C551 1.349 . S
C536 C534 1.327 1_655 S
C536 C555 1.429 . S
C536 H560 0.950 . S
C537 C554 1.574 . S
C537 C556 1.368 . S
C537 H561 0.949 . S
H538 C542 0.949 . S
C539 C540 1.349 . S
C539 C541 1.327 . S
C539 H562 0.950 . S
C540 C539 1.349 . S
C540 C552 1.349 . S
C541 C539 1.327 . S
C541 C557 1.429 . S
C541 H563 0.950 . S
C542 H538 0.949 . S
C542 C550 1.574 . S
C542 C558 1.368 . S
H543 C551 0.950 . S
H544 C549 0.950 . S
H545 C550 0.949 . S
H546 C552 0.950 . S
H547 C553 0.950 . S
H548 C554 0.949 . S
C549 H544 0.950 . S
C549 C551 1.327 1_655 S
C549 C555 1.429 . S
C550 C542 1.574 . S
C550 H545 0.949 . S
C550 C556 1.368 . S
C551 C535 1.349 . S
C551 H543 0.950 . S
C551 C549 1.327 1_455 S
C552 C540 1.349 . S
C552 H546 0.950 . S
C552 C553 1.327 . S
C553 H547 0.950 . S
C553 C552 1.327 . S
C553 C557 1.429 . S
C554 C537 1.574 . S
C554 H548 0.949 . S
C554 C558 1.368 . S
C555 C536 1.429 . S
C555 C549 1.429 . S
C555 C556 1.523 . S
C556 C537 1.368 . S
C556 C550 1.368 . S
C556 C555 1.523 . S
C557 C541 1.429 . S
C557 C553 1.429 . S
C557 C558 1.523 . S
C558 C542 1.368 . S
C558 C554 1.368 . S
C558 C557 1.523 . S
H559 C534 0.950 . S
H560 C536 0.950 . S
H561 C537 0.949 . S
H562 C539 0.950 . S
H563 C541 0.950 . S
C564 C565 1.349 . S
C564 C566 1.327 . S
C564 H589 0.950 . S
C565 C564 1.349 . S
C565 C581 1.349 . S
C566 C564 1.327 . S
C566 C585 1.429 . S
C566 H590 0.950 . S
C567 C584 1.574 . S
C567 C586 1.368 . S
C567 H591 0.949 . S
H568 C572 0.949 . S
C569 C570 1.349 . S
C569 C571 1.327 . S
C569 H592 0.950 . S
C570 C569 1.349 . S
C570 C582 1.349 . S
C571 C569 1.327 . S
C571 C587 1.429 . S
C571 H593 0.950 . S
C572 H568 0.949 . S
C572 C580 1.574 . S
C572 C588 1.368 . S
H573 C581 0.950 . S
H574 C579 0.950 . S
H575 C580 0.949 . S
H576 C582 0.950 . S
H577 C583 0.950 . S
H578 C584 0.949 . S
C579 H574 0.950 . S
C579 C581 1.327 . S
C579 C585 1.429 . S
C580 C572 1.574 . S
C580 H575 0.949 . S
C580 C586 1.368 . S
C581 C565 1.349 . S
C581 H573 0.950 . S
C581 C579 1.327 . S
C582 C570 1.349 . S
C582 H576 0.950 . S
C582 C583 1.327 . S
C583 H577 0.950 . S
C583 C582 1.327 . S
C583 C587 1.429 . S
C584 C567 1.574 . S
C584 H578 0.949 . S
C584 C588 1.368 . S
C585 C566 1.429 . S
C585 C579 1.429 . S
C585 C586 1.523 . S
C586 C567 1.368 . S
C586 C580 1.368 . S
C586 C585 1.523 . S
C587 C571 1.429 . S
C587 C583 1.429 . S
C587 C588 1.523 . S
C588 C572 1.368 . S
C588 C584 1.368 . S
C588 C587 1.523 . S
H589 C564 0.950 . S
H590 C566 0.950 . S
H591 C567 0.949 . S
H592 C569 0.950 . S
H593 C571 0.950 . S
C594 C595 1.349 . S
C594 C596 1.327 . S
C594 H619 0.950 . S
C595 C594 1.349 . S
C595 C611 1.349 . S
C596 C594 1.327 . S
C596 C615 1.429 . S
C596 H620 0.950 . S
C597 C614 1.574 . S
C597 C616 1.368 . S
C597 H621 0.949 . S
H598 C602 0.949 . S
C599 C600 1.349 . S
C599 C601 1.327 . S
C599 H622 0.950 . S
C600 C599 1.349 . S
C600 C612 1.349 . S
C601 C599 1.327 . S
C601 C617 1.429 . S
C601 H623 0.950 . S
C602 H598 0.949 . S
C602 C610 1.574 . S
C602 C618 1.368 . S
H603 C611 0.950 . S
H604 C609 0.950 . S
H605 C610 0.949 . S
H606 C612 0.950 . S
H607 C613 0.950 . S
H608 C614 0.949 . S
C609 H604 0.950 . S
C609 C611 1.327 . S
C609 C615 1.429 . S
C610 C602 1.574 . S
C610 H605 0.949 . S
C610 C616 1.368 . S
C611 C595 1.349 . S
C611 H603 0.950 . S
C611 C609 1.327 . S
C612 C600 1.349 . S
C612 H606 0.950 . S
C612 C613 1.327 . S
C613 H607 0.950 . S
C613 C612 1.327 . S
C613 C617 1.429 . S
C614 C597 1.574 . S
C614 H608 0.949 . S
C614 C618 1.368 . S
C615 C596 1.429 . S
C615 C609 1.429 . S
C615 C616 1.523 . S
C616 C597 1.368 . S
C616 C610 1.368 . S
C616 C615 1.523 . S
C617 C601 1.429 . S
C617 C613 1.429 . S
C617 C618 1.523 . S
C618 C602 1.368 . S
C618 C614 1.368 . S
C618 C617 1.523 . S
H619 C594 0.950 . S
H620 C596 0.950 . S
H621 C597 0.949 . S
H622 C599 0.950 . S
H623 C601 0.950 . S
C624 C625 1.349 . S
C624 C626 1.327 . S
C624 H649 0.950 . S
C625 C624 1.349 . S
C625 C641 1.349 . S
C626 C624 1.327 . S
C626 C645 1.429 . S
C626 H650 0.950 . S
C627 C644 1.574 . S
C627 C646 1.368 . S
C627 H651 0.949 . S
H628 C632 0.949 . S
C629 C630 1.349 . S
C629 C631 1.327 . S
C629 H652 0.950 . S
C630 C629 1.349 . S
C630 C642 1.349 . S
C631 C629 1.327 . S
C631 C647 1.429 . S
C631 H653 0.950 . S
C632 H628 0.949 . S
C632 C640 1.574 . S
C632 C648 1.368 . S
H633 C641 0.950 . S
H634 C639 0.950 . S
H635 C640 0.949 . S
H636 C642 0.950 . S
H637 C643 0.950 . S
H638 C644 0.949 . S
C639 H634 0.950 . S
C639 C641 1.327 . S
C639 C645 1.429 . S
C640 C632 1.574 . S
C640 H635 0.949 . S
C640 C646 1.368 . S
C641 C625 1.349 . S
C641 H633 0.950 . S
C641 C639 1.327 . S
C642 C630 1.349 . S
C642 H636 0.950 . S
C642 C643 1.327 . S
C643 H637 0.950 . S
C643 C642 1.327 . S
C643 C647 1.429 . S
C644 C627 1.574 . S
C644 H638 0.949 . S
C644 C648 1.368 . S
C645 C626 1.429 . S
C645 C639 1.429 . S
C645 C646 1.523 . S
C646 C627 1.368 . S
C646 C640 1.368 . S
C646 C645 1.523 . S
C647 C631 1.429 . S
C647 C643 1.429 . S
C647 C648 1.523 . S
C648 C632 1.368 . S
C648 C644 1.368 . S
C648 C647 1.523 . S
H649 C624 0.950 . S
H650 C626 0.950 . S
H651 C627 0.949 . S
H652 C629 0.950 . S
H653 C631 0.950 . S
C654 C655 1.349 . S
C654 C656 1.327 . S
C654 H679 0.950 . S
C655 C654 1.349 . S
C655 C671 1.349 . S
C656 C654 1.327 . S
C656 C675 1.429 . S
C656 H680 0.950 . S
C657 C674 1.574 . S
C657 C676 1.368 . S
C657 H681 0.949 . S
H658 C662 0.949 . S
C659 C660 1.349 . S
C659 C661 1.327 . S
C659 H682 0.950 . S
C660 C659 1.349 . S
C660 C672 1.349 . S
C661 C659 1.327 . S
C661 C677 1.429 . S
C661 H683 0.950 . S
C662 H658 0.949 . S
C662 C670 1.574 . S
C662 C678 1.368 . S
H663 C671 0.950 . S
H664 C669 0.950 . S
H665 C670 0.949 . S
H666 C672 0.950 . S
H667 C673 0.950 . S
H668 C674 0.949 . S
C669 H664 0.950 . S
C669 C671 1.327 . S
C669 C675 1.429 . S
C670 C662 1.574 . S
C670 H665 0.949 . S
C670 C676 1.368 . S
C671 C655 1.349 . S
C671 H663 0.950 . S
C671 C669 1.327 . S
C672 C660 1.349 . S
C672 H666 0.950 . S
C672 C673 1.327 . S
C673 H667 0.950 . S
C673 C672 1.327 . S
C673 C677 1.429 . S
C674 C657 1.574 . S
C674 H668 0.949 . S
C674 C678 1.368 . S
C675 C656 1.429 . S
C675 C669 1.429 . S
C675 C676 1.523 . S
C676 C657 1.368 . S
C676 C670 1.368 . S
C676 C675 1.523 . S
C677 C661 1.429 . S
C677 C673 1.429 . S
C677 C678 1.523 . S
C678 C662 1.368 . S
C678 C674 1.368 . S
C678 C677 1.523 . S
H679 C654 0.950 . S
H680 C656 0.950 . S
H681 C657 0.949 . S
H682 C659 0.950 . S
H683 C661 0.950 . S
C684 C685 1.349 . S
C684 C686 1.327 . S
C684 H709 0.950 . S
C685 C684 1.349 . S
C685 C701 1.349 . S
C686 C684 1.327 . S
C686 C705 1.429 . S
C686 H710 0.950 . S
C687 C704 1.574 . S
C687 C706 1.368 . S
C687 H711 0.949 . S
H688 C692 0.949 . S
C689 C690 1.349 . S
C689 C691 1.327 . S
C689 H712 0.950 . S
C690 C689 1.349 . S
C690 C702 1.349 . S
C691 C689 1.327 . S
C691 C707 1.429 . S
C691 H713 0.950 . S
C692 H688 0.949 . S
C692 C700 1.574 . S
C692 C708 1.368 . S
H693 C701 0.950 . S
H694 C699 0.950 . S
H695 C700 0.949 . S
H696 C702 0.950 . S
H697 C703 0.950 . S
H698 C704 0.949 . S
C699 H694 0.950 . S
C699 C701 1.327 . S
C699 C705 1.429 . S
C700 C692 1.574 . S
C700 H695 0.949 . S
C700 C706 1.368 . S
C701 C685 1.349 . S
C701 H693 0.950 . S
C701 C699 1.327 . S
C702 C690 1.349 . S
C702 H696 0.950 . S
C702 C703 1.327 . S
C703 H697 0.950 . S
C703 C702 1.327 . S
C703 C707 1.429 . S
C704 C687 1.574 . S
C704 H698 0.949 . S
C704 C708 1.368 . S
C705 C686 1.429 . S
C705 C699 1.429 . S
C705 C706 1.523 . S
C706 C687 1.368 . S
C706 C700 1.368 . S
C706 C705 1.523 . S
C707 C691 1.429 . S
C707 C703 1.429 . S
C707 C708 1.523 . S
C708 C692 1.368 . S
C708 C704 1.368 . S
C708 C707 1.523 . S
H709 C684 0.950 . S
H710 C686 0.950 . S
H711 C687 0.949 . S
H712 C689 0.950 . S
H713 C691 0.950 . S
C714 C715 1.349 . S
C714 C716 1.327 . S
C714 H739 0.950 . S
C715 C714 1.349 . S
C715 C731 1.349 . S
C716 C714 1.327 . S
C716 C735 1.429 . S
C716 H740 0.950 . S
C717 C734 1.574 . S
C717 C736 1.368 . S
C717 H741 0.949 . S
H718 C722 0.949 . S
C719 C720 1.349 . S
C719 C721 1.327 . S
C719 H742 0.950 . S
C720 C719 1.349 . S
C720 C732 1.349 . S
C721 C719 1.327 . S
C721 C737 1.429 . S
C721 H743 0.950 . S
C722 H718 0.949 . S
C722 C730 1.574 . S
C722 C738 1.368 . S
H723 C731 0.950 . S
H724 C729 0.950 . S
H725 C730 0.949 . S
H726 C732 0.950 . S
H727 C733 0.950 . S
H728 C734 0.949 . S
C729 H724 0.950 . S
C729 C731 1.327 . S
C729 C735 1.429 . S
C730 C722 1.574 . S
C730 H725 0.949 . S
C730 C736 1.368 . S
C731 C715 1.349 . S
C731 H723 0.950 . S
C731 C729 1.327 . S
C732 C720 1.349 . S
C732 H726 0.950 . S
C732 C733 1.327 . S
C733 H727 0.950 . S
C733 C732 1.327 . S
C733 C737 1.429 . S
C734 C717 1.574 . S
C734 H728 0.949 . S
C734 C738 1.368 . S
C735 C716 1.429 . S
C735 C729 1.429 . S
C735 C736 1.523 . S
C736 C717 1.368 . S
C736 C730 1.368 . S
C736 C735 1.523 . S
C737 C721 1.429 . S
C737 C733 1.429 . S
C737 C738 1.523 . S
C738 C722 1.368 . S
C738 C734 1.368 . S
C738 C737 1.523 . S
H739 C714 0.950 . S
H740 C716 0.950 . S
H741 C717 0.949 . S
H742 C719 0.950 . S
H743 C721 0.950 . S
C744 C745 1.349 1_655 S
C744 C746 1.343 . S
C744 H769 0.950 . S
C745 C744 1.349 1_455 S
C745 C761 1.349 . S
C746 C744 1.343 . S
C746 C765 1.395 1_655 S
C746 H770 0.969 . S
C747 C764 1.574 . S
C747 C766 1.368 . S
C747 H771 0.949 . S
H748 C752 0.949 . S
C749 C750 1.349 . S
C749 C751 1.327 . S
C749 H772 0.950 . S
C750 C749 1.349 . S
C750 C762 1.349 . S
C751 C749 1.327 . S
C751 C767 1.429 . S
C751 H773 0.950 . S
C752 H748 0.949 . S
C752 C760 1.574 . S
C752 C768 1.368 . S
H753 C761 0.950 . S
H754 C759 0.950 . S
H755 C760 0.949 1_655 S
H756 C762 0.950 . S
H757 C763 0.950 . S
H758 C764 0.949 . S
C759 H754 0.950 . S
C759 C761 1.327 . S
C759 C765 1.429 . S
C760 C752 1.574 . S
C760 H755 0.949 1_455 S
C760 C766 1.368 . S
C761 C745 1.349 . S
C761 H753 0.950 . S
C761 C759 1.327 . S
C762 C750 1.349 . S
C762 H756 0.950 . S
C762 C763 1.327 . S
C763 H757 0.950 . S
C763 C762 1.327 . S
C763 C767 1.429 . S
C764 C747 1.574 . S
C764 H758 0.949 . S
C764 C768 1.368 . S
C765 C746 1.395 1_455 S
C765 C759 1.429 . S
C765 C766 1.523 . S
C766 C747 1.368 . S
C766 C760 1.368 . S
C766 C765 1.523 . S
C767 C751 1.429 . S
C767 C763 1.429 . S
C767 C768 1.523 . S
C768 C752 1.368 . S
C768 C764 1.368 . S
C768 C767 1.523 . S
H769 C744 0.950 . S
H770 C746 0.969 . S
H771 C747 0.949 . S
H772 C749 0.950 . S
H773 C751 0.950 . S
C774 C775 1.349 . S
C774 C776 1.327 . S
C774 H799 0.950 . S
C775 C774 1.349 . S
C775 C791 1.349 . S
C776 C774 1.327 . S
C776 C795 1.429 . S
C776 H800 0.950 . S
C777 C794 1.574 . S
C777 C796 1.368 . S
C777 H801 0.949 . S
H778 C782 0.949 . S
C779 C780 1.349 . S
C779 C781 1.327 . S
C779 H802 0.950 . S
C780 C779 1.349 . S
C780 C792 1.349 . S
C781 C779 1.327 . S
C781 C797 1.429 . S
C781 H803 0.950 . S
C782 H778 0.949 . S
C782 C790 1.574 . S
C782 C798 1.368 . S
H783 C791 0.950 . S
H784 C789 0.950 . S
H785 C790 0.949 . S
H786 C792 0.950 . S
H787 C793 0.950 . S
H788 C794 0.949 . S
C789 H784 0.950 . S
C789 C791 1.327 . S
C789 C795 1.429 . S
C790 C782 1.574 . S
C790 H785 0.949 . S
C790 C796 1.368 . S
C791 C775 1.349 . S
C791 H783 0.950 . S
C791 C789 1.327 . S
C792 C780 1.349 . S
C792 H786 0.950 . S
C792 C793 1.327 . S
C793 H787 0.950 . S
C793 C792 1.327 . S
C793 C797 1.429 . S
C794 C777 1.574 . S
C794 H788 0.949 . S
C794 C798 1.368 . S
C795 C776 1.429 . S
C795 C789 1.429 . S
C795 C796 1.523 . S
C796 C777 1.368 . S
C796 C790 1.368 . S
C796 C795 1.523 . S
C797 C781 1.429 . S
C797 C793 1.429 . S
C797 C798 1.523 . S
C798 C782 1.368 . S
C798 C794 1.368 . S
C798 C797 1.523 . S
H799 C774 0.950 . S
H800 C776 0.950 . S
H801 C777 0.949 . S
H802 C779 0.950 . S
H803 C781 0.950 . S
C804 C805 1.349 . S
C804 C806 1.327 . S
C804 H829 0.950 . S
C805 C804 1.349 . S
C805 C821 1.349 . S
C806 C804 1.327 . S
C806 C825 1.429 . S
C806 H830 0.950 . S
C807 C824 1.574 . S
C807 C826 1.368 . S
C807 H831 0.949 . S
H808 C812 0.949 . S
C809 C810 1.349 . S
C809 C811 1.327 . S
C809 H832 0.950 . S
C810 C809 1.349 . S
C810 C822 1.349 . S
C811 C809 1.327 . S
C811 C827 1.429 . S
C811 H833 0.950 . S
C812 H808 0.949 . S
C812 C820 1.574 . S
C812 C828 1.368 . S
H813 C821 0.950 . S
H814 C819 0.950 . S
H815 C820 0.949 . S
H816 C822 0.950 . S
H817 C823 0.950 . S
H818 C824 0.949 . S
C819 H814 0.950 . S
C819 C821 1.327 . S
C819 C825 1.429 . S
C820 C812 1.574 . S
C820 H815 0.949 . S
C820 C826 1.368 . S
C821 C805 1.349 . S
C821 H813 0.950 . S
C821 C819 1.327 . S
C822 C810 1.349 . S
C822 H816 0.950 . S
C822 C823 1.327 . S
C823 H817 0.950 . S
C823 C822 1.327 . S
C823 C827 1.429 . S
C824 C807 1.574 . S
C824 H818 0.949 . S
C824 C828 1.368 . S
C825 C806 1.429 . S
C825 C819 1.429 . S
C825 C826 1.523 . S
C826 C807 1.368 . S
C826 C820 1.368 . S
C826 C825 1.523 . S
C827 C811 1.429 . S
C827 C823 1.429 . S
C827 C828 1.523 . S
C828 C812 1.368 . S
C828 C824 1.368 . S
C828 C827 1.523 . S
H829 C804 0.950 . S
H830 C806 0.950 . S
H831 C807 0.949 . S
H832 C809 0.950 . S
H833 C811 0.950 . S
C834 C835 1.349 . S
C834 C836 1.327 . S
C834 H859 0.950 . S
C835 C834 1.349 . S
C835 C851 1.349 . S
C836 C834 1.327 . S
C836 C855 1.429 . S
C836 H860 0.950 . S
C837 C854 1.574 . S
C837 C856 1.368 . S
C837 H861 0.949 . S
H838 C842 0.949 . S
C839 C840 1.349 . S
C839 C841 1.327 . S
C839 H862 0.950 . S
C840 C839 1.349 . S
C840 C852 1.349 . S
C841 C839 1.327 . S
C841 C857 1.429 . S
C841 H863 0.950 . S
C842 H838 0.949 . S
C842 C850 1.574 . S
C842 C858 1.368 . S
H843 C851 0.950 . S
H844 C849 0.950 . S
H845 C850 0.949 . S
H846 C852 0.950 . S
H847 C853 0.950 . S
H848 C854 0.949 . S
C849 H844 0.950 . S
C849 C851 1.327 . S
C849 C855 1.429 . S
C850 C842 1.574 . S
C850 H845 0.949 . S
C850 C856 1.368 . S
C851 C835 1.349 . S
C851 H843 0.950 . S
C851 C849 1.327 . S
C852 C840 1.349 . S
C852 H846 0.950 . S
C852 C853 1.327 . S
C853 H847 0.950 . S
C853 C852 1.327 . S
C853 C857 1.429 . S
C854 C837 1.574 . S
C854 H848 0.949 . S
C854 C858 1.368 . S
C855 C836 1.429 . S
C855 C849 1.429 . S
C855 C856 1.523 . S
C856 C837 1.368 . S
C856 C850 1.368 . S
C856 C855 1.523 . S
C857 C841 1.429 . S
C857 C853 1.429 . S
C857 C858 1.523 . S
C858 C842 1.368 . S
C858 C854 1.368 . S
C858 C857 1.523 . S
H859 C834 0.950 . S
H860 C836 0.950 . S
H861 C837 0.949 . S
H862 C839 0.950 . S
H863 C841 0.950 . S
C864 C865 1.349 . S
C864 C866 1.327 . S
C864 H889 0.950 . S
C865 C864 1.349 . S
C865 C881 1.349 . S
C866 C864 1.327 . S
C866 C885 1.429 . S
C866 H890 0.950 . S
C867 C884 1.574 . S
C867 C886 1.368 . S
C867 H891 0.949 . S
H868 C872 0.949 . S
C869 C870 1.349 . S
C869 C871 1.327 . S
C869 H892 0.950 . S
C870 C869 1.349 . S
C870 C882 1.349 . S
C871 C869 1.327 . S
C871 C887 1.429 . S
C871 H893 0.950 . S
C872 H868 0.949 . S
C872 C880 1.574 . S
C872 C888 1.368 . S
H873 C881 0.950 . S
H874 C879 0.950 . S
H875 C880 0.949 . S
H876 C882 0.950 . S
H877 C883 0.950 . S
H878 C884 0.949 . S
C879 H874 0.950 . S
C879 C881 1.327 . S
C879 C885 1.429 . S
C880 C872 1.574 . S
C880 H875 0.949 . S
C880 C886 1.368 . S
C881 C865 1.349 . S
C881 H873 0.950 . S
C881 C879 1.327 . S
C882 C870 1.349 . S
C882 H876 0.950 . S
C882 C883 1.327 . S
C883 H877 0.950 . S
C883 C882 1.327 . S
C883 C887 1.429 . S
C884 C867 1.574 . S
C884 H878 0.949 . S
C884 C888 1.368 . S
C885 C866 1.429 . S
C885 C879 1.429 . S
C885 C886 1.523 . S
C886 C867 1.368 . S
C886 C880 1.368 . S
C886 C885 1.523 . S
C887 C871 1.429 . S
C887 C883 1.429 . S
C887 C888 1.523 . S
C888 C872 1.368 . S
C888 C884 1.368 . S
C888 C887 1.523 . S
H889 C864 0.950 . S
H890 C866 0.950 . S
H891 C867 0.949 . S
H892 C869 0.950 . S
H893 C871 0.950 . S
C894 C895 1.349 . S
C894 C896 1.327 . S
C894 H919 0.950 . S
C895 C894 1.349 . S
C895 C911 1.349 . S
C896 C894 1.327 . S
C896 C915 1.429 . S
C896 H920 0.950 . S
C897 C914 1.574 . S
C897 C916 1.368 . S
C897 H921 0.949 . S
H898 C902 0.949 . S
C899 C900 1.349 . S
C899 C901 1.327 . S
C899 H922 0.950 . S
C900 C899 1.349 . S
C900 C912 1.349 . S
C901 C899 1.327 . S
C901 C917 1.429 . S
C901 H923 0.950 . S
C902 H898 0.949 . S
C902 C910 1.574 . S
C902 C918 1.368 . S
H903 C911 0.950 . S
H904 C909 0.950 . S
H905 C910 0.949 . S
H906 C912 0.950 . S
H907 C913 0.950 . S
H908 C914 0.949 . S
C909 H904 0.950 . S
C909 C911 1.327 . S
C909 C915 1.429 . S
C910 C902 1.574 . S
C910 H905 0.949 . S
C910 C916 1.368 . S
C911 C895 1.349 . S
C911 H903 0.950 . S
C911 C909 1.327 . S
C912 C900 1.349 . S
C912 H906 0.950 . S
C912 C913 1.327 . S
C913 H907 0.950 . S
C913 C912 1.327 . S
C913 C917 1.429 . S
C914 C897 1.574 . S
C914 H908 0.949 . S
C914 C918 1.368 . S
C915 C896 1.429 . S
C915 C909 1.429 . S
C915 C916 1.523 . S
C916 C897 1.368 . S
C916 C910 1.368 . S
C916 C915 1.523 . S
C917 C901 1.429 . S
C917 C913 1.429 . S
C917 C918 1.523 . S
C918 C902 1.368 . S
C918 C914 1.368 . S
C918 C917 1.523 . S
H919 C894 0.950 . S
H920 C896 0.950 . S
H921 C897 0.949 . S
H922 C899 0.950 . S
H923 C901 0.950 . S
C924 C925 1.349 . S
C924 C926 1.327 . S
C924 H949 0.950 . S
C925 C924 1.349 . S
C925 C941 1.349 . S
C926 C924 1.327 . S
C926 C945 1.429 . S
C926 H950 0.950 . S
C927 C944 1.574 . S
C927 C946 1.368 . S
C927 H951 0.949 . S
H928 C932 0.949 . S
C929 C930 1.349 . S
C929 C931 1.327 . S
C929 H952 0.950 . S
C930 C929 1.349 . S
C930 C942 1.349 . S
C931 C929 1.327 . S
C931 C947 1.429 . S
C931 H953 0.950 . S
C932 H928 0.949 . S
C932 C940 1.574 . S
C932 C948 1.368 . S
H933 C941 0.950 . S
H934 C939 0.950 . S
H935 C940 0.949 . S
H936 C942 0.950 . S
H937 C943 0.950 . S
H938 C944 0.949 . S
C939 H934 0.950 . S
C939 C941 1.327 . S
C939 C945 1.429 . S
C940 C932 1.574 . S
C940 H935 0.949 . S
C940 C946 1.368 . S
C941 C925 1.349 . S
C941 H933 0.950 . S
C941 C939 1.327 . S
C942 C930 1.349 . S
C942 H936 0.950 . S
C942 C943 1.327 . S
C943 H937 0.950 . S
C943 C942 1.327 . S
C943 C947 1.429 . S
C944 C927 1.574 . S
C944 H938 0.949 . S
C944 C948 1.368 . S
C945 C926 1.429 . S
C945 C939 1.429 . S
C945 C946 1.523 . S
C946 C927 1.368 . S
C946 C940 1.368 . S
C946 C945 1.523 . S
C947 C931 1.429 . S
C947 C943 1.429 . S
C947 C948 1.523 . S
C948 C932 1.368 . S
C948 C944 1.368 . S
C948 C947 1.523 . S
H949 C924 0.950 . S
H950 C926 0.950 . S
H951 C927 0.949 . S
H952 C929 0.950 . S
H953 C931 0.950 . S
C954 C955 1.349 . S
C954 C956 1.327 . S
C954 H979 0.950 . S
C955 C954 1.349 . S
C955 C971 1.349 . S
C956 C954 1.327 . S
C956 C975 1.429 . S
C956 H980 0.950 . S
C957 C974 1.574 . S
C957 C976 1.368 . S
C957 H981 0.949 . S
H958 C962 0.949 . S
C959 C960 1.349 . S
C959 C961 1.327 . S
C959 H982 0.950 . S
C960 C959 1.349 . S
C960 C972 1.349 . S
C961 C959 1.327 . S
C961 C977 1.429 . S
C961 H983 0.950 . S
C962 H958 0.949 . S
C962 C970 1.574 . S
C962 C978 1.368 . S
H963 C971 0.950 . S
H964 C969 0.950 . S
H965 C970 0.949 . S
H966 C972 0.950 . S
H967 C973 0.950 . S
H968 C974 0.949 . S
C969 H964 0.950 . S
C969 C971 1.327 . S
C969 C975 1.429 . S
C970 C962 1.574 . S
C970 H965 0.949 . S
C970 C976 1.368 . S
C971 C955 1.349 . S
C971 H963 0.950 . S
C971 C969 1.327 . S
C972 C960 1.349 . S
C972 H966 0.950 . S
C972 C973 1.327 . S
C973 H967 0.950 . S
C973 C972 1.327 . S
C973 C977 1.429 . S
C974 C957 1.574 . S
C974 H968 0.949 . S
C974 C978 1.368 . S
C975 C956 1.429 . S
C975 C969 1.429 . S
C975 C976 1.523 . S
C976 C957 1.368 . S
C976 C970 1.368 . S
C976 C975 1.523 . S
C977 C961 1.429 . S
C977 C973 1.429 . S
C977 C978 1.523 . S
C978 C962 1.368 . S
C978 C974 1.368 . S
C978 C977 1.523 . S
H979 C954 0.950 . S
H980 C956 0.950 . S
H981 C957 0.949 . S
H982 C959 0.950 . S
H983 C961 0.950 . S
C984 C985 1.349 . S
C984 C986 1.327 . S
C984 H1009 0.950 . S
C985 C984 1.349 . S
C985 C1001 1.349 . S
C986 C984 1.327 . S
C986 C1005 1.429 . S
C986 H1010 0.950 . S
C987 C1004 1.574 . S
C987 C1006 1.368 . S
C987 H1011 0.949 . S
H988 C992 0.949 . S
C989 C990 1.349 . S
C989 C991 1.327 . S
C989 H1012 0.950 . S
C990 C989 1.349 . S
C990 C1002 1.349 . S
C991 C989 1.327 . S
C991 C1007 1.429 . S
C991 H1013 0.950 . S
C992 H988 0.949 . S
C992 C1000 1.574 . S
C992 C1008 1.368 . S
H993 C1001 0.950 . S
H994 C999 0.950 . S
H995 C1000 0.949 . S
H996 C1002 0.950 . S
H997 C1003 0.950 . S
H998 C1004 0.949 . S
C999 H994 0.950 . S
C999 C1001 1.327 . S
C999 C1005 1.429 . S
C1000 C992 1.574 . S
C1000 H995 0.949 . S
C1000 C1006 1.368 . S
C1001 C985 1.349 . S
C1001 H993 0.950 . S
C1001 C999 1.327 . S
C1002 C990 1.349 . S
C1002 H996 0.950 . S
C1002 C1003 1.327 . S
C1003 H997 0.950 . S
C1003 C1002 1.327 . S
C1003 C1007 1.429 . S
C1004 C987 1.574 . S
C1004 H998 0.949 . S
C1004 C1008 1.368 . S
C1005 C986 1.429 . S
C1005 C999 1.429 . S
C1005 C1006 1.523 . S
C1006 C987 1.368 . S
C1006 C1000 1.368 . S
C1006 C1005 1.523 . S
C1007 C991 1.429 . S
C1007 C1003 1.429 . S
C1007 C1008 1.523 . S
C1008 C992 1.368 . S
C1008 C1004 1.368 . S
C1008 C1007 1.523 . S
H1009 C984 0.950 . S
H1010 C986 0.950 . S
H1011 C987 0.949 . S
H1012 C989 0.950 . S
H1013 C991 0.950 . S
C1014 C1015 1.349 . S
C1014 C1016 1.327 . S
C1014 H1039 0.950 . S
C1015 C1014 1.349 . S
C1015 C1031 1.349 . S
C1016 C1014 1.327 . S
C1016 C1035 1.429 . S
C1016 H1040 0.950 . S
C1017 C1034 1.574 . S
C1017 C1036 1.368 . S
C1017 H1041 0.949 . S
H1018 C1022 0.949 . S
C1019 C1020 1.349 . S
C1019 C1021 1.327 . S
C1019 H1042 0.950 . S
C1020 C1019 1.349 . S
C1020 C1032 1.349 . S
C1021 C1019 1.327 . S
C1021 C1037 1.429 . S
C1021 H1043 0.950 . S
C1022 H1018 0.949 . S
C1022 C1030 1.574 . S
C1022 C1038 1.368 . S
H1023 C1031 0.950 . S
H1024 C1029 0.950 . S
H1025 C1030 0.949 . S
H1026 C1032 0.950 . S
H1027 C1033 0.950 . S
H1028 C1034 0.949 . S
C1029 H1024 0.950 . S
C1029 C1031 1.327 . S
C1029 C1035 1.429 . S
C1030 C1022 1.574 . S
C1030 H1025 0.949 . S
C1030 C1036 1.368 . S
C1031 C1015 1.349 . S
C1031 H1023 0.950 . S
C1031 C1029 1.327 . S
C1032 C1020 1.349 . S
C1032 H1026 0.950 . S
C1032 C1033 1.327 . S
C1033 H1027 0.950 . S
C1033 C1032 1.327 . S
C1033 C1037 1.429 . S
C1034 C1017 1.574 . S
C1034 H1028 0.949 . S
C1034 C1038 1.368 . S
C1035 C1016 1.429 . S
C1035 C1029 1.429 . S
C1035 C1036 1.523 . S
C1036 C1017 1.368 . S
C1036 C1030 1.368 . S
C1036 C1035 1.523 . S
C1037 C1021 1.429 . S
C1037 C1033 1.429 . S
C1037 C1038 1.523 . S
C1038 C1022 1.368 . S
C1038 C1034 1.368 . S
C1038 C1037 1.523 . S
H1039 C1014 0.950 . S
H1040 C1016 0.950 . S
H1041 C1017 0.949 . S
H1042 C1019 0.950 . S
H1043 C1021 0.950 . S
C1044 C1045 1.349 . S
C1044 C1046 1.327 . S
C1044 H1069 0.950 . S
C1045 C1044 1.349 . S
C1045 C1061 1.349 . S
C1046 C1044 1.327 . S
C1046 C1065 1.429 . S
C1046 H1070 0.950 . S
C1047 C1064 1.574 . S
C1047 C1066 1.368 . S
C1047 H1071 0.949 . S
H1048 C1052 0.949 . S
C1049 C1050 1.349 . S
C1049 C1051 1.327 . S
C1049 H1072 0.950 . S
C1050 C1049 1.349 . S
C1050 C1062 1.349 . S
C1051 C1049 1.327 . S
C1051 C1067 1.429 . S
C1051 H1073 0.950 . S
C1052 H1048 0.949 . S
C1052 C1060 1.574 . S
C1052 C1068 1.368 . S
H1053 C1061 0.950 . S
H1054 C1059 0.950 . S
H1055 C1060 0.949 . S
H1056 C1062 0.950 . S
H1057 C1063 0.950 . S
H1058 C1064 0.949 . S
C1059 H1054 0.950 . S
C1059 C1061 1.327 . S
C1059 C1065 1.429 . S
C1060 C1052 1.574 . S
C1060 H1055 0.949 . S
C1060 C1066 1.368 . S
C1061 C1045 1.349 . S
C1061 H1053 0.950 . S
C1061 C1059 1.327 . S
C1062 C1050 1.349 . S
C1062 H1056 0.950 . S
C1062 C1063 1.327 . S
C1063 H1057 0.950 . S
C1063 C1062 1.327 . S
C1063 C1067 1.429 . S
C1064 C1047 1.574 . S
C1064 H1058 0.949 . S
C1064 C1068 1.368 . S
C1065 C1046 1.429 . S
C1065 C1059 1.429 . S
C1065 C1066 1.523 . S
C1066 C1047 1.368 . S
C1066 C1060 1.368 . S
C1066 C1065 1.523 . S
C1067 C1051 1.429 . S
C1067 C1063 1.429 . S
C1067 C1068 1.523 . S
C1068 C1052 1.368 . S
C1068 C1064 1.368 . S
C1068 C1067 1.523 . S
H1069 C1044 0.950 . S
H1070 C1046 0.950 . S
H1071 C1047 0.949 . S
H1072 C1049 0.950 . S
H1073 C1051 0.950 . S
C1074 C1075 1.349 . S
C1074 C1076 1.327 . S
C1074 H1099 0.950 . S
C1075 C1074 1.349 . S
C1075 C1091 1.349 . S
C1076 C1074 1.327 . S
C1076 C1095 1.429 . S
C1076 H1100 0.950 . S
C1077 C1094 1.574 . S
C1077 C1096 1.368 . S
C1077 H1101 0.949 . S
H1078 C1082 0.949 . S
C1079 C1080 1.349 . S
C1079 C1081 1.327 . S
C1079 H1102 0.950 . S
C1080 C1079 1.349 . S
C1080 C1092 1.349 . S
C1081 C1079 1.327 . S
C1081 C1097 1.429 . S
C1081 H1103 0.950 . S
C1082 H1078 0.949 . S
C1082 C1090 1.574 . S
C1082 C1098 1.368 . S
H1083 C1091 0.950 . S
H1084 C1089 0.950 . S
H1085 C1090 0.949 . S
H1086 C1092 0.950 . S
H1087 C1093 0.950 . S
H1088 C1094 0.949 . S
C1089 H1084 0.950 . S
C1089 C1091 1.327 . S
C1089 C1095 1.429 . S
C1090 C1082 1.574 . S
C1090 H1085 0.949 . S
C1090 C1096 1.368 . S
C1091 C1075 1.349 . S
C1091 H1083 0.950 . S
C1091 C1089 1.327 . S
C1092 C1080 1.349 . S
C1092 H1086 0.950 . S
C1092 C1093 1.327 . S
C1093 H1087 0.950 . S
C1093 C1092 1.327 . S
C1093 C1097 1.429 . S
C1094 C1077 1.574 . S
C1094 H1088 0.949 . S
C1094 C1098 1.368 . S
C1095 C1076 1.429 . S
C1095 C1089 1.429 . S
C1095 C1096 1.523 . S
C1096 C1077 1.368 . S
C1096 C1090 1.368 . S
C1096 C1095 1.523 . S
C1097 C1081 1.429 . S
C1097 C1093 1.429 . S
C1097 C1098 1.523 . S
C1098 C1082 1.368 . S
C1098 C1094 1.368 . S
C1098 C1097 1.523 . S
H1099 C1074 0.950 . S
H1100 C1076 0.950 . S
H1101 C1077 0.949 . S
H1102 C1079 0.950 . S
H1103 C1081 0.950 . S
C1104 C1105 1.349 . S
C1104 C1106 1.327 . S
C1104 H1129 0.950 . S
C1105 C1104 1.349 . S
C1105 C1121 1.349 . S
C1106 C1104 1.327 . S
C1106 C1125 1.429 . S
C1106 H1130 0.950 . S
C1107 C1124 1.574 . S
C1107 C1126 1.368 . S
C1107 H1131 0.949 . S
H1108 C1112 0.949 . S
C1109 C1110 1.349 . S
C1109 C1111 1.327 . S
C1109 H1132 0.950 . S
C1110 C1109 1.349 . S
C1110 C1122 1.349 . S
C1111 C1109 1.327 . S
C1111 C1127 1.429 . S
C1111 H1133 0.950 . S
C1112 H1108 0.949 . S
C1112 C1120 1.574 . S
C1112 C1128 1.368 . S
H1113 C1121 0.950 . S
H1114 C1119 0.950 . S
H1115 C1120 0.949 . S
H1116 C1122 0.950 . S
H1117 C1123 0.950 . S
H1118 C1124 0.949 . S
C1119 H1114 0.950 . S
C1119 C1121 1.327 . S
C1119 C1125 1.429 . S
C1120 C1112 1.574 . S
C1120 H1115 0.949 . S
C1120 C1126 1.368 . S
C1121 C1105 1.349 . S
C1121 H1113 0.950 . S
C1121 C1119 1.327 . S
C1122 C1110 1.349 . S
C1122 H1116 0.950 . S
C1122 C1123 1.327 . S
C1123 H1117 0.950 . S
C1123 C1122 1.327 . S
C1123 C1127 1.429 . S
C1124 C1107 1.574 . S
C1124 H1118 0.949 . S
C1124 C1128 1.368 . S
C1125 C1106 1.429 . S
C1125 C1119 1.429 . S
C1125 C1126 1.523 . S
C1126 C1107 1.368 . S
C1126 C1120 1.368 . S
C1126 C1125 1.523 . S
C1127 C1111 1.429 . S
C1127 C1123 1.429 . S
C1127 C1128 1.523 . S
C1128 C1112 1.368 . S
C1128 C1124 1.368 . S
C1128 C1127 1.523 . S
H1129 C1104 0.950 . S
H1130 C1106 0.950 . S
H1131 C1107 0.949 . S
H1132 C1109 0.950 . S
H1133 C1111 0.950 . S
C1134 C1135 1.349 . S
C1134 C1136 1.327 . S
C1134 H1159 0.950 . S
C1135 C1134 1.349 . S
C1135 C1151 1.349 . S
C1136 C1134 1.327 . S
C1136 C1155 1.429 . S
C1136 H1160 0.950 . S
C1137 C1154 1.574 . S
C1137 C1156 1.368 . S
C1137 H1161 0.949 . S
H1138 C1142 0.949 . S
C1139 C1140 1.349 . S
C1139 C1141 1.327 . S
C1139 H1162 0.950 . S
C1140 C1139 1.349 . S
C1140 C1152 1.349 . S
C1141 C1139 1.327 . S
C1141 C1157 1.429 . S
C1141 H1163 0.950 . S
C1142 H1138 0.949 . S
C1142 C1150 1.574 . S
C1142 C1158 1.368 . S
H1143 C1151 0.950 . S
H1144 C1149 0.950 . S
H1145 C1150 0.949 . S
H1146 C1152 0.950 . S
H1147 C1153 0.950 . S
H1148 C1154 0.949 . S
C1149 H1144 0.950 . S
C1149 C1151 1.327 . S
C1149 C1155 1.429 . S
C1150 C1142 1.574 . S
C1150 H1145 0.949 . S
C1150 C1156 1.368 . S
C1151 C1135 1.349 . S
C1151 H1143 0.950 . S
C1151 C1149 1.327 . S
C1152 C1140 1.349 . S
C1152 H1146 0.950 . S
C1152 C1153 1.327 . S
C1153 H1147 0.950 . S
C1153 C1152 1.327 . S
C1153 C1157 1.429 . S
C1154 C1137 1.574 . S
C1154 H1148 0.949 . S
C1154 C1158 1.368 . S
C1155 C1136 1.429 . S
C1155 C1149 1.429 . S
C1155 C1156 1.523 . S
C1156 C1137 1.368 . S
C1156 C1150 1.368 . S
C1156 C1155 1.523 . S
C1157 C1141 1.429 . S
C1157 C1153 1.429 . S
C1157 C1158 1.523 . S
C1158 C1142 1.368 . S
C1158 C1154 1.368 . S
C1158 C1157 1.523 . S
H1159 C1134 0.950 . S
H1160 C1136 0.950 . S
H1161 C1137 0.949 . S
H1162 C1139 0.950 . S
H1163 C1141 0.950 . S
C1164 C1165 1.349 . S
C1164 C1166 1.327 . S
C1164 H1189 0.950 . S
C1165 C1164 1.349 . S
C1165 C1181 1.349 . S
C1166 C1164 1.327 . S
C1166 C1185 1.429 . S
C1166 H1190 0.950 . S
C1167 C1184 1.574 . S
C1167 C1186 1.368 . S
C1167 H1191 0.949 . S
H1168 C1172 0.949 . S
C1169 C1170 1.349 . S
C1169 C1171 1.327 . S
C1169 H1192 0.950 . S
C1170 C1169 1.349 . S
C1170 C1182 1.349 . S
C1171 C1169 1.327 . S
C1171 C1187 1.429 . S
C1171 H1193 0.950 . S
C1172 H1168 0.949 . S
C1172 C1180 1.574 . S
C1172 C1188 1.368 . S
H1173 C1181 0.950 . S
H1174 C1179 0.950 . S
H1175 C1180 0.949 . S
H1176 C1182 0.950 . S
H1177 C1183 0.950 . S
H1178 C1184 0.949 . S
C1179 H1174 0.950 . S
C1179 C1181 1.327 . S
C1179 C1185 1.429 . S
C1180 C1172 1.574 . S
C1180 H1175 0.949 . S
C1180 C1186 1.368 . S
C1181 C1165 1.349 . S
C1181 H1173 0.950 . S
C1181 C1179 1.327 . S
C1182 C1170 1.349 . S
C1182 H1176 0.950 . S
C1182 C1183 1.327 . S
C1183 H1177 0.950 . S
C1183 C1182 1.327 . S
C1183 C1187 1.429 . S
C1184 C1167 1.574 . S
C1184 H1178 0.949 . S
C1184 C1188 1.368 . S
C1185 C1166 1.429 . S
C1185 C1179 1.429 . S
C1185 C1186 1.523 . S
C1186 C1167 1.368 . S
C1186 C1180 1.368 . S
C1186 C1185 1.523 . S
C1187 C1171 1.429 . S
C1187 C1183 1.429 . S
C1187 C1188 1.523 . S
C1188 C1172 1.368 . S
C1188 C1184 1.368 . S
C1188 C1187 1.523 . S
H1189 C1164 0.950 . S
H1190 C1166 0.950 . S
H1191 C1167 0.949 . S
H1192 C1169 0.950 . S
H1193 C1171 0.950 . S
C1194 C1195 1.349 . S
C1194 C1196 1.327 . S
C1194 H1219 0.950 . S
C1195 C1194 1.349 . S
C1195 C1211 1.349 . S
C1196 C1194 1.327 . S
C1196 C1215 1.429 . S
C1196 H1220 0.950 . S
C1197 C1214 1.574 . S
C1197 C1216 1.368 . S
C1197 H1221 0.949 . S
H1198 C1202 0.949 . S
C1199 C1200 1.349 . S
C1199 C1201 1.327 . S
C1199 H1222 0.950 . S
C1200 C1199 1.349 . S
C1200 C1212 1.349 . S
C1201 C1199 1.327 . S
C1201 C1217 1.429 . S
C1201 H1223 0.950 . S
C1202 H1198 0.949 . S
C1202 C1210 1.574 . S
C1202 C1218 1.368 . S
H1203 C1211 0.950 . S
H1204 C1209 0.950 . S
H1205 C1210 0.949 . S
H1206 C1212 0.950 . S
H1207 C1213 0.950 . S
H1208 C1214 0.949 . S
C1209 H1204 0.950 . S
C1209 C1211 1.327 . S
C1209 C1215 1.429 . S
C1210 C1202 1.574 . S
C1210 H1205 0.949 . S
C1210 C1216 1.368 . S
C1211 C1195 1.349 . S
C1211 H1203 0.950 . S
C1211 C1209 1.327 . S
C1212 C1200 1.349 . S
C1212 H1206 0.950 . S
C1212 C1213 1.327 . S
C1213 H1207 0.950 . S
C1213 C1212 1.327 . S
C1213 C1217 1.429 . S
C1214 C1197 1.574 . S
C1214 H1208 0.949 . S
C1214 C1218 1.368 . S
C1215 C1196 1.429 . S
C1215 C1209 1.429 . S
C1215 C1216 1.523 . S
C1216 C1197 1.368 . S
C1216 C1210 1.368 . S
C1216 C1215 1.523 . S
C1217 C1201 1.429 . S
C1217 C1213 1.429 . S
C1217 C1218 1.523 . S
C1218 C1202 1.368 . S
C1218 C1214 1.368 . S
C1218 C1217 1.523 . S
H1219 C1194 0.950 . S
H1220 C1196 0.950 . S
H1221 C1197 0.949 . S
H1222 C1199 0.950 . S
H1223 C1201 0.950 . S
C1224 C1225 1.349 . S
C1224 C1226 1.327 . S
C1224 H1249 0.950 . S
C1225 C1224 1.349 . S
C1225 C1241 1.349 . S
C1226 C1224 1.327 . S
C1226 C1245 1.429 . S
C1226 H1250 0.950 . S
C1227 C1244 1.574 . S
C1227 C1246 1.368 . S
C1227 H1251 0.949 . S
H1228 C1232 0.949 . S
C1229 C1230 1.349 . S
C1229 C1231 1.327 . S
C1229 H1252 0.950 . S
C1230 C1229 1.349 . S
C1230 C1242 1.349 . S
C1231 C1229 1.327 . S
C1231 C1247 1.429 . S
C1231 H1253 0.950 . S
C1232 H1228 0.949 . S
C1232 C1240 1.574 . S
C1232 C1248 1.368 . S
H1233 C1241 0.950 . S
H1234 C1239 0.950 . S
H1235 C1240 0.949 . S
H1236 C1242 0.950 . S
H1237 C1243 0.950 . S
H1238 C1244 0.949 . S
C1239 H1234 0.950 . S
C1239 C1241 1.327 . S
C1239 C1245 1.429 . S
C1240 C1232 1.574 . S
C1240 H1235 0.949 . S
C1240 C1246 1.368 . S
C1241 C1225 1.349 . S
C1241 H1233 0.950 . S
C1241 C1239 1.327 . S
C1242 C1230 1.349 . S
C1242 H1236 0.950 . S
C1242 C1243 1.327 . S
C1243 H1237 0.950 . S
C1243 C1242 1.327 . S
C1243 C1247 1.429 . S
C1244 C1227 1.574 . S
C1244 H1238 0.949 . S
C1244 C1248 1.368 . S
C1245 C1226 1.429 . S
C1245 C1239 1.429 . S
C1245 C1246 1.523 . S
C1246 C1227 1.368 . S
C1246 C1240 1.368 . S
C1246 C1245 1.523 . S
C1247 C1231 1.429 . S
C1247 C1243 1.429 . S
C1247 C1248 1.523 . S
C1248 C1232 1.368 . S
C1248 C1244 1.368 . S
C1248 C1247 1.523 . S
H1249 C1224 0.950 . S
H1250 C1226 0.950 . S
H1251 C1227 0.949 . S
H1252 C1229 0.950 . S
H1253 C1231 0.950 . S
C1254 C1255 1.349 . S
C1254 C1256 1.327 . S
C1254 H1279 0.950 . S
C1255 C1254 1.349 . S
C1255 C1271 1.349 . S
C1256 C1254 1.327 . S
C1256 C1275 1.429 . S
C1256 H1280 0.950 . S
C1257 C1274 1.574 . S
C1257 C1276 1.368 . S
C1257 H1281 0.949 . S
H1258 C1262 0.949 . S
C1259 C1260 1.349 . S
C1259 C1261 1.327 . S
C1259 H1282 0.950 . S
C1260 C1259 1.349 . S
C1260 C1272 1.349 . S
C1261 C1259 1.327 . S
C1261 C1277 1.429 . S
C1261 H1283 0.950 . S
C1262 H1258 0.949 . S
C1262 C1270 1.574 . S
C1262 C1278 1.368 . S
H1263 C1271 0.950 . S
H1264 C1269 0.950 . S
H1265 C1270 0.949 . S
H1266 C1272 0.950 . S
H1267 C1273 0.950 . S
H1268 C1274 0.949 . S
C1269 H1264 0.950 . S
C1269 C1271 1.327 . S
C1269 C1275 1.429 . S
C1270 C1262 1.574 . S
C1270 H1265 0.949 . S
C1270 C1276 1.368 . S
C1271 C1255 1.349 . S
C1271 H1263 0.950 . S
C1271 C1269 1.327 . S
C1272 C1260 1.349 . S
C1272 H1266 0.950 . S
C1272 C1273 1.327 . S
C1273 H1267 0.950 . S
C1273 C1272 1.327 . S
C1273 C1277 1.429 . S
C1274 C1257 1.574 . S
C1274 H1268 0.949 . S
C1274 C1278 1.368 . S
C1275 C1256 1.429 . S
C1275 C1269 1.429 . S
C1275 C1276 1.523 . S
C1276 C1257 1.368 . S
C1276 C1270 1.368 . S
C1276 C1275 1.523 . S
C1277 C1261 1.429 . S
C1277 C1273 1.429 . S
C1277 C1278 1.523 . S
C1278 C1262 1.368 . S
C1278 C1274 1.368 . S
C1278 C1277 1.523 . S
H1279 C1254 0.950 . S
H1280 C1256 0.950 . S
H1281 C1257 0.949 . S
H1282 C1259 0.950 . S
H1283 C1261 0.950 . S
C1284 C1285 1.349 . S
C1284 C1286 1.327 . S
C1284 H1309 0.950 . S
C1285 C1284 1.349 . S
C1285 C1301 1.349 . S
C1286 C1284 1.327 . S
C1286 C1305 1.429 . S
C1286 H1310 0.950 . S
C1287 C1304 1.574 . S
C1287 C1306 1.368 . S
C1287 H1311 0.949 . S
H1288 C1292 0.949 . S
C1289 C1290 1.349 . S
C1289 C1291 1.327 . S
C1289 H1312 0.950 . S
C1290 C1289 1.349 . S
C1290 C1302 1.349 . S
C1291 C1289 1.327 . S
C1291 C1307 1.429 . S
C1291 H1313 0.950 . S
C1292 H1288 0.949 . S
C1292 C1300 1.574 . S
C1292 C1308 1.368 . S
H1293 C1301 0.950 . S
H1294 C1299 0.950 . S
H1295 C1300 0.949 . S
H1296 C1302 0.950 . S
H1297 C1303 0.950 . S
H1298 C1304 0.949 . S
C1299 H1294 0.950 . S
C1299 C1301 1.327 . S
C1299 C1305 1.429 . S
C1300 C1292 1.574 . S
C1300 H1295 0.949 . S
C1300 C1306 1.368 . S
C1301 C1285 1.349 . S
C1301 H1293 0.950 . S
C1301 C1299 1.327 . S
C1302 C1290 1.349 . S
C1302 H1296 0.950 . S
C1302 C1303 1.327 . S
C1303 H1297 0.950 . S
C1303 C1302 1.327 . S
C1303 C1307 1.429 . S
C1304 C1287 1.574 . S
C1304 H1298 0.949 . S
C1304 C1308 1.368 . S
C1305 C1286 1.429 . S
C1305 C1299 1.429 . S
C1305 C1306 1.523 . S
C1306 C1287 1.368 . S
C1306 C1300 1.368 . S
C1306 C1305 1.523 . S
C1307 C1291 1.429 . S
C1307 C1303 1.429 . S
C1307 C1308 1.523 . S
C1308 C1292 1.368 . S
C1308 C1304 1.368 . S
C1308 C1307 1.523 . S
H1309 C1284 0.950 . S
H1310 C1286 0.950 . S
H1311 C1287 0.949 . S
H1312 C1289 0.950 . S
H1313 C1291 0.950 . S
C1314 C1315 1.349 . S
C1314 C1316 1.327 . S
C1314 H1339 0.950 . S
C1315 C1314 1.349 . S
C1315 C1331 1.349 . S
C1316 C1314 1.327 . S
C1316 C1335 1.429 . S
C1316 H1340 0.950 . S
C1317 C1334 1.574 . S
C1317 C1336 1.368 . S
C1317 H1341 0.949 . S
H1318 C1322 0.949 . S
C1319 C1320 1.349 . S
C1319 C1321 1.327 . S
C1319 H1342 0.950 . S
C1320 C1319 1.349 . S
C1320 C1332 1.349 . S
C1321 C1319 1.327 . S
C1321 C1337 1.429 . S
C1321 H1343 0.950 . S
C1322 H1318 0.949 . S
C1322 C1330 1.574 . S
C1322 C1338 1.368 . S
H1323 C1331 0.950 . S
H1324 C1329 0.950 . S
H1325 C1330 0.949 . S
H1326 C1332 0.950 . S
H1327 C1333 0.950 . S
H1328 C1334 0.949 . S
C1329 H1324 0.950 . S
C1329 C1331 1.327 . S
C1329 C1335 1.429 . S
C1330 C1322 1.574 . S
C1330 H1325 0.949 . S
C1330 C1336 1.368 . S
C1331 C1315 1.349 . S
C1331 H1323 0.950 . S
C1331 C1329 1.327 . S
C1332 C1320 1.349 . S
C1332 H1326 0.950 . S
C1332 C1333 1.327 . S
C1333 H1327 0.950 . S
C1333 C1332 1.327 . S
C1333 C1337 1.429 . S
C1334 C1317 1.574 . S
C1334 H1328 0.949 . S
C1334 C1338 1.368 . S
C1335 C1316 1.429 . S
C1335 C1329 1.429 . S
C1335 C1336 1.523 . S
C1336 C1317 1.368 . S
C1336 C1330 1.368 . S
C1336 C1335 1.523 . S
C1337 C1321 1.429 . S
C1337 C1333 1.429 . S
C1337 C1338 1.523 . S
C1338 C1322 1.368 . S
C1338 C1334 1.368 . S
C1338 C1337 1.523 . S
H1339 C1314 0.950 . S
H1340 C1316 0.950 . S
H1341 C1317 0.949 . S
H1342 C1319 0.950 . S
H1343 C1321 0.950 . S
C265 C84 1.447 . S
C270 C7 1.519 . S
C295 C51 1.137 . S
C300 C18 1.212 1_655 S
C325 C29 1.143 . S
C330 C62 1.207 . S
C355 C73 1.339 . S
C360 C40 1.268 . S
C385 C183 1.200 . S
C390 C95 1.273 . S
C415 C106 1.137 . S
C420 C194 1.143 . S
C445 C117 1.063 . S
C450 C260 1.063 . S
C475 C128 1.233 . S
C480 C139 1.217 . S
C505 C227 1.222 . S
C510 C150 1.224 . S
C535 C161 1.402 . S
C540 C238 1.409 . S
C565 C249 1.328 . S
C570 C172 1.322 . S
C595 C216 1.313 . S
C600 C205 1.399 . S
C625 C162 1.812 . S
C630 C5 1.648 . S
C655 C173 1.696 . S
C660 C16 1.529 . S
C685 C30 1.469 . S
C690 C206 1.507 . S
C715 C148 1.199 . S
C720 C41 1.472 . S
C745 C49 1.366 . S
C750 C159 1.623 . S
C775 C170 1.516 . S
C780 C63 1.699 . S
C805 C74 1.426 . S
C810 C203 1.265 . S
C835 C82 1.424 . S
C840 C151 1.785 . S
C865 C107 1.447 . S
C870 C93 1.297 . S
C895 C104 1.143 . S
C900 C115 1.025 . S
C925 C118 1.594 . S
C930 C126 1.321 . S
C955 C129 1.458 . S
C960 C96 1.484 . S
C985 C140 1.727 . S
C990 C38 1.400 . S
C1015 C181 1.638 . S
C1020 C52 2.015 . S
C1045 C19 1.382 . S
C1050 C192 1.210 . S
C1075 C261 1.645 . S
C1080 C27 1.315 . S
C1105 C184 1.827 . S
C1110 C8 1.909 . S
C1135 C71 1.214 . S
C1140 C258 1.074 . S
C1165 C85 1.852 . S
C1170 C137 1.532 . S
C1195 C195 1.559 . S
C1200 C60 1.383 . S
C1225 C214 1.645 . S
C1230 C228 2.047 . S
C1255 C236 1.480 . S
C1260 C225 1.297 . S
C1285 C239 1.757 . S
C1290 C247 1.566 . S
C1315 C217 1.902 . S
C1320 C250 1.966 . S
