# Generated by pormake.
# Topology unf, (4)-cn, num edge types: 1
# Building blocks:
#     Node 0, Type 0, BuildingBlock: NAHDIM_clean_sbu_0, # of connection points: 4
#     Node 1, Type 0, BuildingBlock: NAHDIM_clean_sbu_0, # of connection points: 4
#     Node 2, Type 0, BuildingBlock: NAHDIM_clean_sbu_0, # of connection points: 4
#     Node 3, Type 0, BuildingBlock: NAHDIM_clean_sbu_0, # of connection points: 4
#     Node 4, Type 0, BuildingBlock: NAHDIM_clean_sbu_0, # of connection points: 4
#     Node 5, Type 0, BuildingBlock: NAHDIM_clean_sbu_0, # of connection points: 4
#     Node 6, Type 0, BuildingBlock: NAHDIM_clean_sbu_0, # of connection points: 4
#     Node 7, Type 0, BuildingBlock: NAHDIM_clean_sbu_0, # of connection points: 4
#     Node 8, Type 0, BuildingBlock: NAHDIM_clean_sbu_0, # of connection points: 4
#     Node 9, Type 0, BuildingBlock: NAHDIM_clean_sbu_0, # of connection points: 4
#     Node 10, Type 0, BuildingBlock: NAHDIM_clean_sbu_0, # of connection points: 4
#     Node 11, Type 0, BuildingBlock: NAHDIM_clean_sbu_0, # of connection points: 4
#     Edge 12, Type (0, 0), BuildingBlock: XIVTED_clean_linker_0, # of connection points: 2
#     Edge 13, Type (0, 0), BuildingBlock: XIVTED_clean_linker_0, # of connection points: 2
#     Edge 14, Type (0, 0), BuildingBlock: XIVTED_clean_linker_0, # of connection points: 2
#     Edge 15, Type (0, 0), BuildingBlock: XIVTED_clean_linker_0, # of connection points: 2
#     Edge 16, Type (0, 0), BuildingBlock: XIVTED_clean_linker_0, # of connection points: 2
#     Edge 17, Type (0, 0), BuildingBlock: XIVTED_clean_linker_0, # of connection points: 2
#     Edge 18, Type (0, 0), BuildingBlock: XIVTED_clean_linker_0, # of connection points: 2
#     Edge 19, Type (0, 0), BuildingBlock: XIVTED_clean_linker_0, # of connection points: 2
#     Edge 20, Type (0, 0), BuildingBlock: XIVTED_clean_linker_0, # of connection points: 2
#     Edge 21, Type (0, 0), BuildingBlock: XIVTED_clean_linker_0, # of connection points: 2
#     Edge 22, Type (0, 0), BuildingBlock: XIVTED_clean_linker_0, # of connection points: 2
#     Edge 23, Type (0, 0), BuildingBlock: XIVTED_clean_linker_0, # of connection points: 2
#     Edge 24, Type (0, 0), BuildingBlock: XIVTED_clean_linker_0, # of connection points: 2
#     Edge 25, Type (0, 0), BuildingBlock: XIVTED_clean_linker_0, # of connection points: 2
#     Edge 26, Type (0, 0), BuildingBlock: XIVTED_clean_linker_0, # of connection points: 2
#     Edge 27, Type (0, 0), BuildingBlock: XIVTED_clean_linker_0, # of connection points: 2
#     Edge 28, Type (0, 0), BuildingBlock: XIVTED_clean_linker_0, # of connection points: 2
#     Edge 29, Type (0, 0), BuildingBlock: XIVTED_clean_linker_0, # of connection points: 2
#     Edge 30, Type (0, 0), BuildingBlock: XIVTED_clean_linker_0, # of connection points: 2
#     Edge 31, Type (0, 0), BuildingBlock: XIVTED_clean_linker_0, # of connection points: 2
#     Edge 32, Type (0, 0), BuildingBlock: XIVTED_clean_linker_0, # of connection points: 2
#     Edge 33, Type (0, 0), BuildingBlock: XIVTED_clean_linker_0, # of connection points: 2
#     Edge 34, Type (0, 0), BuildingBlock: XIVTED_clean_linker_0, # of connection points: 2
#     Edge 35, Type (0, 0), BuildingBlock: XIVTED_clean_linker_0, # of connection points: 2
# Relax obj value: 0.235
# Max RMSD: 0.177
# Mean RMSD: 0.177
data_MOF--net-unf--node1-NAHDIM_clean_sbu_0--edge1-XIVTED_clean_linker_0
_symmetry_space_group_name_H-M    P1
_symmetry_Int_Tables_number       1
_symmetry_cell_setting            triclinic
loop_
_symmetry_equiv_pos_as_xyz
'x, y, z'
_cell_length_a     37.624717
_cell_length_b     37.504531
_cell_length_c     37.932399
_cell_angle_alpha  89.93044
_cell_angle_beta   89.9586
_cell_angle_gamma 120.03538
loop_
_atom_site_label
_atom_site_type_symbol
_atom_site_fract_x
_atom_site_fract_y
_atom_site_fract_z
_atom_type_partial_charge
C0 C 0.10118 0.38875 0.15998 0.0
O1 O 0.11836 0.41317 0.13278 0.0
O2 O 0.01974 0.39149 0.09818 0.0
Zn3 Zn 0.03347 0.3481 0.11222 0.0
O4 O 0.06849 0.34504 0.07372 0.0
C5 C 0.94653 0.29028 0.11636 0.0
O6 O 0.94416 0.3237 0.12123 0.0
O7 O 0.06413 0.3598 0.15775 0.0
C8 C 0.05395 0.31841 0.04924 0.0
O9 O 0.01474 0.29057 0.04928 0.0
C10 C 0.04271 0.41994 0.07682 0.0
O11 O 0.07776 0.42333 0.06701 0.0
O12 O 0.98162 0.29331 0.11429 0.0
C13 C 0.62655 0.75591 0.1196 0.0
O14 O 0.65467 0.77752 0.09585 0.0
O15 O 0.58074 0.63468 0.06733 0.0
Zn16 Zn 0.624 0.69257 0.07818 0.0
O17 O 0.63159 0.72586 0.03436 0.0
C18 C 0.67821 0.662 0.0972 0.0
O19 O 0.64367 0.6274 0.10263 0.0
O20 O 0.60811 0.71684 0.11805 0.0
C21 C 0.66327 0.74052 0.0148 0.0
O22 O 0.69375 0.73454 0.02314 0.0
C23 C 0.55153 0.62797 0.04663 0.0
O24 O 0.54794 0.65917 0.03541 0.0
O25 O 0.67697 0.6941 0.08859 0.0
C26 C 0.2807 0.88139 0.15188 0.0
O27 O 0.29397 0.86504 0.12841 0.0
O28 O 0.37075 0.95295 0.09517 0.0
Zn29 Zn 0.3154 0.94749 0.10276 0.0
O30 O 0.27868 0.91487 0.06273 0.0
C31 C 0.3497 0.03084 0.08155 0.0
O32 O 0.3758 0.02202 0.0665 0.0
O33 O 0.28818 0.91809 0.14745 0.0
C34 C 0.25097 0.92172 0.05123 0.0
O35 O 0.2461 0.9507 0.06591 0.0
C36 C 0.37522 0.92932 0.07391 0.0
O37 O 0.3425 0.89723 0.06094 0.0
O38 O 0.32118 0.00379 0.10067 0.0
C39 C 0.59731 0.8942 0.3321 0.0
O40 O 0.57484 0.87214 0.35886 0.0
O41 O 0.59632 0.96469 0.407 0.0
Zn42 Zn 0.63786 0.95157 0.38712 0.0
O43 O 0.6378 0.9077 0.41711 0.0
C44 C 0.6967 0.03737 0.38586 0.0
O45 O 0.66432 0.03964 0.37636 0.0
O46 O 0.62572 0.93102 0.33748 0.0
C47 C 0.65215 0.9144 0.44822 0.0
O48 O 0.66929 0.95186 0.46116 0.0
C49 C 0.56698 0.93936 0.42649 0.0
O50 O 0.56126 0.90214 0.43117 0.0
O51 O 0.69317 0.00221 0.39053 0.0
C52 C 0.07662 0.70653 0.33616 0.0
O53 O 0.0795 0.67662 0.3514 0.0
O54 O 0.01145 0.6389 0.40673 0.0
Zn55 Zn 0.02134 0.69518 0.39406 0.0
O56 O 0.05425 0.73465 0.43237 0.0
C57 C 0.93345 0.6607 0.39295 0.0
O58 O 0.933 0.62577 0.38832 0.0
O59 O 0.05235 0.71754 0.34885 0.0
C60 C 0.049 0.72576 0.46501 0.0
O61 O 0.02119 0.68858 0.47515 0.0
C62 C 0.03727 0.63301 0.42354 0.0
O63 O 0.07384 0.66448 0.43026 0.0
O64 O 0.96764 0.69412 0.39362 0.0
C65 C 0.27812 0.38054 0.35273 0.0
O66 O 0.30844 0.41355 0.36722 0.0
O67 O 0.3461 0.3787 0.42299 0.0
Zn68 Zn 0.28924 0.33448 0.40994 0.0
O69 O 0.25257 0.33113 0.44972 0.0
C70 C 0.32141 0.27997 0.40076 0.0
O71 O 0.35536 0.31449 0.39356 0.0
O72 O 0.2672 0.3453 0.36574 0.0
C73 C 0.23374 0.30099 0.47078 0.0
O74 O 0.23624 0.26756 0.46653 0.0
C75 C 0.35104 0.40743 0.44369 0.0
O76 O 0.3192 0.41119 0.45213 0.0
O77 O 0.28866 0.28088 0.40683 0.0
C78 C 0.8776 0.60536 0.86221 0.0
O79 O 0.86473 0.57437 0.88436 0.0
O80 O 0.95231 0.60338 0.92766 0.0
Zn81 Zn 0.93865 0.6474 0.91568 0.0
O82 O 0.90128 0.647 0.9536 0.0
C83 C 0.0253 0.70564 0.91119 0.0
O84 O 0.0273 0.67306 0.90152 0.0
O85 O 0.90993 0.63907 0.86936 0.0
C86 C 0.91355 0.67107 0.97997 0.0
O87 O 0.95254 0.69909 0.98275 0.0
C88 C 0.92886 0.57367 0.94778 0.0
O89 O 0.89347 0.56955 0.95748 0.0
O90 O -0.00957 0.70216 0.91683 0.0
C91 C 0.36497 0.27352 0.83938 0.0
O92 O 0.39479 0.29052 0.86256 0.0
O93 O 0.36505 0.34728 0.90595 0.0
Zn94 Zn 0.32296 0.28896 0.89379 0.0
O95 O 0.32842 0.25173 0.92837 0.0
C96 C 0.26264 0.31367 0.89383 0.0
O97 O 0.29377 0.34797 0.88178 0.0
O98 O 0.33102 0.27177 0.84598 0.0
C99 C 0.31151 0.24218 0.95854 0.0
O100 O 0.28703 0.25587 0.96839 0.0
C101 C 0.39507 0.35513 0.92608 0.0
O102 O 0.40095 0.32498 0.93624 0.0
O103 O 0.26719 0.28274 0.89912 0.0
C104 C 0.72987 0.1212 0.85429 0.0
O105 O 0.73807 0.13897 0.88537 0.0
O106 O 0.64266 0.02846 0.9146 0.0
Zn107 Zn 0.69997 0.04912 0.89711 0.0
O108 O 0.73732 0.08453 0.93561 0.0
C109 C 0.67881 0.96711 0.87852 0.0
O110 O 0.64548 0.96623 0.86692 0.0
O111 O 0.71217 0.08216 0.85248 0.0
C112 C 0.74648 0.07058 0.96251 0.0
O113 O 0.73349 0.03099 0.96495 0.0
C114 C 0.63579 0.05093 0.93531 0.0
O115 O 0.66528 0.08875 0.94158 0.0
O116 O 0.70779 0.00056 0.89079 0.0
C117 C 0.37851 0.09138 0.65412 0.0
O118 O 0.41068 0.10409 0.63351 0.0
O119 O 0.3798 0.01264 0.58991 0.0
Zn120 Zn 0.33786 0.02945 0.60037 0.0
O121 O 0.34166 0.06783 0.56179 0.0
C122 C 0.2713 0.9439 0.60657 0.0
O123 O 0.29869 0.93662 0.62118 0.0
O124 O 0.34535 0.05884 0.64619 0.0
C125 C 0.32112 0.05501 0.53345 0.0
O126 O 0.29569 0.01543 0.52916 0.0
C127 C 0.41159 0.03761 0.57257 0.0
O128 O 0.41795 0.07471 0.5658 0.0
O129 O 0.28147 0.98041 0.59765 0.0
C130 C 0.86784 0.2682 0.63366 0.0
O131 O 0.85001 0.25853 0.60264 0.0
O132 O 0.95956 0.36237 0.57567 0.0
Zn133 Zn 0.94038 0.30437 0.59091 0.0
O134 O 0.90615 0.26774 0.55137 0.0
C135 C 0.02445 0.32611 0.60374 0.0
O136 O 0.02915 0.36252 0.61074 0.0
O137 O 0.90679 0.28912 0.63538 0.0
C138 C 0.91965 0.25365 0.52769 0.0
O139 O 0.95797 0.26206 0.52881 0.0
C140 C 0.93538 0.36946 0.55757 0.0
O141 O 0.89762 0.33947 0.55221 0.0
O142 O -0.01111 0.29648 0.59662 0.0
C143 C 0.69681 0.59899 0.66563 0.0
O144 O 0.67556 0.56502 0.64738 0.0
O145 O 0.61422 0.58113 0.6044 0.0
Zn146 Zn 0.67014 0.63123 0.61006 0.0
O147 O 0.70529 0.63182 0.56991 0.0
C148 C 0.64112 0.6775 0.57745 0.0
O149 O 0.62407 0.64298 0.55944 0.0
O150 O 0.69772 0.63175 0.65548 0.0
C151 C 0.7301 0.66459 0.5536 0.0
O152 O 0.73462 0.70001 0.56404 0.0
C153 C 0.60948 0.55184 0.58448 0.0
O154 O 0.64206 0.55117 0.57292 0.0
O155 O 0.66352 0.68091 0.60377 0.0
H156 H 0.12871 0.38214 0.02988 0.0
H157 H 0.18951 0.24712 0.91385 0.0
H158 H 0.04096 0.25577 0.00458 0.0
H159 H 0.25258 0.37978 0.90633 0.0
H160 H 0.13422 0.24866 0.94654 0.0
H161 H 0.17501 0.38146 0.98509 0.0
C162 C 0.11916 0.35427 0.0148 0.0
C163 C 0.08116 0.31882 0.02111 0.0
C164 C 0.15984 0.27734 0.93719 0.0
C165 C 0.13398 0.3178 0.97 0.0
C166 C 0.1914 0.27651 0.91857 0.0
C167 C 0.2259 0.31342 0.90774 0.0
C168 C 0.16327 0.31539 0.94553 0.0
C169 C 0.22667 0.3506 0.91436 0.0
C170 C 0.14545 0.35401 0.98908 0.0
C171 C 0.07009 0.28371 0.00057 0.0
N172 N 0.19616 0.35069 0.93339 0.0
N173 N 0.09667 0.28388 0.9762 0.0
H174 H 0.73299 0.79593 0.97971 0.0
H175 H 0.61447 0.88822 0.87309 0.0
H176 H 0.60166 0.74537 0.98142 0.0
H177 H 0.74336 0.95773 0.89911 0.0
H178 H 0.61179 0.82634 0.89683 0.0
H179 H 0.73871 0.84595 0.93519 0.0
C180 C 0.70533 0.79491 0.97031 0.0
C181 C 0.66687 0.76704 0.98471 0.0
C182 C 0.64081 0.85502 0.89672 0.0
C183 C 0.67319 0.82372 0.93381 0.0
C184 C 0.64243 0.89032 0.88303 0.0
C185 C 0.67899 0.92836 0.88488 0.0
C186 C 0.67601 0.85782 0.91217 0.0
C187 C 0.71434 0.92915 0.89778 0.0
C188 C 0.70863 0.82345 0.94497 0.0
C189 C 0.63199 0.76687 0.97146 0.0
N190 N 0.71185 0.89448 0.91144 0.0
N191 N 0.63602 0.79505 0.94697 0.0
H192 H 0.25348 0.86036 0.01432 0.0
H193 H 0.03221 0.77899 0.93082 0.0
H194 H 0.18428 0.9233 0.02434 0.0
H195 H 0.10366 0.71901 0.9163 0.0
H196 H 0.09154 0.83714 0.95807 0.0
H197 H 0.20292 0.81318 0.97212 0.0
C198 C 0.22782 0.86447 0.00744 0.0
C199 C 0.22276 0.89545 0.02328 0.0
C200 C 0.09446 0.81153 0.94851 0.0
C201 C 0.16473 0.84147 0.97502 0.0
C202 C 0.06058 0.7783 0.93288 0.0
C203 C 0.06279 0.74379 0.92177 0.0
C204 C 0.13071 0.81008 0.95337 0.0
C205 C 0.10045 0.7448 0.9248 0.0
C206 C 0.199 0.83755 0.98327 0.0
C207 C 0.18917 0.89959 0.01307 0.0
N208 N 0.13278 0.77715 0.9408 0.0
N209 N 0.16119 0.8726 0.98988 0.0
H210 H 0.68513 0.75867 0.59811 0.0
H211 H 0.60662 0.83259 0.43343 0.0
H212 H 0.59086 0.67693 0.52584 0.0
H213 H 0.68758 0.91717 0.51227 0.0
H214 H 0.60004 0.77537 0.46852 0.0
H215 H 0.68526 0.81739 0.56934 0.0
C216 C 0.6641 0.75304 0.57656 0.0
C217 C 0.63826 0.71293 0.56408 0.0
C218 C 0.61915 0.80638 0.47833 0.0
C219 C 0.63854 0.77965 0.531 0.0
C220 C 0.62309 0.83915 0.45817 0.0
C221 C 0.64793 0.87975 0.46983 0.0
C222 C 0.64047 0.8141 0.51034 0.0
C223 C 0.66821 0.8863 0.50228 0.0
C224 C 0.66428 0.78652 0.5601 0.0
C225 C 0.61165 0.70734 0.53609 0.0
N226 N 0.66427 0.85376 0.52135 0.0
N227 N 0.61275 0.74031 0.52035 0.0
H228 H 0.08559 0.80877 0.4584 0.0
H229 H 0.24025 0.86052 0.61464 0.0
H230 H 0.07224 0.7136 0.53033 0.0
H231 H 0.21142 0.94937 0.57076 0.0
H232 H 0.17946 0.80544 0.58527 0.0
H233 H 0.13329 0.8607 0.49937 0.0
C234 C 0.09259 0.79887 0.48298 0.0
C235 C 0.07526 0.75696 0.49099 0.0
C236 C 0.18618 0.83698 0.58268 0.0
C237 C 0.13012 0.81612 0.53782 0.0
C238 C 0.22084 0.8684 0.59938 0.0
C239 C 0.23135 0.90967 0.59464 0.0
C240 C 0.16244 0.84715 0.56083 0.0
C241 C 0.20492 0.91809 0.57476 0.0
C242 C 0.1196 0.82849 0.50646 0.0
C243 C 0.08504 0.74571 0.52329 0.0
N244 N 0.17212 0.88719 0.55812 0.0
N245 N 0.11245 0.7752 0.5454 0.0
H246 H 0.10525 0.38657 0.60044 0.0
H247 H 0.17333 0.23795 0.50956 0.0
H248 H 0.02575 0.25511 0.59026 0.0
H249 H 0.23629 0.37002 0.49647 0.0
H250 H 0.12708 0.24313 0.55216 0.0
H251 H 0.1618 0.37975 0.57641 0.0
C252 C 0.09986 0.35616 0.59384 0.0
C253 C 0.06052 0.32146 0.59666 0.0
C254 C 0.15135 0.27096 0.54022 0.0
C255 C 0.12494 0.31355 0.56893 0.0
C256 C 0.17773 0.26804 0.51596 0.0
C257 C 0.20816 0.30353 0.49903 0.0
C258 C 0.15583 0.30967 0.54775 0.0
C259 C 0.21273 0.34178 0.50844 0.0
C260 C 0.13211 0.35233 0.57996 0.0
C261 C 0.05544 0.28278 0.58796 0.0
N262 N 0.18665 0.3438 0.53199 0.0
N263 N 0.08716 0.27993 0.57401 0.0
H264 H 0.6891 0.59531 0.09257 0.0
H265 H 0.92121 0.73012 0.02672 0.0
H266 H 0.75586 0.7283 0.09199 0.0
H267 H 0.83782 0.60543 0.99351 0.0
H268 H 0.86775 0.72653 0.06611 0.0
H269 H 0.7512 0.59584 0.07278 0.0
C270 C 0.71703 0.62462 0.08909 0.0
C271 C 0.71714 0.66184 0.09323 0.0
C272 C 0.86148 0.69984 0.0505 0.0
C273 C 0.78801 0.66256 0.07053 0.0
C274 C 0.89188 0.70184 0.02809 0.0
C275 C 0.88358 0.66826 0.00644 0.0
C276 C 0.82288 0.66382 0.05153 0.0
C277 C 0.8452 0.63227 0.00932 0.0
C278 C 0.75236 0.62487 0.07762 0.0
C279 C 0.75429 0.69889 0.08853 0.0
N280 N 0.81617 0.63108 0.0313 0.0
N281 N 0.78817 0.69834 0.07697 0.0
H282 H 0.27038 0.20168 0.01878 0.0
H283 H 0.40745 0.09532 0.0431 0.0
H284 H 0.37256 0.22377 0.95217 0.0
H285 H 0.29164 0.05264 0.0965 0.0
H286 H 0.40184 0.15223 0.01837 0.0
H287 H 0.28387 0.15567 0.05531 0.0
C288 C 0.29578 0.19709 0.012 0.0
C289 C 0.32007 0.21612 0.98217 0.0
C290 C 0.37781 0.13066 0.03576 0.0
C291 C 0.33581 0.16411 0.02381 0.0
C292 C 0.38105 0.0982 0.04999 0.0
C293 C 0.34965 0.06883 0.07145 0.0
C294 C 0.34283 0.13376 0.04289 0.0
C295 C 0.3164 0.07443 0.07981 0.0
C296 C 0.30343 0.17087 0.03282 0.0
C297 C 0.35268 0.20929 0.97464 0.0
N298 N 0.31358 0.10602 0.06514 0.0
N299 N 0.35948 0.18377 0.99524 0.0
H300 H 0.93924 0.21444 0.10754 0.0
H301 H 0.75489 0.14548 0.97656 0.0
H302 H 0.8711 0.27852 0.09822 0.0
H303 H 0.79153 0.05994 0.01401 0.0
H304 H 0.79664 0.19384 0.02235 0.0
H305 H 0.88427 0.15587 0.07622 0.0
C306 C 0.91234 0.21587 0.09955 0.0
C307 C 0.91005 0.2517 0.10495 0.0
C308 C 0.79526 0.16434 0.02086 0.0
C309 C 0.84757 0.18519 0.06867 0.0
C310 C 0.77172 0.13686 0.99452 0.0
C311 C 0.77024 0.09891 0.99126 0.0
C312 C 0.81816 0.15419 0.04373 0.0
C313 C 0.79211 0.08904 0.01555 0.0
C314 C 0.88101 0.18242 0.08167 0.0
C315 C 0.87437 0.25172 0.09431 0.0
N316 N 0.81575 0.11685 0.04051 0.0
N317 N 0.84488 0.2193 0.07605 0.0
H318 H 0.38441 0.13322 0.52357 0.0
H319 H 0.25687 0.20142 0.40757 0.0
H320 H 0.26579 0.04454 0.48202 0.0
H321 H 0.38909 0.27293 0.41349 0.0
H322 H 0.2592 0.1425 0.43253 0.0
H323 H 0.38709 0.18446 0.48222 0.0
C324 C 0.35905 0.12449 0.50553 0.0
C325 C 0.3246 0.08482 0.50643 0.0
C326 C 0.28773 0.17084 0.4277 0.0
C327 C 0.32732 0.14326 0.45931 0.0
C328 C 0.28643 0.20448 0.41352 0.0
C329 C 0.32281 0.24226 0.40895 0.0
C330 C 0.3256 0.17536 0.43799 0.0
C331 C 0.36028 0.24446 0.41683 0.0
C332 C 0.36073 0.15363 0.48178 0.0
C333 C 0.29282 0.07491 0.48224 0.0
N334 N 0.36066 0.21169 0.43165 0.0
N335 N 0.29461 0.10421 0.46001 0.0
H336 H 0.9293 0.2008 0.4842 0.0
H337 H 0.70851 0.11477 0.39576 0.0
H338 H 0.84655 0.24595 0.5078 0.0
H339 H 0.77109 0.04487 0.40175 0.0
H340 H 0.76757 0.1728 0.42375 0.0
H341 H 0.87936 0.15274 0.44157 0.0
C342 C 0.90086 0.20091 0.48013 0.0
C343 C 0.89173 0.22693 0.49986 0.0
C344 C 0.76853 0.14491 0.4185 0.0
C345 C 0.83499 0.17261 0.45112 0.0
C346 C 0.73494 0.11185 0.40238 0.0
C347 C 0.73464 0.07471 0.39696 0.0
C348 C 0.8021 0.14087 0.42901 0.0
C349 C 0.76984 0.07277 0.40592 0.0
C350 C 0.87243 0.1735 0.45589 0.0
C351 C 0.85453 0.22597 0.4935 0.0
N352 N 0.80206 0.10529 0.42183 0.0
N353 N 0.82745 0.19911 0.46976 0.0
H354 H 0.92328 0.72709 0.40407 0.0
H355 H 0.72563 0.59621 0.5235 0.0
H356 H 0.85926 0.59437 0.41119 0.0
H357 H 0.78862 0.72879 0.51479 0.0
H358 H 0.76831 0.59419 0.47597 0.0
H359 H 0.86768 0.72745 0.43683 0.0
C360 C 0.89716 0.69795 0.41197 0.0
C361 C 0.89628 0.66068 0.40548 0.0
C362 C 0.77258 0.62371 0.48423 0.0
C363 C 0.83284 0.66093 0.44347 0.0
C364 C 0.74832 0.62491 0.51148 0.0
C365 C 0.75403 0.6628 0.5235 0.0
C366 C 0.80292 0.66068 0.469 0.0
C367 C 0.78351 0.69893 0.50665 0.0
C368 C 0.86547 0.69819 0.4308 0.0
C369 C 0.86146 0.62386 0.41597 0.0
N370 N 0.80713 0.697 0.48048 0.0
N371 N 0.83142 0.62495 0.43498 0.0
H372 H 0.29545 0.44873 0.31289 0.0
H373 H 0.07821 0.33553 0.21568 0.0
H374 H 0.20466 0.32046 0.32733 0.0
H375 H 0.18101 0.44702 0.17463 0.0
H376 H 0.12168 0.33545 0.26319 0.0
H377 H 0.25184 0.45363 0.2672 0.0
C378 C 0.26649 0.42163 0.3064 0.0
C379 C 0.25373 0.38412 0.32388 0.0
C380 C 0.13471 0.36004 0.24386 0.0
C381 C 0.20369 0.38971 0.27233 0.0
C382 C 0.10983 0.36026 0.21682 0.0
C383 C 0.12609 0.39116 0.19094 0.0
C384 C 0.17611 0.39108 0.24527 0.0
C385 C 0.16731 0.42245 0.19391 0.0
C386 C 0.24168 0.42448 0.2804 0.0
C387 C 0.21589 0.34998 0.31448 0.0
N388 N 0.19102 0.42157 0.22056 0.0
N389 N 0.19217 0.35368 0.28952 0.0
H390 H 0.66025 0.83871 0.12966 0.0
H391 H 0.54665 0.81357 0.31379 0.0
H392 H 0.57198 0.72116 0.17429 0.0
H393 H 0.64095 0.93002 0.27191 0.0
H394 H 0.54879 0.77998 0.25936 0.0
H395 H 0.64739 0.87319 0.1783 0.0
C396 C 0.63803 0.82011 0.14963 0.0
C397 C 0.61745 0.77696 0.14809 0.0
C398 C 0.56873 0.81294 0.26195 0.0
C399 C 0.60255 0.81631 0.20391 0.0
C400 C 0.56743 0.83219 0.29299 0.0
C401 C 0.59403 0.8746 0.29759 0.0
C402 C 0.59684 0.83629 0.23536 0.0
C403 C 0.62017 0.89718 0.26966 0.0
C404 C 0.63066 0.83985 0.17739 0.0
C405 C 0.58876 0.7545 0.17457 0.0
N406 N 0.62117 0.87767 0.23987 0.0
N407 N 0.58235 0.77445 0.20153 0.0
H408 H 0.2619 0.80361 0.17173 0.0
H409 H 0.08649 0.77699 0.30571 0.0
H410 H 0.23612 0.90066 0.19696 0.0
H411 H 0.13168 0.69152 0.30125 0.0
H412 H 0.13723 0.81969 0.26161 0.0
H413 H 0.21151 0.75977 0.21604 0.0
C414 C 0.24587 0.8158 0.18674 0.0
C415 C 0.25317 0.85583 0.1806 0.0
C416 C 0.13604 0.79157 0.27024 0.0
C417 C 0.19521 0.80572 0.23088 0.0
C418 C 0.10687 0.767 0.29527 0.0
C419 C 0.1049 0.73064 0.30728 0.0
C420 C 0.16331 0.77964 0.25687 0.0
C421 C 0.13219 0.71935 0.2928 0.0
C422 C 0.2171 0.79075 0.21197 0.0
C423 C 0.23153 0.87004 0.20082 0.0
N424 N 0.16032 0.7438 0.26832 0.0
N425 N 0.20334 0.8449 0.22487 0.0
H426 H 0.8099 0.53715 0.83597 0.0
H427 H 0.75513 0.66637 0.70128 0.0
H428 H 0.88693 0.66801 0.81912 0.0
H429 H 0.69695 0.53377 0.69794 0.0
H430 H 0.79994 0.66743 0.74831 0.0
H431 H 0.76513 0.53504 0.78826 0.0
C432 C 0.81756 0.56537 0.8221 0.0
C433 C 0.85218 0.60282 0.83158 0.0
C434 C 0.77736 0.6381 0.73729 0.0
C435 C 0.80085 0.60069 0.77738 0.0
C436 C 0.75158 0.63744 0.71059 0.0
C437 C 0.72228 0.59991 0.69562 0.0
C438 C 0.7736 0.60094 0.74935 0.0
C439 C 0.71919 0.56341 0.70867 0.0
C440 C 0.79198 0.56414 0.79491 0.0
C441 C 0.86062 0.63844 0.81269 0.0
N442 N 0.74451 0.56482 0.73483 0.0
N443 N 0.83497 0.63653 0.78667 0.0
H444 H 0.30405 0.22131 0.79478 0.0
H445 H 0.44448 0.15977 0.68239 0.0
H446 H 0.43348 0.27301 0.81556 0.0
H447 H 0.3127 0.08395 0.69082 0.0
H448 H 0.44256 0.20683 0.72616 0.0
H449 H 0.30844 0.17727 0.74978 0.0
C450 C 0.33352 0.22378 0.78961 0.0
C451 C 0.36842 0.2507 0.80913 0.0
C452 C 0.41418 0.17974 0.71849 0.0
C453 C 0.37352 0.20012 0.75782 0.0
C454 C 0.41522 0.15285 0.69362 0.0
C455 C 0.3787 0.11789 0.68295 0.0
C456 C 0.37628 0.17185 0.7323 0.0
C457 C 0.34164 0.11044 0.69832 0.0
C458 C 0.33591 0.19837 0.76411 0.0
C459 C 0.40577 0.25251 0.80126 0.0
N460 N 0.34137 0.13737 0.722 0.0
N461 N 0.40735 0.22745 0.77621 0.0
H462 H 0.78609 0.20326 0.8493 0.0
H463 H 0.78803 0.20629 0.6388 0.0
H464 H 0.70873 0.09658 0.78587 0.0
H465 H 0.89162 0.29061 0.70206 0.0
H466 H 0.75004 0.17333 0.69276 0.0
H467 H 0.81624 0.24292 0.79539 0.0
C468 C 0.77506 0.1883 0.82404 0.0
C469 C 0.74513 0.14644 0.82202 0.0
C470 C 0.78096 0.19927 0.69475 0.0
C471 C 0.77936 0.19169 0.76045 0.0
C472 C 0.80262 0.21823 0.66404 0.0
C473 C 0.8432 0.251 0.66599 0.0
C474 C 0.79985 0.21355 0.72761 0.0
C475 C 0.86054 0.26517 0.69938 0.0
C476 C 0.79243 0.21093 0.79335 0.0
C477 C 0.73202 0.12867 0.7886 0.0
N478 N 0.83878 0.24626 0.72893 0.0
N479 N 0.74932 0.15139 0.75908 0.0
H480 H 0.08234 0.48112 0.02795 0.0
H481 H 0.88848 0.51045 0.9947 0.0
H482 H 0.96802 0.41494 0.08513 0.0
H483 H 0.00375 0.57909 0.9393 0.0
H484 H 0.91647 0.47362 0.02677 0.0
H485 H 0.05409 0.51724 0.99508 0.0
C486 C 0.05142 0.47442 0.03382 0.0
C487 C 0.0275 0.44492 0.05932 0.0
C488 C 0.9356 0.49661 0.00749 0.0
C489 C -0.00519 0.48583 0.02148 0.0
C490 C 0.91956 0.51753 0.98902 0.0
C491 C 0.94385 0.54801 0.96435 0.0
C492 C 0.97626 0.50625 0.0013 0.0
C493 C 0.98392 0.55585 0.95811 0.0
C494 C 0.03524 0.49493 0.01491 0.0
C495 C -0.0124 0.43746 0.06575 0.0
N496 N -0.00107 0.53523 0.97659 0.0
N497 N 0.97246 0.45767 0.04685 0.0
H498 H 0.55489 0.55812 0.06045 0.0
H499 H 0.38787 0.42336 0.91448 0.0
H500 H 0.49039 0.60372 0.99757 0.0
H501 H 0.45739 0.3808 0.97392 0.0
H502 H 0.42444 0.48942 0.94495 0.0
H503 H 0.51733 0.49198 0.03046 0.0
C504 C 0.53255 0.55412 0.04055 0.0
C505 C 0.52587 0.58657 0.03141 0.0
C506 C 0.4318 0.46568 0.95122 0.0
C507 C 0.48307 0.511 0.9967 0.0
C508 C 0.41107 0.42801 0.93371 0.0
C509 C 0.41956 0.39648 0.9417 0.0
C510 C 0.46115 0.47182 0.97694 0.0
C511 C 0.44983 0.40421 0.96692 0.0
C512 C 0.51126 0.51638 0.0233 0.0
C513 C 0.49657 0.57959 0.00542 0.0
N514 N 0.46941 0.44105 0.98373 0.0
N515 N 0.47635 0.54259 0.98886 0.0
H516 H 0.39567 0.88964 0.0243 0.0
H517 H 0.61472 0.08783 0.98683 0.0
H518 H 0.44716 0.00087 0.08645 0.0
H519 H 0.56947 0.97288 0.93098 0.0
H520 H 0.55325 0.05611 0.02357 0.0
H521 H 0.45986 0.91836 0.99112 0.0
C522 C 0.42066 0.91984 0.03134 0.0
C523 C 0.41588 0.94302 0.058 0.0
C524 C 0.55673 0.0378 0.00328 0.0
C525 C 0.48914 0.97632 0.01976 0.0
C526 C 0.59172 0.05599 0.98211 0.0
C527 C 0.59722 0.033 0.95573 0.0
C528 C 0.52689 -0.00366 0.99799 0.0
C529 C 0.56646 0.99179 0.95096 0.0
C530 C 0.45724 0.93631 0.01225 0.0
C531 C 0.44936 0.98195 0.06601 0.0
N532 N 0.53259 0.97477 0.9719 0.0
N533 N 0.4844 -0.00247 0.04672 0.0
H534 H 0.57531 0.01606 0.42712 0.0
H535 H 0.40189 0.96003 0.57345 0.0
H536 H 0.5048 0.89504 0.4735 0.0
H537 H 0.47916 0.08226 0.53134 0.0
H538 H 0.43971 0.93549 0.53808 0.0
H539 H 0.53944 0.04032 0.4649 0.0
C540 C 0.55206 -0.00553 0.44508 0.0
C541 C 0.54304 0.95343 0.44714 0.0
C542 C 0.44853 0.96773 0.5368 0.0
C543 C 0.50207 0.98117 0.49079 0.0
C544 C 0.4271 0.9818 0.55712 0.0
C545 C 0.43724 0.02322 0.5552 0.0
C546 C 0.48019 -0.00474 0.51438 0.0
C547 C 0.47013 0.05003 0.53354 0.0
C548 C 0.53173 0.00843 0.46681 0.0
C549 C 0.5127 0.92693 0.47101 0.0
N550 N 0.49023 0.03552 0.51382 0.0
N551 N 0.49332 0.94128 0.49196 0.0
H552 H 0.0128 0.43689 0.56003 0.0
H553 H 0.96277 0.56274 0.4172 0.0
H554 H 0.89356 0.39247 0.51279 0.0
H555 H 0.08058 0.61137 0.46825 0.0
H556 H 0.93819 0.49871 0.44996 0.0
H557 H 0.03896 0.50037 0.52574 0.0
C558 C -0.00796 0.44059 0.54265 0.0
C559 C 0.9509 0.40931 0.53927 0.0
C560 C 0.96949 0.52328 0.4539 0.0
C561 C 0.98077 0.48165 0.49971 0.0
C562 C 0.98364 0.55983 0.43506 0.0
C563 C 0.02378 0.59256 0.4401 0.0
C564 C -0.00439 0.51935 0.47802 0.0
C565 C 0.0494 0.58696 0.46357 0.0
C566 C 0.00705 0.47677 0.52297 0.0
C567 C 0.92546 0.41574 0.51627 0.0
N568 N 0.0348 0.5511 0.48182 0.0
N569 N 0.94085 0.45113 0.4973 0.0
H570 H 0.37012 0.46631 0.49417 0.0
H571 H 0.58932 0.49023 0.53649 0.0
H572 H 0.42044 0.40147 0.43801 0.0
H573 H 0.53829 0.55388 0.5935 0.0
H574 H 0.52644 0.45521 0.50177 0.0
H575 H 0.43156 0.49868 0.53088 0.0
C576 C 0.39426 0.45919 0.4893 0.0
C577 C 0.39008 0.43108 0.463 0.0
C578 C 0.52887 0.47659 0.52206 0.0
C579 C 0.46025 0.46759 0.50528 0.0
C580 C 0.56467 0.49641 0.54209 0.0
C581 C 0.56921 0.52524 0.56781 0.0
C582 C 0.49742 0.48577 0.52773 0.0
C583 C 0.53621 0.53197 0.57389 0.0
C584 C 0.42923 0.47748 0.51044 0.0
C585 C 0.42234 0.42297 0.45796 0.0
N586 N 0.50185 0.51264 0.55378 0.0
N587 N 0.45599 0.44102 0.47901 0.0
loop_
_geom_bond_atom_site_label_1
_geom_bond_atom_site_label_2
_geom_bond_distance
_geom_bond_site_symmetry_2
_ccdc_geom_bond_type
C0 O1 1.160 . S
C0 O7 1.185 . S
O1 C0 1.160 . S
O2 Zn3 1.899 . S
O2 C10 1.284 . S
Zn3 O2 1.899 . S
Zn3 O4 2.032 . S
Zn3 O7 2.086 . S
Zn3 O12 1.977 1_455 S
O4 Zn3 2.032 . S
O4 C8 1.278 . S
C5 O6 1.203 . S
C5 O12 1.267 . S
O6 C5 1.203 . S
O7 C0 1.185 . S
O7 Zn3 2.086 . S
C8 O4 1.278 . S
C8 O9 1.211 . S
O9 C8 1.211 . S
C10 O2 1.284 . S
C10 O11 1.273 . S
O11 C10 1.273 . S
O12 Zn3 1.977 1_655 S
O12 C5 1.267 . S
C13 O14 1.160 . S
C13 O20 1.185 . S
O14 C13 1.160 . S
O15 Zn16 1.899 . S
O15 C23 1.284 . S
Zn16 O15 1.899 . S
Zn16 O17 2.032 . S
Zn16 O20 2.086 . S
Zn16 O25 1.977 . S
O17 Zn16 2.032 . S
O17 C21 1.278 . S
C18 O19 1.203 . S
C18 O25 1.267 . S
O19 C18 1.203 . S
O20 C13 1.185 . S
O20 Zn16 2.086 . S
C21 O17 1.278 . S
C21 O22 1.211 . S
O22 C21 1.211 . S
C23 O15 1.284 . S
C23 O24 1.273 . S
O24 C23 1.273 . S
O25 Zn16 1.977 . S
O25 C18 1.267 . S
C26 O27 1.160 . S
C26 O33 1.185 . S
O27 C26 1.160 . S
O28 Zn29 1.899 . S
O28 C36 1.284 . S
Zn29 O28 1.899 . S
Zn29 O30 2.032 . S
Zn29 O33 2.086 . S
Zn29 O38 1.977 1_565 S
O30 Zn29 2.032 . S
O30 C34 1.278 . S
C31 O32 1.203 . S
C31 O38 1.267 . S
O32 C31 1.203 . S
O33 C26 1.185 . S
O33 Zn29 2.086 . S
C34 O30 1.278 . S
C34 O35 1.211 . S
O35 C34 1.211 . S
C36 O28 1.284 . S
C36 O37 1.273 . S
O37 C36 1.273 . S
O38 Zn29 1.977 1_545 S
O38 C31 1.267 . S
C39 O40 1.160 . S
C39 O46 1.185 . S
O40 C39 1.160 . S
O41 Zn42 1.899 . S
O41 C49 1.284 . S
Zn42 O41 1.899 . S
Zn42 O43 2.032 . S
Zn42 O46 2.086 . S
Zn42 O51 1.977 1_565 S
O43 Zn42 2.032 . S
O43 C47 1.278 . S
C44 O45 1.203 . S
C44 O51 1.267 . S
O45 C44 1.203 . S
O46 C39 1.185 . S
O46 Zn42 2.086 . S
C47 O43 1.278 . S
C47 O48 1.211 . S
O48 C47 1.211 . S
C49 O41 1.284 . S
C49 O50 1.273 . S
O50 C49 1.273 . S
O51 Zn42 1.977 1_545 S
O51 C44 1.267 . S
C52 O53 1.160 . S
C52 O59 1.185 . S
O53 C52 1.160 . S
O54 Zn55 1.899 . S
O54 C62 1.284 . S
Zn55 O54 1.899 . S
Zn55 O56 2.032 . S
Zn55 O59 2.086 . S
Zn55 O64 1.977 1_455 S
O56 Zn55 2.032 . S
O56 C60 1.278 . S
C57 O58 1.203 . S
C57 O64 1.267 . S
O58 C57 1.203 . S
O59 C52 1.185 . S
O59 Zn55 2.086 . S
C60 O56 1.278 . S
C60 O61 1.211 . S
O61 C60 1.211 . S
C62 O54 1.284 . S
C62 O63 1.273 . S
O63 C62 1.273 . S
O64 Zn55 1.977 1_655 S
O64 C57 1.267 . S
C65 O66 1.160 . S
C65 O72 1.185 . S
O66 C65 1.160 . S
O67 Zn68 1.899 . S
O67 C75 1.284 . S
Zn68 O67 1.899 . S
Zn68 O69 2.032 . S
Zn68 O72 2.086 . S
Zn68 O77 1.977 . S
O69 Zn68 2.032 . S
O69 C73 1.278 . S
C70 O71 1.203 . S
C70 O77 1.267 . S
O71 C70 1.203 . S
O72 C65 1.185 . S
O72 Zn68 2.086 . S
C73 O69 1.278 . S
C73 O74 1.211 . S
O74 C73 1.211 . S
C75 O67 1.284 . S
C75 O76 1.273 . S
O76 C75 1.273 . S
O77 Zn68 1.977 . S
O77 C70 1.267 . S
C78 O79 1.160 . S
C78 O85 1.185 . S
O79 C78 1.160 . S
O80 Zn81 1.899 . S
O80 C88 1.284 . S
Zn81 O80 1.899 . S
Zn81 O82 2.032 . S
Zn81 O85 2.086 . S
Zn81 O90 1.977 1_655 S
O82 Zn81 2.032 . S
O82 C86 1.278 . S
C83 O84 1.203 . S
C83 O90 1.267 . S
O84 C83 1.203 . S
O85 C78 1.185 . S
O85 Zn81 2.086 . S
C86 O82 1.278 . S
C86 O87 1.211 . S
O87 C86 1.211 . S
C88 O80 1.284 . S
C88 O89 1.273 . S
O89 C88 1.273 . S
O90 Zn81 1.977 1_455 S
O90 C83 1.267 . S
C91 O92 1.160 . S
C91 O98 1.185 . S
O92 C91 1.160 . S
O93 Zn94 1.899 . S
O93 C101 1.284 . S
Zn94 O93 1.899 . S
Zn94 O95 2.032 . S
Zn94 O98 2.086 . S
Zn94 O103 1.977 . S
O95 Zn94 2.032 . S
O95 C99 1.278 . S
C96 O97 1.203 . S
C96 O103 1.267 . S
O97 C96 1.203 . S
O98 C91 1.185 . S
O98 Zn94 2.086 . S
C99 O95 1.278 . S
C99 O100 1.211 . S
O100 C99 1.211 . S
C101 O93 1.284 . S
C101 O102 1.273 . S
O102 C101 1.273 . S
O103 Zn94 1.977 . S
O103 C96 1.267 . S
C104 O105 1.160 . S
C104 O111 1.185 . S
O105 C104 1.160 . S
O106 Zn107 1.899 . S
O106 C114 1.284 . S
Zn107 O106 1.899 . S
Zn107 O108 2.032 . S
Zn107 O111 2.086 . S
Zn107 O116 1.977 1_545 S
O108 Zn107 2.032 . S
O108 C112 1.278 . S
C109 O110 1.203 . S
C109 O116 1.267 . S
O110 C109 1.203 . S
O111 C104 1.185 . S
O111 Zn107 2.086 . S
C112 O108 1.278 . S
C112 O113 1.211 . S
O113 C112 1.211 . S
C114 O106 1.284 . S
C114 O115 1.273 . S
O115 C114 1.273 . S
O116 Zn107 1.977 1_565 S
O116 C109 1.267 . S
C117 O118 1.160 . S
C117 O124 1.185 . S
O118 C117 1.160 . S
O119 Zn120 1.899 . S
O119 C127 1.284 . S
Zn120 O119 1.899 . S
Zn120 O121 2.032 . S
Zn120 O124 2.086 . S
Zn120 O129 1.977 1_545 S
O121 Zn120 2.032 . S
O121 C125 1.278 . S
C122 O123 1.203 . S
C122 O129 1.267 . S
O123 C122 1.203 . S
O124 C117 1.185 . S
O124 Zn120 2.086 . S
C125 O121 1.278 . S
C125 O126 1.211 . S
O126 C125 1.211 . S
C127 O119 1.284 . S
C127 O128 1.273 . S
O128 C127 1.273 . S
O129 Zn120 1.977 1_565 S
O129 C122 1.267 . S
C130 O131 1.160 . S
C130 O137 1.185 . S
O131 C130 1.160 . S
O132 Zn133 1.899 . S
O132 C140 1.284 . S
Zn133 O132 1.899 . S
Zn133 O134 2.032 . S
Zn133 O137 2.086 . S
Zn133 O142 1.977 1_655 S
O134 Zn133 2.032 . S
O134 C138 1.278 . S
C135 O136 1.203 . S
C135 O142 1.267 . S
O136 C135 1.203 . S
O137 C130 1.185 . S
O137 Zn133 2.086 . S
C138 O134 1.278 . S
C138 O139 1.211 . S
O139 C138 1.211 . S
C140 O132 1.284 . S
C140 O141 1.273 . S
O141 C140 1.273 . S
O142 Zn133 1.977 1_455 S
O142 C135 1.267 . S
C143 O144 1.160 . S
C143 O150 1.185 . S
O144 C143 1.160 . S
O145 Zn146 1.899 . S
O145 C153 1.284 . S
Zn146 O145 1.899 . S
Zn146 O147 2.032 . S
Zn146 O150 2.086 . S
Zn146 O155 1.977 . S
O147 Zn146 2.032 . S
O147 C151 1.278 . S
C148 O149 1.203 . S
C148 O155 1.267 . S
O149 C148 1.203 . S
O150 C143 1.185 . S
O150 Zn146 2.086 . S
C151 O147 1.278 . S
C151 O152 1.211 . S
O152 C151 1.211 . S
C153 O145 1.284 . S
C153 O154 1.273 . S
O154 C153 1.273 . S
O155 Zn146 1.977 . S
O155 C148 1.267 . S
H156 C162 0.930 . S
H157 C166 0.930 . S
H158 C171 0.929 . S
H159 C169 0.929 . S
H160 C164 0.929 . S
H161 C170 0.929 . S
C162 H156 0.930 . S
C162 C163 1.367 . S
C162 C170 1.378 . S
C163 C162 1.367 . S
C163 C171 1.433 . S
C164 H160 0.929 . S
C164 C166 1.378 . S
C164 C168 1.350 . S
C165 C168 1.477 . S
C165 C170 1.336 1_556 S
C165 N173 1.429 . S
C166 H157 0.930 . S
C166 C164 1.378 . S
C166 C167 1.367 . S
C167 C166 1.367 . S
C167 C169 1.433 . S
C168 C164 1.350 . S
C168 C165 1.477 . S
C168 N172 1.427 . S
C169 H159 0.929 . S
C169 C167 1.433 . S
C169 N172 1.384 . S
C170 H161 0.929 . S
C170 C162 1.378 . S
C170 C165 1.336 1_554 S
C171 H158 0.929 . S
C171 C163 1.433 . S
C171 N173 1.384 1_554 S
N172 C168 1.427 . S
N172 C169 1.384 . S
N173 C165 1.429 . S
N173 C171 1.384 1_556 S
H174 C180 0.930 . S
H175 C184 0.930 . S
H176 C189 0.929 . S
H177 C187 0.929 . S
H178 C182 0.929 . S
H179 C188 0.929 . S
C180 H174 0.930 . S
C180 C181 1.367 . S
C180 C188 1.378 . S
C181 C180 1.367 . S
C181 C189 1.433 . S
C182 H178 0.929 . S
C182 C184 1.378 . S
C182 C186 1.350 . S
C183 C186 1.476 . S
C183 C188 1.335 1_556 S
C183 N191 1.430 . S
C184 H175 0.930 . S
C184 C182 1.378 . S
C184 C185 1.367 . S
C185 C184 1.367 . S
C185 C187 1.433 . S
C186 C182 1.350 . S
C186 C183 1.476 . S
C186 N190 1.427 . S
C187 H177 0.929 . S
C187 C185 1.433 . S
C187 N190 1.384 . S
C188 H179 0.929 . S
C188 C180 1.378 . S
C188 C183 1.335 1_554 S
C189 H176 0.929 . S
C189 C181 1.433 . S
C189 N191 1.384 1_554 S
N190 C186 1.427 . S
N190 C187 1.384 . S
N191 C183 1.430 . S
N191 C189 1.384 1_556 S
H192 C198 0.930 . S
H193 C202 0.930 . S
H194 C207 0.929 . S
H195 C205 0.929 . S
H196 C200 0.929 . S
H197 C206 0.923 1_556 S
C198 H192 0.930 . S
C198 C199 1.367 . S
C198 C206 1.384 . S
C199 C198 1.367 . S
C199 C207 1.433 . S
C200 H196 0.929 . S
C200 C202 1.378 . S
C200 C204 1.350 . S
C201 C204 1.463 . S
C201 C206 1.349 1_556 S
C201 N209 1.427 1_556 S
C202 H193 0.930 . S
C202 C200 1.378 . S
C202 C203 1.367 . S
C203 C202 1.367 . S
C203 C205 1.433 . S
C204 C200 1.350 . S
C204 C201 1.463 . S
C204 N208 1.427 . S
C205 H195 0.929 . S
C205 C203 1.433 . S
C205 N208 1.384 . S
C206 H197 0.923 1_554 S
C206 C198 1.384 . S
C206 C201 1.349 1_554 S
C207 H194 0.929 . S
C207 C199 1.433 . S
C207 N209 1.384 . S
N208 C204 1.427 . S
N208 C205 1.384 . S
N209 C201 1.427 1_554 S
N209 C207 1.384 . S
H210 C216 0.930 . S
H211 C220 0.930 . S
H212 C225 0.929 . S
H213 C223 0.929 . S
H214 C218 0.929 . S
H215 C224 0.929 . S
C216 H210 0.930 . S
C216 C217 1.367 . S
C216 C224 1.378 . S
C217 C216 1.367 . S
C217 C225 1.433 . S
C218 H214 0.929 . S
C218 C220 1.378 . S
C218 C222 1.350 . S
C219 C222 1.463 . S
C219 C224 1.350 . S
C219 N227 1.427 . S
C220 H211 0.930 . S
C220 C218 1.378 . S
C220 C221 1.367 . S
C221 C220 1.367 . S
C221 C223 1.433 . S
C222 C218 1.350 . S
C222 C219 1.463 . S
C222 N226 1.427 . S
C223 H213 0.929 . S
C223 C221 1.433 . S
C223 N226 1.384 . S
C224 H215 0.929 . S
C224 C216 1.378 . S
C224 C219 1.350 . S
C225 H212 0.929 . S
C225 C217 1.433 . S
C225 N227 1.384 . S
N226 C222 1.427 . S
N226 C223 1.384 . S
N227 C219 1.427 . S
N227 C225 1.384 . S
H228 C234 0.930 . S
H229 C238 0.930 . S
H230 C243 0.929 . S
H231 C241 0.929 . S
H232 C236 0.929 . S
H233 C242 0.929 . S
C234 H228 0.930 . S
C234 C235 1.367 . S
C234 C242 1.378 . S
C235 C234 1.367 . S
C235 C243 1.433 . S
C236 H232 0.929 . S
C236 C238 1.378 . S
C236 C240 1.350 . S
C237 C240 1.463 . S
C237 C242 1.350 . S
C237 N245 1.427 . S
C238 H229 0.930 . S
C238 C236 1.378 . S
C238 C239 1.367 . S
C239 C238 1.367 . S
C239 C241 1.433 . S
C240 C236 1.350 . S
C240 C237 1.463 . S
C240 N244 1.427 . S
C241 H231 0.929 . S
C241 C239 1.433 . S
C241 N244 1.384 . S
C242 H233 0.929 . S
C242 C234 1.378 . S
C242 C237 1.350 . S
C243 H230 0.929 . S
C243 C235 1.433 . S
C243 N245 1.384 . S
N244 C240 1.427 . S
N244 C241 1.384 . S
N245 C237 1.427 . S
N245 C243 1.384 . S
H246 C252 0.930 . S
H247 C256 0.930 . S
H248 C261 0.929 . S
H249 C259 0.929 . S
H250 C254 0.929 . S
H251 C260 0.929 . S
C252 H246 0.930 . S
C252 C253 1.367 . S
C252 C260 1.378 . S
C253 C252 1.367 . S
C253 C261 1.433 . S
C254 H250 0.929 . S
C254 C256 1.378 . S
C254 C258 1.350 . S
C255 C258 1.463 . S
C255 C260 1.350 . S
C255 N263 1.427 . S
C256 H247 0.930 . S
C256 C254 1.378 . S
C256 C257 1.367 . S
C257 C256 1.367 . S
C257 C259 1.433 . S
C258 C254 1.350 . S
C258 C255 1.463 . S
C258 N262 1.427 . S
C259 H249 0.929 . S
C259 C257 1.433 . S
C259 N262 1.384 . S
C260 H251 0.929 . S
C260 C252 1.378 . S
C260 C255 1.350 . S
C261 H248 0.929 . S
C261 C253 1.433 . S
C261 N263 1.384 . S
N262 C258 1.427 . S
N262 C259 1.384 . S
N263 C255 1.427 . S
N263 C261 1.384 . S
H264 C270 0.930 . S
H265 C274 0.930 . S
H266 C279 0.929 . S
H267 C277 0.929 . S
H268 C272 0.929 . S
H269 C278 0.929 . S
C270 H264 0.930 . S
C270 C271 1.367 . S
C270 C278 1.378 . S
C271 C270 1.367 . S
C271 C279 1.433 . S
C272 H268 0.929 . S
C272 C274 1.378 . S
C272 C276 1.350 1_556 S
C273 C276 1.463 . S
C273 C278 1.350 . S
C273 N281 1.427 . S
C274 H265 0.930 . S
C274 C272 1.378 . S
C274 C275 1.367 . S
C275 C274 1.367 . S
C275 C277 1.433 . S
C276 C272 1.350 1_554 S
C276 C273 1.463 . S
C276 N280 1.427 1_554 S
C277 H267 0.929 . S
C277 C275 1.433 . S
C277 N280 1.384 . S
C278 H269 0.929 . S
C278 C270 1.378 . S
C278 C273 1.350 . S
C279 H266 0.929 . S
C279 C271 1.433 . S
C279 N281 1.384 . S
N280 C276 1.427 1_556 S
N280 C277 1.384 . S
N281 C273 1.427 . S
N281 C279 1.384 . S
H282 C288 0.922 1_554 S
H283 C292 0.930 . S
H284 C297 0.929 . S
H285 C295 0.929 . S
H286 C290 0.929 1_556 S
H287 C296 0.929 . S
C288 H282 0.922 1_556 S
C288 C289 1.386 . S
C288 C296 1.367 1_556 S
C289 C288 1.386 . S
C289 C297 1.433 . S
C290 H286 0.929 1_554 S
C290 C292 1.378 . S
C290 C294 1.350 . S
C291 C294 1.463 . S
C291 C296 1.350 . S
C291 N299 1.427 1_554 S
C292 H283 0.930 . S
C292 C290 1.378 . S
C292 C293 1.367 . S
C293 C292 1.367 . S
C293 C295 1.433 . S
C294 C290 1.350 . S
C294 C291 1.463 . S
C294 N298 1.427 . S
C295 H285 0.929 . S
C295 C293 1.433 . S
C295 N298 1.384 . S
C296 H287 0.929 . S
C296 C288 1.367 1_554 S
C296 C291 1.350 . S
C297 H284 0.929 . S
C297 C289 1.433 . S
C297 N299 1.384 . S
N298 C294 1.427 . S
N298 C295 1.384 . S
N299 C291 1.427 1_556 S
N299 C297 1.384 . S
H300 C306 0.930 . S
H301 C310 0.930 . S
H302 C315 0.929 . S
H303 C313 0.929 . S
H304 C308 0.929 . S
H305 C314 0.929 . S
C306 H300 0.930 . S
C306 C307 1.367 . S
C306 C314 1.378 . S
C307 C306 1.367 . S
C307 C315 1.433 . S
C308 H304 0.929 . S
C308 C310 1.378 . S
C308 C312 1.335 1_556 S
C309 C312 1.476 . S
C309 C314 1.350 . S
C309 N317 1.427 . S
C310 H301 0.930 . S
C310 C308 1.378 . S
C310 C311 1.367 . S
C311 C310 1.367 . S
C311 C313 1.433 . S
C312 C308 1.335 1_554 S
C312 C309 1.476 . S
C312 N316 1.430 . S
C313 H303 0.929 . S
C313 C311 1.433 . S
C313 N316 1.384 1_556 S
C314 H305 0.929 . S
C314 C306 1.378 . S
C314 C309 1.350 . S
C315 H302 0.929 . S
C315 C307 1.433 . S
C315 N317 1.384 . S
N316 C312 1.430 . S
N316 C313 1.384 1_554 S
N317 C309 1.427 . S
N317 C315 1.384 . S
H318 C324 0.930 . S
H319 C328 0.930 . S
H320 C333 0.929 . S
H321 C331 0.929 . S
H322 C326 0.929 . S
H323 C332 0.929 . S
C324 H318 0.930 . S
C324 C325 1.367 . S
C324 C332 1.378 . S
C325 C324 1.367 . S
C325 C333 1.433 . S
C326 H322 0.929 . S
C326 C328 1.378 . S
C326 C330 1.350 . S
C327 C330 1.463 . S
C327 C332 1.350 . S
C327 N335 1.427 . S
C328 H319 0.930 . S
C328 C326 1.378 . S
C328 C329 1.367 . S
C329 C328 1.367 . S
C329 C331 1.433 . S
C330 C326 1.350 . S
C330 C327 1.463 . S
C330 N334 1.427 . S
C331 H321 0.929 . S
C331 C329 1.433 . S
C331 N334 1.384 . S
C332 H323 0.929 . S
C332 C324 1.378 . S
C332 C327 1.350 . S
C333 H320 0.929 . S
C333 C325 1.433 . S
C333 N335 1.384 . S
N334 C330 1.427 . S
N334 C331 1.384 . S
N335 C327 1.427 . S
N335 C333 1.384 . S
H336 C342 0.930 . S
H337 C346 0.930 . S
H338 C351 0.929 . S
H339 C349 0.929 . S
H340 C344 0.929 . S
H341 C350 0.929 . S
C342 H336 0.930 . S
C342 C343 1.367 . S
C342 C350 1.378 . S
C343 C342 1.367 . S
C343 C351 1.433 . S
C344 H340 0.929 . S
C344 C346 1.378 . S
C344 C348 1.350 . S
C345 C348 1.463 . S
C345 C350 1.350 . S
C345 N353 1.427 . S
C346 H337 0.930 . S
C346 C344 1.378 . S
C346 C347 1.367 . S
C347 C346 1.367 . S
C347 C349 1.433 . S
C348 C344 1.350 . S
C348 C345 1.463 . S
C348 N352 1.427 . S
C349 H339 0.929 . S
C349 C347 1.433 . S
C349 N352 1.384 . S
C350 H341 0.929 . S
C350 C342 1.378 . S
C350 C345 1.350 . S
C351 H338 0.929 . S
C351 C343 1.433 . S
C351 N353 1.384 . S
N352 C348 1.427 . S
N352 C349 1.384 . S
N353 C345 1.427 . S
N353 C351 1.384 . S
H354 C360 0.930 . S
H355 C364 0.930 . S
H356 C369 0.929 . S
H357 C367 0.929 . S
H358 C362 0.929 . S
H359 C368 0.929 . S
C360 H354 0.930 . S
C360 C361 1.367 . S
C360 C368 1.378 . S
C361 C360 1.367 . S
C361 C369 1.433 . S
C362 H358 0.929 . S
C362 C364 1.378 . S
C362 C366 1.350 . S
C363 C366 1.463 . S
C363 C368 1.350 . S
C363 N371 1.427 . S
C364 H355 0.930 . S
C364 C362 1.378 . S
C364 C365 1.367 . S
C365 C364 1.367 . S
C365 C367 1.433 . S
C366 C362 1.350 . S
C366 C363 1.463 . S
C366 N370 1.427 . S
C367 H357 0.929 . S
C367 C365 1.433 . S
C367 N370 1.384 . S
C368 H359 0.929 . S
C368 C360 1.378 . S
C368 C363 1.350 . S
C369 H356 0.929 . S
C369 C361 1.433 . S
C369 N371 1.384 . S
N370 C366 1.427 . S
N370 C367 1.384 . S
N371 C363 1.427 . S
N371 C369 1.384 . S
H372 C378 0.930 . S
H373 C382 0.930 . S
H374 C387 0.929 . S
H375 C385 0.929 . S
H376 C380 0.929 . S
H377 C386 0.929 . S
C378 H372 0.930 . S
C378 C379 1.367 . S
C378 C386 1.378 . S
C379 C378 1.367 . S
C379 C387 1.433 . S
C380 H376 0.929 . S
C380 C382 1.378 . S
C380 C384 1.350 . S
C381 C384 1.463 . S
C381 C386 1.350 . S
C381 N389 1.427 . S
C382 H373 0.930 . S
C382 C380 1.378 . S
C382 C383 1.367 . S
C383 C382 1.367 . S
C383 C385 1.433 . S
C384 C380 1.350 . S
C384 C381 1.463 . S
C384 N388 1.427 . S
C385 H375 0.929 . S
C385 C383 1.433 . S
C385 N388 1.384 . S
C386 H377 0.929 . S
C386 C378 1.378 . S
C386 C381 1.350 . S
C387 H374 0.929 . S
C387 C379 1.433 . S
C387 N389 1.384 . S
N388 C384 1.427 . S
N388 C385 1.384 . S
N389 C381 1.427 . S
N389 C387 1.384 . S
H390 C396 0.930 . S
H391 C400 0.930 . S
H392 C405 0.929 . S
H393 C403 0.929 . S
H394 C398 0.929 . S
H395 C404 0.929 . S
C396 H390 0.930 . S
C396 C397 1.367 . S
C396 C404 1.378 . S
C397 C396 1.367 . S
C397 C405 1.433 . S
C398 H394 0.929 . S
C398 C400 1.378 . S
C398 C402 1.350 . S
C399 C402 1.463 . S
C399 C404 1.350 . S
C399 N407 1.427 . S
C400 H391 0.930 . S
C400 C398 1.378 . S
C400 C401 1.367 . S
C401 C400 1.367 . S
C401 C403 1.433 . S
C402 C398 1.350 . S
C402 C399 1.463 . S
C402 N406 1.427 . S
C403 H393 0.929 . S
C403 C401 1.433 . S
C403 N406 1.384 . S
C404 H395 0.929 . S
C404 C396 1.378 . S
C404 C399 1.350 . S
C405 H392 0.929 . S
C405 C397 1.433 . S
C405 N407 1.384 . S
N406 C402 1.427 . S
N406 C403 1.384 . S
N407 C399 1.427 . S
N407 C405 1.384 . S
H408 C414 0.930 . S
H409 C418 0.930 . S
H410 C423 0.929 . S
H411 C421 0.929 . S
H412 C416 0.929 . S
H413 C422 0.929 . S
C414 H408 0.930 . S
C414 C415 1.367 . S
C414 C422 1.378 . S
C415 C414 1.367 . S
C415 C423 1.433 . S
C416 H412 0.929 . S
C416 C418 1.378 . S
C416 C420 1.350 . S
C417 C420 1.463 . S
C417 C422 1.350 . S
C417 N425 1.427 . S
C418 H409 0.930 . S
C418 C416 1.378 . S
C418 C419 1.367 . S
C419 C418 1.367 . S
C419 C421 1.433 . S
C420 C416 1.350 . S
C420 C417 1.463 . S
C420 N424 1.427 . S
C421 H411 0.929 . S
C421 C419 1.433 . S
C421 N424 1.384 . S
C422 H413 0.929 . S
C422 C414 1.378 . S
C422 C417 1.350 . S
C423 H410 0.929 . S
C423 C415 1.433 . S
C423 N425 1.384 . S
N424 C420 1.427 . S
N424 C421 1.384 . S
N425 C417 1.427 . S
N425 C423 1.384 . S
H426 C432 0.930 . S
H427 C436 0.930 . S
H428 C441 0.929 . S
H429 C439 0.929 . S
H430 C434 0.929 . S
H431 C440 0.929 . S
C432 H426 0.930 . S
C432 C433 1.367 . S
C432 C440 1.378 . S
C433 C432 1.367 . S
C433 C441 1.433 . S
C434 H430 0.929 . S
C434 C436 1.378 . S
C434 C438 1.350 . S
C435 C438 1.463 . S
C435 C440 1.350 . S
C435 N443 1.427 . S
C436 H427 0.930 . S
C436 C434 1.378 . S
C436 C437 1.367 . S
C437 C436 1.367 . S
C437 C439 1.433 . S
C438 C434 1.350 . S
C438 C435 1.463 . S
C438 N442 1.427 . S
C439 H429 0.929 . S
C439 C437 1.433 . S
C439 N442 1.384 . S
C440 H431 0.929 . S
C440 C432 1.378 . S
C440 C435 1.350 . S
C441 H428 0.929 . S
C441 C433 1.433 . S
C441 N443 1.384 . S
N442 C438 1.427 . S
N442 C439 1.384 . S
N443 C435 1.427 . S
N443 C441 1.384 . S
H444 C450 0.930 . S
H445 C454 0.930 . S
H446 C459 0.929 . S
H447 C457 0.929 . S
H448 C452 0.929 . S
H449 C458 0.929 . S
C450 H444 0.930 . S
C450 C451 1.367 . S
C450 C458 1.378 . S
C451 C450 1.367 . S
C451 C459 1.433 . S
C452 H448 0.929 . S
C452 C454 1.378 . S
C452 C456 1.350 . S
C453 C456 1.463 . S
C453 C458 1.350 . S
C453 N461 1.427 . S
C454 H445 0.930 . S
C454 C452 1.378 . S
C454 C455 1.367 . S
C455 C454 1.367 . S
C455 C457 1.433 . S
C456 C452 1.350 . S
C456 C453 1.463 . S
C456 N460 1.427 . S
C457 H447 0.929 . S
C457 C455 1.433 . S
C457 N460 1.384 . S
C458 H449 0.929 . S
C458 C450 1.378 . S
C458 C453 1.350 . S
C459 H446 0.929 . S
C459 C451 1.433 . S
C459 N461 1.384 . S
N460 C456 1.427 . S
N460 C457 1.384 . S
N461 C453 1.427 . S
N461 C459 1.384 . S
H462 C468 0.930 . S
H463 C472 0.930 . S
H464 C477 0.929 . S
H465 C475 0.929 . S
H466 C470 0.929 . S
H467 C476 0.929 . S
C468 H462 0.930 . S
C468 C469 1.367 . S
C468 C476 1.378 . S
C469 C468 1.367 . S
C469 C477 1.433 . S
C470 H466 0.929 . S
C470 C472 1.378 . S
C470 C474 1.350 . S
C471 C474 1.463 . S
C471 C476 1.350 . S
C471 N479 1.427 . S
C472 H463 0.930 . S
C472 C470 1.378 . S
C472 C473 1.367 . S
C473 C472 1.367 . S
C473 C475 1.433 . S
C474 C470 1.350 . S
C474 C471 1.463 . S
C474 N478 1.427 . S
C475 H465 0.929 . S
C475 C473 1.433 . S
C475 N478 1.384 . S
C476 H467 0.929 . S
C476 C468 1.378 . S
C476 C471 1.350 . S
C477 H464 0.929 . S
C477 C469 1.433 . S
C477 N479 1.384 . S
N478 C474 1.427 . S
N478 C475 1.384 . S
N479 C471 1.427 . S
N479 C477 1.384 . S
H480 C486 0.930 . S
H481 C490 0.930 . S
H482 C495 0.929 . S
H483 C493 0.929 . S
H484 C488 0.929 . S
H485 C494 0.929 . S
C486 H480 0.930 . S
C486 C487 1.367 . S
C486 C494 1.378 . S
C487 C486 1.367 . S
C487 C495 1.433 1_455 S
C488 H484 0.929 . S
C488 C490 1.378 . S
C488 C492 1.350 . S
C489 C492 1.463 1_454 S
C489 C494 1.350 . S
C489 N497 1.427 1_455 S
C490 H481 0.930 . S
C490 C488 1.378 . S
C490 C491 1.367 . S
C491 C490 1.367 . S
C491 C493 1.433 1_655 S
C492 C488 1.350 . S
C492 C489 1.463 1_656 S
C492 N496 1.427 1_655 S
C493 H483 0.929 . S
C493 C491 1.433 1_455 S
C493 N496 1.384 . S
C494 H485 0.929 . S
C494 C486 1.378 . S
C494 C489 1.350 . S
C495 H482 0.929 . S
C495 C487 1.433 1_655 S
C495 N497 1.384 . S
N496 C492 1.427 1_455 S
N496 C493 1.384 . S
N497 C489 1.427 1_655 S
N497 C495 1.384 . S
H498 C504 0.930 . S
H499 C508 0.930 . S
H500 C513 0.929 . S
H501 C511 0.929 . S
H502 C506 0.929 . S
H503 C512 0.929 . S
C504 H498 0.930 . S
C504 C505 1.367 . S
C504 C512 1.378 . S
C505 C504 1.367 . S
C505 C513 1.433 . S
C506 H502 0.929 . S
C506 C508 1.378 . S
C506 C510 1.350 . S
C507 C510 1.463 1_554 S
C507 C512 1.350 . S
C507 N515 1.427 . S
C508 H499 0.930 . S
C508 C506 1.378 . S
C508 C509 1.367 . S
C509 C508 1.367 . S
C509 C511 1.433 . S
C510 C506 1.350 . S
C510 C507 1.463 1_556 S
C510 N514 1.427 . S
C511 H501 0.929 . S
C511 C509 1.433 . S
C511 N514 1.384 . S
C512 H503 0.929 . S
C512 C504 1.378 . S
C512 C507 1.350 . S
C513 H500 0.929 . S
C513 C505 1.433 . S
C513 N515 1.384 . S
N514 C510 1.427 . S
N514 C511 1.384 . S
N515 C507 1.427 . S
N515 C513 1.384 . S
H516 C522 0.930 . S
H517 C526 0.930 . S
H518 C531 0.931 . S
H519 C529 0.931 . S
H520 C524 0.929 . S
H521 C530 0.929 . S
C522 H516 0.930 . S
C522 C523 1.367 . S
C522 C530 1.378 1_554 S
C523 C522 1.367 . S
C523 C531 1.432 1_565 S
C524 H520 0.929 . S
C524 C526 1.378 1_554 S
C524 C528 1.350 1_554 S
C525 C528 1.463 1_564 S
C525 C530 1.350 1_554 S
C525 N533 1.427 1_565 S
C526 H517 0.930 . S
C526 C524 1.378 1_556 S
C526 C527 1.367 . S
C527 C526 1.367 . S
C527 C529 1.432 1_545 S
C528 C524 1.350 1_556 S
C528 C525 1.463 1_546 S
C528 N532 1.427 1_545 S
C529 H519 0.931 . S
C529 C527 1.432 1_565 S
C529 N532 1.383 . S
C530 H521 0.929 . S
C530 C522 1.378 1_556 S
C530 C525 1.350 1_556 S
C531 H518 0.931 . S
C531 C523 1.432 1_545 S
C531 N533 1.383 . S
N532 C528 1.427 1_565 S
N532 C529 1.383 . S
N533 C525 1.427 1_545 S
N533 C531 1.383 . S
H534 C540 0.930 . S
H535 C544 0.930 . S
H536 C549 0.929 . S
H537 C547 0.929 . S
H538 C542 0.929 . S
H539 C548 0.929 . S
C540 H534 0.930 . S
C540 C541 1.367 1_545 S
C540 C548 1.378 . S
C541 C540 1.367 1_565 S
C541 C549 1.433 . S
C542 H538 0.929 . S
C542 C544 1.378 . S
C542 C546 1.350 1_565 S
C543 C546 1.463 1_565 S
C543 C548 1.350 1_565 S
C543 N551 1.427 . S
C544 H535 0.930 . S
C544 C542 1.378 . S
C544 C545 1.367 1_565 S
C545 C544 1.367 1_545 S
C545 C547 1.433 . S
C546 C542 1.350 1_545 S
C546 C543 1.463 1_545 S
C546 N550 1.427 . S
C547 H537 0.929 . S
C547 C545 1.433 . S
C547 N550 1.384 . S
C548 H539 0.929 . S
C548 C540 1.378 . S
C548 C543 1.350 1_545 S
C549 H536 0.929 . S
C549 C541 1.433 . S
C549 N551 1.384 . S
N550 C546 1.427 . S
N550 C547 1.384 . S
N551 C543 1.427 . S
N551 C549 1.384 . S
H552 C558 0.930 1_455 S
H553 C562 0.930 1_655 S
H554 C567 0.929 . S
H555 C565 0.929 . S
H556 C560 0.929 . S
H557 C566 0.929 . S
C558 H552 0.930 1_655 S
C558 C559 1.367 . S
C558 C566 1.378 1_655 S
C559 C558 1.367 . S
C559 C567 1.433 . S
C560 H556 0.929 . S
C560 C562 1.378 1_655 S
C560 C564 1.350 1_655 S
C561 C564 1.463 1_655 S
C561 C566 1.350 1_655 S
C561 N569 1.427 . S
C562 H553 0.930 1_455 S
C562 C560 1.378 1_455 S
C562 C563 1.367 . S
C563 C562 1.367 . S
C563 C565 1.433 . S
C564 C560 1.350 1_455 S
C564 C561 1.463 1_455 S
C564 N568 1.427 . S
C565 H555 0.929 . S
C565 C563 1.433 . S
C565 N568 1.384 . S
C566 H557 0.929 . S
C566 C558 1.378 1_455 S
C566 C561 1.350 1_455 S
C567 H554 0.929 . S
C567 C559 1.433 . S
C567 N569 1.384 . S
N568 C564 1.427 . S
N568 C565 1.384 . S
N569 C561 1.427 . S
N569 C567 1.384 . S
H570 C576 0.930 . S
H571 C580 0.930 . S
H572 C585 0.929 . S
H573 C583 0.929 . S
H574 C578 0.929 . S
H575 C584 0.929 . S
C576 H570 0.930 . S
C576 C577 1.367 . S
C576 C584 1.378 . S
C577 C576 1.367 . S
C577 C585 1.433 . S
C578 H574 0.929 . S
C578 C580 1.378 . S
C578 C582 1.350 . S
C579 C582 1.463 . S
C579 C584 1.350 . S
C579 N587 1.427 . S
C580 H571 0.930 . S
C580 C578 1.378 . S
C580 C581 1.367 . S
C581 C580 1.367 . S
C581 C583 1.433 . S
C582 C578 1.350 . S
C582 C579 1.463 . S
C582 N586 1.427 . S
C583 H573 0.929 . S
C583 C581 1.433 . S
C583 N586 1.384 . S
C584 H575 0.929 . S
C584 C576 1.378 . S
C584 C579 1.350 . S
C585 H572 0.929 . S
C585 C577 1.433 . S
C585 N587 1.384 . S
N586 C582 1.427 . S
N586 C583 1.384 . S
N587 C579 1.427 . S
N587 C585 1.384 . S
C163 C8 0.703 . S
C167 C96 0.710 . S
C181 C21 0.681 . S
C185 C109 0.694 . S
C199 C34 0.700 . S
C203 C83 0.701 . S
C217 C148 0.712 . S
C221 C47 0.702 . S
C235 C60 0.683 . S
C239 C122 0.697 . S
C253 C135 0.683 . S
C257 C73 0.677 . S
C271 C18 0.686 . S
C275 C86 0.678 . S
C289 C99 0.691 . S
C293 C31 0.687 . S
C307 C5 0.710 . S
C311 C112 0.703 . S
C325 C125 0.703 . S
C329 C70 0.709 . S
C343 C138 0.681 . S
C347 C44 0.679 . S
C361 C57 0.703 . S
C365 C151 0.701 . S
C379 C65 1.725 . S
C383 C0 1.732 . S
C397 C13 1.722 . S
C401 C39 1.725 . S
C415 C26 1.723 . S
C419 C52 1.728 . S
C433 C78 1.724 . S
C437 C143 1.731 . S
C451 C91 1.726 . S
C455 C117 1.722 . S
C469 C104 1.724 . S
C473 C130 1.723 . S
C487 C10 1.516 . S
C491 C88 1.516 . S
C505 C23 1.513 . S
C509 C101 1.513 . S
C523 C36 1.507 . S
C527 C114 1.507 . S
C541 C49 1.510 . S
C545 C127 1.510 . S
C559 C140 1.517 . S
C563 C62 1.517 . S
C577 C75 1.516 . S
C581 C153 1.516 . S
