# Generated by pormake.
# Topology wiq, (6)-cn, num edge types: 1
# Building blocks:
#     Node 0, Type 0, BuildingBlock: IZENUY_clean_sbu_0, # of connection points: 6
#     Node 1, Type 0, BuildingBlock: IZENUY_clean_sbu_0, # of connection points: 6
#     Node 2, Type 0, BuildingBlock: IZENUY_clean_sbu_0, # of connection points: 6
#     Node 3, Type 0, BuildingBlock: IZENUY_clean_sbu_0, # of connection points: 6
#     Node 4, Type 0, BuildingBlock: IZENUY_clean_sbu_0, # of connection points: 6
#     Node 5, Type 0, BuildingBlock: IZENUY_clean_sbu_0, # of connection points: 6
#     Node 6, Type 0, BuildingBlock: IZENUY_clean_sbu_0, # of connection points: 6
#     Node 7, Type 0, BuildingBlock: IZENUY_clean_sbu_0, # of connection points: 6
#     Node 8, Type 0, BuildingBlock: IZENUY_clean_sbu_0, # of connection points: 6
#     Node 9, Type 0, BuildingBlock: IZENUY_clean_sbu_0, # of connection points: 6
#     Node 10, Type 0, BuildingBlock: IZENUY_clean_sbu_0, # of connection points: 6
#     Node 11, Type 0, BuildingBlock: IZENUY_clean_sbu_0, # of connection points: 6
#     Node 12, Type 0, BuildingBlock: IZENUY_clean_sbu_0, # of connection points: 6
#     Node 13, Type 0, BuildingBlock: IZENUY_clean_sbu_0, # of connection points: 6
#     Node 14, Type 0, BuildingBlock: IZENUY_clean_sbu_0, # of connection points: 6
#     Node 15, Type 0, BuildingBlock: IZENUY_clean_sbu_0, # of connection points: 6
#     Node 16, Type 0, BuildingBlock: IZENUY_clean_sbu_0, # of connection points: 6
#     Node 17, Type 0, BuildingBlock: IZENUY_clean_sbu_0, # of connection points: 6
#     Node 18, Type 0, BuildingBlock: IZENUY_clean_sbu_0, # of connection points: 6
#     Node 19, Type 0, BuildingBlock: IZENUY_clean_sbu_0, # of connection points: 6
#     Node 20, Type 0, BuildingBlock: IZENUY_clean_sbu_0, # of connection points: 6
#     Node 21, Type 0, BuildingBlock: IZENUY_clean_sbu_0, # of connection points: 6
#     Node 22, Type 0, BuildingBlock: IZENUY_clean_sbu_0, # of connection points: 6
#     Node 23, Type 0, BuildingBlock: IZENUY_clean_sbu_0, # of connection points: 6
#     Node 24, Type 0, BuildingBlock: IZENUY_clean_sbu_0, # of connection points: 6
#     Node 25, Type 0, BuildingBlock: IZENUY_clean_sbu_0, # of connection points: 6
#     Node 26, Type 0, BuildingBlock: IZENUY_clean_sbu_0, # of connection points: 6
#     Node 27, Type 0, BuildingBlock: IZENUY_clean_sbu_0, # of connection points: 6
#     Node 28, Type 0, BuildingBlock: IZENUY_clean_sbu_0, # of connection points: 6
#     Node 29, Type 0, BuildingBlock: IZENUY_clean_sbu_0, # of connection points: 6
#     Node 30, Type 0, BuildingBlock: IZENUY_clean_sbu_0, # of connection points: 6
#     Node 31, Type 0, BuildingBlock: IZENUY_clean_sbu_0, # of connection points: 6
#     Edge 32, Type (0, 0), BuildingBlock: KIFKEQ_clean_linker_1, # of connection points: 2
#     Edge 33, Type (0, 0), BuildingBlock: KIFKEQ_clean_linker_1, # of connection points: 2
#     Edge 34, Type (0, 0), BuildingBlock: KIFKEQ_clean_linker_1, # of connection points: 2
#     Edge 35, Type (0, 0), BuildingBlock: KIFKEQ_clean_linker_1, # of connection points: 2
#     Edge 36, Type (0, 0), BuildingBlock: KIFKEQ_clean_linker_1, # of connection points: 2
#     Edge 37, Type (0, 0), BuildingBlock: KIFKEQ_clean_linker_1, # of connection points: 2
#     Edge 38, Type (0, 0), BuildingBlock: KIFKEQ_clean_linker_1, # of connection points: 2
#     Edge 39, Type (0, 0), BuildingBlock: KIFKEQ_clean_linker_1, # of connection points: 2
#     Edge 40, Type (0, 0), BuildingBlock: KIFKEQ_clean_linker_1, # of connection points: 2
#     Edge 41, Type (0, 0), BuildingBlock: KIFKEQ_clean_linker_1, # of connection points: 2
#     Edge 42, Type (0, 0), BuildingBlock: KIFKEQ_clean_linker_1, # of connection points: 2
#     Edge 43, Type (0, 0), BuildingBlock: KIFKEQ_clean_linker_1, # of connection points: 2
#     Edge 44, Type (0, 0), BuildingBlock: KIFKEQ_clean_linker_1, # of connection points: 2
#     Edge 45, Type (0, 0), BuildingBlock: KIFKEQ_clean_linker_1, # of connection points: 2
#     Edge 46, Type (0, 0), BuildingBlock: KIFKEQ_clean_linker_1, # of connection points: 2
#     Edge 47, Type (0, 0), BuildingBlock: KIFKEQ_clean_linker_1, # of connection points: 2
#     Edge 48, Type (0, 0), BuildingBlock: KIFKEQ_clean_linker_1, # of connection points: 2
#     Edge 49, Type (0, 0), BuildingBlock: KIFKEQ_clean_linker_1, # of connection points: 2
#     Edge 50, Type (0, 0), BuildingBlock: KIFKEQ_clean_linker_1, # of connection points: 2
#     Edge 51, Type (0, 0), BuildingBlock: KIFKEQ_clean_linker_1, # of connection points: 2
#     Edge 52, Type (0, 0), BuildingBlock: KIFKEQ_clean_linker_1, # of connection points: 2
#     Edge 53, Type (0, 0), BuildingBlock: KIFKEQ_clean_linker_1, # of connection points: 2
#     Edge 54, Type (0, 0), BuildingBlock: KIFKEQ_clean_linker_1, # of connection points: 2
#     Edge 55, Type (0, 0), BuildingBlock: KIFKEQ_clean_linker_1, # of connection points: 2
#     Edge 56, Type (0, 0), BuildingBlock: KIFKEQ_clean_linker_1, # of connection points: 2
#     Edge 57, Type (0, 0), BuildingBlock: KIFKEQ_clean_linker_1, # of connection points: 2
#     Edge 58, Type (0, 0), BuildingBlock: KIFKEQ_clean_linker_1, # of connection points: 2
#     Edge 59, Type (0, 0), BuildingBlock: KIFKEQ_clean_linker_1, # of connection points: 2
#     Edge 60, Type (0, 0), BuildingBlock: KIFKEQ_clean_linker_1, # of connection points: 2
#     Edge 61, Type (0, 0), BuildingBlock: KIFKEQ_clean_linker_1, # of connection points: 2
#     Edge 62, Type (0, 0), BuildingBlock: KIFKEQ_clean_linker_1, # of connection points: 2
#     Edge 63, Type (0, 0), BuildingBlock: KIFKEQ_clean_linker_1, # of connection points: 2
#     Edge 64, Type (0, 0), BuildingBlock: KIFKEQ_clean_linker_1, # of connection points: 2
#     Edge 65, Type (0, 0), BuildingBlock: KIFKEQ_clean_linker_1, # of connection points: 2
#     Edge 66, Type (0, 0), BuildingBlock: KIFKEQ_clean_linker_1, # of connection points: 2
#     Edge 67, Type (0, 0), BuildingBlock: KIFKEQ_clean_linker_1, # of connection points: 2
#     Edge 68, Type (0, 0), BuildingBlock: KIFKEQ_clean_linker_1, # of connection points: 2
#     Edge 69, Type (0, 0), BuildingBlock: KIFKEQ_clean_linker_1, # of connection points: 2
#     Edge 70, Type (0, 0), BuildingBlock: KIFKEQ_clean_linker_1, # of connection points: 2
#     Edge 71, Type (0, 0), BuildingBlock: KIFKEQ_clean_linker_1, # of connection points: 2
#     Edge 72, Type (0, 0), BuildingBlock: KIFKEQ_clean_linker_1, # of connection points: 2
#     Edge 73, Type (0, 0), BuildingBlock: KIFKEQ_clean_linker_1, # of connection points: 2
#     Edge 74, Type (0, 0), BuildingBlock: KIFKEQ_clean_linker_1, # of connection points: 2
#     Edge 75, Type (0, 0), BuildingBlock: KIFKEQ_clean_linker_1, # of connection points: 2
#     Edge 76, Type (0, 0), BuildingBlock: KIFKEQ_clean_linker_1, # of connection points: 2
#     Edge 77, Type (0, 0), BuildingBlock: KIFKEQ_clean_linker_1, # of connection points: 2
#     Edge 78, Type (0, 0), BuildingBlock: KIFKEQ_clean_linker_1, # of connection points: 2
#     Edge 79, Type (0, 0), BuildingBlock: KIFKEQ_clean_linker_1, # of connection points: 2
#     Edge 80, Type (0, 0), BuildingBlock: KIFKEQ_clean_linker_1, # of connection points: 2
#     Edge 81, Type (0, 0), BuildingBlock: KIFKEQ_clean_linker_1, # of connection points: 2
#     Edge 82, Type (0, 0), BuildingBlock: KIFKEQ_clean_linker_1, # of connection points: 2
#     Edge 83, Type (0, 0), BuildingBlock: KIFKEQ_clean_linker_1, # of connection points: 2
#     Edge 84, Type (0, 0), BuildingBlock: KIFKEQ_clean_linker_1, # of connection points: 2
#     Edge 85, Type (0, 0), BuildingBlock: KIFKEQ_clean_linker_1, # of connection points: 2
#     Edge 86, Type (0, 0), BuildingBlock: KIFKEQ_clean_linker_1, # of connection points: 2
#     Edge 87, Type (0, 0), BuildingBlock: KIFKEQ_clean_linker_1, # of connection points: 2
#     Edge 88, Type (0, 0), BuildingBlock: KIFKEQ_clean_linker_1, # of connection points: 2
#     Edge 89, Type (0, 0), BuildingBlock: KIFKEQ_clean_linker_1, # of connection points: 2
#     Edge 90, Type (0, 0), BuildingBlock: KIFKEQ_clean_linker_1, # of connection points: 2
#     Edge 91, Type (0, 0), BuildingBlock: KIFKEQ_clean_linker_1, # of connection points: 2
#     Edge 92, Type (0, 0), BuildingBlock: KIFKEQ_clean_linker_1, # of connection points: 2
#     Edge 93, Type (0, 0), BuildingBlock: KIFKEQ_clean_linker_1, # of connection points: 2
#     Edge 94, Type (0, 0), BuildingBlock: KIFKEQ_clean_linker_1, # of connection points: 2
#     Edge 95, Type (0, 0), BuildingBlock: KIFKEQ_clean_linker_1, # of connection points: 2
#     Edge 96, Type (0, 0), BuildingBlock: KIFKEQ_clean_linker_1, # of connection points: 2
#     Edge 97, Type (0, 0), BuildingBlock: KIFKEQ_clean_linker_1, # of connection points: 2
#     Edge 98, Type (0, 0), BuildingBlock: KIFKEQ_clean_linker_1, # of connection points: 2
#     Edge 99, Type (0, 0), BuildingBlock: KIFKEQ_clean_linker_1, # of connection points: 2
#     Edge 100, Type (0, 0), BuildingBlock: KIFKEQ_clean_linker_1, # of connection points: 2
#     Edge 101, Type (0, 0), BuildingBlock: KIFKEQ_clean_linker_1, # of connection points: 2
#     Edge 102, Type (0, 0), BuildingBlock: KIFKEQ_clean_linker_1, # of connection points: 2
#     Edge 103, Type (0, 0), BuildingBlock: KIFKEQ_clean_linker_1, # of connection points: 2
#     Edge 104, Type (0, 0), BuildingBlock: KIFKEQ_clean_linker_1, # of connection points: 2
#     Edge 105, Type (0, 0), BuildingBlock: KIFKEQ_clean_linker_1, # of connection points: 2
#     Edge 106, Type (0, 0), BuildingBlock: KIFKEQ_clean_linker_1, # of connection points: 2
#     Edge 107, Type (0, 0), BuildingBlock: KIFKEQ_clean_linker_1, # of connection points: 2
#     Edge 108, Type (0, 0), BuildingBlock: KIFKEQ_clean_linker_1, # of connection points: 2
#     Edge 109, Type (0, 0), BuildingBlock: KIFKEQ_clean_linker_1, # of connection points: 2
#     Edge 110, Type (0, 0), BuildingBlock: KIFKEQ_clean_linker_1, # of connection points: 2
#     Edge 111, Type (0, 0), BuildingBlock: KIFKEQ_clean_linker_1, # of connection points: 2
#     Edge 112, Type (0, 0), BuildingBlock: KIFKEQ_clean_linker_1, # of connection points: 2
#     Edge 113, Type (0, 0), BuildingBlock: KIFKEQ_clean_linker_1, # of connection points: 2
#     Edge 114, Type (0, 0), BuildingBlock: KIFKEQ_clean_linker_1, # of connection points: 2
#     Edge 115, Type (0, 0), BuildingBlock: KIFKEQ_clean_linker_1, # of connection points: 2
#     Edge 116, Type (0, 0), BuildingBlock: KIFKEQ_clean_linker_1, # of connection points: 2
#     Edge 117, Type (0, 0), BuildingBlock: KIFKEQ_clean_linker_1, # of connection points: 2
#     Edge 118, Type (0, 0), BuildingBlock: KIFKEQ_clean_linker_1, # of connection points: 2
#     Edge 119, Type (0, 0), BuildingBlock: KIFKEQ_clean_linker_1, # of connection points: 2
#     Edge 120, Type (0, 0), BuildingBlock: KIFKEQ_clean_linker_1, # of connection points: 2
#     Edge 121, Type (0, 0), BuildingBlock: KIFKEQ_clean_linker_1, # of connection points: 2
#     Edge 122, Type (0, 0), BuildingBlock: KIFKEQ_clean_linker_1, # of connection points: 2
#     Edge 123, Type (0, 0), BuildingBlock: KIFKEQ_clean_linker_1, # of connection points: 2
#     Edge 124, Type (0, 0), BuildingBlock: KIFKEQ_clean_linker_1, # of connection points: 2
#     Edge 125, Type (0, 0), BuildingBlock: KIFKEQ_clean_linker_1, # of connection points: 2
#     Edge 126, Type (0, 0), BuildingBlock: KIFKEQ_clean_linker_1, # of connection points: 2
#     Edge 127, Type (0, 0), BuildingBlock: KIFKEQ_clean_linker_1, # of connection points: 2
# Relax obj value: 0.285
# Max RMSD: 0.209
# Mean RMSD: 0.208
data_MOF--net-wiq--node1-IZENUY_clean_sbu_0--edge1-KIFKEQ_clean_linker_1
_symmetry_space_group_name_H-M    P1
_symmetry_Int_Tables_number       1
_symmetry_cell_setting            triclinic
loop_
_symmetry_equiv_pos_as_xyz
'x, y, z'
_cell_length_a     49.460646
_cell_length_b     49.453097
_cell_length_c     53.824439
_cell_angle_alpha  89.992999
_cell_angle_beta   89.98929
_cell_angle_gamma 89.945529
loop_
_atom_site_label
_atom_site_type_symbol
_atom_site_fract_x
_atom_site_fract_y
_atom_site_fract_z
_atom_type_partial_charge
Fe0 Fe 0.16369 0.15678 0.30464 0.0
Fe1 Fe 0.15091 0.19866 0.26441 0.0
O2 O 0.1424 0.16889 0.28046 0.0
Fe3 Fe 0.1129 0.15112 0.27236 0.0
O4 O 0.09963 0.15552 0.30317 0.0
O5 O 0.13567 0.1407 0.32271 0.0
O6 O 0.15737 0.18722 0.32277 0.0
C7 C 0.16099 0.2111 0.31496 0.0
C8 C 0.15178 0.10968 0.2799 0.0
O9 O 0.16566 0.21542 0.29205 0.0
C10 C 0.13105 0.16436 0.22612 0.0
O11 O 0.19545 0.17214 0.29166 0.0
O12 O 0.18212 0.18344 0.25468 0.0
O13 O 0.12742 0.11788 0.2797 0.0
O14 O 0.17054 0.12527 0.28741 0.0
C15 C 0.09687 0.20591 0.26974 0.0
O16 O 0.13702 0.18769 0.23423 0.0
O17 O 0.12433 0.14579 0.24086 0.0
C18 C 0.20103 0.1806 0.26987 0.0
O19 O 0.12017 0.21505 0.27328 0.0
O20 O 0.09328 0.18139 0.26372 0.0
C21 C 0.11067 0.14705 0.32272 0.0
Fe22 Fe 0.11969 0.91422 0.55585 0.0
Fe23 Fe 0.07837 0.9003 0.51567 0.0
O24 O 0.10804 0.89229 0.53205 0.0
Fe25 Fe 0.12622 0.86276 0.52454 0.0
O26 O 0.12171 0.85006 0.55553 0.0
O27 O 0.13583 0.88665 0.57462 0.0
O28 O 0.08925 0.90818 0.57388 0.0
C29 C 0.06547 0.91177 0.56587 0.0
C30 C 0.16714 0.90224 0.53192 0.0
O31 O 0.06122 0.91564 0.54284 0.0
C32 C 0.11305 0.87996 0.47799 0.0
O33 O 0.10417 0.94558 0.54222 0.0
O34 O 0.09351 0.93134 0.50544 0.0
O35 O 0.15941 0.87772 0.53185 0.0
O36 O 0.15104 0.92092 0.53861 0.0
C37 C 0.07148 0.84636 0.522 0.0
O38 O 0.08963 0.88577 0.48593 0.0
O39 O 0.13164 0.87361 0.49286 0.0
C40 C 0.09577 0.95061 0.52031 0.0
O41 O 0.0622 0.86971 0.52506 0.0
O42 O 0.09607 0.84272 0.51612 0.0
C43 C 0.12958 0.86162 0.57502 0.0
Fe44 Fe 0.37793 0.82818 0.76751 0.0
Fe45 Fe 0.41196 0.87868 0.77484 0.0
O46 O 0.38435 0.85834 0.7837 0.0
Fe47 Fe 0.36311 0.86824 0.80868 0.0
O48 O 0.37174 0.8378 0.8261 0.0
O49 O 0.3653 0.80962 0.79504 0.0
O50 O 0.41044 0.81456 0.77531 0.0
C51 C 0.43246 0.82567 0.76989 0.0
C52 C 0.32653 0.84267 0.77433 0.0
O53 O 0.43335 0.8505 0.76425 0.0
C54 C 0.37103 0.91704 0.78548 0.0
O55 O 0.38984 0.84098 0.73728 0.0
O56 O 0.39836 0.88395 0.74398 0.0
O57 O 0.33207 0.85133 0.79606 0.0
O58 O 0.34518 0.84048 0.75874 0.0
C59 C 0.41617 0.88083 0.82521 0.0
O60 O 0.39576 0.91051 0.78398 0.0
O61 O 0.35359 0.89975 0.79244 0.0
C62 C 0.39308 0.86487 0.72922 0.0
O63 O 0.42704 0.87429 0.80493 0.0
O64 O 0.3908 0.88538 0.82635 0.0
C65 C 0.36939 0.81388 0.81802 0.0
Fe66 Fe 0.39708 0.16154 0.01787 0.0
Fe67 Fe 0.4061 0.11436 0.05397 0.0
O68 O 0.41698 0.13416 0.02826 0.0
Fe69 Fe 0.44749 0.12623 0.01289 0.0
O70 O 0.46139 0.15905 0.01882 0.0
O71 O 0.42575 0.18248 1.00756 0.0
O72 O 0.39989 0.17803 0.04755 0.0
C73 C 0.39194 0.16808 0.06779 0.0
C74 C 0.41186 0.14 0.97329 0.0
O75 O 0.38819 0.14269 0.06984 0.0
C76 C 0.43321 0.07549 0.02282 0.0
O77 O 0.36496 0.14549 0.02618 0.0
O78 O 0.37532 0.10385 0.03726 0.0
O79 O 0.4355 0.13604 0.98168 0.0
O80 O 0.3929 0.14683 0.98753 0.0
C81 C 0.45996 0.12093 0.06433 0.0
O82 O 0.42361 0.08276 0.04371 0.0
O83 O 0.43528 0.09275 1.00592 0.0
C84 C 0.35878 0.12068 0.02786 0.0
O85 O 0.43582 0.12403 0.07161 0.0
O86 O 0.46516 0.11573 0.04167 0.0
C87 C 0.45065 0.18113 0.01294 0.0
Fe88 Fe 0.11319 0.87052 0.24825 0.0
Fe89 Fe 0.16072 0.86315 0.21244 0.0
O90 O 0.14134 0.85164 0.23815 0.0
Fe91 Fe 0.15024 0.82149 0.25355 0.0
O92 O 0.11787 0.80641 0.2477 0.0
O93 O 0.0935 0.84134 0.25904 0.0
O94 O 0.09701 0.86613 0.21844 0.0
C95 C 0.1069 0.87391 0.19811 0.0
C96 C 0.13523 0.85697 0.29298 0.0
O97 O 0.13182 0.88014 0.19668 0.0
C98 C 0.2004 0.8374 0.24356 0.0
O99 O 0.12794 0.90313 0.23943 0.0
O100 O 0.17013 0.89436 0.22916 0.0
O101 O 0.14002 0.83344 0.28463 0.0
O102 O 0.12768 0.8757 0.27868 0.0
C103 C 0.15551 0.80896 0.20221 0.0
O104 O 0.19287 0.84667 0.22262 0.0
O105 O 0.18321 0.83494 0.26046 0.0
C106 C 0.1525 0.91038 0.23815 0.0
O107 O 0.15186 0.83302 0.19487 0.0
O108 O 0.16136 0.80405 0.2248 0.0
C109 C 0.09554 0.81651 0.25374 0.0
Fe110 Fe 0.39859 0.86266 0.49845 0.0
Fe111 Fe 0.41542 0.91051 0.465 0.0
O112 O 0.42237 0.88763 0.48968 0.0
Fe113 Fe 0.45364 0.88879 0.50559 0.0
O114 O 0.45461 0.85307 0.51341 0.0
O115 O 0.42216 0.83552 0.49118 0.0
O116 O 0.38441 0.85776 0.4674 0.0
C117 C 0.39476 0.86232 0.44639 0.0
C118 C 0.41899 0.88178 0.54425 0.0
O119 O 0.40969 0.88271 0.44318 0.0
C120 C 0.44344 0.94391 0.49673 0.0
O121 O 0.37389 0.88795 0.50607 0.0
O122 O 0.37849 0.91358 0.47274 0.0
O123 O 0.43681 0.89689 0.53472 0.0
O124 O 0.40798 0.86327 0.53146 0.0
C125 C 0.47038 0.89427 0.45729 0.0
O126 O 0.42177 0.94049 0.48452 0.0
O127 O 0.45913 0.92448 0.50097 0.0
C128 C 0.36511 0.90625 0.49195 0.0
O129 O 0.45084 0.91061 0.45341 0.0
O130 O 0.47184 0.8808 0.47724 0.0
C131 C 0.44473 0.83339 0.50177 0.0
Fe132 Fe 0.37291 0.1999 0.75065 0.0
Fe133 Fe 0.40903 0.15035 0.74396 0.0
O134 O 0.38133 0.17019 0.73432 0.0
Fe135 Fe 0.36197 0.16013 0.70816 0.0
O136 O 0.37134 0.19079 0.69165 0.0
O137 O 0.36226 0.21871 0.7225 0.0
O138 O 0.40558 0.21444 0.7453 0.0
C139 C 0.42771 0.20372 0.75102 0.0
C140 C 0.32249 0.18555 0.73992 0.0
O141 O 0.42921 0.17873 0.75585 0.0
C142 C 0.36938 0.11139 0.73137 0.0
O143 O 0.3828 0.18653 0.78132 0.0
O144 O 0.39416 0.14423 0.77405 0.0
O145 O 0.33 0.17671 0.7188 0.0
O146 O 0.33957 0.187 0.75701 0.0
C147 C 0.41596 0.14856 0.69389 0.0
O148 O 0.39393 0.11832 0.73382 0.0
O149 O 0.35195 0.12842 0.72377 0.0
C150 C 0.38716 0.16262 0.78893 0.0
O151 O 0.42557 0.15556 0.71456 0.0
O152 O 0.39082 0.14336 0.69184 0.0
C153 C 0.36792 0.21459 0.69975 0.0
Fe154 Fe 0.11318 0.11378 0.96058 0.0
Fe155 Fe 0.0718 0.12375 1.00204 0.0
O156 O 0.10156 0.13313 0.98625 0.0
Fe157 Fe 0.11999 0.16171 0.99598 0.0
O158 O 0.11488 0.17765 0.96612 0.0
O159 O 0.12932 0.14296 0.94439 0.0
O160 O 0.08274 0.12178 0.94321 0.0
C161 C 0.05882 0.11783 0.95075 0.0
C162 C 0.16084 0.1233 0.98493 0.0
O163 O 0.05416 0.11232 0.97347 0.0
C164 C 0.10745 0.13985 0.04106 0.0
O165 O 0.09751 0.08138 0.97107 0.0
O166 O 0.08598 0.09105 0.00892 0.0
O167 O 0.15283 0.14761 0.98682 0.0
O168 O 0.14476 0.10516 0.97704 0.0
C169 C 0.06569 0.17829 1.00203 0.0
O170 O 0.08397 0.13433 0.03296 0.0
O171 O 0.12586 0.14755 0.02648 0.0
C172 C 0.08845 0.07382 0.99206 0.0
O173 O 0.056 0.15575 0.99625 0.0
O174 O 0.09054 0.1809 1.007 0.0
C175 C 0.12275 0.16782 0.94578 0.0
Fe176 Fe 0.86623 0.86636 0.70913 0.0
Fe177 Fe 0.91393 0.87887 0.7441 0.0
O178 O 0.88736 0.85733 0.7346 0.0
Fe179 Fe 0.88167 0.82688 0.75073 0.0
O180 O 0.87054 0.80782 0.72296 0.0
O181 O 0.8761 0.83629 0.69189 0.0
O182 O 0.89351 0.88459 0.69195 0.0
C183 C 0.91903 0.88146 0.69369 0.0
C184 C 0.82985 0.83977 0.74292 0.0
O185 O 0.9297 0.87569 0.71423 0.0
C186 C 0.89478 0.86384 0.78941 0.0
O187 O 0.85515 0.89731 0.72498 0.0
O188 O 0.89629 0.91018 0.73539 0.0
O189 O 0.84824 0.83785 0.75879 0.0
O190 O 0.83556 0.84845 0.72125 0.0
C191 C 0.93626 0.82638 0.74966 0.0
O192 O 0.89977 0.88315 0.77487 0.0
O193 O 0.89227 0.83996 0.78119 0.0
C194 C 0.87127 0.91511 0.73325 0.0
O195 O 0.93651 0.85145 0.75449 0.0
O196 O 0.9148 0.81446 0.74388 0.0
C197 C 0.87434 0.81235 0.69999 0.0
Fe198 Fe 0.95161 0.11968 0.50105 0.0
Fe199 Fe 0.90982 0.11009 0.45998 0.0
O200 O 0.92198 0.12971 0.48531 0.0
Fe201 Fe 0.90433 0.1589 0.49477 0.0
O202 O 0.93477 0.17803 0.5038 0.0
O203 O 0.96829 0.15077 0.49429 0.0
O204 O 0.96845 0.10712 0.47249 0.0
C205 C 0.96404 0.11322 0.44986 0.0
C206 C 0.91759 0.13836 0.54028 0.0
O207 O 0.94018 0.11765 0.4423 0.0
C208 C 0.86323 0.12013 0.48617 0.0
O209 O 0.93626 0.0877 0.50866 0.0
O210 O 0.92529 0.07766 0.47084 0.0
O211 O 0.89927 0.14614 0.52577 0.0
O212 O 0.94061 0.1315 0.532 0.0
C213 C 0.89903 0.16408 0.44471 0.0
O214 O 0.87854 0.10204 0.47694 0.0
O215 O 0.87104 0.14458 0.48736 0.0
C216 C 0.93392 0.07019 0.49204 0.0
O217 O 0.89348 0.13898 0.44345 0.0
O218 O 0.90811 0.17391 0.46454 0.0
C219 C 0.95938 0.17408 0.49824 0.0
Fe220 Fe 0.64825 0.19864 0.25103 0.0
Fe221 Fe 0.65892 0.15779 0.20928 0.0
O222 O 0.63958 0.16869 0.23522 0.0
Fe223 Fe 0.61171 0.14936 0.24526 0.0
O224 O 0.59182 0.17825 0.25672 0.0
O225 O 0.61572 0.2135 0.24552 0.0
O226 O 0.659 0.21676 0.22252 0.0
C227 C 0.65383 0.21203 0.19977 0.0
C228 C 0.63387 0.16227 0.28999 0.0
O229 O 0.65012 0.18812 0.19217 0.0
C230 C 0.65089 0.10962 0.233 0.0
O231 O 0.68142 0.1854 0.25759 0.0
O232 O 0.69102 0.17408 0.21963 0.0
O233 O 0.6266 0.14368 0.27544 0.0
O234 O 0.63832 0.186 0.28196 0.0
C235 C 0.60484 0.14681 0.19519 0.0
O236 O 0.66851 0.12633 0.22535 0.0
O237 O 0.62646 0.11691 0.23562 0.0
C238 C 0.69854 0.18331 0.24058 0.0
O239 O 0.6299 0.14118 0.19325 0.0
O240 O 0.59522 0.15418 0.21577 0.0
C241 C 0.59354 0.20318 0.25164 0.0
Fe242 Fe 0.57534 0.90229 1.0032 0.0
Fe243 Fe 0.61697 0.91452 0.96277 0.0
O244 O 0.60507 0.89351 0.98716 0.0
Fe245 Fe 0.62296 0.86406 0.99552 0.0
O246 O 0.59258 0.84461 1.00423 0.0
O247 O 0.55899 0.87164 0.99439 0.0
O248 O 0.5585 0.91703 0.97557 0.0
C249 C 0.56275 0.91224 0.95269 0.0
C250 C 0.60946 0.88242 0.04166 0.0
O251 O 0.58652 0.90812 0.94487 0.0
C252 C 0.66428 0.90291 0.98704 0.0
O253 O 0.59066 0.93351 0.01274 0.0
O254 O 0.60169 0.94644 0.97558 0.0
O255 O 0.62818 0.87579 0.02701 0.0
O256 O 0.58621 0.88843 0.03339 0.0
C257 C 0.62685 0.86116 0.94504 0.0
O258 O 0.64837 0.92151 0.97982 0.0
O259 O 0.65629 0.8785 0.98803 0.0
C260 C 0.59327 0.95228 0.99734 0.0
O261 O 0.63296 0.88623 0.94474 0.0
O262 O 0.61868 0.85036 0.96481 0.0
C263 C 0.56818 0.84833 0.99781 0.0
Fe264 Fe 0.90981 0.15331 0.77057 0.0
Fe265 Fe 0.87045 0.20036 0.76339 0.0
O266 O 0.88023 0.17077 0.77936 0.0
Fe267 Fe 0.86016 0.15857 0.80438 0.0
O268 O 0.88879 0.14243 0.82148 0.0
O269 O 0.92397 0.15758 0.80111 0.0
O270 O 0.92893 0.18384 0.76175 0.0
C271 C 0.92476 0.2084 0.76734 0.0
C272 C 0.87122 0.11182 0.77887 0.0
O273 O 0.9013 0.21718 0.77076 0.0
C274 C 0.8208 0.18252 0.77152 0.0
O275 O 0.89784 0.148 0.73934 0.0
O276 O 0.883 0.18924 0.73272 0.0
O277 O 0.85281 0.12718 0.78745 0.0
O278 O 0.89562 0.11984 0.77782 0.0
C279 C 0.86264 0.21289 0.81441 0.0
O280 O 0.83863 0.185 0.75519 0.0
O281 O 0.82787 0.17382 0.79282 0.0
C282 C 0.89016 0.16621 0.72465 0.0
O283 O 0.85718 0.21724 0.79164 0.0
O284 O 0.86705 0.18908 0.82212 0.0
C285 C 0.9137 0.14883 0.82088 0.0
Fe286 Fe 0.6175 0.11501 0.55532 0.0
Fe287 Fe 0.62449 0.16293 0.51978 0.0
O288 O 0.60581 0.13462 0.5298 0.0
Fe289 Fe 0.57577 0.12556 0.51425 0.0
O290 O 0.55843 0.11417 0.54291 0.0
O291 O 0.5873 0.12333 0.573 0.0
O292 O 0.63418 0.14383 0.57146 0.0
C293 C 0.62938 0.16906 0.56971 0.0
C294 C 0.59202 0.07543 0.52395 0.0
O295 O 0.62074 0.17893 0.54965 0.0
C296 C 0.61097 0.14115 0.47491 0.0
O297 O 0.64888 0.10604 0.53855 0.0
O298 O 0.65718 0.14829 0.52827 0.0
O299 O 0.58957 0.09274 0.50715 0.0
O300 O 0.60137 0.08285 0.54487 0.0
C301 C 0.57017 0.18023 0.51465 0.0
O302 O 0.62956 0.14874 0.48927 0.0
O303 O 0.5875 0.13608 0.48319 0.0
C304 C 0.66491 0.12391 0.53 0.0
O305 O 0.59501 0.18267 0.50945 0.0
O306 O 0.56035 0.15768 0.52028 0.0
C307 C 0.56329 0.11962 0.56558 0.0
Fe308 Fe 0.61405 0.87005 0.27335 0.0
Fe309 Fe 0.65288 0.82305 0.26531 0.0
O310 O 0.64399 0.85284 0.28118 0.0
Fe311 Fe 0.66532 0.86545 0.30501 0.0
O312 O 0.63725 0.8812 0.32323 0.0
O313 O 0.60116 0.86546 0.30439 0.0
O314 O 0.595 0.8394 0.2649 0.0
C315 C 0.59911 0.81505 0.27124 0.0
C316 C 0.65218 0.91231 0.28089 0.0
O317 O 0.62256 0.80627 0.27465 0.0
C318 C 0.70269 0.842 0.27011 0.0
O319 O 0.6251 0.87543 0.2417 0.0
O320 O 0.63842 0.83362 0.23521 0.0
O321 O 0.67141 0.89683 0.28753 0.0
O322 O 0.62798 0.90364 0.28053 0.0
C323 C 0.66345 0.8113 0.31582 0.0
O324 O 0.68366 0.8387 0.25513 0.0
O325 O 0.69718 0.85048 0.2919 0.0
C326 C 0.63203 0.85683 0.227 0.0
O327 O 0.66828 0.80672 0.29298 0.0
O328 O 0.65956 0.83521 0.32334 0.0
C329 C 0.61251 0.87408 0.32373 0.0
Fe330 Fe 0.95124 0.8861 0.01405 0.0
Fe331 Fe 0.91218 0.90848 0.05357 0.0
O332 O 0.91954 0.88533 0.02923 0.0
Fe333 Fe 0.89572 0.86059 0.02008 0.0
O334 O 0.91883 0.83313 0.02784 0.0
O335 O 0.95207 0.85036 1.00635 0.0
O336 O 0.96852 0.87803 0.04288 0.0
C337 C 0.96662 0.89181 0.06262 0.0
C338 C 0.91746 0.87937 0.97469 0.0
O339 O 0.94728 0.90852 0.06577 0.0
C340 C 0.86247 0.90448 0.02585 0.0
O341 O 0.95696 0.92179 0.01864 0.0
O342 O 0.91914 0.93819 0.03383 0.0
O343 O 0.90593 0.861 0.98728 0.0
O344 O 0.93528 0.89424 0.98452 0.0
C345 C 0.89059 0.86067 0.07211 0.0
O346 O 0.87549 0.91172 0.04525 0.0
O347 O 0.87144 0.88612 0.01189 0.0
C348 C 0.94115 0.94132 0.02205 0.0
O349 O 0.90578 0.88086 0.07548 0.0
O350 O 0.88078 0.85603 0.05089 0.0
C351 C 0.94158 0.83071 0.01759 0.0
Fe352 Fe 0.61405 0.65277 0.76911 0.0
Fe353 Fe 0.66158 0.66095 0.8048 0.0
O354 O 0.64206 0.67199 0.77898 0.0
Fe355 Fe 0.65071 0.70199 0.76322 0.0
O356 O 0.6183 0.71688 0.76904 0.0
O357 O 0.59399 0.68173 0.75827 0.0
O358 O 0.59793 0.65724 0.79888 0.0
C359 C 0.60785 0.64968 0.81925 0.0
C360 C 0.63543 0.66602 0.72407 0.0
O361 O 0.63287 0.64388 0.82082 0.0
C362 C 0.70103 0.68613 0.7732 0.0
O363 O 0.62925 0.62037 0.77802 0.0
O364 O 0.67129 0.62975 0.78834 0.0
O365 O 0.64045 0.68962 0.73218 0.0
O366 O 0.62834 0.64743 0.73866 0.0
C367 C 0.6561 0.71527 0.81459 0.0
O368 O 0.6935 0.67742 0.79432 0.0
O369 O 0.68381 0.6887 0.75634 0.0
C370 C 0.65396 0.61358 0.77923 0.0
O371 O 0.65259 0.69125 0.82214 0.0
O372 O 0.66169 0.71993 0.79186 0.0
C373 C 0.59597 0.7066 0.7634 0.0
Fe374 Fe 0.61553 0.41057 0.0555 0.0
Fe375 Fe 0.57399 0.39966 0.01445 0.0
O376 O 0.60456 0.39138 0.02948 0.0
Fe377 Fe 0.62426 0.36409 0.01865 0.0
O378 O 0.62117 0.34721 0.04815 0.0
O379 O 0.63352 0.38195 0.07077 0.0
O380 O 0.58583 0.40046 0.07301 0.0
C381 C 0.56169 0.40397 0.06589 0.0
C382 C 0.66281 0.40467 0.02932 0.0
O383 O 0.55654 0.41004 0.04342 0.0
C384 C 0.60925 0.38624 0.97446 0.0
O385 O 0.59808 0.44243 0.04576 0.0
O386 O 0.58646 0.43309 1.00779 0.0
O387 O 0.6566 0.3799 0.02697 0.0
O388 O 0.64624 0.42129 0.03897 0.0
C389 C 0.57056 0.34481 0.01382 0.0
O390 O 0.58571 0.39013 0.98312 0.0
O391 O 0.62838 0.37924 0.98846 0.0
C392 C 0.5887 0.45009 0.02489 0.0
O393 O 0.55995 0.36682 0.02013 0.0
O394 O 0.5954 0.34349 0.00819 0.0
C395 C 0.62867 0.35678 0.06867 0.0
Fe396 Fe 0.86075 0.361 0.30173 0.0
Fe397 Fe 0.88364 0.32239 0.26199 0.0
O398 O 0.88428 0.35384 0.27764 0.0
Fe399 Fe 0.90928 0.37776 0.26921 0.0
O400 O 0.91302 0.39238 0.30021 0.0
O401 O 0.88803 0.36682 0.32406 0.0
O402 O 0.86035 0.32581 0.31358 0.0
C403 C 0.87646 0.30599 0.31024 0.0
C404 C 0.86523 0.4109 0.27433 0.0
O405 O 0.8905 0.30422 0.29064 0.0
C406 C 0.89193 0.35667 0.22318 0.0
O407 O 0.83131 0.35445 0.28162 0.0
O408 O 0.84779 0.31705 0.26553 0.0
O409 O 0.88393 0.4021 0.26065 0.0
O410 O 0.8578 0.39783 0.29367 0.0
C411 C 0.93905 0.33186 0.26708 0.0
O412 O 0.87658 0.33893 0.23249 0.0
O413 O 0.90992 0.36793 0.23636 0.0
C414 C 0.82825 0.33275 0.26935 0.0
O415 O 0.91966 0.32139 0.25538 0.0
O416 O 0.93645 0.35457 0.27735 0.0
C417 C 0.90843 0.38177 0.3211 0.0
Fe418 Fe 0.89624 0.66164 0.51993 0.0
Fe419 Fe 0.91335 0.61385 0.5533 0.0
O420 O 0.92036 0.63696 0.52884 0.0
Fe421 Fe 0.95191 0.63624 0.51327 0.0
O422 O 0.95258 0.67208 0.50588 0.0
O423 O 0.91931 0.6891 0.52755 0.0
O424 O 0.88169 0.66615 0.55082 0.0
C425 C 0.89211 0.66186 0.57184 0.0
C426 C 0.91746 0.64324 0.47432 0.0
O427 O 0.90706 0.6415 0.57528 0.0
C428 C 0.94225 0.58092 0.5216 0.0
O429 O 0.87186 0.63599 0.5119 0.0
O430 O 0.87666 0.61056 0.54532 0.0
O431 O 0.93552 0.62837 0.48384 0.0
O432 O 0.90608 0.66149 0.48712 0.0
C433 C 0.96809 0.63014 0.5617 0.0
O434 O 0.92034 0.58403 0.53361 0.0
O435 O 0.9577 0.60055 0.51753 0.0
C436 C 0.86329 0.61762 0.52607 0.0
O437 O 0.94843 0.61393 0.56515 0.0
O438 O 0.9699 0.64388 0.5419 0.0
C439 C 0.94205 0.6916 0.51733 0.0
Fe440 Fe 0.61026 0.37641 0.74433 0.0
Fe441 Fe 0.65945 0.36809 0.71068 0.0
O442 O 0.6385 0.35705 0.73547 0.0
Fe443 Fe 0.64593 0.32692 0.75141 0.0
O444 O 0.61373 0.31232 0.74393 0.0
O445 O 0.58974 0.34763 0.75484 0.0
O446 O 0.59544 0.37174 0.71417 0.0
C447 C 0.60613 0.37917 0.69407 0.0
C448 C 0.62994 0.36312 0.78981 0.0
O449 O 0.63128 0.38491 0.69329 0.0
C450 C 0.69685 0.34224 0.74423 0.0
O451 O 0.62558 0.40867 0.73547 0.0
O452 O 0.66817 0.39947 0.7275 0.0
O453 O 0.63409 0.33929 0.78187 0.0
O454 O 0.62363 0.38188 0.77508 0.0
C455 C 0.65414 0.31398 0.70056 0.0
O456 O 0.69102 0.3514 0.72274 0.0
O457 O 0.67838 0.34014 0.75996 0.0
C458 C 0.65013 0.41595 0.73494 0.0
O459 O 0.65135 0.33801 0.69299 0.0
O460 O 0.65866 0.30907 0.72339 0.0
C461 C 0.5914 0.32281 0.74937 0.0
Fe462 Fe 0.89424 0.36433 0.99295 0.0
Fe463 Fe 0.90677 0.41228 0.9583 0.0
O464 O 0.91575 0.3909 0.98353 0.0
Fe465 Fe 0.94633 0.39617 0.99942 0.0
O466 O 0.95843 0.3632 0.99148 0.0
O467 O 0.92175 0.34158 1.00286 0.0
O468 O 0.89705 0.34884 0.96291 0.0
C469 C 0.89135 0.35975 0.94247 0.0
C470 C 0.90984 0.38256 0.03828 0.0
O471 O 0.88823 0.38531 0.94096 0.0
C472 C 0.93396 0.44804 0.9925 0.0
O473 O 0.86301 0.38225 0.98472 0.0
O474 O 0.87592 0.42344 0.97437 0.0
O475 O 0.93367 0.38476 0.02985 0.0
O476 O 0.89034 0.3782 0.02382 0.0
C477 C 0.96068 0.40393 0.94884 0.0
O478 O 0.92512 0.44271 0.97075 0.0
O479 O 0.93536 0.42939 0.00818 0.0
C480 C 0.8582 0.40733 0.98286 0.0
O481 O 0.93669 0.40209 0.94089 0.0
O482 O 0.96512 0.40808 0.97176 0.0
C483 C 0.94651 0.34157 0.99679 0.0
Fe484 Fe 0.91064 0.64542 0.24506 0.0
Fe485 Fe 0.8639 0.65627 0.20903 0.0
O486 O 0.88371 0.6661 0.23496 0.0
Fe487 Fe 0.87649 0.69644 0.25071 0.0
O488 O 0.90959 0.70961 0.24477 0.0
O489 O 0.9319 0.6734 0.25631 0.0
O490 O 0.9273 0.6493 0.21559 0.0
C491 C 0.91737 0.64258 0.19498 0.0
C492 C 0.88957 0.65972 0.28979 0.0
O493 O 0.89207 0.63827 0.19294 0.0
C494 C 0.82547 0.68316 0.24072 0.0
O495 O 0.89436 0.61368 0.23557 0.0
O496 O 0.85288 0.6253 0.22516 0.0
O497 O 0.88625 0.68356 0.28156 0.0
O498 O 0.89557 0.64061 0.27532 0.0
C499 C 0.87141 0.71035 0.19957 0.0
O500 O 0.83261 0.67398 0.21963 0.0
O501 O 0.84278 0.68485 0.25763 0.0
C502 C 0.86956 0.60778 0.23316 0.0
O503 O 0.8741 0.68631 0.19184 0.0
O504 O 0.86616 0.71498 0.22232 0.0
C505 C 0.93132 0.69829 0.25084 0.0
Fe506 Fe 0.62674 0.65907 0.49381 0.0
Fe507 Fe 0.61911 0.61079 0.45848 0.0
O508 O 0.60787 0.63074 0.48399 0.0
Fe509 Fe 0.57778 0.62184 0.49962 0.0
O510 O 0.56245 0.6536 0.49286 0.0
O511 O 0.59697 0.67953 0.50246 0.0
O512 O 0.62433 0.6745 0.46361 0.0
C513 C 0.63309 0.66431 0.4438 0.0
C514 C 0.61202 0.63903 0.53918 0.0
O515 O 0.63669 0.63891 0.4421 0.0
C516 C 0.59373 0.57167 0.49055 0.0
O517 O 0.65949 0.64325 0.48683 0.0
O518 O 0.65014 0.60138 0.47523 0.0
O519 O 0.58889 0.63311 0.53066 0.0
O520 O 0.6308 0.64602 0.52485 0.0
C521 C 0.56497 0.616 0.44845 0.0
O522 O 0.60245 0.57895 0.46932 0.0
O523 O 0.59172 0.58918 0.50723 0.0
C524 C 0.66625 0.61855 0.48477 0.0
O525 O 0.58893 0.6197 0.44079 0.0
O526 O 0.56057 0.60995 0.47107 0.0
C527 C 0.57221 0.67653 0.49696 0.0
Fe528 Fe 0.37497 0.32524 0.25088 0.0
Fe529 Fe 0.36305 0.36671 0.21002 0.0
O530 O 0.3826 0.35605 0.23591 0.0
Fe531 Fe 0.40945 0.37628 0.24687 0.0
O532 O 0.43073 0.34771 0.25693 0.0
O533 O 0.40803 0.31191 0.24488 0.0
O534 O 0.36468 0.30774 0.22194 0.0
C535 C 0.37052 0.31301 0.19944 0.0
C536 C 0.38787 0.36033 0.29102 0.0
O537 O 0.37363 0.33721 0.19238 0.0
C538 C 0.36806 0.41409 0.23641 0.0
O539 O 0.34136 0.33708 0.25785 0.0
O540 O 0.33159 0.34874 0.21997 0.0
O541 O 0.39426 0.37972 0.27711 0.0
O542 O 0.38453 0.3368 0.28222 0.0
C543 C 0.4166 0.38203 0.19701 0.0
O544 O 0.3518 0.39728 0.22661 0.0
O545 O 0.3929 0.4083 0.23888 0.0
C546 C 0.32418 0.33928 0.2409 0.0
O547 O 0.39119 0.38518 0.1946 0.0
O548 O 0.42643 0.37428 0.21736 0.0
C549 C 0.42986 0.32289 0.25113 0.0
Fe550 Fe 0.45054 0.63831 1.00179 0.0
Fe551 Fe 0.41157 0.61451 0.96291 0.0
O552 O 0.41879 0.63829 0.98676 0.0
Fe553 Fe 0.39462 0.66312 0.9954 0.0
O554 O 0.41708 0.69048 0.98602 0.0
O555 O 0.45093 0.67439 1.00753 0.0
O556 O 0.46785 0.64496 0.97273 0.0
C557 C 0.46594 0.63081 0.95326 0.0
C558 C 0.41728 0.64719 0.04124 0.0
O559 O 0.4465 0.61424 0.95034 0.0
C560 C 0.36239 0.61846 0.99145 0.0
O561 O 0.45632 0.60243 0.99878 0.0
O562 O 0.41903 0.58527 0.98307 0.0
O563 O 0.4054 0.66475 0.028 0.0
O564 O 0.43485 0.63172 0.03177 0.0
C565 C 0.38905 0.66157 0.94366 0.0
O566 O 0.37504 0.61123 0.9718 0.0
O567 O 0.37118 0.63736 1.00492 0.0
C568 C 0.44093 0.58262 0.99514 0.0
O569 O 0.40479 0.64173 0.94054 0.0
O570 O 0.37885 0.66588 0.96477 0.0
C571 C 0.44079 0.69273 0.9943 0.0
Fe572 Fe 0.1628 0.66046 0.71204 0.0
Fe573 Fe 0.11553 0.65054 0.74768 0.0
O574 O 0.14326 0.67047 0.73814 0.0
Fe575 Fe 0.15184 0.70007 0.75466 0.0
O576 O 0.16253 0.719 0.7265 0.0
O577 O 0.15357 0.69116 0.69557 0.0
O578 O 0.13418 0.64383 0.6955 0.0
C579 C 0.10893 0.6484 0.69755 0.0
C580 C 0.20223 0.68522 0.744 0.0
O581 O 0.09915 0.65532 0.71816 0.0
C582 C 0.13709 0.66295 0.7929 0.0
O583 O 0.17276 0.62876 0.72762 0.0
O584 O 0.13091 0.6184 0.73791 0.0
O585 O 0.18508 0.68681 0.76102 0.0
O586 O 0.19468 0.67683 0.72279 0.0
C587 C 0.09709 0.70423 0.75504 0.0
O588 O 0.13005 0.64463 0.77799 0.0
O589 O 0.14187 0.68675 0.78529 0.0
C590 C 0.15552 0.61169 0.73539 0.0
O591 O 0.09515 0.67908 0.75905 0.0
O592 O 0.11929 0.71495 0.74962 0.0
C593 C 0.15706 0.71494 0.70368 0.0
Fe594 Fe 0.11269 0.40921 0.45873 0.0
Fe595 Fe 0.13047 0.36205 0.49249 0.0
O596 O 0.10592 0.38624 0.48335 0.0
Fe597 Fe 0.07439 0.38651 0.49889 0.0
O598 O 0.05641 0.37874 0.47025 0.0
O599 O 0.07775 0.40831 0.44648 0.0
O600 O 0.11988 0.38145 0.43714 0.0
C601 C 0.13602 0.36206 0.44065 0.0
C602 C 0.08262 0.44216 0.48942 0.0
O603 O 0.14602 0.35822 0.46189 0.0
C604 C 0.10813 0.37899 0.53819 0.0
O605 O 0.14924 0.41351 0.46733 0.0
O606 O 0.15379 0.38834 0.50101 0.0
O607 O 0.06808 0.4222 0.49478 0.0
O608 O 0.1047 0.43916 0.4777 0.0
C609 C 0.08546 0.33116 0.49469 0.0
O610 O 0.12008 0.36136 0.52515 0.0
O611 O 0.09065 0.39439 0.52846 0.0
C612 C 0.1622 0.40696 0.48701 0.0
O613 O 0.10818 0.33409 0.48444 0.0
O614 O 0.07428 0.35055 0.50587 0.0
C615 C 0.05801 0.39233 0.45036 0.0
Fe616 Fe 0.41253 0.64258 0.27248 0.0
Fe617 Fe 0.38846 0.69907 0.26682 0.0
O618 O 0.38823 0.66712 0.28157 0.0
Fe619 Fe 0.36473 0.66001 0.30564 0.0
O620 O 0.39222 0.65305 0.32763 0.0
O621 O 0.41541 0.62664 0.30303 0.0
O622 O 0.44037 0.66454 0.28167 0.0
C623 C 0.44288 0.68837 0.27371 0.0
C624 C 0.36777 0.61071 0.27709 0.0
O625 O 0.42451 0.69913 0.26092 0.0
C626 C 0.33277 0.68965 0.2737 0.0
O627 O 0.41399 0.65361 0.23998 0.0
O628 O 0.38156 0.68378 0.23671 0.0
O629 O 0.36118 0.62353 0.29683 0.0
O630 O 0.38625 0.61945 0.26308 0.0
C631 C 0.38114 0.71442 0.31545 0.0
O632 O 0.35262 0.70501 0.27005 0.0
O633 O 0.33536 0.66769 0.28573 0.0
C634 C 0.39664 0.66606 0.22697 0.0
O635 O 0.39538 0.71626 0.29601 0.0
O636 O 0.36468 0.69488 0.3183 0.0
C637 C 0.41178 0.63703 0.32417 0.0
Fe638 Fe 0.12456 0.65801 0.02285 0.0
Fe639 Fe 0.07651 0.61993 0.01599 0.0
O640 O 0.10629 0.62904 0.03192 0.0
Fe641 Fe 0.11798 0.60872 0.0569 0.0
O642 O 0.13456 0.63709 0.07401 0.0
O643 O 0.12091 0.67275 0.05319 0.0
O644 O 0.09446 0.6778 0.01376 0.0
C645 C 0.06979 0.67438 0.01943 0.0
C646 C 0.16531 0.61871 0.03218 0.0
O647 O 0.06049 0.65123 0.02335 0.0
C648 C 0.09357 0.56987 0.02397 0.0
O649 O 0.1296 0.64531 0.99181 0.0
O650 O 0.08783 0.63213 0.98534 0.0
O651 O 0.14919 0.60058 0.03994 0.0
O652 O 0.15767 0.64319 0.03051 0.0
C653 C 0.06387 0.61228 0.06697 0.0
O654 O 0.09116 0.58779 1.00772 0.0
O655 O 0.10218 0.57676 0.04534 0.0
C656 C 0.11115 0.63803 0.97721 0.0
O657 O 0.05937 0.60701 0.0442 0.0
O658 O 0.08772 0.61628 0.07463 0.0
C659 C 0.12989 0.66241 0.07286 0.0
Fe660 Fe 0.15888 0.36398 0.80257 0.0
Fe661 Fe 0.11048 0.38229 0.77048 0.0
O662 O 0.13492 0.35763 0.77865 0.0
Fe663 Fe 0.13446 0.32626 0.76298 0.0
O664 O 0.12723 0.3084 0.79174 0.0
O665 O 0.15842 0.32875 0.81444 0.0
O666 O 0.13189 0.37071 0.8251 0.0
C667 C 0.11212 0.3866 0.82232 0.0
C668 C 0.19033 0.33455 0.77004 0.0
O669 O 0.10771 0.39724 0.80143 0.0
C670 C 0.12622 0.36048 0.72418 0.0
O671 O 0.16281 0.40073 0.79438 0.0
O672 O 0.13647 0.40576 0.76155 0.0
O673 O 0.1702 0.31967 0.76616 0.0
O674 O 0.18801 0.3564 0.78227 0.0
C675 C 0.07939 0.33737 0.76861 0.0
O676 O 0.1089 0.37238 0.73766 0.0
O677 O 0.14165 0.3427 0.7334 0.0
C678 C 0.1555 0.41405 0.77511 0.0
O679 O 0.08271 0.35993 0.77902 0.0
O680 O 0.09837 0.32641 0.75673 0.0
C681 C 0.14145 0.30967 0.81125 0.0
Fe682 Fe 0.44704 0.39707 0.51378 0.0
Fe683 Fe 0.40684 0.41402 0.55409 0.0
O684 O 0.41656 0.39169 0.52989 0.0
Fe685 Fe 0.39564 0.36423 0.5216 0.0
O686 O 0.42363 0.3417 0.51228 0.0
O687 O 0.45989 0.3646 0.52256 0.0
O688 O 0.46552 0.41015 0.54118 0.0
C689 C 0.46075 0.407 0.5642 0.0
C690 C 0.41055 0.38144 0.47567 0.0
O691 O 0.4367 0.40521 0.57201 0.0
C692 C 0.35827 0.40663 0.53037 0.0
O693 O 0.43557 0.42984 0.50403 0.0
O694 O 0.42474 0.44426 0.54088 0.0
O695 O 0.39135 0.37678 0.49039 0.0
O696 O 0.43444 0.38453 0.48371 0.0
C697 C 0.39129 0.3618 0.57178 0.0
O698 O 0.37591 0.42377 0.5372 0.0
O699 O 0.36401 0.38166 0.52951 0.0
C700 C 0.4339 0.44897 0.51916 0.0
O701 O 0.38871 0.38748 0.5724 0.0
O702 O 0.3986 0.35006 0.55216 0.0
C703 C 0.44848 0.34252 0.51796 0.0
H704 H 0.11541 0.07442 0.26061 0.0
H705 H 0.19924 0.07884 0.28286 0.0
H706 H 0.12063 0.02697 0.25119 0.0
H707 H 0.20441 0.03024 0.27306 0.0
H708 H 0.19406 0.94514 0.22291 0.0
H709 H 0.19839 0.99375 0.23314 0.0
H710 H 0.12935 0.98751 0.28173 0.0
H711 H 0.12503 0.93996 0.27179 0.0
C712 C 0.1351 0.06536 0.26354 0.0
C713 C 0.15678 0.08069 0.27302 0.0
C714 C 0.13805 0.03795 0.25803 0.0
C715 C 0.16281 0.02464 0.26162 0.0
C716 C 0.18504 0.03993 0.27009 0.0
C717 C 0.18203 0.06772 0.27582 0.0
C718 C 0.18017 0.95414 0.23608 0.0
C719 C 0.15885 0.93868 0.24609 0.0
C720 C 0.18267 0.98193 0.24198 0.0
C721 C 0.16392 0.99461 0.25797 0.0
C722 C 0.14384 0.97859 0.26903 0.0
C723 C 0.14135 0.95122 0.26323 0.0
H724 H 0.3249 0.9228 0.45908 0.0
H725 H 0.34115 0.90978 0.53697 0.0
H726 H 0.27619 0.92667 0.46857 0.0
H727 H 0.29312 0.91314 0.54613 0.0
H728 H 0.20986 0.86851 0.53865 0.0
H729 H 0.25719 0.8758 0.52822 0.0
H730 H 0.23823 0.95556 0.50096 0.0
H731 H 0.19026 0.94851 0.51205 0.0
C732 C 0.31828 0.92167 0.47823 0.0
C733 C 0.33699 0.91575 0.49721 0.0
C734 C 0.29039 0.92377 0.48366 0.0
C735 C 0.28084 0.91988 0.50809 0.0
C736 C 0.2998 0.916 0.52713 0.0
C737 C 0.32738 0.91412 0.52182 0.0
C738 C 0.21563 0.88771 0.53055 0.0
C739 C 0.19617 0.90798 0.52635 0.0
C740 C 0.24282 0.89187 0.52456 0.0
C741 C 0.25146 0.91621 0.51371 0.0
C742 C 0.23212 0.93655 0.5092 0.0
C743 C 0.20476 0.93259 0.51575 0.0
H744 H 0.32306 0.08781 0.75136 0.0
H745 H 0.40179 0.06883 0.72151 0.0
H746 H 0.31843 0.04046 0.76556 0.0
H747 H 0.39718 0.02239 0.73535 0.0
H748 H 0.40283 0.9602 0.79464 0.0
H749 H 0.39741 1.0064 0.78045 0.0
H750 H 0.31891 0.98689 0.75057 0.0
H751 H 0.32437 0.93973 0.76512 0.0
C752 C 0.33899 0.07346 0.74723 0.0
C753 C 0.36292 0.08223 0.73552 0.0
C754 C 0.33639 0.04639 0.75543 0.0
C755 C 0.3577 0.02776 0.75205 0.0
C756 C 0.38062 0.03627 0.73877 0.0
C757 C 0.38321 0.06297 0.73073 0.0
C758 C 0.38416 0.96565 0.78537 0.0
C759 C 0.36418 0.94605 0.7808 0.0
C760 C 0.3811 0.99223 0.77713 0.0
C761 C 0.35799 1.00029 0.76388 0.0
C762 C 0.33701 0.9813 0.76066 0.0
C763 C 0.34009 0.95434 0.76905 0.0
H764 H 0.3339 0.13931 0.98698 0.0
H765 H 0.3213 0.08513 0.0487 0.0
H766 H 0.28679 0.1349 0.97514 0.0
H767 H 0.27314 0.08101 0.03693 0.0
H768 H 0.18804 0.07418 0.99167 0.0
H769 H 0.23661 0.06784 1.00104 0.0
H770 H 0.24784 0.1543 0.99897 0.0
H771 H 0.20058 0.16062 0.98976 0.0
C772 C 0.32108 0.12606 0.99785 0.0
C773 C 0.33133 0.11286 0.01898 0.0
C774 C 0.29398 0.12357 0.99106 0.0
C775 C 0.27598 0.10803 1.00533 0.0
C776 C 0.28649 0.09315 0.02553 0.0
C777 C 0.31403 0.09549 0.03228 0.0
C778 C 0.20101 0.09174 0.99308 0.0
C779 C 0.19021 0.1179 0.98974 0.0
C780 C 0.22876 0.08812 0.99863 0.0
C781 C 0.24622 0.11057 1.00053 0.0
C782 C 0.23521 0.13651 0.99728 0.0
C783 C 0.20785 0.1401 0.99204 0.0
H784 H 0.86428 0.95656 0.70052 0.0
H785 H 0.86015 0.93694 0.77839 0.0
H786 H 0.85939 1.00474 0.71051 0.0
H787 H 0.85507 0.98505 0.78854 0.0
H788 H 0.83227 0.07606 0.79616 0.0
H789 H 0.82659 0.02826 0.78428 0.0
H790 H 0.89163 0.03627 0.73134 0.0
H791 H 0.89747 0.08332 0.74331 0.0
C792 C 0.8614 0.96253 0.71971 0.0
C793 C 0.86206 0.94303 0.73864 0.0
C794 C 0.85889 0.99013 0.7255 0.0
C795 C 0.85692 0.99887 0.75038 0.0
C796 C 0.85619 0.97911 0.7692 0.0
C797 C 0.85904 0.95154 0.7634 0.0
C798 C 0.84511 0.06761 0.78182 0.0
C799 C 0.86544 0.0835 0.77082 0.0
C800 C 0.84196 0.04021 0.77509 0.0
C801 C 0.8586 0.02836 0.75676 0.0
C802 C 0.87823 0.04466 0.74528 0.0
C803 C 0.88172 0.07167 0.75232 0.0
H804 H 0.83545 0.14709 0.52146 0.0
H805 H 0.82736 0.07977 0.47096 0.0
H806 H 0.78823 0.14299 0.53293 0.0
H807 H 0.77912 0.07582 0.48254 0.0
H808 H 0.69452 0.07545 0.53248 0.0
H809 H 0.74309 0.0693 0.52278 0.0
H810 H 0.74874 0.15365 0.50322 0.0
H811 H 0.70157 0.15985 0.5125 0.0
C812 C 0.82361 0.13121 0.51287 0.0
C813 C 0.83516 0.11415 0.49485 0.0
C814 C 0.79647 0.12881 0.51957 0.0
C815 C 0.77975 0.10934 0.50842 0.0
C816 C 0.79151 0.091 0.4915 0.0
C817 C 0.81906 0.09333 0.48481 0.0
C818 C 0.7062 0.09259 0.52605 0.0
C819 C 0.69393 0.11824 0.52373 0.0
C820 C 0.73394 0.08903 0.52038 0.0
C821 C 0.74986 0.11111 0.51253 0.0
C822 C 0.73728 0.13631 0.50959 0.0
C823 C 0.70997 0.1398 0.515 0.0
H824 H 0.61907 0.06794 0.2195 0.0
H825 H 0.69576 0.08493 0.25425 0.0
H826 H 0.62322 0.02063 0.23071 0.0
H827 H 0.69975 0.03687 0.26623 0.0
H828 H 0.699 0.93902 0.2658 0.0
H829 H 0.70282 0.98666 0.25252 0.0
H830 H 0.61881 0.99909 0.271 0.0
H831 H 0.61492 0.95238 0.28363 0.0
C832 C 0.63705 0.06145 0.22936 0.0
C833 C 0.65695 0.0803 0.23618 0.0
C834 C 0.63936 0.03427 0.23597 0.0
C835 C 0.66146 0.02493 0.25 0.0
C836 C 0.68239 0.04336 0.25551 0.0
C837 C 0.68016 0.07086 0.24862 0.0
C838 C 0.6815 0.9521 0.26722 0.0
C839 C 0.65654 0.94164 0.27543 0.0
C840 C 0.68368 0.97938 0.25961 0.0
C841 C 0.66094 0.99664 0.26009 0.0
C842 C 0.63655 0.98633 0.26958 0.0
C843 C 0.63436 0.95939 0.27698 0.0
H844 H 0.8385 0.90672 0.9807 0.0
H845 H 0.82257 0.92282 0.05818 0.0
H846 H 0.79057 0.9109 0.97145 0.0
H847 H 0.77399 0.92745 0.04859 0.0
H848 H 0.68821 0.94902 1.00638 0.0
H849 H 0.73644 0.95549 0.0168 0.0
H850 H 0.754 0.87551 0.98925 0.0
H851 H 0.70644 0.86882 0.97949 0.0
C852 C 0.82484 0.91185 0.99573 0.0
C853 C 0.83447 0.91412 0.02028 0.0
C854 C 0.79731 0.91422 0.99037 0.0
C855 C 0.77845 0.91918 0.0093 0.0
C856 C 0.7881 0.92369 0.0336 0.0
C857 C 0.81592 0.92113 0.03907 0.0
C858 C 0.70247 0.93296 1.00244 0.0
C859 C 0.69345 0.90844 0.992 0.0
C860 C 0.72999 0.93658 0.0086 0.0
C861 C 0.749 0.916 1.00382 0.0
C862 C 0.7399 0.89178 0.99307 0.0
C863 C 0.71258 0.88796 0.98749 0.0
H864 H 0.63132 0.58728 0.74083 0.0
H865 H 0.69222 0.57702 0.79746 0.0
H866 H 0.63573 0.54009 0.72925 0.0
H867 H 0.69642 0.52877 0.78584 0.0
H868 H 0.69948 0.44397 0.73618 0.0
H869 H 0.70621 0.49241 0.74608 0.0
H870 H 0.62045 0.50115 0.75808 0.0
H871 H 0.61368 0.4541 0.74855 0.0
C872 C 0.64597 0.57497 0.75066 0.0
C873 C 0.66106 0.58587 0.77039 0.0
C874 C 0.64853 0.54786 0.74394 0.0
C875 C 0.66612 0.53052 0.75683 0.0
C876 C 0.68273 0.54165 0.77551 0.0
C877 C 0.68028 0.56921 0.78221 0.0
C878 C 0.68215 0.45631 0.74095 0.0
C879 C 0.65599 0.44494 0.74114 0.0
C880 C 0.68603 0.48397 0.74676 0.0
C881 C 0.66379 0.5007 0.75259 0.0
C882 C 0.63798 0.48903 0.75331 0.0
C883 C 0.63415 0.46181 0.74777 0.0
H884 H 0.83559 0.40583 0.02856 0.0
H885 H 0.81833 0.42769 0.95272 0.0
H886 H 0.78786 0.4117 0.03939 0.0
H887 H 0.77023 0.43304 0.96336 0.0
H888 H 0.68894 0.38901 0.98768 0.0
H889 H 0.736 0.39662 0.97611 0.0
H890 H 0.74729 0.44512 0.04192 0.0
H891 H 0.69951 0.43796 0.05324 0.0
C892 C 0.82163 0.41267 0.01437 0.0
C893 C 0.83071 0.4167 0.98989 0.0
C894 C 0.79428 0.41604 0.02057 0.0
C895 C 0.77514 0.42281 1.00227 0.0
C896 C 0.78443 0.42781 0.97791 0.0
C897 C 0.81197 0.42498 0.97182 0.0
C898 C 0.70129 0.40177 0.99946 0.0
C899 C 0.69047 0.4129 0.02138 0.0
C900 C 0.72827 0.40624 0.99275 0.0
C901 C 0.7455 0.4215 0.00804 0.0
C902 C 0.73455 0.43326 0.02972 0.0
C903 C 0.70719 0.42931 0.03616 0.0
H904 H 0.84985 0.45229 0.30629 0.0
H905 H 0.85936 0.43278 0.22865 0.0
H906 H 0.84513 0.50048 0.2953 0.0
H907 H 0.85468 0.48029 0.21784 0.0
H908 H 0.89681 0.56394 0.21695 0.0
H909 H 0.88918 0.51661 0.227 0.0
H910 H 0.81835 0.53841 0.26934 0.0
H911 H 0.8259 0.58646 0.25873 0.0
C912 C 0.84999 0.45811 0.28689 0.0
C913 C 0.85522 0.43866 0.26839 0.0
C914 C 0.84738 0.48573 0.28058 0.0
C915 C 0.85 0.49432 0.25569 0.0
C916 C 0.85302 0.4745 0.23719 0.0
C917 C 0.85558 0.44719 0.24343 0.0
C918 C 0.87928 0.55867 0.22801 0.0
C919 C 0.86179 0.57895 0.23677 0.0
C920 C 0.87488 0.53148 0.2338 0.0
C921 C 0.8531 0.52359 0.24896 0.0
C922 C 0.83532 0.5438 0.25765 0.0
C923 C 0.83945 0.57123 0.25135 0.0
H924 H 0.70161 0.58106 0.46437 0.0
H925 H 0.69419 0.63958 0.52341 0.0
H926 H 0.74938 0.574 0.47562 0.0
H927 H 0.74128 0.63235 0.53478 0.0
H928 H 0.82359 0.60484 0.56004 0.0
H929 H 0.77514 0.59907 0.55153 0.0
H930 H 0.79095 0.60389 0.47281 0.0
H931 H 0.83902 0.60992 0.48131 0.0
C932 C 0.70999 0.59199 0.48 0.0
C933 C 0.69413 0.61102 0.49285 0.0
C934 C 0.73737 0.58807 0.4864 0.0
C935 C 0.74926 0.60259 0.50617 0.0
C936 C 0.73288 0.62058 0.51968 0.0
C937 C 0.70586 0.62488 0.513 0.0
C938 C 0.8168 0.60385 0.54093 0.0
C939 C 0.83521 0.60785 0.52138 0.0
C940 C 0.78899 0.6008 0.53603 0.0
C941 C 0.77903 0.60119 0.51145 0.0
C942 C 0.79779 0.60327 0.49192 0.0
C943 C 0.8254 0.6068 0.49682 0.0
H944 H 0.38494 0.44117 0.27705 0.0
H945 H 0.33265 0.44969 0.21342 0.0
H946 H 0.37755 0.48835 0.28788 0.0
H947 H 0.32535 0.49759 0.22417 0.0
H948 H 0.36268 0.58621 0.23205 0.0
H949 H 0.35583 0.53828 0.22348 0.0
H950 H 0.34468 0.52335 0.30181 0.0
H951 H 0.35146 0.57161 0.31039 0.0
C952 C 0.37144 0.45309 0.26557 0.0
C953 C 0.35945 0.44166 0.24431 0.0
C954 C 0.36705 0.48018 0.27191 0.0
C955 C 0.35087 0.49694 0.25694 0.0
C956 C 0.33802 0.4853 0.23608 0.0
C957 C 0.34203 0.45784 0.22998 0.0
C958 C 0.35807 0.57283 0.24742 0.0
C959 C 0.35772 0.58281 0.27195 0.0
C960 C 0.35402 0.5453 0.24247 0.0
C961 C 0.3499 0.52679 0.26193 0.0
C962 C 0.34803 0.53698 0.28637 0.0
C963 C 0.35168 0.5647 0.2913 0.0
H964 H 0.32217 0.59947 0.95998 0.0
H965 H 0.33976 0.61561 0.03712 0.0
H966 H 0.27396 0.59405 0.97055 0.0
H967 H 0.29218 0.61048 0.04742 0.0
H968 H 0.20765 0.65158 0.04185 0.0
H969 H 0.25516 0.64489 0.03199 0.0
H970 H 0.23705 0.56649 1.0011 0.0
H971 H 0.18881 0.57302 0.0116 0.0
C972 C 0.31597 0.60098 0.97923 0.0
C973 C 0.33482 0.60829 0.99764 0.0
C974 C 0.28836 0.59794 0.98528 0.0
C975 C 0.27925 0.60223 0.00978 0.0
C976 C 0.29849 0.60737 0.02835 0.0
C977 C 0.32581 0.61027 0.0224 0.0
C978 C 0.2137 0.63275 0.03317 0.0
C979 C 0.19442 0.61277 0.02766 0.0
C980 C 0.24099 0.62891 0.02754 0.0
C981 C 0.24991 0.60516 0.01579 0.0
C982 C 0.23074 0.58502 0.01013 0.0
C983 C 0.20324 0.58865 0.01633 0.0
H984 H 0.12623 0.5688 0.72004 0.0
H985 H 0.19927 0.5887 0.75972 0.0
H986 H 0.1327 0.52118 0.72969 0.0
H987 H 0.20563 0.54036 0.76994 0.0
H988 H 0.17265 0.45471 0.80713 0.0
H989 H 0.17826 0.50291 0.79652 0.0
H990 H 0.16618 0.48395 0.71911 0.0
H991 H 0.16071 0.43643 0.72953 0.0
C992 C 0.14395 0.5629 0.73057 0.0
C993 C 0.16239 0.58255 0.73884 0.0
C994 C 0.14768 0.53554 0.73613 0.0
C995 C 0.16972 0.52682 0.75058 0.0
C996 C 0.18843 0.54639 0.7588 0.0
C997 C 0.18497 0.57399 0.75272 0.0
C998 C 0.17214 0.46076 0.7878 0.0
C999 C 0.16599 0.44167 0.76923 0.0
C1000 C 0.17525 0.4884 0.78171 0.0
C1001 C 0.17221 0.49738 0.75697 0.0
C1002 C 0.16822 0.47788 0.73836 0.0
C1003 C 0.16518 0.45054 0.74437 0.0
H1004 H 0.20382 0.42136 0.45504 0.0
H1005 H 0.18307 0.41567 0.53271 0.0
H1006 H 0.25171 0.42729 0.46645 0.0
H1007 H 0.2303 0.42169 0.54398 0.0
H1008 H 0.31439 0.38098 0.54839 0.0
H1009 H 0.26714 0.3878 0.53767 0.0
H1010 H 0.28908 0.45508 0.49076 0.0
H1011 H 0.33707 0.44831 0.50198 0.0
C1012 C 0.20929 0.42235 0.4745 0.0
C1013 C 0.18961 0.41783 0.49294 0.0
C1014 C 0.23674 0.42565 0.48106 0.0
C1015 C 0.24495 0.42447 0.50615 0.0
C1016 C 0.22485 0.42221 0.52449 0.0
C1017 C 0.19768 0.4189 0.518 0.0
C1018 C 0.30917 0.39761 0.53617 0.0
C1019 C 0.32948 0.41429 0.52629 0.0
C1020 C 0.282 0.40155 0.53001 0.0
C1021 C 0.27416 0.42206 0.51338 0.0
C1022 C 0.29441 0.43909 0.50361 0.0
C1023 C 0.32182 0.43543 0.51023 0.0
H1024 H 0.29077 0.32926 0.28015 0.0
H1025 H 0.30901 0.30275 0.20575 0.0
H1026 H 0.26355 0.28887 0.28683 0.0
H1027 H 0.28413 0.26135 0.21284 0.0
H1028 H 0.21962 0.19763 0.22512 0.0
H1029 H 0.24634 0.23736 0.21706 0.0
H1030 H 0.26446 0.24383 0.2955 0.0
H1031 H 0.23536 0.20502 0.30366 0.0
C1032 C 0.28841 0.31502 0.26501 0.0
C1033 C 0.30161 0.31955 0.24227 0.0
C1034 C 0.2734 0.29136 0.26903 0.0
C1035 C 0.27184 0.27104 0.25067 0.0
C1036 C 0.28421 0.27629 0.22751 0.0
C1037 C 0.2985 0.30032 0.22327 0.0
C1038 C 0.22977 0.20715 0.24067 0.0
C1039 C 0.22502 0.19811 0.2651 0.0
C1040 C 0.24529 0.23021 0.23602 0.0
C1041 C 0.25738 0.24471 0.25559 0.0
C1042 C 0.25476 0.23408 0.27988 0.0
C1043 C 0.23861 0.21123 0.2846 0.0
H1044 H 0.96849 0.05237 0.45607 0.0
H1045 H 0.94591 0.039 0.53245 0.0
H1046 H 1.01038 0.02839 0.46275 0.0
H1047 H 0.98675 0.01236 0.53881 0.0
H1048 H 0.07165 0.98579 0.55366 0.0
H1049 H 0.03188 0.01364 0.54575 0.0
H1050 H 0.03575 0.99206 0.46787 0.0
H1051 H 0.07648 0.96683 0.47553 0.0
C1052 C 0.97187 0.04312 0.47405 0.0
C1053 C 0.95367 0.04757 0.49369 0.0
C1054 C 0.99623 0.02929 0.47803 0.0
C1055 C 1.00278 0.01851 0.50159 0.0
C1056 C 0.98333 0.02107 0.52065 0.0
C1057 C 0.95938 0.03573 0.51686 0.0
C1058 C 0.06462 0.98803 0.53471 0.0
C1059 C 0.07736 0.97391 0.51529 0.0
C1060 C 0.04121 1.00344 0.53017 0.0
C1061 C 0.02957 1.00473 0.50618 0.0
C1062 C 0.04362 0.99208 0.48661 0.0
C1063 C 0.06728 0.97738 0.49103 0.0
H1064 H 0.29206 0.81831 0.80805 0.0
H1065 H 0.30796 0.82589 0.72953 0.0
H1066 H 0.26259 0.77982 0.79971 0.0
H1067 H 0.28106 0.78643 0.72132 0.0
H1068 H 0.21828 0.7218 0.70925 0.0
H1069 H 0.24335 0.76287 0.71678 0.0
H1070 H 0.26261 0.73489 0.79094 0.0
H1071 H 0.23501 0.69483 0.78384 0.0
C1072 C 0.28879 0.81219 0.78896 0.0
C1073 C 0.30252 0.82526 0.76951 0.0
C1074 C 0.27243 0.78952 0.78414 0.0
C1075 C 0.26978 0.77903 0.75981 0.0
C1076 C 0.28208 0.79348 0.74031 0.0
C1077 C 0.29775 0.81638 0.74505 0.0
C1078 C 0.2285 0.72405 0.72693 0.0
C1079 C 0.22486 0.70482 0.74585 0.0
C1080 C 0.24293 0.7479 0.73142 0.0
C1081 C 0.25504 0.75292 0.75473 0.0
C1082 C 0.25298 0.73258 0.77303 0.0
C1083 C 0.23775 0.70911 0.76877 0.0
H1084 H 0.46856 0.05952 0.05874 0.0
H1085 H 0.44487 0.04298 0.98322 0.0
H1086 H 0.51007 0.03454 0.05259 0.0
H1087 H 0.48537 0.0156 0.97741 0.0
H1088 H 0.56973 0.98676 0.96304 0.0
H1089 H 0.53062 0.01581 0.9702 0.0
H1090 H 0.53421 0.99695 0.04866 0.0
H1091 H 0.57426 0.97035 0.04167 0.0
C1092 C 0.47162 0.04938 0.04112 0.0
C1093 C 0.45315 0.05301 0.02157 0.0
C1094 C 0.49574 0.03501 0.03744 0.0
C1095 C 0.50183 0.02302 0.01427 0.0
C1096 C 0.48226 0.02513 0.99528 0.0
C1097 C 0.45852 0.04025 0.99876 0.0
C1098 C 0.5628 0.98981 0.98193 0.0
C1099 C 0.57526 0.97606 1.00172 0.0
C1100 C 0.53977 1.00595 0.98605 0.0
C1101 C 0.52826 1.00841 0.01002 0.0
C1102 C 0.54204 0.99607 0.02993 0.0
C1103 C 0.56529 0.98059 0.02589 0.0
H1104 H 0.23133 0.82558 0.28397 0.0
H1105 H 0.21937 0.8038 0.20719 0.0
H1106 H 0.25949 0.78565 0.28995 0.0
H1107 H 0.24608 0.76304 0.21332 0.0
H1108 H 0.31837 0.70628 0.22819 0.0
H1109 H 0.28744 0.74308 0.21945 0.0
H1110 H 0.25762 0.73888 0.2949 0.0
H1111 H 0.29005 0.70272 0.30378 0.0
C1112 C 0.23528 0.81255 0.2682 0.0
C1113 C 0.22348 0.8182 0.24501 0.0
C1114 C 0.25087 0.78918 0.27175 0.0
C1115 C 0.25469 0.77044 0.25233 0.0
C1116 C 0.2439 0.77685 0.22878 0.0
C1117 C 0.22873 0.80051 0.22513 0.0
C1118 C 0.3043 0.7124 0.24258 0.0
C1119 C 0.30639 0.70133 0.26657 0.0
C1120 C 0.28663 0.73383 0.23766 0.0
C1121 C 0.2703 0.74473 0.25658 0.0
C1122 C 0.27045 0.73173 0.27998 0.0
C1123 C 0.28844 0.71037 0.28497 0.0
H1124 H 0.45917 0.96027 0.54185 0.0
H1125 H 0.45647 0.98551 0.46533 0.0
H1126 H 0.4962 0.99097 0.54974 0.0
H1127 H 0.4927 0.01799 0.47334 0.0
H1128 H 0.57929 0.04461 0.48365 0.0
H1129 H 0.53904 0.01687 0.4782 0.0
H1130 H 0.51741 0.03114 0.55498 0.0
H1131 H 0.55858 0.05705 0.56062 0.0
C1132 C 0.46549 0.97371 0.52704 0.0
C1133 C 0.45466 0.97069 0.50306 0.0
C1134 C 0.48709 0.99126 0.53147 0.0
C1135 C 0.49832 1.0067 0.51207 0.0
C1136 C 0.4854 1.00581 0.48864 0.0
C1137 C 0.46394 0.98783 0.48413 0.0
C1138 C 0.56639 0.04089 0.49956 0.0
C1139 C 0.57248 0.05267 0.52265 0.0
C1140 C 0.54282 0.02557 0.49631 0.0
C1141 C 0.52423 0.02208 0.51593 0.0
C1142 C 0.53105 0.03295 0.53935 0.0
C1143 C 0.55496 0.04772 0.54272 0.0
H1144 H 0.20465 0.31711 0.72473 0.0
H1145 H 0.23287 0.32105 0.80032 0.0
H1146 H 0.23556 0.28023 0.7162 0.0
H1147 H 0.26525 0.28478 0.79165 0.0
H1148 H 0.29225 0.19804 0.78072 0.0
H1149 H 0.26417 0.23801 0.78681 0.0
H1150 H 0.27687 0.26035 0.71001 0.0
H1151 H 0.30354 0.21959 0.70379 0.0
C1152 C 0.21866 0.31102 0.73919 0.0
C1153 C 0.21658 0.32231 0.76309 0.0
C1154 C 0.23633 0.28955 0.73437 0.0
C1155 C 0.25271 0.27874 0.75332 0.0
C1156 C 0.25245 0.29185 0.77669 0.0
C1157 C 0.23446 0.31328 0.78156 0.0
C1158 C 0.28822 0.21105 0.76495 0.0
C1159 C 0.29976 0.20524 0.74166 0.0
C1160 C 0.27264 0.23444 0.76856 0.0
C1161 C 0.26852 0.25309 0.7491 0.0
C1162 C 0.2792 0.24661 0.72551 0.0
C1163 C 0.29437 0.22294 0.72181 0.0
H1164 H 0.95428 0.98362 0.05256 0.0
H1165 H 0.95693 0.95654 0.97658 0.0
H1166 H 0.99032 0.01611 0.04378 0.0
H1167 H 0.99372 0.9874 0.96793 0.0
H1168 H 0.05491 0.05471 0.95575 0.0
H1169 H 0.01417 0.02816 0.96195 0.0
H1170 H 0.03681 0.0148 0.0386 0.0
H1171 H 0.07667 0.04296 0.03257 0.0
C1172 C 0.96169 0.98553 0.0337 0.0
C1173 C 0.95242 0.96791 0.01515 0.0
C1174 C 0.98302 1.00354 0.02876 0.0
C1175 C 0.99582 1.00399 1.00526 0.0
C1176 C 0.98466 0.988 0.98622 0.0
C1177 C 0.96321 0.97038 0.99109 0.0
C1178 C 0.05163 0.04541 0.97373 0.0
C1179 C 0.0693 0.05073 0.9936 0.0
C1180 C 0.02797 0.03031 0.97742 0.0
C1181 C 0.02154 0.01956 1.00099 0.0
C1182 C 0.0403 0.0234 0.02039 0.0
C1183 C 0.06365 0.03898 0.01681 0.0
H1184 H 0.73439 0.69432 0.73353 0.0
H1185 H 0.71804 0.72215 0.80791 0.0
H1186 H 0.76334 0.73342 0.72641 0.0
H1187 H 0.74454 0.76234 0.80037 0.0
H1188 H 0.81113 0.82312 0.7877 0.0
H1189 H 0.78322 0.78438 0.7959 0.0
H1190 H 0.76444 0.77841 0.71753 0.0
H1191 H 0.79493 0.81612 0.70918 0.0
C1192 C 0.73752 0.70855 0.74855 0.0
C1193 C 0.72437 0.70481 0.77143 0.0
C1194 C 0.75354 0.73148 0.74429 0.0
C1195 C 0.75613 0.75181 0.76253 0.0
C1196 C 0.74373 0.74731 0.7858 0.0
C1197 C 0.72849 0.72398 0.7903 0.0
C1198 C 0.80069 0.81389 0.77217 0.0
C1199 C 0.80563 0.82268 0.74771 0.0
C1200 C 0.78442 0.79143 0.77691 0.0
C1201 C 0.77167 0.7774 0.75742 0.0
C1202 C 0.77459 0.78781 0.73308 0.0
C1203 C 0.79156 0.81002 0.72826 0.0
H1204 H 0.71655 0.2171 0.20401 0.0
H1205 H 0.72942 0.19597 0.28083 0.0
H1206 H 0.7421 0.25852 0.20986 0.0
H1207 H 0.75663 0.23653 0.2865 0.0
H1208 H 0.78616 0.31955 0.3 0.0
H1209 H 0.75416 0.28303 0.29147 0.0
H1210 H 0.78245 0.27989 0.21547 0.0
H1211 H 0.81281 0.31714 0.22387 0.0
C1212 C 0.72589 0.22069 0.22191 0.0
C1213 C 0.72117 0.20299 0.24189 0.0
C1214 C 0.74042 0.24474 0.2254 0.0
C1215 C 0.75118 0.25152 0.24887 0.0
C1216 C 0.74797 0.23275 0.26837 0.0
C1217 C 0.73295 0.20902 0.26499 0.0
C1218 C 0.78423 0.31209 0.28116 0.0
C1219 C 0.80166 0.3215 0.26251 0.0
C1220 C 0.76652 0.29049 0.27636 0.0
C1221 C 0.76618 0.2776 0.25291 0.0
C1222 C 0.78181 0.28898 0.23374 0.0
C1223 C 0.79913 0.3107 0.23846 0.0
H1224 H 0.80219 0.21707 0.80711 0.0
H1225 H 0.78995 0.19417 0.7307 0.0
H1226 H 0.77731 0.2583 0.80032 0.0
H1227 H 0.76217 0.23423 0.7242 0.0
H1228 H 0.73079 0.31798 0.70973 0.0
H1229 H 0.75989 0.27891 0.71703 0.0
H1230 H 0.74127 0.28326 0.79557 0.0
H1231 H 0.7151 0.32334 0.78842 0.0
C1232 C 0.79299 0.22022 0.78908 0.0
C1233 C 0.79798 0.20208 0.76952 0.0
C1234 C 0.77856 0.24422 0.78502 0.0
C1235 C 0.76756 0.25048 0.76146 0.0
C1236 C 0.77088 0.23112 0.7424 0.0
C1237 C 0.78624 0.20757 0.74626 0.0
C1238 C 0.73397 0.3112 0.72864 0.0
C1239 C 0.72049 0.32396 0.74843 0.0
C1240 C 0.75012 0.28816 0.73288 0.0
C1241 C 0.75275 0.27684 0.75694 0.0
C1242 C 0.74047 0.29084 0.77676 0.0
C1243 C 0.72514 0.31415 0.77262 0.0
H1244 H 0.79276 0.69365 0.28042 0.0
H1245 H 0.81006 0.71969 0.20568 0.0
H1246 H 0.76574 0.73422 0.28719 0.0
H1247 H 0.78549 0.76123 0.21285 0.0
H1248 H 0.7212 0.82512 0.22531 0.0
H1249 H 0.74793 0.78538 0.21725 0.0
H1250 H 0.76664 0.77926 0.29561 0.0
H1251 H 0.73747 0.81803 0.30379 0.0
C1252 C 0.79026 0.70784 0.26525 0.0
C1253 C 0.80311 0.70312 0.24237 0.0
C1254 C 0.77537 0.73159 0.26931 0.0
C1255 C 0.77363 0.75181 0.25085 0.0
C1256 C 0.7857 0.74639 0.22759 0.0
C1257 C 0.79982 0.72226 0.22332 0.0
C1258 C 0.7315 0.81568 0.24083 0.0
C1259 C 0.72685 0.82476 0.26525 0.0
C1260 C 0.74702 0.79261 0.23618 0.0
C1261 C 0.75926 0.77819 0.25575 0.0
C1262 C 0.75681 0.78893 0.28001 0.0
C1263 C 0.74063 0.81177 0.28473 0.0
H1264 H 0.57691 0.4814 0.98472 0.0
H1265 H 0.55474 0.46843 0.06127 0.0
H1266 H 0.53695 0.50953 0.97884 0.0
H1267 H 0.51398 0.49522 0.05525 0.0
H1268 H 0.45749 0.56801 0.04064 0.0
H1269 H 0.49419 0.5369 0.04933 0.0
H1270 H 0.4901 0.50748 0.97377 0.0
H1271 H 0.45401 0.54 0.96496 0.0
C1272 C 0.56378 0.48512 1.00047 0.0
C1273 C 0.56936 0.47307 0.02357 0.0
C1274 C 0.5404 0.5007 0.99697 0.0
C1275 C 0.52157 0.50429 0.01635 0.0
C1276 C 0.52787 0.49322 0.03982 0.0
C1277 C 0.55153 0.47802 0.04342 0.0
C1278 C 0.46361 0.55398 0.02621 0.0
C1279 C 0.45257 0.55619 1.00222 0.0
C1280 C 0.48498 0.53622 0.03111 0.0
C1281 C 0.49589 0.51996 0.01214 0.0
C1282 C 0.48294 0.52025 0.98872 0.0
C1283 C 0.46161 0.5383 0.98377 0.0
H1284 H 0.07617 0.47376 0.53032 0.0
H1285 H 0.05357 0.46608 0.45347 0.0
H1286 H 0.03844 0.50472 0.53726 0.0
H1287 H 0.01477 0.49512 0.46036 0.0
H1288 H 0.95781 0.56571 0.47611 0.0
H1289 H 0.99475 0.53524 0.46715 0.0
H1290 H 0.99242 0.50637 0.54302 0.0
H1291 H 0.95634 0.53878 0.55216 0.0
C1292 C 0.06374 0.47966 0.51466 0.0
C1293 C 0.06852 0.46839 0.49112 0.0
C1294 C 0.04144 0.49669 0.51876 0.0
C1295 C 0.02276 0.50224 0.49958 0.0
C1296 C 0.02853 0.49194 0.4757 0.0
C1297 C 0.05117 0.47547 0.47153 0.0
C1298 C 0.96439 0.55196 0.4906 0.0
C1299 C 0.95378 0.55436 0.51473 0.0
C1300 C 0.98597 0.53452 0.48554 0.0
C1301 C 0.99745 0.51847 0.50442 0.0
C1302 C 0.98496 0.51897 0.52808 0.0
C1303 C 0.96354 0.5369 0.53323 0.0
H1304 H 0.05801 0.55177 0.05881 0.0
H1305 H 0.08325 0.53876 0.98312 0.0
H1306 H 0.01675 0.52732 0.05102 0.0
H1307 H 0.0431 0.51147 0.97565 0.0
H1308 H 0.9593 0.48214 0.95891 0.0
H1309 H 0.99845 0.51068 0.96737 0.0
H1310 H 0.9919 0.49117 0.04558 0.0
H1311 H 0.95177 0.46553 0.0373 0.0
C1312 C 0.05536 0.54246 0.04076 0.0
C1313 C 0.07414 0.54709 0.02166 0.0
C1314 C 0.03136 0.52832 0.03612 0.0
C1315 C 0.02576 0.51733 0.01243 0.0
C1316 C 0.04576 0.52023 0.99389 0.0
C1317 C 0.06933 0.53527 0.99833 0.0
C1318 C 0.96562 0.485 0.97799 0.0
C1319 C 0.95228 0.47141 0.99736 0.0
C1320 C 0.98869 0.50081 0.98289 0.0
C1321 C 0.99939 0.50298 1.00722 0.0
C1322 C 0.98478 0.49065 0.02661 0.0
C1323 C 0.96146 0.47565 0.02182 0.0
H1324 H 0.58229 0.54041 0.53104 0.0
H1325 H 0.55865 0.55405 0.45499 0.0
H1326 H 0.54204 0.51293 0.53758 0.0
H1327 H 0.5174 0.52894 0.46181 0.0
H1328 H 0.45384 0.46477 0.47445 0.0
H1329 H 0.49389 0.49108 0.46686 0.0
H1330 H 0.49662 0.51329 0.5446 0.0
H1331 H 0.45746 0.48454 0.55247 0.0
C1332 C 0.56872 0.53702 0.51555 0.0
C1333 C 0.57401 0.54906 0.49239 0.0
C1334 C 0.54513 0.52184 0.51944 0.0
C1335 C 0.52565 0.51888 0.50048 0.0
C1336 C 0.53169 0.53009 0.47697 0.0
C1337 C 0.55565 0.54454 0.47291 0.0
C1338 C 0.46265 0.47563 0.48995 0.0
C1339 C 0.45238 0.47221 0.51416 0.0
C1340 C 0.48587 0.49097 0.48555 0.0
C1341 C 0.49936 0.50424 0.50509 0.0
C1342 C 0.48766 0.50272 0.52905 0.0
C1343 C 0.46463 0.48674 0.53356 0.0
H1344 H 0.16138 0.2655 0.30446 0.0
H1345 H 0.15753 0.2093 0.36579 0.0
H1346 H 0.15698 0.30329 0.3335 0.0
H1347 H 0.15297 0.24696 0.39466 0.0
H1348 H 0.1156 0.35965 0.3929 0.0
H1349 H 0.12319 0.32413 0.36191 0.0
H1350 H 0.17892 0.28451 0.41178 0.0
H1351 H 0.17132 0.31958 0.44259 0.0
C1352 C 0.15984 0.26117 0.32413 0.0
C1353 C 0.16004 0.23425 0.33274 0.0
C1354 C 0.15707 0.28287 0.34077 0.0
C1355 C 0.15468 0.27827 0.36648 0.0
C1356 C 0.15516 0.25136 0.37506 0.0
C1357 C 0.1577 0.22969 0.35844 0.0
C1358 C 0.12977 0.34357 0.3971 0.0
C1359 C 0.14275 0.34257 0.42036 0.0
C1360 C 0.13414 0.32318 0.37931 0.0
C1361 C 0.15147 0.30122 0.38441 0.0
C1362 C 0.16507 0.30078 0.40733 0.0
C1363 C 0.16082 0.32111 0.42498 0.0
H1364 H 0.06749 0.9127 0.61657 0.0
H1365 H 1.01108 0.90956 0.55537 0.0
H1366 H 0.03039 0.90715 0.64571 0.0
H1367 H 0.97378 0.90327 0.58474 0.0
H1368 H 0.91176 0.91266 0.65121 0.0
H1369 H 0.94603 0.92267 0.61925 0.0
H1370 H 1.00222 0.86946 0.65652 0.0
H1371 H 0.96879 0.86005 0.68808 0.0
C1372 C 0.04714 0.91098 0.6093 0.0
C1373 C 0.04237 0.91139 0.58358 0.0
C1374 C 0.02581 0.90762 0.62604 0.0
C1375 C 0.99908 0.90425 0.61759 0.0
C1376 C 0.99407 0.90587 0.59191 0.0
C1377 C 0.01549 0.90941 0.57508 0.0
C1378 C 0.93139 0.90302 0.65233 0.0
C1379 C 0.93767 0.88594 0.67242 0.0
C1380 C 0.95102 0.90874 0.63409 0.0
C1381 C 0.97716 0.89739 0.63564 0.0
C1382 C 0.98271 0.87931 0.6551 0.0
C1383 C 0.96338 0.87377 0.67319 0.0
H1384 H 0.36983 0.7595 0.80722 0.0
H1385 H 0.3721 0.81522 0.86897 0.0
H1386 H 0.37317 0.72147 0.83611 0.0
H1387 H 0.3756 0.7773 0.89771 0.0
H1388 H 0.35438 0.70462 0.94466 0.0
H1389 H 0.34861 0.74006 0.91386 0.0
H1390 H 0.4053 0.69967 0.86545 0.0
H1391 H 0.41106 0.66378 0.89644 0.0
C1392 C 0.3709 0.76369 0.82694 0.0
C1393 C 0.37049 0.79056 0.83569 0.0
C1394 C 0.37303 0.74183 0.84351 0.0
C1395 C 0.37456 0.74619 0.86932 0.0
C1396 C 0.37405 0.77306 0.87802 0.0
C1397 C 0.37214 0.79489 0.86148 0.0
C1398 C 0.36547 0.70298 0.92736 0.0
C1399 C 0.38326 0.68118 0.92317 0.0
C1400 C 0.36229 0.72355 0.90973 0.0
C1401 C 0.37672 0.72303 0.88722 0.0
C1402 C 0.39374 0.70072 0.88251 0.0
C1403 C 0.39705 0.68009 0.9003 0.0
H1404 H 0.61089 0.11606 0.1525 0.0
H1405 H 0.55514 0.16913 0.19045 0.0
H1406 H 0.5767 0.10794 0.12022 0.0
H1407 H 0.52175 0.16178 0.15835 0.0
H1408 H 0.4559 0.1226 0.11494 0.0
H1409 H 0.49197 0.12727 0.1452 0.0
H1410 H 0.55104 0.12778 0.08606 0.0
H1411 H 0.51475 0.12216 0.05563 0.0
C1412 C 0.59151 0.12617 0.15383 0.0
C1413 C 0.58564 0.14291 0.17425 0.0
C1414 C 0.57192 0.12158 0.13534 0.0
C1415 C 0.54618 0.13379 0.13687 0.0
C1416 C 0.54092 0.15131 0.15685 0.0
C1417 C 0.56024 0.15568 0.17526 0.0
C1418 C 0.47656 0.12353 0.10831 0.0
C1419 C 0.48233 0.12219 0.08278 0.0
C1420 C 0.49732 0.12641 0.12571 0.0
C1421 C 0.52451 0.12838 0.11813 0.0
C1422 C 0.5304 0.12622 0.09263 0.0
C1423 C 0.50956 0.12311 0.07516 0.0
H1424 H 0.1284 0.65474 0.12381 0.0
H1425 H 0.14921 0.71313 0.06741 0.0
H1426 H 0.13589 0.68928 0.15601 0.0
H1427 H 0.15758 0.7469 0.09904 0.0
H1428 H 0.13567 0.81077 0.15495 0.0
H1429 H 0.13119 0.77409 0.12534 0.0
H1430 H 0.16708 0.71882 0.17807 0.0
H1431 H 0.17085 0.75572 0.20822 0.0
C1432 C 0.13508 0.67473 0.11835 0.0
C1433 C 0.13786 0.68129 0.09307 0.0
C1434 C 0.13939 0.69455 0.13675 0.0
C1435 C 0.1468 0.72119 0.13018 0.0
C1436 C 0.15103 0.72701 0.10491 0.0
C1437 C 0.14642 0.70749 0.0867 0.0
C1438 C 0.14281 0.79088 0.16026 0.0
C1439 C 0.15384 0.78636 0.18396 0.0
C1440 C 0.14034 0.76973 0.14317 0.0
C1441 C 0.14906 0.74336 0.14907 0.0
C1442 C 0.15997 0.73874 0.17287 0.0
C1443 C 0.16229 0.75997 0.19011 0.0
H1444 H 0.4853 0.93064 0.42107 0.0
H1445 H 0.50681 0.85312 0.45235 0.0
H1446 H 0.52256 0.92652 0.39118 0.0
H1447 H 0.54362 0.84894 0.42234 0.0
H1448 H 0.57614 0.83816 0.34094 0.0
H1449 H 0.5436 0.84381 0.37461 0.0
H1450 H 0.57639 0.9228 0.39035 0.0
H1451 H 0.6097 0.91679 0.35667 0.0
C1452 C 0.49794 0.91275 0.42159 0.0
C1453 C 0.49297 0.89217 0.43907 0.0
C1454 C 0.51943 0.91052 0.40462 0.0
C1455 C 0.53607 0.88744 0.40446 0.0
C1456 C 0.53114 0.86695 0.42198 0.0
C1457 C 0.51004 0.86938 0.43919 0.0
C1458 C 0.57672 0.85656 0.35186 0.0
C1459 C 0.59554 0.87697 0.34629 0.0
C1460 C 0.5581 0.85978 0.37115 0.0
C1461 C 0.55735 0.88377 0.38509 0.0
C1462 C 0.57644 0.90414 0.37983 0.0
C1463 C 0.59563 0.90062 0.36077 0.0
H1464 H 0.3998 0.36825 0.62223 0.0
H1465 H 0.36381 0.31497 0.56811 0.0
H1466 H 0.39255 0.33378 0.65462 0.0
H1467 H 0.356 0.28125 0.60003 0.0
H1468 H 0.38216 0.2135 0.65074 0.0
H1469 H 0.38546 0.25103 0.62188 0.0
H1470 H 0.36015 0.3063 0.67951 0.0
H1471 H 0.35727 0.26846 0.70881 0.0
C1472 C 0.38973 0.34953 0.61742 0.0
C1473 C 0.38263 0.34419 0.59263 0.0
C1474 C 0.38562 0.32975 0.6359 0.0
C1475 C 0.37425 0.30442 0.62983 0.0
C1476 C 0.36555 0.3001 0.60531 0.0
C1477 C 0.36984 0.31957 0.587 0.0
C1478 C 0.37712 0.23357 0.65734 0.0
C1479 C 0.36922 0.2378 0.68212 0.0
C1480 C 0.37891 0.25519 0.6407 0.0
C1481 C 0.37276 0.28177 0.64823 0.0
C1482 C 0.36514 0.28615 0.67309 0.0
C1483 C 0.36334 0.26441 0.68984 0.0
H1484 H 0.90769 0.1148 0.86164 0.0
H1485 H 0.96202 0.17292 0.82864 0.0
H1486 H 0.94167 0.10519 0.89392 0.0
H1487 H 0.99517 0.16388 0.8606 0.0
H1488 H 0.0621 0.12201 0.90023 0.0
H1489 H 0.02563 0.12796 0.87057 0.0
H1490 H 0.96717 0.12351 0.93003 0.0
H1491 H 1.00395 0.11682 0.95992 0.0
C1492 C 0.92666 0.12572 0.86142 0.0
C1493 C 0.93225 0.1443 0.8423 0.0
C1494 C 0.94613 0.12024 0.8799 0.0
C1495 C 0.9715 0.13331 0.87959 0.0
C1496 C 0.97633 0.15275 0.86108 0.0
C1497 C 0.95713 0.15807 0.84275 0.0
C1498 C 0.04151 0.12206 0.90708 0.0
C1499 C 0.03609 0.11913 0.93257 0.0
C1500 C 0.0205 0.12567 0.89002 0.0
C1501 C 0.99336 0.12673 0.89788 0.0
C1502 C 0.98777 0.12276 0.92327 0.0
C1503 C 1.0089 0.119 0.94042 0.0
H1504 H 0.88586 0.7157 0.56542 0.0
H1505 H 0.89025 0.65515 0.62291 0.0
H1506 H 0.88179 0.75079 0.59631 0.0
H1507 H 0.88381 0.69027 0.65441 0.0
H1508 H 0.8961 0.76211 0.70713 0.0
H1509 H 0.90018 0.72537 0.67715 0.0
H1510 H 0.85618 0.77339 0.62336 0.0
H1511 H 0.85439 0.81058 0.65274 0.0
C1512 C 0.88528 0.70981 0.5848 0.0
C1513 C 0.88809 0.68253 0.59164 0.0
C1514 C 0.88268 0.73009 0.60273 0.0
C1515 C 0.88194 0.72383 0.62828 0.0
C1516 C 0.8846 0.69631 0.63512 0.0
C1517 C 0.88804 0.67599 0.61704 0.0
C1518 C 0.88737 0.76468 0.68883 0.0
C1519 C 0.87514 0.78933 0.68223 0.0
C1520 C 0.8895 0.74347 0.67156 0.0
C1521 C 0.87881 0.74603 0.64735 0.0
C1522 C 0.86563 0.77054 0.64128 0.0
C1523 C 0.86427 0.79197 0.65828 0.0
H1524 H 0.96166 0.12165 0.39971 0.0
H1525 H 0.0186 0.10879 0.45943 0.0
H1526 H 0.99889 0.12857 0.37097 0.0
H1527 H 0.0561 0.11633 0.43051 0.0
H1528 H 0.11537 0.10972 0.36111 0.0
H1529 H 0.08096 0.09941 0.39285 0.0
H1530 H 0.03125 0.16442 0.36478 0.0
H1531 H 0.06487 0.17426 0.33337 0.0
C1532 C 0.98213 0.12014 0.40674 0.0
C1533 C 0.98701 0.11483 0.43199 0.0
C1534 C 1.00356 0.12431 0.39024 0.0
C1535 C 0.03058 0.12348 0.39847 0.0
C1536 C 0.03559 0.11708 0.42351 0.0
C1537 C 0.01405 0.11284 0.4401 0.0
C1538 C 0.09723 0.12196 0.36205 0.0
C1539 C 0.09269 0.14253 0.34448 0.0
C1540 C 0.07749 0.11605 0.38016 0.0
C1541 C 0.05297 0.13065 0.38099 0.0
C1542 C 0.04939 0.15216 0.36426 0.0
C1543 C 0.06885 0.15793 0.3463 0.0
H1544 H 0.6581 0.36369 0.1121 0.0
H1545 H 0.6084 0.30616 0.07268 0.0
H1546 H 0.66636 0.32973 0.14461 0.0
H1547 H 0.61588 0.27304 0.10495 0.0
H1548 H 0.65526 0.20841 0.14922 0.0
H1549 H 0.65113 0.24454 0.11897 0.0
H1550 H 0.64597 0.30318 0.17827 0.0
H1551 H 0.65105 0.26678 0.20879 0.0
C1552 C 0.64882 0.34395 0.11044 0.0
C1553 C 0.63297 0.33754 0.08955 0.0
C1554 C 0.65347 0.32451 0.12908 0.0
C1555 C 0.64223 0.29837 0.12722 0.0
C1556 C 0.62562 0.29254 0.10673 0.0
C1557 C 0.62119 0.31171 0.0882 0.0
C1558 C 0.65342 0.22899 0.1559 0.0
C1559 C 0.65323 0.2346 0.18149 0.0
C1560 C 0.65088 0.24979 0.1385 0.0
C1561 C 0.64768 0.27684 0.1461 0.0
C1562 C 0.64847 0.28264 0.1717 0.0
C1563 C 0.65128 0.26174 0.18921 0.0
H1564 H 0.4644 0.85673 0.83265 0.0
H1565 H 0.40988 0.91433 0.86628 0.0
H1566 H 0.49795 0.86614 0.86418 0.0
H1567 H 0.44423 0.92428 0.89815 0.0
H1568 H 0.50824 0.91248 0.96304 0.0
H1569 H 0.47085 0.90561 0.93389 0.0
H1570 H 0.52779 0.90332 0.8731 0.0
H1571 H 0.56495 0.90953 0.90204 0.0
C1572 C 0.45955 0.87149 0.84686 0.0
C1573 C 0.43456 0.88508 0.8467 0.0
C1574 C 0.47895 0.87702 0.8649 0.0
C1575 C 0.47416 0.8965 0.88338 0.0
C1576 C 0.44863 0.90924 0.88409 0.0
C1577 C 0.42894 0.90355 0.8659 0.0
C1578 C 0.51272 0.91084 0.9434 0.0
C1579 C 0.53969 0.91135 0.93494 0.0
C1580 C 0.49125 0.90695 0.92669 0.0
C1581 C 0.49629 0.90347 0.90117 0.0
C1582 C 0.52316 0.90526 0.89269 0.0
C1583 C 0.54453 0.90902 0.90931 0.0
H1584 H 0.85836 0.3658 0.90094 0.0
H1585 H 0.9157 0.31168 0.93541 0.0
H1586 H 0.84913 0.3313 0.86898 0.0
H1587 H 0.90712 0.27805 0.90379 0.0
H1588 H 0.86573 0.21052 0.86506 0.0
H1589 H 0.87114 0.24765 0.89415 0.0
H1590 H 0.86779 0.30484 0.83358 0.0
H1591 H 0.86159 0.26745 0.8043 0.0
C1592 C 0.86924 0.34679 0.90149 0.0
C1593 C 0.88741 0.34132 0.92095 0.0
C1594 C 0.86396 0.32701 0.88324 0.0
C1595 C 0.87687 0.30155 0.88414 0.0
C1596 C 0.89606 0.29694 0.9029 0.0
C1597 C 0.90114 0.3164 0.921 0.0
C1598 C 0.86587 0.23098 0.85787 0.0
C1599 C 0.86341 0.23588 0.83227 0.0
C1600 C 0.86917 0.25236 0.87458 0.0
C1601 C 0.87042 0.27933 0.86623 0.0
C1602 C 0.86687 0.28439 0.84071 0.0
C1603 C 0.86339 0.2629 0.82392 0.0
H1604 H 0.50864 0.11997 0.55614 0.0
H1605 H 0.56641 0.12258 0.61626 0.0
H1606 H 0.47177 0.12637 0.58584 0.0
H1607 H 0.52974 0.12804 0.64586 0.0
H1608 H 0.46553 0.17103 0.68911 0.0
H1609 H 0.49954 0.16275 0.65771 0.0
H1610 H 0.44537 0.10787 0.62006 0.0
H1611 H 0.41056 0.11691 0.65162 0.0
C1612 C 0.51348 0.12152 0.57571 0.0
C1613 C 0.54059 0.12098 0.58374 0.0
C1614 C 0.49228 0.12509 0.59278 0.0
C1615 C 0.49767 0.12813 0.6183 0.0
C1616 C 0.52474 0.1265 0.62632 0.0
C1617 C 0.54586 0.12315 0.60931 0.0
C1618 C 0.46072 0.15718 0.67415 0.0
C1619 C 0.43535 0.14438 0.67309 0.0
C1620 C 0.48041 0.15226 0.65616 0.0
C1621 C 0.47558 0.13414 0.63654 0.0
C1622 C 0.44984 0.12195 0.6349 0.0
C1623 C 0.42988 0.12709 0.65297 0.0
H1624 H 0.64524 0.81329 0.36351 0.0
H1625 H 0.67725 0.75761 0.30912 0.0
H1626 H 0.63975 0.77656 0.39275 0.0
H1627 H 0.6726 0.72051 0.33904 0.0
H1628 H 0.63163 0.65743 0.3928 0.0
H1629 H 0.64079 0.69197 0.36101 0.0
H1630 H 0.6644 0.74796 0.4187 0.0
H1631 H 0.6542 0.71425 0.44995 0.0
C1632 C 0.65162 0.79324 0.3579 0.0
C1633 C 0.66202 0.78858 0.33398 0.0
C1634 C 0.64854 0.77203 0.37481 0.0
C1635 C 0.65605 0.74541 0.36854 0.0
C1636 C 0.66644 0.74065 0.34455 0.0
C1637 C 0.66933 0.76198 0.32744 0.0
C1638 C 0.63904 0.67708 0.39851 0.0
C1639 C 0.64182 0.68323 0.42388 0.0
C1640 C 0.64435 0.69689 0.38033 0.0
C1641 C 0.65283 0.72311 0.38721 0.0
C1642 C 0.65705 0.72845 0.41258 0.0
C1643 C 0.65138 0.70897 0.43058 0.0
H1644 H 0.06405 0.84218 0.18717 0.0
H1645 H 0.10791 0.9118 0.1605 0.0
H1646 H 0.03173 0.84693 0.15316 0.0
H1647 H 0.07476 0.91705 0.12663 0.0
H1648 H 0.98319 0.93033 0.096 0.0
H1649 H 0.01938 0.92656 0.12703 0.0
H1650 H 0.0353 0.84487 0.10308 0.0
H1651 H 0.99971 0.84876 0.07167 0.0
C1652 C 0.06677 0.85852 0.174 0.0
C1653 C 0.08849 0.87665 0.17651 0.0
C1654 C 0.04831 0.86116 0.1545 0.0
C1655 C 0.05071 0.88237 0.13733 0.0
C1656 C 0.07244 0.90056 0.13971 0.0
C1657 C 0.09143 0.89749 0.15894 0.0
C1658 C 0.99449 0.91161 0.0973 0.0
C1659 C 0.98853 0.88981 0.08142 0.0
C1660 C 0.01532 0.90956 0.1149 0.0
C1661 C 0.03016 0.88546 0.11736 0.0
C1662 C 0.02419 0.86368 0.10153 0.0
C1663 C 1.00383 0.86593 0.08357 0.0
H1664 H 0.64904 0.71224 0.86495 0.0
H1665 H 0.65917 0.77025 0.80571 0.0
H1666 H 0.64324 0.74886 0.89448 0.0
H1667 H 0.65266 0.80724 0.83547 0.0
H1668 H 0.66171 0.86627 0.90454 0.0
H1669 H 0.67048 0.83215 0.87212 0.0
H1670 H 0.60889 0.78097 0.90403 0.0
H1671 H 0.60067 0.81424 0.93609 0.0
C1672 C 0.65009 0.73283 0.85815 0.0
C1673 C 0.65442 0.73811 0.83279 0.0
C1674 C 0.64654 0.75396 0.87515 0.0
C1675 C 0.647 0.7812 0.86743 0.0
C1676 C 0.65223 0.7866 0.84219 0.0
C1677 C 0.65586 0.76534 0.82508 0.0
C1678 C 0.64993 0.84782 0.90438 0.0
C1679 C 0.63078 0.84289 0.9232 0.0
C1680 C 0.65495 0.82822 0.88583 0.0
C1681 C 0.64086 0.80337 0.88571 0.0
C1682 C 0.62083 0.79932 0.90385 0.0
C1683 C 0.61597 0.81862 0.92225 0.0
H1684 H 0.50884 0.42071 0.06087 0.0
H1685 H 0.5639 0.38315 0.11274 0.0
H1686 H 0.47254 0.41774 0.09165 0.0
H1687 H 0.52775 0.37942 0.14299 0.0
H1688 H 0.46835 0.39909 0.20211 0.0
H1689 H 0.50195 0.40638 0.17005 0.0
H1690 H 0.4427 0.38717 0.11376 0.0
H1691 H 0.40846 0.38079 0.14629 0.0
C1692 C 0.51319 0.41174 0.07879 0.0
C1693 C 0.5394 0.40241 0.08439 0.0
C1694 C 0.49232 0.4099 0.0964 0.0
C1695 C 0.49714 0.39857 0.12 0.0
C1696 C 0.5233 0.38891 0.12533 0.0
C1697 C 0.54412 0.39093 0.10787 0.0
C1698 C 0.46234 0.39662 0.18289 0.0
C1699 C 0.43575 0.38913 0.17677 0.0
C1700 C 0.48174 0.4006 0.16444 0.0
C1701 C 0.47534 0.39681 0.13923 0.0
C1702 C 0.4484 0.39036 0.13295 0.0
C1703 C 0.42875 0.38668 0.15156 0.0
H1704 H 0.89503 0.21879 0.44758 0.0
H1705 H 0.8897 0.15309 0.39491 0.0
H1706 H 0.88793 0.25118 0.41452 0.0
H1707 H 0.88231 0.18609 0.36134 0.0
H1708 H 0.90515 0.25836 0.30778 0.0
H1709 H 0.9081 0.22264 0.33905 0.0
H1710 H 0.85301 0.26703 0.38606 0.0
H1711 H 0.85022 0.30281 0.35503 0.0
C1712 C 0.89215 0.21115 0.4289 0.0
C1713 C 0.89296 0.18318 0.42399 0.0
C1714 C 0.88787 0.22986 0.4099 0.0
C1715 C 0.88439 0.22134 0.38523 0.0
C1716 C 0.88503 0.19335 0.38015 0.0
C1717 C 0.88908 0.17443 0.39938 0.0
C1718 C 0.89355 0.26048 0.32473 0.0
C1719 C 0.87758 0.28368 0.32888 0.0
C1720 C 0.89509 0.23984 0.34259 0.0
C1721 C 0.88088 0.24194 0.36514 0.0
C1722 C 0.8645 0.26487 0.36904 0.0
C1723 C 0.86285 0.2854 0.35118 0.0
H1724 H 0.01545 0.65941 0.55986 0.0
H1725 H 0.97103 0.60361 0.60622 0.0
H1726 H 0.0509 0.6621 0.59149 0.0
H1727 H 1.00643 0.60613 0.63748 0.0
H1728 H 0.05406 0.64607 0.69995 0.0
H1729 H 0.02186 0.64078 0.66647 0.0
H1730 H 0.0873 0.63538 0.61361 0.0
H1731 H 0.1201 0.64096 0.64758 0.0
C1732 C 0.01327 0.6476 0.57668 0.0
C1733 C 0.99019 0.63142 0.58049 0.0
C1734 C 0.03372 0.649 0.59473 0.0
C1735 C 0.03149 0.63443 0.61709 0.0
C1736 C 1.00866 0.61791 0.62064 0.0
C1737 C 0.98835 0.61641 0.60262 0.0
C1738 C 0.06181 0.64363 0.68126 0.0
C1739 C 0.08982 0.64385 0.67656 0.0
C1740 C 0.04321 0.64043 0.66201 0.0
C1741 C 0.05192 0.63747 0.63733 0.0
C1742 C 0.07992 0.63772 0.63243 0.0
C1743 C 0.09871 0.64072 0.65189 0.0
H1744 H 0.62871 0.16075 0.62042 0.0
H1745 H 0.6466 0.22068 0.56453 0.0
H1746 H 0.63601 0.19478 0.65299 0.0
H1747 H 0.65506 0.25399 0.59656 0.0
H1748 H 0.6338 0.31625 0.65371 0.0
H1749 H 0.62931 0.28013 0.62369 0.0
H1750 H 0.66644 0.2243 0.67524 0.0
H1751 H 0.66999 0.26072 0.70598 0.0
C1752 C 0.63467 0.18102 0.61514 0.0
C1753 C 0.63669 0.18813 0.58992 0.0
C1754 C 0.63893 0.20054 0.63377 0.0
C1755 C 0.64562 0.22743 0.62749 0.0
C1756 C 0.64905 0.23387 0.60223 0.0
C1757 C 0.64438 0.21464 0.58378 0.0
C1758 C 0.64123 0.29635 0.65868 0.0
C1759 C 0.65253 0.29153 0.68222 0.0
C1760 C 0.63877 0.27553 0.64133 0.0
C1761 C 0.64789 0.2492 0.64674 0.0
C1762 C 0.65905 0.24423 0.6704 0.0
C1763 C 0.66125 0.26515 0.68798 0.0
H1764 H 0.01506 0.40326 0.95937 0.0
H1765 H 0.95894 0.40123 0.89792 0.0
H1766 H 0.0529 0.40037 0.93024 0.0
H1767 H 0.99668 0.39817 0.86894 0.0
H1768 H 0.06894 0.4211 0.82206 0.0
H1769 H 0.03362 0.42603 0.85309 0.0
H1770 H 0.07457 0.36861 0.90036 0.0
H1771 H 0.11033 0.36367 0.86914 0.0
C1772 C 1.01075 0.40229 0.93966 0.0
C1773 C 0.98383 0.40268 0.93106 0.0
C1774 C 0.03249 0.40044 0.92296 0.0
C1775 C 0.02794 0.39916 0.89718 0.0
C1776 C 1.00103 0.39954 0.88862 0.0
C1777 C 0.97932 0.40118 0.90529 0.0
C1778 C 0.07073 0.40968 0.83916 0.0
C1779 C 0.09264 0.39193 0.84297 0.0
C1780 C 0.05024 0.41237 0.85692 0.0
C1781 C 0.05097 0.39748 0.87915 0.0
C1782 C 0.07338 0.38049 0.8835 0.0
C1783 C 0.09392 0.37767 0.86559 0.0
H1784 H 0.91086 0.86015 0.11997 0.0
H1785 H 0.85795 0.81613 0.07059 0.0
H1786 H 0.90531 0.8247 0.15137 0.0
H1787 H 0.85238 0.78111 0.10181 0.0
H1788 H 0.87714 0.70802 0.14891 0.0
H1789 H 0.88049 0.7454 0.1196 0.0
H1790 H 0.8725 0.80241 0.1799 0.0
H1791 H 0.86929 0.7649 0.20938 0.0
C1792 C 0.89773 0.8432 0.11591 0.0
C1793 C 0.88493 0.84111 0.09263 0.0
C1794 C 0.89454 0.82285 0.13394 0.0
C1795 C 0.87863 0.79982 0.12906 0.0
C1796 C 0.86519 0.79824 0.10609 0.0
C1797 C 0.86824 0.81854 0.08821 0.0
C1798 C 0.87597 0.72848 0.15599 0.0
C1799 C 0.87281 0.73331 0.18159 0.0
C1800 C 0.87778 0.74999 0.13912 0.0
C1801 C 0.87666 0.77702 0.14731 0.0
C1802 C 0.87365 0.7819 0.17292 0.0
C1803 C 0.87163 0.76034 0.18982 0.0
H1804 H 0.51072 0.61407 0.45904 0.0
H1805 H 0.56647 0.62187 0.39768 0.0
H1806 H 0.47268 0.61794 0.43029 0.0
H1807 H 0.52844 0.6258 0.36902 0.0
H1808 H 0.45586 0.60382 0.32163 0.0
H1809 H 0.49179 0.59795 0.35192 0.0
H1810 H 0.45032 0.65159 0.40243 0.0
H1811 H 0.41398 0.65754 0.37192 0.0
C1812 C 0.51492 0.61648 0.43942 0.0
C1813 C 0.54178 0.61747 0.43073 0.0
C1814 C 0.49304 0.6189 0.42295 0.0
C1815 C 0.49741 0.62212 0.3973 0.0
C1816 C 0.52427 0.62299 0.38861 0.0
C1817 C 0.54613 0.62082 0.40508 0.0
C1818 C 0.45409 0.6142 0.33927 0.0
C1819 C 0.43184 0.63119 0.34423 0.0
C1820 C 0.47493 0.61098 0.3566 0.0
C1821 C 0.47419 0.62451 0.37955 0.0
C1822 C 0.45151 0.64076 0.38498 0.0
C1823 C 0.43064 0.64416 0.36749 0.0
H1824 H 0.37515 0.21996 0.06295 0.0
H1825 H 0.3933 0.15973 0.11854 0.0
H1826 H 0.36813 0.2535 0.0951 0.0
H1827 H 0.38722 0.19393 0.15119 0.0
H1828 H 0.35421 0.26004 0.20445 0.0
H1829 H 0.35716 0.22382 0.1736 0.0
H1830 H 0.39482 0.27929 0.12213 0.0
H1831 H 0.39106 0.31539 0.15246 0.0
C1832 C 0.37766 0.21386 0.08215 0.0
C1833 C 0.38501 0.18718 0.08816 0.0
C1834 C 0.37384 0.23324 0.10066 0.0
C1835 C 0.37768 0.22675 0.12585 0.0
C1836 C 0.38401 0.19972 0.13202 0.0
C1837 C 0.38751 0.18009 0.11335 0.0
C1838 C 0.36304 0.26447 0.18649 0.0
C1839 C 0.37216 0.29075 0.18088 0.0
C1840 C 0.36487 0.24363 0.16883 0.0
C1841 C 0.376 0.24853 0.14516 0.0
C1842 C 0.38548 0.27476 0.13983 0.0
C1843 C 0.38344 0.29555 0.15734 0.0
H1844 H 0.48412 0.59142 0.92128 0.0
H1845 H 0.4972 0.67452 0.94261 0.0
H1846 H 0.52068 0.59516 0.8905 0.0
H1847 H 0.53321 0.6783 0.91178 0.0
H1848 H 0.56408 0.68042 0.82936 0.0
H1849 H 0.53111 0.67502 0.86266 0.0
H1850 H 0.57536 0.60616 0.89047 0.0
H1851 H 0.60914 0.61201 0.85717 0.0
C1852 C 0.49475 0.61044 0.91939 0.0
C1853 C 0.48778 0.63268 0.9344 0.0
C1854 C 0.51581 0.61249 0.90197 0.0
C1855 C 0.52984 0.63698 0.89886 0.0
C1856 C 0.52278 0.65917 0.91381 0.0
C1857 C 0.5022 0.65697 0.93151 0.0
C1858 C 0.56695 0.66421 0.84266 0.0
C1859 C 0.58921 0.64663 0.84067 0.0
C1860 C 0.54808 0.66118 0.86175 0.0
C1861 C 0.55062 0.64014 0.87908 0.0
C1862 C 0.57289 0.62248 0.87723 0.0
C1863 C 0.59227 0.62593 0.85835 0.0
H1864 H 0.14787 0.71315 0.65366 0.0
H1865 H 0.16287 0.76951 0.7134 0.0
H1866 H 0.1423 0.75057 0.62496 0.0
H1867 H 0.15674 0.80733 0.68441 0.0
H1868 H 0.16682 0.86542 0.61369 0.0
H1869 H 0.17513 0.83119 0.64619 0.0
H1870 H 0.10767 0.78454 0.61881 0.0
H1871 H 0.09979 0.81794 0.58671 0.0
C1872 C 0.15007 0.73353 0.66073 0.0
C1873 C 0.1556 0.73817 0.68599 0.0
C1874 C 0.14669 0.7551 0.64423 0.0
C1875 C 0.1486 0.78209 0.65239 0.0
C1876 C 0.15514 0.78685 0.67746 0.0
C1877 C 0.15853 0.76513 0.69409 0.0
C1878 C 0.15359 0.84803 0.61498 0.0
C1879 C 0.13291 0.84422 0.59739 0.0
C1880 C 0.15836 0.82839 0.63352 0.0
C1881 C 0.14249 0.8047 0.63474 0.0
C1882 C 0.12086 0.802 0.61802 0.0
C1883 C 0.11622 0.82133 0.59966 0.0
H1884 H 0.90487 0.36611 0.37028 0.0
H1885 H 0.95798 0.40568 0.31802 0.0
H1886 H 0.93973 0.36973 0.40232 0.0
H1887 H 0.99297 0.40816 0.34932 0.0
H1888 H 0.04553 0.4294 0.41442 0.0
H1889 H 1.00805 0.42876 0.38525 0.0
H1890 H 0.98161 0.35221 0.41545 0.0
H1891 H 0.01855 0.35362 0.44548 0.0
C1892 C 0.92388 0.37573 0.36565 0.0
C1893 C 0.92839 0.38583 0.34156 0.0
C1894 C 0.94406 0.37755 0.38397 0.0
C1895 C 0.96943 0.38925 0.37862 0.0
C1896 C 0.97368 0.39954 0.35454 0.0
C1897 C 0.95348 0.39801 0.33641 0.0
C1898 C 0.03175 0.4124 0.41484 0.0
C1899 C 0.03522 0.39149 0.43225 0.0
C1900 C 1.0102 0.41194 0.39797 0.0
C1901 C 0.99164 0.39031 0.39765 0.0
C1902 C 0.99509 0.36943 0.41522 0.0
C1903 C 0.01647 0.37011 0.43237 0.0
H1904 H 0.36997 0.8131 0.44948 0.0
H1905 H 0.40981 0.86583 0.39707 0.0
H1906 H 0.36636 0.77836 0.41794 0.0
H1907 H 0.40514 0.83128 0.3649 0.0
H1908 H 0.42036 0.75305 0.32143 0.0
H1909 H 0.42227 0.78934 0.35186 0.0
H1910 H 0.34543 0.76343 0.3818 0.0
H1911 H 0.34419 0.72647 0.3519 0.0
C1912 C 0.37751 0.81756 0.43103 0.0
C1913 C 0.39013 0.84246 0.42591 0.0
C1914 C 0.37531 0.79752 0.41278 0.0
C1915 C 0.38542 0.80173 0.38864 0.0
C1916 C 0.39748 0.82694 0.38332 0.0
C1917 C 0.39993 0.84696 0.40173 0.0
C1918 C 0.40384 0.75509 0.33447 0.0
C1919 C 0.38216 0.73668 0.33416 0.0
C1920 C 0.40482 0.77613 0.35191 0.0
C1921 C 0.384 0.77963 0.36948 0.0
C1922 C 0.36216 0.76129 0.36898 0.0
C1923 C 0.36135 0.74005 0.3517 0.0
H1924 H 0.9672 0.66416 0.18992 0.0
H1925 H 0.91099 0.61099 0.1528 0.0
H1926 H 1.00086 0.65516 0.1584 0.0
H1927 H 0.94546 0.60127 0.12105 0.0
H1928 H 1.00937 0.6137 0.05704 0.0
H1929 H 0.97238 0.62017 0.08667 0.0
H1930 H 0.02987 0.6188 0.14707 0.0
H1931 H 0.06665 0.61321 0.11763 0.0
C1932 C 0.96204 0.65036 0.17501 0.0
C1933 C 0.93648 0.63799 0.1741 0.0
C1934 C 0.9815 0.64505 0.15696 0.0
C1935 C 0.97621 0.62696 0.13744 0.0
C1936 C 0.95026 0.61527 0.13587 0.0
C1937 C 0.93051 0.62079 0.15403 0.0
C1938 C 0.01405 0.61452 0.07669 0.0
C1939 C 0.04105 0.61319 0.08492 0.0
C1940 C 0.99281 0.61815 0.09368 0.0
C1941 C 0.99811 0.62045 0.11927 0.0
C1942 C 0.02503 0.61784 0.12747 0.0
C1943 C 0.04618 0.61443 0.11056 0.0
H1944 H 0.18001 0.29214 0.8443 0.0
H1945 H 0.09812 0.27696 0.8203 0.0
H1946 H 0.17602 0.25566 0.87505 0.0
H1947 H 0.09402 0.24109 0.8514 0.0
H1948 H 0.09091 0.21073 0.93482 0.0
H1949 H 0.09588 0.24343 0.90113 0.0
H1950 H 0.16636 0.20076 0.87478 0.0
H1951 H 0.16091 0.16725 0.90833 0.0
C1952 C 0.16117 0.28107 0.8456 0.0
C1953 C 0.13936 0.28751 0.82987 0.0
C1954 C 0.15899 0.26006 0.86306 0.0
C1955 C 0.13473 0.2455 0.86556 0.0
C1956 C 0.11295 0.25196 0.84987 0.0
C1957 C 0.11533 0.27249 0.83206 0.0
C1958 C 0.10737 0.20815 0.92174 0.0
C1959 C 0.12553 0.1864 0.92422 0.0
C1960 C 0.11014 0.22685 0.90241 0.0
C1961 C 0.13153 0.22469 0.88538 0.0
C1962 C 0.14974 0.20293 0.88773 0.0
C1963 C 0.14654 0.18371 0.90679 0.0
H1964 H 0.61234 0.41189 0.65241 0.0
H1965 H 0.558 0.35475 0.68683 0.0
H1966 H 0.57827 0.42061 0.61995 0.0
H1967 H 0.52475 0.36301 0.65478 0.0
H1968 H 0.45784 0.40489 0.61489 0.0
H1969 H 0.49457 0.39956 0.64443 0.0
H1970 H 0.55244 0.40046 0.58437 0.0
H1971 H 0.51548 0.40641 0.55458 0.0
C1972 C 0.59337 0.40099 0.65289 0.0
C1973 C 0.58774 0.38299 0.67246 0.0
C1974 C 0.57385 0.40597 0.63434 0.0
C1975 C 0.54846 0.39299 0.63507 0.0
C1976 C 0.54363 0.37405 0.654 0.0
C1977 C 0.56287 0.3692 0.67236 0.0
C1978 C 0.47836 0.4042 0.60788 0.0
C1979 C 0.48357 0.40591 0.58226 0.0
C1980 C 0.49949 0.40096 0.62487 0.0
C1981 C 0.52652 0.39914 0.6168 0.0
C1982 C 0.53192 0.40186 0.59126 0.0
C1983 C 0.51068 0.40517 0.57417 0.0
H1984 H 0.09845 0.25886 0.28351 0.0
H1985 H 0.04376 0.19602 0.25897 0.0
H1986 H 0.0615 0.29128 0.28337 0.0
H1987 H 1.00665 0.22853 0.25939 0.0
H1988 H 0.95701 0.29808 0.23148 0.0
H1989 H 0.99579 0.26815 0.23343 0.0
H1990 H 0.01797 0.3022 0.30452 0.0
H1991 H 0.97892 0.33281 0.30236 0.0
C1992 C 0.07851 0.25191 0.27817 0.0
C1993 C 0.07405 0.22495 0.27082 0.0
C1994 C 0.05736 0.27048 0.27833 0.0
C1995 C 0.03139 0.26244 0.27114 0.0
C1996 C 0.02669 0.23531 0.26458 0.0
C1997 C 0.04786 0.2167 0.26442 0.0
C1998 C 0.97031 0.29941 0.24743 0.0
C1999 C 0.96494 0.31749 0.26692 0.0
C2000 C 0.99235 0.28212 0.24862 0.0
C2001 C 1.0094 0.28244 0.26939 0.0
C2002 C 1.00498 0.30156 0.28833 0.0
C2003 C 0.98282 0.31909 0.28708 0.0
H2004 H 0.0193 0.84813 0.53777 0.0
H2005 H 0.08024 0.79336 0.50944 0.0
H2006 H 0.98618 0.81199 0.5371 0.0
H2007 H 0.04698 0.75689 0.50939 0.0
H2008 H 0.97541 0.70992 0.48159 0.0
H2009 H 1.00658 0.74765 0.48427 0.0
H2010 H 0.9743 0.76832 0.55646 0.0
H2011 H 0.94246 0.73043 0.55353 0.0
C2012 C 0.0257 0.8283 0.53152 0.0
C2013 C 0.05231 0.82366 0.52321 0.0
C2014 C 1.00671 0.80758 0.53137 0.0
C2015 C 0.01394 0.7818 0.52295 0.0
C2016 C 0.04078 0.77682 0.51554 0.0
C2017 C 0.05985 0.79759 0.51567 0.0
C2018 C 0.97471 0.72275 0.4979 0.0
C2019 C 0.95675 0.71727 0.51746 0.0
C2020 C 0.99274 0.74414 0.49953 0.0
C2021 C 0.99331 0.76042 0.52083 0.0
C2022 C 0.9743 0.75594 0.53986 0.0
C2023 C 0.95602 0.73447 0.53816 0.0
H2024 H 0.43767 0.77304 0.7836 0.0
H2025 H 0.48183 0.83977 0.75109 0.0
H2026 H 0.47734 0.74444 0.77971 0.0
H2027 H 0.52151 0.81077 0.74679 0.0
H2028 H 0.59336 0.75998 0.77527 0.0
H2029 H 0.5538 0.789 0.77503 0.0
H2030 H 0.50526 0.72275 0.74767 0.0
H2031 H 0.54487 0.69331 0.74836 0.0
C2032 C 0.4558 0.78156 0.77545 0.0
C2033 C 0.45668 0.80865 0.76763 0.0
C2034 C 0.47843 0.76509 0.77306 0.0
C2035 C 0.50235 0.77537 0.76279 0.0
C2036 C 0.50329 0.80244 0.75493 0.0
C2037 C 0.48063 0.81899 0.75737 0.0
C2038 C 0.57431 0.75159 0.76901 0.0
C2039 C 0.57217 0.72432 0.76191 0.0
C2040 C 0.55171 0.7683 0.76873 0.0
C2041 C 0.52655 0.75809 0.76133 0.0
C2042 C 0.52445 0.731 0.75372 0.0
C2043 C 0.54709 0.71421 0.75404 0.0
H2044 H 0.43699 0.23178 0.99638 0.0
H2045 H 0.50387 0.18486 0.02521 0.0
H2046 H 0.46632 0.27141 0.99393 0.0
H2047 H 0.53275 0.22438 0.02323 0.0
H2048 H 0.58414 0.29436 0.99678 0.0
H2049 H 0.55477 0.25482 0.99389 0.0
H2050 H 0.48833 0.3016 0.02352 0.0
H2051 H 0.51727 0.34106 0.02594 0.0
C2052 C 0.45788 0.22991 1.00217 0.0
C2053 C 0.46808 0.20521 0.01098 0.0
C2054 C 0.47464 0.25258 1.00083 0.0
C2055 C 0.50183 0.25092 0.00833 0.0
C2056 C 0.51203 0.22616 0.0169 0.0
C2057 C 0.49537 0.20356 0.0182 0.0
C2058 C 0.56324 0.2962 1.00254 0.0
C2059 C 0.55306 0.32082 0.01159 0.0
C2060 C 0.54645 0.27358 1.00096 0.0
C2061 C 0.51925 0.27518 0.00844 0.0
C2062 C 0.50906 0.29987 0.01722 0.0
C2063 C 0.52576 0.32243 0.01877 0.0
H2064 H 0.98126 0.68322 0.26805 0.0
H2065 H 0.9365 0.75135 0.23873 0.0
H2066 H 0.02145 0.7117 0.27154 0.0
H2067 H 0.97651 0.77935 0.2418 0.0
H2068 H 0.04523 0.82938 0.27103 0.0
H2069 H 1.00579 0.79996 0.27304 0.0
H2070 H 0.05294 0.73414 0.24273 0.0
H2071 H 0.09247 0.76324 0.24118 0.0
C2072 C 0.98 0.7042 0.26237 0.0
C2073 C 0.95574 0.71505 0.25319 0.0
C2074 C 1.00296 0.72045 0.26432 0.0
C2075 C 1.00197 0.74774 0.25708 0.0
C2076 C 0.9777 0.75853 0.24797 0.0
C2077 C 0.95483 0.74238 0.24606 0.0
C2078 C 0.04721 0.8086 0.26495 0.0
C2079 C 0.07188 0.79866 0.25585 0.0
C2080 C 0.02465 0.79179 0.26605 0.0
C2081 C 0.02636 0.76483 0.25798 0.0
C2082 C 0.05116 0.75474 0.24939 0.0
C2083 C 0.07372 0.77149 0.24834 0.0
H2084 H 0.51935 0.67584 0.48333 0.0
H2085 H 0.58258 0.7294 0.50912 0.0
H2086 H 0.4873 0.71283 0.48416 0.0
H2087 H 0.55027 0.76682 0.50929 0.0
H2088 H 0.47968 0.81646 0.5369 0.0
H2089 H 0.51066 0.77849 0.53451 0.0
H2090 H 0.47635 0.75574 0.46367 0.0
H2091 H 0.44472 0.79382 0.46632 0.0
C2092 C 0.52649 0.69557 0.4891 0.0
C2093 C 0.55348 0.69965 0.49655 0.0
C2094 C 0.50809 0.7168 0.48931 0.0
C2095 C 0.51626 0.74257 0.49691 0.0
C2096 C 0.54339 0.74694 0.50373 0.0
C2097 C 0.56189 0.72562 0.50355 0.0
C2098 C 0.47854 0.80316 0.52093 0.0
C2099 C 0.45996 0.80801 0.50171 0.0
C2100 C 0.49647 0.78164 0.51946 0.0
C2101 C 0.49628 0.76459 0.49868 0.0
C2102 C 0.47688 0.76866 0.4799 0.0
C2103 C 0.45873 0.79025 0.48145 0.0
H2104 H 0.47846 0.18946 0.76659 0.0
H2105 H 0.43124 0.25721 0.7399 0.0
H2106 H 0.51833 0.21846 0.76862 0.0
H2107 H 0.47101 0.28576 0.74142 0.0
H2108 H 0.54156 0.336 0.7676 0.0
H2109 H 0.50212 0.30669 0.77075 0.0
H2110 H 0.54783 0.24097 0.73846 0.0
H2111 H 0.58737 0.26994 0.7358 0.0
C2112 C 0.47658 0.21049 0.76122 0.0
C2113 C 0.45175 0.22105 0.7531 0.0
C2114 C 0.49938 0.22703 0.7623 0.0
C2115 C 0.49769 0.25433 0.75521 0.0
C2116 C 0.47279 0.26491 0.74739 0.0
C2117 C 0.45006 0.24847 0.74638 0.0
C2118 C 0.54319 0.31528 0.76125 0.0
C2119 C 0.56751 0.30528 0.75142 0.0
C2120 C 0.52063 0.29854 0.76302 0.0
C2121 C 0.52198 0.27158 0.75487 0.0
C2122 C 0.54636 0.26153 0.74526 0.0
C2123 C 0.56893 0.27821 0.74357 0.0
H2124 H 0.99814 0.33482 0.98112 0.0
H2125 H 0.93168 0.2924 0.01598 0.0
H2126 H 0.02615 0.29485 0.98484 0.0
H2127 H 0.96021 0.25218 0.01998 0.0
H2128 H 0.07801 0.22949 0.01721 0.0
H2129 H 0.0479 0.2685 0.01818 0.0
H2130 H 0.9821 0.21876 0.99181 0.0
H2131 H 1.01191 0.17966 0.99124 0.0
C2132 C 0.98954 0.31698 0.98972 0.0
C2133 C 0.96275 0.31677 0.99843 0.0
C2134 C 1.00569 0.29417 0.992 0.0
C2135 C 0.99543 0.27065 1.00301 0.0
C2136 C 0.96853 0.27015 0.01139 0.0
C2137 C 0.95226 0.2931 0.00911 0.0
C2138 C 0.05709 0.22684 0.01182 0.0
C2139 C 0.04738 0.2016 1.00399 0.0
C2140 C 0.0399 0.24914 0.01232 0.0
C2141 C 0.01279 0.24656 1.00493 0.0
C2142 C 1.00286 0.22119 0.99784 0.0
C2143 C 0.02001 0.19888 0.99736 0.0
H2144 H 0.09669 0.75708 0.76842 0.0
H2145 H 0.04444 0.69103 0.7473 0.0
H2146 H 0.05796 0.78734 0.77024 0.0
H2147 H 1.00576 0.72153 0.74779 0.0
H2148 H 0.93775 0.77597 0.76868 0.0
H2149 H 0.97687 0.74672 0.77335 0.0
H2150 H 0.02793 0.80975 0.74318 0.0
H2151 H 0.98865 0.83957 0.7399 0.0
C2152 C 0.07684 0.74909 0.76414 0.0
C2153 C 0.07341 0.72179 0.75772 0.0
C2154 C 0.0547 0.76645 0.76499 0.0
C2155 C 0.02878 0.75694 0.759 0.0
C2156 C 0.02537 0.72945 0.75295 0.0
C2157 C 0.04748 0.71196 0.75256 0.0
C2158 C 0.95743 0.78358 0.76325 0.0
C2159 C 0.96037 0.80984 0.75378 0.0
C2160 C 0.9798 0.76679 0.76577 0.0
C2161 C 1.00548 0.77572 0.75833 0.0
C2162 C 1.00848 0.80234 0.74939 0.0
C2163 C 0.98607 0.81939 0.74738 0.0
H2164 H 0.05656 0.31221 0.53319 0.0
H2165 H 0.08384 0.29143 0.45936 0.0
H2166 H 0.02666 0.27332 0.53342 0.0
H2167 H 0.05336 0.25224 0.45944 0.0
H2168 H 1.01134 0.17204 0.48191 0.0
H2169 H 0.04428 0.20837 0.48103 0.0
H2170 H 0.98439 0.26351 0.51026 0.0
H2171 H 0.95126 0.22693 0.51161 0.0
C2172 C 0.05635 0.29903 0.5171 0.0
C2173 C 0.0722 0.30479 0.49613 0.0
C2174 C 0.03908 0.27696 0.51717 0.0
C2175 C 0.03725 0.26028 0.49623 0.0
C2176 C 0.05439 0.26496 0.47579 0.0
C2177 C 0.07188 0.28716 0.47576 0.0
C2178 C 1.00512 0.19189 0.48826 0.0
C2179 C 0.97876 0.19659 0.49721 0.0
C2180 C 0.02399 0.21269 0.48751 0.0
C2181 C 0.01691 0.23857 0.49574 0.0
C2182 C 0.99043 0.24351 0.50418 0.0
C2183 C 0.97146 0.22268 0.50488 0.0
H2184 H 0.47995 0.33689 0.26877 0.0
H2185 H 0.43454 0.26997 0.23817 0.0
H2186 H 0.5198 0.30782 0.27185 0.0
H2187 H 0.47423 0.2414 0.24082 0.0
H2188 H 0.59047 0.2568 0.2405 0.0
H2189 H 0.55107 0.28599 0.24276 0.0
H2190 H 0.50362 0.21945 0.27113 0.0
H2191 H 0.54303 0.18988 0.26839 0.0
C2192 C 0.47847 0.31606 0.26272 0.0
C2193 C 0.45411 0.30574 0.25326 0.0
C2194 C 0.50125 0.29946 0.26444 0.0
C2195 C 0.50002 0.27233 0.2567 0.0
C2196 C 0.47564 0.26206 0.24738 0.0
C2197 C 0.45294 0.27855 0.2457 0.0
C2198 C 0.5717 0.24837 0.24739 0.0
C2199 C 0.5698 0.22096 0.25416 0.0
C2200 C 0.54919 0.26519 0.24885 0.0
C2201 C 0.52432 0.25499 0.25712 0.0
C2202 C 0.52252 0.22775 0.26441 0.0
C2203 C 0.54506 0.21085 0.2629 0.0
H2204 H 0.52106 0.84796 0.97219 0.0
H2205 H 0.57292 0.79767 0.0175 0.0
H2206 H 0.48921 0.81086 0.96784 0.0
H2207 H 0.54055 0.76077 0.01388 0.0
H2208 H 0.49384 0.69209 0.98538 0.0
H2209 H 0.52438 0.73014 0.98312 0.0
H2210 H 0.45681 0.78493 0.99189 0.0
H2211 H 0.42573 0.74622 0.99269 0.0
C2212 C 0.52552 0.82899 0.9814 0.0
C2213 C 0.5494 0.82559 0.99528 0.0
C2214 C 0.50722 0.80783 0.97895 0.0
C2215 C 0.51239 0.78296 0.99046 0.0
C2216 C 0.53627 0.77961 1.00439 0.0
C2217 C 0.55476 0.8007 1.0066 0.0
C2218 C 0.48542 0.7123 0.98626 0.0
C2219 C 0.45756 0.71641 0.98938 0.0
C2220 C 0.50295 0.73406 0.98528 0.0
C2221 C 0.49308 0.76042 0.98804 0.0
C2222 C 0.46495 0.76473 0.98975 0.0
C2223 C 0.44719 0.74273 0.99021 0.0
H2224 H 0.9774 0.20153 0.75271 0.0
H2225 H 0.92257 0.25938 0.78599 0.0
H2226 H 0.0134 0.23532 0.75398 0.0
H2227 H 0.95833 0.29299 0.78684 0.0
H2228 H 0.04176 0.33397 0.80575 0.0
H2229 H 1.00333 0.3025 0.80682 0.0
H2230 H 0.02057 0.27867 0.7312 0.0
H2231 H 0.05865 0.30959 0.73025 0.0
C2232 C 0.97306 0.22136 0.76029 0.0
C2233 C 0.94712 0.22792 0.76884 0.0
C2234 C 0.99356 0.2407 0.76094 0.0
C2235 C 0.98843 0.2668 0.77027 0.0
C2236 C 0.96278 0.27302 0.77962 0.0
C2237 C 0.9423 0.25379 0.77888 0.0
C2238 C 0.03675 0.32247 0.78925 0.0
C2239 C 0.05309 0.32389 0.76803 0.0
C2240 C 0.01502 0.30439 0.78989 0.0
C2241 C 1.00957 0.28773 0.76928 0.0
C2242 C 0.02486 0.29069 0.74756 0.0
C2243 C 0.04643 0.30857 0.74695 0.0
H2244 H 0.43472 0.29232 0.50037 0.0
H2245 H 0.50062 0.33753 0.53299 0.0
H2246 H 0.46411 0.25266 0.49724 0.0
H2247 H 0.52952 0.29807 0.53022 0.0
H2248 H 0.51658 0.18171 0.52617 0.0
H2249 H 0.48659 0.2206 0.5255 0.0
H2250 H 0.55195 0.27055 0.49851 0.0
H2251 H 0.58231 0.23166 0.49961 0.0
C2252 C 0.45536 0.29375 0.50695 0.0
C2253 C 0.46539 0.31804 0.51679 0.0
C2254 C 0.47215 0.2711 0.50518 0.0
C2255 C 0.49915 0.27244 0.51326 0.0
C2256 C 0.50899 0.29664 0.52334 0.0
C2257 C 0.49232 0.31918 0.52508 0.0
C2258 C 0.52458 0.20094 0.51992 0.0
C2259 C 0.55189 0.20368 0.51305 0.0
C2260 C 0.5073 0.22315 0.5194 0.0
C2261 C 0.51696 0.24854 0.51199 0.0
C2262 C 0.54409 0.25121 0.50459 0.0
C2263 C 0.56143 0.22897 0.50515 0.0
H2264 H 0.49623 0.6725 0.27453 0.0
H2265 H 0.44315 0.74118 0.28348 0.0
H2266 H 0.5354 0.70306 0.27548 0.0
H2267 H 0.48161 0.77114 0.28594 0.0
H2268 H 0.54856 0.81971 0.25154 0.0
H2269 H 0.51182 0.7872 0.25472 0.0
H2270 H 0.56212 0.73508 0.2998 0.0
H2271 H 0.59918 0.76718 0.29588 0.0
C2272 C 0.49307 0.69395 0.2774 0.0
C2273 C 0.46689 0.70467 0.27864 0.0
C2274 C 0.51533 0.71141 0.27796 0.0
C2275 C 0.51141 0.73955 0.28016 0.0
C2276 C 0.48522 0.74971 0.28339 0.0
C2277 C 0.46322 0.7325 0.2823 0.0
C2278 C 0.5517 0.80134 0.26213 0.0
C2279 C 0.57662 0.79591 0.27339 0.0
C2280 C 0.53069 0.78277 0.26409 0.0
C2281 C 0.5341 0.75869 0.27771 0.0
C2282 C 0.55905 0.7533 0.28898 0.0
C2283 C 0.58016 0.77173 0.28679 0.0
H2284 H 0.97426 0.8129 0.9811 0.0
H2285 H 0.94242 0.79116 0.05314 0.0
H2286 H 1.00513 0.77477 0.98259 0.0
H2287 H 0.97394 0.75284 0.05487 0.0
H2288 H 0.01743 0.67301 0.03464 0.0
H2289 H 0.98471 0.70952 0.03442 0.0
H2290 H 0.04588 0.76415 1.00682 0.0
H2291 H 0.07881 0.72728 1.00645 0.0
C2292 C 0.97374 0.79972 0.99719 0.0
C2293 C 0.95616 0.80493 0.01711 0.0
C2294 C 0.9916 0.77809 0.99813 0.0
C2295 C 0.99235 0.7613 0.01908 0.0
C2296 C 0.97376 0.76559 0.03851 0.0
C2297 C 0.95567 0.78731 0.0375 0.0
C2298 C 0.02401 0.69279 0.02845 0.0
C2299 C 0.05067 0.69721 0.02017 0.0
C2300 C 1.00524 0.71373 0.02858 0.0
C2301 C 0.01271 0.73954 0.02045 0.0
C2302 C 0.03952 0.74423 0.0128 0.0
C2303 C 0.05838 0.72322 0.01267 0.0
H2304 H 0.15275 0.15783 0.0652 0.0
H2305 H 0.07339 0.12426 0.07859 0.0
H2306 H 0.15964 0.16254 0.10982 0.0
H2307 H 0.08032 0.12919 0.12325 0.0
H2308 H 0.11268 0.119 0.20238 0.0
H2309 H 0.10827 0.11146 0.15782 0.0
H2310 H 0.14086 0.19096 0.14366 0.0
H2311 H 0.14549 0.19853 0.18827 0.0
C2312 C 0.13681 0.15129 0.07763 0.0
C2313 C 0.11243 0.14077 0.06825 0.0
C2314 C 0.14073 0.15417 0.10322 0.0
C2315 C 0.12047 0.14641 0.12006 0.0
C2316 C 0.0964 0.13518 0.11075 0.0
C2317 C 0.09239 0.13246 0.08514 0.0
C2318 C 0.11901 0.13488 0.1898 0.0
C2319 C 0.12933 0.15946 0.19896 0.0
C2320 C 0.11635 0.13057 0.16425 0.0
C2321 C 0.12413 0.15063 0.14721 0.0
C2322 C 0.13491 0.175 0.15631 0.0
C2323 C 0.13742 0.1794 0.18189 0.0
H2324 H 0.07934 0.8955 0.44033 0.0
H2325 H 0.15798 0.86038 0.45423 0.0
H2326 H 0.08676 0.89103 0.39574 0.0
H2327 H 0.16538 0.8561 0.40958 0.0
H2328 H 0.1502 0.822 0.33001 0.0
H2329 H 0.1463 0.82882 0.37478 0.0
H2330 H 0.11599 0.90959 0.36227 0.0
H2331 H 0.11969 0.90286 0.31757 0.0
C2332 C 0.09825 0.88694 0.4339 0.0
C2333 C 0.11799 0.87818 0.45088 0.0
C2334 C 0.10256 0.88453 0.40833 0.0
C2335 C 0.12665 0.87319 0.39916 0.0
C2336 C 0.14651 0.86468 0.41611 0.0
C2337 C 0.14229 0.86726 0.44168 0.0
C2338 C 0.1429 0.84129 0.33679 0.0
C2339 C 0.13506 0.86178 0.32016 0.0
C2340 C 0.14078 0.84523 0.36245 0.0
C2341 C 0.13065 0.86967 0.37202 0.0
C2342 C 0.1235 0.8904 0.35543 0.0
C2343 C 0.12577 0.88655 0.32981 0.0
H2344 H 0.38524 0.82804 0.6922 0.0
H2345 H 0.4042 0.91229 0.70462 0.0
H2346 H 0.39035 0.83463 0.64776 0.0
H2347 H 0.40878 0.91899 0.65983 0.0
H2348 H 0.44734 0.90829 0.58091 0.0
H2349 H 0.4393 0.90618 0.62574 0.0
H2350 H 0.36885 0.85648 0.61301 0.0
H2351 H 0.37716 0.85806 0.56858 0.0
C2352 C 0.39023 0.84807 0.68546 0.0
C2353 C 0.39439 0.8696 0.70204 0.0
C2354 C 0.39301 0.85188 0.6599 0.0
C2355 C 0.39993 0.87736 0.65021 0.0
C2356 C 0.40372 0.89905 0.66673 0.0
C2357 C 0.40091 0.89523 0.69238 0.0
C2358 C 0.43004 0.89709 0.58772 0.0
C2359 C 0.41317 0.88295 0.57122 0.0
C2360 C 0.42535 0.89599 0.61338 0.0
C2361 C 0.40363 0.88084 0.62297 0.0
C2362 C 0.38612 0.86779 0.60631 0.0
C2363 C 0.39086 0.86877 0.5808 0.0
H2364 H 0.37048 0.19551 0.82682 0.0
H2365 H 0.406 0.11716 0.81224 0.0
H2366 H 0.37542 0.18778 0.87135 0.0
H2367 H 0.41085 0.10954 0.85678 0.0
H2368 H 0.44695 0.12636 0.9358 0.0
H2369 H 0.43916 0.12997 0.89106 0.0
H2370 H 0.35761 0.15735 0.9048 0.0
H2371 H 0.36523 0.15388 0.94931 0.0
C2372 C 0.37911 0.17656 0.83309 0.0
C2373 C 0.38794 0.15703 0.81595 0.0
C2374 C 0.38184 0.1721 0.85859 0.0
C2375 C 0.39364 0.1481 0.86749 0.0
C2376 C 0.40197 0.12833 0.85041 0.0
C2377 C 0.399 0.13267 0.82491 0.0
C2378 C 0.42731 0.13294 0.92927 0.0
C2379 C 0.40682 0.14002 0.94617 0.0
C2380 C 0.42281 0.13489 0.90367 0.0
C2381 C 0.39783 0.14413 0.8945 0.0
C2382 C 0.37717 0.15052 0.91136 0.0
C2383 C 0.38155 0.14838 0.93688 0.0
H2384 H 0.94628 0.90632 0.93859 0.0
H2385 H 0.87614 0.85565 0.94966 0.0
H2386 H 0.93887 0.90464 0.89365 0.0
H2387 H 0.86851 0.85447 0.90513 0.0
H2388 H 0.88688 0.8266 0.82606 0.0
H2389 H 0.89114 0.83292 0.8706 0.0
H2390 H 0.9083 0.91768 0.85933 0.0
H2391 H 0.9045 0.91129 0.81443 0.0
C2392 C 0.92914 0.8951 0.93148 0.0
C2393 C 0.9121 0.88071 0.94766 0.0
C2394 C 0.92481 0.89425 0.90576 0.0
C2395 C 0.9033 0.87911 0.89581 0.0
C2396 C 0.88562 0.86579 0.91214 0.0
C2397 C 0.88998 0.86654 0.9377 0.0
C2398 C 0.8914 0.84666 0.833 0.0
C2399 C 0.89545 0.8684 0.81662 0.0
C2400 C 0.8937 0.85031 0.8586 0.0
C2401 C 0.90004 0.87582 0.86853 0.0
C2402 C 0.90369 0.89772 0.85223 0.0
C2403 C 0.90133 0.89407 0.82652 0.0
H2404 H 0.87208 0.15668 0.56369 0.0
H2405 H 0.95191 0.12479 0.57849 0.0
H2406 H 0.86465 0.16271 0.60801 0.0
H2407 H 0.94435 0.13099 0.62302 0.0
H2408 H 0.90961 0.12094 0.70158 0.0
H2409 H 0.91564 0.11321 0.65728 0.0
H2410 H 0.88229 0.19213 0.64174 0.0
H2411 H 0.87608 0.19997 0.68621 0.0
C2412 C 0.88806 0.15084 0.57637 0.0
C2413 C 0.91269 0.14032 0.56744 0.0
C2414 C 0.88381 0.15449 0.6018 0.0
C2415 C 0.90396 0.14752 0.61901 0.0
C2416 C 0.92836 0.13641 0.6102 0.0
C2417 C 0.93272 0.13292 0.58469 0.0
C2418 C 0.90343 0.13668 0.68878 0.0
C2419 C 0.89241 0.16117 0.69753 0.0
C2420 C 0.90708 0.13226 0.66337 0.0
C2421 C 0.8996 0.15209 0.64602 0.0
C2422 C 0.88809 0.17637 0.65466 0.0
C2423 C 0.8846 0.1809 0.68015 0.0
H2424 H 0.65684 0.15726 0.45073 0.0
H2425 H 0.57663 0.1256 0.43756 0.0
H2426 H 0.66425 0.16055 0.40612 0.0
H2427 H 0.58415 0.12907 0.39283 0.0
H2428 H 0.61669 0.11668 0.31414 0.0
H2429 H 0.61264 0.10962 0.35881 0.0
H2430 H 0.64566 0.18913 0.372 0.0
H2431 H 0.64988 0.19626 0.32732 0.0
C2432 C 0.64081 0.15085 0.43835 0.0
C2433 C 0.61603 0.14132 0.44777 0.0
C2434 C 0.64506 0.15288 0.41278 0.0
C2435 C 0.62474 0.14522 0.396 0.0
C2436 C 0.60026 0.13494 0.40533 0.0
C2437 C 0.59591 0.13308 0.43096 0.0
C2438 C 0.62332 0.13261 0.32653 0.0
C2439 C 0.63349 0.15713 0.31711 0.0
C2440 C 0.62082 0.12858 0.35212 0.0
C2441 C 0.62868 0.14886 0.36888 0.0
C2442 C 0.63962 0.17304 0.35952 0.0
C2443 C 0.64192 0.17717 0.33392 0.0
H2444 H 0.64685 0.82256 0.18933 0.0
H2445 H 0.61296 0.90179 0.20296 0.0
H2446 H 0.6422 0.82978 0.14468 0.0
H2447 H 0.60857 0.909 0.15835 0.0
H2448 H 0.57473 0.89674 0.07908 0.0
H2449 H 0.58116 0.8912 0.12371 0.0
H2450 H 0.66065 0.85791 0.11066 0.0
H2451 H 0.65421 0.86321 0.066 0.0
C2452 C 0.63852 0.84155 0.18284 0.0
C2453 C 0.63016 0.86152 0.19979 0.0
C2454 C 0.636 0.84575 0.15722 0.0
C2455 C 0.62494 0.86994 0.14795 0.0
C2456 C 0.61685 0.89001 0.16489 0.0
C2457 C 0.61952 0.8859 0.19048 0.0
C2458 C 0.59363 0.88833 0.0857 0.0
C2459 C 0.61389 0.88032 0.06889 0.0
C2460 C 0.59737 0.88528 0.11131 0.0
C2461 C 0.62139 0.87403 0.12075 0.0
C2462 C 0.64178 0.86633 0.10397 0.0
C2463 C 0.63812 0.86953 0.07837 0.0
H2464 H 0.65713 0.65731 0.56323 0.0
H2465 H 0.57731 0.62497 0.57691 0.0
H2466 H 0.66393 0.66293 0.6077 0.0
H2467 H 0.58427 0.63069 0.62158 0.0
H2468 H 0.61794 0.62024 0.70052 0.0
H2469 H 0.61306 0.61258 0.65606 0.0
H2470 H 0.64506 0.69219 0.6414 0.0
H2471 H 0.65003 0.69999 0.68601 0.0
C2472 C 0.64104 0.65126 0.57569 0.0
C2473 C 0.61658 0.64076 0.56641 0.0
C2474 C 0.64493 0.65467 0.60121 0.0
C2475 C 0.62461 0.64742 0.61814 0.0
C2476 C 0.60039 0.63631 0.60898 0.0
C2477 C 0.59637 0.63311 0.58338 0.0
C2478 C 0.62412 0.63612 0.68788 0.0
C2479 C 0.63432 0.66082 0.69691 0.0
C2480 C 0.62112 0.63174 0.66238 0.0
C2481 C 0.62851 0.65181 0.64523 0.0
C2482 C 0.63934 0.67625 0.65417 0.0
C2483 C 0.64212 0.68076 0.67973 0.0
H2484 H 0.61185 0.40862 0.81343 0.0
H2485 H 0.64601 0.32953 0.82739 0.0
H2486 H 0.6081 0.41633 0.85804 0.0
H2487 H 0.64216 0.33736 0.87203 0.0
H2488 H 0.6552 0.37166 0.94966 0.0
H2489 H 0.66162 0.36775 0.90498 0.0
H2490 H 0.58022 0.39645 0.89286 0.0
H2491 H 0.57363 0.40046 0.9377 0.0
C2492 C 0.6187 0.39293 0.82599 0.0
C2493 C 0.62912 0.36837 0.81685 0.0
C2494 C 0.6164 0.39733 0.85152 0.0
C2495 C 0.62475 0.37742 0.86844 0.0
C2496 C 0.63576 0.35314 0.85937 0.0
C2497 C 0.63783 0.34861 0.83382 0.0
C2498 C 0.63868 0.37736 0.93753 0.0
C2499 C 0.61378 0.38619 0.94729 0.0
C2500 C 0.64237 0.37497 0.91193 0.0
C2501 C 0.62137 0.38159 0.8955 0.0
C2502 C 0.5968 0.39133 0.90514 0.0
C2503 C 0.593 0.39352 0.9308 0.0
H2504 H 0.9475 0.38806 0.07499 0.0
H2505 H 0.86223 0.37376 0.06319 0.0
H2506 H 0.94107 0.3828 0.11948 0.0
H2507 H 0.85576 0.36899 0.10795 0.0
H2508 H 0.86481 0.32922 0.18634 0.0
H2509 H 0.86755 0.33717 0.14153 0.0
H2510 H 0.92025 0.40534 0.15451 0.0
H2511 H 0.91798 0.39718 0.19892 0.0
C2512 C 0.92732 0.38406 0.08188 0.0
C2513 C 0.90542 0.38125 0.06547 0.0
C2514 C 0.9236 0.38117 0.10744 0.0
C2515 C 0.89789 0.37548 0.11727 0.0
C2516 C 0.87587 0.37306 0.10093 0.0
C2517 C 0.87957 0.37598 0.0753 0.0
C2518 C 0.87684 0.34597 0.17959 0.0
C2519 C 0.89152 0.36228 0.19617 0.0
C2520 C 0.87831 0.35062 0.15395 0.0
C2521 C 0.89439 0.3717 0.14446 0.0
C2522 C 0.90817 0.38857 0.16116 0.0
C2523 C 0.90678 0.38391 0.18666 0.0
H2524 H 0.87478 0.666 0.45056 0.0
H2525 H 0.94611 0.61754 0.43728 0.0
H2526 H 0.86585 0.66756 0.40626 0.0
H2527 H 0.93735 0.61959 0.39254 0.0
H2528 H 0.88094 0.69652 0.32678 0.0
H2529 H 0.88658 0.69006 0.37123 0.0
H2530 H 0.9061 0.60592 0.3591 0.0
H2531 H 0.90091 0.61245 0.31439 0.0
C2532 C 0.88862 0.65568 0.43816 0.0
C2533 C 0.91143 0.642 0.44742 0.0
C2534 C 0.8835 0.65665 0.41273 0.0
C2535 C 0.90109 0.64406 0.39585 0.0
C2536 C 0.92335 0.62941 0.4051 0.0
C2537 C 0.92844 0.62833 0.4307 0.0
C2538 C 0.8862 0.67657 0.33354 0.0
C2539 C 0.89055 0.65505 0.31697 0.0
C2540 C 0.88934 0.67283 0.35907 0.0
C2541 C 0.89683 0.64746 0.36871 0.0
C2542 C 0.90064 0.62578 0.35222 0.0
C2543 C 0.89747 0.6295 0.32662 0.0
H2544 H 0.44467 0.39628 0.43815 0.0
H2545 H 0.36512 0.36334 0.45201 0.0
H2546 H 0.43707 0.39207 0.39351 0.0
H2547 H 0.35766 0.35916 0.40737 0.0
H2548 H 0.37388 0.32442 0.32762 0.0
H2549 H 0.37789 0.33078 0.37251 0.0
H2550 H 0.40639 0.41226 0.36071 0.0
H2551 H 0.40241 0.40611 0.316 0.0
C2552 C 0.42555 0.38825 0.43169 0.0
C2553 C 0.40555 0.38007 0.44862 0.0
C2554 C 0.42116 0.38597 0.40615 0.0
C2555 C 0.3968 0.37524 0.39705 0.0
C2556 C 0.37671 0.36728 0.41393 0.0
C2557 C 0.38096 0.36983 0.43946 0.0
C2558 C 0.38078 0.34376 0.33461 0.0
C2559 C 0.38801 0.36466 0.31821 0.0
C2560 C 0.38297 0.34742 0.36028 0.0
C2561 C 0.39265 0.37194 0.37 0.0
C2562 C 0.39921 0.39304 0.35367 0.0
C2563 C 0.39678 0.38951 0.32806 0.0
H2564 H 0.41568 0.62232 0.20194 0.0
H2565 H 0.37802 0.70015 0.19053 0.0
H2566 H 0.41884 0.61586 0.15727 0.0
H2567 H 0.38221 0.6943 0.14568 0.0
H2568 H 0.37391 0.66782 0.06583 0.0
H2569 H 0.36679 0.67073 0.11045 0.0
H2570 H 0.44364 0.63116 0.12278 0.0
H2571 H 0.45012 0.62725 0.07802 0.0
C2572 C 0.40816 0.63813 0.18983 0.0
C2573 C 0.39677 0.66184 0.19976 0.0
C2574 C 0.41014 0.63451 0.16418 0.0
C2575 C 0.40109 0.65465 0.14773 0.0
C2576 C 0.38912 0.67816 0.1577 0.0
C2577 C 0.3868 0.68162 0.18344 0.0
C2578 C 0.38923 0.65962 0.07809 0.0
C2579 C 0.41267 0.64745 0.0684 0.0
C2580 C 0.38523 0.66145 0.10372 0.0
C2581 C 0.40471 0.65143 0.12037 0.0
C2582 C 0.42797 0.6388 0.11061 0.0
C2583 C 0.43181 0.63665 0.08492 0.0
H2584 H 0.15702 0.65522 0.95377 0.0
H2585 H 0.07708 0.6236 0.93922 0.0
H2586 H 0.16492 0.65958 0.90933 0.0
H2587 H 0.08509 0.62817 0.89462 0.0
H2588 H 0.11926 0.61706 0.81615 0.0
H2589 H 0.11411 0.60939 0.86065 0.0
H2590 H 0.14697 0.68863 0.87542 0.0
H2591 H 0.15229 0.69637 0.83094 0.0
C2592 C 0.14113 0.64908 0.94112 0.0
C2593 C 0.11631 0.63919 0.95011 0.0
C2594 C 0.14567 0.65173 0.91564 0.0
C2595 C 0.12559 0.64437 0.89851 0.0
C2596 C 0.10102 0.63383 0.9074 0.0
C2597 C 0.09639 0.63134 0.93295 0.0
C2598 C 0.12562 0.63279 0.82886 0.0
C2599 C 0.1361 0.6574 0.81994 0.0
C2600 C 0.12248 0.62843 0.85435 0.0
C2601 C 0.12999 0.64845 0.8715 0.0
C2602 C 0.14118 0.67274 0.86265 0.0
C2603 C 0.14414 0.6772 0.83715 0.0
H2604 H 0.1327 0.33952 0.56512 0.0
H2605 H 0.09291 0.41689 0.57294 0.0
H2606 H 0.13845 0.3368 0.60965 0.0
H2607 H 0.09978 0.41475 0.6179 0.0
H2608 H 0.08651 0.38544 0.69769 0.0
H2609 H 0.0836 0.39163 0.65312 0.0
H2610 H 0.16171 0.35341 0.64439 0.0
H2611 H 0.16401 0.3461 0.68921 0.0
C2612 C 0.12546 0.35619 0.57635 0.0
C2613 C 0.11218 0.37839 0.56544 0.0
C2614 C 0.12901 0.35472 0.602 0.0
C2615 C 0.11971 0.37557 0.61752 0.0
C2616 C 0.10685 0.39809 0.60658 0.0
C2617 C 0.10299 0.39941 0.58081 0.0
C2618 C 0.10315 0.37839 0.68631 0.0
C2619 C 0.12542 0.36504 0.697 0.0
C2620 C 0.10157 0.38219 0.66067 0.0
C2621 C 0.12238 0.37304 0.64501 0.0
C2622 C 0.14503 0.36028 0.6558 0.0
C2623 C 0.14645 0.35616 0.6815 0.0
loop_
_geom_bond_atom_site_label_1
_geom_bond_atom_site_label_2
_geom_bond_distance
_geom_bond_site_symmetry_2
_ccdc_geom_bond_type
Fe0 O2 1.918 . S
Fe0 O5 1.997 . S
Fe0 O6 2.002 . S
Fe0 O11 1.976 . S
Fe0 O14 1.996 . S
Fe1 O2 1.918 . S
Fe1 O9 1.997 . S
Fe1 O12 1.996 . S
Fe1 O16 1.976 . S
Fe1 O19 2.002 . S
O2 Fe0 1.918 . S
O2 Fe1 1.918 . S
O2 Fe3 1.918 . S
Fe3 O2 1.918 . S
Fe3 O4 2.002 . S
Fe3 O13 1.976 . S
Fe3 O17 1.996 . S
Fe3 O20 1.997 . S
O4 Fe3 2.002 . S
O4 C21 1.295 . S
O5 Fe0 1.997 . S
O5 C21 1.235 . S
O6 Fe0 2.002 . S
O6 C7 1.295 . S
C7 O6 1.295 . S
C7 O9 1.235 . S
C8 O13 1.287 . S
C8 O14 1.255 . S
O9 Fe1 1.997 . S
O9 C7 1.235 . S
C10 O16 1.287 . S
C10 O17 1.255 . S
O11 Fe0 1.976 . S
O11 C18 1.287 . S
O12 Fe1 1.996 . S
O12 C18 1.255 . S
O13 Fe3 1.976 . S
O13 C8 1.287 . S
O14 Fe0 1.996 . S
O14 C8 1.255 . S
C15 O19 1.295 . S
C15 O20 1.235 . S
O16 Fe1 1.976 . S
O16 C10 1.287 . S
O17 Fe3 1.996 . S
O17 C10 1.255 . S
C18 O11 1.287 . S
C18 O12 1.255 . S
O19 Fe1 2.002 . S
O19 C15 1.295 . S
O20 Fe3 1.997 . S
O20 C15 1.235 . S
C21 O4 1.295 . S
C21 O5 1.235 . S
Fe22 O24 1.918 . S
Fe22 O27 1.997 . S
Fe22 O28 2.002 . S
Fe22 O33 1.976 . S
Fe22 O36 1.996 . S
Fe23 O24 1.918 . S
Fe23 O31 1.997 . S
Fe23 O34 1.996 . S
Fe23 O38 1.976 . S
Fe23 O41 2.002 . S
O24 Fe22 1.918 . S
O24 Fe23 1.918 . S
O24 Fe25 1.918 . S
Fe25 O24 1.918 . S
Fe25 O26 2.002 . S
Fe25 O35 1.976 . S
Fe25 O39 1.996 . S
Fe25 O42 1.997 . S
O26 Fe25 2.002 . S
O26 C43 1.295 . S
O27 Fe22 1.997 . S
O27 C43 1.235 . S
O28 Fe22 2.002 . S
O28 C29 1.295 . S
C29 O28 1.295 . S
C29 O31 1.235 . S
C30 O35 1.287 . S
C30 O36 1.255 . S
O31 Fe23 1.997 . S
O31 C29 1.235 . S
C32 O38 1.287 . S
C32 O39 1.255 . S
O33 Fe22 1.976 . S
O33 C40 1.287 . S
O34 Fe23 1.996 . S
O34 C40 1.255 . S
O35 Fe25 1.976 . S
O35 C30 1.287 . S
O36 Fe22 1.996 . S
O36 C30 1.255 . S
C37 O41 1.295 . S
C37 O42 1.235 . S
O38 Fe23 1.976 . S
O38 C32 1.287 . S
O39 Fe25 1.996 . S
O39 C32 1.255 . S
C40 O33 1.287 . S
C40 O34 1.255 . S
O41 Fe23 2.002 . S
O41 C37 1.295 . S
O42 Fe25 1.997 . S
O42 C37 1.235 . S
C43 O26 1.295 . S
C43 O27 1.235 . S
Fe44 O46 1.918 . S
Fe44 O49 1.997 . S
Fe44 O50 2.002 . S
Fe44 O55 1.976 . S
Fe44 O58 1.996 . S
Fe45 O46 1.918 . S
Fe45 O53 1.997 . S
Fe45 O56 1.996 . S
Fe45 O60 1.976 . S
Fe45 O63 2.002 . S
O46 Fe44 1.918 . S
O46 Fe45 1.918 . S
O46 Fe47 1.918 . S
Fe47 O46 1.918 . S
Fe47 O48 2.002 . S
Fe47 O57 1.976 . S
Fe47 O61 1.996 . S
Fe47 O64 1.997 . S
O48 Fe47 2.002 . S
O48 C65 1.295 . S
O49 Fe44 1.997 . S
O49 C65 1.235 . S
O50 Fe44 2.002 . S
O50 C51 1.295 . S
C51 O50 1.295 . S
C51 O53 1.235 . S
C52 O57 1.287 . S
C52 O58 1.255 . S
O53 Fe45 1.997 . S
O53 C51 1.235 . S
C54 O60 1.287 . S
C54 O61 1.255 . S
O55 Fe44 1.976 . S
O55 C62 1.287 . S
O56 Fe45 1.996 . S
O56 C62 1.255 . S
O57 Fe47 1.976 . S
O57 C52 1.287 . S
O58 Fe44 1.996 . S
O58 C52 1.255 . S
C59 O63 1.295 . S
C59 O64 1.235 . S
O60 Fe45 1.976 . S
O60 C54 1.287 . S
O61 Fe47 1.996 . S
O61 C54 1.255 . S
C62 O55 1.287 . S
C62 O56 1.255 . S
O63 Fe45 2.002 . S
O63 C59 1.295 . S
O64 Fe47 1.997 . S
O64 C59 1.235 . S
C65 O48 1.295 . S
C65 O49 1.235 . S
Fe66 O68 1.918 . S
Fe66 O71 1.997 . S
Fe66 O72 2.002 . S
Fe66 O77 1.976 . S
Fe66 O80 1.996 1_554 S
Fe67 O68 1.918 . S
Fe67 O75 1.997 . S
Fe67 O78 1.996 . S
Fe67 O82 1.976 . S
Fe67 O85 2.002 . S
O68 Fe66 1.918 . S
O68 Fe67 1.918 . S
O68 Fe69 1.918 . S
Fe69 O68 1.918 . S
Fe69 O70 2.002 . S
Fe69 O79 1.976 1_554 S
Fe69 O83 1.996 . S
Fe69 O86 1.997 . S
O70 Fe69 2.002 . S
O70 C87 1.295 . S
O71 Fe66 1.997 . S
O71 C87 1.235 . S
O72 Fe66 2.002 . S
O72 C73 1.295 . S
C73 O72 1.295 . S
C73 O75 1.235 . S
C74 O79 1.287 . S
C74 O80 1.255 . S
O75 Fe67 1.997 . S
O75 C73 1.235 . S
C76 O82 1.287 . S
C76 O83 1.255 . S
O77 Fe66 1.976 . S
O77 C84 1.287 . S
O78 Fe67 1.996 . S
O78 C84 1.255 . S
O79 Fe69 1.976 1_556 S
O79 C74 1.287 . S
O80 Fe66 1.996 1_556 S
O80 C74 1.255 . S
C81 O85 1.295 . S
C81 O86 1.235 . S
O82 Fe67 1.976 . S
O82 C76 1.287 . S
O83 Fe69 1.996 . S
O83 C76 1.255 . S
C84 O77 1.287 . S
C84 O78 1.255 . S
O85 Fe67 2.002 . S
O85 C81 1.295 . S
O86 Fe69 1.997 . S
O86 C81 1.235 . S
C87 O70 1.295 . S
C87 O71 1.235 . S
Fe88 O90 1.918 . S
Fe88 O93 1.997 . S
Fe88 O94 2.002 . S
Fe88 O99 1.976 . S
Fe88 O102 1.996 . S
Fe89 O90 1.918 . S
Fe89 O97 1.997 . S
Fe89 O100 1.996 . S
Fe89 O104 1.976 . S
Fe89 O107 2.002 . S
O90 Fe88 1.918 . S
O90 Fe89 1.918 . S
O90 Fe91 1.918 . S
Fe91 O90 1.918 . S
Fe91 O92 2.002 . S
Fe91 O101 1.976 . S
Fe91 O105 1.996 . S
Fe91 O108 1.997 . S
O92 Fe91 2.002 . S
O92 C109 1.295 . S
O93 Fe88 1.997 . S
O93 C109 1.235 . S
O94 Fe88 2.002 . S
O94 C95 1.295 . S
C95 O94 1.295 . S
C95 O97 1.235 . S
C96 O101 1.287 . S
C96 O102 1.255 . S
O97 Fe89 1.997 . S
O97 C95 1.235 . S
C98 O104 1.287 . S
C98 O105 1.255 . S
O99 Fe88 1.976 . S
O99 C106 1.287 . S
O100 Fe89 1.996 . S
O100 C106 1.255 . S
O101 Fe91 1.976 . S
O101 C96 1.287 . S
O102 Fe88 1.996 . S
O102 C96 1.255 . S
C103 O107 1.295 . S
C103 O108 1.235 . S
O104 Fe89 1.976 . S
O104 C98 1.287 . S
O105 Fe91 1.996 . S
O105 C98 1.255 . S
C106 O99 1.287 . S
C106 O100 1.255 . S
O107 Fe89 2.002 . S
O107 C103 1.295 . S
O108 Fe91 1.997 . S
O108 C103 1.235 . S
C109 O92 1.295 . S
C109 O93 1.235 . S
Fe110 O112 1.918 . S
Fe110 O115 1.997 . S
Fe110 O116 2.002 . S
Fe110 O121 1.976 . S
Fe110 O124 1.996 . S
Fe111 O112 1.918 . S
Fe111 O119 1.997 . S
Fe111 O122 1.996 . S
Fe111 O126 1.976 . S
Fe111 O129 2.002 . S
O112 Fe110 1.918 . S
O112 Fe111 1.918 . S
O112 Fe113 1.918 . S
Fe113 O112 1.918 . S
Fe113 O114 2.002 . S
Fe113 O123 1.976 . S
Fe113 O127 1.996 . S
Fe113 O130 1.997 . S
O114 Fe113 2.002 . S
O114 C131 1.295 . S
O115 Fe110 1.997 . S
O115 C131 1.235 . S
O116 Fe110 2.002 . S
O116 C117 1.295 . S
C117 O116 1.295 . S
C117 O119 1.235 . S
C118 O123 1.287 . S
C118 O124 1.255 . S
O119 Fe111 1.997 . S
O119 C117 1.235 . S
C120 O126 1.287 . S
C120 O127 1.255 . S
O121 Fe110 1.976 . S
O121 C128 1.287 . S
O122 Fe111 1.996 . S
O122 C128 1.255 . S
O123 Fe113 1.976 . S
O123 C118 1.287 . S
O124 Fe110 1.996 . S
O124 C118 1.255 . S
C125 O129 1.295 . S
C125 O130 1.235 . S
O126 Fe111 1.976 . S
O126 C120 1.287 . S
O127 Fe113 1.996 . S
O127 C120 1.255 . S
C128 O121 1.287 . S
C128 O122 1.255 . S
O129 Fe111 2.002 . S
O129 C125 1.295 . S
O130 Fe113 1.997 . S
O130 C125 1.235 . S
C131 O114 1.295 . S
C131 O115 1.235 . S
Fe132 O134 1.918 . S
Fe132 O137 1.997 . S
Fe132 O138 2.002 . S
Fe132 O143 1.976 . S
Fe132 O146 1.996 . S
Fe133 O134 1.918 . S
Fe133 O141 1.997 . S
Fe133 O144 1.996 . S
Fe133 O148 1.976 . S
Fe133 O151 2.002 . S
O134 Fe132 1.918 . S
O134 Fe133 1.918 . S
O134 Fe135 1.918 . S
Fe135 O134 1.918 . S
Fe135 O136 2.002 . S
Fe135 O145 1.976 . S
Fe135 O149 1.996 . S
Fe135 O152 1.997 . S
O136 Fe135 2.002 . S
O136 C153 1.295 . S
O137 Fe132 1.997 . S
O137 C153 1.235 . S
O138 Fe132 2.002 . S
O138 C139 1.295 . S
C139 O138 1.295 . S
C139 O141 1.235 . S
C140 O145 1.287 . S
C140 O146 1.255 . S
O141 Fe133 1.997 . S
O141 C139 1.235 . S
C142 O148 1.287 . S
C142 O149 1.255 . S
O143 Fe132 1.976 . S
O143 C150 1.287 . S
O144 Fe133 1.996 . S
O144 C150 1.255 . S
O145 Fe135 1.976 . S
O145 C140 1.287 . S
O146 Fe132 1.996 . S
O146 C140 1.255 . S
C147 O151 1.295 . S
C147 O152 1.235 . S
O148 Fe133 1.976 . S
O148 C142 1.287 . S
O149 Fe135 1.996 . S
O149 C142 1.255 . S
C150 O143 1.287 . S
C150 O144 1.255 . S
O151 Fe133 2.002 . S
O151 C147 1.295 . S
O152 Fe135 1.997 . S
O152 C147 1.235 . S
C153 O136 1.295 . S
C153 O137 1.235 . S
Fe154 O156 1.918 . S
Fe154 O159 1.997 . S
Fe154 O160 2.002 . S
Fe154 O165 1.976 . S
Fe154 O168 1.996 . S
Fe155 O156 1.918 . S
Fe155 O163 1.997 . S
Fe155 O166 1.996 . S
Fe155 O170 1.976 1_556 S
Fe155 O173 2.002 . S
O156 Fe154 1.918 . S
O156 Fe155 1.918 . S
O156 Fe157 1.918 . S
Fe157 O156 1.918 . S
Fe157 O158 2.002 . S
Fe157 O167 1.976 . S
Fe157 O171 1.996 1_556 S
Fe157 O174 1.997 . S
O158 Fe157 2.002 . S
O158 C175 1.295 . S
O159 Fe154 1.997 . S
O159 C175 1.235 . S
O160 Fe154 2.002 . S
O160 C161 1.295 . S
C161 O160 1.295 . S
C161 O163 1.235 . S
C162 O167 1.287 . S
C162 O168 1.255 . S
O163 Fe155 1.997 . S
O163 C161 1.235 . S
C164 O170 1.287 . S
C164 O171 1.255 . S
O165 Fe154 1.976 . S
O165 C172 1.287 . S
O166 Fe155 1.996 . S
O166 C172 1.255 . S
O167 Fe157 1.976 . S
O167 C162 1.287 . S
O168 Fe154 1.996 . S
O168 C162 1.255 . S
C169 O173 1.295 . S
C169 O174 1.235 . S
O170 Fe155 1.976 1_554 S
O170 C164 1.287 . S
O171 Fe157 1.996 1_554 S
O171 C164 1.255 . S
C172 O165 1.287 . S
C172 O166 1.255 . S
O173 Fe155 2.002 . S
O173 C169 1.295 . S
O174 Fe157 1.997 . S
O174 C169 1.235 . S
C175 O158 1.295 . S
C175 O159 1.235 . S
Fe176 O178 1.918 . S
Fe176 O181 1.997 . S
Fe176 O182 2.002 . S
Fe176 O187 1.976 . S
Fe176 O190 1.996 . S
Fe177 O178 1.918 . S
Fe177 O185 1.997 . S
Fe177 O188 1.996 . S
Fe177 O192 1.976 . S
Fe177 O195 2.002 . S
O178 Fe176 1.918 . S
O178 Fe177 1.918 . S
O178 Fe179 1.918 . S
Fe179 O178 1.918 . S
Fe179 O180 2.002 . S
Fe179 O189 1.976 . S
Fe179 O193 1.996 . S
Fe179 O196 1.997 . S
O180 Fe179 2.002 . S
O180 C197 1.295 . S
O181 Fe176 1.997 . S
O181 C197 1.235 . S
O182 Fe176 2.002 . S
O182 C183 1.295 . S
C183 O182 1.295 . S
C183 O185 1.235 . S
C184 O189 1.287 . S
C184 O190 1.255 . S
O185 Fe177 1.997 . S
O185 C183 1.235 . S
C186 O192 1.287 . S
C186 O193 1.255 . S
O187 Fe176 1.976 . S
O187 C194 1.287 . S
O188 Fe177 1.996 . S
O188 C194 1.255 . S
O189 Fe179 1.976 . S
O189 C184 1.287 . S
O190 Fe176 1.996 . S
O190 C184 1.255 . S
C191 O195 1.295 . S
C191 O196 1.235 . S
O192 Fe177 1.976 . S
O192 C186 1.287 . S
O193 Fe179 1.996 . S
O193 C186 1.255 . S
C194 O187 1.287 . S
C194 O188 1.255 . S
O195 Fe177 2.002 . S
O195 C191 1.295 . S
O196 Fe179 1.997 . S
O196 C191 1.235 . S
C197 O180 1.295 . S
C197 O181 1.235 . S
Fe198 O200 1.918 . S
Fe198 O203 1.997 . S
Fe198 O204 2.002 . S
Fe198 O209 1.976 . S
Fe198 O212 1.996 . S
Fe199 O200 1.918 . S
Fe199 O207 1.997 . S
Fe199 O210 1.996 . S
Fe199 O214 1.976 . S
Fe199 O217 2.002 . S
O200 Fe198 1.918 . S
O200 Fe199 1.918 . S
O200 Fe201 1.918 . S
Fe201 O200 1.918 . S
Fe201 O202 2.002 . S
Fe201 O211 1.976 . S
Fe201 O215 1.996 . S
Fe201 O218 1.997 . S
O202 Fe201 2.002 . S
O202 C219 1.295 . S
O203 Fe198 1.997 . S
O203 C219 1.235 . S
O204 Fe198 2.002 . S
O204 C205 1.295 . S
C205 O204 1.295 . S
C205 O207 1.235 . S
C206 O211 1.287 . S
C206 O212 1.255 . S
O207 Fe199 1.997 . S
O207 C205 1.235 . S
C208 O214 1.287 . S
C208 O215 1.255 . S
O209 Fe198 1.976 . S
O209 C216 1.287 . S
O210 Fe199 1.996 . S
O210 C216 1.255 . S
O211 Fe201 1.976 . S
O211 C206 1.287 . S
O212 Fe198 1.996 . S
O212 C206 1.255 . S
C213 O217 1.295 . S
C213 O218 1.235 . S
O214 Fe199 1.976 . S
O214 C208 1.287 . S
O215 Fe201 1.996 . S
O215 C208 1.255 . S
C216 O209 1.287 . S
C216 O210 1.255 . S
O217 Fe199 2.002 . S
O217 C213 1.295 . S
O218 Fe201 1.997 . S
O218 C213 1.235 . S
C219 O202 1.295 . S
C219 O203 1.235 . S
Fe220 O222 1.918 . S
Fe220 O225 1.997 . S
Fe220 O226 2.002 . S
Fe220 O231 1.976 . S
Fe220 O234 1.996 . S
Fe221 O222 1.918 . S
Fe221 O229 1.997 . S
Fe221 O232 1.996 . S
Fe221 O236 1.976 . S
Fe221 O239 2.002 . S
O222 Fe220 1.918 . S
O222 Fe221 1.918 . S
O222 Fe223 1.918 . S
Fe223 O222 1.918 . S
Fe223 O224 2.002 . S
Fe223 O233 1.976 . S
Fe223 O237 1.996 . S
Fe223 O240 1.997 . S
O224 Fe223 2.002 . S
O224 C241 1.295 . S
O225 Fe220 1.997 . S
O225 C241 1.235 . S
O226 Fe220 2.002 . S
O226 C227 1.295 . S
C227 O226 1.295 . S
C227 O229 1.235 . S
C228 O233 1.287 . S
C228 O234 1.255 . S
O229 Fe221 1.997 . S
O229 C227 1.235 . S
C230 O236 1.287 . S
C230 O237 1.255 . S
O231 Fe220 1.976 . S
O231 C238 1.287 . S
O232 Fe221 1.996 . S
O232 C238 1.255 . S
O233 Fe223 1.976 . S
O233 C228 1.287 . S
O234 Fe220 1.996 . S
O234 C228 1.255 . S
C235 O239 1.295 . S
C235 O240 1.235 . S
O236 Fe221 1.976 . S
O236 C230 1.287 . S
O237 Fe223 1.996 . S
O237 C230 1.255 . S
C238 O231 1.287 . S
C238 O232 1.255 . S
O239 Fe221 2.002 . S
O239 C235 1.295 . S
O240 Fe223 1.997 . S
O240 C235 1.235 . S
C241 O224 1.295 . S
C241 O225 1.235 . S
Fe242 O244 1.918 . S
Fe242 O247 1.997 . S
Fe242 O248 2.002 . S
Fe242 O253 1.976 . S
Fe242 O256 1.996 1_556 S
Fe243 O244 1.918 . S
Fe243 O251 1.997 . S
Fe243 O254 1.996 . S
Fe243 O258 1.976 . S
Fe243 O261 2.002 . S
O244 Fe242 1.918 . S
O244 Fe243 1.918 . S
O244 Fe245 1.918 . S
Fe245 O244 1.918 . S
Fe245 O246 2.002 . S
Fe245 O255 1.976 1_556 S
Fe245 O259 1.996 . S
Fe245 O262 1.997 . S
O246 Fe245 2.002 . S
O246 C263 1.295 . S
O247 Fe242 1.997 . S
O247 C263 1.235 . S
O248 Fe242 2.002 . S
O248 C249 1.295 . S
C249 O248 1.295 . S
C249 O251 1.235 . S
C250 O255 1.287 . S
C250 O256 1.255 . S
O251 Fe243 1.997 . S
O251 C249 1.235 . S
C252 O258 1.287 . S
C252 O259 1.255 . S
O253 Fe242 1.976 . S
O253 C260 1.287 . S
O254 Fe243 1.996 . S
O254 C260 1.255 . S
O255 Fe245 1.976 1_554 S
O255 C250 1.287 . S
O256 Fe242 1.996 1_554 S
O256 C250 1.255 . S
C257 O261 1.295 . S
C257 O262 1.235 . S
O258 Fe243 1.976 . S
O258 C252 1.287 . S
O259 Fe245 1.996 . S
O259 C252 1.255 . S
C260 O253 1.287 . S
C260 O254 1.255 . S
O261 Fe243 2.002 . S
O261 C257 1.295 . S
O262 Fe245 1.997 . S
O262 C257 1.235 . S
C263 O246 1.295 . S
C263 O247 1.235 . S
Fe264 O266 1.918 . S
Fe264 O269 1.997 . S
Fe264 O270 2.002 . S
Fe264 O275 1.976 . S
Fe264 O278 1.996 . S
Fe265 O266 1.918 . S
Fe265 O273 1.997 . S
Fe265 O276 1.996 . S
Fe265 O280 1.976 . S
Fe265 O283 2.002 . S
O266 Fe264 1.918 . S
O266 Fe265 1.918 . S
O266 Fe267 1.918 . S
Fe267 O266 1.918 . S
Fe267 O268 2.002 . S
Fe267 O277 1.976 . S
Fe267 O281 1.996 . S
Fe267 O284 1.997 . S
O268 Fe267 2.002 . S
O268 C285 1.295 . S
O269 Fe264 1.997 . S
O269 C285 1.235 . S
O270 Fe264 2.002 . S
O270 C271 1.295 . S
C271 O270 1.295 . S
C271 O273 1.235 . S
C272 O277 1.287 . S
C272 O278 1.255 . S
O273 Fe265 1.997 . S
O273 C271 1.235 . S
C274 O280 1.287 . S
C274 O281 1.255 . S
O275 Fe264 1.976 . S
O275 C282 1.287 . S
O276 Fe265 1.996 . S
O276 C282 1.255 . S
O277 Fe267 1.976 . S
O277 C272 1.287 . S
O278 Fe264 1.996 . S
O278 C272 1.255 . S
C279 O283 1.295 . S
C279 O284 1.235 . S
O280 Fe265 1.976 . S
O280 C274 1.287 . S
O281 Fe267 1.996 . S
O281 C274 1.255 . S
C282 O275 1.287 . S
C282 O276 1.255 . S
O283 Fe265 2.002 . S
O283 C279 1.295 . S
O284 Fe267 1.997 . S
O284 C279 1.235 . S
C285 O268 1.295 . S
C285 O269 1.235 . S
Fe286 O288 1.918 . S
Fe286 O291 1.997 . S
Fe286 O292 2.002 . S
Fe286 O297 1.976 . S
Fe286 O300 1.996 . S
Fe287 O288 1.918 . S
Fe287 O295 1.997 . S
Fe287 O298 1.996 . S
Fe287 O302 1.976 . S
Fe287 O305 2.002 . S
O288 Fe286 1.918 . S
O288 Fe287 1.918 . S
O288 Fe289 1.918 . S
Fe289 O288 1.918 . S
Fe289 O290 2.002 . S
Fe289 O299 1.976 . S
Fe289 O303 1.996 . S
Fe289 O306 1.997 . S
O290 Fe289 2.002 . S
O290 C307 1.295 . S
O291 Fe286 1.997 . S
O291 C307 1.235 . S
O292 Fe286 2.002 . S
O292 C293 1.295 . S
C293 O292 1.295 . S
C293 O295 1.235 . S
C294 O299 1.287 . S
C294 O300 1.255 . S
O295 Fe287 1.997 . S
O295 C293 1.235 . S
C296 O302 1.287 . S
C296 O303 1.255 . S
O297 Fe286 1.976 . S
O297 C304 1.287 . S
O298 Fe287 1.996 . S
O298 C304 1.255 . S
O299 Fe289 1.976 . S
O299 C294 1.287 . S
O300 Fe286 1.996 . S
O300 C294 1.255 . S
C301 O305 1.295 . S
C301 O306 1.235 . S
O302 Fe287 1.976 . S
O302 C296 1.287 . S
O303 Fe289 1.996 . S
O303 C296 1.255 . S
C304 O297 1.287 . S
C304 O298 1.255 . S
O305 Fe287 2.002 . S
O305 C301 1.295 . S
O306 Fe289 1.997 . S
O306 C301 1.235 . S
C307 O290 1.295 . S
C307 O291 1.235 . S
Fe308 O310 1.918 . S
Fe308 O313 1.997 . S
Fe308 O314 2.002 . S
Fe308 O319 1.976 . S
Fe308 O322 1.996 . S
Fe309 O310 1.918 . S
Fe309 O317 1.997 . S
Fe309 O320 1.996 . S
Fe309 O324 1.976 . S
Fe309 O327 2.002 . S
O310 Fe308 1.918 . S
O310 Fe309 1.918 . S
O310 Fe311 1.918 . S
Fe311 O310 1.918 . S
Fe311 O312 2.002 . S
Fe311 O321 1.976 . S
Fe311 O325 1.996 . S
Fe311 O328 1.997 . S
O312 Fe311 2.002 . S
O312 C329 1.295 . S
O313 Fe308 1.997 . S
O313 C329 1.235 . S
O314 Fe308 2.002 . S
O314 C315 1.295 . S
C315 O314 1.295 . S
C315 O317 1.235 . S
C316 O321 1.287 . S
C316 O322 1.255 . S
O317 Fe309 1.997 . S
O317 C315 1.235 . S
C318 O324 1.287 . S
C318 O325 1.255 . S
O319 Fe308 1.976 . S
O319 C326 1.287 . S
O320 Fe309 1.996 . S
O320 C326 1.255 . S
O321 Fe311 1.976 . S
O321 C316 1.287 . S
O322 Fe308 1.996 . S
O322 C316 1.255 . S
C323 O327 1.295 . S
C323 O328 1.235 . S
O324 Fe309 1.976 . S
O324 C318 1.287 . S
O325 Fe311 1.996 . S
O325 C318 1.255 . S
C326 O319 1.287 . S
C326 O320 1.255 . S
O327 Fe309 2.002 . S
O327 C323 1.295 . S
O328 Fe311 1.997 . S
O328 C323 1.235 . S
C329 O312 1.295 . S
C329 O313 1.235 . S
Fe330 O332 1.918 . S
Fe330 O335 1.997 . S
Fe330 O336 2.002 . S
Fe330 O341 1.976 . S
Fe330 O344 1.996 1_554 S
Fe331 O332 1.918 . S
Fe331 O339 1.997 . S
Fe331 O342 1.996 . S
Fe331 O346 1.976 . S
Fe331 O349 2.002 . S
O332 Fe330 1.918 . S
O332 Fe331 1.918 . S
O332 Fe333 1.918 . S
Fe333 O332 1.918 . S
Fe333 O334 2.002 . S
Fe333 O343 1.976 1_554 S
Fe333 O347 1.996 . S
Fe333 O350 1.997 . S
O334 Fe333 2.002 . S
O334 C351 1.295 . S
O335 Fe330 1.997 . S
O335 C351 1.235 . S
O336 Fe330 2.002 . S
O336 C337 1.295 . S
C337 O336 1.295 . S
C337 O339 1.235 . S
C338 O343 1.287 . S
C338 O344 1.255 . S
O339 Fe331 1.997 . S
O339 C337 1.235 . S
C340 O346 1.287 . S
C340 O347 1.255 . S
O341 Fe330 1.976 . S
O341 C348 1.287 . S
O342 Fe331 1.996 . S
O342 C348 1.255 . S
O343 Fe333 1.976 1_556 S
O343 C338 1.287 . S
O344 Fe330 1.996 1_556 S
O344 C338 1.255 . S
C345 O349 1.295 . S
C345 O350 1.235 . S
O346 Fe331 1.976 . S
O346 C340 1.287 . S
O347 Fe333 1.996 . S
O347 C340 1.255 . S
C348 O341 1.287 . S
C348 O342 1.255 . S
O349 Fe331 2.002 . S
O349 C345 1.295 . S
O350 Fe333 1.997 . S
O350 C345 1.235 . S
C351 O334 1.295 . S
C351 O335 1.235 . S
Fe352 O354 1.918 . S
Fe352 O357 1.997 . S
Fe352 O358 2.002 . S
Fe352 O363 1.976 . S
Fe352 O366 1.996 . S
Fe353 O354 1.918 . S
Fe353 O361 1.997 . S
Fe353 O364 1.996 . S
Fe353 O368 1.976 . S
Fe353 O371 2.002 . S
O354 Fe352 1.918 . S
O354 Fe353 1.918 . S
O354 Fe355 1.918 . S
Fe355 O354 1.918 . S
Fe355 O356 2.002 . S
Fe355 O365 1.976 . S
Fe355 O369 1.996 . S
Fe355 O372 1.997 . S
O356 Fe355 2.002 . S
O356 C373 1.295 . S
O357 Fe352 1.997 . S
O357 C373 1.235 . S
O358 Fe352 2.002 . S
O358 C359 1.295 . S
C359 O358 1.295 . S
C359 O361 1.235 . S
C360 O365 1.287 . S
C360 O366 1.255 . S
O361 Fe353 1.997 . S
O361 C359 1.235 . S
C362 O368 1.287 . S
C362 O369 1.255 . S
O363 Fe352 1.976 . S
O363 C370 1.287 . S
O364 Fe353 1.996 . S
O364 C370 1.255 . S
O365 Fe355 1.976 . S
O365 C360 1.287 . S
O366 Fe352 1.996 . S
O366 C360 1.255 . S
C367 O371 1.295 . S
C367 O372 1.235 . S
O368 Fe353 1.976 . S
O368 C362 1.287 . S
O369 Fe355 1.996 . S
O369 C362 1.255 . S
C370 O363 1.287 . S
C370 O364 1.255 . S
O371 Fe353 2.002 . S
O371 C367 1.295 . S
O372 Fe355 1.997 . S
O372 C367 1.235 . S
C373 O356 1.295 . S
C373 O357 1.235 . S
Fe374 O376 1.918 . S
Fe374 O379 1.997 . S
Fe374 O380 2.002 . S
Fe374 O385 1.976 . S
Fe374 O388 1.996 . S
Fe375 O376 1.918 . S
Fe375 O383 1.997 . S
Fe375 O386 1.996 . S
Fe375 O390 1.976 1_554 S
Fe375 O393 2.002 . S
O376 Fe374 1.918 . S
O376 Fe375 1.918 . S
O376 Fe377 1.918 . S
Fe377 O376 1.918 . S
Fe377 O378 2.002 . S
Fe377 O387 1.976 . S
Fe377 O391 1.996 1_554 S
Fe377 O394 1.997 . S
O378 Fe377 2.002 . S
O378 C395 1.295 . S
O379 Fe374 1.997 . S
O379 C395 1.235 . S
O380 Fe374 2.002 . S
O380 C381 1.295 . S
C381 O380 1.295 . S
C381 O383 1.235 . S
C382 O387 1.287 . S
C382 O388 1.255 . S
O383 Fe375 1.997 . S
O383 C381 1.235 . S
C384 O390 1.287 . S
C384 O391 1.255 . S
O385 Fe374 1.976 . S
O385 C392 1.287 . S
O386 Fe375 1.996 . S
O386 C392 1.255 . S
O387 Fe377 1.976 . S
O387 C382 1.287 . S
O388 Fe374 1.996 . S
O388 C382 1.255 . S
C389 O393 1.295 . S
C389 O394 1.235 . S
O390 Fe375 1.976 1_556 S
O390 C384 1.287 . S
O391 Fe377 1.996 1_556 S
O391 C384 1.255 . S
C392 O385 1.287 . S
C392 O386 1.255 . S
O393 Fe375 2.002 . S
O393 C389 1.295 . S
O394 Fe377 1.997 . S
O394 C389 1.235 . S
C395 O378 1.295 . S
C395 O379 1.235 . S
Fe396 O398 1.918 . S
Fe396 O401 1.997 . S
Fe396 O402 2.002 . S
Fe396 O407 1.976 . S
Fe396 O410 1.996 . S
Fe397 O398 1.918 . S
Fe397 O405 1.997 . S
Fe397 O408 1.996 . S
Fe397 O412 1.976 . S
Fe397 O415 2.002 . S
O398 Fe396 1.918 . S
O398 Fe397 1.918 . S
O398 Fe399 1.918 . S
Fe399 O398 1.918 . S
Fe399 O400 2.002 . S
Fe399 O409 1.976 . S
Fe399 O413 1.996 . S
Fe399 O416 1.997 . S
O400 Fe399 2.002 . S
O400 C417 1.295 . S
O401 Fe396 1.997 . S
O401 C417 1.235 . S
O402 Fe396 2.002 . S
O402 C403 1.295 . S
C403 O402 1.295 . S
C403 O405 1.235 . S
C404 O409 1.287 . S
C404 O410 1.255 . S
O405 Fe397 1.997 . S
O405 C403 1.235 . S
C406 O412 1.287 . S
C406 O413 1.255 . S
O407 Fe396 1.976 . S
O407 C414 1.287 . S
O408 Fe397 1.996 . S
O408 C414 1.255 . S
O409 Fe399 1.976 . S
O409 C404 1.287 . S
O410 Fe396 1.996 . S
O410 C404 1.255 . S
C411 O415 1.295 . S
C411 O416 1.235 . S
O412 Fe397 1.976 . S
O412 C406 1.287 . S
O413 Fe399 1.996 . S
O413 C406 1.255 . S
C414 O407 1.287 . S
C414 O408 1.255 . S
O415 Fe397 2.002 . S
O415 C411 1.295 . S
O416 Fe399 1.997 . S
O416 C411 1.235 . S
C417 O400 1.295 . S
C417 O401 1.235 . S
Fe418 O420 1.918 . S
Fe418 O423 1.997 . S
Fe418 O424 2.002 . S
Fe418 O429 1.976 . S
Fe418 O432 1.996 . S
Fe419 O420 1.918 . S
Fe419 O427 1.997 . S
Fe419 O430 1.996 . S
Fe419 O434 1.976 . S
Fe419 O437 2.002 . S
O420 Fe418 1.918 . S
O420 Fe419 1.918 . S
O420 Fe421 1.918 . S
Fe421 O420 1.918 . S
Fe421 O422 2.002 . S
Fe421 O431 1.976 . S
Fe421 O435 1.996 . S
Fe421 O438 1.997 . S
O422 Fe421 2.002 . S
O422 C439 1.295 . S
O423 Fe418 1.997 . S
O423 C439 1.235 . S
O424 Fe418 2.002 . S
O424 C425 1.295 . S
C425 O424 1.295 . S
C425 O427 1.235 . S
C426 O431 1.287 . S
C426 O432 1.255 . S
O427 Fe419 1.997 . S
O427 C425 1.235 . S
C428 O434 1.287 . S
C428 O435 1.255 . S
O429 Fe418 1.976 . S
O429 C436 1.287 . S
O430 Fe419 1.996 . S
O430 C436 1.255 . S
O431 Fe421 1.976 . S
O431 C426 1.287 . S
O432 Fe418 1.996 . S
O432 C426 1.255 . S
C433 O437 1.295 . S
C433 O438 1.235 . S
O434 Fe419 1.976 . S
O434 C428 1.287 . S
O435 Fe421 1.996 . S
O435 C428 1.255 . S
C436 O429 1.287 . S
C436 O430 1.255 . S
O437 Fe419 2.002 . S
O437 C433 1.295 . S
O438 Fe421 1.997 . S
O438 C433 1.235 . S
C439 O422 1.295 . S
C439 O423 1.235 . S
Fe440 O442 1.918 . S
Fe440 O445 1.997 . S
Fe440 O446 2.002 . S
Fe440 O451 1.976 . S
Fe440 O454 1.996 . S
Fe441 O442 1.918 . S
Fe441 O449 1.997 . S
Fe441 O452 1.996 . S
Fe441 O456 1.976 . S
Fe441 O459 2.002 . S
O442 Fe440 1.918 . S
O442 Fe441 1.918 . S
O442 Fe443 1.918 . S
Fe443 O442 1.918 . S
Fe443 O444 2.002 . S
Fe443 O453 1.976 . S
Fe443 O457 1.996 . S
Fe443 O460 1.997 . S
O444 Fe443 2.002 . S
O444 C461 1.295 . S
O445 Fe440 1.997 . S
O445 C461 1.235 . S
O446 Fe440 2.002 . S
O446 C447 1.295 . S
C447 O446 1.295 . S
C447 O449 1.235 . S
C448 O453 1.287 . S
C448 O454 1.255 . S
O449 Fe441 1.997 . S
O449 C447 1.235 . S
C450 O456 1.287 . S
C450 O457 1.255 . S
O451 Fe440 1.976 . S
O451 C458 1.287 . S
O452 Fe441 1.996 . S
O452 C458 1.255 . S
O453 Fe443 1.976 . S
O453 C448 1.287 . S
O454 Fe440 1.996 . S
O454 C448 1.255 . S
C455 O459 1.295 . S
C455 O460 1.235 . S
O456 Fe441 1.976 . S
O456 C450 1.287 . S
O457 Fe443 1.996 . S
O457 C450 1.255 . S
C458 O451 1.287 . S
C458 O452 1.255 . S
O459 Fe441 2.002 . S
O459 C455 1.295 . S
O460 Fe443 1.997 . S
O460 C455 1.235 . S
C461 O444 1.295 . S
C461 O445 1.235 . S
Fe462 O464 1.918 . S
Fe462 O467 1.997 . S
Fe462 O468 2.002 . S
Fe462 O473 1.976 . S
Fe462 O476 1.996 1_556 S
Fe463 O464 1.918 . S
Fe463 O471 1.997 . S
Fe463 O474 1.996 . S
Fe463 O478 1.976 . S
Fe463 O481 2.002 . S
O464 Fe462 1.918 . S
O464 Fe463 1.918 . S
O464 Fe465 1.918 . S
Fe465 O464 1.918 . S
Fe465 O466 2.002 . S
Fe465 O475 1.976 1_556 S
Fe465 O479 1.996 . S
Fe465 O482 1.997 . S
O466 Fe465 2.002 . S
O466 C483 1.295 . S
O467 Fe462 1.997 . S
O467 C483 1.235 . S
O468 Fe462 2.002 . S
O468 C469 1.295 . S
C469 O468 1.295 . S
C469 O471 1.235 . S
C470 O475 1.287 . S
C470 O476 1.255 . S
O471 Fe463 1.997 . S
O471 C469 1.235 . S
C472 O478 1.287 . S
C472 O479 1.255 . S
O473 Fe462 1.976 . S
O473 C480 1.287 . S
O474 Fe463 1.996 . S
O474 C480 1.255 . S
O475 Fe465 1.976 1_554 S
O475 C470 1.287 . S
O476 Fe462 1.996 1_554 S
O476 C470 1.255 . S
C477 O481 1.295 . S
C477 O482 1.235 . S
O478 Fe463 1.976 . S
O478 C472 1.287 . S
O479 Fe465 1.996 . S
O479 C472 1.255 . S
C480 O473 1.287 . S
C480 O474 1.255 . S
O481 Fe463 2.002 . S
O481 C477 1.295 . S
O482 Fe465 1.997 . S
O482 C477 1.235 . S
C483 O466 1.295 . S
C483 O467 1.235 . S
Fe484 O486 1.918 . S
Fe484 O489 1.997 . S
Fe484 O490 2.002 . S
Fe484 O495 1.976 . S
Fe484 O498 1.996 . S
Fe485 O486 1.918 . S
Fe485 O493 1.997 . S
Fe485 O496 1.996 . S
Fe485 O500 1.976 . S
Fe485 O503 2.002 . S
O486 Fe484 1.918 . S
O486 Fe485 1.918 . S
O486 Fe487 1.918 . S
Fe487 O486 1.918 . S
Fe487 O488 2.002 . S
Fe487 O497 1.976 . S
Fe487 O501 1.996 . S
Fe487 O504 1.997 . S
O488 Fe487 2.002 . S
O488 C505 1.295 . S
O489 Fe484 1.997 . S
O489 C505 1.235 . S
O490 Fe484 2.002 . S
O490 C491 1.295 . S
C491 O490 1.295 . S
C491 O493 1.235 . S
C492 O497 1.287 . S
C492 O498 1.255 . S
O493 Fe485 1.997 . S
O493 C491 1.235 . S
C494 O500 1.287 . S
C494 O501 1.255 . S
O495 Fe484 1.976 . S
O495 C502 1.287 . S
O496 Fe485 1.996 . S
O496 C502 1.255 . S
O497 Fe487 1.976 . S
O497 C492 1.287 . S
O498 Fe484 1.996 . S
O498 C492 1.255 . S
C499 O503 1.295 . S
C499 O504 1.235 . S
O500 Fe485 1.976 . S
O500 C494 1.287 . S
O501 Fe487 1.996 . S
O501 C494 1.255 . S
C502 O495 1.287 . S
C502 O496 1.255 . S
O503 Fe485 2.002 . S
O503 C499 1.295 . S
O504 Fe487 1.997 . S
O504 C499 1.235 . S
C505 O488 1.295 . S
C505 O489 1.235 . S
Fe506 O508 1.918 . S
Fe506 O511 1.997 . S
Fe506 O512 2.002 . S
Fe506 O517 1.976 . S
Fe506 O520 1.996 . S
Fe507 O508 1.918 . S
Fe507 O515 1.997 . S
Fe507 O518 1.996 . S
Fe507 O522 1.976 . S
Fe507 O525 2.002 . S
O508 Fe506 1.918 . S
O508 Fe507 1.918 . S
O508 Fe509 1.918 . S
Fe509 O508 1.918 . S
Fe509 O510 2.002 . S
Fe509 O519 1.976 . S
Fe509 O523 1.996 . S
Fe509 O526 1.997 . S
O510 Fe509 2.002 . S
O510 C527 1.295 . S
O511 Fe506 1.997 . S
O511 C527 1.235 . S
O512 Fe506 2.002 . S
O512 C513 1.295 . S
C513 O512 1.295 . S
C513 O515 1.235 . S
C514 O519 1.287 . S
C514 O520 1.255 . S
O515 Fe507 1.997 . S
O515 C513 1.235 . S
C516 O522 1.287 . S
C516 O523 1.255 . S
O517 Fe506 1.976 . S
O517 C524 1.287 . S
O518 Fe507 1.996 . S
O518 C524 1.255 . S
O519 Fe509 1.976 . S
O519 C514 1.287 . S
O520 Fe506 1.996 . S
O520 C514 1.255 . S
C521 O525 1.295 . S
C521 O526 1.235 . S
O522 Fe507 1.976 . S
O522 C516 1.287 . S
O523 Fe509 1.996 . S
O523 C516 1.255 . S
C524 O517 1.287 . S
C524 O518 1.255 . S
O525 Fe507 2.002 . S
O525 C521 1.295 . S
O526 Fe509 1.997 . S
O526 C521 1.235 . S
C527 O510 1.295 . S
C527 O511 1.235 . S
Fe528 O530 1.918 . S
Fe528 O533 1.997 . S
Fe528 O534 2.002 . S
Fe528 O539 1.976 . S
Fe528 O542 1.996 . S
Fe529 O530 1.918 . S
Fe529 O537 1.997 . S
Fe529 O540 1.996 . S
Fe529 O544 1.976 . S
Fe529 O547 2.002 . S
O530 Fe528 1.918 . S
O530 Fe529 1.918 . S
O530 Fe531 1.918 . S
Fe531 O530 1.918 . S
Fe531 O532 2.002 . S
Fe531 O541 1.976 . S
Fe531 O545 1.996 . S
Fe531 O548 1.997 . S
O532 Fe531 2.002 . S
O532 C549 1.295 . S
O533 Fe528 1.997 . S
O533 C549 1.235 . S
O534 Fe528 2.002 . S
O534 C535 1.295 . S
C535 O534 1.295 . S
C535 O537 1.235 . S
C536 O541 1.287 . S
C536 O542 1.255 . S
O537 Fe529 1.997 . S
O537 C535 1.235 . S
C538 O544 1.287 . S
C538 O545 1.255 . S
O539 Fe528 1.976 . S
O539 C546 1.287 . S
O540 Fe529 1.996 . S
O540 C546 1.255 . S
O541 Fe531 1.976 . S
O541 C536 1.287 . S
O542 Fe528 1.996 . S
O542 C536 1.255 . S
C543 O547 1.295 . S
C543 O548 1.235 . S
O544 Fe529 1.976 . S
O544 C538 1.287 . S
O545 Fe531 1.996 . S
O545 C538 1.255 . S
C546 O539 1.287 . S
C546 O540 1.255 . S
O547 Fe529 2.002 . S
O547 C543 1.295 . S
O548 Fe531 1.997 . S
O548 C543 1.235 . S
C549 O532 1.295 . S
C549 O533 1.235 . S
Fe550 O552 1.918 . S
Fe550 O555 1.997 . S
Fe550 O556 2.002 . S
Fe550 O561 1.976 . S
Fe550 O564 1.996 1_556 S
Fe551 O552 1.918 . S
Fe551 O559 1.997 . S
Fe551 O562 1.996 . S
Fe551 O566 1.976 . S
Fe551 O569 2.002 . S
O552 Fe550 1.918 . S
O552 Fe551 1.918 . S
O552 Fe553 1.918 . S
Fe553 O552 1.918 . S
Fe553 O554 2.002 . S
Fe553 O563 1.976 1_556 S
Fe553 O567 1.996 . S
Fe553 O570 1.997 . S
O554 Fe553 2.002 . S
O554 C571 1.295 . S
O555 Fe550 1.997 . S
O555 C571 1.235 . S
O556 Fe550 2.002 . S
O556 C557 1.295 . S
C557 O556 1.295 . S
C557 O559 1.235 . S
C558 O563 1.287 . S
C558 O564 1.255 . S
O559 Fe551 1.997 . S
O559 C557 1.235 . S
C560 O566 1.287 . S
C560 O567 1.255 . S
O561 Fe550 1.976 . S
O561 C568 1.287 . S
O562 Fe551 1.996 . S
O562 C568 1.255 . S
O563 Fe553 1.976 1_554 S
O563 C558 1.287 . S
O564 Fe550 1.996 1_554 S
O564 C558 1.255 . S
C565 O569 1.295 . S
C565 O570 1.235 . S
O566 Fe551 1.976 . S
O566 C560 1.287 . S
O567 Fe553 1.996 . S
O567 C560 1.255 . S
C568 O561 1.287 . S
C568 O562 1.255 . S
O569 Fe551 2.002 . S
O569 C565 1.295 . S
O570 Fe553 1.997 . S
O570 C565 1.235 . S
C571 O554 1.295 . S
C571 O555 1.235 . S
Fe572 O574 1.918 . S
Fe572 O577 1.997 . S
Fe572 O578 2.002 . S
Fe572 O583 1.976 . S
Fe572 O586 1.996 . S
Fe573 O574 1.918 . S
Fe573 O581 1.997 . S
Fe573 O584 1.996 . S
Fe573 O588 1.976 . S
Fe573 O591 2.002 . S
O574 Fe572 1.918 . S
O574 Fe573 1.918 . S
O574 Fe575 1.918 . S
Fe575 O574 1.918 . S
Fe575 O576 2.002 . S
Fe575 O585 1.976 . S
Fe575 O589 1.996 . S
Fe575 O592 1.997 . S
O576 Fe575 2.002 . S
O576 C593 1.295 . S
O577 Fe572 1.997 . S
O577 C593 1.235 . S
O578 Fe572 2.002 . S
O578 C579 1.295 . S
C579 O578 1.295 . S
C579 O581 1.235 . S
C580 O585 1.287 . S
C580 O586 1.255 . S
O581 Fe573 1.997 . S
O581 C579 1.235 . S
C582 O588 1.287 . S
C582 O589 1.255 . S
O583 Fe572 1.976 . S
O583 C590 1.287 . S
O584 Fe573 1.996 . S
O584 C590 1.255 . S
O585 Fe575 1.976 . S
O585 C580 1.287 . S
O586 Fe572 1.996 . S
O586 C580 1.255 . S
C587 O591 1.295 . S
C587 O592 1.235 . S
O588 Fe573 1.976 . S
O588 C582 1.287 . S
O589 Fe575 1.996 . S
O589 C582 1.255 . S
C590 O583 1.287 . S
C590 O584 1.255 . S
O591 Fe573 2.002 . S
O591 C587 1.295 . S
O592 Fe575 1.997 . S
O592 C587 1.235 . S
C593 O576 1.295 . S
C593 O577 1.235 . S
Fe594 O596 1.918 . S
Fe594 O599 1.997 . S
Fe594 O600 2.002 . S
Fe594 O605 1.976 . S
Fe594 O608 1.996 . S
Fe595 O596 1.918 . S
Fe595 O603 1.997 . S
Fe595 O606 1.996 . S
Fe595 O610 1.976 . S
Fe595 O613 2.002 . S
O596 Fe594 1.918 . S
O596 Fe595 1.918 . S
O596 Fe597 1.918 . S
Fe597 O596 1.918 . S
Fe597 O598 2.002 . S
Fe597 O607 1.976 . S
Fe597 O611 1.996 . S
Fe597 O614 1.997 . S
O598 Fe597 2.002 . S
O598 C615 1.295 . S
O599 Fe594 1.997 . S
O599 C615 1.235 . S
O600 Fe594 2.002 . S
O600 C601 1.295 . S
C601 O600 1.295 . S
C601 O603 1.235 . S
C602 O607 1.287 . S
C602 O608 1.255 . S
O603 Fe595 1.997 . S
O603 C601 1.235 . S
C604 O610 1.287 . S
C604 O611 1.255 . S
O605 Fe594 1.976 . S
O605 C612 1.287 . S
O606 Fe595 1.996 . S
O606 C612 1.255 . S
O607 Fe597 1.976 . S
O607 C602 1.287 . S
O608 Fe594 1.996 . S
O608 C602 1.255 . S
C609 O613 1.295 . S
C609 O614 1.235 . S
O610 Fe595 1.976 . S
O610 C604 1.287 . S
O611 Fe597 1.996 . S
O611 C604 1.255 . S
C612 O605 1.287 . S
C612 O606 1.255 . S
O613 Fe595 2.002 . S
O613 C609 1.295 . S
O614 Fe597 1.997 . S
O614 C609 1.235 . S
C615 O598 1.295 . S
C615 O599 1.235 . S
Fe616 O618 1.918 . S
Fe616 O621 1.997 . S
Fe616 O622 2.002 . S
Fe616 O627 1.976 . S
Fe616 O630 1.996 . S
Fe617 O618 1.918 . S
Fe617 O625 1.997 . S
Fe617 O628 1.996 . S
Fe617 O632 1.976 . S
Fe617 O635 2.002 . S
O618 Fe616 1.918 . S
O618 Fe617 1.918 . S
O618 Fe619 1.918 . S
Fe619 O618 1.918 . S
Fe619 O620 2.002 . S
Fe619 O629 1.976 . S
Fe619 O633 1.996 . S
Fe619 O636 1.997 . S
O620 Fe619 2.002 . S
O620 C637 1.295 . S
O621 Fe616 1.997 . S
O621 C637 1.235 . S
O622 Fe616 2.002 . S
O622 C623 1.295 . S
C623 O622 1.295 . S
C623 O625 1.235 . S
C624 O629 1.287 . S
C624 O630 1.255 . S
O625 Fe617 1.997 . S
O625 C623 1.235 . S
C626 O632 1.287 . S
C626 O633 1.255 . S
O627 Fe616 1.976 . S
O627 C634 1.287 . S
O628 Fe617 1.996 . S
O628 C634 1.255 . S
O629 Fe619 1.976 . S
O629 C624 1.287 . S
O630 Fe616 1.996 . S
O630 C624 1.255 . S
C631 O635 1.295 . S
C631 O636 1.235 . S
O632 Fe617 1.976 . S
O632 C626 1.287 . S
O633 Fe619 1.996 . S
O633 C626 1.255 . S
C634 O627 1.287 . S
C634 O628 1.255 . S
O635 Fe617 2.002 . S
O635 C631 1.295 . S
O636 Fe619 1.997 . S
O636 C631 1.235 . S
C637 O620 1.295 . S
C637 O621 1.235 . S
Fe638 O640 1.918 . S
Fe638 O643 1.997 . S
Fe638 O644 2.002 . S
Fe638 O649 1.976 1_554 S
Fe638 O652 1.996 . S
Fe639 O640 1.918 . S
Fe639 O647 1.997 . S
Fe639 O650 1.996 1_554 S
Fe639 O654 1.976 . S
Fe639 O657 2.002 . S
O640 Fe638 1.918 . S
O640 Fe639 1.918 . S
O640 Fe641 1.918 . S
Fe641 O640 1.918 . S
Fe641 O642 2.002 . S
Fe641 O651 1.976 . S
Fe641 O655 1.996 . S
Fe641 O658 1.997 . S
O642 Fe641 2.002 . S
O642 C659 1.295 . S
O643 Fe638 1.997 . S
O643 C659 1.235 . S
O644 Fe638 2.002 . S
O644 C645 1.295 . S
C645 O644 1.295 . S
C645 O647 1.235 . S
C646 O651 1.287 . S
C646 O652 1.255 . S
O647 Fe639 1.997 . S
O647 C645 1.235 . S
C648 O654 1.287 . S
C648 O655 1.255 . S
O649 Fe638 1.976 1_556 S
O649 C656 1.287 . S
O650 Fe639 1.996 1_556 S
O650 C656 1.255 . S
O651 Fe641 1.976 . S
O651 C646 1.287 . S
O652 Fe638 1.996 . S
O652 C646 1.255 . S
C653 O657 1.295 . S
C653 O658 1.235 . S
O654 Fe639 1.976 . S
O654 C648 1.287 . S
O655 Fe641 1.996 . S
O655 C648 1.255 . S
C656 O649 1.287 . S
C656 O650 1.255 . S
O657 Fe639 2.002 . S
O657 C653 1.295 . S
O658 Fe641 1.997 . S
O658 C653 1.235 . S
C659 O642 1.295 . S
C659 O643 1.235 . S
Fe660 O662 1.918 . S
Fe660 O665 1.997 . S
Fe660 O666 2.002 . S
Fe660 O671 1.976 . S
Fe660 O674 1.996 . S
Fe661 O662 1.918 . S
Fe661 O669 1.997 . S
Fe661 O672 1.996 . S
Fe661 O676 1.976 . S
Fe661 O679 2.002 . S
O662 Fe660 1.918 . S
O662 Fe661 1.918 . S
O662 Fe663 1.918 . S
Fe663 O662 1.918 . S
Fe663 O664 2.002 . S
Fe663 O673 1.976 . S
Fe663 O677 1.996 . S
Fe663 O680 1.997 . S
O664 Fe663 2.002 . S
O664 C681 1.295 . S
O665 Fe660 1.997 . S
O665 C681 1.235 . S
O666 Fe660 2.002 . S
O666 C667 1.295 . S
C667 O666 1.295 . S
C667 O669 1.235 . S
C668 O673 1.287 . S
C668 O674 1.255 . S
O669 Fe661 1.997 . S
O669 C667 1.235 . S
C670 O676 1.287 . S
C670 O677 1.255 . S
O671 Fe660 1.976 . S
O671 C678 1.287 . S
O672 Fe661 1.996 . S
O672 C678 1.255 . S
O673 Fe663 1.976 . S
O673 C668 1.287 . S
O674 Fe660 1.996 . S
O674 C668 1.255 . S
C675 O679 1.295 . S
C675 O680 1.235 . S
O676 Fe661 1.976 . S
O676 C670 1.287 . S
O677 Fe663 1.996 . S
O677 C670 1.255 . S
C678 O671 1.287 . S
C678 O672 1.255 . S
O679 Fe661 2.002 . S
O679 C675 1.295 . S
O680 Fe663 1.997 . S
O680 C675 1.235 . S
C681 O664 1.295 . S
C681 O665 1.235 . S
Fe682 O684 1.918 . S
Fe682 O687 1.997 . S
Fe682 O688 2.002 . S
Fe682 O693 1.976 . S
Fe682 O696 1.996 . S
Fe683 O684 1.918 . S
Fe683 O691 1.997 . S
Fe683 O694 1.996 . S
Fe683 O698 1.976 . S
Fe683 O701 2.002 . S
O684 Fe682 1.918 . S
O684 Fe683 1.918 . S
O684 Fe685 1.918 . S
Fe685 O684 1.918 . S
Fe685 O686 2.002 . S
Fe685 O695 1.976 . S
Fe685 O699 1.996 . S
Fe685 O702 1.997 . S
O686 Fe685 2.002 . S
O686 C703 1.295 . S
O687 Fe682 1.997 . S
O687 C703 1.235 . S
O688 Fe682 2.002 . S
O688 C689 1.295 . S
C689 O688 1.295 . S
C689 O691 1.235 . S
C690 O695 1.287 . S
C690 O696 1.255 . S
O691 Fe683 1.997 . S
O691 C689 1.235 . S
C692 O698 1.287 . S
C692 O699 1.255 . S
O693 Fe682 1.976 . S
O693 C700 1.287 . S
O694 Fe683 1.996 . S
O694 C700 1.255 . S
O695 Fe685 1.976 . S
O695 C690 1.287 . S
O696 Fe682 1.996 . S
O696 C690 1.255 . S
C697 O701 1.295 . S
C697 O702 1.235 . S
O698 Fe683 1.976 . S
O698 C692 1.287 . S
O699 Fe685 1.996 . S
O699 C692 1.255 . S
C700 O693 1.287 . S
C700 O694 1.255 . S
O701 Fe683 2.002 . S
O701 C697 1.295 . S
O702 Fe685 1.997 . S
O702 C697 1.235 . S
C703 O686 1.295 . S
C703 O687 1.235 . S
H704 C712 0.950 . S
H705 C717 0.950 . S
H706 C714 0.950 . S
H707 C716 0.950 . S
H708 C718 0.950 . S
H709 C720 0.950 . S
H710 C722 0.950 . S
H711 C723 0.950 . S
C712 H704 0.950 . S
C712 C713 1.386 . S
C712 C714 1.391 . S
C713 C712 1.386 . S
C713 C717 1.393 . S
C714 H706 0.950 . S
C714 C712 1.391 . S
C714 C715 1.400 . S
C715 C714 1.400 . S
C715 C716 1.398 . S
C715 C721 1.491 1_545 S
C716 H707 0.950 . S
C716 C715 1.398 . S
C716 C717 1.391 . S
C717 H705 0.950 . S
C717 C713 1.393 . S
C717 C716 1.391 . S
C718 H708 0.950 . S
C718 C719 1.386 . S
C718 C720 1.391 . S
C719 C718 1.386 . S
C719 C723 1.393 . S
C720 H709 0.950 . S
C720 C718 1.391 . S
C720 C721 1.400 . S
C721 C715 1.491 1_565 S
C721 C720 1.400 . S
C721 C722 1.398 . S
C722 H710 0.950 . S
C722 C721 1.398 . S
C722 C723 1.391 . S
C723 H711 0.950 . S
C723 C719 1.393 . S
C723 C722 1.391 . S
H724 C732 0.950 . S
H725 C737 0.950 . S
H726 C734 0.950 . S
H727 C736 0.950 . S
H728 C738 0.950 . S
H729 C740 0.950 . S
H730 C742 0.950 . S
H731 C743 0.950 . S
C732 H724 0.950 . S
C732 C733 1.386 . S
C732 C734 1.391 . S
C733 C732 1.386 . S
C733 C737 1.393 . S
C734 H726 0.950 . S
C734 C732 1.391 . S
C734 C735 1.400 . S
C735 C734 1.400 . S
C735 C736 1.398 . S
C735 C741 1.491 . S
C736 H727 0.950 . S
C736 C735 1.398 . S
C736 C737 1.391 . S
C737 H725 0.950 . S
C737 C733 1.393 . S
C737 C736 1.391 . S
C738 H728 0.950 . S
C738 C739 1.386 . S
C738 C740 1.391 . S
C739 C738 1.386 . S
C739 C743 1.393 . S
C740 H729 0.950 . S
C740 C738 1.391 . S
C740 C741 1.400 . S
C741 C735 1.491 . S
C741 C740 1.400 . S
C741 C742 1.398 . S
C742 H730 0.950 . S
C742 C741 1.398 . S
C742 C743 1.391 . S
C743 H731 0.950 . S
C743 C739 1.393 . S
C743 C742 1.391 . S
H744 C752 0.950 . S
H745 C757 0.950 . S
H746 C754 0.950 . S
H747 C756 0.950 . S
H748 C758 0.950 . S
H749 C760 0.950 . S
H750 C762 0.950 . S
H751 C763 0.950 . S
C752 H744 0.950 . S
C752 C753 1.386 . S
C752 C754 1.391 . S
C753 C752 1.386 . S
C753 C757 1.393 . S
C754 H746 0.950 . S
C754 C752 1.391 . S
C754 C755 1.400 . S
C755 C754 1.400 . S
C755 C756 1.398 . S
C755 C761 1.491 1_545 S
C756 H747 0.950 . S
C756 C755 1.398 . S
C756 C757 1.391 . S
C757 H745 0.950 . S
C757 C753 1.393 . S
C757 C756 1.391 . S
C758 H748 0.950 . S
C758 C759 1.386 . S
C758 C760 1.391 . S
C759 C758 1.386 . S
C759 C763 1.393 . S
C760 H749 0.950 . S
C760 C758 1.391 . S
C760 C761 1.400 . S
C761 C755 1.491 1_565 S
C761 C760 1.400 . S
C761 C762 1.398 . S
C762 H750 0.950 . S
C762 C761 1.398 . S
C762 C763 1.391 . S
C763 H751 0.950 . S
C763 C759 1.393 . S
C763 C762 1.391 . S
H764 C772 0.950 . S
H765 C777 0.950 . S
H766 C774 0.950 . S
H767 C776 0.950 . S
H768 C778 0.950 . S
H769 C780 0.950 . S
H770 C782 0.950 . S
H771 C783 0.950 . S
C772 H764 0.950 . S
C772 C773 1.386 1_556 S
C772 C774 1.391 . S
C773 C772 1.386 1_554 S
C773 C777 1.393 . S
C774 H766 0.950 . S
C774 C772 1.391 . S
C774 C775 1.400 1_556 S
C775 C774 1.400 1_554 S
C775 C776 1.398 . S
C775 C781 1.491 1_554 S
C776 H767 0.950 . S
C776 C775 1.398 . S
C776 C777 1.391 . S
C777 H765 0.950 . S
C777 C773 1.393 . S
C777 C776 1.391 . S
C778 H768 0.950 . S
C778 C779 1.386 1_554 S
C778 C780 1.391 . S
C779 C778 1.386 1_556 S
C779 C783 1.393 . S
C780 H769 0.950 . S
C780 C778 1.391 . S
C780 C781 1.400 1_554 S
C781 C775 1.491 1_556 S
C781 C780 1.400 1_556 S
C781 C782 1.398 . S
C782 H770 0.950 . S
C782 C781 1.398 . S
C782 C783 1.391 . S
C783 H771 0.950 . S
C783 C779 1.393 . S
C783 C782 1.391 . S
H784 C792 0.950 . S
H785 C797 0.950 . S
H786 C794 0.950 . S
H787 C796 0.950 . S
H788 C798 0.950 . S
H789 C800 0.950 . S
H790 C802 0.950 . S
H791 C803 0.950 . S
C792 H784 0.950 . S
C792 C793 1.386 . S
C792 C794 1.391 . S
C793 C792 1.386 . S
C793 C797 1.393 . S
C794 H786 0.950 . S
C794 C792 1.391 . S
C794 C795 1.400 . S
C795 C794 1.400 . S
C795 C796 1.398 . S
C795 C801 1.491 1_565 S
C796 H787 0.950 . S
C796 C795 1.398 . S
C796 C797 1.391 . S
C797 H785 0.950 . S
C797 C793 1.393 . S
C797 C796 1.391 . S
C798 H788 0.950 . S
C798 C799 1.386 . S
C798 C800 1.391 . S
C799 C798 1.386 . S
C799 C803 1.393 . S
C800 H789 0.950 . S
C800 C798 1.391 . S
C800 C801 1.400 . S
C801 C795 1.491 1_545 S
C801 C800 1.400 . S
C801 C802 1.398 . S
C802 H790 0.950 . S
C802 C801 1.398 . S
C802 C803 1.391 . S
C803 H791 0.950 . S
C803 C799 1.393 . S
C803 C802 1.391 . S
H804 C812 0.950 . S
H805 C817 0.950 . S
H806 C814 0.950 . S
H807 C816 0.950 . S
H808 C818 0.950 . S
H809 C820 0.950 . S
H810 C822 0.950 . S
H811 C823 0.950 . S
C812 H804 0.950 . S
C812 C813 1.386 . S
C812 C814 1.391 . S
C813 C812 1.386 . S
C813 C817 1.393 . S
C814 H806 0.950 . S
C814 C812 1.391 . S
C814 C815 1.400 . S
C815 C814 1.400 . S
C815 C816 1.398 . S
C815 C821 1.491 . S
C816 H807 0.950 . S
C816 C815 1.398 . S
C816 C817 1.391 . S
C817 H805 0.950 . S
C817 C813 1.393 . S
C817 C816 1.391 . S
C818 H808 0.950 . S
C818 C819 1.386 . S
C818 C820 1.391 . S
C819 C818 1.386 . S
C819 C823 1.393 . S
C820 H809 0.950 . S
C820 C818 1.391 . S
C820 C821 1.400 . S
C821 C815 1.491 . S
C821 C820 1.400 . S
C821 C822 1.398 . S
C822 H810 0.950 . S
C822 C821 1.398 . S
C822 C823 1.391 . S
C823 H811 0.950 . S
C823 C819 1.393 . S
C823 C822 1.391 . S
H824 C832 0.950 . S
H825 C837 0.950 . S
H826 C834 0.950 . S
H827 C836 0.950 . S
H828 C838 0.950 . S
H829 C840 0.950 . S
H830 C842 0.950 . S
H831 C843 0.950 . S
C832 H824 0.950 . S
C832 C833 1.386 . S
C832 C834 1.391 . S
C833 C832 1.386 . S
C833 C837 1.393 . S
C834 H826 0.950 . S
C834 C832 1.391 . S
C834 C835 1.400 . S
C835 C834 1.400 . S
C835 C836 1.398 . S
C835 C841 1.491 1_545 S
C836 H827 0.950 . S
C836 C835 1.398 . S
C836 C837 1.391 . S
C837 H825 0.950 . S
C837 C833 1.393 . S
C837 C836 1.391 . S
C838 H828 0.950 . S
C838 C839 1.386 . S
C838 C840 1.391 . S
C839 C838 1.386 . S
C839 C843 1.393 . S
C840 H829 0.950 . S
C840 C838 1.391 . S
C840 C841 1.400 . S
C841 C835 1.491 1_565 S
C841 C840 1.400 . S
C841 C842 1.398 . S
C842 H830 0.950 . S
C842 C841 1.398 . S
C842 C843 1.391 . S
C843 H831 0.950 . S
C843 C839 1.393 . S
C843 C842 1.391 . S
H844 C852 0.950 . S
H845 C857 0.950 . S
H846 C854 0.950 . S
H847 C856 0.945 1_556 S
H848 C858 0.950 . S
H849 C860 0.950 . S
H850 C862 0.945 1_554 S
H851 C863 0.950 . S
C852 H844 0.950 . S
C852 C853 1.386 . S
C852 C854 1.391 . S
C853 C852 1.386 . S
C853 C857 1.393 . S
C854 H846 0.950 . S
C854 C852 1.391 . S
C854 C855 1.400 . S
C855 C854 1.400 . S
C855 C856 1.400 . S
C855 C861 1.491 1_554 S
C856 H847 0.945 1_554 S
C856 C855 1.400 . S
C856 C857 1.394 . S
C857 H845 0.950 . S
C857 C853 1.393 . S
C857 C856 1.394 . S
C858 H848 0.950 . S
C858 C859 1.386 . S
C858 C860 1.391 . S
C859 C858 1.386 . S
C859 C863 1.393 . S
C860 H849 0.950 . S
C860 C858 1.391 . S
C860 C861 1.400 . S
C861 C855 1.491 1_556 S
C861 C860 1.400 . S
C861 C862 1.400 . S
C862 H850 0.945 1_556 S
C862 C861 1.400 . S
C862 C863 1.394 . S
C863 H851 0.950 . S
C863 C859 1.393 . S
C863 C862 1.394 . S
H864 C872 0.950 . S
H865 C877 0.950 . S
H866 C874 0.950 . S
H867 C876 0.950 . S
H868 C878 0.950 . S
H869 C880 0.950 . S
H870 C882 0.950 . S
H871 C883 0.950 . S
C872 H864 0.950 . S
C872 C873 1.386 . S
C872 C874 1.391 . S
C873 C872 1.386 . S
C873 C877 1.393 . S
C874 H866 0.950 . S
C874 C872 1.391 . S
C874 C875 1.400 . S
C875 C874 1.400 . S
C875 C876 1.398 . S
C875 C881 1.491 . S
C876 H867 0.950 . S
C876 C875 1.398 . S
C876 C877 1.391 . S
C877 H865 0.950 . S
C877 C873 1.393 . S
C877 C876 1.391 . S
C878 H868 0.950 . S
C878 C879 1.386 . S
C878 C880 1.391 . S
C879 C878 1.386 . S
C879 C883 1.393 . S
C880 H869 0.950 . S
C880 C878 1.391 . S
C880 C881 1.400 . S
C881 C875 1.491 . S
C881 C880 1.400 . S
C881 C882 1.398 . S
C882 H870 0.950 . S
C882 C881 1.398 . S
C882 C883 1.391 . S
C883 H871 0.950 . S
C883 C879 1.393 . S
C883 C882 1.391 . S
H884 C892 0.950 . S
H885 C897 0.950 . S
H886 C894 0.950 . S
H887 C896 0.950 . S
H888 C898 0.950 . S
H889 C900 0.950 . S
H890 C902 0.950 . S
H891 C903 0.950 . S
C892 H884 0.950 . S
C892 C893 1.386 1_554 S
C892 C894 1.391 . S
C893 C892 1.386 1_556 S
C893 C897 1.393 . S
C894 H886 0.950 . S
C894 C892 1.391 . S
C894 C895 1.400 1_554 S
C895 C894 1.400 1_556 S
C895 C896 1.398 . S
C895 C901 1.491 1_556 S
C896 H887 0.950 . S
C896 C895 1.398 . S
C896 C897 1.391 . S
C897 H885 0.950 . S
C897 C893 1.393 . S
C897 C896 1.391 . S
C898 H888 0.950 . S
C898 C899 1.386 1_556 S
C898 C900 1.391 . S
C899 C898 1.386 1_554 S
C899 C903 1.393 . S
C900 H889 0.950 . S
C900 C898 1.391 . S
C900 C901 1.400 1_556 S
C901 C895 1.491 1_554 S
C901 C900 1.400 1_554 S
C901 C902 1.398 . S
C902 H890 0.950 . S
C902 C901 1.398 . S
C902 C903 1.391 . S
C903 H891 0.950 . S
C903 C899 1.393 . S
C903 C902 1.391 . S
H904 C912 0.950 . S
H905 C917 0.950 . S
H906 C914 0.950 . S
H907 C916 0.950 . S
H908 C918 0.950 . S
H909 C920 0.950 . S
H910 C922 0.950 . S
H911 C923 0.950 . S
C912 H904 0.950 . S
C912 C913 1.386 . S
C912 C914 1.391 . S
C913 C912 1.386 . S
C913 C917 1.393 . S
C914 H906 0.950 . S
C914 C912 1.391 . S
C914 C915 1.400 . S
C915 C914 1.400 . S
C915 C916 1.398 . S
C915 C921 1.491 . S
C916 H907 0.950 . S
C916 C915 1.398 . S
C916 C917 1.391 . S
C917 H905 0.950 . S
C917 C913 1.393 . S
C917 C916 1.391 . S
C918 H908 0.950 . S
C918 C919 1.386 . S
C918 C920 1.391 . S
C919 C918 1.386 . S
C919 C923 1.393 . S
C920 H909 0.950 . S
C920 C918 1.391 . S
C920 C921 1.400 . S
C921 C915 1.491 . S
C921 C920 1.400 . S
C921 C922 1.398 . S
C922 H910 0.950 . S
C922 C921 1.398 . S
C922 C923 1.391 . S
C923 H911 0.950 . S
C923 C919 1.393 . S
C923 C922 1.391 . S
H924 C932 0.950 . S
H925 C937 0.950 . S
H926 C934 0.950 . S
H927 C936 0.950 . S
H928 C938 0.950 . S
H929 C940 0.950 . S
H930 C942 0.950 . S
H931 C943 0.950 . S
C932 H924 0.950 . S
C932 C933 1.386 . S
C932 C934 1.391 . S
C933 C932 1.386 . S
C933 C937 1.393 . S
C934 H926 0.950 . S
C934 C932 1.391 . S
C934 C935 1.400 . S
C935 C934 1.400 . S
C935 C936 1.398 . S
C935 C941 1.491 . S
C936 H927 0.950 . S
C936 C935 1.398 . S
C936 C937 1.391 . S
C937 H925 0.950 . S
C937 C933 1.393 . S
C937 C936 1.391 . S
C938 H928 0.950 . S
C938 C939 1.386 . S
C938 C940 1.391 . S
C939 C938 1.386 . S
C939 C943 1.393 . S
C940 H929 0.950 . S
C940 C938 1.391 . S
C940 C941 1.400 . S
C941 C935 1.491 . S
C941 C940 1.400 . S
C941 C942 1.398 . S
C942 H930 0.950 . S
C942 C941 1.398 . S
C942 C943 1.391 . S
C943 H931 0.950 . S
C943 C939 1.393 . S
C943 C942 1.391 . S
H944 C952 0.950 . S
H945 C957 0.950 . S
H946 C954 0.950 . S
H947 C956 0.950 . S
H948 C958 0.950 . S
H949 C960 0.950 . S
H950 C962 0.950 . S
H951 C963 0.950 . S
C952 H944 0.950 . S
C952 C953 1.386 . S
C952 C954 1.391 . S
C953 C952 1.386 . S
C953 C957 1.393 . S
C954 H946 0.950 . S
C954 C952 1.391 . S
C954 C955 1.400 . S
C955 C954 1.400 . S
C955 C956 1.398 . S
C955 C961 1.491 . S
C956 H947 0.950 . S
C956 C955 1.398 . S
C956 C957 1.391 . S
C957 H945 0.950 . S
C957 C953 1.393 . S
C957 C956 1.391 . S
C958 H948 0.950 . S
C958 C959 1.386 . S
C958 C960 1.391 . S
C959 C958 1.386 . S
C959 C963 1.393 . S
C960 H949 0.950 . S
C960 C958 1.391 . S
C960 C961 1.400 . S
C961 C955 1.491 . S
C961 C960 1.400 . S
C961 C962 1.398 . S
C962 H950 0.950 . S
C962 C961 1.398 . S
C962 C963 1.391 . S
C963 H951 0.950 . S
C963 C959 1.393 . S
C963 C962 1.391 . S
H964 C972 0.950 . S
H965 C977 0.950 . S
H966 C974 0.950 . S
H967 C976 0.950 . S
H968 C978 0.950 . S
H969 C980 0.950 . S
H970 C982 0.950 . S
H971 C983 0.950 . S
C972 H964 0.950 . S
C972 C973 1.386 . S
C972 C974 1.391 . S
C973 C972 1.386 . S
C973 C977 1.393 1_556 S
C974 H966 0.950 . S
C974 C972 1.391 . S
C974 C975 1.400 . S
C975 C974 1.400 . S
C975 C976 1.398 1_556 S
C975 C981 1.491 1_556 S
C976 H967 0.950 . S
C976 C975 1.398 1_554 S
C976 C977 1.391 . S
C977 H965 0.950 . S
C977 C973 1.393 1_554 S
C977 C976 1.391 . S
C978 H968 0.950 . S
C978 C979 1.386 . S
C978 C980 1.391 . S
C979 C978 1.386 . S
C979 C983 1.393 1_554 S
C980 H969 0.950 . S
C980 C978 1.391 . S
C980 C981 1.400 . S
C981 C975 1.491 1_554 S
C981 C980 1.400 . S
C981 C982 1.398 1_554 S
C982 H970 0.950 . S
C982 C981 1.398 1_556 S
C982 C983 1.391 . S
C983 H971 0.950 . S
C983 C979 1.393 1_556 S
C983 C982 1.391 . S
H984 C992 0.950 . S
H985 C997 0.950 . S
H986 C994 0.950 . S
H987 C996 0.950 . S
H988 C998 0.950 . S
H989 C1000 0.950 . S
H990 C1002 0.950 . S
H991 C1003 0.950 . S
C992 H984 0.950 . S
C992 C993 1.386 . S
C992 C994 1.391 . S
C993 C992 1.386 . S
C993 C997 1.393 . S
C994 H986 0.950 . S
C994 C992 1.391 . S
C994 C995 1.400 . S
C995 C994 1.400 . S
C995 C996 1.398 . S
C995 C1001 1.491 . S
C996 H987 0.950 . S
C996 C995 1.398 . S
C996 C997 1.391 . S
C997 H985 0.950 . S
C997 C993 1.393 . S
C997 C996 1.391 . S
C998 H988 0.950 . S
C998 C999 1.386 . S
C998 C1000 1.391 . S
C999 C998 1.386 . S
C999 C1003 1.393 . S
C1000 H989 0.950 . S
C1000 C998 1.391 . S
C1000 C1001 1.400 . S
C1001 C995 1.491 . S
C1001 C1000 1.400 . S
C1001 C1002 1.398 . S
C1002 H990 0.950 . S
C1002 C1001 1.398 . S
C1002 C1003 1.391 . S
C1003 H991 0.950 . S
C1003 C999 1.393 . S
C1003 C1002 1.391 . S
H1004 C1012 0.950 . S
H1005 C1017 0.950 . S
H1006 C1014 0.950 . S
H1007 C1016 0.950 . S
H1008 C1018 0.950 . S
H1009 C1020 0.950 . S
H1010 C1022 0.950 . S
H1011 C1023 0.950 . S
C1012 H1004 0.950 . S
C1012 C1013 1.386 . S
C1012 C1014 1.391 . S
C1013 C1012 1.386 . S
C1013 C1017 1.393 . S
C1014 H1006 0.950 . S
C1014 C1012 1.391 . S
C1014 C1015 1.400 . S
C1015 C1014 1.400 . S
C1015 C1016 1.398 . S
C1015 C1021 1.491 . S
C1016 H1007 0.950 . S
C1016 C1015 1.398 . S
C1016 C1017 1.391 . S
C1017 H1005 0.950 . S
C1017 C1013 1.393 . S
C1017 C1016 1.391 . S
C1018 H1008 0.950 . S
C1018 C1019 1.386 . S
C1018 C1020 1.391 . S
C1019 C1018 1.386 . S
C1019 C1023 1.393 . S
C1020 H1009 0.950 . S
C1020 C1018 1.391 . S
C1020 C1021 1.400 . S
C1021 C1015 1.491 . S
C1021 C1020 1.400 . S
C1021 C1022 1.398 . S
C1022 H1010 0.950 . S
C1022 C1021 1.398 . S
C1022 C1023 1.391 . S
C1023 H1011 0.950 . S
C1023 C1019 1.393 . S
C1023 C1022 1.391 . S
H1024 C1032 0.950 . S
H1025 C1037 0.950 . S
H1026 C1034 0.950 . S
H1027 C1036 0.950 . S
H1028 C1038 0.950 . S
H1029 C1040 0.950 . S
H1030 C1042 0.950 . S
H1031 C1043 0.950 . S
C1032 H1024 0.950 . S
C1032 C1033 1.386 . S
C1032 C1034 1.391 . S
C1033 C1032 1.386 . S
C1033 C1037 1.393 . S
C1034 H1026 0.950 . S
C1034 C1032 1.391 . S
C1034 C1035 1.400 . S
C1035 C1034 1.400 . S
C1035 C1036 1.398 . S
C1035 C1041 1.491 . S
C1036 H1027 0.950 . S
C1036 C1035 1.398 . S
C1036 C1037 1.391 . S
C1037 H1025 0.950 . S
C1037 C1033 1.393 . S
C1037 C1036 1.391 . S
C1038 H1028 0.950 . S
C1038 C1039 1.386 . S
C1038 C1040 1.391 . S
C1039 C1038 1.386 . S
C1039 C1043 1.393 . S
C1040 H1029 0.950 . S
C1040 C1038 1.391 . S
C1040 C1041 1.400 . S
C1041 C1035 1.491 . S
C1041 C1040 1.400 . S
C1041 C1042 1.398 . S
C1042 H1030 0.950 . S
C1042 C1041 1.398 . S
C1042 C1043 1.391 . S
C1043 H1031 0.950 . S
C1043 C1039 1.393 . S
C1043 C1042 1.391 . S
H1044 C1052 0.950 . S
H1045 C1057 0.950 . S
H1046 C1054 0.950 1_565 S
H1047 C1056 0.950 1_455 S
H1048 C1058 0.950 . S
H1049 C1060 0.950 1_545 S
H1050 C1062 0.950 1_655 S
H1051 C1063 0.950 . S
C1052 H1044 0.950 . S
C1052 C1053 1.386 . S
C1052 C1054 1.391 . S
C1053 C1052 1.386 . S
C1053 C1057 1.393 . S
C1054 H1046 0.950 1_545 S
C1054 C1052 1.391 . S
C1054 C1055 1.400 . S
C1055 C1054 1.400 . S
C1055 C1056 1.398 . S
C1055 C1061 1.491 1_645 S
C1056 H1047 0.950 1_655 S
C1056 C1055 1.398 . S
C1056 C1057 1.391 . S
C1057 H1045 0.950 . S
C1057 C1053 1.393 . S
C1057 C1056 1.391 . S
C1058 H1048 0.950 . S
C1058 C1059 1.386 . S
C1058 C1060 1.391 . S
C1059 C1058 1.386 . S
C1059 C1063 1.393 . S
C1060 H1049 0.950 1_565 S
C1060 C1058 1.391 . S
C1060 C1061 1.400 . S
C1061 C1055 1.491 1_465 S
C1061 C1060 1.400 . S
C1061 C1062 1.398 . S
C1062 H1050 0.950 1_455 S
C1062 C1061 1.398 . S
C1062 C1063 1.391 . S
C1063 H1051 0.950 . S
C1063 C1059 1.393 . S
C1063 C1062 1.391 . S
H1064 C1072 0.950 . S
H1065 C1077 0.950 . S
H1066 C1074 0.950 . S
H1067 C1076 0.950 . S
H1068 C1078 0.950 . S
H1069 C1080 0.950 . S
H1070 C1082 0.950 . S
H1071 C1083 0.950 . S
C1072 H1064 0.950 . S
C1072 C1073 1.386 . S
C1072 C1074 1.391 . S
C1073 C1072 1.386 . S
C1073 C1077 1.393 . S
C1074 H1066 0.950 . S
C1074 C1072 1.391 . S
C1074 C1075 1.400 . S
C1075 C1074 1.400 . S
C1075 C1076 1.398 . S
C1075 C1081 1.491 . S
C1076 H1067 0.950 . S
C1076 C1075 1.398 . S
C1076 C1077 1.391 . S
C1077 H1065 0.950 . S
C1077 C1073 1.393 . S
C1077 C1076 1.391 . S
C1078 H1068 0.950 . S
C1078 C1079 1.386 . S
C1078 C1080 1.391 . S
C1079 C1078 1.386 . S
C1079 C1083 1.393 . S
C1080 H1069 0.950 . S
C1080 C1078 1.391 . S
C1080 C1081 1.400 . S
C1081 C1075 1.491 . S
C1081 C1080 1.400 . S
C1081 C1082 1.398 . S
C1082 H1070 0.950 . S
C1082 C1081 1.398 . S
C1082 C1083 1.391 . S
C1083 H1071 0.950 . S
C1083 C1079 1.393 . S
C1083 C1082 1.391 . S
H1084 C1092 0.950 . S
H1085 C1097 0.944 1_556 S
H1086 C1094 0.950 . S
H1087 C1096 0.950 1_565 S
H1088 C1098 0.950 . S
H1089 C1100 0.950 . S
H1090 C1102 0.965 1_545 S
H1091 C1103 0.948 1_554 S
C1092 H1084 0.950 . S
C1092 C1093 1.386 . S
C1092 C1094 1.391 . S
C1093 C1092 1.386 . S
C1093 C1097 1.393 . S
C1094 H1086 0.950 . S
C1094 C1092 1.391 . S
C1094 C1095 1.400 . S
C1095 C1094 1.400 . S
C1095 C1096 1.398 1_554 S
C1095 C1101 1.491 1_544 S
C1096 H1087 0.950 1_545 S
C1096 C1095 1.398 1_556 S
C1096 C1097 1.391 1_556 S
C1097 H1085 0.944 1_554 S
C1097 C1093 1.393 . S
C1097 C1096 1.391 1_554 S
C1098 H1088 0.950 . S
C1098 C1099 1.386 . S
C1098 C1100 1.391 . S
C1099 C1098 1.386 . S
C1099 C1103 1.393 . S
C1100 H1089 0.950 . S
C1100 C1098 1.391 . S
C1100 C1101 1.400 . S
C1101 C1095 1.491 1_566 S
C1101 C1100 1.400 . S
C1101 C1102 1.392 1_556 S
C1102 H1090 0.965 1_565 S
C1102 C1101 1.392 1_554 S
C1102 C1103 1.385 1_554 S
C1103 H1091 0.948 1_556 S
C1103 C1099 1.393 . S
C1103 C1102 1.385 1_556 S
H1104 C1112 0.950 . S
H1105 C1117 0.950 . S
H1106 C1114 0.950 . S
H1107 C1116 0.950 . S
H1108 C1118 0.950 . S
H1109 C1120 0.950 . S
H1110 C1122 0.950 . S
H1111 C1123 0.950 . S
C1112 H1104 0.950 . S
C1112 C1113 1.386 . S
C1112 C1114 1.391 . S
C1113 C1112 1.386 . S
C1113 C1117 1.393 . S
C1114 H1106 0.950 . S
C1114 C1112 1.391 . S
C1114 C1115 1.400 . S
C1115 C1114 1.400 . S
C1115 C1116 1.398 . S
C1115 C1121 1.491 . S
C1116 H1107 0.950 . S
C1116 C1115 1.398 . S
C1116 C1117 1.391 . S
C1117 H1105 0.950 . S
C1117 C1113 1.393 . S
C1117 C1116 1.391 . S
C1118 H1108 0.950 . S
C1118 C1119 1.386 . S
C1118 C1120 1.391 . S
C1119 C1118 1.386 . S
C1119 C1123 1.393 . S
C1120 H1109 0.950 . S
C1120 C1118 1.391 . S
C1120 C1121 1.400 . S
C1121 C1115 1.491 . S
C1121 C1120 1.400 . S
C1121 C1122 1.398 . S
C1122 H1110 0.950 . S
C1122 C1121 1.398 . S
C1122 C1123 1.391 . S
C1123 H1111 0.950 . S
C1123 C1119 1.393 . S
C1123 C1122 1.391 . S
H1124 C1132 0.950 . S
H1125 C1137 0.950 . S
H1126 C1134 0.950 . S
H1127 C1136 0.950 . S
H1128 C1138 0.950 . S
H1129 C1140 0.950 . S
H1130 C1142 0.950 . S
H1131 C1143 0.950 . S
C1132 H1124 0.950 . S
C1132 C1133 1.386 . S
C1132 C1134 1.391 . S
C1133 C1132 1.386 . S
C1133 C1137 1.393 . S
C1134 H1126 0.950 . S
C1134 C1132 1.391 . S
C1134 C1135 1.400 . S
C1135 C1134 1.400 . S
C1135 C1136 1.398 . S
C1135 C1141 1.491 1_565 S
C1136 H1127 0.950 . S
C1136 C1135 1.398 . S
C1136 C1137 1.391 . S
C1137 H1125 0.950 . S
C1137 C1133 1.393 . S
C1137 C1136 1.391 . S
C1138 H1128 0.950 . S
C1138 C1139 1.386 . S
C1138 C1140 1.391 . S
C1139 C1138 1.386 . S
C1139 C1143 1.393 . S
C1140 H1129 0.950 . S
C1140 C1138 1.391 . S
C1140 C1141 1.400 . S
C1141 C1135 1.491 1_545 S
C1141 C1140 1.400 . S
C1141 C1142 1.398 . S
C1142 H1130 0.950 . S
C1142 C1141 1.398 . S
C1142 C1143 1.391 . S
C1143 H1131 0.950 . S
C1143 C1139 1.393 . S
C1143 C1142 1.391 . S
H1144 C1152 0.950 . S
H1145 C1157 0.950 . S
H1146 C1154 0.950 . S
H1147 C1156 0.950 . S
H1148 C1158 0.950 . S
H1149 C1160 0.950 . S
H1150 C1162 0.950 . S
H1151 C1163 0.950 . S
C1152 H1144 0.950 . S
C1152 C1153 1.386 . S
C1152 C1154 1.391 . S
C1153 C1152 1.386 . S
C1153 C1157 1.393 . S
C1154 H1146 0.950 . S
C1154 C1152 1.391 . S
C1154 C1155 1.400 . S
C1155 C1154 1.400 . S
C1155 C1156 1.398 . S
C1155 C1161 1.491 . S
C1156 H1147 0.950 . S
C1156 C1155 1.398 . S
C1156 C1157 1.391 . S
C1157 H1145 0.950 . S
C1157 C1153 1.393 . S
C1157 C1156 1.391 . S
C1158 H1148 0.950 . S
C1158 C1159 1.386 . S
C1158 C1160 1.391 . S
C1159 C1158 1.386 . S
C1159 C1163 1.393 . S
C1160 H1149 0.950 . S
C1160 C1158 1.391 . S
C1160 C1161 1.400 . S
C1161 C1155 1.491 . S
C1161 C1160 1.400 . S
C1161 C1162 1.398 . S
C1162 H1150 0.950 . S
C1162 C1161 1.398 . S
C1162 C1163 1.391 . S
C1163 H1151 0.950 . S
C1163 C1159 1.393 . S
C1163 C1162 1.391 . S
H1164 C1172 0.950 . S
H1165 C1177 0.950 . S
H1166 C1174 0.950 1_545 S
H1167 C1176 0.950 . S
H1168 C1178 0.950 . S
H1169 C1180 0.950 1_565 S
H1170 C1182 0.950 . S
H1171 C1183 0.950 . S
C1172 H1164 0.950 . S
C1172 C1173 1.386 . S
C1172 C1174 1.391 . S
C1173 C1172 1.386 . S
C1173 C1177 1.393 1_554 S
C1174 H1166 0.950 1_565 S
C1174 C1172 1.391 . S
C1174 C1175 1.400 . S
C1175 C1174 1.400 . S
C1175 C1176 1.398 1_554 S
C1175 C1181 1.491 1_664 S
C1176 H1167 0.950 . S
C1176 C1175 1.398 1_556 S
C1176 C1177 1.391 . S
C1177 H1165 0.950 . S
C1177 C1173 1.393 1_556 S
C1177 C1176 1.391 . S
C1178 H1168 0.950 . S
C1178 C1179 1.386 . S
C1178 C1180 1.391 . S
C1179 C1178 1.386 . S
C1179 C1183 1.393 1_556 S
C1180 H1169 0.950 1_545 S
C1180 C1178 1.391 . S
C1180 C1181 1.400 . S
C1181 C1175 1.491 1_446 S
C1181 C1180 1.400 . S
C1181 C1182 1.398 1_556 S
C1182 H1170 0.950 . S
C1182 C1181 1.398 1_554 S
C1182 C1183 1.391 . S
C1183 H1171 0.950 . S
C1183 C1179 1.393 1_554 S
C1183 C1182 1.391 . S
H1184 C1192 0.950 . S
H1185 C1197 0.950 . S
H1186 C1194 0.950 . S
H1187 C1196 0.950 . S
H1188 C1198 0.950 . S
H1189 C1200 0.950 . S
H1190 C1202 0.950 . S
H1191 C1203 0.950 . S
C1192 H1184 0.950 . S
C1192 C1193 1.386 . S
C1192 C1194 1.391 . S
C1193 C1192 1.386 . S
C1193 C1197 1.393 . S
C1194 H1186 0.950 . S
C1194 C1192 1.391 . S
C1194 C1195 1.400 . S
C1195 C1194 1.400 . S
C1195 C1196 1.398 . S
C1195 C1201 1.491 . S
C1196 H1187 0.950 . S
C1196 C1195 1.398 . S
C1196 C1197 1.391 . S
C1197 H1185 0.950 . S
C1197 C1193 1.393 . S
C1197 C1196 1.391 . S
C1198 H1188 0.950 . S
C1198 C1199 1.386 . S
C1198 C1200 1.391 . S
C1199 C1198 1.386 . S
C1199 C1203 1.393 . S
C1200 H1189 0.950 . S
C1200 C1198 1.391 . S
C1200 C1201 1.400 . S
C1201 C1195 1.491 . S
C1201 C1200 1.400 . S
C1201 C1202 1.398 . S
C1202 H1190 0.950 . S
C1202 C1201 1.398 . S
C1202 C1203 1.391 . S
C1203 H1191 0.950 . S
C1203 C1199 1.393 . S
C1203 C1202 1.391 . S
H1204 C1212 0.950 . S
H1205 C1217 0.950 . S
H1206 C1214 0.950 . S
H1207 C1216 0.950 . S
H1208 C1218 0.950 . S
H1209 C1220 0.950 . S
H1210 C1222 0.950 . S
H1211 C1223 0.950 . S
C1212 H1204 0.950 . S
C1212 C1213 1.386 . S
C1212 C1214 1.391 . S
C1213 C1212 1.386 . S
C1213 C1217 1.393 . S
C1214 H1206 0.950 . S
C1214 C1212 1.391 . S
C1214 C1215 1.400 . S
C1215 C1214 1.400 . S
C1215 C1216 1.398 . S
C1215 C1221 1.491 . S
C1216 H1207 0.950 . S
C1216 C1215 1.398 . S
C1216 C1217 1.391 . S
C1217 H1205 0.950 . S
C1217 C1213 1.393 . S
C1217 C1216 1.391 . S
C1218 H1208 0.950 . S
C1218 C1219 1.386 . S
C1218 C1220 1.391 . S
C1219 C1218 1.386 . S
C1219 C1223 1.393 . S
C1220 H1209 0.950 . S
C1220 C1218 1.391 . S
C1220 C1221 1.400 . S
C1221 C1215 1.491 . S
C1221 C1220 1.400 . S
C1221 C1222 1.398 . S
C1222 H1210 0.950 . S
C1222 C1221 1.398 . S
C1222 C1223 1.391 . S
C1223 H1211 0.950 . S
C1223 C1219 1.393 . S
C1223 C1222 1.391 . S
H1224 C1232 0.950 . S
H1225 C1237 0.950 . S
H1226 C1234 0.950 . S
H1227 C1236 0.950 . S
H1228 C1238 0.950 . S
H1229 C1240 0.950 . S
H1230 C1242 0.950 . S
H1231 C1243 0.950 . S
C1232 H1224 0.950 . S
C1232 C1233 1.386 . S
C1232 C1234 1.391 . S
C1233 C1232 1.386 . S
C1233 C1237 1.393 . S
C1234 H1226 0.950 . S
C1234 C1232 1.391 . S
C1234 C1235 1.400 . S
C1235 C1234 1.400 . S
C1235 C1236 1.398 . S
C1235 C1241 1.491 . S
C1236 H1227 0.950 . S
C1236 C1235 1.398 . S
C1236 C1237 1.391 . S
C1237 H1225 0.950 . S
C1237 C1233 1.393 . S
C1237 C1236 1.391 . S
C1238 H1228 0.950 . S
C1238 C1239 1.386 . S
C1238 C1240 1.391 . S
C1239 C1238 1.386 . S
C1239 C1243 1.393 . S
C1240 H1229 0.950 . S
C1240 C1238 1.391 . S
C1240 C1241 1.400 . S
C1241 C1235 1.491 . S
C1241 C1240 1.400 . S
C1241 C1242 1.398 . S
C1242 H1230 0.950 . S
C1242 C1241 1.398 . S
C1242 C1243 1.391 . S
C1243 H1231 0.950 . S
C1243 C1239 1.393 . S
C1243 C1242 1.391 . S
H1244 C1252 0.950 . S
H1245 C1257 0.950 . S
H1246 C1254 0.950 . S
H1247 C1256 0.950 . S
H1248 C1258 0.950 . S
H1249 C1260 0.950 . S
H1250 C1262 0.950 . S
H1251 C1263 0.950 . S
C1252 H1244 0.950 . S
C1252 C1253 1.386 . S
C1252 C1254 1.391 . S
C1253 C1252 1.386 . S
C1253 C1257 1.393 . S
C1254 H1246 0.950 . S
C1254 C1252 1.391 . S
C1254 C1255 1.400 . S
C1255 C1254 1.400 . S
C1255 C1256 1.398 . S
C1255 C1261 1.491 . S
C1256 H1247 0.950 . S
C1256 C1255 1.398 . S
C1256 C1257 1.391 . S
C1257 H1245 0.950 . S
C1257 C1253 1.393 . S
C1257 C1256 1.391 . S
C1258 H1248 0.950 . S
C1258 C1259 1.386 . S
C1258 C1260 1.391 . S
C1259 C1258 1.386 . S
C1259 C1263 1.393 . S
C1260 H1249 0.950 . S
C1260 C1258 1.391 . S
C1260 C1261 1.400 . S
C1261 C1255 1.491 . S
C1261 C1260 1.400 . S
C1261 C1262 1.398 . S
C1262 H1250 0.950 . S
C1262 C1261 1.398 . S
C1262 C1263 1.391 . S
C1263 H1251 0.950 . S
C1263 C1259 1.393 . S
C1263 C1262 1.391 . S
H1264 C1272 0.950 . S
H1265 C1277 0.950 . S
H1266 C1274 0.950 . S
H1267 C1276 0.950 . S
H1268 C1278 0.950 . S
H1269 C1280 0.950 . S
H1270 C1282 0.950 . S
H1271 C1283 0.950 . S
C1272 H1264 0.950 . S
C1272 C1273 1.386 1_556 S
C1272 C1274 1.391 . S
C1273 C1272 1.386 1_554 S
C1273 C1277 1.393 . S
C1274 H1266 0.950 . S
C1274 C1272 1.391 . S
C1274 C1275 1.400 1_556 S
C1275 C1274 1.400 1_554 S
C1275 C1276 1.398 . S
C1275 C1281 1.491 1_554 S
C1276 H1267 0.950 . S
C1276 C1275 1.398 . S
C1276 C1277 1.391 . S
C1277 H1265 0.950 . S
C1277 C1273 1.393 . S
C1277 C1276 1.391 . S
C1278 H1268 0.950 . S
C1278 C1279 1.386 1_554 S
C1278 C1280 1.391 . S
C1279 C1278 1.386 1_556 S
C1279 C1283 1.393 . S
C1280 H1269 0.950 . S
C1280 C1278 1.391 . S
C1280 C1281 1.400 1_554 S
C1281 C1275 1.491 1_556 S
C1281 C1280 1.400 1_556 S
C1281 C1282 1.398 . S
C1282 H1270 0.950 . S
C1282 C1281 1.398 . S
C1282 C1283 1.391 . S
C1283 H1271 0.950 . S
C1283 C1279 1.393 . S
C1283 C1282 1.391 . S
H1284 C1292 0.950 . S
H1285 C1297 0.950 . S
H1286 C1294 0.950 . S
H1287 C1296 0.950 . S
H1288 C1298 0.950 . S
H1289 C1300 0.950 . S
H1290 C1302 0.950 . S
H1291 C1303 0.950 . S
C1292 H1284 0.950 . S
C1292 C1293 1.386 . S
C1292 C1294 1.391 . S
C1293 C1292 1.386 . S
C1293 C1297 1.393 . S
C1294 H1286 0.950 . S
C1294 C1292 1.391 . S
C1294 C1295 1.400 . S
C1295 C1294 1.400 . S
C1295 C1296 1.398 . S
C1295 C1301 1.491 1_455 S
C1296 H1287 0.950 . S
C1296 C1295 1.398 . S
C1296 C1297 1.391 . S
C1297 H1285 0.950 . S
C1297 C1293 1.393 . S
C1297 C1296 1.391 . S
C1298 H1288 0.950 . S
C1298 C1299 1.386 . S
C1298 C1300 1.391 . S
C1299 C1298 1.386 . S
C1299 C1303 1.393 . S
C1300 H1289 0.950 . S
C1300 C1298 1.391 . S
C1300 C1301 1.400 . S
C1301 C1295 1.491 1_655 S
C1301 C1300 1.400 . S
C1301 C1302 1.398 . S
C1302 H1290 0.950 . S
C1302 C1301 1.398 . S
C1302 C1303 1.391 . S
C1303 H1291 0.950 . S
C1303 C1299 1.393 . S
C1303 C1302 1.391 . S
H1304 C1312 0.950 . S
H1305 C1317 0.958 . S
H1306 C1314 0.950 . S
H1307 C1316 0.952 1_655 S
H1308 C1318 0.950 . S
H1309 C1320 0.950 . S
H1310 C1322 0.959 1_455 S
H1311 C1323 0.953 . S
C1312 H1304 0.950 . S
C1312 C1313 1.386 . S
C1312 C1314 1.391 . S
C1313 C1312 1.386 . S
C1313 C1317 1.393 . S
C1314 H1306 0.950 . S
C1314 C1312 1.391 . S
C1314 C1315 1.400 . S
C1315 C1314 1.400 . S
C1315 C1316 1.398 1_554 S
C1315 C1321 1.491 1_454 S
C1316 H1307 0.952 1_455 S
C1316 C1315 1.398 1_556 S
C1316 C1317 1.390 1_556 S
C1317 H1305 0.958 . S
C1317 C1313 1.393 . S
C1317 C1316 1.390 1_554 S
C1318 H1308 0.950 . S
C1318 C1319 1.386 . S
C1318 C1320 1.391 . S
C1319 C1318 1.386 . S
C1319 C1323 1.393 . S
C1320 H1309 0.950 . S
C1320 C1318 1.391 . S
C1320 C1321 1.400 . S
C1321 C1315 1.491 1_656 S
C1321 C1320 1.400 . S
C1321 C1322 1.395 1_556 S
C1322 H1310 0.959 1_655 S
C1322 C1321 1.395 1_554 S
C1322 C1323 1.386 1_554 S
C1323 H1311 0.953 . S
C1323 C1319 1.393 . S
C1323 C1322 1.386 1_556 S
H1324 C1332 0.950 . S
H1325 C1337 0.950 . S
H1326 C1334 0.950 . S
H1327 C1336 0.950 . S
H1328 C1338 0.950 . S
H1329 C1340 0.950 . S
H1330 C1342 0.950 . S
H1331 C1343 0.950 . S
C1332 H1324 0.950 . S
C1332 C1333 1.386 . S
C1332 C1334 1.391 . S
C1333 C1332 1.386 . S
C1333 C1337 1.393 . S
C1334 H1326 0.950 . S
C1334 C1332 1.391 . S
C1334 C1335 1.400 . S
C1335 C1334 1.400 . S
C1335 C1336 1.398 . S
C1335 C1341 1.491 . S
C1336 H1327 0.950 . S
C1336 C1335 1.398 . S
C1336 C1337 1.391 . S
C1337 H1325 0.950 . S
C1337 C1333 1.393 . S
C1337 C1336 1.391 . S
C1338 H1328 0.950 . S
C1338 C1339 1.386 . S
C1338 C1340 1.391 . S
C1339 C1338 1.386 . S
C1339 C1343 1.393 . S
C1340 H1329 0.950 . S
C1340 C1338 1.391 . S
C1340 C1341 1.400 . S
C1341 C1335 1.491 . S
C1341 C1340 1.400 . S
C1341 C1342 1.398 . S
C1342 H1330 0.950 . S
C1342 C1341 1.398 . S
C1342 C1343 1.391 . S
C1343 H1331 0.950 . S
C1343 C1339 1.393 . S
C1343 C1342 1.391 . S
H1344 C1352 0.950 . S
H1345 C1357 0.950 . S
H1346 C1354 0.950 . S
H1347 C1356 0.950 . S
H1348 C1358 0.950 . S
H1349 C1360 0.950 . S
H1350 C1362 0.950 . S
H1351 C1363 0.950 . S
C1352 H1344 0.950 . S
C1352 C1353 1.386 . S
C1352 C1354 1.391 . S
C1353 C1352 1.386 . S
C1353 C1357 1.393 . S
C1354 H1346 0.950 . S
C1354 C1352 1.391 . S
C1354 C1355 1.400 . S
C1355 C1354 1.400 . S
C1355 C1356 1.398 . S
C1355 C1361 1.491 . S
C1356 H1347 0.950 . S
C1356 C1355 1.398 . S
C1356 C1357 1.391 . S
C1357 H1345 0.950 . S
C1357 C1353 1.393 . S
C1357 C1356 1.391 . S
C1358 H1348 0.950 . S
C1358 C1359 1.386 . S
C1358 C1360 1.391 . S
C1359 C1358 1.386 . S
C1359 C1363 1.393 . S
C1360 H1349 0.950 . S
C1360 C1358 1.391 . S
C1360 C1361 1.400 . S
C1361 C1355 1.491 . S
C1361 C1360 1.400 . S
C1361 C1362 1.398 . S
C1362 H1350 0.950 . S
C1362 C1361 1.398 . S
C1362 C1363 1.391 . S
C1363 H1351 0.950 . S
C1363 C1359 1.393 . S
C1363 C1362 1.391 . S
H1364 C1372 0.950 . S
H1365 C1377 0.950 . S
H1366 C1374 0.950 . S
H1367 C1376 0.950 . S
H1368 C1378 0.950 . S
H1369 C1380 0.950 . S
H1370 C1382 0.950 . S
H1371 C1383 0.950 . S
C1372 H1364 0.950 . S
C1372 C1373 1.386 . S
C1372 C1374 1.391 . S
C1373 C1372 1.386 . S
C1373 C1377 1.393 1_455 S
C1374 H1366 0.950 . S
C1374 C1372 1.391 . S
C1374 C1375 1.400 1_455 S
C1375 C1374 1.400 1_655 S
C1375 C1376 1.398 . S
C1375 C1381 1.491 . S
C1376 H1367 0.950 . S
C1376 C1375 1.398 . S
C1376 C1377 1.391 . S
C1377 H1365 0.950 . S
C1377 C1373 1.393 1_655 S
C1377 C1376 1.391 . S
C1378 H1368 0.950 . S
C1378 C1379 1.386 . S
C1378 C1380 1.391 . S
C1379 C1378 1.386 . S
C1379 C1383 1.393 . S
C1380 H1369 0.950 . S
C1380 C1378 1.391 . S
C1380 C1381 1.400 . S
C1381 C1375 1.491 . S
C1381 C1380 1.400 . S
C1381 C1382 1.398 . S
C1382 H1370 0.950 . S
C1382 C1381 1.398 . S
C1382 C1383 1.391 . S
C1383 H1371 0.950 . S
C1383 C1379 1.393 . S
C1383 C1382 1.391 . S
H1384 C1392 0.950 . S
H1385 C1397 0.950 . S
H1386 C1394 0.950 . S
H1387 C1396 0.950 . S
H1388 C1398 0.950 . S
H1389 C1400 0.950 . S
H1390 C1402 0.950 . S
H1391 C1403 0.950 . S
C1392 H1384 0.950 . S
C1392 C1393 1.386 . S
C1392 C1394 1.391 . S
C1393 C1392 1.386 . S
C1393 C1397 1.393 . S
C1394 H1386 0.950 . S
C1394 C1392 1.391 . S
C1394 C1395 1.400 . S
C1395 C1394 1.400 . S
C1395 C1396 1.398 . S
C1395 C1401 1.491 . S
C1396 H1387 0.950 . S
C1396 C1395 1.398 . S
C1396 C1397 1.391 . S
C1397 H1385 0.950 . S
C1397 C1393 1.393 . S
C1397 C1396 1.391 . S
C1398 H1388 0.950 . S
C1398 C1399 1.386 . S
C1398 C1400 1.391 . S
C1399 C1398 1.386 . S
C1399 C1403 1.393 . S
C1400 H1389 0.950 . S
C1400 C1398 1.391 . S
C1400 C1401 1.400 . S
C1401 C1395 1.491 . S
C1401 C1400 1.400 . S
C1401 C1402 1.398 . S
C1402 H1390 0.950 . S
C1402 C1401 1.398 . S
C1402 C1403 1.391 . S
C1403 H1391 0.950 . S
C1403 C1399 1.393 . S
C1403 C1402 1.391 . S
H1404 C1412 0.950 . S
H1405 C1417 0.950 . S
H1406 C1414 0.950 . S
H1407 C1416 0.950 . S
H1408 C1418 0.950 . S
H1409 C1420 0.950 . S
H1410 C1422 0.950 . S
H1411 C1423 0.950 . S
C1412 H1404 0.950 . S
C1412 C1413 1.386 . S
C1412 C1414 1.391 . S
C1413 C1412 1.386 . S
C1413 C1417 1.393 . S
C1414 H1406 0.950 . S
C1414 C1412 1.391 . S
C1414 C1415 1.400 . S
C1415 C1414 1.400 . S
C1415 C1416 1.398 . S
C1415 C1421 1.491 . S
C1416 H1407 0.950 . S
C1416 C1415 1.398 . S
C1416 C1417 1.391 . S
C1417 H1405 0.950 . S
C1417 C1413 1.393 . S
C1417 C1416 1.391 . S
C1418 H1408 0.950 . S
C1418 C1419 1.386 . S
C1418 C1420 1.391 . S
C1419 C1418 1.386 . S
C1419 C1423 1.393 . S
C1420 H1409 0.950 . S
C1420 C1418 1.391 . S
C1420 C1421 1.400 . S
C1421 C1415 1.491 . S
C1421 C1420 1.400 . S
C1421 C1422 1.398 . S
C1422 H1410 0.950 . S
C1422 C1421 1.398 . S
C1422 C1423 1.391 . S
C1423 H1411 0.950 . S
C1423 C1419 1.393 . S
C1423 C1422 1.391 . S
H1424 C1432 0.950 . S
H1425 C1437 0.950 . S
H1426 C1434 0.950 . S
H1427 C1436 0.950 . S
H1428 C1438 0.950 . S
H1429 C1440 0.950 . S
H1430 C1442 0.950 . S
H1431 C1443 0.950 . S
C1432 H1424 0.950 . S
C1432 C1433 1.386 . S
C1432 C1434 1.391 . S
C1433 C1432 1.386 . S
C1433 C1437 1.393 . S
C1434 H1426 0.950 . S
C1434 C1432 1.391 . S
C1434 C1435 1.400 . S
C1435 C1434 1.400 . S
C1435 C1436 1.398 . S
C1435 C1441 1.491 . S
C1436 H1427 0.950 . S
C1436 C1435 1.398 . S
C1436 C1437 1.391 . S
C1437 H1425 0.950 . S
C1437 C1433 1.393 . S
C1437 C1436 1.391 . S
C1438 H1428 0.950 . S
C1438 C1439 1.386 . S
C1438 C1440 1.391 . S
C1439 C1438 1.386 . S
C1439 C1443 1.393 . S
C1440 H1429 0.950 . S
C1440 C1438 1.391 . S
C1440 C1441 1.400 . S
C1441 C1435 1.491 . S
C1441 C1440 1.400 . S
C1441 C1442 1.398 . S
C1442 H1430 0.950 . S
C1442 C1441 1.398 . S
C1442 C1443 1.391 . S
C1443 H1431 0.950 . S
C1443 C1439 1.393 . S
C1443 C1442 1.391 . S
H1444 C1452 0.950 . S
H1445 C1457 0.950 . S
H1446 C1454 0.950 . S
H1447 C1456 0.950 . S
H1448 C1458 0.950 . S
H1449 C1460 0.950 . S
H1450 C1462 0.950 . S
H1451 C1463 0.950 . S
C1452 H1444 0.950 . S
C1452 C1453 1.386 . S
C1452 C1454 1.391 . S
C1453 C1452 1.386 . S
C1453 C1457 1.393 . S
C1454 H1446 0.950 . S
C1454 C1452 1.391 . S
C1454 C1455 1.400 . S
C1455 C1454 1.400 . S
C1455 C1456 1.398 . S
C1455 C1461 1.491 . S
C1456 H1447 0.950 . S
C1456 C1455 1.398 . S
C1456 C1457 1.391 . S
C1457 H1445 0.950 . S
C1457 C1453 1.393 . S
C1457 C1456 1.391 . S
C1458 H1448 0.950 . S
C1458 C1459 1.386 . S
C1458 C1460 1.391 . S
C1459 C1458 1.386 . S
C1459 C1463 1.393 . S
C1460 H1449 0.950 . S
C1460 C1458 1.391 . S
C1460 C1461 1.400 . S
C1461 C1455 1.491 . S
C1461 C1460 1.400 . S
C1461 C1462 1.398 . S
C1462 H1450 0.950 . S
C1462 C1461 1.398 . S
C1462 C1463 1.391 . S
C1463 H1451 0.950 . S
C1463 C1459 1.393 . S
C1463 C1462 1.391 . S
H1464 C1472 0.950 . S
H1465 C1477 0.950 . S
H1466 C1474 0.950 . S
H1467 C1476 0.950 . S
H1468 C1478 0.950 . S
H1469 C1480 0.950 . S
H1470 C1482 0.950 . S
H1471 C1483 0.950 . S
C1472 H1464 0.950 . S
C1472 C1473 1.386 . S
C1472 C1474 1.391 . S
C1473 C1472 1.386 . S
C1473 C1477 1.393 . S
C1474 H1466 0.950 . S
C1474 C1472 1.391 . S
C1474 C1475 1.400 . S
C1475 C1474 1.400 . S
C1475 C1476 1.398 . S
C1475 C1481 1.491 . S
C1476 H1467 0.950 . S
C1476 C1475 1.398 . S
C1476 C1477 1.391 . S
C1477 H1465 0.950 . S
C1477 C1473 1.393 . S
C1477 C1476 1.391 . S
C1478 H1468 0.950 . S
C1478 C1479 1.386 . S
C1478 C1480 1.391 . S
C1479 C1478 1.386 . S
C1479 C1483 1.393 . S
C1480 H1469 0.950 . S
C1480 C1478 1.391 . S
C1480 C1481 1.400 . S
C1481 C1475 1.491 . S
C1481 C1480 1.400 . S
C1481 C1482 1.398 . S
C1482 H1470 0.950 . S
C1482 C1481 1.398 . S
C1482 C1483 1.391 . S
C1483 H1471 0.950 . S
C1483 C1479 1.393 . S
C1483 C1482 1.391 . S
H1484 C1492 0.950 . S
H1485 C1497 0.950 . S
H1486 C1494 0.950 . S
H1487 C1496 0.950 . S
H1488 C1498 0.950 . S
H1489 C1500 0.950 . S
H1490 C1502 0.950 . S
H1491 C1503 0.951 . S
C1492 H1484 0.950 . S
C1492 C1493 1.386 . S
C1492 C1494 1.391 . S
C1493 C1492 1.386 . S
C1493 C1497 1.393 . S
C1494 H1486 0.950 . S
C1494 C1492 1.391 . S
C1494 C1495 1.400 . S
C1495 C1494 1.400 . S
C1495 C1496 1.398 . S
C1495 C1501 1.491 . S
C1496 H1487 0.950 . S
C1496 C1495 1.398 . S
C1496 C1497 1.391 . S
C1497 H1485 0.950 . S
C1497 C1493 1.393 . S
C1497 C1496 1.391 . S
C1498 H1488 0.950 . S
C1498 C1499 1.386 . S
C1498 C1500 1.391 . S
C1499 C1498 1.386 . S
C1499 C1503 1.393 . S
C1500 H1489 0.950 . S
C1500 C1498 1.391 . S
C1500 C1501 1.400 1_455 S
C1501 C1495 1.491 . S
C1501 C1500 1.400 1_655 S
C1501 C1502 1.398 . S
C1502 H1490 0.950 . S
C1502 C1501 1.398 . S
C1502 C1503 1.391 1_655 S
C1503 H1491 0.951 . S
C1503 C1499 1.393 . S
C1503 C1502 1.391 1_455 S
H1504 C1512 0.950 . S
H1505 C1517 0.950 . S
H1506 C1514 0.950 . S
H1507 C1516 0.950 . S
H1508 C1518 0.950 . S
H1509 C1520 0.950 . S
H1510 C1522 0.950 . S
H1511 C1523 0.950 . S
C1512 H1504 0.950 . S
C1512 C1513 1.386 . S
C1512 C1514 1.391 . S
C1513 C1512 1.386 . S
C1513 C1517 1.393 . S
C1514 H1506 0.950 . S
C1514 C1512 1.391 . S
C1514 C1515 1.400 . S
C1515 C1514 1.400 . S
C1515 C1516 1.398 . S
C1515 C1521 1.491 . S
C1516 H1507 0.950 . S
C1516 C1515 1.398 . S
C1516 C1517 1.391 . S
C1517 H1505 0.950 . S
C1517 C1513 1.393 . S
C1517 C1516 1.391 . S
C1518 H1508 0.950 . S
C1518 C1519 1.386 . S
C1518 C1520 1.391 . S
C1519 C1518 1.386 . S
C1519 C1523 1.393 . S
C1520 H1509 0.950 . S
C1520 C1518 1.391 . S
C1520 C1521 1.400 . S
C1521 C1515 1.491 . S
C1521 C1520 1.400 . S
C1521 C1522 1.398 . S
C1522 H1510 0.950 . S
C1522 C1521 1.398 . S
C1522 C1523 1.391 . S
C1523 H1511 0.950 . S
C1523 C1519 1.393 . S
C1523 C1522 1.391 . S
H1524 C1532 0.950 . S
H1525 C1537 0.950 . S
H1526 C1534 0.951 . S
H1527 C1536 0.950 . S
H1528 C1538 0.950 . S
H1529 C1540 0.950 . S
H1530 C1542 0.950 . S
H1531 C1543 0.950 . S
C1532 H1524 0.950 . S
C1532 C1533 1.386 . S
C1532 C1534 1.379 1_655 S
C1533 C1532 1.386 . S
C1533 C1537 1.393 . S
C1534 H1526 0.951 . S
C1534 C1532 1.379 1_455 S
C1534 C1535 1.411 . S
C1535 C1534 1.411 . S
C1535 C1536 1.398 . S
C1535 C1541 1.491 . S
C1536 H1527 0.950 . S
C1536 C1535 1.398 . S
C1536 C1537 1.391 1_455 S
C1537 H1525 0.950 . S
C1537 C1533 1.393 . S
C1537 C1536 1.391 1_655 S
C1538 H1528 0.950 . S
C1538 C1539 1.386 . S
C1538 C1540 1.391 . S
C1539 C1538 1.386 . S
C1539 C1543 1.393 . S
C1540 H1529 0.950 . S
C1540 C1538 1.391 . S
C1540 C1541 1.400 . S
C1541 C1535 1.491 . S
C1541 C1540 1.400 . S
C1541 C1542 1.398 . S
C1542 H1530 0.950 . S
C1542 C1541 1.398 . S
C1542 C1543 1.391 . S
C1543 H1531 0.950 . S
C1543 C1539 1.393 . S
C1543 C1542 1.391 . S
H1544 C1552 0.950 . S
H1545 C1557 0.950 . S
H1546 C1554 0.950 . S
H1547 C1556 0.950 . S
H1548 C1558 0.950 . S
H1549 C1560 0.950 . S
H1550 C1562 0.950 . S
H1551 C1563 0.950 . S
C1552 H1544 0.950 . S
C1552 C1553 1.386 . S
C1552 C1554 1.391 . S
C1553 C1552 1.386 . S
C1553 C1557 1.393 . S
C1554 H1546 0.950 . S
C1554 C1552 1.391 . S
C1554 C1555 1.400 . S
C1555 C1554 1.400 . S
C1555 C1556 1.398 . S
C1555 C1561 1.491 . S
C1556 H1547 0.950 . S
C1556 C1555 1.398 . S
C1556 C1557 1.391 . S
C1557 H1545 0.950 . S
C1557 C1553 1.393 . S
C1557 C1556 1.391 . S
C1558 H1548 0.950 . S
C1558 C1559 1.386 . S
C1558 C1560 1.391 . S
C1559 C1558 1.386 . S
C1559 C1563 1.393 . S
C1560 H1549 0.950 . S
C1560 C1558 1.391 . S
C1560 C1561 1.400 . S
C1561 C1555 1.491 . S
C1561 C1560 1.400 . S
C1561 C1562 1.398 . S
C1562 H1550 0.950 . S
C1562 C1561 1.398 . S
C1562 C1563 1.391 . S
C1563 H1551 0.950 . S
C1563 C1559 1.393 . S
C1563 C1562 1.391 . S
H1564 C1572 0.950 . S
H1565 C1577 0.950 . S
H1566 C1574 0.950 . S
H1567 C1576 0.950 . S
H1568 C1578 0.950 . S
H1569 C1580 0.950 . S
H1570 C1582 0.950 . S
H1571 C1583 0.950 . S
C1572 H1564 0.950 . S
C1572 C1573 1.386 . S
C1572 C1574 1.391 . S
C1573 C1572 1.386 . S
C1573 C1577 1.393 . S
C1574 H1566 0.950 . S
C1574 C1572 1.391 . S
C1574 C1575 1.400 . S
C1575 C1574 1.400 . S
C1575 C1576 1.398 . S
C1575 C1581 1.491 . S
C1576 H1567 0.950 . S
C1576 C1575 1.398 . S
C1576 C1577 1.391 . S
C1577 H1565 0.950 . S
C1577 C1573 1.393 . S
C1577 C1576 1.391 . S
C1578 H1568 0.950 . S
C1578 C1579 1.386 . S
C1578 C1580 1.391 . S
C1579 C1578 1.386 . S
C1579 C1583 1.393 . S
C1580 H1569 0.950 . S
C1580 C1578 1.391 . S
C1580 C1581 1.400 . S
C1581 C1575 1.491 . S
C1581 C1580 1.400 . S
C1581 C1582 1.398 . S
C1582 H1570 0.950 . S
C1582 C1581 1.398 . S
C1582 C1583 1.391 . S
C1583 H1571 0.950 . S
C1583 C1579 1.393 . S
C1583 C1582 1.391 . S
H1584 C1592 0.950 . S
H1585 C1597 0.950 . S
H1586 C1594 0.950 . S
H1587 C1596 0.950 . S
H1588 C1598 0.950 . S
H1589 C1600 0.950 . S
H1590 C1602 0.950 . S
H1591 C1603 0.950 . S
C1592 H1584 0.950 . S
C1592 C1593 1.386 . S
C1592 C1594 1.391 . S
C1593 C1592 1.386 . S
C1593 C1597 1.393 . S
C1594 H1586 0.950 . S
C1594 C1592 1.391 . S
C1594 C1595 1.400 . S
C1595 C1594 1.400 . S
C1595 C1596 1.398 . S
C1595 C1601 1.491 . S
C1596 H1587 0.950 . S
C1596 C1595 1.398 . S
C1596 C1597 1.391 . S
C1597 H1585 0.950 . S
C1597 C1593 1.393 . S
C1597 C1596 1.391 . S
C1598 H1588 0.950 . S
C1598 C1599 1.386 . S
C1598 C1600 1.391 . S
C1599 C1598 1.386 . S
C1599 C1603 1.393 . S
C1600 H1589 0.950 . S
C1600 C1598 1.391 . S
C1600 C1601 1.400 . S
C1601 C1595 1.491 . S
C1601 C1600 1.400 . S
C1601 C1602 1.398 . S
C1602 H1590 0.950 . S
C1602 C1601 1.398 . S
C1602 C1603 1.391 . S
C1603 H1591 0.950 . S
C1603 C1599 1.393 . S
C1603 C1602 1.391 . S
H1604 C1612 0.950 . S
H1605 C1617 0.950 . S
H1606 C1614 0.950 . S
H1607 C1616 0.950 . S
H1608 C1618 0.950 . S
H1609 C1620 0.950 . S
H1610 C1622 0.950 . S
H1611 C1623 0.950 . S
C1612 H1604 0.950 . S
C1612 C1613 1.386 . S
C1612 C1614 1.391 . S
C1613 C1612 1.386 . S
C1613 C1617 1.393 . S
C1614 H1606 0.950 . S
C1614 C1612 1.391 . S
C1614 C1615 1.400 . S
C1615 C1614 1.400 . S
C1615 C1616 1.398 . S
C1615 C1621 1.491 . S
C1616 H1607 0.950 . S
C1616 C1615 1.398 . S
C1616 C1617 1.391 . S
C1617 H1605 0.950 . S
C1617 C1613 1.393 . S
C1617 C1616 1.391 . S
C1618 H1608 0.950 . S
C1618 C1619 1.386 . S
C1618 C1620 1.391 . S
C1619 C1618 1.386 . S
C1619 C1623 1.393 . S
C1620 H1609 0.950 . S
C1620 C1618 1.391 . S
C1620 C1621 1.400 . S
C1621 C1615 1.491 . S
C1621 C1620 1.400 . S
C1621 C1622 1.398 . S
C1622 H1610 0.950 . S
C1622 C1621 1.398 . S
C1622 C1623 1.391 . S
C1623 H1611 0.950 . S
C1623 C1619 1.393 . S
C1623 C1622 1.391 . S
H1624 C1632 0.950 . S
H1625 C1637 0.950 . S
H1626 C1634 0.950 . S
H1627 C1636 0.950 . S
H1628 C1638 0.950 . S
H1629 C1640 0.950 . S
H1630 C1642 0.950 . S
H1631 C1643 0.950 . S
C1632 H1624 0.950 . S
C1632 C1633 1.386 . S
C1632 C1634 1.391 . S
C1633 C1632 1.386 . S
C1633 C1637 1.393 . S
C1634 H1626 0.950 . S
C1634 C1632 1.391 . S
C1634 C1635 1.400 . S
C1635 C1634 1.400 . S
C1635 C1636 1.398 . S
C1635 C1641 1.491 . S
C1636 H1627 0.950 . S
C1636 C1635 1.398 . S
C1636 C1637 1.391 . S
C1637 H1625 0.950 . S
C1637 C1633 1.393 . S
C1637 C1636 1.391 . S
C1638 H1628 0.950 . S
C1638 C1639 1.386 . S
C1638 C1640 1.391 . S
C1639 C1638 1.386 . S
C1639 C1643 1.393 . S
C1640 H1629 0.950 . S
C1640 C1638 1.391 . S
C1640 C1641 1.400 . S
C1641 C1635 1.491 . S
C1641 C1640 1.400 . S
C1641 C1642 1.398 . S
C1642 H1630 0.950 . S
C1642 C1641 1.398 . S
C1642 C1643 1.391 . S
C1643 H1631 0.950 . S
C1643 C1639 1.393 . S
C1643 C1642 1.391 . S
H1644 C1652 0.950 . S
H1645 C1657 0.950 . S
H1646 C1654 0.950 . S
H1647 C1656 0.950 . S
H1648 C1658 0.950 . S
H1649 C1660 0.950 . S
H1650 C1662 0.950 . S
H1651 C1663 0.950 . S
C1652 H1644 0.950 . S
C1652 C1653 1.386 . S
C1652 C1654 1.391 . S
C1653 C1652 1.386 . S
C1653 C1657 1.393 . S
C1654 H1646 0.950 . S
C1654 C1652 1.391 . S
C1654 C1655 1.400 . S
C1655 C1654 1.400 . S
C1655 C1656 1.398 . S
C1655 C1661 1.491 . S
C1656 H1647 0.950 . S
C1656 C1655 1.398 . S
C1656 C1657 1.391 . S
C1657 H1645 0.950 . S
C1657 C1653 1.393 . S
C1657 C1656 1.391 . S
C1658 H1648 0.950 . S
C1658 C1659 1.386 1_455 S
C1658 C1660 1.391 . S
C1659 C1658 1.386 1_655 S
C1659 C1663 1.393 . S
C1660 H1649 0.950 . S
C1660 C1658 1.391 . S
C1660 C1661 1.400 . S
C1661 C1655 1.491 . S
C1661 C1660 1.400 . S
C1661 C1662 1.398 1_455 S
C1662 H1650 0.950 . S
C1662 C1661 1.398 1_655 S
C1662 C1663 1.391 . S
C1663 H1651 0.950 . S
C1663 C1659 1.393 . S
C1663 C1662 1.391 . S
H1664 C1672 0.950 . S
H1665 C1677 0.950 . S
H1666 C1674 0.950 . S
H1667 C1676 0.950 . S
H1668 C1678 0.950 . S
H1669 C1680 0.950 . S
H1670 C1682 0.950 . S
H1671 C1683 0.950 . S
C1672 H1664 0.950 . S
C1672 C1673 1.386 . S
C1672 C1674 1.391 . S
C1673 C1672 1.386 . S
C1673 C1677 1.393 . S
C1674 H1666 0.950 . S
C1674 C1672 1.391 . S
C1674 C1675 1.400 . S
C1675 C1674 1.400 . S
C1675 C1676 1.398 . S
C1675 C1681 1.491 . S
C1676 H1667 0.950 . S
C1676 C1675 1.398 . S
C1676 C1677 1.391 . S
C1677 H1665 0.950 . S
C1677 C1673 1.393 . S
C1677 C1676 1.391 . S
C1678 H1668 0.950 . S
C1678 C1679 1.386 . S
C1678 C1680 1.391 . S
C1679 C1678 1.386 . S
C1679 C1683 1.393 . S
C1680 H1669 0.950 . S
C1680 C1678 1.391 . S
C1680 C1681 1.400 . S
C1681 C1675 1.491 . S
C1681 C1680 1.400 . S
C1681 C1682 1.398 . S
C1682 H1670 0.950 . S
C1682 C1681 1.398 . S
C1682 C1683 1.391 . S
C1683 H1671 0.950 . S
C1683 C1679 1.393 . S
C1683 C1682 1.391 . S
H1684 C1692 0.950 . S
H1685 C1697 0.950 . S
H1686 C1694 0.950 . S
H1687 C1696 0.950 . S
H1688 C1698 0.950 . S
H1689 C1700 0.950 . S
H1690 C1702 0.950 . S
H1691 C1703 0.950 . S
C1692 H1684 0.950 . S
C1692 C1693 1.386 . S
C1692 C1694 1.391 . S
C1693 C1692 1.386 . S
C1693 C1697 1.393 . S
C1694 H1686 0.950 . S
C1694 C1692 1.391 . S
C1694 C1695 1.400 . S
C1695 C1694 1.400 . S
C1695 C1696 1.398 . S
C1695 C1701 1.491 . S
C1696 H1687 0.950 . S
C1696 C1695 1.398 . S
C1696 C1697 1.391 . S
C1697 H1685 0.950 . S
C1697 C1693 1.393 . S
C1697 C1696 1.391 . S
C1698 H1688 0.950 . S
C1698 C1699 1.386 . S
C1698 C1700 1.391 . S
C1699 C1698 1.386 . S
C1699 C1703 1.393 . S
C1700 H1689 0.950 . S
C1700 C1698 1.391 . S
C1700 C1701 1.400 . S
C1701 C1695 1.491 . S
C1701 C1700 1.400 . S
C1701 C1702 1.398 . S
C1702 H1690 0.950 . S
C1702 C1701 1.398 . S
C1702 C1703 1.391 . S
C1703 H1691 0.950 . S
C1703 C1699 1.393 . S
C1703 C1702 1.391 . S
H1704 C1712 0.950 . S
H1705 C1717 0.950 . S
H1706 C1714 0.950 . S
H1707 C1716 0.950 . S
H1708 C1718 0.950 . S
H1709 C1720 0.950 . S
H1710 C1722 0.950 . S
H1711 C1723 0.950 . S
C1712 H1704 0.950 . S
C1712 C1713 1.386 . S
C1712 C1714 1.391 . S
C1713 C1712 1.386 . S
C1713 C1717 1.393 . S
C1714 H1706 0.950 . S
C1714 C1712 1.391 . S
C1714 C1715 1.400 . S
C1715 C1714 1.400 . S
C1715 C1716 1.398 . S
C1715 C1721 1.491 . S
C1716 H1707 0.950 . S
C1716 C1715 1.398 . S
C1716 C1717 1.391 . S
C1717 H1705 0.950 . S
C1717 C1713 1.393 . S
C1717 C1716 1.391 . S
C1718 H1708 0.950 . S
C1718 C1719 1.386 . S
C1718 C1720 1.391 . S
C1719 C1718 1.386 . S
C1719 C1723 1.393 . S
C1720 H1709 0.950 . S
C1720 C1718 1.391 . S
C1720 C1721 1.400 . S
C1721 C1715 1.491 . S
C1721 C1720 1.400 . S
C1721 C1722 1.398 . S
C1722 H1710 0.950 . S
C1722 C1721 1.398 . S
C1722 C1723 1.391 . S
C1723 H1711 0.950 . S
C1723 C1719 1.393 . S
C1723 C1722 1.391 . S
H1724 C1732 0.948 1_455 S
H1725 C1737 0.950 . S
H1726 C1734 0.950 . S
H1727 C1736 0.950 . S
H1728 C1738 0.950 . S
H1729 C1740 0.950 . S
H1730 C1742 0.950 . S
H1731 C1743 0.950 . S
C1732 H1724 0.948 1_655 S
C1732 C1733 1.396 . S
C1732 C1734 1.382 1_655 S
C1733 C1732 1.396 . S
C1733 C1737 1.393 . S
C1734 H1726 0.950 . S
C1734 C1732 1.382 1_455 S
C1734 C1735 1.400 . S
C1735 C1734 1.400 . S
C1735 C1736 1.398 1_455 S
C1735 C1741 1.491 . S
C1736 H1727 0.950 . S
C1736 C1735 1.398 1_655 S
C1736 C1737 1.391 . S
C1737 H1725 0.950 . S
C1737 C1733 1.393 . S
C1737 C1736 1.391 . S
C1738 H1728 0.950 . S
C1738 C1739 1.386 . S
C1738 C1740 1.391 . S
C1739 C1738 1.386 . S
C1739 C1743 1.393 . S
C1740 H1729 0.950 . S
C1740 C1738 1.391 . S
C1740 C1741 1.400 . S
C1741 C1735 1.491 . S
C1741 C1740 1.400 . S
C1741 C1742 1.398 . S
C1742 H1730 0.950 . S
C1742 C1741 1.398 . S
C1742 C1743 1.391 . S
C1743 H1731 0.950 . S
C1743 C1739 1.393 . S
C1743 C1742 1.391 . S
H1744 C1752 0.950 . S
H1745 C1757 0.950 . S
H1746 C1754 0.950 . S
H1747 C1756 0.950 . S
H1748 C1758 0.950 . S
H1749 C1760 0.950 . S
H1750 C1762 0.950 . S
H1751 C1763 0.950 . S
C1752 H1744 0.950 . S
C1752 C1753 1.386 . S
C1752 C1754 1.391 . S
C1753 C1752 1.386 . S
C1753 C1757 1.393 . S
C1754 H1746 0.950 . S
C1754 C1752 1.391 . S
C1754 C1755 1.400 . S
C1755 C1754 1.400 . S
C1755 C1756 1.398 . S
C1755 C1761 1.491 . S
C1756 H1747 0.950 . S
C1756 C1755 1.398 . S
C1756 C1757 1.391 . S
C1757 H1745 0.950 . S
C1757 C1753 1.393 . S
C1757 C1756 1.391 . S
C1758 H1748 0.950 . S
C1758 C1759 1.386 . S
C1758 C1760 1.391 . S
C1759 C1758 1.386 . S
C1759 C1763 1.393 . S
C1760 H1749 0.950 . S
C1760 C1758 1.391 . S
C1760 C1761 1.400 . S
C1761 C1755 1.491 . S
C1761 C1760 1.400 . S
C1761 C1762 1.398 . S
C1762 H1750 0.950 . S
C1762 C1761 1.398 . S
C1762 C1763 1.391 . S
C1763 H1751 0.950 . S
C1763 C1759 1.393 . S
C1763 C1762 1.391 . S
H1764 C1772 0.950 . S
H1765 C1777 0.950 . S
H1766 C1774 0.950 . S
H1767 C1776 0.950 . S
H1768 C1778 0.950 . S
H1769 C1780 0.950 . S
H1770 C1782 0.950 . S
H1771 C1783 0.950 . S
C1772 H1764 0.950 . S
C1772 C1773 1.386 1_455 S
C1772 C1774 1.391 . S
C1773 C1772 1.386 1_655 S
C1773 C1777 1.393 . S
C1774 H1766 0.950 . S
C1774 C1772 1.391 . S
C1774 C1775 1.400 . S
C1775 C1774 1.400 . S
C1775 C1776 1.398 1_455 S
C1775 C1781 1.491 . S
C1776 H1767 0.950 . S
C1776 C1775 1.398 1_655 S
C1776 C1777 1.391 . S
C1777 H1765 0.950 . S
C1777 C1773 1.393 . S
C1777 C1776 1.391 . S
C1778 H1768 0.950 . S
C1778 C1779 1.386 . S
C1778 C1780 1.391 . S
C1779 C1778 1.386 . S
C1779 C1783 1.393 . S
C1780 H1769 0.950 . S
C1780 C1778 1.391 . S
C1780 C1781 1.400 . S
C1781 C1775 1.491 . S
C1781 C1780 1.400 . S
C1781 C1782 1.398 . S
C1782 H1770 0.950 . S
C1782 C1781 1.398 . S
C1782 C1783 1.391 . S
C1783 H1771 0.950 . S
C1783 C1779 1.393 . S
C1783 C1782 1.391 . S
H1784 C1792 0.950 . S
H1785 C1797 0.950 . S
H1786 C1794 0.950 . S
H1787 C1796 0.950 . S
H1788 C1798 0.950 . S
H1789 C1800 0.950 . S
H1790 C1802 0.950 . S
H1791 C1803 0.950 . S
C1792 H1784 0.950 . S
C1792 C1793 1.386 . S
C1792 C1794 1.391 . S
C1793 C1792 1.386 . S
C1793 C1797 1.393 . S
C1794 H1786 0.950 . S
C1794 C1792 1.391 . S
C1794 C1795 1.400 . S
C1795 C1794 1.400 . S
C1795 C1796 1.398 . S
C1795 C1801 1.491 . S
C1796 H1787 0.950 . S
C1796 C1795 1.398 . S
C1796 C1797 1.391 . S
C1797 H1785 0.950 . S
C1797 C1793 1.393 . S
C1797 C1796 1.391 . S
C1798 H1788 0.950 . S
C1798 C1799 1.386 . S
C1798 C1800 1.391 . S
C1799 C1798 1.386 . S
C1799 C1803 1.393 . S
C1800 H1789 0.950 . S
C1800 C1798 1.391 . S
C1800 C1801 1.400 . S
C1801 C1795 1.491 . S
C1801 C1800 1.400 . S
C1801 C1802 1.398 . S
C1802 H1790 0.950 . S
C1802 C1801 1.398 . S
C1802 C1803 1.391 . S
C1803 H1791 0.950 . S
C1803 C1799 1.393 . S
C1803 C1802 1.391 . S
H1804 C1812 0.950 . S
H1805 C1817 0.950 . S
H1806 C1814 0.950 . S
H1807 C1816 0.950 . S
H1808 C1818 0.950 . S
H1809 C1820 0.950 . S
H1810 C1822 0.950 . S
H1811 C1823 0.950 . S
C1812 H1804 0.950 . S
C1812 C1813 1.386 . S
C1812 C1814 1.391 . S
C1813 C1812 1.386 . S
C1813 C1817 1.393 . S
C1814 H1806 0.950 . S
C1814 C1812 1.391 . S
C1814 C1815 1.400 . S
C1815 C1814 1.400 . S
C1815 C1816 1.398 . S
C1815 C1821 1.491 . S
C1816 H1807 0.950 . S
C1816 C1815 1.398 . S
C1816 C1817 1.391 . S
C1817 H1805 0.950 . S
C1817 C1813 1.393 . S
C1817 C1816 1.391 . S
C1818 H1808 0.950 . S
C1818 C1819 1.386 . S
C1818 C1820 1.391 . S
C1819 C1818 1.386 . S
C1819 C1823 1.393 . S
C1820 H1809 0.950 . S
C1820 C1818 1.391 . S
C1820 C1821 1.400 . S
C1821 C1815 1.491 . S
C1821 C1820 1.400 . S
C1821 C1822 1.398 . S
C1822 H1810 0.950 . S
C1822 C1821 1.398 . S
C1822 C1823 1.391 . S
C1823 H1811 0.950 . S
C1823 C1819 1.393 . S
C1823 C1822 1.391 . S
H1824 C1832 0.950 . S
H1825 C1837 0.950 . S
H1826 C1834 0.950 . S
H1827 C1836 0.950 . S
H1828 C1838 0.950 . S
H1829 C1840 0.950 . S
H1830 C1842 0.950 . S
H1831 C1843 0.950 . S
C1832 H1824 0.950 . S
C1832 C1833 1.386 . S
C1832 C1834 1.391 . S
C1833 C1832 1.386 . S
C1833 C1837 1.393 . S
C1834 H1826 0.950 . S
C1834 C1832 1.391 . S
C1834 C1835 1.400 . S
C1835 C1834 1.400 . S
C1835 C1836 1.398 . S
C1835 C1841 1.491 . S
C1836 H1827 0.950 . S
C1836 C1835 1.398 . S
C1836 C1837 1.391 . S
C1837 H1825 0.950 . S
C1837 C1833 1.393 . S
C1837 C1836 1.391 . S
C1838 H1828 0.950 . S
C1838 C1839 1.386 . S
C1838 C1840 1.391 . S
C1839 C1838 1.386 . S
C1839 C1843 1.393 . S
C1840 H1829 0.950 . S
C1840 C1838 1.391 . S
C1840 C1841 1.400 . S
C1841 C1835 1.491 . S
C1841 C1840 1.400 . S
C1841 C1842 1.398 . S
C1842 H1830 0.950 . S
C1842 C1841 1.398 . S
C1842 C1843 1.391 . S
C1843 H1831 0.950 . S
C1843 C1839 1.393 . S
C1843 C1842 1.391 . S
H1844 C1852 0.950 . S
H1845 C1857 0.950 . S
H1846 C1854 0.950 . S
H1847 C1856 0.950 . S
H1848 C1858 0.950 . S
H1849 C1860 0.950 . S
H1850 C1862 0.950 . S
H1851 C1863 0.950 . S
C1852 H1844 0.950 . S
C1852 C1853 1.386 . S
C1852 C1854 1.391 . S
C1853 C1852 1.386 . S
C1853 C1857 1.393 . S
C1854 H1846 0.950 . S
C1854 C1852 1.391 . S
C1854 C1855 1.400 . S
C1855 C1854 1.400 . S
C1855 C1856 1.398 . S
C1855 C1861 1.491 . S
C1856 H1847 0.950 . S
C1856 C1855 1.398 . S
C1856 C1857 1.391 . S
C1857 H1845 0.950 . S
C1857 C1853 1.393 . S
C1857 C1856 1.391 . S
C1858 H1848 0.950 . S
C1858 C1859 1.386 . S
C1858 C1860 1.391 . S
C1859 C1858 1.386 . S
C1859 C1863 1.393 . S
C1860 H1849 0.950 . S
C1860 C1858 1.391 . S
C1860 C1861 1.400 . S
C1861 C1855 1.491 . S
C1861 C1860 1.400 . S
C1861 C1862 1.398 . S
C1862 H1850 0.950 . S
C1862 C1861 1.398 . S
C1862 C1863 1.391 . S
C1863 H1851 0.950 . S
C1863 C1859 1.393 . S
C1863 C1862 1.391 . S
H1864 C1872 0.950 . S
H1865 C1877 0.950 . S
H1866 C1874 0.950 . S
H1867 C1876 0.950 . S
H1868 C1878 0.950 . S
H1869 C1880 0.950 . S
H1870 C1882 0.950 . S
H1871 C1883 0.950 . S
C1872 H1864 0.950 . S
C1872 C1873 1.386 . S
C1872 C1874 1.391 . S
C1873 C1872 1.386 . S
C1873 C1877 1.393 . S
C1874 H1866 0.950 . S
C1874 C1872 1.391 . S
C1874 C1875 1.400 . S
C1875 C1874 1.400 . S
C1875 C1876 1.398 . S
C1875 C1881 1.491 . S
C1876 H1867 0.950 . S
C1876 C1875 1.398 . S
C1876 C1877 1.391 . S
C1877 H1865 0.950 . S
C1877 C1873 1.393 . S
C1877 C1876 1.391 . S
C1878 H1868 0.950 . S
C1878 C1879 1.386 . S
C1878 C1880 1.391 . S
C1879 C1878 1.386 . S
C1879 C1883 1.393 . S
C1880 H1869 0.950 . S
C1880 C1878 1.391 . S
C1880 C1881 1.400 . S
C1881 C1875 1.491 . S
C1881 C1880 1.400 . S
C1881 C1882 1.398 . S
C1882 H1870 0.950 . S
C1882 C1881 1.398 . S
C1882 C1883 1.391 . S
C1883 H1871 0.950 . S
C1883 C1879 1.393 . S
C1883 C1882 1.391 . S
H1884 C1892 0.950 . S
H1885 C1897 0.950 . S
H1886 C1894 0.950 . S
H1887 C1896 0.950 . S
H1888 C1898 0.950 . S
H1889 C1900 0.950 . S
H1890 C1902 0.950 . S
H1891 C1903 0.949 1_655 S
C1892 H1884 0.950 . S
C1892 C1893 1.386 . S
C1892 C1894 1.391 . S
C1893 C1892 1.386 . S
C1893 C1897 1.393 . S
C1894 H1886 0.950 . S
C1894 C1892 1.391 . S
C1894 C1895 1.400 . S
C1895 C1894 1.400 . S
C1895 C1896 1.398 . S
C1895 C1901 1.491 . S
C1896 H1887 0.950 . S
C1896 C1895 1.398 . S
C1896 C1897 1.391 . S
C1897 H1885 0.950 . S
C1897 C1893 1.393 . S
C1897 C1896 1.391 . S
C1898 H1888 0.950 . S
C1898 C1899 1.386 . S
C1898 C1900 1.391 . S
C1899 C1898 1.386 . S
C1899 C1903 1.409 . S
C1900 H1889 0.950 . S
C1900 C1898 1.391 . S
C1900 C1901 1.400 1_455 S
C1901 C1895 1.491 . S
C1901 C1900 1.400 1_655 S
C1901 C1902 1.398 . S
C1902 H1890 0.950 . S
C1902 C1901 1.398 . S
C1902 C1903 1.375 1_655 S
C1903 H1891 0.949 1_455 S
C1903 C1899 1.409 . S
C1903 C1902 1.375 1_455 S
H1904 C1912 0.950 . S
H1905 C1917 0.950 . S
H1906 C1914 0.950 . S
H1907 C1916 0.950 . S
H1908 C1918 0.950 . S
H1909 C1920 0.950 . S
H1910 C1922 0.950 . S
H1911 C1923 0.950 . S
C1912 H1904 0.950 . S
C1912 C1913 1.386 . S
C1912 C1914 1.391 . S
C1913 C1912 1.386 . S
C1913 C1917 1.393 . S
C1914 H1906 0.950 . S
C1914 C1912 1.391 . S
C1914 C1915 1.400 . S
C1915 C1914 1.400 . S
C1915 C1916 1.398 . S
C1915 C1921 1.491 . S
C1916 H1907 0.950 . S
C1916 C1915 1.398 . S
C1916 C1917 1.391 . S
C1917 H1905 0.950 . S
C1917 C1913 1.393 . S
C1917 C1916 1.391 . S
C1918 H1908 0.950 . S
C1918 C1919 1.386 . S
C1918 C1920 1.391 . S
C1919 C1918 1.386 . S
C1919 C1923 1.393 . S
C1920 H1909 0.950 . S
C1920 C1918 1.391 . S
C1920 C1921 1.400 . S
C1921 C1915 1.491 . S
C1921 C1920 1.400 . S
C1921 C1922 1.398 . S
C1922 H1910 0.950 . S
C1922 C1921 1.398 . S
C1922 C1923 1.391 . S
C1923 H1911 0.950 . S
C1923 C1919 1.393 . S
C1923 C1922 1.391 . S
H1924 C1932 0.950 . S
H1925 C1937 0.950 . S
H1926 C1934 0.950 . S
H1927 C1936 0.950 . S
H1928 C1938 0.948 1_655 S
H1929 C1940 0.950 . S
H1930 C1942 0.950 . S
H1931 C1943 0.950 . S
C1932 H1924 0.950 . S
C1932 C1933 1.386 . S
C1932 C1934 1.391 . S
C1933 C1932 1.386 . S
C1933 C1937 1.393 . S
C1934 H1926 0.950 . S
C1934 C1932 1.391 . S
C1934 C1935 1.400 . S
C1935 C1934 1.400 . S
C1935 C1936 1.398 . S
C1935 C1941 1.491 . S
C1936 H1927 0.950 . S
C1936 C1935 1.398 . S
C1936 C1937 1.391 . S
C1937 H1925 0.950 . S
C1937 C1933 1.393 . S
C1937 C1936 1.391 . S
C1938 H1928 0.948 1_455 S
C1938 C1939 1.408 . S
C1938 C1940 1.371 1_455 S
C1939 C1938 1.408 . S
C1939 C1943 1.393 . S
C1940 H1929 0.950 . S
C1940 C1938 1.371 1_655 S
C1940 C1941 1.400 . S
C1941 C1935 1.491 . S
C1941 C1940 1.400 . S
C1941 C1942 1.398 1_655 S
C1942 H1930 0.950 . S
C1942 C1941 1.398 1_455 S
C1942 C1943 1.391 . S
C1943 H1931 0.950 . S
C1943 C1939 1.393 . S
C1943 C1942 1.391 . S
H1944 C1952 0.950 . S
H1945 C1957 0.950 . S
H1946 C1954 0.950 . S
H1947 C1956 0.950 . S
H1948 C1958 0.950 . S
H1949 C1960 0.950 . S
H1950 C1962 0.950 . S
H1951 C1963 0.950 . S
C1952 H1944 0.950 . S
C1952 C1953 1.386 . S
C1952 C1954 1.391 . S
C1953 C1952 1.386 . S
C1953 C1957 1.393 . S
C1954 H1946 0.950 . S
C1954 C1952 1.391 . S
C1954 C1955 1.400 . S
C1955 C1954 1.400 . S
C1955 C1956 1.398 . S
C1955 C1961 1.491 . S
C1956 H1947 0.950 . S
C1956 C1955 1.398 . S
C1956 C1957 1.391 . S
C1957 H1945 0.950 . S
C1957 C1953 1.393 . S
C1957 C1956 1.391 . S
C1958 H1948 0.950 . S
C1958 C1959 1.386 . S
C1958 C1960 1.391 . S
C1959 C1958 1.386 . S
C1959 C1963 1.393 . S
C1960 H1949 0.950 . S
C1960 C1958 1.391 . S
C1960 C1961 1.400 . S
C1961 C1955 1.491 . S
C1961 C1960 1.400 . S
C1961 C1962 1.398 . S
C1962 H1950 0.950 . S
C1962 C1961 1.398 . S
C1962 C1963 1.391 . S
C1963 H1951 0.950 . S
C1963 C1959 1.393 . S
C1963 C1962 1.391 . S
H1964 C1972 0.950 . S
H1965 C1977 0.950 . S
H1966 C1974 0.950 . S
H1967 C1976 0.950 . S
H1968 C1978 0.950 . S
H1969 C1980 0.950 . S
H1970 C1982 0.950 . S
H1971 C1983 0.950 . S
C1972 H1964 0.950 . S
C1972 C1973 1.386 . S
C1972 C1974 1.391 . S
C1973 C1972 1.386 . S
C1973 C1977 1.393 . S
C1974 H1966 0.950 . S
C1974 C1972 1.391 . S
C1974 C1975 1.400 . S
C1975 C1974 1.400 . S
C1975 C1976 1.398 . S
C1975 C1981 1.491 . S
C1976 H1967 0.950 . S
C1976 C1975 1.398 . S
C1976 C1977 1.391 . S
C1977 H1965 0.950 . S
C1977 C1973 1.393 . S
C1977 C1976 1.391 . S
C1978 H1968 0.950 . S
C1978 C1979 1.386 . S
C1978 C1980 1.391 . S
C1979 C1978 1.386 . S
C1979 C1983 1.393 . S
C1980 H1969 0.950 . S
C1980 C1978 1.391 . S
C1980 C1981 1.400 . S
C1981 C1975 1.491 . S
C1981 C1980 1.400 . S
C1981 C1982 1.398 . S
C1982 H1970 0.950 . S
C1982 C1981 1.398 . S
C1982 C1983 1.391 . S
C1983 H1971 0.950 . S
C1983 C1979 1.393 . S
C1983 C1982 1.391 . S
H1984 C1992 0.950 . S
H1985 C1997 0.950 . S
H1986 C1994 0.950 . S
H1987 C1996 0.950 1_655 S
H1988 C1998 0.950 . S
H1989 C2000 0.950 . S
H1990 C2002 0.950 1_455 S
H1991 C2003 0.950 . S
C1992 H1984 0.950 . S
C1992 C1993 1.386 . S
C1992 C1994 1.391 . S
C1993 C1992 1.386 . S
C1993 C1997 1.393 . S
C1994 H1986 0.950 . S
C1994 C1992 1.391 . S
C1994 C1995 1.400 . S
C1995 C1994 1.400 . S
C1995 C1996 1.398 . S
C1995 C2001 1.491 1_455 S
C1996 H1987 0.950 1_455 S
C1996 C1995 1.398 . S
C1996 C1997 1.391 . S
C1997 H1985 0.950 . S
C1997 C1993 1.393 . S
C1997 C1996 1.391 . S
C1998 H1988 0.950 . S
C1998 C1999 1.386 . S
C1998 C2000 1.391 . S
C1999 C1998 1.386 . S
C1999 C2003 1.393 . S
C2000 H1989 0.950 . S
C2000 C1998 1.391 . S
C2000 C2001 1.400 . S
C2001 C1995 1.491 1_655 S
C2001 C2000 1.400 . S
C2001 C2002 1.398 . S
C2002 H1990 0.950 1_655 S
C2002 C2001 1.398 . S
C2002 C2003 1.391 . S
C2003 H1991 0.950 . S
C2003 C1999 1.393 . S
C2003 C2002 1.391 . S
H2004 C2012 0.950 . S
H2005 C2017 0.950 . S
H2006 C2014 0.921 1_655 S
H2007 C2016 0.950 . S
H2008 C2018 0.950 . S
H2009 C2020 0.921 1_455 S
H2010 C2022 0.950 . S
H2011 C2023 0.950 . S
C2012 H2004 0.950 . S
C2012 C2013 1.386 . S
C2012 C2014 1.410 . S
C2013 C2012 1.386 . S
C2013 C2017 1.393 . S
C2014 H2006 0.921 1_455 S
C2014 C2012 1.410 . S
C2014 C2015 1.410 . S
C2015 C2014 1.410 . S
C2015 C2016 1.398 . S
C2015 C2021 1.491 1_455 S
C2016 H2007 0.950 . S
C2016 C2015 1.398 . S
C2016 C2017 1.391 . S
C2017 H2005 0.950 . S
C2017 C2013 1.393 . S
C2017 C2016 1.391 . S
C2018 H2008 0.950 . S
C2018 C2019 1.386 . S
C2018 C2020 1.410 . S
C2019 C2018 1.386 . S
C2019 C2023 1.393 . S
C2020 H2009 0.921 1_655 S
C2020 C2018 1.410 . S
C2020 C2021 1.410 . S
C2021 C2015 1.491 1_655 S
C2021 C2020 1.410 . S
C2021 C2022 1.398 . S
C2022 H2010 0.950 . S
C2022 C2021 1.398 . S
C2022 C2023 1.391 . S
C2023 H2011 0.950 . S
C2023 C2019 1.393 . S
C2023 C2022 1.391 . S
H2024 C2032 0.950 . S
H2025 C2037 0.950 . S
H2026 C2034 0.950 . S
H2027 C2036 0.950 . S
H2028 C2038 0.950 . S
H2029 C2040 0.950 . S
H2030 C2042 0.950 . S
H2031 C2043 0.950 . S
C2032 H2024 0.950 . S
C2032 C2033 1.386 . S
C2032 C2034 1.391 . S
C2033 C2032 1.386 . S
C2033 C2037 1.393 . S
C2034 H2026 0.950 . S
C2034 C2032 1.391 . S
C2034 C2035 1.400 . S
C2035 C2034 1.400 . S
C2035 C2036 1.398 . S
C2035 C2041 1.491 . S
C2036 H2027 0.950 . S
C2036 C2035 1.398 . S
C2036 C2037 1.391 . S
C2037 H2025 0.950 . S
C2037 C2033 1.393 . S
C2037 C2036 1.391 . S
C2038 H2028 0.950 . S
C2038 C2039 1.386 . S
C2038 C2040 1.391 . S
C2039 C2038 1.386 . S
C2039 C2043 1.393 . S
C2040 H2029 0.950 . S
C2040 C2038 1.391 . S
C2040 C2041 1.400 . S
C2041 C2035 1.491 . S
C2041 C2040 1.400 . S
C2041 C2042 1.398 . S
C2042 H2030 0.950 . S
C2042 C2041 1.398 . S
C2042 C2043 1.391 . S
C2043 H2031 0.950 . S
C2043 C2039 1.393 . S
C2043 C2042 1.391 . S
H2044 C2052 0.950 . S
H2045 C2057 0.950 . S
H2046 C2054 0.950 . S
H2047 C2056 0.950 . S
H2048 C2058 0.950 . S
H2049 C2060 0.950 . S
H2050 C2062 0.950 . S
H2051 C2063 0.950 . S
C2052 H2044 0.950 . S
C2052 C2053 1.386 . S
C2052 C2054 1.391 . S
C2053 C2052 1.386 . S
C2053 C2057 1.393 1_554 S
C2054 H2046 0.950 . S
C2054 C2052 1.391 . S
C2054 C2055 1.400 . S
C2055 C2054 1.400 . S
C2055 C2056 1.398 1_554 S
C2055 C2061 1.491 . S
C2056 H2047 0.950 . S
C2056 C2055 1.398 1_556 S
C2056 C2057 1.391 . S
C2057 H2045 0.950 . S
C2057 C2053 1.393 1_556 S
C2057 C2056 1.391 . S
C2058 H2048 0.950 . S
C2058 C2059 1.386 1_556 S
C2058 C2060 1.391 . S
C2059 C2058 1.386 1_554 S
C2059 C2063 1.393 . S
C2060 H2049 0.950 . S
C2060 C2058 1.391 . S
C2060 C2061 1.400 1_556 S
C2061 C2055 1.491 . S
C2061 C2060 1.400 1_554 S
C2061 C2062 1.398 . S
C2062 H2050 0.950 . S
C2062 C2061 1.398 . S
C2062 C2063 1.391 . S
C2063 H2051 0.950 . S
C2063 C2059 1.393 . S
C2063 C2062 1.391 . S
H2064 C2072 0.950 . S
H2065 C2077 0.950 . S
H2066 C2074 0.950 1_455 S
H2067 C2076 0.950 . S
H2068 C2078 0.950 . S
H2069 C2080 0.950 1_655 S
H2070 C2082 0.950 . S
H2071 C2083 0.950 . S
C2072 H2064 0.950 . S
C2072 C2073 1.386 . S
C2072 C2074 1.391 . S
C2073 C2072 1.386 . S
C2073 C2077 1.393 . S
C2074 H2066 0.950 1_655 S
C2074 C2072 1.391 . S
C2074 C2075 1.400 . S
C2075 C2074 1.400 . S
C2075 C2076 1.398 . S
C2075 C2081 1.491 1_655 S
C2076 H2067 0.950 . S
C2076 C2075 1.398 . S
C2076 C2077 1.391 . S
C2077 H2065 0.950 . S
C2077 C2073 1.393 . S
C2077 C2076 1.391 . S
C2078 H2068 0.950 . S
C2078 C2079 1.386 . S
C2078 C2080 1.391 . S
C2079 C2078 1.386 . S
C2079 C2083 1.393 . S
C2080 H2069 0.950 1_455 S
C2080 C2078 1.391 . S
C2080 C2081 1.400 . S
C2081 C2075 1.491 1_455 S
C2081 C2080 1.400 . S
C2081 C2082 1.398 . S
C2082 H2070 0.950 . S
C2082 C2081 1.398 . S
C2082 C2083 1.391 . S
C2083 H2071 0.950 . S
C2083 C2079 1.393 . S
C2083 C2082 1.391 . S
H2084 C2092 0.950 . S
H2085 C2097 0.950 . S
H2086 C2094 0.950 . S
H2087 C2096 0.950 . S
H2088 C2098 0.950 . S
H2089 C2100 0.950 . S
H2090 C2102 0.950 . S
H2091 C2103 0.950 . S
C2092 H2084 0.950 . S
C2092 C2093 1.386 . S
C2092 C2094 1.391 . S
C2093 C2092 1.386 . S
C2093 C2097 1.393 . S
C2094 H2086 0.950 . S
C2094 C2092 1.391 . S
C2094 C2095 1.400 . S
C2095 C2094 1.400 . S
C2095 C2096 1.398 . S
C2095 C2101 1.491 . S
C2096 H2087 0.950 . S
C2096 C2095 1.398 . S
C2096 C2097 1.391 . S
C2097 H2085 0.950 . S
C2097 C2093 1.393 . S
C2097 C2096 1.391 . S
C2098 H2088 0.950 . S
C2098 C2099 1.386 . S
C2098 C2100 1.391 . S
C2099 C2098 1.386 . S
C2099 C2103 1.393 . S
C2100 H2089 0.950 . S
C2100 C2098 1.391 . S
C2100 C2101 1.400 . S
C2101 C2095 1.491 . S
C2101 C2100 1.400 . S
C2101 C2102 1.398 . S
C2102 H2090 0.950 . S
C2102 C2101 1.398 . S
C2102 C2103 1.391 . S
C2103 H2091 0.950 . S
C2103 C2099 1.393 . S
C2103 C2102 1.391 . S
H2104 C2112 0.950 . S
H2105 C2117 0.950 . S
H2106 C2114 0.950 . S
H2107 C2116 0.950 . S
H2108 C2118 0.950 . S
H2109 C2120 0.950 . S
H2110 C2122 0.950 . S
H2111 C2123 0.950 . S
C2112 H2104 0.950 . S
C2112 C2113 1.386 . S
C2112 C2114 1.391 . S
C2113 C2112 1.386 . S
C2113 C2117 1.393 . S
C2114 H2106 0.950 . S
C2114 C2112 1.391 . S
C2114 C2115 1.400 . S
C2115 C2114 1.400 . S
C2115 C2116 1.398 . S
C2115 C2121 1.491 . S
C2116 H2107 0.950 . S
C2116 C2115 1.398 . S
C2116 C2117 1.391 . S
C2117 H2105 0.950 . S
C2117 C2113 1.393 . S
C2117 C2116 1.391 . S
C2118 H2108 0.950 . S
C2118 C2119 1.386 . S
C2118 C2120 1.391 . S
C2119 C2118 1.386 . S
C2119 C2123 1.393 . S
C2120 H2109 0.950 . S
C2120 C2118 1.391 . S
C2120 C2121 1.400 . S
C2121 C2115 1.491 . S
C2121 C2120 1.400 . S
C2121 C2122 1.398 . S
C2122 H2110 0.950 . S
C2122 C2121 1.398 . S
C2122 C2123 1.391 . S
C2123 H2111 0.950 . S
C2123 C2119 1.393 . S
C2123 C2122 1.391 . S
H2124 C2132 0.950 . S
H2125 C2137 0.950 . S
H2126 C2134 0.950 1_455 S
H2127 C2136 0.950 . S
H2128 C2138 0.950 . S
H2129 C2140 0.950 1_655 S
H2130 C2142 0.950 . S
H2131 C2143 0.950 . S
C2132 H2124 0.950 . S
C2132 C2133 1.386 . S
C2132 C2134 1.391 . S
C2133 C2132 1.386 . S
C2133 C2137 1.393 1_556 S
C2134 H2126 0.950 1_655 S
C2134 C2132 1.391 . S
C2134 C2135 1.400 . S
C2135 C2134 1.400 . S
C2135 C2136 1.398 1_556 S
C2135 C2141 1.491 1_655 S
C2136 H2127 0.950 . S
C2136 C2135 1.398 1_554 S
C2136 C2137 1.391 . S
C2137 H2125 0.950 . S
C2137 C2133 1.393 1_554 S
C2137 C2136 1.391 . S
C2138 H2128 0.950 . S
C2138 C2139 1.386 1_554 S
C2138 C2140 1.391 . S
C2139 C2138 1.386 1_556 S
C2139 C2143 1.393 . S
C2140 H2129 0.950 1_455 S
C2140 C2138 1.391 . S
C2140 C2141 1.400 1_554 S
C2141 C2135 1.491 1_455 S
C2141 C2140 1.400 1_556 S
C2141 C2142 1.398 . S
C2142 H2130 0.950 . S
C2142 C2141 1.398 . S
C2142 C2143 1.391 . S
C2143 H2131 0.950 . S
C2143 C2139 1.393 . S
C2143 C2142 1.391 . S
H2144 C2152 0.950 . S
H2145 C2157 0.950 . S
H2146 C2154 0.950 . S
H2147 C2156 0.977 . S
H2148 C2158 0.950 . S
H2149 C2160 0.950 . S
H2150 C2162 0.977 . S
H2151 C2163 0.950 . S
C2152 H2144 0.950 . S
C2152 C2153 1.386 . S
C2152 C2154 1.391 . S
C2153 C2152 1.386 . S
C2153 C2157 1.393 . S
C2154 H2146 0.950 . S
C2154 C2152 1.391 . S
C2154 C2155 1.400 . S
C2155 C2154 1.400 . S
C2155 C2156 1.398 . S
C2155 C2161 1.491 1_455 S
C2156 H2147 0.977 . S
C2156 C2155 1.398 . S
C2156 C2157 1.391 . S
C2157 H2145 0.950 . S
C2157 C2153 1.393 . S
C2157 C2156 1.391 . S
C2158 H2148 0.950 . S
C2158 C2159 1.386 . S
C2158 C2160 1.391 . S
C2159 C2158 1.386 . S
C2159 C2163 1.393 . S
C2160 H2149 0.950 . S
C2160 C2158 1.391 . S
C2160 C2161 1.400 . S
C2161 C2155 1.491 1_655 S
C2161 C2160 1.400 . S
C2161 C2162 1.398 . S
C2162 H2150 0.977 . S
C2162 C2161 1.398 . S
C2162 C2163 1.391 . S
C2163 H2151 0.950 . S
C2163 C2159 1.393 . S
C2163 C2162 1.391 . S
H2164 C2172 0.950 . S
H2165 C2177 0.950 . S
H2166 C2174 0.964 . S
H2167 C2176 0.950 . S
H2168 C2178 0.950 . S
H2169 C2180 0.964 . S
H2170 C2182 0.950 . S
H2171 C2183 0.950 . S
C2172 H2164 0.950 . S
C2172 C2173 1.386 . S
C2172 C2174 1.382 1_455 S
C2173 C2172 1.386 . S
C2173 C2177 1.393 . S
C2174 H2166 0.964 . S
C2174 C2172 1.382 1_655 S
C2174 C2175 1.395 1_655 S
C2175 C2174 1.395 1_455 S
C2175 C2176 1.398 . S
C2175 C2181 1.491 1_455 S
C2176 H2167 0.950 . S
C2176 C2175 1.398 . S
C2176 C2177 1.391 . S
C2177 H2165 0.950 . S
C2177 C2173 1.393 . S
C2177 C2176 1.391 . S
C2178 H2168 0.950 . S
C2178 C2179 1.386 . S
C2178 C2180 1.382 1_655 S
C2179 C2178 1.386 . S
C2179 C2183 1.393 . S
C2180 H2169 0.964 . S
C2180 C2178 1.382 1_455 S
C2180 C2181 1.395 1_455 S
C2181 C2175 1.491 1_655 S
C2181 C2180 1.395 1_655 S
C2181 C2182 1.398 . S
C2182 H2170 0.950 . S
C2182 C2181 1.398 . S
C2182 C2183 1.391 . S
C2183 H2171 0.950 . S
C2183 C2179 1.393 . S
C2183 C2182 1.391 . S
H2184 C2192 0.950 . S
H2185 C2197 0.950 . S
H2186 C2194 0.950 . S
H2187 C2196 0.950 . S
H2188 C2198 0.950 . S
H2189 C2200 0.950 . S
H2190 C2202 0.950 . S
H2191 C2203 0.950 . S
C2192 H2184 0.950 . S
C2192 C2193 1.386 . S
C2192 C2194 1.391 . S
C2193 C2192 1.386 . S
C2193 C2197 1.393 . S
C2194 H2186 0.950 . S
C2194 C2192 1.391 . S
C2194 C2195 1.400 . S
C2195 C2194 1.400 . S
C2195 C2196 1.398 . S
C2195 C2201 1.491 . S
C2196 H2187 0.950 . S
C2196 C2195 1.398 . S
C2196 C2197 1.391 . S
C2197 H2185 0.950 . S
C2197 C2193 1.393 . S
C2197 C2196 1.391 . S
C2198 H2188 0.950 . S
C2198 C2199 1.386 . S
C2198 C2200 1.391 . S
C2199 C2198 1.386 . S
C2199 C2203 1.393 . S
C2200 H2189 0.950 . S
C2200 C2198 1.391 . S
C2200 C2201 1.400 . S
C2201 C2195 1.491 . S
C2201 C2200 1.400 . S
C2201 C2202 1.398 . S
C2202 H2190 0.950 . S
C2202 C2201 1.398 . S
C2202 C2203 1.391 . S
C2203 H2191 0.950 . S
C2203 C2199 1.393 . S
C2203 C2202 1.391 . S
H2204 C2212 0.950 . S
H2205 C2217 0.950 . S
H2206 C2214 0.950 . S
H2207 C2216 0.950 . S
H2208 C2218 0.950 . S
H2209 C2220 0.950 . S
H2210 C2222 0.950 . S
H2211 C2223 0.950 . S
C2212 H2204 0.950 . S
C2212 C2213 1.386 . S
C2212 C2214 1.391 . S
C2213 C2212 1.386 . S
C2213 C2217 1.393 . S
C2214 H2206 0.950 . S
C2214 C2212 1.391 . S
C2214 C2215 1.400 . S
C2215 C2214 1.400 . S
C2215 C2216 1.398 . S
C2215 C2221 1.491 . S
C2216 H2207 0.950 . S
C2216 C2215 1.398 . S
C2216 C2217 1.391 . S
C2217 H2205 0.950 . S
C2217 C2213 1.393 . S
C2217 C2216 1.391 . S
C2218 H2208 0.950 . S
C2218 C2219 1.386 . S
C2218 C2220 1.391 . S
C2219 C2218 1.386 . S
C2219 C2223 1.393 . S
C2220 H2209 0.950 . S
C2220 C2218 1.391 . S
C2220 C2221 1.400 . S
C2221 C2215 1.491 . S
C2221 C2220 1.400 . S
C2221 C2222 1.398 . S
C2222 H2210 0.950 . S
C2222 C2221 1.398 . S
C2222 C2223 1.391 . S
C2223 H2211 0.950 . S
C2223 C2219 1.393 . S
C2223 C2222 1.391 . S
H2224 C2232 0.950 . S
H2225 C2237 0.950 . S
H2226 C2234 0.950 1_455 S
H2227 C2236 0.950 . S
H2228 C2238 0.950 . S
H2229 C2240 0.950 1_655 S
H2230 C2242 0.950 . S
H2231 C2243 0.950 . S
C2232 H2224 0.950 . S
C2232 C2233 1.386 . S
C2232 C2234 1.391 . S
C2233 C2232 1.386 . S
C2233 C2237 1.393 . S
C2234 H2226 0.950 1_655 S
C2234 C2232 1.391 . S
C2234 C2235 1.400 . S
C2235 C2234 1.400 . S
C2235 C2236 1.398 . S
C2235 C2241 1.491 1_655 S
C2236 H2227 0.950 . S
C2236 C2235 1.398 . S
C2236 C2237 1.391 . S
C2237 H2225 0.950 . S
C2237 C2233 1.393 . S
C2237 C2236 1.391 . S
C2238 H2228 0.950 . S
C2238 C2239 1.386 . S
C2238 C2240 1.391 . S
C2239 C2238 1.386 . S
C2239 C2243 1.393 . S
C2240 H2229 0.950 1_455 S
C2240 C2238 1.391 . S
C2240 C2241 1.400 . S
C2241 C2235 1.491 1_455 S
C2241 C2240 1.400 . S
C2241 C2242 1.398 . S
C2242 H2230 0.950 . S
C2242 C2241 1.398 . S
C2242 C2243 1.391 . S
C2243 H2231 0.950 . S
C2243 C2239 1.393 . S
C2243 C2242 1.391 . S
H2244 C2252 0.950 . S
H2245 C2257 0.950 . S
H2246 C2254 0.950 . S
H2247 C2256 0.950 . S
H2248 C2258 0.950 . S
H2249 C2260 0.950 . S
H2250 C2262 0.950 . S
H2251 C2263 0.950 . S
C2252 H2244 0.950 . S
C2252 C2253 1.386 . S
C2252 C2254 1.391 . S
C2253 C2252 1.386 . S
C2253 C2257 1.393 . S
C2254 H2246 0.950 . S
C2254 C2252 1.391 . S
C2254 C2255 1.400 . S
C2255 C2254 1.400 . S
C2255 C2256 1.398 . S
C2255 C2261 1.491 . S
C2256 H2247 0.950 . S
C2256 C2255 1.398 . S
C2256 C2257 1.391 . S
C2257 H2245 0.950 . S
C2257 C2253 1.393 . S
C2257 C2256 1.391 . S
C2258 H2248 0.950 . S
C2258 C2259 1.386 . S
C2258 C2260 1.391 . S
C2259 C2258 1.386 . S
C2259 C2263 1.393 . S
C2260 H2249 0.950 . S
C2260 C2258 1.391 . S
C2260 C2261 1.400 . S
C2261 C2255 1.491 . S
C2261 C2260 1.400 . S
C2261 C2262 1.398 . S
C2262 H2250 0.950 . S
C2262 C2261 1.398 . S
C2262 C2263 1.391 . S
C2263 H2251 0.950 . S
C2263 C2259 1.393 . S
C2263 C2262 1.391 . S
H2264 C2272 0.950 . S
H2265 C2277 0.950 . S
H2266 C2274 0.950 . S
H2267 C2276 0.950 . S
H2268 C2278 0.950 . S
H2269 C2280 0.950 . S
H2270 C2282 0.950 . S
H2271 C2283 0.950 . S
C2272 H2264 0.950 . S
C2272 C2273 1.386 . S
C2272 C2274 1.391 . S
C2273 C2272 1.386 . S
C2273 C2277 1.393 . S
C2274 H2266 0.950 . S
C2274 C2272 1.391 . S
C2274 C2275 1.400 . S
C2275 C2274 1.400 . S
C2275 C2276 1.398 . S
C2275 C2281 1.491 . S
C2276 H2267 0.950 . S
C2276 C2275 1.398 . S
C2276 C2277 1.391 . S
C2277 H2265 0.950 . S
C2277 C2273 1.393 . S
C2277 C2276 1.391 . S
C2278 H2268 0.950 . S
C2278 C2279 1.386 . S
C2278 C2280 1.391 . S
C2279 C2278 1.386 . S
C2279 C2283 1.393 . S
C2280 H2269 0.950 . S
C2280 C2278 1.391 . S
C2280 C2281 1.400 . S
C2281 C2275 1.491 . S
C2281 C2280 1.400 . S
C2281 C2282 1.398 . S
C2282 H2270 0.950 . S
C2282 C2281 1.398 . S
C2282 C2283 1.391 . S
C2283 H2271 0.950 . S
C2283 C2279 1.393 . S
C2283 C2282 1.391 . S
H2284 C2292 0.950 . S
H2285 C2297 0.950 1_556 S
H2286 C2294 0.939 1_455 S
H2287 C2296 0.948 1_556 S
H2288 C2298 0.943 1_556 S
H2289 C2300 0.931 1_656 S
H2290 C2302 0.950 . S
H2291 C2303 0.950 . S
C2292 H2284 0.950 . S
C2292 C2293 1.386 . S
C2292 C2294 1.398 . S
C2293 C2292 1.386 . S
C2293 C2297 1.393 . S
C2294 H2286 0.939 1_655 S
C2294 C2292 1.398 . S
C2294 C2295 1.404 . S
C2295 C2294 1.404 . S
C2295 C2296 1.398 . S
C2295 C2301 1.491 1_655 S
C2296 H2287 0.948 1_554 S
C2296 C2295 1.398 . S
C2296 C2297 1.391 . S
C2297 H2285 0.950 1_554 S
C2297 C2293 1.393 . S
C2297 C2296 1.391 . S
C2298 H2288 0.943 1_554 S
C2298 C2299 1.392 . S
C2298 C2300 1.398 . S
C2299 C2298 1.392 . S
C2299 C2303 1.393 . S
C2300 H2289 0.931 1_454 S
C2300 C2298 1.398 . S
C2300 C2301 1.414 . S
C2301 C2295 1.491 1_455 S
C2301 C2300 1.414 . S
C2301 C2302 1.398 . S
C2302 H2290 0.950 . S
C2302 C2301 1.398 . S
C2302 C2303 1.391 . S
C2303 H2291 0.950 . S
C2303 C2299 1.393 . S
C2303 C2302 1.391 . S
H2304 C2312 0.950 . S
H2305 C2317 0.950 . S
H2306 C2314 0.950 . S
H2307 C2316 0.950 . S
H2308 C2318 0.950 . S
H2309 C2320 0.950 . S
H2310 C2322 0.950 . S
H2311 C2323 0.950 . S
C2312 H2304 0.950 . S
C2312 C2313 1.386 . S
C2312 C2314 1.391 . S
C2313 C2312 1.386 . S
C2313 C2317 1.393 . S
C2314 H2306 0.950 . S
C2314 C2312 1.391 . S
C2314 C2315 1.400 . S
C2315 C2314 1.400 . S
C2315 C2316 1.398 . S
C2315 C2321 1.491 . S
C2316 H2307 0.950 . S
C2316 C2315 1.398 . S
C2316 C2317 1.391 . S
C2317 H2305 0.950 . S
C2317 C2313 1.393 . S
C2317 C2316 1.391 . S
C2318 H2308 0.950 . S
C2318 C2319 1.386 . S
C2318 C2320 1.391 . S
C2319 C2318 1.386 . S
C2319 C2323 1.393 . S
C2320 H2309 0.950 . S
C2320 C2318 1.391 . S
C2320 C2321 1.400 . S
C2321 C2315 1.491 . S
C2321 C2320 1.400 . S
C2321 C2322 1.398 . S
C2322 H2310 0.950 . S
C2322 C2321 1.398 . S
C2322 C2323 1.391 . S
C2323 H2311 0.950 . S
C2323 C2319 1.393 . S
C2323 C2322 1.391 . S
H2324 C2332 0.950 . S
H2325 C2337 0.950 . S
H2326 C2334 0.950 . S
H2327 C2336 0.950 . S
H2328 C2338 0.950 . S
H2329 C2340 0.950 . S
H2330 C2342 0.950 . S
H2331 C2343 0.950 . S
C2332 H2324 0.950 . S
C2332 C2333 1.386 . S
C2332 C2334 1.391 . S
C2333 C2332 1.386 . S
C2333 C2337 1.393 . S
C2334 H2326 0.950 . S
C2334 C2332 1.391 . S
C2334 C2335 1.400 . S
C2335 C2334 1.400 . S
C2335 C2336 1.398 . S
C2335 C2341 1.491 . S
C2336 H2327 0.950 . S
C2336 C2335 1.398 . S
C2336 C2337 1.391 . S
C2337 H2325 0.950 . S
C2337 C2333 1.393 . S
C2337 C2336 1.391 . S
C2338 H2328 0.950 . S
C2338 C2339 1.386 . S
C2338 C2340 1.391 . S
C2339 C2338 1.386 . S
C2339 C2343 1.393 . S
C2340 H2329 0.950 . S
C2340 C2338 1.391 . S
C2340 C2341 1.400 . S
C2341 C2335 1.491 . S
C2341 C2340 1.400 . S
C2341 C2342 1.398 . S
C2342 H2330 0.950 . S
C2342 C2341 1.398 . S
C2342 C2343 1.391 . S
C2343 H2331 0.950 . S
C2343 C2339 1.393 . S
C2343 C2342 1.391 . S
H2344 C2352 0.950 . S
H2345 C2357 0.950 . S
H2346 C2354 0.950 . S
H2347 C2356 0.950 . S
H2348 C2358 0.950 . S
H2349 C2360 0.950 . S
H2350 C2362 0.950 . S
H2351 C2363 0.950 . S
C2352 H2344 0.950 . S
C2352 C2353 1.386 . S
C2352 C2354 1.391 . S
C2353 C2352 1.386 . S
C2353 C2357 1.393 . S
C2354 H2346 0.950 . S
C2354 C2352 1.391 . S
C2354 C2355 1.400 . S
C2355 C2354 1.400 . S
C2355 C2356 1.398 . S
C2355 C2361 1.491 . S
C2356 H2347 0.950 . S
C2356 C2355 1.398 . S
C2356 C2357 1.391 . S
C2357 H2345 0.950 . S
C2357 C2353 1.393 . S
C2357 C2356 1.391 . S
C2358 H2348 0.950 . S
C2358 C2359 1.386 . S
C2358 C2360 1.391 . S
C2359 C2358 1.386 . S
C2359 C2363 1.393 . S
C2360 H2349 0.950 . S
C2360 C2358 1.391 . S
C2360 C2361 1.400 . S
C2361 C2355 1.491 . S
C2361 C2360 1.400 . S
C2361 C2362 1.398 . S
C2362 H2350 0.950 . S
C2362 C2361 1.398 . S
C2362 C2363 1.391 . S
C2363 H2351 0.950 . S
C2363 C2359 1.393 . S
C2363 C2362 1.391 . S
H2364 C2372 0.950 . S
H2365 C2377 0.950 . S
H2366 C2374 0.950 . S
H2367 C2376 0.950 . S
H2368 C2378 0.950 . S
H2369 C2380 0.950 . S
H2370 C2382 0.950 . S
H2371 C2383 0.950 . S
C2372 H2364 0.950 . S
C2372 C2373 1.386 . S
C2372 C2374 1.391 . S
C2373 C2372 1.386 . S
C2373 C2377 1.393 . S
C2374 H2366 0.950 . S
C2374 C2372 1.391 . S
C2374 C2375 1.400 . S
C2375 C2374 1.400 . S
C2375 C2376 1.398 . S
C2375 C2381 1.491 . S
C2376 H2367 0.950 . S
C2376 C2375 1.398 . S
C2376 C2377 1.391 . S
C2377 H2365 0.950 . S
C2377 C2373 1.393 . S
C2377 C2376 1.391 . S
C2378 H2368 0.950 . S
C2378 C2379 1.386 . S
C2378 C2380 1.391 . S
C2379 C2378 1.386 . S
C2379 C2383 1.393 . S
C2380 H2369 0.950 . S
C2380 C2378 1.391 . S
C2380 C2381 1.400 . S
C2381 C2375 1.491 . S
C2381 C2380 1.400 . S
C2381 C2382 1.398 . S
C2382 H2370 0.950 . S
C2382 C2381 1.398 . S
C2382 C2383 1.391 . S
C2383 H2371 0.950 . S
C2383 C2379 1.393 . S
C2383 C2382 1.391 . S
H2384 C2392 0.950 . S
H2385 C2397 0.950 . S
H2386 C2394 0.950 . S
H2387 C2396 0.950 . S
H2388 C2398 0.950 . S
H2389 C2400 0.950 . S
H2390 C2402 0.950 . S
H2391 C2403 0.950 . S
C2392 H2384 0.950 . S
C2392 C2393 1.386 . S
C2392 C2394 1.391 . S
C2393 C2392 1.386 . S
C2393 C2397 1.393 . S
C2394 H2386 0.950 . S
C2394 C2392 1.391 . S
C2394 C2395 1.400 . S
C2395 C2394 1.400 . S
C2395 C2396 1.398 . S
C2395 C2401 1.491 . S
C2396 H2387 0.950 . S
C2396 C2395 1.398 . S
C2396 C2397 1.391 . S
C2397 H2385 0.950 . S
C2397 C2393 1.393 . S
C2397 C2396 1.391 . S
C2398 H2388 0.950 . S
C2398 C2399 1.386 . S
C2398 C2400 1.391 . S
C2399 C2398 1.386 . S
C2399 C2403 1.393 . S
C2400 H2389 0.950 . S
C2400 C2398 1.391 . S
C2400 C2401 1.400 . S
C2401 C2395 1.491 . S
C2401 C2400 1.400 . S
C2401 C2402 1.398 . S
C2402 H2390 0.950 . S
C2402 C2401 1.398 . S
C2402 C2403 1.391 . S
C2403 H2391 0.950 . S
C2403 C2399 1.393 . S
C2403 C2402 1.391 . S
H2404 C2412 0.950 . S
H2405 C2417 0.950 . S
H2406 C2414 0.950 . S
H2407 C2416 0.950 . S
H2408 C2418 0.950 . S
H2409 C2420 0.950 . S
H2410 C2422 0.950 . S
H2411 C2423 0.950 . S
C2412 H2404 0.950 . S
C2412 C2413 1.386 . S
C2412 C2414 1.391 . S
C2413 C2412 1.386 . S
C2413 C2417 1.393 . S
C2414 H2406 0.950 . S
C2414 C2412 1.391 . S
C2414 C2415 1.400 . S
C2415 C2414 1.400 . S
C2415 C2416 1.398 . S
C2415 C2421 1.491 . S
C2416 H2407 0.950 . S
C2416 C2415 1.398 . S
C2416 C2417 1.391 . S
C2417 H2405 0.950 . S
C2417 C2413 1.393 . S
C2417 C2416 1.391 . S
C2418 H2408 0.950 . S
C2418 C2419 1.386 . S
C2418 C2420 1.391 . S
C2419 C2418 1.386 . S
C2419 C2423 1.393 . S
C2420 H2409 0.950 . S
C2420 C2418 1.391 . S
C2420 C2421 1.400 . S
C2421 C2415 1.491 . S
C2421 C2420 1.400 . S
C2421 C2422 1.398 . S
C2422 H2410 0.950 . S
C2422 C2421 1.398 . S
C2422 C2423 1.391 . S
C2423 H2411 0.950 . S
C2423 C2419 1.393 . S
C2423 C2422 1.391 . S
H2424 C2432 0.950 . S
H2425 C2437 0.950 . S
H2426 C2434 0.950 . S
H2427 C2436 0.950 . S
H2428 C2438 0.950 . S
H2429 C2440 0.950 . S
H2430 C2442 0.950 . S
H2431 C2443 0.950 . S
C2432 H2424 0.950 . S
C2432 C2433 1.386 . S
C2432 C2434 1.391 . S
C2433 C2432 1.386 . S
C2433 C2437 1.393 . S
C2434 H2426 0.950 . S
C2434 C2432 1.391 . S
C2434 C2435 1.400 . S
C2435 C2434 1.400 . S
C2435 C2436 1.398 . S
C2435 C2441 1.491 . S
C2436 H2427 0.950 . S
C2436 C2435 1.398 . S
C2436 C2437 1.391 . S
C2437 H2425 0.950 . S
C2437 C2433 1.393 . S
C2437 C2436 1.391 . S
C2438 H2428 0.950 . S
C2438 C2439 1.386 . S
C2438 C2440 1.391 . S
C2439 C2438 1.386 . S
C2439 C2443 1.393 . S
C2440 H2429 0.950 . S
C2440 C2438 1.391 . S
C2440 C2441 1.400 . S
C2441 C2435 1.491 . S
C2441 C2440 1.400 . S
C2441 C2442 1.398 . S
C2442 H2430 0.950 . S
C2442 C2441 1.398 . S
C2442 C2443 1.391 . S
C2443 H2431 0.950 . S
C2443 C2439 1.393 . S
C2443 C2442 1.391 . S
H2444 C2452 0.950 . S
H2445 C2457 0.950 . S
H2446 C2454 0.950 . S
H2447 C2456 0.950 . S
H2448 C2458 0.950 . S
H2449 C2460 0.950 . S
H2450 C2462 0.950 . S
H2451 C2463 0.950 . S
C2452 H2444 0.950 . S
C2452 C2453 1.386 . S
C2452 C2454 1.391 . S
C2453 C2452 1.386 . S
C2453 C2457 1.393 . S
C2454 H2446 0.950 . S
C2454 C2452 1.391 . S
C2454 C2455 1.400 . S
C2455 C2454 1.400 . S
C2455 C2456 1.398 . S
C2455 C2461 1.491 . S
C2456 H2447 0.950 . S
C2456 C2455 1.398 . S
C2456 C2457 1.391 . S
C2457 H2445 0.950 . S
C2457 C2453 1.393 . S
C2457 C2456 1.391 . S
C2458 H2448 0.950 . S
C2458 C2459 1.386 . S
C2458 C2460 1.391 . S
C2459 C2458 1.386 . S
C2459 C2463 1.393 . S
C2460 H2449 0.950 . S
C2460 C2458 1.391 . S
C2460 C2461 1.400 . S
C2461 C2455 1.491 . S
C2461 C2460 1.400 . S
C2461 C2462 1.398 . S
C2462 H2450 0.950 . S
C2462 C2461 1.398 . S
C2462 C2463 1.391 . S
C2463 H2451 0.950 . S
C2463 C2459 1.393 . S
C2463 C2462 1.391 . S
H2464 C2472 0.950 . S
H2465 C2477 0.950 . S
H2466 C2474 0.950 . S
H2467 C2476 0.950 . S
H2468 C2478 0.950 . S
H2469 C2480 0.950 . S
H2470 C2482 0.950 . S
H2471 C2483 0.950 . S
C2472 H2464 0.950 . S
C2472 C2473 1.386 . S
C2472 C2474 1.391 . S
C2473 C2472 1.386 . S
C2473 C2477 1.393 . S
C2474 H2466 0.950 . S
C2474 C2472 1.391 . S
C2474 C2475 1.400 . S
C2475 C2474 1.400 . S
C2475 C2476 1.398 . S
C2475 C2481 1.491 . S
C2476 H2467 0.950 . S
C2476 C2475 1.398 . S
C2476 C2477 1.391 . S
C2477 H2465 0.950 . S
C2477 C2473 1.393 . S
C2477 C2476 1.391 . S
C2478 H2468 0.950 . S
C2478 C2479 1.386 . S
C2478 C2480 1.391 . S
C2479 C2478 1.386 . S
C2479 C2483 1.393 . S
C2480 H2469 0.950 . S
C2480 C2478 1.391 . S
C2480 C2481 1.400 . S
C2481 C2475 1.491 . S
C2481 C2480 1.400 . S
C2481 C2482 1.398 . S
C2482 H2470 0.950 . S
C2482 C2481 1.398 . S
C2482 C2483 1.391 . S
C2483 H2471 0.950 . S
C2483 C2479 1.393 . S
C2483 C2482 1.391 . S
H2484 C2492 0.950 . S
H2485 C2497 0.950 . S
H2486 C2494 0.950 . S
H2487 C2496 0.950 . S
H2488 C2498 0.950 . S
H2489 C2500 0.950 . S
H2490 C2502 0.950 . S
H2491 C2503 0.950 . S
C2492 H2484 0.950 . S
C2492 C2493 1.386 . S
C2492 C2494 1.391 . S
C2493 C2492 1.386 . S
C2493 C2497 1.393 . S
C2494 H2486 0.950 . S
C2494 C2492 1.391 . S
C2494 C2495 1.400 . S
C2495 C2494 1.400 . S
C2495 C2496 1.398 . S
C2495 C2501 1.491 . S
C2496 H2487 0.950 . S
C2496 C2495 1.398 . S
C2496 C2497 1.391 . S
C2497 H2485 0.950 . S
C2497 C2493 1.393 . S
C2497 C2496 1.391 . S
C2498 H2488 0.950 . S
C2498 C2499 1.386 . S
C2498 C2500 1.391 . S
C2499 C2498 1.386 . S
C2499 C2503 1.393 . S
C2500 H2489 0.950 . S
C2500 C2498 1.391 . S
C2500 C2501 1.400 . S
C2501 C2495 1.491 . S
C2501 C2500 1.400 . S
C2501 C2502 1.398 . S
C2502 H2490 0.950 . S
C2502 C2501 1.398 . S
C2502 C2503 1.391 . S
C2503 H2491 0.950 . S
C2503 C2499 1.393 . S
C2503 C2502 1.391 . S
H2504 C2512 0.950 . S
H2505 C2517 0.950 . S
H2506 C2514 0.950 . S
H2507 C2516 0.950 . S
H2508 C2518 0.950 . S
H2509 C2520 0.950 . S
H2510 C2522 0.950 . S
H2511 C2523 0.950 . S
C2512 H2504 0.950 . S
C2512 C2513 1.386 . S
C2512 C2514 1.391 . S
C2513 C2512 1.386 . S
C2513 C2517 1.393 . S
C2514 H2506 0.950 . S
C2514 C2512 1.391 . S
C2514 C2515 1.400 . S
C2515 C2514 1.400 . S
C2515 C2516 1.398 . S
C2515 C2521 1.491 . S
C2516 H2507 0.950 . S
C2516 C2515 1.398 . S
C2516 C2517 1.391 . S
C2517 H2505 0.950 . S
C2517 C2513 1.393 . S
C2517 C2516 1.391 . S
C2518 H2508 0.950 . S
C2518 C2519 1.386 . S
C2518 C2520 1.391 . S
C2519 C2518 1.386 . S
C2519 C2523 1.393 . S
C2520 H2509 0.950 . S
C2520 C2518 1.391 . S
C2520 C2521 1.400 . S
C2521 C2515 1.491 . S
C2521 C2520 1.400 . S
C2521 C2522 1.398 . S
C2522 H2510 0.950 . S
C2522 C2521 1.398 . S
C2522 C2523 1.391 . S
C2523 H2511 0.950 . S
C2523 C2519 1.393 . S
C2523 C2522 1.391 . S
H2524 C2532 0.950 . S
H2525 C2537 0.950 . S
H2526 C2534 0.950 . S
H2527 C2536 0.950 . S
H2528 C2538 0.950 . S
H2529 C2540 0.950 . S
H2530 C2542 0.950 . S
H2531 C2543 0.950 . S
C2532 H2524 0.950 . S
C2532 C2533 1.386 . S
C2532 C2534 1.391 . S
C2533 C2532 1.386 . S
C2533 C2537 1.393 . S
C2534 H2526 0.950 . S
C2534 C2532 1.391 . S
C2534 C2535 1.400 . S
C2535 C2534 1.400 . S
C2535 C2536 1.398 . S
C2535 C2541 1.491 . S
C2536 H2527 0.950 . S
C2536 C2535 1.398 . S
C2536 C2537 1.391 . S
C2537 H2525 0.950 . S
C2537 C2533 1.393 . S
C2537 C2536 1.391 . S
C2538 H2528 0.950 . S
C2538 C2539 1.386 . S
C2538 C2540 1.391 . S
C2539 C2538 1.386 . S
C2539 C2543 1.393 . S
C2540 H2529 0.950 . S
C2540 C2538 1.391 . S
C2540 C2541 1.400 . S
C2541 C2535 1.491 . S
C2541 C2540 1.400 . S
C2541 C2542 1.398 . S
C2542 H2530 0.950 . S
C2542 C2541 1.398 . S
C2542 C2543 1.391 . S
C2543 H2531 0.950 . S
C2543 C2539 1.393 . S
C2543 C2542 1.391 . S
H2544 C2552 0.950 . S
H2545 C2557 0.950 . S
H2546 C2554 0.950 . S
H2547 C2556 0.950 . S
H2548 C2558 0.950 . S
H2549 C2560 0.950 . S
H2550 C2562 0.950 . S
H2551 C2563 0.950 . S
C2552 H2544 0.950 . S
C2552 C2553 1.386 . S
C2552 C2554 1.391 . S
C2553 C2552 1.386 . S
C2553 C2557 1.393 . S
C2554 H2546 0.950 . S
C2554 C2552 1.391 . S
C2554 C2555 1.400 . S
C2555 C2554 1.400 . S
C2555 C2556 1.398 . S
C2555 C2561 1.491 . S
C2556 H2547 0.950 . S
C2556 C2555 1.398 . S
C2556 C2557 1.391 . S
C2557 H2545 0.950 . S
C2557 C2553 1.393 . S
C2557 C2556 1.391 . S
C2558 H2548 0.950 . S
C2558 C2559 1.386 . S
C2558 C2560 1.391 . S
C2559 C2558 1.386 . S
C2559 C2563 1.393 . S
C2560 H2549 0.950 . S
C2560 C2558 1.391 . S
C2560 C2561 1.400 . S
C2561 C2555 1.491 . S
C2561 C2560 1.400 . S
C2561 C2562 1.398 . S
C2562 H2550 0.950 . S
C2562 C2561 1.398 . S
C2562 C2563 1.391 . S
C2563 H2551 0.950 . S
C2563 C2559 1.393 . S
C2563 C2562 1.391 . S
H2564 C2572 0.950 . S
H2565 C2577 0.950 . S
H2566 C2574 0.950 . S
H2567 C2576 0.950 . S
H2568 C2578 0.950 . S
H2569 C2580 0.950 . S
H2570 C2582 0.950 . S
H2571 C2583 0.950 . S
C2572 H2564 0.950 . S
C2572 C2573 1.386 . S
C2572 C2574 1.391 . S
C2573 C2572 1.386 . S
C2573 C2577 1.393 . S
C2574 H2566 0.950 . S
C2574 C2572 1.391 . S
C2574 C2575 1.400 . S
C2575 C2574 1.400 . S
C2575 C2576 1.398 . S
C2575 C2581 1.491 . S
C2576 H2567 0.950 . S
C2576 C2575 1.398 . S
C2576 C2577 1.391 . S
C2577 H2565 0.950 . S
C2577 C2573 1.393 . S
C2577 C2576 1.391 . S
C2578 H2568 0.950 . S
C2578 C2579 1.386 . S
C2578 C2580 1.391 . S
C2579 C2578 1.386 . S
C2579 C2583 1.393 . S
C2580 H2569 0.950 . S
C2580 C2578 1.391 . S
C2580 C2581 1.400 . S
C2581 C2575 1.491 . S
C2581 C2580 1.400 . S
C2581 C2582 1.398 . S
C2582 H2570 0.950 . S
C2582 C2581 1.398 . S
C2582 C2583 1.391 . S
C2583 H2571 0.950 . S
C2583 C2579 1.393 . S
C2583 C2582 1.391 . S
H2584 C2592 0.950 . S
H2585 C2597 0.950 . S
H2586 C2594 0.950 . S
H2587 C2596 0.950 . S
H2588 C2598 0.950 . S
H2589 C2600 0.950 . S
H2590 C2602 0.950 . S
H2591 C2603 0.950 . S
C2592 H2584 0.950 . S
C2592 C2593 1.386 . S
C2592 C2594 1.391 . S
C2593 C2592 1.386 . S
C2593 C2597 1.393 . S
C2594 H2586 0.950 . S
C2594 C2592 1.391 . S
C2594 C2595 1.400 . S
C2595 C2594 1.400 . S
C2595 C2596 1.398 . S
C2595 C2601 1.491 . S
C2596 H2587 0.950 . S
C2596 C2595 1.398 . S
C2596 C2597 1.391 . S
C2597 H2585 0.950 . S
C2597 C2593 1.393 . S
C2597 C2596 1.391 . S
C2598 H2588 0.950 . S
C2598 C2599 1.386 . S
C2598 C2600 1.391 . S
C2599 C2598 1.386 . S
C2599 C2603 1.393 . S
C2600 H2589 0.950 . S
C2600 C2598 1.391 . S
C2600 C2601 1.400 . S
C2601 C2595 1.491 . S
C2601 C2600 1.400 . S
C2601 C2602 1.398 . S
C2602 H2590 0.950 . S
C2602 C2601 1.398 . S
C2602 C2603 1.391 . S
C2603 H2591 0.950 . S
C2603 C2599 1.393 . S
C2603 C2602 1.391 . S
H2604 C2612 0.950 . S
H2605 C2617 0.950 . S
H2606 C2614 0.950 . S
H2607 C2616 0.950 . S
H2608 C2618 0.950 . S
H2609 C2620 0.950 . S
H2610 C2622 0.950 . S
H2611 C2623 0.950 . S
C2612 H2604 0.950 . S
C2612 C2613 1.386 . S
C2612 C2614 1.391 . S
C2613 C2612 1.386 . S
C2613 C2617 1.393 . S
C2614 H2606 0.950 . S
C2614 C2612 1.391 . S
C2614 C2615 1.400 . S
C2615 C2614 1.400 . S
C2615 C2616 1.398 . S
C2615 C2621 1.491 . S
C2616 H2607 0.950 . S
C2616 C2615 1.398 . S
C2616 C2617 1.391 . S
C2617 H2605 0.950 . S
C2617 C2613 1.393 . S
C2617 C2616 1.391 . S
C2618 H2608 0.950 . S
C2618 C2619 1.386 . S
C2618 C2620 1.391 . S
C2619 C2618 1.386 . S
C2619 C2623 1.393 . S
C2620 H2609 0.950 . S
C2620 C2618 1.391 . S
C2620 C2621 1.400 . S
C2621 C2615 1.491 . S
C2621 C2620 1.400 . S
C2621 C2622 1.398 . S
C2622 H2610 0.950 . S
C2622 C2621 1.398 . S
C2622 C2623 1.391 . S
C2623 H2611 0.950 . S
C2623 C2619 1.393 . S
C2623 C2622 1.391 . S
C713 C8 1.981 . S
C719 C106 1.981 . S
C733 C128 1.979 . S
C739 C30 1.986 . S
C753 C142 1.982 . S
C759 C54 1.982 . S
C773 C84 1.985 . S
C779 C162 1.978 . S
C793 C194 1.971 . S
C799 C272 1.959 . S
C813 C208 1.964 . S
C819 C304 1.969 . S
C833 C230 1.961 . S
C839 C316 1.971 . S
C853 C340 1.969 . S
C859 C252 1.964 . S
C873 C370 1.985 . S
C879 C458 1.977 . S
C893 C480 1.987 . S
C899 C382 1.977 . S
C913 C404 1.980 . S
C919 C502 1.985 . S
C933 C524 1.976 . S
C939 C436 1.987 . S
C953 C538 1.962 . S
C959 C624 1.970 . S
C973 C560 1.970 . S
C979 C646 1.959 . S
C993 C590 1.965 . S
C999 C678 1.968 . S
C1013 C612 1.964 . S
C1019 C692 1.963 . S
C1033 C546 1.513 . S
C1039 C18 1.500 . S
C1053 C216 1.487 . S
C1059 C40 1.474 . S
C1073 C52 1.492 . S
C1079 C580 1.506 . S
C1093 C76 1.493 . S
C1099 C260 1.505 . S
C1113 C98 1.476 . S
C1119 C626 1.491 . S
C1133 C120 1.471 . S
C1139 C294 1.486 . S
C1153 C668 1.515 . S
C1159 C140 1.503 . S
C1173 C348 1.485 . S
C1179 C172 1.471 . S
C1193 C362 1.489 . S
C1199 C184 1.501 . S
C1213 C238 1.486 . S
C1219 C414 1.473 . S
C1233 C274 1.493 . S
C1239 C450 1.478 . S
C1253 C494 1.476 . S
C1259 C318 1.491 . S
C1273 C392 1.472 . S
C1279 C568 1.487 . S
C1293 C602 1.515 . S
C1299 C428 1.502 . S
C1313 C648 1.492 . S
C1319 C472 1.479 . S
C1333 C516 1.478 . S
C1339 C700 1.493 . S
C1353 C7 1.088 . S
C1359 C601 1.087 . S
C1373 C29 1.086 . S
C1379 C183 1.084 . S
C1393 C65 1.082 . S
C1399 C565 1.088 . S
C1413 C235 1.088 . S
C1419 C81 1.087 . S
C1433 C659 1.086 . S
C1439 C103 1.089 . S
C1453 C125 1.089 . S
C1459 C329 1.086 . S
C1473 C697 1.090 . S
C1479 C153 1.083 . S
C1493 C285 1.087 . S
C1499 C161 1.088 . S
C1513 C425 1.091 . S
C1519 C197 1.088 . S
C1533 C205 1.090 . S
C1539 C21 1.087 . S
C1553 C395 1.087 . S
C1559 C227 1.091 . S
C1573 C59 1.091 . S
C1579 C249 1.087 . S
C1593 C469 1.085 . S
C1599 C279 1.092 . S
C1613 C307 1.090 . S
C1619 C147 1.088 . S
C1633 C323 1.088 . S
C1639 C513 1.090 . S
C1653 C95 1.089 . S
C1659 C337 1.088 . S
C1673 C367 1.087 . S
C1679 C257 1.084 . S
C1693 C381 1.083 . S
C1699 C543 1.089 . S
C1713 C213 1.084 . S
C1719 C403 1.090 . S
C1733 C433 1.082 . S
C1739 C579 1.089 . S
C1753 C293 1.089 . S
C1759 C455 1.082 . S
C1773 C477 1.082 . S
C1779 C667 1.089 . S
C1793 C345 1.090 . S
C1799 C499 1.083 . S
C1813 C521 1.082 . S
C1819 C637 1.089 . S
C1833 C73 1.087 . S
C1839 C535 1.090 . S
C1853 C557 1.087 . S
C1859 C359 1.092 . S
C1873 C593 1.088 . S
C1879 C43 1.089 . S
C1893 C417 1.085 . S
C1899 C615 1.092 . S
C1913 C117 1.092 . S
C1919 C631 1.087 . S
C1933 C491 1.089 . S
C1939 C653 1.089 . S
C1953 C681 1.088 . S
C1959 C175 1.091 . S
C1973 C447 1.086 . S
C1979 C689 1.091 . S
C1993 C15 0.527 . S
C1999 C411 0.531 . S
C2013 C37 0.525 . S
C2019 C439 0.530 . S
C2033 C51 0.522 . S
C2039 C373 0.528 . S
C2053 C87 0.519 . S
C2059 C389 0.515 . S
C2073 C505 0.521 . S
C2079 C109 0.517 . S
C2093 C527 0.526 . S
C2099 C131 0.531 . S
C2113 C139 0.518 . S
C2119 C461 0.515 . S
C2133 C483 0.515 . S
C2139 C169 0.517 . S
C2153 C587 0.520 . S
C2159 C191 0.517 . S
C2173 C609 0.525 . S
C2179 C219 0.521 . S
C2193 C549 0.519 . S
C2199 C241 0.516 . S
C2213 C263 0.525 . S
C2219 C571 0.520 . S
C2233 C271 0.522 . S
C2239 C675 0.527 . S
C2253 C703 0.519 . S
C2259 C301 0.516 . S
C2273 C623 0.519 . S
C2279 C315 0.524 . S
C2293 C351 0.526 . S
C2299 C645 0.522 . S
C2313 C164 1.301 . S
C2319 C10 1.303 . S
C2333 C32 1.310 . S
C2339 C96 1.308 . S
C2353 C62 1.300 . S
C2359 C118 1.299 . S
C2373 C150 1.299 . S
C2379 C74 1.298 . S
C2393 C338 1.324 . S
C2399 C186 1.326 . S
C2413 C206 1.326 . S
C2419 C282 1.326 . S
C2433 C296 1.325 . S
C2439 C228 1.321 . S
C2453 C326 1.322 . S
C2459 C250 1.325 . S
C2473 C514 1.302 . S
C2479 C360 1.305 . S
C2493 C448 1.312 . S
C2499 C384 1.312 . S
C2513 C470 1.311 . S
C2519 C406 1.309 . S
C2533 C426 1.298 . S
C2539 C492 1.299 . S
C2553 C690 1.320 . S
C2559 C536 1.324 . S
C2573 C634 1.321 . S
C2579 C558 1.317 . S
C2593 C656 1.319 . S
C2599 C582 1.316 . S
C2613 C604 1.321 . S
C2619 C670 1.317 . S
