# Generated by pormake.
# Topology whr, (6)-cn, num edge types: 1
# Building blocks:
#     Node 0, Type 0, BuildingBlock: IZENUY_clean_sbu_0, # of connection points: 6
#     Node 1, Type 0, BuildingBlock: IZENUY_clean_sbu_0, # of connection points: 6
#     Node 2, Type 0, BuildingBlock: IZENUY_clean_sbu_0, # of connection points: 6
#     Node 3, Type 0, BuildingBlock: IZENUY_clean_sbu_0, # of connection points: 6
#     Node 4, Type 0, BuildingBlock: IZENUY_clean_sbu_0, # of connection points: 6
#     Node 5, Type 0, BuildingBlock: IZENUY_clean_sbu_0, # of connection points: 6
#     Node 6, Type 0, BuildingBlock: IZENUY_clean_sbu_0, # of connection points: 6
#     Node 7, Type 0, BuildingBlock: IZENUY_clean_sbu_0, # of connection points: 6
#     Node 8, Type 0, BuildingBlock: IZENUY_clean_sbu_0, # of connection points: 6
#     Node 9, Type 0, BuildingBlock: IZENUY_clean_sbu_0, # of connection points: 6
#     Node 10, Type 0, BuildingBlock: IZENUY_clean_sbu_0, # of connection points: 6
#     Node 11, Type 0, BuildingBlock: IZENUY_clean_sbu_0, # of connection points: 6
#     Node 12, Type 0, BuildingBlock: IZENUY_clean_sbu_0, # of connection points: 6
#     Node 13, Type 0, BuildingBlock: IZENUY_clean_sbu_0, # of connection points: 6
#     Node 14, Type 0, BuildingBlock: IZENUY_clean_sbu_0, # of connection points: 6
#     Node 15, Type 0, BuildingBlock: IZENUY_clean_sbu_0, # of connection points: 6
#     Edge 16, Type (0, 0), BuildingBlock: UVAHIK_clean_linker_0, # of connection points: 2
#     Edge 17, Type (0, 0), BuildingBlock: UVAHIK_clean_linker_0, # of connection points: 2
#     Edge 18, Type (0, 0), BuildingBlock: UVAHIK_clean_linker_0, # of connection points: 2
#     Edge 19, Type (0, 0), BuildingBlock: UVAHIK_clean_linker_0, # of connection points: 2
#     Edge 20, Type (0, 0), BuildingBlock: UVAHIK_clean_linker_0, # of connection points: 2
#     Edge 21, Type (0, 0), BuildingBlock: UVAHIK_clean_linker_0, # of connection points: 2
#     Edge 22, Type (0, 0), BuildingBlock: UVAHIK_clean_linker_0, # of connection points: 2
#     Edge 23, Type (0, 0), BuildingBlock: UVAHIK_clean_linker_0, # of connection points: 2
#     Edge 24, Type (0, 0), BuildingBlock: UVAHIK_clean_linker_0, # of connection points: 2
#     Edge 25, Type (0, 0), BuildingBlock: UVAHIK_clean_linker_0, # of connection points: 2
#     Edge 26, Type (0, 0), BuildingBlock: UVAHIK_clean_linker_0, # of connection points: 2
#     Edge 27, Type (0, 0), BuildingBlock: UVAHIK_clean_linker_0, # of connection points: 2
#     Edge 28, Type (0, 0), BuildingBlock: UVAHIK_clean_linker_0, # of connection points: 2
#     Edge 29, Type (0, 0), BuildingBlock: UVAHIK_clean_linker_0, # of connection points: 2
#     Edge 30, Type (0, 0), BuildingBlock: UVAHIK_clean_linker_0, # of connection points: 2
#     Edge 31, Type (0, 0), BuildingBlock: UVAHIK_clean_linker_0, # of connection points: 2
#     Edge 32, Type (0, 0), BuildingBlock: UVAHIK_clean_linker_0, # of connection points: 2
#     Edge 33, Type (0, 0), BuildingBlock: UVAHIK_clean_linker_0, # of connection points: 2
#     Edge 34, Type (0, 0), BuildingBlock: UVAHIK_clean_linker_0, # of connection points: 2
#     Edge 35, Type (0, 0), BuildingBlock: UVAHIK_clean_linker_0, # of connection points: 2
#     Edge 36, Type (0, 0), BuildingBlock: UVAHIK_clean_linker_0, # of connection points: 2
#     Edge 37, Type (0, 0), BuildingBlock: UVAHIK_clean_linker_0, # of connection points: 2
#     Edge 38, Type (0, 0), BuildingBlock: UVAHIK_clean_linker_0, # of connection points: 2
#     Edge 39, Type (0, 0), BuildingBlock: UVAHIK_clean_linker_0, # of connection points: 2
#     Edge 40, Type (0, 0), BuildingBlock: UVAHIK_clean_linker_0, # of connection points: 2
#     Edge 41, Type (0, 0), BuildingBlock: UVAHIK_clean_linker_0, # of connection points: 2
#     Edge 42, Type (0, 0), BuildingBlock: UVAHIK_clean_linker_0, # of connection points: 2
#     Edge 43, Type (0, 0), BuildingBlock: UVAHIK_clean_linker_0, # of connection points: 2
#     Edge 44, Type (0, 0), BuildingBlock: UVAHIK_clean_linker_0, # of connection points: 2
#     Edge 45, Type (0, 0), BuildingBlock: UVAHIK_clean_linker_0, # of connection points: 2
#     Edge 46, Type (0, 0), BuildingBlock: UVAHIK_clean_linker_0, # of connection points: 2
#     Edge 47, Type (0, 0), BuildingBlock: UVAHIK_clean_linker_0, # of connection points: 2
#     Edge 48, Type (0, 0), BuildingBlock: UVAHIK_clean_linker_0, # of connection points: 2
#     Edge 49, Type (0, 0), BuildingBlock: UVAHIK_clean_linker_0, # of connection points: 2
#     Edge 50, Type (0, 0), BuildingBlock: UVAHIK_clean_linker_0, # of connection points: 2
#     Edge 51, Type (0, 0), BuildingBlock: UVAHIK_clean_linker_0, # of connection points: 2
#     Edge 52, Type (0, 0), BuildingBlock: UVAHIK_clean_linker_0, # of connection points: 2
#     Edge 53, Type (0, 0), BuildingBlock: UVAHIK_clean_linker_0, # of connection points: 2
#     Edge 54, Type (0, 0), BuildingBlock: UVAHIK_clean_linker_0, # of connection points: 2
#     Edge 55, Type (0, 0), BuildingBlock: UVAHIK_clean_linker_0, # of connection points: 2
#     Edge 56, Type (0, 0), BuildingBlock: UVAHIK_clean_linker_0, # of connection points: 2
#     Edge 57, Type (0, 0), BuildingBlock: UVAHIK_clean_linker_0, # of connection points: 2
#     Edge 58, Type (0, 0), BuildingBlock: UVAHIK_clean_linker_0, # of connection points: 2
#     Edge 59, Type (0, 0), BuildingBlock: UVAHIK_clean_linker_0, # of connection points: 2
#     Edge 60, Type (0, 0), BuildingBlock: UVAHIK_clean_linker_0, # of connection points: 2
#     Edge 61, Type (0, 0), BuildingBlock: UVAHIK_clean_linker_0, # of connection points: 2
#     Edge 62, Type (0, 0), BuildingBlock: UVAHIK_clean_linker_0, # of connection points: 2
#     Edge 63, Type (0, 0), BuildingBlock: UVAHIK_clean_linker_0, # of connection points: 2
# Relax obj value: 0.339
# Max RMSD: 0.260
# Mean RMSD: 0.260
data_MOF--net-whr--node1-IZENUY_clean_sbu_0--edge1-UVAHIK_clean_linker_0
_symmetry_space_group_name_H-M    P1
_symmetry_Int_Tables_number       1
_symmetry_cell_setting            triclinic
loop_
_symmetry_equiv_pos_as_xyz
'x, y, z'
_cell_length_a     61.272115
_cell_length_b     61.271372
_cell_length_c     36.191721
_cell_angle_alpha  90.054999
_cell_angle_beta   89.988955
_cell_angle_gamma 90.035769
loop_
_atom_site_label
_atom_site_type_symbol
_atom_site_fract_x
_atom_site_fract_y
_atom_site_fract_z
_atom_type_partial_charge
Fe0 Fe 0.19747 0.06498 0.09168 0.0
Fe1 Fe 0.23987 0.04745 0.0571 0.0
O2 O 0.22039 0.06869 0.06249 0.0
Fe3 Fe 0.22386 0.09364 0.03856 0.0
O4 O 0.19461 0.09921 0.03323 0.0
O5 O 0.17831 0.06984 0.05427 0.0
O6 O 0.19469 0.03567 0.08218 0.0
C7 C 0.2018 0.02395 0.05598 0.0
C8 C 0.21041 0.10852 0.10601 0.0
O9 O 0.21915 0.02896 0.03912 0.0
C10 C 0.2668 0.08289 0.06066 0.0
O11 O 0.21478 0.06 0.13133 0.0
O12 O 0.23665 0.03663 0.1041 0.0
O13 O 0.22512 0.109 0.08164 0.0
O14 O 0.19615 0.09358 0.10641 0.0
C15 C 0.23588 0.06462 0.985 0.0
O16 O 0.26203 0.06454 0.07437 0.0
O17 O 0.25366 0.09283 0.03969 0.0
C18 C 0.22873 0.04493 0.13319 0.0
O19 O 0.24656 0.05429 0.00921 0.0
O20 O 0.2229 0.07974 0.99405 0.0
C21 C 0.17787 0.08718 0.03549 0.0
Fe22 Fe 0.0437 0.76533 0.94367 0.0
Fe23 Fe 0.08976 0.78252 0.96288 0.0
O24 O 0.06517 0.78442 0.93731 0.0
Fe25 Fe 0.06214 0.80557 0.90462 0.0
O26 O 0.03943 0.81697 0.93003 0.0
O27 O 0.02187 0.7857 0.93588 0.0
O28 O 0.04159 0.77194 0.99184 0.0
C29 C 0.0568 0.77083 0.01506 0.0
C30 C 0.04147 0.77026 0.86911 0.0
O31 O 0.07666 0.77199 0.00532 0.0
C32 C 0.10354 0.79223 0.89002 0.0
O33 O 0.06185 0.74192 0.95348 0.0
O34 O 0.09486 0.75535 0.9457 0.0
O35 O 0.04388 0.79049 0.87414 0.0
O36 O 0.04397 0.75705 0.89539 0.0
C37 C 0.08601 0.82661 0.96169 0.0
O38 O 0.10723 0.79233 0.92457 0.0
O39 O 0.08449 0.79486 0.87769 0.0
C40 C 0.08216 0.73927 0.94827 0.0
O41 O 0.0866 0.80987 0.98187 0.0
O42 O 0.08005 0.82505 0.92835 0.0
C43 C 0.02221 0.80647 0.93739 0.0
Fe44 Fe 0.77984 0.91419 0.04074 0.0
Fe45 Fe 0.8054 0.9432 0.09393 0.0
O46 O 0.78288 0.93937 0.06425 0.0
Fe47 Fe 0.76368 0.96076 0.05865 0.0
O48 O 0.7684 0.9617 0.0097 0.0
O49 O 0.76788 0.92635 0.9986 0.0
O50 O 0.80633 0.91668 0.01843 0.0
C51 C 0.82396 0.91818 0.03617 0.0
C52 C 0.73724 0.92229 0.0589 0.0
O53 O 0.82379 0.92459 0.06936 0.0
C54 C 0.77188 0.96563 0.13197 0.0
O55 O 0.7911 0.89772 0.07914 0.0
O56 O 0.79585 0.92167 0.12391 0.0
O57 O 0.73982 0.9425 0.05249 0.0
O58 O 0.75337 0.90967 0.0612 0.0
C59 C 0.80503 0.98203 0.05779 0.0
O60 O 0.79179 0.96258 0.12461 0.0
O61 O 0.7575 0.96164 0.10794 0.0
C62 C 0.79268 0.90231 0.1133 0.0
O63 O 0.81572 0.96495 0.06511 0.0
O64 O 0.78444 0.98267 0.06258 0.0
C65 C 0.76684 0.94597 0.98747 0.0
Fe66 Fe 0.93999 0.20109 0.90932 0.0
Fe67 Fe 0.95825 0.24226 0.94686 0.0
O68 O 0.93652 0.22358 0.9395 0.0
Fe69 Fe 0.91132 0.22729 0.96264 0.0
O70 O 0.90477 0.19818 0.96586 0.0
O71 O 0.93412 0.1815 0.94577 0.0
O72 O 0.969 0.19727 0.91966 0.0
C73 C 0.98051 0.20337 0.94681 0.0
C74 C 0.89701 0.21543 0.89405 0.0
O75 O 0.97596 0.22068 0.96417 0.0
C76 C 0.92392 0.27053 0.94471 0.0
O77 O 0.94604 0.21893 0.87068 0.0
O78 O 0.96954 0.23975 0.90008 0.0
O79 O 0.89657 0.22982 0.91906 0.0
O80 O 0.9116 0.20085 0.89356 0.0
C81 C 0.93988 0.23727 0.018 0.0
O82 O 0.94202 0.2653 0.93051 0.0
O83 O 0.91313 0.25707 0.96383 0.0
C84 C 0.96138 0.23267 0.87026 0.0
O85 O 0.951 0.24806 0.99491 0.0
O86 O 0.92451 0.22495 0.00757 0.0
C87 C 0.91653 0.18126 0.96392 0.0
Fe88 Fe 0.80722 0.06079 0.59248 0.0
Fe89 Fe 0.76437 0.04427 0.55951 0.0
O90 O 0.78418 0.06525 0.5642 0.0
Fe91 Fe 0.78107 0.09053 0.54104 0.0
O92 O 0.80701 0.08789 0.51725 0.0
O93 O 0.8257 0.07844 0.56628 0.0
O94 O 0.81612 0.03846 0.56346 0.0
C95 C 0.80479 0.02162 0.55756 0.0
C96 C 0.79648 0.10233 0.61263 0.0
O97 O 0.78434 0.02175 0.56339 0.0
C98 C 0.73867 0.08307 0.56063 0.0
O99 O 0.79334 0.04226 0.6244 0.0
O100 O 0.75881 0.04396 0.6089 0.0
O101 O 0.79333 0.1069 0.57877 0.0
O102 O 0.79943 0.08286 0.62281 0.0
C103 C 0.767 0.05875 0.48822 0.0
O104 O 0.74093 0.06292 0.55368 0.0
O105 O 0.75505 0.09538 0.563 0.0
C106 C 0.7734 0.03983 0.63249 0.0
O107 O 0.76863 0.04301 0.51042 0.0
O108 O 0.76822 0.0784 0.49942 0.0
C109 C 0.82502 0.08534 0.53343 0.0
Fe110 Fe 0.06411 0.19557 0.40805 0.0
Fe111 Fe 0.04526 0.2374 0.4406 0.0
O112 O 0.06712 0.21859 0.43691 0.0
Fe113 Fe 0.0917 0.22264 0.46181 0.0
O114 O 0.08971 0.19639 0.48458 0.0
O115 O 0.08205 0.17764 0.43473 0.0
O116 O 0.0416 0.18552 0.43565 0.0
C117 C 0.02418 0.19614 0.44038 0.0
C118 C 0.10541 0.20858 0.3904 0.0
O119 O 0.02367 0.21658 0.4345 0.0
C120 C 0.08285 0.26489 0.44334 0.0
O121 O 0.04563 0.20892 0.37547 0.0
O122 O 0.04598 0.24344 0.39137 0.0
O123 O 0.10937 0.21163 0.42455 0.0
O124 O 0.08631 0.20457 0.37926 0.0
C125 C 0.05799 0.23362 0.51278 0.0
O126 O 0.06268 0.26159 0.44876 0.0
O127 O 0.09592 0.24913 0.44115 0.0
C128 C 0.04254 0.22878 0.36752 0.0
O129 O 0.043 0.23226 0.48914 0.0
O130 O 0.07797 0.23428 0.50314 0.0
C131 C 0.08825 0.17841 0.46796 0.0
Fe132 Fe 0.19639 0.93971 0.59618 0.0
Fe133 Fe 0.23838 0.95806 0.56307 0.0
O134 O 0.21904 0.93659 0.56656 0.0
Fe135 Fe 0.22218 0.9122 0.54076 0.0
O136 O 0.19573 0.91502 0.51871 0.0
O137 O 0.17782 0.92234 0.56956 0.0
O138 O 0.18655 0.96264 0.56945 0.0
C139 C 0.19753 0.97984 0.56464 0.0
C140 C 0.20876 0.89804 0.61199 0.0
O141 O 0.21803 0.97996 0.56999 0.0
C142 C 0.26476 0.91984 0.55932 0.0
O143 O 0.21035 0.95769 0.62882 0.0
O144 O 0.24473 0.95694 0.61225 0.0
O145 O 0.21105 0.8945 0.57758 0.0
O146 O 0.20533 0.91705 0.62412 0.0
C147 C 0.23339 0.94599 0.4906 0.0
O148 O 0.26211 0.94013 0.55424 0.0
O149 O 0.24865 0.90716 0.56074 0.0
C150 C 0.23029 0.96054 0.63641 0.0
O151 O 0.23299 0.96084 0.51463 0.0
O152 O 0.2338 0.92596 0.49967 0.0
C153 C 0.178 0.91654 0.53607 0.0
Fe154 Fe 0.94025 0.80361 0.40722 0.0
Fe155 Fe 0.95918 0.763 0.4441 0.0
O156 O 0.9372 0.78146 0.43784 0.0
Fe157 Fe 0.91234 0.77781 0.46214 0.0
O158 O 0.91402 0.80455 0.48356 0.0
O159 O 0.92234 0.82221 0.43274 0.0
O160 O 0.96269 0.81452 0.43405 0.0
C161 C 0.98009 0.80418 0.44026 0.0
C162 C 0.8989 0.79061 0.39015 0.0
O163 O 0.98074 0.7836 0.4365 0.0
C164 C 0.92177 0.73539 0.44664 0.0
O165 O 0.9586 0.78916 0.37576 0.0
O166 O 0.95912 0.75526 0.3956 0.0
O167 O 0.89499 0.78824 0.42437 0.0
O168 O 0.91805 0.79394 0.37876 0.0
C169 C 0.94517 0.76841 0.51506 0.0
O170 O 0.94171 0.73904 0.45369 0.0
O171 O 0.90863 0.75095 0.44243 0.0
C172 C 0.96132 0.76898 0.36987 0.0
O173 O 0.96068 0.76986 0.49236 0.0
O174 O 0.92551 0.76683 0.50421 0.0
C175 C 0.91573 0.82216 0.46583 0.0
Fe176 Fe 0.74025 0.54232 0.551 0.0
Fe177 Fe 0.72392 0.58917 0.53624 0.0
O178 O 0.72104 0.56352 0.55838 0.0
Fe179 Fe 0.69883 0.55899 0.58864 0.0
O180 O 0.68836 0.53745 0.5594 0.0
O181 O 0.71981 0.52022 0.55496 0.0
O182 O 0.73481 0.54203 0.50229 0.0
C183 C 0.73579 0.55815 0.48083 0.0
C184 C 0.73311 0.53635 0.62409 0.0
O185 O 0.73498 0.57763 0.49283 0.0
C186 C 0.71158 0.5997 0.60987 0.0
O187 O 0.76387 0.56056 0.54442 0.0
O188 O 0.75083 0.59328 0.55556 0.0
O189 O 0.71306 0.53928 0.61782 0.0
O190 O 0.74716 0.54097 0.59991 0.0
C191 C 0.67971 0.58515 0.53288 0.0
O192 O 0.7133 0.60495 0.57601 0.0
O193 O 0.70844 0.58015 0.61937 0.0
C194 C 0.7668 0.5806 0.55148 0.0
O195 O 0.69719 0.58731 0.51502 0.0
O196 O 0.67995 0.57774 0.56545 0.0
C197 C 0.69914 0.52052 0.55147 0.0
Fe198 Fe 0.54306 0.26186 0.44099 0.0
Fe199 Fe 0.58957 0.27853 0.45708 0.0
O200 O 0.56453 0.28071 0.43301 0.0
Fe201 Fe 0.56083 0.30194 0.40082 0.0
O202 O 0.53857 0.31317 0.42774 0.0
O203 O 0.52106 0.28196 0.43297 0.0
O204 O 0.54178 0.26961 0.4889 0.0
C205 C 0.55744 0.26913 0.51139 0.0
C206 C 0.54006 0.2662 0.36649 0.0
O207 O 0.57708 0.26816 0.50025 0.0
C208 C 0.6021 0.2891 0.38366 0.0
O209 O 0.56127 0.23852 0.45137 0.0
O210 O 0.59398 0.25138 0.43929 0.0
O211 O 0.54226 0.28652 0.37125 0.0
O212 O 0.54272 0.25305 0.39292 0.0
C213 C 0.5855 0.32272 0.45704 0.0
O214 O 0.60639 0.28844 0.41799 0.0
O215 O 0.5828 0.29165 0.37244 0.0
C216 C 0.58133 0.23546 0.44425 0.0
O217 O 0.58703 0.30576 0.47652 0.0
O218 O 0.57894 0.32146 0.42399 0.0
C219 C 0.52148 0.30264 0.43557 0.0
Fe220 Fe 0.26402 0.45936 0.54907 0.0
Fe221 Fe 0.27918 0.41214 0.53562 0.0
O222 O 0.28247 0.43774 0.55779 0.0
Fe223 Fe 0.30427 0.44184 0.58893 0.0
O224 O 0.31559 0.46326 0.56038 0.0
O225 O 0.28468 0.48114 0.55471 0.0
O226 O 0.27117 0.45935 0.50088 0.0
C227 C 0.2701 0.44317 0.47951 0.0
C228 C 0.26956 0.46505 0.62275 0.0
O229 O 0.26861 0.42385 0.49195 0.0
C230 C 0.29084 0.40121 0.6093 0.0
O231 O 0.24013 0.44153 0.54064 0.0
O232 O 0.25209 0.40881 0.55458 0.0
O233 O 0.28971 0.46164 0.61781 0.0
O234 O 0.25595 0.46088 0.59751 0.0
C235 C 0.32352 0.41544 0.53333 0.0
O236 O 0.28923 0.39614 0.57537 0.0
O237 O 0.29399 0.42071 0.61913 0.0
C238 C 0.2365 0.42172 0.54877 0.0
O239 O 0.30614 0.4134 0.51507 0.0
O240 O 0.32314 0.42289 0.56594 0.0
C241 C 0.30535 0.48041 0.55201 0.0
Fe242 Fe 0.46077 0.74016 0.44418 0.0
Fe243 Fe 0.41429 0.72317 0.459 0.0
O244 O 0.43944 0.72128 0.43517 0.0
Fe245 Fe 0.44341 0.70034 0.40239 0.0
O246 O 0.46574 0.68912 0.429 0.0
O247 O 0.48297 0.72036 0.43573 0.0
O248 O 0.46183 0.73185 0.4918 0.0
C249 C 0.44604 0.73214 0.51403 0.0
C250 C 0.46422 0.73672 0.36959 0.0
O251 O 0.4265 0.73336 0.50257 0.0
C252 C 0.40195 0.71247 0.38529 0.0
O253 O 0.44233 0.7633 0.455 0.0
O254 O 0.40981 0.7504 0.44168 0.0
O255 O 0.46182 0.71631 0.37311 0.0
O256 O 0.46131 0.74946 0.39655 0.0
C257 C 0.41883 0.67896 0.45821 0.0
O258 O 0.39768 0.71334 0.41963 0.0
O259 O 0.42134 0.71047 0.37418 0.0
C260 C 0.42234 0.76634 0.44731 0.0
O261 O 0.41694 0.69585 0.47787 0.0
O262 O 0.42556 0.6804 0.42524 0.0
C263 C 0.48269 0.69967 0.43747 0.0
Fe264 Fe 0.30538 0.56052 0.08669 0.0
Fe265 Fe 0.26323 0.54328 0.05173 0.0
O266 O 0.28292 0.56442 0.05684 0.0
Fe267 Fe 0.28025 0.58949 0.03279 0.0
O268 O 0.30658 0.58655 0.0104 0.0
O269 O 0.32429 0.57804 0.06093 0.0
O270 O 0.31506 0.53792 0.05927 0.0
C271 C 0.30402 0.52094 0.05288 0.0
C272 C 0.29385 0.60207 0.10471 0.0
O273 O 0.28337 0.52097 0.05656 0.0
C274 C 0.23757 0.5821 0.0515 0.0
O275 O 0.29112 0.54231 0.11842 0.0
O276 O 0.25689 0.54304 0.10089 0.0
O277 O 0.29193 0.60629 0.07051 0.0
O278 O 0.29661 0.58278 0.11576 0.0
C279 C 0.26665 0.55734 0.98033 0.0
O280 O 0.23981 0.56188 0.04502 0.0
O281 O 0.2539 0.59452 0.05341 0.0
C282 C 0.27109 0.53992 0.12553 0.0
O283 O 0.26791 0.54172 0.00277 0.0
O284 O 0.26806 0.57705 0.99099 0.0
C285 C 0.32427 0.5845 0.02777 0.0
Fe286 Fe 0.5634 0.69744 0.90512 0.0
Fe287 Fe 0.54487 0.73801 0.94294 0.0
O288 O 0.56642 0.71898 0.93706 0.0
Fe289 Fe 0.59085 0.72122 0.9629 0.0
O290 O 0.58776 0.69406 0.98258 0.0
O291 O 0.58103 0.67816 0.92966 0.0
O292 O 0.54055 0.68648 0.93089 0.0
C293 C 0.52331 0.6971 0.93736 0.0
C294 C 0.60509 0.70983 0.89047 0.0
O295 O 0.523 0.71778 0.93438 0.0
C296 C 0.58326 0.7643 0.94827 0.0
O297 O 0.54544 0.71246 0.87399 0.0
O298 O 0.54555 0.74615 0.89456 0.0
O299 O 0.60851 0.71104 0.92508 0.0
O300 O 0.58601 0.70747 0.87801 0.0
C301 C 0.55746 0.73181 0.01468 0.0
O302 O 0.56296 0.76149 0.95351 0.0
O303 O 0.59592 0.74824 0.9451 0.0
C304 C 0.54312 0.73268 0.86848 0.0
O305 O 0.54244 0.73107 0.991 0.0
O306 O 0.57739 0.73198 0.005 0.0
C307 C 0.5871 0.67706 0.96296 0.0
Fe308 Fe 0.69699 0.43886 0.09003 0.0
Fe309 Fe 0.73932 0.45421 0.05193 0.0
O310 O 0.71863 0.43414 0.05835 0.0
Fe311 Fe 0.71956 0.40947 0.03261 0.0
O312 O 0.69005 0.40588 0.02965 0.0
O313 O 0.6761 0.43535 0.05479 0.0
O314 O 0.69544 0.4683 0.08135 0.0
C315 C 0.70267 0.47998 0.05525 0.0
C316 C 0.70801 0.3945 0.10133 0.0
O317 O 0.71932 0.47432 0.03703 0.0
C318 C 0.76398 0.41707 0.05046 0.0
O319 O 0.71576 0.44266 0.12805 0.0
O320 O 0.73856 0.46452 0.09958 0.0
O321 O 0.721 0.39301 0.07436 0.0
O322 O 0.69495 0.41038 0.1045 0.0
C323 C 0.73148 0.43896 0.97955 0.0
O324 O 0.76094 0.43539 0.06578 0.0
O325 O 0.74928 0.40832 0.03092 0.0
C326 C 0.73057 0.45689 0.1291 0.0
O327 O 0.74376 0.44792 0.00317 0.0
O328 O 0.71813 0.42427 0.98904 0.0
C329 C 0.67428 0.41884 0.0342 0.0
Fe330 Fe 0.45859 0.26232 0.94116 0.0
Fe331 Fe 0.41149 0.27684 0.95788 0.0
O332 O 0.43626 0.28014 0.93328 0.0
Fe333 Fe 0.43871 0.30141 0.90075 0.0
O334 O 0.46078 0.31375 0.92653 0.0
O335 O 0.4796 0.28343 0.93318 0.0
O336 O 0.45965 0.27014 0.98905 0.0
C337 C 0.44414 0.26873 0.01169 0.0
C338 C 0.46117 0.2666 0.86642 0.0
O339 O 0.42457 0.26682 0.0007 0.0
C340 C 0.39765 0.28748 0.88504 0.0
O341 O 0.44141 0.23819 0.95161 0.0
O342 O 0.40811 0.24957 0.9399 0.0
O343 O 0.45757 0.28675 0.8707 0.0
O344 O 0.45933 0.25348 0.89311 0.0
C345 C 0.41407 0.32117 0.95803 0.0
O346 O 0.39396 0.28624 0.9195 0.0
O347 O 0.4168 0.29022 0.87317 0.0
C348 C 0.42145 0.23423 0.94485 0.0
O349 O 0.41314 0.30411 0.97743 0.0
O350 O 0.42019 0.32018 0.92468 0.0
C351 C 0.47827 0.30411 0.93492 0.0
C352 C 0.22406 0.13238 0.15714 0.0
C353 C 0.20767 0.1269 0.13167 0.0
C354 C 0.21969 0.14731 0.18561 0.0
C355 C 0.182 0.19067 0.21553 0.0
H356 H 0.18415 0.16413 0.31268 0.0
C357 C 0.11846 0.20845 0.32527 0.0
C358 C 0.12336 0.20699 0.36311 0.0
C359 C 0.13439 0.20433 0.29872 0.0
C360 C 0.18396 0.17216 0.28604 0.0
H361 H 0.17448 0.13324 0.11435 0.0
H362 H 0.16711 0.15986 0.16297 0.0
H363 H 0.2029 0.14671 0.26097 0.0
H364 H 0.1492 0.20121 0.40279 0.0
H365 H 0.17728 0.19394 0.35602 0.0
H366 H 0.16244 0.21568 0.24005 0.0
C367 C 0.18321 0.15262 0.16135 0.0
C368 C 0.19469 0.16213 0.2564 0.0
C369 C 0.18737 0.13737 0.13365 0.0
C370 C 0.14493 0.20241 0.37382 0.0
C371 C 0.16096 0.19813 0.34706 0.0
C372 C 0.17151 0.20082 0.24518 0.0
C373 C 0.19909 0.15732 0.18819 0.0
C374 C 0.19292 0.17077 0.22059 0.0
C375 C 0.15572 0.19862 0.30916 0.0
C376 C 0.1714 0.19108 0.28039 0.0
H377 H 0.23975 0.12425 0.15623 0.0
H378 H 0.23214 0.15061 0.20611 0.0
H379 H 0.1806 0.19776 0.18823 0.0
H380 H 0.10205 0.21213 0.31603 0.0
H381 H 0.12958 0.20454 0.26993 0.0
C382 C 0.14006 0.80603 0.87031 0.0
C383 C 0.12164 0.79307 0.8634 0.0
C384 C 0.15496 0.81035 0.84195 0.0
C385 C 0.15479 0.81293 0.74006 0.0
H386 H 0.21428 0.83259 0.75497 0.0
C387 C 0.20006 0.8589 0.62583 0.0
C388 C 0.20676 0.87962 0.63805 0.0
C389 C 0.19485 0.84261 0.65142 0.0
C390 C 0.19776 0.82692 0.75033 0.0
H391 H 0.10532 0.77269 0.82308 0.0
H392 H 0.1319 0.77913 0.77422 0.0
H393 H 0.19541 0.81313 0.80452 0.0
H394 H 0.2151 0.89896 0.68625 0.0
H395 H 0.20615 0.87056 0.73074 0.0
H396 H 0.15694 0.82716 0.68633 0.0
C397 C 0.13445 0.78684 0.8008 0.0
C398 C 0.18688 0.81591 0.77876 0.0
C399 C 0.11931 0.78298 0.82883 0.0
C400 C 0.20974 0.88321 0.67606 0.0
C401 C 0.20482 0.86687 0.70154 0.0
C402 C 0.16574 0.82364 0.71159 0.0
C403 C 0.15189 0.80143 0.80639 0.0
C404 C 0.16497 0.80946 0.77444 0.0
C405 C 0.1966 0.84668 0.68955 0.0
C406 C 0.18705 0.83141 0.71686 0.0
H407 H 0.14209 0.81409 0.89675 0.0
H408 H 0.16801 0.82183 0.84737 0.0
H409 H 0.13784 0.80866 0.73567 0.0
H410 H 0.19769 0.85566 0.59668 0.0
H411 H 0.18864 0.82712 0.64148 0.0
C412 C 0.86038 0.80126 0.37577 0.0
C413 C 0.88077 0.79355 0.36374 0.0
C414 C 0.84468 0.80789 0.35008 0.0
C415 C 0.82887 0.80727 0.25149 0.0
H416 H 0.81494 0.8682 0.26778 0.0
C417 C 0.80654 0.86578 0.13291 0.0
C418 C 0.79471 0.88479 0.1409 0.0
C419 C 0.81166 0.85103 0.16109 0.0
C420 C 0.818 0.85104 0.26295 0.0
H421 H 0.90004 0.78493 0.31561 0.0
H422 H 0.87251 0.79621 0.27086 0.0
H423 H 0.83292 0.84763 0.31601 0.0
H424 H 0.77723 0.90246 0.18341 0.0
H425 H 0.78493 0.87617 0.2321 0.0
H426 H 0.81415 0.81071 0.19819 0.0
C427 C 0.8687 0.79728 0.30004 0.0
C428 C 0.82843 0.83925 0.29075 0.0
C429 C 0.88451 0.79097 0.32566 0.0
C430 C 0.78666 0.88802 0.17676 0.0
C431 C 0.79126 0.87303 0.20468 0.0
C432 C 0.81806 0.81898 0.22379 0.0
C433 C 0.84897 0.80654 0.31199 0.0
C434 C 0.83451 0.81745 0.28493 0.0
C435 C 0.80463 0.8548 0.19764 0.0
C436 C 0.81306 0.84123 0.22874 0.0
H437 H 0.85704 0.80343 0.40494 0.0
H438 H 0.82953 0.8149 0.35996 0.0
H439 H 0.8333 0.79042 0.24644 0.0
H440 H 0.81303 0.86302 0.10545 0.0
H441 H 0.82217 0.83739 0.15447 0.0
C442 C 0.79915 0.11493 0.67815 0.0
C443 C 0.79953 0.11995 0.64026 0.0
C444 C 0.80401 0.13082 0.70453 0.0
C445 C 0.83612 0.18055 0.71584 0.0
H446 H 0.80899 0.18072 0.81267 0.0
C447 C 0.87551 0.22622 0.83838 0.0
C448 C 0.87835 0.21255 0.86906 0.0
C449 C 0.86099 0.22027 0.81014 0.0
C450 C 0.81667 0.18098 0.78572 0.0
H451 H 0.80452 0.14592 0.60047 0.0
H452 H 0.81322 0.17379 0.64681 0.0
H453 H 0.7923 0.16004 0.76239 0.0
H454 H 0.86795 0.18267 0.89547 0.0
H455 H 0.84244 0.17243 0.84686 0.0
H456 H 0.86104 0.20065 0.73961 0.0
C457 C 0.8092 0.15744 0.65594 0.0
C458 C 0.80714 0.16911 0.75693 0.0
C459 C 0.80412 0.14152 0.62944 0.0
C460 C 0.8657 0.19359 0.87223 0.0
C461 C 0.85108 0.18778 0.84438 0.0
C462 C 0.84567 0.19243 0.74467 0.0
C463 C 0.8095 0.15217 0.69378 0.0
C464 C 0.81719 0.16808 0.72204 0.0
C465 C 0.84904 0.20066 0.81242 0.0
C466 C 0.83649 0.19211 0.7803 0.0
H467 H 0.79556 0.09852 0.68749 0.0
H468 H 0.80437 0.12609 0.73335 0.0
H469 H 0.84437 0.17999 0.68939 0.0
H470 H 0.88543 0.24074 0.83522 0.0
H471 H 0.85971 0.23057 0.78593 0.0
C472 C 0.62048 0.71044 0.82664 0.0
C473 C 0.62348 0.70663 0.86459 0.0
C474 C 0.63624 0.70384 0.8011 0.0
C475 C 0.67461 0.65996 0.78998 0.0
H476 H 0.69118 0.68997 0.69997 0.0
C477 C 0.69824 0.63614 0.63133 0.0
C478 C 0.70953 0.61669 0.63853 0.0
C479 C 0.69299 0.65038 0.66025 0.0
C480 C 0.68661 0.68129 0.72484 0.0
H481 H 0.64591 0.69414 0.90578 0.0
H482 H 0.67336 0.68224 0.86094 0.0
H483 H 0.67222 0.70991 0.74892 0.0
H484 H 0.72588 0.59771 0.68065 0.0
H485 H 0.71789 0.62305 0.73072 0.0
H486 H 0.68738 0.63106 0.76552 0.0
C487 C 0.65881 0.69042 0.85107 0.0
C488 C 0.6759 0.69278 0.75296 0.0
C489 C 0.64317 0.69732 0.87671 0.0
C490 C 0.71689 0.6125 0.67453 0.0
C491 C 0.71212 0.62696 0.70324 0.0
C492 C 0.68497 0.64842 0.76176 0.0
C493 C 0.65519 0.69304 0.81297 0.0
C494 C 0.66945 0.68211 0.78552 0.0
C495 C 0.69931 0.64564 0.69684 0.0
C496 C 0.69076 0.65879 0.72844 0.0
H497 H 0.6055 0.71769 0.81653 0.0
H498 H 0.63292 0.70593 0.77192 0.0
H499 H 0.66949 0.65119 0.81449 0.0
H500 H 0.69228 0.63966 0.60379 0.0
H501 H 0.68293 0.66443 0.6541 0.0
C502 C 0.638 0.30423 0.36336 0.0
C503 C 0.61979 0.29101 0.35628 0.0
C504 C 0.65262 0.30933 0.33493 0.0
C505 C 0.65347 0.31174 0.23217 0.0
H506 H 0.71208 0.33328 0.24953 0.0
C507 C 0.7027 0.35526 0.11824 0.0
C508 C 0.7065 0.37696 0.12889 0.0
C509 C 0.69699 0.33964 0.14483 0.0
C510 C 0.69584 0.32701 0.24423 0.0
H511 H 0.60346 0.27121 0.31518 0.0
H512 H 0.62967 0.27877 0.26624 0.0
H513 H 0.69283 0.31397 0.29877 0.0
H514 H 0.70885 0.3992 0.17523 0.0
H515 H 0.69971 0.3718 0.22173 0.0
H516 H 0.65659 0.32493 0.17767 0.0
C517 C 0.63223 0.28621 0.29303 0.0
C518 C 0.68467 0.31616 0.27252 0.0
C519 C 0.61731 0.28164 0.32116 0.0
C520 C 0.70603 0.3825 0.1665 0.0
C521 C 0.70091 0.36683 0.19305 0.0
C522 C 0.66482 0.32214 0.20374 0.0
C523 C 0.6496 0.30088 0.29901 0.0
C524 C 0.66299 0.30906 0.26735 0.0
C525 C 0.69562 0.34545 0.18238 0.0
C526 C 0.68581 0.3305 0.20987 0.0
H527 H 0.64013 0.31181 0.39018 0.0
H528 H 0.66551 0.3209 0.3408 0.0
H529 H 0.63674 0.30699 0.22695 0.0
H530 H 0.70278 0.35074 0.0893 0.0
H531 H 0.69286 0.32326 0.13598 0.0
C532 C 0.35938 0.29921 0.87124 0.0
C533 C 0.37939 0.29067 0.85891 0.0
C534 C 0.34379 0.30638 0.84581 0.0
C535 C 0.32697 0.30611 0.74783 0.0
H536 H 0.3157 0.36762 0.76374 0.0
C537 C 0.30404 0.3645 0.62931 0.0
C538 C 0.29304 0.38399 0.63748 0.0
C539 C 0.3094 0.34988 0.65754 0.0
C540 C 0.31802 0.35033 0.75905 0.0
H541 H 0.39797 0.28117 0.8105 0.0
H542 H 0.37056 0.29337 0.76616 0.0
H543 H 0.33366 0.3466 0.81146 0.0
H544 H 0.27731 0.40268 0.6807 0.0
H545 H 0.28541 0.37666 0.72962 0.0
H546 H 0.31143 0.30982 0.69527 0.0
C547 C 0.36701 0.29467 0.79541 0.0
C548 C 0.32845 0.33828 0.78653 0.0
C549 C 0.38274 0.28781 0.82079 0.0
C550 C 0.28608 0.38787 0.67382 0.0
C551 C 0.29093 0.37301 0.70188 0.0
C552 C 0.31614 0.31809 0.72048 0.0
C553 C 0.34776 0.30479 0.80766 0.0
C554 C 0.33353 0.31622 0.78084 0.0
C555 C 0.30344 0.35424 0.69445 0.0
C556 C 0.31206 0.34055 0.72529 0.0
H557 H 0.35633 0.30164 0.90044 0.0
H558 H 0.32901 0.31404 0.85592 0.0
H559 H 0.33062 0.28906 0.74288 0.0
H560 H 0.30972 0.3612 0.6015 0.0
H561 H 0.31925 0.33581 0.65057 0.0
C562 C 0.28851 0.61701 0.16788 0.0
C563 C 0.29658 0.61975 0.13193 0.0
C564 C 0.29402 0.63177 0.19576 0.0
C565 C 0.3233 0.68448 0.21498 0.0
H566 H 0.3367 0.65523 0.30719 0.0
C567 C 0.38837 0.71244 0.32019 0.0
C568 C 0.38421 0.7094 0.35806 0.0
C569 C 0.37306 0.70601 0.29374 0.0
C570 C 0.33266 0.66379 0.28192 0.0
H571 H 0.31593 0.64047 0.09627 0.0
H572 H 0.32654 0.66575 0.14524 0.0
H573 H 0.31843 0.63529 0.2584 0.0
H574 H 0.36013 0.69856 0.39796 0.0
H575 H 0.33345 0.68704 0.35159 0.0
H576 H 0.33905 0.71262 0.2383 0.0
C577 C 0.31537 0.65264 0.15194 0.0
C578 C 0.32207 0.65237 0.25381 0.0
C579 C 0.30937 0.63812 0.12379 0.0
C580 C 0.36383 0.70109 0.36901 0.0
C581 C 0.34861 0.6944 0.34249 0.0
C582 C 0.33422 0.69585 0.24305 0.0
C583 C 0.30832 0.64925 0.18859 0.0
C584 C 0.3175 0.66241 0.21968 0.0
C585 C 0.35336 0.69621 0.30459 0.0
C586 C 0.33927 0.68549 0.27659 0.0
H587 H 0.27841 0.60306 0.17469 0.0
H588 H 0.28766 0.62897 0.22325 0.0
H589 H 0.31975 0.69291 0.1894 0.0
H590 H 0.40388 0.71895 0.31091 0.0
H591 H 0.37724 0.70748 0.26477 0.0
C592 C 0.17762 0.99298 0.07465 0.0
C593 C 0.19056 0.00313 0.04758 0.0
C594 C 0.16671 0.97346 0.06703 0.0
C595 C 0.16445 0.9276 0.9988 0.0
H596 H 0.1081 0.9171 0.0444 0.0
C597 C 0.10415 0.86215 0.9476 0.0
C598 C 0.09657 0.84714 0.97409 0.0
C599 C 0.11567 0.88075 0.9583 0.0
C600 C 0.12391 0.91976 0.03177 0.0
H601 H 0.20207 1.00086 0.99115 0.0
H602 H 0.18228 0.96731 0.97712 0.0
H603 H 0.12798 0.95059 0.05851 0.0
H604 H 0.0947 0.84027 0.03274 0.0
H605 H 0.11438 0.87345 0.05159 0.0
H606 H 0.15969 0.89712 0.97078 0.0
C607 C 0.18107 0.97397 0.00475 0.0
C608 C 0.13541 0.93891 0.03992 0.0
C609 C 0.19235 0.99332 0.01265 0.0
C610 C 0.10031 0.85152 0.01172 0.0
C611 C 0.11153 0.87046 0.02249 0.0
C612 C 0.15274 0.90868 0.99015 0.0
C613 C 0.16807 0.96374 0.03186 0.0
C614 C 0.15587 0.94316 0.0235 0.0
C615 C 0.1196 0.88504 0.99577 0.0
C616 C 0.13235 0.90461 0.00647 0.0
H617 H 0.17611 1.0 0.10202 0.0
H618 H 0.15736 0.96593 0.08897 0.0
H619 H 0.1803 0.92991 0.9862 0.0
H620 H 0.1017 0.85928 0.91835 0.0
H621 H 0.12155 0.89183 0.9372 0.0
C622 C 0.86376 0.90989 0.04181 0.0
C623 C 0.84452 0.90922 0.02065 0.0
C624 C 0.88285 0.90002 0.02914 0.0
C625 C 0.92422 0.88685 0.98998 0.0
H626 H 0.92006 0.83003 0.94331 0.0
C627 C 1.00082 0.84136 0.9386 0.0
C628 C 0.00167 0.81867 0.94416 0.0
C629 C 0.98149 0.85292 0.94475 0.0
C630 C 0.92153 0.84583 0.95653 0.0
H631 H 0.83054 0.89815 0.96886 0.0
H632 H 0.86414 0.88115 0.94636 0.0
H633 H 0.88684 0.84971 0.9596 0.0
H634 H 0.98281 0.79035 0.96071 0.0
H635 H 0.94925 0.81058 0.97236 0.0
H636 H 0.95881 0.88264 0.98847 0.0
C637 C 0.86426 0.88904 0.97315 0.0
C638 C 0.90245 0.85727 0.96538 0.0
C639 C 0.84504 0.89892 0.98591 0.0
C640 C 0.98271 0.8078 0.956 0.0
C641 C 0.9634 0.8194 0.96242 0.0
C642 C 0.94325 0.87539 0.98133 0.0
C643 C 0.88335 0.88928 0.99482 0.0
C644 C 0.90356 0.87782 0.98264 0.0
C645 C 0.96255 0.84213 0.95695 0.0
C646 C 0.94218 0.85463 0.96479 0.0
H647 H 0.86402 0.91765 0.06871 0.0
H648 H 0.89708 0.90027 0.04687 0.0
H649 H 0.92573 0.90277 0.00277 0.0
H650 H 0.01505 0.85026 0.92922 0.0
H651 H 0.9814 0.87033 0.93964 0.0
C652 C 0.8868 0.15997 0.99454 0.0
C653 C 0.90761 0.16037 0.97814 0.0
C654 C 0.87721 0.14029 0.00507 0.0
C655 C 0.87933 0.08108 0.98605 0.0
H656 H 0.84155 0.07816 0.07192 0.0
C657 C 0.83931 1.00094 0.03771 0.0
C658 C 0.81717 0.00212 0.04784 0.0
C659 C 0.85109 0.01988 0.0296 0.0
C660 C 0.85192 0.07878 0.04769 0.0
H661 H 0.93499 0.1403 0.96121 0.0
H662 H 0.91838 0.10582 0.9804 0.0
H663 H 0.86184 0.11154 0.05922 0.0
H664 H 0.79 0.02416 0.05694 0.0
H665 H 0.81066 0.05726 0.04297 0.0
H666 H 0.86946 0.04816 0.97485 0.0
C667 C 0.90931 0.1208 0.98437 0.0
C668 C 0.86356 0.09791 0.04037 0.0
C669 C 0.91891 0.14058 0.97362 0.0
C670 C 0.80702 0.02267 0.04927 0.0
C671 C 0.81889 0.04164 0.04151 0.0
C672 C 0.86781 0.06186 0.99358 0.0
C673 C 0.88821 0.12041 -0.00019 0.0
C674 C 0.8772 0.09943 0.00917 0.0
C675 C 0.84107 0.04045 0.03176 0.0
C676 C 0.85378 0.06061 0.02423 0.0
H677 H 0.87755 0.17486 0.99842 0.0
H678 H 0.86083 0.14066 0.0163 0.0
H679 H 0.88941 0.08173 0.96149 0.0
H680 H 0.84762 0.98537 0.03618 0.0
H681 H 0.86819 0.01845 0.02238 0.0
C682 C 0.01296 0.19551 0.98758 0.0
C683 C 1.00044 0.19071 0.95603 0.0
C684 C 0.03168 0.18328 0.9958 0.0
C685 C 0.07304 0.14805 0.9518 0.0
H686 H 0.08512 0.12866 0.05168 0.0
C687 C 0.15655 0.11358 0.99714 0.0
C688 C 0.15678 0.09582 0.02171 0.0
C689 C 0.13696 0.12381 0.98773 0.0
C690 C 0.08186 0.1338 0.02359 0.0
H691 H 0.99781 0.16914 0.90855 0.0
H692 H 0.03027 0.14805 0.92284 0.0
H693 H 0.05204 0.1497 0.039 0.0
H694 H 0.1364 0.07442 0.05472 0.0
H695 H 0.1021 0.09233 0.0382 0.0
H696 H 0.10281 0.13219 0.93633 0.0
C697 C 0.02577 0.16133 0.94109 0.0
C698 C 0.06306 0.14607 0.01643 0.0
C699 C 0.00706 0.1734 0.93303 0.0
C700 C 0.13681 0.08801 0.03563 0.0
C701 C 0.11718 0.0984 0.02647 0.0
C702 C 0.09189 0.13594 0.959 0.0
C703 C 0.03835 0.16613 0.97248 0.0
C704 C 0.05843 0.15333 0.98043 0.0
C705 C 0.11709 0.11663 0.00286 0.0
C706 C 0.09655 0.12869 0.99497 0.0
H707 H 0.0083 0.20867 0.00595 0.0
H708 H 0.04113 0.18746 0.02008 0.0
H709 H 0.07005 0.15355 0.92382 0.0
H710 H 0.17163 0.12 0.98587 0.0
H711 H 0.13748 0.13788 0.96966 0.0
C712 C 0.80612 0.98071 0.55574 0.0
C713 C 0.81601 1.00096 0.54835 0.0
C714 C 0.81729 0.96124 0.5486 0.0
C715 C 0.86007 0.9378 0.491 0.0
H716 H 0.86535 0.89372 0.56731 0.0
C717 C 0.91429 0.86279 0.46819 0.0
C718 C 0.90675 0.84259 0.48129 0.0
C719 C 0.90413 0.88215 0.47898 0.0
C720 C 0.8638 0.9057 0.54549 0.0
H721 H 0.84512 0.01667 0.52699 0.0
H722 H 0.86436 0.98265 0.51373 0.0
H723 H 0.84482 0.92711 0.5797 0.0
H724 H 0.88306 0.82681 0.51681 0.0
H725 H 0.86476 0.86054 0.53472 0.0
H726 H 0.87829 0.91638 0.45625 0.0
C727 C 0.84808 0.98188 0.52536 0.0
C728 C 0.85209 0.92484 0.55268 0.0
C729 C 0.8371 0.00133 0.53307 0.0
C730 C 0.88932 0.84218 0.50648 0.0
C731 C 0.87887 0.86156 0.51679 0.0
C732 C 0.87147 0.91857 0.4836 0.0
C733 C 0.83836 0.96166 0.53332 0.0
C734 C 0.85025 0.94111 0.52556 0.0
C735 C 0.88586 0.88179 0.50256 0.0
C736 C 0.87367 0.90229 0.51081 0.0
H737 H 0.78993 0.9799 0.56766 0.0
H738 H 0.80939 0.94584 0.55472 0.0
H739 H 0.85865 0.94998 0.46946 0.0
H740 H 0.92787 0.86359 0.44905 0.0
H741 H 0.91044 0.8974 0.46831 0.0
C742 C 0.84494 0.11152 0.49217 0.0
C743 C 0.84534 0.09378 0.5167 0.0
C744 C 0.86441 0.12151 0.48101 0.0
C745 C 0.92213 0.12699 0.51151 0.0
H746 H 0.92956 0.15525 0.41652 0.0
C747 C 0.00441 0.16285 0.46253 0.0
C748 C 0.00371 0.18418 0.4483 0.0
C749 C 0.98513 0.1514 0.46957 0.0
C750 C 0.92762 0.1475 0.44322 0.0
H751 H 0.86637 0.07157 0.54666 0.0
H752 H 0.90027 0.08821 0.52591 0.0
H753 H 0.89606 0.13495 0.42933 0.0
H754 H 0.98222 0.21014 0.43 0.0
H755 H 0.9485 0.18993 0.44188 0.0
H756 H 0.95389 0.13924 0.52501 0.0
C757 C 0.88501 0.09512 0.51645 0.0
C758 C 0.90842 0.13592 0.45064 0.0
C759 C 0.86557 0.08541 0.52809 0.0
C760 C 0.9833 0.19376 0.44111 0.0
C761 C 0.96401 0.18216 0.44763 0.0
C762 C 0.94141 0.13829 0.50387 0.0
C763 C 0.88471 0.11373 0.4937 0.0
C764 C 0.90538 0.12555 0.48496 0.0
C765 C 0.96475 0.1609 0.46204 0.0
C766 C 0.94432 0.14873 0.46974 0.0
H767 H 0.82956 0.1184 0.48314 0.0
H768 H 0.86345 0.13589 0.46374 0.0
H769 H 0.92026 0.11976 0.5386 0.0
H770 H 0.01987 0.15503 0.46843 0.0
H771 H 0.98615 0.13498 0.48052 0.0
C772 C 0.11316 0.15955 0.51259 0.0
C773 C 0.09692 0.15838 0.48523 0.0
C774 C 0.12323 0.14053 0.52543 0.0
C775 C 0.11737 0.08128 0.53368 0.0
H776 H 0.18036 0.07966 0.52373 0.0
C777 C 0.16499 1.00039 0.54179 0.0
C778 C 0.18597 1.00055 0.55737 0.0
C779 C 0.15388 0.01993 0.53537 0.0
C780 C 0.16283 0.07987 0.52742 0.0
H781 H 0.07766 0.13643 0.45134 0.0
H782 H 0.0949 0.1032 0.47448 0.0
H783 H 0.16077 0.1134 0.51099 0.0
H784 H 0.21168 0.02126 0.57894 0.0
H785 H 0.19206 0.05529 0.56908 0.0
H786 H 0.11928 0.04796 0.55069 0.0
C787 C 0.09997 0.11881 0.48565 0.0
C788 C 0.15162 0.09923 0.52 0.0
C789 C 0.0902 0.13781 0.47231 0.0
C790 C 0.1956 0.02064 0.56655 0.0
C791 C 0.18436 0.04017 0.56072 0.0
C792 C 0.12859 0.06201 0.5417 0.0
C793 C 0.11691 0.12003 0.51169 0.0
C794 C 0.12879 0.10003 0.52261 0.0
C795 C 0.16335 0.0401 0.54496 0.0
C796 C 0.15146 0.06094 0.53817 0.0
H797 H 0.11872 0.17518 0.52295 0.0
H798 H 0.13618 0.14185 0.54568 0.0
H799 H 0.09975 0.08156 0.53613 0.0
H800 H 0.15722 0.98515 0.53414 0.0
H801 H 0.13797 0.01918 0.52244 0.0
C802 C 0.15804 0.89097 0.49381 0.0
C803 C 0.15761 0.9081 0.51961 0.0
C804 C 0.13862 0.88094 0.48249 0.0
C805 C 0.081 0.87413 0.51346 0.0
H806 H 0.07388 0.84722 0.41721 0.0
C807 C 0.99926 0.8379 0.46209 0.0
C808 C 1.00034 0.8165 0.44818 0.0
C809 C 0.01834 0.84962 0.4695 0.0
C810 C 0.07573 0.85461 0.44423 0.0
H811 H 0.13657 0.92915 0.55189 0.0
H812 H 0.1027 0.91254 0.5308 0.0
H813 H 0.10706 0.86784 0.4308 0.0
H814 H 0.02229 0.7907 0.43071 0.0
H815 H 0.05567 0.81144 0.44302 0.0
H816 H 0.04938 0.86128 0.52638 0.0
C817 C 0.11797 0.90609 0.52044 0.0
C818 C 0.09477 0.86636 0.45214 0.0
C819 C 0.13738 0.9158 0.53228 0.0
C820 C 0.02092 0.80713 0.44155 0.0
C821 C 0.04001 0.81902 0.44834 0.0
C822 C 0.06186 0.86272 0.5053 0.0
C823 C 0.11832 0.88808 0.49624 0.0
C824 C 0.09773 0.87621 0.48697 0.0
C825 C 0.03889 0.84033 0.46254 0.0
C826 C 0.05909 0.85274 0.47072 0.0
H827 H 0.17343 0.88459 0.4838 0.0
H828 H 0.13967 0.86701 0.46416 0.0
H829 H 0.08279 0.88093 0.5409 0.0
H830 H 0.98365 0.84554 0.46757 0.0
H831 H 0.01705 0.86606 0.48032 0.0
C832 C 0.69868 0.48156 0.53016 0.0
C833 C 0.68733 0.50005 0.54282 0.0
C834 C 0.68756 0.46212 0.52268 0.0
C835 C 0.63731 0.43186 0.54423 0.0
H836 H 0.64879 0.40187 0.45185 0.0
C837 C 0.60331 0.34572 0.50632 0.0
C838 C 0.59499 0.34358 0.47026 0.0
C839 C 0.61404 0.36488 0.51716 0.0
C840 C 0.64539 0.41009 0.47773 0.0
H841 H 0.65535 0.51252 0.55775 0.0
H842 H 0.63602 0.47854 0.54485 0.0
H843 H 0.66895 0.43508 0.46686 0.0
H844 H 0.59079 0.3603 0.41781 0.0
H845 H 0.60952 0.39344 0.4367 0.0
H846 H 0.61363 0.40681 0.55492 0.0
C847 C 0.65354 0.47911 0.54085 0.0
C848 C 0.65706 0.42898 0.48645 0.0
C849 C 0.66461 0.49862 0.54795 0.0
C850 C 0.59706 0.36127 0.44574 0.0
C851 C 0.60793 0.38025 0.45644 0.0
C852 C 0.62579 0.41278 0.53568 0.0
C853 C 0.66488 0.46069 0.52807 0.0
C854 C 0.65301 0.44017 0.51962 0.0
C855 C 0.61683 0.38214 0.49202 0.0
C856 C 0.62955 0.40186 0.50214 0.0
H857 H 0.71618 0.48211 0.52593 0.0
H858 H 0.69673 0.44813 0.51305 0.0
H859 H 0.63399 0.44007 0.57014 0.0
H860 H 0.60194 0.33243 0.52591 0.0
H861 H 0.62078 0.36593 0.54477 0.0
C862 C 0.34371 0.38891 0.49312 0.0
C863 C 0.34408 0.40605 0.51892 0.0
C864 C 0.36308 0.37856 0.48248 0.0
C865 C 0.42077 0.37129 0.51339 0.0
H866 H 0.42753 0.34534 0.4163 0.0
C867 C 0.50236 0.33612 0.45848 0.0
C868 C 0.50124 0.31475 0.44439 0.0
C869 C 0.48329 0.34761 0.46695 0.0
C870 C 0.42579 0.35245 0.44356 0.0
H871 H 0.36507 0.42655 0.55234 0.0
H872 H 0.3989 0.40935 0.5325 0.0
H873 H 0.39444 0.36577 0.43083 0.0
H874 H 0.47927 0.28878 0.42776 0.0
H875 H 0.4459 0.30916 0.44174 0.0
H876 H 0.45252 0.35844 0.52547 0.0
C877 C 0.38367 0.40317 0.52153 0.0
C878 C 0.40678 0.36408 0.45203 0.0
C879 C 0.36427 0.41321 0.5327 0.0
C880 C 0.48065 0.30519 0.43868 0.0
C881 C 0.46157 0.31686 0.44646 0.0
C882 C 0.43992 0.36002 0.50465 0.0
C883 C 0.38334 0.38538 0.49686 0.0
C884 C 0.40392 0.37357 0.48719 0.0
C885 C 0.46273 0.33814 0.46083 0.0
C886 C 0.44254 0.35038 0.46976 0.0
H887 H 0.32838 0.38289 0.48224 0.0
H888 H 0.362 0.36476 0.4639 0.0
H889 H 0.41909 0.37784 0.54103 0.0
H890 H 0.51799 0.34388 0.46332 0.0
H891 H 0.48461 0.36403 0.47788 0.0
C892 C 0.34071 0.50079 0.54594 0.0
C893 C 0.31781 0.50053 0.54329 0.0
C894 C 0.35246 0.51986 0.53866 0.0
C895 C 0.34626 0.57997 0.53135 0.0
H896 H 0.40138 0.57606 0.47916 0.0
C897 C 0.40953 0.63963 0.44775 0.0
C898 C 0.4099 0.65785 0.47144 0.0
C899 C 0.39947 0.62022 0.45861 0.0
C900 C 0.38596 0.57748 0.4936 0.0
H901 H 0.28936 0.52013 0.53031 0.0
H902 H 0.3099 0.55327 0.51686 0.0
H903 H 0.38088 0.54296 0.4924 0.0
H904 H 0.40061 0.66957 0.52579 0.0
H905 H 0.38337 0.63548 0.54502 0.0
H906 H 0.35097 0.61459 0.53132 0.0
C907 C 0.31875 0.53884 0.52536 0.0
C908 C 0.37431 0.55845 0.50159 0.0
C909 C 0.30697 0.51978 0.53283 0.0
C910 C 0.40053 0.65591 0.50677 0.0
C911 C 0.3905 0.63641 0.51769 0.0
C912 C 0.35788 0.59904 0.52322 0.0
C913 C 0.34166 0.53915 0.5283 0.0
C914 C 0.35424 0.55944 0.52039 0.0
C915 C 0.3896 0.61841 0.49354 0.0
C916 C 0.37781 0.59805 0.50401 0.0
H917 H 0.34961 0.4863 0.55406 0.0
H918 H 0.37004 0.51954 0.54171 0.0
H919 H 0.33102 0.58135 0.54632 0.0
H920 H 0.41653 0.6405 0.42031 0.0
H921 H 0.39886 0.60684 0.43907 0.0
C922 C 0.50171 0.66613 0.45999 0.0
C923 C 0.5029 0.68756 0.44627 0.0
C924 C 0.52073 0.65456 0.46829 0.0
C925 C 0.578 0.64937 0.44441 0.0
H926 H 0.58484 0.62365 0.54152 0.0
C927 C 0.65975 0.61176 0.49265 0.0
C928 C 0.65924 0.59458 0.5183 0.0
C929 C 0.64049 0.62232 0.48222 0.0
C930 C 0.5831 0.63029 0.51398 0.0
H931 H 0.52492 0.71359 0.43016 0.0
H932 H 0.55825 0.69303 0.44381 0.0
H933 H 0.5516 0.64355 0.52668 0.0
H934 H 0.63808 0.57419 0.55159 0.0
H935 H 0.60441 0.59178 0.53208 0.0
H936 H 0.60907 0.63563 0.43105 0.0
C937 C 0.54255 0.68536 0.44839 0.0
C938 C 0.56408 0.64186 0.50566 0.0
C939 C 0.52351 0.69713 0.4408 0.0
C940 C 0.639 0.58754 0.53204 0.0
C941 C 0.6197 0.59781 0.52109 0.0
C942 C 0.59687 0.63745 0.45246 0.0
C943 C 0.54131 0.66401 0.46234 0.0
C944 C 0.56142 0.65161 0.4709 0.0
C945 C 0.62019 0.6157 0.49668 0.0
C946 C 0.59976 0.62783 0.48746 0.0
H947 H 0.48606 0.65838 0.46465 0.0
H948 H 0.51937 0.63808 0.47891 0.0
H949 H 0.57619 0.65657 0.41725 0.0
H950 H 0.67514 0.61767 0.48181 0.0
H951 H 0.64167 0.63618 0.4638 0.0
C952 C 0.39553 0.34343 0.00745 0.0
C953 C 0.40488 0.34195 0.97205 0.0
C954 C 0.38553 0.36281 0.01909 0.0
C955 C 0.35332 0.40068 0.02581 0.0
H956 H 0.37761 0.45648 0.99647 0.0
C957 C 0.30429 0.48128 0.03508 0.0
C958 C 0.3157 0.50026 0.04528 0.0
C959 C 0.31552 0.46179 0.02831 0.0
C960 C 0.37068 0.44109 0.00531 0.0
H961 H 0.4114 0.35987 0.92146 0.0
H962 H 0.3938 0.39322 0.94142 0.0
H963 H 0.3975 0.42317 0.98293 0.0
H964 H 0.34787 0.51352 0.05688 0.0
H965 H 0.36725 0.47962 0.0459 0.0
H966 H 0.32668 0.41874 0.0489 0.0
C967 C 0.39441 0.37963 0.9605 0.0
C968 C 0.38199 0.42193 0.99712 0.0
C969 C 0.40441 0.36038 0.94895 0.0
C970 C 0.33854 0.49928 0.04877 0.0
C971 C 0.3497 0.47981 0.0423 0.0
C972 C 0.34204 0.4199 0.03421 0.0
C973 C 0.38471 0.38108 0.99559 0.0
C974 C 0.37335 0.40147 0.00685 0.0
C975 C 0.33838 0.46084 0.03178 0.0
C976 C 0.3505 0.44034 0.02378 0.0
H977 H 0.39565 0.32955 0.02596 0.0
H978 H 0.37843 0.36348 0.04648 0.0
H979 H 0.34609 0.38519 0.03341 0.0
H980 H 0.28671 0.4815 0.03205 0.0
H981 H 0.3063 0.44758 0.01975 0.0
C982 C 0.36495 0.58559 0.02486 0.0
C983 C 0.34475 0.59328 0.01205 0.0
C984 C 0.38438 0.59557 0.01378 0.0
C985 C 0.40781 0.63614 0.94714 0.0
H986 H 0.45302 0.64023 0.02182 0.0
C987 C 0.48239 0.69474 0.93844 0.0
C988 C 0.50283 0.68503 0.94488 0.0
C989 C 0.46311 0.68307 0.94491 0.0
C990 C 0.44059 0.63909 0.00063 0.0
H991 H 0.32906 0.61712 0.97679 0.0
H992 H 0.36283 0.63514 0.95848 0.0
H993 H 0.41949 0.62056 0.03545 0.0
H994 H 0.51906 0.65562 0.96367 0.0
H995 H 0.48537 0.63549 0.97585 0.0
H996 H 0.42887 0.65556 0.91299 0.0
C997 C 0.36385 0.62101 0.97633 0.0
C998 C 0.42138 0.62766 0.00826 0.0
C999 C 0.34441 0.61072 0.98689 0.0
C1000 C 0.50357 0.66352 0.95831 0.0
C1001 C 0.48431 0.65203 0.96541 0.0
C1002 C 0.42692 0.64791 0.93976 0.0
C1003 C 0.38411 0.61385 0.9902 0.0
C1004 C 0.40472 0.62589 0.98158 0.0
C1005 C 0.4639 0.66164 0.95864 0.0
C1006 C 0.44352 0.6494 0.96639 0.0
H1007 H 0.36572 0.57202 0.044 0.0
H1008 H 0.39961 0.5891 0.0242 0.0
H1009 H 0.39558 0.63492 0.92564 0.0
H1010 H 0.48128 0.71126 0.92798 0.0
H1011 H 0.44757 0.69091 0.93971 0.0
C1012 C 0.60501 0.64132 0.94978 0.0
C1013 C 0.59773 0.65673 0.9759 0.0
C1014 C 0.61674 0.62297 0.96083 0.0
C1015 C 0.62611 0.58505 0.0351 0.0
H1016 H 0.68199 0.57481 0.98774 0.0
C1017 C 0.67992 0.5116 0.07576 0.0
C1018 C 0.69207 0.50123 0.04788 0.0
C1019 C 0.66928 0.53134 0.06887 0.0
C1020 C 0.66629 0.57717 0.00088 0.0
H1021 H 0.59656 0.66452 0.03431 0.0
H1022 H 0.61662 0.63173 0.05382 0.0
H1023 H 0.66113 0.60745 0.97261 0.0
H1024 H 0.70258 0.50338 0.99088 0.0
H1025 H 0.68327 0.53734 0.97821 0.0
H1026 H 0.63055 0.55437 0.06205 0.0
C1027 C 0.61337 0.63425 0.02472 0.0
C1028 C 0.65445 0.59599 0.99241 0.0
C1029 C 0.60194 0.65296 0.01357 0.0
C1030 C 0.69347 0.51109 0.01298 0.0
C1031 C 0.68247 0.53066 0.00585 0.0
C1032 C 0.63775 0.56598 0.04311 0.0
C1033 C 0.62118 0.61933 0.99831 0.0
C1034 C 0.63421 0.60004 0.00926 0.0
C1035 C 0.67015 0.54106 0.03369 0.0
C1036 C 0.65798 0.5617 0.02596 0.0
H1037 H 0.60219 0.64372 0.92052 0.0
H1038 H 0.6224 0.6116 0.94 0.0
H1039 H 0.61043 0.58772 0.04816 0.0
H1040 H 0.67874 0.50453 0.10311 0.0
H1041 H 0.66046 0.539 0.09132 0.0
C1042 C 0.51624 0.30737 0.96021 0.0
C1043 C 0.49784 0.31724 0.94423 0.0
C1044 C 0.53463 0.31981 0.96925 0.0
C1045 C 0.55332 0.37708 0.98429 0.0
H1046 H 0.61035 0.35102 0.97073 0.0
C1047 C 0.65182 0.39957 0.98711 0.0
C1048 C 0.65278 0.41234 0.01929 0.0
C1049 C 0.63219 0.39014 0.97582 0.0
C1050 C 0.5946 0.35874 0.97422 0.0
H1051 H 0.48435 0.34798 0.92521 0.0
H1052 H 0.5166 0.36951 0.93989 0.0
H1053 H 0.57798 0.33025 0.95514 0.0
H1054 H 0.63379 0.42611 0.06406 0.0
H1055 H 0.59947 0.40911 0.04501 0.0
H1056 H 0.57011 0.40588 0.00226 0.0
C1057 C 0.5167 0.35225 0.94627 0.0
C1058 C 0.57594 0.34662 0.96586 0.0
C1059 C 0.49824 0.33985 0.93758 0.0
C1060 C 0.63347 0.41644 0.03898 0.0
C1061 C 0.6138 0.40668 0.02801 0.0
C1062 C 0.57205 0.38931 0.99237 0.0
C1063 C 0.53518 0.34241 0.96219 0.0
C1064 C 0.55503 0.35555 0.97093 0.0
C1065 C 0.61307 0.39288 0.99684 0.0
C1066 C 0.59295 0.38029 0.98746 0.0
H1067 H 0.51638 0.29004 0.96611 0.0
H1068 H 0.54834 0.3117 0.98216 0.0
H1069 H 0.5375 0.38444 0.98898 0.0
H1070 H 0.66643 0.39636 0.97114 0.0
H1071 H 0.63216 0.38022 0.95104 0.0
C1072 C 0.21863 0.9834 0.68964 0.0
C1073 C 0.23559 0.97274 0.67058 0.0
C1074 C 0.22297 0.99606 0.72063 0.0
C1075 C 0.2584 0.00207 0.79832 0.0
H1076 H 0.2318 0.05939 0.80591 0.0
C1077 C 0.25954 0.04928 0.93541 0.0
C1078 C 0.23983 0.05929 0.94578 0.0
C1079 C 0.26268 0.04186 0.89937 0.0
C1080 C 0.23924 0.04339 0.80436 0.0
H1081 H 0.27047 0.96682 0.66971 0.0
H1082 H 0.27801 0.98868 0.72548 0.0
H1083 H 0.23117 0.03991 0.74707 0.0
H1084 H 0.20826 0.07015 0.92629 0.0
H1085 H 0.21337 0.05657 0.86342 0.0
H1086 H 0.26532 0.0048 0.85596 0.0
C1087 C 0.26139 0.9873 0.71555 0.0
C1088 C 0.23904 0.03234 0.7706 0.0
C1089 C 0.25708 0.97482 0.6838 0.0
C1090 C 0.22364 0.06257 0.91898 0.0
C1091 C 0.22666 0.05485 0.88292 0.0
C1092 C 0.2584 0.01301 0.83224 0.0
C1093 C 0.24433 0.99824 0.73385 0.0
C1094 C 0.24813 0.01137 0.76754 0.0
C1095 C 0.24606 0.04398 0.87289 0.0
C1096 C 0.24833 0.03359 0.83589 0.0
H1097 H 0.20187 0.98231 0.68031 0.0
H1098 H 0.20949 0.004 0.7346 0.0
H1099 H 0.26529 0.98582 0.79673 0.0
H1100 H 0.27248 0.04682 0.95539 0.0
H1101 H 0.27802 0.03408 0.89247 0.0
C1102 C 0.96469 0.77509 0.30255 0.0
C1103 C 0.97002 0.76245 0.33357 0.0
C1104 C 0.97473 0.77123 0.26871 0.0
C1105 C 0.02494 0.75111 0.22791 0.0
H1106 H 0.99114 0.75485 0.13761 0.0
C1107 C 0.06096 0.77381 0.08403 0.0
C1108 C 0.05082 0.76456 0.05299 0.0
C1109 C 0.0529 0.76938 0.11955 0.0
C1110 C 1.00089 0.75341 0.16244 0.0
H1111 H 0.98961 0.7355 0.3535 0.0
H1112 H 0.00748 0.72875 0.29368 0.0
H1113 H 0.97248 0.75349 0.19664 0.0
H1114 H 0.02592 0.74188 0.03454 0.0
H1115 H 0.01244 0.73364 0.09599 0.0
H1116 H 0.05343 0.75134 0.19336 0.0
C1117 C 0.99547 0.74164 0.29586 0.0
C1118 C 0.99015 0.75282 0.19631 0.0
C1119 C 0.98513 0.74535 0.32986 0.0
C1120 C 0.03367 0.74967 0.05803 0.0
C1121 C 0.02592 0.74497 0.09324 0.0
C1122 C 0.03577 0.75172 0.19381 0.0
C1123 C 0.99048 0.75473 0.26509 0.0
C1124 C 0.00203 0.75212 0.22941 0.0
C1125 C 0.03483 0.75539 0.12433 0.0
C1126 C 0.02383 0.75317 0.16072 0.0
H1127 H 0.95307 0.78836 0.30465 0.0
H1128 H 0.97071 0.78173 0.24562 0.0
H1129 H 0.03448 0.75075 0.25309 0.0
H1130 H 0.0743 0.78526 0.08072 0.0
H1131 H 0.06009 0.77771 0.14297 0.0
C1132 C 0.75568 0.97231 0.93856 0.0
C1133 C 0.76212 0.95105 0.94828 0.0
C1134 C 0.75202 0.97788 0.90181 0.0
C1135 C 0.76983 0.96358 0.80938 0.0
H1136 H 0.72652 0.00672 0.78139 0.0
C1137 C 0.78475 0.0237 0.69262 0.0
C1138 C 0.76796 0.02843 0.66739 0.0
C1139 C 0.78067 0.01119 0.72392 0.0
C1140 C 0.73847 0.99441 0.78852 0.0
H1141 H 0.76913 0.91874 0.92691 0.0
H1142 H 0.76296 0.92863 0.86204 0.0
H1143 H 0.72417 0.98901 0.84175 0.0
H1144 H 0.73343 0.02426 0.65609 0.0
H1145 H 0.7262 0.00248 0.71168 0.0
H1146 H 0.78449 0.96943 0.75666 0.0
C1147 C 0.76075 0.94093 0.88322 0.0
C1148 C 0.73724 0.98438 0.82316 0.0
C1149 C 0.76426 0.93527 0.92029 0.0
C1150 C 0.74672 0.02091 0.67497 0.0
C1151 C 0.74259 0.0084 0.70668 0.0
C1152 C 0.77108 0.97362 0.77484 0.0
C1153 C 0.75478 0.96238 0.87363 0.0
C1154 C 0.75338 0.96947 0.83448 0.0
C1155 C 0.75966 0.00311 0.73108 0.0
C1156 C 0.7559 0.98974 0.76463 0.0
H1157 H 0.75371 0.98488 0.95936 0.0
H1158 H 0.74783 0.99462 0.8954 0.0
H1159 H 0.78255 0.95223 0.81726 0.0
H1160 H 0.80127 0.02938 0.68797 0.0
H1161 H 0.79403 0.00791 0.74271 0.0
C1162 C 0.95371 0.26028 0.06955 0.0
C1163 C 0.94451 0.24049 0.05758 0.0
C1164 C 0.96077 0.26276 0.10591 0.0
C1165 C 0.96008 0.23669 0.19894 0.0
H1166 H 0.01662 0.26478 0.2084 0.0
C1167 C 0.02044 0.21663 0.31365 0.0
C1168 C 0.03041 0.2338 0.33322 0.0
C1169 C 0.00775 0.22079 0.28263 0.0
C1170 C 1.00065 0.25727 0.20631 0.0
H1171 H 0.9346 0.20809 0.07445 0.0
H1172 H 0.94764 0.21205 0.13789 0.0
H1173 H 0.99765 0.26552 0.14927 0.0
H1174 H 0.03517 0.26886 0.33498 0.0
H1175 H 0.01327 0.2761 0.27931 0.0
H1176 H 0.96388 0.22737 0.2556 0.0
C1177 C 0.94897 0.22589 0.11944 0.0
C1178 C 0.98971 0.25769 0.17247 0.0
C1179 C 0.94156 0.22353 0.08308 0.0
C1180 C 0.02769 0.25531 0.32049 0.0
C1181 C 0.01518 0.25945 0.2888 0.0
C1182 C 0.97115 0.23606 0.23263 0.0
C1183 C 0.95915 0.24538 0.13104 0.0
C1184 C 0.9695 0.24699 0.16813 0.0
C1185 C 0.00489 0.24218 0.26997 0.0
C1186 C 0.99175 0.24592 0.23634 0.0
H1187 H 0.95586 0.27376 0.05055 0.0
H1188 H 0.96797 0.27818 0.11407 0.0
H1189 H 0.94436 0.22869 0.19685 0.0
H1190 H 0.02208 0.19984 0.3226 0.0
H1191 H 1.00032 0.20716 0.26823 0.0
C1192 C 0.7451 0.98445 0.17472 0.0
C1193 C 0.76642 0.97732 0.1667 0.0
C1194 C 0.74096 0.99686 0.20663 0.0
C1195 C 0.76928 0.03209 0.27464 0.0
H1196 H 0.72379 0.01497 0.34312 0.0
C1197 C 0.76355 0.06953 0.42115 0.0
C1198 C 0.76196 0.05367 0.44906 0.0
C1199 C 0.75978 0.06389 0.38411 0.0
C1200 C 0.73646 0.02008 0.32413 0.0
H1201 H 0.79989 0.97714 0.18666 0.0
H1202 H 0.79265 0.99846 0.24151 0.0
H1203 H 0.72571 0.99774 0.28224 0.0
H1204 H 0.75426 0.01964 0.45996 0.0
H1205 H 0.74793 0.00994 0.39607 0.0
H1206 H 0.78082 0.0535 0.31707 0.0
C1207 C 0.7792 0.99491 0.22301 0.0
C1208 C 0.73743 0.01033 0.28917 0.0
C1209 C 0.78329 0.98248 0.19159 0.0
C1210 C 0.7558 0.0323 0.43926 0.0
C1211 C 0.75189 0.02675 0.40253 0.0
C1212 C 0.76828 0.04186 0.30949 0.0
C1213 C 0.7581 0.00249 0.23074 0.0
C1214 C 0.75437 0.01563 0.26465 0.0
C1215 C 0.75409 0.04235 0.37441 0.0
C1216 C 0.75237 0.03536 0.33515 0.0
H1217 H 0.73175 0.98075 0.15615 0.0
H1218 H 0.72449 0.00239 0.21208 0.0
H1219 H 0.78232 0.03675 0.25603 0.0
H1220 H 0.76819 0.08614 0.4278 0.0
H1221 H 0.76154 0.0763 0.36302 0.0
C1222 C 0.06547 0.24342 0.57959 0.0
C1223 C 0.05125 0.23582 0.55191 0.0
C1224 C 0.0578 0.2466 0.61581 0.0
C1225 C 0.00598 0.25514 0.6664 0.0
H1226 H 0.03628 0.23233 0.75202 0.0
C1227 C 0.96212 0.2327 0.80105 0.0
C1228 C 0.97215 0.23799 0.83478 0.0
C1229 C 0.97306 0.23616 0.7677 0.0
C1230 C 0.0278 0.2391 0.72842 0.0
H1231 H 0.01821 0.22451 0.54108 0.0
H1232 H 0.00519 0.22984 0.60333 0.0
H1233 H 0.05408 0.23138 0.69141 0.0
H1234 H 0.00141 0.25148 0.85988 0.0
H1235 H 0.02054 0.25729 0.80151 0.0
H1236 H 0.97941 0.26208 0.70292 0.0
C1237 C 0.022 0.23398 0.59718 0.0
C1238 C 0.038 0.2386 0.69379 0.0
C1239 C 0.02956 0.23081 0.56142 0.0
C1240 C 0.99318 0.24726 0.83437 0.0
C1241 C 0.00422 0.25047 0.801 0.0
C1242 C 0.99578 0.25553 0.70082 0.0
C1243 C 0.03583 0.24227 0.62467 0.0
C1244 C 0.02688 0.24598 0.66226 0.0
C1245 C 0.99433 0.24479 0.76737 0.0
C1246 C 0.00632 0.24696 0.73199 0.0
H1247 H 0.08227 0.24735 0.57312 0.0
H1248 H 0.06886 0.25289 0.63659 0.0
H1249 H 0.99719 0.26141 0.64271 0.0
H1250 H 0.94594 0.22557 0.80041 0.0
H1251 H 0.96511 0.23143 0.74219 0.0
C1252 C 0.24084 0.939 0.42294 0.0
C1253 C 0.23347 0.95277 0.45142 0.0
C1254 C 0.241 0.94638 0.38621 0.0
C1255 C 0.21456 0.98652 0.32586 0.0
H1256 H 0.26768 0.98624 0.26761 0.0
C1257 C 0.22382 0.043 0.20175 0.0
C1258 C 0.23269 0.0342 0.1692 0.0
C1259 C 0.225 0.03147 0.23491 0.0
C1260 C 0.25265 0.98618 0.28336 0.0
H1261 H 0.22004 0.9848 0.46365 0.0
H1262 H 0.22017 0.99736 0.4003 0.0
H1263 H 0.26672 0.9672 0.32717 0.0
H1264 H 0.25075 0.00682 0.14642 0.0
H1265 H 0.25263 0.98664 0.2044 0.0
H1266 H 0.20046 0.00562 0.28274 0.0
C1267 C 0.22588 0.98098 0.40609 0.0
C1268 C 0.25209 0.97523 0.31731 0.0
C1269 C 0.22599 0.9738 0.44247 0.0
C1270 C 0.24371 0.01407 0.17098 0.0
C1271 C 0.24484 0.0025 0.20421 0.0
C1272 C 0.21508 0.99735 0.29207 0.0
C1273 C 0.23336 0.96742 0.37757 0.0
C1274 C 0.2332 0.97581 0.33925 0.0
C1275 C 0.235 0.01083 0.23631 0.0
C1276 C 0.23428 0.99783 0.27088 0.0
H1277 H 0.24672 0.92274 0.42908 0.0
H1278 H 0.24684 0.93564 0.36459 0.0
H1279 H 0.19967 0.98693 0.34202 0.0
H1280 H 0.21544 0.05856 0.20147 0.0
H1281 H 0.21774 0.03859 0.2594 0.0
C1282 C 0.03815 0.77474 0.80165 0.0
C1283 C 0.0322 0.76323 0.83356 0.0
C1284 C 0.02628 0.77229 0.7692 0.0
C1285 C 0.98659 0.74 0.71738 0.0
H1286 H 0.9733 0.79672 0.67531 0.0
C1287 C 0.93789 0.75513 0.57968 0.0
C1288 C 0.95065 0.76717 0.55463 0.0
C1289 C 0.94446 0.7531 0.61665 0.0
C1290 C 0.9767 0.78078 0.68692 0.0
H1291 H 0.01025 0.73892 0.8561 0.0
H1292 H 0.98917 0.73461 0.79864 0.0
H1293 H 0.99239 0.79451 0.73415 0.0
H1294 H 0.97979 0.78697 0.54856 0.0
H1295 H 0.99085 0.78388 0.61283 0.0
H1296 H 0.97127 0.7264 0.66909 0.0
C1297 C 0.0031 0.74551 0.79899 0.0
C1298 C 0.98774 0.77949 0.72042 0.0
C1299 C 0.01518 0.74788 0.83171 0.0
C1300 C 0.96968 0.77753 0.56723 0.0
C1301 C 0.97597 0.77584 0.60402 0.0
C1302 C 0.9754 0.7413 0.68364 0.0
C1303 C 0.00803 0.75843 0.768 0.0
C1304 C 0.99356 0.75914 0.73528 0.0
C1305 C 0.96353 0.76354 0.62901 0.0
C1306 C 0.9711 0.76174 0.66763 0.0
H1307 H 0.05139 0.78648 0.80232 0.0
H1308 H 0.03083 0.78199 0.74538 0.0
H1309 H 0.99078 0.72412 0.72841 0.0
H1310 H 0.92322 0.74687 0.57049 0.0
H1311 H 0.93465 0.74353 0.63556 0.0
C1312 C 0.75266 0.53554 0.4317 0.0
C1313 C 0.73978 0.55361 0.44142 0.0
C1314 C 0.75459 0.52911 0.39494 0.0
C1315 C 0.72294 0.52772 0.31137 0.0
H1316 H 0.77638 0.50555 0.26767 0.0
C1317 C 0.72237 0.46365 0.1959 0.0
C1318 C 0.73537 0.46787 0.16468 0.0
C1319 C 0.72454 0.47629 0.22779 0.0
C1320 C 0.76138 0.51185 0.27937 0.0
H1321 H 0.71947 0.57968 0.42039 0.0
H1322 H 0.7224 0.56802 0.35547 0.0
H1323 H 0.77792 0.52611 0.32567 0.0
H1324 H 0.7617 0.48795 0.14333 0.0
H1325 H 0.76577 0.50974 0.19956 0.0
H1326 H 0.7063 0.51284 0.26581 0.0
C1327 C 0.73114 0.55902 0.37653 0.0
C1328 C 0.76225 0.52356 0.31251 0.0
C1329 C 0.72954 0.56574 0.41349 0.0
C1330 C 0.75139 0.4843 0.16684 0.0
C1331 C 0.75372 0.49679 0.19898 0.0
C1332 C 0.72205 0.5158 0.27849 0.0
C1333 C 0.74342 0.54041 0.36707 0.0
C1334 C 0.74298 0.53124 0.32919 0.0
C1335 C 0.73993 0.49325 0.22939 0.0
C1336 C 0.7412 0.50737 0.26259 0.0
H1337 H 0.76084 0.52599 0.45273 0.0
H1338 H 0.76396 0.5146 0.38858 0.0
H1339 H 0.70783 0.53325 0.32377 0.0
H1340 H 0.7099 0.45111 0.19532 0.0
H1341 H 0.71399 0.47294 0.25113 0.0
C1342 C 0.53273 0.27792 0.56354 0.0
C1343 C 0.55214 0.26822 0.55113 0.0
C1344 C 0.5264 0.27614 0.60031 0.0
C1345 C 0.52901 0.24165 0.68083 0.0
H1346 H 0.50702 0.29349 0.72982 0.0
C1347 C 0.48912 0.2461 0.82928 0.0
C1348 C 0.47075 0.25978 0.83092 0.0
C1349 C 0.50121 0.24445 0.79641 0.0
C1350 C 0.51306 0.27884 0.7165 0.0
H1351 H 0.58025 0.24907 0.56746 0.0
H1352 H 0.56882 0.24561 0.6325 0.0
H1353 H 0.52597 0.29693 0.67103 0.0
H1354 H 0.44936 0.28073 0.79919 0.0
H1355 H 0.46996 0.27747 0.74204 0.0
H1356 H 0.51529 0.22353 0.72615 0.0
C1357 C 0.5587 0.25472 0.61344 0.0
C1358 C 0.524 0.28084 0.68298 0.0
C1359 C 0.56529 0.25684 0.57646 0.0
C1360 C 0.4636 0.27025 0.79868 0.0
C1361 C 0.47549 0.26852 0.76609 0.0
C1362 C 0.51795 0.23962 0.71463 0.0
C1363 C 0.53917 0.2644 0.6256 0.0
C1364 C 0.53143 0.26225 0.66418 0.0
C1365 C 0.49496 0.25645 0.76503 0.0
C1366 C 0.5092 0.25818 0.73203 0.0
H1367 H 0.52229 0.28683 0.54466 0.0
H1368 H 0.51116 0.28357 0.60883 0.0
H1369 H 0.53455 0.22706 0.66676 0.0
H1370 H 0.49501 0.23799 0.85393 0.0
H1371 H 0.5161 0.23493 0.7962 0.0
C1372 C 0.27911 0.53373 0.19165 0.0
C1373 C 0.26535 0.52996 0.16134 0.0
C1374 C 0.27705 0.5214 0.2237 0.0
C1375 C 0.24232 0.48503 0.2782 0.0
H1376 H 0.29854 0.46588 0.31542 0.0
C1377 C 0.2557 0.43576 0.4156 0.0
C1378 C 0.26942 0.44755 0.43952 0.0
C1379 C 0.25374 0.44198 0.37842 0.0
C1380 C 0.28271 0.4709 0.30515 0.0
H1381 H 0.23764 0.51132 0.14155 0.0
H1382 H 0.23398 0.48949 0.19828 0.0
H1383 H 0.29656 0.48521 0.25678 0.0
H1384 H 0.29235 0.47439 0.44343 0.0
H1385 H 0.28949 0.48472 0.37873 0.0
H1386 H 0.22869 0.4711 0.3276 0.0
C1387 C 0.24639 0.50206 0.19694 0.0
C1388 C 0.28157 0.4821 0.27176 0.0
C1389 C 0.24841 0.51458 0.16463 0.0
C1390 C 0.28166 0.46505 0.42554 0.0
C1391 C 0.28007 0.47091 0.38853 0.0
C1392 C 0.24348 0.47367 0.31178 0.0
C1393 C 0.26127 0.50484 0.22619 0.0
C1394 C 0.2615 0.49006 0.25864 0.0
C1395 C 0.26593 0.45965 0.3647 0.0
C1396 C 0.26381 0.46724 0.32609 0.0
H1397 H 0.29211 0.5457 0.19006 0.0
H1398 H 0.28832 0.52439 0.24621 0.0
H1399 H 0.22664 0.49091 0.26863 0.0
H1400 H 0.24595 0.42232 0.42593 0.0
H1401 H 0.24273 0.43309 0.36046 0.0
C1402 C 0.46988 0.7218 0.56641 0.0
C1403 C 0.45113 0.73264 0.55384 0.0
C1404 C 0.47625 0.72335 0.60321 0.0
C1405 C 0.476 0.75872 0.68268 0.0
H1406 H 0.49484 0.70622 0.73316 0.0
C1407 C 0.51645 0.75425 0.83046 0.0
C1408 C 0.5338 0.73931 0.8327 0.0
C1409 C 0.50429 0.75602 0.7977 0.0
C1410 C 0.4897 0.72105 0.71942 0.0
H1411 H 0.42421 0.75353 0.56984 0.0
H1412 H 0.43576 0.75661 0.6349 0.0
H1413 H 0.47547 0.70325 0.67467 0.0
H1414 H 0.55337 0.71612 0.80201 0.0
H1415 H 0.53268 0.71958 0.74501 0.0
H1416 H 0.49106 0.7765 0.72717 0.0
C1417 C 0.4453 0.74677 0.61599 0.0
C1418 C 0.47851 0.71933 0.68608 0.0
C1419 C 0.43863 0.74487 0.57901 0.0
C1420 C 0.53992 0.72759 0.80106 0.0
C1421 C 0.52795 0.72943 0.76856 0.0
C1422 C 0.48732 0.76047 0.71626 0.0
C1423 C 0.46421 0.73601 0.6283 0.0
C1424 C 0.47218 0.73812 0.66676 0.0
C1425 C 0.50943 0.74288 0.767 0.0
C1426 C 0.49496 0.74162 0.7342 0.0
H1427 H 0.47979 0.71224 0.54761 0.0
H1428 H 0.49101 0.71506 0.61185 0.0
H1429 H 0.47133 0.77346 0.66819 0.0
H1430 H 0.51133 0.76333 0.85465 0.0
H1431 H 0.49015 0.76661 0.79712 0.0
C1432 C 0.24638 0.53508 0.93437 0.0
C1433 C 0.26112 0.55208 0.94168 0.0
C1434 C 0.24238 0.5283 0.89822 0.0
C1435 C 0.25282 0.54209 0.79888 0.0
H1436 H 0.2469 0.47943 0.78686 0.0
C1437 C 0.27699 0.49432 0.66844 0.0
C1438 C 0.26302 0.47781 0.65549 0.0
C1439 C 0.27228 0.50554 0.70097 0.0
C1440 C 0.24812 0.49699 0.78978 0.0
H1441 H 0.28276 0.57587 0.91706 0.0
H1442 H 0.27671 0.56336 0.85365 0.0
H1443 H 0.24784 0.49502 0.84854 0.0
H1444 H 0.23286 0.46043 0.6657 0.0
H1445 H 0.2249 0.4797 0.72396 0.0
H1446 H 0.25459 0.54359 0.73971 0.0
C1447 C 0.26767 0.55561 0.87571 0.0
C1448 C 0.24861 0.50603 0.82521 0.0
C1449 C 0.27127 0.56275 0.91204 0.0
C1450 C 0.24384 0.47312 0.67516 0.0
C1451 C 0.23935 0.48407 0.70838 0.0
C1452 C 0.25269 0.53297 0.76341 0.0
C1453 C 0.25348 0.53796 0.86839 0.0
C1454 C 0.25127 0.5287 0.83036 0.0
C1455 C 0.25368 0.50024 0.7217 0.0
C1456 C 0.25064 0.5103 0.75859 0.0
H1457 H 0.23806 0.52682 0.95679 0.0
H1458 H 0.23081 0.51519 0.89382 0.0
H1459 H 0.25444 0.55962 0.80156 0.0
H1460 H 0.29182 0.49837 0.6536 0.0
H1461 H 0.28371 0.51775 0.71075 0.0
C1462 C 0.52937 0.73042 0.06422 0.0
C1463 C 0.551 0.73492 0.05376 0.0
C1464 C 0.52204 0.73526 0.09965 0.0
C1465 C 0.53887 0.74544 0.19519 0.0
H1466 H 0.47981 0.76801 0.20174 0.0
C1467 C 0.4925 0.75757 0.33435 0.0
C1468 C 0.47348 0.74477 0.33472 0.0
C1469 C 0.5034 0.76158 0.30096 0.0
C1470 C 0.4964 0.76195 0.20034 0.0
H1471 H 0.58217 0.74728 0.07294 0.0
H1472 H 0.5692 0.75579 0.1356 0.0
H1473 H 0.49729 0.76452 0.14152 0.0
H1474 H 0.45033 0.72695 0.30108 0.0
H1475 H 0.46877 0.73468 0.24276 0.0
H1476 H 0.53757 0.7424 0.25426 0.0
C1477 C 0.55799 0.74854 0.11598 0.0
C1478 C 0.50637 0.7598 0.16591 0.0
C1479 C 0.56542 0.74363 0.0802 0.0
C1480 C 0.46489 0.73701 0.30131 0.0
C1481 C 0.47542 0.74145 0.26803 0.0
C1482 C 0.5289 0.74778 0.22983 0.0
C1483 C 0.53605 0.74483 0.12574 0.0
C1484 C 0.52735 0.75066 0.16279 0.0
C1485 C 0.49505 0.75329 0.2676 0.0
C1486 C 0.50728 0.75529 0.23249 0.0
H1487 H 0.5179 0.72339 0.04478 0.0
H1488 H 0.50524 0.73153 0.10658 0.0
H1489 H 0.55503 0.73836 0.19368 0.0
H1490 H 0.49956 0.7634 0.35997 0.0
H1491 H 0.51854 0.77072 0.30126 0.0
C1492 C 0.74859 0.46215 0.93089 0.0
C1493 C 0.73411 0.44521 0.9403 0.0
C1494 C 0.7509 0.46885 0.89434 0.0
C1495 C 0.7214 0.46975 0.80644 0.0
H1496 H 0.77727 0.48867 0.76727 0.0
C1497 C 0.72737 0.50257 0.65968 0.0
C1498 C 0.73885 0.52221 0.65528 0.0
C1499 C 0.7296 0.49036 0.69185 0.0
C1500 C 0.76157 0.48353 0.7779 0.0
H1501 H 0.71096 0.42175 0.9184 0.0
H1502 H 0.71516 0.43339 0.85412 0.0
H1503 H 0.77548 0.47185 0.82841 0.0
H1504 H 0.76242 0.54414 0.67977 0.0
H1505 H 0.76606 0.52295 0.73708 0.0
H1506 H 0.70737 0.48178 0.75653 0.0
C1507 C 0.72456 0.4416 0.87533 0.0
C1508 C 0.76052 0.47388 0.81287 0.0
C1509 C 0.72219 0.43488 0.91209 0.0
C1510 C 0.75354 0.52894 0.68267 0.0
C1511 C 0.7556 0.51679 0.71532 0.0
C1512 C 0.72245 0.47934 0.77157 0.0
C1513 C 0.73885 0.45878 0.86612 0.0
C1514 C 0.74037 0.46713 0.8277 0.0
C1515 C 0.74308 0.49773 0.72065 0.0
C1516 C 0.7425 0.48652 0.75699 0.0
H1517 H 0.75797 0.47059 0.95187 0.0
H1518 H 0.76172 0.48239 0.88838 0.0
H1519 H 0.70558 0.46513 0.81728 0.0
H1520 H 0.7161 0.49699 0.63859 0.0
H1521 H 0.72019 0.47548 0.69466 0.0
C1522 C 0.53816 0.2696 0.29878 0.0
C1523 C 0.53097 0.25904 0.33089 0.0
C1524 C 0.52647 0.26769 0.26603 0.0
C1525 C 0.48452 0.23846 0.214 0.0
H1526 H 0.47554 0.29593 0.17157 0.0
C1527 C 0.43677 0.25571 0.07647 0.0
C1528 C 0.4496 0.26761 0.05133 0.0
C1529 C 0.44348 0.25346 0.11334 0.0
C1530 C 0.47779 0.27979 0.18319 0.0
H1531 H 0.50689 0.23692 0.35362 0.0
H1532 H 0.48613 0.23353 0.29561 0.0
H1533 H 0.49457 0.2924 0.23025 0.0
H1534 H 0.47903 0.28695 0.04508 0.0
H1535 H 0.49038 0.28342 0.10908 0.0
H1536 H 0.46811 0.22594 0.16592 0.0
C1537 C 0.50091 0.24324 0.296 0.0
C1538 C 0.48877 0.27774 0.21664 0.0
C1539 C 0.51281 0.24506 0.32903 0.0
C1540 C 0.46883 0.27765 0.06381 0.0
C1541 C 0.47529 0.27571 0.10049 0.0
C1542 C 0.47343 0.24052 0.18026 0.0
C1543 C 0.50716 0.25536 0.26474 0.0
C1544 C 0.49295 0.25705 0.23174 0.0
C1545 C 0.46282 0.26349 0.12558 0.0
C1546 C 0.47066 0.2612 0.16405 0.0
H1547 H 0.55223 0.28034 0.29954 0.0
H1548 H 0.53197 0.27675 0.24207 0.0
H1549 H 0.48743 0.22234 0.22522 0.0
H1550 H 0.42195 0.24767 0.06741 0.0
H1551 H 0.4336 0.24397 0.13226 0.0
C1552 C 0.39226 0.20667 0.93452 0.0
C1553 C 0.41216 0.21226 0.95126 0.0
C1554 C 0.38022 0.18884 0.94714 0.0
C1555 C 0.3794 0.13984 0.00698 0.0
H1556 H 0.3196 0.15825 0.02302 0.0
C1557 C 0.30585 0.08276 0.04194 0.0
C1558 C 0.28899 0.09181 0.06328 0.0
C1559 C 0.32447 0.09516 0.03361 0.0
C1560 C 0.33629 0.15286 0.01927 0.0
H1561 H 0.43594 0.2025 0.99238 0.0
H1562 H 0.41471 0.17126 0.01472 0.0
H1563 H 0.34519 0.18307 0.99422 0.0
H1564 H 0.27883 0.11994 0.09497 0.0
H1565 H 0.31161 0.14123 0.08191 0.0
H1566 H 0.37015 0.10944 0.03226 0.0
C1567 C 0.40852 0.18065 0.99166 0.0
C1568 C 0.35091 0.16701 0.00213 0.0
C1569 C 0.42071 0.1985 0.97879 0.0
C1570 C 0.29179 0.11257 0.07883 0.0
C1571 C 0.31042 0.12482 0.07091 0.0
C1572 C 0.3646 0.12549 0.02403 0.0
C1573 C 0.38769 0.17629 0.97706 0.0
C1574 C 0.37258 0.16067 0.99544 0.0
C1575 C 0.32638 0.11676 0.0465 0.0
C1576 C 0.34286 0.13191 0.03041 0.0
H1577 H 0.38537 0.21685 0.91302 0.0
H1578 H 0.36447 0.18557 0.9347 0.0
H1579 H 0.39603 0.13453 0.00226 0.0
H1580 H 0.30375 0.06696 0.02897 0.0
H1581 H 0.3364 0.0885 0.01462 0.0
C1582 C 0.19959 0.58446 0.02581 0.0
C1583 C 0.21584 0.59253 0.04963 0.0
C1584 C 0.18136 0.59732 0.0171 0.0
C1585 C 0.16906 0.65552 0.00978 0.0
H1586 H 0.10958 0.63751 0.98931 0.0
C1587 C 0.11245 0.7135 0.93472 0.0
C1588 C 0.09226 0.71746 0.95178 0.0
C1589 C 0.12483 0.69528 0.94429 0.0
C1590 C 0.12613 0.64273 0.995 0.0
H1591 H 0.22467 0.61922 0.08598 0.0
H1592 H 0.19273 0.64127 0.07171 0.0
H1593 H 0.13561 0.61118 0.0155 0.0
H1594 H 0.06838 0.70456 0.99019 0.0
H1595 H 0.09027 0.67264 0.00739 0.0
H1596 H 0.1599 0.68691 0.98978 0.0
C1597 C 0.19431 0.62539 0.05879 0.0
C1598 C 0.14103 0.62767 0.00983 0.0
C1599 C 0.21254 0.61271 0.06716 0.0
C1600 C 0.08387 0.70185 0.97647 0.0
C1601 C 0.09641 0.6836 0.98635 0.0
C1602 C 0.15434 0.6704 0.99488 0.0
C1603 C 0.17907 0.61835 0.03229 0.0
C1604 C 0.16266 0.63398 0.01753 0.0
C1605 C 0.11744 0.68069 0.97152 0.0
C1606 C 0.13274 0.66423 0.98708 0.0
H1607 H 0.20176 0.569 0.01175 0.0
H1608 H 0.16991 0.59142 0.99659 0.0
H1609 H 0.18566 0.66087 0.0147 0.0
H1610 H 0.11921 0.72512 0.91527 0.0
H1611 H 0.14071 0.69319 0.93164 0.0
C1612 C 0.69966 0.91979 0.03132 0.0
C1613 C 0.7154 0.912 0.05633 0.0
C1614 C 0.68161 0.90679 0.02179 0.0
C1615 C 0.64136 0.87623 0.01294 0.0
H1616 H 0.66055 0.81682 0.99538 0.0
C1617 C 0.58467 0.80169 0.97718 0.0
C1618 C 0.59346 0.78609 0.95284 0.0
C1619 C 0.5971 0.8199 0.98796 0.0
C1620 C 0.6549 0.83336 -0.00018 0.0
H1621 H 0.72346 0.88561 0.09371 0.0
H1622 H 0.69186 0.86336 0.078 0.0
H1623 H 0.68585 0.84315 0.02109 0.0
H1624 H 0.6212 0.77841 0.91801 0.0
H1625 H 0.64251 0.81019 0.93604 0.0
H1626 H 0.61029 0.86612 0.99102 0.0
C1627 C 0.69369 0.87913 0.06483 0.0
C1628 C 0.66935 0.84843 0.01514 0.0
C1629 C 0.71171 0.89195 0.07407 0.0
C1630 C 0.61407 0.79 0.93716 0.0
C1631 C 0.62635 0.80815 0.94769 0.0
C1632 C 0.62672 0.86098 0.99774 0.0
C1633 C 0.679 0.88588 0.03727 0.0
C1634 C 0.66284 0.87005 0.02196 0.0
C1635 C 0.61845 0.82279 0.97445 0.0
C1636 C 0.63344 0.8394 0.9907 0.0
H1637 H 0.70215 0.9351 0.01701 0.0
H1638 H 0.6706 0.91248 0.00047 0.0
H1639 H 0.63585 0.89277 0.01788 0.0
H1640 H 0.56888 0.79905 0.98988 0.0
H1641 H 0.59054 0.8309 0.0086 0.0
C1642 C 0.78678 0.38386 0.04976 0.0
C1643 C 0.78572 0.40673 0.04923 0.0
C1644 C 0.80559 0.37305 0.03831 0.0
C1645 C 0.86391 0.37717 0.01572 0.0
H1646 H 0.84894 0.33056 0.94763 0.0
C1647 C 0.91987 0.30435 0.98112 0.0
C1648 C 0.91725 0.29351 0.94725 0.0
C1649 C 0.90764 0.32301 0.98921 0.0
C1650 C 0.85357 0.34376 0.96594 0.0
H1651 H 0.80398 0.43634 0.0387 0.0
H1652 H 0.83729 0.41726 0.01861 0.0
H1653 H 0.82031 0.35311 0.97366 0.0
H1654 H 0.90094 0.29414 0.89435 0.0
H1655 H 0.87993 0.32722 0.90781 0.0
H1656 H 0.8973 0.36744 0.00825 0.0
C1657 C 0.82347 0.40777 0.02807 0.0
C1658 C 0.83706 0.35649 0.98138 0.0
C1659 C 0.8045 0.41868 0.0398 0.0
C1660 C 0.90349 0.3025 0.92039 0.0
C1661 C 0.89126 0.32124 0.9284 0.0
C1662 C 0.88055 0.36429 0.0003 0.0
C1663 C 0.82379 0.38483 0.02565 0.0
C1664 C 0.84194 0.37295 0.00718 0.0
C1665 C 0.89238 0.33107 0.96362 0.0
C1666 C 0.87552 0.34712 0.97575 0.0
H1667 H 0.77253 0.37427 0.057 0.0
H1668 H 0.80553 0.35537 0.03769 0.0
H1669 H 0.86816 0.38983 0.03534 0.0
H1670 H 0.93008 0.29737 0.00252 0.0
H1671 H 0.90883 0.32992 0.01668 0.0
C1672 C 0.70045 0.08457 0.53559 0.0
C1673 C 0.71695 0.09357 0.55795 0.0
C1674 C 0.68216 0.09707 0.52582 0.0
C1675 C 0.66957 0.15478 0.51171 0.0
H1676 H 0.60991 0.13575 0.49588 0.0
C1677 C 0.58362 0.19922 0.47643 0.0
C1678 C 0.59151 0.2138 0.44957 0.0
C1679 C 0.59644 0.18149 0.48791 0.0
C1680 C 0.62651 0.14126 0.50024 0.0
H1681 H 0.72614 0.12176 0.59065 0.0
H1682 H 0.69414 0.14324 0.57442 0.0
H1683 H 0.63641 0.11072 0.52424 0.0
H1684 H 0.61786 0.22005 0.41105 0.0
H1685 H 0.63983 0.18899 0.43027 0.0
H1686 H 0.65997 0.18519 0.48818 0.0
C1687 C 0.69557 0.12684 0.56348 0.0
C1688 C 0.64168 0.12693 0.51631 0.0
C1689 C 0.71385 0.11448 0.57298 0.0
C1690 C 0.61146 0.20923 0.43211 0.0
C1691 C 0.62412 0.19152 0.44332 0.0
C1692 C 0.65457 0.16893 0.49555 0.0
C1693 C 0.68004 0.1187 0.5384 0.0
C1694 C 0.66337 0.13362 0.52237 0.0
C1695 C 0.61726 0.17807 0.47255 0.0
C1696 C 0.63289 0.16237 0.4894 0.0
H1697 H 0.70241 0.06853 0.52345 0.0
H1698 H 0.67048 0.09031 0.50646 0.0
H1699 H 0.6862 0.16038 0.51533 0.0
H1700 H 0.56836 0.20242 0.49052 0.0
H1701 H 0.59069 0.17141 0.51047 0.0
C1702 C 0.11285 0.29171 0.43195 0.0
C1703 C 0.09225 0.28708 0.44717 0.0
C1704 C 0.12386 0.31095 0.44115 0.0
C1705 C 0.12968 0.34827 0.51856 0.0
H1706 H 0.16597 0.38114 0.45066 0.0
C1707 C 0.20916 0.39217 0.56036 0.0
C1708 C 0.21447 0.41215 0.54353 0.0
C1709 C 0.19023 0.38088 0.55033 0.0
C1710 C 0.15569 0.37238 0.46996 0.0
H1711 H 0.06663 0.29949 0.48273 0.0
H1712 H 0.08606 0.33309 0.4992 0.0
H1713 H 0.13988 0.35448 0.42658 0.0
H1714 H 0.20353 0.43641 0.5041 0.0
H1715 H 0.1705 0.41649 0.48625 0.0
H1716 H 0.14616 0.36549 0.56201 0.0
C1717 C 0.0936 0.3218 0.48003 0.0
C1718 C 0.14087 0.35699 0.45617 0.0
C1719 C 0.0824 0.30267 0.47032 0.0
C1720 C 0.19982 0.42113 0.51778 0.0
C1721 C 0.18102 0.40964 0.50731 0.0
C1722 C 0.14469 0.36346 0.53237 0.0
C1723 C 0.11468 0.32589 0.46622 0.0
C1724 C 0.12803 0.34443 0.48034 0.0
C1725 C 0.17629 0.38914 0.52285 0.0
C1726 C 0.1582 0.37536 0.50827 0.0
H1727 H 0.12087 0.28001 0.41407 0.0
H1728 H 0.14012 0.31351 0.43025 0.0
H1729 H 0.12017 0.33873 0.53793 0.0
H1730 H 0.22012 0.38482 0.58026 0.0
H1731 H 0.18717 0.36506 0.56264 0.0
C1732 C 0.41991 0.80288 0.47884 0.0
C1733 C 0.41206 0.78801 0.45234 0.0
C1734 C 0.40713 0.82082 0.48962 0.0
C1735 C 0.34908 0.83381 0.49635 0.0
H1736 H 0.36728 0.89247 0.52238 0.0
C1737 C 0.3028 0.91851 0.53326 0.0
C1738 C 0.28665 0.90972 0.55653 0.0
C1739 C 0.32118 0.90605 0.52362 0.0
C1740 C 0.36201 0.87614 0.51517 0.0
H1741 H 0.38581 0.78144 0.41377 0.0
H1742 H 0.3639 0.8128 0.43185 0.0
H1743 H 0.3938 0.86689 0.49529 0.0
H1744 H 0.27813 0.88206 0.5909 0.0
H1745 H 0.31023 0.86067 0.57489 0.0
H1746 H 0.31745 0.84274 0.5157 0.0
C1747 C 0.37955 0.81036 0.44512 0.0
C1748 C 0.37718 0.8615 0.49984 0.0
C1749 C 0.39217 0.79246 0.4346 0.0
C1750 C 0.29017 0.88915 0.57254 0.0
C1751 C 0.3085 0.87685 0.56317 0.0
C1752 C 0.33409 0.84826 0.51181 0.0
C1753 C 0.38639 0.82417 0.47393 0.0
C1754 C 0.37078 0.8402 0.49 0.0
C1755 C 0.32368 0.88468 0.53725 0.0
C1756 C 0.34031 0.86958 0.52153 0.0
H1757 H 0.43513 0.7998 0.49312 0.0
H1758 H 0.41285 0.83117 0.51188 0.0
H1759 H 0.34365 0.81744 0.48971 0.0
H1760 H 0.30046 0.93428 0.52037 0.0
H1761 H 0.33259 0.91255 0.50359 0.0
C1762 C 0.89241 0.70792 0.4351 0.0
C1763 C 0.91251 0.71325 0.4515 0.0
C1764 C 0.88143 0.68879 0.44492 0.0
C1765 C 0.87377 0.65408 0.52477 0.0
H1766 H 0.84017 0.61831 0.45704 0.0
C1767 C 0.80459 0.58052 0.5248 0.0
C1768 C 0.78881 0.59037 0.54758 0.0
C1769 C 0.82366 0.59179 0.51522 0.0
C1770 C 0.8497 0.6279 0.47633 0.0
H1771 H 0.93735 0.70221 0.48982 0.0
H1772 H 0.91792 0.66884 0.50741 0.0
H1773 H 0.86675 0.64439 0.43276 0.0
H1774 H 0.78137 0.61911 0.5802 0.0
H1775 H 0.81478 0.63855 0.56411 0.0
H1776 H 0.85599 0.63831 0.56827 0.0
C1777 C 0.91077 0.67947 0.48682 0.0
C1778 C 0.8648 0.64293 0.46241 0.0
C1779 C 0.92196 0.69847 0.47651 0.0
C1780 C 0.79319 0.61109 0.56256 0.0
C1781 C 0.81238 0.6222 0.55344 0.0
C1782 C 0.85848 0.63924 0.53868 0.0
C1783 C 0.89014 0.67472 0.47177 0.0
C1784 C 0.87665 0.65652 0.48644 0.0
C1785 C 0.8275 0.61297 0.52874 0.0
C1786 C 0.84594 0.62633 0.51457 0.0
H1787 H 0.88474 0.719 0.41575 0.0
H1788 H 0.8655 0.68569 0.43304 0.0
H1789 H 0.88252 0.66446 0.54397 0.0
H1790 H 0.80165 0.56463 0.51263 0.0
H1791 H 0.83511 0.58422 0.49633 0.0
loop_
_geom_bond_atom_site_label_1
_geom_bond_atom_site_label_2
_geom_bond_distance
_geom_bond_site_symmetry_2
_ccdc_geom_bond_type
Fe0 O2 1.918 . S
Fe0 O5 1.997 . S
Fe0 O6 2.002 . S
Fe0 O11 1.976 . S
Fe0 O14 1.996 . S
Fe1 O2 1.918 . S
Fe1 O9 1.997 . S
Fe1 O12 1.996 . S
Fe1 O16 1.976 . S
Fe1 O19 2.002 1_554 S
O2 Fe0 1.918 . S
O2 Fe1 1.918 . S
O2 Fe3 1.918 . S
Fe3 O2 1.918 . S
Fe3 O4 2.002 . S
Fe3 O13 1.976 . S
Fe3 O17 1.996 . S
Fe3 O20 1.997 1_554 S
O4 Fe3 2.002 . S
O4 C21 1.295 . S
O5 Fe0 1.997 . S
O5 C21 1.235 . S
O6 Fe0 2.002 . S
O6 C7 1.295 . S
C7 O6 1.295 . S
C7 O9 1.235 . S
C8 O13 1.287 . S
C8 O14 1.255 . S
O9 Fe1 1.997 . S
O9 C7 1.235 . S
C10 O16 1.287 . S
C10 O17 1.255 . S
O11 Fe0 1.976 . S
O11 C18 1.287 . S
O12 Fe1 1.996 . S
O12 C18 1.255 . S
O13 Fe3 1.976 . S
O13 C8 1.287 . S
O14 Fe0 1.996 . S
O14 C8 1.255 . S
C15 O19 1.295 . S
C15 O20 1.235 . S
O16 Fe1 1.976 . S
O16 C10 1.287 . S
O17 Fe3 1.996 . S
O17 C10 1.255 . S
C18 O11 1.287 . S
C18 O12 1.255 . S
O19 Fe1 2.002 1_556 S
O19 C15 1.295 . S
O20 Fe3 1.997 1_556 S
O20 C15 1.235 . S
C21 O4 1.295 . S
C21 O5 1.235 . S
Fe22 O24 1.918 . S
Fe22 O27 1.997 . S
Fe22 O28 2.002 1_556 S
Fe22 O33 1.976 . S
Fe22 O36 1.996 . S
Fe23 O24 1.918 . S
Fe23 O31 1.997 1_556 S
Fe23 O34 1.996 . S
Fe23 O38 1.976 . S
Fe23 O41 2.002 . S
O24 Fe22 1.918 . S
O24 Fe23 1.918 . S
O24 Fe25 1.918 . S
Fe25 O24 1.918 . S
Fe25 O26 2.002 . S
Fe25 O35 1.976 . S
Fe25 O39 1.996 . S
Fe25 O42 1.997 . S
O26 Fe25 2.002 . S
O26 C43 1.295 . S
O27 Fe22 1.997 . S
O27 C43 1.235 . S
O28 Fe22 2.002 1_554 S
O28 C29 1.295 . S
C29 O28 1.295 . S
C29 O31 1.235 . S
C30 O35 1.287 . S
C30 O36 1.255 . S
O31 Fe23 1.997 1_554 S
O31 C29 1.235 . S
C32 O38 1.287 . S
C32 O39 1.255 . S
O33 Fe22 1.976 . S
O33 C40 1.287 . S
O34 Fe23 1.996 . S
O34 C40 1.255 . S
O35 Fe25 1.976 . S
O35 C30 1.287 . S
O36 Fe22 1.996 . S
O36 C30 1.255 . S
C37 O41 1.295 . S
C37 O42 1.235 . S
O38 Fe23 1.976 . S
O38 C32 1.287 . S
O39 Fe25 1.996 . S
O39 C32 1.255 . S
C40 O33 1.287 . S
C40 O34 1.255 . S
O41 Fe23 2.002 . S
O41 C37 1.295 . S
O42 Fe25 1.997 . S
O42 C37 1.235 . S
C43 O26 1.295 . S
C43 O27 1.235 . S
Fe44 O46 1.918 . S
Fe44 O49 1.997 1_554 S
Fe44 O50 2.002 . S
Fe44 O55 1.976 . S
Fe44 O58 1.996 . S
Fe45 O46 1.918 . S
Fe45 O53 1.997 . S
Fe45 O56 1.996 . S
Fe45 O60 1.976 . S
Fe45 O63 2.002 . S
O46 Fe44 1.918 . S
O46 Fe45 1.918 . S
O46 Fe47 1.918 . S
Fe47 O46 1.918 . S
Fe47 O48 2.002 1_554 S
Fe47 O57 1.976 . S
Fe47 O61 1.996 . S
Fe47 O64 1.997 . S
O48 Fe47 2.002 1_556 S
O48 C65 1.295 . S
O49 Fe44 1.997 1_556 S
O49 C65 1.235 . S
O50 Fe44 2.002 . S
O50 C51 1.295 . S
C51 O50 1.295 . S
C51 O53 1.235 . S
C52 O57 1.287 . S
C52 O58 1.255 . S
O53 Fe45 1.997 . S
O53 C51 1.235 . S
C54 O60 1.287 . S
C54 O61 1.255 . S
O55 Fe44 1.976 . S
O55 C62 1.287 . S
O56 Fe45 1.996 . S
O56 C62 1.255 . S
O57 Fe47 1.976 . S
O57 C52 1.287 . S
O58 Fe44 1.996 . S
O58 C52 1.255 . S
C59 O63 1.295 . S
C59 O64 1.235 . S
O60 Fe45 1.976 . S
O60 C54 1.287 . S
O61 Fe47 1.996 . S
O61 C54 1.255 . S
C62 O55 1.287 . S
C62 O56 1.255 . S
O63 Fe45 2.002 . S
O63 C59 1.295 . S
O64 Fe47 1.997 . S
O64 C59 1.235 . S
C65 O48 1.295 . S
C65 O49 1.235 . S
Fe66 O68 1.918 . S
Fe66 O71 1.997 . S
Fe66 O72 2.002 . S
Fe66 O77 1.976 . S
Fe66 O80 1.996 . S
Fe67 O68 1.918 . S
Fe67 O75 1.997 . S
Fe67 O78 1.996 . S
Fe67 O82 1.976 . S
Fe67 O85 2.002 1_556 S
O68 Fe66 1.918 . S
O68 Fe67 1.918 . S
O68 Fe69 1.918 . S
Fe69 O68 1.918 . S
Fe69 O70 2.002 . S
Fe69 O79 1.976 . S
Fe69 O83 1.996 . S
Fe69 O86 1.997 1_556 S
O70 Fe69 2.002 . S
O70 C87 1.295 . S
O71 Fe66 1.997 . S
O71 C87 1.235 . S
O72 Fe66 2.002 . S
O72 C73 1.295 . S
C73 O72 1.295 . S
C73 O75 1.235 . S
C74 O79 1.287 . S
C74 O80 1.255 . S
O75 Fe67 1.997 . S
O75 C73 1.235 . S
C76 O82 1.287 . S
C76 O83 1.255 . S
O77 Fe66 1.976 . S
O77 C84 1.287 . S
O78 Fe67 1.996 . S
O78 C84 1.255 . S
O79 Fe69 1.976 . S
O79 C74 1.287 . S
O80 Fe66 1.996 . S
O80 C74 1.255 . S
C81 O85 1.295 . S
C81 O86 1.235 . S
O82 Fe67 1.976 . S
O82 C76 1.287 . S
O83 Fe69 1.996 . S
O83 C76 1.255 . S
C84 O77 1.287 . S
C84 O78 1.255 . S
O85 Fe67 2.002 1_554 S
O85 C81 1.295 . S
O86 Fe69 1.997 1_554 S
O86 C81 1.235 . S
C87 O70 1.295 . S
C87 O71 1.235 . S
Fe88 O90 1.918 . S
Fe88 O93 1.997 . S
Fe88 O94 2.002 . S
Fe88 O99 1.976 . S
Fe88 O102 1.996 . S
Fe89 O90 1.918 . S
Fe89 O97 1.997 . S
Fe89 O100 1.996 . S
Fe89 O104 1.976 . S
Fe89 O107 2.002 . S
O90 Fe88 1.918 . S
O90 Fe89 1.918 . S
O90 Fe91 1.918 . S
Fe91 O90 1.918 . S
Fe91 O92 2.002 . S
Fe91 O101 1.976 . S
Fe91 O105 1.996 . S
Fe91 O108 1.997 . S
O92 Fe91 2.002 . S
O92 C109 1.295 . S
O93 Fe88 1.997 . S
O93 C109 1.235 . S
O94 Fe88 2.002 . S
O94 C95 1.295 . S
C95 O94 1.295 . S
C95 O97 1.235 . S
C96 O101 1.287 . S
C96 O102 1.255 . S
O97 Fe89 1.997 . S
O97 C95 1.235 . S
C98 O104 1.287 . S
C98 O105 1.255 . S
O99 Fe88 1.976 . S
O99 C106 1.287 . S
O100 Fe89 1.996 . S
O100 C106 1.255 . S
O101 Fe91 1.976 . S
O101 C96 1.287 . S
O102 Fe88 1.996 . S
O102 C96 1.255 . S
C103 O107 1.295 . S
C103 O108 1.235 . S
O104 Fe89 1.976 . S
O104 C98 1.287 . S
O105 Fe91 1.996 . S
O105 C98 1.255 . S
C106 O99 1.287 . S
C106 O100 1.255 . S
O107 Fe89 2.002 . S
O107 C103 1.295 . S
O108 Fe91 1.997 . S
O108 C103 1.235 . S
C109 O92 1.295 . S
C109 O93 1.235 . S
Fe110 O112 1.918 . S
Fe110 O115 1.997 . S
Fe110 O116 2.002 . S
Fe110 O121 1.976 . S
Fe110 O124 1.996 . S
Fe111 O112 1.918 . S
Fe111 O119 1.997 . S
Fe111 O122 1.996 . S
Fe111 O126 1.976 . S
Fe111 O129 2.002 . S
O112 Fe110 1.918 . S
O112 Fe111 1.918 . S
O112 Fe113 1.918 . S
Fe113 O112 1.918 . S
Fe113 O114 2.002 . S
Fe113 O123 1.976 . S
Fe113 O127 1.996 . S
Fe113 O130 1.997 . S
O114 Fe113 2.002 . S
O114 C131 1.295 . S
O115 Fe110 1.997 . S
O115 C131 1.235 . S
O116 Fe110 2.002 . S
O116 C117 1.295 . S
C117 O116 1.295 . S
C117 O119 1.235 . S
C118 O123 1.287 . S
C118 O124 1.255 . S
O119 Fe111 1.997 . S
O119 C117 1.235 . S
C120 O126 1.287 . S
C120 O127 1.255 . S
O121 Fe110 1.976 . S
O121 C128 1.287 . S
O122 Fe111 1.996 . S
O122 C128 1.255 . S
O123 Fe113 1.976 . S
O123 C118 1.287 . S
O124 Fe110 1.996 . S
O124 C118 1.255 . S
C125 O129 1.295 . S
C125 O130 1.235 . S
O126 Fe111 1.976 . S
O126 C120 1.287 . S
O127 Fe113 1.996 . S
O127 C120 1.255 . S
C128 O121 1.287 . S
C128 O122 1.255 . S
O129 Fe111 2.002 . S
O129 C125 1.295 . S
O130 Fe113 1.997 . S
O130 C125 1.235 . S
C131 O114 1.295 . S
C131 O115 1.235 . S
Fe132 O134 1.918 . S
Fe132 O137 1.997 . S
Fe132 O138 2.002 . S
Fe132 O143 1.976 . S
Fe132 O146 1.996 . S
Fe133 O134 1.918 . S
Fe133 O141 1.997 . S
Fe133 O144 1.996 . S
Fe133 O148 1.976 . S
Fe133 O151 2.002 . S
O134 Fe132 1.918 . S
O134 Fe133 1.918 . S
O134 Fe135 1.918 . S
Fe135 O134 1.918 . S
Fe135 O136 2.002 . S
Fe135 O145 1.976 . S
Fe135 O149 1.996 . S
Fe135 O152 1.997 . S
O136 Fe135 2.002 . S
O136 C153 1.295 . S
O137 Fe132 1.997 . S
O137 C153 1.235 . S
O138 Fe132 2.002 . S
O138 C139 1.295 . S
C139 O138 1.295 . S
C139 O141 1.235 . S
C140 O145 1.287 . S
C140 O146 1.255 . S
O141 Fe133 1.997 . S
O141 C139 1.235 . S
C142 O148 1.287 . S
C142 O149 1.255 . S
O143 Fe132 1.976 . S
O143 C150 1.287 . S
O144 Fe133 1.996 . S
O144 C150 1.255 . S
O145 Fe135 1.976 . S
O145 C140 1.287 . S
O146 Fe132 1.996 . S
O146 C140 1.255 . S
C147 O151 1.295 . S
C147 O152 1.235 . S
O148 Fe133 1.976 . S
O148 C142 1.287 . S
O149 Fe135 1.996 . S
O149 C142 1.255 . S
C150 O143 1.287 . S
C150 O144 1.255 . S
O151 Fe133 2.002 . S
O151 C147 1.295 . S
O152 Fe135 1.997 . S
O152 C147 1.235 . S
C153 O136 1.295 . S
C153 O137 1.235 . S
Fe154 O156 1.918 . S
Fe154 O159 1.997 . S
Fe154 O160 2.002 . S
Fe154 O165 1.976 . S
Fe154 O168 1.996 . S
Fe155 O156 1.918 . S
Fe155 O163 1.997 . S
Fe155 O166 1.996 . S
Fe155 O170 1.976 . S
Fe155 O173 2.002 . S
O156 Fe154 1.918 . S
O156 Fe155 1.918 . S
O156 Fe157 1.918 . S
Fe157 O156 1.918 . S
Fe157 O158 2.002 . S
Fe157 O167 1.976 . S
Fe157 O171 1.996 . S
Fe157 O174 1.997 . S
O158 Fe157 2.002 . S
O158 C175 1.295 . S
O159 Fe154 1.997 . S
O159 C175 1.235 . S
O160 Fe154 2.002 . S
O160 C161 1.295 . S
C161 O160 1.295 . S
C161 O163 1.235 . S
C162 O167 1.287 . S
C162 O168 1.255 . S
O163 Fe155 1.997 . S
O163 C161 1.235 . S
C164 O170 1.287 . S
C164 O171 1.255 . S
O165 Fe154 1.976 . S
O165 C172 1.287 . S
O166 Fe155 1.996 . S
O166 C172 1.255 . S
O167 Fe157 1.976 . S
O167 C162 1.287 . S
O168 Fe154 1.996 . S
O168 C162 1.255 . S
C169 O173 1.295 . S
C169 O174 1.235 . S
O170 Fe155 1.976 . S
O170 C164 1.287 . S
O171 Fe157 1.996 . S
O171 C164 1.255 . S
C172 O165 1.287 . S
C172 O166 1.255 . S
O173 Fe155 2.002 . S
O173 C169 1.295 . S
O174 Fe157 1.997 . S
O174 C169 1.235 . S
C175 O158 1.295 . S
C175 O159 1.235 . S
Fe176 O178 1.918 . S
Fe176 O181 1.997 . S
Fe176 O182 2.002 . S
Fe176 O187 1.976 . S
Fe176 O190 1.996 . S
Fe177 O178 1.918 . S
Fe177 O185 1.997 . S
Fe177 O188 1.996 . S
Fe177 O192 1.976 . S
Fe177 O195 2.002 . S
O178 Fe176 1.918 . S
O178 Fe177 1.918 . S
O178 Fe179 1.918 . S
Fe179 O178 1.918 . S
Fe179 O180 2.002 . S
Fe179 O189 1.976 . S
Fe179 O193 1.996 . S
Fe179 O196 1.997 . S
O180 Fe179 2.002 . S
O180 C197 1.295 . S
O181 Fe176 1.997 . S
O181 C197 1.235 . S
O182 Fe176 2.002 . S
O182 C183 1.295 . S
C183 O182 1.295 . S
C183 O185 1.235 . S
C184 O189 1.287 . S
C184 O190 1.255 . S
O185 Fe177 1.997 . S
O185 C183 1.235 . S
C186 O192 1.287 . S
C186 O193 1.255 . S
O187 Fe176 1.976 . S
O187 C194 1.287 . S
O188 Fe177 1.996 . S
O188 C194 1.255 . S
O189 Fe179 1.976 . S
O189 C184 1.287 . S
O190 Fe176 1.996 . S
O190 C184 1.255 . S
C191 O195 1.295 . S
C191 O196 1.235 . S
O192 Fe177 1.976 . S
O192 C186 1.287 . S
O193 Fe179 1.996 . S
O193 C186 1.255 . S
C194 O187 1.287 . S
C194 O188 1.255 . S
O195 Fe177 2.002 . S
O195 C191 1.295 . S
O196 Fe179 1.997 . S
O196 C191 1.235 . S
C197 O180 1.295 . S
C197 O181 1.235 . S
Fe198 O200 1.918 . S
Fe198 O203 1.997 . S
Fe198 O204 2.002 . S
Fe198 O209 1.976 . S
Fe198 O212 1.996 . S
Fe199 O200 1.918 . S
Fe199 O207 1.997 . S
Fe199 O210 1.996 . S
Fe199 O214 1.976 . S
Fe199 O217 2.002 . S
O200 Fe198 1.918 . S
O200 Fe199 1.918 . S
O200 Fe201 1.918 . S
Fe201 O200 1.918 . S
Fe201 O202 2.002 . S
Fe201 O211 1.976 . S
Fe201 O215 1.996 . S
Fe201 O218 1.997 . S
O202 Fe201 2.002 . S
O202 C219 1.295 . S
O203 Fe198 1.997 . S
O203 C219 1.235 . S
O204 Fe198 2.002 . S
O204 C205 1.295 . S
C205 O204 1.295 . S
C205 O207 1.235 . S
C206 O211 1.287 . S
C206 O212 1.255 . S
O207 Fe199 1.997 . S
O207 C205 1.235 . S
C208 O214 1.287 . S
C208 O215 1.255 . S
O209 Fe198 1.976 . S
O209 C216 1.287 . S
O210 Fe199 1.996 . S
O210 C216 1.255 . S
O211 Fe201 1.976 . S
O211 C206 1.287 . S
O212 Fe198 1.996 . S
O212 C206 1.255 . S
C213 O217 1.295 . S
C213 O218 1.235 . S
O214 Fe199 1.976 . S
O214 C208 1.287 . S
O215 Fe201 1.996 . S
O215 C208 1.255 . S
C216 O209 1.287 . S
C216 O210 1.255 . S
O217 Fe199 2.002 . S
O217 C213 1.295 . S
O218 Fe201 1.997 . S
O218 C213 1.235 . S
C219 O202 1.295 . S
C219 O203 1.235 . S
Fe220 O222 1.918 . S
Fe220 O225 1.997 . S
Fe220 O226 2.002 . S
Fe220 O231 1.976 . S
Fe220 O234 1.996 . S
Fe221 O222 1.918 . S
Fe221 O229 1.997 . S
Fe221 O232 1.996 . S
Fe221 O236 1.976 . S
Fe221 O239 2.002 . S
O222 Fe220 1.918 . S
O222 Fe221 1.918 . S
O222 Fe223 1.918 . S
Fe223 O222 1.918 . S
Fe223 O224 2.002 . S
Fe223 O233 1.976 . S
Fe223 O237 1.996 . S
Fe223 O240 1.997 . S
O224 Fe223 2.002 . S
O224 C241 1.295 . S
O225 Fe220 1.997 . S
O225 C241 1.235 . S
O226 Fe220 2.002 . S
O226 C227 1.295 . S
C227 O226 1.295 . S
C227 O229 1.235 . S
C228 O233 1.287 . S
C228 O234 1.255 . S
O229 Fe221 1.997 . S
O229 C227 1.235 . S
C230 O236 1.287 . S
C230 O237 1.255 . S
O231 Fe220 1.976 . S
O231 C238 1.287 . S
O232 Fe221 1.996 . S
O232 C238 1.255 . S
O233 Fe223 1.976 . S
O233 C228 1.287 . S
O234 Fe220 1.996 . S
O234 C228 1.255 . S
C235 O239 1.295 . S
C235 O240 1.235 . S
O236 Fe221 1.976 . S
O236 C230 1.287 . S
O237 Fe223 1.996 . S
O237 C230 1.255 . S
C238 O231 1.287 . S
C238 O232 1.255 . S
O239 Fe221 2.002 . S
O239 C235 1.295 . S
O240 Fe223 1.997 . S
O240 C235 1.235 . S
C241 O224 1.295 . S
C241 O225 1.235 . S
Fe242 O244 1.918 . S
Fe242 O247 1.997 . S
Fe242 O248 2.002 . S
Fe242 O253 1.976 . S
Fe242 O256 1.996 . S
Fe243 O244 1.918 . S
Fe243 O251 1.997 . S
Fe243 O254 1.996 . S
Fe243 O258 1.976 . S
Fe243 O261 2.002 . S
O244 Fe242 1.918 . S
O244 Fe243 1.918 . S
O244 Fe245 1.918 . S
Fe245 O244 1.918 . S
Fe245 O246 2.002 . S
Fe245 O255 1.976 . S
Fe245 O259 1.996 . S
Fe245 O262 1.997 . S
O246 Fe245 2.002 . S
O246 C263 1.295 . S
O247 Fe242 1.997 . S
O247 C263 1.235 . S
O248 Fe242 2.002 . S
O248 C249 1.295 . S
C249 O248 1.295 . S
C249 O251 1.235 . S
C250 O255 1.287 . S
C250 O256 1.255 . S
O251 Fe243 1.997 . S
O251 C249 1.235 . S
C252 O258 1.287 . S
C252 O259 1.255 . S
O253 Fe242 1.976 . S
O253 C260 1.287 . S
O254 Fe243 1.996 . S
O254 C260 1.255 . S
O255 Fe245 1.976 . S
O255 C250 1.287 . S
O256 Fe242 1.996 . S
O256 C250 1.255 . S
C257 O261 1.295 . S
C257 O262 1.235 . S
O258 Fe243 1.976 . S
O258 C252 1.287 . S
O259 Fe245 1.996 . S
O259 C252 1.255 . S
C260 O253 1.287 . S
C260 O254 1.255 . S
O261 Fe243 2.002 . S
O261 C257 1.295 . S
O262 Fe245 1.997 . S
O262 C257 1.235 . S
C263 O246 1.295 . S
C263 O247 1.235 . S
Fe264 O266 1.918 . S
Fe264 O269 1.997 . S
Fe264 O270 2.002 . S
Fe264 O275 1.976 . S
Fe264 O278 1.996 . S
Fe265 O266 1.918 . S
Fe265 O273 1.997 . S
Fe265 O276 1.996 . S
Fe265 O280 1.976 . S
Fe265 O283 2.002 1_554 S
O266 Fe264 1.918 . S
O266 Fe265 1.918 . S
O266 Fe267 1.918 . S
Fe267 O266 1.918 . S
Fe267 O268 2.002 . S
Fe267 O277 1.976 . S
Fe267 O281 1.996 . S
Fe267 O284 1.997 1_554 S
O268 Fe267 2.002 . S
O268 C285 1.295 . S
O269 Fe264 1.997 . S
O269 C285 1.235 . S
O270 Fe264 2.002 . S
O270 C271 1.295 . S
C271 O270 1.295 . S
C271 O273 1.235 . S
C272 O277 1.287 . S
C272 O278 1.255 . S
O273 Fe265 1.997 . S
O273 C271 1.235 . S
C274 O280 1.287 . S
C274 O281 1.255 . S
O275 Fe264 1.976 . S
O275 C282 1.287 . S
O276 Fe265 1.996 . S
O276 C282 1.255 . S
O277 Fe267 1.976 . S
O277 C272 1.287 . S
O278 Fe264 1.996 . S
O278 C272 1.255 . S
C279 O283 1.295 . S
C279 O284 1.235 . S
O280 Fe265 1.976 . S
O280 C274 1.287 . S
O281 Fe267 1.996 . S
O281 C274 1.255 . S
C282 O275 1.287 . S
C282 O276 1.255 . S
O283 Fe265 2.002 1_556 S
O283 C279 1.295 . S
O284 Fe267 1.997 1_556 S
O284 C279 1.235 . S
C285 O268 1.295 . S
C285 O269 1.235 . S
Fe286 O288 1.918 . S
Fe286 O291 1.997 . S
Fe286 O292 2.002 . S
Fe286 O297 1.976 . S
Fe286 O300 1.996 . S
Fe287 O288 1.918 . S
Fe287 O295 1.997 . S
Fe287 O298 1.996 . S
Fe287 O302 1.976 . S
Fe287 O305 2.002 1_556 S
O288 Fe286 1.918 . S
O288 Fe287 1.918 . S
O288 Fe289 1.918 . S
Fe289 O288 1.918 . S
Fe289 O290 2.002 . S
Fe289 O299 1.976 . S
Fe289 O303 1.996 . S
Fe289 O306 1.997 1_556 S
O290 Fe289 2.002 . S
O290 C307 1.295 . S
O291 Fe286 1.997 . S
O291 C307 1.235 . S
O292 Fe286 2.002 . S
O292 C293 1.295 . S
C293 O292 1.295 . S
C293 O295 1.235 . S
C294 O299 1.287 . S
C294 O300 1.255 . S
O295 Fe287 1.997 . S
O295 C293 1.235 . S
C296 O302 1.287 . S
C296 O303 1.255 . S
O297 Fe286 1.976 . S
O297 C304 1.287 . S
O298 Fe287 1.996 . S
O298 C304 1.255 . S
O299 Fe289 1.976 . S
O299 C294 1.287 . S
O300 Fe286 1.996 . S
O300 C294 1.255 . S
C301 O305 1.295 . S
C301 O306 1.235 . S
O302 Fe287 1.976 . S
O302 C296 1.287 . S
O303 Fe289 1.996 . S
O303 C296 1.255 . S
C304 O297 1.287 . S
C304 O298 1.255 . S
O305 Fe287 2.002 1_554 S
O305 C301 1.295 . S
O306 Fe289 1.997 1_554 S
O306 C301 1.235 . S
C307 O290 1.295 . S
C307 O291 1.235 . S
Fe308 O310 1.918 . S
Fe308 O313 1.997 . S
Fe308 O314 2.002 . S
Fe308 O319 1.976 . S
Fe308 O322 1.996 . S
Fe309 O310 1.918 . S
Fe309 O317 1.997 . S
Fe309 O320 1.996 . S
Fe309 O324 1.976 . S
Fe309 O327 2.002 1_554 S
O310 Fe308 1.918 . S
O310 Fe309 1.918 . S
O310 Fe311 1.918 . S
Fe311 O310 1.918 . S
Fe311 O312 2.002 . S
Fe311 O321 1.976 . S
Fe311 O325 1.996 . S
Fe311 O328 1.997 1_554 S
O312 Fe311 2.002 . S
O312 C329 1.295 . S
O313 Fe308 1.997 . S
O313 C329 1.235 . S
O314 Fe308 2.002 . S
O314 C315 1.295 . S
C315 O314 1.295 . S
C315 O317 1.235 . S
C316 O321 1.287 . S
C316 O322 1.255 . S
O317 Fe309 1.997 . S
O317 C315 1.235 . S
C318 O324 1.287 . S
C318 O325 1.255 . S
O319 Fe308 1.976 . S
O319 C326 1.287 . S
O320 Fe309 1.996 . S
O320 C326 1.255 . S
O321 Fe311 1.976 . S
O321 C316 1.287 . S
O322 Fe308 1.996 . S
O322 C316 1.255 . S
C323 O327 1.295 . S
C323 O328 1.235 . S
O324 Fe309 1.976 . S
O324 C318 1.287 . S
O325 Fe311 1.996 . S
O325 C318 1.255 . S
C326 O319 1.287 . S
C326 O320 1.255 . S
O327 Fe309 2.002 1_556 S
O327 C323 1.295 . S
O328 Fe311 1.997 1_556 S
O328 C323 1.235 . S
C329 O312 1.295 . S
C329 O313 1.235 . S
Fe330 O332 1.918 . S
Fe330 O335 1.997 . S
Fe330 O336 2.002 1_556 S
Fe330 O341 1.976 . S
Fe330 O344 1.996 . S
Fe331 O332 1.918 . S
Fe331 O339 1.997 1_556 S
Fe331 O342 1.996 . S
Fe331 O346 1.976 . S
Fe331 O349 2.002 . S
O332 Fe330 1.918 . S
O332 Fe331 1.918 . S
O332 Fe333 1.918 . S
Fe333 O332 1.918 . S
Fe333 O334 2.002 . S
Fe333 O343 1.976 . S
Fe333 O347 1.996 . S
Fe333 O350 1.997 . S
O334 Fe333 2.002 . S
O334 C351 1.295 . S
O335 Fe330 1.997 . S
O335 C351 1.235 . S
O336 Fe330 2.002 1_554 S
O336 C337 1.295 . S
C337 O336 1.295 . S
C337 O339 1.235 . S
C338 O343 1.287 . S
C338 O344 1.255 . S
O339 Fe331 1.997 1_554 S
O339 C337 1.235 . S
C340 O346 1.287 . S
C340 O347 1.255 . S
O341 Fe330 1.976 . S
O341 C348 1.287 . S
O342 Fe331 1.996 . S
O342 C348 1.255 . S
O343 Fe333 1.976 . S
O343 C338 1.287 . S
O344 Fe330 1.996 . S
O344 C338 1.255 . S
C345 O349 1.295 . S
C345 O350 1.235 . S
O346 Fe331 1.976 . S
O346 C340 1.287 . S
O347 Fe333 1.996 . S
O347 C340 1.255 . S
C348 O341 1.287 . S
C348 O342 1.255 . S
O349 Fe331 2.002 . S
O349 C345 1.295 . S
O350 Fe333 1.997 . S
O350 C345 1.235 . S
C351 O334 1.295 . S
C351 O335 1.235 . S
C352 C353 1.349 . S
C352 C354 1.327 . S
C352 H377 0.950 . S
C353 C352 1.349 . S
C353 C369 1.349 . S
C354 C352 1.327 . S
C354 C373 1.429 . S
C354 H378 0.950 . S
C355 C372 1.574 . S
C355 C374 1.368 . S
C355 H379 0.949 . S
H356 C360 0.949 . S
C357 C358 1.349 . S
C357 C359 1.327 . S
C357 H380 0.950 . S
C358 C357 1.349 . S
C358 C370 1.349 . S
C359 C357 1.327 . S
C359 C375 1.429 . S
C359 H381 0.950 . S
C360 H356 0.949 . S
C360 C368 1.574 . S
C360 C376 1.368 . S
H361 C369 0.950 . S
H362 C367 0.950 . S
H363 C368 0.949 . S
H364 C370 0.950 . S
H365 C371 0.950 . S
H366 C372 0.949 . S
C367 H362 0.950 . S
C367 C369 1.327 . S
C367 C373 1.429 . S
C368 C360 1.574 . S
C368 H363 0.949 . S
C368 C374 1.368 . S
C369 C353 1.349 . S
C369 H361 0.950 . S
C369 C367 1.327 . S
C370 C358 1.349 . S
C370 H364 0.950 . S
C370 C371 1.327 . S
C371 H365 0.950 . S
C371 C370 1.327 . S
C371 C375 1.429 . S
C372 C355 1.574 . S
C372 H366 0.949 . S
C372 C376 1.368 . S
C373 C354 1.429 . S
C373 C367 1.429 . S
C373 C374 1.523 . S
C374 C355 1.368 . S
C374 C368 1.368 . S
C374 C373 1.523 . S
C375 C359 1.429 . S
C375 C371 1.429 . S
C375 C376 1.523 . S
C376 C360 1.368 . S
C376 C372 1.368 . S
C376 C375 1.523 . S
H377 C352 0.950 . S
H378 C354 0.950 . S
H379 C355 0.949 . S
H380 C357 0.950 . S
H381 C359 0.950 . S
C382 C383 1.349 . S
C382 C384 1.327 . S
C382 H407 0.950 . S
C383 C382 1.349 . S
C383 C399 1.349 . S
C384 C382 1.327 . S
C384 C403 1.429 . S
C384 H408 0.950 . S
C385 C402 1.574 . S
C385 C404 1.368 . S
C385 H409 0.949 . S
H386 C390 0.949 . S
C387 C388 1.349 . S
C387 C389 1.327 . S
C387 H410 0.950 . S
C388 C387 1.349 . S
C388 C400 1.349 . S
C389 C387 1.327 . S
C389 C405 1.429 . S
C389 H411 0.950 . S
C390 H386 0.949 . S
C390 C398 1.574 . S
C390 C406 1.368 . S
H391 C399 0.950 . S
H392 C397 0.950 . S
H393 C398 0.949 . S
H394 C400 0.950 . S
H395 C401 0.950 . S
H396 C402 0.949 . S
C397 H392 0.950 . S
C397 C399 1.327 . S
C397 C403 1.429 . S
C398 C390 1.574 . S
C398 H393 0.949 . S
C398 C404 1.368 . S
C399 C383 1.349 . S
C399 H391 0.950 . S
C399 C397 1.327 . S
C400 C388 1.349 . S
C400 H394 0.950 . S
C400 C401 1.327 . S
C401 H395 0.950 . S
C401 C400 1.327 . S
C401 C405 1.429 . S
C402 C385 1.574 . S
C402 H396 0.949 . S
C402 C406 1.368 . S
C403 C384 1.429 . S
C403 C397 1.429 . S
C403 C404 1.523 . S
C404 C385 1.368 . S
C404 C398 1.368 . S
C404 C403 1.523 . S
C405 C389 1.429 . S
C405 C401 1.429 . S
C405 C406 1.523 . S
C406 C390 1.368 . S
C406 C402 1.368 . S
C406 C405 1.523 . S
H407 C382 0.950 . S
H408 C384 0.950 . S
H409 C385 0.949 . S
H410 C387 0.950 . S
H411 C389 0.950 . S
C412 C413 1.349 . S
C412 C414 1.327 . S
C412 H437 0.950 . S
C413 C412 1.349 . S
C413 C429 1.349 . S
C414 C412 1.327 . S
C414 C433 1.429 . S
C414 H438 0.950 . S
C415 C432 1.574 . S
C415 C434 1.368 . S
C415 H439 0.949 . S
H416 C420 0.949 . S
C417 C418 1.349 . S
C417 C419 1.327 . S
C417 H440 0.950 . S
C418 C417 1.349 . S
C418 C430 1.349 . S
C419 C417 1.327 . S
C419 C435 1.429 . S
C419 H441 0.950 . S
C420 H416 0.949 . S
C420 C428 1.574 . S
C420 C436 1.368 . S
H421 C429 0.950 . S
H422 C427 0.950 . S
H423 C428 0.949 . S
H424 C430 0.950 . S
H425 C431 0.950 . S
H426 C432 0.949 . S
C427 H422 0.950 . S
C427 C429 1.327 . S
C427 C433 1.429 . S
C428 C420 1.574 . S
C428 H423 0.949 . S
C428 C434 1.368 . S
C429 C413 1.349 . S
C429 H421 0.950 . S
C429 C427 1.327 . S
C430 C418 1.349 . S
C430 H424 0.950 . S
C430 C431 1.327 . S
C431 H425 0.950 . S
C431 C430 1.327 . S
C431 C435 1.429 . S
C432 C415 1.574 . S
C432 H426 0.949 . S
C432 C436 1.368 . S
C433 C414 1.429 . S
C433 C427 1.429 . S
C433 C434 1.523 . S
C434 C415 1.368 . S
C434 C428 1.368 . S
C434 C433 1.523 . S
C435 C419 1.429 . S
C435 C431 1.429 . S
C435 C436 1.523 . S
C436 C420 1.368 . S
C436 C432 1.368 . S
C436 C435 1.523 . S
H437 C412 0.950 . S
H438 C414 0.950 . S
H439 C415 0.949 . S
H440 C417 0.950 . S
H441 C419 0.950 . S
C442 C443 1.349 . S
C442 C444 1.327 . S
C442 H467 0.950 . S
C443 C442 1.349 . S
C443 C459 1.349 . S
C444 C442 1.327 . S
C444 C463 1.429 . S
C444 H468 0.950 . S
C445 C462 1.574 . S
C445 C464 1.368 . S
C445 H469 0.949 . S
H446 C450 0.949 . S
C447 C448 1.349 . S
C447 C449 1.327 . S
C447 H470 0.950 . S
C448 C447 1.349 . S
C448 C460 1.349 . S
C449 C447 1.327 . S
C449 C465 1.429 . S
C449 H471 0.950 . S
C450 H446 0.949 . S
C450 C458 1.574 . S
C450 C466 1.368 . S
H451 C459 0.950 . S
H452 C457 0.950 . S
H453 C458 0.949 . S
H454 C460 0.950 . S
H455 C461 0.950 . S
H456 C462 0.949 . S
C457 H452 0.950 . S
C457 C459 1.327 . S
C457 C463 1.429 . S
C458 C450 1.574 . S
C458 H453 0.949 . S
C458 C464 1.368 . S
C459 C443 1.349 . S
C459 H451 0.950 . S
C459 C457 1.327 . S
C460 C448 1.349 . S
C460 H454 0.950 . S
C460 C461 1.327 . S
C461 H455 0.950 . S
C461 C460 1.327 . S
C461 C465 1.429 . S
C462 C445 1.574 . S
C462 H456 0.949 . S
C462 C466 1.368 . S
C463 C444 1.429 . S
C463 C457 1.429 . S
C463 C464 1.523 . S
C464 C445 1.368 . S
C464 C458 1.368 . S
C464 C463 1.523 . S
C465 C449 1.429 . S
C465 C461 1.429 . S
C465 C466 1.523 . S
C466 C450 1.368 . S
C466 C462 1.368 . S
C466 C465 1.523 . S
H467 C442 0.950 . S
H468 C444 0.950 . S
H469 C445 0.949 . S
H470 C447 0.950 . S
H471 C449 0.950 . S
C472 C473 1.349 . S
C472 C474 1.327 . S
C472 H497 0.950 . S
C473 C472 1.349 . S
C473 C489 1.349 . S
C474 C472 1.327 . S
C474 C493 1.429 . S
C474 H498 0.950 . S
C475 C492 1.574 . S
C475 C494 1.368 . S
C475 H499 0.949 . S
H476 C480 0.949 . S
C477 C478 1.349 . S
C477 C479 1.327 . S
C477 H500 0.950 . S
C478 C477 1.349 . S
C478 C490 1.349 . S
C479 C477 1.327 . S
C479 C495 1.429 . S
C479 H501 0.950 . S
C480 H476 0.949 . S
C480 C488 1.574 . S
C480 C496 1.368 . S
H481 C489 0.950 . S
H482 C487 0.950 . S
H483 C488 0.949 . S
H484 C490 0.950 . S
H485 C491 0.950 . S
H486 C492 0.949 . S
C487 H482 0.950 . S
C487 C489 1.327 . S
C487 C493 1.429 . S
C488 C480 1.574 . S
C488 H483 0.949 . S
C488 C494 1.368 . S
C489 C473 1.349 . S
C489 H481 0.950 . S
C489 C487 1.327 . S
C490 C478 1.349 . S
C490 H484 0.950 . S
C490 C491 1.327 . S
C491 H485 0.950 . S
C491 C490 1.327 . S
C491 C495 1.429 . S
C492 C475 1.574 . S
C492 H486 0.949 . S
C492 C496 1.368 . S
C493 C474 1.429 . S
C493 C487 1.429 . S
C493 C494 1.523 . S
C494 C475 1.368 . S
C494 C488 1.368 . S
C494 C493 1.523 . S
C495 C479 1.429 . S
C495 C491 1.429 . S
C495 C496 1.523 . S
C496 C480 1.368 . S
C496 C492 1.368 . S
C496 C495 1.523 . S
H497 C472 0.950 . S
H498 C474 0.950 . S
H499 C475 0.949 . S
H500 C477 0.950 . S
H501 C479 0.950 . S
C502 C503 1.349 . S
C502 C504 1.327 . S
C502 H527 0.950 . S
C503 C502 1.349 . S
C503 C519 1.349 . S
C504 C502 1.327 . S
C504 C523 1.429 . S
C504 H528 0.950 . S
C505 C522 1.574 . S
C505 C524 1.368 . S
C505 H529 0.949 . S
H506 C510 0.949 . S
C507 C508 1.349 . S
C507 C509 1.327 . S
C507 H530 0.950 . S
C508 C507 1.349 . S
C508 C520 1.349 . S
C509 C507 1.327 . S
C509 C525 1.429 . S
C509 H531 0.950 . S
C510 H506 0.949 . S
C510 C518 1.574 . S
C510 C526 1.368 . S
H511 C519 0.950 . S
H512 C517 0.950 . S
H513 C518 0.949 . S
H514 C520 0.950 . S
H515 C521 0.950 . S
H516 C522 0.949 . S
C517 H512 0.950 . S
C517 C519 1.327 . S
C517 C523 1.429 . S
C518 C510 1.574 . S
C518 H513 0.949 . S
C518 C524 1.368 . S
C519 C503 1.349 . S
C519 H511 0.950 . S
C519 C517 1.327 . S
C520 C508 1.349 . S
C520 H514 0.950 . S
C520 C521 1.327 . S
C521 H515 0.950 . S
C521 C520 1.327 . S
C521 C525 1.429 . S
C522 C505 1.574 . S
C522 H516 0.949 . S
C522 C526 1.368 . S
C523 C504 1.429 . S
C523 C517 1.429 . S
C523 C524 1.523 . S
C524 C505 1.368 . S
C524 C518 1.368 . S
C524 C523 1.523 . S
C525 C509 1.429 . S
C525 C521 1.429 . S
C525 C526 1.523 . S
C526 C510 1.368 . S
C526 C522 1.368 . S
C526 C525 1.523 . S
H527 C502 0.950 . S
H528 C504 0.950 . S
H529 C505 0.949 . S
H530 C507 0.950 . S
H531 C509 0.950 . S
C532 C533 1.349 . S
C532 C534 1.327 . S
C532 H557 0.950 . S
C533 C532 1.349 . S
C533 C549 1.349 . S
C534 C532 1.327 . S
C534 C553 1.429 . S
C534 H558 0.950 . S
C535 C552 1.574 . S
C535 C554 1.368 . S
C535 H559 0.949 . S
H536 C540 0.949 . S
C537 C538 1.349 . S
C537 C539 1.327 . S
C537 H560 0.950 . S
C538 C537 1.349 . S
C538 C550 1.349 . S
C539 C537 1.327 . S
C539 C555 1.429 . S
C539 H561 0.950 . S
C540 H536 0.949 . S
C540 C548 1.574 . S
C540 C556 1.368 . S
H541 C549 0.950 . S
H542 C547 0.950 . S
H543 C548 0.949 . S
H544 C550 0.950 . S
H545 C551 0.950 . S
H546 C552 0.949 . S
C547 H542 0.950 . S
C547 C549 1.327 . S
C547 C553 1.429 . S
C548 C540 1.574 . S
C548 H543 0.949 . S
C548 C554 1.368 . S
C549 C533 1.349 . S
C549 H541 0.950 . S
C549 C547 1.327 . S
C550 C538 1.349 . S
C550 H544 0.950 . S
C550 C551 1.327 . S
C551 H545 0.950 . S
C551 C550 1.327 . S
C551 C555 1.429 . S
C552 C535 1.574 . S
C552 H546 0.949 . S
C552 C556 1.368 . S
C553 C534 1.429 . S
C553 C547 1.429 . S
C553 C554 1.523 . S
C554 C535 1.368 . S
C554 C548 1.368 . S
C554 C553 1.523 . S
C555 C539 1.429 . S
C555 C551 1.429 . S
C555 C556 1.523 . S
C556 C540 1.368 . S
C556 C552 1.368 . S
C556 C555 1.523 . S
H557 C532 0.950 . S
H558 C534 0.950 . S
H559 C535 0.949 . S
H560 C537 0.950 . S
H561 C539 0.950 . S
C562 C563 1.349 . S
C562 C564 1.327 . S
C562 H587 0.950 . S
C563 C562 1.349 . S
C563 C579 1.349 . S
C564 C562 1.327 . S
C564 C583 1.429 . S
C564 H588 0.950 . S
C565 C582 1.574 . S
C565 C584 1.368 . S
C565 H589 0.949 . S
H566 C570 0.949 . S
C567 C568 1.349 . S
C567 C569 1.327 . S
C567 H590 0.950 . S
C568 C567 1.349 . S
C568 C580 1.349 . S
C569 C567 1.327 . S
C569 C585 1.429 . S
C569 H591 0.950 . S
C570 H566 0.949 . S
C570 C578 1.574 . S
C570 C586 1.368 . S
H571 C579 0.950 . S
H572 C577 0.950 . S
H573 C578 0.949 . S
H574 C580 0.950 . S
H575 C581 0.950 . S
H576 C582 0.949 . S
C577 H572 0.950 . S
C577 C579 1.327 . S
C577 C583 1.429 . S
C578 C570 1.574 . S
C578 H573 0.949 . S
C578 C584 1.368 . S
C579 C563 1.349 . S
C579 H571 0.950 . S
C579 C577 1.327 . S
C580 C568 1.349 . S
C580 H574 0.950 . S
C580 C581 1.327 . S
C581 H575 0.950 . S
C581 C580 1.327 . S
C581 C585 1.429 . S
C582 C565 1.574 . S
C582 H576 0.949 . S
C582 C586 1.368 . S
C583 C564 1.429 . S
C583 C577 1.429 . S
C583 C584 1.523 . S
C584 C565 1.368 . S
C584 C578 1.368 . S
C584 C583 1.523 . S
C585 C569 1.429 . S
C585 C581 1.429 . S
C585 C586 1.523 . S
C586 C570 1.368 . S
C586 C582 1.368 . S
C586 C585 1.523 . S
H587 C562 0.950 . S
H588 C564 0.950 . S
H589 C565 0.949 . S
H590 C567 0.950 . S
H591 C569 0.950 . S
C592 C593 1.349 . S
C592 C594 1.327 . S
C592 H617 0.950 . S
C593 C592 1.349 . S
C593 C609 1.349 . S
C594 C592 1.327 . S
C594 C613 1.429 . S
C594 H618 0.950 . S
C595 C612 1.574 . S
C595 C614 1.368 1_556 S
C595 H619 0.949 . S
H596 C600 0.949 . S
C597 C598 1.349 . S
C597 C599 1.327 . S
C597 H620 0.950 . S
C598 C597 1.349 . S
C598 C610 1.349 1_556 S
C599 C597 1.327 . S
C599 C615 1.429 . S
C599 H621 0.950 . S
C600 H596 0.949 . S
C600 C608 1.574 . S
C600 C616 1.368 . S
H601 C609 0.950 1_556 S
H602 C607 0.950 1_556 S
H603 C608 0.949 . S
H604 C610 0.950 . S
H605 C611 0.950 . S
H606 C612 0.949 . S
C607 H602 0.950 1_554 S
C607 C609 1.327 . S
C607 C613 1.429 . S
C608 C600 1.574 . S
C608 H603 0.949 . S
C608 C614 1.368 . S
C609 C593 1.349 . S
C609 H601 0.950 1_554 S
C609 C607 1.327 . S
C610 C598 1.349 1_554 S
C610 H604 0.950 . S
C610 C611 1.327 . S
C611 H605 0.950 . S
C611 C610 1.327 . S
C611 C615 1.429 1_554 S
C612 C595 1.574 . S
C612 H606 0.949 . S
C612 C616 1.368 1_556 S
C613 C594 1.429 . S
C613 C607 1.429 . S
C613 C614 1.523 . S
C614 C595 1.368 1_554 S
C614 C608 1.368 . S
C614 C613 1.523 . S
C615 C599 1.429 . S
C615 C611 1.429 1_556 S
C615 C616 1.523 1_556 S
C616 C600 1.368 . S
C616 C612 1.368 1_554 S
C616 C615 1.523 1_554 S
H617 C592 0.950 . S
H618 C594 0.950 . S
H619 C595 0.949 . S
H620 C597 0.950 . S
H621 C599 0.950 . S
C622 C623 1.349 . S
C622 C624 1.327 . S
C622 H647 0.950 . S
C623 C622 1.349 . S
C623 C639 1.349 1_554 S
C624 C622 1.327 . S
C624 C643 1.429 . S
C624 H648 0.950 . S
C625 C642 1.574 . S
C625 C644 1.368 . S
C625 H649 0.949 . S
H626 C630 0.949 . S
C627 C628 1.349 . S
C627 C629 1.327 . S
C627 H650 0.950 . S
C628 C627 1.349 . S
C628 C640 1.349 . S
C629 C627 1.327 . S
C629 C645 1.429 . S
C629 H651 0.950 . S
C630 H626 0.949 . S
C630 C638 1.574 . S
C630 C646 1.368 1_554 S
H631 C639 0.950 . S
H632 C637 0.950 . S
H633 C638 0.949 . S
H634 C640 0.950 . S
H635 C641 0.950 1_554 S
H636 C642 0.949 . S
C637 H632 0.950 . S
C637 C639 1.327 . S
C637 C643 1.429 1_556 S
C638 C630 1.574 . S
C638 H633 0.949 . S
C638 C644 1.368 1_554 S
C639 C623 1.349 1_556 S
C639 H631 0.950 . S
C639 C637 1.327 . S
C640 C628 1.349 . S
C640 H634 0.950 . S
C640 C641 1.327 . S
C641 H635 0.950 1_556 S
C641 C640 1.327 . S
C641 C645 1.429 . S
C642 C625 1.574 . S
C642 H636 0.949 . S
C642 C646 1.368 . S
C643 C624 1.429 . S
C643 C637 1.429 1_554 S
C643 C644 1.523 1_554 S
C644 C625 1.368 . S
C644 C638 1.368 1_556 S
C644 C643 1.523 1_556 S
C645 C629 1.429 . S
C645 C641 1.429 . S
C645 C646 1.523 . S
C646 C630 1.368 1_556 S
C646 C642 1.368 . S
C646 C645 1.523 . S
H647 C622 0.950 . S
H648 C624 0.950 . S
H649 C625 0.949 . S
H650 C627 0.950 . S
H651 C629 0.950 . S
C652 C653 1.349 1_554 S
C652 C654 1.327 . S
C652 H677 0.950 . S
C653 C652 1.349 1_556 S
C653 C669 1.349 . S
C654 C652 1.327 . S
C654 C673 1.429 1_554 S
C654 H678 0.950 . S
C655 C672 1.574 . S
C655 C674 1.368 1_556 S
C655 H679 0.949 . S
H656 C660 0.949 . S
C657 C658 1.349 . S
C657 C659 1.327 . S
C657 H680 0.915 1_544 S
C658 C657 1.349 . S
C658 C670 1.349 . S
C659 C657 1.327 . S
C659 C675 1.429 . S
C659 H681 0.950 1_554 S
C660 H656 0.949 . S
C660 C668 1.574 . S
C660 C676 1.368 . S
H661 C669 0.950 . S
H662 C667 0.950 . S
H663 C668 0.949 . S
H664 C670 0.950 . S
H665 C671 0.950 . S
H666 C672 0.949 . S
C667 H662 0.950 . S
C667 C669 1.327 . S
C667 C673 1.429 . S
C668 C660 1.574 . S
C668 H663 0.949 . S
C668 C674 1.368 . S
C669 C653 1.349 . S
C669 H661 0.950 . S
C669 C667 1.327 . S
C670 C658 1.349 . S
C670 H664 0.950 . S
C670 C671 1.327 . S
C671 H665 0.950 . S
C671 C670 1.327 . S
C671 C675 1.429 . S
C672 C655 1.574 . S
C672 H666 0.949 . S
C672 C676 1.368 1_556 S
C673 C654 1.429 1_556 S
C673 C667 1.429 . S
C673 C674 1.523 1_556 S
C674 C655 1.368 1_554 S
C674 C668 1.368 . S
C674 C673 1.523 1_554 S
C675 C659 1.429 . S
C675 C671 1.429 . S
C675 C676 1.523 . S
C676 C660 1.368 . S
C676 C672 1.368 1_554 S
C676 C675 1.523 . S
H677 C652 0.950 . S
H678 C654 0.950 . S
H679 C655 0.949 . S
H680 C657 0.915 1_566 S
H681 C659 0.950 1_556 S
C682 C683 1.349 . S
C682 C684 1.327 . S
C682 H707 0.950 1_456 S
C683 C682 1.349 . S
C683 C699 1.349 . S
C684 C682 1.327 . S
C684 C703 1.429 . S
C684 H708 0.950 1_556 S
C685 C702 1.574 . S
C685 C704 1.368 . S
C685 H709 0.949 . S
H686 C690 0.949 . S
C687 C688 1.349 1_556 S
C687 C689 1.327 . S
C687 H710 0.950 . S
C688 C687 1.349 1_554 S
C688 C700 1.349 . S
C689 C687 1.327 . S
C689 C705 1.429 1_556 S
C689 H711 0.950 . S
C690 H686 0.949 . S
C690 C698 1.574 . S
C690 C706 1.368 1_554 S
H691 C699 0.950 . S
H692 C697 0.950 . S
H693 C698 0.949 . S
H694 C700 0.950 . S
H695 C701 0.950 . S
H696 C702 0.949 . S
C697 H692 0.950 . S
C697 C699 1.327 . S
C697 C703 1.429 . S
C698 C690 1.574 . S
C698 H693 0.949 . S
C698 C704 1.368 1_554 S
C699 C683 1.349 . S
C699 H691 0.950 . S
C699 C697 1.327 . S
C700 C688 1.349 . S
C700 H694 0.950 . S
C700 C701 1.327 . S
C701 H695 0.950 . S
C701 C700 1.327 . S
C701 C705 1.429 . S
C702 C685 1.574 . S
C702 H696 0.949 . S
C702 C706 1.368 . S
C703 C684 1.429 . S
C703 C697 1.429 . S
C703 C704 1.523 . S
C704 C685 1.368 . S
C704 C698 1.368 1_556 S
C704 C703 1.523 . S
C705 C689 1.429 1_554 S
C705 C701 1.429 . S
C705 C706 1.523 1_554 S
C706 C690 1.368 1_556 S
C706 C702 1.368 . S
C706 C705 1.523 1_556 S
H707 C682 0.950 1_654 S
H708 C684 0.950 1_554 S
H709 C685 0.949 . S
H710 C687 0.950 . S
H711 C689 0.950 . S
C712 C713 1.349 . S
C712 C714 1.327 . S
C712 H737 0.950 . S
C713 C712 1.349 . S
C713 C729 1.349 . S
C714 C712 1.327 . S
C714 C733 1.429 . S
C714 H738 0.950 . S
C715 C732 1.574 . S
C715 C734 1.368 . S
C715 H739 0.949 . S
H716 C720 0.949 . S
C717 C718 1.349 . S
C717 C719 1.327 . S
C717 H740 0.950 . S
C718 C717 1.349 . S
C718 C730 1.349 . S
C719 C717 1.327 . S
C719 C735 1.429 . S
C719 H741 0.950 . S
C720 H716 0.949 . S
C720 C728 1.574 . S
C720 C736 1.368 . S
H721 C729 0.983 . S
H722 C727 0.950 . S
H723 C728 0.949 . S
H724 C730 0.950 . S
H725 C731 0.950 . S
H726 C732 0.949 . S
C727 H722 0.950 . S
C727 C729 1.327 . S
C727 C733 1.429 . S
C728 C720 1.574 . S
C728 H723 0.949 . S
C728 C734 1.368 . S
C729 C713 1.349 . S
C729 H721 0.983 . S
C729 C727 1.327 . S
C730 C718 1.349 . S
C730 H724 0.950 . S
C730 C731 1.327 . S
C731 H725 0.950 . S
C731 C730 1.327 . S
C731 C735 1.429 . S
C732 C715 1.574 . S
C732 H726 0.949 . S
C732 C736 1.368 . S
C733 C714 1.429 . S
C733 C727 1.429 . S
C733 C734 1.523 . S
C734 C715 1.368 . S
C734 C728 1.368 . S
C734 C733 1.523 . S
C735 C719 1.429 . S
C735 C731 1.429 . S
C735 C736 1.523 . S
C736 C720 1.368 . S
C736 C732 1.368 . S
C736 C735 1.523 . S
H737 C712 0.950 . S
H738 C714 0.950 . S
H739 C715 0.949 . S
H740 C717 0.950 . S
H741 C719 0.950 . S
C742 C743 1.349 . S
C742 C744 1.327 . S
C742 H767 0.950 . S
C743 C742 1.349 . S
C743 C759 1.349 . S
C744 C742 1.327 . S
C744 C763 1.429 . S
C744 H768 0.950 . S
C745 C762 1.574 . S
C745 C764 1.368 . S
C745 H769 0.949 . S
H746 C750 0.949 . S
C747 C748 1.349 . S
C747 C749 1.327 . S
C747 H770 0.950 1_655 S
C748 C747 1.349 . S
C748 C760 1.349 . S
C749 C747 1.327 . S
C749 C765 1.429 . S
C749 H771 0.950 . S
C750 H746 0.949 . S
C750 C758 1.574 . S
C750 C766 1.368 . S
H751 C759 0.950 . S
H752 C757 0.950 . S
H753 C758 0.949 . S
H754 C760 0.950 . S
H755 C761 0.950 . S
H756 C762 0.949 . S
C757 H752 0.950 . S
C757 C759 1.327 . S
C757 C763 1.429 . S
C758 C750 1.574 . S
C758 H753 0.949 . S
C758 C764 1.368 . S
C759 C743 1.349 . S
C759 H751 0.950 . S
C759 C757 1.327 . S
C760 C748 1.349 . S
C760 H754 0.950 . S
C760 C761 1.327 . S
C761 H755 0.950 . S
C761 C760 1.327 . S
C761 C765 1.429 . S
C762 C745 1.574 . S
C762 H756 0.949 . S
C762 C766 1.368 . S
C763 C744 1.429 . S
C763 C757 1.429 . S
C763 C764 1.523 . S
C764 C745 1.368 . S
C764 C758 1.368 . S
C764 C763 1.523 . S
C765 C749 1.429 . S
C765 C761 1.429 . S
C765 C766 1.523 . S
C766 C750 1.368 . S
C766 C762 1.368 . S
C766 C765 1.523 . S
H767 C742 0.950 . S
H768 C744 0.950 . S
H769 C745 0.949 . S
H770 C747 0.950 1_455 S
H771 C749 0.950 . S
C772 C773 1.349 . S
C772 C774 1.327 . S
C772 H797 0.950 . S
C773 C772 1.349 . S
C773 C789 1.349 . S
C774 C772 1.327 . S
C774 C793 1.429 . S
C774 H798 0.950 . S
C775 C792 1.574 . S
C775 C794 1.368 . S
C775 H799 0.949 . S
H776 C780 0.949 . S
C777 C778 1.349 . S
C777 C779 1.327 . S
C777 H800 0.931 1_545 S
C778 C777 1.349 . S
C778 C790 1.349 . S
C779 C777 1.327 . S
C779 C795 1.429 . S
C779 H801 0.950 . S
C780 H776 0.949 . S
C780 C788 1.574 . S
C780 C796 1.368 . S
H781 C789 0.950 . S
H782 C787 0.950 . S
H783 C788 0.949 . S
H784 C790 0.950 . S
H785 C791 0.950 . S
H786 C792 0.949 . S
C787 H782 0.950 . S
C787 C789 1.327 . S
C787 C793 1.429 . S
C788 C780 1.574 . S
C788 H783 0.949 . S
C788 C794 1.368 . S
C789 C773 1.349 . S
C789 H781 0.950 . S
C789 C787 1.327 . S
C790 C778 1.349 . S
C790 H784 0.950 . S
C790 C791 1.327 . S
C791 H785 0.950 . S
C791 C790 1.327 . S
C791 C795 1.429 . S
C792 C775 1.574 . S
C792 H786 0.949 . S
C792 C796 1.368 . S
C793 C774 1.429 . S
C793 C787 1.429 . S
C793 C794 1.523 . S
C794 C775 1.368 . S
C794 C788 1.368 . S
C794 C793 1.523 . S
C795 C779 1.429 . S
C795 C791 1.429 . S
C795 C796 1.523 . S
C796 C780 1.368 . S
C796 C792 1.368 . S
C796 C795 1.523 . S
H797 C772 0.950 . S
H798 C774 0.950 . S
H799 C775 0.949 . S
H800 C777 0.931 1_565 S
H801 C779 0.950 . S
C802 C803 1.349 . S
C802 C804 1.327 . S
C802 H827 0.950 . S
C803 C802 1.349 . S
C803 C819 1.349 . S
C804 C802 1.327 . S
C804 C823 1.429 . S
C804 H828 0.950 . S
C805 C822 1.574 . S
C805 C824 1.368 . S
C805 H829 0.949 . S
H806 C810 0.949 . S
C807 C808 1.349 . S
C807 C809 1.327 . S
C807 H830 0.950 1_455 S
C808 C807 1.349 . S
C808 C820 1.349 . S
C809 C807 1.327 . S
C809 C825 1.429 . S
C809 H831 0.950 . S
C810 H806 0.949 . S
C810 C818 1.574 . S
C810 C826 1.368 . S
H811 C819 0.950 . S
H812 C817 0.950 . S
H813 C818 0.949 . S
H814 C820 0.950 . S
H815 C821 0.950 . S
H816 C822 0.949 . S
C817 H812 0.950 . S
C817 C819 1.327 . S
C817 C823 1.429 . S
C818 C810 1.574 . S
C818 H813 0.949 . S
C818 C824 1.368 . S
C819 C803 1.349 . S
C819 H811 0.950 . S
C819 C817 1.327 . S
C820 C808 1.349 . S
C820 H814 0.950 . S
C820 C821 1.327 . S
C821 H815 0.950 . S
C821 C820 1.327 . S
C821 C825 1.429 . S
C822 C805 1.574 . S
C822 H816 0.949 . S
C822 C826 1.368 . S
C823 C804 1.429 . S
C823 C817 1.429 . S
C823 C824 1.523 . S
C824 C805 1.368 . S
C824 C818 1.368 . S
C824 C823 1.523 . S
C825 C809 1.429 . S
C825 C821 1.429 . S
C825 C826 1.523 . S
C826 C810 1.368 . S
C826 C822 1.368 . S
C826 C825 1.523 . S
H827 C802 0.950 . S
H828 C804 0.950 . S
H829 C805 0.949 . S
H830 C807 0.950 1_655 S
H831 C809 0.950 . S
C832 C833 1.349 . S
C832 C834 1.327 . S
C832 H857 0.950 . S
C833 C832 1.349 . S
C833 C849 1.349 . S
C834 C832 1.327 . S
C834 C853 1.429 . S
C834 H858 0.950 . S
C835 C852 1.574 . S
C835 C854 1.368 . S
C835 H859 0.949 . S
H836 C840 0.949 . S
C837 C838 1.349 . S
C837 C839 1.327 . S
C837 H860 0.950 . S
C838 C837 1.349 . S
C838 C850 1.349 . S
C839 C837 1.327 . S
C839 C855 1.429 . S
C839 H861 0.950 . S
C840 H836 0.949 . S
C840 C848 1.574 . S
C840 C856 1.368 . S
H841 C849 0.950 . S
H842 C847 0.950 . S
H843 C848 0.949 . S
H844 C850 0.950 . S
H845 C851 0.950 . S
H846 C852 0.949 . S
C847 H842 0.950 . S
C847 C849 1.327 . S
C847 C853 1.429 . S
C848 C840 1.574 . S
C848 H843 0.949 . S
C848 C854 1.368 . S
C849 C833 1.349 . S
C849 H841 0.950 . S
C849 C847 1.327 . S
C850 C838 1.349 . S
C850 H844 0.950 . S
C850 C851 1.327 . S
C851 H845 0.950 . S
C851 C850 1.327 . S
C851 C855 1.429 . S
C852 C835 1.574 . S
C852 H846 0.949 . S
C852 C856 1.368 . S
C853 C834 1.429 . S
C853 C847 1.429 . S
C853 C854 1.523 . S
C854 C835 1.368 . S
C854 C848 1.368 . S
C854 C853 1.523 . S
C855 C839 1.429 . S
C855 C851 1.429 . S
C855 C856 1.523 . S
C856 C840 1.368 . S
C856 C852 1.368 . S
C856 C855 1.523 . S
H857 C832 0.950 . S
H858 C834 0.950 . S
H859 C835 0.949 . S
H860 C837 0.950 . S
H861 C839 0.950 . S
C862 C863 1.349 . S
C862 C864 1.327 . S
C862 H887 0.950 . S
C863 C862 1.349 . S
C863 C879 1.349 . S
C864 C862 1.327 . S
C864 C883 1.429 . S
C864 H888 0.950 . S
C865 C882 1.574 . S
C865 C884 1.368 . S
C865 H889 0.949 . S
H866 C870 0.949 . S
C867 C868 1.349 . S
C867 C869 1.327 . S
C867 H890 0.950 . S
C868 C867 1.349 . S
C868 C880 1.349 . S
C869 C867 1.327 . S
C869 C885 1.429 . S
C869 H891 0.950 . S
C870 H866 0.949 . S
C870 C878 1.574 . S
C870 C886 1.368 . S
H871 C879 0.950 . S
H872 C877 0.950 . S
H873 C878 0.949 . S
H874 C880 0.950 . S
H875 C881 0.950 . S
H876 C882 0.949 . S
C877 H872 0.950 . S
C877 C879 1.327 . S
C877 C883 1.429 . S
C878 C870 1.574 . S
C878 H873 0.949 . S
C878 C884 1.368 . S
C879 C863 1.349 . S
C879 H871 0.950 . S
C879 C877 1.327 . S
C880 C868 1.349 . S
C880 H874 0.950 . S
C880 C881 1.327 . S
C881 H875 0.950 . S
C881 C880 1.327 . S
C881 C885 1.429 . S
C882 C865 1.574 . S
C882 H876 0.949 . S
C882 C886 1.368 . S
C883 C864 1.429 . S
C883 C877 1.429 . S
C883 C884 1.523 . S
C884 C865 1.368 . S
C884 C878 1.368 . S
C884 C883 1.523 . S
C885 C869 1.429 . S
C885 C881 1.429 . S
C885 C886 1.523 . S
C886 C870 1.368 . S
C886 C882 1.368 . S
C886 C885 1.523 . S
H887 C862 0.950 . S
H888 C864 0.950 . S
H889 C865 0.949 . S
H890 C867 0.950 . S
H891 C869 0.950 . S
C892 C893 1.349 . S
C892 C894 1.327 . S
C892 H917 0.950 . S
C893 C892 1.349 . S
C893 C909 1.349 . S
C894 C892 1.327 . S
C894 C913 1.429 . S
C894 H918 0.950 . S
C895 C912 1.574 . S
C895 C914 1.368 . S
C895 H919 0.949 . S
H896 C900 0.949 . S
C897 C898 1.349 . S
C897 C899 1.327 . S
C897 H920 0.950 . S
C898 C897 1.349 . S
C898 C910 1.349 . S
C899 C897 1.327 . S
C899 C915 1.429 . S
C899 H921 0.950 . S
C900 H896 0.949 . S
C900 C908 1.574 . S
C900 C916 1.368 . S
H901 C909 0.950 . S
H902 C907 0.950 . S
H903 C908 0.949 . S
H904 C910 0.950 . S
H905 C911 0.950 . S
H906 C912 0.949 . S
C907 H902 0.950 . S
C907 C909 1.327 . S
C907 C913 1.429 . S
C908 C900 1.574 . S
C908 H903 0.949 . S
C908 C914 1.368 . S
C909 C893 1.349 . S
C909 H901 0.950 . S
C909 C907 1.327 . S
C910 C898 1.349 . S
C910 H904 0.950 . S
C910 C911 1.327 . S
C911 H905 0.950 . S
C911 C910 1.327 . S
C911 C915 1.429 . S
C912 C895 1.574 . S
C912 H906 0.949 . S
C912 C916 1.368 . S
C913 C894 1.429 . S
C913 C907 1.429 . S
C913 C914 1.523 . S
C914 C895 1.368 . S
C914 C908 1.368 . S
C914 C913 1.523 . S
C915 C899 1.429 . S
C915 C911 1.429 . S
C915 C916 1.523 . S
C916 C900 1.368 . S
C916 C912 1.368 . S
C916 C915 1.523 . S
H917 C892 0.950 . S
H918 C894 0.950 . S
H919 C895 0.949 . S
H920 C897 0.950 . S
H921 C899 0.950 . S
C922 C923 1.349 . S
C922 C924 1.327 . S
C922 H947 0.950 . S
C923 C922 1.349 . S
C923 C939 1.349 . S
C924 C922 1.327 . S
C924 C943 1.429 . S
C924 H948 0.950 . S
C925 C942 1.574 . S
C925 C944 1.368 . S
C925 H949 0.949 . S
H926 C930 0.949 . S
C927 C928 1.349 . S
C927 C929 1.327 . S
C927 H950 0.950 . S
C928 C927 1.349 . S
C928 C940 1.349 . S
C929 C927 1.327 . S
C929 C945 1.429 . S
C929 H951 0.950 . S
C930 H926 0.949 . S
C930 C938 1.574 . S
C930 C946 1.368 . S
H931 C939 0.950 . S
H932 C937 0.950 . S
H933 C938 0.949 . S
H934 C940 0.950 . S
H935 C941 0.950 . S
H936 C942 0.949 . S
C937 H932 0.950 . S
C937 C939 1.327 . S
C937 C943 1.429 . S
C938 C930 1.574 . S
C938 H933 0.949 . S
C938 C944 1.368 . S
C939 C923 1.349 . S
C939 H931 0.950 . S
C939 C937 1.327 . S
C940 C928 1.349 . S
C940 H934 0.950 . S
C940 C941 1.327 . S
C941 H935 0.950 . S
C941 C940 1.327 . S
C941 C945 1.429 . S
C942 C925 1.574 . S
C942 H936 0.949 . S
C942 C946 1.368 . S
C943 C924 1.429 . S
C943 C937 1.429 . S
C943 C944 1.523 . S
C944 C925 1.368 . S
C944 C938 1.368 . S
C944 C943 1.523 . S
C945 C929 1.429 . S
C945 C941 1.429 . S
C945 C946 1.523 . S
C946 C930 1.368 . S
C946 C942 1.368 . S
C946 C945 1.523 . S
H947 C922 0.950 . S
H948 C924 0.950 . S
H949 C925 0.949 . S
H950 C927 0.950 . S
H951 C929 0.950 . S
C952 C953 1.349 1_554 S
C952 C954 1.327 . S
C952 H977 0.950 . S
C953 C952 1.349 1_556 S
C953 C969 1.349 . S
C954 C952 1.327 . S
C954 C973 1.429 1_554 S
C954 H978 0.950 . S
C955 C972 1.574 . S
C955 C974 1.368 1_556 S
C955 H979 0.949 . S
H956 C960 0.949 . S
C957 C958 1.349 . S
C957 C959 1.327 . S
C957 H980 0.950 . S
C958 C957 1.349 . S
C958 C970 1.349 . S
C959 C957 1.327 . S
C959 C975 1.429 . S
C959 H981 0.950 1_554 S
C960 H956 0.949 . S
C960 C968 1.574 . S
C960 C976 1.368 . S
H961 C969 0.950 . S
H962 C967 0.950 . S
H963 C968 0.949 . S
H964 C970 0.950 . S
H965 C971 0.950 . S
H966 C972 0.949 . S
C967 H962 0.950 . S
C967 C969 1.327 . S
C967 C973 1.429 . S
C968 C960 1.574 . S
C968 H963 0.949 . S
C968 C974 1.368 . S
C969 C953 1.349 . S
C969 H961 0.950 . S
C969 C967 1.327 . S
C970 C958 1.349 . S
C970 H964 0.950 . S
C970 C971 1.327 . S
C971 H965 0.950 . S
C971 C970 1.327 . S
C971 C975 1.429 . S
C972 C955 1.574 . S
C972 H966 0.949 . S
C972 C976 1.368 1_556 S
C973 C954 1.429 1_556 S
C973 C967 1.429 . S
C973 C974 1.523 1_556 S
C974 C955 1.368 1_554 S
C974 C968 1.368 . S
C974 C973 1.523 1_554 S
C975 C959 1.429 . S
C975 C971 1.429 . S
C975 C976 1.523 . S
C976 C960 1.368 . S
C976 C972 1.368 1_554 S
C976 C975 1.523 . S
H977 C952 0.950 . S
H978 C954 0.950 . S
H979 C955 0.949 . S
H980 C957 0.950 . S
H981 C959 0.950 1_556 S
C982 C983 1.349 . S
C982 C984 1.327 . S
C982 H1007 0.950 . S
C983 C982 1.349 . S
C983 C999 1.349 1_554 S
C984 C982 1.327 . S
C984 C1003 1.429 . S
C984 H1008 0.950 . S
C985 C1002 1.574 . S
C985 C1004 1.368 . S
C985 H1009 0.949 . S
H986 C990 0.949 . S
C987 C988 1.349 . S
C987 C989 1.327 . S
C987 H1010 0.950 . S
C988 C987 1.349 . S
C988 C1000 1.349 . S
C989 C987 1.327 . S
C989 C1005 1.429 . S
C989 H1011 0.950 . S
C990 H986 0.949 . S
C990 C998 1.574 . S
C990 C1006 1.368 1_554 S
H991 C999 0.950 . S
H992 C997 0.950 . S
H993 C998 0.949 . S
H994 C1000 0.950 1_554 S
H995 C1001 0.950 1_554 S
H996 C1002 0.949 . S
C997 H992 0.950 . S
C997 C999 1.327 . S
C997 C1003 1.429 1_556 S
C998 C990 1.574 . S
C998 H993 0.949 . S
C998 C1004 1.368 1_554 S
C999 C983 1.349 1_556 S
C999 H991 0.950 . S
C999 C997 1.327 . S
C1000 C988 1.349 . S
C1000 H994 0.950 1_556 S
C1000 C1001 1.327 . S
C1001 H995 0.950 1_556 S
C1001 C1000 1.327 . S
C1001 C1005 1.429 . S
C1002 C985 1.574 . S
C1002 H996 0.949 . S
C1002 C1006 1.368 . S
C1003 C984 1.429 . S
C1003 C997 1.429 1_554 S
C1003 C1004 1.523 1_554 S
C1004 C985 1.368 . S
C1004 C998 1.368 1_556 S
C1004 C1003 1.523 1_556 S
C1005 C989 1.429 . S
C1005 C1001 1.429 . S
C1005 C1006 1.523 . S
C1006 C990 1.368 1_556 S
C1006 C1002 1.368 . S
C1006 C1005 1.523 . S
H1007 C982 0.950 . S
H1008 C984 0.950 . S
H1009 C985 0.949 . S
H1010 C987 0.950 . S
H1011 C989 0.950 . S
C1012 C1013 1.349 . S
C1012 C1014 1.327 . S
C1012 H1037 0.950 . S
C1013 C1012 1.349 . S
C1013 C1029 1.349 1_556 S
C1014 C1012 1.327 . S
C1014 C1033 1.429 . S
C1014 H1038 0.950 . S
C1015 C1032 1.574 . S
C1015 C1034 1.368 . S
C1015 H1039 0.949 . S
H1016 C1020 0.949 . S
C1017 C1018 1.349 . S
C1017 C1019 1.327 . S
C1017 H1040 0.950 . S
C1018 C1017 1.349 . S
C1018 C1030 1.349 . S
C1019 C1017 1.327 . S
C1019 C1035 1.429 . S
C1019 H1041 0.950 . S
C1020 H1016 0.949 . S
C1020 C1028 1.574 . S
C1020 C1036 1.368 1_556 S
H1021 C1029 0.950 . S
H1022 C1027 0.950 . S
H1023 C1028 0.949 . S
H1024 C1030 0.950 1_556 S
H1025 C1031 0.950 1_556 S
H1026 C1032 0.949 . S
C1027 H1022 0.950 . S
C1027 C1029 1.327 . S
C1027 C1033 1.429 1_554 S
C1028 C1020 1.574 . S
C1028 H1023 0.949 . S
C1028 C1034 1.368 1_556 S
C1029 C1013 1.349 1_554 S
C1029 H1021 0.950 . S
C1029 C1027 1.327 . S
C1030 C1018 1.349 . S
C1030 H1024 0.950 1_554 S
C1030 C1031 1.327 . S
C1031 H1025 0.950 1_554 S
C1031 C1030 1.327 . S
C1031 C1035 1.429 . S
C1032 C1015 1.574 . S
C1032 H1026 0.949 . S
C1032 C1036 1.368 . S
C1033 C1014 1.429 . S
C1033 C1027 1.429 1_556 S
C1033 C1034 1.523 1_556 S
C1034 C1015 1.368 . S
C1034 C1028 1.368 1_554 S
C1034 C1033 1.523 1_554 S
C1035 C1019 1.429 . S
C1035 C1031 1.429 . S
C1035 C1036 1.523 . S
C1036 C1020 1.368 1_554 S
C1036 C1032 1.368 . S
C1036 C1035 1.523 . S
H1037 C1012 0.950 . S
H1038 C1014 0.950 . S
H1039 C1015 0.949 . S
H1040 C1017 0.950 . S
H1041 C1019 0.950 . S
C1042 C1043 1.349 . S
C1042 C1044 1.327 . S
C1042 H1067 0.950 1_556 S
C1043 C1042 1.349 . S
C1043 C1059 1.349 . S
C1044 C1042 1.327 . S
C1044 C1063 1.429 . S
C1044 H1068 0.950 1_556 S
C1045 C1062 1.574 . S
C1045 C1064 1.368 . S
C1045 H1069 0.949 . S
H1046 C1050 0.949 . S
C1047 C1048 1.349 1_556 S
C1047 C1049 1.327 . S
C1047 H1070 0.950 . S
C1048 C1047 1.349 1_554 S
C1048 C1060 1.349 . S
C1049 C1047 1.327 . S
C1049 C1065 1.429 1_556 S
C1049 H1071 0.950 . S
C1050 H1046 0.949 . S
C1050 C1058 1.574 . S
C1050 C1066 1.368 1_554 S
H1051 C1059 0.950 . S
H1052 C1057 0.950 . S
H1053 C1058 0.949 . S
H1054 C1060 0.950 . S
H1055 C1061 0.950 . S
H1056 C1062 0.949 . S
C1057 H1052 0.950 . S
C1057 C1059 1.327 . S
C1057 C1063 1.429 . S
C1058 C1050 1.574 . S
C1058 H1053 0.949 . S
C1058 C1064 1.368 1_554 S
C1059 C1043 1.349 . S
C1059 H1051 0.950 . S
C1059 C1057 1.327 . S
C1060 C1048 1.349 . S
C1060 H1054 0.950 . S
C1060 C1061 1.327 . S
C1061 H1055 0.950 . S
C1061 C1060 1.327 . S
C1061 C1065 1.429 . S
C1062 C1045 1.574 . S
C1062 H1056 0.949 . S
C1062 C1066 1.368 . S
C1063 C1044 1.429 . S
C1063 C1057 1.429 . S
C1063 C1064 1.523 . S
C1064 C1045 1.368 . S
C1064 C1058 1.368 1_556 S
C1064 C1063 1.523 . S
C1065 C1049 1.429 1_554 S
C1065 C1061 1.429 . S
C1065 C1066 1.523 1_554 S
C1066 C1050 1.368 1_556 S
C1066 C1062 1.368 . S
C1066 C1065 1.523 1_556 S
H1067 C1042 0.950 1_554 S
H1068 C1044 0.950 1_554 S
H1069 C1045 0.949 . S
H1070 C1047 0.950 . S
H1071 C1049 0.950 . S
C1072 C1073 1.349 . S
C1072 C1074 1.327 1_565 S
C1072 H1097 0.950 1_565 S
C1073 C1072 1.349 . S
C1073 C1089 1.349 . S
C1074 C1072 1.327 1_545 S
C1074 C1093 1.429 1_545 S
C1074 H1098 0.950 . S
C1075 C1092 1.574 1_565 S
C1075 C1094 1.368 1_565 S
C1075 H1099 0.949 . S
H1076 C1080 0.949 . S
C1077 C1078 1.349 . S
C1077 C1079 1.327 . S
C1077 H1100 0.950 . S
C1078 C1077 1.349 . S
C1078 C1090 1.349 . S
C1079 C1077 1.327 . S
C1079 C1095 1.429 . S
C1079 H1101 0.950 . S
C1080 H1076 0.949 . S
C1080 C1088 1.574 . S
C1080 C1096 1.368 . S
H1081 C1089 0.950 . S
H1082 C1087 0.950 . S
H1083 C1088 0.949 . S
H1084 C1090 0.950 . S
H1085 C1091 0.950 . S
H1086 C1092 0.949 1_565 S
C1087 H1082 0.950 . S
C1087 C1089 1.327 . S
C1087 C1093 1.429 . S
C1088 C1080 1.574 . S
C1088 H1083 0.949 . S
C1088 C1094 1.368 . S
C1089 C1073 1.349 . S
C1089 H1081 0.950 . S
C1089 C1087 1.327 . S
C1090 C1078 1.349 . S
C1090 H1084 0.950 . S
C1090 C1091 1.327 . S
C1091 H1085 0.950 . S
C1091 C1090 1.327 . S
C1091 C1095 1.429 . S
C1092 C1075 1.574 1_545 S
C1092 H1086 0.949 1_545 S
C1092 C1096 1.368 . S
C1093 C1074 1.429 1_565 S
C1093 C1087 1.429 . S
C1093 C1094 1.523 1_565 S
C1094 C1075 1.368 1_545 S
C1094 C1088 1.368 . S
C1094 C1093 1.523 1_545 S
C1095 C1079 1.429 . S
C1095 C1091 1.429 . S
C1095 C1096 1.523 . S
C1096 C1080 1.368 . S
C1096 C1092 1.368 . S
C1096 C1095 1.523 . S
H1097 C1072 0.950 1_545 S
H1098 C1074 0.950 . S
H1099 C1075 0.949 . S
H1100 C1077 0.950 . S
H1101 C1079 0.950 . S
C1102 C1103 1.349 . S
C1102 C1104 1.327 . S
C1102 H1127 0.950 . S
C1103 C1102 1.349 . S
C1103 C1119 1.349 . S
C1104 C1102 1.327 . S
C1104 C1123 1.429 . S
C1104 H1128 0.950 . S
C1105 C1122 1.574 . S
C1105 C1124 1.368 . S
C1105 H1129 0.949 . S
H1106 C1110 0.949 . S
C1107 C1108 1.349 . S
C1107 C1109 1.327 . S
C1107 H1130 0.950 . S
C1108 C1107 1.349 . S
C1108 C1120 1.349 . S
C1109 C1107 1.327 . S
C1109 C1125 1.429 . S
C1109 H1131 0.950 . S
C1110 H1106 0.949 . S
C1110 C1118 1.574 1_455 S
C1110 C1126 1.368 . S
H1111 C1119 0.950 . S
H1112 C1117 0.950 . S
H1113 C1118 0.949 . S
H1114 C1120 0.950 . S
H1115 C1121 0.950 . S
H1116 C1122 0.949 . S
C1117 H1112 0.950 . S
C1117 C1119 1.327 1_455 S
C1117 C1123 1.429 1_455 S
C1118 C1110 1.574 1_655 S
C1118 H1113 0.949 . S
C1118 C1124 1.368 1_655 S
C1119 C1103 1.349 . S
C1119 H1111 0.950 . S
C1119 C1117 1.327 1_655 S
C1120 C1108 1.349 . S
C1120 H1114 0.950 . S
C1120 C1121 1.327 . S
C1121 H1115 0.950 . S
C1121 C1120 1.327 . S
C1121 C1125 1.429 . S
C1122 C1105 1.574 . S
C1122 H1116 0.949 . S
C1122 C1126 1.368 . S
C1123 C1104 1.429 . S
C1123 C1117 1.429 1_655 S
C1123 C1124 1.523 1_655 S
C1124 C1105 1.368 . S
C1124 C1118 1.368 1_455 S
C1124 C1123 1.523 1_455 S
C1125 C1109 1.429 . S
C1125 C1121 1.429 . S
C1125 C1126 1.523 . S
C1126 C1110 1.368 . S
C1126 C1122 1.368 . S
C1126 C1125 1.523 . S
H1127 C1102 0.950 . S
H1128 C1104 0.950 . S
H1129 C1105 0.949 . S
H1130 C1107 0.950 . S
H1131 C1109 0.950 . S
C1132 C1133 1.349 . S
C1132 C1134 1.327 . S
C1132 H1157 0.950 . S
C1133 C1132 1.349 . S
C1133 C1149 1.349 . S
C1134 C1132 1.327 . S
C1134 C1153 1.429 . S
C1134 H1158 0.950 . S
C1135 C1152 1.574 . S
C1135 C1154 1.368 . S
C1135 H1159 0.949 . S
H1136 C1140 0.949 . S
C1137 C1138 1.349 . S
C1137 C1139 1.327 1_545 S
C1137 H1160 0.957 . S
C1138 C1137 1.349 . S
C1138 C1150 1.349 . S
C1139 C1137 1.327 1_565 S
C1139 C1155 1.429 1_565 S
C1139 H1161 0.950 . S
C1140 H1136 0.949 . S
C1140 C1148 1.574 1_545 S
C1140 C1156 1.368 1_545 S
H1141 C1149 0.950 . S
H1142 C1147 0.950 . S
H1143 C1148 0.949 1_545 S
H1144 C1150 0.950 . S
H1145 C1151 0.950 . S
H1146 C1152 0.949 . S
C1147 H1142 0.950 . S
C1147 C1149 1.327 . S
C1147 C1153 1.429 . S
C1148 C1140 1.574 1_565 S
C1148 H1143 0.949 1_565 S
C1148 C1154 1.368 . S
C1149 C1133 1.349 . S
C1149 H1141 0.950 . S
C1149 C1147 1.327 . S
C1150 C1138 1.349 . S
C1150 H1144 0.950 . S
C1150 C1151 1.327 . S
C1151 H1145 0.950 . S
C1151 C1150 1.327 . S
C1151 C1155 1.429 . S
C1152 C1135 1.574 . S
C1152 H1146 0.949 . S
C1152 C1156 1.368 . S
C1153 C1134 1.429 . S
C1153 C1147 1.429 . S
C1153 C1154 1.523 . S
C1154 C1135 1.368 . S
C1154 C1148 1.368 . S
C1154 C1153 1.523 . S
C1155 C1139 1.429 1_545 S
C1155 C1151 1.429 . S
C1155 C1156 1.523 1_545 S
C1156 C1140 1.368 1_565 S
C1156 C1152 1.368 . S
C1156 C1155 1.523 1_565 S
H1157 C1132 0.950 . S
H1158 C1134 0.950 . S
H1159 C1135 0.949 . S
H1160 C1137 0.957 . S
H1161 C1139 0.950 . S
C1162 C1163 1.349 . S
C1162 C1164 1.327 . S
C1162 H1187 0.950 . S
C1163 C1162 1.349 . S
C1163 C1179 1.349 . S
C1164 C1162 1.327 . S
C1164 C1183 1.429 . S
C1164 H1188 0.950 . S
C1165 C1182 1.574 1_655 S
C1165 C1184 1.368 . S
C1165 H1189 0.949 . S
H1166 C1170 0.949 . S
C1167 C1168 1.349 . S
C1167 C1169 1.327 . S
C1167 H1190 0.950 . S
C1168 C1167 1.349 . S
C1168 C1180 1.349 . S
C1169 C1167 1.327 . S
C1169 C1185 1.429 . S
C1169 H1191 0.950 . S
C1170 H1166 0.949 . S
C1170 C1178 1.574 . S
C1170 C1186 1.368 . S
H1171 C1179 0.950 . S
H1172 C1177 0.950 . S
H1173 C1178 0.949 . S
H1174 C1180 0.950 . S
H1175 C1181 0.930 1_655 S
H1176 C1182 0.949 . S
C1177 H1172 0.950 . S
C1177 C1179 1.327 . S
C1177 C1183 1.429 . S
C1178 C1170 1.574 . S
C1178 H1173 0.949 . S
C1178 C1184 1.368 . S
C1179 C1163 1.349 . S
C1179 H1171 0.950 . S
C1179 C1177 1.327 . S
C1180 C1168 1.349 . S
C1180 H1174 0.950 . S
C1180 C1181 1.340 . S
C1181 H1175 0.930 1_455 S
C1181 C1180 1.340 . S
C1181 C1185 1.435 . S
C1182 C1165 1.574 1_455 S
C1182 H1176 0.949 . S
C1182 C1186 1.368 1_455 S
C1183 C1164 1.429 . S
C1183 C1177 1.429 . S
C1183 C1184 1.523 . S
C1184 C1165 1.368 . S
C1184 C1178 1.368 . S
C1184 C1183 1.523 . S
C1185 C1169 1.429 . S
C1185 C1181 1.435 . S
C1185 C1186 1.523 1_455 S
C1186 C1170 1.368 . S
C1186 C1182 1.368 1_655 S
C1186 C1185 1.523 1_655 S
H1187 C1162 0.950 . S
H1188 C1164 0.950 . S
H1189 C1165 0.949 . S
H1190 C1167 0.950 . S
H1191 C1169 0.950 . S
C1192 C1193 1.349 . S
C1192 C1194 1.327 . S
C1192 H1217 0.950 . S
C1193 C1192 1.349 . S
C1193 C1209 1.349 . S
C1194 C1192 1.327 . S
C1194 C1213 1.429 . S
C1194 H1218 0.950 . S
C1195 C1212 1.574 . S
C1195 C1214 1.368 . S
C1195 H1219 0.949 . S
H1196 C1200 0.949 1_565 S
C1197 C1198 1.349 . S
C1197 C1199 1.327 . S
C1197 H1220 0.950 . S
C1198 C1197 1.349 . S
C1198 C1210 1.349 . S
C1199 C1197 1.327 . S
C1199 C1215 1.429 . S
C1199 H1221 0.950 . S
C1200 H1196 0.949 1_545 S
C1200 C1208 1.574 1_545 S
C1200 C1216 1.368 . S
H1201 C1209 0.950 1_545 S
H1202 C1207 0.950 . S
H1203 C1208 0.949 . S
H1204 C1210 0.950 . S
H1205 C1211 0.950 . S
H1206 C1212 0.949 . S
C1207 H1202 0.950 . S
C1207 C1209 1.327 1_545 S
C1207 C1213 1.429 1_545 S
C1208 C1200 1.574 1_565 S
C1208 H1203 0.949 . S
C1208 C1214 1.368 1_565 S
C1209 C1193 1.349 . S
C1209 H1201 0.950 1_565 S
C1209 C1207 1.327 1_565 S
C1210 C1198 1.349 . S
C1210 H1204 0.950 . S
C1210 C1211 1.327 . S
C1211 H1205 0.950 . S
C1211 C1210 1.327 . S
C1211 C1215 1.429 . S
C1212 C1195 1.574 . S
C1212 H1206 0.949 . S
C1212 C1216 1.368 . S
C1213 C1194 1.429 . S
C1213 C1207 1.429 1_565 S
C1213 C1214 1.523 1_565 S
C1214 C1195 1.368 . S
C1214 C1208 1.368 1_545 S
C1214 C1213 1.523 1_545 S
C1215 C1199 1.429 . S
C1215 C1211 1.429 . S
C1215 C1216 1.523 . S
C1216 C1200 1.368 . S
C1216 C1212 1.368 . S
C1216 C1215 1.523 . S
H1217 C1192 0.950 . S
H1218 C1194 0.950 . S
H1219 C1195 0.949 . S
H1220 C1197 0.950 . S
H1221 C1199 0.950 . S
C1222 C1223 1.349 . S
C1222 C1224 1.327 . S
C1222 H1247 0.950 . S
C1223 C1222 1.349 . S
C1223 C1239 1.349 . S
C1224 C1222 1.327 . S
C1224 C1243 1.429 . S
C1224 H1248 0.950 . S
C1225 C1242 1.574 1_455 S
C1225 C1244 1.368 . S
C1225 H1249 0.949 . S
H1226 C1230 0.949 . S
C1227 C1228 1.349 . S
C1227 C1229 1.327 . S
C1227 H1250 0.950 . S
C1228 C1227 1.349 . S
C1228 C1240 1.349 . S
C1229 C1227 1.327 . S
C1229 C1245 1.429 . S
C1229 H1251 0.950 . S
C1230 H1226 0.949 . S
C1230 C1238 1.574 . S
C1230 C1246 1.368 . S
H1231 C1239 0.950 . S
H1232 C1237 0.950 . S
H1233 C1238 0.949 . S
H1234 C1240 0.950 . S
H1235 C1241 0.950 1_455 S
H1236 C1242 0.949 . S
C1237 H1232 0.950 . S
C1237 C1239 1.327 . S
C1237 C1243 1.429 . S
C1238 C1230 1.574 . S
C1238 H1233 0.949 . S
C1238 C1244 1.368 . S
C1239 C1223 1.349 . S
C1239 H1231 0.950 . S
C1239 C1237 1.327 . S
C1240 C1228 1.349 . S
C1240 H1234 0.950 . S
C1240 C1241 1.327 . S
C1241 H1235 0.950 1_655 S
C1241 C1240 1.327 . S
C1241 C1245 1.429 . S
C1242 C1225 1.574 1_655 S
C1242 H1236 0.949 . S
C1242 C1246 1.368 1_655 S
C1243 C1224 1.429 . S
C1243 C1237 1.429 . S
C1243 C1244 1.523 . S
C1244 C1225 1.368 . S
C1244 C1238 1.368 . S
C1244 C1243 1.523 . S
C1245 C1229 1.429 . S
C1245 C1241 1.429 . S
C1245 C1246 1.523 1_655 S
C1246 C1230 1.368 . S
C1246 C1242 1.368 1_455 S
C1246 C1245 1.523 1_455 S
H1247 C1222 0.950 . S
H1248 C1224 0.950 . S
H1249 C1225 0.949 . S
H1250 C1227 0.950 . S
H1251 C1229 0.950 . S
C1252 C1253 1.349 . S
C1252 C1254 1.327 . S
C1252 H1277 0.950 . S
C1253 C1252 1.349 . S
C1253 C1269 1.349 . S
C1254 C1252 1.327 . S
C1254 C1273 1.429 . S
C1254 H1278 0.950 . S
C1255 C1272 1.574 1_565 S
C1255 C1274 1.368 . S
C1255 H1279 0.949 . S
H1256 C1260 0.949 . S
C1257 C1258 1.349 . S
C1257 C1259 1.327 . S
C1257 H1280 0.950 . S
C1258 C1257 1.349 . S
C1258 C1270 1.349 . S
C1259 C1257 1.327 . S
C1259 C1275 1.429 . S
C1259 H1281 0.950 . S
C1260 H1256 0.949 . S
C1260 C1268 1.574 . S
C1260 C1276 1.368 . S
H1261 C1269 0.950 . S
H1262 C1267 0.950 . S
H1263 C1268 0.949 . S
H1264 C1270 0.950 . S
H1265 C1271 0.950 . S
H1266 C1272 0.949 . S
C1267 H1262 0.950 . S
C1267 C1269 1.327 . S
C1267 C1273 1.429 . S
C1268 C1260 1.574 . S
C1268 H1263 0.949 . S
C1268 C1274 1.368 . S
C1269 C1253 1.349 . S
C1269 H1261 0.950 . S
C1269 C1267 1.327 . S
C1270 C1258 1.349 . S
C1270 H1264 0.950 . S
C1270 C1271 1.327 1_545 S
C1271 H1265 0.950 . S
C1271 C1270 1.327 1_565 S
C1271 C1275 1.429 1_565 S
C1272 C1255 1.574 1_545 S
C1272 H1266 0.949 . S
C1272 C1276 1.368 1_545 S
C1273 C1254 1.429 . S
C1273 C1267 1.429 . S
C1273 C1274 1.523 . S
C1274 C1255 1.368 . S
C1274 C1268 1.368 . S
C1274 C1273 1.523 . S
C1275 C1259 1.429 . S
C1275 C1271 1.429 1_545 S
C1275 C1276 1.523 1_545 S
C1276 C1260 1.368 . S
C1276 C1272 1.368 1_565 S
C1276 C1275 1.523 1_565 S
H1277 C1252 0.950 . S
H1278 C1254 0.950 . S
H1279 C1255 0.949 . S
H1280 C1257 0.950 . S
H1281 C1259 0.950 . S
C1282 C1283 1.349 . S
C1282 C1284 1.327 . S
C1282 H1307 0.950 . S
C1283 C1282 1.349 . S
C1283 C1299 1.349 . S
C1284 C1282 1.327 . S
C1284 C1303 1.429 . S
C1284 H1308 0.950 . S
C1285 C1302 1.574 . S
C1285 C1304 1.368 . S
C1285 H1309 0.949 . S
H1286 C1290 0.949 . S
C1287 C1288 1.349 . S
C1287 C1289 1.327 . S
C1287 H1310 0.950 . S
C1288 C1287 1.349 . S
C1288 C1300 1.349 . S
C1289 C1287 1.327 . S
C1289 C1305 1.429 . S
C1289 H1311 0.950 . S
C1290 H1286 0.949 . S
C1290 C1298 1.574 1_655 S
C1290 C1306 1.368 . S
H1291 C1299 0.950 . S
H1292 C1297 0.944 1_655 S
H1293 C1298 0.949 . S
H1294 C1300 0.950 . S
H1295 C1301 0.950 . S
H1296 C1302 0.949 . S
C1297 H1292 0.944 1_455 S
C1297 C1299 1.331 . S
C1297 C1303 1.430 . S
C1298 C1290 1.574 1_455 S
C1298 H1293 0.949 . S
C1298 C1304 1.368 1_455 S
C1299 C1283 1.349 . S
C1299 H1291 0.950 . S
C1299 C1297 1.331 . S
C1300 C1288 1.349 . S
C1300 H1294 0.950 . S
C1300 C1301 1.327 . S
C1301 H1295 0.950 . S
C1301 C1300 1.327 . S
C1301 C1305 1.429 . S
C1302 C1285 1.574 . S
C1302 H1296 0.949 . S
C1302 C1306 1.368 . S
C1303 C1284 1.429 . S
C1303 C1297 1.430 . S
C1303 C1304 1.523 1_455 S
C1304 C1285 1.368 . S
C1304 C1298 1.368 1_655 S
C1304 C1303 1.523 1_655 S
C1305 C1289 1.429 . S
C1305 C1301 1.429 . S
C1305 C1306 1.523 . S
C1306 C1290 1.368 . S
C1306 C1302 1.368 . S
C1306 C1305 1.523 . S
H1307 C1282 0.950 . S
H1308 C1284 0.950 . S
H1309 C1285 0.949 . S
H1310 C1287 0.950 . S
H1311 C1289 0.950 . S
C1312 C1313 1.349 . S
C1312 C1314 1.327 . S
C1312 H1337 0.950 . S
C1313 C1312 1.349 . S
C1313 C1329 1.349 . S
C1314 C1312 1.327 . S
C1314 C1333 1.429 . S
C1314 H1338 0.950 . S
C1315 C1332 1.574 . S
C1315 C1334 1.368 . S
C1315 H1339 0.949 . S
H1316 C1320 0.949 . S
C1317 C1318 1.349 . S
C1317 C1319 1.327 . S
C1317 H1340 0.950 . S
C1318 C1317 1.349 . S
C1318 C1330 1.349 . S
C1319 C1317 1.327 . S
C1319 C1335 1.429 . S
C1319 H1341 0.950 . S
C1320 H1316 0.949 . S
C1320 C1328 1.574 . S
C1320 C1336 1.368 . S
H1321 C1329 0.950 . S
H1322 C1327 0.950 . S
H1323 C1328 0.949 . S
H1324 C1330 0.950 . S
H1325 C1331 0.950 . S
H1326 C1332 0.949 . S
C1327 H1322 0.950 . S
C1327 C1329 1.327 . S
C1327 C1333 1.429 . S
C1328 C1320 1.574 . S
C1328 H1323 0.949 . S
C1328 C1334 1.368 . S
C1329 C1313 1.349 . S
C1329 H1321 0.950 . S
C1329 C1327 1.327 . S
C1330 C1318 1.349 . S
C1330 H1324 0.950 . S
C1330 C1331 1.327 . S
C1331 H1325 0.950 . S
C1331 C1330 1.327 . S
C1331 C1335 1.429 . S
C1332 C1315 1.574 . S
C1332 H1326 0.949 . S
C1332 C1336 1.368 . S
C1333 C1314 1.429 . S
C1333 C1327 1.429 . S
C1333 C1334 1.523 . S
C1334 C1315 1.368 . S
C1334 C1328 1.368 . S
C1334 C1333 1.523 . S
C1335 C1319 1.429 . S
C1335 C1331 1.429 . S
C1335 C1336 1.523 . S
C1336 C1320 1.368 . S
C1336 C1332 1.368 . S
C1336 C1335 1.523 . S
H1337 C1312 0.950 . S
H1338 C1314 0.950 . S
H1339 C1315 0.949 . S
H1340 C1317 0.950 . S
H1341 C1319 0.950 . S
C1342 C1343 1.349 . S
C1342 C1344 1.327 . S
C1342 H1367 0.950 . S
C1343 C1342 1.349 . S
C1343 C1359 1.349 . S
C1344 C1342 1.327 . S
C1344 C1363 1.429 . S
C1344 H1368 0.950 . S
C1345 C1362 1.574 . S
C1345 C1364 1.368 . S
C1345 H1369 0.949 . S
H1346 C1350 0.949 . S
C1347 C1348 1.349 . S
C1347 C1349 1.327 . S
C1347 H1370 0.950 . S
C1348 C1347 1.349 . S
C1348 C1360 1.349 . S
C1349 C1347 1.327 . S
C1349 C1365 1.429 . S
C1349 H1371 0.950 . S
C1350 H1346 0.949 . S
C1350 C1358 1.574 . S
C1350 C1366 1.368 . S
H1351 C1359 0.950 . S
H1352 C1357 0.950 . S
H1353 C1358 0.949 . S
H1354 C1360 0.950 . S
H1355 C1361 0.950 . S
H1356 C1362 0.949 . S
C1357 H1352 0.950 . S
C1357 C1359 1.327 . S
C1357 C1363 1.429 . S
C1358 C1350 1.574 . S
C1358 H1353 0.949 . S
C1358 C1364 1.368 . S
C1359 C1343 1.349 . S
C1359 H1351 0.950 . S
C1359 C1357 1.327 . S
C1360 C1348 1.349 . S
C1360 H1354 0.950 . S
C1360 C1361 1.327 . S
C1361 H1355 0.950 . S
C1361 C1360 1.327 . S
C1361 C1365 1.429 . S
C1362 C1345 1.574 . S
C1362 H1356 0.949 . S
C1362 C1366 1.368 . S
C1363 C1344 1.429 . S
C1363 C1357 1.429 . S
C1363 C1364 1.523 . S
C1364 C1345 1.368 . S
C1364 C1358 1.368 . S
C1364 C1363 1.523 . S
C1365 C1349 1.429 . S
C1365 C1361 1.429 . S
C1365 C1366 1.523 . S
C1366 C1350 1.368 . S
C1366 C1362 1.368 . S
C1366 C1365 1.523 . S
H1367 C1342 0.950 . S
H1368 C1344 0.950 . S
H1369 C1345 0.949 . S
H1370 C1347 0.950 . S
H1371 C1349 0.950 . S
C1372 C1373 1.349 . S
C1372 C1374 1.327 . S
C1372 H1397 0.950 . S
C1373 C1372 1.349 . S
C1373 C1389 1.349 . S
C1374 C1372 1.327 . S
C1374 C1393 1.429 . S
C1374 H1398 0.950 . S
C1375 C1392 1.574 . S
C1375 C1394 1.368 . S
C1375 H1399 0.949 . S
H1376 C1380 0.949 . S
C1377 C1378 1.349 . S
C1377 C1379 1.327 . S
C1377 H1400 0.950 . S
C1378 C1377 1.349 . S
C1378 C1390 1.349 . S
C1379 C1377 1.327 . S
C1379 C1395 1.429 . S
C1379 H1401 0.950 . S
C1380 H1376 0.949 . S
C1380 C1388 1.574 . S
C1380 C1396 1.368 . S
H1381 C1389 0.950 . S
H1382 C1387 0.950 . S
H1383 C1388 0.949 . S
H1384 C1390 0.950 . S
H1385 C1391 0.950 . S
H1386 C1392 0.949 . S
C1387 H1382 0.950 . S
C1387 C1389 1.327 . S
C1387 C1393 1.429 . S
C1388 C1380 1.574 . S
C1388 H1383 0.949 . S
C1388 C1394 1.368 . S
C1389 C1373 1.349 . S
C1389 H1381 0.950 . S
C1389 C1387 1.327 . S
C1390 C1378 1.349 . S
C1390 H1384 0.950 . S
C1390 C1391 1.327 . S
C1391 H1385 0.950 . S
C1391 C1390 1.327 . S
C1391 C1395 1.429 . S
C1392 C1375 1.574 . S
C1392 H1386 0.949 . S
C1392 C1396 1.368 . S
C1393 C1374 1.429 . S
C1393 C1387 1.429 . S
C1393 C1394 1.523 . S
C1394 C1375 1.368 . S
C1394 C1388 1.368 . S
C1394 C1393 1.523 . S
C1395 C1379 1.429 . S
C1395 C1391 1.429 . S
C1395 C1396 1.523 . S
C1396 C1380 1.368 . S
C1396 C1392 1.368 . S
C1396 C1395 1.523 . S
H1397 C1372 0.950 . S
H1398 C1374 0.950 . S
H1399 C1375 0.949 . S
H1400 C1377 0.950 . S
H1401 C1379 0.950 . S
C1402 C1403 1.349 . S
C1402 C1404 1.327 . S
C1402 H1427 0.950 . S
C1403 C1402 1.349 . S
C1403 C1419 1.349 . S
C1404 C1402 1.327 . S
C1404 C1423 1.429 . S
C1404 H1428 0.950 . S
C1405 C1422 1.574 . S
C1405 C1424 1.368 . S
C1405 H1429 0.949 . S
H1406 C1410 0.949 . S
C1407 C1408 1.349 . S
C1407 C1409 1.327 . S
C1407 H1430 0.950 . S
C1408 C1407 1.349 . S
C1408 C1420 1.349 . S
C1409 C1407 1.327 . S
C1409 C1425 1.429 . S
C1409 H1431 0.950 . S
C1410 H1406 0.949 . S
C1410 C1418 1.574 . S
C1410 C1426 1.368 . S
H1411 C1419 0.950 . S
H1412 C1417 0.950 . S
H1413 C1418 0.949 . S
H1414 C1420 0.950 . S
H1415 C1421 0.950 . S
H1416 C1422 0.949 . S
C1417 H1412 0.950 . S
C1417 C1419 1.327 . S
C1417 C1423 1.429 . S
C1418 C1410 1.574 . S
C1418 H1413 0.949 . S
C1418 C1424 1.368 . S
C1419 C1403 1.349 . S
C1419 H1411 0.950 . S
C1419 C1417 1.327 . S
C1420 C1408 1.349 . S
C1420 H1414 0.950 . S
C1420 C1421 1.327 . S
C1421 H1415 0.950 . S
C1421 C1420 1.327 . S
C1421 C1425 1.429 . S
C1422 C1405 1.574 . S
C1422 H1416 0.949 . S
C1422 C1426 1.368 . S
C1423 C1404 1.429 . S
C1423 C1417 1.429 . S
C1423 C1424 1.523 . S
C1424 C1405 1.368 . S
C1424 C1418 1.368 . S
C1424 C1423 1.523 . S
C1425 C1409 1.429 . S
C1425 C1421 1.429 . S
C1425 C1426 1.523 . S
C1426 C1410 1.368 . S
C1426 C1422 1.368 . S
C1426 C1425 1.523 . S
H1427 C1402 0.950 . S
H1428 C1404 0.950 . S
H1429 C1405 0.949 . S
H1430 C1407 0.950 . S
H1431 C1409 0.950 . S
C1432 C1433 1.349 . S
C1432 C1434 1.327 . S
C1432 H1457 0.950 . S
C1433 C1432 1.349 . S
C1433 C1449 1.349 . S
C1434 C1432 1.327 . S
C1434 C1453 1.429 . S
C1434 H1458 0.950 . S
C1435 C1452 1.574 . S
C1435 C1454 1.368 . S
C1435 H1459 0.949 . S
H1436 C1440 0.949 . S
C1437 C1438 1.349 . S
C1437 C1439 1.327 . S
C1437 H1460 0.950 . S
C1438 C1437 1.349 . S
C1438 C1450 1.349 . S
C1439 C1437 1.327 . S
C1439 C1455 1.429 . S
C1439 H1461 0.950 . S
C1440 H1436 0.949 . S
C1440 C1448 1.574 . S
C1440 C1456 1.368 . S
H1441 C1449 0.950 . S
H1442 C1447 0.950 . S
H1443 C1448 0.949 . S
H1444 C1450 0.950 . S
H1445 C1451 0.950 . S
H1446 C1452 0.949 . S
C1447 H1442 0.950 . S
C1447 C1449 1.327 . S
C1447 C1453 1.429 . S
C1448 C1440 1.574 . S
C1448 H1443 0.949 . S
C1448 C1454 1.368 . S
C1449 C1433 1.349 . S
C1449 H1441 0.950 . S
C1449 C1447 1.327 . S
C1450 C1438 1.349 . S
C1450 H1444 0.950 . S
C1450 C1451 1.327 . S
C1451 H1445 0.950 . S
C1451 C1450 1.327 . S
C1451 C1455 1.429 . S
C1452 C1435 1.574 . S
C1452 H1446 0.949 . S
C1452 C1456 1.368 . S
C1453 C1434 1.429 . S
C1453 C1447 1.429 . S
C1453 C1454 1.523 . S
C1454 C1435 1.368 . S
C1454 C1448 1.368 . S
C1454 C1453 1.523 . S
C1455 C1439 1.429 . S
C1455 C1451 1.429 . S
C1455 C1456 1.523 . S
C1456 C1440 1.368 . S
C1456 C1452 1.368 . S
C1456 C1455 1.523 . S
H1457 C1432 0.950 . S
H1458 C1434 0.950 . S
H1459 C1435 0.949 . S
H1460 C1437 0.950 . S
H1461 C1439 0.950 . S
C1462 C1463 1.349 . S
C1462 C1464 1.327 . S
C1462 H1487 0.950 . S
C1463 C1462 1.349 . S
C1463 C1479 1.349 . S
C1464 C1462 1.327 . S
C1464 C1483 1.429 . S
C1464 H1488 0.950 . S
C1465 C1482 1.574 . S
C1465 C1484 1.368 . S
C1465 H1489 0.949 . S
H1466 C1470 0.949 . S
C1467 C1468 1.349 . S
C1467 C1469 1.327 . S
C1467 H1490 0.950 . S
C1468 C1467 1.349 . S
C1468 C1480 1.349 . S
C1469 C1467 1.327 . S
C1469 C1485 1.429 . S
C1469 H1491 0.950 . S
C1470 H1466 0.949 . S
C1470 C1478 1.574 . S
C1470 C1486 1.368 . S
H1471 C1479 0.950 . S
H1472 C1477 0.950 . S
H1473 C1478 0.949 . S
H1474 C1480 0.950 . S
H1475 C1481 0.950 . S
H1476 C1482 0.949 . S
C1477 H1472 0.950 . S
C1477 C1479 1.327 . S
C1477 C1483 1.429 . S
C1478 C1470 1.574 . S
C1478 H1473 0.949 . S
C1478 C1484 1.368 . S
C1479 C1463 1.349 . S
C1479 H1471 0.950 . S
C1479 C1477 1.327 . S
C1480 C1468 1.349 . S
C1480 H1474 0.950 . S
C1480 C1481 1.327 . S
C1481 H1475 0.950 . S
C1481 C1480 1.327 . S
C1481 C1485 1.429 . S
C1482 C1465 1.574 . S
C1482 H1476 0.949 . S
C1482 C1486 1.368 . S
C1483 C1464 1.429 . S
C1483 C1477 1.429 . S
C1483 C1484 1.523 . S
C1484 C1465 1.368 . S
C1484 C1478 1.368 . S
C1484 C1483 1.523 . S
C1485 C1469 1.429 . S
C1485 C1481 1.429 . S
C1485 C1486 1.523 . S
C1486 C1470 1.368 . S
C1486 C1482 1.368 . S
C1486 C1485 1.523 . S
H1487 C1462 0.950 . S
H1488 C1464 0.950 . S
H1489 C1465 0.949 . S
H1490 C1467 0.950 . S
H1491 C1469 0.950 . S
C1492 C1493 1.349 . S
C1492 C1494 1.327 . S
C1492 H1517 0.950 . S
C1493 C1492 1.349 . S
C1493 C1509 1.349 . S
C1494 C1492 1.327 . S
C1494 C1513 1.429 . S
C1494 H1518 0.950 . S
C1495 C1512 1.574 . S
C1495 C1514 1.368 . S
C1495 H1519 0.949 . S
H1496 C1500 0.949 . S
C1497 C1498 1.349 . S
C1497 C1499 1.327 . S
C1497 H1520 0.950 . S
C1498 C1497 1.349 . S
C1498 C1510 1.349 . S
C1499 C1497 1.327 . S
C1499 C1515 1.429 . S
C1499 H1521 0.950 . S
C1500 H1496 0.949 . S
C1500 C1508 1.574 . S
C1500 C1516 1.368 . S
H1501 C1509 0.950 . S
H1502 C1507 0.950 . S
H1503 C1508 0.949 . S
H1504 C1510 0.950 . S
H1505 C1511 0.950 . S
H1506 C1512 0.949 . S
C1507 H1502 0.950 . S
C1507 C1509 1.327 . S
C1507 C1513 1.429 . S
C1508 C1500 1.574 . S
C1508 H1503 0.949 . S
C1508 C1514 1.368 . S
C1509 C1493 1.349 . S
C1509 H1501 0.950 . S
C1509 C1507 1.327 . S
C1510 C1498 1.349 . S
C1510 H1504 0.950 . S
C1510 C1511 1.327 . S
C1511 H1505 0.950 . S
C1511 C1510 1.327 . S
C1511 C1515 1.429 . S
C1512 C1495 1.574 . S
C1512 H1506 0.949 . S
C1512 C1516 1.368 . S
C1513 C1494 1.429 . S
C1513 C1507 1.429 . S
C1513 C1514 1.523 . S
C1514 C1495 1.368 . S
C1514 C1508 1.368 . S
C1514 C1513 1.523 . S
C1515 C1499 1.429 . S
C1515 C1511 1.429 . S
C1515 C1516 1.523 . S
C1516 C1500 1.368 . S
C1516 C1512 1.368 . S
C1516 C1515 1.523 . S
H1517 C1492 0.950 . S
H1518 C1494 0.950 . S
H1519 C1495 0.949 . S
H1520 C1497 0.950 . S
H1521 C1499 0.950 . S
C1522 C1523 1.349 . S
C1522 C1524 1.327 . S
C1522 H1547 0.950 . S
C1523 C1522 1.349 . S
C1523 C1539 1.349 . S
C1524 C1522 1.327 . S
C1524 C1543 1.429 . S
C1524 H1548 0.950 . S
C1525 C1542 1.574 . S
C1525 C1544 1.368 . S
C1525 H1549 0.949 . S
H1526 C1530 0.949 . S
C1527 C1528 1.349 . S
C1527 C1529 1.327 . S
C1527 H1550 0.950 . S
C1528 C1527 1.349 . S
C1528 C1540 1.349 . S
C1529 C1527 1.327 . S
C1529 C1545 1.429 . S
C1529 H1551 0.950 . S
C1530 H1526 0.949 . S
C1530 C1538 1.574 . S
C1530 C1546 1.368 . S
H1531 C1539 0.950 . S
H1532 C1537 0.950 . S
H1533 C1538 0.949 . S
H1534 C1540 0.950 . S
H1535 C1541 0.950 . S
H1536 C1542 0.949 . S
C1537 H1532 0.950 . S
C1537 C1539 1.327 . S
C1537 C1543 1.429 . S
C1538 C1530 1.574 . S
C1538 H1533 0.949 . S
C1538 C1544 1.368 . S
C1539 C1523 1.349 . S
C1539 H1531 0.950 . S
C1539 C1537 1.327 . S
C1540 C1528 1.349 . S
C1540 H1534 0.950 . S
C1540 C1541 1.327 . S
C1541 H1535 0.950 . S
C1541 C1540 1.327 . S
C1541 C1545 1.429 . S
C1542 C1525 1.574 . S
C1542 H1536 0.949 . S
C1542 C1546 1.368 . S
C1543 C1524 1.429 . S
C1543 C1537 1.429 . S
C1543 C1544 1.523 . S
C1544 C1525 1.368 . S
C1544 C1538 1.368 . S
C1544 C1543 1.523 . S
C1545 C1529 1.429 . S
C1545 C1541 1.429 . S
C1545 C1546 1.523 . S
C1546 C1530 1.368 . S
C1546 C1542 1.368 . S
C1546 C1545 1.523 . S
H1547 C1522 0.950 . S
H1548 C1524 0.950 . S
H1549 C1525 0.949 . S
H1550 C1527 0.950 . S
H1551 C1529 0.950 . S
C1552 C1553 1.349 . S
C1552 C1554 1.327 . S
C1552 H1577 0.950 . S
C1553 C1552 1.349 . S
C1553 C1569 1.349 . S
C1554 C1552 1.327 . S
C1554 C1573 1.429 . S
C1554 H1578 0.950 . S
C1555 C1572 1.574 1_556 S
C1555 C1574 1.368 . S
C1555 H1579 0.949 . S
H1556 C1560 0.949 . S
C1557 C1558 1.349 . S
C1557 C1559 1.327 . S
C1557 H1580 0.950 . S
C1558 C1557 1.349 . S
C1558 C1570 1.349 . S
C1559 C1557 1.327 . S
C1559 C1575 1.429 . S
C1559 H1581 0.950 . S
C1560 H1556 0.949 . S
C1560 C1568 1.574 1_554 S
C1560 C1576 1.368 . S
H1561 C1569 0.950 . S
H1562 C1567 0.950 . S
H1563 C1568 0.949 . S
H1564 C1570 0.950 . S
H1565 C1571 0.950 . S
H1566 C1572 0.949 . S
C1567 H1562 0.950 . S
C1567 C1569 1.327 . S
C1567 C1573 1.429 . S
C1568 C1560 1.574 1_556 S
C1568 H1563 0.949 . S
C1568 C1574 1.368 . S
C1569 C1553 1.349 . S
C1569 H1561 0.950 . S
C1569 C1567 1.327 . S
C1570 C1558 1.349 . S
C1570 H1564 0.950 . S
C1570 C1571 1.327 . S
C1571 H1565 0.950 . S
C1571 C1570 1.327 . S
C1571 C1575 1.429 . S
C1572 C1555 1.574 1_554 S
C1572 H1566 0.949 . S
C1572 C1576 1.368 . S
C1573 C1554 1.429 . S
C1573 C1567 1.429 . S
C1573 C1574 1.523 . S
C1574 C1555 1.368 . S
C1574 C1568 1.368 . S
C1574 C1573 1.523 . S
C1575 C1559 1.429 . S
C1575 C1571 1.429 . S
C1575 C1576 1.523 . S
C1576 C1560 1.368 . S
C1576 C1572 1.368 . S
C1576 C1575 1.523 . S
H1577 C1552 0.950 . S
H1578 C1554 0.950 . S
H1579 C1555 0.949 . S
H1580 C1557 0.950 . S
H1581 C1559 0.950 . S
C1582 C1583 1.349 . S
C1582 C1584 1.327 . S
C1582 H1607 0.950 . S
C1583 C1582 1.349 . S
C1583 C1599 1.349 . S
C1584 C1582 1.327 . S
C1584 C1603 1.429 . S
C1584 H1608 0.950 . S
C1585 C1602 1.574 . S
C1585 C1604 1.368 . S
C1585 H1609 0.949 . S
H1586 C1590 0.949 . S
C1587 C1588 1.349 . S
C1587 C1589 1.327 . S
C1587 H1610 0.950 . S
C1588 C1587 1.349 . S
C1588 C1600 1.349 . S
C1589 C1587 1.327 . S
C1589 C1605 1.429 . S
C1589 H1611 0.950 . S
C1590 H1586 0.949 . S
C1590 C1598 1.574 . S
C1590 C1606 1.368 . S
H1591 C1599 0.950 . S
H1592 C1597 0.950 . S
H1593 C1598 0.949 . S
H1594 C1600 0.950 . S
H1595 C1601 0.950 . S
H1596 C1602 0.949 . S
C1597 H1592 0.950 . S
C1597 C1599 1.327 . S
C1597 C1603 1.429 . S
C1598 C1590 1.574 . S
C1598 H1593 0.949 . S
C1598 C1604 1.368 1_556 S
C1599 C1583 1.349 . S
C1599 H1591 0.950 . S
C1599 C1597 1.327 . S
C1600 C1588 1.349 . S
C1600 H1594 0.950 . S
C1600 C1601 1.327 . S
C1601 H1595 0.950 . S
C1601 C1600 1.327 . S
C1601 C1605 1.429 . S
C1602 C1585 1.574 . S
C1602 H1596 0.949 . S
C1602 C1606 1.368 1_554 S
C1603 C1584 1.429 . S
C1603 C1597 1.429 . S
C1603 C1604 1.523 . S
C1604 C1585 1.368 . S
C1604 C1598 1.368 1_554 S
C1604 C1603 1.523 . S
C1605 C1589 1.429 . S
C1605 C1601 1.429 . S
C1605 C1606 1.523 . S
C1606 C1590 1.368 . S
C1606 C1602 1.368 1_556 S
C1606 C1605 1.523 . S
H1607 C1582 0.950 . S
H1608 C1584 0.950 . S
H1609 C1585 0.949 . S
H1610 C1587 0.950 . S
H1611 C1589 0.950 . S
C1612 C1613 1.349 . S
C1612 C1614 1.327 . S
C1612 H1637 0.963 . S
C1613 C1612 1.349 . S
C1613 C1629 1.349 . S
C1614 C1612 1.327 . S
C1614 C1633 1.429 . S
C1614 H1638 0.950 1_554 S
C1615 C1632 1.574 . S
C1615 C1634 1.368 . S
C1615 H1639 0.949 . S
H1616 C1620 0.949 . S
C1617 C1618 1.349 . S
C1617 C1619 1.327 . S
C1617 H1640 0.963 . S
C1618 C1617 1.349 . S
C1618 C1630 1.349 . S
C1619 C1617 1.327 . S
C1619 C1635 1.429 . S
C1619 H1641 0.950 1_556 S
C1620 H1616 0.949 . S
C1620 C1628 1.574 . S
C1620 C1636 1.368 . S
H1621 C1629 0.950 . S
H1622 C1627 0.950 . S
H1623 C1628 0.949 . S
H1624 C1630 0.950 . S
H1625 C1631 0.950 . S
H1626 C1632 0.949 . S
C1627 H1622 0.950 . S
C1627 C1629 1.327 . S
C1627 C1633 1.429 . S
C1628 C1620 1.574 . S
C1628 H1623 0.949 . S
C1628 C1634 1.368 1_556 S
C1629 C1613 1.349 . S
C1629 H1621 0.950 . S
C1629 C1627 1.327 . S
C1630 C1618 1.349 . S
C1630 H1624 0.950 . S
C1630 C1631 1.327 . S
C1631 H1625 0.950 . S
C1631 C1630 1.327 . S
C1631 C1635 1.429 . S
C1632 C1615 1.574 . S
C1632 H1626 0.949 . S
C1632 C1636 1.368 1_554 S
C1633 C1614 1.429 . S
C1633 C1627 1.429 . S
C1633 C1634 1.523 . S
C1634 C1615 1.368 . S
C1634 C1628 1.368 1_554 S
C1634 C1633 1.523 . S
C1635 C1619 1.429 . S
C1635 C1631 1.429 . S
C1635 C1636 1.523 . S
C1636 C1620 1.368 . S
C1636 C1632 1.368 1_556 S
C1636 C1635 1.523 . S
H1637 C1612 0.963 . S
H1638 C1614 0.950 1_556 S
H1639 C1615 0.949 . S
H1640 C1617 0.963 . S
H1641 C1619 0.950 1_554 S
C1642 C1643 1.349 . S
C1642 C1644 1.327 . S
C1642 H1667 0.950 . S
C1643 C1642 1.349 . S
C1643 C1659 1.349 . S
C1644 C1642 1.327 . S
C1644 C1663 1.429 . S
C1644 H1668 0.950 . S
C1645 C1662 1.574 1_554 S
C1645 C1664 1.368 . S
C1645 H1669 0.949 . S
H1646 C1650 0.949 . S
C1647 C1648 1.349 . S
C1647 C1649 1.327 . S
C1647 H1670 0.950 . S
C1648 C1647 1.349 . S
C1648 C1660 1.349 . S
C1649 C1647 1.327 . S
C1649 C1665 1.429 . S
C1649 H1671 0.950 . S
C1650 H1646 0.949 . S
C1650 C1658 1.574 1_556 S
C1650 C1666 1.368 . S
H1651 C1659 0.950 . S
H1652 C1657 0.950 . S
H1653 C1658 0.949 . S
H1654 C1660 0.950 . S
H1655 C1661 0.950 . S
H1656 C1662 0.949 . S
C1657 H1652 0.950 . S
C1657 C1659 1.327 . S
C1657 C1663 1.429 . S
C1658 C1650 1.574 1_554 S
C1658 H1653 0.949 . S
C1658 C1664 1.368 . S
C1659 C1643 1.349 . S
C1659 H1651 0.950 . S
C1659 C1657 1.327 . S
C1660 C1648 1.349 . S
C1660 H1654 0.950 . S
C1660 C1661 1.327 . S
C1661 H1655 0.950 . S
C1661 C1660 1.327 . S
C1661 C1665 1.429 . S
C1662 C1645 1.574 1_556 S
C1662 H1656 0.949 . S
C1662 C1666 1.368 . S
C1663 C1644 1.429 . S
C1663 C1657 1.429 . S
C1663 C1664 1.523 . S
C1664 C1645 1.368 . S
C1664 C1658 1.368 . S
C1664 C1663 1.523 . S
C1665 C1649 1.429 . S
C1665 C1661 1.429 . S
C1665 C1666 1.523 . S
C1666 C1650 1.368 . S
C1666 C1662 1.368 . S
C1666 C1665 1.523 . S
H1667 C1642 0.950 . S
H1668 C1644 0.950 . S
H1669 C1645 0.949 . S
H1670 C1647 0.950 . S
H1671 C1649 0.950 . S
C1672 C1673 1.349 . S
C1672 C1674 1.327 . S
C1672 H1697 0.950 . S
C1673 C1672 1.349 . S
C1673 C1689 1.349 . S
C1674 C1672 1.327 . S
C1674 C1693 1.429 . S
C1674 H1698 0.950 . S
C1675 C1692 1.574 . S
C1675 C1694 1.368 . S
C1675 H1699 0.949 . S
H1676 C1680 0.949 . S
C1677 C1678 1.349 . S
C1677 C1679 1.327 . S
C1677 H1700 0.950 . S
C1678 C1677 1.349 . S
C1678 C1690 1.349 . S
C1679 C1677 1.327 . S
C1679 C1695 1.429 . S
C1679 H1701 0.950 . S
C1680 H1676 0.949 . S
C1680 C1688 1.574 . S
C1680 C1696 1.368 . S
H1681 C1689 0.950 . S
H1682 C1687 0.950 . S
H1683 C1688 0.949 . S
H1684 C1690 0.950 . S
H1685 C1691 0.950 . S
H1686 C1692 0.949 . S
C1687 H1682 0.950 . S
C1687 C1689 1.327 . S
C1687 C1693 1.429 . S
C1688 C1680 1.574 . S
C1688 H1683 0.949 . S
C1688 C1694 1.368 . S
C1689 C1673 1.349 . S
C1689 H1681 0.950 . S
C1689 C1687 1.327 . S
C1690 C1678 1.349 . S
C1690 H1684 0.950 . S
C1690 C1691 1.327 . S
C1691 H1685 0.950 . S
C1691 C1690 1.327 . S
C1691 C1695 1.429 . S
C1692 C1675 1.574 . S
C1692 H1686 0.949 . S
C1692 C1696 1.368 . S
C1693 C1674 1.429 . S
C1693 C1687 1.429 . S
C1693 C1694 1.523 . S
C1694 C1675 1.368 . S
C1694 C1688 1.368 . S
C1694 C1693 1.523 . S
C1695 C1679 1.429 . S
C1695 C1691 1.429 . S
C1695 C1696 1.523 . S
C1696 C1680 1.368 . S
C1696 C1692 1.368 . S
C1696 C1695 1.523 . S
H1697 C1672 0.950 . S
H1698 C1674 0.950 . S
H1699 C1675 0.949 . S
H1700 C1677 0.950 . S
H1701 C1679 0.950 . S
C1702 C1703 1.349 . S
C1702 C1704 1.327 . S
C1702 H1727 0.950 . S
C1703 C1702 1.349 . S
C1703 C1719 1.349 . S
C1704 C1702 1.327 . S
C1704 C1723 1.429 . S
C1704 H1728 0.950 . S
C1705 C1722 1.574 . S
C1705 C1724 1.368 . S
C1705 H1729 0.949 . S
H1706 C1710 0.949 . S
C1707 C1708 1.349 . S
C1707 C1709 1.327 . S
C1707 H1730 0.950 . S
C1708 C1707 1.349 . S
C1708 C1720 1.349 . S
C1709 C1707 1.327 . S
C1709 C1725 1.429 . S
C1709 H1731 0.950 . S
C1710 H1706 0.949 . S
C1710 C1718 1.574 . S
C1710 C1726 1.368 . S
H1711 C1719 0.950 . S
H1712 C1717 0.950 . S
H1713 C1718 0.949 . S
H1714 C1720 0.950 . S
H1715 C1721 0.950 . S
H1716 C1722 0.949 . S
C1717 H1712 0.950 . S
C1717 C1719 1.327 . S
C1717 C1723 1.429 . S
C1718 C1710 1.574 . S
C1718 H1713 0.949 . S
C1718 C1724 1.368 . S
C1719 C1703 1.349 . S
C1719 H1711 0.950 . S
C1719 C1717 1.327 . S
C1720 C1708 1.349 . S
C1720 H1714 0.950 . S
C1720 C1721 1.327 . S
C1721 H1715 0.950 . S
C1721 C1720 1.327 . S
C1721 C1725 1.429 . S
C1722 C1705 1.574 . S
C1722 H1716 0.949 . S
C1722 C1726 1.368 . S
C1723 C1704 1.429 . S
C1723 C1717 1.429 . S
C1723 C1724 1.523 . S
C1724 C1705 1.368 . S
C1724 C1718 1.368 . S
C1724 C1723 1.523 . S
C1725 C1709 1.429 . S
C1725 C1721 1.429 . S
C1725 C1726 1.523 . S
C1726 C1710 1.368 . S
C1726 C1722 1.368 . S
C1726 C1725 1.523 . S
H1727 C1702 0.950 . S
H1728 C1704 0.950 . S
H1729 C1705 0.949 . S
H1730 C1707 0.950 . S
H1731 C1709 0.950 . S
C1732 C1733 1.349 . S
C1732 C1734 1.327 . S
C1732 H1757 0.950 . S
C1733 C1732 1.349 . S
C1733 C1749 1.349 . S
C1734 C1732 1.327 . S
C1734 C1753 1.429 . S
C1734 H1758 0.950 . S
C1735 C1752 1.574 . S
C1735 C1754 1.368 . S
C1735 H1759 0.949 . S
H1736 C1740 0.949 . S
C1737 C1738 1.349 . S
C1737 C1739 1.327 . S
C1737 H1760 0.950 . S
C1738 C1737 1.349 . S
C1738 C1750 1.349 . S
C1739 C1737 1.327 . S
C1739 C1755 1.429 . S
C1739 H1761 0.950 . S
C1740 H1736 0.949 . S
C1740 C1748 1.574 . S
C1740 C1756 1.368 . S
H1741 C1749 0.950 . S
H1742 C1747 0.950 . S
H1743 C1748 0.949 . S
H1744 C1750 0.950 . S
H1745 C1751 0.950 . S
H1746 C1752 0.949 . S
C1747 H1742 0.950 . S
C1747 C1749 1.327 . S
C1747 C1753 1.429 . S
C1748 C1740 1.574 . S
C1748 H1743 0.949 . S
C1748 C1754 1.368 . S
C1749 C1733 1.349 . S
C1749 H1741 0.950 . S
C1749 C1747 1.327 . S
C1750 C1738 1.349 . S
C1750 H1744 0.950 . S
C1750 C1751 1.327 . S
C1751 H1745 0.950 . S
C1751 C1750 1.327 . S
C1751 C1755 1.429 . S
C1752 C1735 1.574 . S
C1752 H1746 0.949 . S
C1752 C1756 1.368 . S
C1753 C1734 1.429 . S
C1753 C1747 1.429 . S
C1753 C1754 1.523 . S
C1754 C1735 1.368 . S
C1754 C1748 1.368 . S
C1754 C1753 1.523 . S
C1755 C1739 1.429 . S
C1755 C1751 1.429 . S
C1755 C1756 1.523 . S
C1756 C1740 1.368 . S
C1756 C1752 1.368 . S
C1756 C1755 1.523 . S
H1757 C1732 0.950 . S
H1758 C1734 0.950 . S
H1759 C1735 0.949 . S
H1760 C1737 0.950 . S
H1761 C1739 0.950 . S
C1762 C1763 1.349 . S
C1762 C1764 1.327 . S
C1762 H1787 0.950 . S
C1763 C1762 1.349 . S
C1763 C1779 1.349 . S
C1764 C1762 1.327 . S
C1764 C1783 1.429 . S
C1764 H1788 0.950 . S
C1765 C1782 1.574 . S
C1765 C1784 1.368 . S
C1765 H1789 0.949 . S
H1766 C1770 0.949 . S
C1767 C1768 1.349 . S
C1767 C1769 1.327 . S
C1767 H1790 0.950 . S
C1768 C1767 1.349 . S
C1768 C1780 1.349 . S
C1769 C1767 1.327 . S
C1769 C1785 1.429 . S
C1769 H1791 0.950 . S
C1770 H1766 0.949 . S
C1770 C1778 1.574 . S
C1770 C1786 1.368 . S
H1771 C1779 0.950 . S
H1772 C1777 0.950 . S
H1773 C1778 0.949 . S
H1774 C1780 0.950 . S
H1775 C1781 0.950 . S
H1776 C1782 0.949 . S
C1777 H1772 0.950 . S
C1777 C1779 1.327 . S
C1777 C1783 1.429 . S
C1778 C1770 1.574 . S
C1778 H1773 0.949 . S
C1778 C1784 1.368 . S
C1779 C1763 1.349 . S
C1779 H1771 0.950 . S
C1779 C1777 1.327 . S
C1780 C1768 1.349 . S
C1780 H1774 0.950 . S
C1780 C1781 1.327 . S
C1781 H1775 0.950 . S
C1781 C1780 1.327 . S
C1781 C1785 1.429 . S
C1782 C1765 1.574 . S
C1782 H1776 0.949 . S
C1782 C1786 1.368 . S
C1783 C1764 1.429 . S
C1783 C1777 1.429 . S
C1783 C1784 1.523 . S
C1784 C1765 1.368 . S
C1784 C1778 1.368 . S
C1784 C1783 1.523 . S
C1785 C1769 1.429 . S
C1785 C1781 1.429 . S
C1785 C1786 1.523 . S
C1786 C1770 1.368 . S
C1786 C1782 1.368 . S
C1786 C1785 1.523 . S
H1787 C1762 0.950 . S
H1788 C1764 0.950 . S
H1789 C1765 0.949 . S
H1790 C1767 0.950 . S
H1791 C1769 0.950 . S
C353 C8 1.076 . S
C358 C118 1.076 . S
C383 C32 1.076 . S
C388 C140 1.076 . S
C413 C162 1.076 . S
C418 C62 1.076 . S
C443 C96 1.076 . S
C448 C74 1.076 . S
C473 C294 1.076 . S
C478 C186 1.076 . S
C503 C208 1.076 . S
C508 C316 1.076 . S
C533 C340 1.076 . S
C538 C230 1.076 . S
C563 C272 1.076 . S
C568 C252 1.076 . S
C593 C7 1.450 1_565 S
C598 C37 1.404 . S
C623 C51 1.404 . S
C628 C43 1.450 1_655 S
C653 C87 1.404 . S
C658 C59 1.450 1_545 S
C683 C73 1.450 1_455 S
C688 C21 1.404 . S
C713 C95 1.450 1_565 S
C718 C175 1.404 . S
C743 C109 1.404 . S
C748 C117 1.450 1_655 S
C773 C131 1.404 . S
C778 C139 1.450 1_545 S
C803 C153 1.404 . S
C808 C161 1.450 1_455 S
C833 C197 1.450 . S
C838 C213 1.404 . S
C863 C235 1.404 . S
C868 C219 1.450 . S
C893 C241 1.450 . S
C898 C257 1.404 . S
C923 C263 1.450 . S
C928 C191 1.404 . S
C953 C345 1.404 . S
C958 C271 1.450 . S
C983 C285 1.404 . S
C988 C293 1.450 . S
C1013 C307 1.404 . S
C1018 C315 1.450 . S
C1043 C351 1.450 . S
C1048 C329 1.404 . S
C1073 C150 1.202 . S
C1078 C15 1.207 . S
C1103 C172 1.202 . S
C1108 C29 1.207 . S
C1133 C65 1.207 . S
C1138 C106 1.202 . S
C1163 C81 1.207 . S
C1168 C128 1.202 . S
C1193 C54 1.202 . S
C1198 C103 1.207 . S
C1223 C125 1.207 . S
C1228 C84 1.202 . S
C1253 C147 1.207 . S
C1258 C18 1.202 . S
C1283 C30 1.202 . S
C1288 C169 1.207 . S
C1313 C183 1.207 . S
C1318 C326 1.202 . S
C1343 C205 1.207 . S
C1348 C338 1.202 . S
C1373 C282 1.202 . S
C1378 C227 1.207 . S
C1403 C249 1.207 . S
C1408 C304 1.202 . S
C1433 C279 1.207 . S
C1438 C228 1.202 . S
C1463 C301 1.207 . S
C1468 C250 1.202 . S
C1493 C323 1.207 . S
C1498 C184 1.202 . S
C1523 C206 1.202 . S
C1528 C337 1.207 . S
C1553 C348 1.292 . S
C1558 C10 1.292 . S
C1583 C274 1.292 . S
C1588 C40 1.292 . S
C1613 C52 1.292 . S
C1618 C296 1.292 . S
C1643 C318 1.292 . S
C1648 C76 1.292 . S
C1673 C98 1.292 . S
C1678 C216 1.292 . S
C1703 C120 1.292 . S
C1708 C238 1.292 . S
C1733 C260 1.292 . S
C1738 C142 1.292 . S
C1763 C164 1.292 . S
C1768 C194 1.292 . S
