# Generated by pormake.
# Topology irl, (4)-cn, num edge types: 1
# Building blocks:
#     Node 0, Type 0, BuildingBlock: ICAMEG_clean_sbu_1, # of connection points: 4
#     Node 1, Type 0, BuildingBlock: ICAMEG_clean_sbu_1, # of connection points: 4
#     Node 2, Type 0, BuildingBlock: ICAMEG_clean_sbu_1, # of connection points: 4
#     Node 3, Type 0, BuildingBlock: ICAMEG_clean_sbu_1, # of connection points: 4
#     Node 4, Type 0, BuildingBlock: ICAMEG_clean_sbu_1, # of connection points: 4
#     Node 5, Type 0, BuildingBlock: ICAMEG_clean_sbu_1, # of connection points: 4
#     Node 6, Type 0, BuildingBlock: ICAMEG_clean_sbu_1, # of connection points: 4
#     Node 7, Type 0, BuildingBlock: ICAMEG_clean_sbu_1, # of connection points: 4
#     Edge 8, Type (0, 0), BuildingBlock: EZIPEK_clean_linker_0, # of connection points: 2
#     Edge 9, Type (0, 0), BuildingBlock: EZIPEK_clean_linker_0, # of connection points: 2
#     Edge 10, Type (0, 0), BuildingBlock: EZIPEK_clean_linker_0, # of connection points: 2
#     Edge 11, Type (0, 0), BuildingBlock: EZIPEK_clean_linker_0, # of connection points: 2
#     Edge 12, Type (0, 0), BuildingBlock: EZIPEK_clean_linker_0, # of connection points: 2
#     Edge 13, Type (0, 0), BuildingBlock: EZIPEK_clean_linker_0, # of connection points: 2
#     Edge 14, Type (0, 0), BuildingBlock: EZIPEK_clean_linker_0, # of connection points: 2
#     Edge 15, Type (0, 0), BuildingBlock: EZIPEK_clean_linker_0, # of connection points: 2
#     Edge 16, Type (0, 0), BuildingBlock: EZIPEK_clean_linker_0, # of connection points: 2
#     Edge 17, Type (0, 0), BuildingBlock: EZIPEK_clean_linker_0, # of connection points: 2
#     Edge 18, Type (0, 0), BuildingBlock: EZIPEK_clean_linker_0, # of connection points: 2
#     Edge 19, Type (0, 0), BuildingBlock: EZIPEK_clean_linker_0, # of connection points: 2
#     Edge 20, Type (0, 0), BuildingBlock: EZIPEK_clean_linker_0, # of connection points: 2
#     Edge 21, Type (0, 0), BuildingBlock: EZIPEK_clean_linker_0, # of connection points: 2
#     Edge 22, Type (0, 0), BuildingBlock: EZIPEK_clean_linker_0, # of connection points: 2
#     Edge 23, Type (0, 0), BuildingBlock: EZIPEK_clean_linker_0, # of connection points: 2
# Relax obj value: 0.026
# Max RMSD: 0.073
# Mean RMSD: 0.073
data_MOF--net-irl--node1-ICAMEG_clean_sbu_1--edge1-EZIPEK_clean_linker_0
_symmetry_space_group_name_H-M    P1
_symmetry_Int_Tables_number       1
_symmetry_cell_setting            triclinic
loop_
_symmetry_equiv_pos_as_xyz
'x, y, z'
_cell_length_a     25.955121
_cell_length_b     36.698301
_cell_length_c     22.629577
_cell_angle_alpha  89.900825
_cell_angle_beta   90.003077
_cell_angle_gamma 90.062219
loop_
_atom_site_label
_atom_site_type_symbol
_atom_site_fract_x
_atom_site_fract_y
_atom_site_fract_z
_atom_type_partial_charge
Co0 Co 0.01068 0.15336 0.00626 0.0
Co1 Co 0.1286 0.12725 0.06539 0.0
O2 O 0.08634 0.15446 0.00865 0.0
C3 C 0.04584 0.14902 0.87841 0.0
O4 O 0.09432 0.14828 0.8944 0.0
C5 C 0.16643 0.20364 0.07656 0.0
O6 O 0.11851 0.21488 0.07675 0.0
O7 O 0.08624 0.14592 0.13295 0.0
O8 O 0.00694 0.15382 0.09458 0.0
H9 H 0.16144 0.05149 0.24724 0.0
H10 H 0.0698 0.21085 0.94199 0.0
O11 O 0.01014 0.15194 0.9169 0.0
H12 H 0.95449 0.27701 0.07727 0.0
H13 H 0.83653 0.19067 0.92892 0.0
H14 H 0.92899 0.1112 0.06865 0.0
H15 H 0.95318 0.2099 0.07354 0.0
H16 H 0.93129 0.19228 0.93491 0.0
O17 O 0.17696 0.16986 0.07285 0.0
H18 H 0.10838 0.08561 0.17609 0.0
H19 H 0.24172 0.11542 0.07897 0.0
H20 H 0.83427 0.10893 0.06481 0.0
H21 H 0.07201 0.27784 0.94382 0.0
H22 H 0.78728 0.14891 0.99446 0.0
H23 H 0.01404 0.31148 0.01187 0.0
O24 O 0.01123 0.09901 0.00708 0.0
H25 H 0.23353 0.13824 0.87914 0.0
H26 H 0.16198 0.05307 0.02656 0.0
H27 H 0.21111 0.02899 0.94219 0.0
H28 H 0.24743 0.07166 0.86773 0.0
H29 H 0.18304 0.16104 0.96345 0.0
H30 H 0.29657 0.08217 0.14969 0.0
H31 H 0.25642 0.04953 0.23425 0.0
O32 O 0.08249 0.08351 0.05802 0.0
C33 C 0.03803 0.15226 0.13816 0.0
C34 C 0.17935 0.06506 0.21001 0.0
C35 C 0.25516 0.08235 0.15535 0.0
N36 N 0.17143 0.10105 0.1217 0.0
C37 C 0.1493 0.08403 0.16905 0.0
C38 C 0.22383 0.10102 0.11529 0.0
C39 C 0.23264 0.06408 0.20282 0.0
C40 C 0.04382 0.22514 0.97095 0.0
N41 N 0.01055 0.20634 0.00651 0.0
C42 C 0.0455 0.26316 0.97212 0.0
C43 C 0.01308 0.28201 0.01041 0.0
C44 C 0.97966 0.26269 0.04709 0.0
C45 C 0.97908 0.22467 0.04472 0.0
C46 C 0.85651 0.17325 0.96 0.0
C47 C 0.90898 0.12898 0.03863 0.0
C48 C 0.91023 0.17401 0.96356 0.0
N49 N 0.93582 0.15228 1.00296 0.0
C50 C 0.85524 0.12745 0.03632 0.0
C51 C 0.82891 0.14983 0.99677 0.0
C52 C 0.0406 0.07534 0.0313 0.0
C53 C 0.21792 0.11934 0.91128 0.0
C54 C 0.177 0.07188 0.99404 0.0
C55 C 0.20515 0.05805 0.94652 0.0
C56 C 0.22561 0.082 0.90484 0.0
N57 N 0.16923 0.10857 0.99986 0.0
C58 C 0.18955 0.13217 0.95937 0.0
Co59 Co 1.00237 0.84328 0.00396 0.0
Co60 Co 0.88083 0.87635 0.03997 0.0
O61 O 0.92753 0.84513 0.99527 0.0
C62 C 0.98581 0.86228 0.87832 0.0
O63 O 0.94953 0.88459 0.89559 0.0
C64 C 0.84018 0.80182 0.06625 0.0
O65 O 0.88657 0.79167 0.08222 0.0
O66 O 0.91546 0.86288 0.11651 0.0
O67 O 0.99545 0.84361 0.0922 0.0
H68 H 0.82918 0.97848 0.17749 0.0
H69 H 0.94589 0.78903 0.93175 0.0
O70 O 0.01042 0.84302 0.91562 0.0
H71 H 0.04152 0.71729 0.0798 0.0
H72 H 0.18007 0.80194 0.94505 0.0
H73 H 0.0801 0.87473 0.08696 0.0
H74 H 0.04872 0.7843 0.0774 0.0
H75 H 0.08552 0.80487 0.9379 0.0
O76 O 0.8317 0.83413 0.0481 0.0
H77 H 0.88976 0.94149 0.12043 0.0
H78 H 0.76618 0.87983 0.04899 0.0
H79 H 0.1744 0.87252 0.09593 0.0
H80 H 0.93743 0.72209 0.9325 0.0
H81 H 0.22525 0.83593 0.02451 0.0
H82 H 0.98546 0.68574 0.00702 0.0
O83 O 0.00748 0.8978 0.00376 0.0
H84 H 0.80424 0.85255 0.83958 0.0
H85 H 0.84762 0.94677 0.98651 0.0
H86 H 0.80769 0.96489 0.89211 0.0
H87 H 0.7857 0.91761 0.81781 0.0
H88 H 0.84448 0.83581 0.93444 0.0
H89 H 0.70411 0.91641 0.1052 0.0
H90 H 0.73533 0.96608 0.17043 0.0
O91 O 0.92921 0.91863 0.03122 0.0
C92 C 0.96068 0.85146 0.13013 0.0
C93 C 0.81511 0.95643 0.15014 0.0
C94 C 0.74498 0.92164 0.10959 0.0
N95 N 0.83242 0.90687 0.08364 0.0
C96 C 0.84957 0.93489 0.1182 0.0
C97 C 0.7806 0.90065 0.07833 0.0
C98 C 0.76248 0.94955 0.14603 0.0
C99 C 0.96705 0.77339 0.96408 0.0
N100 N 0.99778 0.79053 0.0044 0.0
C101 C 0.96207 0.7355 0.96438 0.0
C102 C 0.98899 0.71513 0.00622 0.0
C103 C 0.02046 0.7328 0.04705 0.0
C104 C 0.0244 0.77074 0.04546 0.0
C105 C 0.1584 0.81824 0.97616 0.0
C106 C 0.10165 0.85915 0.05537 0.0
C107 C 0.10477 0.82025 0.97209 0.0
N108 N 0.07701 0.8407 0.01126 0.0
C109 C 0.15522 0.85781 0.06081 0.0
C110 C 0.18372 0.83726 0.02078 0.0
C111 C 0.97619 0.92355 0.0164 0.0
C112 C 0.81333 0.8734 0.87171 0.0
C113 C 0.83787 0.92599 0.95461 0.0
C114 C 0.81534 0.93644 0.90116 0.0
C115 C 0.80303 0.9099 0.85949 0.0
N116 N 0.84784 0.89013 0.96629 0.0
C117 C 0.83584 0.86399 0.92567 0.0
Co118 Co 0.00945 0.84949 0.50368 0.0
Co119 Co 0.12758 0.87529 0.44454 0.0
O120 O 0.08511 0.84819 0.50129 0.0
C121 C 0.04461 0.85379 0.63156 0.0
O122 O 0.09311 0.85439 0.61561 0.0
C123 C 0.16487 0.79881 0.43336 0.0
O124 O 0.11689 0.78763 0.43328 0.0
O125 O 0.08506 0.85674 0.37698 0.0
O126 O 0.00571 0.84901 0.41535 0.0
H127 H 0.16098 0.951 0.26272 0.0
H128 H 0.06813 0.79187 0.56796 0.0
O129 O 0.00891 0.85093 0.59304 0.0
H130 H 0.95224 0.72597 0.43277 0.0
H131 H 0.83499 0.81264 0.58099 0.0
H132 H 0.92813 0.89187 0.44128 0.0
H133 H 0.95148 0.79307 0.43645 0.0
H134 H 0.92973 0.81078 0.57502 0.0
O135 O 0.1756 0.83258 0.43703 0.0
H136 H 0.10766 0.91703 0.3339 0.0
H137 H 0.2408 0.88682 0.43092 0.0
H138 H 0.83342 0.89439 0.4451 0.0
H139 H 0.0698 0.72487 0.56619 0.0
H140 H 0.78609 0.85453 0.51544 0.0
H141 H 0.01154 0.69136 0.49818 0.0
O142 O 0.01045 0.90384 0.50284 0.0
H143 H 0.23238 0.86398 0.63082 0.0
H144 H 0.16163 0.94937 0.48338 0.0
H145 H 0.21097 0.9733 0.56777 0.0
H146 H 0.24689 0.93051 0.64224 0.0
H147 H 0.18169 0.84133 0.54649 0.0
H148 H 0.29589 0.91993 0.36017 0.0
H149 H 0.25598 0.95269 0.27565 0.0
O150 O 0.08185 0.91915 0.45193 0.0
C151 C 0.03681 0.8505 0.37178 0.0
C152 C 0.17879 0.93738 0.29994 0.0
C153 C 0.25448 0.91987 0.35453 0.0
N154 N 0.17061 0.90139 0.38823 0.0
C155 C 0.1486 0.91849 0.34091 0.0
C156 C 0.22301 0.90128 0.39462 0.0
C157 C 0.23209 0.93821 0.30709 0.0
C158 C 0.04202 0.77764 0.53903 0.0
N159 N 0.0089 0.79651 0.50346 0.0
C160 C 0.0434 0.73961 0.53789 0.0
C161 C 0.01081 0.72084 0.49962 0.0
C162 C 0.97754 0.74023 0.46293 0.0
C163 C 0.97727 0.77825 0.46527 0.0
C164 C 0.85512 0.83001 0.54992 0.0
C165 C 0.90796 0.87414 0.47129 0.0
C166 C 0.90883 0.82911 0.54637 0.0
N167 N 0.9346 0.85077 0.50697 0.0
C168 C 0.85424 0.87581 0.4736 0.0
C169 C 0.82772 0.85351 0.51314 0.0
C170 C 0.04005 0.92743 0.47865 0.0
C171 C 0.21695 0.88292 0.59867 0.0
C172 C 0.17648 0.93052 0.5159 0.0
C173 C 0.20475 0.94426 0.56343 0.0
C174 C 0.22499 0.92024 0.60512 0.0
N175 N 0.16838 0.89385 0.51008 0.0
C176 C 0.18847 0.87018 0.55057 0.0
Co177 Co 1.0039 0.15965 0.50594 0.0
Co178 Co 0.88213 0.12672 0.47015 0.0
O179 O 0.92904 0.15795 0.51466 0.0
C180 C 0.98722 0.14077 0.63157 0.0
O181 O 0.95074 0.11857 0.61432 0.0
C182 C 0.84189 0.20124 0.44358 0.0
O183 O 0.88834 0.21135 0.42768 0.0
O184 O 0.9168 0.14002 0.39353 0.0
O185 O 0.9969 0.15928 0.41771 0.0
H186 H 0.82983 0.02448 0.33303 0.0
H187 H 0.94779 0.21406 0.57805 0.0
O188 O 0.01199 0.15995 0.59426 0.0
H189 H 0.04389 0.28552 0.42986 0.0
H190 H 0.18192 0.20069 0.56465 0.0
H191 H 0.08135 0.12803 0.4229 0.0
H192 H 0.05062 0.21849 0.43238 0.0
H193 H 0.08736 0.19793 0.57189 0.0
O194 O 0.83324 0.16897 0.46182 0.0
H195 H 0.89066 0.0615 0.38985 0.0
H196 H 0.76745 0.12332 0.46131 0.0
H197 H 0.17566 0.13007 0.41384 0.0
H198 H 0.93981 0.28101 0.57719 0.0
H199 H 0.22681 0.1666 0.48518 0.0
H200 H 0.98808 0.31722 0.5026 0.0
O201 O 0.00867 0.10512 0.50624 0.0
H202 H 0.80584 0.15104 0.67046 0.0
H203 H 0.84854 0.05645 0.524 0.0
H204 H 0.8086 0.03858 0.61855 0.0
H205 H 0.78695 0.08605 0.69261 0.0
H206 H 0.84609 0.16752 0.57546 0.0
H207 H 0.70514 0.08672 0.40532 0.0
H208 H 0.73605 0.03694 0.34022 0.0
O209 O 0.93022 0.08439 0.47904 0.0
C210 C 0.96206 0.15141 0.37984 0.0
C211 C 0.8159 0.04656 0.36033 0.0
C212 C 0.74598 0.08146 0.40089 0.0
N213 N 0.83352 0.09619 0.42665 0.0
C214 C 0.8505 0.06812 0.39214 0.0
C215 C 0.78173 0.10246 0.43201 0.0
C216 C 0.76331 0.05348 0.3645 0.0
C217 C 0.96906 0.22963 0.54569 0.0
N218 N 0.99966 0.21241 0.5054 0.0
C219 C 0.96434 0.26754 0.54533 0.0
C220 C 0.9914 0.28783 0.50345 0.0
C221 C 0.02273 0.27007 0.46264 0.0
C222 C 0.02641 0.23212 0.46429 0.0
C223 C 0.16011 0.18442 0.53358 0.0
C224 C 0.10304 0.14358 0.45446 0.0
C225 C 0.10648 0.18251 0.5377 0.0
N226 N 0.07855 0.16209 0.49857 0.0
C227 C 0.15661 0.14483 0.44896 0.0
C228 C 0.18527 0.16534 0.48895 0.0
C229 C 0.97719 0.0794 0.49375 0.0
C230 C 0.81477 0.13011 0.63843 0.0
C231 C 0.83894 0.0773 0.5558 0.0
C232 C 0.8164 0.067 0.60933 0.0
C233 C 0.80428 0.09365 0.65086 0.0
N234 N 0.8491 0.11313 0.54391 0.0
C235 C 0.83728 0.13937 0.58439 0.0
Co236 Co 0.5075 0.65485 1.00072 0.0
Co237 Co 0.62596 0.62872 0.05854 0.0
O238 O 0.58318 0.65573 1.00215 0.0
C239 C 0.54141 0.64892 0.87272 0.0
O240 O 0.58994 0.64736 0.88833 0.0
C241 C 0.66398 0.7051 0.06944 0.0
O242 O 0.6161 0.71642 0.07057 0.0
O243 O 0.58415 0.64753 0.12648 0.0
O244 O 0.50461 0.65589 0.08902 0.0
H245 H 0.66121 0.55454 0.24163 0.0
H246 H 0.56666 0.71148 0.93471 0.0
O247 O 0.50611 0.65282 0.91143 0.0
H248 H 0.45324 0.77931 0.06996 0.0
H249 H 0.33308 0.69251 0.92466 0.0
H250 H 0.42585 0.61355 0.06484 0.0
H251 H 0.45116 0.71218 0.06755 0.0
H252 H 0.4279 0.69363 0.92953 0.0
O253 O 0.67437 0.67133 0.0652 0.0
H254 H 0.60726 0.58818 0.17088 0.0
H255 H 0.73916 0.61656 0.07013 0.0
H256 H 0.3311 0.61179 0.06213 0.0
H257 H 0.56967 0.77849 0.93525 0.0
H258 H 0.28395 0.65151 0.99156 0.0
H259 H 0.51264 0.81295 1.00326 0.0
O260 O 0.50755 0.60048 1.00269 0.0
H261 H 0.7296 0.63929 0.87126 0.0
H262 H 0.65878 0.55444 0.01963 0.0
H263 H 0.70731 0.53016 0.93495 0.0
H264 H 0.74328 0.57268 0.86003 0.0
H265 H 0.67965 0.66228 0.95586 0.0
H266 H 0.7949 0.58376 0.14041 0.0
H267 H 0.75593 0.55206 0.22662 0.0
O268 O 0.57973 0.58502 0.05197 0.0
C269 C 0.53607 0.65415 0.13222 0.0
C270 C 0.67859 0.56762 0.20363 0.0
C271 C 0.75359 0.5841 0.14692 0.0
N272 N 0.66943 0.60272 0.11453 0.0
C273 C 0.64799 0.58628 0.16283 0.0
C274 C 0.72173 0.60248 0.10706 0.0
C275 C 0.73173 0.56637 0.19531 0.0
C276 C 0.5411 0.72615 0.96369 0.0
N277 N 0.50789 0.70781 0.99995 0.0
C278 C 0.54323 0.76417 0.96411 0.0
C279 C 0.51133 0.78348 1.00237 0.0
C280 C 0.47799 0.76462 0.03978 0.0
C281 C 0.47696 0.72659 0.03816 0.0
C282 C 0.35315 0.67521 0.95584 0.0
C283 C 0.4058 0.63122 0.03472 0.0
C284 C 0.40689 0.67569 0.95878 0.0
N285 N 0.43259 0.65411 0.99831 0.0
C286 C 0.35203 0.62997 0.03305 0.0
C287 C 0.32561 0.65221 0.99338 0.0
C288 C 0.53727 0.57683 0.02645 0.0
C289 C 0.71415 0.62047 0.90361 0.0
C290 C 0.67361 0.57318 0.98689 0.0
C291 C 0.70144 0.55924 0.9392 0.0
C292 C 0.72172 0.5831 0.89727 0.0
N293 N 0.66599 0.60989 0.99263 0.0
C294 C 0.68611 0.6334 0.95188 0.0
Co295 Co 0.49938 0.34485 1.00226 0.0
Co296 Co 0.37881 0.37744 0.04552 0.0
O297 O 0.42395 0.34685 0.99717 0.0
C298 C 0.47324 0.35118 0.87216 0.0
O299 O 0.42396 0.352 0.88437 0.0
C300 C 0.34057 0.30222 0.07118 0.0
O301 O 0.38796 0.29212 0.0828 0.0
O302 O 0.41665 0.36344 0.11939 0.0
O303 O 0.49499 0.34336 0.09064 0.0
H304 H 0.33279 0.47798 0.18865 0.0
H305 H 0.43862 0.29044 0.93261 0.0
O306 O 0.50657 0.34747 0.91323 0.0
H307 H 0.54385 0.21822 0.07083 0.0
H308 H 0.67624 0.30533 0.93648 0.0
H309 H 0.57869 0.37501 0.08452 0.0
H310 H 0.54966 0.28521 0.07013 0.0
H311 H 0.5816 0.30783 0.93232 0.0
O312 O 0.33054 0.33486 0.05581 0.0
H313 H 0.39097 0.44177 0.12717 0.0
H314 H 0.26476 0.38045 0.06128 0.0
H315 H 0.67316 0.37321 0.09067 0.0
H316 H 0.43167 0.22368 0.93175 0.0
H317 H 0.72281 0.33818 0.01614 0.0
H318 H 0.48456 0.18695 1.0012 0.0
O319 O 0.50414 0.39919 0.00434 0.0
H320 H 0.28398 0.35568 0.85469 0.0
H321 H 0.34734 0.44868 0.99386 0.0
H322 H 0.30196 0.46796 0.90349 0.0
H323 H 0.26988 0.42131 0.83307 0.0
H324 H 0.33059 0.33777 0.94501 0.0
H325 H 0.20503 0.41627 0.12195 0.0
H326 H 0.23882 0.46537 0.18666 0.0
O327 O 0.42668 0.41985 0.03502 0.0
C328 C 0.46198 0.35138 0.13041 0.0
C329 C 0.31765 0.45619 0.16152 0.0
C330 C 0.24601 0.42159 0.1241 0.0
N331 N 0.33227 0.40738 0.09275 0.0
C332 C 0.35078 0.43509 0.12703 0.0
C333 C 0.28032 0.40104 0.09027 0.0
C334 C 0.26495 0.44918 0.16027 0.0
C335 C 0.46228 0.27489 0.96246 0.0
N336 N 0.49525 0.29193 1.00054 0.0
C337 C 0.45797 0.23695 0.96198 0.0
C338 C 0.48758 0.21637 1.00101 0.0
C339 C 0.52087 0.23389 0.04003 0.0
C340 C 0.5241 0.27187 0.03927 0.0
C341 C 0.65511 0.32101 0.96888 0.0
C342 C 0.5997 0.36023 0.05148 0.0
C343 C 0.6014 0.32282 0.96641 0.0
N344 N 0.57427 0.34249 0.00718 0.0
C345 C 0.65338 0.35906 0.05538 0.0
C346 C 0.68121 0.33938 0.01362 0.0
C347 C 0.47328 0.4248 0.01866 0.0
C348 C 0.29777 0.37629 0.88499 0.0
C349 C 0.33389 0.42817 0.96331 0.0
C350 C 0.30799 0.43928 0.91228 0.0
C351 C 0.28994 0.4131 0.87285 0.0
N352 N 0.34204 0.39202 0.97456 0.0
C353 C 0.32391 0.36623 0.93644 0.0
Co354 Co 0.50858 0.34966 0.50145 0.0
Co355 Co 0.62868 0.37433 0.4483 0.0
O356 O 0.58398 0.34729 0.50265 0.0
C357 C 0.53624 0.36245 0.62725 0.0
O358 O 0.57716 0.38059 0.61022 0.0
C359 C 0.6659 0.29775 0.43838 0.0
O360 O 0.61795 0.28662 0.43553 0.0
O361 O 0.58854 0.35596 0.37862 0.0
O362 O 0.50753 0.35114 0.41334 0.0
H363 H 0.67035 0.44925 0.26782 0.0
H364 H 0.56 0.2911 0.56965 0.0
O365 O 0.5061 0.34797 0.5898 0.0
H366 H 0.45439 0.22765 0.42068 0.0
H367 H 0.33111 0.31313 0.56942 0.0
H368 H 0.43027 0.39468 0.43895 0.0
H369 H 0.4543 0.29474 0.42647 0.0
H370 H 0.42595 0.31025 0.56715 0.0
O371 O 0.67657 0.33146 0.44331 0.0
H372 H 0.6138 0.4158 0.33627 0.0
H373 H 0.74239 0.38537 0.44086 0.0
H374 H 0.33557 0.3983 0.43925 0.0
H375 H 0.56075 0.22396 0.56589 0.0
H376 H 0.28522 0.35727 0.50491 0.0
H377 H 0.50779 0.19179 0.49084 0.0
O378 O 0.51107 0.40423 0.50367 0.0
H379 H 0.72202 0.36224 0.6421 0.0
H380 H 0.6638 0.44795 0.48798 0.0
H381 H 0.70992 0.47144 0.57517 0.0
H382 H 0.73959 0.42846 0.65292 0.0
H383 H 0.67483 0.34011 0.55473 0.0
H384 H 0.80071 0.41792 0.37291 0.0
H385 H 0.76472 0.45054 0.28596 0.0
O386 O 0.58314 0.41856 0.45323 0.0
C387 C 0.5401 0.35144 0.37122 0.0
C388 C 0.68645 0.43572 0.30615 0.0
C389 C 0.75958 0.41806 0.36502 0.0
N390 N 0.6742 0.40018 0.39429 0.0
C391 C 0.65438 0.41716 0.34561 0.0
C392 C 0.72629 0.3998 0.40351 0.0
C393 C 0.73939 0.43632 0.31622 0.0
C394 C 0.53635 0.27729 0.53738 0.0
N395 N 0.50689 0.29683 0.49862 0.0
C396 C 0.53714 0.23927 0.53525 0.0
C397 C 0.5075 0.22125 0.49305 0.0
C398 C 0.47756 0.24135 0.45364 0.0
C399 C 0.47777 0.27935 0.45703 0.0
C400 C 0.35258 0.33099 0.54032 0.0
C401 C 0.40878 0.37641 0.46687 0.0
C402 C 0.40633 0.32948 0.53878 0.0
N403 N 0.43377 0.35178 0.50188 0.0
C404 C 0.35508 0.37873 0.46721 0.0
C405 C 0.32686 0.35576 0.50413 0.0
C406 C 0.54113 0.42746 0.47907 0.0
C407 C 0.70952 0.38124 0.6084 0.0
C408 C 0.67622 0.42906 0.52177 0.0
C409 C 0.70254 0.44252 0.57095 0.0
C410 C 0.71924 0.41839 0.61451 0.0
N411 N 0.66684 0.39255 0.51604 0.0
C412 C 0.68311 0.36877 0.5586 0.0
Co413 Co 0.50074 0.65951 0.50078 0.0
Co414 Co 0.37967 0.62635 0.46255 0.0
O415 O 0.42581 0.65744 0.50841 0.0
C416 C 0.48279 0.6401 0.626 0.0
O417 O 0.44661 0.61786 0.60807 0.0
C418 C 0.33967 0.70106 0.43705 0.0
O419 O 0.38639 0.71126 0.42235 0.0
O420 O 0.41513 0.6403 0.38682 0.0
O421 O 0.49483 0.65958 0.41245 0.0
H422 H 0.32993 0.52521 0.32213 0.0
H423 H 0.44328 0.71336 0.57253 0.0
O424 O 0.50786 0.65946 0.5892 0.0
H425 H 0.54087 0.7859 0.42703 0.0
H426 H 0.67787 0.70096 0.56218 0.0
H427 H 0.57917 0.62803 0.41903 0.0
H428 H 0.54804 0.71889 0.42879 0.0
H429 H 0.58324 0.69797 0.56808 0.0
O430 O 0.33067 0.6686 0.45421 0.0
H431 H 0.38972 0.56193 0.38091 0.0
H432 H 0.26514 0.62266 0.45168 0.0
H433 H 0.6736 0.63032 0.41129 0.0
H434 H 0.43482 0.78029 0.57241 0.0
H435 H 0.72378 0.66699 0.48333 0.0
H436 H 0.48383 0.81704 0.49917 0.0
O437 O 0.50584 0.60502 0.50053 0.0
H438 H 0.30055 0.64889 0.662 0.0
H439 H 0.34552 0.55562 0.51424 0.0
H440 H 0.30419 0.5369 0.60756 0.0
H441 H 0.2814 0.58371 0.68228 0.0
H442 H 0.34217 0.66622 0.56818 0.0
H443 H 0.20384 0.58634 0.39373 0.0
H444 H 0.23597 0.53727 0.32798 0.0
O445 O 0.42798 0.58405 0.47153 0.0
C446 C 0.46043 0.65193 0.37398 0.0
C447 C 0.31547 0.54698 0.34975 0.0
C448 C 0.24477 0.58125 0.38992 0.0
N449 N 0.33183 0.59602 0.4176 0.0
C450 C 0.34948 0.56835 0.3827 0.0
C451 C 0.27994 0.60209 0.42218 0.0
C452 C 0.26278 0.55367 0.35317 0.0
C453 C 0.46488 0.72918 0.54079 0.0
N454 N 0.49615 0.71226 0.50082 0.0
C455 C 0.45989 0.76706 0.54083 0.0
C456 C 0.48736 0.78766 0.4997 0.0
C457 C 0.51938 0.77021 0.45923 0.0
C458 C 0.52331 0.73227 0.46046 0.0
C459 C 0.65649 0.68467 0.53077 0.0
C460 C 0.60047 0.6437 0.45082 0.0
C461 C 0.60282 0.68264 0.53412 0.0
N462 N 0.57543 0.66219 0.49454 0.0
C463 C 0.65409 0.64506 0.4461 0.0
C464 C 0.68222 0.66565 0.48649 0.0
C465 C 0.47482 0.57921 0.48707 0.0
C466 C 0.30999 0.62825 0.62968 0.0
C467 C 0.33543 0.57619 0.54632 0.0
C468 C 0.3121 0.56541 0.59916 0.0
C469 C 0.29935 0.59168 0.64106 0.0
N470 N 0.34574 0.61212 0.53546 0.0
C471 C 0.3333 0.63799 0.57631 0.0
C472 C 0.98556 0.98605 0.97078 0.0
C473 C 0.99604 0.96155 0.01778 0.0
C474 C 0.03193 0.01183 0.07565 0.0
C475 C 0.0261 0.03588 0.02657 0.0
N476 N 0.01137 0.04148 0.92125 0.0
N477 N 0.04017 0.94975 0.10955 0.0
C478 C 0.0068 0.02178 0.97229 0.0
C479 C 0.02307 0.97398 0.06821 0.0
N480 N 0.95501 0.9755 0.92482 0.0
N481 N 0.04246 0.02506 0.13063 0.0
H482 H 0.03223 0.92205 0.10724 0.0
H483 H 0.06542 0.95682 0.14348 0.0
H484 H 0.04623 0.05257 0.13937 0.0
H485 H 0.04139 0.00913 0.16878 0.0
H486 H 0.94161 0.99356 0.89273 0.0
H487 H 0.93947 0.94946 0.92167 0.0
H488 H 1.00228 0.03095 0.87979 0.0
H489 H 0.03005 0.06656 0.91915 0.0
C490 C 0.0069 0.98108 0.5378 0.0
C491 C 0.02595 0.96693 0.48345 0.0
C492 C 0.02355 0.02885 0.44189 0.0
C493 C 0.99676 0.04137 0.4924 0.0
N494 N 0.95575 0.02756 0.58544 0.0
N495 N 0.04227 0.97772 0.37938 0.0
C496 C 0.9861 0.0169 0.53939 0.0
C497 C 0.03197 0.99097 0.43439 0.0
N498 N 0.01132 0.96133 0.5888 0.0
N499 N 0.04082 0.05303 0.40052 0.0
H500 H 0.04572 0.95019 0.37061 0.0
H501 H 0.04132 0.99366 0.34124 0.0
H502 H 0.03317 0.08076 0.40285 0.0
H503 H 0.06593 0.04588 0.36651 0.0
H504 H 1.00245 0.97188 0.6303 0.0
H505 H 0.02969 0.93616 0.59081 0.0
H506 H 0.9422 0.00954 0.61755 0.0
H507 H 0.94054 0.05367 0.58867 0.0
C508 C 0.50077 0.52268 0.9705 0.0
C509 C 0.52223 0.53738 0.02337 0.0
C510 C 0.522 0.47586 0.06641 0.0
C511 C 0.49286 0.46283 0.01805 0.0
N512 N 0.44885 0.47502 0.92645 0.0
N513 N 0.54237 0.52751 0.12686 0.0
C514 C 0.48027 0.48668 0.97094 0.0
C515 C 0.53026 0.5138 0.07264 0.0
N516 N 0.50279 0.54196 0.91884 0.0
N517 N 0.54194 0.45211 0.10678 0.0
H518 H 0.54533 0.55513 0.13504 0.0
H519 H 0.54313 0.51178 0.16525 0.0
H520 H 0.53533 0.42424 0.10478 0.0
H521 H 0.56844 0.4598 0.13907 0.0
H522 H 0.492 0.53106 0.87819 0.0
H523 H 0.52095 0.56715 0.91505 0.0
H524 H 0.43372 0.49242 0.89441 0.0
H525 H 0.43487 0.44844 0.92433 0.0
C526 C 0.53323 0.4906 0.43186 0.0
C527 C 0.52711 0.4672 0.48183 0.0
C528 C 0.48443 0.51733 0.53452 0.0
C529 C 0.49475 0.54124 0.48676 0.0
N530 N 0.54044 0.55237 0.39578 0.0
N531 N 0.51337 0.46411 0.58735 0.0
C532 C 0.52307 0.52845 0.43751 0.0
C533 C 0.50723 0.48217 0.53511 0.0
N534 N 0.54567 0.4768 0.37782 0.0
N535 N 0.45276 0.52789 0.57943 0.0
H536 H 0.53449 0.44016 0.59064 0.0
H537 H 0.5036 0.47534 0.62811 0.0
H538 H 0.43567 0.55347 0.58085 0.0
H539 H 0.43995 0.51003 0.61217 0.0
H540 H 0.5446 0.4921 0.33899 0.0
H541 H 0.55152 0.44936 0.37036 0.0
H542 H 0.56643 0.5452 0.36269 0.0
H543 H 0.53218 0.58005 0.39721 0.0
C544 C 0.0213 0.18493 0.23472 0.0
C545 C 0.01544 0.15364 0.19858 0.0
C546 C 0.97479 0.12115 0.28092 0.0
C547 C 0.97705 0.15307 0.31611 0.0
N548 N 0.99154 0.21782 0.32117 0.0
N549 N 0.97412 0.09538 0.18317 0.0
C550 C 0.99736 0.18574 0.29151 0.0
C551 C 0.9879 0.123 0.22027 0.0
N552 N 0.04951 0.21387 0.21485 0.0
N553 N 0.96388 0.08826 0.30613 0.0
H554 H 0.98457 0.09474 0.1389 0.0
H555 H 0.94878 0.07462 0.1953 0.0
H556 H 0.95785 0.08535 0.35116 0.0
H557 H 0.96723 0.06352 0.28394 0.0
H558 H 0.06012 0.23571 0.24156 0.0
H559 H 0.06501 0.21492 0.17243 0.0
H560 H 1.00149 0.2431 0.30358 0.0
H561 H 0.9716 0.21948 0.36102 0.0
C562 C 0.01985 0.81786 0.2752 0.0
C563 C 0.0142 0.84915 0.31135 0.0
C564 C 0.97369 0.88171 0.22903 0.0
C565 C 0.97573 0.84978 0.19385 0.0
N566 N 0.98986 0.78501 0.18876 0.0
N567 N 0.97329 0.90749 0.32676 0.0
C568 C 0.99588 0.81708 0.21843 0.0
C569 C 0.98685 0.87984 0.28967 0.0
N570 N 0.04791 0.78888 0.29506 0.0
N571 N 0.96296 0.9146 0.20381 0.0
H572 H 0.98381 0.90814 0.37101 0.0
H573 H 0.94808 0.9283 0.31465 0.0
H574 H 0.95691 0.91752 0.15879 0.0
H575 H 0.96648 0.93935 0.22598 0.0
H576 H 0.05837 0.76702 0.26834 0.0
H577 H 0.06344 0.78781 0.33747 0.0
H578 H 0.99968 0.75971 0.20634 0.0
H579 H 0.96989 0.78338 0.14892 0.0
C580 C 0.99572 0.82978 0.71973 0.0
C581 C 0.03069 0.85568 0.69541 0.0
C582 C 0.03897 0.88435 0.79311 0.0
C583 C 1.00023 0.86074 0.81522 0.0
N584 N 0.93455 0.81569 0.79743 0.0
N585 N 0.0789 0.91172 0.70714 0.0
C586 C 0.97632 0.83494 0.77781 0.0
C587 C 0.05075 0.88404 0.73165 0.0
N588 N 0.98325 0.79908 0.68878 0.0
N589 N 0.06496 0.90681 0.83099 0.0
H590 H 0.0882 0.91306 0.66244 0.0
H591 H 0.08928 0.93517 0.73009 0.0
H592 H 0.05609 0.90879 0.87585 0.0
H593 H 0.09769 0.92148 0.81892 0.0
H594 H 0.962 0.77762 0.70662 0.0
H595 H 0.99887 0.79309 0.64761 0.0
H596 H 0.91211 0.79934 0.77 0.0
H597 H 0.91941 0.81872 0.83984 0.0
C598 C 0.05181 0.1188 0.77831 0.0
C599 C 0.03195 0.14719 0.81455 0.0
C600 C 0.97788 0.16813 0.73209 0.0
C601 C 1.00162 0.14229 0.69468 0.0
N602 N 0.06599 0.09605 0.67897 0.0
N603 N 0.98498 0.20392 0.82118 0.0
C604 C 0.04013 0.11856 0.71683 0.0
C605 C 0.99724 0.1732 0.79021 0.0
N606 N 0.07966 0.09101 0.80285 0.0
N607 N 0.9363 0.1875 0.71242 0.0
H608 H 1.00059 0.20984 0.8624 0.0
H609 H 0.96395 0.22544 0.80333 0.0
H610 H 0.92118 0.18454 0.66998 0.0
H611 H 0.91396 0.2039 0.73983 0.0
H612 H 0.08988 0.06755 0.77987 0.0
H613 H 0.08885 0.08961 0.84757 0.0
H614 H 0.09857 0.08129 0.69109 0.0
H615 H 0.05718 0.09413 0.63408 0.0
C616 C 0.51985 0.68629 0.22938 0.0
C617 C 0.51392 0.65519 0.19284 0.0
C618 C 0.474 0.62214 0.27501 0.0
C619 C 0.47598 0.65392 0.3105 0.0
N620 N 0.49013 0.71869 0.31635 0.0
N621 N 0.47265 0.59693 0.177 0.0
C622 C 0.49607 0.68676 0.28628 0.0
C623 C 0.48667 0.62436 0.21433 0.0
N624 N 0.54793 0.71536 0.20978 0.0
N625 N 0.46374 0.58907 0.29994 0.0
H626 H 0.48279 0.59652 0.13264 0.0
H627 H 0.44749 0.57607 0.18915 0.0
H628 H 0.45811 0.5859 0.345 0.0
H629 H 0.46729 0.56446 0.27738 0.0
H630 H 0.55849 0.7371 0.23673 0.0
H631 H 0.5634 0.7166 0.16734 0.0
H632 H 0.49995 0.74407 0.29904 0.0
H633 H 0.47024 0.7201 0.35625 0.0
C634 C 0.49133 0.38076 0.28823 0.0
C635 C 0.51912 0.3503 0.31008 0.0
C636 C 0.50087 0.31775 0.21752 0.0
C637 C 0.47962 0.35013 0.19314 0.0
N638 N 0.46748 0.41508 0.20206 0.0
N639 N 0.5541 0.29034 0.29383 0.0
C640 C 0.47804 0.38228 0.22774 0.0
C641 C 0.52533 0.31898 0.27403 0.0
N642 N 0.47727 0.40846 0.32497 0.0
N643 N 0.49541 0.28554 0.18805 0.0
H644 H 0.57014 0.2896 0.336 0.0
H645 H 0.56477 0.26849 0.26721 0.0
H646 H 0.47531 0.28356 0.14833 0.0
H647 H 0.50601 0.26041 0.20565 0.0
H648 H 0.45169 0.42897 0.3125 0.0
H649 H 0.48764 0.40948 0.36923 0.0
H650 H 0.47122 0.43992 0.22392 0.0
H651 H 0.46154 0.41778 0.15697 0.0
C652 C 0.47 0.38262 0.77319 0.0
C653 C 0.49033 0.35446 0.80957 0.0
C654 C 0.54679 0.33539 0.7282 0.0
C655 C 0.52214 0.36076 0.69043 0.0
N656 N 0.45287 0.40346 0.6737 0.0
N657 N 0.5388 0.2984 0.81627 0.0
C658 C 0.48143 0.38281 0.71188 0.0
C659 C 0.52655 0.32938 0.78581 0.0
N660 N 0.44161 0.41017 0.79735 0.0
N661 N 0.58901 0.31666 0.70887 0.0
H662 H 0.52162 0.29145 0.85633 0.0
H663 H 0.56132 0.27759 0.79873 0.0
H664 H 0.60386 0.3195 0.66626 0.0
H665 H 0.61167 0.30062 0.7366 0.0
H666 H 0.43071 0.43336 0.77385 0.0
H667 H 0.43338 0.41184 0.84223 0.0
H668 H 0.41921 0.41685 0.68617 0.0
H669 H 0.46005 0.40467 0.62843 0.0
C670 C 0.5458 0.61762 0.77343 0.0
C671 C 0.52705 0.6467 0.80905 0.0
C672 C 0.4736 0.66784 0.72621 0.0
C673 C 0.49663 0.64143 0.68927 0.0
N674 N 0.55924 0.59388 0.67458 0.0
N675 N 0.48174 0.70415 0.8146 0.0
C676 C 0.53418 0.61714 0.71195 0.0
C677 C 0.49311 0.67304 0.78423 0.0
N678 N 0.57253 0.5895 0.79859 0.0
N679 N 0.4325 0.68759 0.70622 0.0
H680 H 0.49743 0.71013 0.85575 0.0
H681 H 0.46137 0.72585 0.7963 0.0
H682 H 0.4171 0.68434 0.66397 0.0
H683 H 0.41067 0.70453 0.73331 0.0
H684 H 0.5819 0.56568 0.77609 0.0
H685 H 0.58149 0.58822 0.84339 0.0
H686 H 0.59125 0.5786 0.68706 0.0
H687 H 0.5504 0.59178 0.62972 0.0
C688 C 0.27721 0.26149 0.02046 0.0
C689 C 0.29786 0.27534 0.07384 0.0
C690 C 0.23301 0.24096 0.13017 0.0
C691 C 0.20936 0.23034 0.07631 0.0
N692 N 0.20242 0.23681 0.9706 0.0
N693 N 0.2929 0.28176 0.17963 0.0
C694 C 0.22951 0.24253 0.02153 0.0
C695 C 0.27511 0.266 0.12888 0.0
N696 N 0.30438 0.26503 0.96908 0.0
N697 N 0.21569 0.22669 0.18236 0.0
H698 H 0.32447 0.29939 0.18035 0.0
H699 H 0.27453 0.27926 0.22033 0.0
H700 H 0.18377 0.20943 0.18497 0.0
H701 H 0.23468 0.2301 0.2225 0.0
H702 H 0.29348 0.25265 0.92962 0.0
H703 H 0.34089 0.27691 0.9676 0.0
H704 H 0.21293 0.24808 0.93007 0.0
H705 H 0.16658 0.22395 0.97004 0.0
C706 C 0.72831 0.74331 0.01516 0.0
C707 C 0.70707 0.73166 0.06969 0.0
C708 C 0.77267 0.76698 0.12306 0.0
C709 C 0.79666 0.77558 0.06838 0.0
N710 N 0.80453 0.7646 0.96393 0.0
N711 N 0.71146 0.72875 0.17592 0.0
C712 C 0.77648 0.76169 0.01479 0.0
C713 C 0.72998 0.74244 0.12387 0.0
N714 N 0.70182 0.73765 0.96382 0.0
N715 N 0.78974 0.78305 0.17388 0.0
H716 H 0.67909 0.7119 0.17815 0.0
H717 H 0.72985 0.73225 0.21641 0.0
H718 H 0.82155 0.80045 0.17502 0.0
H719 H 0.7705 0.78111 0.21412 0.0
H720 H 0.71325 0.74848 0.9233 0.0
H721 H 0.66556 0.72537 0.96284 0.0
H722 H 0.79388 0.7522 0.9244 0.0
H723 H 0.84145 0.77583 0.96313 0.0
C724 C 0.23098 0.76157 0.37913 0.0
C725 C 0.20768 0.7721 0.43321 0.0
C726 C 0.27602 0.74117 0.48845 0.0
C727 C 0.29647 0.7275 0.43487 0.0
N728 N 0.29062 0.72094 0.32913 0.0
N729 N 0.2014 0.76552 0.53894 0.0
C730 C 0.27323 0.73671 0.38004 0.0
C731 C 0.22819 0.75992 0.4878 0.0
N732 N 0.21322 0.77576 0.3271 0.0
N733 N 0.30355 0.73775 0.5396 0.0
H734 H 0.1655 0.77825 0.53978 0.0
H735 H 0.21221 0.7543 0.57939 0.0
H736 H 0.34028 0.72628 0.54064 0.0
H737 H 0.29276 0.74997 0.57922 0.0
H738 H 0.23197 0.77244 0.2868 0.0
H739 H 0.18115 0.79284 0.32477 0.0
H740 H 0.27188 0.72335 0.28864 0.0
H741 H 0.32215 0.70333 0.32809 0.0
C742 C 0.72958 0.25954 0.49337 0.0
C743 C 0.70874 0.27108 0.43861 0.0
C744 C 0.77475 0.23584 0.38599 0.0
C745 C 0.7984 0.22741 0.44093 0.0
N746 N 0.80548 0.23854 0.54542 0.0
N747 N 0.7139 0.27387 0.33241 0.0
C748 C 0.7778 0.24131 0.49428 0.0
C749 C 0.73204 0.26027 0.38469 0.0
N750 N 0.70261 0.26511 0.5444 0.0
N751 N 0.79218 0.21971 0.33541 0.0
H752 H 0.68155 0.29066 0.3298 0.0
H753 H 0.73261 0.27035 0.29212 0.0
H754 H 0.82403 0.20238 0.33461 0.0
H755 H 0.77317 0.22152 0.29499 0.0
H756 H 0.71382 0.25444 0.5851 0.0
H757 H 0.66614 0.27704 0.54485 0.0
H758 H 0.79448 0.25094 0.58481 0.0
H759 H 0.84244 0.22744 0.5466 0.0
loop_
_geom_bond_atom_site_label_1
_geom_bond_atom_site_label_2
_geom_bond_distance
_geom_bond_site_symmetry_2
_ccdc_geom_bond_type
Co0 O2 2.142 1_654 S
Co0 O8 2.085 . S
Co0 O11 2.081 1_554 S
Co0 O24 2.097 1_554 S
Co0 N41 2.151 . S
Co0 N49 2.215 . S
Co1 O2 2.160 1_554 S
Co1 O7 2.058 . S
Co1 O17 2.057 . S
Co1 O32 2.037 . S
Co1 N36 2.145 . S
Co1 N57 2.257 1_554 S
O2 Co0 2.142 1_456 S
O2 Co1 2.160 1_556 S
C3 O4 1.278 . S
C3 O11 1.224 1_455 S
O4 C3 1.278 . S
C5 O6 1.245 . S
C5 O17 1.232 . S
O6 C5 1.245 . S
O7 Co1 2.058 . S
O7 C33 1.269 . S
O8 Co0 2.085 . S
O8 C33 1.257 1_655 S
H9 C34 0.930 . S
H10 C40 0.930 . S
O11 Co0 2.081 1_556 S
O11 C3 1.224 1_655 S
H12 C44 0.929 . S
H13 C46 0.930 . S
H14 C47 0.930 . S
H15 C45 0.929 . S
H16 C48 0.928 . S
O17 Co1 2.057 . S
O17 C5 1.232 . S
H18 C37 0.929 . S
H19 C38 0.929 . S
H20 C50 0.931 . S
H21 C42 0.929 . S
H22 C51 0.930 . S
H23 C43 0.931 . S
O24 Co0 2.097 1_556 S
O24 C52 1.214 1_656 S
H25 C53 0.929 . S
H26 C54 0.929 1_554 S
H27 C55 0.930 . S
H28 C56 0.929 . S
H29 C58 0.930 . S
H30 C35 0.930 . S
H31 C39 0.930 . S
O32 Co1 2.037 . S
O32 C52 1.234 . S
C33 O7 1.269 . S
C33 O8 1.257 1_455 S
C34 H9 0.930 . S
C34 C37 1.388 . S
C34 C39 1.418 . S
C35 H30 0.930 . S
C35 C38 1.404 . S
C35 C39 1.353 . S
N36 Co1 2.145 . S
N36 C37 1.397 . S
N36 C38 1.334 . S
C37 H18 0.929 . S
C37 C34 1.388 . S
C37 N36 1.397 . S
C38 H19 0.929 . S
C38 C35 1.404 . S
C38 N36 1.334 . S
C39 H31 0.930 . S
C39 C34 1.418 . S
C39 C35 1.353 . S
C40 H10 0.930 . S
C40 N41 1.330 1_556 S
C40 C42 1.446 . S
N41 Co0 2.151 . S
N41 C40 1.330 1_554 S
N41 C45 1.418 . S
C42 H21 0.929 . S
C42 C40 1.446 . S
C42 C43 1.332 1_556 S
C43 H23 0.931 . S
C43 C42 1.332 1_554 S
C43 C44 1.267 . S
C44 H12 0.929 . S
C44 C43 1.267 . S
C44 C45 1.251 . S
C45 H15 0.929 . S
C45 N41 1.418 . S
C45 C44 1.251 . S
C46 H13 0.930 . S
C46 C48 1.406 . S
C46 C51 1.261 1_556 S
C47 H14 0.930 . S
C47 N49 1.325 . S
C47 C50 1.357 . S
C48 H16 0.928 . S
C48 C46 1.406 . S
C48 N49 1.261 1_556 S
N49 Co0 2.215 . S
N49 C47 1.325 . S
N49 C48 1.261 1_554 S
C50 H20 0.931 . S
C50 C47 1.357 . S
C50 C51 1.312 . S
C51 H22 0.930 . S
C51 C46 1.261 1_554 S
C51 C50 1.312 . S
C52 O24 1.214 1_454 S
C52 O32 1.234 . S
C53 H25 0.929 . S
C53 C56 1.391 . S
C53 C58 1.391 . S
C54 H26 0.929 1_556 S
C54 C55 1.390 . S
C54 N57 1.391 . S
C55 H27 0.930 . S
C55 C54 1.390 . S
C55 C56 1.392 . S
C56 H28 0.929 . S
C56 C53 1.391 . S
C56 C55 1.392 . S
N57 Co1 2.257 1_556 S
N57 C54 1.391 . S
N57 C58 1.388 . S
C58 H29 0.930 . S
C58 C53 1.391 . S
C58 N57 1.388 . S
Co59 O61 2.142 1_454 S
Co59 O67 2.085 . S
Co59 O70 2.081 1_554 S
Co59 O83 2.097 1_554 S
Co59 N100 2.151 . S
Co59 N108 2.215 . S
Co60 O61 2.160 1_554 S
Co60 O66 2.058 . S
Co60 O76 2.057 . S
Co60 O91 2.037 . S
Co60 N95 2.145 . S
Co60 N116 2.257 1_554 S
O61 Co59 2.142 1_656 S
O61 Co60 2.160 1_556 S
C62 O63 1.278 . S
C62 O70 1.224 1_655 S
O63 C62 1.278 . S
C64 O65 1.245 . S
C64 O76 1.232 . S
O65 C64 1.245 . S
O66 Co60 2.058 . S
O66 C92 1.269 . S
O67 Co59 2.085 . S
O67 C92 1.257 1_455 S
H68 C93 0.930 . S
H69 C99 0.930 . S
O70 Co59 2.081 1_556 S
O70 C62 1.224 1_455 S
H71 C103 0.929 . S
H72 C105 0.930 . S
H73 C106 0.930 . S
H74 C104 0.929 . S
H75 C107 0.928 . S
O76 Co60 2.057 . S
O76 C64 1.232 . S
H77 C96 0.929 . S
H78 C97 0.929 . S
H79 C109 0.931 . S
H80 C101 0.929 . S
H81 C110 0.930 . S
H82 C102 0.931 . S
O83 Co59 2.097 1_556 S
O83 C111 1.214 1_456 S
H84 C112 0.929 . S
H85 C113 0.929 1_554 S
H86 C114 0.930 . S
H87 C115 0.929 . S
H88 C117 0.930 . S
H89 C94 0.930 . S
H90 C98 0.930 . S
O91 Co60 2.037 . S
O91 C111 1.234 . S
C92 O66 1.269 . S
C92 O67 1.257 1_655 S
C93 H68 0.930 . S
C93 C96 1.388 . S
C93 C98 1.418 . S
C94 H89 0.930 . S
C94 C97 1.404 . S
C94 C98 1.353 . S
N95 Co60 2.145 . S
N95 C96 1.397 . S
N95 C97 1.334 . S
C96 H77 0.929 . S
C96 C93 1.388 . S
C96 N95 1.397 . S
C97 H78 0.929 . S
C97 C94 1.404 . S
C97 N95 1.334 . S
C98 H90 0.930 . S
C98 C93 1.418 . S
C98 C94 1.353 . S
C99 H69 0.930 . S
C99 N100 1.330 1_556 S
C99 C101 1.446 . S
N100 Co59 2.151 . S
N100 C99 1.330 1_554 S
N100 C104 1.418 . S
C101 H80 0.929 . S
C101 C99 1.446 . S
C101 C102 1.332 1_556 S
C102 H82 0.931 . S
C102 C101 1.332 1_554 S
C102 C103 1.267 . S
C103 H71 0.929 . S
C103 C102 1.267 . S
C103 C104 1.251 . S
C104 H74 0.929 . S
C104 N100 1.418 . S
C104 C103 1.251 . S
C105 H72 0.930 . S
C105 C107 1.406 . S
C105 C110 1.261 1_556 S
C106 H73 0.930 . S
C106 N108 1.325 . S
C106 C109 1.357 . S
C107 H75 0.928 . S
C107 C105 1.406 . S
C107 N108 1.261 1_556 S
N108 Co59 2.215 . S
N108 C106 1.325 . S
N108 C107 1.261 1_554 S
C109 H79 0.931 . S
C109 C106 1.357 . S
C109 C110 1.312 . S
C110 H81 0.930 . S
C110 C105 1.261 1_554 S
C110 C109 1.312 . S
C111 O83 1.214 1_654 S
C111 O91 1.234 . S
C112 H84 0.929 . S
C112 C115 1.391 . S
C112 C117 1.391 . S
C113 H85 0.929 1_556 S
C113 C114 1.390 . S
C113 N116 1.391 . S
C114 H86 0.930 . S
C114 C113 1.390 . S
C114 C115 1.392 . S
C115 H87 0.929 . S
C115 C112 1.391 . S
C115 C114 1.392 . S
N116 Co60 2.257 1_556 S
N116 C113 1.391 . S
N116 C117 1.388 . S
C117 H88 0.930 . S
C117 C112 1.391 . S
C117 N116 1.388 . S
Co118 O120 2.143 1_655 S
Co118 O126 2.074 . S
Co118 O129 2.093 . S
Co118 O142 2.097 . S
Co118 N159 2.151 . S
Co118 N167 2.214 . S
Co119 O120 2.160 . S
Co119 O125 2.058 . S
Co119 O135 2.057 . S
Co119 O150 2.037 . S
Co119 N154 2.145 . S
Co119 N175 2.257 . S
O120 Co118 2.143 1_455 S
O120 Co119 2.160 . S
C121 O122 1.278 . S
C121 O129 1.224 1_455 S
O122 C121 1.278 . S
C123 O124 1.245 . S
C123 O135 1.232 . S
O124 C123 1.245 . S
O125 Co119 2.058 . S
O125 C151 1.269 . S
O126 Co118 2.074 . S
O126 C151 1.257 1_655 S
H127 C152 0.930 . S
H128 C158 0.930 . S
O129 Co118 2.093 . S
O129 C121 1.224 1_655 S
H130 C162 0.929 . S
H131 C164 0.930 . S
H132 C165 0.930 . S
H133 C163 0.929 . S
H134 C166 0.928 . S
O135 Co119 2.057 . S
O135 C123 1.232 . S
H136 C155 0.929 . S
H137 C156 0.929 . S
H138 C168 0.931 . S
H139 C160 0.929 . S
H140 C169 0.930 . S
H141 C161 0.931 . S
O142 Co118 2.097 . S
O142 C170 1.214 1_655 S
H143 C171 0.929 . S
H144 C172 0.929 . S
H145 C173 0.930 . S
H146 C174 0.929 . S
H147 C176 0.930 . S
H148 C153 0.930 . S
H149 C157 0.930 . S
O150 Co119 2.037 . S
O150 C170 1.234 . S
C151 O125 1.269 . S
C151 O126 1.257 1_455 S
C152 H127 0.930 . S
C152 C155 1.388 . S
C152 C157 1.418 . S
C153 H148 0.930 . S
C153 C156 1.404 . S
C153 C157 1.353 . S
N154 Co119 2.145 . S
N154 C155 1.397 . S
N154 C156 1.334 . S
C155 H136 0.929 . S
C155 C152 1.388 . S
C155 N154 1.397 . S
C156 H137 0.929 . S
C156 C153 1.404 . S
C156 N154 1.334 . S
C157 H149 0.930 . S
C157 C152 1.418 . S
C157 C153 1.353 . S
C158 H128 0.930 . S
C158 N159 1.330 . S
C158 C160 1.446 . S
N159 Co118 2.151 . S
N159 C158 1.330 . S
N159 C163 1.418 . S
C160 H139 0.929 . S
C160 C158 1.446 . S
C160 C161 1.332 . S
C161 H141 0.931 . S
C161 C160 1.332 . S
C161 C162 1.267 . S
C162 H130 0.929 . S
C162 C161 1.267 . S
C162 C163 1.251 . S
C163 H133 0.929 . S
C163 N159 1.418 . S
C163 C162 1.251 . S
C164 H131 0.930 . S
C164 C166 1.406 . S
C164 C169 1.261 . S
C165 H132 0.930 . S
C165 N167 1.325 . S
C165 C168 1.357 . S
C166 H134 0.928 . S
C166 C164 1.406 . S
C166 N167 1.261 . S
N167 Co118 2.214 . S
N167 C165 1.325 . S
N167 C166 1.261 . S
C168 H138 0.931 . S
C168 C165 1.357 . S
C168 C169 1.312 . S
C169 H140 0.930 . S
C169 C164 1.261 . S
C169 C168 1.312 . S
C170 O142 1.214 1_455 S
C170 O150 1.234 . S
C171 H143 0.929 . S
C171 C174 1.391 . S
C171 C176 1.391 . S
C172 H144 0.929 . S
C172 C173 1.390 . S
C172 N175 1.391 . S
C173 H145 0.930 . S
C173 C172 1.390 . S
C173 C174 1.392 . S
C174 H146 0.929 . S
C174 C171 1.391 . S
C174 C173 1.392 . S
N175 Co119 2.257 . S
N175 C172 1.391 . S
N175 C176 1.388 . S
C176 H147 0.930 . S
C176 C171 1.391 . S
C176 N175 1.388 . S
Co177 O179 2.143 1_455 S
Co177 O185 2.074 . S
Co177 O188 2.093 . S
Co177 O201 2.097 . S
Co177 N218 2.151 . S
Co177 N226 2.214 . S
Co178 O179 2.160 . S
Co178 O184 2.058 . S
Co178 O194 2.057 . S
Co178 O209 2.037 . S
Co178 N213 2.145 . S
Co178 N234 2.257 . S
O179 Co177 2.143 1_655 S
O179 Co178 2.160 . S
C180 O181 1.278 . S
C180 O188 1.224 1_655 S
O181 C180 1.278 . S
C182 O183 1.245 . S
C182 O194 1.232 . S
O183 C182 1.245 . S
O184 Co178 2.058 . S
O184 C210 1.269 . S
O185 Co177 2.074 . S
O185 C210 1.257 1_455 S
H186 C211 0.930 . S
H187 C217 0.930 . S
O188 Co177 2.093 . S
O188 C180 1.224 1_455 S
H189 C221 0.929 . S
H190 C223 0.930 . S
H191 C224 0.930 . S
H192 C222 0.929 . S
H193 C225 0.928 . S
O194 Co178 2.057 . S
O194 C182 1.232 . S
H195 C214 0.929 . S
H196 C215 0.929 . S
H197 C227 0.931 . S
H198 C219 0.929 . S
H199 C228 0.930 . S
H200 C220 0.931 . S
O201 Co177 2.097 . S
O201 C229 1.214 1_455 S
H202 C230 0.929 . S
H203 C231 0.929 . S
H204 C232 0.930 . S
H205 C233 0.929 . S
H206 C235 0.930 . S
H207 C212 0.930 . S
H208 C216 0.930 . S
O209 Co178 2.037 . S
O209 C229 1.234 . S
C210 O184 1.269 . S
C210 O185 1.257 1_655 S
C211 H186 0.930 . S
C211 C214 1.388 . S
C211 C216 1.418 . S
C212 H207 0.930 . S
C212 C215 1.404 . S
C212 C216 1.353 . S
N213 Co178 2.145 . S
N213 C214 1.397 . S
N213 C215 1.334 . S
C214 H195 0.929 . S
C214 C211 1.388 . S
C214 N213 1.397 . S
C215 H196 0.929 . S
C215 C212 1.404 . S
C215 N213 1.334 . S
C216 H208 0.930 . S
C216 C211 1.418 . S
C216 C212 1.353 . S
C217 H187 0.930 . S
C217 N218 1.330 . S
C217 C219 1.446 . S
N218 Co177 2.151 . S
N218 C217 1.330 . S
N218 C222 1.418 . S
C219 H198 0.929 . S
C219 C217 1.446 . S
C219 C220 1.332 . S
C220 H200 0.931 . S
C220 C219 1.332 . S
C220 C221 1.267 . S
C221 H189 0.929 . S
C221 C220 1.267 . S
C221 C222 1.251 . S
C222 H192 0.929 . S
C222 N218 1.418 . S
C222 C221 1.251 . S
C223 H190 0.930 . S
C223 C225 1.406 . S
C223 C228 1.261 . S
C224 H191 0.930 . S
C224 N226 1.325 . S
C224 C227 1.357 . S
C225 H193 0.928 . S
C225 C223 1.406 . S
C225 N226 1.261 . S
N226 Co177 2.214 . S
N226 C224 1.325 . S
N226 C225 1.261 . S
C227 H197 0.931 . S
C227 C224 1.357 . S
C227 C228 1.312 . S
C228 H199 0.930 . S
C228 C223 1.261 . S
C228 C227 1.312 . S
C229 O201 1.214 1_655 S
C229 O209 1.234 . S
C230 H202 0.929 . S
C230 C233 1.391 . S
C230 C235 1.391 . S
C231 H203 0.929 . S
C231 C232 1.390 . S
C231 N234 1.391 . S
C232 H204 0.930 . S
C232 C231 1.390 . S
C232 C233 1.392 . S
C233 H205 0.929 . S
C233 C230 1.391 . S
C233 C232 1.392 . S
N234 Co178 2.257 . S
N234 C231 1.391 . S
N234 C235 1.388 . S
C235 H206 0.930 . S
C235 C230 1.391 . S
C235 N234 1.388 . S
Co236 O238 2.142 1_554 S
Co236 O244 2.085 . S
Co236 O247 2.081 1_554 S
Co236 O260 2.097 1_554 S
Co236 N277 2.151 . S
Co236 N285 2.215 . S
Co237 O238 2.160 1_554 S
Co237 O243 2.058 . S
Co237 O253 2.057 . S
Co237 O268 2.037 . S
Co237 N272 2.145 . S
Co237 N293 2.257 1_554 S
O238 Co236 2.142 1_556 S
O238 Co237 2.160 1_556 S
C239 O240 1.278 . S
C239 O247 1.224 . S
O240 C239 1.278 . S
C241 O242 1.245 . S
C241 O253 1.232 . S
O242 C241 1.245 . S
O243 Co237 2.058 . S
O243 C269 1.269 . S
O244 Co236 2.085 . S
O244 C269 1.257 . S
H245 C270 0.930 . S
H246 C276 0.930 . S
O247 Co236 2.081 1_556 S
O247 C239 1.224 . S
H248 C280 0.929 . S
H249 C282 0.930 . S
H250 C283 0.930 . S
H251 C281 0.929 . S
H252 C284 0.928 . S
O253 Co237 2.057 . S
O253 C241 1.232 . S
H254 C273 0.929 . S
H255 C274 0.929 . S
H256 C286 0.931 . S
H257 C278 0.929 . S
H258 C287 0.930 . S
H259 C279 0.931 . S
O260 Co236 2.097 1_556 S
O260 C288 1.214 1_556 S
H261 C289 0.929 . S
H262 C290 0.929 1_554 S
H263 C291 0.930 . S
H264 C292 0.929 . S
H265 C294 0.930 . S
H266 C271 0.930 . S
H267 C275 0.930 . S
O268 Co237 2.037 . S
O268 C288 1.234 . S
C269 O243 1.269 . S
C269 O244 1.257 . S
C270 H245 0.930 . S
C270 C273 1.388 . S
C270 C275 1.418 . S
C271 H266 0.930 . S
C271 C274 1.404 . S
C271 C275 1.353 . S
N272 Co237 2.145 . S
N272 C273 1.397 . S
N272 C274 1.334 . S
C273 H254 0.929 . S
C273 C270 1.388 . S
C273 N272 1.397 . S
C274 H255 0.929 . S
C274 C271 1.404 . S
C274 N272 1.334 . S
C275 H267 0.930 . S
C275 C270 1.418 . S
C275 C271 1.353 . S
C276 H246 0.930 . S
C276 N277 1.330 1_556 S
C276 C278 1.446 . S
N277 Co236 2.151 . S
N277 C276 1.330 1_554 S
N277 C281 1.418 . S
C278 H257 0.929 . S
C278 C276 1.446 . S
C278 C279 1.332 1_556 S
C279 H259 0.931 . S
C279 C278 1.332 1_554 S
C279 C280 1.267 . S
C280 H248 0.929 . S
C280 C279 1.267 . S
C280 C281 1.251 . S
C281 H251 0.929 . S
C281 N277 1.418 . S
C281 C280 1.251 . S
C282 H249 0.930 . S
C282 C284 1.406 . S
C282 C287 1.261 1_556 S
C283 H250 0.930 . S
C283 N285 1.325 . S
C283 C286 1.357 . S
C284 H252 0.928 . S
C284 C282 1.406 . S
C284 N285 1.261 1_556 S
N285 Co236 2.215 . S
N285 C283 1.325 . S
N285 C284 1.261 1_554 S
C286 H256 0.931 . S
C286 C283 1.357 . S
C286 C287 1.312 . S
C287 H258 0.930 . S
C287 C282 1.261 1_554 S
C287 C286 1.312 . S
C288 O260 1.214 1_554 S
C288 O268 1.234 . S
C289 H261 0.929 . S
C289 C292 1.391 . S
C289 C294 1.391 . S
C290 H262 0.929 1_556 S
C290 C291 1.390 . S
C290 N293 1.391 . S
C291 H263 0.930 . S
C291 C290 1.390 . S
C291 C292 1.392 . S
C292 H264 0.929 . S
C292 C289 1.391 . S
C292 C291 1.392 . S
N293 Co237 2.257 1_556 S
N293 C290 1.391 . S
N293 C294 1.388 . S
C294 H265 0.930 . S
C294 C289 1.391 . S
C294 N293 1.388 . S
Co295 O297 2.142 1_554 S
Co295 O303 2.085 . S
Co295 O306 2.081 1_554 S
Co295 O319 2.097 1_554 S
Co295 N336 2.151 . S
Co295 N344 2.215 . S
Co296 O297 2.160 1_554 S
Co296 O302 2.058 . S
Co296 O312 2.057 . S
Co296 O327 2.037 . S
Co296 N331 2.145 . S
Co296 N352 2.257 1_554 S
O297 Co295 2.142 1_556 S
O297 Co296 2.160 1_556 S
C298 O299 1.278 . S
C298 O306 1.224 . S
O299 C298 1.278 . S
C300 O301 1.245 . S
C300 O312 1.232 . S
O301 C300 1.245 . S
O302 Co296 2.058 . S
O302 C328 1.269 . S
O303 Co295 2.085 . S
O303 C328 1.257 . S
H304 C329 0.930 . S
H305 C335 0.930 . S
O306 Co295 2.081 1_556 S
O306 C298 1.224 . S
H307 C339 0.929 . S
H308 C341 0.930 . S
H309 C342 0.930 . S
H310 C340 0.929 . S
H311 C343 0.928 . S
O312 Co296 2.057 . S
O312 C300 1.232 . S
H313 C332 0.929 . S
H314 C333 0.929 . S
H315 C345 0.931 . S
H316 C337 0.929 . S
H317 C346 0.930 . S
H318 C338 0.931 . S
O319 Co295 2.097 1_556 S
O319 C347 1.214 1_556 S
H320 C348 0.929 . S
H321 C349 0.929 1_554 S
H322 C350 0.930 . S
H323 C351 0.929 . S
H324 C353 0.930 . S
H325 C330 0.930 . S
H326 C334 0.930 . S
O327 Co296 2.037 . S
O327 C347 1.234 . S
C328 O302 1.269 . S
C328 O303 1.257 . S
C329 H304 0.930 . S
C329 C332 1.388 . S
C329 C334 1.418 . S
C330 H325 0.930 . S
C330 C333 1.404 . S
C330 C334 1.353 . S
N331 Co296 2.145 . S
N331 C332 1.397 . S
N331 C333 1.334 . S
C332 H313 0.929 . S
C332 C329 1.388 . S
C332 N331 1.397 . S
C333 H314 0.929 . S
C333 C330 1.404 . S
C333 N331 1.334 . S
C334 H326 0.930 . S
C334 C329 1.418 . S
C334 C330 1.353 . S
C335 H305 0.930 . S
C335 N336 1.330 1_556 S
C335 C337 1.446 . S
N336 Co295 2.151 . S
N336 C335 1.330 1_554 S
N336 C340 1.418 . S
C337 H316 0.929 . S
C337 C335 1.446 . S
C337 C338 1.332 1_556 S
C338 H318 0.931 . S
C338 C337 1.332 1_554 S
C338 C339 1.267 . S
C339 H307 0.929 . S
C339 C338 1.267 . S
C339 C340 1.251 . S
C340 H310 0.929 . S
C340 N336 1.418 . S
C340 C339 1.251 . S
C341 H308 0.930 . S
C341 C343 1.406 . S
C341 C346 1.261 1_556 S
C342 H309 0.930 . S
C342 N344 1.325 . S
C342 C345 1.357 . S
C343 H311 0.928 . S
C343 C341 1.406 . S
C343 N344 1.261 1_556 S
N344 Co295 2.215 . S
N344 C342 1.325 . S
N344 C343 1.261 1_554 S
C345 H315 0.931 . S
C345 C342 1.357 . S
C345 C346 1.312 . S
C346 H317 0.930 . S
C346 C341 1.261 1_554 S
C346 C345 1.312 . S
C347 O319 1.214 1_554 S
C347 O327 1.234 . S
C348 H320 0.929 . S
C348 C351 1.391 . S
C348 C353 1.391 . S
C349 H321 0.929 1_556 S
C349 C350 1.390 . S
C349 N352 1.391 . S
C350 H322 0.930 . S
C350 C349 1.390 . S
C350 C351 1.392 . S
C351 H323 0.929 . S
C351 C348 1.391 . S
C351 C350 1.392 . S
N352 Co296 2.257 1_556 S
N352 C349 1.391 . S
N352 C353 1.388 . S
C353 H324 0.930 . S
C353 C348 1.391 . S
C353 N352 1.388 . S
Co354 O356 2.143 . S
Co354 O362 2.074 . S
Co354 O365 2.093 . S
Co354 O378 2.097 . S
Co354 N395 2.151 . S
Co354 N403 2.214 . S
Co355 O356 2.160 . S
Co355 O361 2.058 . S
Co355 O371 2.057 . S
Co355 O386 2.037 . S
Co355 N390 2.145 . S
Co355 N411 2.257 . S
O356 Co354 2.143 . S
O356 Co355 2.160 . S
C357 O358 1.278 . S
C357 O365 1.224 . S
O358 C357 1.278 . S
C359 O360 1.245 . S
C359 O371 1.232 . S
O360 C359 1.245 . S
O361 Co355 2.058 . S
O361 C387 1.269 . S
O362 Co354 2.074 . S
O362 C387 1.257 . S
H363 C388 0.930 . S
H364 C394 0.930 . S
O365 Co354 2.093 . S
O365 C357 1.224 . S
H366 C398 0.929 . S
H367 C400 0.930 . S
H368 C401 0.930 . S
H369 C399 0.929 . S
H370 C402 0.928 . S
O371 Co355 2.057 . S
O371 C359 1.232 . S
H372 C391 0.929 . S
H373 C392 0.929 . S
H374 C404 0.931 . S
H375 C396 0.929 . S
H376 C405 0.930 . S
H377 C397 0.931 . S
O378 Co354 2.097 . S
O378 C406 1.214 . S
H379 C407 0.929 . S
H380 C408 0.929 . S
H381 C409 0.930 . S
H382 C410 0.929 . S
H383 C412 0.930 . S
H384 C389 0.930 . S
H385 C393 0.930 . S
O386 Co355 2.037 . S
O386 C406 1.234 . S
C387 O361 1.269 . S
C387 O362 1.257 . S
C388 H363 0.930 . S
C388 C391 1.388 . S
C388 C393 1.418 . S
C389 H384 0.930 . S
C389 C392 1.404 . S
C389 C393 1.353 . S
N390 Co355 2.145 . S
N390 C391 1.397 . S
N390 C392 1.334 . S
C391 H372 0.929 . S
C391 C388 1.388 . S
C391 N390 1.397 . S
C392 H373 0.929 . S
C392 C389 1.404 . S
C392 N390 1.334 . S
C393 H385 0.930 . S
C393 C388 1.418 . S
C393 C389 1.353 . S
C394 H364 0.930 . S
C394 N395 1.330 . S
C394 C396 1.446 . S
N395 Co354 2.151 . S
N395 C394 1.330 . S
N395 C399 1.418 . S
C396 H375 0.929 . S
C396 C394 1.446 . S
C396 C397 1.332 . S
C397 H377 0.931 . S
C397 C396 1.332 . S
C397 C398 1.267 . S
C398 H366 0.929 . S
C398 C397 1.267 . S
C398 C399 1.251 . S
C399 H369 0.929 . S
C399 N395 1.418 . S
C399 C398 1.251 . S
C400 H367 0.930 . S
C400 C402 1.406 . S
C400 C405 1.261 . S
C401 H368 0.930 . S
C401 N403 1.325 . S
C401 C404 1.357 . S
C402 H370 0.928 . S
C402 C400 1.406 . S
C402 N403 1.261 . S
N403 Co354 2.214 . S
N403 C401 1.325 . S
N403 C402 1.261 . S
C404 H374 0.931 . S
C404 C401 1.357 . S
C404 C405 1.312 . S
C405 H376 0.930 . S
C405 C400 1.261 . S
C405 C404 1.312 . S
C406 O378 1.214 . S
C406 O386 1.234 . S
C407 H379 0.929 . S
C407 C410 1.391 . S
C407 C412 1.391 . S
C408 H380 0.929 . S
C408 C409 1.390 . S
C408 N411 1.391 . S
C409 H381 0.930 . S
C409 C408 1.390 . S
C409 C410 1.392 . S
C410 H382 0.929 . S
C410 C407 1.391 . S
C410 C409 1.392 . S
N411 Co355 2.257 . S
N411 C408 1.391 . S
N411 C412 1.388 . S
C412 H383 0.930 . S
C412 C407 1.391 . S
C412 N411 1.388 . S
Co413 O415 2.143 . S
Co413 O421 2.074 . S
Co413 O424 2.093 . S
Co413 O437 2.097 . S
Co413 N454 2.151 . S
Co413 N462 2.214 . S
Co414 O415 2.160 . S
Co414 O420 2.058 . S
Co414 O430 2.057 . S
Co414 O445 2.037 . S
Co414 N449 2.145 . S
Co414 N470 2.257 . S
O415 Co413 2.143 . S
O415 Co414 2.160 . S
C416 O417 1.278 . S
C416 O424 1.224 . S
O417 C416 1.278 . S
C418 O419 1.245 . S
C418 O430 1.232 . S
O419 C418 1.245 . S
O420 Co414 2.058 . S
O420 C446 1.269 . S
O421 Co413 2.074 . S
O421 C446 1.257 . S
H422 C447 0.930 . S
H423 C453 0.930 . S
O424 Co413 2.093 . S
O424 C416 1.224 . S
H425 C457 0.929 . S
H426 C459 0.930 . S
H427 C460 0.930 . S
H428 C458 0.929 . S
H429 C461 0.928 . S
O430 Co414 2.057 . S
O430 C418 1.232 . S
H431 C450 0.929 . S
H432 C451 0.929 . S
H433 C463 0.931 . S
H434 C455 0.929 . S
H435 C464 0.930 . S
H436 C456 0.931 . S
O437 Co413 2.097 . S
O437 C465 1.214 . S
H438 C466 0.929 . S
H439 C467 0.929 . S
H440 C468 0.930 . S
H441 C469 0.929 . S
H442 C471 0.930 . S
H443 C448 0.930 . S
H444 C452 0.930 . S
O445 Co414 2.037 . S
O445 C465 1.234 . S
C446 O420 1.269 . S
C446 O421 1.257 . S
C447 H422 0.930 . S
C447 C450 1.388 . S
C447 C452 1.418 . S
C448 H443 0.930 . S
C448 C451 1.404 . S
C448 C452 1.353 . S
N449 Co414 2.145 . S
N449 C450 1.397 . S
N449 C451 1.334 . S
C450 H431 0.929 . S
C450 C447 1.388 . S
C450 N449 1.397 . S
C451 H432 0.929 . S
C451 C448 1.404 . S
C451 N449 1.334 . S
C452 H444 0.930 . S
C452 C447 1.418 . S
C452 C448 1.353 . S
C453 H423 0.930 . S
C453 N454 1.330 . S
C453 C455 1.446 . S
N454 Co413 2.151 . S
N454 C453 1.330 . S
N454 C458 1.418 . S
C455 H434 0.929 . S
C455 C453 1.446 . S
C455 C456 1.332 . S
C456 H436 0.931 . S
C456 C455 1.332 . S
C456 C457 1.267 . S
C457 H425 0.929 . S
C457 C456 1.267 . S
C457 C458 1.251 . S
C458 H428 0.929 . S
C458 N454 1.418 . S
C458 C457 1.251 . S
C459 H426 0.930 . S
C459 C461 1.406 . S
C459 C464 1.261 . S
C460 H427 0.930 . S
C460 N462 1.325 . S
C460 C463 1.357 . S
C461 H429 0.928 . S
C461 C459 1.406 . S
C461 N462 1.261 . S
N462 Co413 2.214 . S
N462 C460 1.325 . S
N462 C461 1.261 . S
C463 H433 0.931 . S
C463 C460 1.357 . S
C463 C464 1.312 . S
C464 H435 0.930 . S
C464 C459 1.261 . S
C464 C463 1.312 . S
C465 O437 1.214 . S
C465 O445 1.234 . S
C466 H438 0.929 . S
C466 C469 1.391 . S
C466 C471 1.391 . S
C467 H439 0.929 . S
C467 C468 1.390 . S
C467 N470 1.391 . S
C468 H440 0.930 . S
C468 C467 1.390 . S
C468 C469 1.392 . S
C469 H441 0.929 . S
C469 C466 1.391 . S
C469 C468 1.392 . S
N470 Co414 2.257 . S
N470 C467 1.391 . S
N470 C471 1.388 . S
C471 H442 0.930 . S
C471 C466 1.391 . S
C471 N470 1.388 . S
C472 C473 1.363 1_456 S
C472 C478 1.379 1_565 S
C472 N480 1.356 . S
C473 C472 1.363 1_654 S
C473 C479 1.363 . S
C474 C475 1.363 1_655 S
C474 C479 1.379 1_545 S
C474 N481 1.356 . S
C475 C474 1.363 1_455 S
C475 C478 1.363 1_554 S
N476 C478 1.356 . S
N476 H488 0.984 . S
N476 H489 0.985 . S
N477 C479 1.356 . S
N477 H482 0.984 . S
N477 H483 0.985 . S
C478 C472 1.379 1_545 S
C478 C475 1.363 1_556 S
C478 N476 1.356 . S
C479 C473 1.363 . S
C479 C474 1.379 1_565 S
C479 N477 1.356 . S
N480 C472 1.356 . S
N480 H486 0.984 . S
N480 H487 0.984 . S
N481 C474 1.356 . S
N481 H484 0.984 . S
N481 H485 0.985 . S
H482 N477 0.984 . S
H483 N477 0.985 . S
H484 N481 0.984 . S
H485 N481 0.985 . S
H486 N480 0.984 . S
H487 N480 0.984 . S
H488 N476 0.984 . S
H489 N476 0.985 . S
C490 C491 1.363 1_655 S
C490 C496 1.379 1_565 S
C490 N498 1.356 . S
C491 C490 1.363 1_455 S
C491 C497 1.363 . S
C492 C493 1.363 1_455 S
C492 C497 1.379 1_545 S
C492 N499 1.356 . S
C493 C492 1.363 1_655 S
C493 C496 1.363 . S
N494 C496 1.356 . S
N494 H506 0.984 . S
N494 H507 0.985 . S
N495 C497 1.356 . S
N495 H500 0.984 . S
N495 H501 0.985 . S
C496 C490 1.379 1_545 S
C496 C493 1.363 . S
C496 N494 1.356 . S
C497 C491 1.363 . S
C497 C492 1.379 1_565 S
C497 N495 1.356 . S
N498 C490 1.356 . S
N498 H504 0.984 . S
N498 H505 0.984 . S
N499 C492 1.356 . S
N499 H502 0.984 . S
N499 H503 0.985 . S
H500 N495 0.984 . S
H501 N495 0.985 . S
H502 N499 0.984 . S
H503 N499 0.985 . S
H504 N498 0.984 . S
H505 N498 0.984 . S
H506 N494 0.984 . S
H507 N494 0.985 . S
C508 C509 1.363 1_556 S
C508 C514 1.379 . S
C508 N516 1.356 . S
C509 C508 1.363 1_554 S
C509 C515 1.363 . S
C510 C511 1.363 . S
C510 C515 1.379 . S
C510 N517 1.356 . S
C511 C510 1.363 . S
C511 C514 1.363 1_554 S
N512 C514 1.356 . S
N512 H524 0.984 . S
N512 H525 0.985 . S
N513 C515 1.356 . S
N513 H518 0.984 . S
N513 H519 0.985 . S
C514 C508 1.379 . S
C514 C511 1.363 1_556 S
C514 N512 1.356 . S
C515 C509 1.363 . S
C515 C510 1.379 . S
C515 N513 1.356 . S
N516 C508 1.356 . S
N516 H522 0.984 . S
N516 H523 0.984 . S
N517 C510 1.356 . S
N517 H520 0.984 . S
N517 H521 0.985 . S
H518 N513 0.984 . S
H519 N513 0.985 . S
H520 N517 0.984 . S
H521 N517 0.985 . S
H522 N516 0.984 . S
H523 N516 0.984 . S
H524 N512 0.984 . S
H525 N512 0.985 . S
C526 C527 1.363 . S
C526 C532 1.379 . S
C526 N534 1.356 . S
C527 C526 1.363 . S
C527 C533 1.363 . S
C528 C529 1.363 . S
C528 C533 1.379 . S
C528 N535 1.356 . S
C529 C528 1.363 . S
C529 C532 1.363 . S
N530 C532 1.356 . S
N530 H542 0.984 . S
N530 H543 0.985 . S
N531 C533 1.356 . S
N531 H536 0.984 . S
N531 H537 0.985 . S
C532 C526 1.379 . S
C532 C529 1.363 . S
C532 N530 1.356 . S
C533 C527 1.363 . S
C533 C528 1.379 . S
C533 N531 1.356 . S
N534 C526 1.356 . S
N534 H540 0.984 . S
N534 H541 0.984 . S
N535 C528 1.356 . S
N535 H538 0.984 . S
N535 H539 0.985 . S
H536 N531 0.984 . S
H537 N531 0.985 . S
H538 N535 0.984 . S
H539 N535 0.985 . S
H540 N534 0.984 . S
H541 N534 0.984 . S
H542 N530 0.984 . S
H543 N530 0.985 . S
C544 C545 1.363 . S
C544 C550 1.379 . S
C544 N552 1.356 . S
C545 C544 1.363 . S
C545 C551 1.363 1_455 S
C546 C547 1.363 . S
C546 C551 1.379 . S
C546 N553 1.356 . S
C547 C546 1.363 . S
C547 C550 1.363 1_655 S
N548 C550 1.356 . S
N548 H560 0.984 . S
N548 H561 0.985 . S
N549 C551 1.356 . S
N549 H554 0.984 . S
N549 H555 0.985 . S
C550 C544 1.379 . S
C550 C547 1.363 1_455 S
C550 N548 1.356 . S
C551 C545 1.363 1_655 S
C551 C546 1.379 . S
C551 N549 1.356 . S
N552 C544 1.356 . S
N552 H558 0.984 . S
N552 H559 0.984 . S
N553 C546 1.356 . S
N553 H556 0.984 . S
N553 H557 0.985 . S
H554 N549 0.984 . S
H555 N549 0.985 . S
H556 N553 0.984 . S
H557 N553 0.985 . S
H558 N552 0.984 . S
H559 N552 0.984 . S
H560 N548 0.984 . S
H561 N548 0.985 . S
C562 C563 1.363 . S
C562 C568 1.379 . S
C562 N570 1.356 . S
C563 C562 1.363 . S
C563 C569 1.363 1_455 S
C564 C565 1.363 . S
C564 C569 1.379 . S
C564 N571 1.356 . S
C565 C564 1.363 . S
C565 C568 1.363 1_655 S
N566 C568 1.356 . S
N566 H578 0.984 . S
N566 H579 0.985 . S
N567 C569 1.356 . S
N567 H572 0.984 . S
N567 H573 0.985 . S
C568 C562 1.379 . S
C568 C565 1.363 1_455 S
C568 N566 1.356 . S
C569 C563 1.363 1_655 S
C569 C564 1.379 . S
C569 N567 1.356 . S
N570 C562 1.356 . S
N570 H576 0.984 . S
N570 H577 0.984 . S
N571 C564 1.356 . S
N571 H574 0.984 . S
N571 H575 0.985 . S
H572 N567 0.984 . S
H573 N567 0.985 . S
H574 N571 0.984 . S
H575 N571 0.985 . S
H576 N570 0.984 . S
H577 N570 0.984 . S
H578 N566 0.984 . S
H579 N566 0.985 . S
C580 C581 1.363 1_655 S
C580 C586 1.379 . S
C580 N588 1.356 . S
C581 C580 1.363 1_455 S
C581 C587 1.363 . S
C582 C583 1.363 1_455 S
C582 C587 1.379 . S
C582 N589 1.356 . S
C583 C582 1.363 1_655 S
C583 C586 1.363 . S
N584 C586 1.356 . S
N584 H596 0.984 . S
N584 H597 0.985 . S
N585 C587 1.356 . S
N585 H590 0.984 . S
N585 H591 0.985 . S
C586 C580 1.379 . S
C586 C583 1.363 . S
C586 N584 1.356 . S
C587 C581 1.363 . S
C587 C582 1.379 . S
C587 N585 1.356 . S
N588 C580 1.356 . S
N588 H594 0.984 . S
N588 H595 0.984 . S
N589 C582 1.356 . S
N589 H592 0.984 . S
N589 H593 0.985 . S
H590 N585 0.984 . S
H591 N585 0.985 . S
H592 N589 0.984 . S
H593 N589 0.985 . S
H594 N588 0.984 . S
H595 N588 0.984 . S
H596 N584 0.984 . S
H597 N584 0.985 . S
C598 C599 1.363 . S
C598 C604 1.379 . S
C598 N606 1.356 . S
C599 C598 1.363 . S
C599 C605 1.363 1_455 S
C600 C601 1.363 . S
C600 C605 1.379 . S
C600 N607 1.356 . S
C601 C600 1.363 . S
C601 C604 1.363 1_655 S
N602 C604 1.356 . S
N602 H614 0.984 . S
N602 H615 0.985 . S
N603 C605 1.356 . S
N603 H608 0.984 . S
N603 H609 0.985 . S
C604 C598 1.379 . S
C604 C601 1.363 1_455 S
C604 N602 1.356 . S
C605 C599 1.363 1_655 S
C605 C600 1.379 . S
C605 N603 1.356 . S
N606 C598 1.356 . S
N606 H612 0.984 . S
N606 H613 0.984 . S
N607 C600 1.356 . S
N607 H610 0.984 . S
N607 H611 0.985 . S
H608 N603 0.984 . S
H609 N603 0.985 . S
H610 N607 0.984 . S
H611 N607 0.985 . S
H612 N606 0.984 . S
H613 N606 0.984 . S
H614 N602 0.984 . S
H615 N602 0.985 . S
C616 C617 1.363 . S
C616 C622 1.379 . S
C616 N624 1.356 . S
C617 C616 1.363 . S
C617 C623 1.363 . S
C618 C619 1.363 . S
C618 C623 1.379 . S
C618 N625 1.356 . S
C619 C618 1.363 . S
C619 C622 1.363 . S
N620 C622 1.356 . S
N620 H632 0.984 . S
N620 H633 0.985 . S
N621 C623 1.356 . S
N621 H626 0.984 . S
N621 H627 0.985 . S
C622 C616 1.379 . S
C622 C619 1.363 . S
C622 N620 1.356 . S
C623 C617 1.363 . S
C623 C618 1.379 . S
C623 N621 1.356 . S
N624 C616 1.356 . S
N624 H630 0.984 . S
N624 H631 0.984 . S
N625 C618 1.356 . S
N625 H628 0.984 . S
N625 H629 0.985 . S
H626 N621 0.984 . S
H627 N621 0.985 . S
H628 N625 0.984 . S
H629 N625 0.985 . S
H630 N624 0.984 . S
H631 N624 0.984 . S
H632 N620 0.984 . S
H633 N620 0.985 . S
C634 C635 1.363 . S
C634 C640 1.379 . S
C634 N642 1.356 . S
C635 C634 1.363 . S
C635 C641 1.363 . S
C636 C637 1.363 . S
C636 C641 1.379 . S
C636 N643 1.356 . S
C637 C636 1.363 . S
C637 C640 1.363 . S
N638 C640 1.356 . S
N638 H650 0.984 . S
N638 H651 0.985 . S
N639 C641 1.356 . S
N639 H644 0.984 . S
N639 H645 0.985 . S
C640 C634 1.379 . S
C640 C637 1.363 . S
C640 N638 1.356 . S
C641 C635 1.363 . S
C641 C636 1.379 . S
C641 N639 1.356 . S
N642 C634 1.356 . S
N642 H648 0.984 . S
N642 H649 0.984 . S
N643 C636 1.356 . S
N643 H646 0.984 . S
N643 H647 0.985 . S
H644 N639 0.984 . S
H645 N639 0.985 . S
H646 N643 0.984 . S
H647 N643 0.985 . S
H648 N642 0.984 . S
H649 N642 0.984 . S
H650 N638 0.984 . S
H651 N638 0.985 . S
C652 C653 1.363 . S
C652 C658 1.379 . S
C652 N660 1.356 . S
C653 C652 1.363 . S
C653 C659 1.363 . S
C654 C655 1.363 . S
C654 C659 1.379 . S
C654 N661 1.356 . S
C655 C654 1.363 . S
C655 C658 1.363 . S
N656 C658 1.356 . S
N656 H668 0.984 . S
N656 H669 0.985 . S
N657 C659 1.356 . S
N657 H662 0.984 . S
N657 H663 0.985 . S
C658 C652 1.379 . S
C658 C655 1.363 . S
C658 N656 1.356 . S
C659 C653 1.363 . S
C659 C654 1.379 . S
C659 N657 1.356 . S
N660 C652 1.356 . S
N660 H666 0.984 . S
N660 H667 0.984 . S
N661 C654 1.356 . S
N661 H664 0.984 . S
N661 H665 0.985 . S
H662 N657 0.984 . S
H663 N657 0.985 . S
H664 N661 0.984 . S
H665 N661 0.985 . S
H666 N660 0.984 . S
H667 N660 0.984 . S
H668 N656 0.984 . S
H669 N656 0.985 . S
C670 C671 1.363 . S
C670 C676 1.379 . S
C670 N678 1.356 . S
C671 C670 1.363 . S
C671 C677 1.363 . S
C672 C673 1.363 . S
C672 C677 1.379 . S
C672 N679 1.356 . S
C673 C672 1.363 . S
C673 C676 1.363 . S
N674 C676 1.356 . S
N674 H686 0.984 . S
N674 H687 0.985 . S
N675 C677 1.356 . S
N675 H680 0.984 . S
N675 H681 0.985 . S
C676 C670 1.379 . S
C676 C673 1.363 . S
C676 N674 1.356 . S
C677 C671 1.363 . S
C677 C672 1.379 . S
C677 N675 1.356 . S
N678 C670 1.356 . S
N678 H684 0.984 . S
N678 H685 0.984 . S
N679 C672 1.356 . S
N679 H682 0.984 . S
N679 H683 0.985 . S
H680 N675 0.984 . S
H681 N675 0.985 . S
H682 N679 0.984 . S
H683 N679 0.985 . S
H684 N678 0.984 . S
H685 N678 0.984 . S
H686 N674 0.984 . S
H687 N674 0.985 . S
C688 C689 1.363 1_556 S
C688 C694 1.379 . S
C688 N696 1.356 . S
C689 C688 1.363 1_554 S
C689 C695 1.363 . S
C690 C691 1.363 . S
C690 C695 1.379 . S
C690 N697 1.356 . S
C691 C690 1.363 . S
C691 C694 1.363 1_554 S
N692 C694 1.356 . S
N692 H704 0.984 . S
N692 H705 0.985 . S
N693 C695 1.356 . S
N693 H698 0.984 . S
N693 H699 0.985 . S
C694 C688 1.379 . S
C694 C691 1.363 1_556 S
C694 N692 1.356 . S
C695 C689 1.363 . S
C695 C690 1.379 . S
C695 N693 1.356 . S
N696 C688 1.356 . S
N696 H702 0.984 . S
N696 H703 0.984 . S
N697 C690 1.356 . S
N697 H700 0.984 . S
N697 H701 0.985 . S
H698 N693 0.984 . S
H699 N693 0.985 . S
H700 N697 0.984 . S
H701 N697 0.985 . S
H702 N696 0.984 . S
H703 N696 0.984 . S
H704 N692 0.984 . S
H705 N692 0.985 . S
C706 C707 1.363 1_556 S
C706 C712 1.379 . S
C706 N714 1.356 . S
C707 C706 1.363 1_554 S
C707 C713 1.363 . S
C708 C709 1.363 . S
C708 C713 1.379 . S
C708 N715 1.356 . S
C709 C708 1.363 . S
C709 C712 1.363 1_554 S
N710 C712 1.356 . S
N710 H722 0.984 . S
N710 H723 0.985 . S
N711 C713 1.356 . S
N711 H716 0.984 . S
N711 H717 0.985 . S
C712 C706 1.379 . S
C712 C709 1.363 1_556 S
C712 N710 1.356 . S
C713 C707 1.363 . S
C713 C708 1.379 . S
C713 N711 1.356 . S
N714 C706 1.356 . S
N714 H720 0.984 . S
N714 H721 0.984 . S
N715 C708 1.356 . S
N715 H718 0.984 . S
N715 H719 0.985 . S
H716 N711 0.984 . S
H717 N711 0.985 . S
H718 N715 0.984 . S
H719 N715 0.985 . S
H720 N714 0.984 . S
H721 N714 0.984 . S
H722 N710 0.984 . S
H723 N710 0.985 . S
C724 C725 1.363 . S
C724 C730 1.379 . S
C724 N732 1.356 . S
C725 C724 1.363 . S
C725 C731 1.363 . S
C726 C727 1.363 . S
C726 C731 1.379 . S
C726 N733 1.356 . S
C727 C726 1.363 . S
C727 C730 1.363 . S
N728 C730 1.356 . S
N728 H740 0.984 . S
N728 H741 0.985 . S
N729 C731 1.356 . S
N729 H734 0.984 . S
N729 H735 0.985 . S
C730 C724 1.379 . S
C730 C727 1.363 . S
C730 N728 1.356 . S
C731 C725 1.363 . S
C731 C726 1.379 . S
C731 N729 1.356 . S
N732 C724 1.356 . S
N732 H738 0.984 . S
N732 H739 0.984 . S
N733 C726 1.356 . S
N733 H736 0.984 . S
N733 H737 0.985 . S
H734 N729 0.984 . S
H735 N729 0.985 . S
H736 N733 0.984 . S
H737 N733 0.985 . S
H738 N732 0.984 . S
H739 N732 0.984 . S
H740 N728 0.984 . S
H741 N728 0.985 . S
C742 C743 1.363 . S
C742 C748 1.379 . S
C742 N750 1.356 . S
C743 C742 1.363 . S
C743 C749 1.363 . S
C744 C745 1.363 . S
C744 C749 1.379 . S
C744 N751 1.356 . S
C745 C744 1.363 . S
C745 C748 1.363 . S
N746 C748 1.356 . S
N746 H758 0.984 . S
N746 H759 0.985 . S
N747 C749 1.356 . S
N747 H752 0.984 . S
N747 H753 0.985 . S
C748 C742 1.379 . S
C748 C745 1.363 . S
C748 N746 1.356 . S
C749 C743 1.363 . S
C749 C744 1.379 . S
C749 N747 1.356 . S
N750 C742 1.356 . S
N750 H756 0.984 . S
N750 H757 0.984 . S
N751 C744 1.356 . S
N751 H754 0.984 . S
N751 H755 0.985 . S
H752 N747 0.984 . S
H753 N747 0.985 . S
H754 N751 0.984 . S
H755 N751 0.985 . S
H756 N750 0.984 . S
H757 N750 0.984 . S
H758 N746 0.984 . S
H759 N746 0.985 . S
C473 C111 1.515 . S
C475 C52 1.515 . S
C491 C170 1.515 . S
C493 C229 1.515 . S
C509 C288 1.515 . S
C511 C347 1.515 . S
C527 C406 1.515 . S
C529 C465 1.515 . S
C545 C33 1.383 . S
C547 C210 1.383 . S
C563 C151 1.383 . S
C565 C92 1.383 . S
C581 C121 1.462 . S
C583 C62 1.462 . S
C599 C3 1.462 . S
C601 C180 1.462 . S
C617 C269 1.383 . S
C619 C446 1.383 . S
C635 C387 1.383 . S
C637 C328 1.383 . S
C653 C298 1.462 . S
C655 C357 1.462 . S
C671 C239 1.462 . S
C673 C416 1.462 . S
C689 C300 1.515 . S
C691 C5 1.515 . S
C707 C241 1.515 . S
C709 C64 1.515 . S
C725 C123 1.515 . S
C727 C418 1.515 . S
C743 C359 1.515 . S
C745 C182 1.515 . S
