# Generated by pormake.
# Topology uol, (4)-cn, num edge types: 1
# Building blocks:
#     Node 0, Type 0, BuildingBlock: QUQFOY_clean_sbu_3, # of connection points: 4
#     Node 1, Type 0, BuildingBlock: QUQFOY_clean_sbu_3, # of connection points: 4
#     Node 2, Type 0, BuildingBlock: QUQFOY_clean_sbu_3, # of connection points: 4
#     Node 3, Type 0, BuildingBlock: QUQFOY_clean_sbu_3, # of connection points: 4
#     Node 4, Type 0, BuildingBlock: QUQFOY_clean_sbu_3, # of connection points: 4
#     Node 5, Type 0, BuildingBlock: QUQFOY_clean_sbu_3, # of connection points: 4
#     Node 6, Type 0, BuildingBlock: QUQFOY_clean_sbu_3, # of connection points: 4
#     Node 7, Type 0, BuildingBlock: QUQFOY_clean_sbu_3, # of connection points: 4
#     Node 8, Type 0, BuildingBlock: QUQFOY_clean_sbu_3, # of connection points: 4
#     Node 9, Type 0, BuildingBlock: QUQFOY_clean_sbu_3, # of connection points: 4
#     Node 10, Type 0, BuildingBlock: QUQFOY_clean_sbu_3, # of connection points: 4
#     Node 11, Type 0, BuildingBlock: QUQFOY_clean_sbu_3, # of connection points: 4
#     Edge 12, Type (0, 0), BuildingBlock: EZIPEK_clean_linker_0, # of connection points: 2
#     Edge 13, Type (0, 0), BuildingBlock: EZIPEK_clean_linker_0, # of connection points: 2
#     Edge 14, Type (0, 0), BuildingBlock: EZIPEK_clean_linker_0, # of connection points: 2
#     Edge 15, Type (0, 0), BuildingBlock: EZIPEK_clean_linker_0, # of connection points: 2
#     Edge 16, Type (0, 0), BuildingBlock: EZIPEK_clean_linker_0, # of connection points: 2
#     Edge 17, Type (0, 0), BuildingBlock: EZIPEK_clean_linker_0, # of connection points: 2
#     Edge 18, Type (0, 0), BuildingBlock: EZIPEK_clean_linker_0, # of connection points: 2
#     Edge 19, Type (0, 0), BuildingBlock: EZIPEK_clean_linker_0, # of connection points: 2
#     Edge 20, Type (0, 0), BuildingBlock: EZIPEK_clean_linker_0, # of connection points: 2
#     Edge 21, Type (0, 0), BuildingBlock: EZIPEK_clean_linker_0, # of connection points: 2
#     Edge 22, Type (0, 0), BuildingBlock: EZIPEK_clean_linker_0, # of connection points: 2
#     Edge 23, Type (0, 0), BuildingBlock: EZIPEK_clean_linker_0, # of connection points: 2
#     Edge 24, Type (0, 0), BuildingBlock: EZIPEK_clean_linker_0, # of connection points: 2
#     Edge 25, Type (0, 0), BuildingBlock: EZIPEK_clean_linker_0, # of connection points: 2
#     Edge 26, Type (0, 0), BuildingBlock: EZIPEK_clean_linker_0, # of connection points: 2
#     Edge 27, Type (0, 0), BuildingBlock: EZIPEK_clean_linker_0, # of connection points: 2
#     Edge 28, Type (0, 0), BuildingBlock: EZIPEK_clean_linker_0, # of connection points: 2
#     Edge 29, Type (0, 0), BuildingBlock: EZIPEK_clean_linker_0, # of connection points: 2
#     Edge 30, Type (0, 0), BuildingBlock: EZIPEK_clean_linker_0, # of connection points: 2
#     Edge 31, Type (0, 0), BuildingBlock: EZIPEK_clean_linker_0, # of connection points: 2
#     Edge 32, Type (0, 0), BuildingBlock: EZIPEK_clean_linker_0, # of connection points: 2
#     Edge 33, Type (0, 0), BuildingBlock: EZIPEK_clean_linker_0, # of connection points: 2
#     Edge 34, Type (0, 0), BuildingBlock: EZIPEK_clean_linker_0, # of connection points: 2
#     Edge 35, Type (0, 0), BuildingBlock: EZIPEK_clean_linker_0, # of connection points: 2
# Relax obj value: 0.116
# Max RMSD: 0.172
# Mean RMSD: 0.172
data_MOF--net-uol--node1-QUQFOY_clean_sbu_3--edge1-EZIPEK_clean_linker_0
_symmetry_space_group_name_H-M    P1
_symmetry_Int_Tables_number       1
_symmetry_cell_setting            triclinic
loop_
_symmetry_equiv_pos_as_xyz
'x, y, z'
_cell_length_a     25.914205
_cell_length_b     25.859036
_cell_length_c     50.695529
_cell_angle_alpha  90.085501
_cell_angle_beta   90.139118
_cell_angle_gamma 120.15011
loop_
_atom_site_label
_atom_site_type_symbol
_atom_site_fract_x
_atom_site_fract_y
_atom_site_fract_z
_atom_type_partial_charge
C0 C 0.10329 0.22448 0.0201 0.0
O1 O 0.06084 0.17455 0.02789 0.0
Cd2 Cd 0.01221 0.16115 0.06932 0.0
O3 O 0.11785 0.27252 0.03272 0.0
Cd4 Cd 0.08225 0.30339 0.07171 0.0
C5 C 0.13694 0.23576 0.1093 0.0
O6 O -0.02471 0.22847 0.07332 0.0
O7 O 0.0161 0.27648 0.10913 0.0
O8 O 0.07446 0.38299 0.05003 0.0
C9 C -0.03102 0.23858 0.09722 0.0
O10 O 0.09148 0.18707 0.10184 0.0
C11 C 0.1132 0.42451 0.06455 0.0
O12 O 0.14738 0.28617 0.10051 0.0
O13 O 0.13925 0.41002 0.08179 0.0
C14 C 0.81905 0.09967 0.18054 0.0
O15 O 0.83687 0.06457 0.18827 0.0
Cd16 Cd 0.81883 0.02087 0.2316 0.0
O17 O 0.78428 0.10934 0.19467 0.0
Cd18 Cd 0.73406 0.08037 0.23768 0.0
C19 C 0.8703 0.15324 0.26599 0.0
O20 O 0.71754 -0.02101 0.24553 0.0
O21 O 0.70622 0.02594 0.27834 0.0
O22 O 0.64045 0.05941 0.21798 0.0
C23 C 0.70595 -0.02034 0.2699 0.0
O24 O 0.87592 0.10927 0.25858 0.0
C25 C 0.63474 0.09706 0.23196 0.0
O26 O 0.82467 0.15721 0.25983 0.0
O27 O 0.67616 0.12831 0.24832 0.0
C28 C 0.68628 0.82696 0.35663 0.0
O29 O 0.73218 0.83259 0.36843 0.0
Cd30 Cd 0.73659 0.80749 0.41373 0.0
O31 O 0.63491 0.79909 0.36726 0.0
Cd32 Cd 0.58909 0.74244 0.40826 0.0
C33 C 0.6611 0.87309 0.44167 0.0
O34 O 0.65825 0.70873 0.42078 0.0
O35 O 0.5915 0.69479 0.44946 0.0
O36 O 0.50602 0.65698 0.38714 0.0
C37 C 0.63794 0.69251 0.4439 0.0
O38 O 0.70905 0.87162 0.43816 0.0
C39 C 0.46686 0.66462 0.39874 0.0
O40 O 0.61151 0.83356 0.43187 0.0
O41 O 0.4848 0.7102 0.41351 0.0
C42 C 0.77829 0.68074 0.53015 0.0
O43 O 0.819 0.73094 0.53879 0.0
Cd44 Cd 0.86509 0.74497 0.58091 0.0
O45 O 0.76394 0.63259 0.54256 0.0
Cd46 Cd 0.80125 0.60472 0.58226 0.0
C47 C 0.73779 0.66408 0.61883 0.0
O48 O 0.90707 0.68214 0.58363 0.0
O49 O 0.86899 0.63579 0.61969 0.0
O50 O 0.81339 0.53194 0.55745 0.0
C51 C 0.91558 0.67229 0.60724 0.0
O52 O 0.78263 0.71373 0.61202 0.0
C53 C 0.78551 0.48964 0.57372 0.0
O54 O 0.72982 0.61454 0.60994 0.0
O55 O 0.76121 0.49953 0.59331 0.0
C56 C 0.07876 0.83275 0.68293 0.0
O57 O 0.0717 0.87762 0.68519 0.0
Cd58 Cd 0.10511 0.93913 0.72384 0.0
O59 O 0.11032 0.82388 0.69954 0.0
Cd60 Cd 0.1725 0.87371 0.73869 0.0
C61 C 0.05021 0.83551 0.7741 0.0
O62 O 0.20893 -0.01694 0.73512 0.0
O63 O 0.21041 0.94509 0.77311 0.0
O64 O 0.25789 0.87855 0.71747 0.0
C65 C 0.22293 -0.00911 0.75952 0.0
O66 O 0.04762 0.87443 0.75968 0.0
C67 C 0.2664 0.84782 0.73457 0.0
O68 O 0.09085 0.82221 0.77047 0.0
O69 O 0.22964 0.82672 0.75357 0.0
C70 C 0.2629 0.12608 0.84897 0.0
O71 O 0.21218 0.09977 0.86007 0.0
Cd72 Cd 0.19117 0.11103 0.90516 0.0
O73 O 0.30944 0.16302 0.8617 0.0
Cd74 Cd 0.33666 0.20163 0.90737 0.0
C75 C 0.2787 0.06483 0.93686 0.0
O76 O 0.25107 0.21384 0.9166 0.0
O77 O 0.31301 0.23318 0.94868 0.0
O78 O 0.40708 0.30016 0.89105 0.0
C79 C 0.26458 0.2286 0.94058 0.0
O80 O 0.22744 0.05688 0.93096 0.0
C81 C 0.45285 0.30229 0.90129 0.0
O82 O 0.32648 0.11125 0.92934 0.0
O83 O 0.44512 0.25659 0.91397 0.0
C84 C 0.6608 0.82691 0.77583 0.0
O85 O 0.71317 0.85772 0.76663 0.0
Cd86 Cd 0.73715 0.89378 0.72214 0.0
O87 O 0.61535 0.81667 0.76219 0.0
Cd88 Cd 0.59214 0.83968 0.71804 0.0
C89 C 0.64742 0.75846 0.69061 0.0
O90 O 0.67988 0.9379 0.70897 0.0
O91 O 0.6185 0.8931 0.67676 0.0
O92 O 0.5263 0.8677 0.739 0.0
C93 C 0.66693 0.93751 0.68472 0.0
O94 O 0.69856 0.80191 0.6969 0.0
C95 C 0.48045 0.83238 0.72558 0.0
O96 O 0.59938 0.75741 0.69717 0.0
O97 O 0.48581 0.79856 0.70893 0.0
C98 C 0.83349 0.71921 0.94562 0.0
O99 O 0.82204 0.76137 0.9459 0.0
Cd100 Cd 0.79837 0.78386 0.90367 0.0
O101 O 0.81641 0.6825 0.92644 0.0
Cd102 Cd 0.7476 0.65766 0.88829 0.0
C103 C 0.87252 0.74709 0.85721 0.0
O104 O 0.69887 0.71969 0.88826 0.0
O105 O 0.71411 0.68826 0.85099 0.0
O106 O 0.66264 0.572 0.90769 0.0
C107 C 0.69243 0.71561 0.86329 0.0
O108 O 0.87061 0.78569 0.8722 0.0
C109 C 0.6628 0.53388 0.89194 0.0
O110 O 0.83175 0.69239 0.85841 0.0
O111 O 0.70412 0.55289 0.87485 0.0
C112 C 0.12792 0.8422 0.10145 0.0
O113 O 0.09983 0.86494 0.09046 0.0
Cd114 Cd 0.06016 0.84664 0.04649 0.0
O115 O 0.13694 0.80411 0.08943 0.0
Cd116 Cd 0.11602 0.75487 0.0454 0.0
C117 C 0.18972 0.88695 0.01172 0.0
O118 O 0.01778 0.74245 0.03973 0.0
O119 O 0.04998 0.71386 0.0069 0.0
O120 O 0.09148 0.65984 0.06479 0.0
C121 C 0.0093 0.7217 0.01649 0.0
O122 O 0.14767 0.89617 0.0184 0.0
C123 C 0.13177 0.65487 0.05284 0.0
O124 O 0.19163 0.84112 0.01967 0.0
O125 O 0.16689 0.6979 0.03807 0.0
C126 C 0.24579 0.1269 0.2755 0.0
O127 O 0.19286 0.08624 0.27023 0.0
Cd128 Cd 0.16905 0.03476 0.22846 0.0
O129 O 0.28844 0.13621 0.26028 0.0
Cd130 Cd 0.30226 0.09384 0.21926 0.0
C131 C 0.23514 0.15529 0.1869 0.0
O132 O 0.22386 -0.01371 0.21595 0.0
O133 O 0.26728 0.03479 0.18027 0.0
O134 O 0.37552 0.07799 0.24157 0.0
C135 C 0.23202 -0.01455 0.1912 0.0
O136 O 0.18789 0.11077 0.19586 0.0
C137 C 0.41689 0.10635 0.22499 0.0
O138 O 0.28673 0.16522 0.19372 0.0
O139 O 0.4061 0.13186 0.20609 0.0
C140 C 0.08206 0.24059 0.43033 0.0
O141 O 0.07811 0.19288 0.42132 0.0
Cd142 Cd 0.1173 0.1854 0.37969 0.0
O143 O 0.11174 0.2901 0.41827 0.0
Cd144 Cd 0.17532 0.3285 0.3786 0.0
C145 C 0.05496 0.2492 0.34052 0.0
O146 O 0.21855 0.26347 0.3781 0.0
O147 O 0.23069 0.31445 0.3432 0.0
O148 O 0.24655 0.41553 0.40325 0.0
C149 C 0.24057 0.27729 0.35521 0.0
O150 O 0.05796 0.20332 0.34722 0.0
C151 C 0.24681 0.4536 0.38732 0.0
O152 O 0.0903 0.30068 0.35001 0.0
O153 O 0.21407 0.43265 0.36701 0.0
C154 C 0.81693 0.08719 0.60043 0.0
O155 O 0.85673 0.07837 0.59039 0.0
Cd156 Cd 0.89148 0.10475 0.54597 0.0
O157 O 0.79973 0.11955 0.5888 0.0
Cd158 Cd 0.82517 0.18365 0.5491 0.0
C159 C 0.75439 0.05509 0.51524 0.0
O160 O 0.92719 0.20771 0.53856 0.0
O161 O 0.87899 0.22472 0.5083 0.0
O162 O 0.84029 0.26927 0.5747 0.0
C163 C 0.92588 0.22439 0.51512 0.0
O164 O 0.79991 0.05007 0.52021 0.0
C165 C 0.80302 0.2772 0.56154 0.0
O166 O 0.74933 0.0983 0.52427 0.0
O167 O 0.77407 0.23989 0.54332 0.0
C168 C 0.13495 0.57782 0.08136 0.0
C169 C 0.13588 0.60007 0.05572 0.0
C170 C 0.13724 0.51367 0.03667 0.0
C171 C 0.12562 0.48676 0.06195 0.0
N172 N 0.1031 0.48979 0.10808 0.0
N173 N 0.12826 0.58393 0.00846 0.0
C174 C 0.1222 0.51802 0.08433 0.0
C175 C 0.13501 0.56696 0.03316 0.0
N176 N 0.1473 0.61415 0.10288 0.0
N177 N 0.15164 0.48907 0.01612 0.0
H178 H 0.12417 0.62134 0.0048 0.0
H179 H 0.12083 0.5575 -0.00824 0.0
H180 H 0.1554 0.45095 0.01814 0.0
H181 H 0.16609 0.51007 -0.00209 0.0
H182 H 0.15271 0.60184 0.1218 0.0
H183 H 0.15864 0.65888 0.10137 0.0
H184 H 0.0939 0.50899 0.12415 0.0
H185 H 0.09043 0.44512 0.11108 0.0
C186 C 0.58256 0.15602 0.22528 0.0
C187 C 0.57971 0.10076 0.23057 0.0
C188 C 0.4708 0.04918 0.22897 0.0
C189 C 0.4733 0.10511 0.22659 0.0
N190 N 0.53166 0.21298 0.22735 0.0
N191 N 0.52116 -0.00261 0.24393 0.0
C192 C 0.52925 0.15901 0.22605 0.0
C193 C 0.52385 0.04805 0.23427 0.0
N194 N 0.63565 0.20505 0.21855 0.0
N195 N 0.41828 -0.0031 0.22502 0.0
H196 H 0.55892 -0.00497 0.24906 0.0
H197 H 0.48135 0.95977 0.24955 0.0
H198 H 0.37838 -0.00476 0.2202 0.0
H199 H 0.41565 0.95541 0.22374 0.0
H200 H 0.63918 0.24472 0.2118 0.0
H201 H 0.6755 0.20441 0.2174 0.0
H202 H 0.57132 0.25344 0.22977 0.0
H203 H 0.49367 0.21702 0.22854 0.0
C204 C 0.37235 0.58645 0.41953 0.0
C205 C 0.40299 0.61953 0.39675 0.0
C206 C 0.31451 0.55794 0.36958 0.0
C207 C 0.28913 0.51871 0.39131 0.0
N208 N 0.27789 0.51215 0.43832 0.0
N209 N 0.40328 0.6411 0.35049 0.0
C210 C 0.31303 0.5385 0.41682 0.0
C211 C 0.37376 0.60701 0.3719 0.0
N212 N 0.4013 0.59734 0.44327 0.0
N213 N 0.28088 0.55068 0.34761 0.0
H214 H 0.44507 0.67974 0.35192 0.0
H215 H 0.38774 0.62993 0.33119 0.0
H216 H 0.2351 0.52083 0.34697 0.0
H217 H 0.29572 0.57963 0.33159 0.0
H218 H 0.38328 0.56974 0.45963 0.0
H219 H 0.44525 0.63126 0.44627 0.0
H220 H 0.29062 0.52762 0.45756 0.0
H221 H 0.23305 0.47914 0.43641 0.0
C222 C 0.84562 0.43921 0.57083 0.0
C223 C 0.78867 0.43437 0.57174 0.0
C224 C 0.74098 0.32522 0.57008 0.0
C225 C 0.79767 0.33087 0.5656 0.0
N226 N 0.90247 0.39454 0.55564 0.0
N227 N 0.6815 0.3736 0.56882 0.0
C228 C 0.84968 0.3882 0.56435 0.0
C229 C 0.736 0.37755 0.57052 0.0
N230 N 0.89586 0.49196 0.57716 0.0
N231 N 0.69242 0.27023 0.57479 0.0
H232 H 0.67624 0.41103 0.56893 0.0
H233 H 0.64205 0.33369 0.56507 0.0
H234 H 0.69467 0.23108 0.57516 0.0
H235 H 0.65129 0.26408 0.58077 0.0
H236 H 0.93767 0.49587 0.57936 0.0
H237 H 0.89493 0.53014 0.58308 0.0
H238 H 0.93991 0.43604 0.55181 0.0
H239 H 0.90729 0.35873 0.54946 0.0
C240 C 0.36955 0.78229 0.73326 0.0
C241 C 0.42478 0.83472 0.72782 0.0
C242 C 0.37692 0.8952 0.7313 0.0
C243 C 0.32051 0.84235 0.73346 0.0
N244 N 0.26162 0.73457 0.73243 0.0
N245 N 0.47781 0.939 0.7153 0.0
C246 C 0.31627 0.78545 0.7334 0.0
C247 C 0.42762 0.89065 0.72506 0.0
N248 N 0.36817 0.7301 0.73925 0.0
N249 N 0.38266 0.94984 0.73625 0.0
H250 H 0.51532 0.93722 0.70925 0.0
H251 H 0.47969 -0.02093 0.71046 0.0
H252 H 0.34698 0.95508 0.74201 0.0
H253 H 0.42385 -0.01086 0.73753 0.0
H254 H 0.33009 0.69217 0.74604 0.0
H255 H 0.40635 0.72627 0.73975 0.0
H256 H 0.25602 0.69216 0.72952 0.0
H257 H 0.22165 0.7351 0.73222 0.0
C258 C 0.54672 0.38675 0.92122 0.0
C259 C 0.51229 0.35657 0.89855 0.0
C260 C 0.57921 0.44135 0.87082 0.0
C261 C 0.6152 0.47034 0.89327 0.0
N262 N 0.64255 0.46339 0.93807 0.0
N263 N 0.50572 0.34741 0.85115 0.0
C264 C 0.60195 0.44059 0.91792 0.0
C265 C 0.53185 0.38142 0.87313 0.0
N266 N 0.52524 0.36652 0.94595 0.0
N267 N 0.58735 0.47189 0.84778 0.0
H268 H 0.47188 0.30273 0.85215 0.0
H269 H 0.52196 0.36146 0.83215 0.0
H270 H 0.62012 0.51649 0.84524 0.0
H271 H 0.55786 0.45457 0.83189 0.0
H272 H 0.54567 0.39078 0.96303 0.0
H273 H 0.48427 0.32827 0.94951 0.0
H274 H 0.63766 0.4406 0.95567 0.0
H275 H 0.6841 0.5021 0.93611 0.0
C276 C 0.19926 0.22516 0.17534 0.0
C277 C 0.2281 0.19353 0.16735 0.0
C278 C 0.21602 0.2121 0.12104 0.0
C279 C 0.17715 0.23266 0.12904 0.0
N280 N 0.13247 0.26163 0.16336 0.0
N281 N 0.26548 0.15689 0.13282 0.0
C282 C 0.16994 0.24128 0.1561 0.0
C283 C 0.23828 0.18823 0.14024 0.0
N284 N 0.19985 0.23918 0.20138 0.0
N285 N 0.23119 0.21531 0.09504 0.0
H286 H 0.28367 0.14001 0.14631 0.0
H287 H 0.26744 0.14493 0.11339 0.0
H288 H 0.21566 0.23327 0.08076 0.0
H289 H 0.26317 0.20565 0.08805 0.0
H290 H 0.18385 0.26629 0.20845 0.0
H291 H 0.22149 0.22788 0.21569 0.0
H292 H 0.11958 0.26217 0.18274 0.0
H293 H 0.11184 0.2756 0.14971 0.0
C294 C 0.90257 0.19407 0.31155 0.0
C295 C 0.91594 0.19653 0.28427 0.0
C296 C 0.02288 0.24821 0.29395 0.0
C297 C 0.00921 0.24174 0.32121 0.0
N298 N 0.94014 0.22606 0.35608 0.0
N299 N -0.01347 0.23997 0.24899 0.0
C300 C 0.95024 0.22077 0.33002 0.0
C301 C -0.02435 0.22879 0.27534 0.0
N302 N 0.8447 0.16253 0.3199 0.0
N303 N 0.08053 0.27005 0.28599 0.0
H304 H 0.95204 0.22627 0.23521 0.0
H305 H 0.02882 0.26692 0.24109 0.0
H306 H 0.11628 0.28658 0.29922 0.0
H307 H 0.09284 0.26962 0.2665 0.0
H308 H 0.83254 0.15214 0.33958 0.0
H309 H 0.80838 0.14396 0.30702 0.0
H310 H 0.89884 0.21635 0.36352 0.0
H311 H -0.02537 0.24555 0.36993 0.0
C312 C 0.71562 0.02683 0.46958 0.0
C313 C 0.70985 0.01178 0.49668 0.0
C314 C 0.64602 0.90608 0.48571 0.0
C315 C 0.66378 0.92016 0.45903 0.0
N316 N 0.70887 -0.00749 0.42438 0.0
N317 N 0.66563 0.93944 0.53136 0.0
C318 C 0.69561 -0.01965 0.45052 0.0
C319 C 0.67264 0.95207 0.505 0.0
N320 N 0.74141 0.08546 0.46229 0.0
N321 N 0.60483 0.84883 0.49251 0.0
H322 H 0.68222 -0.027 0.54572 0.0
H323 H 0.64537 0.89632 0.539 0.0
H324 H 0.58453 0.81445 0.47866 0.0
H325 H 0.58692 0.83633 0.51133 0.0
H326 H 0.74371 0.09954 0.44289 0.0
H327 H 0.75625 0.12011 0.47604 0.0
H328 H 0.738 0.03493 0.41702 0.0
H329 H 0.69152 0.95905 0.40997 0.0
C330 C 0.70051 0.65894 0.66474 0.0
C331 C 0.69474 0.6656 0.63734 0.0
C332 C 0.63513 0.71291 0.64587 0.0
C333 C 0.64626 0.71199 0.67324 0.0
N334 N 0.67168 0.66888 0.70928 0.0
N335 N 0.64175 0.67962 0.60177 0.0
C336 C 0.67258 0.67917 0.68282 0.0
C337 C 0.65652 0.68579 0.62793 0.0
N338 N 0.73567 0.63684 0.67332 0.0
N339 N 0.60835 0.74358 0.63694 0.0
H340 H 0.65687 0.65925 0.5885 0.0
H341 H 0.61058 0.68931 0.59372 0.0
H342 H 0.59022 0.76214 0.64954 0.0
H343 H 0.60613 0.7528 0.61713 0.0
H344 H 0.74743 0.63703 0.69297 0.0
H345 H 0.75496 0.61994 0.66041 0.0
H346 H 0.68646 0.64193 0.7177 0.0
H347 H 0.65095 0.68349 0.7226 0.0
C348 C 0.94406 0.73255 0.82781 0.0
C349 C 0.91947 0.76807 0.83646 0.0
C350 C -0.0069 0.85035 0.8099 0.0
C351 C 0.00886 0.8116 0.79697 0.0
N352 N -0.01078 0.71025 0.79107 0.0
N353 N 0.90936 0.85477 0.82696 0.0
C354 C -0.01829 0.75096 0.80519 0.0
C355 C 0.94067 0.82535 0.82504 0.0
N356 N 0.93381 0.68288 0.84151 0.0
N357 N 0.0286 0.91106 0.80843 0.0
H358 H 0.86631 0.83522 0.8346 0.0
H359 H 0.92277 0.89521 0.81734 0.0
H360 H 0.07064 0.93173 0.79964 0.0
H361 H 0.01947 0.94014 0.81905 0.0
H362 H 0.95487 0.65867 0.83693 0.0
H363 H 0.91035 0.6702 0.85921 0.0
H364 H -0.03425 0.66462 0.79522 0.0
H365 H 0.01364 0.72077 0.77365 0.0
C366 C 0.22785 0.91435 0.96557 0.0
C367 C 0.23413 0.92933 -0.00723 0.0
C368 C 0.29278 0.03591 -0.01772 0.0
C369 C 0.28058 0.02116 0.95512 0.0
N370 N 0.25453 0.9492 0.92037 0.0
N371 N 0.28712 0.00028 0.0272 0.0
C372 C 0.25451 0.96102 0.94664 0.0
C373 C 0.27211 -0.011 0.00112 0.0
N374 N 0.19302 0.85607 0.9579 0.0
N375 N 0.32 0.09437 -0.00987 0.0
H376 H 0.27213 0.96598 0.0411 0.0
H377 H 0.31815 0.04214 0.03463 0.0
H378 H 0.33772 0.12984 0.97685 0.0
H379 H 0.32324 0.1079 0.0097 0.0
H380 H 0.18034 0.84263 0.93846 0.0
H381 H 0.17494 0.82081 0.97131 0.0
H382 H 0.24009 0.90672 0.91271 0.0
H383 H 0.27424 -0.01663 0.90643 0.0
C384 C 0.17202 0.19167 0.00263 0.0
C385 C 0.14276 0.22503 -0.00102 0.0
C386 C 0.19525 0.26346 0.95704 0.0
C387 C 0.22015 0.22577 0.95974 0.0
N388 N 0.21885 0.14218 -0.0183 0.0
N389 N 0.11905 0.28585 0.9712 0.0
C390 C 0.20461 0.1864 -0.01847 0.0
C391 C 0.15221 0.25908 0.97572 0.0
N392 N 0.17128 0.16724 0.02665 0.0
N393 N 0.21438 0.30495 0.93732 0.0
H394 H 0.08728 0.28346 -0.01549 0.0
H395 H 0.11947 0.30618 0.95343 0.0
H396 H 0.24575 0.30937 0.92332 0.0
H397 H 0.20272 0.33797 0.93602 0.0
H398 H 0.19761 0.14839 0.03104 0.0
H399 H 0.14945 0.17123 0.0431 0.0
H400 H 0.20306 0.10845 -0.00417 0.0
H401 H 0.24085 0.13518 0.96619 0.0
C402 C 0.87623 0.19848 0.15732 0.0
C403 C 0.84476 0.13497 0.1562 0.0
C404 C 0.87919 0.13855 0.1108 0.0
C405 C 0.91334 0.20211 0.11274 0.0
N406 N 0.92176 0.29063 0.13242 0.0
N407 N 0.80115 0.04559 0.12966 0.0
C408 C 0.90369 0.23122 0.13418 0.0
C409 C 0.84145 0.10529 0.13217 0.0
N410 N 0.88453 0.22793 0.18077 0.0
N411 N 0.88384 0.10953 0.08922 0.0
H412 H 0.77232 0.02055 0.14486 0.0
H413 H 0.79223 0.02223 0.11192 0.0
H414 H 0.90223 0.13064 0.07146 0.0
H415 H 0.86871 0.06384 0.08888 0.0
H416 H 0.9128 0.27393 0.18281 0.0
H417 H 0.86834 0.20649 0.19875 0.0
H418 H 0.91159 0.31332 0.14661 0.0
H419 H 0.94086 0.3151 0.11526 0.0
C420 C 0.66368 0.87494 0.28832 0.0
C421 C 0.70649 0.93693 0.28931 0.0
C422 C 0.73427 0.92613 0.33419 0.0
C423 C 0.69462 0.86347 0.3328 0.0
N424 N 0.6294 0.77635 0.30691 0.0
N425 N 0.79514 0.01642 0.30981 0.0
C426 C 0.66166 0.83718 0.3093 0.0
C427 C 0.74586 0.96073 0.31116 0.0
N428 N 0.62332 0.8527 0.26809 0.0
N429 N 0.75789 0.95371 0.35782 0.0
H430 H 0.80601 0.04236 0.29287 0.0
H431 H 0.82835 0.03364 0.32427 0.0
H432 H 0.74808 0.93124 0.37578 0.0
H433 H 0.78186 8e-05 0.36002 0.0
H434 H 0.58689 0.80936 0.2678 0.0
H435 H 0.624 0.87891 0.25234 0.0
H436 H 0.60896 0.75444 0.2894 0.0
H437 H 0.62744 0.74774 0.32186 0.0
C438 C 0.73514 0.64875 0.48428 0.0
C439 C 0.74072 0.68026 0.50805 0.0
C440 C 0.68657 0.72503 0.48828 0.0
C441 C 0.67499 0.68888 0.46543 0.0
N442 N 0.68116 0.60974 0.44307 0.0
N443 N 0.7075 0.73517 0.53493 0.0
C444 C 0.69742 0.64887 0.46375 0.0
C445 C 0.71209 0.71435 0.51073 0.0
N446 N 0.76722 0.62045 0.481 0.0
N447 N 0.67645 0.77201 0.48821 0.0
H448 H 0.72407 0.72699 0.55222 0.0
H449 H 0.68151 0.7549 0.53824 0.0
H450 H 0.66116 0.78406 0.4717 0.0
H451 H 0.69006 0.80327 0.50347 0.0
H452 H 0.76994 0.60209 0.46312 0.0
H453 H 0.79493 0.61934 0.49568 0.0
H454 H 0.69106 0.57541 0.44214 0.0
H455 H 0.6535 0.60846 0.4278 0.0
C456 C 0.00995 0.7275 0.66729 0.0
C457 C 0.0476 0.78903 0.66142 0.0
C458 C 0.01382 0.77019 0.61527 0.0
C459 C -0.02726 0.70961 0.62198 0.0
N460 N 0.95602 0.62705 0.64957 0.0
N461 N 0.09993 0.86469 0.62855 0.0
C462 C -0.02078 0.68715 0.64643 0.0
C463 C 0.054 0.80917 0.63496 0.0
N464 N -0.00039 0.7078 0.6928 0.0
N465 N 0.01459 0.79093 0.59046 0.0
H466 H 0.1311 0.89333 0.6424 0.0
H467 H 0.11072 0.88026 0.60928 0.0
H468 H -0.00321 0.763 0.57413 0.0
H469 H 0.03487 0.83622 0.58589 0.0
H470 H -0.03242 0.66426 0.69789 0.0
H471 H 0.01826 0.7358 0.70909 0.0
H472 H -0.03661 0.60847 0.66639 0.0
H473 H 0.93587 0.59695 0.63398 0.0
C474 C 0.30691 0.09064 0.81359 0.0
C475 C 0.26715 0.11097 0.82109 0.0
C476 C 0.21254 0.07373 0.77939 0.0
C477 C 0.24905 0.04918 0.77323 0.0
N478 N 0.34382 0.05544 0.77788 0.0
N479 N 0.19749 0.14152 0.80718 0.0
C480 C 0.30124 0.06595 0.78804 0.0
C481 C 0.22512 0.10924 0.80254 0.0
N482 N 0.34603 0.08932 0.83134 0.0
N483 N 0.16387 0.05997 0.76412 0.0
H484 H 0.20726 0.16903 0.82373 0.0
H485 H 0.16977 0.14574 0.79351 0.0
H486 H 0.15616 0.03754 0.74618 0.0
H487 H 0.13075 0.06946 0.76953 0.0
H488 H 0.37074 0.0685 0.82747 0.0
H489 H 0.35078 0.10442 0.8507 0.0
H490 H 0.38531 0.07043 0.78672 0.0
H491 H 0.33937 0.03737 0.75901 0.0
C492 C 0.68404 0.83475 0.82403 0.0
C493 C 0.65305 0.7985 0.80197 0.0
C494 C 0.62291 0.70907 0.82861 0.0
C495 C 0.66566 0.74478 0.84783 0.0
N496 N 0.73427 0.84253 0.86545 0.0
N497 N 0.59395 0.69959 0.7828 0.0
C498 C 0.69439 0.80804 0.84641 0.0
C499 C 0.62122 0.73512 0.80428 0.0
N500 N 0.70334 0.89457 0.82346 0.0
N501 N 0.58542 0.64973 0.8335 0.0
H502 H 0.59285 0.71605 0.76421 0.0
H503 H 0.57641 0.65346 0.78283 0.0
H504 H 0.58658 0.63022 0.85137 0.0
H505 H 0.54978 0.62191 0.82124 0.0
H506 H 0.72175 0.92273 0.83972 0.0
H507 H 0.69552 0.91485 0.80735 0.0
H508 H 0.76298 0.88842 0.8636 0.0
H509 H 0.73978 0.8249 0.88296 0.0
C510 C 0.85916 0.67698 -0.01526 0.0
C511 C 0.87746 0.7205 0.96454 0.0
C512 C -0.01803 0.76452 0.97833 0.0
C513 C -0.03645 0.72216 -0.00086 0.0
N514 N 0.88542 0.64282 0.0245 0.0
N515 N 0.95443 0.80836 0.94265 0.0
C516 C 0.90226 0.67985 0.00309 0.0
C517 C 0.93836 0.7651 0.96153 0.0
N518 N 0.8008 0.6323 -0.01406 0.0
N519 N 0.0414 0.80376 0.9744 0.0
H520 H 0.92509 0.80785 0.92842 0.0
H521 H -0.00376 0.84672 0.94161 0.0
H522 H 0.07451 0.80873 -0.01249 0.0
H523 H 0.05881 0.82998 0.95764 0.0
H524 H 0.78524 0.59535 -0.00173 0.0
H525 H 0.76787 0.63032 0.9734 0.0
H526 H 0.84131 0.61525 0.03021 0.0
H527 H 0.91596 0.64203 0.0377 0.0
C528 C 0.21528 0.89183 0.13275 0.0
C529 C 0.15278 0.86334 0.12823 0.0
C530 C 0.1392 0.90026 0.17075 0.0
C531 C 0.20193 0.9309 0.17457 0.0
N532 N 0.29584 0.938 0.16466 0.0
N533 N 0.05423 0.82401 0.14626 0.0
C534 C 0.23845 0.92001 0.15742 0.0
C535 C 0.11436 0.86201 0.14845 0.0
N536 N 0.25317 0.89666 0.11294 0.0
N537 N 0.10378 0.91051 0.1873 0.0
H538 H 0.03517 0.7949 0.13028 0.0
H539 H 0.02422 0.81706 0.16134 0.0
H540 H 0.11973 0.93591 0.20445 0.0
H541 H 0.05902 0.89585 0.18343 0.0
H542 H 0.2994 0.9232 0.1144 0.0
H543 H 0.23893 0.87836 0.09421 0.0
H544 H 0.3234 0.92689 0.15412 0.0
H545 H 0.31337 0.95864 0.18279 0.0
C546 C 0.24002 0.1429 0.32407 0.0
C547 C 0.25718 0.1671 0.29835 0.0
C548 C 0.29268 0.26722 0.31626 0.0
C549 C 0.26152 0.24172 0.33992 0.0
N550 N 0.21905 0.15667 0.36932 0.0
N551 N 0.29712 0.25334 0.26951 0.0
C552 C 0.23984 0.17997 0.34492 0.0
C553 C 0.28401 0.22974 0.29435 0.0
N554 N 0.22599 0.08516 0.32862 0.0
N555 N 0.33065 0.32753 0.3149 0.0
H556 H 0.28936 0.2278 0.2525 0.0
H557 H 0.31053 0.29787 0.26555 0.0
H558 H 0.33932 0.35535 0.33126 0.0
H559 H 0.3584 0.34834 0.29882 0.0
H560 H 0.21796 0.06582 0.34724 0.0
H561 H 0.22718 0.05767 0.31383 0.0
H562 H 0.19296 0.11107 0.37302 0.0
H563 H 0.22991 0.18306 0.38621 0.0
C564 C -0.01893 0.19997 0.44981 0.0
C565 C 0.04368 0.23646 0.45267 0.0
C566 C 0.03 0.26762 0.49666 0.0
C567 C -0.03225 0.22676 0.49458 0.0
N568 N 0.88704 0.14249 0.47186 0.0
N569 N 0.12919 0.29882 0.47992 0.0
C570 C 0.94418 0.18958 0.47193 0.0
C571 C 0.0687 0.26864 0.47644 0.0
N572 N 0.95629 0.17723 0.42564 0.0
N573 N 0.0518 0.30694 0.51732 0.0
H574 H 0.1586 0.30053 0.46546 0.0
H575 H 0.14993 0.31806 0.49778 0.0
H576 H 0.0248 0.30733 0.53245 0.0
H577 H 0.09571 0.34204 0.51846 0.0
H578 H 0.91052 0.15606 0.42203 0.0
H579 H -0.01865 0.18481 0.40854 0.0
H580 H 0.86988 0.11025 0.45698 0.0
H581 H 0.85894 0.13183 0.488 0.0
C582 C 0.72426 0.95187 0.64328 0.0
C583 C 0.71144 -0.02215 0.66514 0.0
C584 C 0.77715 0.0776 0.64666 0.0
C585 C 0.7825 0.05048 0.62324 0.0
N586 N 0.74879 0.9606 0.5971 0.0
N587 N 0.72093 0.06547 0.68669 0.0
C588 C 0.75287 -0.01271 0.62096 0.0
C589 C 0.73699 0.04089 0.66674 0.0
N590 N 0.71063 0.89355 0.64406 0.0
N591 N 0.81126 0.13812 0.64989 0.0
H592 H 0.69182 0.04005 0.70172 0.0
H593 H 0.73292 0.11039 0.68731 0.0
H594 H 0.84107 0.16603 0.63558 0.0
H595 H 0.81377 0.15995 0.66754 0.0
H596 H 0.72437 0.87422 0.62968 0.0
H597 H 0.69162 0.86654 0.66048 0.0
H598 H 0.722 0.9147 0.59401 0.0
H599 H 0.76651 -0.01565 0.5797 0.0
loop_
_geom_bond_atom_site_label_1
_geom_bond_atom_site_label_2
_geom_bond_distance
_geom_bond_site_symmetry_2
_ccdc_geom_bond_type
C0 O1 1.306 . S
C0 O3 1.160 . S
O1 C0 1.306 . S
O1 Cd2 2.228 . S
Cd2 O1 2.228 . S
Cd2 O6 2.273 . S
Cd2 O10 2.277 . S
O3 C0 1.160 . S
O3 Cd4 2.203 . S
Cd4 O3 2.203 . S
Cd4 O6 2.411 . S
Cd4 O7 2.333 . S
Cd4 O8 2.352 . S
Cd4 O12 2.277 . S
Cd4 O13 2.356 . S
C5 O10 1.209 . S
C5 O12 1.226 . S
O6 Cd2 2.273 . S
O6 Cd4 2.411 . S
O6 C9 1.320 . S
O7 Cd4 2.333 . S
O7 C9 1.214 . S
O8 Cd4 2.352 . S
O8 C11 1.258 . S
C9 O6 1.320 . S
C9 O7 1.214 . S
O10 Cd2 2.277 . S
O10 C5 1.209 . S
C11 O8 1.258 . S
C11 O13 1.282 . S
O12 Cd4 2.277 . S
O12 C5 1.226 . S
O13 Cd4 2.356 . S
O13 C11 1.282 . S
C14 O15 1.306 . S
C14 O17 1.160 . S
O15 C14 1.306 . S
O15 Cd16 2.228 . S
Cd16 O15 2.228 . S
Cd16 O20 2.273 . S
Cd16 O24 2.277 . S
O17 C14 1.160 . S
O17 Cd18 2.203 . S
Cd18 O17 2.203 . S
Cd18 O20 2.411 . S
Cd18 O21 2.333 . S
Cd18 O22 2.352 . S
Cd18 O26 2.277 . S
Cd18 O27 2.356 . S
C19 O24 1.209 . S
C19 O26 1.226 . S
O20 Cd16 2.273 . S
O20 Cd18 2.411 . S
O20 C23 1.320 . S
O21 Cd18 2.333 . S
O21 C23 1.214 . S
O22 Cd18 2.352 . S
O22 C25 1.258 . S
C23 O20 1.320 . S
C23 O21 1.214 . S
O24 Cd16 2.277 . S
O24 C19 1.209 . S
C25 O22 1.258 . S
C25 O27 1.282 . S
O26 Cd18 2.277 . S
O26 C19 1.226 . S
O27 Cd18 2.356 . S
O27 C25 1.282 . S
C28 O29 1.306 . S
C28 O31 1.160 . S
O29 C28 1.306 . S
O29 Cd30 2.228 . S
Cd30 O29 2.228 . S
Cd30 O34 2.273 . S
Cd30 O38 2.277 . S
O31 C28 1.160 . S
O31 Cd32 2.203 . S
Cd32 O31 2.203 . S
Cd32 O34 2.411 . S
Cd32 O35 2.333 . S
Cd32 O36 2.352 . S
Cd32 O40 2.277 . S
Cd32 O41 2.356 . S
C33 O38 1.209 . S
C33 O40 1.226 . S
O34 Cd30 2.273 . S
O34 Cd32 2.411 . S
O34 C37 1.320 . S
O35 Cd32 2.333 . S
O35 C37 1.214 . S
O36 Cd32 2.352 . S
O36 C39 1.258 . S
C37 O34 1.320 . S
C37 O35 1.214 . S
O38 Cd30 2.277 . S
O38 C33 1.209 . S
C39 O36 1.258 . S
C39 O41 1.282 . S
O40 Cd32 2.277 . S
O40 C33 1.226 . S
O41 Cd32 2.356 . S
O41 C39 1.282 . S
C42 O43 1.306 . S
C42 O45 1.160 . S
O43 C42 1.306 . S
O43 Cd44 2.228 . S
Cd44 O43 2.228 . S
Cd44 O48 2.273 . S
Cd44 O52 2.277 . S
O45 C42 1.160 . S
O45 Cd46 2.203 . S
Cd46 O45 2.203 . S
Cd46 O48 2.411 . S
Cd46 O49 2.333 . S
Cd46 O50 2.352 . S
Cd46 O54 2.277 . S
Cd46 O55 2.356 . S
C47 O52 1.209 . S
C47 O54 1.226 . S
O48 Cd44 2.273 . S
O48 Cd46 2.411 . S
O48 C51 1.320 . S
O49 Cd46 2.333 . S
O49 C51 1.214 . S
O50 Cd46 2.352 . S
O50 C53 1.258 . S
C51 O48 1.320 . S
C51 O49 1.214 . S
O52 Cd44 2.277 . S
O52 C47 1.209 . S
C53 O50 1.258 . S
C53 O55 1.282 . S
O54 Cd46 2.277 . S
O54 C47 1.226 . S
O55 Cd46 2.356 . S
O55 C53 1.282 . S
C56 O57 1.306 . S
C56 O59 1.160 . S
O57 C56 1.306 . S
O57 Cd58 2.228 . S
Cd58 O57 2.228 . S
Cd58 O62 2.273 . S
Cd58 O66 2.277 . S
O59 C56 1.160 . S
O59 Cd60 2.203 . S
Cd60 O59 2.203 . S
Cd60 O62 2.411 . S
Cd60 O63 2.333 . S
Cd60 O64 2.352 . S
Cd60 O68 2.277 . S
Cd60 O69 2.356 . S
C61 O66 1.209 . S
C61 O68 1.226 . S
O62 Cd58 2.273 . S
O62 Cd60 2.411 . S
O62 C65 1.320 . S
O63 Cd60 2.333 . S
O63 C65 1.214 . S
O64 Cd60 2.352 . S
O64 C67 1.258 . S
C65 O62 1.320 . S
C65 O63 1.214 . S
O66 Cd58 2.277 . S
O66 C61 1.209 . S
C67 O64 1.258 . S
C67 O69 1.282 . S
O68 Cd60 2.277 . S
O68 C61 1.226 . S
O69 Cd60 2.356 . S
O69 C67 1.282 . S
C70 O71 1.306 . S
C70 O73 1.160 . S
O71 C70 1.306 . S
O71 Cd72 2.228 . S
Cd72 O71 2.228 . S
Cd72 O76 2.273 . S
Cd72 O80 2.277 . S
O73 C70 1.160 . S
O73 Cd74 2.203 . S
Cd74 O73 2.203 . S
Cd74 O76 2.411 . S
Cd74 O77 2.333 . S
Cd74 O78 2.352 . S
Cd74 O82 2.277 . S
Cd74 O83 2.356 . S
C75 O80 1.209 . S
C75 O82 1.226 . S
O76 Cd72 2.273 . S
O76 Cd74 2.411 . S
O76 C79 1.320 . S
O77 Cd74 2.333 . S
O77 C79 1.214 . S
O78 Cd74 2.352 . S
O78 C81 1.258 . S
C79 O76 1.320 . S
C79 O77 1.214 . S
O80 Cd72 2.277 . S
O80 C75 1.209 . S
C81 O78 1.258 . S
C81 O83 1.282 . S
O82 Cd74 2.277 . S
O82 C75 1.226 . S
O83 Cd74 2.356 . S
O83 C81 1.282 . S
C84 O85 1.306 . S
C84 O87 1.160 . S
O85 C84 1.306 . S
O85 Cd86 2.228 . S
Cd86 O85 2.228 . S
Cd86 O90 2.273 . S
Cd86 O94 2.277 . S
O87 C84 1.160 . S
O87 Cd88 2.203 . S
Cd88 O87 2.203 . S
Cd88 O90 2.411 . S
Cd88 O91 2.333 . S
Cd88 O92 2.352 . S
Cd88 O96 2.277 . S
Cd88 O97 2.356 . S
C89 O94 1.209 . S
C89 O96 1.226 . S
O90 Cd86 2.273 . S
O90 Cd88 2.411 . S
O90 C93 1.320 . S
O91 Cd88 2.333 . S
O91 C93 1.214 . S
O92 Cd88 2.352 . S
O92 C95 1.258 . S
C93 O90 1.320 . S
C93 O91 1.214 . S
O94 Cd86 2.277 . S
O94 C89 1.209 . S
C95 O92 1.258 . S
C95 O97 1.282 . S
O96 Cd88 2.277 . S
O96 C89 1.226 . S
O97 Cd88 2.356 . S
O97 C95 1.282 . S
C98 O99 1.306 . S
C98 O101 1.160 . S
O99 C98 1.306 . S
O99 Cd100 2.228 . S
Cd100 O99 2.228 . S
Cd100 O104 2.273 . S
Cd100 O108 2.277 . S
O101 C98 1.160 . S
O101 Cd102 2.203 . S
Cd102 O101 2.203 . S
Cd102 O104 2.411 . S
Cd102 O105 2.333 . S
Cd102 O106 2.352 . S
Cd102 O110 2.277 . S
Cd102 O111 2.356 . S
C103 O108 1.209 . S
C103 O110 1.226 . S
O104 Cd100 2.273 . S
O104 Cd102 2.411 . S
O104 C107 1.320 . S
O105 Cd102 2.333 . S
O105 C107 1.214 . S
O106 Cd102 2.352 . S
O106 C109 1.258 . S
C107 O104 1.320 . S
C107 O105 1.214 . S
O108 Cd100 2.277 . S
O108 C103 1.209 . S
C109 O106 1.258 . S
C109 O111 1.282 . S
O110 Cd102 2.277 . S
O110 C103 1.226 . S
O111 Cd102 2.356 . S
O111 C109 1.282 . S
C112 O113 1.306 . S
C112 O115 1.160 . S
O113 C112 1.306 . S
O113 Cd114 2.228 . S
Cd114 O113 2.228 . S
Cd114 O118 2.273 . S
Cd114 O122 2.277 . S
O115 C112 1.160 . S
O115 Cd116 2.203 . S
Cd116 O115 2.203 . S
Cd116 O118 2.411 . S
Cd116 O119 2.333 . S
Cd116 O120 2.352 . S
Cd116 O124 2.277 . S
Cd116 O125 2.356 . S
C117 O122 1.209 . S
C117 O124 1.226 . S
O118 Cd114 2.273 . S
O118 Cd116 2.411 . S
O118 C121 1.320 . S
O119 Cd116 2.333 . S
O119 C121 1.214 . S
O120 Cd116 2.352 . S
O120 C123 1.258 . S
C121 O118 1.320 . S
C121 O119 1.214 . S
O122 Cd114 2.277 . S
O122 C117 1.209 . S
C123 O120 1.258 . S
C123 O125 1.282 . S
O124 Cd116 2.277 . S
O124 C117 1.226 . S
O125 Cd116 2.356 . S
O125 C123 1.282 . S
C126 O127 1.306 . S
C126 O129 1.160 . S
O127 C126 1.306 . S
O127 Cd128 2.228 . S
Cd128 O127 2.228 . S
Cd128 O132 2.273 . S
Cd128 O136 2.277 . S
O129 C126 1.160 . S
O129 Cd130 2.203 . S
Cd130 O129 2.203 . S
Cd130 O132 2.411 . S
Cd130 O133 2.333 . S
Cd130 O134 2.352 . S
Cd130 O138 2.277 . S
Cd130 O139 2.356 . S
C131 O136 1.209 . S
C131 O138 1.226 . S
O132 Cd128 2.273 . S
O132 Cd130 2.411 . S
O132 C135 1.320 . S
O133 Cd130 2.333 . S
O133 C135 1.214 . S
O134 Cd130 2.352 . S
O134 C137 1.258 . S
C135 O132 1.320 . S
C135 O133 1.214 . S
O136 Cd128 2.277 . S
O136 C131 1.209 . S
C137 O134 1.258 . S
C137 O139 1.282 . S
O138 Cd130 2.277 . S
O138 C131 1.226 . S
O139 Cd130 2.356 . S
O139 C137 1.282 . S
C140 O141 1.306 . S
C140 O143 1.160 . S
O141 C140 1.306 . S
O141 Cd142 2.228 . S
Cd142 O141 2.228 . S
Cd142 O146 2.273 . S
Cd142 O150 2.277 . S
O143 C140 1.160 . S
O143 Cd144 2.203 . S
Cd144 O143 2.203 . S
Cd144 O146 2.411 . S
Cd144 O147 2.333 . S
Cd144 O148 2.352 . S
Cd144 O152 2.277 . S
Cd144 O153 2.356 . S
C145 O150 1.209 . S
C145 O152 1.226 . S
O146 Cd142 2.273 . S
O146 Cd144 2.411 . S
O146 C149 1.320 . S
O147 Cd144 2.333 . S
O147 C149 1.214 . S
O148 Cd144 2.352 . S
O148 C151 1.258 . S
C149 O146 1.320 . S
C149 O147 1.214 . S
O150 Cd142 2.277 . S
O150 C145 1.209 . S
C151 O148 1.258 . S
C151 O153 1.282 . S
O152 Cd144 2.277 . S
O152 C145 1.226 . S
O153 Cd144 2.356 . S
O153 C151 1.282 . S
C154 O155 1.306 . S
C154 O157 1.160 . S
O155 C154 1.306 . S
O155 Cd156 2.228 . S
Cd156 O155 2.228 . S
Cd156 O160 2.273 . S
Cd156 O164 2.277 . S
O157 C154 1.160 . S
O157 Cd158 2.203 . S
Cd158 O157 2.203 . S
Cd158 O160 2.411 . S
Cd158 O161 2.333 . S
Cd158 O162 2.352 . S
Cd158 O166 2.277 . S
Cd158 O167 2.356 . S
C159 O164 1.209 . S
C159 O166 1.226 . S
O160 Cd156 2.273 . S
O160 Cd158 2.411 . S
O160 C163 1.320 . S
O161 Cd158 2.333 . S
O161 C163 1.214 . S
O162 Cd158 2.352 . S
O162 C165 1.258 . S
C163 O160 1.320 . S
C163 O161 1.214 . S
O164 Cd156 2.277 . S
O164 C159 1.209 . S
C165 O162 1.258 . S
C165 O167 1.282 . S
O166 Cd158 2.277 . S
O166 C159 1.226 . S
O167 Cd158 2.356 . S
O167 C165 1.282 . S
C168 C169 1.363 . S
C168 C174 1.379 . S
C168 N176 1.356 . S
C169 C168 1.363 . S
C169 C175 1.363 . S
C170 C171 1.363 . S
C170 C175 1.379 . S
C170 N177 1.356 . S
C171 C170 1.363 . S
C171 C174 1.363 . S
N172 C174 1.356 . S
N172 H184 0.984 . S
N172 H185 0.985 . S
N173 C175 1.356 . S
N173 H178 0.984 . S
N173 H179 0.985 . S
C174 C168 1.379 . S
C174 C171 1.363 . S
C174 N172 1.356 . S
C175 C169 1.363 . S
C175 C170 1.379 . S
C175 N173 1.356 . S
N176 C168 1.356 . S
N176 H182 0.984 . S
N176 H183 0.984 . S
N177 C170 1.356 . S
N177 H180 0.984 . S
N177 H181 0.985 . S
H178 N173 0.984 . S
H179 N173 0.985 . S
H180 N177 0.984 . S
H181 N177 0.985 . S
H182 N176 0.984 . S
H183 N176 0.984 . S
H184 N172 0.984 . S
H185 N172 0.985 . S
C186 C187 1.363 . S
C186 C192 1.379 . S
C186 N194 1.356 . S
C187 C186 1.363 . S
C187 C193 1.363 . S
C188 C189 1.363 . S
C188 C193 1.379 . S
C188 N195 1.356 . S
C189 C188 1.363 . S
C189 C192 1.363 . S
N190 C192 1.356 . S
N190 H202 0.984 . S
N190 H203 0.985 . S
N191 C193 1.356 . S
N191 H196 0.984 . S
N191 H197 0.985 . S
C192 C186 1.379 . S
C192 C189 1.363 . S
C192 N190 1.356 . S
C193 C187 1.363 . S
C193 C188 1.379 . S
C193 N191 1.356 . S
N194 C186 1.356 . S
N194 H200 0.984 . S
N194 H201 0.984 . S
N195 C188 1.356 . S
N195 H198 0.984 . S
N195 H199 0.985 . S
H196 N191 0.984 . S
H197 N191 0.985 . S
H198 N195 0.984 . S
H199 N195 0.985 . S
H200 N194 0.984 . S
H201 N194 0.984 . S
H202 N190 0.984 . S
H203 N190 0.985 . S
C204 C205 1.363 . S
C204 C210 1.379 . S
C204 N212 1.356 . S
C205 C204 1.363 . S
C205 C211 1.363 . S
C206 C207 1.363 . S
C206 C211 1.379 . S
C206 N213 1.356 . S
C207 C206 1.363 . S
C207 C210 1.363 . S
N208 C210 1.356 . S
N208 H220 0.984 . S
N208 H221 0.985 . S
N209 C211 1.356 . S
N209 H214 0.984 . S
N209 H215 0.985 . S
C210 C204 1.379 . S
C210 C207 1.363 . S
C210 N208 1.356 . S
C211 C205 1.363 . S
C211 C206 1.379 . S
C211 N209 1.356 . S
N212 C204 1.356 . S
N212 H218 0.984 . S
N212 H219 0.984 . S
N213 C206 1.356 . S
N213 H216 0.984 . S
N213 H217 0.985 . S
H214 N209 0.984 . S
H215 N209 0.985 . S
H216 N213 0.984 . S
H217 N213 0.985 . S
H218 N212 0.984 . S
H219 N212 0.984 . S
H220 N208 0.984 . S
H221 N208 0.985 . S
C222 C223 1.363 . S
C222 C228 1.379 . S
C222 N230 1.356 . S
C223 C222 1.363 . S
C223 C229 1.363 . S
C224 C225 1.363 . S
C224 C229 1.379 . S
C224 N231 1.356 . S
C225 C224 1.363 . S
C225 C228 1.363 . S
N226 C228 1.356 . S
N226 H238 0.984 . S
N226 H239 0.985 . S
N227 C229 1.356 . S
N227 H232 0.984 . S
N227 H233 0.985 . S
C228 C222 1.379 . S
C228 C225 1.363 . S
C228 N226 1.356 . S
C229 C223 1.363 . S
C229 C224 1.379 . S
C229 N227 1.356 . S
N230 C222 1.356 . S
N230 H236 0.984 . S
N230 H237 0.984 . S
N231 C224 1.356 . S
N231 H234 0.984 . S
N231 H235 0.985 . S
H232 N227 0.984 . S
H233 N227 0.985 . S
H234 N231 0.984 . S
H235 N231 0.985 . S
H236 N230 0.984 . S
H237 N230 0.984 . S
H238 N226 0.984 . S
H239 N226 0.985 . S
C240 C241 1.363 . S
C240 C246 1.379 . S
C240 N248 1.356 . S
C241 C240 1.363 . S
C241 C247 1.363 . S
C242 C243 1.363 . S
C242 C247 1.379 . S
C242 N249 1.356 . S
C243 C242 1.363 . S
C243 C246 1.363 . S
N244 C246 1.356 . S
N244 H256 0.984 . S
N244 H257 0.985 . S
N245 C247 1.356 . S
N245 H250 0.984 . S
N245 H251 0.985 . S
C246 C240 1.379 . S
C246 C243 1.363 . S
C246 N244 1.356 . S
C247 C241 1.363 . S
C247 C242 1.379 . S
C247 N245 1.356 . S
N248 C240 1.356 . S
N248 H254 0.984 . S
N248 H255 0.984 . S
N249 C242 1.356 . S
N249 H252 0.984 . S
N249 H253 0.985 . S
H250 N245 0.984 . S
H251 N245 0.985 . S
H252 N249 0.984 . S
H253 N249 0.985 . S
H254 N248 0.984 . S
H255 N248 0.984 . S
H256 N244 0.984 . S
H257 N244 0.985 . S
C258 C259 1.363 . S
C258 C264 1.379 . S
C258 N266 1.356 . S
C259 C258 1.363 . S
C259 C265 1.363 . S
C260 C261 1.363 . S
C260 C265 1.379 . S
C260 N267 1.356 . S
C261 C260 1.363 . S
C261 C264 1.363 . S
N262 C264 1.356 . S
N262 H274 0.984 . S
N262 H275 0.985 . S
N263 C265 1.356 . S
N263 H268 0.984 . S
N263 H269 0.985 . S
C264 C258 1.379 . S
C264 C261 1.363 . S
C264 N262 1.356 . S
C265 C259 1.363 . S
C265 C260 1.379 . S
C265 N263 1.356 . S
N266 C258 1.356 . S
N266 H272 0.984 . S
N266 H273 0.984 . S
N267 C260 1.356 . S
N267 H270 0.984 . S
N267 H271 0.985 . S
H268 N263 0.984 . S
H269 N263 0.985 . S
H270 N267 0.984 . S
H271 N267 0.985 . S
H272 N266 0.984 . S
H273 N266 0.984 . S
H274 N262 0.984 . S
H275 N262 0.985 . S
C276 C277 1.363 . S
C276 C282 1.379 . S
C276 N284 1.356 . S
C277 C276 1.363 . S
C277 C283 1.363 . S
C278 C279 1.363 . S
C278 C283 1.379 . S
C278 N285 1.356 . S
C279 C278 1.363 . S
C279 C282 1.363 . S
N280 C282 1.356 . S
N280 H292 0.984 . S
N280 H293 0.985 . S
N281 C283 1.356 . S
N281 H286 0.984 . S
N281 H287 0.985 . S
C282 C276 1.379 . S
C282 C279 1.363 . S
C282 N280 1.356 . S
C283 C277 1.363 . S
C283 C278 1.379 . S
C283 N281 1.356 . S
N284 C276 1.356 . S
N284 H290 0.984 . S
N284 H291 0.984 . S
N285 C278 1.356 . S
N285 H288 0.984 . S
N285 H289 0.985 . S
H286 N281 0.984 . S
H287 N281 0.985 . S
H288 N285 0.984 . S
H289 N285 0.985 . S
H290 N284 0.984 . S
H291 N284 0.984 . S
H292 N280 0.984 . S
H293 N280 0.985 . S
C294 C295 1.363 . S
C294 C300 1.379 1_655 S
C294 N302 1.356 . S
C295 C294 1.363 . S
C295 C301 1.363 . S
C296 C297 1.363 . S
C296 C301 1.379 1_455 S
C296 N303 1.356 . S
C297 C296 1.363 . S
C297 C300 1.363 . S
N298 C300 1.356 . S
N298 H310 0.984 1_455 S
N298 H311 0.985 . S
N299 C301 1.356 . S
N299 H304 0.984 . S
N299 H305 0.985 1_655 S
C300 C294 1.379 1_455 S
C300 C297 1.363 . S
C300 N298 1.356 . S
C301 C295 1.363 . S
C301 C296 1.379 1_655 S
C301 N299 1.356 . S
N302 C294 1.356 . S
N302 H308 0.984 . S
N302 H309 0.984 . S
N303 C296 1.356 . S
N303 H306 0.984 . S
N303 H307 0.985 . S
H304 N299 0.984 . S
H305 N299 0.985 1_455 S
H306 N303 0.984 . S
H307 N303 0.985 . S
H308 N302 0.984 . S
H309 N302 0.984 . S
H310 N298 0.984 1_655 S
H311 N298 0.985 . S
C312 C313 1.363 . S
C312 C318 1.379 1_545 S
C312 N320 1.356 . S
C313 C312 1.363 . S
C313 C319 1.363 . S
C314 C315 1.363 . S
C314 C319 1.379 1_565 S
C314 N321 1.356 . S
C315 C314 1.363 . S
C315 C318 1.363 . S
N316 C318 1.356 . S
N316 H328 0.984 1_565 S
N316 H329 0.985 . S
N317 C319 1.356 . S
N317 H322 0.984 . S
N317 H323 0.985 1_545 S
C318 C312 1.379 1_565 S
C318 C315 1.363 . S
C318 N316 1.356 . S
C319 C313 1.363 . S
C319 C314 1.379 1_545 S
C319 N317 1.356 . S
N320 C312 1.356 . S
N320 H326 0.984 . S
N320 H327 0.984 . S
N321 C314 1.356 . S
N321 H324 0.984 . S
N321 H325 0.985 . S
H322 N317 0.984 . S
H323 N317 0.985 1_565 S
H324 N321 0.984 . S
H325 N321 0.985 . S
H326 N320 0.984 . S
H327 N320 0.984 . S
H328 N316 0.984 1_545 S
H329 N316 0.985 . S
C330 C331 1.363 . S
C330 C336 1.379 . S
C330 N338 1.356 . S
C331 C330 1.363 . S
C331 C337 1.363 . S
C332 C333 1.363 . S
C332 C337 1.379 . S
C332 N339 1.356 . S
C333 C332 1.363 . S
C333 C336 1.363 . S
N334 C336 1.356 . S
N334 H346 0.984 . S
N334 H347 0.985 . S
N335 C337 1.356 . S
N335 H340 0.984 . S
N335 H341 0.985 . S
C336 C330 1.379 . S
C336 C333 1.363 . S
C336 N334 1.356 . S
C337 C331 1.363 . S
C337 C332 1.379 . S
C337 N335 1.356 . S
N338 C330 1.356 . S
N338 H344 0.984 . S
N338 H345 0.984 . S
N339 C332 1.356 . S
N339 H342 0.984 . S
N339 H343 0.985 . S
H340 N335 0.984 . S
H341 N335 0.985 . S
H342 N339 0.984 . S
H343 N339 0.985 . S
H344 N338 0.984 . S
H345 N338 0.984 . S
H346 N334 0.984 . S
H347 N334 0.985 . S
C348 C349 1.363 . S
C348 C354 1.379 1_655 S
C348 N356 1.356 . S
C349 C348 1.363 . S
C349 C355 1.363 . S
C350 C351 1.363 . S
C350 C355 1.379 1_455 S
C350 N357 1.356 . S
C351 C350 1.363 . S
C351 C354 1.363 . S
N352 C354 1.356 . S
N352 H364 0.984 . S
N352 H365 0.985 . S
N353 C355 1.356 . S
N353 H358 0.984 . S
N353 H359 0.985 . S
C354 C348 1.379 1_455 S
C354 C351 1.363 . S
C354 N352 1.356 . S
C355 C349 1.363 . S
C355 C350 1.379 1_655 S
C355 N353 1.356 . S
N356 C348 1.356 . S
N356 H362 0.984 . S
N356 H363 0.984 . S
N357 C350 1.356 . S
N357 H360 0.984 . S
N357 H361 0.985 . S
H358 N353 0.984 . S
H359 N353 0.985 . S
H360 N357 0.984 . S
H361 N357 0.985 . S
H362 N356 0.984 . S
H363 N356 0.984 . S
H364 N352 0.984 . S
H365 N352 0.985 . S
C366 C367 1.352 1_556 S
C366 C372 1.389 1_565 S
C366 N374 1.353 1_556 S
C367 C366 1.352 1_554 S
C367 C373 1.363 . S
C368 C369 1.353 1_554 S
C368 C373 1.389 1_545 S
C368 N375 1.353 1_554 S
C369 C368 1.353 1_556 S
C369 C372 1.363 . S
N370 C372 1.356 . S
N370 H382 0.984 . S
N370 H383 0.985 . S
N371 C373 1.356 . S
N371 H376 0.984 . S
N371 H377 0.985 . S
C372 C366 1.389 1_545 S
C372 C369 1.363 . S
C372 N370 1.356 . S
C373 C367 1.363 . S
C373 C368 1.389 1_565 S
C373 N371 1.356 . S
N374 C366 1.353 1_554 S
N374 H380 0.984 1_554 S
N374 H381 0.984 . S
N375 C368 1.353 1_556 S
N375 H378 0.984 . S
N375 H379 0.985 1_556 S
H376 N371 0.984 . S
H377 N371 0.985 . S
H378 N375 0.984 . S
H379 N375 0.985 1_554 S
H380 N374 0.984 1_556 S
H381 N374 0.984 . S
H382 N370 0.984 . S
H383 N370 0.985 . S
C384 C385 1.363 . S
C384 C390 1.379 . S
C384 N392 1.356 . S
C385 C384 1.363 . S
C385 C391 1.363 . S
C386 C387 1.363 . S
C386 C391 1.379 1_556 S
C386 N393 1.356 . S
C387 C386 1.363 . S
C387 C390 1.363 1_556 S
N388 C390 1.356 . S
N388 H400 0.984 . S
N388 H401 0.985 1_554 S
N389 C391 1.356 . S
N389 H394 0.984 . S
N389 H395 0.985 . S
C390 C384 1.379 . S
C390 C387 1.363 1_554 S
C390 N388 1.356 . S
C391 C385 1.363 . S
C391 C386 1.379 1_554 S
C391 N389 1.356 . S
N392 C384 1.356 . S
N392 H398 0.984 . S
N392 H399 0.984 . S
N393 C386 1.356 . S
N393 H396 0.984 . S
N393 H397 0.985 . S
H394 N389 0.984 . S
H395 N389 0.985 . S
H396 N393 0.984 . S
H397 N393 0.985 . S
H398 N392 0.984 . S
H399 N392 0.984 . S
H400 N388 0.984 . S
H401 N388 0.985 1_556 S
C402 C403 1.363 . S
C402 C408 1.379 . S
C402 N410 1.356 . S
C403 C402 1.363 . S
C403 C409 1.363 . S
C404 C405 1.363 . S
C404 C409 1.379 . S
C404 N411 1.356 . S
C405 C404 1.363 . S
C405 C408 1.363 . S
N406 C408 1.356 . S
N406 H418 0.984 . S
N406 H419 0.985 1_655 S
N407 C409 1.356 . S
N407 H412 0.984 . S
N407 H413 0.985 . S
C408 C402 1.379 . S
C408 C405 1.363 . S
C408 N406 1.356 . S
C409 C403 1.363 . S
C409 C404 1.379 . S
C409 N407 1.356 . S
N410 C402 1.356 . S
N410 H416 0.984 . S
N410 H417 0.984 . S
N411 C404 1.356 . S
N411 H414 0.984 1_655 S
N411 H415 0.985 . S
H412 N407 0.984 . S
H413 N407 0.985 . S
H414 N411 0.984 1_455 S
H415 N411 0.985 . S
H416 N410 0.984 . S
H417 N410 0.984 . S
H418 N406 0.984 . S
H419 N406 0.985 1_455 S
C420 C421 1.363 . S
C420 C426 1.379 . S
C420 N428 1.356 . S
C421 C420 1.363 . S
C421 C427 1.363 . S
C422 C423 1.363 . S
C422 C427 1.379 . S
C422 N429 1.356 . S
C423 C422 1.363 . S
C423 C426 1.363 . S
N424 C426 1.356 . S
N424 H436 0.984 . S
N424 H437 0.985 . S
N425 C427 1.356 1_545 S
N425 H430 0.984 . S
N425 H431 0.985 . S
C426 C420 1.379 . S
C426 C423 1.363 . S
C426 N424 1.356 . S
C427 C421 1.363 . S
C427 C422 1.379 . S
C427 N425 1.356 1_565 S
N428 C420 1.356 . S
N428 H434 0.984 . S
N428 H435 0.984 . S
N429 C422 1.356 . S
N429 H432 0.984 . S
N429 H433 0.985 . S
H430 N425 0.984 . S
H431 N425 0.985 . S
H432 N429 0.984 . S
H433 N429 0.985 . S
H434 N428 0.984 . S
H435 N428 0.984 . S
H436 N424 0.984 . S
H437 N424 0.985 . S
C438 C439 1.363 . S
C438 C444 1.379 . S
C438 N446 1.356 . S
C439 C438 1.363 . S
C439 C445 1.363 . S
C440 C441 1.363 . S
C440 C445 1.379 . S
C440 N447 1.356 . S
C441 C440 1.363 . S
C441 C444 1.363 . S
N442 C444 1.356 . S
N442 H454 0.984 . S
N442 H455 0.985 . S
N443 C445 1.356 . S
N443 H448 0.984 . S
N443 H449 0.985 . S
C444 C438 1.379 . S
C444 C441 1.363 . S
C444 N442 1.356 . S
C445 C439 1.363 . S
C445 C440 1.379 . S
C445 N443 1.356 . S
N446 C438 1.356 . S
N446 H452 0.984 . S
N446 H453 0.984 . S
N447 C440 1.356 . S
N447 H450 0.984 . S
N447 H451 0.985 . S
H448 N443 0.984 . S
H449 N443 0.985 . S
H450 N447 0.984 . S
H451 N447 0.985 . S
H452 N446 0.984 . S
H453 N446 0.984 . S
H454 N442 0.984 . S
H455 N442 0.985 . S
C456 C457 1.363 . S
C456 C462 1.379 . S
C456 N464 1.356 . S
C457 C456 1.363 . S
C457 C463 1.363 . S
C458 C459 1.363 . S
C458 C463 1.379 . S
C458 N465 1.356 . S
C459 C458 1.363 . S
C459 C462 1.363 . S
N460 C462 1.356 1_655 S
N460 H472 0.984 . S
N460 H473 0.985 . S
N461 C463 1.356 . S
N461 H466 0.984 . S
N461 H467 0.985 . S
C462 C456 1.379 . S
C462 C459 1.363 . S
C462 N460 1.356 1_455 S
C463 C457 1.363 . S
C463 C458 1.379 . S
C463 N461 1.356 . S
N464 C456 1.356 . S
N464 H470 0.984 . S
N464 H471 0.984 . S
N465 C458 1.356 . S
N465 H468 0.984 . S
N465 H469 0.985 . S
H466 N461 0.984 . S
H467 N461 0.985 . S
H468 N465 0.984 . S
H469 N465 0.985 . S
H470 N464 0.984 . S
H471 N464 0.984 . S
H472 N460 0.984 . S
H473 N460 0.985 . S
C474 C475 1.363 . S
C474 C480 1.379 . S
C474 N482 1.356 . S
C475 C474 1.363 . S
C475 C481 1.363 . S
C476 C477 1.363 . S
C476 C481 1.379 . S
C476 N483 1.356 1_545 S
C477 C476 1.363 . S
C477 C480 1.363 . S
N478 C480 1.356 . S
N478 H490 0.984 . S
N478 H491 0.985 . S
N479 C481 1.356 . S
N479 H484 0.984 . S
N479 H485 0.985 . S
C480 C474 1.379 . S
C480 C477 1.363 . S
C480 N478 1.356 . S
C481 C475 1.363 . S
C481 C476 1.379 . S
C481 N479 1.356 . S
N482 C474 1.356 . S
N482 H488 0.984 . S
N482 H489 0.984 . S
N483 C476 1.356 1_565 S
N483 H486 0.984 . S
N483 H487 0.985 . S
H484 N479 0.984 . S
H485 N479 0.985 . S
H486 N483 0.984 . S
H487 N483 0.985 . S
H488 N482 0.984 . S
H489 N482 0.984 . S
H490 N478 0.984 . S
H491 N478 0.985 . S
C492 C493 1.363 . S
C492 C498 1.379 . S
C492 N500 1.356 . S
C493 C492 1.363 . S
C493 C499 1.363 . S
C494 C495 1.363 . S
C494 C499 1.379 . S
C494 N501 1.356 . S
C495 C494 1.363 . S
C495 C498 1.363 . S
N496 C498 1.356 . S
N496 H508 0.984 . S
N496 H509 0.985 . S
N497 C499 1.356 . S
N497 H502 0.984 . S
N497 H503 0.985 . S
C498 C492 1.379 . S
C498 C495 1.363 . S
C498 N496 1.356 . S
C499 C493 1.363 . S
C499 C494 1.379 . S
C499 N497 1.356 . S
N500 C492 1.356 . S
N500 H506 0.984 . S
N500 H507 0.984 . S
N501 C494 1.356 . S
N501 H504 0.984 . S
N501 H505 0.985 . S
H502 N497 0.984 . S
H503 N497 0.985 . S
H504 N501 0.984 . S
H505 N501 0.985 . S
H506 N500 0.984 . S
H507 N500 0.984 . S
H508 N496 0.984 . S
H509 N496 0.985 . S
C510 C511 1.363 . S
C510 C516 1.379 1_556 S
C510 N518 1.356 . S
C511 C510 1.363 . S
C511 C517 1.363 . S
C512 C513 1.363 1_556 S
C512 C517 1.379 . S
C512 N519 1.356 1_655 S
C513 C512 1.363 1_554 S
C513 C516 1.363 . S
N514 C516 1.356 . S
N514 H526 0.984 . S
N514 H527 0.985 . S
N515 C517 1.356 . S
N515 H520 0.984 . S
N515 H521 0.985 1_655 S
C516 C510 1.379 1_554 S
C516 C513 1.363 . S
C516 N514 1.356 . S
C517 C511 1.363 . S
C517 C512 1.379 . S
C517 N515 1.356 . S
N518 C510 1.356 . S
N518 H524 0.984 . S
N518 H525 0.984 . S
N519 C512 1.356 1_455 S
N519 H522 0.984 1_556 S
N519 H523 0.985 . S
H520 N515 0.984 . S
H521 N515 0.985 1_455 S
H522 N519 0.984 1_554 S
H523 N519 0.985 . S
H524 N518 0.984 . S
H525 N518 0.984 . S
H526 N514 0.984 . S
H527 N514 0.985 . S
C528 C529 1.363 . S
C528 C534 1.379 . S
C528 N536 1.356 . S
C529 C528 1.363 . S
C529 C535 1.363 . S
C530 C531 1.363 . S
C530 C535 1.379 . S
C530 N537 1.356 . S
C531 C530 1.363 . S
C531 C534 1.363 . S
N532 C534 1.356 1_545 S
N532 H544 0.984 . S
N532 H545 0.985 . S
N533 C535 1.356 . S
N533 H538 0.984 . S
N533 H539 0.985 . S
C534 C528 1.379 . S
C534 C531 1.363 . S
C534 N532 1.356 1_565 S
C535 C529 1.363 . S
C535 C530 1.379 . S
C535 N533 1.356 . S
N536 C528 1.356 . S
N536 H542 0.984 . S
N536 H543 0.984 . S
N537 C530 1.356 . S
N537 H540 0.984 . S
N537 H541 0.985 . S
H538 N533 0.984 . S
H539 N533 0.985 . S
H540 N537 0.984 . S
H541 N537 0.985 . S
H542 N536 0.984 . S
H543 N536 0.984 . S
H544 N532 0.984 . S
H545 N532 0.985 . S
C546 C547 1.363 . S
C546 C552 1.379 . S
C546 N554 1.356 . S
C547 C546 1.363 . S
C547 C553 1.363 . S
C548 C549 1.363 . S
C548 C553 1.379 . S
C548 N555 1.356 . S
C549 C548 1.363 . S
C549 C552 1.363 . S
N550 C552 1.356 . S
N550 H562 0.984 . S
N550 H563 0.985 . S
N551 C553 1.356 . S
N551 H556 0.984 . S
N551 H557 0.985 . S
C552 C546 1.379 . S
C552 C549 1.363 . S
C552 N550 1.356 . S
C553 C547 1.363 . S
C553 C548 1.379 . S
C553 N551 1.356 . S
N554 C546 1.356 . S
N554 H560 0.984 . S
N554 H561 0.984 . S
N555 C548 1.356 . S
N555 H558 0.984 . S
N555 H559 0.985 . S
H556 N551 0.984 . S
H557 N551 0.985 . S
H558 N555 0.984 . S
H559 N555 0.985 . S
H560 N554 0.984 . S
H561 N554 0.984 . S
H562 N550 0.984 . S
H563 N550 0.985 . S
C564 C565 1.363 . S
C564 C570 1.379 . S
C564 N572 1.356 . S
C565 C564 1.363 . S
C565 C571 1.363 . S
C566 C567 1.363 . S
C566 C571 1.379 . S
C566 N573 1.356 . S
C567 C566 1.363 . S
C567 C570 1.363 . S
N568 C570 1.356 1_655 S
N568 H580 0.984 . S
N568 H581 0.985 . S
N569 C571 1.356 . S
N569 H574 0.984 . S
N569 H575 0.985 . S
C570 C564 1.379 . S
C570 C567 1.363 . S
C570 N568 1.356 1_455 S
C571 C565 1.363 . S
C571 C566 1.379 . S
C571 N569 1.356 . S
N572 C564 1.356 . S
N572 H578 0.984 1_455 S
N572 H579 0.984 . S
N573 C566 1.356 . S
N573 H576 0.984 . S
N573 H577 0.985 . S
H574 N569 0.984 . S
H575 N569 0.985 . S
H576 N573 0.984 . S
H577 N573 0.985 . S
H578 N572 0.984 1_655 S
H579 N572 0.984 . S
H580 N568 0.984 . S
H581 N568 0.985 . S
C582 C583 1.363 . S
C582 C588 1.379 . S
C582 N590 1.356 1_545 S
C583 C582 1.363 . S
C583 C589 1.363 . S
C584 C585 1.363 . S
C584 C589 1.379 . S
C584 N591 1.356 . S
C585 C584 1.363 . S
C585 C588 1.363 . S
N586 C588 1.356 . S
N586 H598 0.984 . S
N586 H599 0.985 . S
N587 C589 1.356 . S
N587 H592 0.984 . S
N587 H593 0.985 . S
C588 C582 1.379 . S
C588 C585 1.363 . S
C588 N586 1.356 . S
C589 C583 1.363 . S
C589 C584 1.379 . S
C589 N587 1.356 . S
N590 C582 1.356 1_565 S
N590 H596 0.984 . S
N590 H597 0.984 . S
N591 C584 1.356 . S
N591 H594 0.984 . S
N591 H595 0.985 . S
H592 N587 0.984 . S
H593 N587 0.985 . S
H594 N591 0.984 . S
H595 N591 0.985 . S
H596 N590 0.984 . S
H597 N590 0.984 . S
H598 N586 0.984 . S
H599 N586 0.985 . S
C169 C123 1.359 . S
C171 C11 1.359 . S
C187 C25 1.359 . S
C189 C137 1.359 . S
C205 C39 1.359 . S
C207 C151 1.359 . S
C223 C53 1.359 . S
C225 C165 1.359 . S
C241 C95 1.359 . S
C243 C67 1.359 . S
C259 C81 1.359 . S
C261 C109 1.359 . S
C277 C131 1.134 . S
C279 C5 1.134 . S
C295 C19 1.134 . S
C297 C145 1.134 . S
C313 C159 1.134 . S
C315 C33 1.134 . S
C331 C47 1.134 . S
C333 C89 1.134 . S
C349 C103 1.134 . S
C351 C61 1.134 . S
C367 C117 1.134 . S
C369 C75 1.134 . S
C385 C0 1.486 . S
C387 C79 1.481 . S
C403 C14 1.486 . S
C405 C9 1.481 1_655 S
C421 C23 1.481 1_565 S
C423 C28 1.486 . S
C439 C42 1.486 . S
C441 C37 1.481 . S
C457 C56 1.486 . S
C459 C51 1.481 1_455 S
C475 C70 1.486 . S
C477 C65 1.481 1_545 S
C493 C84 1.486 . S
C495 C107 1.481 . S
C511 C98 1.486 . S
C513 C121 1.481 1_655 S
C529 C112 1.486 . S
C531 C135 1.481 1_565 S
C547 C126 1.486 . S
C549 C149 1.481 . S
C565 C140 1.486 . S
C567 C163 1.481 1_455 S
C583 C93 1.481 1_545 S
C585 C154 1.486 . S
