# Generated by pormake.
# Topology dmp, (4)-cn, num edge types: 1
# Building blocks:
#     Node 0, Type 0, BuildingBlock: CEKHIL_clean_sbu_0, # of connection points: 4
#     Node 1, Type 0, BuildingBlock: CEKHIL_clean_sbu_0, # of connection points: 4
#     Node 2, Type 0, BuildingBlock: CEKHIL_clean_sbu_0, # of connection points: 4
#     Node 3, Type 0, BuildingBlock: CEKHIL_clean_sbu_0, # of connection points: 4
#     Edge 4, Type (0, 0), BuildingBlock: MIFKUJ_clean_linker_0, # of connection points: 2
#     Edge 5, Type (0, 0), BuildingBlock: MIFKUJ_clean_linker_0, # of connection points: 2
#     Edge 6, Type (0, 0), BuildingBlock: MIFKUJ_clean_linker_0, # of connection points: 2
#     Edge 7, Type (0, 0), BuildingBlock: MIFKUJ_clean_linker_0, # of connection points: 2
#     Edge 8, Type (0, 0), BuildingBlock: MIFKUJ_clean_linker_0, # of connection points: 2
#     Edge 9, Type (0, 0), BuildingBlock: MIFKUJ_clean_linker_0, # of connection points: 2
#     Edge 10, Type (0, 0), BuildingBlock: MIFKUJ_clean_linker_0, # of connection points: 2
#     Edge 11, Type (0, 0), BuildingBlock: MIFKUJ_clean_linker_0, # of connection points: 2
# Relax obj value: 0.089
# Max RMSD: 0.197
# Mean RMSD: 0.197
data_MOF--net-dmp--node1-CEKHIL_clean_sbu_0--edge1-MIFKUJ_clean_linker_0
_symmetry_space_group_name_H-M    P1
_symmetry_Int_Tables_number       1
_symmetry_cell_setting            triclinic
loop_
_symmetry_equiv_pos_as_xyz
'x, y, z'
_cell_length_a     51.296487
_cell_length_b     24.793444
_cell_length_c     18.650644
_cell_angle_alpha  90.036024
_cell_angle_beta   89.912691
_cell_angle_gamma 91.323994
loop_
_atom_site_label
_atom_site_type_symbol
_atom_site_fract_x
_atom_site_fract_y
_atom_site_fract_z
_atom_type_partial_charge
Co0 Co 0.09991 0.23817 0.26819 0.0
O1 O 0.07591 0.29606 0.25798 0.0
O2 O 0.09634 0.27574 0.35858 0.0
C3 C 0.07481 0.17601 0.21167 0.0
O4 O 0.12552 0.18079 0.29934 0.0
Co5 Co 0.12404 0.18287 0.13466 0.0
O6 O 0.13294 0.12646 0.20525 0.0
C7 C 0.14504 0.28881 0.18388 0.0
C8 C 0.07978 0.30592 0.3255 0.0
C9 C 0.13481 0.13767 0.27171 0.0
O10 O 0.12975 0.28738 0.2387 0.0
O11 O 0.14467 0.25275 0.13465 0.0
O12 O 0.07075 0.18677 0.27887 0.0
O13 O 0.09228 0.2057 0.17986 0.0
Co14 Co 0.39399 0.74855 0.26595 0.0
O15 O 0.41938 0.6932 0.25946 0.0
O16 O 0.39784 0.71372 0.35836 0.0
C17 C 0.41807 0.81123 0.20707 0.0
O18 O 0.36695 0.80449 0.29242 0.0
Co19 Co 0.36977 0.79511 0.1269 0.0
O20 O 0.35836 0.85255 0.19324 0.0
C21 C 0.35146 0.68899 0.18158 0.0
C22 C 0.41534 0.68453 0.32713 0.0
C23 C 0.3565 0.84474 0.26062 0.0
O24 O 0.36544 0.6956 0.23826 0.0
O25 O 0.35196 0.72206 0.12878 0.0
O26 O 0.42187 0.80308 0.27501 0.0
O27 O 0.40161 0.77866 0.17629 0.0
Co28 Co 0.8923 0.74918 0.73402 0.0
O29 O 0.91648 0.69168 0.74541 0.0
O30 O 0.89577 0.71039 0.64463 0.0
C31 C 0.91734 0.81232 0.78879 0.0
O32 O 0.86649 0.80569 0.70134 0.0
Co33 Co 0.86805 0.80693 0.86532 0.0
O34 O 0.85866 0.86178 0.79317 0.0
C35 C 0.8471 0.7001 0.81933 0.0
C36 C 0.91244 0.68079 0.67822 0.0
C37 C 0.85677 0.84904 0.7272 0.0
O38 O 0.86268 0.70003 0.76519 0.0
O39 O 0.84705 0.73751 0.86675 0.0
O40 O 0.92132 0.8007 0.72179 0.0
O41 O 0.89991 0.78309 0.82148 0.0
Co42 Co 0.60093 0.23688 0.73304 0.0
O43 O 0.57624 0.293 0.74726 0.0
O44 O 0.59668 0.27713 0.64503 0.0
C45 C 0.5766 0.1722 0.78719 0.0
O46 O 0.62706 0.18174 0.69799 0.0
Co47 Co 0.6262 0.17926 0.8624 0.0
O48 O 0.63514 0.12493 0.7888 0.0
C49 C 0.64594 0.28728 0.81783 0.0
C50 C 0.5798 0.30526 0.68032 0.0
C51 C 0.6367 0.1381 0.72294 0.0
O52 O 0.63033 0.28656 0.7639 0.0
O53 O 0.64622 0.24992 0.86528 0.0
O54 O 0.57235 0.18448 0.72059 0.0
O55 O 0.5939 0.20169 0.81992 0.0
H56 H 0.34771 0.95087 0.23768 0.0
H57 H 0.30993 0.0009 0.2782 0.0
H58 H 0.28512 0.86566 0.40857 0.0
H59 H 0.32338 0.81578 0.3697 0.0
H60 H 0.25984 0.94127 0.24352 0.0
H61 H 0.26756 0.9111 0.51735 0.0
H62 H 0.29586 0.9182 0.62418 0.0
H63 H 0.31814 0.08033 0.56546 0.0
H64 H 0.29011 0.07378 0.458 0.0
H65 H 0.13509 0.02835 0.27986 0.0
H66 H 0.17185 0.9742 0.31793 0.0
H67 H 0.21274 0.11865 0.38867 0.0
H68 H 0.17526 0.17239 0.35465 0.0
H69 H 0.22979 0.03431 0.46333 0.0
H70 H 0.21682 0.07691 0.21449 0.0
H71 H 0.19235 0.08037 0.1009 0.0
H72 H 0.18599 0.90736 0.09741 0.0
H73 H 0.21009 0.90296 0.21165 0.0
C74 C 0.33477 0.93262 0.27723 0.0
C75 C 0.33837 0.87938 0.30026 0.0
C76 C 0.31324 0.96128 0.30044 0.0
C77 C 0.29483 0.9371 0.34665 0.0
C78 C 0.29939 0.88549 0.37416 0.0
C79 C 0.32124 0.85698 0.35173 0.0
C80 C 0.26882 0.96123 0.35314 0.0
C81 C 0.25301 0.9607 0.292 0.0
C82 C 0.26036 0.98783 0.41553 0.0
C83 C 0.27702 0.99179 0.47976 0.0
C84 C 0.27866 0.94806 0.52715 0.0
C85 C 0.29459 0.95202 0.58778 0.0
C86 C 0.30884 -0.00035 0.60152 0.0
C87 C 0.30714 0.04344 0.55471 0.0
C88 C 0.29124 0.03963 0.49399 0.0
C89 C 0.15145 0.04808 0.30661 0.0
C90 C 0.15251 0.10438 0.31406 0.0
C91 C 0.17251 0.01725 0.32796 0.0
C92 C 0.19541 0.04258 0.35399 0.0
C93 C 0.19538 0.09821 0.36839 0.0
C94 C 0.17394 0.12891 0.34897 0.0
C95 C 0.22037 0.01327 0.3539 0.0
C96 C 0.23619 0.01356 0.41545 0.0
C97 C 0.22922 0.98714 0.29101 0.0
C98 C 0.21498 0.98964 0.22195 0.0
C99 C 0.21006 0.03964 0.18969 0.0
C100 C 0.19627 0.04176 0.12521 0.0
C101 C 0.18756 -0.00588 0.09207 0.0
C102 C 0.1927 0.94424 0.12323 0.0
C103 C 0.20642 0.94189 0.18784 0.0
H104 H 0.17688 -0.00416 0.04214 0.0
H105 H 0.32116 0.00265 0.64848 0.0
H106 H 0.18851 0.29263 0.09915 0.0
H107 H 0.22344 0.36114 0.09902 0.0
H108 H 0.18219 0.45245 0.25804 0.0
H109 H 0.14707 0.38381 0.25912 0.0
H110 H 0.20433 0.51596 0.14514 0.0
H111 H 0.22826 0.38192 0.31594 0.0
H112 H 0.23571 0.28921 0.35766 0.0
H113 H 0.2953 0.27101 0.19812 0.0
H114 H 0.28789 0.36338 0.1546 0.0
H115 H 0.33737 0.62056 0.2909 0.0
H116 H 0.30244 0.55199 0.29044 0.0
H117 H 0.28796 0.58402 0.06689 0.0
H118 H 0.32244 0.65347 0.06705 0.0
H119 H 0.29262 0.46024 0.21976 0.0
H120 H 0.22316 0.57724 0.03603 0.0
H121 H 0.21469 0.67129 0.00151 0.0
H122 H 0.24457 0.72714 0.20398 0.0
H123 H 0.2529 0.63341 0.24003 0.0
C124 C 0.18665 0.32751 0.13359 0.0
C125 C 0.16504 0.33261 0.17948 0.0
C126 C 0.20669 0.3665 0.13357 0.0
C127 C 0.20542 0.41143 0.17893 0.0
C128 C 0.18347 0.41788 0.22275 0.0
C129 C 0.16351 0.37855 0.22345 0.0
C130 C 0.22755 0.4505 0.18255 0.0
C131 C 0.22365 0.50389 0.16135 0.0
C132 C 0.25257 0.43469 0.20496 0.0
C133 C 0.25734 0.37939 0.23156 0.0
C134 C 0.24281 0.358 0.28936 0.0
C135 C 0.24704 0.30554 0.3134 0.0
C136 C 0.26592 0.27418 0.28044 0.0
C137 C 0.28066 0.29532 0.22353 0.0
C138 C 0.27647 0.34775 0.19918 0.0
C139 C 0.32695 0.61272 0.24136 0.0
C140 C 0.33251 0.64306 0.17922 0.0
C141 C 0.30701 0.57342 0.24124 0.0
C142 C 0.2923 0.56366 0.17903 0.0
C143 C 0.29871 0.59176 0.11591 0.0
C144 C 0.31851 0.63134 0.11608 0.0
C145 C 0.26959 0.5257 0.18098 0.0
C146 C 0.27334 0.47242 0.20332 0.0
C147 C 0.24432 0.5419 0.16084 0.0
C148 C 0.23885 0.59834 0.14041 0.0
C149 C 0.22779 0.60959 0.0733 0.0
C150 C 0.22304 0.66283 0.05344 0.0
C151 C 0.22915 0.70517 0.10044 0.0
C152 C 0.23992 0.69433 0.16753 0.0
C153 C 0.24468 0.64115 0.18767 0.0
H154 H 0.2255 0.74637 0.08492 0.0
H155 H 0.26916 0.23357 0.29911 0.0
H156 H 0.63491 0.03008 0.69804 0.0
H157 H 0.67105 0.976 0.65477 0.0
H158 H 0.7163 0.12178 0.61399 0.0
H159 H 0.67939 0.17569 0.65197 0.0
H160 H 0.73348 0.04844 0.52941 0.0
H161 H 0.71584 0.0567 0.78139 0.0
H162 H 0.68949 0.04725 0.8916 0.0
H163 H 0.67971 0.87723 0.85286 0.0
H164 H 0.70571 0.88587 0.74176 0.0
H165 H 0.84948 0.95738 0.73104 0.0
H166 H 0.81144 0.00442 0.68564 0.0
H167 H 0.78342 0.85752 0.58565 0.0
H168 H 0.82194 0.81064 0.62862 0.0
H169 H 0.75673 0.92332 0.72548 0.0
H170 H 0.78325 0.92292 0.47477 0.0
H171 H 0.81417 0.94321 0.37657 0.0
H172 H 0.81295 0.11173 0.42939 0.0
H173 H 0.78233 0.09229 0.52872 0.0
C174 C 0.65217 0.05037 0.67669 0.0
C175 C 0.65452 0.10681 0.67832 0.0
C176 C 0.67291 0.01957 0.65263 0.0
C177 C 0.6968 0.04473 0.63364 0.0
C178 C 0.6982 0.1013 0.6288 0.0
C179 C 0.67709 0.13214 0.65047 0.0
C180 C 0.72108 0.01305 0.62984 0.0
C181 C 0.73847 0.02091 0.57215 0.0
C182 C 0.72794 0.97746 0.68596 0.0
C183 C 0.71241 0.97205 0.75286 0.0
C184 C 0.70792 0.01737 0.79617 0.0
C185 C 0.69306 0.01216 0.85878 0.0
C186 C 0.68286 0.9617 0.87909 0.0
C187 C 0.68757 0.91632 0.83694 0.0
C188 C 0.70235 0.92134 0.77414 0.0
C189 C 0.83581 0.93578 0.69664 0.0
C190 C 0.83861 0.88042 0.68335 0.0
C191 C 0.81415 0.96269 0.67063 0.0
C192 C 0.79479 0.93447 0.63196 0.0
C193 C 0.79843 0.88015 0.61429 0.0
C194 C 0.82044 0.85348 0.63885 0.0
C195 C 0.76877 0.95823 0.62493 0.0
C196 C 0.75128 0.94956 0.68166 0.0
C197 C 0.76241 -0.00571 0.56944 0.0
C198 C 0.78074 0.00604 0.50969 0.0
C199 C 0.78982 0.96421 0.46602 0.0
C200 C 0.80723 0.97559 0.40999 0.0
C201 C 0.81559 0.02871 0.39688 0.0
C202 C 0.80649 0.07059 0.43966 0.0
C203 C 0.78909 0.05942 0.49577 0.0
H204 H 0.82906 0.03744 0.35347 0.0
H205 H 0.67137 0.95774 0.9276 0.0
H206 H 0.85045 0.59623 0.77168 0.0
H207 H 0.81659 0.52516 0.77728 0.0
H208 H 0.7648 0.63545 0.88183 0.0
H209 H 0.79902 0.70536 0.88 0.0
H210 H 0.75814 0.54405 0.93966 0.0
H211 H 0.76232 0.60369 0.69392 0.0
H212 H 0.78406 0.62342 0.57848 0.0
H213 H 0.80503 0.45738 0.55893 0.0
H214 H 0.78365 0.4368 0.67466 0.0
H215 H 0.64928 0.3791 0.73643 0.0
H216 H 0.68291 0.4503 0.74124 0.0
H217 H 0.7208 0.36747 0.9142 0.0
H218 H 0.68704 0.29668 0.91091 0.0
H219 H 0.73336 0.44647 0.71677 0.0
H220 H 0.7509 0.45803 0.02384 0.0
H221 H 0.72607 0.44599 0.13635 0.0
H222 H 0.65524 0.48386 0.02685 0.0
H223 H 0.67968 0.49682 0.91398 0.0
C224 C 0.83188 0.60503 0.79629 0.0
C225 C 0.8273 0.65627 0.82522 0.0
C226 C 0.81249 0.56455 0.79911 0.0
C227 C 0.78791 0.57522 0.82864 0.0
C228 C 0.78357 0.62613 0.8588 0.0
C229 C 0.80314 0.66612 0.85763 0.0
C230 C 0.76646 0.53398 0.82713 0.0
C231 C 0.75277 0.52271 0.89088 0.0
C232 C 0.75907 0.50668 0.7633 0.0
C233 C 0.77158 0.51882 0.69319 0.0
C234 C 0.77167 0.57146 0.66512 0.0
C235 C 0.78392 0.58278 0.59964 0.0
C236 C 0.79597 0.54171 0.56148 0.0
C237 C 0.79571 0.48916 0.58858 0.0
C238 C 0.7835 0.47763 0.65405 0.0
C239 C 0.66463 0.37618 0.77596 0.0
C240 C 0.6654 0.33214 0.82339 0.0
C241 C 0.68389 0.41685 0.77841 0.0
C242 C 0.70428 0.41434 0.82828 0.0
C243 C 0.70503 0.37066 0.87599 0.0
C244 C 0.6857 0.33014 0.8739 0.0
C245 C 0.72512 0.45672 0.82921 0.0
C246 C 0.73876 0.46791 0.76547 0.0
C247 C 0.73195 0.48509 0.89252 0.0
C248 C 0.7171 0.47782 0.96032 0.0
C249 C 0.73004 0.46395 0.02385 0.0
C250 C 0.71603 0.45695 0.08767 0.0
C251 C 0.68909 0.46397 0.08869 0.0
C252 C 0.6761 0.4782 0.02593 0.0
C253 C 0.69001 0.48531 0.962 0.0
H254 H 0.67828 0.4585 0.13814 0.0
H255 H 0.80547 0.55057 0.51085 0.0
H256 H 0.09058 0.11758 0.09683 0.0
H257 H 0.0645 0.05327 0.02631 0.0
H258 H -0.00146 0.079 0.16538 0.0
H259 H 0.02522 0.14069 0.23879 0.0
H260 H -0.00096 0.97912 0.13079 0.0
H261 H 0.00802 0.14426 0.99337 0.0
H262 H 0.03291 0.21803 0.93407 0.0
H263 H 0.07084 0.10327 0.79921 0.0
H264 H 0.04638 0.02878 0.85827 0.0
H265 H 0.90204 0.87163 0.9032 0.0
H266 H 0.92858 0.93545 0.97321 0.0
H267 H 0.99411 0.90816 0.83323 0.0
H268 H 0.967 0.84684 0.7604 0.0
H269 H 0.99414 0.00827 0.86803 0.0
H270 H 0.98493 0.84319 0.00471 0.0
H271 H 0.96008 0.76936 0.06396 0.0
H272 H 0.92262 0.88388 0.20022 0.0
H273 H 0.94704 0.95843 0.14122 0.0
C274 C 0.07059 0.10899 0.11268 0.0
C275 C 0.05977 0.13423 0.17276 0.0
C276 C 0.05563 0.0726 0.07205 0.0
C277 C 0.02929 0.06251 0.08914 0.0
C278 C 0.01876 0.08637 0.15078 0.0
C279 C 0.03397 0.1216 0.19267 0.0
C280 C 0.01253 0.02804 0.04217 0.0
C281 C -0.00226 0.98594 0.07346 0.0
C282 C 0.01123 0.03606 0.96703 0.0
C283 C 0.02551 0.08097 0.93058 0.0
C284 C 0.02173 0.13478 0.95123 0.0
C285 C 0.03576 0.1767 0.91767 0.0
C286 C 0.05348 0.16533 0.86301 0.0
C287 C 0.05712 0.11202 0.84159 0.0
C288 C 0.04316 0.06995 0.875 0.0
C289 C 0.92203 0.8798 0.88701 0.0
C290 C 0.93261 0.85418 0.82689 0.0
C291 C 0.93725 0.9159 0.92735 0.0
C292 C 0.96361 0.92536 0.90989 0.0
C293 C 0.97389 0.90124 0.84811 0.0
C294 C 0.95842 0.86625 0.80654 0.0
C295 C 0.9806 0.95945 0.95669 0.0
C296 C 0.99544 0.00144 0.92536 0.0
C297 C 0.98196 0.95133 0.0318 0.0
C298 C 0.96768 0.90638 0.06821 0.0
C299 C 0.97133 0.85261 0.04714 0.0
C300 C 0.95732 0.81065 0.08067 0.0
C301 C 0.93975 0.82193 0.13572 0.0
C302 C 0.93623 0.87519 0.15755 0.0
C303 C 0.95017 0.9173 0.12416 0.0
H304 H 0.92889 0.7894 0.16153 0.0
H305 H 0.06435 0.19784 0.83718 0.0
H306 H 0.52902 0.12989 0.75039 0.0
H307 H 0.50162 0.06745 0.8212 0.0
H308 H 0.56244 0.05706 0.97964 0.0
H309 H 0.5897 0.12041 0.91007 0.0
H310 H 0.53664 0.95468 0.93877 0.0
H311 H 0.51894 0.13376 0.02121 0.0
H312 H 0.50754 0.22922 0.00747 0.0
H313 H 0.43387 0.1816 0.91529 0.0
H314 H 0.44505 0.08573 0.92738 0.0
H315 H 0.46482 0.85826 0.24169 0.0
H316 H 0.49138 0.91978 0.16718 0.0
H317 H 0.43092 0.9193 0.00679 0.0
H318 H 0.40457 0.85658 0.07998 0.0
H319 H 0.45602 0.02664 0.04703 0.0
H320 H 0.47389 0.84718 0.96508 0.0
H321 H 0.4854 0.75189 0.9802 0.0
H322 H 0.55885 0.8006 0.07273 0.0
H323 H 0.54756 0.89631 0.05925 0.0
C324 C 0.53665 0.11372 0.79984 0.0
C325 C 0.56137 0.13007 0.82509 0.0
C326 C 0.52099 0.0783 0.84021 0.0
C327 C 0.53004 0.05815 0.90563 0.0
C328 C 0.55519 0.07236 0.92923 0.0
C329 C 0.57066 0.10858 0.88962 0.0
C330 C 0.51275 0.02437 0.95123 0.0
C331 C 0.51915 0.97047 0.96303 0.0
C332 C 0.48978 0.04505 0.98176 0.0
C333 C 0.48298 0.10259 0.9743 0.0
C334 C 0.50044 0.14364 0.99724 0.0
C335 C 0.49399 0.19782 0.98992 0.0
C336 C 0.47003 0.21148 0.96028 0.0
C337 C 0.45245 0.17096 0.93808 0.0
C338 C 0.45883 0.11668 0.94516 0.0
C339 C 0.45709 0.87181 0.19094 0.0
C340 C 0.43276 0.8526 0.16626 0.0
C341 C 0.47226 0.90671 0.14851 0.0
C342 C 0.46306 0.92361 0.08162 0.0
C343 C 0.43826 0.90651 0.05835 0.0
C344 C 0.42332 0.87068 0.10002 0.0
C345 C 0.47991 0.95701 0.03449 0.0
C346 C 0.47346 0.01084 0.02253 0.0
C347 C 0.50284 0.93631 0.00386 0.0
C348 C 0.50973 0.87888 0.01204 0.0
C349 C 0.49237 0.83758 0.98943 0.0
C350 C 0.49888 0.78349 0.99752 0.0
C351 C 0.52281 0.77019 0.02764 0.0
C352 C 0.5403 0.81097 0.04955 0.0
C353 C 0.53386 0.86515 0.04168 0.0
H354 H 0.52782 0.72829 0.03381 0.0
H355 H 0.46506 0.25346 0.95472 0.0
H356 H 0.91767 0.66427 0.53386 0.0
H357 H 0.94593 0.59987 0.47415 0.0
H358 H 0.96894 0.53749 0.68 0.0
H359 H 0.94144 0.60287 0.73981 0.0
H360 H 0.01014 0.55378 0.60077 0.0
H361 H 0.92644 0.46711 0.56312 0.0
H362 H 0.88061 0.46126 0.52342 0.0
H363 H 0.90438 0.49669 0.30735 0.0
H364 H 0.95032 0.50349 0.34593 0.0
H365 H 0.07439 0.32091 0.47022 0.0
H366 H 0.04582 0.38428 0.5309 0.0
H367 H 0.02272 0.44823 0.32603 0.0
H368 H 0.05055 0.38402 0.26525 0.0
H369 H 0.98143 0.43054 0.40535 0.0
H370 H 0.06504 0.51812 0.44336 0.0
H371 H 0.11083 0.52448 0.48321 0.0
H372 H 0.08714 0.48729 0.69884 0.0
H373 H 0.04122 0.48004 0.66009 0.0
C374 C 0.92853 0.63639 0.56627 0.0
C375 C 0.92736 0.63862 0.64147 0.0
C376 C 0.94464 0.59948 0.53211 0.0
C377 C 0.95945 0.56346 0.57254 0.0
C378 C 0.95779 0.56494 0.64764 0.0
C379 C 0.94197 0.60221 0.68175 0.0
C380 C 0.97753 0.52574 0.53703 0.0
C381 C 0.00376 0.52627 0.55873 0.0
C382 C 0.96941 0.49077 0.48093 0.0
C383 C 0.9418 0.48628 0.45756 0.0
C384 C 0.92187 0.47402 0.50723 0.0
C385 C 0.89588 0.47048 0.48491 0.0
C386 C 0.88959 0.47872 0.41294 0.0
C387 C 0.90928 0.49037 0.36309 0.0
C388 C 0.9353 0.49402 0.38514 0.0
C389 C 0.06344 0.34892 0.43825 0.0
C390 C 0.0647 0.3475 0.36302 0.0
C391 C 0.04715 0.38522 0.47296 0.0
C392 C 0.03221 0.42136 0.43307 0.0
C393 C 0.03394 0.42066 0.35797 0.0
C394 C 0.04996 0.38406 0.32331 0.0
C395 C 0.01403 0.45862 0.46908 0.0
C396 C 0.98779 0.45801 0.44746 0.0
C397 C 0.02213 0.4935 0.52529 0.0
C398 C 0.04972 0.49804 0.54867 0.0
C399 C 0.06962 0.51092 0.49917 0.0
C400 C 0.09559 0.51475 0.52158 0.0
C401 C 0.1019 0.50616 0.59347 0.0
C402 C 0.08223 0.49387 0.64315 0.0
C403 C 0.05623 0.48995 0.62101 0.0
H404 H 0.12202 0.50914 0.61071 0.0
H405 H 0.86945 0.47598 0.39578 0.0
H406 H 0.45613 0.62851 0.27529 0.0
H407 H 0.48325 0.56508 0.33857 0.0
H408 H 0.43739 0.58594 0.53029 0.0
H409 H 0.41032 0.65116 0.46722 0.0
H410 H 0.48844 0.58732 0.56067 0.0
H411 H 0.4308 0.47114 0.42648 0.0
H412 H 0.40789 0.43773 0.31853 0.0
H413 H 0.48125 0.40537 0.21801 0.0
H414 H 0.50463 0.43928 0.325 0.0
H415 H 0.54038 0.36159 0.74011 0.0
H416 H 0.51244 0.42669 0.68235 0.0
H417 H 0.55565 0.40992 0.48522 0.0
H418 H 0.58342 0.34332 0.54251 0.0
H419 H 0.5047 0.40575 0.46032 0.0
H420 H 0.56232 0.52349 0.59408 0.0
H421 H 0.58514 0.55705 0.70211 0.0
H422 H 0.51165 0.58621 0.80387 0.0
H423 H 0.48838 0.55212 0.69679 0.0
C424 C 0.45163 0.6195 0.33083 0.0
C425 C 0.43094 0.64464 0.36617 0.0
C426 C 0.46715 0.58298 0.3669 0.0
C427 C 0.46212 0.56999 0.43885 0.0
C428 C 0.44155 0.5952 0.47462 0.0
C429 C 0.42605 0.63226 0.43854 0.0
C430 C 0.47878 0.53085 0.4765 0.0
C431 C 0.49166 0.54727 0.53942 0.0
C432 C 0.48349 0.47907 0.44778 0.0
C433 C 0.46947 0.45815 0.38359 0.0
C434 C 0.44206 0.45722 0.38118 0.0
C435 C 0.42898 0.43815 0.32019 0.0
C436 C 0.44311 0.41954 0.2614 0.0
C437 C 0.47034 0.41982 0.26357 0.0
C438 C 0.48351 0.4389 0.32441 0.0
C439 C 0.54413 0.37202 0.6846 0.0
C440 C 0.56417 0.34738 0.64586 0.0
C441 C 0.52817 0.40949 0.65172 0.0
C442 C 0.53212 0.42377 0.57968 0.0
C443 C 0.55227 0.39958 0.54095 0.0
C444 C 0.56818 0.36171 0.57375 0.0
C445 C 0.51456 0.46236 0.54418 0.0
C446 C 0.50146 0.44576 0.48168 0.0
C447 C 0.50964 0.51391 0.57337 0.0
C448 C 0.52361 0.53479 0.63763 0.0
C449 C 0.55103 0.5367 0.63968 0.0
C450 C 0.56404 0.55587 0.70072 0.0
C451 C 0.54986 0.57362 0.75988 0.0
C452 C 0.52262 0.57239 0.75804 0.0
C453 C 0.50951 0.5532 0.69716 0.0
H454 H 0.55997 0.58844 0.80709 0.0
H455 H 0.43295 0.40481 0.21421 0.0
loop_
_geom_bond_atom_site_label_1
_geom_bond_atom_site_label_2
_geom_bond_distance
_geom_bond_site_symmetry_2
_ccdc_geom_bond_type
Co0 O1 2.216 . S
Co0 O2 2.091 . S
Co0 O4 2.004 . S
Co0 O10 2.021 . S
Co0 O12 2.137 . S
Co0 O13 2.244 . S
O1 Co0 2.216 . S
O1 C8 1.247 . S
O2 Co0 2.091 . S
O2 C8 1.261 . S
C3 O12 1.247 . S
C3 O13 1.272 . S
O4 Co0 2.004 . S
O4 C9 1.259 . S
Co5 O6 2.061 . S
Co5 O11 2.052 . S
Co5 O13 2.135 . S
O6 Co5 2.061 . S
O6 C9 1.235 . S
C7 O10 1.238 . S
C7 O11 1.241 . S
C8 O1 1.247 . S
C8 O2 1.261 . S
C9 O4 1.259 . S
C9 O6 1.235 . S
O10 Co0 2.021 . S
O10 C7 1.238 . S
O11 Co5 2.052 . S
O11 C7 1.241 . S
O12 Co0 2.137 . S
O12 C3 1.247 . S
O13 Co0 2.244 . S
O13 C3 1.272 . S
O13 Co5 2.135 . S
Co14 O15 2.216 . S
Co14 O16 2.091 . S
Co14 O18 2.004 . S
Co14 O24 2.021 . S
Co14 O26 2.137 . S
Co14 O27 2.244 . S
O15 Co14 2.216 . S
O15 C22 1.247 . S
O16 Co14 2.091 . S
O16 C22 1.261 . S
C17 O26 1.247 . S
C17 O27 1.272 . S
O18 Co14 2.004 . S
O18 C23 1.259 . S
Co19 O20 2.061 . S
Co19 O25 2.052 . S
Co19 O27 2.135 . S
O20 Co19 2.061 . S
O20 C23 1.235 . S
C21 O24 1.238 . S
C21 O25 1.241 . S
C22 O15 1.247 . S
C22 O16 1.261 . S
C23 O18 1.259 . S
C23 O20 1.235 . S
O24 Co14 2.021 . S
O24 C21 1.238 . S
O25 Co19 2.052 . S
O25 C21 1.241 . S
O26 Co14 2.137 . S
O26 C17 1.247 . S
O27 Co14 2.244 . S
O27 C17 1.272 . S
O27 Co19 2.135 . S
Co28 O29 2.216 . S
Co28 O30 2.091 . S
Co28 O32 2.004 . S
Co28 O38 2.021 . S
Co28 O40 2.137 . S
Co28 O41 2.244 . S
O29 Co28 2.216 . S
O29 C36 1.247 . S
O30 Co28 2.091 . S
O30 C36 1.261 . S
C31 O40 1.247 . S
C31 O41 1.272 . S
O32 Co28 2.004 . S
O32 C37 1.259 . S
Co33 O34 2.061 . S
Co33 O39 2.052 . S
Co33 O41 2.135 . S
O34 Co33 2.061 . S
O34 C37 1.235 . S
C35 O38 1.238 . S
C35 O39 1.241 . S
C36 O29 1.247 . S
C36 O30 1.261 . S
C37 O32 1.259 . S
C37 O34 1.235 . S
O38 Co28 2.021 . S
O38 C35 1.238 . S
O39 Co33 2.052 . S
O39 C35 1.241 . S
O40 Co28 2.137 . S
O40 C31 1.247 . S
O41 Co28 2.244 . S
O41 C31 1.272 . S
O41 Co33 2.135 . S
Co42 O43 2.216 . S
Co42 O44 2.091 . S
Co42 O46 2.004 . S
Co42 O52 2.021 . S
Co42 O54 2.137 . S
Co42 O55 2.244 . S
O43 Co42 2.216 . S
O43 C50 1.247 . S
O44 Co42 2.091 . S
O44 C50 1.261 . S
C45 O54 1.247 . S
C45 O55 1.272 . S
O46 Co42 2.004 . S
O46 C51 1.259 . S
Co47 O48 2.061 . S
Co47 O53 2.052 . S
Co47 O55 2.135 . S
O48 Co47 2.061 . S
O48 C51 1.235 . S
C49 O52 1.238 . S
C49 O53 1.241 . S
C50 O43 1.247 . S
C50 O44 1.261 . S
C51 O46 1.259 . S
C51 O48 1.235 . S
O52 Co42 2.021 . S
O52 C49 1.238 . S
O53 Co47 2.052 . S
O53 C49 1.241 . S
O54 Co42 2.137 . S
O54 C45 1.247 . S
O55 Co42 2.244 . S
O55 C45 1.272 . S
O55 Co47 2.135 . S
H56 C74 0.951 . S
H57 C76 0.951 . S
H58 C78 0.950 . S
H59 C79 0.950 . S
H60 C81 0.950 . S
H61 C84 0.950 . S
H62 C85 0.950 . S
H63 C87 0.950 . S
H64 C88 0.950 . S
H65 C89 0.951 . S
H66 C91 0.951 . S
H67 C93 0.950 . S
H68 C94 0.950 . S
H69 C96 0.950 . S
H70 C99 0.950 . S
H71 C100 0.950 . S
H72 C102 0.950 . S
H73 C103 0.950 . S
C74 H56 0.951 . S
C74 C75 1.366 . S
C74 C76 1.388 . S
C75 C74 1.366 . S
C75 C79 1.385 . S
C76 H57 0.951 . S
C76 C74 1.388 . S
C76 C77 1.366 . S
C77 C76 1.366 . S
C77 C78 1.414 . S
C77 C80 1.499 . S
C78 H58 0.950 . S
C78 C77 1.414 . S
C78 C79 1.374 . S
C79 H59 0.950 . S
C79 C75 1.385 . S
C79 C78 1.374 . S
C80 C77 1.499 . S
C80 C81 1.373 . S
C80 C82 1.389 1_565 S
C81 H60 0.950 . S
C81 C80 1.373 . S
C81 C97 1.377 . S
C82 C80 1.389 1_545 S
C82 C83 1.524 . S
C82 C96 1.377 . S
C83 C82 1.524 . S
C83 C84 1.397 1_545 S
C83 C88 1.363 . S
C84 H61 0.950 . S
C84 C83 1.397 1_565 S
C84 C85 1.334 . S
C85 H62 0.950 . S
C85 C84 1.334 . S
C85 C86 1.293 . S
C86 C85 1.293 . S
C86 C87 1.517 1_565 S
C86 H105 0.914 . S
C87 H63 0.950 . S
C87 C86 1.517 1_545 S
C87 C88 1.415 . S
C88 H64 0.950 . S
C88 C83 1.363 . S
C88 C87 1.415 . S
C89 H65 0.951 . S
C89 C90 1.366 . S
C89 C91 1.388 . S
C90 C89 1.366 . S
C90 C94 1.385 . S
C91 H66 0.951 . S
C91 C89 1.388 . S
C91 C92 1.366 . S
C92 C91 1.366 . S
C92 C93 1.414 . S
C92 C95 1.499 . S
C93 H67 0.950 . S
C93 C92 1.414 . S
C93 C94 1.374 . S
C94 H68 0.950 . S
C94 C90 1.385 . S
C94 C93 1.374 . S
C95 C92 1.499 . S
C95 C96 1.373 . S
C95 C97 1.389 1_545 S
C96 H69 0.950 . S
C96 C82 1.377 . S
C96 C95 1.373 . S
C97 C81 1.377 . S
C97 C95 1.389 1_565 S
C97 C98 1.524 . S
C98 C97 1.524 . S
C98 C99 1.397 1_565 S
C98 C103 1.363 . S
C99 H70 0.950 . S
C99 C98 1.397 1_545 S
C99 C100 1.334 . S
C100 H71 0.950 . S
C100 C99 1.334 . S
C100 C101 1.293 . S
C101 C100 1.293 . S
C101 C102 1.517 1_545 S
C101 H104 0.999 1_544 S
C102 H72 0.950 . S
C102 C101 1.517 1_565 S
C102 C103 1.415 . S
C103 H73 0.950 . S
C103 C98 1.363 . S
C103 C102 1.415 . S
H104 C101 0.999 1_566 S
H105 C86 0.914 . S
H106 C124 0.951 . S
H107 C126 0.951 . S
H108 C128 0.950 . S
H109 C129 0.950 . S
H110 C131 0.950 . S
H111 C134 0.950 . S
H112 C135 0.950 . S
H113 C137 0.950 . S
H114 C138 0.950 . S
H115 C139 0.951 . S
H116 C141 0.951 . S
H117 C143 0.950 . S
H118 C144 0.950 . S
H119 C146 0.950 . S
H120 C149 0.950 . S
H121 C150 0.950 . S
H122 C152 0.950 . S
H123 C153 0.950 . S
C124 H106 0.951 . S
C124 C125 1.366 . S
C124 C126 1.388 . S
C125 C124 1.366 . S
C125 C129 1.385 . S
C126 H107 0.951 . S
C126 C124 1.388 . S
C126 C127 1.366 . S
C127 C126 1.366 . S
C127 C128 1.414 . S
C127 C130 1.499 . S
C128 H108 0.950 . S
C128 C127 1.414 . S
C128 C129 1.374 . S
C129 H109 0.950 . S
C129 C125 1.385 . S
C129 C128 1.374 . S
C130 C127 1.499 . S
C130 C131 1.373 . S
C130 C132 1.389 . S
C131 H110 0.950 . S
C131 C130 1.373 . S
C131 C147 1.377 . S
C132 C130 1.389 . S
C132 C133 1.524 . S
C132 C146 1.377 . S
C133 C132 1.524 . S
C133 C134 1.397 . S
C133 C138 1.363 . S
C134 H111 0.950 . S
C134 C133 1.397 . S
C134 C135 1.334 . S
C135 H112 0.950 . S
C135 C134 1.334 . S
C135 C136 1.287 . S
C136 C135 1.287 . S
C136 C137 1.524 . S
C136 H155 0.913 . S
C137 H113 0.950 . S
C137 C136 1.524 . S
C137 C138 1.415 . S
C138 H114 0.950 . S
C138 C133 1.363 . S
C138 C137 1.415 . S
C139 H115 0.951 . S
C139 C140 1.366 . S
C139 C141 1.388 . S
C140 C139 1.366 . S
C140 C144 1.385 . S
C141 H116 0.951 . S
C141 C139 1.388 . S
C141 C142 1.366 . S
C142 C141 1.366 . S
C142 C143 1.414 . S
C142 C145 1.499 . S
C143 H117 0.950 . S
C143 C142 1.414 . S
C143 C144 1.374 . S
C144 H118 0.950 . S
C144 C140 1.385 . S
C144 C143 1.374 . S
C145 C142 1.499 . S
C145 C146 1.373 . S
C145 C147 1.389 . S
C146 H119 0.950 . S
C146 C132 1.377 . S
C146 C145 1.373 . S
C147 C131 1.377 . S
C147 C145 1.389 . S
C147 C148 1.524 . S
C148 C147 1.524 . S
C148 C149 1.397 . S
C148 C153 1.363 . S
C149 H120 0.950 . S
C149 C148 1.397 . S
C149 C150 1.334 . S
C150 H121 0.950 . S
C150 C149 1.334 . S
C150 C151 1.287 . S
C151 C150 1.287 . S
C151 C152 1.524 . S
C151 H154 0.999 . S
C152 H122 0.950 . S
C152 C151 1.524 . S
C152 C153 1.415 . S
C153 H123 0.950 . S
C153 C148 1.363 . S
C153 C152 1.415 . S
H154 C151 0.999 . S
H155 C136 0.913 . S
H156 C174 0.951 . S
H157 C176 0.951 . S
H158 C178 0.950 . S
H159 C179 0.950 . S
H160 C181 0.950 . S
H161 C184 0.950 . S
H162 C185 0.950 . S
H163 C187 0.950 . S
H164 C188 0.950 . S
H165 C189 0.951 . S
H166 C191 0.951 . S
H167 C193 0.950 . S
H168 C194 0.950 . S
H169 C196 0.950 . S
H170 C199 0.950 . S
H171 C200 0.950 . S
H172 C202 0.950 . S
H173 C203 0.950 . S
C174 H156 0.951 . S
C174 C175 1.366 . S
C174 C176 1.388 . S
C175 C174 1.366 . S
C175 C179 1.385 . S
C176 H157 0.951 . S
C176 C174 1.388 . S
C176 C177 1.366 . S
C177 C176 1.366 . S
C177 C178 1.414 . S
C177 C180 1.499 . S
C178 H158 0.950 . S
C178 C177 1.414 . S
C178 C179 1.374 . S
C179 H159 0.950 . S
C179 C175 1.385 . S
C179 C178 1.374 . S
C180 C177 1.499 . S
C180 C181 1.373 . S
C180 C182 1.389 1_545 S
C181 H160 0.950 . S
C181 C180 1.373 . S
C181 C197 1.377 . S
C182 C180 1.389 1_565 S
C182 C183 1.524 . S
C182 C196 1.377 . S
C183 C182 1.524 . S
C183 C184 1.397 1_565 S
C183 C188 1.363 . S
C184 H161 0.950 . S
C184 C183 1.397 1_545 S
C184 C185 1.334 . S
C185 H162 0.950 . S
C185 C184 1.334 . S
C185 C186 1.287 1_545 S
C186 C185 1.287 1_565 S
C186 C187 1.524 . S
C186 H205 0.913 . S
C187 H163 0.950 . S
C187 C186 1.524 . S
C187 C188 1.415 . S
C188 H164 0.950 . S
C188 C183 1.363 . S
C188 C187 1.415 . S
C189 H165 0.951 . S
C189 C190 1.366 . S
C189 C191 1.388 . S
C190 C189 1.366 . S
C190 C194 1.385 . S
C191 H166 0.951 . S
C191 C189 1.388 . S
C191 C192 1.366 . S
C192 C191 1.366 . S
C192 C193 1.414 . S
C192 C195 1.499 . S
C193 H167 0.950 . S
C193 C192 1.414 . S
C193 C194 1.374 . S
C194 H168 0.950 . S
C194 C190 1.385 . S
C194 C193 1.374 . S
C195 C192 1.499 . S
C195 C196 1.373 . S
C195 C197 1.389 1_565 S
C196 H169 0.950 . S
C196 C182 1.377 . S
C196 C195 1.373 . S
C197 C181 1.377 . S
C197 C195 1.389 1_545 S
C197 C198 1.524 . S
C198 C197 1.524 . S
C198 C199 1.397 1_545 S
C198 C203 1.363 . S
C199 H170 0.950 . S
C199 C198 1.397 1_565 S
C199 C200 1.334 . S
C200 H171 0.950 . S
C200 C199 1.334 . S
C200 C201 1.287 1_565 S
C201 C200 1.287 1_545 S
C201 C202 1.524 . S
C201 H204 0.999 . S
C202 H172 0.950 . S
C202 C201 1.524 . S
C202 C203 1.415 . S
C203 H173 0.950 . S
C203 C198 1.363 . S
C203 C202 1.415 . S
H204 C201 0.999 . S
H205 C186 0.913 . S
H206 C224 0.951 . S
H207 C226 0.951 . S
H208 C228 0.950 . S
H209 C229 0.950 . S
H210 C231 0.950 . S
H211 C234 0.950 . S
H212 C235 0.950 . S
H213 C237 0.950 . S
H214 C238 0.950 . S
H215 C239 0.951 . S
H216 C241 0.951 . S
H217 C243 0.950 . S
H218 C244 0.950 . S
H219 C246 0.950 . S
H220 C249 0.950 . S
H221 C250 0.950 . S
H222 C252 0.950 . S
H223 C253 0.950 . S
C224 H206 0.951 . S
C224 C225 1.366 . S
C224 C226 1.388 . S
C225 C224 1.366 . S
C225 C229 1.385 . S
C226 H207 0.951 . S
C226 C224 1.388 . S
C226 C227 1.366 . S
C227 C226 1.366 . S
C227 C228 1.414 . S
C227 C230 1.499 . S
C228 H208 0.950 . S
C228 C227 1.414 . S
C228 C229 1.374 . S
C229 H209 0.950 . S
C229 C225 1.385 . S
C229 C228 1.374 . S
C230 C227 1.499 . S
C230 C231 1.373 . S
C230 C232 1.389 . S
C231 H210 0.950 . S
C231 C230 1.373 . S
C231 C247 1.377 . S
C232 C230 1.389 . S
C232 C233 1.524 . S
C232 C246 1.377 . S
C233 C232 1.524 . S
C233 C234 1.397 . S
C233 C238 1.363 . S
C234 H211 0.950 . S
C234 C233 1.397 . S
C234 C235 1.334 . S
C235 H212 0.950 . S
C235 C234 1.334 . S
C235 C236 1.287 . S
C236 C235 1.287 . S
C236 C237 1.524 . S
C236 H255 0.913 . S
C237 H213 0.950 . S
C237 C236 1.524 . S
C237 C238 1.415 . S
C238 H214 0.950 . S
C238 C233 1.363 . S
C238 C237 1.415 . S
C239 H215 0.951 . S
C239 C240 1.366 . S
C239 C241 1.388 . S
C240 C239 1.366 . S
C240 C244 1.385 . S
C241 H216 0.951 . S
C241 C239 1.388 . S
C241 C242 1.366 . S
C242 C241 1.366 . S
C242 C243 1.414 . S
C242 C245 1.499 . S
C243 H217 0.950 . S
C243 C242 1.414 . S
C243 C244 1.374 . S
C244 H218 0.950 . S
C244 C240 1.385 . S
C244 C243 1.374 . S
C245 C242 1.499 . S
C245 C246 1.373 . S
C245 C247 1.389 . S
C246 H219 0.950 . S
C246 C232 1.377 . S
C246 C245 1.373 . S
C247 C231 1.377 . S
C247 C245 1.389 . S
C247 C248 1.524 . S
C248 C247 1.524 . S
C248 C249 1.397 . S
C248 C253 1.363 . S
C249 H220 0.950 . S
C249 C248 1.397 . S
C249 C250 1.334 1_556 S
C250 H221 0.950 . S
C250 C249 1.334 1_554 S
C250 C251 1.287 . S
C251 C250 1.287 . S
C251 C252 1.524 . S
C251 H254 0.999 . S
C252 H222 0.950 . S
C252 C251 1.524 . S
C252 C253 1.415 1_554 S
C253 H223 0.950 . S
C253 C248 1.363 . S
C253 C252 1.415 1_556 S
H254 C251 0.999 . S
H255 C236 0.913 . S
H256 C274 0.951 . S
H257 C276 0.951 . S
H258 C278 0.950 . S
H259 C279 0.950 . S
H260 C281 0.950 . S
H261 C284 0.950 . S
H262 C285 0.950 . S
H263 C287 0.950 . S
H264 C288 0.950 1_565 S
H265 C289 0.951 . S
H266 C291 0.951 . S
H267 C293 0.950 . S
H268 C294 0.950 . S
H269 C296 0.950 . S
H270 C299 0.950 . S
H271 C300 0.950 . S
H272 C302 0.950 . S
H273 C303 0.950 1_545 S
C274 H256 0.951 . S
C274 C275 1.366 . S
C274 C276 1.388 . S
C275 C274 1.366 . S
C275 C279 1.385 . S
C276 H257 0.951 . S
C276 C274 1.388 . S
C276 C277 1.366 . S
C277 C276 1.366 . S
C277 C278 1.414 . S
C277 C280 1.499 . S
C278 H258 0.950 . S
C278 C277 1.414 . S
C278 C279 1.374 . S
C279 H259 0.950 . S
C279 C275 1.385 . S
C279 C278 1.374 . S
C280 C277 1.499 . S
C280 C281 1.373 1_455 S
C280 C282 1.389 1_554 S
C281 H260 0.950 . S
C281 C280 1.373 1_655 S
C281 C297 1.377 1_545 S
C282 C280 1.389 1_556 S
C282 C283 1.524 . S
C282 C296 1.377 1_545 S
C283 C282 1.524 . S
C283 C284 1.397 . S
C283 C288 1.363 . S
C284 H261 0.950 . S
C284 C283 1.397 . S
C284 C285 1.334 . S
C285 H262 0.950 . S
C285 C284 1.334 . S
C285 C286 1.287 . S
C286 C285 1.287 . S
C286 C287 1.524 . S
C286 H305 0.913 . S
C287 H263 0.950 . S
C287 C286 1.524 . S
C287 C288 1.415 . S
C288 H264 0.950 1_545 S
C288 C283 1.363 . S
C288 C287 1.415 . S
C289 H265 0.951 . S
C289 C290 1.366 . S
C289 C291 1.388 . S
C290 C289 1.366 . S
C290 C294 1.385 . S
C291 H266 0.951 . S
C291 C289 1.388 . S
C291 C292 1.366 . S
C292 C291 1.366 . S
C292 C293 1.414 . S
C292 C295 1.499 . S
C293 H267 0.950 . S
C293 C292 1.414 . S
C293 C294 1.374 . S
C294 H268 0.950 . S
C294 C290 1.385 . S
C294 C293 1.374 . S
C295 C292 1.499 . S
C295 C296 1.373 1_655 S
C295 C297 1.389 1_556 S
C296 H269 0.950 . S
C296 C282 1.377 1_565 S
C296 C295 1.373 1_455 S
C297 C281 1.377 1_565 S
C297 C295 1.389 1_554 S
C297 C298 1.524 . S
C298 C297 1.524 . S
C298 C299 1.397 . S
C298 C303 1.363 . S
C299 H270 0.950 . S
C299 C298 1.397 . S
C299 C300 1.334 . S
C300 H271 0.950 . S
C300 C299 1.334 . S
C300 C301 1.287 . S
C301 C300 1.287 . S
C301 C302 1.524 . S
C301 H304 0.999 . S
C302 H272 0.950 . S
C302 C301 1.524 . S
C302 C303 1.415 . S
C303 H273 0.950 1_565 S
C303 C298 1.363 . S
C303 C302 1.415 . S
H304 C301 0.999 . S
H305 C286 0.913 . S
H306 C324 0.951 . S
H307 C326 0.951 . S
H308 C328 0.950 . S
H309 C329 0.950 . S
H310 C331 0.950 . S
H311 C334 0.950 . S
H312 C335 0.950 . S
H313 C337 0.950 . S
H314 C338 0.950 1_556 S
H315 C339 0.951 . S
H316 C341 0.951 . S
H317 C343 0.950 . S
H318 C344 0.950 . S
H319 C346 0.950 . S
H320 C349 0.950 . S
H321 C350 0.950 . S
H322 C352 0.950 . S
H323 C353 0.950 1_554 S
C324 H306 0.951 . S
C324 C325 1.366 . S
C324 C326 1.388 . S
C325 C324 1.366 . S
C325 C329 1.385 . S
C326 H307 0.951 . S
C326 C324 1.388 . S
C326 C327 1.366 . S
C327 C326 1.366 . S
C327 C328 1.414 . S
C327 C330 1.499 . S
C328 H308 0.950 . S
C328 C327 1.414 . S
C328 C329 1.374 . S
C329 H309 0.950 . S
C329 C325 1.385 . S
C329 C328 1.374 . S
C330 C327 1.499 . S
C330 C331 1.373 1_545 S
C330 C332 1.389 1_556 S
C331 H310 0.950 . S
C331 C330 1.373 1_565 S
C331 C347 1.377 . S
C332 C330 1.389 1_554 S
C332 C333 1.524 . S
C332 C346 1.377 . S
C333 C332 1.524 . S
C333 C334 1.397 . S
C333 C338 1.363 . S
C334 H311 0.950 . S
C334 C333 1.397 . S
C334 C335 1.334 . S
C335 H312 0.950 . S
C335 C334 1.334 . S
C335 C336 1.287 . S
C336 C335 1.287 . S
C336 C337 1.524 . S
C336 H355 0.913 . S
C337 H313 0.950 . S
C337 C336 1.524 . S
C337 C338 1.415 . S
C338 H314 0.950 1_554 S
C338 C333 1.363 . S
C338 C337 1.415 . S
C339 H315 0.951 . S
C339 C340 1.366 . S
C339 C341 1.388 . S
C340 C339 1.366 . S
C340 C344 1.385 . S
C341 H316 0.951 . S
C341 C339 1.388 . S
C341 C342 1.366 . S
C342 C341 1.366 . S
C342 C343 1.414 . S
C342 C345 1.499 . S
C343 H317 0.950 . S
C343 C342 1.414 . S
C343 C344 1.374 . S
C344 H318 0.950 . S
C344 C340 1.385 . S
C344 C343 1.374 . S
C345 C342 1.499 . S
C345 C346 1.373 1_565 S
C345 C347 1.389 1_554 S
C346 H319 0.950 . S
C346 C332 1.377 . S
C346 C345 1.373 1_545 S
C347 C331 1.377 . S
C347 C345 1.389 1_556 S
C347 C348 1.524 . S
C348 C347 1.524 . S
C348 C349 1.397 . S
C348 C353 1.363 . S
C349 H320 0.950 . S
C349 C348 1.397 . S
C349 C350 1.334 . S
C350 H321 0.950 . S
C350 C349 1.334 . S
C350 C351 1.287 . S
C351 C350 1.287 . S
C351 C352 1.524 . S
C351 H354 0.999 . S
C352 H322 0.950 . S
C352 C351 1.524 . S
C352 C353 1.415 . S
C353 H323 0.950 1_556 S
C353 C348 1.363 . S
C353 C352 1.415 . S
H354 C351 0.999 . S
H355 C336 0.913 . S
H356 C374 0.951 . S
H357 C376 0.951 . S
H358 C378 0.950 . S
H359 C379 0.950 . S
H360 C381 0.950 . S
H361 C384 0.950 . S
H362 C385 0.950 . S
H363 C387 0.950 . S
H364 C388 0.950 . S
H365 C389 0.951 . S
H366 C391 0.951 . S
H367 C393 0.950 . S
H368 C394 0.950 . S
H369 C396 0.950 . S
H370 C399 0.950 . S
H371 C400 0.950 . S
H372 C402 0.950 . S
H373 C403 0.950 . S
C374 H356 0.951 . S
C374 C375 1.366 . S
C374 C376 1.388 . S
C375 C374 1.366 . S
C375 C379 1.385 . S
C376 H357 0.951 . S
C376 C374 1.388 . S
C376 C377 1.366 . S
C377 C376 1.366 . S
C377 C378 1.414 . S
C377 C380 1.499 . S
C378 H358 0.950 . S
C378 C377 1.414 . S
C378 C379 1.374 . S
C379 H359 0.950 . S
C379 C375 1.385 . S
C379 C378 1.374 . S
C380 C377 1.499 . S
C380 C381 1.373 1_655 S
C380 C382 1.389 . S
C381 H360 0.950 . S
C381 C380 1.373 1_455 S
C381 C397 1.377 . S
C382 C380 1.389 . S
C382 C383 1.524 . S
C382 C396 1.377 . S
C383 C382 1.524 . S
C383 C384 1.397 . S
C383 C388 1.363 . S
C384 H361 0.950 . S
C384 C383 1.397 . S
C384 C385 1.334 . S
C385 H362 0.950 . S
C385 C384 1.334 . S
C385 C386 1.287 . S
C386 C385 1.287 . S
C386 C387 1.524 . S
C386 H405 0.913 . S
C387 H363 0.950 . S
C387 C386 1.524 . S
C387 C388 1.415 . S
C388 H364 0.950 . S
C388 C383 1.363 . S
C388 C387 1.415 . S
C389 H365 0.951 . S
C389 C390 1.366 . S
C389 C391 1.388 . S
C390 C389 1.366 . S
C390 C394 1.385 . S
C391 H366 0.951 . S
C391 C389 1.388 . S
C391 C392 1.366 . S
C392 C391 1.366 . S
C392 C393 1.414 . S
C392 C395 1.499 . S
C393 H367 0.950 . S
C393 C392 1.414 . S
C393 C394 1.374 . S
C394 H368 0.950 . S
C394 C390 1.385 . S
C394 C393 1.374 . S
C395 C392 1.499 . S
C395 C396 1.373 1_455 S
C395 C397 1.389 . S
C396 H369 0.950 . S
C396 C382 1.377 . S
C396 C395 1.373 1_655 S
C397 C381 1.377 . S
C397 C395 1.389 . S
C397 C398 1.524 . S
C398 C397 1.524 . S
C398 C399 1.397 . S
C398 C403 1.363 . S
C399 H370 0.950 . S
C399 C398 1.397 . S
C399 C400 1.334 . S
C400 H371 0.950 . S
C400 C399 1.334 . S
C400 C401 1.287 . S
C401 C400 1.287 . S
C401 C402 1.524 . S
C401 H404 0.999 . S
C402 H372 0.950 . S
C402 C401 1.524 . S
C402 C403 1.415 . S
C403 H373 0.950 . S
C403 C398 1.363 . S
C403 C402 1.415 . S
H404 C401 0.999 . S
H405 C386 0.913 . S
H406 C424 0.951 . S
H407 C426 0.951 . S
H408 C428 0.950 . S
H409 C429 0.950 . S
H410 C431 0.950 . S
H411 C434 0.950 . S
H412 C435 0.950 . S
H413 C437 0.950 . S
H414 C438 0.950 . S
H415 C439 0.951 . S
H416 C441 0.951 . S
H417 C443 0.950 . S
H418 C444 0.950 . S
H419 C446 0.950 . S
H420 C449 0.950 . S
H421 C450 0.950 . S
H422 C452 0.950 . S
H423 C453 0.950 . S
C424 H406 0.951 . S
C424 C425 1.366 . S
C424 C426 1.388 . S
C425 C424 1.366 . S
C425 C429 1.385 . S
C426 H407 0.951 . S
C426 C424 1.388 . S
C426 C427 1.366 . S
C427 C426 1.366 . S
C427 C428 1.414 . S
C427 C430 1.499 . S
C428 H408 0.950 . S
C428 C427 1.414 . S
C428 C429 1.374 . S
C429 H409 0.950 . S
C429 C425 1.385 . S
C429 C428 1.374 . S
C430 C427 1.499 . S
C430 C431 1.373 . S
C430 C432 1.389 . S
C431 H410 0.950 . S
C431 C430 1.373 . S
C431 C447 1.377 . S
C432 C430 1.389 . S
C432 C433 1.524 . S
C432 C446 1.377 . S
C433 C432 1.524 . S
C433 C434 1.397 . S
C433 C438 1.363 . S
C434 H411 0.950 . S
C434 C433 1.397 . S
C434 C435 1.334 . S
C435 H412 0.950 . S
C435 C434 1.334 . S
C435 C436 1.287 . S
C436 C435 1.287 . S
C436 C437 1.524 . S
C436 H455 0.913 . S
C437 H413 0.950 . S
C437 C436 1.524 . S
C437 C438 1.415 . S
C438 H414 0.950 . S
C438 C433 1.363 . S
C438 C437 1.415 . S
C439 H415 0.951 . S
C439 C440 1.366 . S
C439 C441 1.388 . S
C440 C439 1.366 . S
C440 C444 1.385 . S
C441 H416 0.951 . S
C441 C439 1.388 . S
C441 C442 1.366 . S
C442 C441 1.366 . S
C442 C443 1.414 . S
C442 C445 1.499 . S
C443 H417 0.950 . S
C443 C442 1.414 . S
C443 C444 1.374 . S
C444 H418 0.950 . S
C444 C440 1.385 . S
C444 C443 1.374 . S
C445 C442 1.499 . S
C445 C446 1.373 . S
C445 C447 1.389 . S
C446 H419 0.950 . S
C446 C432 1.377 . S
C446 C445 1.373 . S
C447 C431 1.377 . S
C447 C445 1.389 . S
C447 C448 1.524 . S
C448 C447 1.524 . S
C448 C449 1.397 . S
C448 C453 1.363 . S
C449 H420 0.950 . S
C449 C448 1.397 . S
C449 C450 1.334 . S
C450 H421 0.950 . S
C450 C449 1.334 . S
C450 C451 1.287 . S
C451 C450 1.287 . S
C451 C452 1.524 . S
C451 H454 0.999 . S
C452 H422 0.950 . S
C452 C451 1.524 . S
C452 C453 1.415 . S
C453 H423 0.950 . S
C453 C448 1.363 . S
C453 C452 1.415 . S
H454 C451 0.999 . S
H455 C436 0.913 . S
C75 C23 0.921 . S
C90 C9 0.923 . S
C125 C7 0.797 . S
C140 C21 0.797 . S
C175 C51 0.922 . S
C190 C37 0.921 . S
C225 C35 0.796 . S
C240 C49 0.796 . S
C275 C3 1.506 . S
C290 C31 1.506 . S
C325 C45 1.506 . S
C340 C17 1.506 . S
C375 C36 1.522 . S
C390 C8 1.522 . S
C425 C22 1.523 . S
C440 C50 1.522 . S
