# Generated by pormake.
# Topology som, (6)-cn, num edge types: 1
# Building blocks:
#     Node 0, Type 0, BuildingBlock: CUKXOW_clean_sbu_0, # of connection points: 6
#     Node 1, Type 0, BuildingBlock: CUKXOW_clean_sbu_0, # of connection points: 6
#     Node 2, Type 0, BuildingBlock: CUKXOW_clean_sbu_0, # of connection points: 6
#     Node 3, Type 0, BuildingBlock: CUKXOW_clean_sbu_0, # of connection points: 6
#     Node 4, Type 0, BuildingBlock: CUKXOW_clean_sbu_0, # of connection points: 6
#     Node 5, Type 0, BuildingBlock: CUKXOW_clean_sbu_0, # of connection points: 6
#     Node 6, Type 0, BuildingBlock: CUKXOW_clean_sbu_0, # of connection points: 6
#     Node 7, Type 0, BuildingBlock: CUKXOW_clean_sbu_0, # of connection points: 6
#     Node 8, Type 0, BuildingBlock: CUKXOW_clean_sbu_0, # of connection points: 6
#     Node 9, Type 0, BuildingBlock: CUKXOW_clean_sbu_0, # of connection points: 6
#     Node 10, Type 0, BuildingBlock: CUKXOW_clean_sbu_0, # of connection points: 6
#     Node 11, Type 0, BuildingBlock: CUKXOW_clean_sbu_0, # of connection points: 6
#     Node 12, Type 0, BuildingBlock: CUKXOW_clean_sbu_0, # of connection points: 6
#     Node 13, Type 0, BuildingBlock: CUKXOW_clean_sbu_0, # of connection points: 6
#     Node 14, Type 0, BuildingBlock: CUKXOW_clean_sbu_0, # of connection points: 6
#     Node 15, Type 0, BuildingBlock: CUKXOW_clean_sbu_0, # of connection points: 6
#     Node 16, Type 0, BuildingBlock: CUKXOW_clean_sbu_0, # of connection points: 6
#     Node 17, Type 0, BuildingBlock: CUKXOW_clean_sbu_0, # of connection points: 6
#     Node 18, Type 0, BuildingBlock: CUKXOW_clean_sbu_0, # of connection points: 6
#     Node 19, Type 0, BuildingBlock: CUKXOW_clean_sbu_0, # of connection points: 6
#     Node 20, Type 0, BuildingBlock: CUKXOW_clean_sbu_0, # of connection points: 6
#     Node 21, Type 0, BuildingBlock: CUKXOW_clean_sbu_0, # of connection points: 6
#     Node 22, Type 0, BuildingBlock: CUKXOW_clean_sbu_0, # of connection points: 6
#     Node 23, Type 0, BuildingBlock: CUKXOW_clean_sbu_0, # of connection points: 6
#     Node 24, Type 0, BuildingBlock: CUKXOW_clean_sbu_0, # of connection points: 6
#     Node 25, Type 0, BuildingBlock: CUKXOW_clean_sbu_0, # of connection points: 6
#     Node 26, Type 0, BuildingBlock: CUKXOW_clean_sbu_0, # of connection points: 6
#     Node 27, Type 0, BuildingBlock: CUKXOW_clean_sbu_0, # of connection points: 6
#     Node 28, Type 0, BuildingBlock: CUKXOW_clean_sbu_0, # of connection points: 6
#     Node 29, Type 0, BuildingBlock: CUKXOW_clean_sbu_0, # of connection points: 6
#     Node 30, Type 0, BuildingBlock: CUKXOW_clean_sbu_0, # of connection points: 6
#     Node 31, Type 0, BuildingBlock: CUKXOW_clean_sbu_0, # of connection points: 6
#     Edge 32, Type (0, 0), BuildingBlock: AJUNOK_clean_linker_0, # of connection points: 2
#     Edge 33, Type (0, 0), BuildingBlock: AJUNOK_clean_linker_0, # of connection points: 2
#     Edge 34, Type (0, 0), BuildingBlock: AJUNOK_clean_linker_0, # of connection points: 2
#     Edge 35, Type (0, 0), BuildingBlock: AJUNOK_clean_linker_0, # of connection points: 2
#     Edge 36, Type (0, 0), BuildingBlock: AJUNOK_clean_linker_0, # of connection points: 2
#     Edge 37, Type (0, 0), BuildingBlock: AJUNOK_clean_linker_0, # of connection points: 2
#     Edge 38, Type (0, 0), BuildingBlock: AJUNOK_clean_linker_0, # of connection points: 2
#     Edge 39, Type (0, 0), BuildingBlock: AJUNOK_clean_linker_0, # of connection points: 2
#     Edge 40, Type (0, 0), BuildingBlock: AJUNOK_clean_linker_0, # of connection points: 2
#     Edge 41, Type (0, 0), BuildingBlock: AJUNOK_clean_linker_0, # of connection points: 2
#     Edge 42, Type (0, 0), BuildingBlock: AJUNOK_clean_linker_0, # of connection points: 2
#     Edge 43, Type (0, 0), BuildingBlock: AJUNOK_clean_linker_0, # of connection points: 2
#     Edge 44, Type (0, 0), BuildingBlock: AJUNOK_clean_linker_0, # of connection points: 2
#     Edge 45, Type (0, 0), BuildingBlock: AJUNOK_clean_linker_0, # of connection points: 2
#     Edge 46, Type (0, 0), BuildingBlock: AJUNOK_clean_linker_0, # of connection points: 2
#     Edge 47, Type (0, 0), BuildingBlock: AJUNOK_clean_linker_0, # of connection points: 2
#     Edge 48, Type (0, 0), BuildingBlock: AJUNOK_clean_linker_0, # of connection points: 2
#     Edge 49, Type (0, 0), BuildingBlock: AJUNOK_clean_linker_0, # of connection points: 2
#     Edge 50, Type (0, 0), BuildingBlock: AJUNOK_clean_linker_0, # of connection points: 2
#     Edge 51, Type (0, 0), BuildingBlock: AJUNOK_clean_linker_0, # of connection points: 2
#     Edge 52, Type (0, 0), BuildingBlock: AJUNOK_clean_linker_0, # of connection points: 2
#     Edge 53, Type (0, 0), BuildingBlock: AJUNOK_clean_linker_0, # of connection points: 2
#     Edge 54, Type (0, 0), BuildingBlock: AJUNOK_clean_linker_0, # of connection points: 2
#     Edge 55, Type (0, 0), BuildingBlock: AJUNOK_clean_linker_0, # of connection points: 2
#     Edge 56, Type (0, 0), BuildingBlock: AJUNOK_clean_linker_0, # of connection points: 2
#     Edge 57, Type (0, 0), BuildingBlock: AJUNOK_clean_linker_0, # of connection points: 2
#     Edge 58, Type (0, 0), BuildingBlock: AJUNOK_clean_linker_0, # of connection points: 2
#     Edge 59, Type (0, 0), BuildingBlock: AJUNOK_clean_linker_0, # of connection points: 2
#     Edge 60, Type (0, 0), BuildingBlock: AJUNOK_clean_linker_0, # of connection points: 2
#     Edge 61, Type (0, 0), BuildingBlock: AJUNOK_clean_linker_0, # of connection points: 2
#     Edge 62, Type (0, 0), BuildingBlock: AJUNOK_clean_linker_0, # of connection points: 2
#     Edge 63, Type (0, 0), BuildingBlock: AJUNOK_clean_linker_0, # of connection points: 2
#     Edge 64, Type (0, 0), BuildingBlock: AJUNOK_clean_linker_0, # of connection points: 2
#     Edge 65, Type (0, 0), BuildingBlock: AJUNOK_clean_linker_0, # of connection points: 2
#     Edge 66, Type (0, 0), BuildingBlock: AJUNOK_clean_linker_0, # of connection points: 2
#     Edge 67, Type (0, 0), BuildingBlock: AJUNOK_clean_linker_0, # of connection points: 2
#     Edge 68, Type (0, 0), BuildingBlock: AJUNOK_clean_linker_0, # of connection points: 2
#     Edge 69, Type (0, 0), BuildingBlock: AJUNOK_clean_linker_0, # of connection points: 2
#     Edge 70, Type (0, 0), BuildingBlock: AJUNOK_clean_linker_0, # of connection points: 2
#     Edge 71, Type (0, 0), BuildingBlock: AJUNOK_clean_linker_0, # of connection points: 2
#     Edge 72, Type (0, 0), BuildingBlock: AJUNOK_clean_linker_0, # of connection points: 2
#     Edge 73, Type (0, 0), BuildingBlock: AJUNOK_clean_linker_0, # of connection points: 2
#     Edge 74, Type (0, 0), BuildingBlock: AJUNOK_clean_linker_0, # of connection points: 2
#     Edge 75, Type (0, 0), BuildingBlock: AJUNOK_clean_linker_0, # of connection points: 2
#     Edge 76, Type (0, 0), BuildingBlock: AJUNOK_clean_linker_0, # of connection points: 2
#     Edge 77, Type (0, 0), BuildingBlock: AJUNOK_clean_linker_0, # of connection points: 2
#     Edge 78, Type (0, 0), BuildingBlock: AJUNOK_clean_linker_0, # of connection points: 2
#     Edge 79, Type (0, 0), BuildingBlock: AJUNOK_clean_linker_0, # of connection points: 2
#     Edge 80, Type (0, 0), BuildingBlock: AJUNOK_clean_linker_0, # of connection points: 2
#     Edge 81, Type (0, 0), BuildingBlock: AJUNOK_clean_linker_0, # of connection points: 2
#     Edge 82, Type (0, 0), BuildingBlock: AJUNOK_clean_linker_0, # of connection points: 2
#     Edge 83, Type (0, 0), BuildingBlock: AJUNOK_clean_linker_0, # of connection points: 2
#     Edge 84, Type (0, 0), BuildingBlock: AJUNOK_clean_linker_0, # of connection points: 2
#     Edge 85, Type (0, 0), BuildingBlock: AJUNOK_clean_linker_0, # of connection points: 2
#     Edge 86, Type (0, 0), BuildingBlock: AJUNOK_clean_linker_0, # of connection points: 2
#     Edge 87, Type (0, 0), BuildingBlock: AJUNOK_clean_linker_0, # of connection points: 2
#     Edge 88, Type (0, 0), BuildingBlock: AJUNOK_clean_linker_0, # of connection points: 2
#     Edge 89, Type (0, 0), BuildingBlock: AJUNOK_clean_linker_0, # of connection points: 2
#     Edge 90, Type (0, 0), BuildingBlock: AJUNOK_clean_linker_0, # of connection points: 2
#     Edge 91, Type (0, 0), BuildingBlock: AJUNOK_clean_linker_0, # of connection points: 2
#     Edge 92, Type (0, 0), BuildingBlock: AJUNOK_clean_linker_0, # of connection points: 2
#     Edge 93, Type (0, 0), BuildingBlock: AJUNOK_clean_linker_0, # of connection points: 2
#     Edge 94, Type (0, 0), BuildingBlock: AJUNOK_clean_linker_0, # of connection points: 2
#     Edge 95, Type (0, 0), BuildingBlock: AJUNOK_clean_linker_0, # of connection points: 2
#     Edge 96, Type (0, 0), BuildingBlock: AJUNOK_clean_linker_0, # of connection points: 2
#     Edge 97, Type (0, 0), BuildingBlock: AJUNOK_clean_linker_0, # of connection points: 2
#     Edge 98, Type (0, 0), BuildingBlock: AJUNOK_clean_linker_0, # of connection points: 2
#     Edge 99, Type (0, 0), BuildingBlock: AJUNOK_clean_linker_0, # of connection points: 2
#     Edge 100, Type (0, 0), BuildingBlock: AJUNOK_clean_linker_0, # of connection points: 2
#     Edge 101, Type (0, 0), BuildingBlock: AJUNOK_clean_linker_0, # of connection points: 2
#     Edge 102, Type (0, 0), BuildingBlock: AJUNOK_clean_linker_0, # of connection points: 2
#     Edge 103, Type (0, 0), BuildingBlock: AJUNOK_clean_linker_0, # of connection points: 2
#     Edge 104, Type (0, 0), BuildingBlock: AJUNOK_clean_linker_0, # of connection points: 2
#     Edge 105, Type (0, 0), BuildingBlock: AJUNOK_clean_linker_0, # of connection points: 2
#     Edge 106, Type (0, 0), BuildingBlock: AJUNOK_clean_linker_0, # of connection points: 2
#     Edge 107, Type (0, 0), BuildingBlock: AJUNOK_clean_linker_0, # of connection points: 2
#     Edge 108, Type (0, 0), BuildingBlock: AJUNOK_clean_linker_0, # of connection points: 2
#     Edge 109, Type (0, 0), BuildingBlock: AJUNOK_clean_linker_0, # of connection points: 2
#     Edge 110, Type (0, 0), BuildingBlock: AJUNOK_clean_linker_0, # of connection points: 2
#     Edge 111, Type (0, 0), BuildingBlock: AJUNOK_clean_linker_0, # of connection points: 2
#     Edge 112, Type (0, 0), BuildingBlock: AJUNOK_clean_linker_0, # of connection points: 2
#     Edge 113, Type (0, 0), BuildingBlock: AJUNOK_clean_linker_0, # of connection points: 2
#     Edge 114, Type (0, 0), BuildingBlock: AJUNOK_clean_linker_0, # of connection points: 2
#     Edge 115, Type (0, 0), BuildingBlock: AJUNOK_clean_linker_0, # of connection points: 2
#     Edge 116, Type (0, 0), BuildingBlock: AJUNOK_clean_linker_0, # of connection points: 2
#     Edge 117, Type (0, 0), BuildingBlock: AJUNOK_clean_linker_0, # of connection points: 2
#     Edge 118, Type (0, 0), BuildingBlock: AJUNOK_clean_linker_0, # of connection points: 2
#     Edge 119, Type (0, 0), BuildingBlock: AJUNOK_clean_linker_0, # of connection points: 2
#     Edge 120, Type (0, 0), BuildingBlock: AJUNOK_clean_linker_0, # of connection points: 2
#     Edge 121, Type (0, 0), BuildingBlock: AJUNOK_clean_linker_0, # of connection points: 2
#     Edge 122, Type (0, 0), BuildingBlock: AJUNOK_clean_linker_0, # of connection points: 2
#     Edge 123, Type (0, 0), BuildingBlock: AJUNOK_clean_linker_0, # of connection points: 2
#     Edge 124, Type (0, 0), BuildingBlock: AJUNOK_clean_linker_0, # of connection points: 2
#     Edge 125, Type (0, 0), BuildingBlock: AJUNOK_clean_linker_0, # of connection points: 2
#     Edge 126, Type (0, 0), BuildingBlock: AJUNOK_clean_linker_0, # of connection points: 2
#     Edge 127, Type (0, 0), BuildingBlock: AJUNOK_clean_linker_0, # of connection points: 2
# Relax obj value: 0.130
# Max RMSD: 0.182
# Mean RMSD: 0.182
data_MOF--net-som--node1-CUKXOW_clean_sbu_0--edge1-AJUNOK_clean_linker_0
_symmetry_space_group_name_H-M    P1
_symmetry_Int_Tables_number       1
_symmetry_cell_setting            triclinic
loop_
_symmetry_equiv_pos_as_xyz
'x, y, z'
_cell_length_a     10.313745
_cell_length_b     55.86425
_cell_length_c     89.555058
_cell_angle_alpha  90.035368
_cell_angle_beta   89.934499
_cell_angle_gamma 90.111901
loop_
_atom_site_label
_atom_site_type_symbol
_atom_site_fract_x
_atom_site_fract_y
_atom_site_fract_z
_atom_type_partial_charge
Tb0 Tb 1.06205 0.46488 0.06408 0.0
C1 C 0.11487 0.49068 0.09433 0.0
Tb2 Tb 0.08959 0.51886 0.06379 0.0
O3 O 0.25929 0.46026 0.07196 0.0
O4 O 0.21313 0.48954 0.05849 0.0
O5 O 1.06178 0.47154 0.088 0.0
C6 C 0.13694 0.5661 0.06576 0.0
O7 O 0.14626 0.51017 0.08664 0.0
C8 C 0.85039 0.50272 0.06184 0.0
C9 C 1.05821 0.49296 0.03329 0.0
O10 O 1.04204 0.5547 0.07205 0.0
O11 O 0.20832 0.55069 0.05863 0.0
O12 O 0.89145 0.52209 0.05548 0.0
O13 O 0.94051 0.49412 0.06966 0.0
O14 O 0.1069 0.51196 0.04014 0.0
O15 O 1.0183 0.47372 0.04073 0.0
C16 C 0.99611 0.41845 0.06193 0.0
O17 O 0.10119 0.42813 0.05676 0.0
O18 O 0.92653 0.43508 0.06815 0.0
C19 C 0.30163 0.48011 0.06627 0.0
Tb20 Tb 0.27645 0.77319 0.06357 0.0
C21 C 0.23649 0.74559 0.09422 0.0
Tb22 Tb 0.24864 0.71682 0.06408 0.0
O23 O 0.06839 0.78207 0.06397 0.0
O24 O 0.13012 0.74726 0.06428 0.0
O25 O 0.28325 0.7651 0.08752 0.0
C26 C 0.19454 0.66992 0.06251 0.0
O27 O 0.20117 0.72599 0.08689 0.0
C28 C 0.48437 0.73443 0.06811 0.0
C29 C 0.25719 0.74427 0.03327 0.0
O30 O 0.12498 0.68591 0.06939 0.0
O31 O 0.29204 0.68056 0.05615 0.0
O32 O 0.44366 0.71436 0.07368 0.0
O33 O 0.39635 0.74272 0.05988 0.0
O34 O 0.21473 0.72509 0.04062 0.0
O35 O 0.30293 0.76365 0.04015 0.0
C36 C 0.35893 0.81863 0.06249 0.0
O37 O 0.26852 0.80929 0.05428 0.0
O38 O 0.40564 0.80215 0.07126 0.0
C39 C 1.02991 0.75998 0.06426 0.0
Tb40 Tb 0.09059 0.77402 0.18837 0.0
C41 C 0.13828 0.74678 0.15829 0.0
Tb42 Tb 0.12178 0.72071 0.18964 0.0
O43 O 0.29092 0.77914 0.18106 0.0
O44 O 0.24292 0.75029 0.19467 0.0
O45 O 0.0937 0.76674 0.16447 0.0
C46 C 0.1804 0.67397 0.18904 0.0
O47 O 0.16442 0.72738 0.16623 0.0
C48 C 0.87865 0.73494 0.19051 0.0
C49 C 0.09407 0.74745 0.21924 0.0
O50 O 0.22022 0.68979 0.17945 0.0
O51 O 0.11153 0.68466 0.19908 0.0
O52 O 0.92083 0.7152 0.1961 0.0
O53 O 0.96894 0.7444 0.18308 0.0
O54 O 0.16327 0.73083 0.21241 0.0
O55 O 1.03744 0.76476 0.21147 0.0
C56 C 1.02024 0.82008 0.19009 0.0
O57 O 0.10477 0.80964 0.19855 0.0
O58 O 0.97356 0.80449 0.18078 0.0
C59 C 0.33242 0.75945 0.18697 0.0
Tb60 Tb 0.31816 0.46659 0.18794 0.0
C61 C 0.24797 0.49223 0.15749 0.0
Tb62 Tb 0.28568 0.5242 0.18658 0.0
O63 O 0.10826 0.45823 0.18928 0.0
O64 O 0.17351 0.49276 0.18852 0.0
O65 O 0.30276 0.47334 0.164 0.0
C66 C 0.22051 0.57035 0.18557 0.0
O67 O 0.21882 0.51238 0.1647 0.0
C68 C 0.53244 0.51024 0.18543 0.0
C69 C 0.334 0.49845 0.21734 0.0
O70 O 0.27246 0.55824 0.17474 0.0
O71 O 0.19941 0.5561 0.19683 0.0
O72 O 0.49493 0.53231 0.18521 0.0
O73 O 0.43087 0.49794 0.18614 0.0
O74 O 0.28038 0.51707 0.21044 0.0
O75 O 0.37249 0.47867 0.21028 0.0
C76 C 0.40714 0.42173 0.18804 0.0
O77 O 0.33215 0.43112 0.19812 0.0
O78 O 0.43492 0.4379 0.17806 0.0
C79 C 0.07159 0.48046 0.18903 0.0
Tb80 Tb 0.98743 0.46745 0.93778 0.0
C81 C 1.00614 0.49518 0.96854 0.0
Tb82 Tb 1.01049 0.52331 0.93805 0.0
O83 O 0.17679 0.46528 0.9271 0.0
O84 O 0.13538 0.49346 0.94143 0.0
O85 O 0.96356 0.47564 0.96155 0.0
C86 C 0.09125 0.56838 0.93762 0.0
O87 O 1.04267 0.51488 0.96137 0.0
C88 C 0.76456 0.50978 0.93759 0.0
C89 C 0.96933 0.49585 0.90756 0.0
O90 O 0.99017 0.56057 0.9447 0.0
O91 O 0.14971 0.55076 0.93093 0.0
O92 O 0.80184 0.53191 0.93798 0.0
O93 O 0.8652 0.49718 0.93771 0.0
O94 O 1.01626 0.51523 0.91427 0.0
O95 O 0.93912 0.47588 0.9148 0.0
C96 C 0.943 0.42059 0.94001 0.0
O97 O 0.86713 0.43589 0.93348 0.0
O98 O 1.0412 0.43188 0.9457 0.0
C99 C 0.21969 0.48519 0.93265 0.0
Tb100 Tb 0.88038 0.27023 0.93779 0.0
C101 C 0.86021 0.24304 0.96805 0.0
Tb102 Tb 0.85064 0.21481 0.93726 0.0
O103 O 0.68559 0.27347 0.94671 0.0
O104 O 0.72954 0.24489 0.93269 0.0
O105 O 0.91017 0.26186 0.96108 0.0
C106 C 0.76513 0.16979 0.93554 0.0
O107 O 0.81743 0.22375 0.96079 0.0
C108 C 0.09765 0.22701 0.94022 0.0
C109 C 0.90318 0.24254 0.90734 0.0
O110 O 0.72658 0.18553 0.9453 0.0
O111 O 0.84928 0.17963 0.92672 0.0
O112 O 1.05744 0.20505 0.93964 0.0
O113 O 0.99894 0.24001 0.93937 0.0
O114 O 0.84529 0.22381 0.9136 0.0
O115 O 0.93884 0.26173 0.91506 0.0
C116 C 0.92083 0.31715 0.93546 0.0
O117 O 0.83448 0.30498 0.92816 0.0
O118 O 0.98839 0.30267 0.94372 0.0
C119 C 0.64249 0.25382 0.94094 0.0
Tb120 Tb 1.01873 0.27129 0.81267 0.0
C121 C 1.02727 0.2452 0.78193 0.0
Tb122 Tb 1.04349 0.21737 0.81301 0.0
O123 O 0.21482 0.27347 0.80363 0.0
O124 O 0.16653 0.24637 0.81858 0.0
O125 O 0.98735 0.26459 0.78912 0.0
C126 C 0.11605 0.17123 0.81111 0.0
O127 O 0.06549 0.22557 0.78911 0.0
C128 C 0.80533 0.23303 0.81564 0.0
C129 C 1.01054 0.24344 0.84353 0.0
O130 O 0.19387 0.18954 0.8112 0.0
O131 O 0.99806 0.17901 0.8119 0.0
O132 O 0.84756 0.2133 0.82145 0.0
O133 O 0.89333 0.2421 0.80757 0.0
O134 O 1.05996 0.22438 0.83678 0.0
O135 O 0.97765 0.26311 0.83611 0.0
C136 C 0.97826 0.31875 0.81486 0.0
O137 O 0.88824 0.30266 0.813 0.0
O138 O 0.08873 0.30796 0.81575 0.0
C139 C 0.25605 0.25457 0.81045 0.0
Tb140 Tb 0.85034 0.46929 0.8127 0.0
C141 C 0.82383 0.49639 0.78255 0.0
Tb142 Tb 0.82415 0.52335 0.81373 0.0
O143 O 0.65533 0.46611 0.80383 0.0
O144 O 0.70001 0.49391 0.81852 0.0
O145 O 0.87193 0.47703 0.7891 0.0
C146 C 0.75806 0.5698 0.8121 0.0
O147 O 0.7818 0.51508 0.79035 0.0
C148 C 1.06341 0.50749 0.81555 0.0
C149 C 0.86535 0.49672 0.84378 0.0
O150 O 0.86087 0.56021 0.80632 0.0
O151 O 0.69102 0.55309 0.81863 0.0
O152 O 1.02315 0.52711 0.82173 0.0
O153 O 0.97289 0.49882 0.80777 0.0
O154 O 0.81706 0.51614 0.83741 0.0
O155 O 0.89578 0.4772 0.83606 0.0
C156 C 0.90157 0.42221 0.81471 0.0
O157 O 0.79246 0.43242 0.8179 0.0
O158 O 0.9834 0.43863 0.81052 0.0
C159 C 0.61229 0.48527 0.81026 0.0
Tb160 Tb 0.06638 0.9675 0.56342 0.0
C161 C 0.11848 -0.00323 0.59272 0.0
Tb162 Tb 0.09783 0.02334 0.56165 0.0
O163 O 0.27326 0.95791 0.56137 0.0
O164 O 0.21426 0.99272 0.56052 0.0
O165 O 1.06179 0.9775 0.58693 0.0
C166 C 0.14704 0.07029 0.5634 0.0
O167 O 0.15522 0.01544 0.58454 0.0
C168 C 0.85872 0.00672 0.55977 0.0
C169 C 0.07271 0.99407 0.53204 0.0
O170 O 1.05812 0.05882 0.57076 0.0
O171 O 0.21173 0.05508 0.55527 0.0
O172 O 0.89908 0.02629 0.55356 0.0
O173 O 0.94902 -0.00175 0.56768 0.0
O174 O 0.12204 0.01359 0.53837 0.0
O175 O 1.03165 0.97528 0.53986 0.0
C176 C 0.98523 0.92203 0.56505 0.0
O177 O 0.94179 0.93792 0.55569 0.0
O178 O 0.07044 0.93207 0.57365 0.0
C179 C 0.31361 0.9798 0.56033 0.0
Tb180 Tb 0.27884 0.27709 0.56203 0.0
C181 C 0.24191 0.24955 0.59266 0.0
Tb182 Tb 0.25102 0.22095 0.56235 0.0
O183 O 0.0703 0.2861 0.56276 0.0
O184 O 0.13198 0.25127 0.56287 0.0
O185 O 0.28777 0.26898 0.58586 0.0
C186 C 0.19933 0.17406 0.56044 0.0
O187 O 0.20869 0.22967 0.58546 0.0
C188 C 0.48593 0.23828 0.56684 0.0
C189 C 0.25673 0.24896 0.53163 0.0
O190 O 0.12973 0.18976 0.56754 0.0
O191 O 0.29564 0.18496 0.55402 0.0
O192 O 0.44346 0.21824 0.57225 0.0
O193 O 0.40019 0.24676 0.55833 0.0
O194 O 0.21694 0.22941 0.53881 0.0
O195 O 0.30314 0.26812 0.53862 0.0
C196 C 0.36752 0.32204 0.56146 0.0
O197 O 0.27179 0.31375 0.55361 0.0
O198 O 0.41512 0.30483 0.56958 0.0
C199 C 1.03178 0.26401 0.56321 0.0
Tb200 Tb 0.07022 0.27407 0.68638 0.0
C201 C 0.13623 0.24882 0.65644 0.0
Tb202 Tb 0.10181 0.22051 0.68662 0.0
O203 O 0.27044 0.28021 0.6797 0.0
O204 O 0.22323 0.25005 0.69225 0.0
O205 O 0.07506 0.26717 0.66258 0.0
C206 C 0.15826 0.17388 0.68424 0.0
O207 O 0.17167 0.22981 0.6643 0.0
C208 C 0.85928 0.23524 0.68771 0.0
C209 C 1.05635 0.24605 0.7169 0.0
O210 O 0.09678 0.18648 0.67441 0.0
O211 O 0.19067 0.18765 0.6953 0.0
O212 O 0.8999 0.21545 0.69349 0.0
O213 O 0.95089 0.24458 0.68047 0.0
O214 O 0.11546 0.22783 0.71033 0.0
O215 O 1.01232 0.26455 0.70913 0.0
C216 C 0.99695 0.31999 0.6876 0.0
O217 O 0.0776 0.30975 0.69665 0.0
O218 O 0.9552 0.30424 0.67812 0.0
C219 C 0.31287 0.26014 0.68497 0.0
Tb220 Tb 0.27018 0.97007 0.68613 0.0
C221 C 0.22309 -0.00287 0.65652 0.0
Tb222 Tb 0.24018 0.02348 0.68721 0.0
O223 O 0.06857 0.96465 0.67949 0.0
O224 O 0.11903 0.99394 0.69258 0.0
O225 O 0.289 0.97921 0.66257 0.0
C226 C 0.18759 0.07021 0.68447 0.0
O227 O 0.17423 0.01455 0.66481 0.0
C228 C 0.48075 0.00844 0.68897 0.0
C229 C 0.26133 -0.00327 0.71774 0.0
O230 O 0.256 0.05759 0.67526 0.0
O231 O 0.14648 0.05643 0.69513 0.0
O232 O 0.43787 0.02782 0.69509 0.0
O233 O 0.39257 -0.00047 0.68094 0.0
O234 O 0.22284 0.01648 0.71089 0.0
O235 O 0.29175 0.97692 0.71024 0.0
C236 C 0.34796 0.92424 0.68719 0.0
O237 O 0.41318 0.94248 0.69217 0.0
O238 O 0.24021 0.9319 0.6816 0.0
C239 C 1.02784 0.98446 0.68531 0.0
Tb240 Tb 1.01139 0.96872 0.43641 0.0
C241 C 1.02428 0.99577 0.46715 0.0
Tb242 Tb 1.03586 0.02452 0.43687 0.0
O243 O 0.20441 0.96647 0.42619 0.0
O244 O 0.1592 0.99465 0.44022 0.0
O245 O 0.97765 0.97693 0.45985 0.0
C246 C 0.11837 0.06976 0.43764 0.0
O247 O 0.07038 0.01497 0.46014 0.0
C248 C 0.78957 0.01166 0.43674 0.0
C249 C 0.99488 -0.00338 0.40634 0.0
O250 O 1.05142 0.05913 0.44796 0.0
O251 O 0.14155 0.05472 0.42686 0.0
O252 O 0.82876 0.03369 0.43701 0.0
O253 O 0.88887 -0.0013 0.43663 0.0
O254 O 1.04453 0.01592 0.41298 0.0
O255 O 0.95804 0.97724 0.41376 0.0
C256 C 0.9688 0.92189 0.43946 0.0
O257 O 0.89673 0.93646 0.43177 0.0
O258 O 1.0621 0.93388 0.44564 0.0
C259 C 0.24551 0.98652 0.43172 0.0
Tb260 Tb 0.86783 0.77179 0.43979 0.0
C261 C 0.84484 0.7428 0.46936 0.0
Tb262 Tb 0.83654 0.71619 0.43793 0.0
O263 O 0.6692 0.77482 0.44795 0.0
O264 O 0.71866 0.74681 0.43371 0.0
O265 O 0.89406 0.76224 0.463 0.0
C266 C 0.75181 0.67105 0.43617 0.0
O267 O 0.8031 0.72399 0.46157 0.0
C268 C 0.0837 0.72827 0.44104 0.0
C269 C 0.88938 0.74564 0.40867 0.0
O270 O 0.71009 0.68695 0.44564 0.0
O271 O 0.83786 0.68086 0.42756 0.0
O272 O 1.0431 0.70639 0.43999 0.0
O273 O 0.9847 0.74127 0.44076 0.0
O274 O 0.83304 0.72628 0.41441 0.0
O275 O 0.92588 0.76421 0.41693 0.0
C276 C 0.92104 0.81839 0.4382 0.0
O277 O 0.83032 0.80741 0.43086 0.0
O278 O 0.98456 0.80294 0.44621 0.0
C279 C 0.6286 0.75533 0.44167 0.0
Tb280 Tb 1.00562 0.77428 0.31387 0.0
C281 C 1.04029 0.74567 0.28407 0.0
Tb282 Tb 1.03758 0.71831 0.31514 0.0
O283 O 0.21359 0.78361 0.31565 0.0
O284 O 0.15325 0.74904 0.31652 0.0
O285 O 0.98601 0.76463 0.29047 0.0
C286 C 0.10863 0.67239 0.31308 0.0
O287 O 0.0821 0.72698 0.29189 0.0
C288 C 0.79779 0.73426 0.31709 0.0
C289 C 0.99749 0.74698 0.34489 0.0
O290 O 1.00721 0.68184 0.30689 0.0
O291 O 0.17138 0.68895 0.32033 0.0
O292 O 0.83739 0.71414 0.3227 0.0
O293 O 0.88887 0.74337 0.30952 0.0
O294 O 1.04884 0.72749 0.33873 0.0
O295 O 0.95962 0.76588 0.33702 0.0
C296 C 0.93718 0.82034 0.31251 0.0
O297 O 0.90119 0.8054 0.32287 0.0
O298 O 1.00638 0.80898 0.30272 0.0
C299 C 0.25346 0.76176 0.31665 0.0
Tb300 Tb 0.88082 0.97149 0.31139 0.0
C301 C 0.88384 0.00052 0.28166 0.0
Tb302 Tb 0.8536 0.02714 0.3129 0.0
O303 O 0.68738 0.96907 0.30195 0.0
O304 O 0.73103 -0.00316 0.31654 0.0
O305 O 0.92423 0.98085 0.2885 0.0
C306 C 0.76194 0.07185 0.31369 0.0
O307 O 0.83643 0.01935 0.28898 0.0
C308 C 0.10027 0.01475 0.31052 0.0
C309 C 0.90146 -0.00183 0.34231 0.0
O310 O 0.72476 0.05524 0.30444 0.0
O311 O 0.84834 0.06303 0.32264 0.0
O312 O 1.0612 0.03675 0.31146 0.0
O313 O 1.00078 0.00178 0.31086 0.0
O314 O 0.8457 0.01741 0.33643 0.0
O315 O 0.93952 0.97964 0.33413 0.0
C316 C 0.91632 0.92431 0.31417 0.0
O317 O 0.83759 0.9372 0.32209 0.0
O318 O 0.97818 0.93817 0.3049 0.0
C319 C 0.64473 0.98853 0.30799 0.0
Tb320 Tb 0.58086 0.46909 0.56398 0.0
C321 C 0.61846 0.49477 0.59434 0.0
Tb322 Tb 0.60847 0.52266 0.56371 0.0
O323 O 0.7779 0.46446 0.5718 0.0
O324 O 0.73249 0.49355 0.55821 0.0
O325 O 0.56115 0.47636 0.58771 0.0
C326 C 0.65865 0.56957 0.56645 0.0
O327 O 0.65726 0.51391 0.58679 0.0
C328 C 0.36989 0.50651 0.56174 0.0
C329 C 0.59023 0.49698 0.53285 0.0
O330 O 0.54993 0.55912 0.56957 0.0
O331 O 0.74085 0.55349 0.56195 0.0
O332 O 0.41185 0.52551 0.55502 0.0
O333 O 0.45908 0.49808 0.56978 0.0
O334 O 0.62879 0.51654 0.53997 0.0
O335 O 0.55802 0.47698 0.54006 0.0
C336 C 0.5135 0.4227 0.56255 0.0
O337 O 0.4365 0.4406 0.55993 0.0
O338 O 0.62715 0.43102 0.56573 0.0
C339 C 0.82073 0.48417 0.56604 0.0
Tb340 Tb 0.7957 0.77399 0.56489 0.0
C341 C 0.75376 0.74828 0.59548 0.0
Tb342 Tb 0.76991 0.72018 0.56475 0.0
O343 O 0.59708 0.77827 0.57277 0.0
O344 O 0.64647 0.74925 0.55928 0.0
O345 O 0.797 0.76796 0.58886 0.0
C346 C 0.72959 0.67291 0.56707 0.0
O347 O 0.72591 0.72844 0.58798 0.0
C348 C 1.00745 0.73646 0.56194 0.0
C349 C 0.79382 0.74539 0.53413 0.0
O350 O 0.64044 0.68868 0.56418 0.0
O351 O 0.83877 0.68389 0.56894 0.0
O352 O 0.96398 0.71731 0.55555 0.0
O353 O 0.92005 0.74505 0.57024 0.0
O354 O 0.74387 0.72671 0.54119 0.0
O355 O 0.83633 0.76465 0.54144 0.0
C356 C 0.86824 0.82004 0.56317 0.0
O357 O 0.76396 0.81094 0.55739 0.0
O358 O 0.93306 0.80304 0.56961 0.0
C359 C 0.55646 0.75839 0.56692 0.0
Tb360 Tb 0.57232 0.77816 0.68877 0.0
C361 C 0.641 0.74998 0.65919 0.0
Tb362 Tb 0.60497 0.72052 0.68925 0.0
O363 O 0.78255 0.78646 0.68918 0.0
O364 O 0.7166 0.75206 0.6904 0.0
O365 O 0.5861 0.76953 0.66498 0.0
C366 C 0.67112 0.67439 0.68916 0.0
O367 O 0.6733 0.73091 0.66724 0.0
C368 C 0.35799 0.73422 0.68759 0.0
C369 C 0.56414 0.74868 0.71913 0.0
O370 O 0.63685 0.68674 0.67755 0.0
O371 O 0.67439 0.6884 0.70078 0.0
O372 O 0.39598 0.71219 0.688 0.0
O373 O 0.45926 0.74665 0.68796 0.0
O374 O 0.6196 0.72986 0.71266 0.0
O375 O 0.52104 0.76759 0.71155 0.0
C376 C 0.48947 0.82343 0.68941 0.0
O377 O 0.57229 0.81393 0.69854 0.0
O378 O 0.45023 0.80716 0.67998 0.0
C379 C 0.81886 0.76427 0.69007 0.0
Tb380 Tb 0.80589 0.46722 0.68778 0.0
C381 C 0.7416 0.49435 0.65766 0.0
Tb382 Tb 0.7747 0.52467 0.68714 0.0
O383 O 0.5978 0.45862 0.68965 0.0
O384 O 0.66064 0.49331 0.68873 0.0
O385 O 0.79944 0.47558 0.66395 0.0
C386 C 0.70446 0.57058 0.6881 0.0
O387 O 0.70812 0.51398 0.66514 0.0
C388 C 1.02187 0.5106 0.68588 0.0
C389 C 0.80859 0.49739 0.71754 0.0
O390 O 0.73041 0.55856 0.67604 0.0
O391 O 0.71241 0.55639 0.69954 0.0
O392 O 0.98526 0.53274 0.68571 0.0
O393 O 0.91986 0.49845 0.68632 0.0
O394 O 0.75309 0.51567 0.71057 0.0
O395 O 0.85599 0.47841 0.7104 0.0
C396 C 0.88784 0.42191 0.68733 0.0
O397 O 0.85075 0.43354 0.69913 0.0
O398 O 0.88378 0.4361 0.67585 0.0
C399 C 0.55996 0.48075 0.68958 0.0
Tb400 Tb 0.51424 0.47088 0.43848 0.0
C401 C 0.54239 0.49856 0.46794 0.0
Tb402 Tb 0.5459 0.52393 0.43672 0.0
O403 O 0.71684 0.46634 0.44485 0.0
O404 O 0.66511 0.4944 0.43108 0.0
O405 O 0.47543 0.4812 0.46144 0.0
C406 C 0.62107 0.5698 0.43761 0.0
O407 O 0.59708 0.51567 0.45984 0.0
C408 C 0.30446 0.50952 0.43526 0.0
C409 C 0.4918 0.49656 0.40694 0.0
O410 O 0.51928 0.56103 0.44413 0.0
O411 O 0.68171 0.55263 0.43082 0.0
O412 O 0.34843 0.52875 0.42895 0.0
O413 O 0.39189 0.50047 0.44337 0.0
O414 O 0.53896 0.51642 0.41298 0.0
O415 O 0.47004 0.4768 0.41483 0.0
C416 C 0.46308 0.42378 0.4391 0.0
O417 O 0.411 0.43903 0.42995 0.0
O418 O 0.54037 0.43521 0.44791 0.0
C419 C 0.75718 0.48556 0.43842 0.0
Tb420 Tb 0.34465 0.27442 0.43647 0.0
C421 C 0.29167 0.24772 0.46674 0.0
Tb422 Tb 0.31202 0.21692 0.4369 0.0
O423 O 0.13424 0.28248 0.43576 0.0
O424 O 0.19949 0.24817 0.43535 0.0
O425 O 0.34591 0.26656 0.46015 0.0
C426 C 0.23263 0.17147 0.43734 0.0
O427 O 0.25477 0.22807 0.45942 0.0
C428 C 0.55825 0.23051 0.43882 0.0
C429 C 0.37319 0.24422 0.40684 0.0
O430 O 0.27392 0.18355 0.44876 0.0
O431 O 0.23158 0.18528 0.42564 0.0
O432 O 0.52004 0.2084 0.43872 0.0
O433 O 0.45765 0.24302 0.43798 0.0
O434 O 0.31652 0.22516 0.41301 0.0
O435 O 0.41111 0.26328 0.41458 0.0
C436 C 0.41733 0.32019 0.43592 0.0
O437 O 0.35203 0.30929 0.42555 0.0
O438 O 0.44619 0.30497 0.44642 0.0
C439 C 0.09745 0.26031 0.43544 0.0
Tb440 Tb 0.51961 0.27611 0.31379 0.0
C441 C 0.57003 0.2502 0.28321 0.0
Tb442 Tb 0.55138 0.21851 0.31277 0.0
O443 O 0.73014 0.28417 0.31479 0.0
O444 O 0.66429 0.24984 0.31428 0.0
O445 O 0.51635 0.26883 0.29004 0.0
C446 C 0.63025 0.17304 0.31214 0.0
O447 O 0.60703 0.23037 0.29033 0.0
C448 C 0.30544 0.23228 0.31127 0.0
C449 C 0.48555 0.24496 0.3431 0.0
O450 O 0.56266 0.18363 0.30188 0.0
O451 O 0.65761 0.18837 0.32265 0.0
O452 O 0.34274 0.21014 0.31119 0.0
O453 O 0.40662 0.24472 0.31216 0.0
O454 O 0.53901 0.22574 0.33676 0.0
O455 O 0.45249 0.26454 0.33558 0.0
C456 C 0.44653 0.3218 0.31438 0.0
O457 O 0.50848 0.31078 0.32495 0.0
O458 O 0.42113 0.30673 0.30367 0.0
C459 C 0.76653 0.262 0.31455 0.0
Tb460 Tb 0.35755 0.47262 0.31201 0.0
C461 C 0.36226 0.50107 0.28229 0.0
Tb462 Tb 0.32884 0.52576 0.31393 0.0
O463 O 0.15635 0.46894 0.30476 0.0
O464 O 0.20707 0.49639 0.31904 0.0
O465 O 0.41241 0.48255 0.28946 0.0
C466 C 0.25227 0.57165 0.31297 0.0
O467 O 0.31138 0.51939 0.28973 0.0
C468 C 0.56925 0.51097 0.31606 0.0
C469 C 0.36008 0.4973 0.34371 0.0
O470 O 0.18164 0.55331 0.30929 0.0
O471 O 0.365 0.56406 0.31713 0.0
O472 O 0.52535 0.53034 0.32216 0.0
O473 O 0.48263 0.50212 0.30777 0.0
O474 O 0.30638 0.51639 0.3374 0.0
O475 O 0.39725 0.47853 0.33569 0.0
C476 C 0.40512 0.42544 0.31168 0.0
O477 O 0.44992 0.44045 0.32149 0.0
O478 O 0.33669 0.43713 0.30208 0.0
C479 C 0.11617 0.48808 0.3113 0.0
Tb480 Tb 0.58966 0.96509 0.0641 0.0
C481 C 0.63552 0.99161 0.09401 0.0
Tb482 Tb 0.61905 0.01886 0.06336 0.0
O483 O 0.79026 0.96022 0.07118 0.0
O484 O 0.74012 0.98936 0.05796 0.0
O485 O 0.57323 0.97341 0.08774 0.0
C486 C 0.66985 0.06592 0.06512 0.0
O487 O 0.6774 0.01015 0.0861 0.0
C488 C 0.37994 0.00309 0.0611 0.0
C489 C 0.60136 0.99222 0.03268 0.0
O490 O 0.57615 0.05486 0.07188 0.0
O491 O 0.7375 0.05029 0.05774 0.0
O492 O 0.42344 0.02225 0.05472 0.0
O493 O 0.46751 0.99447 0.06934 0.0
O494 O 0.6369 0.01211 0.03965 0.0
O495 O 0.57029 0.97226 0.04002 0.0
C496 C 0.51139 0.91918 0.06288 0.0
O497 O 0.62524 0.92664 0.06679 0.0
O498 O 0.44074 0.93767 0.05958 0.0
C499 C 0.83105 0.98005 0.06535 0.0
Tb500 Tb 0.80173 0.27025 0.06459 0.0
C501 C 0.76601 0.24166 0.09408 0.0
Tb502 Tb 0.76973 0.21705 0.06217 0.0
O503 O 0.60208 0.27443 0.07207 0.0
O504 O 0.64968 0.24682 0.0574 0.0
O505 O 0.81839 0.26114 0.08808 0.0
C506 C 0.72016 0.16973 0.06187 0.0
O507 O 0.73176 0.22285 0.08591 0.0
C508 C 1.01205 0.23181 0.06166 0.0
C509 C 0.78963 0.24568 0.03268 0.0
O510 O 0.65452 0.18557 0.06937 0.0
O511 O 0.8103 0.18071 0.05457 0.0
O512 O 0.96904 0.21299 0.05501 0.0
O513 O 0.92225 0.24047 0.06958 0.0
O514 O 0.73326 0.22698 0.0391 0.0
O515 O 0.83388 0.2639 0.04072 0.0
C516 C 0.8719 0.31664 0.06348 0.0
O517 O 0.94776 0.29858 0.06085 0.0
O518 O 0.75808 0.30848 0.0668 0.0
C519 C 0.56012 0.25544 0.06536 0.0
Tb520 Tb 0.60935 0.27427 0.18618 0.0
C521 C 0.64149 0.24386 0.15735 0.0
Tb522 Tb 0.64051 0.22136 0.18952 0.0
O523 O 0.80902 0.27971 0.17934 0.0
O524 O 0.76369 0.25136 0.19341 0.0
O525 O 0.58379 0.26301 0.16306 0.0
C526 C 0.69492 0.17442 0.18905 0.0
O527 O 0.68306 0.22616 0.1659 0.0
C528 C 0.39808 0.23629 0.18968 0.0
C529 C 0.63133 0.25135 0.21851 0.0
O530 O 0.74007 0.19024 0.17979 0.0
O531 O 0.62334 0.18522 0.1988 0.0
O532 O 0.43844 0.21738 0.19645 0.0
O533 O 0.48906 0.24438 0.18181 0.0
O534 O 0.68517 0.23235 0.21217 0.0
O535 O 0.58409 0.26915 0.21033 0.0
C536 C 0.53456 0.32033 0.18581 0.0
O537 O 0.48474 0.3037 0.19418 0.0
O538 O 0.62483 0.31091 0.17771 0.0
C539 C 0.85219 0.26039 0.18546 0.0
Tb540 Tb 0.83239 0.96744 0.18758 0.0
C541 C 0.76483 0.99309 0.15718 0.0
Tb542 Tb 0.80126 0.02497 0.18613 0.0
O543 O 0.62441 0.95909 0.19003 0.0
O544 O 0.68767 0.99366 0.18852 0.0
O545 O 0.82319 0.97452 0.16363 0.0
C546 C 0.73086 0.07082 0.18486 0.0
O547 O 0.73218 0.01299 0.16444 0.0
C548 C 1.04814 0.01067 0.185 0.0
C549 C 0.85577 -0.00043 0.21678 0.0
O550 O 0.79143 0.05915 0.17445 0.0
O551 O 0.70514 0.0563 0.19586 0.0
O552 O 1.01198 0.03285 0.185 0.0
O553 O 0.94557 -0.00141 0.18521 0.0
O554 O 0.80126 0.01822 0.21003 0.0
O555 O 0.89274 0.97983 0.20962 0.0
C556 C 0.91317 0.92208 0.18864 0.0
O557 O 0.8755 0.93471 0.2 0.0
O558 O 0.90934 0.93524 0.17667 0.0
C559 C 0.58677 0.98122 0.18973 0.0
Tb560 Tb 0.51889 0.96617 0.9376 0.0
C561 C 0.56192 0.99387 0.96773 0.0
Tb562 Tb 0.55123 0.02358 0.93752 0.0
O563 O 0.72914 0.95794 0.93653 0.0
O564 O 0.66432 0.99229 0.93669 0.0
O565 O 0.50658 0.97507 0.96119 0.0
C566 C 0.6355 0.06866 0.93706 0.0
O567 O 0.60385 0.01294 0.96019 0.0
C568 C 0.30502 0.01001 0.93922 0.0
C569 C 0.4873 0.99585 0.90758 0.0
O570 O 0.56632 0.05904 0.94759 0.0
O571 O 0.6607 0.05261 0.92691 0.0
O572 O 0.34289 0.03215 0.9389 0.0
O573 O 0.40566 -0.00253 0.93859 0.0
O574 O 0.53944 0.01538 0.9137 0.0
O575 O 0.45504 0.97641 0.91534 0.0
C576 C 0.44568 0.92049 0.93784 0.0
O577 O 0.48591 0.93221 0.9262 0.0
O578 O 0.44128 0.93485 0.94926 0.0
C579 C 0.7661 0.98011 0.9365 0.0
Tb580 Tb 0.33697 0.7713 0.93804 0.0
C581 C 0.29514 0.74306 0.96823 0.0
Tb582 Tb 0.30535 0.71381 0.93791 0.0
O583 O 0.12692 0.77949 0.93698 0.0
O584 O 0.19207 0.74512 0.93736 0.0
O585 O 0.34708 0.76226 0.9617 0.0
C586 C 0.22437 0.66869 0.93735 0.0
O587 O 0.25597 0.72382 0.96071 0.0
C588 C 0.55121 0.72768 0.93945 0.0
C589 C 0.37068 0.74121 0.90803 0.0
O590 O 0.31157 0.67731 0.94629 0.0
O591 O 0.17941 0.68566 0.92885 0.0
O592 O 0.51418 0.7055 0.93911 0.0
O593 O 0.45014 0.74009 0.93882 0.0
O594 O 0.3183 0.72176 0.91417 0.0
O595 O 0.3999 0.76098 0.91566 0.0
C596 C 0.41057 0.81696 0.93803 0.0
O597 O 0.36694 0.80524 0.92657 0.0
O598 O 0.41796 0.80261 0.94944 0.0
C599 C 0.09026 0.75731 0.93709 0.0
Tb600 Tb 0.51231 0.77271 0.81464 0.0
C601 C 0.52582 0.74575 0.78402 0.0
Tb602 Tb 0.5444 0.71665 0.81424 0.0
O603 O 0.71341 0.77721 0.80739 0.0
O604 O 0.66135 0.74715 0.81956 0.0
O605 O 0.47773 0.76438 0.79133 0.0
C606 C 0.63106 0.67143 0.8143 0.0
O607 O 0.57333 0.72657 0.79088 0.0
C608 C 0.29691 0.72915 0.81188 0.0
C609 C 0.48799 0.74306 0.84447 0.0
O610 O 0.67376 0.68847 0.80567 0.0
O611 O 0.54221 0.6801 0.823 0.0
O612 O 0.33699 0.70718 0.81207 0.0
O613 O 0.39648 0.74205 0.81253 0.0
O614 O 0.54875 0.72481 0.838 0.0
O615 O 0.45022 0.7624 0.837 0.0
C616 C 0.45255 0.81923 0.81683 0.0
O617 O 0.5177 0.80701 0.8266 0.0
O618 O 0.41812 0.80507 0.80602 0.0
C619 C 0.75269 0.75669 0.8123 0.0
Tb620 Tb 0.34993 0.96974 0.81282 0.0
C621 C 0.31301 -0.00339 0.78276 0.0
Tb622 Tb 0.32078 0.02354 0.81414 0.0
O623 O 0.14921 0.96542 0.80558 0.0
O624 O 0.2001 0.99383 0.81934 0.0
O625 O 0.36299 0.97729 0.78911 0.0
C626 C 0.2547 0.07001 0.81224 0.0
O627 O 0.27688 0.01553 0.79073 0.0
C628 C 0.56132 0.00857 0.81578 0.0
C629 C 0.37511 -0.00327 0.8438 0.0
O630 O 0.36576 0.0609 0.80865 0.0
O631 O 0.17941 0.05283 0.81682 0.0
O632 O 0.51855 0.02795 0.82201 0.0
O633 O 0.4724 -0.00056 0.80788 0.0
O634 O 0.31756 0.01577 0.83794 0.0
O635 O 0.4139 0.97842 0.83546 0.0
C636 C 0.406 0.92298 0.8155 0.0
O637 O 0.33828 0.93554 0.82482 0.0
O638 O 0.44427 0.93683 0.80472 0.0
C639 C 0.10897 0.98494 0.81178 0.0
C640 C 0.84981 0.3841 0.06823 0.0
C641 C 0.96548 0.39248 0.06174 0.0
C642 C 0.82062 0.35955 0.06868 0.0
C643 C 0.90647 0.34239 0.06278 0.0
H644 H 0.78141 0.39659 0.07309 0.0
H645 H 0.73039 0.35397 0.07382 0.0
S646 S 0.22027 0.35497 0.04411 0.0
N647 N 0.16501 0.38163 0.0489 0.0
N648 N 0.11044 0.33553 0.04991 0.0
C649 C 1.02202 0.3505 0.05617 0.0
C650 C 1.05138 0.37553 0.0556 0.0
C651 C 0.54968 0.87604 0.06902 0.0
C652 C 0.47038 0.89372 0.06253 0.0
C653 C 0.51307 0.85179 0.06902 0.0
C654 C 0.39682 0.84426 0.0623 0.0
H655 H 0.6404 0.881 0.07428 0.0
H656 H 0.5767 0.83884 0.07421 0.0
S657 S 0.15522 0.8834 0.0437 0.0
N658 N 0.2701 0.90198 0.04928 0.0
N659 N 0.20241 0.85647 0.04897 0.0
C660 C 0.31721 0.86173 0.05566 0.0
C661 C 0.35362 0.88644 0.05586 0.0
C662 C 0.92762 0.88199 0.1764 0.0
C663 C 0.94488 0.89632 0.18916 0.0
C664 C 0.94911 0.85718 0.1769 0.0
C665 C 0.99197 0.84601 0.19007 0.0
H666 H 0.89473 0.8899 0.16603 0.0
H667 H 0.93406 0.84676 0.16684 0.0
S668 S 1.0544 0.87569 0.22641 0.0
N669 N 1.00653 0.89757 0.21533 0.0
N670 N 1.0523 0.85117 0.21609 0.0
C671 C 1.01147 0.8602 0.20283 0.0
C672 C 0.98646 0.88532 0.20242 0.0
C673 C 0.39996 0.38024 0.19853 0.0
C674 C 0.44332 0.39609 0.18735 0.0
C675 C 0.42789 0.35565 0.19785 0.0
C676 C 0.50097 0.34608 0.18602 0.0
H677 H 0.34339 0.38682 0.20786 0.0
H678 H 0.39326 0.34414 0.20673 0.0
S679 S 0.63348 0.37976 0.15368 0.0
N680 N 0.56015 0.40029 0.16391 0.0
N681 N 0.61361 0.35424 0.16269 0.0
C682 C 0.54442 0.36171 0.17475 0.0
C683 C 0.51543 0.38668 0.1754 0.0
C684 C 0.24999 0.60145 0.94086 0.0
C685 C 0.12642 0.59371 0.9365 0.0
C686 C 0.28044 0.6259 0.94112 0.0
C687 C 0.18961 0.64319 0.93655 0.0
H688 H 0.32181 0.58861 0.94455 0.0
H689 H 0.37593 0.63129 0.94489 0.0
S690 S 0.85571 0.63157 0.92316 0.0
N691 N 0.91367 0.6048 0.92722 0.0
N692 N 0.97376 0.65072 0.92681 0.0
C693 C 0.0675 0.63552 0.9316 0.0
C694 C 1.03507 0.61072 0.93183 0.0
C695 C 0.65313 0.13456 0.94688 0.0
C696 C 0.73011 0.14414 0.93539 0.0
C697 C 0.62453 0.11004 0.9474 0.0
C698 C 0.67136 0.09424 0.93641 0.0
H699 H 0.61571 0.14604 0.95563 0.0
H700 H 0.56474 0.10345 0.95647 0.0
S701 S 0.87636 0.11037 0.90388 0.0
N702 N 0.85244 0.13596 0.9127 0.0
N703 N 0.79803 0.08989 0.91367 0.0
C704 C 0.74799 0.10358 0.92482 0.0
C705 C 0.77743 0.12854 0.92431 0.0
C706 C 1.05944 0.12774 0.81328 0.0
C707 C 0.15403 0.1456 0.81099 0.0
C708 C 0.09266 0.10335 0.81369 0.0
C709 C 0.22153 0.09586 0.81163 0.0
H710 H 0.95887 0.13263 0.81495 0.0
H711 H 1.0167 0.09028 0.8156 0.0
S712 S 0.50579 0.13548 0.80518 0.0
N713 N 0.38214 0.15407 0.80669 0.0
N714 N 0.44444 0.10834 0.80718 0.0
C715 C 0.31692 0.11353 0.80919 0.0
C716 C 0.28324 0.13836 0.80895 0.0
C717 C 0.59539 0.62881 0.82173 0.0
C718 C 0.66804 0.64579 0.81364 0.0
C719 C 0.6241 0.60428 0.82099 0.0
C720 C 0.72739 0.59576 0.81223 0.0
H721 H 0.51465 0.63447 0.82862 0.0
H722 H 0.56533 0.59194 0.82743 0.0
S723 S 0.94884 0.63283 0.78906 0.0
N724 N 0.84825 0.65236 0.79663 0.0
N725 N 0.9034 0.60632 0.79535 0.0
C726 C 0.80144 0.61255 0.80414 0.0
C727 C 0.77151 0.63754 0.80482 0.0
C728 C 0.8535 0.88712 0.55602 0.0
C729 C 0.9546 0.8961 0.56495 0.0
C730 C 0.82662 0.86245 0.55542 0.0
C731 C 0.90095 0.84588 0.56358 0.0
H732 H 0.79458 0.89923 0.54947 0.0
H733 H 0.74715 0.85633 0.54849 0.0
S734 S 0.17734 0.86019 0.58854 0.0
N735 N 0.12934 0.88642 0.58214 0.0
N736 N 0.08006 0.84023 0.58082 0.0
C737 C 1.00264 0.85463 0.57248 0.0
C738 C 1.02905 0.87971 0.57323 0.0
C739 C 0.32846 0.36502 0.55524 0.0
C740 C 0.40847 0.34745 0.56171 0.0
C741 C 0.36233 0.38937 0.55566 0.0
C742 C 0.47853 0.39698 0.56233 0.0
H743 H 0.23798 0.35998 0.54996 0.0
H744 H 0.29749 0.40229 0.55063 0.0
S745 S 0.72224 0.35808 0.58076 0.0
N746 N 0.60859 0.33936 0.57503 0.0
N747 N 0.67386 0.38498 0.57557 0.0
C748 C 0.5599 0.37956 0.56874 0.0
C749 C 0.52446 0.35483 0.56849 0.0
C750 C 0.98514 0.35983 0.70019 0.0
C751 C 0.9675 0.34585 0.68729 0.0
C752 C 0.9596 0.3845 0.70009 0.0
C753 C 0.91928 0.39613 0.68697 0.0
H754 H 1.01735 0.3516 0.71048 0.0
H755 H 0.97233 0.39456 0.71033 0.0
S756 S 0.86198 0.36769 0.65013 0.0
N757 N 0.9075 0.34541 0.66104 0.0
N758 N 0.86395 0.39189 0.66073 0.0
C759 C 0.90341 0.38243 0.67394 0.0
C760 C 0.92625 0.35723 0.67413 0.0
C761 C 0.34925 0.85706 0.68048 0.0
C762 C 0.45392 0.84913 0.68919 0.0
C763 C 0.31568 0.8814 0.67995 0.0
C764 C 0.38678 0.89875 0.68793 0.0
H765 H 0.29242 0.84437 0.67407 0.0
H766 H 0.23378 0.88667 0.67315 0.0
S767 S 0.67058 0.88733 0.71225 0.0
N768 N 0.62867 0.86061 0.70599 0.0
N769 N 0.56684 0.9063 0.70474 0.0
C770 C 0.49209 0.89108 0.6966 0.0
C771 C 0.52526 0.86628 0.6973 0.0
C772 C 0.17816 0.10757 0.42435 0.0
C773 C 0.15196 0.09544 0.43777 0.0
C774 C 0.20109 0.13236 0.42422 0.0
C775 C 0.20102 0.1457 0.43755 0.0
H776 H 0.17857 0.09793 0.41384 0.0
H777 H 0.22074 0.14107 0.41365 0.0
S778 S 0.14019 0.12224 0.47566 0.0
N779 N 0.1278 0.09856 0.46471 0.0
N780 N 0.17377 0.14494 0.46451 0.0
C781 C 0.17638 0.13371 0.45104 0.0
C782 C 0.15115 0.10861 0.45115 0.0
C783 C 0.6167 0.63671 0.4452 0.0
C784 C 0.71742 0.64533 0.43608 0.0
C785 C 0.58634 0.6122 0.44568 0.0
C786 C 0.65653 0.59546 0.43715 0.0
H787 H 0.56097 0.64896 0.45204 0.0
H788 H 0.5076 0.60633 0.45282 0.0
S789 S 0.92965 0.60885 0.41148 0.0
N790 N 0.88704 0.63518 0.41826 0.0
N791 N 0.83089 0.58924 0.4193 0.0
C792 C 0.75746 0.60386 0.428 0.0
C793 C 0.78759 0.62878 0.42741 0.0
C794 C 0.29476 0.6146 0.31895 0.0
C795 C 0.21279 0.59712 0.31267 0.0
C796 C 0.26053 0.6389 0.31897 0.0
C797 C 0.14356 0.64667 0.31258 0.0
H798 H 0.38593 0.60948 0.32401 0.0
H799 H 0.32631 0.65166 0.32404 0.0
S800 S 0.89577 0.60809 0.29446 0.0
N801 N 1.00979 0.58926 0.29982 0.0
N802 N 0.94595 0.63493 0.29965 0.0
C803 C 1.06113 0.6294 0.30613 0.0
C804 C 0.09556 0.60462 0.30624 0.0
C805 C 0.7727 0.11339 0.324 0.0
C806 C 0.72322 0.09734 0.31328 0.0
C807 C 0.74281 0.13788 0.32351 0.0
C808 C 0.66305 0.14724 0.31223 0.0
H809 H 0.83563 0.10701 0.33281 0.0
H810 H 0.78287 0.14955 0.33201 0.0
S811 S 0.50809 0.11277 0.28157 0.0
N812 N 0.58962 0.09254 0.29115 0.0
N813 N 0.53416 0.13851 0.29014 0.0
C814 C 0.61277 0.13139 0.30146 0.0
C815 C 0.64255 0.10644 0.30202 0.0
C816 C 0.15578 0.51188 0.11837 0.0
C817 C 0.14531 0.49021 0.11048 0.0
C818 C 0.18876 0.51224 0.13352 0.0
C819 C 0.21444 0.49095 0.14139 0.0
H820 H 0.13777 0.52878 0.11284 0.0
H821 H 0.19525 0.52946 0.13903 0.0
S822 S 0.20278 0.42938 0.12574 0.0
N823 N 0.16451 0.44685 0.11155 0.0
N824 N 0.22725 0.44747 0.14005 0.0
C825 C 0.20492 0.4691 0.13361 0.0
C826 C 0.16991 0.46874 0.11817 0.0
C827 C 0.19739 0.76734 0.11832 0.0
C828 C 0.21726 0.7457 0.11062 0.0
C829 C 0.17019 0.76754 0.13369 0.0
C830 C 0.1632 0.74613 0.14196 0.0
H831 H 0.2003 0.78423 0.1124 0.0
H832 H 0.1554 0.78465 0.13911 0.0
S833 S 0.21286 0.68465 0.12708 0.0
N834 N 0.23202 0.70232 0.11249 0.0
N835 N 0.18054 0.70263 0.1412 0.0
C836 C 0.18466 0.72437 0.13438 0.0
C837 C 0.21176 0.72418 0.11877 0.0
C838 C 0.90525 0.47543 0.86785 0.0
C839 C 0.89057 0.49707 0.86003 0.0
C840 C 0.9312 0.47523 0.88319 0.0
C841 C 0.94531 0.49668 0.89128 0.0
H842 H 0.89564 0.45843 0.86212 0.0
H843 H 0.94093 0.45808 0.88871 0.0
S844 S 0.91742 0.55828 0.87602 0.0
N845 N 0.89314 0.54061 0.86152 0.0
N846 N 0.94207 0.54024 0.89032 0.0
C847 C 0.93163 0.51849 0.88359 0.0
C848 C 0.90403 0.51869 0.86799 0.0
C849 C 0.97605 0.26401 0.868 0.0
C850 C 0.98711 0.24259 0.85984 0.0
C851 C 0.94916 0.26378 0.88334 0.0
C852 C 0.93009 0.24214 0.89109 0.0
H853 H 0.98876 0.28114 0.86253 0.0
H854 H 0.94189 0.28077 0.88912 0.0
S855 S 0.94779 0.18103 0.87487 0.0
N856 N 0.9767 0.19906 0.86066 0.0
N857 N 0.92537 0.19866 0.88944 0.0
C858 C 0.94058 0.22056 0.88306 0.0
C859 C 0.96951 0.22078 0.86746 0.0
C860 C 0.16523 0.97584 0.61681 0.0
C861 C 0.14419 -0.00268 0.60898 0.0
C862 C 0.19372 0.97594 0.63213 0.0
C863 C 0.1997 -0.00251 0.64022 0.0
H864 H 0.16141 0.95881 0.61103 0.0
H865 H 0.20882 0.95897 0.63771 0.0
S866 S 0.15152 0.05863 0.62496 0.0
N867 N 0.13172 0.04073 0.61046 0.0
N868 N 0.1833 0.04092 0.63924 0.0
C869 C 0.17846 0.01909 0.63253 0.0
C870 C 0.15133 0.01901 0.61691 0.0
C871 C 0.21296 0.22848 0.61703 0.0
C872 C 0.2219 0.25012 0.60904 0.0
C873 C 0.18727 0.22827 0.63239 0.0
C874 C 0.16745 0.24967 0.64032 0.0
H875 H 0.22556 0.21148 0.61139 0.0
H876 H 0.18038 0.21114 0.638 0.0
S877 S 0.18366 0.31122 0.62478 0.0
N878 N 0.21162 0.2936 0.61033 0.0
N879 N 0.16253 0.29319 0.63917 0.0
C880 C 0.17759 0.27148 0.63253 0.0
C881 C 0.20523 0.27171 0.61691 0.0
C882 C 0.9601 0.01845 0.38225 0.0
C883 C 0.97572 -0.00328 0.38996 0.0
C884 C 0.93426 0.01879 0.36687 0.0
C885 C 0.92495 -0.00259 0.3586 0.0
H886 H 0.96549 0.03534 0.38817 0.0
H887 H 0.92282 0.03595 0.36141 0.0
S888 S 0.96077 0.93571 0.37346 0.0
N889 N 0.98207 0.95324 0.38809 0.0
N890 N 0.93363 0.95388 0.3593 0.0
C891 C 0.94164 0.97556 0.36616 0.0
C892 C 0.96695 0.97521 0.3818 0.0
C893 C 0.96298 0.72544 0.36909 0.0
C894 C 0.97379 0.74717 0.36122 0.0
C895 C 0.93342 0.72509 0.38438 0.0
C896 C 0.9154 0.74646 0.39243 0.0
H897 H 0.97528 0.7085 0.36337 0.0
H898 H 0.92633 0.70793 0.38996 0.0
S899 S 0.93331 0.80815 0.37712 0.0
N900 N 0.96414 0.79066 0.3627 0.0
N901 N 0.90942 0.78997 0.39139 0.0
C902 C 0.92659 0.76832 0.38473 0.0
C903 C 0.95545 0.76868 0.36915 0.0
C904 C 0.66035 0.51531 0.61855 0.0
C905 C 0.64459 0.49385 0.61056 0.0
C906 C 0.6916 0.51519 0.63374 0.0
C907 C 0.71041 0.49359 0.64153 0.0
H908 H 0.64822 0.53243 0.61305 0.0
H909 H 0.70253 0.53225 0.63937 0.0
S910 S 0.68198 0.43238 0.62567 0.0
N911 N 0.65056 0.45033 0.6115 0.0
N912 N 0.71038 0.45008 0.64008 0.0
C913 C 0.69534 0.47194 0.63367 0.0
C914 C 0.66184 0.47208 0.61819 0.0
C915 C 0.70205 0.77012 0.61918 0.0
C916 C 0.73094 0.74854 0.61179 0.0
C917 C 0.67218 0.77048 0.63447 0.0
C918 C 0.67165 0.7493 0.64298 0.0
H919 H 0.6998 0.78683 0.61305 0.0
H920 H 0.64985 0.78751 0.63964 0.0
S921 S 0.74627 0.68812 0.62891 0.0
N922 N 0.76115 0.70556 0.61416 0.0
N923 N 0.70521 0.70606 0.64276 0.0
C924 C 0.70246 0.72761 0.63571 0.0
C925 C 0.73199 0.72728 0.62016 0.0
C926 C 0.42564 0.47609 0.3672 0.0
C927 C 0.38502 0.49727 0.36006 0.0
C928 C 0.45918 0.4759 0.38239 0.0
C929 C 0.45569 0.49697 0.39095 0.0
H930 H 0.43262 0.45947 0.36102 0.0
H931 H 0.49033 0.45922 0.38737 0.0
S932 S 0.34849 0.55689 0.37801 0.0
N933 N 0.33748 0.5397 0.36307 0.0
N934 N 0.40155 0.53932 0.39148 0.0
C935 C 0.41299 0.51818 0.38407 0.0
C936 C 0.37726 0.51833 0.36867 0.0
C937 C 0.41225 0.22296 0.38249 0.0
C938 C 0.39868 0.24445 0.39055 0.0
C939 C 0.44237 0.22314 0.36717 0.0
C940 C 0.45819 0.24482 0.35936 0.0
H941 H 0.4015 0.20588 0.38807 0.0
H942 H 0.45182 0.20619 0.3614 0.0
S943 S 0.43084 0.30607 0.37532 0.0
N944 N 0.40131 0.28801 0.38948 0.0
N945 N 0.45891 0.28836 0.36095 0.0
C946 C 0.44422 0.26642 0.36732 0.0
C947 C 0.41418 0.26623 0.38284 0.0
C948 C 0.71829 0.01319 0.13294 0.0
C949 C 0.73214 0.99184 0.14111 0.0
C950 C 0.68577 0.01286 0.11778 0.0
C951 C 0.66364 0.99119 0.11021 0.0
H952 H 0.73417 0.03038 0.13824 0.0
H953 H 0.67755 0.0298 0.11198 0.0
S954 S 0.68539 0.93024 0.12649 0.0
N955 N 0.72014 0.94834 0.14052 0.0
N956 N 0.65771 0.94774 0.11199 0.0
C957 C 0.67573 0.96967 0.11824 0.0
C958 C 0.71064 0.96998 0.13368 0.0
C959 C 0.7209 0.26337 0.1179 0.0
C960 C 0.73732 0.24153 0.11028 0.0
C961 C 0.6855 0.26394 0.133 0.0
C962 C 0.66707 0.24268 0.14113 0.0
H963 H 0.73352 0.28024 0.11211 0.0
H964 H 0.67529 0.28118 0.13842 0.0
S965 S 0.6971 0.18078 0.12645 0.0
N966 N 0.73096 0.19806 0.11202 0.0
N967 N 0.66627 0.19914 0.14046 0.0
C968 C 0.68315 0.2207 0.13368 0.0
C969 C 0.71769 0.22012 0.11825 0.0
C970 C 0.4104 0.01757 0.8683 0.0
C971 C 0.40211 -0.00386 0.86007 0.0
C972 C 0.43989 0.0174 0.88361 0.0
C973 C 0.46017 0.99577 0.89132 0.0
H974 H 0.39569 0.03465 0.86286 0.0
H975 H 0.44512 0.03434 0.88948 0.0
S976 S 0.44914 0.93469 0.87493 0.0
N977 N 0.41653 0.95267 0.86082 0.0
N978 N 0.47122 0.95235 0.88948 0.0
C979 C 0.45176 0.97422 0.88321 0.0
C980 C 0.42303 0.9744 0.86763 0.0
C981 C 0.44109 0.76318 0.86878 0.0
C982 C 0.46041 0.74191 0.86068 0.0
C983 C 0.41281 0.76271 0.88407 0.0
C984 C 0.40073 0.74094 0.89185 0.0
H985 H 0.44872 0.78042 0.8633 0.0
H986 H 0.39891 0.77962 0.88978 0.0
S987 S 0.44105 0.6801 0.87577 0.0
N988 N 0.46505 0.69837 0.86155 0.0
N989 N 0.4111 0.69748 0.89028 0.0
C990 C 0.41934 0.71949 0.88388 0.0
C991 C 0.44961 0.71998 0.86832 0.0
C992 C 0.26284 0.62822 0.05584 0.0
C993 C 0.17563 0.64358 0.06322 0.0
C994 C 0.25101 0.60319 0.05688 0.0
C995 C 0.15166 0.59256 0.06539 0.0
H996 H 0.34139 0.63556 0.04922 0.0
H997 H 0.31987 0.59211 0.05092 0.0
S998 S 0.89879 0.62481 0.08701 0.0
N999 N 0.98691 0.6463 0.0794 0.0
N1000 N 0.96461 0.59943 0.0814 0.0
C1001 C 1.06398 0.60773 0.07286 0.0
C1002 C 0.0759 0.63319 0.07176 0.0
C1003 C 0.14974 0.63305 0.19957 0.0
C1004 C 0.19494 0.64771 0.18789 0.0
C1005 C 0.15573 0.60802 0.19859 0.0
C1006 C 0.20634 0.59671 0.18584 0.0
H1007 H 0.10931 0.64096 0.20959 0.0
H1008 H 0.12127 0.59748 0.20794 0.0
S1009 S 0.33453 0.62699 0.15198 0.0
N1010 N 0.29036 0.64913 0.16309 0.0
N1011 N 0.301 0.6021 0.16115 0.0
C1012 C 0.25078 0.61116 0.174 0.0
C1013 C 0.24547 0.63666 0.17506 0.0
C1014 C 1.02108 0.35487 0.94492 0.0
C1015 C 0.9268 0.34352 0.93607 0.0
C1016 C 1.0238 0.37985 0.94637 0.0
C1017 C 0.93177 0.39431 0.93912 0.0
H1018 H 0.09309 0.34441 0.9508 0.0
H1019 H 0.09905 0.38788 0.95317 0.0
S1020 S 0.66406 0.37332 0.91476 0.0
N1021 N 0.73878 0.3486 0.91998 0.0
N1022 N 0.74358 0.3955 0.92283 0.0
C1023 C 0.83656 0.38318 0.93031 0.0
C1024 C 0.8343 0.35778 0.92874 0.0
C1025 C 0.81937 0.38014 0.81703 0.0
C1026 C 0.92448 0.39599 0.81503 0.0
C1027 C 0.83708 0.35518 0.81693 0.0
C1028 C 0.96089 0.34514 0.81507 0.0
H1029 H 0.72211 0.38704 0.8185 0.0
H1030 H 0.75328 0.34369 0.81838 0.0
S1031 S 0.26819 0.37882 0.80944 0.0
N1032 N 0.15651 0.3998 0.81104 0.0
N1033 N 0.19062 0.35307 0.81116 0.0
C1034 C 0.067 0.36081 0.81319 0.0
C1035 C 1.04861 0.38618 0.81309 0.0
C1036 C 0.2542 0.10758 0.5538 0.0
C1037 C 0.16113 0.09672 0.56309 0.0
C1038 C 0.26466 0.13262 0.55285 0.0
C1039 C 0.18194 0.14772 0.56108 0.0
H1040 H 0.31915 0.09667 0.54716 0.0
H1041 H 0.33836 0.14019 0.54562 0.0
S1042 S 0.92285 0.12826 0.58718 0.0
N1043 N 0.98546 0.10306 0.58081 0.0
N1044 N 1.00474 0.14995 0.57892 0.0
C1045 C 0.08854 0.13708 0.5704 0.0
C1046 C 0.07834 0.11163 0.57144 0.0
C1047 C 0.16775 0.13464 0.69745 0.0
C1048 C 0.16987 0.14756 0.68397 0.0
C1049 C 0.16892 0.10952 0.69748 0.0
C1050 C 0.17612 0.09652 0.68406 0.0
H1051 H 0.16235 0.14399 0.70803 0.0
H1052 H 0.16699 0.10024 0.7081 0.0
S1053 S 0.18585 0.12189 0.64584 0.0
N1054 N 0.1778 0.14554 0.65689 0.0
N1055 N 0.18648 0.09834 0.65698 0.0
C1056 C 0.18002 0.10922 0.67054 0.0
C1057 C 0.17514 0.13476 0.67048 0.0
C1058 C 0.85326 0.85922 0.43026 0.0
C1059 C 0.93792 0.84464 0.43854 0.0
C1060 C 0.86229 0.88423 0.43084 0.0
C1061 C 0.95648 0.89556 0.43971 0.0
H1062 H 0.7788 0.85127 0.4233 0.0
H1063 H 0.79565 0.89474 0.4242 0.0
S1064 S 0.20119 0.86548 0.46356 0.0
N1065 N 0.11862 0.8433 0.4559 0.0
N1066 N 0.13609 0.89032 0.457 0.0
C1067 C 1.04173 0.88119 0.44806 0.0
C1068 C 1.03242 0.85571 0.44747 0.0
C1069 C 0.98712 0.86065 0.30206 0.0
C1070 C 0.9237 0.84671 0.31294 0.0
C1071 C 0.98639 0.88572 0.30273 0.0
C1072 C 0.92134 0.89784 0.31426 0.0
H1073 H 1.0395 0.85215 0.29301 0.0
H1074 H 1.03637 0.89566 0.29407 0.0
S1075 S 0.74041 0.86974 0.34556 0.0
N1076 N 0.79453 0.84688 0.33566 0.0
N1077 N 0.79164 0.89405 0.33685 0.0
C1078 C 0.85677 0.88416 0.32519 0.0
C1079 C 0.85818 0.85858 0.32454 0.0
C1080 C 0.57389 0.61129 0.5689 0.0
C1081 C 0.68018 0.59577 0.56697 0.0
C1082 C 0.59013 0.63626 0.56887 0.0
C1083 C 0.71356 0.64657 0.56719 0.0
H1084 H 0.47691 0.60412 0.57023 0.0
H1085 H 0.50562 0.64755 0.57025 0.0
S1086 S 1.02321 0.61384 0.56172 0.0
N1087 N 0.91267 0.59255 0.56317 0.0
N1088 N 0.94403 0.63936 0.56346 0.0
C1089 C 0.82079 0.63125 0.56539 0.0
C1090 C 0.80391 0.60587 0.56518 0.0
C1091 C 0.68245 0.61021 0.67553 0.0
C1092 C 0.69153 0.59693 0.68882 0.0
C1093 C 0.67873 0.63529 0.67577 0.0
C1094 C 0.68513 0.64805 0.6893 0.0
H1095 H 0.67848 0.60117 0.66484 0.0
H1096 H 0.67021 0.64473 0.66526 0.0
S1097 S 0.71242 0.62176 0.7272 0.0
N1098 N 0.70829 0.5984 0.7159 0.0
N1099 N 0.70237 0.64556 0.71633 0.0
C1100 C 0.69535 0.63502 0.70267 0.0
C1101 C 0.698 0.60945 0.70244 0.0
C1102 C 0.38738 0.38621 0.4266 0.0
C1103 C 0.4501 0.39741 0.43864 0.0
C1104 C 0.38052 0.36116 0.42561 0.0
C1105 C 0.4355 0.34643 0.43668 0.0
H1106 H 0.34423 0.39683 0.4178 0.0
H1107 H 0.33038 0.35329 0.41618 0.0
S1108 S 0.60956 0.36697 0.47057 0.0
N1109 N 0.56821 0.39189 0.4619 0.0
N1110 N 0.55425 0.3449 0.46008 0.0
C1111 C 0.49848 0.35742 0.44878 0.0
C1112 C 0.50591 0.38289 0.44975 0.0
C1113 C 0.47103 0.36249 0.32563 0.0
C1114 C 0.42894 0.34805 0.31368 0.0
C1115 C 0.46533 0.38756 0.32483 0.0
C1116 C 0.4169 0.39906 0.31206 0.0
H1117 H 0.50998 0.35438 0.33565 0.0
H1118 H 0.49811 0.39797 0.33431 0.0
S1119 S 0.29701 0.36947 0.27758 0.0
N1120 N 0.33895 0.34713 0.28861 0.0
N1121 N 0.32751 0.39415 0.2871 0.0
C1122 C 0.3744 0.38484 0.30003 0.0
C1123 C 0.38044 0.35934 0.30084 0.0
C1124 C 0.61086 0.10733 0.07362 0.0
C1125 C 0.68593 0.09228 0.06441 0.0
C1126 C 0.62048 0.13241 0.07264 0.0
C1127 C 0.70508 0.14332 0.06236 0.0
H1128 H 0.54413 0.09967 0.08167 0.0
H1129 H 0.56212 0.1433 0.08006 0.0
S1130 S 0.91794 0.11193 0.03519 0.0
N1131 N 0.84466 0.09018 0.04439 0.0
N1132 N 0.86236 0.13707 0.04245 0.0
C1133 C 0.77946 0.12844 0.05298 0.0
C1134 C 0.7701 0.10299 0.05403 0.0
C1135 C 0.66156 0.13335 0.19931 0.0
C1136 C 0.70703 0.14814 0.1877 0.0
C1137 C 0.66634 0.10832 0.19814 0.0
C1138 C 0.71585 0.09716 0.18527 0.0
H1139 H 0.62237 0.14116 0.20942 0.0
H1140 H 0.63246 0.09767 0.20747 0.0
S1141 S 0.84093 0.12785 0.1514 0.0
N1142 N 0.79938 0.14985 0.16275 0.0
N1143 N 0.80753 0.10286 0.16047 0.0
C1144 C 0.75958 0.11176 0.17347 0.0
C1145 C 0.75559 0.13724 0.17472 0.0
C1146 C 0.42444 0.85614 0.92499 0.0
C1147 C 0.42562 0.84321 0.93844 0.0
C1148 C 0.42824 0.8812 0.92494 0.0
C1149 C 0.43136 0.89423 0.93836 0.0
H1150 H 0.42027 0.84685 0.91437 0.0
H1151 H 0.42885 0.8904 0.9143 0.0
S1152 S 0.43513 0.86887 0.97664 0.0
N1153 N 0.43054 0.84524 0.96556 0.0
N1154 N 0.43585 0.89242 0.9655 0.0
C1155 C 0.43188 0.88155 0.95192 0.0
C1156 C 0.4298 0.85599 0.95196 0.0
C1157 C 0.43416 0.85812 0.80323 0.0
C1158 C 0.43774 0.84558 0.81685 0.0
C1159 C 0.42832 0.88325 0.8029 0.0
C1160 C 0.42185 0.89667 0.81616 0.0
H1161 H 0.43846 0.84847 0.79274 0.0
H1162 H 0.42597 0.89219 0.79217 0.0
S1163 S 0.4262 0.8724 0.85469 0.0
N1164 N 0.43606 0.84847 0.84391 0.0
N1165 N 0.41846 0.89558 0.84328 0.0
C1166 C 0.4237 0.88433 0.82984 0.0
C1167 C 0.43345 0.85881 0.83018 0.0
C1168 C 0.62022 0.50788 0.0539 0.0
C1169 C 0.71143 0.49648 0.06318 0.0
C1170 C 0.48713 0.50298 0.05515 0.0
C1171 C 0.44076 0.48641 0.06568 0.0
H1172 H 0.65186 0.52068 0.04557 0.0
H1173 H 0.42055 0.51194 0.04767 0.0
S1174 S 0.63838 0.45282 0.09323 0.0
N1175 N 0.74506 0.46872 0.08369 0.0
N1176 N 0.49564 0.45933 0.08598 0.0
C1177 C 0.5307 0.47516 0.07518 0.0
C1178 C 0.66596 0.48019 0.07392 0.0
C1179 C 0.71922 0.72643 0.0735 0.0
C1180 C 0.62334 0.74108 0.06698 0.0
C1181 C 0.85194 0.73193 0.07211 0.0
C1182 C 0.89263 0.75249 0.0644 0.0
H1183 H 0.6917 0.71056 0.07969 0.0
H1184 H 0.9225 0.72046 0.07747 0.0
S1185 S 0.68217 0.79593 0.04462 0.0
N1186 N 0.58041 0.77621 0.05179 0.0
N1187 N 0.82805 0.78705 0.04974 0.0
C1188 C 0.79816 0.76709 0.05773 0.0
C1189 C 0.66389 0.76127 0.05888 0.0
C1190 C 0.69748 0.76106 0.18153 0.0
C1191 C 0.7394 0.74101 0.18964 0.0
C1192 C 0.5652 0.76674 0.18058 0.0
C1193 C 0.47048 0.75254 0.18769 0.0
H1194 H 0.76711 0.77244 0.17589 0.0
H1195 H 0.53713 0.78245 0.17429 0.0
S1196 S 0.52953 0.69767 0.20994 0.0
N1197 N 0.67524 0.7067 0.20476 0.0
N1198 N 0.42763 0.71724 0.20275 0.0
C1199 C 0.5111 0.73229 0.19566 0.0
C1200 C 0.6454 0.72658 0.19671 0.0
C1201 C 0.83385 0.47195 0.19042 0.0
C1202 C 0.93522 0.48856 0.18814 0.0
C1203 C 0.70306 0.4788 0.18936 0.0
C1204 C 0.66941 0.50248 0.1859 0.0
H1205 H 0.85563 0.4535 0.19313 0.0
H1206 H 0.62825 0.46558 0.19143 0.0
S1207 S 0.89761 0.55248 0.17807 0.0
N1208 N 0.99212 0.52943 0.18177 0.0
N1209 N 0.74783 0.54238 0.17968 0.0
C1210 C 0.76986 0.51915 0.1834 0.0
C1211 C 0.90247 0.51218 0.18454 0.0
C1212 C 0.53214 0.5167 0.94315 0.0
C1213 C 0.62796 0.50215 0.93664 0.0
C1214 C 0.40012 0.51126 0.94167 0.0
C1215 C 0.35905 0.49133 0.93335 0.0
H1216 H 0.55947 0.53243 0.94951 0.0
H1217 H 0.32994 0.52273 0.94713 0.0
S1218 S 0.5717 0.4486 0.9131 0.0
N1219 N 0.67293 0.46761 0.92108 0.0
N1220 N 0.42502 0.45747 0.91798 0.0
C1221 C 0.454 0.47687 0.92653 0.0
C1222 C 0.58856 0.48223 0.92827 0.0
C1223 C 0.46184 0.22562 0.93437 0.0
C1224 C 0.50356 0.24703 0.94105 0.0
C1225 C 0.32994 0.21931 0.93423 0.0
C1226 C 0.23508 0.23442 0.94049 0.0
H1227 H 0.53137 0.21364 0.92924 0.0
H1228 H 0.30184 0.20259 0.929 0.0
S1229 S 0.29363 0.29186 0.95998 0.0
N1230 N 0.43904 0.28294 0.95465 0.0
N1231 N 0.19201 0.27107 0.95406 0.0
C1232 C 0.27532 0.25574 0.94726 0.0
C1233 C 0.40947 0.26203 0.94764 0.0
C1234 C 0.62058 0.25593 0.80452 0.0
C1235 C 0.66585 0.23896 0.81483 0.0
C1236 C 0.4875 0.26059 0.80306 0.0
C1237 C 0.39509 0.24851 0.81189 0.0
H1238 H 0.6881 0.26548 0.7974 0.0
H1239 H 0.45689 0.27378 0.79494 0.0
S1240 S 0.46437 0.20304 0.84097 0.0
N1241 N 0.60819 0.21043 0.83428 0.0
N1242 N 0.35891 0.21932 0.83159 0.0
C1243 C 0.43936 0.23168 0.82235 0.0
C1244 C 0.57459 0.22691 0.82382 0.0
C1245 C 0.29501 0.51319 0.82291 0.0
C1246 C 0.20223 0.50122 0.81409 0.0
C1247 C 0.42792 0.50831 0.82145 0.0
C1248 C 0.47275 0.49126 0.81113 0.0
H1249 H 0.26479 0.52644 0.83102 0.0
H1250 H 0.49568 0.51777 0.82857 0.0
S1251 S 0.26993 0.45555 0.78503 0.0
N1252 N 0.16509 0.47201 0.79443 0.0
N1253 N 0.414 0.46276 0.79169 0.0
C1254 C 0.38104 0.47932 0.80215 0.0
C1255 C 0.24595 0.48428 0.80365 0.0
C1256 C 0.49337 0.0083 0.55394 0.0
C1257 C 0.45126 0.98715 0.56085 0.0
C1258 C 0.62578 0.0143 0.55355 0.0
C1259 C 0.72017 -0.00036 0.56035 0.0
H1260 H 0.4242 0.01993 0.54848 0.0
H1261 H 0.65423 0.0306 0.54787 0.0
S1262 S 0.65729 0.9433 0.58097 0.0
N1263 N 0.51299 0.95192 0.57512 0.0
N1264 N 0.76017 0.96382 0.57495 0.0
C1265 C 0.67831 0.97885 0.56769 0.0
C1266 C 0.54421 0.97246 0.5678 0.0
C1267 C 0.66685 0.26504 0.55837 0.0
C1268 C 0.62518 0.24489 0.56647 0.0
C1269 C 0.79904 0.27084 0.55731 0.0
C1270 C 0.89455 0.25645 0.56402 0.0
H1271 H 0.59704 0.27637 0.55278 0.0
H1272 H 0.82681 0.28665 0.55107 0.0
S1273 S 0.83623 0.20285 0.58741 0.0
N1274 N 0.6902 0.21128 0.58205 0.0
N1275 N 0.93798 0.22211 0.57975 0.0
C1276 C 0.85436 0.23645 0.57227 0.0
C1277 C 0.71974 0.23072 0.57358 0.0
C1278 C 0.62912 0.23013 0.69578 0.0
C1279 C 0.72084 0.24194 0.68672 0.0
C1280 C 0.49667 0.23574 0.695 0.0
C1281 C 0.4515 0.25346 0.68519 0.0
H1282 H 0.65989 0.21649 0.7036 0.0
H1283 H 0.42967 0.22637 0.70228 0.0
S1284 S 0.65059 0.28851 0.65838 0.0
N1285 N 0.75594 0.27126 0.66709 0.0
N1286 N 0.50792 0.28208 0.66575 0.0
C1287 C 0.5419 0.26514 0.67591 0.0
C1288 C 0.67645 0.25935 0.67666 0.0
C1289 C 0.79669 0.97844 0.67793 0.0
C1290 C 0.88937 0.991 0.68644 0.0
C1291 C 0.66415 0.98387 0.67893 0.0
C1292 C 0.6198 0.00207 0.68847 0.0
H1293 H 0.82672 0.96432 0.67039 0.0
H1294 H 0.59631 0.9739 0.67209 0.0
S1295 S 0.82265 0.03958 0.71359 0.0
N1296 N 0.92707 0.02196 0.705 0.0
N1297 N 0.67877 0.03219 0.70695 0.0
C1298 C 0.71143 0.01456 0.69718 0.0
C1299 C 0.84612 0.00906 0.69612 0.0
C1300 C 0.61332 0.98326 0.42899 0.0
C1301 C 0.65229 0.00441 0.43619 0.0
C1302 C 0.481 0.97781 0.42724 0.0
C1303 C 0.38405 0.99316 0.43285 0.0
H1304 H 0.68509 0.97121 0.42437 0.0
H1305 H 0.45464 0.9614 0.42155 0.0
S1306 S 0.4376 0.05006 0.45335 0.0
N1307 N 0.58466 0.04041 0.4493 0.0
N1308 N 0.3375 0.02987 0.44639 0.0
C1309 C 0.42269 0.01409 0.44032 0.0
C1310 C 0.55654 0.01977 0.44191 0.0
C1311 C 0.39559 0.76272 0.44805 0.0
C1312 C 0.49009 0.7482 0.44113 0.0
C1313 C 0.26324 0.75667 0.44766 0.0
C1314 C 0.22137 0.7356 0.44062 0.0
H1315 H 0.42388 0.77896 0.45382 0.0
H1316 H 0.19392 0.76821 0.4532 0.0
S1317 S 0.42769 0.69215 0.42014 0.0
N1318 N 0.53035 0.71262 0.42625 0.0
N1319 N 0.28336 0.70061 0.42611 0.0
C1320 C 0.31443 0.72104 0.43356 0.0
C1321 C 0.44842 0.7275 0.43366 0.0
C1322 C 0.43142 0.73252 0.32233 0.0
C1323 C 0.39118 0.75437 0.31619 0.0
C1324 C 0.56348 0.72631 0.32268 0.0
C1325 C 0.65964 0.74157 0.31669 0.0
H1326 H 0.36104 0.72044 0.32722 0.0
H1327 H 0.59027 0.70938 0.32768 0.0
S1328 S 0.6033 0.80037 0.29873 0.0
N1329 N 0.45743 0.79114 0.30374 0.0
N1330 N 0.70405 0.77909 0.30403 0.0
C1331 C 0.62004 0.76324 0.31028 0.0
C1332 C 0.4862 0.76974 0.31014 0.0
C1333 C 0.33364 0.02263 0.31568 0.0
C1334 C 0.23739 0.00729 0.30992 0.0
C1335 C 0.46543 0.01649 0.31506 0.0
C1336 C 0.50571 0.99504 0.30834 0.0
H1337 H 0.30685 0.03945 0.32086 0.0
H1338 H 0.53603 0.02865 0.31985 0.0
S1339 S 0.29159 0.94927 0.29093 0.0
N1340 N 0.19127 0.97006 0.29706 0.0
N1341 N 0.4383 0.95864 0.29545 0.0
C1342 C 0.41023 0.97972 0.30232 0.0
C1343 C 0.27611 0.9858 0.30324 0.0
C1344 C 0.13906 0.51278 0.55432 0.0
C1345 C 0.23089 0.50027 0.56294 0.0
C1346 C 1.00596 0.50787 0.55554 0.0
C1347 C 0.96019 0.49022 0.5654 0.0
H1348 H 0.17012 0.52651 0.54656 0.0
H1349 H 0.93884 0.51777 0.5486 0.0
S1350 S 0.16021 0.45292 0.59081 0.0
N1351 N 0.26616 0.46987 0.58189 0.0
N1352 N 1.01679 0.4606 0.58423 0.0
C1353 C 1.05092 0.47775 0.57419 0.0
C1354 C 0.18616 0.48274 0.57293 0.0
C1355 C 0.32529 0.76455 0.57423 0.0
C1356 C 0.4176 0.75217 0.56559 0.0
C1357 C 0.19227 0.75973 0.57284 0.0
C1358 C 0.14699 0.7424 0.56274 0.0
H1359 H 0.35596 0.77807 0.58216 0.0
H1360 H 0.1248 0.76948 0.57984 0.0
S1361 S 0.34862 0.70552 0.53718 0.0
N1362 N 0.45401 0.72214 0.5464 0.0
N1363 N 0.20473 0.71317 0.54368 0.0
C1364 C 0.23825 0.73005 0.55393 0.0
C1365 C 0.37346 0.73488 0.5554 0.0
C1366 C 1.05634 0.77291 0.69073 0.0
C1367 C 0.95503 0.75603 0.68941 0.0
C1368 C 0.18706 0.76596 0.68999 0.0
C1369 C 0.22083 0.74191 0.68779 0.0
H1370 H 1.03457 0.79168 0.69245 0.0
H1371 H 0.26172 0.77942 0.69133 0.0
S1372 S 0.99269 0.6909 0.68307 0.0
N1373 N 0.89806 0.71437 0.68553 0.0
N1374 N 0.14247 0.70123 0.68392 0.0
C1375 C 0.12041 0.72491 0.6863 0.0
C1376 C 0.98774 0.73199 0.68717 0.0
C1377 C 0.25934 0.51899 0.68447 0.0
C1378 C 0.15793 0.50244 0.68684 0.0
C1379 C 0.38995 0.51215 0.68565 0.0
C1380 C 0.42324 0.48851 0.68927 0.0
H1381 H 0.23772 0.53739 0.6816 0.0
H1382 H 0.46495 0.52533 0.68353 0.0
S1383 S 0.19504 0.43888 0.69774 0.0
N1384 N 0.10054 0.46182 0.69375 0.0
N1385 N 0.34488 0.44884 0.69596 0.0
C1386 C 0.32286 0.47195 0.69195 0.0
C1387 C 0.19036 0.47892 0.69072 0.0
C1388 C 0.98535 0.48151 0.44705 0.0
C1389 C 0.89563 0.4921 0.43723 0.0
C1390 C 0.11804 0.48685 0.44621 0.0
C1391 C 0.16557 0.50305 0.43555 0.0
H1392 H 0.95275 0.46906 0.45554 0.0
H1393 H 0.18335 0.47848 0.4541 0.0
S1394 S 0.97254 0.53425 0.4065 0.0
N1395 N 0.86472 0.51852 0.416 0.0
N1396 N 0.11377 0.52877 0.41445 0.0
C1397 C 0.07725 0.51346 0.42548 0.0
C1398 C 0.94222 0.50797 0.42633 0.0
C1399 C 0.86032 0.26882 0.4343 0.0
C1400 C 0.96121 0.25215 0.43644 0.0
C1401 C 0.72946 0.26199 0.43535 0.0
C1402 C 0.69528 0.23825 0.43863 0.0
H1403 H 0.88255 0.28731 0.43167 0.0
H1404 H 0.65498 0.27525 0.43336 0.0
S1405 S 0.92188 0.18823 0.44643 0.0
N1406 N 1.01718 0.21127 0.44276 0.0
N1407 N 0.77238 0.19832 0.4448 0.0
C1408 C 0.79517 0.22156 0.44111 0.0
C1409 C 0.92796 0.22852 0.43999 0.0
C1410 C 0.13459 0.26343 0.31567 0.0
C1411 C 0.16869 0.24011 0.3114 0.0
C1412 C 1.00372 0.2702 0.31672 0.0
C1413 C 0.90276 0.25389 0.31356 0.0
H1414 H 0.20908 0.27638 0.31845 0.0
H1415 H 0.98148 0.28833 0.32016 0.0
S1416 S 0.9422 0.19143 0.30044 0.0
N1417 N 0.09165 0.20112 0.30308 0.0
N1418 N 0.84697 0.21403 0.30494 0.0
C1419 C 0.93605 0.23075 0.30892 0.0
C1420 C 0.06882 0.22383 0.30786 0.0
C1421 C 0.88481 0.48187 0.30433 0.0
C1422 C 0.97791 0.49446 0.31274 0.0
C1423 C 0.75236 0.48701 0.30563 0.0
C1424 C 0.70846 0.50501 0.31534 0.0
H1425 H 0.91434 0.46789 0.29667 0.0
H1426 H 0.68422 0.47696 0.29888 0.0
S1427 S 0.91266 0.54284 0.34009 0.0
N1428 N 1.0168 0.52539 0.33131 0.0
N1429 N 0.7682 0.5352 0.33373 0.0
C1430 C 0.80046 0.51764 0.3239 0.0
C1431 C 0.93524 0.51236 0.32259 0.0
C1432 C 1.06203 0.97421 0.07283 0.0
C1433 C 0.96996 0.98641 0.06407 0.0
C1434 C 0.19497 0.97934 0.07166 0.0
C1435 C 0.24049 -0.00314 0.0617 0.0
H1436 H 1.03118 0.96062 0.0807 0.0
H1437 H 0.2622 0.96969 0.07872 0.0
S1438 S 1.03981 0.03313 0.03576 0.0
N1439 N 0.9343 0.01621 0.04477 0.0
N1440 N 0.18326 0.02592 0.04255 0.0
C1441 C 0.14952 0.00896 0.05273 0.0
C1442 C 1.01441 0.00376 0.05395 0.0
C1443 C 0.19527 0.25727 0.07105 0.0
C1444 C 0.15179 0.23763 0.06264 0.0
C1445 C 0.32796 0.26274 0.07197 0.0
C1446 C 0.4216 0.24876 0.06453 0.0
H1447 H 0.12655 0.2685 0.07692 0.0
H1448 H 0.35718 0.27816 0.07851 0.0
S1449 S 0.35848 0.19486 0.04149 0.0
N1450 N 0.21357 0.2038 0.04696 0.0
N1451 N 0.46178 0.21411 0.04884 0.0
C1452 C 0.37946 0.22894 0.05624 0.0
C1453 C 0.24478 0.22338 0.05525 0.0
C1454 C 1.03303 0.23451 0.19454 0.0
C1455 C 0.99144 0.25443 0.18631 0.0
C1456 C 0.16514 0.22891 0.19563 0.0
C1457 C 0.26011 0.24296 0.18845 0.0
H1458 H 0.96321 0.22318 0.20021 0.0
H1459 H 0.19286 0.21337 0.2021 0.0
S1460 S 0.2019 0.29723 0.16565 0.0
N1461 N 1.056 0.28844 0.17094 0.0
N1462 N 0.30361 0.2777 0.17294 0.0
C1463 C 0.21985 0.26291 0.18018 0.0
C1464 C 0.08557 0.26868 0.17911 0.0
C1465 C 0.41631 0.01237 0.18519 0.0
C1466 C 0.44987 0.98895 0.18927 0.0
C1467 C 0.28563 0.01906 0.18377 0.0
C1468 C 0.18422 0.00256 0.18632 0.0
H1469 H 0.49117 0.02548 0.18286 0.0
H1470 H 0.26393 0.0373 0.18054 0.0
S1471 S 0.22186 0.93959 0.19843 0.0
N1472 N 0.37164 0.94959 0.19666 0.0
N1473 N 0.12719 0.96222 0.19387 0.0
C1474 C 0.21686 0.97926 0.19065 0.0
C1475 C 0.34949 0.97246 0.19218 0.0
C1476 C 1.00296 0.97195 0.93418 0.0
C1477 C 0.90237 0.98827 0.93732 0.0
C1478 C 0.13387 0.97877 0.93512 0.0
C1479 C 0.16827 0.00217 0.93924 0.0
H1480 H 0.9804 0.95376 0.93085 0.0
H1481 H 0.20818 0.96581 0.93237 0.0
S1482 S 0.94285 0.05088 0.95018 0.0
N1483 N 0.84722 0.0282 0.94583 0.0
N1484 N 0.0921 0.04122 0.94745 0.0
C1485 C 0.06881 0.01846 0.94276 0.0
C1486 C 0.93599 0.01148 0.94183 0.0
C1487 C 0.85445 0.76499 0.93344 0.0
C1488 C 0.95397 0.74919 0.93779 0.0
C1489 C 0.72327 0.75833 0.93436 0.0
C1490 C 0.68764 0.73563 0.93966 0.0
H1491 H 0.87813 0.78261 0.92918 0.0
H1492 H 0.64985 0.7708 0.93062 0.0
S1493 S 0.9092 0.6891 0.95451 0.0
N1494 N 1.00634 0.71089 0.94899 0.0
N1495 N 0.76088 0.69816 0.95057 0.0
C1496 C 0.78586 0.71998 0.94448 0.0
C1497 C 0.91896 0.72679 0.94357 0.0
C1498 C 0.11841 0.7583 0.80641 0.0
C1499 C 0.1594 0.73652 0.81259 0.0
C1500 C 0.9863 0.76449 0.80626 0.0
C1501 C 0.89101 0.74938 0.81257 0.0
H1502 H 0.18828 0.77032 0.80135 0.0
H1503 H 0.95877 0.78129 0.80114 0.0
S1504 S 0.95105 0.69132 0.83134 0.0
N1505 N 0.09574 0.70022 0.82569 0.0
N1506 N 0.84931 0.71245 0.82605 0.0
C1507 C 0.93183 0.72793 0.81921 0.0
C1508 C 0.0656 0.72137 0.81905 0.0
C1509 C 0.7459 0.98527 0.80487 0.0
C1510 C 0.70029 0.00213 0.81525 0.0
C1511 C 0.87865 0.98003 0.80377 0.0
C1512 C 0.97033 0.99139 0.81304 0.0
H1513 H 0.67898 0.97629 0.7974 0.0
H1514 H 0.90969 0.96702 0.79554 0.0
S1515 S 0.8994 0.0358 0.84273 0.0
N1516 N 0.75653 0.02949 0.8354 0.0
N1517 N 1.00517 0.01944 0.8334 0.0
C1518 C 0.92562 0.00798 0.82363 0.0
C1519 C 0.79073 0.01335 0.82474 0.0
C1520 C 0.96613 0.47722 0.00927 0.0
C1521 C 1.04821 0.4934 0.01678 0.0
C1522 C 0.95289 0.47785 0.99368 0.0
C1523 C 1.02102 0.49471 0.98501 0.0
H1524 H 0.91026 0.46415 0.01549 0.0
H1525 H 0.88766 0.46519 0.98841 0.0
S1526 S 0.25763 0.53964 0.9991 0.0
N1527 N 0.20476 0.52584 0.01421 0.0
N1528 N 0.17999 0.52703 0.98506 0.0
C1529 C 0.10546 0.51067 0.99236 0.0
C1530 C 0.11903 0.51001 0.00819 0.0
C1531 C 0.33052 0.7622 0.9932 0.0
C1532 C 0.28019 0.74309 0.98475 0.0
C1533 C 0.3209 0.76252 0.0088 0.0
C1534 C 0.26052 0.74373 0.01668 0.0
H1535 H 0.37922 0.77705 0.98779 0.0
H1536 H 0.36292 0.77758 0.01469 0.0
S1537 S 0.10656 0.68989 0.99985 0.0
N1538 N 0.1631 0.70514 0.98547 0.0
N1539 N 0.14527 0.70576 0.01473 0.0
C1540 C 0.20763 0.72465 0.00837 0.0
C1541 C 0.21739 0.72432 0.99245 0.0
C1542 C 1.01559 0.76557 0.25914 0.0
C1543 C 1.05382 0.74545 0.26754 0.0
C1544 C 1.02868 0.76608 0.24356 0.0
C1545 C 0.08106 0.74654 0.23572 0.0
H1546 H 0.97546 0.7812 0.26459 0.0
H1547 H 0.99823 0.78201 0.23765 0.0
S1548 S 0.19208 0.68909 0.25229 0.0
N1549 N 0.1437 0.70518 0.26669 0.0
N1550 N 0.16832 0.70613 0.23752 0.0
C1551 C 0.11887 0.7262 0.24395 0.0
C1552 C 0.10524 0.72566 0.25981 0.0
C1553 C 0.28087 0.51691 0.24213 0.0
C1554 C 0.34982 0.4997 0.23381 0.0
C1555 C 0.28825 0.51766 0.25776 0.0
C1556 C 0.36499 0.50127 0.26571 0.0
H1557 H 0.21795 0.5296 0.23659 0.0
H1558 H 0.2306 0.53084 0.26363 0.0
S1559 S 0.57566 0.45423 0.24918 0.0
N1560 N 0.50522 0.46698 0.23471 0.0
N1561 N 0.51912 0.46837 0.26399 0.0
C1562 C 0.4382 0.4845 0.25751 0.0
C1563 C 0.43059 0.48372 0.2416 0.0
C1564 C 0.7895 0.2248 0.9923 0.0
C1565 C 0.84546 0.24415 0.98455 0.0
C1566 C 0.76993 0.22566 0.00777 0.0
C1567 C 0.80542 0.24592 0.0162 0.0
H1568 H 0.76003 0.20876 0.98639 0.0
H1569 H 0.72745 0.21015 0.01314 0.0
S1570 S 0.9543 0.30171 0.00138 0.0
N1571 N 0.93545 0.28444 0.9866 0.0
N1572 N 0.89828 0.28602 0.01559 0.0
C1573 C 0.86101 0.2655 0.00862 0.0
C1574 C 0.8812 0.26462 0.99285 0.0
C1575 C 0.09737 0.22773 0.75749 0.0
C1576 C 1.02824 0.24539 0.76536 0.0
C1577 C 0.10447 0.22799 0.74187 0.0
C1578 C 1.04255 0.24589 0.73342 0.0
H1579 H 0.14856 0.21376 0.76343 0.0
H1580 H 0.16071 0.21414 0.73643 0.0
S1581 S 0.84074 0.29533 0.74855 0.0
N1582 N 0.89074 0.28066 0.76345 0.0
N1583 N 0.90415 0.28114 0.73413 0.0
C1584 C 0.97051 0.26338 0.74112 0.0
C1585 C 0.96339 0.26313 0.75706 0.0
C1586 C 0.84692 0.47659 0.75764 0.0
C1587 C 0.81956 0.49731 0.76601 0.0
C1588 C 0.84452 0.47688 0.74201 0.0
C1589 C 0.81459 0.49789 0.73409 0.0
H1590 H 0.86972 0.45988 0.76316 0.0
H1591 H 0.86493 0.46035 0.73614 0.0
S1592 S 0.7428 0.55745 0.75067 0.0
N1593 N 0.76622 0.53975 0.76515 0.0
N1594 N 0.76198 0.54031 0.73583 0.0
C1595 C 0.78872 0.51887 0.74231 0.0
C1596 C 0.79108 0.51857 0.75824 0.0
C1597 C 0.11561 0.01211 0.50694 0.0
C1598 C 1.05943 0.9937 0.51552 0.0
C1599 C 0.10249 0.01269 0.49139 0.0
C1600 C 1.03263 0.99488 0.48369 0.0
H1601 H 0.17082 0.02628 0.51222 0.0
H1602 H 0.14876 0.02721 0.48538 0.0
S1603 S 0.86282 0.94301 0.50089 0.0
N1604 N 0.92852 0.95735 0.51512 0.0
N1605 N 0.90404 0.95843 0.48592 0.0
C1606 C 0.97519 0.97638 0.49211 0.0
C1607 C 0.9886 0.97578 0.50799 0.0
C1608 C 0.25637 0.22729 0.49136 0.0
C1609 C 0.27347 0.24858 0.48317 0.0
C1610 C 0.24782 0.22757 0.507 0.0
C1611 C 0.25593 0.24916 0.51506 0.0
H1612 H 0.25294 0.21016 0.4857 0.0
H1613 H 0.23821 0.21066 0.5128 0.0
S1614 S 0.28446 0.31019 0.49882 0.0
N1615 N 0.2869 0.29207 0.48427 0.0
N1616 N 0.27065 0.29263 0.51354 0.0
C1617 C 0.26767 0.27068 0.50696 0.0
C1618 C 0.2765 0.27038 0.49107 0.0
C1619 C 0.33705 0.97734 0.75756 0.0
C1620 C 0.29687 -0.00296 0.76624 0.0
C1621 C 0.32371 0.97726 0.74196 0.0
C1622 C 0.26962 -0.00313 0.73434 0.0
H1623 H 0.37996 0.9618 0.7628 0.0
H1624 H 0.35748 0.96173 0.73585 0.0
S1625 S 0.14498 0.05274 0.75183 0.0
N1626 N 0.19789 0.03659 0.76597 0.0
N1627 N 0.17249 0.03643 0.7368 0.0
C1628 C 0.22759 0.01662 0.7429 0.0
C1629 C 0.24128 0.0167 0.75878 0.0
C1630 C 0.89893 0.75972 0.49448 0.0
C1631 C 0.83175 0.74264 0.48586 0.0
C1632 C 0.88528 0.76061 0.51004 0.0
C1633 C 0.80393 0.74446 0.51762 0.0
H1634 H 0.96323 0.77254 0.48921 0.0
H1635 H 0.94006 0.77396 0.51615 0.0
S1636 S 0.60083 0.697 0.50021 0.0
N1637 N 0.67715 0.70966 0.48607 0.0
N1638 N 0.65153 0.71129 0.51525 0.0
C1639 C 0.73531 0.72737 0.50914 0.0
C1640 C 0.74928 0.72646 0.49329 0.0
C1641 C 0.80479 0.01763 0.24169 0.0
C1642 C 0.87297 0.00053 0.23322 0.0
C1643 C 0.81159 0.01787 0.25731 0.0
C1644 C 0.8868 0.00104 0.26511 0.0
H1645 H 0.74265 0.03059 0.23627 0.0
H1646 H 0.75442 0.031 0.2633 0.0
S1647 S 0.09599 0.95419 0.24814 0.0
N1648 N 1.0268 0.96751 0.23378 0.0
N1649 N 1.03945 0.96796 0.26309 0.0
C1650 C 0.95957 0.98441 0.25676 0.0
C1651 C 0.9527 0.98416 0.24084 0.0
C1652 C 0.51535 0.47944 0.50858 0.0
C1653 C 0.58246 0.49757 0.51629 0.0
C1654 C 0.50239 0.48001 0.493 0.0
C1655 C 0.55636 0.4987 0.48445 0.0
H1656 H 0.47089 0.46475 0.51461 0.0
H1657 H 0.44944 0.4656 0.48766 0.0
S1658 S 0.74567 0.55025 0.49915 0.0
N1659 N 0.70662 0.53456 0.5141 0.0
N1660 N 0.68203 0.53565 0.48491 0.0
C1661 C 0.62486 0.51687 0.492 0.0
C1662 C 0.63793 0.5163 0.50788 0.0
C1663 C 0.60565 0.72997 0.75957 0.0
C1664 C 0.52967 0.7466 0.76747 0.0
C1665 C 0.61551 0.7308 0.744 0.0
C1666 C 0.54979 0.7483 0.73562 0.0
H1667 H 0.65987 0.71632 0.76545 0.0
H1668 H 0.67668 0.71769 0.73856 0.0
S1669 S 0.33112 0.79518 0.7508 0.0
N1670 N 0.38261 0.78056 0.76564 0.0
N1671 N 0.40127 0.78211 0.73638 0.0
C1672 C 0.4716 0.76485 0.74333 0.0
C1673 C 0.46149 0.76399 0.75923 0.0
C1674 C 0.6355 0.23137 0.25898 0.0
C1675 C 0.58998 0.25155 0.26679 0.0
C1676 C 0.65134 0.23175 0.24346 0.0
C1677 C 0.62231 0.25231 0.23503 0.0
H1678 H 0.6576 0.21491 0.26483 0.0
H1679 H 0.6843 0.21552 0.23804 0.0
S1680 S 0.50801 0.31057 0.25006 0.0
N1681 N 0.52181 0.29323 0.26487 0.0
N1682 N 0.55136 0.29382 0.23572 0.0
C1683 C 0.57957 0.27285 0.24268 0.0
C1684 C 0.5635 0.27249 0.25853 0.0
C1685 C 0.5254 0.97505 0.00836 0.0
C1686 C 0.59788 0.99239 0.01612 0.0
C1687 C 0.51528 0.97559 0.99275 0.0
C1688 C 0.57757 0.99345 0.98423 0.0
H1689 H 0.47374 0.96119 0.01439 0.0
H1690 H 0.45646 0.96201 0.98738 0.0
S1691 S 0.78909 0.04185 0.99909 0.0
N1692 N 0.73955 0.02717 0.01403 0.0
N1693 N 0.72107 0.02813 0.98478 0.0
C1694 C 0.65327 0.01056 0.99184 0.0
C1695 C 0.66328 0.01004 0.00774 0.0
loop_
_geom_bond_atom_site_label_1
_geom_bond_atom_site_label_2
_geom_bond_distance
_geom_bond_site_symmetry_2
_ccdc_geom_bond_type
Tb0 O3 2.453 . S
Tb0 O4 2.596 . S
Tb0 O5 2.374 . S
Tb0 O13 2.343 1_455 S
Tb0 O15 2.353 . S
Tb0 O17 2.427 1_455 S
Tb0 O18 2.513 1_455 S
C1 O5 1.251 . S
C1 O7 1.263 . S
Tb2 O4 2.343 1_655 S
Tb2 O7 2.353 1_655 S
Tb2 O10 2.427 1_655 S
Tb2 O11 2.513 1_655 S
Tb2 O12 2.453 . S
Tb2 O13 2.596 . S
Tb2 O14 2.374 . S
O3 Tb0 2.453 . S
O3 C19 1.245 . S
O4 Tb0 2.596 . S
O4 Tb2 2.343 1_455 S
O4 C19 1.259 . S
O5 Tb0 2.374 . S
O5 C1 1.251 . S
C6 O10 1.275 . S
C6 O11 1.246 . S
O7 C1 1.263 . S
O7 Tb2 2.353 1_455 S
C8 O12 1.245 . S
C8 O13 1.259 . S
C9 O14 1.250 . S
C9 O15 1.263 1_655 S
O10 Tb2 2.427 1_455 S
O10 C6 1.275 . S
O11 Tb2 2.513 1_455 S
O11 C6 1.246 . S
O12 Tb2 2.453 . S
O12 C8 1.245 . S
O13 Tb0 2.343 1_655 S
O13 Tb2 2.596 . S
O13 C8 1.259 . S
O14 Tb2 2.374 . S
O14 C9 1.250 . S
O15 Tb0 2.353 . S
O15 C9 1.263 1_455 S
C16 O17 1.275 . S
C16 O18 1.246 . S
O17 Tb0 2.427 1_655 S
O17 C16 1.275 . S
O18 Tb0 2.513 1_655 S
O18 C16 1.246 . S
C19 O3 1.245 . S
C19 O4 1.259 . S
Tb20 O23 2.453 1_455 S
Tb20 O24 2.596 . S
Tb20 O25 2.374 . S
Tb20 O33 2.343 . S
Tb20 O35 2.353 . S
Tb20 O37 2.427 . S
Tb20 O38 2.513 . S
C21 O25 1.251 . S
C21 O27 1.263 . S
Tb22 O24 2.343 . S
Tb22 O27 2.353 . S
Tb22 O30 2.427 . S
Tb22 O31 2.513 . S
Tb22 O32 2.453 . S
Tb22 O33 2.596 . S
Tb22 O34 2.374 . S
O23 Tb20 2.453 1_655 S
O23 C39 1.243 1_655 S
O24 Tb20 2.596 . S
O24 Tb22 2.343 . S
O24 C39 1.264 . S
O25 Tb20 2.374 . S
O25 C21 1.251 . S
C26 O30 1.275 . S
C26 O31 1.246 . S
O27 C21 1.263 . S
O27 Tb22 2.353 . S
C28 O32 1.245 . S
C28 O33 1.259 . S
C29 O34 1.250 . S
C29 O35 1.263 . S
O30 Tb22 2.427 . S
O30 C26 1.275 . S
O31 Tb22 2.513 . S
O31 C26 1.246 . S
O32 Tb22 2.453 . S
O32 C28 1.245 . S
O33 Tb20 2.343 . S
O33 Tb22 2.596 . S
O33 C28 1.259 . S
O34 Tb22 2.374 . S
O34 C29 1.250 . S
O35 Tb20 2.353 . S
O35 C29 1.263 . S
C36 O37 1.275 . S
C36 O38 1.246 . S
O37 Tb20 2.427 . S
O37 C36 1.275 . S
O38 Tb20 2.513 . S
O38 C36 1.246 . S
C39 O23 1.243 1_455 S
C39 O24 1.264 . S
Tb40 O43 2.453 . S
Tb40 O44 2.596 . S
Tb40 O45 2.374 . S
Tb40 O53 2.343 1_455 S
Tb40 O55 2.353 . S
Tb40 O57 2.427 1_455 S
Tb40 O58 2.513 1_455 S
C41 O45 1.251 . S
C41 O47 1.263 . S
Tb42 O44 2.343 1_655 S
Tb42 O47 2.353 1_655 S
Tb42 O50 2.427 1_655 S
Tb42 O51 2.513 1_655 S
Tb42 O52 2.453 . S
Tb42 O53 2.596 . S
Tb42 O54 2.374 . S
O43 Tb40 2.453 . S
O43 C59 1.245 . S
O44 Tb40 2.596 . S
O44 Tb42 2.343 1_455 S
O44 C59 1.259 . S
O45 Tb40 2.374 . S
O45 C41 1.251 . S
C46 O50 1.275 . S
C46 O51 1.246 . S
O47 C41 1.263 . S
O47 Tb42 2.353 1_455 S
C48 O52 1.245 . S
C48 O53 1.259 . S
C49 O54 1.250 . S
C49 O55 1.263 1_655 S
O50 Tb42 2.427 1_455 S
O50 C46 1.275 . S
O51 Tb42 2.513 1_455 S
O51 C46 1.246 . S
O52 Tb42 2.453 . S
O52 C48 1.245 . S
O53 Tb40 2.343 1_655 S
O53 Tb42 2.596 . S
O53 C48 1.259 . S
O54 Tb42 2.374 . S
O54 C49 1.250 . S
O55 Tb40 2.353 . S
O55 C49 1.263 1_455 S
C56 O57 1.275 . S
C56 O58 1.246 . S
O57 Tb40 2.427 1_655 S
O57 C56 1.275 . S
O58 Tb40 2.513 1_655 S
O58 C56 1.246 . S
C59 O43 1.245 . S
C59 O44 1.259 . S
Tb60 O63 2.453 1_455 S
Tb60 O64 2.596 . S
Tb60 O65 2.374 . S
Tb60 O73 2.343 . S
Tb60 O75 2.353 . S
Tb60 O77 2.427 . S
Tb60 O78 2.513 . S
C61 O65 1.251 . S
C61 O67 1.263 . S
Tb62 O64 2.343 . S
Tb62 O67 2.353 . S
Tb62 O70 2.427 . S
Tb62 O71 2.513 . S
Tb62 O72 2.453 . S
Tb62 O73 2.596 . S
Tb62 O74 2.374 . S
O63 Tb60 2.453 1_655 S
O63 C79 1.244 1_655 S
O64 Tb60 2.596 . S
O64 Tb62 2.343 . S
O64 C79 1.263 . S
O65 Tb60 2.374 . S
O65 C61 1.251 . S
C66 O70 1.275 . S
C66 O71 1.246 . S
O67 C61 1.263 . S
O67 Tb62 2.353 . S
C68 O72 1.245 . S
C68 O73 1.259 . S
C69 O74 1.250 . S
C69 O75 1.263 . S
O70 Tb62 2.427 . S
O70 C66 1.275 . S
O71 Tb62 2.513 . S
O71 C66 1.246 . S
O72 Tb62 2.453 . S
O72 C68 1.245 . S
O73 Tb60 2.343 . S
O73 Tb62 2.596 . S
O73 C68 1.259 . S
O74 Tb62 2.374 . S
O74 C69 1.250 . S
O75 Tb60 2.353 . S
O75 C69 1.263 . S
C76 O77 1.275 . S
C76 O78 1.246 . S
O77 Tb60 2.427 . S
O77 C76 1.275 . S
O78 Tb60 2.513 . S
O78 C76 1.246 . S
C79 O63 1.244 1_455 S
C79 O64 1.263 . S
Tb80 O83 2.453 . S
Tb80 O84 2.596 . S
Tb80 O85 2.374 . S
Tb80 O93 2.343 1_455 S
Tb80 O95 2.353 1_455 S
Tb80 O97 2.427 1_455 S
Tb80 O98 2.513 1_455 S
C81 O85 1.251 . S
C81 O87 1.263 1_455 S
Tb82 O84 2.343 1_655 S
Tb82 O87 2.353 . S
Tb82 O90 2.427 1_655 S
Tb82 O91 2.513 1_655 S
Tb82 O92 2.453 . S
Tb82 O93 2.596 . S
Tb82 O94 2.374 . S
O83 Tb80 2.453 . S
O83 C99 1.245 . S
O84 Tb80 2.596 . S
O84 Tb82 2.343 1_455 S
O84 C99 1.259 . S
O85 Tb80 2.374 . S
O85 C81 1.251 . S
C86 O90 1.275 . S
C86 O91 1.246 . S
O87 C81 1.263 1_655 S
O87 Tb82 2.353 . S
C88 O92 1.245 . S
C88 O93 1.259 . S
C89 O94 1.250 . S
C89 O95 1.263 . S
O90 Tb82 2.427 1_455 S
O90 C86 1.275 . S
O91 Tb82 2.513 1_455 S
O91 C86 1.246 . S
O92 Tb82 2.453 . S
O92 C88 1.245 . S
O93 Tb80 2.343 1_655 S
O93 Tb82 2.596 . S
O93 C88 1.259 . S
O94 Tb82 2.374 . S
O94 C89 1.250 . S
O95 Tb80 2.353 1_655 S
O95 C89 1.263 . S
C96 O97 1.275 . S
C96 O98 1.246 . S
O97 Tb80 2.427 1_655 S
O97 C96 1.275 . S
O98 Tb80 2.513 1_655 S
O98 C96 1.246 . S
C99 O83 1.245 . S
C99 O84 1.259 . S
Tb100 O103 2.453 . S
Tb100 O104 2.596 . S
Tb100 O105 2.374 . S
Tb100 O113 2.343 . S
Tb100 O115 2.353 . S
Tb100 O117 2.427 . S
Tb100 O118 2.513 . S
C101 O105 1.251 . S
C101 O107 1.263 . S
Tb102 O104 2.343 . S
Tb102 O107 2.353 . S
Tb102 O110 2.427 . S
Tb102 O111 2.513 . S
Tb102 O112 2.453 1_655 S
Tb102 O113 2.596 . S
Tb102 O114 2.374 . S
O103 Tb100 2.453 . S
O103 C119 1.245 . S
O104 Tb100 2.596 . S
O104 Tb102 2.343 . S
O104 C119 1.259 . S
O105 Tb100 2.374 . S
O105 C101 1.251 . S
C106 O110 1.275 . S
C106 O111 1.246 . S
O107 C101 1.263 . S
O107 Tb102 2.353 . S
C108 O112 1.243 1_655 S
C108 O113 1.264 . S
C109 O114 1.250 . S
C109 O115 1.263 . S
O110 Tb102 2.427 . S
O110 C106 1.275 . S
O111 Tb102 2.513 . S
O111 C106 1.246 . S
O112 Tb102 2.453 1_455 S
O112 C108 1.243 1_455 S
O113 Tb100 2.343 . S
O113 Tb102 2.596 . S
O113 C108 1.264 . S
O114 Tb102 2.374 . S
O114 C109 1.250 . S
O115 Tb100 2.353 . S
O115 C109 1.263 . S
C116 O117 1.275 . S
C116 O118 1.246 . S
O117 Tb100 2.427 . S
O117 C116 1.275 . S
O118 Tb100 2.513 . S
O118 C116 1.246 . S
C119 O103 1.245 . S
C119 O104 1.259 . S
Tb120 O123 2.453 . S
Tb120 O124 2.596 . S
Tb120 O125 2.374 . S
Tb120 O133 2.343 1_455 S
Tb120 O135 2.353 1_455 S
Tb120 O137 2.427 1_455 S
Tb120 O138 2.513 1_455 S
C121 O125 1.251 . S
C121 O127 1.263 1_455 S
Tb122 O124 2.343 1_655 S
Tb122 O127 2.353 . S
Tb122 O130 2.427 1_655 S
Tb122 O131 2.513 1_655 S
Tb122 O132 2.453 . S
Tb122 O133 2.596 . S
Tb122 O134 2.374 . S
O123 Tb120 2.453 . S
O123 C139 1.245 . S
O124 Tb120 2.596 . S
O124 Tb122 2.343 1_455 S
O124 C139 1.259 . S
O125 Tb120 2.374 . S
O125 C121 1.251 . S
C126 O130 1.275 . S
C126 O131 1.246 . S
O127 C121 1.263 1_655 S
O127 Tb122 2.353 . S
C128 O132 1.245 . S
C128 O133 1.259 . S
C129 O134 1.250 . S
C129 O135 1.263 . S
O130 Tb122 2.427 1_455 S
O130 C126 1.275 . S
O131 Tb122 2.513 1_455 S
O131 C126 1.246 . S
O132 Tb122 2.453 . S
O132 C128 1.245 . S
O133 Tb120 2.343 1_655 S
O133 Tb122 2.596 . S
O133 C128 1.259 . S
O134 Tb122 2.374 . S
O134 C129 1.250 . S
O135 Tb120 2.353 1_655 S
O135 C129 1.263 . S
C136 O137 1.275 . S
C136 O138 1.246 . S
O137 Tb120 2.427 1_655 S
O137 C136 1.275 . S
O138 Tb120 2.513 1_655 S
O138 C136 1.246 . S
C139 O123 1.245 . S
C139 O124 1.259 . S
Tb140 O143 2.453 . S
Tb140 O144 2.596 . S
Tb140 O145 2.374 . S
Tb140 O153 2.343 . S
Tb140 O155 2.353 . S
Tb140 O157 2.427 . S
Tb140 O158 2.513 . S
C141 O145 1.251 . S
C141 O147 1.263 . S
Tb142 O144 2.343 . S
Tb142 O147 2.353 . S
Tb142 O150 2.427 . S
Tb142 O151 2.513 . S
Tb142 O152 2.453 1_655 S
Tb142 O153 2.596 . S
Tb142 O154 2.374 . S
O143 Tb140 2.453 . S
O143 C159 1.245 . S
O144 Tb140 2.596 . S
O144 Tb142 2.343 . S
O144 C159 1.259 . S
O145 Tb140 2.374 . S
O145 C141 1.251 . S
C146 O150 1.275 . S
C146 O151 1.246 . S
O147 C141 1.263 . S
O147 Tb142 2.353 . S
C148 O152 1.244 1_655 S
C148 O153 1.263 . S
C149 O154 1.250 . S
C149 O155 1.263 . S
O150 Tb142 2.427 . S
O150 C146 1.275 . S
O151 Tb142 2.513 . S
O151 C146 1.246 . S
O152 Tb142 2.453 1_455 S
O152 C148 1.244 1_455 S
O153 Tb140 2.343 . S
O153 Tb142 2.596 . S
O153 C148 1.263 . S
O154 Tb142 2.374 . S
O154 C149 1.250 . S
O155 Tb140 2.353 . S
O155 C149 1.263 . S
C156 O157 1.275 . S
C156 O158 1.246 . S
O157 Tb140 2.427 . S
O157 C156 1.275 . S
O158 Tb140 2.513 . S
O158 C156 1.246 . S
C159 O143 1.245 . S
C159 O144 1.259 . S
Tb160 O163 2.453 . S
Tb160 O164 2.596 1_565 S
Tb160 O165 2.374 . S
Tb160 O173 2.343 1_455 S
Tb160 O175 2.353 . S
Tb160 O177 2.427 1_455 S
Tb160 O178 2.513 1_455 S
C161 O165 1.290 . S
C161 O167 1.227 1_565 S
Tb162 O164 2.343 1_655 S
Tb162 O167 2.353 1_655 S
Tb162 O170 2.427 1_655 S
Tb162 O171 2.513 1_655 S
Tb162 O172 2.453 . S
Tb162 O173 2.596 1_545 S
Tb162 O174 2.374 . S
O163 Tb160 2.453 . S
O163 C179 1.245 1_565 S
O164 Tb160 2.596 1_545 S
O164 Tb162 2.343 1_455 S
O164 C179 1.259 . S
O165 Tb160 2.374 . S
O165 C161 1.290 . S
C166 O170 1.275 . S
C166 O171 1.246 . S
O167 C161 1.227 1_545 S
O167 Tb162 2.353 1_455 S
C168 O172 1.245 1_565 S
C168 O173 1.259 . S
C169 O174 1.280 . S
C169 O175 1.235 1_645 S
O170 Tb162 2.427 1_455 S
O170 C166 1.275 . S
O171 Tb162 2.513 1_455 S
O171 C166 1.246 . S
O172 Tb162 2.453 . S
O172 C168 1.245 1_545 S
O173 Tb160 2.343 1_655 S
O173 Tb162 2.596 1_565 S
O173 C168 1.259 . S
O174 Tb162 2.374 . S
O174 C169 1.280 . S
O175 Tb160 2.353 . S
O175 C169 1.235 1_465 S
C176 O177 1.275 . S
C176 O178 1.246 . S
O177 Tb160 2.427 1_655 S
O177 C176 1.275 . S
O178 Tb160 2.513 1_655 S
O178 C176 1.246 . S
C179 O163 1.245 1_545 S
C179 O164 1.259 . S
Tb180 O183 2.453 1_455 S
Tb180 O184 2.596 . S
Tb180 O185 2.374 . S
Tb180 O193 2.343 . S
Tb180 O195 2.353 . S
Tb180 O197 2.427 . S
Tb180 O198 2.513 . S
C181 O185 1.251 . S
C181 O187 1.263 . S
Tb182 O184 2.343 . S
Tb182 O187 2.353 . S
Tb182 O190 2.427 . S
Tb182 O191 2.513 . S
Tb182 O192 2.453 . S
Tb182 O193 2.596 . S
Tb182 O194 2.374 . S
O183 Tb180 2.453 1_655 S
O183 C199 1.245 1_655 S
O184 Tb180 2.596 . S
O184 Tb182 2.343 . S
O184 C199 1.259 . S
O185 Tb180 2.374 . S
O185 C181 1.251 . S
C186 O190 1.275 . S
C186 O191 1.246 . S
O187 C181 1.263 . S
O187 Tb182 2.353 . S
C188 O192 1.245 . S
C188 O193 1.259 . S
C189 O194 1.250 . S
C189 O195 1.263 . S
O190 Tb182 2.427 . S
O190 C186 1.275 . S
O191 Tb182 2.513 . S
O191 C186 1.246 . S
O192 Tb182 2.453 . S
O192 C188 1.245 . S
O193 Tb180 2.343 . S
O193 Tb182 2.596 . S
O193 C188 1.259 . S
O194 Tb182 2.374 . S
O194 C189 1.250 . S
O195 Tb180 2.353 . S
O195 C189 1.263 . S
C196 O197 1.275 . S
C196 O198 1.246 . S
O197 Tb180 2.427 . S
O197 C196 1.275 . S
O198 Tb180 2.513 . S
O198 C196 1.246 . S
C199 O183 1.245 1_455 S
C199 O184 1.259 . S
Tb200 O203 2.453 . S
Tb200 O204 2.596 . S
Tb200 O205 2.374 . S
Tb200 O213 2.343 1_455 S
Tb200 O215 2.353 . S
Tb200 O217 2.427 1_455 S
Tb200 O218 2.513 1_455 S
C201 O205 1.251 . S
C201 O207 1.263 . S
Tb202 O204 2.343 1_655 S
Tb202 O207 2.353 1_655 S
Tb202 O210 2.427 1_655 S
Tb202 O211 2.513 1_655 S
Tb202 O212 2.453 . S
Tb202 O213 2.596 . S
Tb202 O214 2.374 . S
O203 Tb200 2.453 . S
O203 C219 1.245 . S
O204 Tb200 2.596 . S
O204 Tb202 2.343 1_455 S
O204 C219 1.259 . S
O205 Tb200 2.374 . S
O205 C201 1.251 . S
C206 O210 1.275 . S
C206 O211 1.246 . S
O207 C201 1.263 . S
O207 Tb202 2.353 1_455 S
C208 O212 1.245 . S
C208 O213 1.259 . S
C209 O214 1.250 . S
C209 O215 1.263 1_655 S
O210 Tb202 2.427 1_455 S
O210 C206 1.275 . S
O211 Tb202 2.513 1_455 S
O211 C206 1.246 . S
O212 Tb202 2.453 . S
O212 C208 1.245 . S
O213 Tb200 2.343 1_655 S
O213 Tb202 2.596 . S
O213 C208 1.259 . S
O214 Tb202 2.374 . S
O214 C209 1.250 . S
O215 Tb200 2.353 . S
O215 C209 1.263 1_455 S
C216 O217 1.275 . S
C216 O218 1.246 . S
O217 Tb200 2.427 1_655 S
O217 C216 1.275 . S
O218 Tb200 2.513 1_655 S
O218 C216 1.246 . S
C219 O203 1.245 . S
C219 O204 1.259 . S
Tb220 O223 2.453 1_455 S
Tb220 O224 2.596 1_565 S
Tb220 O225 2.374 . S
Tb220 O233 2.343 . S
Tb220 O235 2.353 . S
Tb220 O237 2.427 . S
Tb220 O238 2.513 . S
C221 O225 1.290 . S
C221 O227 1.227 1_565 S
Tb222 O224 2.343 . S
Tb222 O227 2.353 . S
Tb222 O230 2.427 . S
Tb222 O231 2.513 . S
Tb222 O232 2.453 . S
Tb222 O233 2.596 1_545 S
Tb222 O234 2.374 . S
O223 Tb220 2.453 1_655 S
O223 C239 1.245 1_665 S
O224 Tb220 2.596 1_545 S
O224 Tb222 2.343 . S
O224 C239 1.259 . S
O225 Tb220 2.374 . S
O225 C221 1.290 . S
C226 O230 1.275 . S
C226 O231 1.246 . S
O227 C221 1.227 1_545 S
O227 Tb222 2.353 . S
C228 O232 1.245 1_565 S
C228 O233 1.259 . S
C229 O234 1.280 . S
C229 O235 1.235 1_545 S
O230 Tb222 2.427 . S
O230 C226 1.275 . S
O231 Tb222 2.513 . S
O231 C226 1.246 . S
O232 Tb222 2.453 . S
O232 C228 1.245 1_545 S
O233 Tb220 2.343 . S
O233 Tb222 2.596 1_565 S
O233 C228 1.259 . S
O234 Tb222 2.374 . S
O234 C229 1.280 . S
O235 Tb220 2.353 . S
O235 C229 1.235 1_565 S
C236 O237 1.275 . S
C236 O238 1.246 . S
O237 Tb220 2.427 . S
O237 C236 1.275 . S
O238 Tb220 2.513 . S
O238 C236 1.246 . S
C239 O223 1.245 1_445 S
C239 O224 1.259 . S
Tb240 O243 2.453 . S
Tb240 O244 2.596 1_565 S
Tb240 O245 2.374 . S
Tb240 O253 2.343 1_455 S
Tb240 O255 2.353 1_455 S
Tb240 O257 2.427 1_455 S
Tb240 O258 2.513 1_455 S
C241 O245 1.280 . S
C241 O247 1.235 1_465 S
Tb242 O244 2.343 1_655 S
Tb242 O247 2.353 . S
Tb242 O250 2.427 1_655 S
Tb242 O251 2.513 1_655 S
Tb242 O252 2.453 . S
Tb242 O253 2.596 1_545 S
Tb242 O254 2.374 . S
O243 Tb240 2.453 . S
O243 C259 1.245 1_565 S
O244 Tb240 2.596 1_545 S
O244 Tb242 2.343 1_455 S
O244 C259 1.259 . S
O245 Tb240 2.374 . S
O245 C241 1.280 . S
C246 O250 1.275 . S
C246 O251 1.246 . S
O247 C241 1.235 1_645 S
O247 Tb242 2.353 . S
C248 O252 1.245 1_565 S
C248 O253 1.259 . S
C249 O254 1.290 . S
C249 O255 1.227 1_545 S
O250 Tb242 2.427 1_455 S
O250 C246 1.275 . S
O251 Tb242 2.513 1_455 S
O251 C246 1.246 . S
O252 Tb242 2.453 . S
O252 C248 1.245 1_545 S
O253 Tb240 2.343 1_655 S
O253 Tb242 2.596 1_565 S
O253 C248 1.259 . S
O254 Tb242 2.374 . S
O254 C249 1.290 . S
O255 Tb240 2.353 1_655 S
O255 C249 1.227 1_565 S
C256 O257 1.275 . S
C256 O258 1.246 . S
O257 Tb240 2.427 1_655 S
O257 C256 1.275 . S
O258 Tb240 2.513 1_655 S
O258 C256 1.246 . S
C259 O243 1.245 1_545 S
C259 O244 1.259 . S
Tb260 O263 2.453 . S
Tb260 O264 2.596 . S
Tb260 O265 2.374 . S
Tb260 O273 2.343 . S
Tb260 O275 2.353 . S
Tb260 O277 2.427 . S
Tb260 O278 2.513 . S
C261 O265 1.251 . S
C261 O267 1.263 . S
Tb262 O264 2.343 . S
Tb262 O267 2.353 . S
Tb262 O270 2.427 . S
Tb262 O271 2.513 . S
Tb262 O272 2.453 1_655 S
Tb262 O273 2.596 . S
Tb262 O274 2.374 . S
O263 Tb260 2.453 . S
O263 C279 1.245 . S
O264 Tb260 2.596 . S
O264 Tb262 2.343 . S
O264 C279 1.259 . S
O265 Tb260 2.374 . S
O265 C261 1.251 . S
C266 O270 1.275 . S
C266 O271 1.246 . S
O267 C261 1.263 . S
O267 Tb262 2.353 . S
C268 O272 1.245 1_655 S
C268 O273 1.259 . S
C269 O274 1.250 . S
C269 O275 1.263 . S
O270 Tb262 2.427 . S
O270 C266 1.275 . S
O271 Tb262 2.513 . S
O271 C266 1.246 . S
O272 Tb262 2.453 1_455 S
O272 C268 1.245 1_455 S
O273 Tb260 2.343 . S
O273 Tb262 2.596 . S
O273 C268 1.259 . S
O274 Tb262 2.374 . S
O274 C269 1.250 . S
O275 Tb260 2.353 . S
O275 C269 1.263 . S
C276 O277 1.275 . S
C276 O278 1.246 . S
O277 Tb260 2.427 . S
O277 C276 1.275 . S
O278 Tb260 2.513 . S
O278 C276 1.246 . S
C279 O263 1.245 . S
C279 O264 1.259 . S
Tb280 O283 2.453 . S
Tb280 O284 2.596 . S
Tb280 O285 2.374 . S
Tb280 O293 2.343 1_455 S
Tb280 O295 2.353 1_455 S
Tb280 O297 2.427 1_455 S
Tb280 O298 2.513 1_455 S
C281 O285 1.251 . S
C281 O287 1.263 1_455 S
Tb282 O284 2.343 1_655 S
Tb282 O287 2.353 . S
Tb282 O290 2.427 1_655 S
Tb282 O291 2.513 1_655 S
Tb282 O292 2.453 . S
Tb282 O293 2.596 . S
Tb282 O294 2.374 . S
O283 Tb280 2.453 . S
O283 C299 1.245 . S
O284 Tb280 2.596 . S
O284 Tb282 2.343 1_455 S
O284 C299 1.259 . S
O285 Tb280 2.374 . S
O285 C281 1.251 . S
C286 O290 1.275 . S
C286 O291 1.246 . S
O287 C281 1.263 1_655 S
O287 Tb282 2.353 . S
C288 O292 1.245 . S
C288 O293 1.259 . S
C289 O294 1.250 . S
C289 O295 1.263 . S
O290 Tb282 2.427 1_455 S
O290 C286 1.275 . S
O291 Tb282 2.513 1_455 S
O291 C286 1.246 . S
O292 Tb282 2.453 . S
O292 C288 1.245 . S
O293 Tb280 2.343 1_655 S
O293 Tb282 2.596 . S
O293 C288 1.259 . S
O294 Tb282 2.374 . S
O294 C289 1.250 . S
O295 Tb280 2.353 1_655 S
O295 C289 1.263 . S
C296 O297 1.275 . S
C296 O298 1.246 . S
O297 Tb280 2.427 1_655 S
O297 C296 1.275 . S
O298 Tb280 2.513 1_655 S
O298 C296 1.246 . S
C299 O283 1.245 . S
C299 O284 1.259 . S
Tb300 O303 2.453 . S
Tb300 O304 2.596 1_565 S
Tb300 O305 2.374 . S
Tb300 O313 2.343 . S
Tb300 O315 2.353 . S
Tb300 O317 2.427 . S
Tb300 O318 2.513 . S
C301 O305 1.280 . S
C301 O307 1.235 1_565 S
Tb302 O304 2.343 . S
Tb302 O307 2.353 . S
Tb302 O310 2.427 . S
Tb302 O311 2.513 . S
Tb302 O312 2.453 1_655 S
Tb302 O313 2.596 1_545 S
Tb302 O314 2.374 . S
O303 Tb300 2.453 . S
O303 C319 1.245 1_565 S
O304 Tb300 2.596 1_545 S
O304 Tb302 2.343 . S
O304 C319 1.259 . S
O305 Tb300 2.374 . S
O305 C301 1.280 . S
C306 O310 1.275 . S
C306 O311 1.246 . S
O307 C301 1.235 1_545 S
O307 Tb302 2.353 . S
C308 O312 1.245 1_665 S
C308 O313 1.259 . S
C309 O314 1.290 . S
C309 O315 1.227 1_545 S
O310 Tb302 2.427 . S
O310 C306 1.275 . S
O311 Tb302 2.513 . S
O311 C306 1.246 . S
O312 Tb302 2.453 1_455 S
O312 C308 1.245 1_445 S
O313 Tb300 2.343 . S
O313 Tb302 2.596 1_565 S
O313 C308 1.259 . S
O314 Tb302 2.374 . S
O314 C309 1.290 . S
O315 Tb300 2.353 . S
O315 C309 1.227 1_565 S
C316 O317 1.275 . S
C316 O318 1.246 . S
O317 Tb300 2.427 . S
O317 C316 1.275 . S
O318 Tb300 2.513 . S
O318 C316 1.246 . S
C319 O303 1.245 1_545 S
C319 O304 1.259 . S
Tb320 O323 2.453 . S
Tb320 O324 2.596 . S
Tb320 O325 2.374 . S
Tb320 O333 2.343 . S
Tb320 O335 2.353 . S
Tb320 O337 2.427 . S
Tb320 O338 2.513 . S
C321 O325 1.251 . S
C321 O327 1.263 . S
Tb322 O324 2.343 . S
Tb322 O327 2.353 . S
Tb322 O330 2.427 . S
Tb322 O331 2.513 . S
Tb322 O332 2.453 . S
Tb322 O333 2.596 . S
Tb322 O334 2.374 . S
O323 Tb320 2.453 . S
O323 C339 1.245 . S
O324 Tb320 2.596 . S
O324 Tb322 2.343 . S
O324 C339 1.259 . S
O325 Tb320 2.374 . S
O325 C321 1.251 . S
C326 O330 1.275 . S
C326 O331 1.246 . S
O327 C321 1.263 . S
O327 Tb322 2.353 . S
C328 O332 1.245 . S
C328 O333 1.259 . S
C329 O334 1.250 . S
C329 O335 1.263 . S
O330 Tb322 2.427 . S
O330 C326 1.275 . S
O331 Tb322 2.513 . S
O331 C326 1.246 . S
O332 Tb322 2.453 . S
O332 C328 1.245 . S
O333 Tb320 2.343 . S
O333 Tb322 2.596 . S
O333 C328 1.259 . S
O334 Tb322 2.374 . S
O334 C329 1.250 . S
O335 Tb320 2.353 . S
O335 C329 1.263 . S
C336 O337 1.275 . S
C336 O338 1.246 . S
O337 Tb320 2.427 . S
O337 C336 1.275 . S
O338 Tb320 2.513 . S
O338 C336 1.246 . S
C339 O323 1.245 . S
C339 O324 1.259 . S
Tb340 O343 2.453 . S
Tb340 O344 2.596 . S
Tb340 O345 2.374 . S
Tb340 O353 2.343 . S
Tb340 O355 2.353 . S
Tb340 O357 2.427 . S
Tb340 O358 2.513 . S
C341 O345 1.251 . S
C341 O347 1.263 . S
Tb342 O344 2.343 . S
Tb342 O347 2.353 . S
Tb342 O350 2.427 . S
Tb342 O351 2.513 . S
Tb342 O352 2.453 . S
Tb342 O353 2.596 . S
Tb342 O354 2.374 . S
O343 Tb340 2.453 . S
O343 C359 1.245 . S
O344 Tb340 2.596 . S
O344 Tb342 2.343 . S
O344 C359 1.259 . S
O345 Tb340 2.374 . S
O345 C341 1.251 . S
C346 O350 1.275 . S
C346 O351 1.246 . S
O347 C341 1.263 . S
O347 Tb342 2.353 . S
C348 O352 1.245 . S
C348 O353 1.259 . S
C349 O354 1.250 . S
C349 O355 1.263 . S
O350 Tb342 2.427 . S
O350 C346 1.275 . S
O351 Tb342 2.513 . S
O351 C346 1.246 . S
O352 Tb342 2.453 . S
O352 C348 1.245 . S
O353 Tb340 2.343 . S
O353 Tb342 2.596 . S
O353 C348 1.259 . S
O354 Tb342 2.374 . S
O354 C349 1.250 . S
O355 Tb340 2.353 . S
O355 C349 1.263 . S
C356 O357 1.275 . S
C356 O358 1.246 . S
O357 Tb340 2.427 . S
O357 C356 1.275 . S
O358 Tb340 2.513 . S
O358 C356 1.246 . S
C359 O343 1.245 . S
C359 O344 1.259 . S
Tb360 O363 2.453 . S
Tb360 O364 2.596 . S
Tb360 O365 2.374 . S
Tb360 O373 2.343 . S
Tb360 O375 2.353 . S
Tb360 O377 2.427 . S
Tb360 O378 2.513 . S
C361 O365 1.251 . S
C361 O367 1.263 . S
Tb362 O364 2.343 . S
Tb362 O367 2.353 . S
Tb362 O370 2.427 . S
Tb362 O371 2.513 . S
Tb362 O372 2.453 . S
Tb362 O373 2.596 . S
Tb362 O374 2.374 . S
O363 Tb360 2.453 . S
O363 C379 1.245 . S
O364 Tb360 2.596 . S
O364 Tb362 2.343 . S
O364 C379 1.259 . S
O365 Tb360 2.374 . S
O365 C361 1.251 . S
C366 O370 1.275 . S
C366 O371 1.246 . S
O367 C361 1.263 . S
O367 Tb362 2.353 . S
C368 O372 1.245 . S
C368 O373 1.259 . S
C369 O374 1.250 . S
C369 O375 1.263 . S
O370 Tb362 2.427 . S
O370 C366 1.275 . S
O371 Tb362 2.513 . S
O371 C366 1.246 . S
O372 Tb362 2.453 . S
O372 C368 1.245 . S
O373 Tb360 2.343 . S
O373 Tb362 2.596 . S
O373 C368 1.259 . S
O374 Tb362 2.374 . S
O374 C369 1.250 . S
O375 Tb360 2.353 . S
O375 C369 1.263 . S
C376 O377 1.275 . S
C376 O378 1.246 . S
O377 Tb360 2.427 . S
O377 C376 1.275 . S
O378 Tb360 2.513 . S
O378 C376 1.246 . S
C379 O363 1.245 . S
C379 O364 1.259 . S
Tb380 O383 2.453 . S
Tb380 O384 2.596 . S
Tb380 O385 2.374 . S
Tb380 O393 2.343 . S
Tb380 O395 2.353 . S
Tb380 O397 2.427 . S
Tb380 O398 2.513 . S
C381 O385 1.251 . S
C381 O387 1.263 . S
Tb382 O384 2.343 . S
Tb382 O387 2.353 . S
Tb382 O390 2.427 . S
Tb382 O391 2.513 . S
Tb382 O392 2.453 . S
Tb382 O393 2.596 . S
Tb382 O394 2.374 . S
O383 Tb380 2.453 . S
O383 C399 1.245 . S
O384 Tb380 2.596 . S
O384 Tb382 2.343 . S
O384 C399 1.259 . S
O385 Tb380 2.374 . S
O385 C381 1.251 . S
C386 O390 1.275 . S
C386 O391 1.246 . S
O387 C381 1.263 . S
O387 Tb382 2.353 . S
C388 O392 1.245 . S
C388 O393 1.259 . S
C389 O394 1.250 . S
C389 O395 1.263 . S
O390 Tb382 2.427 . S
O390 C386 1.275 . S
O391 Tb382 2.513 . S
O391 C386 1.246 . S
O392 Tb382 2.453 . S
O392 C388 1.245 . S
O393 Tb380 2.343 . S
O393 Tb382 2.596 . S
O393 C388 1.259 . S
O394 Tb382 2.374 . S
O394 C389 1.250 . S
O395 Tb380 2.353 . S
O395 C389 1.263 . S
C396 O397 1.275 . S
C396 O398 1.246 . S
O397 Tb380 2.427 . S
O397 C396 1.275 . S
O398 Tb380 2.513 . S
O398 C396 1.246 . S
C399 O383 1.245 . S
C399 O384 1.259 . S
Tb400 O403 2.453 . S
Tb400 O404 2.596 . S
Tb400 O405 2.374 . S
Tb400 O413 2.343 . S
Tb400 O415 2.353 . S
Tb400 O417 2.427 . S
Tb400 O418 2.513 . S
C401 O405 1.251 . S
C401 O407 1.263 . S
Tb402 O404 2.343 . S
Tb402 O407 2.353 . S
Tb402 O410 2.427 . S
Tb402 O411 2.513 . S
Tb402 O412 2.453 . S
Tb402 O413 2.596 . S
Tb402 O414 2.374 . S
O403 Tb400 2.453 . S
O403 C419 1.245 . S
O404 Tb400 2.596 . S
O404 Tb402 2.343 . S
O404 C419 1.259 . S
O405 Tb400 2.374 . S
O405 C401 1.251 . S
C406 O410 1.275 . S
C406 O411 1.246 . S
O407 C401 1.263 . S
O407 Tb402 2.353 . S
C408 O412 1.245 . S
C408 O413 1.259 . S
C409 O414 1.250 . S
C409 O415 1.263 . S
O410 Tb402 2.427 . S
O410 C406 1.275 . S
O411 Tb402 2.513 . S
O411 C406 1.246 . S
O412 Tb402 2.453 . S
O412 C408 1.245 . S
O413 Tb400 2.343 . S
O413 Tb402 2.596 . S
O413 C408 1.259 . S
O414 Tb402 2.374 . S
O414 C409 1.250 . S
O415 Tb400 2.353 . S
O415 C409 1.263 . S
C416 O417 1.275 . S
C416 O418 1.246 . S
O417 Tb400 2.427 . S
O417 C416 1.275 . S
O418 Tb400 2.513 . S
O418 C416 1.246 . S
C419 O403 1.245 . S
C419 O404 1.259 . S
Tb420 O423 2.453 . S
Tb420 O424 2.596 . S
Tb420 O425 2.374 . S
Tb420 O433 2.343 . S
Tb420 O435 2.353 . S
Tb420 O437 2.427 . S
Tb420 O438 2.513 . S
C421 O425 1.251 . S
C421 O427 1.263 . S
Tb422 O424 2.343 . S
Tb422 O427 2.353 . S
Tb422 O430 2.427 . S
Tb422 O431 2.513 . S
Tb422 O432 2.453 . S
Tb422 O433 2.596 . S
Tb422 O434 2.374 . S
O423 Tb420 2.453 . S
O423 C439 1.245 . S
O424 Tb420 2.596 . S
O424 Tb422 2.343 . S
O424 C439 1.259 . S
O425 Tb420 2.374 . S
O425 C421 1.251 . S
C426 O430 1.275 . S
C426 O431 1.246 . S
O427 C421 1.263 . S
O427 Tb422 2.353 . S
C428 O432 1.245 . S
C428 O433 1.259 . S
C429 O434 1.250 . S
C429 O435 1.263 . S
O430 Tb422 2.427 . S
O430 C426 1.275 . S
O431 Tb422 2.513 . S
O431 C426 1.246 . S
O432 Tb422 2.453 . S
O432 C428 1.245 . S
O433 Tb420 2.343 . S
O433 Tb422 2.596 . S
O433 C428 1.259 . S
O434 Tb422 2.374 . S
O434 C429 1.250 . S
O435 Tb420 2.353 . S
O435 C429 1.263 . S
C436 O437 1.275 . S
C436 O438 1.246 . S
O437 Tb420 2.427 . S
O437 C436 1.275 . S
O438 Tb420 2.513 . S
O438 C436 1.246 . S
C439 O423 1.245 . S
C439 O424 1.259 . S
Tb440 O443 2.453 . S
Tb440 O444 2.596 . S
Tb440 O445 2.374 . S
Tb440 O453 2.343 . S
Tb440 O455 2.353 . S
Tb440 O457 2.427 . S
Tb440 O458 2.513 . S
C441 O445 1.251 . S
C441 O447 1.263 . S
Tb442 O444 2.343 . S
Tb442 O447 2.353 . S
Tb442 O450 2.427 . S
Tb442 O451 2.513 . S
Tb442 O452 2.453 . S
Tb442 O453 2.596 . S
Tb442 O454 2.374 . S
O443 Tb440 2.453 . S
O443 C459 1.245 . S
O444 Tb440 2.596 . S
O444 Tb442 2.343 . S
O444 C459 1.259 . S
O445 Tb440 2.374 . S
O445 C441 1.251 . S
C446 O450 1.275 . S
C446 O451 1.246 . S
O447 C441 1.263 . S
O447 Tb442 2.353 . S
C448 O452 1.245 . S
C448 O453 1.259 . S
C449 O454 1.250 . S
C449 O455 1.263 . S
O450 Tb442 2.427 . S
O450 C446 1.275 . S
O451 Tb442 2.513 . S
O451 C446 1.246 . S
O452 Tb442 2.453 . S
O452 C448 1.245 . S
O453 Tb440 2.343 . S
O453 Tb442 2.596 . S
O453 C448 1.259 . S
O454 Tb442 2.374 . S
O454 C449 1.250 . S
O455 Tb440 2.353 . S
O455 C449 1.263 . S
C456 O457 1.275 . S
C456 O458 1.246 . S
O457 Tb440 2.427 . S
O457 C456 1.275 . S
O458 Tb440 2.513 . S
O458 C456 1.246 . S
C459 O443 1.245 . S
C459 O444 1.259 . S
Tb460 O463 2.453 . S
Tb460 O464 2.596 . S
Tb460 O465 2.374 . S
Tb460 O473 2.343 . S
Tb460 O475 2.353 . S
Tb460 O477 2.427 . S
Tb460 O478 2.513 . S
C461 O465 1.251 . S
C461 O467 1.263 . S
Tb462 O464 2.343 . S
Tb462 O467 2.353 . S
Tb462 O470 2.427 . S
Tb462 O471 2.513 . S
Tb462 O472 2.453 . S
Tb462 O473 2.596 . S
Tb462 O474 2.374 . S
O463 Tb460 2.453 . S
O463 C479 1.245 . S
O464 Tb460 2.596 . S
O464 Tb462 2.343 . S
O464 C479 1.259 . S
O465 Tb460 2.374 . S
O465 C461 1.251 . S
C466 O470 1.275 . S
C466 O471 1.246 . S
O467 C461 1.263 . S
O467 Tb462 2.353 . S
C468 O472 1.245 . S
C468 O473 1.259 . S
C469 O474 1.250 . S
C469 O475 1.263 . S
O470 Tb462 2.427 . S
O470 C466 1.275 . S
O471 Tb462 2.513 . S
O471 C466 1.246 . S
O472 Tb462 2.453 . S
O472 C468 1.245 . S
O473 Tb460 2.343 . S
O473 Tb462 2.596 . S
O473 C468 1.259 . S
O474 Tb462 2.374 . S
O474 C469 1.250 . S
O475 Tb460 2.353 . S
O475 C469 1.263 . S
C476 O477 1.275 . S
C476 O478 1.246 . S
O477 Tb460 2.427 . S
O477 C476 1.275 . S
O478 Tb460 2.513 . S
O478 C476 1.246 . S
C479 O463 1.245 . S
C479 O464 1.259 . S
Tb480 O483 2.453 . S
Tb480 O484 2.596 1_565 S
Tb480 O485 2.374 . S
Tb480 O493 2.343 . S
Tb480 O495 2.353 . S
Tb480 O497 2.427 . S
Tb480 O498 2.513 . S
C481 O485 1.290 . S
C481 O487 1.227 1_565 S
Tb482 O484 2.343 . S
Tb482 O487 2.353 . S
Tb482 O490 2.427 . S
Tb482 O491 2.513 . S
Tb482 O492 2.453 . S
Tb482 O493 2.596 1_545 S
Tb482 O494 2.374 . S
O483 Tb480 2.453 . S
O483 C499 1.245 1_565 S
O484 Tb480 2.596 1_545 S
O484 Tb482 2.343 . S
O484 C499 1.259 . S
O485 Tb480 2.374 . S
O485 C481 1.290 . S
C486 O490 1.275 . S
C486 O491 1.246 . S
O487 C481 1.227 1_545 S
O487 Tb482 2.353 . S
C488 O492 1.245 1_565 S
C488 O493 1.259 . S
C489 O494 1.280 . S
C489 O495 1.235 1_545 S
O490 Tb482 2.427 . S
O490 C486 1.275 . S
O491 Tb482 2.513 . S
O491 C486 1.246 . S
O492 Tb482 2.453 . S
O492 C488 1.245 1_545 S
O493 Tb480 2.343 . S
O493 Tb482 2.596 1_565 S
O493 C488 1.259 . S
O494 Tb482 2.374 . S
O494 C489 1.280 . S
O495 Tb480 2.353 . S
O495 C489 1.235 1_565 S
C496 O497 1.275 . S
C496 O498 1.246 . S
O497 Tb480 2.427 . S
O497 C496 1.275 . S
O498 Tb480 2.513 . S
O498 C496 1.246 . S
C499 O483 1.245 1_545 S
C499 O484 1.259 . S
Tb500 O503 2.453 . S
Tb500 O504 2.596 . S
Tb500 O505 2.374 . S
Tb500 O513 2.343 . S
Tb500 O515 2.353 . S
Tb500 O517 2.427 . S
Tb500 O518 2.513 . S
C501 O505 1.251 . S
C501 O507 1.263 . S
Tb502 O504 2.343 . S
Tb502 O507 2.353 . S
Tb502 O510 2.427 . S
Tb502 O511 2.513 . S
Tb502 O512 2.453 . S
Tb502 O513 2.596 . S
Tb502 O514 2.374 . S
O503 Tb500 2.453 . S
O503 C519 1.245 . S
O504 Tb500 2.596 . S
O504 Tb502 2.343 . S
O504 C519 1.259 . S
O505 Tb500 2.374 . S
O505 C501 1.251 . S
C506 O510 1.275 . S
C506 O511 1.246 . S
O507 C501 1.263 . S
O507 Tb502 2.353 . S
C508 O512 1.245 . S
C508 O513 1.259 . S
C509 O514 1.250 . S
C509 O515 1.263 . S
O510 Tb502 2.427 . S
O510 C506 1.275 . S
O511 Tb502 2.513 . S
O511 C506 1.246 . S
O512 Tb502 2.453 . S
O512 C508 1.245 . S
O513 Tb500 2.343 . S
O513 Tb502 2.596 . S
O513 C508 1.259 . S
O514 Tb502 2.374 . S
O514 C509 1.250 . S
O515 Tb500 2.353 . S
O515 C509 1.263 . S
C516 O517 1.275 . S
C516 O518 1.246 . S
O517 Tb500 2.427 . S
O517 C516 1.275 . S
O518 Tb500 2.513 . S
O518 C516 1.246 . S
C519 O503 1.245 . S
C519 O504 1.259 . S
Tb520 O523 2.453 . S
Tb520 O524 2.596 . S
Tb520 O525 2.374 . S
Tb520 O533 2.343 . S
Tb520 O535 2.353 . S
Tb520 O537 2.427 . S
Tb520 O538 2.513 . S
C521 O525 1.251 . S
C521 O527 1.263 . S
Tb522 O524 2.343 . S
Tb522 O527 2.353 . S
Tb522 O530 2.427 . S
Tb522 O531 2.513 . S
Tb522 O532 2.453 . S
Tb522 O533 2.596 . S
Tb522 O534 2.374 . S
O523 Tb520 2.453 . S
O523 C539 1.245 . S
O524 Tb520 2.596 . S
O524 Tb522 2.343 . S
O524 C539 1.259 . S
O525 Tb520 2.374 . S
O525 C521 1.251 . S
C526 O530 1.275 . S
C526 O531 1.246 . S
O527 C521 1.263 . S
O527 Tb522 2.353 . S
C528 O532 1.245 . S
C528 O533 1.259 . S
C529 O534 1.250 . S
C529 O535 1.263 . S
O530 Tb522 2.427 . S
O530 C526 1.275 . S
O531 Tb522 2.513 . S
O531 C526 1.246 . S
O532 Tb522 2.453 . S
O532 C528 1.245 . S
O533 Tb520 2.343 . S
O533 Tb522 2.596 . S
O533 C528 1.259 . S
O534 Tb522 2.374 . S
O534 C529 1.250 . S
O535 Tb520 2.353 . S
O535 C529 1.263 . S
C536 O537 1.275 . S
C536 O538 1.246 . S
O537 Tb520 2.427 . S
O537 C536 1.275 . S
O538 Tb520 2.513 . S
O538 C536 1.246 . S
C539 O523 1.245 . S
C539 O524 1.259 . S
Tb540 O543 2.453 . S
Tb540 O544 2.596 1_565 S
Tb540 O545 2.374 . S
Tb540 O553 2.343 . S
Tb540 O555 2.353 . S
Tb540 O557 2.427 . S
Tb540 O558 2.513 . S
C541 O545 1.290 . S
C541 O547 1.227 1_565 S
Tb542 O544 2.343 . S
Tb542 O547 2.353 . S
Tb542 O550 2.427 . S
Tb542 O551 2.513 . S
Tb542 O552 2.453 . S
Tb542 O553 2.596 1_545 S
Tb542 O554 2.374 . S
O543 Tb540 2.453 . S
O543 C559 1.245 1_565 S
O544 Tb540 2.596 1_545 S
O544 Tb542 2.343 . S
O544 C559 1.259 . S
O545 Tb540 2.374 . S
O545 C541 1.290 . S
C546 O550 1.275 . S
C546 O551 1.246 . S
O547 C541 1.227 1_545 S
O547 Tb542 2.353 . S
C548 O552 1.245 1_565 S
C548 O553 1.259 . S
C549 O554 1.280 . S
C549 O555 1.236 1_545 S
O550 Tb542 2.427 . S
O550 C546 1.275 . S
O551 Tb542 2.513 . S
O551 C546 1.246 . S
O552 Tb542 2.453 . S
O552 C548 1.245 1_545 S
O553 Tb540 2.343 . S
O553 Tb542 2.596 1_565 S
O553 C548 1.259 . S
O554 Tb542 2.374 . S
O554 C549 1.280 . S
O555 Tb540 2.353 . S
O555 C549 1.236 1_565 S
C556 O557 1.275 . S
C556 O558 1.246 . S
O557 Tb540 2.427 . S
O557 C556 1.275 . S
O558 Tb540 2.513 . S
O558 C556 1.246 . S
C559 O543 1.245 1_545 S
C559 O544 1.259 . S
Tb560 O563 2.453 . S
Tb560 O564 2.596 1_565 S
Tb560 O565 2.374 . S
Tb560 O573 2.343 . S
Tb560 O575 2.353 . S
Tb560 O577 2.427 . S
Tb560 O578 2.513 . S
C561 O565 1.280 . S
C561 O567 1.235 1_565 S
Tb562 O564 2.343 . S
Tb562 O567 2.353 . S
Tb562 O570 2.427 . S
Tb562 O571 2.513 . S
Tb562 O572 2.453 . S
Tb562 O573 2.596 1_545 S
Tb562 O574 2.374 . S
O563 Tb560 2.453 . S
O563 C579 1.245 1_565 S
O564 Tb560 2.596 1_545 S
O564 Tb562 2.343 . S
O564 C579 1.259 . S
O565 Tb560 2.374 . S
O565 C561 1.280 . S
C566 O570 1.275 . S
C566 O571 1.246 . S
O567 C561 1.235 1_545 S
O567 Tb562 2.353 . S
C568 O572 1.245 1_565 S
C568 O573 1.259 . S
C569 O574 1.290 . S
C569 O575 1.227 1_545 S
O570 Tb562 2.427 . S
O570 C566 1.275 . S
O571 Tb562 2.513 . S
O571 C566 1.246 . S
O572 Tb562 2.453 . S
O572 C568 1.245 1_545 S
O573 Tb560 2.343 . S
O573 Tb562 2.596 1_565 S
O573 C568 1.259 . S
O574 Tb562 2.374 . S
O574 C569 1.290 . S
O575 Tb560 2.353 . S
O575 C569 1.227 1_565 S
C576 O577 1.275 . S
C576 O578 1.246 . S
O577 Tb560 2.427 . S
O577 C576 1.275 . S
O578 Tb560 2.513 . S
O578 C576 1.246 . S
C579 O563 1.245 1_545 S
C579 O564 1.259 . S
Tb580 O583 2.453 . S
Tb580 O584 2.596 . S
Tb580 O585 2.374 . S
Tb580 O593 2.343 . S
Tb580 O595 2.353 . S
Tb580 O597 2.427 . S
Tb580 O598 2.513 . S
C581 O585 1.251 . S
C581 O587 1.263 . S
Tb582 O584 2.343 . S
Tb582 O587 2.353 . S
Tb582 O590 2.427 . S
Tb582 O591 2.513 . S
Tb582 O592 2.453 . S
Tb582 O593 2.596 . S
Tb582 O594 2.374 . S
O583 Tb580 2.453 . S
O583 C599 1.245 . S
O584 Tb580 2.596 . S
O584 Tb582 2.343 . S
O584 C599 1.259 . S
O585 Tb580 2.374 . S
O585 C581 1.251 . S
C586 O590 1.275 . S
C586 O591 1.246 . S
O587 C581 1.263 . S
O587 Tb582 2.353 . S
C588 O592 1.245 . S
C588 O593 1.259 . S
C589 O594 1.250 . S
C589 O595 1.263 . S
O590 Tb582 2.427 . S
O590 C586 1.275 . S
O591 Tb582 2.513 . S
O591 C586 1.246 . S
O592 Tb582 2.453 . S
O592 C588 1.245 . S
O593 Tb580 2.343 . S
O593 Tb582 2.596 . S
O593 C588 1.259 . S
O594 Tb582 2.374 . S
O594 C589 1.250 . S
O595 Tb580 2.353 . S
O595 C589 1.263 . S
C596 O597 1.275 . S
C596 O598 1.246 . S
O597 Tb580 2.427 . S
O597 C596 1.275 . S
O598 Tb580 2.513 . S
O598 C596 1.246 . S
C599 O583 1.245 . S
C599 O584 1.259 . S
Tb600 O603 2.453 . S
Tb600 O604 2.596 . S
Tb600 O605 2.374 . S
Tb600 O613 2.343 . S
Tb600 O615 2.353 . S
Tb600 O617 2.427 . S
Tb600 O618 2.513 . S
C601 O605 1.251 . S
C601 O607 1.263 . S
Tb602 O604 2.343 . S
Tb602 O607 2.353 . S
Tb602 O610 2.427 . S
Tb602 O611 2.513 . S
Tb602 O612 2.453 . S
Tb602 O613 2.596 . S
Tb602 O614 2.374 . S
O603 Tb600 2.453 . S
O603 C619 1.245 . S
O604 Tb600 2.596 . S
O604 Tb602 2.343 . S
O604 C619 1.259 . S
O605 Tb600 2.374 . S
O605 C601 1.251 . S
C606 O610 1.275 . S
C606 O611 1.246 . S
O607 C601 1.263 . S
O607 Tb602 2.353 . S
C608 O612 1.245 . S
C608 O613 1.259 . S
C609 O614 1.250 . S
C609 O615 1.263 . S
O610 Tb602 2.427 . S
O610 C606 1.275 . S
O611 Tb602 2.513 . S
O611 C606 1.246 . S
O612 Tb602 2.453 . S
O612 C608 1.245 . S
O613 Tb600 2.343 . S
O613 Tb602 2.596 . S
O613 C608 1.259 . S
O614 Tb602 2.374 . S
O614 C609 1.250 . S
O615 Tb600 2.353 . S
O615 C609 1.263 . S
C616 O617 1.275 . S
C616 O618 1.246 . S
O617 Tb600 2.427 . S
O617 C616 1.275 . S
O618 Tb600 2.513 . S
O618 C616 1.246 . S
C619 O603 1.245 . S
C619 O604 1.259 . S
Tb620 O623 2.453 . S
Tb620 O624 2.596 1_565 S
Tb620 O625 2.374 . S
Tb620 O633 2.343 . S
Tb620 O635 2.353 . S
Tb620 O637 2.427 . S
Tb620 O638 2.513 . S
C621 O625 1.280 . S
C621 O627 1.236 1_565 S
Tb622 O624 2.343 . S
Tb622 O627 2.353 . S
Tb622 O630 2.427 . S
Tb622 O631 2.513 . S
Tb622 O632 2.453 . S
Tb622 O633 2.596 1_545 S
Tb622 O634 2.374 . S
O623 Tb620 2.453 . S
O623 C639 1.245 1_565 S
O624 Tb620 2.596 1_545 S
O624 Tb622 2.343 . S
O624 C639 1.259 . S
O625 Tb620 2.374 . S
O625 C621 1.280 . S
C626 O630 1.275 . S
C626 O631 1.246 . S
O627 C621 1.236 1_545 S
O627 Tb622 2.353 . S
C628 O632 1.245 1_565 S
C628 O633 1.259 . S
C629 O634 1.290 . S
C629 O635 1.227 1_545 S
O630 Tb622 2.427 . S
O630 C626 1.275 . S
O631 Tb622 2.513 . S
O631 C626 1.246 . S
O632 Tb622 2.453 . S
O632 C628 1.245 1_545 S
O633 Tb620 2.343 . S
O633 Tb622 2.596 1_565 S
O633 C628 1.259 . S
O634 Tb622 2.374 . S
O634 C629 1.290 . S
O635 Tb620 2.353 . S
O635 C629 1.227 1_565 S
C636 O637 1.275 . S
C636 O638 1.246 . S
O637 Tb620 2.427 . S
O637 C636 1.275 . S
O638 Tb620 2.513 . S
O638 C636 1.246 . S
C639 O623 1.245 1_545 S
C639 O624 1.259 . S
C640 C641 1.369 . S
C640 C642 1.419 . S
C640 H644 0.930 . S
C641 C640 1.369 . S
C641 C650 1.429 . S
C642 C640 1.419 . S
C642 C643 1.363 . S
C642 H645 0.929 . S
C643 C642 1.363 . S
C643 C649 1.428 . S
H644 C640 0.930 . S
H645 C642 0.929 . S
S646 N647 1.613 . S
S646 N648 1.610 . S
N647 S646 1.613 . S
N647 C650 1.350 . S
N648 S646 1.610 . S
N648 C649 1.351 . S
C649 C643 1.428 . S
C649 N648 1.351 . S
C649 C650 1.434 . S
C650 C641 1.429 . S
C650 N647 1.350 . S
C650 C649 1.434 . S
C651 C652 1.369 . S
C651 C653 1.419 . S
C651 H655 0.930 . S
C652 C651 1.369 . S
C652 C661 1.429 . S
C653 C651 1.419 . S
C653 C654 1.363 . S
C653 H656 0.929 . S
C654 C653 1.363 . S
C654 C660 1.428 . S
H655 C651 0.930 . S
H656 C653 0.929 . S
S657 N658 1.613 . S
S657 N659 1.610 . S
N658 S657 1.613 . S
N658 C661 1.350 . S
N659 S657 1.610 . S
N659 C660 1.351 . S
C660 C654 1.428 . S
C660 N659 1.351 . S
C660 C661 1.434 . S
C661 C652 1.429 . S
C661 N658 1.350 . S
C661 C660 1.434 . S
C662 C663 1.369 . S
C662 C664 1.419 . S
C662 H666 0.930 . S
C663 C662 1.369 . S
C663 C672 1.429 . S
C664 C662 1.419 . S
C664 C665 1.363 . S
C664 H667 0.929 . S
C665 C664 1.363 . S
C665 C671 1.428 . S
H666 C662 0.930 . S
H667 C664 0.929 . S
S668 N669 1.613 . S
S668 N670 1.610 . S
N669 S668 1.613 . S
N669 C672 1.350 . S
N670 S668 1.610 . S
N670 C671 1.351 . S
C671 C665 1.428 . S
C671 N670 1.351 . S
C671 C672 1.434 . S
C672 C663 1.429 . S
C672 N669 1.350 . S
C672 C671 1.434 . S
C673 C674 1.369 . S
C673 C675 1.419 . S
C673 H677 0.930 . S
C674 C673 1.369 . S
C674 C683 1.429 . S
C675 C673 1.419 . S
C675 C676 1.363 . S
C675 H678 0.929 . S
C676 C675 1.363 . S
C676 C682 1.428 . S
H677 C673 0.930 . S
H678 C675 0.929 . S
S679 N680 1.613 . S
S679 N681 1.610 . S
N680 S679 1.613 . S
N680 C683 1.350 . S
N681 S679 1.610 . S
N681 C682 1.351 . S
C682 C676 1.428 . S
C682 N681 1.351 . S
C682 C683 1.434 . S
C683 C674 1.429 . S
C683 N680 1.350 . S
C683 C682 1.434 . S
C684 C685 1.369 . S
C684 C686 1.419 . S
C684 H688 0.930 . S
C685 C684 1.369 . S
C685 C694 1.429 . S
C686 C684 1.419 . S
C686 C687 1.363 . S
C686 H689 0.929 . S
C687 C686 1.363 . S
C687 C693 1.428 . S
H688 C684 0.930 . S
H689 C686 0.929 . S
S690 N691 1.613 . S
S690 N692 1.610 . S
N691 S690 1.613 . S
N691 C694 1.350 1_655 S
N692 S690 1.610 . S
N692 C693 1.351 1_655 S
C693 C687 1.428 . S
C693 N692 1.351 1_455 S
C693 C694 1.434 . S
C694 C685 1.429 . S
C694 N691 1.350 1_455 S
C694 C693 1.434 . S
C695 C696 1.369 . S
C695 C697 1.419 . S
C695 H699 0.930 . S
C696 C695 1.369 . S
C696 C705 1.429 . S
C697 C695 1.419 . S
C697 C698 1.363 . S
C697 H700 0.929 . S
C698 C697 1.363 . S
C698 C704 1.428 . S
H699 C695 0.930 . S
H700 C697 0.929 . S
S701 N702 1.613 . S
S701 N703 1.610 . S
N702 S701 1.613 . S
N702 C705 1.350 . S
N703 S701 1.610 . S
N703 C704 1.351 . S
C704 C698 1.428 . S
C704 N703 1.351 . S
C704 C705 1.434 . S
C705 C696 1.429 . S
C705 N702 1.350 . S
C705 C704 1.434 . S
C706 C707 1.369 . S
C706 C708 1.419 . S
C706 H710 0.930 . S
C707 C706 1.369 . S
C707 C716 1.429 . S
C708 C706 1.419 . S
C708 C709 1.363 . S
C708 H711 0.929 . S
C709 C708 1.363 . S
C709 C715 1.428 . S
H710 C706 0.930 . S
H711 C708 0.929 . S
S712 N713 1.613 . S
S712 N714 1.610 . S
N713 S712 1.613 . S
N713 C716 1.350 . S
N714 S712 1.610 . S
N714 C715 1.351 . S
C715 C709 1.428 . S
C715 N714 1.351 . S
C715 C716 1.434 . S
C716 C707 1.429 . S
C716 N713 1.350 . S
C716 C715 1.434 . S
C717 C718 1.369 . S
C717 C719 1.419 . S
C717 H721 0.930 . S
C718 C717 1.369 . S
C718 C727 1.429 . S
C719 C717 1.419 . S
C719 C720 1.363 . S
C719 H722 0.929 . S
C720 C719 1.363 . S
C720 C726 1.428 . S
H721 C717 0.930 . S
H722 C719 0.929 . S
S723 N724 1.613 . S
S723 N725 1.610 . S
N724 S723 1.613 . S
N724 C727 1.350 . S
N725 S723 1.610 . S
N725 C726 1.351 . S
C726 C720 1.428 . S
C726 N725 1.351 . S
C726 C727 1.434 . S
C727 C718 1.429 . S
C727 N724 1.350 . S
C727 C726 1.434 . S
C728 C729 1.369 . S
C728 C730 1.419 . S
C728 H732 0.930 . S
C729 C728 1.369 . S
C729 C738 1.429 . S
C730 C728 1.419 . S
C730 C731 1.363 . S
C730 H733 0.929 . S
C731 C730 1.363 . S
C731 C737 1.428 . S
H732 C728 0.930 . S
H733 C730 0.929 . S
S734 N735 1.613 . S
S734 N736 1.610 . S
N735 S734 1.613 . S
N735 C738 1.350 . S
N736 S734 1.610 . S
N736 C737 1.351 . S
C737 C731 1.428 . S
C737 N736 1.351 . S
C737 C738 1.434 . S
C738 C729 1.429 . S
C738 N735 1.350 . S
C738 C737 1.434 . S
C739 C740 1.369 . S
C739 C741 1.419 . S
C739 H743 0.930 . S
C740 C739 1.369 . S
C740 C749 1.429 . S
C741 C739 1.419 . S
C741 C742 1.363 . S
C741 H744 0.929 . S
C742 C741 1.363 . S
C742 C748 1.428 . S
H743 C739 0.930 . S
H744 C741 0.929 . S
S745 N746 1.613 . S
S745 N747 1.610 . S
N746 S745 1.613 . S
N746 C749 1.350 . S
N747 S745 1.610 . S
N747 C748 1.351 . S
C748 C742 1.428 . S
C748 N747 1.351 . S
C748 C749 1.434 . S
C749 C740 1.429 . S
C749 N746 1.350 . S
C749 C748 1.434 . S
C750 C751 1.369 . S
C750 C752 1.419 . S
C750 H754 0.930 . S
C751 C750 1.369 . S
C751 C760 1.429 . S
C752 C750 1.419 . S
C752 C753 1.363 . S
C752 H755 0.929 . S
C753 C752 1.363 . S
C753 C759 1.428 . S
H754 C750 0.930 . S
H755 C752 0.929 . S
S756 N757 1.613 . S
S756 N758 1.610 . S
N757 S756 1.613 . S
N757 C760 1.350 . S
N758 S756 1.610 . S
N758 C759 1.351 . S
C759 C753 1.428 . S
C759 N758 1.351 . S
C759 C760 1.434 . S
C760 C751 1.429 . S
C760 N757 1.350 . S
C760 C759 1.434 . S
C761 C762 1.369 . S
C761 C763 1.419 . S
C761 H765 0.930 . S
C762 C761 1.369 . S
C762 C771 1.429 . S
C763 C761 1.419 . S
C763 C764 1.363 . S
C763 H766 0.929 . S
C764 C763 1.363 . S
C764 C770 1.428 . S
H765 C761 0.930 . S
H766 C763 0.929 . S
S767 N768 1.613 . S
S767 N769 1.610 . S
N768 S767 1.613 . S
N768 C771 1.350 . S
N769 S767 1.610 . S
N769 C770 1.351 . S
C770 C764 1.428 . S
C770 N769 1.351 . S
C770 C771 1.434 . S
C771 C762 1.429 . S
C771 N768 1.350 . S
C771 C770 1.434 . S
C772 C773 1.369 . S
C772 C774 1.419 . S
C772 H776 0.930 . S
C773 C772 1.369 . S
C773 C782 1.429 . S
C774 C772 1.419 . S
C774 C775 1.363 . S
C774 H777 0.929 . S
C775 C774 1.363 . S
C775 C781 1.428 . S
H776 C772 0.930 . S
H777 C774 0.929 . S
S778 N779 1.613 . S
S778 N780 1.610 . S
N779 S778 1.613 . S
N779 C782 1.350 1_655 S
N780 S778 1.610 . S
N780 C781 1.351 1_655 S
C781 C775 1.428 . S
C781 N780 1.351 1_455 S
C781 C782 1.434 . S
C782 C773 1.429 . S
C782 N779 1.350 1_455 S
C782 C781 1.434 . S
C783 C784 1.369 . S
C783 C785 1.419 . S
C783 H787 0.930 . S
C784 C783 1.369 . S
C784 C793 1.429 . S
C785 C783 1.419 . S
C785 C786 1.363 . S
C785 H788 0.929 . S
C786 C785 1.363 . S
C786 C792 1.428 . S
H787 C783 0.930 . S
H788 C785 0.929 . S
S789 N790 1.613 . S
S789 N791 1.610 . S
N790 S789 1.613 . S
N790 C793 1.350 . S
N791 S789 1.610 . S
N791 C792 1.351 . S
C792 C786 1.428 . S
C792 N791 1.351 . S
C792 C793 1.434 . S
C793 C784 1.429 . S
C793 N790 1.350 . S
C793 C792 1.434 . S
C794 C795 1.369 . S
C794 C796 1.419 . S
C794 H798 0.930 . S
C795 C794 1.369 . S
C795 C804 1.429 . S
C796 C794 1.419 . S
C796 C797 1.363 . S
C796 H799 0.929 . S
C797 C796 1.363 . S
C797 C803 1.428 . S
H798 C794 0.930 . S
H799 C796 0.929 . S
S800 N801 1.613 . S
S800 N802 1.611 . S
N801 S800 1.613 . S
N801 C804 1.350 . S
N802 S800 1.611 . S
N802 C803 1.351 . S
C803 C797 1.428 . S
C803 N802 1.351 . S
C803 C804 1.434 . S
C804 C795 1.429 . S
C804 N801 1.350 . S
C804 C803 1.434 . S
C805 C806 1.369 . S
C805 C807 1.419 . S
C805 H809 0.930 . S
C806 C805 1.369 . S
C806 C815 1.429 . S
C807 C805 1.419 . S
C807 C808 1.363 . S
C807 H810 0.929 . S
C808 C807 1.363 . S
C808 C814 1.428 . S
H809 C805 0.930 . S
H810 C807 0.929 . S
S811 N812 1.613 . S
S811 N813 1.610 . S
N812 S811 1.613 . S
N812 C815 1.350 . S
N813 S811 1.610 . S
N813 C814 1.351 . S
C814 C808 1.428 . S
C814 N813 1.351 . S
C814 C815 1.434 . S
C815 C806 1.429 . S
C815 N812 1.350 . S
C815 C814 1.434 . S
C816 C817 1.369 . S
C816 C818 1.419 . S
C816 H820 0.930 . S
C817 C816 1.369 . S
C817 C826 1.429 . S
C818 C816 1.419 . S
C818 C819 1.363 . S
C818 H821 0.929 . S
C819 C818 1.363 . S
C819 C825 1.428 . S
H820 C816 0.930 . S
H821 C818 0.929 . S
S822 N823 1.613 . S
S822 N824 1.610 . S
N823 S822 1.613 . S
N823 C826 1.350 . S
N824 S822 1.610 . S
N824 C825 1.351 . S
C825 C819 1.428 . S
C825 N824 1.351 . S
C825 C826 1.434 . S
C826 C817 1.429 . S
C826 N823 1.350 . S
C826 C825 1.434 . S
C827 C828 1.369 . S
C827 C829 1.419 . S
C827 H831 0.930 . S
C828 C827 1.369 . S
C828 C837 1.429 . S
C829 C827 1.419 . S
C829 C830 1.363 . S
C829 H832 0.929 . S
C830 C829 1.363 . S
C830 C836 1.428 . S
H831 C827 0.930 . S
H832 C829 0.929 . S
S833 N834 1.613 . S
S833 N835 1.610 . S
N834 S833 1.613 . S
N834 C837 1.350 . S
N835 S833 1.610 . S
N835 C836 1.351 . S
C836 C830 1.428 . S
C836 N835 1.351 . S
C836 C837 1.434 . S
C837 C828 1.429 . S
C837 N834 1.350 . S
C837 C836 1.434 . S
C838 C839 1.369 . S
C838 C840 1.419 . S
C838 H842 0.930 1_655 S
C839 C838 1.369 . S
C839 C848 1.429 . S
C840 C838 1.419 . S
C840 C841 1.363 . S
C840 H843 0.929 1_655 S
C841 C840 1.363 . S
C841 C847 1.428 . S
H842 C838 0.930 1_455 S
H843 C840 0.929 1_455 S
S844 N845 1.613 . S
S844 N846 1.610 . S
N845 S844 1.613 . S
N845 C848 1.350 . S
N846 S844 1.610 . S
N846 C847 1.351 . S
C847 C841 1.428 . S
C847 N846 1.351 . S
C847 C848 1.434 . S
C848 C839 1.429 . S
C848 N845 1.350 . S
C848 C847 1.434 . S
C849 C850 1.369 . S
C849 C851 1.419 . S
C849 H853 0.930 . S
C850 C849 1.369 . S
C850 C859 1.429 . S
C851 C849 1.419 . S
C851 C852 1.363 . S
C851 H854 0.929 . S
C852 C851 1.363 . S
C852 C858 1.428 . S
H853 C849 0.930 . S
H854 C851 0.929 . S
S855 N856 1.613 . S
S855 N857 1.610 1_455 S
N856 S855 1.613 . S
N856 C859 1.350 1_455 S
N857 S855 1.610 1_655 S
N857 C858 1.351 . S
C858 C852 1.428 . S
C858 N857 1.351 . S
C858 C859 1.434 . S
C859 C850 1.429 . S
C859 N856 1.350 1_655 S
C859 C858 1.434 . S
C860 C861 1.358 1_565 S
C860 C862 1.419 . S
C860 H864 0.930 . S
C861 C860 1.358 1_545 S
C861 C870 1.441 . S
C862 C860 1.419 . S
C862 C863 1.353 1_565 S
C862 H865 0.929 . S
C863 C862 1.353 1_545 S
C863 C869 1.439 . S
H864 C860 0.930 . S
H865 C862 0.929 . S
S866 N867 1.613 . S
S866 N868 1.610 . S
N867 S866 1.613 . S
N867 C870 1.350 1_655 S
N868 S866 1.610 . S
N868 C869 1.351 1_655 S
C869 C863 1.439 . S
C869 N868 1.351 1_455 S
C869 C870 1.434 . S
C870 C861 1.441 . S
C870 N867 1.350 1_455 S
C870 C869 1.434 . S
C871 C872 1.369 . S
C871 C873 1.419 . S
C871 H875 0.930 . S
C872 C871 1.369 . S
C872 C881 1.429 . S
C873 C871 1.419 . S
C873 C874 1.363 . S
C873 H876 0.929 . S
C874 C873 1.363 . S
C874 C880 1.428 . S
H875 C871 0.930 . S
H876 C873 0.929 . S
S877 N878 1.613 . S
S877 N879 1.610 . S
N878 S877 1.613 . S
N878 C881 1.350 . S
N879 S877 1.610 . S
N879 C880 1.351 . S
C880 C874 1.428 . S
C880 N879 1.351 . S
C880 C881 1.434 . S
C881 C872 1.429 . S
C881 N878 1.350 . S
C881 C880 1.434 . S
C882 C883 1.347 1_545 S
C882 C884 1.419 . S
C882 H886 0.930 . S
C883 C882 1.347 1_565 S
C883 C892 1.451 . S
C884 C882 1.419 . S
C884 C885 1.342 1_545 S
C884 H887 0.929 . S
C885 C884 1.342 1_565 S
C885 C891 1.450 . S
H886 C882 0.930 . S
H887 C884 0.929 . S
S888 N889 1.613 . S
S888 N890 1.610 1_455 S
N889 S888 1.613 . S
N889 C892 1.350 1_455 S
N890 S888 1.610 1_655 S
N890 C891 1.351 . S
C891 C885 1.450 . S
C891 N890 1.351 . S
C891 C892 1.434 . S
C892 C883 1.451 . S
C892 N889 1.350 1_655 S
C892 C891 1.434 . S
C893 C894 1.369 . S
C893 C895 1.419 . S
C893 H897 0.930 1_655 S
C894 C893 1.369 . S
C894 C903 1.429 . S
C895 C893 1.419 . S
C895 C896 1.363 . S
C895 H898 0.929 1_655 S
C896 C895 1.363 . S
C896 C902 1.428 . S
H897 C893 0.930 1_455 S
H898 C895 0.929 1_455 S
S899 N900 1.613 . S
S899 N901 1.610 . S
N900 S899 1.613 . S
N900 C903 1.350 . S
N901 S899 1.610 . S
N901 C902 1.351 . S
C902 C896 1.428 . S
C902 N901 1.351 . S
C902 C903 1.434 . S
C903 C894 1.429 . S
C903 N900 1.350 . S
C903 C902 1.434 . S
C904 C905 1.369 . S
C904 C906 1.419 . S
C904 H908 0.930 . S
C905 C904 1.369 . S
C905 C914 1.429 . S
C906 C904 1.419 . S
C906 C907 1.363 . S
C906 H909 0.929 . S
C907 C906 1.363 . S
C907 C913 1.428 . S
H908 C904 0.930 . S
H909 C906 0.929 . S
S910 N911 1.613 . S
S910 N912 1.610 . S
N911 S910 1.613 . S
N911 C914 1.350 . S
N912 S910 1.610 . S
N912 C913 1.351 . S
C913 C907 1.428 . S
C913 N912 1.351 . S
C913 C914 1.434 . S
C914 C905 1.429 . S
C914 N911 1.350 . S
C914 C913 1.434 . S
C915 C916 1.369 . S
C915 C917 1.419 . S
C915 H919 0.930 . S
C916 C915 1.369 . S
C916 C925 1.429 . S
C917 C915 1.419 . S
C917 C918 1.363 . S
C917 H920 0.929 . S
C918 C917 1.363 . S
C918 C924 1.428 . S
H919 C915 0.930 . S
H920 C917 0.929 . S
S921 N922 1.613 . S
S921 N923 1.610 . S
N922 S921 1.613 . S
N922 C925 1.350 . S
N923 S921 1.610 . S
N923 C924 1.351 . S
C924 C918 1.428 . S
C924 N923 1.351 . S
C924 C925 1.434 . S
C925 C916 1.429 . S
C925 N922 1.350 . S
C925 C924 1.434 . S
C926 C927 1.369 . S
C926 C928 1.419 . S
C926 H930 0.930 . S
C927 C926 1.369 . S
C927 C936 1.429 . S
C928 C926 1.419 . S
C928 C929 1.363 . S
C928 H931 0.929 . S
C929 C928 1.363 . S
C929 C935 1.428 . S
H930 C926 0.930 . S
H931 C928 0.929 . S
S932 N933 1.613 . S
S932 N934 1.610 . S
N933 S932 1.613 . S
N933 C936 1.350 . S
N934 S932 1.610 . S
N934 C935 1.351 . S
C935 C929 1.428 . S
C935 N934 1.351 . S
C935 C936 1.434 . S
C936 C927 1.429 . S
C936 N933 1.350 . S
C936 C935 1.434 . S
C937 C938 1.369 . S
C937 C939 1.419 . S
C937 H941 0.930 . S
C938 C937 1.369 . S
C938 C947 1.429 . S
C939 C937 1.419 . S
C939 C940 1.363 . S
C939 H942 0.929 . S
C940 C939 1.363 . S
C940 C946 1.428 . S
H941 C937 0.930 . S
H942 C939 0.929 . S
S943 N944 1.613 . S
S943 N945 1.610 . S
N944 S943 1.613 . S
N944 C947 1.350 . S
N945 S943 1.610 . S
N945 C946 1.351 . S
C946 C940 1.428 . S
C946 N945 1.351 . S
C946 C947 1.434 . S
C947 C938 1.429 . S
C947 N944 1.350 . S
C947 C946 1.434 . S
C948 C949 1.372 . S
C948 C950 1.419 . S
C948 H952 0.930 . S
C949 C948 1.372 . S
C949 C958 1.426 1_545 S
C950 C948 1.419 . S
C950 C951 1.369 . S
C950 H953 0.929 . S
C951 C950 1.369 . S
C951 C957 1.422 1_545 S
H952 C948 0.930 . S
H953 C950 0.929 . S
S954 N955 1.613 . S
S954 N956 1.610 . S
N955 S954 1.613 . S
N955 C958 1.350 . S
N956 S954 1.610 . S
N956 C957 1.351 . S
C957 C951 1.422 1_565 S
C957 N956 1.351 . S
C957 C958 1.434 . S
C958 C949 1.426 1_565 S
C958 N955 1.350 . S
C958 C957 1.434 . S
C959 C960 1.369 . S
C959 C961 1.419 . S
C959 H963 0.930 . S
C960 C959 1.369 . S
C960 C969 1.429 . S
C961 C959 1.419 . S
C961 C962 1.363 . S
C961 H964 0.929 . S
C962 C961 1.363 . S
C962 C968 1.428 . S
H963 C959 0.930 . S
H964 C961 0.929 . S
S965 N966 1.613 . S
S965 N967 1.610 . S
N966 S965 1.613 . S
N966 C969 1.350 . S
N967 S965 1.610 . S
N967 C968 1.351 . S
C968 C962 1.428 . S
C968 N967 1.351 . S
C968 C969 1.434 . S
C969 C960 1.429 . S
C969 N966 1.350 . S
C969 C968 1.434 . S
C970 C971 1.359 1_545 S
C970 C972 1.419 . S
C970 H974 0.930 . S
C971 C970 1.359 1_565 S
C971 C980 1.440 . S
C972 C970 1.419 . S
C972 C973 1.355 1_545 S
C972 H975 0.929 . S
C973 C972 1.355 1_565 S
C973 C979 1.438 . S
H974 C970 0.930 . S
H975 C972 0.929 . S
S976 N977 1.613 . S
S976 N978 1.610 . S
N977 S976 1.613 . S
N977 C980 1.350 . S
N978 S976 1.610 . S
N978 C979 1.351 . S
C979 C973 1.438 . S
C979 N978 1.351 . S
C979 C980 1.434 . S
C980 C971 1.440 . S
C980 N977 1.350 . S
C980 C979 1.434 . S
C981 C982 1.369 . S
C981 C983 1.419 . S
C981 H985 0.930 . S
C982 C981 1.369 . S
C982 C991 1.429 . S
C983 C981 1.419 . S
C983 C984 1.363 . S
C983 H986 0.929 . S
C984 C983 1.363 . S
C984 C990 1.428 . S
H985 C981 0.930 . S
H986 C983 0.929 . S
S987 N988 1.613 . S
S987 N989 1.610 . S
N988 S987 1.613 . S
N988 C991 1.350 . S
N989 S987 1.610 . S
N989 C990 1.351 . S
C990 C984 1.428 . S
C990 N989 1.351 . S
C990 C991 1.434 . S
C991 C982 1.429 . S
C991 N988 1.350 . S
C991 C990 1.434 . S
C992 C993 1.369 . S
C992 C994 1.419 . S
C992 H996 0.930 . S
C993 C992 1.369 . S
C993 C1002 1.429 . S
C994 C992 1.419 . S
C994 C995 1.363 . S
C994 H997 0.929 . S
C995 C994 1.363 . S
C995 C1001 1.428 . S
H996 C992 0.930 . S
H997 C994 0.929 . S
S998 N999 1.613 . S
S998 N1000 1.610 1_655 S
N999 S998 1.613 . S
N999 C1002 1.350 1_655 S
N1000 S998 1.610 1_455 S
N1000 C1001 1.351 . S
C1001 C995 1.428 . S
C1001 N1000 1.351 . S
C1001 C1002 1.434 . S
C1002 C993 1.429 . S
C1002 N999 1.350 1_455 S
C1002 C1001 1.434 . S
C1003 C1004 1.369 . S
C1003 C1005 1.419 . S
C1003 H1007 0.930 . S
C1004 C1003 1.369 . S
C1004 C1013 1.429 . S
C1005 C1003 1.419 . S
C1005 C1006 1.363 . S
C1005 H1008 0.929 1_455 S
C1006 C1005 1.363 . S
C1006 C1012 1.428 . S
H1007 C1003 0.930 . S
H1008 C1005 0.929 1_655 S
S1009 N1010 1.613 . S
S1009 N1011 1.610 . S
N1010 S1009 1.613 . S
N1010 C1013 1.350 . S
N1011 S1009 1.610 . S
N1011 C1012 1.351 . S
C1012 C1006 1.428 . S
C1012 N1011 1.351 . S
C1012 C1013 1.434 . S
C1013 C1004 1.429 . S
C1013 N1010 1.350 . S
C1013 C1012 1.434 . S
C1014 C1015 1.369 . S
C1014 C1016 1.419 . S
C1014 H1018 0.930 . S
C1015 C1014 1.369 . S
C1015 C1024 1.429 . S
C1016 C1014 1.419 . S
C1016 C1017 1.363 . S
C1016 H1019 0.929 . S
C1017 C1016 1.363 . S
C1017 C1023 1.428 . S
H1018 C1014 0.930 . S
H1019 C1016 0.929 . S
S1020 N1021 1.613 . S
S1020 N1022 1.610 . S
N1021 S1020 1.613 . S
N1021 C1024 1.350 . S
N1022 S1020 1.610 . S
N1022 C1023 1.351 . S
C1023 C1017 1.428 . S
C1023 N1022 1.351 . S
C1023 C1024 1.434 . S
C1024 C1015 1.429 . S
C1024 N1021 1.350 . S
C1024 C1023 1.434 . S
C1025 C1026 1.369 . S
C1025 C1027 1.419 . S
C1025 H1029 0.930 . S
C1026 C1025 1.369 . S
C1026 C1035 1.429 . S
C1027 C1025 1.419 . S
C1027 C1028 1.363 . S
C1027 H1030 0.929 . S
C1028 C1027 1.363 . S
C1028 C1034 1.428 . S
H1029 C1025 0.930 . S
H1030 C1027 0.929 . S
S1031 N1032 1.613 . S
S1031 N1033 1.610 1_455 S
N1032 S1031 1.613 . S
N1032 C1035 1.350 1_455 S
N1033 S1031 1.610 1_655 S
N1033 C1034 1.351 . S
C1034 C1028 1.428 . S
C1034 N1033 1.351 . S
C1034 C1035 1.434 . S
C1035 C1026 1.429 . S
C1035 N1032 1.350 1_655 S
C1035 C1034 1.434 . S
C1036 C1037 1.369 . S
C1036 C1038 1.419 . S
C1036 H1040 0.930 . S
C1037 C1036 1.369 . S
C1037 C1046 1.429 . S
C1038 C1036 1.419 . S
C1038 C1039 1.363 . S
C1038 H1041 0.929 . S
C1039 C1038 1.363 . S
C1039 C1045 1.428 . S
H1040 C1036 0.930 . S
H1041 C1038 0.929 . S
S1042 N1043 1.613 . S
S1042 N1044 1.610 . S
N1043 S1042 1.613 . S
N1043 C1046 1.350 1_655 S
N1044 S1042 1.610 . S
N1044 C1045 1.351 1_655 S
C1045 C1039 1.428 . S
C1045 N1044 1.351 1_455 S
C1045 C1046 1.434 . S
C1046 C1037 1.429 . S
C1046 N1043 1.350 1_455 S
C1046 C1045 1.434 . S
C1047 C1048 1.369 . S
C1047 C1049 1.419 . S
C1047 H1051 0.930 . S
C1048 C1047 1.369 . S
C1048 C1057 1.429 . S
C1049 C1047 1.419 . S
C1049 C1050 1.363 . S
C1049 H1052 0.929 . S
C1050 C1049 1.363 . S
C1050 C1056 1.428 . S
H1051 C1047 0.930 . S
H1052 C1049 0.929 . S
S1053 N1054 1.613 . S
S1053 N1055 1.610 . S
N1054 S1053 1.613 . S
N1054 C1057 1.350 . S
N1055 S1053 1.610 . S
N1055 C1056 1.351 . S
C1056 C1050 1.428 . S
C1056 N1055 1.351 . S
C1056 C1057 1.434 . S
C1057 C1048 1.429 . S
C1057 N1054 1.350 . S
C1057 C1056 1.434 . S
C1058 C1059 1.369 . S
C1058 C1060 1.419 . S
C1058 H1062 0.930 . S
C1059 C1058 1.369 . S
C1059 C1068 1.429 . S
C1060 C1058 1.419 . S
C1060 C1061 1.363 . S
C1060 H1063 0.929 . S
C1061 C1060 1.363 . S
C1061 C1067 1.428 . S
H1062 C1058 0.930 . S
H1063 C1060 0.929 . S
S1064 N1065 1.613 . S
S1064 N1066 1.610 1_455 S
N1065 S1064 1.613 . S
N1065 C1068 1.350 1_455 S
N1066 S1064 1.610 1_655 S
N1066 C1067 1.351 . S
C1067 C1061 1.428 . S
C1067 N1066 1.351 . S
C1067 C1068 1.434 . S
C1068 C1059 1.429 . S
C1068 N1065 1.350 1_655 S
C1068 C1067 1.434 . S
C1069 C1070 1.369 . S
C1069 C1071 1.419 . S
C1069 H1073 0.930 . S
C1070 C1069 1.369 . S
C1070 C1079 1.429 . S
C1071 C1069 1.419 . S
C1071 C1072 1.363 . S
C1071 H1074 0.929 1_655 S
C1072 C1071 1.363 . S
C1072 C1078 1.428 . S
H1073 C1069 0.930 . S
H1074 C1071 0.929 1_455 S
S1075 N1076 1.613 . S
S1075 N1077 1.610 . S
N1076 S1075 1.613 . S
N1076 C1079 1.350 . S
N1077 S1075 1.610 . S
N1077 C1078 1.351 . S
C1078 C1072 1.428 . S
C1078 N1077 1.351 . S
C1078 C1079 1.434 . S
C1079 C1070 1.429 . S
C1079 N1076 1.350 . S
C1079 C1078 1.434 . S
C1080 C1081 1.369 . S
C1080 C1082 1.419 . S
C1080 H1084 0.930 . S
C1081 C1080 1.369 . S
C1081 C1090 1.429 . S
C1082 C1080 1.419 . S
C1082 C1083 1.363 . S
C1082 H1085 0.929 . S
C1083 C1082 1.363 . S
C1083 C1089 1.428 . S
H1084 C1080 0.930 . S
H1085 C1082 0.929 . S
S1086 N1087 1.613 . S
S1086 N1088 1.610 . S
N1087 S1086 1.613 . S
N1087 C1090 1.350 . S
N1088 S1086 1.610 . S
N1088 C1089 1.351 . S
C1089 C1083 1.428 . S
C1089 N1088 1.351 . S
C1089 C1090 1.434 . S
C1090 C1081 1.429 . S
C1090 N1087 1.350 . S
C1090 C1089 1.434 . S
C1091 C1092 1.369 . S
C1091 C1093 1.419 . S
C1091 H1095 0.930 . S
C1092 C1091 1.369 . S
C1092 C1101 1.429 . S
C1093 C1091 1.419 . S
C1093 C1094 1.363 . S
C1093 H1096 0.929 . S
C1094 C1093 1.363 . S
C1094 C1100 1.428 . S
H1095 C1091 0.930 . S
H1096 C1093 0.929 . S
S1097 N1098 1.613 . S
S1097 N1099 1.610 . S
N1098 S1097 1.613 . S
N1098 C1101 1.350 . S
N1099 S1097 1.610 . S
N1099 C1100 1.351 . S
C1100 C1094 1.428 . S
C1100 N1099 1.351 . S
C1100 C1101 1.434 . S
C1101 C1092 1.429 . S
C1101 N1098 1.350 . S
C1101 C1100 1.434 . S
C1102 C1103 1.369 . S
C1102 C1104 1.419 . S
C1102 H1106 0.930 . S
C1103 C1102 1.369 . S
C1103 C1112 1.429 . S
C1104 C1102 1.419 . S
C1104 C1105 1.363 . S
C1104 H1107 0.929 . S
C1105 C1104 1.363 . S
C1105 C1111 1.428 . S
H1106 C1102 0.930 . S
H1107 C1104 0.929 . S
S1108 N1109 1.613 . S
S1108 N1110 1.610 . S
N1109 S1108 1.613 . S
N1109 C1112 1.350 . S
N1110 S1108 1.610 . S
N1110 C1111 1.351 . S
C1111 C1105 1.428 . S
C1111 N1110 1.351 . S
C1111 C1112 1.434 . S
C1112 C1103 1.429 . S
C1112 N1109 1.350 . S
C1112 C1111 1.434 . S
C1113 C1114 1.369 . S
C1113 C1115 1.419 . S
C1113 H1117 0.930 . S
C1114 C1113 1.369 . S
C1114 C1123 1.429 . S
C1115 C1113 1.419 . S
C1115 C1116 1.363 . S
C1115 H1118 0.929 . S
C1116 C1115 1.363 . S
C1116 C1122 1.428 . S
H1117 C1113 0.930 . S
H1118 C1115 0.929 . S
S1119 N1120 1.613 . S
S1119 N1121 1.610 . S
N1120 S1119 1.613 . S
N1120 C1123 1.350 . S
N1121 S1119 1.610 . S
N1121 C1122 1.351 . S
C1122 C1116 1.428 . S
C1122 N1121 1.351 . S
C1122 C1123 1.434 . S
C1123 C1114 1.429 . S
C1123 N1120 1.350 . S
C1123 C1122 1.434 . S
C1124 C1125 1.369 . S
C1124 C1126 1.419 . S
C1124 H1128 0.930 . S
C1125 C1124 1.369 . S
C1125 C1134 1.429 . S
C1126 C1124 1.419 . S
C1126 C1127 1.363 . S
C1126 H1129 0.929 . S
C1127 C1126 1.363 . S
C1127 C1133 1.428 . S
H1128 C1124 0.930 . S
H1129 C1126 0.929 . S
S1130 N1131 1.613 . S
S1130 N1132 1.610 . S
N1131 S1130 1.613 . S
N1131 C1134 1.350 . S
N1132 S1130 1.610 . S
N1132 C1133 1.351 . S
C1133 C1127 1.428 . S
C1133 N1132 1.351 . S
C1133 C1134 1.434 . S
C1134 C1125 1.429 . S
C1134 N1131 1.350 . S
C1134 C1133 1.434 . S
C1135 C1136 1.369 . S
C1135 C1137 1.419 . S
C1135 H1139 0.930 . S
C1136 C1135 1.369 . S
C1136 C1145 1.429 . S
C1137 C1135 1.419 . S
C1137 C1138 1.363 . S
C1137 H1140 0.929 . S
C1138 C1137 1.363 . S
C1138 C1144 1.428 . S
H1139 C1135 0.930 . S
H1140 C1137 0.929 . S
S1141 N1142 1.613 . S
S1141 N1143 1.610 . S
N1142 S1141 1.613 . S
N1142 C1145 1.350 . S
N1143 S1141 1.610 . S
N1143 C1144 1.351 . S
C1144 C1138 1.428 . S
C1144 N1143 1.351 . S
C1144 C1145 1.434 . S
C1145 C1136 1.429 . S
C1145 N1142 1.350 . S
C1145 C1144 1.434 . S
C1146 C1147 1.369 . S
C1146 C1148 1.419 . S
C1146 H1150 0.930 . S
C1147 C1146 1.369 . S
C1147 C1156 1.429 . S
C1148 C1146 1.419 . S
C1148 C1149 1.363 . S
C1148 H1151 0.929 . S
C1149 C1148 1.363 . S
C1149 C1155 1.428 . S
H1150 C1146 0.930 . S
H1151 C1148 0.929 . S
S1152 N1153 1.613 . S
S1152 N1154 1.610 . S
N1153 S1152 1.613 . S
N1153 C1156 1.350 . S
N1154 S1152 1.610 . S
N1154 C1155 1.351 . S
C1155 C1149 1.428 . S
C1155 N1154 1.351 . S
C1155 C1156 1.434 . S
C1156 C1147 1.429 . S
C1156 N1153 1.350 . S
C1156 C1155 1.434 . S
C1157 C1158 1.369 . S
C1157 C1159 1.419 . S
C1157 H1161 0.930 . S
C1158 C1157 1.369 . S
C1158 C1167 1.429 . S
C1159 C1157 1.419 . S
C1159 C1160 1.363 . S
C1159 H1162 0.929 . S
C1160 C1159 1.363 . S
C1160 C1166 1.428 . S
H1161 C1157 0.930 . S
H1162 C1159 0.929 . S
S1163 N1164 1.613 . S
S1163 N1165 1.610 . S
N1164 S1163 1.613 . S
N1164 C1167 1.350 . S
N1165 S1163 1.610 . S
N1165 C1166 1.351 . S
C1166 C1160 1.428 . S
C1166 N1165 1.351 . S
C1166 C1167 1.434 . S
C1167 C1158 1.429 . S
C1167 N1164 1.350 . S
C1167 C1166 1.434 . S
C1168 C1169 1.369 . S
C1168 C1170 1.419 . S
C1168 H1172 0.930 . S
C1169 C1168 1.369 . S
C1169 C1178 1.429 . S
C1170 C1168 1.419 . S
C1170 C1171 1.363 . S
C1170 H1173 0.929 . S
C1171 C1170 1.363 . S
C1171 C1177 1.428 . S
H1172 C1168 0.930 . S
H1173 C1170 0.929 . S
S1174 N1175 1.613 . S
S1174 N1176 1.610 . S
N1175 S1174 1.613 . S
N1175 C1178 1.350 . S
N1176 S1174 1.610 . S
N1176 C1177 1.351 . S
C1177 C1171 1.428 . S
C1177 N1176 1.351 . S
C1177 C1178 1.434 . S
C1178 C1169 1.429 . S
C1178 N1175 1.350 . S
C1178 C1177 1.434 . S
C1179 C1180 1.369 . S
C1179 C1181 1.419 . S
C1179 H1183 0.930 . S
C1180 C1179 1.369 . S
C1180 C1189 1.429 . S
C1181 C1179 1.419 . S
C1181 C1182 1.363 . S
C1181 H1184 0.929 . S
C1182 C1181 1.363 . S
C1182 C1188 1.428 . S
H1183 C1179 0.930 . S
H1184 C1181 0.929 . S
S1185 N1186 1.613 . S
S1185 N1187 1.610 . S
N1186 S1185 1.613 . S
N1186 C1189 1.350 . S
N1187 S1185 1.610 . S
N1187 C1188 1.351 . S
C1188 C1182 1.428 . S
C1188 N1187 1.351 . S
C1188 C1189 1.434 . S
C1189 C1180 1.429 . S
C1189 N1186 1.350 . S
C1189 C1188 1.434 . S
C1190 C1191 1.369 . S
C1190 C1192 1.419 . S
C1190 H1194 0.930 . S
C1191 C1190 1.369 . S
C1191 C1200 1.429 . S
C1192 C1190 1.419 . S
C1192 C1193 1.363 . S
C1192 H1195 0.929 . S
C1193 C1192 1.363 . S
C1193 C1199 1.428 . S
H1194 C1190 0.930 . S
H1195 C1192 0.929 . S
S1196 N1197 1.613 . S
S1196 N1198 1.610 . S
N1197 S1196 1.613 . S
N1197 C1200 1.350 . S
N1198 S1196 1.610 . S
N1198 C1199 1.351 . S
C1199 C1193 1.428 . S
C1199 N1198 1.351 . S
C1199 C1200 1.434 . S
C1200 C1191 1.429 . S
C1200 N1197 1.350 . S
C1200 C1199 1.434 . S
C1201 C1202 1.369 . S
C1201 C1203 1.419 . S
C1201 H1205 0.930 . S
C1202 C1201 1.369 . S
C1202 C1211 1.429 . S
C1203 C1201 1.419 . S
C1203 C1204 1.363 . S
C1203 H1206 0.929 . S
C1204 C1203 1.363 . S
C1204 C1210 1.428 . S
H1205 C1201 0.930 . S
H1206 C1203 0.929 . S
S1207 N1208 1.613 . S
S1207 N1209 1.610 . S
N1208 S1207 1.613 . S
N1208 C1211 1.350 . S
N1209 S1207 1.610 . S
N1209 C1210 1.351 . S
C1210 C1204 1.428 . S
C1210 N1209 1.351 . S
C1210 C1211 1.434 . S
C1211 C1202 1.429 . S
C1211 N1208 1.350 . S
C1211 C1210 1.434 . S
C1212 C1213 1.369 . S
C1212 C1214 1.419 . S
C1212 H1216 0.930 . S
C1213 C1212 1.369 . S
C1213 C1222 1.429 . S
C1214 C1212 1.419 . S
C1214 C1215 1.363 . S
C1214 H1217 0.929 . S
C1215 C1214 1.363 . S
C1215 C1221 1.428 . S
H1216 C1212 0.930 . S
H1217 C1214 0.929 . S
S1218 N1219 1.613 . S
S1218 N1220 1.610 . S
N1219 S1218 1.613 . S
N1219 C1222 1.350 . S
N1220 S1218 1.610 . S
N1220 C1221 1.351 . S
C1221 C1215 1.428 . S
C1221 N1220 1.351 . S
C1221 C1222 1.434 . S
C1222 C1213 1.429 . S
C1222 N1219 1.350 . S
C1222 C1221 1.434 . S
C1223 C1224 1.369 . S
C1223 C1225 1.419 . S
C1223 H1227 0.930 . S
C1224 C1223 1.369 . S
C1224 C1233 1.429 . S
C1225 C1223 1.419 . S
C1225 C1226 1.363 . S
C1225 H1228 0.929 . S
C1226 C1225 1.363 . S
C1226 C1232 1.428 . S
H1227 C1223 0.930 . S
H1228 C1225 0.929 . S
S1229 N1230 1.613 . S
S1229 N1231 1.610 . S
N1230 S1229 1.613 . S
N1230 C1233 1.350 . S
N1231 S1229 1.610 . S
N1231 C1232 1.351 . S
C1232 C1226 1.428 . S
C1232 N1231 1.351 . S
C1232 C1233 1.434 . S
C1233 C1224 1.429 . S
C1233 N1230 1.350 . S
C1233 C1232 1.434 . S
C1234 C1235 1.369 . S
C1234 C1236 1.419 . S
C1234 H1238 0.930 . S
C1235 C1234 1.369 . S
C1235 C1244 1.429 . S
C1236 C1234 1.419 . S
C1236 C1237 1.363 . S
C1236 H1239 0.929 . S
C1237 C1236 1.363 . S
C1237 C1243 1.428 . S
H1238 C1234 0.930 . S
H1239 C1236 0.929 . S
S1240 N1241 1.613 . S
S1240 N1242 1.610 . S
N1241 S1240 1.613 . S
N1241 C1244 1.350 . S
N1242 S1240 1.610 . S
N1242 C1243 1.351 . S
C1243 C1237 1.428 . S
C1243 N1242 1.351 . S
C1243 C1244 1.434 . S
C1244 C1235 1.429 . S
C1244 N1241 1.350 . S
C1244 C1243 1.434 . S
C1245 C1246 1.369 . S
C1245 C1247 1.419 . S
C1245 H1249 0.930 . S
C1246 C1245 1.369 . S
C1246 C1255 1.429 . S
C1247 C1245 1.419 . S
C1247 C1248 1.363 . S
C1247 H1250 0.929 . S
C1248 C1247 1.363 . S
C1248 C1254 1.428 . S
H1249 C1245 0.930 . S
H1250 C1247 0.929 . S
S1251 N1252 1.613 . S
S1251 N1253 1.610 . S
N1252 S1251 1.613 . S
N1252 C1255 1.350 . S
N1253 S1251 1.610 . S
N1253 C1254 1.351 . S
C1254 C1248 1.428 . S
C1254 N1253 1.351 . S
C1254 C1255 1.434 . S
C1255 C1246 1.429 . S
C1255 N1252 1.350 . S
C1255 C1254 1.434 . S
C1256 C1257 1.369 . S
C1256 C1258 1.419 . S
C1256 H1260 0.930 . S
C1257 C1256 1.369 . S
C1257 C1266 1.429 1_545 S
C1258 C1256 1.419 . S
C1258 C1259 1.363 1_545 S
C1258 H1261 0.929 . S
C1259 C1258 1.363 1_565 S
C1259 C1265 1.428 . S
H1260 C1256 0.930 . S
H1261 C1258 0.929 . S
S1262 N1263 1.613 . S
S1262 N1264 1.610 . S
N1263 S1262 1.613 . S
N1263 C1266 1.350 . S
N1264 S1262 1.610 . S
N1264 C1265 1.351 . S
C1265 C1259 1.428 . S
C1265 N1264 1.351 . S
C1265 C1266 1.434 . S
C1266 C1257 1.429 1_565 S
C1266 N1263 1.350 . S
C1266 C1265 1.434 . S
C1267 C1268 1.369 . S
C1267 C1269 1.419 . S
C1267 H1271 0.930 . S
C1268 C1267 1.369 . S
C1268 C1277 1.429 . S
C1269 C1267 1.419 . S
C1269 C1270 1.363 . S
C1269 H1272 0.929 . S
C1270 C1269 1.363 . S
C1270 C1276 1.428 . S
H1271 C1267 0.930 . S
H1272 C1269 0.929 . S
S1273 N1274 1.613 . S
S1273 N1275 1.610 . S
N1274 S1273 1.613 . S
N1274 C1277 1.350 . S
N1275 S1273 1.610 . S
N1275 C1276 1.351 . S
C1276 C1270 1.428 . S
C1276 N1275 1.351 . S
C1276 C1277 1.434 . S
C1277 C1268 1.429 . S
C1277 N1274 1.350 . S
C1277 C1276 1.434 . S
C1278 C1279 1.369 . S
C1278 C1280 1.419 . S
C1278 H1282 0.930 . S
C1279 C1278 1.369 . S
C1279 C1288 1.429 . S
C1280 C1278 1.419 . S
C1280 C1281 1.363 . S
C1280 H1283 0.929 . S
C1281 C1280 1.363 . S
C1281 C1287 1.428 . S
H1282 C1278 0.930 . S
H1283 C1280 0.929 . S
S1284 N1285 1.613 . S
S1284 N1286 1.610 . S
N1285 S1284 1.613 . S
N1285 C1288 1.350 . S
N1286 S1284 1.610 . S
N1286 C1287 1.351 . S
C1287 C1281 1.428 . S
C1287 N1286 1.351 . S
C1287 C1288 1.434 . S
C1288 C1279 1.429 . S
C1288 N1285 1.350 . S
C1288 C1287 1.434 . S
C1289 C1290 1.369 1_565 S
C1289 C1291 1.419 . S
C1289 H1293 0.930 . S
C1290 C1289 1.369 1_545 S
C1290 C1299 1.429 . S
C1291 C1289 1.419 . S
C1291 C1292 1.363 . S
C1291 H1294 0.929 . S
C1292 C1291 1.363 . S
C1292 C1298 1.428 1_565 S
H1293 C1289 0.930 . S
H1294 C1291 0.929 . S
S1295 N1296 1.613 . S
S1295 N1297 1.610 . S
N1296 S1295 1.613 . S
N1296 C1299 1.350 . S
N1297 S1295 1.610 . S
N1297 C1298 1.351 . S
C1298 C1292 1.428 1_545 S
C1298 N1297 1.351 . S
C1298 C1299 1.434 . S
C1299 C1290 1.429 . S
C1299 N1296 1.350 . S
C1299 C1298 1.434 . S
C1300 C1301 1.369 . S
C1300 C1302 1.419 . S
C1300 H1304 0.930 . S
C1301 C1300 1.369 . S
C1301 C1310 1.429 1_565 S
C1302 C1300 1.419 . S
C1302 C1303 1.363 1_565 S
C1302 H1305 0.929 . S
C1303 C1302 1.363 1_545 S
C1303 C1309 1.428 . S
H1304 C1300 0.930 . S
H1305 C1302 0.929 . S
S1306 N1307 1.613 . S
S1306 N1308 1.610 . S
N1307 S1306 1.613 . S
N1307 C1310 1.350 . S
N1308 S1306 1.610 . S
N1308 C1309 1.351 . S
C1309 C1303 1.428 . S
C1309 N1308 1.351 . S
C1309 C1310 1.434 . S
C1310 C1301 1.429 1_545 S
C1310 N1307 1.350 . S
C1310 C1309 1.434 . S
C1311 C1312 1.369 . S
C1311 C1313 1.419 . S
C1311 H1315 0.930 . S
C1312 C1311 1.369 . S
C1312 C1321 1.429 . S
C1313 C1311 1.419 . S
C1313 C1314 1.363 . S
C1313 H1316 0.929 . S
C1314 C1313 1.363 . S
C1314 C1320 1.428 . S
H1315 C1311 0.930 . S
H1316 C1313 0.929 . S
S1317 N1318 1.613 . S
S1317 N1319 1.610 . S
N1318 S1317 1.613 . S
N1318 C1321 1.350 . S
N1319 S1317 1.610 . S
N1319 C1320 1.351 . S
C1320 C1314 1.428 . S
C1320 N1319 1.351 . S
C1320 C1321 1.434 . S
C1321 C1312 1.429 . S
C1321 N1318 1.350 . S
C1321 C1320 1.434 . S
C1322 C1323 1.369 . S
C1322 C1324 1.419 . S
C1322 H1326 0.930 . S
C1323 C1322 1.369 . S
C1323 C1332 1.429 . S
C1324 C1322 1.419 . S
C1324 C1325 1.363 . S
C1324 H1327 0.929 . S
C1325 C1324 1.363 . S
C1325 C1331 1.428 . S
H1326 C1322 0.930 . S
H1327 C1324 0.929 . S
S1328 N1329 1.613 . S
S1328 N1330 1.610 . S
N1329 S1328 1.613 . S
N1329 C1332 1.350 . S
N1330 S1328 1.610 . S
N1330 C1331 1.351 . S
C1331 C1325 1.428 . S
C1331 N1330 1.351 . S
C1331 C1332 1.434 . S
C1332 C1323 1.429 . S
C1332 N1329 1.350 . S
C1332 C1331 1.434 . S
C1333 C1334 1.369 1_545 S
C1333 C1335 1.419 . S
C1333 H1337 0.930 . S
C1334 C1333 1.369 1_565 S
C1334 C1343 1.429 . S
C1335 C1333 1.419 . S
C1335 C1336 1.363 . S
C1335 H1338 0.929 . S
C1336 C1335 1.363 . S
C1336 C1342 1.428 1_545 S
H1337 C1333 0.930 . S
H1338 C1335 0.929 . S
S1339 N1340 1.613 . S
S1339 N1341 1.610 . S
N1340 S1339 1.613 . S
N1340 C1343 1.350 . S
N1341 S1339 1.610 . S
N1341 C1342 1.351 . S
C1342 C1336 1.428 1_565 S
C1342 N1341 1.351 . S
C1342 C1343 1.434 . S
C1343 C1334 1.429 . S
C1343 N1340 1.350 . S
C1343 C1342 1.434 . S
C1344 C1345 1.369 . S
C1344 C1346 1.419 1_455 S
C1344 H1348 0.930 . S
C1345 C1344 1.369 . S
C1345 C1354 1.429 . S
C1346 C1344 1.419 1_655 S
C1346 C1347 1.363 . S
C1346 H1349 0.929 . S
C1347 C1346 1.363 . S
C1347 C1353 1.428 . S
H1348 C1344 0.930 . S
H1349 C1346 0.929 . S
S1350 N1351 1.613 . S
S1350 N1352 1.610 1_455 S
N1351 S1350 1.613 . S
N1351 C1354 1.350 . S
N1352 S1350 1.610 1_655 S
N1352 C1353 1.351 . S
C1353 C1347 1.428 . S
C1353 N1352 1.351 . S
C1353 C1354 1.434 1_655 S
C1354 C1345 1.429 . S
C1354 N1351 1.350 . S
C1354 C1353 1.434 1_455 S
C1355 C1356 1.369 . S
C1355 C1357 1.419 . S
C1355 H1359 0.930 . S
C1356 C1355 1.369 . S
C1356 C1365 1.429 . S
C1357 C1355 1.419 . S
C1357 C1358 1.363 . S
C1357 H1360 0.929 . S
C1358 C1357 1.363 . S
C1358 C1364 1.428 . S
H1359 C1355 0.930 . S
H1360 C1357 0.929 . S
S1361 N1362 1.613 . S
S1361 N1363 1.610 . S
N1362 S1361 1.613 . S
N1362 C1365 1.350 . S
N1363 S1361 1.610 . S
N1363 C1364 1.351 . S
C1364 C1358 1.428 . S
C1364 N1363 1.351 . S
C1364 C1365 1.434 . S
C1365 C1356 1.429 . S
C1365 N1362 1.350 . S
C1365 C1364 1.434 . S
C1366 C1367 1.369 . S
C1366 C1368 1.419 1_655 S
C1366 H1370 0.930 . S
C1367 C1366 1.369 . S
C1367 C1376 1.429 . S
C1368 C1366 1.419 1_455 S
C1368 C1369 1.363 . S
C1368 H1371 0.929 . S
C1369 C1368 1.363 . S
C1369 C1375 1.428 . S
H1370 C1366 0.930 . S
H1371 C1368 0.929 . S
S1372 N1373 1.613 1_455 S
S1372 N1374 1.610 . S
N1373 S1372 1.613 1_655 S
N1373 C1376 1.350 . S
N1374 S1372 1.610 . S
N1374 C1375 1.351 . S
C1375 C1369 1.428 . S
C1375 N1374 1.351 . S
C1375 C1376 1.434 1_455 S
C1376 C1367 1.429 . S
C1376 N1373 1.350 . S
C1376 C1375 1.434 1_655 S
C1377 C1378 1.369 . S
C1377 C1379 1.419 . S
C1377 H1381 0.930 . S
C1378 C1377 1.369 . S
C1378 C1387 1.429 . S
C1379 C1377 1.419 . S
C1379 C1380 1.363 . S
C1379 H1382 0.929 . S
C1380 C1379 1.363 . S
C1380 C1386 1.428 . S
H1381 C1377 0.930 . S
H1382 C1379 0.929 . S
S1383 N1384 1.613 . S
S1383 N1385 1.610 . S
N1384 S1383 1.613 . S
N1384 C1387 1.350 . S
N1385 S1383 1.610 . S
N1385 C1386 1.351 . S
C1386 C1380 1.428 . S
C1386 N1385 1.351 . S
C1386 C1387 1.434 . S
C1387 C1378 1.429 . S
C1387 N1384 1.350 . S
C1387 C1386 1.434 . S
C1388 C1389 1.369 . S
C1388 C1390 1.419 1_655 S
C1388 H1392 0.930 . S
C1389 C1388 1.369 . S
C1389 C1398 1.429 . S
C1390 C1388 1.419 1_455 S
C1390 C1391 1.363 . S
C1390 H1393 0.929 . S
C1391 C1390 1.363 . S
C1391 C1397 1.428 . S
H1392 C1388 0.930 . S
H1393 C1390 0.929 . S
S1394 N1395 1.613 1_455 S
S1394 N1396 1.610 . S
N1395 S1394 1.613 1_655 S
N1395 C1398 1.350 . S
N1396 S1394 1.610 . S
N1396 C1397 1.351 . S
C1397 C1391 1.428 . S
C1397 N1396 1.351 . S
C1397 C1398 1.434 1_455 S
C1398 C1389 1.429 . S
C1398 N1395 1.350 . S
C1398 C1397 1.434 1_655 S
C1399 C1400 1.369 . S
C1399 C1401 1.419 . S
C1399 H1403 0.930 . S
C1400 C1399 1.369 . S
C1400 C1409 1.429 . S
C1401 C1399 1.419 . S
C1401 C1402 1.363 . S
C1401 H1404 0.929 . S
C1402 C1401 1.363 . S
C1402 C1408 1.428 . S
H1403 C1399 0.930 . S
H1404 C1401 0.929 . S
S1405 N1406 1.613 . S
S1405 N1407 1.610 . S
N1406 S1405 1.613 . S
N1406 C1409 1.350 . S
N1407 S1405 1.610 . S
N1407 C1408 1.351 . S
C1408 C1402 1.428 . S
C1408 N1407 1.351 . S
C1408 C1409 1.434 . S
C1409 C1400 1.429 . S
C1409 N1406 1.350 . S
C1409 C1408 1.434 . S
C1410 C1411 1.369 . S
C1410 C1412 1.419 1_455 S
C1410 H1414 0.930 . S
C1411 C1410 1.369 . S
C1411 C1420 1.429 . S
C1412 C1410 1.419 1_655 S
C1412 C1413 1.363 . S
C1412 H1415 0.929 . S
C1413 C1412 1.363 . S
C1413 C1419 1.428 . S
H1414 C1410 0.930 . S
H1415 C1412 0.929 . S
S1416 N1417 1.613 . S
S1416 N1418 1.610 1_455 S
N1417 S1416 1.613 . S
N1417 C1420 1.350 . S
N1418 S1416 1.610 1_655 S
N1418 C1419 1.351 . S
C1419 C1413 1.428 . S
C1419 N1418 1.351 . S
C1419 C1420 1.434 1_655 S
C1420 C1411 1.429 . S
C1420 N1417 1.350 . S
C1420 C1419 1.434 1_455 S
C1421 C1422 1.369 . S
C1421 C1423 1.419 . S
C1421 H1425 0.930 . S
C1422 C1421 1.369 . S
C1422 C1431 1.429 . S
C1423 C1421 1.419 . S
C1423 C1424 1.363 . S
C1423 H1426 0.929 . S
C1424 C1423 1.363 . S
C1424 C1430 1.428 . S
H1425 C1421 0.930 . S
H1426 C1423 0.929 . S
S1427 N1428 1.613 . S
S1427 N1429 1.610 . S
N1428 S1427 1.613 . S
N1428 C1431 1.350 . S
N1429 S1427 1.610 . S
N1429 C1430 1.351 . S
C1430 C1424 1.428 . S
C1430 N1429 1.351 . S
C1430 C1431 1.434 . S
C1431 C1422 1.429 . S
C1431 N1428 1.350 . S
C1431 C1430 1.434 . S
C1432 C1433 1.369 1_565 S
C1432 C1434 1.419 1_655 S
C1432 H1436 0.930 . S
C1433 C1432 1.369 1_545 S
C1433 C1442 1.429 . S
C1434 C1432 1.419 1_455 S
C1434 C1435 1.363 . S
C1434 H1437 0.929 . S
C1435 C1434 1.363 . S
C1435 C1441 1.417 1_565 S
H1436 C1432 0.930 . S
H1437 C1434 0.929 . S
S1438 N1439 1.613 1_455 S
S1438 N1440 1.610 . S
N1439 S1438 1.613 1_655 S
N1439 C1442 1.350 . S
N1440 S1438 1.610 . S
N1440 C1441 1.354 . S
C1441 C1435 1.417 1_545 S
C1441 N1440 1.354 . S
C1441 C1442 1.445 1_455 S
C1442 C1433 1.429 . S
C1442 N1439 1.350 . S
C1442 C1441 1.445 1_655 S
C1443 C1444 1.369 . S
C1443 C1445 1.419 . S
C1443 H1447 0.930 . S
C1444 C1443 1.369 . S
C1444 C1453 1.429 . S
C1445 C1443 1.419 . S
C1445 C1446 1.363 . S
C1445 H1448 0.929 . S
C1446 C1445 1.363 . S
C1446 C1452 1.428 . S
H1447 C1443 0.930 . S
H1448 C1445 0.929 . S
S1449 N1450 1.613 . S
S1449 N1451 1.610 . S
N1450 S1449 1.613 . S
N1450 C1453 1.350 . S
N1451 S1449 1.610 . S
N1451 C1452 1.351 . S
C1452 C1446 1.428 . S
C1452 N1451 1.351 . S
C1452 C1453 1.434 . S
C1453 C1444 1.429 . S
C1453 N1450 1.350 . S
C1453 C1452 1.434 . S
C1454 C1455 1.369 . S
C1454 C1456 1.419 1_655 S
C1454 H1458 0.930 . S
C1455 C1454 1.369 . S
C1455 C1464 1.429 . S
C1456 C1454 1.419 1_455 S
C1456 C1457 1.363 . S
C1456 H1459 0.929 . S
C1457 C1456 1.363 . S
C1457 C1463 1.428 . S
H1458 C1454 0.930 . S
H1459 C1456 0.929 . S
S1460 N1461 1.613 . S
S1460 N1462 1.610 1_655 S
N1461 S1460 1.613 . S
N1461 C1464 1.350 . S
N1462 S1460 1.610 1_455 S
N1462 C1463 1.351 . S
C1463 C1457 1.428 . S
C1463 N1462 1.351 . S
C1463 C1464 1.434 1_455 S
C1464 C1455 1.429 . S
C1464 N1461 1.350 . S
C1464 C1463 1.434 1_655 S
C1465 C1466 1.369 . S
C1465 C1467 1.419 . S
C1465 H1469 0.930 . S
C1466 C1465 1.369 . S
C1466 C1475 1.429 1_545 S
C1467 C1465 1.419 . S
C1467 C1468 1.363 1_545 S
C1467 H1470 0.929 . S
C1468 C1467 1.363 1_565 S
C1468 C1474 1.428 . S
H1469 C1465 0.930 . S
H1470 C1467 0.929 . S
S1471 N1472 1.613 . S
S1471 N1473 1.610 . S
N1472 S1471 1.613 . S
N1472 C1475 1.350 . S
N1473 S1471 1.610 . S
N1473 C1474 1.351 . S
C1474 C1468 1.428 . S
C1474 N1473 1.351 . S
C1474 C1475 1.434 . S
C1475 C1466 1.429 1_565 S
C1475 N1472 1.350 . S
C1475 C1474 1.434 . S
C1476 C1477 1.369 1_565 S
C1476 C1478 1.419 1_655 S
C1476 H1480 0.930 . S
C1477 C1476 1.369 1_545 S
C1477 C1486 1.429 . S
C1478 C1476 1.419 1_455 S
C1478 C1479 1.363 . S
C1478 H1481 0.929 . S
C1479 C1478 1.363 . S
C1479 C1485 1.428 1_565 S
H1480 C1476 0.930 . S
H1481 C1478 0.929 . S
S1482 N1483 1.613 1_455 S
S1482 N1484 1.610 . S
N1483 S1482 1.613 1_655 S
N1483 C1486 1.350 . S
N1484 S1482 1.610 . S
N1484 C1485 1.351 . S
C1485 C1479 1.428 1_545 S
C1485 N1484 1.351 . S
C1485 C1486 1.434 1_455 S
C1486 C1477 1.429 . S
C1486 N1483 1.350 . S
C1486 C1485 1.434 1_655 S
C1487 C1488 1.369 . S
C1487 C1489 1.419 . S
C1487 H1491 0.930 . S
C1488 C1487 1.369 . S
C1488 C1497 1.429 . S
C1489 C1487 1.419 . S
C1489 C1490 1.363 . S
C1489 H1492 0.929 . S
C1490 C1489 1.363 . S
C1490 C1496 1.428 . S
H1491 C1487 0.930 . S
H1492 C1489 0.929 . S
S1493 N1494 1.613 . S
S1493 N1495 1.610 . S
N1494 S1493 1.613 . S
N1494 C1497 1.350 . S
N1495 S1493 1.610 . S
N1495 C1496 1.351 . S
C1496 C1490 1.428 . S
C1496 N1495 1.351 . S
C1496 C1497 1.434 . S
C1497 C1488 1.429 . S
C1497 N1494 1.350 . S
C1497 C1496 1.434 . S
C1498 C1499 1.369 . S
C1498 C1500 1.419 1_455 S
C1498 H1502 0.930 . S
C1499 C1498 1.369 . S
C1499 C1508 1.429 . S
C1500 C1498 1.419 1_655 S
C1500 C1501 1.363 . S
C1500 H1503 0.929 . S
C1501 C1500 1.363 . S
C1501 C1507 1.428 . S
H1502 C1498 0.930 . S
H1503 C1500 0.929 . S
S1504 N1505 1.613 . S
S1504 N1506 1.610 1_455 S
N1505 S1504 1.613 . S
N1505 C1508 1.350 . S
N1506 S1504 1.610 1_655 S
N1506 C1507 1.351 . S
C1507 C1501 1.428 . S
C1507 N1506 1.351 . S
C1507 C1508 1.434 1_655 S
C1508 C1499 1.429 . S
C1508 N1505 1.350 . S
C1508 C1507 1.434 1_455 S
C1509 C1510 1.369 . S
C1509 C1511 1.419 . S
C1509 H1513 0.930 . S
C1510 C1509 1.369 . S
C1510 C1519 1.429 1_565 S
C1511 C1509 1.419 . S
C1511 C1512 1.363 1_565 S
C1511 H1514 0.929 . S
C1512 C1511 1.363 1_545 S
C1512 C1518 1.428 . S
H1513 C1509 0.930 . S
H1514 C1511 0.929 . S
S1515 N1516 1.613 . S
S1515 N1517 1.610 . S
N1516 S1515 1.613 . S
N1516 C1519 1.350 . S
N1517 S1515 1.610 . S
N1517 C1518 1.351 . S
C1518 C1512 1.428 . S
C1518 N1517 1.351 . S
C1518 C1519 1.434 . S
C1519 C1510 1.429 1_545 S
C1519 N1516 1.350 . S
C1519 C1518 1.434 . S
C1520 C1521 1.369 . S
C1520 C1522 1.419 1_554 S
C1520 H1524 0.930 . S
C1521 C1520 1.369 . S
C1521 C1530 1.429 1_655 S
C1522 C1520 1.419 1_556 S
C1522 C1523 1.363 1_655 S
C1522 H1525 0.929 . S
C1523 C1522 1.363 1_455 S
C1523 C1529 1.428 . S
H1524 C1520 0.930 . S
H1525 C1522 0.929 . S
S1526 N1527 1.613 . S
S1526 N1528 1.610 1_554 S
N1527 S1526 1.613 . S
N1527 C1530 1.350 . S
N1528 S1526 1.610 1_556 S
N1528 C1529 1.351 . S
C1529 C1523 1.428 . S
C1529 N1528 1.351 . S
C1529 C1530 1.434 1_556 S
C1530 C1521 1.429 1_455 S
C1530 N1527 1.350 . S
C1530 C1529 1.434 1_554 S
C1531 C1532 1.369 . S
C1531 C1533 1.419 1_556 S
C1531 H1535 0.930 . S
C1532 C1531 1.369 . S
C1532 C1541 1.429 . S
C1533 C1531 1.419 1_554 S
C1533 C1534 1.363 . S
C1533 H1536 0.929 . S
C1534 C1533 1.363 . S
C1534 C1540 1.428 . S
H1535 C1531 0.930 . S
H1536 C1533 0.929 . S
S1537 N1538 1.641 . S
S1537 N1539 1.582 1_556 S
N1538 S1537 1.641 . S
N1538 C1541 1.350 . S
N1539 S1537 1.582 1_554 S
N1539 C1540 1.351 . S
C1540 C1534 1.428 . S
C1540 N1539 1.351 . S
C1540 C1541 1.434 1_554 S
C1541 C1532 1.429 . S
C1541 N1538 1.350 . S
C1541 C1540 1.434 1_556 S
C1542 C1543 1.369 . S
C1542 C1544 1.419 . S
C1542 H1546 0.930 . S
C1543 C1542 1.369 . S
C1543 C1552 1.429 1_455 S
C1544 C1542 1.419 . S
C1544 C1545 1.363 1_455 S
C1544 H1547 0.929 . S
C1545 C1544 1.363 1_655 S
C1545 C1551 1.428 . S
H1546 C1542 0.930 . S
H1547 C1544 0.929 . S
S1548 N1549 1.613 . S
S1548 N1550 1.610 . S
N1549 S1548 1.613 . S
N1549 C1552 1.350 . S
N1550 S1548 1.610 . S
N1550 C1551 1.351 . S
C1551 C1545 1.428 . S
C1551 N1550 1.351 . S
C1551 C1552 1.434 . S
C1552 C1543 1.429 1_655 S
C1552 N1549 1.350 . S
C1552 C1551 1.434 . S
C1553 C1554 1.369 . S
C1553 C1555 1.419 . S
C1553 H1557 0.930 . S
C1554 C1553 1.369 . S
C1554 C1563 1.429 . S
C1555 C1553 1.419 . S
C1555 C1556 1.363 . S
C1555 H1558 0.929 . S
C1556 C1555 1.363 . S
C1556 C1562 1.428 . S
H1557 C1553 0.930 . S
H1558 C1555 0.929 . S
S1559 N1560 1.613 . S
S1559 N1561 1.610 . S
N1560 S1559 1.613 . S
N1560 C1563 1.350 . S
N1561 S1559 1.610 . S
N1561 C1562 1.351 . S
C1562 C1556 1.428 . S
C1562 N1561 1.351 . S
C1562 C1563 1.434 . S
C1563 C1554 1.429 . S
C1563 N1560 1.350 . S
C1563 C1562 1.434 . S
C1564 C1565 1.369 . S
C1564 C1566 1.419 1_556 S
C1564 H1568 0.930 . S
C1565 C1564 1.369 . S
C1565 C1574 1.429 . S
C1566 C1564 1.419 1_554 S
C1566 C1567 1.363 . S
C1566 H1569 0.929 . S
C1567 C1566 1.363 . S
C1567 C1573 1.428 . S
H1568 C1564 0.930 . S
H1569 C1566 0.929 . S
S1570 N1571 1.613 1_554 S
S1570 N1572 1.610 . S
N1571 S1570 1.613 1_556 S
N1571 C1574 1.350 . S
N1572 S1570 1.610 . S
N1572 C1573 1.351 . S
C1573 C1567 1.428 . S
C1573 N1572 1.351 . S
C1573 C1574 1.434 1_554 S
C1574 C1565 1.429 . S
C1574 N1571 1.350 . S
C1574 C1573 1.434 1_556 S
C1575 C1576 1.369 . S
C1575 C1577 1.419 . S
C1575 H1579 0.930 . S
C1576 C1575 1.369 . S
C1576 C1585 1.429 1_455 S
C1577 C1575 1.419 . S
C1577 C1578 1.363 1_455 S
C1577 H1580 0.929 . S
C1578 C1577 1.363 1_655 S
C1578 C1584 1.428 . S
H1579 C1575 0.930 . S
H1580 C1577 0.929 . S
S1581 N1582 1.613 . S
S1581 N1583 1.610 . S
N1582 S1581 1.613 . S
N1582 C1585 1.350 . S
N1583 S1581 1.610 . S
N1583 C1584 1.351 . S
C1584 C1578 1.428 . S
C1584 N1583 1.351 . S
C1584 C1585 1.434 . S
C1585 C1576 1.429 1_655 S
C1585 N1582 1.350 . S
C1585 C1584 1.434 . S
C1586 C1587 1.369 . S
C1586 C1588 1.419 . S
C1586 H1590 0.930 . S
C1587 C1586 1.369 . S
C1587 C1596 1.429 . S
C1588 C1586 1.419 . S
C1588 C1589 1.363 . S
C1588 H1591 0.929 . S
C1589 C1588 1.363 . S
C1589 C1595 1.428 . S
H1590 C1586 0.930 . S
H1591 C1588 0.929 . S
S1592 N1593 1.613 . S
S1592 N1594 1.610 . S
N1593 S1592 1.613 . S
N1593 C1596 1.350 . S
N1594 S1592 1.610 . S
N1594 C1595 1.351 . S
C1595 C1589 1.428 . S
C1595 N1594 1.351 . S
C1595 C1596 1.434 . S
C1596 C1587 1.429 . S
C1596 N1593 1.350 . S
C1596 C1595 1.434 . S
C1597 C1598 1.367 1_445 S
C1597 C1599 1.419 . S
C1597 H1601 0.930 . S
C1598 C1597 1.367 1_665 S
C1598 C1607 1.431 . S
C1599 C1597 1.419 . S
C1599 C1600 1.363 . S
C1599 H1602 0.929 . S
C1600 C1599 1.363 . S
C1600 C1606 1.428 1_445 S
H1601 C1597 0.930 . S
H1602 C1599 0.929 . S
S1603 N1604 1.613 . S
S1603 N1605 1.610 . S
N1604 S1603 1.613 . S
N1604 C1607 1.350 . S
N1605 S1603 1.610 . S
N1605 C1606 1.351 . S
C1606 C1600 1.428 1_665 S
C1606 N1605 1.351 . S
C1606 C1607 1.434 . S
C1607 C1598 1.431 . S
C1607 N1604 1.350 . S
C1607 C1606 1.434 . S
C1608 C1609 1.369 . S
C1608 C1610 1.419 . S
C1608 H1612 0.930 . S
C1609 C1608 1.369 . S
C1609 C1618 1.429 . S
C1610 C1608 1.419 . S
C1610 C1611 1.363 . S
C1610 H1613 0.929 . S
C1611 C1610 1.363 . S
C1611 C1617 1.428 . S
H1612 C1608 0.930 . S
H1613 C1610 0.929 . S
S1614 N1615 1.613 . S
S1614 N1616 1.610 . S
N1615 S1614 1.613 . S
N1615 C1618 1.350 . S
N1616 S1614 1.610 . S
N1616 C1617 1.351 . S
C1617 C1611 1.428 . S
C1617 N1616 1.351 . S
C1617 C1618 1.434 . S
C1618 C1609 1.429 . S
C1618 N1615 1.350 . S
C1618 C1617 1.434 . S
C1619 C1620 1.342 1_565 S
C1619 C1621 1.419 . S
C1619 H1623 0.930 . S
C1620 C1619 1.342 1_545 S
C1620 C1629 1.456 . S
C1621 C1619 1.419 . S
C1621 C1622 1.361 . S
C1621 H1624 0.929 . S
C1622 C1621 1.361 . S
C1622 C1628 1.431 1_565 S
H1623 C1619 0.930 . S
H1624 C1621 0.929 . S
S1625 N1626 1.613 . S
S1625 N1627 1.610 . S
N1626 S1625 1.613 . S
N1626 C1629 1.350 . S
N1627 S1625 1.610 . S
N1627 C1628 1.351 . S
C1628 C1622 1.431 1_545 S
C1628 N1627 1.351 . S
C1628 C1629 1.434 . S
C1629 C1620 1.456 . S
C1629 N1626 1.350 . S
C1629 C1628 1.434 . S
C1630 C1631 1.369 . S
C1630 C1632 1.419 . S
C1630 H1634 0.930 . S
C1631 C1630 1.369 . S
C1631 C1640 1.429 . S
C1632 C1630 1.419 . S
C1632 C1633 1.363 . S
C1632 H1635 0.929 . S
C1633 C1632 1.363 . S
C1633 C1639 1.428 . S
H1634 C1630 0.930 . S
H1635 C1632 0.929 . S
S1636 N1637 1.613 . S
S1636 N1638 1.610 . S
N1637 S1636 1.613 . S
N1637 C1640 1.350 . S
N1638 S1636 1.610 . S
N1638 C1639 1.351 . S
C1639 C1633 1.428 . S
C1639 N1638 1.351 . S
C1639 C1640 1.434 . S
C1640 C1631 1.429 . S
C1640 N1637 1.350 . S
C1640 C1639 1.434 . S
C1641 C1642 1.338 1_545 S
C1641 C1643 1.419 . S
C1641 H1645 0.930 . S
C1642 C1641 1.338 1_565 S
C1642 C1651 1.460 . S
C1643 C1641 1.419 . S
C1643 C1644 1.360 . S
C1643 H1646 0.929 . S
C1644 C1643 1.360 . S
C1644 C1650 1.431 1_545 S
H1645 C1641 0.930 . S
H1646 C1643 0.929 . S
S1647 N1648 1.613 . S
S1647 N1649 1.610 . S
N1648 S1647 1.613 . S
N1648 C1651 1.350 . S
N1649 S1647 1.610 . S
N1649 C1650 1.351 . S
C1650 C1644 1.431 1_565 S
C1650 N1649 1.351 . S
C1650 C1651 1.434 . S
C1651 C1642 1.460 . S
C1651 N1648 1.350 . S
C1651 C1650 1.434 . S
C1652 C1653 1.369 . S
C1652 C1654 1.419 . S
C1652 H1656 0.930 . S
C1653 C1652 1.369 . S
C1653 C1662 1.429 . S
C1654 C1652 1.419 . S
C1654 C1655 1.363 . S
C1654 H1657 0.929 . S
C1655 C1654 1.363 . S
C1655 C1661 1.428 . S
H1656 C1652 0.930 . S
H1657 C1654 0.929 . S
S1658 N1659 1.613 . S
S1658 N1660 1.610 . S
N1659 S1658 1.613 . S
N1659 C1662 1.350 . S
N1660 S1658 1.610 . S
N1660 C1661 1.351 . S
C1661 C1655 1.428 . S
C1661 N1660 1.351 . S
C1661 C1662 1.434 . S
C1662 C1653 1.429 . S
C1662 N1659 1.350 . S
C1662 C1661 1.434 . S
C1663 C1664 1.369 . S
C1663 C1665 1.419 . S
C1663 H1667 0.930 . S
C1664 C1663 1.369 . S
C1664 C1673 1.429 . S
C1665 C1663 1.419 . S
C1665 C1666 1.363 . S
C1665 H1668 0.929 . S
C1666 C1665 1.363 . S
C1666 C1672 1.428 . S
H1667 C1663 0.930 . S
H1668 C1665 0.929 . S
S1669 N1670 1.613 . S
S1669 N1671 1.610 . S
N1670 S1669 1.613 . S
N1670 C1673 1.350 . S
N1671 S1669 1.610 . S
N1671 C1672 1.351 . S
C1672 C1666 1.428 . S
C1672 N1671 1.351 . S
C1672 C1673 1.434 . S
C1673 C1664 1.429 . S
C1673 N1670 1.350 . S
C1673 C1672 1.434 . S
C1674 C1675 1.369 . S
C1674 C1676 1.419 . S
C1674 H1678 0.930 . S
C1675 C1674 1.369 . S
C1675 C1684 1.429 . S
C1676 C1674 1.419 . S
C1676 C1677 1.363 . S
C1676 H1679 0.929 . S
C1677 C1676 1.363 . S
C1677 C1683 1.428 . S
H1678 C1674 0.930 . S
H1679 C1676 0.929 . S
S1680 N1681 1.613 . S
S1680 N1682 1.610 . S
N1681 S1680 1.613 . S
N1681 C1684 1.350 . S
N1682 S1680 1.610 . S
N1682 C1683 1.351 . S
C1683 C1677 1.428 . S
C1683 N1682 1.351 . S
C1683 C1684 1.434 . S
C1684 C1675 1.429 . S
C1684 N1681 1.350 . S
C1684 C1683 1.434 . S
C1685 C1686 1.372 . S
C1685 C1687 1.419 1_554 S
C1685 H1689 0.930 . S
C1686 C1685 1.372 . S
C1686 C1695 1.426 1_565 S
C1687 C1685 1.419 1_556 S
C1687 C1688 1.354 1_565 S
C1687 H1690 0.929 . S
C1688 C1687 1.354 1_545 S
C1688 C1694 1.438 . S
H1689 C1685 0.930 . S
H1690 C1687 0.929 . S
S1691 N1692 1.613 . S
S1691 N1693 1.610 1_554 S
N1692 S1691 1.613 . S
N1692 C1695 1.350 . S
N1693 S1691 1.610 1_556 S
N1693 C1694 1.351 . S
C1694 C1688 1.438 . S
C1694 N1693 1.351 . S
C1694 C1695 1.434 1_556 S
C1695 C1686 1.426 1_545 S
C1695 N1692 1.350 . S
C1695 C1694 1.434 1_554 S
C641 C16 1.654 . S
C643 C516 1.655 . S
C652 C496 1.646 . S
C654 C36 1.632 . S
C663 C556 1.645 . S
C665 C56 1.634 . S
C674 C76 1.657 . S
C676 C536 1.651 . S
C685 C86 1.649 . S
C687 C586 1.659 . S
C696 C106 1.640 . S
C698 C566 1.637 . S
C707 C126 1.643 . S
C709 C626 1.635 . S
C718 C606 1.656 . S
C720 C146 1.653 . S
C729 C176 1.641 . S
C731 C356 1.636 . S
C740 C196 1.655 . S
C742 C336 1.653 . S
C751 C216 1.651 . S
C753 C396 1.656 . S
C762 C376 1.638 . S
C764 C236 1.639 . S
C773 C246 1.636 . S
C775 C426 1.641 . S
C784 C266 1.650 . S
C786 C406 1.658 . S
C795 C466 1.655 . S
C797 C286 1.654 . S
C806 C306 1.645 . S
C808 C446 1.633 . S
C817 C1 1.495 . S
C819 C61 1.495 . S
C828 C21 1.499 . S
C830 C41 1.498 . S
C839 C149 1.493 . S
C841 C89 1.497 . S
C850 C129 1.496 . S
C852 C109 1.498 . S
C861 C161 1.491 1_545 S
C863 C221 1.494 1_545 S
C872 C181 1.492 . S
C874 C201 1.492 . S
C883 C249 1.491 1_565 S
C885 C309 1.494 1_565 S
C894 C289 1.495 . S
C896 C269 1.492 . S
C905 C321 1.495 . S
C907 C381 1.495 . S
C916 C341 1.496 . S
C918 C361 1.499 . S
C927 C469 1.494 . S
C929 C409 1.496 . S
C938 C429 1.498 . S
C940 C449 1.498 . S
C949 C541 1.493 1_545 S
C951 C481 1.492 1_545 S
C960 C501 1.495 . S
C962 C521 1.493 . S
C971 C629 1.494 1_565 S
C973 C569 1.491 1_565 S
C982 C609 1.495 . S
C984 C589 1.491 . S
C993 C26 1.587 . S
C995 C6 1.582 . S
C1004 C46 1.588 . S
C1006 C66 1.582 . S
C1015 C116 1.585 . S
C1017 C96 1.585 . S
C1026 C156 1.588 . S
C1028 C136 1.581 . S
C1037 C166 1.590 . S
C1039 C186 1.608 . S
C1048 C206 1.596 . S
C1050 C226 1.604 . S
C1059 C276 1.599 . S
C1061 C256 1.600 . S
C1070 C296 1.604 . S
C1072 C316 1.597 . S
C1081 C326 1.590 . S
C1083 C346 1.580 . S
C1092 C386 1.579 . S
C1094 C366 1.589 . S
C1103 C416 1.578 . S
C1105 C436 1.589 . S
C1114 C456 1.587 . S
C1116 C476 1.582 . S
C1125 C486 1.599 . S
C1127 C506 1.602 . S
C1136 C526 1.602 . S
C1138 C546 1.600 . S
C1147 C596 1.596 . S
C1149 C576 1.604 . S
C1158 C616 1.598 . S
C1160 C636 1.603 . S
C1169 C8 1.856 . S
C1171 C19 1.853 . S
C1180 C28 1.857 . S
C1182 C39 1.847 1_655 S
C1191 C48 1.853 . S
C1193 C59 1.855 . S
C1202 C79 1.854 1_655 S
C1204 C68 1.851 . S
C1213 C88 1.856 . S
C1215 C99 1.853 . S
C1224 C119 1.851 . S
C1226 C108 1.852 1_455 S
C1235 C128 1.849 . S
C1237 C139 1.858 . S
C1246 C148 1.851 1_455 S
C1248 C159 1.855 . S
C1257 C179 1.851 . S
C1259 C168 1.857 . S
C1268 C188 1.854 . S
C1270 C199 1.855 1_655 S
C1279 C208 1.856 . S
C1281 C219 1.854 . S
C1290 C239 1.857 1_655 S
C1292 C228 1.852 . S
C1301 C248 1.852 . S
C1303 C259 1.856 . S
C1312 C279 1.858 . S
C1314 C268 1.851 1_455 S
C1323 C299 1.852 . S
C1325 C288 1.857 . S
C1334 C308 1.861 1_455 S
C1336 C319 1.850 . S
C1345 C328 1.858 . S
C1347 C339 1.852 . S
C1356 C359 1.852 . S
C1358 C348 1.856 1_455 S
C1367 C379 1.860 . S
C1369 C368 1.850 . S
C1378 C388 1.857 1_455 S
C1380 C399 1.852 . S
C1389 C419 1.857 . S
C1391 C408 1.852 . S
C1400 C439 1.859 1_655 S
C1402 C428 1.850 . S
C1411 C448 1.849 . S
C1413 C459 1.859 . S
C1422 C479 1.857 1_655 S
C1424 C468 1.852 . S
C1433 C499 1.851 . S
C1435 C488 1.857 . S
C1444 C508 1.849 1_455 S
C1446 C519 1.859 . S
C1455 C539 1.852 . S
C1457 C528 1.857 . S
C1466 C559 1.848 . S
C1468 C548 1.859 1_455 S
C1477 C579 1.860 . S
C1479 C568 1.850 . S
C1488 C599 1.860 1_655 S
C1490 C588 1.850 . S
C1499 C608 1.849 . S
C1501 C619 1.859 . S
C1510 C628 1.851 . S
C1512 C639 1.857 1_655 S
C1521 C9 1.520 . S
C1523 C81 1.529 . S
C1532 C581 1.527 . S
C1534 C29 1.523 . S
C1543 C281 1.525 . S
C1545 C49 1.526 . S
C1554 C69 1.527 . S
C1556 C461 1.523 . S
C1565 C101 1.526 . S
C1567 C509 1.524 . S
C1576 C121 1.520 . S
C1578 C209 1.529 . S
C1587 C141 1.523 . S
C1589 C389 1.526 . S
C1598 C169 1.526 1_565 S
C1600 C241 1.518 1_545 S
C1609 C421 1.526 . S
C1611 C189 1.524 . S
C1620 C621 1.521 1_545 S
C1622 C229 1.523 1_565 S
C1631 C261 1.529 . S
C1633 C349 1.522 . S
C1642 C549 1.520 1_565 S
C1644 C301 1.523 1_545 S
C1653 C329 1.523 . S
C1655 C401 1.526 . S
C1664 C601 1.522 . S
C1666 C369 1.528 . S
C1675 C441 1.523 . S
C1677 C529 1.526 . S
C1686 C489 1.519 1_565 S
C1688 C561 1.524 1_545 S
