# Generated by pormake.
# Topology reo, (8)-cn, num edge types: 1
# Building blocks:
#     Node 0, Type 0, BuildingBlock: TAGTUT_clean_sbu_3, # of connection points: 8
#     Node 1, Type 0, BuildingBlock: TAGTUT_clean_sbu_3, # of connection points: 8
#     Node 2, Type 0, BuildingBlock: TAGTUT_clean_sbu_3, # of connection points: 8
#     Edge 3, Type (0, 0), BuildingBlock: XUDNAN_clean_linker_2, # of connection points: 2
#     Edge 4, Type (0, 0), BuildingBlock: XUDNAN_clean_linker_2, # of connection points: 2
#     Edge 5, Type (0, 0), BuildingBlock: XUDNAN_clean_linker_2, # of connection points: 2
#     Edge 6, Type (0, 0), BuildingBlock: XUDNAN_clean_linker_2, # of connection points: 2
#     Edge 7, Type (0, 0), BuildingBlock: XUDNAN_clean_linker_2, # of connection points: 2
#     Edge 8, Type (0, 0), BuildingBlock: XUDNAN_clean_linker_2, # of connection points: 2
#     Edge 9, Type (0, 0), BuildingBlock: XUDNAN_clean_linker_2, # of connection points: 2
#     Edge 10, Type (0, 0), BuildingBlock: XUDNAN_clean_linker_2, # of connection points: 2
#     Edge 11, Type (0, 0), BuildingBlock: XUDNAN_clean_linker_2, # of connection points: 2
#     Edge 12, Type (0, 0), BuildingBlock: XUDNAN_clean_linker_2, # of connection points: 2
#     Edge 13, Type (0, 0), BuildingBlock: XUDNAN_clean_linker_2, # of connection points: 2
#     Edge 14, Type (0, 0), BuildingBlock: XUDNAN_clean_linker_2, # of connection points: 2
# Relax obj value: 0.169
# Max RMSD: 0.190
# Mean RMSD: 0.190
data_MOF--net-reo--node1-TAGTUT_clean_sbu_3--edge1-XUDNAN_clean_linker_2
_symmetry_space_group_name_H-M    P1
_symmetry_Int_Tables_number       1
_symmetry_cell_setting            triclinic
loop_
_symmetry_equiv_pos_as_xyz
'x, y, z'
_cell_length_a     23.676454
_cell_length_b     23.576112
_cell_length_c     23.575316
_cell_angle_alpha  91.191491
_cell_angle_beta   91.404539
_cell_angle_gamma 91.332498
loop_
_atom_site_label
_atom_site_type_symbol
_atom_site_fract_x
_atom_site_fract_y
_atom_site_fract_z
_atom_type_partial_charge
C0 C 0.93751 0.87758 0.53587 0.0
C1 C 0.77237 0.02415 0.55463 0.0
C2 C 0.84529 0.09149 0.40307 0.0
Mg3 Mg 0.0647 0.90409 0.49191 0.0
Mg4 Mg 0.11623 0.03515 0.50252 0.0
O5 O 0.06027 0.98589 0.46941 0.0
Mg6 Mg 0.98293 0.00127 0.49506 0.0
O7 O 0.90515 0.01378 0.52088 0.0
Mg8 Mg 0.86302 0.96461 0.46323 0.0
Mg9 Mg 0.88247 0.09029 0.52661 0.0
C10 C 0.03035 0.12517 0.45506 0.0
O11 O 0.01546 0.05041 0.57492 0.0
O12 O 0.15084 0.90882 0.44515 0.0
O13 O 0.95264 0.12078 0.58202 0.0
O14 O 0.11039 0.92183 0.57755 0.0
O15 O 0.18343 -0.00072 0.45577 0.0
O16 O 0.12801 0.01442 0.59036 0.0
O17 O 0.94765 0.95537 0.41521 0.0
O18 O 0.01365 0.88891 0.40981 0.0
C19 C 0.96868 0.9119 0.3907 0.0
C20 C 0.18801 0.94841 0.43645 0.0
O21 O 0.99023 0.0876 0.45266 0.0
O22 O 0.78509 0.98366 0.51983 0.0
O23 O 0.07941 0.11559 0.47696 0.0
O24 O 0.84223 0.03803 0.40848 0.0
O25 O 0.80389 0.06852 0.56329 0.0
O26 O 0.86396 0.12438 0.44322 0.0
O27 O 0.97915 0.91346 0.53536 0.0
O28 O 0.88886 0.8901 0.51573 0.0
C29 C 0.1273 0.96394 0.60883 0.0
C30 C -0.00127 0.09695 0.59735 0.0
C31 C 0.40052 0.98556 0.90761 0.0
C32 C 0.44178 0.20239 0.96705 0.0
C33 C 0.6091 0.13798 -0.00266 0.0
Mg34 Mg 0.47058 0.87391 0.95699 0.0
Mg35 Mg 0.5255 0.88392 0.08752 0.0
O36 O 0.52402 0.91285 0.01291 0.0
Mg37 Mg 0.4972 0.99133 0.00512 0.0
O38 O 0.47046 0.06983 0.99598 0.0
Mg39 Mg 0.50082 0.08274 0.91839 0.0
Mg40 Mg 0.49538 0.12118 0.05483 0.0
C41 C 0.59156 0.00078 0.10941 0.0
O42 O 0.44717 0.98934 0.08492 0.0
O43 O 0.52644 0.79433 0.97444 0.0
O44 O 0.45662 0.07597 0.12638 0.0
O45 O 0.41091 0.84652 0.02453 0.0
O46 O 0.56462 0.80764 0.06266 0.0
O47 O 0.44086 0.86114 0.1139 0.0
O48 O 0.54379 0.99636 0.92182 0.0
O49 O 0.52746 0.90747 0.88947 0.0
C50 C 0.54628 0.95811 0.8824 0.0
C51 C 0.55879 0.77904 0.01605 0.0
O52 O 0.57135 0.02046 0.06312 0.0
O53 O 0.45469 0.16844 0.9261 0.0
O54 O 0.57681 0.95213 0.12853 0.0
O55 O 0.58284 0.12587 0.95063 0.0
O56 O 0.45412 0.19277 0.01919 0.0
O57 O 0.58551 0.13394 0.04528 0.0
O58 O 0.42271 0.95949 0.94969 0.0
O59 O 0.42106 0.03315 0.89104 0.0
C60 C 0.40272 0.84495 0.07759 0.0
C61 C 0.43772 0.0243 0.12565 0.0
C62 C 0.87408 0.53345 0.96468 0.0
C63 C 0.99407 0.55437 0.77866 0.0
C64 C 0.07209 0.40276 0.84074 0.0
Mg65 Mg 0.91945 0.49239 0.08864 0.0
Mg66 Mg 0.05635 0.50336 0.1204 0.0
O67 O -0.00111 0.46974 0.07274 0.0
Mg68 Mg 0.00193 0.49483 0.9928 0.0
O69 O 0.00319 0.51982 0.9129 0.0
Mg70 Mg 0.94936 0.46196 0.8777 0.0
Mg71 Mg 0.07491 0.52659 0.87906 0.0
C72 C 0.12882 0.44906 0.02327 0.0
O73 O 0.05458 0.5743 0.0169 0.0
O74 O 0.93608 0.4485 0.17571 0.0
O75 O 0.11535 0.58181 0.94486 0.0
O76 O 0.94402 0.57879 0.12915 0.0
O77 O 0.02936 0.46236 0.19556 0.0
O78 O 0.03763 0.59248 0.13025 0.0
O79 O 0.95258 0.4148 0.96462 0.0
O80 O 0.8985 0.40921 0.04137 0.0
C81 C 0.91423 0.38975 0.99315 0.0
C82 C 0.98021 0.44339 0.20821 0.0
O83 O 0.08606 0.45256 0.98924 0.0
O84 O 0.95629 0.51907 0.79666 0.0
O85 O 0.12927 0.47019 0.07408 0.0
O86 O 0.01905 0.40704 0.84619 0.0
O87 O 0.04185 0.56321 0.8043 0.0
O88 O 0.10618 0.44387 0.85407 0.0
O89 O 0.91535 0.5343 0.00105 0.0
O90 O 0.87969 0.51362 0.9143 0.0
C91 C 0.98787 0.61067 0.13722 0.0
C92 C 0.09812 0.59677 0.99417 0.0
H93 H 0.93318 0.338 0.21677 0.0
H94 H 0.02551 0.47033 0.31245 0.0
H95 H 0.03963 0.40485 0.39191 0.0
H96 H 0.86781 0.25977 0.33862 0.0
H97 H 0.87997 0.19483 0.29932 0.0
H98 H 0.86731 0.25889 0.262 0.0
H99 H 0.96156 0.236 0.21059 0.0
H100 H 0.9744 0.17643 0.25515 0.0
H101 H 0.0263 0.23338 0.2523 0.0
H102 H 0.05696 0.32164 0.45318 0.0
H103 H 0.07119 0.22762 0.49529 0.0
H104 H 0.96723 0.1488 0.36019 0.0
C105 C 0.95396 0.35376 0.25561 0.0
C106 C 0.97691 0.40938 0.25952 0.0
C107 C 0.00666 0.42802 0.30951 0.0
C108 C 0.01501 0.39112 0.35464 0.0
C109 C 0.99382 0.33563 0.34866 0.0
C110 C 0.96367 0.31709 0.30053 0.0
C111 C 0.95162 0.25386 0.30154 0.0
C112 C 0.88778 0.24125 0.30049 0.0
C113 C 0.98019 0.22316 0.25196 0.0
C114 C 0.97924 0.23963 0.358 0.0
C115 C 0.00378 0.28739 0.38426 0.0
C116 C 0.03687 0.28412 0.43377 0.0
C117 C 0.04506 0.23064 0.45714 0.0
C118 C 0.01977 0.18137 0.43129 0.0
C119 C 0.98591 0.18609 0.38149 0.0
H120 H 0.86219 0.04726 0.3 0.0
H121 H 0.77115 0.17782 0.38809 0.0
H122 H 0.70493 0.18357 0.30566 0.0
H123 H 0.82472 0.09036 0.14543 0.0
H124 H 0.8166 0.01651 0.1248 0.0
H125 H 0.86926 0.03859 0.17783 0.0
H126 H 0.82726 0.967 0.24746 0.0
H127 H 0.77376 0.94492 0.1962 0.0
H128 H 0.75372 0.9709 0.26512 0.0
H129 H 0.63524 0.15631 0.22804 0.0
H130 H 0.57037 0.10066 0.16302 0.0
H131 H 0.70184 0.98028 0.13209 0.0
C132 C 0.83026 0.07946 0.30023 0.0
C133 C 0.82189 0.11266 0.3496 0.0
C134 C 0.77887 0.1531 0.34994 0.0
C135 C 0.74098 0.1563 0.30333 0.0
C136 C 0.74707 0.11882 0.25719 0.0
C137 C 0.79147 0.0817 0.255 0.0
C138 C 0.78256 0.03748 0.20791 0.0
C139 C 0.82584 0.04628 0.16119 0.0
C140 C 0.78439 0.97657 0.2306 0.0
C141 C 0.72393 0.05205 0.18728 0.0
C142 C 0.70511 0.10056 0.2143 0.0
C143 C 0.65014 0.11923 0.20568 0.0
C144 C 0.6135 0.08727 0.16913 0.0
C145 C 0.63168 0.03661 0.14308 0.0
C146 C 0.68757 0.01925 0.15156 0.0
H147 H 0.88886 0.8327 0.35926 0.0
H148 H 0.01581 0.94758 0.29531 0.0
H149 H 0.02148 0.88873 0.20826 0.0
H150 H 0.94574 0.717 0.32966 0.0
H151 H 0.88631 0.67324 0.305 0.0
H152 H 0.87514 0.73299 0.35118 0.0
H153 H 0.80515 0.77576 0.27848 0.0
H154 H 0.81412 0.71448 0.23278 0.0
H155 H 0.82598 0.78473 0.20611 0.0
H156 H 0.03932 0.80296 0.15033 0.0
H157 H 0.05147 0.70533 0.11267 0.0
H158 H 0.90725 0.64777 0.20744 0.0
C159 C 0.91426 0.84751 0.32472 0.0
C160 C 0.95094 0.89492 0.33288 0.0
C161 C 0.98628 0.9121 0.28868 0.0
C162 C 0.99004 0.87864 0.23928 0.0
C163 C 0.957 0.82904 0.23432 0.0
C164 C 0.91765 0.81479 0.27462 0.0
C165 C 0.89331 0.7555 0.26331 0.0
C166 C 0.90065 0.71752 0.31536 0.0
C167 C 0.83094 0.75778 0.244 0.0
C168 C 0.92973 0.73653 0.21492 0.0
C169 C 0.96561 0.77975 0.19809 0.0
C170 C 0.00968 0.76949 0.16112 0.0
C171 C 0.01683 0.71388 0.14055 0.0
C172 C 0.97978 0.66956 0.15669 0.0
C173 C 0.93514 0.68142 0.19331 0.0
H174 H 0.43064 0.06086 0.2385 0.0
H175 H 0.35555 0.9443 0.11199 0.0
H176 H 0.29781 0.89976 0.18445 0.0
H177 H 0.42628 0.96759 0.36197 0.0
H178 H 0.40329 0.02264 0.40971 0.0
H179 H 0.44637 0.04058 0.35035 0.0
H180 H 0.3709 0.11039 0.31482 0.0
H181 H 0.32837 0.09347 0.37463 0.0
H182 H 0.29889 0.0853 0.30362 0.0
H183 H 0.24738 0.86797 0.26799 0.0
H184 H 0.18818 0.8671 0.35241 0.0
H185 H 0.28633 0.01021 0.42438 0.0
C186 C 0.40259 0.02547 0.22649 0.0
C187 C 0.40031 0.00337 0.17032 0.0
C188 C 0.36106 0.95891 0.15559 0.0
C189 C 0.32778 0.93354 0.19636 0.0
C190 C 0.3328 0.95417 0.25179 0.0
C191 C 0.36762 0.00033 0.26677 0.0
C192 C 0.35811 0.01917 0.3276 0.0
C193 C 0.41172 0.01205 0.36459 0.0
C194 C 0.33784 0.08071 0.3303 0.0
C195 C 0.31178 0.97717 0.34348 0.0
C196 C 0.29935 0.93892 0.29964 0.0
C197 C 0.25666 0.8975 0.30292 0.0
C198 C 0.22352 0.89704 0.35126 0.0
C199 C 0.23256 0.93859 0.39489 0.0
C200 C 0.27868 0.97769 0.3918 0.0
H201 H 0.0232 0.83756 0.60479 0.0
H202 H 0.8653 0.78726 0.51815 0.0
H203 H 0.86797 0.69436 0.56298 0.0
H204 H 0.08654 0.69285 0.59999 0.0
H205 H 0.11906 0.70344 0.66945 0.0
H206 H 0.10876 0.7631 0.62405 0.0
H207 H 0.05393 0.81346 0.70389 0.0
H208 H 0.06364 0.75366 0.74886 0.0
H209 H 0.99342 0.77794 0.73329 0.0
H210 H 0.88001 0.61227 0.62654 0.0
H211 H 0.90393 0.54521 0.70237 0.0
H212 H 0.05497 0.64695 0.74519 0.0
C213 C 0.99002 0.80646 0.59422 0.0
C214 C 0.944 0.81992 0.55824 0.0
C215 C 0.90089 0.77826 0.54601 0.0
C216 C 0.90207 0.72507 0.57098 0.0
C217 C 0.94695 0.71367 0.60767 0.0
C218 C 0.99054 0.75282 0.61881 0.0
C219 C 0.03161 0.7312 0.66303 0.0
C220 C 0.08995 0.72209 0.6376 0.0
C221 C 0.03584 0.77145 0.71535 0.0
C222 C 0.00282 0.67515 0.67655 0.0
C223 C 0.95442 0.66546 0.64374 0.0
C224 C 0.91849 0.61865 0.65181 0.0
C225 C 0.93224 0.5809 0.69504 0.0
C226 C 0.98147 0.59036 0.72946 0.0
C227 C 0.01745 0.63771 0.71913 0.0
H228 H 0.31889 0.05306 0.86948 0.0
H229 H 0.36056 0.87605 0.88545 0.0
H230 H 0.27758 0.84897 0.82332 0.0
H231 H 0.15841 0.03187 0.85245 0.0
H232 H 0.15611 0.08817 0.80193 0.0
H233 H 0.20731 0.09147 0.85988 0.0
H234 H 0.28748 0.10343 0.7879 0.0
H235 H 0.23681 0.09954 0.73017 0.0
H236 H 0.29443 0.05086 0.73198 0.0
H237 H 0.20461 0.84416 0.74354 0.0
H238 H 0.15024 0.86096 0.65524 0.0
H239 H 0.15863 0.04222 0.69131 0.0
C240 C 0.30951 0.00839 0.86135 0.0
C241 C 0.34606 0.9665 0.88152 0.0
C242 C 0.33271 0.9086 0.87037 0.0
C243 C 0.28566 0.89303 0.83531 0.0
C244 C 0.25223 0.93594 0.81321 0.0
C245 C 0.26315 0.99253 0.8268 0.0
C246 C 0.22711 0.03136 0.7916 0.0
C247 C 0.18471 0.06253 0.8287 0.0
C248 C 0.26366 0.07369 0.75845 0.0
C249 C 0.19738 0.98818 0.75261 0.0
C250 C 0.21078 0.93328 0.76679 0.0
C251 C 0.19289 0.88683 0.73295 0.0
C252 C 0.16217 0.89688 0.68267 0.0
C253 C 0.15058 0.95305 0.66621 0.0
C254 C 0.16671 -0.00113 0.70282 0.0
H255 H 0.02226 0.3012 0.85636 0.0
H256 H 0.16327 0.38121 0.7732 0.0
H257 H 0.17523 0.29335 0.71552 0.0
H258 H 0.06846 0.14521 0.83982 0.0
H259 H -0.00414 0.12349 0.82595 0.0
H260 H 0.01258 0.18166 0.87487 0.0
H261 H 0.94618 0.24584 0.81738 0.0
H262 H 0.92975 0.18884 0.76806 0.0
H263 H 0.95785 0.25515 0.74278 0.0
H264 H 0.15588 0.20817 0.65131 0.0
H265 H 0.10554 0.13984 0.58569 0.0
H266 H 0.97096 0.12197 0.70513 0.0
C267 C 0.05725 0.29931 0.82767 0.0
C268 C 0.09173 0.34774 0.81883 0.0
C269 C 0.13682 0.34422 0.78089 0.0
C270 C 0.1438 0.2944 0.74806 0.0
C271 C 0.10573 0.24875 0.75441 0.0
C272 C 0.06367 0.25074 0.7941 0.0
C273 C 0.02081 0.20254 0.7854 0.0
C274 C 0.0247 0.16074 0.83442 0.0
C275 C 0.96017 0.22446 0.77789 0.0
C276 C 0.0419 0.17625 0.73123 0.0
C277 C 0.09253 0.20133 0.71553 0.0
C278 C 0.11705 0.18747 0.66396 0.0
C279 C 0.08816 0.14881 0.62685 0.0
C280 C 0.03469 0.12607 0.64092 0.0
C281 C 0.01224 0.13856 0.69422 0.0
H282 H 0.62272 0.04094 0.85029 0.0
H283 H 0.51006 0.90588 0.78456 0.0
H284 H 0.54632 0.91872 0.68905 0.0
H285 H 0.61883 0.12907 0.71747 0.0
H286 H 0.69273 0.14836 0.72589 0.0
H287 H 0.65087 0.13619 0.78752 0.0
H288 H 0.72177 0.0616 0.82166 0.0
H289 H 0.76362 0.07322 0.76026 0.0
H290 H 0.73784 0.00269 0.77524 0.0
H291 H 0.60469 0.93309 0.60562 0.0
H292 H 0.68065 0.95181 0.53799 0.0
H293 H 0.75414 0.07943 0.65497 0.0
C294 C 0.60469 0.0154 0.81536 0.0
C295 C 0.564 0.97225 0.82483 0.0
C296 C 0.54185 0.93883 0.77838 0.0
C297 C 0.56174 0.94607 0.72376 0.0
C298 C 0.60344 0.98732 0.71595 0.0
C299 C 0.62436 0.02196 0.76017 0.0
C300 C 0.67322 0.05884 0.74107 0.0
C301 C 0.65797 0.12185 0.74309 0.0
C302 C 0.72728 0.0484 0.77665 0.0
C303 C 0.67812 0.03709 0.6804 0.0
C304 C 0.63689 0.99651 0.66653 0.0
C305 C 0.63641 0.9659 0.6152 0.0
C306 C 0.6798 0.97653 0.57719 0.0
C307 C 0.72283 0.01744 0.59085 0.0
C308 C 0.72104 0.04884 0.64262 0.0
H309 H 0.23807 0.44268 0.0694 0.0
H310 H 0.12693 0.37493 0.93488 0.0
H311 H 0.20504 0.32472 0.89271 0.0
H312 H 0.37449 0.44459 0.99199 0.0
H313 H 0.41346 0.41606 0.05108 0.0
H314 H 0.35344 0.45996 0.06355 0.0
H315 H 0.30702 0.38037 0.12217 0.0
H316 H 0.36718 0.33688 0.11058 0.0
H317 H 0.29728 0.31031 0.09081 0.0
H318 H 0.2907 0.27651 0.86785 0.0
H319 H 0.37091 0.21256 0.87536 0.0
H320 H 0.42496 0.29691 0.03371 0.0
C321 C 0.23084 0.41855 0.03022 0.0
C322 C 0.17731 0.41692 0.00231 0.0
C323 C 0.16863 0.38162 0.95343 0.0
C324 C 0.21275 0.35218 0.92958 0.0
C325 C 0.26539 0.35613 0.95657 0.0
C326 C 0.27437 0.38659 0.00696 0.0
C327 C 0.33161 0.37365 0.0332 0.0
C328 C 0.37055 0.42674 0.03505 0.0
C329 C 0.32537 0.3488 0.09268 0.0
C330 C 0.35184 0.32971 0.99075 0.0
C331 C 0.31393 0.32235 0.94568 0.0
C332 C 0.32117 0.28203 0.90261 0.0
C333 C 0.36704 0.24603 0.90712 0.0
C334 C 0.40398 0.2497 0.95517 0.0
C335 C 0.39747 0.29348 0.99634 0.0
H336 H 0.1287 0.70304 0.96324 0.0
H337 H 0.14535 0.58345 0.09897 0.0
H338 H 0.21167 0.64966 0.15077 0.0
H339 H 0.26373 0.74153 0.95505 0.0
H340 H 0.25413 0.81579 0.94188 0.0
H341 H 0.19863 0.76543 0.92333 0.0
H342 H 0.12962 0.82228 0.98517 0.0
H343 H 0.18565 0.87269 0.00446 0.0
H344 H 0.14718 0.83705 0.05892 0.0
H345 H 0.29169 0.71741 0.17561 0.0
H346 H 0.37785 0.77838 0.16872 0.0
H347 H 0.30424 0.85801 0.02145 0.0
C348 C 0.14508 0.69195 0.00475 0.0
C349 C 0.13181 0.63892 0.02772 0.0
C350 C 0.15439 0.62466 0.08148 0.0
C351 C 0.19187 0.66208 0.11123 0.0
C352 C 0.20524 0.71399 0.08704 0.0
C353 C 0.18169 0.72931 0.03532 0.0
C354 C 0.20796 0.78394 0.01496 0.0
C355 C 0.2326 0.77612 0.95537 0.0
C356 C 0.16504 0.83183 0.01597 0.0
C357 C 0.25366 0.79386 0.06025 0.0
C358 C 0.25055 0.75424 0.10256 0.0
C359 C 0.29362 0.74983 0.14384 0.0
C360 C 0.34236 0.78463 0.13984 0.0
C361 C 0.3473 0.82249 0.09453 0.0
C362 C 0.30102 0.82949 0.05674 0.0
H363 H 0.65402 0.20405 0.91675 0.0
H364 H 0.6962 0.11806 0.0722 0.0
H365 H 0.79451 0.15492 0.06767 0.0
H366 H 0.79942 0.19895 0.84975 0.0
H367 H 0.792 0.26977 0.82366 0.0
H368 H 0.73061 0.22357 0.82901 0.0
H369 H 0.68216 0.29935 0.89141 0.0
H370 H 0.74268 0.34563 0.88529 0.0
H371 H 0.71853 0.32696 0.95457 0.0
H372 H 0.88112 0.21113 0.05564 0.0
H373 H 0.94082 0.29758 0.05131 0.0
H374 H 0.84144 0.35439 0.90797 0.0
C375 C 0.68461 0.19162 0.94879 0.0
C376 C 0.66819 0.15774 0.99445 0.0
C377 C 0.70833 0.14378 0.03684 0.0
C378 C 0.76437 0.16376 0.03398 0.0
C379 C 0.77924 0.19787 0.9887 0.0
C380 C 0.74018 0.21247 0.94729 0.0
C381 C 0.76307 0.25905 0.91031 0.0
C382 C 0.7718 0.23647 0.84959 0.0
C383 C 0.72435 0.31077 0.91051 0.0
C384 C 0.81922 0.27197 0.9405 0.0
C385 C 0.82907 0.23374 0.98338 0.0
C386 C 0.87463 0.24047 0.02152 0.0
C387 C 0.90847 0.28955 0.01861 0.0
C388 C 0.89578 0.33159 0.9787 0.0
C389 C 0.85279 0.32152 0.93728 0.0
H390 H 0.84629 0.6161 0.04283 0.0
H391 H 0.77458 0.49516 0.91811 0.0
H392 H 0.68163 0.538 0.92696 0.0
H393 H 0.71339 0.62742 0.13031 0.0
H394 H 0.72661 0.70224 0.14327 0.0
H395 H 0.78498 0.65516 0.13561 0.0
H396 H 0.82367 0.71769 0.05587 0.0
H397 H 0.76511 0.7643 0.0624 0.0
H398 H 0.77918 0.73134 0.99468 0.0
H399 H 0.60288 0.60427 0.93358 0.0
H400 H 0.53951 0.68533 0.94652 0.0
H401 H 0.65946 0.76117 0.06974 0.0
C402 C 0.81046 0.59749 0.01914 0.0
C403 C 0.81756 0.55274 0.97959 0.0
C404 C 0.77009 0.52995 0.9483 0.0
C405 C 0.71698 0.55372 0.95322 0.0
C406 C 0.71174 0.59977 0.99021 0.0
C407 C 0.75677 0.62084 0.0236 0.0
C408 C 0.74074 0.67403 0.05582 0.0
C409 C 0.74144 0.66409 0.12007 0.0
C410 C 0.77946 0.72481 0.04126 0.0
C411 C 0.68102 0.681 0.03272 0.0
C412 C 0.6649 0.63743 0.99539 0.0
C413 C 0.61412 0.63789 0.96401 0.0
C414 C 0.57866 0.68417 0.97118 0.0
C415 C 0.59422 0.72891 0.00961 0.0
C416 C 0.64575 0.72677 0.0411 0.0
loop_
_geom_bond_atom_site_label_1
_geom_bond_atom_site_label_2
_geom_bond_distance
_geom_bond_site_symmetry_2
_ccdc_geom_bond_type
C0 O27 1.312 1_655 S
C0 O28 1.208 . S
C1 O22 1.331 . S
C1 O25 1.244 1_565 S
C2 O24 1.264 1_545 S
C2 O26 1.273 . S
Mg3 O5 1.936 1_565 S
Mg3 O12 2.081 . S
Mg3 O14 2.023 . S
Mg3 O18 2.031 . S
Mg3 O27 2.291 . S
Mg4 O5 1.963 . S
Mg4 O15 1.942 . S
Mg4 O16 1.955 . S
Mg4 O23 1.986 . S
O5 Mg3 1.936 1_545 S
O5 Mg4 1.963 . S
O5 Mg6 1.915 . S
Mg6 O5 1.915 . S
Mg6 O7 1.915 1_455 S
Mg6 O11 2.013 . S
Mg6 O17 2.114 1_445 S
Mg6 O21 2.013 1_455 S
Mg6 O27 2.114 1_545 S
O7 Mg6 1.915 1_655 S
O7 Mg8 1.936 1_545 S
O7 Mg9 1.963 . S
Mg8 O7 1.936 1_565 S
Mg8 O17 2.291 . S
Mg8 O22 2.081 . S
Mg8 O24 2.023 . S
Mg8 O28 2.031 . S
Mg9 O7 1.963 . S
Mg9 O13 1.986 . S
Mg9 O25 1.942 . S
Mg9 O26 1.955 . S
C10 O21 1.191 1_455 S
C10 O23 1.307 . S
O11 Mg6 2.013 . S
O11 C30 1.191 1_455 S
O12 Mg3 2.081 . S
O12 C20 1.331 . S
O13 Mg9 1.986 . S
O13 C30 1.307 . S
O14 Mg3 2.023 . S
O14 C29 1.264 1_565 S
O15 Mg4 1.942 . S
O15 C20 1.244 1_545 S
O16 Mg4 1.955 . S
O16 C29 1.273 . S
O17 Mg6 2.114 1_665 S
O17 Mg8 2.291 . S
O17 C19 1.312 1_655 S
O18 Mg3 2.031 . S
O18 C19 1.208 . S
C19 O17 1.312 1_455 S
C19 O18 1.208 . S
C20 O12 1.331 . S
C20 O15 1.244 1_565 S
O21 Mg6 2.013 1_655 S
O21 C10 1.191 1_655 S
O22 C1 1.331 . S
O22 Mg8 2.081 . S
O23 Mg4 1.986 . S
O23 C10 1.307 . S
O24 C2 1.264 1_565 S
O24 Mg8 2.023 . S
O25 C1 1.244 1_545 S
O25 Mg9 1.942 . S
O26 C2 1.273 . S
O26 Mg9 1.955 . S
O27 C0 1.312 1_455 S
O27 Mg3 2.291 . S
O27 Mg6 2.114 1_565 S
O28 C0 1.208 . S
O28 Mg8 2.031 . S
C29 O14 1.264 1_545 S
C29 O16 1.273 . S
C30 O11 1.191 1_655 S
C30 O13 1.307 . S
C31 O58 1.312 1_545 S
C31 O59 1.208 . S
C32 O53 1.331 . S
C32 O56 1.244 1_556 S
C33 O55 1.264 1_554 S
C33 O57 1.273 . S
Mg34 O36 1.936 1_556 S
Mg34 O43 2.081 . S
Mg34 O45 2.023 . S
Mg34 O49 2.031 . S
Mg34 O58 2.291 . S
Mg35 O36 1.963 . S
Mg35 O46 1.942 . S
Mg35 O47 1.955 . S
Mg35 O54 1.986 . S
O36 Mg34 1.936 1_554 S
O36 Mg35 1.963 . S
O36 Mg37 1.915 1_565 S
Mg37 O36 1.915 1_545 S
Mg37 O38 1.915 . S
Mg37 O42 2.013 1_545 S
Mg37 O48 2.114 1_554 S
Mg37 O52 2.013 . S
Mg37 O58 2.114 1_544 S
O38 Mg37 1.915 . S
O38 Mg39 1.936 1_554 S
O38 Mg40 1.963 . S
Mg39 O38 1.936 1_556 S
Mg39 O48 2.291 . S
Mg39 O53 2.081 . S
Mg39 O55 2.023 . S
Mg39 O59 2.031 . S
Mg40 O38 1.963 . S
Mg40 O44 1.986 . S
Mg40 O56 1.942 . S
Mg40 O57 1.955 . S
C41 O52 1.191 1_565 S
C41 O54 1.307 . S
O42 Mg37 2.013 1_565 S
O42 C61 1.191 1_565 S
O43 Mg34 2.081 . S
O43 C51 1.331 . S
O44 Mg40 1.986 . S
O44 C61 1.307 . S
O45 Mg34 2.023 . S
O45 C60 1.264 1_556 S
O46 Mg35 1.942 . S
O46 C51 1.244 1_554 S
O47 Mg35 1.955 . S
O47 C60 1.273 . S
O48 Mg37 2.114 1_556 S
O48 Mg39 2.291 . S
O48 C50 1.312 1_545 S
O49 Mg34 2.031 . S
O49 C50 1.208 . S
C50 O48 1.312 1_565 S
C50 O49 1.208 . S
C51 O43 1.331 . S
C51 O46 1.244 1_556 S
O52 Mg37 2.013 . S
O52 C41 1.191 1_545 S
O53 C32 1.331 . S
O53 Mg39 2.081 . S
O54 Mg35 1.986 . S
O54 C41 1.307 . S
O55 C33 1.264 1_556 S
O55 Mg39 2.023 . S
O56 C32 1.244 1_554 S
O56 Mg40 1.942 . S
O57 C33 1.273 . S
O57 Mg40 1.955 . S
O58 C31 1.312 1_565 S
O58 Mg34 2.291 . S
O58 Mg37 2.114 1_566 S
O59 C31 1.208 . S
O59 Mg39 2.031 . S
C60 O45 1.264 1_554 S
C60 O47 1.273 . S
C61 O42 1.191 1_545 S
C61 O44 1.307 . S
C62 O89 1.312 1_556 S
C62 O90 1.208 . S
C63 O84 1.331 . S
C63 O87 1.244 1_655 S
C64 O86 1.264 1_455 S
C64 O88 1.273 . S
Mg65 O67 1.936 1_655 S
Mg65 O74 2.081 . S
Mg65 O76 2.023 . S
Mg65 O80 2.031 . S
Mg65 O89 2.291 . S
Mg66 O67 1.963 . S
Mg66 O77 1.942 . S
Mg66 O78 1.955 . S
Mg66 O85 1.986 . S
O67 Mg65 1.936 1_455 S
O67 Mg66 1.963 . S
O67 Mg68 1.915 . S
Mg68 O67 1.915 . S
Mg68 O69 1.915 1_554 S
Mg68 O73 2.013 . S
Mg68 O79 2.114 1_454 S
Mg68 O83 2.013 1_554 S
Mg68 O89 2.114 1_455 S
O69 Mg68 1.915 1_556 S
O69 Mg70 1.936 1_455 S
O69 Mg71 1.963 . S
Mg70 O69 1.936 1_655 S
Mg70 O79 2.291 . S
Mg70 O84 2.081 . S
Mg70 O86 2.023 . S
Mg70 O90 2.031 . S
Mg71 O69 1.963 . S
Mg71 O75 1.986 . S
Mg71 O87 1.942 . S
Mg71 O88 1.955 . S
C72 O83 1.191 1_554 S
C72 O85 1.307 . S
O73 Mg68 2.013 . S
O73 C92 1.191 1_554 S
O74 Mg65 2.081 . S
O74 C82 1.331 . S
O75 Mg71 1.986 . S
O75 C92 1.307 . S
O76 Mg65 2.023 . S
O76 C91 1.264 1_655 S
O77 Mg66 1.942 . S
O77 C82 1.244 1_455 S
O78 Mg66 1.955 . S
O78 C91 1.273 . S
O79 Mg68 2.114 1_656 S
O79 Mg70 2.291 . S
O79 C81 1.312 1_556 S
O80 Mg65 2.031 . S
O80 C81 1.208 . S
C81 O79 1.312 1_554 S
C81 O80 1.208 . S
C82 O74 1.331 . S
C82 O77 1.244 1_655 S
O83 Mg68 2.013 1_556 S
O83 C72 1.191 1_556 S
O84 C63 1.331 . S
O84 Mg70 2.081 . S
O85 Mg66 1.986 . S
O85 C72 1.307 . S
O86 C64 1.264 1_655 S
O86 Mg70 2.023 . S
O87 C63 1.244 1_455 S
O87 Mg71 1.942 . S
O88 C64 1.273 . S
O88 Mg71 1.955 . S
O89 C62 1.312 1_554 S
O89 Mg65 2.291 . S
O89 Mg68 2.114 1_655 S
O90 C62 1.208 . S
O90 Mg70 2.031 . S
C91 O76 1.264 1_455 S
C91 O78 1.273 . S
C92 O73 1.191 1_556 S
C92 O75 1.307 . S
H93 C105 0.930 . S
H94 C107 0.930 . S
H95 C108 0.930 . S
H96 C112 0.959 . S
H97 C112 0.959 . S
H98 C112 0.961 . S
H99 C113 0.960 . S
H100 C113 0.961 . S
H101 C113 0.959 . S
H102 C116 0.929 . S
H103 C117 0.931 . S
H104 C119 0.930 . S
C105 H93 0.930 . S
C105 C106 1.399 . S
C105 C110 1.399 . S
C106 C105 1.399 . S
C106 C107 1.376 1_655 S
C107 H94 0.930 . S
C107 C106 1.376 1_455 S
C107 C108 1.388 . S
C108 H95 0.930 . S
C108 C107 1.388 . S
C108 C109 1.390 . S
C109 C108 1.390 . S
C109 C110 1.394 1_455 S
C109 C115 1.465 . S
C110 C105 1.399 . S
C110 C109 1.394 1_655 S
C110 C111 1.516 . S
C111 C110 1.516 . S
C111 C112 1.502 . S
C111 C113 1.561 1_655 S
C111 C114 1.526 . S
C112 H96 0.959 . S
C112 H97 0.959 . S
C112 H98 0.961 . S
C112 C111 1.502 . S
C113 H99 0.960 . S
C113 H100 0.961 . S
C113 H101 0.959 . S
C113 C111 1.561 1_455 S
C114 C111 1.526 . S
C114 C115 1.396 1_655 S
C114 C119 1.390 . S
C115 C109 1.465 . S
C115 C114 1.396 1_455 S
C115 C116 1.399 . S
C116 H102 0.929 . S
C116 C115 1.399 . S
C116 C117 1.385 . S
C117 H103 0.931 . S
C117 C116 1.385 . S
C117 C118 1.389 . S
C118 C117 1.389 . S
C118 C119 1.387 1_455 S
C119 H104 0.930 . S
C119 C114 1.390 . S
C119 C118 1.387 1_655 S
H120 C132 0.930 . S
H121 C134 0.930 . S
H122 C135 0.930 . S
H123 C139 0.959 . S
H124 C139 0.959 . S
H125 C139 0.961 . S
H126 C140 0.960 . S
H127 C140 0.961 . S
H128 C140 0.959 . S
H129 C143 0.929 . S
H130 C144 0.931 . S
H131 C146 0.930 . S
C132 H120 0.930 . S
C132 C133 1.399 1_565 S
C132 C137 1.399 . S
C133 C132 1.399 1_545 S
C133 C134 1.376 . S
C134 H121 0.930 . S
C134 C133 1.376 . S
C134 C135 1.388 . S
C135 H122 0.930 . S
C135 C134 1.388 . S
C135 C136 1.390 . S
C136 C135 1.390 . S
C136 C137 1.394 1_545 S
C136 C142 1.465 . S
C137 C132 1.399 . S
C137 C136 1.394 1_565 S
C137 C138 1.516 . S
C138 C137 1.516 . S
C138 C139 1.502 . S
C138 C140 1.561 . S
C138 C141 1.526 . S
C139 H123 0.959 . S
C139 H124 0.959 . S
C139 H125 0.961 . S
C139 C138 1.502 . S
C140 H126 0.960 . S
C140 H127 0.961 . S
C140 H128 0.959 . S
C140 C138 1.561 . S
C141 C138 1.526 . S
C141 C142 1.396 1_565 S
C141 C146 1.390 . S
C142 C136 1.465 . S
C142 C141 1.396 1_545 S
C142 C143 1.399 . S
C143 H129 0.929 . S
C143 C142 1.399 . S
C143 C144 1.385 . S
C144 H130 0.931 . S
C144 C143 1.385 . S
C144 C145 1.389 . S
C145 C144 1.389 . S
C145 C146 1.387 1_545 S
C146 H131 0.930 . S
C146 C141 1.390 . S
C146 C145 1.387 1_565 S
H147 C159 0.930 . S
H148 C161 0.930 . S
H149 C162 0.930 . S
H150 C166 0.959 . S
H151 C166 0.959 . S
H152 C166 0.961 . S
H153 C167 0.960 . S
H154 C167 0.961 . S
H155 C167 0.959 . S
H156 C170 0.929 . S
H157 C171 0.931 . S
H158 C173 0.930 . S
C159 H147 0.930 . S
C159 C160 1.399 1_655 S
C159 C164 1.399 . S
C160 C159 1.399 1_455 S
C160 C161 1.376 . S
C161 H148 0.930 . S
C161 C160 1.376 . S
C161 C162 1.388 . S
C162 H149 0.930 . S
C162 C161 1.388 . S
C162 C163 1.390 . S
C163 C162 1.390 . S
C163 C164 1.394 1_455 S
C163 C169 1.465 . S
C164 C159 1.399 . S
C164 C163 1.394 1_655 S
C164 C165 1.516 . S
C165 C164 1.516 . S
C165 C166 1.502 . S
C165 C167 1.561 . S
C165 C168 1.526 . S
C166 H150 0.959 . S
C166 H151 0.959 . S
C166 H152 0.961 . S
C166 C165 1.502 . S
C167 H153 0.960 . S
C167 H154 0.961 . S
C167 H155 0.959 . S
C167 C165 1.561 . S
C168 C165 1.526 . S
C168 C169 1.396 1_655 S
C168 C173 1.390 . S
C169 C163 1.465 . S
C169 C168 1.396 1_455 S
C169 C170 1.399 . S
C170 H156 0.929 . S
C170 C169 1.399 . S
C170 C171 1.385 . S
C171 H157 0.931 . S
C171 C170 1.385 . S
C171 C172 1.389 . S
C172 C171 1.389 . S
C172 C173 1.387 1_455 S
C173 H158 0.930 . S
C173 C168 1.390 . S
C173 C172 1.387 1_655 S
H174 C186 0.930 . S
H175 C188 0.930 . S
H176 C189 0.930 . S
H177 C193 0.959 . S
H178 C193 0.959 . S
H179 C193 0.961 . S
H180 C194 0.960 . S
H181 C194 0.961 . S
H182 C194 0.959 . S
H183 C197 0.929 . S
H184 C198 0.931 . S
H185 C200 0.930 . S
C186 H174 0.930 . S
C186 C187 1.399 . S
C186 C191 1.399 . S
C187 C186 1.399 . S
C187 C188 1.376 1_545 S
C188 H175 0.930 . S
C188 C187 1.376 1_565 S
C188 C189 1.388 . S
C189 H176 0.930 . S
C189 C188 1.388 . S
C189 C190 1.390 . S
C190 C189 1.390 . S
C190 C191 1.394 1_565 S
C190 C196 1.465 . S
C191 C186 1.399 . S
C191 C190 1.394 1_545 S
C191 C192 1.516 . S
C192 C191 1.516 . S
C192 C193 1.502 . S
C192 C194 1.561 . S
C192 C195 1.526 . S
C193 H177 0.959 . S
C193 H178 0.959 . S
C193 H179 0.961 . S
C193 C192 1.502 . S
C194 H180 0.960 . S
C194 H181 0.961 . S
C194 H182 0.959 . S
C194 C192 1.561 . S
C195 C192 1.526 . S
C195 C196 1.396 1_545 S
C195 C200 1.390 . S
C196 C190 1.465 . S
C196 C195 1.396 1_565 S
C196 C197 1.399 . S
C197 H183 0.929 . S
C197 C196 1.399 . S
C197 C198 1.385 . S
C198 H184 0.931 . S
C198 C197 1.385 . S
C198 C199 1.389 . S
C199 C198 1.389 . S
C199 C200 1.387 1_565 S
C200 H185 0.930 . S
C200 C195 1.390 . S
C200 C199 1.387 1_545 S
H201 C213 0.930 . S
H202 C215 0.930 . S
H203 C216 0.930 . S
H204 C220 0.959 . S
H205 C220 0.959 . S
H206 C220 0.961 . S
H207 C221 0.960 . S
H208 C221 0.961 . S
H209 C221 0.959 . S
H210 C224 0.929 . S
H211 C225 0.931 . S
H212 C227 0.930 . S
C213 H201 0.930 . S
C213 C214 1.399 1_455 S
C213 C218 1.399 . S
C214 C213 1.399 1_655 S
C214 C215 1.376 . S
C215 H202 0.930 . S
C215 C214 1.376 . S
C215 C216 1.388 . S
C216 H203 0.930 . S
C216 C215 1.388 . S
C216 C217 1.390 . S
C217 C216 1.390 . S
C217 C218 1.394 1_655 S
C217 C223 1.465 . S
C218 C213 1.399 . S
C218 C217 1.394 1_455 S
C218 C219 1.516 . S
C219 C218 1.516 . S
C219 C220 1.502 . S
C219 C221 1.561 1_455 S
C219 C222 1.530 . S
C220 H204 0.959 . S
C220 H205 0.959 . S
C220 H206 0.961 . S
C220 C219 1.502 . S
C221 H207 0.960 . S
C221 H208 0.961 . S
C221 H209 0.959 . S
C221 C219 1.561 1_655 S
C222 C219 1.530 . S
C222 C223 1.390 1_455 S
C222 C227 1.391 . S
C223 C217 1.465 . S
C223 C222 1.390 1_655 S
C223 C224 1.399 . S
C224 H210 0.929 . S
C224 C223 1.399 . S
C224 C225 1.385 . S
C225 H211 0.931 . S
C225 C224 1.385 . S
C225 C226 1.389 . S
C226 C225 1.389 . S
C226 C227 1.387 1_655 S
C227 H212 0.930 . S
C227 C222 1.391 . S
C227 C226 1.387 1_455 S
H228 C240 0.930 . S
H229 C242 0.930 . S
H230 C243 0.930 . S
H231 C247 0.959 1_565 S
H232 C247 0.959 . S
H233 C247 0.961 . S
H234 C248 0.960 . S
H235 C248 0.961 . S
H236 C248 0.959 . S
H237 C251 0.929 . S
H238 C252 0.931 . S
H239 C254 0.930 . S
C240 H228 0.930 . S
C240 C241 1.399 1_545 S
C240 C245 1.399 . S
C241 C240 1.399 1_565 S
C241 C242 1.376 . S
C242 H229 0.930 . S
C242 C241 1.376 . S
C242 C243 1.388 . S
C243 H230 0.930 . S
C243 C242 1.388 . S
C243 C244 1.390 1_565 S
C244 C243 1.390 1_545 S
C244 C245 1.394 . S
C244 C250 1.465 . S
C245 C240 1.399 . S
C245 C244 1.394 . S
C245 C246 1.516 . S
C246 C245 1.516 . S
C246 C247 1.502 . S
C246 C248 1.561 . S
C246 C249 1.526 . S
C247 H231 0.959 1_545 S
C247 H232 0.959 . S
C247 H233 0.961 . S
C247 C246 1.502 . S
C248 H234 0.960 . S
C248 H235 0.961 . S
C248 H236 0.959 . S
C248 C246 1.561 . S
C249 C246 1.526 . S
C249 C250 1.396 . S
C249 C254 1.390 . S
C250 C244 1.465 . S
C250 C249 1.396 . S
C250 C251 1.399 1_545 S
C251 H237 0.929 . S
C251 C250 1.399 1_565 S
C251 C252 1.385 . S
C252 H238 0.931 . S
C252 C251 1.385 . S
C252 C253 1.389 1_565 S
C253 C252 1.389 1_545 S
C253 C254 1.387 . S
C254 H239 0.930 . S
C254 C249 1.390 . S
C254 C253 1.387 . S
H255 C267 0.930 . S
H256 C269 0.930 . S
H257 C270 0.930 . S
H258 C274 0.959 . S
H259 C274 0.959 . S
H260 C274 0.961 . S
H261 C275 0.960 . S
H262 C275 0.961 . S
H263 C275 0.959 . S
H264 C278 0.929 . S
H265 C279 0.931 . S
H266 C281 0.930 . S
C267 H255 0.930 . S
C267 C268 1.399 . S
C267 C272 1.399 . S
C268 C267 1.399 . S
C268 C269 1.376 1_455 S
C269 H256 0.930 . S
C269 C268 1.376 1_655 S
C269 C270 1.388 . S
C270 H257 0.930 . S
C270 C269 1.388 . S
C270 C271 1.390 . S
C271 C270 1.390 . S
C271 C272 1.394 1_655 S
C271 C277 1.465 . S
C272 C267 1.399 . S
C272 C271 1.394 1_455 S
C272 C273 1.516 . S
C273 C272 1.516 . S
C273 C274 1.502 . S
C273 C275 1.561 1_455 S
C273 C276 1.526 . S
C274 H258 0.959 . S
C274 H259 0.959 . S
C274 H260 0.961 . S
C274 C273 1.502 . S
C275 H261 0.960 . S
C275 H262 0.961 . S
C275 H263 0.959 . S
C275 C273 1.561 1_655 S
C276 C273 1.526 . S
C276 C277 1.396 1_455 S
C276 C281 1.390 . S
C277 C271 1.465 . S
C277 C276 1.396 1_655 S
C277 C278 1.399 . S
C278 H264 0.929 . S
C278 C277 1.399 . S
C278 C279 1.385 . S
C279 H265 0.931 . S
C279 C278 1.385 . S
C279 C280 1.391 . S
C280 C279 1.391 . S
C280 C281 1.386 1_655 S
C281 H266 0.930 . S
C281 C276 1.390 . S
C281 C280 1.386 1_455 S
H282 C294 0.930 . S
H283 C296 0.930 . S
H284 C297 0.930 . S
H285 C301 0.959 . S
H286 C301 0.959 . S
H287 C301 0.961 . S
H288 C302 0.960 . S
H289 C302 0.961 . S
H290 C302 0.959 . S
H291 C305 0.929 . S
H292 C306 0.931 . S
H293 C308 0.930 . S
C294 H282 0.930 . S
C294 C295 1.399 1_545 S
C294 C299 1.399 . S
C295 C294 1.399 1_565 S
C295 C296 1.376 . S
C296 H283 0.930 . S
C296 C295 1.376 . S
C296 C297 1.388 . S
C297 H284 0.930 . S
C297 C296 1.388 . S
C297 C298 1.390 . S
C298 C297 1.390 . S
C298 C299 1.394 1_565 S
C298 C304 1.465 . S
C299 C294 1.399 . S
C299 C298 1.394 1_545 S
C299 C300 1.516 . S
C300 C299 1.516 . S
C300 C301 1.502 . S
C300 C302 1.561 . S
C300 C303 1.526 . S
C301 H285 0.959 . S
C301 H286 0.959 . S
C301 H287 0.961 . S
C301 C300 1.502 . S
C302 H288 0.960 . S
C302 H289 0.961 . S
C302 H290 0.959 . S
C302 C300 1.561 . S
C303 C300 1.526 . S
C303 C304 1.396 1_545 S
C303 C308 1.390 . S
C304 C298 1.465 . S
C304 C303 1.396 1_565 S
C304 C305 1.399 . S
C305 H291 0.929 . S
C305 C304 1.399 . S
C305 C306 1.385 . S
C306 H292 0.931 . S
C306 C305 1.385 . S
C306 C307 1.389 . S
C307 C306 1.389 . S
C307 C308 1.387 1_565 S
C308 H293 0.930 . S
C308 C303 1.390 . S
C308 C307 1.387 1_545 S
H309 C321 0.930 . S
H310 C323 0.930 . S
H311 C324 0.930 . S
H312 C328 0.959 . S
H313 C328 0.959 . S
H314 C328 0.961 . S
H315 C329 0.960 . S
H316 C329 0.961 . S
H317 C329 0.959 . S
H318 C332 0.929 . S
H319 C333 0.931 . S
H320 C335 0.930 . S
C321 H309 0.930 . S
C321 C322 1.407 . S
C321 C326 1.399 . S
C322 C321 1.407 . S
C322 C323 1.366 1_554 S
C323 H310 0.930 . S
C323 C322 1.366 1_556 S
C323 C324 1.388 . S
C324 H311 0.930 . S
C324 C323 1.388 . S
C324 C325 1.390 . S
C325 C324 1.390 . S
C325 C326 1.394 1_556 S
C325 C331 1.465 . S
C326 C321 1.399 . S
C326 C325 1.394 1_554 S
C326 C327 1.516 . S
C327 C326 1.516 . S
C327 C328 1.502 . S
C327 C329 1.561 . S
C327 C330 1.526 . S
C328 H312 0.959 . S
C328 H313 0.959 . S
C328 H314 0.961 . S
C328 C327 1.502 . S
C329 H315 0.960 . S
C329 H316 0.961 . S
C329 H317 0.959 . S
C329 C327 1.561 . S
C330 C327 1.526 . S
C330 C331 1.396 1_554 S
C330 C335 1.390 . S
C331 C325 1.465 . S
C331 C330 1.396 1_556 S
C331 C332 1.399 . S
C332 H318 0.929 . S
C332 C331 1.399 . S
C332 C333 1.385 . S
C333 H319 0.931 . S
C333 C332 1.385 . S
C333 C334 1.389 . S
C334 C333 1.389 . S
C334 C335 1.387 1_556 S
C335 H320 0.930 . S
C335 C330 1.390 . S
C335 C334 1.387 1_554 S
H336 C348 0.930 . S
H337 C350 0.930 . S
H338 C351 0.930 . S
H339 C355 0.959 . S
H340 C355 0.959 . S
H341 C355 0.961 . S
H342 C356 0.960 . S
H343 C356 0.961 . S
H344 C356 0.959 . S
H345 C359 0.929 . S
H346 C360 0.931 . S
H347 C362 0.930 . S
C348 H336 0.930 . S
C348 C349 1.399 1_556 S
C348 C353 1.399 . S
C349 C348 1.399 1_554 S
C349 C350 1.376 . S
C350 H337 0.930 . S
C350 C349 1.376 . S
C350 C351 1.388 . S
C351 H338 0.930 . S
C351 C350 1.388 . S
C351 C352 1.390 . S
C352 C351 1.390 . S
C352 C353 1.394 1_554 S
C352 C358 1.465 . S
C353 C348 1.399 . S
C353 C352 1.394 1_556 S
C353 C354 1.516 . S
C354 C353 1.516 . S
C354 C355 1.502 . S
C354 C356 1.561 . S
C354 C357 1.526 . S
C355 H339 0.959 . S
C355 H340 0.959 . S
C355 H341 0.961 . S
C355 C354 1.502 . S
C356 H342 0.960 . S
C356 H343 0.961 . S
C356 H344 0.959 . S
C356 C354 1.561 . S
C357 C354 1.526 . S
C357 C358 1.396 1_556 S
C357 C362 1.390 . S
C358 C352 1.465 . S
C358 C357 1.396 1_554 S
C358 C359 1.399 . S
C359 H345 0.929 . S
C359 C358 1.399 . S
C359 C360 1.385 . S
C360 H346 0.931 . S
C360 C359 1.385 . S
C360 C361 1.389 . S
C361 C360 1.389 . S
C361 C362 1.387 1_554 S
C362 H347 0.930 . S
C362 C357 1.390 . S
C362 C361 1.387 1_556 S
H363 C375 0.930 . S
H364 C377 0.930 . S
H365 C378 0.930 . S
H366 C382 0.959 . S
H367 C382 0.959 . S
H368 C382 0.961 . S
H369 C383 0.960 . S
H370 C383 0.961 . S
H371 C383 0.959 . S
H372 C386 0.929 . S
H373 C387 0.931 . S
H374 C389 0.930 . S
C375 H363 0.930 . S
C375 C376 1.399 1_556 S
C375 C380 1.399 . S
C376 C375 1.399 1_554 S
C376 C377 1.376 . S
C377 H364 0.930 . S
C377 C376 1.376 . S
C377 C378 1.388 . S
C378 H365 0.930 . S
C378 C377 1.388 . S
C378 C379 1.390 . S
C379 C378 1.390 . S
C379 C380 1.394 1_554 S
C379 C385 1.465 . S
C380 C375 1.399 . S
C380 C379 1.394 1_556 S
C380 C381 1.516 . S
C381 C380 1.516 . S
C381 C382 1.502 . S
C381 C383 1.561 . S
C381 C384 1.526 . S
C382 H366 0.959 . S
C382 H367 0.959 . S
C382 H368 0.961 . S
C382 C381 1.502 . S
C383 H369 0.960 . S
C383 H370 0.961 . S
C383 H371 0.959 . S
C383 C381 1.561 . S
C384 C381 1.526 . S
C384 C385 1.396 1_556 S
C384 C389 1.390 . S
C385 C379 1.465 . S
C385 C384 1.396 1_554 S
C385 C386 1.399 . S
C386 H372 0.929 . S
C386 C385 1.399 . S
C386 C387 1.385 . S
C387 H373 0.931 . S
C387 C386 1.385 . S
C387 C388 1.389 . S
C388 C387 1.389 . S
C388 C389 1.387 1_554 S
C389 H374 0.930 . S
C389 C384 1.390 . S
C389 C388 1.387 1_556 S
H390 C402 0.930 . S
H391 C404 0.930 . S
H392 C405 0.930 . S
H393 C409 0.959 . S
H394 C409 0.959 . S
H395 C409 0.961 . S
H396 C410 0.960 . S
H397 C410 0.961 . S
H398 C410 0.959 . S
H399 C413 0.929 . S
H400 C414 0.931 . S
H401 C416 0.930 . S
C402 H390 0.930 . S
C402 C403 1.389 1_554 S
C402 C407 1.399 . S
C403 C402 1.389 1_556 S
C403 C404 1.390 . S
C404 H391 0.930 . S
C404 C403 1.390 . S
C404 C405 1.388 . S
C405 H392 0.930 . S
C405 C404 1.388 . S
C405 C406 1.390 . S
C406 C405 1.390 . S
C406 C407 1.394 1_556 S
C406 C412 1.465 . S
C407 C402 1.399 . S
C407 C406 1.394 1_554 S
C407 C408 1.516 . S
C408 C407 1.516 . S
C408 C409 1.502 . S
C408 C410 1.561 . S
C408 C411 1.526 . S
C409 H393 0.959 . S
C409 H394 0.959 . S
C409 H395 0.961 . S
C409 C408 1.502 . S
C410 H396 0.960 . S
C410 H397 0.961 . S
C410 H398 0.959 . S
C410 C408 1.561 . S
C411 C408 1.526 . S
C411 C412 1.396 1_554 S
C411 C416 1.390 . S
C412 C406 1.465 . S
C412 C411 1.396 1_556 S
C412 C413 1.399 . S
C413 H399 0.929 . S
C413 C412 1.399 . S
C413 C414 1.385 . S
C414 H400 0.931 . S
C414 C413 1.385 . S
C414 C415 1.389 . S
C415 C414 1.389 . S
C415 C416 1.387 1_556 S
C416 H401 0.930 . S
C416 C411 1.390 . S
C416 C415 1.387 1_554 S
C106 C82 1.256 . S
C118 C10 1.202 . S
C133 C2 1.321 . S
C145 C41 1.295 1_545 S
C160 C19 1.298 . S
C172 C91 1.397 . S
C187 C61 1.283 . S
C199 C20 1.286 . S
C214 C0 1.178 . S
C226 C63 1.303 . S
C241 C31 1.273 1_565 S
C253 C29 1.378 . S
C268 C64 1.311 . S
C280 C30 1.244 . S
C295 C50 1.236 . S
C307 C1 1.313 . S
C322 C72 1.286 . S
C334 C32 1.288 . S
C349 C92 1.317 1_554 S
C361 C60 1.327 . S
C376 C33 1.389 . S
C388 C81 1.271 . S
C403 C62 1.246 . S
C415 C51 1.313 . S
