# Generated by pormake.
# Topology wfa, (4)-cn, num edge types: 1
# Building blocks:
#     Node 0, Type 0, BuildingBlock: QUQFOY_clean_sbu_1, # of connection points: 4
#     Node 1, Type 0, BuildingBlock: QUQFOY_clean_sbu_1, # of connection points: 4
#     Node 2, Type 0, BuildingBlock: QUQFOY_clean_sbu_1, # of connection points: 4
#     Node 3, Type 0, BuildingBlock: QUQFOY_clean_sbu_1, # of connection points: 4
#     Node 4, Type 0, BuildingBlock: QUQFOY_clean_sbu_1, # of connection points: 4
#     Node 5, Type 0, BuildingBlock: QUQFOY_clean_sbu_1, # of connection points: 4
#     Node 6, Type 0, BuildingBlock: QUQFOY_clean_sbu_1, # of connection points: 4
#     Node 7, Type 0, BuildingBlock: QUQFOY_clean_sbu_1, # of connection points: 4
#     Node 8, Type 0, BuildingBlock: QUQFOY_clean_sbu_1, # of connection points: 4
#     Node 9, Type 0, BuildingBlock: QUQFOY_clean_sbu_1, # of connection points: 4
#     Node 10, Type 0, BuildingBlock: QUQFOY_clean_sbu_1, # of connection points: 4
#     Node 11, Type 0, BuildingBlock: QUQFOY_clean_sbu_1, # of connection points: 4
#     Node 12, Type 0, BuildingBlock: QUQFOY_clean_sbu_1, # of connection points: 4
#     Node 13, Type 0, BuildingBlock: QUQFOY_clean_sbu_1, # of connection points: 4
#     Node 14, Type 0, BuildingBlock: QUQFOY_clean_sbu_1, # of connection points: 4
#     Node 15, Type 0, BuildingBlock: QUQFOY_clean_sbu_1, # of connection points: 4
#     Edge 16, Type (0, 0), BuildingBlock: XIVTED_clean_linker_0, # of connection points: 2
#     Edge 17, Type (0, 0), BuildingBlock: XIVTED_clean_linker_0, # of connection points: 2
#     Edge 18, Type (0, 0), BuildingBlock: XIVTED_clean_linker_0, # of connection points: 2
#     Edge 19, Type (0, 0), BuildingBlock: XIVTED_clean_linker_0, # of connection points: 2
#     Edge 20, Type (0, 0), BuildingBlock: XIVTED_clean_linker_0, # of connection points: 2
#     Edge 21, Type (0, 0), BuildingBlock: XIVTED_clean_linker_0, # of connection points: 2
#     Edge 22, Type (0, 0), BuildingBlock: XIVTED_clean_linker_0, # of connection points: 2
#     Edge 23, Type (0, 0), BuildingBlock: XIVTED_clean_linker_0, # of connection points: 2
#     Edge 24, Type (0, 0), BuildingBlock: XIVTED_clean_linker_0, # of connection points: 2
#     Edge 25, Type (0, 0), BuildingBlock: XIVTED_clean_linker_0, # of connection points: 2
#     Edge 26, Type (0, 0), BuildingBlock: XIVTED_clean_linker_0, # of connection points: 2
#     Edge 27, Type (0, 0), BuildingBlock: XIVTED_clean_linker_0, # of connection points: 2
#     Edge 28, Type (0, 0), BuildingBlock: XIVTED_clean_linker_0, # of connection points: 2
#     Edge 29, Type (0, 0), BuildingBlock: XIVTED_clean_linker_0, # of connection points: 2
#     Edge 30, Type (0, 0), BuildingBlock: XIVTED_clean_linker_0, # of connection points: 2
#     Edge 31, Type (0, 0), BuildingBlock: XIVTED_clean_linker_0, # of connection points: 2
#     Edge 32, Type (0, 0), BuildingBlock: XIVTED_clean_linker_0, # of connection points: 2
#     Edge 33, Type (0, 0), BuildingBlock: XIVTED_clean_linker_0, # of connection points: 2
#     Edge 34, Type (0, 0), BuildingBlock: XIVTED_clean_linker_0, # of connection points: 2
#     Edge 35, Type (0, 0), BuildingBlock: XIVTED_clean_linker_0, # of connection points: 2
#     Edge 36, Type (0, 0), BuildingBlock: XIVTED_clean_linker_0, # of connection points: 2
#     Edge 37, Type (0, 0), BuildingBlock: XIVTED_clean_linker_0, # of connection points: 2
#     Edge 38, Type (0, 0), BuildingBlock: XIVTED_clean_linker_0, # of connection points: 2
#     Edge 39, Type (0, 0), BuildingBlock: XIVTED_clean_linker_0, # of connection points: 2
#     Edge 40, Type (0, 0), BuildingBlock: XIVTED_clean_linker_0, # of connection points: 2
#     Edge 41, Type (0, 0), BuildingBlock: XIVTED_clean_linker_0, # of connection points: 2
#     Edge 42, Type (0, 0), BuildingBlock: XIVTED_clean_linker_0, # of connection points: 2
#     Edge 43, Type (0, 0), BuildingBlock: XIVTED_clean_linker_0, # of connection points: 2
#     Edge 44, Type (0, 0), BuildingBlock: XIVTED_clean_linker_0, # of connection points: 2
#     Edge 45, Type (0, 0), BuildingBlock: XIVTED_clean_linker_0, # of connection points: 2
#     Edge 46, Type (0, 0), BuildingBlock: XIVTED_clean_linker_0, # of connection points: 2
#     Edge 47, Type (0, 0), BuildingBlock: XIVTED_clean_linker_0, # of connection points: 2
# Relax obj value: 0.081
# Max RMSD: 0.147
# Mean RMSD: 0.147
data_MOF--net-wfa--node1-QUQFOY_clean_sbu_1--edge1-XIVTED_clean_linker_0
_symmetry_space_group_name_H-M    P1
_symmetry_Int_Tables_number       1
_symmetry_cell_setting            triclinic
loop_
_symmetry_equiv_pos_as_xyz
'x, y, z'
_cell_length_a     50.802403
_cell_length_b     50.888851
_cell_length_c     24.527736
_cell_angle_alpha  89.965482
_cell_angle_beta   89.990249
_cell_angle_gamma 89.944595
loop_
_atom_site_label
_atom_site_type_symbol
_atom_site_fract_x
_atom_site_fract_y
_atom_site_fract_z
_atom_type_partial_charge
O0 O 0.70772 0.02159 0.1227 0.0
Cd1 Cd 0.69911 0.04541 0.05836 0.0
Cd2 Cd 0.64798 0.03777 0.10007 0.0
O3 O 0.66821 0.01576 0.1583 0.0
O4 O 0.73378 0.04637 0.02034 0.0
O5 O 0.698 0.02994 0.98249 0.0
C6 C 0.72298 0.03448 0.97986 0.0
C7 C 0.60639 0.02515 0.06641 0.0
C8 C 0.69305 1.01228 0.15981 0.0
C9 C 0.67156 0.09268 0.10274 0.0
O10 O 0.65199 0.07763 0.11064 0.0
O11 O 0.69263 0.08403 0.08126 0.0
O12 O 0.60966 0.03234 0.11626 0.0
O13 O 0.62706 0.02383 0.03585 0.0
O14 O 0.50681 0.70448 0.12559 0.0
Cd15 Cd 0.4821 0.69794 0.06159 0.0
Cd16 Cd 0.48749 0.64563 0.10159 0.0
O17 O 0.50932 0.66477 0.16161 0.0
O18 O 0.48186 0.73378 0.02852 0.0
O19 O 0.49618 0.69888 0.98431 0.0
C20 C 0.49253 0.72398 0.98555 0.0
C21 C 0.49947 0.60365 0.06885 0.0
C22 C 0.51453 0.68924 0.16326 0.0
C23 C 0.43356 0.67143 0.10434 0.0
O24 O 0.44757 0.65091 0.11004 0.0
O25 O 0.44338 0.69256 0.08557 0.0
O26 O 0.49154 0.6072 0.11815 0.0
O27 O 0.50178 0.6242 0.0383 0.0
O28 O 0.82458 0.5078 0.12557 0.0
Cd29 Cd 0.83041 0.483 0.06148 0.0
Cd30 Cd 0.8829 0.48689 0.10063 0.0
O31 O 0.86444 0.50883 0.16142 0.0
O32 O 0.79442 0.48361 0.02891 0.0
O33 O 0.82956 0.49703 0.98416 0.0
C34 C 0.80435 0.49397 0.98575 0.0
C35 C 0.92478 0.49832 0.06637 0.0
C36 C 0.84009 0.51481 0.16334 0.0
C37 C 0.85592 0.43376 0.10357 0.0
O38 O 0.87689 0.44712 0.10869 0.0
O39 O 0.83493 0.44422 0.08543 0.0
O40 O 0.9216 0.49022 0.11566 0.0
O41 O 0.90394 0.50107 0.03672 0.0
O42 O 0.0233 0.82193 0.11585 0.0
Cd43 Cd 0.0477 0.83159 0.05308 0.0
Cd44 Cd 0.03871 0.8818 0.09844 0.0
O45 O 0.01656 0.86048 0.15474 0.0
O46 O 0.04945 0.79697 0.01536 0.0
O47 O 0.03336 0.83252 0.97607 0.0
C48 C 0.03801 0.80759 0.97408 0.0
C49 C 0.02559 0.92323 0.06509 0.0
C50 C 1.01342 0.83564 0.15385 0.0
C51 C 0.09418 0.85917 0.10086 0.0
O52 O 0.07863 0.87825 0.10984 0.0
O53 O 0.0861 0.83833 0.07773 0.0
O54 O 0.03235 0.91985 0.11521 0.0
O55 O 0.02494 0.90272 0.0341 0.0
O56 O 0.20655 1.01342 0.3624 0.0
Cd57 Cd 0.20035 0.98839 0.42597 0.0
Cd58 Cd 0.14777 0.99363 0.38667 0.0
O59 O 0.16667 0.01584 0.32692 0.0
O60 O 0.23636 0.98809 0.45836 0.0
O61 O 0.20153 1.00205 0.5035 0.0
C62 C 0.22668 0.99846 0.50173 0.0
C63 C 0.10572 1.00521 0.41994 0.0
C64 C 0.19114 0.02123 0.32509 0.0
C65 C 0.17394 0.93996 0.38284 0.0
O66 O 0.15329 0.95384 0.3775 0.0
O67 O 0.19508 0.94982 0.40146 0.0
O68 O 0.10924 0.99752 0.37049 0.0
O69 O 0.12633 1.00749 0.45039 0.0
O70 O 0.51728 0.20451 0.36337 0.0
Cd71 Cd 0.54169 0.1975 0.42767 0.0
Cd72 Cd 0.53631 0.14564 0.38697 0.0
O73 O 0.51431 0.16489 0.32725 0.0
O74 O 0.54165 0.23295 0.46232 0.0
O75 O 0.52725 0.19753 0.50465 0.0
C76 C 0.53084 0.22264 0.50463 0.0
C77 C 0.5243 0.10393 0.42088 0.0
C78 C 0.50936 0.18943 0.32567 0.0
C79 C 0.59028 0.17127 0.38483 0.0
O80 O 0.57622 0.15088 0.37821 0.0
O81 O 0.5805 0.19226 0.40432 0.0
O82 O 0.53211 0.10715 0.37139 0.0
O83 O 0.52212 0.12466 0.45092 0.0
O84 O 0.32455 0.51444 0.36012 0.0
Cd85 Cd 0.33006 0.5391 0.42453 0.0
Cd86 Cd 0.38264 0.53577 0.38526 0.0
O87 O 0.36442 0.51379 0.3243 0.0
O88 O 0.29401 0.53818 0.45675 0.0
O89 O 0.32914 0.52486 0.50169 0.0
C90 C 0.30391 0.52777 0.49989 0.0
C91 C 0.42461 0.52456 0.41946 0.0
C92 C 0.34014 0.50762 0.32232 0.0
C93 C 0.35511 0.58868 0.38308 0.0
O94 O 0.37621 0.57551 0.37767 0.0
O95 O 0.33424 0.57799 0.40114 0.0
O96 O 0.42138 0.53277 0.37025 0.0
O97 O 0.40379 0.52159 0.44905 0.0
O98 O 1.00991 0.323 0.36384 0.0
Cd99 Cd 0.98498 0.32925 0.42763 0.0
Cd100 Cd 0.98921 0.38142 0.38746 0.0
O101 O 1.01159 0.36272 0.32772 0.0
O102 O 0.98554 0.29364 0.4617 0.0
O103 O 0.99907 0.32914 0.50487 0.0
C104 C 0.99597 0.30396 0.50437 0.0
C105 C 1.00051 0.42344 0.42068 0.0
C106 C 0.01737 0.33837 0.32619 0.0
C107 C 0.93587 0.3546 0.38453 0.0
O108 O 0.9494 0.3754 0.37872 0.0
O109 O 0.94617 0.33374 0.40353 0.0
O110 O 0.99265 0.41994 0.37133 0.0
O111 O 1.00306 0.40284 0.45103 0.0
O112 O 0.32151 1.01132 0.86274 0.0
Cd113 Cd 0.32768 0.98661 0.92688 0.0
Cd114 Cd 0.38024 0.99172 0.88735 0.0
O115 O 0.36143 0.01396 0.82751 0.0
O116 O 0.29168 0.98665 0.95942 0.0
O117 O 0.32657 1.00082 0.00399 0.0
C118 C 0.30141 0.99734 0.00241 0.0
C119 C 0.42214 1.00329 0.9212 0.0
C120 C 0.33693 0.01924 0.82556 0.0
C121 C 0.35413 0.938 0.88464 0.0
O122 O 0.37467 0.95192 0.87859 0.0
O123 O 0.333 0.94788 0.90343 0.0
O124 O 0.41883 0.99549 0.87175 0.0
O125 O 0.4014 1.00567 0.95127 0.0
O126 O 0.5186 0.31938 0.86356 0.0
Cd127 Cd 0.54271 0.32699 0.92799 0.0
Cd128 Cd 0.53552 0.37884 0.88658 0.0
O129 O 0.51346 0.35895 0.82803 0.0
O130 O 0.54354 0.29158 0.9629 0.0
O131 O 0.52792 0.32666 0.00466 0.0
C132 C 0.53218 0.30164 0.00486 0.0
C133 C 0.52309 0.42066 0.91937 0.0
C134 C 0.50957 0.33422 0.82644 0.0
C135 C 0.59035 0.35455 0.88467 0.0
O136 O 0.5755 0.37431 0.87699 0.0
O137 O 0.58142 0.3334 0.90515 0.0
O138 O 0.53059 0.41713 0.86977 0.0
O139 O 0.52142 0.40014 0.95021 0.0
O140 O 0.20937 0.51273 0.85959 0.0
Cd141 Cd 0.20285 0.53808 0.92244 0.0
Cd142 Cd 0.15031 0.53169 0.88351 0.0
O143 O 0.16947 0.50917 0.8246 0.0
O144 O 0.23888 0.53912 0.95477 0.0
O145 O 0.20432 0.52483 0.00028 0.0
C146 C 0.22941 0.52878 -0.00162 0.0
C147 C 0.10863 0.51984 0.91824 0.0
C148 C 0.19406 0.50425 0.82279 0.0
C149 C 0.17554 0.58574 0.87763 0.0
O150 O 0.15519 0.57146 0.87261 0.0
O151 O 0.19685 0.57641 0.89677 0.0
O152 O 0.11175 0.52714 0.8684 0.0
O153 O 0.12945 0.51808 0.94824 0.0
O154 O 1.01009 0.20815 0.8636 0.0
Cd155 Cd 0.98541 0.20163 0.92767 0.0
Cd156 Cd 0.99117 0.14931 0.88773 0.0
O157 O 1.01347 0.16837 0.82832 0.0
O158 O 0.98496 0.23755 0.96017 0.0
O159 O 0.9995 0.20287 0.0049 0.0
C160 C 0.99569 0.22795 0.00327 0.0
C161 C 1.00295 0.10745 0.92135 0.0
C162 C 0.01833 0.19291 0.82644 0.0
C163 C 0.93711 0.17499 0.88456 0.0
O164 O 0.9513 0.15463 0.87834 0.0
O165 O 0.94672 0.19606 0.90394 0.0
O166 O 0.99532 0.11084 0.8718 0.0
O167 O 1.00507 0.12809 0.95166 0.0
O168 O 0.82123 0.0206 0.62294 0.0
Cd169 Cd 0.82901 0.04569 0.56025 0.0
Cd170 Cd 0.8805 0.03884 0.60394 0.0
O171 O 0.86034 0.01619 0.66118 0.0
O172 O 0.79346 0.0467 0.5259 0.0
O173 O 0.82855 0.03202 0.48267 0.0
C174 C 0.80345 0.036 0.48318 0.0
C175 C 0.92242 0.02693 0.57078 0.0
C176 C 0.83568 1.01166 0.66079 0.0
C177 C 0.85554 0.09318 0.60687 0.0
O178 O 0.87552 0.07861 0.6146 0.0
O179 O 0.83468 0.08412 0.58534 0.0
O180 O 0.91885 0.03395 0.62067 0.0
O181 O 0.90189 0.02543 0.53987 0.0
O182 O 0.50612 0.81929 0.62542 0.0
Cd183 Cd 0.48143 0.82653 0.56168 0.0
Cd184 Cd 0.48894 0.87866 0.60139 0.0
O185 O 0.51105 0.85899 0.6603 0.0
O186 O 0.48013 0.79076 0.52851 0.0
O187 O 0.4955 0.82527 0.48444 0.0
C188 C 0.49115 0.80028 0.48565 0.0
C189 C 0.50141 0.92021 0.56726 0.0
C190 C 0.51513 0.8343 0.66219 0.0
C191 C 0.43413 0.85461 0.60571 0.0
O192 O 0.44901 0.87444 0.6118 0.0
O193 O 0.44294 0.83326 0.58587 0.0
O194 O 0.49404 0.91703 0.61704 0.0
O195 O 0.50294 0.8995 0.53701 0.0
O196 O 0.70958 0.50806 0.62578 0.0
Cd197 Cd 0.70255 0.48318 0.56239 0.0
Cd198 Cd 0.65018 0.49079 0.60157 0.0
O199 O 0.66972 0.51304 0.66032 0.0
O200 O 0.73847 0.48173 0.52957 0.0
O201 O 0.704 0.49695 0.48495 0.0
C202 C 0.72903 0.49258 0.48643 0.0
C203 C 0.60856 0.50309 0.56712 0.0
C204 C 0.69444 0.51715 0.66232 0.0
C205 C 0.67439 0.4361 0.60687 0.0
O206 O 0.65447 0.45097 0.61255 0.0
O207 O 0.69581 0.44485 0.58714 0.0
O208 O 0.61171 0.49587 0.617 0.0
O209 O 0.62935 0.50459 0.53695 0.0
O210 O 0.02564 0.70949 0.61577 0.0
Cd211 Cd 0.04871 0.69903 0.5514 0.0
Cd212 Cd 0.03805 0.649 0.59505 0.0
O213 O 0.01641 0.67073 0.65152 0.0
O214 O 0.051 0.73301 0.51128 0.0
O215 O 0.03255 0.69761 0.47615 0.0
C216 C 0.03818 0.72228 0.47193 0.0
C217 C 0.02406 0.60779 0.5622 0.0
C218 C 0.01482 0.69572 0.65259 0.0
C219 C 0.09436 0.66958 0.59724 0.0
O220 O 0.07804 0.65126 0.60684 0.0
O221 O 0.0871 0.69067 0.57384 0.0
O222 O 0.03082 0.61116 0.6123 0.0
O223 O 0.02386 0.62822 0.53093 0.0
H224 H 0.63104 0.13654 0.39198 0.0
H225 H 0.7085 0.11031 0.17344 0.0
H226 H 0.60491 0.20599 0.30728 0.0
H227 H 0.63344 0.13044 0.10298 0.0
H228 H 0.69925 0.14014 0.2497 0.0
H229 H 0.66269 0.12823 0.31871 0.0
C230 C 0.63294 0.15073 0.35927 0.0
C231 C 0.61555 0.17203 0.35563 0.0
C232 C 0.68539 0.13885 0.21624 0.0
C233 C 0.65062 0.16204 0.27074 0.0
C234 C 0.69074 0.12212 0.17244 0.0
C235 C 0.67155 0.11784 0.13225 0.0
C236 C 0.66093 0.1516 0.21892 0.0
C237 C 0.64864 0.13318 0.13339 0.0
C238 C 0.65094 0.146 0.3174 0.0
C239 C 0.61825 0.18951 0.31171 0.0
N240 N 0.64377 0.14915 0.1766 0.0
N241 N 0.63467 0.18353 0.26971 0.0
H242 H 0.31903 0.60302 0.30762 0.0
H243 H 0.4187 0.70651 0.18114 0.0
H244 H 0.38931 0.62998 0.38837 0.0
H245 H 0.39309 0.63627 0.0988 0.0
H246 H 0.38835 0.69654 0.25615 0.0
H247 H 0.3275 0.63416 0.23328 0.0
C248 C 0.33538 0.61656 0.31128 0.0
C249 C 0.35364 0.61391 0.35388 0.0
C250 C 0.38847 0.6841 0.22033 0.0
C251 C 0.36317 0.64945 0.26969 0.0
C252 C 0.40556 0.68985 0.17731 0.0
C253 C 0.40841 0.67205 0.13401 0.0
C254 C 0.37379 0.66081 0.219 0.0
C255 C 0.39142 0.65041 0.1316 0.0
C256 C 0.34028 0.63412 0.26865 0.0
C257 C 0.37484 0.63146 0.3561 0.0
N258 N 0.37505 0.64515 0.17404 0.0
N259 N 0.37927 0.64829 0.31404 0.0
H260 H 0.82005 0.41956 0.17952 0.0
H261 H 0.9216 0.31864 0.30902 0.0
H262 H 0.89052 0.3927 0.09909 0.0
H263 H 0.89479 0.38918 0.38879 0.0
H264 H 0.89096 0.32741 0.23387 0.0
H265 H 0.82906 0.38913 0.25485 0.0
C266 C 0.83656 0.40615 0.17617 0.0
C267 C 0.85472 0.40868 0.13334 0.0
C268 C 0.8909 0.34018 0.26919 0.0
C269 C 0.86487 0.37394 0.21869 0.0
C270 C 0.90816 0.33512 0.31228 0.0
C271 C 0.91074 0.35336 0.35486 0.0
C272 C 0.87577 0.36323 0.26973 0.0
C273 C 0.89335 0.37472 0.35655 0.0
C274 C 0.84176 0.38901 0.21936 0.0
C275 C 0.87612 0.39132 0.13152 0.0
N276 N 0.87681 0.37931 0.31405 0.0
N277 N 0.88085 0.3749 0.17414 0.0
H278 H 0.11232 0.82233 0.1712 0.0
H279 H 0.13943 0.89911 0.39034 0.0
H280 H 0.13151 0.89759 0.10122 0.0
H281 H 0.20824 0.92581 0.304 0.0
H282 H 0.13078 0.86776 0.31685 0.0
H283 H 0.14247 0.83155 0.24706 0.0
C284 C 0.12398 0.84014 0.17024 0.0
C285 C 0.11939 0.85936 0.13028 0.0
C286 C 0.14849 0.87957 0.31519 0.0
C287 C 0.1535 0.86995 0.21643 0.0
C288 C 0.15342 0.89741 0.35718 0.0
C289 C 0.17462 0.91487 0.35318 0.0
C290 C 0.16424 0.88013 0.26808 0.0
C291 C 0.19184 0.91241 0.30871 0.0
C292 C 0.1409 0.84547 0.21378 0.0
C293 C 0.13452 0.88235 0.13144 0.0
N294 N 0.18566 0.89615 0.26666 0.0
N295 N 0.15068 0.8872 0.17438 0.0
H296 H 0.38868 0.89722 0.89382 0.0
H297 H 0.41638 0.81849 0.6782 0.0
H298 H 0.31999 0.92321 0.80606 0.0
H299 H 0.39631 0.89267 0.60417 0.0
H300 H 0.38623 0.82843 0.75366 0.0
H301 H 0.39745 0.86517 0.82168 0.0
C302 C 0.37474 0.89523 0.86066 0.0
C303 C 0.35353 0.91267 0.85586 0.0
C304 C 0.38763 0.84194 0.71964 0.0
C305 C 0.36404 0.87711 0.77224 0.0
C306 C 0.40455 0.8362 0.6763 0.0
C307 C 0.40893 0.85495 0.6353 0.0
C308 C 0.3748 0.86636 0.72106 0.0
C309 C 0.39352 0.87781 0.63525 0.0
C310 C 0.37973 0.87699 0.81943 0.0
C311 C 0.33638 0.90984 0.81139 0.0
N312 N 0.37737 0.88307 0.67803 0.0
N313 N 0.34262 0.89315 0.77005 0.0
H314 H 0.71022 0.41872 0.68043 0.0
H315 H 0.63023 0.39 0.89446 0.0
H316 H 0.63649 0.39821 0.60483 0.0
H317 H 0.6062 0.32097 0.80607 0.0
H318 H 0.66245 0.39951 0.82286 0.0
H319 H 0.70009 0.38857 0.75575 0.0
C320 C 0.69259 0.4068 0.67819 0.0
C321 C 0.67401 0.41102 0.63673 0.0
C322 C 0.65103 0.38159 0.82038 0.0
C323 C 0.6624 0.37689 0.7223 0.0
C324 C 0.6327 0.37617 0.86128 0.0
C325 C 0.6158 0.3546 0.85618 0.0
C326 C 0.6515 0.36595 0.77317 0.0
C327 C 0.61919 0.33762 0.81165 0.0
C328 C 0.68674 0.38988 0.72144 0.0
C329 C 0.65122 0.39553 0.63625 0.0
N330 N 0.63593 0.34424 0.77062 0.0
N331 N 0.64586 0.37936 0.67893 0.0
H332 H 0.11391 0.70536 0.66805 0.0
H333 H 0.14085 0.62646 0.88571 0.0
H334 H 0.13034 0.62983 0.59638 0.0
H335 H 0.2089 0.59961 0.79692 0.0
H336 H 0.13164 0.65793 0.81251 0.0
H337 H 0.14409 0.69475 0.74317 0.0
C338 C 0.12499 0.68717 0.66655 0.0
C339 C 0.11965 0.66833 0.62627 0.0
C340 C 0.1493 0.64602 0.81022 0.0
C341 C 0.15379 0.65618 0.71155 0.0
C342 C 0.15455 0.62813 0.85202 0.0
C343 C 0.17575 0.61067 0.84736 0.0
C344 C 0.16471 0.64552 0.76265 0.0
C345 C 0.19254 0.61304 0.80218 0.0
C346 C 0.14191 0.68106 0.70967 0.0
C347 C 0.13399 0.64481 0.62679 0.0
N348 N 0.18606 0.62939 0.76039 0.0
N349 N 0.15021 0.63923 0.66929 0.0
H350 H 0.922 0.2101 0.80801 0.0
H351 H 0.82031 0.1081 0.68333 0.0
H352 H 0.89676 0.13971 0.89046 0.0
H353 H 0.89088 0.13343 0.60135 0.0
H354 H 0.82991 0.13889 0.75771 0.0
H355 H 0.89122 0.20033 0.73364 0.0
C356 C 0.90887 0.19344 0.812 0.0
C357 C 0.9119 0.17557 0.85515 0.0
C358 C 0.8425 0.13859 0.72207 0.0
C359 C 0.87679 0.16457 0.77097 0.0
C360 C 0.83697 0.12126 0.67945 0.0
C361 C 0.85493 0.11829 0.6364 0.0
C362 C 0.86574 0.1534 0.72058 0.0
C363 C 0.8766 0.13525 0.63391 0.0
C364 C 0.89153 0.18781 0.76938 0.0
C365 C 0.89493 0.15392 0.8578 0.0
N366 N 0.88162 0.1519 0.67593 0.0
N367 N 0.8783 0.14879 0.81575 0.0
H368 H 0.70825 1.00333 0.89368 0.0
H369 H 0.7878 0.9878 0.66598 0.0
H370 H 0.77508 0.04408 0.96154 0.0
H371 H 0.85161 0.0148 0.76727 0.0
H372 H 0.75913 0.98724 0.74477 0.0
H373 H 0.73599 0.98766 0.81956 0.0
C374 C 0.72873 1.00922 0.89257 0.0
C375 C 0.73921 0.02541 0.93339 0.0
C376 C 0.7795 0.99252 0.75085 0.0
C377 C 0.77137 1.00783 0.84788 0.0
C378 C 0.79603 0.99267 0.70545 0.0
C379 C 0.82206 1.00169 0.70986 0.0
C380 C 0.78905 1.00159 0.80125 0.0
C381 C 0.83167 1.00775 0.76192 0.0
C382 C 0.74471 1.00026 0.85 0.0
C383 C 0.76602 0.03191 0.93061 0.0
N384 N 0.815 1.00817 0.80532 0.0
N385 N 0.78106 0.02324 0.88852 0.0
H386 H 0.53744 0.78581 0.67294 0.0
H387 H 0.48984 0.77751 0.98132 0.0
H388 H 0.51241 0.85301 0.76674 0.0
H389 H 0.51535 0.71031 0.88786 0.0
H390 H 0.50398 0.80627 0.90745 0.0
H391 H 0.53747 0.75936 0.75593 0.0
C392 C 0.53277 0.79522 0.71136 0.0
C393 C 0.52454 0.82158 0.71278 0.0
C394 C 0.50666 0.78526 0.90312 0.0
C395 C 0.52373 0.79117 0.80774 0.0
C396 C 0.49842 0.76876 0.9452 0.0
C397 C 0.50109 0.74138 0.94052 0.0
C398 C 0.51759 0.77437 0.85568 0.0
C399 C 0.51265 0.73126 0.893 0.0
C400 C 0.53252 0.78002 0.75869 0.0
C401 C 0.51881 0.83276 0.76368 0.0
N402 N 0.52029 0.74775 0.85225 0.0
N403 N 0.51795 0.81735 0.80899 0.0
H404 H 0.75068 0.49223 0.98192 0.0
H405 H 0.74295 0.53945 0.67321 0.0
H406 H 0.81827 0.51643 0.88787 0.0
H407 H 0.67547 0.51468 0.76675 0.0
H408 H 0.76931 0.53947 0.75634 0.0
H409 H 0.72202 0.50668 0.90806 0.0
C410 C 0.75953 0.5006 0.94568 0.0
C411 C 0.78699 0.5028 0.94081 0.0
C412 C 0.7486 0.53459 0.75901 0.0
C413 C 0.75411 0.51964 0.856 0.0
C414 C 0.73345 0.53484 0.7116 0.0
C415 C 0.70705 0.52666 0.71291 0.0
C416 C 0.73735 0.52586 0.80803 0.0
C417 C 0.69576 0.52103 0.76378 0.0
C418 C 0.74309 0.50901 0.90361 0.0
C419 C 0.79725 0.51409 0.89315 0.0
N420 N 0.71113 0.52016 0.80917 0.0
N421 N 0.78081 0.5219 0.85242 0.0
H422 H 0.0153 0.82328 0.87753 0.0
H423 H 1.01269 0.67716 0.75743 0.0
H424 H 0.04047 0.75422 0.96558 0.0
H425 H 0.99821 0.74656 0.66079 0.0
H426 H 1.01283 0.70444 0.83948 0.0
H427 H 1.00098 0.79501 0.80226 0.0
C428 C 0.01782 0.80221 0.88104 0.0
C429 C 0.02943 0.79115 0.9276 0.0
C430 C 1.00908 0.71363 0.80041 0.0
C431 C 1.01273 0.75867 0.84219 0.0
C432 C 1.00861 0.69798 0.7536 0.0
C433 C 1.00586 0.70966 0.70212 0.0
C434 C 1.00674 0.74109 0.79555 0.0
C435 C 1.0008 0.7368 0.69967 0.0
C436 C 1.00951 0.78607 0.83824 0.0
C437 C 0.03193 0.76368 0.93021 0.0
N438 N 1.00187 0.75166 0.74558 0.0
N439 N 0.02376 0.74843 0.88808 0.0
H440 H 0.28028 0.99514 0.50569 0.0
H441 H 0.28917 0.04311 0.81377 0.0
H442 H 0.21332 0.02128 0.59955 0.0
H443 H 0.35584 0.01537 0.72125 0.0
H444 H 0.26291 0.04359 0.73053 0.0
H445 H 0.30929 1.00881 0.57953 0.0
C446 C 0.27163 1.00376 0.54188 0.0
C447 C 0.24424 1.00675 0.5467 0.0
C448 C 0.28343 0.03794 0.72811 0.0
C449 C 0.27753 0.0227 0.63146 0.0
C450 C 0.29854 0.03792 0.77558 0.0
C451 C 0.32464 0.02878 0.77462 0.0
C452 C 0.29443 0.02854 0.67938 0.0
C453 C 0.33578 0.02245 0.72396 0.0
C454 C 0.28828 1.01172 0.58394 0.0
C455 C 0.23427 0.01834 0.59431 0.0
N456 N 0.32044 0.02189 0.67852 0.0
N457 N 0.2509 0.02572 0.63501 0.0
H458 H 0.50769 0.20778 0.60119 0.0
H459 H 0.51017 0.3535 0.722 0.0
H460 H 0.53348 0.2761 0.51161 0.0
H461 H 0.48922 0.28489 0.81585 0.0
H462 H 0.50962 0.3267 0.63931 0.0
H463 H 0.49368 0.23655 0.67584 0.0
C464 C 0.51038 0.2288 0.59719 0.0
C465 C 0.5221 0.2395 0.5504 0.0
C466 C 0.50459 0.31761 0.67786 0.0
C467 C 0.50585 0.27257 0.63528 0.0
C468 C 0.50454 0.33303 0.72503 0.0
C469 C 0.50019 0.32132 0.77604 0.0
C470 C 0.50029 0.29037 0.68188 0.0
C471 C 0.49311 0.29463 0.77743 0.0
C472 C 0.50225 0.24524 0.63966 0.0
C473 C 0.52483 0.26693 0.54717 0.0
N474 N 0.49388 0.27995 0.73124 0.0
N475 N 0.51693 0.28247 0.5891 0.0
H476 H 0.25023 0.52934 0.50334 0.0
H477 H 0.24226 0.48121 0.81143 0.0
H478 H 0.31776 0.50505 0.59759 0.0
H479 H 0.17501 0.50716 0.71846 0.0
H480 H 0.26858 0.48115 0.72824 0.0
H481 H 0.2215 0.51467 0.57688 0.0
C482 C 0.25906 0.5209 0.53955 0.0
C483 C 0.28651 0.51875 0.54459 0.0
C484 C 0.24793 0.48631 0.72571 0.0
C485 C 0.25356 0.50166 0.62902 0.0
C486 C 0.23279 0.48607 0.77315 0.0
C487 C 0.20649 0.49463 0.77206 0.0
C488 C 0.23675 0.49537 0.67687 0.0
C489 C 0.19523 0.50055 0.72129 0.0
C490 C 0.24258 0.51237 0.58143 0.0
C491 C 0.29674 0.50736 0.59219 0.0
N492 N 0.21058 0.50139 0.67588 0.0
N493 N 0.28026 0.49942 0.63274 0.0
H494 H 0.01937 0.31876 0.60062 0.0
H495 H 0.01648 0.17332 0.72237 0.0
H496 H 0.99342 0.25048 0.51129 0.0
H497 H 0.03996 0.24164 0.81433 0.0
H498 H 0.01675 0.1999 0.63934 0.0
H499 H 0.03374 0.28996 0.67493 0.0
C500 C 0.01671 0.29774 0.59661 0.0
C501 C 1.00485 0.28707 0.54998 0.0
C502 C 0.02241 0.20896 0.67751 0.0
C503 C 0.02151 0.25394 0.63451 0.0
C504 C 0.02262 0.19366 0.72488 0.0
C505 C 0.02774 0.20538 0.77553 0.0
C506 C 0.02729 0.23612 0.68101 0.0
C507 C 0.03546 0.23189 0.77622 0.0
C508 C 0.02506 0.28127 0.63888 0.0
C509 C 1.00218 0.25963 0.54674 0.0
N510 N 0.03449 0.24649 0.72991 0.0
N511 N 1.01027 0.24407 0.5885 0.0
H512 H 0.23901 0.0448 0.31286 0.0
H513 H 0.2478 0.9945 0.0064 0.0
H514 H 0.17221 0.01712 0.22086 0.0
H515 H 0.31487 0.02081 0.09947 0.0
H516 H 0.21883 1.00904 0.07966 0.0
H517 H 0.26534 0.04453 0.22968 0.0
C518 C 0.22963 0.03947 0.27477 0.0
C519 C 0.20347 0.03055 0.27399 0.0
C520 C 0.23986 1.0118 0.08402 0.0
C521 C 0.23375 0.02945 0.17885 0.0
C522 C 0.25648 1.00334 0.0423 0.0
C523 C 0.28388 1.00612 0.04708 0.0
C524 C 0.25065 0.02308 0.13118 0.0
C525 C 0.2939 0.01802 0.09429 0.0
C526 C 0.24478 0.03906 0.22734 0.0
C527 C 0.19232 0.02404 0.22346 0.0
N528 N 0.2773 0.02588 0.13468 0.0
N529 N 0.20769 0.02305 0.17808 0.0
H530 H 0.51199 0.17022 0.22136 0.0
H531 H 0.50756 0.31592 0.10023 0.0
H532 H 0.4877 0.2382 0.31369 0.0
H533 H 0.53632 0.24827 0.01233 0.0
H534 H 0.49332 0.2868 0.17412 0.0
H535 H 0.51206 0.19707 0.13868 0.0
C536 C 0.50575 0.19054 0.224 0.0
C537 C 0.50028 0.20209 0.27469 0.0
C538 C 0.5026 0.27832 0.13848 0.0
C539 C 0.5011 0.23312 0.18056 0.0
C540 C 0.51088 0.29497 0.09645 0.0
C541 C 0.52347 0.28458 0.05034 0.0
C542 C 0.50693 0.25109 0.13434 0.0
C543 C 0.52697 0.25722 0.04737 0.0
C544 C 0.50617 0.206 0.17685 0.0
C545 C 0.49246 0.22859 0.27555 0.0
N546 N 0.5189 0.24148 0.08886 0.0
N547 N 0.4936 0.24333 0.22944 0.0
H548 H 0.29298 0.48279 0.30921 0.0
H549 H 0.28289 0.53352 0.00278 0.0
H550 H 0.35887 0.51335 0.2182 0.0
H551 H 0.21656 0.50533 0.09588 0.0
H552 H 0.3122 0.52011 0.07644 0.0
H553 H 0.26671 0.48278 0.22597 0.0
C554 C 0.3022 0.48872 0.27131 0.0
C555 C 0.32806 0.49847 0.27086 0.0
C556 C 0.29126 0.5167 0.08072 0.0
C557 C 0.29781 0.49925 0.17564 0.0
C558 C 0.27445 0.52451 0.03877 0.0
C559 C 0.24714 0.52084 0.04341 0.0
C560 C 0.28077 0.50516 0.12793 0.0
C561 C 0.23743 0.5088 0.09078 0.0
C562 C 0.28707 0.48897 0.22386 0.0
C563 C 0.339 0.50576 0.22055 0.0
N564 N 0.25422 0.50155 0.13134 0.0
N565 N 0.32364 0.50654 0.17515 0.0
H566 H 0.99216 0.28143 0.00714 0.0
H567 H 0.04141 0.29072 0.31435 0.0
H568 H 0.01906 0.21474 0.10068 0.0
H569 H 1.01317 0.35712 0.2218 0.0
H570 H 0.04167 0.26442 0.23125 0.0
H571 H 1.00608 0.31049 0.08061 0.0
C572 C 1.001 0.27286 0.04319 0.0
C573 C 1.00413 0.24553 0.04804 0.0
C574 C 0.03596 0.28489 0.22879 0.0
C575 C 0.02037 0.27887 0.13238 0.0
C576 C 0.03606 0.30003 0.27618 0.0
C577 C 0.02683 0.32606 0.2752 0.0
C578 C 0.02636 0.2958 0.18013 0.0
C579 C 0.02031 0.33711 0.22456 0.0
C580 C 1.00911 0.28953 0.08503 0.0
C581 C 0.01601 0.23565 0.09544 0.0
N582 N 0.01963 0.32175 0.17921 0.0
N583 N 0.02352 0.2523 0.13595 0.0
H584 H 0.74225 0.99135 0.16991 0.0
H585 H 0.74988 0.03877 0.47814 0.0
H586 H 0.67446 0.01431 0.26454 0.0
H587 H 0.81753 1.01333 0.38559 0.0
H588 H 0.72133 0.02445 0.40414 0.0
H589 H 0.76887 0.99177 0.25268 0.0
C590 C 0.73277 0.99567 0.20845 0.0
C591 C 0.70617 1.00319 0.2102 0.0
C592 C 0.74239 0.02183 0.40003 0.0
C593 C 0.73674 1.00449 0.3049 0.0
C594 C 0.75878 0.03019 0.44216 0.0
C595 C 0.78622 0.02756 0.4378 0.0
C596 C 0.75345 1.01085 0.35281 0.0
C597 C 0.79652 0.01599 0.39047 0.0
C598 C 0.74806 0.99616 0.25566 0.0
C599 C 0.6949 1.00847 0.26124 0.0
N600 N 0.78014 1.00825 0.34963 0.0
N601 N 0.71038 1.00959 0.30642 0.0
H602 H 0.48672 0.74687 0.48103 0.0
H603 H 0.53802 0.73709 0.17524 0.0
H604 H 0.51516 0.81329 0.38878 0.0
H605 H 0.5098 0.67071 0.2677 0.0
H606 H 0.53754 0.76359 0.25809 0.0
H607 H 0.50079 0.71772 0.40777 0.0
C608 C 0.49591 0.75537 0.44529 0.0
C609 C 0.49946 0.78265 0.44078 0.0
C610 C 0.53199 0.74308 0.26061 0.0
C611 C 0.51589 0.7492 0.35668 0.0
C612 C 0.53252 0.72784 0.21338 0.0
C613 C 0.52356 0.70173 0.21437 0.0
C614 C 0.52219 0.73222 0.30914 0.0
C615 C 0.51679 0.69076 0.26495 0.0
C616 C 0.50411 0.73864 0.40358 0.0
C617 C 0.51177 0.79243 0.39376 0.0
N618 N 0.51569 0.70622 0.31012 0.0
N619 N 0.51938 0.77573 0.35338 0.0
H620 H 0.78249 0.48752 0.48176 0.0
H621 H 0.79274 0.5394 0.17631 0.0
H622 H 0.71624 0.51667 0.38955 0.0
H623 H 0.85875 0.50912 0.2675 0.0
H624 H 0.76636 0.53914 0.25941 0.0
H625 H 0.81183 0.50123 0.40844 0.0
C626 C 0.77407 0.4968 0.44603 0.0
C627 C 0.74678 0.50065 0.44154 0.0
C628 C 0.78677 0.53308 0.2616 0.0
C629 C 0.78045 0.51668 0.35739 0.0
C630 C 0.80196 0.53349 0.21423 0.0
C631 C 0.82789 0.52388 0.21476 0.0
C632 C 0.79751 0.52279 0.30982 0.0
C633 C 0.83882 0.5166 0.26509 0.0
C634 C 0.79091 0.50478 0.40427 0.0
C635 C 0.73711 0.51306 0.39452 0.0
N636 N 0.8234 0.51565 0.3104 0.0
N637 N 0.75391 0.52046 0.35412 0.0
H638 H 0.9921 0.78661 0.15747 0.0
H639 H 1.00612 0.70767 0.38695 0.0
H640 H 0.01527 0.85109 0.26072 0.0
H641 H 0.04874 0.77395 0.45181 0.0
H642 H 0.99022 0.73538 0.31276 0.0
H643 H 0.99243 0.75761 0.23586 0.0
C644 C 0.99626 0.79488 0.19724 0.0
C645 C 1.00394 0.82127 0.20241 0.0
C646 C 1.00333 0.7439 0.34257 0.0
C647 C 1.0047 0.78795 0.29323 0.0
C648 C 1.0124 0.72798 0.38515 0.0
C649 C 0.02915 0.73835 0.42517 0.0
C650 C 1.01131 0.77037 0.3397 0.0
C651 C 0.03614 0.76498 0.42152 0.0
C652 C 0.99655 0.7782 0.24237 0.0
C653 C 1.00921 0.83091 0.25482 0.0
N654 N 0.0273 0.77997 0.37951 0.0
N655 N 1.01009 0.81411 0.29796 0.0
H656 H 0.43672 0.01674 0.02555 0.0
H657 H 0.59186 1.0121 0.9618 0.0
H658 H 0.46905 0.99971 0.86673 0.0
H659 H 0.55952 0.0276 0.12128 0.0
H660 H 0.54706 1.00726 0.92623 0.0
H661 H 0.48153 0.02134 0.06117 0.0
C662 C 0.45321 0.01414 -0.00193 0.0
C663 C 0.44905 1.00785 0.94302 0.0
C664 C 0.54977 1.01163 0.96907 0.0
C665 C 0.50051 1.01287 0.98365 0.0
C666 C 0.57538 0.0143 0.98944 0.0
C667 C 0.57953 0.02024 0.04465 0.0
C668 C 0.52808 0.01498 0.00408 0.0
C669 C 0.55733 0.02299 0.07844 0.0
C670 C 0.47882 0.01666 0.01848 0.0
C671 C 0.47125 1.00459 0.90943 0.0
N672 N 0.53265 0.02041 0.05764 0.0
N673 N 0.49594 1.00709 0.93026 0.0
H674 H 0.52534 0.46712 0.86326 0.0
H675 H 0.49653 0.55717 0.12475 0.0
H676 H 0.51016 0.43582 0.02375 0.0
H677 H 0.51275 0.58845 0.96469 0.0
H678 H 0.50155 0.51273 0.08863 0.0
H679 H 0.52022 0.51153 0.89938 0.0
C680 C 0.52076 0.46954 0.90609 0.0
C681 C 0.51816 0.4476 0.94049 0.0
C682 C 0.5041 0.52928 0.06137 0.0
C683 C 0.51245 0.49868 0.98234 0.0
C684 C 0.50131 0.55473 0.08201 0.0
C685 C 0.50425 0.57668 0.04774 0.0
C686 C 0.50983 0.52559 0.00588 0.0
C687 C 0.51037 0.57218 0.99269 0.0
C688 C 0.51792 0.49499 0.92673 0.0
C689 C 0.51228 0.45209 -0.00434 0.0
N690 N 0.51289 0.54718 0.97349 0.0
N691 N 0.50969 0.47709 0.01485 0.0
H692 H 0.93906 0.51242 0.96216 0.0
H693 H 0.09444 0.50641 0.02292 0.0
H694 H 0.9719 0.49404 0.1199 0.0
H695 H 0.06151 0.52315 0.86448 0.0
H696 H 0.04976 0.50169 0.05925 0.0
H697 H 0.98376 0.51703 0.92591 0.0
C698 C 0.95564 0.50952 0.98928 0.0
C699 C 0.95164 0.50285 0.04421 0.0
C700 C 0.05231 0.50632 0.01648 0.0
C701 C 1.00299 0.50791 0.00284 0.0
C702 C 0.07785 0.50893 -0.00433 0.0
C703 C 0.08181 0.51517 0.94052 0.0
C704 C 0.03049 0.51002 0.98197 0.0
C705 C 0.05949 0.5183 0.90725 0.0
C706 C 0.98119 0.51206 0.9685 0.0
C707 C 0.97396 0.49923 0.07731 0.0
N708 N 0.03487 0.51576 0.92847 0.0
N709 N 0.99859 0.50175 0.05614 0.0
H710 H 0.01588 0.09266 0.02591 0.0
H711 H 1.01322 0.93797 0.96021 0.0
H712 H 1.0001 0.06076 0.86628 0.0
H713 H 0.02692 0.96985 0.1207 0.0
H714 H 1.00817 0.98276 0.92504 0.0
H715 H 0.02061 0.04785 0.06118 0.0
C716 C 1.01358 0.07627 -0.00182 0.0
C717 C 1.00761 0.08055 0.94301 0.0
C718 C 1.01219 0.97995 0.968 0.0
C719 C 1.01278 0.02909 0.98322 0.0
C720 C 0.01497 0.95435 0.98815 0.0
C721 C 0.02048 0.95007 0.04354 0.0
C722 C 0.01499 1.00152 0.00341 0.0
C723 C 0.02266 0.97213 0.07772 0.0
C724 C 0.01618 0.05066 0.01839 0.0
C725 C 1.00473 0.05847 0.90909 0.0
N726 N 0.01999 0.99683 0.05712 0.0
N727 N 1.0073 0.03377 0.92972 0.0
H728 H 0.05914 1.00245 0.3642 0.0
H729 H 0.96898 0.02904 0.62682 0.0
H730 H 0.09054 0.01777 0.52451 0.0
H731 H 0.93764 0.01485 0.46601 0.0
H732 H 1.01348 0.02441 0.5904 0.0
H733 H 0.01464 1.00705 0.40066 0.0
C734 C 0.05671 1.00694 0.40707 0.0
C735 C 0.07871 1.00974 0.44131 0.0
C736 C 0.9969 0.02223 0.56305 0.0
C737 C 0.02755 0.01484 0.48355 0.0
C738 C 0.97141 0.02478 0.58386 0.0
C739 C 0.94943 0.02231 0.54946 0.0
C740 C 1.0006 0.01718 0.50728 0.0
C741 C 0.95394 0.01686 0.49411 0.0
C742 C 0.03123 1.00949 0.4279 0.0
C743 C 0.07422 0.01551 0.49653 0.0
N744 N 0.97897 0.01454 0.47477 0.0
N745 N 0.04919 0.01779 0.51592 0.0
H746 H 0.51475 0.93455 0.46263 0.0
H747 H 0.51058 0.08953 0.52524 0.0
H748 H 0.49875 0.96712 0.62162 0.0
H749 H 0.52763 0.05701 0.36667 0.0
H750 H 0.50565 0.04486 0.56109 0.0
H751 H 0.51978 0.97921 0.42674 0.0
C752 C 0.51247 0.95105 0.49009 0.0
C753 C 0.50634 0.947 0.54527 0.0
C754 C 0.5104 0.0475 0.5184 0.0
C755 C 0.51183 0.99829 0.50432 0.0
C756 C 0.51311 0.07303 0.49786 0.0
C757 C 0.51951 0.07711 0.44281 0.0
C758 C 0.51411 0.02579 0.48371 0.0
C759 C 0.52267 0.05489 0.40936 0.0
C760 C 0.51525 0.97658 0.46953 0.0
C761 C 0.5035 0.96922 0.57883 0.0
N762 N 0.51999 0.03027 0.43031 0.0
N763 N 0.5062 0.99383 0.55784 0.0
H764 H 0.59431 0.51648 0.46244 0.0
H765 H 0.43898 0.5104 0.52358 0.0
H766 H 0.56149 0.50008 0.62112 0.0
H767 H 0.4717 0.52908 0.3659 0.0
H768 H 0.4837 0.50588 0.55975 0.0
H769 H 0.54961 0.52125 0.42624 0.0
C770 C 0.57774 0.51406 0.48977 0.0
C771 C 0.58174 0.50789 0.54495 0.0
C772 C 0.4811 0.5109 0.51719 0.0
C773 C 0.5304 0.51308 0.50365 0.0
C774 C 0.45554 0.51339 0.49646 0.0
C775 C 0.45151 0.52011 0.44157 0.0
C776 C 0.50288 0.51516 0.48284 0.0
C777 C 0.47379 0.52385 0.40846 0.0
C778 C 0.55219 0.5167 0.46904 0.0
C779 C 0.55944 0.50487 0.57833 0.0
N780 N 0.49844 0.52137 0.42958 0.0
N781 N 0.53481 0.50742 0.55717 0.0
H782 H 1.01151 0.59298 0.45748 0.0
H783 H 1.01368 0.43842 0.52491 0.0
H784 H 0.02471 0.56131 0.61843 0.0
H785 H 0.99718 0.47005 0.36524 0.0
H786 H 0.01844 0.48328 0.55965 0.0
H787 H 1.00604 0.54816 0.42286 0.0
C788 C 1.01305 0.57664 0.48564 0.0
C789 C 0.01857 0.58099 0.54099 0.0
C790 C 1.01383 0.48041 0.51697 0.0
C791 C 1.01261 0.52952 0.5015 0.0
C792 C 1.01122 0.45476 0.49707 0.0
C793 C 1.00505 0.45039 0.44203 0.0
C794 C 1.01027 0.50192 0.48164 0.0
C795 C 1.00196 0.47241 0.40796 0.0
C796 C 1.01003 0.55102 0.46581 0.0
C797 C 0.02046 0.55898 0.57547 0.0
N798 N 1.00458 0.49714 0.42828 0.0
N799 N 0.01759 0.53428 0.55517 0.0
loop_
_geom_bond_atom_site_label_1
_geom_bond_atom_site_label_2
_geom_bond_distance
_geom_bond_site_symmetry_2
_ccdc_geom_bond_type
O0 Cd1 2.223 . S
O0 C8 1.315 . S
Cd1 O0 2.223 . S
Cd1 O4 2.297 1_554 S
Cd1 O5 2.439 1_554 S
Cd1 O11 2.240 . S
Cd2 O3 2.240 . S
Cd2 O10 2.223 . S
Cd2 O12 2.297 . S
Cd2 O13 2.439 . S
O3 Cd2 2.240 . S
O3 C8 1.279 . S
O4 Cd1 2.297 1_556 S
O4 C6 1.247 . S
O5 Cd1 2.439 1_556 S
O5 C6 1.208 . S
C6 O4 1.247 . S
C6 O5 1.208 . S
C7 O12 1.247 . S
C7 O13 1.208 . S
C8 O0 1.315 . S
C8 O3 1.279 . S
C9 O10 1.315 . S
C9 O11 1.279 . S
O10 Cd2 2.223 . S
O10 C9 1.315 . S
O11 Cd1 2.240 . S
O11 C9 1.279 . S
O12 Cd2 2.297 . S
O12 C7 1.247 . S
O13 Cd2 2.439 . S
O13 C7 1.208 . S
O14 Cd15 2.223 . S
O14 C22 1.315 . S
Cd15 O14 2.223 . S
Cd15 O18 2.297 1_554 S
Cd15 O19 2.439 1_554 S
Cd15 O25 2.240 . S
Cd16 O17 2.240 . S
Cd16 O24 2.223 . S
Cd16 O26 2.297 . S
Cd16 O27 2.439 . S
O17 Cd16 2.240 . S
O17 C22 1.279 . S
O18 Cd15 2.297 1_556 S
O18 C20 1.247 . S
O19 Cd15 2.439 1_556 S
O19 C20 1.208 . S
C20 O18 1.247 . S
C20 O19 1.208 . S
C21 O26 1.247 . S
C21 O27 1.208 . S
C22 O14 1.315 . S
C22 O17 1.279 . S
C23 O24 1.315 . S
C23 O25 1.279 . S
O24 Cd16 2.223 . S
O24 C23 1.315 . S
O25 Cd15 2.240 . S
O25 C23 1.279 . S
O26 Cd16 2.297 . S
O26 C21 1.247 . S
O27 Cd16 2.439 . S
O27 C21 1.208 . S
O28 Cd29 2.223 . S
O28 C36 1.315 . S
Cd29 O28 2.223 . S
Cd29 O32 2.297 1_554 S
Cd29 O33 2.439 1_554 S
Cd29 O39 2.240 . S
Cd30 O31 2.240 . S
Cd30 O38 2.223 . S
Cd30 O40 2.297 . S
Cd30 O41 2.439 . S
O31 Cd30 2.240 . S
O31 C36 1.279 . S
O32 Cd29 2.297 1_556 S
O32 C34 1.247 . S
O33 Cd29 2.439 1_556 S
O33 C34 1.208 . S
C34 O32 1.247 . S
C34 O33 1.208 . S
C35 O40 1.247 . S
C35 O41 1.208 . S
C36 O28 1.315 . S
C36 O31 1.279 . S
C37 O38 1.315 . S
C37 O39 1.279 . S
O38 Cd30 2.223 . S
O38 C37 1.315 . S
O39 Cd29 2.240 . S
O39 C37 1.279 . S
O40 Cd30 2.297 . S
O40 C35 1.247 . S
O41 Cd30 2.439 . S
O41 C35 1.208 . S
O42 Cd43 2.223 . S
O42 C50 1.315 . S
Cd43 O42 2.223 . S
Cd43 O46 2.297 1_554 S
Cd43 O47 2.439 1_554 S
Cd43 O53 2.240 . S
Cd44 O45 2.240 . S
Cd44 O52 2.223 . S
Cd44 O54 2.297 . S
Cd44 O55 2.439 . S
O45 Cd44 2.240 . S
O45 C50 1.279 . S
O46 Cd43 2.297 1_556 S
O46 C48 1.247 . S
O47 Cd43 2.439 1_556 S
O47 C48 1.208 . S
C48 O46 1.247 . S
C48 O47 1.208 . S
C49 O54 1.247 . S
C49 O55 1.208 . S
C50 O42 1.315 . S
C50 O45 1.279 . S
C51 O52 1.315 . S
C51 O53 1.279 . S
O52 Cd44 2.223 . S
O52 C51 1.315 . S
O53 Cd43 2.240 . S
O53 C51 1.279 . S
O54 Cd44 2.297 . S
O54 C49 1.247 . S
O55 Cd44 2.439 . S
O55 C49 1.208 . S
O56 Cd57 2.223 . S
O56 C64 1.315 . S
Cd57 O56 2.223 . S
Cd57 O60 2.297 . S
Cd57 O61 2.439 . S
Cd57 O67 2.240 . S
Cd58 O59 2.240 . S
Cd58 O66 2.223 . S
Cd58 O68 2.297 . S
Cd58 O69 2.439 . S
O59 Cd58 2.240 . S
O59 C64 1.279 . S
O60 Cd57 2.297 . S
O60 C62 1.247 . S
O61 Cd57 2.439 . S
O61 C62 1.208 . S
C62 O60 1.247 . S
C62 O61 1.208 . S
C63 O68 1.247 . S
C63 O69 1.208 . S
C64 O56 1.315 . S
C64 O59 1.279 . S
C65 O66 1.315 . S
C65 O67 1.279 . S
O66 Cd58 2.223 . S
O66 C65 1.315 . S
O67 Cd57 2.240 . S
O67 C65 1.279 . S
O68 Cd58 2.297 . S
O68 C63 1.247 . S
O69 Cd58 2.439 . S
O69 C63 1.208 . S
O70 Cd71 2.223 . S
O70 C78 1.315 . S
Cd71 O70 2.223 . S
Cd71 O74 2.297 . S
Cd71 O75 2.439 . S
Cd71 O81 2.240 . S
Cd72 O73 2.240 . S
Cd72 O80 2.223 . S
Cd72 O82 2.297 . S
Cd72 O83 2.439 . S
O73 Cd72 2.240 . S
O73 C78 1.279 . S
O74 Cd71 2.297 . S
O74 C76 1.247 . S
O75 Cd71 2.439 . S
O75 C76 1.208 . S
C76 O74 1.247 . S
C76 O75 1.208 . S
C77 O82 1.247 . S
C77 O83 1.208 . S
C78 O70 1.315 . S
C78 O73 1.279 . S
C79 O80 1.315 . S
C79 O81 1.279 . S
O80 Cd72 2.223 . S
O80 C79 1.315 . S
O81 Cd71 2.240 . S
O81 C79 1.279 . S
O82 Cd72 2.297 . S
O82 C77 1.247 . S
O83 Cd72 2.439 . S
O83 C77 1.208 . S
O84 Cd85 2.223 . S
O84 C92 1.315 . S
Cd85 O84 2.223 . S
Cd85 O88 2.297 . S
Cd85 O89 2.439 . S
Cd85 O95 2.240 . S
Cd86 O87 2.240 . S
Cd86 O94 2.223 . S
Cd86 O96 2.297 . S
Cd86 O97 2.439 . S
O87 Cd86 2.240 . S
O87 C92 1.279 . S
O88 Cd85 2.297 . S
O88 C90 1.247 . S
O89 Cd85 2.439 . S
O89 C90 1.208 . S
C90 O88 1.247 . S
C90 O89 1.208 . S
C91 O96 1.247 . S
C91 O97 1.208 . S
C92 O84 1.315 . S
C92 O87 1.279 . S
C93 O94 1.315 . S
C93 O95 1.279 . S
O94 Cd86 2.223 . S
O94 C93 1.315 . S
O95 Cd85 2.240 . S
O95 C93 1.279 . S
O96 Cd86 2.297 . S
O96 C91 1.247 . S
O97 Cd86 2.439 . S
O97 C91 1.208 . S
O98 Cd99 2.223 . S
O98 C106 1.315 . S
Cd99 O98 2.223 . S
Cd99 O102 2.297 . S
Cd99 O103 2.439 . S
Cd99 O109 2.240 . S
Cd100 O101 2.240 . S
Cd100 O108 2.223 . S
Cd100 O110 2.297 . S
Cd100 O111 2.439 . S
O101 Cd100 2.240 . S
O101 C106 1.279 . S
O102 Cd99 2.297 . S
O102 C104 1.247 . S
O103 Cd99 2.439 . S
O103 C104 1.208 . S
C104 O102 1.247 . S
C104 O103 1.208 . S
C105 O110 1.247 . S
C105 O111 1.208 . S
C106 O98 1.315 . S
C106 O101 1.279 . S
C107 O108 1.315 . S
C107 O109 1.279 . S
O108 Cd100 2.223 . S
O108 C107 1.315 . S
O109 Cd99 2.240 . S
O109 C107 1.279 . S
O110 Cd100 2.297 . S
O110 C105 1.247 . S
O111 Cd100 2.439 . S
O111 C105 1.208 . S
O112 Cd113 2.223 . S
O112 C120 1.315 . S
Cd113 O112 2.223 . S
Cd113 O116 2.297 1_556 S
Cd113 O117 2.439 1_556 S
Cd113 O123 2.240 . S
Cd114 O115 2.240 . S
Cd114 O122 2.223 . S
Cd114 O124 2.297 . S
Cd114 O125 2.439 . S
O115 Cd114 2.240 . S
O115 C120 1.279 . S
O116 Cd113 2.297 1_554 S
O116 C118 1.247 . S
O117 Cd113 2.439 1_554 S
O117 C118 1.208 . S
C118 O116 1.247 . S
C118 O117 1.208 . S
C119 O124 1.247 . S
C119 O125 1.208 . S
C120 O112 1.315 . S
C120 O115 1.279 . S
C121 O122 1.315 . S
C121 O123 1.279 . S
O122 Cd114 2.223 . S
O122 C121 1.315 . S
O123 Cd113 2.240 . S
O123 C121 1.279 . S
O124 Cd114 2.297 . S
O124 C119 1.247 . S
O125 Cd114 2.439 . S
O125 C119 1.208 . S
O126 Cd127 2.223 . S
O126 C134 1.315 . S
Cd127 O126 2.223 . S
Cd127 O130 2.297 1_556 S
Cd127 O131 2.439 1_556 S
Cd127 O137 2.240 . S
Cd128 O129 2.240 . S
Cd128 O136 2.223 . S
Cd128 O138 2.297 . S
Cd128 O139 2.439 . S
O129 Cd128 2.240 . S
O129 C134 1.279 . S
O130 Cd127 2.297 1_554 S
O130 C132 1.247 . S
O131 Cd127 2.439 1_554 S
O131 C132 1.208 . S
C132 O130 1.247 . S
C132 O131 1.208 . S
C133 O138 1.247 . S
C133 O139 1.208 . S
C134 O126 1.315 . S
C134 O129 1.279 . S
C135 O136 1.315 . S
C135 O137 1.279 . S
O136 Cd128 2.223 . S
O136 C135 1.315 . S
O137 Cd127 2.240 . S
O137 C135 1.279 . S
O138 Cd128 2.297 . S
O138 C133 1.247 . S
O139 Cd128 2.439 . S
O139 C133 1.208 . S
O140 Cd141 2.223 . S
O140 C148 1.315 . S
Cd141 O140 2.223 . S
Cd141 O144 2.297 1_556 S
Cd141 O145 2.439 1_556 S
Cd141 O151 2.240 . S
Cd142 O143 2.240 . S
Cd142 O150 2.223 . S
Cd142 O152 2.297 . S
Cd142 O153 2.439 . S
O143 Cd142 2.240 . S
O143 C148 1.279 . S
O144 Cd141 2.297 1_554 S
O144 C146 1.247 . S
O145 Cd141 2.439 1_554 S
O145 C146 1.208 . S
C146 O144 1.247 . S
C146 O145 1.208 . S
C147 O152 1.247 . S
C147 O153 1.208 . S
C148 O140 1.315 . S
C148 O143 1.279 . S
C149 O150 1.315 . S
C149 O151 1.279 . S
O150 Cd142 2.223 . S
O150 C149 1.315 . S
O151 Cd141 2.240 . S
O151 C149 1.279 . S
O152 Cd142 2.297 . S
O152 C147 1.247 . S
O153 Cd142 2.439 . S
O153 C147 1.208 . S
O154 Cd155 2.223 . S
O154 C162 1.315 . S
Cd155 O154 2.223 . S
Cd155 O158 2.297 1_556 S
Cd155 O159 2.439 1_556 S
Cd155 O165 2.240 . S
Cd156 O157 2.240 . S
Cd156 O164 2.223 . S
Cd156 O166 2.297 . S
Cd156 O167 2.439 . S
O157 Cd156 2.240 . S
O157 C162 1.279 . S
O158 Cd155 2.297 1_554 S
O158 C160 1.247 . S
O159 Cd155 2.439 1_554 S
O159 C160 1.208 . S
C160 O158 1.247 . S
C160 O159 1.208 . S
C161 O166 1.247 . S
C161 O167 1.208 . S
C162 O154 1.315 . S
C162 O157 1.279 . S
C163 O164 1.315 . S
C163 O165 1.279 . S
O164 Cd156 2.223 . S
O164 C163 1.315 . S
O165 Cd155 2.240 . S
O165 C163 1.279 . S
O166 Cd156 2.297 . S
O166 C161 1.247 . S
O167 Cd156 2.439 . S
O167 C161 1.208 . S
O168 Cd169 2.223 . S
O168 C176 1.315 . S
Cd169 O168 2.223 . S
Cd169 O172 2.297 . S
Cd169 O173 2.439 . S
Cd169 O179 2.240 . S
Cd170 O171 2.240 . S
Cd170 O178 2.223 . S
Cd170 O180 2.297 . S
Cd170 O181 2.439 . S
O171 Cd170 2.240 . S
O171 C176 1.279 . S
O172 Cd169 2.297 . S
O172 C174 1.247 . S
O173 Cd169 2.439 . S
O173 C174 1.208 . S
C174 O172 1.247 . S
C174 O173 1.208 . S
C175 O180 1.247 . S
C175 O181 1.208 . S
C176 O168 1.315 . S
C176 O171 1.279 . S
C177 O178 1.315 . S
C177 O179 1.279 . S
O178 Cd170 2.223 . S
O178 C177 1.315 . S
O179 Cd169 2.240 . S
O179 C177 1.279 . S
O180 Cd170 2.297 . S
O180 C175 1.247 . S
O181 Cd170 2.439 . S
O181 C175 1.208 . S
O182 Cd183 2.223 . S
O182 C190 1.315 . S
Cd183 O182 2.223 . S
Cd183 O186 2.297 . S
Cd183 O187 2.439 . S
Cd183 O193 2.240 . S
Cd184 O185 2.240 . S
Cd184 O192 2.223 . S
Cd184 O194 2.297 . S
Cd184 O195 2.439 . S
O185 Cd184 2.240 . S
O185 C190 1.279 . S
O186 Cd183 2.297 . S
O186 C188 1.247 . S
O187 Cd183 2.439 . S
O187 C188 1.208 . S
C188 O186 1.247 . S
C188 O187 1.208 . S
C189 O194 1.247 . S
C189 O195 1.208 . S
C190 O182 1.315 . S
C190 O185 1.279 . S
C191 O192 1.315 . S
C191 O193 1.279 . S
O192 Cd184 2.223 . S
O192 C191 1.315 . S
O193 Cd183 2.240 . S
O193 C191 1.279 . S
O194 Cd184 2.297 . S
O194 C189 1.247 . S
O195 Cd184 2.439 . S
O195 C189 1.208 . S
O196 Cd197 2.223 . S
O196 C204 1.315 . S
Cd197 O196 2.223 . S
Cd197 O200 2.297 . S
Cd197 O201 2.439 . S
Cd197 O207 2.240 . S
Cd198 O199 2.240 . S
Cd198 O206 2.223 . S
Cd198 O208 2.297 . S
Cd198 O209 2.439 . S
O199 Cd198 2.240 . S
O199 C204 1.279 . S
O200 Cd197 2.297 . S
O200 C202 1.247 . S
O201 Cd197 2.439 . S
O201 C202 1.208 . S
C202 O200 1.247 . S
C202 O201 1.208 . S
C203 O208 1.247 . S
C203 O209 1.208 . S
C204 O196 1.315 . S
C204 O199 1.279 . S
C205 O206 1.315 . S
C205 O207 1.279 . S
O206 Cd198 2.223 . S
O206 C205 1.315 . S
O207 Cd197 2.240 . S
O207 C205 1.279 . S
O208 Cd198 2.297 . S
O208 C203 1.247 . S
O209 Cd198 2.439 . S
O209 C203 1.208 . S
O210 Cd211 2.223 . S
O210 C218 1.315 . S
Cd211 O210 2.223 . S
Cd211 O214 2.297 . S
Cd211 O215 2.439 . S
Cd211 O221 2.240 . S
Cd212 O213 2.240 . S
Cd212 O220 2.223 . S
Cd212 O222 2.297 . S
Cd212 O223 2.439 . S
O213 Cd212 2.240 . S
O213 C218 1.279 . S
O214 Cd211 2.297 . S
O214 C216 1.247 . S
O215 Cd211 2.439 . S
O215 C216 1.208 . S
C216 O214 1.247 . S
C216 O215 1.208 . S
C217 O222 1.247 . S
C217 O223 1.208 . S
C218 O210 1.315 . S
C218 O213 1.279 . S
C219 O220 1.315 . S
C219 O221 1.279 . S
O220 Cd212 2.223 . S
O220 C219 1.315 . S
O221 Cd211 2.240 . S
O221 C219 1.279 . S
O222 Cd212 2.297 . S
O222 C217 1.247 . S
O223 Cd212 2.439 . S
O223 C217 1.208 . S
H224 C230 0.930 . S
H225 C234 0.930 . S
H226 C239 0.929 . S
H227 C237 0.929 . S
H228 C232 0.929 . S
H229 C238 0.929 . S
C230 H224 0.930 . S
C230 C231 1.367 . S
C230 C238 1.378 . S
C231 C230 1.367 . S
C231 C239 1.433 . S
C232 H228 0.929 . S
C232 C234 1.378 . S
C232 C236 1.350 . S
C233 C236 1.463 . S
C233 C238 1.350 . S
C233 N241 1.427 . S
C234 H225 0.930 . S
C234 C232 1.378 . S
C234 C235 1.367 . S
C235 C234 1.367 . S
C235 C237 1.433 . S
C236 C232 1.350 . S
C236 C233 1.463 . S
C236 N240 1.427 . S
C237 H227 0.929 . S
C237 C235 1.433 . S
C237 N240 1.384 . S
C238 H229 0.929 . S
C238 C230 1.378 . S
C238 C233 1.350 . S
C239 H226 0.929 . S
C239 C231 1.433 . S
C239 N241 1.384 . S
N240 C236 1.427 . S
N240 C237 1.384 . S
N241 C233 1.427 . S
N241 C239 1.384 . S
H242 C248 0.930 . S
H243 C252 0.930 . S
H244 C257 0.929 . S
H245 C255 0.929 . S
H246 C250 0.929 . S
H247 C256 0.929 . S
C248 H242 0.930 . S
C248 C249 1.367 . S
C248 C256 1.378 . S
C249 C248 1.367 . S
C249 C257 1.433 . S
C250 H246 0.929 . S
C250 C252 1.378 . S
C250 C254 1.350 . S
C251 C254 1.463 . S
C251 C256 1.350 . S
C251 N259 1.427 . S
C252 H243 0.930 . S
C252 C250 1.378 . S
C252 C253 1.367 . S
C253 C252 1.367 . S
C253 C255 1.433 . S
C254 C250 1.350 . S
C254 C251 1.463 . S
C254 N258 1.427 . S
C255 H245 0.929 . S
C255 C253 1.433 . S
C255 N258 1.384 . S
C256 H247 0.929 . S
C256 C248 1.378 . S
C256 C251 1.350 . S
C257 H244 0.929 . S
C257 C249 1.433 . S
C257 N259 1.384 . S
N258 C254 1.427 . S
N258 C255 1.384 . S
N259 C251 1.427 . S
N259 C257 1.384 . S
H260 C266 0.930 . S
H261 C270 0.930 . S
H262 C275 0.929 . S
H263 C273 0.929 . S
H264 C268 0.929 . S
H265 C274 0.929 . S
C266 H260 0.930 . S
C266 C267 1.367 . S
C266 C274 1.378 . S
C267 C266 1.367 . S
C267 C275 1.433 . S
C268 H264 0.929 . S
C268 C270 1.378 . S
C268 C272 1.350 . S
C269 C272 1.463 . S
C269 C274 1.350 . S
C269 N277 1.427 . S
C270 H261 0.930 . S
C270 C268 1.378 . S
C270 C271 1.367 . S
C271 C270 1.367 . S
C271 C273 1.433 . S
C272 C268 1.350 . S
C272 C269 1.463 . S
C272 N276 1.427 . S
C273 H263 0.929 . S
C273 C271 1.433 . S
C273 N276 1.384 . S
C274 H265 0.929 . S
C274 C266 1.378 . S
C274 C269 1.350 . S
C275 H262 0.929 . S
C275 C267 1.433 . S
C275 N277 1.384 . S
N276 C272 1.427 . S
N276 C273 1.384 . S
N277 C269 1.427 . S
N277 C275 1.384 . S
H278 C284 0.930 . S
H279 C288 0.930 . S
H280 C293 0.929 . S
H281 C291 0.929 . S
H282 C286 0.929 . S
H283 C292 0.929 . S
C284 H278 0.930 . S
C284 C285 1.367 . S
C284 C292 1.378 . S
C285 C284 1.367 . S
C285 C293 1.433 . S
C286 H282 0.929 . S
C286 C288 1.378 . S
C286 C290 1.350 . S
C287 C290 1.463 . S
C287 C292 1.350 . S
C287 N295 1.427 . S
C288 H279 0.930 . S
C288 C286 1.378 . S
C288 C289 1.367 . S
C289 C288 1.367 . S
C289 C291 1.433 . S
C290 C286 1.350 . S
C290 C287 1.463 . S
C290 N294 1.427 . S
C291 H281 0.929 . S
C291 C289 1.433 . S
C291 N294 1.384 . S
C292 H283 0.929 . S
C292 C284 1.378 . S
C292 C287 1.350 . S
C293 H280 0.929 . S
C293 C285 1.433 . S
C293 N295 1.384 . S
N294 C290 1.427 . S
N294 C291 1.384 . S
N295 C287 1.427 . S
N295 C293 1.384 . S
H296 C302 0.930 . S
H297 C306 0.930 . S
H298 C311 0.929 . S
H299 C309 0.929 . S
H300 C304 0.929 . S
H301 C310 0.929 . S
C302 H296 0.930 . S
C302 C303 1.367 . S
C302 C310 1.378 . S
C303 C302 1.367 . S
C303 C311 1.433 . S
C304 H300 0.929 . S
C304 C306 1.378 . S
C304 C308 1.350 . S
C305 C308 1.463 . S
C305 C310 1.350 . S
C305 N313 1.427 . S
C306 H297 0.930 . S
C306 C304 1.378 . S
C306 C307 1.367 . S
C307 C306 1.367 . S
C307 C309 1.433 . S
C308 C304 1.350 . S
C308 C305 1.463 . S
C308 N312 1.427 . S
C309 H299 0.929 . S
C309 C307 1.433 . S
C309 N312 1.384 . S
C310 H301 0.929 . S
C310 C302 1.378 . S
C310 C305 1.350 . S
C311 H298 0.929 . S
C311 C303 1.433 . S
C311 N313 1.384 . S
N312 C308 1.427 . S
N312 C309 1.384 . S
N313 C305 1.427 . S
N313 C311 1.384 . S
H314 C320 0.930 . S
H315 C324 0.930 . S
H316 C329 0.929 . S
H317 C327 0.929 . S
H318 C322 0.929 . S
H319 C328 0.929 . S
C320 H314 0.930 . S
C320 C321 1.367 . S
C320 C328 1.378 . S
C321 C320 1.367 . S
C321 C329 1.433 . S
C322 H318 0.929 . S
C322 C324 1.378 . S
C322 C326 1.350 . S
C323 C326 1.463 . S
C323 C328 1.350 . S
C323 N331 1.427 . S
C324 H315 0.930 . S
C324 C322 1.378 . S
C324 C325 1.367 . S
C325 C324 1.367 . S
C325 C327 1.433 . S
C326 C322 1.350 . S
C326 C323 1.463 . S
C326 N330 1.427 . S
C327 H317 0.929 . S
C327 C325 1.433 . S
C327 N330 1.384 . S
C328 H319 0.929 . S
C328 C320 1.378 . S
C328 C323 1.350 . S
C329 H316 0.929 . S
C329 C321 1.433 . S
C329 N331 1.384 . S
N330 C326 1.427 . S
N330 C327 1.384 . S
N331 C323 1.427 . S
N331 C329 1.384 . S
H332 C338 0.930 . S
H333 C342 0.930 . S
H334 C347 0.929 . S
H335 C345 0.929 . S
H336 C340 0.929 . S
H337 C346 0.929 . S
C338 H332 0.930 . S
C338 C339 1.367 . S
C338 C346 1.378 . S
C339 C338 1.367 . S
C339 C347 1.433 . S
C340 H336 0.929 . S
C340 C342 1.378 . S
C340 C344 1.350 . S
C341 C344 1.463 . S
C341 C346 1.350 . S
C341 N349 1.427 . S
C342 H333 0.930 . S
C342 C340 1.378 . S
C342 C343 1.367 . S
C343 C342 1.367 . S
C343 C345 1.433 . S
C344 C340 1.350 . S
C344 C341 1.463 . S
C344 N348 1.427 . S
C345 H335 0.929 . S
C345 C343 1.433 . S
C345 N348 1.384 . S
C346 H337 0.929 . S
C346 C338 1.378 . S
C346 C341 1.350 . S
C347 H334 0.929 . S
C347 C339 1.433 . S
C347 N349 1.384 . S
N348 C344 1.427 . S
N348 C345 1.384 . S
N349 C341 1.427 . S
N349 C347 1.384 . S
H350 C356 0.930 . S
H351 C360 0.930 . S
H352 C365 0.929 . S
H353 C363 0.929 . S
H354 C358 0.929 . S
H355 C364 0.929 . S
C356 H350 0.930 . S
C356 C357 1.367 . S
C356 C364 1.378 . S
C357 C356 1.367 . S
C357 C365 1.433 . S
C358 H354 0.929 . S
C358 C360 1.378 . S
C358 C362 1.350 . S
C359 C362 1.463 . S
C359 C364 1.350 . S
C359 N367 1.427 . S
C360 H351 0.930 . S
C360 C358 1.378 . S
C360 C361 1.367 . S
C361 C360 1.367 . S
C361 C363 1.433 . S
C362 C358 1.350 . S
C362 C359 1.463 . S
C362 N366 1.427 . S
C363 H353 0.929 . S
C363 C361 1.433 . S
C363 N366 1.384 . S
C364 H355 0.929 . S
C364 C356 1.378 . S
C364 C359 1.350 . S
C365 H352 0.929 . S
C365 C357 1.433 . S
C365 N367 1.384 . S
N366 C362 1.427 . S
N366 C363 1.384 . S
N367 C359 1.427 . S
N367 C365 1.384 . S
H368 C374 0.930 . S
H369 C378 0.930 . S
H370 C383 0.929 . S
H371 C381 0.929 1_565 S
H372 C376 0.929 . S
H373 C382 0.953 . S
C374 H368 0.930 . S
C374 C375 1.367 . S
C374 C382 1.378 . S
C375 C374 1.367 . S
C375 C383 1.433 . S
C376 H372 0.929 . S
C376 C378 1.378 . S
C376 C380 1.350 . S
C377 C380 1.463 . S
C377 C382 1.350 . S
C377 N385 1.427 . S
C378 H369 0.930 . S
C378 C376 1.378 . S
C378 C379 1.367 . S
C379 C378 1.367 . S
C379 C381 1.433 . S
C380 C376 1.350 . S
C380 C377 1.463 . S
C380 N384 1.427 . S
C381 H371 0.929 1_545 S
C381 C379 1.433 . S
C381 N384 1.384 . S
C382 H373 0.953 . S
C382 C374 1.378 . S
C382 C377 1.350 . S
C383 H370 0.929 . S
C383 C375 1.433 . S
C383 N385 1.384 . S
N384 C380 1.427 . S
N384 C381 1.384 . S
N385 C377 1.427 . S
N385 C383 1.384 . S
H386 C392 0.930 . S
H387 C396 0.930 . S
H388 C401 0.929 . S
H389 C399 0.929 . S
H390 C394 0.929 . S
H391 C400 0.929 . S
C392 H386 0.930 . S
C392 C393 1.367 . S
C392 C400 1.378 . S
C393 C392 1.367 . S
C393 C401 1.433 . S
C394 H390 0.929 . S
C394 C396 1.378 . S
C394 C398 1.350 . S
C395 C398 1.463 . S
C395 C400 1.350 . S
C395 N403 1.427 . S
C396 H387 0.930 . S
C396 C394 1.378 . S
C396 C397 1.367 . S
C397 C396 1.367 . S
C397 C399 1.433 . S
C398 C394 1.350 . S
C398 C395 1.463 . S
C398 N402 1.427 . S
C399 H389 0.929 . S
C399 C397 1.433 . S
C399 N402 1.384 . S
C400 H391 0.929 . S
C400 C392 1.378 . S
C400 C395 1.350 . S
C401 H388 0.929 . S
C401 C393 1.433 . S
C401 N403 1.384 . S
N402 C398 1.427 . S
N402 C399 1.384 . S
N403 C395 1.427 . S
N403 C401 1.384 . S
H404 C410 0.930 . S
H405 C414 0.930 . S
H406 C419 0.929 . S
H407 C417 0.929 . S
H408 C412 0.929 . S
H409 C418 0.929 . S
C410 H404 0.930 . S
C410 C411 1.367 . S
C410 C418 1.378 . S
C411 C410 1.367 . S
C411 C419 1.433 . S
C412 H408 0.929 . S
C412 C414 1.378 . S
C412 C416 1.350 . S
C413 C416 1.463 . S
C413 C418 1.350 . S
C413 N421 1.427 . S
C414 H405 0.930 . S
C414 C412 1.378 . S
C414 C415 1.367 . S
C415 C414 1.367 . S
C415 C417 1.433 . S
C416 C412 1.350 . S
C416 C413 1.463 . S
C416 N420 1.427 . S
C417 H407 0.929 . S
C417 C415 1.433 . S
C417 N420 1.384 . S
C418 H409 0.929 . S
C418 C410 1.378 . S
C418 C413 1.350 . S
C419 H406 0.929 . S
C419 C411 1.433 . S
C419 N421 1.384 . S
N420 C416 1.427 . S
N420 C417 1.384 . S
N421 C413 1.427 . S
N421 C419 1.384 . S
H422 C428 0.930 . S
H423 C432 0.928 1_655 S
H424 C437 0.929 . S
H425 C435 0.929 . S
H426 C430 0.929 . S
H427 C436 0.929 . S
C428 H422 0.930 . S
C428 C429 1.367 . S
C428 C436 1.378 . S
C429 C428 1.367 . S
C429 C437 1.433 . S
C430 H426 0.929 . S
C430 C432 1.378 . S
C430 C434 1.350 . S
C431 C434 1.463 . S
C431 C436 1.350 . S
C431 N439 1.427 . S
C432 H423 0.928 1_455 S
C432 C430 1.378 . S
C432 C433 1.367 . S
C433 C432 1.367 . S
C433 C435 1.433 . S
C434 C430 1.350 . S
C434 C431 1.463 . S
C434 N438 1.427 . S
C435 H425 0.929 . S
C435 C433 1.433 . S
C435 N438 1.384 . S
C436 H427 0.929 . S
C436 C428 1.378 . S
C436 C431 1.350 . S
C437 H424 0.929 . S
C437 C429 1.433 . S
C437 N439 1.384 . S
N438 C434 1.427 . S
N438 C435 1.384 . S
N439 C431 1.427 . S
N439 C437 1.384 . S
H440 C446 0.930 . S
H441 C450 0.930 1_545 S
H442 C455 0.929 . S
H443 C453 0.929 . S
H444 C448 0.929 . S
H445 C454 0.929 . S
C446 H440 0.930 . S
C446 C447 1.367 . S
C446 C454 1.378 . S
C447 C446 1.367 . S
C447 C455 1.433 . S
C448 H444 0.929 . S
C448 C450 1.378 . S
C448 C452 1.350 . S
C449 C452 1.463 . S
C449 C454 1.350 . S
C449 N457 1.427 . S
C450 H441 0.930 1_565 S
C450 C448 1.378 . S
C450 C451 1.367 . S
C451 C450 1.367 . S
C451 C453 1.433 . S
C452 C448 1.350 . S
C452 C449 1.463 . S
C452 N456 1.427 . S
C453 H443 0.929 . S
C453 C451 1.433 . S
C453 N456 1.384 . S
C454 H445 0.929 . S
C454 C446 1.378 . S
C454 C449 1.350 . S
C455 H442 0.929 . S
C455 C447 1.433 . S
C455 N457 1.384 . S
N456 C452 1.427 . S
N456 C453 1.384 . S
N457 C449 1.427 . S
N457 C455 1.384 . S
H458 C464 0.930 . S
H459 C468 0.930 . S
H460 C473 0.929 . S
H461 C471 0.929 . S
H462 C466 0.929 . S
H463 C472 0.929 . S
C464 H458 0.930 . S
C464 C465 1.367 . S
C464 C472 1.378 . S
C465 C464 1.367 . S
C465 C473 1.433 . S
C466 H462 0.929 . S
C466 C468 1.378 . S
C466 C470 1.350 . S
C467 C470 1.463 . S
C467 C472 1.350 . S
C467 N475 1.427 . S
C468 H459 0.930 . S
C468 C466 1.378 . S
C468 C469 1.367 . S
C469 C468 1.367 . S
C469 C471 1.433 . S
C470 C466 1.350 . S
C470 C467 1.463 . S
C470 N474 1.427 . S
C471 H461 0.929 . S
C471 C469 1.433 . S
C471 N474 1.384 . S
C472 H463 0.929 . S
C472 C464 1.378 . S
C472 C467 1.350 . S
C473 H460 0.929 . S
C473 C465 1.433 . S
C473 N475 1.384 . S
N474 C470 1.427 . S
N474 C471 1.384 . S
N475 C467 1.427 . S
N475 C473 1.384 . S
H476 C482 0.930 . S
H477 C486 0.930 . S
H478 C491 0.929 . S
H479 C489 0.929 . S
H480 C484 0.929 . S
H481 C490 0.929 . S
C482 H476 0.930 . S
C482 C483 1.367 . S
C482 C490 1.378 . S
C483 C482 1.367 . S
C483 C491 1.433 . S
C484 H480 0.929 . S
C484 C486 1.378 . S
C484 C488 1.350 . S
C485 C488 1.463 . S
C485 C490 1.350 . S
C485 N493 1.427 . S
C486 H477 0.930 . S
C486 C484 1.378 . S
C486 C487 1.367 . S
C487 C486 1.367 . S
C487 C489 1.433 . S
C488 C484 1.350 . S
C488 C485 1.463 . S
C488 N492 1.427 . S
C489 H479 0.929 . S
C489 C487 1.433 . S
C489 N492 1.384 . S
C490 H481 0.929 . S
C490 C482 1.378 . S
C490 C485 1.350 . S
C491 H478 0.929 . S
C491 C483 1.433 . S
C491 N493 1.384 . S
N492 C488 1.427 . S
N492 C489 1.384 . S
N493 C485 1.427 . S
N493 C491 1.384 . S
H494 C500 0.930 . S
H495 C504 0.930 . S
H496 C509 0.929 . S
H497 C507 0.929 . S
H498 C502 0.929 . S
H499 C508 0.929 . S
C500 H494 0.930 . S
C500 C501 1.367 . S
C500 C508 1.378 . S
C501 C500 1.367 . S
C501 C509 1.433 . S
C502 H498 0.929 . S
C502 C504 1.378 . S
C502 C506 1.350 . S
C503 C506 1.463 . S
C503 C508 1.350 . S
C503 N511 1.427 . S
C504 H495 0.930 . S
C504 C502 1.378 . S
C504 C505 1.367 . S
C505 C504 1.367 . S
C505 C507 1.433 . S
C506 C502 1.350 . S
C506 C503 1.463 . S
C506 N510 1.427 . S
C507 H497 0.929 . S
C507 C505 1.433 . S
C507 N510 1.384 . S
C508 H499 0.929 . S
C508 C500 1.378 . S
C508 C503 1.350 . S
C509 H496 0.929 . S
C509 C501 1.433 . S
C509 N511 1.384 . S
N510 C506 1.427 . S
N510 C507 1.384 . S
N511 C503 1.427 . S
N511 C509 1.384 . S
H512 C518 0.956 . S
H513 C522 0.930 . S
H514 C527 0.929 . S
H515 C525 0.929 . S
H516 C520 0.929 . S
H517 C526 0.929 . S
C518 H512 0.956 . S
C518 C519 1.367 . S
C518 C526 1.378 . S
C519 C518 1.367 . S
C519 C527 1.433 . S
C520 H516 0.929 . S
C520 C522 1.378 . S
C520 C524 1.350 . S
C521 C524 1.463 . S
C521 C526 1.350 . S
C521 N529 1.427 . S
C522 H513 0.930 . S
C522 C520 1.378 . S
C522 C523 1.367 . S
C523 C522 1.367 . S
C523 C525 1.433 . S
C524 C520 1.350 . S
C524 C521 1.463 . S
C524 N528 1.427 . S
C525 H515 0.929 . S
C525 C523 1.433 . S
C525 N528 1.384 . S
C526 H517 0.929 . S
C526 C518 1.378 . S
C526 C521 1.350 . S
C527 H514 0.929 . S
C527 C519 1.433 . S
C527 N529 1.384 . S
N528 C524 1.427 . S
N528 C525 1.384 . S
N529 C521 1.427 . S
N529 C527 1.384 . S
H530 C536 0.930 . S
H531 C540 0.930 . S
H532 C545 0.929 . S
H533 C543 0.929 . S
H534 C538 0.929 . S
H535 C544 0.929 . S
C536 H530 0.930 . S
C536 C537 1.367 . S
C536 C544 1.378 . S
C537 C536 1.367 . S
C537 C545 1.433 . S
C538 H534 0.929 . S
C538 C540 1.378 . S
C538 C542 1.350 . S
C539 C542 1.463 . S
C539 C544 1.350 . S
C539 N547 1.427 . S
C540 H531 0.930 . S
C540 C538 1.378 . S
C540 C541 1.367 . S
C541 C540 1.367 . S
C541 C543 1.433 . S
C542 C538 1.350 . S
C542 C539 1.463 . S
C542 N546 1.427 . S
C543 H533 0.929 . S
C543 C541 1.433 . S
C543 N546 1.384 . S
C544 H535 0.929 . S
C544 C536 1.378 . S
C544 C539 1.350 . S
C545 H532 0.929 . S
C545 C537 1.433 . S
C545 N547 1.384 . S
N546 C542 1.427 . S
N546 C543 1.384 . S
N547 C539 1.427 . S
N547 C545 1.384 . S
H548 C554 0.930 . S
H549 C558 0.930 . S
H550 C563 0.929 . S
H551 C561 0.929 . S
H552 C556 0.929 . S
H553 C562 0.929 . S
C554 H548 0.930 . S
C554 C555 1.367 . S
C554 C562 1.378 . S
C555 C554 1.367 . S
C555 C563 1.433 . S
C556 H552 0.929 . S
C556 C558 1.378 . S
C556 C560 1.350 . S
C557 C560 1.463 . S
C557 C562 1.350 . S
C557 N565 1.427 . S
C558 H549 0.930 . S
C558 C556 1.378 . S
C558 C559 1.367 . S
C559 C558 1.367 . S
C559 C561 1.433 . S
C560 C556 1.350 . S
C560 C557 1.463 . S
C560 N564 1.427 . S
C561 H551 0.929 . S
C561 C559 1.433 . S
C561 N564 1.384 . S
C562 H553 0.929 . S
C562 C554 1.378 . S
C562 C557 1.350 . S
C563 H550 0.929 . S
C563 C555 1.433 . S
C563 N565 1.384 . S
N564 C560 1.427 . S
N564 C561 1.384 . S
N565 C557 1.427 . S
N565 C563 1.384 . S
H566 C572 0.930 . S
H567 C576 0.930 . S
H568 C581 0.929 . S
H569 C579 0.929 1_455 S
H570 C574 0.929 . S
H571 C580 0.929 . S
C572 H566 0.930 . S
C572 C573 1.367 . S
C572 C580 1.378 . S
C573 C572 1.367 . S
C573 C581 1.433 . S
C574 H570 0.929 . S
C574 C576 1.378 . S
C574 C578 1.350 . S
C575 C578 1.463 . S
C575 C580 1.350 . S
C575 N583 1.427 . S
C576 H567 0.930 . S
C576 C574 1.378 . S
C576 C577 1.367 . S
C577 C576 1.367 . S
C577 C579 1.433 . S
C578 C574 1.350 . S
C578 C575 1.463 . S
C578 N582 1.427 . S
C579 H569 0.929 1_655 S
C579 C577 1.433 . S
C579 N582 1.384 . S
C580 H571 0.929 . S
C580 C572 1.378 . S
C580 C575 1.350 . S
C581 H568 0.929 . S
C581 C573 1.433 . S
C581 N583 1.384 . S
N582 C578 1.427 . S
N582 C579 1.384 . S
N583 C575 1.427 . S
N583 C581 1.384 . S
H584 C590 0.930 1_565 S
H585 C594 0.930 . S
H586 C599 0.929 . S
H587 C597 0.929 . S
H588 C592 0.929 . S
H589 C598 0.929 . S
C590 H584 0.930 1_545 S
C590 C591 1.367 . S
C590 C598 1.378 . S
C591 C590 1.367 . S
C591 C599 1.433 . S
C592 H588 0.929 . S
C592 C594 1.378 . S
C592 C596 1.350 . S
C593 C596 1.463 . S
C593 C598 1.350 . S
C593 N601 1.427 . S
C594 H585 0.930 . S
C594 C592 1.378 . S
C594 C595 1.367 . S
C595 C594 1.367 . S
C595 C597 1.433 . S
C596 C592 1.350 . S
C596 C593 1.463 . S
C596 N600 1.427 . S
C597 H587 0.929 . S
C597 C595 1.433 . S
C597 N600 1.384 . S
C598 H589 0.929 . S
C598 C590 1.378 . S
C598 C593 1.350 . S
C599 H586 0.929 . S
C599 C591 1.433 . S
C599 N601 1.384 . S
N600 C596 1.427 . S
N600 C597 1.384 . S
N601 C593 1.427 . S
N601 C599 1.384 . S
H602 C608 0.930 . S
H603 C612 0.930 . S
H604 C617 0.929 . S
H605 C615 0.929 . S
H606 C610 0.929 . S
H607 C616 0.929 . S
C608 H602 0.930 . S
C608 C609 1.367 . S
C608 C616 1.378 . S
C609 C608 1.367 . S
C609 C617 1.433 . S
C610 H606 0.929 . S
C610 C612 1.378 . S
C610 C614 1.350 . S
C611 C614 1.463 . S
C611 C616 1.350 . S
C611 N619 1.427 . S
C612 H603 0.930 . S
C612 C610 1.378 . S
C612 C613 1.367 . S
C613 C612 1.367 . S
C613 C615 1.433 . S
C614 C610 1.350 . S
C614 C611 1.463 . S
C614 N618 1.427 . S
C615 H605 0.929 . S
C615 C613 1.433 . S
C615 N618 1.384 . S
C616 H607 0.929 . S
C616 C608 1.378 . S
C616 C611 1.350 . S
C617 H604 0.929 . S
C617 C609 1.433 . S
C617 N619 1.384 . S
N618 C614 1.427 . S
N618 C615 1.384 . S
N619 C611 1.427 . S
N619 C617 1.384 . S
H620 C626 0.930 . S
H621 C630 0.930 . S
H622 C635 0.929 . S
H623 C633 0.929 . S
H624 C628 0.929 . S
H625 C634 0.929 . S
C626 H620 0.930 . S
C626 C627 1.367 . S
C626 C634 1.378 . S
C627 C626 1.367 . S
C627 C635 1.433 . S
C628 H624 0.929 . S
C628 C630 1.378 . S
C628 C632 1.350 . S
C629 C632 1.463 . S
C629 C634 1.350 . S
C629 N637 1.427 . S
C630 H621 0.930 . S
C630 C628 1.378 . S
C630 C631 1.367 . S
C631 C630 1.367 . S
C631 C633 1.433 . S
C632 C628 1.350 . S
C632 C629 1.463 . S
C632 N636 1.427 . S
C633 H623 0.929 . S
C633 C631 1.433 . S
C633 N636 1.384 . S
C634 H625 0.929 . S
C634 C626 1.378 . S
C634 C629 1.350 . S
C635 H622 0.929 . S
C635 C627 1.433 . S
C635 N637 1.384 . S
N636 C632 1.427 . S
N636 C633 1.384 . S
N637 C629 1.427 . S
N637 C635 1.384 . S
H638 C644 0.930 . S
H639 C648 0.930 . S
H640 C653 0.929 1_655 S
H641 C651 0.929 . S
H642 C646 0.929 . S
H643 C652 0.929 . S
C644 H638 0.930 . S
C644 C645 1.367 . S
C644 C652 1.378 . S
C645 C644 1.367 . S
C645 C653 1.433 . S
C646 H642 0.929 . S
C646 C648 1.378 . S
C646 C650 1.350 . S
C647 C650 1.463 . S
C647 C652 1.350 . S
C647 N655 1.427 . S
C648 H639 0.930 . S
C648 C646 1.378 . S
C648 C649 1.367 . S
C649 C648 1.367 . S
C649 C651 1.433 . S
C650 C646 1.350 . S
C650 C647 1.463 . S
C650 N654 1.427 . S
C651 H641 0.929 . S
C651 C649 1.433 . S
C651 N654 1.384 . S
C652 H643 0.929 . S
C652 C644 1.378 . S
C652 C647 1.350 . S
C653 H640 0.929 1_455 S
C653 C645 1.433 . S
C653 N655 1.384 . S
N654 C650 1.427 . S
N654 C651 1.384 . S
N655 C647 1.427 . S
N655 C653 1.384 . S
H656 C662 0.930 . S
H657 C666 0.930 . S
H658 C671 0.929 . S
H659 C669 0.929 . S
H660 C664 0.929 . S
H661 C670 0.929 . S
C662 H656 0.930 . S
C662 C663 1.359 1_544 S
C662 C670 1.378 . S
C663 C662 1.359 1_566 S
C663 C671 1.441 . S
C664 H660 0.929 . S
C664 C666 1.378 . S
C664 C668 1.356 1_556 S
C665 C668 1.462 1_546 S
C665 C670 1.356 1_556 S
C665 N673 1.421 1_545 S
C666 H657 0.930 . S
C666 C664 1.378 . S
C666 C667 1.359 1_566 S
C667 C666 1.359 1_544 S
C667 C669 1.441 . S
C668 C664 1.356 1_554 S
C668 C665 1.462 1_564 S
C668 N672 1.421 1_565 S
C669 H659 0.929 . S
C669 C667 1.441 . S
C669 N672 1.384 . S
C670 H661 0.929 . S
C670 C662 1.378 . S
C670 C665 1.356 1_554 S
C671 H658 0.929 . S
C671 C663 1.441 . S
C671 N673 1.384 . S
N672 C668 1.421 1_545 S
N672 C669 1.384 . S
N673 C665 1.421 1_565 S
N673 C671 1.384 . S
H674 C680 0.930 . S
H675 C684 0.930 . S
H676 C689 0.929 . S
H677 C687 0.929 . S
H678 C682 0.929 . S
H679 C688 0.929 . S
C680 H674 0.930 . S
C680 C681 1.367 . S
C680 C688 1.378 . S
C681 C680 1.367 . S
C681 C689 1.433 1_556 S
C682 H678 0.929 . S
C682 C684 1.378 . S
C682 C686 1.350 . S
C683 C686 1.463 1_556 S
C683 C688 1.350 . S
C683 N691 1.427 1_556 S
C684 H675 0.930 . S
C684 C682 1.378 . S
C684 C685 1.367 . S
C685 C684 1.367 . S
C685 C687 1.433 1_554 S
C686 C682 1.350 . S
C686 C683 1.463 1_554 S
C686 N690 1.427 1_554 S
C687 H677 0.929 . S
C687 C685 1.433 1_556 S
C687 N690 1.384 . S
C688 H679 0.929 . S
C688 C680 1.378 . S
C688 C683 1.350 . S
C689 H676 0.929 . S
C689 C681 1.433 1_554 S
C689 N691 1.384 . S
N690 C686 1.427 1_556 S
N690 C687 1.384 . S
N691 C683 1.427 1_554 S
N691 C689 1.384 . S
H692 C698 0.930 . S
H693 C702 0.930 . S
H694 C707 0.929 . S
H695 C705 0.929 . S
H696 C700 0.929 . S
H697 C706 0.929 . S
C698 H692 0.930 . S
C698 C699 1.367 . S
C698 C706 1.378 . S
C699 C698 1.367 . S
C699 C707 1.433 . S
C700 H696 0.929 . S
C700 C702 1.378 . S
C700 C704 1.350 . S
C701 C704 1.463 1_654 S
C701 C706 1.350 . S
C701 N709 1.427 . S
C702 H693 0.930 . S
C702 C700 1.378 . S
C702 C703 1.367 . S
C703 C702 1.367 . S
C703 C705 1.433 . S
C704 C700 1.350 . S
C704 C701 1.463 1_456 S
C704 N708 1.427 . S
C705 H695 0.929 . S
C705 C703 1.433 . S
C705 N708 1.384 . S
C706 H697 0.929 . S
C706 C698 1.378 . S
C706 C701 1.350 . S
C707 H694 0.929 . S
C707 C699 1.433 . S
C707 N709 1.384 . S
N708 C704 1.427 . S
N708 C705 1.384 . S
N709 C701 1.427 . S
N709 C707 1.384 . S
H710 C716 0.930 . S
H711 C720 0.930 . S
H712 C725 0.929 1_554 S
H713 C723 0.929 1_556 S
H714 C718 0.929 . S
H715 C724 0.929 . S
C716 H710 0.930 . S
C716 C717 1.367 . S
C716 C724 1.378 . S
C717 C716 1.367 . S
C717 C725 1.434 1_655 S
C718 H714 0.929 . S
C718 C720 1.378 . S
C718 C722 1.386 . S
C719 C722 1.459 1_646 S
C719 C724 1.386 . S
C719 N727 1.391 1_656 S
C720 H711 0.930 . S
C720 C718 1.378 . S
C720 C721 1.367 . S
C721 C720 1.367 . S
C721 C723 1.434 1_455 S
C722 C718 1.386 . S
C722 C719 1.459 1_464 S
C722 N726 1.391 1_454 S
C723 H713 0.929 1_554 S
C723 C721 1.434 1_655 S
C723 N726 1.383 1_554 S
C724 H715 0.929 . S
C724 C716 1.378 . S
C724 C719 1.386 . S
C725 H712 0.929 1_556 S
C725 C717 1.434 1_455 S
C725 N727 1.383 1_556 S
N726 C722 1.391 1_656 S
N726 C723 1.383 1_556 S
N727 C719 1.391 1_454 S
N727 C725 1.383 1_554 S
H728 C734 0.930 . S
H729 C738 0.930 . S
H730 C743 0.929 . S
H731 C741 0.929 . S
H732 C736 0.929 . S
H733 C742 0.929 . S
C734 H728 0.930 . S
C734 C735 1.364 1_545 S
C734 C742 1.378 . S
C735 C734 1.364 1_565 S
C735 C743 1.436 . S
C736 H732 0.929 . S
C736 C738 1.378 . S
C736 C740 1.373 . S
C737 C740 1.461 1_445 S
C737 C742 1.373 . S
C737 N745 1.404 1_545 S
C738 H729 0.930 . S
C738 C736 1.378 . S
C738 C739 1.364 1_565 S
C739 C738 1.364 1_545 S
C739 C741 1.436 . S
C740 C736 1.373 . S
C740 C737 1.461 1_665 S
C740 N744 1.404 1_565 S
C741 H731 0.929 . S
C741 C739 1.436 . S
C741 N744 1.384 . S
C742 H733 0.929 . S
C742 C734 1.378 . S
C742 C737 1.373 . S
C743 H730 0.929 . S
C743 C735 1.436 . S
C743 N745 1.384 . S
N744 C740 1.404 1_545 S
N744 C741 1.384 . S
N745 C737 1.404 1_565 S
N745 C743 1.384 . S
H746 C752 0.930 . S
H747 C756 0.930 . S
H748 C761 0.929 . S
H749 C759 0.929 . S
H750 C754 0.929 . S
H751 C760 0.929 . S
C752 H746 0.930 . S
C752 C753 1.367 . S
C752 C760 1.378 . S
C753 C752 1.367 . S
C753 C761 1.433 . S
C754 H750 0.929 . S
C754 C756 1.378 . S
C754 C758 1.350 . S
C755 C758 1.463 1_565 S
C755 C760 1.350 . S
C755 N763 1.427 . S
C756 H747 0.930 . S
C756 C754 1.378 . S
C756 C757 1.367 . S
C757 C756 1.367 . S
C757 C759 1.433 . S
C758 C754 1.350 . S
C758 C755 1.463 1_545 S
C758 N762 1.427 . S
C759 H749 0.929 . S
C759 C757 1.433 . S
C759 N762 1.384 . S
C760 H751 0.929 . S
C760 C752 1.378 . S
C760 C755 1.350 . S
C761 H748 0.929 . S
C761 C753 1.433 . S
C761 N763 1.384 . S
N762 C758 1.427 . S
N762 C759 1.384 . S
N763 C755 1.427 . S
N763 C761 1.384 . S
H764 C770 0.930 . S
H765 C774 0.930 . S
H766 C779 0.929 . S
H767 C777 0.929 . S
H768 C772 0.929 . S
H769 C778 0.929 . S
C770 H764 0.930 . S
C770 C771 1.367 . S
C770 C778 1.378 . S
C771 C770 1.367 . S
C771 C779 1.433 . S
C772 H768 0.929 . S
C772 C774 1.378 . S
C772 C776 1.350 . S
C773 C776 1.463 . S
C773 C778 1.350 . S
C773 N781 1.427 . S
C774 H765 0.930 . S
C774 C772 1.378 . S
C774 C775 1.367 . S
C775 C774 1.367 . S
C775 C777 1.433 . S
C776 C772 1.350 . S
C776 C773 1.463 . S
C776 N780 1.427 . S
C777 H767 0.929 . S
C777 C775 1.433 . S
C777 N780 1.384 . S
C778 H769 0.929 . S
C778 C770 1.378 . S
C778 C773 1.350 . S
C779 H766 0.929 . S
C779 C771 1.433 . S
C779 N781 1.384 . S
N780 C776 1.427 . S
N780 C777 1.384 . S
N781 C773 1.427 . S
N781 C779 1.384 . S
H782 C788 0.930 . S
H783 C792 0.930 . S
H784 C797 0.929 . S
H785 C795 0.929 . S
H786 C790 0.929 . S
H787 C796 0.929 . S
C788 H782 0.930 . S
C788 C789 1.383 . S
C788 C796 1.378 . S
C789 C788 1.383 . S
C789 C797 1.417 1_455 S
C790 H786 0.929 . S
C790 C792 1.378 . S
C790 C794 1.358 . S
C791 C794 1.462 1_455 S
C791 C796 1.358 . S
C791 N799 1.419 1_455 S
C792 H783 0.930 . S
C792 C790 1.378 . S
C792 C793 1.383 . S
C793 C792 1.383 . S
C793 C795 1.417 1_655 S
C794 C790 1.358 . S
C794 C791 1.462 1_655 S
C794 N798 1.419 1_655 S
C795 H785 0.929 . S
C795 C793 1.417 1_455 S
C795 N798 1.384 . S
C796 H787 0.929 . S
C796 C788 1.378 . S
C796 C791 1.358 . S
C797 H784 0.929 . S
C797 C789 1.417 1_655 S
C797 N799 1.384 . S
N798 C794 1.419 1_455 S
N798 C795 1.384 . S
N799 C791 1.419 1_655 S
N799 C797 1.384 . S
C231 C79 0.508 . S
C235 C9 0.547 . S
C249 C93 0.516 . S
C253 C23 0.518 . S
C267 C37 0.519 . S
C271 C107 0.515 . S
C285 C51 0.537 . S
C289 C65 0.505 . S
C303 C121 0.507 . S
C307 C191 0.545 . S
C321 C205 0.537 . S
C325 C135 0.505 . S
C339 C219 0.535 . S
C343 C149 0.506 . S
C357 C163 0.516 . S
C361 C177 0.518 . S
C375 C6 1.584 . S
C379 C176 1.532 . S
C393 C190 1.530 . S
C397 C20 1.581 . S
C411 C34 1.581 . S
C415 C204 1.530 . S
C429 C48 1.580 . S
C433 C218 1.543 . S
C447 C62 1.577 . S
C451 C120 1.540 . S
C465 C76 1.582 . S
C469 C134 1.541 . S
C483 C90 1.579 . S
C487 C148 1.534 . S
C501 C104 1.582 . S
C505 C162 1.541 . S
C519 C64 1.539 . S
C523 C118 1.578 . S
C537 C78 1.530 . S
C541 C132 1.583 . S
C555 C92 1.537 . S
C559 C146 1.578 . S
C573 C160 1.581 . S
C577 C106 1.531 . S
C591 C8 1.540 . S
C595 C174 1.577 . S
C609 C188 1.581 . S
C613 C22 1.531 . S
C627 C202 1.578 . S
C631 C36 1.537 . S
C645 C50 1.530 . S
C649 C216 1.582 . S
C663 C119 1.540 . S
C667 C7 1.540 . S
C681 C133 1.524 . S
C685 C21 1.524 . S
C699 C35 1.528 . S
C703 C147 1.528 . S
C717 C161 1.527 . S
C721 C49 1.527 . S
C735 C63 1.532 . S
C739 C175 1.532 . S
C753 C189 1.531 . S
C757 C77 1.531 . S
C771 C203 1.538 . S
C775 C91 1.538 . S
C789 C217 1.541 . S
C793 C105 1.541 . S
