# Generated by pormake.
# Topology uoh, (4)-cn, num edge types: 1
# Building blocks:
#     Node 0, Type 0, BuildingBlock: KUFVIS_clean_sbu_0, # of connection points: 4
#     Node 1, Type 0, BuildingBlock: KUFVIS_clean_sbu_0, # of connection points: 4
#     Node 2, Type 0, BuildingBlock: KUFVIS_clean_sbu_0, # of connection points: 4
#     Node 3, Type 0, BuildingBlock: KUFVIS_clean_sbu_0, # of connection points: 4
#     Node 4, Type 0, BuildingBlock: KUFVIS_clean_sbu_0, # of connection points: 4
#     Node 5, Type 0, BuildingBlock: KUFVIS_clean_sbu_0, # of connection points: 4
#     Node 6, Type 0, BuildingBlock: KUFVIS_clean_sbu_0, # of connection points: 4
#     Node 7, Type 0, BuildingBlock: KUFVIS_clean_sbu_0, # of connection points: 4
#     Node 8, Type 0, BuildingBlock: KUFVIS_clean_sbu_0, # of connection points: 4
#     Node 9, Type 0, BuildingBlock: KUFVIS_clean_sbu_0, # of connection points: 4
#     Node 10, Type 0, BuildingBlock: KUFVIS_clean_sbu_0, # of connection points: 4
#     Node 11, Type 0, BuildingBlock: KUFVIS_clean_sbu_0, # of connection points: 4
#     Node 12, Type 0, BuildingBlock: KUFVIS_clean_sbu_0, # of connection points: 4
#     Node 13, Type 0, BuildingBlock: KUFVIS_clean_sbu_0, # of connection points: 4
#     Node 14, Type 0, BuildingBlock: KUFVIS_clean_sbu_0, # of connection points: 4
#     Node 15, Type 0, BuildingBlock: KUFVIS_clean_sbu_0, # of connection points: 4
#     Node 16, Type 0, BuildingBlock: KUFVIS_clean_sbu_0, # of connection points: 4
#     Node 17, Type 0, BuildingBlock: KUFVIS_clean_sbu_0, # of connection points: 4
#     Node 18, Type 0, BuildingBlock: KUFVIS_clean_sbu_0, # of connection points: 4
#     Node 19, Type 0, BuildingBlock: KUFVIS_clean_sbu_0, # of connection points: 4
#     Node 20, Type 0, BuildingBlock: KUFVIS_clean_sbu_0, # of connection points: 4
#     Node 21, Type 0, BuildingBlock: KUFVIS_clean_sbu_0, # of connection points: 4
#     Node 22, Type 0, BuildingBlock: KUFVIS_clean_sbu_0, # of connection points: 4
#     Node 23, Type 0, BuildingBlock: KUFVIS_clean_sbu_0, # of connection points: 4
#     Node 24, Type 0, BuildingBlock: KUFVIS_clean_sbu_0, # of connection points: 4
#     Node 25, Type 0, BuildingBlock: KUFVIS_clean_sbu_0, # of connection points: 4
#     Node 26, Type 0, BuildingBlock: KUFVIS_clean_sbu_0, # of connection points: 4
#     Node 27, Type 0, BuildingBlock: KUFVIS_clean_sbu_0, # of connection points: 4
#     Node 28, Type 0, BuildingBlock: KUFVIS_clean_sbu_0, # of connection points: 4
#     Node 29, Type 0, BuildingBlock: KUFVIS_clean_sbu_0, # of connection points: 4
#     Node 30, Type 0, BuildingBlock: KUFVIS_clean_sbu_0, # of connection points: 4
#     Node 31, Type 0, BuildingBlock: KUFVIS_clean_sbu_0, # of connection points: 4
#     Node 32, Type 0, BuildingBlock: KUFVIS_clean_sbu_0, # of connection points: 4
#     Node 33, Type 0, BuildingBlock: KUFVIS_clean_sbu_0, # of connection points: 4
#     Node 34, Type 0, BuildingBlock: KUFVIS_clean_sbu_0, # of connection points: 4
#     Node 35, Type 0, BuildingBlock: KUFVIS_clean_sbu_0, # of connection points: 4
#     Edge 36, Type (0, 0), BuildingBlock: XIVTED_clean_linker_0, # of connection points: 2
#     Edge 37, Type (0, 0), BuildingBlock: XIVTED_clean_linker_0, # of connection points: 2
#     Edge 38, Type (0, 0), BuildingBlock: XIVTED_clean_linker_0, # of connection points: 2
#     Edge 39, Type (0, 0), BuildingBlock: XIVTED_clean_linker_0, # of connection points: 2
#     Edge 40, Type (0, 0), BuildingBlock: XIVTED_clean_linker_0, # of connection points: 2
#     Edge 41, Type (0, 0), BuildingBlock: XIVTED_clean_linker_0, # of connection points: 2
#     Edge 42, Type (0, 0), BuildingBlock: XIVTED_clean_linker_0, # of connection points: 2
#     Edge 43, Type (0, 0), BuildingBlock: XIVTED_clean_linker_0, # of connection points: 2
#     Edge 44, Type (0, 0), BuildingBlock: XIVTED_clean_linker_0, # of connection points: 2
#     Edge 45, Type (0, 0), BuildingBlock: XIVTED_clean_linker_0, # of connection points: 2
#     Edge 46, Type (0, 0), BuildingBlock: XIVTED_clean_linker_0, # of connection points: 2
#     Edge 47, Type (0, 0), BuildingBlock: XIVTED_clean_linker_0, # of connection points: 2
#     Edge 48, Type (0, 0), BuildingBlock: XIVTED_clean_linker_0, # of connection points: 2
#     Edge 49, Type (0, 0), BuildingBlock: XIVTED_clean_linker_0, # of connection points: 2
#     Edge 50, Type (0, 0), BuildingBlock: XIVTED_clean_linker_0, # of connection points: 2
#     Edge 51, Type (0, 0), BuildingBlock: XIVTED_clean_linker_0, # of connection points: 2
#     Edge 52, Type (0, 0), BuildingBlock: XIVTED_clean_linker_0, # of connection points: 2
#     Edge 53, Type (0, 0), BuildingBlock: XIVTED_clean_linker_0, # of connection points: 2
#     Edge 54, Type (0, 0), BuildingBlock: XIVTED_clean_linker_0, # of connection points: 2
#     Edge 55, Type (0, 0), BuildingBlock: XIVTED_clean_linker_0, # of connection points: 2
#     Edge 56, Type (0, 0), BuildingBlock: XIVTED_clean_linker_0, # of connection points: 2
#     Edge 57, Type (0, 0), BuildingBlock: XIVTED_clean_linker_0, # of connection points: 2
#     Edge 58, Type (0, 0), BuildingBlock: XIVTED_clean_linker_0, # of connection points: 2
#     Edge 59, Type (0, 0), BuildingBlock: XIVTED_clean_linker_0, # of connection points: 2
#     Edge 60, Type (0, 0), BuildingBlock: XIVTED_clean_linker_0, # of connection points: 2
#     Edge 61, Type (0, 0), BuildingBlock: XIVTED_clean_linker_0, # of connection points: 2
#     Edge 62, Type (0, 0), BuildingBlock: XIVTED_clean_linker_0, # of connection points: 2
#     Edge 63, Type (0, 0), BuildingBlock: XIVTED_clean_linker_0, # of connection points: 2
#     Edge 64, Type (0, 0), BuildingBlock: XIVTED_clean_linker_0, # of connection points: 2
#     Edge 65, Type (0, 0), BuildingBlock: XIVTED_clean_linker_0, # of connection points: 2
#     Edge 66, Type (0, 0), BuildingBlock: XIVTED_clean_linker_0, # of connection points: 2
#     Edge 67, Type (0, 0), BuildingBlock: XIVTED_clean_linker_0, # of connection points: 2
#     Edge 68, Type (0, 0), BuildingBlock: XIVTED_clean_linker_0, # of connection points: 2
#     Edge 69, Type (0, 0), BuildingBlock: XIVTED_clean_linker_0, # of connection points: 2
#     Edge 70, Type (0, 0), BuildingBlock: XIVTED_clean_linker_0, # of connection points: 2
#     Edge 71, Type (0, 0), BuildingBlock: XIVTED_clean_linker_0, # of connection points: 2
#     Edge 72, Type (0, 0), BuildingBlock: XIVTED_clean_linker_0, # of connection points: 2
#     Edge 73, Type (0, 0), BuildingBlock: XIVTED_clean_linker_0, # of connection points: 2
#     Edge 74, Type (0, 0), BuildingBlock: XIVTED_clean_linker_0, # of connection points: 2
#     Edge 75, Type (0, 0), BuildingBlock: XIVTED_clean_linker_0, # of connection points: 2
#     Edge 76, Type (0, 0), BuildingBlock: XIVTED_clean_linker_0, # of connection points: 2
#     Edge 77, Type (0, 0), BuildingBlock: XIVTED_clean_linker_0, # of connection points: 2
#     Edge 78, Type (0, 0), BuildingBlock: XIVTED_clean_linker_0, # of connection points: 2
#     Edge 79, Type (0, 0), BuildingBlock: XIVTED_clean_linker_0, # of connection points: 2
#     Edge 80, Type (0, 0), BuildingBlock: XIVTED_clean_linker_0, # of connection points: 2
#     Edge 81, Type (0, 0), BuildingBlock: XIVTED_clean_linker_0, # of connection points: 2
#     Edge 82, Type (0, 0), BuildingBlock: XIVTED_clean_linker_0, # of connection points: 2
#     Edge 83, Type (0, 0), BuildingBlock: XIVTED_clean_linker_0, # of connection points: 2
#     Edge 84, Type (0, 0), BuildingBlock: XIVTED_clean_linker_0, # of connection points: 2
#     Edge 85, Type (0, 0), BuildingBlock: XIVTED_clean_linker_0, # of connection points: 2
#     Edge 86, Type (0, 0), BuildingBlock: XIVTED_clean_linker_0, # of connection points: 2
#     Edge 87, Type (0, 0), BuildingBlock: XIVTED_clean_linker_0, # of connection points: 2
#     Edge 88, Type (0, 0), BuildingBlock: XIVTED_clean_linker_0, # of connection points: 2
#     Edge 89, Type (0, 0), BuildingBlock: XIVTED_clean_linker_0, # of connection points: 2
#     Edge 90, Type (0, 0), BuildingBlock: XIVTED_clean_linker_0, # of connection points: 2
#     Edge 91, Type (0, 0), BuildingBlock: XIVTED_clean_linker_0, # of connection points: 2
#     Edge 92, Type (0, 0), BuildingBlock: XIVTED_clean_linker_0, # of connection points: 2
#     Edge 93, Type (0, 0), BuildingBlock: XIVTED_clean_linker_0, # of connection points: 2
#     Edge 94, Type (0, 0), BuildingBlock: XIVTED_clean_linker_0, # of connection points: 2
#     Edge 95, Type (0, 0), BuildingBlock: XIVTED_clean_linker_0, # of connection points: 2
#     Edge 96, Type (0, 0), BuildingBlock: XIVTED_clean_linker_0, # of connection points: 2
#     Edge 97, Type (0, 0), BuildingBlock: XIVTED_clean_linker_0, # of connection points: 2
#     Edge 98, Type (0, 0), BuildingBlock: XIVTED_clean_linker_0, # of connection points: 2
#     Edge 99, Type (0, 0), BuildingBlock: XIVTED_clean_linker_0, # of connection points: 2
#     Edge 100, Type (0, 0), BuildingBlock: XIVTED_clean_linker_0, # of connection points: 2
#     Edge 101, Type (0, 0), BuildingBlock: XIVTED_clean_linker_0, # of connection points: 2
#     Edge 102, Type (0, 0), BuildingBlock: XIVTED_clean_linker_0, # of connection points: 2
#     Edge 103, Type (0, 0), BuildingBlock: XIVTED_clean_linker_0, # of connection points: 2
#     Edge 104, Type (0, 0), BuildingBlock: XIVTED_clean_linker_0, # of connection points: 2
#     Edge 105, Type (0, 0), BuildingBlock: XIVTED_clean_linker_0, # of connection points: 2
#     Edge 106, Type (0, 0), BuildingBlock: XIVTED_clean_linker_0, # of connection points: 2
#     Edge 107, Type (0, 0), BuildingBlock: XIVTED_clean_linker_0, # of connection points: 2
# Relax obj value: 0.124
# Max RMSD: 0.188
# Mean RMSD: 0.175
data_MOF--net-uoh--node1-KUFVIS_clean_sbu_0--edge1-XIVTED_clean_linker_0
_symmetry_space_group_name_H-M    P1
_symmetry_Int_Tables_number       1
_symmetry_cell_setting            triclinic
loop_
_symmetry_equiv_pos_as_xyz
'x, y, z'
_cell_length_a     86.872641
_cell_length_b     89.320785
_cell_length_c     27.291581
_cell_angle_alpha  89.814407
_cell_angle_beta   89.991743
_cell_angle_gamma 119.1312
loop_
_atom_site_label
_atom_site_type_symbol
_atom_site_fract_x
_atom_site_fract_y
_atom_site_fract_z
_atom_type_partial_charge
Mn0 Mn 0.24002 0.14746 0.14945 0.0
Mn1 Mn 0.19954 0.11379 0.13499 0.0
C2 C 0.22936 0.13854 0.07171 0.0
C3 C 0.26967 0.15656 0.16321 0.0
C4 C 0.20653 0.14932 0.16633 0.0
O5 O 0.23367 0.13641 0.21649 0.0
O6 O 0.20855 0.11191 0.20087 0.0
C7 C 0.20835 0.08571 0.13192 0.0
N8 N 0.20116 0.09462 0.11022 0.0
C9 C 0.1937 0.07703 0.03811 0.0
C10 C 0.20089 0.06757 0.05986 0.0
C11 C 0.20826 0.07194 0.10695 0.0
C12 C 0.19402 0.09051 0.06496 0.0
H13 H 0.21418 0.08914 0.16791 0.0
C14 C 0.22112 0.12182 0.22942 0.0
O15 O 0.26292 0.16628 0.17453 0.0
O16 O 0.25927 0.14182 0.14383 0.0
N17 N 0.18957 0.11407 0.07265 0.0
C18 C 0.18411 0.12508 0.05577 0.0
C19 C 0.17687 0.1228 0.00858 0.0
C20 C 0.17531 0.10922 0.97929 0.0
C21 C 0.18091 0.09799 -0.00241 0.0
C22 C 0.18782 0.10077 0.04511 0.0
H23 H 0.18535 0.13558 0.078 0.0
O24 O 0.2425 0.15381 0.07857 0.0
O25 O 0.22324 0.129 0.11058 0.0
O26 O 0.22324 0.15709 0.16054 0.0
O27 O 0.19675 0.13319 0.1595 0.0
C28 C 0.18023 0.08434 0.97017 0.0
C29 C 0.18662 0.07387 0.99042 0.0
H30 H 0.20098 0.05704 0.04055 0.0
H31 H 0.21394 0.06478 0.12384 0.0
H32 H 0.1726 0.13154 0.99469 0.0
H33 H 0.16991 0.10763 0.9427 0.0
H34 H 0.17503 0.08192 0.93324 0.0
H35 H 0.18624 0.06356 0.96873 0.0
Mn36 Mn 0.85664 0.09586 0.16818 0.0
Mn37 Mn 0.88957 0.08687 0.15077 0.0
C38 C 0.86538 0.09381 0.08955 0.0
C39 C 0.84924 0.11762 0.17864 0.0
C40 C 0.85257 0.06047 0.18463 0.0
O41 O 0.86848 0.10021 0.23471 0.0
O42 O 0.89249 0.09761 0.21655 0.0
C43 C 0.92019 0.12187 0.14685 0.0
N44 N 0.90999 0.10641 0.12525 0.0
C45 C 0.9278 0.1154 0.05221 0.0
C46 C 0.9386 0.13136 0.07388 0.0
C47 C 0.93476 0.13461 0.12139 0.0
C48 C 0.9136 0.10312 0.07961 0.0
H49 H 0.91715 0.1245 0.18309 0.0
C50 C 0.88321 0.10118 0.24595 0.0
O51 O 0.83847 0.10196 0.19249 0.0
O52 O 0.86413 0.12046 0.16036 0.0
N53 N 0.88811 0.07676 0.08797 0.0
C54 C 0.87563 0.06123 0.07092 0.0
C55 C 0.87708 0.0563 0.0231 0.0
C56 C 0.89132 0.06737 0.99332 0.0
C57 C 0.90402 0.08328 0.01167 0.0
C58 C 0.90198 0.08744 0.0598 0.0
H59 H 0.86459 0.05272 0.0935 0.0
O60 O 0.84989 0.09216 0.09722 0.0
O61 O 0.87495 0.09639 0.12831 0.0
O62 O 0.84524 0.06986 0.18076 0.0
O63 O 0.86893 0.06597 0.17587 0.0
C64 C 0.91839 0.09533 0.98373 0.0
C65 C 0.93028 0.11137 0.00399 0.0
H66 H 0.94973 0.14129 0.05415 0.0
H67 H 0.94294 0.14695 0.1382 0.0
H68 H 0.8672 0.04402 0.00913 0.0
H69 H 0.8923 0.06358 0.95628 0.0
H70 H 0.92028 0.09249 0.94637 0.0
H71 H 0.94113 0.12063 0.98189 0.0
Mn72 Mn 0.90398 0.75835 0.14411 0.0
Mn73 Mn 0.91014 0.79818 0.12685 0.0
C74 C 0.90816 0.76953 0.06623 0.0
C75 C 0.88295 0.72945 0.15296 0.0
C76 C 0.93838 0.7906 0.16715 0.0
O77 O 0.89673 0.7641 0.20837 0.0
O78 O 0.89805 0.78943 0.1912 0.0
C79 C 0.87296 0.79 0.11634 0.0
N80 N 0.88956 0.7969 0.09755 0.0
C81 C 0.88049 0.80437 0.02226 0.0
C82 C 0.86333 0.79747 0.04096 0.0
C83 C 0.85955 0.79024 0.08819 0.0
C84 C 0.89335 0.80391 0.05219 0.0
H85 H 0.86997 0.78428 0.15244 0.0
C86 C 0.89461 0.77679 0.21993 0.0
O87 O 0.89886 0.73521 0.16988 0.0
O88 O 0.87956 0.74041 0.13141 0.0
N89 N 0.92158 0.80802 0.06591 0.0
C90 C 0.93857 0.81332 0.05239 0.0
C91 C 0.94439 0.8205 0.00566 0.0
C92 C 0.93271 0.82217 0.97339 0.0
C93 C 0.91532 0.81672 0.98827 0.0
C94 C 0.91033 0.80987 0.03551 0.0
H95 H 0.94757 0.81199 0.07695 0.0
O96 O 0.91053 0.75651 0.07512 0.0
O97 O 0.90322 0.77527 0.10321 0.0
O98 O 0.92992 0.77426 0.16254 0.0
O99 O 0.93194 0.80036 0.15588 0.0
C100 C 0.90266 0.81752 0.95774 0.0
C101 C 0.88525 0.81133 0.97471 0.0
H102 H 0.85291 0.79749 0.0192 0.0
H103 H 0.84631 0.78478 0.10274 0.0
H104 H 0.95782 0.82465 0.99442 0.0
H105 H 0.93719 0.82752 0.93717 0.0
H106 H 0.90611 0.82266 0.92093 0.0
H107 H 0.87558 0.81182 0.95067 0.0
Mn108 Mn 0.14564 0.24323 0.34006 0.0
Mn109 Mn 0.11325 0.20328 0.36626 0.0
C110 C 0.14086 0.23339 0.41967 0.0
C111 C 0.15409 0.27212 0.32887 0.0
C112 C 0.14802 0.21073 0.31982 0.0
O113 O 0.13042 0.23657 0.27934 0.0
O114 O 0.1086 0.21024 0.30085 0.0
C115 C 0.08392 0.21097 0.37711 0.0
N116 N 0.09421 0.20482 0.39639 0.0
C117 C 0.07896 0.19887 0.47368 0.0
C118 C 0.06811 0.20501 0.45452 0.0
C119 C 0.07062 0.21111 0.40604 0.0
C120 C 0.09191 0.19892 0.44299 0.0
H121 H 0.08592 0.21582 0.34001 0.0
C122 C 0.11599 0.22291 0.27099 0.0
O123 O 0.16321 0.26559 0.30976 0.0
O124 O 0.14018 0.26186 0.35364 0.0
N125 N 0.11616 0.19508 0.42856 0.0
C126 C 0.12827 0.19035 0.44215 0.0
C127 C 0.12784 0.18429 0.48997 0.0
C128 C 0.11496 0.18314 0.52323 0.0
C129 C 0.10254 0.18794 0.50825 0.0
C130 C 0.10347 0.19367 0.45995 0.0
H131 H 0.13825 0.19129 0.41679 0.0
O132 O 0.15603 0.24609 0.40701 0.0
O133 O 0.12917 0.22693 0.38516 0.0
O134 O 0.15514 0.22708 0.31975 0.0
O135 O 0.13254 0.2008 0.33642 0.0
C136 C 0.08946 0.18756 0.5396 0.0
C137 C 0.0777 0.19304 0.52235 0.0
H138 H 0.05793 0.20527 0.47683 0.0
H139 H 0.06237 0.21598 0.39109 0.0
H140 H 0.13749 0.18062 0.50126 0.0
H141 H 0.11481 0.17867 0.56026 0.0
H142 H 0.08849 0.1833 0.57724 0.0
H143 H 0.06785 0.19289 0.54698 0.0
Mn144 Mn 0.7609 0.90493 0.34211 0.0
Mn145 Mn 0.8034 0.91456 0.35151 0.0
C146 C 0.77398 0.90913 0.41811 0.0
C147 C 0.73142 0.8832 0.33805 0.0
C148 C 0.79197 0.94025 0.31833 0.0
O149 O 0.76614 0.89818 0.27618 0.0
O150 O 0.79412 0.90341 0.28688 0.0
C151 C 0.79902 0.87957 0.35451 0.0
N152 N 0.80476 0.89515 0.37587 0.0
C153 C 0.81515 0.88657 0.44658 0.0
C154 C 0.80946 0.87047 0.42518 0.0
C155 C 0.80136 0.86696 0.37896 0.0
C156 C 0.81269 0.89871 0.42019 0.0
H157 H 0.79265 0.87676 0.31917 0.0
C158 C 0.77997 0.89794 0.26152 0.0
O159 O 0.7362 0.89853 0.32149 0.0
O160 O 0.74368 0.88068 0.35642 0.0
N161 N 0.81359 0.92509 0.4128 0.0
C162 C 0.81715 0.94077 0.42985 0.0
C163 C 0.82464 0.946 0.47651 0.0
C164 C 0.82838 0.93507 0.50513 0.0
C165 C 0.82462 0.919 0.48677 0.0
C166 C 0.81733 0.91455 0.4398 0.0
H167 H 0.81416 0.94916 0.40817 0.0
O168 O 0.76005 0.91081 0.41236 0.0
O169 O 0.77981 0.90536 0.3789 0.0
O170 O 0.77531 0.93056 0.32302 0.0
O171 O 0.80318 0.93524 0.32745 0.0
C172 C 0.82747 0.90708 0.51368 0.0
C173 C 0.82276 0.89088 0.49358 0.0
H174 H 0.81106 0.86065 0.44415 0.0
H175 H 0.79683 0.85453 0.36234 0.0
H176 H 0.82743 0.95839 0.49051 0.0
H177 H 0.83399 0.93908 0.54131 0.0
H178 H 0.83306 0.91016 0.55013 0.0
H179 H 0.82479 0.88174 0.51489 0.0
Mn180 Mn 0.09393 0.85513 0.34209 0.0
Mn181 Mn 0.08558 0.88792 0.35326 0.0
C182 C 0.09138 0.86422 0.41896 0.0
C183 C 0.11544 0.84714 0.33058 0.0
C184 C 0.0581 0.85182 0.32249 0.0
O185 O 0.09862 0.86579 0.27451 0.0
O186 O 0.09702 0.88989 0.28824 0.0
C187 C 0.122 0.91692 0.35707 0.0
N188 N 0.10584 0.90763 0.37821 0.0
C189 C 0.11504 0.92553 0.44979 0.0
C190 C 0.13173 0.93539 0.4286 0.0
C191 C 0.13523 0.93105 0.38206 0.0
C192 C 0.10233 0.9117 0.42294 0.0
H193 H 0.1248 0.91352 0.32151 0.0
C194 C 0.10029 0.88015 0.26069 0.0
O195 O 0.0991 0.83678 0.319 0.0
O196 O 0.11906 0.86181 0.34909 0.0
N197 N 0.07476 0.88751 0.41476 0.0
C198 C 0.05831 0.87617 0.43113 0.0
C199 C 0.05288 0.87842 0.47771 0.0
C200 C 0.06441 0.89229 0.50692 0.0
C201 C 0.08124 0.90386 0.48918 0.0
C202 C 0.08584 0.90109 0.44223 0.0
H203 H 0.04942 0.86543 0.40894 0.0
O204 O 0.08988 0.84915 0.41323 0.0
O205 O 0.09467 0.87347 0.37954 0.0
O206 O 0.06743 0.84453 0.3297 0.0
O207 O 0.06392 0.86791 0.3285 0.0
C208 C 0.09375 0.91784 0.5166 0.0
C209 C 0.11063 0.92867 0.49693 0.0
H210 H 0.14202 0.94621 0.44794 0.0
H211 H 0.14812 0.93852 0.36561 0.0
H212 H 0.03988 0.86942 0.49118 0.0
H213 H 0.06024 0.89387 0.54305 0.0
H214 H 0.09059 0.92026 0.5531 0.0
H215 H 0.12021 0.93925 0.5186 0.0
Mn216 Mn 0.75145 0.8466 0.8463 0.0
Mn217 Mn 0.72291 0.81743 0.76709 0.0
C218 C 0.72343 0.84296 0.83979 0.0
C219 C 0.76389 0.85263 0.92396 0.0
C220 C 0.75288 0.8522 0.73643 0.0
O221 O 0.7631 0.83243 0.82817 0.0
O222 O 0.74173 0.8116 0.78308 0.0
C223 C 0.70751 0.78692 0.83175 0.0
N224 N 0.70538 0.79799 0.80178 0.0
C225 C 0.67388 0.78236 0.81192 0.0
C226 C 0.67572 0.77071 0.84267 0.0
C227 C 0.69261 0.77304 0.85272 0.0
C228 C 0.6892 0.79591 0.79198 0.0
H229 H 0.72048 0.7887 0.83957 0.0
C230 C 0.75691 0.81858 0.80355 0.0
O231 O 0.77209 0.86245 0.88682 0.0
O232 O 0.74895 0.83906 0.91531 0.0
N233 N 0.70401 0.82139 0.7479 0.0
C234 C 0.70462 0.83429 0.7197 0.0
C235 C 0.68886 0.83417 0.70741 0.0
C236 C 0.67266 0.82073 0.72375 0.0
C237 C 0.67235 0.80747 0.75215 0.0
C238 C 0.68847 0.80823 0.76307 0.0
H239 H 0.71703 0.84462 0.70691 0.0
O240 O 0.73592 0.85677 0.85916 0.0
O241 O 0.7276 0.83143 0.82611 0.0
O242 O 0.75814 0.85832 0.77913 0.0
O243 O 0.74029 0.83707 0.72829 0.0
C244 C 0.65672 0.79374 0.77097 0.0
C245 C 0.65749 0.78122 0.80094 0.0
H246 H 0.66427 0.76003 0.85907 0.0
H247 H 0.69413 0.76415 0.8766 0.0
H248 H 0.68921 0.84445 0.68546 0.0
H249 H 0.66054 0.82077 0.71458 0.0
H250 H 0.64407 0.79284 0.76328 0.0
H251 H 0.64541 0.77087 0.81581 0.0
Mn252 Mn 0.15425 0.90657 0.84088 0.0
Mn253 Mn 0.12208 0.91691 0.856 0.0
C254 C 0.14591 0.90981 0.91875 0.0
C255 C 0.1609 0.88427 0.83118 0.0
C256 C 0.15949 0.94255 0.82389 0.0
O257 O 0.14266 0.90211 0.77417 0.0
O258 O 0.11972 0.90661 0.78983 0.0
C259 C 0.09129 0.882 0.8573 0.0
N260 N 0.10123 0.89739 0.87958 0.0
C261 C 0.08224 0.88838 0.9503 0.0
C262 C 0.07171 0.87248 0.92793 0.0
C263 C 0.07628 0.86928 0.88126 0.0
C264 C 0.09697 0.9006 0.92449 0.0
H265 H 0.09484 0.87945 0.8216 0.0
C266 C 0.1286 0.90224 0.76138 0.0
O267 O 0.17195 0.8998 0.81702 0.0
O268 O 0.14622 0.88187 0.84999 0.0
N269 N 0.12273 0.92684 0.91859 0.0
C270 C 0.13481 0.94245 0.93622 0.0
C271 C 0.13245 0.94747 0.98308 0.0
C272 C 0.11769 0.93641 0.01128 0.0
C273 C 0.10537 0.92046 0.99222 0.0
C274 C 0.10831 0.91624 0.94506 0.0
H275 H 0.14624 0.95095 0.91487 0.0
O276 O 0.16107 0.91064 0.91171 0.0
O277 O 0.1362 0.90697 0.8801 0.0
O278 O 0.1662 0.93258 0.82673 0.0
O279 O 0.14327 0.93769 0.83305 0.0
C280 C 0.09047 0.90846 0.01855 0.0
C281 C 0.07892 0.89242 -0.00237 0.0
H282 H 0.06019 0.86259 0.94644 0.0
H283 H 0.06828 0.857 0.86389 0.0
H284 H 0.14204 0.95978 -0.00243 0.0
H285 H 0.11602 0.94024 0.04764 0.0
H286 H 0.0879 0.91133 0.0552 0.0
H287 H 0.06765 0.8832 0.01851 0.0
Mn288 Mn 0.09878 0.24852 0.84977 0.0
Mn289 Mn 0.08735 0.20667 0.85704 0.0
C290 C 0.0926 0.23521 0.92491 0.0
C291 C 0.12066 0.27712 0.84555 0.0
C292 C 0.06268 0.21943 0.82095 0.0
O293 O 0.10587 0.24349 0.78396 0.0
O294 O 0.10049 0.2163 0.79457 0.0
C295 C 0.12267 0.20965 0.86635 0.0
N296 N 0.10614 0.20405 0.88442 0.0
C297 C 0.11204 0.1911 0.95421 0.0
C298 C 0.12909 0.19662 0.93617 0.0
C299 C 0.13443 0.20596 0.89209 0.0
C300 C 0.10083 0.195 0.92668 0.0
H301 H 0.12685 0.2169 0.8326 0.0
C302 C 0.10616 0.2301 0.76919 0.0
O303 O 0.10497 0.27209 0.82822 0.0
O304 O 0.12364 0.2655 0.86496 0.0
N305 N 0.07472 0.19588 0.91576 0.0
C306 C 0.05837 0.19271 0.93002 0.0
C307 C 0.05135 0.18415 0.97453 0.0
C308 C 0.06116 0.17888 0.00376 0.0
C309 C 0.07792 0.1822 0.98817 0.0
C310 C 0.08418 0.19066 0.94328 0.0
H311 H 0.05081 0.1968 0.90779 0.0
O312 O 0.09195 0.24931 0.91878 0.0
O313 O 0.09716 0.22949 0.88687 0.0
O314 O 0.07292 0.23529 0.82931 0.0
O315 O 0.06696 0.20784 0.82904 0.0
C316 C 0.08883 0.17784 0.016 0.0
C317 C 0.10587 0.18228 -0.00098 0.0
H318 H 0.13825 0.19393 0.95614 0.0
H319 H 0.1476 0.21035 0.87809 0.0
H320 H 0.03843 0.18168 0.98638 0.0
H321 H 0.05577 0.17243 0.0383 0.0
H322 H 0.08436 0.17132 0.0509 0.0
H323 H 0.11425 0.1791 0.02112 0.0
Mn324 Mn 0.84766 0.75245 0.64023 0.0
Mn325 Mn 0.87677 0.79459 0.63237 0.0
C326 C 0.85483 0.76568 0.56491 0.0
C327 C 0.84278 0.72442 0.64571 0.0
C328 C 0.83905 0.78045 0.66835 0.0
O329 O 0.85945 0.75826 0.70657 0.0
O330 O 0.88096 0.78558 0.69492 0.0
C331 C 0.90989 0.79306 0.62258 0.0
N332 N 0.89835 0.79786 0.60435 0.0
C333 C 0.91622 0.81006 0.53239 0.0
C334 C 0.92836 0.80536 0.55057 0.0
C335 C 0.92517 0.79681 0.59584 0.0
C336 C 0.90131 0.80614 0.5609 0.0
H337 H 0.90742 0.78637 0.65718 0.0
C338 C 0.87296 0.77191 0.72091 0.0
O339 O 0.83124 0.72852 0.6618 0.0
O340 O 0.85708 0.73659 0.62657 0.0
N341 N 0.87409 0.80466 0.5732 0.0
C342 C 0.86054 0.80733 0.55948 0.0
C343 C 0.86138 0.81525 0.51427 0.0
C344 C 0.87613 0.82035 0.48371 0.0
C345 C 0.88995 0.81754 0.49875 0.0
C346 C 0.88848 0.80976 0.54443 0.0
H347 H 0.84914 0.80336 0.5827 0.0
O348 O 0.84042 0.75118 0.57029 0.0
O349 O 0.86456 0.77171 0.60368 0.0
O350 O 0.83388 0.76471 0.65917 0.0
O351 O 0.85483 0.79245 0.66087 0.0
C352 C 0.90497 0.82184 0.46977 0.0
C353 C 0.9181 0.81811 0.48659 0.0
H354 H 0.94008 0.80809 0.52985 0.0
H355 H 0.93443 0.79304 0.60997 0.0
H356 H 0.85064 0.81734 0.50288 0.0
H357 H 0.87664 0.82629 0.44864 0.0
H358 H 0.90645 0.82782 0.4342 0.0
H359 H 0.92947 0.82127 0.46368 0.0
Mn360 Mn 0.24776 0.09518 0.64792 0.0
Mn361 Mn 0.20516 0.08476 0.63591 0.0
C362 C 0.23521 0.09052 0.57098 0.0
C363 C 0.27682 0.11755 0.65429 0.0
C364 C 0.21731 0.05995 0.67328 0.0
O365 O 0.24137 0.1009 0.7141 0.0
O366 O 0.21408 0.09699 0.69928 0.0
C367 C 0.209 0.11942 0.62617 0.0
N368 N 0.2034 0.10346 0.60759 0.0
C369 C 0.19257 0.11035 0.53458 0.0
C370 C 0.1981 0.12681 0.55309 0.0
C371 C 0.20637 0.13137 0.59906 0.0
C372 C 0.19541 0.09893 0.56345 0.0
H373 H 0.21549 0.123 0.66131 0.0
C374 C 0.22757 0.10154 0.72694 0.0
O375 O 0.2724 0.10225 0.67048 0.0
O376 O 0.26443 0.11969 0.63511 0.0
N377 N 0.1951 0.073 0.57593 0.0
C378 C 0.19148 0.05697 0.56215 0.0
C379 C 0.18362 0.05061 0.51644 0.0
C380 C 0.17955 0.06077 0.48545 0.0
C381 C 0.1833 0.0772 0.50055 0.0
C382 C 0.19095 0.08277 0.54674 0.0
H383 H 0.19464 0.04912 0.58575 0.0
O384 O 0.24963 0.0898 0.57761 0.0
O385 O 0.22886 0.09405 0.6095 0.0
O386 O 0.23387 0.0695 0.66605 0.0
O387 O 0.20592 0.06477 0.66427 0.0
C388 C 0.18009 0.08838 0.47117 0.0
C389 C 0.18473 0.10495 0.48816 0.0
H390 H 0.19623 0.13612 0.53212 0.0
H391 H 0.21077 0.14409 0.61345 0.0
H392 H 0.1808 0.03793 0.505 0.0
H393 H 0.17367 0.0559 0.44999 0.0
H394 H 0.17427 0.08446 0.43517 0.0
H395 H 0.18241 0.11351 0.46495 0.0
Mn396 Mn 0.90652 0.15431 0.65726 0.0
Mn397 Mn 0.90923 0.1864 0.72821 0.0
C398 C 0.88328 0.15985 0.65899 0.0
C399 C 0.91201 0.14492 0.58351 0.0
C400 C 0.90147 0.15162 0.7679 0.0
O401 O 0.93248 0.16756 0.675 0.0
O402 O 0.93332 0.18995 0.7151 0.0
C403 C 0.92675 0.21505 0.65761 0.0
N404 N 0.91304 0.20551 0.68831 0.0
C405 C 0.89954 0.22292 0.67092 0.0
C406 C 0.91358 0.23301 0.63933 0.0
C407 C 0.92722 0.22903 0.63255 0.0
C408 C 0.89982 0.20919 0.69496 0.0
H409 H 0.93724 0.212 0.65233 0.0
C410 C 0.94079 0.18185 0.69729 0.0
O411 O 0.90963 0.13624 0.62372 0.0
O412 O 0.91198 0.1594 0.58659 0.0
N413 N 0.88708 0.18486 0.7445 0.0
C414 C 0.87418 0.17345 0.77473 0.0
C415 C 0.85937 0.17538 0.78452 0.0
C416 C 0.85809 0.18914 0.76369 0.0
C417 C 0.87168 0.20089 0.73341 0.0
C418 C 0.88616 0.19836 0.72518 0.0
H419 H 0.87513 0.16289 0.79099 0.0
O420 O 0.88109 0.14525 0.64347 0.0
O421 O 0.89927 0.17116 0.67152 0.0
O422 O 0.90073 0.14453 0.72684 0.0
O423 O 0.90498 0.16721 0.77229 0.0
C424 C 0.87127 0.21481 0.71027 0.0
C425 C 0.88516 0.22579 0.67895 0.0
H426 H 0.91396 0.24377 0.61982 0.0
H427 H 0.93805 0.23671 0.60807 0.0
H428 H 0.84895 0.16627 0.80798 0.0
H429 H 0.84657 0.19049 0.77094 0.0
H430 H 0.86021 0.21707 0.71581 0.0
H431 H 0.88459 0.23633 0.66089 0.0
Mn432 Mn 0.90803 0.47889 0.48174 0.0
Mn433 Mn 0.86712 0.44581 0.46874 0.0
C434 C 0.89661 0.4704 0.40438 0.0
C435 C 0.93765 0.48729 0.49311 0.0
C436 C 0.87511 0.48142 0.50247 0.0
O437 O 0.90208 0.46757 0.54848 0.0
O438 O 0.8765 0.44346 0.53352 0.0
C439 C 0.87509 0.41722 0.46254 0.0
N440 N 0.86808 0.42651 0.44224 0.0
C441 C 0.85985 0.40927 0.36932 0.0
C442 C 0.86685 0.39943 0.38963 0.0
C443 C 0.87452 0.40344 0.43643 0.0
C444 C 0.86064 0.42274 0.39728 0.0
H445 H 0.88115 0.42037 0.49831 0.0
C446 C 0.88943 0.45306 0.56153 0.0
O447 O 0.93136 0.49729 0.50588 0.0
O448 O 0.92683 0.47273 0.47356 0.0
N449 N 0.85679 0.44657 0.40745 0.0
C450 C 0.85151 0.45788 0.39205 0.0
C451 C 0.84398 0.45596 0.34538 0.0
C452 C 0.84195 0.44243 0.31508 0.0
C453 C 0.84739 0.43089 0.33183 0.0
C454 C 0.85461 0.43333 0.37892 0.0
H455 H 0.85312 0.46835 0.41507 0.0
O456 O 0.91 0.48553 0.41114 0.0
O457 O 0.89068 0.46076 0.44312 0.0
O458 O 0.89176 0.48897 0.4956 0.0
O459 O 0.86502 0.46537 0.49514 0.0
C460 C 0.84625 0.41727 0.30329 0.0
C461 C 0.85247 0.40647 0.32202 0.0
H462 H 0.86657 0.38888 0.36943 0.0
H463 H 0.88005 0.39597 0.45221 0.0
H464 H 0.83984 0.46493 0.33268 0.0
H465 H 0.83631 0.44111 0.27889 0.0
H466 H 0.84079 0.41512 0.26667 0.0
H467 H 0.85172 0.39617 0.2995 0.0
Mn468 Mn 0.52298 0.42998 0.49221 0.0
Mn469 Mn 0.55489 0.41918 0.47935 0.0
C470 C 0.53001 0.4243 0.41545 0.0
C471 C 0.5159 0.45214 0.49629 0.0
C472 C 0.51849 0.39502 0.52065 0.0
O473 O 0.53643 0.43747 0.55614 0.0
O474 O 0.55876 0.43182 0.54225 0.0
C475 C 0.58607 0.45353 0.46766 0.0
N476 N 0.57527 0.43758 0.44966 0.0
C477 C 0.5923 0.44396 0.3754 0.0
C478 C 0.60366 0.46042 0.39327 0.0
C479 C 0.60052 0.46522 0.4396 0.0
C480 C 0.57824 0.43277 0.40529 0.0
H481 H 0.58361 0.45731 0.50309 0.0
C482 C 0.55073 0.43774 0.56866 0.0
O483 O 0.50551 0.43712 0.51505 0.0
O484 O 0.53019 0.45415 0.47572 0.0
N485 N 0.5525 0.40709 0.41957 0.0
C486 C 0.53956 0.39123 0.40622 0.0
C487 C 0.5403 0.38476 0.35998 0.0
C488 C 0.55432 0.39466 0.32799 0.0
C489 C 0.5675 0.41094 0.34257 0.0
C490 C 0.56615 0.41664 0.38928 0.0
H491 H 0.52868 0.38364 0.43052 0.0
O492 O 0.51473 0.42316 0.42331 0.0
O493 O 0.54038 0.42843 0.45313 0.0
O494 O 0.51156 0.40466 0.5143 0.0
O495 O 0.53443 0.39948 0.50933 0.0
C496 C 0.58169 0.42188 0.31216 0.0
C497 C 0.59409 0.43837 0.32858 0.0
H498 H 0.61472 0.46954 0.37152 0.0
H499 H 0.60918 0.47794 0.45353 0.0
H500 H 0.53005 0.37222 0.3489 0.0
H501 H 0.55475 0.38969 0.29216 0.0
H502 H 0.58306 0.41783 0.27581 0.0
H503 H 0.60481 0.44675 0.30461 0.0
Mn504 Mn 0.57164 0.09011 0.47503 0.0
Mn505 Mn 0.57698 0.12954 0.45565 0.0
C506 C 0.57396 0.10017 0.39618 0.0
C507 C 0.55099 0.06134 0.48812 0.0
C508 C 0.60628 0.12277 0.49181 0.0
O509 O 0.56576 0.09665 0.54021 0.0
O510 O 0.56616 0.12149 0.52187 0.0
C511 C 0.53954 0.12093 0.45054 0.0
N512 N 0.55576 0.12775 0.42932 0.0
C513 C 0.54516 0.13435 0.35538 0.0
C514 C 0.52837 0.12753 0.3766 0.0
C515 C 0.52555 0.12078 0.42436 0.0
C516 C 0.55863 0.13429 0.38341 0.0
H517 H 0.53729 0.11558 0.48706 0.0
C518 C 0.56355 0.1093 0.55155 0.0
O519 O 0.56726 0.06736 0.50223 0.0
O520 O 0.54705 0.07196 0.46684 0.0
N521 N 0.58716 0.13871 0.39296 0.0
C522 C 0.60387 0.14395 0.37689 0.0
C523 C 0.60873 0.15063 0.32927 0.0
C524 C 0.59638 0.15186 0.29873 0.0
C525 C 0.5793 0.14652 0.31622 0.0
C526 C 0.57528 0.14017 0.36421 0.0
H527 H 0.61339 0.14294 0.4001 0.0
O528 O 0.57665 0.08735 0.40517 0.0
O529 O 0.56979 0.10638 0.43366 0.0
O530 O 0.5979 0.10638 0.48885 0.0
O531 O 0.59942 0.13224 0.48148 0.0
C532 C 0.56601 0.14692 0.28759 0.0
C533 C 0.54895 0.14084 0.30715 0.0
H534 H 0.5175 0.12726 0.35638 0.0
H535 H 0.5126 0.11539 0.44086 0.0
H536 H 0.62194 0.15471 0.31602 0.0
H537 H 0.60012 0.15682 0.26182 0.0
H538 H 0.56871 0.15168 0.25026 0.0
H539 H 0.53878 0.141 0.28455 0.0
Mn540 Mn 0.81483 0.57518 0.6816 0.0
Mn541 Mn 0.78129 0.53518 0.69766 0.0
C542 C 0.80724 0.56399 0.75943 0.0
C543 C 0.82257 0.604 0.672 0.0
C544 C 0.81757 0.54316 0.65998 0.0
O545 O 0.80239 0.5693 0.61641 0.0
O546 O 0.77835 0.54388 0.63274 0.0
C547 C 0.75194 0.54295 0.70556 0.0
N548 N 0.76161 0.53619 0.72535 0.0
C549 C 0.74443 0.52849 0.79953 0.0
C550 C 0.73418 0.53523 0.77977 0.0
C551 C 0.73797 0.54251 0.7326 0.0
C552 C 0.75807 0.52914 0.77068 0.0
H553 H 0.75493 0.54871 0.66951 0.0
C554 C 0.78772 0.55654 0.60421 0.0
O555 O 0.83295 0.59834 0.65628 0.0
O556 O 0.80807 0.59298 0.69285 0.0
N557 N 0.78251 0.52538 0.75906 0.0
C558 C 0.79421 0.52025 0.77371 0.0
C559 C 0.79253 0.51305 0.82055 0.0
C560 C 0.77885 0.51119 0.85178 0.0
C561 C 0.7669 0.51646 0.83575 0.0
C562 C 0.76909 0.52334 0.78844 0.0
H563 H 0.80481 0.52173 0.74996 0.0
O564 O 0.82264 0.57711 0.75125 0.0
O565 O 0.79688 0.55815 0.72179 0.0
O566 O 0.82525 0.55948 0.66476 0.0
O567 O 0.80129 0.53325 0.67024 0.0
C568 C 0.7531 0.51547 0.86519 0.0
C569 C 0.74188 0.52149 0.84711 0.0
H570 H 0.72349 0.53505 0.80067 0.0
H571 H 0.7302 0.54785 0.71723 0.0
H572 H 0.80183 0.50904 0.83269 0.0
H573 H 0.77773 0.50582 0.8881 0.0
H574 H 0.75114 0.5103 0.90203 0.0
H575 H 0.73147 0.52085 0.87032 0.0
Mn576 Mn 0.42957 0.23891 0.67295 0.0
Mn577 Mn 0.47255 0.25059 0.68576 0.0
C578 C 0.44195 0.24324 0.74986 0.0
C579 C 0.40058 0.21639 0.66645 0.0
C580 C 0.45965 0.27522 0.6535 0.0
O581 O 0.43599 0.23306 0.60736 0.0
O582 O 0.46443 0.2401 0.61976 0.0
C583 C 0.46991 0.21627 0.68582 0.0
N584 N 0.47475 0.23147 0.70861 0.0
C585 C 0.4852 0.22278 0.77899 0.0
C586 C 0.48044 0.20709 0.7561 0.0
C587 C 0.47276 0.20383 0.70933 0.0
C588 C 0.48226 0.23479 0.7535 0.0
H589 H 0.46386 0.21364 0.65005 0.0
C590 C 0.45045 0.23399 0.59346 0.0
O591 O 0.4049 0.23169 0.65045 0.0
O592 O 0.41304 0.21433 0.68554 0.0
N593 N 0.48175 0.26056 0.74837 0.0
C594 C 0.48427 0.27572 0.76698 0.0
C595 C 0.49122 0.28061 0.81432 0.0
C596 C 0.49545 0.26985 0.84207 0.0
C597 C 0.49272 0.25429 0.82218 0.0
C598 C 0.48595 0.25019 0.77458 0.0
H599 H 0.48081 0.28393 0.7461 0.0
O600 O 0.42762 0.24412 0.74307 0.0
O601 O 0.44856 0.24006 0.71119 0.0
O602 O 0.44309 0.26471 0.65547 0.0
O603 O 0.47142 0.27101 0.66354 0.0
C604 C 0.49605 0.24252 0.84819 0.0
C605 C 0.49231 0.22678 0.82659 0.0
H606 H 0.48244 0.19738 0.77433 0.0
H607 H 0.46895 0.19171 0.69156 0.0
H608 H 0.49317 0.29259 0.82953 0.0
H609 H 0.50062 0.27358 0.87878 0.0
H610 H 0.50126 0.24534 0.88509 0.0
H611 H 0.4947 0.21773 0.84722 0.0
Mn612 Mn 0.76218 0.19345 0.6695 0.0
Mn613 Mn 0.74991 0.22351 0.68739 0.0
C614 C 0.75743 0.19974 0.74784 0.0
C615 C 0.78433 0.18629 0.65863 0.0
C616 C 0.72518 0.18781 0.64909 0.0
O617 O 0.76836 0.20649 0.60539 0.0
O618 O 0.76143 0.2273 0.6218 0.0
C619 C 0.78496 0.25451 0.69281 0.0
N620 N 0.76903 0.2439 0.71357 0.0
C621 C 0.77636 0.26148 0.78566 0.0
C622 C 0.7928 0.27268 0.76489 0.0
C623 C 0.79712 0.26916 0.71829 0.0
C624 C 0.7647 0.2472 0.75828 0.0
H625 H 0.78837 0.25179 0.65712 0.0
C626 C 0.76757 0.21993 0.59391 0.0
O627 O 0.76843 0.17639 0.6429 0.0
O628 O 0.78735 0.20035 0.68035 0.0
N629 N 0.73875 0.22131 0.74948 0.0
C630 C 0.72302 0.20847 0.76594 0.0
C631 C 0.7171 0.20956 0.813 0.0
C632 C 0.72739 0.22385 0.84252 0.0
C633 C 0.74351 0.23694 0.82469 0.0
C634 C 0.74865 0.23522 0.77734 0.0
H635 H 0.71511 0.19741 0.74348 0.0
O636 O 0.7566 0.18513 0.73834 0.0
O637 O 0.76096 0.2102 0.71095 0.0
O638 O 0.73591 0.18194 0.65209 0.0
O639 O 0.72923 0.2031 0.66107 0.0
C640 C 0.75488 0.25141 0.8525 0.0
C641 C 0.77129 0.26367 0.83299 0.0
H642 H 0.80228 0.2839 0.78463 0.0
H643 H 0.80983 0.27769 0.70216 0.0
H644 H 0.70468 0.19938 0.82657 0.0
H645 H 0.72287 0.22457 0.87898 0.0
H646 H 0.75128 0.25307 0.88927 0.0
H647 H 0.78004 0.27459 0.85505 0.0
Mn648 Mn 0.42159 0.18302 0.18063 0.0
Mn649 Mn 0.39214 0.15429 0.1022 0.0
C650 C 0.39388 0.18024 0.17564 0.0
C651 C 0.43449 0.18858 0.25767 0.0
C652 C 0.42254 0.18872 0.07098 0.0
O653 O 0.43259 0.1684 0.16091 0.0
O654 O 0.41054 0.14778 0.11706 0.0
C655 C 0.37633 0.12383 0.16702 0.0
N656 N 0.37443 0.13511 0.13736 0.0
C657 C 0.34298 0.12016 0.14854 0.0
C658 C 0.34456 0.10831 0.17898 0.0
C659 C 0.36132 0.11019 0.18837 0.0
C660 C 0.35839 0.13348 0.12826 0.0
H661 H 0.3892 0.12527 0.17428 0.0
C662 C 0.4259 0.15451 0.13642 0.0
O663 O 0.44264 0.19842 0.22052 0.0
O664 O 0.41931 0.17527 0.24936 0.0
N665 N 0.37355 0.15886 0.08389 0.0
C666 C 0.3744 0.17182 0.05551 0.0
C667 C 0.35881 0.17209 0.04363 0.0
C668 C 0.34251 0.15894 0.06052 0.0
C669 C 0.34195 0.14559 0.08903 0.0
C670 C 0.35791 0.14597 0.09953 0.0
H671 H 0.38688 0.18191 0.04224 0.0
O672 O 0.40672 0.19378 0.19509 0.0
O673 O 0.3975 0.16839 0.16126 0.0
O674 O 0.4281 0.19481 0.11355 0.0
O675 O 0.4097 0.17371 0.06306 0.0
C676 C 0.32622 0.1321 0.10818 0.0
C677 C 0.32674 0.11943 0.13808 0.0
H678 H 0.33303 0.09779 0.19563 0.0
H679 H 0.36266 0.10113 0.21199 0.0
H680 H 0.35935 0.18242 0.02157 0.0
H681 H 0.33053 0.15927 0.05164 0.0
H682 H 0.31367 0.13146 0.10068 0.0
H683 H 0.31458 0.10926 0.15316 0.0
Mn684 Mn 0.81484 0.2369 0.1732 0.0
Mn685 Mn 0.78572 0.2514 0.18671 0.0
C686 C 0.80853 0.24306 0.25007 0.0
C687 C 0.82037 0.21378 0.16876 0.0
C688 C 0.82333 0.27401 0.15235 0.0
O689 O 0.80179 0.23061 0.1086 0.0
O690 O 0.78298 0.24094 0.12061 0.0
C691 C 0.75293 0.21792 0.18657 0.0
N692 N 0.76371 0.23307 0.20901 0.0
C693 C 0.74375 0.22592 0.2772 0.0
C694 C 0.73237 0.2103 0.25464 0.0
C695 C 0.737 0.20628 0.20917 0.0
C696 C 0.75938 0.23709 0.25273 0.0
H697 H 0.75647 0.21475 0.15173 0.0
C698 C 0.78944 0.23342 0.09452 0.0
O699 O 0.83137 0.22869 0.15049 0.0
O700 O 0.80614 0.21231 0.18848 0.0
N701 N 0.78673 0.26175 0.2488 0.0
C702 C 0.79977 0.27673 0.26733 0.0
C703 C 0.79752 0.28231 0.31348 0.0
C704 C 0.78188 0.27249 0.33998 0.0
C705 C 0.76862 0.25718 0.32003 0.0
C706 C 0.77154 0.25233 0.27369 0.0
H707 H 0.81188 0.28423 0.24735 0.0
O708 O 0.82317 0.24291 0.24204 0.0
O709 O 0.79803 0.23966 0.21277 0.0
O710 O 0.8281 0.26252 0.15258 0.0
O711 O 0.80794 0.27106 0.16497 0.0
C712 C 0.75281 0.24632 0.34485 0.0
C713 C 0.74039 0.23069 0.32349 0.0
H714 H 0.72013 0.20123 0.27212 0.0
H715 H 0.72832 0.1942 0.19167 0.0
H716 H 0.80786 0.2941 0.32874 0.0
H717 H 0.78028 0.27674 0.37581 0.0
H718 H 0.75019 0.24972 0.38076 0.0
H719 H 0.72842 0.22232 0.34329 0.0
Mn720 Mn 0.76209 0.57964 0.18495 0.0
Mn721 Mn 0.74968 0.53767 0.19326 0.0
C722 C 0.75647 0.56657 0.26053 0.0
C723 C 0.78508 0.60778 0.17914 0.0
C724 C 0.72544 0.5512 0.15847 0.0
O725 O 0.76793 0.57387 0.11831 0.0
O726 O 0.76249 0.54669 0.1301 0.0
C727 C 0.7847 0.53991 0.20147 0.0
N728 N 0.76839 0.53488 0.22044 0.0
C729 C 0.77485 0.52328 0.29235 0.0
C730 C 0.79166 0.52822 0.2734 0.0
C731 C 0.79661 0.53659 0.22779 0.0
C732 C 0.76348 0.52678 0.26424 0.0
H733 H 0.7886 0.54648 0.16662 0.0
C734 C 0.7679 0.56029 0.10391 0.0
O735 O 0.76936 0.60355 0.16338 0.0
O736 O 0.78738 0.59568 0.19797 0.0
N737 N 0.73734 0.52758 0.25296 0.0
C738 C 0.72104 0.52455 0.26729 0.0
C739 C 0.71431 0.5167 0.3128 0.0
C740 C 0.72438 0.51203 0.34304 0.0
C741 C 0.74107 0.51519 0.32738 0.0
C742 C 0.74701 0.52287 0.2814 0.0
H743 H 0.71329 0.5282 0.24431 0.0
O744 O 0.75635 0.58096 0.25508 0.0
O745 O 0.76015 0.56057 0.22165 0.0
O746 O 0.73593 0.56703 0.16689 0.0
O747 O 0.72949 0.53939 0.16582 0.0
C748 C 0.7522 0.51133 0.35601 0.0
C749 C 0.76907 0.51538 0.33851 0.0
H750 H 0.80094 0.52582 0.29378 0.0
H751 H 0.8096 0.54054 0.21307 0.0
H752 H 0.70143 0.51434 0.32468 0.0
H753 H 0.71922 0.50615 0.37836 0.0
H754 H 0.74799 0.50545 0.3918 0.0
H755 H 0.77759 0.51255 0.36112 0.0
Mn756 Mn 0.51333 0.08576 0.97003 0.0
Mn757 Mn 0.54414 0.12738 0.96203 0.0
C758 C 0.52115 0.09896 0.89455 0.0
C759 C 0.50671 0.05717 0.97498 0.0
C760 C 0.50671 0.11507 -0.00194 0.0
O761 O 0.5252 0.09099 0.03647 0.0
O762 O 0.54761 0.11787 0.02462 0.0
C763 C 0.57615 0.12385 0.95248 0.0
N764 N 0.56527 0.12946 0.93412 0.0
C765 C 0.58332 0.14084 0.86211 0.0
C766 C 0.5948 0.1353 0.88041 0.0
C767 C 0.59118 0.12676 0.92578 0.0
C768 C 0.56865 0.13774 0.89059 0.0
H769 H 0.57334 0.11716 0.98715 0.0
C770 C 0.53914 0.10428 0.05069 0.0
O771 O 0.49586 0.06211 0.99141 0.0
O772 O 0.52137 0.06885 0.95607 0.0
N773 N 0.5422 0.13787 0.90279 0.0
C774 C 0.52926 0.14145 0.88901 0.0
C775 C 0.53059 0.14953 0.84376 0.0
C776 C 0.54519 0.15386 0.81322 0.0
C777 C 0.55838 0.15011 0.82831 0.0
C778 C 0.55645 0.14223 0.87403 0.0
H779 H 0.51797 0.13807 0.91222 0.0
O780 O 0.50625 0.08494 0.9 0.0
O781 O 0.53093 0.10457 0.93338 0.0
O782 O 0.50078 0.09918 0.98914 0.0
O783 O 0.52273 0.1265 0.9904 0.0
C784 C 0.57319 0.15359 0.79933 0.0
C785 C 0.58565 0.14895 0.81621 0.0
H786 H 0.60633 0.13739 0.85973 0.0
H787 H 0.59992 0.12236 0.94001 0.0
H788 H 0.52033 0.15234 0.83232 0.0
H789 H 0.54607 0.15992 0.77812 0.0
H790 H 0.575 0.15962 0.76372 0.0
H791 H 0.59685 0.15149 0.79332 0.0
Mn792 Mn 0.91607 0.42685 0.98132 0.0
Mn793 Mn 0.87376 0.41724 0.96855 0.0
C794 C 0.90382 0.42266 0.90406 0.0
C795 C 0.94519 0.44912 0.98867 0.0
C796 C 0.8852 0.3919 0.00618 0.0
O797 O 0.90956 0.4324 0.04755 0.0
O798 O 0.88268 0.42941 0.03206 0.0
C799 C 0.87822 0.45212 0.95844 0.0
N800 N 0.87241 0.43612 0.93995 0.0
C801 C 0.86189 0.44321 0.86668 0.0
C802 C 0.86764 0.45973 0.8851 0.0
C803 C 0.87585 0.4642 0.93115 0.0
C804 C 0.86447 0.43167 0.89572 0.0
H805 H 0.88465 0.45563 0.99366 0.0
C806 C 0.89596 0.43343 0.06016 0.0
O807 O 0.94066 0.43374 0.00438 0.0
O808 O 0.9329 0.45137 0.96933 0.0
N809 N 0.86372 0.40555 0.90846 0.0
C810 C 0.85994 0.38946 0.89473 0.0
C811 C 0.85217 0.38319 0.84887 0.0
C812 C 0.84835 0.39349 0.81769 0.0
C813 C 0.85227 0.40996 0.83275 0.0
C814 C 0.85982 0.41546 0.87908 0.0
H815 H 0.86291 0.38152 0.91846 0.0
O816 O 0.91811 0.42171 0.91086 0.0
O817 O 0.89745 0.42614 0.94262 0.0
O818 O 0.90181 0.40108 -0.00133 0.0
O819 O 0.8741 0.3971 -0.00277 0.0
C820 C 0.8493 0.42127 0.80321 0.0
C821 C 0.85411 0.43789 0.82016 0.0
H822 H 0.86598 0.46913 0.86398 0.0
H823 H 0.88043 0.47696 0.94547 0.0
H824 H 0.84922 0.37047 0.83747 0.0
H825 H 0.84254 0.38868 0.78212 0.0
H826 H 0.84355 0.41741 0.76711 0.0
H827 H 0.852 0.44655 0.79683 0.0
Mn828 Mn 0.57095 0.4865 0.9847 0.0
Mn829 Mn 0.57081 0.51498 0.06516 0.0
C830 C 0.54665 0.49035 0.9894 0.0
C831 C 0.57827 0.48136 0.90699 0.0
C832 C 0.56507 0.47971 0.09403 0.0
O833 O 0.59656 0.5003 0.0054 0.0
O834 O 0.59561 0.52067 0.0517 0.0
C835 C 0.58723 0.54617 0.00324 0.0
N836 N 0.57352 0.5349 0.03148 0.0
C837 C 0.55817 0.55097 0.02047 0.0
C838 C 0.57219 0.56282 0.9915 0.0
C839 C 0.58675 0.56038 0.98275 0.0
C840 C 0.55942 0.53709 0.04001 0.0
H841 H 0.59843 0.5443 0.99643 0.0
C842 C 0.60399 0.51386 0.03133 0.0
O843 O 0.57606 0.47102 0.94329 0.0
O844 O 0.57693 0.49487 0.91659 0.0
N845 N 0.54778 0.51113 0.08205 0.0
C846 C 0.53498 0.49805 0.10861 0.0
C847 C 0.51928 0.49827 0.11944 0.0
C848 C 0.517 0.51202 0.10336 0.0
C849 C 0.53046 0.52546 0.07669 0.0
C850 C 0.54584 0.52457 0.06718 0.0
H851 H 0.53669 0.48748 0.12121 0.0
O852 O 0.54544 0.47668 0.96938 0.0
O853 O 0.56221 0.50162 0.00486 0.0
O854 O 0.56494 0.47405 0.05104 0.0
O855 O 0.5676 0.4948 0.10277 0.0
C856 C 0.52907 0.53951 0.05825 0.0
C857 C 0.5429 0.55223 0.03004 0.0
H858 H 0.57184 0.57376 0.97547 0.0
H859 H 0.59758 0.56943 0.96025 0.0
H860 H 0.50895 0.48785 0.14007 0.0
H861 H 0.50481 0.51206 0.11138 0.0
H862 H 0.51731 0.54051 0.06487 0.0
H863 H 0.54156 0.56283 0.01544 0.0
Mn864 Mn 0.56976 0.81141 0.81298 0.0
Mn865 Mn 0.52867 0.77841 0.80102 0.0
C866 C 0.55859 0.80239 0.73575 0.0
C867 C 0.59927 0.81971 0.82583 0.0
C868 C 0.53702 0.8145 0.83089 0.0
O869 O 0.56354 0.80082 0.88047 0.0
O870 O 0.53798 0.77657 0.86656 0.0
C871 C 0.53584 0.74926 0.79866 0.0
N872 N 0.52902 0.75851 0.77707 0.0
C873 C 0.51937 0.73979 0.7072 0.0
C874 C 0.52615 0.72997 0.72889 0.0
C875 C 0.53444 0.73475 0.77478 0.0
C876 C 0.52094 0.75399 0.73303 0.0
H877 H 0.54235 0.75297 0.83375 0.0
C878 C 0.55086 0.78646 0.8943 0.0
O879 O 0.59305 0.8299 0.8369 0.0
O880 O 0.58844 0.80499 0.8071 0.0
N881 N 0.51833 0.77864 0.73926 0.0
C882 C 0.51378 0.79024 0.72167 0.0
C883 C 0.50608 0.78781 0.67509 0.0
C884 C 0.50309 0.77346 0.64715 0.0
C885 C 0.50781 0.76165 0.66612 0.0
C886 C 0.51529 0.76466 0.71297 0.0
H887 H 0.51613 0.80134 0.74285 0.0
O888 O 0.57207 0.81748 0.74217 0.0
O889 O 0.55237 0.79292 0.77484 0.0
O890 O 0.55368 0.8219 0.82437 0.0
O891 O 0.52691 0.7984 0.82489 0.0
C892 C 0.50579 0.74725 0.63986 0.0
C893 C 0.51156 0.73632 0.6604 0.0
H894 H 0.52527 0.71887 0.71036 0.0
H895 H 0.53982 0.7273 0.7916 0.0
H896 H 0.50253 0.79701 0.66064 0.0
H897 H 0.49733 0.77173 0.61102 0.0
H898 H 0.5001 0.74462 0.6035 0.0
H899 H 0.51019 0.72545 0.63952 0.0
Mn900 Mn 0.193 0.76333 0.82126 0.0
Mn901 Mn 0.22461 0.75198 0.81294 0.0
C902 C 0.20048 0.75713 0.74586 0.0
C903 C 0.18626 0.78574 0.82282 0.0
C904 C 0.18781 0.72841 0.85286 0.0
O905 O 0.20596 0.77102 0.8858 0.0
O906 O 0.22829 0.76518 0.8747 0.0
C907 C 0.25621 0.78601 0.80058 0.0
N908 N 0.24532 0.76998 0.78325 0.0
C909 C 0.26274 0.77557 0.71002 0.0
C910 C 0.2742 0.79211 0.72721 0.0
C911 C 0.27092 0.79734 0.77269 0.0
C912 C 0.24843 0.76475 0.73972 0.0
H913 H 0.25365 0.79013 0.83534 0.0
C914 C 0.22016 0.77136 0.89964 0.0
O915 O 0.17559 0.77082 0.8417 0.0
O916 O 0.20063 0.7875 0.80338 0.0
N917 N 0.22238 0.73938 0.7543 0.0
C918 C 0.20934 0.72352 0.74139 0.0
C919 C 0.21022 0.71665 0.69594 0.0
C920 C 0.22448 0.72616 0.66426 0.0
C921 C 0.23774 0.74246 0.67836 0.0
C922 C 0.23625 0.74857 0.7243 0.0
H923 H 0.19828 0.71622 0.76543 0.0
O924 O 0.18524 0.75622 0.75223 0.0
O925 O 0.21055 0.76134 0.78422 0.0
O926 O 0.1811 0.73812 0.84445 0.0
O927 O 0.20382 0.73266 0.84309 0.0
C928 C 0.25219 0.75303 0.64817 0.0
C929 C 0.26469 0.76956 0.66402 0.0
H930 H 0.28545 0.80096 0.70557 0.0
H931 H 0.27965 0.81012 0.78608 0.0
H932 H 0.19989 0.70409 0.68522 0.0
H933 H 0.22502 0.72088 0.62904 0.0
H934 H 0.25368 0.74865 0.61243 0.0
H935 H 0.2756 0.77765 0.64021 0.0
Mn936 Mn 0.23463 0.42962 0.81593 0.0
Mn937 Mn 0.24455 0.47044 0.79186 0.0
C938 C 0.24108 0.43996 0.7371 0.0
C939 C 0.21331 0.40096 0.82546 0.0
C940 C 0.27025 0.46099 0.83914 0.0
O941 O 0.22581 0.43627 0.87598 0.0
O942 O 0.2324 0.46336 0.85665 0.0
C943 C 0.20835 0.46506 0.77997 0.0
N944 N 0.22484 0.47067 0.76159 0.0
C945 C 0.21732 0.47962 0.68625 0.0
C946 C 0.2003 0.47406 0.70453 0.0
C947 C 0.19579 0.46673 0.75156 0.0
C948 C 0.22934 0.4778 0.71645 0.0
H949 H 0.20482 0.45933 0.81599 0.0
C950 C 0.22598 0.45031 0.88533 0.0
O951 O 0.22874 0.40696 0.84567 0.0
O952 O 0.21036 0.41161 0.80023 0.0
N953 N 0.25632 0.47898 0.73053 0.0
C954 C 0.27282 0.4824 0.71694 0.0
C955 C 0.2791 0.48908 0.67001 0.0
C956 C 0.26842 0.49226 0.63772 0.0
C957 C 0.25155 0.48876 0.65269 0.0
C958 C 0.24604 0.48224 0.70003 0.0
H959 H 0.28104 0.4799 0.74158 0.0
O960 O 0.2427 0.42681 0.75009 0.0
O961 O 0.23575 0.44667 0.77083 0.0
O962 O 0.26028 0.44473 0.83881 0.0
O963 O 0.26559 0.4715 0.82205 0.0
C964 C 0.2398 0.49105 0.62203 0.0
C965 C 0.2227 0.48648 0.63881 0.0
H966 H 0.19052 0.47518 0.68256 0.0
H967 H 0.18264 0.46231 0.76578 0.0
H968 H 0.29212 0.49171 0.65868 0.0
H969 H 0.27325 0.49725 0.60137 0.0
H970 H 0.24367 0.49602 0.58518 0.0
H971 H 0.21369 0.48803 0.6146 0.0
Mn972 Mn 0.47422 0.90647 0.00911 0.0
Mn973 Mn 0.44334 0.86606 0.03718 0.0
C974 C 0.47058 0.89691 0.08885 0.0
C975 C 0.48113 0.93496 -0.00272 0.0
C976 C 0.47815 0.87482 0.98841 0.0
O977 O 0.45844 0.89904 0.94954 0.0
O978 O 0.4377 0.87236 0.9721 0.0
C979 C 0.41309 0.87227 0.05 0.0
N980 N 0.42404 0.86678 0.06855 0.0
C981 C 0.40937 0.86054 0.14677 0.0
C982 C 0.39784 0.86599 0.12837 0.0
C983 C 0.39972 0.87189 0.07979 0.0
C984 C 0.42235 0.86108 0.11525 0.0
H985 H 0.4146 0.87696 0.01282 0.0
C986 C 0.44435 0.88498 0.94193 0.0
O987 O 0.49069 0.929 0.97765 0.0
O988 O 0.46772 0.92439 0.02323 0.0
N989 N 0.4472 0.85839 0.09921 0.0
C990 C 0.45988 0.8543 0.11191 0.0
C991 C 0.46008 0.84849 0.15966 0.0
C992 C 0.44725 0.8469 0.19376 0.0
C993 C 0.43423 0.85102 0.17967 0.0
C994 C 0.43455 0.85654 0.1314 0.0
H995 H 0.46981 0.85558 0.0859 0.0
O996 O 0.48531 0.91002 0.07524 0.0
O997 O 0.45862 0.88994 0.05521 0.0
O998 O 0.48461 0.89112 0.98788 0.0
O999 O 0.46296 0.86448 0.00611 0.0
C1000 C 0.42114 0.85016 0.21186 0.0
C1001 C 0.40873 0.85493 0.19544 0.0
H1002 H 0.3876 0.86584 0.15134 0.0
H1003 H 0.39094 0.87622 0.06542 0.0
H1004 H 0.47017 0.84534 0.17026 0.0
H1005 H 0.44758 0.84262 0.23073 0.0
H1006 H 0.42063 0.84605 0.2495 0.0
H1007 H 0.39887 0.85442 0.22071 0.0
Mn1008 Mn 0.09681 0.57256 0.00607 0.0
Mn1009 Mn 0.13974 0.58378 0.01617 0.0
C1010 C 0.10967 0.57657 0.08225 0.0
C1011 C 0.06771 0.55013 0.00047 0.0
C1012 C 0.12702 0.60877 0.98617 0.0
O1013 O 0.10269 0.56679 0.93968 0.0
O1014 O 0.1311 0.57341 0.95029 0.0
C1015 C 0.13675 0.54933 0.01467 0.0
N1016 N 0.14188 0.56451 0.03788 0.0
C1017 C 0.15267 0.55556 0.10695 0.0
C1018 C 0.14762 0.53988 0.08361 0.0
C1019 C 0.13962 0.53676 0.03729 0.0
C1020 C 0.14969 0.56769 0.08233 0.0
H1021 H 0.13046 0.5468 0.97925 0.0
C1022 C 0.11695 0.56751 0.92474 0.0
O1023 O 0.072 0.56549 0.98508 0.0
O1024 O 0.08024 0.54797 0.01856 0.0
N1025 N 0.14941 0.5936 0.07859 0.0
C1026 C 0.15214 0.60875 0.09788 0.0
C1027 C 0.15941 0.61351 0.14493 0.0
C1028 C 0.16374 0.60263 0.17173 0.0
C1029 C 0.16076 0.58707 0.15122 0.0
C1030 C 0.15367 0.5831 0.10392 0.0
H1031 H 0.14858 0.61703 0.07778 0.0
O1032 O 0.09539 0.57763 0.07667 0.0
O1033 O 0.11595 0.57343 0.04285 0.0
O1034 O 0.11043 0.59841 0.98894 0.0
O1035 O 0.13871 0.60436 0.99506 0.0
C1036 C 0.16414 0.57517 0.17632 0.0
C1037 C 0.16012 0.55943 0.15419 0.0
H1038 H 0.14964 0.53008 0.10116 0.0
H1039 H 0.13559 0.52465 0.01918 0.0
H1040 H 0.16154 0.62547 0.16067 0.0
H1041 H 0.16916 0.60625 0.20825 0.0
H1042 H 0.1696 0.57788 0.21296 0.0
H1043 H 0.16254 0.55029 0.17414 0.0
Mn1044 Mn 0.42584 0.5237 0.01077 0.0
Mn1045 Mn 0.41777 0.55664 0.02439 0.0
C1046 C 0.42378 0.53243 0.08851 0.0
C1047 C 0.44692 0.5153 -0.00274 0.0
C1048 C 0.38995 0.52063 0.99404 0.0
O1049 O 0.43025 0.53456 0.94362 0.0
O1050 O 0.42878 0.55866 0.95848 0.0
C1051 C 0.45411 0.58583 0.0264 0.0
N1052 N 0.43808 0.57654 0.04821 0.0
C1053 C 0.4472 0.5953 0.11798 0.0
C1054 C 0.46377 0.60516 0.09606 0.0
C1055 C 0.46724 0.60038 0.05012 0.0
C1056 C 0.43456 0.58105 0.09232 0.0
H1057 H 0.45686 0.58212 0.99124 0.0
C1058 C 0.43185 0.54893 0.9303 0.0
O1059 O 0.43049 0.50523 0.98603 0.0
O1060 O 0.45092 0.52999 0.01638 0.0
N1061 N 0.40736 0.55629 0.08651 0.0
C1062 C 0.39128 0.54459 0.10441 0.0
C1063 C 0.38609 0.54699 0.15114 0.0
C1064 C 0.39744 0.5614 0.17889 0.0
C1065 C 0.41389 0.5733 0.15961 0.0
C1066 C 0.41829 0.57031 0.11265 0.0
H1067 H 0.38254 0.53345 0.08336 0.0
O1068 O 0.42207 0.51734 0.08135 0.0
O1069 O 0.42704 0.54209 0.04978 0.0
O1070 O 0.39926 0.51325 -0.00039 0.0
O1071 O 0.39593 0.5367 0.00066 0.0
C1072 C 0.42627 0.58777 0.18566 0.0
C1073 C 0.44291 0.59877 0.16484 0.0
H1074 H 0.47399 0.6163 0.11446 0.0
H1075 H 0.48003 0.60786 0.03313 0.0
H1076 H 0.3734 0.53772 0.16584 0.0
H1077 H 0.39346 0.56312 0.21512 0.0
H1078 H 0.42325 0.5904 0.22208 0.0
H1079 H 0.45242 0.60969 0.18557 0.0
Mn1080 Mn 0.09035 0.51529 0.51075 0.0
Mn1081 Mn 0.0621 0.4855 0.43242 0.0
C1082 C 0.06212 0.51111 0.50406 0.0
C1083 C 0.1029 0.52186 0.58819 0.0
C1084 C 0.0916 0.52039 0.40076 0.0
O1085 O 0.1024 0.50143 0.49329 0.0
O1086 O 0.08117 0.48009 0.44917 0.0
C1087 C 0.04708 0.45523 0.49802 0.0
N1088 N 0.04475 0.46607 0.46756 0.0
C1089 C 0.01327 0.45011 0.47774 0.0
C1090 C 0.01531 0.4387 0.509 0.0
C1091 C 0.03229 0.44131 0.51927 0.0
C1092 C 0.02849 0.46371 0.45751 0.0
H1093 H 0.06012 0.45723 0.50601 0.0
C1094 C 0.09639 0.48743 0.46949 0.0
O1095 O 0.11091 0.53159 0.55072 0.0
O1096 O 0.08808 0.50808 0.58 0.0
N1097 N 0.04298 0.48904 0.41263 0.0
C1098 C 0.04339 0.50175 0.38399 0.0
C1099 C 0.02751 0.50136 0.37147 0.0
C1100 C 0.01141 0.48784 0.38808 0.0
C1101 C 0.01131 0.47478 0.41696 0.0
C1102 C 0.02754 0.47581 0.42807 0.0
H1103 H 0.05572 0.51216 0.37102 0.0
O1104 O 0.07447 0.52509 0.52307 0.0
O1105 O 0.06656 0.49971 0.49091 0.0
O1106 O 0.09676 0.52674 0.44327 0.0
O1107 O 0.07928 0.5051 0.39306 0.0
C1108 C 0.99579 0.461 0.43609 0.0
C1109 C 0.99677 0.44869 0.46655 0.0
H1110 H 0.00395 0.42799 0.52563 0.0
H1111 H 0.03397 0.43261 0.54354 0.0
H1112 H 0.02769 0.51149 0.34916 0.0
H1113 H 0.9992 0.48767 0.37874 0.0
H1114 H 0.98306 0.45989 0.42827 0.0
H1115 H 0.98477 0.4383 0.48164 0.0
Mn1116 Mn 0.48375 0.57304 0.51067 0.0
Mn1117 Mn 0.45319 0.58561 0.5251 0.0
C1118 C 0.47716 0.57887 0.58789 0.0
C1119 C 0.48993 0.55031 0.50513 0.0
C1120 C 0.48996 0.609 0.48528 0.0
O1121 O 0.47041 0.56638 0.44627 0.0
O1122 O 0.44951 0.57399 0.46064 0.0
C1123 C 0.42151 0.55144 0.53302 0.0
N1124 N 0.43232 0.56713 0.55256 0.0
C1125 C 0.41466 0.56018 0.62574 0.0
C1126 C 0.40326 0.54398 0.60624 0.0
C1127 C 0.40672 0.5396 0.5597 0.0
C1128 C 0.42911 0.5715 0.59728 0.0
H1129 H 0.42421 0.54799 0.49742 0.0
C1130 C 0.4569 0.56758 0.43365 0.0
O1131 O 0.50065 0.56534 0.487 0.0
O1132 O 0.47576 0.54858 0.52588 0.0
N1133 N 0.4553 0.59702 0.586 0.0
C1134 C 0.4681 0.61279 0.60053 0.0
C1135 C 0.46685 0.61897 0.64679 0.0
C1136 C 0.45247 0.6089 0.67752 0.0
C1137 C 0.43941 0.59276 0.66161 0.0
C1138 C 0.44124 0.58736 0.6149 0.0
H1139 H 0.47921 0.62054 0.57711 0.0
O1140 O 0.49207 0.57923 0.57996 0.0
O1141 O 0.46682 0.57524 0.55031 0.0
O1142 O 0.49601 0.59855 0.48965 0.0
O1143 O 0.4743 0.60531 0.49763 0.0
C1144 C 0.42483 0.58167 0.69061 0.0
C1145 C 0.41247 0.56539 0.67272 0.0
H1146 H 0.39191 0.53476 0.62686 0.0
H1147 H 0.39804 0.52709 0.54454 0.0
H1148 H 0.477 0.63143 0.65884 0.0
H1149 H 0.45167 0.61363 0.71339 0.0
H1150 H 0.42311 0.58545 0.727 0.0
H1151 H 0.40145 0.55689 0.69562 0.0
Mn1152 Mn 0.43115 0.91135 0.52151 0.0
Mn1153 Mn 0.41787 0.86907 0.52619 0.0
C1154 C 0.42384 0.89748 0.59573 0.0
C1155 C 0.45418 0.93947 0.5186 0.0
C1156 C 0.39473 0.88363 0.48988 0.0
O1157 O 0.43806 0.90628 0.45561 0.0
O1158 O 0.43178 0.87878 0.46482 0.0
C1159 C 0.45233 0.87029 0.53762 0.0
N1160 N 0.43575 0.86521 0.55449 0.0
C1161 C 0.4401 0.85104 0.62397 0.0
C1162 C 0.45718 0.85601 0.60716 0.0
C1163 C 0.46333 0.8657 0.56384 0.0
C1164 C 0.42967 0.85583 0.59601 0.0
H1165 H 0.45711 0.8778 0.50446 0.0
C1166 C 0.43794 0.89278 0.44019 0.0
O1167 O 0.43871 0.93533 0.50114 0.0
O1168 O 0.45625 0.92726 0.53777 0.0
N1169 N 0.4044 0.85813 0.58366 0.0
C1170 C 0.38815 0.85555 0.59682 0.0
C1171 C 0.38041 0.84673 0.64049 0.0
C1172 C 0.38939 0.84059 0.67002 0.0
C1173 C 0.40605 0.8433 0.65555 0.0
C1174 C 0.41305 0.85206 0.61145 0.0
H1175 H 0.38122 0.8603 0.57435 0.0
O1176 O 0.42418 0.91208 0.59032 0.0
O1177 O 0.42827 0.89165 0.55762 0.0
O1178 O 0.40532 0.89929 0.49996 0.0
O1179 O 0.39839 0.87156 0.49713 0.0
C1180 C 0.41616 0.83805 0.68378 0.0
C1181 C 0.43318 0.84191 0.66799 0.0
H1182 H 0.46577 0.85263 0.62751 0.0
H1183 H 0.47653 0.86967 0.5508 0.0
H1184 H 0.36757 0.84472 0.65147 0.0
H1185 H 0.38344 0.83394 0.70392 0.0
H1186 H 0.41111 0.83128 0.71809 0.0
H1187 H 0.44094 0.83805 0.6904 0.0
Mn1188 Mn 0.19026 0.42415 0.31034 0.0
Mn1189 Mn 0.21802 0.46659 0.29616 0.0
C1190 C 0.19421 0.43652 0.23416 0.0
C1191 C 0.18463 0.39587 0.31487 0.0
C1192 C 0.18153 0.45232 0.33966 0.0
O1193 O 0.2049 0.4304 0.37218 0.0
O1194 O 0.22309 0.45866 0.35937 0.0
C1195 C 0.25133 0.4655 0.28482 0.0
N1196 N 0.23951 0.47002 0.26713 0.0
C1197 C 0.25722 0.48284 0.19531 0.0
C1198 C 0.26966 0.47844 0.21292 0.0
C1199 C 0.26668 0.46969 0.25782 0.0
C1200 C 0.24225 0.47844 0.22401 0.0
H1201 H 0.24905 0.45874 0.31924 0.0
C1202 C 0.21746 0.44494 0.38506 0.0
O1203 O 0.17439 0.40076 0.33573 0.0
O1204 O 0.19833 0.40749 0.29171 0.0
N1205 N 0.21465 0.47605 0.23676 0.0
C1206 C 0.20077 0.47824 0.22337 0.0
C1207 C 0.2013 0.48615 0.17837 0.0
C1208 C 0.21614 0.49184 0.14784 0.0
C1209 C 0.23034 0.48959 0.16264 0.0
C1210 C 0.22911 0.4817 0.20801 0.0
H1211 H 0.18932 0.47386 0.2467 0.0
O1212 O 0.18008 0.42218 0.24396 0.0
O1213 O 0.20571 0.4432 0.2693 0.0
O1214 O 0.17725 0.43655 0.33557 0.0
O1215 O 0.19636 0.46456 0.32563 0.0
C1216 C 0.24549 0.4945 0.13369 0.0
C1217 C 0.2589 0.49109 0.14995 0.0
H1218 H 0.28146 0.48154 0.19205 0.0
H1219 H 0.27617 0.46617 0.27151 0.0
H1220 H 0.19028 0.48781 0.16716 0.0
H1221 H 0.21643 0.49779 0.11296 0.0
H1222 H 0.24684 0.50065 0.09848 0.0
H1223 H 0.27035 0.49467 0.12698 0.0
Mn1224 Mn 0.57845 0.76235 0.31547 0.0
Mn1225 Mn 0.5353 0.74929 0.29772 0.0
C1226 C 0.567 0.75774 0.23722 0.0
C1227 C 0.60717 0.7852 0.32452 0.0
C1228 C 0.54877 0.72535 0.33134 0.0
O1229 O 0.57094 0.76768 0.38042 0.0
O1230 O 0.54219 0.7587 0.36516 0.0
C1231 C 0.53755 0.78343 0.30011 0.0
N1232 N 0.53303 0.7685 0.27615 0.0
C1233 C 0.523 0.77775 0.20605 0.0
C1234 C 0.52742 0.79316 0.23014 0.0
C1235 C 0.53474 0.79602 0.27734 0.0
C1236 C 0.52599 0.76563 0.23071 0.0
H1237 H 0.5433 0.78572 0.33624 0.0
C1238 C 0.55576 0.76523 0.39302 0.0
O1239 O 0.60287 0.76993 0.34064 0.0
O1240 O 0.59481 0.7871 0.30393 0.0
N1241 N 0.52681 0.73999 0.23406 0.0
C1242 C 0.52401 0.72479 0.21502 0.0
C1243 C 0.51699 0.7201 0.16767 0.0
C1244 C 0.51289 0.73107 0.14044 0.0
C1245 C 0.51576 0.74659 0.16095 0.0
C1246 C 0.52256 0.75047 0.20856 0.0
H1247 H 0.52729 0.71639 0.23558 0.0
O1248 O 0.58156 0.75747 0.24572 0.0
O1249 O 0.55967 0.76065 0.27477 0.0
O1250 O 0.5652 0.73644 0.33253 0.0
O1251 O 0.53677 0.72892 0.31848 0.0
C1252 C 0.51242 0.75849 0.1357 0.0
C1253 C 0.51607 0.77407 0.1582 0.0
H1254 H 0.52538 0.80295 0.21258 0.0
H1255 H 0.53828 0.80792 0.29604 0.0
H1256 H 0.51486 0.70812 0.15205 0.0
H1257 H 0.50769 0.72751 0.1037 0.0
H1258 H 0.50726 0.75589 0.09873 0.0
H1259 H 0.51365 0.78322 0.13819 0.0
Mn1260 Mn 0.24057 0.81975 0.31714 0.0
Mn1261 Mn 0.24048 0.84796 0.39873 0.0
C1262 C 0.216 0.82309 0.32388 0.0
C1263 C 0.2475 0.81463 0.23898 0.0
C1264 C 0.23552 0.8129 0.4266 0.0
O1265 O 0.26629 0.8339 0.33638 0.0
O1266 O 0.2653 0.85401 0.3838 0.0
C1267 C 0.25611 0.87917 0.33687 0.0
N1268 N 0.24266 0.86776 0.36558 0.0
C1269 C 0.22686 0.88346 0.35627 0.0
C1270 C 0.24059 0.89546 0.32682 0.0
C1271 C 0.25525 0.89327 0.31697 0.0
C1272 C 0.22846 0.8697 0.37514 0.0
H1273 H 0.26738 0.87751 0.32923 0.0
C1274 C 0.27373 0.84743 0.36244 0.0
O1275 O 0.24575 0.80445 0.2753 0.0
O1276 O 0.24592 0.828 0.24874 0.0
N1277 N 0.21746 0.84377 0.4171 0.0
C1278 C 0.20499 0.83062 0.44421 0.0
C1279 C 0.18926 0.8306 0.45622 0.0
C1280 C 0.18661 0.84419 0.44075 0.0
C1281 C 0.19975 0.85771 0.41351 0.0
C1282 C 0.21518 0.85707 0.4028 0.0
H1283 H 0.20698 0.82017 0.45635 0.0
O1284 O 0.21491 0.80953 0.30341 0.0
O1285 O 0.2316 0.83458 0.33849 0.0
O1286 O 0.23525 0.80735 0.3834 0.0
O1287 O 0.23784 0.82788 0.43585 0.0
C1288 C 0.19802 0.87165 0.39581 0.0
C1289 C 0.21153 0.88448 0.36704 0.0
H1290 H 0.23996 0.90632 0.31128 0.0
H1291 H 0.26587 0.90243 0.2941 0.0
H1292 H 0.17918 0.82013 0.47728 0.0
H1293 H 0.1744 0.84406 0.44973 0.0
H1294 H 0.18623 0.87249 0.40347 0.0
H1295 H 0.20992 0.89499 0.35301 0.0
H1296 H 0.20758 0.11532 0.76224 0.0
H1297 H 0.23305 0.11188 0.04054 0.0
H1298 H 0.24549 0.09986 0.80674 0.0
H1299 H 0.21959 0.14986 0.99069 0.0
H1300 H 0.23125 0.10205 0.95602 0.0
H1301 H 0.20606 0.12339 0.84744 0.0
C1302 C 0.21557 0.11364 0.78986 0.0
C1303 C 0.22678 0.10703 0.77741 0.0
C1304 C 0.2285 0.11241 0.96362 0.0
C1305 C 0.2248 0.11586 0.87435 0.0
C1306 C 0.22935 0.11788 0.01172 0.0
C1307 C 0.22602 0.13136 0.02223 0.0
C1308 C 0.22439 0.12057 0.92589 0.0
C1309 C 0.22191 0.1392 0.98372 0.0
C1310 C 0.2147 0.11826 0.83825 0.0
C1311 C 0.23682 0.10508 0.81458 0.0
N1312 N 0.22109 0.13361 0.93698 0.0
N1313 N 0.2355 0.10937 0.86142 0.0
H1314 H 0.88282 0.11656 0.77917 0.0
H1315 H 0.89485 0.12328 0.06986 0.0
H1316 H 0.91262 0.16353 0.85986 0.0
H1317 H 0.85345 0.07862 7e-05 0.0
H1318 H 0.90626 0.1358 0.98979 0.0
H1319 H 0.87615 0.10046 0.8567 0.0
C1320 C 0.88808 0.12345 0.81306 0.0
C1321 C 0.89812 0.14142 0.81322 0.0
C1322 C 0.89483 0.12314 0.99171 0.0
C1323 C 0.89074 0.12316 0.9013 0.0
C1324 C 0.88847 0.1159 0.03741 0.0
C1325 C 0.87353 0.09973 0.04125 0.0
C1326 C 0.88586 0.11438 0.94937 0.0
C1327 C 0.86521 0.09103 -0.00174 0.0
C1328 C 0.88425 0.11427 0.85714 0.0
C1329 C 0.90463 0.14972 0.85805 0.0
N1330 N 0.87145 0.09851 0.9538 0.0
N1331 N 0.9008 0.14053 0.90018 0.0
H1332 H 0.93067 0.77935 0.98784 0.0
H1333 H 0.8535 0.75265 0.7978 0.0
H1334 H 0.87762 0.76549 0.03062 0.0
H1335 H 0.9061 0.79186 0.75902 0.0
H1336 H 0.86307 0.75376 0.88221 0.0
H1337 H 0.92296 0.7813 0.90186 0.0
C1338 C 0.91752 0.77699 0.979 0.0
C1339 C 0.90483 0.77271 0.01585 0.0
C1340 C 0.87251 0.76213 0.85522 0.0
C1341 C 0.89583 0.77417 0.91892 0.0
C1342 C 0.86712 0.76141 0.80699 0.0
C1343 C 0.87905 0.77217 0.77141 0.0
C1344 C 0.89004 0.77345 0.86791 0.0
C1345 C 0.8965 0.78339 0.78551 0.0
C1346 C 0.91315 0.7781 0.93033 0.0
C1347 C 0.88783 0.76926 0.00307 0.0
N1348 N 0.90155 0.78367 0.83284 0.0
N1349 N 0.88377 0.76996 0.95554 0.0
H1350 H 0.11501 0.238 0.45758 0.0
H1351 H 0.11903 0.21003 0.7298 0.0
H1352 H 0.15538 0.22552 0.49817 0.0
H1353 H 0.1073 0.25052 0.69369 0.0
H1354 H 0.12797 0.21013 0.64405 0.0
H1355 H 0.10693 0.23677 0.54386 0.0
C1356 C 0.122 0.23478 0.48486 0.0
C1357 C 0.13556 0.23146 0.4712 0.0
C1358 C 0.12355 0.21903 0.65538 0.0
C1359 C 0.12663 0.23028 0.56946 0.0
C1360 C 0.1184 0.21895 0.70399 0.0
C1361 C 0.11245 0.23031 0.71885 0.0
C1362 C 0.12231 0.23025 0.6216 0.0
C1363 C 0.1119 0.24162 0.684 0.0
C1364 C 0.1175 0.23422 0.5339 0.0
C1365 C 0.14464 0.22786 0.50768 0.0
N1366 N 0.11659 0.24118 0.63692 0.0
N1367 N 0.13987 0.22716 0.55552 0.0
H1368 H 0.77866 0.92603 0.50536 0.0
H1369 H 0.7603 0.84181 0.65122 0.0
H1370 H 0.77525 0.88053 0.44104 0.0
H1371 H 0.76525 0.88674 0.72385 0.0
H1372 H 0.77118 0.85825 0.57592 0.0
H1373 H 0.77874 0.91438 0.58731 0.0
C1374 C 0.77845 0.91384 0.50861 0.0
C1375 C 0.77743 0.90438 0.46672 0.0
C1376 C 0.77008 0.86466 0.60827 0.0
C1377 C 0.77706 0.89087 0.55928 0.0
C1378 C 0.76382 0.85523 0.65123 0.0
C1379 C 0.76163 0.8629 0.69334 0.0
C1380 C 0.77377 0.88182 0.60691 0.0
C1381 C 0.76668 0.88039 0.69183 0.0
C1382 C 0.77847 0.9072 0.55515 0.0
C1383 C 0.77668 0.88848 0.47245 0.0
N1384 N 0.77221 0.88924 0.64886 0.0
N1385 N 0.77645 0.88221 0.51778 0.0
H1386 H 0.14859 0.90546 0.68111 0.0
H1387 H 0.07009 0.85298 0.49959 0.0
H1388 H 0.09492 0.88862 0.72563 0.0
H1389 H 0.12129 0.89155 0.44968 0.0
H1390 H 0.07843 0.86366 0.58389 0.0
H1391 H 0.1386 0.89789 0.59668 0.0
C1392 C 0.13468 0.9001 0.67312 0.0
C1393 C 0.12254 0.89758 0.7104 0.0
C1394 C 0.08769 0.86995 0.55428 0.0
C1395 C 0.11104 0.88884 0.61397 0.0
C1396 C 0.08295 0.86389 0.50647 0.0
C1397 C 0.09492 0.87174 0.46802 0.0
C1398 C 0.10474 0.88344 0.56347 0.0
C1399 C 0.11159 0.88549 0.47845 0.0
C1400 C 0.12902 0.89593 0.6249 0.0
C1401 C 0.1047 0.89077 0.69788 0.0
N1402 N 0.11609 0.89083 0.52532 0.0
N1403 N 0.09942 0.88643 0.65066 0.0
H1404 H 0.75112 0.87267 0.21716 0.0
H1405 H 0.79308 0.88168 0.95686 0.0
H1406 H 0.80703 0.90553 0.19672 0.0
H1407 H 0.74794 0.83509 0.00708 0.0
H1408 H 0.79898 0.89179 0.04198 0.0
H1409 H 0.74952 0.86012 0.13695 0.0
C1410 C 0.76307 0.87726 0.19566 0.0
C1411 C 0.77921 0.89022 0.21334 0.0
C1412 C 0.788 0.87923 0.03423 0.0
C1413 C 0.77747 0.87594 0.12141 0.0
C1414 C 0.78463 0.87345 0.98579 0.0
C1415 C 0.76985 0.85763 0.97485 0.0
C1416 C 0.77632 0.86921 0.07142 0.0
C1417 C 0.75935 0.84746 0.0137 0.0
C1418 C 0.76218 0.86999 0.15009 0.0
C1419 C 0.79434 0.89554 0.18425 0.0
N1420 N 0.76261 0.85355 0.06012 0.0
N1421 N 0.79308 0.88853 0.1392 0.0
H1422 H 0.11794 0.9129 0.22302 0.0
H1423 H 0.11703 0.88145 0.94966 0.0
H1424 H 0.09616 0.85972 0.18272 0.0
H1425 H 0.15835 0.93023 -0.00013 0.0
H1426 H 0.10495 0.8749 0.03274 0.0
H1427 H 0.12873 0.92113 0.13843 0.0
C1428 C 0.11534 0.90299 0.19638 0.0
C1429 C 0.10627 0.88561 0.2099 0.0
C1430 C 0.11661 0.88708 0.02562 0.0
C1431 C 0.11834 0.89489 0.11385 0.0
C1432 C 0.12339 0.89086 0.97831 0.0
C1433 C 0.13836 0.90655 0.96816 0.0
C1434 C 0.12491 0.89909 0.06305 0.0
C1435 C 0.14656 0.91812 0.00651 0.0
C1436 C 0.12157 0.90769 0.14841 0.0
C1437 C 0.10326 0.87327 0.17405 0.0
N1438 N 0.13961 0.91423 0.0525 0.0
N1439 N 0.10923 0.87814 0.12769 0.0
H1440 H 0.11687 0.22819 0.96504 0.0
H1441 H 0.10118 0.24114 0.2336 0.0
H1442 H 0.06993 0.23097 -0.00077 0.0
H1443 H 0.11383 0.20135 0.19876 0.0
H1444 H 0.09185 0.2407 0.14816 0.0
H1445 H 0.1188 0.22118 0.05088 0.0
C1446 C 0.10664 0.22672 0.99043 0.0
C1447 C 0.09271 0.22923 0.97494 0.0
C1448 C 0.09634 0.23184 0.15962 0.0
C1449 C 0.09558 0.2226 0.07321 0.0
C1450 C 0.10167 0.23213 0.20799 0.0
C1451 C 0.10812 0.2212 0.22261 0.0
C1452 C 0.09814 0.221 0.1258 0.0
C1453 C 0.10876 0.20985 0.18848 0.0
C1454 C 0.10785 0.22292 0.0393 0.0
C1455 C 0.08055 0.22857 0.00981 0.0
N1456 N 0.10417 0.21027 0.14114 0.0
N1457 N 0.08235 0.22548 0.05769 0.0
H1458 H 0.87598 0.79217 0.25524 0.0
H1459 H 0.88548 0.76916 0.53189 0.0
H1460 H 0.90095 0.76272 0.2999 0.0
H1461 H 0.84011 0.77313 0.48626 0.0
H1462 H 0.89642 0.77468 0.44777 0.0
H1463 H 0.86714 0.79224 0.34118 0.0
C1464 C 0.87962 0.78579 0.28305 0.0
C1465 C 0.88903 0.77727 0.27055 0.0
C1466 C 0.88417 0.77456 0.45618 0.0
C1467 C 0.87941 0.77765 0.36781 0.0
C1468 C 0.87804 0.77158 0.5041 0.0
C1469 C 0.86214 0.77111 0.51571 0.0
C1470 C 0.87418 0.77682 0.41948 0.0
C1471 C 0.85259 0.77368 0.47838 0.0
C1472 C 0.87457 0.78582 0.33176 0.0
C1473 C 0.89348 0.76923 0.3078 0.0
N1474 N 0.85879 0.77648 0.43155 0.0
N1475 N 0.88871 0.76969 0.35469 0.0
H1476 H 0.22644 0.06928 0.49134 0.0
H1477 H 0.23539 0.14231 0.30844 0.0
H1478 H 0.23477 0.11868 0.53826 0.0
H1479 H 0.20722 0.08905 0.2665 0.0
H1480 H 0.23698 0.1337 0.39208 0.0
H1481 H 0.22091 0.07592 0.40745 0.0
C1482 C 0.22689 0.08141 0.48389 0.0
C1483 C 0.23057 0.09331 0.52147 0.0
C1484 C 0.23035 0.12385 0.36475 0.0
C1485 C 0.22489 0.10116 0.42655 0.0
C1486 C 0.22952 0.12877 0.3169 0.0
C1487 C 0.22124 0.11637 0.28045 0.0
C1488 C 0.22315 0.1064 0.37633 0.0
C1489 C 0.2137 0.09899 0.29362 0.0
C1490 C 0.22372 0.08517 0.43634 0.0
C1491 C 0.2315 0.10902 0.51028 0.0
N1492 N 0.215 0.09449 0.34056 0.0
N1493 N 0.22873 0.11252 0.46381 0.0
H1494 H 0.89682 0.11118 0.55938 0.0
H1495 H 0.91682 0.12388 0.27416 0.0
H1496 H 0.92676 0.16201 0.49818 0.0
H1497 H 0.86463 0.09083 0.33087 0.0
H1498 H 0.92696 0.13397 0.35804 0.0
H1499 H 0.89179 0.09932 0.4763 0.0
C1500 C 0.90275 0.11979 0.52858 0.0
C1501 C 0.91211 0.13759 0.53539 0.0
C1502 C 0.91336 0.12437 0.35187 0.0
C1503 C 0.90657 0.12414 0.44109 0.0
C1504 C 0.90759 0.11863 0.30433 0.0
C1505 C 0.88985 0.10666 0.2959 0.0
C1506 C 0.90142 0.11762 0.39096 0.0
C1507 C 0.87837 0.10022 0.33603 0.0
C1508 C 0.89977 0.11303 0.48138 0.0
C1509 C 0.91937 0.14821 0.49426 0.0
N1510 N 0.88437 0.10571 0.382 0.0
N1511 N 0.91641 0.14132 0.44862 0.0
H1512 H 0.91317 0.4306 0.13991 0.0
H1513 H 0.8867 0.48215 0.32452 0.0
H1514 H 0.87666 0.44791 0.09614 0.0
H1515 H 0.89973 0.44361 0.37158 0.0
H1516 H 0.88484 0.47226 0.23942 0.0
H1517 H 0.91105 0.43827 0.22431 0.0
C1518 C 0.90479 0.43614 0.148 0.0
C1519 C 0.89513 0.43869 0.11091 0.0
C1520 C 0.8878 0.46581 0.26857 0.0
C1521 C 0.89265 0.44749 0.20755 0.0
C1522 C 0.88884 0.47142 0.31684 0.0
C1523 C 0.89292 0.46334 0.35473 0.0
C1524 C 0.8916 0.45254 0.2584 0.0
C1525 C 0.8961 0.44982 0.34327 0.0
C1526 C 0.90346 0.44035 0.19626 0.0
C1527 C 0.88431 0.44572 0.1237 0.0
N1528 N 0.89551 0.44492 0.29603 0.0
N1529 N 0.88348 0.45004 0.17103 0.0
H1530 H 0.54604 0.44439 0.09972 0.0
H1531 H 0.5156 0.40624 0.33096 0.0
H1532 H 0.5775 0.48961 0.18582 0.0
H1533 H 0.55983 0.45201 0.38678 0.0
H1534 H 0.52558 0.41644 0.24718 0.0
H1535 H 0.53895 0.42696 0.17466 0.0
C1536 C 0.55155 0.4506 0.13432 0.0
C1537 C 0.56207 0.46849 0.13683 0.0
C1538 C 0.53351 0.42397 0.27759 0.0
C1539 C 0.5539 0.44881 0.22246 0.0
C1540 C 0.52774 0.41815 0.32537 0.0
C1541 C 0.53723 0.42809 0.36552 0.0
C1542 C 0.54866 0.44 0.2705 0.0
C1543 C 0.55251 0.44367 0.3568 0.0
C1544 C 0.54737 0.44067 0.17719 0.0
C1545 C 0.56901 0.47591 0.18232 0.0
N1546 N 0.55768 0.44915 0.31038 0.0
N1547 N 0.56474 0.46606 0.22316 0.0
H1548 H 0.54292 0.09585 0.3632 0.0
H1549 H 0.57252 0.12356 0.08773 0.0
H1550 H 0.59541 0.10936 0.31566 0.0
H1551 H 0.51978 0.08515 0.12827 0.0
H1552 H 0.58191 0.12378 0.17285 0.0
H1553 H 0.53492 0.09762 0.27825 0.0
C1554 C 0.55282 0.09948 0.33473 0.0
C1555 C 0.56993 0.10292 0.34603 0.0
C1556 C 0.56833 0.11529 0.16276 0.0
C1557 C 0.56085 0.10459 0.24928 0.0
C1558 C 0.56295 0.11518 0.11445 0.0
C1559 C 0.54536 0.10426 0.10095 0.0
C1560 C 0.55593 0.10471 0.1977 0.0
C1561 C 0.5335 0.09365 0.13694 0.0
C1562 C 0.54822 0.10032 0.28643 0.0
C1563 C 0.58217 0.10697 0.30804 0.0
N1564 N 0.53897 0.09425 0.18376 0.0
N1565 N 0.57745 0.10787 0.26105 0.0
H1566 H 0.81968 0.5543 0.83857 0.0
H1567 H 0.76685 0.57897 0.02658 0.0
H1568 H 0.78019 0.56746 0.79376 0.0
H1569 H 0.78183 0.54097 0.06594 0.0
H1570 H 0.77559 0.57813 0.94223 0.0
H1571 H 0.8094 0.55193 0.92401 0.0
C1572 C 0.80869 0.55642 0.84684 0.0
C1573 C 0.80038 0.56061 0.80952 0.0
C1574 C 0.77693 0.56995 0.96931 0.0
C1575 C 0.78919 0.55867 0.90599 0.0
C1576 C 0.77209 0.57052 0.01751 0.0
C1577 C 0.77367 0.56005 0.05327 0.0
C1578 C 0.78372 0.55909 0.95684 0.0
C1579 C 0.78038 0.54921 0.03933 0.0
C1580 C 0.80287 0.55507 0.89523 0.0
C1581 C 0.78657 0.56376 0.82165 0.0
N1582 N 0.78534 0.54911 0.99208 0.0
N1583 N 0.78147 0.56283 0.86896 0.0
H1584 H 0.4453 0.26022 0.8361 0.0
H1585 H 0.43052 0.17821 0.98697 0.0
H1586 H 0.445 0.2157 0.77474 0.0
H1587 H 0.43413 0.22302 0.05684 0.0
H1588 H 0.44103 0.19427 0.9109 0.0
H1589 H 0.44595 0.24941 0.9188 0.0
C1590 C 0.44586 0.24843 0.8402 0.0
C1591 C 0.44556 0.23901 0.79893 0.0
C1592 C 0.43974 0.20075 0.94282 0.0
C1593 C 0.44585 0.22642 0.89235 0.0
C1594 C 0.43371 0.19154 0.98621 0.0
C1595 C 0.43125 0.19929 0.02772 0.0
C1596 C 0.4429 0.21773 0.94046 0.0
C1597 C 0.43581 0.21664 0.02528 0.0
C1598 C 0.44623 0.24227 0.88715 0.0
C1599 C 0.44583 0.22361 0.80569 0.0
N1600 N 0.4411 0.22525 0.9819 0.0
N1601 N 0.44588 0.21778 0.85145 0.0
H1602 H 0.7828 0.22983 0.78453 0.0
H1603 H 0.77995 0.20271 0.05151 0.0
H1604 H 0.73836 0.18172 0.82742 0.0
H1605 H 0.78303 0.25174 0.02548 0.0
H1606 H 0.76932 0.19426 0.96712 0.0
H1607 H 0.78801 0.23837 0.87085 0.0
C1608 C 0.77379 0.22133 0.81209 0.0
C1609 C 0.75954 0.20549 0.79897 0.0
C1610 C 0.77218 0.20678 0.98028 0.0
C1611 C 0.7663 0.21451 0.89729 0.0
C1612 C 0.77832 0.21163 0.02798 0.0
C1613 C 0.78233 0.22791 0.04502 0.0
C1614 C 0.77068 0.21855 0.94927 0.0
C1615 C 0.77998 0.23905 0.01346 0.0
C1616 C 0.77691 0.2261 0.86114 0.0
C1617 C 0.74913 0.19429 0.83624 0.0
N1618 N 0.77462 0.23429 0.96656 0.0
N1619 N 0.75282 0.19894 0.88402 0.0
H1620 H 0.47821 0.24379 0.52948 0.0
H1621 H 0.42008 0.1698 0.34018 0.0
H1622 H 0.42307 0.20731 0.54855 0.0
H1623 H 0.46296 0.21818 0.29089 0.0
H1624 H 0.42643 0.1799 0.42438 0.0
H1625 H 0.47733 0.23134 0.44833 0.0
C1626 C 0.46599 0.23313 0.51671 0.0
C1627 C 0.45062 0.22668 0.54529 0.0
C1628 C 0.4346 0.18821 0.39517 0.0
C1629 C 0.44969 0.21225 0.45407 0.0
C1630 C 0.43105 0.18245 0.3471 0.0
C1631 C 0.4408 0.1933 0.30841 0.0
C1632 C 0.44803 0.20492 0.40474 0.0
C1633 C 0.45501 0.20948 0.31969 0.0
C1634 C 0.46552 0.22608 0.47064 0.0
C1635 C 0.43514 0.21283 0.52733 0.0
N1636 N 0.45809 0.21494 0.36701 0.0
N1637 N 0.43509 0.20606 0.48297 0.0
H1638 H 0.74774 0.21957 0.51689 0.0
H1639 H 0.82705 0.26349 0.32652 0.0
H1640 H 0.8012 0.23557 0.56024 0.0
H1641 H 0.77717 0.21999 0.289 0.0
H1642 H 0.81717 0.26056 0.41243 0.0
H1643 H 0.75782 0.22746 0.4317 0.0
C1644 C 0.76164 0.22513 0.50843 0.0
C1645 C 0.77374 0.22701 0.54496 0.0
C1646 C 0.80833 0.25189 0.38503 0.0
C1647 C 0.78526 0.2361 0.4489 0.0
C1648 C 0.81392 0.25356 0.33635 0.0
C1649 C 0.80256 0.24241 0.30071 0.0
C1650 C 0.79134 0.23898 0.39767 0.0
C1651 C 0.78593 0.22934 0.31517 0.0
C1652 C 0.76734 0.22952 0.46011 0.0
C1653 C 0.79158 0.23402 0.53265 0.0
N1654 N 0.78071 0.22808 0.36255 0.0
N1655 N 0.79687 0.23836 0.48542 0.0
H1656 H 0.80855 0.57041 0.52474 0.0
H1657 H 0.73422 0.55871 0.33905 0.0
H1658 H 0.75389 0.54146 0.56771 0.0
H1659 H 0.78412 0.56392 0.29386 0.0
H1660 H 0.74048 0.55369 0.42387 0.0
H1661 H 0.7995 0.57009 0.44033 0.0
C1662 C 0.7946 0.56403 0.51637 0.0
C1663 C 0.78193 0.55606 0.55325 0.0
C1664 C 0.74985 0.55559 0.3951 0.0
C1665 C 0.77147 0.55567 0.45649 0.0
C1666 C 0.74631 0.55846 0.34704 0.0
C1667 C 0.75853 0.56129 0.30979 0.0
C1668 C 0.76599 0.55625 0.40567 0.0
C1669 C 0.77421 0.56134 0.3216 0.0
C1670 C 0.78945 0.56372 0.46809 0.0
C1671 C 0.76404 0.54776 0.5402 0.0
N1672 N 0.77756 0.55898 0.36861 0.0
N1673 N 0.75928 0.54795 0.49273 0.0
H1674 H 0.57176 0.09683 0.63186 0.0
H1675 H 0.50753 0.1076 0.81567 0.0
H1676 H 0.54396 0.1236 0.58731 0.0
H1677 H 0.551 0.1005 0.86155 0.0
H1678 H 0.51922 0.11279 0.73126 0.0
H1679 H 0.56278 0.09699 0.71604 0.0
C1680 C 0.56371 0.10273 0.63988 0.0
C1681 C 0.55845 0.11008 0.60257 0.0
C1682 C 0.52633 0.1104 0.76008 0.0
C1683 C 0.54804 0.11026 0.69916 0.0
C1684 C 0.51967 0.10743 0.80792 0.0
C1685 C 0.52862 0.10406 0.8453 0.0
C1686 C 0.54163 0.10935 0.74982 0.0
C1687 C 0.54402 0.10351 0.83375 0.0
C1688 C 0.5587 0.10294 0.68804 0.0
C1689 C 0.54825 0.11778 0.61515 0.0
N1690 N 0.54999 0.10604 0.78699 0.0
N1691 N 0.54315 0.11749 0.66252 0.0
H1692 H 0.87373 0.42013 0.5985 0.0
H1693 H 0.90424 0.45131 0.87228 0.0
H1694 H 0.90592 0.47311 0.63998 0.0
H1695 H 0.89471 0.40168 0.82367 0.0
H1696 H 0.89901 0.45791 0.78909 0.0
H1697 H 0.8757 0.41157 0.68319 0.0
C1698 C 0.88111 0.42993 0.62538 0.0
C1699 C 0.88978 0.44735 0.61217 0.0
C1700 C 0.89795 0.44552 0.79654 0.0
C1701 C 0.89189 0.43769 0.70835 0.0
C1702 C 0.90079 0.44172 0.84396 0.0
C1703 C 0.89946 0.42581 0.85461 0.0
C1704 C 0.89385 0.43334 0.75939 0.0
C1705 C 0.89554 0.41398 0.81664 0.0
C1706 C 0.88229 0.42503 0.67343 0.0
C1707 C 0.89919 0.45953 0.64834 0.0
N1708 N 0.89271 0.41793 0.77044 0.0
N1709 N 0.89993 0.45447 0.69472 0.0
H1710 H 0.56968 0.42899 0.63167 0.0
H1711 H 0.58202 0.50054 0.82576 0.0
H1712 H 0.54928 0.46411 0.61366 0.0
H1713 H 0.57786 0.45236 0.87127 0.0
H1714 H 0.57882 0.49125 0.7408 0.0
H1715 H 0.58063 0.44116 0.71336 0.0
C1716 C 0.5677 0.43938 0.6447 0.0
C1717 C 0.55844 0.44548 0.61627 0.0
C1718 C 0.57885 0.48281 0.76935 0.0
C1719 C 0.57113 0.45953 0.70841 0.0
C1720 C 0.58074 0.48811 0.81788 0.0
C1721 C 0.5799 0.47707 0.85575 0.0
C1722 C 0.5762 0.46641 0.75845 0.0
C1723 C 0.57841 0.46118 0.84317 0.0
C1724 C 0.57389 0.44624 0.69116 0.0
C1725 C 0.55617 0.4589 0.63471 0.0
N1726 N 0.57641 0.45621 0.79542 0.0
N1727 N 0.5625 0.46549 0.67957 0.0
H1728 H 0.55326 0.81769 0.65642 0.0
H1729 H 0.5347 0.74437 0.46539 0.0
H1730 H 0.55615 0.77285 0.70133 0.0
H1731 H 0.57209 0.79704 0.43273 0.0
H1732 H 0.53268 0.75266 0.55029 0.0
H1733 H 0.5504 0.80816 0.5707 0.0
C1734 C 0.55277 0.8056 0.64824 0.0
C1735 C 0.55415 0.79561 0.68581 0.0
C1736 C 0.54115 0.76236 0.5242 0.0
C1737 C 0.55103 0.78483 0.58897 0.0
C1738 C 0.54229 0.75768 0.47613 0.0
C1739 C 0.55366 0.77009 0.44274 0.0
C1740 C 0.55104 0.77959 0.538 0.0
C1741 C 0.56329 0.78717 0.45789 0.0
C1742 C 0.55121 0.80025 0.59966 0.0
C1743 C 0.55416 0.7804 0.6735 0.0
N1744 N 0.56169 0.79148 0.50456 0.0
N1745 N 0.55246 0.77534 0.62601 0.0
H1746 H 0.21703 0.77758 0.43127 0.0
H1747 H 0.18637 0.73906 0.66131 0.0
H1748 H 0.24815 0.82262 0.51837 0.0
H1749 H 0.23085 0.7844 0.71813 0.0
H1750 H 0.19667 0.7493 0.5778 0.0
H1751 H 0.21032 0.7599 0.50557 0.0
C1752 C 0.22255 0.7837 0.46596 0.0
C1753 C 0.23284 0.8016 0.46897 0.0
C1754 C 0.2046 0.75669 0.60838 0.0
C1755 C 0.2251 0.78164 0.55388 0.0
C1756 C 0.19866 0.75084 0.65601 0.0
C1757 C 0.20808 0.76069 0.69638 0.0
C1758 C 0.21988 0.77266 0.60164 0.0
C1759 C 0.22357 0.77612 0.68801 0.0
C1760 C 0.21859 0.77363 0.50846 0.0
C1761 C 0.23983 0.80891 0.51454 0.0
N1762 N 0.2289 0.78165 0.64171 0.0
N1763 N 0.23575 0.79892 0.55505 0.0
H1764 H 0.22574 0.42247 0.43009 0.0
H1765 H 0.21544 0.44331 0.69076 0.0
H1766 H 0.22548 0.47016 0.45168 0.0
H1767 H 0.26356 0.4418 0.66449 0.0
H1768 H 0.21308 0.44726 0.60266 0.0
H1769 H 0.23474 0.4234 0.51613 0.0
C1770 C 0.22783 0.43322 0.45281 0.0
C1771 C 0.22494 0.44628 0.43414 0.0
C1772 C 0.22429 0.44636 0.61645 0.0
C1773 C 0.23462 0.44712 0.53159 0.0
C1774 C 0.22576 0.44432 0.66646 0.0
C1775 C 0.24025 0.44327 0.68476 0.0
C1776 C 0.23692 0.44642 0.58454 0.0
C1777 C 0.25255 0.4432 0.65158 0.0
C1778 C 0.233 0.43377 0.50147 0.0
C1779 C 0.22772 0.45994 0.46482 0.0
N1780 N 0.25056 0.44465 0.60264 0.0
N1781 N 0.23202 0.45981 0.51259 0.0
H1782 H 0.44439 0.9004 0.12916 0.0
H1783 H 0.45012 0.87235 0.39905 0.0
H1784 H 0.48646 0.88987 0.16569 0.0
H1785 H 0.43961 0.91386 0.36614 0.0
H1786 H 0.45875 0.87267 0.31276 0.0
H1787 H 0.43699 0.89893 0.21609 0.0
C1788 C 0.4519 0.89755 0.15569 0.0
C1789 C 0.46575 0.89486 0.14073 0.0
C1790 C 0.45468 0.88174 0.32497 0.0
C1791 C 0.45755 0.89336 0.23962 0.0
C1792 C 0.44971 0.88154 0.37385 0.0
C1793 C 0.44419 0.89312 0.38972 0.0
C1794 C 0.45364 0.89329 0.29202 0.0
C1795 C 0.44389 0.90478 0.35567 0.0
C1796 C 0.44778 0.89684 0.20506 0.0
C1797 C 0.47549 0.89172 0.17625 0.0
N1798 N 0.44835 0.90443 0.30834 0.0
N1799 N 0.47107 0.89085 0.22445 0.0
H1800 H 0.11368 0.59317 0.16959 0.0
H1801 H 0.09896 0.51015 0.31507 0.0
H1802 H 0.11246 0.54872 0.10464 0.0
H1803 H 0.10322 0.55476 0.38803 0.0
H1804 H 0.10908 0.52653 0.23942 0.0
H1805 H 0.11461 0.58185 0.25132 0.0
C1806 C 0.1141 0.58128 0.17267 0.0
C1807 C 0.11346 0.57203 0.13068 0.0
C1808 C 0.10801 0.53289 0.27193 0.0
C1809 C 0.11405 0.55886 0.22301 0.0
C1810 C 0.10219 0.52349 0.31509 0.0
C1811 C 0.10002 0.53108 0.3574 0.0
C1812 C 0.11127 0.54991 0.27063 0.0
C1813 C 0.10466 0.54847 0.35588 0.0
C1814 C 0.11463 0.57483 0.21908 0.0
C1815 C 0.11355 0.5565 0.13616 0.0
N1816 N 0.10976 0.55727 0.31276 0.0
N1817 N 0.11376 0.55038 0.18141 0.0
H1818 H 0.45057 0.56221 0.12303 0.0
H1819 H 0.44774 0.53692 0.39057 0.0
H1820 H 0.40401 0.51628 0.1686 0.0
H1821 H 0.45045 0.58579 0.36476 0.0
H1822 H 0.43714 0.52848 0.30603 0.0
H1823 H 0.45644 0.57138 0.20896 0.0
C1824 C 0.44126 0.55439 0.15103 0.0
C1825 C 0.42626 0.53898 0.13882 0.0
C1826 C 0.43994 0.54097 0.31928 0.0
C1827 C 0.4337 0.54856 0.23659 0.0
C1828 C 0.44603 0.54579 0.36706 0.0
C1829 C 0.44985 0.562 0.3842 0.0
C1830 C 0.43833 0.5527 0.28837 0.0
C1831 C 0.44748 0.57313 0.35264 0.0
C1832 C 0.44475 0.55948 0.19984 0.0
C1833 C 0.41539 0.52854 0.17669 0.0
N1834 N 0.44217 0.56841 0.30569 0.0
N1835 N 0.41943 0.53342 0.22417 0.0
H1836 H 0.08874 0.54173 0.87975 0.0
H1837 H 0.13134 0.55171 0.62022 0.0
H1838 H 0.14438 0.57628 0.86011 0.0
H1839 H 0.0877 0.50422 0.67176 0.0
H1840 H 0.13691 0.56219 0.70503 0.0
H1841 H 0.08787 0.52933 0.79985 0.0
C1842 C 0.10079 0.54675 0.85846 0.0
C1843 C 0.11663 0.56013 0.87632 0.0
C1844 C 0.12635 0.54936 0.69763 0.0
C1845 C 0.11572 0.54597 0.78473 0.0
C1846 C 0.12318 0.54337 0.64939 0.0
C1847 C 0.10887 0.52718 0.6389 0.0
C1848 C 0.11495 0.53915 0.73506 0.0
C1849 C 0.09873 0.51688 0.67803 0.0
C1850 C 0.10032 0.53955 0.81307 0.0
C1851 C 0.1319 0.56597 0.84748 0.0
N1852 N 0.10177 0.52316 0.72423 0.0
N1853 N 0.13103 0.559 0.80258 0.0
H1854 H 0.42503 0.52829 0.85159 0.0
H1855 H 0.49085 0.59989 0.66784 0.0
H1856 H 0.45138 0.58163 0.89286 0.0
H1857 H 0.44818 0.55127 0.62155 0.0
H1858 H 0.47886 0.59368 0.75203 0.0
H1859 H 0.43553 0.53657 0.76803 0.0
C1860 C 0.43303 0.54179 0.84296 0.0
C1861 C 0.43741 0.55429 0.8792 0.0
C1862 C 0.47206 0.58451 0.72321 0.0
C1863 C 0.44967 0.56389 0.78343 0.0
C1864 C 0.4789 0.58802 0.6755 0.0
C1865 C 0.47016 0.57624 0.63797 0.0
C1866 C 0.45679 0.56888 0.73319 0.0
C1867 C 0.455 0.56085 0.64945 0.0
C1868 C 0.43896 0.54651 0.79517 0.0
C1869 C 0.44768 0.57161 0.86585 0.0
N1870 N 0.44882 0.55759 0.69603 0.0
N1871 N 0.45368 0.57593 0.81897 0.0
H1872 H 0.43151 0.90447 0.90147 0.0
H1873 H 0.44628 0.88837 0.63801 0.0
H1874 H 0.43932 0.86117 0.87345 0.0
H1875 H 0.40045 0.89367 0.66729 0.0
H1876 H 0.44666 0.88068 0.72412 0.0
H1877 H 0.42215 0.90346 0.81593 0.0
C1878 C 0.43089 0.89456 0.8774 0.0
C1879 C 0.43604 0.88283 0.89397 0.0
C1880 C 0.43625 0.88308 0.71132 0.0
C1881 C 0.42606 0.88198 0.79689 0.0
C1882 C 0.43592 0.88727 0.6623 0.0
C1883 C 0.42279 0.89076 0.6454 0.0
C1884 C 0.42395 0.88338 0.74397 0.0
C1885 C 0.41046 0.89054 0.67896 0.0
C1886 C 0.42553 0.89396 0.82896 0.0
C1887 C 0.43526 0.87031 0.8617 0.0
N1888 N 0.41147 0.88712 0.72705 0.0
N1889 N 0.43076 0.87046 0.81409 0.0
H1890 H 0.17253 0.43815 0.1647 0.0
H1891 H 0.2437 0.47496 0.9529 0.0
H1892 H 0.22477 0.44524 0.18652 0.0
H1893 H 0.19448 0.42884 0.92797 0.0
H1894 H 0.23535 0.47432 0.03937 0.0
H1895 H 0.17919 0.44436 0.07667 0.0
C1896 C 0.18552 0.44146 0.15109 0.0
C1897 C 0.19844 0.44198 0.18288 0.0
C1898 C 0.22624 0.46466 0.01446 0.0
C1899 C 0.20604 0.44909 0.08374 0.0
C1900 C 0.23092 0.46504 0.9654 0.0
C1901 C 0.2197 0.45192 0.93381 0.0
C1902 C 0.21008 0.45135 0.0312 0.0
C1903 C 0.20341 0.43914 0.95157 0.0
C1904 C 0.18927 0.44498 0.10127 0.0
C1905 C 0.21484 0.44566 0.16351 0.0
N1906 N 0.19904 0.43916 -0.00064 0.0
N1907 N 0.21828 0.44927 0.11514 0.0
H1908 H 0.56434 0.80744 0.97247 0.0
H1909 H 0.56119 0.7373 0.15695 0.0
H1910 H 0.53849 0.754 0.93241 0.0
H1911 H 0.56455 0.78483 0.20363 0.0
H1912 H 0.55536 0.74327 0.07263 0.0
H1913 H 0.56695 0.79956 0.05628 0.0
C1914 C 0.55917 0.79401 0.98143 0.0
C1915 C 0.55126 0.78134 0.94549 0.0
C1916 C 0.55718 0.75225 0.10155 0.0
C1917 C 0.55439 0.77224 0.04139 0.0
C1918 C 0.56055 0.74889 0.14932 0.0
C1919 C 0.5628 0.76038 0.18701 0.0
C1920 C 0.55675 0.7675 0.09165 0.0
C1921 C 0.56236 0.77545 0.17558 0.0
C1922 C 0.5606 0.78952 0.02932 0.0
C1923 C 0.54464 0.76412 0.95919 0.0
N1924 N 0.55942 0.77859 0.12889 0.0
N1925 N 0.54655 0.76005 0.00614 0.0
H1926 H 0.24855 0.78629 0.20387 0.0
H1927 H 0.21777 0.79756 0.9424 0.0
H1928 H 0.2493 0.83287 0.15719 0.0
H1929 H 0.23946 0.76366 0.96452 0.0
H1930 H 0.22858 0.80996 0.02291 0.0
H1931 H 0.24531 0.77717 0.11796 0.0
C1932 C 0.24837 0.79473 0.17556 0.0
C1933 C 0.24894 0.81024 0.18771 0.0
C1934 C 0.23115 0.79993 0.01003 0.0
C1935 C 0.24496 0.7998 0.09008 0.0
C1936 C 0.22487 0.79277 0.96425 0.0
C1937 C 0.22763 0.7795 0.94705 0.0
C1938 C 0.23993 0.79354 0.03939 0.0
C1939 C 0.23708 0.77389 0.97659 0.0
C1940 C 0.24652 0.78951 0.12664 0.0
C1941 C 0.2487 0.82071 0.14961 0.0
N1942 N 0.24268 0.78077 0.02182 0.0
N1943 N 0.24643 0.81517 0.10263 0.0
H1944 H 0.18197 0.22607 0.28298 0.0
H1945 H 0.17149 0.13739 0.18414 0.0
H1946 H 0.13592 0.17658 0.3051 0.0
H1947 H 0.22197 0.18359 0.19037 0.0
H1948 H 0.15779 0.15282 0.22036 0.0
H1949 H 0.19657 0.21179 0.24269 0.0
C1950 C 0.17495 0.21225 0.2796 0.0
C1951 C 0.15766 0.20255 0.29755 0.0
C1952 C 0.17187 0.15962 0.21378 0.0
C1953 C 0.1742 0.18623 0.25107 0.0
C1954 C 0.17973 0.15082 0.19286 0.0
C1955 C 0.19799 0.15913 0.18446 0.0
C1956 C 0.18225 0.17694 0.22641 0.0
C1957 C 0.20787 0.17661 0.19635 0.0
C1958 C 0.18328 0.20412 0.25656 0.0
C1959 C 0.14923 0.18466 0.29201 0.0
N1960 N 0.19988 0.18494 0.2169 0.0
N1961 N 0.15754 0.17714 0.26917 0.0
H1962 H 0.77428 0.95738 0.2859 0.0
H1963 H 0.86387 0.03702 0.19326 0.0
H1964 H 0.82652 0.96431 0.30992 0.0
H1965 H 0.81747 0.04236 0.21427 0.0
H1966 H 0.8481 0.00821 0.22545 0.0
H1967 H 0.7878 0.98675 0.25194 0.0
C1968 C 0.7885 0.96501 0.28432 0.0
C1969 C 0.79922 0.95819 0.30043 0.0
C1970 C 0.84128 0.01562 0.2232 0.0
C1971 C 0.81462 0.99152 0.26136 0.0
C1972 C 0.85031 0.03217 0.20456 0.0
C1973 C 0.84212 0.04236 0.20142 0.0
C1974 C 0.82378 0.00889 0.23891 0.0
C1975 C 0.82437 0.03504 0.21629 0.0
C1976 C 0.79617 0.98173 0.26496 0.0
C1977 C 0.81759 0.96875 0.29759 0.0
N1978 N 0.81576 0.01871 0.23456 0.0
N1979 N 0.8246 0.9847 0.27824 0.0
H1980 H 0.96018 0.82482 0.18049 0.0
H1981 H 0.04036 0.81748 0.29794 0.0
H1982 H 0.95772 0.77578 0.20294 0.0
H1983 H 0.03424 0.86265 0.3032 0.0
H1984 H 0.01113 0.80178 0.25998 0.0
H1985 H 0.98867 0.83877 0.22001 0.0
C1986 C 0.96562 0.81691 0.19359 0.0
C1987 C 0.95637 0.79901 0.18848 0.0
C1988 C 0.01621 0.8151 0.26978 0.0
C1989 C 0.98934 0.81513 0.23439 0.0
C1990 C 0.03287 0.82408 0.29153 0.0
C1991 C 0.03989 0.8415 0.30356 0.0
C1992 C 0.00662 0.82365 0.25973 0.0
C1993 C 0.02954 0.84932 0.29436 0.0
C1994 C 0.98195 0.82495 0.21645 0.0
C1995 C 0.96433 0.7896 0.20611 0.0
N1996 N 0.01355 0.84039 0.2728 0.0
N1997 N 0.98039 0.79779 0.22837 0.0
H1998 H 0.80315 0.76043 0.67862 0.0
H1999 H 0.79223 0.83259 0.82278 0.0
H2000 H 0.84611 0.81095 0.71012 0.0
H2001 H 0.74835 0.78783 0.75992 0.0
H2002 H 0.81204 0.82242 0.79355 0.0
H2003 H 0.78282 0.76832 0.71811 0.0
C2004 C 0.80832 0.77317 0.69375 0.0
C2005 C 0.82638 0.78507 0.69072 0.0
C2006 C 0.79805 0.81476 0.7865 0.0
C2007 C 0.80321 0.79407 0.7365 0.0
C2008 C 0.78669 0.82049 0.80352 0.0
C2009 C 0.76858 0.81116 0.79336 0.0
C2010 C 0.79129 0.79954 0.75933 0.0
C2011 C 0.76223 0.79555 0.7682 0.0
C2012 C 0.79671 0.77764 0.71634 0.0
C2013 C 0.8323 0.80138 0.71116 0.0
N2014 N 0.77358 0.7903 0.75175 0.0
N2015 N 0.82077 0.80537 0.73321 0.0
H2016 H 0.23464 0.0411 0.68922 0.0
H2017 H 0.15221 0.96865 0.83549 0.0
H2018 H 0.18441 0.03927 0.70917 0.0
H2019 H 0.19173 0.95785 0.77529 0.0
H2020 H 0.16774 0.99724 0.80119 0.0
H2021 H 0.22239 0.01277 0.72948 0.0
C2022 C 0.22111 0.03481 0.70187 0.0
C2023 C 0.21058 0.04266 0.69562 0.0
C2024 C 0.17311 0.98869 0.7954 0.0
C2025 C 0.1967 0.01058 0.74213 0.0
C2026 C 0.16424 0.97229 0.8152 0.0
C2027 C 0.17048 0.96063 0.80774 0.0
C2028 C 0.18843 0.9937 0.76755 0.0
C2029 C 0.18638 0.96637 0.78173 0.0
C2030 C 0.21416 0.01867 0.72476 0.0
C2031 C 0.19312 0.03386 0.71277 0.0
N2032 N 0.19478 0.98251 0.7621 0.0
N2033 N 0.18685 0.01845 0.73528 0.0
H2034 H 0.96448 0.21376 0.73121 0.0
H2035 H 0.0386 0.1878 0.78633 0.0
H2036 H 0.96048 0.16559 0.68714 0.0
H2037 H 0.04658 0.23904 0.8066 0.0
H2038 H 0.00986 0.17944 0.75041 0.0
H2039 H 0.99467 0.22345 0.75796 0.0
C2040 C 0.96999 0.20527 0.72666 0.0
C2041 C 0.95983 0.18876 0.7072 0.0
C2042 C 0.01792 0.19253 0.76255 0.0
C2043 C 0.99438 0.19975 0.73836 0.0
C2044 C 0.03432 0.19731 0.78336 0.0
C2045 C 0.04506 0.21416 0.79976 0.0
C2046 C 0.01208 0.20463 0.75838 0.0
C2047 C 0.03879 0.22591 0.79457 0.0
C2048 C 0.98725 0.21083 0.74201 0.0
C2049 C 0.96776 0.1784 0.70195 0.0
N2050 N 0.02268 0.2209 0.77455 0.0
N2051 N 0.98449 0.184 0.71793 0.0
H2052 H 0.8518 0.55852 0.6247 0.0
H2053 H 0.84032 0.46987 0.52264 0.0
H2054 H 0.80579 0.50902 0.64712 0.0
H2055 H 0.89118 0.51562 0.52841 0.0
H2056 H 0.82719 0.48538 0.56131 0.0
H2057 H 0.86643 0.54419 0.58462 0.0
C2058 C 0.84482 0.54469 0.62157 0.0
C2059 C 0.82747 0.53501 0.63917 0.0
C2060 C 0.84123 0.49208 0.55417 0.0
C2061 C 0.84403 0.51864 0.59292 0.0
C2062 C 0.84877 0.48322 0.5318 0.0
C2063 C 0.86696 0.49137 0.52244 0.0
C2064 C 0.85186 0.50931 0.56731 0.0
C2065 C 0.87712 0.50877 0.53505 0.0
C2066 C 0.85316 0.53654 0.59859 0.0
C2067 C 0.8191 0.51711 0.63398 0.0
N2068 N 0.86943 0.51717 0.55696 0.0
N2069 N 0.8274 0.50958 0.61118 0.0
H2070 H 0.44208 0.28986 0.60477 0.0
H2071 H 0.53164 0.37846 0.57445 0.0
H2072 H 0.49226 0.30213 0.66912 0.0
H2073 H 0.48228 0.37289 0.52178 0.0
H2074 H 0.51614 0.35022 0.61046 0.0
H2075 H 0.45505 0.31979 0.57569 0.0
C2076 C 0.4557 0.29882 0.61324 0.0
C2077 C 0.46613 0.29336 0.63895 0.0
C2078 C 0.50853 0.35504 0.59126 0.0
C2079 C 0.48094 0.3274 0.60596 0.0
C2080 C 0.51745 0.37124 0.57037 0.0
C2081 C 0.50829 0.37803 0.54452 0.0
C2082 C 0.49018 0.3452 0.58615 0.0
C2083 C 0.48984 0.36811 0.54136 0.0
C2084 C 0.46307 0.31586 0.59658 0.0
C2085 C 0.48368 0.30554 0.64891 0.0
N2086 N 0.48135 0.35204 0.56154 0.0
N2087 N 0.49046 0.32182 0.63226 0.0
H2088 H 0.62894 0.15715 0.49363 0.0
H2089 H 0.70923 0.15352 0.62375 0.0
H2090 H 0.62562 0.10875 0.53285 0.0
H2091 H 0.70064 0.19728 0.62508 0.0
H2092 H 0.68057 0.13681 0.58308 0.0
H2093 H 0.6577 0.17204 0.53165 0.0
C2094 C 0.63426 0.14958 0.51007 0.0
C2095 C 0.62464 0.13159 0.51048 0.0
C2096 C 0.68502 0.15005 0.5926 0.0
C2097 C 0.65787 0.14879 0.55458 0.0
C2098 C 0.70134 0.1596 0.61581 0.0
C2099 C 0.70744 0.17689 0.62785 0.0
C2100 C 0.67491 0.15794 0.58081 0.0
C2101 C 0.69661 0.18405 0.61664 0.0
C2102 C 0.65073 0.15815 0.53201 0.0
C2103 C 0.6325 0.12262 0.53186 0.0
N2104 N 0.68101 0.1746 0.59356 0.0
N2105 N 0.64867 0.13132 0.55332 0.0
H2106 H 0.4161 0.12318 0.09483 0.0
H2107 H 0.51519 0.14632 0.03737 0.0
H2108 H 0.4615 0.16836 0.15011 0.0
H2109 H 0.4708 0.09619 0.01059 0.0
H2110 H 0.49545 0.15476 0.07689 0.0
H2111 H 0.43564 0.11287 0.06385 0.0
C2112 C 0.43014 0.13084 0.10106 0.0
C2113 C 0.43715 0.14675 0.12483 0.0
C2114 C 0.49002 0.14189 0.0625 0.0
C2115 C 0.4596 0.13511 0.08872 0.0
C2116 C 0.50128 0.13708 0.03957 0.0
C2117 C 0.49467 0.1205 0.02041 0.0
C2118 C 0.47196 0.13013 0.06602 0.0
C2119 C 0.47651 0.1091 0.02476 0.0
C2120 C 0.44129 0.12495 0.08324 0.0
C2121 C 0.45547 0.15605 0.13198 0.0
N2122 N 0.46578 0.11415 0.04691 0.0
N2123 N 0.46605 0.15018 0.11348 0.0
H2124 H 0.85439 0.37476 0.0554 0.0
H2125 H 0.85333 0.28606 0.09383 0.0
H2126 H 0.89937 0.3698 0.01059 0.0
H2127 H 0.82142 0.3027 0.17339 0.0
H2128 H 0.87055 0.31534 0.0598 0.0
H2129 H 0.84172 0.34689 0.09349 0.0
C2130 C 0.86164 0.36777 0.05333 0.0
C2131 C 0.87798 0.3747 0.02935 0.0
C2132 C 0.8599 0.31251 0.08524 0.0
C2133 C 0.86334 0.3423 0.07388 0.0
C2134 C 0.85011 0.29585 0.10473 0.0
C2135 C 0.83571 0.29179 0.136 0.0
C2136 C 0.85513 0.32503 0.09717 0.0
C2137 C 0.83215 0.30501 0.14888 0.0
C2138 C 0.8544 0.3518 0.07558 0.0
C2139 C 0.88674 0.36495 0.02872 0.0
N2140 N 0.84164 0.32085 0.12918 0.0
N2141 N 0.87923 0.34911 0.05039 0.0
H2142 H 0.70182 0.52026 0.11936 0.0
H2143 H 0.62605 0.54462 0.0752 0.0
H2144 H 0.70894 0.57071 0.14922 0.0
H2145 H 0.62525 0.49968 0.01414 0.0
H2146 H 0.65617 0.55448 0.10347 0.0
H2147 H 0.67323 0.51229 0.08326 0.0
C2148 C 0.69737 0.52967 0.11852 0.0
C2149 C 0.70784 0.54619 0.13757 0.0
C2150 C 0.64945 0.54255 0.08344 0.0
C2151 C 0.675 0.53709 0.09595 0.0
C2152 C 0.63225 0.53691 0.06722 0.0
C2153 C 0.623 0.52121 0.04251 0.0
C2154 C 0.65741 0.53235 0.07541 0.0
C2155 C 0.63179 0.51184 0.03308 0.0
C2156 C 0.68106 0.52513 0.09755 0.0
C2157 C 0.70135 0.55783 0.13502 0.0
N2158 N 0.6484 0.51746 0.05 0.0
N2159 N 0.6853 0.55303 0.11482 0.0
H2160 H 0.51216 0.89096 0.95124 0.0
H2161 H 0.50197 0.80358 0.84337 0.0
H2162 H 0.46672 0.84094 0.97206 0.0
H2163 H 0.5531 0.84847 0.8596 0.0
H2164 H 0.48846 0.81903 0.88008 0.0
H2165 H 0.52716 0.87726 0.90949 0.0
C2166 C 0.50536 0.87715 0.94727 0.0
C2167 C 0.48811 0.86712 0.96527 0.0
C2168 C 0.50264 0.82555 0.87563 0.0
C2169 C 0.50508 0.85151 0.91711 0.0
C2170 C 0.51041 0.81674 0.85443 0.0
C2171 C 0.52878 0.82463 0.8488 0.0
C2172 C 0.51321 0.84249 0.89137 0.0
C2173 C 0.5389 0.84183 0.86344 0.0
C2174 C 0.51393 0.86937 0.92344 0.0
C2175 C 0.47998 0.84928 0.959 0.0
N2176 N 0.53098 0.85019 0.88431 0.0
N2177 N 0.48848 0.84212 0.93532 0.0
H2178 H 0.10989 0.62373 0.93669 0.0
H2179 H 0.20005 0.71219 0.9115 0.0
H2180 H 0.15958 0.6355 0.0033 0.0
H2181 H 0.15162 0.70632 0.8504 0.0
H2182 H 0.18398 0.68408 0.94815 0.0
H2183 H 0.12326 0.65371 0.90776 0.0
C2184 C 0.12347 0.6326 0.94574 0.0
C2185 C 0.13366 0.62698 0.97203 0.0
C2186 C 0.17669 0.6888 0.92693 0.0
C2187 C 0.14893 0.66108 0.93924 0.0
C2188 C 0.18594 0.70493 0.90572 0.0
C2189 C 0.17722 0.71158 0.87729 0.0
C2190 C 0.15845 0.67889 0.91951 0.0
C2191 C 0.15885 0.70163 0.87198 0.0
C2192 C 0.13109 0.64966 0.92914 0.0
C2193 C 0.15119 0.63903 0.98269 0.0
N2194 N 0.15004 0.68564 0.89248 0.0
N2195 N 0.1582 0.65535 0.96614 0.0
H2196 H 0.28813 0.44457 0.87431 0.0
H2197 H 0.3656 0.53139 0.98465 0.0
H2198 H 0.29265 0.49469 0.85779 0.0
H2199 H 0.37206 0.48683 0.96375 0.0
H2200 H 0.33643 0.51599 0.94907 0.0
H2201 H 0.31695 0.45802 0.91571 0.0
C2202 C 0.29514 0.45833 0.87919 0.0
C2203 C 0.28789 0.46847 0.86242 0.0
C2204 C 0.34418 0.50952 0.95225 0.0
C2205 C 0.32056 0.48379 0.91016 0.0
C2206 C 0.36089 0.51831 0.97278 0.0
C2207 C 0.37149 0.51051 0.97674 0.0
C2208 C 0.33782 0.4927 0.93547 0.0
C2209 C 0.36442 0.49341 0.96117 0.0
C2210 C 0.31155 0.46597 0.9028 0.0
C2211 C 0.29759 0.48626 0.86983 0.0
N2212 N 0.34801 0.48507 0.94094 0.0
N2213 N 0.31329 0.49327 0.89324 0.0
H2214 H 0.0881 0.45599 0.43105 0.0
H2215 H 0.18816 0.48345 0.37534 0.0
H2216 H 0.13197 0.50263 0.48538 0.0
H2217 H 0.14617 0.4314 0.35766 0.0
H2218 H 0.1674 0.49074 0.41392 0.0
H2219 H 0.10875 0.44649 0.40385 0.0
C2220 C 0.10204 0.46414 0.43788 0.0
C2221 C 0.10829 0.48023 0.46017 0.0
C2222 C 0.16273 0.4777 0.40184 0.0
C2223 C 0.13199 0.4695 0.42844 0.0
C2224 C 0.17456 0.47354 0.37945 0.0
C2225 C 0.1689 0.45679 0.36293 0.0
C2226 C 0.14501 0.46511 0.40733 0.0
C2227 C 0.15112 0.44448 0.36977 0.0
C2228 C 0.11381 0.4587 0.42228 0.0
C2229 C 0.1265 0.49016 0.46826 0.0
N2230 N 0.13977 0.44892 0.39112 0.0
N2231 N 0.13771 0.48474 0.45182 0.0
H2232 H 0.52643 0.62823 0.47491 0.0
H2233 H 0.51774 0.69733 0.30841 0.0
H2234 H 0.47799 0.62835 0.44014 0.0
H2235 H 0.56554 0.71222 0.39031 0.0
H2236 H 0.50536 0.66875 0.34255 0.0
H2237 H 0.54296 0.65634 0.43322 0.0
C2238 C 0.51929 0.6341 0.45861 0.0
C2239 C 0.50079 0.62594 0.46138 0.0
C2240 C 0.5186 0.6782 0.35301 0.0
C2241 C 0.51945 0.65762 0.41319 0.0
C2242 C 0.52576 0.69458 0.33334 0.0
C2243 C 0.54265 0.70737 0.34705 0.0
C2244 C 0.52825 0.67435 0.38709 0.0
C2245 C 0.55242 0.70279 0.37898 0.0
C2246 C 0.52871 0.6501 0.435 0.0
C2247 C 0.49222 0.63413 0.43958 0.0
N2248 N 0.54499 0.68663 0.3985 0.0
N2249 N 0.50158 0.64936 0.41638 0.0
H2250 H 0.37166 0.85353 0.44569 0.0
H2251 H 0.29564 0.87784 0.40833 0.0
H2252 H 0.37842 0.90337 0.48256 0.0
H2253 H 0.29537 0.83399 0.34113 0.0
H2254 H 0.32586 0.8877 0.43563 0.0
H2255 H 0.34337 0.84614 0.40863 0.0
C2256 C 0.3672 0.86294 0.44613 0.0
C2257 C 0.37746 0.8791 0.46757 0.0
C2258 C 0.31924 0.87603 0.41443 0.0
C2259 C 0.34493 0.87065 0.42489 0.0
C2260 C 0.30197 0.87038 0.39876 0.0
C2261 C 0.29283 0.85495 0.37272 0.0
C2262 C 0.32736 0.86609 0.40448 0.0
C2263 C 0.30181 0.84592 0.36122 0.0
C2264 C 0.35106 0.85872 0.42462 0.0
C2265 C 0.37098 0.89076 0.46653 0.0
N2266 N 0.31847 0.85151 0.37767 0.0
N2267 N 0.35506 0.88627 0.44584 0.0
H2268 H 0.29756 0.18895 0.17687 0.0
H2269 H 0.38344 0.20252 0.1424 0.0
H2270 H 0.28418 0.13573 0.16877 0.0
H2271 H 0.36449 0.15393 0.21579 0.0
H2272 H 0.3536 0.1989 0.14515 0.0
H2273 H 0.32875 0.19676 0.18509 0.0
C2274 C 0.30119 0.17894 0.17701 0.0
C2275 C 0.28836 0.16171 0.17152 0.0
C2276 C 0.35598 0.18914 0.16128 0.0
C2277 C 0.32376 0.17046 0.18048 0.0
C2278 C 0.37291 0.1911 0.15913 0.0
C2279 C 0.37606 0.17811 0.1769 0.0
C2280 C 0.34227 0.17419 0.18217 0.0
C2281 C 0.36228 0.16382 0.1997 0.0
C2282 C 0.31897 0.1834 0.18123 0.0
C2283 C 0.29369 0.1492 0.17224 0.0
N2284 N 0.34586 0.16208 0.20093 0.0
N2285 N 0.31098 0.15382 0.17676 0.0
H2286 H 0.79896 0.1811 0.2018 0.0
H2287 H 0.8706 0.15099 0.15422 0.0
H2288 H 0.85012 0.21325 0.13746 0.0
H2289 H 0.81805 0.11653 0.20642 0.0
H2290 H 0.86341 0.17406 0.15142 0.0
H2291 H 0.80565 0.15751 0.20604 0.0
C2292 C 0.81159 0.1832 0.18836 0.0
C2293 C 0.82402 0.19921 0.16922 0.0
C2294 C 0.85341 0.16149 0.1636 0.0
C2295 C 0.83178 0.17223 0.17434 0.0
C2296 C 0.85752 0.14826 0.16538 0.0
C2297 C 0.84489 0.13173 0.18053 0.0
C2298 C 0.83651 0.15831 0.1771 0.0
C2299 C 0.82819 0.12906 0.19458 0.0
C2300 C 0.81539 0.1697 0.19088 0.0
C2301 C 0.84014 0.20114 0.15242 0.0
N2302 N 0.82447 0.14223 0.19243 0.0
N2303 N 0.84356 0.18784 0.15552 0.0
H2304 H 0.81901 0.62014 0.21093 0.0
H2305 H 0.84927 0.71577 0.12074 0.0
H2306 H 0.78476 0.63593 0.14029 0.0
H2307 H 0.88442 0.70196 0.19535 0.0
H2308 H 0.82581 0.68636 0.12744 0.0
H2309 H 0.84324 0.64963 0.20542 0.0
C2310 C 0.81658 0.62981 0.19423 0.0
C2311 C 0.79982 0.62556 0.17599 0.0
C2312 C 0.83861 0.68967 0.14243 0.0
C2313 C 0.8275 0.65932 0.16962 0.0
C2314 C 0.8521 0.70653 0.13862 0.0
C2315 C 0.8689 0.71138 0.15753 0.0
C2316 C 0.84181 0.67739 0.16534 0.0
C2317 C 0.87167 0.69877 0.18026 0.0
C2318 C 0.83043 0.64664 0.19116 0.0
C2319 C 0.79744 0.6386 0.15482 0.0
N2320 N 0.85823 0.68231 0.18353 0.0
N2321 N 0.81112 0.65486 0.15221 0.0
H2322 H 0.15681 0.36922 0.36022 0.0
H2323 H 0.1831 0.29808 0.28239 0.0
H2324 H 0.20306 0.38124 0.27389 0.0
H2325 H 0.1366 0.28794 0.36491 0.0
H2326 H 0.19106 0.32852 0.27814 0.0
H2327 H 0.14968 0.33931 0.36221 0.0
C2328 C 0.1655 0.36557 0.34171 0.0
C2329 C 0.18055 0.37776 0.31685 0.0
C2330 C 0.17912 0.31958 0.29708 0.0
C2331 C 0.17243 0.34335 0.31886 0.0
C2332 C 0.17456 0.30223 0.29945 0.0
C2333 C 0.15918 0.29046 0.32408 0.0
C2334 C 0.16819 0.32511 0.31955 0.0
C2335 C 0.1486 0.29652 0.34557 0.0
C2336 C 0.16141 0.34844 0.34279 0.0
C2337 C 0.19132 0.37224 0.29351 0.0
N2338 N 0.15331 0.31337 0.34285 0.0
N2339 N 0.18705 0.35541 0.29506 0.0
H2340 H 0.61893 0.81814 0.2939 0.0
H2341 H 0.71906 0.85056 0.37137 0.0
H2342 H 0.63676 0.7858 0.36293 0.0
H2343 H 0.70175 0.88324 0.30179 0.0
H2344 H 0.68896 0.82695 0.3694 0.0
H2345 H 0.6489 0.84217 0.29759 0.0
C2346 C 0.62914 0.81608 0.30998 0.0
C2347 C 0.6253 0.79988 0.32811 0.0
C2348 C 0.69168 0.83926 0.35455 0.0
C2349 C 0.65977 0.82746 0.33231 0.0
C2350 C 0.70891 0.8528 0.35562 0.0
C2351 C 0.71299 0.86896 0.33664 0.0
C2352 C 0.67826 0.84177 0.33432 0.0
C2353 C 0.69923 0.87102 0.31679 0.0
C2354 C 0.64628 0.82985 0.31201 0.0
C2355 C 0.6391 0.79803 0.34851 0.0
N2356 N 0.68248 0.85757 0.31612 0.0
N2357 N 0.65572 0.81164 0.34998 0.0
H2358 H 0.18256 0.80138 0.35398 0.0
H2359 H 0.15001 0.86943 0.31576 0.0
H2360 H 0.21463 0.85046 0.28534 0.0
H2361 H 0.11322 0.81537 0.32852 0.0
H2362 H 0.17409 0.86292 0.3087 0.0
H2363 H 0.15706 0.80622 0.34946 0.0
C2364 C 0.18418 0.81322 0.33824 0.0
C2365 C 0.20076 0.82595 0.32217 0.0
C2366 C 0.16077 0.85245 0.31282 0.0
C2367 C 0.17184 0.83138 0.31572 0.0
C2368 C 0.14702 0.85615 0.31696 0.0
C2369 C 0.12964 0.84289 0.32292 0.0
C2370 C 0.15721 0.83539 0.31588 0.0
C2371 C 0.12647 0.82593 0.32385 0.0
C2372 C 0.16967 0.81592 0.33536 0.0
C2373 C 0.20219 0.84075 0.3003 0.0
N2374 N 0.14019 0.82265 0.32106 0.0
N2375 N 0.18795 0.84319 0.29831 0.0
H2376 H 0.69506 0.81582 0.88052 0.0
H2377 H 0.62823 0.85176 0.83283 0.0
H2378 H 0.71126 0.86416 0.80826 0.0
H2379 H 0.61228 0.79785 0.83765 0.0
H2380 H 0.65914 0.85838 0.84134 0.0
H2381 H 0.66473 0.81096 0.88361 0.0
C2382 C 0.6921 0.82527 0.86477 0.0
C2383 C 0.70528 0.83994 0.84174 0.0
C2384 C 0.64879 0.84513 0.84082 0.0
C2385 C 0.67109 0.83493 0.84699 0.0
C2386 C 0.63123 0.84137 0.8362 0.0
C2387 C 0.61778 0.82426 0.83424 0.0
C2388 C 0.65274 0.83167 0.84459 0.0
C2389 C 0.6223 0.81122 0.83857 0.0
C2390 C 0.67492 0.82261 0.86696 0.0
C2391 C 0.70119 0.85239 0.82466 0.0
N2392 N 0.63939 0.8152 0.84368 0.0
N2393 N 0.68434 0.84954 0.82709 0.0
H2394 H 0.20715 0.81817 0.78793 0.0
H2395 H 0.13937 0.85117 0.85864 0.0
H2396 H 0.15701 0.78654 0.85825 0.0
H2397 H 0.19072 0.88412 0.79638 0.0
H2398 H 0.14536 0.82727 0.85597 0.0
H2399 H 0.20115 0.84218 0.78835 0.0
C2400 C 0.19485 0.81625 0.80348 0.0
C2401 C 0.18255 0.80028 0.82314 0.0
C2402 C 0.15534 0.83969 0.84281 0.0
C2403 C 0.17559 0.82782 0.82362 0.0
C2404 C 0.15194 0.8534 0.84423 0.0
C2405 C 0.16459 0.86974 0.82774 0.0
C2406 C 0.17155 0.84222 0.82472 0.0
C2407 C 0.18059 0.87176 0.80947 0.0
C2408 C 0.19145 0.83001 0.80369 0.0
C2409 C 0.16686 0.7986 0.84275 0.0
N2410 N 0.18363 0.85816 0.8085 0.0
N2411 N 0.16384 0.8122 0.84246 0.0
H2412 H 0.17982 0.38599 0.78991 0.0
H2413 H 0.15431 0.29146 0.88127 0.0
H2414 H 0.21549 0.37455 0.87117 0.0
H2415 H 0.11855 0.30419 0.80559 0.0
H2416 H 0.17697 0.32165 0.87793 0.0
H2417 H 0.15733 0.35598 0.79555 0.0
C2418 C 0.18293 0.37716 0.80905 0.0
C2419 C 0.19959 0.38279 0.83005 0.0
C2420 C 0.16417 0.31783 0.86209 0.0
C2421 C 0.17381 0.34827 0.83655 0.0
C2422 C 0.15122 0.3006 0.86392 0.0
C2423 C 0.13451 0.2953 0.84361 0.0
C2424 C 0.16039 0.32985 0.83971 0.0
C2425 C 0.13125 0.30769 0.82168 0.0
C2426 C 0.17005 0.35999 0.81226 0.0
C2427 C 0.20282 0.37075 0.85446 0.0
N2428 N 0.14407 0.32437 0.82028 0.0
N2429 N 0.19005 0.35402 0.85695 0.0
H2430 H 0.81442 0.69629 0.68473 0.0
H2431 H 0.85165 0.63146 0.62992 0.0
H2432 H 0.86458 0.71222 0.61451 0.0
H2433 H 0.8023 0.61758 0.70244 0.0
H2434 H 0.85695 0.66109 0.62272 0.0
H2435 H 0.80994 0.66719 0.69037 0.0
C2436 C 0.82449 0.69366 0.67047 0.0
C2437 C 0.83988 0.7067 0.64915 0.0
C2438 C 0.84498 0.6515 0.6402 0.0
C2439 C 0.83488 0.67334 0.65547 0.0
C2440 C 0.84197 0.63463 0.6443 0.0
C2441 C 0.82653 0.62203 0.66681 0.0
C2442 C 0.83244 0.6557 0.65873 0.0
C2443 C 0.8144 0.62682 0.68479 0.0
C2444 C 0.82195 0.67702 0.6737 0.0
C2445 C 0.8525 0.70254 0.63127 0.0
N2446 N 0.81762 0.6432 0.68035 0.0
N2447 N 0.84973 0.68621 0.63482 0.0
H2448 H 0.28849 0.15034 0.62311 0.0
H2449 H 0.38903 0.18357 0.69728 0.0
H2450 H 0.30673 0.11804 0.69042 0.0
H2451 H 0.37065 0.21582 0.63042 0.0
H2452 H 0.35912 0.15951 0.69476 0.0
H2453 H 0.31841 0.17434 0.62553 0.0
C2454 C 0.2988 0.14827 0.63851 0.0
C2455 C 0.29506 0.1321 0.65662 0.0
C2456 C 0.36159 0.17182 0.68059 0.0
C2457 C 0.32953 0.1597 0.6594 0.0
C2458 C 0.3787 0.18561 0.68196 0.0
C2459 C 0.38239 0.20179 0.66402 0.0
C2460 C 0.34795 0.17414 0.66113 0.0
C2461 C 0.36843 0.2036 0.64464 0.0
C2462 C 0.31592 0.16203 0.63982 0.0
C2463 C 0.309 0.13026 0.67607 0.0
N2464 N 0.35182 0.18994 0.64375 0.0
N2465 N 0.32562 0.1439 0.67692 0.0
H2466 H 0.85053 0.13977 0.69498 0.0
H2467 H 0.78064 0.15464 0.64051 0.0
H2468 H 0.88188 0.18662 0.6149 0.0
H2469 H 0.81989 0.20737 0.66467 0.0
H2470 H 0.80416 0.14698 0.63684 0.0
H2471 H 0.82529 0.1449 0.69019 0.0
C2472 C 0.85204 0.15117 0.67655 0.0
C2473 C 0.86837 0.16322 0.65719 0.0
C2474 C 0.80756 0.16021 0.64307 0.0
C2475 C 0.83964 0.16887 0.65011 0.0
C2476 C 0.7942 0.1646 0.64478 0.0
C2477 C 0.79835 0.18163 0.65338 0.0
C2478 C 0.82515 0.17298 0.64933 0.0
C2479 C 0.81614 0.19406 0.65851 0.0
C2480 C 0.83765 0.154 0.67338 0.0
C2481 C 0.86965 0.1775 0.63224 0.0
N2482 N 0.82893 0.1895 0.65618 0.0
N2483 N 0.8555 0.18014 0.63015 0.0
H2484 H 0.03387 0.48382 0.54489 0.0
H2485 H 0.96659 0.51934 0.5007 0.0
H2486 H 0.04963 0.53195 0.47181 0.0
H2487 H 0.9508 0.46546 0.50228 0.0
H2488 H 0.99755 0.526 0.50775 0.0
H2489 H 0.00345 0.47873 0.54802 0.0
C2490 C 0.0308 0.49317 0.52891 0.0
C2491 C 0.04388 0.50785 0.50569 0.0
C2492 C 0.98723 0.51274 0.50683 0.0
C2493 C 0.0096 0.50261 0.51116 0.0
C2494 C 0.96963 0.50896 0.50305 0.0
C2495 C 0.95621 0.49185 0.50063 0.0
C2496 C 0.99123 0.4993 0.50934 0.0
C2497 C 0.96079 0.47883 0.50362 0.0
C2498 C 0.01357 0.49038 0.53115 0.0
C2499 C 0.03963 0.52017 0.48837 0.0
N2500 N 0.97791 0.48282 0.50798 0.0
N2501 N 0.02275 0.51721 0.49098 0.0
H2502 H 0.46942 0.5179 0.54067 0.0
H2503 H 0.53589 0.48438 0.45951 0.0
H2504 H 0.51857 0.54935 0.46541 0.0
H2505 H 0.48702 0.45281 0.53585 0.0
H2506 H 0.5296 0.50814 0.461 0.0
H2507 H 0.47545 0.49393 0.53867 0.0
C2508 C 0.4815 0.51978 0.52362 0.0
C2509 C 0.49353 0.53571 0.50316 0.0
C2510 C 0.52023 0.49604 0.47746 0.0
C2511 C 0.50052 0.50819 0.50085 0.0
C2512 C 0.5238 0.48242 0.47666 0.0
C2513 C 0.51195 0.46653 0.49763 0.0
C2514 C 0.50466 0.49385 0.4994 0.0
C2515 C 0.49652 0.46482 0.51927 0.0
C2516 C 0.48493 0.50605 0.52254 0.0
C2517 C 0.50893 0.53733 0.48162 0.0
N2518 N 0.49332 0.47832 0.51959 0.0
N2519 N 0.51198 0.52375 0.48106 0.0
H2520 H 0.51642 0.04768 0.46563 0.0
H2521 H 0.48834 0.95189 0.54938 0.0
H2522 H 0.55373 0.03396 0.52668 0.0
H2523 H 0.45344 0.96765 0.48274 0.0
H2524 H 0.51241 0.98157 0.5442 0.0
H2525 H 0.49328 0.01831 0.47477 0.0
C2526 C 0.51979 0.03846 0.48105 0.0
C2527 C 0.53712 0.04332 0.49525 0.0
C2528 C 0.49947 0.9785 0.53079 0.0
C2529 C 0.51038 0.00931 0.50582 0.0
C2530 C 0.48573 0.96158 0.53373 0.0
C2531 C 0.46885 0.95729 0.51638 0.0
C2532 C 0.49627 0.99118 0.51044 0.0
C2533 C 0.46621 0.97034 0.4965 0.0
C2534 C 0.50649 0.0216 0.48626 0.0
C2535 C 0.54056 0.03075 0.5152 0.0
N2536 N 0.47976 0.98665 0.49409 0.0
N2537 N 0.52728 0.01424 0.51982 0.0
H2538 H 0.47753 0.02982 0.01431 0.0
H2539 H 0.50929 0.96146 0.95002 0.0
H2540 H 0.52662 0.0433 0.94096 0.0
H2541 H 0.46198 0.94947 0.03113 0.0
H2542 H 0.51551 0.9913 0.94319 0.0
H2543 H 0.4712 1.00002 0.01796 0.0
C2544 C 0.48697 0.02651 -0.00104 0.0
C2545 C 0.50263 0.03907 0.97741 0.0
C2546 C 0.50376 0.9821 0.96242 0.0
C2547 C 0.49549 0.00495 0.98136 0.0
C2548 C 0.5002 0.96508 0.96625 0.0
C2549 C 0.48513 0.95297 0.99127 0.0
C2550 C 0.49212 0.98699 0.98367 0.0
C2551 C 0.4738 0.95836 0.01161 0.0
C2552 C 0.48337 0.00948 0.00104 0.0
C2553 C 0.51439 0.03403 0.95803 0.0
N2554 N 0.47753 0.97494 0.00739 0.0
N2555 N 0.51059 0.01737 0.96047 0.0
H2556 H 0.97502 0.44956 0.02552 0.0
H2557 H 0.03774 0.54959 0.96501 0.0
H2558 H 0.95686 0.482 0.95859 0.0
H2559 H 0.05621 0.51728 0.031 0.0
H2560 H 0.0079 0.52493 0.96269 0.0
H2561 H 0.0049 0.47423 0.02851 0.0
C2562 C 0.9773 0.46184 0.01154 0.0
C2563 C 0.96341 0.46369 0.99178 0.0
C2564 C 0.0185 0.52325 0.97768 0.0
C2565 C 0.9975 0.49195 0.99498 0.0
C2566 C 0.03553 0.53734 0.97896 0.0
C2567 C 0.0495 0.53552 -0.00181 0.0
C2568 C 0.01542 0.50723 0.99576 0.0
C2569 C 0.04586 0.51931 0.01581 0.0
C2570 C 0.99435 0.47593 0.0132 0.0
C2571 C 0.96714 0.47993 0.97415 0.0
N2572 N 0.02922 0.50583 0.01418 0.0
N2573 N 0.98377 0.49338 0.97615 0.0
H2574 H 0.54643 0.51807 0.94943 0.0
H2575 H 0.44335 0.48311 0.98922 0.0
H2576 H 0.51277 0.46918 0.01709 0.0
H2577 H 0.48198 0.53685 0.98701 0.0
H2578 H 0.46736 0.47609 0.98172 0.0
H2579 H 0.5213 0.52338 0.94424 0.0
C2580 C 0.53374 0.50858 0.96372 0.0
C2581 C 0.53171 0.49362 0.9861 0.0
C2582 C 0.47048 0.4894 0.98254 0.0
C2583 C 0.50293 0.49917 0.97849 0.0
C2584 C 0.45684 0.49339 0.98659 0.0
C2585 C 0.46075 0.51056 0.98904 0.0
C2586 C 0.48801 0.5027 0.97989 0.0
C2587 C 0.47842 0.52344 0.98568 0.0
C2588 C 0.51942 0.51151 0.96033 0.0
C2589 C 0.51486 0.48117 0.00126 0.0
N2590 N 0.49139 0.51925 0.98117 0.0
N2591 N 0.50107 0.48429 -0.00226 0.0
loop_
_geom_bond_atom_site_label_1
_geom_bond_atom_site_label_2
_geom_bond_distance
_geom_bond_site_symmetry_2
_ccdc_geom_bond_type
Mn0 O5 2.095 . S
Mn0 O15 2.162 . S
Mn0 O16 2.297 . S
Mn0 O24 2.385 . S
Mn0 O25 2.209 . S
Mn0 O26 2.094 . S
Mn1 O6 2.121 . S
Mn1 N8 2.257 . S
Mn1 N17 2.282 . S
Mn1 O25 2.215 . S
Mn1 O27 2.117 . S
C2 O24 1.234 . S
C2 O25 1.283 . S
C3 O15 1.281 . S
C3 O16 1.236 . S
C4 O26 1.240 . S
C4 O27 1.264 . S
O5 Mn0 2.095 . S
O5 C14 1.250 . S
O6 Mn1 2.121 . S
O6 C14 1.258 . S
C7 N8 1.326 . S
C7 C11 1.460 . S
C7 H13 0.929 . S
N8 Mn1 2.257 . S
N8 C7 1.326 . S
N8 C12 1.362 . S
C9 C10 1.258 . S
C9 C12 1.431 . S
C9 C29 1.449 . S
C10 C9 1.258 . S
C10 C11 1.477 . S
C10 H30 0.931 . S
C11 C7 1.460 . S
C11 C10 1.477 . S
C11 H31 0.930 . S
C12 N8 1.362 . S
C12 C9 1.431 . S
C12 C22 1.476 . S
H13 C7 0.929 . S
C14 O5 1.250 . S
C14 O6 1.258 . S
O15 Mn0 2.162 . S
O15 C3 1.281 . S
O16 Mn0 2.297 . S
O16 C3 1.236 . S
N17 Mn1 2.282 . S
N17 C18 1.328 . S
N17 C22 1.318 . S
C18 N17 1.328 . S
C18 C19 1.457 . S
C18 H23 0.929 . S
C19 C18 1.457 . S
C19 C20 1.291 . S
C19 H32 0.931 . S
C20 C19 1.291 . S
C20 C21 1.373 . S
C20 H33 0.929 . S
C21 C20 1.373 . S
C21 C22 1.396 . S
C21 C28 1.403 . S
C22 C12 1.476 . S
C22 N17 1.318 . S
C22 C21 1.396 . S
H23 C18 0.929 . S
O24 Mn0 2.385 . S
O24 C2 1.234 . S
O25 Mn0 2.209 . S
O25 Mn1 2.215 . S
O25 C2 1.283 . S
O26 Mn0 2.094 . S
O26 C4 1.240 . S
O27 Mn1 2.117 . S
O27 C4 1.264 . S
C28 C21 1.403 . S
C28 C29 1.399 . S
C28 H34 0.929 . S
C29 C9 1.449 . S
C29 C28 1.399 . S
C29 H35 0.930 . S
H30 C10 0.931 . S
H31 C11 0.930 . S
H32 C19 0.931 . S
H33 C20 0.929 . S
H34 C28 0.929 . S
H35 C29 0.930 . S
Mn36 O41 2.095 . S
Mn36 O51 2.162 . S
Mn36 O52 2.297 . S
Mn36 O60 2.385 . S
Mn36 O61 2.209 . S
Mn36 O62 2.094 . S
Mn37 O42 2.121 . S
Mn37 N44 2.257 . S
Mn37 N53 2.282 . S
Mn37 O61 2.215 . S
Mn37 O63 2.117 . S
C38 O60 1.234 . S
C38 O61 1.283 . S
C39 O51 1.281 . S
C39 O52 1.236 . S
C40 O62 1.240 . S
C40 O63 1.264 . S
O41 Mn36 2.095 . S
O41 C50 1.250 . S
O42 Mn37 2.121 . S
O42 C50 1.258 . S
C43 N44 1.326 . S
C43 C47 1.460 . S
C43 H49 0.929 . S
N44 Mn37 2.257 . S
N44 C43 1.326 . S
N44 C48 1.362 . S
C45 C46 1.258 . S
C45 C48 1.431 . S
C45 C65 1.449 . S
C46 C45 1.258 . S
C46 C47 1.477 . S
C46 H66 0.931 . S
C47 C43 1.460 . S
C47 C46 1.477 . S
C47 H67 0.930 . S
C48 N44 1.362 . S
C48 C45 1.431 . S
C48 C58 1.476 . S
H49 C43 0.929 . S
C50 O41 1.250 . S
C50 O42 1.258 . S
O51 Mn36 2.162 . S
O51 C39 1.281 . S
O52 Mn36 2.297 . S
O52 C39 1.236 . S
N53 Mn37 2.282 . S
N53 C54 1.328 . S
N53 C58 1.318 . S
C54 N53 1.328 . S
C54 C55 1.457 . S
C54 H59 0.929 . S
C55 C54 1.457 . S
C55 C56 1.291 . S
C55 H68 0.931 . S
C56 C55 1.291 . S
C56 C57 1.373 . S
C56 H69 0.929 . S
C57 C56 1.373 . S
C57 C58 1.396 . S
C57 C64 1.403 . S
C58 C48 1.476 . S
C58 N53 1.318 . S
C58 C57 1.396 . S
H59 C54 0.929 . S
O60 Mn36 2.385 . S
O60 C38 1.234 . S
O61 Mn36 2.209 . S
O61 Mn37 2.215 . S
O61 C38 1.283 . S
O62 Mn36 2.094 . S
O62 C40 1.240 . S
O63 Mn37 2.117 . S
O63 C40 1.264 . S
C64 C57 1.403 . S
C64 C65 1.399 . S
C64 H70 0.929 . S
C65 C45 1.449 . S
C65 C64 1.399 . S
C65 H71 0.930 . S
H66 C46 0.931 . S
H67 C47 0.930 . S
H68 C55 0.931 . S
H69 C56 0.929 . S
H70 C64 0.929 . S
H71 C65 0.930 . S
Mn72 O77 2.095 . S
Mn72 O87 2.162 . S
Mn72 O88 2.297 . S
Mn72 O96 2.385 . S
Mn72 O97 2.209 . S
Mn72 O98 2.094 . S
Mn73 O78 2.121 . S
Mn73 N80 2.257 . S
Mn73 N89 2.282 . S
Mn73 O97 2.215 . S
Mn73 O99 2.117 . S
C74 O96 1.234 . S
C74 O97 1.283 . S
C75 O87 1.281 . S
C75 O88 1.236 . S
C76 O98 1.240 . S
C76 O99 1.264 . S
O77 Mn72 2.095 . S
O77 C86 1.250 . S
O78 Mn73 2.121 . S
O78 C86 1.258 . S
C79 N80 1.326 . S
C79 C83 1.460 . S
C79 H85 0.929 . S
N80 Mn73 2.257 . S
N80 C79 1.326 . S
N80 C84 1.362 . S
C81 C82 1.258 . S
C81 C84 1.431 . S
C81 C101 1.449 . S
C82 C81 1.258 . S
C82 C83 1.477 . S
C82 H102 0.931 . S
C83 C79 1.460 . S
C83 C82 1.477 . S
C83 H103 0.930 . S
C84 N80 1.362 . S
C84 C81 1.431 . S
C84 C94 1.476 . S
H85 C79 0.929 . S
C86 O77 1.250 . S
C86 O78 1.258 . S
O87 Mn72 2.162 . S
O87 C75 1.281 . S
O88 Mn72 2.297 . S
O88 C75 1.236 . S
N89 Mn73 2.282 . S
N89 C90 1.328 . S
N89 C94 1.318 . S
C90 N89 1.328 . S
C90 C91 1.457 . S
C90 H95 0.929 . S
C91 C90 1.457 . S
C91 C92 1.291 . S
C91 H104 0.931 . S
C92 C91 1.291 . S
C92 C93 1.373 . S
C92 H105 0.929 . S
C93 C92 1.373 . S
C93 C94 1.396 . S
C93 C100 1.403 . S
C94 C84 1.476 . S
C94 N89 1.318 . S
C94 C93 1.396 . S
H95 C90 0.929 . S
O96 Mn72 2.385 . S
O96 C74 1.234 . S
O97 Mn72 2.209 . S
O97 Mn73 2.215 . S
O97 C74 1.283 . S
O98 Mn72 2.094 . S
O98 C76 1.240 . S
O99 Mn73 2.117 . S
O99 C76 1.264 . S
C100 C93 1.403 . S
C100 C101 1.399 . S
C100 H106 0.929 . S
C101 C81 1.449 . S
C101 C100 1.399 . S
C101 H107 0.930 . S
H102 C82 0.931 . S
H103 C83 0.930 . S
H104 C91 0.931 . S
H105 C92 0.929 . S
H106 C100 0.929 . S
H107 C101 0.930 . S
Mn108 O113 2.095 . S
Mn108 O123 2.162 . S
Mn108 O124 2.297 . S
Mn108 O132 2.385 . S
Mn108 O133 2.209 . S
Mn108 O134 2.094 . S
Mn109 O114 2.121 . S
Mn109 N116 2.257 . S
Mn109 N125 2.282 . S
Mn109 O133 2.215 . S
Mn109 O135 2.117 . S
C110 O132 1.234 . S
C110 O133 1.283 . S
C111 O123 1.281 . S
C111 O124 1.236 . S
C112 O134 1.240 . S
C112 O135 1.264 . S
O113 Mn108 2.095 . S
O113 C122 1.250 . S
O114 Mn109 2.121 . S
O114 C122 1.258 . S
C115 N116 1.326 . S
C115 C119 1.460 . S
C115 H121 0.929 . S
N116 Mn109 2.257 . S
N116 C115 1.326 . S
N116 C120 1.362 . S
C117 C118 1.258 . S
C117 C120 1.431 . S
C117 C137 1.449 . S
C118 C117 1.258 . S
C118 C119 1.477 . S
C118 H138 0.931 . S
C119 C115 1.460 . S
C119 C118 1.477 . S
C119 H139 0.930 . S
C120 N116 1.362 . S
C120 C117 1.431 . S
C120 C130 1.476 . S
H121 C115 0.929 . S
C122 O113 1.250 . S
C122 O114 1.258 . S
O123 Mn108 2.162 . S
O123 C111 1.281 . S
O124 Mn108 2.297 . S
O124 C111 1.236 . S
N125 Mn109 2.282 . S
N125 C126 1.328 . S
N125 C130 1.318 . S
C126 N125 1.328 . S
C126 C127 1.457 . S
C126 H131 0.929 . S
C127 C126 1.457 . S
C127 C128 1.291 . S
C127 H140 0.931 . S
C128 C127 1.291 . S
C128 C129 1.373 . S
C128 H141 0.929 . S
C129 C128 1.373 . S
C129 C130 1.396 . S
C129 C136 1.403 . S
C130 C120 1.476 . S
C130 N125 1.318 . S
C130 C129 1.396 . S
H131 C126 0.929 . S
O132 Mn108 2.385 . S
O132 C110 1.234 . S
O133 Mn108 2.209 . S
O133 Mn109 2.215 . S
O133 C110 1.283 . S
O134 Mn108 2.094 . S
O134 C112 1.240 . S
O135 Mn109 2.117 . S
O135 C112 1.264 . S
C136 C129 1.403 . S
C136 C137 1.399 . S
C136 H142 0.929 . S
C137 C117 1.449 . S
C137 C136 1.399 . S
C137 H143 0.930 . S
H138 C118 0.931 . S
H139 C119 0.930 . S
H140 C127 0.931 . S
H141 C128 0.929 . S
H142 C136 0.929 . S
H143 C137 0.930 . S
Mn144 O149 2.095 . S
Mn144 O159 2.162 . S
Mn144 O160 2.297 . S
Mn144 O168 2.385 . S
Mn144 O169 2.209 . S
Mn144 O170 2.094 . S
Mn145 O150 2.121 . S
Mn145 N152 2.257 . S
Mn145 N161 2.282 . S
Mn145 O169 2.215 . S
Mn145 O171 2.117 . S
C146 O168 1.234 . S
C146 O169 1.283 . S
C147 O159 1.281 . S
C147 O160 1.236 . S
C148 O170 1.240 . S
C148 O171 1.264 . S
O149 Mn144 2.095 . S
O149 C158 1.250 . S
O150 Mn145 2.121 . S
O150 C158 1.258 . S
C151 N152 1.326 . S
C151 C155 1.460 . S
C151 H157 0.929 . S
N152 Mn145 2.257 . S
N152 C151 1.326 . S
N152 C156 1.362 . S
C153 C154 1.258 . S
C153 C156 1.431 . S
C153 C173 1.449 . S
C154 C153 1.258 . S
C154 C155 1.477 . S
C154 H174 0.931 . S
C155 C151 1.460 . S
C155 C154 1.477 . S
C155 H175 0.930 . S
C156 N152 1.362 . S
C156 C153 1.431 . S
C156 C166 1.476 . S
H157 C151 0.929 . S
C158 O149 1.250 . S
C158 O150 1.258 . S
O159 Mn144 2.162 . S
O159 C147 1.281 . S
O160 Mn144 2.297 . S
O160 C147 1.236 . S
N161 Mn145 2.282 . S
N161 C162 1.328 . S
N161 C166 1.318 . S
C162 N161 1.328 . S
C162 C163 1.457 . S
C162 H167 0.929 . S
C163 C162 1.457 . S
C163 C164 1.291 . S
C163 H176 0.931 . S
C164 C163 1.291 . S
C164 C165 1.373 . S
C164 H177 0.929 . S
C165 C164 1.373 . S
C165 C166 1.396 . S
C165 C172 1.403 . S
C166 C156 1.476 . S
C166 N161 1.318 . S
C166 C165 1.396 . S
H167 C162 0.929 . S
O168 Mn144 2.385 . S
O168 C146 1.234 . S
O169 Mn144 2.209 . S
O169 Mn145 2.215 . S
O169 C146 1.283 . S
O170 Mn144 2.094 . S
O170 C148 1.240 . S
O171 Mn145 2.117 . S
O171 C148 1.264 . S
C172 C165 1.403 . S
C172 C173 1.399 . S
C172 H178 0.929 . S
C173 C153 1.449 . S
C173 C172 1.399 . S
C173 H179 0.930 . S
H174 C154 0.931 . S
H175 C155 0.930 . S
H176 C163 0.931 . S
H177 C164 0.929 . S
H178 C172 0.929 . S
H179 C173 0.930 . S
Mn180 O185 2.095 . S
Mn180 O195 2.162 . S
Mn180 O196 2.297 . S
Mn180 O204 2.385 . S
Mn180 O205 2.209 . S
Mn180 O206 2.094 . S
Mn181 O186 2.121 . S
Mn181 N188 2.257 . S
Mn181 N197 2.282 . S
Mn181 O205 2.215 . S
Mn181 O207 2.117 . S
C182 O204 1.234 . S
C182 O205 1.283 . S
C183 O195 1.281 . S
C183 O196 1.236 . S
C184 O206 1.240 . S
C184 O207 1.264 . S
O185 Mn180 2.095 . S
O185 C194 1.250 . S
O186 Mn181 2.121 . S
O186 C194 1.258 . S
C187 N188 1.326 . S
C187 C191 1.460 . S
C187 H193 0.929 . S
N188 Mn181 2.257 . S
N188 C187 1.326 . S
N188 C192 1.362 . S
C189 C190 1.258 . S
C189 C192 1.431 . S
C189 C209 1.449 . S
C190 C189 1.258 . S
C190 C191 1.477 . S
C190 H210 0.931 . S
C191 C187 1.460 . S
C191 C190 1.477 . S
C191 H211 0.930 . S
C192 N188 1.362 . S
C192 C189 1.431 . S
C192 C202 1.476 . S
H193 C187 0.929 . S
C194 O185 1.250 . S
C194 O186 1.258 . S
O195 Mn180 2.162 . S
O195 C183 1.281 . S
O196 Mn180 2.297 . S
O196 C183 1.236 . S
N197 Mn181 2.282 . S
N197 C198 1.328 . S
N197 C202 1.318 . S
C198 N197 1.328 . S
C198 C199 1.457 . S
C198 H203 0.929 . S
C199 C198 1.457 . S
C199 C200 1.291 . S
C199 H212 0.931 . S
C200 C199 1.291 . S
C200 C201 1.373 . S
C200 H213 0.929 . S
C201 C200 1.373 . S
C201 C202 1.396 . S
C201 C208 1.403 . S
C202 C192 1.476 . S
C202 N197 1.318 . S
C202 C201 1.396 . S
H203 C198 0.929 . S
O204 Mn180 2.385 . S
O204 C182 1.234 . S
O205 Mn180 2.209 . S
O205 Mn181 2.215 . S
O205 C182 1.283 . S
O206 Mn180 2.094 . S
O206 C184 1.240 . S
O207 Mn181 2.117 . S
O207 C184 1.264 . S
C208 C201 1.403 . S
C208 C209 1.399 . S
C208 H214 0.929 . S
C209 C189 1.449 . S
C209 C208 1.399 . S
C209 H215 0.930 . S
H210 C190 0.931 . S
H211 C191 0.930 . S
H212 C199 0.931 . S
H213 C200 0.929 . S
H214 C208 0.929 . S
H215 C209 0.930 . S
Mn216 O221 2.095 . S
Mn216 O231 2.162 . S
Mn216 O232 2.297 . S
Mn216 O240 2.385 . S
Mn216 O241 2.209 . S
Mn216 O242 2.094 . S
Mn217 O222 2.121 . S
Mn217 N224 2.257 . S
Mn217 N233 2.282 . S
Mn217 O241 2.215 . S
Mn217 O243 2.117 . S
C218 O240 1.234 . S
C218 O241 1.283 . S
C219 O231 1.281 . S
C219 O232 1.236 . S
C220 O242 1.240 . S
C220 O243 1.264 . S
O221 Mn216 2.095 . S
O221 C230 1.250 . S
O222 Mn217 2.121 . S
O222 C230 1.258 . S
C223 N224 1.326 . S
C223 C227 1.460 . S
C223 H229 0.929 . S
N224 Mn217 2.257 . S
N224 C223 1.326 . S
N224 C228 1.362 . S
C225 C226 1.258 . S
C225 C228 1.431 . S
C225 C245 1.449 . S
C226 C225 1.258 . S
C226 C227 1.477 . S
C226 H246 0.931 . S
C227 C223 1.460 . S
C227 C226 1.477 . S
C227 H247 0.930 . S
C228 N224 1.362 . S
C228 C225 1.431 . S
C228 C238 1.476 . S
H229 C223 0.929 . S
C230 O221 1.250 . S
C230 O222 1.258 . S
O231 Mn216 2.162 . S
O231 C219 1.281 . S
O232 Mn216 2.297 . S
O232 C219 1.236 . S
N233 Mn217 2.282 . S
N233 C234 1.328 . S
N233 C238 1.318 . S
C234 N233 1.328 . S
C234 C235 1.457 . S
C234 H239 0.929 . S
C235 C234 1.457 . S
C235 C236 1.291 . S
C235 H248 0.931 . S
C236 C235 1.291 . S
C236 C237 1.373 . S
C236 H249 0.929 . S
C237 C236 1.373 . S
C237 C238 1.396 . S
C237 C244 1.403 . S
C238 C228 1.476 . S
C238 N233 1.318 . S
C238 C237 1.396 . S
H239 C234 0.929 . S
O240 Mn216 2.385 . S
O240 C218 1.234 . S
O241 Mn216 2.209 . S
O241 Mn217 2.215 . S
O241 C218 1.283 . S
O242 Mn216 2.094 . S
O242 C220 1.240 . S
O243 Mn217 2.117 . S
O243 C220 1.264 . S
C244 C237 1.403 . S
C244 C245 1.399 . S
C244 H250 0.929 . S
C245 C225 1.449 . S
C245 C244 1.399 . S
C245 H251 0.930 . S
H246 C226 0.931 . S
H247 C227 0.930 . S
H248 C235 0.931 . S
H249 C236 0.929 . S
H250 C244 0.929 . S
H251 C245 0.930 . S
Mn252 O257 2.095 . S
Mn252 O267 2.162 . S
Mn252 O268 2.297 . S
Mn252 O276 2.385 . S
Mn252 O277 2.209 . S
Mn252 O278 2.094 . S
Mn253 O258 2.121 . S
Mn253 N260 2.257 . S
Mn253 N269 2.282 . S
Mn253 O277 2.215 . S
Mn253 O279 2.117 . S
C254 O276 1.234 . S
C254 O277 1.283 . S
C255 O267 1.281 . S
C255 O268 1.236 . S
C256 O278 1.240 . S
C256 O279 1.264 . S
O257 Mn252 2.095 . S
O257 C266 1.250 . S
O258 Mn253 2.121 . S
O258 C266 1.258 . S
C259 N260 1.326 . S
C259 C263 1.460 . S
C259 H265 0.929 . S
N260 Mn253 2.257 . S
N260 C259 1.326 . S
N260 C264 1.362 . S
C261 C262 1.258 . S
C261 C264 1.431 . S
C261 C281 1.449 . S
C262 C261 1.258 . S
C262 C263 1.477 . S
C262 H282 0.931 . S
C263 C259 1.460 . S
C263 C262 1.477 . S
C263 H283 0.930 . S
C264 N260 1.362 . S
C264 C261 1.431 . S
C264 C274 1.476 . S
H265 C259 0.929 . S
C266 O257 1.250 . S
C266 O258 1.258 . S
O267 Mn252 2.162 . S
O267 C255 1.281 . S
O268 Mn252 2.297 . S
O268 C255 1.236 . S
N269 Mn253 2.282 . S
N269 C270 1.328 . S
N269 C274 1.318 . S
C270 N269 1.328 . S
C270 C271 1.457 . S
C270 H275 0.929 . S
C271 C270 1.457 . S
C271 C272 1.291 . S
C271 H284 0.931 . S
C272 C271 1.291 . S
C272 C273 1.373 . S
C272 H285 0.929 . S
C273 C272 1.373 . S
C273 C274 1.396 . S
C273 C280 1.403 . S
C274 C264 1.476 . S
C274 N269 1.318 . S
C274 C273 1.396 . S
H275 C270 0.929 . S
O276 Mn252 2.385 . S
O276 C254 1.234 . S
O277 Mn252 2.209 . S
O277 Mn253 2.215 . S
O277 C254 1.283 . S
O278 Mn252 2.094 . S
O278 C256 1.240 . S
O279 Mn253 2.117 . S
O279 C256 1.264 . S
C280 C273 1.403 . S
C280 C281 1.399 . S
C280 H286 0.929 . S
C281 C261 1.449 . S
C281 C280 1.399 . S
C281 H287 0.930 . S
H282 C262 0.931 . S
H283 C263 0.930 . S
H284 C271 0.931 . S
H285 C272 0.929 . S
H286 C280 0.929 . S
H287 C281 0.930 . S
Mn288 O293 2.095 . S
Mn288 O303 2.162 . S
Mn288 O304 2.297 . S
Mn288 O312 2.385 . S
Mn288 O313 2.209 . S
Mn288 O314 2.094 . S
Mn289 O294 2.121 . S
Mn289 N296 2.257 . S
Mn289 N305 2.282 . S
Mn289 O313 2.215 . S
Mn289 O315 2.117 . S
C290 O312 1.234 . S
C290 O313 1.283 . S
C291 O303 1.281 . S
C291 O304 1.236 . S
C292 O314 1.240 . S
C292 O315 1.264 . S
O293 Mn288 2.095 . S
O293 C302 1.250 . S
O294 Mn289 2.121 . S
O294 C302 1.258 . S
C295 N296 1.326 . S
C295 C299 1.460 . S
C295 H301 0.929 . S
N296 Mn289 2.257 . S
N296 C295 1.326 . S
N296 C300 1.362 . S
C297 C298 1.258 . S
C297 C300 1.431 . S
C297 C317 1.449 . S
C298 C297 1.258 . S
C298 C299 1.477 . S
C298 H318 0.931 . S
C299 C295 1.460 . S
C299 C298 1.477 . S
C299 H319 0.930 . S
C300 N296 1.362 . S
C300 C297 1.431 . S
C300 C310 1.476 . S
H301 C295 0.929 . S
C302 O293 1.250 . S
C302 O294 1.258 . S
O303 Mn288 2.162 . S
O303 C291 1.281 . S
O304 Mn288 2.297 . S
O304 C291 1.236 . S
N305 Mn289 2.282 . S
N305 C306 1.328 . S
N305 C310 1.318 . S
C306 N305 1.328 . S
C306 C307 1.457 . S
C306 H311 0.929 . S
C307 C306 1.457 . S
C307 C308 1.291 . S
C307 H320 0.931 . S
C308 C307 1.291 . S
C308 C309 1.373 . S
C308 H321 0.929 . S
C309 C308 1.373 . S
C309 C310 1.396 . S
C309 C316 1.403 . S
C310 C300 1.476 . S
C310 N305 1.318 . S
C310 C309 1.396 . S
H311 C306 0.929 . S
O312 Mn288 2.385 . S
O312 C290 1.234 . S
O313 Mn288 2.209 . S
O313 Mn289 2.215 . S
O313 C290 1.283 . S
O314 Mn288 2.094 . S
O314 C292 1.240 . S
O315 Mn289 2.117 . S
O315 C292 1.264 . S
C316 C309 1.403 . S
C316 C317 1.399 . S
C316 H322 0.929 . S
C317 C297 1.449 . S
C317 C316 1.399 . S
C317 H323 0.930 . S
H318 C298 0.931 . S
H319 C299 0.930 . S
H320 C307 0.931 . S
H321 C308 0.929 . S
H322 C316 0.929 . S
H323 C317 0.930 . S
Mn324 O329 2.095 . S
Mn324 O339 2.162 . S
Mn324 O340 2.297 . S
Mn324 O348 2.385 . S
Mn324 O349 2.209 . S
Mn324 O350 2.094 . S
Mn325 O330 2.121 . S
Mn325 N332 2.257 . S
Mn325 N341 2.282 . S
Mn325 O349 2.215 . S
Mn325 O351 2.117 . S
C326 O348 1.234 . S
C326 O349 1.283 . S
C327 O339 1.281 . S
C327 O340 1.236 . S
C328 O350 1.240 . S
C328 O351 1.264 . S
O329 Mn324 2.095 . S
O329 C338 1.250 . S
O330 Mn325 2.121 . S
O330 C338 1.258 . S
C331 N332 1.326 . S
C331 C335 1.460 . S
C331 H337 0.929 . S
N332 Mn325 2.257 . S
N332 C331 1.326 . S
N332 C336 1.362 . S
C333 C334 1.258 . S
C333 C336 1.431 . S
C333 C353 1.449 . S
C334 C333 1.258 . S
C334 C335 1.477 . S
C334 H354 0.931 . S
C335 C331 1.460 . S
C335 C334 1.477 . S
C335 H355 0.930 . S
C336 N332 1.362 . S
C336 C333 1.431 . S
C336 C346 1.476 . S
H337 C331 0.929 . S
C338 O329 1.250 . S
C338 O330 1.258 . S
O339 Mn324 2.162 . S
O339 C327 1.281 . S
O340 Mn324 2.297 . S
O340 C327 1.236 . S
N341 Mn325 2.282 . S
N341 C342 1.328 . S
N341 C346 1.318 . S
C342 N341 1.328 . S
C342 C343 1.457 . S
C342 H347 0.929 . S
C343 C342 1.457 . S
C343 C344 1.291 . S
C343 H356 0.931 . S
C344 C343 1.291 . S
C344 C345 1.373 . S
C344 H357 0.929 . S
C345 C344 1.373 . S
C345 C346 1.396 . S
C345 C352 1.403 . S
C346 C336 1.476 . S
C346 N341 1.318 . S
C346 C345 1.396 . S
H347 C342 0.929 . S
O348 Mn324 2.385 . S
O348 C326 1.234 . S
O349 Mn324 2.209 . S
O349 Mn325 2.215 . S
O349 C326 1.283 . S
O350 Mn324 2.094 . S
O350 C328 1.240 . S
O351 Mn325 2.117 . S
O351 C328 1.264 . S
C352 C345 1.403 . S
C352 C353 1.399 . S
C352 H358 0.929 . S
C353 C333 1.449 . S
C353 C352 1.399 . S
C353 H359 0.930 . S
H354 C334 0.931 . S
H355 C335 0.930 . S
H356 C343 0.931 . S
H357 C344 0.929 . S
H358 C352 0.929 . S
H359 C353 0.930 . S
Mn360 O365 2.095 . S
Mn360 O375 2.162 . S
Mn360 O376 2.297 . S
Mn360 O384 2.385 . S
Mn360 O385 2.209 . S
Mn360 O386 2.094 . S
Mn361 O366 2.121 . S
Mn361 N368 2.257 . S
Mn361 N377 2.282 . S
Mn361 O385 2.215 . S
Mn361 O387 2.117 . S
C362 O384 1.234 . S
C362 O385 1.283 . S
C363 O375 1.281 . S
C363 O376 1.236 . S
C364 O386 1.240 . S
C364 O387 1.264 . S
O365 Mn360 2.095 . S
O365 C374 1.250 . S
O366 Mn361 2.121 . S
O366 C374 1.258 . S
C367 N368 1.326 . S
C367 C371 1.460 . S
C367 H373 0.929 . S
N368 Mn361 2.257 . S
N368 C367 1.326 . S
N368 C372 1.362 . S
C369 C370 1.258 . S
C369 C372 1.431 . S
C369 C389 1.449 . S
C370 C369 1.258 . S
C370 C371 1.477 . S
C370 H390 0.931 . S
C371 C367 1.460 . S
C371 C370 1.477 . S
C371 H391 0.930 . S
C372 N368 1.362 . S
C372 C369 1.431 . S
C372 C382 1.476 . S
H373 C367 0.929 . S
C374 O365 1.250 . S
C374 O366 1.258 . S
O375 Mn360 2.162 . S
O375 C363 1.281 . S
O376 Mn360 2.297 . S
O376 C363 1.236 . S
N377 Mn361 2.282 . S
N377 C378 1.328 . S
N377 C382 1.318 . S
C378 N377 1.328 . S
C378 C379 1.457 . S
C378 H383 0.929 . S
C379 C378 1.457 . S
C379 C380 1.291 . S
C379 H392 0.931 . S
C380 C379 1.291 . S
C380 C381 1.373 . S
C380 H393 0.929 . S
C381 C380 1.373 . S
C381 C382 1.396 . S
C381 C388 1.403 . S
C382 C372 1.476 . S
C382 N377 1.318 . S
C382 C381 1.396 . S
H383 C378 0.929 . S
O384 Mn360 2.385 . S
O384 C362 1.234 . S
O385 Mn360 2.209 . S
O385 Mn361 2.215 . S
O385 C362 1.283 . S
O386 Mn360 2.094 . S
O386 C364 1.240 . S
O387 Mn361 2.117 . S
O387 C364 1.264 . S
C388 C381 1.403 . S
C388 C389 1.399 . S
C388 H394 0.929 . S
C389 C369 1.449 . S
C389 C388 1.399 . S
C389 H395 0.930 . S
H390 C370 0.931 . S
H391 C371 0.930 . S
H392 C379 0.931 . S
H393 C380 0.929 . S
H394 C388 0.929 . S
H395 C389 0.930 . S
Mn396 O401 2.095 . S
Mn396 O411 2.162 . S
Mn396 O412 2.297 . S
Mn396 O420 2.385 . S
Mn396 O421 2.209 . S
Mn396 O422 2.094 . S
Mn397 O402 2.121 . S
Mn397 N404 2.257 . S
Mn397 N413 2.282 . S
Mn397 O421 2.215 . S
Mn397 O423 2.117 . S
C398 O420 1.234 . S
C398 O421 1.283 . S
C399 O411 1.281 . S
C399 O412 1.236 . S
C400 O422 1.240 . S
C400 O423 1.264 . S
O401 Mn396 2.095 . S
O401 C410 1.250 . S
O402 Mn397 2.121 . S
O402 C410 1.258 . S
C403 N404 1.326 . S
C403 C407 1.460 . S
C403 H409 0.929 . S
N404 Mn397 2.257 . S
N404 C403 1.326 . S
N404 C408 1.362 . S
C405 C406 1.258 . S
C405 C408 1.431 . S
C405 C425 1.449 . S
C406 C405 1.258 . S
C406 C407 1.477 . S
C406 H426 0.931 . S
C407 C403 1.460 . S
C407 C406 1.477 . S
C407 H427 0.930 . S
C408 N404 1.362 . S
C408 C405 1.431 . S
C408 C418 1.476 . S
H409 C403 0.929 . S
C410 O401 1.250 . S
C410 O402 1.258 . S
O411 Mn396 2.162 . S
O411 C399 1.281 . S
O412 Mn396 2.297 . S
O412 C399 1.236 . S
N413 Mn397 2.282 . S
N413 C414 1.328 . S
N413 C418 1.318 . S
C414 N413 1.328 . S
C414 C415 1.457 . S
C414 H419 0.929 . S
C415 C414 1.457 . S
C415 C416 1.291 . S
C415 H428 0.931 . S
C416 C415 1.291 . S
C416 C417 1.373 . S
C416 H429 0.929 . S
C417 C416 1.373 . S
C417 C418 1.396 . S
C417 C424 1.403 . S
C418 C408 1.476 . S
C418 N413 1.318 . S
C418 C417 1.396 . S
H419 C414 0.929 . S
O420 Mn396 2.385 . S
O420 C398 1.234 . S
O421 Mn396 2.209 . S
O421 Mn397 2.215 . S
O421 C398 1.283 . S
O422 Mn396 2.094 . S
O422 C400 1.240 . S
O423 Mn397 2.117 . S
O423 C400 1.264 . S
C424 C417 1.403 . S
C424 C425 1.399 . S
C424 H430 0.929 . S
C425 C405 1.449 . S
C425 C424 1.399 . S
C425 H431 0.930 . S
H426 C406 0.931 . S
H427 C407 0.930 . S
H428 C415 0.931 . S
H429 C416 0.929 . S
H430 C424 0.929 . S
H431 C425 0.930 . S
Mn432 O437 2.095 . S
Mn432 O447 2.162 . S
Mn432 O448 2.297 . S
Mn432 O456 2.385 . S
Mn432 O457 2.209 . S
Mn432 O458 2.094 . S
Mn433 O438 2.121 . S
Mn433 N440 2.257 . S
Mn433 N449 2.282 . S
Mn433 O457 2.215 . S
Mn433 O459 2.117 . S
C434 O456 1.234 . S
C434 O457 1.283 . S
C435 O447 1.281 . S
C435 O448 1.236 . S
C436 O458 1.240 . S
C436 O459 1.264 . S
O437 Mn432 2.095 . S
O437 C446 1.250 . S
O438 Mn433 2.121 . S
O438 C446 1.258 . S
C439 N440 1.326 . S
C439 C443 1.460 . S
C439 H445 0.929 . S
N440 Mn433 2.257 . S
N440 C439 1.326 . S
N440 C444 1.362 . S
C441 C442 1.258 . S
C441 C444 1.431 . S
C441 C461 1.449 . S
C442 C441 1.258 . S
C442 C443 1.477 . S
C442 H462 0.931 . S
C443 C439 1.460 . S
C443 C442 1.477 . S
C443 H463 0.930 . S
C444 N440 1.362 . S
C444 C441 1.431 . S
C444 C454 1.476 . S
H445 C439 0.929 . S
C446 O437 1.250 . S
C446 O438 1.258 . S
O447 Mn432 2.162 . S
O447 C435 1.281 . S
O448 Mn432 2.297 . S
O448 C435 1.236 . S
N449 Mn433 2.282 . S
N449 C450 1.328 . S
N449 C454 1.318 . S
C450 N449 1.328 . S
C450 C451 1.457 . S
C450 H455 0.929 . S
C451 C450 1.457 . S
C451 C452 1.291 . S
C451 H464 0.931 . S
C452 C451 1.291 . S
C452 C453 1.373 . S
C452 H465 0.929 . S
C453 C452 1.373 . S
C453 C454 1.396 . S
C453 C460 1.403 . S
C454 C444 1.476 . S
C454 N449 1.318 . S
C454 C453 1.396 . S
H455 C450 0.929 . S
O456 Mn432 2.385 . S
O456 C434 1.234 . S
O457 Mn432 2.209 . S
O457 Mn433 2.215 . S
O457 C434 1.283 . S
O458 Mn432 2.094 . S
O458 C436 1.240 . S
O459 Mn433 2.117 . S
O459 C436 1.264 . S
C460 C453 1.403 . S
C460 C461 1.399 . S
C460 H466 0.929 . S
C461 C441 1.449 . S
C461 C460 1.399 . S
C461 H467 0.930 . S
H462 C442 0.931 . S
H463 C443 0.930 . S
H464 C451 0.931 . S
H465 C452 0.929 . S
H466 C460 0.929 . S
H467 C461 0.930 . S
Mn468 O473 2.095 . S
Mn468 O483 2.162 . S
Mn468 O484 2.297 . S
Mn468 O492 2.385 . S
Mn468 O493 2.209 . S
Mn468 O494 2.094 . S
Mn469 O474 2.121 . S
Mn469 N476 2.257 . S
Mn469 N485 2.282 . S
Mn469 O493 2.215 . S
Mn469 O495 2.117 . S
C470 O492 1.234 . S
C470 O493 1.283 . S
C471 O483 1.281 . S
C471 O484 1.236 . S
C472 O494 1.240 . S
C472 O495 1.264 . S
O473 Mn468 2.095 . S
O473 C482 1.250 . S
O474 Mn469 2.121 . S
O474 C482 1.258 . S
C475 N476 1.326 . S
C475 C479 1.460 . S
C475 H481 0.929 . S
N476 Mn469 2.257 . S
N476 C475 1.326 . S
N476 C480 1.362 . S
C477 C478 1.258 . S
C477 C480 1.431 . S
C477 C497 1.449 . S
C478 C477 1.258 . S
C478 C479 1.477 . S
C478 H498 0.931 . S
C479 C475 1.460 . S
C479 C478 1.477 . S
C479 H499 0.930 . S
C480 N476 1.362 . S
C480 C477 1.431 . S
C480 C490 1.476 . S
H481 C475 0.929 . S
C482 O473 1.250 . S
C482 O474 1.258 . S
O483 Mn468 2.162 . S
O483 C471 1.281 . S
O484 Mn468 2.297 . S
O484 C471 1.236 . S
N485 Mn469 2.282 . S
N485 C486 1.328 . S
N485 C490 1.318 . S
C486 N485 1.328 . S
C486 C487 1.457 . S
C486 H491 0.929 . S
C487 C486 1.457 . S
C487 C488 1.291 . S
C487 H500 0.931 . S
C488 C487 1.291 . S
C488 C489 1.373 . S
C488 H501 0.929 . S
C489 C488 1.373 . S
C489 C490 1.396 . S
C489 C496 1.403 . S
C490 C480 1.476 . S
C490 N485 1.318 . S
C490 C489 1.396 . S
H491 C486 0.929 . S
O492 Mn468 2.385 . S
O492 C470 1.234 . S
O493 Mn468 2.209 . S
O493 Mn469 2.215 . S
O493 C470 1.283 . S
O494 Mn468 2.094 . S
O494 C472 1.240 . S
O495 Mn469 2.117 . S
O495 C472 1.264 . S
C496 C489 1.403 . S
C496 C497 1.399 . S
C496 H502 0.929 . S
C497 C477 1.449 . S
C497 C496 1.399 . S
C497 H503 0.930 . S
H498 C478 0.931 . S
H499 C479 0.930 . S
H500 C487 0.931 . S
H501 C488 0.929 . S
H502 C496 0.929 . S
H503 C497 0.930 . S
Mn504 O509 2.095 . S
Mn504 O519 2.162 . S
Mn504 O520 2.297 . S
Mn504 O528 2.385 . S
Mn504 O529 2.209 . S
Mn504 O530 2.094 . S
Mn505 O510 2.121 . S
Mn505 N512 2.257 . S
Mn505 N521 2.282 . S
Mn505 O529 2.215 . S
Mn505 O531 2.117 . S
C506 O528 1.234 . S
C506 O529 1.283 . S
C507 O519 1.281 . S
C507 O520 1.236 . S
C508 O530 1.240 . S
C508 O531 1.264 . S
O509 Mn504 2.095 . S
O509 C518 1.250 . S
O510 Mn505 2.121 . S
O510 C518 1.258 . S
C511 N512 1.326 . S
C511 C515 1.460 . S
C511 H517 0.929 . S
N512 Mn505 2.257 . S
N512 C511 1.326 . S
N512 C516 1.362 . S
C513 C514 1.258 . S
C513 C516 1.431 . S
C513 C533 1.449 . S
C514 C513 1.258 . S
C514 C515 1.477 . S
C514 H534 0.931 . S
C515 C511 1.460 . S
C515 C514 1.477 . S
C515 H535 0.930 . S
C516 N512 1.362 . S
C516 C513 1.431 . S
C516 C526 1.476 . S
H517 C511 0.929 . S
C518 O509 1.250 . S
C518 O510 1.258 . S
O519 Mn504 2.162 . S
O519 C507 1.281 . S
O520 Mn504 2.297 . S
O520 C507 1.236 . S
N521 Mn505 2.282 . S
N521 C522 1.328 . S
N521 C526 1.318 . S
C522 N521 1.328 . S
C522 C523 1.457 . S
C522 H527 0.929 . S
C523 C522 1.457 . S
C523 C524 1.291 . S
C523 H536 0.931 . S
C524 C523 1.291 . S
C524 C525 1.373 . S
C524 H537 0.929 . S
C525 C524 1.373 . S
C525 C526 1.396 . S
C525 C532 1.403 . S
C526 C516 1.476 . S
C526 N521 1.318 . S
C526 C525 1.396 . S
H527 C522 0.929 . S
O528 Mn504 2.385 . S
O528 C506 1.234 . S
O529 Mn504 2.209 . S
O529 Mn505 2.215 . S
O529 C506 1.283 . S
O530 Mn504 2.094 . S
O530 C508 1.240 . S
O531 Mn505 2.117 . S
O531 C508 1.264 . S
C532 C525 1.403 . S
C532 C533 1.399 . S
C532 H538 0.929 . S
C533 C513 1.449 . S
C533 C532 1.399 . S
C533 H539 0.930 . S
H534 C514 0.931 . S
H535 C515 0.930 . S
H536 C523 0.931 . S
H537 C524 0.929 . S
H538 C532 0.929 . S
H539 C533 0.930 . S
Mn540 O545 2.095 . S
Mn540 O555 2.162 . S
Mn540 O556 2.297 . S
Mn540 O564 2.385 . S
Mn540 O565 2.209 . S
Mn540 O566 2.094 . S
Mn541 O546 2.121 . S
Mn541 N548 2.257 . S
Mn541 N557 2.282 . S
Mn541 O565 2.215 . S
Mn541 O567 2.117 . S
C542 O564 1.234 . S
C542 O565 1.283 . S
C543 O555 1.281 . S
C543 O556 1.236 . S
C544 O566 1.240 . S
C544 O567 1.264 . S
O545 Mn540 2.095 . S
O545 C554 1.250 . S
O546 Mn541 2.121 . S
O546 C554 1.258 . S
C547 N548 1.326 . S
C547 C551 1.460 . S
C547 H553 0.929 . S
N548 Mn541 2.257 . S
N548 C547 1.326 . S
N548 C552 1.362 . S
C549 C550 1.258 . S
C549 C552 1.431 . S
C549 C569 1.449 . S
C550 C549 1.258 . S
C550 C551 1.477 . S
C550 H570 0.931 . S
C551 C547 1.460 . S
C551 C550 1.477 . S
C551 H571 0.930 . S
C552 N548 1.362 . S
C552 C549 1.431 . S
C552 C562 1.476 . S
H553 C547 0.929 . S
C554 O545 1.250 . S
C554 O546 1.258 . S
O555 Mn540 2.162 . S
O555 C543 1.281 . S
O556 Mn540 2.297 . S
O556 C543 1.236 . S
N557 Mn541 2.282 . S
N557 C558 1.328 . S
N557 C562 1.318 . S
C558 N557 1.328 . S
C558 C559 1.457 . S
C558 H563 0.929 . S
C559 C558 1.457 . S
C559 C560 1.291 . S
C559 H572 0.931 . S
C560 C559 1.291 . S
C560 C561 1.373 . S
C560 H573 0.929 . S
C561 C560 1.373 . S
C561 C562 1.396 . S
C561 C568 1.403 . S
C562 C552 1.476 . S
C562 N557 1.318 . S
C562 C561 1.396 . S
H563 C558 0.929 . S
O564 Mn540 2.385 . S
O564 C542 1.234 . S
O565 Mn540 2.209 . S
O565 Mn541 2.215 . S
O565 C542 1.283 . S
O566 Mn540 2.094 . S
O566 C544 1.240 . S
O567 Mn541 2.117 . S
O567 C544 1.264 . S
C568 C561 1.403 . S
C568 C569 1.399 . S
C568 H574 0.929 . S
C569 C549 1.449 . S
C569 C568 1.399 . S
C569 H575 0.930 . S
H570 C550 0.931 . S
H571 C551 0.930 . S
H572 C559 0.931 . S
H573 C560 0.929 . S
H574 C568 0.929 . S
H575 C569 0.930 . S
Mn576 O581 2.095 . S
Mn576 O591 2.162 . S
Mn576 O592 2.297 . S
Mn576 O600 2.385 . S
Mn576 O601 2.209 . S
Mn576 O602 2.094 . S
Mn577 O582 2.121 . S
Mn577 N584 2.257 . S
Mn577 N593 2.282 . S
Mn577 O601 2.215 . S
Mn577 O603 2.117 . S
C578 O600 1.234 . S
C578 O601 1.283 . S
C579 O591 1.281 . S
C579 O592 1.236 . S
C580 O602 1.240 . S
C580 O603 1.264 . S
O581 Mn576 2.095 . S
O581 C590 1.250 . S
O582 Mn577 2.121 . S
O582 C590 1.258 . S
C583 N584 1.326 . S
C583 C587 1.460 . S
C583 H589 0.929 . S
N584 Mn577 2.257 . S
N584 C583 1.326 . S
N584 C588 1.362 . S
C585 C586 1.258 . S
C585 C588 1.431 . S
C585 C605 1.449 . S
C586 C585 1.258 . S
C586 C587 1.477 . S
C586 H606 0.931 . S
C587 C583 1.460 . S
C587 C586 1.477 . S
C587 H607 0.930 . S
C588 N584 1.362 . S
C588 C585 1.431 . S
C588 C598 1.476 . S
H589 C583 0.929 . S
C590 O581 1.250 . S
C590 O582 1.258 . S
O591 Mn576 2.162 . S
O591 C579 1.281 . S
O592 Mn576 2.297 . S
O592 C579 1.236 . S
N593 Mn577 2.282 . S
N593 C594 1.328 . S
N593 C598 1.318 . S
C594 N593 1.328 . S
C594 C595 1.457 . S
C594 H599 0.929 . S
C595 C594 1.457 . S
C595 C596 1.291 . S
C595 H608 0.931 . S
C596 C595 1.291 . S
C596 C597 1.373 . S
C596 H609 0.929 . S
C597 C596 1.373 . S
C597 C598 1.396 . S
C597 C604 1.403 . S
C598 C588 1.476 . S
C598 N593 1.318 . S
C598 C597 1.396 . S
H599 C594 0.929 . S
O600 Mn576 2.385 . S
O600 C578 1.234 . S
O601 Mn576 2.209 . S
O601 Mn577 2.215 . S
O601 C578 1.283 . S
O602 Mn576 2.094 . S
O602 C580 1.240 . S
O603 Mn577 2.117 . S
O603 C580 1.264 . S
C604 C597 1.403 . S
C604 C605 1.399 . S
C604 H610 0.929 . S
C605 C585 1.449 . S
C605 C604 1.399 . S
C605 H611 0.930 . S
H606 C586 0.931 . S
H607 C587 0.930 . S
H608 C595 0.931 . S
H609 C596 0.929 . S
H610 C604 0.929 . S
H611 C605 0.930 . S
Mn612 O617 2.095 . S
Mn612 O627 2.162 . S
Mn612 O628 2.297 . S
Mn612 O636 2.385 . S
Mn612 O637 2.209 . S
Mn612 O638 2.094 . S
Mn613 O618 2.121 . S
Mn613 N620 2.257 . S
Mn613 N629 2.282 . S
Mn613 O637 2.215 . S
Mn613 O639 2.117 . S
C614 O636 1.234 . S
C614 O637 1.283 . S
C615 O627 1.281 . S
C615 O628 1.236 . S
C616 O638 1.240 . S
C616 O639 1.264 . S
O617 Mn612 2.095 . S
O617 C626 1.250 . S
O618 Mn613 2.121 . S
O618 C626 1.258 . S
C619 N620 1.326 . S
C619 C623 1.460 . S
C619 H625 0.929 . S
N620 Mn613 2.257 . S
N620 C619 1.326 . S
N620 C624 1.362 . S
C621 C622 1.258 . S
C621 C624 1.431 . S
C621 C641 1.449 . S
C622 C621 1.258 . S
C622 C623 1.477 . S
C622 H642 0.931 . S
C623 C619 1.460 . S
C623 C622 1.477 . S
C623 H643 0.930 . S
C624 N620 1.362 . S
C624 C621 1.431 . S
C624 C634 1.476 . S
H625 C619 0.929 . S
C626 O617 1.250 . S
C626 O618 1.258 . S
O627 Mn612 2.162 . S
O627 C615 1.281 . S
O628 Mn612 2.297 . S
O628 C615 1.236 . S
N629 Mn613 2.282 . S
N629 C630 1.328 . S
N629 C634 1.318 . S
C630 N629 1.328 . S
C630 C631 1.457 . S
C630 H635 0.929 . S
C631 C630 1.457 . S
C631 C632 1.291 . S
C631 H644 0.931 . S
C632 C631 1.291 . S
C632 C633 1.373 . S
C632 H645 0.929 . S
C633 C632 1.373 . S
C633 C634 1.396 . S
C633 C640 1.403 . S
C634 C624 1.476 . S
C634 N629 1.318 . S
C634 C633 1.396 . S
H635 C630 0.929 . S
O636 Mn612 2.385 . S
O636 C614 1.234 . S
O637 Mn612 2.209 . S
O637 Mn613 2.215 . S
O637 C614 1.283 . S
O638 Mn612 2.094 . S
O638 C616 1.240 . S
O639 Mn613 2.117 . S
O639 C616 1.264 . S
C640 C633 1.403 . S
C640 C641 1.399 . S
C640 H646 0.929 . S
C641 C621 1.449 . S
C641 C640 1.399 . S
C641 H647 0.930 . S
H642 C622 0.931 . S
H643 C623 0.930 . S
H644 C631 0.931 . S
H645 C632 0.929 . S
H646 C640 0.929 . S
H647 C641 0.930 . S
Mn648 O653 2.095 . S
Mn648 O663 2.162 . S
Mn648 O664 2.297 . S
Mn648 O672 2.385 . S
Mn648 O673 2.209 . S
Mn648 O674 2.094 . S
Mn649 O654 2.121 . S
Mn649 N656 2.257 . S
Mn649 N665 2.282 . S
Mn649 O673 2.215 . S
Mn649 O675 2.117 . S
C650 O672 1.234 . S
C650 O673 1.283 . S
C651 O663 1.281 . S
C651 O664 1.236 . S
C652 O674 1.240 . S
C652 O675 1.264 . S
O653 Mn648 2.095 . S
O653 C662 1.250 . S
O654 Mn649 2.121 . S
O654 C662 1.258 . S
C655 N656 1.326 . S
C655 C659 1.460 . S
C655 H661 0.929 . S
N656 Mn649 2.257 . S
N656 C655 1.326 . S
N656 C660 1.362 . S
C657 C658 1.258 . S
C657 C660 1.431 . S
C657 C677 1.449 . S
C658 C657 1.258 . S
C658 C659 1.477 . S
C658 H678 0.931 . S
C659 C655 1.460 . S
C659 C658 1.477 . S
C659 H679 0.930 . S
C660 N656 1.362 . S
C660 C657 1.431 . S
C660 C670 1.476 . S
H661 C655 0.929 . S
C662 O653 1.250 . S
C662 O654 1.258 . S
O663 Mn648 2.162 . S
O663 C651 1.281 . S
O664 Mn648 2.297 . S
O664 C651 1.236 . S
N665 Mn649 2.282 . S
N665 C666 1.328 1_554 S
N665 C670 1.318 . S
C666 N665 1.328 1_556 S
C666 C667 1.457 . S
C666 H671 0.929 . S
C667 C666 1.457 . S
C667 C668 1.291 . S
C667 H680 0.931 . S
C668 C667 1.291 . S
C668 C669 1.373 1_556 S
C668 H681 0.929 . S
C669 C668 1.373 1_554 S
C669 C670 1.396 . S
C669 C676 1.403 . S
C670 C660 1.476 . S
C670 N665 1.318 . S
C670 C669 1.396 . S
H671 C666 0.929 . S
O672 Mn648 2.385 . S
O672 C650 1.234 . S
O673 Mn648 2.209 . S
O673 Mn649 2.215 . S
O673 C650 1.283 . S
O674 Mn648 2.094 . S
O674 C652 1.240 . S
O675 Mn649 2.117 . S
O675 C652 1.264 . S
C676 C669 1.403 . S
C676 C677 1.399 . S
C676 H682 0.928 1_554 S
C677 C657 1.449 . S
C677 C676 1.399 . S
C677 H683 0.930 . S
H678 C658 0.931 . S
H679 C659 0.930 . S
H680 C667 0.931 . S
H681 C668 0.929 . S
H682 C676 0.928 1_556 S
H683 C677 0.930 . S
Mn684 O689 2.095 . S
Mn684 O699 2.162 . S
Mn684 O700 2.297 . S
Mn684 O708 2.385 . S
Mn684 O709 2.209 . S
Mn684 O710 2.094 . S
Mn685 O690 2.121 . S
Mn685 N692 2.257 . S
Mn685 N701 2.282 . S
Mn685 O709 2.215 . S
Mn685 O711 2.117 . S
C686 O708 1.234 . S
C686 O709 1.283 . S
C687 O699 1.281 . S
C687 O700 1.236 . S
C688 O710 1.240 . S
C688 O711 1.264 . S
O689 Mn684 2.095 . S
O689 C698 1.250 . S
O690 Mn685 2.121 . S
O690 C698 1.258 . S
C691 N692 1.326 . S
C691 C695 1.460 . S
C691 H697 0.929 . S
N692 Mn685 2.257 . S
N692 C691 1.326 . S
N692 C696 1.362 . S
C693 C694 1.258 . S
C693 C696 1.431 . S
C693 C713 1.449 . S
C694 C693 1.258 . S
C694 C695 1.477 . S
C694 H714 0.931 . S
C695 C691 1.460 . S
C695 C694 1.477 . S
C695 H715 0.930 . S
C696 N692 1.362 . S
C696 C693 1.431 . S
C696 C706 1.476 . S
H697 C691 0.929 . S
C698 O689 1.250 . S
C698 O690 1.258 . S
O699 Mn684 2.162 . S
O699 C687 1.281 . S
O700 Mn684 2.297 . S
O700 C687 1.236 . S
N701 Mn685 2.282 . S
N701 C702 1.328 . S
N701 C706 1.318 . S
C702 N701 1.328 . S
C702 C703 1.457 . S
C702 H707 0.929 . S
C703 C702 1.457 . S
C703 C704 1.291 . S
C703 H716 0.931 . S
C704 C703 1.291 . S
C704 C705 1.373 . S
C704 H717 0.929 . S
C705 C704 1.373 . S
C705 C706 1.396 . S
C705 C712 1.403 . S
C706 C696 1.476 . S
C706 N701 1.318 . S
C706 C705 1.396 . S
H707 C702 0.929 . S
O708 Mn684 2.385 . S
O708 C686 1.234 . S
O709 Mn684 2.209 . S
O709 Mn685 2.215 . S
O709 C686 1.283 . S
O710 Mn684 2.094 . S
O710 C688 1.240 . S
O711 Mn685 2.117 . S
O711 C688 1.264 . S
C712 C705 1.403 . S
C712 C713 1.399 . S
C712 H718 0.929 . S
C713 C693 1.449 . S
C713 C712 1.399 . S
C713 H719 0.930 . S
H714 C694 0.931 . S
H715 C695 0.930 . S
H716 C703 0.931 . S
H717 C704 0.929 . S
H718 C712 0.929 . S
H719 C713 0.930 . S
Mn720 O725 2.095 . S
Mn720 O735 2.162 . S
Mn720 O736 2.297 . S
Mn720 O744 2.385 . S
Mn720 O745 2.209 . S
Mn720 O746 2.094 . S
Mn721 O726 2.121 . S
Mn721 N728 2.257 . S
Mn721 N737 2.282 . S
Mn721 O745 2.215 . S
Mn721 O747 2.117 . S
C722 O744 1.234 . S
C722 O745 1.283 . S
C723 O735 1.281 . S
C723 O736 1.236 . S
C724 O746 1.240 . S
C724 O747 1.264 . S
O725 Mn720 2.095 . S
O725 C734 1.250 . S
O726 Mn721 2.121 . S
O726 C734 1.258 . S
C727 N728 1.326 . S
C727 C731 1.460 . S
C727 H733 0.929 . S
N728 Mn721 2.257 . S
N728 C727 1.326 . S
N728 C732 1.362 . S
C729 C730 1.258 . S
C729 C732 1.431 . S
C729 C749 1.449 . S
C730 C729 1.258 . S
C730 C731 1.477 . S
C730 H750 0.931 . S
C731 C727 1.460 . S
C731 C730 1.477 . S
C731 H751 0.930 . S
C732 N728 1.362 . S
C732 C729 1.431 . S
C732 C742 1.476 . S
H733 C727 0.929 . S
C734 O725 1.250 . S
C734 O726 1.258 . S
O735 Mn720 2.162 . S
O735 C723 1.281 . S
O736 Mn720 2.297 . S
O736 C723 1.236 . S
N737 Mn721 2.282 . S
N737 C738 1.328 . S
N737 C742 1.318 . S
C738 N737 1.328 . S
C738 C739 1.457 . S
C738 H743 0.929 . S
C739 C738 1.457 . S
C739 C740 1.291 . S
C739 H752 0.931 . S
C740 C739 1.291 . S
C740 C741 1.373 . S
C740 H753 0.929 . S
C741 C740 1.373 . S
C741 C742 1.396 . S
C741 C748 1.403 . S
C742 C732 1.476 . S
C742 N737 1.318 . S
C742 C741 1.396 . S
H743 C738 0.929 . S
O744 Mn720 2.385 . S
O744 C722 1.234 . S
O745 Mn720 2.209 . S
O745 Mn721 2.215 . S
O745 C722 1.283 . S
O746 Mn720 2.094 . S
O746 C724 1.240 . S
O747 Mn721 2.117 . S
O747 C724 1.264 . S
C748 C741 1.403 . S
C748 C749 1.399 . S
C748 H754 0.929 . S
C749 C729 1.449 . S
C749 C748 1.399 . S
C749 H755 0.930 . S
H750 C730 0.931 . S
H751 C731 0.930 . S
H752 C739 0.931 . S
H753 C740 0.929 . S
H754 C748 0.929 . S
H755 C749 0.930 . S
Mn756 O761 2.095 . S
Mn756 O771 2.162 . S
Mn756 O772 2.297 . S
Mn756 O780 2.385 1_554 S
Mn756 O781 2.209 . S
Mn756 O782 2.094 . S
Mn757 O762 2.121 . S
Mn757 N764 2.257 . S
Mn757 N773 2.282 1_554 S
Mn757 O781 2.215 . S
Mn757 O783 2.117 . S
C758 O780 1.234 . S
C758 O781 1.283 1_556 S
C759 O771 1.281 . S
C759 O772 1.236 . S
C760 O782 1.240 . S
C760 O783 1.264 . S
O761 Mn756 2.095 . S
O761 C770 1.250 . S
O762 Mn757 2.121 . S
O762 C770 1.258 . S
C763 N764 1.326 . S
C763 C767 1.460 . S
C763 H769 0.929 . S
N764 Mn757 2.257 . S
N764 C763 1.326 . S
N764 C768 1.362 1_554 S
C765 C766 1.258 . S
C765 C768 1.431 . S
C765 C785 1.449 . S
C766 C765 1.258 . S
C766 C767 1.477 1_556 S
C766 H786 0.931 . S
C767 C763 1.460 . S
C767 C766 1.477 1_554 S
C767 H787 0.930 . S
C768 N764 1.362 1_556 S
C768 C765 1.431 . S
C768 C778 1.476 . S
H769 C763 0.929 . S
C770 O761 1.250 . S
C770 O762 1.258 . S
O771 Mn756 2.162 . S
O771 C759 1.281 . S
O772 Mn756 2.297 . S
O772 C759 1.236 . S
N773 Mn757 2.282 1_556 S
N773 C774 1.328 . S
N773 C778 1.318 . S
C774 N773 1.328 . S
C774 C775 1.457 . S
C774 H779 0.929 . S
C775 C774 1.457 . S
C775 C776 1.291 . S
C775 H788 0.931 . S
C776 C775 1.291 . S
C776 C777 1.373 . S
C776 H789 0.929 . S
C777 C776 1.373 . S
C777 C778 1.396 . S
C777 C784 1.403 . S
C778 C768 1.476 . S
C778 N773 1.318 . S
C778 C777 1.396 . S
H779 C774 0.929 . S
O780 Mn756 2.385 1_556 S
O780 C758 1.234 . S
O781 Mn756 2.209 . S
O781 Mn757 2.215 . S
O781 C758 1.283 1_554 S
O782 Mn756 2.094 . S
O782 C760 1.240 . S
O783 Mn757 2.117 . S
O783 C760 1.264 . S
C784 C777 1.403 . S
C784 C785 1.399 . S
C784 H790 0.929 . S
C785 C765 1.449 . S
C785 C784 1.399 . S
C785 H791 0.930 . S
H786 C766 0.931 . S
H787 C767 0.930 . S
H788 C775 0.931 . S
H789 C776 0.929 . S
H790 C784 0.929 . S
H791 C785 0.930 . S
Mn792 O797 2.095 . S
Mn792 O807 2.162 . S
Mn792 O808 2.297 . S
Mn792 O816 2.385 1_554 S
Mn792 O817 2.209 . S
Mn792 O818 2.094 . S
Mn793 O798 2.121 . S
Mn793 N800 2.257 . S
Mn793 N809 2.282 1_554 S
Mn793 O817 2.215 . S
Mn793 O819 2.117 . S
C794 O816 1.234 . S
C794 O817 1.283 1_556 S
C795 O807 1.281 . S
C795 O808 1.236 . S
C796 O818 1.240 . S
C796 O819 1.264 . S
O797 Mn792 2.095 . S
O797 C806 1.250 . S
O798 Mn793 2.121 . S
O798 C806 1.258 . S
C799 N800 1.326 . S
C799 C803 1.460 . S
C799 H805 0.929 . S
N800 Mn793 2.257 . S
N800 C799 1.326 . S
N800 C804 1.362 1_554 S
C801 C802 1.258 . S
C801 C804 1.431 . S
C801 C821 1.449 . S
C802 C801 1.258 . S
C802 C803 1.477 1_556 S
C802 H822 0.931 . S
C803 C799 1.460 . S
C803 C802 1.477 1_554 S
C803 H823 0.930 . S
C804 N800 1.362 1_556 S
C804 C801 1.431 . S
C804 C814 1.476 . S
H805 C799 0.929 . S
C806 O797 1.250 . S
C806 O798 1.258 . S
O807 Mn792 2.162 . S
O807 C795 1.281 . S
O808 Mn792 2.297 . S
O808 C795 1.236 . S
N809 Mn793 2.282 1_556 S
N809 C810 1.328 . S
N809 C814 1.318 . S
C810 N809 1.328 . S
C810 C811 1.457 . S
C810 H815 0.929 . S
C811 C810 1.457 . S
C811 C812 1.291 . S
C811 H824 0.931 . S
C812 C811 1.291 . S
C812 C813 1.373 . S
C812 H825 0.929 . S
C813 C812 1.373 . S
C813 C814 1.396 . S
C813 C820 1.403 . S
C814 C804 1.476 . S
C814 N809 1.318 . S
C814 C813 1.396 . S
H815 C810 0.929 . S
O816 Mn792 2.385 1_556 S
O816 C794 1.234 . S
O817 Mn792 2.209 . S
O817 Mn793 2.215 . S
O817 C794 1.283 1_554 S
O818 Mn792 2.094 . S
O818 C796 1.240 . S
O819 Mn793 2.117 . S
O819 C796 1.264 . S
C820 C813 1.403 . S
C820 C821 1.399 . S
C820 H826 0.929 . S
C821 C801 1.449 . S
C821 C820 1.399 . S
C821 H827 0.930 . S
H822 C802 0.931 . S
H823 C803 0.930 . S
H824 C811 0.931 . S
H825 C812 0.929 . S
H826 C820 0.929 . S
H827 C821 0.930 . S
Mn828 O833 2.095 . S
Mn828 O843 2.162 1_554 S
Mn828 O844 2.297 1_554 S
Mn828 O852 2.385 . S
Mn828 O853 2.209 . S
Mn828 O854 2.094 . S
Mn829 O834 2.121 . S
Mn829 N836 2.257 . S
Mn829 N845 2.282 . S
Mn829 O853 2.215 . S
Mn829 O855 2.117 . S
C830 O852 1.234 . S
C830 O853 1.283 . S
C831 O843 1.281 . S
C831 O844 1.236 . S
C832 O854 1.240 . S
C832 O855 1.264 . S
O833 Mn828 2.095 . S
O833 C842 1.250 . S
O834 Mn829 2.121 . S
O834 C842 1.258 . S
C835 N836 1.326 . S
C835 C839 1.460 . S
C835 H841 0.929 . S
N836 Mn829 2.257 . S
N836 C835 1.326 . S
N836 C840 1.362 . S
C837 C838 1.258 . S
C837 C840 1.431 . S
C837 C857 1.449 . S
C838 C837 1.258 . S
C838 C839 1.477 . S
C838 H858 0.931 . S
C839 C835 1.460 . S
C839 C838 1.477 . S
C839 H859 0.930 . S
C840 N836 1.362 . S
C840 C837 1.431 . S
C840 C850 1.476 . S
H841 C835 0.929 . S
C842 O833 1.250 . S
C842 O834 1.258 . S
O843 Mn828 2.162 1_556 S
O843 C831 1.281 . S
O844 Mn828 2.297 1_556 S
O844 C831 1.236 . S
N845 Mn829 2.282 . S
N845 C846 1.328 . S
N845 C850 1.318 . S
C846 N845 1.328 . S
C846 C847 1.457 . S
C846 H851 0.929 . S
C847 C846 1.457 . S
C847 C848 1.291 . S
C847 H860 0.931 . S
C848 C847 1.291 . S
C848 C849 1.373 . S
C848 H861 0.929 . S
C849 C848 1.373 . S
C849 C850 1.396 . S
C849 C856 1.403 . S
C850 C840 1.476 . S
C850 N845 1.318 . S
C850 C849 1.396 . S
H851 C846 0.929 . S
O852 Mn828 2.385 . S
O852 C830 1.234 . S
O853 Mn828 2.209 . S
O853 Mn829 2.215 . S
O853 C830 1.283 . S
O854 Mn828 2.094 . S
O854 C832 1.240 . S
O855 Mn829 2.117 . S
O855 C832 1.264 . S
C856 C849 1.403 . S
C856 C857 1.399 . S
C856 H862 0.929 . S
C857 C837 1.449 . S
C857 C856 1.399 . S
C857 H863 0.930 . S
H858 C838 0.931 . S
H859 C839 0.930 . S
H860 C847 0.931 . S
H861 C848 0.929 . S
H862 C856 0.929 . S
H863 C857 0.930 . S
Mn864 O869 2.095 . S
Mn864 O879 2.162 . S
Mn864 O880 2.297 . S
Mn864 O888 2.385 . S
Mn864 O889 2.209 . S
Mn864 O890 2.094 . S
Mn865 O870 2.121 . S
Mn865 N872 2.257 . S
Mn865 N881 2.282 . S
Mn865 O889 2.215 . S
Mn865 O891 2.117 . S
C866 O888 1.234 . S
C866 O889 1.283 . S
C867 O879 1.281 . S
C867 O880 1.236 . S
C868 O890 1.240 . S
C868 O891 1.264 . S
O869 Mn864 2.095 . S
O869 C878 1.250 . S
O870 Mn865 2.121 . S
O870 C878 1.258 . S
C871 N872 1.326 . S
C871 C875 1.460 . S
C871 H877 0.929 . S
N872 Mn865 2.257 . S
N872 C871 1.326 . S
N872 C876 1.362 . S
C873 C874 1.258 . S
C873 C876 1.431 . S
C873 C893 1.449 . S
C874 C873 1.258 . S
C874 C875 1.477 . S
C874 H894 0.931 . S
C875 C871 1.460 . S
C875 C874 1.477 . S
C875 H895 0.930 . S
C876 N872 1.362 . S
C876 C873 1.431 . S
C876 C886 1.476 . S
H877 C871 0.929 . S
C878 O869 1.250 . S
C878 O870 1.258 . S
O879 Mn864 2.162 . S
O879 C867 1.281 . S
O880 Mn864 2.297 . S
O880 C867 1.236 . S
N881 Mn865 2.282 . S
N881 C882 1.328 . S
N881 C886 1.318 . S
C882 N881 1.328 . S
C882 C883 1.457 . S
C882 H887 0.929 . S
C883 C882 1.457 . S
C883 C884 1.291 . S
C883 H896 0.931 . S
C884 C883 1.291 . S
C884 C885 1.373 . S
C884 H897 0.929 . S
C885 C884 1.373 . S
C885 C886 1.396 . S
C885 C892 1.403 . S
C886 C876 1.476 . S
C886 N881 1.318 . S
C886 C885 1.396 . S
H887 C882 0.929 . S
O888 Mn864 2.385 . S
O888 C866 1.234 . S
O889 Mn864 2.209 . S
O889 Mn865 2.215 . S
O889 C866 1.283 . S
O890 Mn864 2.094 . S
O890 C868 1.240 . S
O891 Mn865 2.117 . S
O891 C868 1.264 . S
C892 C885 1.403 . S
C892 C893 1.399 . S
C892 H898 0.929 . S
C893 C873 1.449 . S
C893 C892 1.399 . S
C893 H899 0.930 . S
H894 C874 0.931 . S
H895 C875 0.930 . S
H896 C883 0.931 . S
H897 C884 0.929 . S
H898 C892 0.929 . S
H899 C893 0.930 . S
Mn900 O905 2.095 . S
Mn900 O915 2.162 . S
Mn900 O916 2.297 . S
Mn900 O924 2.385 . S
Mn900 O925 2.209 . S
Mn900 O926 2.094 . S
Mn901 O906 2.121 . S
Mn901 N908 2.257 . S
Mn901 N917 2.282 . S
Mn901 O925 2.215 . S
Mn901 O927 2.117 . S
C902 O924 1.234 . S
C902 O925 1.283 . S
C903 O915 1.281 . S
C903 O916 1.236 . S
C904 O926 1.240 . S
C904 O927 1.264 . S
O905 Mn900 2.095 . S
O905 C914 1.250 . S
O906 Mn901 2.121 . S
O906 C914 1.258 . S
C907 N908 1.326 . S
C907 C911 1.460 . S
C907 H913 0.929 . S
N908 Mn901 2.257 . S
N908 C907 1.326 . S
N908 C912 1.362 . S
C909 C910 1.258 . S
C909 C912 1.431 . S
C909 C929 1.449 . S
C910 C909 1.258 . S
C910 C911 1.477 . S
C910 H930 0.931 . S
C911 C907 1.460 . S
C911 C910 1.477 . S
C911 H931 0.930 . S
C912 N908 1.362 . S
C912 C909 1.431 . S
C912 C922 1.476 . S
H913 C907 0.929 . S
C914 O905 1.250 . S
C914 O906 1.258 . S
O915 Mn900 2.162 . S
O915 C903 1.281 . S
O916 Mn900 2.297 . S
O916 C903 1.236 . S
N917 Mn901 2.282 . S
N917 C918 1.328 . S
N917 C922 1.318 . S
C918 N917 1.328 . S
C918 C919 1.457 . S
C918 H923 0.929 . S
C919 C918 1.457 . S
C919 C920 1.291 . S
C919 H932 0.931 . S
C920 C919 1.291 . S
C920 C921 1.373 . S
C920 H933 0.929 . S
C921 C920 1.373 . S
C921 C922 1.396 . S
C921 C928 1.403 . S
C922 C912 1.476 . S
C922 N917 1.318 . S
C922 C921 1.396 . S
H923 C918 0.929 . S
O924 Mn900 2.385 . S
O924 C902 1.234 . S
O925 Mn900 2.209 . S
O925 Mn901 2.215 . S
O925 C902 1.283 . S
O926 Mn900 2.094 . S
O926 C904 1.240 . S
O927 Mn901 2.117 . S
O927 C904 1.264 . S
C928 C921 1.403 . S
C928 C929 1.399 . S
C928 H934 0.929 . S
C929 C909 1.449 . S
C929 C928 1.399 . S
C929 H935 0.930 . S
H930 C910 0.931 . S
H931 C911 0.930 . S
H932 C919 0.931 . S
H933 C920 0.929 . S
H934 C928 0.929 . S
H935 C929 0.930 . S
Mn936 O941 2.095 . S
Mn936 O951 2.162 . S
Mn936 O952 2.297 . S
Mn936 O960 2.385 . S
Mn936 O961 2.209 . S
Mn936 O962 2.094 . S
Mn937 O942 2.121 . S
Mn937 N944 2.257 . S
Mn937 N953 2.282 . S
Mn937 O961 2.215 . S
Mn937 O963 2.117 . S
C938 O960 1.234 . S
C938 O961 1.283 . S
C939 O951 1.281 . S
C939 O952 1.236 . S
C940 O962 1.240 . S
C940 O963 1.264 . S
O941 Mn936 2.095 . S
O941 C950 1.250 . S
O942 Mn937 2.121 . S
O942 C950 1.258 . S
C943 N944 1.326 . S
C943 C947 1.460 . S
C943 H949 0.929 . S
N944 Mn937 2.257 . S
N944 C943 1.326 . S
N944 C948 1.362 . S
C945 C946 1.258 . S
C945 C948 1.431 . S
C945 C965 1.449 . S
C946 C945 1.258 . S
C946 C947 1.477 . S
C946 H966 0.931 . S
C947 C943 1.460 . S
C947 C946 1.477 . S
C947 H967 0.930 . S
C948 N944 1.362 . S
C948 C945 1.431 . S
C948 C958 1.476 . S
H949 C943 0.929 . S
C950 O941 1.250 . S
C950 O942 1.258 . S
O951 Mn936 2.162 . S
O951 C939 1.281 . S
O952 Mn936 2.297 . S
O952 C939 1.236 . S
N953 Mn937 2.282 . S
N953 C954 1.328 . S
N953 C958 1.318 . S
C954 N953 1.328 . S
C954 C955 1.457 . S
C954 H959 0.929 . S
C955 C954 1.457 . S
C955 C956 1.291 . S
C955 H968 0.931 . S
C956 C955 1.291 . S
C956 C957 1.373 . S
C956 H969 0.929 . S
C957 C956 1.373 . S
C957 C958 1.396 . S
C957 C964 1.403 . S
C958 C948 1.476 . S
C958 N953 1.318 . S
C958 C957 1.396 . S
H959 C954 0.929 . S
O960 Mn936 2.385 . S
O960 C938 1.234 . S
O961 Mn936 2.209 . S
O961 Mn937 2.215 . S
O961 C938 1.283 . S
O962 Mn936 2.094 . S
O962 C940 1.240 . S
O963 Mn937 2.117 . S
O963 C940 1.264 . S
C964 C957 1.403 . S
C964 C965 1.399 . S
C964 H970 0.929 . S
C965 C945 1.449 . S
C965 C964 1.399 . S
C965 H971 0.930 . S
H966 C946 0.931 . S
H967 C947 0.930 . S
H968 C955 0.931 . S
H969 C956 0.929 . S
H970 C964 0.929 . S
H971 C965 0.930 . S
Mn972 O977 2.095 . S
Mn972 O987 2.162 . S
Mn972 O988 2.297 . S
Mn972 O996 2.385 1_556 S
Mn972 O997 2.209 . S
Mn972 O998 2.094 . S
Mn973 O978 2.121 . S
Mn973 N980 2.257 . S
Mn973 N989 2.282 1_556 S
Mn973 O997 2.215 . S
Mn973 O999 2.117 . S
C974 O996 1.234 . S
C974 O997 1.283 1_554 S
C975 O987 1.281 . S
C975 O988 1.236 . S
C976 O998 1.240 . S
C976 O999 1.264 . S
O977 Mn972 2.095 . S
O977 C986 1.250 . S
O978 Mn973 2.121 . S
O978 C986 1.258 . S
C979 N980 1.326 . S
C979 C983 1.460 . S
C979 H985 0.929 . S
N980 Mn973 2.257 . S
N980 C979 1.326 . S
N980 C984 1.362 1_556 S
C981 C982 1.258 . S
C981 C984 1.431 . S
C981 C1001 1.449 . S
C982 C981 1.258 . S
C982 C983 1.477 1_554 S
C982 H1002 0.931 . S
C983 C979 1.460 . S
C983 C982 1.477 1_556 S
C983 H1003 0.930 . S
C984 N980 1.362 1_554 S
C984 C981 1.431 . S
C984 C994 1.476 . S
H985 C979 0.929 . S
C986 O977 1.250 . S
C986 O978 1.258 . S
O987 Mn972 2.162 . S
O987 C975 1.281 . S
O988 Mn972 2.297 . S
O988 C975 1.236 . S
N989 Mn973 2.282 1_554 S
N989 C990 1.328 . S
N989 C994 1.318 . S
C990 N989 1.328 . S
C990 C991 1.457 . S
C990 H995 0.929 . S
C991 C990 1.457 . S
C991 C992 1.291 . S
C991 H1004 0.931 . S
C992 C991 1.291 . S
C992 C993 1.373 . S
C992 H1005 0.929 . S
C993 C992 1.373 . S
C993 C994 1.396 . S
C993 C1000 1.403 . S
C994 C984 1.476 . S
C994 N989 1.318 . S
C994 C993 1.396 . S
H995 C990 0.929 . S
O996 Mn972 2.385 1_554 S
O996 C974 1.234 . S
O997 Mn972 2.209 . S
O997 Mn973 2.215 . S
O997 C974 1.283 1_556 S
O998 Mn972 2.094 . S
O998 C976 1.240 . S
O999 Mn973 2.117 . S
O999 C976 1.264 . S
C1000 C993 1.403 . S
C1000 C1001 1.399 . S
C1000 H1006 0.929 . S
C1001 C981 1.449 . S
C1001 C1000 1.399 . S
C1001 H1007 0.930 . S
H1002 C982 0.931 . S
H1003 C983 0.930 . S
H1004 C991 0.931 . S
H1005 C992 0.929 . S
H1006 C1000 0.929 . S
H1007 C1001 0.930 . S
Mn1008 O1013 2.095 . S
Mn1008 O1023 2.162 . S
Mn1008 O1024 2.297 . S
Mn1008 O1032 2.385 1_556 S
Mn1008 O1033 2.209 . S
Mn1008 O1034 2.094 . S
Mn1009 O1014 2.121 . S
Mn1009 N1016 2.257 . S
Mn1009 N1025 2.282 1_556 S
Mn1009 O1033 2.215 . S
Mn1009 O1035 2.117 . S
C1010 O1032 1.234 . S
C1010 O1033 1.283 1_554 S
C1011 O1023 1.281 . S
C1011 O1024 1.236 . S
C1012 O1034 1.240 . S
C1012 O1035 1.264 . S
O1013 Mn1008 2.095 . S
O1013 C1022 1.250 . S
O1014 Mn1009 2.121 . S
O1014 C1022 1.258 . S
C1015 N1016 1.326 . S
C1015 C1019 1.460 . S
C1015 H1021 0.929 . S
N1016 Mn1009 2.257 . S
N1016 C1015 1.326 . S
N1016 C1020 1.362 1_556 S
C1017 C1018 1.258 . S
C1017 C1020 1.431 . S
C1017 C1037 1.449 . S
C1018 C1017 1.258 . S
C1018 C1019 1.477 1_554 S
C1018 H1038 0.931 . S
C1019 C1015 1.460 . S
C1019 C1018 1.477 1_556 S
C1019 H1039 0.930 . S
C1020 N1016 1.362 1_554 S
C1020 C1017 1.431 . S
C1020 C1030 1.476 . S
H1021 C1015 0.929 . S
C1022 O1013 1.250 . S
C1022 O1014 1.258 . S
O1023 Mn1008 2.162 . S
O1023 C1011 1.281 . S
O1024 Mn1008 2.297 . S
O1024 C1011 1.236 . S
N1025 Mn1009 2.282 1_554 S
N1025 C1026 1.328 . S
N1025 C1030 1.318 . S
C1026 N1025 1.328 . S
C1026 C1027 1.457 . S
C1026 H1031 0.929 . S
C1027 C1026 1.457 . S
C1027 C1028 1.291 . S
C1027 H1040 0.931 . S
C1028 C1027 1.291 . S
C1028 C1029 1.373 . S
C1028 H1041 0.929 . S
C1029 C1028 1.373 . S
C1029 C1030 1.396 . S
C1029 C1036 1.403 . S
C1030 C1020 1.476 . S
C1030 N1025 1.318 . S
C1030 C1029 1.396 . S
H1031 C1026 0.929 . S
O1032 Mn1008 2.385 1_554 S
O1032 C1010 1.234 . S
O1033 Mn1008 2.209 . S
O1033 Mn1009 2.215 . S
O1033 C1010 1.283 1_556 S
O1034 Mn1008 2.094 . S
O1034 C1012 1.240 . S
O1035 Mn1009 2.117 . S
O1035 C1012 1.264 . S
C1036 C1029 1.403 . S
C1036 C1037 1.399 . S
C1036 H1042 0.929 . S
C1037 C1017 1.449 . S
C1037 C1036 1.399 . S
C1037 H1043 0.930 . S
H1038 C1018 0.931 . S
H1039 C1019 0.930 . S
H1040 C1027 0.931 . S
H1041 C1028 0.929 . S
H1042 C1036 0.929 . S
H1043 C1037 0.930 . S
Mn1044 O1049 2.095 . S
Mn1044 O1059 2.162 . S
Mn1044 O1060 2.297 . S
Mn1044 O1068 2.385 1_556 S
Mn1044 O1069 2.209 . S
Mn1044 O1070 2.094 . S
Mn1045 O1050 2.121 . S
Mn1045 N1052 2.257 . S
Mn1045 N1061 2.282 1_556 S
Mn1045 O1069 2.215 . S
Mn1045 O1071 2.117 . S
C1046 O1068 1.234 . S
C1046 O1069 1.283 1_554 S
C1047 O1059 1.281 . S
C1047 O1060 1.236 . S
C1048 O1070 1.240 . S
C1048 O1071 1.264 . S
O1049 Mn1044 2.095 . S
O1049 C1058 1.250 . S
O1050 Mn1045 2.121 . S
O1050 C1058 1.258 . S
C1051 N1052 1.326 . S
C1051 C1055 1.460 . S
C1051 H1057 0.929 . S
N1052 Mn1045 2.257 . S
N1052 C1051 1.326 . S
N1052 C1056 1.362 1_556 S
C1053 C1054 1.258 . S
C1053 C1056 1.431 . S
C1053 C1073 1.449 . S
C1054 C1053 1.258 . S
C1054 C1055 1.477 1_554 S
C1054 H1074 0.931 . S
C1055 C1051 1.460 . S
C1055 C1054 1.477 1_556 S
C1055 H1075 0.930 . S
C1056 N1052 1.362 1_554 S
C1056 C1053 1.431 . S
C1056 C1066 1.476 . S
H1057 C1051 0.929 . S
C1058 O1049 1.250 . S
C1058 O1050 1.258 . S
O1059 Mn1044 2.162 . S
O1059 C1047 1.281 . S
O1060 Mn1044 2.297 . S
O1060 C1047 1.236 . S
N1061 Mn1045 2.282 1_554 S
N1061 C1062 1.328 . S
N1061 C1066 1.318 . S
C1062 N1061 1.328 . S
C1062 C1063 1.457 . S
C1062 H1067 0.929 . S
C1063 C1062 1.457 . S
C1063 C1064 1.291 . S
C1063 H1076 0.931 . S
C1064 C1063 1.291 . S
C1064 C1065 1.373 . S
C1064 H1077 0.929 . S
C1065 C1064 1.373 . S
C1065 C1066 1.396 . S
C1065 C1072 1.403 . S
C1066 C1056 1.476 . S
C1066 N1061 1.318 . S
C1066 C1065 1.396 . S
H1067 C1062 0.929 . S
O1068 Mn1044 2.385 1_554 S
O1068 C1046 1.234 . S
O1069 Mn1044 2.209 . S
O1069 Mn1045 2.215 . S
O1069 C1046 1.283 1_556 S
O1070 Mn1044 2.094 . S
O1070 C1048 1.240 . S
O1071 Mn1045 2.117 . S
O1071 C1048 1.264 . S
C1072 C1065 1.403 . S
C1072 C1073 1.399 . S
C1072 H1078 0.929 . S
C1073 C1053 1.449 . S
C1073 C1072 1.399 . S
C1073 H1079 0.930 . S
H1074 C1054 0.931 . S
H1075 C1055 0.930 . S
H1076 C1063 0.931 . S
H1077 C1064 0.929 . S
H1078 C1072 0.929 . S
H1079 C1073 0.930 . S
Mn1080 O1085 2.095 . S
Mn1080 O1095 2.162 . S
Mn1080 O1096 2.297 . S
Mn1080 O1104 2.385 . S
Mn1080 O1105 2.209 . S
Mn1080 O1106 2.094 . S
Mn1081 O1086 2.121 . S
Mn1081 N1088 2.257 . S
Mn1081 N1097 2.282 . S
Mn1081 O1105 2.215 . S
Mn1081 O1107 2.117 . S
C1082 O1104 1.234 . S
C1082 O1105 1.283 . S
C1083 O1095 1.281 . S
C1083 O1096 1.236 . S
C1084 O1106 1.240 . S
C1084 O1107 1.264 . S
O1085 Mn1080 2.095 . S
O1085 C1094 1.250 . S
O1086 Mn1081 2.121 . S
O1086 C1094 1.258 . S
C1087 N1088 1.326 . S
C1087 C1091 1.460 . S
C1087 H1093 0.929 . S
N1088 Mn1081 2.257 . S
N1088 C1087 1.326 . S
N1088 C1092 1.362 . S
C1089 C1090 1.258 . S
C1089 C1092 1.431 . S
C1089 C1109 1.449 . S
C1090 C1089 1.258 . S
C1090 C1091 1.477 . S
C1090 H1110 0.931 . S
C1091 C1087 1.460 . S
C1091 C1090 1.477 . S
C1091 H1111 0.930 . S
C1092 N1088 1.362 . S
C1092 C1089 1.431 . S
C1092 C1102 1.476 . S
H1093 C1087 0.929 . S
C1094 O1085 1.250 . S
C1094 O1086 1.258 . S
O1095 Mn1080 2.162 . S
O1095 C1083 1.281 . S
O1096 Mn1080 2.297 . S
O1096 C1083 1.236 . S
N1097 Mn1081 2.282 . S
N1097 C1098 1.328 . S
N1097 C1102 1.318 . S
C1098 N1097 1.328 . S
C1098 C1099 1.457 . S
C1098 H1103 0.929 . S
C1099 C1098 1.457 . S
C1099 C1100 1.291 . S
C1099 H1112 0.931 . S
C1100 C1099 1.291 . S
C1100 C1101 1.373 . S
C1100 H1113 0.929 . S
C1101 C1100 1.373 . S
C1101 C1102 1.396 . S
C1101 C1108 1.403 . S
C1102 C1092 1.476 . S
C1102 N1097 1.318 . S
C1102 C1101 1.396 . S
H1103 C1098 0.929 . S
O1104 Mn1080 2.385 . S
O1104 C1082 1.234 . S
O1105 Mn1080 2.209 . S
O1105 Mn1081 2.215 . S
O1105 C1082 1.283 . S
O1106 Mn1080 2.094 . S
O1106 C1084 1.240 . S
O1107 Mn1081 2.117 . S
O1107 C1084 1.264 . S
C1108 C1101 1.403 . S
C1108 C1109 1.399 . S
C1108 H1114 0.929 1_455 S
C1109 C1089 1.449 . S
C1109 C1108 1.399 . S
C1109 H1115 0.930 . S
H1110 C1090 0.931 . S
H1111 C1091 0.930 . S
H1112 C1099 0.931 . S
H1113 C1100 0.929 . S
H1114 C1108 0.929 1_655 S
H1115 C1109 0.930 . S
Mn1116 O1121 2.095 . S
Mn1116 O1131 2.162 . S
Mn1116 O1132 2.297 . S
Mn1116 O1140 2.385 . S
Mn1116 O1141 2.209 . S
Mn1116 O1142 2.094 . S
Mn1117 O1122 2.121 . S
Mn1117 N1124 2.257 . S
Mn1117 N1133 2.282 . S
Mn1117 O1141 2.215 . S
Mn1117 O1143 2.117 . S
C1118 O1140 1.234 . S
C1118 O1141 1.283 . S
C1119 O1131 1.281 . S
C1119 O1132 1.236 . S
C1120 O1142 1.240 . S
C1120 O1143 1.264 . S
O1121 Mn1116 2.095 . S
O1121 C1130 1.250 . S
O1122 Mn1117 2.121 . S
O1122 C1130 1.258 . S
C1123 N1124 1.326 . S
C1123 C1127 1.460 . S
C1123 H1129 0.929 . S
N1124 Mn1117 2.257 . S
N1124 C1123 1.326 . S
N1124 C1128 1.362 . S
C1125 C1126 1.258 . S
C1125 C1128 1.431 . S
C1125 C1145 1.449 . S
C1126 C1125 1.258 . S
C1126 C1127 1.477 . S
C1126 H1146 0.931 . S
C1127 C1123 1.460 . S
C1127 C1126 1.477 . S
C1127 H1147 0.930 . S
C1128 N1124 1.362 . S
C1128 C1125 1.431 . S
C1128 C1138 1.476 . S
H1129 C1123 0.929 . S
C1130 O1121 1.250 . S
C1130 O1122 1.258 . S
O1131 Mn1116 2.162 . S
O1131 C1119 1.281 . S
O1132 Mn1116 2.297 . S
O1132 C1119 1.236 . S
N1133 Mn1117 2.282 . S
N1133 C1134 1.328 . S
N1133 C1138 1.318 . S
C1134 N1133 1.328 . S
C1134 C1135 1.457 . S
C1134 H1139 0.929 . S
C1135 C1134 1.457 . S
C1135 C1136 1.291 . S
C1135 H1148 0.931 . S
C1136 C1135 1.291 . S
C1136 C1137 1.373 . S
C1136 H1149 0.929 . S
C1137 C1136 1.373 . S
C1137 C1138 1.396 . S
C1137 C1144 1.403 . S
C1138 C1128 1.476 . S
C1138 N1133 1.318 . S
C1138 C1137 1.396 . S
H1139 C1134 0.929 . S
O1140 Mn1116 2.385 . S
O1140 C1118 1.234 . S
O1141 Mn1116 2.209 . S
O1141 Mn1117 2.215 . S
O1141 C1118 1.283 . S
O1142 Mn1116 2.094 . S
O1142 C1120 1.240 . S
O1143 Mn1117 2.117 . S
O1143 C1120 1.264 . S
C1144 C1137 1.403 . S
C1144 C1145 1.399 . S
C1144 H1150 0.929 . S
C1145 C1125 1.449 . S
C1145 C1144 1.399 . S
C1145 H1151 0.930 . S
H1146 C1126 0.931 . S
H1147 C1127 0.930 . S
H1148 C1135 0.931 . S
H1149 C1136 0.929 . S
H1150 C1144 0.929 . S
H1151 C1145 0.930 . S
Mn1152 O1157 2.095 . S
Mn1152 O1167 2.162 . S
Mn1152 O1168 2.297 . S
Mn1152 O1176 2.385 . S
Mn1152 O1177 2.209 . S
Mn1152 O1178 2.094 . S
Mn1153 O1158 2.121 . S
Mn1153 N1160 2.257 . S
Mn1153 N1169 2.282 . S
Mn1153 O1177 2.215 . S
Mn1153 O1179 2.117 . S
C1154 O1176 1.234 . S
C1154 O1177 1.283 . S
C1155 O1167 1.281 . S
C1155 O1168 1.236 . S
C1156 O1178 1.240 . S
C1156 O1179 1.264 . S
O1157 Mn1152 2.095 . S
O1157 C1166 1.250 . S
O1158 Mn1153 2.121 . S
O1158 C1166 1.258 . S
C1159 N1160 1.326 . S
C1159 C1163 1.460 . S
C1159 H1165 0.929 . S
N1160 Mn1153 2.257 . S
N1160 C1159 1.326 . S
N1160 C1164 1.362 . S
C1161 C1162 1.258 . S
C1161 C1164 1.431 . S
C1161 C1181 1.449 . S
C1162 C1161 1.258 . S
C1162 C1163 1.477 . S
C1162 H1182 0.931 . S
C1163 C1159 1.460 . S
C1163 C1162 1.477 . S
C1163 H1183 0.930 . S
C1164 N1160 1.362 . S
C1164 C1161 1.431 . S
C1164 C1174 1.476 . S
H1165 C1159 0.929 . S
C1166 O1157 1.250 . S
C1166 O1158 1.258 . S
O1167 Mn1152 2.162 . S
O1167 C1155 1.281 . S
O1168 Mn1152 2.297 . S
O1168 C1155 1.236 . S
N1169 Mn1153 2.282 . S
N1169 C1170 1.328 . S
N1169 C1174 1.318 . S
C1170 N1169 1.328 . S
C1170 C1171 1.457 . S
C1170 H1175 0.929 . S
C1171 C1170 1.457 . S
C1171 C1172 1.291 . S
C1171 H1184 0.931 . S
C1172 C1171 1.291 . S
C1172 C1173 1.373 . S
C1172 H1185 0.929 . S
C1173 C1172 1.373 . S
C1173 C1174 1.396 . S
C1173 C1180 1.403 . S
C1174 C1164 1.476 . S
C1174 N1169 1.318 . S
C1174 C1173 1.396 . S
H1175 C1170 0.929 . S
O1176 Mn1152 2.385 . S
O1176 C1154 1.234 . S
O1177 Mn1152 2.209 . S
O1177 Mn1153 2.215 . S
O1177 C1154 1.283 . S
O1178 Mn1152 2.094 . S
O1178 C1156 1.240 . S
O1179 Mn1153 2.117 . S
O1179 C1156 1.264 . S
C1180 C1173 1.403 . S
C1180 C1181 1.399 . S
C1180 H1186 0.929 . S
C1181 C1161 1.449 . S
C1181 C1180 1.399 . S
C1181 H1187 0.930 . S
H1182 C1162 0.931 . S
H1183 C1163 0.930 . S
H1184 C1171 0.931 . S
H1185 C1172 0.929 . S
H1186 C1180 0.929 . S
H1187 C1181 0.930 . S
Mn1188 O1193 2.095 . S
Mn1188 O1203 2.162 . S
Mn1188 O1204 2.297 . S
Mn1188 O1212 2.385 . S
Mn1188 O1213 2.209 . S
Mn1188 O1214 2.094 . S
Mn1189 O1194 2.121 . S
Mn1189 N1196 2.257 . S
Mn1189 N1205 2.282 . S
Mn1189 O1213 2.215 . S
Mn1189 O1215 2.117 . S
C1190 O1212 1.234 . S
C1190 O1213 1.283 . S
C1191 O1203 1.281 . S
C1191 O1204 1.236 . S
C1192 O1214 1.240 . S
C1192 O1215 1.264 . S
O1193 Mn1188 2.095 . S
O1193 C1202 1.250 . S
O1194 Mn1189 2.121 . S
O1194 C1202 1.258 . S
C1195 N1196 1.326 . S
C1195 C1199 1.460 . S
C1195 H1201 0.929 . S
N1196 Mn1189 2.257 . S
N1196 C1195 1.326 . S
N1196 C1200 1.362 . S
C1197 C1198 1.258 . S
C1197 C1200 1.431 . S
C1197 C1217 1.449 . S
C1198 C1197 1.258 . S
C1198 C1199 1.477 . S
C1198 H1218 0.931 . S
C1199 C1195 1.460 . S
C1199 C1198 1.477 . S
C1199 H1219 0.930 . S
C1200 N1196 1.362 . S
C1200 C1197 1.431 . S
C1200 C1210 1.476 . S
H1201 C1195 0.929 . S
C1202 O1193 1.250 . S
C1202 O1194 1.258 . S
O1203 Mn1188 2.162 . S
O1203 C1191 1.281 . S
O1204 Mn1188 2.297 . S
O1204 C1191 1.236 . S
N1205 Mn1189 2.282 . S
N1205 C1206 1.328 . S
N1205 C1210 1.318 . S
C1206 N1205 1.328 . S
C1206 C1207 1.457 . S
C1206 H1211 0.929 . S
C1207 C1206 1.457 . S
C1207 C1208 1.291 . S
C1207 H1220 0.931 . S
C1208 C1207 1.291 . S
C1208 C1209 1.373 . S
C1208 H1221 0.929 . S
C1209 C1208 1.373 . S
C1209 C1210 1.396 . S
C1209 C1216 1.403 . S
C1210 C1200 1.476 . S
C1210 N1205 1.318 . S
C1210 C1209 1.396 . S
H1211 C1206 0.929 . S
O1212 Mn1188 2.385 . S
O1212 C1190 1.234 . S
O1213 Mn1188 2.209 . S
O1213 Mn1189 2.215 . S
O1213 C1190 1.283 . S
O1214 Mn1188 2.094 . S
O1214 C1192 1.240 . S
O1215 Mn1189 2.117 . S
O1215 C1192 1.264 . S
C1216 C1209 1.403 . S
C1216 C1217 1.399 . S
C1216 H1222 0.929 . S
C1217 C1197 1.449 . S
C1217 C1216 1.399 . S
C1217 H1223 0.930 . S
H1218 C1198 0.931 . S
H1219 C1199 0.930 . S
H1220 C1207 0.931 . S
H1221 C1208 0.929 . S
H1222 C1216 0.929 . S
H1223 C1217 0.930 . S
Mn1224 O1229 2.095 . S
Mn1224 O1239 2.162 . S
Mn1224 O1240 2.297 . S
Mn1224 O1248 2.385 . S
Mn1224 O1249 2.209 . S
Mn1224 O1250 2.094 . S
Mn1225 O1230 2.121 . S
Mn1225 N1232 2.257 . S
Mn1225 N1241 2.282 . S
Mn1225 O1249 2.215 . S
Mn1225 O1251 2.117 . S
C1226 O1248 1.234 . S
C1226 O1249 1.283 . S
C1227 O1239 1.281 . S
C1227 O1240 1.236 . S
C1228 O1250 1.240 . S
C1228 O1251 1.264 . S
O1229 Mn1224 2.095 . S
O1229 C1238 1.250 . S
O1230 Mn1225 2.121 . S
O1230 C1238 1.258 . S
C1231 N1232 1.326 . S
C1231 C1235 1.460 . S
C1231 H1237 0.929 . S
N1232 Mn1225 2.257 . S
N1232 C1231 1.326 . S
N1232 C1236 1.362 . S
C1233 C1234 1.258 . S
C1233 C1236 1.431 . S
C1233 C1253 1.449 . S
C1234 C1233 1.258 . S
C1234 C1235 1.477 . S
C1234 H1254 0.931 . S
C1235 C1231 1.460 . S
C1235 C1234 1.477 . S
C1235 H1255 0.930 . S
C1236 N1232 1.362 . S
C1236 C1233 1.431 . S
C1236 C1246 1.476 . S
H1237 C1231 0.929 . S
C1238 O1229 1.250 . S
C1238 O1230 1.258 . S
O1239 Mn1224 2.162 . S
O1239 C1227 1.281 . S
O1240 Mn1224 2.297 . S
O1240 C1227 1.236 . S
N1241 Mn1225 2.282 . S
N1241 C1242 1.328 . S
N1241 C1246 1.318 . S
C1242 N1241 1.328 . S
C1242 C1243 1.457 . S
C1242 H1247 0.929 . S
C1243 C1242 1.457 . S
C1243 C1244 1.291 . S
C1243 H1256 0.931 . S
C1244 C1243 1.291 . S
C1244 C1245 1.373 . S
C1244 H1257 0.929 . S
C1245 C1244 1.373 . S
C1245 C1246 1.396 . S
C1245 C1252 1.403 . S
C1246 C1236 1.476 . S
C1246 N1241 1.318 . S
C1246 C1245 1.396 . S
H1247 C1242 0.929 . S
O1248 Mn1224 2.385 . S
O1248 C1226 1.234 . S
O1249 Mn1224 2.209 . S
O1249 Mn1225 2.215 . S
O1249 C1226 1.283 . S
O1250 Mn1224 2.094 . S
O1250 C1228 1.240 . S
O1251 Mn1225 2.117 . S
O1251 C1228 1.264 . S
C1252 C1245 1.403 . S
C1252 C1253 1.399 . S
C1252 H1258 0.929 . S
C1253 C1233 1.449 . S
C1253 C1252 1.399 . S
C1253 H1259 0.930 . S
H1254 C1234 0.931 . S
H1255 C1235 0.930 . S
H1256 C1243 0.931 . S
H1257 C1244 0.929 . S
H1258 C1252 0.929 . S
H1259 C1253 0.930 . S
Mn1260 O1265 2.095 . S
Mn1260 O1275 2.162 . S
Mn1260 O1276 2.297 . S
Mn1260 O1284 2.385 . S
Mn1260 O1285 2.209 . S
Mn1260 O1286 2.094 . S
Mn1261 O1266 2.121 . S
Mn1261 N1268 2.257 . S
Mn1261 N1277 2.282 . S
Mn1261 O1285 2.215 . S
Mn1261 O1287 2.117 . S
C1262 O1284 1.234 . S
C1262 O1285 1.283 . S
C1263 O1275 1.281 . S
C1263 O1276 1.236 . S
C1264 O1286 1.240 . S
C1264 O1287 1.264 . S
O1265 Mn1260 2.095 . S
O1265 C1274 1.250 . S
O1266 Mn1261 2.121 . S
O1266 C1274 1.258 . S
C1267 N1268 1.326 . S
C1267 C1271 1.460 . S
C1267 H1273 0.929 . S
N1268 Mn1261 2.257 . S
N1268 C1267 1.326 . S
N1268 C1272 1.362 . S
C1269 C1270 1.258 . S
C1269 C1272 1.431 . S
C1269 C1289 1.449 . S
C1270 C1269 1.258 . S
C1270 C1271 1.477 . S
C1270 H1290 0.931 . S
C1271 C1267 1.460 . S
C1271 C1270 1.477 . S
C1271 H1291 0.930 . S
C1272 N1268 1.362 . S
C1272 C1269 1.431 . S
C1272 C1282 1.476 . S
H1273 C1267 0.929 . S
C1274 O1265 1.250 . S
C1274 O1266 1.258 . S
O1275 Mn1260 2.162 . S
O1275 C1263 1.281 . S
O1276 Mn1260 2.297 . S
O1276 C1263 1.236 . S
N1277 Mn1261 2.282 . S
N1277 C1278 1.328 . S
N1277 C1282 1.318 . S
C1278 N1277 1.328 . S
C1278 C1279 1.457 . S
C1278 H1283 0.929 . S
C1279 C1278 1.457 . S
C1279 C1280 1.291 . S
C1279 H1292 0.931 . S
C1280 C1279 1.291 . S
C1280 C1281 1.373 . S
C1280 H1293 0.929 . S
C1281 C1280 1.373 . S
C1281 C1282 1.396 . S
C1281 C1288 1.403 . S
C1282 C1272 1.476 . S
C1282 N1277 1.318 . S
C1282 C1281 1.396 . S
H1283 C1278 0.929 . S
O1284 Mn1260 2.385 . S
O1284 C1262 1.234 . S
O1285 Mn1260 2.209 . S
O1285 Mn1261 2.215 . S
O1285 C1262 1.283 . S
O1286 Mn1260 2.094 . S
O1286 C1264 1.240 . S
O1287 Mn1261 2.117 . S
O1287 C1264 1.264 . S
C1288 C1281 1.403 . S
C1288 C1289 1.399 . S
C1288 H1294 0.929 . S
C1289 C1269 1.449 . S
C1289 C1288 1.399 . S
C1289 H1295 0.930 . S
H1290 C1270 0.931 . S
H1291 C1271 0.930 . S
H1292 C1279 0.931 . S
H1293 C1280 0.929 . S
H1294 C1288 0.929 . S
H1295 C1289 0.930 . S
H1296 C1302 0.930 . S
H1297 C1306 0.930 . S
H1298 C1311 0.929 . S
H1299 C1309 0.929 . S
H1300 C1304 0.929 . S
H1301 C1310 0.929 . S
C1302 H1296 0.930 . S
C1302 C1303 1.367 . S
C1302 C1310 1.378 . S
C1303 C1302 1.367 . S
C1303 C1311 1.433 . S
C1304 H1300 0.929 . S
C1304 C1306 1.378 . S
C1304 C1308 1.350 1_554 S
C1305 C1308 1.463 . S
C1305 C1310 1.350 . S
C1305 N1313 1.427 . S
C1306 H1297 0.930 . S
C1306 C1304 1.378 . S
C1306 C1307 1.367 . S
C1307 C1306 1.367 . S
C1307 C1309 1.433 . S
C1308 C1304 1.350 1_556 S
C1308 C1305 1.463 . S
C1308 N1312 1.427 1_556 S
C1309 H1299 0.929 . S
C1309 C1307 1.433 . S
C1309 N1312 1.384 . S
C1310 H1301 0.929 . S
C1310 C1302 1.378 . S
C1310 C1305 1.350 . S
C1311 H1298 0.929 . S
C1311 C1303 1.433 . S
C1311 N1313 1.384 . S
N1312 C1308 1.427 1_554 S
N1312 C1309 1.384 . S
N1313 C1305 1.427 . S
N1313 C1311 1.384 . S
H1314 C1320 0.930 . S
H1315 C1324 0.930 . S
H1316 C1329 0.929 . S
H1317 C1327 0.929 . S
H1318 C1322 0.929 . S
H1319 C1328 0.929 . S
C1320 H1314 0.930 . S
C1320 C1321 1.367 . S
C1320 C1328 1.378 . S
C1321 C1320 1.367 . S
C1321 C1329 1.433 . S
C1322 H1318 0.929 . S
C1322 C1324 1.378 . S
C1322 C1326 1.350 1_554 S
C1323 C1326 1.463 . S
C1323 C1328 1.350 . S
C1323 N1331 1.427 . S
C1324 H1315 0.930 . S
C1324 C1322 1.378 . S
C1324 C1325 1.367 . S
C1325 C1324 1.367 . S
C1325 C1327 1.433 . S
C1326 C1322 1.350 1_556 S
C1326 C1323 1.463 . S
C1326 N1330 1.427 1_556 S
C1327 H1317 0.929 . S
C1327 C1325 1.433 . S
C1327 N1330 1.384 . S
C1328 H1319 0.929 . S
C1328 C1320 1.378 . S
C1328 C1323 1.350 . S
C1329 H1316 0.929 . S
C1329 C1321 1.433 . S
C1329 N1331 1.384 . S
N1330 C1326 1.427 1_554 S
N1330 C1327 1.384 . S
N1331 C1323 1.427 . S
N1331 C1329 1.384 . S
H1332 C1338 0.930 . S
H1333 C1342 0.930 . S
H1334 C1347 0.929 . S
H1335 C1345 0.929 . S
H1336 C1340 0.929 . S
H1337 C1346 0.929 1_556 S
C1338 H1332 0.930 . S
C1338 C1339 1.367 . S
C1338 C1346 1.378 . S
C1339 C1338 1.367 . S
C1339 C1347 1.433 . S
C1340 H1336 0.929 . S
C1340 C1342 1.378 . S
C1340 C1344 1.350 . S
C1341 C1344 1.463 . S
C1341 C1346 1.350 1_556 S
C1341 N1349 1.427 1_556 S
C1342 H1333 0.930 . S
C1342 C1340 1.378 . S
C1342 C1343 1.367 . S
C1343 C1342 1.367 . S
C1343 C1345 1.433 . S
C1344 C1340 1.350 . S
C1344 C1341 1.463 . S
C1344 N1348 1.427 . S
C1345 H1335 0.929 . S
C1345 C1343 1.433 . S
C1345 N1348 1.384 . S
C1346 H1337 0.929 1_554 S
C1346 C1338 1.378 . S
C1346 C1341 1.350 1_554 S
C1347 H1334 0.929 . S
C1347 C1339 1.433 . S
C1347 N1349 1.384 . S
N1348 C1344 1.427 . S
N1348 C1345 1.384 . S
N1349 C1341 1.427 1_554 S
N1349 C1347 1.384 . S
H1350 C1356 0.930 . S
H1351 C1360 0.930 . S
H1352 C1365 0.929 . S
H1353 C1363 0.929 . S
H1354 C1358 0.929 . S
H1355 C1364 0.929 . S
C1356 H1350 0.930 . S
C1356 C1357 1.367 . S
C1356 C1364 1.378 . S
C1357 C1356 1.367 . S
C1357 C1365 1.433 . S
C1358 H1354 0.929 . S
C1358 C1360 1.378 . S
C1358 C1362 1.350 . S
C1359 C1362 1.463 . S
C1359 C1364 1.350 . S
C1359 N1367 1.427 . S
C1360 H1351 0.930 . S
C1360 C1358 1.378 . S
C1360 C1361 1.367 . S
C1361 C1360 1.367 . S
C1361 C1363 1.433 . S
C1362 C1358 1.350 . S
C1362 C1359 1.463 . S
C1362 N1366 1.427 . S
C1363 H1353 0.929 . S
C1363 C1361 1.433 . S
C1363 N1366 1.384 . S
C1364 H1355 0.929 . S
C1364 C1356 1.378 . S
C1364 C1359 1.350 . S
C1365 H1352 0.929 . S
C1365 C1357 1.433 . S
C1365 N1367 1.384 . S
N1366 C1362 1.427 . S
N1366 C1363 1.384 . S
N1367 C1359 1.427 . S
N1367 C1365 1.384 . S
H1368 C1374 0.930 . S
H1369 C1378 0.930 . S
H1370 C1383 0.929 . S
H1371 C1381 0.929 . S
H1372 C1376 0.929 . S
H1373 C1382 0.929 . S
C1374 H1368 0.930 . S
C1374 C1375 1.367 . S
C1374 C1382 1.378 . S
C1375 C1374 1.367 . S
C1375 C1383 1.433 . S
C1376 H1372 0.929 . S
C1376 C1378 1.378 . S
C1376 C1380 1.350 . S
C1377 C1380 1.463 . S
C1377 C1382 1.350 . S
C1377 N1385 1.427 . S
C1378 H1369 0.930 . S
C1378 C1376 1.378 . S
C1378 C1379 1.367 . S
C1379 C1378 1.367 . S
C1379 C1381 1.433 . S
C1380 C1376 1.350 . S
C1380 C1377 1.463 . S
C1380 N1384 1.427 . S
C1381 H1371 0.929 . S
C1381 C1379 1.433 . S
C1381 N1384 1.384 . S
C1382 H1373 0.929 . S
C1382 C1374 1.378 . S
C1382 C1377 1.350 . S
C1383 H1370 0.929 . S
C1383 C1375 1.433 . S
C1383 N1385 1.384 . S
N1384 C1380 1.427 . S
N1384 C1381 1.384 . S
N1385 C1377 1.427 . S
N1385 C1383 1.384 . S
H1386 C1392 0.930 . S
H1387 C1396 0.930 . S
H1388 C1401 0.929 . S
H1389 C1399 0.929 . S
H1390 C1394 0.929 . S
H1391 C1400 0.929 . S
C1392 H1386 0.930 . S
C1392 C1393 1.367 . S
C1392 C1400 1.378 . S
C1393 C1392 1.367 . S
C1393 C1401 1.433 . S
C1394 H1390 0.929 . S
C1394 C1396 1.378 . S
C1394 C1398 1.350 . S
C1395 C1398 1.463 . S
C1395 C1400 1.350 . S
C1395 N1403 1.427 . S
C1396 H1387 0.930 . S
C1396 C1394 1.378 . S
C1396 C1397 1.367 . S
C1397 C1396 1.367 . S
C1397 C1399 1.433 . S
C1398 C1394 1.350 . S
C1398 C1395 1.463 . S
C1398 N1402 1.427 . S
C1399 H1389 0.929 . S
C1399 C1397 1.433 . S
C1399 N1402 1.384 . S
C1400 H1391 0.929 . S
C1400 C1392 1.378 . S
C1400 C1395 1.350 . S
C1401 H1388 0.929 . S
C1401 C1393 1.433 . S
C1401 N1403 1.384 . S
N1402 C1398 1.427 . S
N1402 C1399 1.384 . S
N1403 C1395 1.427 . S
N1403 C1401 1.384 . S
H1404 C1410 0.930 . S
H1405 C1414 0.930 . S
H1406 C1419 0.929 . S
H1407 C1417 0.929 . S
H1408 C1412 0.929 1_554 S
H1409 C1418 0.929 . S
C1410 H1404 0.930 . S
C1410 C1411 1.367 . S
C1410 C1418 1.378 . S
C1411 C1410 1.367 . S
C1411 C1419 1.433 . S
C1412 H1408 0.929 1_556 S
C1412 C1414 1.378 . S
C1412 C1416 1.350 1_556 S
C1413 C1416 1.463 . S
C1413 C1418 1.350 . S
C1413 N1421 1.427 . S
C1414 H1405 0.930 . S
C1414 C1412 1.378 . S
C1414 C1415 1.367 . S
C1415 C1414 1.367 . S
C1415 C1417 1.433 . S
C1416 C1412 1.350 1_554 S
C1416 C1413 1.463 . S
C1416 N1420 1.427 1_554 S
C1417 H1407 0.929 . S
C1417 C1415 1.433 . S
C1417 N1420 1.384 . S
C1418 H1409 0.929 . S
C1418 C1410 1.378 . S
C1418 C1413 1.350 . S
C1419 H1406 0.929 . S
C1419 C1411 1.433 . S
C1419 N1421 1.384 . S
N1420 C1416 1.427 1_556 S
N1420 C1417 1.384 . S
N1421 C1413 1.427 . S
N1421 C1419 1.384 . S
H1422 C1428 0.930 . S
H1423 C1432 0.930 . S
H1424 C1437 0.929 . S
H1425 C1435 0.929 . S
H1426 C1430 0.929 . S
H1427 C1436 0.929 . S
C1428 H1422 0.930 . S
C1428 C1429 1.367 . S
C1428 C1436 1.378 . S
C1429 C1428 1.367 . S
C1429 C1437 1.433 . S
C1430 H1426 0.929 . S
C1430 C1432 1.378 . S
C1430 C1434 1.350 1_556 S
C1431 C1434 1.463 . S
C1431 C1436 1.350 . S
C1431 N1439 1.427 . S
C1432 H1423 0.930 . S
C1432 C1430 1.378 . S
C1432 C1433 1.367 . S
C1433 C1432 1.367 . S
C1433 C1435 1.433 . S
C1434 C1430 1.350 1_554 S
C1434 C1431 1.463 . S
C1434 N1438 1.427 1_554 S
C1435 H1425 0.929 . S
C1435 C1433 1.433 . S
C1435 N1438 1.384 . S
C1436 H1427 0.929 . S
C1436 C1428 1.378 . S
C1436 C1431 1.350 . S
C1437 H1424 0.929 . S
C1437 C1429 1.433 . S
C1437 N1439 1.384 . S
N1438 C1434 1.427 1_556 S
N1438 C1435 1.384 . S
N1439 C1431 1.427 . S
N1439 C1437 1.384 . S
H1440 C1446 0.930 . S
H1441 C1450 0.930 . S
H1442 C1455 0.929 . S
H1443 C1453 0.929 . S
H1444 C1448 0.929 . S
H1445 C1454 0.937 . S
C1446 H1440 0.930 . S
C1446 C1447 1.367 . S
C1446 C1454 1.378 . S
C1447 C1446 1.367 . S
C1447 C1455 1.433 . S
C1448 H1444 0.929 . S
C1448 C1450 1.378 . S
C1448 C1452 1.350 . S
C1449 C1452 1.463 . S
C1449 C1454 1.350 1_554 S
C1449 N1457 1.427 1_554 S
C1450 H1441 0.930 . S
C1450 C1448 1.378 . S
C1450 C1451 1.367 . S
C1451 C1450 1.367 . S
C1451 C1453 1.433 . S
C1452 C1448 1.350 . S
C1452 C1449 1.463 . S
C1452 N1456 1.427 . S
C1453 H1443 0.929 . S
C1453 C1451 1.433 . S
C1453 N1456 1.384 . S
C1454 H1445 0.937 . S
C1454 C1446 1.378 . S
C1454 C1449 1.350 1_556 S
C1455 H1442 0.929 . S
C1455 C1447 1.433 . S
C1455 N1457 1.384 . S
N1456 C1452 1.427 . S
N1456 C1453 1.384 . S
N1457 C1449 1.427 1_556 S
N1457 C1455 1.384 . S
H1458 C1464 0.930 . S
H1459 C1468 0.930 . S
H1460 C1473 0.929 . S
H1461 C1471 0.929 . S
H1462 C1466 0.929 . S
H1463 C1472 0.929 . S
C1464 H1458 0.930 . S
C1464 C1465 1.367 . S
C1464 C1472 1.378 . S
C1465 C1464 1.367 . S
C1465 C1473 1.433 . S
C1466 H1462 0.929 . S
C1466 C1468 1.378 . S
C1466 C1470 1.350 . S
C1467 C1470 1.463 . S
C1467 C1472 1.350 . S
C1467 N1475 1.427 . S
C1468 H1459 0.930 . S
C1468 C1466 1.378 . S
C1468 C1469 1.367 . S
C1469 C1468 1.367 . S
C1469 C1471 1.433 . S
C1470 C1466 1.350 . S
C1470 C1467 1.463 . S
C1470 N1474 1.427 . S
C1471 H1461 0.929 . S
C1471 C1469 1.433 . S
C1471 N1474 1.384 . S
C1472 H1463 0.929 . S
C1472 C1464 1.378 . S
C1472 C1467 1.350 . S
C1473 H1460 0.929 . S
C1473 C1465 1.433 . S
C1473 N1475 1.384 . S
N1474 C1470 1.427 . S
N1474 C1471 1.384 . S
N1475 C1467 1.427 . S
N1475 C1473 1.384 . S
H1476 C1482 0.930 . S
H1477 C1486 0.930 . S
H1478 C1491 0.929 . S
H1479 C1489 0.929 . S
H1480 C1484 0.929 . S
H1481 C1490 0.929 . S
C1482 H1476 0.930 . S
C1482 C1483 1.367 . S
C1482 C1490 1.378 . S
C1483 C1482 1.367 . S
C1483 C1491 1.433 . S
C1484 H1480 0.929 . S
C1484 C1486 1.378 . S
C1484 C1488 1.350 . S
C1485 C1488 1.463 . S
C1485 C1490 1.350 . S
C1485 N1493 1.427 . S
C1486 H1477 0.930 . S
C1486 C1484 1.378 . S
C1486 C1487 1.367 . S
C1487 C1486 1.367 . S
C1487 C1489 1.433 . S
C1488 C1484 1.350 . S
C1488 C1485 1.463 . S
C1488 N1492 1.427 . S
C1489 H1479 0.929 . S
C1489 C1487 1.433 . S
C1489 N1492 1.384 . S
C1490 H1481 0.929 . S
C1490 C1482 1.378 . S
C1490 C1485 1.350 . S
C1491 H1478 0.929 . S
C1491 C1483 1.433 . S
C1491 N1493 1.384 . S
N1492 C1488 1.427 . S
N1492 C1489 1.384 . S
N1493 C1485 1.427 . S
N1493 C1491 1.384 . S
H1494 C1500 0.930 . S
H1495 C1504 0.930 . S
H1496 C1509 0.929 . S
H1497 C1507 0.929 . S
H1498 C1502 0.929 . S
H1499 C1508 0.929 . S
C1500 H1494 0.930 . S
C1500 C1501 1.367 . S
C1500 C1508 1.378 . S
C1501 C1500 1.367 . S
C1501 C1509 1.433 . S
C1502 H1498 0.929 . S
C1502 C1504 1.378 . S
C1502 C1506 1.350 . S
C1503 C1506 1.463 . S
C1503 C1508 1.350 . S
C1503 N1511 1.427 . S
C1504 H1495 0.930 . S
C1504 C1502 1.378 . S
C1504 C1505 1.367 . S
C1505 C1504 1.367 . S
C1505 C1507 1.433 . S
C1506 C1502 1.350 . S
C1506 C1503 1.463 . S
C1506 N1510 1.427 . S
C1507 H1497 0.929 . S
C1507 C1505 1.433 . S
C1507 N1510 1.384 . S
C1508 H1499 0.929 . S
C1508 C1500 1.378 . S
C1508 C1503 1.350 . S
C1509 H1496 0.929 . S
C1509 C1501 1.433 . S
C1509 N1511 1.384 . S
N1510 C1506 1.427 . S
N1510 C1507 1.384 . S
N1511 C1503 1.427 . S
N1511 C1509 1.384 . S
H1512 C1518 0.930 . S
H1513 C1522 0.930 . S
H1514 C1527 0.929 . S
H1515 C1525 0.929 . S
H1516 C1520 0.929 . S
H1517 C1526 0.929 . S
C1518 H1512 0.930 . S
C1518 C1519 1.367 . S
C1518 C1526 1.378 . S
C1519 C1518 1.367 . S
C1519 C1527 1.433 . S
C1520 H1516 0.929 . S
C1520 C1522 1.378 . S
C1520 C1524 1.350 . S
C1521 C1524 1.463 . S
C1521 C1526 1.350 . S
C1521 N1529 1.427 . S
C1522 H1513 0.930 . S
C1522 C1520 1.378 . S
C1522 C1523 1.367 . S
C1523 C1522 1.367 . S
C1523 C1525 1.433 . S
C1524 C1520 1.350 . S
C1524 C1521 1.463 . S
C1524 N1528 1.427 . S
C1525 H1515 0.929 . S
C1525 C1523 1.433 . S
C1525 N1528 1.384 . S
C1526 H1517 0.929 . S
C1526 C1518 1.378 . S
C1526 C1521 1.350 . S
C1527 H1514 0.929 . S
C1527 C1519 1.433 . S
C1527 N1529 1.384 . S
N1528 C1524 1.427 . S
N1528 C1525 1.384 . S
N1529 C1521 1.427 . S
N1529 C1527 1.384 . S
H1530 C1536 0.930 . S
H1531 C1540 0.930 . S
H1532 C1545 0.929 . S
H1533 C1543 0.929 . S
H1534 C1538 0.929 . S
H1535 C1544 0.929 . S
C1536 H1530 0.930 . S
C1536 C1537 1.367 . S
C1536 C1544 1.378 . S
C1537 C1536 1.367 . S
C1537 C1545 1.433 . S
C1538 H1534 0.929 . S
C1538 C1540 1.378 . S
C1538 C1542 1.350 . S
C1539 C1542 1.463 . S
C1539 C1544 1.350 . S
C1539 N1547 1.427 . S
C1540 H1531 0.930 . S
C1540 C1538 1.378 . S
C1540 C1541 1.367 . S
C1541 C1540 1.367 . S
C1541 C1543 1.433 . S
C1542 C1538 1.350 . S
C1542 C1539 1.463 . S
C1542 N1546 1.427 . S
C1543 H1533 0.929 . S
C1543 C1541 1.433 . S
C1543 N1546 1.384 . S
C1544 H1535 0.929 . S
C1544 C1536 1.378 . S
C1544 C1539 1.350 . S
C1545 H1532 0.929 . S
C1545 C1537 1.433 . S
C1545 N1547 1.384 . S
N1546 C1542 1.427 . S
N1546 C1543 1.384 . S
N1547 C1539 1.427 . S
N1547 C1545 1.384 . S
H1548 C1554 0.930 . S
H1549 C1558 0.930 . S
H1550 C1563 0.929 . S
H1551 C1561 0.929 . S
H1552 C1556 0.929 . S
H1553 C1562 0.929 . S
C1554 H1548 0.930 . S
C1554 C1555 1.367 . S
C1554 C1562 1.378 . S
C1555 C1554 1.367 . S
C1555 C1563 1.433 . S
C1556 H1552 0.929 . S
C1556 C1558 1.378 . S
C1556 C1560 1.350 . S
C1557 C1560 1.463 . S
C1557 C1562 1.350 . S
C1557 N1565 1.427 . S
C1558 H1549 0.930 . S
C1558 C1556 1.378 . S
C1558 C1559 1.367 . S
C1559 C1558 1.367 . S
C1559 C1561 1.433 . S
C1560 C1556 1.350 . S
C1560 C1557 1.463 . S
C1560 N1564 1.427 . S
C1561 H1551 0.929 . S
C1561 C1559 1.433 . S
C1561 N1564 1.384 . S
C1562 H1553 0.929 . S
C1562 C1554 1.378 . S
C1562 C1557 1.350 . S
C1563 H1550 0.929 . S
C1563 C1555 1.433 . S
C1563 N1565 1.384 . S
N1564 C1560 1.427 . S
N1564 C1561 1.384 . S
N1565 C1557 1.427 . S
N1565 C1563 1.384 . S
H1566 C1572 0.930 . S
H1567 C1576 0.930 . S
H1568 C1581 0.929 . S
H1569 C1579 0.929 . S
H1570 C1574 0.929 . S
H1571 C1580 0.929 . S
C1572 H1566 0.930 . S
C1572 C1573 1.367 . S
C1572 C1580 1.378 . S
C1573 C1572 1.367 . S
C1573 C1581 1.433 . S
C1574 H1570 0.929 . S
C1574 C1576 1.378 . S
C1574 C1578 1.350 . S
C1575 C1578 1.463 . S
C1575 C1580 1.350 . S
C1575 N1583 1.427 . S
C1576 H1567 0.930 . S
C1576 C1574 1.378 . S
C1576 C1577 1.367 . S
C1577 C1576 1.367 . S
C1577 C1579 1.433 . S
C1578 C1574 1.350 . S
C1578 C1575 1.463 . S
C1578 N1582 1.427 . S
C1579 H1569 0.929 . S
C1579 C1577 1.433 . S
C1579 N1582 1.384 . S
C1580 H1571 0.929 . S
C1580 C1572 1.378 . S
C1580 C1575 1.350 . S
C1581 H1568 0.929 . S
C1581 C1573 1.433 . S
C1581 N1583 1.384 . S
N1582 C1578 1.427 . S
N1582 C1579 1.384 . S
N1583 C1575 1.427 . S
N1583 C1581 1.384 . S
H1584 C1590 0.930 . S
H1585 C1594 0.930 . S
H1586 C1599 0.929 . S
H1587 C1597 0.929 . S
H1588 C1592 0.929 . S
H1589 C1598 0.929 . S
C1590 H1584 0.930 . S
C1590 C1591 1.367 . S
C1590 C1598 1.378 . S
C1591 C1590 1.367 . S
C1591 C1599 1.433 . S
C1592 H1588 0.929 . S
C1592 C1594 1.378 . S
C1592 C1596 1.350 . S
C1593 C1596 1.463 . S
C1593 C1598 1.350 . S
C1593 N1601 1.427 . S
C1594 H1585 0.930 . S
C1594 C1592 1.378 . S
C1594 C1595 1.367 . S
C1595 C1594 1.367 . S
C1595 C1597 1.433 . S
C1596 C1592 1.350 . S
C1596 C1593 1.463 . S
C1596 N1600 1.427 . S
C1597 H1587 0.929 . S
C1597 C1595 1.433 . S
C1597 N1600 1.384 . S
C1598 H1589 0.929 . S
C1598 C1590 1.378 . S
C1598 C1593 1.350 . S
C1599 H1586 0.929 . S
C1599 C1591 1.433 . S
C1599 N1601 1.384 . S
N1600 C1596 1.427 . S
N1600 C1597 1.384 . S
N1601 C1593 1.427 . S
N1601 C1599 1.384 . S
H1602 C1608 0.930 . S
H1603 C1612 0.930 . S
H1604 C1617 0.929 . S
H1605 C1615 0.929 . S
H1606 C1610 0.929 . S
H1607 C1616 0.929 . S
C1608 H1602 0.930 . S
C1608 C1609 1.367 . S
C1608 C1616 1.378 . S
C1609 C1608 1.367 . S
C1609 C1617 1.433 . S
C1610 H1606 0.929 . S
C1610 C1612 1.378 . S
C1610 C1614 1.350 . S
C1611 C1614 1.463 . S
C1611 C1616 1.350 . S
C1611 N1619 1.427 . S
C1612 H1603 0.930 . S
C1612 C1610 1.378 . S
C1612 C1613 1.367 . S
C1613 C1612 1.367 . S
C1613 C1615 1.433 . S
C1614 C1610 1.350 . S
C1614 C1611 1.463 . S
C1614 N1618 1.427 . S
C1615 H1605 0.929 . S
C1615 C1613 1.433 . S
C1615 N1618 1.384 . S
C1616 H1607 0.929 . S
C1616 C1608 1.378 . S
C1616 C1611 1.350 . S
C1617 H1604 0.929 . S
C1617 C1609 1.433 . S
C1617 N1619 1.384 . S
N1618 C1614 1.427 . S
N1618 C1615 1.384 . S
N1619 C1611 1.427 . S
N1619 C1617 1.384 . S
H1620 C1626 0.930 . S
H1621 C1630 0.930 . S
H1622 C1635 0.929 . S
H1623 C1633 0.929 . S
H1624 C1628 0.929 . S
H1625 C1634 0.929 . S
C1626 H1620 0.930 . S
C1626 C1627 1.367 . S
C1626 C1634 1.378 . S
C1627 C1626 1.367 . S
C1627 C1635 1.433 . S
C1628 H1624 0.929 . S
C1628 C1630 1.378 . S
C1628 C1632 1.350 . S
C1629 C1632 1.463 . S
C1629 C1634 1.350 . S
C1629 N1637 1.427 . S
C1630 H1621 0.930 . S
C1630 C1628 1.378 . S
C1630 C1631 1.367 . S
C1631 C1630 1.367 . S
C1631 C1633 1.433 . S
C1632 C1628 1.350 . S
C1632 C1629 1.463 . S
C1632 N1636 1.427 . S
C1633 H1623 0.929 . S
C1633 C1631 1.433 . S
C1633 N1636 1.384 . S
C1634 H1625 0.929 . S
C1634 C1626 1.378 . S
C1634 C1629 1.350 . S
C1635 H1622 0.929 . S
C1635 C1627 1.433 . S
C1635 N1637 1.384 . S
N1636 C1632 1.427 . S
N1636 C1633 1.384 . S
N1637 C1629 1.427 . S
N1637 C1635 1.384 . S
H1638 C1644 0.930 . S
H1639 C1648 0.930 . S
H1640 C1653 0.929 . S
H1641 C1651 0.929 . S
H1642 C1646 0.929 . S
H1643 C1652 0.929 . S
C1644 H1638 0.930 . S
C1644 C1645 1.367 . S
C1644 C1652 1.378 . S
C1645 C1644 1.367 . S
C1645 C1653 1.433 . S
C1646 H1642 0.929 . S
C1646 C1648 1.378 . S
C1646 C1650 1.350 . S
C1647 C1650 1.463 . S
C1647 C1652 1.350 . S
C1647 N1655 1.427 . S
C1648 H1639 0.930 . S
C1648 C1646 1.378 . S
C1648 C1649 1.367 . S
C1649 C1648 1.367 . S
C1649 C1651 1.433 . S
C1650 C1646 1.350 . S
C1650 C1647 1.463 . S
C1650 N1654 1.427 . S
C1651 H1641 0.929 . S
C1651 C1649 1.433 . S
C1651 N1654 1.384 . S
C1652 H1643 0.929 . S
C1652 C1644 1.378 . S
C1652 C1647 1.350 . S
C1653 H1640 0.929 . S
C1653 C1645 1.433 . S
C1653 N1655 1.384 . S
N1654 C1650 1.427 . S
N1654 C1651 1.384 . S
N1655 C1647 1.427 . S
N1655 C1653 1.384 . S
H1656 C1662 0.930 . S
H1657 C1666 0.930 . S
H1658 C1671 0.929 . S
H1659 C1669 0.929 . S
H1660 C1664 0.929 . S
H1661 C1670 0.929 . S
C1662 H1656 0.930 . S
C1662 C1663 1.367 . S
C1662 C1670 1.378 . S
C1663 C1662 1.367 . S
C1663 C1671 1.433 . S
C1664 H1660 0.929 . S
C1664 C1666 1.378 . S
C1664 C1668 1.350 . S
C1665 C1668 1.463 . S
C1665 C1670 1.350 . S
C1665 N1673 1.427 . S
C1666 H1657 0.930 . S
C1666 C1664 1.378 . S
C1666 C1667 1.367 . S
C1667 C1666 1.367 . S
C1667 C1669 1.433 . S
C1668 C1664 1.350 . S
C1668 C1665 1.463 . S
C1668 N1672 1.427 . S
C1669 H1659 0.929 . S
C1669 C1667 1.433 . S
C1669 N1672 1.384 . S
C1670 H1661 0.929 . S
C1670 C1662 1.378 . S
C1670 C1665 1.350 . S
C1671 H1658 0.929 . S
C1671 C1663 1.433 . S
C1671 N1673 1.384 . S
N1672 C1668 1.427 . S
N1672 C1669 1.384 . S
N1673 C1665 1.427 . S
N1673 C1671 1.384 . S
H1674 C1680 0.930 . S
H1675 C1684 0.930 . S
H1676 C1689 0.929 . S
H1677 C1687 0.929 . S
H1678 C1682 0.929 . S
H1679 C1688 0.929 . S
C1680 H1674 0.930 . S
C1680 C1681 1.367 . S
C1680 C1688 1.378 . S
C1681 C1680 1.367 . S
C1681 C1689 1.433 . S
C1682 H1678 0.929 . S
C1682 C1684 1.378 . S
C1682 C1686 1.350 . S
C1683 C1686 1.463 . S
C1683 C1688 1.350 . S
C1683 N1691 1.427 . S
C1684 H1675 0.930 . S
C1684 C1682 1.378 . S
C1684 C1685 1.367 . S
C1685 C1684 1.367 . S
C1685 C1687 1.433 . S
C1686 C1682 1.350 . S
C1686 C1683 1.463 . S
C1686 N1690 1.427 . S
C1687 H1677 0.929 . S
C1687 C1685 1.433 . S
C1687 N1690 1.384 . S
C1688 H1679 0.929 . S
C1688 C1680 1.378 . S
C1688 C1683 1.350 . S
C1689 H1676 0.929 . S
C1689 C1681 1.433 . S
C1689 N1691 1.384 . S
N1690 C1686 1.427 . S
N1690 C1687 1.384 . S
N1691 C1683 1.427 . S
N1691 C1689 1.384 . S
H1692 C1698 0.930 . S
H1693 C1702 0.930 . S
H1694 C1707 0.929 . S
H1695 C1705 0.929 . S
H1696 C1700 0.929 . S
H1697 C1706 0.929 . S
C1698 H1692 0.930 . S
C1698 C1699 1.367 . S
C1698 C1706 1.378 . S
C1699 C1698 1.367 . S
C1699 C1707 1.433 . S
C1700 H1696 0.929 . S
C1700 C1702 1.378 . S
C1700 C1704 1.350 . S
C1701 C1704 1.463 . S
C1701 C1706 1.350 . S
C1701 N1709 1.427 . S
C1702 H1693 0.930 . S
C1702 C1700 1.378 . S
C1702 C1703 1.367 . S
C1703 C1702 1.367 . S
C1703 C1705 1.433 . S
C1704 C1700 1.350 . S
C1704 C1701 1.463 . S
C1704 N1708 1.427 . S
C1705 H1695 0.929 . S
C1705 C1703 1.433 . S
C1705 N1708 1.384 . S
C1706 H1697 0.929 . S
C1706 C1698 1.378 . S
C1706 C1701 1.350 . S
C1707 H1694 0.929 . S
C1707 C1699 1.433 . S
C1707 N1709 1.384 . S
N1708 C1704 1.427 . S
N1708 C1705 1.384 . S
N1709 C1701 1.427 . S
N1709 C1707 1.384 . S
H1710 C1716 0.930 . S
H1711 C1720 0.930 . S
H1712 C1725 0.929 . S
H1713 C1723 0.929 . S
H1714 C1718 0.929 . S
H1715 C1724 0.929 . S
C1716 H1710 0.930 . S
C1716 C1717 1.367 . S
C1716 C1724 1.378 . S
C1717 C1716 1.367 . S
C1717 C1725 1.433 . S
C1718 H1714 0.929 . S
C1718 C1720 1.378 . S
C1718 C1722 1.350 . S
C1719 C1722 1.463 . S
C1719 C1724 1.350 . S
C1719 N1727 1.427 . S
C1720 H1711 0.930 . S
C1720 C1718 1.378 . S
C1720 C1721 1.367 . S
C1721 C1720 1.367 . S
C1721 C1723 1.433 . S
C1722 C1718 1.350 . S
C1722 C1719 1.463 . S
C1722 N1726 1.427 . S
C1723 H1713 0.929 . S
C1723 C1721 1.433 . S
C1723 N1726 1.384 . S
C1724 H1715 0.929 . S
C1724 C1716 1.378 . S
C1724 C1719 1.350 . S
C1725 H1712 0.929 . S
C1725 C1717 1.433 . S
C1725 N1727 1.384 . S
N1726 C1722 1.427 . S
N1726 C1723 1.384 . S
N1727 C1719 1.427 . S
N1727 C1725 1.384 . S
H1728 C1734 0.930 . S
H1729 C1738 0.930 . S
H1730 C1743 0.929 . S
H1731 C1741 0.929 . S
H1732 C1736 0.929 . S
H1733 C1742 0.929 . S
C1734 H1728 0.930 . S
C1734 C1735 1.367 . S
C1734 C1742 1.378 . S
C1735 C1734 1.367 . S
C1735 C1743 1.433 . S
C1736 H1732 0.929 . S
C1736 C1738 1.378 . S
C1736 C1740 1.350 . S
C1737 C1740 1.463 . S
C1737 C1742 1.350 . S
C1737 N1745 1.427 . S
C1738 H1729 0.930 . S
C1738 C1736 1.378 . S
C1738 C1739 1.367 . S
C1739 C1738 1.367 . S
C1739 C1741 1.433 . S
C1740 C1736 1.350 . S
C1740 C1737 1.463 . S
C1740 N1744 1.427 . S
C1741 H1731 0.929 . S
C1741 C1739 1.433 . S
C1741 N1744 1.384 . S
C1742 H1733 0.929 . S
C1742 C1734 1.378 . S
C1742 C1737 1.350 . S
C1743 H1730 0.929 . S
C1743 C1735 1.433 . S
C1743 N1745 1.384 . S
N1744 C1740 1.427 . S
N1744 C1741 1.384 . S
N1745 C1737 1.427 . S
N1745 C1743 1.384 . S
H1746 C1752 0.930 . S
H1747 C1756 0.930 . S
H1748 C1761 0.929 . S
H1749 C1759 0.929 . S
H1750 C1754 0.929 . S
H1751 C1760 0.929 . S
C1752 H1746 0.930 . S
C1752 C1753 1.367 . S
C1752 C1760 1.378 . S
C1753 C1752 1.367 . S
C1753 C1761 1.433 . S
C1754 H1750 0.929 . S
C1754 C1756 1.378 . S
C1754 C1758 1.350 . S
C1755 C1758 1.463 . S
C1755 C1760 1.350 . S
C1755 N1763 1.427 . S
C1756 H1747 0.930 . S
C1756 C1754 1.378 . S
C1756 C1757 1.367 . S
C1757 C1756 1.367 . S
C1757 C1759 1.433 . S
C1758 C1754 1.350 . S
C1758 C1755 1.463 . S
C1758 N1762 1.427 . S
C1759 H1749 0.929 . S
C1759 C1757 1.433 . S
C1759 N1762 1.384 . S
C1760 H1751 0.929 . S
C1760 C1752 1.378 . S
C1760 C1755 1.350 . S
C1761 H1748 0.929 . S
C1761 C1753 1.433 . S
C1761 N1763 1.384 . S
N1762 C1758 1.427 . S
N1762 C1759 1.384 . S
N1763 C1755 1.427 . S
N1763 C1761 1.384 . S
H1764 C1770 0.930 . S
H1765 C1774 0.930 . S
H1766 C1779 0.929 . S
H1767 C1777 0.929 . S
H1768 C1772 0.929 . S
H1769 C1778 0.929 . S
C1770 H1764 0.930 . S
C1770 C1771 1.367 . S
C1770 C1778 1.378 . S
C1771 C1770 1.367 . S
C1771 C1779 1.433 . S
C1772 H1768 0.929 . S
C1772 C1774 1.378 . S
C1772 C1776 1.350 . S
C1773 C1776 1.463 . S
C1773 C1778 1.350 . S
C1773 N1781 1.427 . S
C1774 H1765 0.930 . S
C1774 C1772 1.378 . S
C1774 C1775 1.367 . S
C1775 C1774 1.367 . S
C1775 C1777 1.433 . S
C1776 C1772 1.350 . S
C1776 C1773 1.463 . S
C1776 N1780 1.427 . S
C1777 H1767 0.929 . S
C1777 C1775 1.433 . S
C1777 N1780 1.384 . S
C1778 H1769 0.929 . S
C1778 C1770 1.378 . S
C1778 C1773 1.350 . S
C1779 H1766 0.929 . S
C1779 C1771 1.433 . S
C1779 N1781 1.384 . S
N1780 C1776 1.427 . S
N1780 C1777 1.384 . S
N1781 C1773 1.427 . S
N1781 C1779 1.384 . S
H1782 C1788 0.930 . S
H1783 C1792 0.930 . S
H1784 C1797 0.929 . S
H1785 C1795 0.929 . S
H1786 C1790 0.929 . S
H1787 C1796 0.929 . S
C1788 H1782 0.930 . S
C1788 C1789 1.367 . S
C1788 C1796 1.378 . S
C1789 C1788 1.367 . S
C1789 C1797 1.433 . S
C1790 H1786 0.929 . S
C1790 C1792 1.378 . S
C1790 C1794 1.350 . S
C1791 C1794 1.463 . S
C1791 C1796 1.350 . S
C1791 N1799 1.427 . S
C1792 H1783 0.930 . S
C1792 C1790 1.378 . S
C1792 C1793 1.367 . S
C1793 C1792 1.367 . S
C1793 C1795 1.433 . S
C1794 C1790 1.350 . S
C1794 C1791 1.463 . S
C1794 N1798 1.427 . S
C1795 H1785 0.929 . S
C1795 C1793 1.433 . S
C1795 N1798 1.384 . S
C1796 H1787 0.929 . S
C1796 C1788 1.378 . S
C1796 C1791 1.350 . S
C1797 H1784 0.929 . S
C1797 C1789 1.433 . S
C1797 N1799 1.384 . S
N1798 C1794 1.427 . S
N1798 C1795 1.384 . S
N1799 C1791 1.427 . S
N1799 C1797 1.384 . S
H1800 C1806 0.930 . S
H1801 C1810 0.930 . S
H1802 C1815 0.929 . S
H1803 C1813 0.929 . S
H1804 C1808 0.929 . S
H1805 C1814 0.929 . S
C1806 H1800 0.930 . S
C1806 C1807 1.367 . S
C1806 C1814 1.378 . S
C1807 C1806 1.367 . S
C1807 C1815 1.433 . S
C1808 H1804 0.929 . S
C1808 C1810 1.378 . S
C1808 C1812 1.350 . S
C1809 C1812 1.463 . S
C1809 C1814 1.350 . S
C1809 N1817 1.427 . S
C1810 H1801 0.930 . S
C1810 C1808 1.378 . S
C1810 C1811 1.367 . S
C1811 C1810 1.367 . S
C1811 C1813 1.433 . S
C1812 C1808 1.350 . S
C1812 C1809 1.463 . S
C1812 N1816 1.427 . S
C1813 H1803 0.929 . S
C1813 C1811 1.433 . S
C1813 N1816 1.384 . S
C1814 H1805 0.929 . S
C1814 C1806 1.378 . S
C1814 C1809 1.350 . S
C1815 H1802 0.929 . S
C1815 C1807 1.433 . S
C1815 N1817 1.384 . S
N1816 C1812 1.427 . S
N1816 C1813 1.384 . S
N1817 C1809 1.427 . S
N1817 C1815 1.384 . S
H1818 C1824 0.930 . S
H1819 C1828 0.930 . S
H1820 C1833 0.929 . S
H1821 C1831 0.929 . S
H1822 C1826 0.929 . S
H1823 C1832 0.929 . S
C1824 H1818 0.930 . S
C1824 C1825 1.367 . S
C1824 C1832 1.378 . S
C1825 C1824 1.367 . S
C1825 C1833 1.433 . S
C1826 H1822 0.929 . S
C1826 C1828 1.378 . S
C1826 C1830 1.350 . S
C1827 C1830 1.463 . S
C1827 C1832 1.350 . S
C1827 N1835 1.427 . S
C1828 H1819 0.930 . S
C1828 C1826 1.378 . S
C1828 C1829 1.367 . S
C1829 C1828 1.367 . S
C1829 C1831 1.433 . S
C1830 C1826 1.350 . S
C1830 C1827 1.463 . S
C1830 N1834 1.427 . S
C1831 H1821 0.929 . S
C1831 C1829 1.433 . S
C1831 N1834 1.384 . S
C1832 H1823 0.929 . S
C1832 C1824 1.378 . S
C1832 C1827 1.350 . S
C1833 H1820 0.929 . S
C1833 C1825 1.433 . S
C1833 N1835 1.384 . S
N1834 C1830 1.427 . S
N1834 C1831 1.384 . S
N1835 C1827 1.427 . S
N1835 C1833 1.384 . S
H1836 C1842 0.930 . S
H1837 C1846 0.930 . S
H1838 C1851 0.929 . S
H1839 C1849 0.929 . S
H1840 C1844 0.929 . S
H1841 C1850 0.929 . S
C1842 H1836 0.930 . S
C1842 C1843 1.367 . S
C1842 C1850 1.378 . S
C1843 C1842 1.367 . S
C1843 C1851 1.433 . S
C1844 H1840 0.929 . S
C1844 C1846 1.378 . S
C1844 C1848 1.350 . S
C1845 C1848 1.463 . S
C1845 C1850 1.350 . S
C1845 N1853 1.427 . S
C1846 H1837 0.930 . S
C1846 C1844 1.378 . S
C1846 C1847 1.367 . S
C1847 C1846 1.367 . S
C1847 C1849 1.433 . S
C1848 C1844 1.350 . S
C1848 C1845 1.463 . S
C1848 N1852 1.427 . S
C1849 H1839 0.929 . S
C1849 C1847 1.433 . S
C1849 N1852 1.384 . S
C1850 H1841 0.929 . S
C1850 C1842 1.378 . S
C1850 C1845 1.350 . S
C1851 H1838 0.929 . S
C1851 C1843 1.433 . S
C1851 N1853 1.384 . S
N1852 C1848 1.427 . S
N1852 C1849 1.384 . S
N1853 C1845 1.427 . S
N1853 C1851 1.384 . S
H1854 C1860 0.930 . S
H1855 C1864 0.930 . S
H1856 C1869 0.929 . S
H1857 C1867 0.929 . S
H1858 C1862 0.929 . S
H1859 C1868 0.929 . S
C1860 H1854 0.930 . S
C1860 C1861 1.367 . S
C1860 C1868 1.378 . S
C1861 C1860 1.367 . S
C1861 C1869 1.433 . S
C1862 H1858 0.929 . S
C1862 C1864 1.378 . S
C1862 C1866 1.350 . S
C1863 C1866 1.463 . S
C1863 C1868 1.350 . S
C1863 N1871 1.427 . S
C1864 H1855 0.930 . S
C1864 C1862 1.378 . S
C1864 C1865 1.367 . S
C1865 C1864 1.367 . S
C1865 C1867 1.433 . S
C1866 C1862 1.350 . S
C1866 C1863 1.463 . S
C1866 N1870 1.427 . S
C1867 H1857 0.929 . S
C1867 C1865 1.433 . S
C1867 N1870 1.384 . S
C1868 H1859 0.929 . S
C1868 C1860 1.378 . S
C1868 C1863 1.350 . S
C1869 H1856 0.929 . S
C1869 C1861 1.433 . S
C1869 N1871 1.384 . S
N1870 C1866 1.427 . S
N1870 C1867 1.384 . S
N1871 C1863 1.427 . S
N1871 C1869 1.384 . S
H1872 C1878 0.930 . S
H1873 C1882 0.930 . S
H1874 C1887 0.929 . S
H1875 C1885 0.929 . S
H1876 C1880 0.929 . S
H1877 C1886 0.929 . S
C1878 H1872 0.930 . S
C1878 C1879 1.367 . S
C1878 C1886 1.378 . S
C1879 C1878 1.367 . S
C1879 C1887 1.433 . S
C1880 H1876 0.929 . S
C1880 C1882 1.378 . S
C1880 C1884 1.350 . S
C1881 C1884 1.463 . S
C1881 C1886 1.350 . S
C1881 N1889 1.427 . S
C1882 H1873 0.930 . S
C1882 C1880 1.378 . S
C1882 C1883 1.367 . S
C1883 C1882 1.367 . S
C1883 C1885 1.433 . S
C1884 C1880 1.350 . S
C1884 C1881 1.463 . S
C1884 N1888 1.427 . S
C1885 H1875 0.929 . S
C1885 C1883 1.433 . S
C1885 N1888 1.384 . S
C1886 H1877 0.929 . S
C1886 C1878 1.378 . S
C1886 C1881 1.350 . S
C1887 H1874 0.929 . S
C1887 C1879 1.433 . S
C1887 N1889 1.384 . S
N1888 C1884 1.427 . S
N1888 C1885 1.384 . S
N1889 C1881 1.427 . S
N1889 C1887 1.384 . S
H1890 C1896 0.930 . S
H1891 C1900 0.930 . S
H1892 C1905 0.929 . S
H1893 C1903 0.929 . S
H1894 C1898 0.929 . S
H1895 C1904 0.929 . S
C1896 H1890 0.930 . S
C1896 C1897 1.367 . S
C1896 C1904 1.378 . S
C1897 C1896 1.367 . S
C1897 C1905 1.433 . S
C1898 H1894 0.929 . S
C1898 C1900 1.378 . S
C1898 C1902 1.350 . S
C1899 C1902 1.463 . S
C1899 C1904 1.350 . S
C1899 N1907 1.427 . S
C1900 H1891 0.930 . S
C1900 C1898 1.378 . S
C1900 C1901 1.367 . S
C1901 C1900 1.367 . S
C1901 C1903 1.433 . S
C1902 C1898 1.350 . S
C1902 C1899 1.463 . S
C1902 N1906 1.427 . S
C1903 H1893 0.929 . S
C1903 C1901 1.433 . S
C1903 N1906 1.384 . S
C1904 H1895 0.929 . S
C1904 C1896 1.378 . S
C1904 C1899 1.350 . S
C1905 H1892 0.929 . S
C1905 C1897 1.433 . S
C1905 N1907 1.384 . S
N1906 C1902 1.427 . S
N1906 C1903 1.384 . S
N1907 C1899 1.427 . S
N1907 C1905 1.384 . S
H1908 C1914 0.930 . S
H1909 C1918 0.930 . S
H1910 C1923 0.929 . S
H1911 C1921 0.929 . S
H1912 C1916 0.929 . S
H1913 C1922 0.929 . S
C1914 H1908 0.930 . S
C1914 C1915 1.367 . S
C1914 C1922 1.378 . S
C1915 C1914 1.367 . S
C1915 C1923 1.433 . S
C1916 H1912 0.929 . S
C1916 C1918 1.378 . S
C1916 C1920 1.350 . S
C1917 C1920 1.463 . S
C1917 C1922 1.350 . S
C1917 N1925 1.427 . S
C1918 H1909 0.930 . S
C1918 C1916 1.378 . S
C1918 C1919 1.367 . S
C1919 C1918 1.367 . S
C1919 C1921 1.433 . S
C1920 C1916 1.350 . S
C1920 C1917 1.463 . S
C1920 N1924 1.427 . S
C1921 H1911 0.929 . S
C1921 C1919 1.433 . S
C1921 N1924 1.384 . S
C1922 H1913 0.929 . S
C1922 C1914 1.378 . S
C1922 C1917 1.350 . S
C1923 H1910 0.929 . S
C1923 C1915 1.433 . S
C1923 N1925 1.384 . S
N1924 C1920 1.427 . S
N1924 C1921 1.384 . S
N1925 C1917 1.427 . S
N1925 C1923 1.384 . S
H1926 C1932 0.930 . S
H1927 C1936 0.930 . S
H1928 C1941 0.929 . S
H1929 C1939 0.929 . S
H1930 C1934 0.929 . S
H1931 C1940 0.929 . S
C1932 H1926 0.930 . S
C1932 C1933 1.367 . S
C1932 C1940 1.378 . S
C1933 C1932 1.367 . S
C1933 C1941 1.433 . S
C1934 H1930 0.929 . S
C1934 C1936 1.378 . S
C1934 C1938 1.350 . S
C1935 C1938 1.463 . S
C1935 C1940 1.350 . S
C1935 N1943 1.427 . S
C1936 H1927 0.930 . S
C1936 C1934 1.378 . S
C1936 C1937 1.367 1_554 S
C1937 C1936 1.367 1_556 S
C1937 C1939 1.433 1_556 S
C1938 C1934 1.350 . S
C1938 C1935 1.463 . S
C1938 N1942 1.427 . S
C1939 H1929 0.929 . S
C1939 C1937 1.433 1_554 S
C1939 N1942 1.384 . S
C1940 H1931 0.929 . S
C1940 C1932 1.378 . S
C1940 C1935 1.350 . S
C1941 H1928 0.929 . S
C1941 C1933 1.433 . S
C1941 N1943 1.384 . S
N1942 C1938 1.427 . S
N1942 C1939 1.384 . S
N1943 C1935 1.427 . S
N1943 C1941 1.384 . S
H1944 C1950 0.930 . S
H1945 C1954 0.930 . S
H1946 C1959 0.929 . S
H1947 C1957 0.929 . S
H1948 C1952 0.929 . S
H1949 C1958 0.929 . S
C1950 H1944 0.930 . S
C1950 C1951 1.367 . S
C1950 C1958 1.378 . S
C1951 C1950 1.367 . S
C1951 C1959 1.433 . S
C1952 H1948 0.929 . S
C1952 C1954 1.378 . S
C1952 C1956 1.350 . S
C1953 C1956 1.463 . S
C1953 C1958 1.350 . S
C1953 N1961 1.427 . S
C1954 H1945 0.930 . S
C1954 C1952 1.378 . S
C1954 C1955 1.367 . S
C1955 C1954 1.367 . S
C1955 C1957 1.433 . S
C1956 C1952 1.350 . S
C1956 C1953 1.463 . S
C1956 N1960 1.427 . S
C1957 H1947 0.929 . S
C1957 C1955 1.433 . S
C1957 N1960 1.384 . S
C1958 H1949 0.929 . S
C1958 C1950 1.378 . S
C1958 C1953 1.350 . S
C1959 H1946 0.929 . S
C1959 C1951 1.433 . S
C1959 N1961 1.384 . S
N1960 C1956 1.427 . S
N1960 C1957 1.384 . S
N1961 C1953 1.427 . S
N1961 C1959 1.384 . S
H1962 C1968 0.930 . S
H1963 C1972 0.930 . S
H1964 C1977 0.929 . S
H1965 C1975 0.929 . S
H1966 C1970 0.929 . S
H1967 C1976 0.929 . S
C1968 H1962 0.930 . S
C1968 C1969 1.367 . S
C1968 C1976 1.378 . S
C1969 C1968 1.367 . S
C1969 C1977 1.433 . S
C1970 H1966 0.929 . S
C1970 C1972 1.378 . S
C1970 C1974 1.350 . S
C1971 C1974 1.463 1_565 S
C1971 C1976 1.350 . S
C1971 N1979 1.427 . S
C1972 H1963 0.930 . S
C1972 C1970 1.378 . S
C1972 C1973 1.367 . S
C1973 C1972 1.367 . S
C1973 C1975 1.433 . S
C1974 C1970 1.350 . S
C1974 C1971 1.463 1_545 S
C1974 N1978 1.427 . S
C1975 H1965 0.929 . S
C1975 C1973 1.433 . S
C1975 N1978 1.384 . S
C1976 H1967 0.929 . S
C1976 C1968 1.378 . S
C1976 C1971 1.350 . S
C1977 H1964 0.929 . S
C1977 C1969 1.433 . S
C1977 N1979 1.384 . S
N1978 C1974 1.427 . S
N1978 C1975 1.384 . S
N1979 C1971 1.427 . S
N1979 C1977 1.384 . S
H1980 C1986 0.930 . S
H1981 C1990 0.930 . S
H1982 C1995 0.929 . S
H1983 C1993 0.929 . S
H1984 C1988 0.929 . S
H1985 C1994 0.929 . S
C1986 H1980 0.930 . S
C1986 C1987 1.367 . S
C1986 C1994 1.378 . S
C1987 C1986 1.367 . S
C1987 C1995 1.433 . S
C1988 H1984 0.929 . S
C1988 C1990 1.378 . S
C1988 C1992 1.350 . S
C1989 C1992 1.463 1_655 S
C1989 C1994 1.350 . S
C1989 N1997 1.427 . S
C1990 H1981 0.930 . S
C1990 C1988 1.378 . S
C1990 C1991 1.367 . S
C1991 C1990 1.367 . S
C1991 C1993 1.433 . S
C1992 C1988 1.350 . S
C1992 C1989 1.463 1_455 S
C1992 N1996 1.427 . S
C1993 H1983 0.929 . S
C1993 C1991 1.433 . S
C1993 N1996 1.384 . S
C1994 H1985 0.929 . S
C1994 C1986 1.378 . S
C1994 C1989 1.350 . S
C1995 H1982 0.929 . S
C1995 C1987 1.433 . S
C1995 N1997 1.384 . S
N1996 C1992 1.427 . S
N1996 C1993 1.384 . S
N1997 C1989 1.427 . S
N1997 C1995 1.384 . S
H1998 C2004 0.930 . S
H1999 C2008 0.930 . S
H2000 C2013 0.929 . S
H2001 C2011 0.929 . S
H2002 C2006 0.929 . S
H2003 C2012 0.929 . S
C2004 H1998 0.930 . S
C2004 C2005 1.367 . S
C2004 C2012 1.378 . S
C2005 C2004 1.367 . S
C2005 C2013 1.433 . S
C2006 H2002 0.929 . S
C2006 C2008 1.378 . S
C2006 C2010 1.350 . S
C2007 C2010 1.463 . S
C2007 C2012 1.350 . S
C2007 N2015 1.427 . S
C2008 H1999 0.930 . S
C2008 C2006 1.378 . S
C2008 C2009 1.367 . S
C2009 C2008 1.367 . S
C2009 C2011 1.433 . S
C2010 C2006 1.350 . S
C2010 C2007 1.463 . S
C2010 N2014 1.427 . S
C2011 H2001 0.929 . S
C2011 C2009 1.433 . S
C2011 N2014 1.384 . S
C2012 H2003 0.929 . S
C2012 C2004 1.378 . S
C2012 C2007 1.350 . S
C2013 H2000 0.929 . S
C2013 C2005 1.433 . S
C2013 N2015 1.384 . S
N2014 C2010 1.427 . S
N2014 C2011 1.384 . S
N2015 C2007 1.427 . S
N2015 C2013 1.384 . S
H2016 C2022 0.930 . S
H2017 C2026 0.930 . S
H2018 C2031 0.929 . S
H2019 C2029 0.929 . S
H2020 C2024 0.929 . S
H2021 C2030 0.929 . S
C2022 H2016 0.930 . S
C2022 C2023 1.367 . S
C2022 C2030 1.378 . S
C2023 C2022 1.367 . S
C2023 C2031 1.433 . S
C2024 H2020 0.929 . S
C2024 C2026 1.378 . S
C2024 C2028 1.350 . S
C2025 C2028 1.463 1_545 S
C2025 C2030 1.350 . S
C2025 N2033 1.427 . S
C2026 H2017 0.930 . S
C2026 C2024 1.378 . S
C2026 C2027 1.367 . S
C2027 C2026 1.367 . S
C2027 C2029 1.433 . S
C2028 C2024 1.350 . S
C2028 C2025 1.463 1_565 S
C2028 N2032 1.427 . S
C2029 H2019 0.929 . S
C2029 C2027 1.433 . S
C2029 N2032 1.384 . S
C2030 H2021 0.929 . S
C2030 C2022 1.378 . S
C2030 C2025 1.350 . S
C2031 H2018 0.929 . S
C2031 C2023 1.433 . S
C2031 N2033 1.384 . S
N2032 C2028 1.427 . S
N2032 C2029 1.384 . S
N2033 C2025 1.427 . S
N2033 C2031 1.384 . S
H2034 C2040 0.930 . S
H2035 C2044 0.930 . S
H2036 C2049 0.929 . S
H2037 C2047 0.929 . S
H2038 C2042 0.929 . S
H2039 C2048 0.929 . S
C2040 H2034 0.930 . S
C2040 C2041 1.367 . S
C2040 C2048 1.378 . S
C2041 C2040 1.367 . S
C2041 C2049 1.433 . S
C2042 H2038 0.929 . S
C2042 C2044 1.378 . S
C2042 C2046 1.350 . S
C2043 C2046 1.463 1_655 S
C2043 C2048 1.350 . S
C2043 N2051 1.427 . S
C2044 H2035 0.930 . S
C2044 C2042 1.378 . S
C2044 C2045 1.367 . S
C2045 C2044 1.367 . S
C2045 C2047 1.433 . S
C2046 C2042 1.350 . S
C2046 C2043 1.463 1_455 S
C2046 N2050 1.427 . S
C2047 H2037 0.929 . S
C2047 C2045 1.433 . S
C2047 N2050 1.384 . S
C2048 H2039 0.929 . S
C2048 C2040 1.378 . S
C2048 C2043 1.350 . S
C2049 H2036 0.929 . S
C2049 C2041 1.433 . S
C2049 N2051 1.384 . S
N2050 C2046 1.427 . S
N2050 C2047 1.384 . S
N2051 C2043 1.427 . S
N2051 C2049 1.384 . S
H2052 C2058 0.930 . S
H2053 C2062 0.930 . S
H2054 C2067 0.929 . S
H2055 C2065 0.929 . S
H2056 C2060 0.929 . S
H2057 C2066 0.929 . S
C2058 H2052 0.930 . S
C2058 C2059 1.367 . S
C2058 C2066 1.378 . S
C2059 C2058 1.367 . S
C2059 C2067 1.433 . S
C2060 H2056 0.929 . S
C2060 C2062 1.378 . S
C2060 C2064 1.350 . S
C2061 C2064 1.463 . S
C2061 C2066 1.350 . S
C2061 N2069 1.427 . S
C2062 H2053 0.930 . S
C2062 C2060 1.378 . S
C2062 C2063 1.367 . S
C2063 C2062 1.367 . S
C2063 C2065 1.433 . S
C2064 C2060 1.350 . S
C2064 C2061 1.463 . S
C2064 N2068 1.427 . S
C2065 H2055 0.929 . S
C2065 C2063 1.433 . S
C2065 N2068 1.384 . S
C2066 H2057 0.929 . S
C2066 C2058 1.378 . S
C2066 C2061 1.350 . S
C2067 H2054 0.929 . S
C2067 C2059 1.433 . S
C2067 N2069 1.384 . S
N2068 C2064 1.427 . S
N2068 C2065 1.384 . S
N2069 C2061 1.427 . S
N2069 C2067 1.384 . S
H2070 C2076 0.930 . S
H2071 C2080 0.930 . S
H2072 C2085 0.929 . S
H2073 C2083 0.929 . S
H2074 C2078 0.929 . S
H2075 C2084 0.929 . S
C2076 H2070 0.930 . S
C2076 C2077 1.367 . S
C2076 C2084 1.378 . S
C2077 C2076 1.367 . S
C2077 C2085 1.433 . S
C2078 H2074 0.929 . S
C2078 C2080 1.378 . S
C2078 C2082 1.350 . S
C2079 C2082 1.463 . S
C2079 C2084 1.350 . S
C2079 N2087 1.427 . S
C2080 H2071 0.930 . S
C2080 C2078 1.378 . S
C2080 C2081 1.367 . S
C2081 C2080 1.367 . S
C2081 C2083 1.433 . S
C2082 C2078 1.350 . S
C2082 C2079 1.463 . S
C2082 N2086 1.427 . S
C2083 H2073 0.929 . S
C2083 C2081 1.433 . S
C2083 N2086 1.384 . S
C2084 H2075 0.929 . S
C2084 C2076 1.378 . S
C2084 C2079 1.350 . S
C2085 H2072 0.929 . S
C2085 C2077 1.433 . S
C2085 N2087 1.384 . S
N2086 C2082 1.427 . S
N2086 C2083 1.384 . S
N2087 C2079 1.427 . S
N2087 C2085 1.384 . S
H2088 C2094 0.930 . S
H2089 C2098 0.930 . S
H2090 C2103 0.929 . S
H2091 C2101 0.929 . S
H2092 C2096 0.929 . S
H2093 C2102 0.929 . S
C2094 H2088 0.930 . S
C2094 C2095 1.367 . S
C2094 C2102 1.378 . S
C2095 C2094 1.367 . S
C2095 C2103 1.433 . S
C2096 H2092 0.929 . S
C2096 C2098 1.378 . S
C2096 C2100 1.350 . S
C2097 C2100 1.463 . S
C2097 C2102 1.350 . S
C2097 N2105 1.427 . S
C2098 H2089 0.930 . S
C2098 C2096 1.378 . S
C2098 C2099 1.367 . S
C2099 C2098 1.367 . S
C2099 C2101 1.433 . S
C2100 C2096 1.350 . S
C2100 C2097 1.463 . S
C2100 N2104 1.427 . S
C2101 H2091 0.929 . S
C2101 C2099 1.433 . S
C2101 N2104 1.384 . S
C2102 H2093 0.929 . S
C2102 C2094 1.378 . S
C2102 C2097 1.350 . S
C2103 H2090 0.929 . S
C2103 C2095 1.433 . S
C2103 N2105 1.384 . S
N2104 C2100 1.427 . S
N2104 C2101 1.384 . S
N2105 C2097 1.427 . S
N2105 C2103 1.384 . S
H2106 C2112 0.930 . S
H2107 C2116 0.930 . S
H2108 C2121 0.929 . S
H2109 C2119 0.929 . S
H2110 C2114 0.929 . S
H2111 C2120 0.929 . S
C2112 H2106 0.930 . S
C2112 C2113 1.367 . S
C2112 C2120 1.378 . S
C2113 C2112 1.367 . S
C2113 C2121 1.433 . S
C2114 H2110 0.929 . S
C2114 C2116 1.378 . S
C2114 C2118 1.350 . S
C2115 C2118 1.463 . S
C2115 C2120 1.350 . S
C2115 N2123 1.427 . S
C2116 H2107 0.930 . S
C2116 C2114 1.378 . S
C2116 C2117 1.367 . S
C2117 C2116 1.367 . S
C2117 C2119 1.433 . S
C2118 C2114 1.350 . S
C2118 C2115 1.463 . S
C2118 N2122 1.427 . S
C2119 H2109 0.929 . S
C2119 C2117 1.433 . S
C2119 N2122 1.384 . S
C2120 H2111 0.929 . S
C2120 C2112 1.378 . S
C2120 C2115 1.350 . S
C2121 H2108 0.929 . S
C2121 C2113 1.433 . S
C2121 N2123 1.384 . S
N2122 C2118 1.427 . S
N2122 C2119 1.384 . S
N2123 C2115 1.427 . S
N2123 C2121 1.384 . S
H2124 C2130 0.930 . S
H2125 C2134 0.930 . S
H2126 C2139 0.929 1_556 S
H2127 C2137 0.929 . S
H2128 C2132 0.929 . S
H2129 C2138 0.929 . S
C2130 H2124 0.930 . S
C2130 C2131 1.367 . S
C2130 C2138 1.378 . S
C2131 C2130 1.367 . S
C2131 C2139 1.433 . S
C2132 H2128 0.929 . S
C2132 C2134 1.378 . S
C2132 C2136 1.350 . S
C2133 C2136 1.463 . S
C2133 C2138 1.350 . S
C2133 N2141 1.427 . S
C2134 H2125 0.930 . S
C2134 C2132 1.378 . S
C2134 C2135 1.367 . S
C2135 C2134 1.367 . S
C2135 C2137 1.433 . S
C2136 C2132 1.350 . S
C2136 C2133 1.463 . S
C2136 N2140 1.427 . S
C2137 H2127 0.929 . S
C2137 C2135 1.433 . S
C2137 N2140 1.384 . S
C2138 H2129 0.929 . S
C2138 C2130 1.378 . S
C2138 C2133 1.350 . S
C2139 H2126 0.929 1_554 S
C2139 C2131 1.433 . S
C2139 N2141 1.384 . S
N2140 C2136 1.427 . S
N2140 C2137 1.384 . S
N2141 C2133 1.427 . S
N2141 C2139 1.384 . S
H2142 C2148 0.930 . S
H2143 C2152 0.930 . S
H2144 C2157 0.929 . S
H2145 C2155 0.929 1_556 S
H2146 C2150 0.929 . S
H2147 C2156 0.929 . S
C2148 H2142 0.930 . S
C2148 C2149 1.367 . S
C2148 C2156 1.378 . S
C2149 C2148 1.367 . S
C2149 C2157 1.433 . S
C2150 H2146 0.929 . S
C2150 C2152 1.378 . S
C2150 C2154 1.350 . S
C2151 C2154 1.463 . S
C2151 C2156 1.350 . S
C2151 N2159 1.427 . S
C2152 H2143 0.930 . S
C2152 C2150 1.378 . S
C2152 C2153 1.367 . S
C2153 C2152 1.367 . S
C2153 C2155 1.433 . S
C2154 C2150 1.350 . S
C2154 C2151 1.463 . S
C2154 N2158 1.427 . S
C2155 H2145 0.929 1_554 S
C2155 C2153 1.433 . S
C2155 N2158 1.384 . S
C2156 H2147 0.929 . S
C2156 C2148 1.378 . S
C2156 C2151 1.350 . S
C2157 H2144 0.929 . S
C2157 C2149 1.433 . S
C2157 N2159 1.384 . S
N2158 C2154 1.427 . S
N2158 C2155 1.384 . S
N2159 C2151 1.427 . S
N2159 C2157 1.384 . S
H2160 C2166 0.930 . S
H2161 C2170 0.930 . S
H2162 C2175 0.929 . S
H2163 C2173 0.929 . S
H2164 C2168 0.929 . S
H2165 C2174 0.929 . S
C2166 H2160 0.930 . S
C2166 C2167 1.367 . S
C2166 C2174 1.378 . S
C2167 C2166 1.367 . S
C2167 C2175 1.433 . S
C2168 H2164 0.929 . S
C2168 C2170 1.378 . S
C2168 C2172 1.350 . S
C2169 C2172 1.463 . S
C2169 C2174 1.350 . S
C2169 N2177 1.427 . S
C2170 H2161 0.930 . S
C2170 C2168 1.378 . S
C2170 C2171 1.367 . S
C2171 C2170 1.367 . S
C2171 C2173 1.433 . S
C2172 C2168 1.350 . S
C2172 C2169 1.463 . S
C2172 N2176 1.427 . S
C2173 H2163 0.929 . S
C2173 C2171 1.433 . S
C2173 N2176 1.384 . S
C2174 H2165 0.929 . S
C2174 C2166 1.378 . S
C2174 C2169 1.350 . S
C2175 H2162 0.929 . S
C2175 C2167 1.433 . S
C2175 N2177 1.384 . S
N2176 C2172 1.427 . S
N2176 C2173 1.384 . S
N2177 C2169 1.427 . S
N2177 C2175 1.384 . S
H2178 C2184 0.930 . S
H2179 C2188 0.930 . S
H2180 C2193 0.929 1_554 S
H2181 C2191 0.929 . S
H2182 C2186 0.929 . S
H2183 C2192 0.929 . S
C2184 H2178 0.930 . S
C2184 C2185 1.367 . S
C2184 C2192 1.378 . S
C2185 C2184 1.367 . S
C2185 C2193 1.433 . S
C2186 H2182 0.929 . S
C2186 C2188 1.378 . S
C2186 C2190 1.350 . S
C2187 C2190 1.463 . S
C2187 C2192 1.350 . S
C2187 N2195 1.427 . S
C2188 H2179 0.930 . S
C2188 C2186 1.378 . S
C2188 C2189 1.367 . S
C2189 C2188 1.367 . S
C2189 C2191 1.433 . S
C2190 C2186 1.350 . S
C2190 C2187 1.463 . S
C2190 N2194 1.427 . S
C2191 H2181 0.929 . S
C2191 C2189 1.433 . S
C2191 N2194 1.384 . S
C2192 H2183 0.929 . S
C2192 C2184 1.378 . S
C2192 C2187 1.350 . S
C2193 H2180 0.929 1_556 S
C2193 C2185 1.433 . S
C2193 N2195 1.384 . S
N2194 C2190 1.427 . S
N2194 C2191 1.384 . S
N2195 C2187 1.427 . S
N2195 C2193 1.384 . S
H2196 C2202 0.930 . S
H2197 C2206 0.930 . S
H2198 C2211 0.929 . S
H2199 C2209 0.929 . S
H2200 C2204 0.929 . S
H2201 C2210 0.929 . S
C2202 H2196 0.930 . S
C2202 C2203 1.367 . S
C2202 C2210 1.378 . S
C2203 C2202 1.367 . S
C2203 C2211 1.433 . S
C2204 H2200 0.929 . S
C2204 C2206 1.378 . S
C2204 C2208 1.350 . S
C2205 C2208 1.463 . S
C2205 C2210 1.350 . S
C2205 N2213 1.427 . S
C2206 H2197 0.930 . S
C2206 C2204 1.378 . S
C2206 C2207 1.367 . S
C2207 C2206 1.367 . S
C2207 C2209 1.433 . S
C2208 C2204 1.350 . S
C2208 C2205 1.463 . S
C2208 N2212 1.427 . S
C2209 H2199 0.929 . S
C2209 C2207 1.433 . S
C2209 N2212 1.384 . S
C2210 H2201 0.929 . S
C2210 C2202 1.378 . S
C2210 C2205 1.350 . S
C2211 H2198 0.929 . S
C2211 C2203 1.433 . S
C2211 N2213 1.384 . S
N2212 C2208 1.427 . S
N2212 C2209 1.384 . S
N2213 C2205 1.427 . S
N2213 C2211 1.384 . S
H2214 C2220 0.930 . S
H2215 C2224 0.930 . S
H2216 C2229 0.929 . S
H2217 C2227 0.929 . S
H2218 C2222 0.929 . S
H2219 C2228 0.929 . S
C2220 H2214 0.930 . S
C2220 C2221 1.367 . S
C2220 C2228 1.378 . S
C2221 C2220 1.367 . S
C2221 C2229 1.433 . S
C2222 H2218 0.929 . S
C2222 C2224 1.378 . S
C2222 C2226 1.350 . S
C2223 C2226 1.463 . S
C2223 C2228 1.350 . S
C2223 N2231 1.427 . S
C2224 H2215 0.930 . S
C2224 C2222 1.378 . S
C2224 C2225 1.367 . S
C2225 C2224 1.367 . S
C2225 C2227 1.433 . S
C2226 C2222 1.350 . S
C2226 C2223 1.463 . S
C2226 N2230 1.427 . S
C2227 H2217 0.929 . S
C2227 C2225 1.433 . S
C2227 N2230 1.384 . S
C2228 H2219 0.929 . S
C2228 C2220 1.378 . S
C2228 C2223 1.350 . S
C2229 H2216 0.929 . S
C2229 C2221 1.433 . S
C2229 N2231 1.384 . S
N2230 C2226 1.427 . S
N2230 C2227 1.384 . S
N2231 C2223 1.427 . S
N2231 C2229 1.384 . S
H2232 C2238 0.930 . S
H2233 C2242 0.930 . S
H2234 C2247 0.929 . S
H2235 C2245 0.929 . S
H2236 C2240 0.929 . S
H2237 C2246 0.929 . S
C2238 H2232 0.930 . S
C2238 C2239 1.367 . S
C2238 C2246 1.378 . S
C2239 C2238 1.367 . S
C2239 C2247 1.433 . S
C2240 H2236 0.929 . S
C2240 C2242 1.378 . S
C2240 C2244 1.350 . S
C2241 C2244 1.463 . S
C2241 C2246 1.350 . S
C2241 N2249 1.427 . S
C2242 H2233 0.930 . S
C2242 C2240 1.378 . S
C2242 C2243 1.367 . S
C2243 C2242 1.367 . S
C2243 C2245 1.433 . S
C2244 C2240 1.350 . S
C2244 C2241 1.463 . S
C2244 N2248 1.427 . S
C2245 H2235 0.929 . S
C2245 C2243 1.433 . S
C2245 N2248 1.384 . S
C2246 H2237 0.929 . S
C2246 C2238 1.378 . S
C2246 C2241 1.350 . S
C2247 H2234 0.929 . S
C2247 C2239 1.433 . S
C2247 N2249 1.384 . S
N2248 C2244 1.427 . S
N2248 C2245 1.384 . S
N2249 C2241 1.427 . S
N2249 C2247 1.384 . S
H2250 C2256 0.930 . S
H2251 C2260 0.930 . S
H2252 C2265 0.929 . S
H2253 C2263 0.929 . S
H2254 C2258 0.929 . S
H2255 C2264 0.929 . S
C2256 H2250 0.930 . S
C2256 C2257 1.367 . S
C2256 C2264 1.378 . S
C2257 C2256 1.367 . S
C2257 C2265 1.433 . S
C2258 H2254 0.929 . S
C2258 C2260 1.378 . S
C2258 C2262 1.350 . S
C2259 C2262 1.463 . S
C2259 C2264 1.350 . S
C2259 N2267 1.427 . S
C2260 H2251 0.930 . S
C2260 C2258 1.378 . S
C2260 C2261 1.367 . S
C2261 C2260 1.367 . S
C2261 C2263 1.433 . S
C2262 C2258 1.350 . S
C2262 C2259 1.463 . S
C2262 N2266 1.427 . S
C2263 H2253 0.929 . S
C2263 C2261 1.433 . S
C2263 N2266 1.384 . S
C2264 H2255 0.929 . S
C2264 C2256 1.378 . S
C2264 C2259 1.350 . S
C2265 H2252 0.929 . S
C2265 C2257 1.433 . S
C2265 N2267 1.384 . S
N2266 C2262 1.427 . S
N2266 C2263 1.384 . S
N2267 C2259 1.427 . S
N2267 C2265 1.384 . S
H2268 C2274 0.930 . S
H2269 C2278 0.930 . S
H2270 C2283 0.929 . S
H2271 C2281 0.929 . S
H2272 C2276 0.929 . S
H2273 C2282 0.929 . S
C2274 H2268 0.930 . S
C2274 C2275 1.367 . S
C2274 C2282 1.378 . S
C2275 C2274 1.367 . S
C2275 C2283 1.433 . S
C2276 H2272 0.929 . S
C2276 C2278 1.378 . S
C2276 C2280 1.350 . S
C2277 C2280 1.463 . S
C2277 C2282 1.350 . S
C2277 N2285 1.427 . S
C2278 H2269 0.930 . S
C2278 C2276 1.378 . S
C2278 C2279 1.367 . S
C2279 C2278 1.367 . S
C2279 C2281 1.433 . S
C2280 C2276 1.350 . S
C2280 C2277 1.463 . S
C2280 N2284 1.427 . S
C2281 H2271 0.929 . S
C2281 C2279 1.433 . S
C2281 N2284 1.384 . S
C2282 H2273 0.929 . S
C2282 C2274 1.378 . S
C2282 C2277 1.350 . S
C2283 H2270 0.929 . S
C2283 C2275 1.433 . S
C2283 N2285 1.384 . S
N2284 C2280 1.427 . S
N2284 C2281 1.384 . S
N2285 C2277 1.427 . S
N2285 C2283 1.384 . S
H2286 C2292 0.930 . S
H2287 C2296 0.930 . S
H2288 C2301 0.929 . S
H2289 C2299 0.929 . S
H2290 C2294 0.929 . S
H2291 C2300 0.929 . S
C2292 H2286 0.930 . S
C2292 C2293 1.367 . S
C2292 C2300 1.378 . S
C2293 C2292 1.367 . S
C2293 C2301 1.433 . S
C2294 H2290 0.929 . S
C2294 C2296 1.378 . S
C2294 C2298 1.350 . S
C2295 C2298 1.463 . S
C2295 C2300 1.350 . S
C2295 N2303 1.427 . S
C2296 H2287 0.930 . S
C2296 C2294 1.378 . S
C2296 C2297 1.367 . S
C2297 C2296 1.367 . S
C2297 C2299 1.433 . S
C2298 C2294 1.350 . S
C2298 C2295 1.463 . S
C2298 N2302 1.427 . S
C2299 H2289 0.929 . S
C2299 C2297 1.433 . S
C2299 N2302 1.384 . S
C2300 H2291 0.929 . S
C2300 C2292 1.378 . S
C2300 C2295 1.350 . S
C2301 H2288 0.929 . S
C2301 C2293 1.433 . S
C2301 N2303 1.384 . S
N2302 C2298 1.427 . S
N2302 C2299 1.384 . S
N2303 C2295 1.427 . S
N2303 C2301 1.384 . S
H2304 C2310 0.930 . S
H2305 C2314 0.930 . S
H2306 C2319 0.929 . S
H2307 C2317 0.929 . S
H2308 C2312 0.929 . S
H2309 C2318 0.929 . S
C2310 H2304 0.930 . S
C2310 C2311 1.367 . S
C2310 C2318 1.378 . S
C2311 C2310 1.367 . S
C2311 C2319 1.433 . S
C2312 H2308 0.929 . S
C2312 C2314 1.378 . S
C2312 C2316 1.350 . S
C2313 C2316 1.463 . S
C2313 C2318 1.350 . S
C2313 N2321 1.427 . S
C2314 H2305 0.930 . S
C2314 C2312 1.378 . S
C2314 C2315 1.367 . S
C2315 C2314 1.367 . S
C2315 C2317 1.433 . S
C2316 C2312 1.350 . S
C2316 C2313 1.463 . S
C2316 N2320 1.427 . S
C2317 H2307 0.929 . S
C2317 C2315 1.433 . S
C2317 N2320 1.384 . S
C2318 H2309 0.929 . S
C2318 C2310 1.378 . S
C2318 C2313 1.350 . S
C2319 H2306 0.929 . S
C2319 C2311 1.433 . S
C2319 N2321 1.384 . S
N2320 C2316 1.427 . S
N2320 C2317 1.384 . S
N2321 C2313 1.427 . S
N2321 C2319 1.384 . S
H2322 C2328 0.930 . S
H2323 C2332 0.930 . S
H2324 C2337 0.929 . S
H2325 C2335 0.929 . S
H2326 C2330 0.929 . S
H2327 C2336 0.929 . S
C2328 H2322 0.930 . S
C2328 C2329 1.367 . S
C2328 C2336 1.378 . S
C2329 C2328 1.367 . S
C2329 C2337 1.433 . S
C2330 H2326 0.929 . S
C2330 C2332 1.378 . S
C2330 C2334 1.350 . S
C2331 C2334 1.463 . S
C2331 C2336 1.350 . S
C2331 N2339 1.427 . S
C2332 H2323 0.930 . S
C2332 C2330 1.378 . S
C2332 C2333 1.367 . S
C2333 C2332 1.367 . S
C2333 C2335 1.433 . S
C2334 C2330 1.350 . S
C2334 C2331 1.463 . S
C2334 N2338 1.427 . S
C2335 H2325 0.929 . S
C2335 C2333 1.433 . S
C2335 N2338 1.384 . S
C2336 H2327 0.929 . S
C2336 C2328 1.378 . S
C2336 C2331 1.350 . S
C2337 H2324 0.929 . S
C2337 C2329 1.433 . S
C2337 N2339 1.384 . S
N2338 C2334 1.427 . S
N2338 C2335 1.384 . S
N2339 C2331 1.427 . S
N2339 C2337 1.384 . S
H2340 C2346 0.930 . S
H2341 C2350 0.930 . S
H2342 C2355 0.929 . S
H2343 C2353 0.929 . S
H2344 C2348 0.929 . S
H2345 C2354 0.929 . S
C2346 H2340 0.930 . S
C2346 C2347 1.367 . S
C2346 C2354 1.378 . S
C2347 C2346 1.367 . S
C2347 C2355 1.433 . S
C2348 H2344 0.929 . S
C2348 C2350 1.378 . S
C2348 C2352 1.350 . S
C2349 C2352 1.463 . S
C2349 C2354 1.350 . S
C2349 N2357 1.427 . S
C2350 H2341 0.930 . S
C2350 C2348 1.378 . S
C2350 C2351 1.367 . S
C2351 C2350 1.367 . S
C2351 C2353 1.433 . S
C2352 C2348 1.350 . S
C2352 C2349 1.463 . S
C2352 N2356 1.427 . S
C2353 H2343 0.929 . S
C2353 C2351 1.433 . S
C2353 N2356 1.384 . S
C2354 H2345 0.929 . S
C2354 C2346 1.378 . S
C2354 C2349 1.350 . S
C2355 H2342 0.929 . S
C2355 C2347 1.433 . S
C2355 N2357 1.384 . S
N2356 C2352 1.427 . S
N2356 C2353 1.384 . S
N2357 C2349 1.427 . S
N2357 C2355 1.384 . S
H2358 C2364 0.930 . S
H2359 C2368 0.930 . S
H2360 C2373 0.929 . S
H2361 C2371 0.929 . S
H2362 C2366 0.929 . S
H2363 C2372 0.929 . S
C2364 H2358 0.930 . S
C2364 C2365 1.367 . S
C2364 C2372 1.378 . S
C2365 C2364 1.367 . S
C2365 C2373 1.433 . S
C2366 H2362 0.929 . S
C2366 C2368 1.378 . S
C2366 C2370 1.350 . S
C2367 C2370 1.463 . S
C2367 C2372 1.350 . S
C2367 N2375 1.427 . S
C2368 H2359 0.930 . S
C2368 C2366 1.378 . S
C2368 C2369 1.367 . S
C2369 C2368 1.367 . S
C2369 C2371 1.433 . S
C2370 C2366 1.350 . S
C2370 C2367 1.463 . S
C2370 N2374 1.427 . S
C2371 H2361 0.929 . S
C2371 C2369 1.433 . S
C2371 N2374 1.384 . S
C2372 H2363 0.929 . S
C2372 C2364 1.378 . S
C2372 C2367 1.350 . S
C2373 H2360 0.929 . S
C2373 C2365 1.433 . S
C2373 N2375 1.384 . S
N2374 C2370 1.427 . S
N2374 C2371 1.384 . S
N2375 C2367 1.427 . S
N2375 C2373 1.384 . S
H2376 C2382 0.930 . S
H2377 C2386 0.930 . S
H2378 C2391 0.929 . S
H2379 C2389 0.929 . S
H2380 C2384 0.929 . S
H2381 C2390 0.929 . S
C2382 H2376 0.930 . S
C2382 C2383 1.367 . S
C2382 C2390 1.378 . S
C2383 C2382 1.367 . S
C2383 C2391 1.433 . S
C2384 H2380 0.929 . S
C2384 C2386 1.378 . S
C2384 C2388 1.350 . S
C2385 C2388 1.463 . S
C2385 C2390 1.350 . S
C2385 N2393 1.427 . S
C2386 H2377 0.930 . S
C2386 C2384 1.378 . S
C2386 C2387 1.367 . S
C2387 C2386 1.367 . S
C2387 C2389 1.433 . S
C2388 C2384 1.350 . S
C2388 C2385 1.463 . S
C2388 N2392 1.427 . S
C2389 H2379 0.929 . S
C2389 C2387 1.433 . S
C2389 N2392 1.384 . S
C2390 H2381 0.929 . S
C2390 C2382 1.378 . S
C2390 C2385 1.350 . S
C2391 H2378 0.929 . S
C2391 C2383 1.433 . S
C2391 N2393 1.384 . S
N2392 C2388 1.427 . S
N2392 C2389 1.384 . S
N2393 C2385 1.427 . S
N2393 C2391 1.384 . S
H2394 C2400 0.930 . S
H2395 C2404 0.930 . S
H2396 C2409 0.929 . S
H2397 C2407 0.929 . S
H2398 C2402 0.929 . S
H2399 C2408 0.929 . S
C2400 H2394 0.930 . S
C2400 C2401 1.367 . S
C2400 C2408 1.378 . S
C2401 C2400 1.367 . S
C2401 C2409 1.433 . S
C2402 H2398 0.929 . S
C2402 C2404 1.378 . S
C2402 C2406 1.350 . S
C2403 C2406 1.463 . S
C2403 C2408 1.350 . S
C2403 N2411 1.427 . S
C2404 H2395 0.930 . S
C2404 C2402 1.378 . S
C2404 C2405 1.367 . S
C2405 C2404 1.367 . S
C2405 C2407 1.433 . S
C2406 C2402 1.350 . S
C2406 C2403 1.463 . S
C2406 N2410 1.427 . S
C2407 H2397 0.929 . S
C2407 C2405 1.433 . S
C2407 N2410 1.384 . S
C2408 H2399 0.929 . S
C2408 C2400 1.378 . S
C2408 C2403 1.350 . S
C2409 H2396 0.929 . S
C2409 C2401 1.433 . S
C2409 N2411 1.384 . S
N2410 C2406 1.427 . S
N2410 C2407 1.384 . S
N2411 C2403 1.427 . S
N2411 C2409 1.384 . S
H2412 C2418 0.930 . S
H2413 C2422 0.930 . S
H2414 C2427 0.929 . S
H2415 C2425 0.929 . S
H2416 C2420 0.929 . S
H2417 C2426 0.929 . S
C2418 H2412 0.930 . S
C2418 C2419 1.367 . S
C2418 C2426 1.378 . S
C2419 C2418 1.367 . S
C2419 C2427 1.433 . S
C2420 H2416 0.929 . S
C2420 C2422 1.378 . S
C2420 C2424 1.350 . S
C2421 C2424 1.463 . S
C2421 C2426 1.350 . S
C2421 N2429 1.427 . S
C2422 H2413 0.930 . S
C2422 C2420 1.378 . S
C2422 C2423 1.367 . S
C2423 C2422 1.367 . S
C2423 C2425 1.433 . S
C2424 C2420 1.350 . S
C2424 C2421 1.463 . S
C2424 N2428 1.427 . S
C2425 H2415 0.929 . S
C2425 C2423 1.433 . S
C2425 N2428 1.384 . S
C2426 H2417 0.929 . S
C2426 C2418 1.378 . S
C2426 C2421 1.350 . S
C2427 H2414 0.929 . S
C2427 C2419 1.433 . S
C2427 N2429 1.384 . S
N2428 C2424 1.427 . S
N2428 C2425 1.384 . S
N2429 C2421 1.427 . S
N2429 C2427 1.384 . S
H2430 C2436 0.930 . S
H2431 C2440 0.930 . S
H2432 C2445 0.929 . S
H2433 C2443 0.929 . S
H2434 C2438 0.929 . S
H2435 C2444 0.929 . S
C2436 H2430 0.930 . S
C2436 C2437 1.367 . S
C2436 C2444 1.378 . S
C2437 C2436 1.367 . S
C2437 C2445 1.433 . S
C2438 H2434 0.929 . S
C2438 C2440 1.378 . S
C2438 C2442 1.350 . S
C2439 C2442 1.463 . S
C2439 C2444 1.350 . S
C2439 N2447 1.427 . S
C2440 H2431 0.930 . S
C2440 C2438 1.378 . S
C2440 C2441 1.367 . S
C2441 C2440 1.367 . S
C2441 C2443 1.433 . S
C2442 C2438 1.350 . S
C2442 C2439 1.463 . S
C2442 N2446 1.427 . S
C2443 H2433 0.929 . S
C2443 C2441 1.433 . S
C2443 N2446 1.384 . S
C2444 H2435 0.929 . S
C2444 C2436 1.378 . S
C2444 C2439 1.350 . S
C2445 H2432 0.929 . S
C2445 C2437 1.433 . S
C2445 N2447 1.384 . S
N2446 C2442 1.427 . S
N2446 C2443 1.384 . S
N2447 C2439 1.427 . S
N2447 C2445 1.384 . S
H2448 C2454 0.930 . S
H2449 C2458 0.930 . S
H2450 C2463 0.929 . S
H2451 C2461 0.929 . S
H2452 C2456 0.929 . S
H2453 C2462 0.929 . S
C2454 H2448 0.930 . S
C2454 C2455 1.367 . S
C2454 C2462 1.378 . S
C2455 C2454 1.367 . S
C2455 C2463 1.433 . S
C2456 H2452 0.929 . S
C2456 C2458 1.378 . S
C2456 C2460 1.350 . S
C2457 C2460 1.463 . S
C2457 C2462 1.350 . S
C2457 N2465 1.427 . S
C2458 H2449 0.930 . S
C2458 C2456 1.378 . S
C2458 C2459 1.367 . S
C2459 C2458 1.367 . S
C2459 C2461 1.433 . S
C2460 C2456 1.350 . S
C2460 C2457 1.463 . S
C2460 N2464 1.427 . S
C2461 H2451 0.929 . S
C2461 C2459 1.433 . S
C2461 N2464 1.384 . S
C2462 H2453 0.929 . S
C2462 C2454 1.378 . S
C2462 C2457 1.350 . S
C2463 H2450 0.929 . S
C2463 C2455 1.433 . S
C2463 N2465 1.384 . S
N2464 C2460 1.427 . S
N2464 C2461 1.384 . S
N2465 C2457 1.427 . S
N2465 C2463 1.384 . S
H2466 C2472 0.930 . S
H2467 C2476 0.930 . S
H2468 C2481 0.929 . S
H2469 C2479 0.929 . S
H2470 C2474 0.929 . S
H2471 C2480 0.929 . S
C2472 H2466 0.930 . S
C2472 C2473 1.367 . S
C2472 C2480 1.378 . S
C2473 C2472 1.367 . S
C2473 C2481 1.433 . S
C2474 H2470 0.929 . S
C2474 C2476 1.378 . S
C2474 C2478 1.350 . S
C2475 C2478 1.463 . S
C2475 C2480 1.350 . S
C2475 N2483 1.427 . S
C2476 H2467 0.930 . S
C2476 C2474 1.378 . S
C2476 C2477 1.367 . S
C2477 C2476 1.367 . S
C2477 C2479 1.433 . S
C2478 C2474 1.350 . S
C2478 C2475 1.463 . S
C2478 N2482 1.427 . S
C2479 H2469 0.929 . S
C2479 C2477 1.433 . S
C2479 N2482 1.384 . S
C2480 H2471 0.929 . S
C2480 C2472 1.378 . S
C2480 C2475 1.350 . S
C2481 H2468 0.929 . S
C2481 C2473 1.433 . S
C2481 N2483 1.384 . S
N2482 C2478 1.427 . S
N2482 C2479 1.384 . S
N2483 C2475 1.427 . S
N2483 C2481 1.384 . S
H2484 C2490 0.930 . S
H2485 C2494 0.930 . S
H2486 C2499 0.929 . S
H2487 C2497 0.929 . S
H2488 C2492 0.929 1_455 S
H2489 C2498 0.929 . S
C2490 H2484 0.930 . S
C2490 C2491 1.367 . S
C2490 C2498 1.378 . S
C2491 C2490 1.367 . S
C2491 C2499 1.433 . S
C2492 H2488 0.929 1_655 S
C2492 C2494 1.378 . S
C2492 C2496 1.350 . S
C2493 C2496 1.463 1_455 S
C2493 C2498 1.350 . S
C2493 N2501 1.427 . S
C2494 H2485 0.930 . S
C2494 C2492 1.378 . S
C2494 C2495 1.367 . S
C2495 C2494 1.367 . S
C2495 C2497 1.433 . S
C2496 C2492 1.350 . S
C2496 C2493 1.463 1_655 S
C2496 N2500 1.427 . S
C2497 H2487 0.929 . S
C2497 C2495 1.433 . S
C2497 N2500 1.384 . S
C2498 H2489 0.929 . S
C2498 C2490 1.378 . S
C2498 C2493 1.350 . S
C2499 H2486 0.929 . S
C2499 C2491 1.433 . S
C2499 N2501 1.384 . S
N2500 C2496 1.427 . S
N2500 C2497 1.384 . S
N2501 C2493 1.427 . S
N2501 C2499 1.384 . S
H2502 C2508 0.930 . S
H2503 C2512 0.930 . S
H2504 C2517 0.929 . S
H2505 C2515 0.929 . S
H2506 C2510 0.929 . S
H2507 C2516 0.929 . S
C2508 H2502 0.930 . S
C2508 C2509 1.367 . S
C2508 C2516 1.378 . S
C2509 C2508 1.367 . S
C2509 C2517 1.433 . S
C2510 H2506 0.929 . S
C2510 C2512 1.378 . S
C2510 C2514 1.350 . S
C2511 C2514 1.463 . S
C2511 C2516 1.350 . S
C2511 N2519 1.427 . S
C2512 H2503 0.930 . S
C2512 C2510 1.378 . S
C2512 C2513 1.367 . S
C2513 C2512 1.367 . S
C2513 C2515 1.433 . S
C2514 C2510 1.350 . S
C2514 C2511 1.463 . S
C2514 N2518 1.427 . S
C2515 H2505 0.929 . S
C2515 C2513 1.433 . S
C2515 N2518 1.384 . S
C2516 H2507 0.929 . S
C2516 C2508 1.378 . S
C2516 C2511 1.350 . S
C2517 H2504 0.929 . S
C2517 C2509 1.433 . S
C2517 N2519 1.384 . S
N2518 C2514 1.427 . S
N2518 C2515 1.384 . S
N2519 C2511 1.427 . S
N2519 C2517 1.384 . S
H2520 C2526 0.930 . S
H2521 C2530 0.930 . S
H2522 C2535 0.929 . S
H2523 C2533 0.929 . S
H2524 C2528 0.929 . S
H2525 C2534 0.929 . S
C2526 H2520 0.930 . S
C2526 C2527 1.367 . S
C2526 C2534 1.378 . S
C2527 C2526 1.367 . S
C2527 C2535 1.433 . S
C2528 H2524 0.929 . S
C2528 C2530 1.378 . S
C2528 C2532 1.350 . S
C2529 C2532 1.463 1_545 S
C2529 C2534 1.350 . S
C2529 N2537 1.427 . S
C2530 H2521 0.930 . S
C2530 C2528 1.378 . S
C2530 C2531 1.367 . S
C2531 C2530 1.367 . S
C2531 C2533 1.433 . S
C2532 C2528 1.350 . S
C2532 C2529 1.463 1_565 S
C2532 N2536 1.427 . S
C2533 H2523 0.929 . S
C2533 C2531 1.433 . S
C2533 N2536 1.384 . S
C2534 H2525 0.929 . S
C2534 C2526 1.378 . S
C2534 C2529 1.350 . S
C2535 H2522 0.929 . S
C2535 C2527 1.433 . S
C2535 N2537 1.384 . S
N2536 C2532 1.427 . S
N2536 C2533 1.384 . S
N2537 C2529 1.427 . S
N2537 C2535 1.384 . S
H2538 C2544 0.930 . S
H2539 C2548 0.930 . S
H2540 C2553 0.929 . S
H2541 C2551 0.929 . S
H2542 C2546 0.929 . S
H2543 C2552 0.929 . S
C2544 H2538 0.930 . S
C2544 C2545 1.367 . S
C2544 C2552 1.378 . S
C2545 C2544 1.367 . S
C2545 C2553 1.433 1_554 S
C2546 H2542 0.929 . S
C2546 C2548 1.378 . S
C2546 C2550 1.350 . S
C2547 C2550 1.463 1_544 S
C2547 C2552 1.350 . S
C2547 N2555 1.427 1_554 S
C2548 H2539 0.930 . S
C2548 C2546 1.378 . S
C2548 C2549 1.367 . S
C2549 C2548 1.367 . S
C2549 C2551 1.433 1_556 S
C2550 C2546 1.350 . S
C2550 C2547 1.463 1_566 S
C2550 N2554 1.427 1_556 S
C2551 H2541 0.929 . S
C2551 C2549 1.433 1_554 S
C2551 N2554 1.384 . S
C2552 H2543 0.929 . S
C2552 C2544 1.378 . S
C2552 C2547 1.350 . S
C2553 H2540 0.929 . S
C2553 C2545 1.433 1_556 S
C2553 N2555 1.384 . S
N2554 C2550 1.427 1_554 S
N2554 C2551 1.384 . S
N2555 C2547 1.427 1_556 S
N2555 C2553 1.384 . S
H2556 C2562 0.930 . S
H2557 C2566 0.930 . S
H2558 C2571 0.929 . S
H2559 C2569 0.929 . S
H2560 C2564 0.929 . S
H2561 C2570 0.929 . S
C2562 H2556 0.930 . S
C2562 C2563 1.367 . S
C2562 C2570 1.378 . S
C2563 C2562 1.367 . S
C2563 C2571 1.433 1_554 S
C2564 H2560 0.929 . S
C2564 C2566 1.378 . S
C2564 C2568 1.350 . S
C2565 C2568 1.463 1_654 S
C2565 C2570 1.350 . S
C2565 N2573 1.427 1_554 S
C2566 H2557 0.930 . S
C2566 C2564 1.378 . S
C2566 C2567 1.367 . S
C2567 C2566 1.367 . S
C2567 C2569 1.433 1_556 S
C2568 C2564 1.350 . S
C2568 C2565 1.463 1_456 S
C2568 N2572 1.427 1_556 S
C2569 H2559 0.929 . S
C2569 C2567 1.433 1_554 S
C2569 N2572 1.384 . S
C2570 H2561 0.929 . S
C2570 C2562 1.378 . S
C2570 C2565 1.350 . S
C2571 H2558 0.929 . S
C2571 C2563 1.433 1_556 S
C2571 N2573 1.384 . S
N2572 C2568 1.427 1_554 S
N2572 C2569 1.384 . S
N2573 C2565 1.427 1_556 S
N2573 C2571 1.384 . S
H2574 C2580 0.930 . S
H2575 C2584 0.930 . S
H2576 C2589 0.929 . S
H2577 C2587 0.929 . S
H2578 C2582 0.929 . S
H2579 C2588 0.929 . S
C2580 H2574 0.930 . S
C2580 C2581 1.367 . S
C2580 C2588 1.378 . S
C2581 C2580 1.367 . S
C2581 C2589 1.433 . S
C2582 H2578 0.929 . S
C2582 C2584 1.378 . S
C2582 C2586 1.350 . S
C2583 C2586 1.463 1_554 S
C2583 C2588 1.350 . S
C2583 N2591 1.427 . S
C2584 H2575 0.930 . S
C2584 C2582 1.378 . S
C2584 C2585 1.367 . S
C2585 C2584 1.367 . S
C2585 C2587 1.433 . S
C2586 C2582 1.350 . S
C2586 C2583 1.463 1_556 S
C2586 N2590 1.427 . S
C2587 H2577 0.929 . S
C2587 C2585 1.433 . S
C2587 N2590 1.384 . S
C2588 H2579 0.929 . S
C2588 C2580 1.378 . S
C2588 C2583 1.350 . S
C2589 H2576 0.929 . S
C2589 C2581 1.433 . S
C2589 N2591 1.384 . S
N2590 C2586 1.427 . S
N2590 C2587 1.384 . S
N2591 C2583 1.427 . S
N2591 C2589 1.384 . S
C1303 C374 1.202 . S
C1307 C2 1.176 . S
C1321 C400 1.023 . S
C1325 C38 1.002 . S
C1339 C74 1.179 . S
C1343 C338 1.207 . S
C1357 C110 1.169 . S
C1361 C302 1.199 . S
C1375 C146 0.997 . S
C1379 C220 1.005 . S
C1393 C266 1.188 . S
C1397 C182 1.159 . S
C1411 C158 1.005 . S
C1415 C219 1.016 . S
C1429 C194 1.212 . S
C1433 C254 1.184 . S
C1447 C290 1.178 . S
C1451 C122 1.203 . S
C1465 C86 1.194 . S
C1469 C326 1.167 . S
C1483 C362 1.177 . S
C1487 C14 1.206 . S
C1501 C399 1.014 . S
C1505 C50 1.002 . S
C1519 C806 1.188 . S
C1523 C434 1.158 . S
C1537 C832 1.005 . S
C1541 C470 0.999 . S
C1555 C506 1.174 . S
C1559 C770 1.203 . S
C1573 C542 1.171 . S
C1577 C734 1.200 1_556 S
C1591 C578 0.982 . S
C1595 C652 1.017 1_556 S
C1609 C614 1.175 . S
C1613 C698 1.200 1_556 S
C1627 C590 0.983 . S
C1631 C651 1.001 . S
C1645 C626 1.197 . S
C1649 C686 1.166 . S
C1663 C554 1.196 . S
C1667 C722 1.169 . S
C1681 C518 1.195 . S
C1685 C758 1.168 . S
C1699 C446 1.207 . S
C1703 C794 1.178 . S
C1717 C482 0.987 . S
C1721 C831 1.003 . S
C1735 C866 1.157 . S
C1739 C1238 1.188 . S
C1753 C1264 1.006 . S
C1757 C902 1.000 . S
C1771 C1202 1.211 . S
C1775 C938 1.184 . S
C1789 C974 1.172 . S
C1793 C1166 1.202 . S
C1807 C1010 0.982 . S
C1811 C1084 1.008 . S
C1825 C1046 1.177 . S
C1829 C1130 1.202 . S
C1843 C1022 1.004 . S
C1847 C1083 1.016 . S
C1861 C1058 1.196 . S
C1865 C1118 1.163 . S
C1879 C986 1.201 . S
C1883 C1154 1.175 . S
C1897 C1190 1.156 . S
C1901 C950 1.186 1_554 S
C1915 C878 1.197 1_554 S
C1919 C1226 1.165 . S
C1933 C1263 1.016 . S
C1937 C914 1.004 . S
C1951 C112 1.505 . S
C1955 C4 1.507 . S
C1969 C148 1.444 . S
C1973 C40 1.441 . S
C1987 C76 1.501 . S
C1991 C184 1.507 . S
C2005 C328 1.435 . S
C2009 C230 1.381 . S
C2023 C364 1.477 . S
C2027 C256 1.475 . S
C2041 C410 1.378 . S
C2045 C292 1.431 . S
C2059 C544 1.506 . S
C2063 C436 1.504 . S
C2077 C580 1.444 . S
C2081 C472 1.440 . S
C2095 C508 1.502 . S
C2099 C616 1.508 . S
C2113 C662 1.377 . S
C2117 C760 1.431 . S
C2131 C796 1.474 . S
C2135 C688 1.475 . S
C2149 C724 1.430 . S
C2153 C842 1.365 . S
C2167 C976 1.506 . S
C2171 C868 1.504 . S
C2185 C1012 1.443 . S
C2189 C904 1.441 . S
C2203 C940 1.505 . S
C2207 C1048 1.503 . S
C2221 C1094 1.370 . S
C2225 C1192 1.429 . S
C2239 C1120 1.478 . S
C2243 C1228 1.474 . S
C2257 C1156 1.429 . S
C2261 C1274 1.364 . S
C2275 C3 1.546 . S
C2279 C650 1.521 . S
C2293 C687 1.424 . S
C2297 C39 1.424 . S
C2311 C723 1.480 . S
C2315 C75 1.480 . S
C2329 C1191 1.483 . S
C2333 C111 1.483 . S
C2347 C1227 1.425 . S
C2351 C147 1.425 . S
C2365 C1262 1.512 . S
C2369 C183 1.544 . S
C2383 C218 1.521 . S
C2387 C867 1.546 . S
C2401 C903 1.425 . S
C2405 C255 1.425 . S
C2419 C939 1.480 . S
C2423 C291 1.480 . S
C2437 C327 1.483 . S
C2441 C543 1.483 . S
C2455 C363 1.424 . S
C2459 C579 1.425 . S
C2473 C398 1.519 . S
C2477 C615 1.546 . S
C2491 C1082 1.522 . S
C2495 C435 1.546 . S
C2509 C1119 1.425 . S
C2513 C471 1.425 . S
C2527 C507 1.481 . S
C2531 C1155 1.480 . S
C2545 C759 1.483 . S
C2549 C975 1.483 . S
C2563 C795 1.426 . S
C2567 C1011 1.426 . S
C2581 C830 1.522 . S
C2585 C1047 1.546 . S
