# Generated by pormake.
# Topology bcg, (8)-cn, num edge types: 1
# Building blocks:
#     Node 0, Type 0, BuildingBlock: EYACOX_clean_sbu_0, # of connection points: 8
#     Node 1, Type 0, BuildingBlock: EYACOX_clean_sbu_0, # of connection points: 8
#     Node 2, Type 0, BuildingBlock: EYACOX_clean_sbu_0, # of connection points: 8
#     Node 3, Type 0, BuildingBlock: EYACOX_clean_sbu_0, # of connection points: 8
#     Edge 4, Type (0, 0), BuildingBlock: TEMPAE_clean_linker_10, # of connection points: 2
#     Edge 5, Type (0, 0), BuildingBlock: TEMPAE_clean_linker_10, # of connection points: 2
#     Edge 6, Type (0, 0), BuildingBlock: TEMPAE_clean_linker_10, # of connection points: 2
#     Edge 7, Type (0, 0), BuildingBlock: TEMPAE_clean_linker_10, # of connection points: 2
#     Edge 8, Type (0, 0), BuildingBlock: TEMPAE_clean_linker_10, # of connection points: 2
#     Edge 9, Type (0, 0), BuildingBlock: TEMPAE_clean_linker_10, # of connection points: 2
#     Edge 10, Type (0, 0), BuildingBlock: TEMPAE_clean_linker_10, # of connection points: 2
#     Edge 11, Type (0, 0), BuildingBlock: TEMPAE_clean_linker_10, # of connection points: 2
#     Edge 12, Type (0, 0), BuildingBlock: TEMPAE_clean_linker_10, # of connection points: 2
#     Edge 13, Type (0, 0), BuildingBlock: TEMPAE_clean_linker_10, # of connection points: 2
#     Edge 14, Type (0, 0), BuildingBlock: TEMPAE_clean_linker_10, # of connection points: 2
#     Edge 15, Type (0, 0), BuildingBlock: TEMPAE_clean_linker_10, # of connection points: 2
#     Edge 16, Type (0, 0), BuildingBlock: TEMPAE_clean_linker_10, # of connection points: 2
#     Edge 17, Type (0, 0), BuildingBlock: TEMPAE_clean_linker_10, # of connection points: 2
#     Edge 18, Type (0, 0), BuildingBlock: TEMPAE_clean_linker_10, # of connection points: 2
#     Edge 19, Type (0, 0), BuildingBlock: TEMPAE_clean_linker_10, # of connection points: 2
# Relax obj value: 0.109
# Max RMSD: 0.200
# Mean RMSD: 0.200
data_MOF--net-bcg--node1-EYACOX_clean_sbu_0--edge1-TEMPAE_clean_linker_10
_symmetry_space_group_name_H-M    P1
_symmetry_Int_Tables_number       1
_symmetry_cell_setting            triclinic
loop_
_symmetry_equiv_pos_as_xyz
'x, y, z'
_cell_length_a     22.147206
_cell_length_b     19.62206
_cell_length_c     32.590226
_cell_angle_alpha  90.279372
_cell_angle_beta   120.36159
_cell_angle_gamma 90.31289
loop_
_atom_site_label
_atom_site_type_symbol
_atom_site_fract_x
_atom_site_fract_y
_atom_site_fract_z
_atom_type_partial_charge
Eu0 Eu 0.34281 0.28271 0.98184 0.0
Eu1 Eu 0.27415 0.3772 0.03826 0.0
O2 O 0.37237 0.29018 0.92746 0.0
O3 O 0.39077 0.19627 0.96583 0.0
O4 O 0.24017 0.26829 0.02674 0.0
O5 O 0.23395 0.23966 0.95683 0.0
O6 O 0.38188 0.23469 0.05384 0.0
O7 O 0.37311 0.32706 0.09504 0.0
C8 C 0.47032 0.22661 0.93919 0.0
C9 C 0.6016 0.22014 0.94656 0.0
C10 C 0.58909 0.27098 0.97122 0.0
C11 C 0.52371 0.27374 0.96838 0.0
C12 C 0.54652 0.18165 0.91091 0.0
C13 C 0.48113 0.18248 0.90889 0.0
C14 C 0.40033 0.22998 0.93509 0.0
C15 C 0.2065 0.24 0.98451 0.0
O16 O 0.26081 0.38829 0.10001 0.0
O17 O 0.20882 0.45849 0.04154 0.0
C18 C 0.3965 0.26563 0.09396 0.0
O19 O 0.35403 0.44292 0.03352 0.0
O20 O 0.42383 0.35633 0.03308 0.0
O21 O 0.19491 0.37632 0.95904 0.0
O22 O 0.28183 0.37491 0.94243 0.0
C23 C 0.15552 0.43769 0.08945 0.0
C24 C 0.10994 0.42492 0.14384 0.0
C25 C 0.16606 0.4224 0.13517 0.0
C26 C 0.04506 0.44694 0.10771 0.0
C27 C 1.03196 0.45905 0.06179 0.0
C28 C 0.08719 0.45382 0.0523 0.0
C29 C 0.21699 0.43854 0.08225 0.0
C30 C 0.41386 0.42063 0.03929 0.0
C31 C 0.21485 0.37814 0.92737 0.0
H32 H 0.65316 0.21782 0.95038 0.0
H33 H 0.5137 0.3136 0.98727 0.0
H34 H 0.43779 0.15225 0.88223 0.0
H35 H 0.21727 0.4073 0.1635 0.0
H36 H 1.00217 0.45025 0.11474 0.0
H37 H 0.07699 0.46251 0.01656 0.0
Eu38 Eu 0.84345 0.79366 0.97521 0.0
Eu39 Eu 0.7431 0.88579 0.00775 0.0
O40 O 0.86096 0.72314 0.92943 0.0
O41 O 0.94874 0.77211 0.98975 0.0
O42 O 0.69089 0.78471 0.98039 0.0
O43 O 0.78701 0.71891 -0.00296 0.0
O44 O 0.90701 0.81709 0.05381 0.0
O45 O 0.81568 0.81766 0.06739 0.0
C46 C 0.9585 0.75628 0.9208 0.0
C47 C 1.01912 0.79245 0.86609 0.0
C48 C 1.03022 0.83415 0.9041 0.0
C49 C 0.99938 0.81648 0.93115 0.0
C50 C 0.98136 0.73147 0.85608 0.0
C51 C 0.95097 0.71302 0.88353 0.0
C52 C 0.92795 0.73668 0.95082 0.0
C53 C 0.72302 0.72598 0.98959 0.0
O54 O 0.72434 0.90594 0.06643 0.0
O55 O 0.66853 0.96389 0.00171 0.0
C56 C 0.8818 0.80784 0.08207 0.0
O57 O 0.82821 0.95348 0.01138 0.0
O58 O 0.83783 0.90106 0.95204 0.0
O59 O 0.67796 0.88339 0.92726 0.0
O60 O 0.74143 0.80795 0.90841 0.0
C61 C 0.61373 0.95096 0.04931 0.0
C62 C 0.56064 0.93359 0.09922 0.0
C63 C 0.61842 0.92785 0.09221 0.0
C64 C 0.50096 0.96659 0.06457 0.0
C65 C 0.49337 -0.01473 0.02099 0.0
C66 C 0.54965 0.97747 0.0132 0.0
C67 C 0.67641 0.95137 0.0435 0.0
C68 C 0.84467 0.95455 0.97797 0.0
C69 C 0.68703 0.84694 0.89662 0.0
H70 H 0.04513 0.80472 0.84632 0.0
H71 H 1.00916 0.8488 0.961 0.0
H72 H 0.92253 0.6652 0.87631 0.0
H73 H 0.66614 0.90467 0.11949 0.0
H74 H 0.45697 0.97331 0.07007 0.0
H75 H 0.54336 -0.0077 0.97927 0.0
Eu76 Eu 0.24414 0.56757 0.5105 0.0
Eu77 Eu 0.32338 0.66067 0.46091 0.0
O78 O 0.23309 0.54974 0.57272 0.0
O79 O 0.17188 0.48971 0.50874 0.0
O80 O 0.37994 0.56294 0.49131 0.0
O81 O 0.29203 0.49201 0.48409 0.0
O82 O 0.16394 0.59758 0.43515 0.0
O83 O 0.24137 0.58862 0.40933 0.0
C84 C 0.11799 0.51839 0.55445 0.0
C85 C 0.99859 0.54417 0.56061 0.0
C86 C 0.99124 0.52002 0.51811 0.0
C87 C 0.0505 0.50735 0.5146 0.0
C88 C 0.06392 0.54924 0.60195 0.0
C89 C 0.12435 0.53807 0.59861 0.0
C90 C 0.18134 0.50658 0.5505 0.0
C91 C 0.34971 0.50273 0.4832 0.0
O92 O 0.3245 0.69895 0.39788 0.0
O93 O 0.41645 0.70996 0.46781 0.0
C94 C 0.17692 0.59404 0.40002 0.0
O95 O 0.24163 0.73264 0.45871 0.0
O96 O 0.21406 0.67467 0.50941 0.0
O97 O 0.36063 0.70267 0.53371 0.0
O98 O 0.35202 0.6036 0.56775 0.0
C99 C 0.43659 0.69459 0.40341 0.0
C100 C 0.4877 0.71614 0.35282 0.0
C101 C 0.43972 0.73322 0.36778 0.0
C102 C 0.53272 0.66155 0.37488 0.0
C103 C 0.52839 0.621 0.40828 0.0
C104 C 0.48085 0.63771 0.42312 0.0
C105 C 0.39065 0.71644 0.42207 0.0
C106 C 0.21274 0.72883 0.48562 0.0
C107 C 0.37441 0.66705 0.57134 0.0
H108 H 0.95159 0.55512 0.56197 0.0
H109 H 0.04377 0.48839 0.48124 0.0
H110 H 0.17563 0.54286 0.63018 0.0
H111 H 0.40537 0.77634 0.35217 0.0
H112 H 0.57369 0.65076 0.36687 0.0
H113 H 0.47928 0.6075 0.45034 0.0
Eu114 Eu 0.76306 0.08672 0.53167 0.0
Eu115 Eu 0.84265 0.18246 0.48477 0.0
O116 O 0.74947 0.06654 0.59242 0.0
O117 O 0.69365 0.00415 0.529 0.0
O118 O 0.91718 0.10585 0.53419 0.0
O119 O 0.83922 0.02045 0.52298 0.0
O120 O 0.68947 0.09111 0.45196 0.0
O121 O 0.77854 0.0955 0.43664 0.0
C122 C 0.64184 0.01734 0.57854 0.0
C123 C 0.53049 0.00644 0.59591 0.0
C124 C 0.51748 -0.00242 0.54962 0.0
C125 C 0.57312 0.00348 0.54064 0.0
C126 C 0.59611 0.02596 0.63313 0.0
C127 C 0.65262 0.02931 0.62484 0.0
C128 C 0.70308 0.01827 0.57111 0.0
C129 C 0.90165 0.04108 0.53237 0.0
O130 O 0.87275 0.18274 0.43046 0.0
O131 O 0.9005 0.26897 0.47796 0.0
C132 C 0.71161 0.08804 0.42142 0.0
O133 O 0.73708 0.22919 0.45877 0.0
O134 O 0.71911 0.19222 0.51919 0.0
O135 O 0.87766 0.22783 0.55762 0.0
O136 O 0.86089 0.13338 0.59267 0.0
C137 C 0.97634 0.2425 0.448 0.0
C138 C 0.05481 0.28707 0.4216 0.0
C139 C 0.98893 0.28668 0.41874 0.0
C140 C 0.1088 0.24937 0.45752 0.0
C141 C 0.09364 0.19691 0.47959 0.0
C142 C 1.0277 0.19418 0.47595 0.0
C143 C 0.90648 0.24063 0.4439 0.0
C144 C 0.70392 0.23139 0.48269 0.0
C145 C 0.88764 0.19456 0.59564 0.0
H146 H 0.48709 0.00348 0.60246 0.0
H147 H 0.56278 -0.00244 0.50458 0.0
H148 H 0.70421 0.043 0.65388 0.0
H149 H 0.9466 0.31695 0.39209 0.0
H150 H 0.16053 0.25141 0.46151 0.0
H151 H 1.01553 0.15331 0.49294 0.0
C152 C 0.63003 0.37866 0.95485 0.0
C153 C 0.63953 0.32844 0.98808 0.0
C154 C 0.68713 0.41594 0.9588 0.0
C155 C 0.75504 0.40349 -0.00259 0.0
C156 C 0.76373 0.35774 0.03357 0.0
C157 C 0.706 0.31978 0.02801 0.0
C158 C 0.67579 0.46412 0.91964 0.0
C159 C 0.83496 0.34498 0.07636 0.0
C160 C 0.92388 0.40965 -0.00494 0.0
C161 C 0.95712 0.46582 0.0249 0.0
C162 C 0.85426 0.39278 0.98112 0.0
C163 C 0.81802 0.43258 -0.00185 0.0
C164 C 0.84801 0.49479 0.02215 0.0
C165 C 0.91658 0.51181 0.03386 0.0
C166 C 0.82305 0.32774 0.95325 0.0
C167 C 0.81261 0.5386 0.04178 0.0
H168 H 0.57898 0.38381 0.92318 0.0
H169 H 0.7137 0.27977 0.05299 0.0
H170 H 0.69837 0.51499 0.9348 0.0
H171 H 0.70332 0.4449 0.90144 0.0
H172 H 0.61951 0.4699 0.89273 0.0
H173 H 0.83158 0.31439 0.10374 0.0
H174 H 0.86778 0.31713 0.06514 0.0
H175 H 0.86189 0.39399 0.09272 0.0
H176 H 0.95467 0.37415 0.98771 0.0
H177 H 0.94218 0.55549 0.0569 0.0
H178 H 0.76613 0.33298 0.92795 0.0
H179 H 0.83019 0.28605 0.97818 0.0
H180 H 0.84905 0.31281 0.93307 0.0
H181 H 0.82857 0.59279 0.04387 0.0
H182 H 0.82884 0.52164 0.07832 0.0
H183 H 0.75487 0.53453 0.0202 0.0
C184 C 0.14678 0.87935 0.96357 0.0
C185 C 0.08534 0.88727 0.91977 0.0
C186 C 0.20909 0.91174 0.97294 0.0
C187 C 0.20916 0.95478 0.9381 0.0
C188 C 0.14559 0.96855 0.89585 0.0
C189 C 0.08442 0.93373 0.88684 0.0
C190 C 0.27595 0.89442 0.01817 0.0
C191 C 0.14329 0.01643 0.85898 0.0
C192 C 0.38246 0.04689 0.9922 0.0
C193 C 0.42138 -0.00011 0.98268 0.0
C194 C 0.31064 0.03675 0.97389 0.0
C195 C 0.2771 -0.02062 0.94457 0.0
C196 C 0.31418 0.93796 0.92908 0.0
C197 C 0.38617 0.94925 0.9481 0.0
C198 C 0.27315 0.08173 0.99121 0.0
C199 C 0.28073 0.87569 0.89818 0.0
H200 H 0.14775 0.84257 0.98863 0.0
H201 H 1.03677 0.93959 0.85283 0.0
H202 H 0.31064 0.86508 0.00931 0.0
H203 H 0.30478 0.94129 0.03729 0.0
H204 H 0.26588 0.86353 0.04259 0.0
H205 H 0.08933 0.02318 0.82858 0.0
H206 H 0.16506 0.06693 0.87546 0.0
H207 H 0.17638 -0.00324 0.84505 0.0
H208 H 0.41 0.08555 0.01945 0.0
H209 H 0.4163 0.91252 0.94103 0.0
H210 H 0.26643 0.05477 0.01848 0.0
H211 H 0.22036 0.09384 0.96147 0.0
H212 H 0.30276 0.12952 0.00743 0.0
H213 H 0.27488 0.83532 0.9197 0.0
H214 H 0.3128 0.85524 0.88358 0.0
H215 H 0.22777 0.88727 0.8682 0.0
C216 C 0.58243 0.51821 0.39726 0.0
C217 C 0.57995 0.5656 0.42879 0.0
C218 C 0.64572 0.48884 0.40692 0.0
C219 C 0.70788 0.50835 0.44879 0.0
C220 C 0.70385 0.54791 0.48393 0.0
C221 C 0.63948 0.57609 0.47346 0.0
C222 C 0.64673 0.44492 0.36914 0.0
C223 C 0.76877 0.56789 0.52999 0.0
C224 C 0.89013 0.44423 0.48966 0.0
C225 C 0.9197 0.50168 0.481 0.0
C226 C 0.81933 0.44311 0.47639 0.0
C227 C 0.77693 0.49935 0.45218 0.0
C228 C 0.80449 0.55263 0.43699 0.0
C229 C 0.87613 0.5535 0.4521 0.0
C230 C 0.79231 0.38607 0.49345 0.0
C231 C 0.76038 0.61268 0.40965 0.0
H232 H 0.5368 0.51124 0.3622 0.0
H233 H 0.63777 0.61303 0.4977 0.0
H234 H 0.65593 0.47781 0.34519 0.0
H235 H 0.68904 0.40668 0.38475 0.0
H236 H 0.59584 0.41798 0.34729 0.0
H237 H 0.75582 0.58833 0.55645 0.0
H238 H 0.80405 0.52377 0.54573 0.0
H239 H 0.79792 0.60785 0.5229 0.0
H240 H 0.92442 0.40484 0.51287 0.0
H241 H 0.89937 0.59835 0.44608 0.0
H242 H 0.78624 0.40476 0.52331 0.0
H243 H 0.82827 0.34211 0.50619 0.0
H244 H 0.74033 0.36898 0.46443 0.0
H245 H 0.70931 0.59505 0.37958 0.0
H246 H 0.78688 0.64505 0.39547 0.0
H247 H 0.74957 0.64454 0.43342 0.0
C248 C 0.12423 0.09111 0.4542 0.0
C249 C 0.13945 0.13725 0.49133 0.0
C250 C 0.17747 0.05347 0.45351 0.0
C251 C 0.24699 0.0605 0.4917 0.0
C252 C 0.26113 0.10137 0.53169 0.0
C253 C 0.20748 0.14074 0.53045 0.0
C254 C 0.16041 0.01071 0.4103 0.0
C255 C 0.33405 0.10762 0.57428 0.0
C256 C 0.39952 0.94755 0.51769 0.0
C257 C 0.44275 -0.00529 0.51211 0.0
C258 C 0.33215 0.9658 0.5074 0.0
C259 C 0.30639 0.03094 0.48855 0.0
C260 C 0.34477 0.07285 0.47425 0.0
C261 C 0.41306 0.05434 0.48651 0.0
C262 C 0.29386 0.9192 0.52337 0.0
C263 C 0.31752 0.14125 0.45159 0.0
H264 H 0.07198 0.09011 0.42324 0.0
H265 H 0.21958 0.17765 0.5585 0.0
H266 H 0.19002 0.03008 0.39358 0.0
H267 H 0.17671 0.95728 0.42091 0.0
H268 H 0.10372 0.01111 0.38332 0.0
H269 H 0.3342 0.13346 0.60472 0.0
H270 H 0.35777 0.05653 0.58584 0.0
H271 H 0.36767 0.13747 0.56458 0.0
H272 H 0.4224 0.90121 0.5374 0.0
H273 H 0.44606 0.09082 0.48187 0.0
H274 H 0.3042 0.86512 0.5191 0.0
H275 H 0.23671 0.92777 0.50353 0.0
H276 H 0.31299 0.92874 0.56161 0.0
H277 H 0.34621 0.16103 0.43427 0.0
H278 H 0.32392 0.17848 0.47929 0.0
H279 H 0.26093 0.13791 0.42471 0.0
C280 C 0.70533 0.6763 0.05126 0.0
C281 C 0.69288 0.67299 0.00473 0.0
C282 C 0.66726 0.63564 0.06533 0.0
C283 C 0.61411 0.59254 0.03131 0.0
C284 C 0.60214 0.58818 0.9843 0.0
C285 C 0.64179 0.62906 0.97142 0.0
C286 C 0.68091 0.64272 0.1155 0.0
C287 C 0.54519 0.54295 0.9471 0.0
C288 C 0.53701 0.44447 0.06209 0.0
C289 C 0.46995 0.46904 0.04796 0.0
C290 C 0.58684 0.48611 0.06019 0.0
C291 C 0.56881 0.55349 0.04383 0.0
C292 C 0.50388 0.58065 0.03412 0.0
C293 C 0.45486 0.53782 0.03631 0.0
C294 C 0.65718 0.45706 0.073 0.0
C295 C 0.48434 0.65339 0.01822 0.0
H296 H 0.74223 0.71347 0.07604 0.0
H297 H 0.63108 0.62878 0.93506 0.0
H298 H 0.64132 0.6771 0.11553 0.0
H299 H 0.67656 0.59296 0.12981 0.0
H300 H 0.73361 0.66489 0.13981 0.0
H301 H 0.55015 0.49034 0.96068 0.0
H302 H 0.49332 0.56204 0.93911 0.0
H303 H 0.54636 0.54138 0.91345 0.0
H304 H 0.54949 0.39165 0.07238 0.0
H305 H 0.40334 0.55713 0.02592 0.0
H306 H 0.69955 0.48726 0.10243 0.0
H307 H 0.66533 0.46087 0.04221 0.0
H308 H 0.66233 0.40298 0.08411 0.0
H309 H 0.52736 0.68872 0.04203 0.0
H310 H 0.43578 0.66885 0.01772 0.0
H311 H 0.47602 0.65923 0.98187 0.0
C312 C 0.64352 0.32843 0.49298 0.0
C313 C 0.64198 0.2731 0.46558 0.0
C314 C 0.5819 0.36144 0.48252 0.0
C315 C 0.517 0.33453 0.44619 0.0
C316 C 0.51537 0.27972 0.41737 0.0
C317 C 0.57864 0.25027 0.42692 0.0
C318 C 0.5863 0.42263 0.51231 0.0
C319 C 0.44716 0.25065 0.37809 0.0
C320 C 0.39632 0.38664 0.48809 0.0
C321 C 0.37593 0.4494 0.46543 0.0
C322 C 0.43466 0.34186 0.47661 0.0
C323 C 0.45221 0.36147 0.44206 0.0
C324 C 0.42108 0.41942 0.41382 0.0
C325 C 0.38411 0.46368 0.42654 0.0
C326 C 0.46296 0.27753 0.50503 0.0
C327 C 0.42884 0.43697 0.37171 0.0
H328 H 0.69267 0.34442 0.52359 0.0
H329 H 0.57828 0.20659 0.40634 0.0
H330 H 0.5517 0.46383 0.48947 0.0
H331 H 0.56871 0.40791 0.53745 0.0
H332 H 0.64053 0.44325 0.53324 0.0
H333 H 0.45495 0.20417 0.3618 0.0
H334 H 0.41191 0.23784 0.39197 0.0
H335 H 0.42041 0.28935 0.34997 0.0
H336 H 0.38725 0.37505 0.51705 0.0
H337 H 0.36406 0.51092 0.4073 0.0
H338 H 0.51777 0.28661 0.53389 0.0
H339 H 0.46313 0.23535 0.48226 0.0
H340 H 0.4319 0.26151 0.52154 0.0
H341 H 0.43009 0.49306 0.36772 0.0
H342 H 0.38233 0.41696 0.33904 0.0
H343 H 0.47587 0.41423 0.37363 0.0
C344 C 0.10321 0.23508 0.99443 0.0
C345 C 0.13501 0.21511 0.96837 0.0
C346 C 0.04087 0.20507 0.98606 0.0
C347 C 1.01014 0.15341 0.95114 0.0
C348 C 1.03567 0.14069 0.91985 0.0
C349 C 0.0984 0.17212 0.92874 0.0
C350 C 1.01228 0.22342 0.01805 0.0
C351 C 0.999 0.09056 0.87931 0.0
C352 C 0.95754 0.00184 -0.00362 0.0
C353 C 0.88547 0.01043 0.97506 0.0
C354 C 0.99801 0.04715 0.98733 0.0
C355 C 0.96513 0.10253 0.95625 0.0
C356 C 0.89182 0.11113 0.93429 0.0
C357 C 0.85249 0.06424 0.94381 0.0
C358 C 0.07593 0.03517 0.01073 0.0
C359 C 0.85406 0.16742 0.89939 0.0
H360 H 0.12864 0.27202 0.02318 0.0
H361 H 0.12036 0.16026 0.90647 0.0
H362 H 0.95458 0.22879 -0.00304 0.0
H363 H 1.02418 0.18196 0.04405 0.0
H364 H 1.03547 0.27164 0.03809 0.0
H365 H 1.00112 0.03879 0.89347 0.0
H366 H 0.94295 0.10416 0.85732 0.0
H367 H 1.0226 0.08935 0.85634 0.0
H368 H 0.98188 0.95822 0.01908 0.0
H369 H 0.79598 0.06848 0.92585 0.0
H370 H 0.10524 0.07986 0.03312 0.0
H371 H 0.09094 0.02883 0.98319 0.0
H372 H 0.09268 -0.01088 0.03343 0.0
H373 H 0.8881 0.21243 0.90536 0.0
H374 H 0.80749 0.18381 0.90117 0.0
H375 H 0.83541 0.14777 0.86289 0.0
C376 C 0.9327 0.92694 0.51463 0.0
C377 C 0.95294 -0.00724 0.53368 0.0
C378 C 0.97874 0.88584 0.50804 0.0
C379 C 0.04527 0.9123 0.5198 0.0
C380 C 0.06749 0.97669 0.5421 0.0
C381 C 1.02111 0.01606 0.54896 0.0
C382 C 0.95672 0.81407 0.48912 0.0
C383 C 0.1404 0.00377 0.55925 0.0
C384 C 0.19069 0.79447 0.54018 0.0
C385 C 0.18005 0.78731 0.49414 0.0
C386 C 0.14648 0.83387 0.54893 0.0
C387 C 0.09335 0.87128 0.51121 0.0
C388 C 0.08673 0.86983 0.4655 0.0
C389 C 0.12957 0.82628 0.4571 0.0
C390 C 0.15634 0.832 0.59837 0.0
C391 C 1.03316 0.91259 0.42536 0.0
H392 H 0.88039 0.90841 0.50349 0.0
H393 H 1.03778 0.0662 0.56512 0.0
H394 H 0.99663 0.7775 0.51364 0.0
H395 H 0.90527 0.79975 0.48491 0.0
H396 H 0.95327 0.8087 0.45412 0.0
H397 H 0.14553 0.05853 0.56924 0.0
H398 H 0.17838 0.97538 0.59121 0.0
H399 H 0.15517 -0.00378 0.53173 0.0
H400 H 0.231 0.76504 0.56912 0.0
H401 H 0.12164 0.82054 0.42159 0.0
H402 H 0.11261 0.85465 0.60091 0.0
H403 H 0.2055 0.85948 0.62335 0.0
H404 H 0.16267 0.77847 0.61079 0.0
H405 H 0.97971 0.89446 0.41481 0.0
H406 H 1.03928 0.91048 0.39359 0.0
H407 H 1.03756 0.9664 0.43727 0.0
C408 C 0.58888 0.09361 0.35139 0.0
C409 C 0.66135 0.09179 0.36938 0.0
C410 C 0.54244 0.11166 0.30383 0.0
C411 C 0.56915 0.12896 0.27383 0.0
C412 C 0.64142 0.12139 0.29065 0.0
C413 C 0.6865 0.10251 0.33803 0.0
C414 C 0.46512 0.11517 0.28622 0.0
C415 C 0.67181 0.1374 0.25943 0.0
C416 C 0.45019 0.15945 0.14076 0.0
C417 C 0.44103 0.23028 0.13968 0.0
C418 C 0.49097 0.12526 0.18398 0.0
C419 C 0.52364 0.16286 0.22728 0.0
C420 C 0.51498 0.23452 0.22627 0.0
C421 C 0.47341 0.26715 0.18263 0.0
C422 C 0.49691 0.04885 0.18257 0.0
C423 C 0.55055 0.27708 0.27134 0.0
H424 H 0.56863 0.08399 0.37494 0.0
H425 H 0.74219 0.10002 0.35113 0.0
H426 H 0.44839 0.16916 0.28094 0.0
H427 H 0.43501 0.08871 0.2513 0.0
H428 H 0.4516 0.09182 0.31157 0.0
H429 H 0.72857 0.12605 0.2771 0.0
H430 H 0.64407 0.10747 0.22582 0.0
H431 H 0.66426 0.19219 0.24992 0.0
H432 H 0.42463 0.13028 0.10782 0.0
H433 H 0.46695 0.32191 0.18216 0.0
H434 H 0.54574 0.02936 0.21314 0.0
H435 H 0.49465 0.03229 0.14922 0.0
H436 H 0.45178 0.02501 0.18307 0.0
H437 H 0.5322 0.26101 0.29583 0.0
H438 H 0.54027 0.33238 0.26433 0.0
H439 H 0.60797 0.26912 0.28998 0.0
C440 C 0.61192 0.90667 0.18707 0.0
C441 C 0.55683 0.90219 0.13976 0.0
C442 C 0.60347 0.88232 0.22471 0.0
C443 C 0.53776 0.85512 0.21486 0.0
C444 C 0.48223 0.85125 0.16727 0.0
C445 C 0.49324 0.87214 0.13059 0.0
C446 C 0.66472 0.88571 0.27488 0.0
C447 C 0.41073 0.82453 0.15481 0.0
C448 C 0.51401 0.71734 0.28642 0.0
C449 C 0.49487 0.75371 0.31544 0.0
C450 C 0.53353 0.75046 0.25692 0.0
C451 C 0.52822 0.8221 0.25256 0.0
C452 C 0.50554 0.85943 0.27973 0.0
C453 C 0.4902 0.82492 0.31143 0.0
C454 C 0.55951 0.70822 0.2301 0.0
C455 C 0.49569 0.93542 0.27454 0.0
H456 H 0.66104 0.92999 0.19473 0.0
H457 H 0.45078 0.86594 0.09421 0.0
H458 H 0.65429 0.92384 0.29572 0.0
H459 H 0.67211 0.83571 0.29254 0.0
H460 H 0.71408 0.90037 0.27603 0.0
H461 H 0.37124 0.83206 0.11677 0.0
H462 H 0.41334 0.76926 0.16235 0.0
H463 H 0.39252 0.85054 0.17687 0.0
H464 H 0.51527 0.66215 0.2874 0.0
H465 H 0.47556 0.85379 0.33344 0.0
H466 H 0.57128 0.65503 0.24323 0.0
H467 H 0.60761 0.73147 0.23342 0.0
H468 H 0.51936 0.70646 0.19176 0.0
H469 H 0.44912 0.94645 0.23948 0.0
H470 H 0.54147 0.96056 0.27575 0.0
H471 H 0.48762 0.9581 0.30268 0.0
C472 C 0.4459 0.66406 0.66024 0.0
C473 C 0.41277 0.70153 0.61821 0.0
C474 C 0.4839 0.69718 0.70452 0.0
C475 C 0.48757 0.76944 0.70668 0.0
C476 C 0.45215 0.80761 0.66446 0.0
C477 C 0.41538 0.77314 0.62073 0.0
C478 C 0.52259 0.65476 0.74884 0.0
C479 C 0.45338 0.88471 0.66535 0.0
C480 C 0.56172 0.83879 0.83209 0.0
C481 C 0.63261 0.8443 0.84613 0.0
C482 C 0.51219 0.81898 0.7853 0.0
C483 C 0.53487 0.80404 0.75265 0.0
C484 C 0.60551 0.81543 0.76582 0.0
C485 C 0.65345 0.83533 0.81243 0.0
C486 C 0.43651 0.8106 0.77154 0.0
C487 C 0.63165 0.80174 0.7318 0.0
H488 H 0.44375 0.60886 0.65847 0.0
H489 H 0.38859 0.80252 0.5884 0.0
H490 H 0.57974 0.66413 0.7655 0.0
H491 H 0.50731 0.66976 0.77518 0.0
H492 H 0.51226 0.59932 0.74129 0.0
H493 H 0.42203 0.90332 0.68094 0.0
H494 H 0.5074 0.90482 0.68797 0.0
H495 H 0.4315 0.90643 0.62923 0.0
H496 H 0.54568 0.84585 0.85821 0.0
H497 H 0.70836 0.84044 0.8233 0.0
H498 H 0.42248 0.75563 0.76733 0.0
H499 H 0.40206 0.83526 0.73686 0.0
H500 H 0.42588 0.83286 0.79865 0.0
H501 H 0.62643 0.74653 0.72291 0.0
H502 H 0.68733 0.8171 0.7469 0.0
H503 H 0.59973 0.82964 0.69812 0.0
C504 C 0.52606 0.09029 0.84898 0.0
C505 C 0.55709 0.15194 0.87243 0.0
C506 C 0.5373 0.0647 0.81274 0.0
C507 C 0.58137 0.10096 0.80028 0.0
C508 C 0.6136 0.16229 0.82439 0.0
C509 C 0.59951 0.18773 0.85878 0.0
C510 C 0.49991 0.00036 0.78654 0.0
C511 C 0.66038 0.20333 0.81224 0.0
C512 C 0.64672 0.0215 0.72233 0.0
C513 C 0.59984 0.04933 0.67794 0.0
C514 C 0.64122 0.03713 0.7627 0.0
C515 C 0.58704 0.08055 0.75814 0.0
C516 C 0.54075 0.10957 0.71351 0.0
C517 C 0.54848 0.09454 0.67445 0.0
C518 C 0.69377 0.00809 0.81026 0.0
C519 C 0.48211 0.15594 0.70665 0.0
H520 H 0.49284 0.06233 0.85867 0.0
H521 H 0.62118 0.2372 0.87435 0.0
H522 H 0.45504 0.01379 0.75123 0.0
H523 H 0.53512 0.96752 0.78025 0.0
H524 H 0.4796 0.97099 0.80613 0.0
H525 H 0.69003 0.24373 0.83917 0.0
H526 H 0.69822 0.16981 0.80932 0.0
H527 H 0.62811 0.22807 0.77728 0.0
H528 H 0.68625 -0.01363 0.7252 0.0
H529 H 0.5125 0.11682 0.64029 0.0
H530 H 0.66702 -0.01331 0.8284 0.0
H531 H 0.72908 0.04953 0.83332 0.0
H532 H 0.72617 0.96789 0.8069 0.0
H533 H 0.44527 0.12747 0.71405 0.0
H534 H 0.45245 0.17641 0.67001 0.0
H535 H 0.50303 0.19958 0.73192 0.0
C536 C 0.06371 0.64851 0.34184 0.0
C537 C 0.12361 0.6124 0.35103 0.0
C538 C 1.0203 0.67728 0.29696 0.0
C539 C 1.03672 0.66839 0.2605 0.0
C540 C 0.09442 0.62813 0.26878 0.0
C541 C 0.13786 0.60184 0.31415 0.0
C542 C 0.95881 0.71972 0.28915 0.0
C543 C 0.11186 0.61485 0.23024 0.0
C544 C 0.90161 0.70758 0.13273 0.0
C545 C 0.92366 0.77206 0.12712 0.0
C546 C 0.93712 0.67341 0.17612 0.0
C547 C 0.99657 0.70462 0.21468 0.0
C548 C 1.01961 0.76967 0.20895 0.0
C549 C 0.98291 0.8026 0.16491 0.0
C550 C 0.91161 0.60352 0.18009 0.0
C551 C 0.08287 0.80445 0.24939 0.0
H552 H 0.05285 0.6575 0.37032 0.0
H553 H 0.18443 0.57472 0.32109 0.0
H554 H 0.96729 0.77339 0.28253 0.0
H555 H 0.91029 0.70118 0.25723 0.0
H556 H 0.95085 0.71865 0.32018 0.0
H557 H 0.15777 0.58104 0.24234 0.0
H558 H 0.06637 0.59074 0.19892 0.0
H559 H 0.12318 0.66369 0.21835 0.0
H560 H 0.85686 0.68347 0.10286 0.0
H561 H 0.99957 0.85259 0.16026 0.0
H562 H 0.85673 0.59387 0.15137 0.0
H563 H 0.91473 0.59696 0.2149 0.0
H564 H 0.94523 0.56427 0.17726 0.0
H565 H 0.07588 0.80956 0.28067 0.0
H566 H 0.09249 0.85587 0.23961 0.0
H567 H 0.13003 0.77298 0.26037 0.0
C568 C 0.10466 0.27177 0.3684 0.0
C569 C 0.06607 0.31245 0.38267 0.0
C570 C 0.11973 0.2929 0.33367 0.0
C571 C 0.09286 0.35522 0.31028 0.0
C572 C 0.05223 0.39624 0.32327 0.0
C573 C 0.0396 0.37452 0.35957 0.0
C574 C 0.16203 0.24668 0.32064 0.0
C575 C 1.01919 0.46145 0.2976 0.0
C576 C 0.16473 0.42415 0.2335 0.0
C577 C 0.1136 0.40064 0.18833 0.0
C578 C 0.15914 0.40975 0.27389 0.0
C579 C 0.10045 0.37225 0.26854 0.0
C580 C 0.05043 0.34644 0.22325 0.0
C581 C 0.05853 0.35957 0.1842 0.0
C582 C 0.21619 0.43399 0.32218 0.0
C583 C 0.98745 0.30567 0.21572 0.0
H584 H 0.12267 0.22201 0.38401 0.0
H585 H 1.00899 0.4059 0.36966 0.0
H586 H 0.12858 0.22699 0.28383 0.0
H587 H 0.20599 0.27542 0.32161 0.0
H588 H 0.1838 0.2025 0.34488 0.0
H589 H 1.01313 0.49813 0.32131 0.0
H590 H 0.04986 0.48599 0.28333 0.0
H591 H 0.96623 0.44973 0.26716 0.0
H592 H 0.20765 0.45538 0.23703 0.0
H593 H 1.01973 0.33964 0.14956 0.0
H594 H 0.24952 0.39025 0.34207 0.0
H595 H 0.19377 0.45475 0.34332 0.0
H596 H 0.25022 0.47337 0.31949 0.0
H597 H 1.00435 0.26032 0.23898 0.0
H598 H 0.95414 0.28817 0.17829 0.0
H599 H 0.95514 0.33722 0.22551 0.0
C600 C 0.18686 0.31135 0.85459 0.0
C601 C 0.16484 0.35696 0.8776 0.0
C602 C 0.14018 0.28484 0.8093 0.0
C603 C 0.06985 0.30666 0.78513 0.0
C604 C 0.04716 0.3534 0.80788 0.0
C605 C 0.09462 0.37669 0.85438 0.0
C606 C 0.16572 0.23136 0.78821 0.0
C607 C 0.97259 0.37776 0.78401 0.0
C608 C 0.9736 0.28337 0.6504 0.0
C609 C 0.93261 0.22505 0.64381 0.0
C610 C 1.01802 0.31064 0.69616 0.0
C611 C 1.02066 0.27981 0.73627 0.0
C612 C 0.97907 0.2213 0.72984 0.0
C613 C 0.9356 0.19475 0.68381 0.0
C614 C 0.06351 0.37156 0.70184 0.0
C615 C 0.98184 0.18566 0.77174 0.0
H616 H 0.24027 0.29375 0.87287 0.0
H617 H 0.07694 0.41081 0.87235 0.0
H618 H 0.13567 0.1833 0.78237 0.0
H619 H 0.15682 0.24778 0.7531 0.0
H620 H 0.22227 0.2204 0.81154 0.0
H621 H 0.96919 0.42831 0.79819 0.0
H622 H 0.94909 0.38134 0.74491 0.0
H623 H 0.94082 0.34107 0.79118 0.0
H624 H 0.97206 0.30706 0.61991 0.0
H625 H 0.9041 0.14979 0.67928 0.0
H626 H 0.11951 0.358 0.72356 0.0
H627 H 0.05408 0.41283 0.72124 0.0
H628 H 0.05419 0.39062 0.66713 0.0
H629 H 1.0365 0.17121 0.79768 0.0
H630 H 0.94845 0.13903 0.76098 0.0
H631 H 0.96429 0.22068 0.79037 0.0
C632 C 1.01358 0.52887 0.65426 0.0
C633 C 0.06431 0.56199 0.64739 0.0
C634 C 1.00048 0.54868 0.69031 0.0
C635 C 0.03995 0.60249 0.72145 0.0
C636 C 0.09474 0.63324 0.71711 0.0
C637 C 0.10625 0.61272 0.67997 0.0
C638 C 0.94079 0.51489 0.69258 0.0
C639 C 0.13842 0.69053 0.74994 0.0
C640 C 0.95091 0.71036 0.77265 0.0
C641 C 0.98184 0.6868 0.81945 0.0
C642 C 0.96867 0.68267 0.74036 0.0
C643 C 1.01916 0.63035 0.7553 0.0
C644 C 0.04794 0.60392 0.80186 0.0
C645 C 1.029 0.63258 0.83346 0.0
C646 C 0.9356 0.71155 0.69084 0.0
C647 C 0.10087 0.54737 0.81882 0.0
H648 H 0.98123 0.48896 0.62966 0.0
H649 H 0.14514 0.63892 0.67486 0.0
H650 H 0.95414 0.5071 0.72989 0.0
H651 H 0.89432 0.54831 0.67551 0.0
H652 H 0.92608 0.46492 0.67367 0.0
H653 H 0.1054 0.73627 0.74279 0.0
H654 H 0.1586 0.67625 0.78755 0.0
H655 H 0.18334 0.70423 0.74531 0.0
H656 H 0.91582 0.75342 0.76222 0.0
H657 H 0.05448 0.61566 0.87004 0.0
H658 H 0.9099 0.67026 0.66399 0.0
H659 H 0.97661 0.73465 0.68515 0.0
H660 H 0.89605 0.751 0.68444 0.0
H661 H 0.07932 0.50292 0.79428 0.0
H662 H 0.11635 0.53068 0.85534 0.0
H663 H 0.14842 0.56482 0.81857 0.0
loop_
_geom_bond_atom_site_label_1
_geom_bond_atom_site_label_2
_geom_bond_distance
_geom_bond_site_symmetry_2
_ccdc_geom_bond_type
Eu0 O2 2.472 . S
Eu0 O3 2.507 1_556 S
Eu0 O5 2.336 1_556 S
Eu0 O6 2.389 1_556 S
Eu0 C14 2.835 . S
Eu0 O20 2.396 1_556 S
Eu0 O22 2.323 . S
Eu1 O4 2.396 1_554 S
Eu1 O7 2.323 . S
Eu1 O16 2.472 . S
Eu1 O17 2.507 1_554 S
Eu1 O19 2.336 1_554 S
Eu1 O21 2.389 1_554 S
Eu1 C29 2.835 . S
O2 Eu0 2.472 . S
O2 C14 1.258 . S
O3 Eu0 2.507 1_554 S
O3 C14 1.246 1_554 S
O4 Eu1 2.396 1_556 S
O4 C15 1.216 1_556 S
O5 Eu0 2.336 1_554 S
O5 C15 1.279 . S
O6 Eu0 2.389 1_554 S
O6 C18 1.239 . S
O7 Eu1 2.323 . S
O7 C18 1.249 . S
C8 C11 1.390 . S
C8 C13 1.370 . S
C8 C14 1.489 . S
C9 C10 1.344 . S
C9 C12 1.413 . S
C9 H32 0.931 . S
C10 C9 1.344 . S
C10 C11 1.423 . S
C11 C8 1.390 . S
C11 C10 1.423 . S
C11 H33 0.930 1_556 S
C12 C9 1.413 . S
C12 C13 1.397 . S
C13 C8 1.370 . S
C13 C12 1.397 . S
C13 H34 0.932 . S
C14 Eu0 2.835 . S
C14 O2 1.258 . S
C14 O3 1.246 1_556 S
C14 C8 1.489 . S
C15 O4 1.216 1_554 S
C15 O5 1.279 . S
O16 Eu1 2.472 . S
O16 C29 1.258 . S
O17 Eu1 2.507 1_556 S
O17 C29 1.246 1_556 S
C18 O6 1.239 . S
C18 O7 1.249 . S
O19 Eu1 2.336 1_556 S
O19 C30 1.289 1_556 S
O20 Eu0 2.396 1_554 S
O20 C30 1.210 . S
O21 Eu1 2.389 1_556 S
O21 C31 1.239 . S
O22 Eu0 2.323 . S
O22 C31 1.249 . S
C23 C25 1.370 . S
C23 C28 1.390 1_455 S
C23 C29 1.489 . S
C24 C25 1.397 . S
C24 C26 1.413 1_455 S
C25 C23 1.370 . S
C25 C24 1.397 . S
C25 H35 0.932 . S
C26 C24 1.413 1_655 S
C26 C27 1.344 . S
C26 H36 0.931 . S
C27 C26 1.344 . S
C27 C28 1.423 . S
C28 C23 1.390 1_655 S
C28 C27 1.423 . S
C28 H37 0.930 1_554 S
C29 Eu1 2.835 . S
C29 O16 1.258 . S
C29 O17 1.246 1_554 S
C29 C23 1.489 . S
C30 O19 1.289 1_554 S
C30 O20 1.210 . S
C31 O21 1.239 . S
C31 O22 1.249 . S
H32 C9 0.931 . S
H33 C11 0.930 1_554 S
H34 C13 0.932 . S
H35 C25 0.932 . S
H36 C26 0.931 . S
H37 C28 0.930 1_556 S
Eu38 O40 2.472 . S
Eu38 O41 2.507 1_556 S
Eu38 O43 2.336 1_556 S
Eu38 O44 2.389 1_556 S
Eu38 C52 2.835 . S
Eu38 O58 2.396 1_556 S
Eu38 O60 2.323 . S
Eu39 O42 2.396 1_554 S
Eu39 O45 2.323 . S
Eu39 O54 2.472 . S
Eu39 O55 2.507 1_554 S
Eu39 O57 2.336 1_554 S
Eu39 O59 2.389 1_554 S
Eu39 C67 2.835 . S
O40 Eu38 2.472 . S
O40 C52 1.258 . S
O41 Eu38 2.507 1_554 S
O41 C52 1.246 1_554 S
O42 Eu39 2.396 1_556 S
O42 C53 1.216 1_556 S
O43 Eu38 2.336 1_554 S
O43 C53 1.279 . S
O44 Eu38 2.389 1_554 S
O44 C56 1.239 . S
O45 Eu39 2.323 . S
O45 C56 1.249 . S
C46 C49 1.390 1_655 S
C46 C51 1.370 . S
C46 C52 1.489 . S
C47 C48 1.344 . S
C47 C50 1.413 1_455 S
C47 H70 0.931 . S
C48 C47 1.344 . S
C48 C49 1.423 . S
C49 C46 1.390 1_455 S
C49 C48 1.423 . S
C49 H71 0.930 1_556 S
C50 C47 1.413 1_655 S
C50 C51 1.397 . S
C51 C46 1.370 . S
C51 C50 1.397 . S
C51 H72 0.932 . S
C52 Eu38 2.835 . S
C52 O40 1.258 . S
C52 O41 1.246 1_556 S
C52 C46 1.489 . S
C53 O42 1.216 1_554 S
C53 O43 1.279 . S
O54 Eu39 2.472 . S
O54 C67 1.258 . S
O55 Eu39 2.507 1_556 S
O55 C67 1.246 1_556 S
C56 O44 1.239 . S
C56 O45 1.249 . S
O57 Eu39 2.336 1_556 S
O57 C68 1.289 1_556 S
O58 Eu38 2.396 1_554 S
O58 C68 1.210 . S
O59 Eu39 2.389 1_556 S
O59 C69 1.239 . S
O60 Eu38 2.323 . S
O60 C69 1.249 . S
C61 C63 1.370 . S
C61 C66 1.390 . S
C61 C67 1.489 . S
C62 C63 1.397 . S
C62 C64 1.413 . S
C63 C61 1.370 . S
C63 C62 1.397 . S
C63 H73 0.932 . S
C64 C62 1.413 . S
C64 C65 1.344 . S
C64 H74 0.931 . S
C65 C64 1.344 . S
C65 C66 1.423 . S
C66 C61 1.390 . S
C66 C65 1.423 . S
C66 H75 0.930 1_554 S
C67 Eu39 2.835 . S
C67 O54 1.258 . S
C67 O55 1.246 1_554 S
C67 C61 1.489 . S
C68 O57 1.289 1_554 S
C68 O58 1.210 . S
C69 O59 1.239 . S
C69 O60 1.249 . S
H70 C47 0.931 . S
H71 C49 0.930 1_554 S
H72 C51 0.932 . S
H73 C63 0.932 . S
H74 C64 0.931 . S
H75 C66 0.930 1_556 S
Eu76 O78 2.472 . S
Eu76 O79 2.507 . S
Eu76 O81 2.336 . S
Eu76 O82 2.389 . S
Eu76 C90 2.835 . S
Eu76 O96 2.396 . S
Eu76 O98 2.323 . S
Eu77 O80 2.396 . S
Eu77 O83 2.323 . S
Eu77 O92 2.472 . S
Eu77 O93 2.507 . S
Eu77 O95 2.336 . S
Eu77 O97 2.389 . S
Eu77 C105 2.835 . S
O78 Eu76 2.472 . S
O78 C90 1.258 . S
O79 Eu76 2.507 . S
O79 C90 1.246 . S
O80 Eu77 2.396 . S
O80 C91 1.216 . S
O81 Eu76 2.336 . S
O81 C91 1.279 . S
O82 Eu76 2.389 . S
O82 C94 1.239 . S
O83 Eu77 2.323 . S
O83 C94 1.249 . S
C84 C87 1.390 1_455 S
C84 C89 1.370 . S
C84 C90 1.489 . S
C85 C86 1.344 . S
C85 C88 1.413 1_655 S
C85 H108 0.931 . S
C86 C85 1.344 . S
C86 C87 1.423 . S
C87 C84 1.390 1_655 S
C87 C86 1.423 . S
C87 H109 0.930 . S
C88 C85 1.413 1_455 S
C88 C89 1.397 . S
C89 C84 1.370 . S
C89 C88 1.397 . S
C89 H110 0.932 . S
C90 Eu76 2.835 . S
C90 O78 1.258 . S
C90 O79 1.246 . S
C90 C84 1.489 . S
C91 O80 1.216 . S
C91 O81 1.279 . S
O92 Eu77 2.472 . S
O92 C105 1.258 . S
O93 Eu77 2.507 . S
O93 C105 1.246 . S
C94 O82 1.239 . S
C94 O83 1.249 . S
O95 Eu77 2.336 . S
O95 C106 1.279 . S
O96 Eu76 2.396 . S
O96 C106 1.216 . S
O97 Eu77 2.389 . S
O97 C107 1.239 . S
O98 Eu76 2.323 . S
O98 C107 1.249 . S
C99 C101 1.370 . S
C99 C104 1.390 . S
C99 C105 1.489 . S
C100 C101 1.397 . S
C100 C102 1.413 . S
C101 C99 1.370 . S
C101 C100 1.397 . S
C101 H111 0.932 . S
C102 C100 1.413 . S
C102 C103 1.344 . S
C102 H112 0.931 . S
C103 C102 1.344 . S
C103 C104 1.423 . S
C104 C99 1.390 . S
C104 C103 1.423 . S
C104 H113 0.930 . S
C105 Eu77 2.835 . S
C105 O92 1.258 . S
C105 O93 1.246 . S
C105 C99 1.489 . S
C106 O95 1.279 . S
C106 O96 1.216 . S
C107 O97 1.239 . S
C107 O98 1.249 . S
H108 C85 0.931 . S
H109 C87 0.930 . S
H110 C89 0.932 . S
H111 C101 0.932 . S
H112 C102 0.931 . S
H113 C104 0.930 . S
Eu114 O116 2.472 . S
Eu114 O117 2.507 . S
Eu114 O119 2.336 . S
Eu114 O120 2.389 . S
Eu114 C128 2.835 . S
Eu114 O134 2.396 . S
Eu114 O136 2.323 . S
Eu115 O118 2.396 . S
Eu115 O121 2.323 . S
Eu115 O130 2.472 . S
Eu115 O131 2.507 . S
Eu115 O133 2.336 . S
Eu115 O135 2.389 . S
Eu115 C143 2.835 . S
O116 Eu114 2.472 . S
O116 C128 1.258 . S
O117 Eu114 2.507 . S
O117 C128 1.246 . S
O118 Eu115 2.396 . S
O118 C129 1.216 . S
O119 Eu114 2.336 . S
O119 C129 1.279 . S
O120 Eu114 2.389 . S
O120 C132 1.239 . S
O121 Eu115 2.323 . S
O121 C132 1.249 . S
C122 C125 1.390 . S
C122 C127 1.370 . S
C122 C128 1.489 . S
C123 C124 1.344 . S
C123 C126 1.413 . S
C123 H146 0.931 . S
C124 C123 1.344 . S
C124 C125 1.423 . S
C125 C122 1.390 . S
C125 C124 1.423 . S
C125 H147 0.930 . S
C126 C123 1.413 . S
C126 C127 1.397 . S
C127 C122 1.370 . S
C127 C126 1.397 . S
C127 H148 0.932 . S
C128 Eu114 2.835 . S
C128 O116 1.258 . S
C128 O117 1.246 . S
C128 C122 1.489 . S
C129 O118 1.216 . S
C129 O119 1.279 . S
O130 Eu115 2.472 . S
O130 C143 1.258 . S
O131 Eu115 2.507 . S
O131 C143 1.246 . S
C132 O120 1.239 . S
C132 O121 1.249 . S
O133 Eu115 2.336 . S
O133 C144 1.279 . S
O134 Eu114 2.396 . S
O134 C144 1.216 . S
O135 Eu115 2.389 . S
O135 C145 1.239 . S
O136 Eu114 2.323 . S
O136 C145 1.249 . S
C137 C139 1.370 . S
C137 C142 1.390 1_655 S
C137 C143 1.489 . S
C138 C139 1.397 . S
C138 C140 1.413 1_655 S
C139 C137 1.370 . S
C139 C138 1.397 . S
C139 H149 0.932 . S
C140 C138 1.413 1_455 S
C140 C141 1.344 . S
C140 H150 0.931 . S
C141 C140 1.344 . S
C141 C142 1.423 . S
C142 C137 1.390 1_455 S
C142 C141 1.423 . S
C142 H151 0.930 . S
C143 Eu115 2.835 . S
C143 O130 1.258 . S
C143 O131 1.246 . S
C143 C137 1.489 . S
C144 O133 1.279 . S
C144 O134 1.216 . S
C145 O135 1.239 . S
C145 O136 1.249 . S
H146 C123 0.931 . S
H147 C125 0.930 . S
H148 C127 0.932 . S
H149 C139 0.932 . S
H150 C140 0.931 . S
H151 C142 0.930 . S
C152 C153 1.391 . S
C152 C154 1.394 . S
C152 H168 0.931 . S
C153 C152 1.391 . S
C153 C157 1.376 1_556 S
C154 C152 1.394 . S
C154 C155 1.369 . S
C154 C158 1.531 . S
C155 C154 1.369 . S
C155 C156 1.410 1_556 S
C155 C163 1.503 1_556 S
C156 C155 1.410 1_554 S
C156 C157 1.392 . S
C156 C159 1.511 . S
C157 C153 1.376 1_554 S
C157 C156 1.392 . S
C157 H169 0.929 . S
C158 C154 1.531 . S
C158 H170 0.960 . S
C158 H171 0.962 . S
C158 H172 0.960 . S
C159 C156 1.511 . S
C159 H173 0.961 . S
C159 H174 0.961 . S
C159 H175 0.961 . S
C160 C161 1.370 . S
C160 C162 1.363 . S
C160 H176 0.931 . S
C161 C160 1.370 . S
C161 C165 1.408 . S
C162 C160 1.363 . S
C162 C163 1.370 . S
C162 C166 1.524 . S
C163 C155 1.503 1_554 S
C163 C162 1.370 . S
C163 C164 1.403 . S
C164 C163 1.403 . S
C164 C165 1.404 . S
C164 C167 1.539 . S
C165 C161 1.408 . S
C165 C164 1.404 . S
C165 H177 0.930 . S
C166 C162 1.524 . S
C166 H178 0.956 1_554 S
C166 H179 0.961 . S
C166 H180 0.961 . S
C167 C164 1.539 . S
C167 H181 0.958 1_554 S
C167 H182 0.961 . S
C167 H183 0.960 . S
H168 C152 0.931 . S
H169 C157 0.929 . S
H170 C158 0.960 . S
H171 C158 0.962 . S
H172 C158 0.960 . S
H173 C159 0.961 . S
H174 C159 0.961 . S
H175 C159 0.961 . S
H176 C160 0.931 . S
H177 C165 0.930 . S
H178 C166 0.956 1_556 S
H179 C166 0.961 . S
H180 C166 0.961 . S
H181 C167 0.958 1_556 S
H182 C167 0.961 . S
H183 C167 0.960 . S
C184 C185 1.391 . S
C184 C186 1.394 . S
C184 H200 0.931 . S
C185 C184 1.391 . S
C185 C189 1.376 . S
C186 C184 1.394 . S
C186 C187 1.369 . S
C186 C190 1.531 1_556 S
C187 C186 1.369 . S
C187 C188 1.410 . S
C187 C195 1.504 . S
C188 C187 1.410 . S
C188 C189 1.392 . S
C188 C191 1.511 . S
C189 C185 1.376 . S
C189 C188 1.392 . S
C189 H201 0.929 . S
C190 C186 1.531 1_554 S
C190 H202 0.939 1_554 S
C190 H203 0.962 . S
C190 H204 0.960 1_554 S
C191 C188 1.511 . S
C191 H205 0.961 . S
C191 H206 0.961 . S
C191 H207 0.961 . S
C192 C193 1.370 . S
C192 C194 1.363 . S
C192 H208 0.931 . S
C193 C192 1.370 . S
C193 C197 1.408 1_554 S
C194 C192 1.363 . S
C194 C195 1.372 1_554 S
C194 C198 1.524 . S
C195 C187 1.504 . S
C195 C194 1.372 1_556 S
C195 C196 1.400 . S
C196 C195 1.400 . S
C196 C197 1.404 . S
C196 C199 1.539 . S
C197 C193 1.408 1_556 S
C197 C196 1.404 . S
C197 H209 0.930 . S
C198 C194 1.524 . S
C198 H210 0.956 . S
C198 H211 0.961 . S
C198 H212 0.961 . S
C199 C196 1.539 . S
C199 H213 0.958 . S
C199 H214 0.961 . S
C199 H215 0.960 . S
H200 C184 0.931 . S
H201 C189 0.929 . S
H202 C190 0.939 1_556 S
H203 C190 0.962 . S
H204 C190 0.960 1_556 S
H205 C191 0.961 . S
H206 C191 0.961 . S
H207 C191 0.961 . S
H208 C192 0.931 . S
H209 C197 0.930 . S
H210 C198 0.956 . S
H211 C198 0.961 . S
H212 C198 0.961 . S
H213 C199 0.958 . S
H214 C199 0.961 . S
H215 C199 0.960 . S
C216 C217 1.391 . S
C216 C218 1.394 . S
C216 H232 0.931 . S
C217 C216 1.391 . S
C217 C221 1.376 . S
C218 C216 1.394 . S
C218 C219 1.369 . S
C218 C222 1.531 . S
C219 C218 1.369 . S
C219 C220 1.410 . S
C219 C227 1.503 . S
C220 C219 1.410 . S
C220 C221 1.392 . S
C220 C223 1.511 . S
C221 C217 1.376 . S
C221 C220 1.392 . S
C221 H233 0.929 . S
C222 C218 1.531 . S
C222 H234 0.960 . S
C222 H235 0.962 . S
C222 H236 0.960 . S
C223 C220 1.511 . S
C223 H237 0.961 . S
C223 H238 0.961 . S
C223 H239 0.961 . S
C224 C225 1.370 . S
C224 C226 1.363 . S
C224 H240 0.931 . S
C225 C224 1.370 . S
C225 C229 1.408 . S
C226 C224 1.363 . S
C226 C227 1.370 . S
C226 C230 1.524 . S
C227 C219 1.503 . S
C227 C226 1.370 . S
C227 C228 1.403 . S
C228 C227 1.403 . S
C228 C229 1.404 . S
C228 C231 1.539 . S
C229 C225 1.408 . S
C229 C228 1.404 . S
C229 H241 0.930 . S
C230 C226 1.524 . S
C230 H242 0.956 . S
C230 H243 0.961 . S
C230 H244 0.961 . S
C231 C228 1.539 . S
C231 H245 0.958 . S
C231 H246 0.961 . S
C231 H247 0.960 . S
H232 C216 0.931 . S
H233 C221 0.929 . S
H234 C222 0.960 . S
H235 C222 0.962 . S
H236 C222 0.960 . S
H237 C223 0.961 . S
H238 C223 0.961 . S
H239 C223 0.961 . S
H240 C224 0.931 . S
H241 C229 0.930 . S
H242 C230 0.956 . S
H243 C230 0.961 . S
H244 C230 0.961 . S
H245 C231 0.958 . S
H246 C231 0.961 . S
H247 C231 0.960 . S
C248 C249 1.391 . S
C248 C250 1.394 . S
C248 H264 0.931 . S
C249 C248 1.391 . S
C249 C253 1.376 . S
C250 C248 1.394 . S
C250 C251 1.369 . S
C250 C254 1.531 . S
C251 C250 1.369 . S
C251 C252 1.410 . S
C251 C259 1.503 . S
C252 C251 1.410 . S
C252 C253 1.392 . S
C252 C255 1.511 . S
C253 C249 1.376 . S
C253 C252 1.392 . S
C253 H265 0.929 . S
C254 C250 1.531 . S
C254 H266 0.960 . S
C254 H267 0.962 . S
C254 H268 0.960 . S
C255 C252 1.511 . S
C255 H269 0.961 . S
C255 H270 0.961 . S
C255 H271 0.961 . S
C256 C257 1.370 . S
C256 C258 1.363 . S
C256 H272 0.931 . S
C257 C256 1.370 . S
C257 C261 1.408 . S
C258 C256 1.363 . S
C258 C259 1.370 . S
C258 C262 1.524 . S
C259 C251 1.503 . S
C259 C258 1.370 . S
C259 C260 1.403 . S
C260 C259 1.403 . S
C260 C261 1.404 . S
C260 C263 1.539 . S
C261 C257 1.408 . S
C261 C260 1.404 . S
C261 H273 0.930 . S
C262 C258 1.524 . S
C262 H274 0.956 . S
C262 H275 0.961 . S
C262 H276 0.961 . S
C263 C260 1.539 . S
C263 H277 0.958 . S
C263 H278 0.961 . S
C263 H279 0.960 . S
H264 C248 0.931 . S
H265 C253 0.929 . S
H266 C254 0.960 . S
H267 C254 0.962 . S
H268 C254 0.960 . S
H269 C255 0.961 . S
H270 C255 0.961 . S
H271 C255 0.961 . S
H272 C256 0.931 . S
H273 C261 0.930 . S
H274 C262 0.956 . S
H275 C262 0.961 . S
H276 C262 0.961 . S
H277 C263 0.958 . S
H278 C263 0.961 . S
H279 C263 0.960 . S
C280 C281 1.391 . S
C280 C282 1.394 . S
C280 H296 0.931 1_556 S
C281 C280 1.391 . S
C281 C285 1.376 . S
C282 C280 1.394 . S
C282 C283 1.369 . S
C282 C286 1.531 1_556 S
C283 C282 1.369 . S
C283 C284 1.410 . S
C283 C291 1.503 . S
C284 C283 1.410 . S
C284 C285 1.392 . S
C284 C287 1.511 . S
C285 C281 1.376 . S
C285 C284 1.392 . S
C285 H297 0.929 . S
C286 C282 1.531 1_554 S
C286 H298 0.960 1_554 S
C286 H299 0.962 . S
C286 H300 0.960 1_554 S
C287 C284 1.511 . S
C287 H301 0.961 . S
C287 H302 0.961 . S
C287 H303 0.961 . S
C288 C289 1.370 . S
C288 C290 1.363 . S
C288 H304 0.931 . S
C289 C288 1.370 . S
C289 C293 1.408 1_554 S
C290 C288 1.363 . S
C290 C291 1.370 1_554 S
C290 C294 1.524 . S
C291 C283 1.503 . S
C291 C290 1.370 1_556 S
C291 C292 1.403 . S
C292 C291 1.403 . S
C292 C293 1.404 . S
C292 C295 1.539 . S
C293 C289 1.408 1_556 S
C293 C292 1.404 . S
C293 H305 0.930 . S
C294 C290 1.524 . S
C294 H306 0.956 . S
C294 H307 0.961 . S
C294 H308 0.961 . S
C295 C292 1.539 . S
C295 H309 0.958 . S
C295 H310 0.961 . S
C295 H311 0.960 . S
H296 C280 0.931 1_554 S
H297 C285 0.929 . S
H298 C286 0.960 1_556 S
H299 C286 0.962 . S
H300 C286 0.960 1_556 S
H301 C287 0.961 . S
H302 C287 0.961 . S
H303 C287 0.961 . S
H304 C288 0.931 . S
H305 C293 0.930 . S
H306 C294 0.956 . S
H307 C294 0.961 . S
H308 C294 0.961 . S
H309 C295 0.958 . S
H310 C295 0.961 . S
H311 C295 0.960 . S
C312 C313 1.391 . S
C312 C314 1.394 . S
C312 H328 0.931 . S
C313 C312 1.391 . S
C313 C317 1.376 . S
C314 C312 1.394 . S
C314 C315 1.369 . S
C314 C318 1.531 . S
C315 C314 1.369 . S
C315 C316 1.410 . S
C315 C323 1.503 . S
C316 C315 1.410 . S
C316 C317 1.392 . S
C316 C319 1.511 . S
C317 C313 1.376 . S
C317 C316 1.392 . S
C317 H329 0.929 . S
C318 C314 1.531 . S
C318 H330 0.960 . S
C318 H331 0.962 . S
C318 H332 0.960 . S
C319 C316 1.511 . S
C319 H333 0.961 . S
C319 H334 0.961 . S
C319 H335 0.961 . S
C320 C321 1.370 . S
C320 C322 1.363 . S
C320 H336 0.931 . S
C321 C320 1.370 . S
C321 C325 1.408 . S
C322 C320 1.363 . S
C322 C323 1.370 . S
C322 C326 1.524 . S
C323 C315 1.503 . S
C323 C322 1.370 . S
C323 C324 1.403 . S
C324 C323 1.403 . S
C324 C325 1.404 . S
C324 C327 1.539 . S
C325 C321 1.408 . S
C325 C324 1.404 . S
C325 H337 0.930 . S
C326 C322 1.524 . S
C326 H338 0.956 . S
C326 H339 0.961 . S
C326 H340 0.961 . S
C327 C324 1.539 . S
C327 H341 0.958 . S
C327 H342 0.961 . S
C327 H343 0.960 . S
H328 C312 0.931 . S
H329 C317 0.929 . S
H330 C318 0.960 . S
H331 C318 0.962 . S
H332 C318 0.960 . S
H333 C319 0.961 . S
H334 C319 0.961 . S
H335 C319 0.961 . S
H336 C320 0.931 . S
H337 C325 0.930 . S
H338 C326 0.956 . S
H339 C326 0.961 . S
H340 C326 0.961 . S
H341 C327 0.958 . S
H342 C327 0.961 . S
H343 C327 0.960 . S
C344 C345 1.391 1_554 S
C344 C346 1.378 . S
C344 H360 0.931 . S
C345 C344 1.391 1_556 S
C345 C349 1.376 . S
C346 C344 1.378 . S
C346 C347 1.366 1_554 S
C346 C350 1.551 1_455 S
C347 C346 1.366 1_556 S
C347 C348 1.410 1_545 S
C347 C355 1.503 1_445 S
C348 C347 1.410 1_565 S
C348 C349 1.392 1_565 S
C348 C351 1.511 . S
C349 C345 1.376 . S
C349 C348 1.392 1_545 S
C349 H361 0.929 1_545 S
C350 C346 1.551 1_655 S
C350 H362 0.960 1_554 S
C350 H363 0.962 1_655 S
C350 H364 0.960 . S
C351 C348 1.511 . S
C351 H365 0.961 . S
C351 H366 0.961 . S
C351 H367 0.961 1_455 S
C352 C353 1.370 . S
C352 C354 1.363 . S
C352 H368 0.931 . S
C353 C352 1.370 . S
C353 C357 1.408 1_554 S
C354 C352 1.363 . S
C354 C355 1.370 1_554 S
C354 C358 1.524 1_655 S
C355 C347 1.503 1_665 S
C355 C354 1.370 1_556 S
C355 C356 1.403 . S
C356 C355 1.403 . S
C356 C357 1.404 . S
C356 C359 1.539 1_565 S
C357 C353 1.408 1_556 S
C357 C356 1.404 . S
C357 H369 0.930 . S
C358 C354 1.524 1_455 S
C358 H370 0.956 1_565 S
C358 H371 0.961 . S
C358 H372 0.961 . S
C359 C356 1.539 1_545 S
C359 H373 0.958 . S
C359 H374 0.961 1_545 S
C359 H375 0.960 . S
H360 C344 0.931 . S
H361 C349 0.929 1_565 S
H362 C350 0.960 1_556 S
H363 C350 0.962 1_455 S
H364 C350 0.960 . S
H365 C351 0.961 . S
H366 C351 0.961 . S
H367 C351 0.961 1_655 S
H368 C352 0.931 . S
H369 C357 0.930 . S
H370 C358 0.956 1_545 S
H371 C358 0.961 . S
H372 C358 0.961 . S
H373 C359 0.958 . S
H374 C359 0.961 1_565 S
H375 C359 0.960 . S
C376 C377 1.391 . S
C376 C378 1.394 1_545 S
C376 H392 0.931 1_545 S
C377 C376 1.391 . S
C377 C381 1.376 . S
C378 C376 1.394 1_565 S
C378 C379 1.369 1_565 S
C378 C382 1.531 . S
C379 C378 1.369 1_545 S
C379 C380 1.410 . S
C379 C387 1.503 1_645 S
C380 C379 1.410 . S
C380 C381 1.392 . S
C380 C383 1.511 1_655 S
C381 C377 1.376 . S
C381 C380 1.392 . S
C381 H393 0.929 . S
C382 C378 1.531 . S
C382 H394 0.960 . S
C382 H395 0.962 . S
C382 H396 0.960 . S
C383 C380 1.511 1_455 S
C383 H397 0.961 . S
C383 H398 0.961 . S
C383 H399 0.961 . S
C384 C385 1.370 . S
C384 C386 1.363 . S
C384 H400 0.931 . S
C385 C384 1.370 . S
C385 C389 1.408 . S
C386 C384 1.363 . S
C386 C387 1.370 . S
C386 C390 1.524 . S
C387 C379 1.503 1_465 S
C387 C386 1.370 . S
C387 C388 1.403 . S
C388 C387 1.403 . S
C388 C389 1.404 . S
C388 C391 1.539 1_465 S
C389 C385 1.408 . S
C389 C388 1.404 . S
C389 H401 0.930 . S
C390 C386 1.524 . S
C390 H402 0.956 . S
C390 H403 0.961 1_565 S
C390 H404 0.961 . S
C391 C388 1.539 1_645 S
C391 H405 0.958 1_545 S
C391 H406 0.961 . S
C391 H407 0.960 . S
H392 C376 0.931 1_565 S
H393 C381 0.929 . S
H394 C382 0.960 . S
H395 C382 0.962 . S
H396 C382 0.960 . S
H397 C383 0.961 . S
H398 C383 0.961 . S
H399 C383 0.961 . S
H400 C384 0.931 . S
H401 C389 0.930 . S
H402 C390 0.956 . S
H403 C390 0.961 1_545 S
H404 C390 0.961 . S
H405 C391 0.958 1_565 S
H406 C391 0.961 . S
H407 C391 0.960 . S
C408 C409 1.391 . S
C408 C410 1.394 . S
C408 H424 0.931 . S
C409 C408 1.391 . S
C409 C413 1.376 . S
C410 C408 1.394 . S
C410 C411 1.369 . S
C410 C414 1.531 . S
C411 C410 1.369 . S
C411 C412 1.410 . S
C411 C419 1.503 . S
C412 C411 1.410 . S
C412 C413 1.392 . S
C412 C415 1.511 . S
C413 C409 1.376 . S
C413 C412 1.392 . S
C413 H425 0.929 . S
C414 C410 1.531 . S
C414 H426 0.960 . S
C414 H427 0.962 . S
C414 H428 0.960 . S
C415 C412 1.511 . S
C415 H429 0.961 . S
C415 H430 0.961 . S
C415 H431 0.961 . S
C416 C417 1.370 . S
C416 C418 1.363 . S
C416 H432 0.931 . S
C417 C416 1.370 . S
C417 C421 1.408 . S
C418 C416 1.363 . S
C418 C419 1.370 . S
C418 C422 1.524 . S
C419 C411 1.503 . S
C419 C418 1.370 . S
C419 C420 1.403 . S
C420 C419 1.403 . S
C420 C421 1.404 . S
C420 C423 1.539 . S
C421 C417 1.408 . S
C421 C420 1.404 . S
C421 H433 0.930 . S
C422 C418 1.524 . S
C422 H434 0.956 . S
C422 H435 0.961 . S
C422 H436 0.961 . S
C423 C420 1.539 . S
C423 H437 0.958 . S
C423 H438 0.961 . S
C423 H439 0.960 . S
H424 C408 0.931 . S
H425 C413 0.929 . S
H426 C414 0.960 . S
H427 C414 0.962 . S
H428 C414 0.960 . S
H429 C415 0.961 . S
H430 C415 0.961 . S
H431 C415 0.961 . S
H432 C416 0.931 . S
H433 C421 0.930 . S
H434 C422 0.956 . S
H435 C422 0.961 . S
H436 C422 0.961 . S
H437 C423 0.958 . S
H438 C423 0.961 . S
H439 C423 0.960 . S
C440 C441 1.391 . S
C440 C442 1.394 . S
C440 H456 0.931 . S
C441 C440 1.391 . S
C441 C445 1.376 . S
C442 C440 1.394 . S
C442 C443 1.369 . S
C442 C446 1.531 . S
C443 C442 1.369 . S
C443 C444 1.410 . S
C443 C451 1.503 . S
C444 C443 1.410 . S
C444 C445 1.392 . S
C444 C447 1.511 . S
C445 C441 1.376 . S
C445 C444 1.392 . S
C445 H457 0.929 . S
C446 C442 1.531 . S
C446 H458 0.960 . S
C446 H459 0.962 . S
C446 H460 0.960 . S
C447 C444 1.511 . S
C447 H461 0.961 . S
C447 H462 0.961 . S
C447 H463 0.961 . S
C448 C449 1.370 . S
C448 C450 1.363 . S
C448 H464 0.931 . S
C449 C448 1.370 . S
C449 C453 1.408 . S
C450 C448 1.363 . S
C450 C451 1.370 . S
C450 C454 1.524 . S
C451 C443 1.503 . S
C451 C450 1.370 . S
C451 C452 1.403 . S
C452 C451 1.403 . S
C452 C453 1.404 . S
C452 C455 1.539 . S
C453 C449 1.408 . S
C453 C452 1.404 . S
C453 H465 0.930 . S
C454 C450 1.524 . S
C454 H466 0.956 . S
C454 H467 0.961 . S
C454 H468 0.961 . S
C455 C452 1.539 . S
C455 H469 0.958 . S
C455 H470 0.961 . S
C455 H471 0.960 . S
H456 C440 0.931 . S
H457 C445 0.929 . S
H458 C446 0.960 . S
H459 C446 0.962 . S
H460 C446 0.960 . S
H461 C447 0.961 . S
H462 C447 0.961 . S
H463 C447 0.961 . S
H464 C448 0.931 . S
H465 C453 0.930 . S
H466 C454 0.956 . S
H467 C454 0.961 . S
H468 C454 0.961 . S
H469 C455 0.958 . S
H470 C455 0.961 . S
H471 C455 0.960 . S
C472 C473 1.391 . S
C472 C474 1.394 . S
C472 H488 0.931 . S
C473 C472 1.391 . S
C473 C477 1.376 . S
C474 C472 1.394 . S
C474 C475 1.369 . S
C474 C478 1.531 . S
C475 C474 1.369 . S
C475 C476 1.410 . S
C475 C483 1.503 . S
C476 C475 1.410 . S
C476 C477 1.392 . S
C476 C479 1.511 . S
C477 C473 1.376 . S
C477 C476 1.392 . S
C477 H489 0.929 . S
C478 C474 1.531 . S
C478 H490 0.960 . S
C478 H491 0.962 . S
C478 H492 0.960 . S
C479 C476 1.511 . S
C479 H493 0.961 . S
C479 H494 0.961 . S
C479 H495 0.961 . S
C480 C481 1.370 . S
C480 C482 1.363 . S
C480 H496 0.931 . S
C481 C480 1.370 . S
C481 C485 1.408 . S
C482 C480 1.363 . S
C482 C483 1.370 . S
C482 C486 1.524 . S
C483 C475 1.503 . S
C483 C482 1.370 . S
C483 C484 1.403 . S
C484 C483 1.403 . S
C484 C485 1.404 . S
C484 C487 1.539 . S
C485 C481 1.408 . S
C485 C484 1.404 . S
C485 H497 0.930 . S
C486 C482 1.524 . S
C486 H498 0.956 . S
C486 H499 0.961 . S
C486 H500 0.961 . S
C487 C484 1.539 . S
C487 H501 0.958 . S
C487 H502 0.961 . S
C487 H503 0.960 . S
H488 C472 0.931 . S
H489 C477 0.929 . S
H490 C478 0.960 . S
H491 C478 0.962 . S
H492 C478 0.960 . S
H493 C479 0.961 . S
H494 C479 0.961 . S
H495 C479 0.961 . S
H496 C480 0.931 . S
H497 C485 0.930 . S
H498 C486 0.956 . S
H499 C486 0.961 . S
H500 C486 0.961 . S
H501 C487 0.958 . S
H502 C487 0.961 . S
H503 C487 0.960 . S
C504 C505 1.391 . S
C504 C506 1.394 . S
C504 H520 0.931 . S
C505 C504 1.391 . S
C505 C509 1.376 . S
C506 C504 1.394 . S
C506 C507 1.369 . S
C506 C510 1.531 . S
C507 C506 1.369 . S
C507 C508 1.410 . S
C507 C515 1.503 . S
C508 C507 1.410 . S
C508 C509 1.392 . S
C508 C511 1.511 . S
C509 C505 1.376 . S
C509 C508 1.392 . S
C509 H521 0.929 . S
C510 C506 1.531 . S
C510 H522 0.960 . S
C510 H523 0.962 . S
C510 H524 0.960 . S
C511 C508 1.511 . S
C511 H525 0.961 . S
C511 H526 0.961 . S
C511 H527 0.961 . S
C512 C513 1.370 . S
C512 C514 1.363 . S
C512 H528 0.931 . S
C513 C512 1.370 . S
C513 C517 1.408 . S
C514 C512 1.363 . S
C514 C515 1.370 . S
C514 C518 1.524 . S
C515 C507 1.503 . S
C515 C514 1.370 . S
C515 C516 1.403 . S
C516 C515 1.403 . S
C516 C517 1.404 . S
C516 C519 1.539 . S
C517 C513 1.408 . S
C517 C516 1.404 . S
C517 H529 0.930 . S
C518 C514 1.524 . S
C518 H530 0.956 . S
C518 H531 0.961 . S
C518 H532 0.961 . S
C519 C516 1.539 . S
C519 H533 0.958 . S
C519 H534 0.961 . S
C519 H535 0.960 . S
H520 C504 0.931 . S
H521 C509 0.929 . S
H522 C510 0.960 . S
H523 C510 0.962 . S
H524 C510 0.960 . S
H525 C511 0.961 . S
H526 C511 0.961 . S
H527 C511 0.961 . S
H528 C512 0.931 . S
H529 C517 0.930 . S
H530 C518 0.956 . S
H531 C518 0.961 . S
H532 C518 0.961 . S
H533 C519 0.958 . S
H534 C519 0.961 . S
H535 C519 0.960 . S
C536 C537 1.391 . S
C536 C538 1.394 . S
C536 H552 0.931 . S
C537 C536 1.391 . S
C537 C541 1.376 . S
C538 C536 1.394 . S
C538 C539 1.369 . S
C538 C542 1.531 1_455 S
C539 C538 1.369 . S
C539 C540 1.410 . S
C539 C547 1.503 1_455 S
C540 C539 1.410 . S
C540 C541 1.392 . S
C540 C543 1.511 . S
C541 C537 1.376 . S
C541 C540 1.392 . S
C541 H553 0.929 . S
C542 C538 1.531 1_655 S
C542 H554 0.960 . S
C542 H555 0.962 . S
C542 H556 0.960 . S
C543 C540 1.511 . S
C543 H557 0.961 . S
C543 H558 0.961 . S
C543 H559 0.961 . S
C544 C545 1.370 . S
C544 C546 1.363 . S
C544 H560 0.931 . S
C545 C544 1.370 . S
C545 C549 1.408 . S
C546 C544 1.363 . S
C546 C547 1.370 . S
C546 C550 1.524 . S
C547 C539 1.503 1_655 S
C547 C546 1.370 . S
C547 C548 1.403 . S
C548 C547 1.403 . S
C548 C549 1.404 . S
C548 C551 1.539 . S
C549 C545 1.408 . S
C549 C548 1.404 . S
C549 H561 0.930 . S
C550 C546 1.524 . S
C550 H562 0.956 . S
C550 H563 0.961 1_655 S
C550 H564 0.961 . S
C551 C548 1.539 . S
C551 H565 0.958 . S
C551 H566 0.961 . S
C551 H567 0.960 1_655 S
H552 C536 0.931 . S
H553 C541 0.929 . S
H554 C542 0.960 . S
H555 C542 0.962 . S
H556 C542 0.960 . S
H557 C543 0.961 . S
H558 C543 0.961 . S
H559 C543 0.961 . S
H560 C544 0.931 . S
H561 C549 0.930 . S
H562 C550 0.956 . S
H563 C550 0.961 1_455 S
H564 C550 0.961 . S
H565 C551 0.958 . S
H566 C551 0.961 . S
H567 C551 0.960 1_455 S
C568 C569 1.391 1_455 S
C568 C570 1.394 . S
C568 H584 0.931 . S
C569 C568 1.391 1_655 S
C569 C573 1.376 . S
C570 C568 1.394 . S
C570 C571 1.369 1_455 S
C570 C574 1.531 . S
C571 C570 1.369 1_655 S
C571 C572 1.410 . S
C571 C579 1.503 1_655 S
C572 C571 1.410 . S
C572 C573 1.392 . S
C572 C575 1.511 . S
C573 C569 1.376 . S
C573 C572 1.392 . S
C573 H585 0.929 . S
C574 C570 1.531 . S
C574 H586 0.960 . S
C574 H587 0.962 . S
C574 H588 0.960 . S
C575 C572 1.511 . S
C575 H589 0.961 . S
C575 H590 0.961 . S
C575 H591 0.961 . S
C576 C577 1.370 . S
C576 C578 1.363 . S
C576 H592 0.931 . S
C577 C576 1.370 . S
C577 C581 1.408 . S
C578 C576 1.363 . S
C578 C579 1.370 . S
C578 C582 1.524 . S
C579 C571 1.503 1_455 S
C579 C578 1.370 . S
C579 C580 1.403 . S
C580 C579 1.403 . S
C580 C581 1.404 . S
C580 C583 1.539 1_455 S
C581 C577 1.408 . S
C581 C580 1.404 . S
C581 H593 0.930 . S
C582 C578 1.524 . S
C582 H594 0.956 . S
C582 H595 0.961 1_455 S
C582 H596 0.961 . S
C583 C580 1.539 1_655 S
C583 H597 0.958 1_655 S
C583 H598 0.961 . S
C583 H599 0.960 . S
H584 C568 0.931 . S
H585 C573 0.929 . S
H586 C574 0.960 . S
H587 C574 0.962 . S
H588 C574 0.960 . S
H589 C575 0.961 . S
H590 C575 0.961 . S
H591 C575 0.961 . S
H592 C576 0.931 . S
H593 C581 0.930 . S
H594 C582 0.956 . S
H595 C582 0.961 1_655 S
H596 C582 0.961 . S
H597 C583 0.958 1_455 S
H598 C583 0.961 . S
H599 C583 0.960 . S
C600 C601 1.391 . S
C600 C602 1.394 . S
C600 H616 0.931 . S
C601 C600 1.391 . S
C601 C605 1.376 . S
C602 C600 1.394 . S
C602 C603 1.369 . S
C602 C606 1.531 . S
C603 C602 1.369 . S
C603 C604 1.410 . S
C603 C611 1.503 1_455 S
C604 C603 1.410 . S
C604 C605 1.392 . S
C604 C607 1.511 1_455 S
C605 C601 1.376 . S
C605 C604 1.392 . S
C605 H617 0.929 . S
C606 C602 1.531 . S
C606 H618 0.960 . S
C606 H619 0.962 . S
C606 H620 0.960 . S
C607 C604 1.511 1_655 S
C607 H621 0.961 . S
C607 H622 0.961 . S
C607 H623 0.961 . S
C608 C609 1.370 . S
C608 C610 1.363 . S
C608 H624 0.931 . S
C609 C608 1.370 . S
C609 C613 1.408 . S
C610 C608 1.363 . S
C610 C611 1.370 . S
C610 C614 1.524 1_655 S
C611 C603 1.503 1_655 S
C611 C610 1.370 . S
C611 C612 1.403 . S
C612 C611 1.403 . S
C612 C613 1.404 . S
C612 C615 1.539 . S
C613 C609 1.408 . S
C613 C612 1.404 . S
C613 H625 0.930 . S
C614 C610 1.524 1_455 S
C614 H626 0.956 . S
C614 H627 0.961 . S
C614 H628 0.961 . S
C615 C612 1.539 . S
C615 H629 0.958 . S
C615 H630 0.961 . S
C615 H631 0.960 . S
H616 C600 0.931 . S
H617 C605 0.929 . S
H618 C606 0.960 . S
H619 C606 0.962 . S
H620 C606 0.960 . S
H621 C607 0.961 . S
H622 C607 0.961 . S
H623 C607 0.961 . S
H624 C608 0.931 . S
H625 C613 0.930 . S
H626 C614 0.956 . S
H627 C614 0.961 . S
H628 C614 0.961 . S
H629 C615 0.958 . S
H630 C615 0.961 . S
H631 C615 0.960 . S
C632 C633 1.391 . S
C632 C634 1.394 1_455 S
C632 H648 0.931 1_455 S
C633 C632 1.391 . S
C633 C637 1.376 . S
C634 C632 1.394 1_655 S
C634 C635 1.369 1_655 S
C634 C638 1.531 . S
C635 C634 1.369 1_455 S
C635 C636 1.410 . S
C635 C643 1.503 1_455 S
C636 C635 1.410 . S
C636 C637 1.392 . S
C636 C639 1.511 . S
C637 C633 1.376 . S
C637 C636 1.392 . S
C637 H649 0.929 . S
C638 C634 1.531 . S
C638 H650 0.960 . S
C638 H651 0.962 . S
C638 H652 0.960 . S
C639 C636 1.511 . S
C639 H653 0.961 . S
C639 H654 0.961 . S
C639 H655 0.961 . S
C640 C641 1.370 . S
C640 C642 1.363 . S
C640 H656 0.931 . S
C641 C640 1.370 . S
C641 C645 1.408 . S
C642 C640 1.363 . S
C642 C643 1.370 . S
C642 C646 1.524 . S
C643 C635 1.503 1_655 S
C643 C642 1.370 . S
C643 C644 1.403 1_655 S
C644 C643 1.403 1_455 S
C644 C645 1.404 1_455 S
C644 C647 1.539 . S
C645 C641 1.408 . S
C645 C644 1.404 1_655 S
C645 H657 0.930 1_655 S
C646 C642 1.524 . S
C646 H658 0.956 . S
C646 H659 0.961 . S
C646 H660 0.961 . S
C647 C644 1.539 . S
C647 H661 0.958 . S
C647 H662 0.961 . S
C647 H663 0.960 . S
H648 C632 0.931 1_655 S
H649 C637 0.929 . S
H650 C638 0.960 . S
H651 C638 0.962 . S
H652 C638 0.960 . S
H653 C639 0.961 . S
H654 C639 0.961 . S
H655 C639 0.961 . S
H656 C640 0.931 . S
H657 C645 0.930 1_455 S
H658 C646 0.956 . S
H659 C646 0.961 . S
H660 C646 0.961 . S
H661 C647 0.958 . S
H662 C647 0.961 . S
H663 C647 0.960 . S
C153 C10 0.892 . S
C161 C27 0.956 . S
C185 C48 0.915 . S
C193 C65 0.953 . S
C217 C103 0.948 . S
C225 C86 0.932 . S
C249 C141 0.945 . S
C257 C124 0.933 . S
C281 C53 1.683 1_556 S
C289 C30 1.663 . S
C313 C144 1.705 . S
C321 C91 1.668 . S
C345 C15 1.680 1_556 S
C353 C68 1.664 . S
C377 C129 1.657 . S
C385 C106 1.688 . S
C409 C132 0.957 . S
C417 C18 0.938 . S
C441 C62 1.811 . S
C449 C100 1.840 . S
C473 C107 0.906 . S
C481 C69 0.958 . S
C505 C12 1.833 . S
C513 C126 1.831 . S
C537 C94 0.949 . S
C545 C56 0.942 . S
C569 C138 1.836 . S
C577 C24 1.825 . S
C601 C31 0.923 . S
C609 C145 0.957 . S
C633 C88 1.848 . S
C641 C50 1.820 . S
