# Generated by pormake.
# Topology atn, (4)-cn, num edge types: 1
# Building blocks:
#     Node 0, Type 0, BuildingBlock: GALJAG_clean_sbu_0, # of connection points: 4
#     Node 1, Type 0, BuildingBlock: GALJAG_clean_sbu_0, # of connection points: 4
#     Node 2, Type 0, BuildingBlock: GALJAG_clean_sbu_0, # of connection points: 4
#     Node 3, Type 0, BuildingBlock: GALJAG_clean_sbu_0, # of connection points: 4
#     Node 4, Type 0, BuildingBlock: GALJAG_clean_sbu_0, # of connection points: 4
#     Node 5, Type 0, BuildingBlock: GALJAG_clean_sbu_0, # of connection points: 4
#     Node 6, Type 0, BuildingBlock: GALJAG_clean_sbu_0, # of connection points: 4
#     Node 7, Type 0, BuildingBlock: GALJAG_clean_sbu_0, # of connection points: 4
#     Node 8, Type 0, BuildingBlock: GALJAG_clean_sbu_0, # of connection points: 4
#     Node 9, Type 0, BuildingBlock: GALJAG_clean_sbu_0, # of connection points: 4
#     Node 10, Type 0, BuildingBlock: GALJAG_clean_sbu_0, # of connection points: 4
#     Node 11, Type 0, BuildingBlock: GALJAG_clean_sbu_0, # of connection points: 4
#     Node 12, Type 0, BuildingBlock: GALJAG_clean_sbu_0, # of connection points: 4
#     Node 13, Type 0, BuildingBlock: GALJAG_clean_sbu_0, # of connection points: 4
#     Node 14, Type 0, BuildingBlock: GALJAG_clean_sbu_0, # of connection points: 4
#     Node 15, Type 0, BuildingBlock: GALJAG_clean_sbu_0, # of connection points: 4
#     Edge 16, Type (0, 0), BuildingBlock: OJICUG_clean_linker_0, # of connection points: 2
#     Edge 17, Type (0, 0), BuildingBlock: OJICUG_clean_linker_0, # of connection points: 2
#     Edge 18, Type (0, 0), BuildingBlock: OJICUG_clean_linker_0, # of connection points: 2
#     Edge 19, Type (0, 0), BuildingBlock: OJICUG_clean_linker_0, # of connection points: 2
#     Edge 20, Type (0, 0), BuildingBlock: OJICUG_clean_linker_0, # of connection points: 2
#     Edge 21, Type (0, 0), BuildingBlock: OJICUG_clean_linker_0, # of connection points: 2
#     Edge 22, Type (0, 0), BuildingBlock: OJICUG_clean_linker_0, # of connection points: 2
#     Edge 23, Type (0, 0), BuildingBlock: OJICUG_clean_linker_0, # of connection points: 2
#     Edge 24, Type (0, 0), BuildingBlock: OJICUG_clean_linker_0, # of connection points: 2
#     Edge 25, Type (0, 0), BuildingBlock: OJICUG_clean_linker_0, # of connection points: 2
#     Edge 26, Type (0, 0), BuildingBlock: OJICUG_clean_linker_0, # of connection points: 2
#     Edge 27, Type (0, 0), BuildingBlock: OJICUG_clean_linker_0, # of connection points: 2
#     Edge 28, Type (0, 0), BuildingBlock: OJICUG_clean_linker_0, # of connection points: 2
#     Edge 29, Type (0, 0), BuildingBlock: OJICUG_clean_linker_0, # of connection points: 2
#     Edge 30, Type (0, 0), BuildingBlock: OJICUG_clean_linker_0, # of connection points: 2
#     Edge 31, Type (0, 0), BuildingBlock: OJICUG_clean_linker_0, # of connection points: 2
#     Edge 32, Type (0, 0), BuildingBlock: OJICUG_clean_linker_0, # of connection points: 2
#     Edge 33, Type (0, 0), BuildingBlock: OJICUG_clean_linker_0, # of connection points: 2
#     Edge 34, Type (0, 0), BuildingBlock: OJICUG_clean_linker_0, # of connection points: 2
#     Edge 35, Type (0, 0), BuildingBlock: OJICUG_clean_linker_0, # of connection points: 2
#     Edge 36, Type (0, 0), BuildingBlock: OJICUG_clean_linker_0, # of connection points: 2
#     Edge 37, Type (0, 0), BuildingBlock: OJICUG_clean_linker_0, # of connection points: 2
#     Edge 38, Type (0, 0), BuildingBlock: OJICUG_clean_linker_0, # of connection points: 2
#     Edge 39, Type (0, 0), BuildingBlock: OJICUG_clean_linker_0, # of connection points: 2
#     Edge 40, Type (0, 0), BuildingBlock: OJICUG_clean_linker_0, # of connection points: 2
#     Edge 41, Type (0, 0), BuildingBlock: OJICUG_clean_linker_0, # of connection points: 2
#     Edge 42, Type (0, 0), BuildingBlock: OJICUG_clean_linker_0, # of connection points: 2
#     Edge 43, Type (0, 0), BuildingBlock: OJICUG_clean_linker_0, # of connection points: 2
#     Edge 44, Type (0, 0), BuildingBlock: OJICUG_clean_linker_0, # of connection points: 2
#     Edge 45, Type (0, 0), BuildingBlock: OJICUG_clean_linker_0, # of connection points: 2
#     Edge 46, Type (0, 0), BuildingBlock: OJICUG_clean_linker_0, # of connection points: 2
#     Edge 47, Type (0, 0), BuildingBlock: OJICUG_clean_linker_0, # of connection points: 2
# Relax obj value: 0.083
# Max RMSD: 0.111
# Mean RMSD: 0.111
data_MOF--net-atn--node1-GALJAG_clean_sbu_0--edge1-OJICUG_clean_linker_0
_symmetry_space_group_name_H-M    P1
_symmetry_Int_Tables_number       1
_symmetry_cell_setting            triclinic
loop_
_symmetry_equiv_pos_as_xyz
'x, y, z'
_cell_length_a     43.451799
_cell_length_b     43.442598
_cell_length_c     20.788311
_cell_angle_alpha  89.963832
_cell_angle_beta   90.065684
_cell_angle_gamma 90.110124
loop_
_atom_site_label
_atom_site_type_symbol
_atom_site_fract_x
_atom_site_fract_y
_atom_site_fract_z
_atom_type_partial_charge
In0 In 0.17803 0.35915 0.00132 0.0
O1 O 0.14178 0.34044 0.0716 0.0
O2 O 0.18095 0.36357 0.10983 0.0
C3 C 0.15566 0.35006 0.88156 0.0
C4 C 0.17865 0.42066 0.00195 0.0
C5 C 0.22415 0.31801 0.00158 0.0
O6 O 0.14125 0.34123 0.93117 0.0
O7 O 0.18084 0.36351 0.89277 0.0
O8 O 0.22921 0.34666 0.00155 0.0
O9 O 0.19612 0.31049 0.00128 0.0
C10 C 0.15612 0.34955 0.12114 0.0
O11 O 0.20315 0.40497 0.00132 0.0
O12 O 0.15398 0.40521 0.00216 0.0
In13 In 0.61635 0.17986 0.00703 0.0
O14 O 0.63484 0.14386 0.07821 0.0
O15 O 0.61342 0.18404 0.11564 0.0
C16 C 0.62375 0.15623 0.88807 0.0
C17 C 0.5549 0.18108 0.00925 0.0
C18 C 0.65804 0.22551 0.00072 0.0
O19 O 0.63332 0.1424 0.93784 0.0
O20 O 0.61033 0.18141 0.89881 0.0
O21 O 0.62952 0.23086 0.00419 0.0
O22 O 0.6652 0.19741 0.00095 0.0
C23 C 0.6267 0.15889 0.12748 0.0
O24 O 0.57087 0.20544 0.00767 0.0
O25 O 0.57004 0.15627 0.00987 0.0
In26 In 0.79572 0.61631 0.00624 0.0
O27 O 0.76992 0.57082 0.00654 0.0
O28 O 0.81907 0.57005 0.00982 0.0
C29 C 0.75025 0.65807 0.00557 0.0
C30 C 0.81777 0.62585 0.126 0.0
C31 C 0.81839 0.6245 0.88652 0.0
O32 O 0.74478 0.6295 0.00596 0.0
O33 O 0.77838 0.66522 0.00531 0.0
O34 O 0.83274 0.63353 0.93609 0.0
O35 O 0.79312 0.61125 0.89774 0.0
C36 C 0.79422 0.55489 0.00914 0.0
O37 O 0.83232 0.63451 0.07643 0.0
O38 O 0.79259 0.61243 0.11474 0.0
In39 In 0.35966 0.79508 0.00851 0.0
O40 O 0.34198 0.83169 0.07884 0.0
O41 O 0.36363 0.79172 0.11702 0.0
C42 C 0.35127 0.81773 0.88891 0.0
C43 C 0.42109 0.79437 0.00979 0.0
C44 C 0.31775 0.74955 0.0069 0.0
O45 O 0.34206 0.83192 0.93845 0.0
O46 O 0.36472 0.7926 0.90011 0.0
O47 O 0.3463 0.74407 0.00756 0.0
O48 O 0.31073 0.77769 0.00714 0.0
C49 C 0.35055 0.81702 0.12835 0.0
O50 O 0.40535 0.76984 0.00906 0.0
O51 O 0.40572 0.81904 0.0098 0.0
In52 In 0.17741 0.61468 0.00422 0.0
O53 O 0.14069 0.63249 0.93395 0.0
O54 O 0.18031 0.61037 0.89571 0.0
C55 C 0.15535 0.62402 0.12399 0.0
C56 C 0.17833 0.55318 0.00411 0.0
C57 C 0.22336 0.65618 0.00419 0.0
O58 O 0.14096 0.63294 0.0744 0.0
O59 O 0.18031 0.6103 0.11276 0.0
O60 O 0.22853 0.62757 0.00475 0.0
O61 O 0.1953 0.66348 0.0036 0.0
C62 C 0.15515 0.62373 0.88441 0.0
O63 O 0.20274 0.56909 0.00388 0.0
O64 O 0.15357 0.56842 0.00449 0.0
In65 In 0.36097 0.18011 0.00738 0.0
O66 O 0.40657 0.2057 0.0079 0.0
O67 O 0.40715 0.15652 0.00863 0.0
C68 C 0.31889 0.22535 0.00576 0.0
C69 C 0.35255 0.15746 0.88775 0.0
C70 C 0.3519 0.15801 0.12725 0.0
O71 O 0.34743 0.23103 0.00621 0.0
O72 O 0.31197 0.19716 0.00627 0.0
O73 O 0.34336 0.14334 0.07771 0.0
O74 O 0.36494 0.18339 0.11593 0.0
C75 C 0.42243 0.1813 0.00862 0.0
O76 O 0.34347 0.14316 0.93734 0.0
O77 O 0.36591 0.18268 0.89891 0.0
In78 In 0.79693 0.36107 0.00503 0.0
O79 O 0.83329 0.34162 0.93591 0.0
O80 O 0.79708 0.36895 0.89738 0.0
C81 C 0.8157 0.34808 0.12581 0.0
C82 C 0.79436 0.42247 0.01276 0.0
C83 C 0.75166 0.31953 0.99485 0.0
O84 O 0.83481 0.35204 0.08061 0.0
O85 O 0.78786 0.3505 0.1098 0.0
O86 O 0.74615 0.348 0.0008 0.0
O87 O 0.77984 0.31242 0.99328 0.0
C88 C 0.82088 0.35329 0.8864 0.0
O89 O 0.77036 0.40622 0.00654 0.0
O90 O 0.81924 0.40762 0.01577 0.0
In91 In 0.61495 0.7973 0.01123 0.0
O92 O 0.63271 0.83427 0.9414 0.0
O93 O 0.60999 0.79496 0.90278 0.0
C94 C 0.62412 0.8192 0.13125 0.0
C95 C 0.55352 0.79566 0.01166 0.0
C96 C 0.65668 0.7518 0.00947 0.0
O97 O 0.63261 0.83396 0.0818 0.0
O98 O 0.61102 0.79388 0.11977 0.0
O99 O 0.62811 0.74635 0.01012 0.0
O100 O 0.66384 0.77992 0.00989 0.0
C101 C 0.62355 0.82008 0.89173 0.0
O102 O 0.56958 0.77141 0.01121 0.0
O103 O 0.56857 0.82059 0.01195 0.0
In104 In 0.67866 0.86087 0.51162 0.0
O105 O 0.64174 0.84347 0.58179 0.0
O106 O 0.6815 0.86552 0.62013 0.0
C107 C 0.65645 0.8516 0.39187 0.0
C108 C 0.67996 0.92234 0.51036 0.0
C109 C 0.72423 0.81915 0.5119 0.0
O110 O 0.64205 0.84269 0.44144 0.0
O111 O 0.68155 0.86518 0.40312 0.0
O112 O 0.72965 0.84774 0.51169 0.0
O113 O 0.6961 0.81198 0.51212 0.0
C114 C 0.6562 0.85233 0.63136 0.0
O115 O 0.7043 0.90642 0.51136 0.0
O116 O 0.65513 0.90714 0.51017 0.0
In117 In 0.11489 0.6795 0.50424 0.0
O118 O 0.06943 0.70513 0.50415 0.0
O119 O 0.06858 0.65595 0.50346 0.0
C120 C 0.15691 0.72495 0.50565 0.0
C121 C 0.12337 0.65683 0.62389 0.0
C122 C 0.1239 0.65738 0.3844 0.0
O123 O 0.12837 0.73047 0.50484 0.0
O124 O 0.16388 0.6968 0.50561 0.0
O125 O 0.13246 0.64277 0.43398 0.0
O126 O 0.11082 0.68268 0.39565 0.0
C127 C 0.05344 0.68076 0.5037 0.0
O128 O 0.1324 0.64256 0.57429 0.0
O129 O 0.11006 0.68203 0.61272 0.0
In130 In 0.29855 0.11509 0.50754 0.0
O131 O 0.27316 0.06947 0.50778 0.0
O132 O 0.32233 0.06889 0.50725 0.0
C133 C 0.25252 0.15627 0.50741 0.0
C134 C 0.32083 0.12424 0.62731 0.0
C135 C 0.32059 0.12451 0.38775 0.0
O136 O 0.24743 0.12763 0.50717 0.0
O137 O 0.28055 0.16378 0.5078 0.0
O138 O 0.33499 0.13349 0.43731 0.0
O139 O 0.29563 0.1107 0.39903 0.0
C140 C 0.29754 0.05361 0.50752 0.0
O141 O 0.33525 0.13311 0.57774 0.0
O142 O 0.2957 0.11071 0.61604 0.0
In143 In 0.86053 0.2972 0.50699 0.0
O144 O 0.84104 0.3334 0.5764 0.0
O145 O 0.86916 0.29774 0.61454 0.0
C146 C 0.8466 0.31697 0.38731 0.0
C147 C 0.92183 0.29379 0.49704 0.0
C148 C 0.8193 0.2517 0.51819 0.0
O149 O 0.85252 0.33569 0.43227 0.0
O150 O 0.84747 0.289 0.40297 0.0
O151 O 0.8477 0.24633 0.51048 0.0
O152 O 0.81212 0.27984 0.52086 0.0
C153 C 0.85315 0.32129 0.62573 0.0
O154 O 0.90534 0.27 0.50378 0.0
O155 O 0.90727 0.31885 0.49469 0.0
In156 In 0.67968 0.1163 0.50908 0.0
O157 O 0.70497 0.07066 0.5092 0.0
O158 O 0.65581 0.07013 0.50648 0.0
C159 C 0.72542 0.15791 0.5149 0.0
C160 C 0.65871 0.12664 0.38863 0.0
C161 C 0.65621 0.12384 0.62809 0.0
O162 O 0.73072 0.12939 0.51085 0.0
O163 O 0.69733 0.16509 0.51556 0.0
O164 O 0.64227 0.1333 0.57833 0.0
O165 O 0.68143 0.11052 0.61734 0.0
C166 C 0.68051 0.05483 0.50758 0.0
O167 O 0.64382 0.13502 0.43789 0.0
O168 O 0.68372 0.1131 0.40048 0.0
In169 In 0.85953 0.6798 0.50673 0.0
O170 O 0.84164 0.64331 0.43606 0.0
O171 O 0.86336 0.68335 0.3982 0.0
C172 C 0.85097 0.65693 0.62618 0.0
C173 C 0.92098 0.68089 0.50549 0.0
C174 C 0.81788 0.72542 0.50859 0.0
O175 O 0.8417 0.64284 0.57648 0.0
O176 O 0.86462 0.68202 0.61519 0.0
O177 O 0.84646 0.73082 0.50822 0.0
O178 O 0.81068 0.6973 0.50792 0.0
C179 C 0.85015 0.65809 0.38665 0.0
O180 O 0.90515 0.7053 0.50636 0.0
O181 O 0.90569 0.65612 0.50534 0.0
In182 In 0.29737 0.85965 0.50857 0.0
O183 O 0.3337 0.84126 0.43836 0.0
O184 O 0.29439 0.86403 0.40011 0.0
C185 C 0.3196 0.8507 0.62836 0.0
C186 C 0.29686 0.92112 0.50816 0.0
C187 C 0.25139 0.81822 0.50864 0.0
O188 O 0.33405 0.84185 0.57887 0.0
O189 O 0.29445 0.86408 0.617 0.0
O190 O 0.24624 0.84684 0.50818 0.0
O191 O 0.27944 0.81088 0.50916 0.0
C192 C 0.31931 0.85025 0.38882 0.0
O193 O 0.27233 0.90539 0.50859 0.0
O194 O 0.32151 0.90572 0.50795 0.0
In195 In 0.11563 0.29396 0.50158 0.0
O196 O 0.07008 0.26819 0.501 0.0
O197 O 0.06947 0.31735 0.49753 0.0
C198 C 0.15775 0.24883 0.50389 0.0
C199 C 0.12506 0.31583 0.38167 0.0
C200 C 0.12363 0.31695 0.62115 0.0
O201 O 0.12923 0.2431 0.50322 0.0
O202 O 0.16464 0.27703 0.50333 0.0
O203 O 0.13304 0.33101 0.57154 0.0
O204 O 0.11007 0.29183 0.61004 0.0
C205 C 0.05422 0.29255 0.49819 0.0
O206 O 0.13318 0.33075 0.4312 0.0
O207 O 0.11234 0.2903 0.39302 0.0
C208 C 0.15074 0.50284 0.00395 0.0
C209 C 0.17857 0.5193 0.00372 0.0
H210 H 0.12899 0.45866 0.00356 0.0
C211 C 0.20652 0.50312 0.00295 0.0
H212 H 0.12885 0.51473 0.00455 0.0
C213 C 0.2066 0.47098 0.00236 0.0
C214 C 0.17874 0.45454 0.00254 0.0
H215 H 0.22831 0.51526 0.00275 0.0
H216 H 0.22845 0.45903 0.00175 0.0
C217 C 0.15082 0.47075 0.00337 0.0
C218 C 0.47269 0.2094 0.00841 0.0
C219 C 0.45629 0.18151 0.00927 0.0
H220 H 0.51698 0.23114 0.00777 0.0
C221 C 0.47253 0.15361 0.01058 0.0
H222 H 0.46071 0.23124 0.00742 0.0
C223 C 0.50459 0.15355 0.01083 0.0
C224 C 0.52103 0.18139 0.00973 0.0
H225 H 0.46047 0.13176 0.01131 0.0
H226 H 0.51649 0.13166 0.0117 0.0
C227 C 0.50484 0.20934 0.00863 0.0
C228 C 0.82159 0.47277 0.01839 0.0
C229 C 0.79383 0.45632 0.01396 0.0
H230 H 0.84341 0.51685 0.02017 0.0
C231 C 0.76598 0.4725 0.00891 0.0
H232 H 0.84342 0.4609 0.02232 0.0
C233 C 0.76599 0.50466 0.0077 0.0
C234 C 0.79384 0.52104 0.01138 0.0
H235 H 0.74426 0.46033 0.00538 0.0
H236 H 0.74425 0.51666 0.00342 0.0
C237 C 0.8216 0.50481 0.01704 0.0
C238 C 0.50312 0.82279 0.01205 0.0
C239 C 0.51967 0.79508 0.01155 0.0
H240 H 0.45891 0.84423 0.01189 0.0
C241 C 0.5036 0.767 0.01068 0.0
H242 H 0.51492 0.84478 0.01274 0.0
C243 C 0.47146 0.76668 0.01018 0.0
C244 C 0.45495 0.79444 0.01054 0.0
H245 H 0.51583 0.7453 0.01028 0.0
H246 H 0.45957 0.74474 0.00943 0.0
C247 C 0.47106 0.82247 0.01155 0.0
C248 C 0.65267 0.00468 0.50668 0.0
C249 C 0.68061 0.02096 0.50771 0.0
H250 H 0.63062 0.96067 0.50677 0.0
C251 C 0.70844 0.0046 0.5094 0.0
H252 H 0.63086 0.0167 0.50539 0.0
C253 C 0.7083 0.97245 0.5102 0.0
C254 C 0.68033 0.95621 0.50935 0.0
H255 H 0.73031 0.01661 0.51024 0.0
H256 H 0.73007 0.96035 0.51159 0.0
C257 C 0.65253 0.9726 0.50751 0.0
C258 C 0.9711 0.65323 0.50367 0.0
C259 C 0.95485 0.68112 0.50475 0.0
H260 H 0.01507 0.63132 0.50245 0.0
C261 C 0.97122 0.70902 0.50518 0.0
H262 H 0.95906 0.63137 0.50327 0.0
C263 C 0.00337 0.70899 0.5047 0.0
C264 C 0.01958 0.68106 0.50378 0.0
H265 H 0.95923 0.73085 0.50598 0.0
H266 H 0.01549 0.7308 0.50516 0.0
C267 C 0.00316 0.6532 0.50319 0.0
C268 C 0.325 0.00332 0.50726 0.0
C269 C 0.29721 0.01974 0.5076 0.0
H270 H 0.34663 0.95917 0.50717 0.0
C271 C 0.26922 0.00353 0.50807 0.0
H272 H 0.34692 0.01524 0.50689 0.0
C273 C 0.26905 0.97139 0.50823 0.0
C274 C 0.29687 0.95499 0.50793 0.0
H275 H 0.24746 0.01564 0.50833 0.0
H276 H 0.24716 0.95941 0.50862 0.0
C277 C 0.32483 0.97123 0.50743 0.0
C278 C 0.00435 0.32021 0.48993 0.0
C279 C 0.02038 0.29235 0.49604 0.0
H280 H 0.96064 0.34239 0.48502 0.0
C281 C 0.00379 0.26464 0.50056 0.0
H282 H 0.01654 0.34191 0.48609 0.0
C283 C 0.97162 0.26491 0.49998 0.0
C284 C 0.95566 0.29289 0.49472 0.0
H285 H 0.01563 0.24284 0.50519 0.0
H286 H 0.95928 0.24332 0.50432 0.0
C287 C 0.97233 0.32047 0.48921 0.0
C288 C 0.24103 0.26338 0.0027 0.0
C289 C 0.2488 0.29475 0.00235 0.0
H290 H 0.25709 0.21701 0.00409 0.0
C291 C 0.27999 0.30337 0.00305 0.0
H292 H 0.21719 0.25602 0.00219 0.0
C293 C 0.303 0.28086 0.00415 0.0
C294 C 0.2951 0.24948 0.00458 0.0
H295 H 0.28658 0.32742 0.00281 0.0
H296 H 0.3269 0.288 0.0047 0.0
C297 C 0.26391 0.24101 0.00381 0.0
C298 C 0.69608 0.30403 0.99837 0.0
C299 C 0.72727 0.29593 0.99323 0.0
H300 H 0.64947 0.28795 0.00478 0.0
C301 C 0.73529 0.26472 0.98892 0.0
H302 H 0.68928 0.32795 0.0018 0.0
C303 C 0.71267 0.24198 0.99084 0.0
C304 C 0.68152 0.24996 0.997 0.0
H305 H 0.75914 0.25775 0.98488 0.0
H306 H 0.71968 0.2181 0.98801 0.0
C307 C 0.67334 0.28119 1.00018 0.0
C308 C 0.69465 0.67339 0.00708 0.0
C309 C 0.72593 0.68164 0.00602 0.0
H310 H 0.64794 0.6893 0.00904 0.0
C311 C 0.73408 0.71291 0.00585 0.0
H312 H 0.68776 0.64941 0.00724 0.0
C313 C 0.71147 0.73556 0.00693 0.0
C314 C 0.6802 0.72744 0.00817 0.0
H315 H 0.758 0.71998 0.00503 0.0
H316 H 0.71857 0.75948 0.00686 0.0
C317 C 0.67192 0.69616 0.00814 0.0
C318 C 0.24003 0.71094 0.00398 0.0
C319 C 0.24791 0.67962 0.00452 0.0
H320 H 0.25592 0.75743 0.0043 0.0
C321 C 0.27913 0.67125 0.00563 0.0
H322 H 0.21617 0.71811 0.0031 0.0
C323 C 0.30206 0.69393 0.00631 0.0
C324 C 0.29404 0.72525 0.00593 0.0
H325 H 0.28582 0.64724 0.00606 0.0
H326 H 0.32598 0.68697 0.00725 0.0
C327 C 0.26283 0.73348 0.00468 0.0
C328 C 0.80262 0.78108 0.50996 0.0
C329 C 0.79435 0.74979 0.50971 0.0
H330 H 0.78675 0.82783 0.51089 0.0
C331 C 0.76307 0.74168 0.5105 0.0
H332 H 0.82659 0.78795 0.5094 0.0
C333 C 0.74045 0.76432 0.51138 0.0
C334 C 0.74858 0.7956 0.51148 0.0
H335 H 0.75598 0.71775 0.51037 0.0
H336 H 0.71653 0.75724 0.51188 0.0
C337 C 0.77987 0.80385 0.51083 0.0
C338 C 0.23466 0.76348 0.50878 0.0
C339 C 0.22681 0.7948 0.50824 0.0
H340 H 0.21873 0.717 0.50838 0.0
C341 C 0.1956 0.80321 0.50702 0.0
H342 H 0.25852 0.75628 0.50974 0.0
C343 C 0.17265 0.78055 0.50623 0.0
C344 C 0.18064 0.74922 0.50663 0.0
H345 H 0.18894 0.82722 0.50657 0.0
H346 H 0.14874 0.78753 0.50522 0.0
C347 C 0.21185 0.74095 0.50798 0.0
C348 C 0.1967 0.17088 0.50609 0.0
C349 C 0.22788 0.17951 0.50693 0.0
H350 H 0.14978 0.1862 0.50447 0.0
C351 C 0.23563 0.21089 0.50703 0.0
H352 H 0.19012 0.14682 0.50601 0.0
C353 C 0.21274 0.23325 0.50614 0.0
C354 C 0.18156 0.22474 0.50514 0.0
H355 H 0.25946 0.21826 0.50769 0.0
H356 H 0.21954 0.25725 0.50615 0.0
C357 C 0.17367 0.19336 0.50521 0.0
C358 C 0.80389 0.19607 0.51408 0.0
C359 C 0.7958 0.22722 0.52055 0.0
H360 H 0.7878 0.14946 0.50724 0.0
C361 C 0.76465 0.23514 0.52694 0.0
H362 H 0.82775 0.18935 0.50904 0.0
C363 C 0.74195 0.21249 0.52568 0.0
C364 C 0.74989 0.18139 0.51814 0.0
H365 H 0.7577 0.25895 0.53208 0.0
H366 H 0.71811 0.21943 0.53009 0.0
C367 C 0.78107 0.17329 0.51296 0.0
C368 C 0.15224 0.35014 0.30313 0.0
C369 C 0.13102 0.32645 0.31524 0.0
H370 H 0.17691 0.3759 0.23194 0.0
C371 C 0.11656 0.31179 0.26295 0.0
H372 H 0.16372 0.36182 0.34244 0.0
C373 C 0.12378 0.32011 0.19971 0.0
C374 C 0.14594 0.34291 0.18757 0.0
H375 H 0.09998 0.29353 0.27087 0.0
H376 H 0.11277 0.30797 0.16039 0.0
C377 C 0.1598 0.35812 0.23988 0.0
C378 C 0.62595 0.15531 0.30957 0.0
C379 C 0.64867 0.13317 0.32201 0.0
H380 H 0.60137 0.18094 0.23807 0.0
C381 C 0.66292 0.11828 0.26988 0.0
H382 H 0.61462 0.16717 0.34875 0.0
C383 C 0.65506 0.12584 0.20653 0.0
C384 C 0.63317 0.1488 0.1941 0.0
H385 H 0.68044 0.10101 0.27804 0.0
H386 H 0.66678 0.11437 0.16735 0.0
C387 C 0.61845 0.16323 0.24622 0.0
C388 C 0.82213 0.6246 0.3079 0.0
C389 C 0.84391 0.64776 0.32015 0.0
H390 H 0.79668 0.59966 0.23661 0.0
C391 C 0.85854 0.66228 0.26792 0.0
H392 H 0.81048 0.61304 0.34715 0.0
C393 C 0.85095 0.65436 0.20463 0.0
C394 C 0.82823 0.63212 0.19241 0.0
H395 H 0.87554 0.68014 0.27595 0.0
H396 H 0.86211 0.66637 0.16537 0.0
C397 C 0.81419 0.61702 0.24463 0.0
C398 C 0.35192 0.82128 0.31029 0.0
C399 C 0.32954 0.84377 0.32241 0.0
H400 H 0.37596 0.79505 0.23912 0.0
C401 C 0.31553 0.85883 0.27012 0.0
H402 H 0.36305 0.80927 0.3496 0.0
C403 C 0.32315 0.85097 0.20688 0.0
C404 C 0.34459 0.82757 0.19476 0.0
H405 H 0.29826 0.87637 0.27805 0.0
H406 H 0.31153 0.86251 0.16758 0.0
C407 C 0.35921 0.81309 0.24705 0.0
C408 C 0.11441 0.6602 0.74254 0.0
C409 C 0.12932 0.64609 0.69027 0.0
H410 H 0.11052 0.66382 0.8451 0.0
C411 C 0.15118 0.62307 0.70242 0.0
H412 H 0.09735 0.67795 0.7346 0.0
C413 C 0.15896 0.61528 0.76568 0.0
C414 C 0.1447 0.63002 0.81797 0.0
H415 H 0.16303 0.61183 0.66313 0.0
H416 H 0.17657 0.59807 0.77363 0.0
C417 C 0.12187 0.65208 0.8058 0.0
C418 C 0.31704 0.11574 0.74604 0.0
C419 C 0.33126 0.13058 0.69373 0.0
H420 H 0.31297 0.11225 0.84858 0.0
C421 C 0.35404 0.15278 0.70585 0.0
H422 H 0.29946 0.09843 0.73813 0.0
C423 C 0.36149 0.16093 0.76909 0.0
C424 C 0.34662 0.14672 0.82139 0.0
H425 H 0.36536 0.1646 0.66652 0.0
H426 H 0.37851 0.17878 0.777 0.0
C427 C 0.3248 0.12357 0.80928 0.0
C428 C 0.81744 0.36238 0.76774 0.0
C429 C 0.83169 0.3475 0.82001 0.0
H430 H 0.81325 0.36603 0.66524 0.0
C431 C 0.85474 0.32572 0.80773 0.0
H432 H 0.79965 0.37939 0.77567 0.0
C433 C 0.86243 0.318 0.74441 0.0
C434 C 0.84733 0.33205 0.69215 0.0
H435 H 0.86614 0.31389 0.84695 0.0
H436 H 0.87967 0.30044 0.73646 0.0
C437 C 0.82524 0.3548 0.70445 0.0
C438 C 0.61462 0.81673 0.77307 0.0
C439 C 0.6297 0.83072 0.82539 0.0
H440 H 0.61083 0.81295 0.67051 0.0
C441 C 0.65198 0.85342 0.81332 0.0
H442 H 0.59724 0.79923 0.78095 0.0
C443 C 0.66 0.86098 0.75008 0.0
C444 C 0.64558 0.84632 0.69775 0.0
H445 H 0.66398 0.86455 0.85266 0.0
H446 H 0.67793 0.87792 0.74219 0.0
C447 C 0.62233 0.82462 0.70984 0.0
C448 C 0.82259 0.6235 0.70453 0.0
C449 C 0.84487 0.64621 0.69249 0.0
H450 H 0.79666 0.59894 0.77561 0.0
C451 C 0.85998 0.66013 0.74485 0.0
H452 H 0.81056 0.61241 0.66517 0.0
C453 C 0.85231 0.65219 0.80806 0.0
C454 C 0.82905 0.63049 0.82012 0.0
H455 H 0.87737 0.67764 0.73701 0.0
H456 H 0.86382 0.66382 0.84741 0.0
C457 C 0.8146 0.61587 0.76775 0.0
C458 C 0.35293 0.82249 0.70705 0.0
C459 C 0.33003 0.84446 0.69482 0.0
H460 H 0.37748 0.7967 0.77832 0.0
C461 C 0.3157 0.85918 0.74704 0.0
H462 H 0.36433 0.81077 0.66778 0.0
C463 C 0.32345 0.85141 0.81031 0.0
C464 C 0.34537 0.82845 0.82253 0.0
H465 H 0.29804 0.87634 0.73904 0.0
H466 H 0.31153 0.86262 0.84956 0.0
C467 C 0.36037 0.8144 0.77032 0.0
C468 C 0.1146 0.31368 0.73986 0.0
C469 C 0.12957 0.32774 0.6875 0.0
H470 H 0.11075 0.31007 0.84245 0.0
C471 C 0.15158 0.35071 0.69956 0.0
H472 H 0.09743 0.29596 0.732 0.0
C473 C 0.15944 0.3585 0.76278 0.0
C474 C 0.14514 0.34378 0.81515 0.0
H475 H 0.1635 0.36192 0.66023 0.0
H476 H 0.17717 0.37566 0.77063 0.0
C477 C 0.12215 0.32179 0.80308 0.0
C478 C 0.61456 0.15934 0.76946 0.0
C479 C 0.62951 0.14528 0.82185 0.0
H480 H 0.61094 0.16322 0.6669 0.0
C481 C 0.65147 0.12236 0.80989 0.0
H482 H 0.59741 0.17701 0.77726 0.0
C483 C 0.65943 0.11474 0.74671 0.0
C484 C 0.64528 0.12959 0.69432 0.0
H485 H 0.66336 0.11116 0.84928 0.0
H486 H 0.6772 0.09769 0.73891 0.0
C487 C 0.62222 0.15142 0.70628 0.0
C488 C 0.81376 0.31186 0.29042 0.0
C489 C 0.83851 0.32637 0.32142 0.0
H490 H 0.78692 0.30798 0.20439 0.0
C491 C 0.85628 0.34801 0.28753 0.0
H492 H 0.79987 0.29498 0.31562 0.0
C493 C 0.84962 0.35455 0.22284 0.0
C494 C 0.82449 0.3403 0.19233 0.0
H495 H 0.87571 0.35916 0.31048 0.0
H496 H 0.86365 0.37111 0.19713 0.0
C497 C 0.80645 0.3192 0.2269 0.0
C498 C 0.65202 0.85284 0.20995 0.0
C499 C 0.63032 0.82961 0.19774 0.0
H500 H 0.67741 0.87788 0.2812 0.0
C501 C 0.61574 0.81505 0.24999 0.0
H502 H 0.66363 0.86442 0.17068 0.0
C503 C 0.62332 0.82301 0.31326 0.0
C504 C 0.64597 0.84533 0.32546 0.0
H505 H 0.59881 0.79713 0.24199 0.0
H506 H 0.61221 0.81096 0.35254 0.0
C507 C 0.65995 0.86046 0.27321 0.0
C508 C 0.11527 0.66117 0.26563 0.0
C509 C 0.1299 0.64677 0.318 0.0
H510 H 0.11147 0.6649 0.16304 0.0
C511 C 0.15141 0.62343 0.30599 0.0
H512 H 0.09847 0.67917 0.27346 0.0
C513 C 0.1591 0.61555 0.24278 0.0
C514 C 0.14507 0.63052 0.1904 0.0
H515 H 0.16305 0.61196 0.34535 0.0
H516 H 0.17643 0.59806 0.23494 0.0
C517 C 0.12262 0.65296 0.20242 0.0
C518 C 0.31679 0.11603 0.26901 0.0
C519 C 0.33085 0.13104 0.32132 0.0
H520 H 0.31276 0.11244 0.16646 0.0
C521 C 0.3533 0.15356 0.3092 0.0
H522 H 0.29946 0.09847 0.27693 0.0
C523 C 0.3606 0.16182 0.24597 0.0
C524 C 0.34594 0.14737 0.19366 0.0
H525 H 0.36448 0.16554 0.34853 0.0
H526 H 0.37741 0.17988 0.23805 0.0
C527 C 0.32443 0.12395 0.20577 0.0
loop_
_geom_bond_atom_site_label_1
_geom_bond_atom_site_label_2
_geom_bond_distance
_geom_bond_site_symmetry_2
_ccdc_geom_bond_type
In0 O1 2.294 . S
In0 O2 2.326 . S
In0 O6 2.266 1_554 S
In0 O7 2.326 1_554 S
In0 O8 2.266 1_554 S
In0 O9 2.325 1_554 S
In0 O11 2.294 . S
In0 O12 2.326 . S
O1 In0 2.294 . S
O1 C10 1.240 . S
O2 In0 2.326 . S
O2 C10 1.252 . S
C3 O6 1.252 . S
C3 O7 1.260 . S
C4 O11 1.240 . S
C4 O12 1.252 . S
C5 O8 1.252 . S
C5 O9 1.261 . S
O6 In0 2.266 1_556 S
O6 C3 1.252 . S
O7 In0 2.326 1_556 S
O7 C3 1.260 . S
O8 In0 2.266 1_556 S
O8 C5 1.252 . S
O9 In0 2.325 1_556 S
O9 C5 1.261 . S
C10 O1 1.240 . S
C10 O2 1.252 . S
O11 In0 2.294 . S
O11 C4 1.240 . S
O12 In0 2.326 . S
O12 C4 1.252 . S
In13 O14 2.294 . S
In13 O15 2.326 . S
In13 O19 2.266 1_554 S
In13 O20 2.326 1_554 S
In13 O21 2.266 1_554 S
In13 O22 2.325 1_554 S
In13 O24 2.294 . S
In13 O25 2.326 . S
O14 In13 2.294 . S
O14 C23 1.240 . S
O15 In13 2.326 . S
O15 C23 1.252 . S
C16 O19 1.252 . S
C16 O20 1.260 . S
C17 O24 1.240 . S
C17 O25 1.252 . S
C18 O21 1.252 . S
C18 O22 1.261 . S
O19 In13 2.266 1_556 S
O19 C16 1.252 . S
O20 In13 2.326 1_556 S
O20 C16 1.260 . S
O21 In13 2.266 1_556 S
O21 C18 1.252 . S
O22 In13 2.325 1_556 S
O22 C18 1.261 . S
C23 O14 1.240 . S
C23 O15 1.252 . S
O24 In13 2.294 . S
O24 C17 1.240 . S
O25 In13 2.326 . S
O25 C17 1.252 . S
In26 O27 2.294 . S
In26 O28 2.326 . S
In26 O32 2.266 1_554 S
In26 O33 2.325 1_554 S
In26 O34 2.266 1_554 S
In26 O35 2.326 1_554 S
In26 O37 2.294 . S
In26 O38 2.326 . S
O27 In26 2.294 . S
O27 C36 1.240 . S
O28 In26 2.326 . S
O28 C36 1.252 . S
C29 O32 1.252 . S
C29 O33 1.261 . S
C30 O37 1.240 . S
C30 O38 1.252 . S
C31 O34 1.252 . S
C31 O35 1.260 . S
O32 In26 2.266 1_556 S
O32 C29 1.252 . S
O33 In26 2.325 1_556 S
O33 C29 1.261 . S
O34 In26 2.266 1_556 S
O34 C31 1.252 . S
O35 In26 2.326 1_556 S
O35 C31 1.260 . S
C36 O27 1.240 . S
C36 O28 1.252 . S
O37 In26 2.294 . S
O37 C30 1.240 . S
O38 In26 2.326 . S
O38 C30 1.252 . S
In39 O40 2.294 . S
In39 O41 2.326 . S
In39 O45 2.266 1_554 S
In39 O46 2.326 1_554 S
In39 O47 2.266 1_554 S
In39 O48 2.325 1_554 S
In39 O50 2.294 . S
In39 O51 2.326 . S
O40 In39 2.294 . S
O40 C49 1.240 . S
O41 In39 2.326 . S
O41 C49 1.252 . S
C42 O45 1.252 . S
C42 O46 1.260 . S
C43 O50 1.240 . S
C43 O51 1.252 . S
C44 O47 1.252 . S
C44 O48 1.261 . S
O45 In39 2.266 1_556 S
O45 C42 1.252 . S
O46 In39 2.326 1_556 S
O46 C42 1.260 . S
O47 In39 2.266 1_556 S
O47 C44 1.252 . S
O48 In39 2.325 1_556 S
O48 C44 1.261 . S
C49 O40 1.240 . S
C49 O41 1.252 . S
O50 In39 2.294 . S
O50 C43 1.240 . S
O51 In39 2.326 . S
O51 C43 1.252 . S
In52 O53 2.294 1_554 S
In52 O54 2.326 1_554 S
In52 O58 2.266 . S
In52 O59 2.326 . S
In52 O60 2.266 . S
In52 O61 2.326 . S
In52 O63 2.294 1_554 S
In52 O64 2.326 1_554 S
O53 In52 2.294 1_556 S
O53 C62 1.240 . S
O54 In52 2.326 1_556 S
O54 C62 1.252 . S
C55 O58 1.252 . S
C55 O59 1.260 . S
C56 O63 1.240 . S
C56 O64 1.252 . S
C57 O60 1.252 . S
C57 O61 1.260 . S
O58 In52 2.266 . S
O58 C55 1.252 . S
O59 In52 2.326 . S
O59 C55 1.260 . S
O60 In52 2.266 . S
O60 C57 1.252 . S
O61 In52 2.326 . S
O61 C57 1.260 . S
C62 O53 1.240 . S
C62 O54 1.252 . S
O63 In52 2.294 1_556 S
O63 C56 1.240 . S
O64 In52 2.326 1_556 S
O64 C56 1.252 . S
In65 O66 2.294 1_554 S
In65 O67 2.326 1_554 S
In65 O71 2.266 . S
In65 O72 2.326 . S
In65 O73 2.266 . S
In65 O74 2.326 . S
In65 O76 2.294 1_554 S
In65 O77 2.326 1_554 S
O66 In65 2.294 1_556 S
O66 C75 1.240 . S
O67 In65 2.326 1_556 S
O67 C75 1.252 . S
C68 O71 1.252 . S
C68 O72 1.260 . S
C69 O76 1.240 . S
C69 O77 1.252 . S
C70 O73 1.252 . S
C70 O74 1.260 . S
O71 In65 2.266 . S
O71 C68 1.252 . S
O72 In65 2.326 . S
O72 C68 1.260 . S
O73 In65 2.266 . S
O73 C70 1.252 . S
O74 In65 2.326 . S
O74 C70 1.260 . S
C75 O66 1.240 . S
C75 O67 1.252 . S
O76 In65 2.294 1_556 S
O76 C69 1.240 . S
O77 In65 2.326 1_556 S
O77 C69 1.252 . S
In78 O79 2.294 1_554 S
In78 O80 2.326 1_554 S
In78 O84 2.266 . S
In78 O85 2.326 . S
In78 O86 2.266 . S
In78 O87 2.326 . S
In78 O89 2.294 1_554 S
In78 O90 2.326 1_554 S
O79 In78 2.294 1_556 S
O79 C88 1.240 . S
O80 In78 2.326 1_556 S
O80 C88 1.252 . S
C81 O84 1.252 . S
C81 O85 1.260 . S
C82 O89 1.240 . S
C82 O90 1.252 . S
C83 O86 1.252 . S
C83 O87 1.260 . S
O84 In78 2.266 . S
O84 C81 1.252 . S
O85 In78 2.326 . S
O85 C81 1.260 . S
O86 In78 2.266 . S
O86 C83 1.252 . S
O87 In78 2.326 . S
O87 C83 1.260 . S
C88 O79 1.240 . S
C88 O80 1.252 . S
O89 In78 2.294 1_556 S
O89 C82 1.240 . S
O90 In78 2.326 1_556 S
O90 C82 1.252 . S
In91 O92 2.294 1_554 S
In91 O93 2.326 1_554 S
In91 O97 2.266 . S
In91 O98 2.326 . S
In91 O99 2.266 . S
In91 O100 2.326 . S
In91 O102 2.294 1_554 S
In91 O103 2.326 1_554 S
O92 In91 2.294 1_556 S
O92 C101 1.240 . S
O93 In91 2.326 1_556 S
O93 C101 1.252 . S
C94 O97 1.252 . S
C94 O98 1.260 . S
C95 O102 1.240 . S
C95 O103 1.252 . S
C96 O99 1.252 . S
C96 O100 1.260 . S
O97 In91 2.266 . S
O97 C94 1.252 . S
O98 In91 2.326 . S
O98 C94 1.260 . S
O99 In91 2.266 . S
O99 C96 1.252 . S
O100 In91 2.326 . S
O100 C96 1.260 . S
C101 O92 1.240 . S
C101 O93 1.252 . S
O102 In91 2.294 1_556 S
O102 C95 1.240 . S
O103 In91 2.326 1_556 S
O103 C95 1.252 . S
In104 O105 2.294 . S
In104 O106 2.326 . S
In104 O110 2.266 . S
In104 O111 2.326 . S
In104 O112 2.266 . S
In104 O113 2.326 . S
In104 O115 2.294 . S
In104 O116 2.326 . S
O105 In104 2.294 . S
O105 C114 1.240 . S
O106 In104 2.326 . S
O106 C114 1.252 . S
C107 O110 1.252 . S
C107 O111 1.260 . S
C108 O115 1.240 . S
C108 O116 1.252 . S
C109 O112 1.252 . S
C109 O113 1.260 . S
O110 In104 2.266 . S
O110 C107 1.252 . S
O111 In104 2.326 . S
O111 C107 1.260 . S
O112 In104 2.266 . S
O112 C109 1.252 . S
O113 In104 2.326 . S
O113 C109 1.260 . S
C114 O105 1.240 . S
C114 O106 1.252 . S
O115 In104 2.294 . S
O115 C108 1.240 . S
O116 In104 2.326 . S
O116 C108 1.252 . S
In117 O118 2.294 . S
In117 O119 2.326 . S
In117 O123 2.266 . S
In117 O124 2.326 . S
In117 O125 2.266 . S
In117 O126 2.326 . S
In117 O128 2.294 . S
In117 O129 2.326 . S
O118 In117 2.294 . S
O118 C127 1.240 . S
O119 In117 2.326 . S
O119 C127 1.252 . S
C120 O123 1.252 . S
C120 O124 1.260 . S
C121 O128 1.240 . S
C121 O129 1.252 . S
C122 O125 1.252 . S
C122 O126 1.260 . S
O123 In117 2.266 . S
O123 C120 1.252 . S
O124 In117 2.326 . S
O124 C120 1.260 . S
O125 In117 2.266 . S
O125 C122 1.252 . S
O126 In117 2.326 . S
O126 C122 1.260 . S
C127 O118 1.240 . S
C127 O119 1.252 . S
O128 In117 2.294 . S
O128 C121 1.240 . S
O129 In117 2.326 . S
O129 C121 1.252 . S
In130 O131 2.294 . S
In130 O132 2.326 . S
In130 O136 2.266 . S
In130 O137 2.326 . S
In130 O138 2.266 . S
In130 O139 2.326 . S
In130 O141 2.294 . S
In130 O142 2.326 . S
O131 In130 2.294 . S
O131 C140 1.240 . S
O132 In130 2.326 . S
O132 C140 1.252 . S
C133 O136 1.252 . S
C133 O137 1.260 . S
C134 O141 1.240 . S
C134 O142 1.252 . S
C135 O138 1.252 . S
C135 O139 1.260 . S
O136 In130 2.266 . S
O136 C133 1.252 . S
O137 In130 2.326 . S
O137 C133 1.260 . S
O138 In130 2.266 . S
O138 C135 1.252 . S
O139 In130 2.326 . S
O139 C135 1.260 . S
C140 O131 1.240 . S
C140 O132 1.252 . S
O141 In130 2.294 . S
O141 C134 1.240 . S
O142 In130 2.326 . S
O142 C134 1.252 . S
In143 O144 2.294 . S
In143 O145 2.326 . S
In143 O149 2.266 . S
In143 O150 2.326 . S
In143 O151 2.266 . S
In143 O152 2.326 . S
In143 O154 2.294 . S
In143 O155 2.326 . S
O144 In143 2.294 . S
O144 C153 1.240 . S
O145 In143 2.326 . S
O145 C153 1.252 . S
C146 O149 1.252 . S
C146 O150 1.260 . S
C147 O154 1.240 . S
C147 O155 1.252 . S
C148 O151 1.252 . S
C148 O152 1.260 . S
O149 In143 2.266 . S
O149 C146 1.252 . S
O150 In143 2.326 . S
O150 C146 1.260 . S
O151 In143 2.266 . S
O151 C148 1.252 . S
O152 In143 2.326 . S
O152 C148 1.260 . S
C153 O144 1.240 . S
C153 O145 1.252 . S
O154 In143 2.294 . S
O154 C147 1.240 . S
O155 In143 2.326 . S
O155 C147 1.252 . S
In156 O157 2.294 . S
In156 O158 2.326 . S
In156 O162 2.266 . S
In156 O163 2.326 . S
In156 O164 2.266 . S
In156 O165 2.326 . S
In156 O167 2.294 . S
In156 O168 2.326 . S
O157 In156 2.294 . S
O157 C166 1.240 . S
O158 In156 2.326 . S
O158 C166 1.252 . S
C159 O162 1.252 . S
C159 O163 1.260 . S
C160 O167 1.240 . S
C160 O168 1.252 . S
C161 O164 1.252 . S
C161 O165 1.260 . S
O162 In156 2.266 . S
O162 C159 1.252 . S
O163 In156 2.326 . S
O163 C159 1.260 . S
O164 In156 2.266 . S
O164 C161 1.252 . S
O165 In156 2.326 . S
O165 C161 1.260 . S
C166 O157 1.240 . S
C166 O158 1.252 . S
O167 In156 2.294 . S
O167 C160 1.240 . S
O168 In156 2.326 . S
O168 C160 1.252 . S
In169 O170 2.294 . S
In169 O171 2.326 . S
In169 O175 2.266 . S
In169 O176 2.326 . S
In169 O177 2.266 . S
In169 O178 2.326 . S
In169 O180 2.294 . S
In169 O181 2.326 . S
O170 In169 2.294 . S
O170 C179 1.240 . S
O171 In169 2.326 . S
O171 C179 1.252 . S
C172 O175 1.252 . S
C172 O176 1.260 . S
C173 O180 1.240 . S
C173 O181 1.252 . S
C174 O177 1.252 . S
C174 O178 1.260 . S
O175 In169 2.266 . S
O175 C172 1.252 . S
O176 In169 2.326 . S
O176 C172 1.260 . S
O177 In169 2.266 . S
O177 C174 1.252 . S
O178 In169 2.326 . S
O178 C174 1.260 . S
C179 O170 1.240 . S
C179 O171 1.252 . S
O180 In169 2.294 . S
O180 C173 1.240 . S
O181 In169 2.326 . S
O181 C173 1.252 . S
In182 O183 2.294 . S
In182 O184 2.326 . S
In182 O188 2.266 . S
In182 O189 2.326 . S
In182 O190 2.266 . S
In182 O191 2.326 . S
In182 O193 2.294 . S
In182 O194 2.326 . S
O183 In182 2.294 . S
O183 C192 1.240 . S
O184 In182 2.326 . S
O184 C192 1.252 . S
C185 O188 1.252 . S
C185 O189 1.260 . S
C186 O193 1.240 . S
C186 O194 1.252 . S
C187 O190 1.252 . S
C187 O191 1.260 . S
O188 In182 2.266 . S
O188 C185 1.252 . S
O189 In182 2.326 . S
O189 C185 1.260 . S
O190 In182 2.266 . S
O190 C187 1.252 . S
O191 In182 2.326 . S
O191 C187 1.260 . S
C192 O183 1.240 . S
C192 O184 1.252 . S
O193 In182 2.294 . S
O193 C186 1.240 . S
O194 In182 2.326 . S
O194 C186 1.252 . S
In195 O196 2.294 . S
In195 O197 2.326 . S
In195 O201 2.266 . S
In195 O202 2.326 . S
In195 O203 2.266 . S
In195 O204 2.326 . S
In195 O206 2.294 . S
In195 O207 2.326 . S
O196 In195 2.294 . S
O196 C205 1.240 . S
O197 In195 2.326 . S
O197 C205 1.252 . S
C198 O201 1.252 . S
C198 O202 1.260 . S
C199 O206 1.240 . S
C199 O207 1.252 . S
C200 O203 1.252 . S
C200 O204 1.260 . S
O201 In195 2.266 . S
O201 C198 1.252 . S
O202 In195 2.326 . S
O202 C198 1.260 . S
O203 In195 2.266 . S
O203 C200 1.252 . S
O204 In195 2.326 . S
O204 C200 1.260 . S
C205 O196 1.240 . S
C205 O197 1.252 . S
O206 In195 2.294 . S
O206 C199 1.240 . S
O207 In195 2.326 . S
O207 C199 1.252 . S
C208 C209 1.387 1_554 S
C208 H212 0.950 1_554 S
C208 C217 1.390 . S
C209 C208 1.387 1_556 S
C209 C211 1.387 1_556 S
H210 C217 0.950 . S
C211 C209 1.387 1_554 S
C211 C213 1.390 . S
C211 H215 0.950 1_554 S
H212 C208 0.950 1_556 S
C213 C211 1.390 . S
C213 C214 1.387 . S
C213 H216 0.950 . S
C214 C213 1.387 . S
C214 C217 1.387 . S
H215 C211 0.950 1_556 S
H216 C213 0.950 . S
C217 C208 1.390 . S
C217 H210 0.950 . S
C217 C214 1.387 . S
C218 C219 1.387 1_554 S
C218 H222 0.950 1_554 S
C218 C227 1.390 . S
C219 C218 1.387 1_556 S
C219 C221 1.387 1_556 S
H220 C227 0.950 . S
C221 C219 1.387 1_554 S
C221 C223 1.390 . S
C221 H225 0.950 1_554 S
H222 C218 0.950 1_556 S
C223 C221 1.390 . S
C223 C224 1.387 . S
C223 H226 0.950 . S
C224 C223 1.387 . S
C224 C227 1.387 . S
H225 C221 0.950 1_556 S
H226 C223 0.950 . S
C227 C218 1.390 . S
C227 H220 0.950 . S
C227 C224 1.387 . S
C228 C229 1.387 1_554 S
C228 H232 0.950 1_554 S
C228 C237 1.390 . S
C229 C228 1.387 1_556 S
C229 C231 1.387 1_556 S
H230 C237 0.950 . S
C231 C229 1.387 1_554 S
C231 C233 1.390 . S
C231 H235 0.950 1_554 S
H232 C228 0.950 1_556 S
C233 C231 1.390 . S
C233 C234 1.387 . S
C233 H236 0.950 . S
C234 C233 1.387 . S
C234 C237 1.387 . S
H235 C231 0.950 1_556 S
H236 C233 0.950 . S
C237 C228 1.390 . S
C237 H230 0.950 . S
C237 C234 1.387 . S
C238 C239 1.387 1_554 S
C238 H242 0.950 1_554 S
C238 C247 1.390 . S
C239 C238 1.387 1_556 S
C239 C241 1.387 1_556 S
H240 C247 0.950 . S
C241 C239 1.387 1_554 S
C241 C243 1.390 . S
C241 H245 0.950 1_554 S
H242 C238 0.950 1_556 S
C243 C241 1.390 . S
C243 C244 1.387 . S
C243 H246 0.950 . S
C244 C243 1.387 . S
C244 C247 1.387 . S
H245 C241 0.950 1_556 S
H246 C243 0.950 . S
C247 C238 1.390 . S
C247 H240 0.950 . S
C247 C244 1.387 . S
C248 C249 1.387 . S
C248 H252 0.950 . S
C248 C257 1.390 1_545 S
C249 C248 1.387 . S
C249 C251 1.387 . S
H250 C257 0.950 . S
C251 C249 1.387 . S
C251 C253 1.390 1_545 S
C251 H255 0.950 . S
H252 C248 0.950 . S
C253 C251 1.390 1_565 S
C253 C254 1.387 . S
C253 H256 0.950 . S
C254 C253 1.387 . S
C254 C257 1.387 . S
H255 C251 0.950 . S
H256 C253 0.950 . S
C257 C248 1.390 1_565 S
C257 H250 0.950 . S
C257 C254 1.387 . S
C258 C259 1.387 . S
C258 H262 0.950 . S
C258 C267 1.390 1_655 S
C259 C258 1.387 . S
C259 C261 1.387 . S
H260 C267 0.950 . S
C261 C259 1.387 . S
C261 C263 1.390 1_655 S
C261 H265 0.950 . S
H262 C258 0.950 . S
C263 C261 1.390 1_455 S
C263 C264 1.387 . S
C263 H266 0.950 . S
C264 C263 1.387 . S
C264 C267 1.387 . S
H265 C261 0.950 . S
H266 C263 0.950 . S
C267 C258 1.390 1_455 S
C267 H260 0.950 . S
C267 C264 1.387 . S
C268 C269 1.387 . S
C268 H272 0.950 . S
C268 C277 1.390 1_545 S
C269 C268 1.387 . S
C269 C271 1.387 . S
H270 C277 0.950 . S
C271 C269 1.387 . S
C271 C273 1.390 1_545 S
C271 H275 0.950 . S
H272 C268 0.950 . S
C273 C271 1.390 1_565 S
C273 C274 1.387 . S
C273 H276 0.950 . S
C274 C273 1.387 . S
C274 C277 1.387 . S
H275 C271 0.950 . S
H276 C273 0.950 . S
C277 C268 1.390 1_565 S
C277 H270 0.950 . S
C277 C274 1.387 . S
C278 C279 1.387 . S
C278 H282 0.950 . S
C278 C287 1.390 1_455 S
C279 C278 1.387 . S
C279 C281 1.387 . S
H280 C287 0.950 . S
C281 C279 1.387 . S
C281 C283 1.390 1_455 S
C281 H285 0.950 . S
H282 C278 0.950 . S
C283 C281 1.390 1_655 S
C283 C284 1.387 . S
C283 H286 0.950 . S
C284 C283 1.387 . S
C284 C287 1.387 . S
H285 C281 0.950 . S
H286 C283 0.950 . S
C287 C278 1.390 1_655 S
C287 H280 0.950 . S
C287 C284 1.387 . S
C288 C289 1.387 1_554 S
C288 H292 0.950 . S
C288 C297 1.390 . S
C289 C288 1.387 1_556 S
C289 C291 1.387 . S
H290 C297 0.950 . S
C291 C289 1.387 . S
C291 C293 1.390 . S
C291 H295 0.950 . S
H292 C288 0.950 . S
C293 C291 1.390 . S
C293 C294 1.387 1_556 S
C293 H296 0.950 . S
C294 C293 1.387 1_554 S
C294 C297 1.387 . S
H295 C291 0.950 . S
H296 C293 0.950 . S
C297 C288 1.390 . S
C297 H290 0.950 . S
C297 C294 1.387 . S
C298 C299 1.387 . S
C298 H302 0.950 . S
C298 C307 1.390 . S
C299 C298 1.387 . S
C299 C301 1.387 1_554 S
H300 C307 0.950 . S
C301 C299 1.387 1_556 S
C301 C303 1.390 . S
C301 H305 0.950 . S
H302 C298 0.950 . S
C303 C301 1.390 . S
C303 C304 1.387 . S
C303 H306 0.950 . S
C304 C303 1.387 . S
C304 C307 1.387 1_556 S
H305 C301 0.950 . S
H306 C303 0.950 . S
C307 C298 1.390 . S
C307 H300 0.950 . S
C307 C304 1.387 1_554 S
C308 C309 1.387 1_554 S
C308 H312 0.950 . S
C308 C317 1.390 . S
C309 C308 1.387 1_556 S
C309 C311 1.387 . S
H310 C317 0.950 . S
C311 C309 1.387 . S
C311 C313 1.390 . S
C311 H315 0.950 . S
H312 C308 0.950 . S
C313 C311 1.390 . S
C313 C314 1.387 1_556 S
C313 H316 0.950 . S
C314 C313 1.387 1_554 S
C314 C317 1.387 . S
H315 C311 0.950 . S
H316 C313 0.950 . S
C317 C308 1.390 . S
C317 H310 0.950 . S
C317 C314 1.387 . S
C318 C319 1.387 . S
C318 H322 0.950 . S
C318 C327 1.390 . S
C319 C318 1.387 . S
C319 C321 1.387 1_554 S
H320 C327 0.950 . S
C321 C319 1.387 1_556 S
C321 C323 1.390 . S
C321 H325 0.950 . S
H322 C318 0.950 . S
C323 C321 1.390 . S
C323 C324 1.387 . S
C323 H326 0.950 . S
C324 C323 1.387 . S
C324 C327 1.387 1_556 S
H325 C321 0.950 . S
H326 C323 0.950 . S
C327 C318 1.390 . S
C327 H320 0.950 . S
C327 C324 1.387 1_554 S
C328 C329 1.387 . S
C328 H332 0.950 . S
C328 C337 1.390 . S
C329 C328 1.387 . S
C329 C331 1.387 . S
H330 C337 0.950 . S
C331 C329 1.387 . S
C331 C333 1.390 . S
C331 H335 0.950 . S
H332 C328 0.950 . S
C333 C331 1.390 . S
C333 C334 1.387 . S
C333 H336 0.950 . S
C334 C333 1.387 . S
C334 C337 1.387 . S
H335 C331 0.950 . S
H336 C333 0.950 . S
C337 C328 1.390 . S
C337 H330 0.950 . S
C337 C334 1.387 . S
C338 C339 1.387 . S
C338 H342 0.950 . S
C338 C347 1.390 . S
C339 C338 1.387 . S
C339 C341 1.387 . S
H340 C347 0.950 . S
C341 C339 1.387 . S
C341 C343 1.390 . S
C341 H345 0.950 . S
H342 C338 0.950 . S
C343 C341 1.390 . S
C343 C344 1.387 . S
C343 H346 0.950 . S
C344 C343 1.387 . S
C344 C347 1.387 . S
H345 C341 0.950 . S
H346 C343 0.950 . S
C347 C338 1.390 . S
C347 H340 0.950 . S
C347 C344 1.387 . S
C348 C349 1.387 . S
C348 H352 0.950 . S
C348 C357 1.390 . S
C349 C348 1.387 . S
C349 C351 1.387 . S
H350 C357 0.950 . S
C351 C349 1.387 . S
C351 C353 1.390 . S
C351 H355 0.950 . S
H352 C348 0.950 . S
C353 C351 1.390 . S
C353 C354 1.387 . S
C353 H356 0.950 . S
C354 C353 1.387 . S
C354 C357 1.387 . S
H355 C351 0.950 . S
H356 C353 0.950 . S
C357 C348 1.390 . S
C357 H350 0.950 . S
C357 C354 1.387 . S
C358 C359 1.387 . S
C358 H362 0.950 . S
C358 C367 1.390 . S
C359 C358 1.387 . S
C359 C361 1.387 . S
H360 C367 0.950 . S
C361 C359 1.387 . S
C361 C363 1.390 . S
C361 H365 0.950 . S
H362 C358 0.950 . S
C363 C361 1.390 . S
C363 C364 1.387 . S
C363 H366 0.950 . S
C364 C363 1.387 . S
C364 C367 1.387 . S
H365 C361 0.950 . S
H366 C363 0.950 . S
C367 C358 1.390 . S
C367 H360 0.950 . S
C367 C364 1.387 . S
C368 C369 1.387 . S
C368 H372 0.950 . S
C368 C377 1.390 . S
C369 C368 1.387 . S
C369 C371 1.387 . S
H370 C377 0.950 . S
C371 C369 1.387 . S
C371 C373 1.390 . S
C371 H375 0.950 . S
H372 C368 0.950 . S
C373 C371 1.390 . S
C373 C374 1.387 . S
C373 H376 0.950 . S
C374 C373 1.387 . S
C374 C377 1.387 . S
H375 C371 0.950 . S
H376 C373 0.950 . S
C377 C368 1.390 . S
C377 H370 0.950 . S
C377 C374 1.387 . S
C378 C379 1.387 . S
C378 H382 0.950 . S
C378 C387 1.390 . S
C379 C378 1.387 . S
C379 C381 1.387 . S
H380 C387 0.950 . S
C381 C379 1.387 . S
C381 C383 1.390 . S
C381 H385 0.950 . S
H382 C378 0.950 . S
C383 C381 1.390 . S
C383 C384 1.387 . S
C383 H386 0.950 . S
C384 C383 1.387 . S
C384 C387 1.387 . S
H385 C381 0.950 . S
H386 C383 0.950 . S
C387 C378 1.390 . S
C387 H380 0.950 . S
C387 C384 1.387 . S
C388 C389 1.387 . S
C388 H392 0.950 . S
C388 C397 1.390 . S
C389 C388 1.387 . S
C389 C391 1.387 . S
H390 C397 0.950 . S
C391 C389 1.387 . S
C391 C393 1.390 . S
C391 H395 0.950 . S
H392 C388 0.950 . S
C393 C391 1.390 . S
C393 C394 1.387 . S
C393 H396 0.950 . S
C394 C393 1.387 . S
C394 C397 1.387 . S
H395 C391 0.950 . S
H396 C393 0.950 . S
C397 C388 1.390 . S
C397 H390 0.950 . S
C397 C394 1.387 . S
C398 C399 1.387 . S
C398 H402 0.950 . S
C398 C407 1.390 . S
C399 C398 1.387 . S
C399 C401 1.387 . S
H400 C407 0.950 . S
C401 C399 1.387 . S
C401 C403 1.390 . S
C401 H405 0.950 . S
H402 C398 0.950 . S
C403 C401 1.390 . S
C403 C404 1.387 . S
C403 H406 0.950 . S
C404 C403 1.387 . S
C404 C407 1.387 . S
H405 C401 0.950 . S
H406 C403 0.950 . S
C407 C398 1.390 . S
C407 H400 0.950 . S
C407 C404 1.387 . S
C408 C409 1.387 . S
C408 H412 0.950 . S
C408 C417 1.390 . S
C409 C408 1.387 . S
C409 C411 1.387 . S
H410 C417 0.950 . S
C411 C409 1.387 . S
C411 C413 1.390 . S
C411 H415 0.950 . S
H412 C408 0.950 . S
C413 C411 1.390 . S
C413 C414 1.387 . S
C413 H416 0.950 . S
C414 C413 1.387 . S
C414 C417 1.387 . S
H415 C411 0.950 . S
H416 C413 0.950 . S
C417 C408 1.390 . S
C417 H410 0.950 . S
C417 C414 1.387 . S
C418 C419 1.387 . S
C418 H422 0.950 . S
C418 C427 1.390 . S
C419 C418 1.387 . S
C419 C421 1.387 . S
H420 C427 0.950 . S
C421 C419 1.387 . S
C421 C423 1.390 . S
C421 H425 0.950 . S
H422 C418 0.950 . S
C423 C421 1.390 . S
C423 C424 1.387 . S
C423 H426 0.950 . S
C424 C423 1.387 . S
C424 C427 1.387 . S
H425 C421 0.950 . S
H426 C423 0.950 . S
C427 C418 1.390 . S
C427 H420 0.950 . S
C427 C424 1.387 . S
C428 C429 1.387 . S
C428 H432 0.950 . S
C428 C437 1.390 . S
C429 C428 1.387 . S
C429 C431 1.387 . S
H430 C437 0.950 . S
C431 C429 1.387 . S
C431 C433 1.390 . S
C431 H435 0.950 . S
H432 C428 0.950 . S
C433 C431 1.390 . S
C433 C434 1.387 . S
C433 H436 0.950 . S
C434 C433 1.387 . S
C434 C437 1.387 . S
H435 C431 0.950 . S
H436 C433 0.950 . S
C437 C428 1.390 . S
C437 H430 0.950 . S
C437 C434 1.387 . S
C438 C439 1.387 . S
C438 H442 0.950 . S
C438 C447 1.390 . S
C439 C438 1.387 . S
C439 C441 1.387 . S
H440 C447 0.950 . S
C441 C439 1.387 . S
C441 C443 1.390 . S
C441 H445 0.950 . S
H442 C438 0.950 . S
C443 C441 1.390 . S
C443 C444 1.387 . S
C443 H446 0.950 . S
C444 C443 1.387 . S
C444 C447 1.387 . S
H445 C441 0.950 . S
H446 C443 0.950 . S
C447 C438 1.390 . S
C447 H440 0.950 . S
C447 C444 1.387 . S
C448 C449 1.387 . S
C448 H452 0.950 . S
C448 C457 1.390 . S
C449 C448 1.387 . S
C449 C451 1.387 . S
H450 C457 0.950 . S
C451 C449 1.387 . S
C451 C453 1.390 . S
C451 H455 0.950 . S
H452 C448 0.950 . S
C453 C451 1.390 . S
C453 C454 1.387 . S
C453 H456 0.950 . S
C454 C453 1.387 . S
C454 C457 1.387 . S
H455 C451 0.950 . S
H456 C453 0.950 . S
C457 C448 1.390 . S
C457 H450 0.950 . S
C457 C454 1.387 . S
C458 C459 1.387 . S
C458 H462 0.950 . S
C458 C467 1.390 . S
C459 C458 1.387 . S
C459 C461 1.387 . S
H460 C467 0.950 . S
C461 C459 1.387 . S
C461 C463 1.390 . S
C461 H465 0.950 . S
H462 C458 0.950 . S
C463 C461 1.390 . S
C463 C464 1.387 . S
C463 H466 0.950 . S
C464 C463 1.387 . S
C464 C467 1.387 . S
H465 C461 0.950 . S
H466 C463 0.950 . S
C467 C458 1.390 . S
C467 H460 0.950 . S
C467 C464 1.387 . S
C468 C469 1.387 . S
C468 H472 0.950 . S
C468 C477 1.390 . S
C469 C468 1.387 . S
C469 C471 1.387 . S
H470 C477 0.950 . S
C471 C469 1.387 . S
C471 C473 1.390 . S
C471 H475 0.950 . S
H472 C468 0.950 . S
C473 C471 1.390 . S
C473 C474 1.387 . S
C473 H476 0.950 . S
C474 C473 1.387 . S
C474 C477 1.387 . S
H475 C471 0.950 . S
H476 C473 0.950 . S
C477 C468 1.390 . S
C477 H470 0.950 . S
C477 C474 1.387 . S
C478 C479 1.387 . S
C478 H482 0.950 . S
C478 C487 1.390 . S
C479 C478 1.387 . S
C479 C481 1.387 . S
H480 C487 0.950 . S
C481 C479 1.387 . S
C481 C483 1.390 . S
C481 H485 0.950 . S
H482 C478 0.950 . S
C483 C481 1.390 . S
C483 C484 1.387 . S
C483 H486 0.950 . S
C484 C483 1.387 . S
C484 C487 1.387 . S
H485 C481 0.950 . S
H486 C483 0.950 . S
C487 C478 1.390 . S
C487 H480 0.950 . S
C487 C484 1.387 . S
C488 C489 1.387 . S
C488 H492 0.950 . S
C488 C497 1.390 . S
C489 C488 1.387 . S
C489 C491 1.387 . S
H490 C497 0.950 . S
C491 C489 1.387 . S
C491 C493 1.390 . S
C491 H495 0.950 . S
H492 C488 0.950 . S
C493 C491 1.390 . S
C493 C494 1.387 . S
C493 H496 0.950 . S
C494 C493 1.387 . S
C494 C497 1.387 . S
H495 C491 0.950 . S
H496 C493 0.950 . S
C497 C488 1.390 . S
C497 H490 0.950 . S
C497 C494 1.387 . S
C498 C499 1.387 . S
C498 H502 0.950 . S
C498 C507 1.390 . S
C499 C498 1.387 . S
C499 C501 1.387 . S
H500 C507 0.950 . S
C501 C499 1.387 . S
C501 C503 1.390 . S
C501 H505 0.950 . S
H502 C498 0.950 . S
C503 C501 1.390 . S
C503 C504 1.387 . S
C503 H506 0.950 . S
C504 C503 1.387 . S
C504 C507 1.387 . S
H505 C501 0.950 . S
H506 C503 0.950 . S
C507 C498 1.390 . S
C507 H500 0.950 . S
C507 C504 1.387 . S
C508 C509 1.387 . S
C508 H512 0.950 . S
C508 C517 1.390 . S
C509 C508 1.387 . S
C509 C511 1.387 . S
H510 C517 0.950 . S
C511 C509 1.387 . S
C511 C513 1.390 . S
C511 H515 0.950 . S
H512 C508 0.950 . S
C513 C511 1.390 . S
C513 C514 1.387 . S
C513 H516 0.950 . S
C514 C513 1.387 . S
C514 C517 1.387 . S
H515 C511 0.950 . S
H516 C513 0.950 . S
C517 C508 1.390 . S
C517 H510 0.950 . S
C517 C514 1.387 . S
C518 C519 1.387 . S
C518 H522 0.950 . S
C518 C527 1.390 . S
C519 C518 1.387 . S
C519 C521 1.387 . S
H520 C527 0.950 . S
C521 C519 1.387 . S
C521 C523 1.390 . S
C521 H525 0.950 . S
H522 C518 0.950 . S
C523 C521 1.390 . S
C523 C524 1.387 . S
C523 H526 0.950 . S
C524 C523 1.387 . S
C524 C527 1.387 . S
H525 C521 0.950 . S
H526 C523 0.950 . S
C527 C518 1.390 . S
C527 H520 0.950 . S
C527 C524 1.387 . S
C209 C56 1.513 . S
C214 C4 1.513 . S
C219 C75 1.514 . S
C224 C17 1.514 . S
C229 C82 1.513 . S
C234 C36 1.513 . S
C239 C95 1.513 . S
C244 C43 1.513 . S
C249 C166 1.513 . S
C254 C108 1.513 . S
C259 C173 1.513 . S
C264 C127 1.513 . S
C269 C140 1.513 . S
C274 C186 1.513 . S
C279 C205 1.513 . S
C284 C147 1.513 . S
C289 C5 1.546 . S
C294 C68 1.546 . S
C299 C83 1.547 . S
C304 C18 1.547 . S
C309 C29 1.547 . S
C314 C96 1.546 . S
C319 C57 1.546 . S
C324 C44 1.546 . S
C329 C174 1.546 . S
C334 C109 1.547 . S
C339 C187 1.546 . S
C344 C120 1.546 . S
C349 C133 1.547 . S
C354 C198 1.547 . S
C359 C148 1.546 . S
C364 C159 1.547 . S
C369 C199 1.465 . S
C374 C10 1.464 . S
C379 C160 1.465 . S
C384 C23 1.465 . S
C389 C179 1.464 . S
C394 C30 1.464 . S
C399 C192 1.465 . S
C404 C49 1.465 . S
C409 C121 1.464 . S
C414 C62 1.465 . S
C419 C134 1.464 . S
C424 C69 1.465 . S
C429 C88 1.464 . S
C434 C153 1.465 . S
C439 C101 1.464 . S
C444 C114 1.465 . S
C449 C172 1.431 . S
C454 C31 1.432 . S
C459 C185 1.432 . S
C464 C42 1.432 . S
C469 C200 1.432 . S
C474 C3 1.432 . S
C479 C16 1.432 . S
C484 C161 1.431 . S
C489 C146 1.432 . S
C494 C81 1.432 . S
C499 C94 1.433 . S
C504 C107 1.433 . S
C509 C122 1.432 . S
C514 C55 1.432 . S
C519 C135 1.433 . S
C524 C70 1.433 . S
