# Generated by pormake.
# Topology sml, (6)-cn, num edge types: 1
# Building blocks:
#     Node 0, Type 0, BuildingBlock: BETFAJ_clean_sbu_0, # of connection points: 6
#     Node 1, Type 0, BuildingBlock: BETFAJ_clean_sbu_0, # of connection points: 6
#     Node 2, Type 0, BuildingBlock: BETFAJ_clean_sbu_0, # of connection points: 6
#     Node 3, Type 0, BuildingBlock: BETFAJ_clean_sbu_0, # of connection points: 6
#     Node 4, Type 0, BuildingBlock: BETFAJ_clean_sbu_0, # of connection points: 6
#     Node 5, Type 0, BuildingBlock: BETFAJ_clean_sbu_0, # of connection points: 6
#     Edge 6, Type (0, 0), BuildingBlock: EZIPEK_clean_linker_0, # of connection points: 2
#     Edge 7, Type (0, 0), BuildingBlock: EZIPEK_clean_linker_0, # of connection points: 2
#     Edge 8, Type (0, 0), BuildingBlock: EZIPEK_clean_linker_0, # of connection points: 2
#     Edge 9, Type (0, 0), BuildingBlock: EZIPEK_clean_linker_0, # of connection points: 2
#     Edge 10, Type (0, 0), BuildingBlock: EZIPEK_clean_linker_0, # of connection points: 2
#     Edge 11, Type (0, 0), BuildingBlock: EZIPEK_clean_linker_0, # of connection points: 2
#     Edge 12, Type (0, 0), BuildingBlock: EZIPEK_clean_linker_0, # of connection points: 2
#     Edge 13, Type (0, 0), BuildingBlock: EZIPEK_clean_linker_0, # of connection points: 2
#     Edge 14, Type (0, 0), BuildingBlock: EZIPEK_clean_linker_0, # of connection points: 2
#     Edge 15, Type (0, 0), BuildingBlock: EZIPEK_clean_linker_0, # of connection points: 2
#     Edge 16, Type (0, 0), BuildingBlock: EZIPEK_clean_linker_0, # of connection points: 2
#     Edge 17, Type (0, 0), BuildingBlock: EZIPEK_clean_linker_0, # of connection points: 2
#     Edge 18, Type (0, 0), BuildingBlock: EZIPEK_clean_linker_0, # of connection points: 2
#     Edge 19, Type (0, 0), BuildingBlock: EZIPEK_clean_linker_0, # of connection points: 2
#     Edge 20, Type (0, 0), BuildingBlock: EZIPEK_clean_linker_0, # of connection points: 2
#     Edge 21, Type (0, 0), BuildingBlock: EZIPEK_clean_linker_0, # of connection points: 2
#     Edge 22, Type (0, 0), BuildingBlock: EZIPEK_clean_linker_0, # of connection points: 2
#     Edge 23, Type (0, 0), BuildingBlock: EZIPEK_clean_linker_0, # of connection points: 2
# Relax obj value: 0.261
# Max RMSD: 0.270
# Mean RMSD: 0.270
data_MOF--net-sml--node1-BETFAJ_clean_sbu_0--edge1-EZIPEK_clean_linker_0
_symmetry_space_group_name_H-M    P1
_symmetry_Int_Tables_number       1
_symmetry_cell_setting            triclinic
loop_
_symmetry_equiv_pos_as_xyz
'x, y, z'
_cell_length_a     22.062781
_cell_length_b     21.818417
_cell_length_c     20.363343
_cell_angle_alpha  89.924176
_cell_angle_beta   90.421175
_cell_angle_gamma 120.23817
loop_
_atom_site_label
_atom_site_type_symbol
_atom_site_fract_x
_atom_site_fract_y
_atom_site_fract_z
_atom_type_partial_charge
Sm0 Sm 0.13177 0.40544 0.16044 0.0
Sm1 Sm 0.23451 0.40344 0.26599 0.0
C2 C 0.09182 0.42348 0.04271 0.0
C3 C 0.11513 0.42162 0.9747 0.0
C4 C 0.17456 0.48105 0.94821 0.0
C5 C 0.19716 0.47884 0.88469 0.0
C6 C 0.16051 0.41753 0.84609 0.0
C7 C 0.10105 0.35825 0.87191 0.0
C8 C 0.07872 0.36016 0.93572 0.0
C9 C 0.06357 0.31682 0.2625 0.0
C10 C 0.18356 0.28653 0.15134 0.0
C11 C 0.3073 0.41878 0.37509 0.0
C12 C 0.2919 0.42083 0.44588 0.0
C13 C 0.27792 0.36373 0.48748 0.0
C14 C 0.25727 0.36284 0.55261 0.0
C15 C 0.25268 0.42021 0.57825 0.0
C16 C 0.26981 0.47869 0.53761 0.0
C17 C 0.28809 0.47856 0.47203 0.0
C18 C 0.29421 0.48019 0.1541 0.0
C19 C 0.14973 0.48952 0.29486 0.0
O20 O 0.13603 0.47615 0.08014 0.0
O21 O 0.05901 0.36317 0.07444 0.0
O22 O 0.12097 0.32801 0.23896 0.0
O23 O 0.03638 0.34764 0.2279 0.0
O24 O 0.1645 0.32756 0.12019 0.0
O25 O 0.20777 0.30077 0.21243 0.0
O26 O 0.27194 0.35789 0.34451 0.0
O27 O 0.31517 0.47201 0.33913 0.0
O28 O 0.24449 0.4781 0.18561 0.0
O29 O 0.31844 0.4444 0.18399 0.0
O30 O 0.17667 0.45223 0.31923 0.0
O31 O 0.13382 0.48763 0.23187 0.0
H32 H 0.20392 0.5294 0.97654 0.0
H33 H 0.24292 0.52524 0.86538 0.0
H34 H 0.07186 0.31062 0.84257 0.0
H35 H 0.03289 0.3135 0.95452 0.0
H36 H 0.28081 0.31873 0.46902 0.0
H37 H 0.24443 0.31718 0.583 0.0
H38 H 0.26736 0.52386 0.55631 0.0
H39 H 0.29868 0.52372 0.44179 0.0
Sm40 Sm 0.84256 0.26494 0.58458 0.0
Sm41 Sm 0.74263 0.17021 0.47898 0.0
C42 C 0.90119 0.31877 0.70046 0.0
C43 C 0.87695 0.29513 0.76795 0.0
C44 C 0.80916 0.23764 0.77895 0.0
C45 C 0.78559 0.21542 0.84292 0.0
C46 C 0.8296 0.25019 0.89686 0.0
C47 C 0.8977 0.30713 0.88583 0.0
C48 C 0.92118 0.32944 0.82176 0.0
C49 C 0.9097 0.24368 0.48183 0.0
C50 C 0.77307 0.09314 0.59701 0.0
C51 C 0.6733 0.11514 0.36691 0.0
C52 C 0.69254 0.13419 0.29749 0.0
C53 C 0.75993 0.18948 0.28169 0.0
C54 C 0.77941 0.20732 0.21624 0.0
C55 C 0.73158 0.17094 0.16516 0.0
C56 C 0.66316 0.11709 0.1809 0.0
C57 C 0.64391 0.09854 0.24669 0.0
C58 C 0.67673 0.18682 0.5857 0.0
C59 C 0.82986 0.34373 0.45764 0.0
O60 O 0.86555 0.34102 0.66667 0.0
O61 O 0.91563 0.27734 0.66613 0.0
O62 O 0.85245 0.19722 0.50569 0.0
O63 O 0.93553 0.30273 0.51451 0.0
O64 O 0.78814 0.15201 0.62847 0.0
O65 O 0.75799 0.0874 0.5337 0.0
O66 O 0.70739 0.08967 0.39863 0.0
O67 O 0.66706 0.16186 0.40161 0.0
O68 O 0.731 0.23582 0.55903 0.0
O69 O 0.65658 0.12676 0.55646 0.0
O70 O 0.80184 0.28015 0.43089 0.0
O71 O 0.84636 0.35369 0.52071 0.0
H72 H 0.77415 0.2104 0.7381 0.0
H73 H 0.73278 0.17171 0.85042 0.0
H74 H 0.93206 0.33499 0.92692 0.0
H75 H 0.97352 0.37376 0.81434 0.0
H76 H 0.79799 0.21827 0.31997 0.0
H77 H 0.83214 0.24943 0.2053 0.0
H78 H 0.62515 0.08885 0.14225 0.0
H79 H 0.59128 0.05638 0.25785 0.0
Sm80 Sm 0.53161 0.69231 0.80246 0.0
Sm81 Sm 0.57314 0.8114 0.91173 0.0
C82 C 0.49473 0.61887 0.69092 0.0
C83 C 0.50949 0.63728 0.62084 0.0
C84 C 0.57078 0.69917 0.6024 0.0
C85 C 0.58075 0.72245 0.53741 0.0
C86 C 0.53001 0.68369 0.48916 0.0
C87 C 0.47056 0.61907 0.50671 0.0
C88 C 0.46003 0.59638 0.5723 0.0
C89 C 0.60345 0.68307 0.90962 0.0
C90 C 0.65649 0.86028 0.77376 0.0
C91 C 0.60513 0.87629 1.02703 0.0
C92 C 0.59234 0.84959 0.09502 0.0
C93 C 0.56858 0.77769 0.1074 0.0
C94 C 0.55556 0.75168 0.17158 0.0
C95 C 0.56617 0.79716 0.22447 0.0
C96 C 0.58891 0.86894 0.21225 0.0
C97 C 0.60169 0.89494 0.14778 0.0
C98 C 0.4924 0.81491 0.8107 0.0
C99 C 0.43503 0.65049 0.93127 0.0
O100 O 0.45654 0.64139 0.71943 0.0
O101 O 0.54765 0.62782 0.7276 0.0
O102 O 0.61343 0.73979 0.88279 0.0
O103 O 0.56288 0.62944 0.87218 0.0
O104 O 0.61784 0.7939 0.75389 0.0
O105 O 0.65464 0.88024 0.83485 0.0
O106 O 0.64932 0.86539 0.99319 0.0
O107 O 0.54892 0.8628 0.99332 0.0
O108 O 0.48717 0.75974 0.83642 0.0
O109 O 0.53565 0.87098 0.84435 0.0
O110 O 0.48743 0.70802 0.95823 0.0
O111 O 0.43439 0.63638 0.86814 0.0
H112 H 0.61016 0.73076 0.63876 0.0
H113 H 0.62783 0.7713 0.5248 0.0
H114 H 0.43152 0.58762 0.46994 0.0
H115 H 0.41266 0.54798 0.58544 0.0
H116 H 0.56041 0.74173 0.06742 0.0
H117 H 0.53789 0.69624 0.18022 0.0
H118 H 0.59749 0.90482 0.25259 0.0
H119 H 0.619 0.95033 0.13915 0.0
Sm120 Sm 0.68876 0.56728 0.27453 0.0
Sm121 Sm 0.79949 0.60163 0.15862 0.0
C122 C 0.61098 0.51771 0.38093 0.0
C123 C 0.62969 0.53318 0.4507 0.0
C124 C 0.70019 0.57776 0.46857 0.0
C125 C 0.72002 0.59014 0.53452 0.0
C126 C 0.66936 0.5591 0.58372 0.0
C127 C 0.59829 0.51626 0.56603 0.0
C128 C 0.57857 0.50305 0.49966 0.0
C129 C 0.68664 0.64856 0.17084 0.0
C130 C 0.84281 0.70927 0.28293 0.0
C131 C 0.86189 0.64342 0.0443 0.0
C132 C 0.83296 0.63603 0.97779 0.0
C133 C 0.76133 0.61281 0.96904 0.0
C134 C 0.73218 0.60075 0.90599 0.0
C135 C 0.77418 0.61095 0.85108 0.0
C136 C 0.84589 0.63478 0.85972 0.0
C137 C 0.87519 0.64738 0.92285 0.0
C138 C 0.829 0.53762 0.26284 0.0
C139 C 0.63908 0.46006 0.14672 0.0
O140 O 0.63872 0.48456 0.35117 0.0
O141 O 0.61512 0.57024 0.34632 0.0
O142 O 0.69664 0.59699 0.16852 0.0
O143 O 0.67017 0.65546 0.23059 0.0
O144 O 0.7903 0.65895 0.31658 0.0
O145 O 0.84684 0.70506 0.21853 0.0
O146 O 0.85316 0.68577 0.08396 0.0
O147 O 0.84841 0.58351 0.07188 0.0
O148 O 0.78129 0.55322 0.2589 0.0
O149 O 0.8658 0.55882 0.20953 0.0
O150 O 0.6995 0.50417 0.11821 0.0
O151 O 0.62558 0.46906 0.20799 0.0
H152 H 0.74002 0.60241 0.43138 0.0
H153 H 0.77496 0.62367 0.54726 0.0
H154 H 0.55851 0.49231 0.60354 0.0
H155 H 0.52382 0.469 0.48664 0.0
H156 H 0.72782 0.60305 1.01104 0.0
H157 H 0.67681 0.58251 0.9 0.0
H158 H 0.87893 0.64313 0.81763 0.0
H159 H 0.93039 0.66495 0.92879 0.0
Sm160 Sm 0.23442 0.84573 0.48967 0.0
Sm161 Sm 0.12189 0.74871 0.59341 0.0
C162 C 0.30314 0.8983 0.37852 0.0
C163 C 0.28348 0.88327 0.30802 0.0
C164 C 0.32105 0.86316 0.26631 0.0
C165 C 0.29771 0.84069 0.20177 0.0
C166 C 0.23686 0.83873 0.17773 0.0
C167 C 0.20072 0.86106 0.21854 0.0
C168 C 0.22346 0.88274 0.28308 0.0
C169 C 0.2387 0.91718 0.60185 0.0
C170 C 0.06331 0.78869 0.46554 0.0
C171 C 0.05923 0.7074 0.70893 0.0
C172 C 0.08148 0.72149 0.77928 0.0
C173 C 0.08477 0.77981 0.81232 0.0
C174 C 0.1081 0.795 0.87757 0.0
C175 C 0.12873 0.75235 0.9115 0.0
C176 C 0.12407 0.69312 0.87938 0.0
C177 C 0.10027 0.67758 0.81407 0.0
C178 C 0.12811 0.67639 0.48514 0.0
C179 C 0.28815 0.79438 0.61675 0.0
O180 O 0.30693 0.8488 0.41186 0.0
O181 O 0.27328 0.92731 0.41162 0.0
O182 O 0.18395 0.86617 0.57596 0.0
O183 O 0.28916 0.94111 0.55966 0.0
O184 O 0.12793 0.81809 0.4428 0.0
O185 O 0.04656 0.76228 0.52533 0.0
O186 O 0.06299 0.76052 0.67546 0.0
O187 O 0.07864 0.66952 0.67453 0.0
O188 O 0.18043 0.72813 0.51307 0.0
O189 O 0.07056 0.65828 0.51745 0.0
O190 O 0.2221 0.75718 0.63434 0.0
O191 O 0.30698 0.83002 0.56077 0.0
H192 H 0.36713 0.86266 0.28432 0.0
H193 H 0.32659 0.82407 0.17083 0.0
H194 H 0.1544 0.86099 0.20053 0.0
H195 H 0.19286 0.89735 0.31382 0.0
H196 H 0.07007 0.81443 0.78756 0.0
H197 H 0.11119 0.84089 0.90136 0.0
H198 H 0.13983 0.65956 0.90459 0.0
H199 H 0.09787 0.63193 0.79048 0.0
Sm200 Sm 0.42399 0.14581 0.93548 0.0
Sm201 Sm 0.3811 0.22468 0.82518 0.0
C202 C 0.48635 0.13156 0.04122 0.0
C203 C 0.47499 0.13644 0.11239 0.0
C204 C 0.5329 0.17445 0.15463 0.0
C205 C 0.52321 0.18724 0.22021 0.0
C206 C 0.45535 0.16237 0.24469 0.0
C207 C 0.39741 0.1233 0.20291 0.0
C208 C 0.4071 0.11081 0.13731 0.0
C209 C 0.314 0.0584 0.85236 0.0
C210 C 0.30103 0.18518 0.96677 0.0
C211 C 0.34876 0.25212 0.70758 0.0
C212 C 0.36651 0.24252 0.63941 0.0
C213 C 0.31562 0.2198 0.58922 0.0
C214 C 0.33132 0.20859 0.52516 0.0
C215 C 0.39816 0.2195 0.51019 0.0
C216 C 0.44923 0.24257 0.56017 0.0
C217 C 0.43367 0.25415 0.62403 0.0
C218 C 0.4634 0.30794 0.92632 0.0
C219 C 0.50835 0.18912 0.79757 0.0
O220 O 0.51043 0.1912 1.00914 0.0
O221 O 0.43758 0.0771 1.00825 0.0
O222 O 0.36799 0.11641 0.8386 0.0
O223 O 0.31936 0.04172 0.91292 0.0
O224 O 0.34439 0.16442 0.98731 0.0
O225 O 0.29767 0.20165 0.90435 0.0
O226 O 0.30691 0.19403 0.74022 0.0
O227 O 0.40048 0.29988 0.74376 0.0
O228 O 0.46428 0.25618 0.90011 0.0
O229 O 0.42345 0.32443 0.89196 0.0
O230 O 0.47693 0.22527 0.78251 0.0
O231 O 0.49558 0.15058 0.85159 0.0
H232 H 0.58578 0.19599 0.13634 0.0
H233 H 0.56864 0.2176 0.25154 0.0
H234 H 0.34468 0.10396 0.22067 0.0
H235 H 0.36154 0.08299 0.1056 0.0
H236 H 0.2635 0.21025 0.59969 0.0
H237 H 0.29115 0.19082 0.48735 0.0
H238 H 0.50106 0.25119 0.54982 0.0
H239 H 0.47416 0.27167 0.66144 0.0
C240 C 0.28249 0.20922 0.08539 0.0
C241 C 0.25833 0.19438 1.01839 0.0
C242 C 0.16114 0.21309 0.04786 0.0
C243 C 0.18946 0.23183 0.11244 0.0
N244 N 0.24336 0.19804 0.19726 0.0
N245 N 0.15715 0.15275 0.94654 0.0
C246 C 0.23839 0.21258 0.13294 0.0
C247 C 0.19211 0.18733 1.00249 0.0
N248 N 0.34874 0.22631 0.10448 0.0
N249 N 0.10405 0.2183 1.03056 0.0
H250 H 0.17469 0.12672 0.91598 0.0
H251 H 0.10674 0.14212 0.93479 0.0
H252 H 0.07375 0.22557 0.0654 0.0
H253 H 0.08723 0.21548 0.98213 0.0
H254 H 0.3669 0.2423 0.15235 0.0
H255 H 0.38921 0.23528 0.07318 0.0
H256 H 0.2769 0.18025 0.21325 0.0
H257 H 0.20668 0.1935 0.23189 0.0
C258 C 0.9535 0.21924 0.31251 0.0
C259 C 0.02628 0.26715 0.31666 0.0
C260 C 0.0228 0.2636 0.43539 0.0
C261 C 0.94906 0.23045 0.4308 0.0
N262 N 0.85049 0.13635 0.37394 0.0
N263 N 0.12705 0.28564 0.37756 0.0
C264 C 0.91545 0.19495 0.37191 0.0
C265 C 0.06089 0.27463 0.37692 0.0
N266 N 0.92248 0.19567 0.25256 0.0
N267 N 0.05574 0.28328 0.49493 0.0
H268 H 0.14927 0.28143 0.33417 0.0
H269 H 0.15271 0.28501 0.42039 0.0
H270 H 0.02796 0.26991 0.53891 0.0
H271 H 0.11011 0.3126 0.49998 0.0
H272 H 0.86918 0.16035 0.24599 0.0
H273 H 0.95149 0.21068 0.20926 0.0
H274 H 0.82457 0.10559 0.33291 0.0
H275 H 0.82771 0.11334 0.41862 0.0
C276 C 0.71982 0.96166 0.61126 0.0
C277 C 0.76451 0.03058 0.63543 0.0
C278 C 0.76218 0.9779 0.7429 0.0
C279 C 0.69936 0.91537 0.7236 0.0
N280 N 0.61375 0.85487 0.63474 0.0
N281 N 0.84507 0.10196 0.72137 0.0
C282 C 0.67736 0.90816 0.65623 0.0
C283 C 0.79099 0.03818 0.70066 0.0
N284 N 0.71838 0.9465 0.54611 0.0
N285 N 0.79617 0.97839 0.79944 0.0
H286 H 0.87578 0.14239 0.68855 0.0
H287 H 0.85956 0.11413 0.77054 0.0
H288 H 0.7801 0.93305 0.82789 0.0
H289 H 0.84454 0.02078 0.81397 0.0
H290 H 0.68792 0.89535 0.52731 0.0
H291 H 0.75581 0.982 0.51344 0.0
H292 H 0.59575 0.85378 0.58701 0.0
H293 H 0.57446 0.81805 0.66478 0.0
C294 C 0.57531 0.62207 1.02175 0.0
C295 C 0.62374 0.67719 0.97915 0.0
C296 C 0.71001 0.72403 0.07057 0.0
C297 C 0.66165 0.66855 0.11121 0.0
N298 N 0.54277 0.57866 0.13283 0.0
N299 N 0.74189 0.77349 0.96084 0.0
C300 C 0.59279 0.62194 0.0889 0.0
C301 C 0.69208 0.72725 1.00342 0.0
N302 N 0.51371 0.56693 0.99852 0.0
N303 N 0.77264 0.77428 0.09709 0.0
H304 H 0.73288 0.7744 0.91066 0.0
H305 H 0.79431 0.80682 0.97336 0.0
H306 H 0.78575 0.77279 0.1462 0.0
H307 H 0.80883 0.82019 0.07297 0.0
H308 H 0.48354 0.52052 1.02494 0.0
H309 H 0.49371 0.56341 0.95186 0.0
H310 H 0.48923 0.5511 0.12206 0.0
H311 H 0.55354 0.57636 0.1824 0.0
C312 C 0.00994 0.75434 0.35368 0.0
C313 C 0.00742 0.77805 0.41782 0.0
C314 C 0.90082 0.77936 0.38561 0.0
C315 C 0.90708 0.75881 0.32089 0.0
N316 N -0.01049 0.76543 0.23947 0.0
N317 N 0.95849 0.82929 0.49027 0.0
C318 C 0.96962 0.76057 0.30339 0.0
C319 C 0.9553 0.79581 0.43268 0.0
N320 N 0.04502 0.71909 0.34191 0.0
N321 N 0.8424 0.78204 0.40184 0.0
H322 H -0.00141 0.8434 0.52474 0.0
H323 H 0.9249 0.84835 0.5012 0.0
H324 H 0.80573 0.77642 0.36625 0.0
H325 H 0.82995 0.78788 0.44981 0.0
H326 H 0.04469 0.69734 0.2962 0.0
H327 H 0.06344 0.70153 0.38044 0.0
H328 H 0.03583 0.7671 0.22599 0.0
H329 H 0.96581 0.77862 0.20192 0.0
C330 C 0.32134 0.97611 0.77372 0.0
C331 C 0.28112 0.00379 0.7999 0.0
C332 C 0.20094 0.95585 0.70476 0.0
C333 C 0.24972 0.94145 0.67238 0.0
N334 N 0.36619 0.9529 0.67657 0.0
N335 N 0.18225 0.02096 0.79196 0.0
C336 C 0.31221 0.95498 0.70703 0.0
C337 C 0.22007 -0.00708 0.76632 0.0
N338 N 0.37096 0.97274 0.81169 0.0
N339 N 0.13761 0.9367 0.67621 0.0
H340 H 0.19352 0.04516 0.83812 0.0
H341 H 0.14227 0.02321 0.76659 0.0
H342 H 0.12317 0.91482 0.62939 0.0
H343 H 0.09732 0.93855 0.70075 0.0
H344 H 0.39547 0.94462 0.79764 0.0
H345 H 0.38263 -0.00832 0.85971 0.0
H346 H 0.4154 0.97198 0.69833 0.0
H347 H 0.36662 0.9388 0.62831 0.0
C348 C 0.15034 0.43091 0.72457 0.0
C349 C 0.18318 0.41652 0.77759 0.0
C350 C 0.26629 0.41201 0.70113 0.0
C351 C 0.22868 0.41872 0.64719 0.0
N352 N 0.1248 0.41891 0.60834 0.0
N353 N 0.26276 0.37853 0.81523 0.0
C354 C 0.16781 0.42376 0.6591 0.0
C355 C 0.23829 0.40254 0.76554 0.0
N356 N 0.10389 0.45355 0.73659 0.0
N357 N 0.33027 0.41793 0.69153 0.0
H358 H 0.24294 0.37047 0.8628 0.0
H359 H 0.29801 0.36068 0.80787 0.0
H360 H 0.35393 0.42739 0.64563 0.0
H361 H 0.36294 0.4206 0.72998 0.0
H362 H 0.08391 0.47191 0.69987 0.0
H363 H 0.09038 0.46029 0.7839 0.0
H364 H 0.07521 0.41247 0.61554 0.0
H365 H 0.13532 0.4144 0.55941 0.0
C366 C 0.76545 0.14282 0.05569 0.0
C367 C 0.75412 0.18972 0.09538 0.0
C368 C 0.78887 0.27418 1.00362 0.0
C369 C 0.80329 0.2289 0.96513 0.0
N370 N 0.81524 0.12543 0.95612 0.0
N371 N 0.76267 0.30338 0.11046 0.0
C372 C 0.79377 0.16432 0.99143 0.0
C373 C 0.76833 0.25647 0.07027 0.0
N374 N 0.74996 0.07801 0.07978 0.0
N375 N 0.79206 0.33274 0.97542 0.0
H376 H 0.73949 0.28984 0.15663 0.0
H377 H 0.78431 0.35691 0.09936 0.0
H378 H 0.80438 0.3461 0.92619 0.0
H379 H 0.77827 0.36611 0.99903 0.0
H380 H 0.74786 0.03755 0.0511 0.0
H381 H 0.73583 0.06299 0.12841 0.0
H382 H 0.8169 0.08181 0.97455 0.0
H383 H 0.83661 0.13976 0.90926 0.0
C384 C 0.59825 0.72551 0.38358 0.0
C385 C 0.53872 0.71239 0.42094 0.0
C386 C 0.49523 0.75206 0.32804 0.0
C387 C 0.55719 0.76991 0.29287 0.0
N388 N 0.6736 0.78635 0.29106 0.0
N389 N 0.43927 0.72928 0.43424 0.0
C390 C 0.61053 0.76045 0.32191 0.0
C391 C 0.4894 0.72993 0.39466 0.0
N392 N 0.64184 0.70242 0.40599 0.0
N393 N 0.44139 0.75502 0.29747 0.0
H394 H 0.43481 0.71628 0.48394 0.0
H395 H 0.40659 0.74849 0.41962 0.0
H396 H 0.44448 0.77261 0.24928 0.0
H397 H 0.39189 0.73495 0.31807 0.0
H398 H 0.68253 0.7049 0.37848 0.0
H399 H 0.63336 0.6742 0.44957 0.0
H400 H 0.7174 0.78858 0.31293 0.0
H401 H 0.68424 0.81125 0.2454 0.0
C402 C 0.7134 0.52724 0.75731 0.0
C403 C 0.74309 0.59656 0.78412 0.0
C404 C 0.71642 0.63901 0.68242 0.0
C405 C 0.6918 0.57104 0.65379 0.0
N406 N 0.67587 0.45331 0.65964 0.0
N407 N 0.77679 0.71966 0.7734 0.0
C408 C 0.6922 0.51567 0.69021 0.0
C409 C 0.7455 0.65283 0.74702 0.0
N410 N 0.70493 0.47237 0.7963 0.0
N411 N 0.71096 0.68985 0.64789 0.0
H412 H 0.79586 0.73097 0.82153 0.0
H413 H 0.78735 0.76489 0.74724 0.0
H414 H 0.69081 0.68182 0.60021 0.0
H415 H 0.72215 0.73854 0.66728 0.0
H416 H 0.67654 0.4193 0.78213 0.0
H417 H 0.72196 0.47922 0.84507 0.0
H418 H 0.68252 0.41384 0.68126 0.0
H419 H 0.66063 0.44286 0.61044 0.0
C420 C 0.11934 0.72932 0.03415 0.0
C421 C 0.15778 0.77183 0.97982 0.0
C422 C 0.24641 0.85902 0.0556 0.0
C423 C 0.21099 0.81423 0.10941 0.0
N424 N 0.1202 0.70112 0.14951 0.0
N425 N 0.26538 0.8696 0.93839 0.0
C426 C 0.14928 0.74759 0.09853 0.0
C427 C 0.22348 0.83448 0.99047 0.0
N428 N 0.05308 0.67317 1.02466 0.0
N429 N 0.30012 0.92659 0.06661 0.0
H430 H 0.31746 0.90964 0.94401 0.0
H431 H 0.2505 0.85447 0.88972 0.0
H432 H 0.3194 0.94675 0.11336 0.0
H433 H 0.32086 0.96452 1.02967 0.0
H434 H 0.0193 0.64518 0.06292 0.0
H435 H 0.02957 0.65793 0.97841 0.0
H436 H 0.07957 0.64896 0.14365 0.0
H437 H 0.14068 0.71279 0.19714 0.0
C438 C 0.43157 0.2573 0.39228 0.0
C439 C 0.41451 0.20576 0.44231 0.0
C440 C 0.43374 0.13049 0.36487 0.0
C441 C 0.4446 0.179 0.31351 0.0
N442 N 0.45074 0.28685 0.27625 0.0
N443 N 0.39266 0.0905 0.47579 0.0
C444 C 0.4428 0.24206 0.32674 0.0
C445 C 0.41412 0.14168 0.4285 0.0
N446 N 0.43919 0.32177 0.40804 0.0
N447 N 0.44338 0.07432 0.35289 0.0
H448 H 0.3772 0.09649 0.52248 0.0
H449 H 0.38577 0.0403 0.46802 0.0
H450 H 0.45591 0.06359 0.30662 0.0
H451 H 0.44427 0.04132 0.38934 0.0
H452 H 0.45893 0.36473 0.3761 0.0
H453 H 0.4303 0.33428 0.45509 0.0
H454 H 0.44123 0.3288 0.28034 0.0
H455 H 0.46357 0.27994 0.2287 0.0
C456 C 0.09954 0.50828 0.39832 0.0
C457 C 0.14004 0.53673 0.34073 0.0
C458 C 0.16785 0.65551 0.37509 0.0
C459 C 0.13417 0.62854 0.43619 0.0
N460 N 0.08091 0.52947 0.51107 0.0
N461 N 0.22472 0.63987 0.28091 0.0
C462 C 0.10335 0.55482 0.44925 0.0
C463 C 0.17737 0.61096 0.3308 0.0
N464 N 0.05602 0.43675 0.40367 0.0
N465 N 0.18767 0.72292 0.35711 0.0
H466 H 0.23431 0.60967 0.24747 0.0
H467 H 0.25912 0.69428 0.27635 0.0
H468 H 0.18308 0.75806 0.38807 0.0
H469 H 0.2 0.73995 0.30878 0.0
H470 H 0.02009 0.41328 0.44147 0.0
H471 H 0.0503 0.40166 0.36631 0.0
H472 H 0.06244 0.47697 0.52435 0.0
H473 H 0.08783 0.5622 0.55106 0.0
C474 C 0.55822 0.15144 0.63166 0.0
C475 C 0.63215 0.19692 0.63412 0.0
C476 C 0.62472 0.23142 0.74663 0.0
C477 C 0.55139 0.18505 0.74499 0.0
N478 N 0.44582 0.11547 0.68071 0.0
N479 N 0.72555 0.30554 0.6804 0.0
C480 C 0.51731 0.14887 0.68604 0.0
C481 C 0.663 0.24446 0.68768 0.0
N482 N 0.52663 0.11275 0.57631 0.0
N483 N 0.6575 0.26442 0.80388 0.0
H484 H 0.74865 0.32275 0.63466 0.0
H485 H 0.74808 0.34433 0.71682 0.0
H486 H 0.63055 0.25579 0.84793 0.0
H487 H 0.71185 0.2952 0.80868 0.0
H488 H 0.47578 0.06937 0.57551 0.0
H489 H 0.55142 0.12463 0.53084 0.0
H490 H 0.41851 0.0971 0.63653 0.0
H491 H 0.41334 0.10981 0.71984 0.0
C492 C 0.32314 0.48641 0.03381 0.0
C493 C 0.32294 0.52115 0.09277 0.0
C494 C 0.36514 0.63172 0.03202 0.0
C495 C 0.37875 0.60092 0.97682 0.0
N496 N 0.36119 0.49477 0.92168 0.0
N497 N 0.35122 0.6295 0.14966 0.0
C498 C 0.3532 0.52669 0.97593 0.0
C499 C 0.34497 0.59433 0.09218 0.0
N500 N 0.29346 0.41446 0.03257 0.0
N501 N 0.37125 0.69699 1.0265 0.0
H502 H 0.33994 0.60491 0.19546 0.0
H503 H 0.37442 0.68446 0.1527 0.0
H504 H 0.38437 0.72485 0.98236 0.0
H505 H 0.35588 0.71959 0.06308 0.0
H506 H 0.27987 0.38449 0.98954 0.0
H507 H 0.28223 0.38454 0.07503 0.0
H508 H 0.35841 0.44569 0.92311 0.0
H509 H 0.37142 0.51702 0.87512 0.0
C510 C 0.82445 0.45519 0.42992 0.0
C511 C 0.84293 0.4035 0.4129 0.0
C512 C 0.85149 0.43916 0.29754 0.0
C513 C 0.83743 0.49387 0.31502 0.0
N514 N 0.84204 0.57055 0.40225 0.0
N515 N 0.89955 0.36672 0.33382 0.0
C516 C 0.8331 0.50693 0.38257 0.0
C517 C 0.86507 0.40241 0.34778 0.0
N518 N 0.79547 0.45369 0.48933 0.0
N519 N 0.84793 0.41878 0.23358 0.0
H520 H 0.9127 0.34134 0.36986 0.0
H521 H 0.92207 0.36946 0.28828 0.0
H522 H 0.83202 0.43911 0.19521 0.0
H523 H 0.85283 0.37553 0.21975 0.0
H524 H 0.77571 0.48696 0.50038 0.0
H525 H 0.78485 0.41542 0.52495 0.0
H526 H 0.84522 0.58475 0.45158 0.0
H527 H 0.85704 0.61218 0.36944 0.0
C528 C 0.32243 0.78508 0.73412 0.0
C529 C 0.34179 0.80131 0.6666 0.0
C530 C 0.46326 0.85006 0.7026 0.0
C531 C 0.44085 0.814 0.7632 0.0
N532 N 0.34373 0.74176 0.83529 0.0
N533 N 0.43578 0.83736 0.58725 0.0
C534 C 0.3685 0.77801 0.7779 0.0
C535 C 0.41381 0.83052 0.65066 0.0
N536 N 0.26552 0.78567 0.75938 0.0
N537 N 0.53022 0.90442 0.69481 0.0
H538 H 0.40154 0.81435 0.54766 0.0
H539 H 0.48831 0.85702 0.5755 0.0
H540 H 0.56747 0.92185 0.7325 0.0
H541 H 0.54597 0.9357 0.65258 0.0
H542 H 0.2536 0.7782 0.80917 0.0
H543 H 0.23834 0.80635 0.73471 0.0
H544 H 0.29014 0.70957 0.84414 0.0
H545 H 0.3761 0.74106 0.87224 0.0
C546 C 0.51654 0.39934 0.09564 0.0
C547 C 0.58354 0.40541 0.10313 0.0
C548 C 0.5716 0.35131 0.99546 0.0
C549 C 0.50511 0.34544 0.98616 0.0
N550 N 0.41543 0.36857 1.02607 0.0
N551 N 0.65736 0.35888 0.07385 0.0
C552 C 0.47781 0.37079 0.03585 0.0
C553 C 0.60524 0.37227 0.05726 0.0
N554 N 0.48761 0.41597 0.14687 0.0
N555 N 0.60611 0.34309 0.94375 0.0
H556 H 0.68191 0.37245 0.11987 0.0
H557 H 0.66824 0.32591 0.04553 0.0
H558 H 0.58762 0.33593 0.89551 0.0
H559 H 0.65744 0.35297 0.94741 0.0
H560 H 0.43622 0.40569 0.14777 0.0
H561 H 0.51147 0.43311 0.19247 0.0
H562 H 0.39844 0.39596 0.05502 0.0
H563 H 0.38064 0.34125 0.988 0.0
loop_
_geom_bond_atom_site_label_1
_geom_bond_atom_site_label_2
_geom_bond_distance
_geom_bond_site_symmetry_2
_ccdc_geom_bond_type
Sm0 C2 2.846 . S
Sm0 O20 2.543 . S
Sm0 O21 2.450 . S
Sm0 O22 2.681 . S
Sm0 O23 2.464 . S
Sm0 O24 2.396 . S
Sm0 O28 2.386 . S
Sm0 O31 2.408 . S
Sm1 C11 2.846 . S
Sm1 O22 2.386 . S
Sm1 O25 2.408 . S
Sm1 O26 2.543 . S
Sm1 O27 2.450 . S
Sm1 O28 2.681 . S
Sm1 O29 2.464 . S
Sm1 O30 2.396 . S
C2 Sm0 2.846 . S
C2 C3 1.506 1_554 S
C2 O20 1.261 . S
C2 O21 1.242 . S
C3 C2 1.506 1_556 S
C3 C4 1.358 . S
C3 C8 1.382 . S
C4 C3 1.358 . S
C4 C5 1.385 . S
C4 H32 0.930 . S
C5 C4 1.385 . S
C5 C6 1.395 . S
C5 H33 0.929 . S
C6 C5 1.395 . S
C6 C7 1.335 . S
C7 C6 1.335 . S
C7 C8 1.398 . S
C7 H34 0.930 . S
C8 C3 1.382 . S
C8 C7 1.398 . S
C8 H35 0.929 . S
C9 O22 1.271 . S
C9 O23 1.251 . S
C10 O24 1.252 . S
C10 O25 1.272 . S
C11 Sm1 2.846 . S
C11 C12 1.506 . S
C11 O26 1.261 . S
C11 O27 1.242 . S
C12 C11 1.506 . S
C12 C13 1.358 . S
C12 C17 1.382 . S
C13 C12 1.358 . S
C13 C14 1.385 . S
C13 H36 0.930 . S
C14 C13 1.385 . S
C14 C15 1.395 . S
C14 H37 0.929 . S
C15 C14 1.395 . S
C15 C16 1.335 . S
C16 C15 1.335 . S
C16 C17 1.398 . S
C16 H38 0.930 . S
C17 C12 1.382 . S
C17 C16 1.398 . S
C17 H39 0.929 . S
C18 O28 1.271 . S
C18 O29 1.251 . S
C19 O30 1.252 . S
C19 O31 1.272 . S
O20 Sm0 2.543 . S
O20 C2 1.261 . S
O21 Sm0 2.450 . S
O21 C2 1.242 . S
O22 Sm0 2.681 . S
O22 Sm1 2.386 . S
O22 C9 1.271 . S
O23 Sm0 2.464 . S
O23 C9 1.251 . S
O24 Sm0 2.396 . S
O24 C10 1.252 . S
O25 Sm1 2.408 . S
O25 C10 1.272 . S
O26 Sm1 2.543 . S
O26 C11 1.261 . S
O27 Sm1 2.450 . S
O27 C11 1.242 . S
O28 Sm0 2.386 . S
O28 Sm1 2.681 . S
O28 C18 1.271 . S
O29 Sm1 2.464 . S
O29 C18 1.251 . S
O30 Sm1 2.396 . S
O30 C19 1.252 . S
O31 Sm0 2.408 . S
O31 C19 1.272 . S
H32 C4 0.930 . S
H33 C5 0.929 . S
H34 C7 0.930 . S
H35 C8 0.929 . S
H36 C13 0.930 . S
H37 C14 0.929 . S
H38 C16 0.930 . S
H39 C17 0.929 . S
Sm40 C42 2.846 . S
Sm40 O60 2.543 . S
Sm40 O61 2.450 . S
Sm40 O62 2.681 . S
Sm40 O63 2.464 . S
Sm40 O64 2.396 . S
Sm40 O68 2.386 . S
Sm40 O71 2.408 . S
Sm41 C51 2.846 . S
Sm41 O62 2.386 . S
Sm41 O65 2.408 . S
Sm41 O66 2.543 . S
Sm41 O67 2.450 . S
Sm41 O68 2.681 . S
Sm41 O69 2.464 . S
Sm41 O70 2.396 . S
C42 Sm40 2.846 . S
C42 C43 1.506 . S
C42 O60 1.261 . S
C42 O61 1.242 . S
C43 C42 1.506 . S
C43 C44 1.358 . S
C43 C48 1.382 . S
C44 C43 1.358 . S
C44 C45 1.385 . S
C44 H72 0.930 . S
C45 C44 1.385 . S
C45 C46 1.395 . S
C45 H73 0.929 . S
C46 C45 1.395 . S
C46 C47 1.335 . S
C47 C46 1.335 . S
C47 C48 1.398 . S
C47 H74 0.930 . S
C48 C43 1.382 . S
C48 C47 1.398 . S
C48 H75 0.929 . S
C49 O62 1.271 . S
C49 O63 1.251 . S
C50 O64 1.252 . S
C50 O65 1.272 . S
C51 Sm41 2.846 . S
C51 C52 1.506 . S
C51 O66 1.261 . S
C51 O67 1.242 . S
C52 C51 1.506 . S
C52 C53 1.358 . S
C52 C57 1.382 . S
C53 C52 1.358 . S
C53 C54 1.385 . S
C53 H76 0.930 . S
C54 C53 1.385 . S
C54 C55 1.395 . S
C54 H77 0.929 . S
C55 C54 1.395 . S
C55 C56 1.335 . S
C56 C55 1.335 . S
C56 C57 1.398 . S
C56 H78 0.930 . S
C57 C52 1.382 . S
C57 C56 1.398 . S
C57 H79 0.929 . S
C58 O68 1.271 . S
C58 O69 1.251 . S
C59 O70 1.252 . S
C59 O71 1.272 . S
O60 Sm40 2.543 . S
O60 C42 1.261 . S
O61 Sm40 2.450 . S
O61 C42 1.242 . S
O62 Sm40 2.681 . S
O62 Sm41 2.386 . S
O62 C49 1.271 . S
O63 Sm40 2.464 . S
O63 C49 1.251 . S
O64 Sm40 2.396 . S
O64 C50 1.252 . S
O65 Sm41 2.408 . S
O65 C50 1.272 . S
O66 Sm41 2.543 . S
O66 C51 1.261 . S
O67 Sm41 2.450 . S
O67 C51 1.242 . S
O68 Sm40 2.386 . S
O68 Sm41 2.681 . S
O68 C58 1.271 . S
O69 Sm41 2.464 . S
O69 C58 1.251 . S
O70 Sm41 2.396 . S
O70 C59 1.252 . S
O71 Sm40 2.408 . S
O71 C59 1.272 . S
H72 C44 0.930 . S
H73 C45 0.929 . S
H74 C47 0.930 . S
H75 C48 0.929 . S
H76 C53 0.930 . S
H77 C54 0.929 . S
H78 C56 0.930 . S
H79 C57 0.929 . S
Sm80 C82 2.846 . S
Sm80 O100 2.543 . S
Sm80 O101 2.450 . S
Sm80 O102 2.681 . S
Sm80 O103 2.464 . S
Sm80 O104 2.396 . S
Sm80 O108 2.386 . S
Sm80 O111 2.408 . S
Sm81 C91 2.846 1_556 S
Sm81 O102 2.386 . S
Sm81 O105 2.408 . S
Sm81 O106 2.543 1_556 S
Sm81 O107 2.450 1_556 S
Sm81 O108 2.681 . S
Sm81 O109 2.464 . S
Sm81 O110 2.396 1_556 S
C82 Sm80 2.846 . S
C82 C83 1.506 . S
C82 O100 1.261 . S
C82 O101 1.242 . S
C83 C82 1.506 . S
C83 C84 1.358 . S
C83 C88 1.382 . S
C84 C83 1.358 . S
C84 C85 1.385 . S
C84 H112 0.930 . S
C85 C84 1.385 . S
C85 C86 1.395 . S
C85 H113 0.929 . S
C86 C85 1.395 . S
C86 C87 1.335 . S
C87 C86 1.335 . S
C87 C88 1.398 . S
C87 H114 0.930 . S
C88 C83 1.382 . S
C88 C87 1.398 . S
C88 H115 0.929 . S
C89 O102 1.271 . S
C89 O103 1.251 . S
C90 O104 1.252 . S
C90 O105 1.272 . S
C91 Sm81 2.846 1_554 S
C91 C92 1.506 . S
C91 O106 1.261 . S
C91 O107 1.242 . S
C92 C91 1.506 . S
C92 C93 1.358 . S
C92 C97 1.382 . S
C93 C92 1.358 . S
C93 C94 1.385 . S
C93 H116 0.930 . S
C94 C93 1.385 . S
C94 C95 1.395 . S
C94 H117 0.929 . S
C95 C94 1.395 . S
C95 C96 1.335 . S
C96 C95 1.335 . S
C96 C97 1.398 . S
C96 H118 0.930 . S
C97 C92 1.382 . S
C97 C96 1.398 . S
C97 H119 0.929 . S
C98 O108 1.271 . S
C98 O109 1.251 . S
C99 O110 1.252 1_556 S
C99 O111 1.272 . S
O100 Sm80 2.543 . S
O100 C82 1.261 . S
O101 Sm80 2.450 . S
O101 C82 1.242 . S
O102 Sm80 2.681 . S
O102 Sm81 2.386 . S
O102 C89 1.271 . S
O103 Sm80 2.464 . S
O103 C89 1.251 . S
O104 Sm80 2.396 . S
O104 C90 1.252 . S
O105 Sm81 2.408 . S
O105 C90 1.272 . S
O106 Sm81 2.543 1_554 S
O106 C91 1.261 . S
O107 Sm81 2.450 1_554 S
O107 C91 1.242 . S
O108 Sm80 2.386 . S
O108 Sm81 2.681 . S
O108 C98 1.271 . S
O109 Sm81 2.464 . S
O109 C98 1.251 . S
O110 Sm81 2.396 1_554 S
O110 C99 1.252 1_554 S
O111 Sm80 2.408 . S
O111 C99 1.272 . S
H112 C84 0.930 . S
H113 C85 0.929 . S
H114 C87 0.930 . S
H115 C88 0.929 . S
H116 C93 0.930 . S
H117 C94 0.929 . S
H118 C96 0.930 . S
H119 C97 0.929 . S
Sm120 C122 2.846 . S
Sm120 O140 2.543 . S
Sm120 O141 2.450 . S
Sm120 O142 2.681 . S
Sm120 O143 2.464 . S
Sm120 O144 2.396 . S
Sm120 O148 2.386 . S
Sm120 O151 2.408 . S
Sm121 C131 2.846 1_554 S
Sm121 O142 2.386 . S
Sm121 O145 2.408 . S
Sm121 O146 2.543 1_554 S
Sm121 O147 2.450 1_554 S
Sm121 O148 2.681 . S
Sm121 O149 2.464 . S
Sm121 O150 2.396 . S
C122 Sm120 2.846 . S
C122 C123 1.506 . S
C122 O140 1.261 . S
C122 O141 1.242 . S
C123 C122 1.506 . S
C123 C124 1.358 . S
C123 C128 1.382 . S
C124 C123 1.358 . S
C124 C125 1.385 . S
C124 H152 0.930 . S
C125 C124 1.385 . S
C125 C126 1.395 . S
C125 H153 0.929 . S
C126 C125 1.395 . S
C126 C127 1.335 . S
C127 C126 1.335 . S
C127 C128 1.398 . S
C127 H154 0.930 . S
C128 C123 1.382 . S
C128 C127 1.398 . S
C128 H155 0.929 . S
C129 O142 1.271 . S
C129 O143 1.251 . S
C130 O144 1.252 . S
C130 O145 1.272 . S
C131 Sm121 2.846 1_556 S
C131 C132 1.506 . S
C131 O146 1.261 . S
C131 O147 1.242 . S
C132 C131 1.506 . S
C132 C133 1.358 . S
C132 C137 1.382 . S
C133 C132 1.358 . S
C133 C134 1.385 . S
C133 H156 0.930 . S
C134 C133 1.385 . S
C134 C135 1.395 . S
C134 H157 0.929 . S
C135 C134 1.395 . S
C135 C136 1.335 . S
C136 C135 1.335 . S
C136 C137 1.398 . S
C136 H158 0.930 . S
C137 C132 1.382 . S
C137 C136 1.398 . S
C137 H159 0.929 . S
C138 O148 1.271 . S
C138 O149 1.251 . S
C139 O150 1.252 . S
C139 O151 1.272 . S
O140 Sm120 2.543 . S
O140 C122 1.261 . S
O141 Sm120 2.450 . S
O141 C122 1.242 . S
O142 Sm120 2.681 . S
O142 Sm121 2.386 . S
O142 C129 1.271 . S
O143 Sm120 2.464 . S
O143 C129 1.251 . S
O144 Sm120 2.396 . S
O144 C130 1.252 . S
O145 Sm121 2.408 . S
O145 C130 1.272 . S
O146 Sm121 2.543 1_556 S
O146 C131 1.261 . S
O147 Sm121 2.450 1_556 S
O147 C131 1.242 . S
O148 Sm120 2.386 . S
O148 Sm121 2.681 . S
O148 C138 1.271 . S
O149 Sm121 2.464 . S
O149 C138 1.251 . S
O150 Sm121 2.396 . S
O150 C139 1.252 . S
O151 Sm120 2.408 . S
O151 C139 1.272 . S
H152 C124 0.930 . S
H153 C125 0.929 . S
H154 C127 0.930 . S
H155 C128 0.929 . S
H156 C133 0.930 . S
H157 C134 0.929 . S
H158 C136 0.930 . S
H159 C137 0.929 . S
Sm160 C162 2.846 . S
Sm160 O180 2.543 . S
Sm160 O181 2.450 . S
Sm160 O182 2.681 . S
Sm160 O183 2.464 . S
Sm160 O184 2.396 . S
Sm160 O188 2.386 . S
Sm160 O191 2.408 . S
Sm161 C171 2.846 . S
Sm161 O182 2.386 . S
Sm161 O185 2.408 . S
Sm161 O186 2.543 . S
Sm161 O187 2.450 . S
Sm161 O188 2.681 . S
Sm161 O189 2.464 . S
Sm161 O190 2.396 . S
C162 Sm160 2.846 . S
C162 C163 1.506 . S
C162 O180 1.261 . S
C162 O181 1.242 . S
C163 C162 1.506 . S
C163 C164 1.358 . S
C163 C168 1.382 . S
C164 C163 1.358 . S
C164 C165 1.385 . S
C164 H192 0.930 . S
C165 C164 1.385 . S
C165 C166 1.395 . S
C165 H193 0.929 . S
C166 C165 1.395 . S
C166 C167 1.335 . S
C167 C166 1.335 . S
C167 C168 1.398 . S
C167 H194 0.930 . S
C168 C163 1.382 . S
C168 C167 1.398 . S
C168 H195 0.929 . S
C169 O182 1.271 . S
C169 O183 1.251 . S
C170 O184 1.252 . S
C170 O185 1.272 . S
C171 Sm161 2.846 . S
C171 C172 1.506 . S
C171 O186 1.261 . S
C171 O187 1.242 . S
C172 C171 1.506 . S
C172 C173 1.358 . S
C172 C177 1.382 . S
C173 C172 1.358 . S
C173 C174 1.385 . S
C173 H196 0.930 . S
C174 C173 1.385 . S
C174 C175 1.395 . S
C174 H197 0.929 . S
C175 C174 1.395 . S
C175 C176 1.335 . S
C176 C175 1.335 . S
C176 C177 1.398 . S
C176 H198 0.930 . S
C177 C172 1.382 . S
C177 C176 1.398 . S
C177 H199 0.929 . S
C178 O188 1.271 . S
C178 O189 1.251 . S
C179 O190 1.252 . S
C179 O191 1.272 . S
O180 Sm160 2.543 . S
O180 C162 1.261 . S
O181 Sm160 2.450 . S
O181 C162 1.242 . S
O182 Sm160 2.681 . S
O182 Sm161 2.386 . S
O182 C169 1.271 . S
O183 Sm160 2.464 . S
O183 C169 1.251 . S
O184 Sm160 2.396 . S
O184 C170 1.252 . S
O185 Sm161 2.408 . S
O185 C170 1.272 . S
O186 Sm161 2.543 . S
O186 C171 1.261 . S
O187 Sm161 2.450 . S
O187 C171 1.242 . S
O188 Sm160 2.386 . S
O188 Sm161 2.681 . S
O188 C178 1.271 . S
O189 Sm161 2.464 . S
O189 C178 1.251 . S
O190 Sm161 2.396 . S
O190 C179 1.252 . S
O191 Sm160 2.408 . S
O191 C179 1.272 . S
H192 C164 0.930 . S
H193 C165 0.929 . S
H194 C167 0.930 . S
H195 C168 0.929 . S
H196 C173 0.930 . S
H197 C174 0.929 . S
H198 C176 0.930 . S
H199 C177 0.929 . S
Sm200 C202 2.846 . S
Sm200 O220 2.543 . S
Sm200 O221 2.450 . S
Sm200 O222 2.681 . S
Sm200 O223 2.464 . S
Sm200 O224 2.396 . S
Sm200 O228 2.386 . S
Sm200 O231 2.408 . S
Sm201 C211 2.846 . S
Sm201 O222 2.386 . S
Sm201 O225 2.408 . S
Sm201 O226 2.543 . S
Sm201 O227 2.450 . S
Sm201 O228 2.681 . S
Sm201 O229 2.464 . S
Sm201 O230 2.396 . S
C202 Sm200 2.846 . S
C202 C203 1.506 1_556 S
C202 O220 1.261 . S
C202 O221 1.242 . S
C203 C202 1.506 1_554 S
C203 C204 1.358 . S
C203 C208 1.382 . S
C204 C203 1.358 . S
C204 C205 1.385 . S
C204 H232 0.930 . S
C205 C204 1.385 . S
C205 C206 1.395 . S
C205 H233 0.929 . S
C206 C205 1.395 . S
C206 C207 1.335 . S
C207 C206 1.335 . S
C207 C208 1.398 . S
C207 H234 0.930 . S
C208 C203 1.382 . S
C208 C207 1.398 . S
C208 H235 0.929 . S
C209 O222 1.271 . S
C209 O223 1.251 . S
C210 O224 1.252 . S
C210 O225 1.272 . S
C211 Sm201 2.846 . S
C211 C212 1.506 . S
C211 O226 1.261 . S
C211 O227 1.242 . S
C212 C211 1.506 . S
C212 C213 1.358 . S
C212 C217 1.382 . S
C213 C212 1.358 . S
C213 C214 1.385 . S
C213 H236 0.930 . S
C214 C213 1.385 . S
C214 C215 1.395 . S
C214 H237 0.929 . S
C215 C214 1.395 . S
C215 C216 1.335 . S
C216 C215 1.335 . S
C216 C217 1.398 . S
C216 H238 0.930 . S
C217 C212 1.382 . S
C217 C216 1.398 . S
C217 H239 0.929 . S
C218 O228 1.271 . S
C218 O229 1.251 . S
C219 O230 1.252 . S
C219 O231 1.272 . S
O220 Sm200 2.543 . S
O220 C202 1.261 . S
O221 Sm200 2.450 . S
O221 C202 1.242 . S
O222 Sm200 2.681 . S
O222 Sm201 2.386 . S
O222 C209 1.271 . S
O223 Sm200 2.464 . S
O223 C209 1.251 . S
O224 Sm200 2.396 . S
O224 C210 1.252 . S
O225 Sm201 2.408 . S
O225 C210 1.272 . S
O226 Sm201 2.543 . S
O226 C211 1.261 . S
O227 Sm201 2.450 . S
O227 C211 1.242 . S
O228 Sm200 2.386 . S
O228 Sm201 2.681 . S
O228 C218 1.271 . S
O229 Sm201 2.464 . S
O229 C218 1.251 . S
O230 Sm201 2.396 . S
O230 C219 1.252 . S
O231 Sm200 2.408 . S
O231 C219 1.272 . S
H232 C204 0.930 . S
H233 C205 0.929 . S
H234 C207 0.930 . S
H235 C208 0.929 . S
H236 C213 0.930 . S
H237 C214 0.929 . S
H238 C216 0.930 . S
H239 C217 0.929 . S
C240 C241 1.363 . S
C240 C246 1.379 1_556 S
C240 N248 1.356 . S
C241 C240 1.363 . S
C241 C247 1.363 . S
C242 C243 1.363 . S
C242 C247 1.379 1_554 S
C242 N249 1.356 . S
C243 C242 1.363 . S
C243 C246 1.363 . S
N244 C246 1.356 . S
N244 H256 0.984 . S
N244 H257 0.985 . S
N245 C247 1.356 . S
N245 H250 0.984 . S
N245 H251 0.985 . S
C246 C240 1.379 1_554 S
C246 C243 1.363 . S
C246 N244 1.356 . S
C247 C241 1.363 . S
C247 C242 1.379 1_556 S
C247 N245 1.356 . S
N248 C240 1.356 . S
N248 H254 0.984 . S
N248 H255 0.984 . S
N249 C242 1.356 . S
N249 H252 0.984 . S
N249 H253 0.985 . S
H250 N245 0.984 . S
H251 N245 0.985 . S
H252 N249 0.984 . S
H253 N249 0.985 . S
H254 N248 0.984 . S
H255 N248 0.984 . S
H256 N244 0.984 . S
H257 N244 0.985 . S
C258 C259 1.363 . S
C258 C264 1.379 1_455 S
C258 N266 1.356 . S
C259 C258 1.363 . S
C259 C265 1.363 . S
C260 C261 1.363 . S
C260 C265 1.379 1_655 S
C260 N267 1.356 . S
C261 C260 1.363 . S
C261 C264 1.363 . S
N262 C264 1.356 . S
N262 H274 0.984 . S
N262 H275 0.985 . S
N263 C265 1.356 . S
N263 H268 0.984 . S
N263 H269 0.985 . S
C264 C258 1.379 1_655 S
C264 C261 1.363 . S
C264 N262 1.356 . S
C265 C259 1.363 . S
C265 C260 1.379 1_455 S
C265 N263 1.356 . S
N266 C258 1.356 . S
N266 H272 0.984 1_455 S
N266 H273 0.984 . S
N267 C260 1.356 . S
N267 H270 0.984 . S
N267 H271 0.985 1_655 S
H268 N263 0.984 . S
H269 N263 0.985 . S
H270 N267 0.984 . S
H271 N267 0.985 1_455 S
H272 N266 0.984 1_655 S
H273 N266 0.984 . S
H274 N262 0.984 . S
H275 N262 0.985 . S
C276 C277 1.363 1_565 S
C276 C282 1.379 . S
C276 N284 1.356 . S
C277 C276 1.363 1_545 S
C277 C283 1.363 . S
C278 C279 1.363 1_545 S
C278 C283 1.379 . S
C278 N285 1.356 . S
C279 C278 1.363 1_565 S
C279 C282 1.363 . S
N280 C282 1.356 . S
N280 H292 0.984 . S
N280 H293 0.985 . S
N281 C283 1.356 . S
N281 H286 0.984 . S
N281 H287 0.985 . S
C282 C276 1.379 . S
C282 C279 1.363 . S
C282 N280 1.356 . S
C283 C277 1.363 . S
C283 C278 1.379 . S
C283 N281 1.356 . S
N284 C276 1.356 . S
N284 H290 0.984 . S
N284 H291 0.984 . S
N285 C278 1.356 . S
N285 H288 0.984 . S
N285 H289 0.985 . S
H286 N281 0.984 . S
H287 N281 0.985 . S
H288 N285 0.984 . S
H289 N285 0.985 . S
H290 N284 0.984 . S
H291 N284 0.984 . S
H292 N280 0.984 . S
H293 N280 0.985 . S
C294 C295 1.363 1_554 S
C294 C300 1.379 . S
C294 N302 1.356 . S
C295 C294 1.363 1_556 S
C295 C301 1.363 . S
C296 C297 1.361 1_556 S
C296 C301 1.381 . S
C296 N303 1.356 1_556 S
C297 C296 1.361 1_554 S
C297 C300 1.363 . S
N298 C300 1.356 . S
N298 H310 0.984 . S
N298 H311 0.985 . S
N299 C301 1.356 . S
N299 H304 0.984 . S
N299 H305 0.985 . S
C300 C294 1.379 . S
C300 C297 1.363 . S
C300 N298 1.356 . S
C301 C295 1.363 . S
C301 C296 1.381 . S
C301 N299 1.356 . S
N302 C294 1.356 . S
N302 H308 0.984 . S
N302 H309 0.984 1_554 S
N303 C296 1.356 1_554 S
N303 H306 0.984 . S
N303 H307 0.985 1_554 S
H304 N299 0.984 . S
H305 N299 0.985 . S
H306 N303 0.984 . S
H307 N303 0.985 1_556 S
H308 N302 0.984 . S
H309 N302 0.984 1_556 S
H310 N298 0.984 . S
H311 N298 0.985 . S
C312 C313 1.363 . S
C312 C318 1.379 . S
C312 N320 1.356 . S
C313 C312 1.363 . S
C313 C319 1.363 1_455 S
C314 C315 1.363 . S
C314 C319 1.379 . S
C314 N321 1.356 . S
C315 C314 1.363 . S
C315 C318 1.363 1_655 S
N316 C318 1.356 . S
N316 H328 0.984 . S
N316 H329 0.985 . S
N317 C319 1.356 . S
N317 H322 0.984 . S
N317 H323 0.985 . S
C318 C312 1.379 . S
C318 C315 1.363 1_455 S
C318 N316 1.356 . S
C319 C313 1.363 1_655 S
C319 C314 1.379 . S
C319 N317 1.356 . S
N320 C312 1.356 . S
N320 H326 0.984 . S
N320 H327 0.984 . S
N321 C314 1.356 . S
N321 H324 0.984 . S
N321 H325 0.985 . S
H322 N317 0.984 . S
H323 N317 0.985 . S
H324 N321 0.984 . S
H325 N321 0.985 . S
H326 N320 0.984 . S
H327 N320 0.984 . S
H328 N316 0.984 . S
H329 N316 0.985 . S
C330 C331 1.363 . S
C330 C336 1.379 1_545 S
C330 N338 1.356 . S
C331 C330 1.363 . S
C331 C337 1.363 . S
C332 C333 1.363 . S
C332 C337 1.379 1_565 S
C332 N339 1.356 . S
C333 C332 1.363 . S
C333 C336 1.363 . S
N334 C336 1.356 . S
N334 H346 0.984 . S
N334 H347 0.985 . S
N335 C337 1.356 . S
N335 H340 0.984 . S
N335 H341 0.985 . S
C336 C330 1.379 1_565 S
C336 C333 1.363 . S
C336 N334 1.356 . S
C337 C331 1.363 . S
C337 C332 1.379 1_545 S
C337 N335 1.356 . S
N338 C330 1.356 . S
N338 H344 0.984 . S
N338 H345 0.984 . S
N339 C332 1.356 . S
N339 H342 0.984 . S
N339 H343 0.985 . S
H340 N335 0.984 . S
H341 N335 0.985 . S
H342 N339 0.984 . S
H343 N339 0.985 . S
H344 N338 0.984 . S
H345 N338 0.984 . S
H346 N334 0.984 . S
H347 N334 0.985 . S
C348 C349 1.363 . S
C348 C354 1.379 . S
C348 N356 1.356 . S
C349 C348 1.363 . S
C349 C355 1.363 . S
C350 C351 1.363 . S
C350 C355 1.379 . S
C350 N357 1.356 . S
C351 C350 1.363 . S
C351 C354 1.363 . S
N352 C354 1.356 . S
N352 H364 0.984 . S
N352 H365 0.985 . S
N353 C355 1.356 . S
N353 H358 0.984 . S
N353 H359 0.985 . S
C354 C348 1.379 . S
C354 C351 1.363 . S
C354 N352 1.356 . S
C355 C349 1.363 . S
C355 C350 1.379 . S
C355 N353 1.356 . S
N356 C348 1.356 . S
N356 H362 0.984 . S
N356 H363 0.984 . S
N357 C350 1.356 . S
N357 H360 0.984 . S
N357 H361 0.985 . S
H358 N353 0.984 . S
H359 N353 0.985 . S
H360 N357 0.984 . S
H361 N357 0.985 . S
H362 N356 0.984 . S
H363 N356 0.984 . S
H364 N352 0.984 . S
H365 N352 0.985 . S
C366 C367 1.363 . S
C366 C372 1.379 . S
C366 N374 1.356 . S
C367 C366 1.363 . S
C367 C373 1.363 . S
C368 C369 1.363 . S
C368 C373 1.379 . S
C368 N375 1.356 . S
C369 C368 1.363 . S
C369 C372 1.363 . S
N370 C372 1.356 . S
N370 H382 0.984 . S
N370 H383 0.985 . S
N371 C373 1.356 1_554 S
N371 H376 0.985 . S
N371 H377 0.984 . S
C372 C366 1.379 . S
C372 C369 1.363 . S
C372 N370 1.356 . S
C373 C367 1.363 . S
C373 C368 1.379 . S
C373 N371 1.356 1_556 S
N374 C366 1.356 . S
N374 H380 0.984 1_545 S
N374 H381 0.984 1_546 S
N375 C368 1.356 . S
N375 H378 0.984 . S
N375 H379 0.985 . S
H376 N371 0.985 . S
H377 N371 0.984 . S
H378 N375 0.984 . S
H379 N375 0.985 . S
H380 N374 0.984 1_565 S
H381 N374 0.984 1_564 S
H382 N370 0.984 . S
H383 N370 0.985 . S
C384 C385 1.363 . S
C384 C390 1.379 . S
C384 N392 1.356 . S
C385 C384 1.363 . S
C385 C391 1.363 . S
C386 C387 1.363 . S
C386 C391 1.379 . S
C386 N393 1.356 . S
C387 C386 1.363 . S
C387 C390 1.363 . S
N388 C390 1.356 . S
N388 H400 0.984 . S
N388 H401 0.985 . S
N389 C391 1.356 . S
N389 H394 0.984 . S
N389 H395 0.985 . S
C390 C384 1.379 . S
C390 C387 1.363 . S
C390 N388 1.356 . S
C391 C385 1.363 . S
C391 C386 1.379 . S
C391 N389 1.356 . S
N392 C384 1.356 . S
N392 H398 0.984 . S
N392 H399 0.984 . S
N393 C386 1.356 . S
N393 H396 0.984 . S
N393 H397 0.985 . S
H394 N389 0.984 . S
H395 N389 0.985 . S
H396 N393 0.984 . S
H397 N393 0.985 . S
H398 N392 0.984 . S
H399 N392 0.984 . S
H400 N388 0.984 . S
H401 N388 0.985 . S
C402 C403 1.363 . S
C402 C408 1.379 . S
C402 N410 1.356 . S
C403 C402 1.363 . S
C403 C409 1.363 . S
C404 C405 1.363 . S
C404 C409 1.379 . S
C404 N411 1.356 . S
C405 C404 1.363 . S
C405 C408 1.363 . S
N406 C408 1.356 . S
N406 H418 0.984 . S
N406 H419 0.985 . S
N407 C409 1.356 . S
N407 H412 0.984 . S
N407 H413 0.985 . S
C408 C402 1.379 . S
C408 C405 1.363 . S
C408 N406 1.356 . S
C409 C403 1.363 . S
C409 C404 1.379 . S
C409 N407 1.356 . S
N410 C402 1.356 . S
N410 H416 0.984 . S
N410 H417 0.984 . S
N411 C404 1.356 . S
N411 H414 0.984 . S
N411 H415 0.985 . S
H412 N407 0.984 . S
H413 N407 0.985 . S
H414 N411 0.984 . S
H415 N411 0.985 . S
H416 N410 0.984 . S
H417 N410 0.984 . S
H418 N406 0.984 . S
H419 N406 0.985 . S
C420 C421 1.363 . S
C420 C426 1.379 . S
C420 N428 1.356 . S
C421 C420 1.363 . S
C421 C427 1.363 . S
C422 C423 1.363 . S
C422 C427 1.379 . S
C422 N429 1.356 . S
C423 C422 1.363 . S
C423 C426 1.363 . S
N424 C426 1.356 . S
N424 H436 0.984 . S
N424 H437 0.985 . S
N425 C427 1.356 1_556 S
N425 H430 0.984 . S
N425 H431 0.985 . S
C426 C420 1.379 . S
C426 C423 1.363 . S
C426 N424 1.356 . S
C427 C421 1.363 . S
C427 C422 1.379 . S
C427 N425 1.356 1_554 S
N428 C420 1.356 . S
N428 H434 0.984 1_455 S
N428 H435 0.984 . S
N429 C422 1.356 . S
N429 H432 0.984 . S
N429 H433 0.985 . S
H430 N425 0.984 . S
H431 N425 0.985 . S
H432 N429 0.984 . S
H433 N429 0.985 . S
H434 N428 0.984 1_655 S
H435 N428 0.984 . S
H436 N424 0.984 . S
H437 N424 0.985 . S
C438 C439 1.363 . S
C438 C444 1.379 . S
C438 N446 1.356 . S
C439 C438 1.363 . S
C439 C445 1.363 . S
C440 C441 1.363 . S
C440 C445 1.379 . S
C440 N447 1.356 . S
C441 C440 1.363 . S
C441 C444 1.363 . S
N442 C444 1.356 . S
N442 H454 0.984 . S
N442 H455 0.985 . S
N443 C445 1.356 . S
N443 H448 0.984 . S
N443 H449 0.985 . S
C444 C438 1.379 . S
C444 C441 1.363 . S
C444 N442 1.356 . S
C445 C439 1.363 . S
C445 C440 1.379 . S
C445 N443 1.356 . S
N446 C438 1.356 . S
N446 H452 0.984 . S
N446 H453 0.984 . S
N447 C440 1.356 . S
N447 H450 0.984 . S
N447 H451 0.985 . S
H448 N443 0.984 . S
H449 N443 0.985 . S
H450 N447 0.984 . S
H451 N447 0.985 . S
H452 N446 0.984 . S
H453 N446 0.984 . S
H454 N442 0.984 . S
H455 N442 0.985 . S
C456 C457 1.363 . S
C456 C462 1.379 . S
C456 N464 1.356 . S
C457 C456 1.363 . S
C457 C463 1.363 . S
C458 C459 1.363 . S
C458 C463 1.379 . S
C458 N465 1.356 . S
C459 C458 1.363 . S
C459 C462 1.363 . S
N460 C462 1.356 . S
N460 H472 0.984 . S
N460 H473 0.985 . S
N461 C463 1.356 . S
N461 H466 0.984 . S
N461 H467 0.985 . S
C462 C456 1.379 . S
C462 C459 1.363 . S
C462 N460 1.356 . S
C463 C457 1.363 . S
C463 C458 1.379 . S
C463 N461 1.356 . S
N464 C456 1.356 . S
N464 H470 0.984 . S
N464 H471 0.984 . S
N465 C458 1.356 . S
N465 H468 0.984 . S
N465 H469 0.985 . S
H466 N461 0.984 . S
H467 N461 0.985 . S
H468 N465 0.984 . S
H469 N465 0.985 . S
H470 N464 0.984 . S
H471 N464 0.984 . S
H472 N460 0.984 . S
H473 N460 0.985 . S
C474 C475 1.363 . S
C474 C480 1.379 . S
C474 N482 1.356 . S
C475 C474 1.363 . S
C475 C481 1.363 . S
C476 C477 1.363 . S
C476 C481 1.379 . S
C476 N483 1.356 . S
C477 C476 1.363 . S
C477 C480 1.363 . S
N478 C480 1.356 . S
N478 H490 0.984 . S
N478 H491 0.985 . S
N479 C481 1.356 . S
N479 H484 0.984 . S
N479 H485 0.985 . S
C480 C474 1.379 . S
C480 C477 1.363 . S
C480 N478 1.356 . S
C481 C475 1.363 . S
C481 C476 1.379 . S
C481 N479 1.356 . S
N482 C474 1.356 . S
N482 H488 0.984 . S
N482 H489 0.984 . S
N483 C476 1.356 . S
N483 H486 0.984 . S
N483 H487 0.985 . S
H484 N479 0.984 . S
H485 N479 0.985 . S
H486 N483 0.984 . S
H487 N483 0.985 . S
H488 N482 0.984 . S
H489 N482 0.984 . S
H490 N478 0.984 . S
H491 N478 0.985 . S
C492 C493 1.363 . S
C492 C498 1.379 . S
C492 N500 1.356 . S
C493 C492 1.363 . S
C493 C499 1.363 . S
C494 C495 1.363 . S
C494 C499 1.379 . S
C494 N501 1.356 . S
C495 C494 1.363 . S
C495 C498 1.363 . S
N496 C498 1.356 . S
N496 H508 0.984 . S
N496 H509 0.985 1_554 S
N497 C499 1.356 . S
N497 H502 0.984 . S
N497 H503 0.985 . S
C498 C492 1.379 . S
C498 C495 1.363 . S
C498 N496 1.356 . S
C499 C493 1.363 . S
C499 C494 1.379 . S
C499 N497 1.356 . S
N500 C492 1.356 . S
N500 H506 0.984 . S
N500 H507 0.984 . S
N501 C494 1.356 . S
N501 H504 0.984 . S
N501 H505 0.985 . S
H502 N497 0.984 . S
H503 N497 0.985 . S
H504 N501 0.984 . S
H505 N501 0.985 . S
H506 N500 0.984 . S
H507 N500 0.984 . S
H508 N496 0.984 . S
H509 N496 0.985 1_556 S
C510 C511 1.363 . S
C510 C516 1.379 . S
C510 N518 1.356 . S
C511 C510 1.363 . S
C511 C517 1.363 . S
C512 C513 1.363 . S
C512 C517 1.379 . S
C512 N519 1.356 . S
C513 C512 1.363 . S
C513 C516 1.363 . S
N514 C516 1.356 . S
N514 H526 0.984 . S
N514 H527 0.985 . S
N515 C517 1.356 . S
N515 H520 0.984 . S
N515 H521 0.985 . S
C516 C510 1.379 . S
C516 C513 1.363 . S
C516 N514 1.356 . S
C517 C511 1.363 . S
C517 C512 1.379 . S
C517 N515 1.356 . S
N518 C510 1.356 . S
N518 H524 0.984 . S
N518 H525 0.984 . S
N519 C512 1.356 . S
N519 H522 0.984 . S
N519 H523 0.985 . S
H520 N515 0.984 . S
H521 N515 0.985 . S
H522 N519 0.984 . S
H523 N519 0.985 . S
H524 N518 0.984 . S
H525 N518 0.984 . S
H526 N514 0.984 . S
H527 N514 0.985 . S
C528 C529 1.363 . S
C528 C534 1.379 . S
C528 N536 1.356 . S
C529 C528 1.363 . S
C529 C535 1.363 . S
C530 C531 1.363 . S
C530 C535 1.379 . S
C530 N537 1.356 . S
C531 C530 1.363 . S
C531 C534 1.363 . S
N532 C534 1.356 . S
N532 H544 0.984 . S
N532 H545 0.985 . S
N533 C535 1.356 . S
N533 H538 0.984 . S
N533 H539 0.985 . S
C534 C528 1.379 . S
C534 C531 1.363 . S
C534 N532 1.356 . S
C535 C529 1.363 . S
C535 C530 1.379 . S
C535 N533 1.356 . S
N536 C528 1.356 . S
N536 H542 0.984 . S
N536 H543 0.984 . S
N537 C530 1.356 . S
N537 H540 0.984 . S
N537 H541 0.985 . S
H538 N533 0.984 . S
H539 N533 0.985 . S
H540 N537 0.984 . S
H541 N537 0.985 . S
H542 N536 0.984 . S
H543 N536 0.984 . S
H544 N532 0.984 . S
H545 N532 0.985 . S
C546 C547 1.363 . S
C546 C552 1.379 . S
C546 N554 1.356 . S
C547 C546 1.363 . S
C547 C553 1.363 . S
C548 C549 1.363 . S
C548 C553 1.379 . S
C548 N555 1.356 . S
C549 C548 1.363 . S
C549 C552 1.363 . S
N550 C552 1.356 . S
N550 H562 0.984 . S
N550 H563 0.985 . S
N551 C553 1.356 . S
N551 H556 0.984 . S
N551 H557 0.985 . S
C552 C546 1.379 . S
C552 C549 1.363 . S
C552 N550 1.356 . S
C553 C547 1.363 . S
C553 C548 1.379 . S
C553 N551 1.356 . S
N554 C546 1.356 . S
N554 H560 0.984 . S
N554 H561 0.984 1_556 S
N555 C548 1.356 . S
N555 H558 0.984 . S
N555 H559 0.985 . S
H556 N551 0.984 . S
H557 N551 0.985 . S
H558 N555 0.984 . S
H559 N555 0.985 . S
H560 N554 0.984 . S
H561 N554 0.984 1_554 S
H562 N550 0.984 . S
H563 N550 0.985 . S
C241 C210 2.002 . S
C243 C10 2.002 . S
C259 C9 1.445 . S
C261 C49 1.445 . S
C277 C50 2.002 . S
C279 C90 2.002 . S
C295 C89 1.445 . S
C297 C129 1.445 . S
C313 C170 2.002 . S
C315 C130 2.002 . S
C331 C209 1.445 . S
C333 C169 1.445 . S
C349 C6 1.908 . S
C351 C15 1.908 . S
C367 C55 1.908 1_556 S
C369 C46 1.908 . S
C385 C86 1.908 . S
C387 C95 1.908 . S
C403 C135 1.908 . S
C405 C126 1.908 . S
C421 C175 1.908 1_554 S
C423 C166 1.908 . S
C439 C215 1.908 . S
C441 C206 1.908 . S
C457 C19 1.964 . S
C459 C178 1.951 . S
C475 C58 1.951 . S
C477 C219 1.964 . S
C493 C18 1.951 . S
C495 C99 1.964 1_554 S
C511 C59 1.964 . S
C513 C138 1.951 . S
C529 C179 1.964 . S
C531 C98 1.951 . S
C547 C139 1.964 1_556 S
C549 C218 1.951 . S
