# Generated by pormake.
# Topology vch, (7)-cn, num edge types: 1
# Building blocks:
#     Node 0, Type 0, BuildingBlock: HICVOG_clean_sbu_0, # of connection points: 7
#     Node 1, Type 0, BuildingBlock: HICVOG_clean_sbu_0, # of connection points: 7
#     Node 2, Type 0, BuildingBlock: HICVOG_clean_sbu_0, # of connection points: 7
#     Node 3, Type 0, BuildingBlock: HICVOG_clean_sbu_0, # of connection points: 7
#     Node 4, Type 0, BuildingBlock: HICVOG_clean_sbu_0, # of connection points: 7
#     Node 5, Type 0, BuildingBlock: HICVOG_clean_sbu_0, # of connection points: 7
#     Node 6, Type 0, BuildingBlock: HICVOG_clean_sbu_0, # of connection points: 7
#     Node 7, Type 0, BuildingBlock: HICVOG_clean_sbu_0, # of connection points: 7
#     Node 8, Type 0, BuildingBlock: HICVOG_clean_sbu_0, # of connection points: 7
#     Node 9, Type 0, BuildingBlock: HICVOG_clean_sbu_0, # of connection points: 7
#     Node 10, Type 0, BuildingBlock: HICVOG_clean_sbu_0, # of connection points: 7
#     Node 11, Type 0, BuildingBlock: HICVOG_clean_sbu_0, # of connection points: 7
#     Node 12, Type 0, BuildingBlock: HICVOG_clean_sbu_0, # of connection points: 7
#     Node 13, Type 0, BuildingBlock: HICVOG_clean_sbu_0, # of connection points: 7
#     Node 14, Type 0, BuildingBlock: HICVOG_clean_sbu_0, # of connection points: 7
#     Node 15, Type 0, BuildingBlock: HICVOG_clean_sbu_0, # of connection points: 7
#     Edge 16, Type (0, 0), BuildingBlock: EZIPEK_clean_linker_0, # of connection points: 2
#     Edge 17, Type (0, 0), BuildingBlock: EZIPEK_clean_linker_0, # of connection points: 2
#     Edge 18, Type (0, 0), BuildingBlock: EZIPEK_clean_linker_0, # of connection points: 2
#     Edge 19, Type (0, 0), BuildingBlock: EZIPEK_clean_linker_0, # of connection points: 2
#     Edge 20, Type (0, 0), BuildingBlock: EZIPEK_clean_linker_0, # of connection points: 2
#     Edge 21, Type (0, 0), BuildingBlock: EZIPEK_clean_linker_0, # of connection points: 2
#     Edge 22, Type (0, 0), BuildingBlock: EZIPEK_clean_linker_0, # of connection points: 2
#     Edge 23, Type (0, 0), BuildingBlock: EZIPEK_clean_linker_0, # of connection points: 2
#     Edge 24, Type (0, 0), BuildingBlock: EZIPEK_clean_linker_0, # of connection points: 2
#     Edge 25, Type (0, 0), BuildingBlock: EZIPEK_clean_linker_0, # of connection points: 2
#     Edge 26, Type (0, 0), BuildingBlock: EZIPEK_clean_linker_0, # of connection points: 2
#     Edge 27, Type (0, 0), BuildingBlock: EZIPEK_clean_linker_0, # of connection points: 2
#     Edge 28, Type (0, 0), BuildingBlock: EZIPEK_clean_linker_0, # of connection points: 2
#     Edge 29, Type (0, 0), BuildingBlock: EZIPEK_clean_linker_0, # of connection points: 2
#     Edge 30, Type (0, 0), BuildingBlock: EZIPEK_clean_linker_0, # of connection points: 2
#     Edge 31, Type (0, 0), BuildingBlock: EZIPEK_clean_linker_0, # of connection points: 2
#     Edge 32, Type (0, 0), BuildingBlock: EZIPEK_clean_linker_0, # of connection points: 2
#     Edge 33, Type (0, 0), BuildingBlock: EZIPEK_clean_linker_0, # of connection points: 2
#     Edge 34, Type (0, 0), BuildingBlock: EZIPEK_clean_linker_0, # of connection points: 2
#     Edge 35, Type (0, 0), BuildingBlock: EZIPEK_clean_linker_0, # of connection points: 2
#     Edge 36, Type (0, 0), BuildingBlock: EZIPEK_clean_linker_0, # of connection points: 2
#     Edge 37, Type (0, 0), BuildingBlock: EZIPEK_clean_linker_0, # of connection points: 2
#     Edge 38, Type (0, 0), BuildingBlock: EZIPEK_clean_linker_0, # of connection points: 2
#     Edge 39, Type (0, 0), BuildingBlock: EZIPEK_clean_linker_0, # of connection points: 2
#     Edge 40, Type (0, 0), BuildingBlock: EZIPEK_clean_linker_0, # of connection points: 2
#     Edge 41, Type (0, 0), BuildingBlock: EZIPEK_clean_linker_0, # of connection points: 2
#     Edge 42, Type (0, 0), BuildingBlock: EZIPEK_clean_linker_0, # of connection points: 2
#     Edge 43, Type (0, 0), BuildingBlock: EZIPEK_clean_linker_0, # of connection points: 2
#     Edge 44, Type (0, 0), BuildingBlock: EZIPEK_clean_linker_0, # of connection points: 2
#     Edge 45, Type (0, 0), BuildingBlock: EZIPEK_clean_linker_0, # of connection points: 2
#     Edge 46, Type (0, 0), BuildingBlock: EZIPEK_clean_linker_0, # of connection points: 2
#     Edge 47, Type (0, 0), BuildingBlock: EZIPEK_clean_linker_0, # of connection points: 2
#     Edge 48, Type (0, 0), BuildingBlock: EZIPEK_clean_linker_0, # of connection points: 2
#     Edge 49, Type (0, 0), BuildingBlock: EZIPEK_clean_linker_0, # of connection points: 2
#     Edge 50, Type (0, 0), BuildingBlock: EZIPEK_clean_linker_0, # of connection points: 2
#     Edge 51, Type (0, 0), BuildingBlock: EZIPEK_clean_linker_0, # of connection points: 2
#     Edge 52, Type (0, 0), BuildingBlock: EZIPEK_clean_linker_0, # of connection points: 2
#     Edge 53, Type (0, 0), BuildingBlock: EZIPEK_clean_linker_0, # of connection points: 2
#     Edge 54, Type (0, 0), BuildingBlock: EZIPEK_clean_linker_0, # of connection points: 2
#     Edge 55, Type (0, 0), BuildingBlock: EZIPEK_clean_linker_0, # of connection points: 2
#     Edge 56, Type (0, 0), BuildingBlock: EZIPEK_clean_linker_0, # of connection points: 2
#     Edge 57, Type (0, 0), BuildingBlock: EZIPEK_clean_linker_0, # of connection points: 2
#     Edge 58, Type (0, 0), BuildingBlock: EZIPEK_clean_linker_0, # of connection points: 2
#     Edge 59, Type (0, 0), BuildingBlock: EZIPEK_clean_linker_0, # of connection points: 2
#     Edge 60, Type (0, 0), BuildingBlock: EZIPEK_clean_linker_0, # of connection points: 2
#     Edge 61, Type (0, 0), BuildingBlock: EZIPEK_clean_linker_0, # of connection points: 2
#     Edge 62, Type (0, 0), BuildingBlock: EZIPEK_clean_linker_0, # of connection points: 2
#     Edge 63, Type (0, 0), BuildingBlock: EZIPEK_clean_linker_0, # of connection points: 2
#     Edge 64, Type (0, 0), BuildingBlock: EZIPEK_clean_linker_0, # of connection points: 2
#     Edge 65, Type (0, 0), BuildingBlock: EZIPEK_clean_linker_0, # of connection points: 2
#     Edge 66, Type (0, 0), BuildingBlock: EZIPEK_clean_linker_0, # of connection points: 2
#     Edge 67, Type (0, 0), BuildingBlock: EZIPEK_clean_linker_0, # of connection points: 2
#     Edge 68, Type (0, 0), BuildingBlock: EZIPEK_clean_linker_0, # of connection points: 2
#     Edge 69, Type (0, 0), BuildingBlock: EZIPEK_clean_linker_0, # of connection points: 2
#     Edge 70, Type (0, 0), BuildingBlock: EZIPEK_clean_linker_0, # of connection points: 2
#     Edge 71, Type (0, 0), BuildingBlock: EZIPEK_clean_linker_0, # of connection points: 2
# Relax obj value: 0.118
# Max RMSD: 0.207
# Mean RMSD: 0.207
data_MOF--net-vch--node1-HICVOG_clean_sbu_0--edge1-EZIPEK_clean_linker_0
_symmetry_space_group_name_H-M    P1
_symmetry_Int_Tables_number       1
_symmetry_cell_setting            triclinic
loop_
_symmetry_equiv_pos_as_xyz
'x, y, z'
_cell_length_a     14.21311
_cell_length_b     62.641666
_cell_length_c     37.308083
_cell_angle_alpha  89.883484
_cell_angle_beta   90.148902
_cell_angle_gamma 89.960649
loop_
_atom_site_label
_atom_site_type_symbol
_atom_site_fract_x
_atom_site_fract_y
_atom_site_fract_z
_atom_type_partial_charge
Zn0 Zn 0.94723 0.15747 0.13198 0.0
C1 C 0.11718 0.13285 0.06101 0.0
N2 N 0.04439 0.13426 0.0384 0.0
C3 C 0.97318 0.13816 0.06079 0.0
N4 N 0.0007 0.13949 0.09528 0.0
N5 N 0.09175 0.13543 0.09548 0.0
C6 C 0.34892 0.14008 0.14847 0.0
O7 O 0.30812 0.15172 0.17318 0.0
O8 O 0.80435 0.16147 0.12757 0.0
Zn9 Zn 0.15795 0.12353 0.13656 0.0
N10 N 0.02032 0.184 0.13107 0.0
C11 C 0.17672 0.19754 0.13607 0.0
C12 C 0.11414 0.1805 0.13562 0.0
C13 C 0.98624 0.20428 0.12766 0.0
N14 N 0.14314 0.21767 0.13295 0.0
C15 C 0.04971 0.22161 0.12892 0.0
O16 O 0.11375 0.13323 0.18642 0.0
C17 C 0.03579 0.13915 0.20024 0.0
O18 O 0.96729 0.14606 0.18153 0.0
H19 H 0.14051 0.16452 0.13922 0.0
H20 H 0.91134 0.20693 0.12482 0.0
C21 C 0.18336 0.07675 0.13466 0.0
C22 C 0.14674 0.05587 0.13547 0.0
C23 C 0.99244 0.06986 0.13996 0.0
C24 C 0.02864 0.09049 0.1394 0.0
N25 N 0.12296 0.09361 0.13658 0.0
N26 N 0.05218 0.05304 0.13805 0.0
H27 H 0.25834 0.07952 0.1327 0.0
C28 C 0.75444 0.14458 0.1292 0.0
O29 O 0.79741 0.126 0.13027 0.0
O30 O 0.30019 0.12698 0.13016 0.0
H31 H 0.98186 0.10405 0.14147 0.0
H32 H 0.25137 0.19481 0.13948 0.0
H33 H 0.91745 0.06723 0.14211 0.0
Zn34 Zn 0.34089 0.91042 0.13773 0.0
C35 C 0.51946 0.89578 0.06202 0.0
N36 N 0.44878 0.90034 0.03967 0.0
C37 C 0.3755 0.9009 0.06202 0.0
N38 N 0.39998 0.89706 0.09638 0.0
N39 N 0.49117 0.89322 0.0961 0.0
C40 C 0.74322 0.88711 0.13682 0.0
O41 O 0.70421 0.90173 0.15712 0.0
O42 O 0.19651 0.90844 0.13704 0.0
Zn43 Zn 0.54997 0.87543 0.13161 0.0
N44 N 0.38132 0.93995 0.13497 0.0
C45 C 0.51573 0.96266 0.13435 0.0
C46 C 0.4764 0.94234 0.13554 0.0
C47 C 0.32335 0.95727 0.13361 0.0
N48 N 0.45837 0.97994 0.13321 0.0
C49 C 0.36318 0.97784 0.13286 0.0
O50 O 0.53372 0.88633 0.18149 0.0
C51 C 0.46835 0.89425 0.20047 0.0
O52 O 0.3915 0.90127 0.18705 0.0
H53 H 0.52149 0.92846 0.13718 0.0
H54 H 0.2478 0.9551 0.13363 0.0
C55 C 0.51315 0.8283 0.12682 0.0
C56 C 0.44992 0.81097 0.12957 0.0
C57 C 0.3252 0.83497 0.14116 0.0
C58 C 0.3876 0.852 0.13917 0.0
N59 N 0.47993 0.84855 0.13164 0.0
N60 N 0.35781 0.81489 0.13657 0.0
H61 H 0.58727 0.82567 0.12192 0.0
C62 C 0.15101 0.89204 0.12663 0.0
O63 O 0.1974 0.8753 0.11523 0.0
O64 O 0.69114 0.87304 0.12208 0.0
H65 H 0.36277 0.86797 0.14418 0.0
H66 H 0.5913 0.96471 0.13468 0.0
H67 H 0.25172 0.83761 0.1471 0.0
Zn68 Zn 0.65754 0.91059 0.41741 0.0
C69 C 0.4722 0.89366 0.49327 0.0
N70 N 0.54422 0.89642 0.51593 0.0
C71 C 0.617 0.89863 0.49359 0.0
N72 N 0.59107 0.89786 0.45873 0.0
N73 N 0.49944 0.894 0.45857 0.0
C74 C 0.25129 0.88572 0.40009 0.0
O75 O 0.29527 0.89812 0.37725 0.0
O76 O 0.80128 0.90652 0.41885 0.0
Zn77 Zn 0.44406 0.87647 0.42093 0.0
N78 N 0.62203 0.94056 0.4186 0.0
C79 C 0.48979 0.96397 0.41911 0.0
C80 C 0.52719 0.94345 0.41827 0.0
C81 C 0.68166 0.9576 0.419 0.0
N82 N 0.54874 0.98096 0.41974 0.0
C83 C 0.64371 0.97839 0.41959 0.0
O84 O 0.47287 0.88639 0.37148 0.0
C85 C 0.53843 0.89461 0.35316 0.0
O86 O 0.61278 0.90209 0.36746 0.0
H87 H 0.48077 0.9298 0.41724 0.0
H88 H 0.75698 0.95505 0.41889 0.0
C89 C 0.4755 0.82905 0.42609 0.0
C90 C 0.53803 0.8115 0.42582 0.0
C91 C 0.66719 0.8351 0.42083 0.0
C92 C 0.6057 0.85233 0.42018 0.0
N93 N 0.51135 0.8492 0.42339 0.0
N94 N 0.63202 0.8151 0.42336 0.0
H95 H 0.40019 0.82668 0.42751 0.0
C96 C 0.84177 0.89209 0.40021 0.0
O97 O 0.78994 0.87887 0.38135 0.0
O98 O 0.2991 0.87484 0.42286 0.0
H99 H 0.63324 0.86819 0.41658 0.0
H100 H 0.41443 0.9664 0.41909 0.0
H101 H 0.74228 0.83755 0.4186 0.0
Zn102 Zn 0.04709 0.15759 0.42202 0.0
C103 C 0.86736 0.1333 0.49165 0.0
N104 N 0.93852 0.13408 0.51503 0.0
C105 C 0.01105 0.13862 0.49377 0.0
N106 N 0.98609 0.14088 0.45907 0.0
N107 N 0.89496 0.13692 0.45754 0.0
C108 C 0.64852 0.14193 0.42876 0.0
O109 O 0.69721 0.15793 0.44169 0.0
O110 O 0.18918 0.1599 0.42775 0.0
Zn111 Zn 0.83706 0.124 0.41504 0.0
N112 N 0.9801 0.18484 0.4208 0.0
C113 C 0.82695 0.19937 0.41126 0.0
C114 C 0.88712 0.18194 0.41366 0.0
C115 C 0.01595 0.20488 0.4252 0.0
N116 N 0.86214 0.21926 0.41541 0.0
C117 C 0.95484 0.2226 0.42229 0.0
O118 O 0.88552 0.13344 0.36581 0.0
C119 C 0.96445 0.13932 0.35293 0.0
O120 O 0.03127 0.14612 0.37245 0.0
H121 H 0.85998 0.1661 0.40931 0.0
H122 H 0.0904 0.20704 0.43015 0.0
C123 C 0.82015 0.07699 0.41709 0.0
C124 C 0.8603 0.05645 0.4191 0.0
C125 C 0.01248 0.07178 0.42051 0.0
C126 C 0.97284 0.09207 0.41849 0.0
N127 N 0.87775 0.09438 0.41711 0.0
N128 N 0.95545 0.05445 0.4208 0.0
H129 H 0.74462 0.07909 0.4158 0.0
C130 C 0.23624 0.143 0.4342 0.0
O131 O 0.18953 0.12531 0.44026 0.0
O132 O 0.69313 0.12615 0.41559 0.0
H133 H 0.01769 0.10599 0.41788 0.0
H134 H 0.75312 0.19717 0.40545 0.0
H135 H 0.08804 0.06982 0.42177 0.0
Zn136 Zn 0.83986 0.91008 0.91904 0.0
C137 C 0.01952 0.89297 0.99454 0.0
N138 N 0.94859 0.89648 1.01714 0.0
C139 C 0.87572 0.89819 0.99462 0.0
N140 N 0.90049 0.89618 0.95992 0.0
N141 N 0.99165 0.89228 0.96008 0.0
C142 C 0.24287 0.88705 0.91902 0.0
O143 O 0.20361 0.90211 0.89952 0.0
O144 O 0.69593 0.90784 0.91969 0.0
Zn145 Zn 0.05 0.87516 0.92376 0.0
N146 N 0.87803 0.93975 0.92246 0.0
C147 C 0.00991 0.96317 0.92481 0.0
C148 C 0.97282 0.94265 0.92268 0.0
C149 C 0.81821 0.95675 0.92349 0.0
N150 N 0.95069 0.98013 0.92588 0.0
C151 C 0.85575 0.97753 0.92515 0.0
O152 O 0.0319 0.8866 0.87415 0.0
C153 C 0.96566 0.8947 0.85564 0.0
O154 O 0.8894 0.90157 0.86952 0.0
H155 H 0.01939 0.92903 0.92115 0.0
H156 H 0.74293 0.95418 0.92271 0.0
C157 C 0.01737 0.82794 0.92723 0.0
C158 C 0.95588 0.81032 0.92413 0.0
C159 C 0.82841 0.83383 0.91349 0.0
C160 C 0.88909 0.85115 0.91595 0.0
N161 N 0.98195 0.84806 0.92313 0.0
N162 N 0.86318 0.81385 0.9174 0.0
H163 H 0.09186 0.82564 0.93195 0.0
C164 C 0.65075 0.8912 0.92909 0.0
O165 O 0.69742 0.87419 0.93937 0.0
O166 O 0.19101 0.87272 0.93309 0.0
H167 H 0.86263 0.86707 0.91154 0.0
H168 H 0.08524 0.96562 0.92529 0.0
H169 H 0.75449 0.83617 0.90779 0.0
Zn170 Zn 0.65038 0.12208 0.91677 0.0
C171 C 0.47429 0.13835 0.99356 0.0
N172 N 0.54665 0.13446 1.0155 0.0
C173 C 0.61822 0.13315 0.99245 0.0
N174 N 0.5913 0.13571 0.95803 0.0
N175 N 0.50012 0.1396 0.95889 0.0
C176 C 0.24876 0.14458 0.91871 0.0
O177 O 0.28896 0.12913 0.9006 0.0
O178 O 0.79476 0.12384 0.91761 0.0
Zn179 Zn 0.44076 0.15685 0.9226 0.0
N180 N 0.611 0.0925 0.91988 0.0
C181 C 0.47863 0.06922 0.92189 0.0
C182 C 0.51615 0.08971 0.91973 0.0
C183 C 0.67046 0.07545 0.92145 0.0
N184 N 0.53752 0.05221 0.92353 0.0
C185 C 0.63252 0.05473 0.92324 0.0
O186 O 0.45734 0.14567 0.8726 0.0
C187 C 0.5235 0.13793 0.85375 0.0
O188 O 0.60039 0.13108 0.86736 0.0
H189 H 0.4699 0.10339 0.91795 0.0
H190 H 0.7458 0.07796 0.92116 0.0
C191 C 0.47655 0.20409 0.9267 0.0
C192 C 0.53932 0.22146 0.92321 0.0
C193 C 0.66354 0.19752 0.9105 0.0
C194 C 0.60165 0.18045 0.91343 0.0
N195 N 0.50982 0.18385 0.92179 0.0
N196 N 0.63093 0.21759 0.91524 0.0
H197 H 0.40272 0.20668 0.93225 0.0
C198 C 0.84041 0.14071 0.92538 0.0
O199 O 0.79412 0.15812 0.93348 0.0
O200 O 0.29986 0.15935 0.93191 0.0
H201 H 0.62638 0.16447 0.90851 0.0
H202 H 0.40326 0.06684 0.92205 0.0
H203 H 0.73658 0.19493 0.90374 0.0
Zn204 Zn 0.3379 0.12422 0.63686 0.0
C205 C 0.51244 0.14268 0.55914 0.0
N206 N 0.43902 0.13985 0.53737 0.0
C207 C 0.36903 0.13705 0.56066 0.0
N208 N 0.39785 0.13766 0.59516 0.0
N209 N 0.4889 0.14177 0.59414 0.0
C210 C 0.73708 0.14333 0.61937 0.0
O211 O 0.69002 0.12586 0.61207 0.0
O212 O 0.19414 0.12625 0.63548 0.0
Zn213 Zn 0.54827 0.15778 0.63237 0.0
N214 N 0.37855 0.09461 0.63511 0.0
C215 C 0.51241 0.07175 0.63248 0.0
C216 C 0.47355 0.09213 0.63393 0.0
C217 C 0.32033 0.07733 0.63559 0.0
N218 N 0.45475 0.05452 0.63271 0.0
C219 C 0.35969 0.05672 0.63432 0.0
O220 O 0.53011 0.14561 0.68158 0.0
C221 C 0.46178 0.13882 0.70029 0.0
O222 O 0.38326 0.13335 0.68651 0.0
H223 H 0.51888 0.10597 0.63424 0.0
H224 H 0.2449 0.07958 0.63684 0.0
C225 C 0.5176 0.2052 0.62973 0.0
C226 C 0.4563 0.2229 0.63237 0.0
C227 C 0.32816 0.19958 0.6423 0.0
C228 C 0.38844 0.18217 0.64011 0.0
N229 N 0.48167 0.18512 0.63369 0.0
N230 N 0.36341 0.21949 0.63859 0.0
H231 H 0.59216 0.2074 0.62523 0.0
C232 C 0.14935 0.14239 0.62352 0.0
O233 O 0.19779 0.15881 0.61205 0.0
O234 O 0.69042 0.16005 0.62723 0.0
H235 H 0.36116 0.1663 0.644 0.0
H236 H 0.58788 0.06963 0.63132 0.0
H237 H 0.25412 0.19734 0.64754 0.0
Zn238 Zn 0.1562 0.91136 0.64013 0.0
C239 C 0.97384 0.9002 0.56394 0.0
N240 N 0.04432 0.90619 0.54262 0.0
C241 C 0.11922 0.90497 0.56421 0.0
N242 N 0.09535 0.89904 0.59782 0.0
N243 N 0.00369 0.89536 0.59737 0.0
C244 C 0.75644 0.89225 0.62386 0.0
O245 O 0.80304 0.91016 0.61981 0.0
O246 O 0.29964 0.90851 0.63902 0.0
Zn247 Zn 0.94579 0.87778 0.63398 0.0
N248 N 0.11884 0.94121 0.63884 0.0
C249 C 0.98657 0.9646 0.63712 0.0
C250 C 0.02399 0.94407 0.63851 0.0
C251 C 0.1784 0.95826 0.63843 0.0
N252 N 0.04552 0.98159 0.63635 0.0
C253 C 0.14049 0.97903 0.63701 0.0
O254 O 0.96308 0.88888 0.68364 0.0
C255 C 0.03058 0.89579 0.70271 0.0
O256 O 0.10859 0.90186 0.68932 0.0
H257 H 0.97764 0.93042 0.63943 0.0
H258 H 0.25372 0.95572 0.63888 0.0
C259 C 0.97827 0.8306 0.62963 0.0
C260 C 0.03958 0.81289 0.63215 0.0
C261 C 0.16761 0.83616 0.64266 0.0
C262 C 0.10733 0.85359 0.64059 0.0
N263 N 0.01408 0.85066 0.63399 0.0
N264 N 0.13245 0.81626 0.63858 0.0
H265 H 0.90364 0.82842 0.62512 0.0
C266 C 0.34407 0.8933 0.624 0.0
O267 O 0.29554 0.87805 0.60867 0.0
O268 O 0.80373 0.8752 0.6288 0.0
H269 H 0.13457 0.86942 0.64491 0.0
H270 H 0.9112 0.96701 0.63668 0.0
H271 H 0.2415 0.83836 0.64824 0.0
Zn272 Zn 0.43689 0.65637 0.13069 0.0
C273 C 0.61425 0.63312 0.06075 0.0
N274 N 0.54245 0.63449 0.03766 0.0
C275 C 0.47025 0.63834 0.05952 0.0
N276 N 0.49643 0.63948 0.0942 0.0
N277 N 0.58763 0.63557 0.09518 0.0
C278 C 0.83644 0.64035 0.12814 0.0
O279 O 0.78998 0.65781 0.12024 0.0
O280 O 0.29594 0.65891 0.12124 0.0
Zn281 Zn 0.64662 0.62169 0.13654 0.0
N282 N 0.50566 0.68342 0.13199 0.0
C283 C 0.6592 0.69711 0.14377 0.0
C284 C 0.59747 0.68002 0.1406 0.0
C285 C 0.47231 0.70366 0.12699 0.0
N286 N 0.62651 0.71718 0.13894 0.0
C287 C 0.53495 0.72104 0.13067 0.0
O288 O 0.59694 0.63039 0.18606 0.0
C289 C 0.51967 0.63697 0.19955 0.0
O290 O 0.45347 0.64476 0.18058 0.0
H291 H 0.62232 0.66403 0.14547 0.0
H292 H 0.39855 0.70624 0.12114 0.0
C293 C 0.66687 0.57507 0.13258 0.0
C294 C 0.62911 0.55432 0.13098 0.0
C295 C 0.47513 0.56878 0.13081 0.0
C296 C 0.51246 0.58929 0.13282 0.0
N297 N 0.60729 0.59211 0.13329 0.0
N298 N 0.53415 0.55177 0.13003 0.0
H299 H 0.74217 0.57759 0.13349 0.0
C300 C 0.24496 0.64405 0.1342 0.0
O301 O 0.28534 0.62843 0.15205 0.0
O302 O 0.79096 0.62343 0.1358 0.0
H303 H 0.46608 0.60296 0.13406 0.0
H304 H 0.73222 0.69452 0.15074 0.0
H305 H 0.39978 0.56638 0.13016 0.0
Zn306 Zn 0.84185 0.41016 0.13613 0.0
C307 C 0.02167 0.39287 0.06039 0.0
N308 N 0.9489 0.39563 0.03811 0.0
C309 C 0.8777 0.39803 0.06105 0.0
N310 N 0.90558 0.39723 0.09557 0.0
N311 N 0.99672 0.39328 0.09518 0.0
C312 C 0.24412 0.38943 0.12627 0.0
O313 O 0.20056 0.4079 0.12422 0.0
O314 O 0.69932 0.40772 0.12981 0.0
Zn315 Zn 0.05208 0.37583 0.1324 0.0
N316 N 0.8796 0.43992 0.13498 0.0
C317 C 0.01054 0.46364 0.1346 0.0
C318 C 0.97425 0.44301 0.13565 0.0
C319 C 0.81913 0.4568 0.13402 0.0
N320 N 0.95065 0.48049 0.13335 0.0
C321 C 0.85582 0.47766 0.1331 0.0
O322 O 0.03101 0.38735 0.18178 0.0
C323 C 0.96294 0.39453 0.20024 0.0
O324 O 0.8853 0.40064 0.18622 0.0
H325 H 0.02124 0.42946 0.13707 0.0
H326 H 0.74395 0.45406 0.13383 0.0
C327 C 0.01746 0.32878 0.12833 0.0
C328 C 0.95522 0.31123 0.12959 0.0
C329 C 0.82677 0.33482 0.13714 0.0
C330 C 0.88814 0.35208 0.13659 0.0
N331 N 0.982 0.34893 0.13184 0.0
N332 N 0.86166 0.31482 0.13387 0.0
H333 H 0.09245 0.32642 0.1253 0.0
C334 C 0.65075 0.39292 0.14408 0.0
O335 O 0.69209 0.37866 0.16458 0.0
O336 O 0.19491 0.37245 0.12794 0.0
H337 H 0.86101 0.36798 0.14019 0.0
H338 H 0.08576 0.46626 0.1349 0.0
H339 H 0.75203 0.33725 0.14068 0.0
Zn340 Zn 0.1535 0.41058 0.4168 0.0
C341 C 0.97536 0.39421 0.4938 0.0
N342 N 0.04879 0.39753 0.51554 0.0
C343 C 0.11917 0.39959 0.49211 0.0
N344 N 0.09025 0.39802 0.45784 0.0
N345 N -0.00074 0.39396 0.45885 0.0
C346 C 0.75138 0.38977 0.42773 0.0
O347 O 0.79466 0.40826 0.42977 0.0
O348 O 0.29633 0.40789 0.42288 0.0
Zn349 Zn 0.94358 0.37647 0.42182 0.0
N350 N 0.11622 0.44036 0.41778 0.0
C351 C 0.9849 0.46401 0.41774 0.0
C352 C 0.02154 0.44341 0.41675 0.0
C353 C 0.17643 0.45725 0.41915 0.0
N354 N 0.0445 0.48087 0.41934 0.0
C355 C 0.13937 0.47809 0.41998 0.0
O356 O 0.96236 0.38816 0.37231 0.0
C357 C 0.0302 0.39506 0.35339 0.0
O358 O 0.10861 0.40097 0.36695 0.0
H359 H 0.97479 0.42984 0.41513 0.0
H360 H 0.25164 0.45454 0.4197 0.0
C361 C 0.9824 0.3295 0.42563 0.0
C362 C 0.04606 0.31222 0.42357 0.0
C363 C 0.1717 0.33635 0.41454 0.0
C364 C 0.10891 0.35334 0.41584 0.0
N365 N 0.01576 0.3498 0.42172 0.0
N366 N 0.13887 0.31621 0.41818 0.0
H367 H 0.90789 0.32681 0.42947 0.0
C368 C 0.34522 0.39343 0.40783 0.0
O369 O 0.30429 0.37971 0.38632 0.0
O370 O 0.8009 0.37281 0.42647 0.0
H371 H 0.13449 0.36935 0.41207 0.0
H372 H 0.90966 0.4666 0.41714 0.0
H373 H 0.24586 0.33909 0.4101 0.0
Zn374 Zn 0.54842 0.65736 0.42016 0.0
C375 C 0.37117 0.63742 0.49151 0.0
N376 N 0.44073 0.64059 0.51503 0.0
C377 C 0.51492 0.64267 0.49339 0.0
N378 N 0.49218 0.64105 0.45841 0.0
N379 N 0.40109 0.63714 0.45733 0.0
C380 C 0.1464 0.63949 0.40916 0.0
O381 O 0.18669 0.65343 0.38786 0.0
O382 O 0.6915 0.66053 0.42461 0.0
Zn383 Zn 0.33888 0.62284 0.41777 0.0
N384 N 0.47819 0.68425 0.41875 0.0
C385 C 0.32319 0.69792 0.40962 0.0
C386 C 0.38545 0.68085 0.4117 0.0
C387 C 0.51163 0.70448 0.42347 0.0
N388 N 0.3561 0.718 0.41406 0.0
C389 C 0.44846 0.72184 0.42085 0.0
O390 O 0.38108 0.63139 0.36721 0.0
C391 C 0.45849 0.63733 0.35301 0.0
O392 O 0.52656 0.64486 0.37126 0.0
H393 H 0.35981 0.66486 0.40773 0.0
H394 H 0.58572 0.70705 0.42862 0.0
C395 C 0.32125 0.57614 0.42153 0.0
C396 C 0.3602 0.5555 0.42363 0.0
C397 C 0.51323 0.5704 0.42511 0.0
C398 C 0.47476 0.59079 0.42263 0.0
N399 N 0.3798 0.59335 0.42131 0.0
N400 N 0.45523 0.55323 0.42547 0.0
H401 H 0.24588 0.57845 0.41986 0.0
C402 C 0.7403 0.64361 0.42883 0.0
O403 O 0.69638 0.6254 0.4338 0.0
O404 O 0.19601 0.62499 0.42397 0.0
H405 H 0.52038 0.60457 0.42157 0.0
H406 H 0.24933 0.69528 0.40421 0.0
H407 H 0.58866 0.56822 0.42642 0.0
Zn408 Zn 0.55451 0.37591 0.92249 0.0
C409 C 0.37591 0.39879 0.99216 0.0
N410 N 0.4469 0.39701 1.01553 0.0
C411 C 0.51958 0.39332 0.99385 0.0
N412 N 0.4945 0.39264 0.95903 0.0
N413 N 0.40343 0.39666 0.95778 0.0
C414 C 0.15507 0.39242 0.92464 0.0
O415 O 0.20137 0.37492 0.93248 0.0
O416 O 0.69555 0.37337 0.9321 0.0
Zn417 Zn 0.34547 0.4108 0.9165 0.0
N418 N 0.48534 0.34895 0.92088 0.0
C419 C 0.33181 0.33543 0.90853 0.0
C420 C 0.39386 0.35244 0.91185 0.0
C421 C 0.51801 0.32868 0.92621 0.0
N422 N 0.36387 0.31533 0.91363 0.0
C423 C 0.45508 0.31138 0.92234 0.0
O424 O 0.39538 0.40219 0.86699 0.0
C425 C 0.47267 0.39555 0.85361 0.0
O426 O 0.53845 0.38765 0.87266 0.0
H427 H 0.36945 0.36845 0.90685 0.0
H428 H 0.59151 0.32603 0.93245 0.0
C429 C 0.32843 0.45751 0.92076 0.0
C430 C 0.36785 0.47809 0.92284 0.0
C431 C 0.52058 0.46297 0.92386 0.0
C432 C 0.48164 0.44264 0.92132 0.0
N433 N 0.38662 0.44023 0.92025 0.0
N434 N 0.46296 0.48022 0.92445 0.0
H435 H 0.253 0.45531 0.91925 0.0
C436 C 0.7464 0.38826 0.91916 0.0
O437 O 0.70579 0.40389 0.90139 0.0
O438 O 0.20085 0.40931 0.91702 0.0
H439 H 0.52697 0.4288 0.92013 0.0
H440 H 0.25904 0.3381 0.90126 0.0
H441 H 0.59609 0.46504 0.92502 0.0
Zn442 Zn 0.94213 0.65677 0.92048 0.0
C443 C 0.11221 0.63254 0.99195 0.0
N444 N 0.03961 0.63411 1.01447 0.0
C445 C 0.96807 0.63774 0.99194 0.0
N446 N 0.99523 0.63877 0.95741 0.0
N447 N 0.08634 0.63476 0.95737 0.0
C448 C 0.34426 0.63892 0.90246 0.0
O449 O 0.30406 0.64878 0.87537 0.0
O450 O 0.79939 0.66097 0.92485 0.0
Zn451 Zn 0.15298 0.62305 0.91634 0.0
N452 N 0.01651 0.68312 0.9213 0.0
C453 C 0.17348 0.69628 0.91617 0.0
C454 C 0.11004 0.67941 0.9165 0.0
C455 C 0.9836 0.70346 0.92512 0.0
N456 N 0.14105 0.71647 0.9197 0.0
C457 C 0.04795 0.72062 0.92404 0.0
O458 O 0.1075 0.63246 0.86629 0.0
C459 C 0.02935 0.63831 0.85236 0.0
O460 O 0.96111 0.64527 0.87098 0.0
H461 H 0.13557 0.6634 0.91264 0.0
H462 H 0.90893 0.70629 0.92818 0.0
C463 C 0.18137 0.57633 0.91843 0.0
C464 C 0.14577 0.55535 0.91853 0.0
C465 C 0.99055 0.5689 0.91455 0.0
C466 C 0.02572 0.58962 0.91426 0.0
N467 N 0.11998 0.59301 0.91658 0.0
N468 N 0.05124 0.55225 0.91668 0.0
H469 H 0.25629 0.57931 0.91991 0.0
C470 C 0.74956 0.64409 0.92266 0.0
O471 O 0.79263 0.62555 0.92106 0.0
O472 O 0.29505 0.62709 0.92291 0.0
H473 H 0.97816 0.60304 0.91206 0.0
H474 H 0.24789 0.69338 0.91255 0.0
H475 H 0.91559 0.56606 0.91293 0.0
Zn476 Zn 0.84059 0.624 0.63487 0.0
C477 C 0.01558 0.64378 0.55876 0.0
N478 N 0.94102 0.64166 0.53718 0.0
C479 C 0.87197 0.63837 0.56075 0.0
N480 N 0.90258 0.63799 0.59489 0.0
N481 N 0.99357 0.64204 0.59377 0.0
C482 C 0.24196 0.64502 0.62337 0.0
O483 O 0.19801 0.62676 0.61904 0.0
O484 O 0.69755 0.62643 0.62883 0.0
Zn485 Zn 0.05013 0.65874 0.63156 0.0
N486 N 0.8797 0.59435 0.6317 0.0
C487 C 0.012 0.57107 0.62832 0.0
C488 C 0.97452 0.59155 0.63061 0.0
C489 C 0.82029 0.57728 0.63135 0.0
N490 N 0.95318 0.55404 0.62784 0.0
C491 C 0.85825 0.55654 0.62939 0.0
O492 O 0.0299 0.64645 0.6806 0.0
C493 C 0.9627 0.63887 0.69913 0.0
O494 O 0.88507 0.6327 0.68523 0.0
H495 H 0.0208 0.60522 0.63165 0.0
H496 H 0.74503 0.57977 0.63274 0.0
C497 C 0.01271 0.7059 0.62889 0.0
C498 C 0.94919 0.72319 0.63152 0.0
C499 C 0.82385 0.69903 0.64107 0.0
C500 C 0.88647 0.68203 0.63909 0.0
N501 N 0.97936 0.68558 0.63269 0.0
N502 N 0.85663 0.71918 0.63748 0.0
H503 H 0.08704 0.70859 0.6246 0.0
C504 C 0.64825 0.64096 0.6435 0.0
O505 O 0.68886 0.6549 0.66469 0.0
O506 O 0.19315 0.66198 0.62695 0.0
H507 H 0.861 0.666 0.64272 0.0
H508 H 0.08733 0.5687 0.62721 0.0
H509 H 0.74987 0.69628 0.64592 0.0
Zn510 Zn 0.65462 0.41151 0.6359 0.0
C511 C 0.47575 0.39325 0.55983 0.0
N512 N 0.54917 0.39598 0.53798 0.0
C513 C 0.6195 0.39872 0.56133 0.0
N514 N 0.59068 0.39819 0.59565 0.0
N515 N 0.49969 0.39408 0.59482 0.0
C516 C 0.25281 0.39061 0.62547 0.0
O517 O 0.29649 0.40895 0.62162 0.0
O518 O 0.79726 0.40905 0.6295 0.0
Zn519 Zn 0.44493 0.37705 0.63264 0.0
N520 N 0.61593 0.44122 0.63412 0.0
C521 C 0.48369 0.46461 0.63369 0.0
C522 C 0.52114 0.44408 0.63495 0.0
C523 C 0.67547 0.45825 0.6328 0.0
N524 N 0.54262 0.4816 0.63218 0.0
C525 C 0.6376 0.47902 0.63181 0.0
O526 O 0.46661 0.38905 0.68185 0.0
C527 C 0.53506 0.39626 0.70024 0.0
O528 O 0.61251 0.40224 0.68613 0.0
H529 H 0.47492 0.43042 0.63665 0.0
H530 H 0.75079 0.45569 0.63256 0.0
C531 C 0.4826 0.32993 0.62935 0.0
C532 C 0.54616 0.31262 0.63169 0.0
C533 C 0.67194 0.33671 0.64086 0.0
C534 C 0.60931 0.35373 0.63917 0.0
N535 N 0.51614 0.35023 0.63317 0.0
N536 N 0.63896 0.31658 0.6373 0.0
H537 H 0.40811 0.32727 0.62531 0.0
C538 C 0.84661 0.39463 0.64467 0.0
O539 O 0.80614 0.38089 0.66628 0.0
O540 O 0.30192 0.37365 0.62848 0.0
H541 H 0.63502 0.36975 0.64273 0.0
H542 H 0.40834 0.46704 0.63411 0.0
H543 H 0.7461 0.33943 0.64545 0.0
C544 C 0.61203 0.13355 0.16441 0.0
C545 C 0.65039 0.14541 0.13535 0.0
C546 C 0.48977 0.15578 0.1172 0.0
C547 C 0.45237 0.14164 0.14329 0.0
N548 N 0.47707 0.11505 0.18908 0.0
N549 N 0.62526 0.16729 0.08286 0.0
C550 C 0.51334 0.12993 0.1661 0.0
C551 C 0.5891 0.15654 0.11153 0.0
N552 N 0.66948 0.12679 0.19163 0.0
N553 N 0.43039 0.16891 0.09852 0.0
H554 H 0.69712 0.16918 0.07884 0.0
H555 H 0.58427 0.17336 0.06204 0.0
H556 H 0.35742 0.16836 0.10132 0.0
H557 H 0.45334 0.18138 0.08228 0.0
H558 H 0.64453 0.11992 0.2152 0.0
H559 H 0.74119 0.13027 0.19264 0.0
H560 H 0.51859 0.1043 0.20344 0.0
H561 H 0.40503 0.11222 0.19158 0.0
C562 C 0.00337 0.87373 0.14749 0.0
C563 C 0.04626 0.8911 0.12917 0.0
C564 C 0.88963 0.90587 0.11572 0.0
C565 C 0.84703 0.88757 0.13144 0.0
N566 N 0.86333 0.85259 0.15804 0.0
N567 N 0.03021 0.92231 0.09159 0.0
C568 C 0.90399 0.87095 0.14565 0.0
C569 C 0.98937 0.90683 0.11219 0.0
N570 N 0.05694 0.86074 0.16887 0.0
N571 N 0.83478 0.92258 0.10459 0.0
H572 H 0.10267 0.9241 0.08922 0.0
H573 H 0.99252 0.93244 0.07468 0.0
H574 H 0.76153 0.9221 0.10454 0.0
H575 H 0.86152 0.93742 0.09728 0.0
H576 H 0.02888 0.84919 0.18586 0.0
H577 H 0.12891 0.86299 0.17277 0.0
H578 H 0.90162 0.83893 0.16453 0.0
H579 H 0.79081 0.85035 0.15946 0.0
C580 C -0.00188 0.89035 0.43242 0.0
C581 C 0.94676 0.88991 0.39988 0.0
C582 C 0.0949 0.88241 0.36814 0.0
C583 C 0.14639 0.88593 0.4003 0.0
N584 N 0.14458 0.90024 0.46005 0.0
N585 N 0.95153 0.88985 0.33507 0.0
C586 C 0.09749 0.89175 0.43166 0.0
C587 C 0.9965 0.88705 0.36715 0.0
N588 N 0.95324 0.88811 0.46433 0.0
N589 N 0.13933 0.87429 0.33875 0.0
H590 H 0.88122 0.89445 0.33307 0.0
H591 H 0.98659 0.88991 0.31058 0.0
H592 H 0.21063 0.87032 0.33878 0.0
H593 H 0.10354 0.86952 0.31571 0.0
H594 H 0.99051 0.88533 0.48794 0.0
H595 H 0.88087 0.88594 0.46618 0.0
H596 H 0.10903 0.90762 0.48094 0.0
H597 H 0.21708 0.90262 0.46018 0.0
C598 C 0.49049 0.12289 0.43185 0.0
C599 C 0.54292 0.14219 0.43052 0.0
C600 C 0.3951 0.16166 0.43998 0.0
C601 C 0.34197 0.14282 0.43341 0.0
N602 N 0.34885 0.10655 0.41008 0.0
N603 N 0.53401 0.18061 0.42173 0.0
C604 C 0.39213 0.12366 0.42561 0.0
C605 C 0.49231 0.16184 0.43131 0.0
N606 N 0.53216 0.10389 0.44026 0.0
N607 N 0.35527 0.1792 0.45539 0.0
H608 H 0.60053 0.18136 0.41022 0.0
H609 H 0.49671 0.19493 0.4201 0.0
H610 H 0.28686 0.17942 0.46523 0.0
H611 H 0.39486 0.19253 0.4627 0.0
H612 H 0.49337 0.08989 0.44354 0.0
H613 H 0.60166 0.10262 0.44884 0.0
H614 H 0.38597 0.09291 0.4025 0.0
H615 H 0.28086 0.10713 0.39968 0.0
C616 C 0.39005 0.90514 0.94104 0.0
C617 C 0.34673 0.88727 0.9243 0.0
C618 C 0.5023 0.87345 0.90762 0.0
C619 C 0.54598 0.89039 0.92674 0.0
N620 N 0.53175 0.92097 0.96562 0.0
N621 N 0.36135 0.85283 0.89591 0.0
C622 C 0.48992 0.90591 0.94446 0.0
C623 C 0.40286 0.87084 0.90926 0.0
N624 N 0.33566 0.92157 0.95337 0.0
N625 N 0.55515 0.86074 0.88568 0.0
H626 H 0.28873 0.85078 0.89425 0.0
H627 H 0.39898 0.83922 0.88882 0.0
H628 H 0.62722 0.86286 0.88196 0.0
H629 H 0.52647 0.8496 0.86812 0.0
H630 H 0.36256 0.93622 0.9616 0.0
H631 H 0.2624 0.92109 0.95364 0.0
H632 H 0.49494 0.93105 0.98274 0.0
H633 H 0.6043 0.92249 0.96824 0.0
C634 C 0.08927 0.16032 0.90567 0.0
C635 C 0.14463 0.14447 0.92297 0.0
C636 C 0.00043 0.12649 0.9436 0.0
C637 C 0.94528 0.14132 0.92371 0.0
N638 N 0.93829 0.1695 0.87958 0.0
N639 N 0.15414 0.11114 0.95538 0.0
C640 C 0.98997 0.15759 0.90329 0.0
C641 C 0.10044 0.12715 0.94102 0.0
N642 N 0.13142 0.17787 0.89094 0.0
N643 N 0.95757 0.11222 0.966 0.0
H644 H 0.22737 0.11157 0.95593 0.0
H645 H 0.12671 0.09682 0.96493 0.0
H646 H 0.88493 0.11079 0.96808 0.0
H647 H 0.99351 0.10281 0.98454 0.0
H648 H 0.09412 0.19118 0.88205 0.0
H649 H 0.2041 0.17991 0.88986 0.0
H650 H 0.9679 0.18004 0.86118 0.0
H651 H 0.86641 0.16725 0.8754 0.0
C652 C 0.89351 0.12381 0.62559 0.0
C653 C 0.84279 0.14315 0.61957 0.0
C654 C 0.99281 0.16223 0.62261 0.0
C655 C 0.04377 0.14263 0.62176 0.0
N656 N 0.03343 0.10468 0.6089 0.0
N657 N 0.85479 0.1801 0.60008 0.0
C658 C 0.99166 0.12334 0.61898 0.0
C659 C 0.89538 0.16219 0.61418 0.0
N660 N 0.85107 0.10617 0.63977 0.0
N661 N 0.03438 0.18074 0.63355 0.0
H662 H 0.78623 0.18047 0.59025 0.0
H663 H 0.8939 0.19366 0.59368 0.0
H664 H 0.10113 0.18123 0.64503 0.0
H665 H 0.99681 0.19495 0.63631 0.0
H666 H 0.8887 0.09235 0.64608 0.0
H667 H 0.78342 0.10634 0.6504 0.0
H668 H 0.99482 0.09075 0.60458 0.0
H669 H 0.10269 0.10376 0.60004 0.0
C670 C 0.50012 0.87328 0.62166 0.0
C671 C 0.44963 0.89291 0.62321 0.0
C672 C 0.59963 0.91124 0.63181 0.0
C673 C 0.65066 0.89228 0.62343 0.0
N674 N 0.63962 0.85645 0.59869 0.0
N675 N 0.46105 0.93137 0.6164 0.0
C676 C 0.59827 0.87363 0.61466 0.0
C677 C 0.50207 0.91219 0.62407 0.0
N678 N 0.45711 0.8543 0.62891 0.0
N679 N 0.64111 0.92792 0.64923 0.0
H680 H 0.39246 0.93278 0.60678 0.0
H681 H 0.4999 0.94547 0.6148 0.0
H682 H 0.70782 0.92701 0.66074 0.0
H683 H 0.60321 0.94138 0.65713 0.0
H684 H 0.49406 0.83992 0.63017 0.0
H685 H 0.38901 0.85328 0.63885 0.0
H686 H 0.60073 0.84338 0.58972 0.0
H687 H 0.70903 0.85634 0.58998 0.0
C688 C 0.9959 0.62623 0.10942 0.0
C689 C 0.94135 0.64094 0.12962 0.0
C690 C 0.08591 0.65975 0.14768 0.0
C691 C 0.14073 0.64402 0.13005 0.0
N692 N 0.14926 0.61097 0.09707 0.0
N693 N 0.9356 0.66882 0.17411 0.0
C694 C 0.09599 0.62686 0.11181 0.0
C695 C 0.98665 0.65704 0.15018 0.0
N696 N 0.95236 0.61214 0.08693 0.0
N697 N 0.12856 0.67717 0.16261 0.0
H698 H 0.8638 0.66657 0.17834 0.0
H699 H 0.96571 0.67921 0.19261 0.0
H700 H 0.20127 0.67918 0.16363 0.0
H701 H 0.09158 0.69043 0.17177 0.0
H702 H 0.98773 0.60283 0.06822 0.0
H703 H 0.87965 0.61074 0.08497 0.0
H704 H 0.12156 0.59673 0.08734 0.0
H705 H 0.22247 0.6114 0.09636 0.0
C706 C 0.38912 0.40284 0.1577 0.0
C707 C 0.34852 0.38903 0.13166 0.0
C708 C 0.50723 0.37636 0.11584 0.0
C709 C 0.54714 0.39202 0.13874 0.0
N710 N 0.52683 0.42217 0.17802 0.0
N711 N 0.36991 0.36379 0.08353 0.0
C712 C 0.48823 0.40595 0.15844 0.0
C713 C 0.40783 0.37598 0.11019 0.0
N714 N 0.33356 0.41189 0.18342 0.0
N715 N 0.56429 0.36164 0.09982 0.0
H716 H 0.29782 0.36237 0.07938 0.0
H717 H 0.40988 0.35617 0.064 0.0
H718 H 0.63744 0.36199 0.10202 0.0
H719 H 0.53917 0.34827 0.08632 0.0
H720 H 0.36022 0.42038 0.20516 0.0
H721 H 0.26167 0.40884 0.18558 0.0
H722 H 0.48698 0.43433 0.18948 0.0
H723 H 0.59922 0.42449 0.18051 0.0
C724 C 0.60749 0.40319 0.39535 0.0
C725 C 0.64719 0.38935 0.42165 0.0
C726 C 0.48802 0.3765 0.43625 0.0
C727 C 0.44877 0.39236 0.41343 0.0
N728 N 0.47047 0.42265 0.37439 0.0
N729 N 0.62384 0.36397 0.46961 0.0
C730 C 0.50838 0.40634 0.3941 0.0
C731 C 0.5871 0.37619 0.44265 0.0
N732 N 0.66394 0.41227 0.36989 0.0
N733 N 0.43076 0.36149 0.45138 0.0
H734 H 0.6957 0.36269 0.47446 0.0
H735 H 0.58283 0.35624 0.48874 0.0
H736 H 0.35776 0.36172 0.44856 0.0
H737 H 0.45593 0.34797 0.46457 0.0
H738 H 0.63801 0.42079 0.34799 0.0
H739 H 0.73588 0.40917 0.36809 0.0
H740 H 0.51076 0.4348 0.3631 0.0
H741 H 0.39815 0.42501 0.37162 0.0
C742 C 0.98339 0.62542 0.39812 0.0
C743 C 0.04293 0.64051 0.41504 0.0
C744 C 0.90457 0.65774 0.44215 0.0
C745 C 0.84452 0.64356 0.4231 0.0
N746 N 0.82755 0.61794 0.37518 0.0
N747 N 0.06047 0.67309 0.44867 0.0
C748 C 0.88417 0.62843 0.39905 0.0
C749 C 0.00351 0.65732 0.43566 0.0
N750 N 0.0214 0.60825 0.38081 0.0
N751 N 0.86789 0.67108 0.46744 0.0
H752 H 0.1334 0.67291 0.44576 0.0
H753 H 0.03514 0.68708 0.46021 0.0
H754 H 0.79609 0.67235 0.47232 0.0
H755 H 0.90891 0.67975 0.48542 0.0
H756 H 0.98135 0.59543 0.37172 0.0
H757 H 0.09366 0.60598 0.37789 0.0
H758 H 0.85334 0.60834 0.35466 0.0
H759 H 0.75545 0.62076 0.373 0.0
C760 C 0.99529 0.40652 0.9433 0.0
C761 C 0.05006 0.39185 0.92311 0.0
C762 C 0.90576 0.37273 0.90553 0.0
C763 C 0.85069 0.38838 0.92326 0.0
N764 N 0.8415 0.4214 0.95626 0.0
N765 N 0.05592 0.36391 0.87874 0.0
C766 C 0.89515 0.40564 0.94131 0.0
C767 C 0.0049 0.37563 0.90276 0.0
N768 N 0.03868 0.42086 0.9654 0.0
N769 N 0.86347 0.35522 0.89078 0.0
H770 H 0.12753 0.36631 0.87427 0.0
H771 H 0.02588 0.35342 0.86038 0.0
H772 H 0.79083 0.35306 0.89003 0.0
H773 H 0.90074 0.34202 0.88156 0.0
H774 H 0.00334 0.43004 0.98428 0.0
H775 H 0.11131 0.42263 0.96678 0.0
H776 H 0.86868 0.43574 0.96579 0.0
H777 H 0.76835 0.42074 0.95742 0.0
C778 C 0.50928 0.62984 0.88436 0.0
C779 C 0.44769 0.64078 0.90781 0.0
C780 C 0.58381 0.65536 0.94059 0.0
C781 C 0.64554 0.64495 0.91625 0.0
N782 N 0.66556 0.62768 0.85899 0.0
N783 N 0.42441 0.66695 0.9541 0.0
C784 C 0.60776 0.6337 0.88643 0.0
C785 C 0.48444 0.6544 0.9348 0.0
N786 N 0.47391 0.6153 0.8606 0.0
N787 N 0.61969 0.66566 0.96977 0.0
H788 H 0.3515 0.66634 0.951 0.0
H789 H 0.4467 0.67907 0.97115 0.0
H790 H 0.69151 0.66768 0.97388 0.0
H791 H 0.57869 0.67128 0.99082 0.0
H792 H 0.51608 0.60505 0.84567 0.0
H793 H 0.40212 0.61216 0.85803 0.0
H794 H 0.64095 0.62133 0.83496 0.0
H795 H 0.73718 0.6313 0.85841 0.0
C796 C 0.48517 0.62714 0.65509 0.0
C797 C 0.5447 0.64199 0.63759 0.0
C798 C 0.40625 0.65895 0.60967 0.0
C799 C 0.34622 0.64502 0.62924 0.0
N800 N 0.32942 0.61999 0.67818 0.0
N801 N 0.56218 0.67418 0.60274 0.0
C802 C 0.38595 0.63018 0.65395 0.0
C803 C 0.50523 0.65857 0.61628 0.0
N804 N 0.52321 0.61017 0.6731 0.0
N805 N 0.3695 0.67198 0.5838 0.0
H806 H 0.6351 0.67403 0.60579 0.0
H807 H 0.53682 0.68804 0.59064 0.0
H808 H 0.29766 0.67324 0.57883 0.0
H809 H 0.4105 0.6804 0.56549 0.0
H810 H 0.48313 0.59748 0.68272 0.0
H811 H 0.5955 0.60788 0.67609 0.0
H812 H 0.3553 0.61064 0.69911 0.0
H813 H 0.25735 0.62286 0.68016 0.0
C814 C 0.10876 0.40532 0.6558 0.0
C815 C 0.14857 0.39049 0.63126 0.0
C816 C 0.98955 0.37696 0.61803 0.0
C817 C 0.9501 0.39359 0.63901 0.0
N818 N 0.97157 0.42542 0.67431 0.0
N819 N 0.1252 0.36346 0.58603 0.0
C820 C 0.00959 0.40841 0.65658 0.0
C821 C 0.08855 0.37654 0.6117 0.0
N822 N 0.16513 0.41542 0.68023 0.0
N823 N 0.93257 0.36135 0.60452 0.0
H824 H 0.197 0.36215 0.58121 0.0
H825 H 0.08407 0.35505 0.56775 0.0
H826 H 0.85954 0.36164 0.60705 0.0
H827 H 0.95801 0.34738 0.59296 0.0
H828 H 0.13911 0.42477 0.70101 0.0
H829 H 0.23708 0.41244 0.68255 0.0
H830 H 0.01173 0.43808 0.68399 0.0
H831 H 0.89927 0.42777 0.67696 0.0
C832 C 0.24672 0.15479 0.03666 0.0
C833 C 0.21315 0.13438 0.04741 0.0
C834 C 0.34225 0.11684 1.01631 0.0
C835 C 0.37806 0.13727 1.00697 0.0
N836 N 0.3737 0.17557 1.01078 0.0
N837 N 0.22726 0.09618 0.04971 0.0
C838 C 0.33268 0.15625 1.01771 0.0
C839 C 0.26071 0.11543 0.03796 0.0
N840 N 0.19465 0.17269 0.04366 0.0
N841 N 0.3855 0.09886 1.0036 0.0
H842 H 0.16512 0.09473 0.0643 0.0
H843 H 0.26254 0.08174 0.04686 0.0
H844 H 0.44594 0.09936 0.98789 0.0
H845 H 0.35923 0.08347 1.00649 0.0
H846 H 0.20895 0.18766 0.03284 0.0
H847 H 0.13356 0.17247 0.05905 0.0
H848 H 0.35049 0.18996 1.02151 0.0
H849 H 0.43486 0.17714 0.99559 0.0
C850 C 0.23489 0.91756 0.03525 0.0
C851 C 0.28081 0.89892 0.04748 0.0
C852 C 0.16377 0.87615 1.01824 0.0
C853 C 0.11649 0.89478 1.00684 0.0
N854 N 0.09904 0.93314 1.00593 0.0
N855 N 0.30229 0.8606 0.04556 0.0
C856 C 0.15047 0.9155 1.01537 0.0
C857 C 0.24895 0.87821 0.0376 0.0
N858 N 0.27404 0.93715 0.04175 0.0
N859 N 0.12459 0.85656 1.01191 0.0
H860 H 0.36316 0.86119 0.06115 0.0
H861 H 0.28948 0.84546 0.03525 0.0
H862 H 0.06442 0.85452 0.99619 0.0
H863 H 0.14848 0.84242 1.02345 0.0
H864 H 0.251 0.95131 0.03007 0.0
H865 H 0.3336 0.93922 0.05778 0.0
H866 H 0.11301 0.94853 1.01487 0.0
H867 H 0.03833 0.93231 0.99032 0.0
C868 C 0.75275 0.87922 0.51975 0.0
C869 C 0.71334 0.89884 0.50771 0.0
C870 C 0.83455 0.91887 0.53964 0.0
C871 C 0.87729 0.89928 0.5499 0.0
N872 N 0.88483 0.86092 0.54761 0.0
N873 N 0.71597 0.93713 0.50407 0.0
C874 C 0.83808 0.87943 0.53968 0.0
C875 C 0.75432 0.91862 0.51696 0.0
N876 N 0.70756 0.86043 0.51244 0.0
N877 N 0.86929 0.93766 0.55288 0.0
H878 H 0.65393 0.93746 0.48913 0.0
H879 H 0.74793 0.95199 0.50621 0.0
H880 H 0.92723 0.93832 0.57004 0.0
H881 H 0.83722 0.95244 0.54942 0.0
H882 H 0.72635 0.84578 0.52352 0.0
H883 H 0.64772 0.85954 0.49628 0.0
H884 H 0.8666 0.84605 0.5374 0.0
H885 H 0.94552 0.86054 0.56332 0.0
C886 C 0.71889 0.11758 0.51329 0.0
C887 C 0.77188 0.13596 0.50504 0.0
C888 C 0.65742 0.159 0.53501 0.0
C889 C 0.60709 0.14051 0.54484 0.0
N890 N 0.58942 0.10216 0.54656 0.0
N891 N 0.80057 0.17389 0.5106 0.0
C892 C 0.63747 0.11975 0.53472 0.0
C893 C 0.74381 0.15662 0.51673 0.0
N894 N 0.74683 0.09816 0.50047 0.0
N895 N 0.62094 0.17874 0.54224 0.0
H896 H 0.86135 0.17317 0.49507 0.0
H897 H 0.78986 0.18885 0.52196 0.0
H898 H 0.55959 0.18093 0.55711 0.0
H899 H 0.64827 0.19292 0.53209 0.0
H900 H 0.70684 0.0843 0.50217 0.0
H901 H 0.80862 0.09612 0.48589 0.0
H902 H 0.61199 0.08651 0.54313 0.0
H903 H 0.52893 0.10315 0.56219 0.0
C904 C 0.74146 0.91696 1.02163 0.0
C905 C 0.78034 0.89774 1.00857 0.0
C906 C 0.65662 0.87674 0.03738 0.0
C907 C 0.61633 0.896 0.04955 0.0
N908 N 0.61184 0.93452 0.05142 0.0
N909 N 0.78855 0.85919 1.00906 0.0
C910 C 0.65697 0.91614 0.04151 0.0
C911 C 0.74162 0.87755 1.0178 0.0
N912 N 0.78776 0.93584 1.01626 0.0
N913 N 0.61094 0.85782 0.04314 0.0
H914 H 0.84888 0.85898 0.99322 0.0
H915 H 0.77086 0.84416 1.01886 0.0
H916 H 0.55066 0.85662 0.05891 0.0
H917 H 0.62959 0.84347 0.03106 0.0
H918 H 0.77089 0.94996 0.02936 0.0
H919 H 0.84729 0.93716 1.0001 0.0
H920 H 0.63045 0.94967 0.04246 0.0
H921 H 0.5518 0.93459 0.06738 0.0
C922 C 0.75338 0.11567 1.02122 0.0
C923 C 0.71431 0.13426 1.00581 0.0
C924 C 0.84058 0.1562 0.03065 0.0
C925 C 0.87662 0.13781 0.04776 0.0
N926 N 0.86644 0.1004 0.06263 0.0
N927 N 0.70808 0.17276 1.00095 0.0
C928 C 0.83227 0.11764 0.04419 0.0
C929 C 0.7546 0.15471 1.01172 0.0
N930 N 0.71624 0.09615 1.01289 0.0
N931 N 0.8894 0.17499 0.03211 0.0
H932 H 0.64504 0.17244 0.98665 0.0
H933 H 0.72833 0.18811 1.00831 0.0
H934 H 0.94943 0.17699 0.04793 0.0
H935 H 0.87323 0.18823 1.01632 0.0
H936 H 0.74636 0.08166 1.02035 0.0
H937 H 0.65834 0.09437 0.99591 0.0
H938 H 0.83264 0.0857 0.0641 0.0
H939 H 0.92624 0.1012 0.07872 0.0
C940 C 0.14492 0.11854 0.51843 0.0
C941 C 0.1061 0.13855 0.50816 0.0
C942 C 0.23562 0.15755 0.53626 0.0
C943 C 0.27236 0.13757 0.54791 0.0
N944 N 0.2638 0.09936 0.55242 0.0
N945 N 0.10414 0.17694 0.51041 0.0
C946 C 0.22722 0.11813 0.5398 0.0
C947 C 0.14864 0.15806 0.51783 0.0
N948 N 0.10437 0.10003 0.50652 0.0
N949 N 0.28477 0.17595 0.5427 0.0
H950 H 0.04185 0.17782 0.49564 0.0
H951 H 0.12576 0.19167 0.52031 0.0
H952 H 0.34545 0.17644 0.55847 0.0
H953 H 0.26783 0.19068 0.53146 0.0
H954 H 0.13298 0.08491 0.51021 0.0
H955 H 0.04418 0.09978 0.49049 0.0
H956 H 0.22954 0.08473 0.55095 0.0
H957 H 0.3272 0.09859 0.56645 0.0
C958 C 0.32251 0.87823 0.5161 0.0
C959 C 0.37548 0.89636 0.50624 0.0
C960 C 0.26755 0.91978 0.53914 0.0
C961 C 0.21259 0.90175 0.548 0.0
N962 N 0.17698 0.86426 0.54002 0.0
N963 N 0.39444 0.93458 0.50357 0.0
C964 C 0.23678 0.88109 0.53493 0.0
C965 C 0.34664 0.91722 0.51637 0.0
N966 N 0.35603 0.85828 0.50857 0.0
N967 N 0.24434 0.93929 0.55288 0.0
H968 H 0.45316 0.93324 0.48706 0.0
H969 H 0.3725 0.95029 0.50689 0.0
H970 H 0.18441 0.94172 0.56838 0.0
H971 H 0.28694 0.95274 0.55105 0.0
H972 H 0.32716 0.84431 0.51894 0.0
H973 H 0.41652 0.85574 0.49336 0.0
H974 H 0.18465 0.84959 0.52728 0.0
H975 H 0.11639 0.8652 0.55558 0.0
C976 C 0.74809 0.61554 0.0316 0.0
C977 C 0.7103 0.63411 0.04738 0.0
C978 C 0.83682 0.65591 1.02244 0.0
C979 C 0.87159 0.63756 1.005 0.0
N980 N 0.85897 0.6003 0.98963 0.0
N981 N 0.70573 0.67259 0.05249 0.0
C982 C 0.82629 0.61748 1.0084 0.0
C983 C 0.75129 0.6545 0.04155 0.0
N984 N 0.71043 0.59605 0.03981 0.0
N985 N 0.88637 0.6746 1.02108 0.0
H986 H 0.64321 0.67233 0.06701 0.0
H987 H 0.72632 0.68793 0.04513 0.0
H988 H 0.94593 0.67658 1.0051 0.0
H989 H 0.87124 0.68777 0.03708 0.0
H990 H 0.73958 0.58157 0.03198 0.0
H991 H 0.65328 0.59427 0.05707 0.0
H992 H 0.82434 0.58571 0.98801 0.0
H993 H 0.91824 0.60107 0.97337 0.0
C994 C 0.65174 0.41456 1.0173 0.0
C995 C 0.61544 0.39421 1.00777 0.0
C996 C 0.74599 0.37638 0.03781 0.0
C997 C 0.78077 0.39671 0.04829 0.0
N998 N 0.76797 0.43492 0.05064 0.0
N999 N 0.61786 0.3559 1.01196 0.0
C1000 C 0.73364 0.41576 0.03892 0.0
C1001 C 0.65987 0.37512 1.01876 0.0
N1002 N 0.60859 0.43266 1.00482 0.0
N1003 N 0.79711 0.35836 0.04516 0.0
H1004 H 0.55659 0.35447 0.99669 0.0
H1005 H 0.64036 0.34147 1.02289 0.0
H1006 H 0.85816 0.35848 0.06071 0.0
H1007 H 0.78196 0.3434 0.03459 0.0
H1008 H 0.63535 0.448 1.00773 0.0
H1009 H 0.5474 0.43235 0.98942 0.0
H1010 H 0.7329 0.4494 0.04794 0.0
H1011 H 0.83061 0.43622 0.06505 0.0
C1012 C 0.25296 0.37745 0.51245 0.0
C1013 C 0.21649 0.39804 0.50434 0.0
C1014 C 0.34269 0.41502 0.53809 0.0
C1015 C 0.38038 0.39445 0.54549 0.0
N1016 N 0.38106 0.35638 0.5373 0.0
N1017 N 0.22767 0.43627 0.50547 0.0
C1018 C 0.33838 0.37572 0.53188 0.0
C1019 C 0.26194 0.41681 0.51596 0.0
N1020 N 0.20323 0.3596 0.50305 0.0
N1021 N 0.38393 0.43273 0.55269 0.0
H1022 H 0.16705 0.43788 0.48988 0.0
H1023 H 0.26151 0.45072 0.51002 0.0
H1024 H 0.44479 0.43204 0.56825 0.0
H1025 H 0.35573 0.44803 0.55135 0.0
H1026 H 0.22009 0.34422 0.51146 0.0
H1027 H 0.14089 0.36019 0.48835 0.0
H1028 H 0.36029 0.34231 0.52483 0.0
H1029 H 0.44089 0.35453 0.55329 0.0
C1030 C 0.1523 0.66107 0.53044 0.0
C1031 C 0.11004 0.64233 0.54396 0.0
C1032 C 0.23014 0.61994 0.51596 0.0
C1033 C 0.2735 0.63868 0.50299 0.0
N1034 N 0.2839 0.67708 0.49916 0.0
N1035 N 0.09598 0.60387 0.54519 0.0
C1036 C 0.23597 0.65928 0.5101 0.0
C1037 C 0.14554 0.62171 0.5356 0.0
N1038 N 0.11084 0.68047 0.53653 0.0
N1039 N 0.27272 0.60058 0.51092 0.0
H1040 H 0.03526 0.60438 0.56074 0.0
H1041 H 0.11143 0.58856 0.53615 0.0
H1042 H 0.3326 0.59868 0.49512 0.0
H1043 H 0.25211 0.58657 0.52369 0.0
H1044 H 0.13126 0.69466 0.52433 0.0
H1045 H 0.05239 0.68234 0.55311 0.0
H1046 H 0.26675 0.6926 0.50646 0.0
H1047 H 0.34476 0.67636 0.48372 0.0
C1048 C 0.15761 0.4144 0.04131 0.0
C1049 C 0.11742 0.3939 0.04683 0.0
C1050 C 0.24021 0.37717 1.01119 0.0
C1051 C 0.27955 0.39772 1.00507 0.0
N1052 N 0.286 0.4354 1.01707 0.0
N1053 N 0.11042 0.35626 0.03442 0.0
C1054 C 0.24097 0.41622 1.02089 0.0
C1055 C 0.15599 0.37541 0.03106 0.0
N1056 N 0.11243 0.43222 0.05371 0.0
N1057 N 0.28699 0.35926 1.00006 0.0
H1058 H 0.05201 0.35415 0.05096 0.0
H1059 H 0.12733 0.34272 1.01967 0.0
H1060 H 0.34837 0.35977 0.98489 0.0
H1061 H 0.26875 0.34381 1.00761 0.0
H1062 H 0.131 0.44777 0.04698 0.0
H1063 H 0.05201 0.43153 0.06939 0.0
H1064 H 0.26941 0.44903 0.03163 0.0
H1065 H 0.34363 0.4375 1.00013 0.0
C1066 C 0.25684 0.61528 1.01486 0.0
C1067 C 0.2084 0.63418 1.00556 0.0
C1068 C 0.32764 0.65611 0.03544 0.0
C1069 C 0.37386 0.63716 0.04604 0.0
N1070 N 0.3826 0.59875 0.04909 0.0
N1071 N 0.18899 0.67244 1.00932 0.0
C1072 C 0.33862 0.61672 0.03652 0.0
C1073 C 0.24152 0.6546 1.0164 0.0
N1074 N 0.22403 0.59603 1.00294 0.0
N1075 N 0.36803 0.67548 0.04256 0.0
H1076 H 0.12803 0.67219 0.99373 0.0
H1077 H 0.20289 0.68741 1.02016 0.0
H1078 H 0.42928 0.67706 0.0578 0.0
H1079 H 0.34421 0.68988 0.03196 0.0
H1080 H 0.2603 0.58169 1.0055 0.0
H1081 H 0.16155 0.59452 0.98847 0.0
H1082 H 0.3566 0.58334 0.04619 0.0
H1083 H 0.44341 0.59926 0.06471 0.0
C1084 C 0.73475 0.65949 0.54151 0.0
C1085 C 0.77406 0.63911 0.54921 0.0
C1086 C 0.64706 0.62136 0.5171 0.0
C1087 C 0.60974 0.64175 0.50815 0.0
N1088 N 0.60759 0.67994 0.51445 0.0
N1089 N 0.77673 0.60098 0.54198 0.0
C1090 C 0.65069 0.66077 0.52111 0.0
C1091 C 0.73219 0.6201 0.53668 0.0
N1092 N 0.78136 0.67757 0.55194 0.0
N1093 N 0.59878 0.60323 0.50808 0.0
H1094 H 0.83721 0.59943 0.55769 0.0
H1095 H 0.75719 0.58685 0.5294 0.0
H1096 H 0.53776 0.60337 0.49254 0.0
H1097 H 0.61561 0.58808 0.51762 0.0
H1098 H 0.76286 0.69296 0.5442 0.0
H1099 H 0.84243 0.67722 0.56742 0.0
H1100 H 0.62715 0.69432 0.52614 0.0
H1101 H 0.54865 0.68142 0.49788 0.0
C1102 C 0.75624 0.37734 0.54216 0.0
C1103 C 0.71687 0.39774 0.5493 0.0
C1104 C 0.83914 0.41516 0.51429 0.0
C1105 C 0.88003 0.39482 0.50799 0.0
N1106 N 0.8871 0.35694 0.51827 0.0
N1107 N 0.72243 0.43601 0.54635 0.0
C1108 C 0.84146 0.376 0.52271 0.0
C1109 C 0.75909 0.41667 0.53665 0.0
N1110 N 0.70933 0.35927 0.55241 0.0
N1111 N 0.87665 0.43292 0.4984 0.0
H1112 H 0.66235 0.43741 0.56217 0.0
H1113 H 0.7541 0.45062 0.54098 0.0
H1114 H 0.93667 0.43242 0.48247 0.0
H1115 H 0.84579 0.44798 0.49893 0.0
H1116 H 0.72832 0.34392 0.54468 0.0
H1117 H 0.64717 0.35961 0.56713 0.0
H1118 H 0.86882 0.34293 0.53154 0.0
H1119 H 0.94681 0.35531 0.50228 0.0
C1120 C 0.22156 0.026 0.10116 0.0
C1121 C 0.20789 0.03674 0.13422 0.0
C1122 C 0.28654 1.00758 0.1665 0.0
C1123 C 0.30469 0.99741 0.13328 0.0
N1124 N 0.30104 0.99766 0.06872 0.0
N1125 N 0.23598 0.03956 0.19775 0.0
C1126 C 0.27532 1.00682 0.10048 0.0
C1127 C 0.24308 0.02805 0.16674 0.0
N1128 N 0.18137 0.03397 0.07057 0.0
N1129 N 0.30885 0.99736 0.19785 0.0
H1130 H 0.20247 0.05436 0.19908 0.0
H1131 H 0.26889 0.03531 0.22166 0.0
H1132 H 0.34197 0.9825 0.19867 0.0
H1133 H 0.28873 1.00274 0.22306 0.0
H1134 H 0.17903 0.02576 0.04637 0.0
H1135 H 0.14541 0.0485 0.06978 0.0
H1136 H 0.29117 1.00485 0.04382 0.0
H1137 H 0.33786 0.98328 0.06728 0.0
C1138 C 0.78642 0.02586 0.38637 0.0
C1139 C 0.80214 0.03684 0.41908 0.0
C1140 C 0.72401 1.00808 0.45247 0.0
C1141 C 0.70378 0.9977 0.41955 0.0
N1142 N 0.70417 0.99752 0.35496 0.0
N1143 N 0.78184 0.03975 0.48296 0.0
C1144 C 0.73207 1.00679 0.38641 0.0
C1145 C 0.76976 0.02831 0.45209 0.0
N1146 N 0.82532 0.03347 0.35536 0.0
N1147 N 0.70074 0.99832 0.48407 0.0
H1148 H 0.81855 0.05415 0.48383 0.0
H1149 H 0.75145 0.03576 0.50739 0.0
H1150 H 0.66443 0.98387 0.4852 0.0
H1151 H 0.72178 1.00371 0.50918 0.0
H1152 H 0.82637 0.025 0.3314 0.0
H1153 H 0.86198 0.04787 0.35398 0.0
H1154 H 0.71247 1.0046 0.32991 0.0
H1155 H 0.667 0.98317 0.35391 0.0
C1156 C 0.7775 1.0073 0.89148 0.0
C1157 C 0.7951 0.99679 0.92458 0.0
C1158 C 0.71533 0.02563 0.95706 0.0
C1159 C 0.69298 0.03546 0.9238 0.0
N1160 N 0.69121 0.03475 0.85921 0.0
N1161 N 0.77524 0.99442 0.98853 0.0
C1162 C 0.72105 0.02606 0.89094 0.0
C1163 C 0.76232 1.00553 0.95731 0.0
N1164 N 0.81668 0.99956 0.86066 0.0
N1165 N 0.69337 0.03582 0.98833 0.0
H1166 H 0.81252 0.9801 0.98977 0.0
H1167 H 0.74456 0.99857 1.01283 0.0
H1168 H 0.65728 0.05032 0.98903 0.0
H1169 H 0.7159 0.03078 1.01352 0.0
H1170 H 0.81647 1.0078 0.8364 0.0
H1171 H 0.85487 0.98535 0.85968 0.0
H1172 H 0.69952 0.02737 0.83446 0.0
H1173 H 0.65236 0.04886 0.85769 0.0
C1174 C 0.22546 1.00837 0.66914 0.0
C1175 C 0.20078 0.99831 0.6364 0.0
C1176 C 0.27176 0.02776 0.60237 0.0
C1177 C 0.30074 0.03723 0.63511 0.0
N1178 N 0.31665 0.03574 0.6994 0.0
N1179 N 0.20606 0.99688 0.57193 0.0
C1180 C 0.28071 0.0273 0.66846 0.0
C1181 C 0.22555 1.00759 0.60299 0.0
N1182 N 0.19367 1.0001 0.70085 0.0
N1183 N 0.28713 0.03831 0.57078 0.0
H1184 H 0.16941 0.98246 0.5714 0.0
H1185 H 0.23078 1.00144 0.54684 0.0
H1186 H 0.32368 0.05271 0.5693 0.0
H1187 H 0.2592 0.03361 0.54624 0.0
H1188 H 0.19931 1.00793 0.72533 0.0
H1189 H 0.15606 0.98583 0.70251 0.0
H1190 H 0.31436 0.02802 0.72411 0.0
H1191 H 0.35437 0.05001 0.7001 0.0
C1192 C 0.76982 0.50623 0.09919 0.0
C1193 C 0.79415 0.49673 0.13251 0.0
C1194 C 0.70932 0.52487 0.16477 0.0
C1195 C 0.68974 0.53507 0.13156 0.0
N1196 N 0.70612 0.53696 0.06741 0.0
N1197 N 0.79802 0.49781 0.19707 0.0
C1198 C 0.72136 0.52615 0.09879 0.0
C1199 C 0.76675 0.50626 0.16535 0.0
N1200 N 0.79168 0.49594 0.06799 0.0
N1201 N 0.67101 0.53274 0.19566 0.0
H1202 H 0.83735 0.48377 0.19863 0.0
H1203 H 0.79026 0.50532 0.22174 0.0
H1204 H 0.6318 0.54681 0.19652 0.0
H1205 H 0.67289 0.52473 0.22011 0.0
H1206 H 0.76776 0.50068 0.04283 0.0
H1207 H 0.82949 0.48167 0.06735 0.0
H1208 H 0.73569 0.5327 0.04297 0.0
H1209 H 0.66778 0.55114 0.06609 0.0
C1210 C 0.23338 0.50625 0.38851 0.0
C1211 C 0.20052 0.49722 0.42106 0.0
C1212 C 0.26355 0.52765 0.45482 0.0
C1213 C 0.30097 0.53606 0.42252 0.0
N1214 N 0.33249 0.53256 0.35932 0.0
N1215 N 0.19236 0.49747 0.48551 0.0
C1216 C 0.28905 0.5251 0.38954 0.0
C1217 C 0.21782 0.50742 0.45435 0.0
N1218 N 0.20864 0.49714 0.35654 0.0
N1219 N 0.27072 0.53919 0.48579 0.0
H1220 H 0.15752 0.48282 0.48603 0.0
H1221 H 0.21129 0.50283 0.5109 0.0
H1222 H 0.30654 0.55368 0.4873 0.0
H1223 H 0.23638 0.53522 0.50948 0.0
H1224 H 0.22056 0.50424 0.33172 0.0
H1225 H 0.17045 0.48297 0.35474 0.0
H1226 H 0.33637 0.52404 0.33546 0.0
H1227 H 0.36996 0.54687 0.35859 0.0
C1228 C 0.29975 0.50896 0.88882 0.0
C1229 C 0.30902 0.49761 0.92163 0.0
C1230 C 0.22254 0.52581 0.95315 0.0
C1231 C 0.20803 0.53641 0.91994 0.0
N1232 N 0.22187 0.53729 0.85559 0.0
N1233 N 0.27402 0.49379 0.98446 0.0
C1234 C 0.24399 0.52781 0.8876 0.0
C1235 C 0.26885 0.50564 0.95368 0.0
N1236 N 0.34552 0.50183 0.85892 0.0
N1237 N 0.19369 0.53533 0.98421 0.0
H1238 H 0.31051 0.47937 0.98609 0.0
H1239 H 0.23773 0.49744 1.00784 0.0
H1240 H 0.15813 0.54991 0.98464 0.0
H1241 H 0.21029 0.52969 1.0097 0.0
H1242 H 0.35141 0.51064 0.83535 0.0
H1243 H 0.38279 0.48748 0.85818 0.0
H1244 H 0.23599 0.5305 0.83074 0.0
H1245 H 0.18371 0.55148 0.85369 0.0
C1246 C 0.78289 0.52653 0.66326 0.0
C1247 C 0.79816 0.53721 0.63018 0.0
C1248 C 0.7183 0.50827 0.59786 0.0
C1249 C 0.69803 0.49829 0.63113 0.0
N1250 N 0.69971 0.49875 0.69573 0.0
N1251 N 0.77401 0.53983 0.56641 0.0
C1252 C 0.72739 0.50763 0.66392 0.0
C1253 C 0.76394 0.52852 0.59756 0.0
N1254 N 0.82332 0.53424 0.69393 0.0
N1255 N 0.69562 0.49811 0.5666 0.0
H1256 H 0.80968 0.55436 0.56511 0.0
H1257 H 0.74217 0.53566 0.54228 0.0
H1258 H 0.66064 0.48348 0.56593 0.0
H1259 H 0.71679 0.50329 0.54137 0.0
H1260 H 0.82476 0.52592 0.7181 0.0
H1261 H 0.86081 0.54854 0.69482 0.0
H1262 H 0.70894 0.50606 0.7205 0.0
H1263 H 0.6618 0.48452 0.69731 0.0
C1264 C 0.00272 0.25477 0.1613 0.0
C1265 C 0.01858 0.24419 0.12827 0.0
C1266 C -0.00219 0.278 0.09567 0.0
C1267 C 0.98778 0.28875 0.12889 0.0
N1268 N 0.99342 0.28839 0.19341 0.0
N1269 N 0.04269 0.24557 0.06441 0.0
C1270 C 0.99389 0.2774 0.16175 0.0
C1271 C 0.01933 0.25577 0.09551 0.0
N1272 N 0.99468 0.24308 0.19216 0.0
N1273 N 0.98399 0.28894 0.06434 0.0
H1274 H 0.05456 0.22915 0.0631 0.0
H1275 H 0.0554 0.25345 0.04032 0.0
H1276 H 0.97175 0.30537 0.06349 0.0
H1277 H 0.9794 0.28167 0.03935 0.0
H1278 H 0.97337 0.24945 0.21656 0.0
H1279 H 0.00227 0.22652 0.19292 0.0
H1280 H 0.00716 0.28145 0.21824 0.0
H1281 H 0.9869 0.30497 0.19469 0.0
C1282 C 0.49344 0.77757 0.16176 0.0
C1283 C 0.48047 0.78838 0.12869 0.0
C1284 C 0.498 0.75456 0.09616 0.0
C1285 C 0.50417 0.74362 0.12943 0.0
N1286 N 0.49314 0.74385 0.19385 0.0
N1287 N 0.4589 0.78741 0.06466 0.0
C1288 C 0.49764 0.75492 0.16224 0.0
C1289 C 0.47961 0.77694 0.09589 0.0
N1290 N 0.50339 0.78907 0.19268 0.0
N1291 N 0.51256 0.74366 0.06495 0.0
H1292 H 0.4491 0.80391 0.06339 0.0
H1293 H 0.44636 0.7797 0.04043 0.0
H1294 H 0.52286 0.72718 0.06418 0.0
H1295 H 0.51972 0.75103 0.04007 0.0
H1296 H 0.52275 0.78237 0.21717 0.0
H1297 H 0.50022 0.80571 0.19335 0.0
H1298 H 0.47879 0.75091 0.21846 0.0
H1299 H 0.49546 0.72721 0.19514 0.0
C1300 C 0.49693 0.75566 0.39088 0.0
C1301 C 0.47893 0.74439 0.42314 0.0
C1302 C 0.49385 0.77759 0.45759 0.0
C1303 C 0.50584 0.78903 0.42505 0.0
N1304 N 0.50601 0.78991 0.3605 0.0
N1305 N 0.44904 0.74438 0.48667 0.0
C1306 C 0.50362 0.77831 0.3916 0.0
C1307 C 0.47431 0.75529 0.45641 0.0
N1308 N 0.50927 0.74461 0.35965 0.0
N1309 N 0.50381 0.78798 0.48957 0.0
H1310 H 0.43842 0.7279 0.48702 0.0
H1311 H 0.43362 0.75172 0.51096 0.0
H1312 H 0.5142 0.80444 0.49133 0.0
H1313 H 0.50685 0.78024 0.51426 0.0
H1314 H 0.53216 0.75154 0.33585 0.0
H1315 H 0.50395 0.72802 0.3581 0.0
H1316 H 0.49515 0.78339 0.33519 0.0
H1317 H 0.51114 0.80653 0.36008 0.0
C1318 C 0.00269 0.27894 0.39106 0.0
C1319 C 0.01559 0.28963 0.42419 0.0
C1320 C 0.995 0.25583 0.45671 0.0
C1321 C 0.98797 0.245 0.42344 0.0
N1322 N -0.00064 0.24526 0.35904 0.0
N1323 N 0.03608 0.28843 0.48828 0.0
C1324 C 0.99601 0.25631 0.39062 0.0
C1325 C 0.01512 0.27811 0.457 0.0
N1326 N 0.9951 0.29055 0.36007 0.0
N1327 N 0.9796 0.2449 0.48791 0.0
H1328 H 0.04714 0.30488 0.48959 0.0
H1329 H 0.04768 0.28062 0.51254 0.0
H1330 H 0.96832 0.22845 0.48868 0.0
H1331 H 0.97288 0.25222 0.51279 0.0
H1332 H 0.9759 0.28402 0.3355 0.0
H1333 H 0.00049 0.30716 0.35936 0.0
H1334 H 0.01461 0.25224 0.3344 0.0
H1335 H 0.9949 0.22865 0.3578 0.0
C1336 C -0.00239 0.77687 0.89187 0.0
C1337 C 0.98879 0.78788 0.92488 0.0
C1338 C 0.01657 0.7545 0.95789 0.0
C1339 C 0.01795 0.74327 0.92488 0.0
N1340 N -0.0012 0.74289 0.86069 0.0
N1341 N 0.97942 0.78738 0.98932 0.0
C1342 C 0.00525 0.75423 0.89191 0.0
C1343 C 0.99569 0.77676 0.95796 0.0
N1344 N 0.00078 0.7882 0.8605 0.0
N1345 N 0.03731 0.74393 0.98903 0.0
H1346 H 0.96749 0.8038 0.99038 0.0
H1347 H 0.97252 0.77983 1.01405 0.0
H1348 H 0.0489 0.72749 0.99009 0.0
H1349 H 0.04827 0.75154 1.01346 0.0
H1350 H 0.01659 0.78147 0.83576 0.0
H1351 H 0.99547 0.80481 0.85953 0.0
H1352 H 0.97969 0.7496 0.83619 0.0
H1353 H 0.00524 0.72631 0.85966 0.0
C1354 C 0.50127 0.25513 0.89097 0.0
C1355 C 0.50852 0.24403 0.92402 0.0
C1356 C 0.48526 0.27755 0.95685 0.0
C1357 C 0.48539 0.28879 0.92378 0.0
N1358 N 0.5074 0.28911 0.85977 0.0
N1359 N 0.51857 0.24442 0.98847 0.0
C1360 C 0.49753 0.27779 0.89094 0.0
C1361 C 0.5034 0.25516 0.95705 0.0
N1362 N 0.49583 0.2439 0.85961 0.0
N1363 N 0.46532 0.2882 0.98786 0.0
H1364 H 0.52856 0.22792 0.98958 0.0
H1365 H 0.5265 0.25192 1.01317 0.0
H1366 H 0.45542 0.3047 0.98876 0.0
H1367 H 0.45344 0.28063 1.01229 0.0
H1368 H 0.48087 0.25085 0.83488 0.0
H1369 H 0.49794 0.22726 0.85868 0.0
H1370 H 0.5261 0.28224 0.83543 0.0
H1371 H 0.50502 0.30575 0.85878 0.0
C1372 C 0.49671 0.25627 0.59823 0.0
C1373 C 0.48916 0.24533 0.63145 0.0
C1374 C 0.50219 0.27922 0.66393 0.0
C1375 C 0.51572 0.29002 0.63089 0.0
N1376 N 0.53768 0.28902 0.56692 0.0
N1377 N 0.49865 0.24544 0.69591 0.0
C1378 C 0.51627 0.27859 0.59807 0.0
C1379 C 0.496 0.25657 0.66432 0.0
N1380 N 0.48229 0.24542 0.56694 0.0
N1381 N 0.49359 0.29074 0.69488 0.0
H1382 H 0.49455 0.22882 0.6971 0.0
H1383 H 0.51295 0.25237 0.72065 0.0
H1384 H 0.49858 0.30735 0.69562 0.0
H1385 H 0.47394 0.28413 0.71935 0.0
H1386 H 0.47591 0.2528 0.54203 0.0
H1387 H 0.47147 0.22895 0.56608 0.0
H1388 H 0.55008 0.28129 0.54271 0.0
H1389 H 0.54824 0.30549 0.56566 0.0
C1390 C 0.98963 0.75677 0.59789 0.0
C1391 C 0.97961 0.74581 0.63099 0.0
C1392 C 0.98963 0.7797 0.66363 0.0
C1393 C 0.00669 0.79048 0.63083 0.0
N1394 N 0.03348 0.78951 0.56713 0.0
N1395 N 0.98312 0.74593 0.69555 0.0
C1396 C 0.0095 0.77907 0.598 0.0
C1397 C 0.98325 0.75705 0.66393 0.0
N1398 N 0.9774 0.74595 0.56642 0.0
N1399 N 0.97824 0.79122 0.69443 0.0
H1400 H 0.97892 0.72932 0.69674 0.0
H1401 H 0.99523 0.75288 0.72045 0.0
H1402 H 0.98334 0.80783 0.69522 0.0
H1403 H 0.95609 0.78463 0.7186 0.0
H1404 H 0.97309 0.75337 0.54148 0.0
H1405 H 0.96602 0.72951 0.56539 0.0
H1406 H 0.04774 0.78178 0.54307 0.0
H1407 H 0.0441 0.80598 0.56603 0.0
C1408 C 0.98623 0.1586 0.29468 0.0
C1409 C 0.97965 0.13898 0.31362 0.0
C1410 C 0.01126 0.11922 0.25813 0.0
C1411 C 0.02381 0.13888 0.23973 0.0
N1412 N 0.03868 0.17719 0.2412 0.0
N1413 N -0.00159 0.10075 0.31517 0.0
C1414 C 0.01559 0.15856 0.25825 0.0
C1415 C 0.99545 0.1193 0.29582 0.0
N1416 N 0.96148 0.17722 0.31128 0.0
N1417 N 0.01114 0.10051 0.23936 0.0
H1418 H 0.98492 0.10012 0.3426 0.0
H1419 H 0.02048 0.0862 0.30468 0.0
H1420 H 0.02537 0.09977 0.21203 0.0
H1421 H 0.99107 0.08589 0.25024 0.0
H1422 H 0.95507 0.19179 0.29804 0.0
H1423 H 0.93939 0.17784 0.33789 0.0
H1424 H 0.04362 0.19187 0.25409 0.0
H1425 H 0.06115 0.17773 0.21461 0.0
C1426 C 0.49561 0.91442 0.25779 0.0
C1427 C 0.48288 0.89467 0.23981 0.0
C1428 C 0.52219 0.87525 0.29502 0.0
C1429 C 0.52679 0.89492 0.31372 0.0
N1430 N 0.5052 0.93312 0.31455 0.0
N1431 N 0.46888 0.85632 0.24214 0.0
C1432 C 0.51033 0.91451 0.29555 0.0
C1433 C 0.4921 0.87507 0.25867 0.0
N1434 N 0.49702 0.93304 0.23862 0.0
N1435 N 0.54931 0.8568 0.31181 0.0
H1436 H 0.44535 0.85559 0.21567 0.0
H1437 H 0.46461 0.84174 0.25545 0.0
H1438 H 0.57279 0.85638 0.33832 0.0
H1439 H 0.55685 0.84226 0.29867 0.0
H1440 H 0.51683 0.94767 0.24946 0.0
H1441 H 0.48516 0.93367 0.21106 0.0
H1442 H 0.48242 0.94752 0.30358 0.0
H1443 H 0.51722 0.9339 0.34209 0.0
C1444 C 0.00771 0.91539 0.7608 0.0
C1445 C 0.01782 0.8958 0.7421 0.0
C1446 C 0.98066 0.87588 0.79692 0.0
C1447 C 0.97792 0.89535 0.81625 0.0
N1448 N 0.00107 0.93346 0.81823 0.0
N1449 N 0.02924 0.8574 0.74302 0.0
C1450 C 0.99457 0.9151 0.79863 0.0
C1451 C 0.00846 0.87603 0.76037 0.0
N1452 N 0.00741 0.93423 0.74223 0.0
N1453 N 0.95377 0.8573 0.81329 0.0
H1454 H 0.05061 0.85689 0.71632 0.0
H1455 H 0.03352 0.84263 0.75578 0.0
H1456 H 0.93232 0.85661 0.83998 0.0
H1457 H 0.9446 0.84294 0.79975 0.0
H1458 H 0.98955 0.94884 0.75358 0.0
H1459 H 0.01851 0.9351 0.71466 0.0
H1460 H 0.02377 0.94796 0.80768 0.0
H1461 H 0.99016 0.93392 0.84584 0.0
C1462 C 0.50819 0.15756 0.79551 0.0
C1463 C 0.51089 0.13783 0.81428 0.0
C1464 C 0.48348 0.1185 0.75798 0.0
C1465 C 0.47385 0.13832 0.73977 0.0
N1466 N 0.4616 0.17668 0.74174 0.0
N1467 N 0.4888 0.09968 0.81492 0.0
C1468 C 0.48198 0.15786 0.75871 0.0
C1469 C 0.49537 0.11831 0.79592 0.0
N1470 N 0.5338 0.17596 0.81262 0.0
N1471 N 0.4844 0.09991 0.73885 0.0
H1472 H 0.49865 0.09889 0.84259 0.0
H1473 H 0.46703 0.08528 0.80379 0.0
H1474 H 0.47406 0.0994 0.71119 0.0
H1475 H 0.50186 0.08514 0.74985 0.0
H1476 H 0.5432 0.19051 0.79957 0.0
H1477 H 0.55386 0.17637 0.83949 0.0
H1478 H 0.4562 0.19127 0.75491 0.0
H1479 H 0.44175 0.17753 0.71486 0.0
C1480 C 0.50074 0.65638 0.25769 0.0
C1481 C 0.50687 0.6367 0.23903 0.0
C1482 C 0.48229 0.61714 0.29543 0.0
C1483 C 0.46918 0.63685 0.31347 0.0
N1484 N 0.44967 0.67506 0.31104 0.0
N1485 N 0.49097 0.59839 0.2386 0.0
C1486 C 0.47386 0.65643 0.29436 0.0
C1487 C 0.49442 0.61706 0.25749 0.0
N1488 N 0.52393 0.67499 0.24066 0.0
N1489 N 0.48626 0.59857 0.31472 0.0
H1490 H 0.50092 0.59769 0.21095 0.0
H1491 H 0.47165 0.58381 0.2498 0.0
H1492 H 0.47573 0.59799 0.34236 0.0
H1493 H 0.50627 0.58397 0.30386 0.0
H1494 H 0.53085 0.68958 0.25372 0.0
H1495 H 0.54478 0.67559 0.21391 0.0
H1496 H 0.44179 0.68956 0.29769 0.0
H1497 H 0.42893 0.67571 0.33779 0.0
C1498 C 0.99038 0.41472 0.25757 0.0
C1499 C 0.97508 0.39501 0.23974 0.0
C1500 C 0.00862 0.37551 0.29548 0.0
C1501 C 0.01713 0.39522 0.31391 0.0
N1502 N 0.00403 0.4336 0.31409 0.0
N1503 N 0.95499 0.35684 0.24227 0.0
C1504 C 0.00494 0.41486 0.29537 0.0
C1505 C 0.98015 0.37544 0.25888 0.0
N1506 N 0.99419 0.43323 0.23816 0.0
N1507 N 0.03081 0.35687 0.31272 0.0
H1508 H 0.93335 0.35622 0.21556 0.0
H1509 H 0.94758 0.34233 0.2556 0.0
H1510 H 0.05262 0.35632 0.33942 0.0
H1511 H 0.03565 0.34217 0.29991 0.0
H1512 H 0.01607 0.44778 0.24874 0.0
H1513 H 0.9815 0.43382 0.21065 0.0
H1514 H 0.98453 0.4482 0.30297 0.0
H1515 H 0.01661 0.43437 0.34159 0.0
C1516 C 0.51191 0.41602 0.75827 0.0
C1517 C 0.5245 0.39643 0.73979 0.0
C1518 C 0.49221 0.37651 0.79511 0.0
C1519 C 0.48627 0.39605 0.81418 0.0
N1520 N 0.50347 0.43433 0.81548 0.0
N1521 N 0.5428 0.35818 0.74132 0.0
C1522 C 0.49952 0.41582 0.79618 0.0
C1523 C 0.5192 0.37671 0.75845 0.0
N1524 N 0.50863 0.43474 0.73942 0.0
N1525 N 0.46873 0.35779 0.81177 0.0
H1526 H 0.56352 0.35772 0.71454 0.0
H1527 H 0.55014 0.34355 0.75431 0.0
H1528 H 0.4479 0.35702 0.8385 0.0
H1529 H 0.46168 0.3433 0.79842 0.0
H1530 H 0.48882 0.44928 0.75058 0.0
H1531 H 0.51956 0.43554 0.71183 0.0
H1532 H 0.52343 0.44896 0.80463 0.0
H1533 H 0.49341 0.43484 0.84314 0.0
C1534 C 0.97921 0.65788 0.75776 0.0
C1535 C 0.97531 0.63834 0.73862 0.0
C1536 C 0.00656 0.61848 0.79426 0.0
C1537 C 0.01725 0.63812 0.81282 0.0
N1538 N 0.02933 0.67649 0.81148 0.0
N1539 N -0.00278 0.6002 0.73701 0.0
C1540 C 0.00785 0.65783 0.79432 0.0
C1541 C 0.99207 0.61865 0.75643 0.0
N1542 N 0.95266 0.67644 0.7412 0.0
N1543 N 0.007 0.5997 0.81298 0.0
H1544 H 0.98483 0.59964 0.70946 0.0
H1545 H 0.01996 0.58569 0.74761 0.0
H1546 H 0.01972 0.59893 0.84046 0.0
H1547 H 0.98861 0.58505 0.80186 0.0
H1548 H 0.94433 0.69089 0.75456 0.0
H1549 H 0.93069 0.67706 0.71453 0.0
H1550 H 0.03354 0.69121 0.79858 0.0
H1551 H 0.05139 0.67706 0.83815 0.0
loop_
_geom_bond_atom_site_label_1
_geom_bond_atom_site_label_2
_geom_bond_distance
_geom_bond_site_symmetry_2
_ccdc_geom_bond_type
Zn0 N4 2.020 1_655 S
Zn0 O8 2.019 . S
Zn0 N10 2.119 . S
Zn0 O18 1.977 . S
C1 N2 1.334 . S
C1 N5 1.336 . S
N2 C1 1.334 . S
N2 C3 1.334 . S
C3 N2 1.334 . S
C3 N4 1.336 . S
N4 Zn0 2.020 1_455 S
N4 C3 1.336 . S
N4 N5 1.354 . S
N5 C1 1.336 . S
N5 N4 1.354 . S
N5 Zn9 2.020 . S
C6 O7 1.244 . S
C6 O30 1.257 . S
O7 C6 1.244 . S
O8 Zn0 2.019 . S
O8 C28 1.257 . S
Zn9 N5 2.020 . S
Zn9 O16 1.975 . S
Zn9 N25 2.119 . S
Zn9 O30 2.019 . S
N10 Zn0 2.119 . S
N10 C12 1.333 1_655 S
N10 C13 1.329 . S
C11 C12 1.391 . S
C11 N14 1.329 . S
C11 H32 0.930 . S
C12 N10 1.333 1_455 S
C12 C11 1.391 . S
C12 H19 0.930 . S
C13 N10 1.329 . S
C13 C15 1.392 . S
C13 H20 0.930 . S
N14 C11 1.329 . S
N14 C15 1.331 1_455 S
C15 C13 1.392 . S
C15 N14 1.331 1_655 S
O16 Zn9 1.975 . S
O16 C17 1.252 . S
C17 O16 1.252 . S
C17 O18 1.247 1_455 S
O18 Zn0 1.977 . S
O18 C17 1.247 1_655 S
H19 C12 0.930 . S
H20 C13 0.930 . S
C21 C22 1.392 . S
C21 N25 1.328 . S
C21 H27 0.930 . S
C22 C21 1.392 . S
C22 N26 1.331 . S
C23 C24 1.391 . S
C23 N26 1.329 . S
C23 H33 0.930 1_455 S
C24 C23 1.391 . S
C24 N25 1.334 . S
C24 H31 0.930 . S
N25 Zn9 2.119 . S
N25 C21 1.328 . S
N25 C24 1.334 . S
N26 C22 1.331 . S
N26 C23 1.329 . S
H27 C21 0.930 . S
C28 O8 1.257 . S
C28 O29 1.244 . S
O29 C28 1.244 . S
O30 C6 1.257 . S
O30 Zn9 2.019 . S
H31 C24 0.930 . S
H32 C11 0.930 . S
H33 C23 0.930 1_655 S
Zn34 N38 2.020 . S
Zn34 O42 2.019 . S
Zn34 N44 2.119 . S
Zn34 O52 1.975 . S
C35 N36 1.334 . S
C35 N39 1.336 . S
N36 C35 1.334 . S
N36 C37 1.334 . S
C37 N36 1.334 . S
C37 N38 1.336 . S
N38 Zn34 2.020 . S
N38 C37 1.336 . S
N38 N39 1.354 . S
N39 C35 1.336 . S
N39 N38 1.354 . S
N39 Zn43 2.020 . S
C40 O41 1.244 . S
C40 O64 1.257 . S
O41 C40 1.244 . S
O42 Zn34 2.019 . S
O42 C62 1.257 . S
Zn43 N39 2.020 . S
Zn43 O50 1.975 . S
Zn43 N59 2.119 . S
Zn43 O64 2.019 . S
N44 Zn34 2.119 . S
N44 C46 1.334 . S
N44 C47 1.328 . S
C45 C46 1.391 . S
C45 N48 1.329 . S
C45 H66 0.930 . S
C46 N44 1.334 . S
C46 C45 1.391 . S
C46 H53 0.930 . S
C47 N44 1.328 . S
C47 C49 1.392 . S
C47 H54 0.930 . S
N48 C45 1.329 . S
N48 C49 1.331 . S
C49 C47 1.392 . S
C49 N48 1.331 . S
O50 Zn43 1.975 . S
O50 C51 1.252 . S
C51 O50 1.252 . S
C51 O52 1.252 . S
O52 Zn34 1.975 . S
O52 C51 1.252 . S
H53 C46 0.930 . S
H54 C47 0.930 . S
C55 C56 1.392 . S
C55 N59 1.328 . S
C55 H61 0.930 . S
C56 C55 1.392 . S
C56 N60 1.331 . S
C57 C58 1.391 . S
C57 N60 1.329 . S
C57 H67 0.930 . S
C58 C57 1.391 . S
C58 N59 1.334 . S
C58 H65 0.930 . S
N59 Zn43 2.119 . S
N59 C55 1.328 . S
N59 C58 1.334 . S
N60 C56 1.331 . S
N60 C57 1.329 . S
H61 C55 0.930 . S
C62 O42 1.257 . S
C62 O63 1.244 . S
O63 C62 1.244 . S
O64 C40 1.257 . S
O64 Zn43 2.019 . S
H65 C58 0.930 . S
H66 C45 0.930 . S
H67 C57 0.930 . S
Zn68 N72 2.020 . S
Zn68 O76 2.019 . S
Zn68 N78 2.119 . S
Zn68 O86 1.975 . S
C69 N70 1.334 . S
C69 N73 1.336 . S
N70 C69 1.334 . S
N70 C71 1.334 . S
C71 N70 1.334 . S
C71 N72 1.336 . S
N72 Zn68 2.020 . S
N72 C71 1.336 . S
N72 N73 1.354 . S
N73 C69 1.336 . S
N73 N72 1.354 . S
N73 Zn77 2.020 . S
C74 O75 1.244 . S
C74 O98 1.257 . S
O75 C74 1.244 . S
O76 Zn68 2.019 . S
O76 C96 1.257 . S
Zn77 N73 2.020 . S
Zn77 O84 1.975 . S
Zn77 N93 2.119 . S
Zn77 O98 2.019 . S
N78 Zn68 2.119 . S
N78 C80 1.334 . S
N78 C81 1.328 . S
C79 C80 1.391 . S
C79 N82 1.329 . S
C79 H100 0.930 . S
C80 N78 1.334 . S
C80 C79 1.391 . S
C80 H87 0.930 . S
C81 N78 1.328 . S
C81 C83 1.392 . S
C81 H88 0.930 . S
N82 C79 1.329 . S
N82 C83 1.331 . S
C83 C81 1.392 . S
C83 N82 1.331 . S
O84 Zn77 1.975 . S
O84 C85 1.252 . S
C85 O84 1.252 . S
C85 O86 1.252 . S
O86 Zn68 1.975 . S
O86 C85 1.252 . S
H87 C80 0.930 . S
H88 C81 0.930 . S
C89 C90 1.392 . S
C89 N93 1.328 . S
C89 H95 0.930 . S
C90 C89 1.392 . S
C90 N94 1.331 . S
C91 C92 1.391 . S
C91 N94 1.329 . S
C91 H101 0.930 . S
C92 C91 1.391 . S
C92 N93 1.334 . S
C92 H99 0.930 . S
N93 Zn77 2.119 . S
N93 C89 1.328 . S
N93 C92 1.334 . S
N94 C90 1.331 . S
N94 C91 1.329 . S
H95 C89 0.930 . S
C96 O76 1.257 . S
C96 O97 1.244 . S
O97 C96 1.244 . S
O98 C74 1.257 . S
O98 Zn77 2.019 . S
H99 C92 0.930 . S
H100 C79 0.930 . S
H101 C91 0.930 . S
Zn102 N106 2.020 1_455 S
Zn102 O110 2.019 . S
Zn102 N112 2.119 . S
Zn102 O120 1.977 . S
C103 N104 1.334 . S
C103 N107 1.336 . S
N104 C103 1.334 . S
N104 C105 1.334 . S
C105 N104 1.334 . S
C105 N106 1.336 . S
N106 Zn102 2.020 1_655 S
N106 C105 1.336 . S
N106 N107 1.354 . S
N107 C103 1.336 . S
N107 N106 1.354 . S
N107 Zn111 2.020 . S
C108 O109 1.244 . S
C108 O132 1.257 . S
O109 C108 1.244 . S
O110 Zn102 2.019 . S
O110 C130 1.257 . S
Zn111 N107 2.020 . S
Zn111 O118 1.975 . S
Zn111 N127 2.119 . S
Zn111 O132 2.019 . S
N112 Zn102 2.119 . S
N112 C114 1.333 1_455 S
N112 C115 1.329 . S
C113 C114 1.391 . S
C113 N116 1.329 . S
C113 H134 0.930 . S
C114 N112 1.333 1_655 S
C114 C113 1.391 . S
C114 H121 0.930 . S
C115 N112 1.329 . S
C115 C117 1.392 . S
C115 H122 0.930 . S
N116 C113 1.329 . S
N116 C117 1.331 1_655 S
C117 C115 1.392 . S
C117 N116 1.331 1_455 S
O118 Zn111 1.975 . S
O118 C119 1.252 . S
C119 O118 1.252 . S
C119 O120 1.247 1_655 S
O120 Zn102 1.977 . S
O120 C119 1.247 1_455 S
H121 C114 0.930 . S
H122 C115 0.930 . S
C123 C124 1.392 . S
C123 N127 1.328 . S
C123 H129 0.930 . S
C124 C123 1.392 . S
C124 N128 1.331 . S
C125 C126 1.391 . S
C125 N128 1.329 . S
C125 H135 0.930 1_655 S
C126 C125 1.391 . S
C126 N127 1.334 . S
C126 H133 0.930 . S
N127 Zn111 2.119 . S
N127 C123 1.328 . S
N127 C126 1.334 . S
N128 C124 1.331 . S
N128 C125 1.329 . S
H129 C123 0.930 . S
C130 O110 1.257 . S
C130 O131 1.244 . S
O131 C130 1.244 . S
O132 C108 1.257 . S
O132 Zn111 2.019 . S
H133 C126 0.930 . S
H134 C113 0.930 . S
H135 C125 0.930 1_455 S
Zn136 N140 2.020 . S
Zn136 O144 2.019 . S
Zn136 N146 2.119 . S
Zn136 O154 1.975 . S
C137 N138 1.334 . S
C137 N141 1.336 . S
N138 C137 1.334 . S
N138 C139 1.334 . S
C139 N138 1.334 . S
C139 N140 1.336 . S
N140 Zn136 2.020 . S
N140 C139 1.336 . S
N140 N141 1.354 . S
N141 C137 1.336 . S
N141 N140 1.354 . S
N141 Zn145 2.020 1_655 S
C142 O143 1.244 . S
C142 O166 1.257 . S
O143 C142 1.244 . S
O144 Zn136 2.019 . S
O144 C164 1.257 . S
Zn145 N141 2.020 1_455 S
Zn145 O152 1.977 . S
Zn145 N161 2.119 . S
Zn145 O166 2.019 . S
N146 Zn136 2.119 . S
N146 C148 1.334 . S
N146 C149 1.328 . S
C147 C148 1.391 . S
C147 N150 1.329 . S
C147 H168 0.930 1_655 S
C148 N146 1.334 . S
C148 C147 1.391 . S
C148 H155 0.930 . S
C149 N146 1.328 . S
C149 C151 1.392 . S
C149 H156 0.930 . S
N150 C147 1.329 . S
N150 C151 1.331 . S
C151 C149 1.392 . S
C151 N150 1.331 . S
O152 Zn145 1.977 . S
O152 C153 1.247 1_455 S
C153 O152 1.247 1_655 S
C153 O154 1.252 . S
O154 Zn136 1.975 . S
O154 C153 1.252 . S
H155 C148 0.930 . S
H156 C149 0.930 . S
C157 C158 1.392 . S
C157 N161 1.329 . S
C157 H163 0.930 . S
C158 C157 1.392 . S
C158 N162 1.331 1_455 S
C159 C160 1.391 . S
C159 N162 1.329 . S
C159 H169 0.930 . S
C160 C159 1.391 . S
C160 N161 1.333 1_655 S
C160 H167 0.930 . S
N161 Zn145 2.119 . S
N161 C157 1.329 . S
N161 C160 1.333 1_455 S
N162 C158 1.331 1_655 S
N162 C159 1.329 . S
H163 C157 0.930 . S
C164 O144 1.257 . S
C164 O165 1.244 . S
O165 C164 1.244 . S
O166 C142 1.257 . S
O166 Zn145 2.019 . S
H167 C160 0.930 . S
H168 C147 0.930 1_455 S
H169 C159 0.930 . S
Zn170 N174 2.020 . S
Zn170 O178 2.019 . S
Zn170 N180 2.119 . S
Zn170 O188 1.975 . S
C171 N172 1.334 . S
C171 N175 1.336 . S
N172 C171 1.334 . S
N172 C173 1.334 . S
C173 N172 1.334 . S
C173 N174 1.336 . S
N174 Zn170 2.020 . S
N174 C173 1.336 . S
N174 N175 1.354 . S
N175 C171 1.336 . S
N175 N174 1.354 . S
N175 Zn179 2.020 . S
C176 O177 1.244 . S
C176 O200 1.257 . S
O177 C176 1.244 . S
O178 Zn170 2.019 . S
O178 C198 1.257 . S
Zn179 N175 2.020 . S
Zn179 O186 1.975 . S
Zn179 N195 2.119 . S
Zn179 O200 2.019 . S
N180 Zn170 2.119 . S
N180 C182 1.334 . S
N180 C183 1.328 . S
C181 C182 1.391 . S
C181 N184 1.329 . S
C181 H202 0.930 . S
C182 N180 1.334 . S
C182 C181 1.391 . S
C182 H189 0.930 . S
C183 N180 1.328 . S
C183 C185 1.392 . S
C183 H190 0.930 . S
N184 C181 1.329 . S
N184 C185 1.331 . S
C185 C183 1.392 . S
C185 N184 1.331 . S
O186 Zn179 1.975 . S
O186 C187 1.252 . S
C187 O186 1.252 . S
C187 O188 1.252 . S
O188 Zn170 1.975 . S
O188 C187 1.252 . S
H189 C182 0.930 . S
H190 C183 0.930 . S
C191 C192 1.392 . S
C191 N195 1.328 . S
C191 H197 0.930 . S
C192 C191 1.392 . S
C192 N196 1.331 . S
C193 C194 1.391 . S
C193 N196 1.329 . S
C193 H203 0.930 . S
C194 C193 1.391 . S
C194 N195 1.334 . S
C194 H201 0.930 . S
N195 Zn179 2.119 . S
N195 C191 1.328 . S
N195 C194 1.334 . S
N196 C192 1.331 . S
N196 C193 1.329 . S
H197 C191 0.930 . S
C198 O178 1.257 . S
C198 O199 1.244 . S
O199 C198 1.244 . S
O200 C176 1.257 . S
O200 Zn179 2.019 . S
H201 C194 0.930 . S
H202 C181 0.930 . S
H203 C193 0.930 . S
Zn204 N208 2.020 . S
Zn204 O212 2.019 . S
Zn204 N214 2.119 . S
Zn204 O222 1.975 . S
C205 N206 1.334 . S
C205 N209 1.336 . S
N206 C205 1.334 . S
N206 C207 1.334 . S
C207 N206 1.334 . S
C207 N208 1.336 . S
N208 Zn204 2.020 . S
N208 C207 1.336 . S
N208 N209 1.354 . S
N209 C205 1.336 . S
N209 N208 1.354 . S
N209 Zn213 2.020 . S
C210 O211 1.244 . S
C210 O234 1.257 . S
O211 C210 1.244 . S
O212 Zn204 2.019 . S
O212 C232 1.257 . S
Zn213 N209 2.020 . S
Zn213 O220 1.975 . S
Zn213 N229 2.119 . S
Zn213 O234 2.019 . S
N214 Zn204 2.119 . S
N214 C216 1.334 . S
N214 C217 1.328 . S
C215 C216 1.391 . S
C215 N218 1.329 . S
C215 H236 0.930 . S
C216 N214 1.334 . S
C216 C215 1.391 . S
C216 H223 0.930 . S
C217 N214 1.328 . S
C217 C219 1.392 . S
C217 H224 0.930 . S
N218 C215 1.329 . S
N218 C219 1.331 . S
C219 C217 1.392 . S
C219 N218 1.331 . S
O220 Zn213 1.975 . S
O220 C221 1.252 . S
C221 O220 1.252 . S
C221 O222 1.252 . S
O222 Zn204 1.975 . S
O222 C221 1.252 . S
H223 C216 0.930 . S
H224 C217 0.930 . S
C225 C226 1.392 . S
C225 N229 1.328 . S
C225 H231 0.930 . S
C226 C225 1.392 . S
C226 N230 1.331 . S
C227 C228 1.391 . S
C227 N230 1.329 . S
C227 H237 0.930 . S
C228 C227 1.391 . S
C228 N229 1.334 . S
C228 H235 0.930 . S
N229 Zn213 2.119 . S
N229 C225 1.328 . S
N229 C228 1.334 . S
N230 C226 1.331 . S
N230 C227 1.329 . S
H231 C225 0.930 . S
C232 O212 1.257 . S
C232 O233 1.244 . S
O233 C232 1.244 . S
O234 C210 1.257 . S
O234 Zn213 2.019 . S
H235 C228 0.930 . S
H236 C215 0.930 . S
H237 C227 0.930 . S
Zn238 N242 2.020 . S
Zn238 O246 2.019 . S
Zn238 N248 2.119 . S
Zn238 O256 1.975 . S
C239 N240 1.334 . S
C239 N243 1.336 . S
N240 C239 1.334 . S
N240 C241 1.334 . S
C241 N240 1.334 . S
C241 N242 1.336 . S
N242 Zn238 2.020 . S
N242 C241 1.336 . S
N242 N243 1.354 . S
N243 C239 1.336 . S
N243 N242 1.354 . S
N243 Zn247 2.020 1_455 S
C244 O245 1.244 . S
C244 O268 1.257 . S
O245 C244 1.244 . S
O246 Zn238 2.019 . S
O246 C266 1.257 . S
Zn247 N243 2.020 1_655 S
Zn247 O254 1.977 . S
Zn247 N263 2.119 . S
Zn247 O268 2.019 . S
N248 Zn238 2.119 . S
N248 C250 1.334 . S
N248 C251 1.328 . S
C249 C250 1.391 . S
C249 N252 1.329 . S
C249 H270 0.930 1_455 S
C250 N248 1.334 . S
C250 C249 1.391 . S
C250 H257 0.930 . S
C251 N248 1.328 . S
C251 C253 1.392 . S
C251 H258 0.930 . S
N252 C249 1.329 . S
N252 C253 1.331 . S
C253 C251 1.392 . S
C253 N252 1.331 . S
O254 Zn247 1.977 . S
O254 C255 1.247 1_655 S
C255 O254 1.247 1_455 S
C255 O256 1.252 . S
O256 Zn238 1.975 . S
O256 C255 1.252 . S
H257 C250 0.930 . S
H258 C251 0.930 . S
C259 C260 1.392 . S
C259 N263 1.329 . S
C259 H265 0.930 . S
C260 C259 1.392 . S
C260 N264 1.331 1_655 S
C261 C262 1.391 . S
C261 N264 1.329 . S
C261 H271 0.930 . S
C262 C261 1.391 . S
C262 N263 1.333 1_455 S
C262 H269 0.930 . S
N263 Zn247 2.119 . S
N263 C259 1.329 . S
N263 C262 1.333 1_655 S
N264 C260 1.331 1_455 S
N264 C261 1.329 . S
H265 C259 0.930 . S
C266 O246 1.257 . S
C266 O267 1.244 . S
O267 C266 1.244 . S
O268 C244 1.257 . S
O268 Zn247 2.019 . S
H269 C262 0.930 . S
H270 C249 0.930 1_655 S
H271 C261 0.930 . S
Zn272 N276 2.020 . S
Zn272 O280 2.019 . S
Zn272 N282 2.119 . S
Zn272 O290 1.975 . S
C273 N274 1.334 . S
C273 N277 1.336 . S
N274 C273 1.334 . S
N274 C275 1.334 . S
C275 N274 1.334 . S
C275 N276 1.336 . S
N276 Zn272 2.020 . S
N276 C275 1.336 . S
N276 N277 1.354 . S
N277 C273 1.336 . S
N277 N276 1.354 . S
N277 Zn281 2.020 . S
C278 O279 1.244 . S
C278 O302 1.257 . S
O279 C278 1.244 . S
O280 Zn272 2.019 . S
O280 C300 1.257 . S
Zn281 N277 2.020 . S
Zn281 O288 1.975 . S
Zn281 N297 2.119 . S
Zn281 O302 2.019 . S
N282 Zn272 2.119 . S
N282 C284 1.334 . S
N282 C285 1.328 . S
C283 C284 1.391 . S
C283 N286 1.329 . S
C283 H304 0.930 . S
C284 N282 1.334 . S
C284 C283 1.391 . S
C284 H291 0.930 . S
C285 N282 1.328 . S
C285 C287 1.392 . S
C285 H292 0.930 . S
N286 C283 1.329 . S
N286 C287 1.331 . S
C287 C285 1.392 . S
C287 N286 1.331 . S
O288 Zn281 1.975 . S
O288 C289 1.252 . S
C289 O288 1.252 . S
C289 O290 1.252 . S
O290 Zn272 1.975 . S
O290 C289 1.252 . S
H291 C284 0.930 . S
H292 C285 0.930 . S
C293 C294 1.392 . S
C293 N297 1.328 . S
C293 H299 0.930 . S
C294 C293 1.392 . S
C294 N298 1.331 . S
C295 C296 1.391 . S
C295 N298 1.329 . S
C295 H305 0.930 . S
C296 C295 1.391 . S
C296 N297 1.334 . S
C296 H303 0.930 . S
N297 Zn281 2.119 . S
N297 C293 1.328 . S
N297 C296 1.334 . S
N298 C294 1.331 . S
N298 C295 1.329 . S
H299 C293 0.930 . S
C300 O280 1.257 . S
C300 O301 1.244 . S
O301 C300 1.244 . S
O302 C278 1.257 . S
O302 Zn281 2.019 . S
H303 C296 0.930 . S
H304 C283 0.930 . S
H305 C295 0.930 . S
Zn306 N310 2.020 . S
Zn306 O314 2.019 . S
Zn306 N316 2.119 . S
Zn306 O324 1.975 . S
C307 N308 1.334 . S
C307 N311 1.336 . S
N308 C307 1.334 . S
N308 C309 1.334 . S
C309 N308 1.334 . S
C309 N310 1.336 . S
N310 Zn306 2.020 . S
N310 C309 1.336 . S
N310 N311 1.354 . S
N311 C307 1.336 . S
N311 N310 1.354 . S
N311 Zn315 2.020 1_655 S
C312 O313 1.244 . S
C312 O336 1.257 . S
O313 C312 1.244 . S
O314 Zn306 2.019 . S
O314 C334 1.257 . S
Zn315 N311 2.020 1_455 S
Zn315 O322 1.977 . S
Zn315 N331 2.119 . S
Zn315 O336 2.019 . S
N316 Zn306 2.119 . S
N316 C318 1.334 . S
N316 C319 1.328 . S
C317 C318 1.391 . S
C317 N320 1.329 . S
C317 H338 0.930 1_655 S
C318 N316 1.334 . S
C318 C317 1.391 . S
C318 H325 0.930 . S
C319 N316 1.328 . S
C319 C321 1.392 . S
C319 H326 0.930 . S
N320 C317 1.329 . S
N320 C321 1.331 . S
C321 C319 1.392 . S
C321 N320 1.331 . S
O322 Zn315 1.977 . S
O322 C323 1.247 1_455 S
C323 O322 1.247 1_655 S
C323 O324 1.252 . S
O324 Zn306 1.975 . S
O324 C323 1.252 . S
H325 C318 0.930 . S
H326 C319 0.930 . S
C327 C328 1.392 . S
C327 N331 1.329 . S
C327 H333 0.930 . S
C328 C327 1.392 . S
C328 N332 1.331 1_455 S
C329 C330 1.391 . S
C329 N332 1.329 . S
C329 H339 0.930 . S
C330 C329 1.391 . S
C330 N331 1.333 1_655 S
C330 H337 0.930 . S
N331 Zn315 2.119 . S
N331 C327 1.329 . S
N331 C330 1.333 1_455 S
N332 C328 1.331 1_655 S
N332 C329 1.329 . S
H333 C327 0.930 . S
C334 O314 1.257 . S
C334 O335 1.244 . S
O335 C334 1.244 . S
O336 C312 1.257 . S
O336 Zn315 2.019 . S
H337 C330 0.930 . S
H338 C317 0.930 1_455 S
H339 C329 0.930 . S
Zn340 N344 2.020 . S
Zn340 O348 2.019 . S
Zn340 N350 2.119 . S
Zn340 O358 1.975 . S
C341 N342 1.334 . S
C341 N345 1.336 . S
N342 C341 1.334 . S
N342 C343 1.334 . S
C343 N342 1.334 . S
C343 N344 1.336 . S
N344 Zn340 2.020 . S
N344 C343 1.336 . S
N344 N345 1.354 . S
N345 C341 1.336 . S
N345 N344 1.354 . S
N345 Zn349 2.020 1_455 S
C346 O347 1.244 . S
C346 O370 1.257 . S
O347 C346 1.244 . S
O348 Zn340 2.019 . S
O348 C368 1.257 . S
Zn349 N345 2.020 1_655 S
Zn349 O356 1.977 . S
Zn349 N365 2.119 . S
Zn349 O370 2.019 . S
N350 Zn340 2.119 . S
N350 C352 1.334 . S
N350 C353 1.328 . S
C351 C352 1.391 . S
C351 N354 1.329 . S
C351 H372 0.930 1_455 S
C352 N350 1.334 . S
C352 C351 1.391 . S
C352 H359 0.930 . S
C353 N350 1.328 . S
C353 C355 1.392 . S
C353 H360 0.930 . S
N354 C351 1.329 . S
N354 C355 1.331 . S
C355 C353 1.392 . S
C355 N354 1.331 . S
O356 Zn349 1.977 . S
O356 C357 1.247 1_655 S
C357 O356 1.247 1_455 S
C357 O358 1.252 . S
O358 Zn340 1.975 . S
O358 C357 1.252 . S
H359 C352 0.930 . S
H360 C353 0.930 . S
C361 C362 1.392 . S
C361 N365 1.329 . S
C361 H367 0.930 . S
C362 C361 1.392 . S
C362 N366 1.331 1_655 S
C363 C364 1.391 . S
C363 N366 1.329 . S
C363 H373 0.930 . S
C364 C363 1.391 . S
C364 N365 1.333 1_455 S
C364 H371 0.930 . S
N365 Zn349 2.119 . S
N365 C361 1.329 . S
N365 C364 1.333 1_655 S
N366 C362 1.331 1_455 S
N366 C363 1.329 . S
H367 C361 0.930 . S
C368 O348 1.257 . S
C368 O369 1.244 . S
O369 C368 1.244 . S
O370 C346 1.257 . S
O370 Zn349 2.019 . S
H371 C364 0.930 . S
H372 C351 0.930 1_655 S
H373 C363 0.930 . S
Zn374 N378 2.020 . S
Zn374 O382 2.019 . S
Zn374 N384 2.119 . S
Zn374 O392 1.975 . S
C375 N376 1.334 . S
C375 N379 1.336 . S
N376 C375 1.334 . S
N376 C377 1.334 . S
C377 N376 1.334 . S
C377 N378 1.336 . S
N378 Zn374 2.020 . S
N378 C377 1.336 . S
N378 N379 1.354 . S
N379 C375 1.336 . S
N379 N378 1.354 . S
N379 Zn383 2.020 . S
C380 O381 1.244 . S
C380 O404 1.257 . S
O381 C380 1.244 . S
O382 Zn374 2.019 . S
O382 C402 1.257 . S
Zn383 N379 2.020 . S
Zn383 O390 1.975 . S
Zn383 N399 2.119 . S
Zn383 O404 2.019 . S
N384 Zn374 2.119 . S
N384 C386 1.334 . S
N384 C387 1.328 . S
C385 C386 1.391 . S
C385 N388 1.329 . S
C385 H406 0.930 . S
C386 N384 1.334 . S
C386 C385 1.391 . S
C386 H393 0.930 . S
C387 N384 1.328 . S
C387 C389 1.392 . S
C387 H394 0.930 . S
N388 C385 1.329 . S
N388 C389 1.331 . S
C389 C387 1.392 . S
C389 N388 1.331 . S
O390 Zn383 1.975 . S
O390 C391 1.252 . S
C391 O390 1.252 . S
C391 O392 1.252 . S
O392 Zn374 1.975 . S
O392 C391 1.252 . S
H393 C386 0.930 . S
H394 C387 0.930 . S
C395 C396 1.392 . S
C395 N399 1.328 . S
C395 H401 0.930 . S
C396 C395 1.392 . S
C396 N400 1.331 . S
C397 C398 1.391 . S
C397 N400 1.329 . S
C397 H407 0.930 . S
C398 C397 1.391 . S
C398 N399 1.334 . S
C398 H405 0.930 . S
N399 Zn383 2.119 . S
N399 C395 1.328 . S
N399 C398 1.334 . S
N400 C396 1.331 . S
N400 C397 1.329 . S
H401 C395 0.930 . S
C402 O382 1.257 . S
C402 O403 1.244 . S
O403 C402 1.244 . S
O404 C380 1.257 . S
O404 Zn383 2.019 . S
H405 C398 0.930 . S
H406 C385 0.930 . S
H407 C397 0.930 . S
Zn408 N412 2.020 . S
Zn408 O416 2.019 . S
Zn408 N418 2.119 . S
Zn408 O426 1.975 . S
C409 N410 1.334 . S
C409 N413 1.336 . S
N410 C409 1.334 . S
N410 C411 1.334 . S
C411 N410 1.334 . S
C411 N412 1.336 . S
N412 Zn408 2.020 . S
N412 C411 1.336 . S
N412 N413 1.354 . S
N413 C409 1.336 . S
N413 N412 1.354 . S
N413 Zn417 2.020 . S
C414 O415 1.244 . S
C414 O438 1.257 . S
O415 C414 1.244 . S
O416 Zn408 2.019 . S
O416 C436 1.257 . S
Zn417 N413 2.020 . S
Zn417 O424 1.975 . S
Zn417 N433 2.119 . S
Zn417 O438 2.019 . S
N418 Zn408 2.119 . S
N418 C420 1.334 . S
N418 C421 1.328 . S
C419 C420 1.391 . S
C419 N422 1.329 . S
C419 H440 0.930 . S
C420 N418 1.334 . S
C420 C419 1.391 . S
C420 H427 0.930 . S
C421 N418 1.328 . S
C421 C423 1.392 . S
C421 H428 0.930 . S
N422 C419 1.329 . S
N422 C423 1.331 . S
C423 C421 1.392 . S
C423 N422 1.331 . S
O424 Zn417 1.975 . S
O424 C425 1.252 . S
C425 O424 1.252 . S
C425 O426 1.252 . S
O426 Zn408 1.975 . S
O426 C425 1.252 . S
H427 C420 0.930 . S
H428 C421 0.930 . S
C429 C430 1.392 . S
C429 N433 1.328 . S
C429 H435 0.930 . S
C430 C429 1.392 . S
C430 N434 1.331 . S
C431 C432 1.391 . S
C431 N434 1.329 . S
C431 H441 0.930 . S
C432 C431 1.391 . S
C432 N433 1.334 . S
C432 H439 0.930 . S
N433 Zn417 2.119 . S
N433 C429 1.328 . S
N433 C432 1.334 . S
N434 C430 1.331 . S
N434 C431 1.329 . S
H435 C429 0.930 . S
C436 O416 1.257 . S
C436 O437 1.244 . S
O437 C436 1.244 . S
O438 C414 1.257 . S
O438 Zn417 2.019 . S
H439 C432 0.930 . S
H440 C419 0.930 . S
H441 C431 0.930 . S
Zn442 N446 2.020 1_655 S
Zn442 O450 2.019 . S
Zn442 N452 2.119 . S
Zn442 O460 1.977 . S
C443 N444 1.334 . S
C443 N447 1.336 . S
N444 C443 1.334 . S
N444 C445 1.334 . S
C445 N444 1.334 . S
C445 N446 1.336 . S
N446 Zn442 2.020 1_455 S
N446 C445 1.336 . S
N446 N447 1.354 . S
N447 C443 1.336 . S
N447 N446 1.354 . S
N447 Zn451 2.020 . S
C448 O449 1.244 . S
C448 O472 1.257 . S
O449 C448 1.244 . S
O450 Zn442 2.019 . S
O450 C470 1.257 . S
Zn451 N447 2.020 . S
Zn451 O458 1.975 . S
Zn451 N467 2.119 . S
Zn451 O472 2.019 . S
N452 Zn442 2.119 . S
N452 C454 1.333 1_655 S
N452 C455 1.329 . S
C453 C454 1.391 . S
C453 N456 1.329 . S
C453 H474 0.930 . S
C454 N452 1.333 1_455 S
C454 C453 1.391 . S
C454 H461 0.930 . S
C455 N452 1.329 . S
C455 C457 1.392 . S
C455 H462 0.930 . S
N456 C453 1.329 . S
N456 C457 1.331 1_455 S
C457 C455 1.392 . S
C457 N456 1.331 1_655 S
O458 Zn451 1.975 . S
O458 C459 1.252 . S
C459 O458 1.252 . S
C459 O460 1.247 1_455 S
O460 Zn442 1.977 . S
O460 C459 1.247 1_655 S
H461 C454 0.930 . S
H462 C455 0.930 . S
C463 C464 1.392 . S
C463 N467 1.328 . S
C463 H469 0.930 . S
C464 C463 1.392 . S
C464 N468 1.331 . S
C465 C466 1.391 . S
C465 N468 1.329 . S
C465 H475 0.930 1_455 S
C466 C465 1.391 . S
C466 N467 1.334 . S
C466 H473 0.930 . S
N467 Zn451 2.119 . S
N467 C463 1.328 . S
N467 C466 1.334 . S
N468 C464 1.331 . S
N468 C465 1.329 . S
H469 C463 0.930 . S
C470 O450 1.257 . S
C470 O471 1.244 . S
O471 C470 1.244 . S
O472 C448 1.257 . S
O472 Zn451 2.019 . S
H473 C466 0.930 . S
H474 C453 0.930 . S
H475 C465 0.930 1_655 S
Zn476 N480 2.020 . S
Zn476 O484 2.019 . S
Zn476 N486 2.119 . S
Zn476 O494 1.975 . S
C477 N478 1.334 . S
C477 N481 1.336 . S
N478 C477 1.334 . S
N478 C479 1.334 . S
C479 N478 1.334 . S
C479 N480 1.336 . S
N480 Zn476 2.020 . S
N480 C479 1.336 . S
N480 N481 1.354 . S
N481 C477 1.336 . S
N481 N480 1.354 . S
N481 Zn485 2.020 1_655 S
C482 O483 1.244 . S
C482 O506 1.257 . S
O483 C482 1.244 . S
O484 Zn476 2.019 . S
O484 C504 1.257 . S
Zn485 N481 2.020 1_455 S
Zn485 O492 1.977 . S
Zn485 N501 2.119 . S
Zn485 O506 2.019 . S
N486 Zn476 2.119 . S
N486 C488 1.334 . S
N486 C489 1.328 . S
C487 C488 1.391 . S
C487 N490 1.329 . S
C487 H508 0.930 1_655 S
C488 N486 1.334 . S
C488 C487 1.391 . S
C488 H495 0.930 . S
C489 N486 1.328 . S
C489 C491 1.392 . S
C489 H496 0.930 . S
N490 C487 1.329 . S
N490 C491 1.331 . S
C491 C489 1.392 . S
C491 N490 1.331 . S
O492 Zn485 1.977 . S
O492 C493 1.247 1_455 S
C493 O492 1.247 1_655 S
C493 O494 1.252 . S
O494 Zn476 1.975 . S
O494 C493 1.252 . S
H495 C488 0.930 . S
H496 C489 0.930 . S
C497 C498 1.392 . S
C497 N501 1.329 . S
C497 H503 0.930 . S
C498 C497 1.392 . S
C498 N502 1.331 1_455 S
C499 C500 1.391 . S
C499 N502 1.329 . S
C499 H509 0.930 . S
C500 C499 1.391 . S
C500 N501 1.333 1_655 S
C500 H507 0.930 . S
N501 Zn485 2.119 . S
N501 C497 1.329 . S
N501 C500 1.333 1_455 S
N502 C498 1.331 1_655 S
N502 C499 1.329 . S
H503 C497 0.930 . S
C504 O484 1.257 . S
C504 O505 1.244 . S
O505 C504 1.244 . S
O506 C482 1.257 . S
O506 Zn485 2.019 . S
H507 C500 0.930 . S
H508 C487 0.930 1_455 S
H509 C499 0.930 . S
Zn510 N514 2.020 . S
Zn510 O518 2.019 . S
Zn510 N520 2.119 . S
Zn510 O528 1.975 . S
C511 N512 1.334 . S
C511 N515 1.336 . S
N512 C511 1.334 . S
N512 C513 1.334 . S
C513 N512 1.334 . S
C513 N514 1.336 . S
N514 Zn510 2.020 . S
N514 C513 1.336 . S
N514 N515 1.354 . S
N515 C511 1.336 . S
N515 N514 1.354 . S
N515 Zn519 2.020 . S
C516 O517 1.244 . S
C516 O540 1.257 . S
O517 C516 1.244 . S
O518 Zn510 2.019 . S
O518 C538 1.257 . S
Zn519 N515 2.020 . S
Zn519 O526 1.975 . S
Zn519 N535 2.119 . S
Zn519 O540 2.019 . S
N520 Zn510 2.119 . S
N520 C522 1.334 . S
N520 C523 1.328 . S
C521 C522 1.391 . S
C521 N524 1.329 . S
C521 H542 0.930 . S
C522 N520 1.334 . S
C522 C521 1.391 . S
C522 H529 0.930 . S
C523 N520 1.328 . S
C523 C525 1.392 . S
C523 H530 0.930 . S
N524 C521 1.329 . S
N524 C525 1.331 . S
C525 C523 1.392 . S
C525 N524 1.331 . S
O526 Zn519 1.975 . S
O526 C527 1.252 . S
C527 O526 1.252 . S
C527 O528 1.252 . S
O528 Zn510 1.975 . S
O528 C527 1.252 . S
H529 C522 0.930 . S
H530 C523 0.930 . S
C531 C532 1.392 . S
C531 N535 1.328 . S
C531 H537 0.930 . S
C532 C531 1.392 . S
C532 N536 1.331 . S
C533 C534 1.391 . S
C533 N536 1.329 . S
C533 H543 0.930 . S
C534 C533 1.391 . S
C534 N535 1.334 . S
C534 H541 0.930 . S
N535 Zn519 2.119 . S
N535 C531 1.328 . S
N535 C534 1.334 . S
N536 C532 1.331 . S
N536 C533 1.329 . S
H537 C531 0.930 . S
C538 O518 1.257 . S
C538 O539 1.244 . S
O539 C538 1.244 . S
O540 C516 1.257 . S
O540 Zn519 2.019 . S
H541 C534 0.930 . S
H542 C521 0.930 . S
H543 C533 0.930 . S
C544 C545 1.363 . S
C544 C550 1.379 . S
C544 N552 1.356 . S
C545 C544 1.363 . S
C545 C551 1.363 . S
C546 C547 1.363 . S
C546 C551 1.379 . S
C546 N553 1.356 . S
C547 C546 1.363 . S
C547 C550 1.363 . S
N548 C550 1.356 . S
N548 H560 0.984 . S
N548 H561 0.985 . S
N549 C551 1.356 . S
N549 H554 0.984 . S
N549 H555 0.985 . S
C550 C544 1.379 . S
C550 C547 1.363 . S
C550 N548 1.356 . S
C551 C545 1.363 . S
C551 C546 1.379 . S
C551 N549 1.356 . S
N552 C544 1.356 . S
N552 H558 0.984 . S
N552 H559 0.984 . S
N553 C546 1.356 . S
N553 H556 0.984 . S
N553 H557 0.985 . S
H554 N549 0.984 . S
H555 N549 0.985 . S
H556 N553 0.984 . S
H557 N553 0.985 . S
H558 N552 0.984 . S
H559 N552 0.984 . S
H560 N548 0.984 . S
H561 N548 0.985 . S
C562 C563 1.363 1_655 S
C562 C568 1.379 . S
C562 N570 1.356 1_655 S
C563 C562 1.363 1_455 S
C563 C569 1.363 1_455 S
C564 C565 1.363 . S
C564 C569 1.379 . S
C564 N571 1.356 . S
C565 C564 1.363 . S
C565 C568 1.363 . S
N566 C568 1.356 . S
N566 H578 0.984 . S
N566 H579 0.985 . S
N567 C569 1.356 1_455 S
N567 H572 0.984 . S
N567 H573 0.985 . S
C568 C562 1.379 . S
C568 C565 1.363 . S
C568 N566 1.356 . S
C569 C563 1.363 1_655 S
C569 C564 1.379 . S
C569 N567 1.356 1_655 S
N570 C562 1.356 1_455 S
N570 H576 0.984 . S
N570 H577 0.984 . S
N571 C564 1.356 . S
N571 H574 0.984 . S
N571 H575 0.985 . S
H572 N567 0.984 . S
H573 N567 0.985 . S
H574 N571 0.984 . S
H575 N571 0.985 . S
H576 N570 0.984 . S
H577 N570 0.984 . S
H578 N566 0.984 . S
H579 N566 0.985 . S
C580 C581 1.363 1_455 S
C580 C586 1.379 . S
C580 N588 1.356 1_455 S
C581 C580 1.363 1_655 S
C581 C587 1.363 1_655 S
C582 C583 1.363 . S
C582 C587 1.379 . S
C582 N589 1.356 . S
C583 C582 1.363 . S
C583 C586 1.363 . S
N584 C586 1.356 . S
N584 H596 0.984 . S
N584 H597 0.985 . S
N585 C587 1.356 1_655 S
N585 H590 0.984 . S
N585 H591 0.985 . S
C586 C580 1.379 . S
C586 C583 1.363 . S
C586 N584 1.356 . S
C587 C581 1.363 1_455 S
C587 C582 1.379 . S
C587 N585 1.356 1_455 S
N588 C580 1.356 1_655 S
N588 H594 0.984 . S
N588 H595 0.984 . S
N589 C582 1.356 . S
N589 H592 0.984 . S
N589 H593 0.985 . S
H590 N585 0.984 . S
H591 N585 0.985 . S
H592 N589 0.984 . S
H593 N589 0.985 . S
H594 N588 0.984 . S
H595 N588 0.984 . S
H596 N584 0.984 . S
H597 N584 0.985 . S
C598 C599 1.363 . S
C598 C604 1.379 . S
C598 N606 1.356 . S
C599 C598 1.363 . S
C599 C605 1.363 . S
C600 C601 1.363 . S
C600 C605 1.379 . S
C600 N607 1.356 . S
C601 C600 1.363 . S
C601 C604 1.363 . S
N602 C604 1.356 . S
N602 H614 0.984 . S
N602 H615 0.985 . S
N603 C605 1.356 . S
N603 H608 0.984 . S
N603 H609 0.985 . S
C604 C598 1.379 . S
C604 C601 1.363 . S
C604 N602 1.356 . S
C605 C599 1.363 . S
C605 C600 1.379 . S
C605 N603 1.356 . S
N606 C598 1.356 . S
N606 H612 0.984 . S
N606 H613 0.984 . S
N607 C600 1.356 . S
N607 H610 0.984 . S
N607 H611 0.985 . S
H608 N603 0.984 . S
H609 N603 0.985 . S
H610 N607 0.984 . S
H611 N607 0.985 . S
H612 N606 0.984 . S
H613 N606 0.984 . S
H614 N602 0.984 . S
H615 N602 0.985 . S
C616 C617 1.363 . S
C616 C622 1.379 . S
C616 N624 1.356 . S
C617 C616 1.363 . S
C617 C623 1.363 . S
C618 C619 1.363 . S
C618 C623 1.379 . S
C618 N625 1.356 . S
C619 C618 1.363 . S
C619 C622 1.363 . S
N620 C622 1.356 . S
N620 H632 0.984 . S
N620 H633 0.985 . S
N621 C623 1.356 . S
N621 H626 0.984 . S
N621 H627 0.985 . S
C622 C616 1.379 . S
C622 C619 1.363 . S
C622 N620 1.356 . S
C623 C617 1.363 . S
C623 C618 1.379 . S
C623 N621 1.356 . S
N624 C616 1.356 . S
N624 H630 0.984 . S
N624 H631 0.984 . S
N625 C618 1.356 . S
N625 H628 0.984 . S
N625 H629 0.985 . S
H626 N621 0.984 . S
H627 N621 0.985 . S
H628 N625 0.984 . S
H629 N625 0.985 . S
H630 N624 0.984 . S
H631 N624 0.984 . S
H632 N620 0.984 . S
H633 N620 0.985 . S
C634 C635 1.363 . S
C634 C640 1.379 . S
C634 N642 1.356 . S
C635 C634 1.363 . S
C635 C641 1.363 . S
C636 C637 1.363 1_455 S
C636 C641 1.379 . S
C636 N643 1.356 1_455 S
C637 C636 1.363 1_655 S
C637 C640 1.363 1_655 S
N638 C640 1.356 1_655 S
N638 H650 0.984 . S
N638 H651 0.985 . S
N639 C641 1.356 . S
N639 H644 0.984 . S
N639 H645 0.985 . S
C640 C634 1.379 . S
C640 C637 1.363 1_455 S
C640 N638 1.356 1_455 S
C641 C635 1.363 . S
C641 C636 1.379 . S
C641 N639 1.356 . S
N642 C634 1.356 . S
N642 H648 0.984 . S
N642 H649 0.984 . S
N643 C636 1.356 1_655 S
N643 H646 0.984 . S
N643 H647 0.985 . S
H644 N639 0.984 . S
H645 N639 0.985 . S
H646 N643 0.984 . S
H647 N643 0.985 . S
H648 N642 0.984 . S
H649 N642 0.984 . S
H650 N638 0.984 . S
H651 N638 0.985 . S
C652 C653 1.363 . S
C652 C658 1.379 . S
C652 N660 1.356 . S
C653 C652 1.363 . S
C653 C659 1.363 . S
C654 C655 1.363 1_655 S
C654 C659 1.379 . S
C654 N661 1.356 1_655 S
C655 C654 1.363 1_455 S
C655 C658 1.363 1_455 S
N656 C658 1.356 1_455 S
N656 H668 0.984 . S
N656 H669 0.985 . S
N657 C659 1.356 . S
N657 H662 0.984 . S
N657 H663 0.985 . S
C658 C652 1.379 . S
C658 C655 1.363 1_655 S
C658 N656 1.356 1_655 S
C659 C653 1.363 . S
C659 C654 1.379 . S
C659 N657 1.356 . S
N660 C652 1.356 . S
N660 H666 0.984 . S
N660 H667 0.984 . S
N661 C654 1.356 1_455 S
N661 H664 0.984 . S
N661 H665 0.985 . S
H662 N657 0.984 . S
H663 N657 0.985 . S
H664 N661 0.984 . S
H665 N661 0.985 . S
H666 N660 0.984 . S
H667 N660 0.984 . S
H668 N656 0.984 . S
H669 N656 0.985 . S
C670 C671 1.363 . S
C670 C676 1.379 . S
C670 N678 1.356 . S
C671 C670 1.363 . S
C671 C677 1.363 . S
C672 C673 1.363 . S
C672 C677 1.379 . S
C672 N679 1.356 . S
C673 C672 1.363 . S
C673 C676 1.363 . S
N674 C676 1.356 . S
N674 H686 0.984 . S
N674 H687 0.985 . S
N675 C677 1.356 . S
N675 H680 0.984 . S
N675 H681 0.985 . S
C676 C670 1.379 . S
C676 C673 1.363 . S
C676 N674 1.356 . S
C677 C671 1.363 . S
C677 C672 1.379 . S
C677 N675 1.356 . S
N678 C670 1.356 . S
N678 H684 0.984 . S
N678 H685 0.984 . S
N679 C672 1.356 . S
N679 H682 0.984 . S
N679 H683 0.985 . S
H680 N675 0.984 . S
H681 N675 0.985 . S
H682 N679 0.984 . S
H683 N679 0.985 . S
H684 N678 0.984 . S
H685 N678 0.984 . S
H686 N674 0.984 . S
H687 N674 0.985 . S
C688 C689 1.363 1_455 S
C688 C694 1.379 . S
C688 N696 1.356 1_455 S
C689 C688 1.363 1_655 S
C689 C695 1.363 1_655 S
C690 C691 1.363 . S
C690 C695 1.379 . S
C690 N697 1.356 . S
C691 C690 1.363 . S
C691 C694 1.363 . S
N692 C694 1.356 . S
N692 H704 0.984 . S
N692 H705 0.985 . S
N693 C695 1.356 1_655 S
N693 H698 0.984 . S
N693 H699 0.985 . S
C694 C688 1.379 . S
C694 C691 1.363 . S
C694 N692 1.356 . S
C695 C689 1.363 1_455 S
C695 C690 1.379 . S
C695 N693 1.356 1_455 S
N696 C688 1.356 1_655 S
N696 H702 0.984 . S
N696 H703 0.984 . S
N697 C690 1.356 . S
N697 H700 0.984 . S
N697 H701 0.985 . S
H698 N693 0.984 . S
H699 N693 0.985 . S
H700 N697 0.984 . S
H701 N697 0.985 . S
H702 N696 0.984 . S
H703 N696 0.984 . S
H704 N692 0.984 . S
H705 N692 0.985 . S
C706 C707 1.363 . S
C706 C712 1.379 . S
C706 N714 1.356 . S
C707 C706 1.363 . S
C707 C713 1.363 . S
C708 C709 1.363 . S
C708 C713 1.379 . S
C708 N715 1.356 . S
C709 C708 1.363 . S
C709 C712 1.363 . S
N710 C712 1.356 . S
N710 H722 0.984 . S
N710 H723 0.985 . S
N711 C713 1.356 . S
N711 H716 0.984 . S
N711 H717 0.985 . S
C712 C706 1.379 . S
C712 C709 1.363 . S
C712 N710 1.356 . S
C713 C707 1.363 . S
C713 C708 1.379 . S
C713 N711 1.356 . S
N714 C706 1.356 . S
N714 H720 0.984 . S
N714 H721 0.984 . S
N715 C708 1.356 . S
N715 H718 0.984 . S
N715 H719 0.985 . S
H716 N711 0.984 . S
H717 N711 0.985 . S
H718 N715 0.984 . S
H719 N715 0.985 . S
H720 N714 0.984 . S
H721 N714 0.984 . S
H722 N710 0.984 . S
H723 N710 0.985 . S
C724 C725 1.363 . S
C724 C730 1.379 . S
C724 N732 1.356 . S
C725 C724 1.363 . S
C725 C731 1.363 . S
C726 C727 1.363 . S
C726 C731 1.379 . S
C726 N733 1.356 . S
C727 C726 1.363 . S
C727 C730 1.363 . S
N728 C730 1.356 . S
N728 H740 0.984 . S
N728 H741 0.985 . S
N729 C731 1.356 . S
N729 H734 0.984 . S
N729 H735 0.985 . S
C730 C724 1.379 . S
C730 C727 1.363 . S
C730 N728 1.356 . S
C731 C725 1.363 . S
C731 C726 1.379 . S
C731 N729 1.356 . S
N732 C724 1.356 . S
N732 H738 0.984 . S
N732 H739 0.984 . S
N733 C726 1.356 . S
N733 H736 0.984 . S
N733 H737 0.985 . S
H734 N729 0.984 . S
H735 N729 0.985 . S
H736 N733 0.984 . S
H737 N733 0.985 . S
H738 N732 0.984 . S
H739 N732 0.984 . S
H740 N728 0.984 . S
H741 N728 0.985 . S
C742 C743 1.363 1_655 S
C742 C748 1.379 . S
C742 N750 1.356 1_655 S
C743 C742 1.363 1_455 S
C743 C749 1.363 1_455 S
C744 C745 1.363 . S
C744 C749 1.379 . S
C744 N751 1.356 . S
C745 C744 1.363 . S
C745 C748 1.363 . S
N746 C748 1.356 . S
N746 H758 0.984 . S
N746 H759 0.985 . S
N747 C749 1.356 1_455 S
N747 H752 0.984 . S
N747 H753 0.985 . S
C748 C742 1.379 . S
C748 C745 1.363 . S
C748 N746 1.356 . S
C749 C743 1.363 1_655 S
C749 C744 1.379 . S
C749 N747 1.356 1_655 S
N750 C742 1.356 1_455 S
N750 H756 0.984 . S
N750 H757 0.984 . S
N751 C744 1.356 . S
N751 H754 0.984 . S
N751 H755 0.985 . S
H752 N747 0.984 . S
H753 N747 0.985 . S
H754 N751 0.984 . S
H755 N751 0.985 . S
H756 N750 0.984 . S
H757 N750 0.984 . S
H758 N746 0.984 . S
H759 N746 0.985 . S
C760 C761 1.363 1_655 S
C760 C766 1.379 . S
C760 N768 1.356 1_655 S
C761 C760 1.363 1_455 S
C761 C767 1.363 1_455 S
C762 C763 1.363 . S
C762 C767 1.379 . S
C762 N769 1.356 . S
C763 C762 1.363 . S
C763 C766 1.363 . S
N764 C766 1.356 . S
N764 H776 0.984 . S
N764 H777 0.985 . S
N765 C767 1.356 1_455 S
N765 H770 0.984 . S
N765 H771 0.985 . S
C766 C760 1.379 . S
C766 C763 1.363 . S
C766 N764 1.356 . S
C767 C761 1.363 1_655 S
C767 C762 1.379 . S
C767 N765 1.356 1_655 S
N768 C760 1.356 1_455 S
N768 H774 0.984 . S
N768 H775 0.984 . S
N769 C762 1.356 . S
N769 H772 0.984 . S
N769 H773 0.985 . S
H770 N765 0.984 . S
H771 N765 0.985 . S
H772 N769 0.984 . S
H773 N769 0.985 . S
H774 N768 0.984 . S
H775 N768 0.984 . S
H776 N764 0.984 . S
H777 N764 0.985 . S
C778 C779 1.363 . S
C778 C784 1.379 . S
C778 N786 1.356 . S
C779 C778 1.363 . S
C779 C785 1.363 . S
C780 C781 1.363 . S
C780 C785 1.379 . S
C780 N787 1.356 . S
C781 C780 1.363 . S
C781 C784 1.363 . S
N782 C784 1.356 . S
N782 H794 0.984 . S
N782 H795 0.985 . S
N783 C785 1.356 . S
N783 H788 0.984 . S
N783 H789 0.985 . S
C784 C778 1.379 . S
C784 C781 1.363 . S
C784 N782 1.356 . S
C785 C779 1.363 . S
C785 C780 1.379 . S
C785 N783 1.356 . S
N786 C778 1.356 . S
N786 H792 0.984 . S
N786 H793 0.984 . S
N787 C780 1.356 . S
N787 H790 0.984 . S
N787 H791 0.985 . S
H788 N783 0.984 . S
H789 N783 0.985 . S
H790 N787 0.984 . S
H791 N787 0.985 . S
H792 N786 0.984 . S
H793 N786 0.984 . S
H794 N782 0.984 . S
H795 N782 0.985 . S
C796 C797 1.363 . S
C796 C802 1.379 . S
C796 N804 1.356 . S
C797 C796 1.363 . S
C797 C803 1.363 . S
C798 C799 1.363 . S
C798 C803 1.379 . S
C798 N805 1.356 . S
C799 C798 1.363 . S
C799 C802 1.363 . S
N800 C802 1.356 . S
N800 H812 0.984 . S
N800 H813 0.985 . S
N801 C803 1.356 . S
N801 H806 0.984 . S
N801 H807 0.985 . S
C802 C796 1.379 . S
C802 C799 1.363 . S
C802 N800 1.356 . S
C803 C797 1.363 . S
C803 C798 1.379 . S
C803 N801 1.356 . S
N804 C796 1.356 . S
N804 H810 0.984 . S
N804 H811 0.984 . S
N805 C798 1.356 . S
N805 H808 0.984 . S
N805 H809 0.985 . S
H806 N801 0.984 . S
H807 N801 0.985 . S
H808 N805 0.984 . S
H809 N805 0.985 . S
H810 N804 0.984 . S
H811 N804 0.984 . S
H812 N800 0.984 . S
H813 N800 0.985 . S
C814 C815 1.363 . S
C814 C820 1.379 . S
C814 N822 1.356 . S
C815 C814 1.363 . S
C815 C821 1.363 . S
C816 C817 1.363 1_455 S
C816 C821 1.379 . S
C816 N823 1.356 1_455 S
C817 C816 1.363 1_655 S
C817 C820 1.363 1_655 S
N818 C820 1.356 1_655 S
N818 H830 0.984 . S
N818 H831 0.985 . S
N819 C821 1.356 . S
N819 H824 0.984 . S
N819 H825 0.985 . S
C820 C814 1.379 . S
C820 C817 1.363 1_455 S
C820 N818 1.356 1_455 S
C821 C815 1.363 . S
C821 C816 1.379 . S
C821 N819 1.356 . S
N822 C814 1.356 . S
N822 H828 0.984 . S
N822 H829 0.984 . S
N823 C816 1.356 1_655 S
N823 H826 0.984 . S
N823 H827 0.985 . S
H824 N819 0.984 . S
H825 N819 0.985 . S
H826 N823 0.984 . S
H827 N823 0.985 . S
H828 N822 0.984 . S
H829 N822 0.984 . S
H830 N818 0.984 . S
H831 N818 0.985 . S
C832 C833 1.363 1_556 S
C832 C838 1.379 . S
C832 N840 1.353 1_556 S
C833 C832 1.363 1_554 S
C833 C839 1.363 . S
C834 C835 1.363 1_554 S
C834 C839 1.379 . S
C834 N841 1.356 . S
C835 C834 1.363 1_556 S
C835 C838 1.363 . S
N836 C838 1.356 . S
N836 H848 0.984 . S
N836 H849 0.985 . S
N837 C839 1.356 . S
N837 H842 0.984 . S
N837 H843 0.985 . S
C838 C832 1.379 . S
C838 C835 1.363 . S
C838 N836 1.356 . S
C839 C833 1.363 . S
C839 C834 1.379 . S
C839 N837 1.356 . S
N840 C832 1.353 1_554 S
N840 H846 0.966 1_554 S
N840 H847 1.006 . S
N841 C834 1.356 . S
N841 H844 0.984 1_554 S
N841 H845 0.985 . S
H842 N837 0.984 . S
H843 N837 0.985 . S
H844 N841 0.984 1_556 S
H845 N841 0.985 . S
H846 N840 0.966 1_556 S
H847 N840 1.006 . S
H848 N836 0.984 . S
H849 N836 0.985 . S
C850 C851 1.363 . S
C850 C856 1.379 1_554 S
C850 N858 1.356 . S
C851 C850 1.363 . S
C851 C857 1.363 . S
C852 C853 1.363 . S
C852 C857 1.379 1_556 S
C852 N859 1.356 . S
C853 C852 1.363 . S
C853 C856 1.363 . S
N854 C856 1.356 . S
N854 H866 0.984 . S
N854 H867 0.985 1_455 S
N855 C857 1.356 . S
N855 H860 0.984 . S
N855 H861 0.985 . S
C856 C850 1.379 1_556 S
C856 C853 1.363 . S
C856 N854 1.356 . S
C857 C851 1.363 . S
C857 C852 1.379 1_554 S
C857 N855 1.356 . S
N858 C850 1.356 . S
N858 H864 0.984 . S
N858 H865 0.984 . S
N859 C852 1.356 . S
N859 H862 0.984 . S
N859 H863 0.985 . S
H860 N855 0.984 . S
H861 N855 0.985 . S
H862 N859 0.984 . S
H863 N859 0.985 . S
H864 N858 0.984 . S
H865 N858 0.984 . S
H866 N854 0.984 . S
H867 N854 0.985 1_655 S
C868 C869 1.363 . S
C868 C874 1.379 . S
C868 N876 1.356 . S
C869 C868 1.363 . S
C869 C875 1.363 . S
C870 C871 1.363 . S
C870 C875 1.379 . S
C870 N877 1.356 1_655 S
C871 C870 1.363 . S
C871 C874 1.363 . S
N872 C874 1.356 . S
N872 H884 0.984 . S
N872 H885 0.985 . S
N873 C875 1.356 . S
N873 H878 0.984 . S
N873 H879 0.985 . S
C874 C868 1.379 . S
C874 C871 1.363 . S
C874 N872 1.356 . S
C875 C869 1.363 . S
C875 C870 1.379 . S
C875 N873 1.356 . S
N876 C868 1.356 . S
N876 H882 0.984 . S
N876 H883 0.984 . S
N877 C870 1.356 1_455 S
N877 H880 0.984 . S
N877 H881 0.985 . S
H878 N873 0.984 . S
H879 N873 0.985 . S
H880 N877 0.984 . S
H881 N877 0.985 . S
H882 N876 0.984 . S
H883 N876 0.984 . S
H884 N872 0.984 . S
H885 N872 0.985 . S
C886 C887 1.363 . S
C886 C892 1.379 . S
C886 N894 1.356 . S
C887 C886 1.363 . S
C887 C893 1.363 . S
C888 C889 1.363 . S
C888 C893 1.379 . S
C888 N895 1.356 . S
C889 C888 1.363 . S
C889 C892 1.363 . S
N890 C892 1.356 . S
N890 H902 0.984 . S
N890 H903 0.985 . S
N891 C893 1.356 . S
N891 H896 0.984 . S
N891 H897 0.985 . S
C892 C886 1.379 . S
C892 C889 1.363 . S
C892 N890 1.356 . S
C893 C887 1.363 . S
C893 C888 1.379 . S
C893 N891 1.356 . S
N894 C886 1.356 . S
N894 H900 0.984 . S
N894 H901 0.984 . S
N895 C888 1.356 . S
N895 H898 0.984 . S
N895 H899 0.985 . S
H896 N891 0.984 . S
H897 N891 0.985 . S
H898 N895 0.984 . S
H899 N895 0.985 . S
H900 N894 0.984 . S
H901 N894 0.984 . S
H902 N890 0.984 . S
H903 N890 0.985 . S
C904 C905 1.363 1_554 S
C904 C910 1.379 . S
C904 N912 1.356 . S
C905 C904 1.363 1_556 S
C905 C911 1.363 . S
C906 C907 1.363 1_556 S
C906 C911 1.379 . S
C906 N913 1.356 . S
C907 C906 1.363 1_554 S
C907 C910 1.363 . S
N908 C910 1.356 . S
N908 H920 0.984 . S
N908 H921 0.985 . S
N909 C911 1.356 . S
N909 H914 0.984 . S
N909 H915 0.985 . S
C910 C904 1.379 . S
C910 C907 1.363 . S
C910 N908 1.356 . S
C911 C905 1.363 . S
C911 C906 1.379 . S
C911 N909 1.356 . S
N912 C904 1.356 . S
N912 H918 0.984 . S
N912 H919 0.984 1_554 S
N913 C906 1.356 . S
N913 H916 0.984 1_556 S
N913 H917 0.985 . S
H914 N909 0.984 . S
H915 N909 0.985 . S
H916 N913 0.984 1_554 S
H917 N913 0.985 . S
H918 N912 0.984 . S
H919 N912 0.984 1_556 S
H920 N908 0.984 . S
H921 N908 0.985 . S
C922 C923 1.363 1_554 S
C922 C928 1.379 . S
C922 N930 1.356 . S
C923 C922 1.363 1_556 S
C923 C929 1.363 . S
C924 C925 1.363 1_556 S
C924 C929 1.379 . S
C924 N931 1.356 . S
C925 C924 1.363 1_554 S
C925 C928 1.363 . S
N926 C928 1.356 . S
N926 H938 0.984 . S
N926 H939 0.985 . S
N927 C929 1.356 . S
N927 H932 0.984 . S
N927 H933 0.985 . S
C928 C922 1.379 . S
C928 C925 1.363 . S
C928 N926 1.356 . S
C929 C923 1.363 . S
C929 C924 1.379 . S
C929 N927 1.356 . S
N930 C922 1.356 . S
N930 H936 0.984 . S
N930 H937 0.984 1_554 S
N931 C924 1.356 . S
N931 H934 0.984 1_656 S
N931 H935 0.985 . S
H932 N927 0.984 . S
H933 N927 0.985 . S
H934 N931 0.984 1_454 S
H935 N931 0.985 . S
H936 N930 0.984 . S
H937 N930 0.984 1_556 S
H938 N926 0.984 . S
H939 N926 0.985 . S
C940 C941 1.363 . S
C940 C946 1.379 . S
C940 N948 1.356 1_455 S
C941 C940 1.363 . S
C941 C947 1.363 . S
C942 C943 1.363 . S
C942 C947 1.379 . S
C942 N949 1.356 . S
C943 C942 1.363 . S
C943 C946 1.363 . S
N944 C946 1.356 . S
N944 H956 0.984 . S
N944 H957 0.985 . S
N945 C947 1.356 . S
N945 H950 0.984 . S
N945 H951 0.985 . S
C946 C940 1.379 . S
C946 C943 1.363 . S
C946 N944 1.356 . S
C947 C941 1.363 . S
C947 C942 1.379 . S
C947 N945 1.356 . S
N948 C940 1.356 1_655 S
N948 H954 0.984 . S
N948 H955 0.984 . S
N949 C942 1.356 . S
N949 H952 0.984 . S
N949 H953 0.985 . S
H950 N945 0.984 . S
H951 N945 0.985 . S
H952 N949 0.984 . S
H953 N949 0.985 . S
H954 N948 0.984 . S
H955 N948 0.984 . S
H956 N944 0.984 . S
H957 N944 0.985 . S
C958 C959 1.363 . S
C958 C964 1.379 . S
C958 N966 1.356 . S
C959 C958 1.363 . S
C959 C965 1.363 . S
C960 C961 1.363 . S
C960 C965 1.379 . S
C960 N967 1.356 . S
C961 C960 1.363 . S
C961 C964 1.363 . S
N962 C964 1.356 . S
N962 H974 0.984 . S
N962 H975 0.985 . S
N963 C965 1.356 . S
N963 H968 0.984 . S
N963 H969 0.985 . S
C964 C958 1.379 . S
C964 C961 1.363 . S
C964 N962 1.356 . S
C965 C959 1.363 . S
C965 C960 1.379 . S
C965 N963 1.356 . S
N966 C958 1.356 . S
N966 H972 0.984 . S
N966 H973 0.984 . S
N967 C960 1.356 . S
N967 H970 0.984 . S
N967 H971 0.985 . S
H968 N963 0.984 . S
H969 N963 0.985 . S
H970 N967 0.984 . S
H971 N967 0.985 . S
H972 N966 0.984 . S
H973 N966 0.984 . S
H974 N962 0.984 . S
H975 N962 0.985 . S
C976 C977 1.363 . S
C976 C982 1.379 1_554 S
C976 N984 1.356 . S
C977 C976 1.363 . S
C977 C983 1.363 . S
C978 C979 1.363 . S
C978 C983 1.379 1_556 S
C978 N985 1.356 . S
C979 C978 1.363 . S
C979 C982 1.363 . S
N980 C982 1.356 . S
N980 H992 0.984 . S
N980 H993 0.988 . S
N981 C983 1.356 . S
N981 H986 0.984 . S
N981 H987 0.985 . S
C982 C976 1.379 1_556 S
C982 C979 1.363 . S
C982 N980 1.356 . S
C983 C977 1.363 . S
C983 C978 1.379 1_554 S
C983 N981 1.356 . S
N984 C976 1.356 . S
N984 H990 0.984 . S
N984 H991 0.984 . S
N985 C978 1.356 . S
N985 H988 0.984 . S
N985 H989 0.985 . S
H986 N981 0.984 . S
H987 N981 0.985 . S
H988 N985 0.984 . S
H989 N985 0.985 . S
H990 N984 0.984 . S
H991 N984 0.984 . S
H992 N980 0.984 . S
H993 N980 0.988 . S
C994 C995 1.363 . S
C994 C1000 1.379 . S
C994 N1002 1.356 . S
C995 C994 1.363 . S
C995 C1001 1.363 1_556 S
C996 C997 1.363 . S
C996 C1001 1.379 . S
C996 N1003 1.356 . S
C997 C996 1.363 . S
C997 C1000 1.363 1_554 S
N998 C1000 1.356 . S
N998 H1010 0.984 . S
N998 H1011 0.985 1_556 S
N999 C1001 1.356 . S
N999 H1004 0.984 1_554 S
N999 H1005 0.985 . S
C1000 C994 1.379 . S
C1000 C997 1.363 1_556 S
C1000 N998 1.356 . S
C1001 C995 1.363 1_554 S
C1001 C996 1.379 . S
C1001 N999 1.356 . S
N1002 C994 1.356 . S
N1002 H1008 0.984 . S
N1002 H1009 0.984 . S
N1003 C996 1.356 . S
N1003 H1006 0.984 . S
N1003 H1007 0.985 . S
H1004 N999 0.984 1_556 S
H1005 N999 0.985 . S
H1006 N1003 0.984 . S
H1007 N1003 0.985 . S
H1008 N1002 0.984 . S
H1009 N1002 0.984 . S
H1010 N998 0.984 . S
H1011 N998 0.985 1_554 S
C1012 C1013 1.363 . S
C1012 C1018 1.379 . S
C1012 N1020 1.356 . S
C1013 C1012 1.363 . S
C1013 C1019 1.363 . S
C1014 C1015 1.363 . S
C1014 C1019 1.379 . S
C1014 N1021 1.356 . S
C1015 C1014 1.363 . S
C1015 C1018 1.363 . S
N1016 C1018 1.356 . S
N1016 H1028 0.984 . S
N1016 H1029 0.985 . S
N1017 C1019 1.356 . S
N1017 H1022 0.984 . S
N1017 H1023 0.985 . S
C1018 C1012 1.379 . S
C1018 C1015 1.363 . S
C1018 N1016 1.356 . S
C1019 C1013 1.363 . S
C1019 C1014 1.379 . S
C1019 N1017 1.356 . S
N1020 C1012 1.356 . S
N1020 H1026 0.984 . S
N1020 H1027 0.984 . S
N1021 C1014 1.356 . S
N1021 H1024 0.984 . S
N1021 H1025 0.985 . S
H1022 N1017 0.984 . S
H1023 N1017 0.985 . S
H1024 N1021 0.984 . S
H1025 N1021 0.985 . S
H1026 N1020 0.984 . S
H1027 N1020 0.984 . S
H1028 N1016 0.984 . S
H1029 N1016 0.985 . S
C1030 C1031 1.363 . S
C1030 C1036 1.379 . S
C1030 N1038 1.356 . S
C1031 C1030 1.363 . S
C1031 C1037 1.363 . S
C1032 C1033 1.363 . S
C1032 C1037 1.379 . S
C1032 N1039 1.356 . S
C1033 C1032 1.363 . S
C1033 C1036 1.363 . S
N1034 C1036 1.356 . S
N1034 H1046 0.984 . S
N1034 H1047 0.985 . S
N1035 C1037 1.356 . S
N1035 H1040 0.984 . S
N1035 H1041 0.985 . S
C1036 C1030 1.379 . S
C1036 C1033 1.363 . S
C1036 N1034 1.356 . S
C1037 C1031 1.363 . S
C1037 C1032 1.379 . S
C1037 N1035 1.356 . S
N1038 C1030 1.356 . S
N1038 H1044 0.984 1_455 S
N1038 H1045 0.984 1_455 S
N1039 C1032 1.356 . S
N1039 H1042 0.984 . S
N1039 H1043 0.985 . S
H1040 N1035 0.984 . S
H1041 N1035 0.985 . S
H1042 N1039 0.984 . S
H1043 N1039 0.985 . S
H1044 N1038 0.984 1_655 S
H1045 N1038 0.984 1_655 S
H1046 N1034 0.984 . S
H1047 N1034 0.985 . S
C1048 C1049 1.363 . S
C1048 C1054 1.379 1_554 S
C1048 N1056 1.356 1_455 S
C1049 C1048 1.363 . S
C1049 C1055 1.363 . S
C1050 C1051 1.363 . S
C1050 C1055 1.379 1_556 S
C1050 N1057 1.356 . S
C1051 C1050 1.363 . S
C1051 C1054 1.363 . S
N1052 C1054 1.356 . S
N1052 H1064 0.984 . S
N1052 H1065 0.985 . S
N1053 C1055 1.356 . S
N1053 H1058 0.984 . S
N1053 H1059 0.985 . S
C1054 C1048 1.379 1_556 S
C1054 C1051 1.363 . S
C1054 N1052 1.356 . S
C1055 C1049 1.363 . S
C1055 C1050 1.379 1_554 S
C1055 N1053 1.356 . S
N1056 C1048 1.356 1_655 S
N1056 H1062 0.984 . S
N1056 H1063 0.984 . S
N1057 C1050 1.356 . S
N1057 H1060 0.984 . S
N1057 H1061 0.985 . S
H1058 N1053 0.984 . S
H1059 N1053 0.985 . S
H1060 N1057 0.984 . S
H1061 N1057 0.985 . S
H1062 N1056 0.984 . S
H1063 N1056 0.984 . S
H1064 N1052 0.984 . S
H1065 N1052 0.985 . S
C1066 C1067 1.363 1_554 S
C1066 C1072 1.379 . S
C1066 N1074 1.356 . S
C1067 C1066 1.363 1_556 S
C1067 C1073 1.363 . S
C1068 C1069 1.363 1_556 S
C1068 C1073 1.379 . S
C1068 N1075 1.356 . S
C1069 C1068 1.363 1_554 S
C1069 C1072 1.363 . S
N1070 C1072 1.356 . S
N1070 H1082 0.984 . S
N1070 H1083 0.985 . S
N1071 C1073 1.356 . S
N1071 H1076 0.984 . S
N1071 H1077 0.985 . S
C1072 C1066 1.379 . S
C1072 C1069 1.363 . S
C1072 N1070 1.356 . S
C1073 C1067 1.363 . S
C1073 C1068 1.379 . S
C1073 N1071 1.356 . S
N1074 C1066 1.356 . S
N1074 H1080 0.984 . S
N1074 H1081 0.984 1_554 S
N1075 C1068 1.356 . S
N1075 H1078 0.984 1_556 S
N1075 H1079 0.985 . S
H1076 N1071 0.984 . S
H1077 N1071 0.985 . S
H1078 N1075 0.984 1_554 S
H1079 N1075 0.985 . S
H1080 N1074 0.984 . S
H1081 N1074 0.984 1_556 S
H1082 N1070 0.984 . S
H1083 N1070 0.985 . S
C1084 C1085 1.363 . S
C1084 C1090 1.379 . S
C1084 N1092 1.356 . S
C1085 C1084 1.363 . S
C1085 C1091 1.363 . S
C1086 C1087 1.363 . S
C1086 C1091 1.379 . S
C1086 N1093 1.356 . S
C1087 C1086 1.363 . S
C1087 C1090 1.363 . S
N1088 C1090 1.356 . S
N1088 H1100 0.984 . S
N1088 H1101 0.985 . S
N1089 C1091 1.356 . S
N1089 H1094 0.984 . S
N1089 H1095 0.985 . S
C1090 C1084 1.379 . S
C1090 C1087 1.363 . S
C1090 N1088 1.356 . S
C1091 C1085 1.363 . S
C1091 C1086 1.379 . S
C1091 N1089 1.356 . S
N1092 C1084 1.356 . S
N1092 H1098 0.984 . S
N1092 H1099 0.984 . S
N1093 C1086 1.356 . S
N1093 H1096 0.984 . S
N1093 H1097 0.985 . S
H1094 N1089 0.984 . S
H1095 N1089 0.985 . S
H1096 N1093 0.984 . S
H1097 N1093 0.985 . S
H1098 N1092 0.984 . S
H1099 N1092 0.984 . S
H1100 N1088 0.984 . S
H1101 N1088 0.985 . S
C1102 C1103 1.363 . S
C1102 C1108 1.379 . S
C1102 N1110 1.356 . S
C1103 C1102 1.363 . S
C1103 C1109 1.363 . S
C1104 C1105 1.363 . S
C1104 C1109 1.379 . S
C1104 N1111 1.356 . S
C1105 C1104 1.363 . S
C1105 C1108 1.363 . S
N1106 C1108 1.356 . S
N1106 H1118 0.984 . S
N1106 H1119 0.985 1_655 S
N1107 C1109 1.356 . S
N1107 H1112 0.984 . S
N1107 H1113 0.985 . S
C1108 C1102 1.379 . S
C1108 C1105 1.363 . S
C1108 N1106 1.356 . S
C1109 C1103 1.363 . S
C1109 C1104 1.379 . S
C1109 N1107 1.356 . S
N1110 C1102 1.356 . S
N1110 H1116 0.984 . S
N1110 H1117 0.984 . S
N1111 C1104 1.356 . S
N1111 H1114 0.984 . S
N1111 H1115 0.985 . S
H1112 N1107 0.984 . S
H1113 N1107 0.985 . S
H1114 N1111 0.984 . S
H1115 N1111 0.985 . S
H1116 N1110 0.984 . S
H1117 N1110 0.984 . S
H1118 N1106 0.984 . S
H1119 N1106 0.985 1_455 S
C1120 C1121 1.363 . S
C1120 C1126 1.379 1_545 S
C1120 N1128 1.356 . S
C1121 C1120 1.363 . S
C1121 C1127 1.363 . S
C1122 C1123 1.363 . S
C1122 C1127 1.379 1_565 S
C1122 N1129 1.356 . S
C1123 C1122 1.363 . S
C1123 C1126 1.363 . S
N1124 C1126 1.356 . S
N1124 H1136 0.984 . S
N1124 H1137 0.985 . S
N1125 C1127 1.356 . S
N1125 H1130 0.984 . S
N1125 H1131 0.985 . S
C1126 C1120 1.379 1_565 S
C1126 C1123 1.363 . S
C1126 N1124 1.356 . S
C1127 C1121 1.363 . S
C1127 C1122 1.379 1_545 S
C1127 N1125 1.356 . S
N1128 C1120 1.356 . S
N1128 H1134 0.984 . S
N1128 H1135 0.984 . S
N1129 C1122 1.356 . S
N1129 H1132 0.984 . S
N1129 H1133 0.985 . S
H1130 N1125 0.984 . S
H1131 N1125 0.985 . S
H1132 N1129 0.984 . S
H1133 N1129 0.985 . S
H1134 N1128 0.984 . S
H1135 N1128 0.984 . S
H1136 N1124 0.984 . S
H1137 N1124 0.985 . S
C1138 C1139 1.363 . S
C1138 C1144 1.379 1_545 S
C1138 N1146 1.356 . S
C1139 C1138 1.363 . S
C1139 C1145 1.363 . S
C1140 C1141 1.363 . S
C1140 C1145 1.379 1_565 S
C1140 N1147 1.356 . S
C1141 C1140 1.363 . S
C1141 C1144 1.363 . S
N1142 C1144 1.356 . S
N1142 H1154 0.984 . S
N1142 H1155 0.985 . S
N1143 C1145 1.356 . S
N1143 H1148 0.984 . S
N1143 H1149 0.985 . S
C1144 C1138 1.379 1_565 S
C1144 C1141 1.363 . S
C1144 N1142 1.356 . S
C1145 C1139 1.363 . S
C1145 C1140 1.379 1_545 S
C1145 N1143 1.356 . S
N1146 C1138 1.356 . S
N1146 H1152 0.984 . S
N1146 H1153 0.984 . S
N1147 C1140 1.356 . S
N1147 H1150 0.984 . S
N1147 H1151 0.985 . S
H1148 N1143 0.984 . S
H1149 N1143 0.985 . S
H1150 N1147 0.984 . S
H1151 N1147 0.985 . S
H1152 N1146 0.984 . S
H1153 N1146 0.984 . S
H1154 N1142 0.984 . S
H1155 N1142 0.985 . S
C1156 C1157 1.363 . S
C1156 C1162 1.379 1_565 S
C1156 N1164 1.356 . S
C1157 C1156 1.363 . S
C1157 C1163 1.363 . S
C1158 C1159 1.363 . S
C1158 C1163 1.379 1_545 S
C1158 N1165 1.356 . S
C1159 C1158 1.363 . S
C1159 C1162 1.363 . S
N1160 C1162 1.356 . S
N1160 H1172 0.984 . S
N1160 H1173 0.985 . S
N1161 C1163 1.356 . S
N1161 H1166 0.984 . S
N1161 H1167 0.985 . S
C1162 C1156 1.379 1_545 S
C1162 C1159 1.363 . S
C1162 N1160 1.356 . S
C1163 C1157 1.363 . S
C1163 C1158 1.379 1_565 S
C1163 N1161 1.356 . S
N1164 C1156 1.356 . S
N1164 H1170 0.984 . S
N1164 H1171 0.984 . S
N1165 C1158 1.356 . S
N1165 H1168 0.984 . S
N1165 H1169 0.985 . S
H1166 N1161 0.984 . S
H1167 N1161 0.985 . S
H1168 N1165 0.984 . S
H1169 N1165 0.985 . S
H1170 N1164 0.984 . S
H1171 N1164 0.984 . S
H1172 N1160 0.984 . S
H1173 N1160 0.985 . S
C1174 C1175 1.363 . S
C1174 C1180 1.379 1_565 S
C1174 N1182 1.356 . S
C1175 C1174 1.363 . S
C1175 C1181 1.363 . S
C1176 C1177 1.363 . S
C1176 C1181 1.379 1_545 S
C1176 N1183 1.356 . S
C1177 C1176 1.363 . S
C1177 C1180 1.363 . S
N1178 C1180 1.356 . S
N1178 H1190 0.984 . S
N1178 H1191 0.985 . S
N1179 C1181 1.356 . S
N1179 H1184 0.984 . S
N1179 H1185 0.985 . S
C1180 C1174 1.379 1_545 S
C1180 C1177 1.363 . S
C1180 N1178 1.356 . S
C1181 C1175 1.363 . S
C1181 C1176 1.379 1_565 S
C1181 N1179 1.356 . S
N1182 C1174 1.356 . S
N1182 H1188 0.984 . S
N1182 H1189 0.984 . S
N1183 C1176 1.356 . S
N1183 H1186 0.984 . S
N1183 H1187 0.985 . S
H1184 N1179 0.984 . S
H1185 N1179 0.985 . S
H1186 N1183 0.984 . S
H1187 N1183 0.985 . S
H1188 N1182 0.984 . S
H1189 N1182 0.984 . S
H1190 N1178 0.984 . S
H1191 N1178 0.985 . S
C1192 C1193 1.363 . S
C1192 C1198 1.379 . S
C1192 N1200 1.356 . S
C1193 C1192 1.363 . S
C1193 C1199 1.363 . S
C1194 C1195 1.363 . S
C1194 C1199 1.379 . S
C1194 N1201 1.356 . S
C1195 C1194 1.363 . S
C1195 C1198 1.363 . S
N1196 C1198 1.356 . S
N1196 H1208 0.984 . S
N1196 H1209 0.985 . S
N1197 C1199 1.356 . S
N1197 H1202 0.984 . S
N1197 H1203 0.985 . S
C1198 C1192 1.379 . S
C1198 C1195 1.363 . S
C1198 N1196 1.356 . S
C1199 C1193 1.363 . S
C1199 C1194 1.379 . S
C1199 N1197 1.356 . S
N1200 C1192 1.356 . S
N1200 H1206 0.984 . S
N1200 H1207 0.984 . S
N1201 C1194 1.356 . S
N1201 H1204 0.984 . S
N1201 H1205 0.985 . S
H1202 N1197 0.984 . S
H1203 N1197 0.985 . S
H1204 N1201 0.984 . S
H1205 N1201 0.985 . S
H1206 N1200 0.984 . S
H1207 N1200 0.984 . S
H1208 N1196 0.984 . S
H1209 N1196 0.985 . S
C1210 C1211 1.363 . S
C1210 C1216 1.379 . S
C1210 N1218 1.356 . S
C1211 C1210 1.363 . S
C1211 C1217 1.363 . S
C1212 C1213 1.363 . S
C1212 C1217 1.379 . S
C1212 N1219 1.356 . S
C1213 C1212 1.363 . S
C1213 C1216 1.363 . S
N1214 C1216 1.356 . S
N1214 H1226 0.984 . S
N1214 H1227 0.985 . S
N1215 C1217 1.356 . S
N1215 H1220 0.984 . S
N1215 H1221 0.985 . S
C1216 C1210 1.379 . S
C1216 C1213 1.363 . S
C1216 N1214 1.356 . S
C1217 C1211 1.363 . S
C1217 C1212 1.379 . S
C1217 N1215 1.356 . S
N1218 C1210 1.356 . S
N1218 H1224 0.984 . S
N1218 H1225 0.984 . S
N1219 C1212 1.356 . S
N1219 H1222 0.984 . S
N1219 H1223 0.985 . S
H1220 N1215 0.984 . S
H1221 N1215 0.985 . S
H1222 N1219 0.984 . S
H1223 N1219 0.985 . S
H1224 N1218 0.984 . S
H1225 N1218 0.984 . S
H1226 N1214 0.984 . S
H1227 N1214 0.985 . S
C1228 C1229 1.363 . S
C1228 C1234 1.379 . S
C1228 N1236 1.356 . S
C1229 C1228 1.363 . S
C1229 C1235 1.363 . S
C1230 C1231 1.363 . S
C1230 C1235 1.379 . S
C1230 N1237 1.356 . S
C1231 C1230 1.363 . S
C1231 C1234 1.363 . S
N1232 C1234 1.356 . S
N1232 H1244 0.984 . S
N1232 H1245 0.985 . S
N1233 C1235 1.356 . S
N1233 H1238 0.984 . S
N1233 H1239 0.985 . S
C1234 C1228 1.379 . S
C1234 C1231 1.363 . S
C1234 N1232 1.356 . S
C1235 C1229 1.363 . S
C1235 C1230 1.379 . S
C1235 N1233 1.356 . S
N1236 C1228 1.356 . S
N1236 H1242 0.984 . S
N1236 H1243 0.984 . S
N1237 C1230 1.356 . S
N1237 H1240 0.984 . S
N1237 H1241 0.985 . S
H1238 N1233 0.984 . S
H1239 N1233 0.985 . S
H1240 N1237 0.984 . S
H1241 N1237 0.985 . S
H1242 N1236 0.984 . S
H1243 N1236 0.984 . S
H1244 N1232 0.984 . S
H1245 N1232 0.985 . S
C1246 C1247 1.363 . S
C1246 C1252 1.379 . S
C1246 N1254 1.356 . S
C1247 C1246 1.363 . S
C1247 C1253 1.363 . S
C1248 C1249 1.363 . S
C1248 C1253 1.379 . S
C1248 N1255 1.356 . S
C1249 C1248 1.363 . S
C1249 C1252 1.363 . S
N1250 C1252 1.356 . S
N1250 H1262 0.984 . S
N1250 H1263 0.985 . S
N1251 C1253 1.356 . S
N1251 H1256 0.984 . S
N1251 H1257 0.985 . S
C1252 C1246 1.379 . S
C1252 C1249 1.363 . S
C1252 N1250 1.356 . S
C1253 C1247 1.363 . S
C1253 C1248 1.379 . S
C1253 N1251 1.356 . S
N1254 C1246 1.356 . S
N1254 H1260 0.984 . S
N1254 H1261 0.984 . S
N1255 C1248 1.356 . S
N1255 H1258 0.984 . S
N1255 H1259 0.985 . S
H1256 N1251 0.984 . S
H1257 N1251 0.985 . S
H1258 N1255 0.984 . S
H1259 N1255 0.985 . S
H1260 N1254 0.984 . S
H1261 N1254 0.984 . S
H1262 N1250 0.984 . S
H1263 N1250 0.985 . S
C1264 C1265 1.363 . S
C1264 C1270 1.379 . S
C1264 N1272 1.356 . S
C1265 C1264 1.363 . S
C1265 C1271 1.363 1_655 S
C1266 C1267 1.363 . S
C1266 C1271 1.379 . S
C1266 N1273 1.356 . S
C1267 C1266 1.363 . S
C1267 C1270 1.363 1_455 S
N1268 C1270 1.356 . S
N1268 H1280 0.984 . S
N1268 H1281 0.985 1_655 S
N1269 C1271 1.356 . S
N1269 H1274 0.984 1_455 S
N1269 H1275 0.985 . S
C1270 C1264 1.379 . S
C1270 C1267 1.363 1_655 S
C1270 N1268 1.356 . S
C1271 C1265 1.363 1_455 S
C1271 C1266 1.379 . S
C1271 N1269 1.356 . S
N1272 C1264 1.356 . S
N1272 H1278 0.984 . S
N1272 H1279 0.984 . S
N1273 C1266 1.356 . S
N1273 H1276 0.984 . S
N1273 H1277 0.985 . S
H1274 N1269 0.984 1_655 S
H1275 N1269 0.985 . S
H1276 N1273 0.984 . S
H1277 N1273 0.985 . S
H1278 N1272 0.984 . S
H1279 N1272 0.984 . S
H1280 N1268 0.984 . S
H1281 N1268 0.985 1_455 S
C1282 C1283 1.363 . S
C1282 C1288 1.379 . S
C1282 N1290 1.356 . S
C1283 C1282 1.363 . S
C1283 C1289 1.363 . S
C1284 C1285 1.363 . S
C1284 C1289 1.379 . S
C1284 N1291 1.356 . S
C1285 C1284 1.363 . S
C1285 C1288 1.363 . S
N1286 C1288 1.356 . S
N1286 H1298 0.984 . S
N1286 H1299 0.985 . S
N1287 C1289 1.356 . S
N1287 H1292 0.984 . S
N1287 H1293 0.985 . S
C1288 C1282 1.379 . S
C1288 C1285 1.363 . S
C1288 N1286 1.356 . S
C1289 C1283 1.363 . S
C1289 C1284 1.379 . S
C1289 N1287 1.356 . S
N1290 C1282 1.356 . S
N1290 H1296 0.984 . S
N1290 H1297 0.984 . S
N1291 C1284 1.356 . S
N1291 H1294 0.984 . S
N1291 H1295 0.985 . S
H1292 N1287 0.984 . S
H1293 N1287 0.985 . S
H1294 N1291 0.984 . S
H1295 N1291 0.985 . S
H1296 N1290 0.984 . S
H1297 N1290 0.984 . S
H1298 N1286 0.984 . S
H1299 N1286 0.985 . S
C1300 C1301 1.363 . S
C1300 C1306 1.379 . S
C1300 N1308 1.356 . S
C1301 C1300 1.363 . S
C1301 C1307 1.363 . S
C1302 C1303 1.363 . S
C1302 C1307 1.379 . S
C1302 N1309 1.356 . S
C1303 C1302 1.363 . S
C1303 C1306 1.363 . S
N1304 C1306 1.356 . S
N1304 H1316 0.984 . S
N1304 H1317 0.985 . S
N1305 C1307 1.356 . S
N1305 H1310 0.984 . S
N1305 H1311 0.985 . S
C1306 C1300 1.379 . S
C1306 C1303 1.363 . S
C1306 N1304 1.356 . S
C1307 C1301 1.363 . S
C1307 C1302 1.379 . S
C1307 N1305 1.356 . S
N1308 C1300 1.356 . S
N1308 H1314 0.984 . S
N1308 H1315 0.984 . S
N1309 C1302 1.356 . S
N1309 H1312 0.984 . S
N1309 H1313 0.985 . S
H1310 N1305 0.984 . S
H1311 N1305 0.985 . S
H1312 N1309 0.984 . S
H1313 N1309 0.985 . S
H1314 N1308 0.984 . S
H1315 N1308 0.984 . S
H1316 N1304 0.984 . S
H1317 N1304 0.985 . S
C1318 C1319 1.363 . S
C1318 C1324 1.379 . S
C1318 N1326 1.356 . S
C1319 C1318 1.363 . S
C1319 C1325 1.363 1_655 S
C1320 C1321 1.363 . S
C1320 C1325 1.379 . S
C1320 N1327 1.356 . S
C1321 C1320 1.363 . S
C1321 C1324 1.363 1_455 S
N1322 C1324 1.356 . S
N1322 H1334 0.984 . S
N1322 H1335 0.985 1_655 S
N1323 C1325 1.356 . S
N1323 H1328 0.984 1_455 S
N1323 H1329 0.985 . S
C1324 C1318 1.379 . S
C1324 C1321 1.363 1_655 S
C1324 N1322 1.356 . S
C1325 C1319 1.363 1_455 S
C1325 C1320 1.379 . S
C1325 N1323 1.356 . S
N1326 C1318 1.356 . S
N1326 H1332 0.984 . S
N1326 H1333 0.984 . S
N1327 C1320 1.356 . S
N1327 H1330 0.984 . S
N1327 H1331 0.985 . S
H1328 N1323 0.984 1_655 S
H1329 N1323 0.985 . S
H1330 N1327 0.984 . S
H1331 N1327 0.985 . S
H1332 N1326 0.984 . S
H1333 N1326 0.984 . S
H1334 N1322 0.984 . S
H1335 N1322 0.985 1_455 S
C1336 C1337 1.363 1_655 S
C1336 C1342 1.379 . S
C1336 N1344 1.356 . S
C1337 C1336 1.363 1_455 S
C1337 C1343 1.363 . S
C1338 C1339 1.363 1_455 S
C1338 C1343 1.379 . S
C1338 N1345 1.356 . S
C1339 C1338 1.363 1_655 S
C1339 C1342 1.363 . S
N1340 C1342 1.356 . S
N1340 H1352 0.984 . S
N1340 H1353 0.985 . S
N1341 C1343 1.356 . S
N1341 H1346 0.984 . S
N1341 H1347 0.985 . S
C1342 C1336 1.379 . S
C1342 C1339 1.363 . S
C1342 N1340 1.356 . S
C1343 C1337 1.363 . S
C1343 C1338 1.379 . S
C1343 N1341 1.356 . S
N1344 C1336 1.356 . S
N1344 H1350 0.984 . S
N1344 H1351 0.984 1_655 S
N1345 C1338 1.356 . S
N1345 H1348 0.984 1_455 S
N1345 H1349 0.985 . S
H1346 N1341 0.984 . S
H1347 N1341 0.985 . S
H1348 N1345 0.984 1_655 S
H1349 N1345 0.985 . S
H1350 N1344 0.984 . S
H1351 N1344 0.984 1_455 S
H1352 N1340 0.984 . S
H1353 N1340 0.985 . S
C1354 C1355 1.363 . S
C1354 C1360 1.379 . S
C1354 N1362 1.356 . S
C1355 C1354 1.363 . S
C1355 C1361 1.363 . S
C1356 C1357 1.363 . S
C1356 C1361 1.379 . S
C1356 N1363 1.356 . S
C1357 C1356 1.363 . S
C1357 C1360 1.363 . S
N1358 C1360 1.356 . S
N1358 H1370 0.984 . S
N1358 H1371 0.985 . S
N1359 C1361 1.356 . S
N1359 H1364 0.984 . S
N1359 H1365 0.985 . S
C1360 C1354 1.379 . S
C1360 C1357 1.363 . S
C1360 N1358 1.356 . S
C1361 C1355 1.363 . S
C1361 C1356 1.379 . S
C1361 N1359 1.356 . S
N1362 C1354 1.356 . S
N1362 H1368 0.984 . S
N1362 H1369 0.984 . S
N1363 C1356 1.356 . S
N1363 H1366 0.984 . S
N1363 H1367 0.985 . S
H1364 N1359 0.984 . S
H1365 N1359 0.985 . S
H1366 N1363 0.984 . S
H1367 N1363 0.985 . S
H1368 N1362 0.984 . S
H1369 N1362 0.984 . S
H1370 N1358 0.984 . S
H1371 N1358 0.985 . S
C1372 C1373 1.363 . S
C1372 C1378 1.379 . S
C1372 N1380 1.356 . S
C1373 C1372 1.363 . S
C1373 C1379 1.363 . S
C1374 C1375 1.363 . S
C1374 C1379 1.379 . S
C1374 N1381 1.356 . S
C1375 C1374 1.363 . S
C1375 C1378 1.363 . S
N1376 C1378 1.356 . S
N1376 H1388 0.984 . S
N1376 H1389 0.985 . S
N1377 C1379 1.356 . S
N1377 H1382 0.984 . S
N1377 H1383 0.985 . S
C1378 C1372 1.379 . S
C1378 C1375 1.363 . S
C1378 N1376 1.356 . S
C1379 C1373 1.363 . S
C1379 C1374 1.379 . S
C1379 N1377 1.356 . S
N1380 C1372 1.356 . S
N1380 H1386 0.984 . S
N1380 H1387 0.984 . S
N1381 C1374 1.356 . S
N1381 H1384 0.984 . S
N1381 H1385 0.985 . S
H1382 N1377 0.984 . S
H1383 N1377 0.985 . S
H1384 N1381 0.984 . S
H1385 N1381 0.985 . S
H1386 N1380 0.984 . S
H1387 N1380 0.984 . S
H1388 N1376 0.984 . S
H1389 N1376 0.985 . S
C1390 C1391 1.363 . S
C1390 C1396 1.379 . S
C1390 N1398 1.356 . S
C1391 C1390 1.363 . S
C1391 C1397 1.363 1_455 S
C1392 C1393 1.363 . S
C1392 C1397 1.379 . S
C1392 N1399 1.356 . S
C1393 C1392 1.363 . S
C1393 C1396 1.363 1_655 S
N1394 C1396 1.356 . S
N1394 H1406 0.984 . S
N1394 H1407 0.985 1_455 S
N1395 C1397 1.356 . S
N1395 H1400 0.984 1_655 S
N1395 H1401 0.985 . S
C1396 C1390 1.379 . S
C1396 C1393 1.363 1_455 S
C1396 N1394 1.356 . S
C1397 C1391 1.363 1_655 S
C1397 C1392 1.379 . S
C1397 N1395 1.356 . S
N1398 C1390 1.356 . S
N1398 H1404 0.984 . S
N1398 H1405 0.984 . S
N1399 C1392 1.356 . S
N1399 H1402 0.984 . S
N1399 H1403 0.985 . S
H1400 N1395 0.984 1_455 S
H1401 N1395 0.985 . S
H1402 N1399 0.984 . S
H1403 N1399 0.985 . S
H1404 N1398 0.984 . S
H1405 N1398 0.984 . S
H1406 N1394 0.984 . S
H1407 N1394 0.985 1_655 S
C1408 C1409 1.363 . S
C1408 C1414 1.379 . S
C1408 N1416 1.356 . S
C1409 C1408 1.363 . S
C1409 C1415 1.363 1_655 S
C1410 C1411 1.363 . S
C1410 C1415 1.379 . S
C1410 N1417 1.356 . S
C1411 C1410 1.363 . S
C1411 C1414 1.363 1_455 S
N1412 C1414 1.356 . S
N1412 H1424 0.984 . S
N1412 H1425 0.985 1_655 S
N1413 C1415 1.356 . S
N1413 H1418 0.984 1_455 S
N1413 H1419 0.985 . S
C1414 C1408 1.379 . S
C1414 C1411 1.363 1_655 S
C1414 N1412 1.356 . S
C1415 C1409 1.363 1_455 S
C1415 C1410 1.379 . S
C1415 N1413 1.356 . S
N1416 C1408 1.356 . S
N1416 H1422 0.984 . S
N1416 H1423 0.984 . S
N1417 C1410 1.356 . S
N1417 H1420 0.984 . S
N1417 H1421 0.985 . S
H1418 N1413 0.984 1_655 S
H1419 N1413 0.985 . S
H1420 N1417 0.984 . S
H1421 N1417 0.985 . S
H1422 N1416 0.984 . S
H1423 N1416 0.984 . S
H1424 N1412 0.984 . S
H1425 N1412 0.985 1_455 S
C1426 C1427 1.363 . S
C1426 C1432 1.379 . S
C1426 N1434 1.356 . S
C1427 C1426 1.363 . S
C1427 C1433 1.363 . S
C1428 C1429 1.363 . S
C1428 C1433 1.379 . S
C1428 N1435 1.356 . S
C1429 C1428 1.363 . S
C1429 C1432 1.363 . S
N1430 C1432 1.356 . S
N1430 H1442 0.984 . S
N1430 H1443 0.985 . S
N1431 C1433 1.356 . S
N1431 H1436 0.984 . S
N1431 H1437 0.985 . S
C1432 C1426 1.379 . S
C1432 C1429 1.363 . S
C1432 N1430 1.356 . S
C1433 C1427 1.363 . S
C1433 C1428 1.379 . S
C1433 N1431 1.356 . S
N1434 C1426 1.356 . S
N1434 H1440 0.984 . S
N1434 H1441 0.984 . S
N1435 C1428 1.356 . S
N1435 H1438 0.984 . S
N1435 H1439 0.985 . S
H1436 N1431 0.984 . S
H1437 N1431 0.985 . S
H1438 N1435 0.984 . S
H1439 N1435 0.985 . S
H1440 N1434 0.984 . S
H1441 N1434 0.984 . S
H1442 N1430 0.984 . S
H1443 N1430 0.985 . S
C1444 C1445 1.363 . S
C1444 C1450 1.379 . S
C1444 N1452 1.356 . S
C1445 C1444 1.363 . S
C1445 C1451 1.363 1_455 S
C1446 C1447 1.363 . S
C1446 C1451 1.379 . S
C1446 N1453 1.356 . S
C1447 C1446 1.363 . S
C1447 C1450 1.363 1_655 S
N1448 C1450 1.356 . S
N1448 H1460 0.984 . S
N1448 H1461 0.985 1_455 S
N1449 C1451 1.356 . S
N1449 H1454 0.984 1_655 S
N1449 H1455 0.985 . S
C1450 C1444 1.379 . S
C1450 C1447 1.363 1_455 S
C1450 N1448 1.356 . S
C1451 C1445 1.363 1_655 S
C1451 C1446 1.379 . S
C1451 N1449 1.356 . S
N1452 C1444 1.356 . S
N1452 H1458 0.984 . S
N1452 H1459 0.984 . S
N1453 C1446 1.356 . S
N1453 H1456 0.984 . S
N1453 H1457 0.985 . S
H1454 N1449 0.984 1_455 S
H1455 N1449 0.985 . S
H1456 N1453 0.984 . S
H1457 N1453 0.985 . S
H1458 N1452 0.984 . S
H1459 N1452 0.984 . S
H1460 N1448 0.984 . S
H1461 N1448 0.985 1_655 S
C1462 C1463 1.363 . S
C1462 C1468 1.379 . S
C1462 N1470 1.356 . S
C1463 C1462 1.363 . S
C1463 C1469 1.363 . S
C1464 C1465 1.363 . S
C1464 C1469 1.379 . S
C1464 N1471 1.356 . S
C1465 C1464 1.363 . S
C1465 C1468 1.363 . S
N1466 C1468 1.356 . S
N1466 H1478 0.984 . S
N1466 H1479 0.985 . S
N1467 C1469 1.356 . S
N1467 H1472 0.984 . S
N1467 H1473 0.985 . S
C1468 C1462 1.379 . S
C1468 C1465 1.363 . S
C1468 N1466 1.356 . S
C1469 C1463 1.363 . S
C1469 C1464 1.379 . S
C1469 N1467 1.356 . S
N1470 C1462 1.356 . S
N1470 H1476 0.984 . S
N1470 H1477 0.984 . S
N1471 C1464 1.356 . S
N1471 H1474 0.984 . S
N1471 H1475 0.985 . S
H1472 N1467 0.984 . S
H1473 N1467 0.985 . S
H1474 N1471 0.984 . S
H1475 N1471 0.985 . S
H1476 N1470 0.984 . S
H1477 N1470 0.984 . S
H1478 N1466 0.984 . S
H1479 N1466 0.985 . S
C1480 C1481 1.363 . S
C1480 C1486 1.379 . S
C1480 N1488 1.356 . S
C1481 C1480 1.363 . S
C1481 C1487 1.363 . S
C1482 C1483 1.363 . S
C1482 C1487 1.379 . S
C1482 N1489 1.356 . S
C1483 C1482 1.363 . S
C1483 C1486 1.363 . S
N1484 C1486 1.356 . S
N1484 H1496 0.984 . S
N1484 H1497 0.985 . S
N1485 C1487 1.356 . S
N1485 H1490 0.984 . S
N1485 H1491 0.985 . S
C1486 C1480 1.379 . S
C1486 C1483 1.363 . S
C1486 N1484 1.356 . S
C1487 C1481 1.363 . S
C1487 C1482 1.379 . S
C1487 N1485 1.356 . S
N1488 C1480 1.356 . S
N1488 H1494 0.984 . S
N1488 H1495 0.984 . S
N1489 C1482 1.356 . S
N1489 H1492 0.984 . S
N1489 H1493 0.985 . S
H1490 N1485 0.984 . S
H1491 N1485 0.985 . S
H1492 N1489 0.984 . S
H1493 N1489 0.985 . S
H1494 N1488 0.984 . S
H1495 N1488 0.984 . S
H1496 N1484 0.984 . S
H1497 N1484 0.985 . S
C1498 C1499 1.363 1_455 S
C1498 C1504 1.379 . S
C1498 N1506 1.356 . S
C1499 C1498 1.363 1_655 S
C1499 C1505 1.363 . S
C1500 C1501 1.363 1_655 S
C1500 C1505 1.379 . S
C1500 N1507 1.356 . S
C1501 C1500 1.363 1_455 S
C1501 C1504 1.363 . S
N1502 C1504 1.356 . S
N1502 H1514 0.984 . S
N1502 H1515 0.985 . S
N1503 C1505 1.356 . S
N1503 H1508 0.984 . S
N1503 H1509 0.985 . S
C1504 C1498 1.379 . S
C1504 C1501 1.363 . S
C1504 N1502 1.356 . S
C1505 C1499 1.363 . S
C1505 C1500 1.379 . S
C1505 N1503 1.356 . S
N1506 C1498 1.356 . S
N1506 H1512 0.984 . S
N1506 H1513 0.984 1_455 S
N1507 C1500 1.356 . S
N1507 H1510 0.984 1_655 S
N1507 H1511 0.985 . S
H1508 N1503 0.984 . S
H1509 N1503 0.985 . S
H1510 N1507 0.984 1_455 S
H1511 N1507 0.985 . S
H1512 N1506 0.984 . S
H1513 N1506 0.984 1_655 S
H1514 N1502 0.984 . S
H1515 N1502 0.985 . S
C1516 C1517 1.363 . S
C1516 C1522 1.379 . S
C1516 N1524 1.356 . S
C1517 C1516 1.363 . S
C1517 C1523 1.363 . S
C1518 C1519 1.363 . S
C1518 C1523 1.379 . S
C1518 N1525 1.356 . S
C1519 C1518 1.363 . S
C1519 C1522 1.363 . S
N1520 C1522 1.356 . S
N1520 H1532 0.984 . S
N1520 H1533 0.985 . S
N1521 C1523 1.356 . S
N1521 H1526 0.984 . S
N1521 H1527 0.985 . S
C1522 C1516 1.379 . S
C1522 C1519 1.363 . S
C1522 N1520 1.356 . S
C1523 C1517 1.363 . S
C1523 C1518 1.379 . S
C1523 N1521 1.356 . S
N1524 C1516 1.356 . S
N1524 H1530 0.984 . S
N1524 H1531 0.984 . S
N1525 C1518 1.356 . S
N1525 H1528 0.984 . S
N1525 H1529 0.985 . S
H1526 N1521 0.984 . S
H1527 N1521 0.985 . S
H1528 N1525 0.984 . S
H1529 N1525 0.985 . S
H1530 N1524 0.984 . S
H1531 N1524 0.984 . S
H1532 N1520 0.984 . S
H1533 N1520 0.985 . S
C1534 C1535 1.363 1_455 S
C1534 C1540 1.379 . S
C1534 N1542 1.356 . S
C1535 C1534 1.363 1_655 S
C1535 C1541 1.363 . S
C1536 C1537 1.363 1_655 S
C1536 C1541 1.379 . S
C1536 N1543 1.356 . S
C1537 C1536 1.363 1_455 S
C1537 C1540 1.363 . S
N1538 C1540 1.356 . S
N1538 H1550 0.984 . S
N1538 H1551 0.985 . S
N1539 C1541 1.356 . S
N1539 H1544 0.984 . S
N1539 H1545 0.985 . S
C1540 C1534 1.379 . S
C1540 C1537 1.363 . S
C1540 N1538 1.356 . S
C1541 C1535 1.363 . S
C1541 C1536 1.379 . S
C1541 N1539 1.356 . S
N1542 C1534 1.356 . S
N1542 H1548 0.984 . S
N1542 H1549 0.984 1_455 S
N1543 C1536 1.356 . S
N1543 H1546 0.984 1_655 S
N1543 H1547 0.985 . S
H1544 N1539 0.984 . S
H1545 N1539 0.985 . S
H1546 N1543 0.984 1_455 S
H1547 N1543 0.985 . S
H1548 N1542 0.984 . S
H1549 N1542 0.984 1_655 S
H1550 N1538 0.984 . S
H1551 N1538 0.985 . S
C545 C28 1.447 . S
C547 C6 1.438 . S
C563 C62 1.438 . S
C565 C40 1.447 . S
C581 C96 1.438 . S
C583 C74 1.447 . S
C599 C108 1.438 . S
C601 C130 1.447 . S
C617 C142 1.447 . S
C619 C164 1.438 . S
C635 C176 1.447 . S
C637 C198 1.438 . S
C653 C210 1.447 . S
C655 C232 1.438 . S
C671 C266 1.438 . S
C673 C244 1.447 . S
C689 C278 1.438 . S
C691 C300 1.447 . S
C707 C312 1.447 . S
C709 C334 1.438 . S
C725 C346 1.447 . S
C727 C368 1.438 . S
C743 C380 1.438 . S
C745 C402 1.447 . S
C761 C414 1.438 . S
C763 C436 1.447 . S
C779 C448 1.438 . S
C781 C470 1.447 . S
C797 C504 1.438 . S
C799 C482 1.447 . S
C815 C516 1.447 . S
C817 C538 1.438 . S
C833 C1 1.886 . S
C835 C171 1.898 . S
C851 C37 1.886 . S
C853 C137 1.898 1_455 S
C869 C71 1.886 . S
C871 C239 1.898 1_655 S
C887 C103 1.886 . S
C889 C205 1.898 . S
C905 C139 1.886 . S
C907 C35 1.898 . S
C923 C173 1.886 . S
C925 C3 1.898 1_655 S
C941 C105 1.898 1_455 S
C943 C207 1.886 . S
C959 C69 1.898 . S
C961 C241 1.886 . S
C977 C273 1.886 . S
C979 C445 1.898 1_655 S
C995 C411 1.898 . S
C997 C309 1.886 . S
C1013 C343 1.886 . S
C1015 C511 1.898 . S
C1031 C477 1.898 1_455 S
C1033 C375 1.886 . S
C1049 C307 1.898 1_455 S
C1051 C409 1.886 . S
C1067 C443 1.886 . S
C1069 C275 1.898 . S
C1085 C479 1.886 . S
C1087 C377 1.898 . S
C1103 C513 1.886 . S
C1105 C341 1.898 1_655 S
C1121 C22 1.512 . S
C1123 C49 1.512 . S
C1139 C124 1.512 . S
C1141 C83 1.512 . S
C1157 C151 1.512 . S
C1159 C185 1.512 . S
C1175 C253 1.512 . S
C1177 C219 1.512 . S
C1193 C321 1.512 . S
C1195 C294 1.512 . S
C1211 C355 1.512 . S
C1213 C396 1.512 . S
C1229 C430 1.512 . S
C1231 C464 1.512 . S
C1247 C491 1.512 . S
C1249 C525 1.512 . S
C1265 C15 1.807 . S
C1267 C328 1.807 . S
C1283 C56 1.807 . S
C1285 C287 1.807 . S
C1301 C389 1.807 . S
C1303 C90 1.807 . S
C1319 C362 1.807 . S
C1321 C117 1.807 . S
C1337 C158 1.807 . S
C1339 C457 1.807 . S
C1355 C192 1.807 . S
C1357 C423 1.807 . S
C1373 C226 1.807 . S
C1375 C532 1.807 . S
C1391 C498 1.807 . S
C1393 C260 1.807 . S
C1409 C119 1.656 . S
C1411 C17 1.656 . S
C1427 C51 1.656 . S
C1429 C85 1.656 . S
C1445 C255 1.656 . S
C1447 C153 1.656 . S
C1463 C187 1.656 . S
C1465 C221 1.656 . S
C1481 C289 1.656 . S
C1483 C391 1.656 . S
C1499 C323 1.656 . S
C1501 C357 1.656 . S
C1517 C527 1.656 . S
C1519 C425 1.656 . S
C1535 C493 1.656 . S
C1537 C459 1.656 . S
