# Generated by pormake.
# Topology unm, (4)-cn, num edge types: 1
# Building blocks:
#     Node 0, Type 0, BuildingBlock: QUQFOY_clean_sbu_3, # of connection points: 4
#     Node 1, Type 0, BuildingBlock: QUQFOY_clean_sbu_3, # of connection points: 4
#     Node 2, Type 0, BuildingBlock: QUQFOY_clean_sbu_3, # of connection points: 4
#     Node 3, Type 0, BuildingBlock: QUQFOY_clean_sbu_3, # of connection points: 4
#     Node 4, Type 0, BuildingBlock: QUQFOY_clean_sbu_3, # of connection points: 4
#     Node 5, Type 0, BuildingBlock: QUQFOY_clean_sbu_3, # of connection points: 4
#     Node 6, Type 0, BuildingBlock: QUQFOY_clean_sbu_3, # of connection points: 4
#     Node 7, Type 0, BuildingBlock: QUQFOY_clean_sbu_3, # of connection points: 4
#     Edge 8, Type (0, 0), BuildingBlock: OJICUG_clean_linker_0, # of connection points: 2
#     Edge 9, Type (0, 0), BuildingBlock: OJICUG_clean_linker_0, # of connection points: 2
#     Edge 10, Type (0, 0), BuildingBlock: OJICUG_clean_linker_0, # of connection points: 2
#     Edge 11, Type (0, 0), BuildingBlock: OJICUG_clean_linker_0, # of connection points: 2
#     Edge 12, Type (0, 0), BuildingBlock: OJICUG_clean_linker_0, # of connection points: 2
#     Edge 13, Type (0, 0), BuildingBlock: OJICUG_clean_linker_0, # of connection points: 2
#     Edge 14, Type (0, 0), BuildingBlock: OJICUG_clean_linker_0, # of connection points: 2
#     Edge 15, Type (0, 0), BuildingBlock: OJICUG_clean_linker_0, # of connection points: 2
#     Edge 16, Type (0, 0), BuildingBlock: OJICUG_clean_linker_0, # of connection points: 2
#     Edge 17, Type (0, 0), BuildingBlock: OJICUG_clean_linker_0, # of connection points: 2
#     Edge 18, Type (0, 0), BuildingBlock: OJICUG_clean_linker_0, # of connection points: 2
#     Edge 19, Type (0, 0), BuildingBlock: OJICUG_clean_linker_0, # of connection points: 2
#     Edge 20, Type (0, 0), BuildingBlock: OJICUG_clean_linker_0, # of connection points: 2
#     Edge 21, Type (0, 0), BuildingBlock: OJICUG_clean_linker_0, # of connection points: 2
#     Edge 22, Type (0, 0), BuildingBlock: OJICUG_clean_linker_0, # of connection points: 2
#     Edge 23, Type (0, 0), BuildingBlock: OJICUG_clean_linker_0, # of connection points: 2
# Relax obj value: 0.175
# Max RMSD: 0.147
# Mean RMSD: 0.147
data_MOF--net-unm--node1-QUQFOY_clean_sbu_3--edge1-OJICUG_clean_linker_0
_symmetry_space_group_name_H-M    P1
_symmetry_Int_Tables_number       1
_symmetry_cell_setting            triclinic
loop_
_symmetry_equiv_pos_as_xyz
'x, y, z'
_cell_length_a     18.711959
_cell_length_b     18.673627
_cell_length_c     35.174514
_cell_angle_alpha  89.828414
_cell_angle_beta   89.999689
_cell_angle_gamma 89.91268
loop_
_atom_site_label
_atom_site_type_symbol
_atom_site_fract_x
_atom_site_fract_y
_atom_site_fract_z
_atom_type_partial_charge
C0 C 0.11282 0.18872 0.15431 0.0
O1 O 0.09827 0.16508 0.12136 0.0
Cd2 Cd 0.14392 0.21866 0.06375 0.0
O3 O 0.16256 0.23451 0.15893 0.0
Cd4 Cd 0.25515 0.30275 0.12408 0.0
C5 C 0.107 0.39052 0.09486 0.0
O6 O 0.26848 0.23619 0.06621 0.0
O7 O 0.30173 0.34698 0.06404 0.0
O8 O 0.36009 0.26124 0.15765 0.0
C9 C 0.29266 0.28819 0.04671 0.0
O10 O 0.09601 0.33895 0.0719 0.0
C11 C 0.37697 0.32174 0.17147 0.0
O12 O 0.15854 0.38986 0.11865 0.0
O13 O 0.33526 0.37409 0.16454 0.0
C14 C 0.31594 0.6143 0.65407 0.0
O15 O 0.33958 0.59982 0.6211 0.0
Cd16 Cd 0.28585 0.64556 0.56356 0.0
O17 O 0.27001 0.66404 0.65872 0.0
Cd18 Cd 0.2015 0.75687 0.62391 0.0
C19 C 0.11436 0.60854 0.59498 0.0
O20 O 0.26802 0.77032 0.566 0.0
O21 O 0.1574 0.80373 0.56382 0.0
O22 O 0.24309 0.86177 0.65725 0.0
C23 C 0.21617 0.79461 0.54647 0.0
O24 O 0.16593 0.5976 0.57199 0.0
C25 C 0.18281 0.87884 0.67129 0.0
O26 O 0.11477 0.66013 0.61872 0.0
O27 O 0.1305 0.83729 0.66454 0.0
C28 C 0.89519 0.8191 0.15357 0.0
O29 O 0.90957 0.84245 0.12046 0.0
Cd30 Cd 0.86319 0.78868 0.06322 0.0
O31 O 0.84538 0.77346 0.15853 0.0
Cd32 Cd 0.75239 0.70514 0.12425 0.0
C33 C 0.8999 0.61678 0.09491 0.0
O34 O 0.73863 0.77129 0.06607 0.0
O35 O 0.70502 0.66058 0.06461 0.0
O36 O 0.64796 0.74748 0.15781 0.0
C37 C 0.7141 0.71919 0.04692 0.0
O38 O 0.91076 0.66827 0.07171 0.0
C39 C 0.63091 0.68722 0.17207 0.0
O40 O 0.84869 0.61767 0.1189 0.0
O41 O 0.67231 0.6346 0.16537 0.0
C42 C 0.68795 0.39393 0.6542 0.0
O43 O 0.66435 0.4088 0.62122 0.0
Cd44 Cd 0.71818 0.36369 0.56367 0.0
O45 O 0.73389 0.34416 0.65886 0.0
Cd46 Cd 0.80251 0.25189 0.62403 0.0
C47 C 0.88955 0.40061 0.5951 0.0
O48 O 0.7364 0.23891 0.56597 0.0
O49 O 0.84717 0.20589 0.5641 0.0
O50 O 0.76088 0.1465 0.65725 0.0
C51 C 0.78854 0.21499 0.5466 0.0
O52 O 0.83801 0.4117 0.57208 0.0
C53 C 0.82113 0.12928 0.67132 0.0
O54 O 0.88914 0.34883 0.61889 0.0
O55 O 0.87342 0.17099 0.66467 0.0
C56 C 0.6127 0.3201 0.2755 0.0
O57 O 0.59815 0.34382 0.30844 0.0
Cd58 Cd 0.64387 0.29005 0.36603 0.0
O59 O 0.66246 0.27419 0.27089 0.0
Cd60 Cd 0.75511 0.20573 0.30569 0.0
C61 C 0.60694 0.11836 0.33483 0.0
O62 O 0.76843 0.27201 0.36364 0.0
O63 O 0.80166 0.16108 0.36564 0.0
O64 O 0.85992 0.24738 0.27218 0.0
C65 C 0.7926 0.21981 0.38306 0.0
O66 O 0.59598 0.16993 0.35781 0.0
C67 C 0.87701 0.18692 0.2583 0.0
O68 O 0.65848 0.11887 0.31103 0.0
O69 O 0.83547 0.13455 0.26517 0.0
C70 C 0.18659 0.11352 0.77581 0.0
O71 O 0.16348 0.09853 0.80887 0.0
Cd72 Cd 0.21786 0.14353 0.86625 0.0
O73 O 0.23238 0.16327 0.77104 0.0
Cd74 Cd 0.30129 0.25533 0.8057 0.0
C75 C 0.38912 0.10666 0.83442 0.0
O76 O 0.23558 0.26834 0.86392 0.0
O77 O 0.34626 0.30137 0.86555 0.0
O78 O 0.25926 0.3608 0.77253 0.0
C79 C 0.28778 0.29231 0.88316 0.0
O80 O 0.3378 0.09555 0.85755 0.0
C81 C 0.31939 0.37792 0.75835 0.0
O82 O 0.38833 0.15843 0.81062 0.0
O83 O 0.37178 0.33613 0.76493 0.0
C84 C 0.3953 0.69065 0.27625 0.0
O85 O 0.4097 0.66717 0.30933 0.0
Cd86 Cd 0.36322 0.72097 0.36657 0.0
O87 O 0.34544 0.73638 0.27132 0.0
Cd88 Cd 0.25228 0.80474 0.3056 0.0
C89 C 0.39971 0.89282 0.33488 0.0
O90 O 0.23862 0.73843 0.36371 0.0
O91 O 0.20483 0.84918 0.36529 0.0
O92 O 0.14803 0.76239 0.27199 0.0
C93 C 0.21397 0.79048 0.38291 0.0
O94 O 0.41064 0.8413 0.35806 0.0
C95 C 0.13075 0.82266 0.25777 0.0
O96 O 0.34845 0.89207 0.31092 0.0
O97 O 0.17194 0.87531 0.2645 0.0
C98 C 0.81767 0.89325 0.77573 0.0
O99 O 0.84095 0.90794 0.80874 0.0
Cd100 Cd 0.78684 0.86264 0.86622 0.0
O101 O 0.77184 0.84355 0.77105 0.0
Cd102 Cd 0.70311 0.75108 0.80586 0.0
C103 C 0.61536 0.89955 0.8345 0.0
O104 O 0.76931 0.73788 0.8639 0.0
O105 O 0.65879 0.7045 0.86594 0.0
O106 O 0.74489 0.64589 0.77267 0.0
C107 C 0.71741 0.71373 0.88337 0.0
O108 O 0.66681 0.91057 0.85754 0.0
C109 C 0.68467 0.62895 0.75859 0.0
O110 O 0.61605 0.84788 0.8108 0.0
O111 O 0.63233 0.67069 0.76525 0.0
C112 C 0.33705 0.33455 -0.01537 0.0
C113 C 0.29328 0.28685 0.00488 0.0
H114 H 0.36973 0.37325 0.92994 0.0
C115 C 0.24629 0.24211 -0.01512 0.0
H116 H 0.37343 0.36987 -0.00054 0.0
C117 C 0.24235 0.24587 0.94526 0.0
C118 C 0.28684 0.29292 0.92499 0.0
H119 H 0.21145 0.20534 -0.00017 0.0
H120 H 0.2056 0.21088 0.93051 0.0
C121 C 0.33459 0.33683 0.94498 0.0
C122 C 0.17008 0.83904 0.48429 0.0
C123 C 0.21778 0.7953 0.50464 0.0
H124 H 0.13191 0.87193 0.42952 0.0
C125 C 0.26297 0.74846 0.48472 0.0
H126 H 0.13442 0.8753 0.49906 0.0
C127 C 0.25971 0.7447 0.4451 0.0
C128 C 0.21273 0.78923 0.42474 0.0
H129 H 0.29975 0.71365 0.49974 0.0
H130 H 0.29507 0.70809 0.43043 0.0
C131 C 0.1683 0.83677 0.44464 0.0
C132 C 0.66886 0.67255 -0.01479 0.0
C133 C 0.71307 0.72019 0.00509 0.0
H134 H 0.63544 0.63358 0.93082 0.0
C135 C 0.76012 0.76449 -0.01529 0.0
H136 H 0.63243 0.63755 0.00034 0.0
C137 C 0.76367 0.76037 0.94511 0.0
C138 C 0.71871 0.71342 0.92521 0.0
H139 H 0.79531 0.80117 -0.00063 0.0
H140 H 0.80051 0.795 0.93009 0.0
C141 C 0.67093 0.66993 0.94557 0.0
C142 C 0.74631 0.26556 0.445 0.0
C143 C 0.79338 0.22095 0.42489 0.0
H144 H 0.70576 0.29652 0.49947 0.0
C145 C 0.8374 0.17317 0.44502 0.0
H146 H 0.71126 0.30236 0.43014 0.0
C147 C 0.83513 0.17071 0.48467 0.0
C148 C 0.78734 0.21452 0.50477 0.0
H149 H 0.87385 0.13795 0.4301 0.0
H150 H 0.87049 0.13425 0.49961 0.0
C151 C 0.74256 0.26162 0.48462 0.0
C152 C 0.44795 0.38323 0.22249 0.0
C153 C 0.44236 0.32982 0.19459 0.0
H154 H 0.50728 0.42274 0.27023 0.0
C155 C 0.49889 0.2812 0.18991 0.0
H156 H 0.40537 0.42186 0.22641 0.0
C157 C 0.55787 0.28288 0.21411 0.0
C158 C 0.56092 0.33217 0.24422 0.0
H159 H 0.4966 0.24029 0.16816 0.0
H160 H 0.59866 0.24216 0.21072 0.0
C161 C 0.50646 0.38394 0.2474 0.0
C162 C 0.12223 0.94965 0.72274 0.0
C163 C 0.17505 0.94419 0.69449 0.0
H164 H 0.08378 0.00856 0.77091 0.0
C165 C 0.22355 1.0007 0.68962 0.0
H166 H 0.08369 0.90709 0.72682 0.0
C167 C 0.22243 0.05944 0.71399 0.0
C168 C 0.17383 0.06223 0.74445 0.0
H169 H 0.26399 0.99852 0.6676 0.0
H170 H 0.26307 0.10016 0.71044 0.0
C171 C 0.12208 0.00789 0.74781 0.0
C172 C 0.50146 0.62638 0.24853 0.0
C173 C 0.44719 0.67832 0.24508 0.0
H174 H 0.60231 0.58781 0.22767 0.0
C175 C 0.45039 0.72738 0.21472 0.0
H176 H 0.5005 0.58775 0.27156 0.0
C177 C 0.50931 0.72859 0.19046 0.0
C178 C 0.56563 0.67973 0.19535 0.0
H179 H 0.40976 0.76822 0.21113 0.0
H180 H 0.5117 0.76928 0.16847 0.0
C181 C 0.5599 0.62661 0.22356 0.0
C182 C 0.78022 0.00726 0.68968 0.0
C183 C 0.8289 0.06359 0.69447 0.0
H184 H 0.74064 0.90761 0.71054 0.0
C185 C 0.88195 0.05763 0.72258 0.0
H186 H 0.7396 0.00983 0.66776 0.0
C187 C 0.88219 0.99904 0.74761 0.0
C188 C 0.83029 0.94487 0.74434 0.0
H189 H 0.92064 0.10004 0.7266 0.0
H190 H 0.9207 0.99797 0.77061 0.0
C191 C 0.78142 0.94818 0.71401 0.0
C192 C 0.94834 0.12546 0.20733 0.0
C193 C 0.94245 0.17895 0.23518 0.0
H194 H 0.00791 0.08591 0.15965 0.0
C195 C 0.99873 0.22771 0.23983 0.0
H196 H 0.90596 0.08671 0.20344 0.0
C197 C 0.05773 0.22608 0.21563 0.0
C198 C 0.06106 0.17668 0.18558 0.0
H199 H 0.99622 0.26868 0.26154 0.0
H200 H 0.0983 0.2669 0.21899 0.0
C201 C 0.00686 0.12479 0.18243 0.0
C202 C 0.27922 0.55902 0.7156 0.0
C203 C 0.32835 0.56246 0.68539 0.0
H204 H 0.23726 0.49727 0.76172 0.0
C205 C 0.38041 0.50828 0.68218 0.0
H206 H 0.2383 0.59959 0.71901 0.0
C207 C 0.38017 0.44962 0.70717 0.0
C208 C 0.32696 0.44359 0.73518 0.0
H209 H 0.41911 0.50943 0.65928 0.0
H210 H 0.41903 0.40724 0.70321 0.0
C211 C 0.27804 0.49989 0.73989 0.0
C212 C 0.05953 0.88325 0.20626 0.0
C213 C 0.06545 0.83013 0.23448 0.0
H214 H 1.00002 0.92207 0.15826 0.0
C215 C 0.00931 0.78123 0.23936 0.0
H216 H 0.10181 0.92208 0.20217 0.0
C217 C 0.9504 0.7824 0.21509 0.0
C218 C 0.94702 0.83146 0.18473 0.0
H219 H 0.01185 0.74052 0.26134 0.0
H220 H 0.90992 0.74152 0.21867 0.0
C221 C 1.00111 0.88344 0.18129 0.0
C222 C 0.62357 0.49971 0.68231 0.0
C223 C 0.6755 0.44537 0.68555 0.0
H224 H 0.5851 0.60056 0.70335 0.0
C225 C 0.72449 0.44828 0.71582 0.0
H226 H 0.58497 0.49896 0.65936 0.0
C227 C 0.72572 0.50709 0.74015 0.0
C228 C 0.67696 0.56357 0.7354 0.0
H229 H 0.7653 0.40757 0.71926 0.0
H230 H 0.76642 0.50933 0.76202 0.0
C231 C 0.62384 0.55803 0.70733 0.0
C232 C 0.97717 0.53001 0.1296 0.0
C233 C 0.9509 0.55723 0.0951 0.0
H234 H 0.04997 0.45682 0.15645 0.0
C235 C 0.97737 0.53057 0.06062 0.0
H236 H 0.95797 0.55068 0.15648 0.0
C237 C 0.02861 0.47634 0.0606 0.0
C238 C 0.05581 0.44991 0.09505 0.0
H239 H 0.95793 0.55125 0.03372 0.0
H240 H 0.04753 0.45552 0.03369 0.0
C241 C 0.0302 0.47731 0.12957 0.0
C242 C 0.97504 0.47895 0.5608 0.0
C243 C 0.94866 0.45191 0.59528 0.0
H244 H 0.04954 0.54972 0.53385 0.0
C245 C 0.97576 0.47786 0.62978 0.0
H246 H 0.95445 0.45976 0.53391 0.0
C247 C 0.02809 0.53111 0.62974 0.0
C248 C 0.05524 0.55725 0.59521 0.0
H249 H 0.9553 0.45821 0.65667 0.0
H250 H 0.04852 0.5506 0.65661 0.0
C251 C 0.0289 0.53039 0.56077 0.0
C252 C 0.52858 0.03279 0.36911 0.0
C253 C 0.55573 0.05913 0.33465 0.0
H254 H 0.4579 0.95814 0.39603 0.0
C255 C 0.53001 0.03186 0.30014 0.0
H256 H 0.54758 0.05351 0.39602 0.0
C257 C 0.47693 0.97937 0.30014 0.0
C258 C 0.45071 0.95223 0.33466 0.0
H259 H 0.54973 0.05229 0.27326 0.0
H260 H 0.45765 0.95879 0.27327 0.0
C261 C 0.4773 0.97877 0.36912 0.0
C262 C 0.47579 0.02966 0.7997 0.0
C263 C 0.44855 0.05553 0.8342 0.0
H264 H 0.54904 0.95719 0.77286 0.0
C265 C 0.47521 0.02866 0.86867 0.0
H266 H 0.45513 0.04918 0.77281 0.0
C267 C 0.52945 0.97746 0.8687 0.0
C268 C 0.55594 0.95068 0.83425 0.0
H269 H 0.45453 0.04779 0.89558 0.0
H270 H 0.55026 0.95825 0.89562 0.0
C271 C 0.52852 0.97664 0.79973 0.0
loop_
_geom_bond_atom_site_label_1
_geom_bond_atom_site_label_2
_geom_bond_distance
_geom_bond_site_symmetry_2
_ccdc_geom_bond_type
C0 O1 1.306 . S
C0 O3 1.160 . S
O1 C0 1.306 . S
O1 Cd2 2.228 . S
Cd2 O1 2.228 . S
Cd2 O6 2.273 . S
Cd2 O10 2.277 . S
O3 C0 1.160 . S
O3 Cd4 2.203 . S
Cd4 O3 2.203 . S
Cd4 O6 2.411 . S
Cd4 O7 2.333 . S
Cd4 O8 2.352 . S
Cd4 O12 2.277 . S
Cd4 O13 2.356 . S
C5 O10 1.209 . S
C5 O12 1.226 . S
O6 Cd2 2.273 . S
O6 Cd4 2.411 . S
O6 C9 1.320 . S
O7 Cd4 2.333 . S
O7 C9 1.214 . S
O8 Cd4 2.352 . S
O8 C11 1.258 . S
C9 O6 1.320 . S
C9 O7 1.214 . S
O10 Cd2 2.277 . S
O10 C5 1.209 . S
C11 O8 1.258 . S
C11 O13 1.282 . S
O12 Cd4 2.277 . S
O12 C5 1.226 . S
O13 Cd4 2.356 . S
O13 C11 1.282 . S
C14 O15 1.306 . S
C14 O17 1.160 . S
O15 C14 1.306 . S
O15 Cd16 2.228 . S
Cd16 O15 2.228 . S
Cd16 O20 2.273 . S
Cd16 O24 2.277 . S
O17 C14 1.160 . S
O17 Cd18 2.203 . S
Cd18 O17 2.203 . S
Cd18 O20 2.411 . S
Cd18 O21 2.333 . S
Cd18 O22 2.352 . S
Cd18 O26 2.277 . S
Cd18 O27 2.356 . S
C19 O24 1.209 . S
C19 O26 1.226 . S
O20 Cd16 2.273 . S
O20 Cd18 2.411 . S
O20 C23 1.320 . S
O21 Cd18 2.333 . S
O21 C23 1.214 . S
O22 Cd18 2.352 . S
O22 C25 1.258 . S
C23 O20 1.320 . S
C23 O21 1.214 . S
O24 Cd16 2.277 . S
O24 C19 1.209 . S
C25 O22 1.258 . S
C25 O27 1.282 . S
O26 Cd18 2.277 . S
O26 C19 1.226 . S
O27 Cd18 2.356 . S
O27 C25 1.282 . S
C28 O29 1.306 . S
C28 O31 1.160 . S
O29 C28 1.306 . S
O29 Cd30 2.228 . S
Cd30 O29 2.228 . S
Cd30 O34 2.273 . S
Cd30 O38 2.277 . S
O31 C28 1.160 . S
O31 Cd32 2.203 . S
Cd32 O31 2.203 . S
Cd32 O34 2.411 . S
Cd32 O35 2.333 . S
Cd32 O36 2.352 . S
Cd32 O40 2.277 . S
Cd32 O41 2.356 . S
C33 O38 1.209 . S
C33 O40 1.226 . S
O34 Cd30 2.273 . S
O34 Cd32 2.411 . S
O34 C37 1.320 . S
O35 Cd32 2.333 . S
O35 C37 1.214 . S
O36 Cd32 2.352 . S
O36 C39 1.258 . S
C37 O34 1.320 . S
C37 O35 1.214 . S
O38 Cd30 2.277 . S
O38 C33 1.209 . S
C39 O36 1.258 . S
C39 O41 1.282 . S
O40 Cd32 2.277 . S
O40 C33 1.226 . S
O41 Cd32 2.356 . S
O41 C39 1.282 . S
C42 O43 1.306 . S
C42 O45 1.160 . S
O43 C42 1.306 . S
O43 Cd44 2.228 . S
Cd44 O43 2.228 . S
Cd44 O48 2.273 . S
Cd44 O52 2.277 . S
O45 C42 1.160 . S
O45 Cd46 2.203 . S
Cd46 O45 2.203 . S
Cd46 O48 2.411 . S
Cd46 O49 2.333 . S
Cd46 O50 2.352 . S
Cd46 O54 2.277 . S
Cd46 O55 2.356 . S
C47 O52 1.209 . S
C47 O54 1.226 . S
O48 Cd44 2.273 . S
O48 Cd46 2.411 . S
O48 C51 1.320 . S
O49 Cd46 2.333 . S
O49 C51 1.214 . S
O50 Cd46 2.352 . S
O50 C53 1.258 . S
C51 O48 1.320 . S
C51 O49 1.214 . S
O52 Cd44 2.277 . S
O52 C47 1.209 . S
C53 O50 1.258 . S
C53 O55 1.282 . S
O54 Cd46 2.277 . S
O54 C47 1.226 . S
O55 Cd46 2.356 . S
O55 C53 1.282 . S
C56 O57 1.306 . S
C56 O59 1.160 . S
O57 C56 1.306 . S
O57 Cd58 2.228 . S
Cd58 O57 2.228 . S
Cd58 O62 2.273 . S
Cd58 O66 2.277 . S
O59 C56 1.160 . S
O59 Cd60 2.203 . S
Cd60 O59 2.203 . S
Cd60 O62 2.411 . S
Cd60 O63 2.333 . S
Cd60 O64 2.352 . S
Cd60 O68 2.277 . S
Cd60 O69 2.356 . S
C61 O66 1.209 . S
C61 O68 1.226 . S
O62 Cd58 2.273 . S
O62 Cd60 2.411 . S
O62 C65 1.320 . S
O63 Cd60 2.333 . S
O63 C65 1.214 . S
O64 Cd60 2.352 . S
O64 C67 1.258 . S
C65 O62 1.320 . S
C65 O63 1.214 . S
O66 Cd58 2.277 . S
O66 C61 1.209 . S
C67 O64 1.258 . S
C67 O69 1.282 . S
O68 Cd60 2.277 . S
O68 C61 1.226 . S
O69 Cd60 2.356 . S
O69 C67 1.282 . S
C70 O71 1.306 . S
C70 O73 1.160 . S
O71 C70 1.306 . S
O71 Cd72 2.228 . S
Cd72 O71 2.228 . S
Cd72 O76 2.273 . S
Cd72 O80 2.277 . S
O73 C70 1.160 . S
O73 Cd74 2.203 . S
Cd74 O73 2.203 . S
Cd74 O76 2.411 . S
Cd74 O77 2.333 . S
Cd74 O78 2.352 . S
Cd74 O82 2.277 . S
Cd74 O83 2.356 . S
C75 O80 1.209 . S
C75 O82 1.226 . S
O76 Cd72 2.273 . S
O76 Cd74 2.411 . S
O76 C79 1.320 . S
O77 Cd74 2.333 . S
O77 C79 1.214 . S
O78 Cd74 2.352 . S
O78 C81 1.258 . S
C79 O76 1.320 . S
C79 O77 1.214 . S
O80 Cd72 2.277 . S
O80 C75 1.209 . S
C81 O78 1.258 . S
C81 O83 1.282 . S
O82 Cd74 2.277 . S
O82 C75 1.226 . S
O83 Cd74 2.356 . S
O83 C81 1.282 . S
C84 O85 1.306 . S
C84 O87 1.160 . S
O85 C84 1.306 . S
O85 Cd86 2.228 . S
Cd86 O85 2.228 . S
Cd86 O90 2.273 . S
Cd86 O94 2.277 . S
O87 C84 1.160 . S
O87 Cd88 2.203 . S
Cd88 O87 2.203 . S
Cd88 O90 2.411 . S
Cd88 O91 2.333 . S
Cd88 O92 2.352 . S
Cd88 O96 2.277 . S
Cd88 O97 2.356 . S
C89 O94 1.209 . S
C89 O96 1.226 . S
O90 Cd86 2.273 . S
O90 Cd88 2.411 . S
O90 C93 1.320 . S
O91 Cd88 2.333 . S
O91 C93 1.214 . S
O92 Cd88 2.352 . S
O92 C95 1.258 . S
C93 O90 1.320 . S
C93 O91 1.214 . S
O94 Cd86 2.277 . S
O94 C89 1.209 . S
C95 O92 1.258 . S
C95 O97 1.282 . S
O96 Cd88 2.277 . S
O96 C89 1.226 . S
O97 Cd88 2.356 . S
O97 C95 1.282 . S
C98 O99 1.306 . S
C98 O101 1.160 . S
O99 C98 1.306 . S
O99 Cd100 2.228 . S
Cd100 O99 2.228 . S
Cd100 O104 2.273 . S
Cd100 O108 2.277 . S
O101 C98 1.160 . S
O101 Cd102 2.203 . S
Cd102 O101 2.203 . S
Cd102 O104 2.411 . S
Cd102 O105 2.333 . S
Cd102 O106 2.352 . S
Cd102 O110 2.277 . S
Cd102 O111 2.356 . S
C103 O108 1.209 . S
C103 O110 1.226 . S
O104 Cd100 2.273 . S
O104 Cd102 2.411 . S
O104 C107 1.320 . S
O105 Cd102 2.333 . S
O105 C107 1.214 . S
O106 Cd102 2.352 . S
O106 C109 1.258 . S
C107 O104 1.320 . S
C107 O105 1.214 . S
O108 Cd100 2.277 . S
O108 C103 1.209 . S
C109 O106 1.258 . S
C109 O111 1.282 . S
O110 Cd102 2.277 . S
O110 C103 1.226 . S
O111 Cd102 2.356 . S
O111 C109 1.282 . S
C112 C113 1.387 . S
C112 H116 0.950 . S
C112 C121 1.390 1_554 S
C113 C112 1.387 . S
C113 C115 1.387 . S
H114 C121 0.950 . S
C115 C113 1.387 . S
C115 C117 1.390 1_554 S
C115 H119 0.950 . S
H116 C112 0.950 . S
C117 C115 1.390 1_556 S
C117 C118 1.387 . S
C117 H120 0.950 . S
C118 C117 1.387 . S
C118 C121 1.387 . S
H119 C115 0.950 . S
H120 C117 0.950 . S
C121 C112 1.390 1_556 S
C121 H114 0.950 . S
C121 C118 1.387 . S
C122 C123 1.387 . S
C122 H126 0.950 . S
C122 C131 1.390 . S
C123 C122 1.387 . S
C123 C125 1.387 . S
H124 C131 0.950 . S
C125 C123 1.387 . S
C125 C127 1.390 . S
C125 H129 0.950 . S
H126 C122 0.950 . S
C127 C125 1.390 . S
C127 C128 1.387 . S
C127 H130 0.950 . S
C128 C127 1.387 . S
C128 C131 1.387 . S
H129 C125 0.950 . S
H130 C127 0.950 . S
C131 C122 1.390 . S
C131 H124 0.950 . S
C131 C128 1.387 . S
C132 C133 1.387 . S
C132 H136 0.950 . S
C132 C141 1.390 1_554 S
C133 C132 1.387 . S
C133 C135 1.387 . S
H134 C141 0.950 . S
C135 C133 1.387 . S
C135 C137 1.390 1_554 S
C135 H139 0.950 . S
H136 C132 0.950 . S
C137 C135 1.390 1_556 S
C137 C138 1.387 . S
C137 H140 0.950 . S
C138 C137 1.387 . S
C138 C141 1.387 . S
H139 C135 0.950 . S
H140 C137 0.950 . S
C141 C132 1.390 1_556 S
C141 H134 0.950 . S
C141 C138 1.387 . S
C142 C143 1.387 . S
C142 H146 0.950 . S
C142 C151 1.390 . S
C143 C142 1.387 . S
C143 C145 1.387 . S
H144 C151 0.950 . S
C145 C143 1.387 . S
C145 C147 1.390 . S
C145 H149 0.950 . S
H146 C142 0.950 . S
C147 C145 1.390 . S
C147 C148 1.387 . S
C147 H150 0.950 . S
C148 C147 1.387 . S
C148 C151 1.387 . S
H149 C145 0.950 . S
H150 C147 0.950 . S
C151 C142 1.390 . S
C151 H144 0.950 . S
C151 C148 1.387 . S
C152 C153 1.387 . S
C152 H156 0.950 . S
C152 C161 1.390 . S
C153 C152 1.387 . S
C153 C155 1.387 . S
H154 C161 0.950 . S
C155 C153 1.387 . S
C155 C157 1.390 . S
C155 H159 0.950 . S
H156 C152 0.950 . S
C157 C155 1.390 . S
C157 C158 1.387 . S
C157 H160 0.950 . S
C158 C157 1.387 . S
C158 C161 1.387 . S
H159 C155 0.950 . S
H160 C157 0.950 . S
C161 C152 1.390 . S
C161 H154 0.950 . S
C161 C158 1.387 . S
C162 C163 1.387 . S
C162 H166 0.950 . S
C162 C171 1.390 . S
C163 C162 1.387 . S
C163 C165 1.387 . S
H164 C171 0.950 . S
C165 C163 1.387 . S
C165 C167 1.390 . S
C165 H169 0.950 . S
H166 C162 0.950 . S
C167 C165 1.390 . S
C167 C168 1.387 . S
C167 H170 0.950 1_565 S
C168 C167 1.387 . S
C168 C171 1.387 . S
H169 C165 0.950 . S
H170 C167 0.950 1_545 S
C171 C162 1.390 . S
C171 H164 0.950 . S
C171 C168 1.387 . S
C172 C173 1.387 . S
C172 H176 0.950 . S
C172 C181 1.390 . S
C173 C172 1.387 . S
C173 C175 1.387 . S
H174 C181 0.950 . S
C175 C173 1.387 . S
C175 C177 1.390 . S
C175 H179 0.950 . S
H176 C172 0.950 . S
C177 C175 1.390 . S
C177 C178 1.387 . S
C177 H180 0.950 . S
C178 C177 1.387 . S
C178 C181 1.387 . S
H179 C175 0.950 . S
H180 C177 0.950 . S
C181 C172 1.390 . S
C181 H174 0.950 . S
C181 C178 1.387 . S
C182 C183 1.387 . S
C182 H186 0.950 . S
C182 C191 1.390 . S
C183 C182 1.387 . S
C183 C185 1.387 . S
H184 C191 0.950 1_565 S
C185 C183 1.387 . S
C185 C187 1.390 . S
C185 H189 0.950 . S
H186 C182 0.950 . S
C187 C185 1.390 . S
C187 C188 1.387 . S
C187 H190 0.950 . S
C188 C187 1.387 . S
C188 C191 1.387 . S
H189 C185 0.950 . S
H190 C187 0.950 . S
C191 C182 1.390 . S
C191 H184 0.950 1_545 S
C191 C188 1.387 . S
C192 C193 1.387 . S
C192 H196 0.950 . S
C192 C201 1.390 . S
C193 C192 1.387 . S
C193 C195 1.387 . S
H194 C201 0.950 . S
C195 C193 1.387 . S
C195 C197 1.390 . S
C195 H199 0.950 . S
H196 C192 0.950 . S
C197 C195 1.390 . S
C197 C198 1.387 . S
C197 H200 0.950 . S
C198 C197 1.387 . S
C198 C201 1.387 . S
H199 C195 0.950 . S
H200 C197 0.950 . S
C201 C192 1.390 . S
C201 H194 0.950 . S
C201 C198 1.387 . S
C202 C203 1.387 . S
C202 H206 0.950 . S
C202 C211 1.390 . S
C203 C202 1.387 . S
C203 C205 1.387 . S
H204 C211 0.950 . S
C205 C203 1.387 . S
C205 C207 1.390 . S
C205 H209 0.950 . S
H206 C202 0.950 . S
C207 C205 1.390 . S
C207 C208 1.387 . S
C207 H210 0.950 . S
C208 C207 1.387 . S
C208 C211 1.387 . S
H209 C205 0.950 . S
H210 C207 0.950 . S
C211 C202 1.390 . S
C211 H204 0.950 . S
C211 C208 1.387 . S
C212 C213 1.387 . S
C212 H216 0.950 . S
C212 C221 1.390 . S
C213 C212 1.387 . S
C213 C215 1.387 . S
H214 C221 0.950 . S
C215 C213 1.387 . S
C215 C217 1.390 . S
C215 H219 0.950 . S
H216 C212 0.950 . S
C217 C215 1.390 . S
C217 C218 1.387 . S
C217 H220 0.950 . S
C218 C217 1.387 . S
C218 C221 1.387 . S
H219 C215 0.950 . S
H220 C217 0.950 . S
C221 C212 1.390 . S
C221 H214 0.950 . S
C221 C218 1.387 . S
C222 C223 1.387 . S
C222 H226 0.950 . S
C222 C231 1.390 . S
C223 C222 1.387 . S
C223 C225 1.387 . S
H224 C231 0.950 . S
C225 C223 1.387 . S
C225 C227 1.390 . S
C225 H229 0.950 . S
H226 C222 0.950 . S
C227 C225 1.390 . S
C227 C228 1.387 . S
C227 H230 0.950 . S
C228 C227 1.387 . S
C228 C231 1.387 . S
H229 C225 0.950 . S
H230 C227 0.950 . S
C231 C222 1.390 . S
C231 H224 0.950 . S
C231 C228 1.387 . S
C232 C233 1.387 . S
C232 H236 0.950 . S
C232 C241 1.390 1_655 S
C233 C232 1.387 . S
C233 C235 1.387 . S
H234 C241 0.950 . S
C235 C233 1.387 . S
C235 C237 1.390 1_655 S
C235 H239 0.950 . S
H236 C232 0.950 . S
C237 C235 1.390 1_455 S
C237 C238 1.387 . S
C237 H240 0.950 . S
C238 C237 1.387 . S
C238 C241 1.387 . S
H239 C235 0.950 . S
H240 C237 0.950 . S
C241 C232 1.390 1_455 S
C241 H234 0.950 . S
C241 C238 1.387 . S
C242 C243 1.387 . S
C242 H246 0.950 . S
C242 C251 1.390 1_655 S
C243 C242 1.387 . S
C243 C245 1.387 . S
H244 C251 0.950 . S
C245 C243 1.387 . S
C245 C247 1.390 1_655 S
C245 H249 0.950 . S
H246 C242 0.950 . S
C247 C245 1.390 1_455 S
C247 C248 1.387 . S
C247 H250 0.950 . S
C248 C247 1.387 . S
C248 C251 1.387 . S
H249 C245 0.950 . S
H250 C247 0.950 . S
C251 C242 1.390 1_455 S
C251 H244 0.950 . S
C251 C248 1.387 . S
C252 C253 1.387 . S
C252 H256 0.950 . S
C252 C261 1.390 1_545 S
C253 C252 1.387 . S
C253 C255 1.387 . S
H254 C261 0.950 . S
C255 C253 1.387 . S
C255 C257 1.390 1_545 S
C255 H259 0.950 . S
H256 C252 0.950 . S
C257 C255 1.390 1_565 S
C257 C258 1.387 . S
C257 H260 0.950 . S
C258 C257 1.387 . S
C258 C261 1.387 . S
H259 C255 0.950 . S
H260 C257 0.950 . S
C261 C252 1.390 1_565 S
C261 H254 0.950 . S
C261 C258 1.387 . S
C262 C263 1.387 . S
C262 H266 0.950 . S
C262 C271 1.390 1_545 S
C263 C262 1.387 . S
C263 C265 1.387 . S
H264 C271 0.950 . S
C265 C263 1.387 . S
C265 C267 1.390 1_545 S
C265 H269 0.950 . S
H266 C262 0.950 . S
C267 C265 1.390 1_565 S
C267 C268 1.387 . S
C267 H270 0.950 . S
C268 C267 1.387 . S
C268 C271 1.387 . S
H269 C265 0.950 . S
H270 C267 0.950 . S
C271 C262 1.390 1_565 S
C271 H264 0.950 . S
C271 C268 1.387 . S
C113 C9 1.383 . S
C118 C79 1.382 . S
C123 C23 1.383 . S
C128 C93 1.383 . S
C133 C37 1.383 . S
C138 C107 1.382 . S
C143 C65 1.383 . S
C148 C51 1.382 . S
C153 C11 1.612 . S
C158 C56 1.573 . S
C163 C25 1.611 . S
C168 C70 1.572 1_565 S
C173 C84 1.573 . S
C178 C39 1.612 . S
C183 C53 1.613 . S
C188 C98 1.575 1_545 S
C193 C67 1.612 . S
C198 C0 1.573 1_655 S
C203 C14 1.574 . S
C208 C81 1.612 . S
C213 C95 1.612 . S
C218 C28 1.573 1_455 S
C223 C42 1.573 . S
C228 C109 1.612 . S
C233 C33 0.916 . S
C238 C5 0.916 . S
C243 C47 0.921 . S
C248 C19 0.921 . S
C253 C61 0.921 . S
C258 C89 0.921 . S
C263 C75 0.916 . S
C268 C103 0.916 . S
