# Generated by pormake.
# Topology zfe, (5)-cn, num edge types: 1
# Building blocks:
#     Node 0, Type 0, BuildingBlock: BEQFEK_clean_sbu_0, # of connection points: 5
#     Node 1, Type 0, BuildingBlock: BEQFEK_clean_sbu_0, # of connection points: 5
#     Node 2, Type 0, BuildingBlock: BEQFEK_clean_sbu_0, # of connection points: 5
#     Node 3, Type 0, BuildingBlock: BEQFEK_clean_sbu_0, # of connection points: 5
#     Node 4, Type 0, BuildingBlock: BEQFEK_clean_sbu_0, # of connection points: 5
#     Node 5, Type 0, BuildingBlock: BEQFEK_clean_sbu_0, # of connection points: 5
#     Node 6, Type 0, BuildingBlock: BEQFEK_clean_sbu_0, # of connection points: 5
#     Node 7, Type 0, BuildingBlock: BEQFEK_clean_sbu_0, # of connection points: 5
#     Node 8, Type 0, BuildingBlock: BEQFEK_clean_sbu_0, # of connection points: 5
#     Node 9, Type 0, BuildingBlock: BEQFEK_clean_sbu_0, # of connection points: 5
#     Node 10, Type 0, BuildingBlock: BEQFEK_clean_sbu_0, # of connection points: 5
#     Node 11, Type 0, BuildingBlock: BEQFEK_clean_sbu_0, # of connection points: 5
#     Node 12, Type 0, BuildingBlock: BEQFEK_clean_sbu_0, # of connection points: 5
#     Node 13, Type 0, BuildingBlock: BEQFEK_clean_sbu_0, # of connection points: 5
#     Node 14, Type 0, BuildingBlock: BEQFEK_clean_sbu_0, # of connection points: 5
#     Node 15, Type 0, BuildingBlock: BEQFEK_clean_sbu_0, # of connection points: 5
#     Edge 16, Type (0, 0), BuildingBlock: OJICUG_clean_linker_0, # of connection points: 2
#     Edge 17, Type (0, 0), BuildingBlock: OJICUG_clean_linker_0, # of connection points: 2
#     Edge 18, Type (0, 0), BuildingBlock: OJICUG_clean_linker_0, # of connection points: 2
#     Edge 19, Type (0, 0), BuildingBlock: OJICUG_clean_linker_0, # of connection points: 2
#     Edge 20, Type (0, 0), BuildingBlock: OJICUG_clean_linker_0, # of connection points: 2
#     Edge 21, Type (0, 0), BuildingBlock: OJICUG_clean_linker_0, # of connection points: 2
#     Edge 22, Type (0, 0), BuildingBlock: OJICUG_clean_linker_0, # of connection points: 2
#     Edge 23, Type (0, 0), BuildingBlock: OJICUG_clean_linker_0, # of connection points: 2
#     Edge 24, Type (0, 0), BuildingBlock: OJICUG_clean_linker_0, # of connection points: 2
#     Edge 25, Type (0, 0), BuildingBlock: OJICUG_clean_linker_0, # of connection points: 2
#     Edge 26, Type (0, 0), BuildingBlock: OJICUG_clean_linker_0, # of connection points: 2
#     Edge 27, Type (0, 0), BuildingBlock: OJICUG_clean_linker_0, # of connection points: 2
#     Edge 28, Type (0, 0), BuildingBlock: OJICUG_clean_linker_0, # of connection points: 2
#     Edge 29, Type (0, 0), BuildingBlock: OJICUG_clean_linker_0, # of connection points: 2
#     Edge 30, Type (0, 0), BuildingBlock: OJICUG_clean_linker_0, # of connection points: 2
#     Edge 31, Type (0, 0), BuildingBlock: OJICUG_clean_linker_0, # of connection points: 2
#     Edge 32, Type (0, 0), BuildingBlock: OJICUG_clean_linker_0, # of connection points: 2
#     Edge 33, Type (0, 0), BuildingBlock: OJICUG_clean_linker_0, # of connection points: 2
#     Edge 34, Type (0, 0), BuildingBlock: OJICUG_clean_linker_0, # of connection points: 2
#     Edge 35, Type (0, 0), BuildingBlock: OJICUG_clean_linker_0, # of connection points: 2
#     Edge 36, Type (0, 0), BuildingBlock: OJICUG_clean_linker_0, # of connection points: 2
#     Edge 37, Type (0, 0), BuildingBlock: OJICUG_clean_linker_0, # of connection points: 2
#     Edge 38, Type (0, 0), BuildingBlock: OJICUG_clean_linker_0, # of connection points: 2
#     Edge 39, Type (0, 0), BuildingBlock: OJICUG_clean_linker_0, # of connection points: 2
#     Edge 40, Type (0, 0), BuildingBlock: OJICUG_clean_linker_0, # of connection points: 2
#     Edge 41, Type (0, 0), BuildingBlock: OJICUG_clean_linker_0, # of connection points: 2
#     Edge 42, Type (0, 0), BuildingBlock: OJICUG_clean_linker_0, # of connection points: 2
#     Edge 43, Type (0, 0), BuildingBlock: OJICUG_clean_linker_0, # of connection points: 2
#     Edge 44, Type (0, 0), BuildingBlock: OJICUG_clean_linker_0, # of connection points: 2
#     Edge 45, Type (0, 0), BuildingBlock: OJICUG_clean_linker_0, # of connection points: 2
#     Edge 46, Type (0, 0), BuildingBlock: OJICUG_clean_linker_0, # of connection points: 2
#     Edge 47, Type (0, 0), BuildingBlock: OJICUG_clean_linker_0, # of connection points: 2
#     Edge 48, Type (0, 0), BuildingBlock: OJICUG_clean_linker_0, # of connection points: 2
#     Edge 49, Type (0, 0), BuildingBlock: OJICUG_clean_linker_0, # of connection points: 2
#     Edge 50, Type (0, 0), BuildingBlock: OJICUG_clean_linker_0, # of connection points: 2
#     Edge 51, Type (0, 0), BuildingBlock: OJICUG_clean_linker_0, # of connection points: 2
#     Edge 52, Type (0, 0), BuildingBlock: OJICUG_clean_linker_0, # of connection points: 2
#     Edge 53, Type (0, 0), BuildingBlock: OJICUG_clean_linker_0, # of connection points: 2
#     Edge 54, Type (0, 0), BuildingBlock: OJICUG_clean_linker_0, # of connection points: 2
#     Edge 55, Type (0, 0), BuildingBlock: OJICUG_clean_linker_0, # of connection points: 2
# Relax obj value: 0.096
# Max RMSD: 0.099
# Mean RMSD: 0.099
data_MOF--net-zfe--node1-BEQFEK_clean_sbu_0--edge1-OJICUG_clean_linker_0
_symmetry_space_group_name_H-M    P1
_symmetry_Int_Tables_number       1
_symmetry_cell_setting            triclinic
loop_
_symmetry_equiv_pos_as_xyz
'x, y, z'
_cell_length_a     43.931618
_cell_length_b     43.933818
_cell_length_c     22.79357
_cell_angle_alpha  90.007343
_cell_angle_beta   89.976874
_cell_angle_gamma 90.067224
loop_
_atom_site_label
_atom_site_type_symbol
_atom_site_fract_x
_atom_site_fract_y
_atom_site_fract_z
_atom_type_partial_charge
Co0 Co 0.99641 0.17268 0.08129 0.0
Co1 Co 0.05136 0.21823 0.07404 0.0
C2 C 0.00991 0.21854 0.17696 0.0
O3 O 0.99439 0.19708 0.15418 0.0
O4 O 0.03323 0.22962 0.15131 0.0
C5 C 0.95734 0.12046 0.09261 0.0
O6 O 0.98225 0.10715 0.11141 0.0
C7 C 0.0913 0.27261 0.06825 0.0
C8 C 0.12642 0.25581 0.00673 0.0
C9 C 0.11755 0.28107 0.03856 0.0
N10 N 0.08467 0.24371 0.0536 0.0
N11 N 0.10596 0.23376 0.0174 0.0
C12 C 0.07219 0.29181 0.10791 0.0
H13 H 0.04777 0.28605 0.10199 0.0
H14 H 0.07598 0.31639 0.09928 0.0
H15 H 0.07841 0.28685 0.15411 0.0
C16 C 0.98464 0.19762 0.96363 0.0
N17 N -0.00047 0.19833 0.01514 0.0
N18 N 0.02238 0.21762 0.01152 0.0
C19 C 0.02279 0.22977 0.95707 0.0
C20 C -0.0009 0.21716 0.92454 0.0
C21 C 0.95818 0.17708 0.95138 0.0
H22 H 0.94104 0.17951 0.9868 0.0
H23 H 0.94727 0.1825 0.90875 0.0
H24 H 0.96607 0.15309 0.95119 0.0
O25 O 0.03202 0.14453 0.08363 0.0
O26 O 0.06998 0.17778 0.08192 0.0
H27 H 0.06853 0.23474 0.9271 0.0
H28 H 0.04262 0.26014 0.89187 0.0
C29 C 0.0482 0.24918 0.93412 0.0
H30 H 0.05373 0.2672 0.96637 0.0
H31 H 0.10629 0.21193 0.99935 0.0
O32 O 0.95836 0.14827 0.07728 0.0
C33 C 0.0604 0.15052 0.08441 0.0
Co34 Co 0.81265 0.99253 0.08215 0.0
Co35 Co 0.77609 0.0536 0.07553 0.0
C36 C 0.77065 0.0111 0.17886 0.0
O37 O 0.78868 0.9922 0.15484 0.0
O38 O 0.76385 0.03629 0.15415 0.0
C39 C 0.85859 0.95042 0.10656 0.0
O40 O 0.86719 0.97288 0.14083 0.0
C41 C 0.7237 0.09576 0.06819 0.0
C42 C 0.74387 0.13306 0.01588 0.0
C43 C 0.71705 0.12343 0.04177 0.0
N44 N 0.75307 0.08916 0.05755 0.0
N45 N 0.76503 0.11174 0.02687 0.0
C46 C 0.70225 0.07502 0.09978 0.0
H47 H 0.70928 0.05097 0.09369 0.0
H48 H 0.67857 0.0783 0.08401 0.0
H49 H 0.70302 0.0803 0.14736 0.0
C50 C 0.78644 0.98448 0.96477 0.0
N51 N 0.78764 -0.00081 0.01642 0.0
N52 N 0.77252 0.02493 0.01245 0.0
C53 C 0.76146 0.02756 0.95736 0.0
C54 C 0.77015 0.00208 0.92508 0.0
C55 C 0.80281 0.95528 0.95269 0.0
H56 H 0.79854 0.93901 0.98897 0.0
H57 H 0.79528 0.94492 0.91072 0.0
H58 H 0.82767 0.95973 0.95083 0.0
O59 O 0.84454 0.02451 0.0856 0.0
O60 O 0.81884 0.06776 0.08027 0.0
H61 H 0.76484 0.07462 0.93521 0.0
H62 H 0.73996 0.05371 0.88764 0.0
C63 C 0.74766 0.05616 0.93361 0.0
H64 H 0.72796 0.0628 0.9611 0.0
H65 H 0.78755 0.11227 0.0123 0.0
O66 O 0.83442 0.95327 0.07643 0.0
C67 C 0.84391 0.05344 0.08414 0.0
Co68 Co -0.00286 0.81786 0.07794 0.0
Co69 Co 0.93932 0.77658 0.06949 0.0
C70 C 0.98252 0.77294 0.17205 0.0
O71 O 0.00011 0.79258 0.14886 0.0
O72 O 0.95776 0.76471 0.1472 0.0
C73 C 0.05958 0.83791 0.09161 0.0
O74 O 0.06455 0.81108 0.11518 0.0
C75 C 0.89927 0.72237 0.06243 0.0
C76 C 0.86249 0.74054 0.00625 0.0
C77 C 0.87235 0.71451 0.03446 0.0
N78 N 0.90532 0.7517 0.05025 0.0
N79 N 0.88305 0.76246 0.01727 0.0
C80 C 0.91954 0.70222 0.09789 0.0
H81 H 0.94369 0.70894 0.09158 0.0
H82 H 0.91629 0.67797 0.08567 0.0
H83 H 0.91386 0.70501 0.14502 0.0
C84 C 0.00686 0.79401 0.95846 0.0
N85 N 0.99211 0.79372 0.01017 0.0
N86 N 0.96784 0.7763 0.00594 0.0
C87 C 0.96622 0.76516 0.95076 0.0
C88 C 0.99081 0.77625 0.91859 0.0
C89 C 0.03495 0.81238 0.94694 0.0
H90 H 0.05183 0.80801 0.98206 0.0
H91 H 0.04534 0.8066 0.904 0.0
H92 H 0.02914 0.83695 0.94792 0.0
O93 O 0.96289 0.8467 0.08635 0.0
O94 O 0.92189 0.81771 0.07724 0.0
H95 H 0.91947 0.76424 0.92571 0.0
H96 H 0.94281 0.73977 0.88211 0.0
C97 C 0.93913 0.7485 0.92704 0.0
H98 H 0.93352 0.7291 0.95616 0.0
H99 H 0.88215 0.78474 1.00146 0.0
O100 O 0.0333 0.84429 0.0721 0.0
C101 C 0.93412 0.84365 0.08442 0.0
Co102 Co 0.17322 0.99399 0.07498 0.0
Co103 Co 0.22122 0.94149 0.06771 0.0
C104 C 0.22009 0.98383 0.16997 0.0
O105 O 0.19788 -0.00177 0.14725 0.0
O106 O 0.23198 0.9608 0.14466 0.0
C107 C 0.1504 0.05462 0.09108 0.0
O108 O 0.1775 0.05976 0.11338 0.0
C109 C 0.27701 0.90328 0.06302 0.0
C110 C 0.26172 0.86838 0.99954 0.0
C111 C 0.28637 0.87749 0.03287 0.0
N112 N 0.24819 0.90944 0.04712 0.0
N113 N 0.23916 0.88827 0.00975 0.0
C114 C 0.29515 0.92214 0.10492 0.0
H115 H 0.28944 0.94657 0.09923 0.0
H116 H 0.31993 0.91857 0.09838 0.0
H117 H 0.28908 0.91553 0.15043 0.0
C118 C 0.19731 0.00707 0.95658 0.0
N119 N 0.19852 0.9921 0.00801 0.0
N120 N 0.2188 0.97017 0.00441 0.0
C121 C 0.23113 0.97046 0.95005 0.0
C122 C 0.21762 0.99366 0.91755 0.0
C123 C 0.17603 0.03292 0.94465 0.0
H124 H 0.17831 0.05016 0.97986 0.0
H125 H 0.1809 0.04398 0.90191 0.0
H126 H 0.15224 0.0244 0.94515 0.0
O127 O 0.14749 0.95703 0.07942 0.0
O128 O 0.18195 0.92033 0.07685 0.0
H129 H 0.23852 0.92526 0.9191 0.0
H130 H 0.26311 0.95254 0.88565 0.0
C131 C 0.25195 0.94619 0.9273 0.0
H132 H 0.26985 0.94129 0.96013 0.0
H133 H 0.21754 0.88756 0.99083 0.0
O134 O 0.14426 0.02843 0.07069 0.0
C135 C 0.15443 0.92893 0.08023 0.0
Co136 Co 4e-05 0.82212 0.5084 0.0
Co137 Co 0.05404 0.7757 0.51568 0.0
C138 C 0.01143 0.77512 0.41392 0.0
O139 O 0.99645 0.79702 0.43646 0.0
O140 O 0.03487 0.76406 0.43919 0.0
C141 C 0.93756 0.84151 0.4969 0.0
O142 O 0.93285 0.81364 0.47801 0.0
C143 C 0.093 0.72047 0.52172 0.0
C144 C 0.1282 0.73674 0.58364 0.0
C145 C 0.11902 0.7116 0.55172 0.0
N146 N 0.08682 0.74949 0.53625 0.0
N147 N 0.10817 0.7591 0.57269 0.0
C148 C 0.07363 0.70153 0.48204 0.0
H149 H 0.0493 0.70767 0.48778 0.0
H150 H 0.07694 0.6769 0.49081 0.0
H151 H 0.08002 0.70633 0.43586 0.0
C152 C 0.98828 0.79814 0.62741 0.0
N153 N 0.00302 0.79716 0.57567 0.0
N154 N 0.02535 0.77729 0.57893 0.0
C155 C 0.0254 0.76487 0.63317 0.0
C156 C 0.00213 0.77796 0.66601 0.0
C157 C 0.96233 0.81918 0.64016 0.0
H158 H 0.94401 0.81525 0.60763 0.0
H159 H 0.9528 0.8155 0.68466 0.0
H160 H 0.97011 0.84311 0.63562 0.0
O161 O 0.03619 0.84925 0.50348 0.0
O162 O 0.07384 0.8158 0.50628 0.0
H163 H 0.07078 0.75773 0.66336 0.0
H164 H 0.0436 0.73309 0.69736 0.0
C165 C 0.04987 0.74421 0.65556 0.0
H166 H 0.05473 0.72631 0.62267 0.0
H167 H 0.10881 0.78092 0.59078 0.0
O168 O 0.96414 0.84933 0.51292 0.0
C169 C 0.0645 0.84311 0.50273 0.0
Co170 Co 0.17473 0.00194 0.50729 0.0
Co171 Co 0.22014 0.05711 0.51399 0.0
C172 C 0.22039 0.0147 0.41142 0.0
O173 O 0.19914 -0.00097 0.43457 0.0
O174 O 0.23119 0.03834 0.43657 0.0
C175 C 0.15381 0.93992 0.49237 0.0
O176 O 0.18084 0.93517 0.46945 0.0
C177 C 0.27437 0.098 0.51816 0.0
C178 C 0.2575 0.13243 0.58104 0.0
C179 C 0.2826 0.12429 0.54806 0.0
N180 N 0.24577 0.09062 0.53389 0.0
N181 N 0.23579 0.11156 0.57083 0.0
C182 C 0.29345 0.0798 0.47678 0.0
H183 H 0.2884 0.05519 0.48207 0.0
H184 H 0.31804 0.08417 0.48418 0.0
H185 H 0.28765 0.08635 0.43112 0.0
C186 C 0.19953 0.99044 0.62539 0.0
N187 N 0.20022 0.00523 0.57374 0.0
N188 N 0.21928 0.02829 0.57733 0.0
C189 C 0.23123 0.02897 0.63197 0.0
C190 C 0.21876 0.00521 0.66464 0.0
C191 C 0.1795 0.96357 0.63743 0.0
H192 H 0.18267 0.9464 0.60235 0.0
H193 H 0.18485 0.95286 0.68027 0.0
H194 H 0.15533 0.97087 0.63683 0.0
O195 O 0.14721 0.0376 0.50371 0.0
O196 O 0.17977 0.07609 0.50619 0.0
H197 H 0.23566 0.07469 0.66217 0.0
H198 H 0.26153 0.04912 0.69691 0.0
C199 C 0.25037 0.05459 0.65481 0.0
H200 H 0.26822 0.06042 0.6224 0.0
H201 H 0.21411 0.1114 0.58961 0.0
O202 O 0.14729 0.96614 0.51222 0.0
C203 C 0.15269 0.06604 0.50332 0.0
Co204 Co 0.99211 0.17219 0.5143 0.0
Co205 Co 0.93819 0.21828 0.52087 0.0
C206 C 0.98058 0.21818 0.41883 0.0
O207 O 0.99572 0.19656 0.44175 0.0
O208 O 0.95718 0.2293 0.44404 0.0
C209 C 0.05375 0.15254 0.4996 0.0
O210 O 0.05784 0.18018 0.47903 0.0
C211 C 0.90194 0.27468 0.5272 0.0
C212 C 0.86366 0.25908 0.58269 0.0
C213 C 0.87543 0.28433 0.5544 0.0
N214 N 0.90594 0.2451 0.53989 0.0
N215 N 0.88282 0.23587 0.5725 0.0
C216 C 0.92377 0.29333 0.49196 0.0
H217 H 0.94741 0.28542 0.49983 0.0
H218 H 0.92173 0.31785 0.50299 0.0
H219 H 0.91864 0.29024 0.44467 0.0
C220 C 0.00398 0.19672 0.6328 0.0
N221 N 0.98937 0.19757 0.58096 0.0
N222 N 0.9666 0.21691 0.58433 0.0
C223 C 0.96581 0.22881 0.63895 0.0
C224 C 0.98936 0.2162 0.67176 0.0
C225 C 0.0304 0.17625 0.64534 0.0
H226 H 0.04795 0.17938 0.61094 0.0
H227 H 0.04079 0.18121 0.68865 0.0
H228 H 0.02273 0.15219 0.6439 0.0
O229 O 0.95592 0.14516 0.5103 0.0
O230 O 0.91814 0.17847 0.51267 0.0
H231 H 0.91918 0.23358 0.66315 0.0
H232 H 0.9441 0.25651 0.70645 0.0
C233 C 0.94004 0.24773 0.66171 0.0
H234 H 0.93616 0.26727 0.63196 0.0
H235 H 0.88034 0.21374 0.58848 0.0
O236 O 0.02768 0.14485 0.51862 0.0
C237 C 0.9276 0.15122 0.50965 0.0
Co238 Co 0.81807 0.99268 0.51617 0.0
Co239 Co 0.77138 0.93903 0.5225 0.0
C240 C 0.77152 0.98192 0.42092 0.0
O241 O 0.79336 0.99672 0.44411 0.0
O242 O 0.76024 0.95838 0.44565 0.0
C243 C 0.83874 0.05424 0.50263 0.0
O244 O 0.81123 0.05903 0.48205 0.0
C245 C 0.71617 0.8998 0.52624 0.0
C246 C 0.73121 0.86568 0.59138 0.0
C247 C 0.70678 0.87411 0.55681 0.0
N248 N 0.74478 0.90648 0.54291 0.0
N249 N 0.75365 0.8858 0.58135 0.0
C250 C 0.69808 0.91838 0.48385 0.0
H251 H 0.70354 0.94288 0.48948 0.0
H252 H 0.67329 0.91459 0.48996 0.0
H253 H 0.70443 0.91175 0.4385 0.0
C254 C 0.79369 0.00472 0.6346 0.0
N255 N 0.79291 0.98988 0.58299 0.0
N256 N 0.77266 0.96784 0.58576 0.0
C257 C 0.75962 0.96824 0.63949 0.0
C258 C 0.77283 0.99137 0.67254 0.0
C259 C 0.81529 0.03016 0.64801 0.0
H260 H 0.81226 0.0485 0.61517 0.0
H261 H 0.81139 0.03981 0.69235 0.0
H262 H 0.83903 0.02176 0.64447 0.0
O263 O 0.84479 0.95666 0.51114 0.0
O264 O 0.81152 0.91881 0.51388 0.0
H265 H 0.75076 0.92361 0.67229 0.0
H266 H 0.72569 0.95196 0.70128 0.0
C267 C 0.73789 0.94453 0.66132 0.0
H268 H 0.72089 0.93922 0.62695 0.0
H269 H 0.77505 0.88564 0.60126 0.0
O270 O 0.84583 0.02791 0.52098 0.0
C271 C 0.83881 0.92834 0.51045 0.0
Co272 Co 0.49822 0.67013 0.57751 0.0
Co273 Co 0.55184 0.7173 0.57059 0.0
C274 C 0.5094 0.71668 0.67273 0.0
O275 O 0.49453 0.69475 0.64995 0.0
O276 O 0.53266 0.72818 0.64745 0.0
C277 C 0.43673 0.64876 0.59219 0.0
O278 O 0.43204 0.67609 0.61379 0.0
C279 C 0.59028 0.77302 0.56545 0.0
C280 C 0.62624 0.75705 0.50492 0.0
C281 C 0.61659 0.78211 0.53652 0.0
N282 N 0.58442 0.74397 0.55062 0.0
N283 N 0.60621 0.73454 0.515 0.0
C284 C 0.57047 0.79172 0.6047 0.0
H285 H 0.54627 0.78513 0.59876 0.0
H286 H 0.57346 0.81638 0.59569 0.0
H287 H 0.5768 0.78719 0.65101 0.0
C288 C 0.48599 0.69459 0.45917 0.0
N289 N 0.50079 0.69557 0.51079 0.0
N290 N 0.52317 0.71543 0.50737 0.0
C291 C 0.52338 0.72765 0.45298 0.0
C292 C 0.5 0.71457 0.42027 0.0
C293 C 0.45981 0.67371 0.44685 0.0
H294 H 0.44234 0.67651 0.48149 0.0
H295 H 0.44919 0.67855 0.4037 0.0
H296 H 0.46783 0.64978 0.44805 0.0
O297 O 0.53471 0.64368 0.58168 0.0
O298 O 0.57203 0.67759 0.57923 0.0
H299 H 0.56918 0.73393 0.42436 0.0
H300 H 0.54281 0.75824 0.38764 0.0
C301 C 0.54833 0.74774 0.43036 0.0
H302 H 0.55301 0.76611 0.4624 0.0
H303 H 0.60723 0.71271 0.49704 0.0
O304 O 0.46298 0.64193 0.57291 0.0
C305 C 0.56294 0.65019 0.58239 0.0
Co306 Co 0.3158 0.49686 0.58104 0.0
Co307 Co 0.27086 0.55213 0.57382 0.0
C308 C 0.27031 0.51044 0.67706 0.0
O309 O 0.29153 0.49479 0.65393 0.0
O310 O 0.25943 0.53392 0.65161 0.0
C311 C 0.36705 0.45776 0.59716 0.0
O312 O 0.37893 0.48215 0.62143 0.0
C313 C 0.21677 0.59267 0.56767 0.0
C314 C 0.23414 0.62741 0.50588 0.0
C315 C 0.20871 0.61896 0.53769 0.0
N316 N 0.24561 0.58565 0.55322 0.0
N317 N 0.25589 0.60672 0.51685 0.0
C318 C 0.19724 0.5739 0.60737 0.0
H319 H 0.20301 0.54943 0.60246 0.0
H320 H 0.17274 0.57759 0.59788 0.0
H321 H 0.20181 0.58057 0.65349 0.0
C322 C 0.29102 0.48511 0.46341 0.0
N323 N 0.29026 0.50007 0.51486 0.0
N324 N 0.27132 0.52314 0.51089 0.0
C325 C 0.25949 0.52365 0.45613 0.0
C326 C 0.27194 0.49976 0.42385 0.0
C327 C 0.31122 0.45837 0.45167 0.0
H328 H 0.30846 0.44139 0.48729 0.0
H329 H 0.30574 0.44736 0.40915 0.0
H330 H 0.33532 0.46596 0.45154 0.0
O331 O 0.34424 0.53226 0.58339 0.0
O332 O 0.31158 0.57063 0.58164 0.0
H333 H 0.25527 0.56935 0.42568 0.0
H334 H 0.22966 0.54355 0.39036 0.0
C335 C 0.24052 0.5492 0.43271 0.0
H336 H 0.22247 0.55505 0.4647 0.0
H337 H 0.27775 0.60675 0.49888 0.0
O338 O 0.34016 0.45896 0.57678 0.0
C339 C 0.33871 0.5607 0.58411 0.0
Co340 Co 0.49913 0.31827 0.57449 0.0
Co341 Co 0.43963 0.27933 0.56821 0.0
C342 C 0.48365 0.2744 0.66975 0.0
O343 O 0.50179 0.29331 0.6459 0.0
O344 O 0.45842 0.26708 0.64558 0.0
C345 C 0.56199 0.33752 0.58768 0.0
O346 O 0.56659 0.31119 0.61347 0.0
C347 C 0.39877 0.22565 0.56191 0.0
C348 C 0.36116 0.2446 0.50888 0.0
C349 C 0.37131 0.21821 0.53545 0.0
N350 N 0.40481 0.25508 0.55053 0.0
N351 N 0.38204 0.2663 0.51944 0.0
C352 C 0.41967 0.20495 0.59476 0.0
H353 H 0.44368 0.21197 0.58776 0.0
H354 H 0.41639 0.18095 0.58088 0.0
H355 H 0.41461 0.20672 0.64234 0.0
C356 C 0.50744 0.29317 0.45567 0.0
N357 N 0.49282 0.2939 0.50749 0.0
N358 N 0.46769 0.27771 0.50385 0.0
C359 C 0.46531 0.26647 0.44884 0.0
C360 C 0.49038 0.27608 0.41624 0.0
C361 C 0.53643 0.30998 0.44363 0.0
H362 H 0.55288 0.30551 0.47946 0.0
H363 H 0.54675 0.30292 0.40133 0.0
H364 H 0.53177 0.33479 0.44273 0.0
O365 O 0.46599 0.34839 0.58255 0.0
O366 O 0.42366 0.32125 0.57554 0.0
H367 H 0.41812 0.26762 0.42714 0.0
H368 H 0.43984 0.24346 0.37982 0.0
C369 C 0.43726 0.25125 0.42568 0.0
H370 H 0.43153 0.23143 0.45364 0.0
H371 H 0.38104 0.28873 0.50443 0.0
O372 O 0.53589 0.34371 0.56708 0.0
C373 C 0.43711 0.3467 0.58147 0.0
Co374 Co 0.6753 0.49387 0.57375 0.0
Co375 Co 0.72331 0.44171 0.56617 0.0
C376 C 0.72181 0.48344 0.66907 0.0
O377 O 0.69966 0.49787 0.64628 0.0
O378 O 0.73384 0.46056 0.64356 0.0
C379 C 0.65318 0.5547 0.58937 0.0
O380 O 0.68054 0.55989 0.6104 0.0
C381 C 0.77914 0.40395 0.56216 0.0
C382 C 0.76453 0.36915 0.49787 0.0
C383 C 0.78887 0.37833 0.53199 0.0
N384 N 0.75043 0.40996 0.54553 0.0
N385 N 0.74179 0.38889 0.50764 0.0
C386 C 0.79682 0.42276 0.60489 0.0
H387 H 0.79006 0.41628 0.65011 0.0
H388 H 0.79134 0.44721 0.59874 0.0
H389 H 0.82166 0.41905 0.59966 0.0
C390 C 0.69915 0.50724 0.45544 0.0
N391 N 0.70064 0.49236 0.50693 0.0
N392 N 0.72106 0.47057 0.50321 0.0
C393 C 0.73325 0.47092 0.44874 0.0
C394 C 0.71942 0.49392 0.41625 0.0
C395 C 0.67746 0.53274 0.44343 0.0
H396 H 0.67998 0.55036 0.47788 0.0
H397 H 0.68173 0.54344 0.40012 0.0
H398 H 0.65377 0.524 0.44528 0.0
O399 O 0.64953 0.4569 0.57721 0.0
O400 O 0.68413 0.42034 0.57449 0.0
H401 H 0.7409 0.42596 0.41664 0.0
H402 H 0.76565 0.45359 0.38463 0.0
C403 C 0.75424 0.44684 0.4258 0.0
H404 H 0.77197 0.44173 0.45884 0.0
H405 H 0.7203 0.38809 0.48817 0.0
O406 O 0.64666 0.5284 0.56999 0.0
C407 C 0.65657 0.42882 0.57764 0.0
Co408 Co 0.50144 0.32042 0.00662 0.0
Co409 Co 0.55507 0.27354 0.0145 0.0
C410 C 0.51316 0.27366 0.91165 0.0
O411 O 0.49827 0.29554 0.93447 0.0
O412 O 0.53643 0.26223 0.93702 0.0
C413 C 0.4394 0.34032 0.99304 0.0
O414 O 0.43478 0.31261 0.97326 0.0
C415 C 0.59676 0.21986 0.01884 0.0
C416 C 0.62795 0.23543 0.08889 0.0
C417 C 0.62193 0.21128 0.05181 0.0
N418 N 0.58801 0.24772 0.03662 0.0
N419 N 0.60702 0.25694 0.07792 0.0
C420 C 0.5808 0.20174 0.97265 0.0
H421 H 0.55586 0.20542 0.97578 0.0
H422 H 0.58606 0.17713 0.97688 0.0
H423 H 0.5884 0.20974 0.92885 0.0
C424 C 0.48884 0.29646 0.12503 0.0
N425 N 0.50384 0.29533 0.07362 0.0
N426 N 0.52569 0.27493 0.07699 0.0
C427 C 0.52489 0.26209 0.1309 0.0
C428 C 0.50185 0.27572 0.16355 0.0
C429 C 0.46351 0.31827 0.13771 0.0
H430 H 0.44507 0.31482 0.10523 0.0
H431 H 0.45391 0.31494 0.18226 0.0
H432 H 0.47198 0.34195 0.133 0.0
O433 O 0.53749 0.34734 1.00278 0.0
O434 O 0.57501 0.31378 0.00602 0.0
H435 H 0.56842 0.25264 0.16826 0.0
H436 H 0.53933 0.22665 0.19088 0.0
C437 C 0.54803 0.23996 0.15325 0.0
H438 H 0.55456 0.22389 0.11802 0.0
H439 H 0.6055 0.27796 0.09909 0.0
O440 O 0.46581 0.34788 0.01048 0.0
C441 C 0.56576 0.34112 1.00257 0.0
Co442 Co 0.67408 0.50103 0.00599 0.0
Co443 Co 0.71894 0.55643 0.01248 0.0
C444 C 0.71999 0.51373 0.91059 0.0
O445 O 0.69872 0.49798 0.93352 0.0
O446 O 0.73048 0.5375 0.9357 0.0
C447 C 0.65425 0.43863 0.99255 0.0
O448 O 0.68157 0.43403 0.97083 0.0
C449 C 0.77357 0.59625 0.01794 0.0
C450 C 0.75638 0.63215 0.07736 0.0
C451 C 0.78188 0.62279 0.04681 0.0
N452 N 0.74452 0.58989 0.03194 0.0
N453 N 0.73433 0.61167 0.0668 0.0
C454 C 0.79302 0.57674 0.97952 0.0
H455 H 0.78712 0.5524 0.98603 0.0
H456 H 0.81754 0.58054 0.98874 0.0
H457 H 0.78847 0.58259 0.93298 0.0
C458 C 0.69905 0.48984 0.12434 0.0
N459 N 0.69941 0.50464 0.07267 0.0
N460 N 0.71817 0.52793 0.07611 0.0
C461 C 0.73017 0.52886 0.13066 0.0
C462 C 0.71819 0.50488 0.16338 0.0
C463 C 0.67954 0.46261 0.13652 0.0
H464 H 0.68311 0.44543 0.1016 0.0
H465 H 0.68504 0.45208 0.17945 0.0
H466 H 0.65523 0.46942 0.13571 0.0
O467 O 0.64619 0.53654 1.00166 0.0
O468 O 0.67856 0.57519 0.00387 0.0
H469 H 0.73391 0.57517 0.15762 0.0
H470 H 0.75878 0.55043 0.19692 0.0
C471 C 0.74874 0.55493 0.15337 0.0
H472 H 0.76738 0.5601 0.12218 0.0
H473 H 0.71233 0.61231 0.08409 0.0
O474 O 0.64714 0.46495 0.01111 0.0
C475 C 0.65154 0.56501 1.00083 0.0
Co476 Co 0.49116 0.67188 0.00988 0.0
Co477 Co 0.43704 0.71797 0.01721 0.0
C478 C 0.47913 0.71765 0.91431 0.0
O479 O 0.49444 0.69615 0.93723 0.0
O480 O 0.45576 0.72877 0.93973 0.0
C481 C 0.55268 0.65166 0.9942 0.0
O482 O 0.55685 0.67908 0.97265 0.0
C483 C 0.40025 0.77433 0.02388 0.0
C484 C 0.3627 0.75852 0.08095 0.0
C485 C 0.37388 0.78381 0.05192 0.0
N486 N 0.40472 0.74482 0.03681 0.0
N487 N 0.382 0.73549 0.07035 0.0
C488 C 0.42148 0.79307 0.98749 0.0
H489 H 0.44527 0.78534 0.99422 0.0
H490 H 0.4194 0.81759 0.9985 0.0
H491 H 0.41573 0.78988 0.94048 0.0
C492 C 0.50345 0.69638 0.12802 0.0
N493 N 0.48862 0.69734 0.07644 0.0
N494 N 0.46577 0.71656 0.08035 0.0
C495 C 0.46514 0.72823 0.13519 0.0
C496 C 0.48886 0.71558 0.16753 0.0
C497 C 0.53007 0.67605 0.13983 0.0
H498 H 0.54734 0.67924 0.10492 0.0
H499 H 0.54077 0.68109 0.18282 0.0
H500 H 0.5225 0.65195 0.1387 0.0
O501 O 0.45494 0.64494 0.00652 0.0
O502 O 0.41699 0.67807 0.0095 0.0
H503 H 0.41867 0.73257 0.16082 0.0
H504 H 0.44373 0.75589 0.20308 0.0
C505 C 0.43937 0.74694 0.15857 0.0
H506 H 0.43502 0.76636 0.12876 0.0
H507 H 0.3799 0.71339 0.08669 0.0
O508 O 0.52666 0.64433 0.01401 0.0
C509 C 0.42658 0.65086 0.00638 0.0
Co510 Co 0.31879 0.49112 0.01344 0.0
Co511 Co 0.27336 0.43651 0.01973 0.0
C512 C 0.27234 0.47967 0.91849 0.0
O513 O 0.29391 0.49494 0.94148 0.0
O514 O 0.26162 0.4559 0.94329 0.0
C515 C 0.33863 0.55303 0.99989 0.0
O516 O 0.31114 0.55748 0.97895 0.0
C517 C 0.21826 0.39755 0.02556 0.0
C518 C 0.23498 0.36136 0.08478 0.0
C519 C 0.20959 0.3711 0.05436 0.0
N520 N 0.24742 0.40343 0.03937 0.0
N521 N 0.25732 0.38151 0.07418 0.0
C522 C 0.19903 0.41753 0.98766 0.0
H523 H 0.20539 0.44174 0.99437 0.0
H524 H 0.17447 0.41417 0.99725 0.0
H525 H 0.20328 0.41174 0.94098 0.0
C526 C 0.29437 0.50242 0.13234 0.0
N527 N 0.29382 0.48767 0.08061 0.0
N528 N 0.27459 0.46476 0.08383 0.0
C529 C 0.26234 0.46415 0.13823 0.0
C530 C 0.27471 0.48786 0.1711 0.0
C531 C 0.31445 0.5292 0.14481 0.0
H532 H 0.31102 0.54668 0.11043 0.0
H533 H 0.3094 0.53953 0.18813 0.0
H534 H 0.33863 0.52194 0.14325 0.0
O535 O 0.34626 0.45545 0.00772 0.0
O536 O 0.31355 0.41711 0.01003 0.0
H537 H 0.25697 0.41803 0.1655 0.0
H538 H 0.23261 0.44374 0.20391 0.0
C539 C 0.24281 0.43872 0.16067 0.0
H540 H 0.22427 0.43402 0.12903 0.0
H541 H 0.27931 0.38057 0.0914 0.0
O542 O 0.34599 0.5268 0.01843 0.0
C543 C 0.34066 0.42704 0.00649 0.0
C544 C 0.145 0.31982 0.09792 0.0
C545 C 0.13542 0.30926 0.04291 0.0
H546 H 0.17662 0.3481 0.14442 0.0
C547 C 0.14722 0.32264 0.99178 0.0
H548 H 0.13654 0.30946 0.13785 0.0
C549 C 0.16963 0.34512 0.99552 0.0
C550 C 0.18099 0.35387 0.05045 0.0
H551 H 0.14021 0.31458 0.94892 0.0
H552 H 0.17972 0.35382 0.95552 0.0
C553 C 0.16795 0.34175 0.10163 0.0
C554 C 0.6738 0.14717 0.09575 0.0
C555 C 0.68854 0.14104 0.04249 0.0
H556 H 0.6408 0.17474 0.1402 0.0
C557 C 0.67831 0.15526 0.99094 0.0
H558 H 0.68161 0.13685 0.13617 0.0
C559 C 0.65457 0.17639 0.99302 0.0
C560 C 0.64131 0.18409 0.04695 0.0
H561 H 0.68952 0.15093 0.94942 0.0
H562 H 0.64811 0.18824 0.95325 0.0
C563 C 0.65059 0.16886 0.09806 0.0
C564 C 0.82064 0.6507 0.98833 0.0
C565 C 0.81023 0.64042 0.04297 0.0
H566 H 0.84884 0.68289 0.94304 0.0
C567 C 0.82382 0.65149 0.0945 0.0
H568 H 0.81011 0.64277 0.94816 0.0
C569 C 0.84638 0.67385 0.09157 0.0
C570 C 0.85496 0.68595 0.03712 0.0
H571 H 0.81584 0.64395 0.13709 0.0
H572 H 0.85529 0.68335 0.13193 0.0
C573 C 0.84261 0.67365 0.98546 0.0
C574 C 0.32876 0.84823 0.98831 0.0
C575 C 0.3145 0.8597 0.03881 0.0
H576 H 0.35982 0.81538 0.95314 0.0
C577 C 0.32368 0.84934 0.09419 0.0
H578 H 0.32174 0.85579 0.94515 0.0
C579 C 0.34496 0.82587 0.09867 0.0
C580 C 0.35778 0.81304 0.04793 0.0
H581 H 0.31259 0.85752 0.13361 0.0
H582 H 0.35013 0.81656 0.14154 0.0
C583 C 0.35058 0.82527 0.99287 0.0
C584 C 0.14554 0.67177 0.49326 0.0
C585 C 0.13634 0.68303 0.548 0.0
H586 H 0.17621 0.64227 0.44733 0.0
C587 C 0.14796 0.6698 0.59942 0.0
H588 H 0.13725 0.68199 0.45308 0.0
C589 C 0.16974 0.64673 0.59617 0.0
C590 C 0.18069 0.63717 0.54143 0.0
H591 H 0.14126 0.67836 0.6421 0.0
H592 H 0.17968 0.63811 0.63635 0.0
C593 C 0.16787 0.64923 0.49001 0.0
C594 C 0.34683 0.17614 0.59152 0.0
C595 C 0.35403 0.1895 0.53742 0.0
H596 H 0.31796 0.14463 0.63708 0.0
C597 C 0.34074 0.17803 0.4859 0.0
H598 H 0.35647 0.18496 0.63184 0.0
C599 C 0.31933 0.15452 0.48874 0.0
C600 C 0.31039 0.14283 0.5433 0.0
H601 H 0.3459 0.18821 0.44375 0.0
H602 H 0.30812 0.14715 0.44885 0.0
C603 C 0.32481 0.15322 0.59451 0.0
C604 C 0.83172 0.34916 0.48919 0.0
C605 C 0.81688 0.36057 0.5391 0.0
H606 H 0.86298 0.31619 0.45527 0.0
C607 C 0.8253 0.35009 0.59484 0.0
H608 H 0.82527 0.35684 0.44577 0.0
C609 C 0.84636 0.3265 0.60015 0.0
C610 C 0.8597 0.31369 0.54993 0.0
H611 H 0.81373 0.35823 0.63377 0.0
H612 H 0.85091 0.31706 0.64319 0.0
C613 C 0.85331 0.32607 0.49462 0.0
C614 C 0.64211 0.82196 0.59674 0.0
C615 C 0.63394 0.81067 0.54141 0.0
H616 H 0.67209 0.85132 0.64478 0.0
C617 C 0.64675 0.82373 0.49084 0.0
H618 H 0.63293 0.81187 0.63634 0.0
C619 C 0.66872 0.8466 0.49559 0.0
C620 C 0.67862 0.85619 0.55106 0.0
H621 H 0.64088 0.81513 0.44774 0.0
H622 H 0.67959 0.85501 0.45613 0.0
C623 C 0.66457 0.84435 0.60153 0.0
C624 C 0.13545 0.10921 0.10178 0.0
C625 C 0.12722 0.07899 0.08971 0.0
H626 H 0.12087 0.1554 0.10942 0.0
C627 C 0.09662 0.07226 0.07677 0.0
H628 H 0.1588 0.11515 0.11189 0.0
C629 C 0.0747 0.09534 0.07599 0.0
C630 C 0.08304 0.12564 0.08736 0.0
H631 H 0.08955 0.04913 0.06752 0.0
H632 H 0.05135 0.08949 0.06569 0.0
C633 C 0.11366 0.13229 0.10029 0.0
C634 C 0.92777 0.07191 0.10123 0.0
C635 C 0.92832 0.10336 0.0901 0.0
H636 H 0.90081 0.03149 0.10792 0.0
C637 C 0.90088 0.11831 0.07698 0.0
H638 H 0.94851 0.0597 0.11137 0.0
C639 C 0.87344 0.10216 0.07541 0.0
C640 C 0.87289 0.07067 0.08642 0.0
H641 H 0.90052 0.14254 0.06821 0.0
H642 H 0.8527 0.11437 0.06519 0.0
C643 C 0.90039 0.05572 0.09919 0.0
C644 C 0.9262 0.89757 0.11565 0.0
C645 C 0.91458 0.87078 0.09054 0.0
H646 H 0.91746 0.94357 0.14105 0.0
C647 C 0.8842 0.87024 0.07115 0.0
H648 H 0.94948 0.89865 0.1312 0.0
C649 C 0.86594 0.89615 0.07612 0.0
C650 C 0.87757 0.92286 0.10152 0.0
H651 H 0.87465 0.84994 0.05141 0.0
H652 H 0.84269 0.8952 0.06036 0.0
C653 C 0.90781 0.92326 0.12152 0.0
C654 C 0.13729 0.8752 0.09692 0.0
C655 C 0.13014 0.90568 0.08398 0.0
H656 H 0.12058 0.82986 0.10988 0.0
C657 C 0.09967 0.91359 0.0736 0.0
H658 H 0.16059 0.86837 0.1052 0.0
C659 C 0.07686 0.89147 0.0756 0.0
C660 C 0.08398 0.86103 0.08876 0.0
H661 H 0.09342 0.93683 0.06326 0.0
H662 H 0.05359 0.89833 0.06722 0.0
C663 C 0.1144 0.85312 0.09966 0.0
C664 C 0.13944 0.8849 0.48369 0.0
C665 C 0.13097 0.91517 0.49477 0.0
H666 H 0.12517 0.83843 0.47777 0.0
C667 C 0.10034 0.92164 0.50772 0.0
H668 H 0.16284 0.87916 0.47361 0.0
C669 C 0.07864 0.89835 0.50941 0.0
C670 C 0.08717 0.86802 0.49896 0.0
H671 H 0.09305 0.94477 0.51623 0.0
H672 H 0.05526 0.90409 0.51966 0.0
C673 C 0.11783 0.86156 0.48613 0.0
C674 C 0.10901 0.13995 0.48919 0.0
C675 C 0.07904 0.13043 0.50027 0.0
H676 H 0.15578 0.12711 0.48164 0.0
C677 C 0.07338 0.09946 0.51149 0.0
H678 H 0.1141 0.16365 0.48042 0.0
C679 C 0.0972 0.07844 0.51155 0.0
C680 C 0.12724 0.088 0.50108 0.0
H681 H 0.05048 0.09139 0.51995 0.0
H682 H 0.09211 0.05476 0.52055 0.0
C683 C 0.13288 0.11899 0.48993 0.0
C684 C 0.89223 0.07262 0.51566 0.0
C685 C 0.86145 0.07904 0.50412 0.0
H686 H 0.93734 0.09031 0.52578 0.0
C687 C 0.8527 0.10926 0.49361 0.0
H688 H 0.89972 0.04952 0.52371 0.0
C689 C 0.87424 0.13265 0.4952 0.0
C690 C 0.90504 0.12626 0.50667 0.0
H691 H 0.82917 0.11492 0.48461 0.0
H692 H 0.8667 0.15576 0.4873 0.0
C693 C 0.91383 0.09597 0.51658 0.0
C694 C 0.91815 0.89455 0.51108 0.0
C695 C 0.91222 0.86361 0.50018 0.0
H696 H 0.89976 0.93922 0.52235 0.0
C697 C 0.88194 0.85412 0.49238 0.0
H698 H 0.94124 0.90263 0.51716 0.0
C699 C 0.85808 0.8751 0.4958 0.0
C700 C 0.86403 0.90608 0.50645 0.0
H701 H 0.87661 0.83043 0.48402 0.0
H702 H 0.83498 0.86703 0.48983 0.0
C703 C 0.89436 0.91556 0.51386 0.0
C704 C 0.59943 0.57219 0.57618 0.0
C705 C 0.63008 0.57909 0.58812 0.0
H706 H 0.55411 0.58915 0.56568 0.0
C707 C 0.63835 0.60942 0.5991 0.0
H708 H 0.59232 0.54898 0.56777 0.0
C709 C 0.61649 0.63246 0.59748 0.0
C710 C 0.58583 0.62559 0.58554 0.0
H711 H 0.66177 0.61546 0.60841 0.0
H712 H 0.62367 0.65567 0.6057 0.0
C713 C 0.5775 0.59518 0.57525 0.0
C714 C 0.39425 0.57393 0.57677 0.0
C715 C 0.36403 0.58295 0.58708 0.0
H716 H 0.44088 0.58771 0.56962 0.0
C717 C 0.35802 0.61377 0.59922 0.0
H718 H 0.39964 0.5504 0.5671 0.0
C719 C 0.38162 0.63506 0.60113 0.0
C720 C 0.41177 0.62613 0.59025 0.0
H721 H 0.33501 0.62151 0.60748 0.0
H722 H 0.37617 0.65859 0.61067 0.0
C723 C 0.41785 0.59534 0.57797 0.0
C724 C 0.37088 0.4019 0.57601 0.0
C725 C 0.3848 0.42925 0.59355 0.0
H726 H 0.37639 0.3543 0.55894 0.0
C727 C 0.41593 0.42915 0.60761 0.0
H728 H 0.34691 0.40123 0.56496 0.0
C729 C 0.43286 0.40235 0.60374 0.0
C730 C 0.41897 0.37496 0.58631 0.0
H731 H 0.42735 0.44985 0.62119 0.0
H732 H 0.45685 0.40311 0.61462 0.0
C733 C 0.38775 0.37499 0.57274 0.0
C734 C 0.57928 0.39096 0.57046 0.0
C735 C 0.58638 0.36063 0.58466 0.0
H736 H 0.59577 0.43632 0.55784 0.0
C737 C 0.61671 0.35292 0.59689 0.0
H738 H 0.55607 0.39768 0.56107 0.0
C739 C 0.63954 0.37508 0.59452 0.0
C740 C 0.63238 0.40547 0.58073 0.0
H741 H 0.62287 0.32975 0.60794 0.0
H742 H 0.66277 0.36842 0.6039 0.0
C743 C 0.602 0.41317 0.56891 0.0
C744 C 0.60097 0.41987 0.00713 0.0
C745 C 0.63173 0.41361 0.99512 0.0
H746 H 0.556 0.40202 0.01826 0.0
C747 C 0.6406 0.38335 0.98516 0.0
H748 H 0.59337 0.44298 0.01481 0.0
C749 C 0.61918 0.3598 0.98761 0.0
C750 C 0.58838 0.36609 0.99935 0.0
H751 H 0.66412 0.37778 0.97586 0.0
H752 H 0.62678 0.33669 0.98002 0.0
C753 C 0.5795 0.3964 0.00886 0.0
C754 C 0.57219 0.59858 0.00772 0.0
C755 C 0.5779 0.62944 0.99544 0.0
H756 H 0.59088 0.55392 0.01833 0.0
C757 C 0.60788 0.63879 0.98399 0.0
H758 H 0.54928 0.59064 0.01648 0.0
C759 C 0.63172 0.6178 0.98547 0.0
C760 C 0.62605 0.58693 0.99774 0.0
H761 H 0.61302 0.66239 0.97441 0.0
H762 H 0.65462 0.62582 0.9769 0.0
C763 C 0.59599 0.5775 0.00849 0.0
C764 C 0.39191 0.57198 0.01291 0.0
C765 C 0.36107 0.57809 1.00148 0.0
H766 H 0.43686 0.59009 0.02276 0.0
C767 C 0.352 0.60823 0.99106 0.0
H768 H 0.39964 0.54895 0.02089 0.0
C769 C 0.37331 0.63184 0.99256 0.0
C770 C 0.40419 0.62574 0.0038 0.0
H771 H 0.3284 0.61365 0.98218 0.0
H772 H 0.36555 0.65488 0.98469 0.0
C773 C 0.41328 0.59554 0.01371 0.0
C774 C 0.42007 0.39339 0.00754 0.0
C775 C 0.41416 0.36252 0.99585 0.0
H776 H 0.40161 0.43803 0.01948 0.0
C777 C 0.38395 0.35312 0.98692 0.0
H778 H 0.44313 0.40139 0.01445 0.0
C779 C 0.36012 0.37409 0.99025 0.0
C780 C 0.36602 0.40499 1.00192 0.0
H781 H 0.37865 0.3295 0.9779 0.0
H782 H 0.33707 0.36606 0.98355 0.0
C783 C 0.39628 0.41444 0.01022 0.0
C784 C 0.96504 0.22938 0.31605 0.0
C785 C 0.98822 0.22704 0.35818 0.0
H786 H 0.95393 0.22818 0.22445 0.0
C787 C 0.01876 0.22753 0.33978 0.0
H788 H 0.94133 0.22874 0.32911 0.0
C789 C 0.02597 0.22816 0.28001 0.0
C790 C 0.00271 0.22727 0.23785 0.0
H791 H 0.037 0.22564 0.37154 0.0
H792 H 0.04962 0.22655 0.26689 0.0
C793 C 0.97223 0.22897 0.25627 0.0
C794 C 0.75683 0.96764 0.31873 0.0
C795 C 0.76239 0.99037 0.36066 0.0
H796 H 0.75519 0.95656 0.22718 0.0
C797 C 0.7646 0.02085 0.34212 0.0
H798 H 0.75521 0.94397 0.33173 0.0
C799 C 0.76378 0.02816 0.28237 0.0
C800 C 0.7616 0.005 0.24019 0.0
H801 H 0.76884 0.03882 0.37364 0.0
H802 H 0.76769 0.05153 0.26917 0.0
C803 C 0.75688 0.97484 0.25892 0.0
C804 C 0.96571 0.76515 0.27532 0.0
C805 C 0.989 0.76397 0.23321 0.0
H806 H 0.95473 0.76995 0.36654 0.0
C807 C 0.0193 0.76072 0.25202 0.0
H808 H 0.94221 0.768 0.26201 0.0
C809 C 0.02641 0.76105 0.31186 0.0
C810 C 0.0034 0.76562 0.35369 0.0
H811 H 0.03768 0.75993 0.22032 0.0
H812 H 0.05011 0.76055 0.32497 0.0
C813 C 0.97289 0.76644 0.33508 0.0
C814 C 0.22968 0.03019 0.30782 0.0
C815 C 0.22916 0.00722 0.35058 0.0
H816 H 0.22688 0.04061 0.21602 0.0
C817 C 0.23113 0.97664 0.33282 0.0
H818 H 0.22782 0.05391 0.32037 0.0
C819 C 0.23154 0.96907 0.27318 0.0
C820 C 0.22892 0.99193 0.23048 0.0
H821 H 0.23058 0.95853 0.36507 0.0
H822 H 0.23115 0.94527 0.26069 0.0
C823 C 0.22904 0.02259 0.24819 0.0
C824 C -0.00287 0.80391 0.82375 0.0
C825 C 0.99424 0.77622 0.85395 0.0
H826 H 0.00268 0.82598 0.74079 0.0
C827 C 0.99364 0.74892 0.82191 0.0
H828 H -0.00281 0.82534 0.84725 0.0
C829 C 0.99532 0.7494 0.76059 0.0
C830 C -0.00136 0.77712 0.73058 0.0
H831 H 0.99171 0.72725 0.84427 0.0
H832 H 0.99411 0.72814 0.73666 0.0
C833 C -0.00028 0.80432 0.76278 0.0
C834 C 0.19127 0.00035 0.76012 0.0
C835 C 0.21894 0.0019 0.72939 0.0
H836 H 0.1693 0.99539 0.84326 0.0
C837 C 0.24634 0.00124 0.76106 0.0
H838 H 0.16976 0.00132 0.73705 0.0
C839 C 0.24602 -0.00017 0.8224 0.0
C840 C 0.21833 -0.00251 0.85292 0.0
H841 H 0.26801 0.00187 0.73845 0.0
H842 H 0.26742 0.00039 0.84591 0.0
C843 C 0.19099 -0.00239 0.82108 0.0
C844 C 0.99551 0.18967 0.82902 0.0
C845 C 0.99594 0.21732 0.85988 0.0
H846 H 0.99212 0.16772 0.74557 0.0
C847 C 0.9946 0.24476 0.82844 0.0
H848 H -0.00302 0.16816 0.85205 0.0
C849 C 0.9936 0.24451 0.7671 0.0
C850 C 0.99261 0.21682 0.7364 0.0
H851 H 0.99443 0.26638 0.85126 0.0
H852 H 0.99333 0.26596 0.74367 0.0
C853 C 0.99337 0.18942 0.768 0.0
C854 C 0.74403 -0.00037 0.76647 0.0
C855 C 0.7717 0.99478 0.73708 0.0
H856 H 0.72168 0.00478 0.84976 0.0
C857 C 0.7986 0.99215 0.76983 0.0
H858 H 0.72303 0.00201 0.74204 0.0
C859 C 0.79795 0.99455 0.8308 0.0
C860 C 0.77029 -0.001 0.86041 0.0
H861 H 0.82019 0.98809 0.74823 0.0
H862 H 0.81918 0.99312 0.85478 0.0
C863 C 0.74329 0.00141 0.8278 0.0
C864 C 0.51712 0.72792 0.83541 0.0
C865 C 0.48656 0.72629 0.85344 0.0
H866 H 0.54831 0.72747 0.76301 0.0
C867 C 0.46348 0.72697 0.8109 0.0
H868 H 0.53529 0.72723 0.8675 0.0
C869 C 0.47093 0.72612 0.75123 0.0
C870 C 0.50154 0.72563 0.73326 0.0
H871 H 0.43977 0.72536 0.8237 0.0
H872 H 0.45281 0.72409 0.71923 0.0
C873 C 0.52454 0.72812 0.77571 0.0
C874 C 0.25981 0.46494 0.81559 0.0
C875 C 0.263 0.48779 0.85821 0.0
H876 H 0.25987 0.45439 0.72369 0.0
C877 C 0.26281 0.51845 0.84046 0.0
H878 H 0.26018 0.44114 0.82803 0.0
C879 C 0.2617 0.52606 0.78084 0.0
C880 C 0.26174 0.50308 0.73807 0.0
H881 H 0.26534 0.53648 0.87253 0.0
H882 H 0.26363 0.54976 0.76822 0.0
C883 C 0.2597 0.47251 0.75594 0.0
C884 C 0.52807 0.26107 0.80881 0.0
C885 C 0.50513 0.26471 0.85108 0.0
H886 H 0.53911 0.26145 0.71714 0.0
C887 C 0.47457 0.26556 0.83277 0.0
H888 H 0.5518 0.26061 0.82169 0.0
C889 C 0.46723 0.26521 0.77302 0.0
C890 C 0.49041 0.26494 0.73062 0.0
H891 H 0.45646 0.26841 0.86458 0.0
H892 H 0.44366 0.26801 0.76014 0.0
C893 C 0.5208 0.26164 0.74901 0.0
C894 C 0.73067 0.52183 0.74784 0.0
C895 C 0.73025 0.49123 0.72987 0.0
H896 H 0.72907 0.55299 0.82019 0.0
C897 C 0.73195 0.46821 0.77243 0.0
H898 H 0.72919 0.53995 0.71573 0.0
C899 C 0.7309 0.47564 0.8321 0.0
C900 C 0.72919 0.50621 0.85003 0.0
H901 H 0.73129 0.44446 0.75968 0.0
H902 H 0.72966 0.45746 0.86414 0.0
C903 C 0.73068 0.52928 0.80753 0.0
C904 C 0.50103 0.30259 0.25981 0.0
C905 C 0.49847 0.2753 0.22818 0.0
H906 H 0.49958 0.32424 0.34375 0.0
C907 C 0.4936 0.24799 0.25879 0.0
H908 H 0.50517 0.32393 0.23735 0.0
C909 C 0.4917 0.24799 0.32013 0.0
C910 C 0.49381 0.27542 0.35158 0.0
H911 H 0.49117 0.22669 0.23533 0.0
H912 H 0.4884 0.22663 0.34298 0.0
C913 C 0.49834 0.3027 0.32076 0.0
C914 C 0.74689 0.50005 0.32015 0.0
C915 C 0.71953 0.49731 0.35156 0.0
H916 H 0.7681 0.50247 0.23547 0.0
C917 C 0.69191 0.49666 0.32059 0.0
H918 H 0.76848 0.50116 0.34297 0.0
C919 C 0.69161 0.49924 0.25963 0.0
C920 C 0.71896 0.50137 0.22803 0.0
H921 H 0.67047 0.49408 0.34351 0.0
H922 H 0.66988 0.49972 0.23723 0.0
C923 C 0.74665 0.50132 0.25881 0.0
C924 C 0.49457 0.74292 0.32508 0.0
C925 C 0.49648 0.71524 0.35565 0.0
H926 H 0.49258 0.76482 0.24102 0.0
C927 C 0.49617 0.68786 0.32392 0.0
H928 H 0.49429 0.76434 0.34857 0.0
C929 C 0.49358 0.68809 0.26296 0.0
C930 C 0.49231 0.71574 0.23219 0.0
H931 H 0.49807 0.66618 0.34622 0.0
H932 H 0.49242 0.66657 0.23992 0.0
C933 C 0.49318 0.74318 0.26375 0.0
C934 C 0.30069 0.4926 0.26805 0.0
C935 C 0.27353 0.49161 0.23569 0.0
H936 H 0.32137 0.49695 0.35251 0.0
C937 C 0.24562 0.49317 0.26563 0.0
H938 H 0.32254 0.49102 0.24625 0.0
C939 C 0.24493 0.49497 0.32695 0.0
C940 C 0.27215 0.49639 0.35913 0.0
H941 H 0.22435 0.49283 0.24163 0.0
H942 H 0.22314 0.49526 0.34918 0.0
C943 C 0.30001 0.49543 0.32897 0.0
loop_
_geom_bond_atom_site_label_1
_geom_bond_atom_site_label_2
_geom_bond_distance
_geom_bond_site_symmetry_2
_ccdc_geom_bond_type
Co0 O3 1.970 . S
Co0 N17 1.989 1_655 S
Co0 O25 1.967 1_655 S
Co0 O32 1.920 . S
Co1 O4 1.966 . S
Co1 N10 2.022 . S
Co1 N18 1.993 . S
Co1 O26 1.941 . S
C2 O3 1.258 1_455 S
C2 O4 1.263 . S
O3 Co0 1.970 . S
O3 C2 1.258 1_655 S
O4 Co1 1.966 . S
O4 C2 1.263 . S
C5 O6 1.235 . S
C5 O32 1.289 . S
O6 C5 1.235 . S
C7 C9 1.400 . S
C7 N10 1.351 . S
C7 C12 1.501 . S
C8 C9 1.387 . S
C8 N11 1.341 . S
C9 C7 1.400 . S
C9 C8 1.387 . S
N10 Co1 2.022 . S
N10 C7 1.351 . S
N10 N11 1.365 . S
N11 C8 1.341 . S
N11 N10 1.365 . S
N11 H31 0.862 1_554 S
C12 C7 1.501 . S
C12 H13 0.961 . S
C12 H14 0.961 . S
C12 H15 0.960 . S
H13 C12 0.961 . S
H14 C12 0.961 . S
H15 C12 0.960 . S
C16 N17 1.342 1_656 S
C16 C20 1.401 1_655 S
C16 C21 1.499 . S
N17 Co0 1.989 1_455 S
N17 C16 1.342 1_454 S
N17 N18 1.388 . S
N18 Co1 1.993 . S
N18 N17 1.388 . S
N18 C19 1.346 1_554 S
C19 N18 1.346 1_556 S
C19 C20 1.396 . S
C19 C29 1.510 . S
C20 C16 1.401 1_455 S
C20 C19 1.396 . S
C21 C16 1.499 . S
C21 H22 0.959 . S
C21 H23 0.960 . S
C21 H24 0.961 . S
H22 C21 0.959 . S
H23 C21 0.960 . S
H24 C21 0.961 . S
O25 Co0 1.967 1_455 S
O25 C33 1.258 . S
O26 Co1 1.941 . S
O26 C33 1.266 . S
H27 C29 0.959 . S
H28 C29 0.961 . S
C29 C19 1.510 . S
C29 H27 0.959 . S
C29 H28 0.961 . S
C29 H30 0.960 . S
H30 C29 0.960 . S
H31 N11 0.862 1_556 S
O32 Co0 1.920 . S
O32 C5 1.289 . S
C33 O25 1.258 . S
C33 O26 1.266 . S
Co34 O37 1.970 . S
Co34 N51 1.989 1_565 S
Co34 O59 1.967 1_565 S
Co34 O66 1.920 . S
Co35 O38 1.966 . S
Co35 N44 2.022 . S
Co35 N52 1.993 . S
Co35 O60 1.941 . S
C36 O37 1.258 1_545 S
C36 O38 1.263 . S
O37 Co34 1.970 . S
O37 C36 1.258 1_565 S
O38 Co35 1.966 . S
O38 C36 1.263 . S
C39 O40 1.235 . S
C39 O66 1.289 . S
O40 C39 1.235 . S
C41 C43 1.400 . S
C41 N44 1.351 . S
C41 C46 1.501 . S
C42 C43 1.387 . S
C42 N45 1.341 . S
C43 C41 1.400 . S
C43 C42 1.387 . S
N44 Co35 2.022 . S
N44 C41 1.351 . S
N44 N45 1.365 . S
N45 C42 1.341 . S
N45 N44 1.365 . S
N45 H65 0.862 1_554 S
C46 C41 1.501 . S
C46 H47 0.961 . S
C46 H48 0.961 . S
C46 H49 0.960 . S
H47 C46 0.961 . S
H48 C46 0.961 . S
H49 C46 0.960 . S
C50 N51 1.342 1_566 S
C50 C54 1.401 1_565 S
C50 C55 1.499 . S
N51 Co34 1.989 1_545 S
N51 C50 1.342 1_544 S
N51 N52 1.388 . S
N52 Co35 1.993 . S
N52 N51 1.388 . S
N52 C53 1.346 1_554 S
C53 N52 1.346 1_556 S
C53 C54 1.396 . S
C53 C63 1.510 . S
C54 C50 1.401 1_545 S
C54 C53 1.396 . S
C55 C50 1.499 . S
C55 H56 0.959 . S
C55 H57 0.960 . S
C55 H58 0.961 . S
H56 C55 0.959 . S
H57 C55 0.960 . S
H58 C55 0.961 . S
O59 Co34 1.967 1_545 S
O59 C67 1.258 . S
O60 Co35 1.941 . S
O60 C67 1.266 . S
H61 C63 0.959 . S
H62 C63 0.961 . S
C63 C53 1.510 . S
C63 H61 0.959 . S
C63 H62 0.961 . S
C63 H64 0.960 . S
H64 C63 0.960 . S
H65 N45 0.862 1_556 S
O66 Co34 1.920 . S
O66 C39 1.289 . S
C67 O59 1.258 . S
C67 O60 1.266 . S
Co68 O71 1.970 . S
Co68 N85 1.989 1_455 S
Co68 O93 1.967 1_455 S
Co68 O100 1.920 . S
Co69 O72 1.966 . S
Co69 N78 2.022 . S
Co69 N86 1.993 . S
Co69 O94 1.941 . S
C70 O71 1.258 1_655 S
C70 O72 1.263 . S
O71 Co68 1.970 . S
O71 C70 1.258 1_455 S
O72 Co69 1.966 . S
O72 C70 1.263 . S
C73 O74 1.235 . S
C73 O100 1.289 . S
O74 C73 1.235 . S
C75 C77 1.400 . S
C75 N78 1.351 . S
C75 C80 1.501 . S
C76 C77 1.387 . S
C76 N79 1.341 . S
C77 C75 1.400 . S
C77 C76 1.387 . S
N78 Co69 2.022 . S
N78 C75 1.351 . S
N78 N79 1.365 . S
N79 C76 1.341 . S
N79 N78 1.365 . S
N79 H99 0.862 1_554 S
C80 C75 1.501 . S
C80 H81 0.961 . S
C80 H82 0.961 . S
C80 H83 0.960 . S
H81 C80 0.961 . S
H82 C80 0.961 . S
H83 C80 0.960 . S
C84 N85 1.342 1_456 S
C84 C88 1.401 1_455 S
C84 C89 1.499 . S
N85 Co68 1.989 1_655 S
N85 C84 1.342 1_654 S
N85 N86 1.388 . S
N86 Co69 1.993 . S
N86 N85 1.388 . S
N86 C87 1.346 1_554 S
C87 N86 1.346 1_556 S
C87 C88 1.396 . S
C87 C97 1.510 . S
C88 C84 1.401 1_655 S
C88 C87 1.396 . S
C89 C84 1.499 . S
C89 H90 0.959 . S
C89 H91 0.960 . S
C89 H92 0.961 . S
H90 C89 0.959 . S
H91 C89 0.960 . S
H92 C89 0.961 . S
O93 Co68 1.967 1_655 S
O93 C101 1.258 . S
O94 Co69 1.941 . S
O94 C101 1.266 . S
H95 C97 0.959 . S
H96 C97 0.961 . S
C97 C87 1.510 . S
C97 H95 0.959 . S
C97 H96 0.961 . S
C97 H98 0.960 . S
H98 C97 0.960 . S
H99 N79 0.862 1_556 S
O100 Co68 1.920 . S
O100 C73 1.289 . S
C101 O93 1.258 . S
C101 O94 1.266 . S
Co102 O105 1.970 . S
Co102 N119 1.989 1_545 S
Co102 O127 1.967 1_545 S
Co102 O134 1.920 . S
Co103 O106 1.966 . S
Co103 N112 2.022 . S
Co103 N120 1.993 . S
Co103 O128 1.941 . S
C104 O105 1.258 1_565 S
C104 O106 1.263 . S
O105 Co102 1.970 . S
O105 C104 1.258 1_545 S
O106 Co103 1.966 . S
O106 C104 1.263 . S
C107 O108 1.235 . S
C107 O134 1.289 . S
O108 C107 1.235 . S
C109 C111 1.400 . S
C109 N112 1.351 . S
C109 C114 1.501 . S
C110 C111 1.387 . S
C110 N113 1.341 . S
C111 C109 1.400 . S
C111 C110 1.387 . S
N112 Co103 2.022 . S
N112 C109 1.351 . S
N112 N113 1.365 . S
N113 C110 1.341 . S
N113 N112 1.365 . S
N113 H133 0.862 1_554 S
C114 C109 1.501 . S
C114 H115 0.961 . S
C114 H116 0.961 . S
C114 H117 0.960 . S
H115 C114 0.961 . S
H116 C114 0.961 . S
H117 C114 0.960 . S
C118 N119 1.342 1_546 S
C118 C122 1.401 1_545 S
C118 C123 1.499 . S
N119 Co102 1.989 1_565 S
N119 C118 1.342 1_564 S
N119 N120 1.388 . S
N120 Co103 1.993 . S
N120 N119 1.388 . S
N120 C121 1.346 1_554 S
C121 N120 1.346 1_556 S
C121 C122 1.396 . S
C121 C131 1.510 . S
C122 C118 1.401 1_565 S
C122 C121 1.396 . S
C123 C118 1.499 . S
C123 H124 0.959 . S
C123 H125 0.960 . S
C123 H126 0.961 . S
H124 C123 0.959 . S
H125 C123 0.960 . S
H126 C123 0.961 . S
O127 Co102 1.967 1_565 S
O127 C135 1.258 . S
O128 Co103 1.941 . S
O128 C135 1.266 . S
H129 C131 0.959 . S
H130 C131 0.961 . S
C131 C121 1.510 . S
C131 H129 0.959 . S
C131 H130 0.961 . S
C131 H132 0.960 . S
H132 C131 0.960 . S
H133 N113 0.862 1_556 S
O134 Co102 1.920 . S
O134 C107 1.289 . S
C135 O127 1.258 . S
C135 O128 1.266 . S
Co136 O139 1.970 . S
Co136 N153 1.989 1_655 S
Co136 O161 1.967 1_655 S
Co136 O168 1.920 . S
Co137 O140 1.966 . S
Co137 N146 2.022 . S
Co137 N154 1.993 . S
Co137 O162 1.941 . S
C138 O139 1.258 1_455 S
C138 O140 1.263 . S
O139 Co136 1.970 . S
O139 C138 1.258 1_655 S
O140 Co137 1.966 . S
O140 C138 1.263 . S
C141 O142 1.235 . S
C141 O168 1.289 . S
O142 C141 1.235 . S
C143 C145 1.400 . S
C143 N146 1.351 . S
C143 C148 1.501 . S
C144 C145 1.387 . S
C144 N147 1.341 . S
C145 C143 1.400 . S
C145 C144 1.387 . S
N146 Co137 2.022 . S
N146 C143 1.351 . S
N146 N147 1.365 . S
N147 C144 1.341 . S
N147 N146 1.365 . S
N147 H167 0.862 . S
C148 C143 1.501 . S
C148 H149 0.961 . S
C148 H150 0.961 . S
C148 H151 0.960 . S
H149 C148 0.961 . S
H150 C148 0.961 . S
H151 C148 0.960 . S
C152 N153 1.342 1_655 S
C152 C156 1.401 1_655 S
C152 C157 1.499 . S
N153 Co136 1.989 1_455 S
N153 C152 1.342 1_455 S
N153 N154 1.388 . S
N154 Co137 1.993 . S
N154 N153 1.388 . S
N154 C155 1.346 . S
C155 N154 1.346 . S
C155 C156 1.396 . S
C155 C165 1.510 . S
C156 C152 1.401 1_455 S
C156 C155 1.396 . S
C157 C152 1.499 . S
C157 H158 0.959 . S
C157 H159 0.960 . S
C157 H160 0.961 . S
H158 C157 0.959 . S
H159 C157 0.960 . S
H160 C157 0.961 . S
O161 Co136 1.967 1_455 S
O161 C169 1.258 . S
O162 Co137 1.941 . S
O162 C169 1.266 . S
H163 C165 0.959 . S
H164 C165 0.961 . S
C165 C155 1.510 . S
C165 H163 0.959 . S
C165 H164 0.961 . S
C165 H166 0.960 . S
H166 C165 0.960 . S
H167 N147 0.862 . S
O168 Co136 1.920 . S
O168 C141 1.289 . S
C169 O161 1.258 . S
C169 O162 1.266 . S
Co170 O173 1.970 . S
Co170 N187 1.989 1_565 S
Co170 O195 1.967 1_565 S
Co170 O202 1.920 . S
Co171 O174 1.966 . S
Co171 N180 2.022 . S
Co171 N188 1.993 . S
Co171 O196 1.941 . S
C172 O173 1.258 1_545 S
C172 O174 1.263 . S
O173 Co170 1.970 . S
O173 C172 1.258 1_565 S
O174 Co171 1.966 . S
O174 C172 1.263 . S
C175 O176 1.235 . S
C175 O202 1.289 . S
O176 C175 1.235 . S
C177 C179 1.400 . S
C177 N180 1.351 . S
C177 C182 1.501 . S
C178 C179 1.387 . S
C178 N181 1.341 . S
C179 C177 1.400 . S
C179 C178 1.387 . S
N180 Co171 2.022 . S
N180 C177 1.351 . S
N180 N181 1.365 . S
N181 C178 1.341 . S
N181 N180 1.365 . S
N181 H201 0.862 . S
C182 C177 1.501 . S
C182 H183 0.961 . S
C182 H184 0.961 . S
C182 H185 0.960 . S
H183 C182 0.961 . S
H184 C182 0.961 . S
H185 C182 0.960 . S
C186 N187 1.342 1_565 S
C186 C190 1.401 1_565 S
C186 C191 1.499 . S
N187 Co170 1.989 1_545 S
N187 C186 1.342 1_545 S
N187 N188 1.388 . S
N188 Co171 1.993 . S
N188 N187 1.388 . S
N188 C189 1.346 . S
C189 N188 1.346 . S
C189 C190 1.396 . S
C189 C199 1.510 . S
C190 C186 1.401 1_545 S
C190 C189 1.396 . S
C191 C186 1.499 . S
C191 H192 0.959 . S
C191 H193 0.960 . S
C191 H194 0.961 . S
H192 C191 0.959 . S
H193 C191 0.960 . S
H194 C191 0.961 . S
O195 Co170 1.967 1_545 S
O195 C203 1.258 . S
O196 Co171 1.941 . S
O196 C203 1.266 . S
H197 C199 0.959 . S
H198 C199 0.961 . S
C199 C189 1.510 . S
C199 H197 0.959 . S
C199 H198 0.961 . S
C199 H200 0.960 . S
H200 C199 0.960 . S
H201 N181 0.862 . S
O202 Co170 1.920 . S
O202 C175 1.289 . S
C203 O195 1.258 . S
C203 O196 1.266 . S
Co204 O207 1.970 . S
Co204 N221 1.989 1_455 S
Co204 O229 1.967 1_455 S
Co204 O236 1.920 . S
Co205 O208 1.966 . S
Co205 N214 2.022 . S
Co205 N222 1.993 . S
Co205 O230 1.941 . S
C206 O207 1.258 1_655 S
C206 O208 1.263 . S
O207 Co204 1.970 . S
O207 C206 1.258 1_455 S
O208 Co205 1.966 . S
O208 C206 1.263 . S
C209 O210 1.235 . S
C209 O236 1.289 . S
O210 C209 1.235 . S
C211 C213 1.400 . S
C211 N214 1.351 . S
C211 C216 1.501 . S
C212 C213 1.387 . S
C212 N215 1.341 . S
C213 C211 1.400 . S
C213 C212 1.387 . S
N214 Co205 2.022 . S
N214 C211 1.351 . S
N214 N215 1.365 . S
N215 C212 1.341 . S
N215 N214 1.365 . S
N215 H235 0.862 . S
C216 C211 1.501 . S
C216 H217 0.961 . S
C216 H218 0.961 . S
C216 H219 0.960 . S
H217 C216 0.961 . S
H218 C216 0.961 . S
H219 C216 0.960 . S
C220 N221 1.342 1_455 S
C220 C224 1.401 1_455 S
C220 C225 1.499 . S
N221 Co204 1.989 1_655 S
N221 C220 1.342 1_655 S
N221 N222 1.388 . S
N222 Co205 1.993 . S
N222 N221 1.388 . S
N222 C223 1.346 . S
C223 N222 1.346 . S
C223 C224 1.396 . S
C223 C233 1.510 . S
C224 C220 1.401 1_655 S
C224 C223 1.396 . S
C225 C220 1.499 . S
C225 H226 0.959 . S
C225 H227 0.960 . S
C225 H228 0.961 . S
H226 C225 0.959 . S
H227 C225 0.960 . S
H228 C225 0.961 . S
O229 Co204 1.967 1_655 S
O229 C237 1.258 . S
O230 Co205 1.941 . S
O230 C237 1.266 . S
H231 C233 0.959 . S
H232 C233 0.961 . S
C233 C223 1.510 . S
C233 H231 0.959 . S
C233 H232 0.961 . S
C233 H234 0.960 . S
H234 C233 0.960 . S
H235 N215 0.862 . S
O236 Co204 1.920 . S
O236 C209 1.289 . S
C237 O229 1.258 . S
C237 O230 1.266 . S
Co238 O241 1.970 . S
Co238 N255 1.989 1_545 S
Co238 O263 1.967 1_545 S
Co238 O270 1.920 . S
Co239 O242 1.966 . S
Co239 N248 2.022 . S
Co239 N256 1.993 . S
Co239 O264 1.941 . S
C240 O241 1.258 1_565 S
C240 O242 1.263 . S
O241 Co238 1.970 . S
O241 C240 1.258 1_545 S
O242 Co239 1.966 . S
O242 C240 1.263 . S
C243 O244 1.235 . S
C243 O270 1.289 . S
O244 C243 1.235 . S
C245 C247 1.400 . S
C245 N248 1.351 . S
C245 C250 1.501 . S
C246 C247 1.387 . S
C246 N249 1.341 . S
C247 C245 1.400 . S
C247 C246 1.387 . S
N248 Co239 2.022 . S
N248 C245 1.351 . S
N248 N249 1.365 . S
N249 C246 1.341 . S
N249 N248 1.365 . S
N249 H269 0.862 . S
C250 C245 1.501 . S
C250 H251 0.961 . S
C250 H252 0.961 . S
C250 H253 0.960 . S
H251 C250 0.961 . S
H252 C250 0.961 . S
H253 C250 0.960 . S
C254 N255 1.342 1_545 S
C254 C258 1.401 1_545 S
C254 C259 1.499 . S
N255 Co238 1.989 1_565 S
N255 C254 1.342 1_565 S
N255 N256 1.388 . S
N256 Co239 1.993 . S
N256 N255 1.388 . S
N256 C257 1.346 . S
C257 N256 1.346 . S
C257 C258 1.396 . S
C257 C267 1.510 . S
C258 C254 1.401 1_565 S
C258 C257 1.396 . S
C259 C254 1.499 . S
C259 H260 0.959 . S
C259 H261 0.960 . S
C259 H262 0.961 . S
H260 C259 0.959 . S
H261 C259 0.960 . S
H262 C259 0.961 . S
O263 Co238 1.967 1_565 S
O263 C271 1.258 . S
O264 Co239 1.941 . S
O264 C271 1.266 . S
H265 C267 0.959 . S
H266 C267 0.961 . S
C267 C257 1.510 . S
C267 H265 0.959 . S
C267 H266 0.961 . S
C267 H268 0.960 . S
H268 C267 0.960 . S
H269 N249 0.862 . S
O270 Co238 1.920 . S
O270 C243 1.289 . S
C271 O263 1.258 . S
C271 O264 1.266 . S
Co272 O275 1.970 . S
Co272 N289 1.989 . S
Co272 O297 1.967 . S
Co272 O304 1.920 . S
Co273 O276 1.966 . S
Co273 N282 2.022 . S
Co273 N290 1.993 . S
Co273 O298 1.941 . S
C274 O275 1.258 . S
C274 O276 1.263 . S
O275 Co272 1.970 . S
O275 C274 1.258 . S
O276 Co273 1.966 . S
O276 C274 1.263 . S
C277 O278 1.235 . S
C277 O304 1.289 . S
O278 C277 1.235 . S
C279 C281 1.400 . S
C279 N282 1.351 . S
C279 C284 1.501 . S
C280 C281 1.387 . S
C280 N283 1.341 . S
C281 C279 1.400 . S
C281 C280 1.387 . S
N282 Co273 2.022 . S
N282 C279 1.351 . S
N282 N283 1.365 . S
N283 C280 1.341 . S
N283 N282 1.365 . S
N283 H303 0.862 . S
C284 C279 1.501 . S
C284 H285 0.961 . S
C284 H286 0.961 . S
C284 H287 0.960 . S
H285 C284 0.961 . S
H286 C284 0.961 . S
H287 C284 0.960 . S
C288 N289 1.342 . S
C288 C292 1.401 . S
C288 C293 1.499 . S
N289 Co272 1.989 . S
N289 C288 1.342 . S
N289 N290 1.388 . S
N290 Co273 1.993 . S
N290 N289 1.388 . S
N290 C291 1.346 . S
C291 N290 1.346 . S
C291 C292 1.396 . S
C291 C301 1.510 . S
C292 C288 1.401 . S
C292 C291 1.396 . S
C293 C288 1.499 . S
C293 H294 0.959 . S
C293 H295 0.960 . S
C293 H296 0.961 . S
H294 C293 0.959 . S
H295 C293 0.960 . S
H296 C293 0.961 . S
O297 Co272 1.967 . S
O297 C305 1.258 . S
O298 Co273 1.941 . S
O298 C305 1.266 . S
H299 C301 0.959 . S
H300 C301 0.961 . S
C301 C291 1.510 . S
C301 H299 0.959 . S
C301 H300 0.961 . S
C301 H302 0.960 . S
H302 C301 0.960 . S
H303 N283 0.862 . S
O304 Co272 1.920 . S
O304 C277 1.289 . S
C305 O297 1.258 . S
C305 O298 1.266 . S
Co306 O309 1.970 . S
Co306 N323 1.989 . S
Co306 O331 1.967 . S
Co306 O338 1.920 . S
Co307 O310 1.966 . S
Co307 N316 2.022 . S
Co307 N324 1.993 . S
Co307 O332 1.941 . S
C308 O309 1.258 . S
C308 O310 1.263 . S
O309 Co306 1.970 . S
O309 C308 1.258 . S
O310 Co307 1.966 . S
O310 C308 1.263 . S
C311 O312 1.235 . S
C311 O338 1.289 . S
O312 C311 1.235 . S
C313 C315 1.400 . S
C313 N316 1.351 . S
C313 C318 1.501 . S
C314 C315 1.387 . S
C314 N317 1.341 . S
C315 C313 1.400 . S
C315 C314 1.387 . S
N316 Co307 2.022 . S
N316 C313 1.351 . S
N316 N317 1.365 . S
N317 C314 1.341 . S
N317 N316 1.365 . S
N317 H337 0.862 . S
C318 C313 1.501 . S
C318 H319 0.961 . S
C318 H320 0.961 . S
C318 H321 0.960 . S
H319 C318 0.961 . S
H320 C318 0.961 . S
H321 C318 0.960 . S
C322 N323 1.342 . S
C322 C326 1.401 . S
C322 C327 1.499 . S
N323 Co306 1.989 . S
N323 C322 1.342 . S
N323 N324 1.388 . S
N324 Co307 1.993 . S
N324 N323 1.388 . S
N324 C325 1.346 . S
C325 N324 1.346 . S
C325 C326 1.396 . S
C325 C335 1.510 . S
C326 C322 1.401 . S
C326 C325 1.396 . S
C327 C322 1.499 . S
C327 H328 0.959 . S
C327 H329 0.960 . S
C327 H330 0.961 . S
H328 C327 0.959 . S
H329 C327 0.960 . S
H330 C327 0.961 . S
O331 Co306 1.967 . S
O331 C339 1.258 . S
O332 Co307 1.941 . S
O332 C339 1.266 . S
H333 C335 0.959 . S
H334 C335 0.961 . S
C335 C325 1.510 . S
C335 H333 0.959 . S
C335 H334 0.961 . S
C335 H336 0.960 . S
H336 C335 0.960 . S
H337 N317 0.862 . S
O338 Co306 1.920 . S
O338 C311 1.289 . S
C339 O331 1.258 . S
C339 O332 1.266 . S
Co340 O343 1.970 . S
Co340 N357 1.989 . S
Co340 O365 1.967 . S
Co340 O372 1.920 . S
Co341 O344 1.966 . S
Co341 N350 2.022 . S
Co341 N358 1.993 . S
Co341 O366 1.941 . S
C342 O343 1.258 . S
C342 O344 1.263 . S
O343 Co340 1.970 . S
O343 C342 1.258 . S
O344 Co341 1.966 . S
O344 C342 1.263 . S
C345 O346 1.235 . S
C345 O372 1.289 . S
O346 C345 1.235 . S
C347 C349 1.400 . S
C347 N350 1.351 . S
C347 C352 1.501 . S
C348 C349 1.387 . S
C348 N351 1.341 . S
C349 C347 1.400 . S
C349 C348 1.387 . S
N350 Co341 2.022 . S
N350 C347 1.351 . S
N350 N351 1.365 . S
N351 C348 1.341 . S
N351 N350 1.365 . S
N351 H371 0.862 . S
C352 C347 1.501 . S
C352 H353 0.961 . S
C352 H354 0.961 . S
C352 H355 0.960 . S
H353 C352 0.961 . S
H354 C352 0.961 . S
H355 C352 0.960 . S
C356 N357 1.342 . S
C356 C360 1.401 . S
C356 C361 1.499 . S
N357 Co340 1.989 . S
N357 C356 1.342 . S
N357 N358 1.388 . S
N358 Co341 1.993 . S
N358 N357 1.388 . S
N358 C359 1.346 . S
C359 N358 1.346 . S
C359 C360 1.396 . S
C359 C369 1.510 . S
C360 C356 1.401 . S
C360 C359 1.396 . S
C361 C356 1.499 . S
C361 H362 0.959 . S
C361 H363 0.960 . S
C361 H364 0.961 . S
H362 C361 0.959 . S
H363 C361 0.960 . S
H364 C361 0.961 . S
O365 Co340 1.967 . S
O365 C373 1.258 . S
O366 Co341 1.941 . S
O366 C373 1.266 . S
H367 C369 0.959 . S
H368 C369 0.961 . S
C369 C359 1.510 . S
C369 H367 0.959 . S
C369 H368 0.961 . S
C369 H370 0.960 . S
H370 C369 0.960 . S
H371 N351 0.862 . S
O372 Co340 1.920 . S
O372 C345 1.289 . S
C373 O365 1.258 . S
C373 O366 1.266 . S
Co374 O377 1.970 . S
Co374 N391 1.989 . S
Co374 O399 1.967 . S
Co374 O406 1.920 . S
Co375 O378 1.966 . S
Co375 N384 2.022 . S
Co375 N392 1.993 . S
Co375 O400 1.941 . S
C376 O377 1.258 . S
C376 O378 1.263 . S
O377 Co374 1.970 . S
O377 C376 1.258 . S
O378 Co375 1.966 . S
O378 C376 1.263 . S
C379 O380 1.235 . S
C379 O406 1.289 . S
O380 C379 1.235 . S
C381 C383 1.400 . S
C381 N384 1.351 . S
C381 C386 1.501 . S
C382 C383 1.387 . S
C382 N385 1.341 . S
C383 C381 1.400 . S
C383 C382 1.387 . S
N384 Co375 2.022 . S
N384 C381 1.351 . S
N384 N385 1.365 . S
N385 C382 1.341 . S
N385 N384 1.365 . S
N385 H405 0.862 . S
C386 C381 1.501 . S
C386 H387 0.961 . S
C386 H388 0.961 . S
C386 H389 0.960 . S
H387 C386 0.961 . S
H388 C386 0.961 . S
H389 C386 0.960 . S
C390 N391 1.342 . S
C390 C394 1.401 . S
C390 C395 1.499 . S
N391 Co374 1.989 . S
N391 C390 1.342 . S
N391 N392 1.388 . S
N392 Co375 1.993 . S
N392 N391 1.388 . S
N392 C393 1.346 . S
C393 N392 1.346 . S
C393 C394 1.396 . S
C393 C403 1.510 . S
C394 C390 1.401 . S
C394 C393 1.396 . S
C395 C390 1.499 . S
C395 H396 0.959 . S
C395 H397 0.960 . S
C395 H398 0.961 . S
H396 C395 0.959 . S
H397 C395 0.960 . S
H398 C395 0.961 . S
O399 Co374 1.967 . S
O399 C407 1.258 . S
O400 Co375 1.941 . S
O400 C407 1.266 . S
H401 C403 0.959 . S
H402 C403 0.961 . S
C403 C393 1.510 . S
C403 H401 0.959 . S
C403 H402 0.961 . S
C403 H404 0.960 . S
H404 C403 0.960 . S
H405 N385 0.862 . S
O406 Co374 1.920 . S
O406 C379 1.289 . S
C407 O399 1.258 . S
C407 O400 1.266 . S
Co408 O411 1.970 1_554 S
Co408 N425 1.989 . S
Co408 O433 1.967 1_554 S
Co408 O440 1.920 . S
Co409 O412 1.966 1_554 S
Co409 N418 2.022 . S
Co409 N426 1.993 . S
Co409 O434 1.941 . S
C410 O411 1.258 . S
C410 O412 1.263 . S
O411 Co408 1.970 1_556 S
O411 C410 1.258 . S
O412 Co409 1.966 1_556 S
O412 C410 1.263 . S
C413 O414 1.235 . S
C413 O440 1.289 . S
O414 C413 1.235 . S
C415 C417 1.400 1_556 S
C415 N418 1.351 1_556 S
C415 C420 1.501 . S
C416 C417 1.387 . S
C416 N419 1.341 . S
C417 C415 1.400 1_554 S
C417 C416 1.387 . S
N418 Co409 2.022 . S
N418 C415 1.351 1_554 S
N418 N419 1.365 . S
N419 C416 1.341 . S
N419 N418 1.365 . S
N419 H439 0.862 . S
C420 C415 1.501 . S
C420 H421 0.961 . S
C420 H422 0.961 . S
C420 H423 0.960 . S
H421 C420 0.961 . S
H422 C420 0.961 . S
H423 C420 0.960 . S
C424 N425 1.342 . S
C424 C428 1.401 . S
C424 C429 1.499 . S
N425 Co408 1.989 . S
N425 C424 1.342 . S
N425 N426 1.388 . S
N426 Co409 1.993 . S
N426 N425 1.388 . S
N426 C427 1.346 . S
C427 N426 1.346 . S
C427 C428 1.396 . S
C427 C437 1.510 . S
C428 C424 1.401 . S
C428 C427 1.396 . S
C429 C424 1.499 . S
C429 H430 0.959 . S
C429 H431 0.960 . S
C429 H432 0.961 . S
H430 C429 0.959 . S
H431 C429 0.960 . S
H432 C429 0.961 . S
O433 Co408 1.967 1_556 S
O433 C441 1.258 . S
O434 Co409 1.941 . S
O434 C441 1.266 1_554 S
H435 C437 0.959 . S
H436 C437 0.961 . S
C437 C427 1.510 . S
C437 H435 0.959 . S
C437 H436 0.961 . S
C437 H438 0.960 . S
H438 C437 0.960 . S
H439 N419 0.862 . S
O440 Co408 1.920 . S
O440 C413 1.289 . S
C441 O433 1.258 . S
C441 O434 1.266 1_556 S
Co442 O445 1.970 1_554 S
Co442 N459 1.989 . S
Co442 O467 1.967 1_554 S
Co442 O474 1.920 . S
Co443 O446 1.966 1_554 S
Co443 N452 2.022 . S
Co443 N460 1.993 . S
Co443 O468 1.941 . S
C444 O445 1.258 . S
C444 O446 1.263 . S
O445 Co442 1.970 1_556 S
O445 C444 1.258 . S
O446 Co443 1.966 1_556 S
O446 C444 1.263 . S
C447 O448 1.235 . S
C447 O474 1.289 . S
O448 C447 1.235 . S
C449 C451 1.400 1_556 S
C449 N452 1.351 1_556 S
C449 C454 1.501 . S
C450 C451 1.387 . S
C450 N453 1.341 . S
C451 C449 1.400 1_554 S
C451 C450 1.387 . S
N452 Co443 2.022 . S
N452 C449 1.351 1_554 S
N452 N453 1.365 . S
N453 C450 1.341 . S
N453 N452 1.365 . S
N453 H473 0.862 . S
C454 C449 1.501 . S
C454 H455 0.961 . S
C454 H456 0.961 . S
C454 H457 0.960 . S
H455 C454 0.961 . S
H456 C454 0.961 . S
H457 C454 0.960 . S
C458 N459 1.342 . S
C458 C462 1.401 . S
C458 C463 1.499 . S
N459 Co442 1.989 . S
N459 C458 1.342 . S
N459 N460 1.388 . S
N460 Co443 1.993 . S
N460 N459 1.388 . S
N460 C461 1.346 . S
C461 N460 1.346 . S
C461 C462 1.396 . S
C461 C471 1.510 . S
C462 C458 1.401 . S
C462 C461 1.396 . S
C463 C458 1.499 . S
C463 H464 0.959 . S
C463 H465 0.960 . S
C463 H466 0.961 . S
H464 C463 0.959 . S
H465 C463 0.960 . S
H466 C463 0.961 . S
O467 Co442 1.967 1_556 S
O467 C475 1.258 . S
O468 Co443 1.941 . S
O468 C475 1.266 1_554 S
H469 C471 0.959 . S
H470 C471 0.961 . S
C471 C461 1.510 . S
C471 H469 0.959 . S
C471 H470 0.961 . S
C471 H472 0.960 . S
H472 C471 0.960 . S
H473 N453 0.862 . S
O474 Co442 1.920 . S
O474 C447 1.289 . S
C475 O467 1.258 . S
C475 O468 1.266 1_556 S
Co476 O479 1.970 1_554 S
Co476 N493 1.989 . S
Co476 O501 1.967 1_554 S
Co476 O508 1.920 . S
Co477 O480 1.966 1_554 S
Co477 N486 2.022 . S
Co477 N494 1.993 . S
Co477 O502 1.941 . S
C478 O479 1.258 . S
C478 O480 1.263 . S
O479 Co476 1.970 1_556 S
O479 C478 1.258 . S
O480 Co477 1.966 1_556 S
O480 C478 1.263 . S
C481 O482 1.235 . S
C481 O508 1.289 . S
O482 C481 1.235 . S
C483 C485 1.400 1_556 S
C483 N486 1.351 1_556 S
C483 C488 1.501 . S
C484 C485 1.387 . S
C484 N487 1.341 . S
C485 C483 1.400 1_554 S
C485 C484 1.387 . S
N486 Co477 2.022 . S
N486 C483 1.351 1_554 S
N486 N487 1.365 . S
N487 C484 1.341 . S
N487 N486 1.365 . S
N487 H507 0.862 . S
C488 C483 1.501 . S
C488 H489 0.961 . S
C488 H490 0.961 . S
C488 H491 0.960 . S
H489 C488 0.961 . S
H490 C488 0.961 . S
H491 C488 0.960 . S
C492 N493 1.342 . S
C492 C496 1.401 . S
C492 C497 1.499 . S
N493 Co476 1.989 . S
N493 C492 1.342 . S
N493 N494 1.388 . S
N494 Co477 1.993 . S
N494 N493 1.388 . S
N494 C495 1.346 . S
C495 N494 1.346 . S
C495 C496 1.396 . S
C495 C505 1.510 . S
C496 C492 1.401 . S
C496 C495 1.396 . S
C497 C492 1.499 . S
C497 H498 0.959 . S
C497 H499 0.960 . S
C497 H500 0.961 . S
H498 C497 0.959 . S
H499 C497 0.960 . S
H500 C497 0.961 . S
O501 Co476 1.967 1_556 S
O501 C509 1.258 . S
O502 Co477 1.941 . S
O502 C509 1.266 1_554 S
H503 C505 0.959 . S
H504 C505 0.961 . S
C505 C495 1.510 . S
C505 H503 0.959 . S
C505 H504 0.961 . S
C505 H506 0.960 . S
H506 C505 0.960 . S
H507 N487 0.862 . S
O508 Co476 1.920 . S
O508 C481 1.289 . S
C509 O501 1.258 . S
C509 O502 1.266 1_556 S
Co510 O513 1.970 1_554 S
Co510 N527 1.989 . S
Co510 O535 1.967 1_554 S
Co510 O542 1.920 . S
Co511 O514 1.966 1_554 S
Co511 N520 2.022 . S
Co511 N528 1.993 . S
Co511 O536 1.941 . S
C512 O513 1.258 . S
C512 O514 1.263 . S
O513 Co510 1.970 1_556 S
O513 C512 1.258 . S
O514 Co511 1.966 1_556 S
O514 C512 1.263 . S
C515 O516 1.235 . S
C515 O542 1.289 . S
O516 C515 1.235 . S
C517 C519 1.400 1_556 S
C517 N520 1.351 1_556 S
C517 C522 1.501 . S
C518 C519 1.387 . S
C518 N521 1.341 . S
C519 C517 1.400 1_554 S
C519 C518 1.387 . S
N520 Co511 2.022 . S
N520 C517 1.351 1_554 S
N520 N521 1.365 . S
N521 C518 1.341 . S
N521 N520 1.365 . S
N521 H541 0.862 . S
C522 C517 1.501 . S
C522 H523 0.961 . S
C522 H524 0.961 . S
C522 H525 0.960 . S
H523 C522 0.961 . S
H524 C522 0.961 . S
H525 C522 0.960 . S
C526 N527 1.342 . S
C526 C530 1.401 . S
C526 C531 1.499 . S
N527 Co510 1.989 . S
N527 C526 1.342 . S
N527 N528 1.388 . S
N528 Co511 1.993 . S
N528 N527 1.388 . S
N528 C529 1.346 . S
C529 N528 1.346 . S
C529 C530 1.396 . S
C529 C539 1.510 . S
C530 C526 1.401 . S
C530 C529 1.396 . S
C531 C526 1.499 . S
C531 H532 0.959 . S
C531 H533 0.960 . S
C531 H534 0.961 . S
H532 C531 0.959 . S
H533 C531 0.960 . S
H534 C531 0.961 . S
O535 Co510 1.967 1_556 S
O535 C543 1.258 . S
O536 Co511 1.941 . S
O536 C543 1.266 1_554 S
H537 C539 0.959 . S
H538 C539 0.961 . S
C539 C529 1.510 . S
C539 H537 0.959 . S
C539 H538 0.961 . S
C539 H540 0.960 . S
H540 C539 0.960 . S
H541 N521 0.862 . S
O542 Co510 1.920 . S
O542 C515 1.289 . S
C543 O535 1.258 . S
C543 O536 1.266 1_556 S
C544 C545 1.387 . S
C544 H548 0.950 . S
C544 C553 1.390 . S
C545 C544 1.387 . S
C545 C547 1.387 1_554 S
H546 C553 0.950 . S
C547 C545 1.387 1_556 S
C547 C549 1.390 . S
C547 H551 0.950 . S
H548 C544 0.950 . S
C549 C547 1.390 . S
C549 C550 1.387 1_556 S
C549 H552 0.950 . S
C550 C549 1.387 1_554 S
C550 C553 1.387 . S
H551 C547 0.950 . S
H552 C549 0.950 . S
C553 C544 1.390 . S
C553 H546 0.950 . S
C553 C550 1.387 . S
C554 C555 1.387 . S
C554 H558 0.950 . S
C554 C563 1.390 . S
C555 C554 1.387 . S
C555 C557 1.387 1_554 S
H556 C563 0.950 . S
C557 C555 1.387 1_556 S
C557 C559 1.390 . S
C557 H561 0.950 . S
H558 C554 0.950 . S
C559 C557 1.390 . S
C559 C560 1.387 1_556 S
C559 H562 0.950 . S
C560 C559 1.387 1_554 S
C560 C563 1.387 . S
H561 C557 0.950 . S
H562 C559 0.950 . S
C563 C554 1.390 . S
C563 H556 0.950 . S
C563 C560 1.387 . S
C564 C565 1.387 . S
C564 H568 0.950 1_554 S
C564 C573 1.390 . S
C565 C564 1.387 . S
C565 C567 1.387 . S
H566 C573 0.950 1_556 S
C567 C565 1.387 . S
C567 C569 1.390 . S
C567 H571 0.950 . S
H568 C564 0.950 1_556 S
C569 C567 1.390 . S
C569 C570 1.387 . S
C569 H572 0.950 . S
C570 C569 1.387 . S
C570 C573 1.387 . S
H571 C567 0.950 . S
H572 C569 0.950 . S
C573 C564 1.390 . S
C573 H566 0.950 1_554 S
C573 C570 1.387 . S
C574 C575 1.387 1_556 S
C574 H578 0.950 . S
C574 C583 1.390 . S
C575 C574 1.387 1_554 S
C575 C577 1.387 . S
H576 C583 0.950 . S
C577 C575 1.387 . S
C577 C579 1.390 . S
C577 H581 0.950 . S
H578 C574 0.950 . S
C579 C577 1.390 . S
C579 C580 1.387 . S
C579 H582 0.950 . S
C580 C579 1.387 . S
C580 C583 1.387 1_554 S
H581 C577 0.950 . S
H582 C579 0.950 . S
C583 C574 1.390 . S
C583 H576 0.950 . S
C583 C580 1.387 1_556 S
C584 C585 1.387 . S
C584 H588 0.950 . S
C584 C593 1.390 . S
C585 C584 1.387 . S
C585 C587 1.387 . S
H586 C593 0.950 . S
C587 C585 1.387 . S
C587 C589 1.390 . S
C587 H591 0.950 . S
H588 C584 0.950 . S
C589 C587 1.390 . S
C589 C590 1.387 . S
C589 H592 0.950 . S
C590 C589 1.387 . S
C590 C593 1.387 . S
H591 C587 0.950 . S
H592 C589 0.950 . S
C593 C584 1.390 . S
C593 H586 0.950 . S
C593 C590 1.387 . S
C594 C595 1.387 . S
C594 H598 0.950 . S
C594 C603 1.390 . S
C595 C594 1.387 . S
C595 C597 1.387 . S
H596 C603 0.950 . S
C597 C595 1.387 . S
C597 C599 1.390 . S
C597 H601 0.950 . S
H598 C594 0.950 . S
C599 C597 1.390 . S
C599 C600 1.387 . S
C599 H602 0.950 . S
C600 C599 1.387 . S
C600 C603 1.387 . S
H601 C597 0.950 . S
H602 C599 0.950 . S
C603 C594 1.390 . S
C603 H596 0.950 . S
C603 C600 1.387 . S
C604 C605 1.387 . S
C604 H608 0.950 . S
C604 C613 1.390 . S
C605 C604 1.387 . S
C605 C607 1.387 . S
H606 C613 0.950 . S
C607 C605 1.387 . S
C607 C609 1.390 . S
C607 H611 0.950 . S
H608 C604 0.950 . S
C609 C607 1.390 . S
C609 C610 1.387 . S
C609 H612 0.950 . S
C610 C609 1.387 . S
C610 C613 1.387 . S
H611 C607 0.950 . S
H612 C609 0.950 . S
C613 C604 1.390 . S
C613 H606 0.950 . S
C613 C610 1.387 . S
C614 C615 1.387 . S
C614 H618 0.950 . S
C614 C623 1.390 . S
C615 C614 1.387 . S
C615 C617 1.387 . S
H616 C623 0.950 . S
C617 C615 1.387 . S
C617 C619 1.390 . S
C617 H621 0.950 . S
H618 C614 0.950 . S
C619 C617 1.390 . S
C619 C620 1.387 . S
C619 H622 0.950 . S
C620 C619 1.387 . S
C620 C623 1.387 . S
H621 C617 0.950 . S
H622 C619 0.950 . S
C623 C614 1.390 . S
C623 H616 0.950 . S
C623 C620 1.387 . S
C624 C625 1.387 . S
C624 H628 0.950 . S
C624 C633 1.390 . S
C625 C624 1.387 . S
C625 C627 1.387 . S
H626 C633 0.950 . S
C627 C625 1.387 . S
C627 C629 1.390 . S
C627 H631 0.950 1_554 S
H628 C624 0.950 . S
C629 C627 1.390 . S
C629 C630 1.387 . S
C629 H632 0.950 1_554 S
C630 C629 1.387 . S
C630 C633 1.387 . S
H631 C627 0.950 1_556 S
H632 C629 0.950 1_556 S
C633 C624 1.390 . S
C633 H626 0.950 . S
C633 C630 1.387 . S
C634 C635 1.387 . S
C634 H638 0.950 . S
C634 C643 1.390 . S
C635 C634 1.387 . S
C635 C637 1.387 . S
H636 C643 0.950 . S
C637 C635 1.387 . S
C637 C639 1.390 . S
C637 H641 0.950 1_554 S
H638 C634 0.950 . S
C639 C637 1.390 . S
C639 C640 1.387 . S
C639 H642 0.950 . S
C640 C639 1.387 . S
C640 C643 1.387 . S
H641 C637 0.950 1_556 S
H642 C639 0.950 . S
C643 C634 1.390 . S
C643 H636 0.950 . S
C643 C640 1.387 . S
C644 C645 1.387 . S
C644 H648 0.950 . S
C644 C653 1.390 . S
C645 C644 1.387 . S
C645 C647 1.387 . S
H646 C653 0.950 . S
C647 C645 1.387 . S
C647 C649 1.390 . S
C647 H651 0.946 1_554 S
H648 C644 0.950 . S
C649 C647 1.390 . S
C649 C650 1.387 . S
C649 H652 0.950 1_554 S
C650 C649 1.387 . S
C650 C653 1.387 . S
H651 C647 0.946 1_556 S
H652 C649 0.950 1_556 S
C653 C644 1.390 . S
C653 H646 0.950 . S
C653 C650 1.387 . S
C654 C655 1.387 . S
C654 H658 0.950 . S
C654 C663 1.390 . S
C655 C654 1.387 . S
C655 C657 1.387 . S
H656 C663 0.950 . S
C657 C655 1.387 . S
C657 C659 1.390 . S
C657 H661 0.950 1_554 S
H658 C654 0.950 . S
C659 C657 1.390 . S
C659 C660 1.387 . S
C659 H662 0.950 1_554 S
C660 C659 1.387 . S
C660 C663 1.387 . S
H661 C657 0.950 1_556 S
H662 C659 0.950 1_556 S
C663 C654 1.390 . S
C663 H656 0.950 . S
C663 C660 1.387 . S
C664 C665 1.387 . S
C664 H668 0.950 . S
C664 C673 1.390 . S
C665 C664 1.387 . S
C665 C667 1.387 . S
H666 C673 0.950 . S
C667 C665 1.387 . S
C667 C669 1.390 . S
C667 H671 0.950 . S
H668 C664 0.950 . S
C669 C667 1.390 . S
C669 C670 1.387 . S
C669 H672 0.950 . S
C670 C669 1.387 . S
C670 C673 1.387 . S
H671 C667 0.950 . S
H672 C669 0.950 . S
C673 C664 1.390 . S
C673 H666 0.950 . S
C673 C670 1.387 . S
C674 C675 1.387 . S
C674 H678 0.950 . S
C674 C683 1.390 . S
C675 C674 1.387 . S
C675 C677 1.387 . S
H676 C683 0.950 . S
C677 C675 1.387 . S
C677 C679 1.390 . S
C677 H681 0.950 . S
H678 C674 0.950 . S
C679 C677 1.390 . S
C679 C680 1.387 . S
C679 H682 0.950 . S
C680 C679 1.387 . S
C680 C683 1.387 . S
H681 C677 0.950 . S
H682 C679 0.950 . S
C683 C674 1.390 . S
C683 H676 0.950 . S
C683 C680 1.387 . S
C684 C685 1.387 . S
C684 H688 0.950 . S
C684 C693 1.390 . S
C685 C684 1.387 . S
C685 C687 1.387 . S
H686 C693 0.950 . S
C687 C685 1.387 . S
C687 C689 1.390 . S
C687 H691 0.950 . S
H688 C684 0.950 . S
C689 C687 1.390 . S
C689 C690 1.387 . S
C689 H692 0.950 . S
C690 C689 1.387 . S
C690 C693 1.387 . S
H691 C687 0.950 . S
H692 C689 0.950 . S
C693 C684 1.390 . S
C693 H686 0.950 . S
C693 C690 1.387 . S
C694 C695 1.387 . S
C694 H698 0.950 . S
C694 C703 1.390 . S
C695 C694 1.387 . S
C695 C697 1.387 . S
H696 C703 0.950 . S
C697 C695 1.387 . S
C697 C699 1.390 . S
C697 H701 0.950 . S
H698 C694 0.950 . S
C699 C697 1.390 . S
C699 C700 1.387 . S
C699 H702 0.950 . S
C700 C699 1.387 . S
C700 C703 1.387 . S
H701 C697 0.950 . S
H702 C699 0.950 . S
C703 C694 1.390 . S
C703 H696 0.950 . S
C703 C700 1.387 . S
C704 C705 1.387 . S
C704 H708 0.950 . S
C704 C713 1.390 . S
C705 C704 1.387 . S
C705 C707 1.387 . S
H706 C713 0.950 . S
C707 C705 1.387 . S
C707 C709 1.390 . S
C707 H711 0.950 . S
H708 C704 0.950 . S
C709 C707 1.390 . S
C709 C710 1.387 . S
C709 H712 0.950 . S
C710 C709 1.387 . S
C710 C713 1.387 . S
H711 C707 0.950 . S
H712 C709 0.950 . S
C713 C704 1.390 . S
C713 H706 0.950 . S
C713 C710 1.387 . S
C714 C715 1.387 . S
C714 H718 0.950 . S
C714 C723 1.390 . S
C715 C714 1.387 . S
C715 C717 1.387 . S
H716 C723 0.950 . S
C717 C715 1.387 . S
C717 C719 1.390 . S
C717 H721 0.950 . S
H718 C714 0.950 . S
C719 C717 1.390 . S
C719 C720 1.387 . S
C719 H722 0.950 . S
C720 C719 1.387 . S
C720 C723 1.387 . S
H721 C717 0.950 . S
H722 C719 0.950 . S
C723 C714 1.390 . S
C723 H716 0.950 . S
C723 C720 1.387 . S
C724 C725 1.387 . S
C724 H728 0.950 . S
C724 C733 1.390 . S
C725 C724 1.387 . S
C725 C727 1.387 . S
H726 C733 0.950 . S
C727 C725 1.387 . S
C727 C729 1.390 . S
C727 H731 0.950 . S
H728 C724 0.950 . S
C729 C727 1.390 . S
C729 C730 1.387 . S
C729 H732 0.950 . S
C730 C729 1.387 . S
C730 C733 1.387 . S
H731 C727 0.950 . S
H732 C729 0.950 . S
C733 C724 1.390 . S
C733 H726 0.950 . S
C733 C730 1.387 . S
C734 C735 1.387 . S
C734 H738 0.950 . S
C734 C743 1.390 . S
C735 C734 1.387 . S
C735 C737 1.387 . S
H736 C743 0.950 . S
C737 C735 1.387 . S
C737 C739 1.390 . S
C737 H741 0.950 . S
H738 C734 0.950 . S
C739 C737 1.390 . S
C739 C740 1.387 . S
C739 H742 0.950 . S
C740 C739 1.387 . S
C740 C743 1.387 . S
H741 C737 0.950 . S
H742 C739 0.950 . S
C743 C734 1.390 . S
C743 H736 0.950 . S
C743 C740 1.387 . S
C744 C745 1.387 . S
C744 H748 0.950 . S
C744 C753 1.390 . S
C745 C744 1.387 . S
C745 C747 1.387 1_554 S
H746 C753 0.950 . S
C747 C745 1.387 1_556 S
C747 C749 1.390 . S
C747 H751 0.950 . S
H748 C744 0.950 . S
C749 C747 1.390 . S
C749 C750 1.387 . S
C749 H752 0.950 . S
C750 C749 1.387 . S
C750 C753 1.387 1_556 S
H751 C747 0.950 . S
H752 C749 0.950 . S
C753 C744 1.390 . S
C753 H746 0.950 . S
C753 C750 1.387 1_554 S
C754 C755 1.387 . S
C754 H758 0.950 . S
C754 C763 1.390 . S
C755 C754 1.387 . S
C755 C757 1.387 1_554 S
H756 C763 0.950 . S
C757 C755 1.387 1_556 S
C757 C759 1.390 . S
C757 H761 0.950 . S
H758 C754 0.950 . S
C759 C757 1.390 . S
C759 C760 1.387 . S
C759 H762 0.950 . S
C760 C759 1.387 . S
C760 C763 1.387 1_556 S
H761 C757 0.950 . S
H762 C759 0.950 . S
C763 C754 1.390 . S
C763 H756 0.950 . S
C763 C760 1.387 1_554 S
C764 C765 1.387 . S
C764 H768 0.950 . S
C764 C773 1.390 . S
C765 C764 1.387 . S
C765 C767 1.387 1_554 S
H766 C773 0.950 . S
C767 C765 1.387 1_556 S
C767 C769 1.390 . S
C767 H771 0.950 . S
H768 C764 0.950 . S
C769 C767 1.390 . S
C769 C770 1.387 . S
C769 H772 0.950 . S
C770 C769 1.387 . S
C770 C773 1.387 1_556 S
H771 C767 0.950 . S
H772 C769 0.950 . S
C773 C764 1.390 . S
C773 H766 0.950 . S
C773 C770 1.387 1_554 S
C774 C775 1.387 . S
C774 H778 0.950 . S
C774 C783 1.390 . S
C775 C774 1.387 . S
C775 C777 1.387 1_554 S
H776 C783 0.950 . S
C777 C775 1.387 1_556 S
C777 C779 1.390 . S
C777 H781 0.950 . S
H778 C774 0.950 . S
C779 C777 1.390 . S
C779 C780 1.387 . S
C779 H782 0.950 . S
C780 C779 1.387 . S
C780 C783 1.387 1_556 S
H781 C777 0.950 . S
H782 C779 0.950 . S
C783 C774 1.390 . S
C783 H776 0.950 . S
C783 C780 1.387 1_554 S
C784 C785 1.387 . S
C784 H788 0.950 . S
C784 C793 1.390 1_655 S
C785 C784 1.387 . S
C785 C787 1.387 . S
H786 C793 0.950 . S
C787 C785 1.387 . S
C787 C789 1.390 1_655 S
C787 H791 0.950 . S
H788 C784 0.950 . S
C789 C787 1.390 1_455 S
C789 C790 1.387 . S
C789 H792 0.950 . S
C790 C789 1.387 . S
C790 C793 1.387 . S
H791 C787 0.950 . S
H792 C789 0.950 . S
C793 C784 1.390 1_455 S
C793 H786 0.950 . S
C793 C790 1.387 . S
C794 C795 1.387 . S
C794 H798 0.950 . S
C794 C803 1.390 1_565 S
C795 C794 1.387 . S
C795 C797 1.387 . S
H796 C803 0.950 . S
C797 C795 1.387 . S
C797 C799 1.390 1_565 S
C797 H801 0.950 . S
H798 C794 0.950 . S
C799 C797 1.390 1_545 S
C799 C800 1.387 . S
C799 H802 0.950 . S
C800 C799 1.387 . S
C800 C803 1.387 . S
H801 C797 0.950 . S
H802 C799 0.950 . S
C803 C794 1.390 1_545 S
C803 H796 0.950 . S
C803 C800 1.387 . S
C804 C805 1.387 . S
C804 H808 0.950 . S
C804 C813 1.390 1_655 S
C805 C804 1.387 . S
C805 C807 1.387 . S
H806 C813 0.950 . S
C807 C805 1.387 . S
C807 C809 1.390 1_655 S
C807 H811 0.950 . S
H808 C804 0.950 . S
C809 C807 1.390 1_455 S
C809 C810 1.387 . S
C809 H812 0.950 . S
C810 C809 1.387 . S
C810 C813 1.387 . S
H811 C807 0.950 . S
H812 C809 0.950 . S
C813 C804 1.390 1_455 S
C813 H806 0.950 . S
C813 C810 1.387 . S
C814 C815 1.387 . S
C814 H818 0.950 . S
C814 C823 1.390 1_545 S
C815 C814 1.387 . S
C815 C817 1.387 . S
H816 C823 0.950 . S
C817 C815 1.387 . S
C817 C819 1.390 1_545 S
C817 H821 0.950 . S
H818 C814 0.950 . S
C819 C817 1.390 1_565 S
C819 C820 1.387 . S
C819 H822 0.950 . S
C820 C819 1.387 . S
C820 C823 1.387 . S
H821 C817 0.950 . S
H822 C819 0.950 . S
C823 C814 1.390 1_565 S
C823 H816 0.950 . S
C823 C820 1.387 . S
C824 C825 1.387 . S
C824 H828 0.950 . S
C824 C833 1.390 1_655 S
C825 C824 1.387 . S
C825 C827 1.387 . S
H826 C833 0.950 . S
C827 C825 1.387 . S
C827 C829 1.390 1_655 S
C827 H831 0.950 . S
H828 C824 0.950 . S
C829 C827 1.390 1_455 S
C829 C830 1.387 . S
C829 H832 0.950 . S
C830 C829 1.387 . S
C830 C833 1.387 . S
H831 C827 0.950 . S
H832 C829 0.950 . S
C833 C824 1.390 1_455 S
C833 H826 0.950 . S
C833 C830 1.387 . S
C834 C835 1.387 . S
C834 H838 0.950 . S
C834 C843 1.390 1_545 S
C835 C834 1.387 . S
C835 C837 1.387 . S
H836 C843 0.950 . S
C837 C835 1.387 . S
C837 C839 1.390 1_545 S
C837 H841 0.950 . S
H838 C834 0.950 . S
C839 C837 1.390 1_565 S
C839 C840 1.387 . S
C839 H842 0.950 . S
C840 C839 1.387 . S
C840 C843 1.387 . S
H841 C837 0.950 . S
H842 C839 0.950 . S
C843 C834 1.390 1_565 S
C843 H836 0.950 . S
C843 C840 1.387 . S
C844 C845 1.387 . S
C844 H848 0.950 . S
C844 C853 1.390 1_455 S
C845 C844 1.387 . S
C845 C847 1.387 . S
H846 C853 0.950 . S
C847 C845 1.387 . S
C847 C849 1.390 1_455 S
C847 H851 0.950 . S
H848 C844 0.950 . S
C849 C847 1.390 1_655 S
C849 C850 1.387 . S
C849 H852 0.950 . S
C850 C849 1.387 . S
C850 C853 1.387 . S
H851 C847 0.950 . S
H852 C849 0.950 . S
C853 C844 1.390 1_655 S
C853 H846 0.950 . S
C853 C850 1.387 . S
C854 C855 1.387 1_565 S
C854 H858 0.951 . S
C854 C863 1.390 . S
C855 C854 1.387 1_545 S
C855 C857 1.387 . S
H856 C863 0.952 . S
C857 C855 1.387 . S
C857 C859 1.390 . S
C857 H861 0.952 . S
H858 C854 0.951 . S
C859 C857 1.390 . S
C859 C860 1.387 1_545 S
C859 H862 0.951 . S
C860 C859 1.387 1_565 S
C860 C863 1.387 . S
H861 C857 0.952 . S
H862 C859 0.951 . S
C863 C854 1.390 . S
C863 H856 0.952 . S
C863 C860 1.387 . S
C864 C865 1.387 . S
C864 H868 0.950 . S
C864 C873 1.390 . S
C865 C864 1.387 . S
C865 C867 1.387 . S
H866 C873 0.950 . S
C867 C865 1.387 . S
C867 C869 1.390 . S
C867 H871 0.950 . S
H868 C864 0.950 . S
C869 C867 1.390 . S
C869 C870 1.387 . S
C869 H872 0.950 . S
C870 C869 1.387 . S
C870 C873 1.387 . S
H871 C867 0.950 . S
H872 C869 0.950 . S
C873 C864 1.390 . S
C873 H866 0.950 . S
C873 C870 1.387 . S
C874 C875 1.387 . S
C874 H878 0.950 . S
C874 C883 1.390 . S
C875 C874 1.387 . S
C875 C877 1.387 . S
H876 C883 0.950 . S
C877 C875 1.387 . S
C877 C879 1.390 . S
C877 H881 0.950 . S
H878 C874 0.950 . S
C879 C877 1.390 . S
C879 C880 1.387 . S
C879 H882 0.950 . S
C880 C879 1.387 . S
C880 C883 1.387 . S
H881 C877 0.950 . S
H882 C879 0.950 . S
C883 C874 1.390 . S
C883 H876 0.950 . S
C883 C880 1.387 . S
C884 C885 1.387 . S
C884 H888 0.950 . S
C884 C893 1.390 . S
C885 C884 1.387 . S
C885 C887 1.387 . S
H886 C893 0.950 . S
C887 C885 1.387 . S
C887 C889 1.390 . S
C887 H891 0.950 . S
H888 C884 0.950 . S
C889 C887 1.390 . S
C889 C890 1.387 . S
C889 H892 0.950 . S
C890 C889 1.387 . S
C890 C893 1.387 . S
H891 C887 0.950 . S
H892 C889 0.950 . S
C893 C884 1.390 . S
C893 H886 0.950 . S
C893 C890 1.387 . S
C894 C895 1.387 . S
C894 H898 0.950 . S
C894 C903 1.390 . S
C895 C894 1.387 . S
C895 C897 1.387 . S
H896 C903 0.950 . S
C897 C895 1.387 . S
C897 C899 1.390 . S
C897 H901 0.950 . S
H898 C894 0.950 . S
C899 C897 1.390 . S
C899 C900 1.387 . S
C899 H902 0.950 . S
C900 C899 1.387 . S
C900 C903 1.387 . S
H901 C897 0.950 . S
H902 C899 0.950 . S
C903 C894 1.390 . S
C903 H896 0.950 . S
C903 C900 1.387 . S
C904 C905 1.387 . S
C904 H908 0.950 . S
C904 C913 1.390 . S
C905 C904 1.387 . S
C905 C907 1.387 . S
H906 C913 0.950 . S
C907 C905 1.387 . S
C907 C909 1.390 . S
C907 H911 0.950 . S
H908 C904 0.950 . S
C909 C907 1.390 . S
C909 C910 1.387 . S
C909 H912 0.950 . S
C910 C909 1.387 . S
C910 C913 1.387 . S
H911 C907 0.950 . S
H912 C909 0.950 . S
C913 C904 1.390 . S
C913 H906 0.950 . S
C913 C910 1.387 . S
C914 C915 1.387 . S
C914 H918 0.950 . S
C914 C923 1.390 . S
C915 C914 1.387 . S
C915 C917 1.387 . S
H916 C923 0.950 . S
C917 C915 1.387 . S
C917 C919 1.390 . S
C917 H921 0.950 . S
H918 C914 0.950 . S
C919 C917 1.390 . S
C919 C920 1.387 . S
C919 H922 0.950 . S
C920 C919 1.387 . S
C920 C923 1.387 . S
H921 C917 0.950 . S
H922 C919 0.950 . S
C923 C914 1.390 . S
C923 H916 0.950 . S
C923 C920 1.387 . S
C924 C925 1.387 . S
C924 H928 0.950 . S
C924 C933 1.390 . S
C925 C924 1.387 . S
C925 C927 1.387 . S
H926 C933 0.950 . S
C927 C925 1.387 . S
C927 C929 1.390 . S
C927 H931 0.950 . S
H928 C924 0.950 . S
C929 C927 1.390 . S
C929 C930 1.387 . S
C929 H932 0.950 . S
C930 C929 1.387 . S
C930 C933 1.387 . S
H931 C927 0.950 . S
H932 C929 0.950 . S
C933 C924 1.390 . S
C933 H926 0.950 . S
C933 C930 1.387 . S
C934 C935 1.387 . S
C934 H938 0.950 . S
C934 C943 1.390 . S
C935 C934 1.387 . S
C935 C937 1.387 . S
H936 C943 0.950 . S
C937 C935 1.387 . S
C937 C939 1.390 . S
C937 H941 0.950 . S
H938 C934 0.950 . S
C939 C937 1.390 . S
C939 C940 1.387 . S
C939 H942 0.950 . S
C940 C939 1.387 . S
C940 C943 1.387 . S
H941 C937 0.950 . S
H942 C939 0.950 . S
C943 C934 1.390 . S
C943 H936 0.950 . S
C943 C940 1.387 . S
C545 C9 1.424 . S
C550 C519 1.420 . S
C555 C43 1.424 . S
C560 C417 1.420 . S
C565 C451 1.424 . S
C570 C77 1.422 . S
C575 C111 1.420 . S
C580 C485 1.424 . S
C585 C145 1.424 . S
C590 C315 1.420 . S
C595 C349 1.424 . S
C600 C179 1.420 . S
C605 C383 1.420 . S
C610 C213 1.422 . S
C615 C281 1.424 . S
C620 C247 1.420 . S
C625 C107 1.540 . S
C630 C33 1.532 . S
C635 C5 1.540 . S
C640 C67 1.532 . S
C645 C101 1.532 . S
C650 C39 1.540 . S
C655 C135 1.532 . S
C660 C73 1.540 . S
C665 C175 1.540 . S
C670 C169 1.532 . S
C675 C209 1.540 . S
C680 C203 1.532 . S
C685 C243 1.539 . S
C690 C237 1.533 . S
C695 C141 1.539 . S
C700 C271 1.533 . S
C705 C379 1.539 . S
C710 C305 1.533 . S
C715 C339 1.533 . S
C720 C277 1.539 . S
C725 C311 1.539 . S
C730 C373 1.533 . S
C735 C345 1.539 . S
C740 C407 1.533 . S
C745 C447 1.539 . S
C750 C441 1.533 . S
C755 C481 1.539 . S
C760 C475 1.533 . S
C765 C515 1.539 . S
C770 C509 1.533 . S
C775 C413 1.539 . S
C780 C543 1.533 . S
C785 C206 1.429 . S
C790 C2 1.429 . S
C795 C240 1.429 . S
C800 C36 1.429 . S
C805 C70 1.428 . S
C810 C138 1.428 . S
C815 C172 1.428 . S
C820 C104 1.428 . S
C825 C88 1.539 . S
C830 C156 1.539 . S
C835 C190 1.539 . S
C840 C122 1.539 . S
C845 C20 1.539 . S
C850 C224 1.539 . S
C855 C258 1.539 1_545 S
C860 C54 1.539 1_565 S
C865 C478 1.429 . S
C870 C274 1.429 . S
C875 C512 1.429 . S
C880 C308 1.429 . S
C885 C410 1.429 . S
C890 C342 1.429 . S
C895 C376 1.428 . S
C900 C444 1.428 . S
C905 C428 1.538 . S
C910 C360 1.538 . S
C915 C394 1.539 . S
C920 C462 1.539 . S
C925 C292 1.539 . S
C930 C496 1.539 . S
C935 C530 1.538 . S
C940 C326 1.538 . S
