# Generated by pormake.
# Topology uou, (4)-cn, num edge types: 1
# Building blocks:
#     Node 0, Type 0, BuildingBlock: TATPOV_clean_sbu_0, # of connection points: 4
#     Node 1, Type 0, BuildingBlock: TATPOV_clean_sbu_0, # of connection points: 4
#     Node 2, Type 0, BuildingBlock: TATPOV_clean_sbu_0, # of connection points: 4
#     Node 3, Type 0, BuildingBlock: TATPOV_clean_sbu_0, # of connection points: 4
#     Node 4, Type 0, BuildingBlock: TATPOV_clean_sbu_0, # of connection points: 4
#     Node 5, Type 0, BuildingBlock: TATPOV_clean_sbu_0, # of connection points: 4
#     Node 6, Type 0, BuildingBlock: TATPOV_clean_sbu_0, # of connection points: 4
#     Node 7, Type 0, BuildingBlock: TATPOV_clean_sbu_0, # of connection points: 4
#     Node 8, Type 0, BuildingBlock: TATPOV_clean_sbu_0, # of connection points: 4
#     Node 9, Type 0, BuildingBlock: TATPOV_clean_sbu_0, # of connection points: 4
#     Node 10, Type 0, BuildingBlock: TATPOV_clean_sbu_0, # of connection points: 4
#     Node 11, Type 0, BuildingBlock: TATPOV_clean_sbu_0, # of connection points: 4
#     Node 12, Type 0, BuildingBlock: TATPOV_clean_sbu_0, # of connection points: 4
#     Node 13, Type 0, BuildingBlock: TATPOV_clean_sbu_0, # of connection points: 4
#     Node 14, Type 0, BuildingBlock: TATPOV_clean_sbu_0, # of connection points: 4
#     Node 15, Type 0, BuildingBlock: TATPOV_clean_sbu_0, # of connection points: 4
#     Edge 16, Type (0, 0), BuildingBlock: TEMPAE_clean_linker_10, # of connection points: 2
#     Edge 17, Type (0, 0), BuildingBlock: TEMPAE_clean_linker_10, # of connection points: 2
#     Edge 18, Type (0, 0), BuildingBlock: TEMPAE_clean_linker_10, # of connection points: 2
#     Edge 19, Type (0, 0), BuildingBlock: TEMPAE_clean_linker_10, # of connection points: 2
#     Edge 20, Type (0, 0), BuildingBlock: TEMPAE_clean_linker_10, # of connection points: 2
#     Edge 21, Type (0, 0), BuildingBlock: TEMPAE_clean_linker_10, # of connection points: 2
#     Edge 22, Type (0, 0), BuildingBlock: TEMPAE_clean_linker_10, # of connection points: 2
#     Edge 23, Type (0, 0), BuildingBlock: TEMPAE_clean_linker_10, # of connection points: 2
#     Edge 24, Type (0, 0), BuildingBlock: TEMPAE_clean_linker_10, # of connection points: 2
#     Edge 25, Type (0, 0), BuildingBlock: TEMPAE_clean_linker_10, # of connection points: 2
#     Edge 26, Type (0, 0), BuildingBlock: TEMPAE_clean_linker_10, # of connection points: 2
#     Edge 27, Type (0, 0), BuildingBlock: TEMPAE_clean_linker_10, # of connection points: 2
#     Edge 28, Type (0, 0), BuildingBlock: TEMPAE_clean_linker_10, # of connection points: 2
#     Edge 29, Type (0, 0), BuildingBlock: TEMPAE_clean_linker_10, # of connection points: 2
#     Edge 30, Type (0, 0), BuildingBlock: TEMPAE_clean_linker_10, # of connection points: 2
#     Edge 31, Type (0, 0), BuildingBlock: TEMPAE_clean_linker_10, # of connection points: 2
#     Edge 32, Type (0, 0), BuildingBlock: TEMPAE_clean_linker_10, # of connection points: 2
#     Edge 33, Type (0, 0), BuildingBlock: TEMPAE_clean_linker_10, # of connection points: 2
#     Edge 34, Type (0, 0), BuildingBlock: TEMPAE_clean_linker_10, # of connection points: 2
#     Edge 35, Type (0, 0), BuildingBlock: TEMPAE_clean_linker_10, # of connection points: 2
#     Edge 36, Type (0, 0), BuildingBlock: TEMPAE_clean_linker_10, # of connection points: 2
#     Edge 37, Type (0, 0), BuildingBlock: TEMPAE_clean_linker_10, # of connection points: 2
#     Edge 38, Type (0, 0), BuildingBlock: TEMPAE_clean_linker_10, # of connection points: 2
#     Edge 39, Type (0, 0), BuildingBlock: TEMPAE_clean_linker_10, # of connection points: 2
#     Edge 40, Type (0, 0), BuildingBlock: TEMPAE_clean_linker_10, # of connection points: 2
#     Edge 41, Type (0, 0), BuildingBlock: TEMPAE_clean_linker_10, # of connection points: 2
#     Edge 42, Type (0, 0), BuildingBlock: TEMPAE_clean_linker_10, # of connection points: 2
#     Edge 43, Type (0, 0), BuildingBlock: TEMPAE_clean_linker_10, # of connection points: 2
#     Edge 44, Type (0, 0), BuildingBlock: TEMPAE_clean_linker_10, # of connection points: 2
#     Edge 45, Type (0, 0), BuildingBlock: TEMPAE_clean_linker_10, # of connection points: 2
#     Edge 46, Type (0, 0), BuildingBlock: TEMPAE_clean_linker_10, # of connection points: 2
#     Edge 47, Type (0, 0), BuildingBlock: TEMPAE_clean_linker_10, # of connection points: 2
# Relax obj value: 0.085
# Max RMSD: 0.141
# Mean RMSD: 0.141
data_MOF--net-uou--node1-TATPOV_clean_sbu_0--edge1-TEMPAE_clean_linker_10
_symmetry_space_group_name_H-M    P1
_symmetry_Int_Tables_number       1
_symmetry_cell_setting            triclinic
loop_
_symmetry_equiv_pos_as_xyz
'x, y, z'
_cell_length_a     40.11999
_cell_length_b     35.841907
_cell_length_c     54.480464
_cell_angle_alpha  90.111846
_cell_angle_beta   89.973607
_cell_angle_gamma 90.043705
loop_
_atom_site_label
_atom_site_type_symbol
_atom_site_fract_x
_atom_site_fract_y
_atom_site_fract_z
_atom_type_partial_charge
Zn0 Zn 0.98502 0.08058 0.12641 0.0
Zn1 Zn 0.05101 0.08256 0.12375 0.0
O2 O 0.03826 0.03963 0.14682 0.0
O3 O 0.98444 0.03012 0.14245 0.0
O4 O 0.10179 0.07705 0.12156 0.0
O5 O 0.98113 0.08427 0.09 0.0
O6 O 0.03542 0.07525 0.08807 0.0
C7 C 0.01224 0.02042 0.15124 0.0
C8 C 0.01295 0.1475 0.14706 0.0
O9 O 0.04 0.13521 0.13763 0.0
O10 O 0.98677 0.12773 0.14655 0.0
C11 C 0.11847 0.0643 0.13961 0.0
O12 O 0.10305 0.05821 0.1605 0.0
C13 C 1.00723 0.07868 0.07752 0.0
Zn14 Zn 0.49002 0.95987 0.12896 0.0
Zn15 Zn 0.42729 0.96679 0.12787 0.0
O16 O 0.44704 0.00666 0.15125 0.0
O17 O 0.50022 0.01059 0.14237 0.0
O18 O 0.37806 0.98076 0.12926 0.0
O19 O 0.49196 0.9503 0.0931 0.0
O20 O 0.43996 0.96972 0.0911 0.0
C21 C 0.47516 0.02281 0.15386 0.0
C22 C 0.45843 0.89776 0.15074 0.0
O23 O 0.43288 0.91253 0.14067 0.0
O24 O 0.48581 0.91534 0.15123 0.0
C25 C 0.35327 0.96375 0.11989 0.0
O26 O 0.35825 0.93231 0.10801 0.0
C27 C 0.46667 0.95894 0.08054 0.0
Zn28 Zn 0.51784 0.95643 0.33585 0.0
Zn29 Zn 0.58131 0.95527 0.34325 0.0
O30 O 0.57367 0.99285 0.31515 0.0
O31 O 0.51997 0.00442 0.31714 0.0
O32 O 0.63124 0.96136 0.34901 0.0
O33 O 0.50724 0.95788 0.37145 0.0
O34 O 0.56071 0.96916 0.37686 0.0
C35 C 0.54845 0.01194 0.30859 0.0
C36 C 0.54612 0.88628 0.32284 0.0
O37 O 0.57164 0.90011 0.33358 0.0
O38 O 0.52072 0.90641 0.31901 0.0
C39 C 0.65378 0.94779 0.33518 0.0
O40 O 0.64501 0.92599 0.31687 0.0
C41 C 0.53118 0.96646 0.38541 0.0
Zn42 Zn 0.02867 0.02214 0.33513 0.0
Zn43 Zn 0.96456 0.03043 0.34589 0.0
O44 O 0.96848 0.99066 0.31897 0.0
O45 O 0.0212 0.9754 0.31535 0.0
O46 O 0.91458 0.02828 0.35248 0.0
O47 O 0.03997 0.01981 0.37077 0.0
O48 O 0.98619 0.01915 0.37927 0.0
C49 C 0.99105 0.97019 0.30954 0.0
C50 C 1.00306 0.09529 0.3232 0.0
O51 O 0.97691 0.08367 0.33424 0.0
O52 O 0.02724 0.07327 0.3194 0.0
C53 C 0.89377 0.03452 0.33533 0.0
O54 O 0.90496 0.04611 0.31399 0.0
C55 C 0.01652 0.01783 0.38622 0.0
Zn56 Zn 1.00717 0.95137 0.86754 0.0
Zn57 Zn 0.93943 0.9454 0.86588 0.0
O58 O 0.95216 0.97034 0.8331 0.0
O59 O 1.00687 0.97652 0.83494 0.0
O60 O 0.88855 0.94516 0.86597 0.0
O61 O 1.00495 0.98384 0.8969 0.0
O62 O 0.95042 0.97561 0.89725 0.0
C63 C 0.97958 0.9815 0.82384 0.0
C64 C 0.98248 0.87521 0.86981 0.0
O65 O 0.95384 0.89018 0.86723 0.0
O66 O 1.00848 0.8952 0.87106 0.0
C67 C 0.87252 0.97254 0.85692 0.0
O68 O 0.88925 1.00027 0.84709 0.0
C69 C 0.97681 0.98949 0.90661 0.0
Zn70 Zn 0.48732 1.00166 0.85427 0.0
Zn71 Zn 0.55348 0.01241 0.86128 0.0
O72 O 0.54646 0.98668 0.82786 0.0
O73 O 0.49396 0.96982 0.82454 0.0
O74 O 0.60419 0.01256 0.8649 0.0
O75 O 0.48277 0.97822 0.8873 0.0
O76 O 0.53656 0.98746 0.89284 0.0
C77 C 0.52322 0.97049 0.81597 0.0
C78 C 0.50949 0.07998 0.85479 0.0
O79 O 0.53818 0.06683 0.85997 0.0
O80 O 0.48507 0.05826 0.85082 0.0
C81 C 0.62026 0.98392 0.85765 0.0
O82 O 0.60356 0.95543 0.84871 0.0
C83 C 0.50842 0.97597 0.90068 0.0
Zn84 Zn 0.52666 0.06348 0.60309 0.0
Zn85 Zn 0.45887 0.0678 0.60601 0.0
O86 O 0.47396 0.03664 0.63572 0.0
O87 O 0.52866 0.03183 0.63316 0.0
O88 O 0.40814 0.06362 0.60765 0.0
O89 O 0.52376 0.03745 0.57105 0.0
O90 O 0.46926 0.04569 0.57177 0.0
C91 C 0.50156 0.02418 0.64385 0.0
C92 C 0.49999 0.13924 0.60757 0.0
O93 O 0.4715 0.12351 0.60924 0.0
O94 O 0.52614 0.11996 0.6045 0.0
C95 C 0.39654 0.03056 0.60899 0.0
O96 O 0.41764 0.00255 0.60942 0.0
C97 C 0.49555 0.03419 0.561 0.0
Zn98 Zn 0.01353 0.97175 0.60591 0.0
Zn99 Zn 0.08018 0.96518 0.61262 0.0
O100 O 0.06185 0.99188 0.64329 0.0
O101 O 1.00788 0.99905 0.63755 0.0
O102 O 0.13069 0.96967 0.61676 0.0
O103 O 0.01858 1.00046 0.57497 0.0
O104 O 0.07213 0.98814 0.57844 0.0
C105 C 0.03352 0.00348 0.6507 0.0
C106 C 0.03916 0.89477 0.60918 0.0
O107 O 0.06753 0.90968 0.61328 0.0
O108 O 0.01379 0.91489 0.60498 0.0
C109 C 0.15039 0.9687 0.59842 0.0
O110 O 0.13806 0.96173 0.57655 0.0
C111 C 0.04777 1.00148 0.56632 0.0
Zn112 Zn 0.48634 0.55166 0.13594 0.0
Zn113 Zn 0.55207 0.56285 0.12903 0.0
O114 O 0.5473 0.52298 0.15592 0.0
O115 O 0.49428 0.50731 0.15735 0.0
O116 O 0.60246 0.56283 0.12434 0.0
O117 O 0.47976 0.54263 0.10021 0.0
O118 O 0.53402 0.54846 0.09495 0.0
C119 C 0.52403 0.50228 0.16414 0.0
C120 C 0.50909 0.62663 0.14834 0.0
O121 O 0.53709 0.6156 0.1398 0.0
O122 O 0.48471 0.60421 0.14978 0.0
C123 C 0.62207 0.56693 0.14252 0.0
O124 O 0.60937 0.57517 0.1641 0.0
C125 C 0.50504 0.5419 0.08635 0.0
Zn126 Zn 0.99729 0.48764 0.14958 0.0
Zn127 Zn 0.93495 0.48793 0.13986 0.0
O128 O 0.9433 0.52573 0.16795 0.0
O129 O 0.99712 0.53623 0.16762 0.0
O130 O 0.88546 0.49626 0.13334 0.0
O131 O 0.01006 0.48574 0.11448 0.0
O132 O 0.9573 0.49686 0.1061 0.0
C133 C 0.96845 0.54405 0.17568 0.0
C134 C 0.9665 0.41873 0.16228 0.0
O135 O 0.94213 0.433 0.15046 0.0
O136 O 0.99196 0.43836 0.16709 0.0
C137 C 0.8619 0.48019 0.14487 0.0
O138 O 0.86921 0.45441 0.16111 0.0
C139 C 0.98734 0.49214 0.09902 0.0
Zn140 Zn 0.0223 0.42883 0.35158 0.0
Zn141 Zn 0.08566 0.43551 0.35131 0.0
O142 O 0.06732 0.476 0.32801 0.0
O143 O 0.01435 0.47991 0.33796 0.0
O144 O 0.13525 0.44867 0.35178 0.0
O145 O 0.0201 0.42134 0.38771 0.0
O146 O 0.07196 0.44137 0.38769 0.0
C147 C 0.03928 0.49255 0.32652 0.0
C148 C 0.05309 0.36649 0.32896 0.0
O149 O 0.07923 0.38111 0.33839 0.0
O150 O 0.0257 0.38396 0.32955 0.0
C151 C 0.16006 0.43035 0.34359 0.0
O152 O 0.15507 0.39739 0.33365 0.0
C153 C 0.04561 0.43213 0.3993 0.0
Zn154 Zn 0.52695 0.54668 0.34908 0.0
Zn155 Zn 0.46209 0.54896 0.355 0.0
O156 O 0.47315 0.50609 0.33126 0.0
O157 O 0.52709 0.49635 0.33295 0.0
O158 O 0.41176 0.54226 0.3585 0.0
O159 O 0.53408 0.55175 0.38508 0.0
O160 O 0.47996 0.54436 0.3903 0.0
C161 C 0.49861 0.4869 0.32523 0.0
C162 C 0.498 0.61402 0.33028 0.0
O163 O 0.47173 0.60167 0.34082 0.0
O164 O 0.52394 0.59394 0.32919 0.0
C165 C 0.39311 0.54008 0.33963 0.0
O166 O 0.4063 0.54587 0.31788 0.0
C167 C 0.50919 0.54834 0.39912 0.0
Zn168 Zn 0.51213 0.42752 0.86795 0.0
Zn169 Zn 0.44672 0.43349 0.86587 0.0
O170 O 0.46429 0.4646 0.83685 0.0
O171 O 0.5181 0.46953 0.84418 0.0
O172 O 0.39654 0.44139 0.86432 0.0
O173 O 0.51196 0.43827 0.90387 0.0
O174 O 0.45911 0.45392 0.89996 0.0
C175 C 0.49274 0.47847 0.83178 0.0
C176 C 0.48052 0.35823 0.85688 0.0
O177 O 0.45414 0.37654 0.86208 0.0
O178 O 0.50847 0.37456 0.85604 0.0
C179 C 0.38552 0.47459 0.86616 0.0
O180 O 0.40699 0.50199 0.86894 0.0
C181 C 0.48555 0.45186 0.91283 0.0
Zn182 Zn 1.00259 0.51912 0.87517 0.0
Zn183 Zn 0.06931 0.53153 0.87482 0.0
O184 O 0.0583 0.50145 0.84375 0.0
O185 O 1.00447 0.48953 0.84401 0.0
O186 O 0.12009 0.53112 0.87584 0.0
O187 O 1.0043 0.49321 0.90744 0.0
O188 O 0.05694 0.51055 0.90876 0.0
C189 C 0.03268 0.48682 0.83382 0.0
C190 C 0.02386 0.59811 0.87264 0.0
O191 O 0.0536 0.58563 0.87159 0.0
O192 O 0.99932 0.57595 0.87465 0.0
C193 C 0.13814 0.53012 0.85662 0.0
O194 O 0.12373 0.5322 0.83502 0.0
C195 C 0.03151 0.49591 0.91896 0.0
Zn196 Zn 0.03783 0.5404 0.61609 0.0
Zn197 Zn 0.96999 0.54305 0.61472 0.0
O198 O 0.98182 0.51727 0.64723 0.0
O199 O 0.03666 0.51309 0.64801 0.0
O200 O 0.91958 0.5367 0.61363 0.0
O201 O 0.0396 0.51032 0.58555 0.0
O202 O 0.98503 0.51649 0.58286 0.0
C203 C 1.00859 0.50666 0.65766 0.0
C204 C 1.00906 0.61564 0.61401 0.0
O205 O 0.98078 0.59933 0.61487 0.0
O206 O 0.03582 0.59685 0.61399 0.0
C207 C 0.89838 0.55636 0.62524 0.0
O208 O 0.9088 0.58488 0.63835 0.0
C209 C 0.01262 0.5047 0.57418 0.0
Zn210 Zn 0.518 0.49513 0.62091 0.0
Zn211 Zn 0.58458 0.48408 0.62069 0.0
O212 O 0.57424 0.51011 0.65355 0.0
O213 O 0.52034 0.52172 0.65308 0.0
O214 O 0.63521 0.48604 0.61845 0.0
O215 O 0.51827 0.52473 0.59015 0.0
O216 O 0.57141 0.50967 0.58827 0.0
C217 C 0.5483 0.5237 0.66368 0.0
C218 C 0.53993 0.41642 0.61963 0.0
O219 O 0.56956 0.42925 0.62109 0.0
O220 O 0.51516 0.43839 0.61888 0.0
C221 C 0.65508 0.48206 0.63646 0.0
O222 O 0.64291 0.47329 0.65809 0.0
C223 C 0.54571 0.52478 0.5788 0.0
C224 C 0.31444 0.0156 0.13207 0.0
C225 C 0.31914 0.97977 0.12215 0.0
C226 C 0.2824 0.03116 0.13437 0.0
C227 C 0.2542 0.01035 0.12677 0.0
C228 C 0.25876 0.97426 0.11663 0.0
C229 C 0.29112 0.9595 0.11435 0.0
C230 C 0.27873 0.0698 0.14511 0.0
C231 C 0.22938 0.95099 0.10849 0.0
C232 C 0.16995 0.0329 0.15544 0.0
C233 C 0.1539 0.0527 0.13662 0.0
C234 C 0.20253 0.01923 0.1525 0.0
C235 C 0.21985 0.02573 0.13027 0.0
C236 C 0.20414 0.04642 0.11137 0.0
C237 C 0.17133 0.05949 0.11472 0.0
C238 C 0.2182 0.99716 0.17308 0.0
C239 C 0.22187 0.05435 0.0875 0.0
H240 H 0.33587 0.03165 0.13805 0.0
H241 H 0.29441 0.93183 0.10666 0.0
H242 H 0.26494 0.088 0.13218 0.0
H243 H 0.26397 0.06848 0.16232 0.0
H244 H 0.30318 0.08294 0.14925 0.0
H245 H 0.23711 0.92377 0.10055 0.0
H246 H 0.21268 0.94565 0.12435 0.0
H247 H 0.21463 0.96635 0.09457 0.0
H248 H 0.15678 0.02733 0.17242 0.0
H249 H 0.15923 0.07476 0.10007 0.0
H250 H 0.24189 0.01048 0.17888 0.0
H251 H 0.22432 0.96863 0.16656 0.0
H252 H 0.20158 0.99488 0.18932 0.0
H253 H 0.24588 0.06871 0.09115 0.0
H254 H 0.20674 0.07195 0.07499 0.0
H255 H 0.22776 0.02775 0.07801 0.0
C256 C 0.71461 0.94078 0.32537 0.0
C257 C 0.6892 0.95935 0.33819 0.0
C258 C 0.74789 0.95303 0.32662 0.0
C259 C 0.75602 0.985 0.34075 0.0
C260 C 0.73059 0.00346 0.35412 0.0
C261 C 0.69758 0.99028 0.35282 0.0
C262 C 0.77428 0.93215 0.31238 0.0
C263 C 0.73807 0.03786 0.36918 0.0
C264 C 0.84749 1.00072 0.35711 0.0
C265 C 0.85796 0.02464 0.33823 0.0
C266 C 0.81431 0.98801 0.35841 0.0
C267 C 0.79086 0.99994 0.34064 0.0
C268 C 0.80103 0.02518 0.3221 0.0
C269 C 0.83444 0.03695 0.32101 0.0
C270 C 0.80464 0.96081 0.3783 0.0
C271 C 0.77676 0.03914 0.30304 0.0
H272 H 0.70846 0.91677 0.31411 0.0
H273 H 0.67814 0.00496 0.36272 0.0
H274 H 0.7848 0.95046 0.29793 0.0
H275 H 0.79507 0.92419 0.32473 0.0
H276 H 0.76431 0.90653 0.30352 0.0
H277 H 0.71584 0.04808 0.37933 0.0
H278 H 0.7582 0.03199 0.38256 0.0
H279 H 0.74709 0.06048 0.35698 0.0
H280 H 0.8655 0.99083 0.37041 0.0
H281 H 0.84223 0.05555 0.30642 0.0
H282 H 0.79709 0.93388 0.36988 0.0
H283 H 0.78288 0.97149 0.38872 0.0
H284 H 0.82535 0.95551 0.39136 0.0
H285 H 0.76797 0.01547 0.29159 0.0
H286 H 0.78804 0.06045 0.29079 0.0
H287 H 0.75455 0.05144 0.31209 0.0
C288 C 0.81814 0.99857 0.84239 0.0
C289 C 0.83551 0.97384 0.85768 0.0
C290 C 0.78317 1.00059 0.84287 0.0
C291 C 0.76502 0.97782 0.85936 0.0
C292 C 0.78242 0.95309 0.87506 0.0
C293 C 0.81743 0.95112 0.87387 0.0
C294 C 0.76563 0.02678 0.82546 0.0
C295 C 0.76404 0.92874 0.89316 0.0
C296 C 0.67552 0.00702 0.87345 0.0
C297 C 0.65725 0.98254 0.85849 0.0
C298 C 0.71058 0.00532 0.87432 0.0
C299 C 0.72779 0.97905 0.85952 0.0
C300 C 0.70942 0.95447 0.8443 0.0
C301 C 0.67446 0.95628 0.84415 0.0
C302 C 0.72922 0.03161 0.8911 0.0
C303 C 0.72672 0.92654 0.82787 0.0
H304 H 0.83188 0.01612 0.82975 0.0
H305 H 0.83068 0.93216 0.88588 0.0
H306 H 0.74854 0.01076 0.81338 0.0
H307 H 0.7502 0.04695 0.83593 0.0
H308 H 0.78335 0.04261 0.81376 0.0
H309 H 0.78125 0.91214 0.90478 0.0
H310 H 0.74817 0.94623 0.90526 0.0
H311 H 0.74728 0.90928 0.88322 0.0
H312 H 0.66241 0.02722 0.88469 0.0
H313 H 0.66058 0.93739 0.83241 0.0
H314 H 0.74575 0.04997 0.88014 0.0
H315 H 0.74535 0.0155 0.90377 0.0
H316 H 0.71217 0.04937 0.90214 0.0
H317 H 0.74355 0.9413 0.81495 0.0
H318 H 0.70884 0.90948 0.81706 0.0
H319 H 0.74238 0.90754 0.83902 0.0
C320 C 0.19986 0.98729 0.62418 0.0
C321 C 0.18642 0.97783 0.6012 0.0
C322 C 0.23368 0.9972 0.62668 0.0
C323 C 0.25461 0.99769 0.60571 0.0
C324 C 0.24116 0.98817 0.5825 0.0
C325 C 0.20735 0.97835 0.58054 0.0
C326 C 0.24705 0.00702 0.65177 0.0
C327 C 0.26255 0.98823 0.55968 0.0
C328 C 0.33672 0.05172 0.606 0.0
C329 C 0.36004 0.02302 0.60937 0.0
C330 C 0.30227 0.04406 0.60525 0.0
C331 C 0.29084 0.00685 0.60804 0.0
C332 C 0.31424 0.97796 0.612 0.0
C333 C 0.34843 0.98636 0.61257 0.0
C334 C 0.27814 0.07566 0.60096 0.0
C335 C 0.30321 0.93794 0.61514 0.0
H336 H 0.18394 0.98713 0.64025 0.0
H337 H 0.19729 0.97123 0.56267 0.0
H338 H 0.26728 0.98743 0.65685 0.0
H339 H 0.258 0.03546 0.6515 0.0
H340 H 0.22746 0.00599 0.66617 0.0
H341 H 0.24816 0.98094 0.54292 0.0
H342 H 0.27395 0.01616 0.55707 0.0
H343 H 0.28322 0.96794 0.56173 0.0
H344 H 0.34539 0.08011 0.60353 0.0
H345 H 0.36614 0.96394 0.61533 0.0
H346 H 0.25913 0.07633 0.61575 0.0
H347 H 0.26474 0.07116 0.58339 0.0
H348 H 0.29081 0.10321 0.60025 0.0
H349 H 0.28484 0.93584 0.6303 0.0
H350 H 0.32439 0.91897 0.61916 0.0
H351 H 0.29067 0.92811 0.59818 0.0
C352 C 0.81959 0.52642 0.12967 0.0
C353 C 0.8268 0.49269 0.14163 0.0
C354 C 0.78674 0.53999 0.1282 0.0
C355 C 0.76031 0.51914 0.13864 0.0
C356 C 0.76731 0.48453 0.15006 0.0
C357 C 0.80043 0.47187 0.15156 0.0
C358 C 0.78045 0.57718 0.1161 0.0
C359 C 0.73985 0.46113 0.16113 0.0
C360 C 0.68023 0.56682 0.15936 0.0
C361 C 0.65815 0.55793 0.14025 0.0
C362 C 0.71374 0.55539 0.15868 0.0
C363 C 0.72549 0.53406 0.13854 0.0
C364 C 0.70356 0.52578 0.11888 0.0
C365 C 0.67025 0.53801 0.11989 0.0
C366 C 0.73636 0.56536 0.17984 0.0
C367 C 0.71496 0.50285 0.09718 0.0
H368 H 0.83977 0.54282 0.12202 0.0
H369 H 0.80567 0.44572 0.16073 0.0
H370 H 0.76151 0.57417 0.10141 0.0
H371 H 0.77033 0.59713 0.1298 0.0
H372 H 0.80346 0.58929 0.10801 0.0
H373 H 0.74913 0.43396 0.16812 0.0
H374 H 0.72806 0.47649 0.17654 0.0
H375 H 0.72017 0.45571 0.14727 0.0
H376 H 0.67119 0.58232 0.17512 0.0
H377 H 0.65338 0.53082 0.10508 0.0
H378 H 0.75923 0.57927 0.17295 0.0
H379 H 0.74427 0.5396 0.18947 0.0
H380 H 0.72404 0.5841 0.19333 0.0
H381 H 0.73753 0.51546 0.08884 0.0
H382 H 0.6954 0.50036 0.08284 0.0
H383 H 0.72186 0.47442 0.1034 0.0
C384 C 0.33641 0.52956 0.32145 0.0
C385 C 0.35791 0.52721 0.34171 0.0
C386 C 0.30391 0.51489 0.32236 0.0
C387 C 0.2926 0.49692 0.34396 0.0
C388 C 0.31397 0.49499 0.36463 0.0
C389 C 0.34625 0.51036 0.36332 0.0
C390 C 0.28183 0.51808 0.30002 0.0
C391 C 0.30305 0.47583 0.38794 0.0
C392 C 0.19892 0.48378 0.35256 0.0
C393 C 0.19415 0.44692 0.34443 0.0
C394 C 0.23077 0.50027 0.35269 0.0
C395 C 0.25872 0.47943 0.34467 0.0
C396 C 0.25416 0.44205 0.33678 0.0
C397 C 0.22199 0.42633 0.33668 0.0
C398 C 0.23443 0.54024 0.36109 0.0
C399 C 0.28328 0.41874 0.32822 0.0
H400 H 0.3451 0.54262 0.30469 0.0
H401 H 0.36269 0.50817 0.37903 0.0
H402 H 0.27577 0.48984 0.29294 0.0
H403 H 0.25794 0.5317 0.30502 0.0
H404 H 0.29375 0.53434 0.28506 0.0
H405 H 0.32222 0.47755 0.40261 0.0
H406 H 0.27964 0.48851 0.39486 0.0
H407 H 0.29776 0.44599 0.38412 0.0
H408 H 0.17765 0.50004 0.35856 0.0
H409 H 0.21868 0.39785 0.33042 0.0
H410 H 0.24453 0.55747 0.3459 0.0
H411 H 0.25245 0.54195 0.37648 0.0
H412 H 0.21036 0.55248 0.36718 0.0
H413 H 0.29491 0.43177 0.31187 0.0
H414 H 0.27579 0.38979 0.32341 0.0
H415 H 0.30259 0.41757 0.34277 0.0
C416 C 0.19432 0.52173 0.83711 0.0
C417 C 0.17469 0.52365 0.85842 0.0
C418 C 0.22858 0.51375 0.83835 0.0
C419 C 0.24372 0.50744 0.86145 0.0
C420 C 0.22415 0.50966 0.88305 0.0
C421 C 0.18992 0.51777 0.88129 0.0
C422 C 0.24855 0.51182 0.81488 0.0
C423 C 0.23931 0.50315 0.90804 0.0
C424 C 0.32576 0.45374 0.86284 0.0
C425 C 0.34917 0.48266 0.86514 0.0
C426 C 0.29137 0.46136 0.86178 0.0
C427 C 0.28008 0.49878 0.86298 0.0
C428 C 0.30359 0.52804 0.86535 0.0
C429 C 0.33776 0.51964 0.86643 0.0
C430 C 0.26712 0.42936 0.85929 0.0
C431 C 0.29265 0.56831 0.86664 0.0
H432 H 0.18287 0.52618 0.81935 0.0
H433 H 0.17502 0.51907 0.89787 0.0
H434 H 0.26933 0.53225 0.81554 0.0
H435 H 0.2598 0.48371 0.81285 0.0
H436 H 0.23314 0.51766 0.79839 0.0
H437 H 0.22077 0.50601 0.92307 0.0
H438 H 0.25029 0.47478 0.90885 0.0
H439 H 0.25983 0.52333 0.91129 0.0
H440 H 0.33428 0.42509 0.86186 0.0
H441 H 0.35557 0.54223 0.8682 0.0
H442 H 0.25244 0.43248 0.84216 0.0
H443 H 0.24921 0.4297 0.87481 0.0
H444 H 0.27983 0.40184 0.85891 0.0
H445 H 0.27874 0.57577 0.84975 0.0
H446 H 0.31401 0.5878 0.86868 0.0
H447 H 0.27547 0.57241 0.88237 0.0
C448 C 0.70302 0.50804 0.6122 0.0
C449 C 0.69118 0.4906 0.63356 0.0
C450 C 0.73663 0.51867 0.60991 0.0
C451 C 0.75916 0.51133 0.62932 0.0
C452 C 0.74754 0.49295 0.65069 0.0
C453 C 0.71371 0.48301 0.65261 0.0
C454 C 0.7479 0.53846 0.58691 0.0
C455 C 0.77079 0.48416 0.67168 0.0
C456 C 0.85243 0.51085 0.61591 0.0
C457 C 0.86254 0.54558 0.62529 0.0
C458 C 0.81892 0.49941 0.61701 0.0
C459 C 0.79474 0.52342 0.62749 0.0
C460 C 0.80467 0.55881 0.63655 0.0
C461 C 0.83842 0.56936 0.63548 0.0
C462 C 0.80948 0.46133 0.60735 0.0
C463 C 0.77964 0.58546 0.64757 0.0
H464 H 0.68583 0.51421 0.59741 0.0
H465 H 0.70488 0.46948 0.66915 0.0
H466 H 0.75746 0.56662 0.59167 0.0
H467 H 0.76867 0.52293 0.57819 0.0
H468 H 0.72746 0.54154 0.57332 0.0
H469 H 0.75818 0.4685 0.68661 0.0
H470 H 0.79221 0.46744 0.66496 0.0
H471 H 0.78102 0.51042 0.67944 0.0
H472 H 0.87084 0.49217 0.60809 0.0
H473 H 0.84592 0.59628 0.6427 0.0
H474 H 0.79009 0.46399 0.59295 0.0
H475 H 0.79868 0.4443 0.62237 0.0
H476 H 0.83115 0.44614 0.59949 0.0
H477 H 0.7594 0.5911 0.63421 0.0
H478 H 0.79113 0.61243 0.65304 0.0
H479 H 0.76796 0.57268 0.66399 0.0
C480 C 1.00703 0.92297 0.27795 0.0
C481 C 0.98358 0.94835 0.28726 0.0
C482 C 1.00854 0.91577 0.25265 0.0
C483 C 0.98774 0.93641 0.23678 0.0
C484 C 0.95981 0.95545 0.24661 0.0
C485 C 0.95769 0.96055 0.27203 0.0
C486 C 0.03543 0.89059 0.24274 0.0
C487 C 0.93535 0.97574 0.23036 0.0
C488 C 0.03076 0.99969 0.19195 0.0
C489 C 0.01297 0.99196 0.17054 0.0
C490 C 0.02457 0.9797 0.21345 0.0
C491 C 1.00135 0.94968 0.21302 0.0
C492 C 0.98694 0.93854 0.19044 0.0
C493 C 0.9921 0.96064 0.16952 0.0
C494 C 0.0403 0.99365 0.23701 0.0
C495 C 0.96456 0.90487 0.18832 0.0
H496 H 0.02618 0.91184 0.2899 0.0
H497 H 0.93856 0.97882 0.27934 0.0
H498 H 0.02844 0.87916 0.22448 0.0
H499 H 0.059 0.90647 0.24073 0.0
H500 H 0.0402 0.86716 0.25558 0.0
H501 H 0.91438 0.98804 0.24096 0.0
H502 H 0.94825 0.99855 0.22038 0.0
H503 H 0.92486 0.95627 0.21656 0.0
H504 H 0.047 0.02388 0.19259 0.0
H505 H 0.97887 0.95422 0.15268 0.0
H506 H 0.05603 0.97158 0.24521 0.0
H507 H 0.0207 1.00112 0.25052 0.0
H508 H 0.05626 0.0186 0.23409 0.0
H509 H 0.9643 0.88757 0.20518 0.0
H510 H 0.97294 0.88724 0.1727 0.0
H511 H 0.93878 0.91397 0.18404 0.0
C512 C 0.46394 0.0404 0.19678 0.0
C513 C 0.48092 0.04778 0.17491 0.0
C514 C 0.47794 0.05038 0.21936 0.0
C515 C 0.50874 0.0699 0.21977 0.0
C516 C 0.52202 0.08406 0.19762 0.0
C517 C 0.50853 0.07181 0.17524 0.0
C518 C 0.46207 0.03541 0.24252 0.0
C519 C 0.55235 0.1089 0.19727 0.0
C520 C 0.53207 0.06937 0.28613 0.0
C521 C 0.55011 0.03595 0.28689 0.0
C522 C 0.52312 0.08523 0.26355 0.0
C523 C 0.5304 0.06556 0.24167 0.0
C524 C 0.55232 0.03447 0.24244 0.0
C525 C 0.56261 0.02063 0.2652 0.0
C526 C 0.50326 0.12092 0.26351 0.0
C527 C 0.56133 0.0126 0.21962 0.0
H528 H 0.44213 0.02251 0.19651 0.0
H529 H 0.5211 0.07867 0.15821 0.0
H530 H 0.47943 0.01598 0.25189 0.0
H531 H 0.45658 0.05863 0.25533 0.0
H532 H 0.43841 0.02028 0.23883 0.0
H533 H 0.54896 0.13146 0.18355 0.0
H534 H 0.55732 0.1217 0.21548 0.0
H535 H 0.57447 0.09255 0.1915 0.0
H536 H 0.52305 0.0817 0.30307 0.0
H537 H 0.57683 0.99492 0.26596 0.0
H538 H 0.47772 0.11545 0.27045 0.0
H539 H 0.50165 0.13356 0.24496 0.0
H540 H 0.51485 0.1414 0.27623 0.0
H541 H 0.53843 1.0015 0.21079 0.0
H542 H 0.57815 0.98877 0.22362 0.0
H543 H 0.57397 0.03101 0.20623 0.0
C544 C 0.04847 0.99913 0.69467 0.0
C545 C 0.02906 0.01555 0.67631 0.0
C546 C 0.03885 1.00139 0.71932 0.0
C547 C 1.00978 0.02167 0.72568 0.0
C548 C 0.9923 0.0418 0.70749 0.0
C549 C 1.00181 0.03793 0.68285 0.0
C550 C 0.05801 0.97916 0.73815 0.0
C551 C 0.96222 0.06521 0.71376 0.0
C552 C 0.9654 0.97856 0.77971 0.0
C553 C 0.98064 0.99746 0.79913 0.0
C554 C 0.97312 0.98779 0.75538 0.0
C555 C 0.99566 0.01743 0.75065 0.0
C556 C 1.00821 0.0391 0.77028 0.0
C557 C 1.00114 0.02827 0.79442 0.0
C558 C 0.95959 0.96362 0.73494 0.0
C559 C 0.03092 0.07201 0.76591 0.0
H560 H 0.06948 0.98171 0.68962 0.0
H561 H 0.98698 0.05098 0.66862 0.0
H562 H 0.0651 0.99712 0.75389 0.0
H563 H 0.04198 0.95643 0.74537 0.0
H564 H 0.081 0.96652 0.73039 0.0
H565 H 0.95647 0.08554 0.69899 0.0
H566 H 0.94021 0.04683 0.71619 0.0
H567 H 0.96609 0.08061 0.73122 0.0
H568 H 0.94972 0.9546 0.78353 0.0
H569 H 0.01265 0.04301 0.80962 0.0
H570 H 0.98036 0.94795 0.72626 0.0
H571 H 0.948 0.98108 0.72052 0.0
H572 H 0.94077 0.94326 0.74161 0.0
H573 H 0.05648 0.06191 0.76191 0.0
H574 H 0.03215 0.0906 0.78223 0.0
H575 H 0.02243 0.0885 0.74988 0.0
C576 C 0.52542 0.97398 0.6699 0.0
C577 C 0.50266 0.00327 0.66694 0.0
C578 C 0.53021 0.95746 0.69293 0.0
C579 C 0.513 0.97198 0.71349 0.0
C580 C 0.48875 1.00034 0.71025 0.0
C581 C 0.48341 0.01514 0.68683 0.0
C582 C 0.55494 0.92598 0.69534 0.0
C583 C 0.47021 0.01709 0.73177 0.0
C584 C 0.50571 0.93667 0.77811 0.0
C585 C 0.52825 0.96051 0.79002 0.0
C586 C 0.50332 0.93642 0.75244 0.0
C587 C 0.52301 0.96162 0.73873 0.0
C588 C 0.54839 0.98246 0.75052 0.0
C589 C 0.55111 0.98109 0.7761 0.0
C590 C 0.47756 0.91192 0.74027 0.0
C591 C 0.56995 0.00974 0.73657 0.0
H592 H 0.53998 0.96454 0.65431 0.0
H593 H 0.46589 0.03787 0.68442 0.0
H594 H 0.57971 0.9375 0.70027 0.0
H595 H 0.54742 0.90606 0.7099 0.0
H596 H 0.55768 0.91054 0.67775 0.0
H597 H 0.45179 0.03847 0.72599 0.0
H598 H 0.45688 0.99501 0.74207 0.0
H599 H 0.4882 0.03036 0.74458 0.0
H600 H 0.48844 0.92012 0.78888 0.0
H601 H 0.56876 0.99933 0.78525 0.0
H602 H 0.48685 0.90114 0.72242 0.0
H603 H 0.45474 0.92845 0.73663 0.0
H604 H 0.47061 0.88796 0.75214 0.0
H605 H 0.58114 0.99618 0.72024 0.0
H606 H 0.59034 0.02133 0.74809 0.0
H607 H 0.55433 0.03324 0.72997 0.0
C608 C 0.51306 0.44402 0.18761 0.0
C609 C 0.53006 0.47798 0.18526 0.0
C610 C 0.51028 0.42662 0.21056 0.0
C611 C 0.52283 0.44515 0.23157 0.0
C612 C 0.5433 0.47725 0.22864 0.0
C613 C 0.54735 0.49266 0.20528 0.0
C614 C 0.49157 0.39022 0.21227 0.0
C615 C 0.55747 0.49832 0.25035 0.0
C616 C 0.47216 0.46693 0.28651 0.0
C617 C 0.4965 0.46069 0.30443 0.0
C618 C 0.47801 0.45655 0.26214 0.0
C619 C 0.50819 0.43807 0.25613 0.0
C620 C 0.52848 0.42393 0.27514 0.0
C621 C 0.52302 0.43643 0.29922 0.0
C622 C 0.45441 0.47052 0.2426 0.0
C623 C 0.5582 0.39956 0.26979 0.0
H624 H 0.50039 0.43217 0.17183 0.0
H625 H 0.56075 0.51878 0.20325 0.0
H626 H 0.49363 0.37713 0.23065 0.0
H627 H 0.46489 0.39484 0.20787 0.0
H628 H 0.50135 0.37042 0.19831 0.0
H629 H 0.572 0.52329 0.24473 0.0
H630 H 0.53705 0.50765 0.26267 0.0
H631 H 0.57417 0.47997 0.26108 0.0
H632 H 0.45089 0.48448 0.2907 0.0
H633 H 0.54114 0.43001 0.31336 0.0
H634 H 0.44621 0.44703 0.23083 0.0
H635 H 0.46726 0.49118 0.23073 0.0
H636 H 0.43188 0.48395 0.25052 0.0
H637 H 0.55603 0.38562 0.25163 0.0
H638 H 0.56085 0.37796 0.28425 0.0
H639 H 0.58127 0.41662 0.27002 0.0
C640 C 0.01235 0.55123 0.31221 0.0
C641 C 0.03359 0.52098 0.30768 0.0
C642 C 0.99982 0.57267 0.29275 0.0
C643 C 1.00717 0.56189 0.26834 0.0
C644 C 0.03079 0.53304 0.26395 0.0
C645 C 0.04438 0.51368 0.28381 0.0
C646 C 0.97721 0.60507 0.29863 0.0
C647 C 0.03921 0.51971 0.2383 0.0
C648 C 0.94677 0.5504 0.21769 0.0
C649 C 0.96643 0.56514 0.19882 0.0
C650 C 0.95683 0.55422 0.24217 0.0
C651 C 0.98625 0.57459 0.2475 0.0
C652 C 1.00069 0.59713 0.2291 0.0
C653 C 0.99127 0.59129 0.2046 0.0
C654 C 0.93927 0.53141 0.26154 0.0
C655 C 0.0292 0.62312 0.23479 0.0
H656 H 1.00443 0.55717 0.33085 0.0
H657 H 0.0608 0.49018 0.28045 0.0
H658 H 0.97198 0.62283 0.28242 0.0
H659 H 0.95334 0.59448 0.30619 0.0
H660 H 0.98876 0.62265 0.31313 0.0
H661 H 0.05687 0.49585 0.23834 0.0
H662 H 0.01622 0.51082 0.22859 0.0
H663 H 0.05068 0.54261 0.2276 0.0
H664 H 0.92682 0.53109 0.21327 0.0
H665 H 1.00572 0.60397 0.19 0.0
H666 H 0.93314 0.54918 0.27757 0.0
H667 H 0.95591 0.50868 0.26795 0.0
H668 H 0.91583 0.5187 0.25458 0.0
H669 H 0.02734 0.63406 0.25384 0.0
H670 H 0.02964 0.64688 0.22173 0.0
H671 H 0.05316 0.60797 0.23298 0.0
C672 C 0.56715 0.51309 0.70621 0.0
C673 C 0.5489 0.53471 0.68965 0.0
C674 C 0.55935 0.51356 0.73126 0.0
C675 C 0.53356 0.53727 0.73981 0.0
C676 C 0.51865 0.56312 0.72362 0.0
C677 C 0.52596 0.56096 0.6985 0.0
C678 C 0.57584 0.48541 0.7479 0.0
C679 C 0.49272 0.59054 0.73239 0.0
C680 C 0.48109 0.48966 0.78786 0.0
C681 C 0.4976 0.50037 0.80932 0.0
C682 C 0.49139 0.50331 0.76503 0.0
C683 C 0.51797 0.52938 0.76391 0.0
C684 C 0.53216 0.54338 0.78582 0.0
C685 C 0.52232 0.52799 0.80834 0.0
C686 C 0.47582 0.48721 0.74207 0.0
C687 C 0.55917 0.57269 0.78553 0.0
H688 H 0.58493 0.49282 0.69933 0.0
H689 H 0.5122 0.57811 0.68564 0.0
H690 H 0.5849 0.49906 0.76489 0.0
H691 H 0.55735 0.4639 0.75335 0.0
H692 H 0.5972 0.47123 0.73886 0.0
H693 H 0.49024 0.6144 0.71953 0.0
H694 H 0.46818 0.5764 0.73362 0.0
H695 H 0.49901 0.60138 0.75092 0.0
H696 H 0.46205 0.46819 0.78869 0.0
H697 H 0.53482 0.53656 0.82507 0.0
H698 H 0.49492 0.4716 0.73148 0.0
H699 H 0.46638 0.50986 0.73014 0.0
H700 H 0.45484 0.46797 0.74622 0.0
H701 H 0.58378 0.559 0.78336 0.0
H702 H 0.55959 0.5887 0.80301 0.0
H703 H 0.55583 0.59243 0.77006 0.0
C704 C 0.01023 0.44886 0.79916 0.0
C705 C 0.03435 0.47357 0.80828 0.0
C706 C 1.00617 0.44383 0.7738 0.0
C707 C 0.02577 0.46523 0.75746 0.0
C708 C 0.05204 0.48769 0.76664 0.0
C709 C 0.05639 0.49101 0.79202 0.0
C710 C 0.97926 0.41791 0.76461 0.0
C711 C 0.07329 0.51138 0.74987 0.0
C712 C 0.02924 0.46105 0.68835 0.0
C713 C 1.00756 0.4902 0.68224 0.0
C714 C 0.03291 0.44968 0.71279 0.0
C715 C 0.01575 0.46932 0.73144 0.0
C716 C 0.99229 0.49728 0.72511 0.0
C717 C 0.98802 0.50687 0.70042 0.0
C718 C 0.05668 0.41836 0.7187 0.0
C719 C 0.97391 0.51941 0.74448 0.0
H720 H 0.99345 0.43493 0.81178 0.0
H721 H 0.07505 0.51014 0.79904 0.0
H722 H 0.95655 0.43423 0.76029 0.0
H723 H 0.98723 0.40341 0.74757 0.0
H724 H 0.97258 0.39671 0.77863 0.0
H725 H 0.0939 0.52552 0.75985 0.0
H726 H 0.08421 0.49414 0.73501 0.0
H727 H 0.05755 0.53304 0.7411 0.0
H728 H 0.04405 0.44792 0.67409 0.0
H729 H 0.97137 0.52951 0.69555 0.0
H730 H 0.04722 0.40121 0.73415 0.0
H731 H 0.08111 0.43014 0.72426 0.0
H732 H 0.06083 0.39999 0.70254 0.0
H733 H 0.96057 0.50043 0.75716 0.0
H734 H 0.95555 0.53906 0.7364 0.0
H735 H 0.99204 0.53571 0.75555 0.0
C736 C 0.98499 0.19564 0.17297 0.0
C737 C 0.01014 0.18632 0.15612 0.0
C738 C 0.97741 0.23301 0.1783 0.0
C739 C 0.99492 0.26174 0.16607 0.0
C740 C 0.02167 0.25251 0.15015 0.0
C741 C 0.02918 0.21483 0.14554 0.0
C742 C 0.94946 0.24164 0.19598 0.0
C743 C 0.04097 0.28236 0.13674 0.0
C744 C 0.95172 0.35318 0.15116 0.0
C745 C 0.96826 0.37806 0.16684 0.0
C746 C 0.95928 0.31492 0.1514 0.0
C747 C 0.98346 0.30117 0.16806 0.0
C748 C 0.99819 0.32572 0.18529 0.0
C749 C 0.9907 0.36396 0.18429 0.0
C750 C 0.94296 0.28964 0.13272 0.0
C751 C 0.0232 0.31201 0.2039 0.0
H752 H 0.97039 0.17363 0.18139 0.0
H753 H 0.04852 0.20778 0.13242 0.0
H754 H 0.95714 0.26366 0.20916 0.0
H755 H 0.92765 0.25239 0.18568 0.0
H756 H 0.94151 0.21659 0.20646 0.0
H757 H 0.06239 0.27076 0.1263 0.0
H758 H 0.0242 0.29694 0.1237 0.0
H759 H 0.05044 0.30352 0.14988 0.0
H760 H 0.93453 0.3639 0.13755 0.0
H761 H 1.00341 0.38307 0.19658 0.0
H762 H 0.93161 0.26515 0.14192 0.0
H763 H 0.96208 0.27897 0.11977 0.0
H764 H 0.92333 0.3042 0.12202 0.0
H765 H 0.01411 0.28625 0.21297 0.0
H766 H 0.02851 0.33331 0.21822 0.0
H767 H 0.04691 0.30499 0.19448 0.0
C768 C 0.44149 0.83179 0.1435 0.0
C769 C 0.45884 0.85794 0.15772 0.0
C770 C 0.44876 0.79354 0.14525 0.0
C771 C 0.47336 0.78121 0.16206 0.0
C772 C 0.48863 0.80723 0.17807 0.0
C773 C 0.48154 0.84537 0.17547 0.0
C774 C 0.432 0.76674 0.12774 0.0
C775 C 0.51403 0.79515 0.19688 0.0
C776 C 0.47775 0.67621 0.1709 0.0
C777 C 0.50344 0.66634 0.15463 0.0
C778 C 0.46877 0.71368 0.17452 0.0
C779 C 0.48532 0.74188 0.16108 0.0
C780 C 0.51219 0.73219 0.14538 0.0
C781 C 0.52117 0.69453 0.14256 0.0
C782 C 0.44079 0.72294 0.19204 0.0
C783 C 0.53038 0.76142 0.1306 0.0
H784 H 0.42419 0.84142 0.1296 0.0
H785 H 0.49492 0.86557 0.18657 0.0
H786 H 0.4507 0.7557 0.11459 0.0
H787 H 0.42154 0.74261 0.13787 0.0
H788 H 0.41164 0.78021 0.11717 0.0
H789 H 0.51925 0.8175 0.21051 0.0
H790 H 0.50537 0.7699 0.20678 0.0
H791 H 0.53771 0.78788 0.1875 0.0
H792 H 0.46415 0.6545 0.18047 0.0
H793 H 0.54091 0.68704 0.12988 0.0
H794 H 0.4188 0.73277 0.18156 0.0
H795 H 0.44832 0.74586 0.20459 0.0
H796 H 0.4332 0.69846 0.20321 0.0
H797 H 0.51277 0.77504 0.11772 0.0
H798 H 0.55136 0.74949 0.11984 0.0
H799 H 0.54034 0.78345 0.1429 0.0
C800 C 0.48187 0.68119 0.3341 0.0
C801 C 0.50069 0.65345 0.32241 0.0
C802 C 0.48955 0.71915 0.33089 0.0
C803 C 0.5163 0.72954 0.3153 0.0
C804 C 0.53363 0.70174 0.30198 0.0
C805 C 0.52581 0.66402 0.30585 0.0
C806 C 0.47041 0.74797 0.3454 0.0
C807 C 0.56165 0.71164 0.28466 0.0
C808 C 0.52075 0.8328 0.30008 0.0
C809 C 0.54351 0.84579 0.31772 0.0
C810 C 0.51299 0.79471 0.2981 0.0
C811 C 0.52775 0.7691 0.31456 0.0
C812 C 0.55206 0.78181 0.33153 0.0
C813 C 0.55991 0.81999 0.33273 0.0
C814 C 0.48779 0.78221 0.27921 0.0
C815 C 0.56839 0.75539 0.34942 0.0
H816 H 0.46258 0.67321 0.34701 0.0
H817 H 0.54029 0.64268 0.2966 0.0
H818 H 0.48729 0.76149 0.35889 0.0
H819 H 0.46095 0.77013 0.33306 0.0
H820 H 0.449 0.73563 0.35547 0.0
H821 H 0.56946 0.68745 0.27325 0.0
H822 H 0.55411 0.73476 0.27234 0.0
H823 H 0.5835 0.72141 0.29537 0.0
H824 H 0.50816 0.85265 0.2883 0.0
H825 H 0.57732 0.8299 0.3465 0.0
H826 H 0.46418 0.77452 0.28852 0.0
H827 H 0.49681 0.7571 0.2693 0.0
H828 H 0.48236 0.80441 0.26558 0.0
H829 H 0.54927 0.74384 0.36203 0.0
H830 H 0.58801 0.76927 0.36056 0.0
H831 H 0.57974 0.73154 0.33947 0.0
C832 C 0.06994 0.29996 0.33391 0.0
C833 C 0.05239 0.32715 0.32079 0.0
C834 C 0.06257 0.26188 0.33083 0.0
C835 C 0.03763 0.25084 0.31384 0.0
C836 C 0.02212 0.27807 0.29894 0.0
C837 C 0.02936 0.31594 0.30285 0.0
C838 C 0.07968 0.23374 0.3471 0.0
C839 C 0.9963 0.2675 0.28 0.0
C840 C 0.03271 0.14668 0.30112 0.0
C841 C 1.0077 0.13543 0.31759 0.0
C842 C 0.04163 0.1844 0.29874 0.0
C843 C 0.02559 0.21148 0.3135 0.0
C844 C 0.99916 0.20052 0.32923 0.0
C845 C 0.99034 0.16266 0.33092 0.0
C846 C 0.06922 0.19503 0.28123 0.0
C847 C 0.98137 0.22855 0.34528 0.0
H848 H 0.08751 0.30855 0.34794 0.0
H849 H 0.01586 0.33696 0.29258 0.0
H850 H 0.06127 0.22165 0.36006 0.0
H851 H 0.08986 0.21046 0.33596 0.0
H852 H 0.10031 0.24636 0.3579 0.0
H853 H 0.99115 0.29077 0.2671 0.0
H854 H 1.00448 0.24281 0.26928 0.0
H855 H 0.97269 0.25999 0.28937 0.0
H856 H 0.04608 0.1258 0.29059 0.0
H857 H 0.97112 0.15419 0.34375 0.0
H858 H 0.09162 0.20349 0.2918 0.0
H859 H 0.06166 0.21924 0.26987 0.0
H860 H 0.07618 0.1716 0.26887 0.0
H861 H 0.99927 0.24096 0.35852 0.0
H862 H 0.9605 0.21582 0.35574 0.0
H863 H 0.97135 0.25163 0.33395 0.0
C864 C 0.0371 0.66252 0.85793 0.0
C865 C 0.01744 0.63864 0.87219 0.0
C866 C 0.03022 0.70093 0.85692 0.0
C867 C 1.00382 0.71582 0.8712 0.0
C868 C 0.98428 0.69179 0.88595 0.0
C869 C 0.99099 0.65341 0.88594 0.0
C870 C 0.05102 0.72553 0.84046 0.0
C871 C 0.95669 0.7067 0.90209 0.0
C872 C 1.00979 0.81877 0.88694 0.0
C873 C 0.98607 0.83433 0.87112 0.0
C874 C 0.01519 0.78014 0.88757 0.0
C875 C 0.99727 0.75667 0.87133 0.0
C876 C 0.97324 0.77228 0.85529 0.0
C877 C 0.9675 0.81097 0.85568 0.0
C878 C 0.04014 0.76449 0.90556 0.0
C879 C 0.9543 0.74826 0.83726 0.0
H880 H 0.05736 0.65102 0.84713 0.0
H881 H 0.97593 0.63495 0.89714 0.0
H882 H 0.03464 0.74124 0.82774 0.0
H883 H 0.06478 0.74632 0.85166 0.0
H884 H 0.06932 0.7093 0.82948 0.0
H885 H 0.94418 0.68432 0.91276 0.0
H886 H 0.96693 0.72761 0.91511 0.0
H887 H 0.93771 0.72109 0.89075 0.0
H888 H 0.02401 0.83689 0.89898 0.0
H889 H 0.94943 0.82313 0.84326 0.0
H890 H 0.06101 0.75113 0.89551 0.0
H891 H 0.02822 0.74262 0.91699 0.0
H892 H 0.05055 0.7863 0.91789 0.0
H893 H 0.97209 0.7336 0.82498 0.0
H894 H 0.9368 0.76478 0.82582 0.0
H895 H 0.93992 0.72657 0.84717 0.0
C896 C 0.45931 0.29507 0.86825 0.0
C897 C 0.47966 0.31743 0.85345 0.0
C898 C 0.46254 0.25602 0.86792 0.0
C899 C 0.48601 0.23916 0.85192 0.0
C900 C 0.50516 0.26166 0.83591 0.0
C901 C 0.50211 0.30056 0.83714 0.0
C902 C 0.44214 0.23299 0.88559 0.0
C903 C 0.5297 0.24473 0.81806 0.0
C904 C 0.52355 0.14499 0.86789 0.0
C905 C 0.50407 0.12071 0.85371 0.0
C906 C 0.51745 0.18356 0.86785 0.0
C907 C 0.49187 0.19821 0.85274 0.0
C908 C 0.47253 0.17385 0.83805 0.0
C909 C 0.47858 0.13532 0.83897 0.0
C910 C 0.53819 0.2086 0.88412 0.0
C911 C 0.44572 0.1885 0.82119 0.0
H912 H 0.44223 0.30817 0.88105 0.0
H913 H 0.51774 0.31792 0.8256 0.0
H914 H 0.42851 0.21072 0.87561 0.0
H915 H 0.45896 0.21908 0.8989 0.0
H916 H 0.42385 0.25014 0.89595 0.0
H917 H 0.54021 0.2658 0.80527 0.0
H918 H 0.55055 0.23171 0.82829 0.0
H919 H 0.51751 0.22241 0.80713 0.0
H920 H 0.54306 0.13373 0.87947 0.0
H921 H 0.46361 0.11662 0.82785 0.0
H922 H 0.52172 0.22508 0.8964 0.0
H923 H 0.55241 0.22871 0.87274 0.0
H924 H 0.55608 0.19264 0.89558 0.0
H925 H 0.42665 0.20383 0.83194 0.0
H926 H 0.43318 0.16586 0.81073 0.0
H927 H 0.4567 0.20856 0.80796 0.0
C928 C 0.48529 0.20107 0.62611 0.0
C929 C 0.50332 0.18019 0.60889 0.0
C930 C 0.49093 0.23962 0.62878 0.0
C931 C 0.51427 0.2577 0.61326 0.0
C932 C 0.53164 0.23679 0.59529 0.0
C933 C 0.52637 0.1982 0.59363 0.0
C934 C 0.47257 0.26082 0.64856 0.0
C935 C 0.55583 0.25514 0.57781 0.0
C936 C 0.50686 0.3624 0.6043 0.0
C937 C 0.53381 0.37581 0.61815 0.0
C938 C 0.50027 0.32406 0.60252 0.0
C939 C 0.52047 0.29854 0.61556 0.0
C940 C 0.54738 0.31198 0.62996 0.0
C941 C 0.55409 0.35049 0.63074 0.0
C942 C 0.4721 0.31085 0.58629 0.0
C943 C 0.56896 0.2857 0.64461 0.0
H944 H 0.46774 0.18701 0.63808 0.0
H945 H 0.54018 0.18203 0.58021 0.0
H946 H 0.49074 0.27407 0.66122 0.0
H947 H 0.45758 0.28353 0.64029 0.0
H948 H 0.45573 0.24255 0.65939 0.0
H949 H 0.56603 0.23519 0.5641 0.0
H950 H 0.5433 0.27823 0.56789 0.0
H951 H 0.5769 0.26748 0.58819 0.0
H952 H 0.49129 0.38196 0.59439 0.0
H953 H 0.57473 0.36087 0.64164 0.0
H954 H 0.45376 0.29475 0.59723 0.0
H955 H 0.48194 0.29186 0.5719 0.0
H956 H 0.45892 0.33432 0.57722 0.0
H957 H 0.55318 0.26821 0.65674 0.0
H958 H 0.58752 0.30076 0.65607 0.0
H959 H 0.58248 0.26658 0.63205 0.0
C960 C 0.05333 0.83175 0.62584 0.0
C961 C 0.0351 0.85382 0.60946 0.0
C962 C 0.04789 0.79306 0.6272 0.0
C963 C 0.02448 0.77602 0.61122 0.0
C964 C 1.00654 0.79819 0.5943 0.0
C965 C 0.01169 0.83689 0.59391 0.0
C966 C 0.0669 0.77047 0.64589 0.0
C967 C 0.98223 0.78098 0.57639 0.0
C968 C 0.03679 0.67288 0.59843 0.0
C969 C 0.01142 0.65667 0.61254 0.0
C970 C 0.04081 0.71169 0.59744 0.0
C971 C 0.01962 0.73484 0.61156 0.0
C972 C 0.9939 0.71862 0.62589 0.0
C973 C 0.98974 0.67964 0.62588 0.0
C974 C 0.06776 0.72789 0.58127 0.0
C975 C 0.97135 0.74236 0.64166 0.0
H976 H 0.07115 0.8449 0.63806 0.0
H977 H 0.99769 0.85395 0.58114 0.0
H978 H 0.04924 0.75473 0.65765 0.0
H979 H 0.08294 0.74973 0.63646 0.0
H980 H 0.08287 0.7882 0.65781 0.0
H981 H 0.97072 0.80207 0.56412 0.0
H982 H 0.99517 0.75988 0.5649 0.0
H983 H 0.96211 0.76631 0.58646 0.0
H984 H 0.05341 0.6551 0.58794 0.0
H985 H 0.97031 0.66704 0.63696 0.0
H986 H 0.08628 0.74303 0.59265 0.0
H987 H 0.05681 0.74838 0.56833 0.0
H988 H 0.081 0.70612 0.57049 0.0
H989 H 0.9865 0.75867 0.65492 0.0
H990 H 0.95293 0.72541 0.65202 0.0
H991 H 0.95768 0.76267 0.6301 0.0
C992 C 0.9972 0.04068 0.93318 0.0
C993 C 0.97562 0.01039 0.92973 0.0
C994 C 1.00093 0.05711 0.95632 0.0
C995 C 0.98345 0.04194 0.97651 0.0
C996 C 0.96035 0.01251 0.97286 0.0
C997 C 0.95634 0.99737 0.9493 0.0
C998 C 0.02489 0.08929 0.95938 0.0
C999 C 0.94169 0.99526 -0.00593 0.0
C1000 C 0.02435 0.04704 0.03896 0.0
C1001 C 1.00401 0.073 0.05093 0.0
C1002 C 0.01816 0.03705 0.01452 0.0
C1003 C 0.99164 0.05435 0.00171 0.0
C1004 C 0.9723 0.08222 0.01331 0.0
C1005 C 0.9784 0.09082 0.03799 0.0
C1006 C 0.03901 0.00678 0.0028 0.0
C1007 C 0.94461 0.10213 -9e-05 0.0
H1008 H 0.0119 0.05082 0.91786 0.0
H1009 H 0.93988 0.97372 0.94654 0.0
H1010 H 0.01348 0.11173 0.97065 0.0
H1011 H 0.04754 0.07963 0.96916 0.0
H1012 H 0.03263 0.10121 0.94145 0.0
H1013 H 0.92308 0.97428 0.9879 0.0
H1014 H 0.95964 0.98138 0.00658 0.0
H1015 H 0.92866 0.01709 0.00486 0.0
H1016 H 0.04397 0.03308 0.04908 0.0
H1017 H 0.96284 0.11114 0.04728 0.0
H1018 H 0.05083 0.0173 0.98576 0.0
H1019 H 0.02283 0.98293 -0.00243 0.0
H1020 H 0.05888 0.99643 0.01523 0.0
H1021 H 0.95377 0.11296 0.98206 0.0
H1022 H 0.93431 0.12574 0.01075 0.0
H1023 H 0.92411 0.08227 -0.00412 0.0
C1024 C 0.4767 0.9439 0.9338 0.0
C1025 C 0.50436 0.96514 0.92655 0.0
C1026 C 0.46925 0.93884 0.95869 0.0
C1027 C 0.48954 0.95619 0.9766 0.0
C1028 C 0.51826 0.97639 0.96941 0.0
C1029 C 0.52556 0.98024 0.9444 0.0
C1030 C 0.43905 0.91611 0.96579 0.0
C1031 C 0.54032 0.99554 0.98804 0.0
C1032 C 0.45328 0.98213 0.03857 0.0
C1033 C 0.46892 0.95603 0.05371 0.0
C1034 C 0.45911 0.98196 0.01317 0.0
C1035 C 0.48031 0.95441 0.00288 0.0
C1036 C 0.49447 0.92667 0.01801 0.0
C1037 C 0.48895 0.92813 0.04333 0.0
C1038 C 0.44398 0.01228 -0.00245 0.0
C1039 C 0.5164 0.89627 0.00759 0.0
H1040 H 0.46038 0.93205 0.91997 0.0
H1041 H 0.54679 0.99695 0.93884 0.0
H1042 H 0.4458 0.89514 0.97989 0.0
H1043 H 0.41987 0.93463 0.97396 0.0
H1044 H 0.42789 0.90144 0.9498 0.0
H1045 H 0.56213 0.00945 0.97942 0.0
H1046 H 0.52569 0.01684 -0.00181 0.0
H1047 H 0.54953 0.97509 0.00169 0.0
H1048 H 0.4379 0.00373 0.0467 0.0
H1049 H 0.50068 0.90762 0.05511 0.0
H1050 H 0.4299 0.99987 0.98203 0.0
H1051 H 0.4641 0.02974 -0.01043 0.0
H1052 H 0.42694 0.03061 0.0082 0.0
H1053 H 0.50405 0.88267 -0.0083 0.0
H1054 H 0.52244 0.87458 0.02144 0.0
H1055 H 0.54008 0.90854 0.00085 0.0
C1056 C 0.51497 0.98893 0.52987 0.0
C1057 C 0.49413 0.01878 0.5361 0.0
C1058 C 0.51848 0.97756 0.50545 0.0
C1059 C 0.50151 0.99741 0.48685 0.0
C1060 C 0.47927 0.02658 0.49317 0.0
C1061 C 0.47547 0.03663 0.51791 0.0
C1062 C 0.54156 0.94553 0.49946 0.0
C1063 C 0.46121 0.04872 0.47375 0.0
C1064 C 0.54419 0.99856 0.42486 0.0
C1065 C 0.52434 0.97367 0.4115 0.0
C1066 C 0.53659 0.00707 0.44934 0.0
C1067 C 0.50906 0.98942 0.46078 0.0
C1068 C 0.48937 0.96365 0.4475 0.0
C1069 C 0.49702 0.95643 0.42288 0.0
C1070 C 0.5578 0.03519 0.46289 0.0
C1071 C 0.46048 0.94352 0.45936 0.0
H1072 H 0.52922 0.97509 0.54411 0.0
H1073 H 0.45963 0.05997 0.52285 0.0
H1074 H 0.52918 0.92554 0.48684 0.0
H1075 H 0.56407 0.95626 0.48998 0.0
H1076 H 0.54962 0.9303 0.51618 0.0
H1077 H 0.44298 0.0686 0.48178 0.0
H1078 H 0.47959 0.06472 0.46275 0.0
H1079 H 0.44788 0.0298 0.46096 0.0
H1080 H 0.56514 0.01209 0.41597 0.0
H1081 H 0.4818 0.93692 0.41256 0.0
H1082 H 0.57004 0.0217 0.47882 0.0
H1083 H 0.5419 0.058 0.47017 0.0
H1084 H 0.57739 0.04757 0.45101 0.0
H1085 H 0.46937 0.92757 0.47552 0.0
H1086 H 0.44793 0.92393 0.44651 0.0
H1087 H 0.44184 0.96395 0.4661 0.0
C1088 C 0.03193 0.03973 0.5303 0.0
C1089 C 0.05204 0.01191 0.5405 0.0
C1090 C 0.02979 0.04403 0.50482 0.0
C1091 C 0.04724 0.01895 0.48938 0.0
C1092 C 0.06918 0.99231 0.49965 0.0
C1093 C 0.07173 0.98952 0.52522 0.0
C1094 C 1.00718 0.07375 0.49447 0.0
C1095 C 0.08766 0.9646 0.48378 0.0
C1096 C 1.00464 0.99743 0.42899 0.0
C1097 C 0.02469 0.01704 0.41247 0.0
C1098 C 0.01226 0.99712 0.45408 0.0
C1099 C 0.03984 0.01806 0.46278 0.0
C1100 C 0.0599 0.03832 0.44615 0.0
C1101 C 0.05237 0.03706 0.42108 0.0
C1102 C 0.99082 0.9744 0.47128 0.0
C1103 C 0.08874 0.06195 0.4549 0.0
H1104 H 0.01681 0.05707 0.54224 0.0
H1105 H 0.08697 0.96771 0.53319 0.0
H1106 H 0.01962 0.08866 0.47917 0.0
H1107 H 0.9843 0.06057 0.48699 0.0
H1108 H 0.99968 0.09444 0.50864 0.0
H1109 H 0.10629 0.94837 0.4944 0.0
H1110 H 0.06955 0.94481 0.47551 0.0
H1111 H 0.1006 0.97893 0.46848 0.0
H1112 H 0.98331 0.98191 0.42222 0.0
H1113 H 0.0676 0.05267 0.40824 0.0
H1114 H 0.97811 0.9931 0.48455 0.0
H1115 H 1.0066 0.95494 0.48202 0.0
H1116 H 0.97158 0.95795 0.46135 0.0
H1117 H 0.07958 0.08358 0.46784 0.0
H1118 H 0.10189 0.07599 0.43952 0.0
H1119 H 0.10694 0.04454 0.46503 0.0
C1120 C 0.47375 0.50895 0.05356 0.0
C1121 C 0.50068 0.53162 0.06042 0.0
C1122 C 0.46982 0.49716 0.02925 0.0
C1123 C 0.49292 0.50917 0.01133 0.0
C1124 C 0.5195 0.53317 0.01796 0.0
C1125 C 0.52337 0.54371 0.0426 0.0
C1126 C 0.44171 0.47074 0.02296 0.0
C1127 C 0.54411 0.54717 -0.00087 0.0
C1128 C 0.5063 0.44828 0.95555 0.0
C1129 C 0.48602 0.46581 0.93815 0.0
C1130 C 0.50839 0.46191 0.97956 0.0
C1131 C 0.49052 0.49449 0.98601 0.0
C1132 C 0.47009 0.51246 0.96846 0.0
C1133 C 0.46766 0.49749 0.94472 0.0
C1134 C 0.52962 0.44136 -0.00199 0.0
C1135 C 0.45135 0.54777 0.97463 0.0
H1136 H 0.4563 0.49937 0.06739 0.0
H1137 H 0.544 0.56154 0.04789 0.0
H1138 H 0.42628 0.48241 0.00794 0.0
H1139 H 0.45211 0.44389 0.01628 0.0
H1140 H 0.42531 0.465 0.03895 0.0
H1141 H 0.56148 0.56827 0.00688 0.0
H1142 H 0.55898 0.5235 -0.00811 0.0
H1143 H 0.5307 0.55974 0.98337 0.0
H1144 H 0.52032 0.42361 0.9504 0.0
H1145 H 0.45228 0.5112 0.9311 0.0
H1146 H 0.51433 0.43349 0.01418 0.0
H1147 H 0.54992 0.45979 0.00468 0.0
H1148 H 0.54095 0.41568 -0.00981 0.0
H1149 H 0.43377 0.54261 -0.01003 0.0
H1150 H 0.43708 0.55868 0.95872 0.0
H1151 H 0.4691 0.56959 0.98087 0.0
C1152 C 0.97725 0.51136 0.05562 0.0
C1153 C 0.99575 0.49107 0.07276 0.0
C1154 C 0.98552 0.5101 0.03062 0.0
C1155 C 0.01221 0.48715 0.02269 0.0
C1156 C 0.03054 0.46611 0.03991 0.0
C1157 C 0.02235 0.46872 0.0648 0.0
C1158 C 0.96588 0.53351 0.01272 0.0
C1159 C 0.0585 0.44054 0.03201 0.0
C1160 C 1.0091 0.46235 0.95527 0.0
C1161 C 0.03164 0.48816 0.94543 0.0
C1162 C 1.00388 0.46025 0.98065 0.0
C1163 C 0.02095 0.48531 -0.00368 0.0
C1164 C 0.04499 0.51011 0.98658 0.0
C1165 C 0.0504 0.51087 0.96118 0.0
C1166 C 0.97891 0.43253 -0.00947 0.0
C1167 C 0.06333 0.53758 0.00273 0.0
H1168 H 0.95673 0.52865 0.06182 0.0
H1169 H 0.03639 0.45254 0.07804 0.0
H1170 H 0.98295 0.55222 0.00245 0.0
H1171 H 0.95338 0.51524 -0.00092 0.0
H1172 H 0.94663 0.5508 0.02198 0.0
H1173 H 0.0698 0.42544 0.04773 0.0
H1174 H 0.04904 0.41973 0.01861 0.0
H1175 H 0.0783 0.45679 0.02267 0.0
H1176 H 0.9947 0.4447 0.94304 0.0
H1177 H 0.06758 0.53113 0.95355 0.0
H1178 H 0.95657 0.44756 -0.00265 0.0
H1179 H 0.98963 0.41702 0.00626 0.0
H1180 H 0.97084 0.41216 0.97633 0.0
H1181 H 0.04531 0.55785 0.01058 0.0
H1182 H 0.08274 0.55328 -0.0075 0.0
H1183 H 0.07533 0.52301 0.01833 0.0
C1184 C 0.03926 0.46079 0.54491 0.0
C1185 C 0.01411 0.48682 0.54993 0.0
C1186 C 0.04432 0.44738 0.52106 0.0
C1187 C 0.0243 0.46122 0.50178 0.0
C1188 C 0.99799 0.4864 0.50691 0.0
C1189 C 0.99292 0.49857 0.53109 0.0
C1190 C 0.07192 0.41964 0.51636 0.0
C1191 C 0.97644 0.50212 0.4867 0.0
C1192 C 0.06115 0.46505 0.43786 0.0
C1193 C 0.0434 0.4366 0.42607 0.0
C1194 C 0.0555 0.47302 0.46271 0.0
C1195 C 0.0322 0.45131 0.47605 0.0
C1196 C 0.01561 0.42122 0.46452 0.0
C1197 C 0.02109 0.41452 0.43953 0.0
C1198 C 0.07332 0.50568 0.47437 0.0
C1199 C 0.99139 0.39683 0.4784 0.0
H1200 H 0.05547 0.45149 0.5596 0.0
H1201 H 0.97364 0.51893 0.535 0.0
H1202 H 0.06258 0.39597 0.50515 0.0
H1203 H 0.09221 0.43323 0.50581 0.0
H1204 H 0.08258 0.40849 0.53367 0.0
H1205 H 0.95611 0.52009 0.49392 0.0
H1206 H 0.99204 0.51894 0.47403 0.0
H1207 H 0.9652 0.47921 0.47577 0.0
H1208 H 0.07821 0.48228 0.42738 0.0
H1209 H 1.00756 0.39228 0.43039 0.0
H1210 H 0.08718 0.49642 0.49087 0.0
H1211 H 0.05483 0.52677 0.48048 0.0
H1212 H 0.09112 0.51928 0.46157 0.0
H1213 H 1.003 0.38647 0.49556 0.0
H1214 H 0.98298 0.3725 0.46734 0.0
H1215 H 0.96917 0.41338 0.48372 0.0
C1216 C 0.56566 0.51754 0.53601 0.0
C1217 C 0.54616 0.53695 0.55308 0.0
C1218 C 0.56079 0.52258 0.51079 0.0
C1219 C 0.53655 0.54843 0.50266 0.0
C1220 C 0.51879 0.57034 0.51986 0.0
C1221 C 0.52346 0.56391 0.54497 0.0
C1222 C 0.57982 0.4983 0.49294 0.0
C1223 C 0.49363 0.59911 0.51179 0.0
C1224 C 0.53989 0.57266 0.43523 0.0
C1225 C 0.51452 0.54991 0.42575 0.0
C1226 C 0.54653 0.5736 0.46043 0.0
C1227 C 0.528 0.55032 0.47629 0.0
C1228 C 0.50207 0.52759 0.46682 0.0
C1229 C 0.49527 0.52812 0.44159 0.0
C1230 C 0.57359 0.59905 0.47002 0.0
C1231 C 0.48225 0.50186 0.4832 0.0
H1232 H 0.583 0.49643 0.5423 0.0
H1233 H 0.50852 0.57905 0.55826 0.0
H1234 H 0.56224 0.47921 0.48344 0.0
H1235 H 0.59198 0.51563 0.47868 0.0
H1236 H 0.59921 0.48125 0.50219 0.0
H1237 H 0.48551 0.61726 0.52723 0.0
H1238 H 0.50417 0.61692 0.49707 0.0
H1239 H 0.47135 0.5849 0.50415 0.0
H1240 H 0.55447 0.58991 0.42291 0.0
H1241 H 0.47576 0.51048 0.43414 0.0
H1242 H 0.5943 0.58221 0.47766 0.0
H1243 H 0.56377 0.61666 0.48516 0.0
H1244 H 0.5838 0.61753 0.4555 0.0
H1245 H 0.49925 0.48171 0.49225 0.0
H1246 H 0.46298 0.48599 0.47291 0.0
H1247 H 0.46979 0.5181 0.49792 0.0
loop_
_geom_bond_atom_site_label_1
_geom_bond_atom_site_label_2
_geom_bond_distance
_geom_bond_site_symmetry_2
_ccdc_geom_bond_type
Zn0 O3 2.031 1_655 S
Zn0 O5 2.049 . S
Zn0 O10 2.067 1_655 S
Zn1 O2 1.962 . S
Zn1 O4 1.986 . S
Zn1 O6 1.996 . S
Zn1 O9 1.943 . S
O2 Zn1 1.962 . S
O2 C7 1.254 . S
O3 Zn0 2.031 1_455 S
O3 C7 1.269 . S
O4 Zn1 1.986 . S
O4 C11 1.262 . S
O5 Zn0 2.049 . S
O5 C13 1.260 1_655 S
O6 Zn1 1.996 . S
O6 C13 1.257 . S
C7 O2 1.254 . S
C7 O3 1.269 . S
C8 O9 1.249 . S
C8 O10 1.270 . S
O9 Zn1 1.943 . S
O9 C8 1.249 . S
O10 Zn0 2.067 1_455 S
O10 C8 1.270 . S
C11 O4 1.262 . S
C11 O12 1.232 . S
O12 C11 1.232 . S
C13 O5 1.260 1_455 S
C13 O6 1.257 . S
Zn14 O17 2.031 . S
Zn14 O19 2.049 . S
Zn14 O24 2.067 . S
Zn15 O16 1.962 . S
Zn15 O18 1.986 . S
Zn15 O20 1.996 . S
Zn15 O23 1.943 . S
O16 Zn15 1.962 . S
O16 C21 1.254 . S
O17 Zn14 2.031 . S
O17 C21 1.269 . S
O18 Zn15 1.986 . S
O18 C25 1.262 . S
O19 Zn14 2.049 . S
O19 C27 1.260 . S
O20 Zn15 1.996 . S
O20 C27 1.257 . S
C21 O16 1.254 . S
C21 O17 1.269 . S
C22 O23 1.249 . S
C22 O24 1.270 . S
O23 Zn15 1.943 . S
O23 C22 1.249 . S
O24 Zn14 2.067 . S
O24 C22 1.270 . S
C25 O18 1.262 . S
C25 O26 1.232 . S
O26 C25 1.232 . S
C27 O19 1.260 . S
C27 O20 1.257 . S
Zn28 O31 2.031 . S
Zn28 O33 2.049 . S
Zn28 O38 2.067 . S
Zn29 O30 1.962 . S
Zn29 O32 1.986 . S
Zn29 O34 1.996 . S
Zn29 O37 1.943 . S
O30 Zn29 1.962 . S
O30 C35 1.254 . S
O31 Zn28 2.031 . S
O31 C35 1.269 . S
O32 Zn29 1.986 . S
O32 C39 1.262 . S
O33 Zn28 2.049 . S
O33 C41 1.260 . S
O34 Zn29 1.996 . S
O34 C41 1.257 . S
C35 O30 1.254 . S
C35 O31 1.269 . S
C36 O37 1.249 . S
C36 O38 1.270 . S
O37 Zn29 1.943 . S
O37 C36 1.249 . S
O38 Zn28 2.067 . S
O38 C36 1.270 . S
C39 O32 1.262 . S
C39 O40 1.232 . S
O40 C39 1.232 . S
C41 O33 1.260 . S
C41 O34 1.257 . S
Zn42 O45 2.031 1_455 S
Zn42 O47 2.049 . S
Zn42 O52 2.067 1_455 S
Zn43 O44 1.962 . S
Zn43 O46 1.986 . S
Zn43 O48 1.996 . S
Zn43 O51 1.943 . S
O44 Zn43 1.962 . S
O44 C49 1.254 . S
O45 Zn42 2.031 1_655 S
O45 C49 1.269 . S
O46 Zn43 1.986 . S
O46 C53 1.262 . S
O47 Zn42 2.049 . S
O47 C55 1.260 1_455 S
O48 Zn43 1.996 . S
O48 C55 1.257 . S
C49 O44 1.254 . S
C49 O45 1.269 . S
C50 O51 1.249 . S
C50 O52 1.270 . S
O51 Zn43 1.943 . S
O51 C50 1.249 . S
O52 Zn42 2.067 1_655 S
O52 C50 1.270 . S
C53 O46 1.262 . S
C53 O54 1.232 . S
O54 C53 1.232 . S
C55 O47 1.260 1_655 S
C55 O48 1.257 . S
Zn56 O59 2.031 1_455 S
Zn56 O61 2.049 . S
Zn56 O66 2.067 1_455 S
Zn57 O58 1.962 . S
Zn57 O60 1.986 . S
Zn57 O62 1.996 . S
Zn57 O65 1.943 . S
O58 Zn57 1.962 . S
O58 C63 1.254 . S
O59 Zn56 2.031 1_655 S
O59 C63 1.269 . S
O60 Zn57 1.986 . S
O60 C67 1.262 . S
O61 Zn56 2.049 . S
O61 C69 1.260 1_455 S
O62 Zn57 1.996 . S
O62 C69 1.257 . S
C63 O58 1.254 . S
C63 O59 1.269 . S
C64 O65 1.249 . S
C64 O66 1.270 . S
O65 Zn57 1.943 . S
O65 C64 1.249 . S
O66 Zn56 2.067 1_655 S
O66 C64 1.270 . S
C67 O60 1.262 . S
C67 O68 1.232 . S
O68 C67 1.232 . S
C69 O61 1.260 1_655 S
C69 O62 1.257 . S
Zn70 O73 2.031 . S
Zn70 O75 2.049 . S
Zn70 O80 2.067 . S
Zn71 O72 1.962 . S
Zn71 O74 1.986 . S
Zn71 O76 1.996 . S
Zn71 O79 1.943 . S
O72 Zn71 1.962 . S
O72 C77 1.254 . S
O73 Zn70 2.031 . S
O73 C77 1.269 . S
O74 Zn71 1.986 . S
O74 C81 1.262 . S
O75 Zn70 2.049 . S
O75 C83 1.260 . S
O76 Zn71 1.996 . S
O76 C83 1.257 . S
C77 O72 1.254 . S
C77 O73 1.269 . S
C78 O79 1.249 . S
C78 O80 1.270 . S
O79 Zn71 1.943 . S
O79 C78 1.249 . S
O80 Zn70 2.067 . S
O80 C78 1.270 . S
C81 O74 1.262 . S
C81 O82 1.232 . S
O82 C81 1.232 . S
C83 O75 1.260 . S
C83 O76 1.257 . S
Zn84 O87 2.031 . S
Zn84 O89 2.049 . S
Zn84 O94 2.067 . S
Zn85 O86 1.962 . S
Zn85 O88 1.986 . S
Zn85 O90 1.996 . S
Zn85 O93 1.943 . S
O86 Zn85 1.962 . S
O86 C91 1.254 . S
O87 Zn84 2.031 . S
O87 C91 1.269 . S
O88 Zn85 1.986 . S
O88 C95 1.262 . S
O89 Zn84 2.049 . S
O89 C97 1.260 . S
O90 Zn85 1.996 . S
O90 C97 1.257 . S
C91 O86 1.254 . S
C91 O87 1.269 . S
C92 O93 1.249 . S
C92 O94 1.270 . S
O93 Zn85 1.943 . S
O93 C92 1.249 . S
O94 Zn84 2.067 . S
O94 C92 1.270 . S
C95 O88 1.262 . S
C95 O96 1.232 . S
O96 C95 1.232 . S
C97 O89 1.260 . S
C97 O90 1.257 . S
Zn98 O101 2.031 1_655 S
Zn98 O103 2.049 . S
Zn98 O108 2.067 1_655 S
Zn99 O100 1.962 . S
Zn99 O102 1.986 . S
Zn99 O104 1.996 . S
Zn99 O107 1.943 . S
O100 Zn99 1.962 . S
O100 C105 1.254 . S
O101 Zn98 2.031 1_455 S
O101 C105 1.269 . S
O102 Zn99 1.986 . S
O102 C109 1.262 . S
O103 Zn98 2.049 . S
O103 C111 1.260 1_655 S
O104 Zn99 1.996 . S
O104 C111 1.257 . S
C105 O100 1.254 . S
C105 O101 1.269 . S
C106 O107 1.249 . S
C106 O108 1.270 . S
O107 Zn99 1.943 . S
O107 C106 1.249 . S
O108 Zn98 2.067 1_455 S
O108 C106 1.270 . S
C109 O102 1.262 . S
C109 O110 1.232 . S
O110 C109 1.232 . S
C111 O103 1.260 1_455 S
C111 O104 1.257 . S
Zn112 O115 2.031 . S
Zn112 O117 2.049 . S
Zn112 O122 2.067 . S
Zn113 O114 1.962 . S
Zn113 O116 1.986 . S
Zn113 O118 1.996 . S
Zn113 O121 1.943 . S
O114 Zn113 1.962 . S
O114 C119 1.254 . S
O115 Zn112 2.031 . S
O115 C119 1.269 . S
O116 Zn113 1.986 . S
O116 C123 1.262 . S
O117 Zn112 2.049 . S
O117 C125 1.260 . S
O118 Zn113 1.996 . S
O118 C125 1.257 . S
C119 O114 1.254 . S
C119 O115 1.269 . S
C120 O121 1.249 . S
C120 O122 1.270 . S
O121 Zn113 1.943 . S
O121 C120 1.249 . S
O122 Zn112 2.067 . S
O122 C120 1.270 . S
C123 O116 1.262 . S
C123 O124 1.232 . S
O124 C123 1.232 . S
C125 O117 1.260 . S
C125 O118 1.257 . S
Zn126 O129 2.031 1_455 S
Zn126 O131 2.049 . S
Zn126 O136 2.067 1_455 S
Zn127 O128 1.962 . S
Zn127 O130 1.986 . S
Zn127 O132 1.996 . S
Zn127 O135 1.943 . S
O128 Zn127 1.962 . S
O128 C133 1.254 . S
O129 Zn126 2.031 1_655 S
O129 C133 1.269 . S
O130 Zn127 1.986 . S
O130 C137 1.262 . S
O131 Zn126 2.049 . S
O131 C139 1.260 1_455 S
O132 Zn127 1.996 . S
O132 C139 1.257 . S
C133 O128 1.254 . S
C133 O129 1.269 . S
C134 O135 1.249 . S
C134 O136 1.270 . S
O135 Zn127 1.943 . S
O135 C134 1.249 . S
O136 Zn126 2.067 1_655 S
O136 C134 1.270 . S
C137 O130 1.262 . S
C137 O138 1.232 . S
O138 C137 1.232 . S
C139 O131 1.260 1_655 S
C139 O132 1.257 . S
Zn140 O143 2.031 1_655 S
Zn140 O145 2.049 . S
Zn140 O150 2.067 1_655 S
Zn141 O142 1.962 . S
Zn141 O144 1.986 . S
Zn141 O146 1.996 . S
Zn141 O149 1.943 . S
O142 Zn141 1.962 . S
O142 C147 1.254 . S
O143 Zn140 2.031 1_455 S
O143 C147 1.269 . S
O144 Zn141 1.986 . S
O144 C151 1.262 . S
O145 Zn140 2.049 . S
O145 C153 1.260 1_655 S
O146 Zn141 1.996 . S
O146 C153 1.257 . S
C147 O142 1.254 . S
C147 O143 1.269 . S
C148 O149 1.249 . S
C148 O150 1.270 . S
O149 Zn141 1.943 . S
O149 C148 1.249 . S
O150 Zn140 2.067 1_455 S
O150 C148 1.270 . S
C151 O144 1.262 . S
C151 O152 1.232 . S
O152 C151 1.232 . S
C153 O145 1.260 1_455 S
C153 O146 1.257 . S
Zn154 O157 2.031 . S
Zn154 O159 2.049 . S
Zn154 O164 2.067 . S
Zn155 O156 1.962 . S
Zn155 O158 1.986 . S
Zn155 O160 1.996 . S
Zn155 O163 1.943 . S
O156 Zn155 1.962 . S
O156 C161 1.254 . S
O157 Zn154 2.031 . S
O157 C161 1.269 . S
O158 Zn155 1.986 . S
O158 C165 1.262 . S
O159 Zn154 2.049 . S
O159 C167 1.260 . S
O160 Zn155 1.996 . S
O160 C167 1.257 . S
C161 O156 1.254 . S
C161 O157 1.269 . S
C162 O163 1.249 . S
C162 O164 1.270 . S
O163 Zn155 1.943 . S
O163 C162 1.249 . S
O164 Zn154 2.067 . S
O164 C162 1.270 . S
C165 O158 1.262 . S
C165 O166 1.232 . S
O166 C165 1.232 . S
C167 O159 1.260 . S
C167 O160 1.257 . S
Zn168 O171 2.031 . S
Zn168 O173 2.049 . S
Zn168 O178 2.067 . S
Zn169 O170 1.962 . S
Zn169 O172 1.986 . S
Zn169 O174 1.996 . S
Zn169 O177 1.943 . S
O170 Zn169 1.962 . S
O170 C175 1.254 . S
O171 Zn168 2.031 . S
O171 C175 1.269 . S
O172 Zn169 1.986 . S
O172 C179 1.262 . S
O173 Zn168 2.049 . S
O173 C181 1.260 . S
O174 Zn169 1.996 . S
O174 C181 1.257 . S
C175 O170 1.254 . S
C175 O171 1.269 . S
C176 O177 1.249 . S
C176 O178 1.270 . S
O177 Zn169 1.943 . S
O177 C176 1.249 . S
O178 Zn168 2.067 . S
O178 C176 1.270 . S
C179 O172 1.262 . S
C179 O180 1.232 . S
O180 C179 1.232 . S
C181 O173 1.260 . S
C181 O174 1.257 . S
Zn182 O185 2.031 1_655 S
Zn182 O187 2.049 . S
Zn182 O192 2.067 1_655 S
Zn183 O184 1.962 . S
Zn183 O186 1.986 . S
Zn183 O188 1.996 . S
Zn183 O191 1.943 . S
O184 Zn183 1.962 . S
O184 C189 1.254 . S
O185 Zn182 2.031 1_455 S
O185 C189 1.269 . S
O186 Zn183 1.986 . S
O186 C193 1.262 . S
O187 Zn182 2.049 . S
O187 C195 1.260 1_655 S
O188 Zn183 1.996 . S
O188 C195 1.257 . S
C189 O184 1.254 . S
C189 O185 1.269 . S
C190 O191 1.249 . S
C190 O192 1.270 . S
O191 Zn183 1.943 . S
O191 C190 1.249 . S
O192 Zn182 2.067 1_455 S
O192 C190 1.270 . S
C193 O186 1.262 . S
C193 O194 1.232 . S
O194 C193 1.232 . S
C195 O187 1.260 1_455 S
C195 O188 1.257 . S
Zn196 O199 2.031 1_455 S
Zn196 O201 2.049 . S
Zn196 O206 2.067 1_455 S
Zn197 O198 1.962 . S
Zn197 O200 1.986 . S
Zn197 O202 1.996 . S
Zn197 O205 1.943 . S
O198 Zn197 1.962 . S
O198 C203 1.254 . S
O199 Zn196 2.031 1_655 S
O199 C203 1.269 . S
O200 Zn197 1.986 . S
O200 C207 1.262 . S
O201 Zn196 2.049 . S
O201 C209 1.260 1_455 S
O202 Zn197 1.996 . S
O202 C209 1.257 . S
C203 O198 1.254 . S
C203 O199 1.269 . S
C204 O205 1.249 . S
C204 O206 1.270 . S
O205 Zn197 1.943 . S
O205 C204 1.249 . S
O206 Zn196 2.067 1_655 S
O206 C204 1.270 . S
C207 O200 1.262 . S
C207 O208 1.232 . S
O208 C207 1.232 . S
C209 O201 1.260 1_655 S
C209 O202 1.257 . S
Zn210 O213 2.031 . S
Zn210 O215 2.049 . S
Zn210 O220 2.067 . S
Zn211 O212 1.962 . S
Zn211 O214 1.986 . S
Zn211 O216 1.996 . S
Zn211 O219 1.943 . S
O212 Zn211 1.962 . S
O212 C217 1.254 . S
O213 Zn210 2.031 . S
O213 C217 1.269 . S
O214 Zn211 1.986 . S
O214 C221 1.262 . S
O215 Zn210 2.049 . S
O215 C223 1.260 . S
O216 Zn211 1.996 . S
O216 C223 1.257 . S
C217 O212 1.254 . S
C217 O213 1.269 . S
C218 O219 1.249 . S
C218 O220 1.270 . S
O219 Zn211 1.943 . S
O219 C218 1.249 . S
O220 Zn210 2.067 . S
O220 C218 1.270 . S
C221 O214 1.262 . S
C221 O222 1.232 . S
O222 C221 1.232 . S
C223 O215 1.260 . S
C223 O216 1.257 . S
C224 C225 1.391 1_545 S
C224 C226 1.394 . S
C224 H240 0.931 . S
C225 C224 1.391 1_565 S
C225 C229 1.376 . S
C226 C224 1.394 . S
C226 C227 1.369 1_545 S
C226 C230 1.531 . S
C227 C226 1.369 1_565 S
C227 C228 1.410 . S
C227 C235 1.503 1_565 S
C228 C227 1.410 . S
C228 C229 1.392 . S
C228 C231 1.511 . S
C229 C225 1.376 . S
C229 C228 1.392 . S
C229 H241 0.929 . S
C230 C226 1.531 . S
C230 H242 0.960 . S
C230 H243 0.962 . S
C230 H244 0.960 . S
C231 C228 1.511 . S
C231 H245 0.961 . S
C231 H246 0.961 . S
C231 H247 0.961 . S
C232 C233 1.370 . S
C232 C234 1.363 . S
C232 H248 0.931 . S
C233 C232 1.370 . S
C233 C237 1.408 . S
C234 C232 1.363 . S
C234 C235 1.370 . S
C234 C238 1.524 1_545 S
C235 C227 1.503 1_545 S
C235 C234 1.370 . S
C235 C236 1.403 . S
C236 C235 1.403 . S
C236 C237 1.404 . S
C236 C239 1.539 . S
C237 C233 1.408 . S
C237 C236 1.404 . S
C237 H249 0.930 . S
C238 C234 1.524 1_565 S
C238 H250 0.956 1_565 S
C238 H251 0.961 . S
C238 H252 0.961 . S
C239 C236 1.539 . S
C239 H253 0.958 . S
C239 H254 0.961 . S
C239 H255 0.960 1_545 S
H240 C224 0.931 . S
H241 C229 0.929 . S
H242 C230 0.960 . S
H243 C230 0.962 . S
H244 C230 0.960 . S
H245 C231 0.961 . S
H246 C231 0.961 . S
H247 C231 0.961 . S
H248 C232 0.931 . S
H249 C237 0.930 . S
H250 C238 0.956 1_545 S
H251 C238 0.961 . S
H252 C238 0.961 . S
H253 C239 0.958 . S
H254 C239 0.961 . S
H255 C239 0.960 1_565 S
C256 C257 1.391 . S
C256 C258 1.394 . S
C256 H272 0.931 . S
C257 C256 1.391 . S
C257 C261 1.376 1_565 S
C258 C256 1.394 . S
C258 C259 1.369 . S
C258 C262 1.531 . S
C259 C258 1.369 . S
C259 C260 1.410 1_565 S
C259 C267 1.503 1_565 S
C260 C259 1.410 1_545 S
C260 C261 1.392 . S
C260 C263 1.511 . S
C261 C257 1.376 1_545 S
C261 C260 1.392 . S
C261 H273 0.929 . S
C262 C258 1.531 . S
C262 H274 0.960 . S
C262 H275 0.962 . S
C262 H276 0.960 . S
C263 C260 1.511 . S
C263 H277 0.961 . S
C263 H278 0.961 . S
C263 H279 0.961 . S
C264 C265 1.370 . S
C264 C266 1.363 . S
C264 H280 0.931 . S
C265 C264 1.370 . S
C265 C269 1.408 . S
C266 C264 1.363 . S
C266 C267 1.370 . S
C266 C270 1.524 . S
C267 C259 1.503 1_545 S
C267 C266 1.370 . S
C267 C268 1.403 . S
C268 C267 1.403 . S
C268 C269 1.404 . S
C268 C271 1.539 1_545 S
C269 C265 1.408 . S
C269 C268 1.404 . S
C269 H281 0.930 . S
C270 C266 1.524 . S
C270 H282 0.956 1_545 S
C270 H283 0.961 . S
C270 H284 0.961 . S
C271 C268 1.539 1_565 S
C271 H285 0.958 . S
C271 H286 0.961 1_565 S
C271 H287 0.960 . S
H272 C256 0.931 . S
H273 C261 0.929 . S
H274 C262 0.960 . S
H275 C262 0.962 . S
H276 C262 0.960 . S
H277 C263 0.961 . S
H278 C263 0.961 . S
H279 C263 0.961 . S
H280 C264 0.931 . S
H281 C269 0.930 . S
H282 C270 0.956 1_565 S
H283 C270 0.961 . S
H284 C270 0.961 . S
H285 C271 0.958 . S
H286 C271 0.961 1_545 S
H287 C271 0.960 . S
C288 C289 1.391 . S
C288 C290 1.394 1_565 S
C288 H304 0.931 1_565 S
C289 C288 1.391 . S
C289 C293 1.376 . S
C290 C288 1.394 1_545 S
C290 C291 1.369 1_545 S
C290 C294 1.531 . S
C291 C290 1.369 1_565 S
C291 C292 1.410 . S
C291 C299 1.503 1_565 S
C292 C291 1.410 . S
C292 C293 1.392 . S
C292 C295 1.511 . S
C293 C289 1.376 . S
C293 C292 1.392 . S
C293 H305 0.929 . S
C294 C290 1.531 . S
C294 H306 0.960 . S
C294 H307 0.962 . S
C294 H308 0.960 . S
C295 C292 1.511 . S
C295 H309 0.961 . S
C295 H310 0.961 . S
C295 H311 0.961 . S
C296 C297 1.370 . S
C296 C298 1.363 . S
C296 H312 0.931 . S
C297 C296 1.370 . S
C297 C301 1.408 . S
C298 C296 1.363 . S
C298 C299 1.370 . S
C298 C302 1.524 . S
C299 C291 1.503 1_545 S
C299 C298 1.370 . S
C299 C300 1.403 1_545 S
C300 C299 1.403 1_565 S
C300 C301 1.404 1_565 S
C300 C303 1.539 . S
C301 C297 1.408 . S
C301 C300 1.404 1_545 S
C301 H313 0.930 1_545 S
C302 C298 1.524 . S
C302 H314 0.956 . S
C302 H315 0.961 . S
C302 H316 0.961 . S
C303 C300 1.539 . S
C303 H317 0.958 . S
C303 H318 0.961 . S
C303 H319 0.960 . S
H304 C288 0.931 1_545 S
H305 C293 0.929 . S
H306 C294 0.960 . S
H307 C294 0.962 . S
H308 C294 0.960 . S
H309 C295 0.961 . S
H310 C295 0.961 . S
H311 C295 0.961 . S
H312 C296 0.931 . S
H313 C301 0.930 1_565 S
H314 C302 0.956 . S
H315 C302 0.961 . S
H316 C302 0.961 . S
H317 C303 0.958 . S
H318 C303 0.961 . S
H319 C303 0.960 . S
C320 C321 1.391 1_545 S
C320 C322 1.394 . S
C320 H336 0.931 . S
C321 C320 1.391 1_565 S
C321 C325 1.376 . S
C322 C320 1.394 . S
C322 C323 1.369 1_545 S
C322 C326 1.531 . S
C323 C322 1.369 1_565 S
C323 C324 1.410 . S
C323 C331 1.503 1_565 S
C324 C323 1.410 . S
C324 C325 1.392 . S
C324 C327 1.511 . S
C325 C321 1.376 . S
C325 C324 1.392 . S
C325 H337 0.929 . S
C326 C322 1.531 . S
C326 H338 0.960 . S
C326 H339 0.962 . S
C326 H340 0.960 . S
C327 C324 1.511 . S
C327 H341 0.961 . S
C327 H342 0.961 . S
C327 H343 0.961 . S
C328 C329 1.370 . S
C328 C330 1.363 1_545 S
C328 H344 0.929 1_545 S
C329 C328 1.370 . S
C329 C333 1.408 . S
C330 C328 1.363 1_565 S
C330 C331 1.370 1_565 S
C330 C334 1.524 . S
C331 C323 1.503 1_545 S
C331 C330 1.370 1_545 S
C331 C332 1.403 . S
C332 C331 1.403 . S
C332 C333 1.404 . S
C332 C335 1.539 . S
C333 C329 1.408 . S
C333 C332 1.404 . S
C333 H345 0.930 . S
C334 C330 1.524 . S
C334 H346 0.956 . S
C334 H347 0.961 . S
C334 H348 0.961 . S
C335 C332 1.539 . S
C335 H349 0.958 . S
C335 H350 0.961 . S
C335 H351 0.960 . S
H336 C320 0.931 . S
H337 C325 0.929 . S
H338 C326 0.960 . S
H339 C326 0.962 . S
H340 C326 0.960 . S
H341 C327 0.961 . S
H342 C327 0.961 . S
H343 C327 0.961 . S
H344 C328 0.929 1_565 S
H345 C333 0.930 . S
H346 C334 0.956 . S
H347 C334 0.961 . S
H348 C334 0.961 . S
H349 C335 0.958 . S
H350 C335 0.961 . S
H351 C335 0.960 . S
C352 C353 1.391 . S
C352 C354 1.394 . S
C352 H368 0.931 . S
C353 C352 1.391 . S
C353 C357 1.376 . S
C354 C352 1.394 . S
C354 C355 1.369 . S
C354 C358 1.531 . S
C355 C354 1.369 . S
C355 C356 1.410 . S
C355 C363 1.503 . S
C356 C355 1.410 . S
C356 C357 1.392 . S
C356 C359 1.511 . S
C357 C353 1.376 . S
C357 C356 1.392 . S
C357 H369 0.929 . S
C358 C354 1.531 . S
C358 H370 0.960 . S
C358 H371 0.962 . S
C358 H372 0.960 . S
C359 C356 1.511 . S
C359 H373 0.961 . S
C359 H374 0.961 . S
C359 H375 0.961 . S
C360 C361 1.370 . S
C360 C362 1.363 . S
C360 H376 0.931 . S
C361 C360 1.370 . S
C361 C365 1.408 . S
C362 C360 1.363 . S
C362 C363 1.370 . S
C362 C366 1.524 . S
C363 C355 1.503 . S
C363 C362 1.370 . S
C363 C364 1.403 . S
C364 C363 1.403 . S
C364 C365 1.404 . S
C364 C367 1.539 . S
C365 C361 1.408 . S
C365 C364 1.404 . S
C365 H377 0.930 . S
C366 C362 1.524 . S
C366 H378 0.956 . S
C366 H379 0.961 . S
C366 H380 0.961 . S
C367 C364 1.539 . S
C367 H381 0.958 . S
C367 H382 0.961 . S
C367 H383 0.960 . S
H368 C352 0.931 . S
H369 C357 0.929 . S
H370 C358 0.960 . S
H371 C358 0.962 . S
H372 C358 0.960 . S
H373 C359 0.961 . S
H374 C359 0.961 . S
H375 C359 0.961 . S
H376 C360 0.931 . S
H377 C365 0.930 . S
H378 C366 0.956 . S
H379 C366 0.961 . S
H380 C366 0.961 . S
H381 C367 0.958 . S
H382 C367 0.961 . S
H383 C367 0.960 . S
C384 C385 1.391 . S
C384 C386 1.394 . S
C384 H400 0.931 . S
C385 C384 1.391 . S
C385 C389 1.376 . S
C386 C384 1.394 . S
C386 C387 1.369 . S
C386 C390 1.531 . S
C387 C386 1.369 . S
C387 C388 1.410 . S
C387 C395 1.503 . S
C388 C387 1.410 . S
C388 C389 1.392 . S
C388 C391 1.511 . S
C389 C385 1.376 . S
C389 C388 1.392 . S
C389 H401 0.929 . S
C390 C386 1.531 . S
C390 H402 0.960 . S
C390 H403 0.962 . S
C390 H404 0.960 . S
C391 C388 1.511 . S
C391 H405 0.961 . S
C391 H406 0.961 . S
C391 H407 0.961 . S
C392 C393 1.370 . S
C392 C394 1.363 . S
C392 H408 0.931 . S
C393 C392 1.370 . S
C393 C397 1.408 . S
C394 C392 1.363 . S
C394 C395 1.370 . S
C394 C398 1.524 . S
C395 C387 1.503 . S
C395 C394 1.370 . S
C395 C396 1.403 . S
C396 C395 1.403 . S
C396 C397 1.404 . S
C396 C399 1.539 . S
C397 C393 1.408 . S
C397 C396 1.404 . S
C397 H409 0.930 . S
C398 C394 1.524 . S
C398 H410 0.956 . S
C398 H411 0.961 . S
C398 H412 0.961 . S
C399 C396 1.539 . S
C399 H413 0.958 . S
C399 H414 0.961 . S
C399 H415 0.960 . S
H400 C384 0.931 . S
H401 C389 0.929 . S
H402 C390 0.960 . S
H403 C390 0.962 . S
H404 C390 0.960 . S
H405 C391 0.961 . S
H406 C391 0.961 . S
H407 C391 0.961 . S
H408 C392 0.931 . S
H409 C397 0.930 . S
H410 C398 0.956 . S
H411 C398 0.961 . S
H412 C398 0.961 . S
H413 C399 0.958 . S
H414 C399 0.961 . S
H415 C399 0.960 . S
C416 C417 1.391 . S
C416 C418 1.394 . S
C416 H432 0.931 . S
C417 C416 1.391 . S
C417 C421 1.376 . S
C418 C416 1.394 . S
C418 C419 1.369 . S
C418 C422 1.531 . S
C419 C418 1.369 . S
C419 C420 1.410 . S
C419 C427 1.503 . S
C420 C419 1.410 . S
C420 C421 1.392 . S
C420 C423 1.511 . S
C421 C417 1.376 . S
C421 C420 1.392 . S
C421 H433 0.929 . S
C422 C418 1.531 . S
C422 H434 0.960 . S
C422 H435 0.962 . S
C422 H436 0.960 . S
C423 C420 1.511 . S
C423 H437 0.961 . S
C423 H438 0.961 . S
C423 H439 0.961 . S
C424 C425 1.370 . S
C424 C426 1.363 . S
C424 H440 0.931 . S
C425 C424 1.370 . S
C425 C429 1.408 . S
C426 C424 1.363 . S
C426 C427 1.370 . S
C426 C430 1.524 . S
C427 C419 1.503 . S
C427 C426 1.370 . S
C427 C428 1.403 . S
C428 C427 1.403 . S
C428 C429 1.404 . S
C428 C431 1.539 . S
C429 C425 1.408 . S
C429 C428 1.404 . S
C429 H441 0.930 . S
C430 C426 1.524 . S
C430 H442 0.956 . S
C430 H443 0.961 . S
C430 H444 0.961 . S
C431 C428 1.539 . S
C431 H445 0.958 . S
C431 H446 0.961 . S
C431 H447 0.960 . S
H432 C416 0.931 . S
H433 C421 0.929 . S
H434 C422 0.960 . S
H435 C422 0.962 . S
H436 C422 0.960 . S
H437 C423 0.961 . S
H438 C423 0.961 . S
H439 C423 0.961 . S
H440 C424 0.931 . S
H441 C429 0.930 . S
H442 C430 0.956 . S
H443 C430 0.961 . S
H444 C430 0.961 . S
H445 C431 0.958 . S
H446 C431 0.961 . S
H447 C431 0.960 . S
C448 C449 1.391 . S
C448 C450 1.394 . S
C448 H464 0.931 . S
C449 C448 1.391 . S
C449 C453 1.376 . S
C450 C448 1.394 . S
C450 C451 1.369 . S
C450 C454 1.531 . S
C451 C450 1.369 . S
C451 C452 1.410 . S
C451 C459 1.503 . S
C452 C451 1.410 . S
C452 C453 1.392 . S
C452 C455 1.511 . S
C453 C449 1.376 . S
C453 C452 1.392 . S
C453 H465 0.929 . S
C454 C450 1.531 . S
C454 H466 0.960 . S
C454 H467 0.962 . S
C454 H468 0.960 . S
C455 C452 1.511 . S
C455 H469 0.961 . S
C455 H470 0.961 . S
C455 H471 0.961 . S
C456 C457 1.370 . S
C456 C458 1.363 . S
C456 H472 0.931 . S
C457 C456 1.370 . S
C457 C461 1.408 . S
C458 C456 1.363 . S
C458 C459 1.370 . S
C458 C462 1.524 . S
C459 C451 1.503 . S
C459 C458 1.370 . S
C459 C460 1.403 . S
C460 C459 1.403 . S
C460 C461 1.404 . S
C460 C463 1.539 . S
C461 C457 1.408 . S
C461 C460 1.404 . S
C461 H473 0.930 . S
C462 C458 1.524 . S
C462 H474 0.956 . S
C462 H475 0.961 . S
C462 H476 0.961 . S
C463 C460 1.539 . S
C463 H477 0.958 . S
C463 H478 0.961 . S
C463 H479 0.960 . S
H464 C448 0.931 . S
H465 C453 0.929 . S
H466 C454 0.960 . S
H467 C454 0.962 . S
H468 C454 0.960 . S
H469 C455 0.961 . S
H470 C455 0.961 . S
H471 C455 0.961 . S
H472 C456 0.931 . S
H473 C461 0.930 . S
H474 C462 0.956 . S
H475 C462 0.961 . S
H476 C462 0.961 . S
H477 C463 0.958 . S
H478 C463 0.961 . S
H479 C463 0.960 . S
C480 C481 1.391 1_455 S
C480 C482 1.394 . S
C480 H496 0.931 . S
C481 C480 1.391 1_655 S
C481 C485 1.376 . S
C482 C480 1.394 . S
C482 C483 1.369 1_455 S
C482 C486 1.531 1_545 S
C483 C482 1.369 1_655 S
C483 C484 1.410 . S
C483 C491 1.503 1_655 S
C484 C483 1.410 . S
C484 C485 1.392 . S
C484 C487 1.511 . S
C485 C481 1.376 . S
C485 C484 1.392 . S
C485 H497 0.929 . S
C486 C482 1.531 1_565 S
C486 H498 0.960 . S
C486 H499 0.962 1_565 S
C486 H500 0.960 . S
C487 C484 1.511 . S
C487 H501 0.961 . S
C487 H502 0.961 . S
C487 H503 0.961 . S
C488 C489 1.370 . S
C488 C490 1.363 . S
C488 H504 0.931 . S
C489 C488 1.370 . S
C489 C493 1.408 . S
C490 C488 1.363 . S
C490 C491 1.370 . S
C490 C494 1.524 . S
C491 C483 1.503 1_455 S
C491 C490 1.370 . S
C491 C492 1.403 1_455 S
C492 C491 1.403 1_655 S
C492 C493 1.404 1_655 S
C492 C495 1.539 1_545 S
C493 C489 1.408 . S
C493 C492 1.404 1_455 S
C493 H505 0.930 1_445 S
C494 C490 1.524 . S
C494 H506 0.956 . S
C494 H507 0.961 . S
C494 H508 0.961 . S
C495 C492 1.539 1_565 S
C495 H509 0.958 . S
C495 H510 0.961 . S
C495 H511 0.960 . S
H496 C480 0.931 . S
H497 C485 0.929 . S
H498 C486 0.960 . S
H499 C486 0.962 1_545 S
H500 C486 0.960 . S
H501 C487 0.961 . S
H502 C487 0.961 . S
H503 C487 0.961 . S
H504 C488 0.931 . S
H505 C493 0.930 1_665 S
H506 C494 0.956 . S
H507 C494 0.961 . S
H508 C494 0.961 . S
H509 C495 0.958 . S
H510 C495 0.961 . S
H511 C495 0.960 . S
C512 C513 1.391 . S
C512 C514 1.394 . S
C512 H528 0.931 . S
C513 C512 1.391 . S
C513 C517 1.376 . S
C514 C512 1.394 . S
C514 C515 1.369 . S
C514 C518 1.531 . S
C515 C514 1.369 . S
C515 C516 1.410 . S
C515 C523 1.503 . S
C516 C515 1.410 . S
C516 C517 1.392 . S
C516 C519 1.511 . S
C517 C513 1.376 . S
C517 C516 1.392 . S
C517 H529 0.929 . S
C518 C514 1.531 . S
C518 H530 0.960 . S
C518 H531 0.962 . S
C518 H532 0.960 . S
C519 C516 1.511 . S
C519 H533 0.960 1_565 S
C519 H534 0.961 . S
C519 H535 0.961 . S
C520 C521 1.370 . S
C520 C522 1.363 . S
C520 H536 0.931 1_565 S
C521 C520 1.370 . S
C521 C525 1.408 . S
C522 C520 1.363 . S
C522 C523 1.370 . S
C522 C526 1.524 1_565 S
C523 C515 1.503 . S
C523 C522 1.370 . S
C523 C524 1.403 . S
C524 C523 1.403 . S
C524 C525 1.404 . S
C524 C527 1.539 . S
C525 C521 1.408 . S
C525 C524 1.404 . S
C525 H537 0.930 . S
C526 C522 1.524 1_545 S
C526 H538 0.956 . S
C526 H539 0.961 . S
C526 H540 0.961 . S
C527 C524 1.539 . S
C527 H541 0.958 . S
C527 H542 0.961 . S
C527 H543 0.960 . S
H528 C512 0.931 . S
H529 C517 0.929 . S
H530 C518 0.960 . S
H531 C518 0.962 . S
H532 C518 0.960 . S
H533 C519 0.960 1_545 S
H534 C519 0.961 . S
H535 C519 0.961 . S
H536 C520 0.931 1_545 S
H537 C525 0.930 . S
H538 C526 0.956 . S
H539 C526 0.961 . S
H540 C526 0.961 . S
H541 C527 0.958 . S
H542 C527 0.961 . S
H543 C527 0.960 . S
C544 C545 1.391 . S
C544 C546 1.394 . S
C544 H560 0.932 1_565 S
C545 C544 1.391 . S
C545 C549 1.376 1_455 S
C546 C544 1.394 . S
C546 C547 1.387 . S
C546 C550 1.531 1_565 S
C547 C546 1.387 . S
C547 C548 1.399 1_455 S
C547 C555 1.498 1_455 S
C548 C547 1.399 1_655 S
C548 C549 1.392 . S
C548 C551 1.511 . S
C549 C545 1.376 1_655 S
C549 C548 1.392 . S
C549 H561 0.929 . S
C550 C546 1.531 1_545 S
C550 H562 0.960 . S
C550 H563 0.955 1_545 S
C550 H564 0.960 . S
C551 C548 1.511 . S
C551 H565 0.961 . S
C551 H566 0.961 . S
C551 H567 0.961 . S
C552 C553 1.370 . S
C552 C554 1.363 1_655 S
C552 H568 0.931 1_655 S
C553 C552 1.370 . S
C553 C557 1.408 . S
C554 C552 1.363 1_455 S
C554 C555 1.370 1_455 S
C554 C558 1.524 . S
C555 C547 1.498 1_655 S
C555 C554 1.370 1_655 S
C555 C556 1.403 . S
C556 C555 1.403 . S
C556 C557 1.404 . S
C556 C559 1.539 1_565 S
C557 C553 1.408 . S
C557 C556 1.404 . S
C557 H569 0.930 1_565 S
C558 C554 1.524 . S
C558 H570 0.956 . S
C558 H571 0.961 . S
C558 H572 0.961 . S
C559 C556 1.539 1_545 S
C559 H573 0.958 . S
C559 H574 0.961 . S
C559 H575 0.960 . S
H560 C544 0.932 1_545 S
H561 C549 0.929 . S
H562 C550 0.960 . S
H563 C550 0.955 1_565 S
H564 C550 0.960 . S
H565 C551 0.961 . S
H566 C551 0.961 . S
H567 C551 0.961 . S
H568 C552 0.931 1_455 S
H569 C557 0.930 1_545 S
H570 C558 0.956 . S
H571 C558 0.961 . S
H572 C558 0.961 . S
H573 C559 0.958 . S
H574 C559 0.961 . S
H575 C559 0.960 . S
C576 C577 1.391 . S
C576 C578 1.394 . S
C576 H592 0.931 . S
C577 C576 1.391 . S
C577 C581 1.376 . S
C578 C576 1.394 . S
C578 C579 1.369 . S
C578 C582 1.531 . S
C579 C578 1.369 . S
C579 C580 1.410 . S
C579 C587 1.503 . S
C580 C579 1.410 . S
C580 C581 1.392 . S
C580 C583 1.511 . S
C581 C577 1.376 . S
C581 C580 1.392 . S
C581 H593 0.929 . S
C582 C578 1.531 . S
C582 H594 0.960 . S
C582 H595 0.962 . S
C582 H596 0.960 . S
C583 C580 1.511 . S
C583 H597 0.961 . S
C583 H598 0.961 . S
C583 H599 0.961 . S
C584 C585 1.370 . S
C584 C586 1.363 . S
C584 H600 0.931 1_545 S
C585 C584 1.370 . S
C585 C589 1.408 . S
C586 C584 1.363 . S
C586 C587 1.370 . S
C586 C590 1.524 1_545 S
C587 C579 1.503 . S
C587 C586 1.370 . S
C587 C588 1.403 . S
C588 C587 1.403 . S
C588 C589 1.404 . S
C588 C591 1.539 . S
C589 C585 1.408 . S
C589 C588 1.404 . S
C589 H601 0.930 . S
C590 C586 1.524 1_565 S
C590 H602 0.956 . S
C590 H603 0.961 . S
C590 H604 0.961 . S
C591 C588 1.539 . S
C591 H605 0.958 . S
C591 H606 0.961 . S
C591 H607 0.960 . S
H592 C576 0.931 . S
H593 C581 0.929 . S
H594 C582 0.960 . S
H595 C582 0.962 . S
H596 C582 0.960 . S
H597 C583 0.961 . S
H598 C583 0.961 . S
H599 C583 0.961 . S
H600 C584 0.931 1_565 S
H601 C589 0.930 . S
H602 C590 0.956 . S
H603 C590 0.961 . S
H604 C590 0.961 . S
H605 C591 0.958 . S
H606 C591 0.961 . S
H607 C591 0.960 . S
C608 C609 1.391 . S
C608 C610 1.394 . S
C608 H624 0.931 . S
C609 C608 1.391 . S
C609 C613 1.376 . S
C610 C608 1.394 . S
C610 C611 1.369 . S
C610 C614 1.531 . S
C611 C610 1.369 . S
C611 C612 1.410 . S
C611 C619 1.503 . S
C612 C611 1.410 . S
C612 C613 1.392 . S
C612 C615 1.511 . S
C613 C609 1.376 . S
C613 C612 1.392 . S
C613 H625 0.929 . S
C614 C610 1.531 . S
C614 H626 0.960 . S
C614 H627 0.962 . S
C614 H628 0.960 . S
C615 C612 1.511 . S
C615 H629 0.961 . S
C615 H630 0.961 . S
C615 H631 0.961 . S
C616 C617 1.370 . S
C616 C618 1.363 . S
C616 H632 0.931 . S
C617 C616 1.370 . S
C617 C621 1.408 . S
C618 C616 1.363 . S
C618 C619 1.370 . S
C618 C622 1.524 . S
C619 C611 1.503 . S
C619 C618 1.370 . S
C619 C620 1.403 . S
C620 C619 1.403 . S
C620 C621 1.404 . S
C620 C623 1.539 . S
C621 C617 1.408 . S
C621 C620 1.404 . S
C621 H633 0.930 . S
C622 C618 1.524 . S
C622 H634 0.956 . S
C622 H635 0.961 . S
C622 H636 0.961 . S
C623 C620 1.539 . S
C623 H637 0.958 . S
C623 H638 0.961 . S
C623 H639 0.960 . S
H624 C608 0.931 . S
H625 C613 0.929 . S
H626 C614 0.960 . S
H627 C614 0.962 . S
H628 C614 0.960 . S
H629 C615 0.961 . S
H630 C615 0.961 . S
H631 C615 0.961 . S
H632 C616 0.931 . S
H633 C621 0.930 . S
H634 C622 0.956 . S
H635 C622 0.961 . S
H636 C622 0.961 . S
H637 C623 0.958 . S
H638 C623 0.961 . S
H639 C623 0.960 . S
C640 C641 1.391 . S
C640 C642 1.392 1_455 S
C640 H656 0.930 . S
C641 C640 1.391 . S
C641 C645 1.376 . S
C642 C640 1.392 1_655 S
C642 C643 1.367 1_655 S
C642 C646 1.534 . S
C643 C642 1.367 1_455 S
C643 C644 1.410 . S
C643 C651 1.493 1_455 S
C644 C643 1.410 . S
C644 C645 1.392 . S
C644 C647 1.511 . S
C645 C641 1.376 . S
C645 C644 1.392 . S
C645 H657 0.929 . S
C646 C642 1.534 . S
C646 H658 0.960 . S
C646 H659 0.962 . S
C646 H660 0.960 . S
C647 C644 1.511 . S
C647 H661 0.961 . S
C647 H662 0.961 . S
C647 H663 0.961 . S
C648 C649 1.370 . S
C648 C650 1.363 . S
C648 H664 0.931 . S
C649 C648 1.370 . S
C649 C653 1.408 1_655 S
C650 C648 1.363 . S
C650 C651 1.397 . S
C650 C654 1.524 . S
C651 C643 1.493 1_655 S
C651 C650 1.397 . S
C651 C652 1.387 1_655 S
C652 C651 1.387 1_455 S
C652 C653 1.404 . S
C652 C655 1.539 . S
C653 C649 1.408 1_455 S
C653 C652 1.404 . S
C653 H665 0.930 . S
C654 C650 1.524 . S
C654 H666 0.956 . S
C654 H667 0.961 . S
C654 H668 0.961 . S
C655 C652 1.539 . S
C655 H669 0.958 . S
C655 H670 0.961 . S
C655 H671 0.960 . S
H656 C640 0.930 . S
H657 C645 0.929 . S
H658 C646 0.960 . S
H659 C646 0.962 . S
H660 C646 0.960 . S
H661 C647 0.961 . S
H662 C647 0.961 . S
H663 C647 0.961 . S
H664 C648 0.931 . S
H665 C653 0.930 . S
H666 C654 0.956 . S
H667 C654 0.961 . S
H668 C654 0.961 . S
H669 C655 0.958 . S
H670 C655 0.961 . S
H671 C655 0.960 . S
C672 C673 1.391 . S
C672 C674 1.394 . S
C672 H688 0.931 . S
C673 C672 1.391 . S
C673 C677 1.376 . S
C674 C672 1.394 . S
C674 C675 1.369 . S
C674 C678 1.531 . S
C675 C674 1.369 . S
C675 C676 1.410 . S
C675 C683 1.503 . S
C676 C675 1.410 . S
C676 C677 1.392 . S
C676 C679 1.511 . S
C677 C673 1.376 . S
C677 C676 1.392 . S
C677 H689 0.929 . S
C678 C674 1.531 . S
C678 H690 0.960 . S
C678 H691 0.962 . S
C678 H692 0.960 . S
C679 C676 1.511 . S
C679 H693 0.961 . S
C679 H694 0.961 . S
C679 H695 0.961 . S
C680 C681 1.370 . S
C680 C682 1.363 . S
C680 H696 0.931 . S
C681 C680 1.370 . S
C681 C685 1.408 . S
C682 C680 1.363 . S
C682 C683 1.370 . S
C682 C686 1.524 . S
C683 C675 1.503 . S
C683 C682 1.370 . S
C683 C684 1.403 . S
C684 C683 1.403 . S
C684 C685 1.404 . S
C684 C687 1.539 . S
C685 C681 1.408 . S
C685 C684 1.404 . S
C685 H697 0.930 . S
C686 C682 1.524 . S
C686 H698 0.956 . S
C686 H699 0.961 . S
C686 H700 0.961 . S
C687 C684 1.539 . S
C687 H701 0.958 . S
C687 H702 0.961 . S
C687 H703 0.960 . S
H688 C672 0.931 . S
H689 C677 0.929 . S
H690 C678 0.960 . S
H691 C678 0.962 . S
H692 C678 0.960 . S
H693 C679 0.961 . S
H694 C679 0.961 . S
H695 C679 0.961 . S
H696 C680 0.931 . S
H697 C685 0.930 . S
H698 C686 0.956 . S
H699 C686 0.961 . S
H700 C686 0.961 . S
H701 C687 0.958 . S
H702 C687 0.961 . S
H703 C687 0.960 . S
C704 C705 1.391 1_655 S
C704 C706 1.394 . S
C704 H720 0.931 . S
C705 C704 1.391 1_455 S
C705 C709 1.376 . S
C706 C704 1.394 . S
C706 C707 1.369 1_655 S
C706 C710 1.531 . S
C707 C706 1.369 1_455 S
C707 C708 1.410 . S
C707 C715 1.503 1_455 S
C708 C707 1.410 . S
C708 C709 1.392 . S
C708 C711 1.511 . S
C709 C705 1.376 . S
C709 C708 1.392 . S
C709 H721 0.929 . S
C710 C706 1.531 . S
C710 H722 0.960 . S
C710 H723 0.962 . S
C710 H724 0.960 . S
C711 C708 1.511 . S
C711 H725 0.961 . S
C711 H726 0.961 . S
C711 H727 0.961 . S
C712 C713 1.370 . S
C712 C714 1.363 . S
C712 H728 0.931 . S
C713 C712 1.370 . S
C713 C717 1.408 . S
C714 C712 1.363 . S
C714 C715 1.370 . S
C714 C718 1.524 . S
C715 C707 1.503 1_655 S
C715 C714 1.370 . S
C715 C716 1.403 1_655 S
C716 C715 1.403 1_455 S
C716 C717 1.404 1_455 S
C716 C719 1.539 . S
C717 C713 1.408 . S
C717 C716 1.404 1_655 S
C717 H729 0.930 1_655 S
C718 C714 1.524 . S
C718 H730 0.956 . S
C718 H731 0.961 . S
C718 H732 0.961 . S
C719 C716 1.539 . S
C719 H733 0.958 . S
C719 H734 0.961 . S
C719 H735 0.960 . S
H720 C704 0.931 . S
H721 C709 0.929 . S
H722 C710 0.960 . S
H723 C710 0.962 . S
H724 C710 0.960 . S
H725 C711 0.961 . S
H726 C711 0.961 . S
H727 C711 0.961 . S
H728 C712 0.931 . S
H729 C717 0.930 1_455 S
H730 C718 0.956 . S
H731 C718 0.961 . S
H732 C718 0.961 . S
H733 C719 0.958 . S
H734 C719 0.961 . S
H735 C719 0.960 . S
C736 C737 1.391 . S
C736 C738 1.394 1_455 S
C736 H752 0.931 1_455 S
C737 C736 1.391 . S
C737 C741 1.376 . S
C738 C736 1.394 1_655 S
C738 C739 1.369 1_655 S
C738 C742 1.531 . S
C739 C738 1.369 1_455 S
C739 C740 1.410 . S
C739 C747 1.503 1_455 S
C740 C739 1.410 . S
C740 C741 1.392 . S
C740 C743 1.511 . S
C741 C737 1.376 . S
C741 C740 1.392 . S
C741 H753 0.929 . S
C742 C738 1.531 . S
C742 H754 0.960 . S
C742 H755 0.962 . S
C742 H756 0.960 . S
C743 C740 1.511 . S
C743 H757 0.961 . S
C743 H758 0.961 . S
C743 H759 0.961 . S
C744 C745 1.370 . S
C744 C746 1.363 . S
C744 H760 0.931 . S
C745 C744 1.370 . S
C745 C749 1.408 . S
C746 C744 1.363 . S
C746 C747 1.370 . S
C746 C750 1.524 . S
C747 C739 1.503 1_655 S
C747 C746 1.370 . S
C747 C748 1.403 . S
C748 C747 1.403 . S
C748 C749 1.404 . S
C748 C751 1.539 1_655 S
C749 C745 1.408 . S
C749 C748 1.404 . S
C749 H761 0.930 . S
C750 C746 1.524 . S
C750 H762 0.956 . S
C750 H763 0.961 . S
C750 H764 0.961 . S
C751 C748 1.539 1_455 S
C751 H765 0.968 . S
C751 H766 0.961 . S
C751 H767 0.960 . S
H752 C736 0.931 1_655 S
H753 C741 0.929 . S
H754 C742 0.960 . S
H755 C742 0.962 . S
H756 C742 0.960 . S
H757 C743 0.961 . S
H758 C743 0.961 . S
H759 C743 0.961 . S
H760 C744 0.931 . S
H761 C749 0.930 . S
H762 C750 0.956 . S
H763 C750 0.961 . S
H764 C750 0.961 . S
H765 C751 0.968 . S
H766 C751 0.961 . S
H767 C751 0.960 . S
C768 C769 1.391 . S
C768 C770 1.394 . S
C768 H784 0.931 . S
C769 C768 1.391 . S
C769 C773 1.376 . S
C770 C768 1.394 . S
C770 C771 1.369 . S
C770 C774 1.531 . S
C771 C770 1.369 . S
C771 C772 1.410 . S
C771 C779 1.503 . S
C772 C771 1.410 . S
C772 C773 1.392 . S
C772 C775 1.511 . S
C773 C769 1.376 . S
C773 C772 1.392 . S
C773 H785 0.929 . S
C774 C770 1.531 . S
C774 H786 0.960 . S
C774 H787 0.962 . S
C774 H788 0.960 . S
C775 C772 1.511 . S
C775 H789 0.961 . S
C775 H790 0.961 . S
C775 H791 0.961 . S
C776 C777 1.370 . S
C776 C778 1.363 . S
C776 H792 0.931 . S
C777 C776 1.370 . S
C777 C781 1.408 . S
C778 C776 1.363 . S
C778 C779 1.370 . S
C778 C782 1.524 . S
C779 C771 1.503 . S
C779 C778 1.370 . S
C779 C780 1.403 . S
C780 C779 1.403 . S
C780 C781 1.404 . S
C780 C783 1.539 . S
C781 C777 1.408 . S
C781 C780 1.404 . S
C781 H793 0.930 . S
C782 C778 1.524 . S
C782 H794 0.956 . S
C782 H795 0.961 . S
C782 H796 0.961 . S
C783 C780 1.539 . S
C783 H797 0.958 . S
C783 H798 0.961 . S
C783 H799 0.960 . S
H784 C768 0.931 . S
H785 C773 0.929 . S
H786 C774 0.960 . S
H787 C774 0.962 . S
H788 C774 0.960 . S
H789 C775 0.961 . S
H790 C775 0.961 . S
H791 C775 0.961 . S
H792 C776 0.931 . S
H793 C781 0.930 . S
H794 C782 0.956 . S
H795 C782 0.961 . S
H796 C782 0.961 . S
H797 C783 0.958 . S
H798 C783 0.961 . S
H799 C783 0.960 . S
C800 C801 1.391 . S
C800 C802 1.394 . S
C800 H816 0.931 . S
C801 C800 1.391 . S
C801 C805 1.376 . S
C802 C800 1.394 . S
C802 C803 1.369 . S
C802 C806 1.531 . S
C803 C802 1.369 . S
C803 C804 1.410 . S
C803 C811 1.503 . S
C804 C803 1.410 . S
C804 C805 1.392 . S
C804 C807 1.511 . S
C805 C801 1.376 . S
C805 C804 1.392 . S
C805 H817 0.929 . S
C806 C802 1.531 . S
C806 H818 0.960 . S
C806 H819 0.962 . S
C806 H820 0.960 . S
C807 C804 1.511 . S
C807 H821 0.961 . S
C807 H822 0.961 . S
C807 H823 0.961 . S
C808 C809 1.370 . S
C808 C810 1.363 . S
C808 H824 0.931 . S
C809 C808 1.370 . S
C809 C813 1.408 . S
C810 C808 1.363 . S
C810 C811 1.370 . S
C810 C814 1.524 . S
C811 C803 1.503 . S
C811 C810 1.370 . S
C811 C812 1.403 . S
C812 C811 1.403 . S
C812 C813 1.404 . S
C812 C815 1.539 . S
C813 C809 1.408 . S
C813 C812 1.404 . S
C813 H825 0.930 . S
C814 C810 1.524 . S
C814 H826 0.956 . S
C814 H827 0.961 . S
C814 H828 0.961 . S
C815 C812 1.539 . S
C815 H829 0.958 . S
C815 H830 0.961 . S
C815 H831 0.960 . S
H816 C800 0.931 . S
H817 C805 0.929 . S
H818 C806 0.960 . S
H819 C806 0.962 . S
H820 C806 0.960 . S
H821 C807 0.961 . S
H822 C807 0.961 . S
H823 C807 0.961 . S
H824 C808 0.931 . S
H825 C813 0.930 . S
H826 C814 0.956 . S
H827 C814 0.961 . S
H828 C814 0.961 . S
H829 C815 0.958 . S
H830 C815 0.961 . S
H831 C815 0.960 . S
C832 C833 1.391 . S
C832 C834 1.394 . S
C832 H848 0.931 . S
C833 C832 1.391 . S
C833 C837 1.376 . S
C834 C832 1.394 . S
C834 C835 1.369 . S
C834 C838 1.531 . S
C835 C834 1.369 . S
C835 C836 1.410 1_455 S
C835 C843 1.503 1_455 S
C836 C835 1.410 1_655 S
C836 C837 1.392 1_655 S
C836 C839 1.511 . S
C837 C833 1.376 . S
C837 C836 1.392 1_455 S
C837 H849 0.929 1_455 S
C838 C834 1.531 . S
C838 H850 0.960 . S
C838 H851 0.962 . S
C838 H852 0.960 . S
C839 C836 1.511 . S
C839 H853 0.961 . S
C839 H854 0.961 . S
C839 H855 0.961 . S
C840 C841 1.370 . S
C840 C842 1.363 . S
C840 H856 0.931 . S
C841 C840 1.370 . S
C841 C845 1.408 . S
C842 C840 1.363 . S
C842 C843 1.370 . S
C842 C846 1.516 1_655 S
C843 C835 1.503 1_655 S
C843 C842 1.370 . S
C843 C844 1.403 . S
C844 C843 1.403 . S
C844 C845 1.404 . S
C844 C847 1.539 . S
C845 C841 1.408 . S
C845 C844 1.404 . S
C845 H857 0.930 . S
C846 C842 1.516 1_455 S
C846 H858 0.983 . S
C846 H859 0.950 1_455 S
C846 H860 0.954 1_455 S
C847 C844 1.539 . S
C847 H861 0.958 1_655 S
C847 H862 0.961 . S
C847 H863 0.960 . S
H848 C832 0.931 . S
H849 C837 0.929 1_655 S
H850 C838 0.960 . S
H851 C838 0.962 . S
H852 C838 0.960 . S
H853 C839 0.961 . S
H854 C839 0.961 . S
H855 C839 0.961 . S
H856 C840 0.931 . S
H857 C845 0.930 . S
H858 C846 0.983 . S
H859 C846 0.950 1_655 S
H860 C846 0.954 1_655 S
H861 C847 0.958 1_455 S
H862 C847 0.961 . S
H863 C847 0.960 . S
C864 C865 1.391 . S
C864 C866 1.394 . S
C864 H880 0.931 . S
C865 C864 1.391 . S
C865 C869 1.376 . S
C866 C864 1.394 . S
C866 C867 1.369 . S
C866 C870 1.531 . S
C867 C866 1.369 . S
C867 C868 1.410 1_455 S
C867 C875 1.503 1_455 S
C868 C867 1.410 1_655 S
C868 C869 1.392 1_655 S
C868 C871 1.511 . S
C869 C865 1.376 . S
C869 C868 1.392 1_455 S
C869 H881 0.929 . S
C870 C866 1.531 . S
C870 H882 0.960 . S
C870 H883 0.962 . S
C870 H884 0.960 . S
C871 C868 1.511 . S
C871 H885 0.961 . S
C871 H886 0.961 . S
C871 H887 0.961 . S
C872 C873 1.370 . S
C872 C874 1.363 1_655 S
C872 H888 0.933 1_655 S
C873 C872 1.370 . S
C873 C877 1.408 . S
C874 C872 1.363 1_455 S
C874 C875 1.370 1_455 S
C874 C878 1.524 . S
C875 C867 1.503 1_655 S
C875 C874 1.370 1_655 S
C875 C876 1.403 . S
C876 C875 1.403 . S
C876 C877 1.404 . S
C876 C879 1.539 . S
C877 C873 1.408 . S
C877 C876 1.404 . S
C877 H889 0.930 . S
C878 C874 1.524 . S
C878 H890 0.956 . S
C878 H891 0.961 . S
C878 H892 0.961 . S
C879 C876 1.539 . S
C879 H893 0.958 . S
C879 H894 0.961 . S
C879 H895 0.960 . S
H880 C864 0.931 . S
H881 C869 0.929 . S
H882 C870 0.960 . S
H883 C870 0.962 . S
H884 C870 0.960 . S
H885 C871 0.961 . S
H886 C871 0.961 . S
H887 C871 0.961 . S
H888 C872 0.933 1_455 S
H889 C877 0.930 . S
H890 C878 0.956 . S
H891 C878 0.961 . S
H892 C878 0.961 . S
H893 C879 0.958 . S
H894 C879 0.961 . S
H895 C879 0.960 . S
C896 C897 1.391 . S
C896 C898 1.394 . S
C896 H912 0.931 . S
C897 C896 1.391 . S
C897 C901 1.376 . S
C898 C896 1.394 . S
C898 C899 1.369 . S
C898 C902 1.531 . S
C899 C898 1.369 . S
C899 C900 1.410 . S
C899 C907 1.503 . S
C900 C899 1.410 . S
C900 C901 1.392 . S
C900 C903 1.511 . S
C901 C897 1.376 . S
C901 C900 1.392 . S
C901 H913 0.929 . S
C902 C898 1.531 . S
C902 H914 0.960 . S
C902 H915 0.962 . S
C902 H916 0.960 . S
C903 C900 1.511 . S
C903 H917 0.961 . S
C903 H918 0.961 . S
C903 H919 0.961 . S
C904 C905 1.370 . S
C904 C906 1.363 . S
C904 H920 0.931 . S
C905 C904 1.370 . S
C905 C909 1.408 . S
C906 C904 1.363 . S
C906 C907 1.370 . S
C906 C910 1.524 . S
C907 C899 1.503 . S
C907 C906 1.370 . S
C907 C908 1.403 . S
C908 C907 1.403 . S
C908 C909 1.404 . S
C908 C911 1.539 . S
C909 C905 1.408 . S
C909 C908 1.404 . S
C909 H921 0.930 . S
C910 C906 1.524 . S
C910 H922 0.956 . S
C910 H923 0.961 . S
C910 H924 0.961 . S
C911 C908 1.539 . S
C911 H925 0.958 . S
C911 H926 0.961 . S
C911 H927 0.960 . S
H912 C896 0.931 . S
H913 C901 0.929 . S
H914 C902 0.960 . S
H915 C902 0.962 . S
H916 C902 0.960 . S
H917 C903 0.961 . S
H918 C903 0.961 . S
H919 C903 0.961 . S
H920 C904 0.931 . S
H921 C909 0.930 . S
H922 C910 0.956 . S
H923 C910 0.961 . S
H924 C910 0.961 . S
H925 C911 0.958 . S
H926 C911 0.961 . S
H927 C911 0.960 . S
C928 C929 1.391 . S
C928 C930 1.394 . S
C928 H944 0.931 . S
C929 C928 1.391 . S
C929 C933 1.376 . S
C930 C928 1.394 . S
C930 C931 1.369 . S
C930 C934 1.531 . S
C931 C930 1.369 . S
C931 C932 1.410 . S
C931 C939 1.503 . S
C932 C931 1.410 . S
C932 C933 1.392 . S
C932 C935 1.511 . S
C933 C929 1.376 . S
C933 C932 1.392 . S
C933 H945 0.929 . S
C934 C930 1.531 . S
C934 H946 0.960 . S
C934 H947 0.962 . S
C934 H948 0.960 . S
C935 C932 1.511 . S
C935 H949 0.961 . S
C935 H950 0.961 . S
C935 H951 0.961 . S
C936 C937 1.370 . S
C936 C938 1.363 . S
C936 H952 0.931 . S
C937 C936 1.370 . S
C937 C941 1.408 . S
C938 C936 1.363 . S
C938 C939 1.370 . S
C938 C942 1.524 . S
C939 C931 1.503 . S
C939 C938 1.370 . S
C939 C940 1.403 . S
C940 C939 1.403 . S
C940 C941 1.404 . S
C940 C943 1.539 . S
C941 C937 1.408 . S
C941 C940 1.404 . S
C941 H953 0.930 . S
C942 C938 1.524 . S
C942 H954 0.956 . S
C942 H955 0.961 . S
C942 H956 0.961 . S
C943 C940 1.539 . S
C943 H957 0.958 . S
C943 H958 0.961 . S
C943 H959 0.960 . S
H944 C928 0.931 . S
H945 C933 0.929 . S
H946 C934 0.960 . S
H947 C934 0.962 . S
H948 C934 0.960 . S
H949 C935 0.961 . S
H950 C935 0.961 . S
H951 C935 0.961 . S
H952 C936 0.931 . S
H953 C941 0.930 . S
H954 C942 0.956 . S
H955 C942 0.961 . S
H956 C942 0.961 . S
H957 C943 0.958 . S
H958 C943 0.961 . S
H959 C943 0.960 . S
C960 C961 1.391 . S
C960 C962 1.394 . S
C960 H976 0.931 . S
C961 C960 1.391 . S
C961 C965 1.376 . S
C962 C960 1.394 . S
C962 C963 1.369 . S
C962 C966 1.531 . S
C963 C962 1.369 . S
C963 C964 1.410 1_455 S
C963 C971 1.503 1_455 S
C964 C963 1.410 1_655 S
C964 C965 1.392 1_655 S
C964 C967 1.511 . S
C965 C961 1.376 . S
C965 C964 1.392 1_455 S
C965 H977 0.929 1_455 S
C966 C962 1.531 . S
C966 H978 0.960 . S
C966 H979 0.962 . S
C966 H980 0.960 . S
C967 C964 1.511 . S
C967 H981 0.961 . S
C967 H982 0.961 . S
C967 H983 0.961 . S
C968 C969 1.370 . S
C968 C970 1.363 . S
C968 H984 0.931 . S
C969 C968 1.370 . S
C969 C973 1.408 . S
C970 C968 1.363 . S
C970 C971 1.370 . S
C970 C974 1.524 . S
C971 C963 1.503 1_655 S
C971 C970 1.370 . S
C971 C972 1.403 . S
C972 C971 1.403 . S
C972 C973 1.404 . S
C972 C975 1.539 . S
C973 C969 1.408 . S
C973 C972 1.404 . S
C973 H985 0.930 . S
C974 C970 1.524 . S
C974 H986 0.956 1_655 S
C974 H987 0.961 . S
C974 H988 0.961 . S
C975 C972 1.539 . S
C975 H989 0.958 1_655 S
C975 H990 0.961 . S
C975 H991 0.960 . S
H976 C960 0.931 . S
H977 C965 0.929 1_655 S
H978 C966 0.960 . S
H979 C966 0.962 . S
H980 C966 0.960 . S
H981 C967 0.961 . S
H982 C967 0.961 . S
H983 C967 0.961 . S
H984 C968 0.931 . S
H985 C973 0.930 . S
H986 C974 0.956 1_455 S
H987 C974 0.961 . S
H988 C974 0.961 . S
H989 C975 0.958 1_455 S
H990 C975 0.961 . S
H991 C975 0.960 . S
C992 C993 1.391 1_455 S
C992 C994 1.394 1_565 S
C992 H1008 0.931 . S
C993 C992 1.391 1_655 S
C993 C997 1.376 . S
C994 C992 1.394 1_545 S
C994 C995 1.369 1_455 S
C994 C998 1.531 . S
C995 C994 1.369 1_655 S
C995 C996 1.405 1_545 S
C995 C1003 1.503 1_656 S
C996 C995 1.405 1_565 S
C996 C997 1.400 . S
C996 C999 1.506 1_566 S
C997 C993 1.376 . S
C997 C996 1.400 . S
C997 H1009 0.929 . S
C998 C994 1.531 . S
C998 H1010 0.960 . S
C998 H1011 0.962 1_545 S
C998 H1012 0.960 . S
C999 C996 1.506 1_544 S
C999 H1013 0.959 1_544 S
C999 H1014 0.966 1_545 S
C999 H1015 0.961 . S
C1000 C1001 1.370 1_565 S
C1000 C1002 1.363 . S
C1000 H1016 0.931 . S
C1001 C1000 1.370 1_545 S
C1001 C1005 1.408 . S
C1002 C1000 1.363 . S
C1002 C1003 1.370 1_565 S
C1002 C1006 1.524 . S
C1003 C995 1.503 1_454 S
C1003 C1002 1.370 1_545 S
C1003 C1004 1.403 . S
C1004 C1003 1.403 . S
C1004 C1005 1.404 . S
C1004 C1007 1.539 1_455 S
C1005 C1001 1.408 . S
C1005 C1004 1.404 . S
C1005 H1017 0.930 . S
C1006 C1002 1.524 . S
C1006 H1018 0.956 . S
C1006 H1019 0.961 1_455 S
C1006 H1020 0.961 . S
C1007 C1004 1.539 1_655 S
C1007 H1021 0.966 1_655 S
C1007 H1022 0.961 . S
C1007 H1023 0.960 1_554 S
H1008 C992 0.931 . S
H1009 C997 0.929 . S
H1010 C998 0.960 . S
H1011 C998 0.962 1_565 S
H1012 C998 0.960 . S
H1013 C999 0.959 1_566 S
H1014 C999 0.966 1_565 S
H1015 C999 0.961 . S
H1016 C1000 0.931 . S
H1017 C1005 0.930 . S
H1018 C1006 0.956 . S
H1019 C1006 0.961 1_655 S
H1020 C1006 0.961 . S
H1021 C1007 0.966 1_455 S
H1022 C1007 0.961 . S
H1023 C1007 0.960 1_556 S
C1024 C1025 1.391 1_565 S
C1024 C1026 1.394 . S
C1024 H1040 0.931 . S
C1025 C1024 1.391 1_545 S
C1025 C1029 1.376 . S
C1026 C1024 1.394 . S
C1026 C1027 1.369 . S
C1026 C1030 1.531 . S
C1027 C1026 1.369 . S
C1027 C1028 1.410 1_565 S
C1027 C1035 1.503 1_556 S
C1028 C1027 1.410 1_545 S
C1028 C1029 1.392 . S
C1028 C1031 1.511 1_556 S
C1029 C1025 1.376 . S
C1029 C1028 1.392 . S
C1029 H1041 0.929 . S
C1030 C1026 1.531 . S
C1030 H1042 0.960 . S
C1030 H1043 0.962 . S
C1030 H1044 0.960 . S
C1031 C1028 1.511 1_554 S
C1031 H1045 0.961 1_554 S
C1031 H1046 0.961 . S
C1031 H1047 0.961 1_545 S
C1032 C1033 1.370 1_545 S
C1032 C1034 1.363 . S
C1032 H1048 0.931 . S
C1033 C1032 1.370 1_565 S
C1033 C1037 1.408 . S
C1034 C1032 1.363 . S
C1034 C1035 1.370 1_545 S
C1034 C1038 1.524 . S
C1035 C1027 1.503 1_554 S
C1035 C1034 1.370 1_565 S
C1035 C1036 1.403 . S
C1036 C1035 1.403 . S
C1036 C1037 1.404 . S
C1036 C1039 1.539 . S
C1037 C1033 1.408 . S
C1037 C1036 1.404 . S
C1037 H1049 0.930 . S
C1038 C1034 1.524 . S
C1038 H1050 0.956 1_554 S
C1038 H1051 0.961 . S
C1038 H1052 0.961 . S
C1039 C1036 1.539 . S
C1039 H1053 0.958 . S
C1039 H1054 0.961 . S
C1039 H1055 0.966 . S
H1040 C1024 0.931 . S
H1041 C1029 0.929 . S
H1042 C1030 0.960 . S
H1043 C1030 0.962 . S
H1044 C1030 0.960 . S
H1045 C1031 0.961 1_556 S
H1046 C1031 0.961 . S
H1047 C1031 0.961 1_565 S
H1048 C1032 0.931 . S
H1049 C1037 0.930 . S
H1050 C1038 0.956 1_556 S
H1051 C1038 0.961 . S
H1052 C1038 0.961 . S
H1053 C1039 0.958 . S
H1054 C1039 0.961 . S
H1055 C1039 0.966 . S
C1056 C1057 1.391 1_565 S
C1056 C1058 1.394 . S
C1056 H1072 0.931 . S
C1057 C1056 1.391 1_545 S
C1057 C1061 1.376 . S
C1058 C1056 1.394 . S
C1058 C1059 1.369 . S
C1058 C1062 1.531 . S
C1059 C1058 1.369 . S
C1059 C1060 1.410 1_565 S
C1059 C1067 1.503 . S
C1060 C1059 1.410 1_545 S
C1060 C1061 1.392 . S
C1060 C1063 1.511 . S
C1061 C1057 1.376 . S
C1061 C1060 1.392 . S
C1061 H1073 0.929 . S
C1062 C1058 1.531 . S
C1062 H1074 0.960 . S
C1062 H1075 0.962 . S
C1062 H1076 0.960 . S
C1063 C1060 1.511 . S
C1063 H1077 0.961 . S
C1063 H1078 0.961 . S
C1063 H1079 0.961 . S
C1064 C1065 1.370 1_545 S
C1064 C1066 1.363 . S
C1064 H1080 0.931 . S
C1065 C1064 1.370 1_565 S
C1065 C1069 1.408 . S
C1066 C1064 1.363 . S
C1066 C1067 1.370 1_545 S
C1066 C1070 1.524 . S
C1067 C1059 1.503 . S
C1067 C1066 1.370 1_565 S
C1067 C1068 1.403 . S
C1068 C1067 1.403 . S
C1068 C1069 1.404 . S
C1068 C1071 1.539 . S
C1069 C1065 1.408 . S
C1069 C1068 1.404 . S
C1069 H1081 0.930 . S
C1070 C1066 1.524 . S
C1070 H1082 0.956 . S
C1070 H1083 0.961 . S
C1070 H1084 0.961 . S
C1071 C1068 1.539 . S
C1071 H1085 0.958 . S
C1071 H1086 0.961 . S
C1071 H1087 0.960 . S
H1072 C1056 0.931 . S
H1073 C1061 0.929 . S
H1074 C1062 0.960 . S
H1075 C1062 0.962 . S
H1076 C1062 0.960 . S
H1077 C1063 0.961 . S
H1078 C1063 0.961 . S
H1079 C1063 0.961 . S
H1080 C1064 0.931 . S
H1081 C1069 0.930 . S
H1082 C1070 0.956 . S
H1083 C1070 0.961 . S
H1084 C1070 0.961 . S
H1085 C1071 0.958 . S
H1086 C1071 0.961 . S
H1087 C1071 0.960 . S
C1088 C1089 1.391 1_545 S
C1088 C1090 1.394 1_455 S
C1088 H1104 0.931 1_455 S
C1089 C1088 1.391 1_565 S
C1089 C1093 1.376 . S
C1090 C1088 1.394 1_655 S
C1090 C1091 1.369 1_655 S
C1090 C1094 1.531 . S
C1091 C1090 1.369 1_455 S
C1091 C1092 1.410 1_545 S
C1091 C1099 1.503 1_455 S
C1092 C1091 1.410 1_565 S
C1092 C1093 1.392 . S
C1092 C1095 1.511 . S
C1093 C1089 1.376 . S
C1093 C1092 1.392 . S
C1093 H1105 0.929 . S
C1094 C1090 1.531 . S
C1094 H1106 0.960 . S
C1094 H1107 0.962 . S
C1094 H1108 0.960 . S
C1095 C1092 1.511 . S
C1095 H1109 0.961 . S
C1095 H1110 0.961 . S
C1095 H1111 0.961 . S
C1096 C1097 1.370 1_565 S
C1096 C1098 1.363 . S
C1096 H1112 0.931 . S
C1097 C1096 1.370 1_545 S
C1097 C1101 1.408 1_655 S
C1098 C1096 1.363 . S
C1098 C1099 1.370 1_565 S
C1098 C1102 1.524 . S
C1099 C1091 1.503 1_655 S
C1099 C1098 1.370 1_545 S
C1099 C1100 1.403 1_655 S
C1100 C1099 1.403 1_455 S
C1100 C1101 1.404 . S
C1100 C1103 1.539 . S
C1101 C1097 1.408 1_455 S
C1101 C1100 1.404 . S
C1101 H1113 0.930 . S
C1102 C1098 1.524 . S
C1102 H1114 0.956 . S
C1102 H1115 0.961 . S
C1102 H1116 0.961 . S
C1103 C1100 1.539 . S
C1103 H1117 0.958 . S
C1103 H1118 0.961 . S
C1103 H1119 0.960 . S
H1104 C1088 0.931 1_655 S
H1105 C1093 0.929 . S
H1106 C1094 0.960 . S
H1107 C1094 0.962 . S
H1108 C1094 0.960 . S
H1109 C1095 0.961 . S
H1110 C1095 0.961 . S
H1111 C1095 0.961 . S
H1112 C1096 0.931 . S
H1113 C1101 0.930 . S
H1114 C1102 0.956 . S
H1115 C1102 0.961 . S
H1116 C1102 0.961 . S
H1117 C1103 0.958 . S
H1118 C1103 0.961 . S
H1119 C1103 0.960 . S
C1120 C1121 1.391 . S
C1120 C1122 1.394 . S
C1120 H1136 0.931 . S
C1121 C1120 1.391 . S
C1121 C1125 1.376 . S
C1122 C1120 1.394 . S
C1122 C1123 1.369 . S
C1122 C1126 1.531 . S
C1123 C1122 1.369 . S
C1123 C1124 1.410 . S
C1123 C1131 1.503 1_554 S
C1124 C1123 1.410 . S
C1124 C1125 1.392 . S
C1124 C1127 1.511 1_554 S
C1125 C1121 1.376 . S
C1125 C1124 1.392 . S
C1125 H1137 0.929 . S
C1126 C1122 1.531 . S
C1126 H1138 0.960 . S
C1126 H1139 0.962 . S
C1126 H1140 0.960 . S
C1127 C1124 1.511 1_556 S
C1127 H1141 0.961 1_556 S
C1127 H1142 0.961 . S
C1127 H1143 0.961 . S
C1128 C1129 1.370 . S
C1128 C1130 1.363 . S
C1128 H1144 0.931 . S
C1129 C1128 1.370 . S
C1129 C1133 1.408 . S
C1130 C1128 1.363 . S
C1130 C1131 1.370 . S
C1130 C1134 1.524 . S
C1131 C1123 1.503 1_556 S
C1131 C1130 1.370 . S
C1131 C1132 1.403 . S
C1132 C1131 1.403 . S
C1132 C1133 1.404 . S
C1132 C1135 1.539 . S
C1133 C1129 1.408 . S
C1133 C1132 1.404 . S
C1133 H1145 0.930 . S
C1134 C1130 1.524 . S
C1134 H1146 0.956 1_556 S
C1134 H1147 0.961 . S
C1134 H1148 0.961 . S
C1135 C1132 1.539 . S
C1135 H1149 0.958 . S
C1135 H1150 0.961 . S
C1135 H1151 0.963 . S
H1136 C1120 0.931 . S
H1137 C1125 0.929 . S
H1138 C1126 0.960 . S
H1139 C1126 0.962 . S
H1140 C1126 0.960 . S
H1141 C1127 0.961 1_554 S
H1142 C1127 0.961 . S
H1143 C1127 0.961 . S
H1144 C1128 0.931 . S
H1145 C1133 0.930 . S
H1146 C1134 0.956 1_554 S
H1147 C1134 0.961 . S
H1148 C1134 0.961 . S
H1149 C1135 0.958 . S
H1150 C1135 0.961 . S
H1151 C1135 0.963 . S
C1152 C1153 1.391 . S
C1152 C1154 1.394 . S
C1152 H1168 0.931 . S
C1153 C1152 1.391 . S
C1153 C1157 1.376 1_655 S
C1154 C1152 1.394 . S
C1154 C1155 1.393 . S
C1154 C1158 1.531 . S
C1155 C1154 1.393 . S
C1155 C1156 1.394 1_655 S
C1155 C1163 1.496 1_654 S
C1156 C1155 1.394 1_455 S
C1156 C1157 1.392 . S
C1156 C1159 1.511 . S
C1157 C1153 1.376 1_455 S
C1157 C1156 1.392 . S
C1157 H1169 0.929 . S
C1158 C1154 1.531 . S
C1158 H1170 0.960 1_554 S
C1158 H1171 0.960 1_554 S
C1158 H1172 0.960 . S
C1159 C1156 1.511 . S
C1159 H1173 0.961 . S
C1159 H1174 0.961 . S
C1159 H1175 0.961 . S
C1160 C1161 1.370 . S
C1160 C1162 1.363 1_455 S
C1160 H1176 0.931 1_455 S
C1161 C1160 1.370 . S
C1161 C1165 1.408 . S
C1162 C1160 1.363 1_655 S
C1162 C1163 1.370 1_655 S
C1162 C1166 1.524 . S
C1163 C1155 1.496 1_456 S
C1163 C1162 1.370 1_455 S
C1163 C1164 1.403 . S
C1164 C1163 1.403 . S
C1164 C1165 1.404 . S
C1164 C1167 1.517 1_556 S
C1165 C1161 1.408 . S
C1165 C1164 1.404 . S
C1165 H1177 0.930 . S
C1166 C1162 1.524 . S
C1166 H1178 0.956 . S
C1166 H1179 0.961 . S
C1166 H1180 0.961 . S
C1167 C1164 1.517 1_554 S
C1167 H1181 0.963 . S
C1167 H1182 0.951 1_554 S
C1167 H1183 0.989 . S
H1168 C1152 0.931 . S
H1169 C1157 0.929 . S
H1170 C1158 0.960 1_556 S
H1171 C1158 0.960 1_556 S
H1172 C1158 0.960 . S
H1173 C1159 0.961 . S
H1174 C1159 0.961 . S
H1175 C1159 0.961 . S
H1176 C1160 0.931 1_655 S
H1177 C1165 0.930 . S
H1178 C1166 0.956 . S
H1179 C1166 0.961 . S
H1180 C1166 0.961 . S
H1181 C1167 0.963 . S
H1182 C1167 0.951 1_556 S
H1183 C1167 0.989 . S
C1184 C1185 1.391 1_455 S
C1184 C1186 1.394 . S
C1184 H1200 0.931 . S
C1185 C1184 1.391 1_655 S
C1185 C1189 1.376 . S
C1186 C1184 1.394 . S
C1186 C1187 1.369 1_455 S
C1186 C1190 1.531 . S
C1187 C1186 1.369 1_655 S
C1187 C1188 1.410 . S
C1187 C1195 1.503 1_655 S
C1188 C1187 1.410 . S
C1188 C1189 1.392 . S
C1188 C1191 1.511 . S
C1189 C1185 1.376 . S
C1189 C1188 1.392 . S
C1189 H1201 0.929 . S
C1190 C1186 1.531 . S
C1190 H1202 0.960 . S
C1190 H1203 0.962 . S
C1190 H1204 0.960 . S
C1191 C1188 1.511 . S
C1191 H1205 0.961 . S
C1191 H1206 0.961 . S
C1191 H1207 0.961 . S
C1192 C1193 1.370 . S
C1192 C1194 1.363 . S
C1192 H1208 0.931 . S
C1193 C1192 1.370 . S
C1193 C1197 1.408 . S
C1194 C1192 1.363 . S
C1194 C1195 1.370 . S
C1194 C1198 1.524 . S
C1195 C1187 1.503 1_455 S
C1195 C1194 1.370 . S
C1195 C1196 1.403 1_455 S
C1196 C1195 1.403 1_655 S
C1196 C1197 1.404 1_655 S
C1196 C1199 1.539 . S
C1197 C1193 1.408 . S
C1197 C1196 1.404 1_455 S
C1197 H1209 0.931 . S
C1198 C1194 1.524 . S
C1198 H1210 0.956 . S
C1198 H1211 0.961 . S
C1198 H1212 0.961 . S
C1199 C1196 1.539 . S
C1199 H1213 0.958 . S
C1199 H1214 0.961 . S
C1199 H1215 0.960 . S
H1200 C1184 0.931 . S
H1201 C1189 0.929 . S
H1202 C1190 0.960 . S
H1203 C1190 0.962 . S
H1204 C1190 0.960 . S
H1205 C1191 0.961 . S
H1206 C1191 0.961 . S
H1207 C1191 0.961 . S
H1208 C1192 0.931 . S
H1209 C1197 0.931 . S
H1210 C1198 0.956 . S
H1211 C1198 0.961 . S
H1212 C1198 0.961 . S
H1213 C1199 0.958 . S
H1214 C1199 0.961 . S
H1215 C1199 0.960 . S
C1216 C1217 1.391 . S
C1216 C1218 1.394 . S
C1216 H1232 0.931 . S
C1217 C1216 1.391 . S
C1217 C1221 1.376 . S
C1218 C1216 1.394 . S
C1218 C1219 1.369 . S
C1218 C1222 1.531 . S
C1219 C1218 1.369 . S
C1219 C1220 1.410 . S
C1219 C1227 1.503 . S
C1220 C1219 1.410 . S
C1220 C1221 1.392 . S
C1220 C1223 1.511 . S
C1221 C1217 1.376 . S
C1221 C1220 1.392 . S
C1221 H1233 0.929 . S
C1222 C1218 1.531 . S
C1222 H1234 0.960 . S
C1222 H1235 0.962 . S
C1222 H1236 0.960 . S
C1223 C1220 1.511 . S
C1223 H1237 0.961 . S
C1223 H1238 0.961 . S
C1223 H1239 0.961 . S
C1224 C1225 1.370 . S
C1224 C1226 1.363 . S
C1224 H1240 0.931 . S
C1225 C1224 1.370 . S
C1225 C1229 1.408 . S
C1226 C1224 1.363 . S
C1226 C1227 1.370 . S
C1226 C1230 1.524 . S
C1227 C1219 1.503 . S
C1227 C1226 1.370 . S
C1227 C1228 1.403 . S
C1228 C1227 1.403 . S
C1228 C1229 1.404 . S
C1228 C1231 1.539 . S
C1229 C1225 1.408 . S
C1229 C1228 1.404 . S
C1229 H1241 0.930 . S
C1230 C1226 1.524 . S
C1230 H1242 0.956 . S
C1230 H1243 0.961 . S
C1230 H1244 0.961 . S
C1231 C1228 1.539 . S
C1231 H1245 0.958 . S
C1231 H1246 0.961 . S
C1231 H1247 0.960 . S
H1232 C1216 0.931 . S
H1233 C1221 0.929 . S
H1234 C1222 0.960 . S
H1235 C1222 0.962 . S
H1236 C1222 0.960 . S
H1237 C1223 0.961 . S
H1238 C1223 0.961 . S
H1239 C1223 0.961 . S
H1240 C1224 0.931 . S
H1241 C1229 0.930 . S
H1242 C1230 0.956 . S
H1243 C1230 0.961 . S
H1244 C1230 0.961 . S
H1245 C1231 0.958 . S
H1246 C1231 0.961 . S
H1247 C1231 0.960 . S
C225 C25 1.494 . S
C233 C11 1.493 . S
C257 C39 1.477 . S
C265 C53 1.484 . S
C289 C67 1.482 . S
C297 C81 1.483 . S
C321 C109 1.471 . S
C329 C95 1.486 . S
C353 C137 1.494 . S
C361 C123 1.493 . S
C385 C165 1.472 . S
C393 C151 1.486 . S
C417 C193 1.483 . S
C425 C179 1.483 . S
C449 C221 1.471 . S
C457 C207 1.488 . S
C481 C49 1.218 . S
C489 C7 1.211 . S
C513 C21 1.190 . S
C521 C35 1.204 . S
C545 C105 1.212 . S
C553 C63 1.213 . S
C577 C91 1.194 . S
C585 C77 1.202 . S
C609 C119 1.219 . S
C617 C161 1.211 . S
C641 C147 1.216 . S
C649 C133 1.208 . S
C673 C217 1.206 . S
C681 C175 1.205 . S
C705 C189 1.196 . S
C713 C203 1.202 . S
C737 C8 1.480 . S
C745 C134 1.457 . S
C769 C22 1.428 . S
C777 C120 1.464 . S
C801 C162 1.428 . S
C809 C36 1.464 . S
C833 C148 1.439 . S
C841 C50 1.458 . S
C865 C190 1.439 . S
C873 C64 1.474 . S
C897 C176 1.489 . S
C905 C78 1.455 . S
C929 C92 1.451 . S
C937 C218 1.472 . S
C961 C106 1.466 . S
C969 C204 1.468 . S
C993 C69 1.165 . S
C1001 C13 1.125 . S
C1025 C83 1.173 . S
C1033 C27 1.121 . S
C1057 C97 1.182 . S
C1065 C41 1.119 . S
C1089 C111 1.182 . S
C1097 C55 1.119 . S
C1121 C125 1.091 . S
C1129 C181 1.156 . S
C1153 C139 1.129 . S
C1161 C195 1.145 . S
C1185 C209 1.176 . S
C1193 C153 1.121 . S
C1217 C223 1.103 . S
C1225 C167 1.155 . S
