# Generated by pormake.
# Topology wkd, (5)-cn, num edge types: 1
# Building blocks:
#     Node 0, Type 0, BuildingBlock: BEQFEK_clean_sbu_0, # of connection points: 5
#     Node 1, Type 0, BuildingBlock: BEQFEK_clean_sbu_0, # of connection points: 5
#     Node 2, Type 0, BuildingBlock: BEQFEK_clean_sbu_0, # of connection points: 5
#     Node 3, Type 0, BuildingBlock: BEQFEK_clean_sbu_0, # of connection points: 5
#     Node 4, Type 0, BuildingBlock: BEQFEK_clean_sbu_0, # of connection points: 5
#     Node 5, Type 0, BuildingBlock: BEQFEK_clean_sbu_0, # of connection points: 5
#     Node 6, Type 0, BuildingBlock: BEQFEK_clean_sbu_0, # of connection points: 5
#     Node 7, Type 0, BuildingBlock: BEQFEK_clean_sbu_0, # of connection points: 5
#     Node 8, Type 0, BuildingBlock: BEQFEK_clean_sbu_0, # of connection points: 5
#     Node 9, Type 0, BuildingBlock: BEQFEK_clean_sbu_0, # of connection points: 5
#     Node 10, Type 0, BuildingBlock: BEQFEK_clean_sbu_0, # of connection points: 5
#     Node 11, Type 0, BuildingBlock: BEQFEK_clean_sbu_0, # of connection points: 5
#     Edge 12, Type (0, 0), BuildingBlock: XUDNAN_clean_linker_2, # of connection points: 2
#     Edge 13, Type (0, 0), BuildingBlock: XUDNAN_clean_linker_2, # of connection points: 2
#     Edge 14, Type (0, 0), BuildingBlock: XUDNAN_clean_linker_2, # of connection points: 2
#     Edge 15, Type (0, 0), BuildingBlock: XUDNAN_clean_linker_2, # of connection points: 2
#     Edge 16, Type (0, 0), BuildingBlock: XUDNAN_clean_linker_2, # of connection points: 2
#     Edge 17, Type (0, 0), BuildingBlock: XUDNAN_clean_linker_2, # of connection points: 2
#     Edge 18, Type (0, 0), BuildingBlock: XUDNAN_clean_linker_2, # of connection points: 2
#     Edge 19, Type (0, 0), BuildingBlock: XUDNAN_clean_linker_2, # of connection points: 2
#     Edge 20, Type (0, 0), BuildingBlock: XUDNAN_clean_linker_2, # of connection points: 2
#     Edge 21, Type (0, 0), BuildingBlock: XUDNAN_clean_linker_2, # of connection points: 2
#     Edge 22, Type (0, 0), BuildingBlock: XUDNAN_clean_linker_2, # of connection points: 2
#     Edge 23, Type (0, 0), BuildingBlock: XUDNAN_clean_linker_2, # of connection points: 2
#     Edge 24, Type (0, 0), BuildingBlock: XUDNAN_clean_linker_2, # of connection points: 2
#     Edge 25, Type (0, 0), BuildingBlock: XUDNAN_clean_linker_2, # of connection points: 2
#     Edge 26, Type (0, 0), BuildingBlock: XUDNAN_clean_linker_2, # of connection points: 2
#     Edge 27, Type (0, 0), BuildingBlock: XUDNAN_clean_linker_2, # of connection points: 2
#     Edge 28, Type (0, 0), BuildingBlock: XUDNAN_clean_linker_2, # of connection points: 2
#     Edge 29, Type (0, 0), BuildingBlock: XUDNAN_clean_linker_2, # of connection points: 2
#     Edge 30, Type (0, 0), BuildingBlock: XUDNAN_clean_linker_2, # of connection points: 2
#     Edge 31, Type (0, 0), BuildingBlock: XUDNAN_clean_linker_2, # of connection points: 2
#     Edge 32, Type (0, 0), BuildingBlock: XUDNAN_clean_linker_2, # of connection points: 2
#     Edge 33, Type (0, 0), BuildingBlock: XUDNAN_clean_linker_2, # of connection points: 2
#     Edge 34, Type (0, 0), BuildingBlock: XUDNAN_clean_linker_2, # of connection points: 2
#     Edge 35, Type (0, 0), BuildingBlock: XUDNAN_clean_linker_2, # of connection points: 2
#     Edge 36, Type (0, 0), BuildingBlock: XUDNAN_clean_linker_2, # of connection points: 2
#     Edge 37, Type (0, 0), BuildingBlock: XUDNAN_clean_linker_2, # of connection points: 2
#     Edge 38, Type (0, 0), BuildingBlock: XUDNAN_clean_linker_2, # of connection points: 2
#     Edge 39, Type (0, 0), BuildingBlock: XUDNAN_clean_linker_2, # of connection points: 2
#     Edge 40, Type (0, 0), BuildingBlock: XUDNAN_clean_linker_2, # of connection points: 2
#     Edge 41, Type (0, 0), BuildingBlock: XUDNAN_clean_linker_2, # of connection points: 2
# Relax obj value: 0.046
# Max RMSD: 0.099
# Mean RMSD: 0.099
data_MOF--net-wkd--node1-BEQFEK_clean_sbu_0--edge1-XUDNAN_clean_linker_2
_symmetry_space_group_name_H-M    P1
_symmetry_Int_Tables_number       1
_symmetry_cell_setting            triclinic
loop_
_symmetry_equiv_pos_as_xyz
'x, y, z'
_cell_length_a     23.88005
_cell_length_b     23.895113
_cell_length_c     134.88636
_cell_angle_alpha  90.072492
_cell_angle_beta   90.078252
_cell_angle_gamma 119.935
loop_
_atom_site_label
_atom_site_type_symbol
_atom_site_fract_x
_atom_site_fract_y
_atom_site_fract_z
_atom_type_partial_charge
Co0 Co 0.96792 0.32126 0.03917 0.0
Co1 Co 0.0169 0.24804 0.05282 0.0
C2 C 0.91309 0.18021 0.03705 0.0
O3 O 0.91368 0.23183 0.03457 0.0
O4 O 0.95004 0.17967 0.04386 0.0
C5 C 0.88743 0.36386 0.02885 0.0
O6 O 0.83854 0.30531 0.03023 0.0
C7 C 0.00646 0.16279 0.06947 0.0
C8 C 0.10834 0.18795 0.07127 0.0
C9 C 0.04705 0.1491 0.07515 0.0
N10 N 0.0425 0.20771 0.06269 0.0
N11 N 0.10329 0.2224 0.06381 0.0
C12 C 0.93457 0.13234 0.07006 0.0
H13 H 0.91484 0.13898 0.06298 0.0
H14 H 0.92199 0.15607 0.07603 0.0
H15 H 0.91218 0.08011 0.07177 0.0
C16 C 0.94312 0.36122 0.05863 0.0
N17 N 0.96162 0.32644 0.05311 0.0
N18 N 0.98872 0.30225 0.05885 0.0
C19 C 0.99307 0.32528 0.06814 0.0
C20 C 0.96382 0.36351 0.06839 0.0
C21 C 0.90286 0.38798 0.0546 0.0
H22 H 0.86771 0.3536 0.04916 0.0
H23 H 0.87552 0.39589 0.06055 0.0
H24 H 0.93444 0.43418 0.05073 0.0
O25 O 0.06008 0.35439 0.03516 0.0
O26 O 0.09343 0.30136 0.04475 0.0
H27 H 0.05578 0.362 0.08094 0.0
H28 H 1.00129 0.27585 0.08078 0.0
C29 C 0.03277 0.31844 0.07615 0.0
H30 H 0.07134 0.31143 0.07287 0.0
H31 H 0.14145 0.25613 0.0595 0.0
O32 O 0.94294 0.37874 0.03221 0.0
C33 C 0.10385 0.34206 0.03793 0.0
Co34 Co 0.64613 0.94555 0.20923 0.0
Co35 Co 0.78419 0.02026 0.2189 0.0
C36 C 0.73852 0.90061 0.20582 0.0
O37 O 0.68117 0.89053 0.20495 0.0
O38 O 0.78165 0.94885 0.21067 0.0
C39 C 0.51485 0.8546 0.20158 0.0
O40 O 0.52785 0.8074 0.20222 0.0
C41 C 0.87301 0.02177 0.23408 0.0
C42 C 0.94442 0.12558 0.23547 0.0
C43 C 0.92648 0.06576 0.23957 0.0
N44 N 0.85918 0.05438 0.2273 0.0
N45 N 0.90268 0.11633 0.22807 0.0
C46 C 0.83539 0.94982 0.23514 0.0
H47 H 0.81482 0.9268 0.22789 0.0
H48 H 0.79452 0.93619 0.24031 0.0
H49 H 0.86647 0.93128 0.23808 0.0
C50 C 0.60575 0.9481 0.22971 0.0
N51 N 0.65145 0.95734 0.22304 0.0
N52 N 0.70901 0.99151 0.2271 0.0
C53 C 0.70158 0.00642 0.23649 0.0
C54 C 0.63591 0.97903 0.23847 0.0
C55 C 0.53561 0.9191 0.22719 0.0
H56 H 0.52961 0.9507 0.22178 0.0
H57 H 0.51822 0.87136 0.22362 0.0
H58 H 0.50582 0.9133 0.23382 0.0
O59 O 0.69399 0.03124 0.20284 0.0
O60 O 0.79082 0.08895 0.20975 0.0
H61 H 0.79141 0.09394 0.23892 0.0
H62 H 0.73944 0.06617 0.2497 0.0
C63 C 0.75625 0.05079 0.24313 0.0
H64 H 0.78122 0.02536 0.24588 0.0
H65 H 0.90255 0.15256 0.22377 0.0
O66 O 0.55665 0.91116 0.20436 0.0
C67 C 0.74801 0.08344 0.20353 0.0
Co68 Co 0.68511 0.62696 0.37346 0.0
Co69 Co 0.74586 0.76546 0.38283 0.0
C70 C 0.82086 0.72467 0.36934 0.0
O71 O 0.77458 0.66685 0.36867 0.0
O72 O 0.81526 0.76692 0.37432 0.0
C73 C 0.6651 0.50195 0.36856 0.0
O74 O 0.72386 0.52558 0.37213 0.0
C75 C 0.83389 0.85419 0.39773 0.0
C76 C 0.80288 0.92664 0.3993 0.0
C77 C 0.84477 0.90796 0.40324 0.0
N78 N 0.78672 0.8408 0.3911 0.0
N79 N 0.76898 0.88485 0.39197 0.0
C80 C 0.86757 0.81573 0.39867 0.0
H81 H 0.86873 0.79455 0.39142 0.0
H82 H 0.84071 0.77529 0.40391 0.0
H83 H 0.91765 0.84635 0.40146 0.0
C84 C 0.64754 0.58802 0.39425 0.0
N85 N 0.68156 0.63306 0.38735 0.0
N86 N 0.70413 0.69095 0.39124 0.0
C87 C 0.68357 0.68433 0.40072 0.0
C88 C 0.64787 0.61899 0.40297 0.0
C89 C 0.60717 0.5174 0.39205 0.0
H90 H 0.63892 0.49885 0.38945 0.0
H91 H 0.58003 0.48959 0.39867 0.0
H92 H 0.57259 0.51003 0.386 0.0
O93 O 0.64095 0.66944 0.36732 0.0
O94 O 0.6798 0.76725 0.37393 0.0
H95 H 0.68238 0.77295 0.40263 0.0
H96 H 0.6569 0.7217 0.41346 0.0
C97 C 0.69074 0.73891 0.40711 0.0
H98 H 0.74037 0.76512 0.41017 0.0
H99 H 0.73234 0.88518 0.38779 0.0
O100 O 0.63843 0.53647 0.36874 0.0
C101 C 0.64135 0.72283 0.36801 0.0
Co102 Co 0.04536 0.68537 0.54025 0.0
Co103 Co 0.97265 0.75217 0.54927 0.0
C104 C 0.09154 0.82161 0.53596 0.0
O105 O 0.1017 0.77423 0.53551 0.0
O106 O 0.04344 0.81779 0.54066 0.0
C107 C 0.13362 0.64156 0.53297 0.0
O108 O 0.18134 0.70147 0.53355 0.0
C109 C 0.97442 0.84611 0.56341 0.0
C110 C 0.87075 0.81351 0.56524 0.0
C111 C 0.9316 0.85756 0.56882 0.0
N112 N 0.94029 0.79649 0.55717 0.0
N113 N 0.8784 0.77793 0.55818 0.0
C114 C 0.0467 0.88156 0.56408 0.0
H115 H 0.06794 0.88375 0.5567 0.0
H116 H 0.06246 0.8554 0.56912 0.0
H117 H 0.06529 0.93132 0.56695 0.0
C118 C 0.04606 0.64946 0.56114 0.0
N119 N 0.03469 0.68245 0.55409 0.0
N120 N 1.00195 0.70808 0.55792 0.0
C121 C 0.99036 0.69101 0.56757 0.0
C122 C 0.0183 0.65367 0.56995 0.0
C123 C 0.07502 0.60773 0.55905 0.0
H124 H 0.04347 0.56907 0.55376 0.0
H125 H 0.12277 0.63718 0.55546 0.0
H126 H 0.08079 0.58519 0.56586 0.0
O127 O 0.9597 0.64792 0.53378 0.0
O128 O 0.90262 0.68841 0.54042 0.0
H129 H 0.90504 0.69703 0.57032 0.0
H130 H 0.93748 0.67953 0.58126 0.0
C131 C 0.94996 0.70688 0.57422 0.0
H132 H 0.97734 0.75875 0.57617 0.0
H133 H 0.8412 0.73942 0.55432 0.0
O134 O 0.07737 0.62773 0.53574 0.0
C135 C 0.90771 0.6503 0.53434 0.0
Co136 Co 0.36417 0.05526 0.70497 0.0
Co137 Co 0.23992 0.96712 0.71747 0.0
C138 C 0.24859 0.06813 0.70274 0.0
O139 O 0.30755 0.08925 0.70054 0.0
O140 O 0.21954 0.02212 0.70889 0.0
C141 C 0.46945 0.096 0.6912 0.0
O142 O 0.4293 0.0428 0.68646 0.0
C143 C 0.15793 0.96439 0.73361 0.0
C144 C 0.09145 0.86047 0.73613 0.0
C145 C 0.10725 0.92141 0.73955 0.0
N146 N 0.17221 0.93057 0.72712 0.0
N147 N 0.13207 0.8684 0.72862 0.0
C148 C 0.19031 0.03663 0.73373 0.0
H149 H 0.2151 0.05712 0.72661 0.0
H150 H 0.2272 0.0563 0.73969 0.0
H151 H 0.15441 0.05221 0.73522 0.0
C152 C 0.42365 0.08344 0.72495 0.0
N153 N 0.37155 0.05567 0.71895 0.0
N154 N 0.3207 0.01513 0.72413 0.0
C155 C 0.33936 0.01405 0.73354 0.0
C156 C 0.40502 0.05793 0.7344 0.0
C157 C 0.49093 0.12821 0.72144 0.0
H158 H 0.50609 0.10157 0.71638 0.0
H159 H 0.49173 0.16827 0.71717 0.0
H160 H 0.52573 0.1482 0.72769 0.0
O161 O 0.32936 0.96475 0.70006 0.0
O162 O 0.24176 0.90026 0.70889 0.0
H163 H 0.25974 0.92265 0.73809 0.0
H164 H 0.32354 0.96013 0.74718 0.0
C165 C 0.29599 0.96929 0.74142 0.0
H166 H 0.27044 0.99139 0.74515 0.0
H167 H 0.13258 0.83144 0.72457 0.0
O168 O 0.45113 0.11053 0.69916 0.0
C169 C 0.28229 0.90866 0.70208 0.0
Co170 Co 0.32737 0.3801 0.87288 0.0
Co171 Co 0.26239 0.24051 0.88172 0.0
C172 C 0.19323 0.28779 0.86777 0.0
O173 O 0.23985 0.34567 0.86745 0.0
O174 O 0.19732 0.24434 0.87268 0.0
C175 C 0.36945 0.51033 0.8652 0.0
O176 O 0.3086 0.49565 0.86521 0.0
C177 C 0.16918 0.15423 0.89625 0.0
C178 C 0.19133 0.07523 0.89751 0.0
C179 C 0.15255 0.09775 0.90146 0.0
N180 N 0.2162 0.16494 0.88976 0.0
N181 N 0.22884 0.11722 0.89047 0.0
C182 C 0.14076 0.19744 0.8972 0.0
H183 H 0.14709 0.22436 0.89022 0.0
H184 H 0.16633 0.23341 0.90316 0.0
H185 H 0.08863 0.16903 0.89906 0.0
C186 C 0.35145 0.41571 0.89415 0.0
N187 N 0.32584 0.37204 0.88676 0.0
N188 N 0.30446 0.31382 0.89036 0.0
C189 C 0.31927 0.31875 0.90008 0.0
C190 C 0.3485 0.38354 0.90292 0.0
C191 C 0.37689 0.48642 0.89272 0.0
H192 H 0.35027 0.49417 0.88663 0.0
H193 H 0.37197 0.50907 0.8996 0.0
H194 H 0.42868 0.51003 0.89064 0.0
O195 O 0.3688 0.33319 0.86703 0.0
O196 O 0.32785 0.23495 0.87342 0.0
H197 H 0.35433 0.2817 0.91168 0.0
H198 H 0.268 0.23903 0.90997 0.0
C199 C 0.31506 0.26399 0.90607 0.0
H200 H 0.31898 0.2288 0.90118 0.0
H201 H 0.26411 0.11414 0.88634 0.0
O202 O 0.3848 0.47004 0.86852 0.0
C203 C 0.3674 0.27927 0.86765 0.0
Co204 Co 0.65734 0.04172 0.82476 0.0
Co205 Co 0.73128 0.98945 0.81179 0.0
C206 C 0.80089 0.09304 0.82683 0.0
O207 O 0.74903 0.09271 0.82914 0.0
O208 O 0.8017 0.05561 0.82017 0.0
C209 C 0.63607 0.14216 0.83128 0.0
O210 O 0.69202 0.17712 0.82687 0.0
C211 C 0.82409 0.98675 0.79761 0.0
C212 C 0.77186 0.88496 0.79269 0.0
C213 C 0.82902 0.94281 0.79137 0.0
N214 N 0.76696 0.95597 0.80234 0.0
N215 N 0.73616 0.8951 0.79939 0.0
C216 C 0.86992 0.05775 0.79859 0.0
H217 H 0.84398 0.08271 0.80119 0.0
H218 H 0.89366 0.07854 0.79139 0.0
H219 H 0.90758 0.06599 0.80415 0.0
C220 C 0.61863 0.06239 0.80474 0.0
N221 N 0.65129 0.0435 0.81073 0.0
N222 N 0.68291 0.0227 0.80527 0.0
C223 C 0.67138 0.02794 0.79561 0.0
C224 C 0.63052 0.05356 0.79496 0.0
C225 C 0.57348 0.08448 0.8083 0.0
H226 H 0.54684 0.05643 0.81491 0.0
H227 H 0.60185 0.13627 0.81037 0.0
H228 H 0.53825 0.07875 0.80245 0.0
O229 O 0.61972 0.95152 0.82955 0.0
O230 O 0.6745 0.91682 0.82059 0.0
H231 H 0.68373 0.95806 0.78746 0.0
H232 H 0.68763 0.02234 0.77989 0.0
C233 C 0.70048 0.01046 0.78718 0.0
H234 H 0.75376 0.03719 0.78794 0.0
H235 H 0.69047 0.86058 0.8019 0.0
O236 O 0.61045 0.08105 0.83124 0.0
C237 C 0.63284 0.90765 0.82722 0.0
Co238 Co 0.63526 0.65629 0.99262 0.0
Co239 Co 0.75504 0.72778 0.97849 0.0
C240 C 0.72151 0.79798 0.9941 0.0
O241 O 0.67111 0.74662 0.99683 0.0
O242 O 0.75805 0.79768 0.98722 0.0
C243 C 0.51338 0.61537 1.00316 0.0
O244 O 0.52222 0.67336 1.00146 0.0
C245 C 0.83172 0.81639 0.96238 0.0
C246 C 0.89806 0.78031 0.95857 0.0
C247 C 0.88196 0.82672 0.95604 0.0
N248 N 0.81916 0.76646 0.96835 0.0
N249 N 0.85917 0.74531 0.96605 0.0
C250 C 0.79327 0.85019 0.96243 0.0
H251 H 0.74432 0.81799 0.96549 0.0
H252 H 0.78939 0.86579 0.95484 0.0
H253 H 0.8178 0.89353 0.96726 0.0
C254 C 0.56732 0.6119 0.97346 0.0
N255 N 0.62136 0.64832 0.97874 0.0
N256 N 0.67152 0.67314 0.97278 0.0
C257 C 0.65123 0.64991 0.96354 0.0
C258 C 0.58408 0.61007 0.96362 0.0
C259 C 0.50086 0.58213 0.97778 0.0
H260 H 0.49833 0.6168 0.98295 0.0
H261 H 0.46352 0.56949 0.97197 0.0
H262 H 0.49055 0.53819 0.98201 0.0
O263 O 0.69489 0.624 0.99657 0.0
O264 O 0.77968 0.67546 0.98667 0.0
H265 H 0.67394 0.61882 0.94977 0.0
H266 H 0.70961 0.7051 0.95134 0.0
C267 C 0.69627 0.65909 0.95519 0.0
H268 H 0.74088 0.66173 0.9581 0.0
H269 H 0.85951 0.70652 0.96954 0.0
O270 O 0.55409 0.60029 0.99992 0.0
C271 C 0.75047 0.63581 0.99365 0.0
Co272 Co 0.97913 0.61119 0.16048 0.0
Co273 Co 0.03443 0.74439 0.14938 0.0
C274 C 0.92766 0.70064 0.16432 0.0
O275 O 0.9267 0.64768 0.16591 0.0
O276 O 0.96634 0.74155 0.15809 0.0
C277 C 0.88206 0.4888 0.16746 0.0
O278 O 0.84525 0.51297 0.16495 0.0
C279 C 0.02433 0.83224 0.13533 0.0
C280 C 0.12653 0.9038 0.13239 0.0
C281 C 0.06383 0.88705 0.1298 0.0
N282 N 0.06197 0.81743 0.14087 0.0
N283 N 0.12302 0.86078 0.13916 0.0
C284 C 0.95238 0.79099 0.13479 0.0
H285 H 0.93702 0.74116 0.1373 0.0
H286 H 0.93498 0.78981 0.12711 0.0
H287 H 0.93012 0.81148 0.13975 0.0
C288 C 0.95766 0.56408 0.13934 0.0
N289 N 0.97774 0.6111 0.14628 0.0
N290 N 0.00583 0.66753 0.14182 0.0
C291 C 0.00824 0.6586 0.13202 0.0
C292 C 0.97641 0.59258 0.13 0.0
C293 C 0.91832 0.49357 0.14163 0.0
H294 H 0.88259 0.48576 0.14745 0.0
H295 H 0.89173 0.465 0.13502 0.0
H296 H 0.95057 0.47615 0.14445 0.0
O297 O 0.07024 0.66431 0.16566 0.0
O298 O 0.10643 0.75832 0.15792 0.0
H299 H 0.06408 0.69496 0.11854 0.0
H300 H 0.01881 0.73358 0.12219 0.0
C301 C 0.0479 0.71235 0.12495 0.0
H302 H 0.09138 0.75047 0.12876 0.0
H303 H 0.16228 0.86015 0.14245 0.0
O304 O 0.94259 0.52205 0.16595 0.0
C305 C 0.11443 0.72256 0.16407 0.0
Co306 Co 0.35456 0.96219 0.3258 0.0
Co307 Co 0.29307 0.03883 0.31621 0.0
C308 C 0.21751 0.92362 0.32955 0.0
O309 O 0.26443 0.91301 0.3304 0.0
O310 O 0.22266 0.97097 0.3245 0.0
C311 C 0.37485 0.85653 0.33035 0.0
O312 O 0.31764 0.82167 0.32625 0.0
C313 C 0.19897 0.04282 0.30285 0.0
C314 C 0.2428 0.1464 0.29926 0.0
C315 C 0.1903 0.08617 0.29709 0.0
N316 N 0.25394 0.07585 0.3081 0.0
N317 N 0.27952 0.13788 0.30602 0.0
C318 C 0.16058 0.9706 0.30251 0.0
H319 H 0.19086 0.94972 0.30486 0.0
H320 H 0.14149 0.95337 0.29494 0.0
H321 H 0.11925 0.95352 0.3077 0.0
C322 C 0.3944 0.96178 0.30511 0.0
N323 N 0.35959 0.97247 0.31193 0.0
N324 N 0.33404 0.00461 0.30784 0.0
C325 C 0.35168 0.01503 0.29821 0.0
C326 C 0.39063 0.98844 0.29617 0.0
C327 C 0.43806 0.9355 0.30756 0.0
H328 H 0.46657 0.95974 0.3143 0.0
H329 H 0.40822 0.88316 0.30916 0.0
H330 H 0.47171 0.9424 0.30141 0.0
O331 O 0.39857 0.04808 0.33199 0.0
O332 O 0.35929 0.10621 0.32523 0.0
H333 H 0.353 0.10231 0.29419 0.0
H334 H 0.35432 0.05562 0.28369 0.0
C335 C 0.33457 0.05285 0.29122 0.0
H336 H 0.28138 0.02914 0.29057 0.0
H337 H 0.32314 0.1741 0.30896 0.0
O338 O 0.40017 0.91752 0.33063 0.0
C339 C 0.39782 0.10078 0.33121 0.0
Co340 Co 0.37732 0.35415 0.49203 0.0
Co341 Co 0.2478 0.27497 0.47991 0.0
C342 C 0.28986 0.21033 0.49462 0.0
O343 O 0.34122 0.26315 0.49664 0.0
O344 O 0.24945 0.20773 0.48821 0.0
C345 C 0.50447 0.38421 0.49703 0.0
O346 O 0.48628 0.33066 0.49201 0.0
C347 C 0.15476 0.1799 0.46572 0.0
C348 C 0.09772 0.2257 0.46139 0.0
C349 C 0.10472 0.17244 0.45953 0.0
N350 N 0.17626 0.23508 0.47089 0.0
N351 N 0.14143 0.26177 0.46836 0.0
C352 C 0.18641 0.1394 0.46604 0.0
H353 H 0.23683 0.16832 0.46878 0.0
H354 H 0.18628 0.11963 0.45858 0.0
H355 H 0.15934 0.09854 0.47121 0.0
C356 C 0.4278 0.39921 0.47168 0.0
N357 N 0.38049 0.35982 0.47795 0.0
N358 N 0.32663 0.32556 0.47289 0.0
C359 C 0.33828 0.34169 0.46323 0.0
C360 C 0.40258 0.38897 0.46214 0.0
C361 C 0.49328 0.4513 0.47492 0.0
H362 H 0.4892 0.47413 0.48184 0.0
H363 H 0.524 0.42958 0.47646 0.0
H364 H 0.51707 0.48882 0.46913 0.0
O365 O 0.32309 0.38899 0.49727 0.0
O366 O 0.23161 0.33111 0.48885 0.0
H367 H 0.25135 0.3291 0.45658 0.0
H368 H 0.30944 0.33135 0.44777 0.0
C369 C 0.28813 0.31459 0.45523 0.0
H370 H 0.26399 0.26125 0.45534 0.0
H371 H 0.14862 0.30553 0.47119 0.0
O372 O 0.46515 0.4051 0.49794 0.0
C373 C 0.265 0.37394 0.49531 0.0
Co374 Co 0.04179 0.38542 0.6583 0.0
Co375 Co 0.96748 0.25904 0.6454 0.0
C376 C 0.06236 0.2737 0.6614 0.0
O377 O 0.07921 0.33217 0.66337 0.0
O378 O 0.02015 0.24193 0.65481 0.0
C379 C 0.1494 0.50636 0.66489 0.0
O380 O 0.18381 0.48521 0.66032 0.0
C381 C 0.96518 0.16658 0.63101 0.0
C382 C 0.86319 0.11379 0.62618 0.0
C383 C 0.92268 0.11815 0.62461 0.0
N384 N 0.93233 0.18953 0.63604 0.0
N385 N 0.87123 0.15738 0.63319 0.0
C386 C 0.03695 0.19565 0.63173 0.0
H387 H 0.05937 0.24549 0.63474 0.0
H388 H 0.05789 0.19645 0.62435 0.0
H389 H 0.0482 0.16632 0.63686 0.0
C390 C 0.0587 0.44424 0.6383 0.0
N391 N 0.04409 0.39311 0.6442 0.0
N392 N 0.0144 0.3399 0.63886 0.0
C393 C 0.01013 0.35558 0.62941 0.0
C394 C 0.03749 0.42209 0.62872 0.0
C395 C 0.08136 0.51104 0.64211 0.0
H396 H 0.0515 0.50892 0.64854 0.0
H397 H 0.13211 0.53236 0.64466 0.0
H398 H 0.07896 0.5427 0.63631 0.0
O399 O 0.95014 0.34431 0.66269 0.0
O400 O 0.89626 0.25738 0.65314 0.0
H401 H 0.92133 0.27807 0.62375 0.0
H402 H 0.97521 0.33101 0.61427 0.0
C403 C 0.97258 0.30738 0.62146 0.0
H404 H 0.99251 0.27477 0.6204 0.0
H405 H 0.83533 0.16605 0.6359 0.0
O406 O 0.08816 0.47182 0.66483 0.0
C407 C 0.89746 0.29464 0.66002 0.0
H408 H 0.83939 0.88148 1.00207 0.0
H409 H 0.64369 0.84632 0.99915 0.0
H410 H 0.67123 0.94077 1.0099 0.0
H411 H 0.85352 0.9207 0.02778 0.0
H412 H 0.93787 0.98131 0.02723 0.0
H413 H 0.90501 0.91522 0.01853 0.0
H414 H 0.94555 0.99584 1.00386 0.0
H415 H 0.97931 0.06219 0.01252 0.0
H416 H 0.92287 0.05728 1.0032 0.0
H417 H 0.72106 0.04017 0.02073 0.0
H418 H 0.78776 0.13376 0.03164 0.0
H419 H 0.94696 0.09622 0.02909 0.0
C420 C 0.80293 0.89474 1.00353 0.0
C421 C 0.73989 0.85791 0.99963 0.0
C422 C 0.69251 0.87483 1.00198 0.0
C423 C 0.70768 0.92816 1.00808 0.0
C424 C 0.77003 0.96297 0.01197 0.0
C425 C 0.81676 0.94667 1.00986 0.0
C426 C 0.87869 0.98928 0.01551 0.0
C427 C 0.89468 0.94922 0.02269 0.0
C428 C 0.93492 0.02848 1.00835 0.0
C429 C 0.85966 0.03236 0.02108 0.0
C430 C 0.79705 0.01692 0.01883 0.0
C431 C 0.76982 0.05216 0.02265 0.0
C432 C 0.80785 0.10499 0.02885 0.0
C433 C 0.8717 0.12099 0.03135 0.0
C434 C 0.89759 0.08375 0.0275 0.0
H435 H 0.95742 0.82024 0.17084 0.0
H436 H 0.80762 0.61879 0.1719 0.0
H437 H 0.74216 0.64756 0.18279 0.0
H438 H 0.94504 0.85294 0.1964 0.0
H439 H 0.96142 0.93413 0.1942 0.0
H440 H 0.99425 0.89816 0.18602 0.0
H441 H 0.94065 0.92033 0.17096 0.0
H442 H 0.90809 0.95684 0.17908 0.0
H443 H 0.85491 0.89092 0.1711 0.0
H444 H 0.69181 0.70004 0.19306 0.0
H445 H 0.66398 0.77049 0.20287 0.0
H446 H 0.85201 0.93513 0.19638 0.0
C447 C 0.91043 0.78231 0.17326 0.0
C448 C 0.88692 0.71744 0.17043 0.0
C449 C 0.8261 0.66884 0.17395 0.0
C450 C 0.78872 0.68475 0.18012 0.0
C451 C 0.81361 0.74922 0.18285 0.0
C452 C 0.87341 0.79708 0.17961 0.0
C453 C 0.8907 0.86212 0.18399 0.0
C454 C 0.95145 0.88835 0.19054 0.0
C455 C 0.89905 0.91038 0.17579 0.0
C456 C 0.83103 0.84363 0.19013 0.0
C457 C 0.78672 0.77846 0.18929 0.0
C458 C 0.72648 0.75093 0.19388 0.0
C459 C 0.7111 0.79118 0.19943 0.0
C460 C 0.75632 0.85779 0.2005 0.0
C461 C 0.81718 0.88403 0.19586 0.0
H462 H 0.90499 0.84312 0.3615 0.0
H463 H 0.87121 0.64788 0.36447 0.0
H464 H 0.96889 0.67736 0.35451 0.0
H465 H 0.95591 0.86252 0.33614 0.0
H466 H 0.01567 0.94673 0.33745 0.0
H467 H 0.94531 0.91156 0.34528 0.0
H468 H 0.01846 0.94925 0.3609 0.0
H469 H 0.08904 0.985 0.35312 0.0
H470 H 0.0796 0.92663 0.36238 0.0
H471 H 0.07138 0.72878 0.34456 0.0
H472 H 0.16901 0.79724 0.33463 0.0
H473 H 0.13113 0.95645 0.33703 0.0
C474 C 0.91869 0.80687 0.36016 0.0
C475 C 0.88108 0.74341 0.36383 0.0
C476 C 0.8996 0.69683 0.36174 0.0
C477 C 0.95493 0.71312 0.3561 0.0
C478 C 0.99056 0.77589 0.35248 0.0
C479 C 0.97299 0.82192 0.35436 0.0
C480 C 0.01811 0.8851 0.34925 0.0
C481 C 0.98155 0.90247 0.34158 0.0
C482 C 0.05339 0.93971 0.35687 0.0
C483 C 0.06408 0.86754 0.34427 0.0
C484 C 0.04766 0.80449 0.3463 0.0
C485 C 0.08441 0.77803 0.34284 0.0
C486 C 0.1397 0.81723 0.33722 0.0
C487 C 0.1571 0.88179 0.33498 0.0
C488 C 0.11831 0.90689 0.33848 0.0
H489 H 0.16986 0.11478 0.49987 0.0
H490 H 0.3733 0.17638 0.50304 0.0
H491 H 0.34505 0.08182 0.51378 0.0
H492 H 0.12934 0.06755 0.52495 0.0
H493 H 0.05055 1.00015 0.52215 0.0
H494 H 0.0865 0.069 0.51403 0.0
H495 H 0.07379 0.99467 0.49916 0.0
H496 H 0.03728 0.92547 0.50722 0.0
H497 H 0.10717 0.94178 0.49998 0.0
H498 H 0.29304 0.97838 0.52396 0.0
H499 H 0.22271 0.88029 0.53379 0.0
H500 H 0.05532 0.89467 0.52523 0.0
C501 C 0.20842 0.10776 0.50269 0.0
C502 C 0.2737 0.15212 0.50051 0.0
C503 C 0.32294 0.14247 0.50456 0.0
C504 C 0.30733 0.08898 0.51065 0.0
C505 C 0.24238 0.04647 0.51275 0.0
C506 C 0.19382 0.05576 0.50896 0.0
C507 C 0.1282 0.00573 0.51282 0.0
C508 C 0.09684 0.03753 0.51885 0.0
C509 C 0.08402 0.96447 0.50429 0.0
C510 C 0.14726 0.96673 0.5194 0.0
C511 C 0.21317 0.99019 0.51914 0.0
C512 C 0.2415 0.96006 0.5243 0.0
C513 C 0.20134 0.90453 0.52985 0.0
C514 C 0.13401 0.88088 0.53037 0.0
C515 C 0.1069 0.91267 0.52512 0.0
H516 H 0.29411 0.18154 0.69201 0.0
H517 H 0.11779 0.01205 0.70182 0.0
H518 H 0.0533 0.04844 0.69255 0.0
H519 H 0.22942 0.29239 0.69349 0.0
H520 H 0.27226 0.33741 0.68265 0.0
H521 H 0.3058 0.29925 0.69024 0.0
H522 H 0.31282 0.23822 0.67484 0.0
H523 H 0.27898 0.27589 0.66722 0.0
H524 H 0.24107 0.18911 0.6676 0.0
H525 H 0.00776 0.09597 0.68127 0.0
H526 H 0.98176 0.15991 0.66981 0.0
H527 H 0.18492 0.30493 0.66801 0.0
C528 C 0.24193 0.15243 0.69225 0.0
C529 C 0.21109 0.09372 0.69763 0.0
C530 C 0.14268 0.05718 0.6978 0.0
C531 C 0.10549 0.07733 0.69253 0.0
C532 C 0.1372 0.13471 0.68722 0.0
C533 C 0.20371 0.17249 0.68714 0.0
C534 C 0.22487 0.23249 0.68084 0.0
C535 C 0.26017 0.29403 0.68719 0.0
C536 C 0.26692 0.23398 0.67211 0.0
C537 C 0.15979 0.22165 0.67728 0.0
C538 C 0.11018 0.16444 0.68101 0.0
C539 C 0.04598 0.14132 0.6784 0.0
C540 C 0.03178 0.17776 0.67185 0.0
C541 C 0.0813 0.23725 0.6681 0.0
C542 C 0.14621 0.25989 0.67089 0.0
H543 H 0.89272 0.06451 0.83294 0.0
H544 H 0.8411 0.21455 0.83381 0.0
H545 H 0.9376 0.28231 0.84415 0.0
H546 H 0.94184 0.08187 0.85826 0.0
H547 H 0.00641 0.06499 0.85607 0.0
H548 H 0.93681 0.03088 0.84803 0.0
H549 H 0.0109 0.08179 0.83277 0.0
H550 H 0.0808 0.11567 0.84075 0.0
H551 H 0.06712 0.16745 0.83261 0.0
H552 H 0.04102 0.33409 0.85415 0.0
H553 H 0.13869 0.36264 0.86417 0.0
H554 H 0.11583 0.17402 0.85814 0.0
C555 C 0.90246 0.1121 0.83517 0.0
C556 C 0.86036 0.135 0.83247 0.0
C557 C 0.87331 0.19659 0.83576 0.0
C558 C 0.9279 0.2353 0.84162 0.0
C559 C 0.96816 0.21103 0.84426 0.0
C560 C 0.95568 0.15055 0.84124 0.0
C561 C 1.00397 0.13398 0.84565 0.0
C562 C 0.97022 0.07441 0.8524 0.0
C563 C 0.04301 0.12417 0.83746 0.0
C564 C 0.04578 0.19468 0.85159 0.0
C565 C 0.02492 0.23894 0.85058 0.0
C566 C 0.05744 0.29959 0.85507 0.0
C567 C 0.11277 0.31539 0.86073 0.0
C568 C 0.13408 0.2702 0.86202 0.0
C569 C 0.09983 0.20901 0.85742 0.0
H570 H 0.11435 0.08988 0.08061 0.0
H571 H 0.94981 0.1092 0.08927 0.0
H572 H 0.93161 0.03837 0.1036 0.0
H573 H 0.05114 0.9233 0.08836 0.0
H574 H 0.12853 0.93811 0.09284 0.0
H575 H 0.12446 0.98529 0.08275 0.0
H576 H 0.19793 0.0904 0.09254 0.0
H577 H 0.20206 0.04361 0.10267 0.0
H578 H 0.17456 0.10043 0.10483 0.0
H579 H 0.93524 0.96919 0.11764 0.0
H580 H 0.96199 0.91058 0.13016 0.0
H581 H 0.12644 0.94064 0.11254 0.0
C582 C 0.07391 0.0787 0.08543 0.0
C583 C 0.03238 0.1038 0.08357 0.0
C584 C 0.98076 0.08865 0.09021 0.0
C585 C 0.97046 0.04891 0.09848 0.0
C586 C 0.01249 0.02514 0.10007 0.0
C587 C 0.0633 0.03968 0.09373 0.0
C588 C 0.10383 0.01124 0.09733 0.0
C589 C 0.10184 0.96152 0.08987 0.0
C590 C 0.17371 0.06461 0.09947 0.0
C591 C 0.06843 0.97901 0.10677 0.0
C592 C 0.0155 0.98694 0.1082 0.0
C593 C 0.97617 0.96213 0.11653 0.0
C594 C 0.99143 0.92844 0.12357 0.0
C595 C 0.04566 0.92012 0.12224 0.0
C596 C 0.08453 0.94602 0.11374 0.0
H597 H 0.05288 0.13241 0.24551 0.0
H598 H 0.8641 0.97882 0.25465 0.0
H599 H 0.9114 0.96537 0.27005 0.0
H600 H 0.14704 0.06481 0.25583 0.0
H601 H 0.21229 0.14214 0.25979 0.0
H602 H 0.1641 0.13695 0.24916 0.0
H603 H 0.13802 0.21959 0.25729 0.0
H604 H 0.1858 0.22477 0.26796 0.0
H605 H 0.10256 0.20366 0.26949 0.0
H606 H 0.9786 0.97128 0.28485 0.0
H607 H 0.06097 0.99572 0.29779 0.0
H608 H 0.20586 0.14682 0.27928 0.0
C609 C 0.02165 0.09542 0.25071 0.0
C610 C 0.95511 0.05508 0.24866 0.0
C611 C 0.91565 0.00823 0.25576 0.0
C612 C 0.94198 1.00082 0.26463 0.0
C613 C 0.00779 0.04109 0.26638 0.0
C614 C 0.04714 0.08752 0.25962 0.0
C615 C 0.11596 0.1259 0.26343 0.0
C616 C 0.16259 0.11688 0.25665 0.0
C617 C 0.13678 0.19773 0.26462 0.0
C618 C 0.10906 0.09402 0.27341 0.0
C619 C 0.04631 0.04509 0.27496 0.0
C620 C 0.02805 0.00904 0.28367 0.0
C621 C 0.0753 0.02293 0.29095 0.0
C622 C 0.1401 0.07227 0.28947 0.0
C623 C 0.15675 0.10865 0.28062 0.0
H624 H 0.0602 0.18847 0.44173 0.0
H625 H 0.06391 0.04235 0.46033 0.0
H626 H 1.00169 0.95957 0.44765 0.0
H627 H 0.89856 0.09059 0.43299 0.0
H628 H 0.91555 0.12421 0.42067 0.0
H629 H 0.96286 0.1723 0.43102 0.0
H630 H 0.06765 0.19237 0.42221 0.0
H631 H 0.02065 0.1443 0.41183 0.0
H632 H 0.07498 0.12441 0.41815 0.0
H633 H 0.93451 0.8919 0.43325 0.0
H634 H 0.86867 0.84464 0.41825 0.0
H635 H 0.90987 0.03499 0.40883 0.0
C636 C 0.04817 0.13907 0.44312 0.0
C637 C 0.0682 0.12216 0.45194 0.0
C638 C 0.05104 0.05694 0.45351 0.0
C639 C 0.01514 0.00943 0.44638 0.0
C640 C 0.99662 0.02791 0.43774 0.0
C641 C 0.01257 0.09119 0.43608 0.0
C642 C 0.98573 0.09823 0.42627 0.0
C643 C 0.93783 0.12277 0.42784 0.0
C644 C 0.04053 0.14244 0.4192 0.0
C645 C 0.95161 0.02886 0.42269 0.0
C646 C 0.9586 0.9891 0.4294 0.0
C647 C 0.92978 0.92278 0.42786 0.0
C648 C 0.89308 0.89643 0.41921 0.0
C649 C 0.886 0.93637 0.41215 0.0
C650 C 0.91531 0.00338 0.414 0.0
H651 H 0.86332 0.07356 0.60669 0.0
H652 H 0.0099 0.07462 0.62587 0.0
H653 H 0.03212 0.01332 0.6133 0.0
H654 H 0.8006 0.91161 0.59791 0.0
H655 H 0.78506 0.92901 0.58554 0.0
H656 H 0.78303 0.97583 0.59586 0.0
H657 H 0.86818 0.08089 0.58721 0.0
H658 H 0.87064 0.03436 0.57687 0.0
H659 H 0.94403 0.08861 0.58339 0.0
H660 H 0.03598 0.94875 0.59884 0.0
H661 H 0.01924 0.88341 0.58382 0.0
H662 H 0.86954 0.92324 0.57402 0.0
C663 C 0.90029 0.06112 0.60824 0.0
C664 C 0.9362 0.08067 0.61716 0.0
C665 C 0.98355 0.06265 0.61894 0.0
C666 C 0.99607 0.02716 0.61188 0.0
C667 C 0.96045 0.00954 0.6031 0.0
C668 C 0.91328 0.0256 0.60127 0.0
C669 C 0.88049 0.99907 0.59138 0.0
C670 C 0.80801 0.95102 0.59276 0.0
C671 C 0.89152 0.05402 0.58429 0.0
C672 C 0.91636 0.96524 0.58793 0.0
C673 C 0.96249 0.97213 0.59478 0.0
C674 C 1.00069 0.94387 0.59335 0.0
C675 C 0.99139 0.90747 0.58472 0.0
C676 C 0.94456 0.89997 0.57757 0.0
C677 C 0.90643 0.92903 0.57927 0.0
H678 H 0.97873 0.86279 0.74413 0.0
H679 H 0.16776 0.01069 0.7543 0.0
H680 H 0.1174 0.03478 0.7684 0.0
H681 H 0.8933 0.94722 0.75067 0.0
H682 H 0.82138 0.87509 0.75457 0.0
H683 H 0.87234 0.87039 0.74516 0.0
H684 H 0.88329 0.78522 0.75557 0.0
H685 H 0.83236 0.78965 0.76501 0.0
H686 H 0.91175 0.80387 0.76819 0.0
H687 H 0.04652 0.03968 0.7818 0.0
H688 H 0.96062 0.0264 0.79328 0.0
H689 H 0.81706 0.8777 0.77414 0.0
C690 C 0.00938 0.90037 0.74931 0.0
C691 C 0.07701 0.93596 0.74799 0.0
C692 C 0.1157 0.98439 0.75497 0.0
C693 C 0.08755 0.99797 0.76306 0.0
C694 C 0.02062 0.9626 0.76409 0.0
C695 C 0.98199 0.91486 0.7574 0.0
C696 C 0.91135 0.8837 0.76024 0.0
C697 C 0.8723 0.89479 0.75218 0.0
C698 C 0.88304 0.81132 0.76238 0.0
C699 C 0.91638 0.92101 0.76961 0.0
C700 C 0.97979 0.96625 0.77171 0.0
C701 C 0.99655 0.00519 0.78014 0.0
C702 C 0.94715 0.99787 0.78657 0.0
C703 C 0.88163 0.95249 0.78448 0.0
C704 C 0.86653 0.91341 0.7759 0.0
H705 H 0.92894 0.81236 0.9384 0.0
H706 H 0.91197 0.95394 0.95634 0.0
H707 H 0.97406 0.0377 0.94384 0.0
H708 H 0.08964 0.91415 0.93084 0.0
H709 H 0.07831 0.88162 0.91847 0.0
H710 H 0.02813 0.83177 0.92842 0.0
H711 H 0.92556 0.80896 0.91857 0.0
H712 H 0.97545 0.85852 0.90856 0.0
H713 H 0.91721 0.87567 0.91419 0.0
H714 H 0.04737 0.10804 0.93019 0.0
H715 H 0.12058 0.15828 0.9161 0.0
H716 H 0.08598 0.97011 0.90655 0.0
C717 C 0.93751 0.86083 0.93963 0.0
C718 C 0.91445 0.87631 0.94825 0.0
C719 C 0.92729 0.94039 0.94965 0.0
C720 C 0.96311 0.98847 0.94263 0.0
C721 C 0.98545 0.9716 0.93423 0.0
C722 C 0.97267 0.90917 0.93267 0.0
C723 C 1.00388 0.904 0.9232 0.0
C724 C 0.0529 0.88157 0.92537 0.0
C725 C 0.95245 0.85913 0.91568 0.0
C726 C 0.03731 0.97357 0.91977 0.0
C727 C 0.02606 0.01177 0.92623 0.0
C728 C 0.05497 0.07828 0.92492 0.0
C729 C 0.09598 0.10638 0.91677 0.0
C730 C 0.10708 0.068 0.90989 0.0
C731 C 0.07749 1.00072 0.91152 0.0
H732 H 0.40054 0.61613 1.0071 0.0
H733 H 0.49709 0.505 0.0117 0.0
H734 H 0.40284 0.42369 0.021 0.0
H735 H 0.32241 0.58507 0.03088 0.0
H736 H 0.24861 0.57783 0.02606 0.0
H737 H 0.32403 0.62821 0.01982 0.0
H738 H 0.27564 0.56477 1.00351 0.0
H739 H 0.20008 0.51417 1.0097 0.0
H740 H 0.24097 0.47826 1.0034 0.0
H741 H 0.30071 0.3563 0.03017 0.0
H742 H 0.19345 0.30322 0.03803 0.0
H743 H 0.1595 0.45443 0.02697 0.0
C744 C 0.40186 0.57479 1.01009 0.0
C745 C 0.4563 0.56705 1.00871 0.0
C746 C 0.45592 0.51193 0.01265 0.0
C747 C 0.40267 0.4655 0.01797 0.0
C748 C 0.34983 0.47449 0.0192 0.0
C749 C 0.34861 0.52738 0.01533 0.0
C750 C 0.28495 0.52441 0.01758 0.0
C751 C 0.29567 0.58232 0.02397 0.0
C752 C 0.24825 0.52013 1.00798 0.0
C753 C 0.25096 0.46185 0.02339 0.0
C754 C 0.28957 0.43419 0.02426 0.0
C755 C 0.2698 0.37723 0.02949 0.0
C756 C 0.20883 0.34755 0.03396 0.0
C757 C 0.16794 0.37451 0.03309 0.0
C758 C 0.18939 0.43235 0.02769 0.0
H759 H 0.94018 0.43597 0.17881 0.0
H760 H 0.75681 0.39358 0.16575 0.0
H761 H 0.70486 0.28489 0.17313 0.0
H762 H 0.91936 0.2746 0.1762 0.0
H763 H 0.9561 0.27719 0.188 0.0
H764 H 0.98046 0.35081 0.18125 0.0
H765 H 0.95351 0.39907 0.19649 0.0
H766 H 0.92895 0.3256 0.20328 0.0
H767 H 0.87386 0.356 0.20184 0.0
H768 H 0.67209 0.18257 0.1819 0.0
H769 H 0.65817 0.09212 0.19223 0.0
H770 H 0.8613 0.19979 0.20045 0.0
C771 C 0.88927 0.40344 0.17743 0.0
C772 C 0.85252 0.42304 0.17166 0.0
C773 C 0.78584 0.37962 0.17014 0.0
C774 C 0.75593 0.31771 0.17428 0.0
C775 C 0.7932 0.30005 0.17999 0.0
C776 C 0.85828 0.34151 0.18163 0.0
C777 C 0.88611 0.31094 0.18847 0.0
C778 C 0.93862 0.30291 0.18316 0.0
C779 C 0.91213 0.35025 0.19809 0.0
C780 C 0.82635 0.24599 0.19041 0.0
C781 C 0.77362 0.24086 0.18535 0.0
C782 C 0.71296 0.18589 0.1859 0.0
C783 C 0.70568 0.13465 0.1918 0.0
C784 C 0.75864 0.13857 0.19718 0.0
C785 C 0.81987 0.19523 0.19645 0.0
H786 H 0.48275 0.91254 0.34223 0.0
H787 H 0.34252 0.72968 0.32897 0.0
H788 H 0.39643 0.67659 0.33708 0.0
H789 H 0.62122 0.88968 0.34038 0.0
H790 H 0.65456 0.92751 0.35216 0.0
H791 H 0.60622 0.95168 0.34506 0.0
H792 H 0.52996 0.92691 0.36009 0.0
H793 H 0.57789 0.90242 0.36722 0.0
H794 H 0.49249 0.84783 0.36565 0.0
H795 H 0.46426 0.6433 0.34663 0.0
H796 H 0.54112 0.63063 0.35718 0.0
H797 H 0.63674 0.83473 0.36468 0.0
C798 C 0.46363 0.86141 0.34096 0.0
C799 C 0.40849 0.82522 0.33493 0.0
C800 C 0.38465 0.75834 0.33355 0.0
C801 C 0.41497 0.72778 0.33812 0.0
C802 C 0.46884 0.76474 0.34408 0.0
C803 C 0.49299 0.83003 0.34553 0.0
C804 C 0.55071 0.85821 0.35248 0.0
C805 C 0.61179 0.90982 0.3472 0.0
C806 C 0.5369 0.88543 0.36192 0.0
C807 C 0.55519 0.79844 0.35472 0.0
C808 C 0.50758 0.74523 0.34975 0.0
C809 C 0.50176 0.68457 0.35055 0.0
C810 C 0.54586 0.67799 0.35658 0.0
C811 C 0.59518 0.73172 0.36178 0.0
C812 C 0.59957 0.79272 0.36084 0.0
H813 H 0.78758 0.64105 0.53232 0.0
H814 H 0.90349 0.5598 0.52156 0.0
H815 H 0.8141 0.48551 0.51081 0.0
H816 H 0.63619 0.49169 0.53277 0.0
H817 H 0.58882 0.52677 0.52857 0.0
H818 H 0.66239 0.57516 0.53543 0.0
H819 H 0.70589 0.65877 0.52118 0.0
H820 H 0.63243 0.6106 0.51427 0.0
H821 H 0.70943 0.63249 0.50877 0.0
H822 H 0.71277 0.41799 0.50152 0.0
H823 H 0.60436 0.36173 0.49395 0.0
H824 H 0.55246 0.48611 0.51026 0.0
C825 C 0.79417 0.60775 0.52769 0.0
C826 C 0.85286 0.60655 0.52783 0.0
C827 C 0.85931 0.56206 0.52163 0.0
C828 C 0.80872 0.51945 0.51547 0.0
C829 C 0.75172 0.52176 0.51551 0.0
C830 C 0.74396 0.56471 0.52142 0.0
C831 C 0.67712 0.55643 0.52002 0.0
C832 C 0.63888 0.5363 0.52978 0.0
C833 C 0.68151 0.61826 0.51581 0.0
C834 C 0.64876 0.50192 0.51247 0.0
C835 C 0.69279 0.48279 0.51 0.0
C836 C 0.67784 0.43263 0.50335 0.0
C837 C 0.61604 0.40088 0.4991 0.0
C838 C 0.56989 0.41949 0.50149 0.0
C839 C 0.58679 0.47099 0.50823 0.0
H840 H 0.09512 0.55629 0.67757 0.0
H841 H 0.27623 0.60093 0.66353 0.0
H842 H 0.32984 0.70771 0.6717 0.0
H843 H 0.11471 0.71495 0.67589 0.0
H844 H 0.07907 0.71114 0.68782 0.0
H845 H 0.05482 0.63814 0.68087 0.0
H846 H 0.08448 0.58972 0.6958 0.0
H847 H 0.10893 0.66262 0.70279 0.0
H848 H 0.16467 0.63333 0.70101 0.0
H849 H 0.36305 0.81074 0.68095 0.0
H850 H 0.37476 0.90185 0.69111 0.0
H851 H 0.17317 0.78926 0.69971 0.0
C852 C 0.14606 0.58852 0.67621 0.0
C853 C 0.18146 0.57023 0.66988 0.0
C854 C 0.24811 0.61373 0.66835 0.0
C855 C 0.279 0.67455 0.67295 0.0
C856 C 0.24273 0.69102 0.67914 0.0
C857 C 0.17783 0.6492 0.68082 0.0
C858 C 0.15015 0.67865 0.68788 0.0
C859 C 0.09652 0.68617 0.68281 0.0
C860 C 0.12562 0.63869 0.69744 0.0
C861 C 0.20956 0.74374 0.68984 0.0
C862 C 0.26233 0.74991 0.68469 0.0
C863 C 0.32217 0.80632 0.68507 0.0
C864 C 0.32827 0.85789 0.69085 0.0
C865 C 0.27499 0.85269 0.69625 0.0
C866 C 0.21499 0.79452 0.69577 0.0
H867 H 0.37158 0.16678 0.86465 0.0
H868 H 0.46884 0.37046 0.85698 0.0
H869 H 0.547 0.35683 0.84693 0.0
H870 H 0.51497 0.15315 0.86653 0.0
H871 H 0.47812 0.07373 0.86105 0.0
H872 H 0.42925 0.09894 0.86775 0.0
H873 H 0.35509 0.07355 0.85239 0.0
H874 H 0.40376 0.04829 0.84564 0.0
H875 H 0.39008 0.11043 0.84066 0.0
H876 H 0.61572 0.32281 0.83792 0.0
H877 H 0.66971 0.26912 0.8301 0.0
H878 H 0.52775 0.0867 0.84313 0.0
C879 C 0.40936 0.20849 0.86087 0.0
C880 C 0.4139 0.2697 0.86163 0.0
C881 C 0.46401 0.32299 0.85651 0.0
C882 C 0.50885 0.31585 0.85078 0.0
C883 C 0.503 0.25506 0.85018 0.0
C884 C 0.45452 0.20218 0.85503 0.0
C885 C 0.45913 0.14213 0.85301 0.0
C886 C 0.47109 0.11544 0.86266 0.0
C887 C 0.3984 0.09056 0.8476 0.0
C888 C 0.51787 0.16978 0.84631 0.0
C889 C 0.54241 0.23507 0.84481 0.0
C890 C 0.59692 0.27164 0.83901 0.0
C891 C 0.6273 0.24068 0.83461 0.0
C892 C 0.60297 0.17371 0.83599 0.0
C893 C 0.54736 0.1379 0.8419 0.0
H894 H 0.51647 0.84994 0.83711 0.0
H895 H 0.6804 0.8262 0.82975 0.0
H896 H 0.6328 0.72529 0.83938 0.0
H897 H 0.49113 0.78618 0.862 0.0
H898 H 0.40422 0.74446 0.86115 0.0
H899 H 0.45192 0.81654 0.85398 0.0
H900 H 0.39643 0.75436 0.83786 0.0
H901 H 0.34828 0.68224 0.84498 0.0
H902 H 0.39723 0.68116 0.8349 0.0
H903 H 0.57007 0.62943 0.85002 0.0
H904 H 0.48965 0.53652 0.85959 0.0
H905 H 0.36194 0.61717 0.85938 0.0
C906 C 0.54232 0.82351 0.83756 0.0
C907 C 0.60228 0.84602 0.83272 0.0
C908 C 0.63432 0.80974 0.83336 0.0
C909 C 0.6079 0.75259 0.83886 0.0
C910 C 0.549 0.73189 0.84358 0.0
C911 C 0.51601 0.76555 0.84288 0.0
C912 C 0.45189 0.73061 0.84829 0.0
C913 C 0.44969 0.77192 0.85687 0.0
C914 C 0.39511 0.71092 0.84107 0.0
C915 C 0.45416 0.67213 0.85212 0.0
C916 C 0.51113 0.67456 0.84942 0.0
C917 C 0.52511 0.62673 0.85214 0.0
C918 C 0.47911 0.57424 0.85762 0.0
C919 C 0.41933 0.5694 0.86022 0.0
C920 C 0.40707 0.61942 0.85749 0.0
H921 H 0.77402 0.36318 0.0248 0.0
H922 H 0.98173 0.47493 0.02052 0.0
H923 H 0.9688 0.55613 1.01111 0.0
H924 H 0.72771 0.39374 1.00097 0.0
H925 H 0.66079 0.40078 1.00563 0.0
H926 H 0.68592 0.35075 0.012 0.0
H927 H 0.70011 0.41446 0.02825 0.0
H928 H 0.67497 0.46466 0.02194 0.0
H929 H 0.75152 0.50102 0.02833 0.0
H930 H 0.93374 0.6229 1.00167 0.0
H931 H 0.87912 0.67523 0.99361 0.0
H932 H 0.6944 0.52387 1.00464 0.0
C933 C 0.81671 0.40469 0.02187 0.0
C934 C 0.87887 0.41259 0.02335 0.0
C935 C 0.93364 0.4679 0.01949 0.0
C936 C 0.92682 0.51425 0.01411 0.0
C937 C 0.86498 0.50502 0.01276 0.0
C938 C 0.81088 0.45204 0.01659 0.0
C939 C 0.75013 0.45466 0.01421 0.0
C940 C 0.7034 0.39653 1.00782 0.0
C941 C 0.71726 0.45897 0.02375 0.0
C942 C 0.7786 0.51706 1.00838 0.0
C943 C 0.84489 0.545 1.00758 0.0
C944 C 0.88191 0.60179 1.0023 0.0
C945 C 0.85038 0.63103 0.99772 0.0
C946 C 0.78256 0.60384 0.99853 0.0
C947 C 0.74637 0.54615 1.00397 0.0
H948 H 0.40935 0.73998 0.19528 0.0
H949 H 0.48431 0.94706 0.19698 0.0
H950 H 0.38914 0.93401 0.18798 0.0
H951 H 0.34368 0.71679 0.171 0.0
H952 H 0.27203 0.64077 0.17358 0.0
H953 H 0.34482 0.66483 0.18059 0.0
H954 H 0.28278 0.65174 0.19695 0.0
H955 H 0.20964 0.62723 0.18998 0.0
H956 H 0.23865 0.69418 0.19851 0.0
H957 H 0.29229 0.90167 0.17781 0.0
H958 H 0.19204 0.84989 0.16803 0.0
H959 H 0.17366 0.66211 0.17332 0.0
C960 C 0.40535 0.78241 0.19384 0.0
C961 C 0.45458 0.84458 0.19682 0.0
C962 C 0.44745 0.89891 0.1948 0.0
C963 C 0.39352 0.8921 0.18967 0.0
C964 C 0.34655 0.83055 0.1867 0.0
C965 C 0.35116 0.77643 0.18879 0.0
C966 C 0.29339 0.71602 0.18464 0.0
C967 C 0.31479 0.68265 0.177 0.0
C968 C 0.25376 0.66955 0.19302 0.0
C969 C 0.25652 0.7451 0.17974 0.0
C970 C 0.28853 0.81132 0.18101 0.0
C971 C 0.26627 0.84978 0.17684 0.0
C972 C 0.20942 0.81984 0.17125 0.0
C973 C 0.1749 0.75192 0.16993 0.0
C974 C 0.1987 0.71403 0.17429 0.0
H975 H 0.5547 0.44851 0.35722 0.0
H976 H 0.69977 0.40903 0.36945 0.0
H977 H 0.64601 0.30213 0.36133 0.0
H978 H 0.41846 0.28599 0.35932 0.0
H979 H 0.38259 0.28981 0.34776 0.0
H980 H 0.43103 0.36243 0.35482 0.0
H981 H 0.50427 0.41497 0.33954 0.0
H982 H 0.45624 0.34246 0.33244 0.0
H983 H 0.54215 0.37469 0.33362 0.0
H984 H 0.57807 0.20099 0.3519 0.0
H985 H 0.5007 0.11095 0.34151 0.0
H986 H 0.40017 0.21606 0.33485 0.0
C987 C 0.57486 0.41715 0.35826 0.0
C988 C 0.63134 0.43697 0.36401 0.0
C989 C 0.65659 0.39486 0.3651 0.0
C990 C 0.62637 0.33405 0.36052 0.0
C991 C 0.57119 0.31629 0.35484 0.0
C992 C 0.54562 0.35649 0.35367 0.0
C993 C 0.48671 0.32612 0.34695 0.0
C994 C 0.42611 0.31545 0.35255 0.0
C995 C 0.49806 0.367 0.33758 0.0
C996 C 0.48327 0.26253 0.34452 0.0
C997 C 0.53236 0.25796 0.34921 0.0
C998 C 0.53939 0.20392 0.3482 0.0
C999 C 0.49497 0.15295 0.34227 0.0
C1000 C 0.44414 0.15626 0.33735 0.0
C1001 C 0.43854 0.2121 0.33848 0.0
H1002 H 0.24758 0.64768 0.52723 0.0
H1003 H 0.03921 0.52117 0.52748 0.0
H1004 H 0.05111 0.43945 0.51812 0.0
H1005 H 0.27488 0.61016 0.50289 0.0
H1006 H 0.34899 0.6111 0.50584 0.0
H1007 H 0.32521 0.65969 0.51293 0.0
H1008 H 0.33201 0.60522 0.52913 0.0
H1009 H 0.35628 0.55676 0.52209 0.0
H1010 H 0.28696 0.51843 0.53013 0.0
H1011 H 0.08356 0.37499 0.50772 0.0
H1012 H 0.13618 0.32634 0.49811 0.0
H1013 H 0.32421 0.49065 0.50515 0.0
C1014 C 0.20457 0.60253 0.5254 0.0
C1015 C 0.14247 0.59104 0.52808 0.0
C1016 C 0.08736 0.53123 0.52554 0.0
C1017 C 0.09351 0.48443 0.5202 0.0
C1018 C 0.15514 0.49764 0.51753 0.0
C1019 C 0.20985 0.55469 0.52015 0.0
C1020 C 0.27031 0.55627 0.51631 0.0
C1021 C 0.30699 0.61265 0.50906 0.0
C1022 C 0.31396 0.55933 0.52493 0.0
C1023 C 0.24073 0.49169 0.511 0.0
C1024 C 0.17419 0.45898 0.51177 0.0
C1025 C 0.13569 0.39968 0.50715 0.0
C1026 C 0.16603 0.37263 0.50167 0.0
C1027 C 0.23426 0.40453 0.50093 0.0
C1028 C 0.272 0.46484 0.50568 0.0
H1029 H 0.52811 0.07281 0.67552 0.0
H1030 H 0.56144 0.2133 0.69856 0.0
H1031 H 0.67313 0.28181 0.69258 0.0
H1032 H 0.68312 0.08631 0.67699 0.0
H1033 H 0.68949 0.07702 0.66385 0.0
H1034 H 0.6112 0.04064 0.66962 0.0
H1035 H 0.57584 0.10068 0.65736 0.0
H1036 H 0.65411 0.13733 0.65155 0.0
H1037 H 0.62354 0.18734 0.65635 0.0
H1038 H 0.78202 0.33348 0.68441 0.0
H1039 H 0.88117 0.36348 0.6749 0.0
H1040 H 0.77682 0.18865 0.65728 0.0
C1041 C 0.55865 0.11823 0.67926 0.0
C1042 C 0.53589 0.13783 0.68748 0.0
C1043 C 0.57771 0.19733 0.69223 0.0
C1044 C 0.64121 0.23665 0.68888 0.0
C1045 C 0.66215 0.21576 0.68079 0.0
C1046 C 0.6222 0.15792 0.67605 0.0
C1047 C 0.65728 0.14554 0.66774 0.0
C1048 C 0.66046 0.08373 0.66967 0.0
C1049 C 0.62581 0.14257 0.65765 0.0
C1050 C 0.72336 0.20526 0.66859 0.0
C1051 C 0.72506 0.2453 0.67613 0.0
C1052 C 0.78122 0.30265 0.67846 0.0
C1053 C 0.83732 0.31925 0.67301 0.0
C1054 C 0.83695 0.27853 0.66532 0.0
C1055 C 0.77882 0.22107 0.66307 0.0
H1056 H 0.97785 0.48077 0.1246 0.0
H1057 H 0.94796 0.63288 0.11277 0.0
H1058 H 0.94465 0.59253 0.09589 0.0
H1059 H 0.06801 0.466 0.10553 0.0
H1060 H 0.02663 0.37901 0.10523 0.0
H1061 H 0.02945 0.42043 0.11655 0.0
H1062 H 0.9045 0.35722 0.11758 0.0
H1063 H 0.9013 0.3146 0.10637 0.0
H1064 H 0.85755 0.35786 0.10715 0.0
H1065 H 0.96415 0.5474 0.0804 0.0
H1066 H 0.97387 0.48291 0.06712 0.0
H1067 H 0.95587 0.34007 0.08871 0.0
C1068 C 0.96876 0.50463 0.11852 0.0
C1069 C 0.96542 0.56158 0.12005 0.0
C1070 C 0.9539 0.59119 0.1118 0.0
C1071 C 0.95123 0.56824 0.10217 0.0
C1072 C 0.95668 0.51341 0.10091 0.0
C1073 C 0.96225 0.48017 0.10886 0.0
C1074 C 0.96228 0.41967 0.10539 0.0
C1075 C 0.02535 0.42142 0.10835 0.0
C1076 C 0.90286 0.35872 0.10936 0.0
C1077 C 0.95816 0.42567 0.09424 0.0
C1078 C 0.95678 0.48111 0.09186 0.0
C1079 C 0.96164 0.50198 0.08213 0.0
C1080 C 0.96614 0.46421 0.07458 0.0
C1081 C 0.9622 0.40419 0.07669 0.0
C1082 C 0.95839 0.38507 0.08673 0.0
H1083 H 0.54596 0.89275 0.25134 0.0
H1084 H 0.65633 0.09659 0.24432 0.0
H1085 H 0.60524 0.12112 0.25833 0.0
H1086 H 0.39893 0.8916 0.258 0.0
H1087 H 0.37889 0.8341 0.26789 0.0
H1088 H 0.42501 0.83269 0.25743 0.0
H1089 H 0.51545 0.84358 0.26929 0.0
H1090 H 0.46961 0.84503 0.27978 0.0
H1091 H 0.55118 0.90995 0.27795 0.0
H1092 H 0.544 0.12363 0.27316 0.0
H1093 H 0.47423 0.10388 0.28777 0.0
H1094 H 0.39982 0.89794 0.28489 0.0
C1095 C 0.55927 0.94245 0.25282 0.0
C1096 C 0.60564 0.99307 0.24692 0.0
C1097 C 0.6217 0.0575 0.24892 0.0
C1098 C 0.59276 0.07175 0.25681 0.0
C1099 C 0.54745 0.02086 0.26255 0.0
C1100 C 0.53053 0.95746 0.26065 0.0
C1101 C 0.47987 0.91185 0.2679 0.0
C1102 C 0.41694 0.86479 0.26248 0.0
C1103 C 0.50559 0.87547 0.2741 0.0
C1104 C 0.47121 0.95956 0.27419 0.0
C1105 C 0.51076 0.02217 0.27097 0.0
C1106 C 0.51236 0.0748 0.2757 0.0
C1107 C 0.4724 0.06314 0.28393 0.0
C1108 C 0.43109 0.99942 0.2873 0.0
C1109 C 0.43067 0.94705 0.28238 0.0
H1110 H 0.51293 0.41056 0.45259 0.0
H1111 H 0.35975 0.4578 0.45187 0.0
H1112 H 0.40648 0.52227 0.43669 0.0
H1113 H 0.641 0.56626 0.44389 0.0
H1114 H 0.67946 0.53202 0.43653 0.0
H1115 H 0.63479 0.49069 0.44747 0.0
H1116 H 0.56422 0.38805 0.43699 0.0
H1117 H 0.60848 0.42913 0.42601 0.0
H1118 H 0.52183 0.39336 0.42628 0.0
H1119 H 0.46768 0.57925 0.42154 0.0
H1120 H 0.54166 0.62748 0.40729 0.0
H1121 H 0.65569 0.54384 0.41759 0.0
C1122 C 0.48972 0.4349 0.44922 0.0
C1123 C 0.43262 0.42909 0.45328 0.0
C1124 C 0.40318 0.46132 0.44875 0.0
C1125 C 0.42942 0.49808 0.44017 0.0
C1126 C 0.48524 0.50221 0.43624 0.0
C1127 C 0.51526 0.47171 0.4406 0.0
C1128 C 0.57436 0.4835 0.43475 0.0
C1129 C 0.63605 0.52032 0.44104 0.0
C1130 C 0.56673 0.41971 0.43077 0.0
C1131 C 0.57264 0.52514 0.42642 0.0
C1132 C 0.52083 0.53537 0.42745 0.0
C1133 C 0.50861 0.57192 0.42067 0.0
C1134 C 0.5507 0.59909 0.41263 0.0
C1135 C 0.60425 0.58967 0.41149 0.0
C1136 C 0.61512 0.55187 0.4184 0.0
H1137 H 0.11176 0.65541 0.58201 0.0
H1138 H 0.90433 0.5654 0.5782 0.0
H1139 H 0.8876 0.50219 0.59349 0.0
H1140 H 0.11 0.51197 0.59035 0.0
H1141 H 0.17531 0.55344 0.59908 0.0
H1142 H 0.17109 0.59478 0.58819 0.0
H1143 H 0.17434 0.685 0.59928 0.0
H1144 H 0.17818 0.6437 0.61021 0.0
H1145 H 0.11521 0.66394 0.60896 0.0
H1146 H 0.89288 0.4482 0.6089 0.0
H1147 H 0.9196 0.3998 0.623 0.0
H1148 H 0.12373 0.52025 0.61669 0.0
C1149 C 0.06295 0.6226 0.58447 0.0
C1150 C 0.00918 0.61611 0.57911 0.0
C1151 C 0.94597 0.57208 0.58238 0.0
C1152 C 0.93607 0.53593 0.59103 0.0
C1153 C 0.98999 0.54385 0.59623 0.0
C1154 C 0.05223 0.58556 0.59306 0.0
C1155 C 0.10151 0.58223 0.59978 0.0
C1156 C 0.14184 0.55922 0.594 0.0
C1157 C 0.14487 0.64762 0.60486 0.0
C1158 C 0.05717 0.53189 0.60719 0.0
C1159 C 0.99307 0.51098 0.60502 0.0
C1160 C 0.94283 0.46409 0.61066 0.0
C1161 C 0.9584 0.43692 0.61863 0.0
C1162 C 0.02352 0.45621 0.62082 0.0
C1163 C 0.07361 0.505 0.61514 0.0
H1164 H 0.43216 0.97436 0.74424 0.0
H1165 H 0.47103 0.17184 0.7443 0.0
H1166 H 0.53677 0.19391 0.75958 0.0
H1167 H 0.41382 0.95044 0.77034 0.0
H1168 H 0.452 0.90176 0.77093 0.0
H1169 H 0.41117 0.90295 0.75977 0.0
H1170 H 0.51566 0.93738 0.74968 0.0
H1171 H 0.55687 0.93636 0.76082 0.0
H1172 H 0.58969 0.00836 0.75335 0.0
H1173 H 0.59311 0.19221 0.77531 0.0
H1174 H 0.63897 0.16798 0.79009 0.0
H1175 H 0.563 0.97141 0.77975 0.0
C1176 C 0.45471 0.0222 0.7475 0.0
C1177 C 0.4465 0.07147 0.74322 0.0
C1178 C 0.47703 0.1337 0.74754 0.0
C1179 C 0.51425 0.14652 0.75619 0.0
C1180 C 0.5206 0.09655 0.76035 0.0
C1181 C 0.49196 0.03571 0.75612 0.0
C1182 C 0.5051 0.99009 0.76216 0.0
C1183 C 0.44175 0.93295 0.76603 0.0
C1184 C 0.54416 0.96669 0.75614 0.0
C1185 C 0.54505 0.03452 0.77052 0.0
C1186 C 0.55354 0.09576 0.76934 0.0
C1187 C 0.5872 0.1446 0.77627 0.0
C1188 C 0.61286 0.13045 0.78464 0.0
C1189 C 0.60484 0.06815 0.78595 0.0
C1190 C 0.5706 0.01972 0.7788 0.0
H1191 H 0.58866 0.63615 0.9435 0.0
H1192 H 0.48377 0.48611 0.9653 0.0
H1193 H 0.40742 0.41766 0.95242 0.0
H1194 H 0.45817 0.60923 0.92738 0.0
H1195 H 0.50193 0.61818 0.91607 0.0
H1196 H 0.54486 0.65988 0.92714 0.0
H1197 H 0.61665 0.60713 0.92587 0.0
H1198 H 0.57462 0.5661 0.91471 0.0
H1199 H 0.57898 0.52048 0.92502 0.0
H1200 H 0.33815 0.36852 0.93745 0.0
H1201 H 0.29356 0.33062 0.92075 0.0
H1202 H 0.45793 0.49937 0.90799 0.0
C1203 C 0.55 0.58875 0.94557 0.0
C1204 C 0.54086 0.56785 0.95555 0.0
C1205 C 0.4899 0.50502 0.95786 0.0
C1206 C 0.44653 0.46529 0.95056 0.0
C1207 C 0.45624 0.48777 0.94086 0.0
C1208 C 0.50792 0.547 0.93827 0.0
C1209 C 0.51111 0.55614 0.92711 0.0
C1210 C 0.50356 0.61432 0.92426 0.0
C1211 C 0.57407 0.56284 0.92293 0.0
C1212 C 0.45267 0.49307 0.92389 0.0
C1213 C 0.42088 0.4553 0.93199 0.0
C1214 C 0.3636 0.39675 0.93101 0.0
C1215 C 0.339 0.3753 0.92147 0.0
C1216 C 0.37285 0.41085 0.91298 0.0
C1217 C 0.43027 0.47097 0.91427 0.0
loop_
_geom_bond_atom_site_label_1
_geom_bond_atom_site_label_2
_geom_bond_distance
_geom_bond_site_symmetry_2
_ccdc_geom_bond_type
Co0 O3 1.970 . S
Co0 N17 1.989 . S
Co0 O25 1.967 1_655 S
Co0 O32 1.920 . S
Co1 O4 1.966 1_455 S
Co1 N10 2.022 . S
Co1 N18 1.993 . S
Co1 O26 1.941 . S
C2 O3 1.258 . S
C2 O4 1.263 . S
O3 Co0 1.970 . S
O3 C2 1.258 . S
O4 Co1 1.966 1_655 S
O4 C2 1.263 . S
C5 O6 1.235 . S
C5 O32 1.289 . S
O6 C5 1.235 . S
C7 C9 1.400 . S
C7 N10 1.351 . S
C7 C12 1.501 1_455 S
C8 C9 1.387 . S
C8 N11 1.341 . S
C9 C7 1.400 . S
C9 C8 1.387 . S
N10 Co1 2.022 . S
N10 C7 1.351 . S
N10 N11 1.365 . S
N11 C8 1.341 . S
N11 N10 1.365 . S
N11 H31 0.862 . S
C12 C7 1.501 1_655 S
C12 H13 0.961 . S
C12 H14 0.961 . S
C12 H15 0.960 . S
H13 C12 0.961 . S
H14 C12 0.961 . S
H15 C12 0.960 . S
C16 N17 1.342 . S
C16 C20 1.401 . S
C16 C21 1.499 . S
N17 Co0 1.989 . S
N17 C16 1.342 . S
N17 N18 1.388 1_655 S
N18 Co1 1.993 . S
N18 N17 1.388 1_455 S
N18 C19 1.345 1_455 S
C19 N18 1.345 1_655 S
C19 C20 1.400 . S
C19 C29 1.508 1_655 S
C20 C16 1.401 . S
C20 C19 1.400 . S
C21 C16 1.499 . S
C21 H22 0.959 . S
C21 H23 0.960 . S
C21 H24 0.961 . S
H22 C21 0.959 . S
H23 C21 0.960 . S
H24 C21 0.961 . S
O25 Co0 1.967 1_455 S
O25 C33 1.258 . S
O26 Co1 1.941 . S
O26 C33 1.266 . S
H27 C29 0.959 . S
H28 C29 0.961 1_655 S
C29 C19 1.508 1_455 S
C29 H27 0.959 . S
C29 H28 0.961 1_455 S
C29 H30 0.960 . S
H30 C29 0.960 . S
H31 N11 0.862 . S
O32 Co0 1.920 . S
O32 C5 1.289 . S
C33 O25 1.258 . S
C33 O26 1.266 . S
Co34 O37 1.970 . S
Co34 N51 1.989 . S
Co34 O59 1.967 1_565 S
Co34 O66 1.920 . S
Co35 O38 1.966 1_545 S
Co35 N44 2.022 . S
Co35 N52 1.993 . S
Co35 O60 1.941 . S
C36 O37 1.258 . S
C36 O38 1.263 . S
O37 Co34 1.970 . S
O37 C36 1.258 . S
O38 Co35 1.966 1_565 S
O38 C36 1.263 . S
C39 O40 1.235 . S
C39 O66 1.289 . S
O40 C39 1.235 . S
C41 C43 1.400 . S
C41 N44 1.351 . S
C41 C46 1.501 1_545 S
C42 C43 1.387 . S
C42 N45 1.341 . S
C43 C41 1.400 . S
C43 C42 1.387 . S
N44 Co35 2.022 . S
N44 C41 1.351 . S
N44 N45 1.365 . S
N45 C42 1.341 . S
N45 N44 1.365 . S
N45 H65 0.862 . S
C46 C41 1.501 1_565 S
C46 H47 0.961 . S
C46 H48 0.961 . S
C46 H49 0.960 . S
H47 C46 0.961 . S
H48 C46 0.961 . S
H49 C46 0.960 . S
C50 N51 1.342 . S
C50 C54 1.401 . S
C50 C55 1.499 . S
N51 Co34 1.989 . S
N51 C50 1.342 . S
N51 N52 1.388 1_565 S
N52 Co35 1.993 . S
N52 N51 1.388 1_545 S
N52 C53 1.347 1_545 S
C53 N52 1.347 1_565 S
C53 C54 1.392 . S
C53 C63 1.512 1_565 S
C54 C50 1.401 . S
C54 C53 1.392 . S
C55 C50 1.499 . S
C55 H56 0.959 . S
C55 H57 0.960 . S
C55 H58 0.961 . S
H56 C55 0.959 . S
H57 C55 0.960 . S
H58 C55 0.961 . S
O59 Co34 1.967 1_545 S
O59 C67 1.258 . S
O60 Co35 1.941 . S
O60 C67 1.266 . S
H61 C63 0.959 . S
H62 C63 0.961 1_565 S
C63 C53 1.512 1_545 S
C63 H61 0.959 . S
C63 H62 0.961 1_545 S
C63 H64 0.960 . S
H64 C63 0.960 . S
H65 N45 0.862 . S
O66 Co34 1.920 . S
O66 C39 1.289 . S
C67 O59 1.258 . S
C67 O60 1.266 . S
Co68 O71 1.970 . S
Co68 N85 1.989 . S
Co68 O93 1.967 . S
Co68 O100 1.920 . S
Co69 O72 1.966 . S
Co69 N78 2.022 . S
Co69 N86 1.993 . S
Co69 O94 1.941 . S
C70 O71 1.258 . S
C70 O72 1.263 . S
O71 Co68 1.970 . S
O71 C70 1.258 . S
O72 Co69 1.966 . S
O72 C70 1.263 . S
C73 O74 1.235 . S
C73 O100 1.289 . S
O74 C73 1.235 . S
C75 C77 1.400 . S
C75 N78 1.351 . S
C75 C80 1.501 . S
C76 C77 1.387 . S
C76 N79 1.341 . S
C77 C75 1.400 . S
C77 C76 1.387 . S
N78 Co69 2.022 . S
N78 C75 1.351 . S
N78 N79 1.365 . S
N79 C76 1.341 . S
N79 N78 1.365 . S
N79 H99 0.862 . S
C80 C75 1.501 . S
C80 H81 0.961 . S
C80 H82 0.961 . S
C80 H83 0.960 . S
H81 C80 0.961 . S
H82 C80 0.961 . S
H83 C80 0.960 . S
C84 N85 1.342 . S
C84 C88 1.401 . S
C84 C89 1.499 . S
N85 Co68 1.989 . S
N85 C84 1.342 . S
N85 N86 1.388 . S
N86 Co69 1.993 . S
N86 N85 1.388 . S
N86 C87 1.346 . S
C87 N86 1.346 . S
C87 C88 1.396 . S
C87 C97 1.510 . S
C88 C84 1.401 . S
C88 C87 1.396 . S
C89 C84 1.499 . S
C89 H90 0.959 . S
C89 H91 0.960 . S
C89 H92 0.961 . S
H90 C89 0.959 . S
H91 C89 0.960 . S
H92 C89 0.961 . S
O93 Co68 1.967 . S
O93 C101 1.258 . S
O94 Co69 1.941 . S
O94 C101 1.266 . S
H95 C97 0.959 . S
H96 C97 0.961 . S
C97 C87 1.510 . S
C97 H95 0.959 . S
C97 H96 0.961 . S
C97 H98 0.960 . S
H98 C97 0.960 . S
H99 N79 0.862 . S
O100 Co68 1.920 . S
O100 C73 1.289 . S
C101 O93 1.258 . S
C101 O94 1.266 . S
Co102 O105 1.970 . S
Co102 N119 1.989 . S
Co102 O127 1.967 1_455 S
Co102 O134 1.920 . S
Co103 O106 1.966 1_655 S
Co103 N112 2.022 . S
Co103 N120 1.993 . S
Co103 O128 1.941 . S
C104 O105 1.258 . S
C104 O106 1.263 . S
O105 Co102 1.970 . S
O105 C104 1.258 . S
O106 Co103 1.966 1_455 S
O106 C104 1.263 . S
C107 O108 1.235 . S
C107 O134 1.289 . S
O108 C107 1.235 . S
C109 C111 1.400 . S
C109 N112 1.351 . S
C109 C114 1.501 1_655 S
C110 C111 1.387 . S
C110 N113 1.341 . S
C111 C109 1.400 . S
C111 C110 1.387 . S
N112 Co103 2.022 . S
N112 C109 1.351 . S
N112 N113 1.365 . S
N113 C110 1.341 . S
N113 N112 1.365 . S
N113 H133 0.862 . S
C114 C109 1.501 1_455 S
C114 H115 0.961 . S
C114 H116 0.961 . S
C114 H117 0.960 . S
H115 C114 0.961 . S
H116 C114 0.961 . S
H117 C114 0.960 . S
C118 N119 1.342 . S
C118 C122 1.401 . S
C118 C123 1.499 . S
N119 Co102 1.989 . S
N119 C118 1.342 . S
N119 N120 1.388 1_455 S
N120 Co103 1.993 . S
N120 N119 1.388 1_655 S
N120 C121 1.345 1_655 S
C121 N120 1.345 1_455 S
C121 C122 1.400 . S
C121 C131 1.508 1_455 S
C122 C118 1.401 . S
C122 C121 1.400 . S
C123 C118 1.499 . S
C123 H124 0.959 . S
C123 H125 0.960 . S
C123 H126 0.961 . S
H124 C123 0.959 . S
H125 C123 0.960 . S
H126 C123 0.961 . S
O127 Co102 1.967 1_655 S
O127 C135 1.258 . S
O128 Co103 1.941 . S
O128 C135 1.266 . S
H129 C131 0.959 . S
H130 C131 0.961 1_455 S
C131 C121 1.508 1_655 S
C131 H129 0.959 . S
C131 H130 0.961 1_655 S
C131 H132 0.960 . S
H132 C131 0.960 . S
H133 N113 0.862 . S
O134 Co102 1.920 . S
O134 C107 1.289 . S
C135 O127 1.258 . S
C135 O128 1.266 . S
Co136 O139 1.970 . S
Co136 N153 1.989 . S
Co136 O161 1.967 1_545 S
Co136 O168 1.920 . S
Co137 O140 1.966 1_565 S
Co137 N146 2.022 . S
Co137 N154 1.993 . S
Co137 O162 1.941 . S
C138 O139 1.258 . S
C138 O140 1.263 . S
O139 Co136 1.970 . S
O139 C138 1.258 . S
O140 Co137 1.966 1_545 S
O140 C138 1.263 . S
C141 O142 1.235 . S
C141 O168 1.289 . S
O142 C141 1.235 . S
C143 C145 1.400 . S
C143 N146 1.351 . S
C143 C148 1.501 1_565 S
C144 C145 1.387 . S
C144 N147 1.341 . S
C145 C143 1.400 . S
C145 C144 1.387 . S
N146 Co137 2.022 . S
N146 C143 1.351 . S
N146 N147 1.365 . S
N147 C144 1.341 . S
N147 N146 1.365 . S
N147 H167 0.862 . S
C148 C143 1.501 1_545 S
C148 H149 0.961 . S
C148 H150 0.961 . S
C148 H151 0.960 . S
H149 C148 0.961 . S
H150 C148 0.961 . S
H151 C148 0.960 . S
C152 N153 1.342 . S
C152 C156 1.401 . S
C152 C157 1.499 . S
N153 Co136 1.989 . S
N153 C152 1.342 . S
N153 N154 1.388 1_545 S
N154 Co137 1.993 . S
N154 N153 1.388 1_565 S
N154 C155 1.347 1_565 S
C155 N154 1.347 1_545 S
C155 C156 1.392 . S
C155 C165 1.513 1_545 S
C156 C152 1.401 . S
C156 C155 1.392 . S
C157 C152 1.499 . S
C157 H158 0.959 . S
C157 H159 0.960 . S
C157 H160 0.961 . S
H158 C157 0.959 . S
H159 C157 0.960 . S
H160 C157 0.961 . S
O161 Co136 1.967 1_565 S
O161 C169 1.258 . S
O162 Co137 1.941 . S
O162 C169 1.266 . S
H163 C165 0.959 . S
H164 C165 0.961 1_545 S
C165 C155 1.513 1_565 S
C165 H163 0.959 . S
C165 H164 0.961 1_565 S
C165 H166 0.960 . S
H166 C165 0.960 . S
H167 N147 0.862 . S
O168 Co136 1.920 . S
O168 C141 1.289 . S
C169 O161 1.258 . S
C169 O162 1.266 . S
Co170 O173 1.970 . S
Co170 N187 1.989 . S
Co170 O195 1.967 . S
Co170 O202 1.920 . S
Co171 O174 1.966 . S
Co171 N180 2.022 . S
Co171 N188 1.993 . S
Co171 O196 1.941 . S
C172 O173 1.258 . S
C172 O174 1.263 . S
O173 Co170 1.970 . S
O173 C172 1.258 . S
O174 Co171 1.966 . S
O174 C172 1.263 . S
C175 O176 1.235 . S
C175 O202 1.289 . S
O176 C175 1.235 . S
C177 C179 1.400 . S
C177 N180 1.351 . S
C177 C182 1.501 . S
C178 C179 1.387 . S
C178 N181 1.341 . S
C179 C177 1.400 . S
C179 C178 1.387 . S
N180 Co171 2.022 . S
N180 C177 1.351 . S
N180 N181 1.365 . S
N181 C178 1.341 . S
N181 N180 1.365 . S
N181 H201 0.862 . S
C182 C177 1.501 . S
C182 H183 0.961 . S
C182 H184 0.961 . S
C182 H185 0.960 . S
H183 C182 0.961 . S
H184 C182 0.961 . S
H185 C182 0.960 . S
C186 N187 1.342 . S
C186 C190 1.401 . S
C186 C191 1.499 . S
N187 Co170 1.989 . S
N187 C186 1.342 . S
N187 N188 1.388 . S
N188 Co171 1.993 . S
N188 N187 1.388 . S
N188 C189 1.346 . S
C189 N188 1.346 . S
C189 C190 1.396 . S
C189 C199 1.510 . S
C190 C186 1.401 . S
C190 C189 1.396 . S
C191 C186 1.499 . S
C191 H192 0.959 . S
C191 H193 0.960 . S
C191 H194 0.961 . S
H192 C191 0.959 . S
H193 C191 0.960 . S
H194 C191 0.961 . S
O195 Co170 1.967 . S
O195 C203 1.258 . S
O196 Co171 1.941 . S
O196 C203 1.266 . S
H197 C199 0.959 . S
H198 C199 0.961 . S
C199 C189 1.510 . S
C199 H197 0.959 . S
C199 H198 0.961 . S
C199 H200 0.960 . S
H200 C199 0.960 . S
H201 N181 0.862 . S
O202 Co170 1.920 . S
O202 C175 1.289 . S
C203 O195 1.258 . S
C203 O196 1.266 . S
Co204 O207 1.970 . S
Co204 N221 1.989 . S
Co204 O229 1.967 1_545 S
Co204 O236 1.920 . S
Co205 O208 1.966 1_565 S
Co205 N214 2.022 . S
Co205 N222 1.993 . S
Co205 O230 1.941 . S
C206 O207 1.258 . S
C206 O208 1.263 . S
O207 Co204 1.970 . S
O207 C206 1.258 . S
O208 Co205 1.966 1_545 S
O208 C206 1.263 . S
C209 O210 1.235 . S
C209 O236 1.289 . S
O210 C209 1.235 . S
C211 C213 1.400 . S
C211 N214 1.351 . S
C211 C216 1.501 1_565 S
C212 C213 1.387 . S
C212 N215 1.341 . S
C213 C211 1.400 . S
C213 C212 1.387 . S
N214 Co205 2.022 . S
N214 C211 1.351 . S
N214 N215 1.365 . S
N215 C212 1.341 . S
N215 N214 1.365 . S
N215 H235 0.862 . S
C216 C211 1.501 1_545 S
C216 H217 0.961 . S
C216 H218 0.961 . S
C216 H219 0.960 . S
H217 C216 0.961 . S
H218 C216 0.961 . S
H219 C216 0.960 . S
C220 N221 1.342 . S
C220 C224 1.401 . S
C220 C225 1.499 . S
N221 Co204 1.989 . S
N221 C220 1.342 . S
N221 N222 1.388 1_545 S
N222 Co205 1.993 . S
N222 N221 1.388 1_565 S
N222 C223 1.345 1_565 S
C223 N222 1.345 1_545 S
C223 C224 1.400 . S
C223 C233 1.508 1_545 S
C224 C220 1.401 . S
C224 C223 1.400 . S
C225 C220 1.499 . S
C225 H226 0.959 . S
C225 H227 0.960 . S
C225 H228 0.961 . S
H226 C225 0.959 . S
H227 C225 0.960 . S
H228 C225 0.961 . S
O229 Co204 1.967 1_565 S
O229 C237 1.258 . S
O230 Co205 1.941 . S
O230 C237 1.266 . S
H231 C233 0.959 . S
H232 C233 0.961 1_545 S
C233 C223 1.508 1_565 S
C233 H231 0.959 . S
C233 H232 0.961 1_565 S
C233 H234 0.960 . S
H234 C233 0.960 . S
H235 N215 0.862 . S
O236 Co204 1.920 . S
O236 C209 1.289 . S
C237 O229 1.258 . S
C237 O230 1.266 . S
Co238 O241 1.970 . S
Co238 N255 1.989 . S
Co238 O263 1.967 . S
Co238 O270 1.920 . S
Co239 O242 1.966 . S
Co239 N248 2.022 . S
Co239 N256 1.993 . S
Co239 O264 1.941 . S
C240 O241 1.258 . S
C240 O242 1.263 . S
O241 Co238 1.970 . S
O241 C240 1.258 . S
O242 Co239 1.966 . S
O242 C240 1.263 . S
C243 O244 1.235 . S
C243 O270 1.289 . S
O244 C243 1.235 . S
C245 C247 1.400 . S
C245 N248 1.351 . S
C245 C250 1.501 . S
C246 C247 1.387 . S
C246 N249 1.341 . S
C247 C245 1.400 . S
C247 C246 1.387 . S
N248 Co239 2.022 . S
N248 C245 1.351 . S
N248 N249 1.365 . S
N249 C246 1.341 . S
N249 N248 1.365 . S
N249 H269 0.862 . S
C250 C245 1.501 . S
C250 H251 0.961 . S
C250 H252 0.961 . S
C250 H253 0.960 . S
H251 C250 0.961 . S
H252 C250 0.961 . S
H253 C250 0.960 . S
C254 N255 1.342 . S
C254 C258 1.401 . S
C254 C259 1.499 . S
N255 Co238 1.989 . S
N255 C254 1.342 . S
N255 N256 1.388 . S
N256 Co239 1.993 . S
N256 N255 1.388 . S
N256 C257 1.346 . S
C257 N256 1.346 . S
C257 C258 1.396 . S
C257 C267 1.510 . S
C258 C254 1.401 . S
C258 C257 1.396 . S
C259 C254 1.499 . S
C259 H260 0.959 . S
C259 H261 0.960 . S
C259 H262 0.961 . S
H260 C259 0.959 . S
H261 C259 0.960 . S
H262 C259 0.961 . S
O263 Co238 1.967 . S
O263 C271 1.258 . S
O264 Co239 1.941 . S
O264 C271 1.266 . S
H265 C267 0.959 . S
H266 C267 0.961 . S
C267 C257 1.510 . S
C267 H265 0.959 . S
C267 H266 0.961 . S
C267 H268 0.960 . S
H268 C267 0.960 . S
H269 N249 0.862 . S
O270 Co238 1.920 . S
O270 C243 1.289 . S
C271 O263 1.258 . S
C271 O264 1.266 . S
Co272 O275 1.970 . S
Co272 N289 1.989 . S
Co272 O297 1.967 1_655 S
Co272 O304 1.920 . S
Co273 O276 1.966 1_455 S
Co273 N282 2.022 . S
Co273 N290 1.993 . S
Co273 O298 1.941 . S
C274 O275 1.258 . S
C274 O276 1.263 . S
O275 Co272 1.970 . S
O275 C274 1.258 . S
O276 Co273 1.966 1_655 S
O276 C274 1.263 . S
C277 O278 1.235 . S
C277 O304 1.289 . S
O278 C277 1.235 . S
C279 C281 1.400 . S
C279 N282 1.351 . S
C279 C284 1.501 1_455 S
C280 C281 1.387 . S
C280 N283 1.341 . S
C281 C279 1.400 . S
C281 C280 1.387 . S
N282 Co273 2.022 . S
N282 C279 1.351 . S
N282 N283 1.365 . S
N283 C280 1.341 . S
N283 N282 1.365 . S
N283 H303 0.862 . S
C284 C279 1.501 1_655 S
C284 H285 0.961 . S
C284 H286 0.961 . S
C284 H287 0.960 . S
H285 C284 0.961 . S
H286 C284 0.961 . S
H287 C284 0.960 . S
C288 N289 1.342 . S
C288 C292 1.401 . S
C288 C293 1.499 . S
N289 Co272 1.989 . S
N289 C288 1.342 . S
N289 N290 1.388 1_655 S
N290 Co273 1.993 . S
N290 N289 1.388 1_455 S
N290 C291 1.347 1_455 S
C291 N290 1.347 1_655 S
C291 C292 1.392 . S
C291 C301 1.513 1_655 S
C292 C288 1.401 . S
C292 C291 1.392 . S
C293 C288 1.499 . S
C293 H294 0.959 . S
C293 H295 0.960 . S
C293 H296 0.961 . S
H294 C293 0.959 . S
H295 C293 0.960 . S
H296 C293 0.961 . S
O297 Co272 1.967 1_455 S
O297 C305 1.258 . S
O298 Co273 1.941 . S
O298 C305 1.266 . S
H299 C301 0.959 . S
H300 C301 0.961 1_655 S
C301 C291 1.513 1_455 S
C301 H299 0.959 . S
C301 H300 0.961 1_455 S
C301 H302 0.960 . S
H302 C301 0.960 . S
H303 N283 0.862 . S
O304 Co272 1.920 . S
O304 C277 1.289 . S
C305 O297 1.258 . S
C305 O298 1.266 . S
Co306 O309 1.970 . S
Co306 N323 1.989 . S
Co306 O331 1.967 1_565 S
Co306 O338 1.920 . S
Co307 O310 1.966 1_545 S
Co307 N316 2.022 . S
Co307 N324 1.993 . S
Co307 O332 1.941 . S
C308 O309 1.258 . S
C308 O310 1.263 . S
O309 Co306 1.970 . S
O309 C308 1.258 . S
O310 Co307 1.966 1_565 S
O310 C308 1.263 . S
C311 O312 1.235 . S
C311 O338 1.289 . S
O312 C311 1.235 . S
C313 C315 1.400 . S
C313 N316 1.351 . S
C313 C318 1.501 1_545 S
C314 C315 1.387 . S
C314 N317 1.341 . S
C315 C313 1.400 . S
C315 C314 1.387 . S
N316 Co307 2.022 . S
N316 C313 1.351 . S
N316 N317 1.365 . S
N317 C314 1.341 . S
N317 N316 1.365 . S
N317 H337 0.862 . S
C318 C313 1.501 1_565 S
C318 H319 0.961 . S
C318 H320 0.961 . S
C318 H321 0.960 . S
H319 C318 0.961 . S
H320 C318 0.961 . S
H321 C318 0.960 . S
C322 N323 1.342 . S
C322 C326 1.401 . S
C322 C327 1.499 . S
N323 Co306 1.989 . S
N323 C322 1.342 . S
N323 N324 1.388 1_565 S
N324 Co307 1.993 . S
N324 N323 1.388 1_545 S
N324 C325 1.345 1_545 S
C325 N324 1.345 1_565 S
C325 C326 1.400 . S
C325 C335 1.508 1_565 S
C326 C322 1.401 . S
C326 C325 1.400 . S
C327 C322 1.499 . S
C327 H328 0.959 . S
C327 H329 0.960 . S
C327 H330 0.961 . S
H328 C327 0.959 . S
H329 C327 0.960 . S
H330 C327 0.961 . S
O331 Co306 1.967 1_545 S
O331 C339 1.258 . S
O332 Co307 1.941 . S
O332 C339 1.266 . S
H333 C335 0.959 . S
H334 C335 0.961 1_565 S
C335 C325 1.508 1_545 S
C335 H333 0.959 . S
C335 H334 0.961 1_545 S
C335 H336 0.960 . S
H336 C335 0.960 . S
H337 N317 0.862 . S
O338 Co306 1.920 . S
O338 C311 1.289 . S
C339 O331 1.258 . S
C339 O332 1.266 . S
Co340 O343 1.970 . S
Co340 N357 1.989 . S
Co340 O365 1.967 . S
Co340 O372 1.920 . S
Co341 O344 1.966 . S
Co341 N350 2.022 . S
Co341 N358 1.993 . S
Co341 O366 1.941 . S
C342 O343 1.258 . S
C342 O344 1.263 . S
O343 Co340 1.970 . S
O343 C342 1.258 . S
O344 Co341 1.966 . S
O344 C342 1.263 . S
C345 O346 1.235 . S
C345 O372 1.289 . S
O346 C345 1.235 . S
C347 C349 1.400 . S
C347 N350 1.351 . S
C347 C352 1.501 . S
C348 C349 1.387 . S
C348 N351 1.341 . S
C349 C347 1.400 . S
C349 C348 1.387 . S
N350 Co341 2.022 . S
N350 C347 1.351 . S
N350 N351 1.365 . S
N351 C348 1.341 . S
N351 N350 1.365 . S
N351 H371 0.862 . S
C352 C347 1.501 . S
C352 H353 0.961 . S
C352 H354 0.961 . S
C352 H355 0.960 . S
H353 C352 0.961 . S
H354 C352 0.961 . S
H355 C352 0.960 . S
C356 N357 1.342 . S
C356 C360 1.401 . S
C356 C361 1.499 . S
N357 Co340 1.989 . S
N357 C356 1.342 . S
N357 N358 1.388 . S
N358 Co341 1.993 . S
N358 N357 1.388 . S
N358 C359 1.346 . S
C359 N358 1.346 . S
C359 C360 1.396 . S
C359 C369 1.510 . S
C360 C356 1.401 . S
C360 C359 1.396 . S
C361 C356 1.499 . S
C361 H362 0.959 . S
C361 H363 0.960 . S
C361 H364 0.961 . S
H362 C361 0.959 . S
H363 C361 0.960 . S
H364 C361 0.961 . S
O365 Co340 1.967 . S
O365 C373 1.258 . S
O366 Co341 1.941 . S
O366 C373 1.266 . S
H367 C369 0.959 . S
H368 C369 0.961 . S
C369 C359 1.510 . S
C369 H367 0.959 . S
C369 H368 0.961 . S
C369 H370 0.960 . S
H370 C369 0.960 . S
H371 N351 0.862 . S
O372 Co340 1.920 . S
O372 C345 1.289 . S
C373 O365 1.258 . S
C373 O366 1.266 . S
Co374 O377 1.970 . S
Co374 N391 1.989 . S
Co374 O399 1.967 1_455 S
Co374 O406 1.920 . S
Co375 O378 1.966 1_655 S
Co375 N384 2.022 . S
Co375 N392 1.993 . S
Co375 O400 1.941 . S
C376 O377 1.258 . S
C376 O378 1.263 . S
O377 Co374 1.970 . S
O377 C376 1.258 . S
O378 Co375 1.966 1_455 S
O378 C376 1.263 . S
C379 O380 1.235 . S
C379 O406 1.289 . S
O380 C379 1.235 . S
C381 C383 1.400 . S
C381 N384 1.351 . S
C381 C386 1.501 1_655 S
C382 C383 1.387 . S
C382 N385 1.341 . S
C383 C381 1.400 . S
C383 C382 1.387 . S
N384 Co375 2.022 . S
N384 C381 1.351 . S
N384 N385 1.365 . S
N385 C382 1.341 . S
N385 N384 1.365 . S
N385 H405 0.862 . S
C386 C381 1.501 1_455 S
C386 H387 0.961 . S
C386 H388 0.961 . S
C386 H389 0.960 . S
H387 C386 0.961 . S
H388 C386 0.961 . S
H389 C386 0.960 . S
C390 N391 1.342 . S
C390 C394 1.401 . S
C390 C395 1.499 . S
N391 Co374 1.989 . S
N391 C390 1.342 . S
N391 N392 1.388 1_455 S
N392 Co375 1.993 . S
N392 N391 1.388 1_655 S
N392 C393 1.347 1_655 S
C393 N392 1.347 1_455 S
C393 C394 1.392 . S
C393 C403 1.513 1_455 S
C394 C390 1.401 . S
C394 C393 1.392 . S
C395 C390 1.499 . S
C395 H396 0.959 . S
C395 H397 0.960 . S
C395 H398 0.961 . S
H396 C395 0.959 . S
H397 C395 0.960 . S
H398 C395 0.961 . S
O399 Co374 1.967 1_655 S
O399 C407 1.258 . S
O400 Co375 1.941 . S
O400 C407 1.266 . S
H401 C403 0.959 . S
H402 C403 0.961 1_455 S
C403 C393 1.513 1_655 S
C403 H401 0.959 . S
C403 H402 0.961 1_655 S
C403 H404 0.960 . S
H404 C403 0.960 . S
H405 N385 0.862 . S
O406 Co374 1.920 . S
O406 C379 1.289 . S
C407 O399 1.258 . S
C407 O400 1.266 . S
H408 C420 0.915 1_554 S
H409 C422 0.930 . S
H410 C423 0.930 1_545 S
H411 C427 0.959 . S
H412 C427 0.959 . S
H413 C427 0.961 . S
H414 C428 0.960 . S
H415 C428 0.961 1_545 S
H416 C428 0.959 1_545 S
H417 C431 0.929 1_556 S
H418 C432 0.931 . S
H419 C434 0.930 . S
C420 H408 0.915 1_556 S
C420 C421 1.399 . S
C420 C425 1.399 1_556 S
C421 C420 1.399 . S
C421 C422 1.376 . S
C422 H409 0.930 . S
C422 C421 1.376 . S
C422 C423 1.388 . S
C423 H410 0.930 1_565 S
C423 C422 1.388 . S
C423 C424 1.390 . S
C424 C423 1.390 . S
C424 C425 1.394 1_556 S
C424 C430 1.465 1_566 S
C425 C420 1.399 1_554 S
C425 C424 1.394 1_554 S
C425 C426 1.516 . S
C426 C425 1.516 . S
C426 C427 1.502 . S
C426 C428 1.561 . S
C426 C429 1.526 1_565 S
C427 H411 0.959 . S
C427 H412 0.959 . S
C427 H413 0.961 . S
C427 C426 1.502 . S
C428 H414 0.960 . S
C428 H415 0.961 1_565 S
C428 H416 0.959 1_565 S
C428 C426 1.561 . S
C429 C426 1.526 1_545 S
C429 C430 1.396 . S
C429 C434 1.390 . S
C430 C424 1.465 1_544 S
C430 C429 1.396 . S
C430 C431 1.399 . S
C431 H417 0.929 1_554 S
C431 C430 1.399 . S
C431 C432 1.385 . S
C432 H418 0.931 . S
C432 C431 1.385 . S
C432 C433 1.389 . S
C433 C432 1.389 . S
C433 C434 1.387 . S
C434 H419 0.930 . S
C434 C429 1.390 . S
C434 C433 1.387 . S
H435 C447 0.930 . S
H436 C449 0.930 . S
H437 C450 0.930 . S
H438 C454 0.959 . S
H439 C454 0.959 . S
H440 C454 0.961 . S
H441 C455 0.960 . S
H442 C455 0.961 . S
H443 C455 0.959 . S
H444 C458 0.929 . S
H445 C459 0.931 . S
H446 C461 0.930 . S
C447 H435 0.930 . S
C447 C448 1.399 . S
C447 C452 1.399 . S
C448 C447 1.399 . S
C448 C449 1.376 . S
C449 H436 0.930 . S
C449 C448 1.376 . S
C449 C450 1.388 . S
C450 H437 0.930 . S
C450 C449 1.388 . S
C450 C451 1.390 . S
C451 C450 1.390 . S
C451 C452 1.394 . S
C451 C457 1.465 . S
C452 C447 1.399 . S
C452 C451 1.394 . S
C452 C453 1.516 . S
C453 C452 1.516 . S
C453 C454 1.502 . S
C453 C455 1.561 . S
C453 C456 1.526 . S
C454 H438 0.959 . S
C454 H439 0.959 . S
C454 H440 0.961 . S
C454 C453 1.502 . S
C455 H441 0.960 . S
C455 H442 0.961 . S
C455 H443 0.959 . S
C455 C453 1.561 . S
C456 C453 1.526 . S
C456 C457 1.396 . S
C456 C461 1.390 . S
C457 C451 1.465 . S
C457 C456 1.396 . S
C457 C458 1.399 . S
C458 H444 0.929 . S
C458 C457 1.399 . S
C458 C459 1.385 . S
C459 H445 0.931 . S
C459 C458 1.385 . S
C459 C460 1.389 . S
C460 C459 1.389 . S
C460 C461 1.387 . S
C461 H446 0.930 . S
C461 C456 1.390 . S
C461 C460 1.387 . S
H462 C474 0.930 . S
H463 C476 0.930 . S
H464 C477 0.930 . S
H465 C481 0.959 1_455 S
H466 C481 0.959 1_455 S
H467 C481 0.961 . S
H468 C482 0.960 . S
H469 C482 0.961 . S
H470 C482 0.959 . S
H471 C485 0.929 . S
H472 C486 0.931 . S
H473 C488 0.930 . S
C474 H462 0.930 . S
C474 C475 1.399 . S
C474 C479 1.399 . S
C475 C474 1.399 . S
C475 C476 1.376 . S
C476 H463 0.930 . S
C476 C475 1.376 . S
C476 C477 1.388 . S
C477 H464 0.930 . S
C477 C476 1.388 . S
C477 C478 1.390 . S
C478 C477 1.390 . S
C478 C479 1.394 . S
C478 C484 1.465 1_655 S
C479 C474 1.399 . S
C479 C478 1.394 . S
C479 C480 1.516 . S
C480 C479 1.516 . S
C480 C481 1.502 . S
C480 C482 1.561 . S
C480 C483 1.526 1_655 S
C481 H465 0.959 1_655 S
C481 H466 0.959 1_655 S
C481 H467 0.961 . S
C481 C480 1.502 . S
C482 H468 0.960 . S
C482 H469 0.961 . S
C482 H470 0.959 . S
C482 C480 1.561 . S
C483 C480 1.526 1_455 S
C483 C484 1.396 . S
C483 C488 1.390 . S
C484 C478 1.465 1_455 S
C484 C483 1.396 . S
C484 C485 1.399 . S
C485 H471 0.929 . S
C485 C484 1.399 . S
C485 C486 1.385 . S
C486 H472 0.931 . S
C486 C485 1.385 . S
C486 C487 1.389 . S
C487 C486 1.389 . S
C487 C488 1.387 . S
C488 H473 0.930 . S
C488 C483 1.390 . S
C488 C487 1.387 . S
H489 C501 0.930 . S
H490 C503 0.930 . S
H491 C504 0.930 . S
H492 C508 0.959 . S
H493 C508 0.959 . S
H494 C508 0.961 1_545 S
H495 C509 0.960 . S
H496 C509 0.961 . S
H497 C509 0.959 . S
H498 C512 0.929 . S
H499 C513 0.931 . S
H500 C515 0.930 . S
C501 H489 0.930 . S
C501 C502 1.399 . S
C501 C506 1.399 . S
C502 C501 1.399 . S
C502 C503 1.376 . S
C503 H490 0.930 . S
C503 C502 1.376 . S
C503 C504 1.388 . S
C504 H491 0.930 . S
C504 C503 1.388 . S
C504 C505 1.390 . S
C505 C504 1.390 . S
C505 C506 1.394 . S
C505 C511 1.465 1_545 S
C506 C501 1.399 . S
C506 C505 1.394 . S
C506 C507 1.515 . S
C507 C506 1.515 . S
C507 C508 1.502 1_545 S
C507 C509 1.561 . S
C507 C510 1.526 1_545 S
C508 H492 0.959 . S
C508 H493 0.959 . S
C508 H494 0.961 1_565 S
C508 C507 1.502 1_565 S
C509 H495 0.960 . S
C509 H496 0.961 . S
C509 H497 0.959 . S
C509 C507 1.561 . S
C510 C507 1.526 1_565 S
C510 C511 1.396 . S
C510 C515 1.390 . S
C511 C505 1.465 1_565 S
C511 C510 1.396 . S
C511 C512 1.399 . S
C512 H498 0.929 . S
C512 C511 1.399 . S
C512 C513 1.385 . S
C513 H499 0.931 . S
C513 C512 1.385 . S
C513 C514 1.389 . S
C514 C513 1.389 . S
C514 C515 1.387 . S
C515 H500 0.930 . S
C515 C510 1.390 . S
C515 C514 1.387 . S
H516 C528 0.930 . S
H517 C530 0.930 . S
H518 C531 0.930 . S
H519 C535 0.959 . S
H520 C535 0.959 . S
H521 C535 0.961 . S
H522 C536 0.960 . S
H523 C536 0.961 . S
H524 C536 0.959 . S
H525 C539 0.929 . S
H526 C540 0.931 . S
H527 C542 0.930 . S
C528 H516 0.930 . S
C528 C529 1.399 . S
C528 C533 1.399 . S
C529 C528 1.399 . S
C529 C530 1.376 . S
C530 H517 0.930 . S
C530 C529 1.376 . S
C530 C531 1.388 . S
C531 H518 0.930 . S
C531 C530 1.388 . S
C531 C532 1.390 . S
C532 C531 1.390 . S
C532 C533 1.394 . S
C532 C538 1.465 . S
C533 C528 1.399 . S
C533 C532 1.394 . S
C533 C534 1.516 . S
C534 C533 1.516 . S
C534 C535 1.502 . S
C534 C536 1.561 . S
C534 C537 1.526 . S
C535 H519 0.959 . S
C535 H520 0.959 . S
C535 H521 0.961 . S
C535 C534 1.502 . S
C536 H522 0.960 . S
C536 H523 0.961 . S
C536 H524 0.959 . S
C536 C534 1.561 . S
C537 C534 1.526 . S
C537 C538 1.396 . S
C537 C542 1.390 . S
C538 C532 1.465 . S
C538 C537 1.396 . S
C538 C539 1.399 . S
C539 H525 0.929 . S
C539 C538 1.399 . S
C539 C540 1.385 . S
C540 H526 0.931 . S
C540 C539 1.385 . S
C540 C541 1.389 . S
C541 C540 1.389 . S
C541 C542 1.387 . S
C542 H527 0.930 . S
C542 C537 1.390 . S
C542 C541 1.387 . S
H543 C555 0.930 . S
H544 C557 0.930 . S
H545 C558 0.930 . S
H546 C562 0.959 . S
H547 C562 0.959 . S
H548 C562 0.961 . S
H549 C563 0.960 . S
H550 C563 0.961 . S
H551 C563 0.959 . S
H552 C566 0.929 1_655 S
H553 C567 0.931 . S
H554 C569 0.930 . S
C555 H543 0.930 . S
C555 C556 1.399 . S
C555 C560 1.399 . S
C556 C555 1.399 . S
C556 C557 1.376 . S
C557 H544 0.930 . S
C557 C556 1.376 . S
C557 C558 1.388 . S
C558 H545 0.930 . S
C558 C557 1.388 . S
C558 C559 1.390 . S
C559 C558 1.390 . S
C559 C560 1.394 . S
C559 C565 1.465 1_655 S
C560 C555 1.399 . S
C560 C559 1.394 . S
C560 C561 1.516 1_655 S
C561 C560 1.516 1_455 S
C561 C562 1.502 . S
C561 C563 1.561 . S
C561 C564 1.526 . S
C562 H546 0.959 . S
C562 H547 0.959 . S
C562 H548 0.961 . S
C562 C561 1.502 . S
C563 H549 0.960 . S
C563 H550 0.961 . S
C563 H551 0.959 . S
C563 C561 1.561 . S
C564 C561 1.526 . S
C564 C565 1.396 . S
C564 C569 1.390 . S
C565 C559 1.465 1_455 S
C565 C564 1.396 . S
C565 C566 1.399 . S
C566 H552 0.929 1_455 S
C566 C565 1.399 . S
C566 C567 1.385 . S
C567 H553 0.931 . S
C567 C566 1.385 . S
C567 C568 1.389 . S
C568 C567 1.389 . S
C568 C569 1.387 . S
C569 H554 0.930 . S
C569 C564 1.390 . S
C569 C568 1.387 . S
H570 C582 0.930 . S
H571 C584 0.930 . S
H572 C585 0.930 . S
H573 C589 0.959 . S
H574 C589 0.959 . S
H575 C589 0.961 . S
H576 C590 0.960 . S
H577 C590 0.961 . S
H578 C590 0.952 1_455 S
H579 C593 0.929 . S
H580 C594 0.931 . S
H581 C596 0.930 . S
C582 H570 0.930 . S
C582 C583 1.399 1_655 S
C582 C587 1.399 1_655 S
C583 C582 1.399 1_455 S
C583 C584 1.376 . S
C584 H571 0.930 . S
C584 C583 1.376 . S
C584 C585 1.388 . S
C585 H572 0.930 . S
C585 C584 1.388 . S
C585 C586 1.390 . S
C586 C585 1.390 . S
C586 C587 1.394 . S
C586 C592 1.465 . S
C587 C582 1.399 1_455 S
C587 C586 1.394 . S
C587 C588 1.516 1_445 S
C588 C587 1.516 1_665 S
C588 C589 1.502 . S
C588 C590 1.561 . S
C588 C591 1.526 1_655 S
C589 H573 0.959 . S
C589 H574 0.959 . S
C589 H575 0.961 . S
C589 C588 1.502 . S
C590 H576 0.960 . S
C590 H577 0.961 . S
C590 H578 0.952 1_655 S
C590 C588 1.561 . S
C591 C588 1.526 1_455 S
C591 C592 1.396 1_565 S
C591 C596 1.390 1_455 S
C592 C586 1.465 . S
C592 C591 1.396 1_545 S
C592 C593 1.399 . S
C593 H579 0.929 . S
C593 C592 1.399 . S
C593 C594 1.385 1_545 S
C594 H580 0.931 . S
C594 C593 1.385 1_565 S
C594 C595 1.389 . S
C595 C594 1.389 . S
C595 C596 1.387 1_455 S
C596 H581 0.930 . S
C596 C591 1.390 1_655 S
C596 C595 1.387 1_655 S
H597 C609 0.930 . S
H598 C611 0.930 . S
H599 C612 0.930 . S
H600 C616 0.959 . S
H601 C616 0.959 . S
H602 C616 0.961 . S
H603 C617 0.960 . S
H604 C617 0.961 . S
H605 C617 0.959 . S
H606 C620 0.929 1_655 S
H607 C621 0.931 . S
H608 C623 0.930 . S
C609 H597 0.930 . S
C609 C610 1.399 . S
C609 C614 1.399 1_655 S
C610 C609 1.399 . S
C610 C611 1.376 1_545 S
C611 H598 0.930 . S
C611 C610 1.376 1_565 S
C611 C612 1.388 . S
C612 H599 0.930 . S
C612 C611 1.388 . S
C612 C613 1.390 1_565 S
C613 C612 1.390 1_545 S
C613 C614 1.394 1_655 S
C613 C619 1.465 1_655 S
C614 C609 1.399 1_455 S
C614 C613 1.394 1_455 S
C614 C615 1.516 . S
C615 C614 1.516 . S
C615 C616 1.502 . S
C615 C617 1.561 . S
C615 C618 1.526 . S
C616 H600 0.959 . S
C616 H601 0.959 . S
C616 H602 0.961 . S
C616 C615 1.502 . S
C617 H603 0.960 . S
C617 H604 0.961 . S
C617 H605 0.959 . S
C617 C615 1.561 . S
C618 C615 1.526 . S
C618 C619 1.396 . S
C618 C623 1.390 . S
C619 C613 1.465 1_455 S
C619 C618 1.396 . S
C619 C620 1.399 1_545 S
C620 H606 0.929 1_455 S
C620 C619 1.399 1_565 S
C620 C621 1.385 . S
C621 H607 0.931 . S
C621 C620 1.385 . S
C621 C622 1.389 1_565 S
C622 C621 1.389 1_545 S
C622 C623 1.387 . S
C623 H608 0.930 . S
C623 C618 1.390 . S
C623 C622 1.387 . S
H624 C636 0.930 . S
H625 C638 0.930 . S
H626 C639 0.930 . S
H627 C643 0.959 . S
H628 C643 0.959 . S
H629 C643 0.961 . S
H630 C644 0.960 . S
H631 C644 0.961 . S
H632 C644 0.959 . S
H633 C647 0.929 . S
H634 C648 0.931 . S
H635 C650 0.945 . S
C636 H624 0.930 . S
C636 C637 1.399 . S
C636 C641 1.399 . S
C637 C636 1.399 . S
C637 C638 1.376 . S
C638 H625 0.930 . S
C638 C637 1.376 . S
C638 C639 1.388 1_545 S
C639 H626 0.930 . S
C639 C638 1.388 1_565 S
C639 C640 1.390 1_565 S
C640 C639 1.390 1_545 S
C640 C641 1.394 . S
C640 C646 1.465 1_445 S
C641 C636 1.399 . S
C641 C640 1.394 . S
C641 C642 1.516 . S
C642 C641 1.516 . S
C642 C643 1.502 1_455 S
C642 C644 1.561 . S
C642 C645 1.526 1_455 S
C643 H627 0.959 . S
C643 H628 0.959 . S
C643 H629 0.961 . S
C643 C642 1.502 1_655 S
C644 H630 0.960 . S
C644 H631 0.961 . S
C644 H632 0.959 . S
C644 C642 1.561 . S
C645 C642 1.526 1_655 S
C645 C646 1.396 1_545 S
C645 C650 1.390 1_545 S
C646 C640 1.465 1_665 S
C646 C645 1.396 1_565 S
C646 C647 1.399 . S
C647 H633 0.929 . S
C647 C646 1.399 . S
C647 C648 1.385 . S
C648 H634 0.931 . S
C648 C647 1.385 . S
C648 C649 1.389 . S
C649 C648 1.389 . S
C649 C650 1.387 . S
C650 H635 0.945 . S
C650 C645 1.390 1_565 S
C650 C649 1.387 . S
H651 C663 0.930 . S
H652 C665 0.930 . S
H653 C666 0.930 . S
H654 C670 0.964 . S
H655 C670 0.959 . S
H656 C670 0.961 . S
H657 C671 0.960 . S
H658 C671 0.961 . S
H659 C671 0.959 . S
H660 C674 0.929 . S
H661 C675 0.931 . S
H662 C677 0.930 . S
C663 H651 0.930 . S
C663 C664 1.399 . S
C663 C668 1.399 . S
C664 C663 1.399 . S
C664 C665 1.376 . S
C665 H652 0.930 . S
C665 C664 1.376 . S
C665 C666 1.388 1_545 S
C666 H653 0.930 . S
C666 C665 1.388 1_565 S
C666 C667 1.390 . S
C667 C666 1.390 . S
C667 C668 1.394 1_565 S
C667 C673 1.465 . S
C668 C663 1.399 . S
C668 C667 1.394 1_545 S
C668 C669 1.516 . S
C669 C668 1.516 . S
C669 C670 1.502 . S
C669 C671 1.561 1_655 S
C669 C672 1.526 1_545 S
C670 H654 0.964 . S
C670 H655 0.959 . S
C670 H656 0.961 . S
C670 C669 1.502 . S
C671 H657 0.960 . S
C671 H658 0.961 . S
C671 H659 0.959 . S
C671 C669 1.561 1_455 S
C672 C669 1.526 1_565 S
C672 C673 1.396 . S
C672 C677 1.390 . S
C673 C667 1.465 . S
C673 C672 1.396 . S
C673 C674 1.399 . S
C674 H660 0.929 . S
C674 C673 1.399 . S
C674 C675 1.385 . S
C675 H661 0.931 . S
C675 C674 1.385 . S
C675 C676 1.389 . S
C676 C675 1.389 . S
C676 C677 1.387 . S
C677 H662 0.930 . S
C677 C672 1.390 . S
C677 C676 1.387 . S
H678 C690 0.930 . S
H679 C692 0.930 . S
H680 C693 0.930 . S
H681 C697 0.959 . S
H682 C697 0.959 . S
H683 C697 0.961 . S
H684 C698 0.960 . S
H685 C698 0.961 . S
H686 C698 0.959 . S
H687 C701 0.929 1_455 S
H688 C702 0.931 . S
H689 C704 0.930 . S
C690 H678 0.930 . S
C690 C691 1.399 . S
C690 C695 1.399 1_455 S
C691 C690 1.399 . S
C691 C692 1.376 1_565 S
C692 H679 0.930 . S
C692 C691 1.376 1_545 S
C692 C693 1.388 . S
C693 H680 0.930 . S
C693 C692 1.388 . S
C693 C694 1.390 1_545 S
C694 C693 1.390 1_565 S
C694 C695 1.394 1_455 S
C694 C700 1.465 1_455 S
C695 C690 1.399 1_655 S
C695 C694 1.394 1_655 S
C695 C696 1.516 . S
C696 C695 1.516 . S
C696 C697 1.502 . S
C696 C698 1.561 . S
C696 C699 1.526 . S
C697 H681 0.959 . S
C697 H682 0.959 . S
C697 H683 0.961 . S
C697 C696 1.502 . S
C698 H684 0.960 . S
C698 H685 0.961 . S
C698 H686 0.959 . S
C698 C696 1.561 . S
C699 C696 1.526 . S
C699 C700 1.396 . S
C699 C704 1.390 . S
C700 C694 1.465 1_655 S
C700 C699 1.396 . S
C700 C701 1.399 1_565 S
C701 H687 0.929 1_655 S
C701 C700 1.399 1_545 S
C701 C702 1.385 . S
C702 H688 0.931 . S
C702 C701 1.385 . S
C702 C703 1.389 1_545 S
C703 C702 1.389 1_565 S
C703 C704 1.387 . S
C704 H689 0.930 . S
C704 C699 1.390 . S
C704 C703 1.387 . S
H705 C717 0.930 . S
H706 C719 0.930 . S
H707 C720 0.930 1_545 S
H708 C724 0.959 . S
H709 C724 0.959 . S
H710 C724 0.961 . S
H711 C725 0.960 . S
H712 C725 0.961 . S
H713 C725 0.959 1_545 S
H714 C728 0.929 . S
H715 C729 0.931 . S
H716 C731 0.930 . S
C717 H705 0.930 . S
C717 C718 1.399 . S
C717 C722 1.399 . S
C718 C717 1.399 . S
C718 C719 1.376 . S
C719 H706 0.930 . S
C719 C718 1.376 . S
C719 C720 1.388 1_655 S
C720 H707 0.930 1_565 S
C720 C719 1.388 1_455 S
C720 C721 1.390 . S
C721 C720 1.390 . S
C721 C722 1.394 1_455 S
C721 C727 1.465 1_565 S
C722 C717 1.399 . S
C722 C721 1.394 1_655 S
C722 C723 1.516 . S
C723 C722 1.516 . S
C723 C724 1.502 . S
C723 C725 1.561 . S
C723 C726 1.526 1_665 S
C724 H708 0.959 . S
C724 H709 0.959 . S
C724 H710 0.961 . S
C724 C723 1.502 . S
C725 H711 0.960 . S
C725 H712 0.961 . S
C725 H713 0.959 1_565 S
C725 C723 1.561 . S
C726 C723 1.526 1_445 S
C726 C727 1.396 . S
C726 C731 1.390 . S
C727 C721 1.465 1_545 S
C727 C726 1.396 . S
C727 C728 1.399 . S
C728 H714 0.929 . S
C728 C727 1.399 . S
C728 C729 1.385 . S
C729 H715 0.931 . S
C729 C728 1.385 . S
C729 C730 1.389 . S
C730 C729 1.389 . S
C730 C731 1.387 . S
C731 H716 0.930 . S
C731 C726 1.390 . S
C731 C730 1.387 . S
H732 C744 0.930 . S
H733 C746 0.930 . S
H734 C747 0.930 . S
H735 C751 0.959 . S
H736 C751 0.959 . S
H737 C751 0.961 . S
H738 C752 0.960 . S
H739 C752 0.961 . S
H740 C752 0.959 . S
H741 C755 0.929 . S
H742 C756 0.931 . S
H743 C758 0.930 . S
C744 H732 0.930 . S
C744 C745 1.399 . S
C744 C749 1.448 . S
C745 C744 1.399 . S
C745 C746 1.376 1_556 S
C746 H733 0.930 . S
C746 C745 1.376 1_554 S
C746 C747 1.388 . S
C747 H734 0.930 . S
C747 C746 1.388 . S
C747 C748 1.390 . S
C748 C747 1.390 . S
C748 C749 1.327 1_554 S
C748 C754 1.465 . S
C749 C744 1.448 . S
C749 C748 1.327 1_556 S
C749 C750 1.526 . S
C750 C749 1.526 . S
C750 C751 1.502 . S
C750 C752 1.561 . S
C750 C753 1.526 1_556 S
C751 H735 0.959 . S
C751 H736 0.959 . S
C751 H737 0.961 . S
C751 C750 1.502 . S
C752 H738 0.960 . S
C752 H739 0.961 . S
C752 H740 0.959 . S
C752 C750 1.561 . S
C753 C750 1.526 1_554 S
C753 C754 1.396 . S
C753 C758 1.390 . S
C754 C748 1.465 . S
C754 C753 1.396 . S
C754 C755 1.399 . S
C755 H741 0.929 . S
C755 C754 1.399 . S
C755 C756 1.385 . S
C756 H742 0.931 . S
C756 C755 1.385 . S
C756 C757 1.389 . S
C757 C756 1.389 . S
C757 C758 1.387 . S
C758 H743 0.930 . S
C758 C753 1.390 . S
C758 C757 1.387 . S
H759 C771 0.930 . S
H760 C773 0.930 . S
H761 C774 0.930 . S
H762 C778 0.959 . S
H763 C778 0.959 . S
H764 C778 0.961 . S
H765 C779 0.960 . S
H766 C779 0.961 . S
H767 C779 0.959 . S
H768 C782 0.929 . S
H769 C783 0.931 . S
H770 C785 0.930 . S
C771 H759 0.930 . S
C771 C772 1.399 . S
C771 C776 1.399 . S
C772 C771 1.399 . S
C772 C773 1.376 . S
C773 H760 0.930 . S
C773 C772 1.376 . S
C773 C774 1.388 . S
C774 H761 0.930 . S
C774 C773 1.388 . S
C774 C775 1.390 . S
C775 C774 1.390 . S
C775 C776 1.394 . S
C775 C781 1.465 . S
C776 C771 1.399 . S
C776 C775 1.394 . S
C776 C777 1.516 . S
C777 C776 1.516 . S
C777 C778 1.502 . S
C777 C779 1.561 . S
C777 C780 1.526 . S
C778 H762 0.959 . S
C778 H763 0.959 . S
C778 H764 0.961 . S
C778 C777 1.502 . S
C779 H765 0.960 . S
C779 H766 0.961 . S
C779 H767 0.959 . S
C779 C777 1.561 . S
C780 C777 1.526 . S
C780 C781 1.396 . S
C780 C785 1.390 . S
C781 C775 1.465 . S
C781 C780 1.396 . S
C781 C782 1.399 . S
C782 H768 0.929 . S
C782 C781 1.399 . S
C782 C783 1.385 . S
C783 H769 0.931 . S
C783 C782 1.385 . S
C783 C784 1.389 . S
C784 C783 1.389 . S
C784 C785 1.387 . S
C785 H770 0.930 . S
C785 C780 1.390 . S
C785 C784 1.387 . S
H786 C798 0.930 . S
H787 C800 0.930 . S
H788 C801 0.930 . S
H789 C805 0.959 . S
H790 C805 0.959 . S
H791 C805 0.961 . S
H792 C806 0.960 . S
H793 C806 0.961 . S
H794 C806 0.959 . S
H795 C809 0.929 . S
H796 C810 0.931 . S
H797 C812 0.930 . S
C798 H786 0.930 . S
C798 C799 1.399 . S
C798 C803 1.399 . S
C799 C798 1.399 . S
C799 C800 1.376 . S
C800 H787 0.930 . S
C800 C799 1.376 . S
C800 C801 1.388 . S
C801 H788 0.930 . S
C801 C800 1.388 . S
C801 C802 1.390 . S
C802 C801 1.390 . S
C802 C803 1.394 . S
C802 C808 1.465 . S
C803 C798 1.399 . S
C803 C802 1.394 . S
C803 C804 1.516 . S
C804 C803 1.516 . S
C804 C805 1.502 . S
C804 C806 1.561 . S
C804 C807 1.526 . S
C805 H789 0.959 . S
C805 H790 0.959 . S
C805 H791 0.961 . S
C805 C804 1.502 . S
C806 H792 0.960 . S
C806 H793 0.961 . S
C806 H794 0.959 . S
C806 C804 1.561 . S
C807 C804 1.526 . S
C807 C808 1.396 . S
C807 C812 1.390 . S
C808 C802 1.465 . S
C808 C807 1.396 . S
C808 C809 1.399 . S
C809 H795 0.929 . S
C809 C808 1.399 . S
C809 C810 1.385 . S
C810 H796 0.931 . S
C810 C809 1.385 . S
C810 C811 1.389 . S
C811 C810 1.389 . S
C811 C812 1.387 . S
C812 H797 0.930 . S
C812 C807 1.390 . S
C812 C811 1.387 . S
H813 C825 0.930 . S
H814 C827 0.930 . S
H815 C828 0.930 . S
H816 C832 0.959 . S
H817 C832 0.959 . S
H818 C832 0.961 . S
H819 C833 0.960 . S
H820 C833 0.961 . S
H821 C833 0.959 . S
H822 C836 0.929 . S
H823 C837 0.931 . S
H824 C839 0.930 . S
C825 H813 0.930 . S
C825 C826 1.399 . S
C825 C830 1.399 . S
C826 C825 1.399 . S
C826 C827 1.376 . S
C827 H814 0.930 . S
C827 C826 1.376 . S
C827 C828 1.388 . S
C828 H815 0.930 . S
C828 C827 1.388 . S
C828 C829 1.390 . S
C829 C828 1.390 . S
C829 C830 1.394 . S
C829 C835 1.465 . S
C830 C825 1.399 . S
C830 C829 1.394 . S
C830 C831 1.516 . S
C831 C830 1.516 . S
C831 C832 1.502 . S
C831 C833 1.561 . S
C831 C834 1.526 . S
C832 H816 0.959 . S
C832 H817 0.959 . S
C832 H818 0.961 . S
C832 C831 1.502 . S
C833 H819 0.960 . S
C833 H820 0.961 . S
C833 H821 0.959 . S
C833 C831 1.561 . S
C834 C831 1.526 . S
C834 C835 1.396 . S
C834 C839 1.390 . S
C835 C829 1.465 . S
C835 C834 1.396 . S
C835 C836 1.399 . S
C836 H822 0.929 . S
C836 C835 1.399 . S
C836 C837 1.385 . S
C837 H823 0.931 . S
C837 C836 1.385 . S
C837 C838 1.389 . S
C838 C837 1.389 . S
C838 C839 1.387 . S
C839 H824 0.930 . S
C839 C834 1.390 . S
C839 C838 1.387 . S
H840 C852 0.930 . S
H841 C854 0.930 . S
H842 C855 0.930 . S
H843 C859 0.959 . S
H844 C859 0.959 . S
H845 C859 0.961 . S
H846 C860 0.960 1_655 S
H847 C860 0.961 . S
H848 C860 0.959 . S
H849 C863 0.929 . S
H850 C864 0.931 . S
H851 C866 0.930 . S
C852 H840 0.930 . S
C852 C853 1.399 . S
C852 C857 1.399 . S
C853 C852 1.399 . S
C853 C854 1.376 . S
C854 H841 0.930 . S
C854 C853 1.376 . S
C854 C855 1.388 . S
C855 H842 0.930 . S
C855 C854 1.388 . S
C855 C856 1.390 . S
C856 C855 1.390 . S
C856 C857 1.394 . S
C856 C862 1.465 . S
C857 C852 1.399 . S
C857 C856 1.394 . S
C857 C858 1.516 . S
C858 C857 1.516 . S
C858 C859 1.502 . S
C858 C860 1.561 . S
C858 C861 1.526 . S
C859 H843 0.959 . S
C859 H844 0.959 . S
C859 H845 0.961 . S
C859 C858 1.502 . S
C860 H846 0.960 1_455 S
C860 H847 0.961 . S
C860 H848 0.959 . S
C860 C858 1.561 . S
C861 C858 1.526 . S
C861 C862 1.396 . S
C861 C866 1.390 . S
C862 C856 1.465 . S
C862 C861 1.396 . S
C862 C863 1.399 . S
C863 H849 0.929 . S
C863 C862 1.399 . S
C863 C864 1.385 . S
C864 H850 0.931 . S
C864 C863 1.385 . S
C864 C865 1.389 . S
C865 C864 1.389 . S
C865 C866 1.387 . S
C866 H851 0.930 . S
C866 C861 1.390 . S
C866 C865 1.387 . S
H867 C879 0.930 . S
H868 C881 0.930 . S
H869 C882 0.930 . S
H870 C886 0.959 . S
H871 C886 0.959 . S
H872 C886 0.961 . S
H873 C887 0.960 . S
H874 C887 0.961 1_565 S
H875 C887 0.959 . S
H876 C890 0.929 . S
H877 C891 0.931 . S
H878 C893 0.930 . S
C879 H867 0.930 . S
C879 C880 1.399 . S
C879 C884 1.399 . S
C880 C879 1.399 . S
C880 C881 1.376 . S
C881 H868 0.930 . S
C881 C880 1.376 . S
C881 C882 1.388 . S
C882 H869 0.930 . S
C882 C881 1.388 . S
C882 C883 1.390 . S
C883 C882 1.390 . S
C883 C884 1.394 . S
C883 C889 1.465 . S
C884 C879 1.399 . S
C884 C883 1.394 . S
C884 C885 1.516 . S
C885 C884 1.516 . S
C885 C886 1.502 . S
C885 C887 1.561 . S
C885 C888 1.526 . S
C886 H870 0.959 . S
C886 H871 0.959 . S
C886 H872 0.961 . S
C886 C885 1.502 . S
C887 H873 0.960 . S
C887 H874 0.961 1_545 S
C887 H875 0.959 . S
C887 C885 1.561 . S
C888 C885 1.526 . S
C888 C889 1.396 . S
C888 C893 1.390 . S
C889 C883 1.465 . S
C889 C888 1.396 . S
C889 C890 1.399 . S
C890 H876 0.929 . S
C890 C889 1.399 . S
C890 C891 1.385 . S
C891 H877 0.931 . S
C891 C890 1.385 . S
C891 C892 1.389 . S
C892 C891 1.389 . S
C892 C893 1.387 . S
C893 H878 0.930 . S
C893 C888 1.390 . S
C893 C892 1.387 . S
H894 C906 0.930 . S
H895 C908 0.930 . S
H896 C909 0.930 . S
H897 C913 0.959 . S
H898 C913 0.959 . S
H899 C913 0.961 . S
H900 C914 0.960 . S
H901 C914 0.961 . S
H902 C914 0.959 . S
H903 C917 0.929 . S
H904 C918 0.931 . S
H905 C920 0.930 . S
C906 H894 0.930 . S
C906 C907 1.399 . S
C906 C911 1.399 . S
C907 C906 1.399 . S
C907 C908 1.376 . S
C908 H895 0.930 . S
C908 C907 1.376 . S
C908 C909 1.388 . S
C909 H896 0.930 . S
C909 C908 1.388 . S
C909 C910 1.390 . S
C910 C909 1.390 . S
C910 C911 1.394 . S
C910 C916 1.465 . S
C911 C906 1.399 . S
C911 C910 1.394 . S
C911 C912 1.516 . S
C912 C911 1.516 . S
C912 C913 1.502 . S
C912 C914 1.561 . S
C912 C915 1.526 . S
C913 H897 0.959 . S
C913 H898 0.959 . S
C913 H899 0.961 . S
C913 C912 1.502 . S
C914 H900 0.960 . S
C914 H901 0.961 . S
C914 H902 0.959 . S
C914 C912 1.561 . S
C915 C912 1.526 . S
C915 C916 1.396 . S
C915 C920 1.390 . S
C916 C910 1.465 . S
C916 C915 1.396 . S
C916 C917 1.399 . S
C917 H903 0.929 . S
C917 C916 1.399 . S
C917 C918 1.385 . S
C918 H904 0.931 . S
C918 C917 1.385 . S
C918 C919 1.389 . S
C919 C918 1.389 . S
C919 C920 1.387 . S
C920 H905 0.930 . S
C920 C915 1.390 . S
C920 C919 1.387 . S
H921 C933 0.930 . S
H922 C935 0.930 . S
H923 C936 0.930 . S
H924 C940 0.959 . S
H925 C940 0.959 . S
H926 C940 0.961 . S
H927 C941 0.960 . S
H928 C941 0.927 1_556 S
H929 C941 0.959 . S
H930 C944 0.874 1_554 S
H931 C945 0.931 . S
H932 C947 0.930 . S
C933 H921 0.930 . S
C933 C934 1.399 . S
C933 C938 1.399 . S
C934 C933 1.399 . S
C934 C935 1.376 . S
C935 H922 0.930 . S
C935 C934 1.376 . S
C935 C936 1.388 . S
C936 H923 0.930 . S
C936 C935 1.388 . S
C936 C937 1.390 . S
C937 C936 1.390 . S
C937 C938 1.394 . S
C937 C943 1.459 . S
C938 C933 1.399 . S
C938 C937 1.394 . S
C938 C939 1.516 1_554 S
C939 C938 1.516 1_556 S
C939 C940 1.502 . S
C939 C941 1.561 1_556 S
C939 C942 1.526 . S
C940 H924 0.959 . S
C940 H925 0.959 . S
C940 H926 0.961 . S
C940 C939 1.502 . S
C941 H927 0.960 . S
C941 H928 0.927 1_554 S
C941 H929 0.959 . S
C941 C939 1.561 1_554 S
C942 C939 1.526 . S
C942 C943 1.402 1_556 S
C942 C947 1.390 . S
C943 C937 1.459 . S
C943 C942 1.402 1_554 S
C943 C944 1.393 1_554 S
C944 H930 0.874 1_556 S
C944 C943 1.393 1_556 S
C944 C945 1.462 . S
C945 H931 0.931 . S
C945 C944 1.462 . S
C945 C946 1.389 . S
C946 C945 1.389 . S
C946 C947 1.387 . S
C947 H932 0.930 . S
C947 C942 1.390 . S
C947 C946 1.387 . S
H948 C960 0.930 . S
H949 C962 0.930 . S
H950 C963 0.930 . S
H951 C967 0.959 . S
H952 C967 0.959 . S
H953 C967 0.961 . S
H954 C968 0.960 . S
H955 C968 0.961 . S
H956 C968 0.959 . S
H957 C971 0.929 . S
H958 C972 0.931 . S
H959 C974 0.930 . S
C960 H948 0.930 . S
C960 C961 1.399 . S
C960 C965 1.399 . S
C961 C960 1.399 . S
C961 C962 1.376 . S
C962 H949 0.930 . S
C962 C961 1.376 . S
C962 C963 1.388 . S
C963 H950 0.930 . S
C963 C962 1.388 . S
C963 C964 1.390 . S
C964 C963 1.390 . S
C964 C965 1.394 . S
C964 C970 1.465 . S
C965 C960 1.399 . S
C965 C964 1.394 . S
C965 C966 1.516 . S
C966 C965 1.516 . S
C966 C967 1.502 . S
C966 C968 1.561 . S
C966 C969 1.526 . S
C967 H951 0.959 . S
C967 H952 0.959 . S
C967 H953 0.961 . S
C967 C966 1.502 . S
C968 H954 0.960 . S
C968 H955 0.961 . S
C968 H956 0.959 . S
C968 C966 1.561 . S
C969 C966 1.526 . S
C969 C970 1.396 . S
C969 C974 1.390 . S
C970 C964 1.465 . S
C970 C969 1.396 . S
C970 C971 1.399 . S
C971 H957 0.929 . S
C971 C970 1.399 . S
C971 C972 1.385 . S
C972 H958 0.931 . S
C972 C971 1.385 . S
C972 C973 1.389 . S
C973 C972 1.389 . S
C973 C974 1.387 . S
C974 H959 0.930 . S
C974 C969 1.390 . S
C974 C973 1.387 . S
H975 C987 0.930 . S
H976 C989 0.930 . S
H977 C990 0.930 . S
H978 C994 0.959 . S
H979 C994 0.959 . S
H980 C994 0.961 . S
H981 C995 0.960 . S
H982 C995 0.961 . S
H983 C995 0.959 . S
H984 C998 0.929 . S
H985 C999 0.931 . S
H986 C1001 0.930 . S
C987 H975 0.930 . S
C987 C988 1.399 . S
C987 C992 1.399 . S
C988 C987 1.399 . S
C988 C989 1.376 . S
C989 H976 0.930 . S
C989 C988 1.376 . S
C989 C990 1.388 . S
C990 H977 0.930 . S
C990 C989 1.388 . S
C990 C991 1.390 . S
C991 C990 1.390 . S
C991 C992 1.394 . S
C991 C997 1.465 . S
C992 C987 1.399 . S
C992 C991 1.394 . S
C992 C993 1.516 . S
C993 C992 1.516 . S
C993 C994 1.502 . S
C993 C995 1.561 . S
C993 C996 1.526 . S
C994 H978 0.959 . S
C994 H979 0.959 . S
C994 H980 0.961 . S
C994 C993 1.502 . S
C995 H981 0.960 . S
C995 H982 0.961 . S
C995 H983 0.959 . S
C995 C993 1.561 . S
C996 C993 1.526 . S
C996 C997 1.396 . S
C996 C1001 1.390 . S
C997 C991 1.465 . S
C997 C996 1.396 . S
C997 C998 1.399 . S
C998 H984 0.929 . S
C998 C997 1.399 . S
C998 C999 1.385 . S
C999 H985 0.931 . S
C999 C998 1.385 . S
C999 C1000 1.389 . S
C1000 C999 1.389 . S
C1000 C1001 1.387 . S
C1001 H986 0.930 . S
C1001 C996 1.390 . S
C1001 C1000 1.387 . S
H1002 C1014 0.930 . S
H1003 C1016 0.930 . S
H1004 C1017 0.930 . S
H1005 C1021 0.959 . S
H1006 C1021 0.959 . S
H1007 C1021 0.961 . S
H1008 C1022 0.960 . S
H1009 C1022 0.961 . S
H1010 C1022 0.959 . S
H1011 C1025 0.929 . S
H1012 C1026 0.931 . S
H1013 C1028 0.930 . S
C1014 H1002 0.930 . S
C1014 C1015 1.399 . S
C1014 C1019 1.399 . S
C1015 C1014 1.399 . S
C1015 C1016 1.376 . S
C1016 H1003 0.930 . S
C1016 C1015 1.376 . S
C1016 C1017 1.388 . S
C1017 H1004 0.930 . S
C1017 C1016 1.388 . S
C1017 C1018 1.390 . S
C1018 C1017 1.390 . S
C1018 C1019 1.394 . S
C1018 C1024 1.465 . S
C1019 C1014 1.399 . S
C1019 C1018 1.394 . S
C1019 C1020 1.516 . S
C1020 C1019 1.516 . S
C1020 C1021 1.502 . S
C1020 C1022 1.561 . S
C1020 C1023 1.526 . S
C1021 H1005 0.959 . S
C1021 H1006 0.959 . S
C1021 H1007 0.961 . S
C1021 C1020 1.502 . S
C1022 H1008 0.960 . S
C1022 H1009 0.961 . S
C1022 H1010 0.959 . S
C1022 C1020 1.561 . S
C1023 C1020 1.526 . S
C1023 C1024 1.396 . S
C1023 C1028 1.390 . S
C1024 C1018 1.465 . S
C1024 C1023 1.396 . S
C1024 C1025 1.399 . S
C1025 H1011 0.929 . S
C1025 C1024 1.399 . S
C1025 C1026 1.385 . S
C1026 H1012 0.931 . S
C1026 C1025 1.385 . S
C1026 C1027 1.389 . S
C1027 C1026 1.389 . S
C1027 C1028 1.387 . S
C1028 H1013 0.930 . S
C1028 C1023 1.390 . S
C1028 C1027 1.387 . S
H1029 C1041 0.930 . S
H1030 C1043 0.930 . S
H1031 C1044 0.930 . S
H1032 C1048 0.959 . S
H1033 C1048 0.959 . S
H1034 C1048 0.961 . S
H1035 C1049 0.960 . S
H1036 C1049 0.961 . S
H1037 C1049 0.959 . S
H1038 C1052 0.929 . S
H1039 C1053 0.931 . S
H1040 C1055 0.930 . S
C1041 H1029 0.930 . S
C1041 C1042 1.399 . S
C1041 C1046 1.399 . S
C1042 C1041 1.399 . S
C1042 C1043 1.376 . S
C1043 H1030 0.930 . S
C1043 C1042 1.376 . S
C1043 C1044 1.388 . S
C1044 H1031 0.930 . S
C1044 C1043 1.388 . S
C1044 C1045 1.390 . S
C1045 C1044 1.390 . S
C1045 C1046 1.394 . S
C1045 C1051 1.465 . S
C1046 C1041 1.399 . S
C1046 C1045 1.394 . S
C1046 C1047 1.516 . S
C1047 C1046 1.516 . S
C1047 C1048 1.502 . S
C1047 C1049 1.561 . S
C1047 C1050 1.526 . S
C1048 H1032 0.959 . S
C1048 H1033 0.959 . S
C1048 H1034 0.961 . S
C1048 C1047 1.502 . S
C1049 H1035 0.960 . S
C1049 H1036 0.961 . S
C1049 H1037 0.959 . S
C1049 C1047 1.561 . S
C1050 C1047 1.526 . S
C1050 C1051 1.396 . S
C1050 C1055 1.390 . S
C1051 C1045 1.465 . S
C1051 C1050 1.396 . S
C1051 C1052 1.399 . S
C1052 H1038 0.929 . S
C1052 C1051 1.399 . S
C1052 C1053 1.385 . S
C1053 H1039 0.931 . S
C1053 C1052 1.385 . S
C1053 C1054 1.389 . S
C1054 C1053 1.389 . S
C1054 C1055 1.387 . S
C1055 H1040 0.930 . S
C1055 C1050 1.390 . S
C1055 C1054 1.387 . S
H1056 C1068 0.930 . S
H1057 C1070 0.930 . S
H1058 C1071 0.930 . S
H1059 C1075 0.959 . S
H1060 C1075 0.959 . S
H1061 C1075 0.961 . S
H1062 C1076 0.960 . S
H1063 C1076 0.961 . S
H1064 C1076 0.959 . S
H1065 C1079 0.929 . S
H1066 C1080 0.931 . S
H1067 C1082 0.930 . S
C1068 H1056 0.930 . S
C1068 C1069 1.399 . S
C1068 C1073 1.399 . S
C1069 C1068 1.399 . S
C1069 C1070 1.376 . S
C1070 H1057 0.930 . S
C1070 C1069 1.376 . S
C1070 C1071 1.388 . S
C1071 H1058 0.930 . S
C1071 C1070 1.388 . S
C1071 C1072 1.390 . S
C1072 C1071 1.390 . S
C1072 C1073 1.394 . S
C1072 C1078 1.465 . S
C1073 C1068 1.399 . S
C1073 C1072 1.394 . S
C1073 C1074 1.516 . S
C1074 C1073 1.516 . S
C1074 C1075 1.502 1_655 S
C1074 C1076 1.561 . S
C1074 C1077 1.526 . S
C1075 H1059 0.959 . S
C1075 H1060 0.959 . S
C1075 H1061 0.961 . S
C1075 C1074 1.502 1_455 S
C1076 H1062 0.960 . S
C1076 H1063 0.961 . S
C1076 H1064 0.959 . S
C1076 C1074 1.561 . S
C1077 C1074 1.526 . S
C1077 C1078 1.396 . S
C1077 C1082 1.390 . S
C1078 C1072 1.465 . S
C1078 C1077 1.396 . S
C1078 C1079 1.399 . S
C1079 H1065 0.929 . S
C1079 C1078 1.399 . S
C1079 C1080 1.385 . S
C1080 H1066 0.931 . S
C1080 C1079 1.385 . S
C1080 C1081 1.389 . S
C1081 C1080 1.389 . S
C1081 C1082 1.387 . S
C1082 H1067 0.930 . S
C1082 C1077 1.390 . S
C1082 C1081 1.387 . S
H1083 C1095 0.930 . S
H1084 C1097 0.930 . S
H1085 C1098 0.930 . S
H1086 C1102 0.959 . S
H1087 C1102 0.959 . S
H1088 C1102 0.961 . S
H1089 C1103 0.960 . S
H1090 C1103 0.961 . S
H1091 C1103 0.959 . S
H1092 C1106 0.929 . S
H1093 C1107 0.931 . S
H1094 C1109 0.930 . S
C1095 H1083 0.930 . S
C1095 C1096 1.399 . S
C1095 C1100 1.399 . S
C1096 C1095 1.399 . S
C1096 C1097 1.376 1_565 S
C1097 H1084 0.930 . S
C1097 C1096 1.376 1_545 S
C1097 C1098 1.388 . S
C1098 H1085 0.930 . S
C1098 C1097 1.388 . S
C1098 C1099 1.390 . S
C1099 C1098 1.390 . S
C1099 C1100 1.394 1_545 S
C1099 C1105 1.465 . S
C1100 C1095 1.399 . S
C1100 C1099 1.394 1_565 S
C1100 C1101 1.516 . S
C1101 C1100 1.516 . S
C1101 C1102 1.502 . S
C1101 C1103 1.561 . S
C1101 C1104 1.526 . S
C1102 H1086 0.959 . S
C1102 H1087 0.959 . S
C1102 H1088 0.961 . S
C1102 C1101 1.502 . S
C1103 H1089 0.960 . S
C1103 H1090 0.961 . S
C1103 H1091 0.959 . S
C1103 C1101 1.561 . S
C1104 C1101 1.526 . S
C1104 C1105 1.396 1_565 S
C1104 C1109 1.390 . S
C1105 C1099 1.465 . S
C1105 C1104 1.396 1_545 S
C1105 C1106 1.399 . S
C1106 H1092 0.929 . S
C1106 C1105 1.399 . S
C1106 C1107 1.385 . S
C1107 H1093 0.931 . S
C1107 C1106 1.385 . S
C1107 C1108 1.389 1_545 S
C1108 C1107 1.389 1_565 S
C1108 C1109 1.387 . S
C1109 H1094 0.930 . S
C1109 C1104 1.390 . S
C1109 C1108 1.387 . S
H1110 C1122 0.930 . S
H1111 C1124 0.930 . S
H1112 C1125 0.930 . S
H1113 C1129 0.959 . S
H1114 C1129 0.959 . S
H1115 C1129 0.961 . S
H1116 C1130 0.960 . S
H1117 C1130 0.961 . S
H1118 C1130 0.959 . S
H1119 C1133 0.929 . S
H1120 C1134 0.931 . S
H1121 C1136 0.930 . S
C1122 H1110 0.930 . S
C1122 C1123 1.399 . S
C1122 C1127 1.399 . S
C1123 C1122 1.399 . S
C1123 C1124 1.376 . S
C1124 H1111 0.930 . S
C1124 C1123 1.376 . S
C1124 C1125 1.388 . S
C1125 H1112 0.930 . S
C1125 C1124 1.388 . S
C1125 C1126 1.390 . S
C1126 C1125 1.390 . S
C1126 C1127 1.394 . S
C1126 C1132 1.465 . S
C1127 C1122 1.399 . S
C1127 C1126 1.394 . S
C1127 C1128 1.516 . S
C1128 C1127 1.516 . S
C1128 C1129 1.502 . S
C1128 C1130 1.561 . S
C1128 C1131 1.526 . S
C1129 H1113 0.959 . S
C1129 H1114 0.959 . S
C1129 H1115 0.961 . S
C1129 C1128 1.502 . S
C1130 H1116 0.960 . S
C1130 H1117 0.961 . S
C1130 H1118 0.959 . S
C1130 C1128 1.561 . S
C1131 C1128 1.526 . S
C1131 C1132 1.396 . S
C1131 C1136 1.390 . S
C1132 C1126 1.465 . S
C1132 C1131 1.396 . S
C1132 C1133 1.399 . S
C1133 H1119 0.929 . S
C1133 C1132 1.399 . S
C1133 C1134 1.385 . S
C1134 H1120 0.931 . S
C1134 C1133 1.385 . S
C1134 C1135 1.389 . S
C1135 C1134 1.389 . S
C1135 C1136 1.387 . S
C1136 H1121 0.930 . S
C1136 C1131 1.390 . S
C1136 C1135 1.387 . S
H1137 C1149 0.930 . S
H1138 C1151 0.930 . S
H1139 C1152 0.930 . S
H1140 C1156 0.959 . S
H1141 C1156 0.959 . S
H1142 C1156 0.961 . S
H1143 C1157 0.960 . S
H1144 C1157 0.961 . S
H1145 C1157 0.959 . S
H1146 C1160 0.929 . S
H1147 C1161 0.931 . S
H1148 C1163 0.930 . S
C1149 H1137 0.930 . S
C1149 C1150 1.399 . S
C1149 C1154 1.399 . S
C1150 C1149 1.399 . S
C1150 C1151 1.376 1_455 S
C1151 H1138 0.930 . S
C1151 C1150 1.376 1_655 S
C1151 C1152 1.388 . S
C1152 H1139 0.930 . S
C1152 C1151 1.388 . S
C1152 C1153 1.390 . S
C1153 C1152 1.390 . S
C1153 C1154 1.394 1_655 S
C1153 C1159 1.465 . S
C1154 C1149 1.399 . S
C1154 C1153 1.394 1_455 S
C1154 C1155 1.516 . S
C1155 C1154 1.516 . S
C1155 C1156 1.502 . S
C1155 C1157 1.561 . S
C1155 C1158 1.526 . S
C1156 H1140 0.959 . S
C1156 H1141 0.959 . S
C1156 H1142 0.961 . S
C1156 C1155 1.502 . S
C1157 H1143 0.960 . S
C1157 H1144 0.961 . S
C1157 H1145 0.959 . S
C1157 C1155 1.561 . S
C1158 C1155 1.526 . S
C1158 C1159 1.396 1_455 S
C1158 C1163 1.390 . S
C1159 C1153 1.465 . S
C1159 C1158 1.396 1_655 S
C1159 C1160 1.399 . S
C1160 H1146 0.929 . S
C1160 C1159 1.399 . S
C1160 C1161 1.385 . S
C1161 H1147 0.931 . S
C1161 C1160 1.385 . S
C1161 C1162 1.389 1_655 S
C1162 C1161 1.389 1_455 S
C1162 C1163 1.387 . S
C1163 H1148 0.930 . S
C1163 C1158 1.390 . S
C1163 C1162 1.387 . S
H1164 C1176 0.930 . S
H1165 C1178 0.930 . S
H1166 C1179 0.930 . S
H1167 C1183 0.959 . S
H1168 C1183 0.959 . S
H1169 C1183 0.961 . S
H1170 C1184 0.960 . S
H1171 C1184 0.961 . S
H1172 C1184 0.959 . S
H1173 C1187 0.929 . S
H1174 C1188 0.931 . S
H1175 C1190 0.930 . S
C1176 H1164 0.930 . S
C1176 C1177 1.399 1_565 S
C1176 C1181 1.399 . S
C1177 C1176 1.399 1_545 S
C1177 C1178 1.376 . S
C1178 H1165 0.930 . S
C1178 C1177 1.376 . S
C1178 C1179 1.388 . S
C1179 H1166 0.930 . S
C1179 C1178 1.388 . S
C1179 C1180 1.390 . S
C1180 C1179 1.390 . S
C1180 C1181 1.394 1_545 S
C1180 C1186 1.465 . S
C1181 C1176 1.399 . S
C1181 C1180 1.394 1_565 S
C1181 C1182 1.516 . S
C1182 C1181 1.516 . S
C1182 C1183 1.502 . S
C1182 C1184 1.561 . S
C1182 C1185 1.526 . S
C1183 H1167 0.959 . S
C1183 H1168 0.959 . S
C1183 H1169 0.961 . S
C1183 C1182 1.502 . S
C1184 H1170 0.960 . S
C1184 H1171 0.961 . S
C1184 H1172 0.959 . S
C1184 C1182 1.561 . S
C1185 C1182 1.526 . S
C1185 C1186 1.396 1_565 S
C1185 C1190 1.390 . S
C1186 C1180 1.465 . S
C1186 C1185 1.396 1_545 S
C1186 C1187 1.399 . S
C1187 H1173 0.929 . S
C1187 C1186 1.399 . S
C1187 C1188 1.385 . S
C1188 H1174 0.931 . S
C1188 C1187 1.385 . S
C1188 C1189 1.389 . S
C1189 C1188 1.389 . S
C1189 C1190 1.387 1_545 S
C1190 H1175 0.930 . S
C1190 C1185 1.390 . S
C1190 C1189 1.387 1_565 S
H1191 C1203 0.930 . S
H1192 C1205 0.930 . S
H1193 C1206 0.930 . S
H1194 C1210 0.959 . S
H1195 C1210 0.959 . S
H1196 C1210 0.961 . S
H1197 C1211 0.960 . S
H1198 C1211 0.961 . S
H1199 C1211 0.959 . S
H1200 C1214 0.929 . S
H1201 C1215 0.931 . S
H1202 C1217 0.930 . S
C1203 H1191 0.930 . S
C1203 C1204 1.399 . S
C1203 C1208 1.399 . S
C1204 C1203 1.399 . S
C1204 C1205 1.376 . S
C1205 H1192 0.930 . S
C1205 C1204 1.376 . S
C1205 C1206 1.388 . S
C1206 H1193 0.930 . S
C1206 C1205 1.388 . S
C1206 C1207 1.390 . S
C1207 C1206 1.390 . S
C1207 C1208 1.394 . S
C1207 C1213 1.465 . S
C1208 C1203 1.399 . S
C1208 C1207 1.394 . S
C1208 C1209 1.516 . S
C1209 C1208 1.516 . S
C1209 C1210 1.502 . S
C1209 C1211 1.561 . S
C1209 C1212 1.526 . S
C1210 H1194 0.959 . S
C1210 H1195 0.959 . S
C1210 H1196 0.961 . S
C1210 C1209 1.502 . S
C1211 H1197 0.960 . S
C1211 H1198 0.961 . S
C1211 H1199 0.959 . S
C1211 C1209 1.561 . S
C1212 C1209 1.526 . S
C1212 C1213 1.396 . S
C1212 C1217 1.390 . S
C1213 C1207 1.465 . S
C1213 C1212 1.396 . S
C1213 C1214 1.399 . S
C1214 H1200 0.929 . S
C1214 C1213 1.399 . S
C1214 C1215 1.385 . S
C1215 H1201 0.931 . S
C1215 C1214 1.385 . S
C1215 C1216 1.389 . S
C1216 C1215 1.389 . S
C1216 C1217 1.387 . S
C1217 H1202 0.930 . S
C1217 C1212 1.390 . S
C1217 C1216 1.387 . S
C421 C240 1.877 . S
C433 C2 1.877 . S
C448 C274 1.851 . S
C460 C36 1.855 . S
C475 C70 1.870 . S
C487 C308 1.872 . S
C502 C342 1.870 . S
C514 C104 1.872 . S
C529 C138 1.847 . S
C541 C376 1.850 . S
C556 C206 1.875 . S
C568 C172 1.874 . S
C583 C9 1.175 . S
C595 C281 1.179 . S
C610 C43 1.232 . S
C622 C315 1.252 . S
C637 C349 1.231 . S
C649 C77 1.213 . S
C664 C383 1.240 . S
C676 C111 1.206 . S
C691 C145 1.234 . S
C703 C213 1.252 . S
C718 C247 1.211 . S
C730 C179 1.174 . S
C745 C243 1.531 . S
C757 C33 1.529 . S
C772 C277 1.535 . S
C784 C67 1.562 . S
C799 C311 1.551 . S
C811 C101 1.581 . S
C826 C135 1.528 . S
C838 C345 1.507 . S
C853 C379 1.548 . S
C865 C169 1.564 . S
C880 C203 1.580 . S
C892 C209 1.554 . S
C907 C237 1.529 . S
C919 C175 1.518 . S
C934 C5 1.574 . S
C946 C271 1.584 . S
C961 C39 1.569 . S
C973 C305 1.567 . S
C988 C73 1.501 . S
C1000 C339 1.526 . S
C1015 C107 1.586 . S
C1027 C373 1.585 . S
C1042 C141 1.541 . S
C1054 C407 1.563 . S
C1069 C292 1.333 . S
C1081 C20 1.343 . S
C1096 C54 1.333 . S
C1108 C326 1.339 . S
C1123 C360 1.368 . S
C1135 C88 1.377 . S
C1150 C122 1.338 . S
C1162 C394 1.334 . S
C1177 C156 1.341 . S
C1189 C224 1.336 . S
C1204 C258 1.377 . S
C1216 C190 1.369 . S
