# Generated by pormake.
# Topology ull, (4)-cn, num edge types: 1
# Building blocks:
#     Node 0, Type 0, BuildingBlock: GALJAG_clean_sbu_0, # of connection points: 4
#     Node 1, Type 0, BuildingBlock: GALJAG_clean_sbu_0, # of connection points: 4
#     Node 2, Type 0, BuildingBlock: GALJAG_clean_sbu_0, # of connection points: 4
#     Node 3, Type 0, BuildingBlock: GALJAG_clean_sbu_0, # of connection points: 4
#     Node 4, Type 0, BuildingBlock: GALJAG_clean_sbu_0, # of connection points: 4
#     Node 5, Type 0, BuildingBlock: GALJAG_clean_sbu_0, # of connection points: 4
#     Node 6, Type 0, BuildingBlock: GALJAG_clean_sbu_0, # of connection points: 4
#     Node 7, Type 0, BuildingBlock: GALJAG_clean_sbu_0, # of connection points: 4
#     Node 8, Type 0, BuildingBlock: GALJAG_clean_sbu_0, # of connection points: 4
#     Node 9, Type 0, BuildingBlock: GALJAG_clean_sbu_0, # of connection points: 4
#     Node 10, Type 0, BuildingBlock: GALJAG_clean_sbu_0, # of connection points: 4
#     Node 11, Type 0, BuildingBlock: GALJAG_clean_sbu_0, # of connection points: 4
#     Node 12, Type 0, BuildingBlock: GALJAG_clean_sbu_0, # of connection points: 4
#     Node 13, Type 0, BuildingBlock: GALJAG_clean_sbu_0, # of connection points: 4
#     Node 14, Type 0, BuildingBlock: GALJAG_clean_sbu_0, # of connection points: 4
#     Node 15, Type 0, BuildingBlock: GALJAG_clean_sbu_0, # of connection points: 4
#     Node 16, Type 0, BuildingBlock: GALJAG_clean_sbu_0, # of connection points: 4
#     Node 17, Type 0, BuildingBlock: GALJAG_clean_sbu_0, # of connection points: 4
#     Node 18, Type 0, BuildingBlock: GALJAG_clean_sbu_0, # of connection points: 4
#     Node 19, Type 0, BuildingBlock: GALJAG_clean_sbu_0, # of connection points: 4
#     Node 20, Type 0, BuildingBlock: GALJAG_clean_sbu_0, # of connection points: 4
#     Node 21, Type 0, BuildingBlock: GALJAG_clean_sbu_0, # of connection points: 4
#     Node 22, Type 0, BuildingBlock: GALJAG_clean_sbu_0, # of connection points: 4
#     Node 23, Type 0, BuildingBlock: GALJAG_clean_sbu_0, # of connection points: 4
#     Node 24, Type 0, BuildingBlock: GALJAG_clean_sbu_0, # of connection points: 4
#     Node 25, Type 0, BuildingBlock: GALJAG_clean_sbu_0, # of connection points: 4
#     Node 26, Type 0, BuildingBlock: GALJAG_clean_sbu_0, # of connection points: 4
#     Node 27, Type 0, BuildingBlock: GALJAG_clean_sbu_0, # of connection points: 4
#     Node 28, Type 0, BuildingBlock: GALJAG_clean_sbu_0, # of connection points: 4
#     Node 29, Type 0, BuildingBlock: GALJAG_clean_sbu_0, # of connection points: 4
#     Node 30, Type 0, BuildingBlock: GALJAG_clean_sbu_0, # of connection points: 4
#     Node 31, Type 0, BuildingBlock: GALJAG_clean_sbu_0, # of connection points: 4
#     Node 32, Type 0, BuildingBlock: GALJAG_clean_sbu_0, # of connection points: 4
#     Node 33, Type 0, BuildingBlock: GALJAG_clean_sbu_0, # of connection points: 4
#     Node 34, Type 0, BuildingBlock: GALJAG_clean_sbu_0, # of connection points: 4
#     Node 35, Type 0, BuildingBlock: GALJAG_clean_sbu_0, # of connection points: 4
#     Node 36, Type 0, BuildingBlock: GALJAG_clean_sbu_0, # of connection points: 4
#     Node 37, Type 0, BuildingBlock: GALJAG_clean_sbu_0, # of connection points: 4
#     Node 38, Type 0, BuildingBlock: GALJAG_clean_sbu_0, # of connection points: 4
#     Node 39, Type 0, BuildingBlock: GALJAG_clean_sbu_0, # of connection points: 4
#     Node 40, Type 0, BuildingBlock: GALJAG_clean_sbu_0, # of connection points: 4
#     Node 41, Type 0, BuildingBlock: GALJAG_clean_sbu_0, # of connection points: 4
#     Node 42, Type 0, BuildingBlock: GALJAG_clean_sbu_0, # of connection points: 4
#     Node 43, Type 0, BuildingBlock: GALJAG_clean_sbu_0, # of connection points: 4
#     Node 44, Type 0, BuildingBlock: GALJAG_clean_sbu_0, # of connection points: 4
#     Node 45, Type 0, BuildingBlock: GALJAG_clean_sbu_0, # of connection points: 4
#     Node 46, Type 0, BuildingBlock: GALJAG_clean_sbu_0, # of connection points: 4
#     Node 47, Type 0, BuildingBlock: GALJAG_clean_sbu_0, # of connection points: 4
#     Edge 48, Type (0, 0), BuildingBlock: OJICUG_clean_linker_0, # of connection points: 2
#     Edge 49, Type (0, 0), BuildingBlock: OJICUG_clean_linker_0, # of connection points: 2
#     Edge 50, Type (0, 0), BuildingBlock: OJICUG_clean_linker_0, # of connection points: 2
#     Edge 51, Type (0, 0), BuildingBlock: OJICUG_clean_linker_0, # of connection points: 2
#     Edge 52, Type (0, 0), BuildingBlock: OJICUG_clean_linker_0, # of connection points: 2
#     Edge 53, Type (0, 0), BuildingBlock: OJICUG_clean_linker_0, # of connection points: 2
#     Edge 54, Type (0, 0), BuildingBlock: OJICUG_clean_linker_0, # of connection points: 2
#     Edge 55, Type (0, 0), BuildingBlock: OJICUG_clean_linker_0, # of connection points: 2
#     Edge 56, Type (0, 0), BuildingBlock: OJICUG_clean_linker_0, # of connection points: 2
#     Edge 57, Type (0, 0), BuildingBlock: OJICUG_clean_linker_0, # of connection points: 2
#     Edge 58, Type (0, 0), BuildingBlock: OJICUG_clean_linker_0, # of connection points: 2
#     Edge 59, Type (0, 0), BuildingBlock: OJICUG_clean_linker_0, # of connection points: 2
#     Edge 60, Type (0, 0), BuildingBlock: OJICUG_clean_linker_0, # of connection points: 2
#     Edge 61, Type (0, 0), BuildingBlock: OJICUG_clean_linker_0, # of connection points: 2
#     Edge 62, Type (0, 0), BuildingBlock: OJICUG_clean_linker_0, # of connection points: 2
#     Edge 63, Type (0, 0), BuildingBlock: OJICUG_clean_linker_0, # of connection points: 2
#     Edge 64, Type (0, 0), BuildingBlock: OJICUG_clean_linker_0, # of connection points: 2
#     Edge 65, Type (0, 0), BuildingBlock: OJICUG_clean_linker_0, # of connection points: 2
#     Edge 66, Type (0, 0), BuildingBlock: OJICUG_clean_linker_0, # of connection points: 2
#     Edge 67, Type (0, 0), BuildingBlock: OJICUG_clean_linker_0, # of connection points: 2
#     Edge 68, Type (0, 0), BuildingBlock: OJICUG_clean_linker_0, # of connection points: 2
#     Edge 69, Type (0, 0), BuildingBlock: OJICUG_clean_linker_0, # of connection points: 2
#     Edge 70, Type (0, 0), BuildingBlock: OJICUG_clean_linker_0, # of connection points: 2
#     Edge 71, Type (0, 0), BuildingBlock: OJICUG_clean_linker_0, # of connection points: 2
#     Edge 72, Type (0, 0), BuildingBlock: OJICUG_clean_linker_0, # of connection points: 2
#     Edge 73, Type (0, 0), BuildingBlock: OJICUG_clean_linker_0, # of connection points: 2
#     Edge 74, Type (0, 0), BuildingBlock: OJICUG_clean_linker_0, # of connection points: 2
#     Edge 75, Type (0, 0), BuildingBlock: OJICUG_clean_linker_0, # of connection points: 2
#     Edge 76, Type (0, 0), BuildingBlock: OJICUG_clean_linker_0, # of connection points: 2
#     Edge 77, Type (0, 0), BuildingBlock: OJICUG_clean_linker_0, # of connection points: 2
#     Edge 78, Type (0, 0), BuildingBlock: OJICUG_clean_linker_0, # of connection points: 2
#     Edge 79, Type (0, 0), BuildingBlock: OJICUG_clean_linker_0, # of connection points: 2
#     Edge 80, Type (0, 0), BuildingBlock: OJICUG_clean_linker_0, # of connection points: 2
#     Edge 81, Type (0, 0), BuildingBlock: OJICUG_clean_linker_0, # of connection points: 2
#     Edge 82, Type (0, 0), BuildingBlock: OJICUG_clean_linker_0, # of connection points: 2
#     Edge 83, Type (0, 0), BuildingBlock: OJICUG_clean_linker_0, # of connection points: 2
#     Edge 84, Type (0, 0), BuildingBlock: OJICUG_clean_linker_0, # of connection points: 2
#     Edge 85, Type (0, 0), BuildingBlock: OJICUG_clean_linker_0, # of connection points: 2
#     Edge 86, Type (0, 0), BuildingBlock: OJICUG_clean_linker_0, # of connection points: 2
#     Edge 87, Type (0, 0), BuildingBlock: OJICUG_clean_linker_0, # of connection points: 2
#     Edge 88, Type (0, 0), BuildingBlock: OJICUG_clean_linker_0, # of connection points: 2
#     Edge 89, Type (0, 0), BuildingBlock: OJICUG_clean_linker_0, # of connection points: 2
#     Edge 90, Type (0, 0), BuildingBlock: OJICUG_clean_linker_0, # of connection points: 2
#     Edge 91, Type (0, 0), BuildingBlock: OJICUG_clean_linker_0, # of connection points: 2
#     Edge 92, Type (0, 0), BuildingBlock: OJICUG_clean_linker_0, # of connection points: 2
#     Edge 93, Type (0, 0), BuildingBlock: OJICUG_clean_linker_0, # of connection points: 2
#     Edge 94, Type (0, 0), BuildingBlock: OJICUG_clean_linker_0, # of connection points: 2
#     Edge 95, Type (0, 0), BuildingBlock: OJICUG_clean_linker_0, # of connection points: 2
#     Edge 96, Type (0, 0), BuildingBlock: OJICUG_clean_linker_0, # of connection points: 2
#     Edge 97, Type (0, 0), BuildingBlock: OJICUG_clean_linker_0, # of connection points: 2
#     Edge 98, Type (0, 0), BuildingBlock: OJICUG_clean_linker_0, # of connection points: 2
#     Edge 99, Type (0, 0), BuildingBlock: OJICUG_clean_linker_0, # of connection points: 2
#     Edge 100, Type (0, 0), BuildingBlock: OJICUG_clean_linker_0, # of connection points: 2
#     Edge 101, Type (0, 0), BuildingBlock: OJICUG_clean_linker_0, # of connection points: 2
#     Edge 102, Type (0, 0), BuildingBlock: OJICUG_clean_linker_0, # of connection points: 2
#     Edge 103, Type (0, 0), BuildingBlock: OJICUG_clean_linker_0, # of connection points: 2
#     Edge 104, Type (0, 0), BuildingBlock: OJICUG_clean_linker_0, # of connection points: 2
#     Edge 105, Type (0, 0), BuildingBlock: OJICUG_clean_linker_0, # of connection points: 2
#     Edge 106, Type (0, 0), BuildingBlock: OJICUG_clean_linker_0, # of connection points: 2
#     Edge 107, Type (0, 0), BuildingBlock: OJICUG_clean_linker_0, # of connection points: 2
#     Edge 108, Type (0, 0), BuildingBlock: OJICUG_clean_linker_0, # of connection points: 2
#     Edge 109, Type (0, 0), BuildingBlock: OJICUG_clean_linker_0, # of connection points: 2
#     Edge 110, Type (0, 0), BuildingBlock: OJICUG_clean_linker_0, # of connection points: 2
#     Edge 111, Type (0, 0), BuildingBlock: OJICUG_clean_linker_0, # of connection points: 2
#     Edge 112, Type (0, 0), BuildingBlock: OJICUG_clean_linker_0, # of connection points: 2
#     Edge 113, Type (0, 0), BuildingBlock: OJICUG_clean_linker_0, # of connection points: 2
#     Edge 114, Type (0, 0), BuildingBlock: OJICUG_clean_linker_0, # of connection points: 2
#     Edge 115, Type (0, 0), BuildingBlock: OJICUG_clean_linker_0, # of connection points: 2
#     Edge 116, Type (0, 0), BuildingBlock: OJICUG_clean_linker_0, # of connection points: 2
#     Edge 117, Type (0, 0), BuildingBlock: OJICUG_clean_linker_0, # of connection points: 2
#     Edge 118, Type (0, 0), BuildingBlock: OJICUG_clean_linker_0, # of connection points: 2
#     Edge 119, Type (0, 0), BuildingBlock: OJICUG_clean_linker_0, # of connection points: 2
#     Edge 120, Type (0, 0), BuildingBlock: OJICUG_clean_linker_0, # of connection points: 2
#     Edge 121, Type (0, 0), BuildingBlock: OJICUG_clean_linker_0, # of connection points: 2
#     Edge 122, Type (0, 0), BuildingBlock: OJICUG_clean_linker_0, # of connection points: 2
#     Edge 123, Type (0, 0), BuildingBlock: OJICUG_clean_linker_0, # of connection points: 2
#     Edge 124, Type (0, 0), BuildingBlock: OJICUG_clean_linker_0, # of connection points: 2
#     Edge 125, Type (0, 0), BuildingBlock: OJICUG_clean_linker_0, # of connection points: 2
#     Edge 126, Type (0, 0), BuildingBlock: OJICUG_clean_linker_0, # of connection points: 2
#     Edge 127, Type (0, 0), BuildingBlock: OJICUG_clean_linker_0, # of connection points: 2
#     Edge 128, Type (0, 0), BuildingBlock: OJICUG_clean_linker_0, # of connection points: 2
#     Edge 129, Type (0, 0), BuildingBlock: OJICUG_clean_linker_0, # of connection points: 2
#     Edge 130, Type (0, 0), BuildingBlock: OJICUG_clean_linker_0, # of connection points: 2
#     Edge 131, Type (0, 0), BuildingBlock: OJICUG_clean_linker_0, # of connection points: 2
#     Edge 132, Type (0, 0), BuildingBlock: OJICUG_clean_linker_0, # of connection points: 2
#     Edge 133, Type (0, 0), BuildingBlock: OJICUG_clean_linker_0, # of connection points: 2
#     Edge 134, Type (0, 0), BuildingBlock: OJICUG_clean_linker_0, # of connection points: 2
#     Edge 135, Type (0, 0), BuildingBlock: OJICUG_clean_linker_0, # of connection points: 2
#     Edge 136, Type (0, 0), BuildingBlock: OJICUG_clean_linker_0, # of connection points: 2
#     Edge 137, Type (0, 0), BuildingBlock: OJICUG_clean_linker_0, # of connection points: 2
#     Edge 138, Type (0, 0), BuildingBlock: OJICUG_clean_linker_0, # of connection points: 2
#     Edge 139, Type (0, 0), BuildingBlock: OJICUG_clean_linker_0, # of connection points: 2
#     Edge 140, Type (0, 0), BuildingBlock: OJICUG_clean_linker_0, # of connection points: 2
#     Edge 141, Type (0, 0), BuildingBlock: OJICUG_clean_linker_0, # of connection points: 2
#     Edge 142, Type (0, 0), BuildingBlock: OJICUG_clean_linker_0, # of connection points: 2
#     Edge 143, Type (0, 0), BuildingBlock: OJICUG_clean_linker_0, # of connection points: 2
# Relax obj value: 0.015
# Max RMSD: 0.045
# Mean RMSD: 0.045
data_MOF--net-ull--node1-GALJAG_clean_sbu_0--edge1-OJICUG_clean_linker_0
_symmetry_space_group_name_H-M    P1
_symmetry_Int_Tables_number       1
_symmetry_cell_setting            triclinic
loop_
_symmetry_equiv_pos_as_xyz
'x, y, z'
_cell_length_a     45.40914
_cell_length_b     45.290502
_cell_length_c     45.306868
_cell_angle_alpha  89.999864
_cell_angle_beta   90.004796
_cell_angle_gamma 90.001184
loop_
_atom_site_label
_atom_site_type_symbol
_atom_site_fract_x
_atom_site_fract_y
_atom_site_fract_z
_atom_type_partial_charge
In0 In 0.02131 0.33982 0.17054 0.0
O1 O 0.02351 0.29215 0.18667 0.0
O2 O 0.0021 0.32399 0.21398 0.0
C3 C 0.05906 0.34058 0.12475 0.0
C4 C 0.05113 0.37601 0.20673 0.0
C5 C 0.96962 0.34236 0.14148 0.0
O6 O 0.0546 0.31763 0.14001 0.0
O7 O 0.04431 0.36288 0.13246 0.0
O8 O 0.98108 0.36517 0.15285 0.0
O9 O 0.9839 0.31888 0.1454 0.0
C10 C 0.00991 0.29745 0.21045 0.0
O11 O 0.02514 0.38212 0.19852 0.0
O12 O 0.06135 0.35212 0.19666 0.0
In13 In 0.65784 0.02551 0.16894 0.0
O14 O 0.61494 0.02707 0.19642 0.0
O15 O 0.64653 0.06153 0.20081 0.0
C16 C 0.65547 0.97558 0.13696 0.0
C17 C 0.70138 0.01236 0.20689 0.0
C18 C 0.65678 0.06463 0.12414 0.0
O19 O 0.63323 0.98512 0.15091 0.0
O20 O 0.67838 0.99114 0.13938 0.0
O21 O 0.68032 0.05723 0.13703 0.0
O22 O 0.63385 0.05227 0.13383 0.0
C23 C 0.62205 0.05115 0.20875 0.0
O24 O 0.7017 0.03549 0.19126 0.0
O25 O 0.67929 0.99583 0.20319 0.0
In26 In 0.97161 0.65648 0.16986 0.0
O27 O 0.97011 0.70415 0.18619 0.0
O28 O 0.99152 0.67199 0.21309 0.0
C29 C 0.9325 0.65558 0.12521 0.0
C30 C 0.94261 0.62013 0.20642 0.0
C31 C 0.02287 0.65427 0.1401 0.0
O32 O 0.93705 0.6784 0.14063 0.0
O33 O 0.94794 0.63348 0.13209 0.0
O34 O 0.01229 0.63162 0.1526 0.0
O35 O 0.00779 0.6774 0.14303 0.0
C36 C 0.98391 0.6986 0.20979 0.0
O37 O 0.96816 0.61372 0.1971 0.0
O38 O 0.93244 0.64438 0.19722 0.0
In39 In 0.33881 0.97236 0.16852 0.0
O40 O 0.38166 0.97053 0.19616 0.0
O41 O 0.35242 0.93377 0.19606 0.0
C42 C 0.34039 0.02292 0.13761 0.0
C43 C 0.29601 0.98395 0.2079 0.0
C44 C 0.3388 0.93519 0.12216 0.0
O45 O 0.36287 0.0134 0.1512 0.0
O46 O 0.31771 0.00702 0.13988 0.0
O47 O 0.31555 0.94192 0.13596 0.0
O48 O 0.36194 0.94734 0.13167 0.0
C49 C 0.3762 0.94467 0.20534 0.0
O50 O 0.29561 0.96122 0.19173 0.0
O51 O 0.31788 0.00074 0.2042 0.0
In52 In 0.021 0.65586 0.82857 0.0
O53 O 0.02484 0.61342 0.80079 0.0
O54 O 0.06111 0.64333 0.80267 0.0
C55 C 0.96911 0.65355 0.85737 0.0
C56 C 0.00982 0.69774 0.78806 0.0
C57 C 0.05882 0.65557 0.87436 0.0
O58 O 0.9807 0.63065 0.84633 0.0
O59 O 0.98341 0.67701 0.85333 0.0
O60 O 0.05414 0.67841 0.85901 0.0
O61 O 0.04421 0.63313 0.86678 0.0
C62 C 0.05087 0.61946 0.79261 0.0
O63 O 0.02325 0.70337 0.81187 0.0
O64 O 0.00204 0.67116 0.78484 0.0
In65 In 0.33623 0.02589 0.82576 0.0
O66 O 0.2924 0.03657 0.80368 0.0
O67 O 0.31417 0.99663 0.79155 0.0
C68 C 0.33751 0.06426 0.87118 0.0
C69 C 0.3721 0.05177 0.78622 0.0
C70 C 0.33828 0.97534 0.85672 0.0
O71 O 0.31392 0.057 0.8583 0.0
O72 O 0.36043 0.05216 0.86113 0.0
O73 O 0.36033 0.98448 0.8422 0.0
O74 O 0.31584 0.99169 0.85547 0.0
C75 C 0.29227 0.01345 0.78806 0.0
O76 O 0.37927 0.02773 0.79858 0.0
O77 O 0.3475 0.062 0.79398 0.0
In78 In 0.97323 0.3405 0.82599 0.0
O79 O 0.97148 0.29294 0.80952 0.0
O80 O 0.99334 0.325 0.78284 0.0
C81 C 0.93439 0.3413 0.8708 0.0
C82 C 0.94374 0.37666 0.78962 0.0
C83 C 0.02421 0.34279 0.85622 0.0
O84 O 0.93898 0.31845 0.85542 0.0
O85 O 0.94964 0.36349 0.86375 0.0
O86 O 0.01361 0.36547 0.8438 0.0
O87 O 0.00941 0.31954 0.8528 0.0
C88 C 0.98545 0.29844 0.78601 0.0
O89 O 0.96949 0.38306 0.79839 0.0
O90 O 0.93365 0.35254 0.79923 0.0
In91 In 0.65616 0.97275 0.82484 0.0
O92 O 0.70372 0.97056 0.80861 0.0
O93 O 0.67182 0.99175 0.78126 0.0
C94 C 0.65507 0.93409 0.87 0.0
C95 C 0.61954 0.94395 0.78835 0.0
C96 C 0.65424 0.02467 0.85385 0.0
O97 O 0.67781 0.93824 0.85443 0.0
O98 O 0.63317 0.94971 0.86299 0.0
O99 O 0.63143 0.0135 0.84233 0.0
O100 O 0.67745 0.0099 0.85029 0.0
C101 C 0.69829 0.98396 0.78472 0.0
O102 O 0.61363 0.96978 0.7974 0.0
O103 O 0.64342 0.93333 0.79785 0.0
In104 In 0.16999 0.02199 0.33953 0.0
O105 O 0.19749 0.02421 0.38252 0.0
O106 O 0.19929 0.05963 0.35167 0.0
C107 C 0.1381 0.9721 0.34153 0.0
C108 C 0.20844 0.00932 0.29622 0.0
C109 C 0.12501 0.06068 0.34042 0.0
O110 O 0.15206 0.98141 0.3639 0.0
O111 O 0.14051 0.98785 0.3187 0.0
O112 O 0.13837 0.05383 0.31692 0.0
O113 O 0.13415 0.04775 0.36332 0.0
C114 C 0.20785 0.04938 0.37604 0.0
O115 O 0.19214 0.03192 0.29553 0.0
O116 O 0.2053 0.99306 0.31864 0.0
In117 In 0.97332 0.16824 0.33988 0.0
O118 O 0.97113 0.18507 0.29243 0.0
O119 O 0.99311 0.2116 0.32451 0.0
C120 C 0.93503 0.12285 0.34049 0.0
C121 C 0.94389 0.20441 0.37631 0.0
C122 C 0.02474 0.13873 0.3419 0.0
O123 O 0.93976 0.1381 0.31759 0.0
O124 O 0.94978 0.13037 0.36286 0.0
O125 O 0.014 0.15083 0.36468 0.0
O126 O 0.00981 0.14203 0.31874 0.0
C127 C 0.9851 0.20858 0.29799 0.0
O128 O 0.96967 0.19561 0.38254 0.0
O129 O 0.93368 0.19486 0.35222 0.0
In130 In 0.82497 0.97257 0.34017 0.0
O131 O 0.79757 0.97095 0.38327 0.0
O132 O 0.79325 0.93661 0.35148 0.0
C133 C 0.85724 0.02224 0.34202 0.0
C134 C 0.78764 0.98571 0.29606 0.0
C135 C 0.86929 0.93307 0.34154 0.0
O136 O 0.84297 0.01328 0.36433 0.0
O137 O 0.85501 0.00623 0.31936 0.0
O138 O 0.85618 0.9401 0.31797 0.0
O139 O 0.86014 0.9461 0.36437 0.0
C140 C 0.78541 0.9468 0.37612 0.0
O141 O 0.80332 0.96266 0.29594 0.0
O142 O 0.79083 0.00216 0.31835 0.0
In143 In 0.02159 0.82641 0.34027 0.0
O144 O 0.02343 0.81009 0.29264 0.0
O145 O 0.00176 0.78318 0.32461 0.0
C146 C 0.06003 0.87169 0.34069 0.0
C147 C 0.0509 0.78979 0.37637 0.0
C148 C 0.97003 0.85569 0.34276 0.0
O149 O 0.05515 0.85642 0.31785 0.0
O150 O 0.04536 0.86425 0.36314 0.0
O151 O 0.98103 0.84366 0.36544 0.0
O152 O 0.98482 0.8525 0.31948 0.0
C153 C 0.00955 0.7865 0.29806 0.0
O154 O 0.02532 0.79895 0.38286 0.0
O155 O 0.06101 0.79924 0.3522 0.0
In156 In 0.16711 0.97371 0.65642 0.0
O157 O 0.18894 0.96406 0.70057 0.0
O158 O 0.20102 0.00366 0.67811 0.0
C159 C 0.12349 0.93344 0.65523 0.0
C160 C 0.207 0.94849 0.62055 0.0
C161 C 0.13446 0.02308 0.65432 0.0
O162 O 0.13624 0.94106 0.67881 0.0
O163 O 0.13261 0.9463 0.6323 0.0
O164 O 0.14905 0.01427 0.63216 0.0
O165 O 0.13653 0.00704 0.67698 0.0
C166 C 0.20446 0.98722 0.70036 0.0
O167 O 0.194 0.97208 0.61304 0.0
O168 O 0.1998 0.93858 0.64549 0.0
In169 In 0.0199 0.17023 0.65509 0.0
O170 O 0.0238 0.19854 0.61303 0.0
O171 O 0.06032 0.1956 0.64254 0.0
C172 C 0.96803 0.14146 0.65224 0.0
C173 C 0.0091 0.21039 0.69737 0.0
C174 C 0.05733 0.12417 0.65504 0.0
O175 O 0.97997 0.15226 0.62942 0.0
O176 O 0.98189 0.14587 0.67588 0.0
O177 O 0.05249 0.13944 0.67789 0.0
O178 O 0.04314 0.13202 0.63243 0.0
C179 C 0.05002 0.20616 0.61892 0.0
O180 O 0.02239 0.18644 0.70269 0.0
O181 O 0.00123 0.21395 0.67086 0.0
In182 In 0.82579 0.0211 0.65409 0.0
O183 O 0.79857 0.02433 0.61125 0.0
O184 O 0.79823 0.06012 0.6419 0.0
C185 C 0.85594 0.96994 0.6523 0.0
C186 C 0.7861 0.0086 0.69628 0.0
C187 C 0.86987 0.06086 0.65332 0.0
O188 O 0.84391 0.98056 0.62943 0.0
O189 O 0.85237 0.98491 0.67543 0.0
O190 O 0.85426 0.05632 0.67597 0.0
O191 O 0.86354 0.04499 0.63133 0.0
C192 C 0.78915 0.04991 0.61764 0.0
O193 O 0.80958 0.02259 0.70173 0.0
O194 O 0.78277 0.0009 0.66968 0.0
In195 In 0.97283 0.82472 0.65652 0.0
O196 O 0.97112 0.80875 0.70427 0.0
O197 O 0.99287 0.78167 0.67249 0.0
C198 C 0.9341 0.86969 0.65506 0.0
C199 C 0.94345 0.78806 0.62062 0.0
C200 C 0.0241 0.85439 0.65422 0.0
O201 O 0.93852 0.8545 0.67805 0.0
O202 O 0.94946 0.86239 0.63304 0.0
O203 O 0.01369 0.8416 0.63167 0.0
O204 O 0.00889 0.85173 0.67729 0.0
C205 C 0.98509 0.78517 0.69902 0.0
O206 O 0.96896 0.7973 0.61393 0.0
O207 O 0.93355 0.79734 0.64494 0.0
In208 In 0.33726 0.17105 0.02395 0.0
O209 O 0.29359 0.19373 0.03403 0.0
O210 O 0.31633 0.20601 0.99469 0.0
C211 C 0.33838 0.12554 0.0622 0.0
C212 C 0.37341 0.20973 0.0506 0.0
C213 C 0.33912 0.13967 0.97373 0.0
O214 O 0.31481 0.13865 0.05521 0.0
O215 O 0.36127 0.13537 0.04988 0.0
O216 O 0.36132 0.154 0.98283 0.0
O217 O 0.31658 0.1414 0.98992 0.0
C218 C 0.2942 0.20971 0.01115 0.0
O219 O 0.38031 0.19815 0.02609 0.0
O220 O 0.3489 0.20168 0.06084 0.0
In221 In 0.33615 0.82715 0.97018 0.0
O222 O 0.29251 0.80427 0.96033 0.0
O223 O 0.31465 0.7934 0.00042 0.0
C224 C 0.33702 0.87202 0.93112 0.0
C225 C 0.37207 0.78731 0.94486 0.0
C226 C 0.33864 0.8593 0.01991 0.0
O227 O 0.31348 0.85927 0.93879 0.0
O228 O 0.36006 0.86202 0.94302 0.0
O229 O 0.36062 0.84463 0.01086 0.0
O230 O 0.31595 0.8575 0.00394 0.0
C231 C 0.29274 0.78916 0.9838 0.0
O232 O 0.37935 0.80026 0.96855 0.0
O233 O 0.34734 0.79469 0.93465 0.0
In234 In 0.16853 0.34217 0.97412 0.0
O235 O 0.19184 0.29901 0.9627 0.0
O236 O 0.20422 0.32107 0.00235 0.0
C237 C 0.12321 0.34223 0.93589 0.0
C238 C 0.20428 0.38117 0.9473 0.0
C239 C 0.13646 0.34317 0.0239 0.0
O240 O 0.13749 0.31906 0.94205 0.0
O241 O 0.1315 0.36513 0.94941 0.0
O242 O 0.14964 0.36598 0.01453 0.0
O243 O 0.13968 0.32038 0.00824 0.0
C244 C 0.20789 0.29921 0.98547 0.0
O245 O 0.19674 0.3848 0.97397 0.0
O246 O 0.1943 0.35818 0.93532 0.0
In247 In 0.65731 0.17031 0.97055 0.0
O248 O 0.6145 0.19719 0.96738 0.0
O249 O 0.64543 0.19886 0.93193 0.0
C250 C 0.65535 0.14055 0.02198 0.0
C251 C 0.69926 0.2102 0.9833 0.0
C252 C 0.65612 0.12567 0.93127 0.0
O253 O 0.63278 0.15324 0.01158 0.0
O254 O 0.67829 0.1432 0.00659 0.0
O255 O 0.67894 0.14102 0.93577 0.0
O256 O 0.63413 0.13271 0.94675 0.0
C257 C 0.62109 0.20753 0.94222 0.0
O258 O 0.70481 0.18687 0.96899 0.0
O259 O 0.67276 0.21322 0.99116 0.0
In260 In 0.82387 0.65578 0.9742 0.0
O261 O 0.79655 0.61302 0.97127 0.0
O262 O 0.7981 0.64223 0.93433 0.0
C263 C 0.85347 0.65382 0.02569 0.0
C264 C 0.78377 0.69793 0.98595 0.0
C265 C 0.86892 0.65516 0.93551 0.0
O266 O 0.84176 0.63095 0.0147 0.0
O267 O 0.84974 0.67709 0.01098 0.0
O268 O 0.85298 0.67772 0.93944 0.0
O269 O 0.86236 0.63324 0.95137 0.0
C270 C 0.78848 0.61837 0.94501 0.0
O271 O 0.80748 0.70342 0.97239 0.0
O272 O 0.78033 0.67129 0.99345 0.0
In273 In 0.65498 0.82769 0.02278 0.0
O274 O 0.70226 0.81059 0.02527 0.0
O275 O 0.66999 0.78358 0.00428 0.0
C276 C 0.65539 0.87388 0.06027 0.0
C277 C 0.61748 0.79271 0.05241 0.0
C278 C 0.65293 0.85629 0.97065 0.0
O279 O 0.67784 0.85793 0.056 0.0
O280 O 0.63299 0.86665 0.04549 0.0
O281 O 0.62998 0.84566 0.98241 0.0
O282 O 0.67632 0.85195 0.9849 0.0
C283 C 0.69653 0.78671 0.01198 0.0
O284 O 0.61243 0.80021 0.02593 0.0
O285 O 0.64101 0.80286 0.06323 0.0
In286 In 0.16899 0.65616 0.02456 0.0
O287 O 0.19702 0.61345 0.02625 0.0
O288 O 0.19826 0.64369 0.06219 0.0
C289 C 0.13679 0.65425 0.97486 0.0
C290 C 0.20694 0.69982 0.01153 0.0
C291 C 0.12397 0.6553 0.06318 0.0
O292 O 0.15066 0.6318 0.98412 0.0
O293 O 0.13943 0.67709 0.99055 0.0
O294 O 0.13752 0.67876 0.05652 0.0
O295 O 0.13302 0.63239 0.05019 0.0
C296 C 0.2072 0.61962 0.05155 0.0
O297 O 0.19097 0.70031 0.03437 0.0
O298 O 0.2038 0.67734 0.99533 0.0
In299 In 0.82643 0.34074 0.02225 0.0
O300 O 0.81027 0.29302 0.0237 0.0
O301 O 0.78295 0.32524 0.00297 0.0
C302 C 0.87092 0.34123 0.06154 0.0
C303 C 0.79064 0.37804 0.051 0.0
C304 C 0.85617 0.34284 0.97089 0.0
O305 O 0.85501 0.31871 0.05732 0.0
O306 O 0.86467 0.36319 0.0456 0.0
O307 O 0.84447 0.36568 0.98191 0.0
O308 O 0.85245 0.31954 0.98555 0.0
C309 C 0.78651 0.29856 0.01026 0.0
O310 O 0.79905 0.38346 0.02487 0.0
O311 O 0.80017 0.35419 0.06179 0.0
In312 In 0.52034 0.83979 0.66982 0.0
O313 O 0.52443 0.8825 0.69696 0.0
O314 O 0.55919 0.85077 0.69821 0.0
C315 C 0.46932 0.84234 0.63969 0.0
C316 C 0.50729 0.79783 0.70961 0.0
C317 C 0.55923 0.84063 0.62501 0.0
O318 O 0.4799 0.86491 0.65232 0.0
O319 O 0.48422 0.81911 0.64275 0.0
O320 O 0.55415 0.8176 0.63994 0.0
O321 O 0.54459 0.86304 0.63261 0.0
C322 C 0.54946 0.87532 0.70709 0.0
O323 O 0.52186 0.79227 0.68647 0.0
O324 O 0.49925 0.82437 0.71248 0.0
In325 In 0.15743 0.52627 0.67111 0.0
O326 O 0.11449 0.52794 0.69848 0.0
O327 O 0.14581 0.56268 0.70248 0.0
C328 C 0.15543 0.47576 0.64002 0.0
C329 C 0.20131 0.51379 0.70894 0.0
C330 C 0.15622 0.56439 0.62545 0.0
O331 O 0.13329 0.48499 0.65435 0.0
O332 O 0.17796 0.49196 0.64158 0.0
O333 O 0.17977 0.55738 0.63854 0.0
O334 O 0.13331 0.55224 0.63546 0.0
C335 C 0.12139 0.55223 0.71052 0.0
O336 O 0.20131 0.53686 0.69324 0.0
O337 O 0.17933 0.49708 0.70547 0.0
In338 In 0.47246 0.15628 0.66912 0.0
O339 O 0.47017 0.20385 0.68561 0.0
O340 O 0.49167 0.17187 0.71265 0.0
C341 C 0.43481 0.15598 0.62324 0.0
C342 C 0.44262 0.1197 0.70483 0.0
C343 C 0.52422 0.15392 0.64025 0.0
O344 O 0.43934 0.17878 0.63868 0.0
O345 O 0.44942 0.13354 0.63082 0.0
O346 O 0.51309 0.13117 0.65203 0.0
O347 O 0.5095 0.17723 0.64357 0.0
C348 C 0.48383 0.19841 0.70932 0.0
O349 O 0.46867 0.11376 0.69668 0.0
O350 O 0.43235 0.14364 0.69494 0.0
In351 In 0.83658 0.47014 0.66908 0.0
O352 O 0.87959 0.46859 0.69632 0.0
O353 O 0.84835 0.43375 0.70031 0.0
C354 C 0.83833 0.52046 0.63783 0.0
C355 C 0.79283 0.48267 0.70701 0.0
C356 C 0.83798 0.43182 0.62364 0.0
O357 O 0.86047 0.51148 0.65231 0.0
O358 O 0.81592 0.50408 0.63928 0.0
O359 O 0.81437 0.4388 0.63666 0.0
O360 O 0.86083 0.44416 0.63357 0.0
C361 C 0.87279 0.44423 0.70826 0.0
O362 O 0.79285 0.45951 0.69145 0.0
O363 O 0.81473 0.49945 0.70336 0.0
In364 In 0.52204 0.1558 0.32607 0.0
O365 O 0.52567 0.11322 0.29852 0.0
O366 O 0.56216 0.14287 0.30041 0.0
C367 C 0.47019 0.15382 0.35489 0.0
C368 C 0.51094 0.19789 0.2857 0.0
C369 C 0.55965 0.15538 0.37201 0.0
O370 O 0.48124 0.13096 0.34323 0.0
O371 O 0.48502 0.17704 0.35147 0.0
O372 O 0.55534 0.17815 0.35645 0.0
O373 O 0.54484 0.13304 0.36452 0.0
C374 C 0.55178 0.119 0.29047 0.0
O375 O 0.52447 0.20335 0.30948 0.0
O376 O 0.50308 0.17135 0.28238 0.0
In377 In 0.83712 0.52485 0.32697 0.0
O378 O 0.8799 0.52698 0.29943 0.0
O379 O 0.84864 0.56191 0.29649 0.0
C380 C 0.83959 0.47437 0.3579 0.0
C381 C 0.79358 0.51235 0.28884 0.0
C382 C 0.83771 0.56282 0.37265 0.0
O383 O 0.86172 0.48392 0.34377 0.0
O384 O 0.81685 0.49025 0.35622 0.0
O385 O 0.81426 0.55547 0.35955 0.0
O386 O 0.86081 0.55097 0.36272 0.0
C387 C 0.87299 0.55159 0.28808 0.0
O388 O 0.79336 0.5353 0.3047 0.0
O389 O 0.81562 0.49571 0.29231 0.0
In390 In 0.47102 0.83976 0.32677 0.0
O391 O 0.46103 0.7956 0.30492 0.0
O392 O 0.5007 0.81779 0.29285 0.0
C393 C 0.43195 0.84115 0.37146 0.0
C394 C 0.44535 0.87542 0.28686 0.0
C395 C 0.52059 0.84185 0.35899 0.0
O396 O 0.43932 0.81747 0.3587 0.0
O397 O 0.44428 0.8641 0.36165 0.0
O398 O 0.51187 0.86395 0.34421 0.0
O399 O 0.50439 0.81931 0.35726 0.0
C400 C 0.48417 0.79562 0.28942 0.0
O401 O 0.4692 0.88285 0.29934 0.0
O402 O 0.43531 0.8507 0.29465 0.0
In403 In 0.15843 0.47031 0.32672 0.0
O404 O 0.20217 0.45998 0.30419 0.0
O405 O 0.18005 0.49983 0.29241 0.0
C406 C 0.15741 0.43227 0.37245 0.0
C407 C 0.12225 0.444 0.28771 0.0
C408 C 0.15613 0.52063 0.35803 0.0
O409 O 0.18096 0.4394 0.35941 0.0
O410 O 0.13444 0.44423 0.36234 0.0
O411 O 0.1341 0.51142 0.34352 0.0
O412 O 0.17873 0.50452 0.3565 0.0
C413 C 0.20203 0.48317 0.28866 0.0
O414 O 0.11538 0.46839 0.29956 0.0
O415 O 0.14676 0.43367 0.29565 0.0
In416 In 0.66843 0.52332 0.83908 0.0
O417 O 0.69556 0.52512 0.88228 0.0
O418 O 0.70144 0.5584 0.84962 0.0
C419 C 0.63566 0.47396 0.84108 0.0
C420 C 0.70543 0.50951 0.79494 0.0
C421 C 0.6249 0.56369 0.84092 0.0
O422 O 0.6505 0.48254 0.86317 0.0
O423 O 0.63752 0.49022 0.81857 0.0
O424 O 0.6377 0.5565 0.81722 0.0
O425 O 0.63393 0.55034 0.86361 0.0
C426 C 0.70868 0.54858 0.87459 0.0
O427 O 0.68984 0.53263 0.79463 0.0
O428 O 0.70222 0.49327 0.81738 0.0
In429 In 0.47273 0.67008 0.84094 0.0
O430 O 0.46974 0.68621 0.79331 0.0
O431 O 0.49073 0.71401 0.82498 0.0
C432 C 0.43572 0.62368 0.84146 0.0
C433 C 0.44275 0.7055 0.87767 0.0
C434 C 0.52497 0.64199 0.84306 0.0
O435 O 0.44007 0.63906 0.81859 0.0
O436 O 0.45021 0.63157 0.86387 0.0
O437 O 0.51357 0.65321 0.86595 0.0
O438 O 0.51031 0.64553 0.81975 0.0
C439 C 0.48282 0.7103 0.79852 0.0
O440 O 0.46913 0.69812 0.88315 0.0
O441 O 0.43223 0.69499 0.85412 0.0
In442 In 0.32548 0.47347 0.84144 0.0
O443 O 0.30337 0.46349 0.79749 0.0
O444 O 0.29288 0.5042 0.81876 0.0
C445 C 0.36821 0.43212 0.84274 0.0
C446 C 0.28436 0.45063 0.87759 0.0
C447 C 0.35871 0.5225 0.8431 0.0
O448 O 0.35551 0.43988 0.8192 0.0
O449 O 0.35936 0.44521 0.86563 0.0
O450 O 0.34365 0.51431 0.86516 0.0
O451 O 0.35685 0.50602 0.82075 0.0
C452 C 0.28879 0.48726 0.79698 0.0
O453 O 0.29983 0.47246 0.88561 0.0
O454 O 0.28988 0.44109 0.85209 0.0
In455 In 0.52105 0.32662 0.83951 0.0
O456 O 0.52275 0.31039 0.79182 0.0
O457 O 0.50148 0.28328 0.82391 0.0
C458 C 0.55872 0.37259 0.83995 0.0
C459 C 0.55099 0.28984 0.87488 0.0
C460 C 0.46895 0.35486 0.84274 0.0
O461 O 0.55365 0.35763 0.81695 0.0
O462 O 0.54467 0.36446 0.86255 0.0
O463 O 0.48055 0.34313 0.86528 0.0
O464 O 0.48345 0.35192 0.81925 0.0
C465 C 0.5091 0.28668 0.79732 0.0
O466 O 0.52553 0.299 0.88182 0.0
O467 O 0.56079 0.29947 0.85065 0.0
In468 In 0.66977 0.47312 0.15587 0.0
O469 O 0.69687 0.47104 0.11269 0.0
O470 O 0.70253 0.43782 0.14545 0.0
C471 C 0.63792 0.52303 0.15388 0.0
C472 C 0.70671 0.48633 0.20022 0.0
C473 C 0.62567 0.4334 0.15428 0.0
O474 O 0.65293 0.51446 0.13191 0.0
O475 O 0.63909 0.50641 0.17619 0.0
O476 O 0.63854 0.44064 0.17792 0.0
O477 O 0.63493 0.44635 0.13145 0.0
C478 C 0.70988 0.44755 0.12048 0.0
O479 O 0.6911 0.46324 0.20022 0.0
O480 O 0.70358 0.50283 0.17797 0.0
In481 In 0.52384 0.67052 0.15744 0.0
O482 O 0.52567 0.69787 0.11437 0.0
O483 O 0.5591 0.7034 0.14687 0.0
C484 C 0.47401 0.63861 0.15523 0.0
C485 C 0.51073 0.7077 0.20172 0.0
C486 C 0.56279 0.62567 0.1559 0.0
O487 O 0.4828 0.65346 0.13321 0.0
O488 O 0.49029 0.64008 0.17773 0.0
O489 O 0.55528 0.63823 0.17962 0.0
O490 O 0.55076 0.63582 0.13295 0.0
C491 C 0.54912 0.71094 0.12205 0.0
O492 O 0.53399 0.69237 0.20157 0.0
O493 O 0.49406 0.70414 0.17969 0.0
In494 In 0.32729 0.52345 0.15698 0.0
O495 O 0.30511 0.53331 0.20102 0.0
O496 O 0.29281 0.49392 0.17832 0.0
C497 C 0.37243 0.56209 0.15624 0.0
C498 C 0.28826 0.55001 0.121 0.0
C499 C 0.35892 0.47339 0.15462 0.0
O500 O 0.35947 0.55464 0.17978 0.0
O501 O 0.36265 0.55001 0.13316 0.0
O502 O 0.34501 0.48291 0.13231 0.0
O503 O 0.35665 0.48905 0.17752 0.0
C504 C 0.28937 0.51028 0.20062 0.0
O505 O 0.29988 0.52557 0.11393 0.0
O506 O 0.29639 0.56013 0.14558 0.0
In507 In 0.47377 0.32638 0.15563 0.0
O508 O 0.47189 0.30978 0.20318 0.0
O509 O 0.49342 0.28295 0.17106 0.0
C510 C 0.43573 0.372 0.15531 0.0
C511 C 0.44409 0.29038 0.11926 0.0
C512 C 0.52537 0.3555 0.15314 0.0
O513 O 0.44039 0.35659 0.17811 0.0
O514 O 0.45039 0.36451 0.13288 0.0
O515 O 0.51438 0.34345 0.13047 0.0
O516 O 0.51058 0.35236 0.17642 0.0
C517 C 0.48569 0.28617 0.19764 0.0
O518 O 0.46982 0.29919 0.11292 0.0
O519 O 0.43403 0.2998 0.14347 0.0
In520 In 0.83577 0.66945 0.52541 0.0
O521 O 0.7922 0.69231 0.53565 0.0
O522 O 0.81463 0.70417 0.49603 0.0
C523 C 0.83662 0.62372 0.56337 0.0
C524 C 0.87217 0.70782 0.55212 0.0
C525 C 0.83806 0.63814 0.47522 0.0
O526 O 0.81309 0.63681 0.55624 0.0
O527 O 0.85961 0.63371 0.55136 0.0
O528 O 0.86013 0.65256 0.48445 0.0
O529 O 0.81541 0.63975 0.49124 0.0
C530 C 0.79262 0.70802 0.5126 0.0
O531 O 0.8788 0.69654 0.52741 0.0
O532 O 0.84775 0.69969 0.56251 0.0
In533 In 0.83801 0.32555 0.4705 0.0
O534 O 0.79425 0.30325 0.46008 0.0
O535 O 0.81635 0.29115 0.49984 0.0
C536 C 0.83894 0.37111 0.43234 0.0
C537 C 0.87394 0.28633 0.44425 0.0
C538 C 0.83993 0.35681 0.52081 0.0
O539 O 0.81546 0.35791 0.43941 0.0
O540 O 0.86193 0.36129 0.4445 0.0
O541 O 0.86215 0.34258 0.51163 0.0
O542 O 0.81738 0.35508 0.50465 0.0
C543 C 0.79435 0.28759 0.48317 0.0
O544 O 0.8809 0.29811 0.46865 0.0
O545 O 0.84953 0.29452 0.43389 0.0
In546 In 0.66754 0.84034 0.4737 0.0
O547 O 0.69532 0.88316 0.47173 0.0
O548 O 0.69593 0.85317 0.43554 0.0
C549 C 0.63634 0.84222 0.52398 0.0
C550 C 0.70611 0.79701 0.486 0.0
C551 C 0.62176 0.84084 0.43596 0.0
O552 O 0.64984 0.86475 0.51436 0.0
O553 O 0.63882 0.81934 0.50832 0.0
O554 O 0.63522 0.81739 0.44281 0.0
O555 O 0.63127 0.8639 0.44832 0.0
C556 C 0.70497 0.87722 0.44617 0.0
O557 O 0.68996 0.79652 0.46328 0.0
O558 O 0.70285 0.81931 0.50241 0.0
In559 In 0.15692 0.6692 0.47122 0.0
O560 O 0.20047 0.69218 0.4611 0.0
O561 O 0.17774 0.70416 0.50052 0.0
C562 C 0.15652 0.62343 0.43325 0.0
C563 C 0.12076 0.70778 0.44436 0.0
C564 C 0.1548 0.63822 0.52171 0.0
O565 O 0.17992 0.63668 0.44051 0.0
O566 O 0.1334 0.63325 0.44517 0.0
O567 O 0.13256 0.65221 0.5122 0.0
O568 O 0.17749 0.64003 0.50575 0.0
C569 C 0.19983 0.70804 0.48405 0.0
O570 O 0.11391 0.69638 0.46897 0.0
O571 O 0.14519 0.69954 0.43408 0.0
In572 In 0.32562 0.15698 0.47239 0.0
O573 O 0.29851 0.11373 0.47058 0.0
O574 O 0.29458 0.14529 0.43598 0.0
C575 C 0.35794 0.15501 0.52196 0.0
C576 C 0.28787 0.20067 0.48592 0.0
C577 C 0.36995 0.1557 0.43291 0.0
O578 O 0.34355 0.13276 0.51301 0.0
O579 O 0.35584 0.17769 0.50596 0.0
O580 O 0.35673 0.17927 0.4398 0.0
O581 O 0.36097 0.13291 0.44614 0.0
C582 C 0.28682 0.1206 0.44613 0.0
O583 O 0.30366 0.20122 0.46295 0.0
O584 O 0.29114 0.17816 0.50204 0.0
In585 In 0.15767 0.32731 0.52666 0.0
O586 O 0.20127 0.30445 0.53697 0.0
O587 O 0.17928 0.29321 0.49691 0.0
C588 C 0.15672 0.37265 0.56522 0.0
C589 C 0.12135 0.28794 0.55222 0.0
C590 C 0.15576 0.35862 0.47634 0.0
O591 O 0.18023 0.35963 0.55795 0.0
O592 O 0.13375 0.36275 0.5531 0.0
O593 O 0.13365 0.34415 0.4854 0.0
O594 O 0.17822 0.35718 0.49266 0.0
C595 C 0.20115 0.28916 0.51363 0.0
O596 O 0.11435 0.30058 0.52827 0.0
O597 O 0.14602 0.29536 0.56254 0.0
In598 In 0.66885 0.1562 0.52294 0.0
O599 O 0.69077 0.20036 0.53264 0.0
O600 O 0.70334 0.17749 0.49344 0.0
C601 C 0.62452 0.15507 0.56236 0.0
C602 C 0.7081 0.12018 0.54901 0.0
C603 C 0.6366 0.15422 0.47329 0.0
O604 O 0.63768 0.17862 0.55529 0.0
O605 O 0.63358 0.13219 0.54934 0.0
O606 O 0.65057 0.13182 0.48253 0.0
O607 O 0.63909 0.17704 0.48903 0.0
C608 C 0.70664 0.19988 0.50973 0.0
O609 O 0.69651 0.11331 0.52451 0.0
O610 O 0.69986 0.1446 0.55942 0.0
In611 In 0.32395 0.84128 0.52308 0.0
O612 O 0.30159 0.79743 0.53345 0.0
O613 O 0.28881 0.82005 0.49422 0.0
C614 C 0.36921 0.84186 0.56142 0.0
C615 C 0.28682 0.87855 0.5504 0.0
C616 C 0.35562 0.84303 0.47311 0.0
O617 O 0.35547 0.8185 0.55484 0.0
O618 O 0.36034 0.86481 0.54836 0.0
O619 O 0.34139 0.86535 0.48211 0.0
O620 O 0.35369 0.82044 0.48928 0.0
C621 C 0.28556 0.79778 0.51066 0.0
O622 O 0.29637 0.88424 0.52474 0.0
O623 O 0.2957 0.8545 0.56114 0.0
C624 C 0.11451 0.40194 0.25359 0.0
C625 C 0.10353 0.42792 0.26639 0.0
H626 H 0.10671 0.36556 0.22494 0.0
C627 C 0.07498 0.43743 0.25896 0.0
H628 H 0.13644 0.394 0.25872 0.0
C629 C 0.05767 0.42083 0.23931 0.0
C630 C 0.06876 0.39462 0.22688 0.0
H631 H 0.06599 0.45739 0.26852 0.0
H632 H 0.03563 0.42834 0.23405 0.0
C633 C 0.09741 0.38556 0.23414 0.0
C634 C 0.61528 0.09204 0.24442 0.0
C635 C 0.60364 0.06689 0.23056 0.0
H636 H 0.60817 0.12779 0.27403 0.0
C637 C 0.57472 0.05806 0.2373 0.0
H638 H 0.63754 0.0994 0.23991 0.0
C639 C 0.55761 0.07462 0.25716 0.0
C640 C 0.5693 0.10012 0.27048 0.0
H641 H 0.56523 0.03873 0.22693 0.0
H642 H 0.53522 0.06774 0.26176 0.0
C643 C 0.59839 0.10839 0.26407 0.0
C644 C 0.93644 0.57474 0.23825 0.0
C645 C 0.92543 0.60145 0.22685 0.0
H646 H 0.92837 0.53763 0.26683 0.0
C647 C 0.89728 0.61095 0.23538 0.0
H648 H 0.9581 0.56692 0.23199 0.0
C649 C 0.88055 0.59444 0.25501 0.0
C650 C 0.89142 0.56791 0.26674 0.0
H651 H 0.88807 0.63135 0.227 0.0
H652 H 0.85899 0.60271 0.26109 0.0
C653 C 0.91949 0.55803 0.25811 0.0
C654 C 0.43769 0.92288 0.25835 0.0
C655 C 0.42938 0.89372 0.26509 0.0
H656 H 0.42724 0.96232 0.23389 0.0
C657 C 0.40444 0.88166 0.25134 0.0
H658 H 0.45686 0.9327 0.26865 0.0
C659 C 0.38777 0.89834 0.23184 0.0
C660 C 0.39546 0.92764 0.22539 0.0
H661 H 0.39748 0.85923 0.25584 0.0
H662 H 0.36855 0.88815 0.22196 0.0
C663 C 0.42079 0.93979 0.23855 0.0
C664 C 0.07425 0.55861 0.73951 0.0
C665 C 0.10287 0.56801 0.73221 0.0
H666 H 0.03497 0.56762 0.76456 0.0
C667 C 0.1141 0.59363 0.74551 0.0
H668 H 0.06507 0.53891 0.72957 0.0
C669 C 0.09716 0.6098 0.76528 0.0
C670 C 0.06842 0.60089 0.77235 0.0
H671 H 0.1361 0.60146 0.74053 0.0
H672 H 0.10665 0.62955 0.77484 0.0
C673 C 0.05709 0.575 0.75947 0.0
C674 C 0.41946 0.05868 0.75777 0.0
C675 C 0.39059 0.06763 0.76458 0.0
H676 H 0.45896 0.06826 0.73328 0.0
C677 C 0.37909 0.09294 0.75092 0.0
H678 H 0.42885 0.03923 0.76798 0.0
C679 C 0.39604 0.10931 0.73135 0.0
C680 C 0.42506 0.10089 0.72482 0.0
H681 H 0.35687 0.1004 0.75551 0.0
H682 H 0.38636 0.12883 0.72152 0.0
C683 C 0.43663 0.07526 0.73798 0.0
C684 C 0.88064 0.40217 0.74226 0.0
C685 C 0.89149 0.4283 0.72967 0.0
H686 H 0.88849 0.36577 0.77084 0.0
C687 C 0.91987 0.43807 0.73739 0.0
H688 H 0.85884 0.39402 0.73691 0.0
C689 C 0.93716 0.42158 0.75717 0.0
C690 C 0.92618 0.39522 0.76937 0.0
H691 H 0.92875 0.45816 0.72799 0.0
H692 H 0.95907 0.42927 0.76268 0.0
C693 C 0.8977 0.38589 0.7618 0.0
C694 C 0.57401 0.93835 0.75689 0.0
C695 C 0.60071 0.92704 0.76783 0.0
H696 H 0.53649 0.93075 0.72887 0.0
C697 C 0.60996 0.89889 0.75878 0.0
H698 H 0.56637 0.96 0.76352 0.0
C699 C 0.59315 0.88241 0.73916 0.0
C700 C 0.56652 0.89355 0.72803 0.0
H701 H 0.6304 0.88948 0.76678 0.0
H702 H 0.60114 0.86082 0.73271 0.0
C703 C 0.55697 0.92165 0.73711 0.0
C704 C 0.2365 0.09482 0.38554 0.0
C705 C 0.22796 0.06661 0.39504 0.0
H706 H 0.26129 0.13363 0.39417 0.0
C707 C 0.23862 0.05596 0.4222 0.0
H708 H 0.22868 0.10382 0.36481 0.0
C709 C 0.25772 0.0734 0.43935 0.0
C710 C 0.26622 0.10161 0.4295 0.0
H711 H 0.23231 0.03429 0.43006 0.0
H712 H 0.2659 0.06482 0.46011 0.0
C713 C 0.25526 0.11203 0.40249 0.0
C714 C 0.88124 0.25218 0.4022 0.0
C715 C 0.89238 0.26477 0.42821 0.0
H716 H 0.88863 0.22345 0.36581 0.0
C717 C 0.92077 0.25685 0.43779 0.0
H718 H 0.85942 0.25767 0.3942 0.0
C719 C 0.93779 0.23692 0.42122 0.0
C720 C 0.92654 0.22473 0.39497 0.0
H721 H 0.92986 0.26624 0.45779 0.0
H722 H 0.95972 0.23129 0.42876 0.0
C723 C 0.89805 0.23247 0.38585 0.0
C724 C 0.73733 0.92242 0.44066 0.0
C725 C 0.72502 0.89639 0.42904 0.0
H726 H 0.76641 0.95923 0.43293 0.0
C727 C 0.7321 0.88802 0.40008 0.0
H728 H 0.73217 0.9294 0.46293 0.0
C729 C 0.75127 0.90484 0.38318 0.0
C730 C 0.76408 0.93058 0.39468 0.0
H731 H 0.72291 0.86823 0.3903 0.0
H732 H 0.75622 0.89738 0.36101 0.0
C733 C 0.75682 0.93946 0.42354 0.0
C734 C 0.09612 0.76045 0.38507 0.0
C735 C 0.06813 0.76919 0.39484 0.0
H736 H 0.13433 0.73448 0.39296 0.0
C737 C 0.05729 0.75782 0.42162 0.0
H738 H 0.10518 0.76876 0.36457 0.0
C739 C 0.07428 0.73786 0.43819 0.0
C740 C 0.10222 0.72907 0.42807 0.0
H741 H 0.03575 0.76422 0.42966 0.0
H742 H 0.06555 0.72923 0.45868 0.0
C743 C 0.11289 0.7407 0.40142 0.0
C744 C 0.24257 0.9077 0.61408 0.0
C745 C 0.22847 0.93248 0.60202 0.0
H746 H 0.27173 0.87167 0.60735 0.0
C747 C 0.23443 0.94043 0.57259 0.0
H748 H 0.23868 0.90102 0.63671 0.0
C749 C 0.25379 0.92329 0.55543 0.0
C750 C 0.26721 0.89806 0.56759 0.0
H751 H 0.22384 0.95947 0.56277 0.0
H752 H 0.25786 0.92945 0.5327 0.0
C753 C 0.26157 0.89076 0.59714 0.0
C754 C 0.05637 0.23988 0.57494 0.0
C755 C 0.06776 0.22633 0.60045 0.0
H756 H 0.06451 0.27025 0.53929 0.0
C757 C 0.09677 0.23263 0.60908 0.0
H758 H 0.03406 0.23538 0.56778 0.0
C759 C 0.11391 0.25231 0.59304 0.0
C760 C 0.10262 0.26631 0.56782 0.0
H761 H 0.10631 0.22253 0.62853 0.0
H762 H 0.13611 0.2567 0.60065 0.0
C763 C 0.07374 0.25977 0.55867 0.0
C764 C 0.76028 0.09535 0.60849 0.0
C765 C 0.76884 0.06718 0.5989 0.0
H766 H 0.73476 0.13382 0.60031 0.0
C767 C 0.75766 0.05632 0.57204 0.0
H768 H 0.76848 0.10447 0.62902 0.0
C769 C 0.73799 0.07346 0.55527 0.0
C770 C 0.72935 0.10157 0.56525 0.0
H771 H 0.76396 0.03466 0.56413 0.0
H772 H 0.72942 0.06469 0.53475 0.0
C773 C 0.74086 0.11226 0.59194 0.0
C774 C 0.88082 0.73989 0.59551 0.0
C775 C 0.89106 0.72868 0.56852 0.0
H776 H 0.88923 0.76716 0.63277 0.0
C777 C 0.91898 0.73735 0.55825 0.0
H778 H 0.85941 0.73372 0.60411 0.0
C779 C 0.93636 0.75683 0.57498 0.0
C780 C 0.92594 0.76779 0.60209 0.0
H781 H 0.92739 0.72901 0.5375 0.0
H782 H 0.95786 0.76319 0.5668 0.0
C783 C 0.89798 0.75914 0.61203 0.0
C784 C 0.39822 0.26231 0.10986 0.0
C785 C 0.42659 0.27027 0.10053 0.0
H786 H 0.35951 0.23726 0.10145 0.0
C787 C 0.43754 0.25858 0.07394 0.0
H788 H 0.38905 0.27093 0.13018 0.0
C789 C 0.42034 0.23898 0.05718 0.0
C790 C 0.39205 0.23089 0.06691 0.0
H791 H 0.45937 0.2644 0.06624 0.0
H792 H 0.42919 0.23001 0.03689 0.0
C793 C 0.38123 0.24293 0.09332 0.0
C794 C 0.37867 0.75051 0.90496 0.0
C795 C 0.39056 0.7654 0.92938 0.0
H796 H 0.38569 0.72006 0.86991 0.0
C797 C 0.41984 0.75962 0.93772 0.0
H798 H 0.35614 0.75427 0.89804 0.0
C799 C 0.43705 0.73972 0.92132 0.0
C800 C 0.42511 0.72541 0.89649 0.0
H801 H 0.42952 0.77079 0.95649 0.0
H802 H 0.45971 0.7359 0.92776 0.0
C803 C 0.39567 0.73082 0.88878 0.0
C804 C 0.26044 0.44017 0.9269 0.0
C805 C 0.262 0.436 0.89616 0.0
H806 H 0.24065 0.42586 0.96772 0.0
C807 C 0.24295 0.41566 0.88273 0.0
H808 H 0.2749 0.45578 0.93777 0.0
C809 C 0.22379 0.39878 0.89957 0.0
C810 C 0.22301 0.40174 0.93038 0.0
H811 H 0.24327 0.41219 0.85907 0.0
H812 H 0.2099 0.38289 0.88834 0.0
C813 C 0.24095 0.4231 0.94398 0.0
C814 C 0.57497 0.23803 0.93644 0.0
C815 C 0.60246 0.22856 0.92573 0.0
H816 H 0.53679 0.26506 0.92866 0.0
C817 C 0.61262 0.23953 0.8986 0.0
H818 H 0.56664 0.22992 0.95731 0.0
C819 C 0.59581 0.25946 0.88246 0.0
C820 C 0.56831 0.26896 0.89293 0.0
H821 H 0.63372 0.23274 0.88971 0.0
H822 H 0.60445 0.26734 0.86162 0.0
C823 C 0.55795 0.2581 0.92009 0.0
C824 C 0.74469 0.58914 0.88089 0.0
C825 C 0.73028 0.56455 0.89303 0.0
H826 H 0.77415 0.62502 0.88768 0.0
C827 C 0.736 0.55674 0.92253 0.0
H828 H 0.74097 0.5957 0.8582 0.0
C829 C 0.75535 0.57384 0.9397 0.0
C830 C 0.76909 0.59888 0.92752 0.0
H831 H 0.72517 0.53787 0.93241 0.0
H832 H 0.75915 0.5678 0.96252 0.0
C833 C 0.76377 0.60604 0.89787 0.0
C834 C 0.58862 0.74824 0.11632 0.0
C835 C 0.5647 0.73307 0.10386 0.0
H836 H 0.62362 0.77885 0.10997 0.0
C837 C 0.55707 0.73866 0.07429 0.0
H838 H 0.59497 0.74466 0.13909 0.0
C839 C 0.57377 0.75855 0.05734 0.0
C840 C 0.5982 0.77303 0.06982 0.0
H841 H 0.53869 0.72727 0.06416 0.0
H842 H 0.56794 0.76215 0.03444 0.0
C843 C 0.6051 0.76791 0.09957 0.0
C844 C 0.2393 0.5742 0.05701 0.0
C845 C 0.22767 0.60064 0.06842 0.0
H846 H 0.26789 0.53701 0.06479 0.0
C847 C 0.23574 0.60952 0.09698 0.0
H848 H 0.23338 0.56682 0.03506 0.0
C849 C 0.25508 0.59272 0.11372 0.0
C850 C 0.26706 0.56648 0.10249 0.0
H851 H 0.22714 0.62966 0.10658 0.0
H852 H 0.26072 0.60055 0.1356 0.0
C853 C 0.25894 0.55718 0.07398 0.0
C854 C 0.73775 0.43949 0.07287 0.0
C855 C 0.7316 0.43155 0.10224 0.0
H856 H 0.76152 0.42862 0.03321 0.0
C857 C 0.74581 0.40691 0.11449 0.0
H858 H 0.72708 0.45841 0.06291 0.0
C859 C 0.76515 0.39011 0.09776 0.0
C860 C 0.77094 0.39742 0.06824 0.0
H861 H 0.74175 0.40026 0.1371 0.0
H862 H 0.77538 0.37109 0.10803 0.0
C863 C 0.75736 0.42248 0.05593 0.0
C864 C 0.99406 0.22331 0.24554 0.0
C865 C 0.99138 0.23112 0.27542 0.0
H866 H 0.00282 0.23831 0.20145 0.0
C867 C 0.99491 0.26077 0.28373 0.0
H868 H 0.99153 0.20055 0.23865 0.0
C869 C 0.0006 0.28235 0.26248 0.0
C870 C 0.00371 0.27453 0.23266 0.0
H871 H 0.99286 0.26734 0.30663 0.0
H872 H 0.00297 0.30512 0.26943 0.0
C873 C 0.00063 0.24482 0.22436 0.0
C874 C 0.75251 0.96968 0.25691 0.0
C875 C 0.76656 0.99256 0.27235 0.0
H876 H 0.7202 0.95814 0.22436 0.0
C877 C 0.75975 0.022 0.26548 0.0
H878 H 0.75735 0.9468 0.26194 0.0
C879 C 0.7392 0.02847 0.24343 0.0
C880 C 0.72449 0.00558 0.22863 0.0
H881 H 0.7704 0.03999 0.27707 0.0
H882 H 0.73419 0.05135 0.23855 0.0
C883 C 0.73126 0.97614 0.23554 0.0
C884 C 0.99347 0.75108 0.22414 0.0
C885 C 0.99041 0.72128 0.23216 0.0
H886 H 0.00273 0.79518 0.23884 0.0
C887 C 0.99373 0.71315 0.26187 0.0
H888 H 0.99111 0.75783 0.20133 0.0
C889 C -0.0004 0.73449 0.2833 0.0
C890 C 0.0031 0.76422 0.27528 0.0
H891 H 0.99136 0.69031 0.2686 0.0
H892 H 0.00181 0.72767 0.30612 0.0
C893 C 0.00022 0.77235 0.24551 0.0
C894 C 0.24404 0.02583 0.25772 0.0
C895 C 0.2301 0.00276 0.27295 0.0
H896 H 0.27653 0.03784 0.22553 0.0
C897 C 0.23748 0.97341 0.26623 0.0
H898 H 0.23877 0.04864 0.26264 0.0
C899 C 0.25839 0.96723 0.24442 0.0
C900 C 0.2729 0.99034 0.22977 0.0
H901 H 0.22693 0.95527 0.27768 0.0
H902 H 0.26375 0.94444 0.23955 0.0
C903 C 0.26565 0.01967 0.23663 0.0
C904 C 0.00065 0.75017 0.77327 0.0
C905 C 0.00378 0.72033 0.76545 0.0
H906 H 0.9915 0.79418 0.75824 0.0
C907 C 0.00083 0.71204 0.73575 0.0
H908 H 0.00273 0.75704 0.79608 0.0
C909 C 0.99518 0.73327 0.71413 0.0
C910 C 0.99153 0.76303 0.72196 0.0
H911 H 0.00326 0.68917 0.72917 0.0
H912 H 0.9932 0.72632 0.69133 0.0
C913 C 0.99412 0.77132 0.75172 0.0
C914 C 0.23297 0.02344 0.73048 0.0
C915 C 0.22586 0.99402 0.72379 0.0
H916 H 0.2592 0.05265 0.75691 0.0
C917 C 0.24003 0.97108 0.73901 0.0
H918 H 0.22225 0.04148 0.71903 0.0
C919 C 0.26168 0.97744 0.75997 0.0
C920 C 0.26878 0.00684 0.7667 0.0
H921 H 0.23498 0.94822 0.73409 0.0
H922 H 0.27281 0.95938 0.771 0.0
C923 C 0.25396 0.02981 0.75215 0.0
C924 C 0.00054 0.26259 0.71235 0.0
C925 C 0.00332 0.23275 0.72023 0.0
H926 H 0.99333 0.30688 0.72726 0.0
C927 C 0.00031 0.22456 0.74998 0.0
H928 H 0.00288 0.26945 0.68956 0.0
C929 C 0.99408 0.24589 0.77144 0.0
C930 C 0.99168 0.27578 0.76356 0.0
H931 H 0.00226 0.20165 0.75654 0.0
H932 H 0.99154 0.23907 0.79422 0.0
C933 C 0.9952 0.28398 0.73389 0.0
C934 C 0.73425 -0.0016 0.71102 0.0
C935 C 0.76388 0.00209 0.71905 0.0
H936 H 0.69016 0.99034 0.72576 0.0
C937 C 0.77194 -0.00045 0.74887 0.0
H938 H 0.72748 0.00034 0.68818 0.0
C939 C 0.7507 0.99307 0.77029 0.0
C940 C 0.72099 0.98992 0.76227 0.0
H941 H 0.7947 0.00221 0.75556 0.0
H942 H 0.75739 0.99104 0.79315 0.0
C943 C 0.71293 0.99279 0.7325 0.0
C944 C 0.24356 0.26069 0.96893 0.0
C945 C 0.22934 0.27572 0.99196 0.0
H946 H 0.27592 0.22827 0.95709 0.0
C947 C 0.23604 0.26841 0.02132 0.0
H948 H 0.23879 0.26604 0.94612 0.0
C949 C 0.25653 0.24625 0.02757 0.0
C950 C 0.27133 0.23177 0.00455 0.0
H951 H 0.22523 0.27966 0.03943 0.0
H952 H 0.26137 0.24099 0.05038 0.0
C953 C 0.26477 0.23921 0.97519 0.0
C954 C 0.23495 0.72987 0.97492 0.0
C955 C 0.228 0.72348 0.00443 0.0
H956 H 0.26045 0.75647 0.94524 0.0
C957 C 0.24177 0.73947 0.0271 0.0
H958 H 0.2245 0.71787 0.95708 0.0
C959 C 0.26287 0.7609 0.02036 0.0
C960 C 0.26977 0.76734 0.99085 0.0
H961 H 0.23681 0.73483 0.05002 0.0
H962 H 0.27372 0.77253 0.03821 0.0
C963 C 0.25534 0.75198 0.96816 0.0
C964 C 0.77267 0.24609 -2e-05 0.0
C965 C 0.76438 0.27574 0.00355 0.0
H966 H 0.75845 0.20199 0.98997 0.0
C967 C 0.73465 0.28363 0.00037 0.0
H968 H 0.79552 0.23952 0.00221 0.0
C969 C 0.71349 0.26216 0.99412 0.0
C970 C 0.72179 0.23258 0.99011 0.0
H971 H 0.72771 0.30635 0.00309 0.0
H972 H 0.69065 0.2688 0.99201 0.0
C973 C 0.75158 0.2247 0.99286 0.0
C974 C 0.73194 0.7129 0.99627 0.0
C975 C 0.76162 0.72078 0.9926 0.0
H976 H 0.68797 0.72782 0.00474 0.0
C977 C 0.76987 0.75052 0.99559 0.0
H978 H 0.72503 0.69012 0.99401 0.0
C979 C 0.7488 0.77198 0.00251 0.0
C980 C 0.71904 0.76412 0.00568 0.0
H981 H 0.79267 0.7571 0.993 0.0
H982 H 0.75566 0.79476 0.00487 0.0
C983 C 0.71078 0.73444 0.00233 0.0
C984 C 0.49199 0.72416 0.74589 0.0
C985 C 0.48855 0.73255 0.77553 0.0
H986 H 0.50139 0.73839 0.70168 0.0
C987 C 0.49107 0.76245 0.78324 0.0
H988 H 0.49025 0.70118 0.73947 0.0
C989 C 0.49666 0.7837 0.76163 0.0
C990 C 0.50069 0.77529 0.73208 0.0
H991 H 0.48842 0.76945 0.80595 0.0
H992 H 0.49837 0.80665 0.76813 0.0
C993 C 0.49847 0.74535 0.72437 0.0
C994 C 0.25284 0.47123 0.75862 0.0
C995 C 0.26756 0.49413 0.77339 0.0
H996 H 0.21973 0.45965 0.72694 0.0
C997 C 0.26108 0.52357 0.76615 0.0
H998 H 0.25738 0.44836 0.76396 0.0
C999 C 0.24016 0.53 0.74442 0.0
C1000 C 0.22478 0.5071 0.73034 0.0
H1001 H 0.27223 0.54158 0.77723 0.0
H1002 H 0.2354 0.55286 0.73926 0.0
C1003 C 0.23128 0.47768 0.73759 0.0
C1004 C 0.49962 0.27236 0.74484 0.0
C1005 C 0.50271 0.26431 0.77461 0.0
H1006 H 0.49042 0.25769 0.70073 0.0
C1007 C 0.49945 0.23458 0.78271 0.0
H1008 H 0.50193 0.2952 0.73811 0.0
C1009 C 0.49363 0.21314 0.76135 0.0
C1010 C 0.49012 0.22119 0.73165 0.0
H1011 H 0.50183 0.22782 0.80553 0.0
H1012 H 0.49148 0.19031 0.76814 0.0
C1013 C 0.49293 0.25099 0.72355 0.0
C1014 C 0.75468 0.46655 0.74322 0.0
C1015 C 0.76942 0.48942 0.72842 0.0
H1016 H 0.72315 0.45512 0.77658 0.0
C1017 C 0.76232 0.51887 0.73494 0.0
H1018 H 0.75994 0.44368 0.73862 0.0
C1019 C 0.74075 0.52538 0.75595 0.0
C1020 C 0.72668 0.50254 0.77143 0.0
H1021 H 0.77338 0.53685 0.72373 0.0
H1022 H 0.7357 0.54827 0.76071 0.0
C1023 C 0.7338 0.47308 0.76493 0.0
C1024 C 0.50166 0.25044 0.27144 0.0
C1025 C 0.50474 0.22067 0.26333 0.0
H1026 H 0.49243 0.29459 0.2569 0.0
C1027 C 0.50152 0.21265 0.23358 0.0
H1028 H 0.50393 0.25711 0.29429 0.0
C1029 C 0.49571 0.23408 0.2122 0.0
C1030 C 0.49215 0.26378 0.22033 0.0
H1031 H 0.50388 0.18984 0.22678 0.0
H1032 H 0.49355 0.22735 0.18935 0.0
C1033 C 0.49497 0.27179 0.25014 0.0
C1034 C 0.76342 0.47637 0.26027 0.0
C1035 C 0.77032 0.50576 0.26724 0.0
H1036 H 0.73707 0.44721 0.23395 0.0
C1037 C 0.75552 0.52876 0.25272 0.0
H1038 H 0.77454 0.45829 0.27127 0.0
C1039 C 0.73477 0.52244 0.23083 0.0
C1040 C 0.72785 0.49304 0.22389 0.0
H1041 H 0.76062 0.5516 0.25768 0.0
H1042 H 0.72406 0.54051 0.21941 0.0
C1043 C 0.74198 0.47006 0.23907 0.0
C1044 C 0.47459 0.73576 0.23224 0.0
C1045 C 0.50396 0.72902 0.22527 0.0
H1046 H 0.44533 0.76174 0.2588 0.0
C1047 C 0.52679 0.74359 0.24023 0.0
H1048 H 0.45664 0.72472 0.221 0.0
C1049 C 0.52034 0.76531 0.26117 0.0
C1050 C 0.49097 0.77206 0.26813 0.0
H1051 H 0.54961 0.73884 0.23509 0.0
H1052 H 0.53829 0.77678 0.27197 0.0
C1053 C 0.46815 0.75679 0.25386 0.0
C1054 C 0.26105 0.47384 0.23064 0.0
C1055 C 0.268 0.50332 0.22405 0.0
H1056 H 0.23514 0.44434 0.25707 0.0
C1057 C 0.25377 0.52611 0.23944 0.0
H1058 H 0.27184 0.45591 0.21908 0.0
C1059 C 0.23224 0.51952 0.26049 0.0
C1060 C 0.22534 0.49004 0.26714 0.0
H1061 H 0.25869 0.54902 0.23462 0.0
H1062 H 0.22107 0.53747 0.27166 0.0
C1063 C 0.24022 0.46724 0.25239 0.0
C1064 C 0.755 0.74476 0.5287 0.0
C1065 C 0.76961 0.72988 0.50582 0.0
H1066 H 0.72378 0.77839 0.54021 0.0
C1067 C 0.76275 0.73671 0.47639 0.0
H1068 H 0.76007 0.73994 0.55156 0.0
C1069 C 0.74144 0.75803 0.46991 0.0
C1070 C 0.72744 0.77351 0.49278 0.0
H1071 H 0.77374 0.72544 0.45839 0.0
H1072 H 0.73647 0.76295 0.44705 0.0
C1073 C 0.73441 0.76677 0.52222 0.0
C1074 C 0.74226 0.23855 0.52577 0.0
C1075 C 0.72809 0.22324 0.50289 0.0
H1076 H 0.77503 0.27062 0.53733 0.0
C1077 C 0.7352 0.22981 0.47346 0.0
H1078 H 0.7372 0.23371 0.54864 0.0
C1079 C 0.75616 0.25148 0.467 0.0
C1080 C 0.77097 0.26614 0.4899 0.0
H1081 H 0.72447 0.2183 0.45547 0.0
H1082 H 0.76138 0.25616 0.44414 0.0
C1083 C 0.76391 0.25951 0.51932 0.0
C1084 C 0.25043 0.75862 0.52672 0.0
C1085 C 0.26438 0.77415 0.50385 0.0
H1086 H 0.21838 0.7258 0.53824 0.0
C1087 C 0.25758 0.76725 0.47442 0.0
H1088 H 0.25527 0.76365 0.54959 0.0
C1089 C 0.2372 0.74504 0.46794 0.0
C1090 C 0.22264 0.7301 0.49081 0.0
H1091 H 0.26818 0.7789 0.45643 0.0
H1092 H 0.23225 0.7401 0.44507 0.0
C1093 C 0.22934 0.73709 0.52025 0.0
C1094 C 0.23133 0.26119 0.47713 0.0
C1095 C 0.22433 0.26754 0.50664 0.0
H1096 H 0.25769 0.23543 0.44747 0.0
C1097 C 0.23893 0.25235 0.52934 0.0
H1098 H 0.22037 0.27269 0.45927 0.0
C1099 C 0.2596 0.23047 0.52258 0.0
C1100 C 0.26664 0.22418 0.49307 0.0
H1101 H 0.23376 0.25679 0.55225 0.0
H1102 H 0.27017 0.21858 0.54042 0.0
C1103 C 0.25269 0.24001 0.4704 0.0
C1104 C 0.08851 0.36851 0.08735 0.0
C1105 C 0.07979 0.34139 0.09969 0.0
H1106 H 0.11379 0.3904 0.05386 0.0
C1107 C 0.09071 0.31506 0.08762 0.0
H1108 H 0.08051 0.38917 0.09635 0.0
C1109 C 0.10942 0.31579 0.06318 0.0
C1110 C 0.11793 0.34287 0.05063 0.0
H1111 H 0.08438 0.29387 0.0967 0.0
H1112 H 0.11713 0.29509 0.05402 0.0
C1113 C 0.10763 0.36925 0.06316 0.0
C1114 C 0.62925 0.09529 0.08725 0.0
C1115 C 0.65617 0.08546 0.09909 0.0
H1116 H 0.60781 0.12087 0.05363 0.0
C1117 C 0.68259 0.09509 0.08627 0.0
H1118 H 0.60853 0.08829 0.09679 0.0
C1119 C 0.68215 0.11347 0.06157 0.0
C1120 C 0.65528 0.12287 0.04934 0.0
H1121 H 0.70365 0.08793 0.09493 0.0
H1122 H 0.70293 0.12006 0.05185 0.0
C1123 C 0.62881 0.11399 0.06265 0.0
C1124 C 0.90307 0.62783 0.08758 0.0
C1125 C 0.91095 0.65478 0.10084 0.0
H1126 H 0.87814 0.60627 0.05359 0.0
C1127 C 0.89842 0.68104 0.09028 0.0
H1128 H 0.91228 0.60721 0.09543 0.0
C1129 C 0.87914 0.68049 0.0663 0.0
C1130 C 0.8717 0.65364 0.05263 0.0
H1131 H 0.90401 0.70211 0.10012 0.0
H1132 H 0.87035 0.7012 0.05819 0.0
C1133 C 0.88343 0.62724 0.06379 0.0
C1134 C 0.31239 0.8883 0.05852 0.0
C1135 C 0.33901 0.87764 0.04682 0.0
H1136 H 0.29146 0.91461 0.09167 0.0
C1137 C 0.36562 0.88544 0.06052 0.0
H1138 H 0.29151 0.88256 0.04847 0.0
C1139 C 0.36559 0.90414 0.08512 0.0
C1140 C 0.33892 0.91497 0.09663 0.0
H1141 H 0.38645 0.87757 0.05191 0.0
H1142 H 0.38643 0.91016 0.09508 0.0
C1143 C 0.31233 0.90661 0.08328 0.0
C1144 C 0.08881 0.62807 0.9117 0.0
C1145 C 0.07968 0.65505 0.89934 0.0
H1146 H 0.11459 0.60659 0.94512 0.0
C1147 C 0.09037 0.68153 0.91126 0.0
H1148 H 0.08101 0.60729 0.90281 0.0
C1149 C 0.10923 0.6811 0.93559 0.0
C1150 C 0.11816 0.65418 0.94817 0.0
H1151 H 0.08373 0.70262 0.90216 0.0
H1152 H 0.11673 0.70193 0.94464 0.0
C1153 C 0.10811 0.62763 0.93579 0.0
C1154 C 0.36502 0.09529 0.90777 0.0
C1155 C 0.33814 0.08467 0.89656 0.0
H1156 H 0.38646 0.12148 0.94092 0.0
C1157 C 0.31177 0.09318 0.91024 0.0
H1158 H 0.3857 0.08913 0.89755 0.0
C1159 C 0.31225 0.11135 0.93509 0.0
C1160 C 0.33909 0.1217 0.94657 0.0
H1161 H 0.29074 0.08536 0.90209 0.0
H1162 H 0.29153 0.11716 0.94542 0.0
C1163 C 0.36548 0.11384 0.93248 0.0
C1164 C 0.88578 0.3695 0.9326 0.0
C1165 C 0.87427 0.34305 0.94388 0.0
H1166 H 0.91424 0.38962 0.90067 0.0
C1167 C 0.88171 0.31622 0.93019 0.0
H1168 H 0.88047 0.39046 0.9428 0.0
C1169 C 0.90076 0.31572 0.90604 0.0
C1170 C 0.91306 0.34203 0.89534 0.0
H1171 H 0.87307 0.29548 0.93839 0.0
H1172 H 0.90636 0.29467 0.89618 0.0
C1173 C 0.90519 0.36897 0.90863 0.0
C1174 C 0.62657 0.88641 0.9325 0.0
C1175 C 0.65278 0.87415 0.94342 0.0
H1176 H 0.60681 0.91538 0.90076 0.0
C1177 C 0.67952 0.88075 0.92923 0.0
H1178 H 0.60569 0.88177 0.94309 0.0
C1179 C 0.68017 0.89974 0.90499 0.0
C1180 C 0.65413 0.91281 0.89466 0.0
H1181 H 0.70008 0.87155 0.93714 0.0
H1182 H 0.70116 0.9047 0.89476 0.0
C1183 C 0.62727 0.90574 0.90842 0.0
C1184 C 0.08841 0.09262 0.31464 0.0
C1185 C 0.10037 0.08191 0.34109 0.0
H1186 H 0.05516 0.11907 0.29428 0.0
C1187 C 0.08827 0.09132 0.36809 0.0
H1188 H 0.09732 0.08585 0.29351 0.0
C1189 C 0.06423 0.11066 0.36856 0.0
C1190 C 0.05176 0.12063 0.34203 0.0
H1191 H 0.0972 0.08351 0.38884 0.0
H1192 H 0.05496 0.11715 0.38961 0.0
C1193 C 0.06427 0.11167 0.3151 0.0
C1194 C 0.90483 0.08574 0.36808 0.0
C1195 C 0.91412 0.09793 0.34108 0.0
H1196 H 0.879 0.05239 0.38961 0.0
C1197 C 0.90362 0.08579 0.31462 0.0
H1198 H 0.9125 0.0948 0.38883 0.0
C1199 C 0.88483 0.06141 0.31509 0.0
C1200 C 0.87578 0.04898 0.34204 0.0
H1201 H 0.91039 0.09475 0.29351 0.0
H1202 H 0.8775 0.05218 0.29429 0.0
C1203 C 0.88559 0.0616 0.36856 0.0
C1204 C 0.90624 0.90263 0.36921 0.0
C1205 C 0.8939 0.91181 0.34224 0.0
H1206 H 0.93994 0.87719 0.39062 0.0
C1207 C 0.90575 0.90103 0.31576 0.0
H1208 H 0.89742 0.91051 0.38998 0.0
C1209 C 0.93004 0.8822 0.31616 0.0
C1210 C 0.94284 0.87351 0.34304 0.0
H1211 H 0.89667 0.90763 0.29466 0.0
H1212 H 0.93905 0.87476 0.29531 0.0
C1213 C 0.93045 0.88349 0.36961 0.0
C1214 C 0.10963 0.93301 0.36834 0.0
C1215 C 0.11955 0.94536 0.34174 0.0
H1216 H 0.08257 0.90008 0.38885 0.0
C1217 C 0.11052 0.93272 0.31488 0.0
H1218 H 0.11619 0.94239 0.38933 0.0
C1219 C 0.09164 0.9084 0.31458 0.0
C1220 C 0.08104 0.89654 0.34113 0.0
H1221 H 0.11793 0.94174 0.29402 0.0
H1222 H 0.08489 0.89929 0.29354 0.0
C1223 C 0.09031 0.90893 0.36804 0.0
C1224 C 0.06338 0.88194 0.68081 0.0
C1225 C 0.05107 0.87255 0.65394 0.0
H1226 H 0.09602 0.90835 0.70224 0.0
C1227 C 0.06363 0.88222 0.62734 0.0
H1228 H 0.05422 0.87474 0.70168 0.0
C1229 C 0.08749 0.90179 0.62768 0.0
C1230 C 0.0993 0.9117 0.65463 0.0
H1231 H 0.0545 0.87537 0.60633 0.0
H1232 H 0.09644 0.90944 0.60688 0.0
C1233 C 0.08732 0.90119 0.68115 0.0
C1234 C 0.10664 0.06262 0.62753 0.0
C1235 C 0.11588 0.04978 0.65415 0.0
H1236 H 0.08041 0.09616 0.60697 0.0
C1237 C 0.10636 0.06204 0.681 0.0
H1238 H 0.11361 0.05353 0.60654 0.0
C1239 C 0.08774 0.08656 0.68128 0.0
C1240 C 0.07789 0.09897 0.6547 0.0
H1241 H 0.11324 0.05264 0.70188 0.0
H1242 H 0.08064 0.09544 0.70231 0.0
C1243 C 0.08758 0.08688 0.6278 0.0
C1244 C 0.93113 0.11033 0.62534 0.0
C1245 C 0.9412 0.1231 0.65169 0.0
H1246 H 0.90072 0.0802 0.60526 0.0
C1247 C 0.92679 0.1163 0.67829 0.0
H1248 H 0.94193 0.11509 0.60456 0.0
C1249 C 0.90321 0.09655 0.6787 0.0
C1250 C 0.89379 0.08292 0.65256 0.0
H1251 H 0.93406 0.12588 0.69896 0.0
H1252 H 0.89282 0.09144 0.69962 0.0
C1253 C 0.9077 0.09024 0.6258 0.0
C1254 C 0.90056 0.90537 0.68015 0.0
C1255 C 0.91284 0.89431 0.654 0.0
H1256 H 0.87292 0.93801 0.7 0.0
C1257 C 0.905 0.90731 0.6269 0.0
H1258 H 0.90614 0.89576 0.70132 0.0
C1259 C 0.8856 0.93131 0.62608 0.0
C1260 C 0.8741 0.94293 0.65237 0.0
H1261 H 0.91403 0.89908 0.60636 0.0
H1262 H 0.88029 0.94127 0.605 0.0
C1263 C 0.88155 0.92956 0.67936 0.0
C1264 C 0.36661 0.06401 0.11137 0.0
C1265 C 0.34024 0.05016 0.11972 0.0
H1266 H 0.38669 0.09875 0.0863 0.0
C1267 C 0.31332 0.06189 0.10985 0.0
H1268 H 0.38765 0.0554 0.11863 0.0
C1269 C 0.31274 0.08673 0.09165 0.0
C1270 C 0.33907 0.10017 0.08265 0.0
H1271 H 0.29262 0.05173 0.11602 0.0
H1272 H 0.29165 0.09507 0.08419 0.0
C1273 C 0.36603 0.08873 0.09282 0.0
C1274 C 0.31151 0.93642 0.88479 0.0
C1275 C 0.3383 0.94791 0.8743 0.0
H1276 H 0.29012 0.90324 0.91066 0.0
C1277 C 0.36469 0.93354 0.88163 0.0
H1278 H 0.29079 0.94695 0.87937 0.0
C1279 C 0.3643 0.90859 0.89987 0.0
C1280 C 0.33749 0.89742 0.91071 0.0
H1281 H 0.38563 0.94195 0.87385 0.0
H1282 H 0.38499 0.89821 0.90568 0.0
C1283 C 0.3111 0.91134 0.90265 0.0
C1284 C 0.06359 0.31632 0.88386 0.0
C1285 C 0.05086 0.34314 0.87484 0.0
H1286 H 0.09653 0.29503 0.91009 0.0
C1287 C 0.06272 0.36978 0.88528 0.0
H1288 H 0.05494 0.29541 0.87611 0.0
C1289 C 0.08637 0.36951 0.90508 0.0
C1290 C 0.09874 0.34262 0.91447 0.0
H1291 H 0.05325 0.39074 0.87877 0.0
H1292 H 0.09484 0.39035 0.91318 0.0
C1293 C 0.08739 0.31606 0.90334 0.0
C1294 C 0.68145 0.0902 0.89759 0.0
C1295 C 0.65528 0.10101 0.90998 0.0
H1296 H 0.70153 0.05753 0.8701 0.0
C1297 C 0.62838 0.08759 0.90237 0.0
H1298 H 0.70247 0.10014 0.90299 0.0
C1299 C 0.62778 0.06338 0.88317 0.0
C1300 C 0.6541 0.05198 0.87163 0.0
H1301 H 0.60783 0.0956 0.91149 0.0
H1302 H 0.60685 0.05308 0.8781 0.0
C1303 C 0.68089 0.06581 0.87877 0.0
C1304 C 0.92775 0.68001 0.88201 0.0
C1305 C 0.94198 0.65326 0.8753 0.0
H1306 H 0.89334 0.70153 0.9061 0.0
C1307 C 0.93123 0.62693 0.88755 0.0
H1308 H 0.93553 0.70067 0.87282 0.0
C1309 C 0.90728 0.62751 0.90698 0.0
C1310 C 0.89346 0.65438 0.91415 0.0
H1311 H 0.94186 0.60604 0.88284 0.0
H1312 H 0.89976 0.60695 0.9166 0.0
C1313 C 0.90361 0.68054 0.90108 0.0
C1314 C 0.62842 0.93648 0.10871 0.0
C1315 C 0.65507 0.94867 0.1186 0.0
H1316 H 0.60767 0.90336 0.08207 0.0
C1317 C 0.68175 0.93557 0.10984 0.0
H1318 H 0.60757 0.9462 0.11507 0.0
C1319 C 0.68183 0.91092 0.09134 0.0
C1320 C 0.65525 0.89918 0.08081 0.0
H1321 H 0.70264 0.94446 0.11723 0.0
H1322 H 0.70273 0.90141 0.08482 0.0
C1323 C 0.62852 0.91209 0.08976 0.0
C1324 C 0.06262 0.62744 0.11259 0.0
C1325 C 0.05 0.65404 0.12219 0.0
H1326 H 0.09595 0.60699 0.08602 0.0
C1327 C 0.06258 0.68093 0.11318 0.0
H1328 H 0.0533 0.60642 0.11914 0.0
C1329 C 0.08697 0.68128 0.09448 0.0
C1330 C 0.09911 0.65475 0.08414 0.0
H1331 H 0.05336 0.7018 0.12033 0.0
H1332 H 0.09595 0.70237 0.08767 0.0
C1333 C 0.08691 0.6278 0.09356 0.0
C1334 C 0.92855 0.31613 0.11617 0.0
C1335 C 0.94275 0.34281 0.12318 0.0
H1336 H 0.89456 0.29476 0.09136 0.0
C1337 C 0.93234 0.36921 0.11077 0.0
H1338 H 0.93608 0.29543 0.12549 0.0
C1339 C 0.90879 0.36874 0.09085 0.0
C1340 C 0.89504 0.34192 0.08336 0.0
H1341 H 0.94297 0.39004 0.1157 0.0
H1342 H 0.90154 0.38933 0.08109 0.0
C1343 C 0.90481 0.31571 0.09662 0.0
C1344 C 0.60823 0.86879 0.56348 0.0
C1345 C 0.61821 0.84227 0.55099 0.0
H1346 H 0.58132 0.88903 0.59667 0.0
C1347 C 0.60959 0.81531 0.56372 0.0
H1348 H 0.6145 0.88985 0.55405 0.0
C1349 C 0.59096 0.81482 0.5882 0.0
C1350 C 0.58022 0.84127 0.60017 0.0
H1351 H 0.61707 0.79451 0.5546 0.0
H1352 H 0.58445 0.7937 0.59734 0.0
C1353 C 0.58918 0.86828 0.58775 0.0
C1354 C 0.18204 0.59296 0.58615 0.0
C1355 C 0.15563 0.58447 0.59979 0.0
H1356 H 0.20235 0.61651 0.55073 0.0
C1357 C 0.12876 0.59469 0.5882 0.0
H1358 H 0.20307 0.58543 0.59458 0.0
C1359 C 0.12834 0.61281 0.56317 0.0
C1360 C 0.15477 0.62064 0.54913 0.0
H1361 H 0.10806 0.58853 0.59836 0.0
H1362 H 0.10736 0.62015 0.55446 0.0
C1363 C 0.1816 0.6107 0.561 0.0
C1364 C 0.38591 0.12828 0.56143 0.0
C1365 C 0.37637 0.15488 0.54876 0.0
H1366 H 0.41235 0.1078 0.59487 0.0
C1367 C 0.38549 0.18177 0.56127 0.0
H1368 H 0.37925 0.10726 0.55216 0.0
C1369 C 0.40403 0.1821 0.58583 0.0
C1370 C 0.41422 0.15555 0.59806 0.0
H1371 H 0.37836 0.20263 0.552 0.0
H1372 H 0.41084 0.20317 0.59488 0.0
C1373 C 0.40491 0.12862 0.58574 0.0
C1374 C 0.8662 0.38268 0.56211 0.0
C1375 C 0.83984 0.37465 0.54806 0.0
H1376 H 0.88629 0.40743 0.59708 0.0
C1377 C 0.81294 0.38471 0.55966 0.0
H1378 H 0.88722 0.37526 0.55358 0.0
C1379 C 0.81237 0.40277 0.58458 0.0
C1380 C 0.8387 0.41147 0.59822 0.0
H1381 H 0.79224 0.37876 0.54937 0.0
H1382 H 0.79129 0.41038 0.59282 0.0
C1383 C 0.86565 0.40113 0.5869 0.0
C1384 C 0.58916 0.12793 0.40977 0.0
C1385 C 0.58024 0.15489 0.3972 0.0
H1386 H 0.61452 0.10651 0.44354 0.0
C1387 C 0.59085 0.18139 0.40917 0.0
H1388 H 0.5814 0.10714 0.40086 0.0
C1389 C 0.60942 0.18101 0.43372 0.0
C1390 C 0.61815 0.1541 0.44648 0.0
H1391 H 0.58436 0.20247 0.39992 0.0
H1392 H 0.61688 0.20185 0.44278 0.0
C1393 C 0.60818 0.12753 0.43407 0.0
C1394 C 0.86472 0.59398 0.40945 0.0
C1395 C 0.838 0.58314 0.39808 0.0
H1396 H 0.88573 0.62034 0.44272 0.0
C1397 C 0.81147 0.59141 0.41161 0.0
H1398 H 0.8855 0.58802 0.39935 0.0
C1399 C 0.81164 0.60958 0.43645 0.0
C1400 C 0.83833 0.62015 0.44808 0.0
H1401 H 0.79056 0.58341 0.40333 0.0
H1402 H 0.79081 0.61521 0.44666 0.0
C1403 C 0.86487 0.61252 0.43417 0.0
C1404 C 0.38184 0.86936 0.4321 0.0
C1405 C 0.37376 0.84292 0.4461 0.0
H1406 H 0.40695 0.88954 0.39747 0.0
C1407 C 0.38406 0.81597 0.43471 0.0
H1408 H 0.37423 0.89042 0.44047 0.0
C1409 C 0.40246 0.81543 0.41007 0.0
C1410 C 0.41122 0.84184 0.39651 0.0
H1411 H 0.37807 0.79522 0.44497 0.0
H1412 H 0.41027 0.79431 0.40201 0.0
C1413 C 0.40061 0.86883 0.4076 0.0
C1414 C 0.18318 0.40424 0.41219 0.0
C1415 C 0.15683 0.41226 0.39816 0.0
H1416 H 0.20337 0.38112 0.44798 0.0
C1417 C 0.12996 0.40167 0.40943 0.0
H1418 H 0.20419 0.41208 0.40402 0.0
C1419 C 0.12949 0.38361 0.43451 0.0
C1420 C 0.15584 0.37624 0.44893 0.0
H1421 H 0.10931 0.40746 0.39897 0.0
H1422 H 0.10851 0.37595 0.44294 0.0
C1423 C 0.18267 0.38657 0.43741 0.0
C1424 C 0.58927 0.59701 0.81558 0.0
C1425 C 0.60071 0.58542 0.84189 0.0
H1426 H 0.55645 0.62414 0.79546 0.0
C1427 C 0.58831 0.59419 0.86897 0.0
H1428 H 0.59845 0.59078 0.79441 0.0
C1429 C 0.56432 0.6136 0.86961 0.0
C1430 C 0.55224 0.62429 0.84317 0.0
H1431 H 0.59683 0.5857 0.88962 0.0
H1432 H 0.55467 0.61946 0.89068 0.0
C1433 C 0.56522 0.61615 0.81621 0.0
C1434 C 0.40565 0.58556 0.81557 0.0
C1435 C 0.41534 0.59835 0.84203 0.0
H1436 H 0.3803 0.55134 0.79528 0.0
C1437 C 0.40559 0.58655 0.86903 0.0
H1438 H 0.41282 0.59421 0.79446 0.0
C1439 C 0.38654 0.56228 0.86952 0.0
C1440 C 0.37743 0.5491 0.84302 0.0
H1441 H 0.41264 0.59612 0.88978 0.0
H1442 H 0.37946 0.55346 0.89059 0.0
C1443 C 0.38709 0.56101 0.81606 0.0
C1444 C 0.4052 0.40135 0.87004 0.0
C1445 C 0.39244 0.4104 0.84322 0.0
H1446 H 0.4394 0.37621 0.89102 0.0
C1447 C 0.40378 0.39936 0.81662 0.0
H1448 H 0.39678 0.40943 0.8909 0.0
C1449 C 0.4281 0.38059 0.81672 0.0
C1450 C 0.44148 0.37223 0.84342 0.0
H1451 H 0.39435 0.40583 0.79563 0.0
H1452 H 0.43678 0.37305 0.79576 0.0
C1453 C 0.42948 0.38229 0.87014 0.0
C1454 C 0.58888 0.41056 0.81389 0.0
C1455 C 0.57926 0.39784 0.84041 0.0
H1456 H 0.61412 0.44477 0.79343 0.0
C1457 C 0.58909 0.40973 0.86735 0.0
H1458 H 0.58166 0.40186 0.79282 0.0
C1459 C 0.60809 0.43407 0.86772 0.0
C1460 C 0.6171 0.44721 0.84116 0.0
H1461 H 0.5821 0.40024 0.88814 0.0
H1462 H 0.61518 0.44298 0.88874 0.0
C1463 C 0.60742 0.43515 0.81426 0.0
C1464 C 0.56526 0.38218 0.17969 0.0
C1465 C 0.55251 0.37339 0.15282 0.0
H1466 H 0.59845 0.40785 0.20116 0.0
C1467 C 0.56485 0.3834 0.12623 0.0
H1468 H 0.55628 0.37473 0.20055 0.0
C1469 C 0.58895 0.40268 0.12661 0.0
C1470 C 0.6012 0.41198 0.15357 0.0
H1471 H 0.55539 0.37702 0.10523 0.0
H1472 H 0.59773 0.41059 0.10584 0.0
C1473 C 0.58941 0.40116 0.18006 0.0
C1474 C 0.60931 0.56131 0.18092 0.0
C1475 C 0.62 0.55021 0.15401 0.0
H1476 H 0.58317 0.59406 0.20259 0.0
C1477 C 0.61265 0.56475 0.12767 0.0
H1478 H 0.61475 0.55064 0.20161 0.0
C1479 C 0.59421 0.58953 0.12823 0.0
C1480 C 0.58324 0.60035 0.15517 0.0
H1481 H 0.62058 0.55662 0.10664 0.0
H1482 H 0.58841 0.60009 0.10758 0.0
C1483 C 0.59128 0.58623 0.18151 0.0
C1484 C 0.43582 0.60955 0.18194 0.0
C1485 C 0.44708 0.62035 0.15513 0.0
H1486 H 0.40324 0.58294 0.20329 0.0
C1487 C 0.433 0.61267 0.12864 0.0
H1488 H 0.44615 0.61521 0.20274 0.0
C1489 C 0.40854 0.59384 0.12896 0.0
C1490 C 0.39756 0.58276 0.1558 0.0
H1491 H 0.44125 0.62066 0.10768 0.0
H1492 H 0.39834 0.58783 0.1082 0.0
C1493 C 0.41122 0.5911 0.18229 0.0
C1494 C 0.4045 0.40902 0.18146 0.0
C1495 C 0.41501 0.39709 0.15491 0.0
H1496 H 0.37862 0.44264 0.20207 0.0
C1497 C 0.40595 0.40969 0.12801 0.0
H1498 H 0.41109 0.39975 0.20249 0.0
C1499 C 0.38696 0.43402 0.12773 0.0
C1500 C 0.37715 0.44643 0.15435 0.0
H1501 H 0.41362 0.4008 0.10719 0.0
H1502 H 0.38055 0.44355 0.10676 0.0
C1503 C 0.38595 0.43359 0.18119 0.0
C1504 C 0.86456 0.56209 0.61252 0.0
C1505 C 0.83821 0.54776 0.62007 0.0
H1506 H 0.88473 0.59739 0.58832 0.0
C1507 C 0.81137 0.55919 0.60966 0.0
H1508 H 0.88555 0.55372 0.62022 0.0
C1509 C 0.81085 0.58424 0.59175 0.0
C1510 C 0.83719 0.59816 0.58355 0.0
H1511 H 0.79068 0.54867 0.61524 0.0
H1512 H 0.78983 0.59235 0.58387 0.0
C1513 C 0.86407 0.58699 0.59423 0.0
C1514 C 0.86637 0.43321 0.38346 0.0
C1515 C 0.83984 0.44702 0.37558 0.0
H1516 H 0.88691 0.39832 0.40797 0.0
C1517 C 0.8131 0.43506 0.38563 0.0
H1518 H 0.88728 0.44201 0.37604 0.0
C1519 C 0.81284 0.41004 0.40356 0.0
C1520 C 0.83935 0.39664 0.41211 0.0
H1521 H 0.79227 0.44517 0.37979 0.0
H1522 H 0.79188 0.40153 0.41117 0.0
C1523 C 0.86614 0.40831 0.40177 0.0
C1524 C 0.55868 0.8151 0.38814 0.0
C1525 C 0.54734 0.84194 0.37748 0.0
H1526 H 0.59125 0.79372 0.41475 0.0
C1527 C 0.56115 0.86847 0.38552 0.0
H1528 H 0.54854 0.79428 0.38221 0.0
C1529 C 0.58547 0.86814 0.40451 0.0
C1530 C 0.59658 0.84127 0.41539 0.0
H1531 H 0.55282 0.88945 0.37766 0.0
H1532 H 0.59551 0.88893 0.41074 0.0
C1533 C 0.58316 0.81475 0.40674 0.0
C1534 C 0.18277 0.58436 0.4047 0.0
C1535 C 0.15625 0.59794 0.41294 0.0
H1536 H 0.20339 0.54922 0.38097 0.0
C1537 C 0.12953 0.58655 0.4021 0.0
H1538 H 0.20368 0.59265 0.41269 0.0
C1539 C 0.12936 0.56179 0.3836 0.0
C1540 C 0.15589 0.54782 0.37599 0.0
H1541 H 0.10874 0.59667 0.40804 0.0
H1542 H 0.10849 0.55324 0.37579 0.0
C1543 C 0.18257 0.55946 0.38657 0.0
C1544 C 0.43074 0.12725 0.38311 0.0
C1545 C 0.44304 0.15373 0.37278 0.0
H1546 H 0.39796 0.10712 0.41058 0.0
C1547 C 0.43027 0.1807 0.38129 0.0
H1548 H 0.44021 0.10617 0.37697 0.0
C1549 C 0.40614 0.18127 0.40032 0.0
C1550 C 0.39442 0.15488 0.41147 0.0
H1551 H 0.43923 0.20149 0.37359 0.0
H1552 H 0.39708 0.20243 0.40679 0.0
C1553 C 0.40669 0.12783 0.40244 0.0
C1554 C 0.12898 0.43429 0.61457 0.0
C1555 C 0.1554 0.44843 0.62226 0.0
H1556 H 0.10867 0.3992 0.59016 0.0
C1557 C 0.1822 0.43683 0.61194 0.0
H1558 H 0.10803 0.4428 0.6222 0.0
C1559 C 0.18261 0.41183 0.59394 0.0
C1560 C 0.15621 0.39811 0.58558 0.0
H1561 H 0.20294 0.44719 0.61761 0.0
H1562 H 0.20361 0.40361 0.58612 0.0
C1563 C 0.12937 0.40942 0.5962 0.0
C1564 C 0.58768 0.12745 0.59293 0.0
C1565 C 0.60003 0.15443 0.58375 0.0
H1566 H 0.55407 0.10605 0.61849 0.0
C1567 C 0.58835 0.18091 0.59471 0.0
H1568 H 0.59637 0.10667 0.58492 0.0
C1569 C 0.56421 0.18053 0.61372 0.0
C1570 C 0.55137 0.15364 0.62238 0.0
H1571 H 0.59747 0.20201 0.58812 0.0
H1572 H 0.5553 0.20139 0.62128 0.0
C1573 C 0.5636 0.12706 0.61222 0.0
C1574 C 0.43017 0.86941 0.61151 0.0
C1575 C 0.44244 0.84274 0.62139 0.0
H1576 H 0.39739 0.89004 0.5844 0.0
C1577 C 0.42981 0.81593 0.61223 0.0
H1578 H 0.43954 0.89037 0.61817 0.0
C1579 C 0.40572 0.81571 0.59314 0.0
C1580 C 0.39392 0.84229 0.58256 0.0
H1581 H 0.43877 0.795 0.61956 0.0
H1582 H 0.39668 0.79466 0.58626 0.0
C1583 C 0.40618 0.86918 0.5921 0.0
loop_
_geom_bond_atom_site_label_1
_geom_bond_atom_site_label_2
_geom_bond_distance
_geom_bond_site_symmetry_2
_ccdc_geom_bond_type
In0 O1 2.294 . S
In0 O2 2.326 . S
In0 O6 2.266 . S
In0 O7 2.326 . S
In0 O8 2.266 1_455 S
In0 O9 2.326 1_455 S
In0 O11 2.294 . S
In0 O12 2.326 . S
O1 In0 2.294 . S
O1 C10 1.240 . S
O2 In0 2.326 . S
O2 C10 1.252 . S
C3 O6 1.252 . S
C3 O7 1.260 . S
C4 O11 1.240 . S
C4 O12 1.252 . S
C5 O8 1.252 . S
C5 O9 1.260 . S
O6 In0 2.266 . S
O6 C3 1.252 . S
O7 In0 2.326 . S
O7 C3 1.260 . S
O8 In0 2.266 1_655 S
O8 C5 1.252 . S
O9 In0 2.326 1_655 S
O9 C5 1.260 . S
C10 O1 1.240 . S
C10 O2 1.252 . S
O11 In0 2.294 . S
O11 C4 1.240 . S
O12 In0 2.326 . S
O12 C4 1.252 . S
In13 O14 2.294 . S
In13 O15 2.326 . S
In13 O19 2.266 1_545 S
In13 O20 2.326 1_545 S
In13 O21 2.266 . S
In13 O22 2.326 . S
In13 O24 2.294 . S
In13 O25 2.326 . S
O14 In13 2.294 . S
O14 C23 1.240 . S
O15 In13 2.326 . S
O15 C23 1.252 . S
C16 O19 1.252 . S
C16 O20 1.260 . S
C17 O24 1.240 . S
C17 O25 1.252 . S
C18 O21 1.252 . S
C18 O22 1.260 . S
O19 In13 2.266 1_565 S
O19 C16 1.252 . S
O20 In13 2.326 1_565 S
O20 C16 1.260 . S
O21 In13 2.266 . S
O21 C18 1.252 . S
O22 In13 2.326 . S
O22 C18 1.260 . S
C23 O14 1.240 . S
C23 O15 1.252 . S
O24 In13 2.294 . S
O24 C17 1.240 . S
O25 In13 2.326 . S
O25 C17 1.252 . S
In26 O27 2.294 . S
In26 O28 2.326 . S
In26 O32 2.266 . S
In26 O33 2.326 . S
In26 O34 2.266 1_655 S
In26 O35 2.326 1_655 S
In26 O37 2.294 . S
In26 O38 2.326 . S
O27 In26 2.294 . S
O27 C36 1.240 . S
O28 In26 2.326 . S
O28 C36 1.252 . S
C29 O32 1.252 . S
C29 O33 1.260 . S
C30 O37 1.240 . S
C30 O38 1.252 . S
C31 O34 1.252 . S
C31 O35 1.260 . S
O32 In26 2.266 . S
O32 C29 1.252 . S
O33 In26 2.326 . S
O33 C29 1.260 . S
O34 In26 2.266 1_455 S
O34 C31 1.252 . S
O35 In26 2.326 1_455 S
O35 C31 1.260 . S
C36 O27 1.240 . S
C36 O28 1.252 . S
O37 In26 2.294 . S
O37 C30 1.240 . S
O38 In26 2.326 . S
O38 C30 1.252 . S
In39 O40 2.294 . S
In39 O41 2.326 . S
In39 O45 2.266 1_565 S
In39 O46 2.326 1_565 S
In39 O47 2.266 . S
In39 O48 2.326 . S
In39 O50 2.294 . S
In39 O51 2.326 . S
O40 In39 2.294 . S
O40 C49 1.240 . S
O41 In39 2.326 . S
O41 C49 1.252 . S
C42 O45 1.252 . S
C42 O46 1.260 . S
C43 O50 1.240 . S
C43 O51 1.252 . S
C44 O47 1.252 . S
C44 O48 1.260 . S
O45 In39 2.266 1_545 S
O45 C42 1.252 . S
O46 In39 2.326 1_545 S
O46 C42 1.260 . S
O47 In39 2.266 . S
O47 C44 1.252 . S
O48 In39 2.326 . S
O48 C44 1.260 . S
C49 O40 1.240 . S
C49 O41 1.252 . S
O50 In39 2.294 . S
O50 C43 1.240 . S
O51 In39 2.326 . S
O51 C43 1.252 . S
In52 O53 2.294 . S
In52 O54 2.326 . S
In52 O58 2.266 1_455 S
In52 O59 2.326 1_455 S
In52 O60 2.266 . S
In52 O61 2.326 . S
In52 O63 2.294 . S
In52 O64 2.326 . S
O53 In52 2.294 . S
O53 C62 1.240 . S
O54 In52 2.326 . S
O54 C62 1.252 . S
C55 O58 1.252 . S
C55 O59 1.260 . S
C56 O63 1.240 . S
C56 O64 1.252 . S
C57 O60 1.252 . S
C57 O61 1.260 . S
O58 In52 2.266 1_655 S
O58 C55 1.252 . S
O59 In52 2.326 1_655 S
O59 C55 1.260 . S
O60 In52 2.266 . S
O60 C57 1.252 . S
O61 In52 2.326 . S
O61 C57 1.260 . S
C62 O53 1.240 . S
C62 O54 1.252 . S
O63 In52 2.294 . S
O63 C56 1.240 . S
O64 In52 2.326 . S
O64 C56 1.252 . S
In65 O66 2.294 . S
In65 O67 2.326 . S
In65 O71 2.266 . S
In65 O72 2.326 . S
In65 O73 2.266 1_545 S
In65 O74 2.326 1_545 S
In65 O76 2.294 . S
In65 O77 2.326 . S
O66 In65 2.294 . S
O66 C75 1.240 . S
O67 In65 2.326 . S
O67 C75 1.252 . S
C68 O71 1.252 . S
C68 O72 1.260 . S
C69 O76 1.240 . S
C69 O77 1.252 . S
C70 O73 1.252 . S
C70 O74 1.260 . S
O71 In65 2.266 . S
O71 C68 1.252 . S
O72 In65 2.326 . S
O72 C68 1.260 . S
O73 In65 2.266 1_565 S
O73 C70 1.252 . S
O74 In65 2.326 1_565 S
O74 C70 1.260 . S
C75 O66 1.240 . S
C75 O67 1.252 . S
O76 In65 2.294 . S
O76 C69 1.240 . S
O77 In65 2.326 . S
O77 C69 1.252 . S
In78 O79 2.294 . S
In78 O80 2.326 . S
In78 O84 2.266 . S
In78 O85 2.326 . S
In78 O86 2.266 1_655 S
In78 O87 2.326 1_655 S
In78 O89 2.294 . S
In78 O90 2.326 . S
O79 In78 2.294 . S
O79 C88 1.240 . S
O80 In78 2.326 . S
O80 C88 1.252 . S
C81 O84 1.252 . S
C81 O85 1.260 . S
C82 O89 1.240 . S
C82 O90 1.252 . S
C83 O86 1.252 . S
C83 O87 1.260 . S
O84 In78 2.266 . S
O84 C81 1.252 . S
O85 In78 2.326 . S
O85 C81 1.260 . S
O86 In78 2.266 1_455 S
O86 C83 1.252 . S
O87 In78 2.326 1_455 S
O87 C83 1.260 . S
C88 O79 1.240 . S
C88 O80 1.252 . S
O89 In78 2.294 . S
O89 C82 1.240 . S
O90 In78 2.326 . S
O90 C82 1.252 . S
In91 O92 2.294 . S
In91 O93 2.326 . S
In91 O97 2.266 . S
In91 O98 2.326 . S
In91 O99 2.266 1_565 S
In91 O100 2.326 1_565 S
In91 O102 2.294 . S
In91 O103 2.326 . S
O92 In91 2.294 . S
O92 C101 1.240 . S
O93 In91 2.326 . S
O93 C101 1.252 . S
C94 O97 1.252 . S
C94 O98 1.260 . S
C95 O102 1.240 . S
C95 O103 1.252 . S
C96 O99 1.252 . S
C96 O100 1.260 . S
O97 In91 2.266 . S
O97 C94 1.252 . S
O98 In91 2.326 . S
O98 C94 1.260 . S
O99 In91 2.266 1_545 S
O99 C96 1.252 . S
O100 In91 2.326 1_545 S
O100 C96 1.260 . S
C101 O92 1.240 . S
C101 O93 1.252 . S
O102 In91 2.294 . S
O102 C95 1.240 . S
O103 In91 2.326 . S
O103 C95 1.252 . S
In104 O105 2.294 . S
In104 O106 2.326 . S
In104 O110 2.266 1_545 S
In104 O111 2.326 1_545 S
In104 O112 2.266 . S
In104 O113 2.326 . S
In104 O115 2.294 . S
In104 O116 2.326 . S
O105 In104 2.294 . S
O105 C114 1.240 . S
O106 In104 2.326 . S
O106 C114 1.252 . S
C107 O110 1.252 . S
C107 O111 1.260 . S
C108 O115 1.240 . S
C108 O116 1.252 . S
C109 O112 1.252 . S
C109 O113 1.260 . S
O110 In104 2.266 1_565 S
O110 C107 1.252 . S
O111 In104 2.326 1_565 S
O111 C107 1.260 . S
O112 In104 2.266 . S
O112 C109 1.252 . S
O113 In104 2.326 . S
O113 C109 1.260 . S
C114 O105 1.240 . S
C114 O106 1.252 . S
O115 In104 2.294 . S
O115 C108 1.240 . S
O116 In104 2.326 . S
O116 C108 1.252 . S
In117 O118 2.294 . S
In117 O119 2.326 . S
In117 O123 2.266 . S
In117 O124 2.326 . S
In117 O125 2.266 1_655 S
In117 O126 2.326 1_655 S
In117 O128 2.294 . S
In117 O129 2.326 . S
O118 In117 2.294 . S
O118 C127 1.240 . S
O119 In117 2.326 . S
O119 C127 1.252 . S
C120 O123 1.252 . S
C120 O124 1.260 . S
C121 O128 1.240 . S
C121 O129 1.252 . S
C122 O125 1.252 . S
C122 O126 1.260 . S
O123 In117 2.266 . S
O123 C120 1.252 . S
O124 In117 2.326 . S
O124 C120 1.260 . S
O125 In117 2.266 1_455 S
O125 C122 1.252 . S
O126 In117 2.326 1_455 S
O126 C122 1.260 . S
C127 O118 1.240 . S
C127 O119 1.252 . S
O128 In117 2.294 . S
O128 C121 1.240 . S
O129 In117 2.326 . S
O129 C121 1.252 . S
In130 O131 2.294 . S
In130 O132 2.326 . S
In130 O136 2.266 1_565 S
In130 O137 2.326 1_565 S
In130 O138 2.266 . S
In130 O139 2.326 . S
In130 O141 2.294 . S
In130 O142 2.326 . S
O131 In130 2.294 . S
O131 C140 1.240 . S
O132 In130 2.326 . S
O132 C140 1.252 . S
C133 O136 1.252 . S
C133 O137 1.260 . S
C134 O141 1.240 . S
C134 O142 1.252 . S
C135 O138 1.252 . S
C135 O139 1.260 . S
O136 In130 2.266 1_545 S
O136 C133 1.252 . S
O137 In130 2.326 1_545 S
O137 C133 1.260 . S
O138 In130 2.266 . S
O138 C135 1.252 . S
O139 In130 2.326 . S
O139 C135 1.260 . S
C140 O131 1.240 . S
C140 O132 1.252 . S
O141 In130 2.294 . S
O141 C134 1.240 . S
O142 In130 2.326 . S
O142 C134 1.252 . S
In143 O144 2.294 . S
In143 O145 2.326 . S
In143 O149 2.266 . S
In143 O150 2.326 . S
In143 O151 2.266 1_455 S
In143 O152 2.326 1_455 S
In143 O154 2.294 . S
In143 O155 2.326 . S
O144 In143 2.294 . S
O144 C153 1.240 . S
O145 In143 2.326 . S
O145 C153 1.252 . S
C146 O149 1.252 . S
C146 O150 1.260 . S
C147 O154 1.240 . S
C147 O155 1.252 . S
C148 O151 1.252 . S
C148 O152 1.260 . S
O149 In143 2.266 . S
O149 C146 1.252 . S
O150 In143 2.326 . S
O150 C146 1.260 . S
O151 In143 2.266 1_655 S
O151 C148 1.252 . S
O152 In143 2.326 1_655 S
O152 C148 1.260 . S
C153 O144 1.240 . S
C153 O145 1.252 . S
O154 In143 2.294 . S
O154 C147 1.240 . S
O155 In143 2.326 . S
O155 C147 1.252 . S
In156 O157 2.294 . S
In156 O158 2.326 . S
In156 O162 2.266 . S
In156 O163 2.326 . S
In156 O164 2.266 1_565 S
In156 O165 2.326 1_565 S
In156 O167 2.294 . S
In156 O168 2.326 . S
O157 In156 2.294 . S
O157 C166 1.240 . S
O158 In156 2.326 . S
O158 C166 1.252 . S
C159 O162 1.252 . S
C159 O163 1.260 . S
C160 O167 1.240 . S
C160 O168 1.252 . S
C161 O164 1.252 . S
C161 O165 1.260 . S
O162 In156 2.266 . S
O162 C159 1.252 . S
O163 In156 2.326 . S
O163 C159 1.260 . S
O164 In156 2.266 1_545 S
O164 C161 1.252 . S
O165 In156 2.326 1_545 S
O165 C161 1.260 . S
C166 O157 1.240 . S
C166 O158 1.252 . S
O167 In156 2.294 . S
O167 C160 1.240 . S
O168 In156 2.326 . S
O168 C160 1.252 . S
In169 O170 2.294 . S
In169 O171 2.326 . S
In169 O175 2.266 1_455 S
In169 O176 2.326 1_455 S
In169 O177 2.266 . S
In169 O178 2.326 . S
In169 O180 2.294 . S
In169 O181 2.326 . S
O170 In169 2.294 . S
O170 C179 1.240 . S
O171 In169 2.326 . S
O171 C179 1.252 . S
C172 O175 1.252 . S
C172 O176 1.260 . S
C173 O180 1.240 . S
C173 O181 1.252 . S
C174 O177 1.252 . S
C174 O178 1.260 . S
O175 In169 2.266 1_655 S
O175 C172 1.252 . S
O176 In169 2.326 1_655 S
O176 C172 1.260 . S
O177 In169 2.266 . S
O177 C174 1.252 . S
O178 In169 2.326 . S
O178 C174 1.260 . S
C179 O170 1.240 . S
C179 O171 1.252 . S
O180 In169 2.294 . S
O180 C173 1.240 . S
O181 In169 2.326 . S
O181 C173 1.252 . S
In182 O183 2.294 . S
In182 O184 2.326 . S
In182 O188 2.266 1_545 S
In182 O189 2.326 1_545 S
In182 O190 2.266 . S
In182 O191 2.326 . S
In182 O193 2.294 . S
In182 O194 2.326 . S
O183 In182 2.294 . S
O183 C192 1.240 . S
O184 In182 2.326 . S
O184 C192 1.252 . S
C185 O188 1.252 . S
C185 O189 1.260 . S
C186 O193 1.240 . S
C186 O194 1.252 . S
C187 O190 1.252 . S
C187 O191 1.260 . S
O188 In182 2.266 1_565 S
O188 C185 1.252 . S
O189 In182 2.326 1_565 S
O189 C185 1.260 . S
O190 In182 2.266 . S
O190 C187 1.252 . S
O191 In182 2.326 . S
O191 C187 1.260 . S
C192 O183 1.240 . S
C192 O184 1.252 . S
O193 In182 2.294 . S
O193 C186 1.240 . S
O194 In182 2.326 . S
O194 C186 1.252 . S
In195 O196 2.294 . S
In195 O197 2.326 . S
In195 O201 2.266 . S
In195 O202 2.326 . S
In195 O203 2.266 1_655 S
In195 O204 2.326 1_655 S
In195 O206 2.294 . S
In195 O207 2.326 . S
O196 In195 2.294 . S
O196 C205 1.240 . S
O197 In195 2.326 . S
O197 C205 1.252 . S
C198 O201 1.252 . S
C198 O202 1.260 . S
C199 O206 1.240 . S
C199 O207 1.252 . S
C200 O203 1.252 . S
C200 O204 1.260 . S
O201 In195 2.266 . S
O201 C198 1.252 . S
O202 In195 2.326 . S
O202 C198 1.260 . S
O203 In195 2.266 1_455 S
O203 C200 1.252 . S
O204 In195 2.326 1_455 S
O204 C200 1.260 . S
C205 O196 1.240 . S
C205 O197 1.252 . S
O206 In195 2.294 . S
O206 C199 1.240 . S
O207 In195 2.326 . S
O207 C199 1.252 . S
In208 O209 2.294 . S
In208 O210 2.326 . S
In208 O214 2.266 . S
In208 O215 2.326 . S
In208 O216 2.266 1_554 S
In208 O217 2.326 1_554 S
In208 O219 2.294 . S
In208 O220 2.326 . S
O209 In208 2.294 . S
O209 C218 1.240 . S
O210 In208 2.326 . S
O210 C218 1.252 . S
C211 O214 1.252 . S
C211 O215 1.260 . S
C212 O219 1.240 . S
C212 O220 1.252 . S
C213 O216 1.252 . S
C213 O217 1.260 . S
O214 In208 2.266 . S
O214 C211 1.252 . S
O215 In208 2.326 . S
O215 C211 1.260 . S
O216 In208 2.266 1_556 S
O216 C213 1.252 . S
O217 In208 2.326 1_556 S
O217 C213 1.260 . S
C218 O209 1.240 . S
C218 O210 1.252 . S
O219 In208 2.294 . S
O219 C212 1.240 . S
O220 In208 2.326 . S
O220 C212 1.252 . S
In221 O222 2.294 . S
In221 O223 2.326 . S
In221 O227 2.266 . S
In221 O228 2.326 . S
In221 O229 2.266 1_556 S
In221 O230 2.326 1_556 S
In221 O232 2.294 . S
In221 O233 2.326 . S
O222 In221 2.294 . S
O222 C231 1.240 . S
O223 In221 2.326 . S
O223 C231 1.252 . S
C224 O227 1.252 . S
C224 O228 1.260 . S
C225 O232 1.240 . S
C225 O233 1.252 . S
C226 O229 1.252 . S
C226 O230 1.260 . S
O227 In221 2.266 . S
O227 C224 1.252 . S
O228 In221 2.326 . S
O228 C224 1.260 . S
O229 In221 2.266 1_554 S
O229 C226 1.252 . S
O230 In221 2.326 1_554 S
O230 C226 1.260 . S
C231 O222 1.240 . S
C231 O223 1.252 . S
O232 In221 2.294 . S
O232 C225 1.240 . S
O233 In221 2.326 . S
O233 C225 1.252 . S
In234 O235 2.294 . S
In234 O236 2.326 . S
In234 O240 2.266 . S
In234 O241 2.326 . S
In234 O242 2.266 1_556 S
In234 O243 2.326 1_556 S
In234 O245 2.294 . S
In234 O246 2.326 . S
O235 In234 2.294 . S
O235 C244 1.240 . S
O236 In234 2.326 . S
O236 C244 1.252 . S
C237 O240 1.252 . S
C237 O241 1.260 . S
C238 O245 1.240 . S
C238 O246 1.252 . S
C239 O242 1.252 . S
C239 O243 1.260 . S
O240 In234 2.266 . S
O240 C237 1.252 . S
O241 In234 2.326 . S
O241 C237 1.260 . S
O242 In234 2.266 1_554 S
O242 C239 1.252 . S
O243 In234 2.326 1_554 S
O243 C239 1.260 . S
C244 O235 1.240 . S
C244 O236 1.252 . S
O245 In234 2.294 . S
O245 C238 1.240 . S
O246 In234 2.326 . S
O246 C238 1.252 . S
In247 O248 2.294 . S
In247 O249 2.326 . S
In247 O253 2.266 1_556 S
In247 O254 2.326 1_556 S
In247 O255 2.266 . S
In247 O256 2.326 . S
In247 O258 2.294 . S
In247 O259 2.326 . S
O248 In247 2.294 . S
O248 C257 1.240 . S
O249 In247 2.326 . S
O249 C257 1.252 . S
C250 O253 1.252 . S
C250 O254 1.260 . S
C251 O258 1.240 . S
C251 O259 1.252 . S
C252 O255 1.252 . S
C252 O256 1.260 . S
O253 In247 2.266 1_554 S
O253 C250 1.252 . S
O254 In247 2.326 1_554 S
O254 C250 1.260 . S
O255 In247 2.266 . S
O255 C252 1.252 . S
O256 In247 2.326 . S
O256 C252 1.260 . S
C257 O248 1.240 . S
C257 O249 1.252 . S
O258 In247 2.294 . S
O258 C251 1.240 . S
O259 In247 2.326 . S
O259 C251 1.252 . S
In260 O261 2.294 . S
In260 O262 2.326 . S
In260 O266 2.266 1_556 S
In260 O267 2.326 1_556 S
In260 O268 2.266 . S
In260 O269 2.326 . S
In260 O271 2.294 . S
In260 O272 2.326 . S
O261 In260 2.294 . S
O261 C270 1.240 . S
O262 In260 2.326 . S
O262 C270 1.252 . S
C263 O266 1.252 . S
C263 O267 1.260 . S
C264 O271 1.240 . S
C264 O272 1.252 . S
C265 O268 1.252 . S
C265 O269 1.260 . S
O266 In260 2.266 1_554 S
O266 C263 1.252 . S
O267 In260 2.326 1_554 S
O267 C263 1.260 . S
O268 In260 2.266 . S
O268 C265 1.252 . S
O269 In260 2.326 . S
O269 C265 1.260 . S
C270 O261 1.240 . S
C270 O262 1.252 . S
O271 In260 2.294 . S
O271 C264 1.240 . S
O272 In260 2.326 . S
O272 C264 1.252 . S
In273 O274 2.294 . S
In273 O275 2.326 . S
In273 O279 2.266 . S
In273 O280 2.326 . S
In273 O281 2.266 1_554 S
In273 O282 2.326 1_554 S
In273 O284 2.294 . S
In273 O285 2.326 . S
O274 In273 2.294 . S
O274 C283 1.240 . S
O275 In273 2.326 . S
O275 C283 1.252 . S
C276 O279 1.252 . S
C276 O280 1.260 . S
C277 O284 1.240 . S
C277 O285 1.252 . S
C278 O281 1.252 . S
C278 O282 1.260 . S
O279 In273 2.266 . S
O279 C276 1.252 . S
O280 In273 2.326 . S
O280 C276 1.260 . S
O281 In273 2.266 1_556 S
O281 C278 1.252 . S
O282 In273 2.326 1_556 S
O282 C278 1.260 . S
C283 O274 1.240 . S
C283 O275 1.252 . S
O284 In273 2.294 . S
O284 C277 1.240 . S
O285 In273 2.326 . S
O285 C277 1.252 . S
In286 O287 2.294 . S
In286 O288 2.326 . S
In286 O292 2.266 1_554 S
In286 O293 2.326 1_554 S
In286 O294 2.266 . S
In286 O295 2.326 . S
In286 O297 2.294 . S
In286 O298 2.326 . S
O287 In286 2.294 . S
O287 C296 1.240 . S
O288 In286 2.326 . S
O288 C296 1.252 . S
C289 O292 1.252 . S
C289 O293 1.260 . S
C290 O297 1.240 . S
C290 O298 1.252 . S
C291 O294 1.252 . S
C291 O295 1.260 . S
O292 In286 2.266 1_556 S
O292 C289 1.252 . S
O293 In286 2.326 1_556 S
O293 C289 1.260 . S
O294 In286 2.266 . S
O294 C291 1.252 . S
O295 In286 2.326 . S
O295 C291 1.260 . S
C296 O287 1.240 . S
C296 O288 1.252 . S
O297 In286 2.294 . S
O297 C290 1.240 . S
O298 In286 2.326 . S
O298 C290 1.252 . S
In299 O300 2.294 . S
In299 O301 2.326 . S
In299 O305 2.266 . S
In299 O306 2.326 . S
In299 O307 2.266 1_554 S
In299 O308 2.326 1_554 S
In299 O310 2.294 . S
In299 O311 2.326 . S
O300 In299 2.294 . S
O300 C309 1.240 . S
O301 In299 2.326 . S
O301 C309 1.252 . S
C302 O305 1.252 . S
C302 O306 1.260 . S
C303 O310 1.240 . S
C303 O311 1.252 . S
C304 O307 1.252 . S
C304 O308 1.260 . S
O305 In299 2.266 . S
O305 C302 1.252 . S
O306 In299 2.326 . S
O306 C302 1.260 . S
O307 In299 2.266 1_556 S
O307 C304 1.252 . S
O308 In299 2.326 1_556 S
O308 C304 1.260 . S
C309 O300 1.240 . S
C309 O301 1.252 . S
O310 In299 2.294 . S
O310 C303 1.240 . S
O311 In299 2.326 . S
O311 C303 1.252 . S
In312 O313 2.294 . S
In312 O314 2.326 . S
In312 O318 2.266 . S
In312 O319 2.326 . S
In312 O320 2.266 . S
In312 O321 2.326 . S
In312 O323 2.294 . S
In312 O324 2.326 . S
O313 In312 2.294 . S
O313 C322 1.240 . S
O314 In312 2.326 . S
O314 C322 1.252 . S
C315 O318 1.252 . S
C315 O319 1.260 . S
C316 O323 1.240 . S
C316 O324 1.252 . S
C317 O320 1.252 . S
C317 O321 1.260 . S
O318 In312 2.266 . S
O318 C315 1.252 . S
O319 In312 2.326 . S
O319 C315 1.260 . S
O320 In312 2.266 . S
O320 C317 1.252 . S
O321 In312 2.326 . S
O321 C317 1.260 . S
C322 O313 1.240 . S
C322 O314 1.252 . S
O323 In312 2.294 . S
O323 C316 1.240 . S
O324 In312 2.326 . S
O324 C316 1.252 . S
In325 O326 2.294 . S
In325 O327 2.326 . S
In325 O331 2.266 . S
In325 O332 2.326 . S
In325 O333 2.266 . S
In325 O334 2.326 . S
In325 O336 2.294 . S
In325 O337 2.326 . S
O326 In325 2.294 . S
O326 C335 1.240 . S
O327 In325 2.326 . S
O327 C335 1.252 . S
C328 O331 1.252 . S
C328 O332 1.260 . S
C329 O336 1.240 . S
C329 O337 1.252 . S
C330 O333 1.252 . S
C330 O334 1.260 . S
O331 In325 2.266 . S
O331 C328 1.252 . S
O332 In325 2.326 . S
O332 C328 1.260 . S
O333 In325 2.266 . S
O333 C330 1.252 . S
O334 In325 2.326 . S
O334 C330 1.260 . S
C335 O326 1.240 . S
C335 O327 1.252 . S
O336 In325 2.294 . S
O336 C329 1.240 . S
O337 In325 2.326 . S
O337 C329 1.252 . S
In338 O339 2.294 . S
In338 O340 2.326 . S
In338 O344 2.266 . S
In338 O345 2.326 . S
In338 O346 2.266 . S
In338 O347 2.326 . S
In338 O349 2.294 . S
In338 O350 2.326 . S
O339 In338 2.294 . S
O339 C348 1.240 . S
O340 In338 2.326 . S
O340 C348 1.252 . S
C341 O344 1.252 . S
C341 O345 1.260 . S
C342 O349 1.240 . S
C342 O350 1.252 . S
C343 O346 1.252 . S
C343 O347 1.260 . S
O344 In338 2.266 . S
O344 C341 1.252 . S
O345 In338 2.326 . S
O345 C341 1.260 . S
O346 In338 2.266 . S
O346 C343 1.252 . S
O347 In338 2.326 . S
O347 C343 1.260 . S
C348 O339 1.240 . S
C348 O340 1.252 . S
O349 In338 2.294 . S
O349 C342 1.240 . S
O350 In338 2.326 . S
O350 C342 1.252 . S
In351 O352 2.294 . S
In351 O353 2.326 . S
In351 O357 2.266 . S
In351 O358 2.326 . S
In351 O359 2.266 . S
In351 O360 2.326 . S
In351 O362 2.294 . S
In351 O363 2.326 . S
O352 In351 2.294 . S
O352 C361 1.240 . S
O353 In351 2.326 . S
O353 C361 1.252 . S
C354 O357 1.252 . S
C354 O358 1.260 . S
C355 O362 1.240 . S
C355 O363 1.252 . S
C356 O359 1.252 . S
C356 O360 1.260 . S
O357 In351 2.266 . S
O357 C354 1.252 . S
O358 In351 2.326 . S
O358 C354 1.260 . S
O359 In351 2.266 . S
O359 C356 1.252 . S
O360 In351 2.326 . S
O360 C356 1.260 . S
C361 O352 1.240 . S
C361 O353 1.252 . S
O362 In351 2.294 . S
O362 C355 1.240 . S
O363 In351 2.326 . S
O363 C355 1.252 . S
In364 O365 2.294 . S
In364 O366 2.326 . S
In364 O370 2.266 . S
In364 O371 2.326 . S
In364 O372 2.266 . S
In364 O373 2.326 . S
In364 O375 2.294 . S
In364 O376 2.326 . S
O365 In364 2.294 . S
O365 C374 1.240 . S
O366 In364 2.326 . S
O366 C374 1.252 . S
C367 O370 1.252 . S
C367 O371 1.260 . S
C368 O375 1.240 . S
C368 O376 1.252 . S
C369 O372 1.252 . S
C369 O373 1.260 . S
O370 In364 2.266 . S
O370 C367 1.252 . S
O371 In364 2.326 . S
O371 C367 1.260 . S
O372 In364 2.266 . S
O372 C369 1.252 . S
O373 In364 2.326 . S
O373 C369 1.260 . S
C374 O365 1.240 . S
C374 O366 1.252 . S
O375 In364 2.294 . S
O375 C368 1.240 . S
O376 In364 2.326 . S
O376 C368 1.252 . S
In377 O378 2.294 . S
In377 O379 2.326 . S
In377 O383 2.266 . S
In377 O384 2.326 . S
In377 O385 2.266 . S
In377 O386 2.326 . S
In377 O388 2.294 . S
In377 O389 2.326 . S
O378 In377 2.294 . S
O378 C387 1.240 . S
O379 In377 2.326 . S
O379 C387 1.252 . S
C380 O383 1.252 . S
C380 O384 1.260 . S
C381 O388 1.240 . S
C381 O389 1.252 . S
C382 O385 1.252 . S
C382 O386 1.260 . S
O383 In377 2.266 . S
O383 C380 1.252 . S
O384 In377 2.326 . S
O384 C380 1.260 . S
O385 In377 2.266 . S
O385 C382 1.252 . S
O386 In377 2.326 . S
O386 C382 1.260 . S
C387 O378 1.240 . S
C387 O379 1.252 . S
O388 In377 2.294 . S
O388 C381 1.240 . S
O389 In377 2.326 . S
O389 C381 1.252 . S
In390 O391 2.294 . S
In390 O392 2.326 . S
In390 O396 2.266 . S
In390 O397 2.326 . S
In390 O398 2.266 . S
In390 O399 2.326 . S
In390 O401 2.294 . S
In390 O402 2.326 . S
O391 In390 2.294 . S
O391 C400 1.240 . S
O392 In390 2.326 . S
O392 C400 1.252 . S
C393 O396 1.252 . S
C393 O397 1.260 . S
C394 O401 1.240 . S
C394 O402 1.252 . S
C395 O398 1.252 . S
C395 O399 1.260 . S
O396 In390 2.266 . S
O396 C393 1.252 . S
O397 In390 2.326 . S
O397 C393 1.260 . S
O398 In390 2.266 . S
O398 C395 1.252 . S
O399 In390 2.326 . S
O399 C395 1.260 . S
C400 O391 1.240 . S
C400 O392 1.252 . S
O401 In390 2.294 . S
O401 C394 1.240 . S
O402 In390 2.326 . S
O402 C394 1.252 . S
In403 O404 2.294 . S
In403 O405 2.326 . S
In403 O409 2.266 . S
In403 O410 2.326 . S
In403 O411 2.266 . S
In403 O412 2.326 . S
In403 O414 2.294 . S
In403 O415 2.326 . S
O404 In403 2.294 . S
O404 C413 1.240 . S
O405 In403 2.326 . S
O405 C413 1.252 . S
C406 O409 1.252 . S
C406 O410 1.260 . S
C407 O414 1.240 . S
C407 O415 1.252 . S
C408 O411 1.252 . S
C408 O412 1.260 . S
O409 In403 2.266 . S
O409 C406 1.252 . S
O410 In403 2.326 . S
O410 C406 1.260 . S
O411 In403 2.266 . S
O411 C408 1.252 . S
O412 In403 2.326 . S
O412 C408 1.260 . S
C413 O404 1.240 . S
C413 O405 1.252 . S
O414 In403 2.294 . S
O414 C407 1.240 . S
O415 In403 2.326 . S
O415 C407 1.252 . S
In416 O417 2.294 . S
In416 O418 2.326 . S
In416 O422 2.266 . S
In416 O423 2.326 . S
In416 O424 2.266 . S
In416 O425 2.326 . S
In416 O427 2.294 . S
In416 O428 2.326 . S
O417 In416 2.294 . S
O417 C426 1.240 . S
O418 In416 2.326 . S
O418 C426 1.252 . S
C419 O422 1.252 . S
C419 O423 1.260 . S
C420 O427 1.240 . S
C420 O428 1.252 . S
C421 O424 1.252 . S
C421 O425 1.260 . S
O422 In416 2.266 . S
O422 C419 1.252 . S
O423 In416 2.326 . S
O423 C419 1.260 . S
O424 In416 2.266 . S
O424 C421 1.252 . S
O425 In416 2.326 . S
O425 C421 1.260 . S
C426 O417 1.240 . S
C426 O418 1.252 . S
O427 In416 2.294 . S
O427 C420 1.240 . S
O428 In416 2.326 . S
O428 C420 1.252 . S
In429 O430 2.294 . S
In429 O431 2.326 . S
In429 O435 2.266 . S
In429 O436 2.326 . S
In429 O437 2.266 . S
In429 O438 2.326 . S
In429 O440 2.294 . S
In429 O441 2.326 . S
O430 In429 2.294 . S
O430 C439 1.240 . S
O431 In429 2.326 . S
O431 C439 1.252 . S
C432 O435 1.252 . S
C432 O436 1.260 . S
C433 O440 1.240 . S
C433 O441 1.252 . S
C434 O437 1.252 . S
C434 O438 1.260 . S
O435 In429 2.266 . S
O435 C432 1.252 . S
O436 In429 2.326 . S
O436 C432 1.260 . S
O437 In429 2.266 . S
O437 C434 1.252 . S
O438 In429 2.326 . S
O438 C434 1.260 . S
C439 O430 1.240 . S
C439 O431 1.252 . S
O440 In429 2.294 . S
O440 C433 1.240 . S
O441 In429 2.326 . S
O441 C433 1.252 . S
In442 O443 2.294 . S
In442 O444 2.326 . S
In442 O448 2.266 . S
In442 O449 2.326 . S
In442 O450 2.266 . S
In442 O451 2.326 . S
In442 O453 2.294 . S
In442 O454 2.326 . S
O443 In442 2.294 . S
O443 C452 1.240 . S
O444 In442 2.326 . S
O444 C452 1.252 . S
C445 O448 1.252 . S
C445 O449 1.260 . S
C446 O453 1.240 . S
C446 O454 1.252 . S
C447 O450 1.252 . S
C447 O451 1.260 . S
O448 In442 2.266 . S
O448 C445 1.252 . S
O449 In442 2.326 . S
O449 C445 1.260 . S
O450 In442 2.266 . S
O450 C447 1.252 . S
O451 In442 2.326 . S
O451 C447 1.260 . S
C452 O443 1.240 . S
C452 O444 1.252 . S
O453 In442 2.294 . S
O453 C446 1.240 . S
O454 In442 2.326 . S
O454 C446 1.252 . S
In455 O456 2.294 . S
In455 O457 2.326 . S
In455 O461 2.266 . S
In455 O462 2.326 . S
In455 O463 2.266 . S
In455 O464 2.326 . S
In455 O466 2.294 . S
In455 O467 2.326 . S
O456 In455 2.294 . S
O456 C465 1.240 . S
O457 In455 2.326 . S
O457 C465 1.252 . S
C458 O461 1.252 . S
C458 O462 1.260 . S
C459 O466 1.240 . S
C459 O467 1.252 . S
C460 O463 1.252 . S
C460 O464 1.260 . S
O461 In455 2.266 . S
O461 C458 1.252 . S
O462 In455 2.326 . S
O462 C458 1.260 . S
O463 In455 2.266 . S
O463 C460 1.252 . S
O464 In455 2.326 . S
O464 C460 1.260 . S
C465 O456 1.240 . S
C465 O457 1.252 . S
O466 In455 2.294 . S
O466 C459 1.240 . S
O467 In455 2.326 . S
O467 C459 1.252 . S
In468 O469 2.294 . S
In468 O470 2.326 . S
In468 O474 2.266 . S
In468 O475 2.326 . S
In468 O476 2.266 . S
In468 O477 2.326 . S
In468 O479 2.294 . S
In468 O480 2.326 . S
O469 In468 2.294 . S
O469 C478 1.240 . S
O470 In468 2.326 . S
O470 C478 1.252 . S
C471 O474 1.252 . S
C471 O475 1.260 . S
C472 O479 1.240 . S
C472 O480 1.252 . S
C473 O476 1.252 . S
C473 O477 1.260 . S
O474 In468 2.266 . S
O474 C471 1.252 . S
O475 In468 2.326 . S
O475 C471 1.260 . S
O476 In468 2.266 . S
O476 C473 1.252 . S
O477 In468 2.326 . S
O477 C473 1.260 . S
C478 O469 1.240 . S
C478 O470 1.252 . S
O479 In468 2.294 . S
O479 C472 1.240 . S
O480 In468 2.326 . S
O480 C472 1.252 . S
In481 O482 2.294 . S
In481 O483 2.326 . S
In481 O487 2.266 . S
In481 O488 2.326 . S
In481 O489 2.266 . S
In481 O490 2.326 . S
In481 O492 2.294 . S
In481 O493 2.326 . S
O482 In481 2.294 . S
O482 C491 1.240 . S
O483 In481 2.326 . S
O483 C491 1.252 . S
C484 O487 1.252 . S
C484 O488 1.260 . S
C485 O492 1.240 . S
C485 O493 1.252 . S
C486 O489 1.252 . S
C486 O490 1.260 . S
O487 In481 2.266 . S
O487 C484 1.252 . S
O488 In481 2.326 . S
O488 C484 1.260 . S
O489 In481 2.266 . S
O489 C486 1.252 . S
O490 In481 2.326 . S
O490 C486 1.260 . S
C491 O482 1.240 . S
C491 O483 1.252 . S
O492 In481 2.294 . S
O492 C485 1.240 . S
O493 In481 2.326 . S
O493 C485 1.252 . S
In494 O495 2.294 . S
In494 O496 2.326 . S
In494 O500 2.266 . S
In494 O501 2.326 . S
In494 O502 2.266 . S
In494 O503 2.326 . S
In494 O505 2.294 . S
In494 O506 2.326 . S
O495 In494 2.294 . S
O495 C504 1.240 . S
O496 In494 2.326 . S
O496 C504 1.252 . S
C497 O500 1.252 . S
C497 O501 1.260 . S
C498 O505 1.240 . S
C498 O506 1.252 . S
C499 O502 1.252 . S
C499 O503 1.260 . S
O500 In494 2.266 . S
O500 C497 1.252 . S
O501 In494 2.326 . S
O501 C497 1.260 . S
O502 In494 2.266 . S
O502 C499 1.252 . S
O503 In494 2.326 . S
O503 C499 1.260 . S
C504 O495 1.240 . S
C504 O496 1.252 . S
O505 In494 2.294 . S
O505 C498 1.240 . S
O506 In494 2.326 . S
O506 C498 1.252 . S
In507 O508 2.294 . S
In507 O509 2.326 . S
In507 O513 2.266 . S
In507 O514 2.326 . S
In507 O515 2.266 . S
In507 O516 2.326 . S
In507 O518 2.294 . S
In507 O519 2.326 . S
O508 In507 2.294 . S
O508 C517 1.240 . S
O509 In507 2.326 . S
O509 C517 1.252 . S
C510 O513 1.252 . S
C510 O514 1.260 . S
C511 O518 1.240 . S
C511 O519 1.252 . S
C512 O515 1.252 . S
C512 O516 1.260 . S
O513 In507 2.266 . S
O513 C510 1.252 . S
O514 In507 2.326 . S
O514 C510 1.260 . S
O515 In507 2.266 . S
O515 C512 1.252 . S
O516 In507 2.326 . S
O516 C512 1.260 . S
C517 O508 1.240 . S
C517 O509 1.252 . S
O518 In507 2.294 . S
O518 C511 1.240 . S
O519 In507 2.326 . S
O519 C511 1.252 . S
In520 O521 2.294 . S
In520 O522 2.326 . S
In520 O526 2.266 . S
In520 O527 2.326 . S
In520 O528 2.266 . S
In520 O529 2.326 . S
In520 O531 2.294 . S
In520 O532 2.326 . S
O521 In520 2.294 . S
O521 C530 1.240 . S
O522 In520 2.326 . S
O522 C530 1.252 . S
C523 O526 1.252 . S
C523 O527 1.260 . S
C524 O531 1.240 . S
C524 O532 1.252 . S
C525 O528 1.252 . S
C525 O529 1.260 . S
O526 In520 2.266 . S
O526 C523 1.252 . S
O527 In520 2.326 . S
O527 C523 1.260 . S
O528 In520 2.266 . S
O528 C525 1.252 . S
O529 In520 2.326 . S
O529 C525 1.260 . S
C530 O521 1.240 . S
C530 O522 1.252 . S
O531 In520 2.294 . S
O531 C524 1.240 . S
O532 In520 2.326 . S
O532 C524 1.252 . S
In533 O534 2.294 . S
In533 O535 2.326 . S
In533 O539 2.266 . S
In533 O540 2.326 . S
In533 O541 2.266 . S
In533 O542 2.326 . S
In533 O544 2.294 . S
In533 O545 2.326 . S
O534 In533 2.294 . S
O534 C543 1.240 . S
O535 In533 2.326 . S
O535 C543 1.252 . S
C536 O539 1.252 . S
C536 O540 1.260 . S
C537 O544 1.240 . S
C537 O545 1.252 . S
C538 O541 1.252 . S
C538 O542 1.260 . S
O539 In533 2.266 . S
O539 C536 1.252 . S
O540 In533 2.326 . S
O540 C536 1.260 . S
O541 In533 2.266 . S
O541 C538 1.252 . S
O542 In533 2.326 . S
O542 C538 1.260 . S
C543 O534 1.240 . S
C543 O535 1.252 . S
O544 In533 2.294 . S
O544 C537 1.240 . S
O545 In533 2.326 . S
O545 C537 1.252 . S
In546 O547 2.294 . S
In546 O548 2.326 . S
In546 O552 2.266 . S
In546 O553 2.326 . S
In546 O554 2.266 . S
In546 O555 2.326 . S
In546 O557 2.294 . S
In546 O558 2.326 . S
O547 In546 2.294 . S
O547 C556 1.240 . S
O548 In546 2.326 . S
O548 C556 1.252 . S
C549 O552 1.252 . S
C549 O553 1.260 . S
C550 O557 1.240 . S
C550 O558 1.252 . S
C551 O554 1.252 . S
C551 O555 1.260 . S
O552 In546 2.266 . S
O552 C549 1.252 . S
O553 In546 2.326 . S
O553 C549 1.260 . S
O554 In546 2.266 . S
O554 C551 1.252 . S
O555 In546 2.326 . S
O555 C551 1.260 . S
C556 O547 1.240 . S
C556 O548 1.252 . S
O557 In546 2.294 . S
O557 C550 1.240 . S
O558 In546 2.326 . S
O558 C550 1.252 . S
In559 O560 2.294 . S
In559 O561 2.326 . S
In559 O565 2.266 . S
In559 O566 2.326 . S
In559 O567 2.266 . S
In559 O568 2.326 . S
In559 O570 2.294 . S
In559 O571 2.326 . S
O560 In559 2.294 . S
O560 C569 1.240 . S
O561 In559 2.326 . S
O561 C569 1.252 . S
C562 O565 1.252 . S
C562 O566 1.260 . S
C563 O570 1.240 . S
C563 O571 1.252 . S
C564 O567 1.252 . S
C564 O568 1.260 . S
O565 In559 2.266 . S
O565 C562 1.252 . S
O566 In559 2.326 . S
O566 C562 1.260 . S
O567 In559 2.266 . S
O567 C564 1.252 . S
O568 In559 2.326 . S
O568 C564 1.260 . S
C569 O560 1.240 . S
C569 O561 1.252 . S
O570 In559 2.294 . S
O570 C563 1.240 . S
O571 In559 2.326 . S
O571 C563 1.252 . S
In572 O573 2.294 . S
In572 O574 2.326 . S
In572 O578 2.266 . S
In572 O579 2.326 . S
In572 O580 2.266 . S
In572 O581 2.326 . S
In572 O583 2.294 . S
In572 O584 2.326 . S
O573 In572 2.294 . S
O573 C582 1.240 . S
O574 In572 2.326 . S
O574 C582 1.252 . S
C575 O578 1.252 . S
C575 O579 1.260 . S
C576 O583 1.240 . S
C576 O584 1.252 . S
C577 O580 1.252 . S
C577 O581 1.260 . S
O578 In572 2.266 . S
O578 C575 1.252 . S
O579 In572 2.326 . S
O579 C575 1.260 . S
O580 In572 2.266 . S
O580 C577 1.252 . S
O581 In572 2.326 . S
O581 C577 1.260 . S
C582 O573 1.240 . S
C582 O574 1.252 . S
O583 In572 2.294 . S
O583 C576 1.240 . S
O584 In572 2.326 . S
O584 C576 1.252 . S
In585 O586 2.294 . S
In585 O587 2.326 . S
In585 O591 2.266 . S
In585 O592 2.326 . S
In585 O593 2.266 . S
In585 O594 2.326 . S
In585 O596 2.294 . S
In585 O597 2.326 . S
O586 In585 2.294 . S
O586 C595 1.240 . S
O587 In585 2.326 . S
O587 C595 1.252 . S
C588 O591 1.252 . S
C588 O592 1.260 . S
C589 O596 1.240 . S
C589 O597 1.252 . S
C590 O593 1.252 . S
C590 O594 1.260 . S
O591 In585 2.266 . S
O591 C588 1.252 . S
O592 In585 2.326 . S
O592 C588 1.260 . S
O593 In585 2.266 . S
O593 C590 1.252 . S
O594 In585 2.326 . S
O594 C590 1.260 . S
C595 O586 1.240 . S
C595 O587 1.252 . S
O596 In585 2.294 . S
O596 C589 1.240 . S
O597 In585 2.326 . S
O597 C589 1.252 . S
In598 O599 2.294 . S
In598 O600 2.326 . S
In598 O604 2.266 . S
In598 O605 2.326 . S
In598 O606 2.266 . S
In598 O607 2.326 . S
In598 O609 2.294 . S
In598 O610 2.326 . S
O599 In598 2.294 . S
O599 C608 1.240 . S
O600 In598 2.326 . S
O600 C608 1.252 . S
C601 O604 1.252 . S
C601 O605 1.260 . S
C602 O609 1.240 . S
C602 O610 1.252 . S
C603 O606 1.252 . S
C603 O607 1.260 . S
O604 In598 2.266 . S
O604 C601 1.252 . S
O605 In598 2.326 . S
O605 C601 1.260 . S
O606 In598 2.266 . S
O606 C603 1.252 . S
O607 In598 2.326 . S
O607 C603 1.260 . S
C608 O599 1.240 . S
C608 O600 1.252 . S
O609 In598 2.294 . S
O609 C602 1.240 . S
O610 In598 2.326 . S
O610 C602 1.252 . S
In611 O612 2.294 . S
In611 O613 2.326 . S
In611 O617 2.266 . S
In611 O618 2.326 . S
In611 O619 2.266 . S
In611 O620 2.326 . S
In611 O622 2.294 . S
In611 O623 2.326 . S
O612 In611 2.294 . S
O612 C621 1.240 . S
O613 In611 2.326 . S
O613 C621 1.252 . S
C614 O617 1.252 . S
C614 O618 1.260 . S
C615 O622 1.240 . S
C615 O623 1.252 . S
C616 O619 1.252 . S
C616 O620 1.260 . S
O617 In611 2.266 . S
O617 C614 1.252 . S
O618 In611 2.326 . S
O618 C614 1.260 . S
O619 In611 2.266 . S
O619 C616 1.252 . S
O620 In611 2.326 . S
O620 C616 1.260 . S
C621 O612 1.240 . S
C621 O613 1.252 . S
O622 In611 2.294 . S
O622 C615 1.240 . S
O623 In611 2.326 . S
O623 C615 1.252 . S
C624 C625 1.387 . S
C624 H628 0.950 . S
C624 C633 1.390 . S
C625 C624 1.387 . S
C625 C627 1.387 . S
H626 C633 0.950 . S
C627 C625 1.387 . S
C627 C629 1.390 . S
C627 H631 0.950 . S
H628 C624 0.950 . S
C629 C627 1.390 . S
C629 C630 1.387 . S
C629 H632 0.950 . S
C630 C629 1.387 . S
C630 C633 1.387 . S
H631 C627 0.950 . S
H632 C629 0.950 . S
C633 C624 1.390 . S
C633 H626 0.950 . S
C633 C630 1.387 . S
C634 C635 1.387 . S
C634 H638 0.950 . S
C634 C643 1.390 . S
C635 C634 1.387 . S
C635 C637 1.387 . S
H636 C643 0.950 . S
C637 C635 1.387 . S
C637 C639 1.390 . S
C637 H641 0.950 . S
H638 C634 0.950 . S
C639 C637 1.390 . S
C639 C640 1.387 . S
C639 H642 0.950 . S
C640 C639 1.387 . S
C640 C643 1.387 . S
H641 C637 0.950 . S
H642 C639 0.950 . S
C643 C634 1.390 . S
C643 H636 0.950 . S
C643 C640 1.387 . S
C644 C645 1.387 . S
C644 H648 0.950 . S
C644 C653 1.390 . S
C645 C644 1.387 . S
C645 C647 1.387 . S
H646 C653 0.950 . S
C647 C645 1.387 . S
C647 C649 1.390 . S
C647 H651 0.950 . S
H648 C644 0.950 . S
C649 C647 1.390 . S
C649 C650 1.387 . S
C649 H652 0.950 . S
C650 C649 1.387 . S
C650 C653 1.387 . S
H651 C647 0.950 . S
H652 C649 0.950 . S
C653 C644 1.390 . S
C653 H646 0.950 . S
C653 C650 1.387 . S
C654 C655 1.387 . S
C654 H658 0.950 . S
C654 C663 1.390 . S
C655 C654 1.387 . S
C655 C657 1.387 . S
H656 C663 0.950 . S
C657 C655 1.387 . S
C657 C659 1.390 . S
C657 H661 0.950 . S
H658 C654 0.950 . S
C659 C657 1.390 . S
C659 C660 1.387 . S
C659 H662 0.950 . S
C660 C659 1.387 . S
C660 C663 1.387 . S
H661 C657 0.950 . S
H662 C659 0.950 . S
C663 C654 1.390 . S
C663 H656 0.950 . S
C663 C660 1.387 . S
C664 C665 1.387 . S
C664 H668 0.950 . S
C664 C673 1.390 . S
C665 C664 1.387 . S
C665 C667 1.387 . S
H666 C673 0.950 . S
C667 C665 1.387 . S
C667 C669 1.390 . S
C667 H671 0.950 . S
H668 C664 0.950 . S
C669 C667 1.390 . S
C669 C670 1.387 . S
C669 H672 0.950 . S
C670 C669 1.387 . S
C670 C673 1.387 . S
H671 C667 0.950 . S
H672 C669 0.950 . S
C673 C664 1.390 . S
C673 H666 0.950 . S
C673 C670 1.387 . S
C674 C675 1.387 . S
C674 H678 0.950 . S
C674 C683 1.390 . S
C675 C674 1.387 . S
C675 C677 1.387 . S
H676 C683 0.950 . S
C677 C675 1.387 . S
C677 C679 1.390 . S
C677 H681 0.950 . S
H678 C674 0.950 . S
C679 C677 1.390 . S
C679 C680 1.387 . S
C679 H682 0.950 . S
C680 C679 1.387 . S
C680 C683 1.387 . S
H681 C677 0.950 . S
H682 C679 0.950 . S
C683 C674 1.390 . S
C683 H676 0.950 . S
C683 C680 1.387 . S
C684 C685 1.387 . S
C684 H688 0.950 . S
C684 C693 1.390 . S
C685 C684 1.387 . S
C685 C687 1.387 . S
H686 C693 0.950 . S
C687 C685 1.387 . S
C687 C689 1.390 . S
C687 H691 0.950 . S
H688 C684 0.950 . S
C689 C687 1.390 . S
C689 C690 1.387 . S
C689 H692 0.950 . S
C690 C689 1.387 . S
C690 C693 1.387 . S
H691 C687 0.950 . S
H692 C689 0.950 . S
C693 C684 1.390 . S
C693 H686 0.950 . S
C693 C690 1.387 . S
C694 C695 1.387 . S
C694 H698 0.950 . S
C694 C703 1.390 . S
C695 C694 1.387 . S
C695 C697 1.387 . S
H696 C703 0.950 . S
C697 C695 1.387 . S
C697 C699 1.390 . S
C697 H701 0.950 . S
H698 C694 0.950 . S
C699 C697 1.390 . S
C699 C700 1.387 . S
C699 H702 0.950 . S
C700 C699 1.387 . S
C700 C703 1.387 . S
H701 C697 0.950 . S
H702 C699 0.950 . S
C703 C694 1.390 . S
C703 H696 0.950 . S
C703 C700 1.387 . S
C704 C705 1.387 . S
C704 H708 0.950 . S
C704 C713 1.390 . S
C705 C704 1.387 . S
C705 C707 1.387 . S
H706 C713 0.950 . S
C707 C705 1.387 . S
C707 C709 1.390 . S
C707 H711 0.950 . S
H708 C704 0.950 . S
C709 C707 1.390 . S
C709 C710 1.387 . S
C709 H712 0.950 . S
C710 C709 1.387 . S
C710 C713 1.387 . S
H711 C707 0.950 . S
H712 C709 0.950 . S
C713 C704 1.390 . S
C713 H706 0.950 . S
C713 C710 1.387 . S
C714 C715 1.387 . S
C714 H718 0.950 . S
C714 C723 1.390 . S
C715 C714 1.387 . S
C715 C717 1.387 . S
H716 C723 0.950 . S
C717 C715 1.387 . S
C717 C719 1.390 . S
C717 H721 0.950 . S
H718 C714 0.950 . S
C719 C717 1.390 . S
C719 C720 1.387 . S
C719 H722 0.950 . S
C720 C719 1.387 . S
C720 C723 1.387 . S
H721 C717 0.950 . S
H722 C719 0.950 . S
C723 C714 1.390 . S
C723 H716 0.950 . S
C723 C720 1.387 . S
C724 C725 1.387 . S
C724 H728 0.950 . S
C724 C733 1.390 . S
C725 C724 1.387 . S
C725 C727 1.387 . S
H726 C733 0.950 . S
C727 C725 1.387 . S
C727 C729 1.390 . S
C727 H731 0.950 . S
H728 C724 0.950 . S
C729 C727 1.390 . S
C729 C730 1.387 . S
C729 H732 0.950 . S
C730 C729 1.387 . S
C730 C733 1.387 . S
H731 C727 0.950 . S
H732 C729 0.950 . S
C733 C724 1.390 . S
C733 H726 0.950 . S
C733 C730 1.387 . S
C734 C735 1.387 . S
C734 H738 0.950 . S
C734 C743 1.390 . S
C735 C734 1.387 . S
C735 C737 1.387 . S
H736 C743 0.950 . S
C737 C735 1.387 . S
C737 C739 1.390 . S
C737 H741 0.950 . S
H738 C734 0.950 . S
C739 C737 1.390 . S
C739 C740 1.387 . S
C739 H742 0.950 . S
C740 C739 1.387 . S
C740 C743 1.387 . S
H741 C737 0.950 . S
H742 C739 0.950 . S
C743 C734 1.390 . S
C743 H736 0.950 . S
C743 C740 1.387 . S
C744 C745 1.387 . S
C744 H748 0.950 . S
C744 C753 1.390 . S
C745 C744 1.387 . S
C745 C747 1.387 . S
H746 C753 0.950 . S
C747 C745 1.387 . S
C747 C749 1.390 . S
C747 H751 0.950 . S
H748 C744 0.950 . S
C749 C747 1.390 . S
C749 C750 1.387 . S
C749 H752 0.950 . S
C750 C749 1.387 . S
C750 C753 1.387 . S
H751 C747 0.950 . S
H752 C749 0.950 . S
C753 C744 1.390 . S
C753 H746 0.950 . S
C753 C750 1.387 . S
C754 C755 1.387 . S
C754 H758 0.950 . S
C754 C763 1.390 . S
C755 C754 1.387 . S
C755 C757 1.387 . S
H756 C763 0.950 . S
C757 C755 1.387 . S
C757 C759 1.390 . S
C757 H761 0.950 . S
H758 C754 0.950 . S
C759 C757 1.390 . S
C759 C760 1.387 . S
C759 H762 0.950 . S
C760 C759 1.387 . S
C760 C763 1.387 . S
H761 C757 0.950 . S
H762 C759 0.950 . S
C763 C754 1.390 . S
C763 H756 0.950 . S
C763 C760 1.387 . S
C764 C765 1.387 . S
C764 H768 0.950 . S
C764 C773 1.390 . S
C765 C764 1.387 . S
C765 C767 1.387 . S
H766 C773 0.950 . S
C767 C765 1.387 . S
C767 C769 1.390 . S
C767 H771 0.950 . S
H768 C764 0.950 . S
C769 C767 1.390 . S
C769 C770 1.387 . S
C769 H772 0.950 . S
C770 C769 1.387 . S
C770 C773 1.387 . S
H771 C767 0.950 . S
H772 C769 0.950 . S
C773 C764 1.390 . S
C773 H766 0.950 . S
C773 C770 1.387 . S
C774 C775 1.387 . S
C774 H778 0.950 . S
C774 C783 1.390 . S
C775 C774 1.387 . S
C775 C777 1.387 . S
H776 C783 0.950 . S
C777 C775 1.387 . S
C777 C779 1.390 . S
C777 H781 0.950 . S
H778 C774 0.950 . S
C779 C777 1.390 . S
C779 C780 1.387 . S
C779 H782 0.950 . S
C780 C779 1.387 . S
C780 C783 1.387 . S
H781 C777 0.950 . S
H782 C779 0.950 . S
C783 C774 1.390 . S
C783 H776 0.950 . S
C783 C780 1.387 . S
C784 C785 1.387 . S
C784 H788 0.950 . S
C784 C793 1.390 . S
C785 C784 1.387 . S
C785 C787 1.387 . S
H786 C793 0.950 . S
C787 C785 1.387 . S
C787 C789 1.390 . S
C787 H791 0.950 . S
H788 C784 0.950 . S
C789 C787 1.390 . S
C789 C790 1.387 . S
C789 H792 0.950 . S
C790 C789 1.387 . S
C790 C793 1.387 . S
H791 C787 0.950 . S
H792 C789 0.950 . S
C793 C784 1.390 . S
C793 H786 0.950 . S
C793 C790 1.387 . S
C794 C795 1.387 . S
C794 H798 0.950 . S
C794 C803 1.390 . S
C795 C794 1.387 . S
C795 C797 1.387 . S
H796 C803 0.950 . S
C797 C795 1.387 . S
C797 C799 1.390 . S
C797 H801 0.950 . S
H798 C794 0.950 . S
C799 C797 1.390 . S
C799 C800 1.387 . S
C799 H802 0.950 . S
C800 C799 1.387 . S
C800 C803 1.387 . S
H801 C797 0.950 . S
H802 C799 0.950 . S
C803 C794 1.390 . S
C803 H796 0.950 . S
C803 C800 1.387 . S
C804 C805 1.387 . S
C804 H808 0.950 . S
C804 C813 1.390 . S
C805 C804 1.387 . S
C805 C807 1.387 . S
H806 C813 0.950 . S
C807 C805 1.387 . S
C807 C809 1.390 . S
C807 H811 0.950 . S
H808 C804 0.950 . S
C809 C807 1.390 . S
C809 C810 1.387 . S
C809 H812 0.950 . S
C810 C809 1.387 . S
C810 C813 1.387 . S
H811 C807 0.950 . S
H812 C809 0.950 . S
C813 C804 1.390 . S
C813 H806 0.950 . S
C813 C810 1.387 . S
C814 C815 1.387 . S
C814 H818 0.950 . S
C814 C823 1.390 . S
C815 C814 1.387 . S
C815 C817 1.387 . S
H816 C823 0.950 . S
C817 C815 1.387 . S
C817 C819 1.390 . S
C817 H821 0.950 . S
H818 C814 0.950 . S
C819 C817 1.390 . S
C819 C820 1.387 . S
C819 H822 0.950 . S
C820 C819 1.387 . S
C820 C823 1.387 . S
H821 C817 0.950 . S
H822 C819 0.950 . S
C823 C814 1.390 . S
C823 H816 0.950 . S
C823 C820 1.387 . S
C824 C825 1.387 . S
C824 H828 0.950 . S
C824 C833 1.390 . S
C825 C824 1.387 . S
C825 C827 1.387 . S
H826 C833 0.950 . S
C827 C825 1.387 . S
C827 C829 1.390 . S
C827 H831 0.950 . S
H828 C824 0.950 . S
C829 C827 1.390 . S
C829 C830 1.387 . S
C829 H832 0.950 . S
C830 C829 1.387 . S
C830 C833 1.387 . S
H831 C827 0.950 . S
H832 C829 0.950 . S
C833 C824 1.390 . S
C833 H826 0.950 . S
C833 C830 1.387 . S
C834 C835 1.387 . S
C834 H838 0.950 . S
C834 C843 1.390 . S
C835 C834 1.387 . S
C835 C837 1.387 . S
H836 C843 0.950 . S
C837 C835 1.387 . S
C837 C839 1.390 . S
C837 H841 0.950 . S
H838 C834 0.950 . S
C839 C837 1.390 . S
C839 C840 1.387 . S
C839 H842 0.950 . S
C840 C839 1.387 . S
C840 C843 1.387 . S
H841 C837 0.950 . S
H842 C839 0.950 . S
C843 C834 1.390 . S
C843 H836 0.950 . S
C843 C840 1.387 . S
C844 C845 1.387 . S
C844 H848 0.950 . S
C844 C853 1.390 . S
C845 C844 1.387 . S
C845 C847 1.387 . S
H846 C853 0.950 . S
C847 C845 1.387 . S
C847 C849 1.390 . S
C847 H851 0.950 . S
H848 C844 0.950 . S
C849 C847 1.390 . S
C849 C850 1.387 . S
C849 H852 0.950 . S
C850 C849 1.387 . S
C850 C853 1.387 . S
H851 C847 0.950 . S
H852 C849 0.950 . S
C853 C844 1.390 . S
C853 H846 0.950 . S
C853 C850 1.387 . S
C854 C855 1.387 . S
C854 H858 0.950 . S
C854 C863 1.390 . S
C855 C854 1.387 . S
C855 C857 1.387 . S
H856 C863 0.950 . S
C857 C855 1.387 . S
C857 C859 1.390 . S
C857 H861 0.950 . S
H858 C854 0.950 . S
C859 C857 1.390 . S
C859 C860 1.387 . S
C859 H862 0.950 . S
C860 C859 1.387 . S
C860 C863 1.387 . S
H861 C857 0.950 . S
H862 C859 0.950 . S
C863 C854 1.390 . S
C863 H856 0.950 . S
C863 C860 1.387 . S
C864 C865 1.387 . S
C864 H868 0.950 . S
C864 C873 1.390 1_655 S
C865 C864 1.387 . S
C865 C867 1.387 . S
H866 C873 0.950 . S
C867 C865 1.387 . S
C867 C869 1.390 1_655 S
C867 H871 0.950 . S
H868 C864 0.950 . S
C869 C867 1.390 1_455 S
C869 C870 1.387 . S
C869 H872 0.950 . S
C870 C869 1.387 . S
C870 C873 1.387 . S
H871 C867 0.950 . S
H872 C869 0.950 . S
C873 C864 1.390 1_455 S
C873 H866 0.950 . S
C873 C870 1.387 . S
C874 C875 1.387 . S
C874 H878 0.950 . S
C874 C883 1.390 . S
C875 C874 1.387 . S
C875 C877 1.387 1_565 S
H876 C883 0.950 . S
C877 C875 1.387 1_545 S
C877 C879 1.390 . S
C877 H881 0.950 . S
H878 C874 0.950 . S
C879 C877 1.390 . S
C879 C880 1.387 . S
C879 H882 0.950 . S
C880 C879 1.387 . S
C880 C883 1.387 1_545 S
H881 C877 0.950 . S
H882 C879 0.950 . S
C883 C874 1.390 . S
C883 H876 0.950 . S
C883 C880 1.387 1_565 S
C884 C885 1.387 1_455 S
C884 H888 0.950 . S
C884 C893 1.390 . S
C885 C884 1.387 1_655 S
C885 C887 1.387 . S
H886 C893 0.950 . S
C887 C885 1.387 . S
C887 C889 1.390 . S
C887 H891 0.950 . S
H888 C884 0.950 . S
C889 C887 1.390 . S
C889 C890 1.387 1_655 S
C889 H892 0.950 . S
C890 C889 1.387 1_455 S
C890 C893 1.387 . S
H891 C887 0.950 . S
H892 C889 0.950 . S
C893 C884 1.390 . S
C893 H886 0.950 . S
C893 C890 1.387 . S
C894 C895 1.387 . S
C894 H898 0.950 . S
C894 C903 1.390 . S
C895 C894 1.387 . S
C895 C897 1.387 1_545 S
H896 C903 0.950 . S
C897 C895 1.387 1_565 S
C897 C899 1.390 . S
C897 H901 0.950 . S
H898 C894 0.950 . S
C899 C897 1.390 . S
C899 C900 1.387 . S
C899 H902 0.950 . S
C900 C899 1.387 . S
C900 C903 1.387 1_565 S
H901 C897 0.950 . S
H902 C899 0.950 . S
C903 C894 1.390 . S
C903 H896 0.950 . S
C903 C900 1.387 1_545 S
C904 C905 1.387 1_655 S
C904 H908 0.950 . S
C904 C913 1.390 . S
C905 C904 1.387 1_455 S
C905 C907 1.387 . S
H906 C913 0.950 . S
C907 C905 1.387 . S
C907 C909 1.390 . S
C907 H911 0.950 . S
H908 C904 0.950 . S
C909 C907 1.390 . S
C909 C910 1.387 1_455 S
C909 H912 0.950 . S
C910 C909 1.387 1_655 S
C910 C913 1.387 . S
H911 C907 0.950 . S
H912 C909 0.950 . S
C913 C904 1.390 . S
C913 H906 0.950 . S
C913 C910 1.387 . S
C914 C915 1.387 1_545 S
C914 H918 0.950 . S
C914 C923 1.390 . S
C915 C914 1.387 1_565 S
C915 C917 1.387 . S
H916 C923 0.950 . S
C917 C915 1.387 . S
C917 C919 1.390 . S
C917 H921 0.950 . S
H918 C914 0.950 . S
C919 C917 1.390 . S
C919 C920 1.387 1_565 S
C919 H922 0.950 . S
C920 C919 1.387 1_545 S
C920 C923 1.387 . S
H921 C917 0.950 . S
H922 C919 0.950 . S
C923 C914 1.390 . S
C923 H916 0.950 . S
C923 C920 1.387 . S
C924 C925 1.387 . S
C924 H928 0.950 . S
C924 C933 1.390 . S
C925 C924 1.387 . S
C925 C927 1.387 1_455 S
H926 C933 0.950 . S
C927 C925 1.387 1_655 S
C927 C929 1.390 . S
C927 H931 0.950 . S
H928 C924 0.950 . S
C929 C927 1.390 . S
C929 C930 1.387 . S
C929 H932 0.950 . S
C930 C929 1.387 . S
C930 C933 1.387 1_655 S
H931 C927 0.950 . S
H932 C929 0.950 . S
C933 C924 1.390 . S
C933 H926 0.950 . S
C933 C930 1.387 1_455 S
C934 C935 1.387 . S
C934 H938 0.950 . S
C934 C943 1.390 . S
C935 C934 1.387 . S
C935 C937 1.387 1_545 S
H936 C943 0.950 . S
C937 C935 1.387 1_565 S
C937 C939 1.390 . S
C937 H941 0.950 . S
H938 C934 0.950 . S
C939 C937 1.390 . S
C939 C940 1.387 . S
C939 H942 0.950 . S
C940 C939 1.387 . S
C940 C943 1.387 1_565 S
H941 C937 0.950 . S
H942 C939 0.950 . S
C943 C934 1.390 . S
C943 H936 0.950 . S
C943 C940 1.387 1_545 S
C944 C945 1.387 . S
C944 H948 0.950 . S
C944 C953 1.390 . S
C945 C944 1.387 . S
C945 C947 1.387 1_556 S
H946 C953 0.950 . S
C947 C945 1.387 1_554 S
C947 C949 1.390 . S
C947 H951 0.950 . S
H948 C944 0.950 . S
C949 C947 1.390 . S
C949 C950 1.387 . S
C949 H952 0.950 . S
C950 C949 1.387 . S
C950 C953 1.387 1_554 S
H951 C947 0.950 . S
H952 C949 0.950 . S
C953 C944 1.390 . S
C953 H946 0.950 . S
C953 C950 1.387 1_556 S
C954 C955 1.387 1_556 S
C954 H958 0.950 . S
C954 C963 1.390 . S
C955 C954 1.387 1_554 S
C955 C957 1.387 . S
H956 C963 0.950 . S
C957 C955 1.387 . S
C957 C959 1.390 . S
C957 H961 0.950 . S
H958 C954 0.950 . S
C959 C957 1.390 . S
C959 C960 1.387 1_554 S
C959 H962 0.950 . S
C960 C959 1.387 1_556 S
C960 C963 1.387 . S
H961 C957 0.950 . S
H962 C959 0.950 . S
C963 C954 1.390 . S
C963 H956 0.950 . S
C963 C960 1.387 . S
C964 C965 1.387 . S
C964 H968 0.950 . S
C964 C973 1.390 . S
C965 C964 1.387 . S
C965 C967 1.387 1_554 S
H966 C973 0.950 . S
C967 C965 1.387 1_556 S
C967 C969 1.390 . S
C967 H971 0.950 . S
H968 C964 0.950 . S
C969 C967 1.390 . S
C969 C970 1.387 . S
C969 H972 0.950 . S
C970 C969 1.387 . S
C970 C973 1.387 1_556 S
H971 C967 0.950 . S
H972 C969 0.950 . S
C973 C964 1.390 . S
C973 H966 0.950 . S
C973 C970 1.387 1_554 S
C974 C975 1.387 1_554 S
C974 H978 0.950 . S
C974 C983 1.390 . S
C975 C974 1.387 1_556 S
C975 C977 1.387 . S
H976 C983 0.950 . S
C977 C975 1.387 . S
C977 C979 1.390 . S
C977 H981 0.950 . S
H978 C974 0.950 . S
C979 C977 1.390 . S
C979 C980 1.387 1_556 S
C979 H982 0.950 . S
C980 C979 1.387 1_554 S
C980 C983 1.387 . S
H981 C977 0.950 . S
H982 C979 0.950 . S
C983 C974 1.390 . S
C983 H976 0.950 . S
C983 C980 1.387 . S
C984 C985 1.387 . S
C984 H988 0.950 . S
C984 C993 1.390 . S
C985 C984 1.387 . S
C985 C987 1.387 . S
H986 C993 0.950 . S
C987 C985 1.387 . S
C987 C989 1.390 . S
C987 H991 0.950 . S
H988 C984 0.950 . S
C989 C987 1.390 . S
C989 C990 1.387 . S
C989 H992 0.950 . S
C990 C989 1.387 . S
C990 C993 1.387 . S
H991 C987 0.950 . S
H992 C989 0.950 . S
C993 C984 1.390 . S
C993 H986 0.950 . S
C993 C990 1.387 . S
C994 C995 1.387 . S
C994 H998 0.950 . S
C994 C1003 1.390 . S
C995 C994 1.387 . S
C995 C997 1.387 . S
H996 C1003 0.950 . S
C997 C995 1.387 . S
C997 C999 1.390 . S
C997 H1001 0.950 . S
H998 C994 0.950 . S
C999 C997 1.390 . S
C999 C1000 1.387 . S
C999 H1002 0.950 . S
C1000 C999 1.387 . S
C1000 C1003 1.387 . S
H1001 C997 0.950 . S
H1002 C999 0.950 . S
C1003 C994 1.390 . S
C1003 H996 0.950 . S
C1003 C1000 1.387 . S
C1004 C1005 1.387 . S
C1004 H1008 0.950 . S
C1004 C1013 1.390 . S
C1005 C1004 1.387 . S
C1005 C1007 1.387 . S
H1006 C1013 0.950 . S
C1007 C1005 1.387 . S
C1007 C1009 1.390 . S
C1007 H1011 0.950 . S
H1008 C1004 0.950 . S
C1009 C1007 1.390 . S
C1009 C1010 1.387 . S
C1009 H1012 0.950 . S
C1010 C1009 1.387 . S
C1010 C1013 1.387 . S
H1011 C1007 0.950 . S
H1012 C1009 0.950 . S
C1013 C1004 1.390 . S
C1013 H1006 0.950 . S
C1013 C1010 1.387 . S
C1014 C1015 1.387 . S
C1014 H1018 0.950 . S
C1014 C1023 1.390 . S
C1015 C1014 1.387 . S
C1015 C1017 1.387 . S
H1016 C1023 0.950 . S
C1017 C1015 1.387 . S
C1017 C1019 1.390 . S
C1017 H1021 0.950 . S
H1018 C1014 0.950 . S
C1019 C1017 1.390 . S
C1019 C1020 1.387 . S
C1019 H1022 0.950 . S
C1020 C1019 1.387 . S
C1020 C1023 1.387 . S
H1021 C1017 0.950 . S
H1022 C1019 0.950 . S
C1023 C1014 1.390 . S
C1023 H1016 0.950 . S
C1023 C1020 1.387 . S
C1024 C1025 1.387 . S
C1024 H1028 0.950 . S
C1024 C1033 1.390 . S
C1025 C1024 1.387 . S
C1025 C1027 1.387 . S
H1026 C1033 0.950 . S
C1027 C1025 1.387 . S
C1027 C1029 1.390 . S
C1027 H1031 0.950 . S
H1028 C1024 0.950 . S
C1029 C1027 1.390 . S
C1029 C1030 1.387 . S
C1029 H1032 0.950 . S
C1030 C1029 1.387 . S
C1030 C1033 1.387 . S
H1031 C1027 0.950 . S
H1032 C1029 0.950 . S
C1033 C1024 1.390 . S
C1033 H1026 0.950 . S
C1033 C1030 1.387 . S
C1034 C1035 1.387 . S
C1034 H1038 0.950 . S
C1034 C1043 1.390 . S
C1035 C1034 1.387 . S
C1035 C1037 1.387 . S
H1036 C1043 0.950 . S
C1037 C1035 1.387 . S
C1037 C1039 1.390 . S
C1037 H1041 0.950 . S
H1038 C1034 0.950 . S
C1039 C1037 1.390 . S
C1039 C1040 1.387 . S
C1039 H1042 0.950 . S
C1040 C1039 1.387 . S
C1040 C1043 1.387 . S
H1041 C1037 0.950 . S
H1042 C1039 0.950 . S
C1043 C1034 1.390 . S
C1043 H1036 0.950 . S
C1043 C1040 1.387 . S
C1044 C1045 1.387 . S
C1044 H1048 0.950 . S
C1044 C1053 1.390 . S
C1045 C1044 1.387 . S
C1045 C1047 1.387 . S
H1046 C1053 0.950 . S
C1047 C1045 1.387 . S
C1047 C1049 1.390 . S
C1047 H1051 0.950 . S
H1048 C1044 0.950 . S
C1049 C1047 1.390 . S
C1049 C1050 1.387 . S
C1049 H1052 0.950 . S
C1050 C1049 1.387 . S
C1050 C1053 1.387 . S
H1051 C1047 0.950 . S
H1052 C1049 0.950 . S
C1053 C1044 1.390 . S
C1053 H1046 0.950 . S
C1053 C1050 1.387 . S
C1054 C1055 1.387 . S
C1054 H1058 0.950 . S
C1054 C1063 1.390 . S
C1055 C1054 1.387 . S
C1055 C1057 1.387 . S
H1056 C1063 0.950 . S
C1057 C1055 1.387 . S
C1057 C1059 1.390 . S
C1057 H1061 0.950 . S
H1058 C1054 0.950 . S
C1059 C1057 1.390 . S
C1059 C1060 1.387 . S
C1059 H1062 0.950 . S
C1060 C1059 1.387 . S
C1060 C1063 1.387 . S
H1061 C1057 0.950 . S
H1062 C1059 0.950 . S
C1063 C1054 1.390 . S
C1063 H1056 0.950 . S
C1063 C1060 1.387 . S
C1064 C1065 1.387 . S
C1064 H1068 0.950 . S
C1064 C1073 1.390 . S
C1065 C1064 1.387 . S
C1065 C1067 1.387 . S
H1066 C1073 0.950 . S
C1067 C1065 1.387 . S
C1067 C1069 1.390 . S
C1067 H1071 0.950 . S
H1068 C1064 0.950 . S
C1069 C1067 1.390 . S
C1069 C1070 1.387 . S
C1069 H1072 0.950 . S
C1070 C1069 1.387 . S
C1070 C1073 1.387 . S
H1071 C1067 0.950 . S
H1072 C1069 0.950 . S
C1073 C1064 1.390 . S
C1073 H1066 0.950 . S
C1073 C1070 1.387 . S
C1074 C1075 1.387 . S
C1074 H1078 0.950 . S
C1074 C1083 1.390 . S
C1075 C1074 1.387 . S
C1075 C1077 1.387 . S
H1076 C1083 0.950 . S
C1077 C1075 1.387 . S
C1077 C1079 1.390 . S
C1077 H1081 0.950 . S
H1078 C1074 0.950 . S
C1079 C1077 1.390 . S
C1079 C1080 1.387 . S
C1079 H1082 0.950 . S
C1080 C1079 1.387 . S
C1080 C1083 1.387 . S
H1081 C1077 0.950 . S
H1082 C1079 0.950 . S
C1083 C1074 1.390 . S
C1083 H1076 0.950 . S
C1083 C1080 1.387 . S
C1084 C1085 1.387 . S
C1084 H1088 0.950 . S
C1084 C1093 1.390 . S
C1085 C1084 1.387 . S
C1085 C1087 1.387 . S
H1086 C1093 0.950 . S
C1087 C1085 1.387 . S
C1087 C1089 1.390 . S
C1087 H1091 0.950 . S
H1088 C1084 0.950 . S
C1089 C1087 1.390 . S
C1089 C1090 1.387 . S
C1089 H1092 0.950 . S
C1090 C1089 1.387 . S
C1090 C1093 1.387 . S
H1091 C1087 0.950 . S
H1092 C1089 0.950 . S
C1093 C1084 1.390 . S
C1093 H1086 0.950 . S
C1093 C1090 1.387 . S
C1094 C1095 1.387 . S
C1094 H1098 0.950 . S
C1094 C1103 1.390 . S
C1095 C1094 1.387 . S
C1095 C1097 1.387 . S
H1096 C1103 0.950 . S
C1097 C1095 1.387 . S
C1097 C1099 1.390 . S
C1097 H1101 0.950 . S
H1098 C1094 0.950 . S
C1099 C1097 1.390 . S
C1099 C1100 1.387 . S
C1099 H1102 0.950 . S
C1100 C1099 1.387 . S
C1100 C1103 1.387 . S
H1101 C1097 0.950 . S
H1102 C1099 0.950 . S
C1103 C1094 1.390 . S
C1103 H1096 0.950 . S
C1103 C1100 1.387 . S
C1104 C1105 1.387 . S
C1104 H1108 0.950 . S
C1104 C1113 1.390 . S
C1105 C1104 1.387 . S
C1105 C1107 1.387 . S
H1106 C1113 0.950 . S
C1107 C1105 1.387 . S
C1107 C1109 1.390 . S
C1107 H1111 0.950 . S
H1108 C1104 0.950 . S
C1109 C1107 1.390 . S
C1109 C1110 1.387 . S
C1109 H1112 0.950 . S
C1110 C1109 1.387 . S
C1110 C1113 1.387 . S
H1111 C1107 0.950 . S
H1112 C1109 0.950 . S
C1113 C1104 1.390 . S
C1113 H1106 0.950 . S
C1113 C1110 1.387 . S
C1114 C1115 1.387 . S
C1114 H1118 0.950 . S
C1114 C1123 1.390 . S
C1115 C1114 1.387 . S
C1115 C1117 1.387 . S
H1116 C1123 0.950 . S
C1117 C1115 1.387 . S
C1117 C1119 1.390 . S
C1117 H1121 0.950 . S
H1118 C1114 0.950 . S
C1119 C1117 1.390 . S
C1119 C1120 1.387 . S
C1119 H1122 0.950 . S
C1120 C1119 1.387 . S
C1120 C1123 1.387 . S
H1121 C1117 0.950 . S
H1122 C1119 0.950 . S
C1123 C1114 1.390 . S
C1123 H1116 0.950 . S
C1123 C1120 1.387 . S
C1124 C1125 1.387 . S
C1124 H1128 0.950 . S
C1124 C1133 1.390 . S
C1125 C1124 1.387 . S
C1125 C1127 1.387 . S
H1126 C1133 0.950 . S
C1127 C1125 1.387 . S
C1127 C1129 1.390 . S
C1127 H1131 0.950 . S
H1128 C1124 0.950 . S
C1129 C1127 1.390 . S
C1129 C1130 1.387 . S
C1129 H1132 0.950 . S
C1130 C1129 1.387 . S
C1130 C1133 1.387 . S
H1131 C1127 0.950 . S
H1132 C1129 0.950 . S
C1133 C1124 1.390 . S
C1133 H1126 0.950 . S
C1133 C1130 1.387 . S
C1134 C1135 1.387 . S
C1134 H1138 0.950 . S
C1134 C1143 1.390 . S
C1135 C1134 1.387 . S
C1135 C1137 1.387 . S
H1136 C1143 0.950 . S
C1137 C1135 1.387 . S
C1137 C1139 1.390 . S
C1137 H1141 0.950 . S
H1138 C1134 0.950 . S
C1139 C1137 1.390 . S
C1139 C1140 1.387 . S
C1139 H1142 0.950 . S
C1140 C1139 1.387 . S
C1140 C1143 1.387 . S
H1141 C1137 0.950 . S
H1142 C1139 0.950 . S
C1143 C1134 1.390 . S
C1143 H1136 0.950 . S
C1143 C1140 1.387 . S
C1144 C1145 1.387 . S
C1144 H1148 0.950 . S
C1144 C1153 1.390 . S
C1145 C1144 1.387 . S
C1145 C1147 1.387 . S
H1146 C1153 0.950 . S
C1147 C1145 1.387 . S
C1147 C1149 1.390 . S
C1147 H1151 0.950 . S
H1148 C1144 0.950 . S
C1149 C1147 1.390 . S
C1149 C1150 1.387 . S
C1149 H1152 0.950 . S
C1150 C1149 1.387 . S
C1150 C1153 1.387 . S
H1151 C1147 0.950 . S
H1152 C1149 0.950 . S
C1153 C1144 1.390 . S
C1153 H1146 0.950 . S
C1153 C1150 1.387 . S
C1154 C1155 1.387 . S
C1154 H1158 0.950 . S
C1154 C1163 1.390 . S
C1155 C1154 1.387 . S
C1155 C1157 1.387 . S
H1156 C1163 0.950 . S
C1157 C1155 1.387 . S
C1157 C1159 1.390 . S
C1157 H1161 0.950 . S
H1158 C1154 0.950 . S
C1159 C1157 1.390 . S
C1159 C1160 1.387 . S
C1159 H1162 0.950 . S
C1160 C1159 1.387 . S
C1160 C1163 1.387 . S
H1161 C1157 0.950 . S
H1162 C1159 0.950 . S
C1163 C1154 1.390 . S
C1163 H1156 0.950 . S
C1163 C1160 1.387 . S
C1164 C1165 1.387 . S
C1164 H1168 0.950 . S
C1164 C1173 1.390 . S
C1165 C1164 1.387 . S
C1165 C1167 1.387 . S
H1166 C1173 0.950 . S
C1167 C1165 1.387 . S
C1167 C1169 1.390 . S
C1167 H1171 0.950 . S
H1168 C1164 0.950 . S
C1169 C1167 1.390 . S
C1169 C1170 1.387 . S
C1169 H1172 0.950 . S
C1170 C1169 1.387 . S
C1170 C1173 1.387 . S
H1171 C1167 0.950 . S
H1172 C1169 0.950 . S
C1173 C1164 1.390 . S
C1173 H1166 0.950 . S
C1173 C1170 1.387 . S
C1174 C1175 1.387 . S
C1174 H1178 0.950 . S
C1174 C1183 1.390 . S
C1175 C1174 1.387 . S
C1175 C1177 1.387 . S
H1176 C1183 0.950 . S
C1177 C1175 1.387 . S
C1177 C1179 1.390 . S
C1177 H1181 0.950 . S
H1178 C1174 0.950 . S
C1179 C1177 1.390 . S
C1179 C1180 1.387 . S
C1179 H1182 0.950 . S
C1180 C1179 1.387 . S
C1180 C1183 1.387 . S
H1181 C1177 0.950 . S
H1182 C1179 0.950 . S
C1183 C1174 1.390 . S
C1183 H1176 0.950 . S
C1183 C1180 1.387 . S
C1184 C1185 1.387 . S
C1184 H1188 0.950 . S
C1184 C1193 1.390 . S
C1185 C1184 1.387 . S
C1185 C1187 1.387 . S
H1186 C1193 0.950 . S
C1187 C1185 1.387 . S
C1187 C1189 1.390 . S
C1187 H1191 0.950 . S
H1188 C1184 0.950 . S
C1189 C1187 1.390 . S
C1189 C1190 1.387 . S
C1189 H1192 0.950 . S
C1190 C1189 1.387 . S
C1190 C1193 1.387 . S
H1191 C1187 0.950 . S
H1192 C1189 0.950 . S
C1193 C1184 1.390 . S
C1193 H1186 0.950 . S
C1193 C1190 1.387 . S
C1194 C1195 1.387 . S
C1194 H1198 0.950 . S
C1194 C1203 1.390 . S
C1195 C1194 1.387 . S
C1195 C1197 1.387 . S
H1196 C1203 0.950 . S
C1197 C1195 1.387 . S
C1197 C1199 1.390 . S
C1197 H1201 0.950 . S
H1198 C1194 0.950 . S
C1199 C1197 1.390 . S
C1199 C1200 1.387 . S
C1199 H1202 0.950 . S
C1200 C1199 1.387 . S
C1200 C1203 1.387 . S
H1201 C1197 0.950 . S
H1202 C1199 0.950 . S
C1203 C1194 1.390 . S
C1203 H1196 0.950 . S
C1203 C1200 1.387 . S
C1204 C1205 1.387 . S
C1204 H1208 0.950 . S
C1204 C1213 1.390 . S
C1205 C1204 1.387 . S
C1205 C1207 1.387 . S
H1206 C1213 0.950 . S
C1207 C1205 1.387 . S
C1207 C1209 1.390 . S
C1207 H1211 0.950 . S
H1208 C1204 0.950 . S
C1209 C1207 1.390 . S
C1209 C1210 1.387 . S
C1209 H1212 0.950 . S
C1210 C1209 1.387 . S
C1210 C1213 1.387 . S
H1211 C1207 0.950 . S
H1212 C1209 0.950 . S
C1213 C1204 1.390 . S
C1213 H1206 0.950 . S
C1213 C1210 1.387 . S
C1214 C1215 1.387 . S
C1214 H1218 0.950 . S
C1214 C1223 1.390 . S
C1215 C1214 1.387 . S
C1215 C1217 1.387 . S
H1216 C1223 0.950 . S
C1217 C1215 1.387 . S
C1217 C1219 1.390 . S
C1217 H1221 0.950 . S
H1218 C1214 0.950 . S
C1219 C1217 1.390 . S
C1219 C1220 1.387 . S
C1219 H1222 0.950 . S
C1220 C1219 1.387 . S
C1220 C1223 1.387 . S
H1221 C1217 0.950 . S
H1222 C1219 0.950 . S
C1223 C1214 1.390 . S
C1223 H1216 0.950 . S
C1223 C1220 1.387 . S
C1224 C1225 1.387 . S
C1224 H1228 0.950 . S
C1224 C1233 1.390 . S
C1225 C1224 1.387 . S
C1225 C1227 1.387 . S
H1226 C1233 0.950 . S
C1227 C1225 1.387 . S
C1227 C1229 1.390 . S
C1227 H1231 0.950 . S
H1228 C1224 0.950 . S
C1229 C1227 1.390 . S
C1229 C1230 1.387 . S
C1229 H1232 0.950 . S
C1230 C1229 1.387 . S
C1230 C1233 1.387 . S
H1231 C1227 0.950 . S
H1232 C1229 0.950 . S
C1233 C1224 1.390 . S
C1233 H1226 0.950 . S
C1233 C1230 1.387 . S
C1234 C1235 1.387 . S
C1234 H1238 0.950 . S
C1234 C1243 1.390 . S
C1235 C1234 1.387 . S
C1235 C1237 1.387 . S
H1236 C1243 0.950 . S
C1237 C1235 1.387 . S
C1237 C1239 1.390 . S
C1237 H1241 0.950 . S
H1238 C1234 0.950 . S
C1239 C1237 1.390 . S
C1239 C1240 1.387 . S
C1239 H1242 0.950 . S
C1240 C1239 1.387 . S
C1240 C1243 1.387 . S
H1241 C1237 0.950 . S
H1242 C1239 0.950 . S
C1243 C1234 1.390 . S
C1243 H1236 0.950 . S
C1243 C1240 1.387 . S
C1244 C1245 1.387 . S
C1244 H1248 0.950 . S
C1244 C1253 1.390 . S
C1245 C1244 1.387 . S
C1245 C1247 1.387 . S
H1246 C1253 0.950 . S
C1247 C1245 1.387 . S
C1247 C1249 1.390 . S
C1247 H1251 0.950 . S
H1248 C1244 0.950 . S
C1249 C1247 1.390 . S
C1249 C1250 1.387 . S
C1249 H1252 0.950 . S
C1250 C1249 1.387 . S
C1250 C1253 1.387 . S
H1251 C1247 0.950 . S
H1252 C1249 0.950 . S
C1253 C1244 1.390 . S
C1253 H1246 0.950 . S
C1253 C1250 1.387 . S
C1254 C1255 1.387 . S
C1254 H1258 0.950 . S
C1254 C1263 1.390 . S
C1255 C1254 1.387 . S
C1255 C1257 1.387 . S
H1256 C1263 0.950 . S
C1257 C1255 1.387 . S
C1257 C1259 1.390 . S
C1257 H1261 0.950 . S
H1258 C1254 0.950 . S
C1259 C1257 1.390 . S
C1259 C1260 1.387 . S
C1259 H1262 0.950 . S
C1260 C1259 1.387 . S
C1260 C1263 1.387 . S
H1261 C1257 0.950 . S
H1262 C1259 0.950 . S
C1263 C1254 1.390 . S
C1263 H1256 0.950 . S
C1263 C1260 1.387 . S
C1264 C1265 1.387 . S
C1264 H1268 0.950 . S
C1264 C1273 1.390 . S
C1265 C1264 1.387 . S
C1265 C1267 1.387 . S
H1266 C1273 0.950 . S
C1267 C1265 1.387 . S
C1267 C1269 1.390 . S
C1267 H1271 0.950 . S
H1268 C1264 0.950 . S
C1269 C1267 1.390 . S
C1269 C1270 1.387 . S
C1269 H1272 0.950 . S
C1270 C1269 1.387 . S
C1270 C1273 1.387 . S
H1271 C1267 0.950 . S
H1272 C1269 0.950 . S
C1273 C1264 1.390 . S
C1273 H1266 0.950 . S
C1273 C1270 1.387 . S
C1274 C1275 1.387 . S
C1274 H1278 0.950 . S
C1274 C1283 1.390 . S
C1275 C1274 1.387 . S
C1275 C1277 1.387 . S
H1276 C1283 0.950 . S
C1277 C1275 1.387 . S
C1277 C1279 1.390 . S
C1277 H1281 0.950 . S
H1278 C1274 0.950 . S
C1279 C1277 1.390 . S
C1279 C1280 1.387 . S
C1279 H1282 0.950 . S
C1280 C1279 1.387 . S
C1280 C1283 1.387 . S
H1281 C1277 0.950 . S
H1282 C1279 0.950 . S
C1283 C1274 1.390 . S
C1283 H1276 0.950 . S
C1283 C1280 1.387 . S
C1284 C1285 1.387 . S
C1284 H1288 0.950 . S
C1284 C1293 1.390 . S
C1285 C1284 1.387 . S
C1285 C1287 1.387 . S
H1286 C1293 0.950 . S
C1287 C1285 1.387 . S
C1287 C1289 1.390 . S
C1287 H1291 0.950 . S
H1288 C1284 0.950 . S
C1289 C1287 1.390 . S
C1289 C1290 1.387 . S
C1289 H1292 0.950 . S
C1290 C1289 1.387 . S
C1290 C1293 1.387 . S
H1291 C1287 0.950 . S
H1292 C1289 0.950 . S
C1293 C1284 1.390 . S
C1293 H1286 0.950 . S
C1293 C1290 1.387 . S
C1294 C1295 1.387 . S
C1294 H1298 0.950 . S
C1294 C1303 1.390 . S
C1295 C1294 1.387 . S
C1295 C1297 1.387 . S
H1296 C1303 0.950 . S
C1297 C1295 1.387 . S
C1297 C1299 1.390 . S
C1297 H1301 0.950 . S
H1298 C1294 0.950 . S
C1299 C1297 1.390 . S
C1299 C1300 1.387 . S
C1299 H1302 0.950 . S
C1300 C1299 1.387 . S
C1300 C1303 1.387 . S
H1301 C1297 0.950 . S
H1302 C1299 0.950 . S
C1303 C1294 1.390 . S
C1303 H1296 0.950 . S
C1303 C1300 1.387 . S
C1304 C1305 1.387 . S
C1304 H1308 0.950 . S
C1304 C1313 1.390 . S
C1305 C1304 1.387 . S
C1305 C1307 1.387 . S
H1306 C1313 0.950 . S
C1307 C1305 1.387 . S
C1307 C1309 1.390 . S
C1307 H1311 0.950 . S
H1308 C1304 0.950 . S
C1309 C1307 1.390 . S
C1309 C1310 1.387 . S
C1309 H1312 0.950 . S
C1310 C1309 1.387 . S
C1310 C1313 1.387 . S
H1311 C1307 0.950 . S
H1312 C1309 0.950 . S
C1313 C1304 1.390 . S
C1313 H1306 0.950 . S
C1313 C1310 1.387 . S
C1314 C1315 1.387 . S
C1314 H1318 0.950 . S
C1314 C1323 1.390 . S
C1315 C1314 1.387 . S
C1315 C1317 1.387 . S
H1316 C1323 0.950 . S
C1317 C1315 1.387 . S
C1317 C1319 1.390 . S
C1317 H1321 0.950 . S
H1318 C1314 0.950 . S
C1319 C1317 1.390 . S
C1319 C1320 1.387 . S
C1319 H1322 0.950 . S
C1320 C1319 1.387 . S
C1320 C1323 1.387 . S
H1321 C1317 0.950 . S
H1322 C1319 0.950 . S
C1323 C1314 1.390 . S
C1323 H1316 0.950 . S
C1323 C1320 1.387 . S
C1324 C1325 1.387 . S
C1324 H1328 0.950 . S
C1324 C1333 1.390 . S
C1325 C1324 1.387 . S
C1325 C1327 1.387 . S
H1326 C1333 0.950 . S
C1327 C1325 1.387 . S
C1327 C1329 1.390 . S
C1327 H1331 0.950 . S
H1328 C1324 0.950 . S
C1329 C1327 1.390 . S
C1329 C1330 1.387 . S
C1329 H1332 0.950 . S
C1330 C1329 1.387 . S
C1330 C1333 1.387 . S
H1331 C1327 0.950 . S
H1332 C1329 0.950 . S
C1333 C1324 1.390 . S
C1333 H1326 0.950 . S
C1333 C1330 1.387 . S
C1334 C1335 1.387 . S
C1334 H1338 0.950 . S
C1334 C1343 1.390 . S
C1335 C1334 1.387 . S
C1335 C1337 1.387 . S
H1336 C1343 0.950 . S
C1337 C1335 1.387 . S
C1337 C1339 1.390 . S
C1337 H1341 0.950 . S
H1338 C1334 0.950 . S
C1339 C1337 1.390 . S
C1339 C1340 1.387 . S
C1339 H1342 0.950 . S
C1340 C1339 1.387 . S
C1340 C1343 1.387 . S
H1341 C1337 0.950 . S
H1342 C1339 0.950 . S
C1343 C1334 1.390 . S
C1343 H1336 0.950 . S
C1343 C1340 1.387 . S
C1344 C1345 1.387 . S
C1344 H1348 0.950 . S
C1344 C1353 1.390 . S
C1345 C1344 1.387 . S
C1345 C1347 1.387 . S
H1346 C1353 0.950 . S
C1347 C1345 1.387 . S
C1347 C1349 1.390 . S
C1347 H1351 0.950 . S
H1348 C1344 0.950 . S
C1349 C1347 1.390 . S
C1349 C1350 1.387 . S
C1349 H1352 0.950 . S
C1350 C1349 1.387 . S
C1350 C1353 1.387 . S
H1351 C1347 0.950 . S
H1352 C1349 0.950 . S
C1353 C1344 1.390 . S
C1353 H1346 0.950 . S
C1353 C1350 1.387 . S
C1354 C1355 1.387 . S
C1354 H1358 0.950 . S
C1354 C1363 1.390 . S
C1355 C1354 1.387 . S
C1355 C1357 1.387 . S
H1356 C1363 0.950 . S
C1357 C1355 1.387 . S
C1357 C1359 1.390 . S
C1357 H1361 0.950 . S
H1358 C1354 0.950 . S
C1359 C1357 1.390 . S
C1359 C1360 1.387 . S
C1359 H1362 0.950 . S
C1360 C1359 1.387 . S
C1360 C1363 1.387 . S
H1361 C1357 0.950 . S
H1362 C1359 0.950 . S
C1363 C1354 1.390 . S
C1363 H1356 0.950 . S
C1363 C1360 1.387 . S
C1364 C1365 1.387 . S
C1364 H1368 0.950 . S
C1364 C1373 1.390 . S
C1365 C1364 1.387 . S
C1365 C1367 1.387 . S
H1366 C1373 0.950 . S
C1367 C1365 1.387 . S
C1367 C1369 1.390 . S
C1367 H1371 0.950 . S
H1368 C1364 0.950 . S
C1369 C1367 1.390 . S
C1369 C1370 1.387 . S
C1369 H1372 0.950 . S
C1370 C1369 1.387 . S
C1370 C1373 1.387 . S
H1371 C1367 0.950 . S
H1372 C1369 0.950 . S
C1373 C1364 1.390 . S
C1373 H1366 0.950 . S
C1373 C1370 1.387 . S
C1374 C1375 1.387 . S
C1374 H1378 0.950 . S
C1374 C1383 1.390 . S
C1375 C1374 1.387 . S
C1375 C1377 1.387 . S
H1376 C1383 0.950 . S
C1377 C1375 1.387 . S
C1377 C1379 1.390 . S
C1377 H1381 0.950 . S
H1378 C1374 0.950 . S
C1379 C1377 1.390 . S
C1379 C1380 1.387 . S
C1379 H1382 0.950 . S
C1380 C1379 1.387 . S
C1380 C1383 1.387 . S
H1381 C1377 0.950 . S
H1382 C1379 0.950 . S
C1383 C1374 1.390 . S
C1383 H1376 0.950 . S
C1383 C1380 1.387 . S
C1384 C1385 1.387 . S
C1384 H1388 0.950 . S
C1384 C1393 1.390 . S
C1385 C1384 1.387 . S
C1385 C1387 1.387 . S
H1386 C1393 0.950 . S
C1387 C1385 1.387 . S
C1387 C1389 1.390 . S
C1387 H1391 0.950 . S
H1388 C1384 0.950 . S
C1389 C1387 1.390 . S
C1389 C1390 1.387 . S
C1389 H1392 0.950 . S
C1390 C1389 1.387 . S
C1390 C1393 1.387 . S
H1391 C1387 0.950 . S
H1392 C1389 0.950 . S
C1393 C1384 1.390 . S
C1393 H1386 0.950 . S
C1393 C1390 1.387 . S
C1394 C1395 1.387 . S
C1394 H1398 0.950 . S
C1394 C1403 1.390 . S
C1395 C1394 1.387 . S
C1395 C1397 1.387 . S
H1396 C1403 0.950 . S
C1397 C1395 1.387 . S
C1397 C1399 1.390 . S
C1397 H1401 0.950 . S
H1398 C1394 0.950 . S
C1399 C1397 1.390 . S
C1399 C1400 1.387 . S
C1399 H1402 0.950 . S
C1400 C1399 1.387 . S
C1400 C1403 1.387 . S
H1401 C1397 0.950 . S
H1402 C1399 0.950 . S
C1403 C1394 1.390 . S
C1403 H1396 0.950 . S
C1403 C1400 1.387 . S
C1404 C1405 1.387 . S
C1404 H1408 0.950 . S
C1404 C1413 1.390 . S
C1405 C1404 1.387 . S
C1405 C1407 1.387 . S
H1406 C1413 0.950 . S
C1407 C1405 1.387 . S
C1407 C1409 1.390 . S
C1407 H1411 0.950 . S
H1408 C1404 0.950 . S
C1409 C1407 1.390 . S
C1409 C1410 1.387 . S
C1409 H1412 0.950 . S
C1410 C1409 1.387 . S
C1410 C1413 1.387 . S
H1411 C1407 0.950 . S
H1412 C1409 0.950 . S
C1413 C1404 1.390 . S
C1413 H1406 0.950 . S
C1413 C1410 1.387 . S
C1414 C1415 1.387 . S
C1414 H1418 0.950 . S
C1414 C1423 1.390 . S
C1415 C1414 1.387 . S
C1415 C1417 1.387 . S
H1416 C1423 0.950 . S
C1417 C1415 1.387 . S
C1417 C1419 1.390 . S
C1417 H1421 0.950 . S
H1418 C1414 0.950 . S
C1419 C1417 1.390 . S
C1419 C1420 1.387 . S
C1419 H1422 0.950 . S
C1420 C1419 1.387 . S
C1420 C1423 1.387 . S
H1421 C1417 0.950 . S
H1422 C1419 0.950 . S
C1423 C1414 1.390 . S
C1423 H1416 0.950 . S
C1423 C1420 1.387 . S
C1424 C1425 1.387 . S
C1424 H1428 0.950 . S
C1424 C1433 1.390 . S
C1425 C1424 1.387 . S
C1425 C1427 1.387 . S
H1426 C1433 0.950 . S
C1427 C1425 1.387 . S
C1427 C1429 1.390 . S
C1427 H1431 0.950 . S
H1428 C1424 0.950 . S
C1429 C1427 1.390 . S
C1429 C1430 1.387 . S
C1429 H1432 0.950 . S
C1430 C1429 1.387 . S
C1430 C1433 1.387 . S
H1431 C1427 0.950 . S
H1432 C1429 0.950 . S
C1433 C1424 1.390 . S
C1433 H1426 0.950 . S
C1433 C1430 1.387 . S
C1434 C1435 1.387 . S
C1434 H1438 0.950 . S
C1434 C1443 1.390 . S
C1435 C1434 1.387 . S
C1435 C1437 1.387 . S
H1436 C1443 0.950 . S
C1437 C1435 1.387 . S
C1437 C1439 1.390 . S
C1437 H1441 0.950 . S
H1438 C1434 0.950 . S
C1439 C1437 1.390 . S
C1439 C1440 1.387 . S
C1439 H1442 0.950 . S
C1440 C1439 1.387 . S
C1440 C1443 1.387 . S
H1441 C1437 0.950 . S
H1442 C1439 0.950 . S
C1443 C1434 1.390 . S
C1443 H1436 0.950 . S
C1443 C1440 1.387 . S
C1444 C1445 1.387 . S
C1444 H1448 0.950 . S
C1444 C1453 1.390 . S
C1445 C1444 1.387 . S
C1445 C1447 1.387 . S
H1446 C1453 0.950 . S
C1447 C1445 1.387 . S
C1447 C1449 1.390 . S
C1447 H1451 0.950 . S
H1448 C1444 0.950 . S
C1449 C1447 1.390 . S
C1449 C1450 1.387 . S
C1449 H1452 0.950 . S
C1450 C1449 1.387 . S
C1450 C1453 1.387 . S
H1451 C1447 0.950 . S
H1452 C1449 0.950 . S
C1453 C1444 1.390 . S
C1453 H1446 0.950 . S
C1453 C1450 1.387 . S
C1454 C1455 1.387 . S
C1454 H1458 0.950 . S
C1454 C1463 1.390 . S
C1455 C1454 1.387 . S
C1455 C1457 1.387 . S
H1456 C1463 0.950 . S
C1457 C1455 1.387 . S
C1457 C1459 1.390 . S
C1457 H1461 0.950 . S
H1458 C1454 0.950 . S
C1459 C1457 1.390 . S
C1459 C1460 1.387 . S
C1459 H1462 0.950 . S
C1460 C1459 1.387 . S
C1460 C1463 1.387 . S
H1461 C1457 0.950 . S
H1462 C1459 0.950 . S
C1463 C1454 1.390 . S
C1463 H1456 0.950 . S
C1463 C1460 1.387 . S
C1464 C1465 1.387 . S
C1464 H1468 0.950 . S
C1464 C1473 1.390 . S
C1465 C1464 1.387 . S
C1465 C1467 1.387 . S
H1466 C1473 0.950 . S
C1467 C1465 1.387 . S
C1467 C1469 1.390 . S
C1467 H1471 0.950 . S
H1468 C1464 0.950 . S
C1469 C1467 1.390 . S
C1469 C1470 1.387 . S
C1469 H1472 0.950 . S
C1470 C1469 1.387 . S
C1470 C1473 1.387 . S
H1471 C1467 0.950 . S
H1472 C1469 0.950 . S
C1473 C1464 1.390 . S
C1473 H1466 0.950 . S
C1473 C1470 1.387 . S
C1474 C1475 1.387 . S
C1474 H1478 0.950 . S
C1474 C1483 1.390 . S
C1475 C1474 1.387 . S
C1475 C1477 1.387 . S
H1476 C1483 0.950 . S
C1477 C1475 1.387 . S
C1477 C1479 1.390 . S
C1477 H1481 0.950 . S
H1478 C1474 0.950 . S
C1479 C1477 1.390 . S
C1479 C1480 1.387 . S
C1479 H1482 0.950 . S
C1480 C1479 1.387 . S
C1480 C1483 1.387 . S
H1481 C1477 0.950 . S
H1482 C1479 0.950 . S
C1483 C1474 1.390 . S
C1483 H1476 0.950 . S
C1483 C1480 1.387 . S
C1484 C1485 1.387 . S
C1484 H1488 0.950 . S
C1484 C1493 1.390 . S
C1485 C1484 1.387 . S
C1485 C1487 1.387 . S
H1486 C1493 0.950 . S
C1487 C1485 1.387 . S
C1487 C1489 1.390 . S
C1487 H1491 0.950 . S
H1488 C1484 0.950 . S
C1489 C1487 1.390 . S
C1489 C1490 1.387 . S
C1489 H1492 0.950 . S
C1490 C1489 1.387 . S
C1490 C1493 1.387 . S
H1491 C1487 0.950 . S
H1492 C1489 0.950 . S
C1493 C1484 1.390 . S
C1493 H1486 0.950 . S
C1493 C1490 1.387 . S
C1494 C1495 1.387 . S
C1494 H1498 0.950 . S
C1494 C1503 1.390 . S
C1495 C1494 1.387 . S
C1495 C1497 1.387 . S
H1496 C1503 0.950 . S
C1497 C1495 1.387 . S
C1497 C1499 1.390 . S
C1497 H1501 0.950 . S
H1498 C1494 0.950 . S
C1499 C1497 1.390 . S
C1499 C1500 1.387 . S
C1499 H1502 0.950 . S
C1500 C1499 1.387 . S
C1500 C1503 1.387 . S
H1501 C1497 0.950 . S
H1502 C1499 0.950 . S
C1503 C1494 1.390 . S
C1503 H1496 0.950 . S
C1503 C1500 1.387 . S
C1504 C1505 1.387 . S
C1504 H1508 0.950 . S
C1504 C1513 1.390 . S
C1505 C1504 1.387 . S
C1505 C1507 1.387 . S
H1506 C1513 0.950 . S
C1507 C1505 1.387 . S
C1507 C1509 1.390 . S
C1507 H1511 0.950 . S
H1508 C1504 0.950 . S
C1509 C1507 1.390 . S
C1509 C1510 1.387 . S
C1509 H1512 0.950 . S
C1510 C1509 1.387 . S
C1510 C1513 1.387 . S
H1511 C1507 0.950 . S
H1512 C1509 0.950 . S
C1513 C1504 1.390 . S
C1513 H1506 0.950 . S
C1513 C1510 1.387 . S
C1514 C1515 1.387 . S
C1514 H1518 0.950 . S
C1514 C1523 1.390 . S
C1515 C1514 1.387 . S
C1515 C1517 1.387 . S
H1516 C1523 0.950 . S
C1517 C1515 1.387 . S
C1517 C1519 1.390 . S
C1517 H1521 0.950 . S
H1518 C1514 0.950 . S
C1519 C1517 1.390 . S
C1519 C1520 1.387 . S
C1519 H1522 0.950 . S
C1520 C1519 1.387 . S
C1520 C1523 1.387 . S
H1521 C1517 0.950 . S
H1522 C1519 0.950 . S
C1523 C1514 1.390 . S
C1523 H1516 0.950 . S
C1523 C1520 1.387 . S
C1524 C1525 1.387 . S
C1524 H1528 0.950 . S
C1524 C1533 1.390 . S
C1525 C1524 1.387 . S
C1525 C1527 1.387 . S
H1526 C1533 0.950 . S
C1527 C1525 1.387 . S
C1527 C1529 1.390 . S
C1527 H1531 0.950 . S
H1528 C1524 0.950 . S
C1529 C1527 1.390 . S
C1529 C1530 1.387 . S
C1529 H1532 0.950 . S
C1530 C1529 1.387 . S
C1530 C1533 1.387 . S
H1531 C1527 0.950 . S
H1532 C1529 0.950 . S
C1533 C1524 1.390 . S
C1533 H1526 0.950 . S
C1533 C1530 1.387 . S
C1534 C1535 1.387 . S
C1534 H1538 0.950 . S
C1534 C1543 1.390 . S
C1535 C1534 1.387 . S
C1535 C1537 1.387 . S
H1536 C1543 0.950 . S
C1537 C1535 1.387 . S
C1537 C1539 1.390 . S
C1537 H1541 0.950 . S
H1538 C1534 0.950 . S
C1539 C1537 1.390 . S
C1539 C1540 1.387 . S
C1539 H1542 0.950 . S
C1540 C1539 1.387 . S
C1540 C1543 1.387 . S
H1541 C1537 0.950 . S
H1542 C1539 0.950 . S
C1543 C1534 1.390 . S
C1543 H1536 0.950 . S
C1543 C1540 1.387 . S
C1544 C1545 1.387 . S
C1544 H1548 0.950 . S
C1544 C1553 1.390 . S
C1545 C1544 1.387 . S
C1545 C1547 1.387 . S
H1546 C1553 0.950 . S
C1547 C1545 1.387 . S
C1547 C1549 1.390 . S
C1547 H1551 0.950 . S
H1548 C1544 0.950 . S
C1549 C1547 1.390 . S
C1549 C1550 1.387 . S
C1549 H1552 0.950 . S
C1550 C1549 1.387 . S
C1550 C1553 1.387 . S
H1551 C1547 0.950 . S
H1552 C1549 0.950 . S
C1553 C1544 1.390 . S
C1553 H1546 0.950 . S
C1553 C1550 1.387 . S
C1554 C1555 1.387 . S
C1554 H1558 0.950 . S
C1554 C1563 1.390 . S
C1555 C1554 1.387 . S
C1555 C1557 1.387 . S
H1556 C1563 0.950 . S
C1557 C1555 1.387 . S
C1557 C1559 1.390 . S
C1557 H1561 0.950 . S
H1558 C1554 0.950 . S
C1559 C1557 1.390 . S
C1559 C1560 1.387 . S
C1559 H1562 0.950 . S
C1560 C1559 1.387 . S
C1560 C1563 1.387 . S
H1561 C1557 0.950 . S
H1562 C1559 0.950 . S
C1563 C1554 1.390 . S
C1563 H1556 0.950 . S
C1563 C1560 1.387 . S
C1564 C1565 1.387 . S
C1564 H1568 0.950 . S
C1564 C1573 1.390 . S
C1565 C1564 1.387 . S
C1565 C1567 1.387 . S
H1566 C1573 0.950 . S
C1567 C1565 1.387 . S
C1567 C1569 1.390 . S
C1567 H1571 0.950 . S
H1568 C1564 0.950 . S
C1569 C1567 1.390 . S
C1569 C1570 1.387 . S
C1569 H1572 0.950 . S
C1570 C1569 1.387 . S
C1570 C1573 1.387 . S
H1571 C1567 0.950 . S
H1572 C1569 0.950 . S
C1573 C1564 1.390 . S
C1573 H1566 0.950 . S
C1573 C1570 1.387 . S
C1574 C1575 1.387 . S
C1574 H1578 0.950 . S
C1574 C1583 1.390 . S
C1575 C1574 1.387 . S
C1575 C1577 1.387 . S
H1576 C1583 0.950 . S
C1577 C1575 1.387 . S
C1577 C1579 1.390 . S
C1577 H1581 0.950 . S
H1578 C1574 0.950 . S
C1579 C1577 1.390 . S
C1579 C1580 1.387 . S
C1579 H1582 0.950 . S
C1580 C1579 1.387 . S
C1580 C1583 1.387 . S
H1581 C1577 0.950 . S
H1582 C1579 0.950 . S
C1583 C1574 1.390 . S
C1583 H1576 0.950 . S
C1583 C1580 1.387 . S
C625 C407 1.436 . S
C630 C4 1.437 . S
C635 C23 1.436 . S
C640 C374 1.436 . S
C645 C30 1.436 . S
C650 C387 1.436 . S
C655 C394 1.436 . S
C660 C49 1.436 . S
C665 C335 1.436 . S
C670 C62 1.436 . S
C675 C69 1.436 . S
C680 C342 1.436 . S
C685 C361 1.436 . S
C690 C82 1.437 . S
C695 C95 1.436 . S
C700 C322 1.436 . S
C705 C114 1.436 . S
C710 C582 1.436 . S
C715 C537 1.436 . S
C720 C121 1.437 . S
C725 C556 1.436 . S
C730 C140 1.436 . S
C735 C147 1.437 . S
C740 C563 1.436 . S
C745 C160 1.436 . S
C750 C615 1.436 . S
C755 C179 1.436 . S
C760 C589 1.436 . S
C765 C192 1.437 . S
C770 C602 1.436 . S
C775 C524 1.436 . S
C780 C199 1.437 . S
C785 C511 1.437 . S
C790 C212 1.436 . S
C795 C225 1.436 . S
C800 C433 1.436 . S
C805 C446 1.436 . S
C810 C238 1.436 . S
C815 C257 1.436 . S
C820 C459 1.436 . S
C825 C426 1.436 . S
C830 C270 1.436 . S
C835 C491 1.437 . S
C840 C277 1.436 . S
C845 C296 1.436 . S
C850 C498 1.436 . S
C855 C478 1.436 . S
C860 C303 1.436 . S
C865 C127 1.670 . S
C870 C10 1.670 . S
C875 C134 1.670 . S
C880 C17 1.670 . S
C885 C36 1.670 . S
C890 C153 1.670 . S
C895 C108 1.670 . S
C900 C43 1.670 . S
C905 C56 1.670 . S
C910 C205 1.670 . S
C915 C166 1.670 . S
C920 C75 1.670 . S
C925 C173 1.670 . S
C930 C88 1.670 . S
C935 C186 1.670 . S
C940 C101 1.670 . S
C945 C244 1.670 . S
C950 C218 1.670 . S
C955 C290 1.670 . S
C960 C231 1.670 . S
C965 C309 1.670 . S
C970 C251 1.670 . S
C975 C264 1.670 . S
C980 C283 1.670 . S
C985 C439 1.670 . S
C990 C316 1.670 . S
C995 C452 1.670 . S
C1000 C329 1.670 . S
C1005 C465 1.670 . S
C1010 C348 1.670 . S
C1015 C355 1.670 . S
C1020 C420 1.670 . S
C1025 C368 1.670 . S
C1030 C517 1.670 . S
C1035 C381 1.670 . S
C1040 C472 1.670 . S
C1045 C485 1.670 . S
C1050 C400 1.670 . S
C1055 C504 1.670 . S
C1060 C413 1.670 . S
C1065 C530 1.670 . S
C1070 C550 1.670 . S
C1075 C608 1.670 . S
C1080 C543 1.670 . S
C1085 C621 1.670 . S
C1090 C569 1.670 . S
C1095 C595 1.670 . S
C1100 C576 1.670 . S
C1105 C3 1.449 . S
C1110 C239 1.445 . S
C1115 C18 1.449 . S
C1120 C250 1.444 . S
C1125 C29 1.450 . S
C1130 C263 1.445 . S
C1135 C226 1.445 . S
C1140 C44 1.449 . S
C1145 C57 1.449 . S
C1150 C289 1.445 . S
C1155 C68 1.449 . S
C1160 C213 1.445 . S
C1165 C304 1.445 . S
C1170 C81 1.450 . S
C1175 C278 1.445 . S
C1180 C94 1.449 . S
C1185 C109 1.449 . S
C1190 C122 1.445 . S
C1195 C120 1.449 . S
C1200 C133 1.445 . S
C1205 C135 1.449 . S
C1210 C148 1.445 . S
C1215 C107 1.445 . S
C1220 C146 1.449 . S
C1225 C200 1.444 . S
C1230 C159 1.449 . S
C1235 C161 1.445 . S
C1240 C174 1.449 . S
C1245 C172 1.445 . S
C1250 C187 1.450 . S
C1255 C198 1.449 . S
C1260 C185 1.444 . S
C1265 C42 1.445 . S
C1270 C211 1.449 . S
C1275 C70 1.445 . S
C1280 C224 1.449 . S
C1285 C83 1.444 . S
C1290 C237 1.449 . S
C1295 C252 1.449 . S
C1300 C96 1.444 . S
C1305 C55 1.444 . S
C1310 C265 1.449 . S
C1315 C16 1.445 . S
C1320 C276 1.450 . S
C1325 C31 1.445 . S
C1330 C291 1.450 . S
C1335 C5 1.444 . S
C1340 C302 1.449 . S
C1345 C549 1.445 . S
C1350 C317 1.449 . S
C1355 C330 1.449 . S
C1360 C564 1.444 . S
C1365 C575 1.445 . S
C1370 C341 1.450 . S
C1375 C538 1.445 . S
C1380 C356 1.449 . S
C1385 C369 1.449 . S
C1390 C603 1.445 . S
C1395 C382 1.449 . S
C1400 C525 1.445 . S
C1405 C616 1.445 . S
C1410 C393 1.449 . S
C1415 C406 1.449 . S
C1420 C590 1.445 . S
C1425 C421 1.449 . S
C1430 C434 1.444 . S
C1435 C432 1.449 . S
C1440 C447 1.445 . S
C1445 C445 1.450 . S
C1450 C460 1.445 . S
C1455 C458 1.449 . S
C1460 C419 1.445 . S
C1465 C512 1.444 . S
C1470 C473 1.449 . S
C1475 C471 1.445 . S
C1480 C486 1.449 . S
C1485 C484 1.444 . S
C1490 C497 1.449 . S
C1495 C510 1.449 . S
C1500 C499 1.444 . S
C1505 C354 1.445 . S
C1510 C523 1.449 . S
C1515 C380 1.445 . S
C1520 C536 1.450 . S
C1525 C395 1.444 . S
C1530 C551 1.449 . S
C1535 C562 1.449 . S
C1540 C408 1.445 . S
C1545 C367 1.445 . S
C1550 C577 1.450 . S
C1555 C328 1.444 . S
C1560 C588 1.449 . S
C1565 C601 1.449 . S
C1570 C343 1.445 . S
C1575 C315 1.445 . S
C1580 C614 1.449 . S
