# Generated by pormake.
# Topology smm, (6)-cn, num edge types: 1
# Building blocks:
#     Node 0, Type 0, BuildingBlock: BETFEN_clean_sbu_0, # of connection points: 6
#     Node 1, Type 0, BuildingBlock: BETFEN_clean_sbu_0, # of connection points: 6
#     Node 2, Type 0, BuildingBlock: BETFEN_clean_sbu_0, # of connection points: 6
#     Node 3, Type 0, BuildingBlock: BETFEN_clean_sbu_0, # of connection points: 6
#     Node 4, Type 0, BuildingBlock: BETFEN_clean_sbu_0, # of connection points: 6
#     Node 5, Type 0, BuildingBlock: BETFEN_clean_sbu_0, # of connection points: 6
#     Node 6, Type 0, BuildingBlock: BETFEN_clean_sbu_0, # of connection points: 6
#     Node 7, Type 0, BuildingBlock: BETFEN_clean_sbu_0, # of connection points: 6
#     Node 8, Type 0, BuildingBlock: BETFEN_clean_sbu_0, # of connection points: 6
#     Edge 9, Type (0, 0), BuildingBlock: AJUNOK_clean_linker_0, # of connection points: 2
#     Edge 10, Type (0, 0), BuildingBlock: AJUNOK_clean_linker_0, # of connection points: 2
#     Edge 11, Type (0, 0), BuildingBlock: AJUNOK_clean_linker_0, # of connection points: 2
#     Edge 12, Type (0, 0), BuildingBlock: AJUNOK_clean_linker_0, # of connection points: 2
#     Edge 13, Type (0, 0), BuildingBlock: AJUNOK_clean_linker_0, # of connection points: 2
#     Edge 14, Type (0, 0), BuildingBlock: AJUNOK_clean_linker_0, # of connection points: 2
#     Edge 15, Type (0, 0), BuildingBlock: AJUNOK_clean_linker_0, # of connection points: 2
#     Edge 16, Type (0, 0), BuildingBlock: AJUNOK_clean_linker_0, # of connection points: 2
#     Edge 17, Type (0, 0), BuildingBlock: AJUNOK_clean_linker_0, # of connection points: 2
#     Edge 18, Type (0, 0), BuildingBlock: AJUNOK_clean_linker_0, # of connection points: 2
#     Edge 19, Type (0, 0), BuildingBlock: AJUNOK_clean_linker_0, # of connection points: 2
#     Edge 20, Type (0, 0), BuildingBlock: AJUNOK_clean_linker_0, # of connection points: 2
#     Edge 21, Type (0, 0), BuildingBlock: AJUNOK_clean_linker_0, # of connection points: 2
#     Edge 22, Type (0, 0), BuildingBlock: AJUNOK_clean_linker_0, # of connection points: 2
#     Edge 23, Type (0, 0), BuildingBlock: AJUNOK_clean_linker_0, # of connection points: 2
#     Edge 24, Type (0, 0), BuildingBlock: AJUNOK_clean_linker_0, # of connection points: 2
#     Edge 25, Type (0, 0), BuildingBlock: AJUNOK_clean_linker_0, # of connection points: 2
#     Edge 26, Type (0, 0), BuildingBlock: AJUNOK_clean_linker_0, # of connection points: 2
#     Edge 27, Type (0, 0), BuildingBlock: AJUNOK_clean_linker_0, # of connection points: 2
#     Edge 28, Type (0, 0), BuildingBlock: AJUNOK_clean_linker_0, # of connection points: 2
#     Edge 29, Type (0, 0), BuildingBlock: AJUNOK_clean_linker_0, # of connection points: 2
#     Edge 30, Type (0, 0), BuildingBlock: AJUNOK_clean_linker_0, # of connection points: 2
#     Edge 31, Type (0, 0), BuildingBlock: AJUNOK_clean_linker_0, # of connection points: 2
#     Edge 32, Type (0, 0), BuildingBlock: AJUNOK_clean_linker_0, # of connection points: 2
#     Edge 33, Type (0, 0), BuildingBlock: AJUNOK_clean_linker_0, # of connection points: 2
#     Edge 34, Type (0, 0), BuildingBlock: AJUNOK_clean_linker_0, # of connection points: 2
#     Edge 35, Type (0, 0), BuildingBlock: AJUNOK_clean_linker_0, # of connection points: 2
# Relax obj value: 0.150
# Max RMSD: 0.211
# Mean RMSD: 0.177
data_MOF--net-smm--node1-BETFEN_clean_sbu_0--edge1-AJUNOK_clean_linker_0
_symmetry_space_group_name_H-M    P1
_symmetry_Int_Tables_number       1
_symmetry_cell_setting            triclinic
loop_
_symmetry_equiv_pos_as_xyz
'x, y, z'
_cell_length_a     47.596475
_cell_length_b     65.18634
_cell_length_c     10.635688
_cell_angle_alpha  93.121496
_cell_angle_beta   95.039873
_cell_angle_gamma 123.60035
loop_
_atom_site_label
_atom_site_type_symbol
_atom_site_fract_x
_atom_site_fract_y
_atom_site_fract_z
_atom_type_partial_charge
Pr0 Pr 0.11772 0.25792 0.08045 0.0
Pr1 Pr 1.04842 0.21094 0.07311 0.0
C2 C 0.17302 0.30016 0.02591 0.0
C3 C 0.19373 0.32731 0.02174 0.0
C4 C 0.21462 0.34404 0.13058 0.0
C5 C 0.23842 0.36914 0.1202 0.0
C6 C 0.24196 0.3779 0.00079 0.0
C7 C 0.21992 0.3614 0.89324 0.0
C8 C 0.19618 0.33637 0.90353 0.0
C9 C 0.10043 0.2446 0.32127 0.0
C10 C 1.04923 0.26257 0.08757 0.0
C11 C 0.99921 0.1645 0.11042 0.0
C12 C 0.99637 0.14051 0.09195 0.0
C13 C 0.99506 0.13001 0.97047 0.0
C14 C 0.99437 0.10821 0.95526 0.0
C15 C 0.99527 0.09641 0.06097 0.0
C16 C 0.99636 0.10681 0.18231 0.0
C17 C 0.99684 0.12854 0.19751 0.0
C18 C 1.0654 0.22442 0.83307 0.0
C19 C 0.11688 0.20687 0.0754 0.0
O20 O 0.14493 0.28625 0.94543 0.0
O21 O 0.17192 0.29149 0.1349 0.0
O22 O 0.08091 0.24364 0.22951 0.0
O23 O 0.13084 0.25367 0.29212 0.0
O24 O 1.03045 0.23852 0.10186 0.0
O25 O 0.08172 0.2733 0.07003 0.0
O26 O 1.02237 0.18099 0.20252 0.0
O27 O 0.99758 0.17442 0.00845 0.0
O28 O 0.0852 0.22518 0.92343 0.0
O29 O 1.03524 0.21554 0.86408 0.0
O30 O 0.1346 0.2301 0.05003 0.0
O31 O 0.08532 0.19679 0.10016 0.0
H32 H 0.21347 0.33763 0.22302 0.0
H33 H 0.25465 0.38156 0.20508 0.0
H34 H 0.22215 0.36759 0.79993 0.0
H35 H 0.18077 0.32388 0.81772 0.0
H36 H 0.99498 0.13875 0.88687 0.0
H37 H 0.99364 0.10076 0.86057 0.0
H38 H 0.99648 0.09798 0.26552 0.0
H39 H 0.99789 0.13614 0.29229 0.0
Pr40 Pr 0.9822 0.84531 -0.01584 0.0
Pr41 Pr 0.97868 0.89568 0.97112 0.0
C42 C 0.97749 0.80144 0.03283 0.0
C43 C 0.96103 0.77253 0.02647 0.0
C44 C 0.96525 0.75836 0.93217 0.0
C45 C 0.9521 0.73235 0.9351 0.0
C46 C 0.93383 0.71851 0.0328 0.0
C47 C 0.93047 0.73305 0.1281 0.0
C48 C 0.94335 0.75882 0.12471 0.0
C49 C 0.96989 0.85621 0.74031 0.0
C50 C 0.90662 0.84197 0.94251 0.0
C51 C 0.97402 0.93276 0.89426 0.0
C52 C 0.9809 0.9577 0.92702 0.0
C53 C 0.98435 0.96743 0.05293 0.0
C54 C 0.98852 0.99044 0.07886 0.0
C55 C 0.98918 1.00408 0.97934 0.0
C56 C 0.98627 0.99435 0.8539 0.0
C57 C 0.98228 0.97151 0.82825 0.0
C58 C 0.97979 0.88355 0.22335 0.0
C59 C 1.05713 0.90903 0.01209 0.0
O60 O 0.96573 0.81199 0.09866 0.0
O61 O 0.99357 0.81494 0.94365 0.0
O62 O 0.98847 0.8718 0.83619 0.0
O63 O 0.95902 0.83398 0.76692 0.0
O64 O 0.92318 0.86323 0.89556 0.0
O65 O 0.92309 0.83218 -0.00857 0.0
O66 O 0.99978 0.93119 0.8786 0.0
O67 O 0.95036 0.91426 0.94679 0.0
O68 O 0.98063 0.87256 0.12371 0.0
O69 O 0.97897 0.9023 0.19327 0.0
O70 O 1.04392 0.88425 0.02071 0.0
O71 O 1.0369 0.91662 -0.01106 0.0
H72 H 0.97908 0.76745 0.85514 0.0
H73 H 0.95613 0.72298 0.85881 0.0
H74 H 0.91841 0.72473 0.20956 0.0
H75 H 0.9399 0.76828 0.20255 0.0
H76 H 0.98323 0.95706 0.13077 0.0
H77 H 0.99021 0.99721 0.17637 0.0
H78 H 0.98689 1.0044 0.77516 0.0
H79 H 0.97964 0.96438 0.7304 0.0
Pr80 Pr 0.27767 1.04537 0.00325 0.0
Pr81 Pr 0.24245 0.07337 0.02878 0.0
C82 C 0.31695 1.02808 0.96503 0.0
C83 C 0.3392 1.01865 0.95315 0.0
C84 C 0.35605 1.01693 0.0635 0.0
C85 C 0.37641 1.00767 0.05577 0.0
C86 C 0.3808 0.99989 0.93746 0.0
C87 C 0.36478 1.0022 0.82644 0.0
C88 C 0.34402 1.01133 0.83419 0.0
C89 C 0.26502 0.0521 0.24874 0.0
C90 C 0.32781 0.10945 0.01884 0.0
C91 C 0.20546 0.09272 0.08061 0.0
C92 C 0.19666 0.1118 0.07981 0.0
C93 C 0.19795 0.12411 0.97312 0.0
C94 C 0.18641 0.14005 0.97144 0.0
C95 C 0.17284 0.14413 0.0759 0.0
C96 C 0.17171 0.13178 0.18234 0.0
C97 C 0.18351 0.11607 0.18439 0.0
C98 C 0.2561 0.06799 0.78377 0.0
C99 C 0.19432 1.0076 0.01288 0.0
O100 O 0.29517 1.02617 0.87253 0.0
O101 O 0.31781 1.03884 0.07386 0.0
O102 O 0.27613 0.0684 0.17337 0.0
O103 O 0.26071 1.03177 0.1989 0.0
O104 O 0.30133 0.10949 0.05221 0.0
O105 O 0.32337 0.08768 -0.01435 0.0
O106 O 0.23047 0.096 0.16134 0.0
O107 O 0.20006 0.07912 0.97459 0.0
O108 O 0.24473 0.05112 0.85632 0.0
O109 O 0.25908 0.08772 0.83532 0.0
O110 O 0.22087 1.00859 0.9744 0.0
O111 O 0.19769 1.02921 0.0479 0.0
H112 H 0.35318 1.02245 0.15684 0.0
H113 H 0.3886 1.00639 0.1431 0.0
H114 H 0.36756 0.99631 0.73382 0.0
H115 H 0.33163 1.01253 0.74722 0.0
H116 H 0.20736 0.12109 0.8898 0.0
H117 H 0.18725 0.14864 0.88633 0.0
H118 H 0.16164 0.13427 0.26497 0.0
H119 H 0.18163 0.10675 0.26766 0.0
Pr120 Pr 0.79466 0.54965 0.03547 0.0
Pr121 Pr 0.8562 0.54698 0.04356 0.0
C122 C 0.74747 0.5586 0.07893 0.0
C123 C 0.74821 0.57996 0.13692 0.0
C124 C 0.74574 0.59596 0.0604 0.0
C125 C 0.74917 0.61726 0.11615 0.0
C126 C 0.75542 0.62292 0.24902 0.0
C127 C 0.75627 0.60633 0.32526 0.0
C128 C 0.75271 0.58507 0.26991 0.0
C129 C 0.81082 0.54356 0.79745 0.0
C130 C 0.86953 0.60545 0.0502 0.0
C131 C 0.89905 0.53188 0.01219 0.0
C132 C 0.90557 0.512 0.03977 0.0
C133 C 0.92369 0.51347 0.15634 0.0
C134 C 0.93223 0.49613 0.1775 0.0
C135 C 0.92338 0.47663 0.08264 0.0
C136 C 0.90469 0.47493 0.96694 0.0
C137 C 0.89615 0.49227 0.94579 0.0
C138 C 0.84157 0.55372 0.2818 0.0
C139 C 0.7736 0.49239 0.03049 0.0
O140 O 0.75711 0.54796 0.15606 0.0
O141 O 0.75884 0.56071 0.96947 0.0
O142 O 0.83195 0.55795 0.89199 0.0
O143 O 0.77977 0.53151 0.82355 0.0
O144 O 0.88246 0.5921 0.0185 0.0
O145 O 0.83838 0.59294 0.08249 0.0
O146 O 0.87345 0.52625 0.92671 0.0
O147 O 0.90438 0.5481 0.10579 0.0
O148 O 0.81982 0.53904 0.18871 0.0
O149 O 0.8724 0.56506 0.25398 0.0
O150 O 0.76253 0.50687 0.04 0.0
O151 O 0.80687 0.50282 0.02326 0.0
H152 H 0.74183 0.59228 0.95762 0.0
H153 H 0.74794 0.62967 0.05567 0.0
H154 H 0.75967 0.60979 0.42805 0.0
H155 H 0.75403 0.57287 0.33176 0.0
H156 H 0.93172 0.52827 0.23164 0.0
H157 H 0.94571 0.49803 0.26937 0.0
H158 H 0.8973 0.46045 0.89061 0.0
H159 H 0.8826 0.49043 0.85411 0.0
Pr160 Pr 0.55217 0.2082 0.08266 0.0
Pr161 Pr 0.55317 0.25529 0.05732 0.0
C162 C 0.5461 0.16822 0.16708 0.0
C163 C 0.54227 0.14616 0.21531 0.0
C164 C 0.56247 0.13793 0.17921 0.0
C165 C 0.56387 0.1203 0.24352 0.0
C166 C 0.54509 0.11064 0.34477 0.0
C167 C 0.52297 0.11752 0.37419 0.0
C168 C 0.52173 0.13523 0.3106 0.0
C169 C 0.55367 0.22026 0.83247 0.0
C170 C 0.47464 0.19873 0.03809 0.0
C171 C 0.5776 0.30324 0.00768 0.0
C172 C 0.60988 0.32992 0.01883 0.0
C173 C 0.61814 0.34797 0.1214 0.0
C174 C 0.64568 0.37326 0.12639 0.0
C175 C 0.66647 0.38219 0.02833 0.0
C176 C 0.659 0.36397 0.92768 0.0
C177 C 0.63132 0.33856 0.92263 0.0
C178 C 0.55319 0.24333 0.30643 0.0
C179 C 0.62698 0.25704 0.09449 0.0
O180 O 0.53346 0.17951 0.21934 0.0
O181 O 0.56082 0.1772 0.06672 0.0
O182 O 0.5361 0.22198 0.91006 0.0
O183 O 0.56886 0.21033 0.88035 0.0
O184 O 0.49017 0.22288 0.01701 0.0
O185 O 0.49357 0.19039 0.07139 0.0
O186 O 0.57337 0.28586 0.92438 0.0
O187 O 0.56409 0.29408 0.10974 0.0
O188 O 0.57056 0.24222 0.22603 0.0
O189 O 0.53637 0.25225 0.26079 0.0
O190 O 0.61015 0.236 0.1425 0.0
O191 O 0.6103 0.26622 0.04369 0.0
H192 H 0.57861 0.14609 0.10619 0.0
H193 H 0.58099 0.1152 0.21851 0.0
H194 H 0.50747 0.10981 0.44937 0.0
H195 H 0.50572 0.14109 0.33977 0.0
H196 H 0.60277 0.34264 0.19794 0.0
H197 H 0.65053 0.38596 0.20826 0.0
H198 H 0.6739 0.36949 0.84979 0.0
H199 H 0.62628 0.32572 0.84108 0.0
Pr200 Pr 1.01515 0.38668 0.19129 0.0
Pr201 Pr 0.94048 0.34401 0.11585 0.0
C202 C 0.08001 0.41836 0.30557 0.0
C203 C 0.11577 0.43651 0.36696 0.0
C204 C 0.13213 0.46174 0.35197 0.0
C205 C 0.1665 0.47884 0.40109 0.0
C206 C 0.1858 0.47123 0.46525 0.0
C207 C 0.16913 0.44602 0.48351 0.0
C208 C 0.13442 0.42888 0.43552 0.0
C209 C 0.99409 0.37605 0.92895 0.0
C210 C 0.99673 0.32804 0.12638 0.0
C211 C 0.87273 0.31372 0.02548 0.0
C212 C 0.839 0.30958 0.04209 0.0
C213 C 0.82641 0.30496 0.15965 0.0
C214 C 0.79343 0.29887 0.17074 0.0
C215 C 0.77194 0.29728 0.06497 0.0
C216 C 0.78487 0.30245 0.94807 0.0
C217 C 0.81785 0.30848 0.93691 0.0
C218 C 0.96225 0.35446 0.37757 0.0
C219 C 0.9614 0.40361 0.1495 0.0
O220 O 1.0585 0.39778 0.35095 0.0
O221 O 1.06755 0.42228 0.20216 0.0
O222 O 0.98592 0.36002 0.0048 0.0
O223 O 1.01538 0.39839 -0.0132 0.0
O224 O 0.96513 0.32075 0.08011 0.0
O225 O 1.0189 0.35132 0.18055 0.0
O226 O 0.89431 0.33293 0.97132 0.0
O227 O 0.88789 0.30906 0.11687 0.0
O228 O 0.96967 0.37069 0.30325 0.0
O229 O 0.94194 0.33226 0.31786 0.0
O230 O 0.9915 0.41041 0.20915 0.0
O231 O 0.93933 0.38019 0.09804 0.0
H232 H 0.11841 0.46827 0.30083 0.0
H233 H 0.17818 0.49812 0.38685 0.0
H234 H 0.18315 0.43934 0.53055 0.0
H235 H 0.1225 0.40951 0.44817 0.0
H236 H 0.84179 0.30558 0.24302 0.0
H237 H 0.78459 0.29514 0.26247 0.0
H238 H 0.76904 0.30095 0.86371 0.0
H239 H 0.82652 0.31167 0.84471 0.0
Pr240 Pr 0.53255 0.958 0.94728 0.0
Pr241 Pr 0.46773 0.90988 0.94529 0.0
C242 C 0.58094 1.00301 0.89103 0.0
C243 C 0.57787 1.01877 0.80529 0.0
C244 C 0.60179 1.0445 0.82255 0.0
C245 C 0.59723 0.05953 0.7462 0.0
C246 C 0.56854 1.04899 0.65231 0.0
C247 C 0.54507 1.02312 0.63349 0.0
C248 C 0.54964 1.00815 0.7096 0.0
C249 C 0.51848 0.9451 0.19121 0.0
C250 C 0.46096 0.95589 0.94045 0.0
C251 C 0.41347 0.86566 0.97971 0.0
C252 C 0.40049 0.84071 0.92235 0.0
C253 C 0.40691 0.83717 0.79948 0.0
C254 C 0.39985 0.81429 0.75188 0.0
C255 C 0.3866 0.79484 0.8271 0.0
C256 C 0.37899 0.79809 0.94813 0.0
C257 C 0.38586 0.821 -0.00445 0.0
C258 C 0.48342 0.92261 0.70061 0.0
C259 C 0.53896 0.91003 0.95504 0.0
O260 O 0.57512 0.98238 0.83573 0.0
O261 O 0.5662 0.99992 -0.00715 0.0
O262 O 0.49736 0.94274 0.10175 0.0
O263 O 0.54869 0.95527 0.1578 0.0
O264 O 0.45076 0.93606 -0.0024 0.0
O265 O 0.48933 0.96552 0.88835 0.0
O266 O 0.44278 0.87662 0.05334 0.0
O267 O 0.41162 0.87997 0.90275 0.0
O268 O 0.50352 0.92482 0.79305 0.0
O269 O 0.45301 0.91257 0.73077 0.0
O270 O 0.55504 0.93357 0.9344 0.0
O271 O 0.5066 0.89763 0.97407 0.0
H272 H 0.62367 0.05297 0.89603 0.0
H273 H 0.61602 0.0794 0.76095 0.0
H274 H 0.52272 1.01455 0.56211 0.0
H275 H 0.53077 0.98827 0.69519 0.0
H276 H 0.41888 0.8524 0.7427 0.0
H277 H 0.40646 0.81221 0.65929 0.0
H278 H 0.36885 0.78318 0.00728 0.0
H279 H 0.38122 0.82365 0.09113 0.0
Pr280 Pr 0.41421 0.57817 0.67768 0.0
Pr281 Pr 0.38633 0.60868 0.63644 0.0
C282 C 0.42358 0.54385 0.76085 0.0
C283 C 0.39988 0.52089 0.81417 0.0
C284 C 0.40179 0.50024 0.79728 0.0
C285 C 0.37737 0.47781 0.8387 0.0
C286 C 0.35061 0.4757 0.8971 0.0
C287 C 0.34907 0.49652 0.9154 0.0
C288 C 0.37352 0.51892 0.87473 0.0
C289 C 0.41007 0.58782 0.42525 0.0
C290 C 0.3306 0.55014 0.60568 0.0
C291 C 0.36808 0.6382 0.5533 0.0
C292 C 0.37397 0.66214 0.59437 0.0
C293 C 0.36997 0.66762 0.71826 0.0
C294 C 0.37375 0.68992 0.75367 0.0
C295 C 0.38192 0.70712 0.66625 0.0
C296 C 0.38742 0.70209 0.54417 0.0
C297 C 0.38321 0.67959 0.50812 0.0
C298 C 0.39012 0.59912 0.88936 0.0
C299 C 0.47113 0.63915 0.71149 0.0
O300 O 0.43382 0.56455 0.83062 0.0
O301 O 0.4154 0.54405 0.64056 0.0
O302 O 0.38777 0.58163 0.49727 0.0
O303 O 0.43616 0.58866 0.4821 0.0
O304 O 0.33898 0.57004 0.55213 0.0
O305 O 0.35414 0.55021 0.68206 0.0
O306 O 0.39415 0.63874 0.51817 0.0
O307 O 0.34981 0.62021 0.62052 0.0
O308 O 0.41254 0.60507 0.81834 0.0
O309 O 0.36503 0.5994 0.83263 0.0
O310 O 0.4661 0.6175 0.73135 0.0
O311 O 0.44543 0.6403 0.66453 0.0
H312 H 0.42169 0.50132 0.74967 0.0
H313 H 0.3788 0.4619 0.82156 0.0
H314 H 0.32878 0.49539 0.96039 0.0
H315 H 0.37146 0.5346 0.88866 0.0
H316 H 0.36332 0.65453 0.78708 0.0
H317 H 0.36942 0.69345 0.8484 0.0
H318 H 0.39464 0.71543 0.47645 0.0
H319 H 0.3868 0.6757 0.41268 0.0
Pr320 Pr 0.68704 0.74647 0.85749 0.0
Pr321 Pr 0.68087 0.78971 0.89708 0.0
C322 C 0.70268 0.71338 0.81073 0.0
C323 C 0.72225 0.70929 0.72732 0.0
C324 C 0.73425 0.69492 0.76407 0.0
C325 C 0.7489 0.68788 0.67919 0.0
C326 C 0.75175 0.69519 0.55647 0.0
C327 C 0.74157 0.7109 0.52259 0.0
C328 C 0.72702 0.71805 0.60812 0.0
C329 C 0.6809 0.75767 0.10679 0.0
C330 C 0.75783 0.79908 0.89263 0.0
C331 C 0.66664 0.8233 0.97647 0.0
C332 C 0.64637 0.83462 0.95933 0.0
C333 C 0.6637 0.86051 0.96166 0.0
C334 C 0.64609 0.87218 0.95717 0.0
C335 C 0.61024 0.85841 0.94887 0.0
C336 C 0.59282 0.83238 0.9465 0.0
C337 C 0.61056 0.82068 0.95179 0.0
C338 C 0.68586 0.78002 0.64597 0.0
C339 C 0.60971 0.72947 0.82416 0.0
O340 O 0.67512 0.71085 0.75541 0.0
O341 O 0.72019 0.73218 0.9002 0.0
O342 O 0.69962 0.77334 0.03717 0.0
O343 O 0.66482 0.73528 0.04936 0.0
O344 O 0.74153 0.80704 0.95447 0.0
O345 O 0.73955 0.77849 0.81399 0.0
O346 O 0.65247 0.8012 0.0131 0.0
O347 O 0.68948 0.82801 0.90202 0.0
O348 O 0.66845 0.76353 0.71536 0.0
O349 O 0.69935 0.80218 0.70333 0.0
O350 O 0.62982 0.72299 0.79116 0.0
O351 O 0.62239 0.75279 0.8736 0.0
H352 H 0.73075 0.68813 0.85604 0.0
H353 H 0.75578 0.67528 0.70662 0.0
H354 H 0.7434 0.71661 0.42823 0.0
H355 H 0.71808 0.72942 0.57921 0.0
H356 H 0.69126 0.87195 0.97014 0.0
H357 H 0.66089 0.89223 0.96376 0.0
H358 H 0.56532 0.82097 0.94023 0.0
H359 H 0.59621 0.80074 0.95123 0.0
C360 C 0.26271 0.41817 0.91321 0.0
C361 C 0.26979 0.4037 -0.01445 0.0
C362 C 0.28894 0.44168 0.88785 0.0
C363 C 0.32328 0.4515 0.93269 0.0
H364 H 0.23669 0.41111 0.87456 0.0
H365 H 0.28237 0.45195 0.82953 0.0
S366 S 0.35543 0.42153 0.12976 0.0
N367 N 0.3137 0.40118 0.10387 0.0
N368 N 0.36291 0.44548 0.05701 0.0
C369 C 0.33069 0.43749 0.00728 0.0
C370 C 0.30398 0.41361 0.03378 0.0
C371 C 0.84386 0.80516 0.9065 0.0
C372 C 0.86882 0.83053 0.94466 0.0
C373 C 0.80854 0.79552 0.89206 0.0
C374 C 0.79602 0.81052 0.91731 0.0
H375 H 0.85161 0.7928 0.88269 0.0
H376 H 0.79077 0.77591 0.85944 0.0
S377 S 0.85067 0.87793 0.02973 0.0
N378 N 0.87812 0.87034 0.01345 0.0
N379 N 0.8124 0.85207 -0.01067 0.0
C380 C 0.82072 0.83569 0.96062 0.0
C381 C 0.85671 0.84564 0.97315 0.0
C382 C 0.42878 0.99744 0.86637 0.0
C383 C 0.4004 0.9881 0.9325 0.0
C384 C 0.44837 0.98714 0.86903 0.0
C385 C 0.44014 0.96688 0.93672 0.0
H386 H 0.43634 1.01316 0.81444 0.0
H387 H 0.47015 0.99519 0.81792 0.0
S388 S 0.36653 0.93456 0.11807 0.0
N389 N 0.3642 0.95675 0.06206 0.0
N390 N 0.40017 0.93741 0.06742 0.0
C391 C 0.41121 0.95711 0.0006 0.0
C392 C 0.39162 0.96768 -0.00163 0.0
C393 C 0.42465 0.15312 -0.01725 0.0
C394 C 0.4355 0.17805 0.01962 0.0
C395 C 0.39069 0.13208 -0.0186 0.0
C396 C 0.36399 0.13376 0.01754 0.0
H397 H 0.44311 0.14952 0.9559 0.0
H398 H 0.3856 0.114 0.95298 0.0
S399 S 0.37642 0.1943 0.11987 0.0
N400 N 0.41481 0.20274 0.09136 0.0
N401 N 0.35155 0.16369 0.08869 0.0
C402 C 0.3739 0.15863 0.05209 0.0
C403 C 0.40902 0.18037 0.05303 0.0
C404 C 1.04406 0.32016 0.12869 0.0
C405 C 1.00882 0.31053 0.11414 0.0
C406 C 1.05647 0.30473 0.11871 0.0
C407 C 1.03458 0.27849 0.09593 0.0
H408 H 1.06258 0.34004 0.14722 0.0
H409 H 0.0838 0.31363 0.13063 0.0
S410 S 0.93989 0.24315 0.05101 0.0
N411 N 0.95213 0.2724 0.07429 0.0
N412 N 0.97515 0.24373 0.05904 0.0
C413 C 0.99923 0.26853 0.08192 0.0
C414 C 0.98654 0.28433 0.08989 0.0
C415 C 0.93321 0.67714 -0.00747 0.0
C416 C 0.9181 0.68963 0.03601 0.0
C417 C 0.91873 0.65085 -0.00166 0.0
C418 C 0.88762 0.63459 0.04732 0.0
H419 H 0.95697 0.68785 0.95415 0.0
H420 H 0.93211 0.64321 0.96263 0.0
S421 S 0.83555 0.65644 0.16513 0.0
N422 N 0.86819 0.68176 0.12289 0.0
N423 N 0.84218 0.63447 0.13647 0.0
C424 C 0.87226 0.64695 0.08925 0.0
C425 C 0.88692 0.67346 0.08313 0.0
C426 C 0.27722 0.52485 0.4516 0.0
C427 C 0.29493 0.52791 0.57181 0.0
C428 C 0.24256 0.50611 0.41803 0.0
C429 C 0.22351 0.48953 0.50342 0.0
H430 H 0.29018 0.53731 0.38241 0.0
H431 H 0.23047 0.50483 0.32404 0.0
S432 S 0.25789 0.48898 0.82999 0.0
N433 N 0.29117 0.51215 0.77566 0.0
N434 N 0.22555 0.47705 0.71397 0.0
C435 C 0.2411 0.49178 0.62307 0.0
C436 C 0.27683 0.51091 0.65692 0.0
C437 C 0.7351 0.66901 0.35029 0.0
C438 C 0.75926 0.68259 0.45937 0.0
C439 C 0.73548 0.6508 0.27633 0.0
C440 C 0.75994 0.64562 0.30978 0.0
H441 H 0.71408 0.67094 0.3281 0.0
H442 H 0.715 0.63947 0.19863 0.0
S443 S 0.83301 0.67989 0.56971 0.0
N444 N 0.81152 0.69269 0.58441 0.0
N445 N 0.81211 0.65819 0.44619 0.0
C446 C 0.7862 0.66079 0.41095 0.0
C447 C 0.78592 0.67941 0.48553 0.0
C448 C 0.5493 0.07431 0.36799 0.0
C449 C 0.55033 0.09476 0.42472 0.0
C450 C 0.5551 0.05953 0.44222 0.0
C451 C 0.56254 0.06487 0.57562 0.0
H452 H 0.54379 0.06964 0.26555 0.0
H453 H 0.55414 1.04398 0.3948 0.0
S454 S 0.56814 0.11628 0.77056 0.0
N455 N 0.55963 0.11971 0.62231 0.0
N456 N 0.56984 0.09164 0.76156 0.0
C457 C 0.56353 0.0852 0.63348 0.0
C458 C 0.55755 0.10019 0.55812 0.0
C459 C 0.12788 0.15282 0.11738 0.0
C460 C 0.15918 0.16056 0.07383 0.0
C461 C 0.11459 0.16767 0.11687 0.0
C462 C 0.13197 0.1914 0.07445 0.0
H463 H 0.11312 0.13484 0.15095 0.0
H464 H 0.09034 0.16039 0.15079 0.0
S465 S 0.21546 0.22108 0.95345 0.0
N466 N 0.20741 0.19411 -0.01143 0.0
N467 N 0.18285 0.2218 -0.01186 0.0
C468 C 0.16341 0.19945 0.03126 0.0
C469 C 0.17679 0.18418 0.03064 0.0
C470 C 0.96845 1.03132 0.93108 0.0
C471 C 0.99131 1.0278 0.00407 0.0
C472 C 0.96992 0.05343 0.9503 0.0
C473 C 0.99431 0.07306 0.04354 0.0
H474 H 0.94895 1.01673 0.8589 0.0
H475 H 0.95153 0.05506 0.89231 0.0
S476 S 1.06196 0.07424 0.25304 0.0
N477 N 1.04031 1.0465 0.16907 0.0
N478 N 1.04311 0.088 0.20509 0.0
C479 C 1.01758 0.06993 0.11644 0.0
C480 C 1.01607 1.04736 0.09684 0.0
C481 C 0.12057 0.93493 0.95769 0.0
C482 C 0.09542 0.93181 0.03279 0.0
C483 C 0.15209 0.95878 0.95383 0.0
C484 C 0.16056 0.98158 0.02117 0.0
H485 H 0.11531 0.91902 0.8965 0.0
H486 H 0.16958 0.95941 0.89306 0.0
S487 S 0.10495 0.9845 0.23637 0.0
N488 N 0.08342 0.95475 0.18135 0.0
N489 N 0.14018 0.99814 0.17018 0.0
C490 C 0.13595 0.97853 0.09792 0.0
C491 C 0.10449 0.95438 0.10424 0.0
C492 C 0.9108 0.43266 0.05951 0.0
C493 C 0.93357 0.4583 0.10318 0.0
C494 C 0.91976 0.41537 0.07609 0.0
C495 C 0.95215 0.42256 0.13694 0.0
H496 H 0.88547 0.42571 0.01263 0.0
H497 H 0.90092 0.39606 0.04004 0.0
S498 S 1.02233 0.48759 0.2638 0.0
N499 N 0.99093 0.48989 0.20657 0.0
N500 N 1.00743 0.45783 0.23846 0.0
C501 C 0.97525 0.44817 0.18065 0.0
C502 C 0.96611 0.46578 0.16384 0.0
C503 C 0.75276 0.44551 -0.0037 0.0
C504 C 0.74709 0.46413 0.0315 0.0
C505 C 0.72712 0.41946 -0.00586 0.0
C506 C 0.69429 0.41028 0.02911 0.0
H507 H 0.77715 0.45103 0.96867 0.0
H508 H 0.73333 0.40637 0.966 0.0
S509 S 0.66517 0.45051 0.1266 0.0
N510 N 0.7047 0.47041 0.10155 0.0
N511 N 0.65798 0.42281 0.09606 0.0
C512 C 0.68844 0.42871 0.06417 0.0
C513 C 0.7142 0.45501 0.06572 0.0
C514 C 0.6808 0.25835 0.14633 0.0
C515 C 0.66459 0.26912 0.09109 0.0
C516 C 0.71524 0.2678 0.13887 0.0
C517 C 0.73553 0.28853 0.07533 0.0
H518 H 0.66667 0.2421 0.19486 0.0
H519 H 0.72582 0.25831 0.18099 0.0
S520 S 0.7068 0.32501 0.92163 0.0
N521 N 0.67252 0.30268 0.97511 0.0
N522 N 0.73712 0.32046 0.96167 0.0
C523 C 0.72001 0.2999 0.02175 0.0
C524 C 0.68476 0.29028 0.02974 0.0
C525 C 0.56419 0.86394 0.01643 0.0
C526 C 0.59149 0.87127 0.94591 0.0
C527 C 0.54734 0.87633 0.01861 0.0
C528 C 0.55712 0.89693 0.95163 0.0
H529 H 0.55604 0.84871 0.0726 0.0
H530 H 0.52677 0.86992 0.07517 0.0
S531 S 0.62395 0.92185 0.7391 0.0
N532 N 0.6249 0.89921 0.79676 0.0
N533 N 0.59442 0.92274 0.80468 0.0
C534 C 0.58381 0.90409 0.87858 0.0
C535 C 0.60062 0.89128 0.87481 0.0
C536 C 0.4018 0.74406 0.82048 0.0
C537 C 0.38361 0.72988 0.70259 0.0
C538 C 0.40206 0.76487 0.86098 0.0
C539 C 0.38429 0.77215 0.78451 0.0
H540 H 0.41597 0.73905 0.88168 0.0
H541 H 0.41668 0.77555 0.95181 0.0
S542 S 0.33217 0.74103 0.46979 0.0
N543 N 0.34672 0.72416 0.51127 0.0
N544 N 0.3479 0.76382 0.58712 0.0
C545 C 0.36621 0.75831 0.66628 0.0
C546 C 0.36573 0.73701 0.62524 0.0
C547 C 0.54682 0.70788 0.73798 0.0
C548 C 0.57299 0.7085 0.81474 0.0
C549 C 0.5139 0.68557 0.70639 0.0
C550 C 0.50593 0.66291 0.74891 0.0
H551 H 0.5522 0.72435 0.6972 0.0
H552 H 0.49486 0.68596 0.6449 0.0
S553 S 0.56493 0.65553 0.96341 0.0
N554 N 0.58791 0.68501 0.94018 0.0
N555 N 0.52699 0.6436 0.88123 0.0
C556 C 0.53168 0.66376 0.83 0.0
C557 C 0.56484 0.68634 0.86258 0.0
C558 C 0.10627 0.23687 0.67325 0.0
C559 C 1.07397 0.2297 0.70253 0.0
C560 C 0.11464 0.24162 0.5498 0.0
C561 C 0.09106 0.2394 0.45097 0.0
H562 H 0.12524 0.23877 0.74611 0.0
H563 H 0.13978 0.24704 0.53178 0.0
S564 S 1.00324 0.22166 0.47834 0.0
N565 N 1.01847 0.22099 0.62245 0.0
N566 N 1.0341 0.22979 0.3915 0.0
C567 C 1.05873 0.23234 0.47922 0.0
C568 C 1.05024 0.22755 0.60468 0.0
C569 C 0.96831 0.88162 0.57421 0.0
C570 C 0.97222 0.86273 0.60825 0.0
C571 C 0.97084 0.88811 0.44958 0.0
C572 C 0.97809 0.87633 0.35472 0.0
H573 H 0.9628 0.89121 0.6439 0.0
H574 H 0.96696 0.90246 0.42743 0.0
S575 S 0.99567 0.82832 0.40197 0.0
N576 N 0.98619 0.83361 0.54045 0.0
N577 N 0.99273 0.84677 0.30922 0.0
C578 C 0.98341 0.85814 0.38956 0.0
C579 C 0.98004 0.85111 0.51547 0.0
C580 C 0.24876 1.04094 0.58973 0.0
C581 C 0.25924 0.06443 0.64814 0.0
C582 C 0.25047 1.03713 0.4602 0.0
C583 C 0.26281 0.05667 0.38435 0.0
H584 H 0.23891 1.02532 0.64407 0.0
H585 H 0.24201 1.01869 0.41927 0.0
S586 S 0.29453 0.12195 0.49248 0.0
N587 N 0.28318 0.1077 0.62068 0.0
N588 N 0.28631 0.10046 0.37788 0.0
C589 C 0.2736 0.08028 0.44177 0.0
C590 C 0.27189 0.08418 0.57353 0.0
C591 C 0.80099 0.53442 0.43851 0.0
C592 C 0.83406 0.55216 0.41335 0.0
C593 C 0.79375 0.53144 0.56345 0.0
C594 C 0.81932 0.54612 0.66708 0.0
H595 H 0.78061 0.52254 0.36133 0.0
H596 H 0.76795 0.51758 0.57878 0.0
S597 S 0.90976 0.59587 0.65144 0.0
N598 N 0.89232 0.58512 0.50159 0.0
N599 N 0.8789 0.57937 0.73638 0.0
C600 C 0.85245 0.56405 0.64304 0.0
C601 C 0.85975 0.56716 0.51601 0.0
C602 C 0.53536 0.24104 0.52411 0.0
C603 C 0.55391 0.23734 0.43995 0.0
C604 C 0.5354 0.23554 0.65044 0.0
C605 C 0.55389 0.22599 0.69811 0.0
H606 H 0.52063 0.2483 0.49232 0.0
H607 H 0.52078 0.23879 0.71113 0.0
S608 S 0.60653 0.21264 0.51683 0.0
N609 N 0.5913 0.22346 0.41421 0.0
N610 N 0.59126 0.21298 0.64988 0.0
C611 C 0.57253 0.22216 0.61485 0.0
C612 C 0.57256 0.22784 0.48644 0.0
C613 C 0.98896 0.3842 0.57846 0.0
C614 C 0.97066 0.35968 0.51789 0.0
C615 C 0.99634 0.38931 0.7116 0.0
C616 C 0.98568 0.3701 0.78887 0.0
H617 H 0.99752 0.39955 0.52278 0.0
H618 H 1.01043 0.40848 0.75419 0.0
S619 S 0.93788 0.30274 0.677 0.0
N620 N 0.94274 0.316 0.54549 0.0
N621 N 0.95639 0.32564 0.79482 0.0
C622 C 0.96755 0.34553 0.72941 0.0
C623 C 0.96014 0.34032 0.59413 0.0
C624 C 0.46874 0.92527 0.4723 0.0
C625 C 0.49281 0.9283 0.57139 0.0
C626 C 0.47727 0.9307 0.3497 0.0
C627 C 0.51024 0.93948 0.32158 0.0
H628 H 0.44312 0.91869 0.48946 0.0
H629 H 0.45783 0.92805 0.27651 0.0
S630 S 0.58249 0.95027 0.54677 0.0
N631 N 0.55096 0.94028 0.63219 0.0
N632 N 0.56693 0.95071 0.40281 0.0
C633 C 0.5345 0.94254 0.41964 0.0
C634 C 0.52581 0.93691 0.54422 0.0
C635 C 0.42524 0.59969 0.08224 0.0
C636 C 0.39456 0.59596 0.02548 0.0
C637 C 0.43017 0.59706 0.21131 0.0
C638 C 0.40463 0.59059 0.28868 0.0
H639 H 0.44573 0.60482 0.02674 0.0
H640 H 0.4542 0.60019 0.25068 0.0
S641 S 0.31928 0.57815 0.18494 0.0
N642 N 0.33808 0.58494 0.056 0.0
N643 N 0.34725 0.58025 0.29732 0.0
C644 C 0.37379 0.5867 0.23249 0.0
C645 C 0.36877 0.5893 0.10132 0.0
C646 C 0.66782 0.75011 0.45135 0.0
C647 C 0.68487 0.77478 0.50849 0.0
C648 C 0.66623 0.74469 0.32066 0.0
C649 C 0.68179 0.76376 0.24302 0.0
H650 H 0.65567 0.73486 0.50789 0.0
H651 H 0.65302 0.72543 0.28059 0.0
S652 S 0.72885 0.8314 0.34543 0.0
N653 N 0.71718 0.81846 0.47698 0.0
N654 N 0.71413 0.80821 0.23158 0.0
C655 C 0.69872 0.78849 0.29871 0.0
C656 C 0.70032 0.79402 0.43155 0.0
loop_
_geom_bond_atom_site_label_1
_geom_bond_atom_site_label_2
_geom_bond_distance
_geom_bond_site_symmetry_2
_ccdc_geom_bond_type
Pr0 C2 2.880 . S
Pr0 O20 2.562 . S
Pr0 O21 2.490 . S
Pr0 O22 2.695 . S
Pr0 O23 2.512 . S
Pr0 O25 2.437 . S
Pr0 O28 2.436 1_554 S
Pr0 O30 2.438 . S
Pr1 C11 2.880 . S
Pr1 O22 2.436 1_655 S
Pr1 O24 2.438 . S
Pr1 O26 2.562 . S
Pr1 O27 2.490 1_554 S
Pr1 O28 2.695 1_654 S
Pr1 O29 2.512 1_554 S
Pr1 O31 2.437 1_655 S
C2 Pr0 2.880 . S
C2 C3 1.491 . S
C2 O20 1.254 . S
C2 O21 1.225 . S
C3 C2 1.491 . S
C3 C4 1.392 . S
C3 C8 1.356 . S
C4 C3 1.392 . S
C4 C5 1.368 . S
C4 H32 0.929 . S
C5 C4 1.368 . S
C5 C6 1.386 . S
C5 H33 0.929 . S
C6 C5 1.386 . S
C6 C7 1.373 . S
C7 C6 1.373 . S
C7 C8 1.409 . S
C7 H34 0.931 1_554 S
C8 C3 1.356 . S
C8 C7 1.409 . S
C8 H35 0.930 1_554 S
C9 O22 1.270 . S
C9 O23 1.248 . S
C10 O24 1.267 1_455 S
C10 O25 1.278 . S
C11 Pr1 2.880 . S
C11 C12 1.491 . S
C11 O26 1.254 . S
C11 O27 1.225 1_554 S
C12 C11 1.491 . S
C12 C13 1.392 1_554 S
C12 C17 1.356 . S
C13 C12 1.392 1_556 S
C13 C14 1.368 . S
C13 H36 0.929 . S
C14 C13 1.368 . S
C14 C15 1.386 1_556 S
C14 H37 0.929 . S
C15 C14 1.386 1_554 S
C15 C16 1.373 . S
C16 C15 1.373 . S
C16 C17 1.409 . S
C16 H38 0.931 . S
C17 C12 1.356 . S
C17 C16 1.409 . S
C17 H39 0.930 . S
C18 O28 1.270 . S
C18 O29 1.248 1_455 S
C19 O30 1.267 . S
C19 O31 1.278 . S
O20 Pr0 2.562 . S
O20 C2 1.254 . S
O21 Pr0 2.490 . S
O21 C2 1.225 . S
O22 Pr0 2.695 . S
O22 Pr1 2.436 1_455 S
O22 C9 1.270 . S
O23 Pr0 2.512 . S
O23 C9 1.248 . S
O24 Pr1 2.438 . S
O24 C10 1.267 1_655 S
O25 Pr0 2.437 . S
O25 C10 1.278 . S
O26 Pr1 2.562 . S
O26 C11 1.254 . S
O27 Pr1 2.490 1_556 S
O27 C11 1.225 1_556 S
O28 Pr0 2.436 1_556 S
O28 Pr1 2.695 1_456 S
O28 C18 1.270 . S
O29 Pr1 2.512 1_556 S
O29 C18 1.248 1_655 S
O30 Pr0 2.438 . S
O30 C19 1.267 . S
O31 Pr1 2.437 1_455 S
O31 C19 1.278 . S
H32 C4 0.929 . S
H33 C5 0.929 . S
H34 C7 0.931 1_556 S
H35 C8 0.930 1_556 S
H36 C13 0.929 . S
H37 C14 0.929 . S
H38 C16 0.931 . S
H39 C17 0.930 . S
Pr40 C42 2.880 . S
Pr40 O60 2.562 . S
Pr40 O61 2.490 1_554 S
Pr40 O62 2.695 1_554 S
Pr40 O63 2.512 1_554 S
Pr40 O65 2.437 1_554 S
Pr40 O68 2.436 . S
Pr40 O70 2.438 . S
Pr41 C51 2.880 . S
Pr41 O62 2.436 1_554 S
Pr41 O64 2.438 . S
Pr41 O66 2.562 1_554 S
Pr41 O67 2.490 . S
Pr41 O68 2.695 . S
Pr41 O69 2.512 . S
Pr41 O71 2.437 . S
C42 Pr40 2.880 . S
C42 C43 1.491 . S
C42 O60 1.254 . S
C42 O61 1.225 1_554 S
C43 C42 1.491 . S
C43 C44 1.392 1_554 S
C43 C48 1.356 . S
C44 C43 1.392 1_556 S
C44 C45 1.368 . S
C44 H72 0.929 . S
C45 C44 1.368 . S
C45 C46 1.386 1_556 S
C45 H73 0.929 . S
C46 C45 1.386 1_554 S
C46 C47 1.373 . S
C47 C46 1.373 . S
C47 C48 1.409 . S
C47 H74 0.931 . S
C48 C43 1.356 . S
C48 C47 1.409 . S
C48 H75 0.930 . S
C49 O62 1.270 . S
C49 O63 1.248 . S
C50 O64 1.267 1_556 S
C50 O65 1.278 . S
C51 Pr41 2.880 . S
C51 C52 1.491 . S
C51 O66 1.254 1_554 S
C51 O67 1.225 . S
C52 C51 1.491 . S
C52 C53 1.392 . S
C52 C57 1.356 1_554 S
C53 C52 1.392 . S
C53 C54 1.368 . S
C53 H76 0.929 . S
C54 C53 1.368 . S
C54 C55 1.386 . S
C54 H77 0.929 . S
C55 C54 1.386 . S
C55 C56 1.373 1_554 S
C56 C55 1.373 1_556 S
C56 C57 1.409 . S
C56 H78 0.931 . S
C57 C52 1.356 1_556 S
C57 C56 1.409 . S
C57 H79 0.930 . S
C58 O68 1.270 . S
C58 O69 1.248 . S
C59 O70 1.267 . S
C59 O71 1.278 . S
O60 Pr40 2.562 . S
O60 C42 1.254 . S
O61 Pr40 2.490 1_556 S
O61 C42 1.225 1_556 S
O62 Pr40 2.695 1_556 S
O62 Pr41 2.436 1_556 S
O62 C49 1.270 . S
O63 Pr40 2.512 1_556 S
O63 C49 1.248 . S
O64 Pr41 2.438 . S
O64 C50 1.267 1_554 S
O65 Pr40 2.437 1_556 S
O65 C50 1.278 . S
O66 Pr41 2.562 1_556 S
O66 C51 1.254 1_556 S
O67 Pr41 2.490 . S
O67 C51 1.225 . S
O68 Pr40 2.436 . S
O68 Pr41 2.695 . S
O68 C58 1.270 . S
O69 Pr41 2.512 . S
O69 C58 1.248 . S
O70 Pr40 2.438 . S
O70 C59 1.267 . S
O71 Pr41 2.437 . S
O71 C59 1.278 . S
H72 C44 0.929 . S
H73 C45 0.929 . S
H74 C47 0.931 . S
H75 C48 0.930 . S
H76 C53 0.929 . S
H77 C54 0.929 . S
H78 C56 0.931 . S
H79 C57 0.930 . S
Pr80 C82 2.880 1_554 S
Pr80 O100 2.562 1_554 S
Pr80 O101 2.490 . S
Pr80 O102 2.695 1_565 S
Pr80 O103 2.512 . S
Pr80 O105 2.437 1_565 S
Pr80 O108 2.436 1_564 S
Pr80 O110 2.438 . S
Pr81 C91 2.880 . S
Pr81 O102 2.436 . S
Pr81 O104 2.438 . S
Pr81 O106 2.562 . S
Pr81 O107 2.490 1_554 S
Pr81 O108 2.695 1_554 S
Pr81 O109 2.512 1_554 S
Pr81 O111 2.437 1_554 S
C82 Pr80 2.880 1_556 S
C82 C83 1.491 . S
C82 O100 1.254 . S
C82 O101 1.225 1_556 S
C83 C82 1.491 . S
C83 C84 1.392 1_556 S
C83 C88 1.356 . S
C84 C83 1.392 1_554 S
C84 C85 1.368 . S
C84 H112 0.929 . S
C85 C84 1.368 . S
C85 C86 1.386 1_554 S
C85 H113 0.929 . S
C86 C85 1.386 1_556 S
C86 C87 1.373 . S
C87 C86 1.373 . S
C87 C88 1.409 . S
C87 H114 0.931 . S
C88 C83 1.356 . S
C88 C87 1.409 . S
C88 H115 0.930 . S
C89 O102 1.270 . S
C89 O103 1.248 1_545 S
C90 O104 1.267 . S
C90 O105 1.278 . S
C91 Pr81 2.880 . S
C91 C92 1.491 . S
C91 O106 1.254 . S
C91 O107 1.225 1_554 S
C92 C91 1.491 . S
C92 C93 1.392 1_554 S
C92 C97 1.356 . S
C93 C92 1.392 1_556 S
C93 C94 1.368 . S
C93 H116 0.929 . S
C94 C93 1.368 . S
C94 C95 1.386 1_556 S
C94 H117 0.929 . S
C95 C94 1.386 1_554 S
C95 C96 1.373 . S
C96 C95 1.373 . S
C96 C97 1.409 . S
C96 H118 0.931 . S
C97 C92 1.356 . S
C97 C96 1.409 . S
C97 H119 0.930 . S
C98 O108 1.270 . S
C98 O109 1.248 . S
C99 O110 1.267 1_556 S
C99 O111 1.278 1_565 S
O100 Pr80 2.562 1_556 S
O100 C82 1.254 . S
O101 Pr80 2.490 . S
O101 C82 1.225 1_554 S
O102 Pr80 2.695 1_545 S
O102 Pr81 2.436 . S
O102 C89 1.270 . S
O103 Pr80 2.512 . S
O103 C89 1.248 1_565 S
O104 Pr81 2.438 . S
O104 C90 1.267 . S
O105 Pr80 2.437 1_545 S
O105 C90 1.278 . S
O106 Pr81 2.562 . S
O106 C91 1.254 . S
O107 Pr81 2.490 1_556 S
O107 C91 1.225 1_556 S
O108 Pr80 2.436 1_546 S
O108 Pr81 2.695 1_556 S
O108 C98 1.270 . S
O109 Pr81 2.512 1_556 S
O109 C98 1.248 . S
O110 Pr80 2.438 . S
O110 C99 1.267 1_554 S
O111 Pr81 2.437 1_556 S
O111 C99 1.278 1_545 S
H112 C84 0.929 . S
H113 C85 0.929 . S
H114 C87 0.931 . S
H115 C88 0.930 . S
H116 C93 0.929 . S
H117 C94 0.929 . S
H118 C96 0.931 . S
H119 C97 0.930 . S
Pr120 C122 2.880 . S
Pr120 O140 2.562 . S
Pr120 O141 2.490 . S
Pr120 O142 2.695 1_554 S
Pr120 O143 2.512 1_554 S
Pr120 O145 2.437 . S
Pr120 O148 2.436 . S
Pr120 O150 2.438 . S
Pr121 C131 2.880 . S
Pr121 O142 2.436 1_554 S
Pr121 O144 2.438 . S
Pr121 O146 2.562 1_554 S
Pr121 O147 2.490 . S
Pr121 O148 2.695 . S
Pr121 O149 2.512 . S
Pr121 O151 2.437 . S
C122 Pr120 2.880 . S
C122 C123 1.491 . S
C122 O140 1.254 . S
C122 O141 1.225 . S
C123 C122 1.491 . S
C123 C124 1.392 . S
C123 C128 1.356 . S
C124 C123 1.392 . S
C124 C125 1.368 . S
C124 H152 0.929 1_554 S
C125 C124 1.368 . S
C125 C126 1.386 . S
C125 H153 0.929 . S
C126 C125 1.386 . S
C126 C127 1.373 . S
C127 C126 1.373 . S
C127 C128 1.409 . S
C127 H154 0.931 . S
C128 C123 1.356 . S
C128 C127 1.409 . S
C128 H155 0.930 . S
C129 O142 1.270 . S
C129 O143 1.248 . S
C130 O144 1.267 . S
C130 O145 1.278 . S
C131 Pr121 2.880 . S
C131 C132 1.491 . S
C131 O146 1.254 1_554 S
C131 O147 1.225 . S
C132 C131 1.491 . S
C132 C133 1.392 . S
C132 C137 1.356 1_554 S
C133 C132 1.392 . S
C133 C134 1.368 . S
C133 H156 0.929 . S
C134 C133 1.368 . S
C134 C135 1.386 . S
C134 H157 0.929 . S
C135 C134 1.386 . S
C135 C136 1.373 1_554 S
C136 C135 1.373 1_556 S
C136 C137 1.409 . S
C136 H158 0.931 . S
C137 C132 1.356 1_556 S
C137 C136 1.409 . S
C137 H159 0.930 . S
C138 O148 1.270 . S
C138 O149 1.248 . S
C139 O150 1.267 . S
C139 O151 1.278 . S
O140 Pr120 2.562 . S
O140 C122 1.254 . S
O141 Pr120 2.490 . S
O141 C122 1.225 . S
O142 Pr120 2.695 1_556 S
O142 Pr121 2.436 1_556 S
O142 C129 1.270 . S
O143 Pr120 2.512 1_556 S
O143 C129 1.248 . S
O144 Pr121 2.438 . S
O144 C130 1.267 . S
O145 Pr120 2.437 . S
O145 C130 1.278 . S
O146 Pr121 2.562 1_556 S
O146 C131 1.254 1_556 S
O147 Pr121 2.490 . S
O147 C131 1.225 . S
O148 Pr120 2.436 . S
O148 Pr121 2.695 . S
O148 C138 1.270 . S
O149 Pr121 2.512 . S
O149 C138 1.248 . S
O150 Pr120 2.438 . S
O150 C139 1.267 . S
O151 Pr121 2.437 . S
O151 C139 1.278 . S
H152 C124 0.929 1_556 S
H153 C125 0.929 . S
H154 C127 0.931 . S
H155 C128 0.930 . S
H156 C133 0.929 . S
H157 C134 0.929 . S
H158 C136 0.931 . S
H159 C137 0.930 . S
Pr160 C162 2.880 . S
Pr160 O180 2.562 . S
Pr160 O181 2.490 . S
Pr160 O182 2.695 1_554 S
Pr160 O183 2.512 1_554 S
Pr160 O185 2.437 . S
Pr160 O188 2.436 . S
Pr160 O190 2.438 . S
Pr161 C171 2.880 . S
Pr161 O182 2.436 1_554 S
Pr161 O184 2.438 . S
Pr161 O186 2.562 1_554 S
Pr161 O187 2.490 . S
Pr161 O188 2.695 . S
Pr161 O189 2.512 . S
Pr161 O191 2.437 . S
C162 Pr160 2.880 . S
C162 C163 1.491 . S
C162 O180 1.254 . S
C162 O181 1.225 . S
C163 C162 1.491 . S
C163 C164 1.392 . S
C163 C168 1.356 . S
C164 C163 1.392 . S
C164 C165 1.368 . S
C164 H192 0.929 1_554 S
C165 C164 1.368 . S
C165 C166 1.386 . S
C165 H193 0.929 . S
C166 C165 1.386 . S
C166 C167 1.373 . S
C167 C166 1.373 . S
C167 C168 1.409 . S
C167 H194 0.931 . S
C168 C163 1.356 . S
C168 C167 1.409 . S
C168 H195 0.930 . S
C169 O182 1.270 . S
C169 O183 1.248 . S
C170 O184 1.267 . S
C170 O185 1.278 . S
C171 Pr161 2.880 . S
C171 C172 1.491 . S
C171 O186 1.254 1_554 S
C171 O187 1.225 . S
C172 C171 1.491 . S
C172 C173 1.392 . S
C172 C177 1.356 1_554 S
C173 C172 1.392 . S
C173 C174 1.368 . S
C173 H196 0.929 . S
C174 C173 1.368 . S
C174 C175 1.386 . S
C174 H197 0.929 . S
C175 C174 1.386 . S
C175 C176 1.373 1_554 S
C176 C175 1.373 1_556 S
C176 C177 1.409 . S
C176 H198 0.931 . S
C177 C172 1.356 1_556 S
C177 C176 1.409 . S
C177 H199 0.930 . S
C178 O188 1.270 . S
C178 O189 1.248 . S
C179 O190 1.267 . S
C179 O191 1.278 . S
O180 Pr160 2.562 . S
O180 C162 1.254 . S
O181 Pr160 2.490 . S
O181 C162 1.225 . S
O182 Pr160 2.695 1_556 S
O182 Pr161 2.436 1_556 S
O182 C169 1.270 . S
O183 Pr160 2.512 1_556 S
O183 C169 1.248 . S
O184 Pr161 2.438 . S
O184 C170 1.267 . S
O185 Pr160 2.437 . S
O185 C170 1.278 . S
O186 Pr161 2.562 1_556 S
O186 C171 1.254 1_556 S
O187 Pr161 2.490 . S
O187 C171 1.225 . S
O188 Pr160 2.436 . S
O188 Pr161 2.695 . S
O188 C178 1.270 . S
O189 Pr161 2.512 . S
O189 C178 1.248 . S
O190 Pr160 2.438 . S
O190 C179 1.267 . S
O191 Pr161 2.437 . S
O191 C179 1.278 . S
H192 C164 0.929 1_556 S
H193 C165 0.929 . S
H194 C167 0.931 . S
H195 C168 0.930 . S
H196 C173 0.929 . S
H197 C174 0.929 . S
H198 C176 0.931 . S
H199 C177 0.930 . S
Pr200 C202 2.880 1_655 S
Pr200 O220 2.562 1_655 S
Pr200 O221 2.490 1_655 S
Pr200 O222 2.695 . S
Pr200 O223 2.512 1_554 S
Pr200 O225 2.437 . S
Pr200 O228 2.436 . S
Pr200 O230 2.438 . S
Pr201 C211 2.880 . S
Pr201 O222 2.436 . S
Pr201 O224 2.438 . S
Pr201 O226 2.562 . S
Pr201 O227 2.490 . S
Pr201 O228 2.695 . S
Pr201 O229 2.512 . S
Pr201 O231 2.437 . S
C202 Pr200 2.880 1_455 S
C202 C203 1.491 . S
C202 O220 1.254 . S
C202 O221 1.225 . S
C203 C202 1.491 . S
C203 C204 1.392 . S
C203 C208 1.356 . S
C204 C203 1.392 . S
C204 C205 1.368 . S
C204 H232 0.929 . S
C205 C204 1.368 . S
C205 C206 1.386 . S
C205 H233 0.929 . S
C206 C205 1.386 . S
C206 C207 1.373 . S
C207 C206 1.373 . S
C207 C208 1.409 . S
C207 H234 0.931 . S
C208 C203 1.356 . S
C208 C207 1.409 . S
C208 H235 0.930 . S
C209 O222 1.270 1_556 S
C209 O223 1.248 . S
C210 O224 1.267 . S
C210 O225 1.278 . S
C211 Pr201 2.880 . S
C211 C212 1.491 . S
C211 O226 1.254 . S
C211 O227 1.225 . S
C212 C211 1.491 . S
C212 C213 1.392 . S
C212 C217 1.356 1_554 S
C213 C212 1.392 . S
C213 C214 1.368 . S
C213 H236 0.929 . S
C214 C213 1.368 . S
C214 C215 1.386 . S
C214 H237 0.929 . S
C215 C214 1.386 . S
C215 C216 1.373 1_554 S
C216 C215 1.373 1_556 S
C216 C217 1.409 . S
C216 H238 0.931 . S
C217 C212 1.356 1_556 S
C217 C216 1.409 . S
C217 H239 0.930 . S
C218 O228 1.270 . S
C218 O229 1.248 . S
C219 O230 1.267 . S
C219 O231 1.278 . S
O220 Pr200 2.562 1_455 S
O220 C202 1.254 . S
O221 Pr200 2.490 1_455 S
O221 C202 1.225 . S
O222 Pr200 2.695 . S
O222 Pr201 2.436 . S
O222 C209 1.270 1_554 S
O223 Pr200 2.512 1_556 S
O223 C209 1.248 . S
O224 Pr201 2.438 . S
O224 C210 1.267 . S
O225 Pr200 2.437 . S
O225 C210 1.278 . S
O226 Pr201 2.562 . S
O226 C211 1.254 . S
O227 Pr201 2.490 . S
O227 C211 1.225 . S
O228 Pr200 2.436 . S
O228 Pr201 2.695 . S
O228 C218 1.270 . S
O229 Pr201 2.512 . S
O229 C218 1.248 . S
O230 Pr200 2.438 . S
O230 C219 1.267 . S
O231 Pr201 2.437 . S
O231 C219 1.278 . S
H232 C204 0.929 . S
H233 C205 0.929 . S
H234 C207 0.931 . S
H235 C208 0.930 . S
H236 C213 0.929 . S
H237 C214 0.929 . S
H238 C216 0.931 . S
H239 C217 0.930 . S
Pr240 C242 2.880 . S
Pr240 O260 2.562 . S
Pr240 O261 2.490 . S
Pr240 O262 2.695 . S
Pr240 O263 2.512 1_556 S
Pr240 O265 2.437 . S
Pr240 O268 2.436 . S
Pr240 O270 2.438 . S
Pr241 C251 2.880 . S
Pr241 O262 2.436 . S
Pr241 O264 2.438 . S
Pr241 O266 2.562 . S
Pr241 O267 2.490 . S
Pr241 O268 2.695 . S
Pr241 O269 2.512 . S
Pr241 O271 2.437 . S
C242 Pr240 2.880 . S
C242 C243 1.491 . S
C242 O260 1.254 . S
C242 O261 1.225 . S
C243 C242 1.491 . S
C243 C244 1.392 . S
C243 C248 1.356 . S
C244 C243 1.392 . S
C244 C245 1.368 1_565 S
C244 H272 0.929 . S
C245 C244 1.368 1_545 S
C245 C246 1.386 . S
C245 H273 0.929 . S
C246 C245 1.386 . S
C246 C247 1.373 . S
C247 C246 1.373 . S
C247 C248 1.409 1_545 S
C247 H274 0.931 . S
C248 C243 1.356 . S
C248 C247 1.409 1_565 S
C248 H275 0.930 . S
C249 O262 1.270 1_554 S
C249 O263 1.248 . S
C250 O264 1.267 . S
C250 O265 1.278 . S
C251 Pr241 2.880 . S
C251 C252 1.491 . S
C251 O266 1.254 . S
C251 O267 1.225 . S
C252 C251 1.491 . S
C252 C253 1.392 . S
C252 C257 1.356 . S
C253 C252 1.392 . S
C253 C254 1.368 . S
C253 H276 0.929 . S
C254 C253 1.368 . S
C254 C255 1.386 . S
C254 H277 0.929 . S
C255 C254 1.386 . S
C255 C256 1.373 . S
C256 C255 1.373 . S
C256 C257 1.409 . S
C256 H278 0.931 1_556 S
C257 C252 1.356 . S
C257 C256 1.409 . S
C257 H279 0.930 1_556 S
C258 O268 1.270 . S
C258 O269 1.248 . S
C259 O270 1.267 . S
C259 O271 1.278 . S
O260 Pr240 2.562 . S
O260 C242 1.254 . S
O261 Pr240 2.490 . S
O261 C242 1.225 . S
O262 Pr240 2.695 . S
O262 Pr241 2.436 . S
O262 C249 1.270 1_556 S
O263 Pr240 2.512 1_554 S
O263 C249 1.248 . S
O264 Pr241 2.438 . S
O264 C250 1.267 . S
O265 Pr240 2.437 . S
O265 C250 1.278 . S
O266 Pr241 2.562 . S
O266 C251 1.254 . S
O267 Pr241 2.490 . S
O267 C251 1.225 . S
O268 Pr240 2.436 . S
O268 Pr241 2.695 . S
O268 C258 1.270 . S
O269 Pr241 2.512 . S
O269 C258 1.248 . S
O270 Pr240 2.438 . S
O270 C259 1.267 . S
O271 Pr241 2.437 . S
O271 C259 1.278 . S
H272 C244 0.929 . S
H273 C245 0.929 . S
H274 C247 0.931 . S
H275 C248 0.930 . S
H276 C253 0.929 . S
H277 C254 0.929 . S
H278 C256 0.931 1_554 S
H279 C257 0.930 1_554 S
Pr280 C282 2.880 . S
Pr280 O300 2.562 . S
Pr280 O301 2.490 . S
Pr280 O302 2.695 . S
Pr280 O303 2.512 . S
Pr280 O305 2.437 . S
Pr280 O308 2.436 . S
Pr280 O310 2.438 . S
Pr281 C291 2.880 . S
Pr281 O302 2.436 . S
Pr281 O304 2.438 . S
Pr281 O306 2.562 . S
Pr281 O307 2.490 . S
Pr281 O308 2.695 . S
Pr281 O309 2.512 1_556 S
Pr281 O311 2.437 . S
C282 Pr280 2.880 . S
C282 C283 1.491 . S
C282 O300 1.254 . S
C282 O301 1.225 . S
C283 C282 1.491 . S
C283 C284 1.392 . S
C283 C288 1.356 . S
C284 C283 1.392 . S
C284 C285 1.368 . S
C284 H312 0.929 . S
C285 C284 1.368 . S
C285 C286 1.386 . S
C285 H313 0.929 . S
C286 C285 1.386 . S
C286 C287 1.373 . S
C287 C286 1.373 . S
C287 C288 1.409 . S
C287 H314 0.931 1_556 S
C288 C283 1.356 . S
C288 C287 1.409 . S
C288 H315 0.930 1_556 S
C289 O302 1.270 . S
C289 O303 1.248 . S
C290 O304 1.267 . S
C290 O305 1.278 . S
C291 Pr281 2.880 . S
C291 C292 1.491 . S
C291 O306 1.254 . S
C291 O307 1.225 . S
C292 C291 1.491 . S
C292 C293 1.392 . S
C292 C297 1.356 . S
C293 C292 1.392 . S
C293 C294 1.368 . S
C293 H316 0.929 1_556 S
C294 C293 1.368 . S
C294 C295 1.386 . S
C294 H317 0.929 1_556 S
C295 C294 1.386 . S
C295 C296 1.373 . S
C296 C295 1.373 . S
C296 C297 1.409 . S
C296 H318 0.931 . S
C297 C292 1.356 . S
C297 C296 1.409 . S
C297 H319 0.930 . S
C298 O308 1.270 1_554 S
C298 O309 1.248 . S
C299 O310 1.267 . S
C299 O311 1.278 . S
O300 Pr280 2.562 . S
O300 C282 1.254 . S
O301 Pr280 2.490 . S
O301 C282 1.225 . S
O302 Pr280 2.695 . S
O302 Pr281 2.436 . S
O302 C289 1.270 . S
O303 Pr280 2.512 . S
O303 C289 1.248 . S
O304 Pr281 2.438 . S
O304 C290 1.267 . S
O305 Pr280 2.437 . S
O305 C290 1.278 . S
O306 Pr281 2.562 . S
O306 C291 1.254 . S
O307 Pr281 2.490 . S
O307 C291 1.225 . S
O308 Pr280 2.436 . S
O308 Pr281 2.695 . S
O308 C298 1.270 1_556 S
O309 Pr281 2.512 1_554 S
O309 C298 1.248 . S
O310 Pr280 2.438 . S
O310 C299 1.267 . S
O311 Pr281 2.437 . S
O311 C299 1.278 . S
H312 C284 0.929 . S
H313 C285 0.929 . S
H314 C287 0.931 1_554 S
H315 C288 0.930 1_554 S
H316 C293 0.929 1_554 S
H317 C294 0.929 1_554 S
H318 C296 0.931 . S
H319 C297 0.930 . S
Pr320 C322 2.880 . S
Pr320 O340 2.562 . S
Pr320 O341 2.490 . S
Pr320 O342 2.695 . S
Pr320 O343 2.512 1_556 S
Pr320 O345 2.437 . S
Pr320 O348 2.436 . S
Pr320 O350 2.438 . S
Pr321 C331 2.880 . S
Pr321 O342 2.436 . S
Pr321 O344 2.438 . S
Pr321 O346 2.562 . S
Pr321 O347 2.490 . S
Pr321 O348 2.695 . S
Pr321 O349 2.512 . S
Pr321 O351 2.437 . S
C322 Pr320 2.880 . S
C322 C323 1.491 . S
C322 O340 1.254 . S
C322 O341 1.225 . S
C323 C322 1.491 . S
C323 C324 1.392 . S
C323 C328 1.356 . S
C324 C323 1.392 . S
C324 C325 1.368 . S
C324 H352 0.929 . S
C325 C324 1.368 . S
C325 C326 1.386 . S
C325 H353 0.929 . S
C326 C325 1.386 . S
C326 C327 1.373 . S
C327 C326 1.373 . S
C327 C328 1.409 . S
C327 H354 0.931 . S
C328 C323 1.356 . S
C328 C327 1.409 . S
C328 H355 0.930 . S
C329 O342 1.270 1_554 S
C329 O343 1.248 . S
C330 O344 1.267 . S
C330 O345 1.278 . S
C331 Pr321 2.880 . S
C331 C332 1.491 . S
C331 O346 1.254 . S
C331 O347 1.225 . S
C332 C331 1.491 . S
C332 C333 1.392 . S
C332 C337 1.356 . S
C333 C332 1.392 . S
C333 C334 1.368 . S
C333 H356 0.929 . S
C334 C333 1.368 . S
C334 C335 1.386 . S
C334 H357 0.929 . S
C335 C334 1.386 . S
C335 C336 1.373 1_556 S
C336 C335 1.373 1_554 S
C336 C337 1.409 1_554 S
C336 H358 0.931 . S
C337 C332 1.356 . S
C337 C336 1.409 1_556 S
C337 H359 0.930 1_556 S
C338 O348 1.270 . S
C338 O349 1.248 . S
C339 O350 1.267 . S
C339 O351 1.278 . S
O340 Pr320 2.562 . S
O340 C322 1.254 . S
O341 Pr320 2.490 . S
O341 C322 1.225 . S
O342 Pr320 2.695 . S
O342 Pr321 2.436 . S
O342 C329 1.270 1_556 S
O343 Pr320 2.512 1_554 S
O343 C329 1.248 . S
O344 Pr321 2.438 . S
O344 C330 1.267 . S
O345 Pr320 2.437 . S
O345 C330 1.278 . S
O346 Pr321 2.562 . S
O346 C331 1.254 . S
O347 Pr321 2.490 . S
O347 C331 1.225 . S
O348 Pr320 2.436 . S
O348 Pr321 2.695 . S
O348 C338 1.270 . S
O349 Pr321 2.512 . S
O349 C338 1.248 . S
O350 Pr320 2.438 . S
O350 C339 1.267 . S
O351 Pr321 2.437 . S
O351 C339 1.278 . S
H352 C324 0.929 . S
H353 C325 0.929 . S
H354 C327 0.931 . S
H355 C328 0.930 . S
H356 C333 0.929 . S
H357 C334 0.929 . S
H358 C336 0.931 . S
H359 C337 0.930 1_554 S
C360 C361 1.369 1_556 S
C360 C362 1.419 . S
C360 H364 0.930 . S
C361 C360 1.369 1_554 S
C361 C370 1.429 . S
C362 C360 1.419 . S
C362 C363 1.363 . S
C362 H365 0.929 . S
C363 C362 1.363 . S
C363 C369 1.428 1_556 S
H364 C360 0.930 . S
H365 C362 0.929 . S
S366 N367 1.613 . S
S366 N368 1.610 . S
N367 S366 1.613 . S
N367 C370 1.350 . S
N368 S366 1.610 . S
N368 C369 1.351 . S
C369 C363 1.428 1_554 S
C369 N368 1.351 . S
C369 C370 1.434 . S
C370 C361 1.429 . S
C370 N367 1.350 . S
C370 C369 1.434 . S
C371 C372 1.369 . S
C371 C373 1.419 . S
C371 H375 0.930 . S
C372 C371 1.369 . S
C372 C381 1.429 . S
C373 C371 1.419 . S
C373 C374 1.363 . S
C373 H376 0.929 . S
C374 C373 1.363 . S
C374 C380 1.428 . S
H375 C371 0.930 . S
H376 C373 0.929 . S
S377 N378 1.613 . S
S377 N379 1.610 . S
N378 S377 1.613 . S
N378 C381 1.350 . S
N379 S377 1.610 . S
N379 C380 1.351 . S
C380 C374 1.428 . S
C380 N379 1.351 . S
C380 C381 1.434 . S
C381 C372 1.429 . S
C381 N378 1.350 . S
C381 C380 1.434 . S
C382 C383 1.369 . S
C382 C384 1.419 . S
C382 H386 0.930 . S
C383 C382 1.369 . S
C383 C392 1.429 . S
C384 C382 1.419 . S
C384 C385 1.363 . S
C384 H387 0.929 . S
C385 C384 1.363 . S
C385 C391 1.428 . S
H386 C382 0.930 . S
H387 C384 0.929 . S
S388 N389 1.613 . S
S388 N390 1.610 . S
N389 S388 1.613 . S
N389 C392 1.350 1_554 S
N390 S388 1.610 . S
N390 C391 1.351 1_554 S
C391 C385 1.428 . S
C391 N390 1.351 1_556 S
C391 C392 1.434 . S
C392 C383 1.429 . S
C392 N389 1.350 1_556 S
C392 C391 1.434 . S
C393 C394 1.369 . S
C393 C395 1.419 1_554 S
C393 H397 0.930 1_554 S
C394 C393 1.369 . S
C394 C403 1.429 . S
C395 C393 1.419 1_556 S
C395 C396 1.363 1_556 S
C395 H398 0.929 . S
C396 C395 1.363 1_554 S
C396 C402 1.428 . S
H397 C393 0.930 1_556 S
H398 C395 0.929 . S
S399 N400 1.613 . S
S399 N401 1.610 . S
N400 S399 1.613 . S
N400 C403 1.350 . S
N401 S399 1.610 . S
N401 C402 1.351 . S
C402 C396 1.428 . S
C402 N401 1.351 . S
C402 C403 1.434 . S
C403 C394 1.429 . S
C403 N400 1.350 . S
C403 C402 1.434 . S
C404 C405 1.369 1_455 S
C404 C406 1.419 . S
C404 H408 0.930 . S
C405 C404 1.369 1_655 S
C405 C414 1.429 . S
C406 C404 1.419 . S
C406 C407 1.363 1_455 S
C406 H409 0.929 . S
C407 C406 1.363 1_655 S
C407 C413 1.428 . S
H408 C404 0.930 . S
H409 C406 0.929 . S
S410 N411 1.613 1_556 S
S410 N412 1.610 . S
N411 S410 1.613 1_554 S
N411 C414 1.350 . S
N412 S410 1.610 . S
N412 C413 1.351 1_556 S
C413 C407 1.428 . S
C413 N412 1.351 1_554 S
C413 C414 1.434 . S
C414 C405 1.429 . S
C414 N411 1.350 . S
C414 C413 1.434 . S
C415 C416 1.369 . S
C415 C417 1.419 . S
C415 H419 0.930 . S
C416 C415 1.369 . S
C416 C425 1.429 . S
C417 C415 1.419 . S
C417 C418 1.363 . S
C417 H420 0.929 . S
C418 C417 1.363 . S
C418 C424 1.428 . S
H419 C415 0.930 . S
H420 C417 0.929 . S
S421 N422 1.613 . S
S421 N423 1.610 . S
N422 S421 1.613 . S
N422 C425 1.350 . S
N423 S421 1.610 . S
N423 C424 1.351 . S
C424 C418 1.428 . S
C424 N423 1.351 . S
C424 C425 1.434 . S
C425 C416 1.429 . S
C425 N422 1.350 . S
C425 C424 1.434 . S
C426 C427 1.369 . S
C426 C428 1.419 . S
C426 H430 0.930 . S
C427 C426 1.369 . S
C427 C436 1.429 . S
C428 C426 1.419 . S
C428 C429 1.363 . S
C428 H431 0.929 . S
C429 C428 1.363 . S
C429 C435 1.428 . S
H430 C426 0.930 . S
H431 C428 0.929 . S
S432 N433 1.613 . S
S432 N434 1.610 . S
N433 S432 1.613 . S
N433 C436 1.350 . S
N434 S432 1.610 . S
N434 C435 1.351 . S
C435 C429 1.428 . S
C435 N434 1.351 . S
C435 C436 1.434 . S
C436 C427 1.429 . S
C436 N433 1.350 . S
C436 C435 1.434 . S
C437 C438 1.369 . S
C437 C439 1.419 . S
C437 H441 0.930 . S
C438 C437 1.369 . S
C438 C447 1.429 . S
C439 C437 1.419 . S
C439 C440 1.363 . S
C439 H442 0.929 . S
C440 C439 1.363 . S
C440 C446 1.428 . S
H441 C437 0.930 . S
H442 C439 0.929 . S
S443 N444 1.613 . S
S443 N445 1.610 . S
N444 S443 1.613 . S
N444 C447 1.350 . S
N445 S443 1.610 . S
N445 C446 1.351 . S
C446 C440 1.428 . S
C446 N445 1.351 . S
C446 C447 1.434 . S
C447 C438 1.429 . S
C447 N444 1.350 . S
C447 C446 1.434 . S
C448 C449 1.369 . S
C448 C450 1.419 . S
C448 H452 0.930 . S
C449 C448 1.369 . S
C449 C458 1.429 . S
C450 C448 1.419 . S
C450 C451 1.363 . S
C450 H453 0.929 . S
C451 C450 1.363 . S
C451 C457 1.428 . S
H452 C448 0.930 . S
H453 C450 0.929 . S
S454 N455 1.613 . S
S454 N456 1.610 . S
N455 S454 1.613 . S
N455 C458 1.350 . S
N456 S454 1.610 . S
N456 C457 1.351 . S
C457 C451 1.428 . S
C457 N456 1.351 . S
C457 C458 1.434 . S
C458 C449 1.429 . S
C458 N455 1.350 . S
C458 C457 1.434 . S
C459 C460 1.369 . S
C459 C461 1.419 . S
C459 H463 0.930 . S
C460 C459 1.369 . S
C460 C469 1.429 . S
C461 C459 1.419 . S
C461 C462 1.363 . S
C461 H464 0.929 . S
C462 C461 1.363 . S
C462 C468 1.428 . S
H463 C459 0.930 . S
H464 C461 0.929 . S
S465 N466 1.613 . S
S465 N467 1.610 . S
N466 S465 1.613 . S
N466 C469 1.350 1_556 S
N467 S465 1.610 . S
N467 C468 1.351 1_556 S
C468 C462 1.428 . S
C468 N467 1.351 1_554 S
C468 C469 1.434 . S
C469 C460 1.429 . S
C469 N466 1.350 1_554 S
C469 C468 1.434 . S
C470 C471 1.369 1_556 S
C470 C472 1.419 . S
C470 H474 0.930 . S
C471 C470 1.369 1_554 S
C471 C480 1.429 . S
C472 C470 1.419 . S
C472 C473 1.363 1_566 S
C472 H475 0.929 . S
C473 C472 1.363 1_544 S
C473 C479 1.428 . S
H474 C470 0.930 . S
H475 C472 0.929 . S
S476 N477 1.613 1_455 S
S476 N478 1.610 1_455 S
N477 S476 1.613 1_655 S
N477 C480 1.350 1_545 S
N478 S476 1.610 1_655 S
N478 C479 1.351 . S
C479 C473 1.428 . S
C479 N478 1.351 . S
C479 C480 1.434 1_545 S
C480 C471 1.429 . S
C480 N477 1.350 1_565 S
C480 C479 1.434 1_565 S
C481 C482 1.369 1_556 S
C481 C483 1.419 . S
C481 H485 0.930 . S
C482 C481 1.369 1_554 S
C482 C491 1.429 . S
C483 C481 1.419 . S
C483 C484 1.363 1_556 S
C483 H486 0.929 . S
C484 C483 1.363 1_554 S
C484 C490 1.428 . S
H485 C481 0.930 . S
H486 C483 0.929 . S
S487 N488 1.613 . S
S487 N489 1.610 . S
N488 S487 1.613 . S
N488 C491 1.350 . S
N489 S487 1.610 . S
N489 C490 1.351 . S
C490 C484 1.428 . S
C490 N489 1.351 . S
C490 C491 1.434 . S
C491 C482 1.429 . S
C491 N488 1.350 . S
C491 C490 1.434 . S
C492 C493 1.369 . S
C492 C494 1.419 . S
C492 H496 0.930 . S
C493 C492 1.369 . S
C493 C502 1.429 . S
C494 C492 1.419 . S
C494 C495 1.363 . S
C494 H497 0.929 . S
C495 C494 1.363 . S
C495 C501 1.428 . S
H496 C492 0.930 . S
H497 C494 0.929 . S
S498 N499 1.613 . S
S498 N500 1.610 . S
N499 S498 1.613 . S
N499 C502 1.350 . S
N500 S498 1.610 . S
N500 C501 1.351 . S
C501 C495 1.428 . S
C501 N500 1.351 . S
C501 C502 1.434 . S
C502 C493 1.429 . S
C502 N499 1.350 . S
C502 C501 1.434 . S
C503 C504 1.369 . S
C503 C505 1.419 . S
C503 H507 0.930 . S
C504 C503 1.369 . S
C504 C513 1.429 . S
C505 C503 1.419 . S
C505 C506 1.363 . S
C505 H508 0.929 . S
C506 C505 1.363 . S
C506 C512 1.428 . S
H507 C503 0.930 . S
H508 C505 0.929 . S
S509 N510 1.613 . S
S509 N511 1.610 . S
N510 S509 1.613 . S
N510 C513 1.350 . S
N511 S509 1.610 . S
N511 C512 1.351 . S
C512 C506 1.428 . S
C512 N511 1.351 . S
C512 C513 1.434 . S
C513 C504 1.429 . S
C513 N510 1.350 . S
C513 C512 1.434 . S
C514 C515 1.369 . S
C514 C516 1.419 . S
C514 H518 0.930 . S
C515 C514 1.369 . S
C515 C524 1.429 1_554 S
C516 C514 1.419 . S
C516 C517 1.363 . S
C516 H519 0.929 . S
C517 C516 1.363 . S
C517 C523 1.428 1_554 S
H518 C514 0.930 . S
H519 C516 0.929 . S
S520 N521 1.613 . S
S520 N522 1.610 . S
N521 S520 1.613 . S
N521 C524 1.350 . S
N522 S520 1.610 . S
N522 C523 1.351 . S
C523 C517 1.428 1_556 S
C523 N522 1.351 . S
C523 C524 1.434 . S
C524 C515 1.429 1_556 S
C524 N521 1.350 . S
C524 C523 1.434 . S
C525 C526 1.375 . S
C525 C527 1.420 . S
C525 H529 0.922 1_556 S
C526 C525 1.375 . S
C526 C535 1.429 . S
C527 C525 1.420 . S
C527 C528 1.363 . S
C527 H530 0.929 1_556 S
C528 C527 1.363 . S
C528 C534 1.428 . S
H529 C525 0.922 1_554 S
H530 C527 0.929 1_554 S
S531 N532 1.613 . S
S531 N533 1.610 . S
N532 S531 1.613 . S
N532 C535 1.350 . S
N533 S531 1.610 . S
N533 C534 1.351 . S
C534 C528 1.428 . S
C534 N533 1.351 . S
C534 C535 1.434 . S
C535 C526 1.429 . S
C535 N532 1.350 . S
C535 C534 1.434 . S
C536 C537 1.369 . S
C536 C538 1.419 . S
C536 H540 0.930 1_556 S
C537 C536 1.369 . S
C537 C546 1.429 . S
C538 C536 1.419 . S
C538 C539 1.363 . S
C538 H541 0.929 1_556 S
C539 C538 1.363 . S
C539 C545 1.428 . S
H540 C536 0.930 1_554 S
H541 C538 0.929 1_554 S
S542 N543 1.613 . S
S542 N544 1.610 . S
N543 S542 1.613 . S
N543 C546 1.350 . S
N544 S542 1.610 . S
N544 C545 1.351 . S
C545 C539 1.428 . S
C545 N544 1.351 . S
C545 C546 1.434 . S
C546 C537 1.429 . S
C546 N543 1.350 . S
C546 C545 1.434 . S
C547 C548 1.369 . S
C547 C549 1.419 . S
C547 H551 0.930 . S
C548 C547 1.369 . S
C548 C557 1.429 . S
C549 C547 1.419 . S
C549 C550 1.363 . S
C549 H552 0.929 . S
C550 C549 1.363 . S
C550 C556 1.428 . S
H551 C547 0.930 . S
H552 C549 0.929 . S
S553 N554 1.613 . S
S553 N555 1.610 . S
N554 S553 1.613 . S
N554 C557 1.350 1_554 S
N555 S553 1.610 . S
N555 C556 1.351 1_554 S
C556 C550 1.428 . S
C556 N555 1.351 1_556 S
C556 C557 1.434 . S
C557 C548 1.429 . S
C557 N554 1.350 1_556 S
C557 C556 1.434 . S
C558 C559 1.369 . S
C558 C560 1.419 . S
C558 H562 0.930 . S
C559 C558 1.369 . S
C559 C568 1.429 . S
C560 C558 1.419 . S
C560 C561 1.363 . S
C560 H563 0.929 . S
C561 C560 1.363 . S
C561 C567 1.428 . S
H562 C558 0.930 . S
H563 C560 0.929 . S
S564 N565 1.613 . S
S564 N566 1.610 . S
N565 S564 1.613 . S
N565 C568 1.350 . S
N566 S564 1.610 . S
N566 C567 1.351 . S
C567 C561 1.428 . S
C567 N566 1.351 . S
C567 C568 1.434 . S
C568 C559 1.429 . S
C568 N565 1.350 . S
C568 C567 1.434 . S
C569 C570 1.369 . S
C569 C571 1.419 . S
C569 H573 0.930 . S
C570 C569 1.369 . S
C570 C579 1.429 . S
C571 C569 1.419 . S
C571 C572 1.363 . S
C571 H574 0.929 . S
C572 C571 1.363 . S
C572 C578 1.428 . S
H573 C569 0.930 . S
H574 C571 0.929 . S
S575 N576 1.613 . S
S575 N577 1.610 . S
N576 S575 1.613 . S
N576 C579 1.350 . S
N577 S575 1.610 . S
N577 C578 1.351 . S
C578 C572 1.428 . S
C578 N577 1.351 . S
C578 C579 1.434 . S
C579 C570 1.429 . S
C579 N576 1.350 . S
C579 C578 1.434 . S
C580 C581 1.369 . S
C580 C582 1.419 . S
C580 H584 0.930 1_545 S
C581 C580 1.369 . S
C581 C590 1.429 . S
C582 C580 1.419 . S
C582 C583 1.363 . S
C582 H585 0.929 . S
C583 C582 1.363 . S
C583 C589 1.428 . S
H584 C580 0.930 1_565 S
H585 C582 0.929 . S
S586 N587 1.613 . S
S586 N588 1.610 . S
N587 S586 1.613 . S
N587 C590 1.350 . S
N588 S586 1.610 . S
N588 C589 1.351 . S
C589 C583 1.428 . S
C589 N588 1.351 . S
C589 C590 1.434 . S
C590 C581 1.429 . S
C590 N587 1.350 . S
C590 C589 1.434 . S
C591 C592 1.369 . S
C591 C593 1.419 . S
C591 H595 0.930 . S
C592 C591 1.369 . S
C592 C601 1.429 . S
C593 C591 1.419 . S
C593 C594 1.363 . S
C593 H596 0.929 . S
C594 C593 1.363 . S
C594 C600 1.428 . S
H595 C591 0.930 . S
H596 C593 0.929 . S
S597 N598 1.613 . S
S597 N599 1.610 . S
N598 S597 1.613 . S
N598 C601 1.350 . S
N599 S597 1.610 . S
N599 C600 1.351 . S
C600 C594 1.428 . S
C600 N599 1.351 . S
C600 C601 1.434 . S
C601 C592 1.429 . S
C601 N598 1.350 . S
C601 C600 1.434 . S
C602 C603 1.369 . S
C602 C604 1.419 . S
C602 H606 0.930 . S
C603 C602 1.369 . S
C603 C612 1.429 . S
C604 C602 1.419 . S
C604 C605 1.363 . S
C604 H607 0.929 . S
C605 C604 1.363 . S
C605 C611 1.428 . S
H606 C602 0.930 . S
H607 C604 0.929 . S
S608 N609 1.613 . S
S608 N610 1.610 . S
N609 S608 1.613 . S
N609 C612 1.350 . S
N610 S608 1.610 . S
N610 C611 1.351 . S
C611 C605 1.428 . S
C611 N610 1.351 . S
C611 C612 1.434 . S
C612 C603 1.429 . S
C612 N609 1.350 . S
C612 C611 1.434 . S
C613 C614 1.369 . S
C613 C615 1.419 . S
C613 H617 0.930 . S
C614 C613 1.369 . S
C614 C623 1.429 . S
C615 C613 1.419 . S
C615 C616 1.363 . S
C615 H618 0.929 . S
C616 C615 1.363 . S
C616 C622 1.428 . S
H617 C613 0.930 . S
H618 C615 0.929 . S
S619 N620 1.613 . S
S619 N621 1.610 . S
N620 S619 1.613 . S
N620 C623 1.350 . S
N621 S619 1.610 . S
N621 C622 1.351 . S
C622 C616 1.428 . S
C622 N621 1.351 . S
C622 C623 1.434 . S
C623 C614 1.429 . S
C623 N620 1.350 . S
C623 C622 1.434 . S
C624 C625 1.369 . S
C624 C626 1.419 . S
C624 H628 0.930 . S
C625 C624 1.369 . S
C625 C634 1.429 . S
C626 C624 1.419 . S
C626 C627 1.363 . S
C626 H629 0.929 . S
C627 C626 1.363 . S
C627 C633 1.428 . S
H628 C624 0.930 . S
H629 C626 0.929 . S
S630 N631 1.613 . S
S630 N632 1.610 . S
N631 S630 1.613 . S
N631 C634 1.350 . S
N632 S630 1.610 . S
N632 C633 1.351 . S
C633 C627 1.428 . S
C633 N632 1.351 . S
C633 C634 1.434 . S
C634 C625 1.429 . S
C634 N631 1.350 . S
C634 C633 1.434 . S
C635 C636 1.369 . S
C635 C637 1.419 . S
C635 H639 0.930 . S
C636 C635 1.369 . S
C636 C645 1.429 . S
C637 C635 1.419 . S
C637 C638 1.363 . S
C637 H640 0.929 . S
C638 C637 1.363 . S
C638 C644 1.428 . S
H639 C635 0.930 . S
H640 C637 0.929 . S
S641 N642 1.613 . S
S641 N643 1.610 . S
N642 S641 1.613 . S
N642 C645 1.350 . S
N643 S641 1.610 . S
N643 C644 1.351 . S
C644 C638 1.428 . S
C644 N643 1.351 . S
C644 C645 1.434 . S
C645 C636 1.429 . S
C645 N642 1.350 . S
C645 C644 1.434 . S
C646 C647 1.369 . S
C646 C648 1.419 . S
C646 H650 0.930 . S
C647 C646 1.369 . S
C647 C656 1.429 . S
C648 C646 1.419 . S
C648 C649 1.363 . S
C648 H651 0.929 . S
C649 C648 1.363 . S
C649 C655 1.428 . S
H650 C646 0.930 . S
H651 C648 0.929 . S
S652 N653 1.613 . S
S652 N654 1.610 . S
N653 S652 1.613 . S
N653 C656 1.350 . S
N654 S652 1.610 . S
N654 C655 1.351 . S
C655 C649 1.428 . S
C655 N654 1.351 . S
C655 C656 1.434 . S
C656 C647 1.429 . S
C656 N653 1.350 . S
C656 C655 1.434 . S
C361 C6 1.691 . S
C363 C286 1.684 . S
C372 C50 2.643 . S
C374 C330 2.731 . S
C383 C86 1.739 . S
C385 C250 1.744 . S
C394 C170 3.153 . S
C396 C90 3.111 . S
C405 C210 2.915 . S
C407 C10 2.974 1_655 S
C416 C46 2.584 . S
C418 C130 2.539 . S
C427 C290 2.388 . S
C429 C206 2.311 . S
C438 C326 1.860 . S
C440 C126 1.880 . S
C449 C166 2.253 . S
C451 C246 2.301 . S
C460 C95 2.042 . S
C462 C19 2.171 . S
C471 C55 1.568 . S
C473 C15 1.565 . S
C482 C59 3.470 1_455 S
C484 C99 3.399 1_554 S
C493 C135 1.957 . S
C495 C219 1.963 . S
C504 C139 1.972 . S
C506 C175 2.017 . S
C515 C179 1.770 . S
C517 C215 1.763 . S
C526 C335 2.074 . S
C528 C259 2.151 . S
C537 C295 0.995 . S
C539 C255 1.017 . S
C548 C339 2.237 . S
C550 C299 2.355 . S
C559 C18 1.148 . S
C561 C9 1.145 . S
C570 C49 1.113 . S
C572 C58 1.120 . S
C581 C98 1.113 . S
C583 C89 1.116 . S
C592 C138 1.178 . S
C594 C129 1.173 . S
C603 C178 1.194 . S
C605 C169 1.191 . S
C614 C218 1.114 . S
C616 C209 1.117 . S
C625 C258 1.189 . S
C627 C249 1.185 . S
C636 C298 1.159 . S
C638 C289 1.152 . S
C647 C338 1.133 . S
C649 C329 1.139 . S
