# Generated by pormake.
# Topology wme, (6)-cn, num edge types: 1
# Building blocks:
#     Node 0, Type 0, BuildingBlock: MAKGUD_clean_sbu_1, # of connection points: 6
#     Node 1, Type 0, BuildingBlock: MAKGUD_clean_sbu_1, # of connection points: 6
#     Node 2, Type 0, BuildingBlock: MAKGUD_clean_sbu_1, # of connection points: 6
#     Node 3, Type 0, BuildingBlock: MAKGUD_clean_sbu_1, # of connection points: 6
#     Node 4, Type 0, BuildingBlock: MAKGUD_clean_sbu_1, # of connection points: 6
#     Node 5, Type 0, BuildingBlock: MAKGUD_clean_sbu_1, # of connection points: 6
#     Node 6, Type 0, BuildingBlock: MAKGUD_clean_sbu_1, # of connection points: 6
#     Node 7, Type 0, BuildingBlock: MAKGUD_clean_sbu_1, # of connection points: 6
#     Node 8, Type 0, BuildingBlock: MAKGUD_clean_sbu_1, # of connection points: 6
#     Node 9, Type 0, BuildingBlock: MAKGUD_clean_sbu_1, # of connection points: 6
#     Node 10, Type 0, BuildingBlock: MAKGUD_clean_sbu_1, # of connection points: 6
#     Node 11, Type 0, BuildingBlock: MAKGUD_clean_sbu_1, # of connection points: 6
#     Edge 12, Type (0, 0), BuildingBlock: XIVTED_clean_linker_0, # of connection points: 2
#     Edge 13, Type (0, 0), BuildingBlock: XIVTED_clean_linker_0, # of connection points: 2
#     Edge 14, Type (0, 0), BuildingBlock: XIVTED_clean_linker_0, # of connection points: 2
#     Edge 15, Type (0, 0), BuildingBlock: XIVTED_clean_linker_0, # of connection points: 2
#     Edge 16, Type (0, 0), BuildingBlock: XIVTED_clean_linker_0, # of connection points: 2
#     Edge 17, Type (0, 0), BuildingBlock: XIVTED_clean_linker_0, # of connection points: 2
#     Edge 18, Type (0, 0), BuildingBlock: XIVTED_clean_linker_0, # of connection points: 2
#     Edge 19, Type (0, 0), BuildingBlock: XIVTED_clean_linker_0, # of connection points: 2
#     Edge 20, Type (0, 0), BuildingBlock: XIVTED_clean_linker_0, # of connection points: 2
#     Edge 21, Type (0, 0), BuildingBlock: XIVTED_clean_linker_0, # of connection points: 2
#     Edge 22, Type (0, 0), BuildingBlock: XIVTED_clean_linker_0, # of connection points: 2
#     Edge 23, Type (0, 0), BuildingBlock: XIVTED_clean_linker_0, # of connection points: 2
#     Edge 24, Type (0, 0), BuildingBlock: XIVTED_clean_linker_0, # of connection points: 2
#     Edge 25, Type (0, 0), BuildingBlock: XIVTED_clean_linker_0, # of connection points: 2
#     Edge 26, Type (0, 0), BuildingBlock: XIVTED_clean_linker_0, # of connection points: 2
#     Edge 27, Type (0, 0), BuildingBlock: XIVTED_clean_linker_0, # of connection points: 2
#     Edge 28, Type (0, 0), BuildingBlock: XIVTED_clean_linker_0, # of connection points: 2
#     Edge 29, Type (0, 0), BuildingBlock: XIVTED_clean_linker_0, # of connection points: 2
#     Edge 30, Type (0, 0), BuildingBlock: XIVTED_clean_linker_0, # of connection points: 2
#     Edge 31, Type (0, 0), BuildingBlock: XIVTED_clean_linker_0, # of connection points: 2
#     Edge 32, Type (0, 0), BuildingBlock: XIVTED_clean_linker_0, # of connection points: 2
#     Edge 33, Type (0, 0), BuildingBlock: XIVTED_clean_linker_0, # of connection points: 2
#     Edge 34, Type (0, 0), BuildingBlock: XIVTED_clean_linker_0, # of connection points: 2
#     Edge 35, Type (0, 0), BuildingBlock: XIVTED_clean_linker_0, # of connection points: 2
#     Edge 36, Type (0, 0), BuildingBlock: XIVTED_clean_linker_0, # of connection points: 2
#     Edge 37, Type (0, 0), BuildingBlock: XIVTED_clean_linker_0, # of connection points: 2
#     Edge 38, Type (0, 0), BuildingBlock: XIVTED_clean_linker_0, # of connection points: 2
#     Edge 39, Type (0, 0), BuildingBlock: XIVTED_clean_linker_0, # of connection points: 2
#     Edge 40, Type (0, 0), BuildingBlock: XIVTED_clean_linker_0, # of connection points: 2
#     Edge 41, Type (0, 0), BuildingBlock: XIVTED_clean_linker_0, # of connection points: 2
#     Edge 42, Type (0, 0), BuildingBlock: XIVTED_clean_linker_0, # of connection points: 2
#     Edge 43, Type (0, 0), BuildingBlock: XIVTED_clean_linker_0, # of connection points: 2
#     Edge 44, Type (0, 0), BuildingBlock: XIVTED_clean_linker_0, # of connection points: 2
#     Edge 45, Type (0, 0), BuildingBlock: XIVTED_clean_linker_0, # of connection points: 2
#     Edge 46, Type (0, 0), BuildingBlock: XIVTED_clean_linker_0, # of connection points: 2
#     Edge 47, Type (0, 0), BuildingBlock: XIVTED_clean_linker_0, # of connection points: 2
# Relax obj value: 0.158
# Max RMSD: 0.286
# Mean RMSD: 0.286
data_MOF--net-wme--node1-MAKGUD_clean_sbu_1--edge1-XIVTED_clean_linker_0
_symmetry_space_group_name_H-M    P1
_symmetry_Int_Tables_number       1
_symmetry_cell_setting            triclinic
loop_
_symmetry_equiv_pos_as_xyz
'x, y, z'
_cell_length_a     36.810699
_cell_length_b     36.887388
_cell_length_c     51.252186
_cell_angle_alpha  89.526077
_cell_angle_beta   89.996412
_cell_angle_gamma 120.07504
loop_
_atom_site_label
_atom_site_type_symbol
_atom_site_fract_x
_atom_site_fract_y
_atom_site_fract_z
_atom_type_partial_charge
O0 O 0.35363 0.50599 0.08968 0.0
Tb1 Tb 0.30647 0.44435 0.10419 0.0
C2 C 0.25383 0.37359 0.15057 0.0
O3 O 0.25606 0.3668 0.06804 0.0
Tb4 Tb 0.2259 0.31786 0.0967 0.0
C5 C 0.24279 0.25621 0.08901 0.0
O6 O 0.32349 0.41045 0.07731 0.0
O7 O 0.15811 0.2903 0.09656 0.0
C8 C 0.13679 0.27841 0.07467 0.0
O9 O 0.15734 0.28695 0.05242 0.0
O10 O 0.28089 0.41152 0.14129 0.0
O11 O 0.23266 0.33842 0.13712 0.0
O12 O 0.2613 0.46443 0.09515 0.0
C13 C 0.29559 0.37988 0.06323 0.0
C14 C 0.378 0.51675 0.10987 0.0
O15 O 0.21438 0.26087 0.07691 0.0
O16 O 0.26201 0.28648 0.10567 0.0
C17 C 0.2481 0.47824 0.11454 0.0
O18 O 0.25723 0.47276 0.13849 0.0
O19 O 0.36197 0.4867 0.12721 0.0
O20 O 0.87661 0.32985 0.60079 0.0
Tb21 Tb 0.89276 0.28513 0.61776 0.0
C22 C 0.90738 0.23372 0.66646 0.0
O23 O 0.91526 0.22674 0.58662 0.0
Tb24 Tb 0.93363 0.19611 0.61525 0.0
C25 C 1.01346 0.21636 0.60733 0.0
O26 O 0.94201 0.29599 0.59071 0.0
O27 O 0.89856 0.12751 0.6167 0.0
C28 C 0.89428 0.10591 0.59541 0.0
O29 O 0.90603 0.12613 0.57298 0.0
O30 O 0.89924 0.26203 0.65598 0.0
O31 O 0.91877 0.20909 0.65432 0.0
O32 O 0.82843 0.23796 0.60897 0.0
C33 C 0.94324 0.26498 0.57955 0.0
C34 C 0.89214 0.35749 0.61916 0.0
O35 O 0.98228 0.19441 0.59188 0.0
O36 O 0.99988 0.22751 0.62748 0.0
C37 C 0.80045 0.22438 0.62795 0.0
O38 O 0.81356 0.23471 0.65202 0.0
O39 O 0.9079 0.34422 0.63711 0.0
O40 O 0.61551 0.90991 0.0932 0.0
Tb41 Tb 0.6632 0.89624 0.10736 0.0
C42 C 0.74318 0.91521 0.14046 0.0
O43 O 0.74446 0.91623 0.07918 0.0
Tb44 Tb 0.80746 0.94507 0.09453 0.0
C45 C 0.85632 1.02746 0.08887 0.0
O46 O 0.69092 0.92659 0.07015 0.0
O47 O 0.84402 0.91435 0.08749 0.0
C48 C 0.8561 0.89942 0.10701 0.0
O49 O 0.84305 0.9003 0.13072 0.0
O50 O 0.72418 0.93161 0.12693 0.0
O51 O 0.78128 0.92375 0.13341 0.0
O52 O 0.63807 0.82912 0.10537 0.0
C53 C 0.72913 0.93482 0.06473 0.0
C54 C 0.60003 0.9108 0.11581 0.0
O55 O 0.84094 1.00087 0.06979 0.0
O56 O 0.84336 1.00758 0.1111 0.0
C57 C 0.62209 0.80599 0.12652 0.0
O58 O 0.62629 0.8247 0.14892 0.0
O59 O 0.62107 0.90454 0.13413 0.0
O60 O 0.75909 0.59027 0.58879 0.0
Tb61 Tb 0.80452 0.64859 0.60757 0.0
C62 C 0.85785 0.70536 0.65463 0.0
O63 O 0.86694 0.72634 0.56691 0.0
Tb64 Tb 0.89257 0.76142 0.60239 0.0
C65 C 0.88111 0.82768 0.60269 0.0
O66 O 0.79807 0.68814 0.57853 0.0
O67 O 0.96039 0.78913 0.59997 0.0
C68 C 0.98014 0.80385 0.5776 0.0
O69 O 0.9579 0.79734 0.55631 0.0
O70 O 0.82015 0.679 0.64546 0.0
O71 O 0.89006 0.73187 0.63999 0.0
O72 O 0.84943 0.62653 0.60472 0.0
C73 C 0.82724 0.71168 0.56153 0.0
C74 C 0.73042 0.5774 0.60682 0.0
O75 O 0.91112 0.82543 0.59097 0.0
O76 O 0.85692 0.79215 0.61475 0.0
C77 C 0.85349 0.60716 0.6253 0.0
O78 O 0.83528 0.60775 0.6472 0.0
O79 O 0.74347 0.60473 0.62554 0.0
O80 O 0.2302 0.75802 0.08405 0.0
Tb81 Tb 0.21624 0.80349 0.10184 0.0
C82 C 0.2064 0.85353 0.14791 0.0
O83 O 0.20437 0.86807 0.06039 0.0
Tb84 Tb 0.19333 0.89272 0.09591 0.0
C85 C 0.11403 0.87667 0.09613 0.0
O86 O 0.17377 0.7986 0.071 0.0
O87 O 0.23029 0.961 0.09537 0.0
C88 C 0.23329 0.98217 0.07388 0.0
O89 O 0.21854 0.96146 0.05206 0.0
O90 O 0.19362 0.81621 0.13788 0.0
O91 O 0.21838 0.88762 0.13354 0.0
O92 O 0.28301 0.84988 0.10258 0.0
C93 C 0.17971 0.82852 0.05453 0.0
C94 C 0.2133 0.72942 0.10215 0.0
O95 O 0.14534 0.9073 0.08395 0.0
O96 O 0.12721 0.8545 0.10866 0.0
C97 C 0.30408 0.85029 0.12351 0.0
O98 O 0.28277 0.82679 0.14356 0.0
O99 O 0.19803 0.74259 0.12029 0.0
O100 O 0.51189 0.21428 0.58583 0.0
Tb101 Tb 0.44816 0.19607 0.59815 0.0
C102 C 0.37899 0.17155 0.64816 0.0
O103 O 0.36419 0.16771 0.57175 0.0
Tb104 Tb 0.31304 0.14091 0.59878 0.0
C105 C 0.25739 0.06082 0.58949 0.0
O106 O 0.41462 0.15197 0.56754 0.0
O107 O 0.27916 0.17483 0.60311 0.0
C108 C 0.26374 0.18397 0.58256 0.0
O109 O 0.27207 0.1753 0.55925 0.0
O110 O 0.41576 0.18652 0.63586 0.0
O111 O 0.34084 0.15359 0.63765 0.0
O112 O 0.4699 0.26252 0.59253 0.0
C113 C 0.37723 0.14417 0.56113 0.0
C114 C 0.51853 0.19265 0.60333 0.0
O115 O 0.26162 0.09272 0.57603 0.0
O116 O 0.28479 0.07397 0.60828 0.0
C117 C 0.48492 0.28709 0.61297 0.0
O118 O 0.48097 0.26971 0.63602 0.0
O119 O 0.48555 0.1731 0.61829 0.0
O120 O 0.57703 0.73746 0.39397 0.0
Tb121 Tb 0.63751 0.78403 0.37727 0.0
C122 C 0.70384 0.83985 0.32979 0.0
O123 O 0.71737 0.83935 0.41162 0.0
Tb124 Tb 0.76504 0.87104 0.38218 0.0
C125 C 0.82533 0.85159 0.38894 0.0
O126 O 0.67569 0.77097 0.40328 0.0
O127 O 0.79825 0.93936 0.38459 0.0
C128 C 0.82297 0.96258 0.36533 0.0
O129 O 0.82321 0.94423 0.34353 0.0
O130 O 0.66735 0.80993 0.33944 0.0
O131 O 0.73935 0.86372 0.3427 0.0
O132 O 0.61841 0.82922 0.38757 0.0
C133 C 0.70612 0.80029 0.41681 0.0
C134 C 0.5648 0.71127 0.37477 0.0
O135 O 0.81833 0.87582 0.4037 0.0
O136 O 0.79814 0.83792 0.37 0.0
C137 C 0.60235 0.84197 0.36912 0.0
O138 O 0.60462 0.83206 0.34486 0.0
O139 O 0.59355 0.72623 0.35658 0.0
O140 O 0.92526 0.58857 0.88876 0.0
Tb141 Tb 0.90628 0.63444 0.87984 0.0
C142 C 0.92002 0.71211 0.8459 0.0
O143 O 0.92576 0.70763 0.91612 0.0
Tb144 Tb 0.94902 0.76704 0.89681 0.0
C145 C 1.03147 0.81989 0.89767 0.0
O146 O 0.94461 0.65902 0.91451 0.0
O147 O 0.91434 0.79936 0.9037 0.0
C148 C 0.91428 0.8155 0.92646 0.0
O149 O 0.93407 0.81027 0.94617 0.0
O150 O 0.93792 0.69136 0.85535 0.0
O151 O 0.92299 0.74481 0.85834 0.0
O152 O 0.83993 0.60898 0.88836 0.0
C153 C 0.95054 0.69412 0.92434 0.0
C154 C 0.91737 0.57108 0.86604 0.0
O155 O 1.0057 0.81313 0.9169 0.0
O156 O 1.01077 0.79658 0.87796 0.0
C157 C 0.81339 0.59724 0.86878 0.0
O158 O 0.82854 0.60686 0.84493 0.0
O159 O 0.90358 0.58976 0.85059 0.0
O160 O 0.32279 0.8526 0.40702 0.0
Tb161 Tb 0.27646 0.86862 0.39272 0.0
C162 C 0.22998 0.88492 0.34273 0.0
O163 O 0.21205 0.88574 0.42846 0.0
Tb164 Tb 0.19308 0.90749 0.39465 0.0
C165 C 0.21165 0.98659 0.40179 0.0
O166 O 0.2819 0.91164 0.42307 0.0
O167 O 0.125 0.87193 0.39046 0.0
C168 C 0.10031 0.86377 0.41089 0.0
O169 O 0.11724 0.87298 0.43422 0.0
O170 O 0.25833 0.87764 0.35373 0.0
O171 O 0.20385 0.89412 0.3549 0.0
O172 O 0.23348 0.8013 0.39707 0.0
C173 C 0.25057 0.90875 0.43685 0.0
C174 C 0.35234 0.87554 0.39046 0.0
O175 O 0.17856 0.95338 0.41052 0.0
O176 O 0.23484 0.97551 0.38867 0.0
C177 C 0.23006 0.77737 0.37714 0.0
O178 O 0.24841 0.79567 0.35504 0.0
O179 O 0.33914 0.89465 0.37501 0.0
O180 O 0.51509 0.31982 0.90184 0.0
Tb181 Tb 0.45547 0.27181 0.88551 0.0
C182 C 0.39211 0.21747 0.84186 0.0
O183 O 0.3855 0.21154 0.93 0.0
Tb184 Tb 0.34565 0.18257 0.89658 0.0
C185 C 0.27988 0.19406 0.90071 0.0
O186 O 0.41962 0.27944 0.91622 0.0
O187 O 0.31654 0.11481 0.89985 0.0
C188 C 0.29313 0.09193 0.88041 0.0
O189 O 0.29155 0.111 0.85906 0.0
O190 O 0.41784 0.25565 0.8503 0.0
O191 O 0.37078 0.18487 0.85754 0.0
O192 O 0.47565 0.22551 0.88745 0.0
C193 C 0.399 0.25126 0.93436 0.0
C194 C 0.52642 0.34586 0.88228 0.0
O195 O 0.28426 0.16519 0.9124 0.0
O196 O 0.31278 0.2169 0.88605 0.0
C197 C 0.49479 0.22168 0.8668 0.0
O198 O 0.49532 0.24145 0.84523 0.0
O199 O 0.49775 0.33013 0.8643 0.0
O200 O 0.19664 0.4732 0.40497 0.0
Tb201 Tb 0.18734 0.41551 0.38694 0.0
C202 C 0.18501 0.35823 0.34135 0.0
O203 O 0.1733 0.33624 0.42743 0.0
Tb204 Tb 0.16296 0.30113 0.39182 0.0
C205 C 0.08269 0.24024 0.38769 0.0
O206 O 0.1436 0.37619 0.41718 0.0
O207 O 0.19774 0.26765 0.39297 0.0
C208 C 0.1992 0.249 0.41462 0.0
O209 O 0.18317 0.25469 0.43606 0.0
O210 O 0.16925 0.38084 0.35051 0.0
O211 O 0.195 0.33537 0.35641 0.0
O212 O 0.25472 0.43914 0.38884 0.0
C213 C 0.14915 0.35168 0.43345 0.0
C214 C 0.1824 0.48566 0.38581 0.0
O215 O 0.11052 0.23999 0.40309 0.0
O216 O 0.09994 0.27537 0.37439 0.0
C217 C 0.27737 0.45838 0.36794 0.0
O218 O 0.25764 0.45665 0.34622 0.0
O219 O 0.17056 0.45834 0.36714 0.0
O220 O 0.75907 0.18586 0.90284 0.0
Tb221 Tb 0.81756 0.19353 0.88719 0.0
C222 C 0.87131 0.16315 0.8554 0.0
O223 O 0.88152 0.17585 0.91536 0.0
Tb224 Tb 0.91043 0.14095 0.90126 0.0
C225 C 0.87859 0.06096 0.91449 0.0
O226 O 0.82174 0.17364 0.9269 0.0
O227 O 0.97872 0.17199 0.89984 0.0
C228 C 1.00051 0.17386 0.92064 0.0
O229 O 0.98082 0.15997 0.94306 0.0
O230 O 0.84003 0.15288 0.87197 0.0
O231 O 0.89964 0.1524 0.86116 0.0
O232 O 0.85971 0.26003 0.8805 0.0
C233 C 0.85025 0.16309 0.93195 0.0
C234 C 0.73815 0.17532 0.88113 0.0
O235 O 0.89828 0.09241 0.9303 0.0
O236 O 0.87586 0.07466 0.89147 0.0
C237 C 0.85583 0.27744 0.85895 0.0
O238 O 0.82928 0.25329 0.84111 0.0
O239 O 0.76185 0.17412 0.86254 0.0
H240 H 0.26169 1.03491 0.11612 0.0
H241 H 0.21905 0.20418 0.0475 0.0
H242 H 0.23121 1.03173 0.03454 0.0
H243 H 0.28193 0.22688 0.12156 0.0
H244 H 0.22452 0.14128 0.04247 0.0
H245 H 0.27115 0.1055 0.11876 0.0
C246 C 0.25757 0.04921 0.09868 0.0
C247 C 0.24529 1.02708 0.07511 0.0
C248 C 0.2375 0.16011 0.05975 0.0
C249 C 0.25552 0.10768 0.07812 0.0
C250 C 0.23427 0.19598 0.06265 0.0
C251 C 0.24981 0.22053 0.08506 0.0
C252 C 0.25576 0.14813 0.07963 0.0
C253 C 0.26953 0.2087 0.104 0.0
C254 C 0.26294 0.08953 0.10022 0.0
C255 C 0.24045 0.04734 0.05317 0.0
N256 N 0.27145 0.17298 0.10103 0.0
N257 N 0.24505 0.08614 0.0553 0.0
H258 H 0.22079 0.19881 0.54431 0.0
H259 H 0.07613 0.23876 0.64351 0.0
H260 H 0.23639 0.20228 0.62789 0.0
H261 H 1.04687 0.20694 0.56251 0.0
H262 H 0.14242 0.23873 0.63731 0.0
H263 H 0.16473 0.21515 0.54992 0.0
C264 C 0.21278 0.20344 0.56385 0.0
C265 C 0.23313 0.19871 0.58568 0.0
C266 C 0.12166 0.23223 0.62085 0.0
C267 C 0.1686 0.21734 0.59225 0.0
C268 C 0.08402 0.23248 0.62435 0.0
C269 C 0.05598 0.22252 0.60353 0.0
C270 C 0.13131 0.22234 0.59629 0.0
C271 C 0.06751 0.21444 0.57912 0.0
C272 C 0.18061 0.21267 0.56705 0.0
C273 C 0.22139 0.20531 0.61051 0.0
N274 N 0.10414 0.21434 0.57621 0.0
N275 N 0.1897 0.21399 0.61314 0.0
H276 H 0.8957 0.08421 0.12746 0.0
H277 H 0.08352 0.23997 0.03365 0.0
H278 H 0.89413 0.07044 0.04393 0.0
H279 H 0.08492 0.2512 0.11747 0.0
H280 H 1.00976 0.18499 0.03615 0.0
H281 H 0.95976 0.15233 0.12328 0.0
C282 C 0.90849 0.09592 0.10818 0.0
C283 C 0.89002 0.07152 0.08604 0.0
C284 C 1.02604 0.19986 0.05396 0.0
C285 C 0.96368 0.14914 0.08109 0.0
C286 C 0.06819 0.23135 0.05256 0.0
C287 C 0.09068 0.24989 0.07543 0.0
C288 C 1.00622 0.18669 0.07843 0.0
C289 C 0.06903 0.23753 0.09934 0.0
C290 C 0.94517 0.13475 0.10579 0.0
C291 C 0.90772 0.08818 0.06152 0.0
N292 N 1.02821 0.20642 0.10023 0.0
N293 N 0.94393 0.12574 0.05972 0.0
H294 H 0.9119 0.88784 0.56537 0.0
H295 H 0.87079 0.05283 0.63846 0.0
H296 H 0.84001 0.85337 0.63682 0.0
H297 H 0.89352 0.05677 0.5556 0.0
H298 H 0.86163 0.98196 0.64029 0.0
H299 H 0.90887 0.95228 0.5634 0.0
C300 C 0.89526 0.89381 0.58065 0.0
C301 C 0.87618 0.86519 0.60129 0.0
C302 C 0.8681 0.99826 0.62171 0.0
C303 C 0.87308 0.93971 0.59938 0.0
C304 C 0.87334 0.03871 0.62063 0.0
C305 C 0.88322 0.0611 0.59686 0.0
C306 C 0.87344 0.98038 0.59895 0.0
C307 C 0.88615 0.04107 0.57441 0.0
C308 C 0.89342 0.93062 0.57946 0.0
C309 C 0.85497 0.87457 0.62051 0.0
N310 N 0.88182 1.00229 0.57608 0.0
N311 N 0.85442 0.91136 0.61928 0.0
H312 H 1.0489 0.8316 0.13075 0.0
H313 H 0.90164 0.90774 0.06271 0.0
H314 H 0.08207 0.90842 0.06122 0.0
H315 H 0.88403 0.86257 0.14227 0.0
H316 H 0.96018 0.89459 0.05832 0.0
H317 H 0.98096 0.82966 0.13181 0.0
C318 C 1.04161 0.84749 0.11555 0.0
C319 C 0.07113 0.87048 0.09601 0.0
C320 C 0.94327 0.88721 0.07668 0.0
C321 C 0.99394 0.86831 0.09696 0.0
C322 C 0.90969 0.89456 0.07916 0.0
C323 C 0.88811 0.88671 0.10298 0.0
C324 C 0.95533 0.87166 0.09811 0.0
C325 C 0.90002 0.86951 0.1236 0.0
C326 C 1.00303 0.84656 0.1162 0.0
C327 C 0.0603 0.89066 0.07678 0.0
N328 N 0.93297 0.86281 0.12075 0.0
N329 N 1.02273 0.88919 0.07777 0.0
H330 H 1.02901 0.84866 0.53587 0.0
H331 H 0.22944 0.99443 0.6235 0.0
H332 H 1.03575 0.82844 0.61838 0.0
H333 H 0.20739 1.02871 0.54698 0.0
H334 H 0.16587 0.92555 0.61903 0.0
H335 H 0.10155 0.90626 0.53689 0.0
C336 C 1.04589 0.85586 0.55414 0.0
C337 C 1.02597 0.83397 0.57716 0.0
C338 C 0.17526 0.94798 0.6031 0.0
C339 C 0.10915 0.9002 0.57845 0.0
C340 C 0.21158 0.98715 0.6056 0.0
C341 C 0.22321 1.01733 0.58571 0.0
C342 C 0.15077 0.93896 0.58045 0.0
C343 C 0.19911 1.00642 0.5629 0.0
C344 C 0.08732 0.88891 0.55472 0.0
C345 C 1.04966 0.84468 0.60021 0.0
N346 N 0.16389 0.96824 0.56096 0.0
N347 N 0.08986 0.8773 0.60033 0.0
H348 H 0.05516 0.84677 0.36531 0.0
H349 H 0.8684 0.86089 0.43356 0.0
H350 H 1.04325 0.8535 0.44866 0.0
H351 H 0.86292 0.82537 0.35312 0.0
H352 H 0.93149 0.85577 0.43934 0.0
H353 H 0.98422 0.83607 0.3601 0.0
C354 C 1.03749 0.84544 0.38255 0.0
C355 C 0.05546 0.85141 0.40747 0.0
C356 C 0.91641 0.84867 0.42044 0.0
C357 C 0.97439 0.83964 0.40158 0.0
C358 C 0.8804 0.85167 0.41714 0.0
C359 C 0.86064 0.84379 0.39279 0.0
C360 C 0.93343 0.83842 0.39911 0.0
C361 C 0.87729 0.83168 0.37221 0.0
C362 C 0.99697 0.83935 0.37954 0.0
C363 C 1.03094 0.84931 0.42905 0.0
N364 N 0.91312 0.82992 0.37573 0.0
N365 N 0.99199 0.84409 0.42558 0.0
H366 H 0.0788 0.86889 0.93792 0.0
H367 H 0.25446 1.0342 0.84229 0.0
H368 H 0.08485 0.8473 0.85589 0.0
H369 H 0.26262 0.0468 0.926 0.0
H370 H 0.19605 0.96276 0.84752 0.0
H371 H 0.14911 0.93082 0.93493 0.0
C372 C 0.09522 0.87693 0.91936 0.0
C373 C 0.07592 0.85336 0.89703 0.0
C374 C 0.21094 0.98081 0.8648 0.0
C375 C 0.15603 0.92421 0.89338 0.0
C376 C 0.24435 1.02165 0.86182 0.0
C377 C 0.26321 0.04659 0.88374 0.0
C378 C 0.19566 0.96488 0.88991 0.0
C379 C 0.24896 1.02864 0.90857 0.0
C380 C 0.13534 0.91222 0.91766 0.0
C381 C 0.09856 0.86483 0.87352 0.0
N382 N 0.21555 0.98909 0.91099 0.0
N383 N 0.13717 0.89977 0.87223 0.0
H384 H 0.23154 0.22636 0.37343 0.0
H385 H 0.18305 1.01309 0.44158 0.0
H386 H 0.19538 0.19727 0.45438 0.0
H387 H 0.25734 0.05717 0.37122 0.0
H388 H 0.18839 0.08133 0.44639 0.0
H389 H 0.24288 0.16627 0.37173 0.0
C390 C 0.22653 0.20776 0.39093 0.0
C391 C 0.21205 0.21671 0.41402 0.0
C392 C 0.20399 0.07644 0.43001 0.0
C393 C 0.2245 0.14767 0.41208 0.0
C394 C 0.20085 0.03742 0.42724 0.0
C395 C 0.2196 1.02954 0.40591 0.0
C396 C 0.22529 0.10774 0.41098 0.0
C397 C 0.2425 0.06215 0.38796 0.0
C398 C 0.23305 0.17347 0.38994 0.0
C399 C 0.20623 0.19151 0.43609 0.0
N400 N 0.24416 0.09974 0.39066 0.0
N401 N 0.21193 0.15794 0.43446 0.0
H402 H 0.22707 0.16681 0.94195 0.0
H403 H 1.05165 0.20303 0.87718 0.0
H404 H 0.24848 0.23236 0.86849 0.0
H405 H 1.05195 0.17222 0.95858 0.0
H406 H 0.12328 0.21502 0.87289 0.0
H407 H 0.16261 0.16905 0.94779 0.0
C408 C 0.21821 0.18192 0.92707 0.0
C409 C 0.24296 0.19922 0.90463 0.0
C410 C 0.10779 0.20614 0.89173 0.0
C411 C 0.16855 0.20147 0.91103 0.0
C412 C 0.06688 0.19925 0.89421 0.0
C413 C 1.04549 0.1862 0.91824 0.0
C414 C 0.12726 0.19948 0.91335 0.0
C415 C 0.06694 0.18195 0.93963 0.0
C416 C 0.18141 0.18332 0.93045 0.0
C417 C 0.23019 0.21869 0.88607 0.0
N418 N 0.10631 0.1881 0.9366 0.0
N419 N 0.19345 0.21881 0.8895 0.0
H420 H 1.02859 0.2201 0.34611 0.0
H421 H 0.85157 1.00462 0.41153 0.0
H422 H 1.03912 0.17784 0.42291 0.0
H423 H 0.86787 1.02266 0.32817 0.0
H424 H 0.91098 0.07564 0.41756 0.0
H425 H 0.96057 0.15508 0.34086 0.0
C426 C 1.01626 0.19749 0.36199 0.0
C427 C 1.03952 0.2042 0.38493 0.0
C428 C 0.90121 0.06418 0.39795 0.0
C429 C 0.96195 0.13025 0.37919 0.0
C430 C 0.86711 1.02372 0.39448 0.0
C431 C 0.85479 1.00747 0.3693 0.0
C432 C 0.9229 0.08892 0.3761 0.0
C433 C 0.87642 1.03375 0.34795 0.0
C434 C 0.97765 0.16037 0.35895 0.0
C435 C 1.02228 0.17378 0.40485 0.0
N436 N 0.90943 0.07308 0.35182 0.0
N437 N 0.98464 0.13824 0.40155 0.0
H438 H 0.91862 0.86402 0.96807 0.0
H439 H 0.84149 0.99369 0.88233 0.0
H440 H 0.8699 0.83145 0.88988 0.0
H441 H 0.89417 1.03037 0.95926 0.0
H442 H 0.83877 0.92663 0.88845 0.0
H443 H 0.89788 0.91752 0.96867 0.0
C444 C 0.90305 0.86768 0.95117 0.0
C445 C 0.89664 0.84367 0.92872 0.0
C446 C 0.85037 0.94902 0.90419 0.0
C447 C 0.87299 0.90493 0.92925 0.0
C448 C 0.85176 0.98724 0.90072 0.0
C449 C 0.86873 1.01774 0.92015 0.0
C450 C 0.86645 0.94145 0.92717 0.0
C451 C 0.88132 1.00777 0.94367 0.0
C452 C 0.89125 0.89828 0.95152 0.0
C453 C 0.87605 0.84961 0.90748 0.0
N454 N 0.88057 0.97069 0.94638 0.0
N455 N 0.86541 0.87993 0.90817 0.0
H456 H 0.24141 0.69827 0.06395 0.0
H457 H 0.20709 0.50103 0.14919 0.0
H458 H 0.18345 0.66834 0.14014 0.0
H459 H 0.25404 0.52355 0.07012 0.0
H460 H 0.19312 0.55886 0.14484 0.0
H461 H 0.24249 0.63242 0.06468 0.0
C462 C 0.22874 0.67771 0.08081 0.0
C463 C 0.21252 0.68887 0.10209 0.0
C464 C 0.20596 0.55091 0.12828 0.0
C465 C 0.21368 0.61336 0.10309 0.0
C466 C 0.21381 0.51771 0.13071 0.0
C467 C 0.23197 0.50748 0.11002 0.0
C468 C 0.21678 0.5746 0.10507 0.0
C469 C 0.23992 0.53021 0.08656 0.0
C470 C 0.22927 0.64005 0.08118 0.0
C471 C 0.19638 0.66101 0.12336 0.0
N472 N 0.2328 0.56304 0.08483 0.0
N473 N 0.19762 0.62471 0.12339 0.0
H474 H 0.7342 0.18567 0.6618 0.0
H475 H 0.58363 0.22373 0.5689 0.0
H476 H 0.76416 0.22547 0.58142 0.0
H477 H 0.54179 0.15688 0.64217 0.0
H478 H 0.64916 0.22251 0.57276 0.0
H479 H 0.66253 0.17114 0.6545 0.0
C480 C 0.72549 0.19062 0.64247 0.0
C481 C 0.75535 0.20718 0.62225 0.0
C482 C 0.62558 0.20778 0.58792 0.0
C483 C 0.67354 0.19141 0.61391 0.0
C484 C 0.58825 0.20866 0.58579 0.0
C485 C 0.55746 0.19062 0.60535 0.0
C486 C 0.63247 0.18918 0.60996 0.0
C487 C 0.56488 0.17128 0.62672 0.0
C488 C 0.68456 0.18241 0.63834 0.0
C489 C 0.74224 0.21281 0.59759 0.0
N490 N 0.60185 0.17142 0.6286 0.0
N491 N 0.7025 0.20558 0.59423 0.0
H492 H 0.58521 0.74844 0.16617 0.0
H493 H 0.4182 0.57488 0.07176 0.0
H494 H 0.592 0.75943 0.08216 0.0
H495 H 0.42772 0.54995 0.15306 0.0
H496 H 0.48241 0.64257 0.07552 0.0
H497 H 0.5291 0.67546 0.16223 0.0
C498 C 0.57534 0.73537 0.14689 0.0
C499 C 0.59311 0.76026 0.12445 0.0
C500 C 0.47075 0.62227 0.09254 0.0
C501 C 0.52851 0.67693 0.11985 0.0
C502 C 0.43397 0.58368 0.09042 0.0
C503 C 0.41762 0.55696 0.11218 0.0
C504 C 0.49116 0.63459 0.11671 0.0
C505 C 0.43935 0.56978 0.13585 0.0
C506 C 0.54325 0.6937 0.14467 0.0
C507 C 0.57915 0.74156 0.1 0.0
N508 N 0.47488 0.60793 0.13757 0.0
N509 N 0.54735 0.70123 0.09837 0.0
H510 H 0.88101 0.57697 0.66469 0.0
H511 H 0.86852 0.39108 0.57966 0.0
H512 H 0.86184 0.56918 0.58145 0.0
H513 H 0.91531 0.4152 0.65843 0.0
H514 H 0.86649 0.4564 0.57981 0.0
H515 H 0.89561 0.5193 0.66263 0.0
C516 C 0.88057 0.56357 0.64587 0.0
C517 C 0.8701 0.57795 0.6232 0.0
C518 C 0.87747 0.44763 0.59703 0.0
C519 C 0.88591 0.51102 0.6208 0.0
C520 C 0.87847 0.41023 0.59699 0.0
C521 C 0.89193 0.3976 0.61912 0.0
C522 C 0.88956 0.47253 0.61948 0.0
C523 C 0.90462 0.42371 0.64098 0.0
C524 C 0.8888 0.53051 0.64474 0.0
C525 C 0.86998 0.55931 0.5994 0.0
N526 N 0.90281 0.45975 0.64069 0.0
N527 N 0.87714 0.52645 0.59887 0.0
H528 H 0.5535 0.89823 0.16052 0.0
H529 H 0.35914 0.88703 0.08227 0.0
H530 H 0.55628 0.92501 0.07827 0.0
H531 H 0.35523 0.85784 0.16428 0.0
H532 H 0.4341 0.90948 0.08158 0.0
H533 H 0.48372 0.89143 0.16353 0.0
C534 C 0.53971 0.90331 0.1432 0.0
C535 C 0.56062 0.91201 0.11911 0.0
C536 C 0.41694 0.89859 0.0998 0.0
C537 C 0.48067 0.90389 0.12225 0.0
C538 C 0.37411 0.88595 0.10022 0.0
C539 C 0.35064 0.87016 0.1233 0.0
C540 C 0.43649 0.89538 0.12262 0.0
C541 C 0.37188 0.86943 0.14595 0.0
C542 C 0.4998 0.89927 0.14487 0.0
C543 C 0.5412 0.91809 0.09724 0.0
N544 N 0.41335 0.88144 0.14499 0.0
N545 N 0.5023 0.91361 0.09928 0.0
H546 H 0.69912 0.52179 0.5669 0.0
H547 H 0.50865 0.34617 0.65077 0.0
H548 H 0.67026 0.54177 0.64515 0.0
H549 H 0.52667 0.3324 0.56907 0.0
H550 H 0.56465 0.41925 0.64823 0.0
H551 H 0.63424 0.45385 0.56655 0.0
C552 C 0.67895 0.51192 0.58398 0.0
C553 C 0.69014 0.53731 0.60616 0.0
C554 C 0.55606 0.4005 0.63074 0.0
C555 C 0.61581 0.45942 0.60594 0.0
C556 C 0.52396 0.35873 0.63215 0.0
C557 C 0.51306 0.333 0.61012 0.0
C558 C 0.57799 0.41674 0.60718 0.0
C559 C 0.53394 0.35107 0.58653 0.0
C560 C 0.64184 0.47316 0.58374 0.0
C561 C 0.66283 0.52309 0.62769 0.0
N562 N 0.56579 0.39166 0.58576 0.0
N563 N 0.6271 0.48495 0.62712 0.0
H564 H 0.41353 0.91442 0.35317 0.0
H565 H 0.56376 0.83773 0.41588 0.0
H566 H 0.38512 0.84244 0.42457 0.0
H567 H 0.57496 0.88201 0.33648 0.0
H568 H 0.50644 0.8523 0.42299 0.0
H569 H 0.48018 0.91465 0.35014 0.0
C570 C 0.4215 0.89894 0.3683 0.0
C571 C 0.39371 0.87811 0.38904 0.0
C572 C 0.52185 0.85934 0.40412 0.0
C573 C 0.46987 0.87841 0.38582 0.0
C574 C 0.55485 0.8514 0.40013 0.0
C575 C 0.57398 0.85836 0.37549 0.0
C576 C 0.50814 0.87465 0.38339 0.0
C577 C 0.56087 0.87583 0.35573 0.0
C578 C 0.45949 0.89905 0.36657 0.0
C579 C 0.40557 0.85863 0.40816 0.0
N580 N 0.52862 0.88308 0.36005 0.0
N581 N 0.44267 0.85914 0.40606 0.0
H582 H 0.77299 0.55635 0.91403 0.0
H583 H 0.55723 0.40166 0.84134 0.0
H584 H 0.75062 0.56779 0.83252 0.0
H585 H 0.58568 0.38234 0.92008 0.0
H586 H 0.62462 0.46753 0.83921 0.0
H587 H 0.70077 0.49823 0.91829 0.0
C588 C 0.75275 0.54712 0.89712 0.0
C589 C 0.76809 0.5668 0.87282 0.0
C590 C 0.61603 0.44899 0.857 0.0
C591 C 0.68542 0.4999 0.87749 0.0
C592 C 0.5776 0.41142 0.8582 0.0
C593 C 0.56607 0.38647 0.88084 0.0
C594 C 0.64304 0.46171 0.87865 0.0
C595 C 0.59351 0.40057 0.90218 0.0
C596 C 0.71155 0.51373 0.89952 0.0
C597 C 0.74031 0.55337 0.8516 0.0
N598 N 0.63073 0.43714 0.90054 0.0
N599 N 0.70051 0.5206 0.85437 0.0
H600 H 0.21723 0.73098 0.4222 0.0
H601 H 0.16333 0.5212 0.34472 0.0
H602 H 0.20497 0.71936 0.33855 0.0
H603 H 0.20142 0.54159 0.4253 0.0
H604 H 0.16768 0.5898 0.34351 0.0
H605 H 0.19994 0.6575 0.42518 0.0
C606 C 0.21009 0.7128 0.40452 0.0
C607 C 0.21275 0.73146 0.38008 0.0
C608 C 0.17484 0.57917 0.36152 0.0
C609 C 0.19333 0.6475 0.3833 0.0
C610 C 0.17228 0.53998 0.36221 0.0
C611 C 0.18223 0.5258 0.38509 0.0
C612 C 0.18721 0.60431 0.38393 0.0
C613 C 0.19366 0.55143 0.4072 0.0
C614 C 0.20058 0.67094 0.4062 0.0
C615 C 0.20356 0.7064 0.3578 0.0
N616 N 0.19594 0.58943 0.40607 0.0
N617 N 0.19449 0.66592 0.35993 0.0
H618 H 0.6958 0.17042 0.83583 0.0
H619 H 0.51763 0.19473 0.91081 0.0
H620 H 0.68565 0.17214 0.91956 0.0
H621 H 0.53564 0.2069 0.82733 0.0
H622 H 0.57192 0.17502 0.91393 0.0
H623 H 0.63052 0.17288 0.83189 0.0
C624 C 0.67949 0.17066 0.85336 0.0
C625 C 0.69624 0.17131 0.87804 0.0
C626 C 0.56366 0.18155 0.89489 0.0
C627 C 0.62179 0.17438 0.87376 0.0
C628 C 0.53244 0.19258 0.89309 0.0
C629 C 0.52225 0.2029 0.86881 0.0
C630 C 0.58488 0.18077 0.87224 0.0
C631 C 0.54267 0.1996 0.84651 0.0
C632 C 0.64233 0.17224 0.85113 0.0
C633 C 0.67394 0.17183 0.90013 0.0
N634 N 0.57318 0.18921 0.84878 0.0
N635 N 0.6381 0.17361 0.89748 0.0
H636 H 0.33384 0.49186 0.32783 0.0
H637 H 0.50873 0.67439 0.41456 0.0
H638 H 0.32495 0.49514 0.4116 0.0
H639 H 0.52956 0.65614 0.33417 0.0
H640 H 0.4417 0.60857 0.41385 0.0
H641 H 0.40592 0.55046 0.32975 0.0
C642 C 0.34728 0.50448 0.3467 0.0
C643 C 0.32317 0.48856 0.36959 0.0
C644 C 0.46096 0.61872 0.39638 0.0
C645 C 0.40569 0.55647 0.37187 0.0
C646 C 0.49919 0.65643 0.39674 0.0
C647 C 0.52467 0.67085 0.37434 0.0
C648 C 0.44768 0.5953 0.37335 0.0
C649 C 0.51082 0.6462 0.35184 0.0
C650 C 0.38847 0.53807 0.34776 0.0
C651 C 0.34233 0.50624 0.39346 0.0
N652 N 0.47313 0.60981 0.35185 0.0
N653 N 0.38222 0.53956 0.39394 0.0
H654 H 0.88744 0.52037 0.82311 0.0
H655 H 0.90794 0.33719 0.89363 0.0
H656 H 0.94823 0.53311 0.89713 0.0
H657 H 0.84761 0.32284 0.81916 0.0
H658 H 0.93113 0.41188 0.89226 0.0
H659 H 0.88048 0.45095 0.81827 0.0
C660 C 0.89992 0.50882 0.8381 0.0
C661 C 0.91812 0.53223 0.86063 0.0
C662 C 0.9132 0.39251 0.87606 0.0
C663 C 0.91 0.45303 0.85544 0.0
C664 C 0.90002 0.34981 0.87682 0.0
C665 C 0.87535 0.32356 0.85665 0.0
C666 C 0.90143 0.40913 0.85505 0.0
C667 C 0.86626 0.3418 0.83529 0.0
C668 C 0.89584 0.46919 0.83541 0.0
C669 C 0.9337 0.51589 0.87953 0.0
N670 N 0.87887 0.38333 0.83519 0.0
N671 N 0.92895 0.4772 0.87662 0.0
H672 H 0.19297 0.41758 0.30563 0.0
H673 H 0.22064 0.3036 0.18224 0.0
H674 H 0.1976 0.30324 0.3126 0.0
H675 H 0.26661 0.43671 0.18383 0.0
H676 H 0.20336 0.29933 0.22873 0.0
H677 H 0.21058 0.4213 0.25926 0.0
C678 C 0.19745 0.39314 0.29741 0.0
C679 C 0.19395 0.36012 0.31305 0.0
C680 C 0.21738 0.32944 0.21884 0.0
C681 C 0.21381 0.36409 0.26002 0.0
C682 C 0.22717 0.33193 0.19231 0.0
C683 C 0.24512 0.37059 0.17901 0.0
C684 C 0.22486 0.3657 0.23208 0.0
C685 C 0.25299 0.40625 0.19319 0.0
C686 C 0.20774 0.39543 0.27099 0.0
C687 C 0.20024 0.3294 0.30131 0.0
N688 N 0.24249 0.40288 0.21887 0.0
N689 N 0.20967 0.33201 0.27547 0.0
H690 H 0.95181 0.21288 0.69989 0.0
H691 H 0.81006 0.16394 0.82431 0.0
H692 H 0.85267 0.24304 0.69845 0.0
H693 H 0.94326 0.21032 0.82862 0.0
H694 H 0.81927 0.18708 0.77821 0.0
H695 H 0.94315 0.20312 0.74714 0.0
C696 C 0.92819 0.21741 0.70951 0.0
C697 C 0.90295 0.22879 0.69519 0.0
C698 C 0.84643 0.19279 0.78955 0.0
C699 C 0.89254 0.2172 0.74927 0.0
C700 C 0.84124 0.17991 0.81582 0.0
C701 C 0.87586 0.18481 0.83018 0.0
C702 C 0.88628 0.2098 0.77777 0.0
C703 C 0.91556 0.20527 0.81816 0.0
C704 C 0.92342 0.2121 0.73648 0.0
C705 C 0.87292 0.23444 0.70877 0.0
N706 N 0.91955 0.21627 0.79261 0.0
N707 N 0.86813 0.22808 0.73507 0.0
H708 H 0.76973 0.86956 0.16743 0.0
H709 H 0.64002 0.8316 0.29799 0.0
H710 H 0.68307 0.91583 0.17305 0.0
H711 H 0.77051 0.86547 0.29657 0.0
H712 H 0.64367 0.84549 0.25075 0.0
H713 H 0.75668 0.84838 0.21309 0.0
C714 C 0.74744 0.8748 0.17816 0.0
C715 C 0.72799 0.89521 0.16643 0.0
C716 C 0.67134 0.84979 0.2609 0.0
C717 C 0.71278 0.87056 0.21891 0.0
C718 C 0.66934 0.84173 0.28777 0.0
C719 C 0.70509 0.84747 0.30127 0.0
C720 C 0.70899 0.86241 0.2474 0.0
C721 C 0.74227 0.86085 0.28703 0.0
C722 C 0.7402 0.86279 0.20427 0.0
C723 C 0.69887 0.90038 0.18132 0.0
N724 N 0.74313 0.86747 0.26086 0.0
N725 N 0.69226 0.88833 0.20697 0.0
H726 H 0.81654 0.64004 0.68958 0.0
H727 H 0.92187 0.77351 0.81482 0.0
H728 H 0.91615 0.76896 0.68437 0.0
H729 H 0.8964 0.64585 0.81226 0.0
H730 H 0.90624 0.77034 0.76851 0.0
H731 H 0.83211 0.63952 0.73623 0.0
C732 C 0.84154 0.66823 0.69821 0.0
C733 C 0.86523 0.70459 0.68301 0.0
C734 C 0.90397 0.74299 0.77812 0.0
C735 C 0.88243 0.70424 0.7362 0.0
C736 C 0.91269 0.74459 0.80463 0.0
C737 C 0.91027 0.70971 0.81763 0.0
C738 C 0.89172 0.70601 0.7644 0.0
C739 C 0.89851 0.67336 0.80308 0.0
C740 C 0.85049 0.66775 0.72473 0.0
C741 C 0.89724 0.74019 0.69527 0.0
N742 N 0.88919 0.67225 0.77722 0.0
N743 N 0.90459 0.73926 0.72117 0.0
H744 H 0.21198 0.80108 0.18373 0.0
H745 H 0.19743 0.91964 0.309 0.0
H746 H 0.20742 0.91551 0.1776 0.0
H747 H 0.25492 0.84238 0.31057 0.0
H748 H 0.19146 0.9123 0.26145 0.0
H749 H 0.21794 0.80924 0.23114 0.0
C750 C 0.21203 0.82782 0.19235 0.0
C751 C 0.20926 0.85771 0.17666 0.0
C752 C 0.20545 0.89709 0.27228 0.0
C753 C 0.21576 0.867 0.23091 0.0
C754 C 0.20873 0.90109 0.29941 0.0
C755 C 0.22673 0.8816 0.31388 0.0
C756 C 0.2195 0.87276 0.25957 0.0
C757 C 0.241 0.85813 0.30031 0.0
C758 C 0.21565 0.83255 0.21938 0.0
C759 C 0.20972 0.89186 0.18893 0.0
N760 N 0.23679 0.85412 0.27398 0.0
N761 N 0.21265 0.89545 0.21535 0.0
H762 H 0.32936 0.15201 0.81503 0.0
H763 H 0.44847 0.21988 0.67815 0.0
H764 H 0.44757 0.26634 0.80363 0.0
H765 H 0.31465 0.13536 0.6843 0.0
H766 H 0.45108 0.23105 0.72501 0.0
H767 H 0.32573 0.13976 0.76801 0.0
C768 C 0.35456 0.17453 0.80268 0.0
C769 C 0.38882 0.21027 0.81334 0.0
C770 C 0.42115 0.21011 0.71607 0.0
C771 C 0.385 0.19619 0.75954 0.0
C772 C 0.41957 0.20352 0.68924 0.0
C773 C 0.38117 0.17681 0.67698 0.0
C774 C 0.38423 0.18942 0.73101 0.0
C775 C 0.34494 0.15645 0.69272 0.0
C776 C 0.35237 0.16757 0.77583 0.0
C777 C 0.42044 0.23849 0.7963 0.0
N778 N 0.34739 0.16308 0.71891 0.0
N779 N 0.4179 0.2307 0.77028 0.0
H780 H 0.44296 0.32352 0.96076 0.0
H781 H 0.24689 0.30986 0.03346 0.0
H782 H 0.32271 0.2098 0.95974 0.0
H783 H 0.37513 0.39477 0.05573 0.0
H784 H 0.27176 0.27271 0.00556 0.0
H785 H 0.41714 0.35067 0.99487 0.0
C786 C 0.41123 0.30405 0.96805 0.0
C787 C 0.38498 0.26439 0.95756 0.0
C788 C 0.29426 0.2992 0.01683 0.0
C789 C 0.35468 0.29564 -0.00386 0.0
C790 C 0.28012 0.32041 0.03272 0.0
C791 C 0.30892 0.35545 0.04703 0.0
C792 C 0.33752 0.31381 0.01484 0.0
C793 C 0.35169 0.36803 0.04508 0.0
C794 C 0.39645 0.31952 0.9875 0.0
C795 C 0.34402 0.24042 0.96756 0.0
N796 N 0.36463 0.34751 0.02915 0.0
N797 N 0.32981 0.25671 0.98607 0.0
H798 H 0.12699 0.39825 0.4629 0.0
H799 H 0.95267 0.21162 0.54622 0.0
H800 H 0.1149 0.2759 0.45924 0.0
H801 H 1.01351 0.34035 0.57114 0.0
H802 H 1.00819 0.23166 0.5131 0.0
H803 H 0.0811 0.37553 0.50115 0.0
C804 C 0.11489 0.36665 0.47034 0.0
C805 C 0.12477 0.33895 0.45801 0.0
C806 C 1.00951 0.25524 0.52614 0.0
C807 C 0.0715 0.31236 0.50149 0.0
C808 C 0.97795 0.24384 0.54504 0.0
C809 C 0.97833 0.27434 0.56144 0.0
C810 C 1.0409 0.29749 0.52337 0.0
C811 C 1.0116 0.31575 0.55884 0.0
C812 C 0.0888 0.35371 0.49221 0.0
C813 C 0.10824 0.29829 0.46841 0.0
N814 N 1.04113 0.32613 0.54 0.0
N815 N 0.0818 0.28592 0.4894 0.0
H816 H 0.75174 1.01646 0.0707 0.0
H817 H 0.8089 0.07915 0.92405 0.0
H818 H 0.7645 0.93254 0.01851 0.0
H819 H 0.86646 0.17192 0.98395 0.0
H820 H 0.78667 1.02365 0.95746 0.0
H821 H 0.7887 0.07364 0.03881 0.0
C822 C 0.76281 1.01034 0.05259 0.0
C823 C 0.75547 0.97008 0.04712 0.0
C824 C 0.80477 0.05614 0.96323 0.0
C825 C 0.79621 1.03454 0.01038 0.0
C826 C 0.81746 0.08766 0.94423 0.0
C827 C 0.8405 0.12983 0.95135 0.0
C828 C 0.81361 0.0671 0.98959 0.0
C829 C 0.84953 0.13959 0.97776 0.0
C830 C 0.7839 0.04285 0.03449 0.0
C831 C 0.77001 0.96339 0.0234 0.0
N832 N 0.83567 0.10842 -0.00396 0.0
N833 N 0.78912 0.99518 0.00562 0.0
H834 H 0.87124 0.78625 0.53454 0.0
H835 H 0.69266 0.72209 0.42733 0.0
H836 H 0.75467 0.66845 0.53458 0.0
H837 H 0.77219 0.85132 0.44916 0.0
H838 H 0.72653 0.7013 0.46016 0.0
H839 H 0.84597 0.80968 0.49705 0.0
C840 C 0.84066 0.76515 0.52642 0.0
C841 C 0.8149 0.72535 0.53762 0.0
C842 C 0.73681 0.73425 0.45765 0.0
C843 C 0.78624 0.75171 0.49497 0.0
C844 C 0.71754 0.74626 0.43886 0.0
C845 C 0.72943 0.78861 0.43549 0.0
C846 C 0.76853 0.76468 0.47324 0.0
C847 C 0.76208 0.81835 0.45104 0.0
C848 C 0.82622 0.77864 0.50524 0.0
C849 C 0.7754 0.69941 0.5266 0.0
N850 N 0.78053 0.80582 0.46934 0.0
N851 N 0.76237 0.71297 0.50587 0.0
H852 H 1.02177 0.68912 0.9263 0.0
H853 H 0.14074 0.86819 0.03235 0.0
H854 H 0.96558 0.75722 0.95858 0.0
H855 H 0.15671 0.76074 0.0242 0.0
H856 H 0.0874 0.84028 -0.00238 0.0
H857 H 0.08235 0.72776 0.95454 0.0
C858 C 1.02232 0.71252 0.93918 0.0
C859 C 0.9886 0.7201 0.94002 0.0
C860 C 0.10309 0.82325 0.00328 0.0
C861 C 0.05814 0.76459 0.97242 0.0
C862 C 0.13372 0.83929 0.02283 0.0
C863 C 0.15306 0.81664 0.03105 0.0
C864 C 0.0926 0.78485 0.99165 0.0
C865 C 0.14243 0.77907 0.01844 0.0
C866 C 0.05697 0.73459 0.95527 0.0
C867 C 0.99116 0.75082 0.95713 0.0
N868 N 0.11299 0.76439 -0.00061 0.0
N869 N 1.02538 0.77202 0.97273 0.0
H870 H 0.20583 0.94454 0.45662 0.0
H871 H 0.38065 0.0725 0.56382 0.0
H872 H 0.31821 0.93762 0.46834 0.0
H873 H 0.31022 0.12451 0.52853 0.0
H874 H 0.34235 1.01009 0.53737 0.0
H875 H 0.22972 0.99882 0.49053 0.0
C876 C 0.23517 0.95403 0.4665 0.0
C877 C 0.26043 0.93704 0.45939 0.0
C878 C 0.33484 1.03489 0.53558 0.0
C879 C 0.28716 0.99785 0.49839 0.0
C880 C 0.35667 0.07057 0.5507 0.0
C881 C 0.34886 0.10394 0.5482 0.0
C882 C 0.30498 1.03236 0.51759 0.0
C883 C 0.31712 0.09941 0.53103 0.0
C884 C 0.24877 0.98498 0.48575 0.0
C885 C 0.29799 0.95018 0.47297 0.0
N886 N 0.29648 0.06434 0.51612 0.0
N887 N 0.31012 0.97966 0.49175 0.0
loop_
_geom_bond_atom_site_label_1
_geom_bond_atom_site_label_2
_geom_bond_distance
_geom_bond_site_symmetry_2
_ccdc_geom_bond_type
O0 Tb1 2.506 . S
O0 C14 1.265 . S
Tb1 O0 2.506 . S
Tb1 O6 2.312 . S
Tb1 O10 2.271 . S
Tb1 O12 2.338 . S
Tb1 O19 2.441 . S
C2 O10 1.252 . S
C2 O11 1.253 . S
O3 Tb4 2.271 . S
O3 C13 1.252 . S
Tb4 O3 2.271 . S
Tb4 O7 2.338 . S
Tb4 O11 2.312 . S
Tb4 O15 2.441 . S
Tb4 O16 2.506 . S
C5 O15 1.244 . S
C5 O16 1.265 . S
O6 Tb1 2.312 . S
O6 C13 1.253 . S
O7 Tb4 2.338 . S
O7 C8 1.258 . S
C8 O7 1.258 . S
C8 O9 1.251 . S
O9 C8 1.251 . S
O10 Tb1 2.271 . S
O10 C2 1.252 . S
O11 C2 1.253 . S
O11 Tb4 2.312 . S
O12 Tb1 2.338 . S
O12 C17 1.258 . S
C13 O3 1.252 . S
C13 O6 1.253 . S
C14 O0 1.265 . S
C14 O19 1.244 . S
O15 Tb4 2.441 . S
O15 C5 1.244 . S
O16 Tb4 2.506 . S
O16 C5 1.265 . S
C17 O12 1.258 . S
C17 O18 1.251 . S
O18 C17 1.251 . S
O19 Tb1 2.441 . S
O19 C14 1.244 . S
O20 Tb21 2.506 . S
O20 C34 1.265 . S
Tb21 O20 2.506 . S
Tb21 O26 2.312 . S
Tb21 O30 2.271 . S
Tb21 O32 2.338 . S
Tb21 O39 2.441 . S
C22 O30 1.252 . S
C22 O31 1.253 . S
O23 Tb24 2.271 . S
O23 C33 1.252 . S
Tb24 O23 2.271 . S
Tb24 O27 2.338 . S
Tb24 O31 2.312 . S
Tb24 O35 2.441 . S
Tb24 O36 2.506 . S
C25 O35 1.244 . S
C25 O36 1.265 . S
O26 Tb21 2.312 . S
O26 C33 1.253 . S
O27 Tb24 2.338 . S
O27 C28 1.258 . S
C28 O27 1.258 . S
C28 O29 1.251 . S
O29 C28 1.251 . S
O30 Tb21 2.271 . S
O30 C22 1.252 . S
O31 C22 1.253 . S
O31 Tb24 2.312 . S
O32 Tb21 2.338 . S
O32 C37 1.258 . S
C33 O23 1.252 . S
C33 O26 1.253 . S
C34 O20 1.265 . S
C34 O39 1.244 . S
O35 Tb24 2.441 . S
O35 C25 1.244 . S
O36 Tb24 2.506 . S
O36 C25 1.265 . S
C37 O32 1.258 . S
C37 O38 1.251 . S
O38 C37 1.251 . S
O39 Tb21 2.441 . S
O39 C34 1.244 . S
O40 Tb41 2.506 . S
O40 C54 1.265 . S
Tb41 O40 2.506 . S
Tb41 O46 2.312 . S
Tb41 O50 2.271 . S
Tb41 O52 2.338 . S
Tb41 O59 2.441 . S
C42 O50 1.252 . S
C42 O51 1.253 . S
O43 Tb44 2.271 . S
O43 C53 1.252 . S
Tb44 O43 2.271 . S
Tb44 O47 2.338 . S
Tb44 O51 2.312 . S
Tb44 O55 2.441 . S
Tb44 O56 2.506 . S
C45 O55 1.244 . S
C45 O56 1.265 . S
O46 Tb41 2.312 . S
O46 C53 1.253 . S
O47 Tb44 2.338 . S
O47 C48 1.258 . S
C48 O47 1.258 . S
C48 O49 1.251 . S
O49 C48 1.251 . S
O50 Tb41 2.271 . S
O50 C42 1.252 . S
O51 C42 1.253 . S
O51 Tb44 2.312 . S
O52 Tb41 2.338 . S
O52 C57 1.258 . S
C53 O43 1.252 . S
C53 O46 1.253 . S
C54 O40 1.265 . S
C54 O59 1.244 . S
O55 Tb44 2.441 . S
O55 C45 1.244 . S
O56 Tb44 2.506 . S
O56 C45 1.265 . S
C57 O52 1.258 . S
C57 O58 1.251 . S
O58 C57 1.251 . S
O59 Tb41 2.441 . S
O59 C54 1.244 . S
O60 Tb61 2.506 . S
O60 C74 1.265 . S
Tb61 O60 2.506 . S
Tb61 O66 2.312 . S
Tb61 O70 2.271 . S
Tb61 O72 2.338 . S
Tb61 O79 2.441 . S
C62 O70 1.252 . S
C62 O71 1.253 . S
O63 Tb64 2.271 . S
O63 C73 1.252 . S
Tb64 O63 2.271 . S
Tb64 O67 2.338 . S
Tb64 O71 2.312 . S
Tb64 O75 2.441 . S
Tb64 O76 2.506 . S
C65 O75 1.244 . S
C65 O76 1.265 . S
O66 Tb61 2.312 . S
O66 C73 1.253 . S
O67 Tb64 2.338 . S
O67 C68 1.258 . S
C68 O67 1.258 . S
C68 O69 1.251 . S
O69 C68 1.251 . S
O70 Tb61 2.271 . S
O70 C62 1.252 . S
O71 C62 1.253 . S
O71 Tb64 2.312 . S
O72 Tb61 2.338 . S
O72 C77 1.258 . S
C73 O63 1.252 . S
C73 O66 1.253 . S
C74 O60 1.265 . S
C74 O79 1.244 . S
O75 Tb64 2.441 . S
O75 C65 1.244 . S
O76 Tb64 2.506 . S
O76 C65 1.265 . S
C77 O72 1.258 . S
C77 O78 1.251 . S
O78 C77 1.251 . S
O79 Tb61 2.441 . S
O79 C74 1.244 . S
O80 Tb81 2.506 . S
O80 C94 1.265 . S
Tb81 O80 2.506 . S
Tb81 O86 2.312 . S
Tb81 O90 2.271 . S
Tb81 O92 2.338 . S
Tb81 O99 2.441 . S
C82 O90 1.252 . S
C82 O91 1.253 . S
O83 Tb84 2.271 . S
O83 C93 1.252 . S
Tb84 O83 2.271 . S
Tb84 O87 2.338 . S
Tb84 O91 2.312 . S
Tb84 O95 2.441 . S
Tb84 O96 2.506 . S
C85 O95 1.244 . S
C85 O96 1.265 . S
O86 Tb81 2.312 . S
O86 C93 1.253 . S
O87 Tb84 2.338 . S
O87 C88 1.258 . S
C88 O87 1.258 . S
C88 O89 1.251 . S
O89 C88 1.251 . S
O90 Tb81 2.271 . S
O90 C82 1.252 . S
O91 C82 1.253 . S
O91 Tb84 2.312 . S
O92 Tb81 2.338 . S
O92 C97 1.258 . S
C93 O83 1.252 . S
C93 O86 1.253 . S
C94 O80 1.265 . S
C94 O99 1.244 . S
O95 Tb84 2.441 . S
O95 C85 1.244 . S
O96 Tb84 2.506 . S
O96 C85 1.265 . S
C97 O92 1.258 . S
C97 O98 1.251 . S
O98 C97 1.251 . S
O99 Tb81 2.441 . S
O99 C94 1.244 . S
O100 Tb101 2.506 . S
O100 C114 1.265 . S
Tb101 O100 2.506 . S
Tb101 O106 2.312 . S
Tb101 O110 2.271 . S
Tb101 O112 2.338 . S
Tb101 O119 2.441 . S
C102 O110 1.252 . S
C102 O111 1.253 . S
O103 Tb104 2.271 . S
O103 C113 1.252 . S
Tb104 O103 2.271 . S
Tb104 O107 2.338 . S
Tb104 O111 2.312 . S
Tb104 O115 2.441 . S
Tb104 O116 2.506 . S
C105 O115 1.244 . S
C105 O116 1.265 . S
O106 Tb101 2.312 . S
O106 C113 1.253 . S
O107 Tb104 2.338 . S
O107 C108 1.258 . S
C108 O107 1.258 . S
C108 O109 1.251 . S
O109 C108 1.251 . S
O110 Tb101 2.271 . S
O110 C102 1.252 . S
O111 C102 1.253 . S
O111 Tb104 2.312 . S
O112 Tb101 2.338 . S
O112 C117 1.258 . S
C113 O103 1.252 . S
C113 O106 1.253 . S
C114 O100 1.265 . S
C114 O119 1.244 . S
O115 Tb104 2.441 . S
O115 C105 1.244 . S
O116 Tb104 2.506 . S
O116 C105 1.265 . S
C117 O112 1.258 . S
C117 O118 1.251 . S
O118 C117 1.251 . S
O119 Tb101 2.441 . S
O119 C114 1.244 . S
O120 Tb121 2.506 . S
O120 C134 1.265 . S
Tb121 O120 2.506 . S
Tb121 O126 2.312 . S
Tb121 O130 2.271 . S
Tb121 O132 2.338 . S
Tb121 O139 2.441 . S
C122 O130 1.252 . S
C122 O131 1.253 . S
O123 Tb124 2.271 . S
O123 C133 1.252 . S
Tb124 O123 2.271 . S
Tb124 O127 2.338 . S
Tb124 O131 2.312 . S
Tb124 O135 2.441 . S
Tb124 O136 2.506 . S
C125 O135 1.244 . S
C125 O136 1.265 . S
O126 Tb121 2.312 . S
O126 C133 1.253 . S
O127 Tb124 2.338 . S
O127 C128 1.258 . S
C128 O127 1.258 . S
C128 O129 1.251 . S
O129 C128 1.251 . S
O130 Tb121 2.271 . S
O130 C122 1.252 . S
O131 C122 1.253 . S
O131 Tb124 2.312 . S
O132 Tb121 2.338 . S
O132 C137 1.258 . S
C133 O123 1.252 . S
C133 O126 1.253 . S
C134 O120 1.265 . S
C134 O139 1.244 . S
O135 Tb124 2.441 . S
O135 C125 1.244 . S
O136 Tb124 2.506 . S
O136 C125 1.265 . S
C137 O132 1.258 . S
C137 O138 1.251 . S
O138 C137 1.251 . S
O139 Tb121 2.441 . S
O139 C134 1.244 . S
O140 Tb141 2.506 . S
O140 C154 1.265 . S
Tb141 O140 2.506 . S
Tb141 O146 2.312 . S
Tb141 O150 2.271 . S
Tb141 O152 2.338 . S
Tb141 O159 2.441 . S
C142 O150 1.252 . S
C142 O151 1.253 . S
O143 Tb144 2.271 . S
O143 C153 1.252 . S
Tb144 O143 2.271 . S
Tb144 O147 2.338 . S
Tb144 O151 2.312 . S
Tb144 O155 2.441 . S
Tb144 O156 2.506 . S
C145 O155 1.244 . S
C145 O156 1.265 . S
O146 Tb141 2.312 . S
O146 C153 1.253 . S
O147 Tb144 2.338 . S
O147 C148 1.258 . S
C148 O147 1.258 . S
C148 O149 1.251 . S
O149 C148 1.251 . S
O150 Tb141 2.271 . S
O150 C142 1.252 . S
O151 C142 1.253 . S
O151 Tb144 2.312 . S
O152 Tb141 2.338 . S
O152 C157 1.258 . S
C153 O143 1.252 . S
C153 O146 1.253 . S
C154 O140 1.265 . S
C154 O159 1.244 . S
O155 Tb144 2.441 . S
O155 C145 1.244 . S
O156 Tb144 2.506 . S
O156 C145 1.265 . S
C157 O152 1.258 . S
C157 O158 1.251 . S
O158 C157 1.251 . S
O159 Tb141 2.441 . S
O159 C154 1.244 . S
O160 Tb161 2.506 . S
O160 C174 1.265 . S
Tb161 O160 2.506 . S
Tb161 O166 2.312 . S
Tb161 O170 2.271 . S
Tb161 O172 2.338 . S
Tb161 O179 2.441 . S
C162 O170 1.252 . S
C162 O171 1.253 . S
O163 Tb164 2.271 . S
O163 C173 1.252 . S
Tb164 O163 2.271 . S
Tb164 O167 2.338 . S
Tb164 O171 2.312 . S
Tb164 O175 2.441 . S
Tb164 O176 2.506 . S
C165 O175 1.244 . S
C165 O176 1.265 . S
O166 Tb161 2.312 . S
O166 C173 1.253 . S
O167 Tb164 2.338 . S
O167 C168 1.258 . S
C168 O167 1.258 . S
C168 O169 1.251 . S
O169 C168 1.251 . S
O170 Tb161 2.271 . S
O170 C162 1.252 . S
O171 C162 1.253 . S
O171 Tb164 2.312 . S
O172 Tb161 2.338 . S
O172 C177 1.258 . S
C173 O163 1.252 . S
C173 O166 1.253 . S
C174 O160 1.265 . S
C174 O179 1.244 . S
O175 Tb164 2.441 . S
O175 C165 1.244 . S
O176 Tb164 2.506 . S
O176 C165 1.265 . S
C177 O172 1.258 . S
C177 O178 1.251 . S
O178 C177 1.251 . S
O179 Tb161 2.441 . S
O179 C174 1.244 . S
O180 Tb181 2.506 . S
O180 C194 1.265 . S
Tb181 O180 2.506 . S
Tb181 O186 2.312 . S
Tb181 O190 2.271 . S
Tb181 O192 2.338 . S
Tb181 O199 2.441 . S
C182 O190 1.252 . S
C182 O191 1.253 . S
O183 Tb184 2.271 . S
O183 C193 1.252 . S
Tb184 O183 2.271 . S
Tb184 O187 2.338 . S
Tb184 O191 2.312 . S
Tb184 O195 2.441 . S
Tb184 O196 2.506 . S
C185 O195 1.244 . S
C185 O196 1.265 . S
O186 Tb181 2.312 . S
O186 C193 1.253 . S
O187 Tb184 2.338 . S
O187 C188 1.258 . S
C188 O187 1.258 . S
C188 O189 1.251 . S
O189 C188 1.251 . S
O190 Tb181 2.271 . S
O190 C182 1.252 . S
O191 C182 1.253 . S
O191 Tb184 2.312 . S
O192 Tb181 2.338 . S
O192 C197 1.258 . S
C193 O183 1.252 . S
C193 O186 1.253 . S
C194 O180 1.265 . S
C194 O199 1.244 . S
O195 Tb184 2.441 . S
O195 C185 1.244 . S
O196 Tb184 2.506 . S
O196 C185 1.265 . S
C197 O192 1.258 . S
C197 O198 1.251 . S
O198 C197 1.251 . S
O199 Tb181 2.441 . S
O199 C194 1.244 . S
O200 Tb201 2.506 . S
O200 C214 1.265 . S
Tb201 O200 2.506 . S
Tb201 O206 2.312 . S
Tb201 O210 2.271 . S
Tb201 O212 2.338 . S
Tb201 O219 2.441 . S
C202 O210 1.252 . S
C202 O211 1.253 . S
O203 Tb204 2.271 . S
O203 C213 1.252 . S
Tb204 O203 2.271 . S
Tb204 O207 2.338 . S
Tb204 O211 2.312 . S
Tb204 O215 2.441 . S
Tb204 O216 2.506 . S
C205 O215 1.244 . S
C205 O216 1.265 . S
O206 Tb201 2.312 . S
O206 C213 1.253 . S
O207 Tb204 2.338 . S
O207 C208 1.258 . S
C208 O207 1.258 . S
C208 O209 1.251 . S
O209 C208 1.251 . S
O210 Tb201 2.271 . S
O210 C202 1.252 . S
O211 C202 1.253 . S
O211 Tb204 2.312 . S
O212 Tb201 2.338 . S
O212 C217 1.258 . S
C213 O203 1.252 . S
C213 O206 1.253 . S
C214 O200 1.265 . S
C214 O219 1.244 . S
O215 Tb204 2.441 . S
O215 C205 1.244 . S
O216 Tb204 2.506 . S
O216 C205 1.265 . S
C217 O212 1.258 . S
C217 O218 1.251 . S
O218 C217 1.251 . S
O219 Tb201 2.441 . S
O219 C214 1.244 . S
O220 Tb221 2.506 . S
O220 C234 1.265 . S
Tb221 O220 2.506 . S
Tb221 O226 2.312 . S
Tb221 O230 2.271 . S
Tb221 O232 2.338 . S
Tb221 O239 2.441 . S
C222 O230 1.252 . S
C222 O231 1.253 . S
O223 Tb224 2.271 . S
O223 C233 1.252 . S
Tb224 O223 2.271 . S
Tb224 O227 2.338 . S
Tb224 O231 2.312 . S
Tb224 O235 2.441 . S
Tb224 O236 2.506 . S
C225 O235 1.244 . S
C225 O236 1.265 . S
O226 Tb221 2.312 . S
O226 C233 1.253 . S
O227 Tb224 2.338 . S
O227 C228 1.258 . S
C228 O227 1.258 . S
C228 O229 1.251 . S
O229 C228 1.251 . S
O230 Tb221 2.271 . S
O230 C222 1.252 . S
O231 C222 1.253 . S
O231 Tb224 2.312 . S
O232 Tb221 2.338 . S
O232 C237 1.258 . S
C233 O223 1.252 . S
C233 O226 1.253 . S
C234 O220 1.265 . S
C234 O239 1.244 . S
O235 Tb224 2.441 . S
O235 C225 1.244 . S
O236 Tb224 2.506 . S
O236 C225 1.265 . S
C237 O232 1.258 . S
C237 O238 1.251 . S
O238 C237 1.251 . S
O239 Tb221 2.441 . S
O239 C234 1.244 . S
H240 C246 0.930 . S
H241 C250 0.930 . S
H242 C255 0.929 . S
H243 C253 0.929 . S
H244 C248 0.929 . S
H245 C254 0.929 . S
C246 H240 0.930 . S
C246 C247 1.367 . S
C246 C254 1.378 1_565 S
C247 C246 1.367 . S
C247 C255 1.433 . S
C248 H244 0.929 . S
C248 C250 1.378 . S
C248 C252 1.350 . S
C249 C252 1.463 . S
C249 C254 1.350 . S
C249 N257 1.427 . S
C250 H241 0.930 . S
C250 C248 1.378 . S
C250 C251 1.367 . S
C251 C250 1.367 . S
C251 C253 1.433 . S
C252 C248 1.350 . S
C252 C249 1.463 . S
C252 N256 1.427 . S
C253 H243 0.929 . S
C253 C251 1.433 . S
C253 N256 1.384 . S
C254 H245 0.929 . S
C254 C246 1.378 1_545 S
C254 C249 1.350 . S
C255 H242 0.929 . S
C255 C247 1.433 . S
C255 N257 1.385 1_565 S
N256 C252 1.427 . S
N256 C253 1.384 . S
N257 C249 1.427 . S
N257 C255 1.385 1_545 S
H258 C264 0.930 . S
H259 C268 0.930 1_655 S
H260 C273 0.929 . S
H261 C271 0.929 . S
H262 C266 0.929 . S
H263 C272 0.929 . S
C264 H258 0.930 . S
C264 C265 1.367 . S
C264 C272 1.378 . S
C265 C264 1.367 . S
C265 C273 1.433 . S
C266 H262 0.929 . S
C266 C268 1.378 . S
C266 C270 1.350 . S
C267 C270 1.463 . S
C267 C272 1.350 . S
C267 N275 1.427 . S
C268 H259 0.930 1_455 S
C268 C266 1.378 . S
C268 C269 1.367 . S
C269 C268 1.367 . S
C269 C271 1.433 . S
C270 C266 1.350 . S
C270 C267 1.463 . S
C270 N274 1.427 . S
C271 H261 0.929 . S
C271 C269 1.433 . S
C271 N274 1.384 . S
C272 H263 0.929 . S
C272 C264 1.378 . S
C272 C267 1.350 . S
C273 H260 0.929 . S
C273 C265 1.433 . S
C273 N275 1.384 . S
N274 C270 1.427 . S
N274 C271 1.384 . S
N275 C267 1.427 . S
N275 C273 1.384 . S
H276 C282 0.932 1_565 S
H277 C286 0.930 . S
H278 C291 0.929 . S
H279 C289 0.929 . S
H280 C284 0.929 . S
H281 C290 0.929 . S
C282 H276 0.932 1_545 S
C282 C283 1.367 . S
C282 C290 1.378 . S
C283 C282 1.367 . S
C283 C291 1.433 . S
C284 H280 0.929 . S
C284 C286 1.378 1_655 S
C284 C288 1.350 . S
C285 C288 1.463 . S
C285 C290 1.350 . S
C285 N293 1.427 . S
C286 H277 0.930 . S
C286 C284 1.378 1_455 S
C286 C287 1.367 . S
C287 C286 1.367 . S
C287 C289 1.433 . S
C288 C284 1.350 . S
C288 C285 1.463 . S
C288 N292 1.427 1_655 S
C289 H279 0.929 . S
C289 C287 1.433 . S
C289 N292 1.384 . S
C290 H281 0.929 . S
C290 C282 1.378 . S
C290 C285 1.350 . S
C291 H278 0.929 . S
C291 C283 1.433 . S
C291 N293 1.384 . S
N292 C288 1.427 1_455 S
N292 C289 1.384 . S
N293 C285 1.427 . S
N293 C291 1.384 . S
H294 C300 0.930 . S
H295 C304 0.930 . S
H296 C309 0.929 . S
H297 C307 0.929 . S
H298 C302 0.929 . S
H299 C308 0.929 . S
C300 H294 0.930 . S
C300 C301 1.367 . S
C300 C308 1.378 . S
C301 C300 1.367 . S
C301 C309 1.433 . S
C302 H298 0.929 . S
C302 C304 1.378 . S
C302 C306 1.350 1_545 S
C303 C306 1.463 . S
C303 C308 1.350 . S
C303 N311 1.427 . S
C304 H295 0.930 . S
C304 C302 1.378 . S
C304 C305 1.367 . S
C305 C304 1.367 . S
C305 C307 1.433 . S
C306 C302 1.350 1_565 S
C306 C303 1.463 . S
C306 N310 1.427 . S
C307 H297 0.929 . S
C307 C305 1.433 . S
C307 N310 1.384 1_545 S
C308 H299 0.929 . S
C308 C300 1.378 . S
C308 C303 1.350 . S
C309 H296 0.929 . S
C309 C301 1.433 . S
C309 N311 1.384 . S
N310 C306 1.427 . S
N310 C307 1.384 1_565 S
N311 C303 1.427 . S
N311 C309 1.384 . S
H312 C318 0.930 1_455 S
H313 C322 0.930 . S
H314 C327 0.929 . S
H315 C325 0.929 . S
H316 C320 0.929 . S
H317 C326 0.929 . S
C318 H312 0.930 1_655 S
C318 C319 1.367 . S
C318 C326 1.378 . S
C319 C318 1.367 . S
C319 C327 1.433 . S
C320 H316 0.929 . S
C320 C322 1.378 . S
C320 C324 1.350 . S
C321 C324 1.463 . S
C321 C326 1.350 . S
C321 N329 1.427 . S
C322 H313 0.930 . S
C322 C320 1.378 . S
C322 C323 1.367 . S
C323 C322 1.367 . S
C323 C325 1.433 . S
C324 C320 1.350 . S
C324 C321 1.463 . S
C324 N328 1.427 . S
C325 H315 0.929 . S
C325 C323 1.433 . S
C325 N328 1.384 . S
C326 H317 0.929 . S
C326 C318 1.378 . S
C326 C321 1.350 . S
C327 H314 0.929 . S
C327 C319 1.433 . S
C327 N329 1.384 . S
N328 C324 1.427 . S
N328 C325 1.384 . S
N329 C321 1.427 . S
N329 C327 1.384 . S
H330 C336 0.930 . S
H331 C340 0.930 . S
H332 C345 0.929 . S
H333 C343 0.929 1_545 S
H334 C338 0.929 . S
H335 C344 0.929 . S
C336 H330 0.930 . S
C336 C337 1.367 . S
C336 C344 1.378 1_655 S
C337 C336 1.367 . S
C337 C345 1.433 . S
C338 H334 0.929 . S
C338 C340 1.378 . S
C338 C342 1.350 . S
C339 C342 1.463 . S
C339 C344 1.350 . S
C339 N347 1.427 . S
C340 H331 0.930 . S
C340 C338 1.378 . S
C340 C341 1.367 . S
C341 C340 1.367 . S
C341 C343 1.433 . S
C342 C338 1.350 . S
C342 C339 1.463 . S
C342 N346 1.427 . S
C343 H333 0.929 1_565 S
C343 C341 1.433 . S
C343 N346 1.384 . S
C344 H335 0.929 . S
C344 C336 1.378 1_455 S
C344 C339 1.350 . S
C345 H332 0.929 . S
C345 C337 1.433 . S
C345 N347 1.384 1_655 S
N346 C342 1.427 . S
N346 C343 1.384 . S
N347 C339 1.427 . S
N347 C345 1.384 1_455 S
H348 C354 0.930 . S
H349 C358 0.930 . S
H350 C363 0.929 . S
H351 C361 0.929 . S
H352 C356 0.929 . S
H353 C362 0.929 . S
C354 H348 0.930 . S
C354 C355 1.367 . S
C354 C362 1.378 . S
C355 C354 1.367 . S
C355 C363 1.433 . S
C356 H352 0.929 . S
C356 C358 1.378 . S
C356 C360 1.350 . S
C357 C360 1.463 . S
C357 C362 1.350 1_655 S
C357 N365 1.427 . S
C358 H349 0.930 . S
C358 C356 1.378 . S
C358 C359 1.367 . S
C359 C358 1.367 . S
C359 C361 1.433 . S
C360 C356 1.350 . S
C360 C357 1.463 . S
C360 N364 1.427 . S
C361 H351 0.929 . S
C361 C359 1.433 . S
C361 N364 1.384 . S
C362 H353 0.929 . S
C362 C354 1.378 . S
C362 C357 1.350 1_455 S
C363 H350 0.929 . S
C363 C355 1.433 . S
C363 N365 1.384 1_455 S
N364 C360 1.427 . S
N364 C361 1.384 . S
N365 C357 1.427 . S
N365 C363 1.384 1_655 S
H366 C372 0.930 . S
H367 C376 0.930 . S
H368 C381 0.929 1_655 S
H369 C379 0.929 . S
H370 C374 0.929 . S
H371 C380 0.929 . S
C372 H366 0.930 . S
C372 C373 1.367 . S
C372 C380 1.378 . S
C373 C372 1.367 . S
C373 C381 1.433 . S
C374 H370 0.929 . S
C374 C376 1.378 . S
C374 C378 1.350 1_545 S
C375 C378 1.463 . S
C375 C380 1.350 . S
C375 N383 1.427 . S
C376 H367 0.930 . S
C376 C374 1.378 . S
C376 C377 1.367 . S
C377 C376 1.367 . S
C377 C379 1.433 . S
C378 C374 1.350 1_565 S
C378 C375 1.463 . S
C378 N382 1.427 . S
C379 H369 0.929 . S
C379 C377 1.433 . S
C379 N382 1.384 1_545 S
C380 H371 0.929 . S
C380 C372 1.378 . S
C380 C375 1.350 . S
C381 H368 0.929 1_455 S
C381 C373 1.433 . S
C381 N383 1.384 . S
N382 C378 1.427 . S
N382 C379 1.384 1_565 S
N383 C375 1.427 . S
N383 C381 1.384 . S
H384 C390 0.930 . S
H385 C394 0.930 1_565 S
H386 C399 0.929 . S
H387 C397 0.929 . S
H388 C392 0.929 . S
H389 C398 0.929 . S
C390 H384 0.930 . S
C390 C391 1.367 . S
C390 C398 1.378 . S
C391 C390 1.367 . S
C391 C399 1.433 . S
C392 H388 0.929 . S
C392 C394 1.378 . S
C392 C396 1.350 . S
C393 C396 1.463 . S
C393 C398 1.350 . S
C393 N401 1.427 . S
C394 H385 0.930 1_545 S
C394 C392 1.378 . S
C394 C395 1.367 . S
C395 C394 1.367 . S
C395 C397 1.433 . S
C396 C392 1.350 . S
C396 C393 1.463 . S
C396 N400 1.427 . S
C397 H387 0.929 . S
C397 C395 1.433 . S
C397 N400 1.384 . S
C398 H389 0.929 . S
C398 C390 1.378 . S
C398 C393 1.350 . S
C399 H386 0.929 . S
C399 C391 1.433 . S
C399 N401 1.384 . S
N400 C396 1.427 . S
N400 C397 1.384 . S
N401 C393 1.427 . S
N401 C399 1.384 . S
H402 C408 0.930 . S
H403 C412 0.930 . S
H404 C417 0.929 . S
H405 C415 0.929 . S
H406 C410 0.929 . S
H407 C416 0.929 . S
C408 H402 0.930 . S
C408 C409 1.367 . S
C408 C416 1.378 . S
C409 C408 1.367 . S
C409 C417 1.433 . S
C410 H406 0.929 . S
C410 C412 1.378 1_455 S
C410 C414 1.350 . S
C411 C414 1.463 . S
C411 C416 1.350 . S
C411 N419 1.427 . S
C412 H403 0.930 . S
C412 C410 1.378 1_655 S
C412 C413 1.367 . S
C413 C412 1.367 . S
C413 C415 1.433 . S
C414 C410 1.350 . S
C414 C411 1.463 . S
C414 N418 1.427 . S
C415 H405 0.929 . S
C415 C413 1.433 . S
C415 N418 1.384 1_655 S
C416 H407 0.929 . S
C416 C408 1.378 . S
C416 C411 1.350 . S
C417 H404 0.929 . S
C417 C409 1.433 . S
C417 N419 1.384 . S
N418 C414 1.427 . S
N418 C415 1.384 1_455 S
N419 C411 1.427 . S
N419 C417 1.384 . S
H420 C426 0.930 1_455 S
H421 C430 0.930 . S
H422 C435 0.929 . S
H423 C433 0.929 . S
H424 C428 0.929 . S
H425 C434 0.929 . S
C426 H420 0.930 1_655 S
C426 C427 1.367 . S
C426 C434 1.378 . S
C427 C426 1.367 . S
C427 C435 1.433 . S
C428 H424 0.929 . S
C428 C430 1.378 1_545 S
C428 C432 1.350 . S
C429 C432 1.463 . S
C429 C434 1.350 . S
C429 N437 1.427 . S
C430 H421 0.930 . S
C430 C428 1.378 1_565 S
C430 C431 1.367 . S
C431 C430 1.367 . S
C431 C433 1.433 . S
C432 C428 1.350 . S
C432 C429 1.463 . S
C432 N436 1.427 1_545 S
C433 H423 0.929 . S
C433 C431 1.433 . S
C433 N436 1.384 . S
C434 H425 0.929 . S
C434 C426 1.378 . S
C434 C429 1.350 . S
C435 H422 0.929 . S
C435 C427 1.433 . S
C435 N437 1.384 . S
N436 C432 1.427 1_565 S
N436 C433 1.384 . S
N437 C429 1.427 . S
N437 C435 1.384 . S
H438 C444 0.930 . S
H439 C448 0.930 . S
H440 C453 0.929 . S
H441 C451 0.929 1_545 S
H442 C446 0.929 . S
H443 C452 0.929 . S
C444 H438 0.930 . S
C444 C445 1.367 . S
C444 C452 1.378 . S
C445 C444 1.367 . S
C445 C453 1.433 . S
C446 H442 0.929 . S
C446 C448 1.378 . S
C446 C450 1.350 . S
C447 C450 1.463 . S
C447 C452 1.350 . S
C447 N455 1.427 . S
C448 H439 0.930 . S
C448 C446 1.378 . S
C448 C449 1.367 . S
C449 C448 1.367 . S
C449 C451 1.433 . S
C450 C446 1.350 . S
C450 C447 1.463 . S
C450 N454 1.427 . S
C451 H441 0.929 1_565 S
C451 C449 1.433 . S
C451 N454 1.384 . S
C452 H443 0.929 . S
C452 C444 1.378 . S
C452 C447 1.350 . S
C453 H440 0.929 . S
C453 C445 1.433 . S
C453 N455 1.384 . S
N454 C450 1.427 . S
N454 C451 1.384 . S
N455 C447 1.427 . S
N455 C453 1.384 . S
H456 C462 0.930 . S
H457 C466 0.930 . S
H458 C471 0.929 . S
H459 C469 0.929 . S
H460 C464 0.929 . S
H461 C470 0.929 . S
C462 H456 0.930 . S
C462 C463 1.367 . S
C462 C470 1.378 . S
C463 C462 1.367 . S
C463 C471 1.433 . S
C464 H460 0.929 . S
C464 C466 1.378 . S
C464 C468 1.350 . S
C465 C468 1.463 . S
C465 C470 1.350 . S
C465 N473 1.427 . S
C466 H457 0.930 . S
C466 C464 1.378 . S
C466 C467 1.367 . S
C467 C466 1.367 . S
C467 C469 1.433 . S
C468 C464 1.350 . S
C468 C465 1.463 . S
C468 N472 1.427 . S
C469 H459 0.929 . S
C469 C467 1.433 . S
C469 N472 1.384 . S
C470 H461 0.929 . S
C470 C462 1.378 . S
C470 C465 1.350 . S
C471 H458 0.929 . S
C471 C463 1.433 . S
C471 N473 1.384 . S
N472 C468 1.427 . S
N472 C469 1.384 . S
N473 C465 1.427 . S
N473 C471 1.384 . S
H474 C480 0.930 . S
H475 C484 0.930 . S
H476 C489 0.929 . S
H477 C487 0.929 . S
H478 C482 0.929 . S
H479 C488 0.929 . S
C480 H474 0.930 . S
C480 C481 1.367 . S
C480 C488 1.378 . S
C481 C480 1.367 . S
C481 C489 1.433 . S
C482 H478 0.929 . S
C482 C484 1.378 . S
C482 C486 1.350 . S
C483 C486 1.463 . S
C483 C488 1.350 . S
C483 N491 1.427 . S
C484 H475 0.930 . S
C484 C482 1.378 . S
C484 C485 1.367 . S
C485 C484 1.367 . S
C485 C487 1.433 . S
C486 C482 1.350 . S
C486 C483 1.463 . S
C486 N490 1.427 . S
C487 H477 0.929 . S
C487 C485 1.433 . S
C487 N490 1.384 . S
C488 H479 0.929 . S
C488 C480 1.378 . S
C488 C483 1.350 . S
C489 H476 0.929 . S
C489 C481 1.433 . S
C489 N491 1.384 . S
N490 C486 1.427 . S
N490 C487 1.384 . S
N491 C483 1.427 . S
N491 C489 1.384 . S
H492 C498 0.930 . S
H493 C502 0.930 . S
H494 C507 0.929 . S
H495 C505 0.929 . S
H496 C500 0.929 . S
H497 C506 0.929 . S
C498 H492 0.930 . S
C498 C499 1.367 . S
C498 C506 1.378 . S
C499 C498 1.367 . S
C499 C507 1.433 . S
C500 H496 0.929 . S
C500 C502 1.378 . S
C500 C504 1.350 . S
C501 C504 1.463 . S
C501 C506 1.350 . S
C501 N509 1.427 . S
C502 H493 0.930 . S
C502 C500 1.378 . S
C502 C503 1.367 . S
C503 C502 1.367 . S
C503 C505 1.433 . S
C504 C500 1.350 . S
C504 C501 1.463 . S
C504 N508 1.427 . S
C505 H495 0.929 . S
C505 C503 1.433 . S
C505 N508 1.384 . S
C506 H497 0.929 . S
C506 C498 1.378 . S
C506 C501 1.350 . S
C507 H494 0.929 . S
C507 C499 1.433 . S
C507 N509 1.384 . S
N508 C504 1.427 . S
N508 C505 1.384 . S
N509 C501 1.427 . S
N509 C507 1.384 . S
H510 C516 0.930 . S
H511 C520 0.930 . S
H512 C525 0.929 . S
H513 C523 0.929 . S
H514 C518 0.929 . S
H515 C524 0.929 . S
C516 H510 0.930 . S
C516 C517 1.367 . S
C516 C524 1.378 . S
C517 C516 1.367 . S
C517 C525 1.433 . S
C518 H514 0.929 . S
C518 C520 1.378 . S
C518 C522 1.350 . S
C519 C522 1.463 . S
C519 C524 1.350 . S
C519 N527 1.427 . S
C520 H511 0.930 . S
C520 C518 1.378 . S
C520 C521 1.367 . S
C521 C520 1.367 . S
C521 C523 1.433 . S
C522 C518 1.350 . S
C522 C519 1.463 . S
C522 N526 1.427 . S
C523 H513 0.929 . S
C523 C521 1.433 . S
C523 N526 1.384 . S
C524 H515 0.929 . S
C524 C516 1.378 . S
C524 C519 1.350 . S
C525 H512 0.929 . S
C525 C517 1.433 . S
C525 N527 1.384 . S
N526 C522 1.427 . S
N526 C523 1.384 . S
N527 C519 1.427 . S
N527 C525 1.384 . S
H528 C534 0.930 . S
H529 C538 0.930 . S
H530 C543 0.929 . S
H531 C541 0.929 . S
H532 C536 0.929 . S
H533 C542 0.929 . S
C534 H528 0.930 . S
C534 C535 1.367 . S
C534 C542 1.378 . S
C535 C534 1.367 . S
C535 C543 1.433 . S
C536 H532 0.929 . S
C536 C538 1.378 . S
C536 C540 1.350 . S
C537 C540 1.463 . S
C537 C542 1.350 . S
C537 N545 1.427 . S
C538 H529 0.930 . S
C538 C536 1.378 . S
C538 C539 1.367 . S
C539 C538 1.367 . S
C539 C541 1.433 . S
C540 C536 1.350 . S
C540 C537 1.463 . S
C540 N544 1.427 . S
C541 H531 0.929 . S
C541 C539 1.433 . S
C541 N544 1.384 . S
C542 H533 0.929 . S
C542 C534 1.378 . S
C542 C537 1.350 . S
C543 H530 0.929 . S
C543 C535 1.433 . S
C543 N545 1.384 . S
N544 C540 1.427 . S
N544 C541 1.384 . S
N545 C537 1.427 . S
N545 C543 1.384 . S
H546 C552 0.930 . S
H547 C556 0.930 . S
H548 C561 0.929 . S
H549 C559 0.929 . S
H550 C554 0.929 . S
H551 C560 0.929 . S
C552 H546 0.930 . S
C552 C553 1.367 . S
C552 C560 1.378 . S
C553 C552 1.367 . S
C553 C561 1.433 . S
C554 H550 0.929 . S
C554 C556 1.378 . S
C554 C558 1.350 . S
C555 C558 1.463 . S
C555 C560 1.350 . S
C555 N563 1.427 . S
C556 H547 0.930 . S
C556 C554 1.378 . S
C556 C557 1.367 . S
C557 C556 1.367 . S
C557 C559 1.433 . S
C558 C554 1.350 . S
C558 C555 1.463 . S
C558 N562 1.427 . S
C559 H549 0.929 . S
C559 C557 1.433 . S
C559 N562 1.384 . S
C560 H551 0.929 . S
C560 C552 1.378 . S
C560 C555 1.350 . S
C561 H548 0.929 . S
C561 C553 1.433 . S
C561 N563 1.384 . S
N562 C558 1.427 . S
N562 C559 1.384 . S
N563 C555 1.427 . S
N563 C561 1.384 . S
H564 C570 0.930 . S
H565 C574 0.930 . S
H566 C579 0.929 . S
H567 C577 0.929 . S
H568 C572 0.929 . S
H569 C578 0.929 . S
C570 H564 0.930 . S
C570 C571 1.367 . S
C570 C578 1.378 . S
C571 C570 1.367 . S
C571 C579 1.433 . S
C572 H568 0.929 . S
C572 C574 1.378 . S
C572 C576 1.350 . S
C573 C576 1.463 . S
C573 C578 1.350 . S
C573 N581 1.427 . S
C574 H565 0.930 . S
C574 C572 1.378 . S
C574 C575 1.367 . S
C575 C574 1.367 . S
C575 C577 1.433 . S
C576 C572 1.350 . S
C576 C573 1.463 . S
C576 N580 1.427 . S
C577 H567 0.929 . S
C577 C575 1.433 . S
C577 N580 1.384 . S
C578 H569 0.929 . S
C578 C570 1.378 . S
C578 C573 1.350 . S
C579 H566 0.929 . S
C579 C571 1.433 . S
C579 N581 1.384 . S
N580 C576 1.427 . S
N580 C577 1.384 . S
N581 C573 1.427 . S
N581 C579 1.384 . S
H582 C588 0.930 . S
H583 C592 0.930 . S
H584 C597 0.929 . S
H585 C595 0.929 . S
H586 C590 0.929 . S
H587 C596 0.929 . S
C588 H582 0.930 . S
C588 C589 1.367 . S
C588 C596 1.378 . S
C589 C588 1.367 . S
C589 C597 1.433 . S
C590 H586 0.929 . S
C590 C592 1.378 . S
C590 C594 1.350 . S
C591 C594 1.463 . S
C591 C596 1.350 . S
C591 N599 1.427 . S
C592 H583 0.930 . S
C592 C590 1.378 . S
C592 C593 1.367 . S
C593 C592 1.367 . S
C593 C595 1.433 . S
C594 C590 1.350 . S
C594 C591 1.463 . S
C594 N598 1.427 . S
C595 H585 0.929 . S
C595 C593 1.433 . S
C595 N598 1.384 . S
C596 H587 0.929 . S
C596 C588 1.378 . S
C596 C591 1.350 . S
C597 H584 0.929 . S
C597 C589 1.433 . S
C597 N599 1.384 . S
N598 C594 1.427 . S
N598 C595 1.384 . S
N599 C591 1.427 . S
N599 C597 1.384 . S
H600 C606 0.930 . S
H601 C610 0.930 . S
H602 C615 0.929 . S
H603 C613 0.929 . S
H604 C608 0.929 . S
H605 C614 0.929 . S
C606 H600 0.930 . S
C606 C607 1.367 . S
C606 C614 1.378 . S
C607 C606 1.367 . S
C607 C615 1.433 . S
C608 H604 0.929 . S
C608 C610 1.378 . S
C608 C612 1.350 . S
C609 C612 1.463 . S
C609 C614 1.350 . S
C609 N617 1.427 . S
C610 H601 0.930 . S
C610 C608 1.378 . S
C610 C611 1.367 . S
C611 C610 1.367 . S
C611 C613 1.433 . S
C612 C608 1.350 . S
C612 C609 1.463 . S
C612 N616 1.427 . S
C613 H603 0.929 . S
C613 C611 1.433 . S
C613 N616 1.384 . S
C614 H605 0.929 . S
C614 C606 1.378 . S
C614 C609 1.350 . S
C615 H602 0.929 . S
C615 C607 1.433 . S
C615 N617 1.384 . S
N616 C612 1.427 . S
N616 C613 1.384 . S
N617 C609 1.427 . S
N617 C615 1.384 . S
H618 C624 0.930 . S
H619 C628 0.930 . S
H620 C633 0.929 . S
H621 C631 0.929 . S
H622 C626 0.929 . S
H623 C632 0.929 . S
C624 H618 0.930 . S
C624 C625 1.367 . S
C624 C632 1.378 . S
C625 C624 1.367 . S
C625 C633 1.433 . S
C626 H622 0.929 . S
C626 C628 1.378 . S
C626 C630 1.350 . S
C627 C630 1.463 . S
C627 C632 1.350 . S
C627 N635 1.427 . S
C628 H619 0.930 . S
C628 C626 1.378 . S
C628 C629 1.367 . S
C629 C628 1.367 . S
C629 C631 1.433 . S
C630 C626 1.350 . S
C630 C627 1.463 . S
C630 N634 1.427 . S
C631 H621 0.929 . S
C631 C629 1.433 . S
C631 N634 1.384 . S
C632 H623 0.929 . S
C632 C624 1.378 . S
C632 C627 1.350 . S
C633 H620 0.929 . S
C633 C625 1.433 . S
C633 N635 1.384 . S
N634 C630 1.427 . S
N634 C631 1.384 . S
N635 C627 1.427 . S
N635 C633 1.384 . S
H636 C642 0.930 . S
H637 C646 0.930 . S
H638 C651 0.929 . S
H639 C649 0.929 . S
H640 C644 0.929 . S
H641 C650 0.929 . S
C642 H636 0.930 . S
C642 C643 1.367 . S
C642 C650 1.378 . S
C643 C642 1.367 . S
C643 C651 1.433 . S
C644 H640 0.929 . S
C644 C646 1.378 . S
C644 C648 1.350 . S
C645 C648 1.463 . S
C645 C650 1.350 . S
C645 N653 1.427 . S
C646 H637 0.930 . S
C646 C644 1.378 . S
C646 C647 1.367 . S
C647 C646 1.367 . S
C647 C649 1.433 . S
C648 C644 1.350 . S
C648 C645 1.463 . S
C648 N652 1.427 . S
C649 H639 0.929 . S
C649 C647 1.433 . S
C649 N652 1.384 . S
C650 H641 0.929 . S
C650 C642 1.378 . S
C650 C645 1.350 . S
C651 H638 0.929 . S
C651 C643 1.433 . S
C651 N653 1.384 . S
N652 C648 1.427 . S
N652 C649 1.384 . S
N653 C645 1.427 . S
N653 C651 1.384 . S
H654 C660 0.930 . S
H655 C664 0.930 . S
H656 C669 0.929 . S
H657 C667 0.929 . S
H658 C662 0.929 . S
H659 C668 0.929 . S
C660 H654 0.930 . S
C660 C661 1.367 . S
C660 C668 1.378 . S
C661 C660 1.367 . S
C661 C669 1.433 . S
C662 H658 0.929 . S
C662 C664 1.378 . S
C662 C666 1.350 . S
C663 C666 1.463 . S
C663 C668 1.350 . S
C663 N671 1.427 . S
C664 H655 0.930 . S
C664 C662 1.378 . S
C664 C665 1.367 . S
C665 C664 1.367 . S
C665 C667 1.433 . S
C666 C662 1.350 . S
C666 C663 1.463 . S
C666 N670 1.427 . S
C667 H657 0.929 . S
C667 C665 1.433 . S
C667 N670 1.384 . S
C668 H659 0.929 . S
C668 C660 1.378 . S
C668 C663 1.350 . S
C669 H656 0.929 . S
C669 C661 1.433 . S
C669 N671 1.384 . S
N670 C666 1.427 . S
N670 C667 1.384 . S
N671 C663 1.427 . S
N671 C669 1.384 . S
H672 C678 0.930 . S
H673 C682 0.930 . S
H674 C687 0.929 . S
H675 C685 0.929 . S
H676 C680 0.929 . S
H677 C686 0.929 . S
C678 H672 0.930 . S
C678 C679 1.367 . S
C678 C686 1.378 . S
C679 C678 1.367 . S
C679 C687 1.433 . S
C680 H676 0.929 . S
C680 C682 1.378 . S
C680 C684 1.350 . S
C681 C684 1.463 . S
C681 C686 1.350 . S
C681 N689 1.427 . S
C682 H673 0.930 . S
C682 C680 1.378 . S
C682 C683 1.367 . S
C683 C682 1.367 . S
C683 C685 1.433 . S
C684 C680 1.350 . S
C684 C681 1.463 . S
C684 N688 1.427 . S
C685 H675 0.929 . S
C685 C683 1.433 . S
C685 N688 1.384 . S
C686 H677 0.929 . S
C686 C678 1.378 . S
C686 C681 1.350 . S
C687 H674 0.929 . S
C687 C679 1.433 . S
C687 N689 1.384 . S
N688 C684 1.427 . S
N688 C685 1.384 . S
N689 C681 1.427 . S
N689 C687 1.384 . S
H690 C696 0.930 . S
H691 C700 0.930 . S
H692 C705 0.929 . S
H693 C703 0.929 . S
H694 C698 0.929 . S
H695 C704 0.929 . S
C696 H690 0.930 . S
C696 C697 1.367 . S
C696 C704 1.378 . S
C697 C696 1.367 . S
C697 C705 1.433 . S
C698 H694 0.929 . S
C698 C700 1.378 . S
C698 C702 1.350 . S
C699 C702 1.463 . S
C699 C704 1.350 . S
C699 N707 1.427 . S
C700 H691 0.930 . S
C700 C698 1.378 . S
C700 C701 1.367 . S
C701 C700 1.367 . S
C701 C703 1.433 . S
C702 C698 1.350 . S
C702 C699 1.463 . S
C702 N706 1.427 . S
C703 H693 0.929 . S
C703 C701 1.433 . S
C703 N706 1.384 . S
C704 H695 0.929 . S
C704 C696 1.378 . S
C704 C699 1.350 . S
C705 H692 0.929 . S
C705 C697 1.433 . S
C705 N707 1.384 . S
N706 C702 1.427 . S
N706 C703 1.384 . S
N707 C699 1.427 . S
N707 C705 1.384 . S
H708 C714 0.930 . S
H709 C718 0.930 . S
H710 C723 0.929 . S
H711 C721 0.929 . S
H712 C716 0.929 . S
H713 C722 0.929 . S
C714 H708 0.930 . S
C714 C715 1.367 . S
C714 C722 1.378 . S
C715 C714 1.367 . S
C715 C723 1.433 . S
C716 H712 0.929 . S
C716 C718 1.378 . S
C716 C720 1.350 . S
C717 C720 1.463 . S
C717 C722 1.350 . S
C717 N725 1.427 . S
C718 H709 0.930 . S
C718 C716 1.378 . S
C718 C719 1.367 . S
C719 C718 1.367 . S
C719 C721 1.433 . S
C720 C716 1.350 . S
C720 C717 1.463 . S
C720 N724 1.427 . S
C721 H711 0.929 . S
C721 C719 1.433 . S
C721 N724 1.384 . S
C722 H713 0.929 . S
C722 C714 1.378 . S
C722 C717 1.350 . S
C723 H710 0.929 . S
C723 C715 1.433 . S
C723 N725 1.384 . S
N724 C720 1.427 . S
N724 C721 1.384 . S
N725 C717 1.427 . S
N725 C723 1.384 . S
H726 C732 0.930 . S
H727 C736 0.930 . S
H728 C741 0.929 . S
H729 C739 0.929 . S
H730 C734 0.929 . S
H731 C740 0.929 . S
C732 H726 0.930 . S
C732 C733 1.367 . S
C732 C740 1.378 . S
C733 C732 1.367 . S
C733 C741 1.433 . S
C734 H730 0.929 . S
C734 C736 1.378 . S
C734 C738 1.350 . S
C735 C738 1.463 . S
C735 C740 1.350 . S
C735 N743 1.427 . S
C736 H727 0.930 . S
C736 C734 1.378 . S
C736 C737 1.367 . S
C737 C736 1.367 . S
C737 C739 1.433 . S
C738 C734 1.350 . S
C738 C735 1.463 . S
C738 N742 1.427 . S
C739 H729 0.929 . S
C739 C737 1.433 . S
C739 N742 1.384 . S
C740 H731 0.929 . S
C740 C732 1.378 . S
C740 C735 1.350 . S
C741 H728 0.929 . S
C741 C733 1.433 . S
C741 N743 1.384 . S
N742 C738 1.427 . S
N742 C739 1.384 . S
N743 C735 1.427 . S
N743 C741 1.384 . S
H744 C750 0.930 . S
H745 C754 0.930 . S
H746 C759 0.929 . S
H747 C757 0.929 . S
H748 C752 0.929 . S
H749 C758 0.929 . S
C750 H744 0.930 . S
C750 C751 1.367 . S
C750 C758 1.378 . S
C751 C750 1.367 . S
C751 C759 1.433 . S
C752 H748 0.929 . S
C752 C754 1.378 . S
C752 C756 1.350 . S
C753 C756 1.463 . S
C753 C758 1.350 . S
C753 N761 1.427 . S
C754 H745 0.930 . S
C754 C752 1.378 . S
C754 C755 1.367 . S
C755 C754 1.367 . S
C755 C757 1.433 . S
C756 C752 1.350 . S
C756 C753 1.463 . S
C756 N760 1.427 . S
C757 H747 0.929 . S
C757 C755 1.433 . S
C757 N760 1.384 . S
C758 H749 0.929 . S
C758 C750 1.378 . S
C758 C753 1.350 . S
C759 H746 0.929 . S
C759 C751 1.433 . S
C759 N761 1.384 . S
N760 C756 1.427 . S
N760 C757 1.384 . S
N761 C753 1.427 . S
N761 C759 1.384 . S
H762 C768 0.930 . S
H763 C772 0.930 . S
H764 C777 0.929 . S
H765 C775 0.929 . S
H766 C770 0.929 . S
H767 C776 0.929 . S
C768 H762 0.930 . S
C768 C769 1.367 . S
C768 C776 1.378 . S
C769 C768 1.367 . S
C769 C777 1.433 . S
C770 H766 0.929 . S
C770 C772 1.378 . S
C770 C774 1.350 . S
C771 C774 1.463 . S
C771 C776 1.350 . S
C771 N779 1.427 . S
C772 H763 0.930 . S
C772 C770 1.378 . S
C772 C773 1.367 . S
C773 C772 1.367 . S
C773 C775 1.433 . S
C774 C770 1.350 . S
C774 C771 1.463 . S
C774 N778 1.427 . S
C775 H765 0.929 . S
C775 C773 1.433 . S
C775 N778 1.384 . S
C776 H767 0.929 . S
C776 C768 1.378 . S
C776 C771 1.350 . S
C777 H764 0.929 . S
C777 C769 1.433 . S
C777 N779 1.384 . S
N778 C774 1.427 . S
N778 C775 1.384 . S
N779 C771 1.427 . S
N779 C777 1.384 . S
H780 C786 0.930 . S
H781 C790 0.930 . S
H782 C795 0.929 . S
H783 C793 0.929 . S
H784 C788 0.929 . S
H785 C794 0.929 . S
C786 H780 0.930 . S
C786 C787 1.367 . S
C786 C794 1.378 . S
C787 C786 1.367 . S
C787 C795 1.433 . S
C788 H784 0.929 . S
C788 C790 1.378 . S
C788 C792 1.350 . S
C789 C792 1.463 1_556 S
C789 C794 1.350 . S
C789 N797 1.427 . S
C790 H781 0.930 . S
C790 C788 1.378 . S
C790 C791 1.367 . S
C791 C790 1.367 . S
C791 C793 1.433 . S
C792 C788 1.350 . S
C792 C789 1.463 1_554 S
C792 N796 1.427 . S
C793 H783 0.929 . S
C793 C791 1.433 . S
C793 N796 1.384 . S
C794 H785 0.929 . S
C794 C786 1.378 . S
C794 C789 1.350 . S
C795 H782 0.929 . S
C795 C787 1.433 . S
C795 N797 1.384 . S
N796 C792 1.427 . S
N796 C793 1.384 . S
N797 C789 1.427 . S
N797 C795 1.384 . S
H798 C804 0.930 . S
H799 C808 0.930 . S
H800 C813 0.929 . S
H801 C811 0.929 . S
H802 C806 0.929 . S
H803 C812 0.929 . S
C804 H798 0.930 . S
C804 C805 1.367 . S
C804 C812 1.378 . S
C805 C804 1.367 . S
C805 C813 1.433 . S
C806 H802 0.929 . S
C806 C808 1.378 . S
C806 C810 1.350 . S
C807 C810 1.463 1_455 S
C807 C812 1.350 . S
C807 N815 1.427 . S
C808 H799 0.930 . S
C808 C806 1.378 . S
C808 C809 1.367 . S
C809 C808 1.367 . S
C809 C811 1.433 . S
C810 C806 1.350 . S
C810 C807 1.463 1_655 S
C810 N814 1.427 . S
C811 H801 0.929 . S
C811 C809 1.433 . S
C811 N814 1.384 . S
C812 H803 0.929 . S
C812 C804 1.378 . S
C812 C807 1.350 . S
C813 H800 0.929 . S
C813 C805 1.433 . S
C813 N815 1.384 . S
N814 C810 1.427 . S
N814 C811 1.384 . S
N815 C807 1.427 . S
N815 C813 1.384 . S
H816 C822 0.930 . S
H817 C826 0.930 . S
H818 C831 0.929 . S
H819 C829 0.929 . S
H820 C824 0.929 1_565 S
H821 C830 0.929 1_545 S
C822 H816 0.930 . S
C822 C823 1.367 . S
C822 C830 1.378 . S
C823 C822 1.367 . S
C823 C831 1.433 . S
C824 H820 0.929 1_545 S
C824 C826 1.378 . S
C824 C828 1.350 . S
C825 C828 1.463 1_564 S
C825 C830 1.350 . S
C825 N833 1.427 1_554 S
C826 H817 0.930 . S
C826 C824 1.378 . S
C826 C827 1.367 . S
C827 C826 1.367 . S
C827 C829 1.433 . S
C828 C824 1.350 . S
C828 C825 1.463 1_546 S
C828 N832 1.427 1_556 S
C829 H819 0.929 . S
C829 C827 1.433 . S
C829 N832 1.384 1_556 S
C830 H821 0.929 1_565 S
C830 C822 1.378 . S
C830 C825 1.350 . S
C831 H818 0.929 . S
C831 C823 1.433 . S
C831 N833 1.384 1_554 S
N832 C828 1.427 1_554 S
N832 C829 1.384 1_554 S
N833 C825 1.427 1_556 S
N833 C831 1.384 1_556 S
H834 C840 0.930 . S
H835 C844 0.930 . S
H836 C849 0.929 . S
H837 C847 0.929 . S
H838 C842 0.929 . S
H839 C848 0.929 . S
C840 H834 0.930 . S
C840 C841 1.367 . S
C840 C848 1.378 . S
C841 C840 1.367 . S
C841 C849 1.433 . S
C842 H838 0.929 . S
C842 C844 1.378 . S
C842 C846 1.350 . S
C843 C846 1.463 . S
C843 C848 1.350 . S
C843 N851 1.427 . S
C844 H835 0.930 . S
C844 C842 1.378 . S
C844 C845 1.367 . S
C845 C844 1.367 . S
C845 C847 1.433 . S
C846 C842 1.350 . S
C846 C843 1.463 . S
C846 N850 1.427 . S
C847 H837 0.929 . S
C847 C845 1.433 . S
C847 N850 1.384 . S
C848 H839 0.929 . S
C848 C840 1.378 . S
C848 C843 1.350 . S
C849 H836 0.929 . S
C849 C841 1.433 . S
C849 N851 1.384 . S
N850 C846 1.427 . S
N850 C847 1.384 . S
N851 C843 1.427 . S
N851 C849 1.384 . S
H852 C858 0.930 . S
H853 C862 0.930 . S
H854 C867 0.929 . S
H855 C865 0.929 . S
H856 C860 0.918 1_556 S
H857 C866 0.917 1_554 S
C858 H852 0.930 . S
C858 C859 1.367 . S
C858 C866 1.378 . S
C859 C858 1.367 . S
C859 C867 1.433 . S
C860 H856 0.918 1_554 S
C860 C862 1.378 . S
C860 C864 1.350 . S
C861 C864 1.463 1_656 S
C861 C866 1.350 . S
C861 N869 1.427 . S
C862 H853 0.930 . S
C862 C860 1.378 . S
C862 C863 1.367 . S
C863 C862 1.367 . S
C863 C865 1.433 . S
C864 C860 1.350 . S
C864 C861 1.463 1_454 S
C864 N868 1.427 . S
C865 H855 0.929 . S
C865 C863 1.433 . S
C865 N868 1.384 . S
C866 H857 0.917 1_556 S
C866 C858 1.378 . S
C866 C861 1.350 . S
C867 H854 0.929 . S
C867 C859 1.433 . S
C867 N869 1.384 . S
N868 C864 1.427 . S
N868 C865 1.384 . S
N869 C861 1.427 . S
N869 C867 1.384 . S
H870 C876 0.930 . S
H871 C880 0.930 . S
H872 C885 0.929 . S
H873 C883 0.929 . S
H874 C878 0.929 1_565 S
H875 C884 0.929 1_545 S
C876 H870 0.930 . S
C876 C877 1.367 . S
C876 C884 1.378 . S
C877 C876 1.367 . S
C877 C885 1.433 . S
C878 H874 0.929 1_545 S
C878 C880 1.378 . S
C878 C882 1.350 . S
C879 C882 1.463 1_565 S
C879 C884 1.350 . S
C879 N887 1.427 . S
C880 H871 0.930 . S
C880 C878 1.378 . S
C880 C881 1.367 . S
C881 C880 1.367 . S
C881 C883 1.433 . S
C882 C878 1.350 . S
C882 C879 1.463 1_545 S
C882 N886 1.427 . S
C883 H873 0.929 . S
C883 C881 1.433 . S
C883 N886 1.384 . S
C884 H875 0.929 1_565 S
C884 C876 1.378 . S
C884 C879 1.350 . S
C885 H872 0.929 . S
C885 C877 1.433 . S
C885 N887 1.384 . S
N886 C882 1.427 . S
N886 C883 1.384 . S
N887 C879 1.427 . S
N887 C885 1.384 . S
C247 C88 1.742 . S
C251 C5 2.070 . S
C265 C108 1.749 . S
C269 C25 2.071 1_455 S
C283 C45 2.071 1_545 S
C287 C8 1.756 . S
C301 C65 2.067 . S
C305 C28 1.750 . S
C319 C85 2.071 1_655 S
C323 C48 1.748 . S
C337 C68 1.764 . S
C341 C105 2.070 1_565 S
C355 C168 1.754 . S
C359 C125 2.067 . S
C373 C145 2.068 1_455 S
C377 C188 1.760 . S
C391 C208 1.742 . S
C395 C165 2.069 1_545 S
C409 C185 2.069 . S
C413 C228 1.742 . S
C427 C205 2.070 1_655 S
C431 C128 1.745 . S
C445 C148 1.764 . S
C449 C225 2.070 1_565 S
C463 C94 1.882 . S
C467 C17 1.779 . S
C481 C37 1.790 . S
C485 C114 1.873 . S
C499 C57 1.791 . S
C503 C14 1.873 . S
C517 C77 1.792 . S
C521 C34 1.874 . S
C535 C54 1.880 . S
C539 C97 1.775 . S
C553 C74 1.877 . S
C557 C117 1.789 . S
C571 C174 1.873 . S
C575 C137 1.788 . S
C589 C157 1.780 . S
C593 C194 1.876 . S
C607 C177 1.776 . S
C611 C214 1.879 . S
C625 C234 1.881 . S
C629 C197 1.775 . S
C643 C217 1.792 . S
C647 C134 1.874 . S
C661 C154 1.873 . S
C665 C237 1.788 . S
C679 C202 1.820 . S
C683 C2 1.812 . S
C697 C22 1.811 . S
C701 C222 1.820 . S
C715 C42 1.809 . S
C719 C122 1.812 . S
C733 C62 1.820 . S
C737 C142 1.810 . S
C751 C82 1.816 . S
C755 C162 1.808 . S
C769 C182 1.809 . S
C773 C102 1.819 . S
C787 C193 1.859 . S
C791 C13 1.867 . S
C805 C213 1.861 . S
C809 C33 1.868 . S
C823 C53 1.857 . S
C827 C233 1.857 . S
C841 C73 1.866 . S
C845 C133 1.858 . S
C859 C153 1.861 . S
C863 C93 1.868 . S
C877 C173 1.861 . S
C881 C113 1.856 . S
