# Generated by pormake.
# Topology sra, (4)-cn, num edge types: 1
# Building blocks:
#     Node 0, Type 0, BuildingBlock: ICAMEG_clean_sbu_1, # of connection points: 4
#     Node 1, Type 0, BuildingBlock: ICAMEG_clean_sbu_1, # of connection points: 4
#     Node 2, Type 0, BuildingBlock: ICAMEG_clean_sbu_1, # of connection points: 4
#     Node 3, Type 0, BuildingBlock: ICAMEG_clean_sbu_1, # of connection points: 4
#     Node 4, Type 0, BuildingBlock: ICAMEG_clean_sbu_1, # of connection points: 4
#     Node 5, Type 0, BuildingBlock: ICAMEG_clean_sbu_1, # of connection points: 4
#     Node 6, Type 0, BuildingBlock: ICAMEG_clean_sbu_1, # of connection points: 4
#     Node 7, Type 0, BuildingBlock: ICAMEG_clean_sbu_1, # of connection points: 4
#     Edge 8, Type (0, 0), BuildingBlock: ZUJKAS_clean_linker_0, # of connection points: 2
#     Edge 9, Type (0, 0), BuildingBlock: ZUJKAS_clean_linker_0, # of connection points: 2
#     Edge 10, Type (0, 0), BuildingBlock: ZUJKAS_clean_linker_0, # of connection points: 2
#     Edge 11, Type (0, 0), BuildingBlock: ZUJKAS_clean_linker_0, # of connection points: 2
#     Edge 12, Type (0, 0), BuildingBlock: ZUJKAS_clean_linker_0, # of connection points: 2
#     Edge 13, Type (0, 0), BuildingBlock: ZUJKAS_clean_linker_0, # of connection points: 2
#     Edge 14, Type (0, 0), BuildingBlock: ZUJKAS_clean_linker_0, # of connection points: 2
#     Edge 15, Type (0, 0), BuildingBlock: ZUJKAS_clean_linker_0, # of connection points: 2
#     Edge 16, Type (0, 0), BuildingBlock: ZUJKAS_clean_linker_0, # of connection points: 2
#     Edge 17, Type (0, 0), BuildingBlock: ZUJKAS_clean_linker_0, # of connection points: 2
#     Edge 18, Type (0, 0), BuildingBlock: ZUJKAS_clean_linker_0, # of connection points: 2
#     Edge 19, Type (0, 0), BuildingBlock: ZUJKAS_clean_linker_0, # of connection points: 2
#     Edge 20, Type (0, 0), BuildingBlock: ZUJKAS_clean_linker_0, # of connection points: 2
#     Edge 21, Type (0, 0), BuildingBlock: ZUJKAS_clean_linker_0, # of connection points: 2
#     Edge 22, Type (0, 0), BuildingBlock: ZUJKAS_clean_linker_0, # of connection points: 2
#     Edge 23, Type (0, 0), BuildingBlock: ZUJKAS_clean_linker_0, # of connection points: 2
# Relax obj value: 0.019
# Max RMSD: 0.062
# Mean RMSD: 0.062
data_MOF--net-sra--node1-ICAMEG_clean_sbu_1--edge1-ZUJKAS_clean_linker_0
_symmetry_space_group_name_H-M    P1
_symmetry_Int_Tables_number       1
_symmetry_cell_setting            triclinic
loop_
_symmetry_equiv_pos_as_xyz
'x, y, z'
_cell_length_a     38.599433
_cell_length_b     72.13913
_cell_length_c     39.478098
_cell_angle_alpha  90.043308
_cell_angle_beta   89.997707
_cell_angle_gamma 90.00746
loop_
_atom_site_label
_atom_site_type_symbol
_atom_site_fract_x
_atom_site_fract_y
_atom_site_fract_z
_atom_type_partial_charge
Co0 Co 0.02256 0.11792 0.21391 0.0
Co1 Co 0.99376 0.12269 0.13141 0.0
O2 O 0.02504 0.11204 0.16548 0.0
C3 C 0.0961 0.12633 0.19826 0.0
O4 O 0.08577 0.13569 0.17159 0.0
C5 C 0.99019 0.0819 0.12031 0.0
O6 O 0.99234 0.07958 0.15318 0.0
O7 O 0.95219 0.11621 0.15897 0.0
O8 O 0.97103 0.11789 0.21263 0.0
H9 H 0.8941 0.16176 0.09147 0.0
H10 H 0.06555 0.08608 0.19195 0.0
O11 O 0.07417 0.11807 0.21698 0.0
H12 H 0.97738 0.05954 0.2682 0.0
H13 H 0.05863 0.11244 0.3361 0.0
H14 H 0.98051 0.14371 0.25549 0.0
H15 H 0.9786 0.09311 0.25663 0.0
H16 H 0.06062 0.10483 0.27521 0.0
O17 O 0.99026 0.09811 0.10757 0.0
H18 H 0.9339 0.14838 0.13379 0.0
H19 H 0.98733 0.11914 0.05634 0.0
H20 H 0.97745 0.15163 0.31621 0.0
H21 H 0.06558 0.05245 0.20321 0.0
H22 H 0.01671 0.13594 0.35697 0.0
H23 H 0.02116 0.03897 0.24147 0.0
O24 O 0.0231 0.14498 0.20411 0.0
H25 H 0.10877 0.10997 0.07657 0.0
H26 H 0.01785 0.15683 0.09574 0.0
H27 H 0.06981 0.1652 0.06279 0.0
H28 H 0.1157 0.14166 0.05296 0.0
H29 H 0.05651 0.10225 0.10964 0.0
H30 H 0.94794 0.13209 0.01322 0.0
H31 H 0.901 0.15362 0.03069 0.0
O32 O 0.99647 0.14761 0.15376 0.0
C33 C 0.9469 0.11619 0.19087 0.0
C34 C 0.91452 0.15244 0.08353 0.0
C35 C 0.94471 0.13576 0.03962 0.0
N36 N 0.96305 0.13311 0.09752 0.0
C37 C 0.93719 0.14486 0.10736 0.0
C38 C 0.96689 0.12845 0.06416 0.0
C39 C 0.91839 0.14785 0.04944 0.0
C40 C 0.04638 0.08034 0.20892 0.0
N41 N 0.02212 0.09156 0.22361 0.0
C42 C 0.04642 0.06128 0.21507 0.0
C43 C 0.02144 0.05372 0.23648 0.0
C44 C 0.99684 0.06525 0.25145 0.0
C45 C 0.99756 0.08424 0.24468 0.0
C46 C 0.04135 0.11935 0.3186 0.0
C47 C 0.99755 0.13675 0.27311 0.0
C48 C 0.04241 0.11513 0.28408 0.0
N49 N 0.02055 0.12373 0.26185 0.0
C50 C 0.99575 0.14132 0.30744 0.0
C51 C 0.01782 0.13253 0.33029 0.0
C52 C 0.00998 0.15467 0.18033 0.0
C53 C 0.08891 0.12033 0.0806 0.0
C54 C 0.03774 0.14653 0.09167 0.0
C55 C 0.06708 0.15134 0.07292 0.0
C56 C 0.09281 0.13812 0.0674 0.0
N57 N 0.03408 0.12904 0.10447 0.0
C58 C 0.05921 0.11602 0.09919 0.0
Co59 Co 0.02266 0.39112 0.21088 0.0
Co60 Co 0.04987 0.38553 0.12824 0.0
O61 O 0.01975 0.39676 0.16251 0.0
C62 C 0.94865 0.3837 0.19623 0.0
O63 O 0.95841 0.3741 0.16962 0.0
C64 C 0.05846 0.42596 0.11673 0.0
O65 O 0.06289 0.42781 0.14954 0.0
O66 O 0.09228 0.39175 0.15493 0.0
O67 O 0.07413 0.39034 0.20885 0.0
H68 H 0.14739 0.34535 0.08682 0.0
H69 H 0.98199 0.42356 0.18787 0.0
O70 O 0.97108 0.39182 0.21463 0.0
H71 H 0.07202 0.4491 0.26325 0.0
H72 H 0.98863 0.39793 0.33341 0.0
H73 H 0.06391 0.36496 0.25238 0.0
H74 H 0.06816 0.41543 0.25307 0.0
H75 H 0.9862 0.40518 0.27241 0.0
O76 O 0.05311 0.40996 0.10406 0.0
H77 H 0.10898 0.35933 0.12977 0.0
H78 H 0.0547 0.3886 0.05304 0.0
H79 H 0.0674 0.35738 0.31321 0.0
H80 H 0.98472 0.45732 0.19758 0.0
H81 H 0.02956 0.37392 0.35418 0.0
H82 H 0.03006 0.47029 0.23543 0.0
O83 O 0.02055 0.36401 0.20155 0.0
H84 H 0.93416 0.39887 0.07532 0.0
H85 H 0.02396 0.35134 0.09389 0.0
H86 H 0.97106 0.34319 0.06219 0.0
H87 H 0.92573 0.36706 0.05267 0.0
H88 H 0.98733 0.40638 0.10717 0.0
H89 H 0.09269 0.37506 0.00928 0.0
H90 H 0.13934 0.35321 0.02608 0.0
O91 O 0.04695 0.3608 0.15117 0.0
C92 C 0.09804 0.39173 0.18677 0.0
C93 C 0.12709 0.35481 0.07917 0.0
C94 C 0.09641 0.37151 0.03566 0.0
N95 N 0.0795 0.37466 0.09389 0.0
C96 C 0.10521 0.36273 0.10337 0.0
C97 C 0.07504 0.37916 0.06055 0.0
C98 C 0.12258 0.35924 0.0451 0.0
C99 C 0.00159 0.42909 0.20461 0.0
N100 N 0.02482 0.41753 0.21995 0.0
C101 C 0.00309 0.44822 0.20991 0.0
C102 C 0.02858 0.45549 0.23111 0.0
C103 C 0.05214 0.44361 0.24671 0.0
C104 C 0.04989 0.42456 0.24077 0.0
C105 C 0.00529 0.39065 0.31582 0.0
C106 C 0.0475 0.37229 0.27009 0.0
C107 C 0.00397 0.39467 0.28124 0.0
N108 N 0.02506 0.38559 0.25889 0.0
C109 C 0.04953 0.36791 0.30448 0.0
C110 C 0.02827 0.37718 0.32745 0.0
C111 C 0.03328 0.35404 0.17791 0.0
C112 C 0.95376 0.38836 0.07923 0.0
C113 C 0.00431 0.36179 0.08997 0.0
C114 C 0.97444 0.3571 0.07192 0.0
C115 C 0.94903 0.3705 0.06657 0.0
N116 N 0.00878 0.37935 0.10226 0.0
C117 C 0.98398 0.39256 0.09713 0.0
Co118 Co 0.02263 0.89099 0.794 0.0
Co119 Co 0.99268 0.88632 0.8759 0.0
O120 O 0.02468 0.89692 0.84241 0.0
C121 C 0.09633 0.88314 0.80993 0.0
O122 O 0.08611 0.87373 0.83659 0.0
C123 C 0.99027 0.92701 0.88806 0.0
O124 O 0.99192 0.9295 0.85519 0.0
O125 O 0.9518 0.89364 0.84822 0.0
O126 O 0.97098 0.89054 0.79491 0.0
H127 H 0.89058 0.84848 0.91392 0.0
H128 H 0.06448 0.92325 0.81597 0.0
O129 O 0.07428 0.89129 0.79119 0.0
H130 H 0.97595 0.94885 0.73906 0.0
H131 H 0.05917 0.8966 0.67195 0.0
H132 H 0.98169 0.86472 0.75237 0.0
H133 H 0.97814 0.91531 0.75086 0.0
H134 H 0.06059 0.90433 0.7328 0.0
O135 O 0.99024 0.91072 0.90047 0.0
H136 H 0.93138 0.86166 0.8723 0.0
H137 H 0.986 0.88919 0.95103 0.0
H138 H 0.9792 0.85667 0.69168 0.0
H139 H 0.06353 0.95685 0.80449 0.0
H140 H 0.01815 0.87266 0.65101 0.0
H141 H 0.01892 0.96986 0.7659 0.0
O142 O 0.02404 0.864 0.80411 0.0
H143 H 0.10772 0.8969 0.93218 0.0
H144 H 0.01489 0.85146 0.91036 0.0
H145 H 0.06615 0.84204 0.94342 0.0
H146 H 0.11299 0.86486 0.95458 0.0
H147 H 0.05614 0.90568 0.89897 0.0
H148 H 0.94564 0.87643 0.99349 0.0
H149 H 0.89759 0.85586 0.97502 0.0
O150 O 0.99419 0.86154 0.85277 0.0
C151 C 0.94671 0.89296 0.81634 0.0
C152 C 0.91149 0.85738 0.9223 0.0
C153 C 0.94236 0.87308 0.96695 0.0
N154 N 0.9612 0.87604 0.90925 0.0
C155 C 0.93472 0.86483 0.89886 0.0
C156 C 0.96509 0.88029 0.94279 0.0
C157 C 0.91541 0.86154 0.95657 0.0
C158 C 0.04523 0.92878 0.79886 0.0
N159 N 0.02141 0.91733 0.78411 0.0
C160 C 0.04472 0.94783 0.79259 0.0
C161 C 0.01964 0.95513 0.77098 0.0
C162 C 0.99549 0.94335 0.75596 0.0
C163 C 0.99676 0.92437 0.76286 0.0
C164 C 0.04203 0.88956 0.68941 0.0
C165 C 0.99859 0.87181 0.73479 0.0
C166 C 0.04278 0.89384 0.72391 0.0
N167 N 0.02109 0.88507 0.74608 0.0
C168 C 0.99712 0.86716 0.70048 0.0
C169 C 0.019 0.87613 0.67768 0.0
C170 C 0.00922 0.85442 0.82705 0.0
C171 C 0.08743 0.88685 0.92758 0.0
C172 C 0.0352 0.86146 0.91503 0.0
C173 C 0.06413 0.85605 0.93383 0.0
C174 C 0.09039 0.86886 0.9401 0.0
N175 N 0.03245 0.87914 0.90291 0.0
C176 C 0.05811 0.89177 0.90891 0.0
Co177 Co 0.02257 0.61786 0.79667 0.0
Co178 Co 0.05164 0.6238 0.87843 0.0
O179 O 0.02059 0.61241 0.84514 0.0
C180 C 0.94855 0.62491 0.81197 0.0
O181 O 0.95839 0.63498 0.83798 0.0
C182 C 0.05931 0.58348 0.89136 0.0
O183 O 0.0634 0.58129 0.85858 0.0
O184 O 0.09321 0.61684 0.85128 0.0
O185 O 0.07415 0.61914 0.79778 0.0
H186 H 0.15148 0.66334 0.91656 0.0
H187 H 0.98335 0.58513 0.82063 0.0
O188 O 0.97096 0.61666 0.79375 0.0
H189 H 0.07287 0.5602 0.74401 0.0
H190 H 0.98673 0.61034 0.67478 0.0
H191 H 0.06229 0.64426 0.75424 0.0
H192 H 0.06813 0.59385 0.75395 0.0
H193 H 0.98552 0.60329 0.73589 0.0
O194 O 0.05444 0.59963 0.90355 0.0
H195 H 0.11183 0.64925 0.87483 0.0
H196 H 0.05758 0.62166 0.95366 0.0
H197 H 0.06458 0.65164 0.69327 0.0
H198 H 0.98696 0.55138 0.81117 0.0
H199 H 0.02659 0.63463 0.65309 0.0
H200 H 0.03206 0.53871 0.77271 0.0
O201 O 0.01967 0.64495 0.8059 0.0
H202 H 0.93649 0.61237 0.93396 0.0
H203 H 0.02754 0.65873 0.91152 0.0
H204 H 0.97554 0.66785 0.94374 0.0
H205 H 0.92958 0.64458 0.95522 0.0
H206 H 0.98879 0.60388 0.90156 0.0
H207 H 0.09681 0.63532 0.99623 0.0
H208 H 0.14408 0.65639 0.97776 0.0
O209 O 0.04931 0.64831 0.85453 0.0
C210 C 0.09843 0.61727 0.81938 0.0
C211 C 0.13091 0.65423 0.92494 0.0
C212 C 0.10026 0.63849 0.96964 0.0
N213 N 0.08227 0.63478 0.91183 0.0
C214 C 0.10833 0.64626 0.90144 0.0
C215 C 0.07817 0.63076 0.94542 0.0
C216 C 0.12677 0.65031 0.95926 0.0
C217 C 0.00283 0.57973 0.80362 0.0
N218 N 0.02544 0.59145 0.78781 0.0
C219 C 0.00484 0.5606 0.79846 0.0
C220 C 0.03018 0.5535 0.77692 0.0
C221 C 0.05311 0.56555 0.76083 0.0
C222 C 0.05037 0.58459 0.76664 0.0
C223 C 0.00345 0.61783 0.69202 0.0
C224 C 0.04582 0.63673 0.73687 0.0
C225 C 0.00281 0.61393 0.72666 0.0
N226 N 0.02398 0.62327 0.74857 0.0
C227 C 0.04717 0.641 0.7024 0.0
C228 C 0.02583 0.63146 0.67987 0.0
C229 C 0.03397 0.65497 0.82858 0.0
C230 C 0.95638 0.62262 0.92921 0.0
C231 C 0.00762 0.64853 0.91631 0.0
C232 C 0.97826 0.65377 0.93464 0.0
C233 C 0.9525 0.6407 0.94109 0.0
N234 N 0.01127 0.63075 0.90481 0.0
C235 C 0.9861 0.61787 0.91099 0.0
Co236 Co 0.52091 0.61767 0.71112 0.0
Co237 Co 0.49395 0.62397 0.62857 0.0
O238 O 0.5239 0.61241 0.6626 0.0
C239 C 0.59492 0.62513 0.69668 0.0
O240 O 0.58513 0.63491 0.67032 0.0
C241 C 0.48515 0.58364 0.61595 0.0
O242 O 0.48078 0.58156 0.64872 0.0
O243 O 0.45142 0.61766 0.65499 0.0
O244 O 0.46944 0.6185 0.709 0.0
H245 H 0.39685 0.66467 0.58805 0.0
H246 H 0.5616 0.58541 0.68722 0.0
O247 O 0.5725 0.61692 0.71494 0.0
H248 H 0.47141 0.55929 0.76168 0.0
H249 H 0.55467 0.60984 0.8335 0.0
H250 H 0.47955 0.64347 0.75334 0.0
H251 H 0.47531 0.59303 0.75249 0.0
H252 H 0.55727 0.60312 0.77228 0.0
O253 O 0.49055 0.59973 0.60371 0.0
H254 H 0.43503 0.65029 0.6307 0.0
H255 H 0.4893 0.62148 0.55328 0.0
H256 H 0.47588 0.65052 0.81439 0.0
H257 H 0.55885 0.55158 0.69594 0.0
H258 H 0.51365 0.63365 0.85492 0.0
H259 H 0.51342 0.53831 0.73332 0.0
O260 O 0.52307 0.64486 0.70263 0.0
H261 H 0.60967 0.61076 0.57551 0.0
H262 H 0.52024 0.65836 0.59531 0.0
H263 H 0.57328 0.66663 0.56395 0.0
H264 H 0.61843 0.64273 0.55382 0.0
H265 H 0.55636 0.60312 0.60702 0.0
H266 H 0.45153 0.63543 0.50981 0.0
H267 H 0.405 0.65726 0.52711 0.0
O268 O 0.49698 0.6485 0.6522 0.0
C269 C 0.44558 0.6174 0.68681 0.0
C270 C 0.4171 0.65523 0.58018 0.0
C271 C 0.44776 0.63879 0.53628 0.0
N272 N 0.46449 0.63516 0.59446 0.0
C273 C 0.43885 0.64708 0.60421 0.0
C274 C 0.46901 0.6309 0.56101 0.0
C275 C 0.42167 0.65104 0.546 0.0
C276 C 0.54197 0.57975 0.70376 0.0
N277 N 0.51871 0.59118 0.7194 0.0
C278 C 0.54045 0.56058 0.7085 0.0
C279 C 0.51492 0.55314 0.72944 0.0
C280 C 0.49133 0.5649 0.74534 0.0
C281 C 0.49359 0.584 0.73996 0.0
C282 C 0.53805 0.61727 0.8161 0.0
C283 C 0.49592 0.636 0.77085 0.0
C284 C 0.53946 0.61355 0.7814 0.0
N285 N 0.51842 0.62281 0.7593 0.0
C286 C 0.49379 0.64008 0.80538 0.0
C287 C 0.51501 0.63062 0.8281 0.0
C288 C 0.51049 0.65503 0.67923 0.0
C289 C 0.59015 0.62128 0.57969 0.0
C290 C 0.53981 0.64789 0.5911 0.0
C291 C 0.56975 0.65265 0.57326 0.0
C292 C 0.59506 0.63923 0.56757 0.0
N293 N 0.53514 0.63025 0.60287 0.0
C294 C 0.55985 0.61702 0.5974 0.0
Co295 Co 0.52422 0.89135 0.70965 0.0
Co296 Co 0.5505 0.88488 0.62688 0.0
O297 O 0.52064 0.89634 0.6611 0.0
C298 C 0.45043 0.88296 0.69592 0.0
O299 O 0.46044 0.87301 0.66983 0.0
C300 C 0.55861 0.92521 0.61436 0.0
O301 O 0.56322 0.92725 0.64711 0.0
O302 O 0.59315 0.89141 0.65293 0.0
O303 O 0.57569 0.89105 0.70713 0.0
H304 H 0.64785 0.84452 0.58565 0.0
H305 H 0.48218 0.92306 0.6856 0.0
O306 O 0.47264 0.89159 0.7138 0.0
H307 H 0.57199 0.95048 0.75901 0.0
H308 H 0.49099 0.8994 0.83214 0.0
H309 H 0.56686 0.86622 0.75193 0.0
H310 H 0.56922 0.91666 0.75034 0.0
H311 H 0.48772 0.9058 0.77085 0.0
O312 O 0.55333 0.90913 0.60201 0.0
H313 H 0.6098 0.8588 0.62858 0.0
H314 H 0.55456 0.88733 0.55157 0.0
H315 H 0.57121 0.85951 0.81304 0.0
H316 H 0.48381 0.95696 0.6938 0.0
H317 H 0.53307 0.87616 0.8536 0.0
H318 H 0.52904 0.97088 0.73064 0.0
O319 O 0.523 0.8641 0.70155 0.0
H320 H 0.43418 0.8975 0.57467 0.0
H321 H 0.5245 0.85033 0.59389 0.0
H322 H 0.47136 0.84177 0.56293 0.0
H323 H 0.42576 0.86546 0.55309 0.0
H324 H 0.4876 0.90541 0.60577 0.0
H325 H 0.59219 0.87349 0.50782 0.0
H326 H 0.63914 0.85186 0.52478 0.0
O327 O 0.54803 0.86037 0.65061 0.0
C328 C 0.59929 0.89205 0.68467 0.0
C329 C 0.62742 0.85389 0.57794 0.0
C330 C 0.5962 0.87016 0.53426 0.0
N331 N 0.57986 0.87377 0.59256 0.0
C332 C 0.60574 0.86197 0.60212 0.0
C333 C 0.57504 0.87799 0.55915 0.0
C334 C 0.62254 0.85802 0.54379 0.0
C335 C 0.50174 0.92901 0.70192 0.0
N336 N 0.52551 0.91789 0.71755 0.0
C337 C 0.50262 0.94822 0.70636 0.0
C338 C 0.52804 0.95602 0.72699 0.0
C339 C 0.55216 0.94458 0.7429 0.0
C340 C 0.55052 0.92544 0.73782 0.0
C341 C 0.50779 0.89208 0.81472 0.0
C342 C 0.55033 0.8736 0.76945 0.0
C343 C 0.506 0.89561 0.77999 0.0
N344 N 0.52725 0.88648 0.75787 0.0
C345 C 0.55284 0.86971 0.80401 0.0
C346 C 0.53141 0.87904 0.82675 0.0
C347 C 0.53525 0.8539 0.678 0.0
C348 C 0.45389 0.88707 0.57872 0.0
C349 C 0.50474 0.8607 0.58981 0.0
C350 C 0.47473 0.85578 0.57219 0.0
C351 C 0.44917 0.86908 0.56666 0.0
N352 N 0.50921 0.87838 0.60151 0.0
C353 C 0.48425 0.89149 0.5962 0.0
Co354 Co 0.5207 0.39177 0.29517 0.0
Co355 Co 0.49339 0.38576 0.37766 0.0
O356 O 0.52359 0.39713 0.34366 0.0
C357 C 0.59451 0.38404 0.30993 0.0
O358 O 0.58439 0.3742 0.3361 0.0
C359 C 0.48517 0.42614 0.39018 0.0
O360 O 0.4808 0.42825 0.35742 0.0
O361 O 0.45108 0.39222 0.35108 0.0
O362 O 0.4692 0.39107 0.29711 0.0
H363 H 0.39548 0.34557 0.41807 0.0
H364 H 0.56162 0.42398 0.31894 0.0
O365 O 0.57232 0.39238 0.2916 0.0
H366 H 0.47191 0.45014 0.24397 0.0
H367 H 0.55514 0.3992 0.1729 0.0
H368 H 0.47926 0.36599 0.25297 0.0
H369 H 0.47546 0.41641 0.25347 0.0
H370 H 0.55752 0.40606 0.23408 0.0
O371 O 0.49033 0.41004 0.40241 0.0
H372 H 0.43403 0.35972 0.37548 0.0
H373 H 0.48857 0.38835 0.45294 0.0
H374 H 0.47581 0.35881 0.19196 0.0
H375 H 0.5592 0.4578 0.30992 0.0
H376 H 0.51396 0.37547 0.15147 0.0
H377 H 0.51402 0.47108 0.27229 0.0
O378 O 0.52256 0.36459 0.30389 0.0
H379 H 0.6092 0.39852 0.4309 0.0
H380 H 0.51901 0.35131 0.41122 0.0
H381 H 0.57184 0.34284 0.44273 0.0
H382 H 0.61737 0.36655 0.4528 0.0
H383 H 0.55609 0.40635 0.39924 0.0
H384 H 0.45044 0.37463 0.49635 0.0
H385 H 0.40358 0.35301 0.47901 0.0
O386 O 0.49611 0.36117 0.35418 0.0
C387 C 0.44531 0.39237 0.31924 0.0
C388 C 0.41587 0.35493 0.42596 0.0
C389 C 0.44668 0.37126 0.46989 0.0
N390 N 0.46365 0.37474 0.41174 0.0
C391 C 0.43783 0.36294 0.40197 0.0
C392 C 0.46814 0.37902 0.44519 0.0
C393 C 0.42041 0.35912 0.46014 0.0
C394 C 0.54209 0.42965 0.30228 0.0
N395 N 0.51878 0.41823 0.28668 0.0
C396 C 0.54076 0.44881 0.29738 0.0
C397 C 0.51537 0.45626 0.2763 0.0
C398 C 0.49172 0.44452 0.26043 0.0
C399 C 0.4938 0.42543 0.26598 0.0
C400 C 0.53835 0.39187 0.19028 0.0
C401 C 0.4958 0.37337 0.23548 0.0
C402 C 0.53964 0.39566 0.22496 0.0
N403 N 0.51838 0.38652 0.24703 0.0
C404 C 0.49379 0.36921 0.20098 0.0
C405 C 0.51523 0.37856 0.17828 0.0
C406 C 0.50972 0.35453 0.32731 0.0
C407 C 0.58951 0.38808 0.42675 0.0
C408 C 0.53875 0.36169 0.41539 0.0
C409 C 0.56857 0.35682 0.43333 0.0
C410 C 0.5941 0.37013 0.43899 0.0
N411 N 0.53441 0.37933 0.40351 0.0
C412 C 0.55933 0.39245 0.40895 0.0
Co413 Co 0.52414 0.11807 0.29717 0.0
Co414 Co 0.55074 0.12427 0.37992 0.0
O415 O 0.52084 0.11286 0.34567 0.0
C416 C 0.45038 0.12618 0.3114 0.0
O417 O 0.46043 0.13592 0.33774 0.0
C418 C 0.55929 0.08391 0.39188 0.0
O419 O 0.56372 0.08199 0.35909 0.0
O420 O 0.59335 0.118 0.35359 0.0
O421 O 0.57559 0.11851 0.29948 0.0
H422 H 0.64781 0.16478 0.42131 0.0
H423 H 0.48249 0.08615 0.32091 0.0
O424 O 0.47257 0.11773 0.29322 0.0
H425 H 0.57227 0.05929 0.24679 0.0
H426 H 0.49053 0.11045 0.1747 0.0
H427 H 0.56636 0.14352 0.2551 0.0
H428 H 0.56923 0.09306 0.25596 0.0
H429 H 0.48756 0.10378 0.23591 0.0
O430 O 0.55396 0.09993 0.40444 0.0
H431 H 0.60974 0.15056 0.37834 0.0
H432 H 0.55516 0.12152 0.45518 0.0
H433 H 0.5704 0.1505 0.19407 0.0
H434 H 0.48439 0.05229 0.31221 0.0
H435 H 0.53229 0.13391 0.15341 0.0
H436 H 0.52961 0.03865 0.27501 0.0
O437 O 0.5227 0.14528 0.30567 0.0
H438 H 0.43477 0.11103 0.4324 0.0
H439 H 0.52449 0.15859 0.41356 0.0
H440 H 0.47138 0.16683 0.44482 0.0
H441 H 0.42608 0.14295 0.45448 0.0
H442 H 0.48816 0.10343 0.40099 0.0
H443 H 0.59281 0.1353 0.49896 0.0
H444 H 0.63945 0.15716 0.48211 0.0
O445 O 0.54787 0.14887 0.35658 0.0
C446 C 0.59932 0.1175 0.3218 0.0
C447 C 0.62752 0.15532 0.42898 0.0
C448 C 0.59668 0.13875 0.47256 0.0
N449 N 0.58012 0.13533 0.41427 0.0
C450 C 0.60583 0.14726 0.40477 0.0
C451 C 0.5755 0.13096 0.44765 0.0
C452 C 0.62283 0.15102 0.46309 0.0
C453 C 0.50203 0.08032 0.30443 0.0
N454 N 0.52565 0.09157 0.28888 0.0
C455 C 0.50307 0.06114 0.29971 0.0
C456 C 0.52848 0.0535 0.27887 0.0
C457 C 0.55244 0.06507 0.26306 0.0
C458 C 0.55065 0.08418 0.26842 0.0
C459 C 0.50731 0.11775 0.19216 0.0
C460 C 0.54983 0.13617 0.23754 0.0
C461 C 0.50569 0.11406 0.22685 0.0
N462 N 0.52693 0.12317 0.24902 0.0
C463 C 0.55217 0.14021 0.20302 0.0
C464 C 0.53076 0.13091 0.18023 0.0
C465 C 0.53492 0.15542 0.32933 0.0
C466 C 0.45435 0.12155 0.42844 0.0
C467 C 0.50486 0.14813 0.41755 0.0
C468 C 0.47487 0.15287 0.43535 0.0
C469 C 0.44948 0.13946 0.44077 0.0
N470 N 0.50949 0.13052 0.40557 0.0
C471 C 0.4847 0.1173 0.41078 0.0
H472 H 0.05791 0.32797 0.13349 0.0
H473 H 0.05319 0.29433 0.13753 0.0
H474 H 0.00073 0.29968 0.23345 0.0
H475 H 0.00485 0.33347 0.22953 0.0
H476 H 0.07824 0.27014 0.18687 0.0
H477 H 0.9347 0.26696 0.17792 0.0
H478 H 0.95901 0.28755 0.16749 0.0
H479 H 0.95113 0.28163 0.21102 0.0
C480 C 0.04528 0.32207 0.15549 0.0
C481 C 0.0315 0.33353 0.18107 0.0
C482 C 0.04269 0.30279 0.15776 0.0
C483 C 0.02618 0.29449 0.18553 0.0
C484 C 0.01299 0.3058 0.21146 0.0
H485 H 0.03818 0.17577 0.23138 0.0
H486 H 0.04184 0.20959 0.23448 0.0
C487 C 0.01555 0.32513 0.20924 0.0
C488 C 0.02294 0.27399 0.18717 0.0
H489 H 0.96396 0.23866 0.18767 0.0
C490 C 0.05327 0.26324 0.18718 0.0
C491 C 0.99032 0.26503 0.18714 0.0
C492 C 0.95688 0.27583 0.1856 0.0
C493 C 0.05187 0.24377 0.18716 0.0
C494 C 0.01926 0.23481 0.18765 0.0
C495 C 0.98893 0.24556 0.18762 0.0
C496 C 0.01606 0.2143 0.18659 0.0
C497 C 0.08531 0.23297 0.18561 0.0
C498 C 0.99946 0.20572 0.15913 0.0
C499 C 0.99713 0.18641 0.15732 0.0
C500 C 0.01126 0.17521 0.18306 0.0
C501 C 0.02721 0.1839 0.21097 0.0
C502 C 0.02951 0.20325 0.21272 0.0
H503 H 0.10742 0.24178 0.17751 0.0
H504 H 0.0913 0.22739 0.21113 0.0
H505 H 0.08304 0.22109 0.16784 0.0
H506 H 0.98875 0.21399 0.13876 0.0
H507 H 0.98448 0.18029 0.13553 0.0
H508 H 0.05447 0.83298 0.79072 0.0
H509 H 0.05757 0.79915 0.78884 0.0
H510 H 0.96839 0.79566 0.85444 0.0
H511 H 0.96615 0.82944 0.85767 0.0
H512 H 0.01489 0.7727 0.87517 0.0
H513 H 0.00192 0.76263 0.73691 0.0
H514 H 0.03805 0.77722 0.747 0.0
H515 H 0.99471 0.78478 0.75687 0.0
C516 C 0.03531 0.825 0.80448 0.0
C517 C 0.00998 0.83392 0.82425 0.0
C518 C 0.03696 0.80563 0.80319 0.0
C519 C 0.01278 0.79476 0.82091 0.0
C520 C 0.98729 0.80368 0.84042 0.0
H521 H 0.98741 0.67541 0.79188 0.0
H522 H 0.9817 0.70919 0.79025 0.0
C523 C 0.98601 0.82303 0.84222 0.0
C524 C 0.01503 0.77413 0.82066 0.0
H525 H 0.02115 0.73634 0.76871 0.0
C526 C 0.01598 0.76477 0.85184 0.0
C527 C 0.0159 0.76366 0.79029 0.0
C528 C 0.0122 0.77258 0.75591 0.0
C529 C 0.01828 0.74537 0.85355 0.0
C530 C 0.02112 0.73498 0.82321 0.0
C531 C 0.01953 0.74428 0.792 0.0
C532 C 0.02535 0.71445 0.82335 0.0
C533 C 0.01675 0.73625 0.88794 0.0
C534 C 0.05226 0.70611 0.84181 0.0
C535 C 0.05522 0.68681 0.84324 0.0
C536 C 0.03187 0.67542 0.82548 0.0
C537 C 0.00584 0.68379 0.80582 0.0
C538 C 0.00253 0.70311 0.80489 0.0
H539 H 0.00338 0.74521 0.90675 0.0
H540 H 0.00307 0.72273 0.88681 0.0
H541 H 0.0435 0.73385 0.89724 0.0
H542 H 0.07095 0.71452 0.85532 0.0
H543 H 0.07586 0.68083 0.85827 0.0
H544 H 0.53979 0.67519 0.73098 0.0
H545 H 0.54339 0.70897 0.73611 0.0
H546 H 0.4892 0.71503 0.64129 0.0
H547 H 0.4851 0.68144 0.63599 0.0
H548 H 0.57496 0.73401 0.69163 0.0
H549 H 0.43486 0.74919 0.70495 0.0
H550 H 0.45253 0.72621 0.7105 0.0
H551 H 0.4449 0.73517 0.66866 0.0
C552 C 0.5284 0.68369 0.7113 0.0
C553 C 0.51208 0.67551 0.6831 0.0
C554 C 0.53053 0.703 0.71429 0.0
C555 C 0.51613 0.71452 0.68934 0.0
C556 C 0.49987 0.70643 0.6612 0.0
H557 H 0.5601 0.82738 0.63457 0.0
H558 H 0.55636 0.79379 0.64028 0.0
C559 C 0.49776 0.68716 0.65813 0.0
C560 C 0.5192 0.735 0.6919 0.0
H561 H 0.47166 0.77494 0.69251 0.0
C562 C 0.55239 0.74297 0.69215 0.0
C563 C 0.48975 0.74666 0.69302 0.0
C564 C 0.45349 0.7389 0.69461 0.0
C565 C 0.55688 0.7623 0.69223 0.0
C566 C 0.52741 0.77396 0.69161 0.0
C567 C 0.49424 0.76599 0.69264 0.0
C568 C 0.5304 0.79443 0.68883 0.0
C569 C 0.59317 0.77007 0.69298 0.0
C570 C 0.51643 0.80601 0.71394 0.0
C571 C 0.51835 0.82532 0.71073 0.0
C572 C 0.53402 0.83342 0.68212 0.0
C573 C 0.54794 0.82171 0.65701 0.0
C574 C 0.54604 0.80245 0.66031 0.0
H575 H 0.61202 0.75982 0.70302 0.0
H576 H 0.60118 0.7737 0.66681 0.0
H577 H 0.59447 0.78281 0.70872 0.0
H578 H 0.50405 0.8001 0.73607 0.0
H579 H 0.50728 0.83386 0.73053 0.0
H580 H 0.48435 0.32834 0.371 0.0
H581 H 0.4892 0.29473 0.36671 0.0
H582 H 0.54298 0.30031 0.27155 0.0
H583 H 0.53871 0.33409 0.27572 0.0
H584 H 0.46516 0.27047 0.31665 0.0
H585 H 0.60859 0.26788 0.32828 0.0
H586 H 0.5838 0.28836 0.33842 0.0
H587 H 0.59239 0.28248 0.295 0.0
C588 C 0.49727 0.32251 0.3491 0.0
C589 C 0.51141 0.33403 0.32383 0.0
C590 C 0.49993 0.30324 0.34668 0.0
C591 C 0.51687 0.29501 0.31907 0.0
C592 C 0.53036 0.30638 0.2934 0.0
H593 H 0.50773 0.1756 0.27656 0.0
H594 H 0.50364 0.20935 0.27175 0.0
C595 C 0.52772 0.3257 0.29576 0.0
C596 C 0.52039 0.27453 0.31747 0.0
H597 H 0.57981 0.23943 0.31902 0.0
C598 C 0.49021 0.26366 0.31698 0.0
C599 C 0.55312 0.2657 0.31832 0.0
C600 C 0.58637 0.27664 0.32033 0.0
C601 C 0.49185 0.2442 0.31747 0.0
C602 C 0.52458 0.23537 0.31799 0.0
C603 C 0.55477 0.24624 0.31832 0.0
C604 C 0.52803 0.2149 0.32005 0.0
C605 C 0.45853 0.23327 0.31855 0.0
C606 C 0.54395 0.20682 0.34836 0.0
C607 C 0.54652 0.18756 0.35115 0.0
C608 C 0.53329 0.17591 0.32558 0.0
C609 C 0.51799 0.18409 0.29686 0.0
C610 C 0.51546 0.20339 0.29411 0.0
H611 H 0.43605 0.24209 0.32561 0.0
H612 H 0.45341 0.22729 0.29314 0.0
H613 H 0.46045 0.22166 0.33692 0.0
H614 H 0.55396 0.21543 0.36861 0.0
H615 H 0.55864 0.18183 0.37356 0.0
H616 H 0.39444 0.1416 0.34396 0.0
H617 H 0.33386 0.14142 0.32515 0.0
H618 H 0.36288 0.11028 0.23628 0.0
H619 H 0.42293 0.11003 0.25502 0.0
H620 H 0.30532 0.15547 0.26611 0.0
H621 H 0.2837 0.07965 0.27404 0.0
H622 H 0.32058 0.09087 0.29328 0.0
H623 H 0.32058 0.08568 0.24868 0.0
C624 C 0.38784 0.13458 0.32057 0.0
C625 C 0.4135 0.12573 0.30114 0.0
C626 C 0.35326 0.13454 0.30982 0.0
C627 C 0.34382 0.1256 0.27957 0.0
C628 C 0.36944 0.11689 0.26007 0.0
H629 H 0.15197 0.14146 0.16495 0.0
H630 H 0.21257 0.14163 0.18374 0.0
C631 C 0.40384 0.11685 0.27082 0.0
C632 C 0.30736 0.12566 0.26781 0.0
H633 H 0.24104 0.09711 0.24443 0.0
C634 C 0.29114 0.14273 0.26153 0.0
C635 C 0.28887 0.10901 0.26213 0.0
C636 C 0.30418 0.09027 0.27019 0.0
C637 C 0.25701 0.1436 0.24928 0.0
C638 C 0.23895 0.12692 0.24251 0.0
C639 C 0.25509 0.10987 0.24918 0.0
C640 C 0.2026 0.12676 0.23037 0.0
C641 C 0.24036 0.16233 0.24443 0.0
C642 C 0.17716 0.11786 0.24976 0.0
C643 C 0.14282 0.11752 0.23893 0.0
C644 C 0.13303 0.12612 0.20841 0.0
C645 C 0.15862 0.13482 0.18867 0.0
C646 C 0.19319 0.13505 0.1995 0.0
H647 H 0.25428 0.17336 0.25862 0.0
H648 H 0.24098 0.166 0.21715 0.0
H649 H 0.2129 0.16215 0.25279 0.0
H650 H 0.18384 0.11131 0.27358 0.0
H651 H 0.12388 0.11066 0.25482 0.0
H652 H 0.65025 0.36834 0.3423 0.0
H653 H 0.71097 0.36874 0.32393 0.0
H654 H 0.68262 0.40098 0.23626 0.0
H655 H 0.62241 0.401 0.25458 0.0
H656 H 0.73951 0.35526 0.26455 0.0
H657 H 0.76216 0.43088 0.27536 0.0
H658 H 0.72506 0.41961 0.29406 0.0
H659 H 0.72526 0.42528 0.24968 0.0
C660 C 0.65703 0.37566 0.31929 0.0
C661 C 0.63149 0.38472 0.30004 0.0
C662 C 0.69168 0.37583 0.30879 0.0
C663 C 0.70136 0.38512 0.27899 0.0
C664 C 0.67589 0.39409 0.25972 0.0
H665 H 0.89206 0.36931 0.16309 0.0
H666 H 0.83168 0.36943 0.18246 0.0
C667 C 0.64139 0.39399 0.27021 0.0
C668 C 0.73786 0.38505 0.26734 0.0
H669 H 0.80457 0.41358 0.24495 0.0
C670 C 0.75386 0.36799 0.26045 0.0
C671 C 0.75659 0.40168 0.26229 0.0
C672 C 0.74154 0.42039 0.27105 0.0
C673 C 0.78797 0.36711 0.24813 0.0
C674 C 0.80624 0.38378 0.2419 0.0
C675 C 0.79037 0.40082 0.24928 0.0
C676 C 0.84247 0.3839 0.22937 0.0
C677 C 0.80432 0.34836 0.24258 0.0
C678 C 0.86831 0.39254 0.2487 0.0
C679 C 0.90257 0.39272 0.23753 0.0
C680 C 0.91183 0.38423 0.20673 0.0
C681 C 0.88582 0.37585 0.18702 0.0
C682 C 0.85137 0.37579 0.19819 0.0
H683 H 0.79044 0.33728 0.25665 0.0
H684 H 0.8033 0.34488 0.21521 0.0
H685 H 0.8319 0.34837 0.25061 0.0
H686 H 0.86203 0.39896 0.27275 0.0
H687 H 0.92186 0.39932 0.25339 0.0
H688 H 0.12366 0.89783 0.75228 0.0
H689 H 0.1836 0.89718 0.73344 0.0
H690 H 0.21319 0.86899 0.82531 0.0
H691 H 0.15261 0.86912 0.84417 0.0
H692 H 0.24045 0.91232 0.76087 0.0
H693 H 0.25566 0.83591 0.75324 0.0
H694 H 0.21402 0.84692 0.7585 0.0
H695 H 0.24251 0.84418 0.79418 0.0
C696 C 0.14279 0.89145 0.76861 0.0
C697 C 0.13325 0.88342 0.79972 0.0
C698 C 0.17713 0.8911 0.75772 0.0
C699 C 0.20281 0.88278 0.77767 0.0
C700 C 0.19363 0.8751 0.80913 0.0
H701 H 0.42276 0.90038 0.75095 0.0
H702 H 0.36275 0.90024 0.76987 0.0
C703 C 0.15907 0.87531 0.81999 0.0
C704 C 0.23916 0.88258 0.76544 0.0
H705 H 0.30625 0.85396 0.74421 0.0
C706 C 0.25482 0.89955 0.75721 0.0
C707 C 0.25765 0.86589 0.7601 0.0
C708 C 0.24155 0.84717 0.76663 0.0
C709 C 0.28856 0.90033 0.7441 0.0
C710 C 0.30749 0.8837 0.73986 0.0
C711 C 0.29174 0.8667 0.7477 0.0
C712 C 0.34391 0.88373 0.72796 0.0
C713 C 0.30335 0.91895 0.73433 0.0
C714 C 0.35346 0.87412 0.69844 0.0
C715 C 0.38801 0.87403 0.68759 0.0
C716 C 0.41355 0.88349 0.70622 0.0
C717 C 0.40378 0.89306 0.7358 0.0
C718 C 0.36939 0.89308 0.74663 0.0
H719 H 0.28259 0.92931 0.72969 0.0
H720 H 0.31978 0.9242 0.75531 0.0
H721 H 0.31963 0.91787 0.71122 0.0
H722 H 0.33416 0.86675 0.68376 0.0
H723 H 0.39469 0.86648 0.66479 0.0
H724 H 0.65143 0.63941 0.66336 0.0
H725 H 0.71205 0.63876 0.68205 0.0
H726 H 0.68193 0.60921 0.7723 0.0
H727 H 0.62185 0.60941 0.75366 0.0
H728 H 0.74122 0.65337 0.7397 0.0
H729 H 0.7601 0.57728 0.73693 0.0
H730 H 0.72348 0.58842 0.71715 0.0
H731 H 0.72352 0.58409 0.76204 0.0
C732 C 0.6578 0.63263 0.68702 0.0
C733 C 0.63181 0.62436 0.70687 0.0
C734 C 0.6924 0.6323 0.6977 0.0
C735 C 0.70156 0.62367 0.72831 0.0
C736 C 0.67561 0.61554 0.74821 0.0
H737 H 0.8923 0.64072 0.84348 0.0
H738 H 0.832 0.64056 0.82391 0.0
C739 C 0.64118 0.61576 0.73753 0.0
C740 C 0.73802 0.62358 0.74012 0.0
H741 H 0.80311 0.59487 0.76604 0.0
C742 C 0.75487 0.64059 0.74527 0.0
C743 C 0.75588 0.60688 0.74707 0.0
C744 C 0.73996 0.58813 0.7402 0.0
C745 C 0.78894 0.64137 0.75771 0.0
C746 C 0.80629 0.62468 0.7659 0.0
C747 C 0.7896 0.60767 0.76024 0.0
C748 C 0.84241 0.62445 0.77873 0.0
C749 C 0.80625 0.66003 0.76129 0.0
C750 C 0.86798 0.61489 0.76054 0.0
C751 C 0.9022 0.61474 0.77185 0.0
C752 C 0.91168 0.62418 0.80166 0.0
C753 C 0.88589 0.63341 0.82033 0.0
C754 C 0.85149 0.63347 0.80903 0.0
H755 H 0.79304 0.67081 0.74591 0.0
H756 H 0.80524 0.66443 0.78821 0.0
H757 H 0.83385 0.65934 0.75348 0.0
H758 H 0.86155 0.60775 0.73721 0.0
H759 H 0.9213 0.60743 0.75683 0.0
H760 H 0.62161 0.89527 0.75005 0.0
H761 H 0.68083 0.89695 0.77067 0.0
H762 H 0.71902 0.89377 0.6682 0.0
H763 H 0.65937 0.89235 0.64695 0.0
H764 H 0.7321 0.87041 0.76185 0.0
H765 H 0.77184 0.93829 0.7078 0.0
H766 H 0.72707 0.93118 0.71056 0.0
H767 H 0.75448 0.92198 0.67783 0.0
C768 C 0.64243 0.89511 0.73168 0.0
C769 C 0.63557 0.89375 0.69671 0.0
C770 C 0.67636 0.89603 0.74362 0.0
C771 C 0.70429 0.89568 0.721 0.0
C772 C 0.69776 0.89441 0.68606 0.0
H773 H 0.92607 0.89287 0.75007 0.0
H774 H 0.86725 0.89386 0.72791 0.0
C775 C 0.66366 0.89351 0.67398 0.0
C776 C 0.74013 0.89585 0.73444 0.0
H777 H 0.81532 0.92078 0.73552 0.0
C778 C 0.75029 0.88145 0.75618 0.0
C779 C 0.76374 0.91026 0.72696 0.0
C780 C 0.75378 0.92641 0.70475 0.0
C781 C 0.78359 0.88094 0.77037 0.0
C782 C 0.80715 0.89541 0.76308 0.0
C783 C 0.79709 0.90977 0.74119 0.0
C784 C 0.84277 0.89555 0.77706 0.0
C785 C 0.79353 0.86472 0.79246 0.0
C786 C 0.84855 0.8965 0.81215 0.0
C787 C 0.88231 0.89593 0.82507 0.0
C788 C 0.91086 0.89449 0.80307 0.0
C789 C 0.90483 0.89397 0.76788 0.0
C790 C 0.87117 0.89455 0.75506 0.0
H791 H 0.77564 0.8528 0.78905 0.0
H792 H 0.82034 0.86005 0.78685 0.0
H793 H 0.79247 0.86901 0.81943 0.0
H794 H 0.82695 0.8976 0.82954 0.0
H795 H 0.88596 0.89641 0.85226 0.0
H796 H 0.38503 0.61689 0.64976 0.0
H797 H 0.32556 0.61616 0.67179 0.0
H798 H 0.36497 0.61414 0.77389 0.0
H799 H 0.42396 0.61508 0.75253 0.0
H800 H 0.29273 0.58941 0.7147 0.0
H801 H 0.29892 0.65875 0.7754 0.0
H802 H 0.33006 0.65116 0.7442 0.0
H803 H 0.33355 0.64349 0.78739 0.0
C804 C 0.38103 0.61625 0.67689 0.0
C805 C 0.40939 0.61614 0.6993 0.0
C806 C 0.34706 0.61584 0.68941 0.0
C807 C 0.34094 0.61543 0.72448 0.0
C808 C 0.36912 0.61485 0.74678 0.0
H809 H 0.15941 0.61512 0.85537 0.0
H810 H 0.21842 0.61363 0.83248 0.0
C811 C 0.40292 0.61528 0.73439 0.0
C812 C 0.30519 0.61553 0.7381 0.0
H813 H 0.25039 0.63997 0.78931 0.0
C814 C 0.28334 0.60051 0.73082 0.0
C815 C 0.29314 0.63 0.75927 0.0
C816 C 0.31499 0.64685 0.76683 0.0
C817 C 0.24991 0.59939 0.74473 0.0
C818 C 0.23794 0.61382 0.76602 0.0
C819 C 0.25976 0.62886 0.7732 0.0
C820 C 0.20232 0.61398 0.77999 0.0
C821 C 0.22793 0.5826 0.73706 0.0
C822 C 0.17385 0.61486 0.75805 0.0
C823 C 0.14026 0.61573 0.77095 0.0
C824 C 0.13433 0.61582 0.80617 0.0
C825 C 0.16297 0.61496 0.82815 0.0
C826 C 0.1967 0.61413 0.81514 0.0
H827 H 0.24388 0.57072 0.72824 0.0
H828 H 0.21295 0.57824 0.75971 0.0
H829 H 0.20926 0.58609 0.71666 0.0
H830 H 0.17764 0.61518 0.73087 0.0
H831 H 0.11898 0.61653 0.75314 0.0
H832 H 0.65967 0.11683 0.35915 0.0
H833 H 0.71923 0.11573 0.3374 0.0
H834 H 0.68028 0.11359 0.23514 0.0
H835 H 0.62121 0.11487 0.2562 0.0
H836 H 0.75162 0.08855 0.29439 0.0
H837 H 0.74715 0.158 0.23412 0.0
H838 H 0.71587 0.15062 0.26532 0.0
H839 H 0.71217 0.14295 0.22213 0.0
C840 C 0.66379 0.11608 0.33204 0.0
C841 C 0.63554 0.11604 0.3095 0.0
C842 C 0.69781 0.11546 0.31968 0.0
C843 C 0.70407 0.1149 0.28465 0.0
C844 C 0.676 0.11439 0.26222 0.0
H845 H 0.88609 0.11436 0.15455 0.0
H846 H 0.82697 0.11286 0.17713 0.0
C847 C 0.64216 0.11503 0.27444 0.0
C848 C 0.73987 0.1148 0.27119 0.0
H849 H 0.79539 0.13899 0.22043 0.0
C850 C 0.76134 0.09962 0.27841 0.0
C851 C 0.75231 0.12922 0.25019 0.0
C852 C 0.73083 0.14621 0.24268 0.0
C853 C 0.79478 0.09831 0.2646 0.0
C854 C 0.80716 0.11271 0.2435 0.0
C855 C 0.78571 0.12791 0.23638 0.0
C856 C 0.84285 0.11271 0.2297 0.0
C857 C 0.81632 0.08136 0.27217 0.0
C858 C 0.87122 0.11326 0.25178 0.0
C859 C 0.90488 0.11412 0.23906 0.0
C860 C 0.91096 0.11454 0.20387 0.0
C861 C 0.88241 0.11394 0.18174 0.0
C862 C 0.84863 0.11311 0.19458 0.0
H863 H 0.80002 0.06954 0.28061 0.0
H864 H 0.83144 0.077 0.24959 0.0
H865 H 0.83484 0.08463 0.29282 0.0
H866 H 0.86732 0.11339 0.27895 0.0
H867 H 0.92609 0.11471 0.25698 0.0
H868 H 0.11945 0.39295 0.25266 0.0
H869 H 0.17832 0.39449 0.27422 0.0
H870 H 0.21796 0.39474 0.17212 0.0
H871 H 0.15864 0.39344 0.14993 0.0
H872 H 0.23101 0.36889 0.26359 0.0
H873 H 0.26802 0.43879 0.2168 0.0
H874 H 0.22359 0.43099 0.21832 0.0
H875 H 0.25178 0.42319 0.18503 0.0
C876 C 0.14051 0.39349 0.23457 0.0
C877 C 0.13415 0.39316 0.19942 0.0
C878 C 0.17424 0.39434 0.24706 0.0
C879 C 0.20247 0.39494 0.22483 0.0
C880 C 0.19645 0.39463 0.18972 0.0
H881 H 0.42366 0.39402 0.25342 0.0
H882 H 0.36461 0.39495 0.2321 0.0
C883 C 0.16255 0.3938 0.17709 0.0
C884 C 0.23813 0.39518 0.23876 0.0
H885 H 0.31213 0.42101 0.24297 0.0
C886 C 0.24874 0.38031 0.25919 0.0
C887 C 0.2611 0.41012 0.233 0.0
C888 C 0.25058 0.42678 0.21234 0.0
C889 C 0.28196 0.3798 0.2736 0.0
C890 C 0.30494 0.39474 0.26788 0.0
C891 C 0.29435 0.40962 0.24744 0.0
C892 C 0.34068 0.39478 0.28161 0.0
C893 C 0.29249 0.36307 0.29409 0.0
C894 C 0.34688 0.39466 0.31668 0.0
C895 C 0.38085 0.3941 0.32915 0.0
C896 C 0.40915 0.39375 0.3067 0.0
C897 C 0.40264 0.39426 0.27159 0.0
C898 C 0.36883 0.39482 0.25924 0.0
H899 H 0.27495 0.3511 0.28965 0.0
H900 H 0.31941 0.35881 0.28794 0.0
H901 H 0.29145 0.3666 0.32144 0.0
H902 H 0.32546 0.39494 0.33439 0.0
H903 H 0.38487 0.39377 0.3563 0.0
H904 H 0.03006 0.05084 0.12372 0.0
H905 H 0.03188 0.02508 0.08328 0.0
H906 H 0.94796 0.05001 0.02707 0.0
H907 H 0.94859 0.07655 0.06568 0.0
H908 H 0.99354 0.99947 0.06642 0.0
H909 H 0.00787 0.04084 0.94995 0.0
H910 H 0.01005 0.05127 0.99131 0.0
H911 H 0.96871 0.04727 0.97112 0.0
C912 C 0.01221 0.0508 0.10254 0.0
C913 C 0.98942 0.06568 0.09752 0.0
C914 C 0.01319 0.03607 0.0794 0.0
C915 C 0.99072 0.03569 0.05128 0.0
C916 C 0.96673 0.05024 0.04742 0.0
H917 H 0.95133 0.93137 0.94485 0.0
H918 H 0.95072 0.95781 0.98363 0.0
C919 C 0.9667 0.0653 0.06979 0.0
C920 C 0.99188 0.01992 0.02665 0.0
H921 H 0.99002 0.00932 0.94226 0.0
C922 C 0.99321 1.0017 0.03926 0.0
C923 C 0.99229 0.02259 0.99104 0.0
C924 C 0.99508 0.04156 0.97513 0.0
C925 C 0.99452 0.98625 0.01757 0.0
C926 C 0.99212 0.98889 0.98203 0.0
C927 C 0.99125 0.0071 0.96941 0.0
C928 C 0.99104 0.97308 0.95746 0.0
C929 C 0.99975 0.96737 0.03327 0.0
C930 C 0.0121 0.97322 0.9283 0.0
C931 C 0.01109 0.9585 0.90516 0.0
C932 C 0.98969 0.94312 0.91114 0.0
C933 C 0.96841 0.94299 0.93996 0.0
C934 C 0.96843 0.95801 0.9624 0.0
H935 H 0.01372 0.96843 0.05781 0.0
H936 H 0.97413 0.96102 0.03854 0.0
H937 H 0.0147 0.95803 0.01637 0.0
H938 H 0.02969 0.98462 0.92358 0.0
H939 H 0.02781 0.95888 0.88312 0.0
H940 H 0.05763 0.58352 0.96064 0.0
H941 H 0.05892 0.55687 0.99876 0.0
H942 H 0.06293 0.51997 0.91286 0.0
H943 H 0.06235 0.5466 0.87447 0.0
H944 H 0.01351 0.5283 0.00517 0.0
H945 H 0.14282 0.50104 0.96955 0.0
H946 H 0.1281 0.52378 0.95708 0.0
H947 H 0.11393 0.50356 0.93424 0.0
C948 C 0.05898 0.56975 0.94978 0.0
C949 C 0.06013 0.56723 0.91443 0.0
C950 C 0.05968 0.55451 0.97166 0.0
C951 C 0.06161 0.5364 0.95877 0.0
C952 C 0.06232 0.53381 0.92348 0.0
H953 H 0.05586 0.42655 0.0475 0.0
H954 H 0.05648 0.45357 0.01018 0.0
C955 C 0.06178 0.54907 0.90153 0.0
C956 C 0.0619 0.52028 0.9823 0.0
H957 H 0.10823 0.48183 0.00493 0.0
C958 C 0.03434 0.51821 0.00525 0.0
C959 C 0.08911 0.5071 0.98247 0.0
C960 C 0.12034 0.50903 0.95976 0.0
C961 C 0.03288 0.50316 0.02782 0.0
C962 C 0.05991 0.48992 0.02775 0.0
C963 C 0.08751 0.49199 0.00491 0.0
C964 C 0.05971 0.47363 0.05079 0.0
C965 C 0.00202 0.50129 0.05103 0.0
C966 C 0.06172 0.47591 0.08608 0.0
C967 C 0.06146 0.46046 0.10758 0.0
C968 C 0.05922 0.44242 0.09416 0.0
C969 C 0.0575 0.44022 0.05876 0.0
C970 C 0.05791 0.45565 0.03733 0.0
H971 H 0.98009 0.5102 0.04286 0.0
H972 H 0.99301 0.48668 0.05209 0.0
H973 H 0.0096 0.50553 0.07702 0.0
H974 H 0.06365 0.48965 0.09699 0.0
H975 H 0.06288 0.46267 0.13468 0.0
H976 H 0.4816 0.46302 0.37327 0.0
H977 H 0.48181 0.48972 0.41171 0.0
H978 H 0.48686 0.45284 0.49748 0.0
H979 H 0.48733 0.42618 0.45941 0.0
H980 H 0.43623 0.49954 0.46211 0.0
H981 H 0.56659 0.48771 0.51691 0.0
H982 H 0.55168 0.47583 0.47941 0.0
H983 H 0.53846 0.46803 0.52072 0.0
C984 C 0.48284 0.46059 0.40031 0.0
C985 C 0.48465 0.44244 0.4132 0.0
C986 C 0.48296 0.47587 0.42226 0.0
C987 C 0.485 0.47332 0.45749 0.0
C988 C 0.48617 0.45521 0.4704 0.0
H989 H 0.48146 0.5468 0.63295 0.0
H990 H 0.48043 0.52008 0.59449 0.0
C991 C 0.48621 0.43995 0.44854 0.0
C992 C 0.48518 0.48955 0.48082 0.0
H993 H 0.53147 0.51035 0.54419 0.0
C994 C 0.45716 0.50196 0.47991 0.0
C995 C 0.51248 0.49271 0.50411 0.0
C996 C 0.54417 0.48048 0.5052 0.0
C997 C 0.45539 0.51722 0.50202 0.0
C998 C 0.48255 0.52028 0.52543 0.0
C999 C 0.51058 0.50791 0.52636 0.0
C1000 C 0.48272 0.53649 0.5487 0.0
C1001 C 0.42415 0.52976 0.50062 0.0
C1002 C 0.48475 0.55456 0.53573 0.0
C1003 C 0.48546 0.56982 0.55758 0.0
C1004 C 0.48417 0.56735 0.59294 0.0
C1005 C 0.48229 0.54921 0.60588 0.0
C1006 C 0.48176 0.53392 0.58395 0.0
H1007 H 0.40207 0.52312 0.48724 0.0
H1008 H 0.41567 0.53373 0.52651 0.0
H1009 H 0.43103 0.54263 0.48676 0.0
H1010 H 0.48613 0.55685 0.50865 0.0
H1011 H 0.48706 0.58357 0.54669 0.0
H1012 H 0.56201 0.962 0.63181 0.0
H1013 H 0.56186 0.98884 0.5938 0.0
H1014 H 0.55705 0.9523 0.50743 0.0
H1015 H 0.5565 0.92548 0.54511 0.0
H1016 H 0.60754 0.99888 0.54392 0.0
H1017 H 0.47753 0.98725 0.48814 0.0
H1018 H 0.49225 0.97516 0.52546 0.0
H1019 H 0.50575 0.96762 0.48406 0.0
C1020 C 0.56083 0.95967 0.60472 0.0
C1021 C 0.55907 0.94157 0.59155 0.0
C1022 C 0.56074 0.97503 0.58302 0.0
C1023 C 0.5588 0.97262 0.54775 0.0
C1024 C 0.55766 0.95456 0.53455 0.0
H1025 H 0.56304 0.04718 0.37405 0.0
H1026 H 0.5639 0.02023 0.41186 0.0
C1027 C 0.55757 0.93921 0.55618 0.0
C1028 C 0.55873 0.98895 0.52472 0.0
H1029 H 0.5127 0.01011 0.46163 0.0
C1030 C 0.5867 1.00139 0.52607 0.0
C1031 C 0.53155 0.99223 0.50137 0.0
C1032 C 0.49991 0.97997 0.49981 0.0
C1033 C 0.58852 0.0168 0.50436 0.0
C1034 C 0.56146 0.01999 0.4809 0.0
C1035 C 0.53351 0.00758 0.47951 0.0
C1036 C 0.56136 0.03634 0.45803 0.0
C1037 C 0.6197 0.02938 0.50624 0.0
C1038 C 0.55924 0.05433 0.47142 0.0
C1039 C 0.55864 0.06973 0.44994 0.0
C1040 C 0.56013 0.06748 0.41454 0.0
C1041 C 0.56207 0.04942 0.40117 0.0
C1042 C 0.5625 0.034 0.42273 0.0
H1043 H 0.64174 0.02267 0.51954 0.0
H1044 H 0.62829 0.03354 0.4805 0.0
H1045 H 0.61269 0.04213 0.52041 0.0
H1046 H 0.55773 0.05645 0.49855 0.0
H1047 H 0.55699 0.08341 0.46114 0.0
loop_
_geom_bond_atom_site_label_1
_geom_bond_atom_site_label_2
_geom_bond_distance
_geom_bond_site_symmetry_2
_ccdc_geom_bond_type
Co0 O2 2.143 . S
Co0 O8 2.074 1_455 S
Co0 O11 2.093 . S
Co0 O24 2.097 . S
Co0 N41 2.151 . S
Co0 N49 2.214 . S
Co1 O2 2.160 1_655 S
Co1 O7 2.058 . S
Co1 O17 2.057 1_655 S
Co1 O32 2.037 1_655 S
Co1 N36 2.145 . S
Co1 N57 2.257 1_655 S
O2 Co0 2.143 . S
O2 Co1 2.160 1_455 S
C3 O4 1.278 . S
C3 O11 1.224 . S
O4 C3 1.278 . S
C5 O6 1.245 . S
C5 O17 1.232 . S
O6 C5 1.245 . S
O7 Co1 2.058 . S
O7 C33 1.269 . S
O8 Co0 2.074 1_655 S
O8 C33 1.257 . S
H9 C34 0.930 . S
H10 C40 0.930 . S
O11 Co0 2.093 . S
O11 C3 1.224 . S
H12 C44 0.929 1_655 S
H13 C46 0.930 . S
H14 C47 0.931 1_655 S
H15 C45 0.929 1_655 S
H16 C48 0.928 . S
O17 Co1 2.057 1_455 S
O17 C5 1.232 . S
H18 C37 0.929 . S
H19 C38 0.929 . S
H20 C50 0.931 . S
H21 C42 0.929 . S
H22 C51 0.930 . S
H23 C43 0.931 . S
O24 Co0 2.097 . S
O24 C52 1.214 . S
H25 C53 0.929 . S
H26 C54 0.929 . S
H27 C55 0.930 . S
H28 C56 0.929 . S
H29 C58 0.930 . S
H30 C35 0.930 . S
H31 C39 0.930 . S
O32 Co1 2.037 1_455 S
O32 C52 1.234 . S
C33 O7 1.269 . S
C33 O8 1.257 . S
C34 H9 0.930 . S
C34 C37 1.388 . S
C34 C39 1.418 . S
C35 H30 0.930 . S
C35 C38 1.404 . S
C35 C39 1.353 . S
N36 Co1 2.145 . S
N36 C37 1.397 . S
N36 C38 1.334 . S
C37 H18 0.929 . S
C37 C34 1.388 . S
C37 N36 1.397 . S
C38 H19 0.929 . S
C38 C35 1.404 . S
C38 N36 1.334 . S
C39 H31 0.930 . S
C39 C34 1.418 . S
C39 C35 1.353 . S
C40 H10 0.930 . S
C40 N41 1.330 . S
C40 C42 1.446 . S
N41 Co0 2.151 . S
N41 C40 1.330 . S
N41 C45 1.418 . S
C42 H21 0.929 . S
C42 C40 1.446 . S
C42 C43 1.332 . S
C43 H23 0.931 . S
C43 C42 1.332 . S
C43 C44 1.267 . S
C44 H12 0.929 1_455 S
C44 C43 1.267 . S
C44 C45 1.251 . S
C45 H15 0.929 1_455 S
C45 N41 1.418 . S
C45 C44 1.251 . S
C46 H13 0.930 . S
C46 C48 1.406 . S
C46 C51 1.261 . S
C47 H14 0.931 1_455 S
C47 N49 1.323 . S
C47 C50 1.358 1_455 S
C48 H16 0.928 . S
C48 C46 1.406 . S
C48 N49 1.261 . S
N49 Co0 2.214 . S
N49 C47 1.323 . S
N49 C48 1.261 . S
C50 H20 0.931 . S
C50 C47 1.358 1_655 S
C50 C51 1.312 1_655 S
C51 H22 0.930 . S
C51 C46 1.261 . S
C51 C50 1.312 1_455 S
C52 O24 1.214 . S
C52 O32 1.234 . S
C53 H25 0.929 . S
C53 C56 1.391 . S
C53 C58 1.391 . S
C54 H26 0.929 . S
C54 C55 1.390 . S
C54 N57 1.391 . S
C55 H27 0.930 . S
C55 C54 1.390 . S
C55 C56 1.392 . S
C56 H28 0.929 . S
C56 C53 1.391 . S
C56 C55 1.392 . S
N57 Co1 2.257 1_455 S
N57 C54 1.391 . S
N57 C58 1.388 . S
C58 H29 0.930 . S
C58 C53 1.391 . S
C58 N57 1.388 . S
Co59 O61 2.143 . S
Co59 O67 2.074 . S
Co59 O70 2.093 1_455 S
Co59 O83 2.097 . S
Co59 N100 2.151 . S
Co59 N108 2.214 . S
Co60 O61 2.160 . S
Co60 O66 2.058 . S
Co60 O76 2.057 . S
Co60 O91 2.037 . S
Co60 N95 2.145 . S
Co60 N116 2.252 1_455 S
O61 Co59 2.143 . S
O61 Co60 2.160 . S
C62 O63 1.278 . S
C62 O70 1.224 . S
O63 C62 1.278 . S
C64 O65 1.245 . S
C64 O76 1.232 . S
O65 C64 1.245 . S
O66 Co60 2.058 . S
O66 C92 1.269 . S
O67 Co59 2.074 . S
O67 C92 1.257 . S
H68 C93 0.930 . S
H69 C99 0.930 . S
O70 Co59 2.093 1_655 S
O70 C62 1.224 . S
H71 C103 0.929 . S
H72 C105 0.946 . S
H73 C106 0.930 . S
H74 C104 0.929 . S
H75 C107 0.928 1_655 S
O76 Co60 2.057 . S
O76 C64 1.232 . S
H77 C96 0.929 . S
H78 C97 0.929 . S
H79 C109 0.931 . S
H80 C101 0.929 . S
H81 C110 0.930 . S
H82 C102 0.931 . S
O83 Co59 2.097 . S
O83 C111 1.214 . S
H84 C112 0.929 . S
H85 C113 0.929 1_455 S
H86 C114 0.930 . S
H87 C115 0.929 . S
H88 C117 0.930 . S
H89 C94 0.930 . S
H90 C98 0.930 . S
O91 Co60 2.037 . S
O91 C111 1.234 . S
C92 O66 1.269 . S
C92 O67 1.257 . S
C93 H68 0.930 . S
C93 C96 1.388 . S
C93 C98 1.418 . S
C94 H89 0.930 . S
C94 C97 1.404 . S
C94 C98 1.353 . S
N95 Co60 2.145 . S
N95 C96 1.397 . S
N95 C97 1.334 . S
C96 H77 0.929 . S
C96 C93 1.388 . S
C96 N95 1.397 . S
C97 H78 0.929 . S
C97 C94 1.404 . S
C97 N95 1.334 . S
C98 H90 0.930 . S
C98 C93 1.418 . S
C98 C94 1.353 . S
C99 H69 0.930 . S
C99 N100 1.330 1_655 S
C99 C101 1.446 . S
N100 Co59 2.151 . S
N100 C99 1.330 1_455 S
N100 C104 1.418 . S
C101 H80 0.929 . S
C101 C99 1.446 . S
C101 C102 1.332 1_655 S
C102 H82 0.931 . S
C102 C101 1.332 1_455 S
C102 C103 1.267 . S
C103 H71 0.929 . S
C103 C102 1.267 . S
C103 C104 1.251 . S
C104 H74 0.929 . S
C104 N100 1.418 . S
C104 C103 1.251 . S
C105 H72 0.946 . S
C105 C107 1.406 . S
C105 C110 1.261 . S
C106 H73 0.930 . S
C106 N108 1.325 . S
C106 C109 1.357 . S
C107 H75 0.928 1_455 S
C107 C105 1.406 . S
C107 N108 1.261 . S
N108 Co59 2.214 . S
N108 C106 1.325 . S
N108 C107 1.261 . S
C109 H79 0.931 . S
C109 C106 1.357 . S
C109 C110 1.312 . S
C110 H81 0.930 . S
C110 C105 1.261 . S
C110 C109 1.312 . S
C111 O83 1.214 . S
C111 O91 1.234 . S
C112 H84 0.929 . S
C112 C115 1.391 . S
C112 C117 1.391 . S
C113 H85 0.929 1_655 S
C113 C114 1.390 . S
C113 N116 1.392 . S
C114 H86 0.930 . S
C114 C113 1.390 . S
C114 C115 1.392 . S
C115 H87 0.929 . S
C115 C112 1.391 . S
C115 C114 1.392 . S
N116 Co60 2.252 1_655 S
N116 C113 1.392 . S
N116 C117 1.393 . S
C117 H88 0.930 . S
C117 C112 1.391 . S
C117 N116 1.393 . S
Co118 O120 2.143 . S
Co118 O126 2.074 1_455 S
Co118 O129 2.093 . S
Co118 O142 2.097 . S
Co118 N159 2.151 . S
Co118 N167 2.214 . S
Co119 O120 2.160 1_655 S
Co119 O125 2.058 . S
Co119 O135 2.057 1_655 S
Co119 O150 2.037 1_655 S
Co119 N154 2.145 . S
Co119 N175 2.257 1_655 S
O120 Co118 2.143 . S
O120 Co119 2.160 1_455 S
C121 O122 1.278 . S
C121 O129 1.224 . S
O122 C121 1.278 . S
C123 O124 1.245 . S
C123 O135 1.232 . S
O124 C123 1.245 . S
O125 Co119 2.058 . S
O125 C151 1.269 . S
O126 Co118 2.074 1_655 S
O126 C151 1.257 . S
H127 C152 0.930 . S
H128 C158 0.930 . S
O129 Co118 2.093 . S
O129 C121 1.224 . S
H130 C162 0.929 1_655 S
H131 C164 0.930 . S
H132 C165 0.931 1_655 S
H133 C163 0.929 1_655 S
H134 C166 0.928 . S
O135 Co119 2.057 1_455 S
O135 C123 1.232 . S
H136 C155 0.929 . S
H137 C156 0.929 . S
H138 C168 0.931 . S
H139 C160 0.929 . S
H140 C169 0.930 . S
H141 C161 0.931 . S
O142 Co118 2.097 . S
O142 C170 1.214 . S
H143 C171 0.929 . S
H144 C172 0.929 . S
H145 C173 0.930 . S
H146 C174 0.929 . S
H147 C176 0.930 . S
H148 C153 0.930 . S
H149 C157 0.930 . S
O150 Co119 2.037 1_455 S
O150 C170 1.234 . S
C151 O125 1.269 . S
C151 O126 1.257 . S
C152 H127 0.930 . S
C152 C155 1.388 . S
C152 C157 1.418 . S
C153 H148 0.930 . S
C153 C156 1.404 . S
C153 C157 1.353 . S
N154 Co119 2.145 . S
N154 C155 1.397 . S
N154 C156 1.334 . S
C155 H136 0.929 . S
C155 C152 1.388 . S
C155 N154 1.397 . S
C156 H137 0.929 . S
C156 C153 1.404 . S
C156 N154 1.334 . S
C157 H149 0.930 . S
C157 C152 1.418 . S
C157 C153 1.353 . S
C158 H128 0.930 . S
C158 N159 1.330 . S
C158 C160 1.446 . S
N159 Co118 2.151 . S
N159 C158 1.330 . S
N159 C163 1.418 . S
C160 H139 0.929 . S
C160 C158 1.446 . S
C160 C161 1.332 . S
C161 H141 0.931 . S
C161 C160 1.332 . S
C161 C162 1.267 . S
C162 H130 0.929 1_455 S
C162 C161 1.267 . S
C162 C163 1.251 . S
C163 H133 0.929 1_455 S
C163 N159 1.418 . S
C163 C162 1.251 . S
C164 H131 0.930 . S
C164 C166 1.406 . S
C164 C169 1.261 . S
C165 H132 0.931 1_455 S
C165 N167 1.323 . S
C165 C168 1.358 1_455 S
C166 H134 0.928 . S
C166 C164 1.406 . S
C166 N167 1.261 . S
N167 Co118 2.214 . S
N167 C165 1.323 . S
N167 C166 1.261 . S
C168 H138 0.931 . S
C168 C165 1.358 1_655 S
C168 C169 1.312 1_655 S
C169 H140 0.930 . S
C169 C164 1.261 . S
C169 C168 1.312 1_455 S
C170 O142 1.214 . S
C170 O150 1.234 . S
C171 H143 0.929 . S
C171 C174 1.391 . S
C171 C176 1.391 . S
C172 H144 0.929 . S
C172 C173 1.390 . S
C172 N175 1.391 . S
C173 H145 0.930 . S
C173 C172 1.390 . S
C173 C174 1.392 . S
C174 H146 0.929 . S
C174 C171 1.391 . S
C174 C173 1.392 . S
N175 Co119 2.257 1_455 S
N175 C172 1.391 . S
N175 C176 1.388 . S
C176 H147 0.930 . S
C176 C171 1.391 . S
C176 N175 1.388 . S
Co177 O179 2.143 . S
Co177 O185 2.074 . S
Co177 O188 2.093 1_455 S
Co177 O201 2.097 . S
Co177 N218 2.151 . S
Co177 N226 2.214 . S
Co178 O179 2.160 . S
Co178 O184 2.058 . S
Co178 O194 2.057 . S
Co178 O209 2.037 . S
Co178 N213 2.145 . S
Co178 N234 2.252 1_455 S
O179 Co177 2.143 . S
O179 Co178 2.160 . S
C180 O181 1.278 . S
C180 O188 1.224 . S
O181 C180 1.278 . S
C182 O183 1.245 . S
C182 O194 1.232 . S
O183 C182 1.245 . S
O184 Co178 2.058 . S
O184 C210 1.269 . S
O185 Co177 2.074 . S
O185 C210 1.257 . S
H186 C211 0.930 . S
H187 C217 0.930 . S
O188 Co177 2.093 1_655 S
O188 C180 1.224 . S
H189 C221 0.929 . S
H190 C223 0.946 . S
H191 C224 0.930 . S
H192 C222 0.929 . S
H193 C225 0.928 1_655 S
O194 Co178 2.057 . S
O194 C182 1.232 . S
H195 C214 0.929 . S
H196 C215 0.929 . S
H197 C227 0.931 . S
H198 C219 0.929 . S
H199 C228 0.930 . S
H200 C220 0.931 . S
O201 Co177 2.097 . S
O201 C229 1.214 . S
H202 C230 0.929 . S
H203 C231 0.929 1_455 S
H204 C232 0.930 . S
H205 C233 0.929 . S
H206 C235 0.930 . S
H207 C212 0.930 . S
H208 C216 0.930 . S
O209 Co178 2.037 . S
O209 C229 1.234 . S
C210 O184 1.269 . S
C210 O185 1.257 . S
C211 H186 0.930 . S
C211 C214 1.388 . S
C211 C216 1.418 . S
C212 H207 0.930 . S
C212 C215 1.404 . S
C212 C216 1.353 . S
N213 Co178 2.145 . S
N213 C214 1.397 . S
N213 C215 1.334 . S
C214 H195 0.929 . S
C214 C211 1.388 . S
C214 N213 1.397 . S
C215 H196 0.929 . S
C215 C212 1.404 . S
C215 N213 1.334 . S
C216 H208 0.930 . S
C216 C211 1.418 . S
C216 C212 1.353 . S
C217 H187 0.930 . S
C217 N218 1.330 1_655 S
C217 C219 1.446 . S
N218 Co177 2.151 . S
N218 C217 1.330 1_455 S
N218 C222 1.418 . S
C219 H198 0.929 . S
C219 C217 1.446 . S
C219 C220 1.332 1_655 S
C220 H200 0.931 . S
C220 C219 1.332 1_455 S
C220 C221 1.267 . S
C221 H189 0.929 . S
C221 C220 1.267 . S
C221 C222 1.251 . S
C222 H192 0.929 . S
C222 N218 1.418 . S
C222 C221 1.251 . S
C223 H190 0.946 . S
C223 C225 1.406 . S
C223 C228 1.261 . S
C224 H191 0.930 . S
C224 N226 1.325 . S
C224 C227 1.357 . S
C225 H193 0.928 1_455 S
C225 C223 1.406 . S
C225 N226 1.261 . S
N226 Co177 2.214 . S
N226 C224 1.325 . S
N226 C225 1.261 . S
C227 H197 0.931 . S
C227 C224 1.357 . S
C227 C228 1.312 . S
C228 H199 0.930 . S
C228 C223 1.261 . S
C228 C227 1.312 . S
C229 O201 1.214 . S
C229 O209 1.234 . S
C230 H202 0.929 . S
C230 C233 1.391 . S
C230 C235 1.391 . S
C231 H203 0.929 1_655 S
C231 C232 1.390 . S
C231 N234 1.392 . S
C232 H204 0.930 . S
C232 C231 1.390 . S
C232 C233 1.392 . S
C233 H205 0.929 . S
C233 C230 1.391 . S
C233 C232 1.392 . S
N234 Co178 2.252 1_655 S
N234 C231 1.392 . S
N234 C235 1.393 . S
C235 H206 0.930 . S
C235 C230 1.391 . S
C235 N234 1.393 . S
Co236 O238 2.143 . S
Co236 O244 2.074 . S
Co236 O247 2.093 . S
Co236 O260 2.097 . S
Co236 N277 2.151 . S
Co236 N285 2.214 . S
Co237 O238 2.160 . S
Co237 O243 2.058 . S
Co237 O253 2.057 . S
Co237 O268 2.037 . S
Co237 N272 2.145 . S
Co237 N293 2.257 . S
O238 Co236 2.143 . S
O238 Co237 2.160 . S
C239 O240 1.278 . S
C239 O247 1.224 . S
O240 C239 1.278 . S
C241 O242 1.245 . S
C241 O253 1.232 . S
O242 C241 1.245 . S
O243 Co237 2.058 . S
O243 C269 1.269 . S
O244 Co236 2.074 . S
O244 C269 1.257 . S
H245 C270 0.930 . S
H246 C276 0.930 . S
O247 Co236 2.093 . S
O247 C239 1.224 . S
H248 C280 0.929 . S
H249 C282 0.930 . S
H250 C283 0.930 . S
H251 C281 0.929 . S
H252 C284 0.928 . S
O253 Co237 2.057 . S
O253 C241 1.232 . S
H254 C273 0.929 . S
H255 C274 0.929 . S
H256 C286 0.931 . S
H257 C278 0.929 . S
H258 C287 0.930 . S
H259 C279 0.931 . S
O260 Co236 2.097 . S
O260 C288 1.214 . S
H261 C289 0.929 . S
H262 C290 0.929 . S
H263 C291 0.930 . S
H264 C292 0.929 . S
H265 C294 0.930 . S
H266 C271 0.930 . S
H267 C275 0.930 . S
O268 Co237 2.037 . S
O268 C288 1.234 . S
C269 O243 1.269 . S
C269 O244 1.257 . S
C270 H245 0.930 . S
C270 C273 1.388 . S
C270 C275 1.418 . S
C271 H266 0.930 . S
C271 C274 1.404 . S
C271 C275 1.353 . S
N272 Co237 2.145 . S
N272 C273 1.397 . S
N272 C274 1.334 . S
C273 H254 0.929 . S
C273 C270 1.388 . S
C273 N272 1.397 . S
C274 H255 0.929 . S
C274 C271 1.404 . S
C274 N272 1.334 . S
C275 H267 0.930 . S
C275 C270 1.418 . S
C275 C271 1.353 . S
C276 H246 0.930 . S
C276 N277 1.330 . S
C276 C278 1.446 . S
N277 Co236 2.151 . S
N277 C276 1.330 . S
N277 C281 1.418 . S
C278 H257 0.929 . S
C278 C276 1.446 . S
C278 C279 1.332 . S
C279 H259 0.931 . S
C279 C278 1.332 . S
C279 C280 1.267 . S
C280 H248 0.929 . S
C280 C279 1.267 . S
C280 C281 1.251 . S
C281 H251 0.929 . S
C281 N277 1.418 . S
C281 C280 1.251 . S
C282 H249 0.930 . S
C282 C284 1.406 . S
C282 C287 1.261 . S
C283 H250 0.930 . S
C283 N285 1.325 . S
C283 C286 1.357 . S
C284 H252 0.928 . S
C284 C282 1.406 . S
C284 N285 1.261 . S
N285 Co236 2.214 . S
N285 C283 1.325 . S
N285 C284 1.261 . S
C286 H256 0.931 . S
C286 C283 1.357 . S
C286 C287 1.312 . S
C287 H258 0.930 . S
C287 C282 1.261 . S
C287 C286 1.312 . S
C288 O260 1.214 . S
C288 O268 1.234 . S
C289 H261 0.929 . S
C289 C292 1.391 . S
C289 C294 1.391 . S
C290 H262 0.929 . S
C290 C291 1.390 . S
C290 N293 1.391 . S
C291 H263 0.930 . S
C291 C290 1.390 . S
C291 C292 1.392 . S
C292 H264 0.929 . S
C292 C289 1.391 . S
C292 C291 1.392 . S
N293 Co237 2.257 . S
N293 C290 1.391 . S
N293 C294 1.388 . S
C294 H265 0.930 . S
C294 C289 1.391 . S
C294 N293 1.388 . S
Co295 O297 2.143 . S
Co295 O303 2.074 . S
Co295 O306 2.093 . S
Co295 O319 2.097 . S
Co295 N336 2.151 . S
Co295 N344 2.214 . S
Co296 O297 2.160 . S
Co296 O302 2.058 . S
Co296 O312 2.057 . S
Co296 O327 2.037 . S
Co296 N331 2.145 . S
Co296 N352 2.257 . S
O297 Co295 2.143 . S
O297 Co296 2.160 . S
C298 O299 1.278 . S
C298 O306 1.224 . S
O299 C298 1.278 . S
C300 O301 1.245 . S
C300 O312 1.232 . S
O301 C300 1.245 . S
O302 Co296 2.058 . S
O302 C328 1.269 . S
O303 Co295 2.074 . S
O303 C328 1.257 . S
H304 C329 0.930 . S
H305 C335 0.930 . S
O306 Co295 2.093 . S
O306 C298 1.224 . S
H307 C339 0.929 . S
H308 C341 0.930 . S
H309 C342 0.930 . S
H310 C340 0.929 . S
H311 C343 0.928 . S
O312 Co296 2.057 . S
O312 C300 1.232 . S
H313 C332 0.929 . S
H314 C333 0.929 . S
H315 C345 0.931 . S
H316 C337 0.929 . S
H317 C346 0.930 . S
H318 C338 0.931 . S
O319 Co295 2.097 . S
O319 C347 1.214 . S
H320 C348 0.929 . S
H321 C349 0.929 . S
H322 C350 0.930 . S
H323 C351 0.929 . S
H324 C353 0.930 . S
H325 C330 0.930 . S
H326 C334 0.930 . S
O327 Co296 2.037 . S
O327 C347 1.234 . S
C328 O302 1.269 . S
C328 O303 1.257 . S
C329 H304 0.930 . S
C329 C332 1.388 . S
C329 C334 1.418 . S
C330 H325 0.930 . S
C330 C333 1.404 . S
C330 C334 1.353 . S
N331 Co296 2.145 . S
N331 C332 1.397 . S
N331 C333 1.334 . S
C332 H313 0.929 . S
C332 C329 1.388 . S
C332 N331 1.397 . S
C333 H314 0.929 . S
C333 C330 1.404 . S
C333 N331 1.334 . S
C334 H326 0.930 . S
C334 C329 1.418 . S
C334 C330 1.353 . S
C335 H305 0.930 . S
C335 N336 1.330 . S
C335 C337 1.446 . S
N336 Co295 2.151 . S
N336 C335 1.330 . S
N336 C340 1.418 . S
C337 H316 0.929 . S
C337 C335 1.446 . S
C337 C338 1.332 . S
C338 H318 0.931 . S
C338 C337 1.332 . S
C338 C339 1.267 . S
C339 H307 0.929 . S
C339 C338 1.267 . S
C339 C340 1.251 . S
C340 H310 0.929 . S
C340 N336 1.418 . S
C340 C339 1.251 . S
C341 H308 0.930 . S
C341 C343 1.406 . S
C341 C346 1.261 . S
C342 H309 0.930 . S
C342 N344 1.325 . S
C342 C345 1.357 . S
C343 H311 0.928 . S
C343 C341 1.406 . S
C343 N344 1.261 . S
N344 Co295 2.214 . S
N344 C342 1.325 . S
N344 C343 1.261 . S
C345 H315 0.931 . S
C345 C342 1.357 . S
C345 C346 1.312 . S
C346 H317 0.930 . S
C346 C341 1.261 . S
C346 C345 1.312 . S
C347 O319 1.214 . S
C347 O327 1.234 . S
C348 H320 0.929 . S
C348 C351 1.391 . S
C348 C353 1.391 . S
C349 H321 0.929 . S
C349 C350 1.390 . S
C349 N352 1.391 . S
C350 H322 0.930 . S
C350 C349 1.390 . S
C350 C351 1.392 . S
C351 H323 0.929 . S
C351 C348 1.391 . S
C351 C350 1.392 . S
N352 Co296 2.257 . S
N352 C349 1.391 . S
N352 C353 1.388 . S
C353 H324 0.930 . S
C353 C348 1.391 . S
C353 N352 1.388 . S
Co354 O356 2.143 . S
Co354 O362 2.074 . S
Co354 O365 2.093 . S
Co354 O378 2.097 . S
Co354 N395 2.151 . S
Co354 N403 2.214 . S
Co355 O356 2.160 . S
Co355 O361 2.058 . S
Co355 O371 2.057 . S
Co355 O386 2.037 . S
Co355 N390 2.145 . S
Co355 N411 2.257 . S
O356 Co354 2.143 . S
O356 Co355 2.160 . S
C357 O358 1.278 . S
C357 O365 1.224 . S
O358 C357 1.278 . S
C359 O360 1.245 . S
C359 O371 1.232 . S
O360 C359 1.245 . S
O361 Co355 2.058 . S
O361 C387 1.269 . S
O362 Co354 2.074 . S
O362 C387 1.257 . S
H363 C388 0.930 . S
H364 C394 0.930 . S
O365 Co354 2.093 . S
O365 C357 1.224 . S
H366 C398 0.929 . S
H367 C400 0.930 . S
H368 C401 0.930 . S
H369 C399 0.929 . S
H370 C402 0.928 . S
O371 Co355 2.057 . S
O371 C359 1.232 . S
H372 C391 0.929 . S
H373 C392 0.929 . S
H374 C404 0.931 . S
H375 C396 0.929 . S
H376 C405 0.930 . S
H377 C397 0.931 . S
O378 Co354 2.097 . S
O378 C406 1.214 . S
H379 C407 0.929 . S
H380 C408 0.929 . S
H381 C409 0.930 . S
H382 C410 0.929 . S
H383 C412 0.930 . S
H384 C389 0.930 . S
H385 C393 0.930 . S
O386 Co355 2.037 . S
O386 C406 1.234 . S
C387 O361 1.269 . S
C387 O362 1.257 . S
C388 H363 0.930 . S
C388 C391 1.388 . S
C388 C393 1.418 . S
C389 H384 0.930 . S
C389 C392 1.404 . S
C389 C393 1.353 . S
N390 Co355 2.145 . S
N390 C391 1.397 . S
N390 C392 1.334 . S
C391 H372 0.929 . S
C391 C388 1.388 . S
C391 N390 1.397 . S
C392 H373 0.929 . S
C392 C389 1.404 . S
C392 N390 1.334 . S
C393 H385 0.930 . S
C393 C388 1.418 . S
C393 C389 1.353 . S
C394 H364 0.930 . S
C394 N395 1.330 . S
C394 C396 1.446 . S
N395 Co354 2.151 . S
N395 C394 1.330 . S
N395 C399 1.418 . S
C396 H375 0.929 . S
C396 C394 1.446 . S
C396 C397 1.332 . S
C397 H377 0.931 . S
C397 C396 1.332 . S
C397 C398 1.267 . S
C398 H366 0.929 . S
C398 C397 1.267 . S
C398 C399 1.251 . S
C399 H369 0.929 . S
C399 N395 1.418 . S
C399 C398 1.251 . S
C400 H367 0.930 . S
C400 C402 1.406 . S
C400 C405 1.261 . S
C401 H368 0.930 . S
C401 N403 1.325 . S
C401 C404 1.357 . S
C402 H370 0.928 . S
C402 C400 1.406 . S
C402 N403 1.261 . S
N403 Co354 2.214 . S
N403 C401 1.325 . S
N403 C402 1.261 . S
C404 H374 0.931 . S
C404 C401 1.357 . S
C404 C405 1.312 . S
C405 H376 0.930 . S
C405 C400 1.261 . S
C405 C404 1.312 . S
C406 O378 1.214 . S
C406 O386 1.234 . S
C407 H379 0.929 . S
C407 C410 1.391 . S
C407 C412 1.391 . S
C408 H380 0.929 . S
C408 C409 1.390 . S
C408 N411 1.391 . S
C409 H381 0.930 . S
C409 C408 1.390 . S
C409 C410 1.392 . S
C410 H382 0.929 . S
C410 C407 1.391 . S
C410 C409 1.392 . S
N411 Co355 2.257 . S
N411 C408 1.391 . S
N411 C412 1.388 . S
C412 H383 0.930 . S
C412 C407 1.391 . S
C412 N411 1.388 . S
Co413 O415 2.143 . S
Co413 O421 2.074 . S
Co413 O424 2.093 . S
Co413 O437 2.097 . S
Co413 N454 2.151 . S
Co413 N462 2.214 . S
Co414 O415 2.160 . S
Co414 O420 2.058 . S
Co414 O430 2.057 . S
Co414 O445 2.037 . S
Co414 N449 2.145 . S
Co414 N470 2.257 . S
O415 Co413 2.143 . S
O415 Co414 2.160 . S
C416 O417 1.278 . S
C416 O424 1.224 . S
O417 C416 1.278 . S
C418 O419 1.245 . S
C418 O430 1.232 . S
O419 C418 1.245 . S
O420 Co414 2.058 . S
O420 C446 1.269 . S
O421 Co413 2.074 . S
O421 C446 1.257 . S
H422 C447 0.930 . S
H423 C453 0.930 . S
O424 Co413 2.093 . S
O424 C416 1.224 . S
H425 C457 0.929 . S
H426 C459 0.930 . S
H427 C460 0.930 . S
H428 C458 0.929 . S
H429 C461 0.928 . S
O430 Co414 2.057 . S
O430 C418 1.232 . S
H431 C450 0.929 . S
H432 C451 0.929 . S
H433 C463 0.931 . S
H434 C455 0.929 . S
H435 C464 0.930 . S
H436 C456 0.931 . S
O437 Co413 2.097 . S
O437 C465 1.214 . S
H438 C466 0.929 . S
H439 C467 0.929 . S
H440 C468 0.930 . S
H441 C469 0.929 . S
H442 C471 0.930 . S
H443 C448 0.930 . S
H444 C452 0.930 . S
O445 Co414 2.037 . S
O445 C465 1.234 . S
C446 O420 1.269 . S
C446 O421 1.257 . S
C447 H422 0.930 . S
C447 C450 1.388 . S
C447 C452 1.418 . S
C448 H443 0.930 . S
C448 C451 1.404 . S
C448 C452 1.353 . S
N449 Co414 2.145 . S
N449 C450 1.397 . S
N449 C451 1.334 . S
C450 H431 0.929 . S
C450 C447 1.388 . S
C450 N449 1.397 . S
C451 H432 0.929 . S
C451 C448 1.404 . S
C451 N449 1.334 . S
C452 H444 0.930 . S
C452 C447 1.418 . S
C452 C448 1.353 . S
C453 H423 0.930 . S
C453 N454 1.330 . S
C453 C455 1.446 . S
N454 Co413 2.151 . S
N454 C453 1.330 . S
N454 C458 1.418 . S
C455 H434 0.929 . S
C455 C453 1.446 . S
C455 C456 1.332 . S
C456 H436 0.931 . S
C456 C455 1.332 . S
C456 C457 1.267 . S
C457 H425 0.929 . S
C457 C456 1.267 . S
C457 C458 1.251 . S
C458 H428 0.929 . S
C458 N454 1.418 . S
C458 C457 1.251 . S
C459 H426 0.930 . S
C459 C461 1.406 . S
C459 C464 1.261 . S
C460 H427 0.930 . S
C460 N462 1.325 . S
C460 C463 1.357 . S
C461 H429 0.928 . S
C461 C459 1.406 . S
C461 N462 1.261 . S
N462 Co413 2.214 . S
N462 C460 1.325 . S
N462 C461 1.261 . S
C463 H433 0.931 . S
C463 C460 1.357 . S
C463 C464 1.312 . S
C464 H435 0.930 . S
C464 C459 1.261 . S
C464 C463 1.312 . S
C465 O437 1.214 . S
C465 O445 1.234 . S
C466 H438 0.929 . S
C466 C469 1.391 . S
C466 C471 1.391 . S
C467 H439 0.929 . S
C467 C468 1.390 . S
C467 N470 1.391 . S
C468 H440 0.930 . S
C468 C467 1.390 . S
C468 C469 1.392 . S
C469 H441 0.929 . S
C469 C466 1.391 . S
C469 C468 1.392 . S
N470 Co414 2.257 . S
N470 C467 1.391 . S
N470 C471 1.388 . S
C471 H442 0.930 . S
C471 C466 1.391 . S
C471 N470 1.388 . S
H472 C480 0.929 . S
H473 C482 0.930 . S
H474 C484 0.930 . S
H475 C487 0.929 . S
H476 C490 0.930 . S
H477 C492 0.960 . S
H478 C492 0.960 . S
H479 C492 0.960 . S
C480 H472 0.929 . S
C480 C481 1.377 . S
C480 C482 1.384 . S
C481 C480 1.377 . S
C481 C487 1.390 . S
C482 H473 0.930 . S
C482 C480 1.384 . S
C482 C483 1.372 . S
C483 C482 1.372 . S
C483 C484 1.400 . S
C483 C488 1.490 . S
C484 H474 0.930 . S
C484 C483 1.400 . S
C484 C487 1.386 . S
H485 C501 0.930 . S
H486 C502 0.931 . S
C487 H475 0.929 . S
C487 C481 1.390 . S
C487 C484 1.386 . S
C488 C483 1.490 . S
C488 C490 1.395 . S
C488 C491 1.403 1_455 S
H489 C495 0.930 . S
C490 H476 0.930 . S
C490 C488 1.395 . S
C490 C493 1.403 . S
C491 C488 1.403 1_655 S
C491 C492 1.524 . S
C491 C495 1.400 . S
C492 H477 0.960 . S
C492 H478 0.960 . S
C492 H479 0.960 . S
C492 C491 1.524 . S
C493 C490 1.403 . S
C493 C494 1.392 . S
C493 C497 1.495 . S
C494 C493 1.392 . S
C494 C495 1.385 1_455 S
C494 C496 1.478 . S
C495 H489 0.930 . S
C495 C491 1.400 . S
C495 C494 1.385 1_655 S
C496 C494 1.478 . S
C496 C498 1.381 . S
C496 C502 1.383 . S
C497 C493 1.495 . S
C497 H503 0.959 . S
C497 H504 0.961 . S
C497 H505 0.960 . S
C498 C496 1.381 . S
C498 C499 1.394 . S
C498 H506 0.930 . S
C499 C498 1.394 . S
C499 C500 1.383 . S
C499 H507 0.929 . S
C500 C499 1.383 . S
C500 C501 1.377 . S
C501 H485 0.930 . S
C501 C500 1.377 . S
C501 C502 1.379 . S
C502 H486 0.931 . S
C502 C496 1.383 . S
C502 C501 1.379 . S
H503 C497 0.959 . S
H504 C497 0.961 . S
H505 C497 0.960 . S
H506 C498 0.930 . S
H507 C499 0.929 . S
H508 C516 0.929 . S
H509 C518 0.930 . S
H510 C520 0.930 . S
H511 C523 0.929 . S
H512 C526 0.930 . S
H513 C528 0.960 1_655 S
H514 C528 0.960 . S
H515 C528 0.960 1_655 S
C516 H508 0.929 . S
C516 C517 1.377 . S
C516 C518 1.384 . S
C517 C516 1.377 . S
C517 C523 1.390 1_455 S
C518 H509 0.930 . S
C518 C516 1.384 . S
C518 C519 1.372 . S
C519 C518 1.372 . S
C519 C520 1.400 1_455 S
C519 C524 1.490 . S
C520 H510 0.930 . S
C520 C519 1.400 1_655 S
C520 C523 1.386 . S
H521 C537 0.930 . S
H522 C538 0.931 . S
C523 H511 0.929 . S
C523 C517 1.390 1_655 S
C523 C520 1.386 . S
C524 C519 1.490 . S
C524 C526 1.395 . S
C524 C527 1.403 . S
H525 C531 0.930 . S
C526 H512 0.930 . S
C526 C524 1.395 . S
C526 C529 1.403 . S
C527 C524 1.403 . S
C527 C528 1.524 . S
C527 C531 1.400 . S
C528 H513 0.960 1_455 S
C528 H514 0.960 . S
C528 H515 0.960 1_455 S
C528 C527 1.524 . S
C529 C526 1.403 . S
C529 C530 1.392 . S
C529 C533 1.495 . S
C530 C529 1.392 . S
C530 C531 1.385 . S
C530 C532 1.478 . S
C531 H525 0.930 . S
C531 C527 1.400 . S
C531 C530 1.385 . S
C532 C530 1.478 . S
C532 C534 1.381 . S
C532 C538 1.383 1_455 S
C533 C529 1.495 . S
C533 H539 0.959 . S
C533 H540 0.961 . S
C533 H541 0.960 . S
C534 C532 1.381 . S
C534 C535 1.394 . S
C534 H542 0.930 . S
C535 C534 1.394 . S
C535 C536 1.383 . S
C535 H543 0.929 . S
C536 C535 1.383 . S
C536 C537 1.376 1_455 S
C537 H521 0.930 . S
C537 C536 1.376 1_655 S
C537 C538 1.380 . S
C538 H522 0.931 . S
C538 C532 1.383 1_655 S
C538 C537 1.380 . S
H539 C533 0.959 . S
H540 C533 0.961 . S
H541 C533 0.960 . S
H542 C534 0.930 . S
H543 C535 0.929 . S
H544 C552 0.929 . S
H545 C554 0.930 . S
H546 C556 0.930 . S
H547 C559 0.929 . S
H548 C562 0.930 . S
H549 C564 0.960 . S
H550 C564 0.960 . S
H551 C564 0.960 . S
C552 H544 0.929 . S
C552 C553 1.377 . S
C552 C554 1.384 . S
C553 C552 1.377 . S
C553 C559 1.390 . S
C554 H545 0.930 . S
C554 C552 1.384 . S
C554 C555 1.372 . S
C555 C554 1.372 . S
C555 C556 1.400 . S
C555 C560 1.490 . S
C556 H546 0.930 . S
C556 C555 1.400 . S
C556 C559 1.386 . S
H557 C573 0.930 . S
H558 C574 0.931 . S
C559 H547 0.929 . S
C559 C553 1.390 . S
C559 C556 1.386 . S
C560 C555 1.490 . S
C560 C562 1.395 . S
C560 C563 1.403 . S
H561 C567 0.930 . S
C562 H548 0.930 . S
C562 C560 1.395 . S
C562 C565 1.403 . S
C563 C560 1.403 . S
C563 C564 1.524 . S
C563 C567 1.400 . S
C564 H549 0.960 . S
C564 H550 0.960 . S
C564 H551 0.960 . S
C564 C563 1.524 . S
C565 C562 1.403 . S
C565 C566 1.392 . S
C565 C569 1.495 . S
C566 C565 1.392 . S
C566 C567 1.385 . S
C566 C568 1.478 . S
C567 H561 0.930 . S
C567 C563 1.400 . S
C567 C566 1.385 . S
C568 C566 1.478 . S
C568 C570 1.381 . S
C568 C574 1.383 . S
C569 C565 1.495 . S
C569 H575 0.959 . S
C569 H576 0.961 . S
C569 H577 0.960 . S
C570 C568 1.381 . S
C570 C571 1.394 . S
C570 H578 0.930 . S
C571 C570 1.394 . S
C571 C572 1.383 . S
C571 H579 0.929 . S
C572 C571 1.383 . S
C572 C573 1.377 . S
C573 H557 0.930 . S
C573 C572 1.377 . S
C573 C574 1.379 . S
C574 H558 0.931 . S
C574 C568 1.383 . S
C574 C573 1.379 . S
H575 C569 0.959 . S
H576 C569 0.961 . S
H577 C569 0.960 . S
H578 C570 0.930 . S
H579 C571 0.929 . S
H580 C588 0.929 . S
H581 C590 0.930 . S
H582 C592 0.930 . S
H583 C595 0.929 . S
H584 C598 0.930 . S
H585 C600 0.960 . S
H586 C600 0.960 . S
H587 C600 0.960 . S
C588 H580 0.929 . S
C588 C589 1.377 . S
C588 C590 1.384 . S
C589 C588 1.377 . S
C589 C595 1.390 . S
C590 H581 0.930 . S
C590 C588 1.384 . S
C590 C591 1.372 . S
C591 C590 1.372 . S
C591 C592 1.400 . S
C591 C596 1.490 . S
C592 H582 0.930 . S
C592 C591 1.400 . S
C592 C595 1.386 . S
H593 C609 0.930 . S
H594 C610 0.931 . S
C595 H583 0.929 . S
C595 C589 1.390 . S
C595 C592 1.386 . S
C596 C591 1.490 . S
C596 C598 1.395 . S
C596 C599 1.403 . S
H597 C603 0.930 . S
C598 H584 0.930 . S
C598 C596 1.395 . S
C598 C601 1.403 . S
C599 C596 1.403 . S
C599 C600 1.524 . S
C599 C603 1.400 . S
C600 H585 0.960 . S
C600 H586 0.960 . S
C600 H587 0.960 . S
C600 C599 1.524 . S
C601 C598 1.403 . S
C601 C602 1.392 . S
C601 C605 1.495 . S
C602 C601 1.392 . S
C602 C603 1.385 . S
C602 C604 1.478 . S
C603 H597 0.930 . S
C603 C599 1.400 . S
C603 C602 1.385 . S
C604 C602 1.478 . S
C604 C606 1.381 . S
C604 C610 1.383 . S
C605 C601 1.495 . S
C605 H611 0.959 . S
C605 H612 0.961 . S
C605 H613 0.960 . S
C606 C604 1.381 . S
C606 C607 1.394 . S
C606 H614 0.930 . S
C607 C606 1.394 . S
C607 C608 1.383 . S
C607 H615 0.929 . S
C608 C607 1.383 . S
C608 C609 1.377 . S
C609 H593 0.930 . S
C609 C608 1.377 . S
C609 C610 1.379 . S
C610 H594 0.931 . S
C610 C604 1.383 . S
C610 C609 1.379 . S
H611 C605 0.959 . S
H612 C605 0.961 . S
H613 C605 0.960 . S
H614 C606 0.930 . S
H615 C607 0.929 . S
H616 C624 0.929 . S
H617 C626 0.930 . S
H618 C628 0.930 . S
H619 C631 0.929 . S
H620 C634 0.930 . S
H621 C636 0.960 . S
H622 C636 0.960 . S
H623 C636 0.960 . S
C624 H616 0.929 . S
C624 C625 1.377 . S
C624 C626 1.384 . S
C625 C624 1.377 . S
C625 C631 1.390 . S
C626 H617 0.930 . S
C626 C624 1.384 . S
C626 C627 1.372 . S
C627 C626 1.372 . S
C627 C628 1.400 . S
C627 C632 1.490 . S
C628 H618 0.930 . S
C628 C627 1.400 . S
C628 C631 1.386 . S
H629 C645 0.930 . S
H630 C646 0.931 . S
C631 H619 0.929 . S
C631 C625 1.390 . S
C631 C628 1.386 . S
C632 C627 1.490 . S
C632 C634 1.395 . S
C632 C635 1.403 . S
H633 C639 0.930 . S
C634 H620 0.930 . S
C634 C632 1.395 . S
C634 C637 1.403 . S
C635 C632 1.403 . S
C635 C636 1.524 . S
C635 C639 1.400 . S
C636 H621 0.960 . S
C636 H622 0.960 . S
C636 H623 0.960 . S
C636 C635 1.524 . S
C637 C634 1.403 . S
C637 C638 1.392 . S
C637 C641 1.495 . S
C638 C637 1.392 . S
C638 C639 1.385 . S
C638 C640 1.478 . S
C639 H633 0.930 . S
C639 C635 1.400 . S
C639 C638 1.385 . S
C640 C638 1.478 . S
C640 C642 1.381 . S
C640 C646 1.383 . S
C641 C637 1.495 . S
C641 H647 0.959 . S
C641 H648 0.961 . S
C641 H649 0.960 . S
C642 C640 1.381 . S
C642 C643 1.394 . S
C642 H650 0.930 . S
C643 C642 1.394 . S
C643 C644 1.383 . S
C643 H651 0.929 . S
C644 C643 1.383 . S
C644 C645 1.377 . S
C645 H629 0.930 . S
C645 C644 1.377 . S
C645 C646 1.379 . S
C646 H630 0.931 . S
C646 C640 1.383 . S
C646 C645 1.379 . S
H647 C641 0.959 . S
H648 C641 0.961 . S
H649 C641 0.960 . S
H650 C642 0.930 . S
H651 C643 0.929 . S
H652 C660 0.929 . S
H653 C662 0.930 . S
H654 C664 0.930 . S
H655 C667 0.929 . S
H656 C670 0.930 . S
H657 C672 0.960 . S
H658 C672 0.960 . S
H659 C672 0.960 . S
C660 H652 0.929 . S
C660 C661 1.377 . S
C660 C662 1.384 . S
C661 C660 1.377 . S
C661 C667 1.390 . S
C662 H653 0.930 . S
C662 C660 1.384 . S
C662 C663 1.372 . S
C663 C662 1.372 . S
C663 C664 1.400 . S
C663 C668 1.490 . S
C664 H654 0.930 . S
C664 C663 1.400 . S
C664 C667 1.386 . S
H665 C681 0.930 . S
H666 C682 0.931 . S
C667 H655 0.929 . S
C667 C661 1.390 . S
C667 C664 1.386 . S
C668 C663 1.490 . S
C668 C670 1.395 . S
C668 C671 1.403 . S
H669 C675 0.930 . S
C670 H656 0.930 . S
C670 C668 1.395 . S
C670 C673 1.403 . S
C671 C668 1.403 . S
C671 C672 1.524 . S
C671 C675 1.400 . S
C672 H657 0.960 . S
C672 H658 0.960 . S
C672 H659 0.960 . S
C672 C671 1.524 . S
C673 C670 1.403 . S
C673 C674 1.392 . S
C673 C677 1.495 . S
C674 C673 1.392 . S
C674 C675 1.385 . S
C674 C676 1.478 . S
C675 H669 0.930 . S
C675 C671 1.400 . S
C675 C674 1.385 . S
C676 C674 1.478 . S
C676 C678 1.381 . S
C676 C682 1.383 . S
C677 C673 1.495 . S
C677 H683 0.959 . S
C677 H684 0.961 . S
C677 H685 0.960 . S
C678 C676 1.381 . S
C678 C679 1.394 . S
C678 H686 0.930 . S
C679 C678 1.394 . S
C679 C680 1.383 . S
C679 H687 0.929 . S
C680 C679 1.383 . S
C680 C681 1.377 . S
C681 H665 0.930 . S
C681 C680 1.377 . S
C681 C682 1.379 . S
C682 H666 0.931 . S
C682 C676 1.383 . S
C682 C681 1.379 . S
H683 C677 0.959 . S
H684 C677 0.961 . S
H685 C677 0.960 . S
H686 C678 0.930 . S
H687 C679 0.929 . S
H688 C696 0.929 . S
H689 C698 0.930 . S
H690 C700 0.930 . S
H691 C703 0.929 . S
H692 C706 0.930 . S
H693 C708 0.960 . S
H694 C708 0.960 . S
H695 C708 0.960 . S
C696 H688 0.929 . S
C696 C697 1.377 . S
C696 C698 1.384 . S
C697 C696 1.377 . S
C697 C703 1.390 . S
C698 H689 0.930 . S
C698 C696 1.384 . S
C698 C699 1.372 . S
C699 C698 1.372 . S
C699 C700 1.400 . S
C699 C704 1.490 . S
C700 H690 0.930 . S
C700 C699 1.400 . S
C700 C703 1.386 . S
H701 C717 0.930 . S
H702 C718 0.931 . S
C703 H691 0.929 . S
C703 C697 1.390 . S
C703 C700 1.386 . S
C704 C699 1.490 . S
C704 C706 1.395 . S
C704 C707 1.403 . S
H705 C711 0.930 . S
C706 H692 0.930 . S
C706 C704 1.395 . S
C706 C709 1.403 . S
C707 C704 1.403 . S
C707 C708 1.524 . S
C707 C711 1.400 . S
C708 H693 0.960 . S
C708 H694 0.960 . S
C708 H695 0.960 . S
C708 C707 1.524 . S
C709 C706 1.403 . S
C709 C710 1.392 . S
C709 C713 1.495 . S
C710 C709 1.392 . S
C710 C711 1.385 . S
C710 C712 1.478 . S
C711 H705 0.930 . S
C711 C707 1.400 . S
C711 C710 1.385 . S
C712 C710 1.478 . S
C712 C714 1.381 . S
C712 C718 1.383 . S
C713 C709 1.495 . S
C713 H719 0.959 . S
C713 H720 0.961 . S
C713 H721 0.960 . S
C714 C712 1.381 . S
C714 C715 1.394 . S
C714 H722 0.930 . S
C715 C714 1.394 . S
C715 C716 1.383 . S
C715 H723 0.929 . S
C716 C715 1.383 . S
C716 C717 1.377 . S
C717 H701 0.930 . S
C717 C716 1.377 . S
C717 C718 1.379 . S
C718 H702 0.931 . S
C718 C712 1.383 . S
C718 C717 1.379 . S
H719 C713 0.959 . S
H720 C713 0.961 . S
H721 C713 0.960 . S
H722 C714 0.930 . S
H723 C715 0.929 . S
H724 C732 0.929 . S
H725 C734 0.930 . S
H726 C736 0.930 . S
H727 C739 0.929 . S
H728 C742 0.930 . S
H729 C744 0.960 . S
H730 C744 0.960 . S
H731 C744 0.960 . S
C732 H724 0.929 . S
C732 C733 1.377 . S
C732 C734 1.384 . S
C733 C732 1.377 . S
C733 C739 1.390 . S
C734 H725 0.930 . S
C734 C732 1.384 . S
C734 C735 1.372 . S
C735 C734 1.372 . S
C735 C736 1.400 . S
C735 C740 1.490 . S
C736 H726 0.930 . S
C736 C735 1.400 . S
C736 C739 1.386 . S
H737 C753 0.930 . S
H738 C754 0.931 . S
C739 H727 0.929 . S
C739 C733 1.390 . S
C739 C736 1.386 . S
C740 C735 1.490 . S
C740 C742 1.395 . S
C740 C743 1.403 . S
H741 C747 0.930 . S
C742 H728 0.930 . S
C742 C740 1.395 . S
C742 C745 1.403 . S
C743 C740 1.403 . S
C743 C744 1.524 . S
C743 C747 1.400 . S
C744 H729 0.960 . S
C744 H730 0.960 . S
C744 H731 0.960 . S
C744 C743 1.524 . S
C745 C742 1.403 . S
C745 C746 1.392 . S
C745 C749 1.495 . S
C746 C745 1.392 . S
C746 C747 1.385 . S
C746 C748 1.478 . S
C747 H741 0.930 . S
C747 C743 1.400 . S
C747 C746 1.385 . S
C748 C746 1.478 . S
C748 C750 1.381 . S
C748 C754 1.383 . S
C749 C745 1.495 . S
C749 H755 0.959 . S
C749 H756 0.961 . S
C749 H757 0.960 . S
C750 C748 1.381 . S
C750 C751 1.394 . S
C750 H758 0.930 . S
C751 C750 1.394 . S
C751 C752 1.383 . S
C751 H759 0.929 . S
C752 C751 1.383 . S
C752 C753 1.377 . S
C753 H737 0.930 . S
C753 C752 1.377 . S
C753 C754 1.379 . S
C754 H738 0.931 . S
C754 C748 1.383 . S
C754 C753 1.379 . S
H755 C749 0.959 . S
H756 C749 0.961 . S
H757 C749 0.960 . S
H758 C750 0.930 . S
H759 C751 0.929 . S
H760 C768 0.929 . S
H761 C770 0.930 . S
H762 C772 0.930 . S
H763 C775 0.929 . S
H764 C778 0.930 . S
H765 C780 0.960 . S
H766 C780 0.960 . S
H767 C780 0.960 . S
C768 H760 0.929 . S
C768 C769 1.377 . S
C768 C770 1.384 . S
C769 C768 1.377 . S
C769 C775 1.390 . S
C770 H761 0.930 . S
C770 C768 1.384 . S
C770 C771 1.372 . S
C771 C770 1.372 . S
C771 C772 1.400 . S
C771 C776 1.490 . S
C772 H762 0.930 . S
C772 C771 1.400 . S
C772 C775 1.386 . S
H773 C789 0.930 . S
H774 C790 0.931 . S
C775 H763 0.929 . S
C775 C769 1.390 . S
C775 C772 1.386 . S
C776 C771 1.490 . S
C776 C778 1.395 . S
C776 C779 1.403 . S
H777 C783 0.930 . S
C778 H764 0.930 . S
C778 C776 1.395 . S
C778 C781 1.403 . S
C779 C776 1.403 . S
C779 C780 1.524 . S
C779 C783 1.400 . S
C780 H765 0.960 . S
C780 H766 0.960 . S
C780 H767 0.960 . S
C780 C779 1.524 . S
C781 C778 1.403 . S
C781 C782 1.392 . S
C781 C785 1.495 . S
C782 C781 1.392 . S
C782 C783 1.385 . S
C782 C784 1.478 . S
C783 H777 0.930 . S
C783 C779 1.400 . S
C783 C782 1.385 . S
C784 C782 1.478 . S
C784 C786 1.381 . S
C784 C790 1.383 . S
C785 C781 1.495 . S
C785 H791 0.959 . S
C785 H792 0.961 . S
C785 H793 0.960 . S
C786 C784 1.381 . S
C786 C787 1.394 . S
C786 H794 0.930 . S
C787 C786 1.394 . S
C787 C788 1.383 . S
C787 H795 0.929 . S
C788 C787 1.383 . S
C788 C789 1.377 . S
C789 H773 0.930 . S
C789 C788 1.377 . S
C789 C790 1.379 . S
C790 H774 0.931 . S
C790 C784 1.383 . S
C790 C789 1.379 . S
H791 C785 0.959 . S
H792 C785 0.961 . S
H793 C785 0.960 . S
H794 C786 0.930 . S
H795 C787 0.929 . S
H796 C804 0.929 . S
H797 C806 0.930 . S
H798 C808 0.930 . S
H799 C811 0.929 . S
H800 C814 0.930 . S
H801 C816 0.960 . S
H802 C816 0.960 . S
H803 C816 0.960 . S
C804 H796 0.929 . S
C804 C805 1.377 . S
C804 C806 1.384 . S
C805 C804 1.377 . S
C805 C811 1.390 . S
C806 H797 0.930 . S
C806 C804 1.384 . S
C806 C807 1.372 . S
C807 C806 1.372 . S
C807 C808 1.400 . S
C807 C812 1.490 . S
C808 H798 0.930 . S
C808 C807 1.400 . S
C808 C811 1.386 . S
H809 C825 0.930 . S
H810 C826 0.931 . S
C811 H799 0.929 . S
C811 C805 1.390 . S
C811 C808 1.386 . S
C812 C807 1.490 . S
C812 C814 1.395 . S
C812 C815 1.403 . S
H813 C819 0.930 . S
C814 H800 0.930 . S
C814 C812 1.395 . S
C814 C817 1.403 . S
C815 C812 1.403 . S
C815 C816 1.524 . S
C815 C819 1.400 . S
C816 H801 0.960 . S
C816 H802 0.960 . S
C816 H803 0.960 . S
C816 C815 1.524 . S
C817 C814 1.403 . S
C817 C818 1.392 . S
C817 C821 1.495 . S
C818 C817 1.392 . S
C818 C819 1.385 . S
C818 C820 1.478 . S
C819 H813 0.930 . S
C819 C815 1.400 . S
C819 C818 1.385 . S
C820 C818 1.478 . S
C820 C822 1.381 . S
C820 C826 1.383 . S
C821 C817 1.495 . S
C821 H827 0.959 . S
C821 H828 0.961 . S
C821 H829 0.960 . S
C822 C820 1.381 . S
C822 C823 1.394 . S
C822 H830 0.930 . S
C823 C822 1.394 . S
C823 C824 1.383 . S
C823 H831 0.929 . S
C824 C823 1.383 . S
C824 C825 1.377 . S
C825 H809 0.930 . S
C825 C824 1.377 . S
C825 C826 1.379 . S
C826 H810 0.931 . S
C826 C820 1.383 . S
C826 C825 1.379 . S
H827 C821 0.959 . S
H828 C821 0.961 . S
H829 C821 0.960 . S
H830 C822 0.930 . S
H831 C823 0.929 . S
H832 C840 0.929 . S
H833 C842 0.930 . S
H834 C844 0.930 . S
H835 C847 0.929 . S
H836 C850 0.930 . S
H837 C852 0.960 . S
H838 C852 0.960 . S
H839 C852 0.960 . S
C840 H832 0.929 . S
C840 C841 1.377 . S
C840 C842 1.384 . S
C841 C840 1.377 . S
C841 C847 1.390 . S
C842 H833 0.930 . S
C842 C840 1.384 . S
C842 C843 1.372 . S
C843 C842 1.372 . S
C843 C844 1.400 . S
C843 C848 1.490 . S
C844 H834 0.930 . S
C844 C843 1.400 . S
C844 C847 1.386 . S
H845 C861 0.930 . S
H846 C862 0.931 . S
C847 H835 0.929 . S
C847 C841 1.390 . S
C847 C844 1.386 . S
C848 C843 1.490 . S
C848 C850 1.395 . S
C848 C851 1.403 . S
H849 C855 0.930 . S
C850 H836 0.930 . S
C850 C848 1.395 . S
C850 C853 1.403 . S
C851 C848 1.403 . S
C851 C852 1.524 . S
C851 C855 1.400 . S
C852 H837 0.960 . S
C852 H838 0.960 . S
C852 H839 0.960 . S
C852 C851 1.524 . S
C853 C850 1.403 . S
C853 C854 1.392 . S
C853 C857 1.495 . S
C854 C853 1.392 . S
C854 C855 1.385 . S
C854 C856 1.478 . S
C855 H849 0.930 . S
C855 C851 1.400 . S
C855 C854 1.385 . S
C856 C854 1.478 . S
C856 C858 1.381 . S
C856 C862 1.383 . S
C857 C853 1.495 . S
C857 H863 0.959 . S
C857 H864 0.961 . S
C857 H865 0.960 . S
C858 C856 1.381 . S
C858 C859 1.394 . S
C858 H866 0.930 . S
C859 C858 1.394 . S
C859 C860 1.383 . S
C859 H867 0.929 . S
C860 C859 1.383 . S
C860 C861 1.377 . S
C861 H845 0.930 . S
C861 C860 1.377 . S
C861 C862 1.379 . S
C862 H846 0.931 . S
C862 C856 1.383 . S
C862 C861 1.379 . S
H863 C857 0.959 . S
H864 C857 0.961 . S
H865 C857 0.960 . S
H866 C858 0.930 . S
H867 C859 0.929 . S
H868 C876 0.929 . S
H869 C878 0.930 . S
H870 C880 0.930 . S
H871 C883 0.929 . S
H872 C886 0.930 . S
H873 C888 0.960 . S
H874 C888 0.960 . S
H875 C888 0.960 . S
C876 H868 0.929 . S
C876 C877 1.377 . S
C876 C878 1.384 . S
C877 C876 1.377 . S
C877 C883 1.390 . S
C878 H869 0.930 . S
C878 C876 1.384 . S
C878 C879 1.372 . S
C879 C878 1.372 . S
C879 C880 1.400 . S
C879 C884 1.490 . S
C880 H870 0.930 . S
C880 C879 1.400 . S
C880 C883 1.386 . S
H881 C897 0.930 . S
H882 C898 0.931 . S
C883 H871 0.929 . S
C883 C877 1.390 . S
C883 C880 1.386 . S
C884 C879 1.490 . S
C884 C886 1.395 . S
C884 C887 1.403 . S
H885 C891 0.930 . S
C886 H872 0.930 . S
C886 C884 1.395 . S
C886 C889 1.403 . S
C887 C884 1.403 . S
C887 C888 1.524 . S
C887 C891 1.400 . S
C888 H873 0.960 . S
C888 H874 0.960 . S
C888 H875 0.960 . S
C888 C887 1.524 . S
C889 C886 1.403 . S
C889 C890 1.392 . S
C889 C893 1.495 . S
C890 C889 1.392 . S
C890 C891 1.385 . S
C890 C892 1.478 . S
C891 H885 0.930 . S
C891 C887 1.400 . S
C891 C890 1.385 . S
C892 C890 1.478 . S
C892 C894 1.381 . S
C892 C898 1.383 . S
C893 C889 1.495 . S
C893 H899 0.959 . S
C893 H900 0.961 . S
C893 H901 0.960 . S
C894 C892 1.381 . S
C894 C895 1.394 . S
C894 H902 0.930 . S
C895 C894 1.394 . S
C895 C896 1.383 . S
C895 H903 0.929 . S
C896 C895 1.383 . S
C896 C897 1.377 . S
C897 H881 0.930 . S
C897 C896 1.377 . S
C897 C898 1.379 . S
C898 H882 0.931 . S
C898 C892 1.383 . S
C898 C897 1.379 . S
H899 C893 0.959 . S
H900 C893 0.961 . S
H901 C893 0.960 . S
H902 C894 0.930 . S
H903 C895 0.929 . S
H904 C912 0.929 . S
H905 C914 0.930 . S
H906 C916 0.930 . S
H907 C919 0.929 . S
H908 C922 0.928 . S
H909 C924 0.960 . S
H910 C924 0.960 . S
H911 C924 0.960 . S
C912 H904 0.929 . S
C912 C913 1.377 . S
C912 C914 1.384 . S
C913 C912 1.377 . S
C913 C919 1.390 1_455 S
C914 H905 0.930 . S
C914 C912 1.384 . S
C914 C915 1.372 . S
C915 C914 1.372 . S
C915 C916 1.400 1_455 S
C915 C920 1.490 . S
C916 H906 0.930 . S
C916 C915 1.400 1_655 S
C916 C919 1.386 . S
H917 C933 0.930 . S
H918 C934 0.931 . S
C919 H907 0.929 . S
C919 C913 1.390 1_655 S
C919 C916 1.386 . S
C920 C915 1.490 . S
C920 C922 1.391 . S
C920 C923 1.403 1_454 S
H921 C927 0.930 . S
C922 H908 0.928 . S
C922 C920 1.391 . S
C922 C925 1.407 1_545 S
C923 C920 1.403 1_656 S
C923 C924 1.524 . S
C923 C927 1.400 1_545 S
C924 H909 0.960 . S
C924 H910 0.960 . S
C924 H911 0.960 . S
C924 C923 1.524 . S
C925 C922 1.407 1_565 S
C925 C926 1.392 1_554 S
C925 C929 1.495 . S
C926 C925 1.392 1_556 S
C926 C927 1.385 1_455 S
C926 C928 1.478 . S
C927 H921 0.930 . S
C927 C923 1.400 1_565 S
C927 C926 1.385 1_655 S
C928 C926 1.478 . S
C928 C930 1.381 . S
C928 C934 1.383 1_455 S
C929 C925 1.495 . S
C929 H935 0.959 . S
C929 H936 0.961 . S
C929 H937 0.960 . S
C930 C928 1.381 . S
C930 C931 1.394 . S
C930 H938 0.930 . S
C931 C930 1.394 . S
C931 C932 1.383 . S
C931 H939 0.929 . S
C932 C931 1.383 . S
C932 C933 1.377 1_455 S
C933 H917 0.930 . S
C933 C932 1.377 1_655 S
C933 C934 1.379 . S
C934 H918 0.931 . S
C934 C928 1.383 1_655 S
C934 C933 1.379 . S
H935 C929 0.959 . S
H936 C929 0.961 . S
H937 C929 0.960 . S
H938 C930 0.930 . S
H939 C931 0.929 . S
H940 C948 0.929 . S
H941 C950 0.930 . S
H942 C952 0.930 . S
H943 C955 0.929 . S
H944 C958 0.930 . S
H945 C960 0.960 . S
H946 C960 0.960 . S
H947 C960 0.960 . S
C948 H940 0.929 . S
C948 C949 1.377 . S
C948 C950 1.384 . S
C949 C948 1.377 . S
C949 C955 1.390 . S
C950 H941 0.930 . S
C950 C948 1.384 . S
C950 C951 1.372 . S
C951 C950 1.372 . S
C951 C952 1.400 . S
C951 C956 1.490 . S
C952 H942 0.930 . S
C952 C951 1.400 . S
C952 C955 1.386 . S
H953 C969 0.930 . S
H954 C970 0.931 . S
C955 H943 0.929 . S
C955 C949 1.390 . S
C955 C952 1.386 . S
C956 C951 1.490 . S
C956 C958 1.395 1_455 S
C956 C959 1.403 . S
H957 C963 0.930 . S
C958 H944 0.930 . S
C958 C956 1.395 1_655 S
C958 C961 1.403 1_556 S
C959 C956 1.403 . S
C959 C960 1.524 . S
C959 C963 1.400 1_556 S
C960 H945 0.960 . S
C960 H946 0.960 . S
C960 H947 0.960 . S
C960 C959 1.524 . S
C961 C958 1.403 1_554 S
C961 C962 1.392 1_655 S
C961 C965 1.495 . S
C962 C961 1.392 1_455 S
C962 C963 1.385 . S
C962 C964 1.478 . S
C963 H957 0.930 . S
C963 C959 1.400 1_554 S
C963 C962 1.385 . S
C964 C962 1.478 . S
C964 C966 1.381 . S
C964 C970 1.383 . S
C965 C961 1.495 . S
C965 H971 0.959 . S
C965 H972 0.961 . S
C965 H973 0.960 . S
C966 C964 1.381 . S
C966 C967 1.394 . S
C966 H974 0.930 . S
C967 C966 1.394 . S
C967 C968 1.383 . S
C967 H975 0.929 . S
C968 C967 1.383 . S
C968 C969 1.377 . S
C969 H953 0.930 . S
C969 C968 1.377 . S
C969 C970 1.379 . S
C970 H954 0.931 . S
C970 C964 1.383 . S
C970 C969 1.379 . S
H971 C965 0.959 . S
H972 C965 0.961 . S
H973 C965 0.960 . S
H974 C966 0.930 . S
H975 C967 0.929 . S
H976 C984 0.929 . S
H977 C986 0.930 . S
H978 C988 0.930 . S
H979 C991 0.929 . S
H980 C994 0.930 . S
H981 C996 0.960 . S
H982 C996 0.960 . S
H983 C996 0.960 . S
C984 H976 0.929 . S
C984 C985 1.377 . S
C984 C986 1.384 . S
C985 C984 1.377 . S
C985 C991 1.390 . S
C986 H977 0.930 . S
C986 C984 1.384 . S
C986 C987 1.372 . S
C987 C986 1.372 . S
C987 C988 1.400 . S
C987 C992 1.490 . S
C988 H978 0.930 . S
C988 C987 1.400 . S
C988 C991 1.386 . S
H989 C1005 0.930 . S
H990 C1006 0.931 . S
C991 H979 0.929 . S
C991 C985 1.390 . S
C991 C988 1.386 . S
C992 C987 1.490 . S
C992 C994 1.395 . S
C992 C995 1.403 . S
H993 C999 0.930 . S
C994 H980 0.930 . S
C994 C992 1.395 . S
C994 C997 1.403 . S
C995 C992 1.403 . S
C995 C996 1.524 . S
C995 C999 1.400 . S
C996 H981 0.960 . S
C996 H982 0.960 . S
C996 H983 0.960 . S
C996 C995 1.524 . S
C997 C994 1.403 . S
C997 C998 1.392 . S
C997 C1001 1.495 . S
C998 C997 1.392 . S
C998 C999 1.385 . S
C998 C1000 1.478 . S
C999 H993 0.930 . S
C999 C995 1.400 . S
C999 C998 1.385 . S
C1000 C998 1.478 . S
C1000 C1002 1.381 . S
C1000 C1006 1.383 . S
C1001 C997 1.495 . S
C1001 H1007 0.959 . S
C1001 H1008 0.961 . S
C1001 H1009 0.960 . S
C1002 C1000 1.381 . S
C1002 C1003 1.394 . S
C1002 H1010 0.930 . S
C1003 C1002 1.394 . S
C1003 C1004 1.383 . S
C1003 H1011 0.929 . S
C1004 C1003 1.383 . S
C1004 C1005 1.377 . S
C1005 H989 0.930 . S
C1005 C1004 1.377 . S
C1005 C1006 1.379 . S
C1006 H990 0.931 . S
C1006 C1000 1.383 . S
C1006 C1005 1.379 . S
H1007 C1001 0.959 . S
H1008 C1001 0.961 . S
H1009 C1001 0.960 . S
H1010 C1002 0.930 . S
H1011 C1003 0.929 . S
H1012 C1020 0.929 . S
H1013 C1022 0.930 . S
H1014 C1024 0.930 . S
H1015 C1027 0.929 . S
H1016 C1030 0.930 . S
H1017 C1032 0.960 . S
H1018 C1032 0.960 . S
H1019 C1032 0.960 . S
C1020 H1012 0.929 . S
C1020 C1021 1.377 . S
C1020 C1022 1.384 . S
C1021 C1020 1.377 . S
C1021 C1027 1.390 . S
C1022 H1013 0.930 . S
C1022 C1020 1.384 . S
C1022 C1023 1.372 . S
C1023 C1022 1.372 . S
C1023 C1024 1.400 . S
C1023 C1028 1.490 . S
C1024 H1014 0.930 . S
C1024 C1023 1.400 . S
C1024 C1027 1.386 . S
H1025 C1041 0.930 . S
H1026 C1042 0.931 . S
C1027 H1015 0.929 . S
C1027 C1021 1.390 . S
C1027 C1024 1.386 . S
C1028 C1023 1.490 . S
C1028 C1030 1.395 1_565 S
C1028 C1031 1.403 . S
H1029 C1035 0.929 . S
C1030 H1016 0.930 . S
C1030 C1028 1.395 1_545 S
C1030 C1033 1.403 . S
C1031 C1028 1.403 . S
C1031 C1032 1.524 . S
C1031 C1035 1.364 1_565 S
C1032 H1017 0.960 . S
C1032 H1018 0.960 . S
C1032 H1019 0.960 . S
C1032 C1031 1.524 . S
C1033 C1030 1.403 . S
C1033 C1034 1.392 . S
C1033 C1037 1.495 . S
C1034 C1033 1.392 . S
C1034 C1035 1.423 . S
C1034 C1036 1.478 . S
C1035 H1029 0.929 . S
C1035 C1031 1.364 1_545 S
C1035 C1034 1.423 . S
C1036 C1034 1.478 . S
C1036 C1038 1.381 . S
C1036 C1042 1.383 . S
C1037 C1033 1.495 . S
C1037 H1043 0.959 . S
C1037 H1044 0.961 . S
C1037 H1045 0.960 . S
C1038 C1036 1.381 . S
C1038 C1039 1.394 . S
C1038 H1046 0.930 . S
C1039 C1038 1.394 . S
C1039 C1040 1.383 . S
C1039 H1047 0.929 . S
C1040 C1039 1.383 . S
C1040 C1041 1.377 . S
C1041 H1025 0.930 . S
C1041 C1040 1.377 . S
C1041 C1042 1.379 . S
C1042 H1026 0.931 . S
C1042 C1036 1.383 . S
C1042 C1041 1.379 . S
H1043 C1037 0.959 . S
H1044 C1037 0.961 . S
H1045 C1037 0.960 . S
H1046 C1038 0.930 . S
H1047 C1039 0.929 . S
C481 C111 1.494 . S
C500 C52 1.483 . S
C517 C170 1.494 . S
C536 C229 1.495 . S
C553 C288 1.496 . S
C572 C347 1.502 . S
C589 C406 1.494 . S
C608 C465 1.482 . S
C625 C416 1.178 . S
C644 C3 1.156 . S
C661 C357 1.174 . S
C680 C62 1.163 . S
C697 C121 1.172 . S
C716 C298 1.170 . S
C733 C239 1.179 . S
C752 C180 1.172 . S
C769 C328 1.771 . S
C788 C151 1.764 . S
C805 C269 1.770 . S
C824 C210 1.768 . S
C841 C446 1.770 . S
C860 C33 1.769 . S
C877 C92 1.771 . S
C896 C387 1.764 . S
C913 C5 1.476 . S
C932 C123 1.475 . S
C949 C182 1.476 . S
C968 C64 1.474 . S
C985 C359 1.476 . S
C1004 C241 1.471 . S
C1021 C300 1.476 . S
C1040 C418 1.474 . S
