# Generated by pormake.
# Topology wgc, (5)-cn, num edge types: 1
# Building blocks:
#     Node 0, Type 0, BuildingBlock: BEQFEK_clean_sbu_0, # of connection points: 5
#     Node 1, Type 0, BuildingBlock: BEQFEK_clean_sbu_0, # of connection points: 5
#     Node 2, Type 0, BuildingBlock: BEQFEK_clean_sbu_0, # of connection points: 5
#     Node 3, Type 0, BuildingBlock: BEQFEK_clean_sbu_0, # of connection points: 5
#     Node 4, Type 0, BuildingBlock: BEQFEK_clean_sbu_0, # of connection points: 5
#     Node 5, Type 0, BuildingBlock: BEQFEK_clean_sbu_0, # of connection points: 5
#     Node 6, Type 0, BuildingBlock: BEQFEK_clean_sbu_0, # of connection points: 5
#     Node 7, Type 0, BuildingBlock: BEQFEK_clean_sbu_0, # of connection points: 5
#     Node 8, Type 0, BuildingBlock: BEQFEK_clean_sbu_0, # of connection points: 5
#     Node 9, Type 0, BuildingBlock: BEQFEK_clean_sbu_0, # of connection points: 5
#     Node 10, Type 0, BuildingBlock: BEQFEK_clean_sbu_0, # of connection points: 5
#     Node 11, Type 0, BuildingBlock: BEQFEK_clean_sbu_0, # of connection points: 5
#     Node 12, Type 0, BuildingBlock: BEQFEK_clean_sbu_0, # of connection points: 5
#     Node 13, Type 0, BuildingBlock: BEQFEK_clean_sbu_0, # of connection points: 5
#     Node 14, Type 0, BuildingBlock: BEQFEK_clean_sbu_0, # of connection points: 5
#     Node 15, Type 0, BuildingBlock: BEQFEK_clean_sbu_0, # of connection points: 5
#     Edge 16, Type (0, 0), BuildingBlock: UVAHIK_clean_linker_0, # of connection points: 2
#     Edge 17, Type (0, 0), BuildingBlock: UVAHIK_clean_linker_0, # of connection points: 2
#     Edge 18, Type (0, 0), BuildingBlock: UVAHIK_clean_linker_0, # of connection points: 2
#     Edge 19, Type (0, 0), BuildingBlock: UVAHIK_clean_linker_0, # of connection points: 2
#     Edge 20, Type (0, 0), BuildingBlock: UVAHIK_clean_linker_0, # of connection points: 2
#     Edge 21, Type (0, 0), BuildingBlock: UVAHIK_clean_linker_0, # of connection points: 2
#     Edge 22, Type (0, 0), BuildingBlock: UVAHIK_clean_linker_0, # of connection points: 2
#     Edge 23, Type (0, 0), BuildingBlock: UVAHIK_clean_linker_0, # of connection points: 2
#     Edge 24, Type (0, 0), BuildingBlock: UVAHIK_clean_linker_0, # of connection points: 2
#     Edge 25, Type (0, 0), BuildingBlock: UVAHIK_clean_linker_0, # of connection points: 2
#     Edge 26, Type (0, 0), BuildingBlock: UVAHIK_clean_linker_0, # of connection points: 2
#     Edge 27, Type (0, 0), BuildingBlock: UVAHIK_clean_linker_0, # of connection points: 2
#     Edge 28, Type (0, 0), BuildingBlock: UVAHIK_clean_linker_0, # of connection points: 2
#     Edge 29, Type (0, 0), BuildingBlock: UVAHIK_clean_linker_0, # of connection points: 2
#     Edge 30, Type (0, 0), BuildingBlock: UVAHIK_clean_linker_0, # of connection points: 2
#     Edge 31, Type (0, 0), BuildingBlock: UVAHIK_clean_linker_0, # of connection points: 2
#     Edge 32, Type (0, 0), BuildingBlock: UVAHIK_clean_linker_0, # of connection points: 2
#     Edge 33, Type (0, 0), BuildingBlock: UVAHIK_clean_linker_0, # of connection points: 2
#     Edge 34, Type (0, 0), BuildingBlock: UVAHIK_clean_linker_0, # of connection points: 2
#     Edge 35, Type (0, 0), BuildingBlock: UVAHIK_clean_linker_0, # of connection points: 2
#     Edge 36, Type (0, 0), BuildingBlock: UVAHIK_clean_linker_0, # of connection points: 2
#     Edge 37, Type (0, 0), BuildingBlock: UVAHIK_clean_linker_0, # of connection points: 2
#     Edge 38, Type (0, 0), BuildingBlock: UVAHIK_clean_linker_0, # of connection points: 2
#     Edge 39, Type (0, 0), BuildingBlock: UVAHIK_clean_linker_0, # of connection points: 2
#     Edge 40, Type (0, 0), BuildingBlock: UVAHIK_clean_linker_0, # of connection points: 2
#     Edge 41, Type (0, 0), BuildingBlock: UVAHIK_clean_linker_0, # of connection points: 2
#     Edge 42, Type (0, 0), BuildingBlock: UVAHIK_clean_linker_0, # of connection points: 2
#     Edge 43, Type (0, 0), BuildingBlock: UVAHIK_clean_linker_0, # of connection points: 2
#     Edge 44, Type (0, 0), BuildingBlock: UVAHIK_clean_linker_0, # of connection points: 2
#     Edge 45, Type (0, 0), BuildingBlock: UVAHIK_clean_linker_0, # of connection points: 2
#     Edge 46, Type (0, 0), BuildingBlock: UVAHIK_clean_linker_0, # of connection points: 2
#     Edge 47, Type (0, 0), BuildingBlock: UVAHIK_clean_linker_0, # of connection points: 2
#     Edge 48, Type (0, 0), BuildingBlock: UVAHIK_clean_linker_0, # of connection points: 2
#     Edge 49, Type (0, 0), BuildingBlock: UVAHIK_clean_linker_0, # of connection points: 2
#     Edge 50, Type (0, 0), BuildingBlock: UVAHIK_clean_linker_0, # of connection points: 2
#     Edge 51, Type (0, 0), BuildingBlock: UVAHIK_clean_linker_0, # of connection points: 2
#     Edge 52, Type (0, 0), BuildingBlock: UVAHIK_clean_linker_0, # of connection points: 2
#     Edge 53, Type (0, 0), BuildingBlock: UVAHIK_clean_linker_0, # of connection points: 2
#     Edge 54, Type (0, 0), BuildingBlock: UVAHIK_clean_linker_0, # of connection points: 2
#     Edge 55, Type (0, 0), BuildingBlock: UVAHIK_clean_linker_0, # of connection points: 2
# Relax obj value: 0.138
# Max RMSD: 0.127
# Mean RMSD: 0.127
data_MOF--net-wgc--node1-BEQFEK_clean_sbu_0--edge1-UVAHIK_clean_linker_0
_symmetry_space_group_name_H-M    P1
_symmetry_Int_Tables_number       1
_symmetry_cell_setting            triclinic
loop_
_symmetry_equiv_pos_as_xyz
'x, y, z'
_cell_length_a     49.733074
_cell_length_b     49.692841
_cell_length_c     71.046825
_cell_angle_alpha  90.003546
_cell_angle_beta   89.999342
_cell_angle_gamma 89.997079
loop_
_atom_site_label
_atom_site_type_symbol
_atom_site_fract_x
_atom_site_fract_y
_atom_site_fract_z
_atom_type_partial_charge
Co0 Co 0.24075 0.11704 0.00959 0.0
Co1 Co 0.30074 0.09876 0.00548 0.0
C2 C 0.27071 0.11684 0.97226 0.0
O3 O 0.25038 0.11996 0.98287 0.0
O4 O 0.29326 0.1092 0.9789 0.0
C5 C 0.20269 0.15795 0.00409 0.0
O6 O 0.22384 0.17 0.99689 0.0
C7 C 0.35679 0.0833 0.99624 0.0
C8 C 0.371 0.06985 0.02418 0.0
C9 C 0.37875 0.0723 0.00555 0.0
N10 N 0.33701 0.08724 0.00887 0.0
N11 N 0.34565 0.07903 0.0255 0.0
C12 C 0.35454 0.09015 0.9758 0.0
H13 H 0.34567 0.11051 0.97424 0.0
H14 H 0.37444 0.08968 0.96874 0.0
H15 H 0.34084 0.07558 0.96886 0.0
C16 C 0.26446 0.15122 0.03912 0.0
N17 N 0.26684 0.13343 0.02496 0.0
N18 N 0.29238 0.12741 0.02252 0.0
C19 C 0.30718 0.1422 0.03467 0.0
C20 C 0.28992 0.15744 0.04569 0.0
C21 C 0.23817 0.16175 0.04628 0.0
H22 H 0.22293 0.14544 0.04629 0.0
H23 H 0.23108 0.17794 0.03676 0.0
H24 H 0.24005 0.17031 0.06063 0.0
O25 O 0.23678 0.07889 0.01565 0.0
O26 O 0.27903 0.066 0.01136 0.0
H27 H 0.34278 0.12596 0.04702 0.0
H28 H 0.34518 0.16088 0.04102 0.0
C29 C 0.33714 0.14118 0.03631 0.0
H30 H 0.34634 0.13578 0.02261 0.0
H31 H 0.33395 0.07907 0.03769 0.0
O32 O 0.20545 0.13487 0.01154 0.0
C33 C 0.25459 0.06056 0.01519 0.0
Co34 Co 0.1168 0.75449 0.98597 0.0
Co35 Co 0.09757 0.69475 0.99024 0.0
C36 C 0.1163 0.72467 0.02334 0.0
O37 O 0.1197 0.7449 0.01266 0.0
O38 O 0.10823 0.70221 0.01679 0.0
C39 C 0.15837 0.7919 0.99132 0.0
O40 O 0.17021 0.7705 -0.00166 0.0
C41 C 0.08105 0.63906 -0.00028 0.0
C42 C 0.06779 0.62462 0.9718 0.0
C43 C 0.06989 0.6171 0.99049 0.0
N44 N 0.08547 0.6586 0.98698 0.0
N45 N 0.07733 0.64984 0.97036 0.0
C46 C 0.08757 0.64153 0.0202 0.0
H47 H 0.10821 0.64967 0.02186 0.0
H48 H 0.08621 0.62182 0.02748 0.0
H49 H 0.07342 0.65596 0.02683 0.0
C50 C 0.15032 0.73016 0.95638 0.0
N51 N 0.13265 0.72807 0.97061 0.0
N52 N 0.12626 0.7026 0.97311 0.0
C53 C 0.14073 0.68755 0.96092 0.0
C54 C 0.15609 0.70457 0.94982 0.0
C55 C 0.16109 0.7563 0.9491 0.0
H56 H 0.14502 0.77179 0.94922 0.0
H57 H 0.17755 0.76317 0.95847 0.0
H58 H 0.16935 0.75426 0.93468 0.0
O59 O 0.07875 0.75906 0.97997 0.0
O60 O 0.06518 0.71699 0.98429 0.0
H61 H 0.12414 0.65207 0.94858 0.0
H62 H 0.15896 0.64929 0.95468 0.0
C63 C 0.13934 0.65757 0.95933 0.0
H64 H 0.13377 0.64849 0.97303 0.0
H65 H 0.07768 0.66138 0.9581 0.0
O66 O 0.13518 0.78952 0.98399 0.0
C67 C 0.06015 0.74153 0.98043 0.0
Co68 Co 0.75385 0.88037 0.00841 0.0
Co69 Co 0.69366 0.8981 0.00461 0.0
C70 C 0.72437 0.88296 0.97096 0.0
O71 O 0.74466 0.87949 0.98155 0.0
O72 O 0.7016 0.88961 0.97775 0.0
C73 C 0.79189 0.83997 0.00173 0.0
O74 O 0.7706 0.8283 0.99443 0.0
C75 C 0.63824 0.91501 0.99521 0.0
C76 C 0.62201 0.92327 0.02358 0.0
C77 C 0.61563 0.92436 0.00464 0.0
N78 N 0.65708 0.90865 0.00805 0.0
N79 N 0.64723 0.91374 0.02496 0.0
C80 C 0.64197 0.91191 0.97443 0.0
H81 H 0.64999 0.89155 0.97136 0.0
H82 H 0.62279 0.91465 0.96669 0.0
H83 H 0.65693 0.92686 0.96943 0.0
C84 C 0.73001 0.84183 0.03517 0.0
N85 N 0.72777 0.86211 0.02275 0.0
N86 N 0.70221 0.86825 0.02053 0.0
C87 C 0.6873 0.85134 0.03116 0.0
C88 C 0.70447 0.83418 0.04081 0.0
C89 C 0.75619 0.83116 0.04242 0.0
H90 H 0.77175 0.84713 0.04213 0.0
H91 H 0.76284 0.81424 0.03336 0.0
H92 H 0.754 0.82355 0.05703 0.0
O93 O 0.75716 0.918 0.01604 0.0
O94 O 0.71484 0.93073 0.01177 0.0
H95 H 0.64945 0.86321 0.04267 0.0
H96 H 0.65017 0.8294 0.03387 0.0
C97 C 0.65724 0.85025 0.0312 0.0
H98 H 0.64912 0.85739 0.01756 0.0
H99 H 0.65805 0.91144 0.03744 0.0
O100 O 0.78931 0.86274 0.00968 0.0
C101 C 0.73914 0.93616 0.01603 0.0
Co102 Co 0.87705 0.2418 0.98798 0.0
Co103 Co 0.89631 0.30163 0.9916 0.0
C104 C 0.87774 0.27239 0.02504 0.0
O105 O 0.87424 0.25195 0.01458 0.0
O106 O 0.88583 0.29469 0.01824 0.0
C107 C 0.83544 0.20454 0.99379 0.0
O108 O 0.82364 0.22611 0.00059 0.0
C109 C 0.913 0.35741 0.00062 0.0
C110 C 0.92609 0.37146 0.97256 0.0
C111 C 0.92416 0.37921 0.99121 0.0
N112 N 0.90841 0.33773 0.98801 0.0
N113 N 0.91645 0.34625 0.97131 0.0
C114 C 0.90666 0.35522 0.02114 0.0
H115 H 0.88599 0.34725 0.02293 0.0
H116 H 0.90822 0.375 0.02831 0.0
H117 H 0.92078 0.34077 0.02779 0.0
C118 C 0.8434 0.26554 0.95821 0.0
N119 N 0.86113 0.26792 0.97239 0.0
N120 N 0.86753 0.29343 0.97462 0.0
C121 C 0.85301 0.30824 0.96231 0.0
C122 C 0.83759 0.29099 0.9514 0.0
C123 C 0.8326 0.23926 0.95121 0.0
H124 H 0.84867 0.22377 0.95145 0.0
H125 H 0.81619 0.23258 0.96069 0.0
H126 H 0.82427 0.241 0.93679 0.0
O127 O 0.91512 0.23709 0.98198 0.0
O128 O 0.92865 0.27928 0.98582 0.0
H129 H 0.86955 0.34343 0.94955 0.0
H130 H 0.83479 0.34639 0.95575 0.0
C131 C 0.85443 0.33818 0.96041 0.0
H132 H 0.86011 0.34754 0.974 0.0
H133 H 0.91599 0.33455 0.95912 0.0
O134 O 0.85862 0.20673 0.98641 0.0
C135 C 0.9337 0.25466 0.98223 0.0
Co136 Co 0.24288 0.37793 0.23715 0.0
Co137 Co 0.30256 0.39792 0.23958 0.0
C138 C 0.27432 0.37922 0.27364 0.0
O139 O 0.25361 0.3748 0.26363 0.0
O140 O 0.29594 0.38835 0.26643 0.0
C141 C 0.20453 0.33708 0.24343 0.0
O142 O 0.22548 0.32487 0.25078 0.0
C143 C 0.35796 0.41568 0.2482 0.0
C144 C 0.37288 0.42528 0.21968 0.0
C145 C 0.38002 0.42572 0.2385 0.0
N146 N 0.3387 0.40951 0.23562 0.0
N147 N 0.34775 0.41543 0.21863 0.0
C148 C 0.35514 0.41178 0.26899 0.0
H149 H 0.34767 0.39116 0.27186 0.0
H150 H 0.37456 0.4147 0.2764 0.0
H151 H 0.34007 0.42623 0.27452 0.0
C152 C 0.26651 0.34149 0.20889 0.0
N153 N 0.26868 0.36149 0.22154 0.0
N154 N 0.29411 0.36845 0.22325 0.0
C155 C 0.30905 0.35238 0.21201 0.0
C156 C 0.292 0.33492 0.20252 0.0
C157 C 0.24038 0.32983 0.20235 0.0
H158 H 0.2243 0.34526 0.20294 0.0
H159 H 0.23477 0.31282 0.21167 0.0
H160 H 0.24209 0.32212 0.18773 0.0
O161 O 0.2382 0.41612 0.23108 0.0
O162 O 0.28038 0.43014 0.23352 0.0
H163 H 0.34608 0.36569 0.19998 0.0
H164 H 0.34665 0.33158 0.20822 0.0
C165 C 0.33911 0.35212 0.21137 0.0
H166 H 0.34758 0.35901 0.22498 0.0
H167 H 0.33646 0.41341 0.20633 0.0
O168 O 0.20759 0.35999 0.23578 0.0
C169 C 0.25557 0.43487 0.23054 0.0
Co170 Co 0.37859 0.75595 0.76053 0.0
Co171 Co 0.39812 0.69606 0.75757 0.0
C172 C 0.38074 0.72504 0.72366 0.0
O173 O 0.37685 0.74565 0.7339 0.0
O174 O 0.38857 0.70283 0.73076 0.0
C175 C 0.33799 0.7941 0.75351 0.0
O176 O 0.3263 0.77292 0.74605 0.0
C177 C 0.41545 0.64039 0.74897 0.0
C178 C 0.42552 0.6257 0.77748 0.0
C179 C 0.42557 0.61835 0.75869 0.0
N180 N 0.40968 0.65985 0.76152 0.0
N181 N 0.41585 0.65092 0.7785 0.0
C182 C 0.4109 0.64294 0.72824 0.0
H183 H 0.39037 0.65083 0.72565 0.0
H184 H 0.41312 0.62332 0.72096 0.0
H185 H 0.42547 0.65759 0.72233 0.0
C186 C 0.34129 0.7318 0.78802 0.0
N187 N 0.3616 0.72985 0.7756 0.0
N188 N 0.36859 0.70442 0.77378 0.0
C189 C 0.35231 0.68929 0.78471 0.0
C190 C 0.33461 0.70618 0.79412 0.0
C191 C 0.32942 0.75784 0.79458 0.0
H192 H 0.3448 0.77398 0.79426 0.0
H193 H 0.31265 0.76354 0.78508 0.0
H194 H 0.32135 0.75593 0.80909 0.0
O195 O 0.41646 0.76042 0.76724 0.0
O196 O 0.43037 0.71833 0.76364 0.0
H197 H 0.36578 0.65208 0.79641 0.0
H198 H 0.33165 0.65151 0.78824 0.0
C199 C 0.35213 0.65919 0.78511 0.0
H200 H 0.35901 0.65096 0.77143 0.0
H201 H 0.41405 0.66233 0.79076 0.0
O202 O 0.36057 0.7913 0.76165 0.0
C203 C 0.43517 0.74299 0.76722 0.0
Co204 Co 0.75556 0.61903 0.23594 0.0
Co205 Co 0.69576 0.59986 0.23893 0.0
C206 C 0.72393 0.61957 0.27255 0.0
O207 O 0.7447 0.6228 0.26239 0.0
O208 O 0.70191 0.6112 0.26549 0.0
C209 C 0.79298 0.66051 0.24166 0.0
O210 O 0.77149 0.67257 0.24833 0.0
C211 C 0.63963 0.58391 0.2473 0.0
C212 C 0.62664 0.56947 0.21931 0.0
C213 C 0.61817 0.57239 0.23774 0.0
N214 N 0.65983 0.58772 0.23498 0.0
N215 N 0.65192 0.5789 0.21832 0.0
C216 C 0.64102 0.59137 0.26767 0.0
H217 H 0.64929 0.612 0.26908 0.0
H218 H 0.62092 0.59056 0.27442 0.0
H219 H 0.65488 0.57738 0.27502 0.0
C220 C 0.73269 0.65197 0.20537 0.0
N221 N 0.72997 0.63449 0.21969 0.0
N222 N 0.70443 0.62811 0.22165 0.0
C223 C 0.68993 0.64235 0.20902 0.0
C224 C 0.70742 0.6576 0.19818 0.0
C225 C 0.75909 0.66292 0.19875 0.0
H226 H 0.77463 0.64691 0.19921 0.0
H227 H 0.76542 0.67936 0.20833 0.0
H228 H 0.75773 0.67126 0.18431 0.0
O229 O 0.76041 0.58072 0.23066 0.0
O230 O 0.71817 0.56726 0.23401 0.0
H231 H 0.65511 0.62521 0.19618 0.0
H232 H 0.6519 0.66023 0.20164 0.0
C233 C 0.66007 0.64081 0.20679 0.0
H234 H 0.6504 0.63565 0.22037 0.0
H235 H 0.66408 0.57873 0.20635 0.0
O236 O 0.79067 0.63724 0.23443 0.0
C237 C 0.74288 0.56212 0.23092 0.0
Co238 Co 0.61949 0.24189 0.75854 0.0
Co239 Co 0.60063 0.30195 0.75554 0.0
C240 C 0.61923 0.27332 0.72181 0.0
O241 O 0.62249 0.25259 0.73203 0.0
O242 O 0.61123 0.29552 0.72884 0.0
C243 C 0.66045 0.20395 0.75227 0.0
O244 O 0.67255 0.22535 0.74547 0.0
C245 C 0.58342 0.35778 0.74724 0.0
C246 C 0.57333 0.37209 0.77584 0.0
C247 C 0.57335 0.37971 0.75711 0.0
N248 N 0.58914 0.33814 0.75965 0.0
N249 N 0.58293 0.34683 0.77668 0.0
C250 C 0.58787 0.35547 0.72648 0.0
H251 H 0.60841 0.34765 0.7238 0.0
H252 H 0.58556 0.37516 0.71931 0.0
H253 H 0.57332 0.34083 0.72053 0.0
C254 C 0.65569 0.2653 0.78704 0.0
N255 N 0.63601 0.26762 0.77417 0.0
N256 N 0.62945 0.29315 0.77228 0.0
C257 C 0.64546 0.30798 0.7836 0.0
C258 C 0.66246 0.29078 0.79336 0.0
C259 C 0.66685 0.23906 0.79381 0.0
H260 H 0.65133 0.2231 0.79294 0.0
H261 H 0.68414 0.23327 0.78481 0.0
H262 H 0.67403 0.24074 0.80856 0.0
O263 O 0.58134 0.23756 0.76444 0.0
O264 O 0.56798 0.27983 0.76089 0.0
H265 H 0.63251 0.34541 0.79526 0.0
H266 H 0.66674 0.34536 0.78732 0.0
C267 C 0.64616 0.33808 0.78404 0.0
H268 H 0.63965 0.34647 0.77032 0.0
H269 H 0.58464 0.33523 0.78887 0.0
O270 O 0.63737 0.20649 0.75974 0.0
C271 C 0.56281 0.25517 0.76421 0.0
Co272 Co 0.7382 0.61666 0.50954 0.0
Co273 Co 0.79766 0.59707 0.50523 0.0
C274 C 0.7681 0.6159 0.47212 0.0
O275 O 0.74789 0.61932 0.4828 0.0
O276 O 0.79055 0.60786 0.47869 0.0
C277 C 0.70163 0.65858 0.5037 0.0
O278 O 0.72339 0.66997 0.49688 0.0
C279 C 0.85322 0.58023 0.49592 0.0
C280 C 0.86768 0.56752 0.52397 0.0
C281 C 0.8752 0.56937 0.50527 0.0
N282 N 0.83366 0.58476 0.50861 0.0
N283 N 0.84241 0.57693 0.5253 0.0
C284 C 0.85081 0.58649 0.4754 0.0
H285 H 0.84316 0.60731 0.47362 0.0
H286 H 0.87041 0.58456 0.46807 0.0
H287 H 0.83599 0.57261 0.46891 0.0
C288 C 0.76292 0.65072 0.53883 0.0
N289 N 0.76467 0.63247 0.52491 0.0
N290 N 0.79004 0.6259 0.5223 0.0
C291 C 0.80539 0.6408 0.53404 0.0
C292 C 0.78865 0.65668 0.54504 0.0
C293 C 0.73702 0.66245 0.54578 0.0
H294 H 0.72106 0.64686 0.54569 0.0
H295 H 0.73084 0.67894 0.53619 0.0
H296 H 0.73906 0.67096 0.56012 0.0
O297 O 0.7332 0.57859 0.51553 0.0
O298 O 0.77512 0.56479 0.51097 0.0
H299 H 0.84121 0.6245 0.54604 0.0
H300 H 0.84394 0.65912 0.5394 0.0
C301 C 0.8354 0.63942 0.53518 0.0
H302 H 0.84402 0.63344 0.52142 0.0
H303 H 0.83088 0.57751 0.53757 0.0
O304 O 0.70343 0.63546 0.51123 0.0
C305 C 0.75058 0.55986 0.51486 0.0
Co306 Co 0.61294 0.25254 0.4851 0.0
Co307 Co 0.59755 0.19199 0.49079 0.0
C308 C 0.6153 0.22367 0.52304 0.0
O309 O 0.61676 0.24372 0.51197 0.0
O310 O 0.60887 0.20041 0.51698 0.0
C311 C 0.65314 0.29128 0.48968 0.0
O312 O 0.6657 0.27016 0.49651 0.0
C313 C 0.58266 0.13596 0.50075 0.0
C314 C 0.57081 0.12049 0.47278 0.0
C315 C 0.57244 0.11346 0.49159 0.0
N316 N 0.58698 0.15531 0.48784 0.0
N317 N 0.57969 0.14592 0.4712 0.0
C318 C 0.58829 0.13916 0.5213 0.0
H319 H 0.60847 0.14824 0.52324 0.0
H320 H 0.58753 0.11957 0.52877 0.0
H321 H 0.57327 0.15308 0.52751 0.0
C322 C 0.64722 0.2291 0.45554 0.0
N323 N 0.62992 0.22657 0.46997 0.0
N324 N 0.62521 0.20088 0.4731 0.0
C325 C 0.6405 0.1862 0.46118 0.0
C326 C 0.65456 0.20362 0.44954 0.0
C327 C 0.65645 0.25552 0.44775 0.0
H328 H 0.63974 0.2703 0.44809 0.0
H329 H 0.67306 0.26331 0.45663 0.0
H330 H 0.6641 0.25352 0.43316 0.0
O331 O 0.57462 0.25495 0.47922 0.0
O332 O 0.56386 0.21258 0.48552 0.0
H333 H 0.62688 0.14892 0.44967 0.0
H334 H 0.66156 0.14898 0.45638 0.0
C335 C 0.64126 0.15613 0.46048 0.0
H336 H 0.63589 0.14747 0.47436 0.0
H337 H 0.58008 0.15719 0.45881 0.0
O338 O 0.62981 0.28832 0.48269 0.0
C339 C 0.55715 0.23644 0.48091 0.0
Co340 Co 0.25028 0.37338 0.50853 0.0
Co341 Co 0.19231 0.39814 0.50603 0.0
C342 C 0.21973 0.37823 0.47185 0.0
O343 O 0.23993 0.37196 0.48189 0.0
O344 O 0.19874 0.38868 0.47911 0.0
C345 C 0.2866 0.33132 0.50054 0.0
O346 O 0.26623 0.32296 0.49032 0.0
C347 C 0.13702 0.41649 0.49735 0.0
C348 C 0.12441 0.4319 0.52517 0.0
C349 C 0.11591 0.42884 0.50676 0.0
N350 N 0.15708 0.41235 0.50972 0.0
N351 N 0.14943 0.42177 0.52628 0.0
C352 C 0.13805 0.40825 0.47712 0.0
H353 H 0.14612 0.38749 0.47601 0.0
H354 H 0.11786 0.40903 0.47049 0.0
H355 H 0.1519 0.42187 0.46942 0.0
C356 C 0.22354 0.33883 0.53657 0.0
N357 N 0.22292 0.3586 0.52365 0.0
N358 N 0.19827 0.36808 0.52229 0.0
C359 C 0.18234 0.35428 0.53428 0.0
C360 C 0.19786 0.33541 0.54369 0.0
C361 C 0.24863 0.32482 0.54282 0.0
H362 H 0.26547 0.33941 0.54363 0.0
H363 H 0.25395 0.30916 0.53233 0.0
H364 H 0.24593 0.31505 0.55674 0.0
O365 O 0.25779 0.41119 0.51509 0.0
O366 O 0.21671 0.42823 0.51264 0.0
H367 H 0.14926 0.37466 0.54703 0.0
H368 H 0.14291 0.33989 0.54182 0.0
C369 C 0.15274 0.35849 0.53656 0.0
H370 H 0.14356 0.36439 0.52296 0.0
H371 H 0.16149 0.42162 0.53829 0.0
O372 O 0.28396 0.35246 0.51044 0.0
C373 C 0.24174 0.4311 0.51581 0.0
Co374 Co 0.37912 0.7393 0.48631 0.0
Co375 Co 0.39688 0.79964 0.49008 0.0
C376 C 0.38224 0.76857 0.52376 0.0
O377 O 0.37858 0.74821 0.51324 0.0
O378 O 0.38883 0.79132 0.51689 0.0
C379 C 0.33996 0.69996 0.49351 0.0
O380 O 0.32835 0.72062 0.50171 0.0
C381 C 0.41342 0.8551 0.49981 0.0
C382 C 0.42222 0.87153 0.47157 0.0
C383 C 0.42298 0.87778 0.49054 0.0
N384 N 0.40729 0.83634 0.48684 0.0
N385 N 0.41268 0.84631 0.47001 0.0
C386 C 0.40988 0.85125 0.52054 0.0
H387 H 0.38959 0.84291 0.52335 0.0
H388 H 0.41216 0.87046 0.52834 0.0
H389 H 0.42493 0.83649 0.52568 0.0
C390 C 0.33995 0.76344 0.46008 0.0
N391 N 0.3605 0.76555 0.47228 0.0
N392 N 0.36685 0.7911 0.47442 0.0
C393 C 0.3499 0.80613 0.46393 0.0
C394 C 0.33244 0.78907 0.45446 0.0
C395 C 0.32887 0.73729 0.45306 0.0
H396 H 0.34483 0.72172 0.45288 0.0
H397 H 0.31255 0.73057 0.46262 0.0
H398 H 0.32042 0.73952 0.43869 0.0
O399 O 0.41663 0.73635 0.47836 0.0
O400 O 0.42934 0.77871 0.48252 0.0
H401 H 0.36228 0.84384 0.45243 0.0
H402 H 0.32838 0.84353 0.46106 0.0
C403 C 0.3491 0.83622 0.46383 0.0
H404 H 0.35619 0.84431 0.4775 0.0
H405 H 0.41061 0.83557 0.45748 0.0
O406 O 0.36201 0.70352 0.48482 0.0
C407 C 0.43471 0.75442 0.47817 0.0
Co408 Co 0.74265 0.87861 0.73411 0.0
Co409 Co 0.80252 0.89734 0.73817 0.0
C410 C 0.77223 0.87975 0.77151 0.0
O411 O 0.75191 0.87618 0.76096 0.0
O412 O 0.79468 0.8875 0.76477 0.0
C413 C 0.70408 0.83797 0.73965 0.0
O414 O 0.72493 0.82566 0.74707 0.0
C415 C 0.85786 0.9142 0.74792 0.0
C416 C 0.87374 0.92445 0.71976 0.0
C417 C 0.88032 0.92429 0.73868 0.0
N418 N 0.83893 0.90859 0.73497 0.0
N419 N 0.84855 0.91489 0.7182 0.0
C420 C 0.85439 0.90969 0.76859 0.0
H421 H 0.84655 0.88909 0.77102 0.0
H422 H 0.87363 0.9121 0.77631 0.0
H423 H 0.83936 0.92417 0.77414 0.0
C424 C 0.76712 0.84209 0.70615 0.0
N425 N 0.76898 0.86163 0.71919 0.0
N426 N 0.79441 0.86818 0.72155 0.0
C427 C 0.80963 0.85227 0.71041 0.0
C428 C 0.79282 0.83539 0.70022 0.0
C429 C 0.74111 0.83133 0.69868 0.0
H430 H 0.7253 0.84703 0.69933 0.0
H431 H 0.73472 0.81396 0.70741 0.0
H432 H 0.74338 0.82439 0.68392 0.0
O433 O 0.73877 0.9167 0.72765 0.0
O434 O 0.78093 0.92995 0.73181 0.0
H435 H 0.84735 0.86557 0.69944 0.0
H436 H 0.84719 0.8312 0.70715 0.0
C437 C 0.83971 0.85172 0.71045 0.0
H438 H 0.84761 0.85808 0.72434 0.0
H439 H 0.83762 0.91333 0.70571 0.0
O440 O 0.70729 0.86096 0.73215 0.0
C441 C 0.75647 0.93515 0.72791 0.0
Co442 Co 0.87904 0.25456 0.26186 0.0
Co443 Co 0.89802 0.19469 0.25773 0.0
C444 C 0.88077 0.22511 0.2244 0.0
O445 O 0.87722 0.24537 0.23502 0.0
O446 O 0.88826 0.20251 0.23108 0.0
C447 C 0.83837 0.29276 0.25572 0.0
O448 O 0.82662 0.2717 0.24813 0.0
C449 C 0.9157 0.13958 0.24795 0.0
C450 C 0.92496 0.12333 0.27618 0.0
C451 C 0.92561 0.11705 0.2572 0.0
N452 N 0.90941 0.15828 0.26093 0.0
N453 N 0.91512 0.14843 0.27774 0.0
C454 C 0.91195 0.14334 0.22723 0.0
H455 H 0.89132 0.15084 0.22447 0.0
H456 H 0.915 0.12428 0.21939 0.0
H457 H 0.92633 0.15876 0.2221 0.0
C458 C 0.84172 0.22975 0.28902 0.0
N459 N 0.86191 0.22804 0.27649 0.0
N460 N 0.86864 0.20262 0.2742 0.0
C461 C 0.85227 0.18726 0.28493 0.0
C462 C 0.83482 0.204 0.29468 0.0
C463 C 0.83015 0.25563 0.29612 0.0
H464 H 0.84566 0.27166 0.29599 0.0
H465 H 0.81329 0.2618 0.28685 0.0
H466 H 0.82226 0.25325 0.31064 0.0
O467 O 0.9169 0.25856 0.26865 0.0
O468 O 0.93047 0.21654 0.26414 0.0
H469 H 0.86509 0.14951 0.29612 0.0
H470 H 0.83111 0.14965 0.28768 0.0
C471 C 0.85174 0.15717 0.28482 0.0
H472 H 0.85872 0.14931 0.27106 0.0
H473 H 0.91298 0.15916 0.29028 0.0
O474 O 0.86112 0.28987 0.26362 0.0
C475 C 0.93548 0.241 0.26823 0.0
Co476 Co 0.25399 0.12 0.73547 0.0
Co477 Co 0.19468 0.09935 0.73924 0.0
C478 C 0.22435 0.11777 0.77275 0.0
O479 O 0.24464 0.12204 0.76228 0.0
O480 O 0.20218 0.10936 0.76591 0.0
C481 C 0.29241 0.16101 0.74131 0.0
O482 O 0.2719 0.17276 0.74959 0.0
C483 C 0.13904 0.08259 0.74857 0.0
C484 C 0.12473 0.06966 0.72053 0.0
C485 C 0.11713 0.07155 0.73922 0.0
N486 N 0.15864 0.0871 0.73589 0.0
N487 N 0.14995 0.07918 0.71921 0.0
C488 C 0.14132 0.08914 0.76905 0.0
H489 H 0.14973 0.10968 0.77073 0.0
H490 H 0.12152 0.08809 0.7762 0.0
H491 H 0.15544 0.07479 0.7758 0.0
C492 C 0.22839 0.15639 0.70784 0.0
N493 N 0.22718 0.13648 0.72065 0.0
N494 N 0.20202 0.1287 0.72264 0.0
C495 C 0.18638 0.14388 0.71128 0.0
C496 C 0.20262 0.16174 0.70156 0.0
C497 C 0.25384 0.16927 0.70114 0.0
H498 H 0.27031 0.15423 0.70075 0.0
H499 H 0.25953 0.18555 0.71104 0.0
H500 H 0.2512 0.17822 0.68694 0.0
O501 O 0.25888 0.08195 0.72891 0.0
O502 O 0.21709 0.06746 0.73284 0.0
H503 H 0.15063 0.12724 0.69942 0.0
H504 H 0.14779 0.16202 0.7059 0.0
C505 C 0.15639 0.14233 0.71019 0.0
H506 H 0.14786 0.13635 0.72399 0.0
H507 H 0.1615 0.07977 0.70695 0.0
O508 O 0.28898 0.13838 0.73333 0.0
C509 C 0.24171 0.06299 0.72903 0.0
Co510 Co 0.11801 0.74202 0.25963 0.0
Co511 Co 0.09986 0.80219 0.25591 0.0
C512 C 0.11816 0.77254 0.22254 0.0
O513 O 0.12118 0.75201 0.233 0.0
O514 O 0.11047 0.79499 0.22933 0.0
C515 C 0.1587 0.70378 0.25389 0.0
O516 O 0.17077 0.72495 0.24672 0.0
C517 C 0.08458 0.85842 0.24692 0.0
C518 C 0.07076 0.8723 0.27485 0.0
C519 C 0.07348 0.88029 0.25629 0.0
N520 N 0.08836 0.83847 0.25946 0.0
N521 N 0.0799 0.84691 0.27608 0.0
C522 C 0.09164 0.85641 0.22651 0.0
H523 H 0.11202 0.84758 0.225 0.0
H524 H 0.0912 0.87639 0.21955 0.0
H525 H 0.07718 0.84274 0.21943 0.0
C526 C 0.15178 0.7652 0.28954 0.0
N527 N 0.1343 0.76789 0.27524 0.0
N528 N 0.12831 0.7935 0.27302 0.0
C529 C 0.14281 0.80805 0.28548 0.0
C530 C 0.15781 0.79054 0.29647 0.0
C531 C 0.16209 0.73873 0.29655 0.0
H532 H 0.14562 0.72367 0.29659 0.0
H533 H 0.17804 0.7315 0.28688 0.0
H534 H 0.17087 0.74038 0.31084 0.0
O535 O 0.07986 0.73808 0.26557 0.0
O536 O 0.06709 0.78047 0.26161 0.0
H537 H 0.12624 0.84328 0.29817 0.0
H538 H 0.1612 0.84598 0.29248 0.0
C539 C 0.14163 0.83798 0.28751 0.0
H540 H 0.13644 0.84753 0.27389 0.0
H541 H 0.07974 0.83504 0.28819 0.0
O542 O 0.13571 0.7066 0.26144 0.0
C543 C 0.06159 0.75598 0.26525 0.0
C544 C 0.28853 0.11893 0.93906 0.0
C545 C 0.2669 0.12054 0.95175 0.0
C546 C 0.28396 0.12083 0.91963 0.0
C547 C 0.23222 0.10769 0.88458 0.0
H548 H 0.27185 0.15637 0.85225 0.0
C549 C 0.20594 0.1188 0.80578 0.0
C550 C 0.22772 0.12128 0.79331 0.0
C551 C 0.21004 0.12075 0.82524 0.0
C552 C 0.2608 0.1424 0.86102 0.0
H553 H 0.22359 0.12596 0.95394 0.0
H554 H 0.21585 0.12881 0.9203 0.0
H555 H 0.28183 0.15498 0.88588 0.0
H556 H 0.27085 0.128 0.79155 0.0
H557 H 0.27798 0.13046 0.82511 0.0
H558 H 0.21175 0.09437 0.85984 0.0
C559 C 0.23623 0.12607 0.92533 0.0
C560 C 0.26654 0.14168 0.88027 0.0
C561 C 0.24078 0.12455 0.94463 0.0
C562 C 0.25352 0.12612 0.80069 0.0
C563 C 0.25763 0.12776 0.82004 0.0
C564 C 0.22674 0.1081 0.86531 0.0
C565 C 0.25768 0.12396 0.91265 0.0
C566 C 0.25226 0.12436 0.8922 0.0
C567 C 0.23602 0.12495 0.8326 0.0
C568 C 0.24097 0.12544 0.85326 0.0
H569 H 0.30886 0.11587 0.94409 0.0
H570 H 0.30082 0.11911 0.91006 0.0
H571 H 0.22107 0.09398 0.89351 0.0
H572 H 0.18582 0.11517 0.80054 0.0
H573 H 0.19284 0.11891 0.83449 0.0
C574 C 0.11814 0.70709 0.05662 0.0
C575 C 0.12026 0.72856 0.04382 0.0
C576 C 0.1203 0.71181 0.07601 0.0
C577 C 0.10874 0.76427 0.11082 0.0
H578 H 0.15658 0.72381 0.14324 0.0
C579 C 0.12028 0.79088 0.18951 0.0
C580 C 0.12211 0.76908 0.20203 0.0
C581 C 0.12236 0.78665 0.17007 0.0
C582 C 0.14285 0.7351 0.13445 0.0
H583 H 0.1269 0.77172 0.0414 0.0
H584 H 0.1302 0.77971 0.07498 0.0
H585 H 0.15478 0.71347 0.10967 0.0
H586 H 0.12795 0.72579 0.2039 0.0
H587 H 0.1306 0.71846 0.17038 0.0
H588 H 0.09604 0.78534 0.13547 0.0
C589 C 0.12685 0.75935 0.07006 0.0
C590 C 0.1419 0.72916 0.11523 0.0
C591 C 0.12506 0.75465 0.05079 0.0
C592 C 0.12654 0.74314 0.19472 0.0
C593 C 0.1283 0.73891 0.1754 0.0
C594 C 0.10938 0.76996 0.13005 0.0
C595 C 0.12421 0.73808 0.08285 0.0
C596 C 0.12486 0.74373 0.10327 0.0
C597 C 0.12604 0.76053 0.16278 0.0
C598 C 0.12641 0.75543 0.14214 0.0
H599 H 0.11446 0.68679 0.0517 0.0
H600 H 0.11817 0.69509 0.08568 0.0
H601 H 0.09527 0.77565 0.10186 0.0
H602 H 0.11698 0.81111 0.19469 0.0
H603 H 0.12095 0.80385 0.16077 0.0
C604 C 0.70658 0.88082 0.93776 0.0
C605 C 0.72832 0.88033 0.9504 0.0
C606 C 0.71115 0.87911 0.91833 0.0
C607 C 0.76235 0.89355 0.8829 0.0
H608 H 0.72457 0.84229 0.85144 0.0
C609 C 0.79014 0.87965 0.80467 0.0
C610 C 0.76862 0.87637 0.79207 0.0
C611 C 0.78576 0.87828 0.82411 0.0
C612 C 0.73509 0.85696 0.85997 0.0
H613 H 0.77188 0.87749 0.95249 0.0
H614 H 0.77961 0.87491 0.91885 0.0
H615 H 0.71434 0.84469 0.88501 0.0
H616 H 0.7257 0.86856 0.79007 0.0
H617 H 0.71807 0.86701 0.82363 0.0
H618 H 0.78262 0.90644 0.85797 0.0
C619 C 0.75913 0.87661 0.92391 0.0
C620 C 0.72919 0.85828 0.87918 0.0
C621 C 0.7546 0.87794 0.94321 0.0
C622 C 0.74282 0.87112 0.79932 0.0
C623 C 0.73843 0.87002 0.81866 0.0
C624 C 0.76801 0.8925 0.86367 0.0
C625 C 0.73752 0.87732 0.91128 0.0
C626 C 0.74285 0.87652 0.89081 0.0
C627 C 0.75975 0.87382 0.83134 0.0
C628 C 0.75447 0.87417 0.85195 0.0
H629 H 0.68613 0.88262 0.94285 0.0
H630 H 0.69416 0.87977 0.9088 0.0
H631 H 0.773 0.90798 0.89158 0.0
H632 H 0.81027 0.88361 0.79954 0.0
H633 H 0.80275 0.88085 0.83347 0.0
C634 C 0.87754 0.29039 0.05823 0.0
C635 C 0.87405 0.26891 0.04558 0.0
C636 C 0.87605 0.28592 0.07768 0.0
C637 C 0.88735 0.23322 0.11233 0.0
H638 H 0.84323 0.27593 0.14592 0.0
C639 C 0.87797 0.20714 0.1913 0.0
C640 C 0.87735 0.22893 0.20388 0.0
C641 C 0.87568 0.21155 0.1719 0.0
C642 C 0.85595 0.264 0.13678 0.0
H643 H 0.86544 0.22607 0.0435 0.0
H644 H 0.86328 0.21849 0.07718 0.0
H645 H 0.84355 0.28599 0.11229 0.0
H646 H 0.87386 0.27245 0.20591 0.0
H647 H 0.87084 0.28006 0.17241 0.0
H648 H 0.90051 0.21174 0.13669 0.0
C649 C 0.86725 0.23866 0.07209 0.0
C650 C 0.85604 0.26978 0.11754 0.0
C651 C 0.86839 0.24312 0.05277 0.0
C652 C 0.87422 0.2551 0.19667 0.0
C653 C 0.87227 0.25951 0.17737 0.0
C654 C 0.88758 0.22767 0.13159 0.0
C655 C 0.87141 0.25988 0.08472 0.0
C656 C 0.87169 0.25439 0.10516 0.0
C657 C 0.87302 0.23785 0.1647 0.0
C658 C 0.8719 0.243 0.14408 0.0
H659 H 0.8819 0.31047 0.05314 0.0
H660 H 0.87934 0.30261 0.08722 0.0
H661 H 0.89978 0.22121 0.10305 0.0
H662 H 0.88026 0.18674 0.19642 0.0
H663 H 0.87596 0.19433 0.16255 0.0
C664 C 0.25095 0.3592 0.30126 0.0
C665 C 0.2719 0.37526 0.29417 0.0
C666 C 0.24579 0.35814 0.32051 0.0
C667 C 0.22694 0.37477 0.35902 0.0
H668 H 0.28308 0.37313 0.39679 0.0
C669 C 0.20643 0.39003 0.43876 0.0
C670 C 0.2221 0.37477 0.45127 0.0
C671 C 0.21176 0.38934 0.4194 0.0
C672 C 0.26713 0.37335 0.38641 0.0
H673 H 0.30465 0.40189 0.30178 0.0
H674 H 0.29542 0.40033 0.33559 0.0
H675 H 0.29518 0.37245 0.36358 0.0
H676 H 0.25437 0.34548 0.45324 0.0
H677 H 0.26307 0.34374 0.41966 0.0
H678 H 0.19887 0.37499 0.38186 0.0
C679 C 0.28312 0.38837 0.3262 0.0
C680 C 0.27411 0.3733 0.36737 0.0
C681 C 0.28843 0.38927 0.30685 0.0
C682 C 0.24216 0.35777 0.44399 0.0
C683 C 0.24732 0.35693 0.42474 0.0
C684 C 0.21995 0.37473 0.37806 0.0
C685 C 0.26131 0.37328 0.33317 0.0
C686 C 0.25409 0.37383 0.35345 0.0
C687 C 0.23271 0.37322 0.41226 0.0
C688 C 0.23997 0.37382 0.39198 0.0
H689 H 0.23805 0.34787 0.29186 0.0
H690 H 0.22934 0.34572 0.32544 0.0
H691 H 0.211 0.37568 0.34865 0.0
H692 H 0.19092 0.40339 0.44397 0.0
H693 H 0.20017 0.4022 0.41015 0.0
C694 C 0.38121 0.70631 0.69069 0.0
C695 C 0.37761 0.72811 0.70305 0.0
C696 C 0.37997 0.71028 0.67119 0.0
C697 C 0.39113 0.76224 0.63585 0.0
H698 H 0.34763 0.71806 0.6028 0.0
C699 C 0.38008 0.7868 0.55678 0.0
C700 C 0.37975 0.76484 0.54434 0.0
C701 C 0.37836 0.78258 0.57622 0.0
C702 C 0.36017 0.73039 0.61179 0.0
H703 H 0.36916 0.77103 0.70456 0.0
H704 H 0.36738 0.77775 0.67079 0.0
H705 H 0.34807 0.70887 0.63655 0.0
H706 H 0.3775 0.72122 0.5426 0.0
H707 H 0.37541 0.71396 0.5762 0.0
H708 H 0.4039 0.78335 0.61122 0.0
C709 C 0.37126 0.75771 0.67614 0.0
C710 C 0.36035 0.7251 0.6311 0.0
C711 C 0.37217 0.75374 0.69551 0.0
C712 C 0.3776 0.73867 0.55174 0.0
C713 C 0.37619 0.73447 0.57108 0.0
C714 C 0.39125 0.76732 0.61653 0.0
C715 C 0.37546 0.73614 0.6638 0.0
C716 C 0.37576 0.74105 0.64328 0.0
C717 C 0.37656 0.75632 0.5836 0.0
C718 C 0.37576 0.75148 0.60425 0.0
H719 H 0.3854 0.68634 0.69605 0.0
H720 H 0.3833 0.69333 0.66188 0.0
H721 H 0.4034 0.77467 0.64498 0.0
H722 H 0.38162 0.80719 0.55151 0.0
H723 H 0.37832 0.79992 0.58546 0.0
C724 C 0.78593 0.61888 0.43895 0.0
C725 C 0.76426 0.61987 0.45164 0.0
C726 C 0.78138 0.62134 0.41956 0.0
C727 C 0.73001 0.60875 0.38416 0.0
H728 H 0.76894 0.6593 0.35283 0.0
C729 C 0.70466 0.62092 0.30534 0.0
C730 C 0.72663 0.62388 0.2931 0.0
C731 C 0.7083 0.62295 0.32485 0.0
C732 C 0.75809 0.64482 0.36132 0.0
H733 H 0.72087 0.62461 0.45386 0.0
H734 H 0.71317 0.62838 0.42025 0.0
H735 H 0.77874 0.65687 0.38646 0.0
H736 H 0.76957 0.63189 0.29178 0.0
H737 H 0.77596 0.63446 0.32539 0.0
H738 H 0.70998 0.59592 0.35913 0.0
C739 C 0.73357 0.62575 0.42527 0.0
C740 C 0.76373 0.64351 0.38057 0.0
C741 C 0.7381 0.62371 0.44455 0.0
C742 C 0.75211 0.62955 0.30074 0.0
C743 C 0.75578 0.63126 0.32012 0.0
C744 C 0.72465 0.60975 0.36489 0.0
C745 C 0.75508 0.62437 0.41259 0.0
C746 C 0.74972 0.62548 0.39214 0.0
C747 C 0.73403 0.62771 0.33248 0.0
C748 C 0.73866 0.62776 0.35319 0.0
H749 H 0.80629 0.61597 0.44397 0.0
H750 H 0.79829 0.62016 0.40998 0.0
H751 H 0.71907 0.59452 0.39281 0.0
H752 H 0.68476 0.61666 0.29991 0.0
H753 H 0.69099 0.62057 0.33393 0.0
C754 C 0.62284 0.25509 0.54989 0.0
C755 C 0.61976 0.22851 0.54336 0.0
C756 C 0.6252 0.26046 0.56905 0.0
C757 C 0.64442 0.23231 0.61424 0.0
H758 H 0.59571 0.28561 0.635 0.0
C759 C 0.62939 0.24487 0.6938 0.0
C760 C 0.62341 0.2704 0.70127 0.0
C761 C 0.63132 0.24099 0.67445 0.0
C762 C 0.60985 0.27109 0.62942 0.0
H763 H 0.61762 0.18665 0.55189 0.0
H764 H 0.62228 0.19617 0.58564 0.0
H765 H 0.59451 0.27561 0.60144 0.0
H766 H 0.61578 0.31214 0.6942 0.0
H767 H 0.61998 0.30553 0.66021 0.0
H768 H 0.66021 0.22807 0.64205 0.0
C769 C 0.62265 0.21274 0.57573 0.0
C770 C 0.60899 0.26522 0.61021 0.0
C771 C 0.61993 0.20732 0.55647 0.0
C772 C 0.62028 0.29221 0.68889 0.0
C773 C 0.6225 0.28835 0.66941 0.0
C774 C 0.64557 0.23845 0.63341 0.0
C775 C 0.62487 0.23942 0.58216 0.0
C776 C 0.62609 0.24561 0.60249 0.0
C777 C 0.62768 0.26258 0.66196 0.0
C778 C 0.62805 0.25768 0.6413 0.0
H779 H 0.62289 0.27196 0.54024 0.0
H780 H 0.62721 0.28116 0.57364 0.0
H781 H 0.65807 0.2174 0.60855 0.0
H782 H 0.63188 0.22752 0.70286 0.0
H783 H 0.63481 0.22078 0.66931 0.0
C784 C 0.26561 0.0115 0.01826 0.0
C785 C 0.24632 0.03214 0.01737 0.0
C786 C 0.25768 0.98452 0.01802 0.0
C787 C 0.19772 0.93981 0.02235 0.0
H788 H 0.23925 0.89252 0.99006 0.0
C789 C 0.15484 0.84203 0.99148 0.0
C790 C 0.17054 0.81876 0.99376 0.0
C791 C 0.16551 0.86733 0.99557 0.0
C792 C 0.22764 0.90545 -0.00074 0.0
H793 H 0.20353 0.0406 0.01624 0.0
H794 H 0.18981 0.99382 0.01532 0.0
H795 H 0.25533 0.93804 0.99627 0.0
H796 H 0.21002 0.80378 0.00146 0.0
H797 H 0.22886 0.84825 0.00821 0.0
H798 H 0.16949 0.90744 0.02463 0.0
C799 C 0.21104 -0.00169 0.01658 0.0
C800 C 0.23689 0.93147 0.00293 0.0
C801 C 0.21893 0.02523 0.01701 0.0
C802 C 0.19742 0.82137 -0.0004 0.0
C803 C 0.20822 0.84676 0.00344 0.0
C804 C 0.18833 0.91394 0.01847 0.0
C805 C 0.23032 0.9776 0.01672 0.0
C806 C 0.22184 0.94911 0.01431 0.0
C807 C 0.19219 0.86989 0.00177 0.0
C808 C 0.20301 0.89668 0.00668 0.0
H809 H 0.28688 0.01616 0.01871 0.0
H810 H 0.27304 0.96909 0.01853 0.0
H811 H 0.1859 0.95261 0.0315 0.0
H812 H 0.13405 0.84069 0.98703 0.0
H813 H 0.15286 0.88493 0.99394 0.0
C814 C 0.02539 0.77775 0.97864 0.0
C815 C 0.03192 0.75025 0.97813 0.0
C816 C -0.0014 0.78603 0.97883 0.0
C817 C 0.93109 0.76088 0.99135 0.0
H818 H 0.90854 0.82891 0.96976 0.0
C819 C 0.82142 0.80109 0.9932 0.0
C820 C 0.81876 0.82788 -0.00073 0.0
C821 C 0.84684 0.79026 0.9896 0.0
C822 C 0.91463 0.8099 0.97589 0.0
H823 H 0.01542 0.70992 0.97629 0.0
H824 H 0.96859 0.72444 0.97604 0.0
H825 H 0.95373 0.81209 0.96352 0.0
H826 H 0.84059 0.86422 0.00657 0.0
H827 H 0.88493 0.84534 7e-05 0.0
H828 H 0.89173 0.75874 0.00355 0.0
C829 C 0.9842 0.73957 0.97686 0.0
C830 C 0.9405 0.80027 0.97237 0.0
C831 C 0.01105 0.73126 0.97687 0.0
C832 C 0.84199 0.8435 0.00194 0.0
C833 C 0.86734 0.83279 -0.00191 0.0
C834 C 0.90508 0.77037 0.99466 0.0
C835 C 0.97765 0.76704 0.97828 0.0
C836 C 0.94925 0.7759 0.98036 0.0
C837 C 0.86996 0.80616 0.99174 0.0
C838 C 0.89683 0.7952 0.98725 0.0
H839 H 0.04095 0.79293 0.97969 0.0
H840 H 0.9944 0.80732 0.98021 0.0
H841 H 0.93723 0.74224 -0.00202 0.0
H842 H 0.80386 0.78857 0.99104 0.0
H843 H 0.84838 0.76967 0.9847 0.0
C844 C 0.77448 0.9716 0.01931 0.0
C845 C 0.74713 0.96451 0.01903 0.0
C846 C 0.78222 -0.00142 0.01936 0.0
C847 C 0.75642 0.06536 0.00564 0.0
H848 H 0.82327 0.08946 0.02811 0.0
C849 C 0.79621 0.17535 0.00216 0.0
C850 C 0.82318 0.17776 0.99648 0.0
C851 C 0.78527 0.15007 0.00614 0.0
C852 C 0.80458 0.08294 0.02175 0.0
H853 H 0.70644 0.98023 0.01988 0.0
H854 H 0.71999 0.02738 0.02055 0.0
H855 H 0.80669 0.0443 0.03485 0.0
H856 H 0.85971 0.1556 0.99025 0.0
H857 H 0.84065 0.11155 0.99742 0.0
H858 H 0.75439 0.10427 0.99268 0.0
C859 C 0.73546 0.01205 0.02015 0.0
C860 C 0.79509 0.05708 0.02555 0.0
C861 C 0.72769 0.98502 0.01991 0.0
C862 C 0.83885 0.1544 0.99455 0.0
C863 C 0.82804 0.12922 -0.0012 0.0
C864 C 0.76576 0.09137 0.00205 0.0
C865 C 0.76281 0.01917 0.01937 0.0
C866 C 0.7712 0.04773 0.01721 0.0
C867 C 0.80124 0.12685 0.0048 0.0
C868 C 0.7902 0.10016 0.00975 0.0
H869 H 0.79001 0.95635 0.01859 0.0
H870 H 0.80346 0.0032 0.01851 0.0
H871 H 0.73817 0.05876 -0.00126 0.0
H872 H 0.78364 0.193 0.00374 0.0
H873 H 0.76455 0.14872 0.01075 0.0
C874 C 0.17274 0.19665 0.99582 0.0
C875 C 0.17569 0.16987 0.00185 0.0
C876 C 0.1472 0.20723 0.99228 0.0
C877 C 0.07954 0.18674 0.9787 0.0
H878 H 0.05647 0.25465 0.00016 0.0
C879 C 0.96856 0.21848 0.98088 0.0
C880 C 0.96196 0.24594 0.98005 0.0
C881 C 0.99538 0.21028 0.98124 0.0
C882 C 0.06273 0.23593 0.99371 0.0
H883 H 0.15423 0.13334 0.00923 0.0
H884 H 0.10969 0.1518 0.00287 0.0
H885 H 0.10205 0.23854 0.00594 0.0
H886 H 0.97837 0.28628 0.97782 0.0
H887 H 0.02523 0.27189 0.97788 0.0
H888 H 0.04048 0.18409 0.96631 0.0
C889 C 0.12715 0.16452 0.00084 0.0
C890 C 0.0888 0.22666 0.99714 0.0
C891 C 0.15261 0.15405 0.00462 0.0
C892 C 0.98279 0.26496 0.97864 0.0
C893 C 0.00965 0.25673 0.97882 0.0
C894 C 0.05361 0.19614 0.97507 0.0
C895 C 0.12423 0.19111 0.99447 0.0
C896 C 0.09724 0.20177 0.98994 0.0
C897 C 0.01628 0.22932 0.98056 0.0
C898 C 0.0447 0.22061 0.98282 0.0
H899 H 0.19016 0.20933 0.99359 0.0
H900 H 0.14544 0.22779 0.98736 0.0
H901 H 0.08577 0.16768 0.97272 0.0
H902 H 0.95303 0.20328 0.98205 0.0
H903 H -0.00035 0.18904 0.98285 0.0
C904 C 0.15472 0.65365 0.25451 0.0
C905 C 0.17049 0.67673 0.25152 0.0
C906 C 0.16503 0.62814 0.25059 0.0
C907 C 0.22711 0.58978 0.24578 0.0
H908 H 0.18339 0.54121 0.21595 0.0
C909 C 0.26521 0.48403 0.22635 0.0
C910 C 0.24647 0.46303 0.22829 0.0
C911 C 0.25676 0.51085 0.22666 0.0
C912 C 0.19577 0.55441 0.22443 0.0
H913 H 0.2097 0.69111 0.24269 0.0
H914 H 0.22786 0.64634 0.23619 0.0
H915 H 0.1671 0.58647 0.22271 0.0
H916 H 0.20405 0.45374 0.23134 0.0
H917 H 0.18945 0.50029 0.23235 0.0
H918 H 0.25537 0.55757 0.24815 0.0
C919 C 0.20748 0.64812 0.24142 0.0
C920 C 0.18643 0.58033 0.22827 0.0
C921 C 0.19706 0.6737 0.24511 0.0
C922 C 0.21903 0.46941 0.22974 0.0
C923 C 0.21062 0.49618 0.23023 0.0
C924 C 0.23634 0.56374 0.24214 0.0
C925 C 0.1914 0.62516 0.24384 0.0
C926 C 0.20189 0.59813 0.23915 0.0
C927 C 0.22943 0.51725 0.22908 0.0
C928 C 0.22064 0.54563 0.23159 0.0
H929 H 0.13417 0.65531 0.25942 0.0
H930 H 0.15235 0.6107 0.25282 0.0
H931 H 0.23933 0.6031 0.25431 0.0
H932 H 0.28649 0.4798 0.22504 0.0
H933 H 0.27172 0.52656 0.22533 0.0
C934 C 0.65413 0.84266 0.73859 0.0
C935 C 0.67685 0.8265 0.74169 0.0
C936 C 0.6284 0.83267 0.74207 0.0
C937 C 0.59266 0.77876 0.76815 0.0
H938 H 0.53283 0.80172 0.73707 0.0
C939 C 0.4846 0.73338 0.76949 0.0
C940 C 0.46338 0.7521 0.76898 0.0
C941 C 0.51127 0.74202 0.768 0.0
C942 C 0.54935 0.79534 0.74596 0.0
H943 H 0.69045 0.7869 0.75026 0.0
H944 H 0.64542 0.76907 0.75569 0.0
H945 H 0.57812 0.8165 0.72931 0.0
H946 H 0.45369 0.79469 0.76768 0.0
H947 H 0.50017 0.80958 0.7649 0.0
H948 H 0.56357 0.75692 0.78443 0.0
C949 C 0.64749 0.78974 0.7511 0.0
C950 C 0.5753 0.80384 0.74156 0.0
C951 C 0.67329 0.79987 0.74784 0.0
C952 C 0.46949 0.7797 0.76803 0.0
C953 C 0.49608 0.78826 0.76633 0.0
C954 C 0.56666 0.76993 0.77239 0.0
C955 C 0.62473 0.80614 0.74848 0.0
C956 C 0.59728 0.79592 0.75271 0.0
C957 C 0.51712 0.76947 0.76578 0.0
C958 C 0.54477 0.77842 0.76144 0.0
H959 H 0.65621 0.86335 0.73402 0.0
H960 H 0.61143 0.84606 0.7402 0.0
H961 H 0.60903 0.77256 0.77722 0.0
H962 H 0.48057 0.71198 0.77029 0.0
H963 H 0.52719 0.72715 0.76761 0.0
C964 C 0.80006 0.32289 0.24692 0.0
C965 C 0.82658 0.31982 0.25343 0.0
C966 C 0.78967 0.3485 0.2433 0.0
C967 C 0.81088 0.41611 0.23014 0.0
H968 H 0.74222 0.43945 0.25017 0.0
C969 C 0.77908 0.52722 0.23081 0.0
C970 C 0.75168 0.53378 0.22932 0.0
C971 C 0.78726 0.5004 0.23166 0.0
C972 C 0.76118 0.43311 0.24413 0.0
H973 H 0.86283 0.34116 0.26157 0.0
H974 H 0.84473 0.38583 0.25503 0.0
H975 H 0.75801 0.39383 0.25642 0.0
H976 H 0.71149 0.51727 0.22649 0.0
H977 H 0.72588 0.47039 0.22738 0.0
H978 H 0.81408 0.45509 0.21766 0.0
C979 C 0.83205 0.3684 0.25272 0.0
C980 C 0.77025 0.40703 0.24782 0.0
C981 C 0.84231 0.34286 0.25659 0.0
C982 C 0.73275 0.51289 0.2278 0.0
C983 C 0.74098 0.48601 0.22846 0.0
C984 C 0.80168 0.44204 0.22624 0.0
C985 C 0.80575 0.37143 0.24586 0.0
C986 C 0.79538 0.39848 0.24113 0.0
C987 C 0.76829 0.47945 0.23082 0.0
C988 C 0.77692 0.45105 0.23346 0.0
H989 H 0.78744 0.30549 0.24439 0.0
H990 H 0.76933 0.35034 0.23799 0.0
H991 H 0.83014 0.4098 0.22455 0.0
H992 H 0.79419 0.5428 0.2321 0.0
H993 H 0.80841 0.49619 0.23374 0.0
C994 C 0.32329 0.19915 0.74929 0.0
C995 C 0.31961 0.17275 0.74271 0.0
C996 C 0.34918 0.20951 0.75182 0.0
C997 C 0.42077 0.19673 0.7394 0.0
H998 H 0.43517 0.24167 0.78291 0.0
C999 C 0.52799 0.21893 0.76409 0.0
C1000 C 0.53447 0.24638 0.76567 0.0
C1001 C 0.50126 0.21077 0.7625 0.0
C1002 C 0.43133 0.22924 0.77068 0.0
H1003 H 0.34013 0.13655 0.7335 0.0
H1004 H 0.38507 0.15419 0.73841 0.0
H1005 H 0.38933 0.22616 0.77682 0.0
H1006 H 0.51783 0.28663 0.76805 0.0
H1007 H 0.47093 0.27215 0.76561 0.0
H1008 H 0.46292 0.19919 0.73363 0.0
C1009 C 0.3681 0.16726 0.74118 0.0
C1010 C 0.4051 0.22048 0.76708 0.0
C1011 C 0.34228 0.15706 0.73844 0.0
C1012 C 0.51351 0.26534 0.76676 0.0
C1013 C 0.48669 0.2571 0.76541 0.0
C1014 C 0.44697 0.20514 0.74315 0.0
C1015 C 0.37192 0.19357 0.748 0.0
C1016 C 0.39953 0.20396 0.75145 0.0
C1017 C 0.48044 0.22982 0.76271 0.0
C1018 C 0.45251 0.22131 0.75887 0.0
H1019 H 0.30618 0.21177 0.75261 0.0
H1020 H 0.35133 0.23 0.75677 0.0
H1021 H 0.4172 0.18459 0.72699 0.0
H1022 H 0.54359 0.20377 0.76324 0.0
H1023 H 0.49687 0.18958 0.76066 0.0
C1024 C 0.7605 0.51053 0.51749 0.0
C1025 C 0.74166 0.53158 0.51671 0.0
C1026 C 0.75204 0.48373 0.5168 0.0
C1027 C 0.69124 0.43998 0.52003 0.0
H1028 H 0.73291 0.3927 0.48782 0.0
C1029 C 0.64875 0.3414 0.4897 0.0
C1030 C 0.66487 0.31839 0.49189 0.0
C1031 C 0.65912 0.36691 0.4936 0.0
C1032 C 0.72123 0.40562 0.49698 0.0
H1033 H 0.69907 0.54095 0.51536 0.0
H1034 H 0.68442 0.49447 0.51368 0.0
H1035 H 0.74922 0.43801 0.49436 0.0
H1036 H 0.70474 0.30412 0.49922 0.0
H1037 H 0.723 0.34885 0.50566 0.0
H1038 H 0.6628 0.40775 0.52203 0.0
C1039 C 0.70571 0.49849 0.51517 0.0
C1040 C 0.73062 0.43153 0.50084 0.0
C1041 C 0.71414 0.52524 0.51605 0.0
C1042 C 0.69182 0.32148 0.49744 0.0
C1043 C 0.70229 0.34704 0.50109 0.0
C1044 C 0.68172 0.4142 0.51597 0.0
C1045 C 0.72457 0.4774 0.51516 0.0
C1046 C 0.71561 0.44914 0.51228 0.0
C1047 C 0.6859 0.36993 0.49951 0.0
C1048 C 0.6965 0.39689 0.50427 0.0
H1049 H 0.78185 0.51473 0.51816 0.0
H1050 H 0.76708 0.46798 0.51723 0.0
H1051 H 0.67942 0.45277 0.52918 0.0
H1052 H 0.62789 0.33969 0.48549 0.0
H1053 H 0.64617 0.3843 0.49204 0.0
C1054 C 0.50853 0.22556 0.48591 0.0
C1055 C 0.52832 0.24331 0.47917 0.0
C1056 C 0.48161 0.23347 0.48664 0.0
C1057 C 0.42384 0.25132 0.4807 0.0
H1058 H 0.41175 0.32492 0.49672 0.0
C1059 C 0.31797 0.29936 0.48454 0.0
C1060 C 0.31303 0.31797 0.49902 0.0
C1061 C 0.34371 0.28876 0.48189 0.0
C1062 C 0.41474 0.30422 0.49245 0.0
H1063 H 0.53513 0.2826 0.46674 0.0
H1064 H 0.48809 0.29611 0.46752 0.0
H1065 H 0.45733 0.30923 0.49149 0.0
H1066 H 0.33079 0.33903 0.52268 0.0
H1067 H 0.3755 0.32 0.51841 0.0
H1068 H 0.38119 0.24612 0.48238 0.0
C1069 C 0.49347 0.27638 0.47279 0.0
C1070 C 0.4409 0.29534 0.48911 0.0
C1071 C 0.52042 0.26857 0.47222 0.0
C1072 C 0.33405 0.32494 0.51127 0.0
C1073 C 0.35972 0.31417 0.50873 0.0
C1074 C 0.39762 0.26018 0.48417 0.0
C1075 C 0.47385 0.25922 0.4805 0.0
C1076 C 0.44581 0.26878 0.48322 0.0
C1077 C 0.36499 0.29639 0.49377 0.0
C1078 C 0.39279 0.28672 0.49016 0.0
H1079 H 0.51394 0.20596 0.4914 0.0
H1080 H 0.4671 0.21982 0.4928 0.0
H1081 H 0.42688 0.23081 0.47603 0.0
H1082 H 0.3022 0.29366 0.47481 0.0
H1083 H 0.3471 0.27533 0.47012 0.0
C1084 C 0.3032 0.66891 0.50378 0.0
C1085 C 0.32883 0.67262 0.49588 0.0
C1086 C 0.29345 0.64303 0.5073 0.0
C1087 C 0.31607 0.57423 0.51651 0.0
H1088 H 0.24413 0.55376 0.50117 0.0
C1089 C 0.27988 0.46394 0.51515 0.0
C1090 C 0.25253 0.45858 0.51837 0.0
C1091 C 0.28927 0.49042 0.51463 0.0
C1092 C 0.26408 0.55925 0.50591 0.0
H1093 H 0.36422 0.65209 0.48522 0.0
H1094 H 0.34719 0.6069 0.49146 0.0
H1095 H 0.25999 0.59932 0.4952 0.0
H1096 H 0.21394 0.47666 0.52492 0.0
H1097 H 0.23048 0.52277 0.52466 0.0
H1098 H 0.32017 0.5343 0.52738 0.0
C1099 C 0.33473 0.62405 0.495 0.0
C1100 C 0.27319 0.58533 0.50237 0.0
C1101 C 0.34436 0.64991 0.49129 0.0
C1102 C 0.23509 0.48015 0.52219 0.0
C1103 C 0.24453 0.5066 0.52188 0.0
C1104 C 0.30687 0.5482 0.52024 0.0
C1105 C 0.30928 0.62038 0.50317 0.0
C1106 C 0.29936 0.59298 0.50745 0.0
C1107 C 0.27156 0.51212 0.51753 0.0
C1108 C 0.28085 0.5403 0.51481 0.0
H1109 H 0.29076 0.68601 0.50747 0.0
H1110 H 0.27379 0.64075 0.51366 0.0
H1111 H 0.33621 0.57976 0.52083 0.0
H1112 H 0.29382 0.44777 0.51208 0.0
H1113 H 0.31016 0.49387 0.51107 0.0
C1114 C 0.48337 0.76607 0.47384 0.0
C1115 C 0.463 0.74652 0.47492 0.0
C1116 C 0.51041 0.75843 0.47362 0.0
C1117 C 0.55579 0.69889 0.4691 0.0
H1118 H 0.60184 0.74023 0.50238 0.0
C1119 C 0.65156 0.65554 0.50238 0.0
C1120 C 0.67506 0.67102 0.5006 0.0
C1121 C 0.62663 0.6664 0.49757 0.0
C1122 C 0.58927 0.72869 0.49289 0.0
H1123 H 0.45504 0.70358 0.47561 0.0
H1124 H 0.50191 0.69035 0.47573 0.0
H1125 H 0.55658 0.75633 0.49546 0.0
H1126 H 0.6908 0.71029 0.49307 0.0
H1127 H 0.64693 0.72948 0.48509 0.0
H1128 H 0.58821 0.67064 0.46733 0.0
C1129 C 0.49718 0.71157 0.47472 0.0
C1130 C 0.56341 0.73796 0.4888 0.0
C1131 C 0.4702 0.71918 0.47475 0.0
C1132 C 0.67302 0.69788 0.49455 0.0
C1133 C 0.64799 0.70887 0.49 0.0
C1134 C 0.58149 0.68948 0.4734 0.0
C1135 C 0.51764 0.73111 0.47463 0.0
C1136 C 0.54617 0.72292 0.47712 0.0
C1137 C 0.62467 0.69304 0.49115 0.0
C1138 C 0.59827 0.70407 0.48557 0.0
H1139 H 0.47848 0.78731 0.47376 0.0
H1140 H 0.52565 0.77398 0.47313 0.0
H1141 H 0.54329 0.68709 0.45974 0.0
H1142 H 0.65248 0.63477 0.50696 0.0
H1143 H 0.60885 0.65393 0.49881 0.0
C1144 C 0.76714 0.98425 0.7246 0.0
C1145 C 0.74799 0.9635 0.7256 0.0
C1146 C 0.75907 0.01119 0.7249 0.0
C1147 C 0.69884 0.05566 0.72105 0.0
H1148 H 0.74074 0.10303 0.75306 0.0
C1149 C 0.65647 0.15383 0.75187 0.0
C1150 C 0.67235 0.177 0.74962 0.0
C1151 C 0.66695 0.12847 0.74773 0.0
C1152 C 0.72901 0.09008 0.74394 0.0
H1153 H 0.70526 0.9548 0.72694 0.0
H1154 H 0.69128 0.00151 0.72796 0.0
H1155 H 0.75679 0.05753 0.74676 0.0
H1156 H 0.71192 0.19169 0.74191 0.0
H1157 H 0.73041 0.14713 0.73507 0.0
H1158 H 0.67055 0.08802 0.71892 0.0
C1159 C 0.71252 0.99715 0.72657 0.0
C1160 C 0.73824 0.06407 0.74021 0.0
C1161 C 0.72056 0.97027 0.72609 0.0
C1162 C 0.69919 0.1742 0.74374 0.0
C1163 C 0.70979 0.14875 0.73985 0.0
C1164 C 0.68946 0.08154 0.72498 0.0
C1165 C 0.73168 0.01796 0.72637 0.0
C1166 C 0.72309 0.0464 0.72891 0.0
C1167 C 0.69361 0.12572 0.74152 0.0
C1168 C 0.7043 0.09884 0.73664 0.0
H1169 H 0.78844 0.97972 0.72406 0.0
H1170 H 0.77434 0.02671 0.72432 0.0
H1171 H 0.68692 0.04284 0.71198 0.0
H1172 H 0.6357 0.15532 0.75635 0.0
H1173 H 0.65418 0.11095 0.74936 0.0
C1174 C 0.15457 0.34144 0.24235 0.0
C1175 C 0.17739 0.32542 0.24543 0.0
C1176 C 0.12888 0.33118 0.24558 0.0
C1177 C 0.09308 0.27634 0.27069 0.0
H1178 H 0.03374 0.29974 0.23929 0.0
C1179 C 0.98484 0.23094 0.27039 0.0
C1180 C 0.96375 0.24982 0.2702 0.0
C1181 C 0.01158 0.23946 0.26919 0.0
C1182 C 0.05012 0.29321 0.24825 0.0
H1183 H 0.19122 0.2858 0.25378 0.0
H1184 H 0.14626 0.26749 0.25877 0.0
H1185 H 0.0791 0.31489 0.23213 0.0
H1186 H 0.95435 0.29251 0.26972 0.0
H1187 H 0.00093 0.3072 0.2674 0.0
H1188 H 0.06376 0.25397 0.28642 0.0
C1189 C 0.14822 0.28826 0.25438 0.0
C1190 C 0.07612 0.30193 0.2442 0.0
C1191 C 0.17398 0.29867 0.25137 0.0
C1192 C 0.97004 0.2774 0.26983 0.0
C1193 C 0.99669 0.28586 0.26839 0.0
C1194 C 0.06704 0.26727 0.27456 0.0
C1195 C 0.12535 0.30448 0.2517 0.0
C1196 C 0.09791 0.29391 0.2555 0.0
C1197 C 0.01761 0.26696 0.26756 0.0
C1198 C 0.04533 0.27594 0.26351 0.0
H1199 H 0.15652 0.36222 0.23794 0.0
H1200 H 0.11183 0.34446 0.2437 0.0
H1201 H 0.1093 0.27002 0.27984 0.0
H1202 H 0.98067 0.20955 0.27075 0.0
H1203 H 0.02743 0.22453 0.26857 0.0
C1204 C 0.29997 0.82419 0.74401 0.0
C1205 C 0.32634 0.82116 0.75082 0.0
C1206 C 0.2897 0.84977 0.74012 0.0
C1207 C 0.31104 0.91755 0.72717 0.0
H1208 H 0.24181 0.94041 0.74648 0.0
C1209 C 0.27837 0.02857 0.72812 0.0
C1210 C 0.25091 0.03489 0.72667 0.0
C1211 C 0.28682 0.0018 0.72866 0.0
C1212 C 0.26093 0.93422 0.74062 0.0
H1213 H 0.36247 0.84257 0.75916 0.0
H1214 H 0.34455 0.88718 0.75219 0.0
H1215 H 0.25768 0.89488 0.75277 0.0
H1216 H 0.21093 0.01806 0.72339 0.0
H1217 H 0.22576 0.97133 0.7237 0.0
H1218 H 0.31433 0.95665 0.71484 0.0
C1219 C 0.33191 0.86974 0.74983 0.0
C1220 C 0.27005 0.90817 0.74434 0.0
C1221 C 0.34206 0.84423 0.75396 0.0
C1222 C 0.23222 0.01386 0.72471 0.0
C1223 C 0.24071 0.98706 0.72504 0.0
C1224 C 0.30179 0.94348 0.72323 0.0
C1225 C 0.30573 0.87273 0.74273 0.0
C1226 C 0.29537 0.89977 0.73792 0.0
C1227 C 0.26804 0.98068 0.72754 0.0
C1228 C 0.27681 0.95231 0.73017 0.0
H1229 H 0.28737 0.80678 0.74147 0.0
H1230 H 0.26946 0.85156 0.73463 0.0
H1231 H 0.33047 0.91138 0.72179 0.0
H1232 H 0.2933 0.04427 0.72974 0.0
H1233 H 0.30798 0.99773 0.73083 0.0
C1234 C 0.01266 0.76717 0.26855 0.0
C1235 C 0.03319 0.74778 0.26749 0.0
C1236 C 0.98567 0.75935 0.26844 0.0
C1237 C 0.9408 0.69956 0.27294 0.0
H1238 H 0.89352 0.74122 0.24072 0.0
C1239 C 0.84305 0.65682 0.24214 0.0
C1240 C 0.81982 0.67261 0.24429 0.0
C1241 C 0.86831 0.66745 0.24631 0.0
C1242 C 0.90644 0.72958 0.24991 0.0
H1243 H 0.04147 0.70493 0.2662 0.0
H1244 H 0.99465 0.69139 0.26551 0.0
H1245 H 0.93909 0.75718 0.24681 0.0
H1246 H 0.80488 0.71218 0.25187 0.0
H1247 H 0.8493 0.73094 0.25877 0.0
H1248 H 0.90838 0.67142 0.27533 0.0
C1249 C -0.00076 0.71261 0.2668 0.0
C1250 C 0.93249 0.73876 0.25351 0.0
C1251 C 0.02618 0.7204 0.26708 0.0
C1252 C 0.82244 0.69952 0.25011 0.0
C1253 C 0.84779 0.71027 0.25404 0.0
C1254 C 0.9149 0.69025 0.26914 0.0
C1255 C 0.97864 0.73199 0.26711 0.0
C1256 C 0.95013 0.72364 0.26484 0.0
C1257 C 0.87088 0.69417 0.25247 0.0
C1258 C 0.89765 0.70498 0.25738 0.0
H1259 H 0.0174 0.78843 0.26904 0.0
H1260 H 0.97031 0.77477 0.26907 0.0
H1261 H 0.95362 0.6877 0.28205 0.0
H1262 H 0.8417 0.63601 0.23771 0.0
H1263 H 0.88588 0.65475 0.24475 0.0
C1264 C 0.4042 0.04455 0.98214 0.0
C1265 C 0.40417 0.06172 -0.00215 0.0
C1266 C 0.4277 0.03095 0.97694 0.0
C1267 C 0.47249 0.98933 0.98198 0.0
H1268 H 0.54372 0.02071 0.98545 0.0
C1269 C 0.5661 0.93095 0.00545 0.0
C1270 C 0.59094 0.93665 0.997 0.0
C1271 C 0.5431 0.94525 0.00029 0.0
C1272 C 0.524 0.01167 0.98408 0.0
H1273 H 0.42856 0.07891 0.02002 0.0
H1274 H 0.46964 0.05551 0.01085 0.0
H1275 H 0.50425 0.04994 0.98548 0.0
H1276 H 0.61136 0.96174 0.97656 0.0
H1277 H 0.57103 0.98683 0.96748 0.0
H1278 H 0.4922 0.95099 0.9814 0.0
C1279 C 0.4517 0.05266 0.00243 0.0
C1280 C 0.50142 0.0284 0.98425 0.0
C1281 C 0.42819 0.06595 0.00776 0.0
C1282 C 0.5923 0.95649 0.98295 0.0
C1283 C 0.56932 0.97103 0.97792 0.0
C1284 C 0.49507 0.97259 0.98197 0.0
C1285 C 0.45154 0.03448 0.98728 0.0
C1286 C 0.47543 0.01735 0.98374 0.0
C1287 C 0.54459 0.96588 0.98679 0.0
C1288 C 0.52101 0.98356 0.98355 0.0
H1289 H 0.38578 0.04046 0.97454 0.0
H1290 H 0.42703 0.01705 0.9652 0.0
H1291 H 0.45271 0.98021 0.9817 0.0
H1292 H 0.56464 0.91594 0.01647 0.0
H1293 H 0.52443 0.94109 0.00759 0.0
C1294 C 0.06357 0.56758 0.98886 0.0
C1295 C 0.05893 0.59191 -0.00168 0.0
C1296 C 0.05006 0.54422 0.99428 0.0
C1297 C 0.9859 0.52396 0.01325 0.0
H1298 H 0.01769 0.45269 0.01273 0.0
C1299 C 0.95327 0.40406 0.0141 0.0
C1300 C 0.9353 0.40444 -0.00115 0.0
C1301 C 0.96721 0.42741 0.01921 0.0
C1302 C 0.00853 0.47245 0.01327 0.0
H1303 H 0.03673 0.61107 0.02088 0.0
H1304 H 0.01282 0.57009 0.0303 0.0
H1305 H 0.04676 0.49235 0.01269 0.0
H1306 H 0.91705 0.42938 0.9774 0.0
H1307 H 0.94097 0.47028 0.98649 0.0
H1308 H 0.94767 0.50406 0.01285 0.0
C1309 C 0.02724 0.56906 0.0189 0.0
C1310 C 0.02516 0.49512 0.01311 0.0
C1311 C 0.04109 0.59239 0.01364 0.0
C1312 C 0.93063 0.4287 0.98932 0.0
C1313 C 0.94422 0.45209 0.99459 0.0
C1314 C 0.96927 0.5013 0.01319 0.0
C1315 C 0.03125 0.54486 0.00903 0.0
C1316 C 0.014 0.52108 0.01257 0.0
C1317 C 0.96315 0.45153 0.00927 0.0
C1318 C 0.98043 0.47533 0.01268 0.0
H1319 H 0.07704 0.56683 0.97689 0.0
H1320 H 0.05328 0.52597 0.98624 0.0
H1321 H 0.97673 0.54372 0.01269 0.0
H1322 H 0.95766 0.38543 0.02139 0.0
H1323 H 0.98172 0.42644 0.03055 0.0
C1324 C 0.56882 0.56589 0.23494 0.0
C1325 C 0.59259 0.5618 0.24516 0.0
C1326 C 0.54518 0.55269 0.2401 0.0
C1327 C 0.49511 0.529 0.25833 0.0
H1328 H 0.5038 0.45151 0.26103 0.0
C1329 C 0.40392 0.45741 0.26016 0.0
C1330 C 0.40491 0.43789 0.24588 0.0
C1331 C 0.42704 0.47183 0.26505 0.0
C1332 C 0.50109 0.47313 0.26052 0.0
H1333 H 0.61047 0.54088 0.2688 0.0
H1334 H 0.56901 0.51754 0.27781 0.0
H1335 H 0.54351 0.48048 0.26079 0.0
H1336 H 0.43065 0.41758 0.22585 0.0
H1337 H 0.47114 0.44245 0.23453 0.0
H1338 H 0.45274 0.52158 0.2572 0.0
C1339 C 0.56862 0.5313 0.26599 0.0
C1340 C 0.52378 0.48971 0.26053 0.0
C1341 C 0.59222 0.54483 0.26096 0.0
C1342 C 0.4295 0.43235 0.23704 0.0
C1343 C 0.45266 0.44649 0.24208 0.0
C1344 C 0.47242 0.51242 0.25851 0.0
C1345 C 0.54501 0.53474 0.25538 0.0
C1346 C 0.52102 0.51776 0.25883 0.0
C1347 C 0.45153 0.4668 0.25583 0.0
C1348 C 0.47523 0.48429 0.25901 0.0
H1349 H 0.56873 0.57868 0.22259 0.0
H1350 H 0.52741 0.55544 0.2315 0.0
H1351 H 0.49244 0.55056 0.25712 0.0
H1352 H 0.38504 0.4625 0.26687 0.0
H1353 H 0.42563 0.48741 0.27567 0.0
C1354 C 0.54274 0.40479 0.7353 0.0
C1355 C 0.56167 0.40501 0.74997 0.0
C1356 C 0.52863 0.42823 0.73065 0.0
C1357 C 0.52739 0.50218 0.73713 0.0
H1358 H 0.44987 0.49363 0.73777 0.0
C1359 C 0.43223 0.56884 0.76066 0.0
C1360 C 0.43733 0.59319 0.75135 0.0
C1361 C 0.44604 0.54549 0.7556 0.0
C1362 C 0.47148 0.4963 0.73738 0.0
H1363 H 0.58127 0.42977 0.77093 0.0
H1364 H 0.55693 0.47077 0.76273 0.0
H1365 H 0.47871 0.45384 0.73756 0.0
H1366 H 0.46087 0.61238 0.72947 0.0
H1367 H 0.48511 0.57142 0.72056 0.0
H1368 H 0.52017 0.54463 0.73782 0.0
C1369 C 0.55312 0.45266 0.75467 0.0
C1370 C 0.48799 0.47355 0.73709 0.0
C1371 C 0.56695 0.4292 0.75944 0.0
C1372 C 0.45608 0.5937 0.73656 0.0
C1373 C 0.47015 0.57036 0.73162 0.0
C1374 C 0.51088 0.52493 0.73725 0.0
C1375 C 0.53336 0.45229 0.74053 0.0
C1376 C 0.51611 0.47626 0.73755 0.0
C1377 C 0.46558 0.54613 0.74131 0.0
C1378 C 0.48277 0.52221 0.73795 0.0
H1379 H 0.53782 0.38623 0.72808 0.0
H1380 H 0.5135 0.42738 0.7197 0.0
H1381 H 0.54901 0.50485 0.73733 0.0
H1382 H 0.41806 0.56805 0.77224 0.0
H1383 H 0.44236 0.52723 0.76352 0.0
C1384 C 0.90029 0.5402 0.48259 0.0
C1385 C 0.90052 0.55865 0.49756 0.0
C1386 C 0.92385 0.52665 0.47748 0.0
C1387 C 0.9698 0.4865 0.48416 0.0
H1388 H 0.0403 0.51985 0.48301 0.0
C1389 C 0.06654 0.43536 0.5094 0.0
C1390 C 0.09037 0.43936 0.49924 0.0
C1391 C 0.04283 0.44815 0.50391 0.0
C1392 C 0.02075 0.51025 0.48295 0.0
H1393 H 0.92536 0.5782 0.51849 0.0
H1394 H 0.96664 0.55499 0.50937 0.0
H1395 H 1e-05 0.54806 0.48245 0.0
H1396 H 0.10833 0.45974 0.4754 0.0
H1397 H 0.06675 0.48257 0.4659 0.0
H1398 H 0.99055 0.44876 0.48572 0.0
C1399 C 0.9484 0.55105 0.5015 0.0
C1400 C -0.00226 0.52638 0.48275 0.0
C1401 C 0.92481 0.56423 0.50678 0.0
C1402 C 0.09004 0.45592 0.48322 0.0
C1403 C 0.06637 0.46912 0.4779 0.0
C1404 C 0.99281 0.47038 0.4846 0.0
C1405 C 0.94801 0.53161 0.48714 0.0
C1406 C 0.97208 0.51468 0.48388 0.0
C1407 C 0.04266 0.46565 0.48838 0.0
C1408 C 0.01849 0.48215 0.48452 0.0
H1409 H 0.88165 0.53516 0.47553 0.0
H1410 H 0.92303 0.51171 0.4664 0.0
H1411 H 0.95027 0.47696 0.48519 0.0
H1412 H 0.06642 0.42285 0.52189 0.0
H1413 H 0.02495 0.44542 0.51241 0.0
C1414 C 0.56645 0.0639 0.49005 0.0
C1415 C 0.56164 0.08823 0.49948 0.0
C1416 C 0.55284 0.04053 0.49531 0.0
C1417 C 0.48826 0.02056 0.51424 0.0
H1418 H 0.51917 0.94899 0.51182 0.0
C1419 C 0.45455 0.90087 0.51277 0.0
C1420 C 0.43524 0.9024 0.49838 0.0
C1421 C 0.46907 0.92376 0.51807 0.0
C1422 C 0.51023 0.96881 0.5129 0.0
H1423 H 0.53908 0.10729 0.5219 0.0
H1424 H 0.51517 0.06628 0.53115 0.0
H1425 H 0.54869 0.98824 0.51239 0.0
H1426 H 0.41547 0.9289 0.47857 0.0
H1427 H 0.44061 0.96891 0.48787 0.0
H1428 H 0.44978 0.00117 0.51398 0.0
C1429 C 0.52973 0.06527 0.51984 0.0
C1430 C 0.52714 0.99127 0.51307 0.0
C1431 C 0.54362 0.08863 0.51469 0.0
C1432 C 0.43006 0.9273 0.48984 0.0
C1433 C 0.44435 0.9502 0.49525 0.0
C1434 C 0.47135 -0.0019 0.51394 0.0
C1435 C 0.53378 0.04112 0.50991 0.0
C1436 C 0.5163 0.01739 0.51319 0.0
C1437 C 0.46445 0.94856 0.50912 0.0
C1438 C 0.48215 0.97204 0.51271 0.0
H1439 H 0.58007 0.06318 0.47816 0.0
H1440 H 0.55613 0.02236 0.4872 0.0
H1441 H 0.47929 0.04043 0.5142 0.0
H1442 H 0.45944 0.88176 0.51924 0.0
H1443 H 0.48444 0.92191 0.5288 0.0
C1444 C 0.90388 0.95512 0.76115 0.0
C1445 C 0.90509 0.93607 0.74657 0.0
C1446 C 0.92693 0.96938 0.76644 0.0
C1447 C 0.97219 0.01033 0.76081 0.0
H1448 H 0.04348 0.97875 0.76219 0.0
C1449 C 0.06769 0.06512 0.73719 0.0
C1450 C 0.09182 0.06068 0.74691 0.0
C1451 C 0.04425 0.0517 0.74249 0.0
C1452 C 0.0237 0.98788 0.7622 0.0
H1453 H 0.93118 0.91636 0.72646 0.0
H1454 H 0.9715 0.94096 0.73581 0.0
H1455 H 0.00397 0.94955 0.76223 0.0
H1456 H 0.11051 0.0389 0.76986 0.0
H1457 H 0.06939 0.01521 0.77915 0.0
H1458 H 0.99195 0.04862 0.7599 0.0
C1459 C 0.95291 0.94475 0.7433 0.0
C1460 C 0.00112 0.97116 0.76207 0.0
C1461 C 0.92985 0.93077 0.73787 0.0
C1462 C 0.092 0.04314 0.7624 0.0
C1463 C 0.06858 0.02939 0.76759 0.0
C1464 C 0.99478 0.02704 0.76077 0.0
C1465 C 0.95157 0.96467 0.75732 0.0
C1466 C 0.97517 0.9822 0.76082 0.0
C1467 C 0.0446 0.03317 0.75744 0.0
C1468 C 0.02077 0.01596 0.76092 0.0
H1469 H 0.88489 0.96004 0.76776 0.0
H1470 H 0.92534 0.98464 0.77727 0.0
H1471 H 0.95245 0.01941 0.75971 0.0
H1472 H 0.06716 0.07838 0.72508 0.0
H1473 H 0.0262 0.05474 0.73423 0.0
C1474 C 0.95742 0.09405 0.23513 0.0
C1475 C 0.93787 0.09246 0.24935 0.0
C1476 C 0.97197 0.07115 0.22986 0.0
C1477 C 0.97383 0.99683 0.23345 0.0
H1478 H 0.05113 0.00612 0.23672 0.0
C1479 C 0.06719 0.92975 0.25871 0.0
C1480 C 0.06298 0.90582 0.24867 0.0
C1481 C 0.05392 0.95334 0.25349 0.0
C1482 C 0.0296 0.00326 0.23555 0.0
H1483 H 0.91764 0.06587 0.26887 0.0
H1484 H 0.94276 0.02582 0.25957 0.0
H1485 H 0.02184 0.04558 0.23702 0.0
H1486 H 0.04182 0.88765 0.22525 0.0
H1487 H 0.01841 0.92902 0.21611 0.0
H1488 H 0.98153 0.95446 0.23291 0.0
C1489 C 0.94671 0.04459 0.25233 0.0
C1490 C 0.01284 0.02583 0.23557 0.0
C1491 C 0.93244 0.0675 0.25773 0.0
C1492 C 0.04588 0.90601 0.23295 0.0
C1493 C 0.03229 0.92957 0.22785 0.0
C1494 C 0.9906 0.97427 0.23326 0.0
C1495 C 0.96707 0.04629 0.23865 0.0
C1496 C 0.98475 0.02279 0.23515 0.0
C1497 C 0.03578 0.95333 0.23832 0.0
C1498 C 0.0186 0.97723 0.23493 0.0
H1499 H 0.96246 0.11321 0.22877 0.0
H1500 H 0.98756 0.07303 0.2193 0.0
H1501 H 0.95225 0.99392 0.23296 0.0
H1502 H 0.0801 0.93 0.27099 0.0
H1503 H 0.05674 0.97121 0.26199 0.0
C1504 C 0.28874 0.28803 0.19044 0.0
C1505 C 0.29894 0.31417 0.1885 0.0
C1506 C 0.29225 0.26921 0.1761 0.0
C1507 C 0.32895 0.25481 0.13161 0.0
H1508 H 0.26421 0.21453 0.12015 0.0
C1509 C 0.31022 0.19761 0.06137 0.0
C1510 C 0.29655 0.17303 0.06268 0.0
C1511 C 0.31405 0.21343 0.07745 0.0
C1512 C 0.2826 0.2253 0.12331 0.0
H1513 H 0.32182 0.341 0.17066 0.0
H1514 H 0.32764 0.3082 0.14528 0.0
H1515 H 0.26483 0.24446 0.1471 0.0
H1516 H 0.27743 0.14473 0.08152 0.0
H1517 H 0.28423 0.17212 0.10968 0.0
H1518 H 0.34638 0.23588 0.10735 0.0
C1519 C 0.31724 0.30206 0.15796 0.0
C1520 C 0.28299 0.24245 0.13881 0.0
C1521 C 0.31389 0.32086 0.17244 0.0
C1522 C 0.28779 0.16383 0.08027 0.0
C1523 C 0.2916 0.17954 0.0963 0.0
C1524 C 0.32852 0.23763 0.11599 0.0
C1525 C 0.30581 0.27624 0.15943 0.0
C1526 C 0.30615 0.25739 0.1432 0.0
C1527 C 0.30421 0.20479 0.09502 0.0
C1528 C 0.30532 0.22267 0.11171 0.0
H1529 H 0.27749 0.28236 0.20288 0.0
H1530 H 0.28377 0.24929 0.17788 0.0
H1531 H 0.34717 0.26592 0.13468 0.0
H1532 H 0.31707 0.20498 0.04784 0.0
H1533 H 0.32369 0.23286 0.07601 0.0
C1534 C 0.31999 0.68358 0.8238 0.0
C1535 C 0.31361 0.69894 0.80785 0.0
C1536 C 0.30088 0.67969 0.83798 0.0
C1537 C 0.24049 0.71286 0.85683 0.0
H1538 H 0.23428 0.64866 0.88757 0.0
C1539 C 0.16189 0.70641 0.91519 0.0
C1540 C 0.17134 0.69773 0.93274 0.0
C1541 C 0.17746 0.70273 0.89909 0.0
C1542 C 0.23591 0.66673 0.87912 0.0
H1543 H 0.28207 0.72062 0.79338 0.0
H1544 H 0.24843 0.71339 0.81786 0.0
H1545 H 0.26463 0.64882 0.86042 0.0
H1546 H 0.20354 0.67739 0.94742 0.0
H1547 H 0.23118 0.671 0.91912 0.0
H1548 H 0.21214 0.73092 0.87551 0.0
C1549 C 0.26834 0.705 0.81978 0.0
C1550 C 0.25327 0.66685 0.86361 0.0
C1551 C 0.28749 0.70907 0.80574 0.0
C1552 C 0.19599 0.68417 0.93392 0.0
C1553 C 0.21166 0.68047 0.91777 0.0
C1554 C 0.22314 0.7127 0.87221 0.0
C1555 C 0.27503 0.69097 0.83633 0.0
C1556 C 0.25579 0.68997 0.85232 0.0
C1557 C 0.20281 0.69034 0.90026 0.0
C1558 C 0.22067 0.68969 0.88356 0.0
H1559 H 0.34012 0.6757 0.82571 0.0
H1560 H 0.30678 0.66897 0.85059 0.0
H1561 H 0.24242 0.73126 0.84877 0.0
H1562 H 0.14275 0.71671 0.91405 0.0
H1563 H 0.16991 0.71012 0.88575 0.0
C1564 C 0.68183 0.81916 0.07039 0.0
C1565 C 0.69765 0.81309 0.05461 0.0
C1566 C 0.67872 0.80024 0.08481 0.0
C1567 C 0.71478 0.74218 0.10467 0.0
H1568 H 0.6507 0.73322 0.13513 0.0
C1569 C 0.71116 0.66399 0.16364 0.0
C1570 C 0.70123 0.67294 0.18099 0.0
C1571 C 0.70745 0.67942 0.14746 0.0
C1572 C 0.66876 0.73565 0.12678 0.0
H1573 H 0.72093 0.7822 0.04066 0.0
H1574 H 0.71507 0.74889 0.06555 0.0
H1575 H 0.64956 0.76295 0.10765 0.0
H1576 H 0.67883 0.7042 0.19522 0.0
H1577 H 0.67235 0.73155 0.16681 0.0
H1578 H 0.73411 0.71526 0.12377 0.0
C1579 C 0.70571 0.76843 0.06716 0.0
C1580 C 0.66812 0.75265 0.11107 0.0
C1581 C 0.70897 0.78739 0.05288 0.0
C1582 C 0.68658 0.697 0.18189 0.0
C1583 C 0.68283 0.71252 0.16566 0.0
C1584 C 0.71539 0.7252 0.12026 0.0
C1585 C 0.69127 0.77491 0.08358 0.0
C1586 C 0.69117 0.75611 0.09984 0.0
C1587 C 0.69374 0.70413 0.14835 0.0
C1588 C 0.69243 0.72174 0.13151 0.0
H1589 H 0.67306 0.83897 0.07203 0.0
H1590 H 0.66763 0.80596 0.09731 0.0
H1591 H 0.73311 0.7449 0.09666 0.0
H1592 H 0.72228 0.64529 0.16269 0.0
H1593 H 0.71567 0.67219 0.13427 0.0
C1594 C 0.67626 0.3131 0.82335 0.0
C1595 C 0.68301 0.29763 0.80753 0.0
C1596 C 0.69486 0.31662 0.83792 0.0
C1597 C 0.7539 0.2824 0.85793 0.0
H1598 H 0.76058 0.34673 0.88848 0.0
C1599 C 0.8318 0.28834 0.9168 0.0
C1600 C 0.82239 0.2975 0.93424 0.0
C1601 C 0.81636 0.2919 0.90062 0.0
C1602 C 0.7588 0.32861 0.8801 0.0
H1603 H 0.71475 0.2754 0.79368 0.0
H1604 H 0.74748 0.28195 0.81883 0.0
H1605 H 0.7309 0.34691 0.86097 0.0
H1606 H 0.79037 0.31854 0.94863 0.0
H1607 H 0.76297 0.32475 0.92019 0.0
H1608 H 0.78146 0.26397 0.87702 0.0
C1609 C 0.72765 0.29071 0.82037 0.0
C1610 C 0.74182 0.3287 0.86437 0.0
C1611 C 0.70902 0.28702 0.80594 0.0
C1612 C 0.7979 0.31138 0.93523 0.0
C1613 C 0.78236 0.31497 0.91899 0.0
C1614 C 0.77087 0.28236 0.87352 0.0
C1615 C 0.72055 0.30485 0.83678 0.0
C1616 C 0.73919 0.30554 0.85312 0.0
C1617 C 0.79118 0.30467 0.9016 0.0
C1618 C 0.77352 0.30542 0.88479 0.0
H1619 H 0.65622 0.32135 0.82486 0.0
H1620 H 0.68867 0.32746 0.85041 0.0
H1621 H 0.75185 0.26398 0.8499 0.0
H1622 H 0.85083 0.27781 0.91579 0.0
H1623 H 0.82391 0.28418 0.88737 0.0
C1624 C 0.787 0.6669 0.57926 0.0
C1625 C 0.79613 0.67365 0.56121 0.0
C1626 C 0.79257 0.68361 0.59454 0.0
C1627 C 0.80846 0.75404 0.60562 0.0
H1628 H 0.81996 0.72529 0.65573 0.0
C1629 C 0.817 0.82308 0.67061 0.0
C1630 C 0.80024 0.8156 0.68561 0.0
C1631 C 0.82178 0.80518 0.6558 0.0
C1632 C 0.81678 0.7336 0.64181 0.0
H1633 H 0.81874 0.7025 0.54482 0.0
H1634 H 0.829 0.73175 0.57167 0.0
H1635 H 0.81909 0.69485 0.62877 0.0
H1636 H 0.77641 0.78339 0.69752 0.0
H1637 H 0.78459 0.75209 0.67165 0.0
H1638 H 0.80562 0.79271 0.61872 0.0
C1639 C 0.81723 0.71373 0.57401 0.0
C1640 C 0.81622 0.71619 0.62638 0.0
C1641 C 0.81157 0.69696 0.55869 0.0
C1642 C 0.78923 0.78963 0.686 0.0
C1643 C 0.79413 0.77168 0.67128 0.0
C1644 C 0.80914 0.77146 0.62104 0.0
C1645 C 0.8075 0.70739 0.59208 0.0
C1646 C 0.81141 0.72613 0.60815 0.0
C1647 C 0.81004 0.77944 0.65585 0.0
C1648 C 0.8127 0.76134 0.63935 0.0
H1649 H 0.77513 0.64888 0.58146 0.0
H1650 H 0.78441 0.67829 0.60818 0.0
H1651 H 0.80438 0.76235 0.59182 0.0
H1652 H 0.82557 0.84309 0.66998 0.0
H1653 H 0.83428 0.81162 0.64416 0.0
C1654 C 0.82014 0.18128 0.3243 0.0
C1655 C 0.81377 0.19656 0.30832 0.0
C1656 C 0.80103 0.17755 0.33851 0.0
C1657 C 0.74049 0.21104 0.35708 0.0
H1658 H 0.73466 0.1476 0.38861 0.0
C1659 C 0.66105 0.2047 0.41493 0.0
C1660 C 0.67044 0.1969 0.4327 0.0
C1661 C 0.677 0.20093 0.39902 0.0
C1662 C 0.73618 0.16545 0.37993 0.0
H1663 H 0.78228 0.21819 0.29377 0.0
H1664 H 0.74859 0.21108 0.31822 0.0
H1665 H 0.76509 0.14727 0.3615 0.0
H1666 H 0.703 0.17803 0.44796 0.0
H1667 H 0.73122 0.17137 0.41997 0.0
H1668 H 0.71184 0.2293 0.37545 0.0
C1669 C 0.76849 0.2027 0.3202 0.0
C1670 C 0.7536 0.1653 0.36444 0.0
C1671 C 0.78766 0.20667 0.30615 0.0
C1672 C 0.69546 0.18412 0.4343 0.0
C1673 C 0.71148 0.18027 0.41833 0.0
C1674 C 0.72305 0.21111 0.37241 0.0
C1675 C 0.77519 0.18887 0.33683 0.0
C1676 C 0.75597 0.18815 0.35285 0.0
C1677 C 0.70264 0.18925 0.4006 0.0
C1678 C 0.72071 0.18838 0.38402 0.0
H1679 H 0.84027 0.17342 0.32623 0.0
H1680 H 0.80694 0.16696 0.35117 0.0
H1681 H 0.74231 0.22926 0.34881 0.0
H1682 H 0.64162 0.21433 0.41345 0.0
H1683 H 0.66948 0.20764 0.3855 0.0
C1684 C 0.1861 0.17113 0.66923 0.0
C1685 C 0.19475 0.18076 0.68672 0.0
C1686 C 0.18141 0.18901 0.65441 0.0
C1687 C 0.19862 0.25878 0.6395 0.0
H1688 H 0.14989 0.24211 0.5985 0.0
C1689 C 0.18115 0.32988 0.57646 0.0
C1690 C 0.18994 0.31817 0.55959 0.0
C1691 C 0.17713 0.31393 0.5924 0.0
C1692 C 0.16343 0.247 0.60995 0.0
H1693 H 0.20417 0.21618 0.70306 0.0
H1694 H 0.19439 0.24776 0.67765 0.0
H1695 H 0.15059 0.2134 0.62642 0.0
H1696 H 0.20028 0.28092 0.54561 0.0
H1697 H 0.19231 0.25269 0.57345 0.0
H1698 H 0.21089 0.29275 0.62304 0.0
C1699 C 0.19226 0.22645 0.67491 0.0
C1700 C 0.16407 0.23048 0.62588 0.0
C1701 C 0.19759 0.20847 0.68956 0.0
C1702 C 0.19339 0.29021 0.55854 0.0
C1703 C 0.18878 0.27417 0.57436 0.0
C1704 C 0.19748 0.27559 0.62379 0.0
C1705 C 0.18476 0.21695 0.65696 0.0
C1706 C 0.18208 0.23584 0.64074 0.0
C1707 C 0.18126 0.28601 0.59151 0.0
C1708 C 0.18023 0.26957 0.60878 0.0
H1709 H 0.18405 0.1497 0.66681 0.0
H1710 H 0.17617 0.18074 0.64081 0.0
H1711 H 0.21322 0.26338 0.65033 0.0
H1712 H 0.17861 0.35148 0.57753 0.0
H1713 H 0.17139 0.32341 0.60553 0.0
C1714 C 0.31778 0.81203 0.42494 0.0
C1715 C 0.31148 0.79613 0.44064 0.0
C1716 C 0.29889 0.81573 0.41061 0.0
C1717 C 0.23993 0.78136 0.39065 0.0
H1718 H 0.23297 0.84601 0.36046 0.0
C1719 C 0.16296 0.78733 0.33111 0.0
C1720 C 0.17269 0.79677 0.31383 0.0
C1721 C 0.17801 0.79081 0.34748 0.0
C1722 C 0.23481 0.82782 0.36875 0.0
H1723 H 0.28027 0.77321 0.45451 0.0
H1724 H 0.24696 0.7801 0.42974 0.0
H1725 H 0.26242 0.8461 0.38808 0.0
H1726 H 0.20487 0.8182 0.2999 0.0
H1727 H 0.23158 0.82427 0.32866 0.0
H1728 H 0.21267 0.76295 0.37134 0.0
C1729 C 0.26666 0.7891 0.42814 0.0
C1730 C 0.25166 0.82784 0.38454 0.0
C1731 C 0.28562 0.78523 0.44235 0.0
C1732 C 0.1971 0.81081 0.31318 0.0
C1733 C 0.21224 0.81433 0.3296 0.0
C1734 C 0.22307 0.78138 0.375 0.0
C1735 C 0.27333 0.80371 0.41183 0.0
C1736 C 0.25447 0.80455 0.39563 0.0
C1737 C 0.2031 0.8038 0.34684 0.0
C1738 C 0.22038 0.80454 0.36383 0.0
H1739 H 0.33773 0.82047 0.42332 0.0
H1740 H 0.30477 0.82689 0.39818 0.0
H1741 H 0.24211 0.76285 0.39856 0.0
H1742 H 0.14397 0.77669 0.33186 0.0
H1743 H 0.17024 0.78289 0.3606 0.0
loop_
_geom_bond_atom_site_label_1
_geom_bond_atom_site_label_2
_geom_bond_distance
_geom_bond_site_symmetry_2
_ccdc_geom_bond_type
Co0 O3 1.970 1_554 S
Co0 N17 1.989 . S
Co0 O25 1.967 . S
Co0 O32 1.920 . S
Co1 O4 1.966 1_554 S
Co1 N10 2.022 . S
Co1 N18 1.993 . S
Co1 O26 1.941 . S
C2 O3 1.258 . S
C2 O4 1.263 . S
O3 Co0 1.970 1_556 S
O3 C2 1.258 . S
O4 Co1 1.966 1_556 S
O4 C2 1.263 . S
C5 O6 1.235 1_554 S
C5 O32 1.289 . S
O6 C5 1.235 1_556 S
C7 C9 1.400 . S
C7 N10 1.351 . S
C7 C12 1.501 1_554 S
C8 C9 1.387 . S
C8 N11 1.341 . S
C9 C7 1.400 . S
C9 C8 1.387 . S
N10 Co1 2.022 . S
N10 C7 1.351 . S
N10 N11 1.365 . S
N11 C8 1.341 . S
N11 N10 1.365 . S
N11 H31 0.862 . S
C12 C7 1.501 1_556 S
C12 H13 0.961 . S
C12 H14 0.961 . S
C12 H15 0.960 . S
H13 C12 0.961 . S
H14 C12 0.961 . S
H15 C12 0.960 . S
C16 N17 1.342 . S
C16 C20 1.401 . S
C16 C21 1.499 . S
N17 Co0 1.989 . S
N17 C16 1.342 . S
N17 N18 1.388 . S
N18 Co1 1.993 . S
N18 N17 1.388 . S
N18 C19 1.346 . S
C19 N18 1.346 . S
C19 C20 1.396 . S
C19 C29 1.510 . S
C20 C16 1.401 . S
C20 C19 1.396 . S
C21 C16 1.499 . S
C21 H22 0.959 . S
C21 H23 0.960 . S
C21 H24 0.961 . S
H22 C21 0.959 . S
H23 C21 0.960 . S
H24 C21 0.961 . S
O25 Co0 1.967 . S
O25 C33 1.258 . S
O26 Co1 1.941 . S
O26 C33 1.266 . S
H27 C29 0.959 . S
H28 C29 0.961 . S
C29 C19 1.510 . S
C29 H27 0.959 . S
C29 H28 0.961 . S
C29 H30 0.960 . S
H30 C29 0.960 . S
H31 N11 0.862 . S
O32 Co0 1.920 . S
O32 C5 1.289 . S
C33 O25 1.258 . S
C33 O26 1.266 . S
Co34 O37 1.970 1_556 S
Co34 N51 1.989 . S
Co34 O59 1.967 . S
Co34 O66 1.920 . S
Co35 O38 1.966 1_556 S
Co35 N44 2.022 . S
Co35 N52 1.993 . S
Co35 O60 1.941 . S
C36 O37 1.258 . S
C36 O38 1.263 . S
O37 Co34 1.970 1_554 S
O37 C36 1.258 . S
O38 Co35 1.966 1_554 S
O38 C36 1.263 . S
C39 O40 1.235 1_556 S
C39 O66 1.289 . S
O40 C39 1.235 1_554 S
C41 C43 1.400 . S
C41 N44 1.351 . S
C41 C46 1.501 1_556 S
C42 C43 1.387 . S
C42 N45 1.341 . S
C43 C41 1.400 . S
C43 C42 1.387 . S
N44 Co35 2.022 . S
N44 C41 1.351 . S
N44 N45 1.365 . S
N45 C42 1.341 . S
N45 N44 1.365 . S
N45 H65 0.862 . S
C46 C41 1.501 1_554 S
C46 H47 0.961 . S
C46 H48 0.961 . S
C46 H49 0.960 . S
H47 C46 0.961 . S
H48 C46 0.961 . S
H49 C46 0.960 . S
C50 N51 1.342 . S
C50 C54 1.401 . S
C50 C55 1.499 . S
N51 Co34 1.989 . S
N51 C50 1.342 . S
N51 N52 1.388 . S
N52 Co35 1.993 . S
N52 N51 1.388 . S
N52 C53 1.346 . S
C53 N52 1.346 . S
C53 C54 1.396 . S
C53 C63 1.510 . S
C54 C50 1.401 . S
C54 C53 1.396 . S
C55 C50 1.499 . S
C55 H56 0.959 . S
C55 H57 0.960 . S
C55 H58 0.961 . S
H56 C55 0.959 . S
H57 C55 0.960 . S
H58 C55 0.961 . S
O59 Co34 1.967 . S
O59 C67 1.258 . S
O60 Co35 1.941 . S
O60 C67 1.266 . S
H61 C63 0.959 . S
H62 C63 0.961 . S
C63 C53 1.510 . S
C63 H61 0.959 . S
C63 H62 0.961 . S
C63 H64 0.960 . S
H64 C63 0.960 . S
H65 N45 0.862 . S
O66 Co34 1.920 . S
O66 C39 1.289 . S
C67 O59 1.258 . S
C67 O60 1.266 . S
Co68 O71 1.970 1_554 S
Co68 N85 1.989 . S
Co68 O93 1.967 . S
Co68 O100 1.920 . S
Co69 O72 1.966 1_554 S
Co69 N78 2.022 . S
Co69 N86 1.993 . S
Co69 O94 1.941 . S
C70 O71 1.258 . S
C70 O72 1.263 . S
O71 Co68 1.970 1_556 S
O71 C70 1.258 . S
O72 Co69 1.966 1_556 S
O72 C70 1.263 . S
C73 O74 1.235 1_554 S
C73 O100 1.289 . S
O74 C73 1.235 1_556 S
C75 C77 1.400 . S
C75 N78 1.351 . S
C75 C80 1.501 1_554 S
C76 C77 1.387 . S
C76 N79 1.341 . S
C77 C75 1.400 . S
C77 C76 1.387 . S
N78 Co69 2.022 . S
N78 C75 1.351 . S
N78 N79 1.365 . S
N79 C76 1.341 . S
N79 N78 1.365 . S
N79 H99 0.862 . S
C80 C75 1.501 1_556 S
C80 H81 0.961 . S
C80 H82 0.961 . S
C80 H83 0.960 . S
H81 C80 0.961 . S
H82 C80 0.961 . S
H83 C80 0.960 . S
C84 N85 1.342 . S
C84 C88 1.401 . S
C84 C89 1.499 . S
N85 Co68 1.989 . S
N85 C84 1.342 . S
N85 N86 1.388 . S
N86 Co69 1.993 . S
N86 N85 1.388 . S
N86 C87 1.346 . S
C87 N86 1.346 . S
C87 C88 1.396 . S
C87 C97 1.510 . S
C88 C84 1.401 . S
C88 C87 1.396 . S
C89 C84 1.499 . S
C89 H90 0.959 . S
C89 H91 0.960 . S
C89 H92 0.961 . S
H90 C89 0.959 . S
H91 C89 0.960 . S
H92 C89 0.961 . S
O93 Co68 1.967 . S
O93 C101 1.258 . S
O94 Co69 1.941 . S
O94 C101 1.266 . S
H95 C97 0.959 . S
H96 C97 0.961 . S
C97 C87 1.510 . S
C97 H95 0.959 . S
C97 H96 0.961 . S
C97 H98 0.960 . S
H98 C97 0.960 . S
H99 N79 0.862 . S
O100 Co68 1.920 . S
O100 C73 1.289 . S
C101 O93 1.258 . S
C101 O94 1.266 . S
Co102 O105 1.970 1_556 S
Co102 N119 1.989 . S
Co102 O127 1.967 . S
Co102 O134 1.920 . S
Co103 O106 1.966 1_556 S
Co103 N112 2.022 . S
Co103 N120 1.993 . S
Co103 O128 1.941 . S
C104 O105 1.258 . S
C104 O106 1.263 . S
O105 Co102 1.970 1_554 S
O105 C104 1.258 . S
O106 Co103 1.966 1_554 S
O106 C104 1.263 . S
C107 O108 1.235 1_556 S
C107 O134 1.289 . S
O108 C107 1.235 1_554 S
C109 C111 1.400 . S
C109 N112 1.351 . S
C109 C114 1.501 1_556 S
C110 C111 1.387 . S
C110 N113 1.341 . S
C111 C109 1.400 . S
C111 C110 1.387 . S
N112 Co103 2.022 . S
N112 C109 1.351 . S
N112 N113 1.365 . S
N113 C110 1.341 . S
N113 N112 1.365 . S
N113 H133 0.862 . S
C114 C109 1.501 1_554 S
C114 H115 0.961 . S
C114 H116 0.961 . S
C114 H117 0.960 . S
H115 C114 0.961 . S
H116 C114 0.961 . S
H117 C114 0.960 . S
C118 N119 1.342 . S
C118 C122 1.401 . S
C118 C123 1.499 . S
N119 Co102 1.989 . S
N119 C118 1.342 . S
N119 N120 1.388 . S
N120 Co103 1.993 . S
N120 N119 1.388 . S
N120 C121 1.346 . S
C121 N120 1.346 . S
C121 C122 1.396 . S
C121 C131 1.510 . S
C122 C118 1.401 . S
C122 C121 1.396 . S
C123 C118 1.499 . S
C123 H124 0.959 . S
C123 H125 0.960 . S
C123 H126 0.961 . S
H124 C123 0.959 . S
H125 C123 0.960 . S
H126 C123 0.961 . S
O127 Co102 1.967 . S
O127 C135 1.258 . S
O128 Co103 1.941 . S
O128 C135 1.266 . S
H129 C131 0.959 . S
H130 C131 0.961 . S
C131 C121 1.510 . S
C131 H129 0.959 . S
C131 H130 0.961 . S
C131 H132 0.960 . S
H132 C131 0.960 . S
H133 N113 0.862 . S
O134 Co102 1.920 . S
O134 C107 1.289 . S
C135 O127 1.258 . S
C135 O128 1.266 . S
Co136 O139 1.970 . S
Co136 N153 1.989 . S
Co136 O161 1.967 . S
Co136 O168 1.920 . S
Co137 O140 1.966 . S
Co137 N146 2.022 . S
Co137 N154 1.993 . S
Co137 O162 1.941 . S
C138 O139 1.258 . S
C138 O140 1.263 . S
O139 Co136 1.970 . S
O139 C138 1.258 . S
O140 Co137 1.966 . S
O140 C138 1.263 . S
C141 O142 1.235 . S
C141 O168 1.289 . S
O142 C141 1.235 . S
C143 C145 1.400 . S
C143 N146 1.351 . S
C143 C148 1.501 . S
C144 C145 1.387 . S
C144 N147 1.341 . S
C145 C143 1.400 . S
C145 C144 1.387 . S
N146 Co137 2.022 . S
N146 C143 1.351 . S
N146 N147 1.365 . S
N147 C144 1.341 . S
N147 N146 1.365 . S
N147 H167 0.862 . S
C148 C143 1.501 . S
C148 H149 0.961 . S
C148 H150 0.961 . S
C148 H151 0.960 . S
H149 C148 0.961 . S
H150 C148 0.961 . S
H151 C148 0.960 . S
C152 N153 1.342 . S
C152 C156 1.401 . S
C152 C157 1.499 . S
N153 Co136 1.989 . S
N153 C152 1.342 . S
N153 N154 1.388 . S
N154 Co137 1.993 . S
N154 N153 1.388 . S
N154 C155 1.346 . S
C155 N154 1.346 . S
C155 C156 1.396 . S
C155 C165 1.510 . S
C156 C152 1.401 . S
C156 C155 1.396 . S
C157 C152 1.499 . S
C157 H158 0.959 . S
C157 H159 0.960 . S
C157 H160 0.961 . S
H158 C157 0.959 . S
H159 C157 0.960 . S
H160 C157 0.961 . S
O161 Co136 1.967 . S
O161 C169 1.258 . S
O162 Co137 1.941 . S
O162 C169 1.266 . S
H163 C165 0.959 . S
H164 C165 0.961 . S
C165 C155 1.510 . S
C165 H163 0.959 . S
C165 H164 0.961 . S
C165 H166 0.960 . S
H166 C165 0.960 . S
H167 N147 0.862 . S
O168 Co136 1.920 . S
O168 C141 1.289 . S
C169 O161 1.258 . S
C169 O162 1.266 . S
Co170 O173 1.970 . S
Co170 N187 1.989 . S
Co170 O195 1.967 . S
Co170 O202 1.920 . S
Co171 O174 1.966 . S
Co171 N180 2.022 . S
Co171 N188 1.993 . S
Co171 O196 1.941 . S
C172 O173 1.258 . S
C172 O174 1.263 . S
O173 Co170 1.970 . S
O173 C172 1.258 . S
O174 Co171 1.966 . S
O174 C172 1.263 . S
C175 O176 1.235 . S
C175 O202 1.289 . S
O176 C175 1.235 . S
C177 C179 1.400 . S
C177 N180 1.351 . S
C177 C182 1.501 . S
C178 C179 1.387 . S
C178 N181 1.341 . S
C179 C177 1.400 . S
C179 C178 1.387 . S
N180 Co171 2.022 . S
N180 C177 1.351 . S
N180 N181 1.365 . S
N181 C178 1.341 . S
N181 N180 1.365 . S
N181 H201 0.862 . S
C182 C177 1.501 . S
C182 H183 0.961 . S
C182 H184 0.961 . S
C182 H185 0.960 . S
H183 C182 0.961 . S
H184 C182 0.961 . S
H185 C182 0.960 . S
C186 N187 1.342 . S
C186 C190 1.401 . S
C186 C191 1.499 . S
N187 Co170 1.989 . S
N187 C186 1.342 . S
N187 N188 1.388 . S
N188 Co171 1.993 . S
N188 N187 1.388 . S
N188 C189 1.346 . S
C189 N188 1.346 . S
C189 C190 1.396 . S
C189 C199 1.510 . S
C190 C186 1.401 . S
C190 C189 1.396 . S
C191 C186 1.499 . S
C191 H192 0.959 . S
C191 H193 0.960 . S
C191 H194 0.961 . S
H192 C191 0.959 . S
H193 C191 0.960 . S
H194 C191 0.961 . S
O195 Co170 1.967 . S
O195 C203 1.258 . S
O196 Co171 1.941 . S
O196 C203 1.266 . S
H197 C199 0.959 . S
H198 C199 0.961 . S
C199 C189 1.510 . S
C199 H197 0.959 . S
C199 H198 0.961 . S
C199 H200 0.960 . S
H200 C199 0.960 . S
H201 N181 0.862 . S
O202 Co170 1.920 . S
O202 C175 1.289 . S
C203 O195 1.258 . S
C203 O196 1.266 . S
Co204 O207 1.970 . S
Co204 N221 1.989 . S
Co204 O229 1.967 . S
Co204 O236 1.920 . S
Co205 O208 1.966 . S
Co205 N214 2.022 . S
Co205 N222 1.993 . S
Co205 O230 1.941 . S
C206 O207 1.258 . S
C206 O208 1.263 . S
O207 Co204 1.970 . S
O207 C206 1.258 . S
O208 Co205 1.966 . S
O208 C206 1.263 . S
C209 O210 1.235 . S
C209 O236 1.289 . S
O210 C209 1.235 . S
C211 C213 1.400 . S
C211 N214 1.351 . S
C211 C216 1.501 . S
C212 C213 1.387 . S
C212 N215 1.341 . S
C213 C211 1.400 . S
C213 C212 1.387 . S
N214 Co205 2.022 . S
N214 C211 1.351 . S
N214 N215 1.365 . S
N215 C212 1.341 . S
N215 N214 1.365 . S
N215 H235 0.862 . S
C216 C211 1.501 . S
C216 H217 0.961 . S
C216 H218 0.961 . S
C216 H219 0.960 . S
H217 C216 0.961 . S
H218 C216 0.961 . S
H219 C216 0.960 . S
C220 N221 1.342 . S
C220 C224 1.401 . S
C220 C225 1.499 . S
N221 Co204 1.989 . S
N221 C220 1.342 . S
N221 N222 1.388 . S
N222 Co205 1.993 . S
N222 N221 1.388 . S
N222 C223 1.346 . S
C223 N222 1.346 . S
C223 C224 1.396 . S
C223 C233 1.510 . S
C224 C220 1.401 . S
C224 C223 1.396 . S
C225 C220 1.499 . S
C225 H226 0.959 . S
C225 H227 0.960 . S
C225 H228 0.961 . S
H226 C225 0.959 . S
H227 C225 0.960 . S
H228 C225 0.961 . S
O229 Co204 1.967 . S
O229 C237 1.258 . S
O230 Co205 1.941 . S
O230 C237 1.266 . S
H231 C233 0.959 . S
H232 C233 0.961 . S
C233 C223 1.510 . S
C233 H231 0.959 . S
C233 H232 0.961 . S
C233 H234 0.960 . S
H234 C233 0.960 . S
H235 N215 0.862 . S
O236 Co204 1.920 . S
O236 C209 1.289 . S
C237 O229 1.258 . S
C237 O230 1.266 . S
Co238 O241 1.970 . S
Co238 N255 1.989 . S
Co238 O263 1.967 . S
Co238 O270 1.920 . S
Co239 O242 1.966 . S
Co239 N248 2.022 . S
Co239 N256 1.993 . S
Co239 O264 1.941 . S
C240 O241 1.258 . S
C240 O242 1.263 . S
O241 Co238 1.970 . S
O241 C240 1.258 . S
O242 Co239 1.966 . S
O242 C240 1.263 . S
C243 O244 1.235 . S
C243 O270 1.289 . S
O244 C243 1.235 . S
C245 C247 1.400 . S
C245 N248 1.351 . S
C245 C250 1.501 . S
C246 C247 1.387 . S
C246 N249 1.341 . S
C247 C245 1.400 . S
C247 C246 1.387 . S
N248 Co239 2.022 . S
N248 C245 1.351 . S
N248 N249 1.365 . S
N249 C246 1.341 . S
N249 N248 1.365 . S
N249 H269 0.862 . S
C250 C245 1.501 . S
C250 H251 0.961 . S
C250 H252 0.961 . S
C250 H253 0.960 . S
H251 C250 0.961 . S
H252 C250 0.961 . S
H253 C250 0.960 . S
C254 N255 1.342 . S
C254 C258 1.401 . S
C254 C259 1.499 . S
N255 Co238 1.989 . S
N255 C254 1.342 . S
N255 N256 1.388 . S
N256 Co239 1.993 . S
N256 N255 1.388 . S
N256 C257 1.346 . S
C257 N256 1.346 . S
C257 C258 1.396 . S
C257 C267 1.510 . S
C258 C254 1.401 . S
C258 C257 1.396 . S
C259 C254 1.499 . S
C259 H260 0.959 . S
C259 H261 0.960 . S
C259 H262 0.961 . S
H260 C259 0.959 . S
H261 C259 0.960 . S
H262 C259 0.961 . S
O263 Co238 1.967 . S
O263 C271 1.258 . S
O264 Co239 1.941 . S
O264 C271 1.266 . S
H265 C267 0.959 . S
H266 C267 0.961 . S
C267 C257 1.510 . S
C267 H265 0.959 . S
C267 H266 0.961 . S
C267 H268 0.960 . S
H268 C267 0.960 . S
H269 N249 0.862 . S
O270 Co238 1.920 . S
O270 C243 1.289 . S
C271 O263 1.258 . S
C271 O264 1.266 . S
Co272 O275 1.970 . S
Co272 N289 1.989 . S
Co272 O297 1.967 . S
Co272 O304 1.920 . S
Co273 O276 1.966 . S
Co273 N282 2.022 . S
Co273 N290 1.993 . S
Co273 O298 1.941 . S
C274 O275 1.258 . S
C274 O276 1.263 . S
O275 Co272 1.970 . S
O275 C274 1.258 . S
O276 Co273 1.966 . S
O276 C274 1.263 . S
C277 O278 1.235 . S
C277 O304 1.289 . S
O278 C277 1.235 . S
C279 C281 1.400 . S
C279 N282 1.351 . S
C279 C284 1.501 . S
C280 C281 1.387 . S
C280 N283 1.341 . S
C281 C279 1.400 . S
C281 C280 1.387 . S
N282 Co273 2.022 . S
N282 C279 1.351 . S
N282 N283 1.365 . S
N283 C280 1.341 . S
N283 N282 1.365 . S
N283 H303 0.862 . S
C284 C279 1.501 . S
C284 H285 0.961 . S
C284 H286 0.961 . S
C284 H287 0.960 . S
H285 C284 0.961 . S
H286 C284 0.961 . S
H287 C284 0.960 . S
C288 N289 1.342 . S
C288 C292 1.401 . S
C288 C293 1.499 . S
N289 Co272 1.989 . S
N289 C288 1.342 . S
N289 N290 1.388 . S
N290 Co273 1.993 . S
N290 N289 1.388 . S
N290 C291 1.346 . S
C291 N290 1.346 . S
C291 C292 1.396 . S
C291 C301 1.510 . S
C292 C288 1.401 . S
C292 C291 1.396 . S
C293 C288 1.499 . S
C293 H294 0.959 . S
C293 H295 0.960 . S
C293 H296 0.961 . S
H294 C293 0.959 . S
H295 C293 0.960 . S
H296 C293 0.961 . S
O297 Co272 1.967 . S
O297 C305 1.258 . S
O298 Co273 1.941 . S
O298 C305 1.266 . S
H299 C301 0.959 . S
H300 C301 0.961 . S
C301 C291 1.510 . S
C301 H299 0.959 . S
C301 H300 0.961 . S
C301 H302 0.960 . S
H302 C301 0.960 . S
H303 N283 0.862 . S
O304 Co272 1.920 . S
O304 C277 1.289 . S
C305 O297 1.258 . S
C305 O298 1.266 . S
Co306 O309 1.970 . S
Co306 N323 1.989 . S
Co306 O331 1.967 . S
Co306 O338 1.920 . S
Co307 O310 1.966 . S
Co307 N316 2.022 . S
Co307 N324 1.993 . S
Co307 O332 1.941 . S
C308 O309 1.258 . S
C308 O310 1.263 . S
O309 Co306 1.970 . S
O309 C308 1.258 . S
O310 Co307 1.966 . S
O310 C308 1.263 . S
C311 O312 1.235 . S
C311 O338 1.289 . S
O312 C311 1.235 . S
C313 C315 1.400 . S
C313 N316 1.351 . S
C313 C318 1.501 . S
C314 C315 1.387 . S
C314 N317 1.341 . S
C315 C313 1.400 . S
C315 C314 1.387 . S
N316 Co307 2.022 . S
N316 C313 1.351 . S
N316 N317 1.365 . S
N317 C314 1.341 . S
N317 N316 1.365 . S
N317 H337 0.862 . S
C318 C313 1.501 . S
C318 H319 0.961 . S
C318 H320 0.961 . S
C318 H321 0.960 . S
H319 C318 0.961 . S
H320 C318 0.961 . S
H321 C318 0.960 . S
C322 N323 1.342 . S
C322 C326 1.401 . S
C322 C327 1.499 . S
N323 Co306 1.989 . S
N323 C322 1.342 . S
N323 N324 1.388 . S
N324 Co307 1.993 . S
N324 N323 1.388 . S
N324 C325 1.346 . S
C325 N324 1.346 . S
C325 C326 1.396 . S
C325 C335 1.510 . S
C326 C322 1.401 . S
C326 C325 1.396 . S
C327 C322 1.499 . S
C327 H328 0.959 . S
C327 H329 0.960 . S
C327 H330 0.961 . S
H328 C327 0.959 . S
H329 C327 0.960 . S
H330 C327 0.961 . S
O331 Co306 1.967 . S
O331 C339 1.258 . S
O332 Co307 1.941 . S
O332 C339 1.266 . S
H333 C335 0.959 . S
H334 C335 0.961 . S
C335 C325 1.510 . S
C335 H333 0.959 . S
C335 H334 0.961 . S
C335 H336 0.960 . S
H336 C335 0.960 . S
H337 N317 0.862 . S
O338 Co306 1.920 . S
O338 C311 1.289 . S
C339 O331 1.258 . S
C339 O332 1.266 . S
Co340 O343 1.970 . S
Co340 N357 1.989 . S
Co340 O365 1.967 . S
Co340 O372 1.920 . S
Co341 O344 1.966 . S
Co341 N350 2.022 . S
Co341 N358 1.993 . S
Co341 O366 1.941 . S
C342 O343 1.258 . S
C342 O344 1.263 . S
O343 Co340 1.970 . S
O343 C342 1.258 . S
O344 Co341 1.966 . S
O344 C342 1.263 . S
C345 O346 1.235 . S
C345 O372 1.289 . S
O346 C345 1.235 . S
C347 C349 1.400 . S
C347 N350 1.351 . S
C347 C352 1.501 . S
C348 C349 1.387 . S
C348 N351 1.341 . S
C349 C347 1.400 . S
C349 C348 1.387 . S
N350 Co341 2.022 . S
N350 C347 1.351 . S
N350 N351 1.365 . S
N351 C348 1.341 . S
N351 N350 1.365 . S
N351 H371 0.862 . S
C352 C347 1.501 . S
C352 H353 0.961 . S
C352 H354 0.961 . S
C352 H355 0.960 . S
H353 C352 0.961 . S
H354 C352 0.961 . S
H355 C352 0.960 . S
C356 N357 1.342 . S
C356 C360 1.401 . S
C356 C361 1.499 . S
N357 Co340 1.989 . S
N357 C356 1.342 . S
N357 N358 1.388 . S
N358 Co341 1.993 . S
N358 N357 1.388 . S
N358 C359 1.346 . S
C359 N358 1.346 . S
C359 C360 1.396 . S
C359 C369 1.510 . S
C360 C356 1.401 . S
C360 C359 1.396 . S
C361 C356 1.499 . S
C361 H362 0.959 . S
C361 H363 0.960 . S
C361 H364 0.961 . S
H362 C361 0.959 . S
H363 C361 0.960 . S
H364 C361 0.961 . S
O365 Co340 1.967 . S
O365 C373 1.258 . S
O366 Co341 1.941 . S
O366 C373 1.266 . S
H367 C369 0.959 . S
H368 C369 0.961 . S
C369 C359 1.510 . S
C369 H367 0.959 . S
C369 H368 0.961 . S
C369 H370 0.960 . S
H370 C369 0.960 . S
H371 N351 0.862 . S
O372 Co340 1.920 . S
O372 C345 1.289 . S
C373 O365 1.258 . S
C373 O366 1.266 . S
Co374 O377 1.970 . S
Co374 N391 1.989 . S
Co374 O399 1.967 . S
Co374 O406 1.920 . S
Co375 O378 1.966 . S
Co375 N384 2.022 . S
Co375 N392 1.993 . S
Co375 O400 1.941 . S
C376 O377 1.258 . S
C376 O378 1.263 . S
O377 Co374 1.970 . S
O377 C376 1.258 . S
O378 Co375 1.966 . S
O378 C376 1.263 . S
C379 O380 1.235 . S
C379 O406 1.289 . S
O380 C379 1.235 . S
C381 C383 1.400 . S
C381 N384 1.351 . S
C381 C386 1.501 . S
C382 C383 1.387 . S
C382 N385 1.341 . S
C383 C381 1.400 . S
C383 C382 1.387 . S
N384 Co375 2.022 . S
N384 C381 1.351 . S
N384 N385 1.365 . S
N385 C382 1.341 . S
N385 N384 1.365 . S
N385 H405 0.862 . S
C386 C381 1.501 . S
C386 H387 0.961 . S
C386 H388 0.961 . S
C386 H389 0.960 . S
H387 C386 0.961 . S
H388 C386 0.961 . S
H389 C386 0.960 . S
C390 N391 1.342 . S
C390 C394 1.401 . S
C390 C395 1.499 . S
N391 Co374 1.989 . S
N391 C390 1.342 . S
N391 N392 1.388 . S
N392 Co375 1.993 . S
N392 N391 1.388 . S
N392 C393 1.346 . S
C393 N392 1.346 . S
C393 C394 1.396 . S
C393 C403 1.510 . S
C394 C390 1.401 . S
C394 C393 1.396 . S
C395 C390 1.499 . S
C395 H396 0.959 . S
C395 H397 0.960 . S
C395 H398 0.961 . S
H396 C395 0.959 . S
H397 C395 0.960 . S
H398 C395 0.961 . S
O399 Co374 1.967 . S
O399 C407 1.258 . S
O400 Co375 1.941 . S
O400 C407 1.266 . S
H401 C403 0.959 . S
H402 C403 0.961 . S
C403 C393 1.510 . S
C403 H401 0.959 . S
C403 H402 0.961 . S
C403 H404 0.960 . S
H404 C403 0.960 . S
H405 N385 0.862 . S
O406 Co374 1.920 . S
O406 C379 1.289 . S
C407 O399 1.258 . S
C407 O400 1.266 . S
Co408 O411 1.970 . S
Co408 N425 1.989 . S
Co408 O433 1.967 . S
Co408 O440 1.920 . S
Co409 O412 1.966 . S
Co409 N418 2.022 . S
Co409 N426 1.993 . S
Co409 O434 1.941 . S
C410 O411 1.258 . S
C410 O412 1.263 . S
O411 Co408 1.970 . S
O411 C410 1.258 . S
O412 Co409 1.966 . S
O412 C410 1.263 . S
C413 O414 1.235 . S
C413 O440 1.289 . S
O414 C413 1.235 . S
C415 C417 1.400 . S
C415 N418 1.351 . S
C415 C420 1.501 . S
C416 C417 1.387 . S
C416 N419 1.341 . S
C417 C415 1.400 . S
C417 C416 1.387 . S
N418 Co409 2.022 . S
N418 C415 1.351 . S
N418 N419 1.365 . S
N419 C416 1.341 . S
N419 N418 1.365 . S
N419 H439 0.862 . S
C420 C415 1.501 . S
C420 H421 0.961 . S
C420 H422 0.961 . S
C420 H423 0.960 . S
H421 C420 0.961 . S
H422 C420 0.961 . S
H423 C420 0.960 . S
C424 N425 1.342 . S
C424 C428 1.401 . S
C424 C429 1.499 . S
N425 Co408 1.989 . S
N425 C424 1.342 . S
N425 N426 1.388 . S
N426 Co409 1.993 . S
N426 N425 1.388 . S
N426 C427 1.346 . S
C427 N426 1.346 . S
C427 C428 1.396 . S
C427 C437 1.510 . S
C428 C424 1.401 . S
C428 C427 1.396 . S
C429 C424 1.499 . S
C429 H430 0.959 . S
C429 H431 0.960 . S
C429 H432 0.961 . S
H430 C429 0.959 . S
H431 C429 0.960 . S
H432 C429 0.961 . S
O433 Co408 1.967 . S
O433 C441 1.258 . S
O434 Co409 1.941 . S
O434 C441 1.266 . S
H435 C437 0.959 . S
H436 C437 0.961 . S
C437 C427 1.510 . S
C437 H435 0.959 . S
C437 H436 0.961 . S
C437 H438 0.960 . S
H438 C437 0.960 . S
H439 N419 0.862 . S
O440 Co408 1.920 . S
O440 C413 1.289 . S
C441 O433 1.258 . S
C441 O434 1.266 . S
Co442 O445 1.970 . S
Co442 N459 1.989 . S
Co442 O467 1.967 . S
Co442 O474 1.920 . S
Co443 O446 1.966 . S
Co443 N452 2.022 . S
Co443 N460 1.993 . S
Co443 O468 1.941 . S
C444 O445 1.258 . S
C444 O446 1.263 . S
O445 Co442 1.970 . S
O445 C444 1.258 . S
O446 Co443 1.966 . S
O446 C444 1.263 . S
C447 O448 1.235 . S
C447 O474 1.289 . S
O448 C447 1.235 . S
C449 C451 1.400 . S
C449 N452 1.351 . S
C449 C454 1.501 . S
C450 C451 1.387 . S
C450 N453 1.341 . S
C451 C449 1.400 . S
C451 C450 1.387 . S
N452 Co443 2.022 . S
N452 C449 1.351 . S
N452 N453 1.365 . S
N453 C450 1.341 . S
N453 N452 1.365 . S
N453 H473 0.862 . S
C454 C449 1.501 . S
C454 H455 0.961 . S
C454 H456 0.961 . S
C454 H457 0.960 . S
H455 C454 0.961 . S
H456 C454 0.961 . S
H457 C454 0.960 . S
C458 N459 1.342 . S
C458 C462 1.401 . S
C458 C463 1.499 . S
N459 Co442 1.989 . S
N459 C458 1.342 . S
N459 N460 1.388 . S
N460 Co443 1.993 . S
N460 N459 1.388 . S
N460 C461 1.346 . S
C461 N460 1.346 . S
C461 C462 1.396 . S
C461 C471 1.510 . S
C462 C458 1.401 . S
C462 C461 1.396 . S
C463 C458 1.499 . S
C463 H464 0.959 . S
C463 H465 0.960 . S
C463 H466 0.961 . S
H464 C463 0.959 . S
H465 C463 0.960 . S
H466 C463 0.961 . S
O467 Co442 1.967 . S
O467 C475 1.258 . S
O468 Co443 1.941 . S
O468 C475 1.266 . S
H469 C471 0.959 . S
H470 C471 0.961 . S
C471 C461 1.510 . S
C471 H469 0.959 . S
C471 H470 0.961 . S
C471 H472 0.960 . S
H472 C471 0.960 . S
H473 N453 0.862 . S
O474 Co442 1.920 . S
O474 C447 1.289 . S
C475 O467 1.258 . S
C475 O468 1.266 . S
Co476 O479 1.970 . S
Co476 N493 1.989 . S
Co476 O501 1.967 . S
Co476 O508 1.920 . S
Co477 O480 1.966 . S
Co477 N486 2.022 . S
Co477 N494 1.993 . S
Co477 O502 1.941 . S
C478 O479 1.258 . S
C478 O480 1.263 . S
O479 Co476 1.970 . S
O479 C478 1.258 . S
O480 Co477 1.966 . S
O480 C478 1.263 . S
C481 O482 1.235 . S
C481 O508 1.289 . S
O482 C481 1.235 . S
C483 C485 1.400 . S
C483 N486 1.351 . S
C483 C488 1.501 . S
C484 C485 1.387 . S
C484 N487 1.341 . S
C485 C483 1.400 . S
C485 C484 1.387 . S
N486 Co477 2.022 . S
N486 C483 1.351 . S
N486 N487 1.365 . S
N487 C484 1.341 . S
N487 N486 1.365 . S
N487 H507 0.862 . S
C488 C483 1.501 . S
C488 H489 0.961 . S
C488 H490 0.961 . S
C488 H491 0.960 . S
H489 C488 0.961 . S
H490 C488 0.961 . S
H491 C488 0.960 . S
C492 N493 1.342 . S
C492 C496 1.401 . S
C492 C497 1.499 . S
N493 Co476 1.989 . S
N493 C492 1.342 . S
N493 N494 1.388 . S
N494 Co477 1.993 . S
N494 N493 1.388 . S
N494 C495 1.346 . S
C495 N494 1.346 . S
C495 C496 1.396 . S
C495 C505 1.510 . S
C496 C492 1.401 . S
C496 C495 1.396 . S
C497 C492 1.499 . S
C497 H498 0.959 . S
C497 H499 0.960 . S
C497 H500 0.961 . S
H498 C497 0.959 . S
H499 C497 0.960 . S
H500 C497 0.961 . S
O501 Co476 1.967 . S
O501 C509 1.258 . S
O502 Co477 1.941 . S
O502 C509 1.266 . S
H503 C505 0.959 . S
H504 C505 0.961 . S
C505 C495 1.510 . S
C505 H503 0.959 . S
C505 H504 0.961 . S
C505 H506 0.960 . S
H506 C505 0.960 . S
H507 N487 0.862 . S
O508 Co476 1.920 . S
O508 C481 1.289 . S
C509 O501 1.258 . S
C509 O502 1.266 . S
Co510 O513 1.970 . S
Co510 N527 1.989 . S
Co510 O535 1.967 . S
Co510 O542 1.920 . S
Co511 O514 1.966 . S
Co511 N520 2.022 . S
Co511 N528 1.993 . S
Co511 O536 1.941 . S
C512 O513 1.258 . S
C512 O514 1.263 . S
O513 Co510 1.970 . S
O513 C512 1.258 . S
O514 Co511 1.966 . S
O514 C512 1.263 . S
C515 O516 1.235 . S
C515 O542 1.289 . S
O516 C515 1.235 . S
C517 C519 1.400 . S
C517 N520 1.351 . S
C517 C522 1.501 . S
C518 C519 1.387 . S
C518 N521 1.341 . S
C519 C517 1.400 . S
C519 C518 1.387 . S
N520 Co511 2.022 . S
N520 C517 1.351 . S
N520 N521 1.365 . S
N521 C518 1.341 . S
N521 N520 1.365 . S
N521 H541 0.862 . S
C522 C517 1.501 . S
C522 H523 0.961 . S
C522 H524 0.961 . S
C522 H525 0.960 . S
H523 C522 0.961 . S
H524 C522 0.961 . S
H525 C522 0.960 . S
C526 N527 1.342 . S
C526 C530 1.401 . S
C526 C531 1.499 . S
N527 Co510 1.989 . S
N527 C526 1.342 . S
N527 N528 1.388 . S
N528 Co511 1.993 . S
N528 N527 1.388 . S
N528 C529 1.346 . S
C529 N528 1.346 . S
C529 C530 1.396 . S
C529 C539 1.510 . S
C530 C526 1.401 . S
C530 C529 1.396 . S
C531 C526 1.499 . S
C531 H532 0.959 . S
C531 H533 0.960 . S
C531 H534 0.961 . S
H532 C531 0.959 . S
H533 C531 0.960 . S
H534 C531 0.961 . S
O535 Co510 1.967 . S
O535 C543 1.258 . S
O536 Co511 1.941 . S
O536 C543 1.266 . S
H537 C539 0.959 . S
H538 C539 0.961 . S
C539 C529 1.510 . S
C539 H537 0.959 . S
C539 H538 0.961 . S
C539 H540 0.960 . S
H540 C539 0.960 . S
H541 N521 0.862 . S
O542 Co510 1.920 . S
O542 C515 1.289 . S
C543 O535 1.258 . S
C543 O536 1.266 . S
C544 C545 1.349 . S
C544 C546 1.327 . S
C544 H569 0.950 . S
C545 C544 1.349 . S
C545 C561 1.349 . S
C546 C544 1.327 . S
C546 C565 1.429 . S
C546 H570 0.950 . S
C547 C564 1.574 . S
C547 C566 1.368 . S
C547 H571 0.949 . S
H548 C552 0.949 . S
C549 C550 1.349 . S
C549 C551 1.327 . S
C549 H572 0.950 . S
C550 C549 1.349 . S
C550 C562 1.349 . S
C551 C549 1.327 . S
C551 C567 1.429 . S
C551 H573 0.950 . S
C552 H548 0.949 . S
C552 C560 1.574 . S
C552 C568 1.368 . S
H553 C561 0.950 . S
H554 C559 0.950 . S
H555 C560 0.949 . S
H556 C562 0.950 . S
H557 C563 0.950 . S
H558 C564 0.949 . S
C559 H554 0.950 . S
C559 C561 1.327 . S
C559 C565 1.429 . S
C560 C552 1.574 . S
C560 H555 0.949 . S
C560 C566 1.368 . S
C561 C545 1.349 . S
C561 H553 0.950 . S
C561 C559 1.327 . S
C562 C550 1.349 . S
C562 H556 0.950 . S
C562 C563 1.327 . S
C563 H557 0.950 . S
C563 C562 1.327 . S
C563 C567 1.429 . S
C564 C547 1.574 . S
C564 H558 0.949 . S
C564 C568 1.368 . S
C565 C546 1.429 . S
C565 C559 1.429 . S
C565 C566 1.523 . S
C566 C547 1.368 . S
C566 C560 1.368 . S
C566 C565 1.523 . S
C567 C551 1.429 . S
C567 C563 1.429 . S
C567 C568 1.523 . S
C568 C552 1.368 . S
C568 C564 1.368 . S
C568 C567 1.523 . S
H569 C544 0.950 . S
H570 C546 0.950 . S
H571 C547 0.949 . S
H572 C549 0.950 . S
H573 C551 0.950 . S
C574 C575 1.349 . S
C574 C576 1.327 . S
C574 H599 0.950 . S
C575 C574 1.349 . S
C575 C591 1.349 . S
C576 C574 1.327 . S
C576 C595 1.429 . S
C576 H600 0.950 . S
C577 C594 1.574 . S
C577 C596 1.368 . S
C577 H601 0.949 . S
H578 C582 0.949 . S
C579 C580 1.349 . S
C579 C581 1.327 . S
C579 H602 0.950 . S
C580 C579 1.349 . S
C580 C592 1.349 . S
C581 C579 1.327 . S
C581 C597 1.429 . S
C581 H603 0.950 . S
C582 H578 0.949 . S
C582 C590 1.574 . S
C582 C598 1.368 . S
H583 C591 0.950 . S
H584 C589 0.950 . S
H585 C590 0.949 . S
H586 C592 0.950 . S
H587 C593 0.950 . S
H588 C594 0.949 . S
C589 H584 0.950 . S
C589 C591 1.327 . S
C589 C595 1.429 . S
C590 C582 1.574 . S
C590 H585 0.949 . S
C590 C596 1.368 . S
C591 C575 1.349 . S
C591 H583 0.950 . S
C591 C589 1.327 . S
C592 C580 1.349 . S
C592 H586 0.950 . S
C592 C593 1.327 . S
C593 H587 0.950 . S
C593 C592 1.327 . S
C593 C597 1.429 . S
C594 C577 1.574 . S
C594 H588 0.949 . S
C594 C598 1.368 . S
C595 C576 1.429 . S
C595 C589 1.429 . S
C595 C596 1.523 . S
C596 C577 1.368 . S
C596 C590 1.368 . S
C596 C595 1.523 . S
C597 C581 1.429 . S
C597 C593 1.429 . S
C597 C598 1.523 . S
C598 C582 1.368 . S
C598 C594 1.368 . S
C598 C597 1.523 . S
H599 C574 0.950 . S
H600 C576 0.950 . S
H601 C577 0.949 . S
H602 C579 0.950 . S
H603 C581 0.950 . S
C604 C605 1.349 . S
C604 C606 1.327 . S
C604 H629 0.950 . S
C605 C604 1.349 . S
C605 C621 1.349 . S
C606 C604 1.327 . S
C606 C625 1.429 . S
C606 H630 0.950 . S
C607 C624 1.574 . S
C607 C626 1.368 . S
C607 H631 0.949 . S
H608 C612 0.949 . S
C609 C610 1.349 . S
C609 C611 1.327 . S
C609 H632 0.950 . S
C610 C609 1.349 . S
C610 C622 1.349 . S
C611 C609 1.327 . S
C611 C627 1.429 . S
C611 H633 0.950 . S
C612 H608 0.949 . S
C612 C620 1.574 . S
C612 C628 1.368 . S
H613 C621 0.950 . S
H614 C619 0.950 . S
H615 C620 0.949 . S
H616 C622 0.950 . S
H617 C623 0.950 . S
H618 C624 0.949 . S
C619 H614 0.950 . S
C619 C621 1.327 . S
C619 C625 1.429 . S
C620 C612 1.574 . S
C620 H615 0.949 . S
C620 C626 1.368 . S
C621 C605 1.349 . S
C621 H613 0.950 . S
C621 C619 1.327 . S
C622 C610 1.349 . S
C622 H616 0.950 . S
C622 C623 1.327 . S
C623 H617 0.950 . S
C623 C622 1.327 . S
C623 C627 1.429 . S
C624 C607 1.574 . S
C624 H618 0.949 . S
C624 C628 1.368 . S
C625 C606 1.429 . S
C625 C619 1.429 . S
C625 C626 1.523 . S
C626 C607 1.368 . S
C626 C620 1.368 . S
C626 C625 1.523 . S
C627 C611 1.429 . S
C627 C623 1.429 . S
C627 C628 1.523 . S
C628 C612 1.368 . S
C628 C624 1.368 . S
C628 C627 1.523 . S
H629 C604 0.950 . S
H630 C606 0.950 . S
H631 C607 0.949 . S
H632 C609 0.950 . S
H633 C611 0.950 . S
C634 C635 1.349 . S
C634 C636 1.327 . S
C634 H659 0.950 . S
C635 C634 1.349 . S
C635 C651 1.349 . S
C636 C634 1.327 . S
C636 C655 1.429 . S
C636 H660 0.950 . S
C637 C654 1.574 . S
C637 C656 1.368 . S
C637 H661 0.949 . S
H638 C642 0.949 . S
C639 C640 1.349 . S
C639 C641 1.327 . S
C639 H662 0.950 . S
C640 C639 1.349 . S
C640 C652 1.349 . S
C641 C639 1.327 . S
C641 C657 1.429 . S
C641 H663 0.950 . S
C642 H638 0.949 . S
C642 C650 1.574 . S
C642 C658 1.368 . S
H643 C651 0.950 . S
H644 C649 0.950 . S
H645 C650 0.949 . S
H646 C652 0.950 . S
H647 C653 0.950 . S
H648 C654 0.949 . S
C649 H644 0.950 . S
C649 C651 1.327 . S
C649 C655 1.429 . S
C650 C642 1.574 . S
C650 H645 0.949 . S
C650 C656 1.368 . S
C651 C635 1.349 . S
C651 H643 0.950 . S
C651 C649 1.327 . S
C652 C640 1.349 . S
C652 H646 0.950 . S
C652 C653 1.327 . S
C653 H647 0.950 . S
C653 C652 1.327 . S
C653 C657 1.429 . S
C654 C637 1.574 . S
C654 H648 0.949 . S
C654 C658 1.368 . S
C655 C636 1.429 . S
C655 C649 1.429 . S
C655 C656 1.523 . S
C656 C637 1.368 . S
C656 C650 1.368 . S
C656 C655 1.523 . S
C657 C641 1.429 . S
C657 C653 1.429 . S
C657 C658 1.523 . S
C658 C642 1.368 . S
C658 C654 1.368 . S
C658 C657 1.523 . S
H659 C634 0.950 . S
H660 C636 0.950 . S
H661 C637 0.949 . S
H662 C639 0.950 . S
H663 C641 0.950 . S
C664 C665 1.349 . S
C664 C666 1.327 . S
C664 H689 0.950 . S
C665 C664 1.349 . S
C665 C681 1.349 . S
C666 C664 1.327 . S
C666 C685 1.429 . S
C666 H690 0.950 . S
C667 C684 1.574 . S
C667 C686 1.368 . S
C667 H691 0.949 . S
H668 C672 0.949 . S
C669 C670 1.349 . S
C669 C671 1.327 . S
C669 H692 0.950 . S
C670 C669 1.349 . S
C670 C682 1.349 . S
C671 C669 1.327 . S
C671 C687 1.429 . S
C671 H693 0.950 . S
C672 H668 0.949 . S
C672 C680 1.574 . S
C672 C688 1.368 . S
H673 C681 0.950 . S
H674 C679 0.950 . S
H675 C680 0.949 . S
H676 C682 0.950 . S
H677 C683 0.950 . S
H678 C684 0.949 . S
C679 H674 0.950 . S
C679 C681 1.327 . S
C679 C685 1.429 . S
C680 C672 1.574 . S
C680 H675 0.949 . S
C680 C686 1.368 . S
C681 C665 1.349 . S
C681 H673 0.950 . S
C681 C679 1.327 . S
C682 C670 1.349 . S
C682 H676 0.950 . S
C682 C683 1.327 . S
C683 H677 0.950 . S
C683 C682 1.327 . S
C683 C687 1.429 . S
C684 C667 1.574 . S
C684 H678 0.949 . S
C684 C688 1.368 . S
C685 C666 1.429 . S
C685 C679 1.429 . S
C685 C686 1.523 . S
C686 C667 1.368 . S
C686 C680 1.368 . S
C686 C685 1.523 . S
C687 C671 1.429 . S
C687 C683 1.429 . S
C687 C688 1.523 . S
C688 C672 1.368 . S
C688 C684 1.368 . S
C688 C687 1.523 . S
H689 C664 0.950 . S
H690 C666 0.950 . S
H691 C667 0.949 . S
H692 C669 0.950 . S
H693 C671 0.950 . S
C694 C695 1.349 . S
C694 C696 1.327 . S
C694 H719 0.950 . S
C695 C694 1.349 . S
C695 C711 1.349 . S
C696 C694 1.327 . S
C696 C715 1.429 . S
C696 H720 0.950 . S
C697 C714 1.574 . S
C697 C716 1.368 . S
C697 H721 0.949 . S
H698 C702 0.949 . S
C699 C700 1.349 . S
C699 C701 1.327 . S
C699 H722 0.950 . S
C700 C699 1.349 . S
C700 C712 1.349 . S
C701 C699 1.327 . S
C701 C717 1.429 . S
C701 H723 0.950 . S
C702 H698 0.949 . S
C702 C710 1.574 . S
C702 C718 1.368 . S
H703 C711 0.950 . S
H704 C709 0.950 . S
H705 C710 0.949 . S
H706 C712 0.950 . S
H707 C713 0.950 . S
H708 C714 0.949 . S
C709 H704 0.950 . S
C709 C711 1.327 . S
C709 C715 1.429 . S
C710 C702 1.574 . S
C710 H705 0.949 . S
C710 C716 1.368 . S
C711 C695 1.349 . S
C711 H703 0.950 . S
C711 C709 1.327 . S
C712 C700 1.349 . S
C712 H706 0.950 . S
C712 C713 1.327 . S
C713 H707 0.950 . S
C713 C712 1.327 . S
C713 C717 1.429 . S
C714 C697 1.574 . S
C714 H708 0.949 . S
C714 C718 1.368 . S
C715 C696 1.429 . S
C715 C709 1.429 . S
C715 C716 1.523 . S
C716 C697 1.368 . S
C716 C710 1.368 . S
C716 C715 1.523 . S
C717 C701 1.429 . S
C717 C713 1.429 . S
C717 C718 1.523 . S
C718 C702 1.368 . S
C718 C714 1.368 . S
C718 C717 1.523 . S
H719 C694 0.950 . S
H720 C696 0.950 . S
H721 C697 0.949 . S
H722 C699 0.950 . S
H723 C701 0.950 . S
C724 C725 1.349 . S
C724 C726 1.327 . S
C724 H749 0.950 . S
C725 C724 1.349 . S
C725 C741 1.349 . S
C726 C724 1.327 . S
C726 C745 1.429 . S
C726 H750 0.950 . S
C727 C744 1.574 . S
C727 C746 1.368 . S
C727 H751 0.949 . S
H728 C732 0.949 . S
C729 C730 1.349 . S
C729 C731 1.327 . S
C729 H752 0.950 . S
C730 C729 1.349 . S
C730 C742 1.349 . S
C731 C729 1.327 . S
C731 C747 1.429 . S
C731 H753 0.950 . S
C732 H728 0.949 . S
C732 C740 1.574 . S
C732 C748 1.368 . S
H733 C741 0.950 . S
H734 C739 0.950 . S
H735 C740 0.949 . S
H736 C742 0.950 . S
H737 C743 0.950 . S
H738 C744 0.949 . S
C739 H734 0.950 . S
C739 C741 1.327 . S
C739 C745 1.429 . S
C740 C732 1.574 . S
C740 H735 0.949 . S
C740 C746 1.368 . S
C741 C725 1.349 . S
C741 H733 0.950 . S
C741 C739 1.327 . S
C742 C730 1.349 . S
C742 H736 0.950 . S
C742 C743 1.327 . S
C743 H737 0.950 . S
C743 C742 1.327 . S
C743 C747 1.429 . S
C744 C727 1.574 . S
C744 H738 0.949 . S
C744 C748 1.368 . S
C745 C726 1.429 . S
C745 C739 1.429 . S
C745 C746 1.523 . S
C746 C727 1.368 . S
C746 C740 1.368 . S
C746 C745 1.523 . S
C747 C731 1.429 . S
C747 C743 1.429 . S
C747 C748 1.523 . S
C748 C732 1.368 . S
C748 C744 1.368 . S
C748 C747 1.523 . S
H749 C724 0.950 . S
H750 C726 0.950 . S
H751 C727 0.949 . S
H752 C729 0.950 . S
H753 C731 0.950 . S
C754 C755 1.349 . S
C754 C756 1.327 . S
C754 H779 0.950 . S
C755 C754 1.349 . S
C755 C771 1.349 . S
C756 C754 1.327 . S
C756 C775 1.429 . S
C756 H780 0.950 . S
C757 C774 1.574 . S
C757 C776 1.368 . S
C757 H781 0.949 . S
H758 C762 0.949 . S
C759 C760 1.349 . S
C759 C761 1.327 . S
C759 H782 0.950 . S
C760 C759 1.349 . S
C760 C772 1.349 . S
C761 C759 1.327 . S
C761 C777 1.429 . S
C761 H783 0.950 . S
C762 H758 0.949 . S
C762 C770 1.574 . S
C762 C778 1.368 . S
H763 C771 0.950 . S
H764 C769 0.950 . S
H765 C770 0.949 . S
H766 C772 0.950 . S
H767 C773 0.950 . S
H768 C774 0.949 . S
C769 H764 0.950 . S
C769 C771 1.327 . S
C769 C775 1.429 . S
C770 C762 1.574 . S
C770 H765 0.949 . S
C770 C776 1.368 . S
C771 C755 1.349 . S
C771 H763 0.950 . S
C771 C769 1.327 . S
C772 C760 1.349 . S
C772 H766 0.950 . S
C772 C773 1.327 . S
C773 H767 0.950 . S
C773 C772 1.327 . S
C773 C777 1.429 . S
C774 C757 1.574 . S
C774 H768 0.949 . S
C774 C778 1.368 . S
C775 C756 1.429 . S
C775 C769 1.429 . S
C775 C776 1.523 . S
C776 C757 1.368 . S
C776 C770 1.368 . S
C776 C775 1.523 . S
C777 C761 1.429 . S
C777 C773 1.429 . S
C777 C778 1.523 . S
C778 C762 1.368 . S
C778 C774 1.368 . S
C778 C777 1.523 . S
H779 C754 0.950 . S
H780 C756 0.950 . S
H781 C757 0.949 . S
H782 C759 0.950 . S
H783 C761 0.950 . S
C784 C785 1.304 1_556 S
C784 C786 1.336 1_545 S
C784 H809 0.989 . S
C785 C784 1.304 1_554 S
C785 C801 1.349 . S
C786 C784 1.336 1_565 S
C786 C805 1.429 1_556 S
C786 H810 0.950 . S
C787 C804 1.574 . S
C787 C806 1.368 . S
C787 H811 0.949 . S
H788 C792 0.949 . S
C789 C790 1.349 1_554 S
C789 C791 1.327 . S
C789 H812 0.950 . S
C790 C789 1.349 1_556 S
C790 C802 1.349 . S
C791 C789 1.327 . S
C791 C807 1.467 . S
C791 H813 0.950 . S
C792 H788 0.949 . S
C792 C800 1.574 . S
C792 C808 1.368 1_556 S
H793 C801 0.950 . S
H794 C799 0.950 . S
H795 C800 0.949 . S
H796 C802 0.950 . S
H797 C803 0.950 . S
H798 C804 0.949 . S
C799 H794 0.950 . S
C799 C801 1.327 1_565 S
C799 C805 1.429 . S
C800 C792 1.574 . S
C800 H795 0.949 . S
C800 C806 1.368 1_556 S
C801 C785 1.349 . S
C801 H793 0.950 . S
C801 C799 1.327 1_545 S
C802 C790 1.349 . S
C802 H796 0.950 . S
C802 C803 1.327 . S
C803 H797 0.950 . S
C803 C802 1.327 . S
C803 C807 1.385 1_556 S
C804 C787 1.574 . S
C804 H798 0.949 . S
C804 C808 1.368 . S
C805 C786 1.429 1_554 S
C805 C799 1.429 . S
C805 C806 1.523 . S
C806 C787 1.368 . S
C806 C800 1.368 1_554 S
C806 C805 1.523 . S
C807 C791 1.467 . S
C807 C803 1.385 1_554 S
C807 C808 1.530 . S
C808 C792 1.368 1_554 S
C808 C804 1.368 . S
C808 C807 1.530 . S
H809 C784 0.989 . S
H810 C786 0.950 . S
H811 C787 0.949 . S
H812 C789 0.950 . S
H813 C791 0.950 . S
C814 C815 1.349 1_554 S
C814 C816 1.327 . S
C814 H839 0.950 . S
C815 C814 1.349 1_556 S
C815 C831 1.349 . S
C816 C814 1.327 . S
C816 C835 1.429 1_454 S
C816 H840 0.950 1_455 S
C817 C834 1.574 . S
C817 C836 1.368 . S
C817 H841 0.949 . S
H818 C822 0.949 . S
C819 C820 1.349 1_556 S
C819 C821 1.327 . S
C819 H842 0.950 . S
C820 C819 1.349 1_554 S
C820 C832 1.349 . S
C821 C819 1.327 . S
C821 C837 1.469 . S
C821 H843 0.950 . S
C822 H818 0.949 . S
C822 C830 1.574 . S
C822 C838 1.368 1_554 S
H823 C831 0.950 . S
H824 C829 0.950 . S
H825 C830 0.949 . S
H826 C832 0.950 . S
H827 C833 0.950 . S
H828 C834 0.949 . S
C829 H824 0.950 . S
C829 C831 1.327 1_655 S
C829 C835 1.429 . S
C830 C822 1.574 . S
C830 H825 0.949 . S
C830 C836 1.368 1_554 S
C831 C815 1.349 . S
C831 H823 0.950 . S
C831 C829 1.327 1_455 S
C832 C820 1.349 . S
C832 H826 0.950 . S
C832 C833 1.327 . S
C833 H827 0.950 . S
C833 C832 1.327 . S
C833 C837 1.382 1_554 S
C834 C817 1.574 . S
C834 H828 0.949 . S
C834 C838 1.368 . S
C835 C816 1.429 1_656 S
C835 C829 1.429 . S
C835 C836 1.523 . S
C836 C817 1.368 . S
C836 C830 1.368 1_556 S
C836 C835 1.523 . S
C837 C821 1.469 . S
C837 C833 1.382 1_556 S
C837 C838 1.530 . S
C838 C822 1.368 1_556 S
C838 C834 1.368 . S
C838 C837 1.530 . S
H839 C814 0.950 . S
H840 C816 0.950 1_655 S
H841 C817 0.949 . S
H842 C819 0.950 . S
H843 C821 0.950 . S
C844 C845 1.349 . S
C844 C846 1.327 1_565 S
C844 H869 0.950 . S
C845 C844 1.349 . S
C845 C861 1.349 1_554 S
C846 C844 1.327 1_545 S
C846 C865 1.429 . S
C846 H870 0.950 . S
C847 C864 1.574 . S
C847 C866 1.368 1_556 S
C847 H871 0.949 . S
H848 C852 0.949 . S
C849 C850 1.349 . S
C849 C851 1.327 . S
C849 H872 0.950 . S
C850 C849 1.349 . S
C850 C862 1.349 1_556 S
C851 C849 1.327 . S
C851 C867 1.382 1_556 S
C851 H873 0.950 . S
C852 H848 0.949 . S
C852 C860 1.574 . S
C852 C868 1.368 . S
H853 C861 0.950 . S
H854 C859 0.950 . S
H855 C860 0.949 . S
H856 C862 0.950 . S
H857 C863 0.950 . S
H858 C864 0.949 . S
C859 H854 0.950 . S
C859 C861 1.327 1_545 S
C859 C865 1.429 1_556 S
C860 C852 1.574 . S
C860 H855 0.949 . S
C860 C866 1.368 . S
C861 C845 1.349 1_556 S
C861 H853 0.950 . S
C861 C859 1.327 1_565 S
C862 C850 1.349 1_554 S
C862 H856 0.950 . S
C862 C863 1.327 . S
C863 H857 0.950 . S
C863 C862 1.327 . S
C863 C867 1.469 . S
C864 C847 1.574 . S
C864 H858 0.949 . S
C864 C868 1.368 1_556 S
C865 C846 1.429 . S
C865 C859 1.429 1_554 S
C865 C866 1.523 . S
C866 C847 1.368 1_554 S
C866 C860 1.368 . S
C866 C865 1.523 . S
C867 C851 1.382 1_554 S
C867 C863 1.469 . S
C867 C868 1.530 . S
C868 C852 1.368 . S
C868 C864 1.368 1_554 S
C868 C867 1.530 . S
H869 C844 0.950 . S
H870 C846 0.950 . S
H871 C847 0.949 . S
H872 C849 0.950 . S
H873 C851 0.950 . S
C874 C875 1.349 . S
C874 C876 1.327 . S
C874 H899 0.950 . S
C875 C874 1.349 . S
C875 C891 1.349 1_554 S
C876 C874 1.327 . S
C876 C895 1.383 1_554 S
C876 H900 0.950 . S
C877 C894 1.574 . S
C877 C896 1.368 . S
C877 H901 0.949 . S
H878 C882 0.949 . S
C879 C880 1.349 . S
C879 C881 1.327 1_655 S
C879 H902 0.950 . S
C880 C879 1.349 . S
C880 C892 1.349 1_556 S
C881 C879 1.327 1_455 S
C881 C897 1.429 . S
C881 H903 0.950 . S
C882 H878 0.949 . S
C882 C890 1.574 . S
C882 C898 1.368 1_554 S
H883 C891 0.950 . S
H884 C889 0.950 . S
H885 C890 0.949 . S
H886 C892 0.950 . S
H887 C893 0.950 . S
H888 C894 0.949 . S
C889 H884 0.950 . S
C889 C891 1.327 . S
C889 C895 1.469 . S
C890 C882 1.574 . S
C890 H885 0.949 . S
C890 C896 1.368 1_554 S
C891 C875 1.349 1_556 S
C891 H883 0.950 . S
C891 C889 1.327 . S
C892 C880 1.349 1_554 S
C892 H886 0.950 . S
C892 C893 1.327 1_655 S
C893 H887 0.950 . S
C893 C892 1.327 1_455 S
C893 C897 1.429 1_554 S
C894 C877 1.574 . S
C894 H888 0.949 . S
C894 C898 1.368 . S
C895 C876 1.383 1_556 S
C895 C889 1.469 . S
C895 C896 1.530 . S
C896 C877 1.368 . S
C896 C890 1.368 1_556 S
C896 C895 1.530 . S
C897 C881 1.429 . S
C897 C893 1.429 1_556 S
C897 C898 1.523 . S
C898 C882 1.368 1_556 S
C898 C894 1.368 . S
C898 C897 1.523 . S
H899 C874 0.950 . S
H900 C876 0.950 . S
H901 C877 0.949 . S
H902 C879 0.950 . S
H903 C881 0.950 . S
C904 C905 1.349 . S
C904 C906 1.327 . S
C904 H929 0.950 . S
C905 C904 1.349 . S
C905 C921 1.349 . S
C906 C904 1.327 . S
C906 C925 1.429 . S
C906 H930 0.950 . S
C907 C924 1.574 . S
C907 C926 1.368 . S
C907 H931 0.949 . S
H908 C912 0.949 . S
C909 C910 1.349 . S
C909 C911 1.327 . S
C909 H932 0.950 . S
C910 C909 1.349 . S
C910 C922 1.349 . S
C911 C909 1.327 . S
C911 C927 1.429 . S
C911 H933 0.950 . S
C912 H908 0.949 . S
C912 C920 1.574 . S
C912 C928 1.368 . S
H913 C921 0.950 . S
H914 C919 0.950 . S
H915 C920 0.949 . S
H916 C922 0.950 . S
H917 C923 0.950 . S
H918 C924 0.949 . S
C919 H914 0.950 . S
C919 C921 1.327 . S
C919 C925 1.429 . S
C920 C912 1.574 . S
C920 H915 0.949 . S
C920 C926 1.368 . S
C921 C905 1.349 . S
C921 H913 0.950 . S
C921 C919 1.327 . S
C922 C910 1.349 . S
C922 H916 0.950 . S
C922 C923 1.327 . S
C923 H917 0.950 . S
C923 C922 1.327 . S
C923 C927 1.429 . S
C924 C907 1.574 . S
C924 H918 0.949 . S
C924 C928 1.368 . S
C925 C906 1.429 . S
C925 C919 1.429 . S
C925 C926 1.523 . S
C926 C907 1.368 . S
C926 C920 1.368 . S
C926 C925 1.523 . S
C927 C911 1.429 . S
C927 C923 1.429 . S
C927 C928 1.523 . S
C928 C912 1.368 . S
C928 C924 1.368 . S
C928 C927 1.523 . S
H929 C904 0.950 . S
H930 C906 0.950 . S
H931 C907 0.949 . S
H932 C909 0.950 . S
H933 C911 0.950 . S
C934 C935 1.349 . S
C934 C936 1.327 . S
C934 H959 0.950 . S
C935 C934 1.349 . S
C935 C951 1.349 . S
C936 C934 1.327 . S
C936 C955 1.429 . S
C936 H960 0.950 . S
C937 C954 1.574 . S
C937 C956 1.368 . S
C937 H961 0.949 . S
H938 C942 0.949 . S
C939 C940 1.349 . S
C939 C941 1.327 . S
C939 H962 0.950 . S
C940 C939 1.349 . S
C940 C952 1.349 . S
C941 C939 1.327 . S
C941 C957 1.429 . S
C941 H963 0.950 . S
C942 H938 0.949 . S
C942 C950 1.574 . S
C942 C958 1.368 . S
H943 C951 0.950 . S
H944 C949 0.950 . S
H945 C950 0.949 . S
H946 C952 0.950 . S
H947 C953 0.950 . S
H948 C954 0.949 . S
C949 H944 0.950 . S
C949 C951 1.327 . S
C949 C955 1.429 . S
C950 C942 1.574 . S
C950 H945 0.949 . S
C950 C956 1.368 . S
C951 C935 1.349 . S
C951 H943 0.950 . S
C951 C949 1.327 . S
C952 C940 1.349 . S
C952 H946 0.950 . S
C952 C953 1.327 . S
C953 H947 0.950 . S
C953 C952 1.327 . S
C953 C957 1.429 . S
C954 C937 1.574 . S
C954 H948 0.949 . S
C954 C958 1.368 . S
C955 C936 1.429 . S
C955 C949 1.429 . S
C955 C956 1.523 . S
C956 C937 1.368 . S
C956 C950 1.368 . S
C956 C955 1.523 . S
C957 C941 1.429 . S
C957 C953 1.429 . S
C957 C958 1.523 . S
C958 C942 1.368 . S
C958 C954 1.368 . S
C958 C957 1.523 . S
H959 C934 0.950 . S
H960 C936 0.950 . S
H961 C937 0.949 . S
H962 C939 0.950 . S
H963 C941 0.950 . S
C964 C965 1.349 . S
C964 C966 1.327 . S
C964 H989 0.950 . S
C965 C964 1.349 . S
C965 C981 1.349 . S
C966 C964 1.327 . S
C966 C985 1.429 . S
C966 H990 0.950 . S
C967 C984 1.574 . S
C967 C986 1.368 . S
C967 H991 0.949 . S
H968 C972 0.949 . S
C969 C970 1.349 . S
C969 C971 1.327 . S
C969 H992 0.950 . S
C970 C969 1.349 . S
C970 C982 1.349 . S
C971 C969 1.327 . S
C971 C987 1.429 . S
C971 H993 0.950 . S
C972 H968 0.949 . S
C972 C980 1.574 . S
C972 C988 1.368 . S
H973 C981 0.950 . S
H974 C979 0.950 . S
H975 C980 0.949 . S
H976 C982 0.950 . S
H977 C983 0.950 . S
H978 C984 0.949 . S
C979 H974 0.950 . S
C979 C981 1.327 . S
C979 C985 1.429 . S
C980 C972 1.574 . S
C980 H975 0.949 . S
C980 C986 1.368 . S
C981 C965 1.349 . S
C981 H973 0.950 . S
C981 C979 1.327 . S
C982 C970 1.349 . S
C982 H976 0.950 . S
C982 C983 1.327 . S
C983 H977 0.950 . S
C983 C982 1.327 . S
C983 C987 1.429 . S
C984 C967 1.574 . S
C984 H978 0.949 . S
C984 C988 1.368 . S
C985 C966 1.429 . S
C985 C979 1.429 . S
C985 C986 1.523 . S
C986 C967 1.368 . S
C986 C980 1.368 . S
C986 C985 1.523 . S
C987 C971 1.429 . S
C987 C983 1.429 . S
C987 C988 1.523 . S
C988 C972 1.368 . S
C988 C984 1.368 . S
C988 C987 1.523 . S
H989 C964 0.950 . S
H990 C966 0.950 . S
H991 C967 0.949 . S
H992 C969 0.950 . S
H993 C971 0.950 . S
C994 C995 1.349 . S
C994 C996 1.327 . S
C994 H1019 0.950 . S
C995 C994 1.349 . S
C995 C1011 1.349 . S
C996 C994 1.327 . S
C996 C1015 1.429 . S
C996 H1020 0.950 . S
C997 C1014 1.574 . S
C997 C1016 1.368 . S
C997 H1021 0.949 . S
H998 C1002 0.949 . S
C999 C1000 1.349 . S
C999 C1001 1.327 . S
C999 H1022 0.950 . S
C1000 C999 1.349 . S
C1000 C1012 1.349 . S
C1001 C999 1.327 . S
C1001 C1017 1.429 . S
C1001 H1023 0.950 . S
C1002 H998 0.949 . S
C1002 C1010 1.574 . S
C1002 C1018 1.368 . S
H1003 C1011 0.950 . S
H1004 C1009 0.950 . S
H1005 C1010 0.949 . S
H1006 C1012 0.950 . S
H1007 C1013 0.950 . S
H1008 C1014 0.949 . S
C1009 H1004 0.950 . S
C1009 C1011 1.327 . S
C1009 C1015 1.429 . S
C1010 C1002 1.574 . S
C1010 H1005 0.949 . S
C1010 C1016 1.368 . S
C1011 C995 1.349 . S
C1011 H1003 0.950 . S
C1011 C1009 1.327 . S
C1012 C1000 1.349 . S
C1012 H1006 0.950 . S
C1012 C1013 1.327 . S
C1013 H1007 0.950 . S
C1013 C1012 1.327 . S
C1013 C1017 1.429 . S
C1014 C997 1.574 . S
C1014 H1008 0.949 . S
C1014 C1018 1.368 . S
C1015 C996 1.429 . S
C1015 C1009 1.429 . S
C1015 C1016 1.523 . S
C1016 C997 1.368 . S
C1016 C1010 1.368 . S
C1016 C1015 1.523 . S
C1017 C1001 1.429 . S
C1017 C1013 1.429 . S
C1017 C1018 1.523 . S
C1018 C1002 1.368 . S
C1018 C1014 1.368 . S
C1018 C1017 1.523 . S
H1019 C994 0.950 . S
H1020 C996 0.950 . S
H1021 C997 0.949 . S
H1022 C999 0.950 . S
H1023 C1001 0.950 . S
C1024 C1025 1.349 . S
C1024 C1026 1.327 . S
C1024 H1049 0.950 . S
C1025 C1024 1.349 . S
C1025 C1041 1.349 . S
C1026 C1024 1.327 . S
C1026 C1045 1.429 . S
C1026 H1050 0.950 . S
C1027 C1044 1.574 . S
C1027 C1046 1.368 . S
C1027 H1051 0.949 . S
H1028 C1032 0.949 . S
C1029 C1030 1.349 . S
C1029 C1031 1.327 . S
C1029 H1052 0.950 . S
C1030 C1029 1.349 . S
C1030 C1042 1.349 . S
C1031 C1029 1.327 . S
C1031 C1047 1.429 . S
C1031 H1053 0.950 . S
C1032 H1028 0.949 . S
C1032 C1040 1.574 . S
C1032 C1048 1.368 . S
H1033 C1041 0.950 . S
H1034 C1039 0.950 . S
H1035 C1040 0.949 . S
H1036 C1042 0.950 . S
H1037 C1043 0.950 . S
H1038 C1044 0.949 . S
C1039 H1034 0.950 . S
C1039 C1041 1.327 . S
C1039 C1045 1.429 . S
C1040 C1032 1.574 . S
C1040 H1035 0.949 . S
C1040 C1046 1.368 . S
C1041 C1025 1.349 . S
C1041 H1033 0.950 . S
C1041 C1039 1.327 . S
C1042 C1030 1.349 . S
C1042 H1036 0.950 . S
C1042 C1043 1.327 . S
C1043 H1037 0.950 . S
C1043 C1042 1.327 . S
C1043 C1047 1.429 . S
C1044 C1027 1.574 . S
C1044 H1038 0.949 . S
C1044 C1048 1.368 . S
C1045 C1026 1.429 . S
C1045 C1039 1.429 . S
C1045 C1046 1.523 . S
C1046 C1027 1.368 . S
C1046 C1040 1.368 . S
C1046 C1045 1.523 . S
C1047 C1031 1.429 . S
C1047 C1043 1.429 . S
C1047 C1048 1.523 . S
C1048 C1032 1.368 . S
C1048 C1044 1.368 . S
C1048 C1047 1.523 . S
H1049 C1024 0.950 . S
H1050 C1026 0.950 . S
H1051 C1027 0.949 . S
H1052 C1029 0.950 . S
H1053 C1031 0.950 . S
C1054 C1055 1.349 . S
C1054 C1056 1.327 . S
C1054 H1079 0.950 . S
C1055 C1054 1.349 . S
C1055 C1071 1.349 . S
C1056 C1054 1.327 . S
C1056 C1075 1.429 . S
C1056 H1080 0.950 . S
C1057 C1074 1.574 . S
C1057 C1076 1.368 . S
C1057 H1081 0.949 . S
H1058 C1062 0.949 . S
C1059 C1060 1.349 . S
C1059 C1061 1.327 . S
C1059 H1082 0.950 . S
C1060 C1059 1.349 . S
C1060 C1072 1.349 . S
C1061 C1059 1.327 . S
C1061 C1077 1.429 . S
C1061 H1083 0.950 . S
C1062 H1058 0.949 . S
C1062 C1070 1.574 . S
C1062 C1078 1.368 . S
H1063 C1071 0.950 . S
H1064 C1069 0.950 . S
H1065 C1070 0.949 . S
H1066 C1072 0.950 . S
H1067 C1073 0.950 . S
H1068 C1074 0.949 . S
C1069 H1064 0.950 . S
C1069 C1071 1.327 . S
C1069 C1075 1.429 . S
C1070 C1062 1.574 . S
C1070 H1065 0.949 . S
C1070 C1076 1.368 . S
C1071 C1055 1.349 . S
C1071 H1063 0.950 . S
C1071 C1069 1.327 . S
C1072 C1060 1.349 . S
C1072 H1066 0.950 . S
C1072 C1073 1.327 . S
C1073 H1067 0.950 . S
C1073 C1072 1.327 . S
C1073 C1077 1.429 . S
C1074 C1057 1.574 . S
C1074 H1068 0.949 . S
C1074 C1078 1.368 . S
C1075 C1056 1.429 . S
C1075 C1069 1.429 . S
C1075 C1076 1.523 . S
C1076 C1057 1.368 . S
C1076 C1070 1.368 . S
C1076 C1075 1.523 . S
C1077 C1061 1.429 . S
C1077 C1073 1.429 . S
C1077 C1078 1.523 . S
C1078 C1062 1.368 . S
C1078 C1074 1.368 . S
C1078 C1077 1.523 . S
H1079 C1054 0.950 . S
H1080 C1056 0.950 . S
H1081 C1057 0.949 . S
H1082 C1059 0.950 . S
H1083 C1061 0.950 . S
C1084 C1085 1.349 . S
C1084 C1086 1.327 . S
C1084 H1109 0.950 . S
C1085 C1084 1.349 . S
C1085 C1101 1.349 . S
C1086 C1084 1.327 . S
C1086 C1105 1.429 . S
C1086 H1110 0.950 . S
C1087 C1104 1.574 . S
C1087 C1106 1.368 . S
C1087 H1111 0.949 . S
H1088 C1092 0.949 . S
C1089 C1090 1.349 . S
C1089 C1091 1.327 . S
C1089 H1112 0.950 . S
C1090 C1089 1.349 . S
C1090 C1102 1.349 . S
C1091 C1089 1.327 . S
C1091 C1107 1.429 . S
C1091 H1113 0.950 . S
C1092 H1088 0.949 . S
C1092 C1100 1.574 . S
C1092 C1108 1.368 . S
H1093 C1101 0.950 . S
H1094 C1099 0.950 . S
H1095 C1100 0.949 . S
H1096 C1102 0.950 . S
H1097 C1103 0.950 . S
H1098 C1104 0.949 . S
C1099 H1094 0.950 . S
C1099 C1101 1.327 . S
C1099 C1105 1.429 . S
C1100 C1092 1.574 . S
C1100 H1095 0.949 . S
C1100 C1106 1.368 . S
C1101 C1085 1.349 . S
C1101 H1093 0.950 . S
C1101 C1099 1.327 . S
C1102 C1090 1.349 . S
C1102 H1096 0.950 . S
C1102 C1103 1.327 . S
C1103 H1097 0.950 . S
C1103 C1102 1.327 . S
C1103 C1107 1.429 . S
C1104 C1087 1.574 . S
C1104 H1098 0.949 . S
C1104 C1108 1.368 . S
C1105 C1086 1.429 . S
C1105 C1099 1.429 . S
C1105 C1106 1.523 . S
C1106 C1087 1.368 . S
C1106 C1100 1.368 . S
C1106 C1105 1.523 . S
C1107 C1091 1.429 . S
C1107 C1103 1.429 . S
C1107 C1108 1.523 . S
C1108 C1092 1.368 . S
C1108 C1104 1.368 . S
C1108 C1107 1.523 . S
H1109 C1084 0.950 . S
H1110 C1086 0.950 . S
H1111 C1087 0.949 . S
H1112 C1089 0.950 . S
H1113 C1091 0.950 . S
C1114 C1115 1.349 . S
C1114 C1116 1.327 . S
C1114 H1139 0.950 . S
C1115 C1114 1.349 . S
C1115 C1131 1.349 . S
C1116 C1114 1.327 . S
C1116 C1135 1.429 . S
C1116 H1140 0.950 . S
C1117 C1134 1.574 . S
C1117 C1136 1.368 . S
C1117 H1141 0.949 . S
H1118 C1122 0.949 . S
C1119 C1120 1.349 . S
C1119 C1121 1.327 . S
C1119 H1142 0.950 . S
C1120 C1119 1.349 . S
C1120 C1132 1.349 . S
C1121 C1119 1.327 . S
C1121 C1137 1.429 . S
C1121 H1143 0.950 . S
C1122 H1118 0.949 . S
C1122 C1130 1.574 . S
C1122 C1138 1.368 . S
H1123 C1131 0.950 . S
H1124 C1129 0.950 . S
H1125 C1130 0.949 . S
H1126 C1132 0.950 . S
H1127 C1133 0.950 . S
H1128 C1134 0.949 . S
C1129 H1124 0.950 . S
C1129 C1131 1.327 . S
C1129 C1135 1.429 . S
C1130 C1122 1.574 . S
C1130 H1125 0.949 . S
C1130 C1136 1.368 . S
C1131 C1115 1.349 . S
C1131 H1123 0.950 . S
C1131 C1129 1.327 . S
C1132 C1120 1.349 . S
C1132 H1126 0.950 . S
C1132 C1133 1.327 . S
C1133 H1127 0.950 . S
C1133 C1132 1.327 . S
C1133 C1137 1.429 . S
C1134 C1117 1.574 . S
C1134 H1128 0.949 . S
C1134 C1138 1.368 . S
C1135 C1116 1.429 . S
C1135 C1129 1.429 . S
C1135 C1136 1.523 . S
C1136 C1117 1.368 . S
C1136 C1130 1.368 . S
C1136 C1135 1.523 . S
C1137 C1121 1.429 . S
C1137 C1133 1.429 . S
C1137 C1138 1.523 . S
C1138 C1122 1.368 . S
C1138 C1134 1.368 . S
C1138 C1137 1.523 . S
H1139 C1114 0.950 . S
H1140 C1116 0.950 . S
H1141 C1117 0.949 . S
H1142 C1119 0.950 . S
H1143 C1121 0.950 . S
C1144 C1145 1.349 . S
C1144 C1146 1.327 1_565 S
C1144 H1169 0.950 . S
C1145 C1144 1.349 . S
C1145 C1161 1.349 . S
C1146 C1144 1.327 1_545 S
C1146 C1165 1.429 . S
C1146 H1170 0.950 . S
C1147 C1164 1.574 . S
C1147 C1166 1.368 . S
C1147 H1171 0.949 . S
H1148 C1152 0.949 . S
C1149 C1150 1.349 . S
C1149 C1151 1.327 . S
C1149 H1172 0.950 . S
C1150 C1149 1.349 . S
C1150 C1162 1.349 . S
C1151 C1149 1.327 . S
C1151 C1167 1.429 . S
C1151 H1173 0.950 . S
C1152 H1148 0.949 . S
C1152 C1160 1.574 . S
C1152 C1168 1.368 . S
H1153 C1161 0.950 . S
H1154 C1159 0.950 . S
H1155 C1160 0.949 . S
H1156 C1162 0.950 . S
H1157 C1163 0.950 . S
H1158 C1164 0.949 . S
C1159 H1154 0.950 . S
C1159 C1161 1.327 1_545 S
C1159 C1165 1.429 . S
C1160 C1152 1.574 . S
C1160 H1155 0.949 . S
C1160 C1166 1.368 . S
C1161 C1145 1.349 . S
C1161 H1153 0.950 . S
C1161 C1159 1.327 1_565 S
C1162 C1150 1.349 . S
C1162 H1156 0.950 . S
C1162 C1163 1.327 . S
C1163 H1157 0.950 . S
C1163 C1162 1.327 . S
C1163 C1167 1.429 . S
C1164 C1147 1.574 . S
C1164 H1158 0.949 . S
C1164 C1168 1.368 . S
C1165 C1146 1.429 . S
C1165 C1159 1.429 . S
C1165 C1166 1.523 . S
C1166 C1147 1.368 . S
C1166 C1160 1.368 . S
C1166 C1165 1.523 . S
C1167 C1151 1.429 . S
C1167 C1163 1.429 . S
C1167 C1168 1.523 . S
C1168 C1152 1.368 . S
C1168 C1164 1.368 . S
C1168 C1167 1.523 . S
H1169 C1144 0.950 . S
H1170 C1146 0.950 . S
H1171 C1147 0.949 . S
H1172 C1149 0.950 . S
H1173 C1151 0.950 . S
C1174 C1175 1.349 . S
C1174 C1176 1.327 . S
C1174 H1199 0.950 . S
C1175 C1174 1.349 . S
C1175 C1191 1.349 . S
C1176 C1174 1.327 . S
C1176 C1195 1.429 . S
C1176 H1200 0.950 . S
C1177 C1194 1.574 . S
C1177 C1196 1.368 . S
C1177 H1201 0.949 . S
H1178 C1182 0.949 . S
C1179 C1180 1.349 . S
C1179 C1181 1.327 1_655 S
C1179 H1202 0.950 . S
C1180 C1179 1.349 . S
C1180 C1192 1.349 . S
C1181 C1179 1.327 1_455 S
C1181 C1197 1.429 . S
C1181 H1203 0.950 . S
C1182 H1178 0.949 . S
C1182 C1190 1.574 . S
C1182 C1198 1.368 . S
H1183 C1191 0.950 . S
H1184 C1189 0.950 . S
H1185 C1190 0.949 . S
H1186 C1192 0.950 . S
H1187 C1193 0.950 1_455 S
H1188 C1194 0.949 . S
C1189 H1184 0.950 . S
C1189 C1191 1.327 . S
C1189 C1195 1.429 . S
C1190 C1182 1.574 . S
C1190 H1185 0.949 . S
C1190 C1196 1.368 . S
C1191 C1175 1.349 . S
C1191 H1183 0.950 . S
C1191 C1189 1.327 . S
C1192 C1180 1.349 . S
C1192 H1186 0.950 . S
C1192 C1193 1.327 . S
C1193 H1187 0.950 1_655 S
C1193 C1192 1.327 . S
C1193 C1197 1.429 1_655 S
C1194 C1177 1.574 . S
C1194 H1188 0.949 . S
C1194 C1198 1.368 . S
C1195 C1176 1.429 . S
C1195 C1189 1.429 . S
C1195 C1196 1.523 . S
C1196 C1177 1.368 . S
C1196 C1190 1.368 . S
C1196 C1195 1.523 . S
C1197 C1181 1.429 . S
C1197 C1193 1.429 1_455 S
C1197 C1198 1.523 . S
C1198 C1182 1.368 . S
C1198 C1194 1.368 . S
C1198 C1197 1.523 . S
H1199 C1174 0.950 . S
H1200 C1176 0.950 . S
H1201 C1177 0.949 . S
H1202 C1179 0.950 . S
H1203 C1181 0.950 . S
C1204 C1205 1.349 . S
C1204 C1206 1.327 . S
C1204 H1229 0.950 . S
C1205 C1204 1.349 . S
C1205 C1221 1.349 . S
C1206 C1204 1.327 . S
C1206 C1225 1.429 . S
C1206 H1230 0.950 . S
C1207 C1224 1.574 . S
C1207 C1226 1.368 . S
C1207 H1231 0.949 . S
H1208 C1212 0.949 . S
C1209 C1210 1.349 . S
C1209 C1211 1.327 . S
C1209 H1232 0.950 . S
C1210 C1209 1.349 . S
C1210 C1222 1.349 . S
C1211 C1209 1.327 . S
C1211 C1227 1.429 1_545 S
C1211 H1233 0.948 1_545 S
C1212 H1208 0.949 . S
C1212 C1220 1.574 . S
C1212 C1228 1.368 . S
H1213 C1221 0.950 . S
H1214 C1219 0.950 . S
H1215 C1220 0.949 . S
H1216 C1222 0.950 . S
H1217 C1223 0.950 . S
H1218 C1224 0.949 . S
C1219 H1214 0.950 . S
C1219 C1221 1.327 . S
C1219 C1225 1.429 . S
C1220 C1212 1.574 . S
C1220 H1215 0.949 . S
C1220 C1226 1.368 . S
C1221 C1205 1.349 . S
C1221 H1213 0.950 . S
C1221 C1219 1.327 . S
C1222 C1210 1.349 . S
C1222 H1216 0.950 . S
C1222 C1223 1.327 1_545 S
C1223 H1217 0.950 . S
C1223 C1222 1.327 1_565 S
C1223 C1227 1.429 . S
C1224 C1207 1.574 . S
C1224 H1218 0.949 . S
C1224 C1228 1.368 . S
C1225 C1206 1.429 . S
C1225 C1219 1.429 . S
C1225 C1226 1.523 . S
C1226 C1207 1.368 . S
C1226 C1220 1.368 . S
C1226 C1225 1.523 . S
C1227 C1211 1.429 1_565 S
C1227 C1223 1.429 . S
C1227 C1228 1.523 . S
C1228 C1212 1.368 . S
C1228 C1224 1.368 . S
C1228 C1227 1.523 . S
H1229 C1204 0.950 . S
H1230 C1206 0.950 . S
H1231 C1207 0.949 . S
H1232 C1209 0.950 . S
H1233 C1211 0.948 1_565 S
C1234 C1235 1.349 . S
C1234 C1236 1.327 1_455 S
C1234 H1259 0.950 . S
C1235 C1234 1.349 . S
C1235 C1251 1.349 . S
C1236 C1234 1.327 1_655 S
C1236 C1255 1.429 . S
C1236 H1260 0.950 . S
C1237 C1254 1.574 . S
C1237 C1256 1.368 . S
C1237 H1261 0.949 . S
H1238 C1242 0.949 . S
C1239 C1240 1.349 . S
C1239 C1241 1.327 . S
C1239 H1262 0.950 . S
C1240 C1239 1.349 . S
C1240 C1252 1.349 . S
C1241 C1239 1.327 . S
C1241 C1257 1.429 . S
C1241 H1263 0.950 . S
C1242 H1238 0.949 . S
C1242 C1250 1.574 . S
C1242 C1258 1.368 . S
H1243 C1251 0.950 . S
H1244 C1249 0.950 1_655 S
H1245 C1250 0.949 . S
H1246 C1252 0.950 . S
H1247 C1253 0.950 . S
H1248 C1254 0.949 . S
C1249 H1244 0.950 1_455 S
C1249 C1251 1.327 . S
C1249 C1255 1.429 1_455 S
C1250 C1242 1.574 . S
C1250 H1245 0.949 . S
C1250 C1256 1.368 . S
C1251 C1235 1.349 . S
C1251 H1243 0.950 . S
C1251 C1249 1.327 . S
C1252 C1240 1.349 . S
C1252 H1246 0.950 . S
C1252 C1253 1.327 . S
C1253 H1247 0.950 . S
C1253 C1252 1.327 . S
C1253 C1257 1.429 . S
C1254 C1237 1.574 . S
C1254 H1248 0.949 . S
C1254 C1258 1.368 . S
C1255 C1236 1.429 . S
C1255 C1249 1.429 1_655 S
C1255 C1256 1.523 . S
C1256 C1237 1.368 . S
C1256 C1250 1.368 . S
C1256 C1255 1.523 . S
C1257 C1241 1.429 . S
C1257 C1253 1.429 . S
C1257 C1258 1.523 . S
C1258 C1242 1.368 . S
C1258 C1254 1.368 . S
C1258 C1257 1.523 . S
H1259 C1234 0.950 . S
H1260 C1236 0.950 . S
H1261 C1237 0.949 . S
H1262 C1239 0.950 . S
H1263 C1241 0.950 . S
C1264 C1265 1.307 1_556 S
C1264 C1266 1.330 . S
C1264 H1289 0.993 . S
C1265 C1264 1.307 1_554 S
C1265 C1281 1.349 . S
C1266 C1264 1.330 . S
C1266 C1285 1.429 1_556 S
C1266 H1290 0.950 . S
C1267 C1284 1.574 . S
C1267 C1286 1.368 1_565 S
C1267 H1291 0.949 . S
H1268 C1272 0.949 . S
C1269 C1270 1.349 . S
C1269 C1271 1.327 . S
C1269 H1292 0.950 . S
C1270 C1269 1.349 . S
C1270 C1282 1.307 1_554 S
C1271 C1269 1.327 . S
C1271 C1287 1.429 . S
C1271 H1293 0.950 . S
C1272 H1268 0.949 . S
C1272 C1280 1.574 . S
C1272 C1288 1.368 1_546 S
H1273 C1281 0.950 . S
H1274 C1279 0.950 . S
H1275 C1280 0.949 . S
H1276 C1282 0.993 . S
H1277 C1283 0.950 . S
H1278 C1284 0.949 . S
C1279 H1274 0.950 . S
C1279 C1281 1.327 . S
C1279 C1285 1.429 . S
C1280 C1272 1.574 . S
C1280 H1275 0.949 . S
C1280 C1286 1.368 1_556 S
C1281 C1265 1.349 . S
C1281 H1273 0.950 . S
C1281 C1279 1.327 . S
C1282 C1270 1.307 1_556 S
C1282 H1276 0.993 . S
C1282 C1283 1.330 . S
C1283 H1277 0.950 . S
C1283 C1282 1.330 . S
C1283 C1287 1.429 1_556 S
C1284 C1267 1.574 . S
C1284 H1278 0.949 . S
C1284 C1288 1.368 . S
C1285 C1266 1.429 1_554 S
C1285 C1279 1.429 . S
C1285 C1286 1.523 . S
C1286 C1267 1.368 1_545 S
C1286 C1280 1.368 1_554 S
C1286 C1285 1.523 . S
C1287 C1271 1.429 . S
C1287 C1283 1.429 1_554 S
C1287 C1288 1.523 . S
C1288 C1272 1.368 1_564 S
C1288 C1284 1.368 . S
C1288 C1287 1.523 . S
H1289 C1264 0.993 . S
H1290 C1266 0.950 . S
H1291 C1267 0.949 . S
H1292 C1269 0.950 . S
H1293 C1271 0.950 . S
C1294 C1295 1.349 . S
C1294 C1296 1.327 . S
C1294 H1319 0.950 . S
C1295 C1294 1.349 . S
C1295 C1311 1.307 1_556 S
C1296 C1294 1.327 . S
C1296 C1315 1.429 . S
C1296 H1320 0.950 . S
C1297 C1314 1.574 . S
C1297 C1316 1.368 1_654 S
C1297 H1321 0.949 . S
H1298 C1302 0.949 . S
C1299 C1300 1.307 1_554 S
C1299 C1301 1.330 . S
C1299 H1322 0.993 . S
C1300 C1299 1.307 1_556 S
C1300 C1312 1.349 . S
C1301 C1299 1.330 . S
C1301 C1317 1.429 1_554 S
C1301 H1323 0.950 . S
C1302 H1298 0.949 . S
C1302 C1310 1.574 . S
C1302 C1318 1.368 1_455 S
H1303 C1311 0.993 . S
H1304 C1309 0.950 . S
H1305 C1310 0.949 . S
H1306 C1312 0.950 . S
H1307 C1313 0.950 . S
H1308 C1314 0.949 . S
C1309 H1304 0.950 . S
C1309 C1311 1.330 . S
C1309 C1315 1.429 1_554 S
C1310 C1302 1.574 . S
C1310 H1305 0.949 . S
C1310 C1316 1.368 . S
C1311 C1295 1.307 1_554 S
C1311 H1303 0.993 . S
C1311 C1309 1.330 . S
C1312 C1300 1.349 . S
C1312 H1306 0.950 . S
C1312 C1313 1.327 . S
C1313 H1307 0.950 . S
C1313 C1312 1.327 . S
C1313 C1317 1.429 . S
C1314 C1297 1.574 . S
C1314 H1308 0.949 . S
C1314 C1318 1.368 1_554 S
C1315 C1296 1.429 . S
C1315 C1309 1.429 1_556 S
C1315 C1316 1.523 . S
C1316 C1297 1.368 1_456 S
C1316 C1310 1.368 . S
C1316 C1315 1.523 . S
C1317 C1301 1.429 1_556 S
C1317 C1313 1.429 . S
C1317 C1318 1.523 . S
C1318 C1302 1.368 1_655 S
C1318 C1314 1.368 1_556 S
C1318 C1317 1.523 . S
H1319 C1294 0.950 . S
H1320 C1296 0.950 . S
H1321 C1297 0.949 . S
H1322 C1299 0.993 . S
H1323 C1301 0.950 . S
C1324 C1325 1.349 . S
C1324 C1326 1.327 . S
C1324 H1349 0.950 . S
C1325 C1324 1.349 . S
C1325 C1341 1.349 . S
C1326 C1324 1.327 . S
C1326 C1345 1.429 . S
C1326 H1350 0.950 . S
C1327 C1344 1.574 . S
C1327 C1346 1.368 . S
C1327 H1351 0.949 . S
H1328 C1332 0.949 . S
C1329 C1330 1.349 . S
C1329 C1331 1.327 . S
C1329 H1352 0.950 . S
C1330 C1329 1.349 . S
C1330 C1342 1.349 . S
C1331 C1329 1.327 . S
C1331 C1347 1.429 . S
C1331 H1353 0.950 . S
C1332 H1328 0.949 . S
C1332 C1340 1.574 . S
C1332 C1348 1.368 . S
H1333 C1341 0.950 . S
H1334 C1339 0.950 . S
H1335 C1340 0.949 . S
H1336 C1342 0.950 . S
H1337 C1343 0.950 . S
H1338 C1344 0.949 . S
C1339 H1334 0.950 . S
C1339 C1341 1.327 . S
C1339 C1345 1.429 . S
C1340 C1332 1.574 . S
C1340 H1335 0.949 . S
C1340 C1346 1.368 . S
C1341 C1325 1.349 . S
C1341 H1333 0.950 . S
C1341 C1339 1.327 . S
C1342 C1330 1.349 . S
C1342 H1336 0.950 . S
C1342 C1343 1.327 . S
C1343 H1337 0.950 . S
C1343 C1342 1.327 . S
C1343 C1347 1.429 . S
C1344 C1327 1.574 . S
C1344 H1338 0.949 . S
C1344 C1348 1.368 . S
C1345 C1326 1.429 . S
C1345 C1339 1.429 . S
C1345 C1346 1.523 . S
C1346 C1327 1.368 . S
C1346 C1340 1.368 . S
C1346 C1345 1.523 . S
C1347 C1331 1.429 . S
C1347 C1343 1.429 . S
C1347 C1348 1.523 . S
C1348 C1332 1.368 . S
C1348 C1344 1.368 . S
C1348 C1347 1.523 . S
H1349 C1324 0.950 . S
H1350 C1326 0.950 . S
H1351 C1327 0.949 . S
H1352 C1329 0.950 . S
H1353 C1331 0.950 . S
C1354 C1355 1.349 . S
C1354 C1356 1.327 . S
C1354 H1379 0.950 . S
C1355 C1354 1.349 . S
C1355 C1371 1.349 . S
C1356 C1354 1.327 . S
C1356 C1375 1.429 . S
C1356 H1380 0.950 . S
C1357 C1374 1.574 . S
C1357 C1376 1.368 . S
C1357 H1381 0.949 . S
H1358 C1362 0.949 . S
C1359 C1360 1.349 . S
C1359 C1361 1.327 . S
C1359 H1382 0.950 . S
C1360 C1359 1.349 . S
C1360 C1372 1.349 . S
C1361 C1359 1.327 . S
C1361 C1377 1.429 . S
C1361 H1383 0.950 . S
C1362 H1358 0.949 . S
C1362 C1370 1.574 . S
C1362 C1378 1.368 . S
H1363 C1371 0.950 . S
H1364 C1369 0.950 . S
H1365 C1370 0.949 . S
H1366 C1372 0.950 . S
H1367 C1373 0.950 . S
H1368 C1374 0.949 . S
C1369 H1364 0.950 . S
C1369 C1371 1.327 . S
C1369 C1375 1.429 . S
C1370 C1362 1.574 . S
C1370 H1365 0.949 . S
C1370 C1376 1.368 . S
C1371 C1355 1.349 . S
C1371 H1363 0.950 . S
C1371 C1369 1.327 . S
C1372 C1360 1.349 . S
C1372 H1366 0.950 . S
C1372 C1373 1.327 . S
C1373 H1367 0.950 . S
C1373 C1372 1.327 . S
C1373 C1377 1.429 . S
C1374 C1357 1.574 . S
C1374 H1368 0.949 . S
C1374 C1378 1.368 . S
C1375 C1356 1.429 . S
C1375 C1369 1.429 . S
C1375 C1376 1.523 . S
C1376 C1357 1.368 . S
C1376 C1370 1.368 . S
C1376 C1375 1.523 . S
C1377 C1361 1.429 . S
C1377 C1373 1.429 . S
C1377 C1378 1.523 . S
C1378 C1362 1.368 . S
C1378 C1374 1.368 . S
C1378 C1377 1.523 . S
H1379 C1354 0.950 . S
H1380 C1356 0.950 . S
H1381 C1357 0.949 . S
H1382 C1359 0.950 . S
H1383 C1361 0.950 . S
C1384 C1385 1.349 . S
C1384 C1386 1.327 . S
C1384 H1409 0.950 . S
C1385 C1384 1.349 . S
C1385 C1401 1.349 . S
C1386 C1384 1.327 . S
C1386 C1405 1.429 . S
C1386 H1410 0.950 . S
C1387 C1404 1.574 1_655 S
C1387 C1406 1.368 . S
C1387 H1411 0.949 . S
H1388 C1392 0.949 . S
C1389 C1390 1.349 . S
C1389 C1391 1.327 . S
C1389 H1412 0.950 . S
C1390 C1389 1.349 . S
C1390 C1402 1.349 . S
C1391 C1389 1.327 . S
C1391 C1407 1.429 . S
C1391 H1413 0.950 . S
C1392 H1388 0.949 . S
C1392 C1400 1.574 1_455 S
C1392 C1408 1.368 . S
H1393 C1401 0.950 . S
H1394 C1399 0.950 . S
H1395 C1400 0.949 . S
H1396 C1402 0.950 . S
H1397 C1403 0.950 . S
H1398 C1404 0.949 . S
C1399 H1394 0.950 . S
C1399 C1401 1.327 . S
C1399 C1405 1.429 . S
C1400 C1392 1.574 1_655 S
C1400 H1395 0.949 . S
C1400 C1406 1.368 . S
C1401 C1385 1.349 . S
C1401 H1393 0.950 . S
C1401 C1399 1.327 . S
C1402 C1390 1.349 . S
C1402 H1396 0.950 . S
C1402 C1403 1.327 . S
C1403 H1397 0.950 . S
C1403 C1402 1.327 . S
C1403 C1407 1.429 . S
C1404 C1387 1.574 1_455 S
C1404 H1398 0.949 . S
C1404 C1408 1.368 . S
C1405 C1386 1.429 . S
C1405 C1399 1.429 . S
C1405 C1406 1.523 . S
C1406 C1387 1.368 . S
C1406 C1400 1.368 . S
C1406 C1405 1.523 . S
C1407 C1391 1.429 . S
C1407 C1403 1.429 . S
C1407 C1408 1.523 . S
C1408 C1392 1.368 . S
C1408 C1404 1.368 . S
C1408 C1407 1.523 . S
H1409 C1384 0.950 . S
H1410 C1386 0.950 . S
H1411 C1387 0.949 . S
H1412 C1389 0.950 . S
H1413 C1391 0.950 . S
C1414 C1415 1.349 . S
C1414 C1416 1.327 . S
C1414 H1439 0.950 . S
C1415 C1414 1.349 . S
C1415 C1431 1.349 . S
C1416 C1414 1.327 . S
C1416 C1435 1.429 . S
C1416 H1440 0.950 . S
C1417 C1434 1.574 1_545 S
C1417 C1436 1.368 . S
C1417 H1441 0.949 . S
H1418 C1422 0.949 . S
C1419 C1420 1.349 . S
C1419 C1421 1.327 . S
C1419 H1442 0.950 . S
C1420 C1419 1.349 . S
C1420 C1432 1.349 . S
C1421 C1419 1.327 . S
C1421 C1437 1.429 . S
C1421 H1443 0.950 . S
C1422 H1418 0.949 . S
C1422 C1430 1.574 1_565 S
C1422 C1438 1.368 . S
H1423 C1431 0.950 . S
H1424 C1429 0.950 . S
H1425 C1430 0.949 . S
H1426 C1432 0.950 . S
H1427 C1433 0.950 . S
H1428 C1434 0.949 . S
C1429 H1424 0.950 . S
C1429 C1431 1.327 . S
C1429 C1435 1.429 . S
C1430 C1422 1.574 1_545 S
C1430 H1425 0.949 . S
C1430 C1436 1.368 . S
C1431 C1415 1.349 . S
C1431 H1423 0.950 . S
C1431 C1429 1.327 . S
C1432 C1420 1.349 . S
C1432 H1426 0.950 . S
C1432 C1433 1.327 . S
C1433 H1427 0.950 . S
C1433 C1432 1.327 . S
C1433 C1437 1.429 . S
C1434 C1417 1.574 1_565 S
C1434 H1428 0.949 . S
C1434 C1438 1.368 . S
C1435 C1416 1.429 . S
C1435 C1429 1.429 . S
C1435 C1436 1.523 . S
C1436 C1417 1.368 . S
C1436 C1430 1.368 . S
C1436 C1435 1.523 . S
C1437 C1421 1.429 . S
C1437 C1433 1.429 . S
C1437 C1438 1.523 . S
C1438 C1422 1.368 . S
C1438 C1434 1.368 . S
C1438 C1437 1.523 . S
H1439 C1414 0.950 . S
H1440 C1416 0.950 . S
H1441 C1417 0.949 . S
H1442 C1419 0.950 . S
H1443 C1421 0.950 . S
C1444 C1445 1.349 . S
C1444 C1446 1.327 . S
C1444 H1469 0.950 . S
C1445 C1444 1.349 . S
C1445 C1461 1.349 . S
C1446 C1444 1.327 . S
C1446 C1465 1.429 . S
C1446 H1470 0.950 . S
C1447 C1464 1.574 1_655 S
C1447 C1466 1.368 1_545 S
C1447 H1471 0.949 . S
H1448 C1452 0.949 . S
C1449 C1450 1.349 . S
C1449 C1451 1.327 . S
C1449 H1472 0.950 . S
C1450 C1449 1.349 . S
C1450 C1462 1.349 . S
C1451 C1449 1.327 . S
C1451 C1467 1.429 . S
C1451 H1473 0.950 . S
C1452 H1448 0.949 . S
C1452 C1460 1.574 1_455 S
C1452 C1468 1.368 1_565 S
H1453 C1461 0.950 . S
H1454 C1459 0.950 . S
H1455 C1460 0.949 . S
H1456 C1462 0.950 . S
H1457 C1463 0.950 . S
H1458 C1464 0.949 . S
C1459 H1454 0.950 . S
C1459 C1461 1.327 . S
C1459 C1465 1.429 . S
C1460 C1452 1.574 1_655 S
C1460 H1455 0.949 . S
C1460 C1466 1.368 . S
C1461 C1445 1.349 . S
C1461 H1453 0.950 . S
C1461 C1459 1.327 . S
C1462 C1450 1.349 . S
C1462 H1456 0.950 . S
C1462 C1463 1.327 . S
C1463 H1457 0.950 . S
C1463 C1462 1.327 . S
C1463 C1467 1.429 . S
C1464 C1447 1.574 1_455 S
C1464 H1458 0.949 . S
C1464 C1468 1.368 . S
C1465 C1446 1.429 . S
C1465 C1459 1.429 . S
C1465 C1466 1.523 . S
C1466 C1447 1.368 1_565 S
C1466 C1460 1.368 . S
C1466 C1465 1.523 . S
C1467 C1451 1.429 . S
C1467 C1463 1.429 . S
C1467 C1468 1.523 . S
C1468 C1452 1.368 1_545 S
C1468 C1464 1.368 . S
C1468 C1467 1.523 . S
H1469 C1444 0.950 . S
H1470 C1446 0.950 . S
H1471 C1447 0.949 . S
H1472 C1449 0.950 . S
H1473 C1451 0.950 . S
C1474 C1475 1.349 . S
C1474 C1476 1.327 . S
C1474 H1499 0.950 . S
C1475 C1474 1.349 . S
C1475 C1491 1.349 . S
C1476 C1474 1.327 . S
C1476 C1495 1.429 . S
C1476 H1500 0.950 . S
C1477 C1494 1.574 1_545 S
C1477 C1496 1.368 . S
C1477 H1501 0.949 . S
H1478 C1482 0.949 . S
C1479 C1480 1.349 . S
C1479 C1481 1.327 . S
C1479 H1502 0.950 . S
C1480 C1479 1.349 . S
C1480 C1492 1.349 . S
C1481 C1479 1.327 . S
C1481 C1497 1.429 . S
C1481 H1503 0.950 . S
C1482 H1478 0.949 . S
C1482 C1490 1.574 1_565 S
C1482 C1498 1.368 . S
H1483 C1491 0.950 . S
H1484 C1489 0.950 . S
H1485 C1490 0.949 . S
H1486 C1492 0.950 . S
H1487 C1493 0.950 . S
H1488 C1494 0.949 . S
C1489 H1484 0.950 . S
C1489 C1491 1.327 . S
C1489 C1495 1.429 . S
C1490 C1482 1.574 1_545 S
C1490 H1485 0.949 . S
C1490 C1496 1.368 1_455 S
C1491 C1475 1.349 . S
C1491 H1483 0.950 . S
C1491 C1489 1.327 . S
C1492 C1480 1.349 . S
C1492 H1486 0.950 . S
C1492 C1493 1.327 . S
C1493 H1487 0.950 . S
C1493 C1492 1.327 . S
C1493 C1497 1.429 . S
C1494 C1477 1.574 1_565 S
C1494 H1488 0.949 . S
C1494 C1498 1.368 1_655 S
C1495 C1476 1.429 . S
C1495 C1489 1.429 . S
C1495 C1496 1.523 . S
C1496 C1477 1.368 . S
C1496 C1490 1.368 1_655 S
C1496 C1495 1.523 . S
C1497 C1481 1.429 . S
C1497 C1493 1.429 . S
C1497 C1498 1.523 . S
C1498 C1482 1.368 . S
C1498 C1494 1.368 1_455 S
C1498 C1497 1.523 . S
H1499 C1474 0.950 . S
H1500 C1476 0.950 . S
H1501 C1477 0.949 . S
H1502 C1479 0.950 . S
H1503 C1481 0.950 . S
C1504 C1505 1.349 . S
C1504 C1506 1.327 . S
C1504 H1529 0.950 . S
C1505 C1504 1.349 . S
C1505 C1521 1.349 . S
C1506 C1504 1.327 . S
C1506 C1525 1.429 . S
C1506 H1530 0.950 . S
C1507 C1524 1.574 . S
C1507 C1526 1.368 . S
C1507 H1531 0.949 . S
H1508 C1512 0.949 . S
C1509 C1510 1.349 . S
C1509 C1511 1.327 . S
C1509 H1532 0.950 . S
C1510 C1509 1.349 . S
C1510 C1522 1.349 . S
C1511 C1509 1.327 . S
C1511 C1527 1.429 . S
C1511 H1533 0.950 . S
C1512 H1508 0.949 . S
C1512 C1520 1.574 . S
C1512 C1528 1.368 . S
H1513 C1521 0.950 . S
H1514 C1519 0.950 . S
H1515 C1520 0.949 . S
H1516 C1522 0.950 . S
H1517 C1523 0.950 . S
H1518 C1524 0.949 . S
C1519 H1514 0.950 . S
C1519 C1521 1.327 . S
C1519 C1525 1.429 . S
C1520 C1512 1.574 . S
C1520 H1515 0.949 . S
C1520 C1526 1.368 . S
C1521 C1505 1.349 . S
C1521 H1513 0.950 . S
C1521 C1519 1.327 . S
C1522 C1510 1.349 . S
C1522 H1516 0.950 . S
C1522 C1523 1.327 . S
C1523 H1517 0.950 . S
C1523 C1522 1.327 . S
C1523 C1527 1.429 . S
C1524 C1507 1.574 . S
C1524 H1518 0.949 . S
C1524 C1528 1.368 . S
C1525 C1506 1.429 . S
C1525 C1519 1.429 . S
C1525 C1526 1.523 . S
C1526 C1507 1.368 . S
C1526 C1520 1.368 . S
C1526 C1525 1.523 . S
C1527 C1511 1.429 . S
C1527 C1523 1.429 . S
C1527 C1528 1.523 . S
C1528 C1512 1.368 . S
C1528 C1524 1.368 . S
C1528 C1527 1.523 . S
H1529 C1504 0.950 . S
H1530 C1506 0.950 . S
H1531 C1507 0.949 . S
H1532 C1509 0.950 . S
H1533 C1511 0.950 . S
C1534 C1535 1.349 . S
C1534 C1536 1.327 . S
C1534 H1559 0.950 . S
C1535 C1534 1.349 . S
C1535 C1551 1.349 . S
C1536 C1534 1.327 . S
C1536 C1555 1.429 . S
C1536 H1560 0.950 . S
C1537 C1554 1.574 . S
C1537 C1556 1.368 . S
C1537 H1561 0.949 . S
H1538 C1542 0.949 . S
C1539 C1540 1.349 . S
C1539 C1541 1.327 . S
C1539 H1562 0.950 . S
C1540 C1539 1.349 . S
C1540 C1552 1.349 . S
C1541 C1539 1.327 . S
C1541 C1557 1.429 . S
C1541 H1563 0.950 . S
C1542 H1538 0.949 . S
C1542 C1550 1.574 . S
C1542 C1558 1.368 . S
H1543 C1551 0.950 . S
H1544 C1549 0.950 . S
H1545 C1550 0.949 . S
H1546 C1552 0.950 . S
H1547 C1553 0.950 . S
H1548 C1554 0.949 . S
C1549 H1544 0.950 . S
C1549 C1551 1.327 . S
C1549 C1555 1.429 . S
C1550 C1542 1.574 . S
C1550 H1545 0.949 . S
C1550 C1556 1.368 . S
C1551 C1535 1.349 . S
C1551 H1543 0.950 . S
C1551 C1549 1.327 . S
C1552 C1540 1.349 . S
C1552 H1546 0.950 . S
C1552 C1553 1.327 . S
C1553 H1547 0.950 . S
C1553 C1552 1.327 . S
C1553 C1557 1.429 . S
C1554 C1537 1.574 . S
C1554 H1548 0.949 . S
C1554 C1558 1.368 . S
C1555 C1536 1.429 . S
C1555 C1549 1.429 . S
C1555 C1556 1.523 . S
C1556 C1537 1.368 . S
C1556 C1550 1.368 . S
C1556 C1555 1.523 . S
C1557 C1541 1.429 . S
C1557 C1553 1.429 . S
C1557 C1558 1.523 . S
C1558 C1542 1.368 . S
C1558 C1554 1.368 . S
C1558 C1557 1.523 . S
H1559 C1534 0.950 . S
H1560 C1536 0.950 . S
H1561 C1537 0.949 . S
H1562 C1539 0.950 . S
H1563 C1541 0.950 . S
C1564 C1565 1.349 . S
C1564 C1566 1.327 . S
C1564 H1589 0.950 . S
C1565 C1564 1.349 . S
C1565 C1581 1.349 . S
C1566 C1564 1.327 . S
C1566 C1585 1.429 . S
C1566 H1590 0.950 . S
C1567 C1584 1.574 . S
C1567 C1586 1.368 . S
C1567 H1591 0.949 . S
H1568 C1572 0.949 . S
C1569 C1570 1.349 . S
C1569 C1571 1.327 . S
C1569 H1592 0.950 . S
C1570 C1569 1.349 . S
C1570 C1582 1.349 . S
C1571 C1569 1.327 . S
C1571 C1587 1.429 . S
C1571 H1593 0.950 . S
C1572 H1568 0.949 . S
C1572 C1580 1.574 . S
C1572 C1588 1.368 . S
H1573 C1581 0.950 . S
H1574 C1579 0.950 . S
H1575 C1580 0.949 . S
H1576 C1582 0.950 . S
H1577 C1583 0.950 . S
H1578 C1584 0.949 . S
C1579 H1574 0.950 . S
C1579 C1581 1.327 . S
C1579 C1585 1.429 . S
C1580 C1572 1.574 . S
C1580 H1575 0.949 . S
C1580 C1586 1.368 . S
C1581 C1565 1.349 . S
C1581 H1573 0.950 . S
C1581 C1579 1.327 . S
C1582 C1570 1.349 . S
C1582 H1576 0.950 . S
C1582 C1583 1.327 . S
C1583 H1577 0.950 . S
C1583 C1582 1.327 . S
C1583 C1587 1.429 . S
C1584 C1567 1.574 . S
C1584 H1578 0.949 . S
C1584 C1588 1.368 . S
C1585 C1566 1.429 . S
C1585 C1579 1.429 . S
C1585 C1586 1.523 . S
C1586 C1567 1.368 . S
C1586 C1580 1.368 . S
C1586 C1585 1.523 . S
C1587 C1571 1.429 . S
C1587 C1583 1.429 . S
C1587 C1588 1.523 . S
C1588 C1572 1.368 . S
C1588 C1584 1.368 . S
C1588 C1587 1.523 . S
H1589 C1564 0.950 . S
H1590 C1566 0.950 . S
H1591 C1567 0.949 . S
H1592 C1569 0.950 . S
H1593 C1571 0.950 . S
C1594 C1595 1.349 . S
C1594 C1596 1.327 . S
C1594 H1619 0.950 . S
C1595 C1594 1.349 . S
C1595 C1611 1.349 . S
C1596 C1594 1.327 . S
C1596 C1615 1.429 . S
C1596 H1620 0.950 . S
C1597 C1614 1.574 . S
C1597 C1616 1.368 . S
C1597 H1621 0.949 . S
H1598 C1602 0.949 . S
C1599 C1600 1.349 . S
C1599 C1601 1.327 . S
C1599 H1622 0.950 . S
C1600 C1599 1.349 . S
C1600 C1612 1.349 . S
C1601 C1599 1.327 . S
C1601 C1617 1.429 . S
C1601 H1623 0.950 . S
C1602 H1598 0.949 . S
C1602 C1610 1.574 . S
C1602 C1618 1.368 . S
H1603 C1611 0.950 . S
H1604 C1609 0.950 . S
H1605 C1610 0.949 . S
H1606 C1612 0.950 . S
H1607 C1613 0.950 . S
H1608 C1614 0.949 . S
C1609 H1604 0.950 . S
C1609 C1611 1.327 . S
C1609 C1615 1.429 . S
C1610 C1602 1.574 . S
C1610 H1605 0.949 . S
C1610 C1616 1.368 . S
C1611 C1595 1.349 . S
C1611 H1603 0.950 . S
C1611 C1609 1.327 . S
C1612 C1600 1.349 . S
C1612 H1606 0.950 . S
C1612 C1613 1.327 . S
C1613 H1607 0.950 . S
C1613 C1612 1.327 . S
C1613 C1617 1.429 . S
C1614 C1597 1.574 . S
C1614 H1608 0.949 . S
C1614 C1618 1.368 . S
C1615 C1596 1.429 . S
C1615 C1609 1.429 . S
C1615 C1616 1.523 . S
C1616 C1597 1.368 . S
C1616 C1610 1.368 . S
C1616 C1615 1.523 . S
C1617 C1601 1.429 . S
C1617 C1613 1.429 . S
C1617 C1618 1.523 . S
C1618 C1602 1.368 . S
C1618 C1614 1.368 . S
C1618 C1617 1.523 . S
H1619 C1594 0.950 . S
H1620 C1596 0.950 . S
H1621 C1597 0.949 . S
H1622 C1599 0.950 . S
H1623 C1601 0.950 . S
C1624 C1625 1.349 . S
C1624 C1626 1.327 . S
C1624 H1649 0.950 . S
C1625 C1624 1.349 . S
C1625 C1641 1.349 . S
C1626 C1624 1.327 . S
C1626 C1645 1.429 . S
C1626 H1650 0.950 . S
C1627 C1644 1.574 . S
C1627 C1646 1.368 . S
C1627 H1651 0.949 . S
H1628 C1632 0.949 . S
C1629 C1630 1.349 . S
C1629 C1631 1.327 . S
C1629 H1652 0.950 . S
C1630 C1629 1.349 . S
C1630 C1642 1.349 . S
C1631 C1629 1.327 . S
C1631 C1647 1.429 . S
C1631 H1653 0.950 . S
C1632 H1628 0.949 . S
C1632 C1640 1.574 . S
C1632 C1648 1.368 . S
H1633 C1641 0.950 . S
H1634 C1639 0.950 . S
H1635 C1640 0.949 . S
H1636 C1642 0.950 . S
H1637 C1643 0.950 . S
H1638 C1644 0.949 . S
C1639 H1634 0.950 . S
C1639 C1641 1.327 . S
C1639 C1645 1.429 . S
C1640 C1632 1.574 . S
C1640 H1635 0.949 . S
C1640 C1646 1.368 . S
C1641 C1625 1.349 . S
C1641 H1633 0.950 . S
C1641 C1639 1.327 . S
C1642 C1630 1.349 . S
C1642 H1636 0.950 . S
C1642 C1643 1.327 . S
C1643 H1637 0.950 . S
C1643 C1642 1.327 . S
C1643 C1647 1.429 . S
C1644 C1627 1.574 . S
C1644 H1638 0.949 . S
C1644 C1648 1.368 . S
C1645 C1626 1.429 . S
C1645 C1639 1.429 . S
C1645 C1646 1.523 . S
C1646 C1627 1.368 . S
C1646 C1640 1.368 . S
C1646 C1645 1.523 . S
C1647 C1631 1.429 . S
C1647 C1643 1.429 . S
C1647 C1648 1.523 . S
C1648 C1632 1.368 . S
C1648 C1644 1.368 . S
C1648 C1647 1.523 . S
H1649 C1624 0.950 . S
H1650 C1626 0.950 . S
H1651 C1627 0.949 . S
H1652 C1629 0.950 . S
H1653 C1631 0.950 . S
C1654 C1655 1.349 . S
C1654 C1656 1.327 . S
C1654 H1679 0.950 . S
C1655 C1654 1.349 . S
C1655 C1671 1.349 . S
C1656 C1654 1.327 . S
C1656 C1675 1.429 . S
C1656 H1680 0.950 . S
C1657 C1674 1.574 . S
C1657 C1676 1.368 . S
C1657 H1681 0.949 . S
H1658 C1662 0.949 . S
C1659 C1660 1.349 . S
C1659 C1661 1.327 . S
C1659 H1682 0.950 . S
C1660 C1659 1.349 . S
C1660 C1672 1.349 . S
C1661 C1659 1.327 . S
C1661 C1677 1.429 . S
C1661 H1683 0.950 . S
C1662 H1658 0.949 . S
C1662 C1670 1.574 . S
C1662 C1678 1.368 . S
H1663 C1671 0.950 . S
H1664 C1669 0.950 . S
H1665 C1670 0.949 . S
H1666 C1672 0.950 . S
H1667 C1673 0.950 . S
H1668 C1674 0.949 . S
C1669 H1664 0.950 . S
C1669 C1671 1.327 . S
C1669 C1675 1.429 . S
C1670 C1662 1.574 . S
C1670 H1665 0.949 . S
C1670 C1676 1.368 . S
C1671 C1655 1.349 . S
C1671 H1663 0.950 . S
C1671 C1669 1.327 . S
C1672 C1660 1.349 . S
C1672 H1666 0.950 . S
C1672 C1673 1.327 . S
C1673 H1667 0.950 . S
C1673 C1672 1.327 . S
C1673 C1677 1.429 . S
C1674 C1657 1.574 . S
C1674 H1668 0.949 . S
C1674 C1678 1.368 . S
C1675 C1656 1.429 . S
C1675 C1669 1.429 . S
C1675 C1676 1.523 . S
C1676 C1657 1.368 . S
C1676 C1670 1.368 . S
C1676 C1675 1.523 . S
C1677 C1661 1.429 . S
C1677 C1673 1.429 . S
C1677 C1678 1.523 . S
C1678 C1662 1.368 . S
C1678 C1674 1.368 . S
C1678 C1677 1.523 . S
H1679 C1654 0.950 . S
H1680 C1656 0.950 . S
H1681 C1657 0.949 . S
H1682 C1659 0.950 . S
H1683 C1661 0.950 . S
C1684 C1685 1.349 . S
C1684 C1686 1.327 . S
C1684 H1709 0.950 . S
C1685 C1684 1.349 . S
C1685 C1701 1.349 . S
C1686 C1684 1.327 . S
C1686 C1705 1.429 . S
C1686 H1710 0.950 . S
C1687 C1704 1.574 . S
C1687 C1706 1.368 . S
C1687 H1711 0.949 . S
H1688 C1692 0.949 . S
C1689 C1690 1.349 . S
C1689 C1691 1.327 . S
C1689 H1712 0.950 . S
C1690 C1689 1.349 . S
C1690 C1702 1.349 . S
C1691 C1689 1.327 . S
C1691 C1707 1.429 . S
C1691 H1713 0.950 . S
C1692 H1688 0.949 . S
C1692 C1700 1.574 . S
C1692 C1708 1.368 . S
H1693 C1701 0.950 . S
H1694 C1699 0.950 . S
H1695 C1700 0.949 . S
H1696 C1702 0.950 . S
H1697 C1703 0.950 . S
H1698 C1704 0.949 . S
C1699 H1694 0.950 . S
C1699 C1701 1.327 . S
C1699 C1705 1.429 . S
C1700 C1692 1.574 . S
C1700 H1695 0.949 . S
C1700 C1706 1.368 . S
C1701 C1685 1.349 . S
C1701 H1693 0.950 . S
C1701 C1699 1.327 . S
C1702 C1690 1.349 . S
C1702 H1696 0.950 . S
C1702 C1703 1.327 . S
C1703 H1697 0.950 . S
C1703 C1702 1.327 . S
C1703 C1707 1.429 . S
C1704 C1687 1.574 . S
C1704 H1698 0.949 . S
C1704 C1708 1.368 . S
C1705 C1686 1.429 . S
C1705 C1699 1.429 . S
C1705 C1706 1.523 . S
C1706 C1687 1.368 . S
C1706 C1700 1.368 . S
C1706 C1705 1.523 . S
C1707 C1691 1.429 . S
C1707 C1703 1.429 . S
C1707 C1708 1.523 . S
C1708 C1692 1.368 . S
C1708 C1704 1.368 . S
C1708 C1707 1.523 . S
H1709 C1684 0.950 . S
H1710 C1686 0.950 . S
H1711 C1687 0.949 . S
H1712 C1689 0.950 . S
H1713 C1691 0.950 . S
C1714 C1715 1.349 . S
C1714 C1716 1.327 . S
C1714 H1739 0.950 . S
C1715 C1714 1.349 . S
C1715 C1731 1.349 . S
C1716 C1714 1.327 . S
C1716 C1735 1.429 . S
C1716 H1740 0.950 . S
C1717 C1734 1.574 . S
C1717 C1736 1.368 . S
C1717 H1741 0.949 . S
H1718 C1722 0.949 . S
C1719 C1720 1.349 . S
C1719 C1721 1.327 . S
C1719 H1742 0.950 . S
C1720 C1719 1.349 . S
C1720 C1732 1.349 . S
C1721 C1719 1.327 . S
C1721 C1737 1.429 . S
C1721 H1743 0.950 . S
C1722 H1718 0.949 . S
C1722 C1730 1.574 . S
C1722 C1738 1.368 . S
H1723 C1731 0.950 . S
H1724 C1729 0.950 . S
H1725 C1730 0.949 . S
H1726 C1732 0.950 . S
H1727 C1733 0.950 . S
H1728 C1734 0.949 . S
C1729 H1724 0.950 . S
C1729 C1731 1.327 . S
C1729 C1735 1.429 . S
C1730 C1722 1.574 . S
C1730 H1725 0.949 . S
C1730 C1736 1.368 . S
C1731 C1715 1.349 . S
C1731 H1723 0.950 . S
C1731 C1729 1.327 . S
C1732 C1720 1.349 . S
C1732 H1726 0.950 . S
C1732 C1733 1.327 . S
C1733 H1727 0.950 . S
C1733 C1732 1.327 . S
C1733 C1737 1.429 . S
C1734 C1717 1.574 . S
C1734 H1728 0.949 . S
C1734 C1738 1.368 . S
C1735 C1716 1.429 . S
C1735 C1729 1.429 . S
C1735 C1736 1.523 . S
C1736 C1717 1.368 . S
C1736 C1730 1.368 . S
C1736 C1735 1.523 . S
C1737 C1721 1.429 . S
C1737 C1733 1.429 . S
C1737 C1738 1.523 . S
C1738 C1722 1.368 . S
C1738 C1734 1.368 . S
C1738 C1737 1.523 . S
H1739 C1714 0.950 . S
H1740 C1716 0.950 . S
H1741 C1717 0.949 . S
H1742 C1719 0.950 . S
H1743 C1721 0.950 . S
C545 C2 1.471 . S
C550 C478 1.471 . S
C575 C36 1.471 . S
C580 C512 1.471 . S
C605 C70 1.471 . S
C610 C410 1.471 . S
C635 C104 1.471 . S
C640 C444 1.471 . S
C665 C138 1.471 . S
C670 C342 1.471 . S
C695 C172 1.471 . S
C700 C376 1.471 . S
C725 C274 1.471 . S
C730 C206 1.471 . S
C755 C308 1.471 . S
C760 C240 1.471 . S
C785 C33 0.759 . S
C790 C39 0.759 . S
C815 C67 0.759 . S
C820 C73 0.759 . S
C845 C101 0.759 . S
C850 C107 0.759 . S
C875 C5 0.759 . S
C880 C135 0.759 . S
C905 C515 0.759 . S
C910 C169 0.759 . S
C935 C413 0.759 . S
C940 C203 0.759 . S
C965 C447 0.759 . S
C970 C237 0.759 . S
C995 C481 0.759 . S
C1000 C271 0.759 . S
C1025 C305 0.759 . S
C1030 C311 0.759 . S
C1055 C339 0.759 . S
C1060 C345 0.759 . S
C1085 C379 0.759 . S
C1090 C373 0.759 . S
C1115 C407 0.759 . S
C1120 C277 0.759 . S
C1145 C441 0.759 . S
C1150 C243 0.759 . S
C1175 C141 0.759 . S
C1180 C475 0.759 . S
C1205 C175 0.759 . S
C1210 C509 0.759 . S
C1235 C543 0.759 . S
C1240 C209 0.759 . S
C1265 C9 1.503 . S
C1270 C77 1.503 . S
C1295 C43 1.503 . S
C1300 C111 1.503 . S
C1325 C213 1.503 . S
C1330 C145 1.503 . S
C1355 C247 1.503 . S
C1360 C179 1.503 . S
C1385 C281 1.503 . S
C1390 C349 1.503 . S
C1415 C315 1.503 . S
C1420 C383 1.503 . S
C1445 C417 1.503 . S
C1450 C485 1.503 . S
C1475 C451 1.503 . S
C1480 C519 1.503 . S
C1505 C156 2.067 . S
C1510 C20 2.067 . S
C1535 C190 2.067 . S
C1540 C54 2.067 . S
C1565 C88 2.067 . S
C1570 C224 2.067 . S
C1595 C258 2.067 . S
C1600 C122 2.067 . S
C1625 C292 2.067 . S
C1630 C428 2.067 . S
C1655 C462 2.067 . S
C1660 C326 2.067 . S
C1685 C496 2.067 . S
C1690 C360 2.067 . S
C1715 C394 2.067 . S
C1720 C530 2.067 . S
