# Generated by pormake.
# Topology una, (4)-cn, num edge types: 1
# Building blocks:
#     Node 0, Type 0, BuildingBlock: NAHDIM_clean_sbu_0, # of connection points: 4
#     Node 1, Type 0, BuildingBlock: NAHDIM_clean_sbu_0, # of connection points: 4
#     Node 2, Type 0, BuildingBlock: NAHDIM_clean_sbu_0, # of connection points: 4
#     Node 3, Type 0, BuildingBlock: NAHDIM_clean_sbu_0, # of connection points: 4
#     Node 4, Type 0, BuildingBlock: NAHDIM_clean_sbu_0, # of connection points: 4
#     Node 5, Type 0, BuildingBlock: NAHDIM_clean_sbu_0, # of connection points: 4
#     Node 6, Type 0, BuildingBlock: NAHDIM_clean_sbu_0, # of connection points: 4
#     Node 7, Type 0, BuildingBlock: NAHDIM_clean_sbu_0, # of connection points: 4
#     Node 8, Type 0, BuildingBlock: NAHDIM_clean_sbu_0, # of connection points: 4
#     Node 9, Type 0, BuildingBlock: NAHDIM_clean_sbu_0, # of connection points: 4
#     Node 10, Type 0, BuildingBlock: NAHDIM_clean_sbu_0, # of connection points: 4
#     Node 11, Type 0, BuildingBlock: NAHDIM_clean_sbu_0, # of connection points: 4
#     Edge 12, Type (0, 0), BuildingBlock: XIVTED_clean_linker_0, # of connection points: 2
#     Edge 13, Type (0, 0), BuildingBlock: XIVTED_clean_linker_0, # of connection points: 2
#     Edge 14, Type (0, 0), BuildingBlock: XIVTED_clean_linker_0, # of connection points: 2
#     Edge 15, Type (0, 0), BuildingBlock: XIVTED_clean_linker_0, # of connection points: 2
#     Edge 16, Type (0, 0), BuildingBlock: XIVTED_clean_linker_0, # of connection points: 2
#     Edge 17, Type (0, 0), BuildingBlock: XIVTED_clean_linker_0, # of connection points: 2
#     Edge 18, Type (0, 0), BuildingBlock: XIVTED_clean_linker_0, # of connection points: 2
#     Edge 19, Type (0, 0), BuildingBlock: XIVTED_clean_linker_0, # of connection points: 2
#     Edge 20, Type (0, 0), BuildingBlock: XIVTED_clean_linker_0, # of connection points: 2
#     Edge 21, Type (0, 0), BuildingBlock: XIVTED_clean_linker_0, # of connection points: 2
#     Edge 22, Type (0, 0), BuildingBlock: XIVTED_clean_linker_0, # of connection points: 2
#     Edge 23, Type (0, 0), BuildingBlock: XIVTED_clean_linker_0, # of connection points: 2
#     Edge 24, Type (0, 0), BuildingBlock: XIVTED_clean_linker_0, # of connection points: 2
#     Edge 25, Type (0, 0), BuildingBlock: XIVTED_clean_linker_0, # of connection points: 2
#     Edge 26, Type (0, 0), BuildingBlock: XIVTED_clean_linker_0, # of connection points: 2
#     Edge 27, Type (0, 0), BuildingBlock: XIVTED_clean_linker_0, # of connection points: 2
#     Edge 28, Type (0, 0), BuildingBlock: XIVTED_clean_linker_0, # of connection points: 2
#     Edge 29, Type (0, 0), BuildingBlock: XIVTED_clean_linker_0, # of connection points: 2
#     Edge 30, Type (0, 0), BuildingBlock: XIVTED_clean_linker_0, # of connection points: 2
#     Edge 31, Type (0, 0), BuildingBlock: XIVTED_clean_linker_0, # of connection points: 2
#     Edge 32, Type (0, 0), BuildingBlock: XIVTED_clean_linker_0, # of connection points: 2
#     Edge 33, Type (0, 0), BuildingBlock: XIVTED_clean_linker_0, # of connection points: 2
#     Edge 34, Type (0, 0), BuildingBlock: XIVTED_clean_linker_0, # of connection points: 2
#     Edge 35, Type (0, 0), BuildingBlock: XIVTED_clean_linker_0, # of connection points: 2
# Relax obj value: 0.122
# Max RMSD: 0.175
# Mean RMSD: 0.173
data_MOF--net-una--node1-NAHDIM_clean_sbu_0--edge1-XIVTED_clean_linker_0
_symmetry_space_group_name_H-M    P1
_symmetry_Int_Tables_number       1
_symmetry_cell_setting            triclinic
loop_
_symmetry_equiv_pos_as_xyz
'x, y, z'
_cell_length_a     58.589409
_cell_length_b     57.751064
_cell_length_c     21.592375
_cell_angle_alpha  90.004455
_cell_angle_beta   90.032269
_cell_angle_gamma 120.51603
loop_
_atom_site_label
_atom_site_type_symbol
_atom_site_fract_x
_atom_site_fract_y
_atom_site_fract_z
_atom_type_partial_charge
C0 C 0.08914 0.41527 0.96782 0.0
O1 O 0.10662 0.43781 0.94095 0.0
O2 O 0.15636 0.44544 0.98431 0.0
Zn3 Zn 0.13038 0.43687 0.05335 0.0
O4 O 0.13034 0.4707 0.07493 0.0
C5 C 0.15371 0.41059 0.11774 0.0
O6 O 0.1578 0.40548 0.06085 0.0
O7 O 0.09451 0.40959 0.02072 0.0
C8 C 0.14643 0.48761 0.11388 0.0
O9 O 0.16296 0.48243 0.14334 0.0
C10 C 0.18099 0.46233 0.98858 0.0
O11 O 0.19069 0.47519 0.04097 0.0
O12 O 0.14127 0.42305 0.12646 0.0
C13 C 0.7295 0.14681 0.28557 0.0
O14 O 0.73766 0.14908 0.2281 0.0
O15 O 0.64914 0.13425 0.25101 0.0
Zn16 Zn 0.68062 0.13171 0.22409 0.0
O17 O 0.70094 0.1598 0.15864 0.0
C18 C 0.65009 0.09018 0.1422 0.0
O19 O 0.64304 0.10793 0.12945 0.0
O20 O 0.70514 0.13832 0.29605 0.0
C21 C 0.71066 0.15402 0.11265 0.0
O22 O 0.70728 0.12979 0.10843 0.0
C23 C 0.64799 0.15553 0.24534 0.0
O24 O 0.66874 0.17751 0.22446 0.0
O25 O 0.66666 0.09524 0.18559 0.0
C26 C 0.57604 0.66626 0.29615 0.0
O27 O 0.55081 0.65713 0.28529 0.0
O28 O 0.55813 0.71799 0.29005 0.0
Zn29 Zn 0.56638 0.70149 0.36196 0.0
O30 O 0.53237 0.67027 0.39339 0.0
C31 C 0.59692 0.75397 0.41675 0.0
O32 O 0.59963 0.76172 0.3587 0.0
O33 O 0.58875 0.68689 0.33027 0.0
C34 C 0.51675 0.67138 0.43243 0.0
O35 O 0.52277 0.69456 0.45732 0.0
C36 C 0.54276 0.72739 0.29475 0.0
O37 O 0.53159 0.7262 0.34828 0.0
O38 O 0.58434 0.729 0.42925 0.0
C39 C 0.90971 0.56846 0.49181 0.0
O40 O 0.89486 0.54216 0.49046 0.0
O41 O 0.83801 0.55095 0.50035 0.0
Zn42 Zn 0.86627 0.55954 0.56399 0.0
O43 O 0.86332 0.52531 0.59472 0.0
C44 C 0.84867 0.5913 0.62729 0.0
O45 O 0.84223 0.59426 0.57076 0.0
O46 O 0.90188 0.58184 0.52289 0.0
C47 C 0.84152 0.50425 0.60778 0.0
O48 O 0.81934 0.50464 0.6037 0.0
C49 C 0.8299 0.53205 0.46093 0.0
O50 O 0.83993 0.51624 0.46083 0.0
O51 O 0.86066 0.57837 0.63555 0.0
C52 C 0.25638 0.8552 0.80099 0.0
O53 O 0.24744 0.85118 0.74384 0.0
O54 O 0.33518 0.86493 0.76423 0.0
Zn55 Zn 0.30316 0.86647 0.73697 0.0
O56 O 0.28061 0.83506 0.6815 0.0
C57 C 0.33604 0.9093 0.6562 0.0
O58 O 0.35002 0.8974 0.66085 0.0
O59 O 0.28079 0.86361 0.81025 0.0
C60 C 0.28922 0.82973 0.63282 0.0
O61 O 0.31433 0.84476 0.61798 0.0
C62 C 0.33525 0.84306 0.76949 0.0
O63 O 0.31316 0.82012 0.7606 0.0
O64 O 0.3148 0.90028 0.68742 0.0
C65 C 0.41014 0.33129 0.85108 0.0
O66 O 0.4236 0.34103 0.90265 0.0
O67 O 0.43955 0.27775 0.79343 0.0
Zn68 Zn 0.43295 0.298 0.85932 0.0
O69 O 0.4678 0.32929 0.88778 0.0
C70 C 0.39794 0.24794 0.91616 0.0
O71 O 0.39294 0.24069 0.85777 0.0
O72 O 0.41052 0.31191 0.82438 0.0
C73 C 0.48986 0.33128 0.87435 0.0
O74 O 0.49009 0.31197 0.84276 0.0
C75 C 0.44153 0.28375 0.7364 0.0
O76 O 0.43953 0.30441 0.71872 0.0
O77 O 0.41423 0.2724 0.9293 0.0
C78 C 0.59699 0.86035 0.77308 0.0
O79 O 0.60314 0.85712 0.82969 0.0
O80 O 0.52925 0.87105 0.81848 0.0
Zn81 Zn 0.56424 0.8747 0.84016 0.0
O82 O 0.5578 0.84657 0.90288 0.0
C83 C 0.58515 0.93063 0.86231 0.0
O84 O 0.56966 0.92773 0.81531 0.0
O85 O 0.58115 0.86905 0.76533 0.0
C86 C 0.5441 0.84348 0.951 0.0
O87 O 0.53392 0.85894 0.95932 0.0
C88 C 0.50825 0.84832 0.81239 0.0
O89 O 0.50952 0.82633 0.81733 0.0
O90 O 0.58713 0.91071 0.87959 0.0
C91 C 0.65645 0.56524 0.11129 0.0
O92 O 0.64559 0.5394 0.12252 0.0
O93 O 0.70697 0.54527 0.11688 0.0
Zn94 Zn 0.68962 0.55258 0.04566 0.0
O95 O 0.65786 0.5179 0.01811 0.0
C96 C 0.74032 0.58286 0.9857 0.0
O97 O 0.74903 0.58646 0.04299 0.0
O98 O 0.67688 0.57672 0.07705 0.0
C99 C 0.65802 0.5021 0.97744 0.0
O100 O 0.6803 0.50829 0.94937 0.0
C101 C 0.71516 0.52871 0.11447 0.0
O102 O 0.7121 0.51521 0.06316 0.0
O103 O 0.71551 0.56957 0.9756 0.0
C104 C 0.08081 0.65566 0.25703 0.0
O105 O 0.09166 0.64089 0.24768 0.0
O106 O 0.15703 0.71341 0.2753 0.0
Zn107 Zn 0.13043 0.69527 0.20718 0.0
O108 O 0.13452 0.66496 0.17354 0.0
C109 C 0.14992 0.74731 0.1531 0.0
O110 O 0.15502 0.75482 0.21132 0.0
O111 O 0.0936 0.68037 0.24209 0.0
C112 C 0.15506 0.66344 0.18421 0.0
O113 O 0.17504 0.68307 0.21419 0.0
C114 C 0.15279 0.70613 0.33163 0.0
O115 O 0.12971 0.68571 0.34794 0.0
O116 O 0.1383 0.72241 0.13993 0.0
C117 C 0.38353 0.13103 0.26187 0.0
O118 O 0.37748 0.13384 0.31888 0.0
O119 O 0.45108 0.11992 0.30575 0.0
Zn120 Zn 0.41629 0.11674 0.3277 0.0
O121 O 0.42386 0.14624 0.38729 0.0
C122 C 0.39595 0.06153 0.35688 0.0
O123 O 0.41236 0.06401 0.31247 0.0
O124 O 0.39912 0.12209 0.25303 0.0
C125 C 0.4348 0.14819 0.43927 0.0
O126 O 0.44121 0.13023 0.45489 0.0
C127 C 0.47182 0.14267 0.29735 0.0
O128 O 0.47019 0.16451 0.30004 0.0
O129 O 0.39318 0.08141 0.36994 0.0
C130 C 0.33854 0.43133 0.62191 0.0
O131 O 0.34874 0.45686 0.63551 0.0
O132 O 0.29097 0.45431 0.60738 0.0
Zn133 Zn 0.31049 0.44621 0.54228 0.0
O134 O 0.34336 0.48015 0.51652 0.0
C135 C 0.26131 0.41611 0.47807 0.0
O136 O 0.25226 0.41154 0.5351 0.0
O137 O 0.32101 0.42106 0.57975 0.0
C138 C 0.34375 0.50211 0.5079 0.0
O139 O 0.32174 0.50271 0.51392 0.0
C140 C 0.301 0.47299 0.64752 0.0
O141 O 0.3267 0.48977 0.64829 0.0
O142 O 0.28619 0.42978 0.4691 0.0
C143 C 0.91098 0.30427 0.77251 0.0
O144 O 0.89134 0.28391 0.8015 0.0
O145 O 0.84281 0.28057 0.76171 0.0
Zn146 Zn 0.86921 0.30225 0.69618 0.0
O147 O 0.8668 0.33499 0.6782 0.0
C148 C 0.84898 0.2536 0.62825 0.0
O149 O 0.84681 0.24411 0.68459 0.0
O150 O 0.90608 0.31436 0.72564 0.0
C151 C 0.84474 0.33412 0.67407 0.0
O152 O 0.82263 0.31093 0.67989 0.0
C153 C 0.83711 0.28922 0.80983 0.0
O154 O 0.84942 0.31517 0.82094 0.0
O155 O 0.85959 0.27883 0.62052 0.0
H156 H 0.19264 0.39776 0.11393 0.0
H157 H 0.20846 0.39908 0.4817 0.0
H158 H 0.14368 0.41104 0.24142 0.0
H159 H 0.27204 0.41661 0.35438 0.0
H160 H 0.17946 0.39239 0.39368 0.0
H161 H 0.21672 0.39371 0.20191 0.0
C162 C 0.18669 0.39944 0.16042 0.0
C163 C 0.16628 0.405 0.17041 0.0
C164 C 0.19969 0.39744 0.38511 0.0
C165 C 0.19368 0.40029 0.27096 0.0
C166 C 0.21623 0.40114 0.43525 0.0
C167 C 0.2428 0.4087 0.42534 0.0
C168 C 0.2097 0.401 0.32467 0.0
C169 C 0.25176 0.41106 0.36411 0.0
C170 C 0.20053 0.39724 0.21051 0.0
C171 C 0.15945 0.40701 0.23164 0.0
N172 N 0.23526 0.40734 0.31603 0.0
N173 N 0.17319 0.40474 0.27965 0.0
H174 H 0.85632 0.2644 0.50406 0.0
H175 H 0.72042 0.13822 0.41022 0.0
H176 H 0.81032 0.20072 0.63424 0.0
H177 H 0.78289 0.18093 0.27669 0.0
H178 H 0.75243 0.16132 0.49368 0.0
H179 H 0.82934 0.23482 0.4196 0.0
C180 C 0.84077 0.2441 0.51475 0.0
C181 C 0.83542 0.23504 0.5762 0.0
C182 C 0.75917 0.1653 0.44609 0.0
C183 C 0.8043 0.20138 0.48024 0.0
C184 C 0.74091 0.15221 0.39851 0.0
C185 C 0.74898 0.15782 0.3365 0.0
C186 C 0.78548 0.18452 0.43139 0.0
C187 C 0.7758 0.17604 0.32388 0.0
C188 C 0.82545 0.22723 0.4666 0.0
C189 C 0.8151 0.20852 0.58751 0.0
N190 N 0.79302 0.18909 0.37092 0.0
N191 N 0.79996 0.19275 0.54006 0.0
H192 H 0.60887 0.8062 0.40859 0.0
H193 H 0.61843 0.82793 0.77515 0.0
H194 H 0.60257 0.74684 0.53983 0.0
H195 H 0.59339 0.86898 0.64966 0.0
H196 H 0.62514 0.80563 0.68666 0.0
H197 H 0.6156 0.83662 0.49468 0.0
C198 C 0.60938 0.79974 0.4554 0.0
C199 C 0.60485 0.77384 0.46722 0.0
C200 C 0.61852 0.8198 0.67857 0.0
C201 C 0.61261 0.80852 0.56548 0.0
C202 C 0.61478 0.83262 0.72895 0.0
C203 C 0.60497 0.85005 0.71976 0.0
C204 C 0.61269 0.82468 0.61863 0.0
C205 C 0.60065 0.85542 0.65884 0.0
C206 C 0.6131 0.81706 0.50442 0.0
C207 C 0.60569 0.76652 0.52876 0.0
N208 N 0.60437 0.84262 0.61053 0.0
N209 N 0.60933 0.78373 0.57569 0.0
H210 H 0.86137 0.59247 0.74981 0.0
H211 H 0.73032 0.58602 0.86319 0.0
H212 H 0.81093 0.60583 0.62726 0.0
H213 H 0.79297 0.5988 0.98898 0.0
H214 H 0.76034 0.59505 0.77619 0.0
H215 H 0.83793 0.5969 0.83844 0.0
C216 C 0.84563 0.59674 0.74156 0.0
C217 C 0.83787 0.59844 0.68104 0.0
C218 C 0.76765 0.59626 0.82286 0.0
C219 C 0.81074 0.60314 0.78212 0.0
C220 C 0.75048 0.59101 0.87253 0.0
C221 C 0.75909 0.5914 0.93335 0.0
C222 C 0.79345 0.60147 0.83404 0.0
C223 C 0.78548 0.59818 0.9428 0.0
C224 C 0.83228 0.5993 0.79218 0.0
C225 C 0.81747 0.60419 0.67309 0.0
N226 N 0.80163 0.60254 0.89359 0.0
N227 N 0.80431 0.60588 0.72304 0.0
H228 H 0.20253 0.8227 0.79671 0.0
H229 H 0.18842 0.80026 0.16279 0.0
H230 H 0.26753 0.86475 0.92478 0.0
H231 H 0.13747 0.74036 0.0297 0.0
H232 H 0.21166 0.83142 0.07764 0.0
H233 H 0.17293 0.80019 0.88417 0.0
C234 C 0.21049 0.82762 0.84325 0.0
C235 C 0.23763 0.84532 0.85348 0.0
C236 C 0.19514 0.81158 0.06728 0.0
C237 C 0.20385 0.81969 0.95342 0.0
C238 C 0.18179 0.79381 0.11577 0.0
C239 C 0.16122 0.76754 0.10318 0.0
C240 C 0.18763 0.8031 0.00595 0.0
C241 C 0.15345 0.76031 0.04138 0.0
C242 C 0.19359 0.81466 0.89304 0.0
C243 C 0.24681 0.85097 0.9148 0.0
N244 N 0.1668 0.77795 0.99496 0.0
N245 N 0.22998 0.838 0.96252 0.0
H246 H 0.36624 0.16687 0.26796 0.0
H247 H 0.37777 0.19391 0.90374 0.0
H248 H 0.38575 0.12284 0.13765 0.0
H249 H 0.39522 0.25526 0.04054 0.0
H250 H 0.36687 0.16123 0.98719 0.0
H251 H 0.36278 0.19249 0.18196 0.0
C252 C 0.36924 0.16218 0.22117 0.0
C253 C 0.37666 0.14296 0.2099 0.0
C254 C 0.37272 0.18177 -0.00129 0.0
C255 C 0.37262 0.17209 0.11176 0.0
C256 C 0.37885 0.20041 0.95126 0.0
C257 C 0.38775 0.2274 0.96539 0.0
C258 C 0.37511 0.19014 0.06053 0.0
C259 C 0.38877 0.2347 0.02773 0.0
C260 C 0.36739 0.17691 0.17228 0.0
C261 C 0.38031 0.13773 0.14837 0.0
N262 N 0.38266 0.21618 0.07312 0.0
N263 N 0.37843 0.15237 0.10151 0.0
H264 H 0.11321 0.50343 0.066 0.0
H265 H 0.19307 0.65096 0.21296 0.0
H266 H 0.18217 0.53086 0.18249 0.0
H267 H 0.11738 0.61915 0.1216 0.0
H268 H 0.19137 0.60838 0.19458 0.0
H269 H 0.11608 0.54682 0.07957 0.0
C270 C 0.12893 0.51855 0.09456 0.0
C271 C 0.14745 0.51347 0.12329 0.0
C272 C 0.17517 0.61075 0.17838 0.0
C273 C 0.15094 0.56326 0.13862 0.0
C274 C 0.17618 0.63511 0.1886 0.0
C275 C 0.15529 0.63861 0.16896 0.0
C276 C 0.15317 0.58976 0.14808 0.0
C277 C 0.13391 0.61733 0.13769 0.0
C278 C 0.13056 0.54333 0.10224 0.0
C279 C 0.1674 0.53384 0.15966 0.0
N280 N 0.13337 0.5938 0.12834 0.0
N281 N 0.16865 0.55787 0.16618 0.0
H282 H 0.6379 0.19693 0.2374 0.0
H283 H 0.48247 0.10174 0.2985 0.0
H284 H 0.60036 0.11219 0.27855 0.0
H285 H 0.52023 0.18781 0.27709 0.0
H286 H 0.52556 0.10527 0.28815 0.0
H287 H 0.5951 0.1942 0.25013 0.0
C288 C 0.62072 0.17779 0.24945 0.0
C289 C 0.62273 0.15475 0.25681 0.0
C290 C 0.52445 0.12341 0.28569 0.0
C291 C 0.5737 0.15145 0.27094 0.0
C292 C 0.49982 0.1214 0.29138 0.0
C293 C 0.49772 0.14452 0.28864 0.0
C294 C 0.54723 0.14872 0.27699 0.0
C295 C 0.52091 0.16945 0.27949 0.0
C296 C 0.59629 0.17625 0.25662 0.0
C297 C 0.59979 0.13049 0.2724 0.0
N298 N 0.54472 0.17089 0.27396 0.0
N299 N 0.57624 0.12947 0.27868 0.0
H300 H 0.39095 0.50671 0.47588 0.0
H301 H 0.47344 0.66708 0.49224 0.0
H302 H 0.35447 0.55413 0.51257 0.0
H303 H 0.5023 0.61961 0.40487 0.0
H304 H 0.43092 0.62585 0.51077 0.0
H305 H 0.43323 0.54803 0.45949 0.0
C306 C 0.39182 0.52583 0.48033 0.0
C307 C 0.36914 0.52699 0.49546 0.0
C308 C 0.44661 0.62453 0.48759 0.0
C309 C 0.41755 0.57437 0.47731 0.0
C310 C 0.4709 0.648 0.47732 0.0
C311 C 0.49141 0.64676 0.44688 0.0
C312 C 0.443 0.5997 0.4679 0.0
C313 C 0.48701 0.62153 0.42829 0.0
C314 C 0.41596 0.5494 0.47091 0.0
C315 C 0.37144 0.55233 0.50064 0.0
N316 N 0.46332 0.59901 0.43921 0.0
N317 N 0.39528 0.57506 0.49187 0.0
H318 H 0.79847 0.45404 0.6286 0.0
H319 H 0.88689 0.3851 0.66112 0.0
H320 H 0.88393 0.49708 0.61936 0.0
H321 H 0.80138 0.34038 0.6673 0.0
H322 H 0.88585 0.42643 0.64832 0.0
H323 H 0.7988 0.41233 0.64637 0.0
C324 C 0.81729 0.45476 0.63067 0.0
C325 C 0.8412 0.47908 0.62232 0.0
C326 C 0.86728 0.40761 0.65246 0.0
C327 C 0.8417 0.43149 0.64228 0.0
C328 C 0.86786 0.38395 0.65969 0.0
C329 C 0.84418 0.3592 0.66517 0.0
C330 C 0.84284 0.40661 0.65067 0.0
C331 C 0.82012 0.359 0.66311 0.0
C332 C 0.81746 0.43094 0.64065 0.0
C333 C 0.865 0.47881 0.6254 0.0
N334 N 0.82006 0.38237 0.656 0.0
N335 N 0.86462 0.45541 0.63495 0.0
H336 H 0.38446 0.88716 0.78617 0.0
H337 H 0.45897 0.80328 0.8015 0.0
H338 H 0.34373 0.80054 0.77536 0.0
H339 H 0.49874 0.88995 0.80602 0.0
H340 H 0.41647 0.80153 0.7932 0.0
H341 H 0.42638 0.88821 0.79641 0.0
C342 C 0.38429 0.86832 0.7863 0.0
C343 C 0.36052 0.84371 0.77981 0.0
C344 C 0.43452 0.82091 0.79591 0.0
C345 C 0.4086 0.84479 0.79111 0.0
C346 C 0.45879 0.82193 0.80049 0.0
C347 C 0.48246 0.8468 0.80445 0.0
C348 C 0.43393 0.84493 0.79539 0.0
C349 C 0.48102 0.87032 0.80305 0.0
C350 C 0.40829 0.86894 0.79197 0.0
C351 C 0.36158 0.81997 0.78026 0.0
N352 N 0.45718 0.86879 0.79874 0.0
N353 N 0.38525 0.8211 0.78563 0.0
H354 H 0.54035 0.3443 0.84348 0.0
H355 H 0.6083 0.48534 0.02143 0.0
H356 H 0.49669 0.37404 0.94375 0.0
H357 H 0.65124 0.46114 0.90077 0.0
H358 H 0.56759 0.44343 -0.00197 0.0
H359 H 0.58154 0.38563 0.86902 0.0
C360 C 0.53941 0.35945 0.87108 0.0
C361 C 0.51501 0.35571 0.89143 0.0
C362 C 0.58589 0.44726 0.97659 0.0
C363 C 0.56209 0.40306 0.92071 0.0
C364 C 0.60919 0.47121 0.98995 0.0
C365 C 0.63325 0.4768 0.96292 0.0
C366 C 0.58659 0.42863 0.93607 0.0
C367 C 0.63314 0.4577 0.92252 0.0
C368 C 0.56294 0.38308 0.88547 0.0
C369 C 0.51502 0.37607 0.92697 0.0
N370 N 0.61016 0.43443 0.91038 0.0
N371 N 0.53819 0.39885 0.94045 0.0
H372 H 0.31569 0.50553 0.75011 0.0
H373 H 0.16686 0.4392 0.8742 0.0
H374 H 0.24702 0.44419 0.65293 0.0
H375 H 0.23504 0.49481 0.98204 0.0
H376 H 0.19605 0.44438 0.78854 0.0
H377 H 0.28651 0.50546 0.83136 0.0
C378 C 0.29449 0.4922 0.74562 0.0
C379 C 0.28378 0.47469 0.69493 0.0
C380 C 0.20467 0.45554 0.83082 0.0
C381 C 0.2504 0.47449 0.78751 0.0
C382 C 0.18799 0.45259 0.87984 0.0
C383 C 0.19855 0.46644 0.93558 0.0
C384 C 0.23216 0.47244 0.83745 0.0
C385 C 0.22608 0.48364 0.93998 0.0
C386 C 0.27787 0.49213 0.79206 0.0
C387 C 0.25618 0.45788 0.69142 0.0
N388 N 0.24198 0.48607 0.89159 0.0
N389 N 0.24049 0.45814 0.73719 0.0
H390 H 0.7297 0.20839 0.1167 0.0
H391 H 0.80854 0.23479 0.79789 0.0
H392 H 0.72916 0.14646 0.00356 0.0
H393 H 0.81941 0.2991 0.91923 0.0
H394 H 0.77605 0.20241 0.86926 0.0
H395 H 0.75922 0.24212 0.04132 0.0
C396 C 0.73564 0.20188 0.07586 0.0
C397 C 0.72711 0.17461 0.06649 0.0
C398 C 0.78548 0.22358 0.88045 0.0
C399 C 0.76072 0.21293 0.98052 0.0
C400 C 0.80408 0.24215 0.83961 0.0
C401 C 0.81687 0.26974 0.85279 0.0
C402 C 0.7795 0.23254 0.93512 0.0
C403 C 0.8101 0.27801 0.90744 0.0
C404 C 0.75252 0.22112 0.03305 0.0
C405 C 0.73539 0.16727 0.01291 0.0
N406 N 0.79188 0.25944 0.94684 0.0
N407 N 0.75175 0.18631 0.97209 0.0
H408 H 0.51426 0.75308 0.29028 0.0
H409 H 0.56291 0.80884 0.94764 0.0
H410 H 0.56327 0.73358 0.17829 0.0
H411 H 0.51763 0.83252 0.0616 0.0
H412 H 0.55947 0.77778 0.02838 0.0
H413 H 0.51149 0.77884 0.2037 0.0
C414 C 0.5243 0.75407 0.24739 0.0
C415 C 0.53922 0.74137 0.24168 0.0
C416 C 0.55017 0.78966 0.03569 0.0
C417 C 0.53618 0.77081 0.14265 0.0
C418 C 0.55213 0.80743 0.98957 0.0
C419 C 0.54074 0.82349 -0.00186 0.0
C420 C 0.53677 0.78794 0.09094 0.0
C421 C 0.52687 0.82065 0.05325 0.0
C422 C 0.52273 0.76879 0.19802 0.0
C423 C 0.5517 0.74321 0.18495 0.0
N424 N 0.5254 0.80332 0.09778 0.0
N425 N 0.55002 0.75779 0.13779 0.0
H426 H 0.80257 0.55868 0.4541 0.0
H427 H 0.73768 0.49721 0.12474 0.0
H428 H 0.81259 0.49839 0.36025 0.0
H429 H 0.72515 0.55429 0.22605 0.0
H430 H 0.76339 0.49546 0.21214 0.0
H431 H 0.77233 0.55543 0.37268 0.0
C432 C 0.79833 0.54465 0.41645 0.0
C433 C 0.81029 0.52892 0.41374 0.0
C434 C 0.75486 0.50823 0.21529 0.0
C435 C 0.77567 0.52517 0.32 0.0
C436 C 0.74019 0.50925 0.16544 0.0
C437 C 0.7294 0.52606 0.16791 0.0
C438 C 0.75879 0.5242 0.26782 0.0
C439 C 0.73322 0.54116 0.22188 0.0
C440 C 0.78101 0.54279 0.36993 0.0
C441 C 0.80388 0.51097 0.36405 0.0
N442 N 0.7477 0.53996 0.26948 0.0
N443 N 0.78713 0.50971 0.31884 0.0
H444 H 0.14826 0.70259 0.45805 0.0
H445 H 0.29854 0.81866 0.51542 0.0
H446 H 0.20465 0.74389 0.31135 0.0
H447 H 0.23739 0.79193 0.65464 0.0
H448 H 0.26612 0.78564 0.44349 0.0
H449 H 0.1826 0.72981 0.53401 0.0
C450 C 0.16789 0.71724 0.44184 0.0
C451 C 0.17355 0.72118 0.37831 0.0
C452 C 0.25987 0.78691 0.48993 0.0
C453 C 0.21284 0.7522 0.46475 0.0
C454 C 0.27837 0.80567 0.53107 0.0
C455 C 0.27058 0.80823 0.59088 0.0
C456 C 0.23346 0.77049 0.50889 0.0
C457 C 0.24419 0.79082 0.60873 0.0
C458 C 0.18744 0.73278 0.48517 0.0
C459 C 0.19934 0.74037 0.35988 0.0
N460 N 0.22653 0.77276 0.56778 0.0
N461 N 0.21801 0.75522 0.4029 0.0
H462 H 0.43942 0.28579 0.60985 0.0
H463 H 0.45223 0.15549 0.55941 0.0
H464 H 0.45031 0.24237 0.7587 0.0
H465 H 0.42797 0.19079 0.4164 0.0
H466 H 0.45744 0.19078 0.63065 0.0
H467 H 0.44113 0.25471 0.53567 0.0
C468 C 0.44237 0.26986 0.62689 0.0
C469 C 0.44448 0.26651 0.69054 0.0
C470 C 0.45108 0.19084 0.58358 0.0
C471 C 0.44642 0.23092 0.60612 0.0
C472 C 0.44814 0.17073 0.5429 0.0
C473 C 0.43943 0.17007 0.48208 0.0
C474 C 0.44538 0.21046 0.56315 0.0
C475 C 0.43451 0.19039 0.46308 0.0
C476 C 0.44328 0.25209 0.58457 0.0
C477 C 0.44836 0.24556 0.71005 0.0
N478 N 0.43747 0.2097 0.50355 0.0
N479 N 0.44909 0.22849 0.66801 0.0
H480 H 0.07356 0.42089 0.85258 0.0
H481 H 0.9279 0.29241 0.88007 0.0
H482 H 0.04692 0.36829 0.01159 0.0
H483 H 0.95593 0.34629 0.72335 0.0
H484 H 0.97215 0.3176 0.926 0.0
H485 H 0.03131 0.39171 0.80206 0.0
C486 C 0.05882 0.40315 0.87692 0.0
C487 C 0.06373 0.39712 0.93662 0.0
C488 C 0.96864 0.32376 0.88136 0.0
C489 C 0.01514 0.36351 0.87883 0.0
C490 C 0.9434 0.30935 0.85501 0.0
C491 C 0.93814 0.31739 0.79799 0.0
C492 C 0.9887 0.34635 0.85043 0.0
C493 C 0.95899 0.33947 0.76759 0.0
C494 C 0.03467 0.38644 0.84792 0.0
C495 C 0.04392 0.37375 0.96563 0.0
N496 N 0.98328 0.35325 0.79436 0.0
N497 N 0.0204 0.35784 0.93655 0.0
H498 H 0.58137 0.97542 0.84428 0.0
H499 H 0.66157 0.04973 0.15207 0.0
H500 H 0.61639 0.9425 0.96566 0.0
H501 H 0.61816 0.07652 0.04058 0.0
H502 H 0.64762 0.01162 0.08158 0.0
H503 H 0.59796 0.01452 0.91189 0.0
C504 C 0.59274 0.9765 0.88488 0.0
C505 C 0.59736 0.95557 0.89948 0.0
C506 C 0.64114 0.02584 0.07269 0.0
C507 C 0.61626 0.00024 0.97748 0.0
C508 C 0.64903 0.04754 0.11298 0.0
C509 C 0.64097 0.0663 0.10227 0.0
C510 C 0.6252 0.02299 0.02128 0.0
C511 C 0.62482 0.06254 0.05078 0.0
C512 C 0.60212 -0.0012 0.92366 0.0
C513 C 0.61227 0.95813 0.95271 0.0
N514 N 0.61752 0.04137 0.01221 0.0
N515 N 0.6211 0.98001 0.98996 0.0
H516 H 0.60726 0.545 0.16089 0.0
H517 H 0.62926 0.6848 0.28403 0.0
H518 H 0.67933 0.6199 0.12373 0.0
H519 H 0.55205 0.61579 0.24798 0.0
H520 H 0.64961 0.66061 0.23839 0.0
H521 H 0.58823 0.57003 0.20664 0.0
C522 C 0.6191 0.56673 0.16243 0.0
C523 C 0.64488 0.58042 0.13836 0.0
C524 C 0.62823 0.65088 0.24048 0.0
C525 C 0.62328 0.60915 0.19108 0.0
C526 C 0.61663 0.66458 0.26669 0.0
C527 C 0.58895 0.65226 0.26965 0.0
C528 C 0.61197 0.62461 0.21824 0.0
C529 C 0.57347 0.62609 0.24637 0.0
C530 C 0.60819 0.581 0.18835 0.0
C531 C 0.65931 0.60861 0.14147 0.0
N532 N 0.58519 0.61309 0.22198 0.0
N533 N 0.64835 0.6221 0.16774 0.0
H534 H 0.05577 0.6814 0.30332 0.0
H535 H 0.93216 0.54458 0.42776 0.0
H536 H 0.04681 0.60285 0.28219 0.0
H537 H 0.94417 0.62269 0.47481 0.0
H538 H 0.97294 0.56615 0.36825 0.0
H539 H 0.01361 0.66077 0.35986 0.0
C540 C 0.04488 0.65983 0.31021 0.0
C541 C 0.05484 0.64381 0.28817 0.0
C542 C 0.96676 0.57866 0.39157 0.0
C543 C 0.00684 0.62022 0.35266 0.0
C544 C 0.9434 0.56633 0.42565 0.0
C545 C 0.93475 0.58186 0.4565 0.0
C546 C 0.98168 0.60681 0.38795 0.0
C547 C 0.95018 0.60997 0.4519 0.0
C548 C 0.02091 0.64812 0.34265 0.0
C549 C 0.03998 0.61602 0.29854 0.0
N550 N 0.97296 0.62159 0.41815 0.0
N551 N 0.01679 0.60515 0.33001 0.0
H552 H 0.36005 0.04899 0.45096 0.0
H553 H 0.37529 0.92698 0.57001 0.0
H554 H 0.40448 0.01925 0.3541 0.0
H555 H 0.31496 0.94196 0.64016 0.0
H556 H 0.38773 0.96258 0.49417 0.0
H557 H 0.34403 0.01115 0.52301 0.0
C558 C 0.36623 0.03438 0.44446 0.0
C559 C 0.38375 0.03737 0.39661 0.0
C560 C 0.37172 0.95808 0.526 0.0
C561 C 0.36579 0.99433 0.47922 0.0
C562 C 0.3647 0.93783 0.56965 0.0
C563 C 0.34407 0.93151 0.61162 0.0
C564 C 0.35823 0.97236 0.52448 0.0
C565 C 0.33099 0.9462 0.60866 0.0
C566 C 0.3571 0.01283 0.48563 0.0
C567 C 0.39107 0.01782 0.39034 0.0
N568 N 0.33837 0.96606 0.56592 0.0
N569 N 0.38224 0.99729 0.4315 0.0
H570 H 0.32632 0.37942 0.59901 0.0
H571 H 0.40985 0.37627 0.88924 0.0
H572 H 0.37009 0.44602 0.72418 0.0
H573 H 0.37999 0.31594 0.7454 0.0
H574 H 0.39049 0.39938 0.83554 0.0
H575 H 0.34143 0.35336 0.65778 0.0
C576 C 0.33905 0.38853 0.63884 0.0
C577 C 0.34708 0.41498 0.65653 0.0
C578 C 0.38808 0.38103 0.81581 0.0
C579 C 0.36422 0.3853 0.72399 0.0
C580 C 0.39906 0.36777 0.84659 0.0
C581 C 0.3967 0.34424 0.82156 0.0
C582 C 0.37456 0.37067 0.75966 0.0
C583 C 0.38242 0.33412 0.76618 0.0
C584 C 0.34766 0.37367 0.6723 0.0
C585 C 0.36353 0.42577 0.70858 0.0
N586 N 0.37196 0.34745 0.73693 0.0
N587 N 0.37153 0.4109 0.74043 0.0
loop_
_geom_bond_atom_site_label_1
_geom_bond_atom_site_label_2
_geom_bond_distance
_geom_bond_site_symmetry_2
_ccdc_geom_bond_type
C0 O1 1.160 . S
C0 O7 1.185 1_556 S
O1 C0 1.160 . S
O2 Zn3 1.899 1_556 S
O2 C10 1.284 . S
Zn3 O2 1.899 1_554 S
Zn3 O4 2.032 . S
Zn3 O7 2.086 . S
Zn3 O12 1.977 . S
O4 Zn3 2.032 . S
O4 C8 1.278 . S
C5 O6 1.203 . S
C5 O12 1.267 . S
O6 C5 1.203 . S
O7 C0 1.185 1_554 S
O7 Zn3 2.086 . S
C8 O4 1.278 . S
C8 O9 1.211 . S
O9 C8 1.211 . S
C10 O2 1.284 . S
C10 O11 1.273 . S
O11 C10 1.273 . S
O12 Zn3 1.977 . S
O12 C5 1.267 . S
C13 O14 1.160 . S
C13 O20 1.185 . S
O14 C13 1.160 . S
O15 Zn16 1.899 . S
O15 C23 1.284 . S
Zn16 O15 1.899 . S
Zn16 O17 2.032 . S
Zn16 O20 2.086 . S
Zn16 O25 1.977 . S
O17 Zn16 2.032 . S
O17 C21 1.278 . S
C18 O19 1.203 . S
C18 O25 1.267 . S
O19 C18 1.203 . S
O20 C13 1.185 . S
O20 Zn16 2.086 . S
C21 O17 1.278 . S
C21 O22 1.211 . S
O22 C21 1.211 . S
C23 O15 1.284 . S
C23 O24 1.273 . S
O24 C23 1.273 . S
O25 Zn16 1.977 . S
O25 C18 1.267 . S
C26 O27 1.160 . S
C26 O33 1.185 . S
O27 C26 1.160 . S
O28 Zn29 1.899 . S
O28 C36 1.284 . S
Zn29 O28 1.899 . S
Zn29 O30 2.032 . S
Zn29 O33 2.086 . S
Zn29 O38 1.977 . S
O30 Zn29 2.032 . S
O30 C34 1.278 . S
C31 O32 1.203 . S
C31 O38 1.267 . S
O32 C31 1.203 . S
O33 C26 1.185 . S
O33 Zn29 2.086 . S
C34 O30 1.278 . S
C34 O35 1.211 . S
O35 C34 1.211 . S
C36 O28 1.284 . S
C36 O37 1.273 . S
O37 C36 1.273 . S
O38 Zn29 1.977 . S
O38 C31 1.267 . S
C39 O40 1.160 . S
C39 O46 1.185 . S
O40 C39 1.160 . S
O41 Zn42 1.899 . S
O41 C49 1.284 . S
Zn42 O41 1.899 . S
Zn42 O43 2.032 . S
Zn42 O46 2.086 . S
Zn42 O51 1.977 . S
O43 Zn42 2.032 . S
O43 C47 1.278 . S
C44 O45 1.203 . S
C44 O51 1.267 . S
O45 C44 1.203 . S
O46 C39 1.185 . S
O46 Zn42 2.086 . S
C47 O43 1.278 . S
C47 O48 1.211 . S
O48 C47 1.211 . S
C49 O41 1.284 . S
C49 O50 1.273 . S
O50 C49 1.273 . S
O51 Zn42 1.977 . S
O51 C44 1.267 . S
C52 O53 1.160 . S
C52 O59 1.185 . S
O53 C52 1.160 . S
O54 Zn55 1.899 . S
O54 C62 1.284 . S
Zn55 O54 1.899 . S
Zn55 O56 2.032 . S
Zn55 O59 2.086 . S
Zn55 O64 1.977 . S
O56 Zn55 2.032 . S
O56 C60 1.278 . S
C57 O58 1.203 . S
C57 O64 1.267 . S
O58 C57 1.203 . S
O59 C52 1.185 . S
O59 Zn55 2.086 . S
C60 O56 1.278 . S
C60 O61 1.211 . S
O61 C60 1.211 . S
C62 O54 1.284 . S
C62 O63 1.273 . S
O63 C62 1.273 . S
O64 Zn55 1.977 . S
O64 C57 1.267 . S
C65 O66 1.160 . S
C65 O72 1.185 . S
O66 C65 1.160 . S
O67 Zn68 1.899 . S
O67 C75 1.284 . S
Zn68 O67 1.899 . S
Zn68 O69 2.032 . S
Zn68 O72 2.086 . S
Zn68 O77 1.977 . S
O69 Zn68 2.032 . S
O69 C73 1.278 . S
C70 O71 1.203 . S
C70 O77 1.267 . S
O71 C70 1.203 . S
O72 C65 1.185 . S
O72 Zn68 2.086 . S
C73 O69 1.278 . S
C73 O74 1.211 . S
O74 C73 1.211 . S
C75 O67 1.284 . S
C75 O76 1.273 . S
O76 C75 1.273 . S
O77 Zn68 1.977 . S
O77 C70 1.267 . S
C78 O79 1.160 . S
C78 O85 1.185 . S
O79 C78 1.160 . S
O80 Zn81 1.899 . S
O80 C88 1.284 . S
Zn81 O80 1.899 . S
Zn81 O82 2.032 . S
Zn81 O85 2.086 . S
Zn81 O90 1.977 . S
O82 Zn81 2.032 . S
O82 C86 1.278 . S
C83 O84 1.203 . S
C83 O90 1.267 . S
O84 C83 1.203 . S
O85 C78 1.185 . S
O85 Zn81 2.086 . S
C86 O82 1.278 . S
C86 O87 1.211 1_556 S
O87 C86 1.211 1_554 S
C88 O80 1.284 . S
C88 O89 1.273 . S
O89 C88 1.273 . S
O90 Zn81 1.977 . S
O90 C83 1.267 . S
C91 O92 1.160 . S
C91 O98 1.185 . S
O92 C91 1.160 . S
O93 Zn94 1.899 . S
O93 C101 1.284 . S
Zn94 O93 1.899 . S
Zn94 O95 2.032 . S
Zn94 O98 2.086 . S
Zn94 O103 1.977 1_554 S
O95 Zn94 2.032 . S
O95 C99 1.278 . S
C96 O97 1.203 . S
C96 O103 1.267 . S
O97 C96 1.203 . S
O98 C91 1.185 . S
O98 Zn94 2.086 . S
C99 O95 1.278 . S
C99 O100 1.211 1_554 S
O100 C99 1.211 1_556 S
C101 O93 1.284 . S
C101 O102 1.273 . S
O102 C101 1.273 . S
O103 Zn94 1.977 1_556 S
O103 C96 1.267 . S
C104 O105 1.160 . S
C104 O111 1.185 . S
O105 C104 1.160 . S
O106 Zn107 1.899 . S
O106 C114 1.284 . S
Zn107 O106 1.899 . S
Zn107 O108 2.032 . S
Zn107 O111 2.086 . S
Zn107 O116 1.977 . S
O108 Zn107 2.032 . S
O108 C112 1.278 . S
C109 O110 1.203 . S
C109 O116 1.267 . S
O110 C109 1.203 . S
O111 C104 1.185 . S
O111 Zn107 2.086 . S
C112 O108 1.278 . S
C112 O113 1.211 . S
O113 C112 1.211 . S
C114 O106 1.284 . S
C114 O115 1.273 . S
O115 C114 1.273 . S
O116 Zn107 1.977 . S
O116 C109 1.267 . S
C117 O118 1.160 . S
C117 O124 1.185 . S
O118 C117 1.160 . S
O119 Zn120 1.899 . S
O119 C127 1.284 . S
Zn120 O119 1.899 . S
Zn120 O121 2.032 . S
Zn120 O124 2.086 . S
Zn120 O129 1.977 . S
O121 Zn120 2.032 . S
O121 C125 1.278 . S
C122 O123 1.203 . S
C122 O129 1.267 . S
O123 C122 1.203 . S
O124 C117 1.185 . S
O124 Zn120 2.086 . S
C125 O121 1.278 . S
C125 O126 1.211 . S
O126 C125 1.211 . S
C127 O119 1.284 . S
C127 O128 1.273 . S
O128 C127 1.273 . S
O129 Zn120 1.977 . S
O129 C122 1.267 . S
C130 O131 1.160 . S
C130 O137 1.185 . S
O131 C130 1.160 . S
O132 Zn133 1.899 . S
O132 C140 1.284 . S
Zn133 O132 1.899 . S
Zn133 O134 2.032 . S
Zn133 O137 2.086 . S
Zn133 O142 1.977 . S
O134 Zn133 2.032 . S
O134 C138 1.278 . S
C135 O136 1.203 . S
C135 O142 1.267 . S
O136 C135 1.203 . S
O137 C130 1.185 . S
O137 Zn133 2.086 . S
C138 O134 1.278 . S
C138 O139 1.211 . S
O139 C138 1.211 . S
C140 O132 1.284 . S
C140 O141 1.273 . S
O141 C140 1.273 . S
O142 Zn133 1.977 . S
O142 C135 1.267 . S
C143 O144 1.160 . S
C143 O150 1.185 . S
O144 C143 1.160 . S
O145 Zn146 1.899 . S
O145 C153 1.284 . S
Zn146 O145 1.899 . S
Zn146 O147 2.032 . S
Zn146 O150 2.086 . S
Zn146 O155 1.977 . S
O147 Zn146 2.032 . S
O147 C151 1.278 . S
C148 O149 1.203 . S
C148 O155 1.267 . S
O149 C148 1.203 . S
O150 C143 1.185 . S
O150 Zn146 2.086 . S
C151 O147 1.278 . S
C151 O152 1.211 . S
O152 C151 1.211 . S
C153 O145 1.284 . S
C153 O154 1.273 . S
O154 C153 1.273 . S
O155 Zn146 1.977 . S
O155 C148 1.267 . S
H156 C162 0.930 . S
H157 C166 0.930 . S
H158 C171 0.929 . S
H159 C169 0.929 . S
H160 C164 0.929 . S
H161 C170 0.929 . S
C162 H156 0.930 . S
C162 C163 1.367 . S
C162 C170 1.378 . S
C163 C162 1.367 . S
C163 C171 1.433 . S
C164 H160 0.929 . S
C164 C166 1.378 . S
C164 C168 1.350 . S
C165 C168 1.463 . S
C165 C170 1.350 . S
C165 N173 1.427 . S
C166 H157 0.930 . S
C166 C164 1.378 . S
C166 C167 1.367 . S
C167 C166 1.367 . S
C167 C169 1.433 . S
C168 C164 1.350 . S
C168 C165 1.463 . S
C168 N172 1.427 . S
C169 H159 0.929 . S
C169 C167 1.433 . S
C169 N172 1.384 . S
C170 H161 0.929 . S
C170 C162 1.378 . S
C170 C165 1.350 . S
C171 H158 0.929 . S
C171 C163 1.433 . S
C171 N173 1.384 . S
N172 C168 1.427 . S
N172 C169 1.384 . S
N173 C165 1.427 . S
N173 C171 1.384 . S
H174 C180 0.930 . S
H175 C184 0.930 . S
H176 C189 0.929 . S
H177 C187 0.929 . S
H178 C182 0.929 . S
H179 C188 0.929 . S
C180 H174 0.930 . S
C180 C181 1.367 . S
C180 C188 1.378 . S
C181 C180 1.367 . S
C181 C189 1.433 . S
C182 H178 0.929 . S
C182 C184 1.378 . S
C182 C186 1.350 . S
C183 C186 1.463 . S
C183 C188 1.350 . S
C183 N191 1.427 . S
C184 H175 0.930 . S
C184 C182 1.378 . S
C184 C185 1.367 . S
C185 C184 1.367 . S
C185 C187 1.433 . S
C186 C182 1.350 . S
C186 C183 1.463 . S
C186 N190 1.427 . S
C187 H177 0.929 . S
C187 C185 1.433 . S
C187 N190 1.384 . S
C188 H179 0.929 . S
C188 C180 1.378 . S
C188 C183 1.350 . S
C189 H176 0.929 . S
C189 C181 1.433 . S
C189 N191 1.384 . S
N190 C186 1.427 . S
N190 C187 1.384 . S
N191 C183 1.427 . S
N191 C189 1.384 . S
H192 C198 0.930 . S
H193 C202 0.930 . S
H194 C207 0.929 . S
H195 C205 0.929 . S
H196 C200 0.929 . S
H197 C206 0.929 . S
C198 H192 0.930 . S
C198 C199 1.367 . S
C198 C206 1.378 . S
C199 C198 1.367 . S
C199 C207 1.433 . S
C200 H196 0.929 . S
C200 C202 1.378 . S
C200 C204 1.350 . S
C201 C204 1.463 . S
C201 C206 1.350 . S
C201 N209 1.427 . S
C202 H193 0.930 . S
C202 C200 1.378 . S
C202 C203 1.367 . S
C203 C202 1.367 . S
C203 C205 1.433 . S
C204 C200 1.350 . S
C204 C201 1.463 . S
C204 N208 1.427 . S
C205 H195 0.929 . S
C205 C203 1.433 . S
C205 N208 1.384 . S
C206 H197 0.929 . S
C206 C198 1.378 . S
C206 C201 1.350 . S
C207 H194 0.929 . S
C207 C199 1.433 . S
C207 N209 1.384 . S
N208 C204 1.427 . S
N208 C205 1.384 . S
N209 C201 1.427 . S
N209 C207 1.384 . S
H210 C216 0.930 . S
H211 C220 0.930 . S
H212 C225 0.929 . S
H213 C223 0.929 . S
H214 C218 0.929 . S
H215 C224 0.929 . S
C216 H210 0.930 . S
C216 C217 1.367 . S
C216 C224 1.378 . S
C217 C216 1.367 . S
C217 C225 1.433 . S
C218 H214 0.929 . S
C218 C220 1.378 . S
C218 C222 1.350 . S
C219 C222 1.463 . S
C219 C224 1.350 . S
C219 N227 1.427 . S
C220 H211 0.930 . S
C220 C218 1.378 . S
C220 C221 1.367 . S
C221 C220 1.367 . S
C221 C223 1.433 . S
C222 C218 1.350 . S
C222 C219 1.463 . S
C222 N226 1.427 . S
C223 H213 0.929 . S
C223 C221 1.433 . S
C223 N226 1.384 . S
C224 H215 0.929 . S
C224 C216 1.378 . S
C224 C219 1.350 . S
C225 H212 0.929 . S
C225 C217 1.433 . S
C225 N227 1.384 . S
N226 C222 1.427 . S
N226 C223 1.384 . S
N227 C219 1.427 . S
N227 C225 1.384 . S
H228 C234 0.930 . S
H229 C238 0.930 . S
H230 C243 0.929 . S
H231 C241 0.929 . S
H232 C236 0.929 . S
H233 C242 0.929 . S
C234 H228 0.930 . S
C234 C235 1.367 . S
C234 C242 1.378 . S
C235 C234 1.367 . S
C235 C243 1.433 . S
C236 H232 0.929 . S
C236 C238 1.378 . S
C236 C240 1.346 1_554 S
C237 C240 1.465 . S
C237 C242 1.350 . S
C237 N245 1.427 . S
C238 H229 0.930 . S
C238 C236 1.378 . S
C238 C239 1.367 . S
C239 C238 1.367 . S
C239 C241 1.433 . S
C240 C236 1.346 1_556 S
C240 C237 1.465 . S
C240 N244 1.429 . S
C241 H231 0.929 . S
C241 C239 1.433 . S
C241 N244 1.384 1_554 S
C242 H233 0.929 . S
C242 C234 1.378 . S
C242 C237 1.350 . S
C243 H230 0.929 . S
C243 C235 1.433 . S
C243 N245 1.384 . S
N244 C240 1.429 . S
N244 C241 1.384 1_556 S
N245 C237 1.427 . S
N245 C243 1.384 . S
H246 C252 0.930 . S
H247 C256 0.930 . S
H248 C261 0.929 . S
H249 C259 0.929 . S
H250 C254 0.929 . S
H251 C260 0.929 . S
C252 H246 0.930 . S
C252 C253 1.367 . S
C252 C260 1.378 . S
C253 C252 1.367 . S
C253 C261 1.433 . S
C254 H250 0.929 . S
C254 C256 1.378 1_554 S
C254 C258 1.350 . S
C255 C258 1.463 . S
C255 C260 1.350 . S
C255 N263 1.427 . S
C256 H247 0.930 . S
C256 C254 1.378 1_556 S
C256 C257 1.364 1_556 S
C257 C256 1.364 1_554 S
C257 C259 1.441 . S
C258 C254 1.350 . S
C258 C255 1.463 . S
C258 N262 1.427 . S
C259 H249 0.929 . S
C259 C257 1.441 . S
C259 N262 1.384 . S
C260 H251 0.929 . S
C260 C252 1.378 . S
C260 C255 1.350 . S
C261 H248 0.929 . S
C261 C253 1.433 . S
C261 N263 1.384 . S
N262 C258 1.427 . S
N262 C259 1.384 . S
N263 C255 1.427 . S
N263 C261 1.384 . S
H264 C270 0.930 . S
H265 C274 0.930 . S
H266 C279 0.929 . S
H267 C277 0.929 . S
H268 C272 0.929 . S
H269 C278 0.929 . S
C270 H264 0.930 . S
C270 C271 1.367 . S
C270 C278 1.378 . S
C271 C270 1.367 . S
C271 C279 1.433 . S
C272 H268 0.929 . S
C272 C274 1.378 . S
C272 C276 1.350 . S
C273 C276 1.463 . S
C273 C278 1.350 . S
C273 N281 1.427 . S
C274 H265 0.930 . S
C274 C272 1.378 . S
C274 C275 1.367 . S
C275 C274 1.367 . S
C275 C277 1.433 . S
C276 C272 1.350 . S
C276 C273 1.463 . S
C276 N280 1.427 . S
C277 H267 0.929 . S
C277 C275 1.433 . S
C277 N280 1.384 . S
C278 H269 0.929 . S
C278 C270 1.378 . S
C278 C273 1.350 . S
C279 H266 0.929 . S
C279 C271 1.433 . S
C279 N281 1.384 . S
N280 C276 1.427 . S
N280 C277 1.384 . S
N281 C273 1.427 . S
N281 C279 1.384 . S
H282 C288 0.930 . S
H283 C292 0.930 . S
H284 C297 0.929 . S
H285 C295 0.929 . S
H286 C290 0.929 . S
H287 C296 0.929 . S
C288 H282 0.930 . S
C288 C289 1.367 . S
C288 C296 1.378 . S
C289 C288 1.367 . S
C289 C297 1.433 . S
C290 H286 0.929 . S
C290 C292 1.378 . S
C290 C294 1.350 . S
C291 C294 1.463 . S
C291 C296 1.350 . S
C291 N299 1.427 . S
C292 H283 0.930 . S
C292 C290 1.378 . S
C292 C293 1.367 . S
C293 C292 1.367 . S
C293 C295 1.433 . S
C294 C290 1.350 . S
C294 C291 1.463 . S
C294 N298 1.427 . S
C295 H285 0.929 . S
C295 C293 1.433 . S
C295 N298 1.384 . S
C296 H287 0.929 . S
C296 C288 1.378 . S
C296 C291 1.350 . S
C297 H284 0.929 . S
C297 C289 1.433 . S
C297 N299 1.384 . S
N298 C294 1.427 . S
N298 C295 1.384 . S
N299 C291 1.427 . S
N299 C297 1.384 . S
H300 C306 0.930 . S
H301 C310 0.930 . S
H302 C315 0.929 . S
H303 C313 0.929 . S
H304 C308 0.929 . S
H305 C314 0.929 . S
C306 H300 0.930 . S
C306 C307 1.367 . S
C306 C314 1.378 . S
C307 C306 1.367 . S
C307 C315 1.433 . S
C308 H304 0.929 . S
C308 C310 1.378 . S
C308 C312 1.350 . S
C309 C312 1.463 . S
C309 C314 1.350 . S
C309 N317 1.427 . S
C310 H301 0.930 . S
C310 C308 1.378 . S
C310 C311 1.367 . S
C311 C310 1.367 . S
C311 C313 1.433 . S
C312 C308 1.350 . S
C312 C309 1.463 . S
C312 N316 1.427 . S
C313 H303 0.929 . S
C313 C311 1.433 . S
C313 N316 1.384 . S
C314 H305 0.929 . S
C314 C306 1.378 . S
C314 C309 1.350 . S
C315 H302 0.929 . S
C315 C307 1.433 . S
C315 N317 1.384 . S
N316 C312 1.427 . S
N316 C313 1.384 . S
N317 C309 1.427 . S
N317 C315 1.384 . S
H318 C324 0.930 . S
H319 C328 0.930 . S
H320 C333 0.929 . S
H321 C331 0.929 . S
H322 C326 0.929 . S
H323 C332 0.929 . S
C324 H318 0.930 . S
C324 C325 1.367 . S
C324 C332 1.378 . S
C325 C324 1.367 . S
C325 C333 1.433 . S
C326 H322 0.929 . S
C326 C328 1.378 . S
C326 C330 1.350 . S
C327 C330 1.463 . S
C327 C332 1.350 . S
C327 N335 1.427 . S
C328 H319 0.930 . S
C328 C326 1.378 . S
C328 C329 1.367 . S
C329 C328 1.367 . S
C329 C331 1.433 . S
C330 C326 1.350 . S
C330 C327 1.463 . S
C330 N334 1.427 . S
C331 H321 0.929 . S
C331 C329 1.433 . S
C331 N334 1.384 . S
C332 H323 0.929 . S
C332 C324 1.378 . S
C332 C327 1.350 . S
C333 H320 0.929 . S
C333 C325 1.433 . S
C333 N335 1.384 . S
N334 C330 1.427 . S
N334 C331 1.384 . S
N335 C327 1.427 . S
N335 C333 1.384 . S
H336 C342 0.930 . S
H337 C346 0.930 . S
H338 C351 0.929 . S
H339 C349 0.929 . S
H340 C344 0.929 . S
H341 C350 0.929 . S
C342 H336 0.930 . S
C342 C343 1.367 . S
C342 C350 1.378 . S
C343 C342 1.367 . S
C343 C351 1.433 . S
C344 H340 0.929 . S
C344 C346 1.378 . S
C344 C348 1.350 . S
C345 C348 1.463 . S
C345 C350 1.350 . S
C345 N353 1.427 . S
C346 H337 0.930 . S
C346 C344 1.378 . S
C346 C347 1.367 . S
C347 C346 1.367 . S
C347 C349 1.433 . S
C348 C344 1.350 . S
C348 C345 1.463 . S
C348 N352 1.427 . S
C349 H339 0.929 . S
C349 C347 1.433 . S
C349 N352 1.384 . S
C350 H341 0.929 . S
C350 C342 1.378 . S
C350 C345 1.350 . S
C351 H338 0.929 . S
C351 C343 1.433 . S
C351 N353 1.384 . S
N352 C348 1.427 . S
N352 C349 1.384 . S
N353 C345 1.427 . S
N353 C351 1.384 . S
H354 C360 0.930 . S
H355 C364 0.930 . S
H356 C369 0.929 . S
H357 C367 0.929 . S
H358 C362 0.928 1_554 S
H359 C368 0.929 . S
C360 H354 0.930 . S
C360 C361 1.367 . S
C360 C368 1.378 . S
C361 C360 1.367 . S
C361 C369 1.433 . S
C362 H358 0.928 1_556 S
C362 C364 1.378 1_556 S
C362 C366 1.350 . S
C363 C366 1.463 . S
C363 C368 1.350 . S
C363 N371 1.427 . S
C364 H355 0.930 . S
C364 C362 1.378 1_554 S
C364 C365 1.367 . S
C365 C364 1.367 . S
C365 C367 1.433 1_554 S
C366 C362 1.350 . S
C366 C363 1.463 . S
C366 N370 1.427 . S
C367 H357 0.929 . S
C367 C365 1.433 1_556 S
C367 N370 1.384 . S
C368 H359 0.929 . S
C368 C360 1.378 . S
C368 C363 1.350 . S
C369 H356 0.929 . S
C369 C361 1.433 . S
C369 N371 1.384 . S
N370 C366 1.427 . S
N370 C367 1.384 . S
N371 C363 1.427 . S
N371 C369 1.384 . S
H372 C378 0.930 . S
H373 C382 0.930 . S
H374 C387 0.929 . S
H375 C385 0.929 . S
H376 C380 0.929 . S
H377 C386 0.929 . S
C378 H372 0.930 . S
C378 C379 1.367 . S
C378 C386 1.378 . S
C379 C378 1.367 . S
C379 C387 1.433 . S
C380 H376 0.929 . S
C380 C382 1.378 . S
C380 C384 1.350 . S
C381 C384 1.463 . S
C381 C386 1.350 . S
C381 N389 1.427 . S
C382 H373 0.930 . S
C382 C380 1.378 . S
C382 C383 1.367 . S
C383 C382 1.367 . S
C383 C385 1.433 . S
C384 C380 1.350 . S
C384 C381 1.463 . S
C384 N388 1.427 . S
C385 H375 0.929 . S
C385 C383 1.433 . S
C385 N388 1.384 . S
C386 H377 0.929 . S
C386 C378 1.378 . S
C386 C381 1.350 . S
C387 H374 0.929 . S
C387 C379 1.433 . S
C387 N389 1.384 . S
N388 C384 1.427 . S
N388 C385 1.384 . S
N389 C381 1.427 . S
N389 C387 1.384 . S
H390 C396 0.930 . S
H391 C400 0.930 . S
H392 C405 0.929 . S
H393 C403 0.929 . S
H394 C398 0.929 . S
H395 C404 0.929 . S
C396 H390 0.930 . S
C396 C397 1.367 . S
C396 C404 1.378 . S
C397 C396 1.367 . S
C397 C405 1.433 . S
C398 H394 0.929 . S
C398 C400 1.378 . S
C398 C402 1.350 . S
C399 C402 1.463 . S
C399 C404 1.350 1_556 S
C399 N407 1.427 . S
C400 H391 0.930 . S
C400 C398 1.378 . S
C400 C401 1.367 . S
C401 C400 1.367 . S
C401 C403 1.433 . S
C402 C398 1.350 . S
C402 C399 1.463 . S
C402 N406 1.427 . S
C403 H393 0.929 . S
C403 C401 1.433 . S
C403 N406 1.384 . S
C404 H395 0.929 . S
C404 C396 1.378 . S
C404 C399 1.350 1_554 S
C405 H392 0.929 . S
C405 C397 1.433 . S
C405 N407 1.384 1_554 S
N406 C402 1.427 . S
N406 C403 1.384 . S
N407 C399 1.427 . S
N407 C405 1.384 1_556 S
H408 C414 0.930 . S
H409 C418 0.930 1_556 S
H410 C423 0.929 . S
H411 C421 0.929 . S
H412 C416 0.929 . S
H413 C422 0.929 . S
C414 H408 0.930 . S
C414 C415 1.367 . S
C414 C422 1.378 . S
C415 C414 1.367 . S
C415 C423 1.433 . S
C416 H412 0.929 . S
C416 C418 1.378 . S
C416 C420 1.350 . S
C417 C420 1.463 . S
C417 C422 1.350 . S
C417 N425 1.427 . S
C418 H409 0.930 1_554 S
C418 C416 1.378 . S
C418 C419 1.367 . S
C419 C418 1.367 . S
C419 C421 1.435 . S
C420 C416 1.350 . S
C420 C417 1.463 . S
C420 N424 1.427 . S
C421 H411 0.929 . S
C421 C419 1.435 . S
C421 N424 1.384 . S
C422 H413 0.929 . S
C422 C414 1.378 . S
C422 C417 1.350 . S
C423 H410 0.929 . S
C423 C415 1.433 . S
C423 N425 1.384 . S
N424 C420 1.427 . S
N424 C421 1.384 . S
N425 C417 1.427 . S
N425 C423 1.384 . S
H426 C432 0.930 . S
H427 C436 0.930 . S
H428 C441 0.929 . S
H429 C439 0.929 . S
H430 C434 0.929 . S
H431 C440 0.929 . S
C432 H426 0.930 . S
C432 C433 1.367 . S
C432 C440 1.378 . S
C433 C432 1.367 . S
C433 C441 1.433 . S
C434 H430 0.929 . S
C434 C436 1.378 . S
C434 C438 1.350 . S
C435 C438 1.463 . S
C435 C440 1.350 . S
C435 N443 1.427 . S
C436 H427 0.930 . S
C436 C434 1.378 . S
C436 C437 1.367 . S
C437 C436 1.367 . S
C437 C439 1.433 . S
C438 C434 1.350 . S
C438 C435 1.463 . S
C438 N442 1.427 . S
C439 H429 0.929 . S
C439 C437 1.433 . S
C439 N442 1.384 . S
C440 H431 0.929 . S
C440 C432 1.378 . S
C440 C435 1.350 . S
C441 H428 0.929 . S
C441 C433 1.433 . S
C441 N443 1.384 . S
N442 C438 1.427 . S
N442 C439 1.384 . S
N443 C435 1.427 . S
N443 C441 1.384 . S
H444 C450 0.930 . S
H445 C454 0.930 . S
H446 C459 0.929 . S
H447 C457 0.929 . S
H448 C452 0.929 . S
H449 C458 0.929 . S
C450 H444 0.930 . S
C450 C451 1.367 . S
C450 C458 1.378 . S
C451 C450 1.367 . S
C451 C459 1.433 . S
C452 H448 0.929 . S
C452 C454 1.378 . S
C452 C456 1.350 . S
C453 C456 1.463 . S
C453 C458 1.350 . S
C453 N461 1.427 . S
C454 H445 0.930 . S
C454 C452 1.378 . S
C454 C455 1.367 . S
C455 C454 1.367 . S
C455 C457 1.433 . S
C456 C452 1.350 . S
C456 C453 1.463 . S
C456 N460 1.427 . S
C457 H447 0.929 . S
C457 C455 1.433 . S
C457 N460 1.384 . S
C458 H449 0.929 . S
C458 C450 1.378 . S
C458 C453 1.350 . S
C459 H446 0.929 . S
C459 C451 1.433 . S
C459 N461 1.384 . S
N460 C456 1.427 . S
N460 C457 1.384 . S
N461 C453 1.427 . S
N461 C459 1.384 . S
H462 C468 0.930 . S
H463 C472 0.930 . S
H464 C477 0.929 . S
H465 C475 0.929 . S
H466 C470 0.929 . S
H467 C476 0.929 . S
C468 H462 0.930 . S
C468 C469 1.367 . S
C468 C476 1.378 . S
C469 C468 1.367 . S
C469 C477 1.433 . S
C470 H466 0.929 . S
C470 C472 1.378 . S
C470 C474 1.350 . S
C471 C474 1.463 . S
C471 C476 1.350 . S
C471 N479 1.427 . S
C472 H463 0.930 . S
C472 C470 1.378 . S
C472 C473 1.367 . S
C473 C472 1.367 . S
C473 C475 1.433 . S
C474 C470 1.350 . S
C474 C471 1.463 . S
C474 N478 1.427 . S
C475 H465 0.929 . S
C475 C473 1.433 . S
C475 N478 1.384 . S
C476 H467 0.929 . S
C476 C468 1.378 . S
C476 C471 1.350 . S
C477 H464 0.929 . S
C477 C469 1.433 . S
C477 N479 1.384 . S
N478 C474 1.427 . S
N478 C475 1.384 . S
N479 C471 1.427 . S
N479 C477 1.384 . S
H480 C486 0.930 . S
H481 C490 0.930 . S
H482 C495 0.929 . S
H483 C493 0.929 . S
H484 C488 0.929 . S
H485 C494 0.929 . S
C486 H480 0.930 . S
C486 C487 1.367 . S
C486 C494 1.378 . S
C487 C486 1.367 . S
C487 C495 1.433 1_556 S
C488 H484 0.929 . S
C488 C490 1.378 . S
C488 C492 1.350 . S
C489 C492 1.463 1_455 S
C489 C494 1.350 . S
C489 N497 1.427 . S
C490 H481 0.930 . S
C490 C488 1.378 . S
C490 C491 1.367 . S
C491 C490 1.367 . S
C491 C493 1.433 . S
C492 C488 1.350 . S
C492 C489 1.463 1_655 S
C492 N496 1.427 . S
C493 H483 0.929 . S
C493 C491 1.433 . S
C493 N496 1.384 . S
C494 H485 0.929 . S
C494 C486 1.378 . S
C494 C489 1.350 . S
C495 H482 0.929 . S
C495 C487 1.433 1_554 S
C495 N497 1.384 1_554 S
N496 C492 1.427 . S
N496 C493 1.384 . S
N497 C489 1.427 . S
N497 C495 1.384 1_556 S
H498 C504 0.930 . S
H499 C508 0.930 . S
H500 C513 0.929 . S
H501 C511 0.929 . S
H502 C506 0.929 1_565 S
H503 C512 0.929 1_545 S
C504 H498 0.930 . S
C504 C505 1.367 . S
C504 C512 1.378 . S
C505 C504 1.367 . S
C505 C513 1.433 1_556 S
C506 H502 0.929 1_545 S
C506 C508 1.378 . S
C506 C510 1.350 . S
C507 C510 1.463 1_565 S
C507 C512 1.350 1_554 S
C507 N515 1.427 . S
C508 H499 0.930 . S
C508 C506 1.378 . S
C508 C509 1.367 . S
C509 C508 1.367 . S
C509 C511 1.433 . S
C510 C506 1.350 . S
C510 C507 1.463 1_545 S
C510 N514 1.427 . S
C511 H501 0.929 . S
C511 C509 1.433 . S
C511 N514 1.384 . S
C512 H503 0.929 1_565 S
C512 C504 1.378 . S
C512 C507 1.350 1_556 S
C513 H500 0.929 . S
C513 C505 1.433 1_554 S
C513 N515 1.384 . S
N514 C510 1.427 . S
N514 C511 1.384 . S
N515 C507 1.427 . S
N515 C513 1.384 . S
H516 C522 0.930 . S
H517 C526 0.930 . S
H518 C531 0.929 . S
H519 C529 0.929 . S
H520 C524 0.929 . S
H521 C530 0.929 . S
C522 H516 0.930 . S
C522 C523 1.367 . S
C522 C530 1.378 . S
C523 C522 1.367 . S
C523 C531 1.433 . S
C524 H520 0.929 . S
C524 C526 1.378 . S
C524 C528 1.350 . S
C525 C528 1.463 . S
C525 C530 1.350 . S
C525 N533 1.427 . S
C526 H517 0.930 . S
C526 C524 1.378 . S
C526 C527 1.367 . S
C527 C526 1.367 . S
C527 C529 1.433 . S
C528 C524 1.350 . S
C528 C525 1.463 . S
C528 N532 1.427 . S
C529 H519 0.929 . S
C529 C527 1.433 . S
C529 N532 1.384 . S
C530 H521 0.929 . S
C530 C522 1.378 . S
C530 C525 1.350 . S
C531 H518 0.929 . S
C531 C523 1.433 . S
C531 N533 1.384 . S
N532 C528 1.427 . S
N532 C529 1.384 . S
N533 C525 1.427 . S
N533 C531 1.384 . S
H534 C540 0.930 . S
H535 C544 0.930 . S
H536 C549 0.929 . S
H537 C547 0.929 . S
H538 C542 0.929 . S
H539 C548 0.929 . S
C540 H534 0.930 . S
C540 C541 1.367 . S
C540 C548 1.378 . S
C541 C540 1.367 . S
C541 C549 1.433 . S
C542 H538 0.929 . S
C542 C544 1.378 . S
C542 C546 1.350 . S
C543 C546 1.463 1_455 S
C543 C548 1.350 . S
C543 N551 1.427 . S
C544 H535 0.930 . S
C544 C542 1.378 . S
C544 C545 1.367 . S
C545 C544 1.367 . S
C545 C547 1.433 . S
C546 C542 1.350 . S
C546 C543 1.463 1_655 S
C546 N550 1.427 . S
C547 H537 0.929 . S
C547 C545 1.433 . S
C547 N550 1.384 . S
C548 H539 0.929 . S
C548 C540 1.378 . S
C548 C543 1.350 . S
C549 H536 0.929 . S
C549 C541 1.433 . S
C549 N551 1.384 . S
N550 C546 1.427 . S
N550 C547 1.384 . S
N551 C543 1.427 . S
N551 C549 1.384 . S
H552 C558 0.930 . S
H553 C562 0.930 . S
H554 C567 0.929 . S
H555 C565 0.929 . S
H556 C560 0.929 . S
H557 C566 0.929 . S
C558 H552 0.930 . S
C558 C559 1.367 . S
C558 C566 1.378 . S
C559 C558 1.367 . S
C559 C567 1.433 . S
C560 H556 0.929 . S
C560 C562 1.378 . S
C560 C564 1.350 . S
C561 C564 1.463 1_545 S
C561 C566 1.350 . S
C561 N569 1.427 . S
C562 H553 0.930 . S
C562 C560 1.378 . S
C562 C563 1.367 . S
C563 C562 1.367 . S
C563 C565 1.433 . S
C564 C560 1.350 . S
C564 C561 1.463 1_565 S
C564 N568 1.427 . S
C565 H555 0.929 . S
C565 C563 1.433 . S
C565 N568 1.384 . S
C566 H557 0.929 . S
C566 C558 1.378 . S
C566 C561 1.350 . S
C567 H554 0.929 . S
C567 C559 1.433 . S
C567 N569 1.384 . S
N568 C564 1.427 . S
N568 C565 1.384 . S
N569 C561 1.427 . S
N569 C567 1.384 . S
H570 C576 0.930 . S
H571 C580 0.930 . S
H572 C585 0.929 . S
H573 C583 0.929 . S
H574 C578 0.929 . S
H575 C584 0.929 . S
C576 H570 0.930 . S
C576 C577 1.367 . S
C576 C584 1.378 . S
C577 C576 1.367 . S
C577 C585 1.433 . S
C578 H574 0.929 . S
C578 C580 1.378 . S
C578 C582 1.350 . S
C579 C582 1.463 . S
C579 C584 1.350 . S
C579 N587 1.427 . S
C580 H571 0.930 . S
C580 C578 1.378 . S
C580 C581 1.367 . S
C581 C580 1.367 . S
C581 C583 1.433 . S
C582 C578 1.350 . S
C582 C579 1.463 . S
C582 N586 1.427 . S
C583 H573 0.929 . S
C583 C581 1.433 . S
C583 N586 1.384 . S
C584 H575 0.929 . S
C584 C576 1.378 . S
C584 C579 1.350 . S
C585 H572 0.929 . S
C585 C577 1.433 . S
C585 N587 1.384 . S
N586 C582 1.427 . S
N586 C583 1.384 . S
N587 C579 1.427 . S
N587 C585 1.384 . S
C163 C5 1.142 . S
C167 C135 1.154 . S
C181 C148 1.111 . S
C185 C13 1.136 . S
C199 C31 1.106 . S
C203 C78 1.124 . S
C217 C44 1.149 . S
C221 C96 1.162 . S
C235 C52 1.127 . S
C239 C109 1.104 . S
C253 C117 1.129 . S
C257 C70 1.096 1_554 S
C271 C8 1.530 . S
C275 C112 1.526 . S
C289 C23 1.562 . S
C293 C127 1.565 . S
C307 C138 1.532 . S
C311 C34 1.528 . S
C325 C47 1.535 . S
C329 C151 1.537 . S
C343 C62 1.565 . S
C347 C88 1.562 . S
C361 C73 1.533 . S
C365 C99 1.538 . S
C379 C140 1.119 . S
C383 C10 1.125 . S
C397 C21 1.094 . S
C401 C153 1.101 . S
C415 C36 1.097 . S
C419 C86 1.082 1_554 S
C433 C49 1.125 . S
C437 C101 1.119 . S
C451 C114 1.101 . S
C455 C60 1.082 . S
C469 C75 1.097 . S
C473 C125 1.081 . S
C487 C0 1.384 . S
C491 C143 1.385 . S
C505 C83 1.376 . S
C509 C18 1.383 . S
C523 C91 1.392 . S
C527 C26 1.393 . S
C541 C104 1.395 . S
C545 C39 1.394 . S
C559 C122 1.378 . S
C563 C57 1.364 . S
C577 C130 1.396 . S
C581 C65 1.396 . S
