# Generated by pormake.
# Topology mer, (4)-cn, num edge types: 1
# Building blocks:
#     Node 0, Type 0, BuildingBlock: GALJAG_clean_sbu_0, # of connection points: 4
#     Node 1, Type 0, BuildingBlock: GALJAG_clean_sbu_0, # of connection points: 4
#     Node 2, Type 0, BuildingBlock: GALJAG_clean_sbu_0, # of connection points: 4
#     Node 3, Type 0, BuildingBlock: GALJAG_clean_sbu_0, # of connection points: 4
#     Node 4, Type 0, BuildingBlock: GALJAG_clean_sbu_0, # of connection points: 4
#     Node 5, Type 0, BuildingBlock: GALJAG_clean_sbu_0, # of connection points: 4
#     Node 6, Type 0, BuildingBlock: GALJAG_clean_sbu_0, # of connection points: 4
#     Node 7, Type 0, BuildingBlock: GALJAG_clean_sbu_0, # of connection points: 4
#     Node 8, Type 0, BuildingBlock: GALJAG_clean_sbu_0, # of connection points: 4
#     Node 9, Type 0, BuildingBlock: GALJAG_clean_sbu_0, # of connection points: 4
#     Node 10, Type 0, BuildingBlock: GALJAG_clean_sbu_0, # of connection points: 4
#     Node 11, Type 0, BuildingBlock: GALJAG_clean_sbu_0, # of connection points: 4
#     Node 12, Type 0, BuildingBlock: GALJAG_clean_sbu_0, # of connection points: 4
#     Node 13, Type 0, BuildingBlock: GALJAG_clean_sbu_0, # of connection points: 4
#     Node 14, Type 0, BuildingBlock: GALJAG_clean_sbu_0, # of connection points: 4
#     Node 15, Type 0, BuildingBlock: GALJAG_clean_sbu_0, # of connection points: 4
#     Node 16, Type 0, BuildingBlock: GALJAG_clean_sbu_0, # of connection points: 4
#     Node 17, Type 0, BuildingBlock: GALJAG_clean_sbu_0, # of connection points: 4
#     Node 18, Type 0, BuildingBlock: GALJAG_clean_sbu_0, # of connection points: 4
#     Node 19, Type 0, BuildingBlock: GALJAG_clean_sbu_0, # of connection points: 4
#     Node 20, Type 0, BuildingBlock: GALJAG_clean_sbu_0, # of connection points: 4
#     Node 21, Type 0, BuildingBlock: GALJAG_clean_sbu_0, # of connection points: 4
#     Node 22, Type 0, BuildingBlock: GALJAG_clean_sbu_0, # of connection points: 4
#     Node 23, Type 0, BuildingBlock: GALJAG_clean_sbu_0, # of connection points: 4
#     Node 24, Type 0, BuildingBlock: GALJAG_clean_sbu_0, # of connection points: 4
#     Node 25, Type 0, BuildingBlock: GALJAG_clean_sbu_0, # of connection points: 4
#     Node 26, Type 0, BuildingBlock: GALJAG_clean_sbu_0, # of connection points: 4
#     Node 27, Type 0, BuildingBlock: GALJAG_clean_sbu_0, # of connection points: 4
#     Node 28, Type 0, BuildingBlock: GALJAG_clean_sbu_0, # of connection points: 4
#     Node 29, Type 0, BuildingBlock: GALJAG_clean_sbu_0, # of connection points: 4
#     Node 30, Type 0, BuildingBlock: GALJAG_clean_sbu_0, # of connection points: 4
#     Node 31, Type 0, BuildingBlock: GALJAG_clean_sbu_0, # of connection points: 4
#     Edge 32, Type (0, 0), BuildingBlock: TEMPAE_clean_linker_10, # of connection points: 2
#     Edge 33, Type (0, 0), BuildingBlock: TEMPAE_clean_linker_10, # of connection points: 2
#     Edge 34, Type (0, 0), BuildingBlock: TEMPAE_clean_linker_10, # of connection points: 2
#     Edge 35, Type (0, 0), BuildingBlock: TEMPAE_clean_linker_10, # of connection points: 2
#     Edge 36, Type (0, 0), BuildingBlock: TEMPAE_clean_linker_10, # of connection points: 2
#     Edge 37, Type (0, 0), BuildingBlock: TEMPAE_clean_linker_10, # of connection points: 2
#     Edge 38, Type (0, 0), BuildingBlock: TEMPAE_clean_linker_10, # of connection points: 2
#     Edge 39, Type (0, 0), BuildingBlock: TEMPAE_clean_linker_10, # of connection points: 2
#     Edge 40, Type (0, 0), BuildingBlock: TEMPAE_clean_linker_10, # of connection points: 2
#     Edge 41, Type (0, 0), BuildingBlock: TEMPAE_clean_linker_10, # of connection points: 2
#     Edge 42, Type (0, 0), BuildingBlock: TEMPAE_clean_linker_10, # of connection points: 2
#     Edge 43, Type (0, 0), BuildingBlock: TEMPAE_clean_linker_10, # of connection points: 2
#     Edge 44, Type (0, 0), BuildingBlock: TEMPAE_clean_linker_10, # of connection points: 2
#     Edge 45, Type (0, 0), BuildingBlock: TEMPAE_clean_linker_10, # of connection points: 2
#     Edge 46, Type (0, 0), BuildingBlock: TEMPAE_clean_linker_10, # of connection points: 2
#     Edge 47, Type (0, 0), BuildingBlock: TEMPAE_clean_linker_10, # of connection points: 2
#     Edge 48, Type (0, 0), BuildingBlock: TEMPAE_clean_linker_10, # of connection points: 2
#     Edge 49, Type (0, 0), BuildingBlock: TEMPAE_clean_linker_10, # of connection points: 2
#     Edge 50, Type (0, 0), BuildingBlock: TEMPAE_clean_linker_10, # of connection points: 2
#     Edge 51, Type (0, 0), BuildingBlock: TEMPAE_clean_linker_10, # of connection points: 2
#     Edge 52, Type (0, 0), BuildingBlock: TEMPAE_clean_linker_10, # of connection points: 2
#     Edge 53, Type (0, 0), BuildingBlock: TEMPAE_clean_linker_10, # of connection points: 2
#     Edge 54, Type (0, 0), BuildingBlock: TEMPAE_clean_linker_10, # of connection points: 2
#     Edge 55, Type (0, 0), BuildingBlock: TEMPAE_clean_linker_10, # of connection points: 2
#     Edge 56, Type (0, 0), BuildingBlock: TEMPAE_clean_linker_10, # of connection points: 2
#     Edge 57, Type (0, 0), BuildingBlock: TEMPAE_clean_linker_10, # of connection points: 2
#     Edge 58, Type (0, 0), BuildingBlock: TEMPAE_clean_linker_10, # of connection points: 2
#     Edge 59, Type (0, 0), BuildingBlock: TEMPAE_clean_linker_10, # of connection points: 2
#     Edge 60, Type (0, 0), BuildingBlock: TEMPAE_clean_linker_10, # of connection points: 2
#     Edge 61, Type (0, 0), BuildingBlock: TEMPAE_clean_linker_10, # of connection points: 2
#     Edge 62, Type (0, 0), BuildingBlock: TEMPAE_clean_linker_10, # of connection points: 2
#     Edge 63, Type (0, 0), BuildingBlock: TEMPAE_clean_linker_10, # of connection points: 2
#     Edge 64, Type (0, 0), BuildingBlock: TEMPAE_clean_linker_10, # of connection points: 2
#     Edge 65, Type (0, 0), BuildingBlock: TEMPAE_clean_linker_10, # of connection points: 2
#     Edge 66, Type (0, 0), BuildingBlock: TEMPAE_clean_linker_10, # of connection points: 2
#     Edge 67, Type (0, 0), BuildingBlock: TEMPAE_clean_linker_10, # of connection points: 2
#     Edge 68, Type (0, 0), BuildingBlock: TEMPAE_clean_linker_10, # of connection points: 2
#     Edge 69, Type (0, 0), BuildingBlock: TEMPAE_clean_linker_10, # of connection points: 2
#     Edge 70, Type (0, 0), BuildingBlock: TEMPAE_clean_linker_10, # of connection points: 2
#     Edge 71, Type (0, 0), BuildingBlock: TEMPAE_clean_linker_10, # of connection points: 2
#     Edge 72, Type (0, 0), BuildingBlock: TEMPAE_clean_linker_10, # of connection points: 2
#     Edge 73, Type (0, 0), BuildingBlock: TEMPAE_clean_linker_10, # of connection points: 2
#     Edge 74, Type (0, 0), BuildingBlock: TEMPAE_clean_linker_10, # of connection points: 2
#     Edge 75, Type (0, 0), BuildingBlock: TEMPAE_clean_linker_10, # of connection points: 2
#     Edge 76, Type (0, 0), BuildingBlock: TEMPAE_clean_linker_10, # of connection points: 2
#     Edge 77, Type (0, 0), BuildingBlock: TEMPAE_clean_linker_10, # of connection points: 2
#     Edge 78, Type (0, 0), BuildingBlock: TEMPAE_clean_linker_10, # of connection points: 2
#     Edge 79, Type (0, 0), BuildingBlock: TEMPAE_clean_linker_10, # of connection points: 2
#     Edge 80, Type (0, 0), BuildingBlock: TEMPAE_clean_linker_10, # of connection points: 2
#     Edge 81, Type (0, 0), BuildingBlock: TEMPAE_clean_linker_10, # of connection points: 2
#     Edge 82, Type (0, 0), BuildingBlock: TEMPAE_clean_linker_10, # of connection points: 2
#     Edge 83, Type (0, 0), BuildingBlock: TEMPAE_clean_linker_10, # of connection points: 2
#     Edge 84, Type (0, 0), BuildingBlock: TEMPAE_clean_linker_10, # of connection points: 2
#     Edge 85, Type (0, 0), BuildingBlock: TEMPAE_clean_linker_10, # of connection points: 2
#     Edge 86, Type (0, 0), BuildingBlock: TEMPAE_clean_linker_10, # of connection points: 2
#     Edge 87, Type (0, 0), BuildingBlock: TEMPAE_clean_linker_10, # of connection points: 2
#     Edge 88, Type (0, 0), BuildingBlock: TEMPAE_clean_linker_10, # of connection points: 2
#     Edge 89, Type (0, 0), BuildingBlock: TEMPAE_clean_linker_10, # of connection points: 2
#     Edge 90, Type (0, 0), BuildingBlock: TEMPAE_clean_linker_10, # of connection points: 2
#     Edge 91, Type (0, 0), BuildingBlock: TEMPAE_clean_linker_10, # of connection points: 2
#     Edge 92, Type (0, 0), BuildingBlock: TEMPAE_clean_linker_10, # of connection points: 2
#     Edge 93, Type (0, 0), BuildingBlock: TEMPAE_clean_linker_10, # of connection points: 2
#     Edge 94, Type (0, 0), BuildingBlock: TEMPAE_clean_linker_10, # of connection points: 2
#     Edge 95, Type (0, 0), BuildingBlock: TEMPAE_clean_linker_10, # of connection points: 2
# Relax obj value: 0.054
# Max RMSD: 0.080
# Mean RMSD: 0.080
data_MOF--net-mer--node1-GALJAG_clean_sbu_0--edge1-TEMPAE_clean_linker_10
_symmetry_space_group_name_H-M    P1
_symmetry_Int_Tables_number       1
_symmetry_cell_setting            triclinic
loop_
_symmetry_equiv_pos_as_xyz
'x, y, z'
_cell_length_a     64.310281
_cell_length_b     64.31459
_cell_length_c     54.964984
_cell_angle_alpha  89.98764
_cell_angle_beta   90.020637
_cell_angle_gamma 89.982428
loop_
_atom_site_label
_atom_site_type_symbol
_atom_site_fract_x
_atom_site_fract_y
_atom_site_fract_z
_atom_type_partial_charge
In0 In 0.11808 0.28343 0.38085 0.0
O1 O 0.11695 0.31344 0.35856 0.0
O2 O 0.1421 0.29264 0.35253 0.0
C3 C 0.12195 0.30314 0.42415 0.0
C4 C 0.13838 0.24657 0.37991 0.0
C5 C 0.07796 0.27418 0.37123 0.0
O6 O 0.13702 0.301 0.40969 0.0
O7 O 0.10498 0.29597 0.41639 0.0
O8 O 0.08741 0.26712 0.38957 0.0
O9 O 0.08887 0.28552 0.35757 0.0
C10 C 0.13318 0.30935 0.34657 0.0
O11 O 0.12856 0.25359 0.36185 0.0
O12 O 0.13762 0.25791 0.39857 0.0
In13 In 0.70658 0.12374 0.35453 0.0
O14 O 0.74147 0.13001 0.3589 0.0
O15 O 0.72257 0.15396 0.34412 0.0
C16 C 0.717 0.08305 0.353 0.0
C17 C 0.68331 0.1325 0.3151 0.0
C18 C 0.68797 0.13115 0.3979 0.0
O19 O 0.72273 0.09497 0.36991 0.0
O20 O 0.7063 0.0917 0.33667 0.0
O21 O 0.684 0.1153 0.38523 0.0
O22 O 0.70033 0.14378 0.38801 0.0
C23 C 0.74051 0.14818 0.35035 0.0
O24 O 0.67564 0.13244 0.3363 0.0
O25 O 0.70233 0.12782 0.31405 0.0
In26 In 0.87684 0.71002 0.36886 0.0
O27 O 0.86648 0.6802 0.3496 0.0
O28 O 0.86935 0.70798 0.32874 0.0
C29 C 0.87142 0.69145 0.4128 0.0
C30 C 0.85394 0.74524 0.36953 0.0
C31 C 0.91756 0.71748 0.36088 0.0
O32 O 0.8566 0.69912 0.40082 0.0
O33 O 0.88869 0.69225 0.40212 0.0
O34 O 0.9063 0.72954 0.37329 0.0
O35 O 0.90821 0.70194 0.35222 0.0
C36 C 0.8648 0.68889 0.32904 0.0
O37 O 0.87181 0.74426 0.37896 0.0
O38 O 0.8478 0.7286 0.35983 0.0
In39 In 0.29196 0.87175 0.35788 0.0
O40 O 0.30587 0.84601 0.33471 0.0
O41 O 0.31867 0.8762 0.33081 0.0
C42 C 0.31217 0.86416 0.40005 0.0
C43 C 0.25424 0.85336 0.35522 0.0
C44 C 0.28083 0.91213 0.35413 0.0
O45 O 0.31452 0.88078 0.38817 0.0
O46 O 0.30054 0.85095 0.38993 0.0
O47 O 0.28414 0.90088 0.33575 0.0
O48 O 0.28277 0.90291 0.37422 0.0
C49 C 0.31869 0.85753 0.32382 0.0
O50 O 0.26253 0.85857 0.37507 0.0
O51 O 0.26472 0.85795 0.33661 0.0
In52 In 0.12032 0.71104 0.63134 0.0
O53 O 0.12775 0.7439 0.64454 0.0
O54 O 0.14424 0.73238 0.61388 0.0
C55 C 0.07989 0.71883 0.64041 0.0
C56 C 0.13719 0.68893 0.66832 0.0
C57 C 0.1221 0.69291 0.58692 0.0
O58 O 0.09065 0.72983 0.62619 0.0
O59 O 0.08964 0.7041 0.65043 0.0
O60 O 0.13792 0.6948 0.60033 0.0
O61 O 0.10546 0.69934 0.59637 0.0
C62 C 0.14149 0.74716 0.62861 0.0
O63 O 0.14002 0.70812 0.6654 0.0
O64 O 0.12599 0.68052 0.65224 0.0
In65 In 0.28835 0.1183 0.63471 0.0
O66 O 0.31791 0.13219 0.6515 0.0
O67 O 0.29344 0.12262 0.67504 0.0
C68 C 0.29779 0.12262 0.58713 0.0
C69 C 0.25751 0.1458 0.64168 0.0
C70 C 0.28388 0.07665 0.63742 0.0
O71 O 0.3118 0.1208 0.60313 0.0
O72 O 0.27949 0.12235 0.59525 0.0
O73 O 0.26898 0.08858 0.63215 0.0
O74 O 0.30087 0.08573 0.64151 0.0
C75 C 0.31126 0.13059 0.67307 0.0
O76 O 0.25608 0.12706 0.64842 0.0
O77 O 0.27446 0.15056 0.63148 0.0
In78 In 0.8862 0.28238 0.62882 0.0
O79 O 0.87788 0.24915 0.64002 0.0
O80 O 0.86096 0.2628 0.61096 0.0
C81 C 0.92703 0.27839 0.63873 0.0
C82 C 0.86924 0.30273 0.66692 0.0
C83 C 0.88518 0.29984 0.58415 0.0
O84 O 0.91687 0.26461 0.6275 0.0
O85 O 0.91653 0.29401 0.64517 0.0
O86 O 0.87037 0.30177 0.59907 0.0
O87 O 0.90049 0.28961 0.59205 0.0
C88 C 0.86355 0.24721 0.62451 0.0
O89 O 0.87592 0.31222 0.64839 0.0
O90 O 0.87097 0.28325 0.66596 0.0
In91 In 0.70697 0.87595 0.64639 0.0
O92 O 0.67924 0.86023 0.66524 0.0
O93 O 0.69978 0.87842 0.68664 0.0
C94 C 0.6986 0.8701 0.59901 0.0
C95 C 0.73847 0.84879 0.65119 0.0
C96 C 0.71021 0.91761 0.64439 0.0
O97 O 0.68423 0.87139 0.61469 0.0
O98 O 0.71681 0.8716 0.60738 0.0
O99 O 0.72437 0.90637 0.65336 0.0
O100 O 0.69444 0.90789 0.63692 0.0
C101 C 0.68396 0.86692 0.68612 0.0
O102 O 0.74069 0.86796 0.65554 0.0
O103 O 0.7204 0.84341 0.64486 0.0
In104 In 0.88238 0.71356 0.6389 0.0
O105 O 0.87237 0.7476 0.63746 0.0
O106 O 0.85022 0.72522 0.64935 0.0
C107 C 0.92405 0.71772 0.64038 0.0
C108 C 0.87601 0.69057 0.67908 0.0
C109 C 0.87429 0.70313 0.59229 0.0
O110 O 0.91193 0.73145 0.6486 0.0
O111 O 0.91515 0.70203 0.63144 0.0
O112 O 0.87301 0.69001 0.60936 0.0
O113 O 0.87939 0.72118 0.59892 0.0
C114 C 0.85418 0.74406 0.64501 0.0
O115 O 0.8717 0.68383 0.65805 0.0
O116 O 0.88377 0.70857 0.67957 0.0
In117 In 0.28701 0.87921 0.62471 0.0
O118 O 0.25173 0.87427 0.62375 0.0
O119 O 0.27059 0.84952 0.63646 0.0
C120 C 0.28308 0.92076 0.62715 0.0
C121 C 0.31246 0.87007 0.66231 0.0
C122 C 0.29879 0.87152 0.57838 0.0
O123 O 0.27189 0.90859 0.63957 0.0
O124 O 0.29625 0.91193 0.6136 0.0
O125 O 0.3117 0.87167 0.59569 0.0
O126 O 0.28027 0.87502 0.58459 0.0
C127 C 0.25253 0.85591 0.63171 0.0
O128 O 0.31004 0.858 0.64443 0.0
O129 O 0.30249 0.88689 0.66088 0.0
In130 In 0.12434 0.29027 0.64881 0.0
O131 O 0.1305 0.25545 0.6462 0.0
O132 O 0.1539 0.27442 0.66213 0.0
C133 C 0.08278 0.28526 0.6477 0.0
C134 C 0.13191 0.3142 0.68814 0.0
C135 C 0.13382 0.30191 0.60286 0.0
O136 O 0.0946 0.27318 0.65939 0.0
O137 O 0.09193 0.29985 0.63672 0.0
O138 O 0.12876 0.31505 0.6189 0.0
O139 O 0.13456 0.28342 0.61032 0.0
C140 C 0.14834 0.25643 0.6557 0.0
O141 O 0.1427 0.31545 0.66898 0.0
O142 O 0.11714 0.30137 0.68708 0.0
In143 In 0.71693 0.11468 0.62254 0.0
O144 O 0.6916 0.13061 0.64498 0.0
O145 O 0.7153 0.11385 0.66372 0.0
C146 C 0.70334 0.11968 0.57626 0.0
C147 C 0.75017 0.14017 0.62475 0.0
C148 C 0.71668 0.07305 0.62685 0.0
O149 O 0.69223 0.12463 0.59429 0.0
O150 O 0.72086 0.11233 0.58174 0.0
O151 O 0.7332 0.08322 0.62334 0.0
O152 O 0.70032 0.08384 0.62794 0.0
C153 C 0.69898 0.12469 0.66518 0.0
O154 O 0.75196 0.12066 0.62351 0.0
O155 O 0.7317 0.14674 0.62494 0.0
In156 In 0.88139 0.28666 0.35666 0.0
O157 O 0.87201 0.25381 0.3449 0.0
O158 O 0.84896 0.27338 0.36059 0.0
C159 C 0.9228 0.28105 0.35715 0.0
C160 C 0.87237 0.31015 0.31721 0.0
C161 C 0.87764 0.29652 0.40409 0.0
O162 O 0.91031 0.26646 0.35227 0.0
O163 O 0.91435 0.29838 0.36148 0.0
O164 O 0.8781 0.31038 0.38774 0.0
O165 O 0.87904 0.27812 0.39636 0.0
C166 C 0.85338 0.25584 0.35177 0.0
O167 O 0.86351 0.31286 0.33745 0.0
O168 O 0.88593 0.29604 0.31713 0.0
In169 In 0.71657 0.88636 0.37331 0.0
O170 O 0.6867 0.87862 0.3523 0.0
O171 O 0.71563 0.87365 0.33476 0.0
C172 C 0.70235 0.88387 0.41931 0.0
C173 C 0.74992 0.86116 0.3771 0.0
C174 C 0.71963 0.92759 0.36564 0.0
O175 O 0.69586 0.87196 0.40267 0.0
O176 O 0.71577 0.89698 0.41262 0.0
O177 O 0.73543 0.91601 0.3671 0.0
O178 O 0.70245 0.91833 0.36785 0.0
C179 C 0.69612 0.87277 0.33338 0.0
O180 O 0.7508 0.87859 0.36654 0.0
O181 O 0.73235 0.85663 0.3858 0.0
In182 In 0.11523 0.71344 0.35983 0.0
O183 O 0.12284 0.74797 0.35597 0.0
O184 O 0.14791 0.72642 0.35603 0.0
C185 C 0.07354 0.71712 0.35927 0.0
C186 C 0.12338 0.69076 0.31956 0.0
C187 C 0.12144 0.70309 0.40686 0.0
O188 O 0.0854 0.7311 0.35107 0.0
O189 O 0.08272 0.70132 0.36764 0.0
O190 O 0.12128 0.68958 0.39015 0.0
O191 O 0.11856 0.7215 0.39971 0.0
C192 C 0.14225 0.74517 0.35481 0.0
O193 O 0.13084 0.68614 0.34012 0.0
O194 O 0.11164 0.70643 0.31956 0.0
In195 In 0.27938 0.10876 0.36176 0.0
O196 O 0.30768 0.11806 0.33899 0.0
O197 O 0.27803 0.11775 0.32187 0.0
C198 C 0.29511 0.11033 0.40736 0.0
C199 C 0.24716 0.13526 0.36688 0.0
C200 C 0.27646 0.06777 0.3528 0.0
O201 O 0.3014 0.12229 0.39071 0.0
O202 O 0.28127 0.09765 0.40086 0.0
O203 O 0.2606 0.07915 0.35549 0.0
O204 O 0.29364 0.07717 0.35435 0.0
C205 C 0.29727 0.12104 0.3198 0.0
O206 O 0.24455 0.11591 0.36442 0.0
O207 O 0.26589 0.14106 0.36682 0.0
In208 In 0.61483 0.77741 0.87547 0.0
O209 O 0.61743 0.80771 0.85389 0.0
O210 O 0.63546 0.78183 0.84234 0.0
C211 C 0.61597 0.79537 0.91996 0.0
C212 C 0.63943 0.74347 0.87754 0.0
C213 C 0.57455 0.76984 0.86452 0.0
O214 O 0.62794 0.80093 0.90297 0.0
O215 O 0.60333 0.78122 0.91425 0.0
O216 O 0.58496 0.75812 0.87831 0.0
O217 O 0.58452 0.78506 0.8561 0.0
C218 C 0.63016 0.80044 0.83861 0.0
O219 O 0.6252 0.74546 0.86187 0.0
O220 O 0.64109 0.75847 0.89217 0.0
In221 In 0.21777 0.61588 0.86119 0.0
O222 O 0.18992 0.62993 0.84113 0.0
O223 O 0.21435 0.61668 0.82015 0.0
C224 C 0.20525 0.62017 0.90786 0.0
C225 C 0.24898 0.64355 0.85687 0.0
C226 C 0.22178 0.57421 0.85972 0.0
O227 O 0.19271 0.62204 0.89028 0.0
O228 O 0.22371 0.61626 0.90173 0.0
O229 O 0.23691 0.58614 0.86396 0.0
O230 O 0.20468 0.5833 0.85606 0.0
C231 C 0.19702 0.62586 0.82021 0.0
O232 O 0.25122 0.62453 0.85183 0.0
O233 O 0.231 0.64855 0.86396 0.0
In234 In 0.38813 0.21545 0.86131 0.0
O235 O 0.37884 0.1859 0.84076 0.0
O236 O 0.38066 0.21432 0.82107 0.0
C237 C 0.38412 0.20365 0.90822 0.0
C238 C 0.36134 0.24762 0.86233 0.0
C239 C 0.42949 0.21698 0.85404 0.0
O240 O 0.37578 0.19358 0.89106 0.0
O241 O 0.39442 0.21932 0.90157 0.0
O242 O 0.4179 0.23256 0.85063 0.0
O243 O 0.42018 0.20078 0.86097 0.0
C244 C 0.37686 0.1951 0.82057 0.0
O245 O 0.38082 0.25022 0.8627 0.0
O246 O 0.35554 0.22889 0.86148 0.0
In247 In 0.78419 0.3788 0.85618 0.0
O248 O 0.81341 0.36827 0.83595 0.0
O249 O 0.78507 0.37078 0.8161 0.0
C250 C 0.79758 0.37649 0.9028 0.0
C251 C 0.75159 0.35251 0.85588 0.0
C252 C 0.78159 0.42004 0.8487 0.0
O253 O 0.8067 0.36696 0.88579 0.0
O254 O 0.78221 0.38719 0.89612 0.0
O255 O 0.76642 0.40939 0.85621 0.0
O256 O 0.79806 0.4099 0.84489 0.0
C257 C 0.80419 0.36636 0.81574 0.0
O258 O 0.74982 0.37147 0.85036 0.0
O259 O 0.76974 0.34692 0.86162 0.0
In260 In 0.60858 0.21556 0.12498 0.0
O261 O 0.61629 0.18579 0.14621 0.0
O262 O 0.61535 0.21431 0.16553 0.0
C263 C 0.61472 0.20281 0.07877 0.0
C264 C 0.63573 0.24747 0.12509 0.0
C265 C 0.56684 0.21897 0.12834 0.0
O266 O 0.62047 0.19211 0.09685 0.0
O267 O 0.6059 0.21974 0.08412 0.0
O268 O 0.5789 0.23388 0.13305 0.0
O269 O 0.57582 0.2024 0.12208 0.0
C270 C 0.61834 0.19498 0.16635 0.0
O271 O 0.6164 0.2501 0.12774 0.0
O272 O 0.64128 0.22879 0.12229 0.0
In273 In 0.77887 0.61236 0.1411 0.0
O274 O 0.7462 0.62273 0.15197 0.0
O275 O 0.76609 0.64473 0.1347 0.0
C276 C 0.77458 0.57063 0.14362 0.0
C277 C 0.80024 0.62389 0.18106 0.0
C278 C 0.79021 0.6169 0.09421 0.0
O279 O 0.75928 0.58265 0.14076 0.0
O280 O 0.79188 0.57968 0.14547 0.0
O281 O 0.80322 0.61848 0.11136 0.0
O282 O 0.77189 0.61281 0.10082 0.0
C283 C 0.74851 0.64099 0.1439 0.0
O284 O 0.80829 0.62415 0.1601 0.0
O285 O 0.78168 0.61764 0.18173 0.0
In286 In 0.38359 0.78034 0.12695 0.0
O287 O 0.36714 0.80684 0.14699 0.0
O288 O 0.38844 0.78812 0.16685 0.0
C289 C 0.37689 0.7913 0.0802 0.0
C290 C 0.3578 0.74754 0.1323 0.0
C291 C 0.42533 0.77873 0.12827 0.0
O292 O 0.37394 0.80383 0.09755 0.0
O293 O 0.38307 0.7735 0.08655 0.0
O294 O 0.41405 0.76404 0.13592 0.0
O295 O 0.41552 0.79418 0.11994 0.0
C296 C 0.37581 0.80309 0.16714 0.0
O297 O 0.37705 0.74539 0.12871 0.0
O298 O 0.3517 0.76613 0.13335 0.0
In299 In 0.20452 0.38246 0.1507 0.0
O300 O 0.17873 0.36509 0.17111 0.0
O301 O 0.19657 0.38724 0.19059 0.0
C302 C 0.18715 0.37128 0.10771 0.0
C303 C 0.24062 0.36122 0.15228 0.0
C304 C 0.21173 0.42374 0.14921 0.0
O305 O 0.18295 0.38815 0.11827 0.0
O306 O 0.19932 0.35962 0.1194 0.0
O307 O 0.22581 0.41081 0.15441 0.0
O308 O 0.19419 0.41583 0.14492 0.0
C309 C 0.18224 0.37392 0.19119 0.0
O310 O 0.23666 0.37437 0.13584 0.0
O311 O 0.22656 0.35917 0.16811 0.0
In312 In 0.36956 0.21297 0.13289 0.0
O313 O 0.35732 0.18255 0.14966 0.0
O314 O 0.36185 0.20863 0.17272 0.0
C315 C 0.36481 0.19756 0.08735 0.0
C316 C 0.34572 0.24719 0.13701 0.0
C317 C 0.41078 0.22047 0.13586 0.0
O318 O 0.37739 0.18972 0.1024 0.0
O319 O 0.35423 0.21241 0.09565 0.0
O320 O 0.39917 0.22977 0.1209 0.0
O321 O 0.40155 0.20773 0.14951 0.0
C322 C 0.35619 0.18996 0.17091 0.0
O323 O 0.36517 0.24772 0.14031 0.0
O324 O 0.33853 0.22952 0.13168 0.0
In325 In 0.7855 0.37437 0.12542 0.0
O326 O 0.80278 0.34943 0.147 0.0
O327 O 0.80952 0.38091 0.15517 0.0
C328 C 0.80293 0.36464 0.08205 0.0
C329 C 0.74806 0.3556 0.12932 0.0
C330 C 0.7757 0.41513 0.12905 0.0
O331 O 0.81005 0.37881 0.09557 0.0
O332 O 0.78781 0.35483 0.091 0.0
O333 O 0.77237 0.40239 0.14604 0.0
O334 O 0.7836 0.40724 0.11022 0.0
C335 C 0.81264 0.36206 0.16021 0.0
O336 O 0.75305 0.36656 0.11121 0.0
O337 O 0.76169 0.35467 0.14577 0.0
In338 In 0.62237 0.79272 0.14115 0.0
O339 O 0.63485 0.82154 0.16078 0.0
O340 O 0.62402 0.79604 0.18202 0.0
C341 C 0.63117 0.81006 0.09737 0.0
C342 C 0.64514 0.75782 0.14653 0.0
C343 C 0.58107 0.78538 0.14115 0.0
O344 O 0.6164 0.81632 0.11053 0.0
O345 O 0.64207 0.79601 0.10694 0.0
O346 O 0.5936 0.77509 0.12826 0.0
O347 O 0.58939 0.79914 0.15424 0.0
C348 C 0.63197 0.81397 0.18177 0.0
O349 O 0.62683 0.75752 0.13825 0.0
O350 O 0.65183 0.77562 0.15212 0.0
In351 In 0.20978 0.61885 0.13045 0.0
O352 O 0.20187 0.64359 0.1585 0.0
O353 O 0.17993 0.6194 0.15334 0.0
C354 C 0.19026 0.62217 0.08692 0.0
C355 C 0.24701 0.63825 0.13034 0.0
C356 C 0.21975 0.57882 0.13942 0.0
O357 O 0.19583 0.63781 0.09913 0.0
O358 O 0.19357 0.60501 0.09727 0.0
O359 O 0.22651 0.58859 0.12117 0.0
O360 O 0.20834 0.58938 0.15339 0.0
C361 C 0.18489 0.63556 0.16496 0.0
O362 O 0.23522 0.63772 0.11204 0.0
O363 O 0.24025 0.62857 0.14866 0.0
In364 In 0.37892 0.79099 0.8569 0.0
O365 O 0.35738 0.76906 0.83638 0.0
O366 O 0.36998 0.75857 0.86999 0.0
C367 C 0.41982 0.78158 0.85733 0.0
C368 C 0.36908 0.8171 0.82003 0.0
C369 C 0.36906 0.80668 0.90112 0.0
O370 O 0.40671 0.77068 0.84596 0.0
O371 O 0.41227 0.79707 0.86822 0.0
O372 O 0.3582 0.79311 0.89055 0.0
O373 O 0.3843 0.81313 0.88884 0.0
C374 C 0.35823 0.75479 0.85211 0.0
O375 O 0.35712 0.8139 0.8378 0.0
O376 O 0.38622 0.80771 0.82127 0.0
In377 In 0.21405 0.37779 0.88261 0.0
O378 O 0.19883 0.35231 0.85968 0.0
O379 O 0.18869 0.38326 0.85416 0.0
C380 C 0.20148 0.37337 0.92907 0.0
C381 C 0.2497 0.35577 0.87853 0.0
C382 C 0.22024 0.41903 0.87768 0.0
O383 O 0.19071 0.36661 0.91149 0.0
O384 O 0.21823 0.38214 0.923 0.0
O385 O 0.23153 0.40581 0.86702 0.0
O386 O 0.20603 0.41143 0.8907 0.0
C387 C 0.18742 0.36452 0.84772 0.0
O388 O 0.24385 0.36847 0.86243 0.0
O389 O 0.23775 0.35441 0.89659 0.0
In390 In 0.62554 0.20344 0.85776 0.0
O391 O 0.65249 0.19462 0.83311 0.0
O392 O 0.62595 0.17508 0.83244 0.0
C393 C 0.63065 0.18409 0.90112 0.0
C394 C 0.64281 0.24157 0.85566 0.0
C395 C 0.58518 0.21345 0.85077 0.0
O396 O 0.61414 0.18273 0.88886 0.0
O397 O 0.64501 0.19399 0.89072 0.0
O398 O 0.59537 0.21913 0.86917 0.0
O399 O 0.59545 0.20297 0.83555 0.0
C400 C 0.64369 0.17904 0.82381 0.0
O401 O 0.63963 0.23211 0.87539 0.0
O402 O 0.63677 0.23202 0.83689 0.0
In403 In 0.79026 0.61588 0.86734 0.0
O404 O 0.82097 0.6245 0.84856 0.0
O405 O 0.79286 0.62668 0.82835 0.0
C406 C 0.80226 0.61736 0.91433 0.0
C407 C 0.75624 0.64018 0.87063 0.0
C408 C 0.78829 0.57531 0.85621 0.0
O409 O 0.80816 0.63086 0.89912 0.0
O410 O 0.7906 0.60344 0.90576 0.0
O411 O 0.77355 0.58765 0.85142 0.0
O412 O 0.80395 0.58354 0.86611 0.0
C413 C 0.81231 0.62887 0.82856 0.0
O414 O 0.75513 0.62059 0.87138 0.0
O415 O 0.77439 0.64734 0.86842 0.0
C416 C 0.20929 0.14317 0.37221 0.0
C417 C 0.22979 0.15015 0.36929 0.0
C418 C 0.19278 0.15736 0.37448 0.0
C419 C 0.19692 0.17897 0.37353 0.0
C420 C 0.2176 0.18605 0.3705 0.0
C421 C 0.23378 0.17156 0.36854 0.0
C422 C 0.17095 0.14928 0.37794 0.0
C423 C 0.22265 0.20897 0.36919 0.0
C424 C 0.15548 0.21824 0.35619 0.0
C425 C 0.15127 0.22759 0.37869 0.0
C426 C 0.16972 0.20177 0.35436 0.0
C427 C 0.17977 0.19437 0.37558 0.0
C428 C 0.17472 0.20303 0.39852 0.0
C429 C 0.16062 0.21964 0.39978 0.0
C430 C 0.1748 0.19306 0.32955 0.0
C431 C 0.18491 0.19537 0.42159 0.0
H432 H 0.20616 0.12662 0.37286 0.0
H433 H 0.24959 0.17704 0.36621 0.0
H434 H 0.1643 0.15553 0.39507 0.0
H435 H 0.16086 0.15471 0.36285 0.0
H436 H 0.17038 0.13202 0.37862 0.0
H437 H 0.23952 0.21189 0.36652 0.0
H438 H 0.21399 0.21627 0.35395 0.0
H439 H 0.21765 0.21682 0.38618 0.0
H440 H 0.14829 0.22434 0.33984 0.0
H441 H 0.1573 0.22674 0.41723 0.0
H442 H 0.17354 0.17586 0.32968 0.0
H443 H 0.1911 0.19698 0.32478 0.0
H444 H 0.16441 0.1993 0.31515 0.0
H445 H 0.1839 0.17818 0.42277 0.0
H446 H 0.17771 0.20219 0.43813 0.0
H447 H 0.20166 0.19953 0.42142 0.0
C448 C 0.77628 0.15872 0.36297 0.0
C449 C 0.75871 0.162 0.34841 0.0
C450 C 0.79287 0.1729 0.36276 0.0
C451 C 0.79197 0.19044 0.3472 0.0
C452 C 0.77468 0.19322 0.33161 0.0
C453 C 0.75812 0.17909 0.33262 0.0
C454 C 0.81088 0.16964 0.37997 0.0
C455 C 0.77334 0.2115 0.31442 0.0
C456 C 0.82006 0.23989 0.36498 0.0
C457 C 0.83798 0.23889 0.35055 0.0
C458 C 0.80523 0.22396 0.36443 0.0
C459 C 0.80819 0.20682 0.34866 0.0
C460 C 0.82625 0.20573 0.33397 0.0
C461 C 0.84109 0.22172 0.3353 0.0
C462 C 0.78636 0.22553 0.3807 0.0
C463 C 0.82969 0.18789 0.3166 0.0
H464 H 0.77669 0.14552 0.37523 0.0
H465 H 0.74461 0.18151 0.32116 0.0
H466 H 0.82583 0.17027 0.36995 0.0
H467 H 0.81113 0.18233 0.39365 0.0
H468 H 0.80989 0.15453 0.3897 0.0
H469 H 0.75989 0.21026 0.30181 0.0
H470 H 0.77175 0.22611 0.32499 0.0
H471 H 0.7878 0.21276 0.30352 0.0
H472 H 0.81772 0.25307 0.37697 0.0
H473 H 0.85494 0.22097 0.32409 0.0
H474 H 0.78507 0.2114 0.39219 0.0
H475 H 0.77206 0.22644 0.36945 0.0
H476 H 0.78692 0.23937 0.39276 0.0
H477 H 0.82955 0.17292 0.32664 0.0
H478 H 0.84465 0.18924 0.30663 0.0
H479 H 0.81682 0.1873 0.30316 0.0
C480 C 0.84583 0.78071 0.3857 0.0
C481 C 0.84085 0.76409 0.37028 0.0
C482 C 0.83263 0.79805 0.38759 0.0
C483 C 0.81421 0.7988 0.3735 0.0
C484 C 0.80949 0.78233 0.35732 0.0
C485 C 0.8228 0.76512 0.35603 0.0
C486 C 0.83804 0.81523 0.4052 0.0
C487 C 0.79012 0.78265 0.34177 0.0
C488 C 0.76676 0.82921 0.39344 0.0
C489 C 0.76759 0.84653 0.37799 0.0
C490 C 0.78244 0.81407 0.393 0.0
C491 C 0.79917 0.81616 0.37645 0.0
C492 C 0.80047 0.834 0.36142 0.0
C493 C 0.78469 0.84908 0.36249 0.0
C494 C 0.78064 0.79542 0.40958 0.0
C495 C 0.81797 0.83666 0.34339 0.0
H496 H 0.85976 0.77992 0.39677 0.0
H497 H 0.81897 0.75236 0.34396 0.0
H498 H 0.83798 0.83047 0.39576 0.0
H499 H 0.82611 0.816 0.41975 0.0
H500 H 0.8535 0.81287 0.41378 0.0
H501 H 0.78939 0.76924 0.32907 0.0
H502 H 0.77613 0.78229 0.35357 0.0
H503 H 0.78945 0.79723 0.33101 0.0
H504 H 0.75364 0.82729 0.4056 0.0
H505 H 0.78535 0.86245 0.3505 0.0
H506 H 0.79539 0.793 0.41968 0.0
H507 H 0.7778 0.78125 0.39856 0.0
H508 H 0.76777 0.79709 0.42291 0.0
H509 H 0.83322 0.83452 0.3525 0.0
H510 H 0.81771 0.85219 0.33455 0.0
H511 H 0.81674 0.82458 0.32905 0.0
C512 C 0.17867 0.75832 0.35378 0.0
C513 C 0.15728 0.76246 0.35308 0.0
C514 C 0.19323 0.7745 0.35324 0.0
C515 C 0.18623 0.79534 0.35185 0.0
C516 C 0.16466 0.79963 0.35067 0.0
C517 C 0.15041 0.7831 0.35137 0.0
C518 C 0.21611 0.7693 0.35461 0.0
C519 C 0.15667 0.82166 0.34903 0.0
C520 C 0.22503 0.83472 0.37555 0.0
C521 C 0.23498 0.84091 0.35405 0.0
C522 C 0.20843 0.8206 0.375 0.0
C523 C 0.20163 0.81254 0.35239 0.0
C524 C 0.21088 0.8196 0.33054 0.0
C525 C 0.22749 0.83371 0.33163 0.0
C526 C 0.19893 0.81349 0.3987 0.0
C527 C 0.20396 0.81144 0.30609 0.0
H528 H 0.18406 0.74238 0.3551 0.0
H529 H 0.13388 0.78636 0.35077 0.0
H530 H 0.22438 0.77592 0.33868 0.0
H531 H 0.22301 0.77638 0.37115 0.0
H532 H 0.21898 0.75227 0.35511 0.0
H533 H 0.13948 0.82231 0.34719 0.0
H534 H 0.16125 0.83043 0.36556 0.0
H535 H 0.16377 0.82969 0.33321 0.0
H536 H 0.23072 0.84031 0.39293 0.0
H537 H 0.2351 0.83851 0.31495 0.0
H538 H 0.20271 0.79685 0.40177 0.0
H539 H 0.18174 0.81482 0.39796 0.0
H540 H 0.2047 0.8226 0.41449 0.0
H541 H 0.20829 0.7948 0.30444 0.0
H542 H 0.21116 0.8201 0.29077 0.0
H543 H 0.1868 0.81243 0.30436 0.0
C544 C 0.16884 0.76915 0.60947 0.0
C545 C 0.15464 0.76596 0.62842 0.0
C546 C 0.18312 0.78559 0.61029 0.0
C547 C 0.18326 0.79907 0.63065 0.0
C548 C 0.16834 0.79649 0.64934 0.0
C549 C 0.15414 0.77996 0.64797 0.0
C550 C 0.19865 0.78795 0.58987 0.0
C551 C 0.16805 0.81054 0.67133 0.0
C552 C 0.23597 0.82257 0.64412 0.0
C553 C 0.23409 0.84236 0.63368 0.0
C554 C 0.21923 0.80865 0.6441 0.0
C555 C 0.20018 0.81462 0.63323 0.0
C556 C 0.19793 0.83487 0.62347 0.0
C557 C 0.21494 0.84855 0.62387 0.0
C558 C 0.22219 0.78725 0.6549 0.0
C559 C 0.17785 0.84176 0.61172 0.0
H560 H 0.16919 0.75844 0.59424 0.0
H561 H 0.14316 0.77755 0.66266 0.0
H562 H 0.19866 0.80418 0.58302 0.0
H563 H 0.21452 0.78459 0.59676 0.0
H564 H 0.19534 0.77732 0.57443 0.0
H565 H 0.15419 0.80783 0.68297 0.0
H566 H 0.18221 0.80778 0.68241 0.0
H567 H 0.16825 0.8271 0.66567 0.0
H568 H 0.25072 0.81777 0.65186 0.0
H569 H 0.21343 0.86385 0.61578 0.0
H570 H 0.22112 0.77536 0.64033 0.0
H571 H 0.20969 0.78389 0.66825 0.0
H572 H 0.23747 0.78555 0.66414 0.0
H573 H 0.17518 0.83264 0.59487 0.0
H574 H 0.17801 0.85854 0.60695 0.0
H575 H 0.16453 0.83873 0.62403 0.0
C576 C 0.24067 0.1796 0.6319 0.0
C577 C 0.24066 0.16104 0.64523 0.0
C578 C 0.22476 0.19427 0.63483 0.0
C579 C 0.20869 0.19045 0.65185 0.0
C580 C 0.20871 0.1718 0.66555 0.0
C581 C 0.22463 0.15718 0.66188 0.0
C582 C 0.22509 0.21382 0.61958 0.0
C583 C 0.19204 0.1674 0.68418 0.0
C584 C 0.18016 0.23908 0.67181 0.0
C585 C 0.16244 0.23839 0.657 0.0
C586 C 0.19485 0.22297 0.67127 0.0
C587 C 0.19192 0.20606 0.65514 0.0
C588 C 0.1737 0.20498 0.64074 0.0
C589 C 0.15904 0.22109 0.64204 0.0
C590 C 0.21388 0.22444 0.68728 0.0
C591 C 0.17021 0.18738 0.62302 0.0
H592 H 0.253 0.18256 0.61891 0.0
H593 H 0.22468 0.14287 0.6723 0.0
H594 H 0.21045 0.21512 0.609 0.0
H595 H 0.22607 0.22768 0.63153 0.0
H596 H 0.2384 0.21416 0.60671 0.0
H597 H 0.19447 0.15231 0.69359 0.0
H598 H 0.19175 0.17998 0.69799 0.0
H599 H 0.17655 0.16718 0.6753 0.0
H600 H 0.18272 0.2524 0.68351 0.0
H601 H 0.14539 0.22059 0.63049 0.0
H602 H 0.22786 0.227 0.67585 0.0
H603 H 0.21625 0.20966 0.69733 0.0
H604 H 0.21273 0.23736 0.70062 0.0
H605 H 0.18221 0.18797 0.60853 0.0
H606 H 0.15462 0.18812 0.61434 0.0
H607 H 0.17182 0.17218 0.63235 0.0
C608 C 0.76561 0.17493 0.63311 0.0
C609 C 0.76821 0.15432 0.62549 0.0
C610 C 0.78239 0.18883 0.63329 0.0
C611 C 0.80215 0.18203 0.62518 0.0
C612 C 0.80491 0.16117 0.61762 0.0
C613 C 0.78791 0.14747 0.61809 0.0
C614 C 0.7789 0.21085 0.64192 0.0
C615 C 0.82567 0.15349 0.60847 0.0
C616 C 0.83687 0.22577 0.60329 0.0
C617 C 0.84966 0.22898 0.62358 0.0
C618 C 0.82202 0.20982 0.60311 0.0
C619 C 0.81965 0.19707 0.62393 0.0
C620 C 0.833 0.19981 0.64417 0.0
C621 C 0.84801 0.21565 0.64366 0.0
C622 C 0.80835 0.20712 0.58099 0.0
C623 C 0.83074 0.18672 0.66682 0.0
H624 H 0.75041 0.18021 0.639 0.0
H625 H 0.78992 0.13154 0.6121 0.0
H626 H 0.7901 0.21474 0.65659 0.0
H627 H 0.78168 0.22187 0.62674 0.0
H628 H 0.76287 0.21333 0.64888 0.0
H629 H 0.82538 0.13667 0.60386 0.0
H630 H 0.83022 0.16237 0.592 0.0
H631 H 0.83788 0.15617 0.62238 0.0
H632 H 0.83823 0.23599 0.58768 0.0
H633 H 0.85783 0.21817 0.65942 0.0
H634 H 0.79211 0.21141 0.58559 0.0
H635 H 0.80825 0.19061 0.57514 0.0
H636 H 0.81352 0.21691 0.56548 0.0
H637 H 0.81556 0.19009 0.67557 0.0
H638 H 0.8433 0.18977 0.68024 0.0
H639 H 0.83087 0.16996 0.66212 0.0
C640 C 0.82215 0.75792 0.66454 0.0
C641 C 0.83848 0.76052 0.64797 0.0
C642 C 0.80655 0.77302 0.66684 0.0
C643 C 0.80699 0.79078 0.65162 0.0
C644 C 0.82362 0.79358 0.63504 0.0
C645 C 0.83937 0.77852 0.63368 0.0
C646 C 0.78938 0.76977 0.68519 0.0
C647 C 0.82432 0.81203 0.61807 0.0
C648 C 0.755 0.81584 0.63776 0.0
C649 C 0.75587 0.83391 0.65193 0.0
C650 C 0.77166 0.80182 0.63729 0.0
C651 C 0.78936 0.80569 0.65192 0.0
C652 C 0.79016 0.82374 0.66666 0.0
C653 C 0.77348 0.83784 0.6662 0.0
C654 C 0.77043 0.78301 0.62089 0.0
C655 C 0.80854 0.82806 0.68298 0.0
H656 H 0.8216 0.74405 0.67575 0.0
H657 H 0.85197 0.78045 0.62077 0.0
H658 H 0.78755 0.78384 0.69668 0.0
H659 H 0.77441 0.76723 0.67561 0.0
H660 H 0.79239 0.7562 0.69719 0.0
H661 H 0.83865 0.81225 0.60679 0.0
H662 H 0.81063 0.81166 0.60577 0.0
H663 H 0.82348 0.82673 0.62856 0.0
H664 H 0.74144 0.8129 0.62653 0.0
H665 H 0.77409 0.8518 0.67724 0.0
H666 H 0.77132 0.76858 0.63188 0.0
H667 H 0.78384 0.78289 0.60818 0.0
H668 H 0.75584 0.78265 0.61007 0.0
H669 H 0.81101 0.81477 0.69555 0.0
H670 H 0.80643 0.84242 0.69392 0.0
H671 H 0.82286 0.8297 0.67192 0.0
C672 C 0.66688 0.72239 0.89795 0.0
C673 C 0.65403 0.72576 0.87774 0.0
C674 C 0.68221 0.70688 0.8976 0.0
C675 C 0.68496 0.69474 0.87637 0.0
C676 C 0.67154 0.69761 0.85621 0.0
C677 C 0.65609 0.713 0.85722 0.0
C678 C 0.69598 0.70405 0.91962 0.0
C679 C 0.67417 0.68516 0.83313 0.0
C680 C 0.7396 0.67481 0.86533 0.0
C681 C 0.73782 0.65384 0.87188 0.0
C682 C 0.7224 0.68816 0.86633 0.0
C683 C 0.70302 0.68041 0.8745 0.0
C684 C 0.70111 0.65923 0.88119 0.0
C685 C 0.71854 0.64612 0.8796 0.0
C686 C 0.72501 0.71058 0.85871 0.0
C687 C 0.68076 0.65054 0.89033 0.0
H688 H 0.66521 0.73214 0.91392 0.0
H689 H 0.64618 0.71562 0.84155 0.0
H690 H 0.6967 0.6874 0.92484 0.0
H691 H 0.71205 0.70906 0.9152 0.0
H692 H 0.69046 0.7132 0.93549 0.0
H693 H 0.6615 0.68813 0.81984 0.0
H694 H 0.68923 0.68921 0.82448 0.0
H695 H 0.67459 0.66829 0.83728 0.0
H696 H 0.75446 0.6808 0.85919 0.0
H697 H 0.71715 0.62991 0.88475 0.0
H698 H 0.72172 0.72099 0.87434 0.0
H699 H 0.71371 0.71447 0.84414 0.0
H700 H 0.74094 0.71394 0.85197 0.0
H701 H 0.67588 0.65899 0.90697 0.0
H702 H 0.68182 0.63369 0.89462 0.0
H703 H 0.6684 0.65286 0.87651 0.0
C704 C 0.26298 0.67935 0.86251 0.0
C705 C 0.26609 0.65877 0.85498 0.0
C706 C 0.27909 0.69398 0.86123 0.0
C707 C 0.29874 0.6879 0.85206 0.0
C708 C 0.30195 0.66717 0.84427 0.0
C709 C 0.28557 0.65281 0.84588 0.0
C710 C 0.27508 0.71594 0.86981 0.0
C711 C 0.32267 0.66019 0.83427 0.0
C712 C 0.3324 0.73257 0.83041 0.0
C713 C 0.34496 0.7361 0.85084 0.0
C714 C 0.3179 0.71629 0.83011 0.0
C715 C 0.31586 0.70336 0.85081 0.0
C716 C 0.32913 0.70629 0.87107 0.0
C717 C 0.3436 0.72261 0.87081 0.0
C718 C 0.30415 0.71351 0.80808 0.0
C719 C 0.32737 0.69284 0.8935 0.0
H720 H 0.24796 0.68402 0.86959 0.0
H721 H 0.28802 0.63691 0.84 0.0
H722 H 0.28602 0.71996 0.8847 0.0
H723 H 0.27789 0.72705 0.85473 0.0
H724 H 0.25893 0.71812 0.87651 0.0
H725 H 0.32255 0.64359 0.82872 0.0
H726 H 0.32694 0.66982 0.81829 0.0
H727 H 0.33498 0.66245 0.84817 0.0
H728 H 0.33348 0.74291 0.81488 0.0
H729 H 0.35329 0.72528 0.88665 0.0
H730 H 0.28785 0.7174 0.81289 0.0
H731 H 0.30435 0.69707 0.80199 0.0
H732 H 0.30901 0.72356 0.79265 0.0
H733 H 0.31216 0.69565 0.90244 0.0
H734 H 0.33992 0.69606 0.90687 0.0
H735 H 0.32795 0.67615 0.88847 0.0
C736 C 0.35295 0.28522 0.86877 0.0
C737 C 0.34636 0.265 0.86316 0.0
C738 C 0.33857 0.30158 0.87073 0.0
C739 C 0.31719 0.29759 0.8667 0.0
C740 C 0.31057 0.27731 0.86037 0.0
C741 C 0.32522 0.26125 0.85882 0.0
C742 C 0.34615 0.32297 0.87772 0.0
C743 C 0.28793 0.27248 0.85571 0.0
C744 C 0.27516 0.33055 0.89572 0.0
C745 C 0.26835 0.34255 0.87598 0.0
C746 C 0.29168 0.3165 0.89319 0.0
C747 C 0.30147 0.31426 0.87028 0.0
C748 C 0.29514 0.32685 0.85048 0.0
C749 C 0.27867 0.34095 0.85361 0.0
C750 C 0.29813 0.3035 0.91481 0.0
C751 C 0.30513 0.32479 0.82575 0.0
H752 H 0.36929 0.28817 0.87216 0.0
H753 H 0.32008 0.24566 0.8543 0.0
H754 H 0.34083 0.33462 0.8642 0.0
H755 H 0.33943 0.32746 0.89555 0.0
H756 H 0.36337 0.32373 0.87905 0.0
H757 H 0.28551 0.25617 0.84967 0.0
H758 H 0.27879 0.27507 0.87255 0.0
H759 H 0.28162 0.28307 0.84158 0.0
H760 H 0.26731 0.33184 0.91311 0.0
H761 H 0.27343 0.35021 0.8383 0.0
H762 H 0.31517 0.30462 0.91768 0.0
H763 H 0.29445 0.28692 0.91129 0.0
H764 H 0.29012 0.30834 0.93179 0.0
H765 H 0.32229 0.32597 0.82732 0.0
H766 H 0.29958 0.33685 0.81281 0.0
H767 H 0.30157 0.30925 0.81805 0.0
C768 C 0.66334 0.26784 0.83251 0.0
C769 C 0.65481 0.26108 0.85459 0.0
C770 C 0.67752 0.2844 0.83188 0.0
C771 C 0.68305 0.29451 0.85383 0.0
C772 C 0.67339 0.28863 0.87592 0.0
C773 C 0.65947 0.27187 0.87605 0.0
C774 C 0.68757 0.29016 0.80799 0.0
C775 C 0.67866 0.29924 0.89964 0.0
C776 C 0.73745 0.31659 0.85895 0.0
C777 C 0.73394 0.33786 0.85534 0.0
C778 C 0.72099 0.30235 0.85831 0.0
C779 C 0.7005 0.3096 0.85415 0.0
C780 C 0.69683 0.33107 0.85056 0.0
C781 C 0.71365 0.34498 0.8511 0.0
C782 C 0.72555 0.27952 0.86207 0.0
C783 C 0.67516 0.33933 0.8463 0.0
H784 H 0.65976 0.25952 0.81587 0.0
H785 H 0.65276 0.26677 0.89314 0.0
H786 H 0.68696 0.30722 0.80513 0.0
H787 H 0.70421 0.2856 0.80836 0.0
H788 H 0.68001 0.28236 0.79228 0.0
H789 H 0.668 0.29456 0.91457 0.0
H790 H 0.69479 0.29519 0.90503 0.0
H791 H 0.67796 0.31638 0.89753 0.0
H792 H 0.75312 0.31102 0.86216 0.0
H793 H 0.71089 0.36144 0.84833 0.0
H794 H 0.72002 0.27045 0.84617 0.0
H795 H 0.71707 0.27373 0.87828 0.0
H796 H 0.7424 0.27642 0.86464 0.0
H797 H 0.6683 0.33195 0.82992 0.0
H798 H 0.67494 0.35647 0.84381 0.0
H799 H 0.66503 0.3353 0.86194 0.0
C800 C 0.6445 0.28484 0.13249 0.0
C801 C 0.65079 0.2648 0.12562 0.0
C802 C 0.65888 0.30125 0.13369 0.0
C803 C 0.67994 0.29751 0.12763 0.0
C804 C 0.68629 0.27736 0.12037 0.0
C805 C 0.67165 0.26123 0.11957 0.0
C806 C 0.65161 0.32249 0.1417 0.0
C807 C 0.70858 0.2728 0.11356 0.0
C808 C 0.71646 0.34105 0.10916 0.0
C809 C 0.72889 0.34297 0.13 0.0
C810 C 0.69988 0.32688 0.10845 0.0
C811 C 0.69556 0.3145 0.12914 0.0
C812 C 0.70736 0.3172 0.15066 0.0
C813 C 0.72396 0.33135 0.15079 0.0
C814 C 0.68769 0.3244 0.08514 0.0
C815 C 0.70308 0.30445 0.17318 0.0
H816 H 0.62839 0.28764 0.13725 0.0
H817 H 0.67657 0.24579 0.11417 0.0
H818 H 0.66006 0.32723 0.15841 0.0
H819 H 0.65518 0.33418 0.12747 0.0
H820 H 0.63464 0.32289 0.14549 0.0
H821 H 0.71086 0.25642 0.10773 0.0
H822 H 0.71357 0.2832 0.09855 0.0
H823 H 0.71892 0.27592 0.12931 0.0
H824 H 0.72021 0.35 0.09304 0.0
H825 H 0.73347 0.33286 0.16699 0.0
H826 H 0.67076 0.32527 0.08882 0.0
H827 H 0.69086 0.30885 0.0772 0.0
H828 H 0.69178 0.33643 0.07144 0.0
H829 H 0.68633 0.30512 0.1779 0.0
H830 H 0.71229 0.30985 0.18908 0.0
H831 H 0.70699 0.28792 0.16964 0.0
C832 C 0.71526 0.65479 0.16107 0.0
C833 C 0.73196 0.65684 0.14488 0.0
C834 C 0.69987 0.67023 0.16258 0.0
C835 C 0.70107 0.68784 0.14717 0.0
C836 C 0.71767 0.68968 0.13039 0.0
C837 C 0.73303 0.67426 0.12965 0.0
C838 C 0.68261 0.66796 0.18099 0.0
C839 C 0.71929 0.70805 0.11335 0.0
C840 C 0.65369 0.72137 0.13461 0.0
C841 C 0.65823 0.73908 0.14845 0.0
C842 C 0.66722 0.70424 0.13451 0.0
C843 C 0.68544 0.70477 0.14898 0.0
C844 C 0.68953 0.72224 0.16388 0.0
C845 C 0.67598 0.7393 0.16322 0.0
C846 C 0.66254 0.68602 0.11807 0.0
C847 C 0.70858 0.72322 0.17992 0.0
H848 H 0.71448 0.64134 0.17292 0.0
H849 H 0.74586 0.67578 0.11697 0.0
H850 H 0.6832 0.68107 0.19411 0.0
H851 H 0.66727 0.66866 0.1718 0.0
H852 H 0.68367 0.65313 0.19128 0.0
H853 H 0.73255 0.70657 0.10051 0.0
H854 H 0.70474 0.70968 0.10266 0.0
H855 H 0.72131 0.72256 0.12398 0.0
H856 H 0.63999 0.72122 0.12311 0.0
H857 H 0.6794 0.75294 0.17411 0.0
H858 H 0.66304 0.67128 0.12852 0.0
H859 H 0.6746 0.68497 0.10369 0.0
H860 H 0.64707 0.68741 0.10921 0.0
H861 H 0.70973 0.70898 0.19124 0.0
H862 H 0.70844 0.737 0.1921 0.0
H863 H 0.72276 0.72393 0.16845 0.0
C864 C 0.27684 0.65413 0.15281 0.0
C865 C 0.26616 0.6509 0.13089 0.0
C866 C 0.29344 0.66826 0.15411 0.0
C867 C 0.29947 0.6793 0.13298 0.0
C868 C 0.28944 0.67526 0.11055 0.0
C869 C 0.27287 0.66113 0.10979 0.0
C870 C 0.3038 0.67214 0.17834 0.0
C871 C 0.29552 0.68662 0.08757 0.0
C872 C 0.32221 0.73338 0.13888 0.0
C873 C 0.34331 0.7298 0.13413 0.0
C874 C 0.30791 0.71696 0.13923 0.0
C875 C 0.31488 0.69645 0.13464 0.0
C876 C 0.33626 0.69264 0.13046 0.0
C877 C 0.35026 0.7094 0.13028 0.0
C878 C 0.28523 0.72165 0.14388 0.0
C879 C 0.34424 0.67097 0.12553 0.0
H880 H 0.27172 0.64623 0.16916 0.0
H881 H 0.26474 0.65858 0.09277 0.0
H882 H 0.32096 0.67141 0.17648 0.0
H883 H 0.29983 0.688 0.18481 0.0
H884 H 0.29884 0.66076 0.19239 0.0
H885 H 0.28746 0.68036 0.07126 0.0
H886 H 0.29157 0.70334 0.08938 0.0
H887 H 0.31255 0.68556 0.08463 0.0
H888 H 0.31677 0.74912 0.14198 0.0
H889 H 0.36658 0.70657 0.12663 0.0
H890 H 0.27938 0.71202 0.15916 0.0
H891 H 0.27591 0.71761 0.12755 0.0
H892 H 0.28252 0.73829 0.14828 0.0
H893 H 0.33914 0.6602 0.14012 0.0
H894 H 0.36147 0.67043 0.12424 0.0
H895 H 0.3376 0.66514 0.10819 0.0
C896 C 0.26324 0.33417 0.17114 0.0
C897 C 0.25922 0.34777 0.15178 0.0
C898 C 0.2792 0.31937 0.16963 0.0
C899 C 0.29128 0.31806 0.14816 0.0
C900 C 0.28799 0.33247 0.12906 0.0
C901 C 0.27201 0.34724 0.13115 0.0
C902 C 0.28237 0.30441 0.19049 0.0
C903 C 0.30049 0.33151 0.10585 0.0
C904 C 0.33991 0.28438 0.14874 0.0
C905 C 0.33221 0.26565 0.13931 0.0
C906 C 0.32683 0.30172 0.1516 0.0
C907 C 0.30568 0.30025 0.14466 0.0
C908 C 0.29796 0.28145 0.13477 0.0
C909 C 0.31129 0.26437 0.13232 0.0
C910 C 0.33553 0.32148 0.16237 0.0
C911 C 0.27552 0.2793 0.12697 0.0
H912 H 0.25348 0.33463 0.1872 0.0
H913 H 0.26897 0.35775 0.11614 0.0
H914 H 0.2774 0.2886 0.18488 0.0
H915 H 0.29908 0.3035 0.19542 0.0
H916 H 0.27335 0.30896 0.20688 0.0
H917 H 0.29758 0.34514 0.09391 0.0
H918 H 0.31736 0.33071 0.10997 0.0
H919 H 0.29638 0.31719 0.09568 0.0
H920 H 0.35608 0.2854 0.1542 0.0
H921 H 0.30529 0.24995 0.12492 0.0
H922 H 0.32727 0.3252 0.17955 0.0
H923 H 0.33293 0.33468 0.14974 0.0
H924 H 0.35244 0.32026 0.16627 0.0
H925 H 0.26513 0.28164 0.14285 0.0
H926 H 0.27216 0.26381 0.11894 0.0
H927 H 0.27161 0.29143 0.11337 0.0
C928 C 0.95466 0.25949 0.3503 0.0
C929 C 0.94554 0.27811 0.35817 0.0
C930 C 0.97631 0.25667 0.35133 0.0
C931 C 0.98899 0.27278 0.36069 0.0
C932 C 0.97981 0.29155 0.36879 0.0
C933 C 0.95821 0.29402 0.36731 0.0
C934 C 0.98561 0.23654 0.34232 0.0
C935 C 0.9928 0.30903 0.37908 0.0
C936 C 0.04301 0.26273 0.38567 0.0
C937 C 0.05548 0.27112 0.36722 0.0
C938 C 0.02128 0.26231 0.38335 0.0
C939 C 0.01192 0.27027 0.36198 0.0
C940 C 0.02453 0.27766 0.34273 0.0
C941 C 0.04619 0.2781 0.34565 0.0
C942 C 0.00833 0.25442 0.40432 0.0
C943 C 0.01512 0.28604 0.31954 0.0
H944 H 0.9449 0.24717 0.34319 0.0
H945 H 0.95121 0.30841 0.37352 0.0
H946 H 0.99678 0.23975 0.32741 0.0
H947 H 0.99442 0.22887 0.35718 0.0
H948 H 0.9736 0.22557 0.33553 0.0
H949 H 0.98319 0.32247 0.38498 0.0
H950 H 0.00189 0.30338 0.39492 0.0
H951 H 0.00408 0.3145 0.36523 0.0
H952 H 0.05015 0.25731 0.40238 0.0
H953 H 0.05581 0.28447 0.33126 0.0
H954 H 0.99669 0.24298 0.39782 0.0
H955 H -0.00034 0.26756 0.41257 0.0
H956 H 0.01798 0.247 0.41867 0.0
H957 H 0.00353 0.27494 0.31215 0.0
H958 H 0.02706 0.28908 0.30537 0.0
H959 H 0.00683 0.3008 0.32343 0.0
C960 C 0.71688 0.04842 0.33259 0.0
C961 C 0.72105 0.06048 0.35325 0.0
C962 C 0.71866 0.02669 0.33333 0.0
C963 C 0.7244 0.01685 0.35537 0.0
C964 C 0.72937 0.02903 0.37603 0.0
C965 C 0.72779 0.05074 0.37465 0.0
C966 C 0.71358 0.01424 0.31081 0.0
C967 C 0.73531 0.01908 0.39993 0.0
C968 C 0.70334 0.96267 0.36632 0.0
C969 C 0.72098 0.95033 0.36243 0.0
C970 C 0.70431 0.98434 0.36411 0.0
C971 C 0.72332 0.99386 0.35748 0.0
C972 C 0.74114 0.98147 0.35317 0.0
C973 C 0.7398 0.95979 0.3559 0.0
C974 C 0.68503 0.99705 0.36917 0.0
C975 C 0.76156 0.9911 0.3457 0.0
H976 H 0.71181 0.05593 0.31595 0.0
H977 H 0.731 0.06004 0.39067 0.0
H978 H 0.72603 0.00272 0.30712 0.0
H979 H 0.69895 0.00544 0.31374 0.0
H980 H 0.71161 0.02426 0.29451 0.0
H981 H 0.7402 0.03074 0.41371 0.0
H982 H 0.72184 0.0103 0.40725 0.0
H983 H 0.74816 0.00782 0.39725 0.0
H984 H 0.68879 0.9554 0.37149 0.0
H985 H 0.75344 0.95026 0.35279 0.0
H986 H 0.68074 0.00621 0.35282 0.0
H987 H 0.68813 0.00827 0.38408 0.0
H988 H 0.67154 0.98723 0.37441 0.0
H989 H 0.75944 0.00041 0.32889 0.0
H990 H 0.7738 0.97924 0.34239 0.0
H991 H 0.76708 0.00187 0.36008 0.0
C992 C 0.0409 0.73381 0.34422 0.0
C993 C 0.05069 0.71897 0.35898 0.0
C994 C 0.01913 0.73522 0.3433 0.0
C995 C 0.00699 0.7217 0.35783 0.0
C996 C 0.01685 0.70698 0.37313 0.0
C997 C 0.0386 0.70567 0.37335 0.0
C998 C 0.00913 0.75087 0.3265 0.0
C999 C 0.00442 0.69251 0.38916 0.0
C1000 C 0.95089 0.73432 0.37325 0.0
C1001 C 0.9402 0.72034 0.35822 0.0
C1002 C 0.97268 0.73543 0.3728 0.0
C1003 C 0.98393 0.72245 0.35668 0.0
C1004 C 0.97313 0.70905 0.34064 0.0
C1005 C 0.95138 0.70805 0.34173 0.0
C1006 C 0.98369 0.74977 0.39033 0.0
C1007 C 0.98458 0.69521 0.32294 0.0
H1008 H 0.05026 0.74406 0.33302 0.0
H1009 H 0.04615 0.69427 0.3849 0.0
H1010 H -0.00062 0.74269 0.31287 0.0
H1011 H 0.99872 0.76132 0.33695 0.0
H1012 H 0.02079 0.76049 0.31673 0.0
H1013 H 0.0145 0.68257 0.40076 0.0
H1014 H 0.99391 0.70161 0.4011 0.0
H1015 H 0.99453 0.68228 0.37776 0.0
H1016 H 0.94229 0.74381 0.38606 0.0
H1017 H 0.94313 0.69733 0.32996 0.0
H1018 H 0.99496 0.75974 0.38049 0.0
H1019 H 0.99264 0.74041 0.40368 0.0
H1020 H 0.97268 0.7599 0.40043 0.0
H1021 H 0.99585 0.70446 0.31215 0.0
H1022 H 0.97385 0.68713 0.31023 0.0
H1023 H 0.99357 0.68332 0.3331 0.0
C1024 C 0.2742 0.9443 0.32976 0.0
C1025 C 0.27664 0.93465 0.35246 0.0
C1026 C 0.27218 0.96598 0.32796 0.0
C1027 C 0.27283 0.97822 0.34936 0.0
C1028 C 0.27454 0.96847 0.37236 0.0
C1029 C 0.27633 0.94678 0.37363 0.0
C1030 C 0.27014 0.97584 0.30315 0.0
C1031 C 0.2754 0.98099 0.39559 0.0
C1032 C 0.29345 0.03332 0.34711 0.0
C1033 C 0.27519 0.04501 0.34962 0.0
C1034 C 0.29279 0.01156 0.34616 0.0
C1035 C 0.27339 0.00126 0.34775 0.0
C1036 C 0.25482 0.013 0.3494 0.0
C1037 C 0.25594 0.03479 0.35034 0.0
C1038 C 0.31295 -0.00042 0.34437 0.0
C1039 C 0.23386 0.00253 0.35101 0.0
H1040 H 0.27433 0.93495 0.31336 0.0
H1041 H 0.27819 0.93939 0.39123 0.0
H1042 H 0.25688 0.98688 0.30287 0.0
H1043 H 0.2844 0.98487 0.29898 0.0
H1044 H 0.26782 0.9641 0.28858 0.0
H1045 H 0.27548 0.97098 0.41206 0.0
H1046 H 0.28966 0.9907 0.39573 0.0
H1047 H 0.26189 0.99168 0.39665 0.0
H1048 H 0.30836 0.04115 0.34644 0.0
H1049 H 0.24178 0.04379 0.35223 0.0
H1050 H 0.31234 0.98857 0.32886 0.0
H1051 H 0.31528 0.99026 0.36114 0.0
H1052 H 0.32661 0.00995 0.34195 0.0
H1053 H 0.23205 0.99107 0.33608 0.0
H1054 H 0.22084 0.01386 0.35008 0.0
H1055 H 0.23269 0.99387 0.36841 0.0
C1056 C 0.04643 0.73503 0.62758 0.0
C1057 C 0.05728 0.72173 0.64331 0.0
C1058 C 0.02465 0.73606 0.6281 0.0
C1059 C 0.01356 0.72366 0.64496 0.0
C1060 C 0.0245 0.71104 0.66173 0.0
C1061 C 0.04627 0.71012 0.6606 0.0
C1062 C 0.01351 0.74957 0.6098 0.0
C1063 C 0.0132 0.69783 0.68019 0.0
C1064 C 0.95631 0.73498 0.6557 0.0
C1065 C 0.94688 0.71964 0.64133 0.0
C1066 C 0.97806 0.73649 0.65716 0.0
C1067 C 0.99054 0.72252 0.64365 0.0
C1068 C 0.98105 0.7072 0.62885 0.0
C1069 C 0.95932 0.70586 0.62801 0.0
C1070 C 0.98767 0.75284 0.67333 0.0
C1071 C 0.99384 0.69219 0.61392 0.0
H1072 H 0.05489 0.74403 0.61417 0.0
H1073 H 0.05464 0.69992 0.67289 0.0
H1074 H 0.00478 0.73961 0.59687 0.0
H1075 H 0.00203 0.75973 0.61905 0.0
H1076 H 0.0244 0.7595 0.59926 0.0
H1077 H 0.02399 0.69053 0.69346 0.0
H1078 H 0.00168 0.70734 0.69029 0.0
H1079 H 0.0045 0.68532 0.67071 0.0
H1080 H 0.9467 0.7456 0.66609 0.0
H1081 H 0.95207 0.69405 0.61679 0.0
H1082 H 0.99794 0.76313 0.66248 0.0
H1083 H 0.99751 0.7453 0.68738 0.0
H1084 H 0.97578 0.76257 0.68257 0.0
H1085 H 0.00429 0.7009 0.6015 0.0
H1086 H 0.98403 0.68156 0.60289 0.0
H1087 H 0.00383 0.68269 0.62607 0.0
C1088 C 0.2908 0.95615 0.61119 0.0
C1089 C 0.28135 0.94356 0.6288 0.0
C1090 C 0.28989 0.97787 0.61285 0.0
C1091 C 0.2796 0.98718 0.63284 0.0
C1092 C 0.26985 0.97453 0.65057 0.0
C1093 C 0.2707 0.95283 0.64822 0.0
C1094 C 0.30019 0.99086 0.59339 0.0
C1095 C 0.25901 0.98393 0.67231 0.0
C1096 C 0.29765 0.04167 0.64822 0.0
C1097 C 0.28193 0.05382 0.63776 0.0
C1098 C 0.2967 0.01991 0.64746 0.0
C1099 C 0.2798 0.01013 0.63559 0.0
C1100 C 0.26367 0.02233 0.62538 0.0
C1101 C 0.26485 0.04408 0.62677 0.0
C1102 C 0.31402 0.0074 0.6589 0.0
C1103 C 0.24555 0.01242 0.61231 0.0
H1104 H 0.29892 0.94901 0.59606 0.0
H1105 H 0.26345 0.9431 0.6619 0.0
H1106 H 0.28889 0.00211 0.58566 0.0
H1107 H 0.3131 0.0 0.60145 0.0
H1108 H 0.30655 0.98123 0.57835 0.0
H1109 H 0.25167 0.97195 0.68407 0.0
H1110 H 0.27035 0.99285 0.68337 0.0
H1111 H 0.24684 0.995 0.66625 0.0
H1112 H 0.31081 0.04918 0.65687 0.0
H1113 H 0.25271 0.05347 0.6186 0.0
H1114 H 0.32252 0.99869 0.64461 0.0
H1115 H 0.30751 0.99581 0.67176 0.0
H1116 H 0.3253 0.01735 0.66884 0.0
H1117 H 0.25126 0.00388 0.59609 0.0
H1118 H 0.23386 0.02406 0.6063 0.0
H1119 H 0.23779 0.00093 0.62429 0.0
C1120 C 0.04817 0.2939 0.63012 0.0
C1121 C 0.06001 0.28272 0.64705 0.0
C1122 C 0.02648 0.29192 0.62939 0.0
C1123 C 0.01641 0.27868 0.64626 0.0
C1124 C 0.0283 0.26729 0.66336 0.0
C1125 C 0.05003 0.26934 0.66343 0.0
C1126 C 0.01434 0.30411 0.61067 0.0
C1127 C 0.01804 0.25323 0.68179 0.0
C1128 C 0.95975 0.2916 0.65747 0.0
C1129 C 0.9497 0.27712 0.64249 0.0
C1130 C 0.98147 0.29174 0.65962 0.0
C1131 C 0.99338 0.27721 0.64621 0.0
C1132 C 0.98328 0.26215 0.63162 0.0
C1133 C 0.96151 0.26221 0.63004 0.0
C1134 C 0.99169 0.30785 0.67563 0.0
C1135 C 0.99549 0.24654 0.61689 0.0
H1136 H 0.05587 0.30416 0.61733 0.0
H1137 H 0.05917 0.26072 0.67659 0.0
H1138 H 0.00467 0.29343 0.59957 0.0
H1139 H 0.00362 0.31509 0.61989 0.0
H1140 H 0.0246 0.31312 0.59829 0.0
H1141 H 0.02954 0.24521 0.69361 0.0
H1142 H 0.00741 0.26245 0.69347 0.0
H1143 H 0.00848 0.24133 0.67241 0.0
H1144 H 0.95064 0.30308 0.66723 0.0
H1145 H 0.95377 0.25101 0.61841 0.0
H1146 H 0.00079 0.31881 0.66424 0.0
H1147 H 0.00271 0.3003 0.6884 0.0
H1148 H 0.98018 0.31692 0.68633 0.0
H1149 H 0.00478 0.25478 0.60287 0.0
H1150 H 0.98528 0.23507 0.60765 0.0
H1151 H 0.00658 0.23804 0.62873 0.0
C1152 C 0.73225 0.03811 0.6196 0.0
C1153 C 0.71651 0.05032 0.62989 0.0
C1154 C 0.73193 0.01638 0.62192 0.0
C1155 C 0.71584 0.00682 0.63548 0.0
C1156 C 0.70021 0.01918 0.64642 0.0
C1157 C 0.70056 0.04079 0.64317 0.0
C1158 C 0.74852 0.00365 0.60943 0.0
C1159 C 0.6831 0.00958 0.66151 0.0
C1160 C 0.70125 0.95067 0.62354 0.0
C1161 C 0.71203 0.94033 0.64209 0.0
C1162 C 0.7028 0.97227 0.62082 0.0
C1163 C 0.7149 0.98382 0.63755 0.0
C1164 C 0.72571 0.97345 0.65645 0.0
C1165 C 0.72441 0.95171 0.65826 0.0
C1166 C 0.69152 0.98271 0.60004 0.0
C1167 C 0.7383 0.98533 0.675 0.0
H1168 H 0.74453 0.04552 0.60924 0.0
H1169 H 0.68851 0.05029 0.65133 0.0
H1170 H 0.75699 0.99404 0.62294 0.0
H1171 H 0.7412 0.99283 0.59624 0.0
H1172 H 0.75994 0.0135 0.59957 0.0
H1173 H 0.67291 0.02148 0.67002 0.0
H1174 H 0.67336 -0.00067 0.64996 0.0
H1175 H 0.6899 -0.00025 0.67609 0.0
H1176 H 0.69185 0.9418 0.61088 0.0
H1177 H 0.73265 0.94366 0.67267 0.0
H1178 H 0.7026 0.99205 0.58909 0.0
H1179 H 0.67961 0.99355 0.60724 0.0
H1180 H 0.68371 0.97134 0.58786 0.0
H1181 H 0.7507 0.99437 0.66581 0.0
H1182 H 0.74562 0.97494 0.68869 0.0
H1183 H 0.72817 0.99663 0.68461 0.0
C1184 C 0.54199 0.7795 0.84282 0.0
C1185 C 0.55206 0.76722 0.86027 0.0
C1186 C 0.52028 0.77937 0.8407 0.0
C1187 C 0.50839 0.7668 0.85661 0.0
C1188 C 0.51854 0.75349 0.87335 0.0
C1189 C 0.54032 0.75379 0.87492 0.0
C1190 C 0.51004 0.7936 0.8224 0.0
C1191 C 0.50637 0.73991 0.89066 0.0
C1192 C 0.45551 0.78869 0.8726 0.0
C1193 C 0.44229 0.77692 0.85775 0.0
C1194 C 0.47698 0.78514 0.87279 0.0
C1195 C 0.48547 0.76951 0.85763 0.0
C1196 C 0.47218 0.7573 0.84288 0.0
C1197 C 0.45067 0.76112 0.84316 0.0
C1198 C 0.49063 0.79842 0.8889 0.0
C1199 C 0.48074 0.74057 0.82644 0.0
H1200 H 0.55104 0.78976 0.8313 0.0
H1201 H 0.54808 0.74424 0.88841 0.0
H1202 H 0.49812 0.78504 0.8118 0.0
H1203 H 0.502 0.80642 0.83209 0.0
H1204 H 0.52145 0.8005 0.80956 0.0
H1205 H 0.5165 0.72866 0.9004 0.0
H1206 H 0.49846 0.74984 0.90433 0.0
H1207 H 0.49414 0.73118 0.88076 0.0
H1208 H 0.44908 0.80084 0.88401 0.0
H1209 H 0.44047 0.75198 0.83167 0.0
H1210 H 0.50149 0.80766 0.87753 0.0
H1211 H 0.50018 0.78842 0.90097 0.0
H1212 H 0.48147 0.8093 0.90037 0.0
H1213 H 0.49093 0.74768 0.81244 0.0
H1214 H 0.46824 0.7317 0.81711 0.0
H1215 H 0.49043 0.72955 0.83705 0.0
C1216 C 0.23391 0.44977 0.85495 0.0
C1217 C 0.22289 0.44165 0.87477 0.0
C1218 C 0.23521 0.47133 0.85124 0.0
C1219 C 0.22557 0.48496 0.86804 0.0
C1220 C 0.21502 0.4768 0.88851 0.0
C1221 C 0.21363 0.45522 0.89149 0.0
C1222 C 0.24631 0.4795 0.82902 0.0
C1223 C 0.20487 0.49085 0.90707 0.0
C1224 C 0.24076 0.54188 0.87134 0.0
C1225 C 0.22367 0.55138 0.86008 0.0
C1226 C 0.24189 0.52017 0.87356 0.0
C1227 C 0.22571 0.50776 0.86386 0.0
C1228 C 0.20886 0.51728 0.85157 0.0
C1229 C 0.20793 0.53901 0.85004 0.0
C1230 C 0.25992 0.51059 0.88713 0.0
C1231 C 0.1915 0.50452 0.84062 0.0
H1232 H 0.241 0.43926 0.84195 0.0
H1233 H 0.20523 0.44896 0.90694 0.0
H1234 H 0.23511 0.48791 0.81721 0.0
H1235 H 0.2585 0.4908 0.83441 0.0
H1236 H 0.25365 0.46688 0.81822 0.0
H1237 H 0.1984 0.48204 0.92271 0.0
H1238 H 0.21631 0.5023 0.91404 0.0
H1239 H 0.19208 0.49974 0.89839 0.0
H1240 H 0.25292 0.55144 0.87918 0.0
H1241 H 0.19479 0.54634 0.84115 0.0
H1242 H 0.26743 0.49839 0.8759 0.0
H1243 H 0.25415 0.50297 0.90394 0.0
H1244 H 0.27183 0.5223 0.89228 0.0
H1245 H 0.19797 0.49226 0.82862 0.0
H1246 H 0.18049 0.51418 0.82989 0.0
H1247 H 0.18269 0.49662 0.8553 0.0
C1248 C 0.46441 0.2007 0.8583 0.0
C1249 C 0.45227 0.21767 0.85096 0.0
C1250 C 0.48612 0.20128 0.85657 0.0
C1251 C 0.49593 0.21921 0.84703 0.0
C1252 C 0.48375 0.23624 0.83903 0.0
C1253 C 0.46201 0.23531 0.84122 0.0
C1254 C 0.49859 0.18287 0.86547 0.0
C1255 C 0.4937 0.2555 0.82853 0.0
C1256 C 0.55163 0.2263 0.86765 0.0
C1257 C 0.56264 0.21724 0.84838 0.0
C1258 C 0.5299 0.22785 0.86699 0.0
C1259 C 0.51898 0.22029 0.84645 0.0
C1260 C 0.53009 0.21211 0.82639 0.0
C1261 C 0.55184 0.21059 0.82764 0.0
C1262 C 0.51859 0.23657 0.8888 0.0
C1263 C 0.51897 0.20413 0.80408 0.0
H1264 H 0.45694 0.18703 0.86586 0.0
H1265 H 0.45265 0.24843 0.83543 0.0
H1266 H 0.5087 0.17693 0.85068 0.0
H1267 H 0.50888 0.18774 0.88064 0.0
H1268 H 0.48854 0.16995 0.87194 0.0
H1269 H 0.482 0.26688 0.82189 0.0
H1270 H 0.50345 0.26316 0.84256 0.0
H1271 H 0.5041 0.25125 0.81321 0.0
H1272 H 0.55992 0.23152 0.88371 0.0
H1273 H 0.56032 0.20368 0.81264 0.0
H1274 H 0.50938 0.22408 0.89761 0.0
H1275 H 0.50753 0.24887 0.88306 0.0
H1276 H 0.52942 0.24322 0.9025 0.0
H1277 H 0.51015 0.18986 0.80878 0.0
H1278 H 0.52991 0.20038 0.78907 0.0
H1279 H 0.50758 0.2158 0.79747 0.0
C1280 C 0.79469 0.45317 0.83096 0.0
C1281 C 0.78057 0.44278 0.84606 0.0
C1282 C 0.79493 0.47495 0.82977 0.0
C1283 C 0.78114 0.48649 0.84463 0.0
C1284 C 0.76646 0.47602 0.85939 0.0
C1285 C 0.76616 0.45423 0.85966 0.0
C1286 C 0.81041 0.48559 0.81331 0.0
C1287 C 0.75184 0.48779 0.87591 0.0
C1288 C 0.79947 0.53934 0.8659 0.0
C1289 C 0.78693 0.55273 0.85217 0.0
C1290 C 0.79771 0.51775 0.86356 0.0
C1291 C 0.78344 0.50938 0.84658 0.0
C1292 C 0.77114 0.52284 0.83213 0.0
C1293 C 0.77282 0.54444 0.83536 0.0
C1294 C 0.81077 0.5039 0.8797 0.0
C1295 C 0.75618 0.51443 0.81339 0.0
H1296 H 0.80569 0.44426 0.82024 0.0
H1297 H 0.75529 0.44617 0.87141 0.0
H1298 H 0.80262 0.49783 0.80239 0.0
H1299 H 0.82255 0.4933 0.82446 0.0
H1300 H 0.81815 0.47448 0.80075 0.0
H1301 H 0.74055 0.47737 0.88513 0.0
H1302 H 0.76096 0.49612 0.89002 0.0
H1303 H 0.74309 0.49967 0.86546 0.0
H1304 H 0.81029 0.54575 0.87905 0.0
H1305 H 0.7632 0.55483 0.82465 0.0
H1306 H 0.82075 0.49366 0.86843 0.0
H1307 H 0.80054 0.49371 0.89074 0.0
H1308 H 0.8209 0.51293 0.89221 0.0
H1309 H 0.76446 0.50383 0.80074 0.0
H1310 H 0.74867 0.52699 0.80265 0.0
H1311 H 0.74386 0.50519 0.82247 0.0
C1312 C 0.44536 0.21408 0.15498 0.0
C1313 C 0.43357 0.22315 0.13633 0.0
C1314 C 0.46714 0.21487 0.15459 0.0
C1315 C 0.47734 0.22475 0.13492 0.0
C1316 C 0.46551 0.2345 0.11643 0.0
C1317 C 0.44372 0.23368 0.11742 0.0
C1318 C 0.47924 0.20453 0.17481 0.0
C1319 C 0.47585 0.24504 0.09507 0.0
C1320 C 0.5347 0.23788 0.14118 0.0
C1321 C 0.54399 0.22071 0.12985 0.0
C1322 C 0.51298 0.23946 0.14298 0.0
C1323 C 0.50035 0.22363 0.1329 0.0
C1324 C 0.50968 0.20641 0.12115 0.0
C1325 C 0.53141 0.20509 0.11993 0.0
C1326 C 0.50356 0.25791 0.15591 0.0
C1327 C 0.49672 0.18933 0.10993 0.0
H1328 H 0.43756 0.20602 0.1697 0.0
H1329 H 0.43464 0.24067 0.10295 0.0
H1330 H 0.48792 0.191 0.16747 0.0
H1331 H 0.49084 0.21548 0.18248 0.0
H1332 H 0.46899 0.19901 0.18974 0.0
H1333 H 0.46447 0.253 0.08305 0.0
H1334 H 0.48737 0.25662 0.10153 0.0
H1335 H 0.48443 0.23333 0.08416 0.0
H1336 H 0.54442 0.24996 0.14893 0.0
H1337 H 0.53855 0.19184 0.11103 0.0
H1338 H 0.49419 0.25251 0.17164 0.0
H1339 H 0.49287 0.26633 0.1435 0.0
H1340 H 0.51554 0.26896 0.16258 0.0
H1341 H 0.48721 0.18166 0.12416 0.0
H1342 H 0.50639 0.17733 0.1008 0.0
H1343 H 0.48581 0.19601 0.09636 0.0
C1344 C 0.75368 0.53819 0.13798 0.0
C1345 C 0.77266 0.54775 0.14367 0.0
C1346 C 0.75215 0.51645 0.13634 0.0
C1347 C 0.76999 0.50408 0.14061 0.0
C1348 C 0.78902 0.51366 0.14708 0.0
C1349 C 0.79013 0.53539 0.14846 0.0
C1350 C 0.73162 0.50677 0.12933 0.0
C1351 C 0.80837 0.50099 0.15192 0.0
C1352 C 0.76616 0.44627 0.15389 0.0
C1353 C 0.7721 0.43772 0.13149 0.0
C1354 C 0.76468 0.4679 0.15696 0.0
C1355 C 0.7692 0.48119 0.13712 0.0
C1356 C 0.77439 0.47258 0.11421 0.0
C1357 C 0.77582 0.45094 0.11169 0.0
C1358 C 0.75911 0.47653 0.18165 0.0
C1359 C 0.7792 0.48624 0.09257 0.0
H1360 H 0.74014 0.54771 0.13426 0.0
H1361 H 0.80482 0.54271 0.15297 0.0
H1362 H 0.73315 0.4989 0.11146 0.0
H1363 H 0.72712 0.49474 0.1428 0.0
H1364 H 0.71893 0.51845 0.12807 0.0
H1365 H 0.82163 0.51076 0.158 0.0
H1366 H 0.80522 0.4891 0.16608 0.0
H1367 H 0.81301 0.49261 0.13514 0.0
H1368 H 0.76325 0.4361 0.16924 0.0
H1369 H 0.78032 0.44439 0.0943 0.0
H1370 H 0.74621 0.4879 0.18002 0.0
H1371 H 0.77267 0.48494 0.18934 0.0
H1372 H 0.75443 0.46415 0.19464 0.0
H1373 H 0.76641 0.49752 0.08954 0.0
H1374 H 0.78153 0.4771 0.07564 0.0
H1375 H 0.79353 0.49534 0.09619 0.0
C1376 C 0.45835 0.76264 0.14299 0.0
C1377 C 0.44823 0.77816 0.12955 0.0
C1378 C 0.48009 0.76249 0.14518 0.0
C1379 C 0.4919 0.77809 0.13341 0.0
C1380 C 0.48176 0.79352 0.11937 0.0
C1381 C 0.46002 0.79344 0.11773 0.0
C1382 C 0.49038 0.74592 0.16048 0.0
C1383 C 0.49387 0.81028 0.10634 0.0
C1384 C 0.54541 0.79254 0.15679 0.0
C1385 C 0.55836 0.78232 0.14014 0.0
C1386 C 0.52373 0.7908 0.1552 0.0
C1387 C 0.51483 0.77875 0.13634 0.0
C1388 C 0.52784 0.76807 0.11975 0.0
C1389 C 0.5495 0.76989 0.12194 0.0
C1390 C 0.51034 0.80223 0.17339 0.0
C1391 C 0.51887 0.75522 0.0993 0.0
H1392 H 0.44926 0.75083 0.15219 0.0
H1393 H 0.45223 0.80539 0.10722 0.0
H1394 H 0.50206 0.73736 0.14952 0.0
H1395 H 0.49877 0.75325 0.17589 0.0
H1396 H 0.47901 0.73457 0.16791 0.0
H1397 H 0.48369 0.82059 0.09532 0.0
H1398 H 0.50237 0.81995 0.11976 0.0
H1399 H 0.50564 0.80315 0.09416 0.0
H1400 H 0.55223 0.80208 0.17095 0.0
H1401 H 0.55948 0.76201 0.10899 0.0
H1402 H 0.49934 0.79129 0.18221 0.0
H1403 H 0.50093 0.81421 0.16391 0.0
H1404 H 0.51971 0.80999 0.18775 0.0
H1405 H 0.50803 0.74337 0.10663 0.0
H1406 H 0.53111 0.7472 0.08855 0.0
H1407 H 0.50979 0.76536 0.08689 0.0
C1408 C 0.19986 0.45946 0.13881 0.0
C1409 C 0.21533 0.44637 0.1482 0.0
C1410 C 0.20273 0.48102 0.13789 0.0
C1411 C 0.22145 0.48973 0.14681 0.0
C1412 C 0.2372 0.47661 0.15622 0.0
C1413 C 0.23398 0.45501 0.15669 0.0
C1414 C 0.18565 0.49449 0.12748 0.0
C1415 C 0.25727 0.4854 0.16604 0.0
C1416 C 0.23195 0.54437 0.12421 0.0
C1417 C 0.2231 0.55631 0.14286 0.0
C1418 C 0.2325 0.5226 0.12577 0.0
C1419 C 0.22416 0.51265 0.14657 0.0
C1420 C 0.21639 0.52472 0.16608 0.0
C1421 C 0.21586 0.54644 0.16394 0.0
C1422 C 0.24084 0.51025 0.10455 0.0
C1423 C 0.20759 0.51467 0.18867 0.0
H1424 H 0.18546 0.45283 0.13211 0.0
H1425 H 0.24596 0.44491 0.16399 0.0
H1426 H 0.1799 0.50539 0.1416 0.0
H1427 H 0.19179 0.504 0.11225 0.0
H1428 H 0.17229 0.4852 0.12069 0.0
H1429 H 0.26812 0.47306 0.17229 0.0
H1430 H 0.26514 0.49482 0.15186 0.0
H1431 H 0.25394 0.49592 0.18156 0.0
H1432 H 0.2376 0.55195 0.10789 0.0
H1433 H 0.20915 0.55564 0.17848 0.0
H1434 H 0.22783 0.50208 0.09537 0.0
H1435 H 0.25193 0.49822 0.11094 0.0
H1436 H 0.2488 0.52028 0.09098 0.0
H1437 H 0.19284 0.50662 0.18409 0.0
H1438 H 0.20438 0.5262 0.20325 0.0
H1439 H 0.21849 0.50278 0.19583 0.0
C1440 C 0.10777 0.30889 0.46574 0.0
C1441 C 0.12446 0.31054 0.44946 0.0
C1442 C 0.11072 0.31168 0.49078 0.0
C1443 C 0.13081 0.31649 0.49973 0.0
C1444 C 0.14727 0.32011 0.48316 0.0
C1445 C 0.14394 0.31692 0.45816 0.0
C1446 C 0.09272 0.30764 0.50779 0.0
C1447 C 0.16875 0.32585 0.49192 0.0
C1448 C 0.13218 0.32696 0.56782 0.0
C1449 C 0.1364 0.30698 0.5768 0.0
C1450 C 0.13162 0.33078 0.5426 0.0
C1451 C 0.1351 0.31415 0.52619 0.0
C1452 C 0.14057 0.29429 0.53527 0.0
C1453 C 0.14127 0.29101 0.56042 0.0
C1454 C 0.12624 0.35228 0.5336 0.0
C1455 C 0.1444 0.27609 0.51846 0.0
H1456 H 0.09262 0.30414 0.4591 0.0
H1457 H 0.15685 0.31845 0.4456 0.0
H1458 H 0.0955 0.29293 0.51786 0.0
H1459 H 0.09138 0.32027 0.52142 0.0
H1460 H 0.0777 0.30628 0.49792 0.0
H1461 H 0.17848 0.33224 0.47699 0.0
H1462 H 0.16791 0.33745 0.50682 0.0
H1463 H 0.17658 0.3118 0.49924 0.0
H1464 H 0.12853 0.3394 0.58041 0.0
H1465 H 0.14474 0.27557 0.56724 0.0
H1466 H 0.10987 0.3525 0.52724 0.0
H1467 H 0.13621 0.35666 0.51794 0.0
H1468 H 0.12799 0.36416 0.54813 0.0
H1469 H 0.12986 0.27224 0.50856 0.0
H1470 H 0.14969 0.26201 0.5284 0.0
H1471 H 0.15631 0.28016 0.50467 0.0
C1472 C 0.71038 0.11614 0.53199 0.0
C1473 C 0.69686 0.12237 0.5506 0.0
C1474 C 0.70514 0.11883 0.50748 0.0
C1475 C 0.68584 0.128 0.50128 0.0
C1476 C 0.67194 0.13415 0.51994 0.0
C1477 C 0.67763 0.13126 0.54447 0.0
C1478 C 0.72046 0.11201 0.48819 0.0
C1479 C 0.65123 0.14393 0.514 0.0
C1480 C 0.68888 0.14986 0.43765 0.0
C1481 C 0.68212 0.1328 0.42387 0.0
C1482 C 0.68829 0.14937 0.46316 0.0
C1483 C 0.68081 0.13136 0.47513 0.0
C1484 C 0.67203 0.115 0.46127 0.0
C1485 C 0.67277 0.11593 0.43575 0.0
C1486 C 0.6976 0.16726 0.47721 0.0
C1487 C 0.6637 0.09561 0.47328 0.0
H1488 H 0.72525 0.10921 0.53657 0.0
H1489 H 0.66712 0.13609 0.5588 0.0
H1490 H 0.71306 0.10054 0.47585 0.0
H1491 H 0.72517 0.12556 0.47697 0.0
H1492 H 0.73467 0.10488 0.49609 0.0
H1493 H 0.64184 0.14708 0.53055 0.0
H1494 H 0.65369 0.15879 0.50416 0.0
H1495 H 0.64221 0.13361 0.50175 0.0
H1496 H 0.69593 0.16306 0.42856 0.0
H1497 H 0.66738 0.10274 0.42521 0.0
H1498 H 0.71322 0.16273 0.48397 0.0
H1499 H 0.6879 0.17115 0.49326 0.0
H1500 H 0.69931 0.18139 0.46575 0.0
H1501 H 0.67692 0.08585 0.47947 0.0
H1502 H 0.65403 0.08626 0.46061 0.0
H1503 H 0.65428 0.09957 0.48953 0.0
C1504 C 0.8503 0.68714 0.45065 0.0
C1505 C 0.86949 0.68551 0.4387 0.0
C1506 C 0.84911 0.68617 0.47614 0.0
C1507 C 0.86758 0.68371 0.48989 0.0
C1508 C 0.88669 0.68019 0.47777 0.0
C1509 C 0.88739 0.68105 0.45229 0.0
C1510 C 0.82838 0.68958 0.48835 0.0
C1511 C 0.90674 0.67747 0.49171 0.0
C1512 C 0.87253 0.71369 0.54884 0.0
C1513 C 0.87102 0.69793 0.56636 0.0
C1514 C 0.87092 0.70923 0.524 0.0
C1515 C 0.86763 0.68846 0.51638 0.0
C1516 C 0.86545 0.67251 0.53398 0.0
C1517 C 0.86722 0.67744 0.55884 0.0
C1518 C 0.8733 0.72674 0.50586 0.0
C1519 C 0.86177 0.65024 0.52652 0.0
H1520 H 0.83637 0.69039 0.44022 0.0
H1521 H 0.90226 0.67961 0.44315 0.0
H1522 H 0.82641 0.67887 0.504 0.0
H1523 H 0.82763 0.7057 0.49547 0.0
H1524 H 0.81522 0.68731 0.47552 0.0
H1525 H 0.9196 0.67194 0.47987 0.0
H1526 H 0.91137 0.69259 0.49979 0.0
H1527 H 0.90469 0.66628 0.50687 0.0
H1528 H 0.87536 0.72958 0.55452 0.0
H1529 H 0.866 0.66521 0.57234 0.0
H1530 H 0.85949 0.72747 0.4938 0.0
H1531 H 0.88706 0.72386 0.49417 0.0
H1532 H 0.87522 0.7421 0.51482 0.0
H1533 H 0.84865 0.64928 0.51346 0.0
H1534 H 0.85834 0.64007 0.54236 0.0
H1535 H 0.87577 0.64413 0.51714 0.0
C1536 C 0.3248 0.86212 0.54609 0.0
C1537 C 0.30466 0.86836 0.55265 0.0
C1538 C 0.33027 0.85954 0.52148 0.0
C1539 C 0.3153 0.86358 0.50317 0.0
C1540 C 0.29496 0.86983 0.5098 0.0
C1541 C 0.28988 0.872 0.53441 0.0
C1542 C 0.35199 0.85257 0.51506 0.0
C1543 C 0.27854 0.87447 0.49087 0.0
C1544 C 0.32612 0.87952 0.43835 0.0
C1545 C 0.31875 0.86209 0.42571 0.0
C1546 C 0.32701 0.8796 0.46386 0.0
C1547 C 0.32056 0.86174 0.47691 0.0
C1548 C 0.31537 0.84336 0.46411 0.0
C1549 C 0.31442 0.84378 0.4386 0.0
C1550 C 0.33269 0.89952 0.47677 0.0
C1551 C 0.30881 0.82386 0.47731 0.0
H1552 H 0.33624 0.85923 0.56017 0.0
H1553 H 0.27431 0.87688 0.53936 0.0
H1554 H 0.35134 0.83831 0.50372 0.0
H1555 H 0.35986 0.86473 0.50412 0.0
H1556 H 0.36155 0.84932 0.53146 0.0
H1557 H 0.26353 0.87933 0.4991 0.0
H1558 H 0.28399 0.88705 0.47861 0.0
H1559 H 0.27573 0.8605 0.47949 0.0
H1560 H 0.32964 0.89368 0.42848 0.0
H1561 H 0.30894 0.83017 0.42889 0.0
H1562 H 0.34285 0.89636 0.49265 0.0
H1563 H 0.31831 0.90704 0.48366 0.0
H1564 H 0.34072 0.91063 0.46448 0.0
H1565 H 0.31889 0.82098 0.49334 0.0
H1566 H 0.30931 0.81001 0.46525 0.0
H1567 H 0.29264 0.82576 0.484 0.0
C1568 C 0.12494 0.71414 0.45003 0.0
C1569 C 0.12396 0.698 0.43294 0.0
C1570 C 0.12599 0.70995 0.475 0.0
C1571 C 0.12606 0.68907 0.48318 0.0
C1572 C 0.12572 0.67265 0.46601 0.0
C1573 C 0.12466 0.67732 0.44102 0.0
C1574 C 0.12641 0.72796 0.49267 0.0
C1575 C 0.12585 0.65022 0.47406 0.0
C1576 C 0.14253 0.68534 0.54921 0.0
C1577 C 0.12325 0.68698 0.56097 0.0
C1578 C 0.14372 0.68427 0.52371 0.0
C1579 C 0.12519 0.68484 0.50978 0.0
C1580 C 0.10569 0.68464 0.52171 0.0
C1581 C 0.10496 0.68572 0.54717 0.0
C1582 C 0.16481 0.68425 0.51169 0.0
C1583 C 0.08555 0.68509 0.50758 0.0
H1584 H 0.12453 0.73016 0.44392 0.0
H1585 H 0.12395 0.66479 0.42786 0.0
H1586 H 0.11223 0.72765 0.50416 0.0
H1587 H 0.14001 0.72657 0.50498 0.0
H1588 H 0.12719 0.74324 0.4833 0.0
H1589 H 0.12761 0.63934 0.4585 0.0
H1590 H 0.13869 0.64744 0.48716 0.0
H1591 H 0.11109 0.64659 0.48358 0.0
H1592 H 0.15673 0.6862 0.5598 0.0
H1593 H 0.09 0.68676 0.55618 0.0
H1594 H 0.16809 0.69997 0.50431 0.0
H1595 H 0.16518 0.67318 0.49623 0.0
H1596 H 0.17738 0.68012 0.5247 0.0
H1597 H 0.08356 0.70063 0.49911 0.0
H1598 H 0.07187 0.68199 0.51937 0.0
H1599 H 0.08581 0.67345 0.4927 0.0
C1600 C 0.29703 0.09595 0.44928 0.0
C1601 C 0.30184 0.11198 0.43298 0.0
C1602 C 0.30028 0.09833 0.47433 0.0
C1603 C 0.3083 0.11733 0.48332 0.0
C1604 C 0.31447 0.13307 0.4668 0.0
C1605 C 0.31124 0.13017 0.44173 0.0
C1606 C 0.29375 0.08102 0.49127 0.0
C1607 C 0.32309 0.15353 0.47568 0.0
C1608 C 0.28602 0.13031 0.54508 0.0
C1609 C 0.30197 0.1239 0.56075 0.0
C1610 C 0.28844 0.12937 0.5198 0.0
C1611 C 0.30722 0.12162 0.50989 0.0
C1612 C 0.3238 0.11611 0.52559 0.0
C1613 C 0.32101 0.1174 0.55095 0.0
C1614 C 0.27042 0.13567 0.50374 0.0
C1615 C 0.34404 0.10778 0.5157 0.0
H1616 H 0.28999 0.08175 0.44254 0.0
H1617 H 0.31502 0.14259 0.42914 0.0
H1618 H 0.30612 0.07785 0.50484 0.0
H1619 H 0.27962 0.0858 0.5014 0.0
H1620 H 0.29025 0.0664 0.48132 0.0
H1621 H 0.33025 0.16266 0.46071 0.0
H1622 H 0.31033 0.1629 0.48373 0.0
H1623 H 0.33488 0.151 0.49012 0.0
H1624 H 0.27135 0.13558 0.5526 0.0
H1625 H 0.33337 0.11244 0.56304 0.0
H1626 H 0.26408 0.12174 0.49441 0.0
H1627 H 0.27572 0.14665 0.48947 0.0
H1628 H 0.25766 0.14311 0.5142 0.0
H1629 H 0.34155 0.09186 0.5085 0.0
H1630 H 0.35633 0.1071 0.52988 0.0
H1631 H 0.34963 0.11753 0.50039 0.0
C1632 C 0.87284 0.28474 0.44674 0.0
C1633 C 0.87632 0.30109 0.43039 0.0
C1634 C 0.87315 0.28806 0.47189 0.0
C1635 C 0.87717 0.30825 0.48101 0.0
C1636 C 0.87994 0.32502 0.46461 0.0
C1637 C 0.87944 0.32125 0.4394 0.0
C1638 C 0.86994 0.26975 0.48871 0.0
C1639 C 0.88424 0.34674 0.47369 0.0
C1640 C 0.86473 0.31219 0.54821 0.0
C1641 C 0.88385 0.30647 0.55845 0.0
C1642 C 0.86258 0.31452 0.5229 0.0
C1643 C 0.88 0.31108 0.50766 0.0
C1644 C 0.8997 0.30704 0.51815 0.0
C1645 C 0.90137 0.30473 0.54343 0.0
C1646 C 0.84136 0.31899 0.51243 0.0
C1647 C 0.91872 0.30346 0.50259 0.0
H1648 H 0.87021 0.26916 0.43987 0.0
H1649 H 0.88211 0.33393 0.42679 0.0
H1650 H 0.8844 0.26675 0.49916 0.0
H1651 H 0.85745 0.27321 0.50203 0.0
H1652 H 0.86572 0.25534 0.4787 0.0
H1653 H 0.88356 0.35843 0.45882 0.0
H1654 H 0.8729 0.35114 0.48799 0.0
H1655 H 0.89994 0.3473 0.48203 0.0
H1656 H 0.85115 0.31365 0.55977 0.0
H1657 H 0.91625 0.30054 0.5513 0.0
H1658 H 0.83483 0.3045 0.50458 0.0
H1659 H 0.84239 0.33059 0.49754 0.0
H1660 H 0.8304 0.32484 0.52648 0.0
H1661 H 0.9173 0.28827 0.49316 0.0
H1662 H 0.93325 0.30333 0.51353 0.0
H1663 H 0.92003 0.31566 0.48841 0.0
C1664 C 0.67594 0.87502 0.56241 0.0
C1665 C 0.69481 0.86846 0.57263 0.0
C1666 C 0.67359 0.87642 0.53702 0.0
C1667 C 0.69044 0.87091 0.52172 0.0
C1668 C 0.70899 0.86298 0.53203 0.0
C1669 C 0.71099 0.862 0.55736 0.0
C1670 C 0.65361 0.88498 0.52668 0.0
C1671 C 0.72722 0.85662 0.51637 0.0
C1672 C 0.68675 0.86336 0.4534 0.0
C1673 C 0.69617 0.88167 0.44503 0.0
C1674 C 0.68359 0.86003 0.47839 0.0
C1675 C 0.68985 0.87547 0.49523 0.0
C1676 C 0.69806 0.89454 0.48667 0.0
C1677 C 0.70125 0.89735 0.46168 0.0
C1678 C 0.67483 0.83949 0.48683 0.0
C1679 C 0.70467 0.91153 0.504 0.0
H1680 H 0.66342 0.88005 0.57422 0.0
H1681 H 0.72551 0.8567 0.56524 0.0
H1682 H 0.65637 0.90093 0.5197 0.0
H1683 H 0.64821 0.87538 0.51116 0.0
H1684 H 0.64107 0.88569 0.54056 0.0
H1685 H 0.73966 0.84885 0.52707 0.0
H1686 H 0.72206 0.84591 0.50175 0.0
H1687 H 0.73395 0.87057 0.50749 0.0
H1688 H 0.68278 0.85121 0.44054 0.0
H1689 H 0.70832 0.91162 0.45524 0.0
H1690 H 0.6628 0.84191 0.50099 0.0
H1691 H 0.68744 0.83006 0.4951 0.0
H1692 H 0.66792 0.83048 0.47159 0.0
H1693 H 0.69216 0.91476 0.51738 0.0
H1694 H 0.70856 0.92621 0.49437 0.0
H1695 H 0.71857 0.90639 0.51435 0.0
C1696 C 0.61893 0.82927 0.06044 0.0
C1697 C 0.63303 0.81547 0.07132 0.0
C1698 C 0.6173 0.83062 0.03499 0.0
C1699 C 0.62981 0.8176 0.02025 0.0
C1700 C 0.64535 0.80508 0.03116 0.0
C1701 C 0.64687 0.80431 0.05658 0.0
C1702 C 0.60101 0.84466 0.02401 0.0
C1703 C 0.659 0.79091 0.01616 0.0
C1704 C 0.60657 0.79337 0.96376 0.0
C1705 C 0.61781 0.80315 0.94517 0.0
C1706 C 0.60981 0.79856 0.98819 0.0
C1707 C 0.62443 0.81421 0.99423 0.0
C1708 C 0.63496 0.82502 0.97547 0.0
C1709 C 0.63167 0.8192 0.9511 0.0
C1710 C 0.59832 0.78653 0.00761 0.0
C1711 C 0.65026 0.84212 0.98116 0.0
H1712 H 0.60833 0.83812 0.07175 0.0
H1713 H 0.65794 0.79374 0.06487 0.0
H1714 H 0.60703 0.85244 0.00743 0.0
H1715 H 0.58732 0.83525 0.01858 0.0
H1716 H 0.59574 0.85671 0.03711 0.0
H1717 H 0.67188 0.7841 0.02705 0.0
H1718 H 0.64947 0.77801 0.00872 0.0
H1719 H 0.66577 0.79943 0.00052 0.0
H1720 H 0.59579 0.78099 0.95929 0.0
H1721 H 0.6403 0.82691 0.93675 0.0
H1722 H 0.58991 0.79734 0.01986 0.0
H1723 H 0.6096 0.77771 0.01891 0.0
H1724 H 0.58693 0.77538 0.99983 0.0
H1725 H 0.64386 0.85279 0.99515 0.0
H1726 H 0.65435 0.85129 0.96472 0.0
H1727 H 0.66473 0.83526 0.98866 0.0
C1728 C 0.21441 0.62042 0.95179 0.0
C1729 C 0.19913 0.62207 0.93371 0.0
C1730 C 0.20926 0.62153 0.97649 0.0
C1731 C 0.18824 0.62437 0.9834 0.0
C1732 C 0.17271 0.62634 0.96527 0.0
C1733 C 0.17835 0.62516 0.94055 0.0
C1734 C 0.22636 0.6194 0.99521 0.0
C1735 C 0.15017 0.62941 0.97199 0.0
C1736 C 0.18045 0.60531 0.04772 0.0
C1737 C 0.1842 0.62353 0.061 0.0
C1738 C 0.17976 0.60564 0.02221 0.0
C1739 C 0.1829 0.62465 0.00975 0.0
C1740 C 0.18462 0.64338 0.02316 0.0
C1741 C 0.18526 0.64259 0.04868 0.0
C1742 C 0.17768 0.58533 0.00864 0.0
C1743 C 0.18778 0.66401 0.0106 0.0
H1744 H 0.23052 0.61809 0.94665 0.0
H1745 H 0.16648 0.62646 0.92662 0.0
H1746 H 0.22661 0.63325 0.00722 0.0
H1747 H 0.22339 0.60563 0.00687 0.0
H1748 H 0.24196 0.61765 0.98677 0.0
H1749 H 0.14014 0.63178 0.95576 0.0
H1750 H 0.14444 0.61563 0.98211 0.0
H1751 H 0.14849 0.64303 0.98421 0.0
H1752 H 0.17941 0.59054 0.05715 0.0
H1753 H 0.18799 0.65677 0.05886 0.0
H1754 H 0.1931 0.58072 0.00137 0.0
H1755 H 0.16695 0.587 0.99296 0.0
H1756 H 0.17192 0.57264 0.02058 0.0
H1757 H 0.20401 0.66499 0.00384 0.0
H1758 H 0.18501 0.6773 0.02309 0.0
H1759 H 0.17731 0.66552 0.99466 0.0
C1760 C 0.35075 0.20242 0.04553 0.0
C1761 C 0.36453 0.19212 0.06121 0.0
C1762 C 0.35283 0.20085 0.02022 0.0
C1763 C 0.36905 0.18859 0.01034 0.0
C1764 C 0.38192 0.17678 0.02606 0.0
C1765 C 0.37953 0.17872 0.05138 0.0
C1766 C 0.33873 0.21366 0.00415 0.0
C1767 C 0.39919 0.16331 0.01622 0.0
C1768 C 0.36847 0.18194 0.9415 0.0
C1769 C 0.38145 0.19832 0.93422 0.0
C1770 C 0.36484 0.17797 0.96632 0.0
C1771 C 0.37436 0.19074 0.98411 0.0
C1772 C 0.38801 0.20683 0.97679 0.0
C1773 C 0.3914 0.21039 0.95197 0.0
C1774 C 0.35032 0.16058 0.97346 0.0
C1775 C 0.39851 0.22082 0.99515 0.0
H1776 H 0.33899 0.21267 0.05302 0.0
H1777 H 0.39016 0.17062 0.06342 0.0
H1778 H 0.34773 0.22666 0.99606 0.0
H1779 H 0.3326 0.20413 0.98895 0.0
H1780 H 0.3254 0.22032 0.01439 0.0
H1781 H 0.40534 0.15248 0.03024 0.0
H1782 H 0.39373 0.15412 0.00038 0.0
H1783 H 0.41214 0.17333 0.00988 0.0
H1784 H 0.36079 0.17253 0.92784 0.0
H1785 H 0.40155 0.223 0.94648 0.0
H1786 H 0.3359 0.1672 0.98137 0.0
H1787 H 0.35758 0.15066 0.98764 0.0
H1788 H 0.34601 0.15067 0.9577 0.0
H1789 H 0.38659 0.2298 0.00529 0.0
H1790 H 0.40944 0.23196 0.9865 0.0
H1791 H 0.40725 0.21138 0.00861 0.0
C1792 C 0.79849 0.34798 0.04147 0.0
C1793 C 0.8091 0.3622 0.05628 0.0
C1794 C 0.8004 0.34867 0.01608 0.0
C1795 C 0.81335 0.36388 0.00525 0.0
C1796 C 0.82565 0.37693 0.02021 0.0
C1797 C 0.82332 0.37599 0.04561 0.0
C1798 C 0.78705 0.3344 0.00084 0.0
C1799 C 0.83993 0.39308 0.0094 0.0
C1800 C 0.81918 0.36096 0.93634 0.0
C1801 C 0.80332 0.37448 0.92877 0.0
C1802 C 0.82328 0.35786 0.96124 0.0
C1803 C 0.81113 0.36843 0.97882 0.0
C1804 C 0.79561 0.38262 0.97117 0.0
C1805 C 0.79196 0.3855 0.94629 0.0
C1806 C 0.84011 0.34281 0.96872 0.0
C1807 C 0.78228 0.39425 0.98927 0.0
H1808 H 0.78761 0.33714 0.04961 0.0
H1809 H 0.8317 0.38692 0.05697 0.0
H1810 H 0.77424 0.34351 0.99248 0.0
H1811 H 0.79625 0.32746 0.98584 0.0
H1812 H 0.78011 0.32166 0.01181 0.0
H1813 H 0.85119 0.3991 0.02301 0.0
H1814 H 0.84866 0.38661 0.99373 0.0
H1815 H 0.83055 0.40634 0.00258 0.0
H1816 H 0.82805 0.35245 0.92285 0.0
H1817 H 0.77976 0.39606 0.94057 0.0
H1818 H 0.83294 0.32878 0.97693 0.0
H1819 H 0.85031 0.34988 0.98274 0.0
H1820 H 0.84983 0.33787 0.95305 0.0
H1821 H 0.77302 0.38304 0.00014 0.0
H1822 H 0.77142 0.4053 0.98032 0.0
H1823 H 0.79223 0.40307 0.00212 0.0
C1824 C 0.62684 0.17689 0.04771 0.0
C1825 C 0.61817 0.19635 0.05327 0.0
C1826 C 0.63022 0.17089 0.02342 0.0
C1827 C 0.62494 0.18475 0.00438 0.0
C1828 C 0.61617 0.20438 0.00997 0.0
C1829 C 0.61285 0.20989 0.03431 0.0
C1830 C 0.63947 0.1498 0.01812 0.0
C1831 C 0.61039 0.21969 0.99022 0.0
C1832 C 0.64846 0.18517 0.9414 0.0
C1833 C 0.63146 0.17877 0.92729 0.0
C1834 C 0.64724 0.18551 0.96689 0.0
C1835 C 0.62862 0.17917 0.97846 0.0
C1836 C 0.61225 0.17068 0.96438 0.0
C1837 C 0.61385 0.17062 0.93891 0.0
C1838 C 0.66511 0.19457 0.9812 0.0
C1839 C 0.59227 0.16344 0.97603 0.0
H1840 H 0.63095 0.16635 0.06234 0.0
H1841 H 0.60618 0.22496 0.03848 0.0
H1842 H 0.62886 0.1408 0.00619 0.0
H1843 H 0.65436 0.15162 0.00818 0.0
H1844 H 0.64239 0.1407 0.03496 0.0
H1845 H 0.60377 0.23432 0.99766 0.0
H1846 H 0.62431 0.22361 0.97922 0.0
H1847 H 0.59879 0.21262 0.97776 0.0
H1848 H 0.66218 0.19136 0.93254 0.0
H1849 H 0.60071 0.16549 0.92811 0.0
H1850 H 0.6683 0.18516 0.9977 0.0
H1851 H 0.66095 0.21048 0.9873 0.0
H1852 H 0.67955 0.19554 0.97017 0.0
H1853 H 0.59549 0.15414 0.9926 0.0
H1854 H 0.58274 0.15397 0.96333 0.0
H1855 H 0.58299 0.17718 0.98163 0.0
C1856 C 0.81628 0.6183 0.0603 0.0
C1857 C 0.79562 0.6196 0.06831 0.0
C1858 C 0.82106 0.61932 0.03535 0.0
C1859 C 0.80479 0.62196 0.01823 0.0
C1860 C 0.78405 0.62426 0.02643 0.0
C1861 C 0.77972 0.62289 0.05132 0.0
C1862 C 0.84332 0.61667 0.02727 0.0
C1863 C 0.76626 0.62737 0.00883 0.0
C1864 C 0.81143 0.63717 0.95201 0.0
C1865 C 0.80707 0.61822 0.94054 0.0
C1866 C 0.8122 0.63849 0.97753 0.0
C1867 C 0.8088 0.62038 0.99167 0.0
C1868 C 0.80614 0.60095 0.97999 0.0
C1869 C 0.80512 0.60015 0.95457 0.0
C1870 C 0.81503 0.65949 0.98931 0.0
C1871 C 0.80281 0.5812 0.99434 0.0
H1872 H 0.8286 0.61579 0.07344 0.0
H1873 H 0.76376 0.62417 0.05748 0.0
H1874 H 0.84509 0.60144 0.018 0.0
H1875 H 0.84762 0.62889 0.01395 0.0
H1876 H 0.85436 0.61725 0.0428 0.0
H1877 H 0.75134 0.63063 0.01827 0.0
H1878 H 0.76969 0.64046 0.9963 0.0
H1879 H 0.76426 0.6132 0.99756 0.0
H1880 H 0.81295 0.65116 0.94114 0.0
H1881 H 0.80201 0.58542 0.94568 0.0
H1882 H 0.82598 0.65849 0.00486 0.0
H1883 H 0.79986 0.66493 0.99655 0.0
H1884 H 0.82087 0.67128 0.97621 0.0
H1885 H 0.81446 0.57987 0.00915 0.0
H1886 H 0.80382 0.56712 0.9827 0.0
H1887 H 0.78719 0.58155 0.00292 0.0
C1888 C 0.3492 0.8039 0.93997 0.0
C1889 C 0.36645 0.81155 0.92721 0.0
C1890 C 0.34878 0.80408 0.96549 0.0
C1891 C 0.36616 0.81183 0.97847 0.0
C1892 C 0.38278 0.82121 0.96564 0.0
C1893 C 0.38266 0.82107 0.94011 0.0
C1894 C 0.33056 0.79432 0.97849 0.0
C1895 C 0.40163 0.8296 0.97875 0.0
C1896 C 0.36478 0.81586 0.04762 0.0
C1897 C 0.37383 0.79686 0.05435 0.0
C1898 C 0.36196 0.821 0.02295 0.0
C1899 C 0.36857 0.80689 0.00475 0.0
C1900 C 0.37776 0.78774 0.01154 0.0
C1901 C 0.38017 0.78293 0.03622 0.0
C1902 C 0.3519 0.84144 0.01636 0.0
C1903 C 0.38518 0.77229 0.99272 0.0
H1904 H 0.33653 0.79671 0.93006 0.0
H1905 H 0.39602 0.82707 0.93033 0.0
H1906 H 0.3351 0.77872 0.98527 0.0
H1907 H 0.32592 0.80379 0.99445 0.0
H1908 H 0.3169 0.79249 0.96629 0.0
H1909 H 0.41157 0.8392 0.96662 0.0
H1910 H 0.39695 0.83912 0.99465 0.0
H1911 H 0.41108 0.81642 0.98566 0.0
H1912 H 0.35981 0.82664 0.06161 0.0
H1913 H 0.38723 0.76825 0.0413 0.0
H1914 H 0.33786 0.83863 0.0051 0.0
H1915 H 0.36274 0.85092 0.00526 0.0
H1916 H 0.34734 0.85055 0.03268 0.0
H1917 H 0.37197 0.76733 0.9811 0.0
H1918 H 0.39225 0.75823 0.00106 0.0
H1919 H 0.39688 0.77968 0.98066 0.0
C1920 C 0.17711 0.36089 0.96173 0.0
C1921 C 0.19539 0.37124 0.95489 0.0
C1922 C 0.17171 0.35878 0.98644 0.0
C1923 C 0.18493 0.36722 0.00453 0.0
C1924 C 0.20331 0.37779 0.9976 0.0
C1925 C 0.20828 0.37965 0.97293 0.0
C1926 C 0.152 0.34744 0.99319 0.0
C1927 C 0.21786 0.38708 0.01627 0.0
C1928 C 0.17071 0.38243 0.06868 0.0
C1929 C 0.18156 0.36734 0.08202 0.0
C1930 C 0.16982 0.38149 0.04319 0.0
C1931 C 0.18007 0.36509 0.03087 0.0
C1932 C 0.18915 0.3487 0.04441 0.0
C1933 C 0.18978 0.35002 0.06988 0.0
C1934 C 0.15974 0.39914 0.02946 0.0
C1935 C 0.20008 0.33084 0.03201 0.0
H1936 H 0.1671 0.35436 0.94783 0.0
H1937 H 0.22242 0.38771 0.96778 0.0
H1938 H 0.15581 0.33357 0.00433 0.0
H1939 H 0.14193 0.35761 0.00446 0.0
H1940 H 0.14308 0.34234 0.97694 0.0
H1941 H 0.23145 0.39491 0.00781 0.0
H1942 H 0.20943 0.39861 0.02758 0.0
H1943 H 0.22367 0.37473 0.02863 0.0
H1944 H 0.16412 0.39575 0.07799 0.0
H1945 H 0.19801 0.33818 0.08012 0.0
H1946 H 0.15077 0.39325 0.01367 0.0
H1947 H 0.172 0.40966 0.02234 0.0
H1948 H 0.1492 0.40838 0.04128 0.0
H1949 H 0.19089 0.3251 0.01631 0.0
H1950 H 0.20294 0.3177 0.04469 0.0
H1951 H 0.2153 0.33627 0.02492 0.0
C1952 C 0.17761 0.37749 0.23603 0.0
C1953 C 0.17202 0.36777 0.21415 0.0
C1954 C 0.17019 0.37013 0.25842 0.0
C1955 C 0.15685 0.35265 0.25888 0.0
C1956 C 0.15027 0.34346 0.23675 0.0
C1957 C 0.15795 0.35114 0.21461 0.0
C1958 C 0.17748 0.38039 0.2816 0.0
C1959 C 0.13596 0.32486 0.23652 0.0
C1960 C 0.15852 0.31664 0.3134 0.0
C1961 C 0.14013 0.3219 0.3256 0.0
C1962 C 0.16433 0.32689 0.29196 0.0
C1963 C 0.15139 0.34274 0.28244 0.0
C1964 C 0.13311 0.34856 0.29505 0.0
C1965 C 0.1277 0.33808 0.31656 0.0
C1966 C 0.18405 0.32034 0.27915 0.0
C1967 C 0.11897 0.36541 0.28543 0.0
H1968 H 0.18841 0.39043 0.23577 0.0
H1969 H 0.15353 0.34364 0.19773 0.0
H1970 H 0.16408 0.38379 0.29368 0.0
H1971 H 0.18795 0.36965 0.29159 0.0
H1972 H 0.18601 0.3951 0.27806 0.0
H1973 H 0.13078 0.32077 0.21784 0.0
H1974 H 0.14411 0.31123 0.24444 0.0
H1975 H 0.12204 0.32789 0.2479 0.0
H1976 H 0.16819 0.30417 0.32035 0.0
H1977 H 0.11342 0.34214 0.32589 0.0
H1978 H 0.19435 0.33398 0.2764 0.0
H1979 H 0.18024 0.31403 0.26089 0.0
H1980 H 0.19278 0.3083 0.28945 0.0
H1981 H 0.12793 0.37986 0.28207 0.0
H1982 H 0.10603 0.36897 0.29816 0.0
H1983 H 0.11224 0.36048 0.26776 0.0
C1984 C 0.625 0.16256 0.19036 0.0
C1985 C 0.62479 0.18432 0.18892 0.0
C1986 C 0.63231 0.15245 0.21136 0.0
C1987 C 0.63995 0.16441 0.23106 0.0
C1988 C 0.63925 0.18639 0.22987 0.0
C1989 C 0.63152 0.19606 0.2089 0.0
C1990 C 0.63246 0.12899 0.21216 0.0
C1991 C 0.64755 0.19972 0.25032 0.0
C1992 C 0.65007 0.14222 0.29409 0.0
C1993 C 0.67159 0.13888 0.29321 0.0
C1994 C 0.63929 0.14966 0.27359 0.0
C1995 C 0.65041 0.15417 0.25199 0.0
C1996 C 0.67205 0.1503 0.25089 0.0
C1997 C 0.68233 0.14256 0.27144 0.0
C1998 C 0.61614 0.15323 0.27525 0.0
C1999 C 0.68455 0.15517 0.22832 0.0
H2000 H 0.61965 0.15345 0.175 0.0
H2001 H 0.63139 0.2129 0.20785 0.0
H2002 H 0.64873 0.12327 0.21173 0.0
H2003 H 0.62539 0.12338 0.22937 0.0
H2004 H 0.62391 0.12203 0.1966 0.0
H2005 H 0.64493 0.21657 0.24706 0.0
H2006 H 0.64007 0.19537 0.26777 0.0
H2007 H 0.6645 0.19703 0.25241 0.0
H2008 H 0.6417 0.13927 0.31085 0.0
H2009 H 0.69898 0.14001 0.27065 0.0
H2010 H 0.60811 0.14585 0.2596 0.0
H2011 H 0.61281 0.17014 0.2744 0.0
H2012 H 0.60947 0.14696 0.29239 0.0
H2013 H 0.67782 0.14711 0.21231 0.0
H2014 H 0.70111 0.15049 0.23012 0.0
H2015 H 0.68393 0.17212 0.22457 0.0
C2016 C 0.79986 0.63543 0.22426 0.0
C2017 C 0.81119 0.63121 0.20306 0.0
C2018 C 0.8096 0.64365 0.24493 0.0
C2019 C 0.83128 0.6474 0.24452 0.0
C2020 C 0.84295 0.64248 0.22344 0.0
C2021 C 0.83271 0.63462 0.20282 0.0
C2022 C 0.79654 0.64903 0.26689 0.0
C2023 C 0.86615 0.64593 0.22252 0.0
C2024 C 0.8507 0.68957 0.28691 0.0
C2025 C 0.85734 0.678 0.30708 0.0
C2026 C 0.84253 0.67975 0.26627 0.0
C2027 C 0.84135 0.65779 0.2656 0.0
C2028 C 0.84866 0.64597 0.2856 0.0
C2029 C 0.85638 0.65625 0.30627 0.0
C2030 C 0.83457 0.69293 0.2455 0.0
C2031 C 0.84799 0.62251 0.2853 0.0
H2032 H 0.7832 0.63286 0.22449 0.0
H2033 H 0.84153 0.63124 0.18649 0.0
H2034 H 0.80275 0.64116 0.28331 0.0
H2035 H 0.79727 0.66603 0.27029 0.0
H2036 H 0.77999 0.64452 0.26456 0.0
H2037 H 0.8732 0.63963 0.20561 0.0
H2038 H 0.86955 0.66282 0.22349 0.0
H2039 H 0.87376 0.6385 0.23842 0.0
H2040 H 0.85136 0.70641 0.2875 0.0
H2041 H 0.86166 0.64727 0.32178 0.0
H2042 H 0.81767 0.6902 0.24298 0.0
H2043 H 0.8424 0.68848 0.2283 0.0
H2044 H 0.8371 0.70981 0.24864 0.0
H2045 H 0.83161 0.61715 0.28492 0.0
H2046 H 0.85577 0.6156 0.30145 0.0
H2047 H 0.85563 0.6165 0.26862 0.0
C2048 C 0.38289 0.81164 0.21061 0.0
C2049 C 0.3705 0.81418 0.18982 0.0
C2050 C 0.3769 0.82018 0.23302 0.0
C2051 C 0.3579 0.83118 0.23469 0.0
C2052 C 0.34577 0.83452 0.21352 0.0
C2053 C 0.35232 0.82609 0.19126 0.0
C2054 C 0.39043 0.81663 0.25508 0.0
C2055 C 0.32532 0.84603 0.21462 0.0
C2056 C 0.32792 0.82994 0.29396 0.0
C2057 C 0.33084 0.8502 0.3027 0.0
C2058 C 0.3371 0.82343 0.27215 0.0
C2059 C 0.34968 0.83747 0.25886 0.0
C2060 C 0.35348 0.85764 0.26814 0.0
C2061 C 0.34392 0.86382 0.28995 0.0
C2062 C 0.33264 0.80178 0.26285 0.0
C2063 C 0.36706 0.87291 0.25463 0.0
H2064 H 0.39708 0.80258 0.20949 0.0
H2065 H 0.34271 0.82807 0.17521 0.0
H2066 H 0.39291 0.83144 0.26503 0.0
H2067 H 0.38255 0.80575 0.26773 0.0
H2068 H 0.40582 0.80999 0.25019 0.0
H2069 H 0.3185 0.84856 0.19629 0.0
H2070 H 0.31407 0.83703 0.22573 0.0
H2071 H 0.32741 0.86134 0.22358 0.0
H2072 H 0.31783 0.81934 0.30375 0.0
H2073 H 0.34624 0.8795 0.29666 0.0
H2074 H 0.3474 0.79335 0.25942 0.0
H2075 H 0.32419 0.80273 0.24528 0.0
H2076 H 0.32314 0.79254 0.27581 0.0
H2077 H 0.38218 0.86563 0.24993 0.0
H2078 H 0.37005 0.88723 0.26538 0.0
H2079 H 0.35944 0.8774 0.2373 0.0
C2080 C 0.19597 0.62824 0.77494 0.0
C2081 C 0.18654 0.63224 0.79746 0.0
C2082 C 0.18723 0.63567 0.75323 0.0
C2083 C 0.16859 0.64734 0.75408 0.0
C2084 C 0.15855 0.6507 0.77668 0.0
C2085 C 0.16768 0.64314 0.79814 0.0
C2086 C 0.19845 0.63181 0.72952 0.0
C2087 C 0.13858 0.66299 0.77828 0.0
C2088 C 0.15993 0.68772 0.70491 0.0
C2089 C 0.1457 0.6777 0.68955 0.0
C2090 C 0.16756 0.67791 0.72583 0.0
C2091 C 0.16068 0.65762 0.73169 0.0
C2092 C 0.14643 0.64732 0.71617 0.0
C2093 C 0.13915 0.65748 0.69517 0.0
C2094 C 0.18292 0.68935 0.74177 0.0
C2095 C 0.13869 0.62572 0.72193 0.0
H2096 H 0.21052 0.61974 0.77429 0.0
H2097 H 0.16029 0.64618 0.8155 0.0
H2098 H 0.18762 0.62522 0.71584 0.0
H2099 H 0.20431 0.64677 0.72215 0.0
H2100 H 0.21182 0.62103 0.73171 0.0
H2101 H 0.13176 0.6626 0.79684 0.0
H2102 H 0.14161 0.67943 0.7733 0.0
H2103 H 0.12698 0.65684 0.76519 0.0
H2104 H 0.16508 0.70335 0.70062 0.0
H2105 H 0.12807 0.64973 0.68339 0.0
H2106 H 0.19744 0.68015 0.74356 0.0
H2107 H 0.17639 0.69132 0.76031 0.0
H2108 H 0.18692 0.70494 0.73444 0.0
H2109 H 0.15199 0.61482 0.72342 0.0
H2110 H 0.12778 0.61978 0.70789 0.0
H2111 H 0.13064 0.62574 0.73978 0.0
C2112 C 0.3121 0.14153 0.7164 0.0
C2113 C 0.32276 0.13828 0.69449 0.0
C2114 C 0.32222 0.14986 0.73674 0.0
C2115 C 0.34366 0.15467 0.73529 0.0
C2116 C 0.35469 0.15079 0.71345 0.0
C2117 C 0.34403 0.14285 0.69315 0.0
C2118 C 0.30979 0.15415 0.75952 0.0
C2119 C 0.37765 0.15533 0.71144 0.0
C2120 C 0.36226 0.19643 0.7787 0.0
C2121 C 0.36976 0.18458 0.79821 0.0
C2122 C 0.3542 0.18686 0.75783 0.0
C2123 C 0.35405 0.1649 0.75625 0.0
C2124 C 0.36236 0.15284 0.77551 0.0
C2125 C 0.36992 0.16285 0.79645 0.0
C2126 C 0.3451 0.20026 0.73791 0.0
C2127 C 0.36282 0.1294 0.77424 0.0
H2128 H 0.29562 0.13809 0.71748 0.0
H2129 H 0.35231 0.14021 0.67626 0.0
H2130 H 0.31684 0.146 0.77528 0.0
H2131 H 0.31008 0.17105 0.76361 0.0
H2132 H 0.29333 0.14914 0.7578 0.0
H2133 H 0.38428 0.14987 0.6939 0.0
H2134 H 0.38035 0.17231 0.713 0.0
H2135 H 0.38619 0.14775 0.72658 0.0
H2136 H 0.36207 0.21325 0.78003 0.0
H2137 H 0.37587 0.15366 0.81145 0.0
H2138 H 0.32823 0.19699 0.73608 0.0
H2139 H 0.35247 0.19652 0.72021 0.0
H2140 H 0.34715 0.21713 0.74155 0.0
H2141 H 0.34671 0.12325 0.77462 0.0
H2142 H 0.37162 0.12243 0.7896 0.0
H2143 H 0.36997 0.12427 0.75688 0.0
C2144 C 0.85229 0.30151 0.70759 0.0
C2145 C 0.86037 0.31334 0.68837 0.0
C2146 C 0.84385 0.31109 0.72823 0.0
C2147 C 0.84355 0.33305 0.72974 0.0
C2148 C 0.85183 0.34511 0.71049 0.0
C2149 C 0.86011 0.33509 0.68994 0.0
C2150 C 0.83505 0.29768 0.74832 0.0
C2151 C 0.85183 0.36856 0.71156 0.0
C2152 C 0.80301 0.35558 0.77223 0.0
C2153 C 0.81466 0.35906 0.79341 0.0
C2154 C 0.81236 0.34766 0.75115 0.0
C2155 C 0.83391 0.34324 0.75122 0.0
C2156 C 0.84589 0.34728 0.77232 0.0
C2157 C 0.83609 0.35509 0.79324 0.0
C2158 C 0.79904 0.34343 0.72906 0.0
C2159 C 0.86894 0.34285 0.77299 0.0
H2160 H 0.85246 0.28469 0.70649 0.0
H2161 H 0.86643 0.34428 0.67515 0.0
H2162 H 0.84297 0.3012 0.76576 0.0
H2163 H 0.81829 0.30117 0.75083 0.0
H2164 H 0.83677 0.28081 0.74447 0.0
H2165 H 0.85943 0.37566 0.69542 0.0
H2166 H 0.83562 0.37439 0.71269 0.0
H2167 H 0.86003 0.37391 0.72818 0.0
H2168 H 0.78643 0.35865 0.77224 0.0
H2169 H 0.84516 0.35786 0.80954 0.0
H2170 H 0.79888 0.3265 0.72518 0.0
H2171 H 0.80564 0.3513 0.71285 0.0
H2172 H 0.78274 0.34875 0.73155 0.0
H2173 H 0.87164 0.32589 0.77115 0.0
H2174 H 0.87628 0.34825 0.79016 0.0
H2175 H 0.87681 0.35054 0.75744 0.0
C2176 C 0.65653 0.84639 0.70769 0.0
C2177 C 0.67324 0.86033 0.70861 0.0
C2178 C 0.64798 0.83817 0.72915 0.0
C2179 C 0.6565 0.84395 0.75194 0.0
C2180 C 0.67273 0.85876 0.75297 0.0
C2181 C 0.68085 0.86683 0.73128 0.0
C2182 C 0.6305 0.82258 0.72738 0.0
C2183 C 0.68227 0.86527 0.7769 0.0
C2184 C 0.62763 0.8308 0.81031 0.0
C2185 C 0.63739 0.8122 0.81716 0.0
C2186 C 0.63358 0.84132 0.78903 0.0
C2187 C 0.6498 0.83313 0.7745 0.0
C2188 C 0.65992 0.81453 0.7816 0.0
C2189 C 0.65351 0.80424 0.80277 0.0
C2190 C 0.62235 0.86102 0.7819 0.0
C2191 C 0.67748 0.80544 0.76677 0.0
H2192 H 0.65054 0.8414 0.69021 0.0
H2193 H 0.69373 0.87767 0.73211 0.0
H2194 H 0.63621 0.80703 0.733 0.0
H2195 H 0.61767 0.82689 0.73989 0.0
H2196 H 0.6242 0.82139 0.70861 0.0
H2197 H 0.69351 0.87825 0.77471 0.0
H2198 H 0.67 0.87014 0.78988 0.0
H2199 H 0.69053 0.85185 0.78514 0.0
H2200 H 0.61506 0.83692 0.82133 0.0
H2201 H 0.6611 0.78987 0.80803 0.0
H2202 H 0.615 0.85902 0.76379 0.0
H2203 H 0.63357 0.87405 0.78033 0.0
H2204 H 0.61014 0.8654 0.79524 0.0
H2205 H 0.67194 0.80176 0.74814 0.0
H2206 H 0.68392 0.79104 0.77502 0.0
H2207 H 0.69022 0.81697 0.76498 0.0
C2208 C 0.86366 0.65865 0.70075 0.0
C2209 C 0.87065 0.67927 0.70159 0.0
C2210 C 0.85643 0.64868 0.72185 0.0
C2211 C 0.85585 0.65978 0.7441 0.0
C2212 C 0.86374 0.68029 0.74521 0.0
C2213 C 0.87122 0.68971 0.72397 0.0
C2214 C 0.84852 0.62664 0.7201 0.0
C2215 C 0.8631 0.69277 0.76847 0.0
C2216 C 0.81285 0.6467 0.78852 0.0
C2217 C 0.82371 0.63635 0.807 0.0
C2218 C 0.82316 0.65426 0.76792 0.0
C2219 C 0.84483 0.65097 0.76549 0.0
C2220 C 0.85585 0.64014 0.78386 0.0
C2221 C 0.84517 0.63315 0.80462 0.0
C2222 C 0.81091 0.66611 0.74899 0.0
C2223 C 0.87887 0.63601 0.78159 0.0
H2224 H 0.86336 0.65047 0.68351 0.0
H2225 H 0.87664 0.70566 0.72472 0.0
H2226 H 0.85494 0.61704 0.73512 0.0
H2227 H 0.83135 0.62655 0.72194 0.0
H2228 H 0.85266 0.61927 0.70247 0.0
H2229 H 0.8714 0.70784 0.76676 0.0
H2230 H 0.84668 0.69596 0.77345 0.0
H2231 H 0.87013 0.68384 0.78365 0.0
H2232 H 0.79626 0.64927 0.79038 0.0
H2233 H 0.85354 0.62498 0.81883 0.0
H2234 H 0.81229 0.65834 0.73105 0.0
H2235 H 0.81732 0.68204 0.747 0.0
H2236 H 0.79415 0.66734 0.7537 0.0
H2237 H 0.88216 0.62789 0.7642 0.0
H2238 H 0.88492 0.62642 0.79684 0.0
H2239 H 0.8875 0.65093 0.78121 0.0
C2240 C 0.37722 0.83393 0.78021 0.0
C2241 C 0.36262 0.82874 0.79815 0.0
C2242 C 0.3709 0.8426 0.75797 0.0
C2243 C 0.34946 0.84573 0.75345 0.0
C2244 C 0.33474 0.84122 0.77187 0.0
C2245 C 0.34153 0.83295 0.79411 0.0
C2246 C 0.38708 0.84767 0.73898 0.0
C2247 C 0.31171 0.84414 0.76766 0.0
C2248 C 0.32927 0.87928 0.70179 0.0
C2249 C 0.32426 0.86422 0.6843 0.0
C2250 C 0.33842 0.87361 0.72401 0.0
C2251 C 0.34219 0.85235 0.72898 0.0
C2252 C 0.33776 0.83716 0.71104 0.0
C2253 C 0.32902 0.84332 0.6888 0.0
C2254 C 0.34338 0.89027 0.74246 0.0
C2255 C 0.34133 0.81431 0.71577 0.0
H2256 H 0.39356 0.83078 0.78335 0.0
H2257 H 0.33019 0.82888 0.8079 0.0
H2258 H 0.38558 0.83678 0.72344 0.0
H2259 H 0.38464 0.86362 0.73181 0.0
H2260 H 0.40315 0.8465 0.74628 0.0
H2261 H 0.30238 0.84079 0.78421 0.0
H2262 H 0.30844 0.8603 0.76176 0.0
H2263 H 0.30645 0.83365 0.75286 0.0
H2264 H 0.3257 0.89548 0.69828 0.0
H2265 H 0.32507 0.83165 0.67535 0.0
H2266 H 0.35954 0.88844 0.74921 0.0
H2267 H 0.33288 0.88871 0.75836 0.0
H2268 H 0.34156 0.90616 0.73482 0.0
H2269 H 0.3577 0.81155 0.72126 0.0
H2270 H 0.33784 0.80457 0.69959 0.0
H2271 H 0.33132 0.80909 0.73104 0.0
C2272 C 0.12399 0.32392 0.73106 0.0
C2273 C 0.13736 0.32505 0.71094 0.0
C2274 C 0.13004 0.33173 0.75382 0.0
C2275 C 0.14999 0.34068 0.75653 0.0
C2276 C 0.16317 0.34271 0.73601 0.0
C2277 C 0.15664 0.33495 0.7134 0.0
C2278 C 0.11544 0.32954 0.77517 0.0
C2279 C 0.18459 0.35216 0.73819 0.0
C2280 C 0.16431 0.37243 0.81234 0.0
C2281 C 0.17561 0.35788 0.82601 0.0
C2282 C 0.1553 0.36692 0.78998 0.0
C2283 C 0.15777 0.34642 0.78109 0.0
C2284 C 0.1685 0.33148 0.79527 0.0
C2285 C 0.17724 0.33738 0.8176 0.0
C2286 C 0.14377 0.38321 0.77549 0.0
C2287 C 0.17144 0.30944 0.78642 0.0
H2288 H 0.109 0.31639 0.7292 0.0
H2289 H 0.16702 0.33584 0.6979 0.0
H2290 H 0.12188 0.31812 0.78829 0.0
H2291 H 0.1139 0.34458 0.78489 0.0
H2292 H 0.09972 0.32424 0.76953 0.0
H2293 H 0.19232 0.35392 0.72024 0.0
H2294 H 0.18367 0.36764 0.74701 0.0
H2295 H 0.19447 0.34215 0.7499 0.0
H2296 H 0.163 0.38831 0.81877 0.0
H2297 H 0.18599 0.32608 0.82807 0.0
H2298 H 0.12823 0.37734 0.77007 0.0
H2299 H 0.15246 0.38668 0.75853 0.0
H2300 H 0.14175 0.39791 0.78583 0.0
H2301 H 0.15617 0.30235 0.78204 0.0
H2302 H 0.17943 0.2995 0.80007 0.0
H2303 H 0.18078 0.30947 0.76945 0.0
C2304 C 0.69652 0.12064 0.71024 0.0
C2305 C 0.68968 0.13037 0.68884 0.0
C2306 C 0.68868 0.12655 0.73303 0.0
C2307 C 0.67385 0.14276 0.73446 0.0
C2308 C 0.66655 0.15233 0.71285 0.0
C2309 C 0.67446 0.14591 0.69026 0.0
C2310 C 0.69663 0.11579 0.75562 0.0
C2311 C 0.65088 0.16981 0.71366 0.0
C2312 C 0.64171 0.15155 0.79161 0.0
C2313 C 0.65249 0.16803 0.80256 0.0
C2314 C 0.6488 0.1427 0.76975 0.0
C2315 C 0.66697 0.15067 0.75857 0.0
C2316 C 0.67825 0.16685 0.76999 0.0
C2317 C 0.67092 0.17526 0.79189 0.0
C2318 C 0.63654 0.12527 0.75827 0.0
C2319 C 0.69767 0.17581 0.75863 0.0
H2320 H 0.70817 0.10849 0.7092 0.0
H2321 H 0.66914 0.15347 0.67376 0.0
H2322 H 0.70552 0.12699 0.76691 0.0
H2323 H 0.68343 0.11015 0.76679 0.0
H2324 H 0.7069 0.10241 0.75126 0.0
H2325 H 0.64613 0.17499 0.69519 0.0
H2326 H 0.63682 0.16486 0.72378 0.0
H2327 H 0.6576 0.18329 0.72351 0.0
H2328 H 0.62745 0.14591 0.79979 0.0
H2329 H 0.67932 0.18801 0.80025 0.0
H2330 H 0.6469 0.11193 0.75416 0.0
H2331 H 0.62981 0.13061 0.74076 0.0
H2332 H 0.62369 0.1198 0.77015 0.0
H2333 H 0.70919 0.16331 0.75524 0.0
H2334 H 0.70501 0.18788 0.77025 0.0
H2335 H 0.6938 0.18288 0.74077 0.0
C2336 C 0.82356 0.33475 0.18976 0.0
C2337 C 0.82478 0.35538 0.18167 0.0
C2338 C 0.83275 0.32866 0.21177 0.0
C2339 C 0.84369 0.3435 0.22586 0.0
C2340 C 0.84575 0.36415 0.21727 0.0
C2341 C 0.83613 0.36989 0.19533 0.0
C2342 C 0.83009 0.30651 0.22038 0.0
C2343 C 0.85763 0.38028 0.23158 0.0
C2344 C 0.84695 0.33126 0.29332 0.0
C2345 C 0.86621 0.32115 0.29475 0.0
C2346 C 0.83972 0.33928 0.27112 0.0
C2347 C 0.85222 0.33743 0.25 0.0
C2348 C 0.87218 0.32828 0.25169 0.0
C2349 C 0.87886 0.32007 0.27402 0.0
C2350 C 0.81825 0.34876 0.27 0.0
C2351 C 0.88614 0.3264 0.22972 0.0
H2352 H 0.81474 0.3235 0.17932 0.0
H2353 H 0.83714 0.38586 0.18911 0.0
H2354 H 0.84549 0.29932 0.22382 0.0
H2355 H 0.82141 0.30634 0.23783 0.0
H2356 H 0.82156 0.29677 0.20699 0.0
H2357 H 0.85923 0.39515 0.22146 0.0
H2358 H 0.84949 0.38345 0.24898 0.0
H2359 H 0.87337 0.37441 0.23617 0.0
H2360 H 0.83711 0.33206 0.30931 0.0
H2361 H 0.89384 0.31238 0.27511 0.0
H2362 H 0.80804 0.33895 0.25845 0.0
H2363 H 0.81891 0.36439 0.26151 0.0
H2364 H 0.81104 0.35021 0.28829 0.0
H2365 H 0.87933 0.31515 0.21665 0.0
H2366 H 0.90201 0.32102 0.23462 0.0
H2367 H 0.88738 0.34158 0.22023 0.0
C2368 C 0.63851 0.81344 0.22638 0.0
C2369 C 0.63866 0.82444 0.20435 0.0
C2370 C 0.64653 0.82226 0.2477 0.0
C2371 C 0.65464 0.8427 0.24705 0.0
C2372 C 0.654 0.85424 0.2251 0.0
C2373 C 0.64614 0.84489 0.20392 0.0
C2374 C 0.64715 0.80936 0.27066 0.0
C2375 C 0.66224 0.87619 0.22384 0.0
C2376 C 0.66399 0.86877 0.30813 0.0
C2377 C 0.68537 0.86547 0.31126 0.0
C2378 C 0.65381 0.86193 0.28698 0.0
C2379 C 0.66525 0.85126 0.26885 0.0
C2380 C 0.68685 0.84794 0.27198 0.0
C2381 C 0.69667 0.85523 0.29306 0.0
C2382 C 0.63082 0.86599 0.28408 0.0
C2383 C 0.69953 0.83633 0.25325 0.0
H2384 H 0.63274 0.79761 0.22682 0.0
H2385 H 0.64617 0.85348 0.18694 0.0
H2386 H 0.66356 0.80639 0.27589 0.0
H2387 H 0.63976 0.8179 0.2859 0.0
H2388 H 0.63916 0.79417 0.26846 0.0
H2389 H 0.65877 0.88372 0.20611 0.0
H2390 H 0.65544 0.88575 0.23863 0.0
H2391 H 0.67934 0.87608 0.22651 0.0
H2392 H 0.65526 0.87682 0.32211 0.0
H2393 H 0.7132 0.85262 0.29546 0.0
H2394 H 0.62227 0.85103 0.28327 0.0
H2395 H 0.62784 0.87426 0.2667 0.0
H2396 H 0.6244 0.87541 0.29926 0.0
H2397 H 0.69331 0.82035 0.25099 0.0
H2398 H 0.71622 0.83524 0.25834 0.0
H2399 H 0.69835 0.84418 0.23533 0.0
C2400 C 0.14495 0.66487 0.29684 0.0
C2401 C 0.12921 0.67994 0.29684 0.0
C2402 C 0.15228 0.65638 0.27492 0.0
C2403 C 0.1436 0.6631 0.25256 0.0
C2404 C 0.12699 0.67752 0.25258 0.0
C2405 C 0.12002 0.6858 0.27473 0.0
C2406 C 0.17001 0.64099 0.27564 0.0
C2407 C 0.11724 0.68497 0.22915 0.0
C2408 C 0.17941 0.66163 0.19783 0.0
C2409 C 0.17297 0.64343 0.18602 0.0
C2410 C 0.16972 0.66835 0.21926 0.0
C2411 C 0.15318 0.65654 0.22917 0.0
C2412 C 0.14622 0.63844 0.217 0.0
C2413 C 0.15621 0.63209 0.1955 0.0
C2414 C 0.17751 0.68783 0.23161 0.0
C2415 C 0.12861 0.6255 0.22701 0.0
H2416 H 0.15206 0.66026 0.31389 0.0
H2417 H 0.10774 0.69736 0.27464 0.0
H2418 H 0.16616 0.62703 0.26466 0.0
H2419 H 0.18409 0.64813 0.2675 0.0
H2420 H 0.17378 0.63598 0.29448 0.0
H2421 H 0.10315 0.69457 0.23239 0.0
H2422 H 0.12866 0.69445 0.21886 0.0
H2423 H 0.11295 0.67156 0.2175 0.0
H2424 H 0.19236 0.67047 0.19057 0.0
H2425 H 0.15123 0.61795 0.18647 0.0
H2426 H 0.18349 0.68397 0.25 0.0
H2427 H 0.16457 0.69905 0.23399 0.0
H2428 H 0.19013 0.69555 0.22117 0.0
H2429 H 0.13311 0.61897 0.24494 0.0
H2430 H 0.12435 0.61247 0.21471 0.0
H2431 H 0.11468 0.63535 0.22998 0.0
C2432 C 0.32824 0.12933 0.29402 0.0
C2433 C 0.30661 0.12857 0.29689 0.0
C2434 C 0.33715 0.13746 0.27272 0.0
C2435 C 0.32408 0.14531 0.25411 0.0
C2436 C 0.30222 0.14411 0.25671 0.0
C2437 C 0.29375 0.13561 0.27801 0.0
C2438 C 0.36053 0.13823 0.27043 0.0
C2439 C 0.28775 0.15257 0.23745 0.0
C2440 C 0.34465 0.18858 0.21405 0.0
C2441 C 0.34852 0.17814 0.19213 0.0
C2442 C 0.3369 0.17799 0.23438 0.0
C2443 C 0.33315 0.15636 0.23287 0.0
C2444 C 0.33736 0.14562 0.21091 0.0
C2445 C 0.34488 0.15669 0.19069 0.0
C2446 C 0.33237 0.19007 0.25736 0.0
C2447 C 0.33377 0.1225 0.20876 0.0
H2448 H 0.33822 0.12374 0.30851 0.0
H2449 H 0.277 0.13506 0.28015 0.0
H2450 H 0.36549 0.13143 0.25281 0.0
H2451 H 0.36583 0.15464 0.27069 0.0
H2452 H 0.36844 0.12973 0.28541 0.0
H2453 H 0.27116 0.14939 0.24164 0.0
H2454 H 0.28989 0.16963 0.23584 0.0
H2455 H 0.29149 0.14568 0.21947 0.0
H2456 H 0.34739 0.20518 0.21526 0.0
H2457 H 0.34795 0.14856 0.17379 0.0
H2458 H 0.34129 0.18347 0.27281 0.0
H2459 H 0.31563 0.18876 0.26197 0.0
H2460 H 0.33636 0.20681 0.2556 0.0
H2461 H 0.34239 0.11417 0.22329 0.0
H2462 H 0.33875 0.1163 0.19082 0.0
H2463 H 0.31702 0.11899 0.21131 0.0
loop_
_geom_bond_atom_site_label_1
_geom_bond_atom_site_label_2
_geom_bond_distance
_geom_bond_site_symmetry_2
_ccdc_geom_bond_type
In0 O1 2.294 . S
In0 O2 2.326 . S
In0 O6 2.266 . S
In0 O7 2.326 . S
In0 O8 2.266 . S
In0 O9 2.326 . S
In0 O11 2.294 . S
In0 O12 2.326 . S
O1 In0 2.294 . S
O1 C10 1.240 . S
O2 In0 2.326 . S
O2 C10 1.252 . S
C3 O6 1.252 . S
C3 O7 1.260 . S
C4 O11 1.240 . S
C4 O12 1.252 . S
C5 O8 1.252 . S
C5 O9 1.260 . S
O6 In0 2.266 . S
O6 C3 1.252 . S
O7 In0 2.326 . S
O7 C3 1.260 . S
O8 In0 2.266 . S
O8 C5 1.252 . S
O9 In0 2.326 . S
O9 C5 1.260 . S
C10 O1 1.240 . S
C10 O2 1.252 . S
O11 In0 2.294 . S
O11 C4 1.240 . S
O12 In0 2.326 . S
O12 C4 1.252 . S
In13 O14 2.294 . S
In13 O15 2.326 . S
In13 O19 2.266 . S
In13 O20 2.326 . S
In13 O21 2.266 . S
In13 O22 2.326 . S
In13 O24 2.294 . S
In13 O25 2.326 . S
O14 In13 2.294 . S
O14 C23 1.240 . S
O15 In13 2.326 . S
O15 C23 1.252 . S
C16 O19 1.252 . S
C16 O20 1.260 . S
C17 O24 1.240 . S
C17 O25 1.252 . S
C18 O21 1.252 . S
C18 O22 1.260 . S
O19 In13 2.266 . S
O19 C16 1.252 . S
O20 In13 2.326 . S
O20 C16 1.260 . S
O21 In13 2.266 . S
O21 C18 1.252 . S
O22 In13 2.326 . S
O22 C18 1.260 . S
C23 O14 1.240 . S
C23 O15 1.252 . S
O24 In13 2.294 . S
O24 C17 1.240 . S
O25 In13 2.326 . S
O25 C17 1.252 . S
In26 O27 2.294 . S
In26 O28 2.326 . S
In26 O32 2.266 . S
In26 O33 2.326 . S
In26 O34 2.266 . S
In26 O35 2.326 . S
In26 O37 2.294 . S
In26 O38 2.326 . S
O27 In26 2.294 . S
O27 C36 1.240 . S
O28 In26 2.326 . S
O28 C36 1.252 . S
C29 O32 1.252 . S
C29 O33 1.260 . S
C30 O37 1.240 . S
C30 O38 1.252 . S
C31 O34 1.252 . S
C31 O35 1.260 . S
O32 In26 2.266 . S
O32 C29 1.252 . S
O33 In26 2.326 . S
O33 C29 1.260 . S
O34 In26 2.266 . S
O34 C31 1.252 . S
O35 In26 2.326 . S
O35 C31 1.260 . S
C36 O27 1.240 . S
C36 O28 1.252 . S
O37 In26 2.294 . S
O37 C30 1.240 . S
O38 In26 2.326 . S
O38 C30 1.252 . S
In39 O40 2.294 . S
In39 O41 2.326 . S
In39 O45 2.266 . S
In39 O46 2.326 . S
In39 O47 2.266 . S
In39 O48 2.326 . S
In39 O50 2.294 . S
In39 O51 2.326 . S
O40 In39 2.294 . S
O40 C49 1.240 . S
O41 In39 2.326 . S
O41 C49 1.252 . S
C42 O45 1.252 . S
C42 O46 1.260 . S
C43 O50 1.240 . S
C43 O51 1.252 . S
C44 O47 1.252 . S
C44 O48 1.260 . S
O45 In39 2.266 . S
O45 C42 1.252 . S
O46 In39 2.326 . S
O46 C42 1.260 . S
O47 In39 2.266 . S
O47 C44 1.252 . S
O48 In39 2.326 . S
O48 C44 1.260 . S
C49 O40 1.240 . S
C49 O41 1.252 . S
O50 In39 2.294 . S
O50 C43 1.240 . S
O51 In39 2.326 . S
O51 C43 1.252 . S
In52 O53 2.294 . S
In52 O54 2.326 . S
In52 O58 2.266 . S
In52 O59 2.326 . S
In52 O60 2.266 . S
In52 O61 2.326 . S
In52 O63 2.294 . S
In52 O64 2.326 . S
O53 In52 2.294 . S
O53 C62 1.240 . S
O54 In52 2.326 . S
O54 C62 1.252 . S
C55 O58 1.252 . S
C55 O59 1.260 . S
C56 O63 1.240 . S
C56 O64 1.252 . S
C57 O60 1.252 . S
C57 O61 1.260 . S
O58 In52 2.266 . S
O58 C55 1.252 . S
O59 In52 2.326 . S
O59 C55 1.260 . S
O60 In52 2.266 . S
O60 C57 1.252 . S
O61 In52 2.326 . S
O61 C57 1.260 . S
C62 O53 1.240 . S
C62 O54 1.252 . S
O63 In52 2.294 . S
O63 C56 1.240 . S
O64 In52 2.326 . S
O64 C56 1.252 . S
In65 O66 2.294 . S
In65 O67 2.326 . S
In65 O71 2.266 . S
In65 O72 2.326 . S
In65 O73 2.266 . S
In65 O74 2.326 . S
In65 O76 2.294 . S
In65 O77 2.326 . S
O66 In65 2.294 . S
O66 C75 1.240 . S
O67 In65 2.326 . S
O67 C75 1.252 . S
C68 O71 1.252 . S
C68 O72 1.260 . S
C69 O76 1.240 . S
C69 O77 1.252 . S
C70 O73 1.252 . S
C70 O74 1.260 . S
O71 In65 2.266 . S
O71 C68 1.252 . S
O72 In65 2.326 . S
O72 C68 1.260 . S
O73 In65 2.266 . S
O73 C70 1.252 . S
O74 In65 2.326 . S
O74 C70 1.260 . S
C75 O66 1.240 . S
C75 O67 1.252 . S
O76 In65 2.294 . S
O76 C69 1.240 . S
O77 In65 2.326 . S
O77 C69 1.252 . S
In78 O79 2.294 . S
In78 O80 2.326 . S
In78 O84 2.266 . S
In78 O85 2.326 . S
In78 O86 2.266 . S
In78 O87 2.326 . S
In78 O89 2.294 . S
In78 O90 2.326 . S
O79 In78 2.294 . S
O79 C88 1.240 . S
O80 In78 2.326 . S
O80 C88 1.252 . S
C81 O84 1.252 . S
C81 O85 1.260 . S
C82 O89 1.240 . S
C82 O90 1.252 . S
C83 O86 1.252 . S
C83 O87 1.260 . S
O84 In78 2.266 . S
O84 C81 1.252 . S
O85 In78 2.326 . S
O85 C81 1.260 . S
O86 In78 2.266 . S
O86 C83 1.252 . S
O87 In78 2.326 . S
O87 C83 1.260 . S
C88 O79 1.240 . S
C88 O80 1.252 . S
O89 In78 2.294 . S
O89 C82 1.240 . S
O90 In78 2.326 . S
O90 C82 1.252 . S
In91 O92 2.294 . S
In91 O93 2.326 . S
In91 O97 2.266 . S
In91 O98 2.326 . S
In91 O99 2.266 . S
In91 O100 2.326 . S
In91 O102 2.294 . S
In91 O103 2.326 . S
O92 In91 2.294 . S
O92 C101 1.240 . S
O93 In91 2.326 . S
O93 C101 1.252 . S
C94 O97 1.252 . S
C94 O98 1.260 . S
C95 O102 1.240 . S
C95 O103 1.252 . S
C96 O99 1.252 . S
C96 O100 1.260 . S
O97 In91 2.266 . S
O97 C94 1.252 . S
O98 In91 2.326 . S
O98 C94 1.260 . S
O99 In91 2.266 . S
O99 C96 1.252 . S
O100 In91 2.326 . S
O100 C96 1.260 . S
C101 O92 1.240 . S
C101 O93 1.252 . S
O102 In91 2.294 . S
O102 C95 1.240 . S
O103 In91 2.326 . S
O103 C95 1.252 . S
In104 O105 2.294 . S
In104 O106 2.326 . S
In104 O110 2.266 . S
In104 O111 2.326 . S
In104 O112 2.266 . S
In104 O113 2.326 . S
In104 O115 2.294 . S
In104 O116 2.326 . S
O105 In104 2.294 . S
O105 C114 1.240 . S
O106 In104 2.326 . S
O106 C114 1.252 . S
C107 O110 1.252 . S
C107 O111 1.260 . S
C108 O115 1.240 . S
C108 O116 1.252 . S
C109 O112 1.252 . S
C109 O113 1.260 . S
O110 In104 2.266 . S
O110 C107 1.252 . S
O111 In104 2.326 . S
O111 C107 1.260 . S
O112 In104 2.266 . S
O112 C109 1.252 . S
O113 In104 2.326 . S
O113 C109 1.260 . S
C114 O105 1.240 . S
C114 O106 1.252 . S
O115 In104 2.294 . S
O115 C108 1.240 . S
O116 In104 2.326 . S
O116 C108 1.252 . S
In117 O118 2.294 . S
In117 O119 2.326 . S
In117 O123 2.266 . S
In117 O124 2.326 . S
In117 O125 2.266 . S
In117 O126 2.326 . S
In117 O128 2.294 . S
In117 O129 2.326 . S
O118 In117 2.294 . S
O118 C127 1.240 . S
O119 In117 2.326 . S
O119 C127 1.252 . S
C120 O123 1.252 . S
C120 O124 1.260 . S
C121 O128 1.240 . S
C121 O129 1.252 . S
C122 O125 1.252 . S
C122 O126 1.260 . S
O123 In117 2.266 . S
O123 C120 1.252 . S
O124 In117 2.326 . S
O124 C120 1.260 . S
O125 In117 2.266 . S
O125 C122 1.252 . S
O126 In117 2.326 . S
O126 C122 1.260 . S
C127 O118 1.240 . S
C127 O119 1.252 . S
O128 In117 2.294 . S
O128 C121 1.240 . S
O129 In117 2.326 . S
O129 C121 1.252 . S
In130 O131 2.294 . S
In130 O132 2.326 . S
In130 O136 2.266 . S
In130 O137 2.326 . S
In130 O138 2.266 . S
In130 O139 2.326 . S
In130 O141 2.294 . S
In130 O142 2.326 . S
O131 In130 2.294 . S
O131 C140 1.240 . S
O132 In130 2.326 . S
O132 C140 1.252 . S
C133 O136 1.252 . S
C133 O137 1.260 . S
C134 O141 1.240 . S
C134 O142 1.252 . S
C135 O138 1.252 . S
C135 O139 1.260 . S
O136 In130 2.266 . S
O136 C133 1.252 . S
O137 In130 2.326 . S
O137 C133 1.260 . S
O138 In130 2.266 . S
O138 C135 1.252 . S
O139 In130 2.326 . S
O139 C135 1.260 . S
C140 O131 1.240 . S
C140 O132 1.252 . S
O141 In130 2.294 . S
O141 C134 1.240 . S
O142 In130 2.326 . S
O142 C134 1.252 . S
In143 O144 2.294 . S
In143 O145 2.326 . S
In143 O149 2.266 . S
In143 O150 2.326 . S
In143 O151 2.266 . S
In143 O152 2.326 . S
In143 O154 2.294 . S
In143 O155 2.326 . S
O144 In143 2.294 . S
O144 C153 1.240 . S
O145 In143 2.326 . S
O145 C153 1.252 . S
C146 O149 1.252 . S
C146 O150 1.260 . S
C147 O154 1.240 . S
C147 O155 1.252 . S
C148 O151 1.252 . S
C148 O152 1.260 . S
O149 In143 2.266 . S
O149 C146 1.252 . S
O150 In143 2.326 . S
O150 C146 1.260 . S
O151 In143 2.266 . S
O151 C148 1.252 . S
O152 In143 2.326 . S
O152 C148 1.260 . S
C153 O144 1.240 . S
C153 O145 1.252 . S
O154 In143 2.294 . S
O154 C147 1.240 . S
O155 In143 2.326 . S
O155 C147 1.252 . S
In156 O157 2.294 . S
In156 O158 2.326 . S
In156 O162 2.266 . S
In156 O163 2.326 . S
In156 O164 2.266 . S
In156 O165 2.326 . S
In156 O167 2.294 . S
In156 O168 2.326 . S
O157 In156 2.294 . S
O157 C166 1.240 . S
O158 In156 2.326 . S
O158 C166 1.252 . S
C159 O162 1.252 . S
C159 O163 1.260 . S
C160 O167 1.240 . S
C160 O168 1.252 . S
C161 O164 1.252 . S
C161 O165 1.260 . S
O162 In156 2.266 . S
O162 C159 1.252 . S
O163 In156 2.326 . S
O163 C159 1.260 . S
O164 In156 2.266 . S
O164 C161 1.252 . S
O165 In156 2.326 . S
O165 C161 1.260 . S
C166 O157 1.240 . S
C166 O158 1.252 . S
O167 In156 2.294 . S
O167 C160 1.240 . S
O168 In156 2.326 . S
O168 C160 1.252 . S
In169 O170 2.294 . S
In169 O171 2.326 . S
In169 O175 2.266 . S
In169 O176 2.326 . S
In169 O177 2.266 . S
In169 O178 2.326 . S
In169 O180 2.294 . S
In169 O181 2.326 . S
O170 In169 2.294 . S
O170 C179 1.240 . S
O171 In169 2.326 . S
O171 C179 1.252 . S
C172 O175 1.252 . S
C172 O176 1.260 . S
C173 O180 1.240 . S
C173 O181 1.252 . S
C174 O177 1.252 . S
C174 O178 1.260 . S
O175 In169 2.266 . S
O175 C172 1.252 . S
O176 In169 2.326 . S
O176 C172 1.260 . S
O177 In169 2.266 . S
O177 C174 1.252 . S
O178 In169 2.326 . S
O178 C174 1.260 . S
C179 O170 1.240 . S
C179 O171 1.252 . S
O180 In169 2.294 . S
O180 C173 1.240 . S
O181 In169 2.326 . S
O181 C173 1.252 . S
In182 O183 2.294 . S
In182 O184 2.326 . S
In182 O188 2.266 . S
In182 O189 2.326 . S
In182 O190 2.266 . S
In182 O191 2.326 . S
In182 O193 2.294 . S
In182 O194 2.326 . S
O183 In182 2.294 . S
O183 C192 1.240 . S
O184 In182 2.326 . S
O184 C192 1.252 . S
C185 O188 1.252 . S
C185 O189 1.260 . S
C186 O193 1.240 . S
C186 O194 1.252 . S
C187 O190 1.252 . S
C187 O191 1.260 . S
O188 In182 2.266 . S
O188 C185 1.252 . S
O189 In182 2.326 . S
O189 C185 1.260 . S
O190 In182 2.266 . S
O190 C187 1.252 . S
O191 In182 2.326 . S
O191 C187 1.260 . S
C192 O183 1.240 . S
C192 O184 1.252 . S
O193 In182 2.294 . S
O193 C186 1.240 . S
O194 In182 2.326 . S
O194 C186 1.252 . S
In195 O196 2.294 . S
In195 O197 2.326 . S
In195 O201 2.266 . S
In195 O202 2.326 . S
In195 O203 2.266 . S
In195 O204 2.326 . S
In195 O206 2.294 . S
In195 O207 2.326 . S
O196 In195 2.294 . S
O196 C205 1.240 . S
O197 In195 2.326 . S
O197 C205 1.252 . S
C198 O201 1.252 . S
C198 O202 1.260 . S
C199 O206 1.240 . S
C199 O207 1.252 . S
C200 O203 1.252 . S
C200 O204 1.260 . S
O201 In195 2.266 . S
O201 C198 1.252 . S
O202 In195 2.326 . S
O202 C198 1.260 . S
O203 In195 2.266 . S
O203 C200 1.252 . S
O204 In195 2.326 . S
O204 C200 1.260 . S
C205 O196 1.240 . S
C205 O197 1.252 . S
O206 In195 2.294 . S
O206 C199 1.240 . S
O207 In195 2.326 . S
O207 C199 1.252 . S
In208 O209 2.294 . S
In208 O210 2.326 . S
In208 O214 2.266 . S
In208 O215 2.326 . S
In208 O216 2.266 . S
In208 O217 2.326 . S
In208 O219 2.294 . S
In208 O220 2.326 . S
O209 In208 2.294 . S
O209 C218 1.240 . S
O210 In208 2.326 . S
O210 C218 1.252 . S
C211 O214 1.252 . S
C211 O215 1.260 . S
C212 O219 1.240 . S
C212 O220 1.252 . S
C213 O216 1.252 . S
C213 O217 1.260 . S
O214 In208 2.266 . S
O214 C211 1.252 . S
O215 In208 2.326 . S
O215 C211 1.260 . S
O216 In208 2.266 . S
O216 C213 1.252 . S
O217 In208 2.326 . S
O217 C213 1.260 . S
C218 O209 1.240 . S
C218 O210 1.252 . S
O219 In208 2.294 . S
O219 C212 1.240 . S
O220 In208 2.326 . S
O220 C212 1.252 . S
In221 O222 2.294 . S
In221 O223 2.326 . S
In221 O227 2.266 . S
In221 O228 2.326 . S
In221 O229 2.266 . S
In221 O230 2.326 . S
In221 O232 2.294 . S
In221 O233 2.326 . S
O222 In221 2.294 . S
O222 C231 1.240 . S
O223 In221 2.326 . S
O223 C231 1.252 . S
C224 O227 1.252 . S
C224 O228 1.260 . S
C225 O232 1.240 . S
C225 O233 1.252 . S
C226 O229 1.252 . S
C226 O230 1.260 . S
O227 In221 2.266 . S
O227 C224 1.252 . S
O228 In221 2.326 . S
O228 C224 1.260 . S
O229 In221 2.266 . S
O229 C226 1.252 . S
O230 In221 2.326 . S
O230 C226 1.260 . S
C231 O222 1.240 . S
C231 O223 1.252 . S
O232 In221 2.294 . S
O232 C225 1.240 . S
O233 In221 2.326 . S
O233 C225 1.252 . S
In234 O235 2.294 . S
In234 O236 2.326 . S
In234 O240 2.266 . S
In234 O241 2.326 . S
In234 O242 2.266 . S
In234 O243 2.326 . S
In234 O245 2.294 . S
In234 O246 2.326 . S
O235 In234 2.294 . S
O235 C244 1.240 . S
O236 In234 2.326 . S
O236 C244 1.252 . S
C237 O240 1.252 . S
C237 O241 1.260 . S
C238 O245 1.240 . S
C238 O246 1.252 . S
C239 O242 1.252 . S
C239 O243 1.260 . S
O240 In234 2.266 . S
O240 C237 1.252 . S
O241 In234 2.326 . S
O241 C237 1.260 . S
O242 In234 2.266 . S
O242 C239 1.252 . S
O243 In234 2.326 . S
O243 C239 1.260 . S
C244 O235 1.240 . S
C244 O236 1.252 . S
O245 In234 2.294 . S
O245 C238 1.240 . S
O246 In234 2.326 . S
O246 C238 1.252 . S
In247 O248 2.294 . S
In247 O249 2.326 . S
In247 O253 2.266 . S
In247 O254 2.326 . S
In247 O255 2.266 . S
In247 O256 2.326 . S
In247 O258 2.294 . S
In247 O259 2.326 . S
O248 In247 2.294 . S
O248 C257 1.240 . S
O249 In247 2.326 . S
O249 C257 1.252 . S
C250 O253 1.252 . S
C250 O254 1.260 . S
C251 O258 1.240 . S
C251 O259 1.252 . S
C252 O255 1.252 . S
C252 O256 1.260 . S
O253 In247 2.266 . S
O253 C250 1.252 . S
O254 In247 2.326 . S
O254 C250 1.260 . S
O255 In247 2.266 . S
O255 C252 1.252 . S
O256 In247 2.326 . S
O256 C252 1.260 . S
C257 O248 1.240 . S
C257 O249 1.252 . S
O258 In247 2.294 . S
O258 C251 1.240 . S
O259 In247 2.326 . S
O259 C251 1.252 . S
In260 O261 2.294 . S
In260 O262 2.326 . S
In260 O266 2.266 . S
In260 O267 2.326 . S
In260 O268 2.266 . S
In260 O269 2.326 . S
In260 O271 2.294 . S
In260 O272 2.326 . S
O261 In260 2.294 . S
O261 C270 1.240 . S
O262 In260 2.326 . S
O262 C270 1.252 . S
C263 O266 1.252 . S
C263 O267 1.260 . S
C264 O271 1.240 . S
C264 O272 1.252 . S
C265 O268 1.252 . S
C265 O269 1.260 . S
O266 In260 2.266 . S
O266 C263 1.252 . S
O267 In260 2.326 . S
O267 C263 1.260 . S
O268 In260 2.266 . S
O268 C265 1.252 . S
O269 In260 2.326 . S
O269 C265 1.260 . S
C270 O261 1.240 . S
C270 O262 1.252 . S
O271 In260 2.294 . S
O271 C264 1.240 . S
O272 In260 2.326 . S
O272 C264 1.252 . S
In273 O274 2.294 . S
In273 O275 2.326 . S
In273 O279 2.266 . S
In273 O280 2.326 . S
In273 O281 2.266 . S
In273 O282 2.326 . S
In273 O284 2.294 . S
In273 O285 2.326 . S
O274 In273 2.294 . S
O274 C283 1.240 . S
O275 In273 2.326 . S
O275 C283 1.252 . S
C276 O279 1.252 . S
C276 O280 1.260 . S
C277 O284 1.240 . S
C277 O285 1.252 . S
C278 O281 1.252 . S
C278 O282 1.260 . S
O279 In273 2.266 . S
O279 C276 1.252 . S
O280 In273 2.326 . S
O280 C276 1.260 . S
O281 In273 2.266 . S
O281 C278 1.252 . S
O282 In273 2.326 . S
O282 C278 1.260 . S
C283 O274 1.240 . S
C283 O275 1.252 . S
O284 In273 2.294 . S
O284 C277 1.240 . S
O285 In273 2.326 . S
O285 C277 1.252 . S
In286 O287 2.294 . S
In286 O288 2.326 . S
In286 O292 2.266 . S
In286 O293 2.326 . S
In286 O294 2.266 . S
In286 O295 2.326 . S
In286 O297 2.294 . S
In286 O298 2.326 . S
O287 In286 2.294 . S
O287 C296 1.240 . S
O288 In286 2.326 . S
O288 C296 1.252 . S
C289 O292 1.252 . S
C289 O293 1.260 . S
C290 O297 1.240 . S
C290 O298 1.252 . S
C291 O294 1.252 . S
C291 O295 1.260 . S
O292 In286 2.266 . S
O292 C289 1.252 . S
O293 In286 2.326 . S
O293 C289 1.260 . S
O294 In286 2.266 . S
O294 C291 1.252 . S
O295 In286 2.326 . S
O295 C291 1.260 . S
C296 O287 1.240 . S
C296 O288 1.252 . S
O297 In286 2.294 . S
O297 C290 1.240 . S
O298 In286 2.326 . S
O298 C290 1.252 . S
In299 O300 2.294 . S
In299 O301 2.326 . S
In299 O305 2.266 . S
In299 O306 2.326 . S
In299 O307 2.266 . S
In299 O308 2.326 . S
In299 O310 2.294 . S
In299 O311 2.326 . S
O300 In299 2.294 . S
O300 C309 1.240 . S
O301 In299 2.326 . S
O301 C309 1.252 . S
C302 O305 1.252 . S
C302 O306 1.260 . S
C303 O310 1.240 . S
C303 O311 1.252 . S
C304 O307 1.252 . S
C304 O308 1.260 . S
O305 In299 2.266 . S
O305 C302 1.252 . S
O306 In299 2.326 . S
O306 C302 1.260 . S
O307 In299 2.266 . S
O307 C304 1.252 . S
O308 In299 2.326 . S
O308 C304 1.260 . S
C309 O300 1.240 . S
C309 O301 1.252 . S
O310 In299 2.294 . S
O310 C303 1.240 . S
O311 In299 2.326 . S
O311 C303 1.252 . S
In312 O313 2.294 . S
In312 O314 2.326 . S
In312 O318 2.266 . S
In312 O319 2.326 . S
In312 O320 2.266 . S
In312 O321 2.326 . S
In312 O323 2.294 . S
In312 O324 2.326 . S
O313 In312 2.294 . S
O313 C322 1.240 . S
O314 In312 2.326 . S
O314 C322 1.252 . S
C315 O318 1.252 . S
C315 O319 1.260 . S
C316 O323 1.240 . S
C316 O324 1.252 . S
C317 O320 1.252 . S
C317 O321 1.260 . S
O318 In312 2.266 . S
O318 C315 1.252 . S
O319 In312 2.326 . S
O319 C315 1.260 . S
O320 In312 2.266 . S
O320 C317 1.252 . S
O321 In312 2.326 . S
O321 C317 1.260 . S
C322 O313 1.240 . S
C322 O314 1.252 . S
O323 In312 2.294 . S
O323 C316 1.240 . S
O324 In312 2.326 . S
O324 C316 1.252 . S
In325 O326 2.294 . S
In325 O327 2.326 . S
In325 O331 2.266 . S
In325 O332 2.326 . S
In325 O333 2.266 . S
In325 O334 2.326 . S
In325 O336 2.294 . S
In325 O337 2.326 . S
O326 In325 2.294 . S
O326 C335 1.240 . S
O327 In325 2.326 . S
O327 C335 1.252 . S
C328 O331 1.252 . S
C328 O332 1.260 . S
C329 O336 1.240 . S
C329 O337 1.252 . S
C330 O333 1.252 . S
C330 O334 1.260 . S
O331 In325 2.266 . S
O331 C328 1.252 . S
O332 In325 2.326 . S
O332 C328 1.260 . S
O333 In325 2.266 . S
O333 C330 1.252 . S
O334 In325 2.326 . S
O334 C330 1.260 . S
C335 O326 1.240 . S
C335 O327 1.252 . S
O336 In325 2.294 . S
O336 C329 1.240 . S
O337 In325 2.326 . S
O337 C329 1.252 . S
In338 O339 2.294 . S
In338 O340 2.326 . S
In338 O344 2.266 . S
In338 O345 2.326 . S
In338 O346 2.266 . S
In338 O347 2.326 . S
In338 O349 2.294 . S
In338 O350 2.326 . S
O339 In338 2.294 . S
O339 C348 1.240 . S
O340 In338 2.326 . S
O340 C348 1.252 . S
C341 O344 1.252 . S
C341 O345 1.260 . S
C342 O349 1.240 . S
C342 O350 1.252 . S
C343 O346 1.252 . S
C343 O347 1.260 . S
O344 In338 2.266 . S
O344 C341 1.252 . S
O345 In338 2.326 . S
O345 C341 1.260 . S
O346 In338 2.266 . S
O346 C343 1.252 . S
O347 In338 2.326 . S
O347 C343 1.260 . S
C348 O339 1.240 . S
C348 O340 1.252 . S
O349 In338 2.294 . S
O349 C342 1.240 . S
O350 In338 2.326 . S
O350 C342 1.252 . S
In351 O352 2.294 . S
In351 O353 2.326 . S
In351 O357 2.266 . S
In351 O358 2.326 . S
In351 O359 2.266 . S
In351 O360 2.326 . S
In351 O362 2.294 . S
In351 O363 2.326 . S
O352 In351 2.294 . S
O352 C361 1.240 . S
O353 In351 2.326 . S
O353 C361 1.252 . S
C354 O357 1.252 . S
C354 O358 1.260 . S
C355 O362 1.240 . S
C355 O363 1.252 . S
C356 O359 1.252 . S
C356 O360 1.260 . S
O357 In351 2.266 . S
O357 C354 1.252 . S
O358 In351 2.326 . S
O358 C354 1.260 . S
O359 In351 2.266 . S
O359 C356 1.252 . S
O360 In351 2.326 . S
O360 C356 1.260 . S
C361 O352 1.240 . S
C361 O353 1.252 . S
O362 In351 2.294 . S
O362 C355 1.240 . S
O363 In351 2.326 . S
O363 C355 1.252 . S
In364 O365 2.294 . S
In364 O366 2.326 . S
In364 O370 2.266 . S
In364 O371 2.326 . S
In364 O372 2.266 . S
In364 O373 2.326 . S
In364 O375 2.294 . S
In364 O376 2.326 . S
O365 In364 2.294 . S
O365 C374 1.240 . S
O366 In364 2.326 . S
O366 C374 1.252 . S
C367 O370 1.252 . S
C367 O371 1.260 . S
C368 O375 1.240 . S
C368 O376 1.252 . S
C369 O372 1.252 . S
C369 O373 1.260 . S
O370 In364 2.266 . S
O370 C367 1.252 . S
O371 In364 2.326 . S
O371 C367 1.260 . S
O372 In364 2.266 . S
O372 C369 1.252 . S
O373 In364 2.326 . S
O373 C369 1.260 . S
C374 O365 1.240 . S
C374 O366 1.252 . S
O375 In364 2.294 . S
O375 C368 1.240 . S
O376 In364 2.326 . S
O376 C368 1.252 . S
In377 O378 2.294 . S
In377 O379 2.326 . S
In377 O383 2.266 . S
In377 O384 2.326 . S
In377 O385 2.266 . S
In377 O386 2.326 . S
In377 O388 2.294 . S
In377 O389 2.326 . S
O378 In377 2.294 . S
O378 C387 1.240 . S
O379 In377 2.326 . S
O379 C387 1.252 . S
C380 O383 1.252 . S
C380 O384 1.260 . S
C381 O388 1.240 . S
C381 O389 1.252 . S
C382 O385 1.252 . S
C382 O386 1.260 . S
O383 In377 2.266 . S
O383 C380 1.252 . S
O384 In377 2.326 . S
O384 C380 1.260 . S
O385 In377 2.266 . S
O385 C382 1.252 . S
O386 In377 2.326 . S
O386 C382 1.260 . S
C387 O378 1.240 . S
C387 O379 1.252 . S
O388 In377 2.294 . S
O388 C381 1.240 . S
O389 In377 2.326 . S
O389 C381 1.252 . S
In390 O391 2.294 . S
In390 O392 2.326 . S
In390 O396 2.266 . S
In390 O397 2.326 . S
In390 O398 2.266 . S
In390 O399 2.326 . S
In390 O401 2.294 . S
In390 O402 2.326 . S
O391 In390 2.294 . S
O391 C400 1.240 . S
O392 In390 2.326 . S
O392 C400 1.252 . S
C393 O396 1.252 . S
C393 O397 1.260 . S
C394 O401 1.240 . S
C394 O402 1.252 . S
C395 O398 1.252 . S
C395 O399 1.260 . S
O396 In390 2.266 . S
O396 C393 1.252 . S
O397 In390 2.326 . S
O397 C393 1.260 . S
O398 In390 2.266 . S
O398 C395 1.252 . S
O399 In390 2.326 . S
O399 C395 1.260 . S
C400 O391 1.240 . S
C400 O392 1.252 . S
O401 In390 2.294 . S
O401 C394 1.240 . S
O402 In390 2.326 . S
O402 C394 1.252 . S
In403 O404 2.294 . S
In403 O405 2.326 . S
In403 O409 2.266 . S
In403 O410 2.326 . S
In403 O411 2.266 . S
In403 O412 2.326 . S
In403 O414 2.294 . S
In403 O415 2.326 . S
O404 In403 2.294 . S
O404 C413 1.240 . S
O405 In403 2.326 . S
O405 C413 1.252 . S
C406 O409 1.252 . S
C406 O410 1.260 . S
C407 O414 1.240 . S
C407 O415 1.252 . S
C408 O411 1.252 . S
C408 O412 1.260 . S
O409 In403 2.266 . S
O409 C406 1.252 . S
O410 In403 2.326 . S
O410 C406 1.260 . S
O411 In403 2.266 . S
O411 C408 1.252 . S
O412 In403 2.326 . S
O412 C408 1.260 . S
C413 O404 1.240 . S
C413 O405 1.252 . S
O414 In403 2.294 . S
O414 C407 1.240 . S
O415 In403 2.326 . S
O415 C407 1.252 . S
C416 C417 1.391 . S
C416 C418 1.394 . S
C416 H432 0.931 . S
C417 C416 1.391 . S
C417 C421 1.376 . S
C418 C416 1.394 . S
C418 C419 1.369 . S
C418 C422 1.531 . S
C419 C418 1.369 . S
C419 C420 1.410 . S
C419 C427 1.503 . S
C420 C419 1.410 . S
C420 C421 1.392 . S
C420 C423 1.511 . S
C421 C417 1.376 . S
C421 C420 1.392 . S
C421 H433 0.929 . S
C422 C418 1.531 . S
C422 H434 0.960 . S
C422 H435 0.962 . S
C422 H436 0.960 . S
C423 C420 1.511 . S
C423 H437 0.961 . S
C423 H438 0.961 . S
C423 H439 0.961 . S
C424 C425 1.370 . S
C424 C426 1.363 . S
C424 H440 0.931 . S
C425 C424 1.370 . S
C425 C429 1.408 . S
C426 C424 1.363 . S
C426 C427 1.370 . S
C426 C430 1.524 . S
C427 C419 1.503 . S
C427 C426 1.370 . S
C427 C428 1.403 . S
C428 C427 1.403 . S
C428 C429 1.404 . S
C428 C431 1.539 . S
C429 C425 1.408 . S
C429 C428 1.404 . S
C429 H441 0.930 . S
C430 C426 1.524 . S
C430 H442 0.956 . S
C430 H443 0.961 . S
C430 H444 0.961 . S
C431 C428 1.539 . S
C431 H445 0.958 . S
C431 H446 0.961 . S
C431 H447 0.960 . S
H432 C416 0.931 . S
H433 C421 0.929 . S
H434 C422 0.960 . S
H435 C422 0.962 . S
H436 C422 0.960 . S
H437 C423 0.961 . S
H438 C423 0.961 . S
H439 C423 0.961 . S
H440 C424 0.931 . S
H441 C429 0.930 . S
H442 C430 0.956 . S
H443 C430 0.961 . S
H444 C430 0.961 . S
H445 C431 0.958 . S
H446 C431 0.961 . S
H447 C431 0.960 . S
C448 C449 1.391 . S
C448 C450 1.394 . S
C448 H464 0.931 . S
C449 C448 1.391 . S
C449 C453 1.376 . S
C450 C448 1.394 . S
C450 C451 1.369 . S
C450 C454 1.531 . S
C451 C450 1.369 . S
C451 C452 1.410 . S
C451 C459 1.503 . S
C452 C451 1.410 . S
C452 C453 1.392 . S
C452 C455 1.511 . S
C453 C449 1.376 . S
C453 C452 1.392 . S
C453 H465 0.929 . S
C454 C450 1.531 . S
C454 H466 0.960 . S
C454 H467 0.962 . S
C454 H468 0.960 . S
C455 C452 1.511 . S
C455 H469 0.961 . S
C455 H470 0.961 . S
C455 H471 0.961 . S
C456 C457 1.370 . S
C456 C458 1.363 . S
C456 H472 0.931 . S
C457 C456 1.370 . S
C457 C461 1.408 . S
C458 C456 1.363 . S
C458 C459 1.370 . S
C458 C462 1.524 . S
C459 C451 1.503 . S
C459 C458 1.370 . S
C459 C460 1.403 . S
C460 C459 1.403 . S
C460 C461 1.404 . S
C460 C463 1.539 . S
C461 C457 1.408 . S
C461 C460 1.404 . S
C461 H473 0.930 . S
C462 C458 1.524 . S
C462 H474 0.956 . S
C462 H475 0.961 . S
C462 H476 0.961 . S
C463 C460 1.539 . S
C463 H477 0.958 . S
C463 H478 0.961 . S
C463 H479 0.960 . S
H464 C448 0.931 . S
H465 C453 0.929 . S
H466 C454 0.960 . S
H467 C454 0.962 . S
H468 C454 0.960 . S
H469 C455 0.961 . S
H470 C455 0.961 . S
H471 C455 0.961 . S
H472 C456 0.931 . S
H473 C461 0.930 . S
H474 C462 0.956 . S
H475 C462 0.961 . S
H476 C462 0.961 . S
H477 C463 0.958 . S
H478 C463 0.961 . S
H479 C463 0.960 . S
C480 C481 1.391 . S
C480 C482 1.394 . S
C480 H496 0.931 . S
C481 C480 1.391 . S
C481 C485 1.376 . S
C482 C480 1.394 . S
C482 C483 1.369 . S
C482 C486 1.531 . S
C483 C482 1.369 . S
C483 C484 1.410 . S
C483 C491 1.503 . S
C484 C483 1.410 . S
C484 C485 1.392 . S
C484 C487 1.511 . S
C485 C481 1.376 . S
C485 C484 1.392 . S
C485 H497 0.929 . S
C486 C482 1.531 . S
C486 H498 0.960 . S
C486 H499 0.962 . S
C486 H500 0.960 . S
C487 C484 1.511 . S
C487 H501 0.961 . S
C487 H502 0.961 . S
C487 H503 0.961 . S
C488 C489 1.370 . S
C488 C490 1.363 . S
C488 H504 0.931 . S
C489 C488 1.370 . S
C489 C493 1.408 . S
C490 C488 1.363 . S
C490 C491 1.370 . S
C490 C494 1.524 . S
C491 C483 1.503 . S
C491 C490 1.370 . S
C491 C492 1.403 . S
C492 C491 1.403 . S
C492 C493 1.404 . S
C492 C495 1.539 . S
C493 C489 1.408 . S
C493 C492 1.404 . S
C493 H505 0.930 . S
C494 C490 1.524 . S
C494 H506 0.956 . S
C494 H507 0.961 . S
C494 H508 0.961 . S
C495 C492 1.539 . S
C495 H509 0.958 . S
C495 H510 0.961 . S
C495 H511 0.960 . S
H496 C480 0.931 . S
H497 C485 0.929 . S
H498 C486 0.960 . S
H499 C486 0.962 . S
H500 C486 0.960 . S
H501 C487 0.961 . S
H502 C487 0.961 . S
H503 C487 0.961 . S
H504 C488 0.931 . S
H505 C493 0.930 . S
H506 C494 0.956 . S
H507 C494 0.961 . S
H508 C494 0.961 . S
H509 C495 0.958 . S
H510 C495 0.961 . S
H511 C495 0.960 . S
C512 C513 1.391 . S
C512 C514 1.394 . S
C512 H528 0.931 . S
C513 C512 1.391 . S
C513 C517 1.376 . S
C514 C512 1.394 . S
C514 C515 1.369 . S
C514 C518 1.531 . S
C515 C514 1.369 . S
C515 C516 1.410 . S
C515 C523 1.503 . S
C516 C515 1.410 . S
C516 C517 1.392 . S
C516 C519 1.511 . S
C517 C513 1.376 . S
C517 C516 1.392 . S
C517 H529 0.929 . S
C518 C514 1.531 . S
C518 H530 0.960 . S
C518 H531 0.962 . S
C518 H532 0.960 . S
C519 C516 1.511 . S
C519 H533 0.961 . S
C519 H534 0.961 . S
C519 H535 0.961 . S
C520 C521 1.370 . S
C520 C522 1.363 . S
C520 H536 0.931 . S
C521 C520 1.370 . S
C521 C525 1.408 . S
C522 C520 1.363 . S
C522 C523 1.370 . S
C522 C526 1.524 . S
C523 C515 1.503 . S
C523 C522 1.370 . S
C523 C524 1.403 . S
C524 C523 1.403 . S
C524 C525 1.404 . S
C524 C527 1.539 . S
C525 C521 1.408 . S
C525 C524 1.404 . S
C525 H537 0.930 . S
C526 C522 1.524 . S
C526 H538 0.956 . S
C526 H539 0.961 . S
C526 H540 0.961 . S
C527 C524 1.539 . S
C527 H541 0.958 . S
C527 H542 0.961 . S
C527 H543 0.960 . S
H528 C512 0.931 . S
H529 C517 0.929 . S
H530 C518 0.960 . S
H531 C518 0.962 . S
H532 C518 0.960 . S
H533 C519 0.961 . S
H534 C519 0.961 . S
H535 C519 0.961 . S
H536 C520 0.931 . S
H537 C525 0.930 . S
H538 C526 0.956 . S
H539 C526 0.961 . S
H540 C526 0.961 . S
H541 C527 0.958 . S
H542 C527 0.961 . S
H543 C527 0.960 . S
C544 C545 1.391 . S
C544 C546 1.394 . S
C544 H560 0.931 . S
C545 C544 1.391 . S
C545 C549 1.376 . S
C546 C544 1.394 . S
C546 C547 1.369 . S
C546 C550 1.531 . S
C547 C546 1.369 . S
C547 C548 1.410 . S
C547 C555 1.503 . S
C548 C547 1.410 . S
C548 C549 1.392 . S
C548 C551 1.511 . S
C549 C545 1.376 . S
C549 C548 1.392 . S
C549 H561 0.929 . S
C550 C546 1.531 . S
C550 H562 0.960 . S
C550 H563 0.962 . S
C550 H564 0.960 . S
C551 C548 1.511 . S
C551 H565 0.961 . S
C551 H566 0.961 . S
C551 H567 0.961 . S
C552 C553 1.370 . S
C552 C554 1.363 . S
C552 H568 0.931 . S
C553 C552 1.370 . S
C553 C557 1.408 . S
C554 C552 1.363 . S
C554 C555 1.370 . S
C554 C558 1.524 . S
C555 C547 1.503 . S
C555 C554 1.370 . S
C555 C556 1.403 . S
C556 C555 1.403 . S
C556 C557 1.404 . S
C556 C559 1.539 . S
C557 C553 1.408 . S
C557 C556 1.404 . S
C557 H569 0.930 . S
C558 C554 1.524 . S
C558 H570 0.956 . S
C558 H571 0.961 . S
C558 H572 0.961 . S
C559 C556 1.539 . S
C559 H573 0.958 . S
C559 H574 0.961 . S
C559 H575 0.960 . S
H560 C544 0.931 . S
H561 C549 0.929 . S
H562 C550 0.960 . S
H563 C550 0.962 . S
H564 C550 0.960 . S
H565 C551 0.961 . S
H566 C551 0.961 . S
H567 C551 0.961 . S
H568 C552 0.931 . S
H569 C557 0.930 . S
H570 C558 0.956 . S
H571 C558 0.961 . S
H572 C558 0.961 . S
H573 C559 0.958 . S
H574 C559 0.961 . S
H575 C559 0.960 . S
C576 C577 1.391 . S
C576 C578 1.394 . S
C576 H592 0.931 . S
C577 C576 1.391 . S
C577 C581 1.376 . S
C578 C576 1.394 . S
C578 C579 1.369 . S
C578 C582 1.531 . S
C579 C578 1.369 . S
C579 C580 1.410 . S
C579 C587 1.503 . S
C580 C579 1.410 . S
C580 C581 1.392 . S
C580 C583 1.511 . S
C581 C577 1.376 . S
C581 C580 1.392 . S
C581 H593 0.929 . S
C582 C578 1.531 . S
C582 H594 0.960 . S
C582 H595 0.962 . S
C582 H596 0.960 . S
C583 C580 1.511 . S
C583 H597 0.961 . S
C583 H598 0.961 . S
C583 H599 0.961 . S
C584 C585 1.370 . S
C584 C586 1.363 . S
C584 H600 0.931 . S
C585 C584 1.370 . S
C585 C589 1.408 . S
C586 C584 1.363 . S
C586 C587 1.370 . S
C586 C590 1.524 . S
C587 C579 1.503 . S
C587 C586 1.370 . S
C587 C588 1.403 . S
C588 C587 1.403 . S
C588 C589 1.404 . S
C588 C591 1.539 . S
C589 C585 1.408 . S
C589 C588 1.404 . S
C589 H601 0.930 . S
C590 C586 1.524 . S
C590 H602 0.956 . S
C590 H603 0.961 . S
C590 H604 0.961 . S
C591 C588 1.539 . S
C591 H605 0.958 . S
C591 H606 0.961 . S
C591 H607 0.960 . S
H592 C576 0.931 . S
H593 C581 0.929 . S
H594 C582 0.960 . S
H595 C582 0.962 . S
H596 C582 0.960 . S
H597 C583 0.961 . S
H598 C583 0.961 . S
H599 C583 0.961 . S
H600 C584 0.931 . S
H601 C589 0.930 . S
H602 C590 0.956 . S
H603 C590 0.961 . S
H604 C590 0.961 . S
H605 C591 0.958 . S
H606 C591 0.961 . S
H607 C591 0.960 . S
C608 C609 1.391 . S
C608 C610 1.394 . S
C608 H624 0.931 . S
C609 C608 1.391 . S
C609 C613 1.376 . S
C610 C608 1.394 . S
C610 C611 1.369 . S
C610 C614 1.531 . S
C611 C610 1.369 . S
C611 C612 1.410 . S
C611 C619 1.503 . S
C612 C611 1.410 . S
C612 C613 1.392 . S
C612 C615 1.511 . S
C613 C609 1.376 . S
C613 C612 1.392 . S
C613 H625 0.929 . S
C614 C610 1.531 . S
C614 H626 0.960 . S
C614 H627 0.962 . S
C614 H628 0.960 . S
C615 C612 1.511 . S
C615 H629 0.961 . S
C615 H630 0.961 . S
C615 H631 0.961 . S
C616 C617 1.370 . S
C616 C618 1.363 . S
C616 H632 0.931 . S
C617 C616 1.370 . S
C617 C621 1.408 . S
C618 C616 1.363 . S
C618 C619 1.370 . S
C618 C622 1.524 . S
C619 C611 1.503 . S
C619 C618 1.370 . S
C619 C620 1.403 . S
C620 C619 1.403 . S
C620 C621 1.404 . S
C620 C623 1.539 . S
C621 C617 1.408 . S
C621 C620 1.404 . S
C621 H633 0.930 . S
C622 C618 1.524 . S
C622 H634 0.956 . S
C622 H635 0.961 . S
C622 H636 0.961 . S
C623 C620 1.539 . S
C623 H637 0.958 . S
C623 H638 0.961 . S
C623 H639 0.960 . S
H624 C608 0.931 . S
H625 C613 0.929 . S
H626 C614 0.960 . S
H627 C614 0.962 . S
H628 C614 0.960 . S
H629 C615 0.961 . S
H630 C615 0.961 . S
H631 C615 0.961 . S
H632 C616 0.931 . S
H633 C621 0.930 . S
H634 C622 0.956 . S
H635 C622 0.961 . S
H636 C622 0.961 . S
H637 C623 0.958 . S
H638 C623 0.961 . S
H639 C623 0.960 . S
C640 C641 1.391 . S
C640 C642 1.394 . S
C640 H656 0.931 . S
C641 C640 1.391 . S
C641 C645 1.376 . S
C642 C640 1.394 . S
C642 C643 1.369 . S
C642 C646 1.531 . S
C643 C642 1.369 . S
C643 C644 1.410 . S
C643 C651 1.503 . S
C644 C643 1.410 . S
C644 C645 1.392 . S
C644 C647 1.511 . S
C645 C641 1.376 . S
C645 C644 1.392 . S
C645 H657 0.929 . S
C646 C642 1.531 . S
C646 H658 0.960 . S
C646 H659 0.962 . S
C646 H660 0.960 . S
C647 C644 1.511 . S
C647 H661 0.961 . S
C647 H662 0.961 . S
C647 H663 0.961 . S
C648 C649 1.370 . S
C648 C650 1.363 . S
C648 H664 0.931 . S
C649 C648 1.370 . S
C649 C653 1.408 . S
C650 C648 1.363 . S
C650 C651 1.370 . S
C650 C654 1.524 . S
C651 C643 1.503 . S
C651 C650 1.370 . S
C651 C652 1.403 . S
C652 C651 1.403 . S
C652 C653 1.404 . S
C652 C655 1.539 . S
C653 C649 1.408 . S
C653 C652 1.404 . S
C653 H665 0.930 . S
C654 C650 1.524 . S
C654 H666 0.956 . S
C654 H667 0.961 . S
C654 H668 0.961 . S
C655 C652 1.539 . S
C655 H669 0.958 . S
C655 H670 0.961 . S
C655 H671 0.960 . S
H656 C640 0.931 . S
H657 C645 0.929 . S
H658 C646 0.960 . S
H659 C646 0.962 . S
H660 C646 0.960 . S
H661 C647 0.961 . S
H662 C647 0.961 . S
H663 C647 0.961 . S
H664 C648 0.931 . S
H665 C653 0.930 . S
H666 C654 0.956 . S
H667 C654 0.961 . S
H668 C654 0.961 . S
H669 C655 0.958 . S
H670 C655 0.961 . S
H671 C655 0.960 . S
C672 C673 1.391 . S
C672 C674 1.394 . S
C672 H688 0.931 . S
C673 C672 1.391 . S
C673 C677 1.376 . S
C674 C672 1.394 . S
C674 C675 1.369 . S
C674 C678 1.531 . S
C675 C674 1.369 . S
C675 C676 1.410 . S
C675 C683 1.503 . S
C676 C675 1.410 . S
C676 C677 1.392 . S
C676 C679 1.511 . S
C677 C673 1.376 . S
C677 C676 1.392 . S
C677 H689 0.929 . S
C678 C674 1.531 . S
C678 H690 0.960 . S
C678 H691 0.962 . S
C678 H692 0.960 . S
C679 C676 1.511 . S
C679 H693 0.961 . S
C679 H694 0.961 . S
C679 H695 0.961 . S
C680 C681 1.370 . S
C680 C682 1.363 . S
C680 H696 0.931 . S
C681 C680 1.370 . S
C681 C685 1.408 . S
C682 C680 1.363 . S
C682 C683 1.370 . S
C682 C686 1.524 . S
C683 C675 1.503 . S
C683 C682 1.370 . S
C683 C684 1.403 . S
C684 C683 1.403 . S
C684 C685 1.404 . S
C684 C687 1.539 . S
C685 C681 1.408 . S
C685 C684 1.404 . S
C685 H697 0.930 . S
C686 C682 1.524 . S
C686 H698 0.956 . S
C686 H699 0.961 . S
C686 H700 0.961 . S
C687 C684 1.539 . S
C687 H701 0.958 . S
C687 H702 0.961 . S
C687 H703 0.960 . S
H688 C672 0.931 . S
H689 C677 0.929 . S
H690 C678 0.960 . S
H691 C678 0.962 . S
H692 C678 0.960 . S
H693 C679 0.961 . S
H694 C679 0.961 . S
H695 C679 0.961 . S
H696 C680 0.931 . S
H697 C685 0.930 . S
H698 C686 0.956 . S
H699 C686 0.961 . S
H700 C686 0.961 . S
H701 C687 0.958 . S
H702 C687 0.961 . S
H703 C687 0.960 . S
C704 C705 1.391 . S
C704 C706 1.394 . S
C704 H720 0.931 . S
C705 C704 1.391 . S
C705 C709 1.376 . S
C706 C704 1.394 . S
C706 C707 1.369 . S
C706 C710 1.531 . S
C707 C706 1.369 . S
C707 C708 1.410 . S
C707 C715 1.503 . S
C708 C707 1.410 . S
C708 C709 1.392 . S
C708 C711 1.511 . S
C709 C705 1.376 . S
C709 C708 1.392 . S
C709 H721 0.929 . S
C710 C706 1.531 . S
C710 H722 0.960 . S
C710 H723 0.962 . S
C710 H724 0.960 . S
C711 C708 1.511 . S
C711 H725 0.961 . S
C711 H726 0.961 . S
C711 H727 0.961 . S
C712 C713 1.370 . S
C712 C714 1.363 . S
C712 H728 0.931 . S
C713 C712 1.370 . S
C713 C717 1.408 . S
C714 C712 1.363 . S
C714 C715 1.370 . S
C714 C718 1.524 . S
C715 C707 1.503 . S
C715 C714 1.370 . S
C715 C716 1.403 . S
C716 C715 1.403 . S
C716 C717 1.404 . S
C716 C719 1.539 . S
C717 C713 1.408 . S
C717 C716 1.404 . S
C717 H729 0.930 . S
C718 C714 1.524 . S
C718 H730 0.956 . S
C718 H731 0.961 . S
C718 H732 0.961 . S
C719 C716 1.539 . S
C719 H733 0.958 . S
C719 H734 0.961 . S
C719 H735 0.960 . S
H720 C704 0.931 . S
H721 C709 0.929 . S
H722 C710 0.960 . S
H723 C710 0.962 . S
H724 C710 0.960 . S
H725 C711 0.961 . S
H726 C711 0.961 . S
H727 C711 0.961 . S
H728 C712 0.931 . S
H729 C717 0.930 . S
H730 C718 0.956 . S
H731 C718 0.961 . S
H732 C718 0.961 . S
H733 C719 0.958 . S
H734 C719 0.961 . S
H735 C719 0.960 . S
C736 C737 1.391 . S
C736 C738 1.394 . S
C736 H752 0.931 . S
C737 C736 1.391 . S
C737 C741 1.376 . S
C738 C736 1.394 . S
C738 C739 1.369 . S
C738 C742 1.531 . S
C739 C738 1.369 . S
C739 C740 1.410 . S
C739 C747 1.503 . S
C740 C739 1.410 . S
C740 C741 1.392 . S
C740 C743 1.511 . S
C741 C737 1.376 . S
C741 C740 1.392 . S
C741 H753 0.929 . S
C742 C738 1.531 . S
C742 H754 0.960 . S
C742 H755 0.962 . S
C742 H756 0.960 . S
C743 C740 1.511 . S
C743 H757 0.961 . S
C743 H758 0.961 . S
C743 H759 0.961 . S
C744 C745 1.370 . S
C744 C746 1.363 . S
C744 H760 0.931 . S
C745 C744 1.370 . S
C745 C749 1.408 . S
C746 C744 1.363 . S
C746 C747 1.370 . S
C746 C750 1.524 . S
C747 C739 1.503 . S
C747 C746 1.370 . S
C747 C748 1.403 . S
C748 C747 1.403 . S
C748 C749 1.404 . S
C748 C751 1.539 . S
C749 C745 1.408 . S
C749 C748 1.404 . S
C749 H761 0.930 . S
C750 C746 1.524 . S
C750 H762 0.956 . S
C750 H763 0.961 . S
C750 H764 0.961 . S
C751 C748 1.539 . S
C751 H765 0.958 . S
C751 H766 0.961 . S
C751 H767 0.960 . S
H752 C736 0.931 . S
H753 C741 0.929 . S
H754 C742 0.960 . S
H755 C742 0.962 . S
H756 C742 0.960 . S
H757 C743 0.961 . S
H758 C743 0.961 . S
H759 C743 0.961 . S
H760 C744 0.931 . S
H761 C749 0.930 . S
H762 C750 0.956 . S
H763 C750 0.961 . S
H764 C750 0.961 . S
H765 C751 0.958 . S
H766 C751 0.961 . S
H767 C751 0.960 . S
C768 C769 1.391 . S
C768 C770 1.394 . S
C768 H784 0.931 . S
C769 C768 1.391 . S
C769 C773 1.376 . S
C770 C768 1.394 . S
C770 C771 1.369 . S
C770 C774 1.531 . S
C771 C770 1.369 . S
C771 C772 1.410 . S
C771 C779 1.503 . S
C772 C771 1.410 . S
C772 C773 1.392 . S
C772 C775 1.511 . S
C773 C769 1.376 . S
C773 C772 1.392 . S
C773 H785 0.929 . S
C774 C770 1.531 . S
C774 H786 0.960 . S
C774 H787 0.962 . S
C774 H788 0.960 . S
C775 C772 1.511 . S
C775 H789 0.961 . S
C775 H790 0.961 . S
C775 H791 0.961 . S
C776 C777 1.370 . S
C776 C778 1.363 . S
C776 H792 0.931 . S
C777 C776 1.370 . S
C777 C781 1.408 . S
C778 C776 1.363 . S
C778 C779 1.370 . S
C778 C782 1.524 . S
C779 C771 1.503 . S
C779 C778 1.370 . S
C779 C780 1.403 . S
C780 C779 1.403 . S
C780 C781 1.404 . S
C780 C783 1.539 . S
C781 C777 1.408 . S
C781 C780 1.404 . S
C781 H793 0.930 . S
C782 C778 1.524 . S
C782 H794 0.956 . S
C782 H795 0.961 . S
C782 H796 0.961 . S
C783 C780 1.539 . S
C783 H797 0.958 . S
C783 H798 0.961 . S
C783 H799 0.960 . S
H784 C768 0.931 . S
H785 C773 0.929 . S
H786 C774 0.960 . S
H787 C774 0.962 . S
H788 C774 0.960 . S
H789 C775 0.961 . S
H790 C775 0.961 . S
H791 C775 0.961 . S
H792 C776 0.931 . S
H793 C781 0.930 . S
H794 C782 0.956 . S
H795 C782 0.961 . S
H796 C782 0.961 . S
H797 C783 0.958 . S
H798 C783 0.961 . S
H799 C783 0.960 . S
C800 C801 1.391 . S
C800 C802 1.394 . S
C800 H816 0.931 . S
C801 C800 1.391 . S
C801 C805 1.376 . S
C802 C800 1.394 . S
C802 C803 1.369 . S
C802 C806 1.531 . S
C803 C802 1.369 . S
C803 C804 1.410 . S
C803 C811 1.503 . S
C804 C803 1.410 . S
C804 C805 1.392 . S
C804 C807 1.511 . S
C805 C801 1.376 . S
C805 C804 1.392 . S
C805 H817 0.929 . S
C806 C802 1.531 . S
C806 H818 0.960 . S
C806 H819 0.962 . S
C806 H820 0.960 . S
C807 C804 1.511 . S
C807 H821 0.961 . S
C807 H822 0.961 . S
C807 H823 0.961 . S
C808 C809 1.370 . S
C808 C810 1.363 . S
C808 H824 0.931 . S
C809 C808 1.370 . S
C809 C813 1.408 . S
C810 C808 1.363 . S
C810 C811 1.370 . S
C810 C814 1.524 . S
C811 C803 1.503 . S
C811 C810 1.370 . S
C811 C812 1.403 . S
C812 C811 1.403 . S
C812 C813 1.404 . S
C812 C815 1.539 . S
C813 C809 1.408 . S
C813 C812 1.404 . S
C813 H825 0.930 . S
C814 C810 1.524 . S
C814 H826 0.956 . S
C814 H827 0.961 . S
C814 H828 0.961 . S
C815 C812 1.539 . S
C815 H829 0.958 . S
C815 H830 0.961 . S
C815 H831 0.960 . S
H816 C800 0.931 . S
H817 C805 0.929 . S
H818 C806 0.960 . S
H819 C806 0.962 . S
H820 C806 0.960 . S
H821 C807 0.961 . S
H822 C807 0.961 . S
H823 C807 0.961 . S
H824 C808 0.931 . S
H825 C813 0.930 . S
H826 C814 0.956 . S
H827 C814 0.961 . S
H828 C814 0.961 . S
H829 C815 0.958 . S
H830 C815 0.961 . S
H831 C815 0.960 . S
C832 C833 1.391 . S
C832 C834 1.394 . S
C832 H848 0.931 . S
C833 C832 1.391 . S
C833 C837 1.376 . S
C834 C832 1.394 . S
C834 C835 1.369 . S
C834 C838 1.531 . S
C835 C834 1.369 . S
C835 C836 1.410 . S
C835 C843 1.503 . S
C836 C835 1.410 . S
C836 C837 1.392 . S
C836 C839 1.511 . S
C837 C833 1.376 . S
C837 C836 1.392 . S
C837 H849 0.929 . S
C838 C834 1.531 . S
C838 H850 0.960 . S
C838 H851 0.962 . S
C838 H852 0.960 . S
C839 C836 1.511 . S
C839 H853 0.961 . S
C839 H854 0.961 . S
C839 H855 0.961 . S
C840 C841 1.370 . S
C840 C842 1.363 . S
C840 H856 0.931 . S
C841 C840 1.370 . S
C841 C845 1.408 . S
C842 C840 1.363 . S
C842 C843 1.370 . S
C842 C846 1.524 . S
C843 C835 1.503 . S
C843 C842 1.370 . S
C843 C844 1.403 . S
C844 C843 1.403 . S
C844 C845 1.404 . S
C844 C847 1.539 . S
C845 C841 1.408 . S
C845 C844 1.404 . S
C845 H857 0.930 . S
C846 C842 1.524 . S
C846 H858 0.956 . S
C846 H859 0.961 . S
C846 H860 0.961 . S
C847 C844 1.539 . S
C847 H861 0.958 . S
C847 H862 0.961 . S
C847 H863 0.960 . S
H848 C832 0.931 . S
H849 C837 0.929 . S
H850 C838 0.960 . S
H851 C838 0.962 . S
H852 C838 0.960 . S
H853 C839 0.961 . S
H854 C839 0.961 . S
H855 C839 0.961 . S
H856 C840 0.931 . S
H857 C845 0.930 . S
H858 C846 0.956 . S
H859 C846 0.961 . S
H860 C846 0.961 . S
H861 C847 0.958 . S
H862 C847 0.961 . S
H863 C847 0.960 . S
C864 C865 1.391 . S
C864 C866 1.394 . S
C864 H880 0.931 . S
C865 C864 1.391 . S
C865 C869 1.376 . S
C866 C864 1.394 . S
C866 C867 1.369 . S
C866 C870 1.531 . S
C867 C866 1.369 . S
C867 C868 1.410 . S
C867 C875 1.503 . S
C868 C867 1.410 . S
C868 C869 1.392 . S
C868 C871 1.511 . S
C869 C865 1.376 . S
C869 C868 1.392 . S
C869 H881 0.929 . S
C870 C866 1.531 . S
C870 H882 0.960 . S
C870 H883 0.962 . S
C870 H884 0.960 . S
C871 C868 1.511 . S
C871 H885 0.961 . S
C871 H886 0.961 . S
C871 H887 0.961 . S
C872 C873 1.370 . S
C872 C874 1.363 . S
C872 H888 0.931 . S
C873 C872 1.370 . S
C873 C877 1.408 . S
C874 C872 1.363 . S
C874 C875 1.370 . S
C874 C878 1.524 . S
C875 C867 1.503 . S
C875 C874 1.370 . S
C875 C876 1.403 . S
C876 C875 1.403 . S
C876 C877 1.404 . S
C876 C879 1.539 . S
C877 C873 1.408 . S
C877 C876 1.404 . S
C877 H889 0.930 . S
C878 C874 1.524 . S
C878 H890 0.956 . S
C878 H891 0.961 . S
C878 H892 0.961 . S
C879 C876 1.539 . S
C879 H893 0.958 . S
C879 H894 0.961 . S
C879 H895 0.960 . S
H880 C864 0.931 . S
H881 C869 0.929 . S
H882 C870 0.960 . S
H883 C870 0.962 . S
H884 C870 0.960 . S
H885 C871 0.961 . S
H886 C871 0.961 . S
H887 C871 0.961 . S
H888 C872 0.931 . S
H889 C877 0.930 . S
H890 C878 0.956 . S
H891 C878 0.961 . S
H892 C878 0.961 . S
H893 C879 0.958 . S
H894 C879 0.961 . S
H895 C879 0.960 . S
C896 C897 1.391 . S
C896 C898 1.394 . S
C896 H912 0.931 . S
C897 C896 1.391 . S
C897 C901 1.376 . S
C898 C896 1.394 . S
C898 C899 1.369 . S
C898 C902 1.531 . S
C899 C898 1.369 . S
C899 C900 1.410 . S
C899 C907 1.503 . S
C900 C899 1.410 . S
C900 C901 1.392 . S
C900 C903 1.511 . S
C901 C897 1.376 . S
C901 C900 1.392 . S
C901 H913 0.929 . S
C902 C898 1.531 . S
C902 H914 0.960 . S
C902 H915 0.962 . S
C902 H916 0.960 . S
C903 C900 1.511 . S
C903 H917 0.961 . S
C903 H918 0.961 . S
C903 H919 0.961 . S
C904 C905 1.370 . S
C904 C906 1.363 . S
C904 H920 0.931 . S
C905 C904 1.370 . S
C905 C909 1.408 . S
C906 C904 1.363 . S
C906 C907 1.370 . S
C906 C910 1.524 . S
C907 C899 1.503 . S
C907 C906 1.370 . S
C907 C908 1.403 . S
C908 C907 1.403 . S
C908 C909 1.404 . S
C908 C911 1.539 . S
C909 C905 1.408 . S
C909 C908 1.404 . S
C909 H921 0.930 . S
C910 C906 1.524 . S
C910 H922 0.956 . S
C910 H923 0.961 . S
C910 H924 0.961 . S
C911 C908 1.539 . S
C911 H925 0.958 . S
C911 H926 0.961 . S
C911 H927 0.960 . S
H912 C896 0.931 . S
H913 C901 0.929 . S
H914 C902 0.960 . S
H915 C902 0.962 . S
H916 C902 0.960 . S
H917 C903 0.961 . S
H918 C903 0.961 . S
H919 C903 0.961 . S
H920 C904 0.931 . S
H921 C909 0.930 . S
H922 C910 0.956 . S
H923 C910 0.961 . S
H924 C910 0.961 . S
H925 C911 0.958 . S
H926 C911 0.961 . S
H927 C911 0.960 . S
C928 C929 1.391 . S
C928 C930 1.394 . S
C928 H944 0.931 . S
C929 C928 1.391 . S
C929 C933 1.376 . S
C930 C928 1.394 . S
C930 C931 1.369 . S
C930 C934 1.531 . S
C931 C930 1.369 . S
C931 C932 1.410 . S
C931 C939 1.503 1_655 S
C932 C931 1.410 . S
C932 C933 1.392 . S
C932 C935 1.511 . S
C933 C929 1.376 . S
C933 C932 1.392 . S
C933 H945 0.929 . S
C934 C930 1.531 . S
C934 H946 0.960 1_655 S
C934 H947 0.962 . S
C934 H948 0.960 . S
C935 C932 1.511 . S
C935 H949 0.961 . S
C935 H950 0.961 1_655 S
C935 H951 0.961 . S
C936 C937 1.370 . S
C936 C938 1.363 . S
C936 H952 0.931 . S
C937 C936 1.370 . S
C937 C941 1.408 . S
C938 C936 1.363 . S
C938 C939 1.370 . S
C938 C942 1.524 . S
C939 C931 1.503 1_455 S
C939 C938 1.370 . S
C939 C940 1.403 . S
C940 C939 1.403 . S
C940 C941 1.404 . S
C940 C943 1.539 . S
C941 C937 1.408 . S
C941 C940 1.404 . S
C941 H953 0.930 . S
C942 C938 1.524 . S
C942 H954 0.984 . S
C942 H955 0.961 1_455 S
C942 H956 0.961 . S
C943 C940 1.539 . S
C943 H957 0.958 . S
C943 H958 0.961 . S
C943 H959 0.970 . S
H944 C928 0.931 . S
H945 C933 0.929 . S
H946 C934 0.960 1_455 S
H947 C934 0.962 . S
H948 C934 0.960 . S
H949 C935 0.961 . S
H950 C935 0.961 1_455 S
H951 C935 0.961 . S
H952 C936 0.931 . S
H953 C941 0.930 . S
H954 C942 0.984 . S
H955 C942 0.961 1_655 S
H956 C942 0.961 . S
H957 C943 0.958 . S
H958 C943 0.961 . S
H959 C943 0.970 . S
C960 C961 1.391 . S
C960 C962 1.394 . S
C960 H976 0.931 . S
C961 C960 1.391 . S
C961 C965 1.376 . S
C962 C960 1.394 . S
C962 C963 1.369 . S
C962 C966 1.531 . S
C963 C962 1.369 . S
C963 C964 1.410 . S
C963 C971 1.503 1_545 S
C964 C963 1.410 . S
C964 C965 1.392 . S
C964 C967 1.511 . S
C965 C961 1.376 . S
C965 C964 1.392 . S
C965 H977 0.929 . S
C966 C962 1.531 . S
C966 H978 0.960 1_545 S
C966 H979 0.962 . S
C966 H980 0.960 . S
C967 C964 1.511 . S
C967 H981 0.961 . S
C967 H982 0.961 1_545 S
C967 H983 0.961 . S
C968 C969 1.370 . S
C968 C970 1.363 . S
C968 H984 0.931 . S
C969 C968 1.370 . S
C969 C973 1.408 . S
C970 C968 1.363 . S
C970 C971 1.370 . S
C970 C974 1.524 . S
C971 C963 1.503 1_565 S
C971 C970 1.370 . S
C971 C972 1.403 . S
C972 C971 1.403 . S
C972 C973 1.404 . S
C972 C975 1.539 . S
C973 C969 1.408 . S
C973 C972 1.404 . S
C973 H985 0.930 . S
C974 C970 1.524 . S
C974 H986 0.984 . S
C974 H987 0.961 1_565 S
C974 H988 0.961 . S
C975 C972 1.539 . S
C975 H989 0.958 . S
C975 H990 0.961 . S
C975 H991 0.970 . S
H976 C960 0.931 . S
H977 C965 0.929 . S
H978 C966 0.960 1_565 S
H979 C966 0.962 . S
H980 C966 0.960 . S
H981 C967 0.961 . S
H982 C967 0.961 1_565 S
H983 C967 0.961 . S
H984 C968 0.931 . S
H985 C973 0.930 . S
H986 C974 0.984 . S
H987 C974 0.961 1_545 S
H988 C974 0.961 . S
H989 C975 0.958 . S
H990 C975 0.961 . S
H991 C975 0.970 . S
C992 C993 1.391 . S
C992 C994 1.394 . S
C992 H1008 0.931 . S
C993 C992 1.391 . S
C993 C997 1.376 . S
C994 C992 1.394 . S
C994 C995 1.369 . S
C994 C998 1.531 . S
C995 C994 1.369 . S
C995 C996 1.410 . S
C995 C1003 1.503 1_455 S
C996 C995 1.410 . S
C996 C997 1.392 . S
C996 C999 1.511 . S
C997 C993 1.376 . S
C997 C996 1.392 . S
C997 H1009 0.929 . S
C998 C994 1.531 . S
C998 H1010 0.960 1_455 S
C998 H1011 0.962 . S
C998 H1012 0.960 . S
C999 C996 1.511 . S
C999 H1013 0.961 . S
C999 H1014 0.961 1_455 S
C999 H1015 0.961 . S
C1000 C1001 1.370 . S
C1000 C1002 1.363 . S
C1000 H1016 0.931 . S
C1001 C1000 1.370 . S
C1001 C1005 1.408 . S
C1002 C1000 1.363 . S
C1002 C1003 1.370 . S
C1002 C1006 1.524 . S
C1003 C995 1.503 1_655 S
C1003 C1002 1.370 . S
C1003 C1004 1.403 . S
C1004 C1003 1.403 . S
C1004 C1005 1.404 . S
C1004 C1007 1.539 . S
C1005 C1001 1.408 . S
C1005 C1004 1.404 . S
C1005 H1017 0.930 . S
C1006 C1002 1.524 . S
C1006 H1018 0.984 . S
C1006 H1019 0.961 1_655 S
C1006 H1020 0.961 . S
C1007 C1004 1.539 . S
C1007 H1021 0.958 . S
C1007 H1022 0.961 . S
C1007 H1023 0.970 . S
H1008 C992 0.931 . S
H1009 C997 0.929 . S
H1010 C998 0.960 1_655 S
H1011 C998 0.962 . S
H1012 C998 0.960 . S
H1013 C999 0.961 . S
H1014 C999 0.961 1_655 S
H1015 C999 0.961 . S
H1016 C1000 0.931 . S
H1017 C1005 0.930 . S
H1018 C1006 0.984 . S
H1019 C1006 0.961 1_455 S
H1020 C1006 0.961 . S
H1021 C1007 0.958 . S
H1022 C1007 0.961 . S
H1023 C1007 0.970 . S
C1024 C1025 1.391 . S
C1024 C1026 1.394 . S
C1024 H1040 0.931 . S
C1025 C1024 1.391 . S
C1025 C1029 1.376 . S
C1026 C1024 1.394 . S
C1026 C1027 1.369 . S
C1026 C1030 1.531 . S
C1027 C1026 1.369 . S
C1027 C1028 1.410 . S
C1027 C1035 1.503 1_565 S
C1028 C1027 1.410 . S
C1028 C1029 1.392 . S
C1028 C1031 1.511 . S
C1029 C1025 1.376 . S
C1029 C1028 1.392 . S
C1029 H1041 0.929 . S
C1030 C1026 1.531 . S
C1030 H1042 0.960 1_565 S
C1030 H1043 0.962 . S
C1030 H1044 0.960 . S
C1031 C1028 1.511 . S
C1031 H1045 0.961 . S
C1031 H1046 0.961 1_565 S
C1031 H1047 0.961 . S
C1032 C1033 1.370 . S
C1032 C1034 1.363 . S
C1032 H1048 0.931 . S
C1033 C1032 1.370 . S
C1033 C1037 1.408 . S
C1034 C1032 1.363 . S
C1034 C1035 1.370 . S
C1034 C1038 1.524 . S
C1035 C1027 1.503 1_545 S
C1035 C1034 1.370 . S
C1035 C1036 1.403 . S
C1036 C1035 1.403 . S
C1036 C1037 1.404 . S
C1036 C1039 1.539 . S
C1037 C1033 1.408 . S
C1037 C1036 1.404 . S
C1037 H1049 0.930 . S
C1038 C1034 1.524 . S
C1038 H1050 0.984 . S
C1038 H1051 0.961 1_545 S
C1038 H1052 0.961 . S
C1039 C1036 1.539 . S
C1039 H1053 0.958 . S
C1039 H1054 0.961 . S
C1039 H1055 0.970 . S
H1040 C1024 0.931 . S
H1041 C1029 0.929 . S
H1042 C1030 0.960 1_545 S
H1043 C1030 0.962 . S
H1044 C1030 0.960 . S
H1045 C1031 0.961 . S
H1046 C1031 0.961 1_545 S
H1047 C1031 0.961 . S
H1048 C1032 0.931 . S
H1049 C1037 0.930 . S
H1050 C1038 0.984 . S
H1051 C1038 0.961 1_565 S
H1052 C1038 0.961 . S
H1053 C1039 0.958 . S
H1054 C1039 0.961 . S
H1055 C1039 0.970 . S
C1056 C1057 1.391 . S
C1056 C1058 1.394 . S
C1056 H1072 0.931 . S
C1057 C1056 1.391 . S
C1057 C1061 1.376 . S
C1058 C1056 1.394 . S
C1058 C1059 1.369 . S
C1058 C1062 1.531 . S
C1059 C1058 1.369 . S
C1059 C1060 1.410 . S
C1059 C1067 1.503 1_455 S
C1060 C1059 1.410 . S
C1060 C1061 1.392 . S
C1060 C1063 1.511 . S
C1061 C1057 1.376 . S
C1061 C1060 1.392 . S
C1061 H1073 0.929 . S
C1062 C1058 1.531 . S
C1062 H1074 0.960 1_455 S
C1062 H1075 0.962 . S
C1062 H1076 0.960 . S
C1063 C1060 1.511 . S
C1063 H1077 0.961 . S
C1063 H1078 0.961 1_455 S
C1063 H1079 0.961 . S
C1064 C1065 1.370 . S
C1064 C1066 1.363 . S
C1064 H1080 0.931 . S
C1065 C1064 1.370 . S
C1065 C1069 1.408 . S
C1066 C1064 1.363 . S
C1066 C1067 1.370 . S
C1066 C1070 1.524 . S
C1067 C1059 1.503 1_655 S
C1067 C1066 1.370 . S
C1067 C1068 1.403 . S
C1068 C1067 1.403 . S
C1068 C1069 1.404 . S
C1068 C1071 1.539 . S
C1069 C1065 1.408 . S
C1069 C1068 1.404 . S
C1069 H1081 0.930 . S
C1070 C1066 1.524 . S
C1070 H1082 0.984 . S
C1070 H1083 0.961 1_655 S
C1070 H1084 0.961 . S
C1071 C1068 1.539 . S
C1071 H1085 0.958 . S
C1071 H1086 0.961 . S
C1071 H1087 0.970 . S
H1072 C1056 0.931 . S
H1073 C1061 0.929 . S
H1074 C1062 0.960 1_655 S
H1075 C1062 0.962 . S
H1076 C1062 0.960 . S
H1077 C1063 0.961 . S
H1078 C1063 0.961 1_655 S
H1079 C1063 0.961 . S
H1080 C1064 0.931 . S
H1081 C1069 0.930 . S
H1082 C1070 0.984 . S
H1083 C1070 0.961 1_455 S
H1084 C1070 0.961 . S
H1085 C1071 0.958 . S
H1086 C1071 0.961 . S
H1087 C1071 0.970 . S
C1088 C1089 1.391 . S
C1088 C1090 1.394 . S
C1088 H1104 0.931 . S
C1089 C1088 1.391 . S
C1089 C1093 1.376 . S
C1090 C1088 1.394 . S
C1090 C1091 1.369 . S
C1090 C1094 1.531 . S
C1091 C1090 1.369 . S
C1091 C1092 1.410 . S
C1091 C1099 1.503 1_565 S
C1092 C1091 1.410 . S
C1092 C1093 1.392 . S
C1092 C1095 1.511 . S
C1093 C1089 1.376 . S
C1093 C1092 1.392 . S
C1093 H1105 0.929 . S
C1094 C1090 1.531 . S
C1094 H1106 0.960 1_565 S
C1094 H1107 0.962 . S
C1094 H1108 0.960 . S
C1095 C1092 1.511 . S
C1095 H1109 0.961 . S
C1095 H1110 0.961 1_565 S
C1095 H1111 0.961 . S
C1096 C1097 1.370 . S
C1096 C1098 1.363 . S
C1096 H1112 0.931 . S
C1097 C1096 1.370 . S
C1097 C1101 1.408 . S
C1098 C1096 1.363 . S
C1098 C1099 1.370 . S
C1098 C1102 1.524 . S
C1099 C1091 1.503 1_545 S
C1099 C1098 1.370 . S
C1099 C1100 1.403 . S
C1100 C1099 1.403 . S
C1100 C1101 1.404 . S
C1100 C1103 1.539 . S
C1101 C1097 1.408 . S
C1101 C1100 1.404 . S
C1101 H1113 0.930 . S
C1102 C1098 1.524 . S
C1102 H1114 0.984 . S
C1102 H1115 0.961 1_545 S
C1102 H1116 0.961 . S
C1103 C1100 1.539 . S
C1103 H1117 0.958 . S
C1103 H1118 0.961 . S
C1103 H1119 0.970 . S
H1104 C1088 0.931 . S
H1105 C1093 0.929 . S
H1106 C1094 0.960 1_545 S
H1107 C1094 0.962 . S
H1108 C1094 0.960 . S
H1109 C1095 0.961 . S
H1110 C1095 0.961 1_545 S
H1111 C1095 0.961 . S
H1112 C1096 0.931 . S
H1113 C1101 0.930 . S
H1114 C1102 0.984 . S
H1115 C1102 0.961 1_565 S
H1116 C1102 0.961 . S
H1117 C1103 0.958 . S
H1118 C1103 0.961 . S
H1119 C1103 0.970 . S
C1120 C1121 1.391 . S
C1120 C1122 1.394 . S
C1120 H1136 0.931 . S
C1121 C1120 1.391 . S
C1121 C1125 1.376 . S
C1122 C1120 1.394 . S
C1122 C1123 1.369 . S
C1122 C1126 1.531 . S
C1123 C1122 1.369 . S
C1123 C1124 1.410 . S
C1123 C1131 1.503 1_455 S
C1124 C1123 1.410 . S
C1124 C1125 1.392 . S
C1124 C1127 1.511 . S
C1125 C1121 1.376 . S
C1125 C1124 1.392 . S
C1125 H1137 0.929 . S
C1126 C1122 1.531 . S
C1126 H1138 0.960 1_455 S
C1126 H1139 0.962 . S
C1126 H1140 0.960 . S
C1127 C1124 1.511 . S
C1127 H1141 0.961 . S
C1127 H1142 0.961 1_455 S
C1127 H1143 0.961 . S
C1128 C1129 1.370 . S
C1128 C1130 1.363 . S
C1128 H1144 0.931 . S
C1129 C1128 1.370 . S
C1129 C1133 1.408 . S
C1130 C1128 1.363 . S
C1130 C1131 1.370 . S
C1130 C1134 1.524 . S
C1131 C1123 1.503 1_655 S
C1131 C1130 1.370 . S
C1131 C1132 1.403 . S
C1132 C1131 1.403 . S
C1132 C1133 1.404 . S
C1132 C1135 1.539 . S
C1133 C1129 1.408 . S
C1133 C1132 1.404 . S
C1133 H1145 0.930 . S
C1134 C1130 1.524 . S
C1134 H1146 0.984 . S
C1134 H1147 0.961 1_655 S
C1134 H1148 0.961 . S
C1135 C1132 1.539 . S
C1135 H1149 0.958 . S
C1135 H1150 0.961 . S
C1135 H1151 0.970 . S
H1136 C1120 0.931 . S
H1137 C1125 0.929 . S
H1138 C1126 0.960 1_655 S
H1139 C1126 0.962 . S
H1140 C1126 0.960 . S
H1141 C1127 0.961 . S
H1142 C1127 0.961 1_655 S
H1143 C1127 0.961 . S
H1144 C1128 0.931 . S
H1145 C1133 0.930 . S
H1146 C1134 0.984 . S
H1147 C1134 0.961 1_455 S
H1148 C1134 0.961 . S
H1149 C1135 0.958 . S
H1150 C1135 0.961 . S
H1151 C1135 0.970 . S
C1152 C1153 1.391 . S
C1152 C1154 1.394 . S
C1152 H1168 0.931 . S
C1153 C1152 1.391 . S
C1153 C1157 1.376 . S
C1154 C1152 1.394 . S
C1154 C1155 1.369 . S
C1154 C1158 1.531 . S
C1155 C1154 1.369 . S
C1155 C1156 1.410 . S
C1155 C1163 1.503 1_545 S
C1156 C1155 1.410 . S
C1156 C1157 1.392 . S
C1156 C1159 1.511 . S
C1157 C1153 1.376 . S
C1157 C1156 1.392 . S
C1157 H1169 0.929 . S
C1158 C1154 1.531 . S
C1158 H1170 0.960 1_545 S
C1158 H1171 0.962 . S
C1158 H1172 0.960 . S
C1159 C1156 1.511 . S
C1159 H1173 0.961 . S
C1159 H1174 0.961 1_545 S
C1159 H1175 0.961 . S
C1160 C1161 1.370 . S
C1160 C1162 1.363 . S
C1160 H1176 0.931 . S
C1161 C1160 1.370 . S
C1161 C1165 1.408 . S
C1162 C1160 1.363 . S
C1162 C1163 1.370 . S
C1162 C1166 1.524 . S
C1163 C1155 1.503 1_565 S
C1163 C1162 1.370 . S
C1163 C1164 1.403 . S
C1164 C1163 1.403 . S
C1164 C1165 1.404 . S
C1164 C1167 1.539 . S
C1165 C1161 1.408 . S
C1165 C1164 1.404 . S
C1165 H1177 0.930 . S
C1166 C1162 1.524 . S
C1166 H1178 0.984 . S
C1166 H1179 0.961 1_565 S
C1166 H1180 0.961 . S
C1167 C1164 1.539 . S
C1167 H1181 0.958 . S
C1167 H1182 0.961 . S
C1167 H1183 0.970 . S
H1168 C1152 0.931 . S
H1169 C1157 0.929 . S
H1170 C1158 0.960 1_565 S
H1171 C1158 0.962 . S
H1172 C1158 0.960 . S
H1173 C1159 0.961 . S
H1174 C1159 0.961 1_565 S
H1175 C1159 0.961 . S
H1176 C1160 0.931 . S
H1177 C1165 0.930 . S
H1178 C1166 0.984 . S
H1179 C1166 0.961 1_545 S
H1180 C1166 0.961 . S
H1181 C1167 0.958 . S
H1182 C1167 0.961 . S
H1183 C1167 0.970 . S
C1184 C1185 1.391 . S
C1184 C1186 1.394 . S
C1184 H1200 0.931 . S
C1185 C1184 1.391 . S
C1185 C1189 1.376 . S
C1186 C1184 1.394 . S
C1186 C1187 1.369 . S
C1186 C1190 1.531 . S
C1187 C1186 1.369 . S
C1187 C1188 1.410 . S
C1187 C1195 1.503 . S
C1188 C1187 1.410 . S
C1188 C1189 1.392 . S
C1188 C1191 1.511 . S
C1189 C1185 1.376 . S
C1189 C1188 1.392 . S
C1189 H1201 0.929 . S
C1190 C1186 1.531 . S
C1190 H1202 0.960 . S
C1190 H1203 0.962 . S
C1190 H1204 0.960 . S
C1191 C1188 1.511 . S
C1191 H1205 0.961 . S
C1191 H1206 0.961 . S
C1191 H1207 0.961 . S
C1192 C1193 1.370 . S
C1192 C1194 1.363 . S
C1192 H1208 0.931 . S
C1193 C1192 1.370 . S
C1193 C1197 1.408 . S
C1194 C1192 1.363 . S
C1194 C1195 1.370 . S
C1194 C1198 1.524 . S
C1195 C1187 1.503 . S
C1195 C1194 1.370 . S
C1195 C1196 1.403 . S
C1196 C1195 1.403 . S
C1196 C1197 1.404 . S
C1196 C1199 1.539 . S
C1197 C1193 1.408 . S
C1197 C1196 1.404 . S
C1197 H1209 0.930 . S
C1198 C1194 1.524 . S
C1198 H1210 0.956 . S
C1198 H1211 0.961 . S
C1198 H1212 0.961 . S
C1199 C1196 1.539 . S
C1199 H1213 0.958 . S
C1199 H1214 0.961 . S
C1199 H1215 0.960 . S
H1200 C1184 0.931 . S
H1201 C1189 0.929 . S
H1202 C1190 0.960 . S
H1203 C1190 0.962 . S
H1204 C1190 0.960 . S
H1205 C1191 0.961 . S
H1206 C1191 0.961 . S
H1207 C1191 0.961 . S
H1208 C1192 0.931 . S
H1209 C1197 0.930 . S
H1210 C1198 0.956 . S
H1211 C1198 0.961 . S
H1212 C1198 0.961 . S
H1213 C1199 0.958 . S
H1214 C1199 0.961 . S
H1215 C1199 0.960 . S
C1216 C1217 1.391 . S
C1216 C1218 1.394 . S
C1216 H1232 0.931 . S
C1217 C1216 1.391 . S
C1217 C1221 1.376 . S
C1218 C1216 1.394 . S
C1218 C1219 1.369 . S
C1218 C1222 1.531 . S
C1219 C1218 1.369 . S
C1219 C1220 1.410 . S
C1219 C1227 1.503 . S
C1220 C1219 1.410 . S
C1220 C1221 1.392 . S
C1220 C1223 1.511 . S
C1221 C1217 1.376 . S
C1221 C1220 1.392 . S
C1221 H1233 0.929 . S
C1222 C1218 1.531 . S
C1222 H1234 0.960 . S
C1222 H1235 0.962 . S
C1222 H1236 0.960 . S
C1223 C1220 1.511 . S
C1223 H1237 0.961 . S
C1223 H1238 0.961 . S
C1223 H1239 0.961 . S
C1224 C1225 1.370 . S
C1224 C1226 1.363 . S
C1224 H1240 0.931 . S
C1225 C1224 1.370 . S
C1225 C1229 1.408 . S
C1226 C1224 1.363 . S
C1226 C1227 1.370 . S
C1226 C1230 1.524 . S
C1227 C1219 1.503 . S
C1227 C1226 1.370 . S
C1227 C1228 1.403 . S
C1228 C1227 1.403 . S
C1228 C1229 1.404 . S
C1228 C1231 1.539 . S
C1229 C1225 1.408 . S
C1229 C1228 1.404 . S
C1229 H1241 0.930 . S
C1230 C1226 1.524 . S
C1230 H1242 0.956 . S
C1230 H1243 0.961 . S
C1230 H1244 0.961 . S
C1231 C1228 1.539 . S
C1231 H1245 0.958 . S
C1231 H1246 0.961 . S
C1231 H1247 0.960 . S
H1232 C1216 0.931 . S
H1233 C1221 0.929 . S
H1234 C1222 0.960 . S
H1235 C1222 0.962 . S
H1236 C1222 0.960 . S
H1237 C1223 0.961 . S
H1238 C1223 0.961 . S
H1239 C1223 0.961 . S
H1240 C1224 0.931 . S
H1241 C1229 0.930 . S
H1242 C1230 0.956 . S
H1243 C1230 0.961 . S
H1244 C1230 0.961 . S
H1245 C1231 0.958 . S
H1246 C1231 0.961 . S
H1247 C1231 0.960 . S
C1248 C1249 1.391 . S
C1248 C1250 1.394 . S
C1248 H1264 0.931 . S
C1249 C1248 1.391 . S
C1249 C1253 1.376 . S
C1250 C1248 1.394 . S
C1250 C1251 1.369 . S
C1250 C1254 1.531 . S
C1251 C1250 1.369 . S
C1251 C1252 1.410 . S
C1251 C1259 1.503 . S
C1252 C1251 1.410 . S
C1252 C1253 1.392 . S
C1252 C1255 1.511 . S
C1253 C1249 1.376 . S
C1253 C1252 1.392 . S
C1253 H1265 0.929 . S
C1254 C1250 1.531 . S
C1254 H1266 0.960 . S
C1254 H1267 0.962 . S
C1254 H1268 0.960 . S
C1255 C1252 1.511 . S
C1255 H1269 0.961 . S
C1255 H1270 0.961 . S
C1255 H1271 0.961 . S
C1256 C1257 1.370 . S
C1256 C1258 1.363 . S
C1256 H1272 0.931 . S
C1257 C1256 1.370 . S
C1257 C1261 1.408 . S
C1258 C1256 1.363 . S
C1258 C1259 1.370 . S
C1258 C1262 1.524 . S
C1259 C1251 1.503 . S
C1259 C1258 1.370 . S
C1259 C1260 1.403 . S
C1260 C1259 1.403 . S
C1260 C1261 1.404 . S
C1260 C1263 1.539 . S
C1261 C1257 1.408 . S
C1261 C1260 1.404 . S
C1261 H1273 0.930 . S
C1262 C1258 1.524 . S
C1262 H1274 0.956 . S
C1262 H1275 0.961 . S
C1262 H1276 0.961 . S
C1263 C1260 1.539 . S
C1263 H1277 0.958 . S
C1263 H1278 0.961 . S
C1263 H1279 0.960 . S
H1264 C1248 0.931 . S
H1265 C1253 0.929 . S
H1266 C1254 0.960 . S
H1267 C1254 0.962 . S
H1268 C1254 0.960 . S
H1269 C1255 0.961 . S
H1270 C1255 0.961 . S
H1271 C1255 0.961 . S
H1272 C1256 0.931 . S
H1273 C1261 0.930 . S
H1274 C1262 0.956 . S
H1275 C1262 0.961 . S
H1276 C1262 0.961 . S
H1277 C1263 0.958 . S
H1278 C1263 0.961 . S
H1279 C1263 0.960 . S
C1280 C1281 1.391 . S
C1280 C1282 1.394 . S
C1280 H1296 0.931 . S
C1281 C1280 1.391 . S
C1281 C1285 1.376 . S
C1282 C1280 1.394 . S
C1282 C1283 1.369 . S
C1282 C1286 1.531 . S
C1283 C1282 1.369 . S
C1283 C1284 1.410 . S
C1283 C1291 1.503 . S
C1284 C1283 1.410 . S
C1284 C1285 1.392 . S
C1284 C1287 1.511 . S
C1285 C1281 1.376 . S
C1285 C1284 1.392 . S
C1285 H1297 0.929 . S
C1286 C1282 1.531 . S
C1286 H1298 0.960 . S
C1286 H1299 0.962 . S
C1286 H1300 0.960 . S
C1287 C1284 1.511 . S
C1287 H1301 0.961 . S
C1287 H1302 0.961 . S
C1287 H1303 0.961 . S
C1288 C1289 1.370 . S
C1288 C1290 1.363 . S
C1288 H1304 0.931 . S
C1289 C1288 1.370 . S
C1289 C1293 1.408 . S
C1290 C1288 1.363 . S
C1290 C1291 1.370 . S
C1290 C1294 1.524 . S
C1291 C1283 1.503 . S
C1291 C1290 1.370 . S
C1291 C1292 1.403 . S
C1292 C1291 1.403 . S
C1292 C1293 1.404 . S
C1292 C1295 1.539 . S
C1293 C1289 1.408 . S
C1293 C1292 1.404 . S
C1293 H1305 0.930 . S
C1294 C1290 1.524 . S
C1294 H1306 0.956 . S
C1294 H1307 0.961 . S
C1294 H1308 0.961 . S
C1295 C1292 1.539 . S
C1295 H1309 0.958 . S
C1295 H1310 0.961 . S
C1295 H1311 0.960 . S
H1296 C1280 0.931 . S
H1297 C1285 0.929 . S
H1298 C1286 0.960 . S
H1299 C1286 0.962 . S
H1300 C1286 0.960 . S
H1301 C1287 0.961 . S
H1302 C1287 0.961 . S
H1303 C1287 0.961 . S
H1304 C1288 0.931 . S
H1305 C1293 0.930 . S
H1306 C1294 0.956 . S
H1307 C1294 0.961 . S
H1308 C1294 0.961 . S
H1309 C1295 0.958 . S
H1310 C1295 0.961 . S
H1311 C1295 0.960 . S
C1312 C1313 1.391 . S
C1312 C1314 1.394 . S
C1312 H1328 0.931 . S
C1313 C1312 1.391 . S
C1313 C1317 1.376 . S
C1314 C1312 1.394 . S
C1314 C1315 1.369 . S
C1314 C1318 1.531 . S
C1315 C1314 1.369 . S
C1315 C1316 1.410 . S
C1315 C1323 1.503 . S
C1316 C1315 1.410 . S
C1316 C1317 1.392 . S
C1316 C1319 1.511 . S
C1317 C1313 1.376 . S
C1317 C1316 1.392 . S
C1317 H1329 0.929 . S
C1318 C1314 1.531 . S
C1318 H1330 0.960 . S
C1318 H1331 0.962 . S
C1318 H1332 0.960 . S
C1319 C1316 1.511 . S
C1319 H1333 0.961 . S
C1319 H1334 0.961 . S
C1319 H1335 0.961 . S
C1320 C1321 1.370 . S
C1320 C1322 1.363 . S
C1320 H1336 0.931 . S
C1321 C1320 1.370 . S
C1321 C1325 1.408 . S
C1322 C1320 1.363 . S
C1322 C1323 1.370 . S
C1322 C1326 1.524 . S
C1323 C1315 1.503 . S
C1323 C1322 1.370 . S
C1323 C1324 1.403 . S
C1324 C1323 1.403 . S
C1324 C1325 1.404 . S
C1324 C1327 1.539 . S
C1325 C1321 1.408 . S
C1325 C1324 1.404 . S
C1325 H1337 0.930 . S
C1326 C1322 1.524 . S
C1326 H1338 0.956 . S
C1326 H1339 0.961 . S
C1326 H1340 0.961 . S
C1327 C1324 1.539 . S
C1327 H1341 0.958 . S
C1327 H1342 0.961 . S
C1327 H1343 0.960 . S
H1328 C1312 0.931 . S
H1329 C1317 0.929 . S
H1330 C1318 0.960 . S
H1331 C1318 0.962 . S
H1332 C1318 0.960 . S
H1333 C1319 0.961 . S
H1334 C1319 0.961 . S
H1335 C1319 0.961 . S
H1336 C1320 0.931 . S
H1337 C1325 0.930 . S
H1338 C1326 0.956 . S
H1339 C1326 0.961 . S
H1340 C1326 0.961 . S
H1341 C1327 0.958 . S
H1342 C1327 0.961 . S
H1343 C1327 0.960 . S
C1344 C1345 1.391 . S
C1344 C1346 1.394 . S
C1344 H1360 0.931 . S
C1345 C1344 1.391 . S
C1345 C1349 1.376 . S
C1346 C1344 1.394 . S
C1346 C1347 1.369 . S
C1346 C1350 1.531 . S
C1347 C1346 1.369 . S
C1347 C1348 1.410 . S
C1347 C1355 1.503 . S
C1348 C1347 1.410 . S
C1348 C1349 1.392 . S
C1348 C1351 1.511 . S
C1349 C1345 1.376 . S
C1349 C1348 1.392 . S
C1349 H1361 0.929 . S
C1350 C1346 1.531 . S
C1350 H1362 0.960 . S
C1350 H1363 0.962 . S
C1350 H1364 0.960 . S
C1351 C1348 1.511 . S
C1351 H1365 0.961 . S
C1351 H1366 0.961 . S
C1351 H1367 0.961 . S
C1352 C1353 1.370 . S
C1352 C1354 1.363 . S
C1352 H1368 0.931 . S
C1353 C1352 1.370 . S
C1353 C1357 1.408 . S
C1354 C1352 1.363 . S
C1354 C1355 1.370 . S
C1354 C1358 1.524 . S
C1355 C1347 1.503 . S
C1355 C1354 1.370 . S
C1355 C1356 1.403 . S
C1356 C1355 1.403 . S
C1356 C1357 1.404 . S
C1356 C1359 1.539 . S
C1357 C1353 1.408 . S
C1357 C1356 1.404 . S
C1357 H1369 0.930 . S
C1358 C1354 1.524 . S
C1358 H1370 0.956 . S
C1358 H1371 0.961 . S
C1358 H1372 0.961 . S
C1359 C1356 1.539 . S
C1359 H1373 0.958 . S
C1359 H1374 0.961 . S
C1359 H1375 0.960 . S
H1360 C1344 0.931 . S
H1361 C1349 0.929 . S
H1362 C1350 0.960 . S
H1363 C1350 0.962 . S
H1364 C1350 0.960 . S
H1365 C1351 0.961 . S
H1366 C1351 0.961 . S
H1367 C1351 0.961 . S
H1368 C1352 0.931 . S
H1369 C1357 0.930 . S
H1370 C1358 0.956 . S
H1371 C1358 0.961 . S
H1372 C1358 0.961 . S
H1373 C1359 0.958 . S
H1374 C1359 0.961 . S
H1375 C1359 0.960 . S
C1376 C1377 1.391 . S
C1376 C1378 1.394 . S
C1376 H1392 0.931 . S
C1377 C1376 1.391 . S
C1377 C1381 1.376 . S
C1378 C1376 1.394 . S
C1378 C1379 1.369 . S
C1378 C1382 1.531 . S
C1379 C1378 1.369 . S
C1379 C1380 1.410 . S
C1379 C1387 1.503 . S
C1380 C1379 1.410 . S
C1380 C1381 1.392 . S
C1380 C1383 1.511 . S
C1381 C1377 1.376 . S
C1381 C1380 1.392 . S
C1381 H1393 0.929 . S
C1382 C1378 1.531 . S
C1382 H1394 0.960 . S
C1382 H1395 0.962 . S
C1382 H1396 0.960 . S
C1383 C1380 1.511 . S
C1383 H1397 0.961 . S
C1383 H1398 0.961 . S
C1383 H1399 0.961 . S
C1384 C1385 1.370 . S
C1384 C1386 1.363 . S
C1384 H1400 0.931 . S
C1385 C1384 1.370 . S
C1385 C1389 1.408 . S
C1386 C1384 1.363 . S
C1386 C1387 1.370 . S
C1386 C1390 1.524 . S
C1387 C1379 1.503 . S
C1387 C1386 1.370 . S
C1387 C1388 1.403 . S
C1388 C1387 1.403 . S
C1388 C1389 1.404 . S
C1388 C1391 1.539 . S
C1389 C1385 1.408 . S
C1389 C1388 1.404 . S
C1389 H1401 0.930 . S
C1390 C1386 1.524 . S
C1390 H1402 0.956 . S
C1390 H1403 0.961 . S
C1390 H1404 0.961 . S
C1391 C1388 1.539 . S
C1391 H1405 0.958 . S
C1391 H1406 0.961 . S
C1391 H1407 0.960 . S
H1392 C1376 0.931 . S
H1393 C1381 0.929 . S
H1394 C1382 0.960 . S
H1395 C1382 0.962 . S
H1396 C1382 0.960 . S
H1397 C1383 0.961 . S
H1398 C1383 0.961 . S
H1399 C1383 0.961 . S
H1400 C1384 0.931 . S
H1401 C1389 0.930 . S
H1402 C1390 0.956 . S
H1403 C1390 0.961 . S
H1404 C1390 0.961 . S
H1405 C1391 0.958 . S
H1406 C1391 0.961 . S
H1407 C1391 0.960 . S
C1408 C1409 1.391 . S
C1408 C1410 1.394 . S
C1408 H1424 0.931 . S
C1409 C1408 1.391 . S
C1409 C1413 1.376 . S
C1410 C1408 1.394 . S
C1410 C1411 1.369 . S
C1410 C1414 1.531 . S
C1411 C1410 1.369 . S
C1411 C1412 1.410 . S
C1411 C1419 1.503 . S
C1412 C1411 1.410 . S
C1412 C1413 1.392 . S
C1412 C1415 1.511 . S
C1413 C1409 1.376 . S
C1413 C1412 1.392 . S
C1413 H1425 0.929 . S
C1414 C1410 1.531 . S
C1414 H1426 0.960 . S
C1414 H1427 0.962 . S
C1414 H1428 0.960 . S
C1415 C1412 1.511 . S
C1415 H1429 0.961 . S
C1415 H1430 0.961 . S
C1415 H1431 0.961 . S
C1416 C1417 1.370 . S
C1416 C1418 1.363 . S
C1416 H1432 0.931 . S
C1417 C1416 1.370 . S
C1417 C1421 1.408 . S
C1418 C1416 1.363 . S
C1418 C1419 1.370 . S
C1418 C1422 1.524 . S
C1419 C1411 1.503 . S
C1419 C1418 1.370 . S
C1419 C1420 1.403 . S
C1420 C1419 1.403 . S
C1420 C1421 1.404 . S
C1420 C1423 1.539 . S
C1421 C1417 1.408 . S
C1421 C1420 1.404 . S
C1421 H1433 0.930 . S
C1422 C1418 1.524 . S
C1422 H1434 0.956 . S
C1422 H1435 0.961 . S
C1422 H1436 0.961 . S
C1423 C1420 1.539 . S
C1423 H1437 0.958 . S
C1423 H1438 0.961 . S
C1423 H1439 0.960 . S
H1424 C1408 0.931 . S
H1425 C1413 0.929 . S
H1426 C1414 0.960 . S
H1427 C1414 0.962 . S
H1428 C1414 0.960 . S
H1429 C1415 0.961 . S
H1430 C1415 0.961 . S
H1431 C1415 0.961 . S
H1432 C1416 0.931 . S
H1433 C1421 0.930 . S
H1434 C1422 0.956 . S
H1435 C1422 0.961 . S
H1436 C1422 0.961 . S
H1437 C1423 0.958 . S
H1438 C1423 0.961 . S
H1439 C1423 0.960 . S
C1440 C1441 1.391 . S
C1440 C1442 1.394 . S
C1440 H1456 0.931 . S
C1441 C1440 1.391 . S
C1441 C1445 1.376 . S
C1442 C1440 1.394 . S
C1442 C1443 1.369 . S
C1442 C1446 1.531 . S
C1443 C1442 1.369 . S
C1443 C1444 1.410 . S
C1443 C1451 1.503 . S
C1444 C1443 1.410 . S
C1444 C1445 1.392 . S
C1444 C1447 1.511 . S
C1445 C1441 1.376 . S
C1445 C1444 1.392 . S
C1445 H1457 0.929 . S
C1446 C1442 1.531 . S
C1446 H1458 0.960 . S
C1446 H1459 0.962 . S
C1446 H1460 0.960 . S
C1447 C1444 1.511 . S
C1447 H1461 0.961 . S
C1447 H1462 0.961 . S
C1447 H1463 0.961 . S
C1448 C1449 1.370 . S
C1448 C1450 1.363 . S
C1448 H1464 0.931 . S
C1449 C1448 1.370 . S
C1449 C1453 1.408 . S
C1450 C1448 1.363 . S
C1450 C1451 1.370 . S
C1450 C1454 1.524 . S
C1451 C1443 1.503 . S
C1451 C1450 1.370 . S
C1451 C1452 1.403 . S
C1452 C1451 1.403 . S
C1452 C1453 1.404 . S
C1452 C1455 1.539 . S
C1453 C1449 1.408 . S
C1453 C1452 1.404 . S
C1453 H1465 0.930 . S
C1454 C1450 1.524 . S
C1454 H1466 0.956 . S
C1454 H1467 0.961 . S
C1454 H1468 0.961 . S
C1455 C1452 1.539 . S
C1455 H1469 0.958 . S
C1455 H1470 0.961 . S
C1455 H1471 0.960 . S
H1456 C1440 0.931 . S
H1457 C1445 0.929 . S
H1458 C1446 0.960 . S
H1459 C1446 0.962 . S
H1460 C1446 0.960 . S
H1461 C1447 0.961 . S
H1462 C1447 0.961 . S
H1463 C1447 0.961 . S
H1464 C1448 0.931 . S
H1465 C1453 0.930 . S
H1466 C1454 0.956 . S
H1467 C1454 0.961 . S
H1468 C1454 0.961 . S
H1469 C1455 0.958 . S
H1470 C1455 0.961 . S
H1471 C1455 0.960 . S
C1472 C1473 1.391 . S
C1472 C1474 1.394 . S
C1472 H1488 0.931 . S
C1473 C1472 1.391 . S
C1473 C1477 1.376 . S
C1474 C1472 1.394 . S
C1474 C1475 1.369 . S
C1474 C1478 1.531 . S
C1475 C1474 1.369 . S
C1475 C1476 1.410 . S
C1475 C1483 1.503 . S
C1476 C1475 1.410 . S
C1476 C1477 1.392 . S
C1476 C1479 1.511 . S
C1477 C1473 1.376 . S
C1477 C1476 1.392 . S
C1477 H1489 0.929 . S
C1478 C1474 1.531 . S
C1478 H1490 0.960 . S
C1478 H1491 0.962 . S
C1478 H1492 0.960 . S
C1479 C1476 1.511 . S
C1479 H1493 0.961 . S
C1479 H1494 0.961 . S
C1479 H1495 0.961 . S
C1480 C1481 1.370 . S
C1480 C1482 1.363 . S
C1480 H1496 0.931 . S
C1481 C1480 1.370 . S
C1481 C1485 1.408 . S
C1482 C1480 1.363 . S
C1482 C1483 1.370 . S
C1482 C1486 1.524 . S
C1483 C1475 1.503 . S
C1483 C1482 1.370 . S
C1483 C1484 1.403 . S
C1484 C1483 1.403 . S
C1484 C1485 1.404 . S
C1484 C1487 1.539 . S
C1485 C1481 1.408 . S
C1485 C1484 1.404 . S
C1485 H1497 0.930 . S
C1486 C1482 1.524 . S
C1486 H1498 0.956 . S
C1486 H1499 0.961 . S
C1486 H1500 0.961 . S
C1487 C1484 1.539 . S
C1487 H1501 0.958 . S
C1487 H1502 0.961 . S
C1487 H1503 0.960 . S
H1488 C1472 0.931 . S
H1489 C1477 0.929 . S
H1490 C1478 0.960 . S
H1491 C1478 0.962 . S
H1492 C1478 0.960 . S
H1493 C1479 0.961 . S
H1494 C1479 0.961 . S
H1495 C1479 0.961 . S
H1496 C1480 0.931 . S
H1497 C1485 0.930 . S
H1498 C1486 0.956 . S
H1499 C1486 0.961 . S
H1500 C1486 0.961 . S
H1501 C1487 0.958 . S
H1502 C1487 0.961 . S
H1503 C1487 0.960 . S
C1504 C1505 1.391 . S
C1504 C1506 1.394 . S
C1504 H1520 0.931 . S
C1505 C1504 1.391 . S
C1505 C1509 1.376 . S
C1506 C1504 1.394 . S
C1506 C1507 1.369 . S
C1506 C1510 1.531 . S
C1507 C1506 1.369 . S
C1507 C1508 1.410 . S
C1507 C1515 1.503 . S
C1508 C1507 1.410 . S
C1508 C1509 1.392 . S
C1508 C1511 1.511 . S
C1509 C1505 1.376 . S
C1509 C1508 1.392 . S
C1509 H1521 0.929 . S
C1510 C1506 1.531 . S
C1510 H1522 0.960 . S
C1510 H1523 0.962 . S
C1510 H1524 0.960 . S
C1511 C1508 1.511 . S
C1511 H1525 0.961 . S
C1511 H1526 0.961 . S
C1511 H1527 0.961 . S
C1512 C1513 1.370 . S
C1512 C1514 1.363 . S
C1512 H1528 0.931 . S
C1513 C1512 1.370 . S
C1513 C1517 1.408 . S
C1514 C1512 1.363 . S
C1514 C1515 1.370 . S
C1514 C1518 1.524 . S
C1515 C1507 1.503 . S
C1515 C1514 1.370 . S
C1515 C1516 1.403 . S
C1516 C1515 1.403 . S
C1516 C1517 1.404 . S
C1516 C1519 1.539 . S
C1517 C1513 1.408 . S
C1517 C1516 1.404 . S
C1517 H1529 0.930 . S
C1518 C1514 1.524 . S
C1518 H1530 0.956 . S
C1518 H1531 0.961 . S
C1518 H1532 0.961 . S
C1519 C1516 1.539 . S
C1519 H1533 0.958 . S
C1519 H1534 0.961 . S
C1519 H1535 0.960 . S
H1520 C1504 0.931 . S
H1521 C1509 0.929 . S
H1522 C1510 0.960 . S
H1523 C1510 0.962 . S
H1524 C1510 0.960 . S
H1525 C1511 0.961 . S
H1526 C1511 0.961 . S
H1527 C1511 0.961 . S
H1528 C1512 0.931 . S
H1529 C1517 0.930 . S
H1530 C1518 0.956 . S
H1531 C1518 0.961 . S
H1532 C1518 0.961 . S
H1533 C1519 0.958 . S
H1534 C1519 0.961 . S
H1535 C1519 0.960 . S
C1536 C1537 1.391 . S
C1536 C1538 1.394 . S
C1536 H1552 0.931 . S
C1537 C1536 1.391 . S
C1537 C1541 1.376 . S
C1538 C1536 1.394 . S
C1538 C1539 1.369 . S
C1538 C1542 1.531 . S
C1539 C1538 1.369 . S
C1539 C1540 1.410 . S
C1539 C1547 1.503 . S
C1540 C1539 1.410 . S
C1540 C1541 1.392 . S
C1540 C1543 1.511 . S
C1541 C1537 1.376 . S
C1541 C1540 1.392 . S
C1541 H1553 0.929 . S
C1542 C1538 1.531 . S
C1542 H1554 0.960 . S
C1542 H1555 0.962 . S
C1542 H1556 0.960 . S
C1543 C1540 1.511 . S
C1543 H1557 0.961 . S
C1543 H1558 0.961 . S
C1543 H1559 0.961 . S
C1544 C1545 1.370 . S
C1544 C1546 1.363 . S
C1544 H1560 0.931 . S
C1545 C1544 1.370 . S
C1545 C1549 1.408 . S
C1546 C1544 1.363 . S
C1546 C1547 1.370 . S
C1546 C1550 1.524 . S
C1547 C1539 1.503 . S
C1547 C1546 1.370 . S
C1547 C1548 1.403 . S
C1548 C1547 1.403 . S
C1548 C1549 1.404 . S
C1548 C1551 1.539 . S
C1549 C1545 1.408 . S
C1549 C1548 1.404 . S
C1549 H1561 0.930 . S
C1550 C1546 1.524 . S
C1550 H1562 0.956 . S
C1550 H1563 0.961 . S
C1550 H1564 0.961 . S
C1551 C1548 1.539 . S
C1551 H1565 0.958 . S
C1551 H1566 0.961 . S
C1551 H1567 0.960 . S
H1552 C1536 0.931 . S
H1553 C1541 0.929 . S
H1554 C1542 0.960 . S
H1555 C1542 0.962 . S
H1556 C1542 0.960 . S
H1557 C1543 0.961 . S
H1558 C1543 0.961 . S
H1559 C1543 0.961 . S
H1560 C1544 0.931 . S
H1561 C1549 0.930 . S
H1562 C1550 0.956 . S
H1563 C1550 0.961 . S
H1564 C1550 0.961 . S
H1565 C1551 0.958 . S
H1566 C1551 0.961 . S
H1567 C1551 0.960 . S
C1568 C1569 1.391 . S
C1568 C1570 1.394 . S
C1568 H1584 0.931 . S
C1569 C1568 1.391 . S
C1569 C1573 1.376 . S
C1570 C1568 1.394 . S
C1570 C1571 1.369 . S
C1570 C1574 1.531 . S
C1571 C1570 1.369 . S
C1571 C1572 1.410 . S
C1571 C1579 1.503 . S
C1572 C1571 1.410 . S
C1572 C1573 1.392 . S
C1572 C1575 1.511 . S
C1573 C1569 1.376 . S
C1573 C1572 1.392 . S
C1573 H1585 0.929 . S
C1574 C1570 1.531 . S
C1574 H1586 0.960 . S
C1574 H1587 0.962 . S
C1574 H1588 0.960 . S
C1575 C1572 1.511 . S
C1575 H1589 0.961 . S
C1575 H1590 0.961 . S
C1575 H1591 0.961 . S
C1576 C1577 1.370 . S
C1576 C1578 1.363 . S
C1576 H1592 0.931 . S
C1577 C1576 1.370 . S
C1577 C1581 1.408 . S
C1578 C1576 1.363 . S
C1578 C1579 1.370 . S
C1578 C1582 1.524 . S
C1579 C1571 1.503 . S
C1579 C1578 1.370 . S
C1579 C1580 1.403 . S
C1580 C1579 1.403 . S
C1580 C1581 1.404 . S
C1580 C1583 1.539 . S
C1581 C1577 1.408 . S
C1581 C1580 1.404 . S
C1581 H1593 0.930 . S
C1582 C1578 1.524 . S
C1582 H1594 0.956 . S
C1582 H1595 0.961 . S
C1582 H1596 0.961 . S
C1583 C1580 1.539 . S
C1583 H1597 0.958 . S
C1583 H1598 0.961 . S
C1583 H1599 0.960 . S
H1584 C1568 0.931 . S
H1585 C1573 0.929 . S
H1586 C1574 0.960 . S
H1587 C1574 0.962 . S
H1588 C1574 0.960 . S
H1589 C1575 0.961 . S
H1590 C1575 0.961 . S
H1591 C1575 0.961 . S
H1592 C1576 0.931 . S
H1593 C1581 0.930 . S
H1594 C1582 0.956 . S
H1595 C1582 0.961 . S
H1596 C1582 0.961 . S
H1597 C1583 0.958 . S
H1598 C1583 0.961 . S
H1599 C1583 0.960 . S
C1600 C1601 1.391 . S
C1600 C1602 1.394 . S
C1600 H1616 0.931 . S
C1601 C1600 1.391 . S
C1601 C1605 1.376 . S
C1602 C1600 1.394 . S
C1602 C1603 1.369 . S
C1602 C1606 1.531 . S
C1603 C1602 1.369 . S
C1603 C1604 1.410 . S
C1603 C1611 1.503 . S
C1604 C1603 1.410 . S
C1604 C1605 1.392 . S
C1604 C1607 1.511 . S
C1605 C1601 1.376 . S
C1605 C1604 1.392 . S
C1605 H1617 0.929 . S
C1606 C1602 1.531 . S
C1606 H1618 0.960 . S
C1606 H1619 0.962 . S
C1606 H1620 0.960 . S
C1607 C1604 1.511 . S
C1607 H1621 0.961 . S
C1607 H1622 0.961 . S
C1607 H1623 0.961 . S
C1608 C1609 1.370 . S
C1608 C1610 1.363 . S
C1608 H1624 0.931 . S
C1609 C1608 1.370 . S
C1609 C1613 1.408 . S
C1610 C1608 1.363 . S
C1610 C1611 1.370 . S
C1610 C1614 1.524 . S
C1611 C1603 1.503 . S
C1611 C1610 1.370 . S
C1611 C1612 1.403 . S
C1612 C1611 1.403 . S
C1612 C1613 1.404 . S
C1612 C1615 1.539 . S
C1613 C1609 1.408 . S
C1613 C1612 1.404 . S
C1613 H1625 0.930 . S
C1614 C1610 1.524 . S
C1614 H1626 0.956 . S
C1614 H1627 0.961 . S
C1614 H1628 0.961 . S
C1615 C1612 1.539 . S
C1615 H1629 0.958 . S
C1615 H1630 0.961 . S
C1615 H1631 0.960 . S
H1616 C1600 0.931 . S
H1617 C1605 0.929 . S
H1618 C1606 0.960 . S
H1619 C1606 0.962 . S
H1620 C1606 0.960 . S
H1621 C1607 0.961 . S
H1622 C1607 0.961 . S
H1623 C1607 0.961 . S
H1624 C1608 0.931 . S
H1625 C1613 0.930 . S
H1626 C1614 0.956 . S
H1627 C1614 0.961 . S
H1628 C1614 0.961 . S
H1629 C1615 0.958 . S
H1630 C1615 0.961 . S
H1631 C1615 0.960 . S
C1632 C1633 1.391 . S
C1632 C1634 1.394 . S
C1632 H1648 0.931 . S
C1633 C1632 1.391 . S
C1633 C1637 1.376 . S
C1634 C1632 1.394 . S
C1634 C1635 1.369 . S
C1634 C1638 1.531 . S
C1635 C1634 1.369 . S
C1635 C1636 1.410 . S
C1635 C1643 1.503 . S
C1636 C1635 1.410 . S
C1636 C1637 1.392 . S
C1636 C1639 1.511 . S
C1637 C1633 1.376 . S
C1637 C1636 1.392 . S
C1637 H1649 0.929 . S
C1638 C1634 1.531 . S
C1638 H1650 0.960 . S
C1638 H1651 0.962 . S
C1638 H1652 0.960 . S
C1639 C1636 1.511 . S
C1639 H1653 0.961 . S
C1639 H1654 0.961 . S
C1639 H1655 0.961 . S
C1640 C1641 1.370 . S
C1640 C1642 1.363 . S
C1640 H1656 0.931 . S
C1641 C1640 1.370 . S
C1641 C1645 1.408 . S
C1642 C1640 1.363 . S
C1642 C1643 1.370 . S
C1642 C1646 1.524 . S
C1643 C1635 1.503 . S
C1643 C1642 1.370 . S
C1643 C1644 1.403 . S
C1644 C1643 1.403 . S
C1644 C1645 1.404 . S
C1644 C1647 1.539 . S
C1645 C1641 1.408 . S
C1645 C1644 1.404 . S
C1645 H1657 0.930 . S
C1646 C1642 1.524 . S
C1646 H1658 0.956 . S
C1646 H1659 0.961 . S
C1646 H1660 0.961 . S
C1647 C1644 1.539 . S
C1647 H1661 0.958 . S
C1647 H1662 0.961 . S
C1647 H1663 0.960 . S
H1648 C1632 0.931 . S
H1649 C1637 0.929 . S
H1650 C1638 0.960 . S
H1651 C1638 0.962 . S
H1652 C1638 0.960 . S
H1653 C1639 0.961 . S
H1654 C1639 0.961 . S
H1655 C1639 0.961 . S
H1656 C1640 0.931 . S
H1657 C1645 0.930 . S
H1658 C1646 0.956 . S
H1659 C1646 0.961 . S
H1660 C1646 0.961 . S
H1661 C1647 0.958 . S
H1662 C1647 0.961 . S
H1663 C1647 0.960 . S
C1664 C1665 1.391 . S
C1664 C1666 1.394 . S
C1664 H1680 0.931 . S
C1665 C1664 1.391 . S
C1665 C1669 1.376 . S
C1666 C1664 1.394 . S
C1666 C1667 1.369 . S
C1666 C1670 1.531 . S
C1667 C1666 1.369 . S
C1667 C1668 1.410 . S
C1667 C1675 1.503 . S
C1668 C1667 1.410 . S
C1668 C1669 1.392 . S
C1668 C1671 1.511 . S
C1669 C1665 1.376 . S
C1669 C1668 1.392 . S
C1669 H1681 0.929 . S
C1670 C1666 1.531 . S
C1670 H1682 0.960 . S
C1670 H1683 0.962 . S
C1670 H1684 0.960 . S
C1671 C1668 1.511 . S
C1671 H1685 0.961 . S
C1671 H1686 0.961 . S
C1671 H1687 0.961 . S
C1672 C1673 1.370 . S
C1672 C1674 1.363 . S
C1672 H1688 0.931 . S
C1673 C1672 1.370 . S
C1673 C1677 1.408 . S
C1674 C1672 1.363 . S
C1674 C1675 1.370 . S
C1674 C1678 1.524 . S
C1675 C1667 1.503 . S
C1675 C1674 1.370 . S
C1675 C1676 1.403 . S
C1676 C1675 1.403 . S
C1676 C1677 1.404 . S
C1676 C1679 1.539 . S
C1677 C1673 1.408 . S
C1677 C1676 1.404 . S
C1677 H1689 0.930 . S
C1678 C1674 1.524 . S
C1678 H1690 0.956 . S
C1678 H1691 0.961 . S
C1678 H1692 0.961 . S
C1679 C1676 1.539 . S
C1679 H1693 0.958 . S
C1679 H1694 0.961 . S
C1679 H1695 0.960 . S
H1680 C1664 0.931 . S
H1681 C1669 0.929 . S
H1682 C1670 0.960 . S
H1683 C1670 0.962 . S
H1684 C1670 0.960 . S
H1685 C1671 0.961 . S
H1686 C1671 0.961 . S
H1687 C1671 0.961 . S
H1688 C1672 0.931 . S
H1689 C1677 0.930 . S
H1690 C1678 0.956 . S
H1691 C1678 0.961 . S
H1692 C1678 0.961 . S
H1693 C1679 0.958 . S
H1694 C1679 0.961 . S
H1695 C1679 0.960 . S
C1696 C1697 1.391 . S
C1696 C1698 1.394 . S
C1696 H1712 0.931 . S
C1697 C1696 1.391 . S
C1697 C1701 1.376 . S
C1698 C1696 1.394 . S
C1698 C1699 1.369 . S
C1698 C1702 1.531 . S
C1699 C1698 1.369 . S
C1699 C1700 1.410 . S
C1699 C1707 1.503 1_554 S
C1700 C1699 1.410 . S
C1700 C1701 1.392 . S
C1700 C1703 1.511 . S
C1701 C1697 1.376 . S
C1701 C1700 1.392 . S
C1701 H1713 0.929 . S
C1702 C1698 1.531 . S
C1702 H1714 0.960 1_554 S
C1702 H1715 0.962 . S
C1702 H1716 0.960 . S
C1703 C1700 1.511 . S
C1703 H1717 0.961 . S
C1703 H1718 0.961 1_554 S
C1703 H1719 0.961 . S
C1704 C1705 1.370 . S
C1704 C1706 1.363 . S
C1704 H1720 0.931 . S
C1705 C1704 1.370 . S
C1705 C1709 1.408 . S
C1706 C1704 1.363 . S
C1706 C1707 1.370 . S
C1706 C1710 1.524 . S
C1707 C1699 1.503 1_556 S
C1707 C1706 1.370 . S
C1707 C1708 1.403 . S
C1708 C1707 1.403 . S
C1708 C1709 1.404 . S
C1708 C1711 1.539 . S
C1709 C1705 1.408 . S
C1709 C1708 1.404 . S
C1709 H1721 0.930 . S
C1710 C1706 1.524 . S
C1710 H1722 0.956 . S
C1710 H1723 0.961 1_556 S
C1710 H1724 0.961 . S
C1711 C1708 1.539 . S
C1711 H1725 0.958 . S
C1711 H1726 0.961 . S
C1711 H1727 0.970 . S
H1712 C1696 0.931 . S
H1713 C1701 0.929 . S
H1714 C1702 0.960 1_556 S
H1715 C1702 0.962 . S
H1716 C1702 0.960 . S
H1717 C1703 0.961 . S
H1718 C1703 0.961 1_556 S
H1719 C1703 0.961 . S
H1720 C1704 0.931 . S
H1721 C1709 0.930 . S
H1722 C1710 0.956 . S
H1723 C1710 0.961 1_554 S
H1724 C1710 0.961 . S
H1725 C1711 0.958 . S
H1726 C1711 0.961 . S
H1727 C1711 0.970 . S
C1728 C1729 1.391 . S
C1728 C1730 1.394 . S
C1728 H1744 0.931 . S
C1729 C1728 1.391 . S
C1729 C1733 1.376 . S
C1730 C1728 1.394 . S
C1730 C1731 1.369 . S
C1730 C1734 1.531 . S
C1731 C1730 1.369 . S
C1731 C1732 1.410 . S
C1731 C1739 1.503 1_556 S
C1732 C1731 1.410 . S
C1732 C1733 1.392 . S
C1732 C1735 1.511 . S
C1733 C1729 1.376 . S
C1733 C1732 1.392 . S
C1733 H1745 0.929 . S
C1734 C1730 1.531 . S
C1734 H1746 0.960 1_556 S
C1734 H1747 0.962 . S
C1734 H1748 0.960 . S
C1735 C1732 1.511 . S
C1735 H1749 0.961 . S
C1735 H1750 0.961 1_556 S
C1735 H1751 0.961 . S
C1736 C1737 1.370 . S
C1736 C1738 1.363 . S
C1736 H1752 0.931 . S
C1737 C1736 1.370 . S
C1737 C1741 1.408 . S
C1738 C1736 1.363 . S
C1738 C1739 1.370 . S
C1738 C1742 1.524 . S
C1739 C1731 1.503 1_554 S
C1739 C1738 1.370 . S
C1739 C1740 1.403 . S
C1740 C1739 1.403 . S
C1740 C1741 1.404 . S
C1740 C1743 1.539 . S
C1741 C1737 1.408 . S
C1741 C1740 1.404 . S
C1741 H1753 0.930 . S
C1742 C1738 1.524 . S
C1742 H1754 0.956 . S
C1742 H1755 0.961 1_554 S
C1742 H1756 0.961 . S
C1743 C1740 1.539 . S
C1743 H1757 0.958 . S
C1743 H1758 0.961 . S
C1743 H1759 0.971 . S
H1744 C1728 0.931 . S
H1745 C1733 0.929 . S
H1746 C1734 0.960 1_554 S
H1747 C1734 0.962 . S
H1748 C1734 0.960 . S
H1749 C1735 0.961 . S
H1750 C1735 0.961 1_554 S
H1751 C1735 0.961 . S
H1752 C1736 0.931 . S
H1753 C1741 0.930 . S
H1754 C1742 0.956 . S
H1755 C1742 0.961 1_556 S
H1756 C1742 0.961 . S
H1757 C1743 0.958 . S
H1758 C1743 0.961 . S
H1759 C1743 0.971 . S
C1760 C1761 1.391 . S
C1760 C1762 1.394 . S
C1760 H1776 0.931 . S
C1761 C1760 1.391 . S
C1761 C1765 1.376 . S
C1762 C1760 1.394 . S
C1762 C1763 1.369 . S
C1762 C1766 1.531 . S
C1763 C1762 1.369 . S
C1763 C1764 1.410 . S
C1763 C1771 1.503 1_554 S
C1764 C1763 1.410 . S
C1764 C1765 1.392 . S
C1764 C1767 1.511 . S
C1765 C1761 1.376 . S
C1765 C1764 1.392 . S
C1765 H1777 0.929 . S
C1766 C1762 1.531 . S
C1766 H1778 0.960 1_554 S
C1766 H1779 0.962 . S
C1766 H1780 0.960 . S
C1767 C1764 1.511 . S
C1767 H1781 0.961 . S
C1767 H1782 0.961 1_554 S
C1767 H1783 0.961 . S
C1768 C1769 1.370 . S
C1768 C1770 1.363 . S
C1768 H1784 0.931 . S
C1769 C1768 1.370 . S
C1769 C1773 1.408 . S
C1770 C1768 1.363 . S
C1770 C1771 1.370 . S
C1770 C1774 1.524 . S
C1771 C1763 1.503 1_556 S
C1771 C1770 1.370 . S
C1771 C1772 1.403 . S
C1772 C1771 1.403 . S
C1772 C1773 1.404 . S
C1772 C1775 1.539 . S
C1773 C1769 1.408 . S
C1773 C1772 1.404 . S
C1773 H1785 0.930 . S
C1774 C1770 1.524 . S
C1774 H1786 0.956 . S
C1774 H1787 0.961 1_556 S
C1774 H1788 0.961 . S
C1775 C1772 1.539 . S
C1775 H1789 0.958 . S
C1775 H1790 0.961 . S
C1775 H1791 0.971 . S
H1776 C1760 0.931 . S
H1777 C1765 0.929 . S
H1778 C1766 0.960 1_556 S
H1779 C1766 0.962 . S
H1780 C1766 0.960 . S
H1781 C1767 0.961 . S
H1782 C1767 0.961 1_556 S
H1783 C1767 0.961 . S
H1784 C1768 0.931 . S
H1785 C1773 0.930 . S
H1786 C1774 0.956 . S
H1787 C1774 0.961 1_554 S
H1788 C1774 0.961 . S
H1789 C1775 0.958 . S
H1790 C1775 0.961 . S
H1791 C1775 0.971 . S
C1792 C1793 1.391 . S
C1792 C1794 1.394 . S
C1792 H1808 0.931 . S
C1793 C1792 1.391 . S
C1793 C1797 1.376 . S
C1794 C1792 1.394 . S
C1794 C1795 1.369 . S
C1794 C1798 1.531 . S
C1795 C1794 1.369 . S
C1795 C1796 1.410 . S
C1795 C1803 1.503 1_554 S
C1796 C1795 1.410 . S
C1796 C1797 1.392 . S
C1796 C1799 1.511 . S
C1797 C1793 1.376 . S
C1797 C1796 1.392 . S
C1797 H1809 0.929 . S
C1798 C1794 1.531 . S
C1798 H1810 0.960 1_554 S
C1798 H1811 0.962 . S
C1798 H1812 0.960 . S
C1799 C1796 1.511 . S
C1799 H1813 0.961 . S
C1799 H1814 0.961 1_554 S
C1799 H1815 0.961 . S
C1800 C1801 1.370 . S
C1800 C1802 1.363 . S
C1800 H1816 0.931 . S
C1801 C1800 1.370 . S
C1801 C1805 1.408 . S
C1802 C1800 1.363 . S
C1802 C1803 1.370 . S
C1802 C1806 1.524 . S
C1803 C1795 1.503 1_556 S
C1803 C1802 1.370 . S
C1803 C1804 1.403 . S
C1804 C1803 1.403 . S
C1804 C1805 1.404 . S
C1804 C1807 1.539 . S
C1805 C1801 1.408 . S
C1805 C1804 1.404 . S
C1805 H1817 0.930 . S
C1806 C1802 1.524 . S
C1806 H1818 0.956 . S
C1806 H1819 0.961 1_556 S
C1806 H1820 0.961 . S
C1807 C1804 1.539 . S
C1807 H1821 0.958 . S
C1807 H1822 0.961 . S
C1807 H1823 0.971 . S
H1808 C1792 0.931 . S
H1809 C1797 0.929 . S
H1810 C1798 0.960 1_556 S
H1811 C1798 0.962 . S
H1812 C1798 0.960 . S
H1813 C1799 0.961 . S
H1814 C1799 0.961 1_556 S
H1815 C1799 0.961 . S
H1816 C1800 0.931 . S
H1817 C1805 0.930 . S
H1818 C1806 0.956 . S
H1819 C1806 0.961 1_554 S
H1820 C1806 0.961 . S
H1821 C1807 0.958 . S
H1822 C1807 0.961 . S
H1823 C1807 0.971 . S
C1824 C1825 1.391 . S
C1824 C1826 1.394 . S
C1824 H1840 0.931 . S
C1825 C1824 1.391 . S
C1825 C1829 1.376 . S
C1826 C1824 1.394 . S
C1826 C1827 1.369 . S
C1826 C1830 1.531 . S
C1827 C1826 1.369 . S
C1827 C1828 1.410 . S
C1827 C1835 1.503 1_554 S
C1828 C1827 1.410 . S
C1828 C1829 1.392 . S
C1828 C1831 1.511 . S
C1829 C1825 1.376 . S
C1829 C1828 1.392 . S
C1829 H1841 0.929 . S
C1830 C1826 1.531 . S
C1830 H1842 0.960 1_554 S
C1830 H1843 0.962 . S
C1830 H1844 0.960 . S
C1831 C1828 1.511 . S
C1831 H1845 0.961 . S
C1831 H1846 0.961 1_554 S
C1831 H1847 0.961 . S
C1832 C1833 1.370 . S
C1832 C1834 1.363 . S
C1832 H1848 0.931 . S
C1833 C1832 1.370 . S
C1833 C1837 1.408 . S
C1834 C1832 1.363 . S
C1834 C1835 1.370 . S
C1834 C1838 1.524 . S
C1835 C1827 1.503 1_556 S
C1835 C1834 1.370 . S
C1835 C1836 1.403 . S
C1836 C1835 1.403 . S
C1836 C1837 1.404 . S
C1836 C1839 1.539 . S
C1837 C1833 1.408 . S
C1837 C1836 1.404 . S
C1837 H1849 0.930 . S
C1838 C1834 1.524 . S
C1838 H1850 0.956 . S
C1838 H1851 0.961 1_556 S
C1838 H1852 0.961 . S
C1839 C1836 1.539 . S
C1839 H1853 0.958 . S
C1839 H1854 0.961 . S
C1839 H1855 0.971 . S
H1840 C1824 0.931 . S
H1841 C1829 0.929 . S
H1842 C1830 0.960 1_556 S
H1843 C1830 0.962 . S
H1844 C1830 0.960 . S
H1845 C1831 0.961 . S
H1846 C1831 0.961 1_556 S
H1847 C1831 0.961 . S
H1848 C1832 0.931 . S
H1849 C1837 0.930 . S
H1850 C1838 0.956 . S
H1851 C1838 0.961 1_554 S
H1852 C1838 0.961 . S
H1853 C1839 0.958 . S
H1854 C1839 0.961 . S
H1855 C1839 0.971 . S
C1856 C1857 1.391 . S
C1856 C1858 1.394 . S
C1856 H1872 0.931 . S
C1857 C1856 1.391 . S
C1857 C1861 1.376 . S
C1858 C1856 1.394 . S
C1858 C1859 1.369 . S
C1858 C1862 1.531 . S
C1859 C1858 1.369 . S
C1859 C1860 1.410 . S
C1859 C1867 1.503 1_554 S
C1860 C1859 1.410 . S
C1860 C1861 1.392 . S
C1860 C1863 1.511 . S
C1861 C1857 1.376 . S
C1861 C1860 1.392 . S
C1861 H1873 0.929 . S
C1862 C1858 1.531 . S
C1862 H1874 0.960 1_554 S
C1862 H1875 0.962 . S
C1862 H1876 0.960 . S
C1863 C1860 1.511 . S
C1863 H1877 0.961 . S
C1863 H1878 0.961 1_554 S
C1863 H1879 0.961 . S
C1864 C1865 1.370 . S
C1864 C1866 1.363 . S
C1864 H1880 0.931 . S
C1865 C1864 1.370 . S
C1865 C1869 1.408 . S
C1866 C1864 1.363 . S
C1866 C1867 1.370 . S
C1866 C1870 1.524 . S
C1867 C1859 1.503 1_556 S
C1867 C1866 1.370 . S
C1867 C1868 1.403 . S
C1868 C1867 1.403 . S
C1868 C1869 1.404 . S
C1868 C1871 1.539 . S
C1869 C1865 1.408 . S
C1869 C1868 1.404 . S
C1869 H1881 0.930 . S
C1870 C1866 1.524 . S
C1870 H1882 0.956 . S
C1870 H1883 0.961 1_556 S
C1870 H1884 0.961 . S
C1871 C1868 1.539 . S
C1871 H1885 0.958 . S
C1871 H1886 0.961 . S
C1871 H1887 0.970 . S
H1872 C1856 0.931 . S
H1873 C1861 0.929 . S
H1874 C1862 0.960 1_556 S
H1875 C1862 0.962 . S
H1876 C1862 0.960 . S
H1877 C1863 0.961 . S
H1878 C1863 0.961 1_556 S
H1879 C1863 0.961 . S
H1880 C1864 0.931 . S
H1881 C1869 0.930 . S
H1882 C1870 0.956 . S
H1883 C1870 0.961 1_554 S
H1884 C1870 0.961 . S
H1885 C1871 0.958 . S
H1886 C1871 0.961 . S
H1887 C1871 0.970 . S
C1888 C1889 1.391 . S
C1888 C1890 1.394 . S
C1888 H1904 0.931 . S
C1889 C1888 1.391 . S
C1889 C1893 1.376 . S
C1890 C1888 1.394 . S
C1890 C1891 1.369 . S
C1890 C1894 1.531 . S
C1891 C1890 1.369 . S
C1891 C1892 1.410 . S
C1891 C1899 1.503 1_556 S
C1892 C1891 1.410 . S
C1892 C1893 1.392 . S
C1892 C1895 1.511 . S
C1893 C1889 1.376 . S
C1893 C1892 1.392 . S
C1893 H1905 0.929 . S
C1894 C1890 1.531 . S
C1894 H1906 0.960 1_556 S
C1894 H1907 0.962 . S
C1894 H1908 0.960 . S
C1895 C1892 1.511 . S
C1895 H1909 0.961 . S
C1895 H1910 0.961 1_556 S
C1895 H1911 0.961 . S
C1896 C1897 1.370 . S
C1896 C1898 1.363 . S
C1896 H1912 0.931 . S
C1897 C1896 1.370 . S
C1897 C1901 1.408 . S
C1898 C1896 1.363 . S
C1898 C1899 1.370 . S
C1898 C1902 1.524 . S
C1899 C1891 1.503 1_554 S
C1899 C1898 1.370 . S
C1899 C1900 1.403 . S
C1900 C1899 1.403 . S
C1900 C1901 1.404 . S
C1900 C1903 1.539 . S
C1901 C1897 1.408 . S
C1901 C1900 1.404 . S
C1901 H1913 0.930 . S
C1902 C1898 1.524 . S
C1902 H1914 0.956 . S
C1902 H1915 0.961 1_554 S
C1902 H1916 0.961 . S
C1903 C1900 1.539 . S
C1903 H1917 0.958 . S
C1903 H1918 0.961 . S
C1903 H1919 0.970 . S
H1904 C1888 0.931 . S
H1905 C1893 0.929 . S
H1906 C1894 0.960 1_554 S
H1907 C1894 0.962 . S
H1908 C1894 0.960 . S
H1909 C1895 0.961 . S
H1910 C1895 0.961 1_554 S
H1911 C1895 0.961 . S
H1912 C1896 0.931 . S
H1913 C1901 0.930 . S
H1914 C1902 0.956 . S
H1915 C1902 0.961 1_556 S
H1916 C1902 0.961 . S
H1917 C1903 0.958 . S
H1918 C1903 0.961 . S
H1919 C1903 0.970 . S
C1920 C1921 1.391 . S
C1920 C1922 1.394 . S
C1920 H1936 0.931 . S
C1921 C1920 1.391 . S
C1921 C1925 1.376 . S
C1922 C1920 1.394 . S
C1922 C1923 1.369 . S
C1922 C1926 1.531 . S
C1923 C1922 1.369 . S
C1923 C1924 1.410 . S
C1923 C1931 1.503 1_556 S
C1924 C1923 1.410 . S
C1924 C1925 1.392 . S
C1924 C1927 1.511 . S
C1925 C1921 1.376 . S
C1925 C1924 1.392 . S
C1925 H1937 0.929 . S
C1926 C1922 1.531 . S
C1926 H1938 0.960 1_556 S
C1926 H1939 0.962 . S
C1926 H1940 0.960 . S
C1927 C1924 1.511 . S
C1927 H1941 0.961 . S
C1927 H1942 0.961 1_556 S
C1927 H1943 0.961 . S
C1928 C1929 1.370 . S
C1928 C1930 1.363 . S
C1928 H1944 0.931 . S
C1929 C1928 1.370 . S
C1929 C1933 1.408 . S
C1930 C1928 1.363 . S
C1930 C1931 1.370 . S
C1930 C1934 1.524 . S
C1931 C1923 1.503 1_554 S
C1931 C1930 1.370 . S
C1931 C1932 1.403 . S
C1932 C1931 1.403 . S
C1932 C1933 1.404 . S
C1932 C1935 1.539 . S
C1933 C1929 1.408 . S
C1933 C1932 1.404 . S
C1933 H1945 0.930 . S
C1934 C1930 1.524 . S
C1934 H1946 0.956 . S
C1934 H1947 0.961 1_554 S
C1934 H1948 0.961 . S
C1935 C1932 1.539 . S
C1935 H1949 0.958 . S
C1935 H1950 0.961 . S
C1935 H1951 0.970 . S
H1936 C1920 0.931 . S
H1937 C1925 0.929 . S
H1938 C1926 0.960 1_554 S
H1939 C1926 0.962 . S
H1940 C1926 0.960 . S
H1941 C1927 0.961 . S
H1942 C1927 0.961 1_554 S
H1943 C1927 0.961 . S
H1944 C1928 0.931 . S
H1945 C1933 0.930 . S
H1946 C1934 0.956 . S
H1947 C1934 0.961 1_556 S
H1948 C1934 0.961 . S
H1949 C1935 0.958 . S
H1950 C1935 0.961 . S
H1951 C1935 0.970 . S
C1952 C1953 1.391 . S
C1952 C1954 1.394 . S
C1952 H1968 0.931 . S
C1953 C1952 1.391 . S
C1953 C1957 1.376 . S
C1954 C1952 1.394 . S
C1954 C1955 1.369 . S
C1954 C1958 1.531 . S
C1955 C1954 1.369 . S
C1955 C1956 1.410 . S
C1955 C1963 1.503 . S
C1956 C1955 1.410 . S
C1956 C1957 1.392 . S
C1956 C1959 1.511 . S
C1957 C1953 1.376 . S
C1957 C1956 1.392 . S
C1957 H1969 0.929 . S
C1958 C1954 1.531 . S
C1958 H1970 0.960 . S
C1958 H1971 0.962 . S
C1958 H1972 0.960 . S
C1959 C1956 1.511 . S
C1959 H1973 0.961 . S
C1959 H1974 0.961 . S
C1959 H1975 0.961 . S
C1960 C1961 1.370 . S
C1960 C1962 1.363 . S
C1960 H1976 0.931 . S
C1961 C1960 1.370 . S
C1961 C1965 1.408 . S
C1962 C1960 1.363 . S
C1962 C1963 1.370 . S
C1962 C1966 1.524 . S
C1963 C1955 1.503 . S
C1963 C1962 1.370 . S
C1963 C1964 1.403 . S
C1964 C1963 1.403 . S
C1964 C1965 1.404 . S
C1964 C1967 1.539 . S
C1965 C1961 1.408 . S
C1965 C1964 1.404 . S
C1965 H1977 0.930 . S
C1966 C1962 1.524 . S
C1966 H1978 0.956 . S
C1966 H1979 0.961 . S
C1966 H1980 0.961 . S
C1967 C1964 1.539 . S
C1967 H1981 0.958 . S
C1967 H1982 0.961 . S
C1967 H1983 0.960 . S
H1968 C1952 0.931 . S
H1969 C1957 0.929 . S
H1970 C1958 0.960 . S
H1971 C1958 0.962 . S
H1972 C1958 0.960 . S
H1973 C1959 0.961 . S
H1974 C1959 0.961 . S
H1975 C1959 0.961 . S
H1976 C1960 0.931 . S
H1977 C1965 0.930 . S
H1978 C1966 0.956 . S
H1979 C1966 0.961 . S
H1980 C1966 0.961 . S
H1981 C1967 0.958 . S
H1982 C1967 0.961 . S
H1983 C1967 0.960 . S
C1984 C1985 1.391 . S
C1984 C1986 1.394 . S
C1984 H2000 0.931 . S
C1985 C1984 1.391 . S
C1985 C1989 1.376 . S
C1986 C1984 1.394 . S
C1986 C1987 1.369 . S
C1986 C1990 1.531 . S
C1987 C1986 1.369 . S
C1987 C1988 1.410 . S
C1987 C1995 1.503 . S
C1988 C1987 1.410 . S
C1988 C1989 1.392 . S
C1988 C1991 1.511 . S
C1989 C1985 1.376 . S
C1989 C1988 1.392 . S
C1989 H2001 0.929 . S
C1990 C1986 1.531 . S
C1990 H2002 0.960 . S
C1990 H2003 0.962 . S
C1990 H2004 0.960 . S
C1991 C1988 1.511 . S
C1991 H2005 0.961 . S
C1991 H2006 0.961 . S
C1991 H2007 0.961 . S
C1992 C1993 1.370 . S
C1992 C1994 1.363 . S
C1992 H2008 0.931 . S
C1993 C1992 1.370 . S
C1993 C1997 1.408 . S
C1994 C1992 1.363 . S
C1994 C1995 1.370 . S
C1994 C1998 1.524 . S
C1995 C1987 1.503 . S
C1995 C1994 1.370 . S
C1995 C1996 1.403 . S
C1996 C1995 1.403 . S
C1996 C1997 1.404 . S
C1996 C1999 1.539 . S
C1997 C1993 1.408 . S
C1997 C1996 1.404 . S
C1997 H2009 0.930 . S
C1998 C1994 1.524 . S
C1998 H2010 0.956 . S
C1998 H2011 0.961 . S
C1998 H2012 0.961 . S
C1999 C1996 1.539 . S
C1999 H2013 0.958 . S
C1999 H2014 0.961 . S
C1999 H2015 0.960 . S
H2000 C1984 0.931 . S
H2001 C1989 0.929 . S
H2002 C1990 0.960 . S
H2003 C1990 0.962 . S
H2004 C1990 0.960 . S
H2005 C1991 0.961 . S
H2006 C1991 0.961 . S
H2007 C1991 0.961 . S
H2008 C1992 0.931 . S
H2009 C1997 0.930 . S
H2010 C1998 0.956 . S
H2011 C1998 0.961 . S
H2012 C1998 0.961 . S
H2013 C1999 0.958 . S
H2014 C1999 0.961 . S
H2015 C1999 0.960 . S
C2016 C2017 1.391 . S
C2016 C2018 1.394 . S
C2016 H2032 0.931 . S
C2017 C2016 1.391 . S
C2017 C2021 1.376 . S
C2018 C2016 1.394 . S
C2018 C2019 1.369 . S
C2018 C2022 1.531 . S
C2019 C2018 1.369 . S
C2019 C2020 1.410 . S
C2019 C2027 1.503 . S
C2020 C2019 1.410 . S
C2020 C2021 1.392 . S
C2020 C2023 1.511 . S
C2021 C2017 1.376 . S
C2021 C2020 1.392 . S
C2021 H2033 0.929 . S
C2022 C2018 1.531 . S
C2022 H2034 0.960 . S
C2022 H2035 0.962 . S
C2022 H2036 0.960 . S
C2023 C2020 1.511 . S
C2023 H2037 0.961 . S
C2023 H2038 0.961 . S
C2023 H2039 0.961 . S
C2024 C2025 1.370 . S
C2024 C2026 1.363 . S
C2024 H2040 0.931 . S
C2025 C2024 1.370 . S
C2025 C2029 1.408 . S
C2026 C2024 1.363 . S
C2026 C2027 1.370 . S
C2026 C2030 1.524 . S
C2027 C2019 1.503 . S
C2027 C2026 1.370 . S
C2027 C2028 1.403 . S
C2028 C2027 1.403 . S
C2028 C2029 1.404 . S
C2028 C2031 1.539 . S
C2029 C2025 1.408 . S
C2029 C2028 1.404 . S
C2029 H2041 0.930 . S
C2030 C2026 1.524 . S
C2030 H2042 0.956 . S
C2030 H2043 0.961 . S
C2030 H2044 0.961 . S
C2031 C2028 1.539 . S
C2031 H2045 0.958 . S
C2031 H2046 0.961 . S
C2031 H2047 0.960 . S
H2032 C2016 0.931 . S
H2033 C2021 0.929 . S
H2034 C2022 0.960 . S
H2035 C2022 0.962 . S
H2036 C2022 0.960 . S
H2037 C2023 0.961 . S
H2038 C2023 0.961 . S
H2039 C2023 0.961 . S
H2040 C2024 0.931 . S
H2041 C2029 0.930 . S
H2042 C2030 0.956 . S
H2043 C2030 0.961 . S
H2044 C2030 0.961 . S
H2045 C2031 0.958 . S
H2046 C2031 0.961 . S
H2047 C2031 0.960 . S
C2048 C2049 1.391 . S
C2048 C2050 1.394 . S
C2048 H2064 0.931 . S
C2049 C2048 1.391 . S
C2049 C2053 1.376 . S
C2050 C2048 1.394 . S
C2050 C2051 1.369 . S
C2050 C2054 1.531 . S
C2051 C2050 1.369 . S
C2051 C2052 1.410 . S
C2051 C2059 1.503 . S
C2052 C2051 1.410 . S
C2052 C2053 1.392 . S
C2052 C2055 1.511 . S
C2053 C2049 1.376 . S
C2053 C2052 1.392 . S
C2053 H2065 0.929 . S
C2054 C2050 1.531 . S
C2054 H2066 0.960 . S
C2054 H2067 0.962 . S
C2054 H2068 0.960 . S
C2055 C2052 1.511 . S
C2055 H2069 0.961 . S
C2055 H2070 0.961 . S
C2055 H2071 0.961 . S
C2056 C2057 1.370 . S
C2056 C2058 1.363 . S
C2056 H2072 0.931 . S
C2057 C2056 1.370 . S
C2057 C2061 1.408 . S
C2058 C2056 1.363 . S
C2058 C2059 1.370 . S
C2058 C2062 1.524 . S
C2059 C2051 1.503 . S
C2059 C2058 1.370 . S
C2059 C2060 1.403 . S
C2060 C2059 1.403 . S
C2060 C2061 1.404 . S
C2060 C2063 1.539 . S
C2061 C2057 1.408 . S
C2061 C2060 1.404 . S
C2061 H2073 0.930 . S
C2062 C2058 1.524 . S
C2062 H2074 0.956 . S
C2062 H2075 0.961 . S
C2062 H2076 0.961 . S
C2063 C2060 1.539 . S
C2063 H2077 0.958 . S
C2063 H2078 0.961 . S
C2063 H2079 0.960 . S
H2064 C2048 0.931 . S
H2065 C2053 0.929 . S
H2066 C2054 0.960 . S
H2067 C2054 0.962 . S
H2068 C2054 0.960 . S
H2069 C2055 0.961 . S
H2070 C2055 0.961 . S
H2071 C2055 0.961 . S
H2072 C2056 0.931 . S
H2073 C2061 0.930 . S
H2074 C2062 0.956 . S
H2075 C2062 0.961 . S
H2076 C2062 0.961 . S
H2077 C2063 0.958 . S
H2078 C2063 0.961 . S
H2079 C2063 0.960 . S
C2080 C2081 1.391 . S
C2080 C2082 1.394 . S
C2080 H2096 0.931 . S
C2081 C2080 1.391 . S
C2081 C2085 1.376 . S
C2082 C2080 1.394 . S
C2082 C2083 1.369 . S
C2082 C2086 1.531 . S
C2083 C2082 1.369 . S
C2083 C2084 1.410 . S
C2083 C2091 1.503 . S
C2084 C2083 1.410 . S
C2084 C2085 1.392 . S
C2084 C2087 1.511 . S
C2085 C2081 1.376 . S
C2085 C2084 1.392 . S
C2085 H2097 0.929 . S
C2086 C2082 1.531 . S
C2086 H2098 0.960 . S
C2086 H2099 0.962 . S
C2086 H2100 0.960 . S
C2087 C2084 1.511 . S
C2087 H2101 0.961 . S
C2087 H2102 0.961 . S
C2087 H2103 0.961 . S
C2088 C2089 1.370 . S
C2088 C2090 1.363 . S
C2088 H2104 0.931 . S
C2089 C2088 1.370 . S
C2089 C2093 1.408 . S
C2090 C2088 1.363 . S
C2090 C2091 1.370 . S
C2090 C2094 1.524 . S
C2091 C2083 1.503 . S
C2091 C2090 1.370 . S
C2091 C2092 1.403 . S
C2092 C2091 1.403 . S
C2092 C2093 1.404 . S
C2092 C2095 1.539 . S
C2093 C2089 1.408 . S
C2093 C2092 1.404 . S
C2093 H2105 0.930 . S
C2094 C2090 1.524 . S
C2094 H2106 0.956 . S
C2094 H2107 0.961 . S
C2094 H2108 0.961 . S
C2095 C2092 1.539 . S
C2095 H2109 0.958 . S
C2095 H2110 0.961 . S
C2095 H2111 0.960 . S
H2096 C2080 0.931 . S
H2097 C2085 0.929 . S
H2098 C2086 0.960 . S
H2099 C2086 0.962 . S
H2100 C2086 0.960 . S
H2101 C2087 0.961 . S
H2102 C2087 0.961 . S
H2103 C2087 0.961 . S
H2104 C2088 0.931 . S
H2105 C2093 0.930 . S
H2106 C2094 0.956 . S
H2107 C2094 0.961 . S
H2108 C2094 0.961 . S
H2109 C2095 0.958 . S
H2110 C2095 0.961 . S
H2111 C2095 0.960 . S
C2112 C2113 1.391 . S
C2112 C2114 1.394 . S
C2112 H2128 0.931 . S
C2113 C2112 1.391 . S
C2113 C2117 1.376 . S
C2114 C2112 1.394 . S
C2114 C2115 1.369 . S
C2114 C2118 1.531 . S
C2115 C2114 1.369 . S
C2115 C2116 1.410 . S
C2115 C2123 1.503 . S
C2116 C2115 1.410 . S
C2116 C2117 1.392 . S
C2116 C2119 1.511 . S
C2117 C2113 1.376 . S
C2117 C2116 1.392 . S
C2117 H2129 0.929 . S
C2118 C2114 1.531 . S
C2118 H2130 0.960 . S
C2118 H2131 0.962 . S
C2118 H2132 0.960 . S
C2119 C2116 1.511 . S
C2119 H2133 0.961 . S
C2119 H2134 0.961 . S
C2119 H2135 0.961 . S
C2120 C2121 1.370 . S
C2120 C2122 1.363 . S
C2120 H2136 0.931 . S
C2121 C2120 1.370 . S
C2121 C2125 1.408 . S
C2122 C2120 1.363 . S
C2122 C2123 1.370 . S
C2122 C2126 1.524 . S
C2123 C2115 1.503 . S
C2123 C2122 1.370 . S
C2123 C2124 1.403 . S
C2124 C2123 1.403 . S
C2124 C2125 1.404 . S
C2124 C2127 1.539 . S
C2125 C2121 1.408 . S
C2125 C2124 1.404 . S
C2125 H2137 0.930 . S
C2126 C2122 1.524 . S
C2126 H2138 0.956 . S
C2126 H2139 0.961 . S
C2126 H2140 0.961 . S
C2127 C2124 1.539 . S
C2127 H2141 0.958 . S
C2127 H2142 0.961 . S
C2127 H2143 0.960 . S
H2128 C2112 0.931 . S
H2129 C2117 0.929 . S
H2130 C2118 0.960 . S
H2131 C2118 0.962 . S
H2132 C2118 0.960 . S
H2133 C2119 0.961 . S
H2134 C2119 0.961 . S
H2135 C2119 0.961 . S
H2136 C2120 0.931 . S
H2137 C2125 0.930 . S
H2138 C2126 0.956 . S
H2139 C2126 0.961 . S
H2140 C2126 0.961 . S
H2141 C2127 0.958 . S
H2142 C2127 0.961 . S
H2143 C2127 0.960 . S
C2144 C2145 1.391 . S
C2144 C2146 1.394 . S
C2144 H2160 0.931 . S
C2145 C2144 1.391 . S
C2145 C2149 1.376 . S
C2146 C2144 1.394 . S
C2146 C2147 1.369 . S
C2146 C2150 1.531 . S
C2147 C2146 1.369 . S
C2147 C2148 1.410 . S
C2147 C2155 1.503 . S
C2148 C2147 1.410 . S
C2148 C2149 1.392 . S
C2148 C2151 1.511 . S
C2149 C2145 1.376 . S
C2149 C2148 1.392 . S
C2149 H2161 0.929 . S
C2150 C2146 1.531 . S
C2150 H2162 0.960 . S
C2150 H2163 0.962 . S
C2150 H2164 0.960 . S
C2151 C2148 1.511 . S
C2151 H2165 0.961 . S
C2151 H2166 0.961 . S
C2151 H2167 0.961 . S
C2152 C2153 1.370 . S
C2152 C2154 1.363 . S
C2152 H2168 0.931 . S
C2153 C2152 1.370 . S
C2153 C2157 1.408 . S
C2154 C2152 1.363 . S
C2154 C2155 1.370 . S
C2154 C2158 1.524 . S
C2155 C2147 1.503 . S
C2155 C2154 1.370 . S
C2155 C2156 1.403 . S
C2156 C2155 1.403 . S
C2156 C2157 1.404 . S
C2156 C2159 1.539 . S
C2157 C2153 1.408 . S
C2157 C2156 1.404 . S
C2157 H2169 0.930 . S
C2158 C2154 1.524 . S
C2158 H2170 0.956 . S
C2158 H2171 0.961 . S
C2158 H2172 0.961 . S
C2159 C2156 1.539 . S
C2159 H2173 0.958 . S
C2159 H2174 0.961 . S
C2159 H2175 0.960 . S
H2160 C2144 0.931 . S
H2161 C2149 0.929 . S
H2162 C2150 0.960 . S
H2163 C2150 0.962 . S
H2164 C2150 0.960 . S
H2165 C2151 0.961 . S
H2166 C2151 0.961 . S
H2167 C2151 0.961 . S
H2168 C2152 0.931 . S
H2169 C2157 0.930 . S
H2170 C2158 0.956 . S
H2171 C2158 0.961 . S
H2172 C2158 0.961 . S
H2173 C2159 0.958 . S
H2174 C2159 0.961 . S
H2175 C2159 0.960 . S
C2176 C2177 1.391 . S
C2176 C2178 1.394 . S
C2176 H2192 0.931 . S
C2177 C2176 1.391 . S
C2177 C2181 1.376 . S
C2178 C2176 1.394 . S
C2178 C2179 1.369 . S
C2178 C2182 1.531 . S
C2179 C2178 1.369 . S
C2179 C2180 1.410 . S
C2179 C2187 1.503 . S
C2180 C2179 1.410 . S
C2180 C2181 1.392 . S
C2180 C2183 1.511 . S
C2181 C2177 1.376 . S
C2181 C2180 1.392 . S
C2181 H2193 0.929 . S
C2182 C2178 1.531 . S
C2182 H2194 0.960 . S
C2182 H2195 0.962 . S
C2182 H2196 0.960 . S
C2183 C2180 1.511 . S
C2183 H2197 0.961 . S
C2183 H2198 0.961 . S
C2183 H2199 0.961 . S
C2184 C2185 1.370 . S
C2184 C2186 1.363 . S
C2184 H2200 0.931 . S
C2185 C2184 1.370 . S
C2185 C2189 1.408 . S
C2186 C2184 1.363 . S
C2186 C2187 1.370 . S
C2186 C2190 1.524 . S
C2187 C2179 1.503 . S
C2187 C2186 1.370 . S
C2187 C2188 1.403 . S
C2188 C2187 1.403 . S
C2188 C2189 1.404 . S
C2188 C2191 1.539 . S
C2189 C2185 1.408 . S
C2189 C2188 1.404 . S
C2189 H2201 0.930 . S
C2190 C2186 1.524 . S
C2190 H2202 0.956 . S
C2190 H2203 0.961 . S
C2190 H2204 0.961 . S
C2191 C2188 1.539 . S
C2191 H2205 0.958 . S
C2191 H2206 0.961 . S
C2191 H2207 0.960 . S
H2192 C2176 0.931 . S
H2193 C2181 0.929 . S
H2194 C2182 0.960 . S
H2195 C2182 0.962 . S
H2196 C2182 0.960 . S
H2197 C2183 0.961 . S
H2198 C2183 0.961 . S
H2199 C2183 0.961 . S
H2200 C2184 0.931 . S
H2201 C2189 0.930 . S
H2202 C2190 0.956 . S
H2203 C2190 0.961 . S
H2204 C2190 0.961 . S
H2205 C2191 0.958 . S
H2206 C2191 0.961 . S
H2207 C2191 0.960 . S
C2208 C2209 1.391 . S
C2208 C2210 1.394 . S
C2208 H2224 0.931 . S
C2209 C2208 1.391 . S
C2209 C2213 1.376 . S
C2210 C2208 1.394 . S
C2210 C2211 1.369 . S
C2210 C2214 1.531 . S
C2211 C2210 1.369 . S
C2211 C2212 1.410 . S
C2211 C2219 1.503 . S
C2212 C2211 1.410 . S
C2212 C2213 1.392 . S
C2212 C2215 1.511 . S
C2213 C2209 1.376 . S
C2213 C2212 1.392 . S
C2213 H2225 0.929 . S
C2214 C2210 1.531 . S
C2214 H2226 0.960 . S
C2214 H2227 0.962 . S
C2214 H2228 0.960 . S
C2215 C2212 1.511 . S
C2215 H2229 0.961 . S
C2215 H2230 0.961 . S
C2215 H2231 0.961 . S
C2216 C2217 1.370 . S
C2216 C2218 1.363 . S
C2216 H2232 0.931 . S
C2217 C2216 1.370 . S
C2217 C2221 1.408 . S
C2218 C2216 1.363 . S
C2218 C2219 1.370 . S
C2218 C2222 1.524 . S
C2219 C2211 1.503 . S
C2219 C2218 1.370 . S
C2219 C2220 1.403 . S
C2220 C2219 1.403 . S
C2220 C2221 1.404 . S
C2220 C2223 1.539 . S
C2221 C2217 1.408 . S
C2221 C2220 1.404 . S
C2221 H2233 0.930 . S
C2222 C2218 1.524 . S
C2222 H2234 0.956 . S
C2222 H2235 0.961 . S
C2222 H2236 0.961 . S
C2223 C2220 1.539 . S
C2223 H2237 0.958 . S
C2223 H2238 0.961 . S
C2223 H2239 0.960 . S
H2224 C2208 0.931 . S
H2225 C2213 0.929 . S
H2226 C2214 0.960 . S
H2227 C2214 0.962 . S
H2228 C2214 0.960 . S
H2229 C2215 0.961 . S
H2230 C2215 0.961 . S
H2231 C2215 0.961 . S
H2232 C2216 0.931 . S
H2233 C2221 0.930 . S
H2234 C2222 0.956 . S
H2235 C2222 0.961 . S
H2236 C2222 0.961 . S
H2237 C2223 0.958 . S
H2238 C2223 0.961 . S
H2239 C2223 0.960 . S
C2240 C2241 1.391 . S
C2240 C2242 1.394 . S
C2240 H2256 0.931 . S
C2241 C2240 1.391 . S
C2241 C2245 1.376 . S
C2242 C2240 1.394 . S
C2242 C2243 1.369 . S
C2242 C2246 1.531 . S
C2243 C2242 1.369 . S
C2243 C2244 1.410 . S
C2243 C2251 1.503 . S
C2244 C2243 1.410 . S
C2244 C2245 1.392 . S
C2244 C2247 1.511 . S
C2245 C2241 1.376 . S
C2245 C2244 1.392 . S
C2245 H2257 0.929 . S
C2246 C2242 1.531 . S
C2246 H2258 0.960 . S
C2246 H2259 0.962 . S
C2246 H2260 0.960 . S
C2247 C2244 1.511 . S
C2247 H2261 0.961 . S
C2247 H2262 0.961 . S
C2247 H2263 0.961 . S
C2248 C2249 1.370 . S
C2248 C2250 1.363 . S
C2248 H2264 0.931 . S
C2249 C2248 1.370 . S
C2249 C2253 1.408 . S
C2250 C2248 1.363 . S
C2250 C2251 1.370 . S
C2250 C2254 1.524 . S
C2251 C2243 1.503 . S
C2251 C2250 1.370 . S
C2251 C2252 1.403 . S
C2252 C2251 1.403 . S
C2252 C2253 1.404 . S
C2252 C2255 1.539 . S
C2253 C2249 1.408 . S
C2253 C2252 1.404 . S
C2253 H2265 0.930 . S
C2254 C2250 1.524 . S
C2254 H2266 0.956 . S
C2254 H2267 0.961 . S
C2254 H2268 0.961 . S
C2255 C2252 1.539 . S
C2255 H2269 0.958 . S
C2255 H2270 0.961 . S
C2255 H2271 0.960 . S
H2256 C2240 0.931 . S
H2257 C2245 0.929 . S
H2258 C2246 0.960 . S
H2259 C2246 0.962 . S
H2260 C2246 0.960 . S
H2261 C2247 0.961 . S
H2262 C2247 0.961 . S
H2263 C2247 0.961 . S
H2264 C2248 0.931 . S
H2265 C2253 0.930 . S
H2266 C2254 0.956 . S
H2267 C2254 0.961 . S
H2268 C2254 0.961 . S
H2269 C2255 0.958 . S
H2270 C2255 0.961 . S
H2271 C2255 0.960 . S
C2272 C2273 1.391 . S
C2272 C2274 1.394 . S
C2272 H2288 0.931 . S
C2273 C2272 1.391 . S
C2273 C2277 1.376 . S
C2274 C2272 1.394 . S
C2274 C2275 1.369 . S
C2274 C2278 1.531 . S
C2275 C2274 1.369 . S
C2275 C2276 1.410 . S
C2275 C2283 1.503 . S
C2276 C2275 1.410 . S
C2276 C2277 1.392 . S
C2276 C2279 1.511 . S
C2277 C2273 1.376 . S
C2277 C2276 1.392 . S
C2277 H2289 0.929 . S
C2278 C2274 1.531 . S
C2278 H2290 0.960 . S
C2278 H2291 0.962 . S
C2278 H2292 0.960 . S
C2279 C2276 1.511 . S
C2279 H2293 0.961 . S
C2279 H2294 0.961 . S
C2279 H2295 0.961 . S
C2280 C2281 1.370 . S
C2280 C2282 1.363 . S
C2280 H2296 0.931 . S
C2281 C2280 1.370 . S
C2281 C2285 1.408 . S
C2282 C2280 1.363 . S
C2282 C2283 1.370 . S
C2282 C2286 1.524 . S
C2283 C2275 1.503 . S
C2283 C2282 1.370 . S
C2283 C2284 1.403 . S
C2284 C2283 1.403 . S
C2284 C2285 1.404 . S
C2284 C2287 1.539 . S
C2285 C2281 1.408 . S
C2285 C2284 1.404 . S
C2285 H2297 0.930 . S
C2286 C2282 1.524 . S
C2286 H2298 0.956 . S
C2286 H2299 0.961 . S
C2286 H2300 0.961 . S
C2287 C2284 1.539 . S
C2287 H2301 0.958 . S
C2287 H2302 0.961 . S
C2287 H2303 0.960 . S
H2288 C2272 0.931 . S
H2289 C2277 0.929 . S
H2290 C2278 0.960 . S
H2291 C2278 0.962 . S
H2292 C2278 0.960 . S
H2293 C2279 0.961 . S
H2294 C2279 0.961 . S
H2295 C2279 0.961 . S
H2296 C2280 0.931 . S
H2297 C2285 0.930 . S
H2298 C2286 0.956 . S
H2299 C2286 0.961 . S
H2300 C2286 0.961 . S
H2301 C2287 0.958 . S
H2302 C2287 0.961 . S
H2303 C2287 0.960 . S
C2304 C2305 1.391 . S
C2304 C2306 1.394 . S
C2304 H2320 0.931 . S
C2305 C2304 1.391 . S
C2305 C2309 1.376 . S
C2306 C2304 1.394 . S
C2306 C2307 1.369 . S
C2306 C2310 1.531 . S
C2307 C2306 1.369 . S
C2307 C2308 1.410 . S
C2307 C2315 1.503 . S
C2308 C2307 1.410 . S
C2308 C2309 1.392 . S
C2308 C2311 1.511 . S
C2309 C2305 1.376 . S
C2309 C2308 1.392 . S
C2309 H2321 0.929 . S
C2310 C2306 1.531 . S
C2310 H2322 0.960 . S
C2310 H2323 0.962 . S
C2310 H2324 0.960 . S
C2311 C2308 1.511 . S
C2311 H2325 0.961 . S
C2311 H2326 0.961 . S
C2311 H2327 0.961 . S
C2312 C2313 1.370 . S
C2312 C2314 1.363 . S
C2312 H2328 0.931 . S
C2313 C2312 1.370 . S
C2313 C2317 1.408 . S
C2314 C2312 1.363 . S
C2314 C2315 1.370 . S
C2314 C2318 1.524 . S
C2315 C2307 1.503 . S
C2315 C2314 1.370 . S
C2315 C2316 1.403 . S
C2316 C2315 1.403 . S
C2316 C2317 1.404 . S
C2316 C2319 1.539 . S
C2317 C2313 1.408 . S
C2317 C2316 1.404 . S
C2317 H2329 0.930 . S
C2318 C2314 1.524 . S
C2318 H2330 0.956 . S
C2318 H2331 0.961 . S
C2318 H2332 0.961 . S
C2319 C2316 1.539 . S
C2319 H2333 0.958 . S
C2319 H2334 0.961 . S
C2319 H2335 0.960 . S
H2320 C2304 0.931 . S
H2321 C2309 0.929 . S
H2322 C2310 0.960 . S
H2323 C2310 0.962 . S
H2324 C2310 0.960 . S
H2325 C2311 0.961 . S
H2326 C2311 0.961 . S
H2327 C2311 0.961 . S
H2328 C2312 0.931 . S
H2329 C2317 0.930 . S
H2330 C2318 0.956 . S
H2331 C2318 0.961 . S
H2332 C2318 0.961 . S
H2333 C2319 0.958 . S
H2334 C2319 0.961 . S
H2335 C2319 0.960 . S
C2336 C2337 1.391 . S
C2336 C2338 1.394 . S
C2336 H2352 0.931 . S
C2337 C2336 1.391 . S
C2337 C2341 1.376 . S
C2338 C2336 1.394 . S
C2338 C2339 1.369 . S
C2338 C2342 1.531 . S
C2339 C2338 1.369 . S
C2339 C2340 1.410 . S
C2339 C2347 1.503 . S
C2340 C2339 1.410 . S
C2340 C2341 1.392 . S
C2340 C2343 1.511 . S
C2341 C2337 1.376 . S
C2341 C2340 1.392 . S
C2341 H2353 0.929 . S
C2342 C2338 1.531 . S
C2342 H2354 0.960 . S
C2342 H2355 0.962 . S
C2342 H2356 0.960 . S
C2343 C2340 1.511 . S
C2343 H2357 0.961 . S
C2343 H2358 0.961 . S
C2343 H2359 0.961 . S
C2344 C2345 1.370 . S
C2344 C2346 1.363 . S
C2344 H2360 0.931 . S
C2345 C2344 1.370 . S
C2345 C2349 1.408 . S
C2346 C2344 1.363 . S
C2346 C2347 1.370 . S
C2346 C2350 1.524 . S
C2347 C2339 1.503 . S
C2347 C2346 1.370 . S
C2347 C2348 1.403 . S
C2348 C2347 1.403 . S
C2348 C2349 1.404 . S
C2348 C2351 1.539 . S
C2349 C2345 1.408 . S
C2349 C2348 1.404 . S
C2349 H2361 0.930 . S
C2350 C2346 1.524 . S
C2350 H2362 0.956 . S
C2350 H2363 0.961 . S
C2350 H2364 0.961 . S
C2351 C2348 1.539 . S
C2351 H2365 0.958 . S
C2351 H2366 0.961 . S
C2351 H2367 0.960 . S
H2352 C2336 0.931 . S
H2353 C2341 0.929 . S
H2354 C2342 0.960 . S
H2355 C2342 0.962 . S
H2356 C2342 0.960 . S
H2357 C2343 0.961 . S
H2358 C2343 0.961 . S
H2359 C2343 0.961 . S
H2360 C2344 0.931 . S
H2361 C2349 0.930 . S
H2362 C2350 0.956 . S
H2363 C2350 0.961 . S
H2364 C2350 0.961 . S
H2365 C2351 0.958 . S
H2366 C2351 0.961 . S
H2367 C2351 0.960 . S
C2368 C2369 1.391 . S
C2368 C2370 1.394 . S
C2368 H2384 0.931 . S
C2369 C2368 1.391 . S
C2369 C2373 1.376 . S
C2370 C2368 1.394 . S
C2370 C2371 1.369 . S
C2370 C2374 1.531 . S
C2371 C2370 1.369 . S
C2371 C2372 1.410 . S
C2371 C2379 1.503 . S
C2372 C2371 1.410 . S
C2372 C2373 1.392 . S
C2372 C2375 1.511 . S
C2373 C2369 1.376 . S
C2373 C2372 1.392 . S
C2373 H2385 0.929 . S
C2374 C2370 1.531 . S
C2374 H2386 0.960 . S
C2374 H2387 0.962 . S
C2374 H2388 0.960 . S
C2375 C2372 1.511 . S
C2375 H2389 0.961 . S
C2375 H2390 0.961 . S
C2375 H2391 0.961 . S
C2376 C2377 1.370 . S
C2376 C2378 1.363 . S
C2376 H2392 0.931 . S
C2377 C2376 1.370 . S
C2377 C2381 1.408 . S
C2378 C2376 1.363 . S
C2378 C2379 1.370 . S
C2378 C2382 1.524 . S
C2379 C2371 1.503 . S
C2379 C2378 1.370 . S
C2379 C2380 1.403 . S
C2380 C2379 1.403 . S
C2380 C2381 1.404 . S
C2380 C2383 1.539 . S
C2381 C2377 1.408 . S
C2381 C2380 1.404 . S
C2381 H2393 0.930 . S
C2382 C2378 1.524 . S
C2382 H2394 0.956 . S
C2382 H2395 0.961 . S
C2382 H2396 0.961 . S
C2383 C2380 1.539 . S
C2383 H2397 0.958 . S
C2383 H2398 0.961 . S
C2383 H2399 0.960 . S
H2384 C2368 0.931 . S
H2385 C2373 0.929 . S
H2386 C2374 0.960 . S
H2387 C2374 0.962 . S
H2388 C2374 0.960 . S
H2389 C2375 0.961 . S
H2390 C2375 0.961 . S
H2391 C2375 0.961 . S
H2392 C2376 0.931 . S
H2393 C2381 0.930 . S
H2394 C2382 0.956 . S
H2395 C2382 0.961 . S
H2396 C2382 0.961 . S
H2397 C2383 0.958 . S
H2398 C2383 0.961 . S
H2399 C2383 0.960 . S
C2400 C2401 1.391 . S
C2400 C2402 1.394 . S
C2400 H2416 0.931 . S
C2401 C2400 1.391 . S
C2401 C2405 1.376 . S
C2402 C2400 1.394 . S
C2402 C2403 1.369 . S
C2402 C2406 1.531 . S
C2403 C2402 1.369 . S
C2403 C2404 1.410 . S
C2403 C2411 1.503 . S
C2404 C2403 1.410 . S
C2404 C2405 1.392 . S
C2404 C2407 1.511 . S
C2405 C2401 1.376 . S
C2405 C2404 1.392 . S
C2405 H2417 0.929 . S
C2406 C2402 1.531 . S
C2406 H2418 0.960 . S
C2406 H2419 0.962 . S
C2406 H2420 0.960 . S
C2407 C2404 1.511 . S
C2407 H2421 0.961 . S
C2407 H2422 0.961 . S
C2407 H2423 0.961 . S
C2408 C2409 1.370 . S
C2408 C2410 1.363 . S
C2408 H2424 0.931 . S
C2409 C2408 1.370 . S
C2409 C2413 1.408 . S
C2410 C2408 1.363 . S
C2410 C2411 1.370 . S
C2410 C2414 1.524 . S
C2411 C2403 1.503 . S
C2411 C2410 1.370 . S
C2411 C2412 1.403 . S
C2412 C2411 1.403 . S
C2412 C2413 1.404 . S
C2412 C2415 1.539 . S
C2413 C2409 1.408 . S
C2413 C2412 1.404 . S
C2413 H2425 0.930 . S
C2414 C2410 1.524 . S
C2414 H2426 0.956 . S
C2414 H2427 0.961 . S
C2414 H2428 0.961 . S
C2415 C2412 1.539 . S
C2415 H2429 0.958 . S
C2415 H2430 0.961 . S
C2415 H2431 0.960 . S
H2416 C2400 0.931 . S
H2417 C2405 0.929 . S
H2418 C2406 0.960 . S
H2419 C2406 0.962 . S
H2420 C2406 0.960 . S
H2421 C2407 0.961 . S
H2422 C2407 0.961 . S
H2423 C2407 0.961 . S
H2424 C2408 0.931 . S
H2425 C2413 0.930 . S
H2426 C2414 0.956 . S
H2427 C2414 0.961 . S
H2428 C2414 0.961 . S
H2429 C2415 0.958 . S
H2430 C2415 0.961 . S
H2431 C2415 0.960 . S
C2432 C2433 1.391 . S
C2432 C2434 1.394 . S
C2432 H2448 0.931 . S
C2433 C2432 1.391 . S
C2433 C2437 1.376 . S
C2434 C2432 1.394 . S
C2434 C2435 1.369 . S
C2434 C2438 1.531 . S
C2435 C2434 1.369 . S
C2435 C2436 1.410 . S
C2435 C2443 1.503 . S
C2436 C2435 1.410 . S
C2436 C2437 1.392 . S
C2436 C2439 1.511 . S
C2437 C2433 1.376 . S
C2437 C2436 1.392 . S
C2437 H2449 0.929 . S
C2438 C2434 1.531 . S
C2438 H2450 0.960 . S
C2438 H2451 0.962 . S
C2438 H2452 0.960 . S
C2439 C2436 1.511 . S
C2439 H2453 0.961 . S
C2439 H2454 0.961 . S
C2439 H2455 0.961 . S
C2440 C2441 1.370 . S
C2440 C2442 1.363 . S
C2440 H2456 0.931 . S
C2441 C2440 1.370 . S
C2441 C2445 1.408 . S
C2442 C2440 1.363 . S
C2442 C2443 1.370 . S
C2442 C2446 1.524 . S
C2443 C2435 1.503 . S
C2443 C2442 1.370 . S
C2443 C2444 1.403 . S
C2444 C2443 1.403 . S
C2444 C2445 1.404 . S
C2444 C2447 1.539 . S
C2445 C2441 1.408 . S
C2445 C2444 1.404 . S
C2445 H2457 0.930 . S
C2446 C2442 1.524 . S
C2446 H2458 0.956 . S
C2446 H2459 0.961 . S
C2446 H2460 0.961 . S
C2447 C2444 1.539 . S
C2447 H2461 0.958 . S
C2447 H2462 0.961 . S
C2447 H2463 0.960 . S
H2448 C2432 0.931 . S
H2449 C2437 0.929 . S
H2450 C2438 0.960 . S
H2451 C2438 0.962 . S
H2452 C2438 0.960 . S
H2453 C2439 0.961 . S
H2454 C2439 0.961 . S
H2455 C2439 0.961 . S
H2456 C2440 0.931 . S
H2457 C2445 0.930 . S
H2458 C2446 0.956 . S
H2459 C2446 0.961 . S
H2460 C2446 0.961 . S
H2461 C2447 0.958 . S
H2462 C2447 0.961 . S
H2463 C2447 0.960 . S
C417 C199 1.542 . S
C425 C4 1.548 . S
C449 C23 1.552 . S
C457 C166 1.553 . S
C481 C30 1.552 . S
C489 C173 1.553 . S
C513 C192 1.550 . S
C521 C43 1.552 . S
C545 C62 1.542 . S
C553 C127 1.549 . S
C577 C69 1.542 . S
C585 C140 1.549 . S
C609 C147 1.551 . S
C617 C88 1.552 . S
C641 C114 1.552 . S
C649 C95 1.553 . S
C673 C212 1.548 . S
C681 C407 1.551 . S
C705 C225 1.541 . S
C713 C374 1.549 . S
C737 C238 1.550 . S
C745 C381 1.552 . S
C769 C394 1.552 . S
C777 C251 1.553 . S
C801 C264 1.548 . S
C809 C329 1.551 . S
C833 C283 1.544 . S
C841 C342 1.549 . S
C865 C355 1.551 . S
C873 C290 1.552 . S
C897 C303 1.544 . S
C905 C316 1.549 . S
C929 C159 1.471 . S
C937 C5 1.472 . S
C961 C16 1.470 . S
C969 C174 1.472 . S
C993 C185 1.469 . S
C1001 C31 1.472 . S
C1025 C44 1.463 . S
C1033 C200 1.469 . S
C1057 C55 1.465 . S
C1065 C107 1.470 . S
C1089 C120 1.466 . S
C1097 C70 1.471 . S
C1121 C133 1.466 . S
C1129 C81 1.470 . S
C1153 C148 1.468 . S
C1161 C96 1.472 . S
C1185 C213 1.468 . S
C1193 C367 1.471 . S
C1217 C382 1.470 . S
C1225 C226 1.472 . S
C1249 C239 1.470 . S
C1257 C395 1.472 . S
C1281 C252 1.471 . S
C1289 C408 1.472 . S
C1313 C317 1.465 . S
C1321 C265 1.470 . S
C1345 C276 1.463 . S
C1353 C330 1.469 . S
C1377 C291 1.463 . S
C1385 C343 1.469 . S
C1409 C304 1.470 . S
C1417 C356 1.472 . S
C1441 C3 1.421 . S
C1449 C135 1.432 . S
C1473 C146 1.445 . S
C1481 C18 1.443 . S
C1505 C29 1.447 . S
C1513 C109 1.443 . S
C1537 C122 1.425 . S
C1545 C42 1.433 . S
C1569 C187 1.424 . S
C1577 C57 1.434 . S
C1601 C198 1.445 . S
C1609 C68 1.442 . S
C1633 C161 1.423 . S
C1641 C83 1.434 . S
C1665 C94 1.424 . S
C1673 C172 1.433 . S
C1697 C341 1.444 . S
C1705 C211 1.441 . S
C1729 C224 1.435 . S
C1737 C354 1.439 . S
C1761 C315 1.433 . S
C1769 C237 1.438 . S
C1793 C328 1.423 . S
C1801 C250 1.434 . S
C1825 C263 1.442 . S
C1833 C393 1.440 . S
C1857 C278 1.426 . S
C1865 C406 1.434 . S
C1889 C369 1.422 . S
C1897 C289 1.433 . S
C1921 C380 1.423 . S
C1929 C302 1.433 . S
C1953 C309 1.339 . S
C1961 C10 1.342 . S
C1985 C270 1.341 . S
C1993 C17 1.335 . S
C2017 C277 1.343 . S
C2025 C36 1.341 . S
C2049 C296 1.345 . S
C2057 C49 1.338 . S
C2081 C231 1.345 . S
C2089 C56 1.340 . S
C2113 C75 1.341 . S
C2121 C244 1.342 . S
C2145 C82 1.336 . S
C2153 C257 1.342 . S
C2177 C101 1.328 . S
C2185 C218 1.333 . S
C2209 C108 1.344 . S
C2217 C413 1.342 . S
C2241 C368 1.323 . S
C2249 C121 1.335 . S
C2273 C134 1.323 . S
C2281 C387 1.336 . S
C2305 C153 1.324 . S
C2313 C400 1.337 . S
C2337 C335 1.342 . S
C2345 C160 1.337 . S
C2369 C348 1.331 . S
C2377 C179 1.333 . S
C2401 C186 1.345 . S
C2409 C361 1.340 . S
C2433 C205 1.330 . S
C2441 C322 1.340 . S
