# Generated by pormake.
# Topology ukg, (4)-cn, num edge types: 1
# Building blocks:
#     Node 0, Type 0, BuildingBlock: QUQFOY_clean_sbu_3, # of connection points: 4
#     Node 1, Type 0, BuildingBlock: QUQFOY_clean_sbu_3, # of connection points: 4
#     Node 2, Type 0, BuildingBlock: QUQFOY_clean_sbu_3, # of connection points: 4
#     Node 3, Type 0, BuildingBlock: QUQFOY_clean_sbu_3, # of connection points: 4
#     Node 4, Type 0, BuildingBlock: QUQFOY_clean_sbu_3, # of connection points: 4
#     Node 5, Type 0, BuildingBlock: QUQFOY_clean_sbu_3, # of connection points: 4
#     Node 6, Type 0, BuildingBlock: QUQFOY_clean_sbu_3, # of connection points: 4
#     Node 7, Type 0, BuildingBlock: QUQFOY_clean_sbu_3, # of connection points: 4
#     Edge 8, Type (0, 0), BuildingBlock: XIVTED_clean_linker_0, # of connection points: 2
#     Edge 9, Type (0, 0), BuildingBlock: XIVTED_clean_linker_0, # of connection points: 2
#     Edge 10, Type (0, 0), BuildingBlock: XIVTED_clean_linker_0, # of connection points: 2
#     Edge 11, Type (0, 0), BuildingBlock: XIVTED_clean_linker_0, # of connection points: 2
#     Edge 12, Type (0, 0), BuildingBlock: XIVTED_clean_linker_0, # of connection points: 2
#     Edge 13, Type (0, 0), BuildingBlock: XIVTED_clean_linker_0, # of connection points: 2
#     Edge 14, Type (0, 0), BuildingBlock: XIVTED_clean_linker_0, # of connection points: 2
#     Edge 15, Type (0, 0), BuildingBlock: XIVTED_clean_linker_0, # of connection points: 2
#     Edge 16, Type (0, 0), BuildingBlock: XIVTED_clean_linker_0, # of connection points: 2
#     Edge 17, Type (0, 0), BuildingBlock: XIVTED_clean_linker_0, # of connection points: 2
#     Edge 18, Type (0, 0), BuildingBlock: XIVTED_clean_linker_0, # of connection points: 2
#     Edge 19, Type (0, 0), BuildingBlock: XIVTED_clean_linker_0, # of connection points: 2
#     Edge 20, Type (0, 0), BuildingBlock: XIVTED_clean_linker_0, # of connection points: 2
#     Edge 21, Type (0, 0), BuildingBlock: XIVTED_clean_linker_0, # of connection points: 2
#     Edge 22, Type (0, 0), BuildingBlock: XIVTED_clean_linker_0, # of connection points: 2
#     Edge 23, Type (0, 0), BuildingBlock: XIVTED_clean_linker_0, # of connection points: 2
# Relax obj value: 0.114
# Max RMSD: 0.203
# Mean RMSD: 0.200
data_MOF--net-ukg--node1-QUQFOY_clean_sbu_3--edge1-XIVTED_clean_linker_0
_symmetry_space_group_name_H-M    P1
_symmetry_Int_Tables_number       1
_symmetry_cell_setting            triclinic
loop_
_symmetry_equiv_pos_as_xyz
'x, y, z'
_cell_length_a     32.124744
_cell_length_b     32.172398
_cell_length_c     40.886348
_cell_angle_alpha  90.012874
_cell_angle_beta   89.990531
_cell_angle_gamma 89.893743
loop_
_atom_site_label
_atom_site_type_symbol
_atom_site_fract_x
_atom_site_fract_y
_atom_site_fract_z
_atom_type_partial_charge
C0 C 0.08489 0.64099 0.17256 0.0
O1 O 0.07253 0.62842 0.20033 0.0
Cd2 Cd 0.00015 0.62692 0.21278 0.0
O3 O 0.05939 0.64376 0.14875 0.0
Cd4 Cd -0.01463 0.62605 0.13582 0.0
C5 C -0.02571 0.71852 0.17093 0.0
O6 O 0.96287 0.57947 0.17976 0.0
O7 O 0.91504 0.61685 0.15692 0.0
O8 O 0.00697 0.57084 0.09886 0.0
C9 C 0.92451 0.58868 0.17733 0.0
O10 O -0.01834 0.69748 0.19671 0.0
C11 C -0.01309 0.58367 0.07408 0.0
O12 O -0.02647 0.70119 0.14285 0.0
O13 O 0.96672 0.61752 0.07746 0.0
C14 C 0.29454 0.58447 0.67068 0.0
O15 O 0.30751 0.57176 0.69825 0.0
Cd16 Cd 0.30881 0.49942 0.71035 0.0
O17 O 0.29123 0.55927 0.64674 0.0
Cd18 Cd 0.30853 0.48534 0.63313 0.0
C19 C 0.21641 0.47463 0.66903 0.0
O20 O 0.35567 0.4624 0.67656 0.0
O21 O 0.31817 0.41483 0.65371 0.0
O22 O 0.36343 0.5074 0.59614 0.0
C23 C 0.34652 0.42413 0.67403 0.0
O24 O 0.23791 0.48168 0.69464 0.0
C25 C 0.3506 0.48762 0.57125 0.0
O26 O 0.23331 0.47389 0.64077 0.0
O27 O 0.31682 0.46736 0.57456 0.0
C28 C 0.35403 0.79641 0.16862 0.0
O29 O 0.36655 0.80956 0.19618 0.0
Cd30 Cd 0.439 0.81018 0.20834 0.0
O31 O 0.37942 0.79302 0.14477 0.0
Cd32 Cd 0.45337 0.81018 0.13112 0.0
C33 C 0.46293 0.71785 0.16661 0.0
O34 O 0.47684 0.85658 0.17481 0.0
O35 O 0.52405 0.81874 0.15161 0.0
O36 O 0.43145 0.86545 0.09441 0.0
C37 C 0.51506 0.84691 0.17218 0.0
O38 O 0.4558 0.73921 0.19228 0.0
C39 C 0.45112 0.8526 0.06943 0.0
O40 O 0.4643 0.73491 0.13844 0.0
O41 O 0.47124 0.81867 0.07259 0.0
C42 C 0.14082 0.85498 0.67041 0.0
O43 O 0.12857 0.86743 0.69826 0.0
Cd44 Cd 0.1268 0.9397 0.71067 0.0
O45 O 0.14322 0.88033 0.64651 0.0
Cd46 Cd 0.12536 0.95427 0.6335 0.0
C47 C 0.21819 0.96514 0.66827 0.0
O48 O 0.07898 -0.02335 0.67765 0.0
O49 O 0.11581 0.02456 0.65458 0.0
O50 O 0.06996 0.93257 0.5968 0.0
C51 C 0.08789 0.01498 0.67519 0.0
O52 O 0.19729 0.95788 0.69415 0.0
C53 C 0.08259 0.95252 0.57193 0.0
O54 O 0.20066 0.96595 0.64025 0.0
O55 O 0.11642 -0.02728 0.57515 0.0
C56 C 0.94645 0.37745 0.74899 0.0
O57 O 0.91833 0.35666 0.73453 0.0
Cd58 Cd 0.87296 0.30817 0.76293 0.0
O59 O 0.95186 0.37414 0.77972 0.0
Cd60 Cd 0.92719 0.33892 0.82928 0.0
C61 C 0.95322 0.24698 0.79262 0.0
O62 O 0.8542 0.33408 0.81522 0.0
O63 O 0.87397 0.2991 0.85754 0.0
O64 O 0.92814 0.4059 0.8569 0.0
C65 C 0.84495 0.30881 0.83795 0.0
O66 O 0.92072 0.25208 0.77521 0.0
C67 C 0.9514 0.39484 0.88047 0.0
O68 O 0.9658 0.27497 0.81256 0.0
O69 O 0.96453 0.35745 0.88009 0.0
C70 C 0.56119 0.44871 0.24677 0.0
O71 O 0.58194 0.4202 0.23267 0.0
Cd72 Cd 0.62965 0.37452 0.2617 0.0
O73 O 0.56392 0.45418 0.27754 0.0
Cd74 Cd 0.59775 0.429 0.3276 0.0
C75 C 0.69073 0.45416 0.2922 0.0
O76 O 0.60252 0.35605 0.31363 0.0
O77 O 0.63691 0.37561 0.3563 0.0
O78 O 0.53016 0.43036 0.35448 0.0
C79 C 0.62737 0.34665 0.33665 0.0
O80 O 0.68581 0.42176 0.27469 0.0
C81 C 0.54092 0.45345 0.3782 0.0
O82 O 0.66237 0.46694 0.3118 0.0
O83 O 0.57839 0.46635 0.37822 0.0
C84 C 0.48962 0.06117 0.74518 0.0
O85 O 0.51762 0.08214 0.73074 0.0
Cd86 Cd 0.56294 0.13044 0.75939 0.0
O87 O 0.48432 0.06425 0.77594 0.0
Cd88 Cd 0.50905 0.09916 0.82559 0.0
C89 C 0.4826 0.19123 0.78943 0.0
O90 O 0.58207 0.10425 0.81154 0.0
O91 O 0.56206 0.13917 0.85386 0.0
O92 O 0.50844 0.03197 0.85288 0.0
C93 C 0.59119 0.12951 0.83432 0.0
O94 O 0.51511 0.18637 0.77197 0.0
C95 C 0.48518 0.04275 0.87654 0.0
O96 O 0.47013 0.16306 0.80923 0.0
O97 O 0.4719 0.08009 0.87637 0.0
C98 C 0.87587 -0.01023 0.2472 0.0
O99 O 0.85512 0.01773 0.23245 0.0
Cd100 Cd 0.80641 0.06344 0.26051 0.0
O101 O 0.87232 -0.01526 0.27795 0.0
Cd102 Cd 0.83674 0.00998 0.32717 0.0
C103 C 0.74492 -0.01611 0.29046 0.0
O104 O 0.83194 0.08281 0.31279 0.0
O105 O 0.79638 0.06328 0.3549 0.0
O106 O 0.90374 0.00936 0.35483 0.0
C107 C 0.80636 0.09218 0.33533 0.0
O108 O 0.75007 0.0162 0.27291 0.0
C109 C 0.89275 -0.01362 0.37855 0.0
O110 O 0.77288 -0.02866 0.31048 0.0
O111 O 0.85536 -0.02675 0.37827 0.0
H112 H -0.00053 0.38081 0.935 0.0
H113 H 0.94508 0.60095 0.01698 0.0
H114 H 0.92502 0.47518 0.8879 0.0
H115 H 0.02521 0.50934 0.06164 0.0
H116 H 0.93955 0.55653 0.96852 0.0
H117 H 0.01142 0.42847 -0.01925 0.0
C118 C -0.01416 0.41161 0.93418 0.0
C119 C 0.96109 0.42392 0.90759 0.0
C120 C 0.95855 0.54626 -0.01115 0.0
C121 C -0.02554 0.47865 0.95999 0.0
C122 C 0.96176 0.57167 0.01651 0.0
C123 C -0.01447 0.55884 0.04349 0.0
C124 C -0.02088 0.50762 -0.01184 0.0
C125 C 0.00644 0.52051 0.04148 0.0
C126 C -0.00735 0.43883 0.96032 0.0
C127 C 0.94424 0.46427 0.90788 0.0
N128 N 0.00257 0.49622 0.01443 0.0
N129 N 0.95105 0.49005 0.93369 0.0
H130 H 0.3337 0.44607 0.51395 0.0
H131 H 0.55419 0.50139 0.43286 0.0
H132 H 0.42461 0.52643 0.55895 0.0
H133 H 0.46043 0.42713 0.38507 0.0
H134 H 0.50604 0.51313 0.47837 0.0
H135 H 0.37836 0.44099 0.46552 0.0
C136 C 0.36286 0.4629 0.51356 0.0
C137 C 0.37544 0.48658 0.54063 0.0
C138 C 0.4959 0.49445 0.45784 0.0
C139 C 0.42693 0.48069 0.48536 0.0
C140 C 0.52342 0.48776 0.43183 0.0
C141 C 0.51144 0.46312 0.40512 0.0
C142 C 0.45613 0.47623 0.45727 0.0
C143 C 0.4711 0.44627 0.40515 0.0
C144 C 0.38841 0.45995 0.48592 0.0
C145 C 0.41363 0.50771 0.53872 0.0
N146 N 0.44503 0.45295 0.43085 0.0
N147 N 0.43805 0.50407 0.51171 0.0
H148 H 0.49252 0.83562 0.01204 0.0
H149 H 0.43713 0.05614 0.93119 0.0
H150 H 0.41252 0.92685 0.05738 0.0
H151 H 0.51188 0.96244 0.88352 0.0
H152 H 0.42544 0.0081 0.97671 0.0
H153 H 0.49763 0.88031 0.96371 0.0
C154 C 0.47577 0.86487 0.01175 0.0
C155 C 0.45218 0.87752 0.03889 0.0
C156 C 0.44423 -0.00204 0.95621 0.0
C157 C 0.45811 0.92905 -0.01629 0.0
C158 C 0.45089 0.02541 0.93019 0.0
C159 C 0.47564 0.01341 0.90352 0.0
C160 C 0.46258 0.95822 0.95565 0.0
C161 C 0.49265 -0.02688 0.90358 0.0
C162 C 0.47874 0.89044 -0.01584 0.0
C163 C 0.43117 0.91582 0.0371 0.0
N164 N 0.48598 0.94711 0.92927 0.0
N165 N 0.43481 0.94025 0.01012 0.0
H166 H 0.87897 0.93895 0.43341 0.0
H167 H 0.09949 -0.00606 0.51463 0.0
H168 H -0.02688 0.0128 0.3857 0.0
H169 H 0.00823 0.91422 0.55988 0.0
H170 H 0.05479 -0.00089 0.46626 0.0
H171 H 0.92685 0.92745 0.47915 0.0
C172 C 0.90976 0.95255 0.43246 0.0
C173 C 0.92194 -0.02301 0.4057 0.0
C174 C 0.04466 -0.01972 0.4867 0.0
C175 C -0.02308 0.96414 0.45808 0.0
C176 C 0.07022 -0.02272 0.51431 0.0
C177 C 0.05758 0.95372 0.54142 0.0
C178 C 0.00605 0.95972 0.48621 0.0
C179 C 0.01926 0.93282 0.53961 0.0
C180 C 0.93711 0.946 0.45859 0.0
C181 C 0.96229 -0.00618 0.40583 0.0
N182 N -0.00518 0.93649 0.51261 0.0
N183 N -0.0118 -0.01275 0.43162 0.0
H184 H 0.14272 0.65075 0.22088 0.0
H185 H 0.31434 0.76558 0.11399 0.0
H186 H 0.12333 0.67305 0.11781 0.0
H187 H 0.2978 0.78452 0.21778 0.0
H188 H 0.2494 0.72538 0.11301 0.0
H189 H 0.20701 0.69045 0.21814 0.0
C190 C 0.15222 0.66345 0.19751 0.0
C191 C 0.12727 0.65875 0.16957 0.0
C192 C 0.25995 0.73877 0.13585 0.0
C193 C 0.20098 0.70476 0.16643 0.0
C194 C 0.29684 0.76187 0.13644 0.0
C195 C 0.31172 0.77839 0.16605 0.0
C196 C 0.23834 0.73161 0.16515 0.0
C197 C 0.28774 0.77243 0.19437 0.0
C198 C 0.18879 0.6865 0.19607 0.0
C199 C 0.14146 0.67601 0.13999 0.0
N200 N 0.25261 0.74915 0.19327 0.0
N201 N 0.17739 0.69841 0.13919 0.0
H202 H 0.28683 0.64218 0.71929 0.0
H203 H 0.16984 0.81532 0.61509 0.0
H204 H 0.26111 0.62348 0.61664 0.0
H205 H 0.15426 0.79866 0.7192 0.0
H206 H 0.20967 0.75008 0.61315 0.0
H207 H 0.24768 0.70693 0.71746 0.0
C208 C 0.27348 0.65191 0.6962 0.0
C209 C 0.27706 0.62703 0.66812 0.0
C210 C 0.1971 0.76068 0.63628 0.0
C211 C 0.23167 0.70128 0.66603 0.0
C212 C 0.17423 0.79775 0.63742 0.0
C213 C 0.15875 0.81266 0.66739 0.0
C214 C 0.20508 0.73893 0.66537 0.0
C215 C 0.16554 0.78858 0.69554 0.0
C216 C 0.25075 0.68876 0.69528 0.0
C217 C 0.25902 0.64155 0.63892 0.0
N218 N 0.18857 0.75327 0.69388 0.0
N219 N 0.23694 0.67774 0.63862 0.0
H220 H 0.64472 0.14409 0.78338 0.0
H221 H 0.80895 0.26989 0.88966 0.0
H222 H 0.62635 0.16921 0.88605 0.0
H223 H 0.79262 0.29295 0.7865 0.0
H224 H 0.7477 0.22482 0.88883 0.0
H225 H 0.70604 0.18962 0.78401 0.0
C226 C 0.65393 0.15873 0.80611 0.0
C227 C 0.63057 0.15295 0.83474 0.0
C228 C 0.75737 0.23998 0.86643 0.0
C229 C 0.70019 0.20476 0.83557 0.0
C230 C 0.79221 0.26569 0.86689 0.0
C231 C 0.80565 0.28525 0.83814 0.0
C232 C 0.73635 0.23306 0.83686 0.0
C233 C 0.783 0.2787 0.80926 0.0
C234 C 0.68857 0.18495 0.80637 0.0
C235 C 0.64352 0.17295 0.86346 0.0
N236 N 0.74962 0.25273 0.80925 0.0
N237 N 0.67758 0.19784 0.86319 0.0
H238 H 0.66521 0.3105 0.38883 0.0
H239 H 0.79262 0.14547 0.28412 0.0
H240 H 0.644 0.29419 0.28543 0.0
H241 H 0.76584 0.12773 0.38658 0.0
H242 H 0.74712 0.20694 0.28415 0.0
H243 H 0.71017 0.24904 0.38856 0.0
C244 C 0.66978 0.29372 0.36613 0.0
C245 C 0.65079 0.30723 0.33714 0.0
C246 C 0.75141 0.18957 0.30659 0.0
C247 C 0.70285 0.23768 0.33652 0.0
C248 C 0.77763 0.15485 0.30668 0.0
C249 C 0.78293 0.13162 0.33542 0.0
C250 C 0.73114 0.20141 0.33558 0.0
C251 C 0.76247 0.14479 0.36391 0.0
C252 C 0.69543 0.25876 0.36599 0.0
C253 C 0.65781 0.28452 0.30835 0.0
N254 N 0.7376 0.17892 0.36331 0.0
N255 N 0.68371 0.25101 0.30867 0.0
H256 H 0.69892 0.53865 0.28654 0.0
H257 H 0.93189 0.52102 0.21758 0.0
H258 H 0.76873 0.42415 0.28332 0.0
H259 H 0.84574 0.61745 0.18894 0.0
H260 H 0.87835 0.492 0.25366 0.0
H261 H 0.75947 0.57526 0.26366 0.0
C262 C 0.7274 0.52154 0.28198 0.0
C263 C 0.72895 0.4784 0.2866 0.0
C264 C 0.87135 0.51969 0.23962 0.0
C265 C 0.7977 0.51963 0.26031 0.0
C266 C 0.90182 0.5362 0.21901 0.0
C267 C 0.89305 0.57136 0.19993 0.0
C268 C 0.83205 0.5388 0.24146 0.0
C269 C 0.85363 0.58996 0.2029 0.0
C270 C 0.7617 0.54226 0.2686 0.0
C271 C 0.76633 0.45745 0.27987 0.0
N272 N 0.82455 0.57341 0.22321 0.0
N273 N 0.79914 0.47819 0.26686 0.0
H274 H 0.41401 0.43156 0.71448 0.0
H275 H 0.39798 0.19871 0.783 0.0
H276 H 0.31839 0.34519 0.68517 0.0
H277 H 0.51187 0.2693 0.78077 0.0
H278 H 0.36094 0.25887 0.75977 0.0
H279 H 0.44328 0.37813 0.75052 0.0
C280 C 0.39908 0.40145 0.71574 0.0
C281 C 0.36405 0.39262 0.6965 0.0
C282 C 0.39388 0.26136 0.76501 0.0
C283 C 0.39691 0.3317 0.738 0.0
C284 C 0.41484 0.22728 0.77858 0.0
C285 C 0.45795 0.22918 0.78361 0.0
C286 C 0.41625 0.29748 0.75693 0.0
C287 C 0.4786 0.26665 0.77704 0.0
C288 C 0.41572 0.37103 0.73634 0.0
C289 C 0.34576 0.35314 0.69927 0.0
N290 N 0.45764 0.29923 0.76384 0.0
N291 N 0.36244 0.3241 0.71958 0.0
H292 H 0.59414 0.81809 0.18233 0.0
H293 H 0.66651 0.01344 0.28363 0.0
H294 H 0.50832 0.91346 0.21369 0.0
H295 H 0.73777 0.89986 0.28142 0.0
H296 H 0.60721 -0.02339 0.26013 0.0
H297 H 0.64687 0.84689 0.21896 0.0
C298 C 0.58636 0.84508 0.19696 0.0
C299 C 0.54689 0.86368 0.19472 0.0
C300 C 0.63544 0.95942 0.2654 0.0
C301 C 0.60713 0.89674 0.23673 0.0
C302 C 0.66921 -0.01961 0.27893 0.0
C303 C 0.70692 0.95954 0.28445 0.0
C304 C 0.63979 0.91752 0.25647 0.0
C305 C 0.70904 0.91688 0.27775 0.0
C306 C 0.61638 0.86128 0.21807 0.0
C307 C 0.53842 0.8983 0.21451 0.0
N308 N 0.67614 0.89737 0.26345 0.0
N309 N 0.56845 0.91401 0.23441 0.0
H310 H 0.03778 0.23939 0.78585 0.0
H311 H 0.02096 0.00711 0.71619 0.0
H312 H 0.92374 0.16902 0.78377 0.0
H313 H 0.11613 0.09382 0.68658 0.0
H314 H -0.00789 0.06022 0.75277 0.0
H315 H 0.07455 0.17933 0.76217 0.0
C316 C 0.02083 0.21087 0.78137 0.0
C317 C -0.02224 0.20902 0.78657 0.0
C318 C 0.01948 0.06745 0.7384 0.0
C319 C 0.01915 0.14085 0.75937 0.0
C320 C 0.03589 0.03722 0.7175 0.0
C321 C 0.07065 0.04625 0.69802 0.0
C322 C 0.03829 0.10678 0.74013 0.0
C323 C 0.08895 0.08572 0.70086 0.0
C324 C 0.04164 0.17686 0.76754 0.0
C325 C 0.95699 0.17163 0.77992 0.0
N326 N 0.07251 0.11457 0.72147 0.0
N327 N -0.0222 0.13911 0.76646 0.0
H328 H -0.01306 0.44681 0.76899 0.0
H329 H 0.16194 0.42841 0.63134 0.0
H330 H -0.02417 0.3635 0.68683 0.0
H331 H 0.16796 0.50729 0.71654 0.0
H332 H 0.08883 0.41262 0.64478 0.0
H333 H 0.04721 0.47873 0.74329 0.0
C334 C -0.00315 0.43574 0.74519 0.0
C335 C -0.02328 0.40223 0.73016 0.0
C336 C 0.10611 0.43384 0.66019 0.0
C337 C 0.0467 0.43778 0.70087 0.0
C338 C 0.1477 0.44288 0.65249 0.0
C339 C 0.17116 0.46852 0.67323 0.0
C340 C 0.08813 0.45097 0.68858 0.0
C341 C 0.1513 0.48662 0.70026 0.0
C342 C 0.03142 0.45386 0.73051 0.0
C343 C -0.00938 0.38929 0.69921 0.0
N344 N 0.1112 0.47726 0.70724 0.0
N345 N 0.02537 0.40656 0.68581 0.0
H346 H 0.57462 0.47476 0.1836 0.0
H347 H 0.42419 0.66911 0.21073 0.0
H348 H 0.49384 0.49304 0.26666 0.0
H349 H 0.5134 0.66377 0.132 0.0
H350 H 0.43924 0.59705 0.22383 0.0
H351 H 0.543 0.53586 0.15727 0.0
C352 C 0.54952 0.49096 0.1959 0.0
C353 C 0.5371 0.47921 0.22751 0.0
C354 C 0.4554 0.61128 0.20348 0.0
C355 C 0.50116 0.54885 0.19777 0.0
C356 C 0.44682 0.65251 0.196 0.0
C357 C 0.46818 0.67257 0.17064 0.0
C358 C 0.4862 0.58984 0.18589 0.0
C359 C 0.49652 0.64939 0.15192 0.0
C360 C 0.53172 0.52594 0.18097 0.0
C361 C 0.5047 0.50136 0.24246 0.0
N362 N 0.50535 0.60928 0.16031 0.0
N363 N 0.48817 0.53523 0.2276 0.0
H364 H 0.45028 -0.00905 0.76464 0.0
H365 H 0.27173 0.01181 0.6301 0.0
H366 H 0.45888 0.07631 0.68364 0.0
H367 H 0.26778 0.93189 0.71476 0.0
H368 H 0.34521 0.02729 0.64246 0.0
H369 H 0.38955 0.9593 0.7394 0.0
C370 C 0.43972 0.00251 0.74116 0.0
C371 C 0.45927 0.03651 0.72636 0.0
C372 C 0.3283 0.00592 0.65798 0.0
C373 C 0.38875 0.00133 0.69764 0.0
C374 C 0.28649 -0.00294 0.65091 0.0
C375 C 0.26353 -0.02879 0.67182 0.0
C376 C 0.34698 -0.01162 0.68592 0.0
C377 C 0.28405 0.95273 0.69838 0.0
C378 C 0.4049 -0.01543 0.72676 0.0
C379 C 0.44456 0.05011 0.69583 0.0
N380 N 0.32434 0.96191 0.70475 0.0
N381 N 0.40954 0.03301 0.68273 0.0
H382 H 0.92822 0.77224 0.13237 0.0
H383 H 0.94559 0.95001 0.26769 0.0
H384 H 0.00613 0.76771 0.21824 0.0
H385 H 0.86206 0.9591 0.18544 0.0
H386 H -0.02221 0.88923 0.24288 0.0
H387 H 0.91216 0.84553 0.1448 0.0
C388 C 0.9424 0.78683 0.15347 0.0
C389 C 0.96786 0.76375 0.17468 0.0
C390 C 0.95281 0.90469 0.22988 0.0
C391 C 0.95003 0.847 0.18886 0.0
C392 C 0.93454 0.93954 0.24404 0.0
C393 C 0.90089 0.95925 0.22875 0.0
C394 C 0.93674 0.88869 0.20049 0.0
C395 C 0.88797 0.94465 0.19801 0.0
C396 C 0.93322 0.82853 0.16059 0.0
C397 C -0.0144 0.78406 0.20161 0.0
N398 N 0.90539 0.90963 0.18513 0.0
N399 N -0.02387 0.82426 0.20801 0.0
loop_
_geom_bond_atom_site_label_1
_geom_bond_atom_site_label_2
_geom_bond_distance
_geom_bond_site_symmetry_2
_ccdc_geom_bond_type
C0 O1 1.306 . S
C0 O3 1.160 . S
O1 C0 1.306 . S
O1 Cd2 2.228 . S
Cd2 O1 2.228 . S
Cd2 O6 2.273 . S
Cd2 O10 2.277 . S
O3 C0 1.160 . S
O3 Cd4 2.203 . S
Cd4 O3 2.203 . S
Cd4 O6 2.411 . S
Cd4 O7 2.333 1_455 S
Cd4 O8 2.352 . S
Cd4 O12 2.277 1_455 S
Cd4 O13 2.356 1_455 S
C5 O10 1.209 1_655 S
C5 O12 1.226 . S
O6 Cd2 2.273 . S
O6 Cd4 2.411 . S
O6 C9 1.320 1_455 S
O7 Cd4 2.333 1_655 S
O7 C9 1.214 . S
O8 Cd4 2.352 . S
O8 C11 1.258 . S
C9 O6 1.320 1_655 S
C9 O7 1.214 . S
O10 Cd2 2.277 . S
O10 C5 1.209 1_455 S
C11 O8 1.258 . S
C11 O13 1.282 1_455 S
O12 Cd4 2.277 1_655 S
O12 C5 1.226 . S
O13 Cd4 2.356 1_655 S
O13 C11 1.282 1_655 S
C14 O15 1.306 . S
C14 O17 1.160 . S
O15 C14 1.306 . S
O15 Cd16 2.228 . S
Cd16 O15 2.228 . S
Cd16 O20 2.273 . S
Cd16 O24 2.277 . S
O17 C14 1.160 . S
O17 Cd18 2.203 . S
Cd18 O17 2.203 . S
Cd18 O20 2.411 . S
Cd18 O21 2.333 . S
Cd18 O22 2.352 . S
Cd18 O26 2.277 . S
Cd18 O27 2.356 . S
C19 O24 1.209 . S
C19 O26 1.226 . S
O20 Cd16 2.273 . S
O20 Cd18 2.411 . S
O20 C23 1.320 . S
O21 Cd18 2.333 . S
O21 C23 1.214 . S
O22 Cd18 2.352 . S
O22 C25 1.258 . S
C23 O20 1.320 . S
C23 O21 1.214 . S
O24 Cd16 2.277 . S
O24 C19 1.209 . S
C25 O22 1.258 . S
C25 O27 1.282 . S
O26 Cd18 2.277 . S
O26 C19 1.226 . S
O27 Cd18 2.356 . S
O27 C25 1.282 . S
C28 O29 1.306 . S
C28 O31 1.160 . S
O29 C28 1.306 . S
O29 Cd30 2.228 . S
Cd30 O29 2.228 . S
Cd30 O34 2.273 . S
Cd30 O38 2.277 . S
O31 C28 1.160 . S
O31 Cd32 2.203 . S
Cd32 O31 2.203 . S
Cd32 O34 2.411 . S
Cd32 O35 2.333 . S
Cd32 O36 2.352 . S
Cd32 O40 2.277 . S
Cd32 O41 2.356 . S
C33 O38 1.209 . S
C33 O40 1.226 . S
O34 Cd30 2.273 . S
O34 Cd32 2.411 . S
O34 C37 1.320 . S
O35 Cd32 2.333 . S
O35 C37 1.214 . S
O36 Cd32 2.352 . S
O36 C39 1.258 . S
C37 O34 1.320 . S
C37 O35 1.214 . S
O38 Cd30 2.277 . S
O38 C33 1.209 . S
C39 O36 1.258 . S
C39 O41 1.282 . S
O40 Cd32 2.277 . S
O40 C33 1.226 . S
O41 Cd32 2.356 . S
O41 C39 1.282 . S
C42 O43 1.306 . S
C42 O45 1.160 . S
O43 C42 1.306 . S
O43 Cd44 2.228 . S
Cd44 O43 2.228 . S
Cd44 O48 2.273 . S
Cd44 O52 2.277 . S
O45 C42 1.160 . S
O45 Cd46 2.203 . S
Cd46 O45 2.203 . S
Cd46 O48 2.411 . S
Cd46 O49 2.333 1_565 S
Cd46 O50 2.352 . S
Cd46 O54 2.277 1_565 S
Cd46 O55 2.356 1_565 S
C47 O52 1.209 1_545 S
C47 O54 1.226 . S
O48 Cd44 2.273 . S
O48 Cd46 2.411 . S
O48 C51 1.320 1_565 S
O49 Cd46 2.333 1_545 S
O49 C51 1.214 . S
O50 Cd46 2.352 . S
O50 C53 1.258 . S
C51 O48 1.320 1_545 S
C51 O49 1.214 . S
O52 Cd44 2.277 . S
O52 C47 1.209 1_565 S
C53 O50 1.258 . S
C53 O55 1.282 1_565 S
O54 Cd46 2.277 1_545 S
O54 C47 1.226 . S
O55 Cd46 2.356 1_545 S
O55 C53 1.282 1_545 S
C56 O57 1.306 1_455 S
C56 O59 1.160 . S
O57 C56 1.306 1_655 S
O57 Cd58 2.228 . S
Cd58 O57 2.228 . S
Cd58 O62 2.273 . S
Cd58 O66 2.277 . S
O59 C56 1.160 . S
O59 Cd60 2.203 1_455 S
Cd60 O59 2.203 1_655 S
Cd60 O62 2.411 . S
Cd60 O63 2.333 . S
Cd60 O64 2.352 . S
Cd60 O68 2.277 1_655 S
Cd60 O69 2.356 . S
C61 O66 1.209 1_455 S
C61 O68 1.226 . S
O62 Cd58 2.273 . S
O62 Cd60 2.411 . S
O62 C65 1.320 . S
O63 Cd60 2.333 . S
O63 C65 1.214 . S
O64 Cd60 2.352 . S
O64 C67 1.258 . S
C65 O62 1.320 . S
C65 O63 1.214 . S
O66 Cd58 2.277 . S
O66 C61 1.209 1_655 S
C67 O64 1.258 . S
C67 O69 1.282 . S
O68 Cd60 2.277 1_455 S
O68 C61 1.226 . S
O69 Cd60 2.356 . S
O69 C67 1.282 . S
C70 O71 1.306 . S
C70 O73 1.160 . S
O71 C70 1.306 . S
O71 Cd72 2.228 . S
Cd72 O71 2.228 . S
Cd72 O76 2.273 . S
Cd72 O80 2.277 . S
O73 C70 1.160 . S
O73 Cd74 2.203 . S
Cd74 O73 2.203 . S
Cd74 O76 2.411 . S
Cd74 O77 2.333 . S
Cd74 O78 2.352 . S
Cd74 O82 2.277 . S
Cd74 O83 2.356 . S
C75 O80 1.209 . S
C75 O82 1.226 . S
O76 Cd72 2.273 . S
O76 Cd74 2.411 . S
O76 C79 1.320 . S
O77 Cd74 2.333 . S
O77 C79 1.214 . S
O78 Cd74 2.352 . S
O78 C81 1.258 . S
C79 O76 1.320 . S
C79 O77 1.214 . S
O80 Cd72 2.277 . S
O80 C75 1.209 . S
C81 O78 1.258 . S
C81 O83 1.282 . S
O82 Cd74 2.277 . S
O82 C75 1.226 . S
O83 Cd74 2.356 . S
O83 C81 1.282 . S
C84 O85 1.306 . S
C84 O87 1.160 . S
O85 C84 1.306 . S
O85 Cd86 2.228 . S
Cd86 O85 2.228 . S
Cd86 O90 2.273 . S
Cd86 O94 2.277 . S
O87 C84 1.160 . S
O87 Cd88 2.203 . S
Cd88 O87 2.203 . S
Cd88 O90 2.411 . S
Cd88 O91 2.333 . S
Cd88 O92 2.352 . S
Cd88 O96 2.277 . S
Cd88 O97 2.356 . S
C89 O94 1.209 . S
C89 O96 1.226 . S
O90 Cd86 2.273 . S
O90 Cd88 2.411 . S
O90 C93 1.320 . S
O91 Cd88 2.333 . S
O91 C93 1.214 . S
O92 Cd88 2.352 . S
O92 C95 1.258 . S
C93 O90 1.320 . S
C93 O91 1.214 . S
O94 Cd86 2.277 . S
O94 C89 1.209 . S
C95 O92 1.258 . S
C95 O97 1.282 . S
O96 Cd88 2.277 . S
O96 C89 1.226 . S
O97 Cd88 2.356 . S
O97 C95 1.282 . S
C98 O99 1.306 1_565 S
C98 O101 1.160 . S
O99 C98 1.306 1_545 S
O99 Cd100 2.228 . S
Cd100 O99 2.228 . S
Cd100 O104 2.273 . S
Cd100 O108 2.277 . S
O101 C98 1.160 . S
O101 Cd102 2.203 1_565 S
Cd102 O101 2.203 1_545 S
Cd102 O104 2.411 . S
Cd102 O105 2.333 . S
Cd102 O106 2.352 . S
Cd102 O110 2.277 1_545 S
Cd102 O111 2.356 . S
C103 O108 1.209 1_565 S
C103 O110 1.226 . S
O104 Cd100 2.273 . S
O104 Cd102 2.411 . S
O104 C107 1.320 . S
O105 Cd102 2.333 . S
O105 C107 1.214 . S
O106 Cd102 2.352 . S
O106 C109 1.258 . S
C107 O104 1.320 . S
C107 O105 1.214 . S
O108 Cd100 2.277 . S
O108 C103 1.209 1_545 S
C109 O106 1.258 . S
C109 O111 1.282 . S
O110 Cd102 2.277 1_565 S
O110 C103 1.226 . S
O111 Cd102 2.356 . S
O111 C109 1.282 . S
H112 C118 0.930 . S
H113 C122 0.930 . S
H114 C127 0.929 . S
H115 C125 0.929 . S
H116 C120 0.929 . S
H117 C126 0.929 . S
C118 H112 0.930 . S
C118 C119 1.367 1_455 S
C118 C126 1.378 . S
C119 C118 1.367 1_655 S
C119 C127 1.433 . S
C120 H116 0.929 . S
C120 C122 1.378 . S
C120 C124 1.350 . S
C121 C124 1.463 1_556 S
C121 C126 1.350 1_655 S
C121 N129 1.427 . S
C122 H113 0.930 . S
C122 C120 1.378 . S
C122 C123 1.367 1_655 S
C123 C122 1.367 1_455 S
C123 C125 1.433 . S
C124 C120 1.350 . S
C124 C121 1.463 1_554 S
C124 N128 1.427 1_655 S
C125 H115 0.929 . S
C125 C123 1.433 . S
C125 N128 1.384 . S
C126 H117 0.929 . S
C126 C118 1.378 . S
C126 C121 1.350 1_455 S
C127 H114 0.929 . S
C127 C119 1.433 . S
C127 N129 1.384 . S
N128 C124 1.427 1_455 S
N128 C125 1.384 . S
N129 C121 1.427 . S
N129 C127 1.384 . S
H130 C136 0.930 . S
H131 C140 0.930 . S
H132 C145 0.929 . S
H133 C143 0.929 . S
H134 C138 0.929 . S
H135 C144 0.929 . S
C136 H130 0.930 . S
C136 C137 1.367 . S
C136 C144 1.378 . S
C137 C136 1.367 . S
C137 C145 1.433 . S
C138 H134 0.929 . S
C138 C140 1.378 . S
C138 C142 1.350 . S
C139 C142 1.463 . S
C139 C144 1.350 . S
C139 N147 1.427 . S
C140 H131 0.930 . S
C140 C138 1.378 . S
C140 C141 1.367 . S
C141 C140 1.367 . S
C141 C143 1.433 . S
C142 C138 1.350 . S
C142 C139 1.463 . S
C142 N146 1.427 . S
C143 H133 0.929 . S
C143 C141 1.433 . S
C143 N146 1.384 . S
C144 H135 0.929 . S
C144 C136 1.378 . S
C144 C139 1.350 . S
C145 H132 0.929 . S
C145 C137 1.433 . S
C145 N147 1.384 . S
N146 C142 1.427 . S
N146 C143 1.384 . S
N147 C139 1.427 . S
N147 C145 1.384 . S
H148 C154 0.930 . S
H149 C158 0.930 . S
H150 C163 0.929 . S
H151 C161 0.929 . S
H152 C156 0.929 . S
H153 C162 0.929 . S
C154 H148 0.930 . S
C154 C155 1.367 . S
C154 C162 1.378 . S
C155 C154 1.367 . S
C155 C163 1.433 . S
C156 H152 0.929 . S
C156 C158 1.378 . S
C156 C160 1.350 . S
C157 C160 1.463 1_564 S
C157 C162 1.350 . S
C157 N165 1.427 . S
C158 H149 0.930 . S
C158 C156 1.378 . S
C158 C159 1.367 . S
C159 C158 1.367 . S
C159 C161 1.433 . S
C160 C156 1.350 . S
C160 C157 1.463 1_546 S
C160 N164 1.427 . S
C161 H151 0.929 . S
C161 C159 1.433 . S
C161 N164 1.384 . S
C162 H153 0.929 . S
C162 C154 1.378 . S
C162 C157 1.350 . S
C163 H150 0.929 . S
C163 C155 1.433 . S
C163 N165 1.384 . S
N164 C160 1.427 . S
N164 C161 1.384 . S
N165 C157 1.427 . S
N165 C163 1.384 . S
H166 C172 0.930 . S
H167 C176 0.930 . S
H168 C181 0.929 . S
H169 C179 0.929 . S
H170 C174 0.929 . S
H171 C180 0.929 . S
C172 H166 0.930 . S
C172 C173 1.367 1_565 S
C172 C180 1.378 . S
C173 C172 1.367 1_545 S
C173 C181 1.433 . S
C174 H170 0.929 . S
C174 C176 1.378 . S
C174 C178 1.350 . S
C175 C178 1.463 1_655 S
C175 C180 1.350 1_545 S
C175 N183 1.427 . S
C176 H167 0.930 . S
C176 C174 1.378 . S
C176 C177 1.367 1_545 S
C177 C176 1.367 1_565 S
C177 C179 1.433 . S
C178 C174 1.350 . S
C178 C175 1.463 1_455 S
C178 N182 1.426 1_445 S
C179 H169 0.929 . S
C179 C177 1.433 . S
C179 N182 1.381 1_455 S
C180 H171 0.929 . S
C180 C172 1.378 . S
C180 C175 1.350 1_565 S
C181 H168 0.929 . S
C181 C173 1.433 . S
C181 N183 1.384 . S
N182 C178 1.426 1_665 S
N182 C179 1.381 1_655 S
N183 C175 1.427 . S
N183 C181 1.384 . S
H184 C190 0.930 . S
H185 C194 0.930 . S
H186 C199 0.929 . S
H187 C197 0.929 . S
H188 C192 0.929 . S
H189 C198 0.929 . S
C190 H184 0.930 . S
C190 C191 1.367 . S
C190 C198 1.378 . S
C191 C190 1.367 . S
C191 C199 1.433 . S
C192 H188 0.929 . S
C192 C194 1.378 . S
C192 C196 1.350 . S
C193 C196 1.463 . S
C193 C198 1.350 . S
C193 N201 1.427 . S
C194 H185 0.930 . S
C194 C192 1.378 . S
C194 C195 1.367 . S
C195 C194 1.367 . S
C195 C197 1.433 . S
C196 C192 1.350 . S
C196 C193 1.463 . S
C196 N200 1.427 . S
C197 H187 0.929 . S
C197 C195 1.433 . S
C197 N200 1.384 . S
C198 H189 0.929 . S
C198 C190 1.378 . S
C198 C193 1.350 . S
C199 H186 0.929 . S
C199 C191 1.433 . S
C199 N201 1.384 . S
N200 C196 1.427 . S
N200 C197 1.384 . S
N201 C193 1.427 . S
N201 C199 1.384 . S
H202 C208 0.930 . S
H203 C212 0.930 . S
H204 C217 0.929 . S
H205 C215 0.929 . S
H206 C210 0.929 . S
H207 C216 0.929 . S
C208 H202 0.930 . S
C208 C209 1.367 . S
C208 C216 1.378 . S
C209 C208 1.367 . S
C209 C217 1.433 . S
C210 H206 0.929 . S
C210 C212 1.378 . S
C210 C214 1.350 . S
C211 C214 1.463 . S
C211 C216 1.350 . S
C211 N219 1.427 . S
C212 H203 0.930 . S
C212 C210 1.378 . S
C212 C213 1.367 . S
C213 C212 1.367 . S
C213 C215 1.433 . S
C214 C210 1.350 . S
C214 C211 1.463 . S
C214 N218 1.427 . S
C215 H205 0.929 . S
C215 C213 1.433 . S
C215 N218 1.384 . S
C216 H207 0.929 . S
C216 C208 1.378 . S
C216 C211 1.350 . S
C217 H204 0.929 . S
C217 C209 1.433 . S
C217 N219 1.384 . S
N218 C214 1.427 . S
N218 C215 1.384 . S
N219 C211 1.427 . S
N219 C217 1.384 . S
H220 C226 0.930 . S
H221 C230 0.930 . S
H222 C235 0.929 . S
H223 C233 0.929 . S
H224 C228 0.929 . S
H225 C234 0.929 . S
C226 H220 0.930 . S
C226 C227 1.367 . S
C226 C234 1.378 . S
C227 C226 1.367 . S
C227 C235 1.433 . S
C228 H224 0.929 . S
C228 C230 1.378 . S
C228 C232 1.350 . S
C229 C232 1.463 . S
C229 C234 1.350 . S
C229 N237 1.427 . S
C230 H221 0.930 . S
C230 C228 1.378 . S
C230 C231 1.367 . S
C231 C230 1.367 . S
C231 C233 1.433 . S
C232 C228 1.350 . S
C232 C229 1.463 . S
C232 N236 1.427 . S
C233 H223 0.929 . S
C233 C231 1.433 . S
C233 N236 1.384 . S
C234 H225 0.929 . S
C234 C226 1.378 . S
C234 C229 1.350 . S
C235 H222 0.929 . S
C235 C227 1.433 . S
C235 N237 1.384 . S
N236 C232 1.427 . S
N236 C233 1.384 . S
N237 C229 1.427 . S
N237 C235 1.384 . S
H238 C244 0.930 . S
H239 C248 0.930 . S
H240 C253 0.929 . S
H241 C251 0.929 . S
H242 C246 0.929 . S
H243 C252 0.929 . S
C244 H238 0.930 . S
C244 C245 1.367 . S
C244 C252 1.378 . S
C245 C244 1.367 . S
C245 C253 1.433 . S
C246 H242 0.929 . S
C246 C248 1.378 . S
C246 C250 1.350 . S
C247 C250 1.463 . S
C247 C252 1.350 . S
C247 N255 1.427 . S
C248 H239 0.930 . S
C248 C246 1.378 . S
C248 C249 1.367 . S
C249 C248 1.367 . S
C249 C251 1.433 . S
C250 C246 1.350 . S
C250 C247 1.463 . S
C250 N254 1.427 . S
C251 H241 0.929 . S
C251 C249 1.433 . S
C251 N254 1.384 . S
C252 H243 0.929 . S
C252 C244 1.378 . S
C252 C247 1.350 . S
C253 H240 0.929 . S
C253 C245 1.433 . S
C253 N255 1.384 . S
N254 C250 1.427 . S
N254 C251 1.384 . S
N255 C247 1.427 . S
N255 C253 1.384 . S
H256 C262 0.930 . S
H257 C266 0.930 . S
H258 C271 0.929 . S
H259 C269 0.929 . S
H260 C264 0.929 . S
H261 C270 0.929 . S
C262 H256 0.930 . S
C262 C263 1.367 . S
C262 C270 1.378 . S
C263 C262 1.367 . S
C263 C271 1.433 . S
C264 H260 0.929 . S
C264 C266 1.378 . S
C264 C268 1.350 . S
C265 C268 1.463 . S
C265 C270 1.350 . S
C265 N273 1.427 . S
C266 H257 0.930 . S
C266 C264 1.378 . S
C266 C267 1.367 . S
C267 C266 1.367 . S
C267 C269 1.433 . S
C268 C264 1.350 . S
C268 C265 1.463 . S
C268 N272 1.427 . S
C269 H259 0.929 . S
C269 C267 1.433 . S
C269 N272 1.384 . S
C270 H261 0.929 . S
C270 C262 1.378 . S
C270 C265 1.350 . S
C271 H258 0.929 . S
C271 C263 1.433 . S
C271 N273 1.384 . S
N272 C268 1.427 . S
N272 C269 1.384 . S
N273 C265 1.427 . S
N273 C271 1.384 . S
H274 C280 0.930 . S
H275 C284 0.930 . S
H276 C289 0.929 . S
H277 C287 0.929 . S
H278 C282 0.929 . S
H279 C288 0.929 . S
C280 H274 0.930 . S
C280 C281 1.367 . S
C280 C288 1.378 . S
C281 C280 1.367 . S
C281 C289 1.433 . S
C282 H278 0.929 . S
C282 C284 1.378 . S
C282 C286 1.350 . S
C283 C286 1.463 . S
C283 C288 1.350 . S
C283 N291 1.427 . S
C284 H275 0.930 . S
C284 C282 1.378 . S
C284 C285 1.367 . S
C285 C284 1.367 . S
C285 C287 1.433 . S
C286 C282 1.350 . S
C286 C283 1.463 . S
C286 N290 1.427 . S
C287 H277 0.929 . S
C287 C285 1.433 . S
C287 N290 1.384 . S
C288 H279 0.929 . S
C288 C280 1.378 . S
C288 C283 1.350 . S
C289 H276 0.929 . S
C289 C281 1.433 . S
C289 N291 1.384 . S
N290 C286 1.427 . S
N290 C287 1.384 . S
N291 C283 1.427 . S
N291 C289 1.384 . S
H292 C298 0.930 . S
H293 C302 0.930 . S
H294 C307 0.929 . S
H295 C305 0.929 1_545 S
H296 C300 0.929 . S
H297 C306 0.929 . S
C298 H292 0.930 . S
C298 C299 1.367 . S
C298 C306 1.378 . S
C299 C298 1.367 . S
C299 C307 1.433 . S
C300 H296 0.929 . S
C300 C302 1.378 . S
C300 C304 1.350 . S
C301 C304 1.463 . S
C301 C306 1.350 . S
C301 N309 1.427 . S
C302 H293 0.930 . S
C302 C300 1.378 . S
C302 C303 1.367 . S
C303 C302 1.367 . S
C303 C305 1.433 . S
C304 C300 1.350 . S
C304 C301 1.463 . S
C304 N308 1.427 . S
C305 H295 0.929 1_565 S
C305 C303 1.433 . S
C305 N308 1.384 . S
C306 H297 0.929 . S
C306 C298 1.378 . S
C306 C301 1.350 . S
C307 H294 0.929 . S
C307 C299 1.433 . S
C307 N309 1.384 . S
N308 C304 1.427 . S
N308 C305 1.384 . S
N309 C301 1.427 . S
N309 C307 1.384 . S
H310 C316 0.930 . S
H311 C320 0.930 . S
H312 C325 0.929 . S
H313 C323 0.929 . S
H314 C318 0.929 1_655 S
H315 C324 0.929 . S
C316 H310 0.930 . S
C316 C317 1.367 . S
C316 C324 1.378 . S
C317 C316 1.367 . S
C317 C325 1.433 1_455 S
C318 H314 0.929 1_455 S
C318 C320 1.378 . S
C318 C322 1.350 . S
C319 C322 1.463 . S
C319 C324 1.350 . S
C319 N327 1.427 1_455 S
C320 H311 0.930 . S
C320 C318 1.378 . S
C320 C321 1.367 . S
C321 C320 1.367 . S
C321 C323 1.433 . S
C322 C318 1.350 . S
C322 C319 1.463 . S
C322 N326 1.427 . S
C323 H313 0.929 . S
C323 C321 1.433 . S
C323 N326 1.384 . S
C324 H315 0.929 . S
C324 C316 1.378 . S
C324 C319 1.350 . S
C325 H312 0.929 . S
C325 C317 1.433 1_655 S
C325 N327 1.384 . S
N326 C322 1.427 . S
N326 C323 1.384 . S
N327 C319 1.427 1_655 S
N327 C325 1.384 . S
H328 C334 0.930 . S
H329 C338 0.930 . S
H330 C343 0.929 . S
H331 C341 0.929 . S
H332 C336 0.929 . S
H333 C342 0.929 . S
C334 H328 0.930 . S
C334 C335 1.367 . S
C334 C342 1.378 . S
C335 C334 1.367 . S
C335 C343 1.433 . S
C336 H332 0.929 . S
C336 C338 1.378 . S
C336 C340 1.350 . S
C337 C340 1.463 . S
C337 C342 1.350 . S
C337 N345 1.427 . S
C338 H329 0.930 . S
C338 C336 1.378 . S
C338 C339 1.367 . S
C339 C338 1.367 . S
C339 C341 1.433 . S
C340 C336 1.350 . S
C340 C337 1.463 . S
C340 N344 1.427 . S
C341 H331 0.929 . S
C341 C339 1.433 . S
C341 N344 1.384 . S
C342 H333 0.929 . S
C342 C334 1.378 . S
C342 C337 1.350 . S
C343 H330 0.929 . S
C343 C335 1.433 . S
C343 N345 1.384 . S
N344 C340 1.427 . S
N344 C341 1.384 . S
N345 C337 1.427 . S
N345 C343 1.384 . S
H346 C352 0.930 . S
H347 C356 0.930 . S
H348 C361 0.929 . S
H349 C359 0.929 . S
H350 C354 0.929 . S
H351 C360 0.929 . S
C352 H346 0.930 . S
C352 C353 1.367 . S
C352 C360 1.378 . S
C353 C352 1.367 . S
C353 C361 1.433 . S
C354 H350 0.929 . S
C354 C356 1.378 . S
C354 C358 1.350 . S
C355 C358 1.463 . S
C355 C360 1.350 . S
C355 N363 1.427 . S
C356 H347 0.930 . S
C356 C354 1.378 . S
C356 C357 1.367 . S
C357 C356 1.367 . S
C357 C359 1.433 . S
C358 C354 1.350 . S
C358 C355 1.463 . S
C358 N362 1.427 . S
C359 H349 0.929 . S
C359 C357 1.433 . S
C359 N362 1.384 . S
C360 H351 0.929 . S
C360 C352 1.378 . S
C360 C355 1.350 . S
C361 H348 0.929 . S
C361 C353 1.433 . S
C361 N363 1.384 . S
N362 C358 1.427 . S
N362 C359 1.384 . S
N363 C355 1.427 . S
N363 C361 1.384 . S
H364 C370 0.930 . S
H365 C374 0.930 . S
H366 C379 0.929 . S
H367 C377 0.929 . S
H368 C372 0.929 1_565 S
H369 C378 0.929 . S
C370 H364 0.930 . S
C370 C371 1.367 . S
C370 C378 1.378 . S
C371 C370 1.367 . S
C371 C379 1.433 . S
C372 H368 0.929 1_545 S
C372 C374 1.378 1_545 S
C372 C376 1.350 . S
C373 C376 1.463 . S
C373 C378 1.350 . S
C373 N381 1.427 . S
C374 H365 0.930 . S
C374 C372 1.378 1_565 S
C374 C375 1.367 1_565 S
C375 C374 1.367 1_545 S
C375 C377 1.433 . S
C376 C372 1.350 . S
C376 C373 1.463 . S
C376 N380 1.427 . S
C377 H367 0.929 . S
C377 C375 1.433 . S
C377 N380 1.384 . S
C378 H369 0.929 . S
C378 C370 1.378 . S
C378 C373 1.350 . S
C379 H366 0.929 . S
C379 C371 1.433 . S
C379 N381 1.384 . S
N380 C376 1.427 . S
N380 C377 1.384 . S
N381 C373 1.427 . S
N381 C379 1.384 . S
H382 C388 0.930 . S
H383 C392 0.930 . S
H384 C397 0.929 1_455 S
H385 C395 0.929 . S
H386 C390 0.929 . S
H387 C396 0.929 . S
C388 H382 0.930 . S
C388 C389 1.367 . S
C388 C396 1.378 . S
C389 C388 1.367 . S
C389 C397 1.433 . S
C390 H386 0.929 . S
C390 C392 1.378 . S
C390 C394 1.350 . S
C391 C394 1.463 . S
C391 C396 1.350 . S
C391 N399 1.427 . S
C392 H383 0.930 . S
C392 C390 1.378 . S
C392 C393 1.367 . S
C393 C392 1.367 . S
C393 C395 1.433 . S
C394 C390 1.350 . S
C394 C391 1.463 . S
C394 N398 1.427 . S
C395 H385 0.929 . S
C395 C393 1.433 . S
C395 N398 1.384 . S
C396 H387 0.929 . S
C396 C388 1.378 . S
C396 C391 1.350 . S
C397 H384 0.929 1_655 S
C397 C389 1.433 . S
C397 N399 1.384 . S
N398 C394 1.427 . S
N398 C395 1.384 . S
N399 C391 1.427 . S
N399 C397 1.384 . S
C119 C67 1.605 . S
C123 C11 1.598 . S
C137 C25 1.596 . S
C141 C81 1.604 . S
C155 C39 1.598 . S
C159 C95 1.605 . S
C173 C109 1.606 . S
C177 C53 1.599 . S
C191 C0 1.435 . S
C195 C28 1.437 . S
C209 C14 1.432 . S
C213 C42 1.435 . S
C227 C93 1.383 . S
C231 C65 1.376 . S
C245 C79 1.381 . S
C249 C107 1.388 . S
C263 C75 1.047 . S
C267 C9 1.041 . S
C281 C23 1.041 . S
C285 C89 1.043 . S
C299 C37 1.028 . S
C303 C103 1.053 . S
C317 C61 1.048 . S
C321 C51 1.039 . S
C335 C56 1.052 . S
C339 C19 1.071 . S
C353 C70 1.059 . S
C357 C33 1.063 . S
C371 C84 1.045 . S
C375 C47 1.068 . S
C389 C5 1.071 . S
C393 C98 1.055 . S
