# Generated by pormake.
# Topology ske, (6)-cn, num edge types: 1
# Building blocks:
#     Node 0, Type 0, BuildingBlock: UKALOJ_clean_sbu_0, # of connection points: 6
#     Node 1, Type 0, BuildingBlock: UKALOJ_clean_sbu_0, # of connection points: 6
#     Node 2, Type 0, BuildingBlock: UKALOJ_clean_sbu_0, # of connection points: 6
#     Node 3, Type 0, BuildingBlock: UKALOJ_clean_sbu_0, # of connection points: 6
#     Node 4, Type 0, BuildingBlock: UKALOJ_clean_sbu_0, # of connection points: 6
#     Node 5, Type 0, BuildingBlock: UKALOJ_clean_sbu_0, # of connection points: 6
#     Node 6, Type 0, BuildingBlock: UKALOJ_clean_sbu_0, # of connection points: 6
#     Node 7, Type 0, BuildingBlock: UKALOJ_clean_sbu_0, # of connection points: 6
#     Edge 8, Type (0, 0), BuildingBlock: AJUNOK_clean_linker_0, # of connection points: 2
#     Edge 9, Type (0, 0), BuildingBlock: AJUNOK_clean_linker_0, # of connection points: 2
#     Edge 10, Type (0, 0), BuildingBlock: AJUNOK_clean_linker_0, # of connection points: 2
#     Edge 11, Type (0, 0), BuildingBlock: AJUNOK_clean_linker_0, # of connection points: 2
#     Edge 12, Type (0, 0), BuildingBlock: AJUNOK_clean_linker_0, # of connection points: 2
#     Edge 13, Type (0, 0), BuildingBlock: AJUNOK_clean_linker_0, # of connection points: 2
#     Edge 14, Type (0, 0), BuildingBlock: AJUNOK_clean_linker_0, # of connection points: 2
#     Edge 15, Type (0, 0), BuildingBlock: AJUNOK_clean_linker_0, # of connection points: 2
#     Edge 16, Type (0, 0), BuildingBlock: AJUNOK_clean_linker_0, # of connection points: 2
#     Edge 17, Type (0, 0), BuildingBlock: AJUNOK_clean_linker_0, # of connection points: 2
#     Edge 18, Type (0, 0), BuildingBlock: AJUNOK_clean_linker_0, # of connection points: 2
#     Edge 19, Type (0, 0), BuildingBlock: AJUNOK_clean_linker_0, # of connection points: 2
#     Edge 20, Type (0, 0), BuildingBlock: AJUNOK_clean_linker_0, # of connection points: 2
#     Edge 21, Type (0, 0), BuildingBlock: AJUNOK_clean_linker_0, # of connection points: 2
#     Edge 22, Type (0, 0), BuildingBlock: AJUNOK_clean_linker_0, # of connection points: 2
#     Edge 23, Type (0, 0), BuildingBlock: AJUNOK_clean_linker_0, # of connection points: 2
#     Edge 24, Type (0, 0), BuildingBlock: AJUNOK_clean_linker_0, # of connection points: 2
#     Edge 25, Type (0, 0), BuildingBlock: AJUNOK_clean_linker_0, # of connection points: 2
#     Edge 26, Type (0, 0), BuildingBlock: AJUNOK_clean_linker_0, # of connection points: 2
#     Edge 27, Type (0, 0), BuildingBlock: AJUNOK_clean_linker_0, # of connection points: 2
#     Edge 28, Type (0, 0), BuildingBlock: AJUNOK_clean_linker_0, # of connection points: 2
#     Edge 29, Type (0, 0), BuildingBlock: AJUNOK_clean_linker_0, # of connection points: 2
#     Edge 30, Type (0, 0), BuildingBlock: AJUNOK_clean_linker_0, # of connection points: 2
#     Edge 31, Type (0, 0), BuildingBlock: AJUNOK_clean_linker_0, # of connection points: 2
# Relax obj value: 0.068
# Max RMSD: 0.117
# Mean RMSD: 0.117
data_MOF--net-ske--node1-UKALOJ_clean_sbu_0--edge1-AJUNOK_clean_linker_0
_symmetry_space_group_name_H-M    P1
_symmetry_Int_Tables_number       1
_symmetry_cell_setting            triclinic
loop_
_symmetry_equiv_pos_as_xyz
'x, y, z'
_cell_length_a     43.205326
_cell_length_b     32.411834
_cell_length_c     11.235601
_cell_angle_alpha  90.017978
_cell_angle_beta   90.027652
_cell_angle_gamma 89.647669
loop_
_atom_site_label
_atom_site_type_symbol
_atom_site_fract_x
_atom_site_fract_y
_atom_site_fract_z
_atom_type_partial_charge
Zn0 Zn 0.13759 0.32663 0.55141 0.0
O1 O 0.13239 0.32998 0.73615 0.0
C2 C 0.20055 0.29835 0.59155 0.0
Zn3 Zn 0.13939 0.25764 0.54939 0.0
C4 C 0.13297 0.29605 0.79313 0.0
O5 O 0.13433 0.26211 0.73625 0.0
C6 C 0.14508 0.28941 0.3076 0.0
O7 O 0.09152 0.25235 0.52914 0.0
O8 O 0.08955 0.31981 0.53087 0.0
N9 N 0.14386 0.19453 0.56518 0.0
C10 C 0.13118 0.16225 0.50705 0.0
C11 C 0.16143 0.1375 0.63927 0.0
N12 N 0.16253 0.17894 0.64745 0.0
N13 N 0.14165 0.12621 0.55277 0.0
C14 C 0.14467 0.42494 0.55226 0.0
C15 C 0.10681 0.43868 0.43652 0.0
N16 N 0.13074 0.38883 0.52597 0.0
N17 N 0.10731 0.39778 0.45422 0.0
N18 N 0.13005 0.45659 0.49645 0.0
H19 H 0.19282 0.41253 0.57567 0.0
H20 H 0.17055 0.41256 0.71042 0.0
H21 H 0.18039 0.46093 0.63846 0.0
C22 C 0.17374 0.42835 0.62374 0.0
C23 C 0.11036 0.16581 0.40075 0.0
H24 H 0.10808 0.198 0.36962 0.0
H25 H 0.08701 0.15445 0.42376 0.0
H26 H 0.11939 0.1461 0.32765 0.0
O27 O 0.14492 0.25508 0.3622 0.0
O28 O 0.14317 0.32257 0.36691 0.0
C29 C 0.07583 0.28548 0.52353 0.0
O30 O 0.18547 0.3319 0.5784 0.0
O31 O 0.18718 0.264 0.57461 0.0
Zn32 Zn 0.878 0.31126 0.53882 0.0
O33 O 0.92631 0.31752 0.52045 0.0
C34 C 0.87462 0.27952 0.29639 0.0
Zn35 Zn 0.88056 0.242 0.53883 0.0
C36 C 0.9419 0.28416 0.51714 0.0
O37 O 0.92804 0.25 0.52524 0.0
C38 C 0.81693 0.26757 0.57123 0.0
O39 O 0.88412 0.24019 0.72678 0.0
O40 O 0.88271 0.30805 0.72203 0.0
N41 N 0.88834 0.17944 0.51828 0.0
C42 C 0.87348 0.14412 0.54563 0.0
C43 C 0.91076 0.12805 0.42987 0.0
N44 N 0.91161 0.16905 0.44732 0.0
N45 N 0.88701 0.11157 0.49027 0.0
C46 C 0.88506 0.40789 0.50346 0.0
C47 C 0.84611 0.42984 0.60157 0.0
N48 N 0.87091 0.37453 0.55043 0.0
N49 N 0.84684 0.38846 0.61169 0.0
N50 N 0.86974 0.44302 0.53366 0.0
H51 H 0.93338 0.39423 0.4998 0.0
H52 H 0.92289 0.43659 0.40671 0.0
H53 H 0.91356 0.38409 0.36262 0.0
C54 C 0.9153 0.40593 0.43834 0.0
C55 C 0.84449 0.14195 0.61791 0.0
H56 H 0.84167 0.1699 0.67383 0.0
H57 H 0.84486 0.11434 0.67602 0.0
H58 H 0.82449 0.13898 0.55676 0.0
O59 O 0.83289 0.23501 0.5554 0.0
O60 O 0.82982 0.30264 0.56251 0.0
C61 C 0.88402 0.27474 0.78125 0.0
O62 O 0.87333 0.31321 0.35399 0.0
O63 O 0.87691 0.24569 0.35268 0.0
Zn64 Zn 0.11663 0.82854 0.41283 0.0
O65 O 0.0683 0.83274 0.4341 0.0
C66 C 0.12198 0.79848 0.65656 0.0
Zn67 Zn 0.11724 0.75941 0.41352 0.0
C68 C 0.05388 0.79867 0.43657 0.0
O69 O 0.06901 0.76507 0.42873 0.0
C70 C 0.17926 0.78923 0.37432 0.0
O71 O 0.1133 0.75474 0.226 0.0
O72 O 0.11104 0.82246 0.22911 0.0
N73 N 0.11282 0.69677 0.43917 0.0
C74 C 0.13088 0.66304 0.42271 0.0
C75 C 0.09151 0.64407 0.52272 0.0
N76 N 0.08839 0.68464 0.50086 0.0
N77 N 0.11813 0.62976 0.47587 0.0
C78 C 0.11608 0.92543 0.45526 0.0
C79 C 0.13454 0.94579 0.2897 0.0
N80 N 0.1205 0.89154 0.38726 0.0
N81 N 0.1318 0.90449 0.2843 0.0
N82 N 0.12459 0.95982 0.39575 0.0
H83 H 0.08653 0.90242 0.59177 0.0
H84 H 0.09927 0.95491 0.61635 0.0
H85 H 0.12581 0.91277 0.63703 0.0
C86 C 0.10614 0.92412 0.58244 0.0
C87 C 0.16201 0.66374 0.36466 0.0
H88 H 0.16143 0.68436 0.28585 0.0
H89 H 0.16976 0.6325 0.33743 0.0
H90 H 0.17907 0.67591 0.42935 0.0
O91 O 0.16506 0.75569 0.39352 0.0
O92 O 0.16482 0.82328 0.38555 0.0
C93 C 0.11119 0.78894 0.17075 0.0
O94 O 0.12189 0.83244 0.59969 0.0
O95 O 0.12123 0.76473 0.59941 0.0
Zn96 Zn 0.8547 0.81323 0.39584 0.0
O97 O 0.85984 0.81796 0.2112 0.0
C98 C 0.79511 0.7711 0.3564 0.0
Zn99 Zn 0.85981 0.74447 0.39798 0.0
C100 C 0.86245 0.78414 0.15441 0.0
O101 O 0.86387 0.75034 0.21161 0.0
C102 C 0.85174 0.77456 0.63942 0.0
O103 O 0.90799 0.7512 0.41698 0.0
O104 O 0.90263 0.81872 0.42147 0.0
N105 N 0.86289 0.6812 0.37851 0.0
C106 C 0.87491 0.64945 0.44188 0.0
C107 C 0.85181 0.62373 0.29211 0.0
N108 N 0.84865 0.66492 0.28558 0.0
N109 N 0.86827 0.61277 0.38918 0.0
C110 C 0.86263 0.91049 0.39053 0.0
C111 C 0.82503 0.9276 0.50356 0.0
N112 N 0.84735 0.87556 0.41826 0.0
N113 N 0.82389 0.88652 0.48761 0.0
N114 N 0.84904 0.94349 0.44332 0.0
H115 H 0.89922 0.88073 0.29027 0.0
H116 H 0.9103 0.92689 0.37163 0.0
H117 H 0.88797 0.93094 0.23811 0.0
C118 C 0.89179 0.91195 0.31878 0.0
C119 C 0.89379 0.65499 0.55242 0.0
H120 H 0.90565 0.68521 0.55117 0.0
H121 H 0.91116 0.62983 0.56143 0.0
H122 H 0.87823 0.65452 0.63092 0.0
O123 O 0.85557 0.74033 0.58569 0.0
O124 O 0.84959 0.80745 0.57908 0.0
C125 C 0.91994 0.7869 0.42627 0.0
O126 O 0.80716 0.80649 0.36716 0.0
O127 O 0.8117 0.73927 0.37429 0.0
Zn128 Zn 0.61368 0.79257 0.07664 0.0
O129 O 0.60911 0.79065 0.26393 0.0
C130 C 0.67636 0.76302 0.11609 0.0
Zn131 Zn 0.61443 0.72281 0.07697 0.0
C132 C 0.60886 0.75645 0.31944 0.0
O133 O 0.6095 0.72289 0.26115 0.0
C134 C 0.6197 0.75789 0.8343 0.0
O135 O 0.56593 0.71942 0.05542 0.0
O136 O 0.56604 0.78731 0.05518 0.0
N137 N 0.62049 0.65884 0.0791 0.0
C138 C 0.60878 0.62638 0.0182 0.0
C139 C 0.64429 0.60283 0.13132 0.0
N140 N 0.6424 0.6438 0.1495 0.0
N141 N 0.62365 0.59079 0.04861 0.0
C142 C 0.6215 0.88746 0.01601 0.0
C143 C 0.59185 0.91522 0.14488 0.0
N144 N 0.60902 0.85651 0.0806 0.0
N145 N 0.59059 0.87402 0.16036 0.0
N146 N 0.61108 0.92467 0.05466 0.0
H147 H 0.6583 0.85237 0.93418 0.0
H148 H 0.6609 0.90772 0.91443 0.0
H149 H 0.63265 0.87848 0.83279 0.0
C150 C 0.64488 0.88115 0.91927 0.0
C151 C 0.58138 0.62952 0.93684 0.0
H152 H 0.56262 0.64721 -0.01909 0.0
H153 H 0.57224 0.5987 0.91324 0.0
H154 H 0.58798 0.64643 0.855 0.0
O155 O 0.61949 0.72424 0.89238 0.0
O156 O 0.61823 0.7921 0.8898 0.0
C157 C 0.55138 0.75358 0.04691 0.0
O158 O 0.66135 0.79647 0.10165 0.0
O159 O 0.66259 0.72879 0.10303 0.0
Zn160 Zn 0.35309 0.73599 0.0587 0.0
O161 O 0.35843 0.73259 0.24294 0.0
C162 C 0.2929 0.7784 0.10064 0.0
Zn163 Zn 0.35679 0.80504 0.05668 0.0
C164 C 0.36028 0.76635 0.3002 0.0
O165 O 0.3611 0.80034 0.24358 0.0
C166 C 0.34906 0.7735 0.81509 0.0
O167 O 0.40494 0.7986 0.03748 0.0
O168 O 0.40128 0.73085 0.03433 0.0
N169 N 0.35879 0.86866 0.06984 0.0
C170 C 0.36936 0.89917 -0.00105 0.0
C171 C 0.34632 0.92772 0.14514 0.0
N172 N 0.34459 0.88664 0.16057 0.0
N173 N 0.36152 0.93676 0.04379 0.0
C174 C 0.36448 0.63916 0.0472 0.0
C175 C 0.31976 0.61949 -0.00806 0.0
N176 N 0.34624 0.67314 0.04205 0.0
N177 N 0.31849 0.66061 0.00787 0.0
N178 N 0.34839 0.6051 0.01558 0.0
H179 H 0.41258 0.6468 0.01133 0.0
H180 H 0.40433 0.60871 0.12371 0.0
H181 H 0.40069 0.66312 0.1578 0.0
C182 C 0.39744 0.63932 0.08797 0.0
C183 C 0.38872 0.89162 0.89061 0.0
H184 H 0.40261 0.86312 0.90157 0.0
H185 H 0.40421 0.9181 0.87293 0.0
H186 H 0.37338 0.88682 0.81286 0.0
O187 O 0.35222 0.80768 0.86932 0.0
O188 O 0.34768 0.74039 0.87484 0.0
C189 C 0.41775 0.76322 0.02934 0.0
O190 O 0.30531 0.74306 0.08871 0.0
O191 O 0.30896 0.81026 0.08109 0.0
Zn192 Zn 0.63699 0.29081 0.85781 0.0
O193 O 0.58897 0.28918 0.87892 0.0
C194 C 0.64299 0.25641 0.09895 0.0
Zn195 Zn 0.63669 0.22101 0.85486 0.0
C196 C 0.57404 0.25555 0.88503 0.0
O197 O 0.58835 0.22127 0.87586 0.0
C198 C 0.69917 0.2569 0.81546 0.0
O199 O 0.63184 0.22151 0.66825 0.0
O200 O 0.6321 0.28927 0.67272 0.0
N201 N 0.63906 0.15674 0.85413 0.0
C202 C 0.62442 0.12676 0.9158 0.0
C203 C 0.65733 0.09704 0.80295 0.0
N204 N 0.65941 0.138 0.78412 0.0
N205 N 0.63567 0.08898 0.88576 0.0
C206 C 0.62551 0.38577 0.92163 0.0
C207 C 0.64924 0.41438 0.77822 0.0
N208 N 0.63717 0.35518 0.85232 0.0
N209 N 0.6519 0.37331 0.76359 0.0
N210 N 0.63266 0.42352 0.87658 0.0
H211 H 0.5974 0.34643 0.03152 0.0
H212 H 0.58711 0.40081 0.03589 0.0
H213 H 0.62121 0.38183 0.1106 0.0
C214 C 0.60648 0.37823 0.03065 0.0
C215 C 0.59745 0.13462 -0.00325 0.0
H216 H 0.60374 0.15791 0.06469 0.0
H217 H 0.5893 0.10609 0.04061 0.0
H218 H 0.57796 0.14733 0.94383 0.0
O219 O 0.68494 0.22301 0.82845 0.0
O220 O 0.68484 0.29071 0.83231 0.0
C221 C 0.63161 0.25587 0.6136 0.0
O222 O 0.64229 0.29035 0.04229 0.0
O223 O 0.64179 0.22247 0.04207 0.0
Zn224 Zn 0.37596 0.23783 0.8833 0.0
O225 O 0.42408 0.22921 0.89817 0.0
C226 C 0.37321 0.27056 0.12564 0.0
Zn227 Zn 0.37977 0.30713 0.88316 0.0
C228 C 0.44038 0.26161 0.90345 0.0
O229 O 0.42731 0.29669 0.89773 0.0
C230 C 0.31572 0.2838 0.85031 0.0
O231 O 0.3833 0.3082 0.69536 0.0
O232 O 0.38013 0.2405 0.70001 0.0
N233 N 0.38824 0.36992 0.89944 0.0
C234 C 0.37112 0.40465 0.88597 0.0
C235 C 0.41392 0.42249 0.9643 0.0
N236 N 0.41487 0.38138 0.94743 0.0
N237 N 0.38659 0.43792 0.92743 0.0
C238 C 0.37838 0.14099 0.93144 0.0
C239 C 0.34579 0.12067 0.80243 0.0
N240 N 0.3681 0.17485 0.87247 0.0
N241 N 0.34788 0.16189 0.79256 0.0
N242 N 0.36471 0.10627 0.8887 0.0
H243 H 0.41608 0.17058 0.02463 0.0
H244 H 0.41772 0.1149 0.02301 0.0
H245 H 0.39031 0.14202 0.11595 0.0
C246 C 0.40216 0.14221 0.02853 0.0
C247 C 0.34002 0.4062 0.82754 0.0
H248 H 0.33926 0.38417 0.75199 0.0
H249 H 0.33466 0.43776 0.7949 0.0
H250 H 0.32224 0.3973 0.89339 0.0
O251 O 0.33206 0.31579 0.86535 0.0
O252 O 0.32803 0.24824 0.86084 0.0
C253 C 0.38199 0.27374 0.64086 0.0
O254 O 0.37173 0.23681 0.06839 0.0
O255 O 0.37601 0.30427 0.06917 0.0
C256 C 0.25028 0.26302 0.63712 0.0
C257 C 0.23113 0.29793 0.64991 0.0
C258 C 0.27685 0.258 0.70664 0.0
C259 C 0.28531 0.28766 0.79195 0.0
H260 H 0.24448 0.23904 0.57383 0.0
H261 H 0.29124 0.23101 0.69127 0.0
S262 S 0.24185 0.38304 0.86724 0.0
N263 N 0.22165 0.3617 0.75897 0.0
N264 N 0.27183 0.35215 0.88937 0.0
C265 C 0.26633 0.32257 0.8065 0.0
C266 C 0.23922 0.32778 0.73541 0.0
C267 C 0.74684 0.29464 0.75703 0.0
C268 C 0.73005 0.25763 0.75902 0.0
C269 C 0.77412 0.29812 0.69101 0.0
C270 C 0.78571 0.26473 0.62398 0.0
H271 H 0.73878 0.32135 0.80636 0.0
H272 H 0.78657 0.327 0.69517 0.0
S273 S 0.74934 0.16195 0.5917 0.0
N274 N 0.72631 0.18733 0.68357 0.0
N275 N 0.77747 0.19419 0.55856 0.0
C276 C 0.7689 0.22776 0.62336 0.0
C277 C 0.74119 0.22407 0.69135 0.0
C278 C 0.2494 0.74691 0.21321 0.0
C279 C 0.26276 0.78224 0.16235 0.0
C280 C 0.22356 0.74983 0.28749 0.0
C281 C 0.2097 0.78815 0.31362 0.0
H282 H 0.2593 0.71659 0.19772 0.0
H283 H 0.21416 0.72156 0.32299 0.0
S284 S 0.23571 0.89035 0.20314 0.0
N285 N 0.26026 0.85703 0.14375 0.0
N286 N 0.21151 0.86255 0.28294 0.0
C287 C 0.2229 0.8239 0.26391 0.0
C288 C 0.24931 0.82091 0.18801 0.0
C289 C 0.71976 0.80183 0.20873 0.0
C290 C 0.70768 0.76399 0.16939 0.0
C291 C 0.74726 0.8035 0.27395 0.0
C292 C 0.764 0.76744 0.30235 0.0
H293 H 0.70764 0.83054 0.19103 0.0
H294 H 0.75562 0.83354 0.30089 0.0
S295 S 0.74271 0.66038 0.21855 0.0
N296 N 0.71481 0.68942 0.16244 0.0
N297 N 0.7666 0.69258 0.28492 0.0
C298 C 0.75227 0.7293 0.26344 0.0
C299 C 0.7242 0.72759 0.19664 0.0
C300 C 0.15771 1.01932 0.43957 0.0
C301 C 0.12818 1.00138 0.43808 0.0
C302 C 0.16185 0.06016 0.47722 0.0
C303 C 0.13655 0.08466 0.51264 0.0
H304 H 0.1777 1.00143 0.41195 0.0
H305 H 0.18496 0.07292 0.4778 0.0
S306 S 0.05456 0.05203 0.52521 0.0
N307 N 0.07322 1.01113 0.47343 0.0
N308 N 0.08112 0.08768 0.54784 0.0
C309 C 0.10691 0.06707 0.51188 0.0
C310 C 0.10269 0.02545 0.47346 0.0
C311 C 0.8717 0.51729 0.58166 0.0
C312 C 0.87416 0.48531 0.4973 0.0
C313 C 0.87129 0.559 0.54713 0.0
C314 C 0.87362 0.57049 0.42656 0.0
H315 H 0.86892 0.50981 0.67497 0.0
H316 H 0.86737 0.58203 0.61506 0.0
S317 S 0.87924 0.49838 0.17014 0.0
N318 N 0.87721 0.46792 0.28753 0.0
N319 N 0.87867 0.54595 0.22277 0.0
C320 C 0.87674 0.53863 0.34161 0.0
C321 C 0.87649 0.49622 0.37673 0.0
C322 C 0.86591 1.00232 0.56541 0.0
C323 C 0.85942 0.9854 0.45274 0.0
C324 C 0.87455 0.0438 0.57796 0.0
C325 C 0.87657 0.06974 0.47827 0.0
H326 H 0.86446 0.98312 0.64406 0.0
H327 H 0.88015 0.05553 0.66554 0.0
S328 S 0.85957 0.04128 0.1656 0.0
N329 N 0.85384 0.99829 0.24126 0.0
N330 N 0.87044 0.07614 0.26427 0.0
C331 C 0.86983 0.05327 0.36551 0.0
C332 C 0.86107 1.01113 0.35284 0.0
C333 C 0.13333 0.5643 0.38056 0.0
C334 C 0.12874 0.58772 0.48419 0.0
C335 C 0.13664 0.52127 0.38647 0.0
C336 C 0.13549 0.50026 0.49605 0.0
H337 H 0.13209 0.57897 0.29411 0.0
H338 H 0.13813 0.50389 0.30429 0.0
S339 S 0.12544 0.54789 0.79302 0.0
N340 N 0.12492 0.58729 0.6997 0.0
N341 N 0.13051 0.50624 0.71033 0.0
C342 C 0.13253 0.52354 0.60058 0.0
C343 C 0.12921 0.56733 0.59463 0.0
C344 C 0.62393 0.51545 0.08275 0.0
C345 C 0.62138 0.549 0.00351 0.0
C346 C 0.62653 0.47453 0.04185 0.0
C347 C 0.62627 0.4651 0.91941 0.0
H348 H 0.62504 0.52112 0.17765 0.0
H349 H 0.63041 0.45067 0.10715 0.0
S350 S 0.62146 0.54177 0.67397 0.0
N351 N 0.62068 0.57004 0.79616 0.0
N352 N 0.62317 0.49336 0.71914 0.0
C353 C 0.62321 0.49846 0.83918 0.0
C354 C 0.62127 0.5402 0.88097 0.0
C355 C 0.37191 1.01046 0.07999 0.0
C356 C 0.36589 0.97825 -0.00078 0.0
C357 C 0.3722 0.05194 0.04386 0.0
C358 C 0.3673 0.06323 0.92421 0.0
H359 H 0.37538 1.00355 0.17336 0.0
H360 H 0.3748 0.07503 0.1121 0.0
S361 S 0.34831 0.99107 0.67784 0.0
N362 N 0.35206 0.96108 0.79564 0.0
N363 N 0.35567 0.03822 0.72498 0.0
C364 C 0.36156 0.03116 0.84207 0.0
C365 C 0.36025 0.98899 0.87986 0.0
C366 C 0.39464 0.51302 0.91057 0.0
C367 C 0.37615 0.47971 0.94671 0.0
C368 C 0.38585 0.55401 0.93492 0.0
C369 C 0.35852 0.56302 -0.00179 0.0
H370 H 0.4159 0.50721 0.86225 0.0
H371 H 0.40018 0.57877 0.90201 0.0
S372 S 0.30369 0.48675 0.12219 0.0
N373 N 0.33052 0.4584 0.05603 0.0
N374 N 0.31378 0.53524 0.1004 0.0
C375 C 0.34015 0.52991 0.03625 0.0
C376 C 0.34906 0.48831 0.01136 0.0
C377 C 0.62201 1.016 0.85032 0.0
C378 C 0.62831 0.04838 0.93027 0.0
C379 C 0.61668 0.97555 0.89086 0.0
C380 C 0.61784 0.96588 0.0129 0.0
H381 H 0.62107 1.02217 0.75567 0.0
H382 H 0.61116 0.95186 0.82652 0.0
S383 S 0.63633 0.03857 0.25748 0.0
N384 N 0.63765 0.06727 0.13613 0.0
N385 N 0.62702 0.9917 0.21261 0.0
C386 C 0.62448 0.99789 0.09344 0.0
C387 C 0.63002 0.03895 0.05213 0.0
C388 C 0.13561 0.25621 0.11031 0.0
C389 C 0.14403 0.29128 0.17613 0.0
C390 C 0.13139 0.25833 -0.01311 0.0
C391 C 0.13537 0.2956 0.92448 0.0
H392 H 0.13162 0.22703 0.15454 0.0
H393 H 0.12487 0.23045 0.94017 0.0
S394 S 0.15962 0.39573 0.05429 0.0
N395 N 0.15772 0.36406 0.16898 0.0
N396 N 0.14975 0.36797 0.93731 0.0
C397 C 0.14429 0.33079 -0.01103 0.0
C398 C 0.14868 0.32861 0.11459 0.0
C399 C 0.87654 0.24163 0.10313 0.0
C400 C 0.87604 0.27943 0.16504 0.0
C401 C 0.87981 0.2403 -0.02064 0.0
C402 C 0.88279 0.27671 0.91263 0.0
H403 H 0.87447 0.21267 0.15049 0.0
H404 H 0.8797 0.21048 0.93583 0.0
S405 S 0.88349 0.38381 0.03226 0.0
N406 N 0.87908 0.35423 0.15033 0.0
N407 N 0.88547 0.35189 0.91812 0.0
C408 C 0.8825 0.31481 0.97353 0.0
C409 C 0.87901 0.31613 0.09951 0.0
C410 C 0.12445 0.75796 0.97321 0.0
C411 C 0.11197 0.79086 0.03944 0.0
C412 C 0.12829 0.76114 0.84969 0.0
C413 C 0.1199 0.79736 0.78795 0.0
H414 H 0.13194 0.72988 0.01723 0.0
H415 H 0.13804 0.735 0.80229 0.0
S416 S 0.08355 0.89091 0.91922 0.0
N417 N 0.08954 0.85993 0.03347 0.0
N418 N 0.09661 0.86561 0.80199 0.0
C419 C 0.10683 0.83011 0.85305 0.0
C420 C 0.10285 0.8269 -0.02147 0.0
C421 C 0.86037 0.74241 0.8391 0.0
C422 C 0.85296 0.77742 0.77089 0.0
C423 C 0.86415 0.74518 0.96257 0.0
C424 C 0.86074 0.78309 0.02288 0.0
H425 H 0.86365 0.71265 0.79691 0.0
H426 H 0.86967 0.71719 0.01102 0.0
S427 S 0.84088 0.88406 0.88578 0.0
N428 N 0.84188 0.85135 0.77336 0.0
N429 N 0.84921 0.8564 0.00488 0.0
C430 C 0.85329 0.81838 0.95585 0.0
C431 C 0.84927 0.81556 0.83018 0.0
C432 C 0.60747 0.79257 0.51576 0.0
C433 C 0.61092 0.75574 0.45073 0.0
C434 C 0.61119 0.79319 0.63945 0.0
C435 C 0.61859 0.75703 0.70288 0.0
H436 H 0.60182 0.82124 0.47097 0.0
H437 H 0.60775 0.8222 0.68563 0.0
S438 S 0.63194 0.65289 0.57384 0.0
N439 N 0.62326 0.68232 0.45872 0.0
N440 N 0.63049 0.68361 0.69077 0.0
C441 C 0.62259 0.72007 0.63878 0.0
C442 C 0.61864 0.71938 0.51292 0.0
C443 C 0.3578 0.80648 0.61696 0.0
C444 C 0.35022 0.77127 0.68358 0.0
C445 C 0.36174 0.80432 0.49352 0.0
C446 C 0.35829 0.76684 0.43163 0.0
H447 H 0.36114 0.83593 0.66032 0.0
H448 H 0.36747 0.83241 0.44639 0.0
S449 S 0.33731 0.66576 0.56378 0.0
N450 N 0.33851 0.69779 0.67777 0.0
N451 N 0.34604 0.69379 0.44612 0.0
C452 C 0.35046 0.73138 0.49694 0.0
C453 C 0.34632 0.73361 0.62264 0.0
C454 C 0.63354 0.22056 0.29213 0.0
C455 C 0.64204 0.25653 0.23042 0.0
C456 C 0.62965 0.22078 0.41578 0.0
C457 C 0.63402 0.25701 0.48243 0.0
H458 H 0.62932 0.19207 0.24462 0.0
H459 H 0.62308 0.19232 0.45923 0.0
S460 S 0.65884 0.35872 0.36444 0.0
N461 N 0.65655 0.32875 0.24613 0.0
N462 N 0.64889 0.32943 0.47799 0.0
C463 C 0.64306 0.29308 0.42204 0.0
C464 C 0.64721 0.29275 0.29628 0.0
C465 C 0.38083 0.30748 0.31824 0.0
C466 C 0.37408 0.27068 0.25703 0.0
C467 C 0.38377 0.30815 0.44218 0.0
C468 C 0.38017 0.27202 0.50965 0.0
H469 H 0.38423 0.33607 0.2702 0.0
H470 H 0.38893 0.33723 0.48515 0.0
S471 S 0.36099 0.16781 0.39264 0.0
N472 N 0.36282 0.19745 0.27362 0.0
N473 N 0.36861 0.1984 0.5061 0.0
C474 C 0.37313 0.235 0.44961 0.0
C475 C 0.36998 0.23442 0.32349 0.0
C476 C 0.02463 0.32124 0.53008 0.0
C477 C 0.04182 0.28464 0.51313 0.0
C478 C 0.99229 0.32111 0.52803 0.0
C479 C 0.97596 0.2844 0.50874 0.0
H480 H 0.03616 0.35018 0.54792 0.0
H481 H 0.98009 0.3498 0.54484 0.0
S482 S 0.01013 0.18095 0.44726 0.0
N483 N 0.04016 0.21128 0.46822 0.0
N484 N 0.97941 0.21092 0.46318 0.0
C485 C 0.99288 0.24784 0.48696 0.0
C486 C 0.0258 0.24798 0.4895 0.0
C487 C 0.97273 0.75582 0.42994 0.0
C488 C 0.95387 0.79118 0.43774 0.0
C489 C 0.00492 0.75874 0.43246 0.0
C490 C 0.01972 0.79716 0.44273 0.0
H491 H 0.96265 0.72551 0.41949 0.0
H492 H 0.01823 0.73046 0.42386 0.0
S493 S 0.98098 0.89898 0.47672 0.0
N494 N 0.95232 0.8658 0.46439 0.0
N495 N 0.01306 0.87124 0.46811 0.0
C496 C 0.00123 0.83275 0.45462 0.0
C497 C 0.96828 0.82978 0.45239 0.0
C498 C 0.49927 0.72086 0.06175 0.0
C499 C 0.51754 0.75486 0.03014 0.0
C500 C 0.4669 0.72331 0.05739 0.0
C501 C 0.45176 0.75979 0.02109 0.0
H502 H 0.50996 0.6927 0.09409 0.0
H503 H 0.45372 0.69694 0.08694 0.0
S504 S 0.48925 0.85532 0.91211 0.0
N505 N 0.51825 0.82454 0.94898 0.0
N506 N 0.45757 0.82903 0.94126 0.0
C507 C 0.46984 0.79318 -0.01668 0.0
C508 C 0.5027 0.79073 -0.01237 0.0
C509 C 0.49005 0.2228 0.87763 0.0
C510 C 0.47437 0.25916 0.91084 0.0
C511 C 0.52242 0.2215 0.87237 0.0
C512 C 0.54014 0.25651 0.90001 0.0
H513 H 0.47725 0.19559 0.85177 0.0
H514 H 0.53353 0.19324 0.84294 0.0
S515 S 0.5102 0.35746 0.00808 0.0
N516 N 0.47901 0.32961 -0.01626 0.0
N517 N 0.53965 0.32728 0.97267 0.0
C518 C 0.52472 0.2924 0.9388 0.0
C519 C 0.49188 0.29368 0.94462 0.0
loop_
_geom_bond_atom_site_label_1
_geom_bond_atom_site_label_2
_geom_bond_distance
_geom_bond_site_symmetry_2
_ccdc_geom_bond_type
Zn0 O1 2.055 . S
Zn0 O8 2.046 . S
Zn0 N16 2.036 . S
Zn0 O28 2.053 . S
Zn0 O30 2.066 . S
O1 Zn0 2.055 . S
O1 C4 1.259 . S
C2 O30 1.256 . S
C2 O31 1.244 . S
Zn3 O5 2.046 . S
Zn3 O7 2.055 . S
Zn3 N9 2.036 . S
Zn3 O27 2.066 . S
Zn3 O31 2.053 . S
C4 O1 1.259 . S
C4 O5 1.254 . S
O5 Zn3 2.046 . S
O5 C4 1.254 . S
C6 O27 1.256 . S
C6 O28 1.244 . S
O7 Zn3 2.055 . S
O7 C29 1.259 . S
O8 Zn0 2.046 . S
O8 C29 1.254 . S
N9 Zn3 2.036 . S
N9 C10 1.298 . S
N9 N12 1.398 . S
C10 N9 1.298 . S
C10 N13 1.367 . S
C10 C23 1.481 . S
C11 N12 1.299 . S
C11 N13 1.379 . S
N12 N9 1.398 . S
N12 C11 1.299 . S
N13 C10 1.367 . S
N13 C11 1.379 . S
C14 N16 1.298 . S
C14 N18 1.367 . S
C14 C22 1.481 . S
C15 N17 1.299 . S
C15 N18 1.379 . S
N16 Zn0 2.036 . S
N16 C14 1.298 . S
N16 N17 1.398 . S
N17 C15 1.299 . S
N17 N16 1.398 . S
N18 C14 1.367 . S
N18 C15 1.379 . S
H19 C22 0.980 . S
H20 C22 0.981 . S
H21 C22 0.981 . S
C22 C14 1.481 . S
C22 H19 0.980 . S
C22 H20 0.981 . S
C22 H21 0.981 . S
C23 C10 1.481 . S
C23 H24 0.980 . S
C23 H25 0.981 . S
C23 H26 0.981 . S
H24 C23 0.980 . S
H25 C23 0.981 . S
H26 C23 0.981 . S
O27 Zn3 2.066 . S
O27 C6 1.256 . S
O28 Zn0 2.053 . S
O28 C6 1.244 . S
C29 O7 1.259 . S
C29 O8 1.254 . S
O30 Zn0 2.066 . S
O30 C2 1.256 . S
O31 C2 1.244 . S
O31 Zn3 2.053 . S
Zn32 O33 2.055 . S
Zn32 O40 2.046 . S
Zn32 N48 2.036 . S
Zn32 O60 2.053 . S
Zn32 O62 2.066 . S
O33 Zn32 2.055 . S
O33 C36 1.259 . S
C34 O62 1.256 . S
C34 O63 1.244 . S
Zn35 O37 2.046 . S
Zn35 O39 2.055 . S
Zn35 N41 2.036 . S
Zn35 O59 2.066 . S
Zn35 O63 2.053 . S
C36 O33 1.259 . S
C36 O37 1.254 . S
O37 Zn35 2.046 . S
O37 C36 1.254 . S
C38 O59 1.256 . S
C38 O60 1.244 . S
O39 Zn35 2.055 . S
O39 C61 1.259 . S
O40 Zn32 2.046 . S
O40 C61 1.254 . S
N41 Zn35 2.036 . S
N41 C42 1.298 . S
N41 N44 1.398 . S
C42 N41 1.298 . S
C42 N45 1.367 . S
C42 C55 1.481 . S
C43 N44 1.299 . S
C43 N45 1.379 . S
N44 N41 1.398 . S
N44 C43 1.299 . S
N45 C42 1.367 . S
N45 C43 1.379 . S
C46 N48 1.298 . S
C46 N50 1.367 . S
C46 C54 1.481 . S
C47 N49 1.299 . S
C47 N50 1.379 . S
N48 Zn32 2.036 . S
N48 C46 1.298 . S
N48 N49 1.398 . S
N49 C47 1.299 . S
N49 N48 1.398 . S
N50 C46 1.367 . S
N50 C47 1.379 . S
H51 C54 0.980 . S
H52 C54 0.981 . S
H53 C54 0.981 . S
C54 C46 1.481 . S
C54 H51 0.980 . S
C54 H52 0.981 . S
C54 H53 0.981 . S
C55 C42 1.481 . S
C55 H56 0.980 . S
C55 H57 0.981 . S
C55 H58 0.981 . S
H56 C55 0.980 . S
H57 C55 0.981 . S
H58 C55 0.981 . S
O59 Zn35 2.066 . S
O59 C38 1.256 . S
O60 Zn32 2.053 . S
O60 C38 1.244 . S
C61 O39 1.259 . S
C61 O40 1.254 . S
O62 Zn32 2.066 . S
O62 C34 1.256 . S
O63 C34 1.244 . S
O63 Zn35 2.053 . S
Zn64 O65 2.055 . S
Zn64 O72 2.046 . S
Zn64 N80 2.036 . S
Zn64 O92 2.053 . S
Zn64 O94 2.066 . S
O65 Zn64 2.055 . S
O65 C68 1.259 . S
C66 O94 1.256 . S
C66 O95 1.244 . S
Zn67 O69 2.046 . S
Zn67 O71 2.055 . S
Zn67 N73 2.036 . S
Zn67 O91 2.066 . S
Zn67 O95 2.053 . S
C68 O65 1.259 . S
C68 O69 1.254 . S
O69 Zn67 2.046 . S
O69 C68 1.254 . S
C70 O91 1.256 . S
C70 O92 1.244 . S
O71 Zn67 2.055 . S
O71 C93 1.259 . S
O72 Zn64 2.046 . S
O72 C93 1.254 . S
N73 Zn67 2.036 . S
N73 C74 1.298 . S
N73 N76 1.398 . S
C74 N73 1.298 . S
C74 N77 1.367 . S
C74 C87 1.481 . S
C75 N76 1.299 . S
C75 N77 1.379 . S
N76 N73 1.398 . S
N76 C75 1.299 . S
N77 C74 1.367 . S
N77 C75 1.379 . S
C78 N80 1.298 . S
C78 N82 1.367 . S
C78 C86 1.481 . S
C79 N81 1.299 . S
C79 N82 1.379 . S
N80 Zn64 2.036 . S
N80 C78 1.298 . S
N80 N81 1.398 . S
N81 C79 1.299 . S
N81 N80 1.398 . S
N82 C78 1.367 . S
N82 C79 1.379 . S
H83 C86 0.980 . S
H84 C86 0.981 . S
H85 C86 0.981 . S
C86 C78 1.481 . S
C86 H83 0.980 . S
C86 H84 0.981 . S
C86 H85 0.981 . S
C87 C74 1.481 . S
C87 H88 0.980 . S
C87 H89 0.981 . S
C87 H90 0.981 . S
H88 C87 0.980 . S
H89 C87 0.981 . S
H90 C87 0.981 . S
O91 Zn67 2.066 . S
O91 C70 1.256 . S
O92 Zn64 2.053 . S
O92 C70 1.244 . S
C93 O71 1.259 . S
C93 O72 1.254 . S
O94 Zn64 2.066 . S
O94 C66 1.256 . S
O95 C66 1.244 . S
O95 Zn67 2.053 . S
Zn96 O97 2.055 . S
Zn96 O104 2.046 . S
Zn96 N112 2.036 . S
Zn96 O124 2.053 . S
Zn96 O126 2.066 . S
O97 Zn96 2.055 . S
O97 C100 1.259 . S
C98 O126 1.256 . S
C98 O127 1.244 . S
Zn99 O101 2.046 . S
Zn99 O103 2.055 . S
Zn99 N105 2.036 . S
Zn99 O123 2.066 . S
Zn99 O127 2.053 . S
C100 O97 1.259 . S
C100 O101 1.254 . S
O101 Zn99 2.046 . S
O101 C100 1.254 . S
C102 O123 1.256 . S
C102 O124 1.244 . S
O103 Zn99 2.055 . S
O103 C125 1.259 . S
O104 Zn96 2.046 . S
O104 C125 1.254 . S
N105 Zn99 2.036 . S
N105 C106 1.298 . S
N105 N108 1.398 . S
C106 N105 1.298 . S
C106 N109 1.367 . S
C106 C119 1.481 . S
C107 N108 1.299 . S
C107 N109 1.379 . S
N108 N105 1.398 . S
N108 C107 1.299 . S
N109 C106 1.367 . S
N109 C107 1.379 . S
C110 N112 1.298 . S
C110 N114 1.367 . S
C110 C118 1.481 . S
C111 N113 1.299 . S
C111 N114 1.379 . S
N112 Zn96 2.036 . S
N112 C110 1.298 . S
N112 N113 1.398 . S
N113 C111 1.299 . S
N113 N112 1.398 . S
N114 C110 1.367 . S
N114 C111 1.379 . S
H115 C118 0.980 . S
H116 C118 0.981 . S
H117 C118 0.981 . S
C118 C110 1.481 . S
C118 H115 0.980 . S
C118 H116 0.981 . S
C118 H117 0.981 . S
C119 C106 1.481 . S
C119 H120 0.980 . S
C119 H121 0.981 . S
C119 H122 0.981 . S
H120 C119 0.980 . S
H121 C119 0.981 . S
H122 C119 0.981 . S
O123 Zn99 2.066 . S
O123 C102 1.256 . S
O124 Zn96 2.053 . S
O124 C102 1.244 . S
C125 O103 1.259 . S
C125 O104 1.254 . S
O126 Zn96 2.066 . S
O126 C98 1.256 . S
O127 C98 1.244 . S
O127 Zn99 2.053 . S
Zn128 O129 2.055 . S
Zn128 O136 2.046 . S
Zn128 N144 2.036 . S
Zn128 O156 2.053 1_554 S
Zn128 O158 2.066 . S
O129 Zn128 2.055 . S
O129 C132 1.259 . S
C130 O158 1.256 . S
C130 O159 1.244 . S
Zn131 O133 2.046 . S
Zn131 O135 2.055 . S
Zn131 N137 2.036 . S
Zn131 O155 2.066 1_554 S
Zn131 O159 2.053 . S
C132 O129 1.259 . S
C132 O133 1.254 . S
O133 Zn131 2.046 . S
O133 C132 1.254 . S
C134 O155 1.256 . S
C134 O156 1.244 . S
O135 Zn131 2.055 . S
O135 C157 1.259 . S
O136 Zn128 2.046 . S
O136 C157 1.254 . S
N137 Zn131 2.036 . S
N137 C138 1.298 . S
N137 N140 1.398 . S
C138 N137 1.298 . S
C138 N141 1.367 . S
C138 C151 1.481 1_554 S
C139 N140 1.299 . S
C139 N141 1.379 . S
N140 N137 1.398 . S
N140 C139 1.299 . S
N141 C138 1.367 . S
N141 C139 1.379 . S
C142 N144 1.298 . S
C142 N146 1.367 . S
C142 C150 1.481 . S
C143 N145 1.299 . S
C143 N146 1.379 1_556 S
N144 Zn128 2.036 . S
N144 C142 1.298 . S
N144 N145 1.398 1_554 S
N145 C143 1.299 . S
N145 N144 1.398 1_556 S
N146 C142 1.367 . S
N146 C143 1.379 1_554 S
H147 C150 0.980 . S
H148 C150 0.981 . S
H149 C150 0.981 . S
C150 C142 1.481 . S
C150 H147 0.980 . S
C150 H148 0.981 . S
C150 H149 0.981 . S
C151 C138 1.481 1_556 S
C151 H152 0.981 . S
C151 H153 0.981 . S
C151 H154 0.981 . S
H152 C151 0.981 . S
H153 C151 0.981 . S
H154 C151 0.981 . S
O155 Zn131 2.066 1_556 S
O155 C134 1.256 . S
O156 Zn128 2.053 1_556 S
O156 C134 1.244 . S
C157 O135 1.259 . S
C157 O136 1.254 . S
O158 Zn128 2.066 . S
O158 C130 1.256 . S
O159 C130 1.244 . S
O159 Zn131 2.053 . S
Zn160 O161 2.055 . S
Zn160 O168 2.046 . S
Zn160 N176 2.036 . S
Zn160 O188 2.053 1_554 S
Zn160 O190 2.066 . S
O161 Zn160 2.055 . S
O161 C164 1.259 . S
C162 O190 1.256 . S
C162 O191 1.244 . S
Zn163 O165 2.046 . S
Zn163 O167 2.055 . S
Zn163 N169 2.036 . S
Zn163 O187 2.066 1_554 S
Zn163 O191 2.053 . S
C164 O161 1.259 . S
C164 O165 1.254 . S
O165 Zn163 2.046 . S
O165 C164 1.254 . S
C166 O187 1.256 . S
C166 O188 1.244 . S
O167 Zn163 2.055 . S
O167 C189 1.259 . S
O168 Zn160 2.046 . S
O168 C189 1.254 . S
N169 Zn163 2.036 . S
N169 C170 1.298 . S
N169 N172 1.398 . S
C170 N169 1.298 . S
C170 N173 1.367 . S
C170 C183 1.481 1_554 S
C171 N172 1.299 . S
C171 N173 1.379 . S
N172 N169 1.398 . S
N172 C171 1.299 . S
N173 C170 1.367 . S
N173 C171 1.379 . S
C174 N176 1.298 . S
C174 N178 1.367 . S
C174 C182 1.481 . S
C175 N177 1.299 . S
C175 N178 1.379 1_556 S
N176 Zn160 2.036 . S
N176 C174 1.298 . S
N176 N177 1.398 1_554 S
N177 C175 1.299 . S
N177 N176 1.398 1_556 S
N178 C174 1.367 . S
N178 C175 1.379 1_554 S
H179 C182 0.980 . S
H180 C182 0.981 . S
H181 C182 0.981 . S
C182 C174 1.481 . S
C182 H179 0.980 . S
C182 H180 0.981 . S
C182 H181 0.981 . S
C183 C170 1.481 1_556 S
C183 H184 0.981 . S
C183 H185 0.981 . S
C183 H186 0.981 . S
H184 C183 0.981 . S
H185 C183 0.981 . S
H186 C183 0.981 . S
O187 Zn163 2.066 1_556 S
O187 C166 1.256 . S
O188 Zn160 2.053 1_556 S
O188 C166 1.244 . S
C189 O167 1.259 . S
C189 O168 1.254 . S
O190 Zn160 2.066 . S
O190 C162 1.256 . S
O191 C162 1.244 . S
O191 Zn163 2.053 . S
Zn192 O193 2.055 . S
Zn192 O200 2.046 . S
Zn192 N208 2.036 . S
Zn192 O220 2.053 . S
Zn192 O222 2.066 1_556 S
O193 Zn192 2.055 . S
O193 C196 1.259 . S
C194 O222 1.256 . S
C194 O223 1.244 . S
Zn195 O197 2.046 . S
Zn195 O199 2.055 . S
Zn195 N201 2.036 . S
Zn195 O219 2.066 . S
Zn195 O223 2.053 1_556 S
C196 O193 1.259 . S
C196 O197 1.254 . S
O197 Zn195 2.046 . S
O197 C196 1.254 . S
C198 O219 1.256 . S
C198 O220 1.244 . S
O199 Zn195 2.055 . S
O199 C221 1.259 . S
O200 Zn192 2.046 . S
O200 C221 1.254 . S
N201 Zn195 2.036 . S
N201 C202 1.298 . S
N201 N204 1.398 1_556 S
C202 N201 1.298 . S
C202 N205 1.367 . S
C202 C215 1.481 . S
C203 N204 1.299 . S
C203 N205 1.379 1_554 S
N204 N201 1.398 1_554 S
N204 C203 1.299 . S
N205 C202 1.367 . S
N205 C203 1.379 1_556 S
C206 N208 1.298 . S
C206 N210 1.367 . S
C206 C214 1.481 1_556 S
C207 N209 1.299 . S
C207 N210 1.379 . S
N208 Zn192 2.036 . S
N208 C206 1.298 . S
N208 N209 1.398 . S
N209 C207 1.299 . S
N209 N208 1.398 . S
N210 C206 1.367 . S
N210 C207 1.379 . S
H211 C214 0.981 . S
H212 C214 0.981 . S
H213 C214 0.981 . S
C214 C206 1.481 1_554 S
C214 H211 0.981 . S
C214 H212 0.981 . S
C214 H213 0.981 . S
C215 C202 1.481 . S
C215 H216 0.980 . S
C215 H217 0.981 . S
C215 H218 0.981 . S
H216 C215 0.980 . S
H217 C215 0.981 . S
H218 C215 0.981 . S
O219 Zn195 2.066 . S
O219 C198 1.256 . S
O220 Zn192 2.053 . S
O220 C198 1.244 . S
C221 O199 1.259 . S
C221 O200 1.254 . S
O222 Zn192 2.066 1_554 S
O222 C194 1.256 . S
O223 C194 1.244 . S
O223 Zn195 2.053 1_554 S
Zn224 O225 2.055 . S
Zn224 O232 2.046 . S
Zn224 N240 2.036 . S
Zn224 O252 2.053 . S
Zn224 O254 2.066 1_556 S
O225 Zn224 2.055 . S
O225 C228 1.259 . S
C226 O254 1.256 . S
C226 O255 1.244 . S
Zn227 O229 2.046 . S
Zn227 O231 2.055 . S
Zn227 N233 2.036 . S
Zn227 O251 2.066 . S
Zn227 O255 2.053 1_556 S
C228 O225 1.259 . S
C228 O229 1.254 . S
O229 Zn227 2.046 . S
O229 C228 1.254 . S
C230 O251 1.256 . S
C230 O252 1.244 . S
O231 Zn227 2.055 . S
O231 C253 1.259 . S
O232 Zn224 2.046 . S
O232 C253 1.254 . S
N233 Zn227 2.036 . S
N233 C234 1.298 . S
N233 N236 1.398 1_556 S
C234 N233 1.298 . S
C234 N237 1.367 . S
C234 C247 1.481 . S
C235 N236 1.299 . S
C235 N237 1.379 1_554 S
N236 N233 1.398 1_554 S
N236 C235 1.299 . S
N237 C234 1.367 . S
N237 C235 1.379 1_556 S
C238 N240 1.298 . S
C238 N242 1.367 . S
C238 C246 1.481 1_556 S
C239 N241 1.299 . S
C239 N242 1.379 . S
N240 Zn224 2.036 . S
N240 C238 1.298 . S
N240 N241 1.398 . S
N241 C239 1.299 . S
N241 N240 1.398 . S
N242 C238 1.367 . S
N242 C239 1.379 . S
H243 C246 0.981 . S
H244 C246 0.981 . S
H245 C246 0.981 . S
C246 C238 1.481 1_554 S
C246 H243 0.981 . S
C246 H244 0.981 . S
C246 H245 0.981 . S
C247 C234 1.481 . S
C247 H248 0.980 . S
C247 H249 0.981 . S
C247 H250 0.981 . S
H248 C247 0.980 . S
H249 C247 0.981 . S
H250 C247 0.981 . S
O251 Zn227 2.066 . S
O251 C230 1.256 . S
O252 Zn224 2.053 . S
O252 C230 1.244 . S
C253 O231 1.259 . S
C253 O232 1.254 . S
O254 Zn224 2.066 1_554 S
O254 C226 1.256 . S
O255 C226 1.244 . S
O255 Zn227 2.053 1_554 S
C256 C257 1.369 . S
C256 C258 1.419 . S
C256 H260 0.930 . S
C257 C256 1.369 . S
C257 C266 1.429 . S
C258 C256 1.419 . S
C258 C259 1.363 . S
C258 H261 0.929 . S
C259 C258 1.363 . S
C259 C265 1.428 . S
H260 C256 0.930 . S
H261 C258 0.929 . S
S262 N263 1.613 . S
S262 N264 1.610 . S
N263 S262 1.613 . S
N263 C266 1.350 . S
N264 S262 1.610 . S
N264 C265 1.351 . S
C265 C259 1.428 . S
C265 N264 1.351 . S
C265 C266 1.434 . S
C266 C257 1.429 . S
C266 N263 1.350 . S
C266 C265 1.434 . S
C267 C268 1.369 . S
C267 C269 1.419 . S
C267 H271 0.930 . S
C268 C267 1.369 . S
C268 C277 1.429 . S
C269 C267 1.419 . S
C269 C270 1.363 . S
C269 H272 0.929 . S
C270 C269 1.363 . S
C270 C276 1.428 . S
H271 C267 0.930 . S
H272 C269 0.929 . S
S273 N274 1.613 . S
S273 N275 1.610 . S
N274 S273 1.613 . S
N274 C277 1.350 . S
N275 S273 1.610 . S
N275 C276 1.351 . S
C276 C270 1.428 . S
C276 N275 1.351 . S
C276 C277 1.434 . S
C277 C268 1.429 . S
C277 N274 1.350 . S
C277 C276 1.434 . S
C278 C279 1.369 . S
C278 C280 1.419 . S
C278 H282 0.930 . S
C279 C278 1.369 . S
C279 C288 1.429 . S
C280 C278 1.419 . S
C280 C281 1.363 . S
C280 H283 0.929 . S
C281 C280 1.363 . S
C281 C287 1.428 . S
H282 C278 0.930 . S
H283 C280 0.929 . S
S284 N285 1.613 . S
S284 N286 1.610 . S
N285 S284 1.613 . S
N285 C288 1.350 . S
N286 S284 1.610 . S
N286 C287 1.351 . S
C287 C281 1.428 . S
C287 N286 1.351 . S
C287 C288 1.434 . S
C288 C279 1.429 . S
C288 N285 1.350 . S
C288 C287 1.434 . S
C289 C290 1.369 . S
C289 C291 1.419 . S
C289 H293 0.930 . S
C290 C289 1.369 . S
C290 C299 1.429 . S
C291 C289 1.419 . S
C291 C292 1.363 . S
C291 H294 0.929 . S
C292 C291 1.363 . S
C292 C298 1.428 . S
H293 C289 0.930 . S
H294 C291 0.929 . S
S295 N296 1.613 . S
S295 N297 1.610 . S
N296 S295 1.613 . S
N296 C299 1.350 . S
N297 S295 1.610 . S
N297 C298 1.351 . S
C298 C292 1.428 . S
C298 N297 1.351 . S
C298 C299 1.434 . S
C299 C290 1.429 . S
C299 N296 1.350 . S
C299 C298 1.434 . S
C300 C301 1.369 . S
C300 C302 1.419 1_565 S
C300 H304 0.930 . S
C301 C300 1.369 . S
C301 C310 1.429 . S
C302 C300 1.419 1_545 S
C302 C303 1.363 . S
C302 H305 0.929 . S
C303 C302 1.363 . S
C303 C309 1.428 . S
H304 C300 0.930 . S
H305 C302 0.929 . S
S306 N307 1.595 1_545 S
S306 N308 1.628 . S
N307 S306 1.595 1_565 S
N307 C310 1.350 . S
N308 S306 1.628 . S
N308 C309 1.351 . S
C309 C303 1.428 . S
C309 N308 1.351 . S
C309 C310 1.434 1_545 S
C310 C301 1.429 . S
C310 N307 1.350 . S
C310 C309 1.434 1_565 S
C311 C312 1.369 . S
C311 C313 1.419 . S
C311 H315 0.930 . S
C312 C311 1.369 . S
C312 C321 1.429 . S
C313 C311 1.419 . S
C313 C314 1.363 . S
C313 H316 0.929 . S
C314 C313 1.363 . S
C314 C320 1.428 . S
H315 C311 0.930 . S
H316 C313 0.929 . S
S317 N318 1.613 . S
S317 N319 1.610 . S
N318 S317 1.613 . S
N318 C321 1.350 . S
N319 S317 1.610 . S
N319 C320 1.351 . S
C320 C314 1.428 . S
C320 N319 1.351 . S
C320 C321 1.434 . S
C321 C312 1.429 . S
C321 N318 1.350 . S
C321 C320 1.434 . S
C322 C323 1.369 . S
C322 C324 1.419 1_565 S
C322 H326 0.930 . S
C323 C322 1.369 . S
C323 C332 1.429 . S
C324 C322 1.419 1_545 S
C324 C325 1.363 . S
C324 H327 0.929 . S
C325 C324 1.363 . S
C325 C331 1.428 . S
H326 C322 0.930 . S
H327 C324 0.929 . S
S328 N329 1.613 1_545 S
S328 N330 1.610 . S
N329 S328 1.613 1_565 S
N329 C332 1.350 . S
N330 S328 1.610 . S
N330 C331 1.351 . S
C331 C325 1.428 . S
C331 N330 1.351 . S
C331 C332 1.434 1_545 S
C332 C323 1.429 . S
C332 N329 1.350 . S
C332 C331 1.434 1_565 S
C333 C334 1.369 . S
C333 C335 1.419 . S
C333 H337 0.930 . S
C334 C333 1.369 . S
C334 C343 1.429 . S
C335 C333 1.419 . S
C335 C336 1.363 . S
C335 H338 0.929 . S
C336 C335 1.363 . S
C336 C342 1.428 . S
H337 C333 0.930 . S
H338 C335 0.929 . S
S339 N340 1.613 . S
S339 N341 1.610 . S
N340 S339 1.613 . S
N340 C343 1.350 . S
N341 S339 1.610 . S
N341 C342 1.351 . S
C342 C336 1.428 . S
C342 N341 1.351 . S
C342 C343 1.434 . S
C343 C334 1.429 . S
C343 N340 1.350 . S
C343 C342 1.434 . S
C344 C345 1.369 . S
C344 C346 1.419 . S
C344 H348 0.930 . S
C345 C344 1.369 . S
C345 C354 1.429 1_554 S
C346 C344 1.419 . S
C346 C347 1.363 1_554 S
C346 H349 0.929 . S
C347 C346 1.363 1_556 S
C347 C353 1.428 . S
H348 C344 0.930 . S
H349 C346 0.929 . S
S350 N351 1.613 . S
S350 N352 1.610 . S
N351 S350 1.613 . S
N351 C354 1.350 . S
N352 S350 1.610 . S
N352 C353 1.351 . S
C353 C347 1.428 . S
C353 N352 1.351 . S
C353 C354 1.434 . S
C354 C345 1.429 1_556 S
C354 N351 1.350 . S
C354 C353 1.434 . S
C355 C356 1.369 . S
C355 C357 1.419 1_565 S
C355 H359 0.930 . S
C356 C355 1.369 . S
C356 C365 1.429 1_554 S
C357 C355 1.419 1_545 S
C357 C358 1.363 1_554 S
C357 H360 0.929 . S
C358 C357 1.363 1_556 S
C358 C364 1.428 . S
H359 C355 0.930 . S
H360 C357 0.929 . S
S361 N362 1.613 . S
S361 N363 1.610 1_565 S
N362 S361 1.613 . S
N362 C365 1.350 . S
N363 S361 1.610 1_545 S
N363 C364 1.351 . S
C364 C358 1.428 . S
C364 N363 1.351 . S
C364 C365 1.434 1_545 S
C365 C356 1.429 1_556 S
C365 N362 1.350 . S
C365 C364 1.434 1_565 S
C366 C367 1.369 . S
C366 C368 1.419 1_556 S
C366 H370 0.930 . S
C367 C366 1.369 . S
C367 C376 1.429 . S
C368 C366 1.419 1_554 S
C368 C369 1.363 . S
C368 H371 0.929 . S
C369 C368 1.363 . S
C369 C375 1.428 . S
H370 C366 0.930 . S
H371 C368 0.929 . S
S372 N373 1.613 1_554 S
S372 N374 1.610 . S
N373 S372 1.613 1_556 S
N373 C376 1.350 . S
N374 S372 1.610 . S
N374 C375 1.351 . S
C375 C369 1.428 . S
C375 N374 1.351 . S
C375 C376 1.434 1_554 S
C376 C367 1.429 . S
C376 N373 1.350 . S
C376 C375 1.434 1_556 S
C377 C378 1.369 1_554 S
C377 C379 1.419 1_545 S
C377 H381 0.930 . S
C378 C377 1.369 1_556 S
C378 C387 1.429 . S
C379 C377 1.419 1_565 S
C379 C380 1.363 . S
C379 H382 0.929 . S
C380 C379 1.363 . S
C380 C386 1.428 1_554 S
H381 C377 0.930 . S
H382 C379 0.929 . S
S383 N384 1.613 1_565 S
S383 N385 1.610 . S
N384 S383 1.613 1_545 S
N384 C387 1.350 . S
N385 S383 1.610 . S
N385 C386 1.351 . S
C386 C380 1.428 1_556 S
C386 N385 1.351 . S
C386 C387 1.434 1_565 S
C387 C378 1.429 . S
C387 N384 1.350 . S
C387 C386 1.434 1_545 S
C388 C389 1.369 . S
C388 C390 1.419 . S
C388 H392 0.930 . S
C389 C388 1.369 . S
C389 C398 1.429 . S
C390 C388 1.419 . S
C390 C391 1.363 1_554 S
C390 H393 0.929 1_554 S
C391 C390 1.363 1_556 S
C391 C397 1.428 1_556 S
H392 C388 0.930 . S
H393 C390 0.929 1_556 S
S394 N395 1.613 . S
S394 N396 1.610 1_554 S
N395 S394 1.613 . S
N395 C398 1.350 . S
N396 S394 1.610 1_556 S
N396 C397 1.351 1_556 S
C397 C391 1.428 1_554 S
C397 N396 1.351 1_554 S
C397 C398 1.434 . S
C398 C389 1.429 . S
C398 N395 1.350 . S
C398 C397 1.434 . S
C399 C400 1.369 . S
C399 C401 1.419 . S
C399 H403 0.930 . S
C400 C399 1.369 . S
C400 C409 1.429 . S
C401 C399 1.419 . S
C401 C402 1.363 1_554 S
C401 H404 0.929 1_554 S
C402 C401 1.363 1_556 S
C402 C408 1.428 1_556 S
H403 C399 0.930 . S
H404 C401 0.929 1_556 S
S405 N406 1.613 . S
S405 N407 1.610 1_554 S
N406 S405 1.613 . S
N406 C409 1.350 . S
N407 S405 1.610 1_556 S
N407 C408 1.351 1_556 S
C408 C402 1.428 1_554 S
C408 N407 1.351 1_554 S
C408 C409 1.434 . S
C409 C400 1.429 . S
C409 N406 1.350 . S
C409 C408 1.434 . S
C410 C411 1.369 1_556 S
C410 C412 1.419 . S
C410 H414 0.930 1_556 S
C411 C410 1.369 1_554 S
C411 C420 1.429 1_554 S
C412 C410 1.419 . S
C412 C413 1.363 . S
C412 H415 0.929 . S
C413 C412 1.363 . S
C413 C419 1.428 . S
H414 C410 0.930 1_554 S
H415 C412 0.929 . S
S416 N417 1.613 1_556 S
S416 N418 1.610 . S
N417 S416 1.613 1_554 S
N417 C420 1.350 1_554 S
N418 S416 1.610 . S
N418 C419 1.351 . S
C419 C413 1.428 . S
C419 N418 1.351 . S
C419 C420 1.434 . S
C420 C411 1.429 1_556 S
C420 N417 1.350 1_556 S
C420 C419 1.434 . S
C421 C422 1.369 . S
C421 C423 1.419 . S
C421 H425 0.930 . S
C422 C421 1.369 . S
C422 C431 1.429 . S
C423 C421 1.419 . S
C423 C424 1.363 1_556 S
C423 H426 0.929 1_556 S
C424 C423 1.363 1_554 S
C424 C430 1.428 1_554 S
H425 C421 0.930 . S
H426 C423 0.929 1_554 S
S427 N428 1.613 . S
S427 N429 1.610 1_556 S
N428 S427 1.613 . S
N428 C431 1.350 . S
N429 S427 1.610 1_554 S
N429 C430 1.351 1_554 S
C430 C424 1.428 1_556 S
C430 N429 1.351 1_556 S
C430 C431 1.434 . S
C431 C422 1.429 . S
C431 N428 1.350 . S
C431 C430 1.434 . S
C432 C433 1.369 . S
C432 C434 1.419 . S
C432 H436 0.930 . S
C433 C432 1.369 . S
C433 C442 1.429 . S
C434 C432 1.419 . S
C434 C435 1.363 . S
C434 H437 0.929 . S
C435 C434 1.363 . S
C435 C441 1.428 . S
H436 C432 0.930 . S
H437 C434 0.929 . S
S438 N439 1.613 . S
S438 N440 1.610 . S
N439 S438 1.613 . S
N439 C442 1.350 . S
N440 S438 1.610 . S
N440 C441 1.351 . S
C441 C435 1.428 . S
C441 N440 1.351 . S
C441 C442 1.434 . S
C442 C433 1.429 . S
C442 N439 1.350 . S
C442 C441 1.434 . S
C443 C444 1.369 . S
C443 C445 1.419 . S
C443 H447 0.930 . S
C444 C443 1.369 . S
C444 C453 1.429 . S
C445 C443 1.419 . S
C445 C446 1.363 . S
C445 H448 0.929 . S
C446 C445 1.363 . S
C446 C452 1.428 . S
H447 C443 0.930 . S
H448 C445 0.929 . S
S449 N450 1.613 . S
S449 N451 1.610 . S
N450 S449 1.613 . S
N450 C453 1.350 . S
N451 S449 1.610 . S
N451 C452 1.351 . S
C452 C446 1.428 . S
C452 N451 1.351 . S
C452 C453 1.434 . S
C453 C444 1.429 . S
C453 N450 1.350 . S
C453 C452 1.434 . S
C454 C455 1.369 . S
C454 C456 1.419 . S
C454 H458 0.930 . S
C455 C454 1.369 . S
C455 C464 1.429 . S
C456 C454 1.419 . S
C456 C457 1.363 . S
C456 H459 0.929 . S
C457 C456 1.363 . S
C457 C463 1.428 . S
H458 C454 0.930 . S
H459 C456 0.929 . S
S460 N461 1.613 . S
S460 N462 1.610 . S
N461 S460 1.613 . S
N461 C464 1.350 . S
N462 S460 1.610 . S
N462 C463 1.351 . S
C463 C457 1.428 . S
C463 N462 1.351 . S
C463 C464 1.434 . S
C464 C455 1.429 . S
C464 N461 1.350 . S
C464 C463 1.434 . S
C465 C466 1.369 . S
C465 C467 1.419 . S
C465 H469 0.930 . S
C466 C465 1.369 . S
C466 C475 1.429 . S
C467 C465 1.419 . S
C467 C468 1.363 . S
C467 H470 0.929 . S
C468 C467 1.363 . S
C468 C474 1.428 . S
H469 C465 0.930 . S
H470 C467 0.929 . S
S471 N472 1.613 . S
S471 N473 1.610 . S
N472 S471 1.613 . S
N472 C475 1.350 . S
N473 S471 1.610 . S
N473 C474 1.351 . S
C474 C468 1.428 . S
C474 N473 1.351 . S
C474 C475 1.434 . S
C475 C466 1.429 . S
C475 N472 1.350 . S
C475 C474 1.434 . S
C476 C477 1.369 . S
C476 C478 1.419 1_455 S
C476 H480 0.930 . S
C477 C476 1.369 . S
C477 C486 1.429 . S
C478 C476 1.419 1_655 S
C478 C479 1.363 . S
C478 H481 0.929 . S
C479 C478 1.363 . S
C479 C485 1.428 . S
H480 C476 0.930 . S
H481 C478 0.929 . S
S482 N483 1.615 1_655 S
S482 N484 1.609 . S
N483 S482 1.615 1_455 S
N483 C486 1.350 . S
N484 S482 1.609 . S
N484 C485 1.351 . S
C485 C479 1.428 . S
C485 N484 1.351 . S
C485 C486 1.434 1_655 S
C486 C477 1.429 . S
C486 N483 1.350 . S
C486 C485 1.434 1_455 S
C487 C488 1.369 . S
C487 C489 1.419 1_655 S
C487 H491 0.930 . S
C488 C487 1.369 . S
C488 C497 1.429 . S
C489 C487 1.419 1_455 S
C489 C490 1.363 . S
C489 H492 0.929 . S
C490 C489 1.363 . S
C490 C496 1.428 . S
H491 C487 0.930 . S
H492 C489 0.929 . S
S493 N494 1.612 . S
S493 N495 1.611 1_655 S
N494 S493 1.612 . S
N494 C497 1.350 . S
N495 S493 1.611 1_455 S
N495 C496 1.351 . S
C496 C490 1.428 . S
C496 N495 1.351 . S
C496 C497 1.434 1_455 S
C497 C488 1.429 . S
C497 N494 1.350 . S
C497 C496 1.434 1_655 S
C498 C499 1.369 . S
C498 C500 1.419 . S
C498 H502 0.930 . S
C499 C498 1.369 . S
C499 C508 1.429 1_554 S
C500 C498 1.419 . S
C500 C501 1.363 . S
C500 H503 0.929 . S
C501 C500 1.363 . S
C501 C507 1.428 1_554 S
H502 C498 0.930 . S
H503 C500 0.929 . S
S504 N505 1.613 . S
S504 N506 1.610 . S
N505 S504 1.613 . S
N505 C508 1.350 . S
N506 S504 1.610 . S
N506 C507 1.351 . S
C507 C501 1.428 1_556 S
C507 N506 1.351 . S
C507 C508 1.434 . S
C508 C499 1.429 1_556 S
C508 N505 1.350 . S
C508 C507 1.434 . S
C509 C510 1.369 1_554 S
C509 C511 1.419 . S
C509 H513 0.930 . S
C510 C509 1.369 1_556 S
C510 C519 1.429 . S
C511 C509 1.419 . S
C511 C512 1.363 1_554 S
C511 H514 0.929 . S
C512 C511 1.363 1_556 S
C512 C518 1.428 . S
H513 C509 0.930 . S
H514 C511 0.929 . S
S515 N516 1.613 . S
S515 N517 1.610 . S
N516 S515 1.613 . S
N516 C519 1.350 . S
N517 S515 1.610 . S
N517 C518 1.351 . S
C518 C512 1.428 . S
C518 N517 1.351 . S
C518 C519 1.434 . S
C519 C510 1.429 . S
C519 N516 1.350 . S
C519 C518 1.434 . S
C257 C2 1.654 . S
C259 C230 1.651 . S
C268 C198 1.651 . S
C270 C38 1.653 . S
C279 C162 1.651 . S
C281 C70 1.652 . S
C290 C130 1.649 . S
C292 C98 1.654 . S
C301 N82 1.560 . S
C303 N13 1.564 . S
C312 N50 1.565 . S
C314 N109 1.559 . S
C323 N114 1.465 . S
C325 N45 1.455 . S
C334 N77 1.453 . S
C336 N18 1.463 . S
C345 N141 1.565 . S
C347 N210 1.559 . S
C356 N173 1.565 . S
C358 N242 1.559 . S
C367 N237 1.463 . S
C369 N178 1.461 . S
C378 N205 1.455 . S
C380 N146 1.454 . S
C389 C6 1.360 . S
C391 C4 1.358 . S
C400 C34 1.360 . S
C402 C61 1.357 . S
C411 C93 1.355 . S
C413 C66 1.361 . S
C422 C102 1.360 . S
C424 C100 1.356 . S
C433 C132 1.355 . S
C435 C134 1.361 . S
C444 C166 1.359 . S
C446 C164 1.358 . S
C455 C194 1.361 . S
C457 C221 1.355 . S
C466 C226 1.361 . S
C468 C253 1.355 . S
C477 C29 1.562 . S
C479 C36 1.562 . S
C488 C125 1.560 . S
C490 C68 1.561 . S
C499 C157 1.559 . S
C501 C189 1.560 . S
C510 C228 1.557 . S
C512 C196 1.559 . S
