# Generated by pormake.
# Topology wjd, (6)-cn, num edge types: 1
# Building blocks:
#     Node 0, Type 0, BuildingBlock: BETFAJ_clean_sbu_0, # of connection points: 6
#     Node 1, Type 0, BuildingBlock: BETFAJ_clean_sbu_0, # of connection points: 6
#     Node 2, Type 0, BuildingBlock: BETFAJ_clean_sbu_0, # of connection points: 6
#     Node 3, Type 0, BuildingBlock: BETFAJ_clean_sbu_0, # of connection points: 6
#     Node 4, Type 0, BuildingBlock: BETFAJ_clean_sbu_0, # of connection points: 6
#     Node 5, Type 0, BuildingBlock: BETFAJ_clean_sbu_0, # of connection points: 6
#     Node 6, Type 0, BuildingBlock: BETFAJ_clean_sbu_0, # of connection points: 6
#     Node 7, Type 0, BuildingBlock: BETFAJ_clean_sbu_0, # of connection points: 6
#     Node 8, Type 0, BuildingBlock: BETFAJ_clean_sbu_0, # of connection points: 6
#     Node 9, Type 0, BuildingBlock: BETFAJ_clean_sbu_0, # of connection points: 6
#     Node 10, Type 0, BuildingBlock: BETFAJ_clean_sbu_0, # of connection points: 6
#     Node 11, Type 0, BuildingBlock: BETFAJ_clean_sbu_0, # of connection points: 6
#     Edge 12, Type (0, 0), BuildingBlock: XIVTED_clean_linker_0, # of connection points: 2
#     Edge 13, Type (0, 0), BuildingBlock: XIVTED_clean_linker_0, # of connection points: 2
#     Edge 14, Type (0, 0), BuildingBlock: XIVTED_clean_linker_0, # of connection points: 2
#     Edge 15, Type (0, 0), BuildingBlock: XIVTED_clean_linker_0, # of connection points: 2
#     Edge 16, Type (0, 0), BuildingBlock: XIVTED_clean_linker_0, # of connection points: 2
#     Edge 17, Type (0, 0), BuildingBlock: XIVTED_clean_linker_0, # of connection points: 2
#     Edge 18, Type (0, 0), BuildingBlock: XIVTED_clean_linker_0, # of connection points: 2
#     Edge 19, Type (0, 0), BuildingBlock: XIVTED_clean_linker_0, # of connection points: 2
#     Edge 20, Type (0, 0), BuildingBlock: XIVTED_clean_linker_0, # of connection points: 2
#     Edge 21, Type (0, 0), BuildingBlock: XIVTED_clean_linker_0, # of connection points: 2
#     Edge 22, Type (0, 0), BuildingBlock: XIVTED_clean_linker_0, # of connection points: 2
#     Edge 23, Type (0, 0), BuildingBlock: XIVTED_clean_linker_0, # of connection points: 2
#     Edge 24, Type (0, 0), BuildingBlock: XIVTED_clean_linker_0, # of connection points: 2
#     Edge 25, Type (0, 0), BuildingBlock: XIVTED_clean_linker_0, # of connection points: 2
#     Edge 26, Type (0, 0), BuildingBlock: XIVTED_clean_linker_0, # of connection points: 2
#     Edge 27, Type (0, 0), BuildingBlock: XIVTED_clean_linker_0, # of connection points: 2
#     Edge 28, Type (0, 0), BuildingBlock: XIVTED_clean_linker_0, # of connection points: 2
#     Edge 29, Type (0, 0), BuildingBlock: XIVTED_clean_linker_0, # of connection points: 2
#     Edge 30, Type (0, 0), BuildingBlock: XIVTED_clean_linker_0, # of connection points: 2
#     Edge 31, Type (0, 0), BuildingBlock: XIVTED_clean_linker_0, # of connection points: 2
#     Edge 32, Type (0, 0), BuildingBlock: XIVTED_clean_linker_0, # of connection points: 2
#     Edge 33, Type (0, 0), BuildingBlock: XIVTED_clean_linker_0, # of connection points: 2
#     Edge 34, Type (0, 0), BuildingBlock: XIVTED_clean_linker_0, # of connection points: 2
#     Edge 35, Type (0, 0), BuildingBlock: XIVTED_clean_linker_0, # of connection points: 2
#     Edge 36, Type (0, 0), BuildingBlock: XIVTED_clean_linker_0, # of connection points: 2
#     Edge 37, Type (0, 0), BuildingBlock: XIVTED_clean_linker_0, # of connection points: 2
#     Edge 38, Type (0, 0), BuildingBlock: XIVTED_clean_linker_0, # of connection points: 2
#     Edge 39, Type (0, 0), BuildingBlock: XIVTED_clean_linker_0, # of connection points: 2
#     Edge 40, Type (0, 0), BuildingBlock: XIVTED_clean_linker_0, # of connection points: 2
#     Edge 41, Type (0, 0), BuildingBlock: XIVTED_clean_linker_0, # of connection points: 2
#     Edge 42, Type (0, 0), BuildingBlock: XIVTED_clean_linker_0, # of connection points: 2
#     Edge 43, Type (0, 0), BuildingBlock: XIVTED_clean_linker_0, # of connection points: 2
#     Edge 44, Type (0, 0), BuildingBlock: XIVTED_clean_linker_0, # of connection points: 2
#     Edge 45, Type (0, 0), BuildingBlock: XIVTED_clean_linker_0, # of connection points: 2
#     Edge 46, Type (0, 0), BuildingBlock: XIVTED_clean_linker_0, # of connection points: 2
#     Edge 47, Type (0, 0), BuildingBlock: XIVTED_clean_linker_0, # of connection points: 2
# Relax obj value: 0.106
# Max RMSD: 0.220
# Mean RMSD: 0.220
data_MOF--net-wjd--node1-BETFAJ_clean_sbu_0--edge1-XIVTED_clean_linker_0
_symmetry_space_group_name_H-M    P1
_symmetry_Int_Tables_number       1
_symmetry_cell_setting            triclinic
loop_
_symmetry_equiv_pos_as_xyz
'x, y, z'
_cell_length_a     40.986289
_cell_length_b     40.970933
_cell_length_c     52.460981
_cell_angle_alpha  90.050384
_cell_angle_beta   89.959893
_cell_angle_gamma 120.09216
loop_
_atom_site_label
_atom_site_type_symbol
_atom_site_fract_x
_atom_site_fract_y
_atom_site_fract_z
_atom_type_partial_charge
Sm0 Sm 0.37188 0.17916 0.12157 0.0
Sm1 Sm 0.32914 0.10075 0.14147 0.0
C2 C 0.42205 0.25095 0.11159 0.0
C3 C 0.46264 0.2801 0.11364 0.0
C4 C 0.48061 0.29258 0.13742 0.0
C5 C 0.51637 0.32501 0.13914 0.0
C6 C 0.53491 0.34579 0.11714 0.0
C7 C 0.51821 0.33131 0.09326 0.0
C8 C 0.48248 0.29899 0.09156 0.0
C9 C 0.33927 0.12254 0.08469 0.0
C10 C 0.41854 0.13683 0.1361 0.0
C11 C 0.27646 0.02915 0.14751 0.0
C12 C 0.23464 1.00762 0.14765 0.0
C13 C 0.21363 1.00914 0.12693 0.0
C14 C 0.17435 0.98614 0.12642 0.0
C15 C 0.15515 0.96129 0.14666 0.0
C16 C 0.17601 0.96139 0.16797 0.0
C17 C 0.21535 0.9842 0.16839 0.0
C18 C 0.36156 0.15245 0.18013 0.0
C19 C 0.2853 0.14984 0.13094 0.0
O20 O 0.40228 0.2396 0.13259 0.0
O21 O 0.41213 0.22388 0.09491 0.0
O22 O 0.35723 0.12288 0.10415 0.0
O23 O 0.33781 0.15351 0.08368 0.0
O24 O 0.41872 0.16897 0.13581 0.0
O25 O 0.38666 0.1041 0.13537 0.0
O26 O 0.29289 0.04341 0.12569 0.0
O27 O 0.29314 0.05186 0.16672 0.0
O28 O 0.34516 0.15653 0.1608 0.0
O29 O 0.36108 0.12052 0.17905 0.0
O30 O 0.28234 0.11623 0.13303 0.0
O31 O 0.31826 0.18051 0.12835 0.0
H32 H 0.46629 0.2785 0.15484 0.0
H33 H 0.52825 0.33515 0.15787 0.0
H34 H 0.53204 0.34594 0.07586 0.0
H35 H 0.46951 0.28987 0.07297 0.0
H36 H 0.22754 0.02742 0.11081 0.0
H37 H 0.15904 0.98723 0.10993 0.0
H38 H 0.16214 0.94251 0.18383 0.0
H39 H 0.23084 0.98275 0.18466 0.0
Sm40 Sm 0.79565 0.70477 0.40562 0.0
Sm41 Sm 0.83127 0.65808 0.42621 0.0
C42 C 0.77869 0.75863 0.4108 0.0
C43 C 0.79734 0.79989 0.40631 0.0
C44 C 0.81465 0.82467 0.42694 0.0
C45 C 0.83159 0.8636 0.42374 0.0
C46 C 0.8313 0.87892 0.39988 0.0
C47 C 0.81478 0.85429 0.37904 0.0
C48 C 0.798 0.81513 0.38221 0.0
C49 C 0.82165 0.68483 0.36376 0.0
C50 C 0.88929 0.74447 0.41326 0.0
C51 C 0.84957 0.60664 0.4389 0.0
C52 C 0.84089 0.56751 0.43457 0.0
C53 C 0.83024 0.54999 0.41058 0.0
C54 C 0.8268 0.51448 0.4067 0.0
C55 C 0.83397 0.49602 0.42674 0.0
C56 C 0.84241 0.51292 0.45103 0.0
C57 C 0.84583 0.54822 0.45484 0.0
C58 C 0.80591 0.69055 0.46204 0.0
C59 C 0.74394 0.61401 0.40639 0.0
O60 O 0.79441 0.7488 0.42859 0.0
O61 O 0.76681 0.73531 0.39125 0.0
O62 O 0.82449 0.67612 0.38662 0.0
O63 O 0.80323 0.70299 0.36267 0.0
O64 O 0.85954 0.74849 0.40969 0.0
O65 O 0.88638 0.71174 0.41852 0.0
O66 O 0.86613 0.63112 0.4205 0.0
O67 O 0.82466 0.61144 0.45136 0.0
O68 O 0.79 0.67391 0.44177 0.0
O69 O 0.83755 0.69073 0.46442 0.0
O70 O 0.77614 0.6141 0.40742 0.0
O71 O 0.74227 0.64547 0.40855 0.0
H72 H 0.81452 0.81391 0.44583 0.0
H73 H 0.84346 0.88158 0.44029 0.0
H74 H 0.81435 0.86528 0.36035 0.0
H75 H 0.78513 0.79687 0.36591 0.0
H76 H 0.82574 0.56419 0.39472 0.0
H77 H 0.81958 0.50198 0.38787 0.0
H78 H 0.84855 0.49995 0.46688 0.0
H79 H 0.85392 0.56119 0.47351 0.0
Sm80 Sm 0.85091 0.20024 0.12113 0.0
Sm81 Sm 0.93308 0.23594 0.14067 0.0
C82 C 0.78111 0.18159 0.10806 0.0
C83 C 0.75067 0.19028 0.11225 0.0
C84 C 0.74481 0.20266 0.13589 0.0
C85 C 0.71287 0.2063 0.13977 0.0
C86 C 0.68631 0.19755 0.12008 0.0
C87 C 0.69376 0.18732 0.09607 0.0
C88 C 0.72554 0.18377 0.09225 0.0
C89 C 0.90794 0.22448 0.08484 0.0
C90 C 0.8942 0.28765 0.14032 0.0
C91 C 1.00451 0.25449 0.13677 0.0
C92 C 0.02628 0.23498 0.14145 0.0
C93 C 0.02884 0.21223 0.12229 0.0
C94 C 0.05127 0.19581 0.12565 0.0
C95 C 0.07207 0.20194 0.14816 0.0
C96 C 0.06826 0.22327 0.1678 0.0
C97 C 0.04565 0.23966 0.16448 0.0
C98 C 0.88819 0.20856 0.18312 0.0
C99 C 0.8797 0.14276 0.13289 0.0
O100 O 0.78894 0.16518 0.12656 0.0
O101 O 0.81095 0.20652 0.0957 0.0
O102 O 0.90755 0.24139 0.10468 0.0
O103 O 0.87708 0.192 0.08349 0.0
O104 O 0.86203 0.2554 0.13987 0.0
O105 O 0.92718 0.28919 0.13781 0.0
O106 O 0.98048 0.24105 0.1179 0.0
O107 O 0.99167 0.26457 0.15645 0.0
O108 O 0.87581 0.20609 0.16055 0.0
O109 O 0.92475 0.22685 0.18366 0.0
O110 O 0.91394 0.17278 0.13332 0.0
O111 O 0.84928 0.14565 0.13083 0.0
H112 H 0.76423 0.2084 0.15151 0.0
H113 H 0.70847 0.21496 0.15835 0.0
H114 H 0.67397 0.17992 0.08048 0.0
H115 H 0.72967 0.17439 0.07383 0.0
H116 H 1.01435 0.2079 0.10426 0.0
H117 H 0.05384 0.17996 0.11002 0.0
H118 H 0.08358 0.22812 0.18552 0.0
H119 H 0.04408 0.25671 0.17968 0.0
Sm120 Sm 0.32828 0.09927 0.4055 0.0
Sm121 Sm 0.37313 0.18048 0.42578 0.0
C122 C 0.27583 0.02758 0.40891 0.0
C123 C 0.23426 1.00623 0.4055 0.0
C124 C 0.21069 1.00539 0.42535 0.0
C125 C 0.1717 0.9825 0.42367 0.0
C126 C 0.15515 0.95971 0.40219 0.0
C127 C 0.1782 0.96228 0.38155 0.0
C128 C 0.21755 0.98527 0.38324 0.0
C129 C 0.34445 0.14373 0.36328 0.0
C130 C 0.28666 0.1511 0.4137 0.0
C131 C 0.42417 0.25077 0.43842 0.0
C132 C 0.46397 0.28095 0.43488 0.0
C133 C 0.47943 0.29477 0.41065 0.0
C134 C 0.51499 0.32735 0.4083 0.0
C135 C 0.53572 0.34682 0.43011 0.0
C136 C 0.52136 0.33103 0.4542 0.0
C137 C 0.48587 0.29863 0.45653 0.0
C138 C 0.34002 0.123 0.46197 0.0
C139 C 0.41915 0.13903 0.40614 0.0
O140 O 0.2879 0.0508 0.42827 0.0
O141 O 0.29741 0.04121 0.38867 0.0
O142 O 0.35472 0.15686 0.38576 0.0
O143 O 0.32735 0.1072 0.36281 0.0
O144 O 0.28307 0.11734 0.41093 0.0
O145 O 0.31942 0.18151 0.41793 0.0
O146 O 0.40074 0.24236 0.4193 0.0
O147 O 0.41787 0.22135 0.45188 0.0
O148 O 0.35788 0.12374 0.44226 0.0
O149 O 0.3386 0.15394 0.46328 0.0
O150 O 0.41858 0.17079 0.40815 0.0
O151 O 0.38777 0.10566 0.40714 0.0
H152 H 0.2223 0.02137 0.44273 0.0
H153 H 0.15449 0.98128 0.43974 0.0
H154 H 0.16603 0.94486 0.36479 0.0
H155 H 0.23489 0.98557 0.36755 0.0
H156 H 0.4634 0.28148 0.39356 0.0
H157 H 0.52507 0.33854 0.38942 0.0
H158 H 0.53689 0.34458 0.4714 0.0
H159 H 0.47479 0.28832 0.47542 0.0
Sm160 Sm 0.83196 0.65833 0.12051 0.0
Sm161 Sm 0.79569 0.70441 0.14064 0.0
C162 C 0.85013 0.60644 0.10853 0.0
C163 C 0.84032 0.56667 0.11232 0.0
C164 C 0.83834 0.5514 0.13666 0.0
C165 C 0.83521 0.51583 0.13925 0.0
C166 C 0.83422 0.49499 0.11758 0.0
C167 C 0.83321 0.50919 0.09336 0.0
C168 C 0.83636 0.54463 0.0908 0.0
C169 C 0.80762 0.69139 0.08439 0.0
C170 C 0.74375 0.61368 0.13916 0.0
C171 C 0.77776 0.7576 0.13596 0.0
C172 C 0.79671 0.79885 0.14074 0.0
C173 C 0.81773 0.82429 0.12115 0.0
C174 C 0.83387 0.86314 0.12464 0.0
C175 C 0.8291 0.87764 0.14771 0.0
C176 C 0.80938 0.85238 0.16768 0.0
C177 C 0.79332 0.81338 0.16423 0.0
C178 C 0.82081 0.68438 0.18291 0.0
C179 C 0.8896 0.74496 0.13314 0.0
O180 O 0.86553 0.63021 0.12749 0.0
O181 O 0.82705 0.61266 0.09496 0.0
O182 O 0.79091 0.67412 0.10433 0.0
O183 O 0.83964 0.69216 0.08265 0.0
O184 O 0.7759 0.61368 0.13808 0.0
O185 O 0.74228 0.64526 0.1374 0.0
O186 O 0.7924 0.74742 0.11759 0.0
O187 O 0.76668 0.73442 0.15554 0.0
O188 O 0.82426 0.6758 0.16011 0.0
O189 O 0.80227 0.70241 0.18368 0.0
O190 O 0.85962 0.74864 0.13674 0.0
O191 O 0.88706 0.71233 0.12803 0.0
H192 H 0.84091 0.56757 0.15364 0.0
H193 H 0.836 0.50582 0.15821 0.0
H194 H 0.83154 0.49356 0.07628 0.0
H195 H 0.83742 0.55558 0.07183 0.0
H196 H 0.82092 0.81419 0.10275 0.0
H197 H 0.84844 0.88166 0.10875 0.0
H198 H 0.80558 0.86274 0.1858 0.0
H199 H 0.77757 0.79464 0.17975 0.0
Sm200 Sm 0.93399 0.23736 0.40616 0.0
Sm201 Sm 0.85109 0.19916 0.42629 0.0
C202 C 1.00582 0.25695 0.40872 0.0
C203 C 0.02662 0.23606 0.40591 0.0
C204 C 0.02721 0.21368 0.42606 0.0
C205 C 0.04928 0.19663 0.42453 0.0
C206 C 0.07148 0.20154 0.4029 0.0
C207 C 0.06916 0.22183 0.38205 0.0
C208 C 0.04705 0.23911 0.3836 0.0
C209 C 0.88818 0.211 0.36408 0.0
C210 C 0.88174 0.14387 0.41213 0.0
C211 C 0.7797 0.17749 0.43693 0.0
C212 C 0.75068 0.18894 0.43547 0.0
C213 C 0.74116 0.1994 0.4123 0.0
C214 C 0.70875 0.20269 0.41056 0.0
C215 C 0.68518 0.19528 0.43189 0.0
C216 C 0.69671 0.18818 0.45547 0.0
C217 C 0.72905 0.18499 0.45721 0.0
C218 C 0.90839 0.22111 0.46197 0.0
C219 C 0.89569 0.28981 0.41144 0.0
O220 O 0.98391 0.24837 0.42871 0.0
O221 O 0.99105 0.26268 0.38823 0.0
O222 O 0.87652 0.20762 0.38693 0.0
O223 O 0.9247 0.22961 0.3631 0.0
O224 O 0.91587 0.17413 0.4126 0.0
O225 O 0.851 0.14614 0.41428 0.0
O226 O 0.79058 0.1692 0.41564 0.0
O227 O 0.80703 0.19466 0.45344 0.0
O228 O 0.9077 0.23941 0.44298 0.0
O229 O 0.87751 0.18844 0.46286 0.0
O230 O 0.8636 0.2584 0.41574 0.0
O231 O 0.92832 0.29077 0.40833 0.0
H232 H 1.01152 0.21014 0.44345 0.0
H233 H 0.05009 0.18068 0.44074 0.0
H234 H 0.08603 0.22611 0.36514 0.0
H235 H 0.04691 0.25584 0.36767 0.0
H236 H 0.75756 0.20308 0.39524 0.0
H237 H 0.70078 0.20837 0.39213 0.0
H238 H 0.67963 0.18318 0.47237 0.0
H239 H 0.73599 0.17734 0.47534 0.0
Sm240 Sm 0.10772 0.32342 0.6356 0.0
Sm241 Sm 0.18422 0.36738 0.62199 0.0
C242 C 0.03646 0.26995 0.63068 0.0
C243 C 1.01452 0.22891 0.63607 0.0
C244 C 0.01891 0.20325 0.62063 0.0
C245 C 0.99561 0.16446 0.62387 0.0
C246 C 0.96716 0.15021 0.64252 0.0
C247 C 0.96438 0.17573 0.6591 0.0
C248 C 0.98775 0.21476 0.65581 0.0
C249 C 0.14174 0.34272 0.68194 0.0
C250 C 0.15942 0.2824 0.63274 0.0
C251 C 0.25467 0.41843 0.60824 0.0
C252 C 0.28655 0.45756 0.6114 0.0
C253 C 0.29226 0.47859 0.6338 0.0
C254 C 0.32493 0.51416 0.63676 0.0
C255 C 0.35277 0.52928 0.61748 0.0
C256 C 0.34566 0.5086 0.59465 0.0
C257 C 0.31303 0.47341 0.59168 0.0
C258 C 0.1326 0.33625 0.58169 0.0
C259 C 0.14323 0.41268 0.63729 0.0
O260 O 0.06135 0.28025 0.61241 0.0
O261 O 0.04841 0.29325 0.65005 0.0
O262 O 0.16039 0.34233 0.6622 0.0
O263 O 0.1068 0.33204 0.67717 0.0
O264 O 0.12534 0.27791 0.63103 0.0
O265 O 0.18924 0.31623 0.63208 0.0
O266 O 0.24659 0.39468 0.627 0.0
O267 O 0.22473 0.41364 0.59631 0.0
O268 O 0.13208 0.3555 0.60005 0.0
O269 O 0.15972 0.32906 0.58521 0.0
O270 O 0.17424 0.41157 0.64099 0.0
O271 O 0.11194 0.38167 0.63079 0.0
H272 H 0.03958 0.21297 0.60543 0.0
H273 H 0.99903 0.14555 0.61114 0.0
H274 H 0.94277 0.16565 0.67368 0.0
H275 H 0.98397 0.23384 0.66814 0.0
H276 H 0.27194 0.46719 0.6492 0.0
H277 H 0.32862 0.52939 0.65438 0.0
H278 H 0.36612 0.51847 0.57936 0.0
H279 H 0.30918 0.45785 0.57416 0.0
Sm280 Sm 0.2039 0.84486 0.92557 0.0
Sm281 Sm 0.242 0.92739 0.90564 0.0
C282 C 0.18337 0.77439 0.93831 0.0
C283 C 0.19308 0.7444 0.93513 0.0
C284 C 0.20883 0.73981 0.91254 0.0
C285 C 0.21354 0.70833 0.9094 0.0
C286 C 0.2025 0.6809 0.92878 0.0
C287 C 0.18881 0.68709 0.95184 0.0
C288 C 0.18422 0.71841 0.95493 0.0
C289 C 0.22578 0.90182 0.96162 0.0
C290 C 0.29251 0.88686 0.90744 0.0
C291 C 0.26312 0.99985 0.90671 0.0
C292 C 0.24268 0.02105 0.90389 0.0
C293 C 0.21228 0.01371 0.92002 0.0
C294 C 0.19554 0.03618 0.91904 0.0
C295 C 0.20865 0.06656 0.90189 0.0
C296 C 0.23739 0.07231 0.88461 0.0
C297 C 0.25429 0.04985 0.88566 0.0
C298 C 0.21555 0.8813 0.8634 0.0
C299 C 0.14872 0.87583 0.9124 0.0
O300 O 0.16967 0.78311 0.91861 0.0
O301 O 0.20608 0.80362 0.95213 0.0
O302 O 0.24452 0.90171 0.94267 0.0
O303 O 0.19316 0.87103 0.9621 0.0
O304 O 0.26006 0.85507 0.90936 0.0
O305 O 0.29474 0.92035 0.90831 0.0
O306 O 0.25539 0.97901 0.92717 0.0
O307 O 0.26708 0.98359 0.88636 0.0
O308 O 0.21217 0.8699 0.88625 0.0
O309 O 0.23444 0.91779 0.86245 0.0
O310 O 0.17913 0.90984 0.91332 0.0
O311 O 0.1508 0.84486 0.91361 0.0
H312 H 0.21645 0.75989 0.8971 0.0
H313 H 0.22491 0.705 0.89158 0.0
H314 H 0.17953 0.66666 0.96715 0.0
H315 H 0.17224 0.72151 0.97256 0.0
H316 H 0.2019 0.99117 0.93392 0.0
H317 H 0.17282 0.03023 0.93218 0.0
H318 H 0.2482 0.09537 0.8711 0.0
H319 H 0.27726 0.05577 0.87277 0.0
Sm320 Sm 0.71084 0.79163 0.64075 0.0
Sm321 Sm 0.66356 0.8257 0.62071 0.0
C322 C 0.76575 0.77634 0.63566 0.0
C323 C 0.80656 0.79527 0.64172 0.0
C324 C 0.83312 0.82042 0.62399 0.0
C325 C 0.8717 0.83655 0.62845 0.0
C326 C 0.88471 0.82752 0.65054 0.0
C327 C 0.85839 0.80348 0.66873 0.0
C328 C 0.81962 0.78757 0.6644 0.0
C329 C 0.69016 0.81537 0.68336 0.0
C330 C 0.74956 0.88506 0.63343 0.0
C331 C 0.6115 0.84324 0.60845 0.0
C332 C 0.5726 0.83438 0.61384 0.0
C333 C 0.55821 0.82869 0.63879 0.0
C334 C 0.52332 0.82614 0.64347 0.0
C335 C 0.50228 0.82889 0.62326 0.0
C336 C 0.51564 0.83184 0.5982 0.0
C337 C 0.55053 0.83472 0.59358 0.0
C338 C 0.6963 0.80133 0.58436 0.0
C339 C 0.62038 0.73773 0.6392 0.0
O340 O 0.75663 0.79319 0.61824 0.0
O341 O 0.74107 0.76218 0.65438 0.0
O342 O 0.68096 0.81887 0.66071 0.0
O343 O 0.70907 0.7977 0.68367 0.0
O344 O 0.75399 0.85565 0.63716 0.0
O345 O 0.71679 0.88175 0.62796 0.0
O346 O 0.637 0.86089 0.62611 0.0
O347 O 0.61583 0.81788 0.59621 0.0
O348 O 0.67991 0.78515 0.60459 0.0
O349 O 0.69611 0.83282 0.58225 0.0
O350 O 0.61936 0.76937 0.6383 0.0
O351 O 0.65245 0.73725 0.63728 0.0
H352 H 0.8242 0.8269 0.6062 0.0
H353 H 0.8913 0.85445 0.61392 0.0
H354 H 0.86781 0.79612 0.68595 0.0
H355 H 0.79996 0.76846 0.67844 0.0
H356 H 0.57454 0.82775 0.6547 0.0
H357 H 0.51338 0.8233 0.66292 0.0
H358 H 0.50022 0.83427 0.58225 0.0
H359 H 0.56106 0.83894 0.5742 0.0
Sm360 Sm 0.18572 0.36576 0.92705 0.0
Sm361 Sm 0.10822 0.32477 0.90712 0.0
C362 C 0.25687 0.41555 0.93848 0.0
C363 C 0.28607 0.45538 0.93403 0.0
C364 C 0.29475 0.47087 0.90935 0.0
C365 C 0.32705 0.50601 0.90511 0.0
C366 C 0.35074 0.52642 0.92551 0.0
C367 C 0.34018 0.51244 0.9504 0.0
C368 C 0.30826 0.47709 0.95459 0.0
C369 C 0.13007 0.33088 0.96394 0.0
C370 C 0.14422 0.41355 0.9132 0.0
C371 C 0.03686 0.27267 0.89906 0.0
C372 C 1.01483 0.23078 0.89956 0.0
C373 C 1.01112 0.21068 0.92213 0.0
C374 C 0.98784 0.1715 0.92294 0.0
C375 C 0.96779 0.15137 0.9012 0.0
C376 C 0.97312 0.1711 0.87824 0.0
C377 C 0.99629 0.21047 0.87748 0.0
C378 C 0.16041 0.35807 0.8684 0.0
C379 C 0.1556 0.27946 0.91691 0.0
O380 O 0.24692 0.39248 0.91907 0.0
O381 O 0.22857 0.40892 0.95329 0.0
O382 O 0.12959 0.35005 0.94545 0.0
O383 O 0.16091 0.32927 0.96385 0.0
O384 O 0.17616 0.41328 0.91276 0.0
O385 O 0.11146 0.38186 0.91431 0.0
O386 O 0.04938 0.29 0.92088 0.0
O387 O 0.06131 0.28837 0.88062 0.0
O388 O 0.16385 0.3409 0.88746 0.0
O389 O 0.12922 0.35891 0.87037 0.0
O390 O 0.12234 0.27721 0.91549 0.0
O391 O 0.18687 0.31199 0.91901 0.0
H392 H 0.27773 0.45507 0.89317 0.0
H393 H 0.33441 0.51655 0.88579 0.0
H394 H 0.35802 0.52767 0.96644 0.0
H395 H 0.30201 0.46586 0.97379 0.0
H396 H 0.02534 0.22523 0.93943 0.0
H397 H 0.98471 0.15698 0.94081 0.0
H398 H 0.95794 0.15636 0.86121 0.0
H399 H 0.99887 0.22518 0.85978 0.0
Sm400 Sm 0.24258 0.92864 0.64161 0.0
Sm401 Sm 0.20322 0.84461 0.62091 0.0
C402 C 0.26378 1.00112 0.64114 0.0
C403 C 0.24362 0.02264 0.6442 0.0
C404 C 0.2264 0.02896 0.62304 0.0
C405 C 0.20889 0.05058 0.62532 0.0
C406 C 0.20845 0.06694 0.64876 0.0
C407 C 0.22448 0.0596 0.67018 0.0
C408 C 0.24189 0.03771 0.66793 0.0
C409 C 0.2159 0.88111 0.68304 0.0
C410 C 0.14871 0.87668 0.63436 0.0
C411 C 0.1819 0.77258 0.61331 0.0
C412 C 0.19529 0.74497 0.61519 0.0
C413 C 0.20008 0.73184 0.6389 0.0
C414 C 0.20502 0.70039 0.64024 0.0
C415 C 0.20521 0.68133 0.61792 0.0
C416 C 0.20419 0.69693 0.59422 0.0
C417 C 0.19897 0.72812 0.5929 0.0
C418 C 0.22392 0.90162 0.58504 0.0
C419 C 0.29426 0.88918 0.63429 0.0
O420 O 0.25597 0.98054 0.62054 0.0
O421 O 0.26772 0.98447 0.66128 0.0
O422 O 0.21272 0.87095 0.65988 0.0
O423 O 0.23502 0.91757 0.68473 0.0
O424 O 0.1792 0.91076 0.63545 0.0
O425 O 0.15072 0.84585 0.63152 0.0
O426 O 0.17551 0.78537 0.63449 0.0
O427 O 0.196 0.79802 0.59526 0.0
O428 O 0.24262 0.90205 0.60425 0.0
O429 O 0.19318 0.86893 0.58322 0.0
O430 O 0.2625 0.85754 0.63006 0.0
O431 O 0.29571 0.92194 0.63845 0.0
H432 H 0.22724 0.01804 0.60442 0.0
H433 H 0.19735 0.05599 0.60834 0.0
H434 H 0.22425 0.07141 0.68862 0.0
H435 H 0.25462 0.03324 0.68466 0.0
H436 H 0.19789 0.74443 0.65651 0.0
H437 H 0.2059 0.68952 0.65888 0.0
H438 H 0.20553 0.6839 0.57659 0.0
H439 H 0.19583 0.73782 0.57436 0.0
Sm440 Sm 0.66754 0.83035 0.92655 0.0
Sm441 Sm 0.71027 0.78907 0.90668 0.0
C442 C 0.61709 0.85198 0.93412 0.0
C443 C 0.57607 0.83903 0.9335 0.0
C444 C 0.55513 0.82819 0.91067 0.0
C445 C 0.51913 0.82441 0.90965 0.0
C446 C 0.50349 0.83163 0.93137 0.0
C447 C 0.52289 0.83852 0.95467 0.0
C448 C 0.55877 0.84235 0.95567 0.0
C449 C 0.70204 0.80831 0.96282 0.0
C450 C 0.61875 0.73893 0.91316 0.0
C451 C 0.76089 0.76718 0.90906 0.0
C452 C 0.80264 0.78665 0.90632 0.0
C453 C 0.82559 0.79936 0.92817 0.0
C454 C 0.86483 0.8171 0.9262 0.0
C455 C 0.88232 0.82232 0.90231 0.0
C456 C 0.85947 0.8104 0.88034 0.0
C457 C 0.82008 0.79276 0.88232 0.0
C458 C 0.68986 0.81456 0.8646 0.0
C459 C 0.7543 0.88382 0.91302 0.0
O460 O 0.63459 0.85618 0.91242 0.0
O461 O 0.62972 0.83964 0.95245 0.0
O462 O 0.68339 0.78966 0.9437 0.0
O463 O 0.70235 0.84023 0.96402 0.0
O464 O 0.62029 0.77126 0.91772 0.0
O465 O 0.64961 0.73652 0.90932 0.0
O466 O 0.74839 0.77663 0.92905 0.0
O467 O 0.74048 0.7623 0.88863 0.0
O468 O 0.68334 0.81917 0.88762 0.0
O469 O 0.7065 0.79473 0.86354 0.0
O470 O 0.75681 0.85279 0.91109 0.0
O471 O 0.72204 0.8828 0.91657 0.0
H472 H 0.56736 0.8248 0.89327 0.0
H473 H 0.50493 0.81868 0.89141 0.0
H474 H 0.51125 0.84306 0.97195 0.0
H475 H 0.57396 0.85019 0.97358 0.0
H476 H 0.8132 0.79505 0.94698 0.0
H477 H 0.88133 0.82533 0.94356 0.0
H478 H 0.872 0.81433 0.8616 0.0
H479 H 0.80335 0.78358 0.86506 0.0
H480 H 0.14374 0.24262 0.1665 0.0
H481 H 0.20973 0.09525 0.1283 0.0
H482 H 0.06675 0.1349 0.13259 0.0
H483 H 0.28431 0.21457 0.14029 0.0
H484 H 0.15547 0.10477 0.13483 0.0
H485 H 0.19382 0.22736 0.16372 0.0
C486 C 0.13713 0.2154 0.1589 0.0
C487 C 0.10094 0.19011 0.14969 0.0
C488 C 0.1838 0.12873 0.13598 0.0
C489 C 0.15872 0.17269 0.14589 0.0
C490 C 0.21471 0.12335 0.13225 0.0
C491 C 0.25164 0.15416 0.13364 0.0
C492 C 0.19008 0.16501 0.14159 0.0
C493 C 0.25645 0.18995 0.13883 0.0
C494 C 0.16593 0.20686 0.15702 0.0
C495 C 0.09438 0.15545 0.13963 0.0
N496 N 0.22615 0.19428 0.14272 0.0
N497 N 0.12306 0.14778 0.13789 0.0
H498 H 0.12205 0.90801 0.43942 0.0
H499 H 0.91274 0.80775 0.38376 0.0
H500 H 0.0976 0.94254 0.36772 0.0
H501 H 0.95261 0.75679 0.43815 0.0
H502 H 0.97738 0.86167 0.38008 0.0
H503 H 0.05691 0.85709 0.44204 0.0
C504 C 0.10274 0.90497 0.42429 0.0
C505 C 0.1151 0.92953 0.40338 0.0
C506 C 0.97182 0.83866 0.39281 0.0
C507 C 0.04023 0.87099 0.40618 0.0
C508 C 0.93503 0.80808 0.39505 0.0
C509 C 0.92743 0.77784 0.4113 0.0
C510 C 1.00084 0.83918 0.40736 0.0
C511 C 0.95727 0.77939 0.4253 0.0
C512 C 0.0656 0.87575 0.42571 0.0
C513 C 0.08906 0.92402 0.38411 0.0
N514 N 0.99252 0.8096 0.42312 0.0
N515 N 0.05261 0.89533 0.38601 0.0
H516 H 0.93302 0.12112 0.12689 0.0
H517 H 0.78931 0.90807 0.16842 0.0
H518 H 0.81574 0.07763 0.14552 0.0
H519 H 0.89472 0.93973 0.13072 0.0
H520 H 0.80393 0.97336 0.16634 0.0
H521 H 0.92382 0.05752 0.13288 0.0
C522 C 0.9054 0.09827 0.13224 0.0
C523 C 0.87506 0.10469 0.13564 0.0
C524 C 0.82405 0.96616 0.15866 0.0
C525 C 0.8646 0.03231 0.14289 0.0
C526 C 0.81591 0.92888 0.16013 0.0
C527 C 0.84071 0.91827 0.14964 0.0
C528 C 0.85732 0.99331 0.14667 0.0
C529 C 0.87454 0.94658 0.13875 0.0
C530 C 0.9002 0.06205 0.13565 0.0
C531 C 0.8399 0.07406 0.14252 0.0
N532 N 0.88181 0.98283 0.13743 0.0
N533 N 0.83573 0.03936 0.146 0.0
H534 H 0.27295 0.19851 0.44165 0.0
H535 H 0.08856 0.16294 0.36673 0.0
H536 H 0.22436 0.11395 0.38275 0.0
H537 H 0.12105 0.21465 0.44099 0.0
H538 H 0.1395 0.1475 0.36919 0.0
H539 H 0.21904 0.20813 0.4387 0.0
C540 C 0.25079 0.18192 0.42808 0.0
C541 C 0.25296 0.15531 0.41251 0.0
C542 C 0.13514 0.16196 0.38496 0.0
C543 C 0.19118 0.16653 0.40869 0.0
C544 C 0.10627 0.17088 0.38353 0.0
C545 C 0.10047 0.1899 0.40377 0.0
C546 C 0.15866 0.17292 0.40655 0.0
C547 C 0.12412 0.19951 0.42511 0.0
C548 C 0.21994 0.18732 0.42643 0.0
C549 C 0.22342 0.13447 0.39529 0.0
N550 N 0.15219 0.19117 0.42583 0.0
N551 N 0.19378 0.14075 0.39363 0.0
H552 H 0.09942 0.93902 0.18319 0.0
H553 H 0.94849 0.76405 0.10106 0.0
H554 H 0.11777 0.91826 0.10531 0.0
H555 H 0.91683 0.80219 0.16826 0.0
H556 H 1.0119 0.81913 0.10375 0.0
H557 H 0.0335 0.88796 0.1797 0.0
C558 C 0.08955 0.9239 0.16534 0.0
C559 C 0.11422 0.93296 0.14451 0.0
C560 C 0.99114 0.81561 0.11791 0.0
C561 C 0.03906 0.8744 0.14047 0.0
C562 C 0.95503 0.78411 0.11641 0.0
C563 C 0.92754 0.77875 0.13442 0.0
C564 C 1.0002 0.84156 0.13795 0.0
C565 C 0.93728 0.80562 0.15388 0.0
C566 C 0.05193 0.89488 0.16333 0.0
C567 C 0.09978 0.91261 0.12178 0.0
N568 N 0.97299 0.83572 0.15531 0.0
N569 N 0.06338 0.88416 0.12046 0.0
H570 H 0.89454 0.93891 0.42115 0.0
H571 H 0.82193 0.08251 0.39121 0.0
H572 H 0.79793 0.91239 0.37418 0.0
H573 H 0.93126 0.11924 0.42438 0.0
H574 H 0.8134 0.01981 0.38531 0.0
H575 H 0.90984 1.00495 0.4225 0.0
C576 C 0.87677 0.94703 0.4109 0.0
C577 C 0.84468 0.91993 0.39767 0.0
C578 C 0.83936 0.04149 0.39381 0.0
C579 C 0.86195 0.99532 0.39928 0.0
C580 C 0.84416 0.0773 0.39734 0.0
C581 C 0.8773 0.10608 0.4084 0.0
C582 C 0.86765 0.03398 0.40173 0.0
C583 C 0.90533 0.09782 0.4157 0.0
C584 C 0.88559 0.98473 0.41165 0.0
C585 C 0.82304 0.93219 0.38447 0.0
N586 N 0.89973 0.06235 0.41245 0.0
N587 N 0.83182 0.9688 0.38586 0.0
H588 H 0.14658 0.064 0.62536 0.0
H589 H 0.21895 0.28102 0.6544 0.0
H590 H 0.24067 0.13409 0.67439 0.0
H591 H 0.11086 0.2084 0.61951 0.0
H592 H 0.22707 0.22664 0.66083 0.0
H593 H 0.13191 0.11509 0.62258 0.0
C594 C 0.16394 0.08994 0.63573 0.0
C595 C 0.19517 0.0948 0.64996 0.0
C596 C 0.20149 0.22243 0.65179 0.0
C597 C 0.17863 0.15337 0.64673 0.0
C598 C 0.19697 0.25358 0.64796 0.0
C599 C 0.16427 0.24926 0.63631 0.0
C600 C 0.17337 0.18655 0.64362 0.0
C601 C 0.13649 0.21291 0.62863 0.0
C602 C 0.15547 0.11904 0.63417 0.0
C603 C 0.21623 0.12881 0.66331 0.0
N604 N 0.1418 0.18293 0.63223 0.0
N605 N 0.20783 0.15681 0.66113 0.0
H606 H 0.091 0.82355 0.88406 0.0
H607 H 0.93984 0.87973 0.93004 0.0
H608 H 0.12108 0.91905 0.93305 0.0
H609 H 0.91947 0.79777 0.87134 0.0
H610 H 1.00629 0.89649 0.93106 0.0
H611 H 0.02815 0.8152 0.87899 0.0
C612 C 0.08422 0.84272 0.89383 0.0
C613 C 0.11112 0.8719 0.90907 0.0
C614 C 0.98732 0.87515 0.91778 0.0
C615 C 0.03886 0.86234 0.90358 0.0
C616 C 0.94933 0.86544 0.91723 0.0
C617 C 0.92375 0.83693 0.90075 0.0
C618 C 0.99982 0.85603 0.90187 0.0
C619 C 0.93795 0.81999 0.88428 0.0
C620 C 0.04837 0.83808 0.89083 0.0
C621 C 0.10107 0.89627 0.92104 0.0
N622 N 0.97479 0.8295 0.88547 0.0
N623 N 0.06552 0.8907 0.91828 0.0
H624 H 0.78424 0.93398 0.59458 0.0
H625 H 0.93474 0.10169 0.68339 0.0
H626 H 0.78989 0.92192 0.67573 0.0
H627 H 0.93222 0.10611 0.60128 0.0
H628 H 0.8829 0.03583 0.68175 0.0
H629 H 0.83957 0.99734 0.59717 0.0
C630 C 0.79724 0.94492 0.61295 0.0
C631 C 0.78282 0.92307 0.63496 0.0
C632 C 0.89393 0.05123 0.66412 0.0
C633 C 0.84575 0.99552 0.6383 0.0
C634 C 0.92343 0.0888 0.66506 0.0
C635 C 0.93792 0.10948 0.64243 0.0
C636 C 0.87859 0.03447 0.64041 0.0
C637 C 0.9224 0.09124 0.6192 0.0
C638 C 0.82883 0.98098 0.61449 0.0
C639 C 0.80056 0.93813 0.65835 0.0
N640 N 0.89356 0.05503 0.61883 0.0
N641 N 0.83103 0.97363 0.65947 0.0
H642 H 0.1689 0.25247 0.87344 0.0
H643 H 0.19237 0.09338 0.94502 0.0
H644 H 0.14951 0.22987 0.95382 0.0
H645 H 0.19427 0.10329 0.86304 0.0
H646 H 0.17516 0.14209 0.94832 0.0
H647 H 0.1775 0.19757 0.86889 0.0
C648 C 0.16612 0.23556 0.89006 0.0
C649 C 0.15825 0.2452 0.91398 0.0
C650 C 0.17898 0.13343 0.92957 0.0
C651 C 0.16845 0.1829 0.90912 0.0
C652 C 0.18857 0.1053 0.92763 0.0
C653 C 0.19491 0.09406 0.90368 0.0
C654 C 0.17584 0.15087 0.90744 0.0
C655 C 0.19027 0.11136 0.88193 0.0
C656 C 0.17102 0.20432 0.8875 0.0
C657 C 0.15528 0.22296 0.93504 0.0
N658 N 0.18124 0.13902 0.88433 0.0
N659 N 0.16056 0.1929 0.93215 0.0
H660 H 0.08172 0.81077 0.63342 0.0
H661 H 0.94726 0.89782 0.64354 0.0
H662 H 0.12812 0.93113 0.64094 0.0
H663 H 0.9136 0.78228 0.66092 0.0
H664 H 1.01319 0.91239 0.64042 0.0
H665 H 0.01917 0.80138 0.63962 0.0
C666 C 0.07889 0.8354 0.63639 0.0
C667 C 0.11053 0.87188 0.6369 0.0
C668 C 0.99135 0.88402 0.64523 0.0
C669 C 0.03809 0.861 0.64417 0.0
C670 C 0.95387 0.87572 0.64704 0.0
C671 C 0.92505 0.83879 0.65256 0.0
C672 C 0.9997 0.85497 0.64842 0.0
C673 C 0.93496 0.81117 0.65693 0.0
C674 C 0.04294 0.82989 0.64007 0.0
C675 C 0.10458 0.9025 0.64057 0.0
N676 N 0.97132 0.81972 0.65447 0.0
N677 N 0.06894 0.89638 0.64406 0.0
H678 H 0.91346 0.11907 0.93737 0.0
H679 H 0.82046 0.90659 0.88635 0.0
H680 H 0.9549 0.09167 0.86982 0.0
H681 H 0.76579 0.94728 0.93705 0.0
H682 H 0.87444 0.9715 0.88309 0.0
H683 H 0.86374 0.05341 0.94075 0.0
C684 C 0.91233 0.09905 0.92338 0.0
C685 C 0.93851 0.11083 0.90339 0.0
C686 C 0.85061 0.96601 0.89497 0.0
C687 C 0.88122 0.03519 0.90705 0.0
C688 C 0.82001 0.92904 0.89697 0.0
C689 C 0.78859 0.92161 0.91192 0.0
C690 C 0.84992 0.99537 0.90846 0.0
C691 C 0.78925 0.95173 0.92513 0.0
C692 C 0.88374 0.06155 0.92521 0.0
C693 C 0.93518 0.08372 0.88551 0.0
N694 N 0.81935 0.98708 0.92315 0.0
N695 N 0.9071 0.04703 0.8878 0.0
H696 H 0.41149 0.19047 0.33928 0.0
H697 H 0.30338 0.15218 0.20577 0.0
H698 H 0.29133 0.14136 0.33179 0.0
H699 H 0.42069 0.18569 0.213 0.0
H700 H 0.30126 0.16305 0.25164 0.0
H701 H 0.41832 0.20495 0.2934 0.0
C702 C 0.38675 0.18432 0.3282 0.0
C703 C 0.35085 0.16516 0.33935 0.0
C704 C 0.32779 0.1691 0.24313 0.0
C705 C 0.35814 0.18019 0.28673 0.0
C706 C 0.32906 0.16326 0.21687 0.0
C707 C 0.36242 0.16854 0.20558 0.0
C708 C 0.36015 0.18038 0.25822 0.0
C709 C 0.39455 0.18165 0.22099 0.0
C710 C 0.39053 0.19201 0.30192 0.0
C711 C 0.31955 0.15657 0.32393 0.0
N712 N 0.39259 0.18691 0.24649 0.0
N713 N 0.32383 0.16371 0.29844 0.0
H714 H 0.88801 0.7149 0.33732 0.0
H715 H 0.77067 0.62472 0.21058 0.0
H716 H 0.77233 0.62537 0.33548 0.0
H717 H 0.88638 0.7143 0.21038 0.0
H718 H 0.77586 0.61469 0.25598 0.0
H719 H 0.89342 0.70524 0.29156 0.0
C720 C 0.86428 0.69207 0.3275 0.0
C721 C 0.82987 0.67042 0.34024 0.0
C722 C 0.8006 0.63579 0.24598 0.0
C723 C 0.83513 0.66035 0.28767 0.0
C724 C 0.79774 0.64115 0.21992 0.0
C725 C 0.82837 0.66979 0.2066 0.0
C726 C 0.83421 0.65982 0.2591 0.0
C727 C 0.86235 0.69135 0.21986 0.0
C728 C 0.86716 0.68689 0.30129 0.0
C729 C 0.79956 0.64216 0.32645 0.0
N730 N 0.86423 0.68631 0.24545 0.0
N731 N 0.80271 0.63832 0.30093 0.0
H732 H 0.87409 0.14718 0.21083 0.0
H733 H 0.85543 0.24398 0.33721 0.0
H734 H 0.85673 0.24238 0.21066 0.0
H735 H 0.87439 0.14979 0.33618 0.0
H736 H 0.84033 0.23448 0.29151 0.0
H737 H 0.85864 0.13805 0.25632 0.0
C738 C 0.86543 0.16519 0.2202 0.0
C739 C 0.86595 0.1951 0.20689 0.0
C740 C 0.84658 0.21507 0.3014 0.0
C741 C 0.8501 0.18619 0.25942 0.0
C742 C 0.85464 0.22017 0.3276 0.0
C743 C 0.86539 0.19714 0.34057 0.0
C744 C 0.84991 0.18707 0.288 0.0
C745 C 0.8655 0.16769 0.32697 0.0
C746 C 0.85708 0.16032 0.24629 0.0
C747 C 0.85583 0.21848 0.22014 0.0
N748 N 0.85842 0.1638 0.30144 0.0
N749 N 0.84893 0.21392 0.24573 0.0
H750 H 0.21341 0.37332 0.70362 0.0
H751 H 0.12698 0.2943 0.84095 0.0
H752 H 0.09499 0.31206 0.72261 0.0
H753 H 0.2156 0.41038 0.83648 0.0
H754 H 0.13071 0.28862 0.7948 0.0
H755 H 0.22821 0.37667 0.74986 0.0
C756 C 0.19067 0.36035 0.71734 0.0
C757 C 0.15295 0.34268 0.70908 0.0
C758 C 0.15025 0.31502 0.80398 0.0
C759 C 0.16951 0.34562 0.76145 0.0
C760 C 0.1483 0.31819 0.83031 0.0
C761 C 0.17107 0.35279 0.84245 0.0
C762 C 0.17516 0.34663 0.78951 0.0
C763 C 0.19764 0.3832 0.82769 0.0
C764 C 0.19911 0.36244 0.74362 0.0
C765 C 0.12453 0.32624 0.72776 0.0
N766 N 0.19873 0.37961 0.8018 0.0
N767 N 0.13341 0.32804 0.7528 0.0
H768 H 0.25851 0.86047 0.83638 0.0
H769 H 0.14968 0.85306 0.70911 0.0
H770 H 0.15098 0.85509 0.83557 0.0
H771 H 0.25804 0.86032 0.71101 0.0
H772 H 0.14185 0.83761 0.75476 0.0
H773 H 0.25134 0.84458 0.79093 0.0
C774 C 0.23256 0.85421 0.82684 0.0
C775 C 0.20496 0.85833 0.83985 0.0
C776 C 0.16684 0.84135 0.74508 0.0
C777 C 0.19717 0.84185 0.78736 0.0
C778 C 0.17103 0.8496 0.71889 0.0
C779 C 0.20423 0.85719 0.70614 0.0
C780 C 0.19647 0.84147 0.75875 0.0
C781 C 0.23166 0.85383 0.71998 0.0
C782 C 0.22865 0.84564 0.80076 0.0
C783 C 0.17257 0.85144 0.82632 0.0
N784 N 0.22746 0.84682 0.74553 0.0
N785 N 0.16978 0.84406 0.80078 0.0
H786 H 0.63568 0.76088 0.71185 0.0
H787 H 0.71534 0.88124 0.83855 0.0
H788 H 0.71259 0.88065 0.71066 0.0
H789 H 0.63269 0.76298 0.83615 0.0
H790 H 0.70533 0.88571 0.79265 0.0
H791 H 0.62497 0.76458 0.75722 0.0
C792 C 0.64904 0.78831 0.721 0.0
C793 C 0.67436 0.8206 0.70736 0.0
C794 C 0.68851 0.85903 0.80231 0.0
C795 C 0.66369 0.82506 0.75996 0.0
C796 C 0.69383 0.85664 0.82861 0.0
C797 C 0.67432 0.82179 0.84122 0.0
C798 C 0.66403 0.82615 0.78855 0.0
C799 C 0.6478 0.7905 0.82724 0.0
C800 C 0.64331 0.79042 0.74706 0.0
C801 C 0.69217 0.85522 0.72039 0.0
N802 N 0.64387 0.79328 0.80173 0.0
N803 N 0.68695 0.85649 0.74606 0.0
H804 H 0.19966 0.95067 0.97129 0.0
H805 H 0.34836 0.06103 0.08335 0.0
H806 H 0.2846 0.92457 0.99471 0.0
H807 H 0.29114 0.11012 0.0439 0.0
H808 H 0.31986 1.00729 0.05416 0.0
H809 H 0.22723 1.00542 1.00041 0.0
C810 C 0.2238 0.95622 0.98284 0.0
C811 C 0.23985 0.93305 0.98064 0.0
C812 C 0.31353 0.02979 0.05175 0.0
C813 C 0.27122 0.99521 1.01434 0.0
C814 C 0.3298 0.06059 0.06849 0.0
C815 C 0.32222 0.09034 0.06618 0.0
C816 C 0.28901 0.02815 0.03244 0.0
C817 C 0.29786 0.08793 0.04645 0.0
C818 C 0.23967 0.98756 0.99934 0.0
C819 C 0.27138 0.94172 0.99581 0.0
N820 N 0.28201 0.05737 0.03045 0.0
N821 N 0.28576 0.97176 1.01211 0.0
H822 H 0.74151 0.69452 0.45672 0.0
H823 H 0.70453 0.73959 0.59059 0.0
H824 H 0.83293 0.72335 0.50921 0.0
H825 H 0.72393 0.82562 0.53556 0.0
H826 H 0.73419 0.71517 0.56152 0.0
H827 H 0.71692 0.72459 0.48538 0.0
C828 C 0.75658 0.70731 0.4742 0.0
C829 C 0.79004 0.70726 0.48017 0.0
C830 C 0.73203 0.73946 0.55592 0.0
C831 C 0.76072 0.74004 0.51361 0.0
C832 C 0.71523 0.75357 0.57247 0.0
C833 C 0.71276 0.78558 0.56592 0.0
C834 C 0.74474 0.75608 0.53196 0.0
C835 C 0.7259 0.80144 0.54167 0.0
C836 C 0.74244 0.72443 0.49049 0.0
C837 C 0.80749 0.72326 0.50358 0.0
N838 N 0.74089 0.78624 0.52542 0.0
N839 N 0.79238 0.73858 0.5196 0.0
H840 H 0.07733 0.25643 0.97009 0.0
H841 H 0.97031 0.29465 0.08476 0.0
H842 H 0.11263 0.36656 1.00089 0.0
H843 H 0.92051 0.1891 0.04402 0.0
H844 H 0.02508 0.31958 0.05657 0.0
H845 H 0.02248 0.22946 0.99902 0.0
C846 C 0.07374 0.27477 0.98325 0.0
C847 C 0.09952 0.31366 0.98325 0.0
C848 C 1.00221 0.291 0.05365 0.0
C849 C 0.03715 0.28319 1.01655 0.0
C850 C 0.97081 0.27668 0.06979 0.0
C851 C 0.94064 0.2396 0.06686 0.0
C852 C 1.00381 0.26825 0.03418 0.0
C853 C 0.94306 0.21778 0.04704 0.0
C854 C 0.04239 0.25947 0.99966 0.0
C855 C 0.09346 0.33638 1.0004 0.0
N856 N 0.97408 0.23236 0.03153 0.0
N857 N 0.06313 0.32084 1.01641 0.0
H858 H 0.29519 0.11354 0.50389 0.0
H859 H 0.27129 0.91279 0.54494 0.0
H860 H 0.34503 0.05855 0.46252 0.0
H861 H 0.20927 0.95977 0.58026 0.0
H862 H 0.29881 0.96599 0.51482 0.0
H863 H 0.26555 0.05921 0.53303 0.0
C864 C 0.29987 0.09006 0.50087 0.0
C865 C 0.32245 0.09067 0.48047 0.0
C866 C 0.27931 0.96488 0.52919 0.0
C867 C 0.28829 0.02789 0.51388 0.0
C868 C 0.26349 0.93438 0.54634 0.0
C869 C 0.23829 0.93208 0.56534 0.0
C870 C 0.27045 0.99389 0.53122 0.0
C871 C 0.22898 0.96074 0.56613 0.0
C872 C 0.2828 0.0589 0.5175 0.0
C873 C 0.32769 0.05939 0.4778 0.0
N874 N 0.24529 0.99054 0.54959 0.0
N875 N 0.31076 0.02945 0.49414 0.0
H876 H 0.73767 0.68435 0.0844 0.0
H877 H 0.77672 0.8299 0.9696 0.0
H878 H 0.84276 0.73872 0.04319 0.0
H879 H 0.66601 0.75377 0.99908 0.0
H880 H 0.80319 0.8017 0.99858 0.0
H881 H 0.7129 0.71406 0.05592 0.0
C882 C 0.75559 0.70249 0.06928 0.0
C883 C 0.7925 0.709 0.06632 0.0
C884 C 0.77315 0.79135 0.9989 0.0
C885 C 0.76402 0.74348 0.03329 0.0
C886 C 0.75807 0.80761 0.98246 0.0
C887 C 0.71909 0.79418 0.98193 0.0
C888 C 0.74922 0.76195 1.01548 0.0
C889 C 0.6962 0.76495 0.99882 0.0
C890 C 0.74135 0.71949 0.05296 0.0
C891 C 0.81421 0.73286 0.04628 0.0
N892 N 0.71154 0.75005 1.01492 0.0
N893 N 0.79975 0.74928 0.03065 0.0
H894 H 0.10686 0.26966 0.55409 0.0
H895 H 0.9518 0.2939 0.47701 0.0
H896 H 0.08526 0.36099 0.56708 0.0
H897 H 0.93808 0.1837 0.48896 0.0
H898 H 1.00608 0.32079 0.50581 0.0
H899 H 0.05099 0.23953 0.52588 0.0
C900 C 0.09075 0.28362 0.55076 0.0
C901 C 0.10106 0.31817 0.5628 0.0
C902 C 0.99125 0.2907 0.50224 0.0
C903 C 0.03722 0.2839 0.53058 0.0
C904 C 0.96021 0.2753 0.48577 0.0
C905 C 0.94013 0.23643 0.48068 0.0
C906 C 1.00337 0.26737 0.51334 0.0
C907 C 0.95246 0.21375 0.49259 0.0
C908 C 0.05867 0.26624 0.53487 0.0
C909 C 0.07862 0.33455 0.55811 0.0
N910 N 0.98352 0.22958 0.50813 0.0
N911 N 0.04817 0.31753 0.54234 0.0
H912 H 0.64224 0.17218 0.1632 0.0
H913 H 0.46281 0.16197 0.09483 0.0
H914 H 0.64472 0.21598 0.08795 0.0
H915 H 0.45928 0.12228 0.1713 0.0
H916 H 0.52956 0.18121 0.09209 0.0
H917 H 0.57673 0.15678 0.1677 0.0
C918 C 0.62935 0.17918 0.14775 0.0
C919 C 0.64906 0.19475 0.12492 0.0
C920 C 0.51427 0.16787 0.10941 0.0
C921 C 0.57339 0.17598 0.12973 0.0
C922 C 0.47606 0.15641 0.11082 0.0
C923 C 0.45551 0.13966 0.13306 0.0
C924 C 0.53234 0.16296 0.13056 0.0
C925 C 0.47405 0.13414 0.15358 0.0
C926 C 0.59167 0.16989 0.15025 0.0
C927 C 0.63049 0.20297 0.10561 0.0
N928 N 0.51156 0.14588 0.15187 0.0
N929 N 0.59368 0.19311 0.10835 0.0
H930 H 0.7315 0.55412 0.37732 0.0
H931 H 0.55519 0.40786 0.46102 0.0
H932 H 0.68087 0.58756 0.4362 0.0
H933 H 0.59288 0.37482 0.39406 0.0
H934 H 0.60497 0.47283 0.45445 0.0
H935 H 0.68277 0.48819 0.38384 0.0
C936 C 0.70944 0.54757 0.39119 0.0
C937 C 0.70968 0.57635 0.40589 0.0
C938 C 0.60244 0.4514 0.44119 0.0
C939 C 0.65471 0.50077 0.41424 0.0
C940 C 0.57424 0.41403 0.44511 0.0
C941 C 0.56935 0.38555 0.42792 0.0
C942 C 0.62616 0.46075 0.41988 0.0
C943 C 0.59494 0.3958 0.40752 0.0
C944 C 0.6819 0.50991 0.3951 0.0
C945 C 0.68107 0.56633 0.424 0.0
N946 N 0.62208 0.43253 0.40401 0.0
N947 N 0.65495 0.52932 0.42785 0.0
H948 H 0.9296 0.34833 0.10856 0.0
H949 H 0.80286 0.43719 0.153 0.0
H950 H 0.84865 0.3026 0.16967 0.0
H951 H 0.87751 0.47636 0.08801 0.0
H952 H 0.81865 0.38743 0.1595 0.0
H953 H 0.9122 0.3969 0.10168 0.0
C954 C 0.90913 0.34938 0.12109 0.0
C955 C 0.89112 0.32202 0.14006 0.0
C956 C 0.83142 0.40684 0.14375 0.0
C957 C 0.87023 0.37673 0.13195 0.0
C958 C 0.8224 0.43527 0.14003 0.0
C959 C 0.83912 0.46137 0.12007 0.0
C960 C 0.85768 0.40469 0.12756 0.0
C961 C 0.8637 0.45691 0.10359 0.0
C962 C 0.89868 0.37666 0.11691 0.0
C963 C 0.86358 0.32362 0.15509 0.0
N964 N 0.87246 0.42947 0.10784 0.0
N965 N 0.85401 0.35047 0.15075 0.0
H966 H 0.44152 0.09132 0.42628 0.0
H967 H 0.6623 0.23838 0.40497 0.0
H968 H 0.48362 0.19712 0.38664 0.0
H969 H 0.61958 0.13831 0.45135 0.0
H970 H 0.59717 0.22336 0.39697 0.0
H971 H 0.50683 0.10615 0.43319 0.0
C972 C 0.46442 0.11714 0.41844 0.0
C973 C 0.45709 0.14285 0.40573 0.0
C974 C 0.6021 0.20476 0.40896 0.0
C975 C 0.53186 0.16054 0.41407 0.0
C976 C 0.63928 0.21338 0.41355 0.0
C977 C 0.64647 0.18956 0.42884 0.0
C978 C 0.57187 0.17176 0.4194 0.0
C979 C 0.61549 0.15772 0.43967 0.0
C980 C 0.50173 0.12592 0.42271 0.0
C981 C 0.48797 0.17641 0.39652 0.0
N982 N 0.57968 0.14964 0.4346 0.0
N983 N 0.52389 0.18433 0.40095 0.0
H984 H 0.59557 0.37183 0.15026 0.0
H985 H 0.68026 0.58894 0.11004 0.0
H986 H 0.5509 0.40869 0.08934 0.0
H987 H 0.7309 0.55237 0.16682 0.0
H988 H 0.63097 0.52296 0.10345 0.0
H989 H 0.64534 0.43747 0.15687 0.0
C990 C 0.59626 0.3936 0.13819 0.0
C991 C 0.56861 0.38451 0.11934 0.0
C992 C 0.65251 0.52939 0.11766 0.0
C993 C 0.62542 0.45994 0.12698 0.0
C994 C 0.68025 0.56712 0.1217 0.0
C995 C 0.70926 0.5761 0.13929 0.0
C996 C 0.65366 0.5005 0.13146 0.0
C997 C 0.70874 0.54659 0.15325 0.0
C998 C 0.62472 0.43112 0.14197 0.0
C999 C 0.57156 0.41402 0.10399 0.0
N1000 N 0.68148 0.51018 0.14905 0.0
N1001 N 0.59912 0.45027 0.10829 0.0
H1002 H 0.8116 0.43437 0.45796 0.0
H1003 H 0.91101 0.34379 0.37482 0.0
H1004 H 0.86393 0.47945 0.38514 0.0
H1005 H 0.87196 0.31198 0.45197 0.0
H1006 H 0.892 0.39214 0.37674 0.0
H1007 H 0.82853 0.3854 0.45385 0.0
C1008 C 0.82643 0.43387 0.441 0.0
C1009 C 0.83705 0.46172 0.42214 0.0
C1010 C 0.88813 0.37492 0.39336 0.0
C1011 C 0.85665 0.4055 0.41728 0.0
C1012 C 0.89951 0.34783 0.39235 0.0
C1013 C 0.89358 0.32453 0.41341 0.0
C1014 C 0.87057 0.37829 0.41551 0.0
C1015 C 0.87738 0.32983 0.43544 0.0
C1016 C 0.83617 0.40588 0.43867 0.0
C1017 C 0.85522 0.45875 0.40023 0.0
N1018 N 0.86633 0.35597 0.43589 0.0
N1019 N 0.86479 0.43145 0.39852 0.0
H1020 H 0.23565 0.65327 0.65299 0.0
H1021 H 0.11513 0.44033 0.60145 0.0
H1022 H 0.16406 0.62076 0.58644 0.0
H1023 H 0.18254 0.47118 0.66972 0.0
H1024 H 0.13361 0.50676 0.59527 0.0
H1025 H 0.21921 0.58739 0.65838 0.0
C1026 C 0.21669 0.63249 0.63941 0.0
C1027 C 0.20093 0.64287 0.61939 0.0
C1028 C 0.14386 0.49896 0.61186 0.0
C1029 C 0.18192 0.56718 0.62551 0.0
C1030 C 0.1328 0.46096 0.61558 0.0
C1031 C 0.14677 0.4503 0.63639 0.0
C1032 C 0.16887 0.52639 0.62919 0.0
C1033 C 0.17084 0.47832 0.6536 0.0
C1034 C 0.20732 0.59481 0.64251 0.0
C1035 C 0.17725 0.61456 0.60208 0.0
N1036 N 0.18111 0.51505 0.64964 0.0
N1037 N 0.16828 0.57815 0.60567 0.0
H1038 H 0.29877 0.83036 0.88531 0.0
H1039 H 0.4939 0.88619 0.95428 0.0
H1040 H 0.36233 0.93223 0.92916 0.0
H1041 H 0.43813 0.79177 0.90272 0.0
H1042 H 0.44411 0.90103 0.94709 0.0
H1043 H 0.34881 0.81536 0.89162 0.0
C1044 C 0.32371 0.85002 0.89587 0.0
C1045 C 0.32648 0.8828 0.90658 0.0
C1046 C 0.44262 0.87699 0.93738 0.0
C1047 C 0.38368 0.86517 0.91447 0.0
C1048 C 0.47087 0.8681 0.94173 0.0
C1049 C 0.47047 0.83762 0.92907 0.0
C1050 C 0.4134 0.85533 0.92022 0.0
C1051 C 0.44002 0.81581 0.91266 0.0
C1052 C 0.35216 0.84124 0.89962 0.0
C1053 C 0.35927 0.90701 0.92023 0.0
N1054 N 0.41278 0.82511 0.9087 0.0
N1055 N 0.38641 0.89751 0.924 0.0
H1056 H 0.56903 0.70707 0.67761 0.0
H1057 H 0.40016 0.5825 0.58214 0.0
H1058 H 0.58656 0.69268 0.59845 0.0
H1059 H 0.39245 0.55703 0.66259 0.0
H1060 H 0.46581 0.63153 0.58827 0.0
H1061 H 0.50209 0.65861 0.67304 0.0
C1062 C 0.55893 0.69277 0.65949 0.0
C1063 C 0.58346 0.70271 0.63861 0.0
C1064 C 0.44961 0.61519 0.60456 0.0
C1065 C 0.50676 0.64924 0.6328 0.0
C1066 C 0.412 0.58697 0.60111 0.0
C1067 C 0.39049 0.56424 0.6217 0.0
C1068 C 0.46597 0.62157 0.62887 0.0
C1069 C 0.40746 0.57326 0.646 0.0
C1070 C 0.52073 0.66558 0.65679 0.0
C1071 C 0.56875 0.68474 0.61521 0.0
N1072 N 0.44412 0.60098 0.64886 0.0
N1073 N 0.5313 0.65915 0.61285 0.0
H1074 H 0.18524 0.63917 0.88447 0.0
H1075 H 0.15649 0.45417 0.95608 0.0
H1076 H 0.21593 0.63777 0.96303 0.0
H1077 H 0.14271 0.45818 0.87503 0.0
H1078 H 0.17566 0.52108 0.95906 0.0
H1079 H 0.17096 0.57399 0.87999 0.0
C1080 C 0.18962 0.62554 0.90071 0.0
C1081 C 0.20099 0.64405 0.92438 0.0
C1082 C 0.16804 0.50737 0.94062 0.0
C1083 C 0.18337 0.56861 0.91949 0.0
C1084 C 0.15654 0.46907 0.93901 0.0
C1085 C 0.14705 0.45065 0.9154 0.0
C1086 C 0.17036 0.52752 0.91837 0.0
C1087 C 0.14885 0.47132 0.89366 0.0
C1088 C 0.18097 0.58802 0.89817 0.0
C1089 C 0.206 0.62447 0.94463 0.0
N1090 N 0.16028 0.50873 0.89565 0.0
N1091 N 0.19667 0.58779 0.94182 0.0
H1092 H 0.36269 0.92725 0.66044 0.0
H1093 H 0.43394 0.79395 0.59894 0.0
H1094 H 0.30261 0.84127 0.60367 0.0
H1095 H 0.4956 0.87492 0.65805 0.0
H1096 H 0.38433 0.81017 0.60203 0.0
H1097 H 0.41278 0.91036 0.65998 0.0
C1098 C 0.36028 0.90532 0.64771 0.0
C1099 C 0.3283 0.88545 0.63231 0.0
C1100 C 0.40856 0.82432 0.61449 0.0
C1101 C 0.38453 0.86551 0.63201 0.0
C1102 C 0.43679 0.81488 0.61277 0.0
C1103 C 0.46903 0.83333 0.62811 0.0
C1104 C 0.41273 0.8528 0.63148 0.0
C1105 C 0.4711 0.85995 0.64593 0.0
C1106 C 0.38853 0.89535 0.64765 0.0
C1107 C 0.32647 0.85707 0.61621 0.0
N1108 N 0.44355 0.86924 0.64694 0.0
N1109 N 0.35389 0.8479 0.61662 0.0
H1110 H 0.59211 0.66414 0.89782 0.0
H1111 H 0.38149 0.59791 0.94503 0.0
H1112 H 0.5557 0.73778 0.93013 0.0
H1113 H 0.40644 0.52875 0.89605 0.0
H1114 H 0.44696 0.64906 0.9408 0.0
H1115 H 0.52568 0.61233 0.89873 0.0
C1116 C 0.57048 0.66949 0.90506 0.0
C1117 C 0.57986 0.70559 0.91371 0.0
C1118 C 0.43816 0.62279 0.93081 0.0
C1119 C 0.50429 0.64688 0.91483 0.0
C1120 C 0.40078 0.59373 0.9332 0.0
C1121 C 0.3887 0.55928 0.92077 0.0
C1122 C 0.46389 0.61705 0.91638 0.0
C1123 C 0.41475 0.55514 0.90571 0.0
C1124 C 0.53261 0.64006 0.90547 0.0
C1125 C 0.5504 0.71077 0.92297 0.0
N1126 N 0.45126 0.58352 0.90413 0.0
N1127 N 0.51435 0.68197 0.92328 0.0
loop_
_geom_bond_atom_site_label_1
_geom_bond_atom_site_label_2
_geom_bond_distance
_geom_bond_site_symmetry_2
_ccdc_geom_bond_type
Sm0 C2 2.846 . S
Sm0 O20 2.543 . S
Sm0 O21 2.450 . S
Sm0 O22 2.681 . S
Sm0 O23 2.464 . S
Sm0 O24 2.396 . S
Sm0 O28 2.386 . S
Sm0 O31 2.408 . S
Sm1 C11 2.846 . S
Sm1 O22 2.386 . S
Sm1 O25 2.408 . S
Sm1 O26 2.543 . S
Sm1 O27 2.450 . S
Sm1 O28 2.681 . S
Sm1 O29 2.464 . S
Sm1 O30 2.396 . S
C2 Sm0 2.846 . S
C2 C3 1.506 . S
C2 O20 1.261 . S
C2 O21 1.242 . S
C3 C2 1.506 . S
C3 C4 1.358 . S
C3 C8 1.382 . S
C4 C3 1.358 . S
C4 C5 1.385 . S
C4 H32 0.930 . S
C5 C4 1.385 . S
C5 C6 1.395 . S
C5 H33 0.929 . S
C6 C5 1.395 . S
C6 C7 1.335 . S
C7 C6 1.335 . S
C7 C8 1.398 . S
C7 H34 0.930 . S
C8 C3 1.382 . S
C8 C7 1.398 . S
C8 H35 0.929 . S
C9 O22 1.271 . S
C9 O23 1.251 . S
C10 O24 1.252 . S
C10 O25 1.272 . S
C11 Sm1 2.846 . S
C11 C12 1.506 1_545 S
C11 O26 1.261 . S
C11 O27 1.242 . S
C12 C11 1.506 1_565 S
C12 C13 1.358 . S
C12 C17 1.382 . S
C13 C12 1.358 . S
C13 C14 1.385 . S
C13 H36 0.930 . S
C14 C13 1.385 . S
C14 C15 1.395 . S
C14 H37 0.929 . S
C15 C14 1.395 . S
C15 C16 1.335 . S
C16 C15 1.335 . S
C16 C17 1.398 . S
C16 H38 0.930 . S
C17 C12 1.382 . S
C17 C16 1.398 . S
C17 H39 0.929 . S
C18 O28 1.271 . S
C18 O29 1.251 . S
C19 O30 1.252 . S
C19 O31 1.272 . S
O20 Sm0 2.543 . S
O20 C2 1.261 . S
O21 Sm0 2.450 . S
O21 C2 1.242 . S
O22 Sm0 2.681 . S
O22 Sm1 2.386 . S
O22 C9 1.271 . S
O23 Sm0 2.464 . S
O23 C9 1.251 . S
O24 Sm0 2.396 . S
O24 C10 1.252 . S
O25 Sm1 2.408 . S
O25 C10 1.272 . S
O26 Sm1 2.543 . S
O26 C11 1.261 . S
O27 Sm1 2.450 . S
O27 C11 1.242 . S
O28 Sm0 2.386 . S
O28 Sm1 2.681 . S
O28 C18 1.271 . S
O29 Sm1 2.464 . S
O29 C18 1.251 . S
O30 Sm1 2.396 . S
O30 C19 1.252 . S
O31 Sm0 2.408 . S
O31 C19 1.272 . S
H32 C4 0.930 . S
H33 C5 0.929 . S
H34 C7 0.930 . S
H35 C8 0.929 . S
H36 C13 0.930 . S
H37 C14 0.929 . S
H38 C16 0.930 . S
H39 C17 0.929 . S
Sm40 C42 2.846 . S
Sm40 O60 2.543 . S
Sm40 O61 2.450 . S
Sm40 O62 2.681 . S
Sm40 O63 2.464 . S
Sm40 O64 2.396 . S
Sm40 O68 2.386 . S
Sm40 O71 2.408 . S
Sm41 C51 2.846 . S
Sm41 O62 2.386 . S
Sm41 O65 2.408 . S
Sm41 O66 2.543 . S
Sm41 O67 2.450 . S
Sm41 O68 2.681 . S
Sm41 O69 2.464 . S
Sm41 O70 2.396 . S
C42 Sm40 2.846 . S
C42 C43 1.506 . S
C42 O60 1.261 . S
C42 O61 1.242 . S
C43 C42 1.506 . S
C43 C44 1.358 . S
C43 C48 1.382 . S
C44 C43 1.358 . S
C44 C45 1.385 . S
C44 H72 0.930 . S
C45 C44 1.385 . S
C45 C46 1.395 . S
C45 H73 0.929 . S
C46 C45 1.395 . S
C46 C47 1.335 . S
C47 C46 1.335 . S
C47 C48 1.398 . S
C47 H74 0.930 . S
C48 C43 1.382 . S
C48 C47 1.398 . S
C48 H75 0.929 . S
C49 O62 1.271 . S
C49 O63 1.251 . S
C50 O64 1.252 . S
C50 O65 1.272 . S
C51 Sm41 2.846 . S
C51 C52 1.506 . S
C51 O66 1.261 . S
C51 O67 1.242 . S
C52 C51 1.506 . S
C52 C53 1.358 . S
C52 C57 1.382 . S
C53 C52 1.358 . S
C53 C54 1.385 . S
C53 H76 0.930 . S
C54 C53 1.385 . S
C54 C55 1.395 . S
C54 H77 0.929 . S
C55 C54 1.395 . S
C55 C56 1.335 . S
C56 C55 1.335 . S
C56 C57 1.398 . S
C56 H78 0.930 . S
C57 C52 1.382 . S
C57 C56 1.398 . S
C57 H79 0.929 . S
C58 O68 1.271 . S
C58 O69 1.251 . S
C59 O70 1.252 . S
C59 O71 1.272 . S
O60 Sm40 2.543 . S
O60 C42 1.261 . S
O61 Sm40 2.450 . S
O61 C42 1.242 . S
O62 Sm40 2.681 . S
O62 Sm41 2.386 . S
O62 C49 1.271 . S
O63 Sm40 2.464 . S
O63 C49 1.251 . S
O64 Sm40 2.396 . S
O64 C50 1.252 . S
O65 Sm41 2.408 . S
O65 C50 1.272 . S
O66 Sm41 2.543 . S
O66 C51 1.261 . S
O67 Sm41 2.450 . S
O67 C51 1.242 . S
O68 Sm40 2.386 . S
O68 Sm41 2.681 . S
O68 C58 1.271 . S
O69 Sm41 2.464 . S
O69 C58 1.251 . S
O70 Sm41 2.396 . S
O70 C59 1.252 . S
O71 Sm40 2.408 . S
O71 C59 1.272 . S
H72 C44 0.930 . S
H73 C45 0.929 . S
H74 C47 0.930 . S
H75 C48 0.929 . S
H76 C53 0.930 . S
H77 C54 0.929 . S
H78 C56 0.930 . S
H79 C57 0.929 . S
Sm80 C82 2.846 . S
Sm80 O100 2.543 . S
Sm80 O101 2.450 . S
Sm80 O102 2.681 . S
Sm80 O103 2.464 . S
Sm80 O104 2.396 . S
Sm80 O108 2.386 . S
Sm80 O111 2.408 . S
Sm81 C91 2.846 . S
Sm81 O102 2.386 . S
Sm81 O105 2.408 . S
Sm81 O106 2.543 . S
Sm81 O107 2.450 . S
Sm81 O108 2.681 . S
Sm81 O109 2.464 . S
Sm81 O110 2.396 . S
C82 Sm80 2.846 . S
C82 C83 1.506 . S
C82 O100 1.261 . S
C82 O101 1.242 . S
C83 C82 1.506 . S
C83 C84 1.358 . S
C83 C88 1.382 . S
C84 C83 1.358 . S
C84 C85 1.385 . S
C84 H112 0.930 . S
C85 C84 1.385 . S
C85 C86 1.395 . S
C85 H113 0.929 . S
C86 C85 1.395 . S
C86 C87 1.335 . S
C87 C86 1.335 . S
C87 C88 1.398 . S
C87 H114 0.930 . S
C88 C83 1.382 . S
C88 C87 1.398 . S
C88 H115 0.929 . S
C89 O102 1.271 . S
C89 O103 1.251 . S
C90 O104 1.252 . S
C90 O105 1.272 . S
C91 Sm81 2.846 . S
C91 C92 1.506 1_655 S
C91 O106 1.261 . S
C91 O107 1.242 . S
C92 C91 1.506 1_455 S
C92 C93 1.358 . S
C92 C97 1.382 . S
C93 C92 1.358 . S
C93 C94 1.385 . S
C93 H116 0.930 . S
C94 C93 1.385 . S
C94 C95 1.395 . S
C94 H117 0.929 . S
C95 C94 1.395 . S
C95 C96 1.335 . S
C96 C95 1.335 . S
C96 C97 1.398 . S
C96 H118 0.930 . S
C97 C92 1.382 . S
C97 C96 1.398 . S
C97 H119 0.929 . S
C98 O108 1.271 . S
C98 O109 1.251 . S
C99 O110 1.252 . S
C99 O111 1.272 . S
O100 Sm80 2.543 . S
O100 C82 1.261 . S
O101 Sm80 2.450 . S
O101 C82 1.242 . S
O102 Sm80 2.681 . S
O102 Sm81 2.386 . S
O102 C89 1.271 . S
O103 Sm80 2.464 . S
O103 C89 1.251 . S
O104 Sm80 2.396 . S
O104 C90 1.252 . S
O105 Sm81 2.408 . S
O105 C90 1.272 . S
O106 Sm81 2.543 . S
O106 C91 1.261 . S
O107 Sm81 2.450 . S
O107 C91 1.242 . S
O108 Sm80 2.386 . S
O108 Sm81 2.681 . S
O108 C98 1.271 . S
O109 Sm81 2.464 . S
O109 C98 1.251 . S
O110 Sm81 2.396 . S
O110 C99 1.252 . S
O111 Sm80 2.408 . S
O111 C99 1.272 . S
H112 C84 0.930 . S
H113 C85 0.929 . S
H114 C87 0.930 . S
H115 C88 0.929 . S
H116 C93 0.930 . S
H117 C94 0.929 . S
H118 C96 0.930 . S
H119 C97 0.929 . S
Sm120 C122 2.846 . S
Sm120 O140 2.543 . S
Sm120 O141 2.450 . S
Sm120 O142 2.681 . S
Sm120 O143 2.464 . S
Sm120 O144 2.396 . S
Sm120 O148 2.386 . S
Sm120 O151 2.408 . S
Sm121 C131 2.846 . S
Sm121 O142 2.386 . S
Sm121 O145 2.408 . S
Sm121 O146 2.543 . S
Sm121 O147 2.450 . S
Sm121 O148 2.681 . S
Sm121 O149 2.464 . S
Sm121 O150 2.396 . S
C122 Sm120 2.846 . S
C122 C123 1.506 1_545 S
C122 O140 1.261 . S
C122 O141 1.242 . S
C123 C122 1.506 1_565 S
C123 C124 1.358 . S
C123 C128 1.382 . S
C124 C123 1.358 . S
C124 C125 1.385 . S
C124 H152 0.930 . S
C125 C124 1.385 . S
C125 C126 1.395 . S
C125 H153 0.929 . S
C126 C125 1.395 . S
C126 C127 1.335 . S
C127 C126 1.335 . S
C127 C128 1.398 . S
C127 H154 0.930 . S
C128 C123 1.382 . S
C128 C127 1.398 . S
C128 H155 0.929 . S
C129 O142 1.271 . S
C129 O143 1.251 . S
C130 O144 1.252 . S
C130 O145 1.272 . S
C131 Sm121 2.846 . S
C131 C132 1.506 . S
C131 O146 1.261 . S
C131 O147 1.242 . S
C132 C131 1.506 . S
C132 C133 1.358 . S
C132 C137 1.382 . S
C133 C132 1.358 . S
C133 C134 1.385 . S
C133 H156 0.930 . S
C134 C133 1.385 . S
C134 C135 1.395 . S
C134 H157 0.929 . S
C135 C134 1.395 . S
C135 C136 1.335 . S
C136 C135 1.335 . S
C136 C137 1.398 . S
C136 H158 0.930 . S
C137 C132 1.382 . S
C137 C136 1.398 . S
C137 H159 0.929 . S
C138 O148 1.271 . S
C138 O149 1.251 . S
C139 O150 1.252 . S
C139 O151 1.272 . S
O140 Sm120 2.543 . S
O140 C122 1.261 . S
O141 Sm120 2.450 . S
O141 C122 1.242 . S
O142 Sm120 2.681 . S
O142 Sm121 2.386 . S
O142 C129 1.271 . S
O143 Sm120 2.464 . S
O143 C129 1.251 . S
O144 Sm120 2.396 . S
O144 C130 1.252 . S
O145 Sm121 2.408 . S
O145 C130 1.272 . S
O146 Sm121 2.543 . S
O146 C131 1.261 . S
O147 Sm121 2.450 . S
O147 C131 1.242 . S
O148 Sm120 2.386 . S
O148 Sm121 2.681 . S
O148 C138 1.271 . S
O149 Sm121 2.464 . S
O149 C138 1.251 . S
O150 Sm121 2.396 . S
O150 C139 1.252 . S
O151 Sm120 2.408 . S
O151 C139 1.272 . S
H152 C124 0.930 . S
H153 C125 0.929 . S
H154 C127 0.930 . S
H155 C128 0.929 . S
H156 C133 0.930 . S
H157 C134 0.929 . S
H158 C136 0.930 . S
H159 C137 0.929 . S
Sm160 C162 2.846 . S
Sm160 O180 2.543 . S
Sm160 O181 2.450 . S
Sm160 O182 2.681 . S
Sm160 O183 2.464 . S
Sm160 O184 2.396 . S
Sm160 O188 2.386 . S
Sm160 O191 2.408 . S
Sm161 C171 2.846 . S
Sm161 O182 2.386 . S
Sm161 O185 2.408 . S
Sm161 O186 2.543 . S
Sm161 O187 2.450 . S
Sm161 O188 2.681 . S
Sm161 O189 2.464 . S
Sm161 O190 2.396 . S
C162 Sm160 2.846 . S
C162 C163 1.506 . S
C162 O180 1.261 . S
C162 O181 1.242 . S
C163 C162 1.506 . S
C163 C164 1.358 . S
C163 C168 1.382 . S
C164 C163 1.358 . S
C164 C165 1.385 . S
C164 H192 0.930 . S
C165 C164 1.385 . S
C165 C166 1.395 . S
C165 H193 0.929 . S
C166 C165 1.395 . S
C166 C167 1.335 . S
C167 C166 1.335 . S
C167 C168 1.398 . S
C167 H194 0.930 . S
C168 C163 1.382 . S
C168 C167 1.398 . S
C168 H195 0.929 . S
C169 O182 1.271 . S
C169 O183 1.251 . S
C170 O184 1.252 . S
C170 O185 1.272 . S
C171 Sm161 2.846 . S
C171 C172 1.506 . S
C171 O186 1.261 . S
C171 O187 1.242 . S
C172 C171 1.506 . S
C172 C173 1.358 . S
C172 C177 1.382 . S
C173 C172 1.358 . S
C173 C174 1.385 . S
C173 H196 0.930 . S
C174 C173 1.385 . S
C174 C175 1.395 . S
C174 H197 0.929 . S
C175 C174 1.395 . S
C175 C176 1.335 . S
C176 C175 1.335 . S
C176 C177 1.398 . S
C176 H198 0.930 . S
C177 C172 1.382 . S
C177 C176 1.398 . S
C177 H199 0.929 . S
C178 O188 1.271 . S
C178 O189 1.251 . S
C179 O190 1.252 . S
C179 O191 1.272 . S
O180 Sm160 2.543 . S
O180 C162 1.261 . S
O181 Sm160 2.450 . S
O181 C162 1.242 . S
O182 Sm160 2.681 . S
O182 Sm161 2.386 . S
O182 C169 1.271 . S
O183 Sm160 2.464 . S
O183 C169 1.251 . S
O184 Sm160 2.396 . S
O184 C170 1.252 . S
O185 Sm161 2.408 . S
O185 C170 1.272 . S
O186 Sm161 2.543 . S
O186 C171 1.261 . S
O187 Sm161 2.450 . S
O187 C171 1.242 . S
O188 Sm160 2.386 . S
O188 Sm161 2.681 . S
O188 C178 1.271 . S
O189 Sm161 2.464 . S
O189 C178 1.251 . S
O190 Sm161 2.396 . S
O190 C179 1.252 . S
O191 Sm160 2.408 . S
O191 C179 1.272 . S
H192 C164 0.930 . S
H193 C165 0.929 . S
H194 C167 0.930 . S
H195 C168 0.929 . S
H196 C173 0.930 . S
H197 C174 0.929 . S
H198 C176 0.930 . S
H199 C177 0.929 . S
Sm200 C202 2.846 . S
Sm200 O220 2.543 . S
Sm200 O221 2.450 . S
Sm200 O222 2.681 . S
Sm200 O223 2.464 . S
Sm200 O224 2.396 . S
Sm200 O228 2.386 . S
Sm200 O231 2.408 . S
Sm201 C211 2.846 . S
Sm201 O222 2.386 . S
Sm201 O225 2.408 . S
Sm201 O226 2.543 . S
Sm201 O227 2.450 . S
Sm201 O228 2.681 . S
Sm201 O229 2.464 . S
Sm201 O230 2.396 . S
C202 Sm200 2.846 . S
C202 C203 1.506 1_655 S
C202 O220 1.261 . S
C202 O221 1.242 . S
C203 C202 1.506 1_455 S
C203 C204 1.358 . S
C203 C208 1.382 . S
C204 C203 1.358 . S
C204 C205 1.385 . S
C204 H232 0.930 . S
C205 C204 1.385 . S
C205 C206 1.395 . S
C205 H233 0.929 . S
C206 C205 1.395 . S
C206 C207 1.335 . S
C207 C206 1.335 . S
C207 C208 1.398 . S
C207 H234 0.930 . S
C208 C203 1.382 . S
C208 C207 1.398 . S
C208 H235 0.929 . S
C209 O222 1.271 . S
C209 O223 1.251 . S
C210 O224 1.252 . S
C210 O225 1.272 . S
C211 Sm201 2.846 . S
C211 C212 1.506 . S
C211 O226 1.261 . S
C211 O227 1.242 . S
C212 C211 1.506 . S
C212 C213 1.358 . S
C212 C217 1.382 . S
C213 C212 1.358 . S
C213 C214 1.385 . S
C213 H236 0.930 . S
C214 C213 1.385 . S
C214 C215 1.395 . S
C214 H237 0.929 . S
C215 C214 1.395 . S
C215 C216 1.335 . S
C216 C215 1.335 . S
C216 C217 1.398 . S
C216 H238 0.930 . S
C217 C212 1.382 . S
C217 C216 1.398 . S
C217 H239 0.929 . S
C218 O228 1.271 . S
C218 O229 1.251 . S
C219 O230 1.252 . S
C219 O231 1.272 . S
O220 Sm200 2.543 . S
O220 C202 1.261 . S
O221 Sm200 2.450 . S
O221 C202 1.242 . S
O222 Sm200 2.681 . S
O222 Sm201 2.386 . S
O222 C209 1.271 . S
O223 Sm200 2.464 . S
O223 C209 1.251 . S
O224 Sm200 2.396 . S
O224 C210 1.252 . S
O225 Sm201 2.408 . S
O225 C210 1.272 . S
O226 Sm201 2.543 . S
O226 C211 1.261 . S
O227 Sm201 2.450 . S
O227 C211 1.242 . S
O228 Sm200 2.386 . S
O228 Sm201 2.681 . S
O228 C218 1.271 . S
O229 Sm201 2.464 . S
O229 C218 1.251 . S
O230 Sm201 2.396 . S
O230 C219 1.252 . S
O231 Sm200 2.408 . S
O231 C219 1.272 . S
H232 C204 0.930 . S
H233 C205 0.929 . S
H234 C207 0.930 . S
H235 C208 0.929 . S
H236 C213 0.930 . S
H237 C214 0.929 . S
H238 C216 0.930 . S
H239 C217 0.929 . S
Sm240 C242 2.846 . S
Sm240 O260 2.543 . S
Sm240 O261 2.450 . S
Sm240 O262 2.681 . S
Sm240 O263 2.464 . S
Sm240 O264 2.396 . S
Sm240 O268 2.386 . S
Sm240 O271 2.408 . S
Sm241 C251 2.846 . S
Sm241 O262 2.386 . S
Sm241 O265 2.408 . S
Sm241 O266 2.543 . S
Sm241 O267 2.450 . S
Sm241 O268 2.681 . S
Sm241 O269 2.464 . S
Sm241 O270 2.396 . S
C242 Sm240 2.846 . S
C242 C243 1.506 1_455 S
C242 O260 1.261 . S
C242 O261 1.242 . S
C243 C242 1.506 1_655 S
C243 C244 1.358 . S
C243 C248 1.382 . S
C244 C243 1.358 . S
C244 C245 1.385 . S
C244 H272 0.930 . S
C245 C244 1.385 . S
C245 C246 1.395 . S
C245 H273 0.929 . S
C246 C245 1.395 . S
C246 C247 1.335 . S
C247 C246 1.335 . S
C247 C248 1.398 . S
C247 H274 0.930 . S
C248 C243 1.382 . S
C248 C247 1.398 . S
C248 H275 0.929 . S
C249 O262 1.271 . S
C249 O263 1.251 . S
C250 O264 1.252 . S
C250 O265 1.272 . S
C251 Sm241 2.846 . S
C251 C252 1.506 . S
C251 O266 1.261 . S
C251 O267 1.242 . S
C252 C251 1.506 . S
C252 C253 1.358 . S
C252 C257 1.382 . S
C253 C252 1.358 . S
C253 C254 1.385 . S
C253 H276 0.930 . S
C254 C253 1.385 . S
C254 C255 1.395 . S
C254 H277 0.929 . S
C255 C254 1.395 . S
C255 C256 1.335 . S
C256 C255 1.335 . S
C256 C257 1.398 . S
C256 H278 0.930 . S
C257 C252 1.382 . S
C257 C256 1.398 . S
C257 H279 0.929 . S
C258 O268 1.271 . S
C258 O269 1.251 . S
C259 O270 1.252 . S
C259 O271 1.272 . S
O260 Sm240 2.543 . S
O260 C242 1.261 . S
O261 Sm240 2.450 . S
O261 C242 1.242 . S
O262 Sm240 2.681 . S
O262 Sm241 2.386 . S
O262 C249 1.271 . S
O263 Sm240 2.464 . S
O263 C249 1.251 . S
O264 Sm240 2.396 . S
O264 C250 1.252 . S
O265 Sm241 2.408 . S
O265 C250 1.272 . S
O266 Sm241 2.543 . S
O266 C251 1.261 . S
O267 Sm241 2.450 . S
O267 C251 1.242 . S
O268 Sm240 2.386 . S
O268 Sm241 2.681 . S
O268 C258 1.271 . S
O269 Sm241 2.464 . S
O269 C258 1.251 . S
O270 Sm241 2.396 . S
O270 C259 1.252 . S
O271 Sm240 2.408 . S
O271 C259 1.272 . S
H272 C244 0.930 . S
H273 C245 0.929 . S
H274 C247 0.930 . S
H275 C248 0.929 . S
H276 C253 0.930 . S
H277 C254 0.929 . S
H278 C256 0.930 . S
H279 C257 0.929 . S
Sm280 C282 2.846 . S
Sm280 O300 2.543 . S
Sm280 O301 2.450 . S
Sm280 O302 2.681 . S
Sm280 O303 2.464 . S
Sm280 O304 2.396 . S
Sm280 O308 2.386 . S
Sm280 O311 2.408 . S
Sm281 C291 2.846 . S
Sm281 O302 2.386 . S
Sm281 O305 2.408 . S
Sm281 O306 2.543 . S
Sm281 O307 2.450 . S
Sm281 O308 2.681 . S
Sm281 O309 2.464 . S
Sm281 O310 2.396 . S
C282 Sm280 2.846 . S
C282 C283 1.506 . S
C282 O300 1.261 . S
C282 O301 1.242 . S
C283 C282 1.506 . S
C283 C284 1.358 . S
C283 C288 1.382 . S
C284 C283 1.358 . S
C284 C285 1.385 . S
C284 H312 0.930 . S
C285 C284 1.385 . S
C285 C286 1.395 . S
C285 H313 0.929 . S
C286 C285 1.395 . S
C286 C287 1.335 . S
C287 C286 1.335 . S
C287 C288 1.398 . S
C287 H314 0.930 . S
C288 C283 1.382 . S
C288 C287 1.398 . S
C288 H315 0.929 . S
C289 O302 1.271 . S
C289 O303 1.251 . S
C290 O304 1.252 . S
C290 O305 1.272 . S
C291 Sm281 2.846 . S
C291 C292 1.506 1_565 S
C291 O306 1.261 . S
C291 O307 1.242 . S
C292 C291 1.506 1_545 S
C292 C293 1.358 . S
C292 C297 1.382 . S
C293 C292 1.358 . S
C293 C294 1.385 . S
C293 H316 0.930 . S
C294 C293 1.385 . S
C294 C295 1.395 . S
C294 H317 0.929 . S
C295 C294 1.395 . S
C295 C296 1.335 . S
C296 C295 1.335 . S
C296 C297 1.398 . S
C296 H318 0.930 . S
C297 C292 1.382 . S
C297 C296 1.398 . S
C297 H319 0.929 . S
C298 O308 1.271 . S
C298 O309 1.251 . S
C299 O310 1.252 . S
C299 O311 1.272 . S
O300 Sm280 2.543 . S
O300 C282 1.261 . S
O301 Sm280 2.450 . S
O301 C282 1.242 . S
O302 Sm280 2.681 . S
O302 Sm281 2.386 . S
O302 C289 1.271 . S
O303 Sm280 2.464 . S
O303 C289 1.251 . S
O304 Sm280 2.396 . S
O304 C290 1.252 . S
O305 Sm281 2.408 . S
O305 C290 1.272 . S
O306 Sm281 2.543 . S
O306 C291 1.261 . S
O307 Sm281 2.450 . S
O307 C291 1.242 . S
O308 Sm280 2.386 . S
O308 Sm281 2.681 . S
O308 C298 1.271 . S
O309 Sm281 2.464 . S
O309 C298 1.251 . S
O310 Sm281 2.396 . S
O310 C299 1.252 . S
O311 Sm280 2.408 . S
O311 C299 1.272 . S
H312 C284 0.930 . S
H313 C285 0.929 . S
H314 C287 0.930 . S
H315 C288 0.929 . S
H316 C293 0.930 . S
H317 C294 0.929 . S
H318 C296 0.930 . S
H319 C297 0.929 . S
Sm320 C322 2.846 . S
Sm320 O340 2.543 . S
Sm320 O341 2.450 . S
Sm320 O342 2.681 . S
Sm320 O343 2.464 . S
Sm320 O344 2.396 . S
Sm320 O348 2.386 . S
Sm320 O351 2.408 . S
Sm321 C331 2.846 . S
Sm321 O342 2.386 . S
Sm321 O345 2.408 . S
Sm321 O346 2.543 . S
Sm321 O347 2.450 . S
Sm321 O348 2.681 . S
Sm321 O349 2.464 . S
Sm321 O350 2.396 . S
C322 Sm320 2.846 . S
C322 C323 1.506 . S
C322 O340 1.261 . S
C322 O341 1.242 . S
C323 C322 1.506 . S
C323 C324 1.358 . S
C323 C328 1.382 . S
C324 C323 1.358 . S
C324 C325 1.385 . S
C324 H352 0.930 . S
C325 C324 1.385 . S
C325 C326 1.395 . S
C325 H353 0.929 . S
C326 C325 1.395 . S
C326 C327 1.335 . S
C327 C326 1.335 . S
C327 C328 1.398 . S
C327 H354 0.930 . S
C328 C323 1.382 . S
C328 C327 1.398 . S
C328 H355 0.929 . S
C329 O342 1.271 . S
C329 O343 1.251 . S
C330 O344 1.252 . S
C330 O345 1.272 . S
C331 Sm321 2.846 . S
C331 C332 1.506 . S
C331 O346 1.261 . S
C331 O347 1.242 . S
C332 C331 1.506 . S
C332 C333 1.358 . S
C332 C337 1.382 . S
C333 C332 1.358 . S
C333 C334 1.385 . S
C333 H356 0.930 . S
C334 C333 1.385 . S
C334 C335 1.395 . S
C334 H357 0.929 . S
C335 C334 1.395 . S
C335 C336 1.335 . S
C336 C335 1.335 . S
C336 C337 1.398 . S
C336 H358 0.930 . S
C337 C332 1.382 . S
C337 C336 1.398 . S
C337 H359 0.929 . S
C338 O348 1.271 . S
C338 O349 1.251 . S
C339 O350 1.252 . S
C339 O351 1.272 . S
O340 Sm320 2.543 . S
O340 C322 1.261 . S
O341 Sm320 2.450 . S
O341 C322 1.242 . S
O342 Sm320 2.681 . S
O342 Sm321 2.386 . S
O342 C329 1.271 . S
O343 Sm320 2.464 . S
O343 C329 1.251 . S
O344 Sm320 2.396 . S
O344 C330 1.252 . S
O345 Sm321 2.408 . S
O345 C330 1.272 . S
O346 Sm321 2.543 . S
O346 C331 1.261 . S
O347 Sm321 2.450 . S
O347 C331 1.242 . S
O348 Sm320 2.386 . S
O348 Sm321 2.681 . S
O348 C338 1.271 . S
O349 Sm321 2.464 . S
O349 C338 1.251 . S
O350 Sm321 2.396 . S
O350 C339 1.252 . S
O351 Sm320 2.408 . S
O351 C339 1.272 . S
H352 C324 0.930 . S
H353 C325 0.929 . S
H354 C327 0.930 . S
H355 C328 0.929 . S
H356 C333 0.930 . S
H357 C334 0.929 . S
H358 C336 0.930 . S
H359 C337 0.929 . S
Sm360 C362 2.846 . S
Sm360 O380 2.543 . S
Sm360 O381 2.450 . S
Sm360 O382 2.681 . S
Sm360 O383 2.464 . S
Sm360 O384 2.396 . S
Sm360 O388 2.386 . S
Sm360 O391 2.408 . S
Sm361 C371 2.846 . S
Sm361 O382 2.386 . S
Sm361 O385 2.408 . S
Sm361 O386 2.543 . S
Sm361 O387 2.450 . S
Sm361 O388 2.681 . S
Sm361 O389 2.464 . S
Sm361 O390 2.396 . S
C362 Sm360 2.846 . S
C362 C363 1.506 . S
C362 O380 1.261 . S
C362 O381 1.242 . S
C363 C362 1.506 . S
C363 C364 1.358 . S
C363 C368 1.382 . S
C364 C363 1.358 . S
C364 C365 1.385 . S
C364 H392 0.930 . S
C365 C364 1.385 . S
C365 C366 1.395 . S
C365 H393 0.929 . S
C366 C365 1.395 . S
C366 C367 1.335 . S
C367 C366 1.335 . S
C367 C368 1.398 . S
C367 H394 0.930 . S
C368 C363 1.382 . S
C368 C367 1.398 . S
C368 H395 0.929 . S
C369 O382 1.271 . S
C369 O383 1.251 . S
C370 O384 1.252 . S
C370 O385 1.272 . S
C371 Sm361 2.846 . S
C371 C372 1.506 1_455 S
C371 O386 1.261 . S
C371 O387 1.242 . S
C372 C371 1.506 1_655 S
C372 C373 1.358 . S
C372 C377 1.382 . S
C373 C372 1.358 . S
C373 C374 1.385 . S
C373 H396 0.930 . S
C374 C373 1.385 . S
C374 C375 1.395 . S
C374 H397 0.929 . S
C375 C374 1.395 . S
C375 C376 1.335 . S
C376 C375 1.335 . S
C376 C377 1.398 . S
C376 H398 0.930 . S
C377 C372 1.382 . S
C377 C376 1.398 . S
C377 H399 0.929 . S
C378 O388 1.271 . S
C378 O389 1.251 . S
C379 O390 1.252 . S
C379 O391 1.272 . S
O380 Sm360 2.543 . S
O380 C362 1.261 . S
O381 Sm360 2.450 . S
O381 C362 1.242 . S
O382 Sm360 2.681 . S
O382 Sm361 2.386 . S
O382 C369 1.271 . S
O383 Sm360 2.464 . S
O383 C369 1.251 . S
O384 Sm360 2.396 . S
O384 C370 1.252 . S
O385 Sm361 2.408 . S
O385 C370 1.272 . S
O386 Sm361 2.543 . S
O386 C371 1.261 . S
O387 Sm361 2.450 . S
O387 C371 1.242 . S
O388 Sm360 2.386 . S
O388 Sm361 2.681 . S
O388 C378 1.271 . S
O389 Sm361 2.464 . S
O389 C378 1.251 . S
O390 Sm361 2.396 . S
O390 C379 1.252 . S
O391 Sm360 2.408 . S
O391 C379 1.272 . S
H392 C364 0.930 . S
H393 C365 0.929 . S
H394 C367 0.930 . S
H395 C368 0.929 . S
H396 C373 0.930 . S
H397 C374 0.929 . S
H398 C376 0.930 . S
H399 C377 0.929 . S
Sm400 C402 2.846 . S
Sm400 O420 2.543 . S
Sm400 O421 2.450 . S
Sm400 O422 2.681 . S
Sm400 O423 2.464 . S
Sm400 O424 2.396 . S
Sm400 O428 2.386 . S
Sm400 O431 2.408 . S
Sm401 C411 2.846 . S
Sm401 O422 2.386 . S
Sm401 O425 2.408 . S
Sm401 O426 2.543 . S
Sm401 O427 2.450 . S
Sm401 O428 2.681 . S
Sm401 O429 2.464 . S
Sm401 O430 2.396 . S
C402 Sm400 2.846 . S
C402 C403 1.506 1_565 S
C402 O420 1.261 . S
C402 O421 1.242 . S
C403 C402 1.506 1_545 S
C403 C404 1.358 . S
C403 C408 1.382 . S
C404 C403 1.358 . S
C404 C405 1.385 . S
C404 H432 0.930 . S
C405 C404 1.385 . S
C405 C406 1.395 . S
C405 H433 0.929 . S
C406 C405 1.395 . S
C406 C407 1.335 . S
C407 C406 1.335 . S
C407 C408 1.398 . S
C407 H434 0.930 . S
C408 C403 1.382 . S
C408 C407 1.398 . S
C408 H435 0.929 . S
C409 O422 1.271 . S
C409 O423 1.251 . S
C410 O424 1.252 . S
C410 O425 1.272 . S
C411 Sm401 2.846 . S
C411 C412 1.506 . S
C411 O426 1.261 . S
C411 O427 1.242 . S
C412 C411 1.506 . S
C412 C413 1.358 . S
C412 C417 1.382 . S
C413 C412 1.358 . S
C413 C414 1.385 . S
C413 H436 0.930 . S
C414 C413 1.385 . S
C414 C415 1.395 . S
C414 H437 0.929 . S
C415 C414 1.395 . S
C415 C416 1.335 . S
C416 C415 1.335 . S
C416 C417 1.398 . S
C416 H438 0.930 . S
C417 C412 1.382 . S
C417 C416 1.398 . S
C417 H439 0.929 . S
C418 O428 1.271 . S
C418 O429 1.251 . S
C419 O430 1.252 . S
C419 O431 1.272 . S
O420 Sm400 2.543 . S
O420 C402 1.261 . S
O421 Sm400 2.450 . S
O421 C402 1.242 . S
O422 Sm400 2.681 . S
O422 Sm401 2.386 . S
O422 C409 1.271 . S
O423 Sm400 2.464 . S
O423 C409 1.251 . S
O424 Sm400 2.396 . S
O424 C410 1.252 . S
O425 Sm401 2.408 . S
O425 C410 1.272 . S
O426 Sm401 2.543 . S
O426 C411 1.261 . S
O427 Sm401 2.450 . S
O427 C411 1.242 . S
O428 Sm400 2.386 . S
O428 Sm401 2.681 . S
O428 C418 1.271 . S
O429 Sm401 2.464 . S
O429 C418 1.251 . S
O430 Sm401 2.396 . S
O430 C419 1.252 . S
O431 Sm400 2.408 . S
O431 C419 1.272 . S
H432 C404 0.930 . S
H433 C405 0.929 . S
H434 C407 0.930 . S
H435 C408 0.929 . S
H436 C413 0.930 . S
H437 C414 0.929 . S
H438 C416 0.930 . S
H439 C417 0.929 . S
Sm440 C442 2.846 . S
Sm440 O460 2.543 . S
Sm440 O461 2.450 . S
Sm440 O462 2.681 . S
Sm440 O463 2.464 . S
Sm440 O464 2.396 . S
Sm440 O468 2.386 . S
Sm440 O471 2.408 . S
Sm441 C451 2.846 . S
Sm441 O462 2.386 . S
Sm441 O465 2.408 . S
Sm441 O466 2.543 . S
Sm441 O467 2.450 . S
Sm441 O468 2.681 . S
Sm441 O469 2.464 . S
Sm441 O470 2.396 . S
C442 Sm440 2.846 . S
C442 C443 1.506 . S
C442 O460 1.261 . S
C442 O461 1.242 . S
C443 C442 1.506 . S
C443 C444 1.358 . S
C443 C448 1.382 . S
C444 C443 1.358 . S
C444 C445 1.385 . S
C444 H472 0.930 . S
C445 C444 1.385 . S
C445 C446 1.395 . S
C445 H473 0.929 . S
C446 C445 1.395 . S
C446 C447 1.335 . S
C447 C446 1.335 . S
C447 C448 1.398 . S
C447 H474 0.930 . S
C448 C443 1.382 . S
C448 C447 1.398 . S
C448 H475 0.929 . S
C449 O462 1.271 . S
C449 O463 1.251 . S
C450 O464 1.252 . S
C450 O465 1.272 . S
C451 Sm441 2.846 . S
C451 C452 1.506 . S
C451 O466 1.261 . S
C451 O467 1.242 . S
C452 C451 1.506 . S
C452 C453 1.358 . S
C452 C457 1.382 . S
C453 C452 1.358 . S
C453 C454 1.385 . S
C453 H476 0.930 . S
C454 C453 1.385 . S
C454 C455 1.395 . S
C454 H477 0.929 . S
C455 C454 1.395 . S
C455 C456 1.335 . S
C456 C455 1.335 . S
C456 C457 1.398 . S
C456 H478 0.930 . S
C457 C452 1.382 . S
C457 C456 1.398 . S
C457 H479 0.929 . S
C458 O468 1.271 . S
C458 O469 1.251 . S
C459 O470 1.252 . S
C459 O471 1.272 . S
O460 Sm440 2.543 . S
O460 C442 1.261 . S
O461 Sm440 2.450 . S
O461 C442 1.242 . S
O462 Sm440 2.681 . S
O462 Sm441 2.386 . S
O462 C449 1.271 . S
O463 Sm440 2.464 . S
O463 C449 1.251 . S
O464 Sm440 2.396 . S
O464 C450 1.252 . S
O465 Sm441 2.408 . S
O465 C450 1.272 . S
O466 Sm441 2.543 . S
O466 C451 1.261 . S
O467 Sm441 2.450 . S
O467 C451 1.242 . S
O468 Sm440 2.386 . S
O468 Sm441 2.681 . S
O468 C458 1.271 . S
O469 Sm441 2.464 . S
O469 C458 1.251 . S
O470 Sm441 2.396 . S
O470 C459 1.252 . S
O471 Sm440 2.408 . S
O471 C459 1.272 . S
H472 C444 0.930 . S
H473 C445 0.929 . S
H474 C447 0.930 . S
H475 C448 0.929 . S
H476 C453 0.930 . S
H477 C454 0.929 . S
H478 C456 0.930 . S
H479 C457 0.929 . S
H480 C486 0.930 . S
H481 C490 0.930 . S
H482 C495 0.929 . S
H483 C493 0.929 . S
H484 C488 0.929 . S
H485 C494 0.929 . S
C486 H480 0.930 . S
C486 C487 1.367 . S
C486 C494 1.378 . S
C487 C486 1.367 . S
C487 C495 1.433 . S
C488 H484 0.929 . S
C488 C490 1.378 . S
C488 C492 1.350 . S
C489 C492 1.463 . S
C489 C494 1.350 . S
C489 N497 1.427 . S
C490 H481 0.930 . S
C490 C488 1.378 . S
C490 C491 1.367 . S
C491 C490 1.367 . S
C491 C493 1.433 . S
C492 C488 1.350 . S
C492 C489 1.463 . S
C492 N496 1.427 . S
C493 H483 0.929 . S
C493 C491 1.433 . S
C493 N496 1.384 . S
C494 H485 0.929 . S
C494 C486 1.378 . S
C494 C489 1.350 . S
C495 H482 0.929 . S
C495 C487 1.433 . S
C495 N497 1.384 . S
N496 C492 1.427 . S
N496 C493 1.384 . S
N497 C489 1.427 . S
N497 C495 1.384 . S
H498 C504 0.930 . S
H499 C508 0.930 . S
H500 C513 0.929 . S
H501 C511 0.929 . S
H502 C506 0.929 . S
H503 C512 0.929 . S
C504 H498 0.930 . S
C504 C505 1.367 . S
C504 C512 1.378 . S
C505 C504 1.367 . S
C505 C513 1.433 . S
C506 H502 0.929 . S
C506 C508 1.378 . S
C506 C510 1.350 . S
C507 C510 1.463 1_455 S
C507 C512 1.350 . S
C507 N515 1.427 . S
C508 H499 0.930 . S
C508 C506 1.378 . S
C508 C509 1.367 . S
C509 C508 1.367 . S
C509 C511 1.433 . S
C510 C506 1.350 . S
C510 C507 1.463 1_655 S
C510 N514 1.427 . S
C511 H501 0.929 . S
C511 C509 1.433 . S
C511 N514 1.384 . S
C512 H503 0.929 . S
C512 C504 1.378 . S
C512 C507 1.350 . S
C513 H500 0.929 . S
C513 C505 1.433 . S
C513 N515 1.384 . S
N514 C510 1.427 . S
N514 C511 1.384 . S
N515 C507 1.427 . S
N515 C513 1.384 . S
H516 C522 0.930 . S
H517 C526 0.930 . S
H518 C531 0.929 . S
H519 C529 0.929 . S
H520 C524 0.929 . S
H521 C530 0.929 . S
C522 H516 0.930 . S
C522 C523 1.367 . S
C522 C530 1.378 . S
C523 C522 1.367 . S
C523 C531 1.433 . S
C524 H520 0.929 . S
C524 C526 1.378 . S
C524 C528 1.350 . S
C525 C528 1.463 1_545 S
C525 C530 1.350 . S
C525 N533 1.427 . S
C526 H517 0.930 . S
C526 C524 1.378 . S
C526 C527 1.367 . S
C527 C526 1.367 . S
C527 C529 1.433 . S
C528 C524 1.350 . S
C528 C525 1.463 1_565 S
C528 N532 1.427 . S
C529 H519 0.929 . S
C529 C527 1.433 . S
C529 N532 1.384 . S
C530 H521 0.929 . S
C530 C522 1.378 . S
C530 C525 1.350 . S
C531 H518 0.929 . S
C531 C523 1.433 . S
C531 N533 1.384 . S
N532 C528 1.427 . S
N532 C529 1.384 . S
N533 C525 1.427 . S
N533 C531 1.384 . S
H534 C540 0.930 . S
H535 C544 0.930 . S
H536 C549 0.929 . S
H537 C547 0.929 . S
H538 C542 0.929 . S
H539 C548 0.929 . S
C540 H534 0.930 . S
C540 C541 1.367 . S
C540 C548 1.378 . S
C541 C540 1.367 . S
C541 C549 1.433 . S
C542 H538 0.929 . S
C542 C544 1.378 . S
C542 C546 1.350 . S
C543 C546 1.463 . S
C543 C548 1.350 . S
C543 N551 1.427 . S
C544 H535 0.930 . S
C544 C542 1.378 . S
C544 C545 1.367 . S
C545 C544 1.367 . S
C545 C547 1.433 . S
C546 C542 1.350 . S
C546 C543 1.463 . S
C546 N550 1.427 . S
C547 H537 0.929 . S
C547 C545 1.433 . S
C547 N550 1.384 . S
C548 H539 0.929 . S
C548 C540 1.378 . S
C548 C543 1.350 . S
C549 H536 0.929 . S
C549 C541 1.433 . S
C549 N551 1.384 . S
N550 C546 1.427 . S
N550 C547 1.384 . S
N551 C543 1.427 . S
N551 C549 1.384 . S
H552 C558 0.930 . S
H553 C562 0.930 . S
H554 C567 0.929 . S
H555 C565 0.929 . S
H556 C560 0.929 . S
H557 C566 0.929 . S
C558 H552 0.930 . S
C558 C559 1.367 . S
C558 C566 1.378 . S
C559 C558 1.367 . S
C559 C567 1.433 . S
C560 H556 0.929 . S
C560 C562 1.378 . S
C560 C564 1.350 . S
C561 C564 1.463 1_455 S
C561 C566 1.350 . S
C561 N569 1.427 . S
C562 H553 0.930 . S
C562 C560 1.378 . S
C562 C563 1.367 . S
C563 C562 1.367 . S
C563 C565 1.433 . S
C564 C560 1.350 . S
C564 C561 1.463 1_655 S
C564 N568 1.427 . S
C565 H555 0.929 . S
C565 C563 1.433 . S
C565 N568 1.384 . S
C566 H557 0.929 . S
C566 C558 1.378 . S
C566 C561 1.350 . S
C567 H554 0.929 . S
C567 C559 1.433 . S
C567 N569 1.384 . S
N568 C564 1.427 . S
N568 C565 1.384 . S
N569 C561 1.427 . S
N569 C567 1.384 . S
H570 C576 0.930 . S
H571 C580 0.930 . S
H572 C585 0.929 . S
H573 C583 0.929 . S
H574 C578 0.929 . S
H575 C584 0.929 . S
C576 H570 0.930 . S
C576 C577 1.367 . S
C576 C584 1.378 . S
C577 C576 1.367 . S
C577 C585 1.433 . S
C578 H574 0.929 . S
C578 C580 1.378 . S
C578 C582 1.350 . S
C579 C582 1.463 1_565 S
C579 C584 1.350 . S
C579 N587 1.427 . S
C580 H571 0.930 . S
C580 C578 1.378 . S
C580 C581 1.367 . S
C581 C580 1.367 . S
C581 C583 1.433 . S
C582 C578 1.350 . S
C582 C579 1.463 1_545 S
C582 N586 1.427 . S
C583 H573 0.929 . S
C583 C581 1.433 . S
C583 N586 1.384 . S
C584 H575 0.929 . S
C584 C576 1.378 . S
C584 C579 1.350 . S
C585 H572 0.929 . S
C585 C577 1.433 . S
C585 N587 1.384 . S
N586 C582 1.427 . S
N586 C583 1.384 . S
N587 C579 1.427 . S
N587 C585 1.384 . S
H588 C594 0.930 . S
H589 C598 0.930 . S
H590 C603 0.929 . S
H591 C601 0.929 . S
H592 C596 0.929 . S
H593 C602 0.929 . S
C594 H588 0.930 . S
C594 C595 1.367 . S
C594 C602 1.378 . S
C595 C594 1.367 . S
C595 C603 1.433 . S
C596 H592 0.929 . S
C596 C598 1.378 . S
C596 C600 1.350 . S
C597 C600 1.463 . S
C597 C602 1.350 . S
C597 N605 1.427 . S
C598 H589 0.930 . S
C598 C596 1.378 . S
C598 C599 1.367 . S
C599 C598 1.367 . S
C599 C601 1.433 . S
C600 C596 1.350 . S
C600 C597 1.463 . S
C600 N604 1.427 . S
C601 H591 0.929 . S
C601 C599 1.433 . S
C601 N604 1.384 . S
C602 H593 0.929 . S
C602 C594 1.378 . S
C602 C597 1.350 . S
C603 H590 0.929 . S
C603 C595 1.433 . S
C603 N605 1.384 . S
N604 C600 1.427 . S
N604 C601 1.384 . S
N605 C597 1.427 . S
N605 C603 1.384 . S
H606 C612 0.930 . S
H607 C616 0.930 . S
H608 C621 0.929 . S
H609 C619 0.929 . S
H610 C614 0.929 . S
H611 C620 0.929 . S
C612 H606 0.930 . S
C612 C613 1.367 . S
C612 C620 1.378 . S
C613 C612 1.367 . S
C613 C621 1.433 . S
C614 H610 0.929 . S
C614 C616 1.378 . S
C614 C618 1.350 . S
C615 C618 1.463 1_455 S
C615 C620 1.350 . S
C615 N623 1.427 . S
C616 H607 0.930 . S
C616 C614 1.378 . S
C616 C617 1.367 . S
C617 C616 1.367 . S
C617 C619 1.433 . S
C618 C614 1.350 . S
C618 C615 1.463 1_655 S
C618 N622 1.427 . S
C619 H609 0.929 . S
C619 C617 1.433 . S
C619 N622 1.384 . S
C620 H611 0.929 . S
C620 C612 1.378 . S
C620 C615 1.350 . S
C621 H608 0.929 . S
C621 C613 1.433 . S
C621 N623 1.384 . S
N622 C618 1.427 . S
N622 C619 1.384 . S
N623 C615 1.427 . S
N623 C621 1.384 . S
H624 C630 0.930 . S
H625 C634 0.930 . S
H626 C639 0.929 . S
H627 C637 0.929 . S
H628 C632 0.929 . S
H629 C638 0.929 . S
C630 H624 0.930 . S
C630 C631 1.367 . S
C630 C638 1.378 . S
C631 C630 1.367 . S
C631 C639 1.433 . S
C632 H628 0.929 . S
C632 C634 1.378 . S
C632 C636 1.350 . S
C633 C636 1.463 1_565 S
C633 C638 1.350 . S
C633 N641 1.427 . S
C634 H625 0.930 . S
C634 C632 1.378 . S
C634 C635 1.367 . S
C635 C634 1.367 . S
C635 C637 1.433 . S
C636 C632 1.350 . S
C636 C633 1.463 1_545 S
C636 N640 1.427 . S
C637 H627 0.929 . S
C637 C635 1.433 . S
C637 N640 1.384 . S
C638 H629 0.929 . S
C638 C630 1.378 . S
C638 C633 1.350 . S
C639 H626 0.929 . S
C639 C631 1.433 . S
C639 N641 1.384 . S
N640 C636 1.427 . S
N640 C637 1.384 . S
N641 C633 1.427 . S
N641 C639 1.384 . S
H642 C648 0.930 . S
H643 C652 0.930 . S
H644 C657 0.929 . S
H645 C655 0.929 . S
H646 C650 0.929 . S
H647 C656 0.929 . S
C648 H642 0.930 . S
C648 C649 1.367 . S
C648 C656 1.378 . S
C649 C648 1.367 . S
C649 C657 1.433 . S
C650 H646 0.929 . S
C650 C652 1.378 . S
C650 C654 1.350 . S
C651 C654 1.463 . S
C651 C656 1.350 . S
C651 N659 1.427 . S
C652 H643 0.930 . S
C652 C650 1.378 . S
C652 C653 1.367 . S
C653 C652 1.367 . S
C653 C655 1.433 . S
C654 C650 1.350 . S
C654 C651 1.463 . S
C654 N658 1.427 . S
C655 H645 0.929 . S
C655 C653 1.433 . S
C655 N658 1.384 . S
C656 H647 0.929 . S
C656 C648 1.378 . S
C656 C651 1.350 . S
C657 H644 0.929 . S
C657 C649 1.433 . S
C657 N659 1.384 . S
N658 C654 1.427 . S
N658 C655 1.384 . S
N659 C651 1.427 . S
N659 C657 1.384 . S
H660 C666 0.930 . S
H661 C670 0.930 . S
H662 C675 0.929 . S
H663 C673 0.929 . S
H664 C668 0.929 1_455 S
H665 C674 0.929 . S
C666 H660 0.930 . S
C666 C667 1.367 . S
C666 C674 1.378 . S
C667 C666 1.367 . S
C667 C675 1.433 . S
C668 H664 0.929 1_655 S
C668 C670 1.378 . S
C668 C672 1.350 . S
C669 C672 1.463 1_455 S
C669 C674 1.350 . S
C669 N677 1.427 . S
C670 H661 0.930 . S
C670 C668 1.378 . S
C670 C671 1.367 . S
C671 C670 1.367 . S
C671 C673 1.433 . S
C672 C668 1.350 . S
C672 C669 1.463 1_655 S
C672 N676 1.427 . S
C673 H663 0.929 . S
C673 C671 1.433 . S
C673 N676 1.384 . S
C674 H665 0.929 . S
C674 C666 1.378 . S
C674 C669 1.350 . S
C675 H662 0.929 . S
C675 C667 1.433 . S
C675 N677 1.384 . S
N676 C672 1.427 . S
N676 C673 1.384 . S
N677 C669 1.427 . S
N677 C675 1.384 . S
H678 C684 0.930 . S
H679 C688 0.930 . S
H680 C693 0.929 . S
H681 C691 0.929 . S
H682 C686 0.929 . S
H683 C692 0.929 . S
C684 H678 0.930 . S
C684 C685 1.367 . S
C684 C692 1.378 . S
C685 C684 1.367 . S
C685 C693 1.433 . S
C686 H682 0.929 . S
C686 C688 1.378 . S
C686 C690 1.350 . S
C687 C690 1.463 1_545 S
C687 C692 1.350 . S
C687 N695 1.427 . S
C688 H679 0.930 . S
C688 C686 1.378 . S
C688 C689 1.367 . S
C689 C688 1.367 . S
C689 C691 1.433 . S
C690 C686 1.350 . S
C690 C687 1.463 1_565 S
C690 N694 1.427 . S
C691 H681 0.929 . S
C691 C689 1.433 . S
C691 N694 1.384 . S
C692 H683 0.929 . S
C692 C684 1.378 . S
C692 C687 1.350 . S
C693 H680 0.929 . S
C693 C685 1.433 . S
C693 N695 1.384 . S
N694 C690 1.427 . S
N694 C691 1.384 . S
N695 C687 1.427 . S
N695 C693 1.384 . S
H696 C702 0.930 . S
H697 C706 0.930 . S
H698 C711 0.929 . S
H699 C709 0.929 . S
H700 C704 0.929 . S
H701 C710 0.929 . S
C702 H696 0.930 . S
C702 C703 1.367 . S
C702 C710 1.378 . S
C703 C702 1.367 . S
C703 C711 1.433 . S
C704 H700 0.929 . S
C704 C706 1.378 . S
C704 C708 1.350 . S
C705 C708 1.463 . S
C705 C710 1.350 . S
C705 N713 1.427 . S
C706 H697 0.930 . S
C706 C704 1.378 . S
C706 C707 1.367 . S
C707 C706 1.367 . S
C707 C709 1.433 . S
C708 C704 1.350 . S
C708 C705 1.463 . S
C708 N712 1.427 . S
C709 H699 0.929 . S
C709 C707 1.433 . S
C709 N712 1.384 . S
C710 H701 0.929 . S
C710 C702 1.378 . S
C710 C705 1.350 . S
C711 H698 0.929 . S
C711 C703 1.433 . S
C711 N713 1.384 . S
N712 C708 1.427 . S
N712 C709 1.384 . S
N713 C705 1.427 . S
N713 C711 1.384 . S
H714 C720 0.930 . S
H715 C724 0.930 . S
H716 C729 0.929 . S
H717 C727 0.929 . S
H718 C722 0.929 . S
H719 C728 0.929 . S
C720 H714 0.930 . S
C720 C721 1.367 . S
C720 C728 1.378 . S
C721 C720 1.367 . S
C721 C729 1.433 . S
C722 H718 0.929 . S
C722 C724 1.378 . S
C722 C726 1.350 . S
C723 C726 1.463 . S
C723 C728 1.350 . S
C723 N731 1.427 . S
C724 H715 0.930 . S
C724 C722 1.378 . S
C724 C725 1.367 . S
C725 C724 1.367 . S
C725 C727 1.433 . S
C726 C722 1.350 . S
C726 C723 1.463 . S
C726 N730 1.427 . S
C727 H717 0.929 . S
C727 C725 1.433 . S
C727 N730 1.384 . S
C728 H719 0.929 . S
C728 C720 1.378 . S
C728 C723 1.350 . S
C729 H716 0.929 . S
C729 C721 1.433 . S
C729 N731 1.384 . S
N730 C726 1.427 . S
N730 C727 1.384 . S
N731 C723 1.427 . S
N731 C729 1.384 . S
H732 C738 0.930 . S
H733 C742 0.930 . S
H734 C747 0.929 . S
H735 C745 0.929 . S
H736 C740 0.929 . S
H737 C746 0.929 . S
C738 H732 0.930 . S
C738 C739 1.367 . S
C738 C746 1.378 . S
C739 C738 1.367 . S
C739 C747 1.433 . S
C740 H736 0.929 . S
C740 C742 1.378 . S
C740 C744 1.350 . S
C741 C744 1.463 . S
C741 C746 1.350 . S
C741 N749 1.427 . S
C742 H733 0.930 . S
C742 C740 1.378 . S
C742 C743 1.367 . S
C743 C742 1.367 . S
C743 C745 1.433 . S
C744 C740 1.350 . S
C744 C741 1.463 . S
C744 N748 1.427 . S
C745 H735 0.929 . S
C745 C743 1.433 . S
C745 N748 1.384 . S
C746 H737 0.929 . S
C746 C738 1.378 . S
C746 C741 1.350 . S
C747 H734 0.929 . S
C747 C739 1.433 . S
C747 N749 1.384 . S
N748 C744 1.427 . S
N748 C745 1.384 . S
N749 C741 1.427 . S
N749 C747 1.384 . S
H750 C756 0.930 . S
H751 C760 0.930 . S
H752 C765 0.929 . S
H753 C763 0.929 . S
H754 C758 0.929 . S
H755 C764 0.929 . S
C756 H750 0.930 . S
C756 C757 1.367 . S
C756 C764 1.378 . S
C757 C756 1.367 . S
C757 C765 1.433 . S
C758 H754 0.929 . S
C758 C760 1.378 . S
C758 C762 1.350 . S
C759 C762 1.463 . S
C759 C764 1.350 . S
C759 N767 1.427 . S
C760 H751 0.930 . S
C760 C758 1.378 . S
C760 C761 1.367 . S
C761 C760 1.367 . S
C761 C763 1.433 . S
C762 C758 1.350 . S
C762 C759 1.463 . S
C762 N766 1.427 . S
C763 H753 0.929 . S
C763 C761 1.433 . S
C763 N766 1.384 . S
C764 H755 0.929 . S
C764 C756 1.378 . S
C764 C759 1.350 . S
C765 H752 0.929 . S
C765 C757 1.433 . S
C765 N767 1.384 . S
N766 C762 1.427 . S
N766 C763 1.384 . S
N767 C759 1.427 . S
N767 C765 1.384 . S
H768 C774 0.930 . S
H769 C778 0.930 . S
H770 C783 0.929 . S
H771 C781 0.929 . S
H772 C776 0.929 . S
H773 C782 0.929 . S
C774 H768 0.930 . S
C774 C775 1.367 . S
C774 C782 1.378 . S
C775 C774 1.367 . S
C775 C783 1.433 . S
C776 H772 0.929 . S
C776 C778 1.378 . S
C776 C780 1.350 . S
C777 C780 1.463 . S
C777 C782 1.350 . S
C777 N785 1.427 . S
C778 H769 0.930 . S
C778 C776 1.378 . S
C778 C779 1.367 . S
C779 C778 1.367 . S
C779 C781 1.433 . S
C780 C776 1.350 . S
C780 C777 1.463 . S
C780 N784 1.427 . S
C781 H771 0.929 . S
C781 C779 1.433 . S
C781 N784 1.384 . S
C782 H773 0.929 . S
C782 C774 1.378 . S
C782 C777 1.350 . S
C783 H770 0.929 . S
C783 C775 1.433 . S
C783 N785 1.384 . S
N784 C780 1.427 . S
N784 C781 1.384 . S
N785 C777 1.427 . S
N785 C783 1.384 . S
H786 C792 0.930 . S
H787 C796 0.930 . S
H788 C801 0.929 . S
H789 C799 0.929 . S
H790 C794 0.929 . S
H791 C800 0.929 . S
C792 H786 0.930 . S
C792 C793 1.367 . S
C792 C800 1.378 . S
C793 C792 1.367 . S
C793 C801 1.433 . S
C794 H790 0.929 . S
C794 C796 1.378 . S
C794 C798 1.350 . S
C795 C798 1.463 . S
C795 C800 1.350 . S
C795 N803 1.427 . S
C796 H787 0.930 . S
C796 C794 1.378 . S
C796 C797 1.367 . S
C797 C796 1.367 . S
C797 C799 1.433 . S
C798 C794 1.350 . S
C798 C795 1.463 . S
C798 N802 1.427 . S
C799 H789 0.929 . S
C799 C797 1.433 . S
C799 N802 1.384 . S
C800 H791 0.929 . S
C800 C792 1.378 . S
C800 C795 1.350 . S
C801 H788 0.929 . S
C801 C793 1.433 . S
C801 N803 1.384 . S
N802 C798 1.427 . S
N802 C799 1.384 . S
N803 C795 1.427 . S
N803 C801 1.384 . S
H804 C810 0.930 . S
H805 C814 0.930 . S
H806 C819 0.929 . S
H807 C817 0.929 . S
H808 C812 0.929 1_565 S
H809 C818 0.929 1_545 S
C810 H804 0.930 . S
C810 C811 1.367 . S
C810 C818 1.378 . S
C811 C810 1.367 . S
C811 C819 1.433 . S
C812 H808 0.929 1_545 S
C812 C814 1.378 . S
C812 C816 1.350 . S
C813 C816 1.463 1_566 S
C813 C818 1.350 . S
C813 N821 1.427 . S
C814 H805 0.930 . S
C814 C812 1.378 . S
C814 C815 1.367 . S
C815 C814 1.367 . S
C815 C817 1.433 . S
C816 C812 1.350 . S
C816 C813 1.463 1_544 S
C816 N820 1.427 . S
C817 H807 0.929 . S
C817 C815 1.433 . S
C817 N820 1.384 . S
C818 H809 0.929 1_565 S
C818 C810 1.378 . S
C818 C813 1.350 . S
C819 H806 0.929 . S
C819 C811 1.433 . S
C819 N821 1.384 . S
N820 C816 1.427 . S
N820 C817 1.384 . S
N821 C813 1.427 . S
N821 C819 1.384 . S
H822 C828 0.930 . S
H823 C832 0.930 . S
H824 C837 0.929 . S
H825 C835 0.929 . S
H826 C830 0.929 . S
H827 C836 0.929 . S
C828 H822 0.930 . S
C828 C829 1.367 . S
C828 C836 1.378 . S
C829 C828 1.367 . S
C829 C837 1.433 . S
C830 H826 0.929 . S
C830 C832 1.378 . S
C830 C834 1.350 . S
C831 C834 1.463 . S
C831 C836 1.350 . S
C831 N839 1.427 . S
C832 H823 0.930 . S
C832 C830 1.378 . S
C832 C833 1.367 . S
C833 C832 1.367 . S
C833 C835 1.433 . S
C834 C830 1.350 . S
C834 C831 1.463 . S
C834 N838 1.427 . S
C835 H825 0.929 . S
C835 C833 1.433 . S
C835 N838 1.384 . S
C836 H827 0.929 . S
C836 C828 1.378 . S
C836 C831 1.350 . S
C837 H824 0.929 . S
C837 C829 1.433 . S
C837 N839 1.384 . S
N838 C834 1.427 . S
N838 C835 1.384 . S
N839 C831 1.427 . S
N839 C837 1.384 . S
H840 C846 0.930 . S
H841 C850 0.930 . S
H842 C855 0.929 . S
H843 C853 0.929 . S
H844 C848 0.929 1_455 S
H845 C854 0.929 1_655 S
C846 H840 0.930 . S
C846 C847 1.367 . S
C846 C854 1.378 . S
C847 C846 1.367 . S
C847 C855 1.433 . S
C848 H844 0.929 1_655 S
C848 C850 1.378 . S
C848 C852 1.350 . S
C849 C852 1.463 1_456 S
C849 C854 1.350 . S
C849 N857 1.437 . S
C850 H841 0.930 . S
C850 C848 1.378 . S
C850 C851 1.367 . S
C851 C850 1.367 . S
C851 C853 1.433 . S
C852 C848 1.350 . S
C852 C849 1.463 1_654 S
C852 N856 1.437 . S
C853 H843 0.929 . S
C853 C851 1.433 . S
C853 N856 1.402 . S
C854 H845 0.929 1_455 S
C854 C846 1.378 . S
C854 C849 1.350 . S
C855 H842 0.929 . S
C855 C847 1.433 . S
C855 N857 1.402 . S
N856 C852 1.437 . S
N856 C853 1.402 . S
N857 C849 1.437 . S
N857 C855 1.402 . S
H858 C864 0.930 . S
H859 C868 0.930 . S
H860 C873 0.929 . S
H861 C871 0.929 . S
H862 C866 0.929 . S
H863 C872 0.929 . S
C864 H858 0.930 . S
C864 C865 1.367 . S
C864 C872 1.378 . S
C865 C864 1.367 . S
C865 C873 1.433 . S
C866 H862 0.929 . S
C866 C868 1.378 . S
C866 C870 1.350 . S
C867 C870 1.463 1_545 S
C867 C872 1.350 . S
C867 N875 1.427 . S
C868 H859 0.930 . S
C868 C866 1.378 . S
C868 C869 1.367 . S
C869 C868 1.367 . S
C869 C871 1.433 . S
C870 C866 1.350 . S
C870 C867 1.463 1_565 S
C870 N874 1.427 . S
C871 H861 0.929 . S
C871 C869 1.433 . S
C871 N874 1.384 . S
C872 H863 0.929 . S
C872 C864 1.378 . S
C872 C867 1.350 . S
C873 H860 0.929 . S
C873 C865 1.433 . S
C873 N875 1.384 . S
N874 C870 1.427 . S
N874 C871 1.384 . S
N875 C867 1.427 . S
N875 C873 1.384 . S
H876 C882 0.930 . S
H877 C886 0.930 . S
H878 C891 0.929 . S
H879 C889 0.929 . S
H880 C884 0.929 . S
H881 C890 0.929 . S
C882 H876 0.930 . S
C882 C883 1.367 . S
C882 C890 1.378 . S
C883 C882 1.367 . S
C883 C891 1.433 . S
C884 H880 0.929 . S
C884 C886 1.378 . S
C884 C888 1.350 . S
C885 C888 1.463 1_554 S
C885 C890 1.350 . S
C885 N893 1.438 . S
C886 H877 0.930 . S
C886 C884 1.378 . S
C886 C887 1.367 . S
C887 C886 1.367 . S
C887 C889 1.433 . S
C888 C884 1.350 . S
C888 C885 1.463 1_556 S
C888 N892 1.438 . S
C889 H879 0.929 . S
C889 C887 1.433 . S
C889 N892 1.405 . S
C890 H881 0.929 . S
C890 C882 1.378 . S
C890 C885 1.350 . S
C891 H878 0.929 . S
C891 C883 1.433 . S
C891 N893 1.405 . S
N892 C888 1.438 . S
N892 C889 1.405 . S
N893 C885 1.438 . S
N893 C891 1.405 . S
H894 C900 0.930 . S
H895 C904 0.930 . S
H896 C909 0.929 . S
H897 C907 0.929 . S
H898 C902 0.929 . S
H899 C908 0.929 . S
C900 H894 0.930 . S
C900 C901 1.367 . S
C900 C908 1.378 . S
C901 C900 1.367 . S
C901 C909 1.433 . S
C902 H898 0.929 . S
C902 C904 1.378 . S
C902 C906 1.350 . S
C903 C906 1.463 1_455 S
C903 C908 1.350 . S
C903 N911 1.427 . S
C904 H895 0.930 . S
C904 C902 1.378 . S
C904 C905 1.367 . S
C905 C904 1.367 . S
C905 C907 1.433 . S
C906 C902 1.350 . S
C906 C903 1.463 1_655 S
C906 N910 1.427 . S
C907 H897 0.929 . S
C907 C905 1.433 . S
C907 N910 1.384 . S
C908 H899 0.929 . S
C908 C900 1.378 . S
C908 C903 1.350 . S
C909 H896 0.929 . S
C909 C901 1.433 . S
C909 N911 1.384 . S
N910 C906 1.427 . S
N910 C907 1.384 . S
N911 C903 1.427 . S
N911 C909 1.384 . S
H912 C918 0.930 . S
H913 C922 0.930 . S
H914 C927 0.929 . S
H915 C925 0.929 . S
H916 C920 0.929 . S
H917 C926 0.929 . S
C918 H912 0.930 . S
C918 C919 1.367 . S
C918 C926 1.378 . S
C919 C918 1.367 . S
C919 C927 1.433 . S
C920 H916 0.929 . S
C920 C922 1.378 . S
C920 C924 1.350 . S
C921 C924 1.463 . S
C921 C926 1.350 . S
C921 N929 1.427 . S
C922 H913 0.930 . S
C922 C920 1.378 . S
C922 C923 1.367 . S
C923 C922 1.367 . S
C923 C925 1.433 . S
C924 C920 1.350 . S
C924 C921 1.463 . S
C924 N928 1.427 . S
C925 H915 0.929 . S
C925 C923 1.433 . S
C925 N928 1.384 . S
C926 H917 0.929 . S
C926 C918 1.378 . S
C926 C921 1.350 . S
C927 H914 0.929 . S
C927 C919 1.433 . S
C927 N929 1.384 . S
N928 C924 1.427 . S
N928 C925 1.384 . S
N929 C921 1.427 . S
N929 C927 1.384 . S
H930 C936 0.930 . S
H931 C940 0.930 . S
H932 C945 0.929 . S
H933 C943 0.929 . S
H934 C938 0.929 . S
H935 C944 0.929 . S
C936 H930 0.930 . S
C936 C937 1.367 . S
C936 C944 1.378 . S
C937 C936 1.367 . S
C937 C945 1.433 . S
C938 H934 0.929 . S
C938 C940 1.378 . S
C938 C942 1.350 . S
C939 C942 1.463 . S
C939 C944 1.350 . S
C939 N947 1.427 . S
C940 H931 0.930 . S
C940 C938 1.378 . S
C940 C941 1.367 . S
C941 C940 1.367 . S
C941 C943 1.433 . S
C942 C938 1.350 . S
C942 C939 1.463 . S
C942 N946 1.427 . S
C943 H933 0.929 . S
C943 C941 1.433 . S
C943 N946 1.384 . S
C944 H935 0.929 . S
C944 C936 1.378 . S
C944 C939 1.350 . S
C945 H932 0.929 . S
C945 C937 1.433 . S
C945 N947 1.384 . S
N946 C942 1.427 . S
N946 C943 1.384 . S
N947 C939 1.427 . S
N947 C945 1.384 . S
H948 C954 0.930 . S
H949 C958 0.930 . S
H950 C963 0.929 . S
H951 C961 0.929 . S
H952 C956 0.929 . S
H953 C962 0.929 . S
C954 H948 0.930 . S
C954 C955 1.367 . S
C954 C962 1.378 . S
C955 C954 1.367 . S
C955 C963 1.433 . S
C956 H952 0.929 . S
C956 C958 1.378 . S
C956 C960 1.350 . S
C957 C960 1.463 . S
C957 C962 1.350 . S
C957 N965 1.427 . S
C958 H949 0.930 . S
C958 C956 1.378 . S
C958 C959 1.367 . S
C959 C958 1.367 . S
C959 C961 1.433 . S
C960 C956 1.350 . S
C960 C957 1.463 . S
C960 N964 1.427 . S
C961 H951 0.929 . S
C961 C959 1.433 . S
C961 N964 1.384 . S
C962 H953 0.929 . S
C962 C954 1.378 . S
C962 C957 1.350 . S
C963 H950 0.929 . S
C963 C955 1.433 . S
C963 N965 1.384 . S
N964 C960 1.427 . S
N964 C961 1.384 . S
N965 C957 1.427 . S
N965 C963 1.384 . S
H966 C972 0.930 . S
H967 C976 0.930 . S
H968 C981 0.929 . S
H969 C979 0.929 . S
H970 C974 0.929 . S
H971 C980 0.929 . S
C972 H966 0.930 . S
C972 C973 1.367 . S
C972 C980 1.378 . S
C973 C972 1.367 . S
C973 C981 1.433 . S
C974 H970 0.929 . S
C974 C976 1.378 . S
C974 C978 1.350 . S
C975 C978 1.463 . S
C975 C980 1.350 . S
C975 N983 1.427 . S
C976 H967 0.930 . S
C976 C974 1.378 . S
C976 C977 1.367 . S
C977 C976 1.367 . S
C977 C979 1.433 . S
C978 C974 1.350 . S
C978 C975 1.463 . S
C978 N982 1.427 . S
C979 H969 0.929 . S
C979 C977 1.433 . S
C979 N982 1.384 . S
C980 H971 0.929 . S
C980 C972 1.378 . S
C980 C975 1.350 . S
C981 H968 0.929 . S
C981 C973 1.433 . S
C981 N983 1.384 . S
N982 C978 1.427 . S
N982 C979 1.384 . S
N983 C975 1.427 . S
N983 C981 1.384 . S
H984 C990 0.930 . S
H985 C994 0.930 . S
H986 C999 0.929 . S
H987 C997 0.929 . S
H988 C992 0.929 . S
H989 C998 0.929 . S
C990 H984 0.930 . S
C990 C991 1.367 . S
C990 C998 1.378 . S
C991 C990 1.367 . S
C991 C999 1.433 . S
C992 H988 0.929 . S
C992 C994 1.378 . S
C992 C996 1.350 . S
C993 C996 1.463 . S
C993 C998 1.350 . S
C993 N1001 1.427 . S
C994 H985 0.930 . S
C994 C992 1.378 . S
C994 C995 1.367 . S
C995 C994 1.367 . S
C995 C997 1.433 . S
C996 C992 1.350 . S
C996 C993 1.463 . S
C996 N1000 1.427 . S
C997 H987 0.929 . S
C997 C995 1.433 . S
C997 N1000 1.384 . S
C998 H989 0.929 . S
C998 C990 1.378 . S
C998 C993 1.350 . S
C999 H986 0.929 . S
C999 C991 1.433 . S
C999 N1001 1.384 . S
N1000 C996 1.427 . S
N1000 C997 1.384 . S
N1001 C993 1.427 . S
N1001 C999 1.384 . S
H1002 C1008 0.930 . S
H1003 C1012 0.930 . S
H1004 C1017 0.929 . S
H1005 C1015 0.929 . S
H1006 C1010 0.929 . S
H1007 C1016 0.929 . S
C1008 H1002 0.930 . S
C1008 C1009 1.367 . S
C1008 C1016 1.378 . S
C1009 C1008 1.367 . S
C1009 C1017 1.433 . S
C1010 H1006 0.929 . S
C1010 C1012 1.378 . S
C1010 C1014 1.350 . S
C1011 C1014 1.463 . S
C1011 C1016 1.350 . S
C1011 N1019 1.427 . S
C1012 H1003 0.930 . S
C1012 C1010 1.378 . S
C1012 C1013 1.367 . S
C1013 C1012 1.367 . S
C1013 C1015 1.433 . S
C1014 C1010 1.350 . S
C1014 C1011 1.463 . S
C1014 N1018 1.427 . S
C1015 H1005 0.929 . S
C1015 C1013 1.433 . S
C1015 N1018 1.384 . S
C1016 H1007 0.929 . S
C1016 C1008 1.378 . S
C1016 C1011 1.350 . S
C1017 H1004 0.929 . S
C1017 C1009 1.433 . S
C1017 N1019 1.384 . S
N1018 C1014 1.427 . S
N1018 C1015 1.384 . S
N1019 C1011 1.427 . S
N1019 C1017 1.384 . S
H1020 C1026 0.930 . S
H1021 C1030 0.930 . S
H1022 C1035 0.929 . S
H1023 C1033 0.929 . S
H1024 C1028 0.929 . S
H1025 C1034 0.929 . S
C1026 H1020 0.930 . S
C1026 C1027 1.367 . S
C1026 C1034 1.378 . S
C1027 C1026 1.367 . S
C1027 C1035 1.433 . S
C1028 H1024 0.929 . S
C1028 C1030 1.378 . S
C1028 C1032 1.350 . S
C1029 C1032 1.463 . S
C1029 C1034 1.350 . S
C1029 N1037 1.427 . S
C1030 H1021 0.930 . S
C1030 C1028 1.378 . S
C1030 C1031 1.367 . S
C1031 C1030 1.367 . S
C1031 C1033 1.433 . S
C1032 C1028 1.350 . S
C1032 C1029 1.463 . S
C1032 N1036 1.427 . S
C1033 H1023 0.929 . S
C1033 C1031 1.433 . S
C1033 N1036 1.384 . S
C1034 H1025 0.929 . S
C1034 C1026 1.378 . S
C1034 C1029 1.350 . S
C1035 H1022 0.929 . S
C1035 C1027 1.433 . S
C1035 N1037 1.384 . S
N1036 C1032 1.427 . S
N1036 C1033 1.384 . S
N1037 C1029 1.427 . S
N1037 C1035 1.384 . S
H1038 C1044 0.930 . S
H1039 C1048 0.930 . S
H1040 C1053 0.929 . S
H1041 C1051 0.929 . S
H1042 C1046 0.929 . S
H1043 C1052 0.929 . S
C1044 H1038 0.930 . S
C1044 C1045 1.367 . S
C1044 C1052 1.378 . S
C1045 C1044 1.367 . S
C1045 C1053 1.433 . S
C1046 H1042 0.929 . S
C1046 C1048 1.378 . S
C1046 C1050 1.350 . S
C1047 C1050 1.463 . S
C1047 C1052 1.350 . S
C1047 N1055 1.427 . S
C1048 H1039 0.930 . S
C1048 C1046 1.378 . S
C1048 C1049 1.367 . S
C1049 C1048 1.367 . S
C1049 C1051 1.433 . S
C1050 C1046 1.350 . S
C1050 C1047 1.463 . S
C1050 N1054 1.427 . S
C1051 H1041 0.929 . S
C1051 C1049 1.433 . S
C1051 N1054 1.384 . S
C1052 H1043 0.929 . S
C1052 C1044 1.378 . S
C1052 C1047 1.350 . S
C1053 H1040 0.929 . S
C1053 C1045 1.433 . S
C1053 N1055 1.384 . S
N1054 C1050 1.427 . S
N1054 C1051 1.384 . S
N1055 C1047 1.427 . S
N1055 C1053 1.384 . S
H1056 C1062 0.930 . S
H1057 C1066 0.930 . S
H1058 C1071 0.929 . S
H1059 C1069 0.929 . S
H1060 C1064 0.929 . S
H1061 C1070 0.929 . S
C1062 H1056 0.930 . S
C1062 C1063 1.367 . S
C1062 C1070 1.378 . S
C1063 C1062 1.367 . S
C1063 C1071 1.433 . S
C1064 H1060 0.929 . S
C1064 C1066 1.378 . S
C1064 C1068 1.350 . S
C1065 C1068 1.463 . S
C1065 C1070 1.350 . S
C1065 N1073 1.427 . S
C1066 H1057 0.930 . S
C1066 C1064 1.378 . S
C1066 C1067 1.367 . S
C1067 C1066 1.367 . S
C1067 C1069 1.433 . S
C1068 C1064 1.350 . S
C1068 C1065 1.463 . S
C1068 N1072 1.427 . S
C1069 H1059 0.929 . S
C1069 C1067 1.433 . S
C1069 N1072 1.384 . S
C1070 H1061 0.929 . S
C1070 C1062 1.378 . S
C1070 C1065 1.350 . S
C1071 H1058 0.929 . S
C1071 C1063 1.433 . S
C1071 N1073 1.384 . S
N1072 C1068 1.427 . S
N1072 C1069 1.384 . S
N1073 C1065 1.427 . S
N1073 C1071 1.384 . S
H1074 C1080 0.930 . S
H1075 C1084 0.930 . S
H1076 C1089 0.929 . S
H1077 C1087 0.929 . S
H1078 C1082 0.929 . S
H1079 C1088 0.929 . S
C1080 H1074 0.930 . S
C1080 C1081 1.367 . S
C1080 C1088 1.378 . S
C1081 C1080 1.367 . S
C1081 C1089 1.433 . S
C1082 H1078 0.929 . S
C1082 C1084 1.378 . S
C1082 C1086 1.350 . S
C1083 C1086 1.463 . S
C1083 C1088 1.350 . S
C1083 N1091 1.427 . S
C1084 H1075 0.930 . S
C1084 C1082 1.378 . S
C1084 C1085 1.367 . S
C1085 C1084 1.367 . S
C1085 C1087 1.433 . S
C1086 C1082 1.350 . S
C1086 C1083 1.463 . S
C1086 N1090 1.427 . S
C1087 H1077 0.929 . S
C1087 C1085 1.433 . S
C1087 N1090 1.384 . S
C1088 H1079 0.929 . S
C1088 C1080 1.378 . S
C1088 C1083 1.350 . S
C1089 H1076 0.929 . S
C1089 C1081 1.433 . S
C1089 N1091 1.384 . S
N1090 C1086 1.427 . S
N1090 C1087 1.384 . S
N1091 C1083 1.427 . S
N1091 C1089 1.384 . S
H1092 C1098 0.930 . S
H1093 C1102 0.930 . S
H1094 C1107 0.929 . S
H1095 C1105 0.929 . S
H1096 C1100 0.929 . S
H1097 C1106 0.929 . S
C1098 H1092 0.930 . S
C1098 C1099 1.367 . S
C1098 C1106 1.378 . S
C1099 C1098 1.367 . S
C1099 C1107 1.433 . S
C1100 H1096 0.929 . S
C1100 C1102 1.378 . S
C1100 C1104 1.350 . S
C1101 C1104 1.463 . S
C1101 C1106 1.350 . S
C1101 N1109 1.427 . S
C1102 H1093 0.930 . S
C1102 C1100 1.378 . S
C1102 C1103 1.367 . S
C1103 C1102 1.367 . S
C1103 C1105 1.433 . S
C1104 C1100 1.350 . S
C1104 C1101 1.463 . S
C1104 N1108 1.427 . S
C1105 H1095 0.929 . S
C1105 C1103 1.433 . S
C1105 N1108 1.384 . S
C1106 H1097 0.929 . S
C1106 C1098 1.378 . S
C1106 C1101 1.350 . S
C1107 H1094 0.929 . S
C1107 C1099 1.433 . S
C1107 N1109 1.384 . S
N1108 C1104 1.427 . S
N1108 C1105 1.384 . S
N1109 C1101 1.427 . S
N1109 C1107 1.384 . S
H1110 C1116 0.930 . S
H1111 C1120 0.930 . S
H1112 C1125 0.929 . S
H1113 C1123 0.929 . S
H1114 C1118 0.929 . S
H1115 C1124 0.929 . S
C1116 H1110 0.930 . S
C1116 C1117 1.367 . S
C1116 C1124 1.378 . S
C1117 C1116 1.367 . S
C1117 C1125 1.433 . S
C1118 H1114 0.929 . S
C1118 C1120 1.378 . S
C1118 C1122 1.350 . S
C1119 C1122 1.463 . S
C1119 C1124 1.350 . S
C1119 N1127 1.427 . S
C1120 H1111 0.930 . S
C1120 C1118 1.378 . S
C1120 C1121 1.367 . S
C1121 C1120 1.367 . S
C1121 C1123 1.433 . S
C1122 C1118 1.350 . S
C1122 C1119 1.463 . S
C1122 N1126 1.427 . S
C1123 H1113 0.929 . S
C1123 C1121 1.433 . S
C1123 N1126 1.384 . S
C1124 H1115 0.929 . S
C1124 C1116 1.378 . S
C1124 C1119 1.350 . S
C1125 H1112 0.929 . S
C1125 C1117 1.433 . S
C1125 N1127 1.384 . S
N1126 C1122 1.427 . S
N1126 C1123 1.384 . S
N1127 C1119 1.427 . S
N1127 C1125 1.384 . S
C487 C95 1.317 . S
C491 C19 1.281 . S
C505 C126 1.312 . S
C509 C50 1.271 . S
C523 C99 1.281 . S
C527 C175 1.317 . S
C541 C130 1.275 . S
C545 C206 1.317 . S
C559 C15 1.317 . S
C563 C179 1.277 . S
C577 C46 1.311 . S
C581 C210 1.264 . S
C595 C406 1.311 . S
C599 C250 1.264 . S
C613 C299 1.264 . S
C617 C455 1.311 . S
C631 C330 1.279 . S
C635 C246 1.318 . S
C649 C379 1.266 . S
C653 C295 1.311 . S
C667 C410 1.267 . S
C671 C326 1.313 . S
C685 C375 1.312 . S
C689 C459 1.272 . S
C703 C129 1.709 . S
C707 C18 1.699 . S
C721 C49 1.710 . S
C725 C178 1.698 . S
C739 C98 1.702 . S
C743 C209 1.706 . S
C757 C249 1.712 . S
C761 C378 1.696 . S
C775 C298 1.702 . S
C779 C409 1.707 . S
C793 C329 1.696 . S
C797 C458 1.712 . S
C811 C289 2.359 . S
C815 C9 2.359 . S
C829 C58 2.359 . S
C833 C338 2.359 . S
C847 C369 2.359 . S
C851 C89 2.359 . S
C865 C138 2.362 . S
C869 C418 2.363 . S
C883 C169 2.359 . S
C887 C449 2.359 . S
C901 C258 2.361 . S
C905 C218 2.361 . S
C919 C86 1.764 . S
C923 C10 1.774 . S
C937 C59 1.782 . S
C941 C135 1.767 . S
C955 C90 1.776 . S
C959 C166 1.769 . S
C973 C139 1.778 . S
C977 C215 1.772 . S
C991 C6 1.769 . S
C995 C170 1.776 . S
C1009 C55 1.772 . S
C1013 C219 1.783 . S
C1027 C415 1.768 . S
C1031 C259 1.775 . S
C1045 C290 1.780 . S
C1049 C446 1.765 . S
C1063 C339 1.783 . S
C1067 C255 1.770 . S
C1081 C286 1.765 . S
C1085 C370 1.774 . S
C1099 C419 1.782 . S
C1103 C335 1.773 . S
C1117 C450 1.782 . S
C1121 C366 1.773 . S
