# Generated by pormake.
# Topology why, (6)-cn, num edge types: 1
# Building blocks:
#     Node 0, Type 0, BuildingBlock: JUFBIX_clean_sbu_0, # of connection points: 6
#     Node 1, Type 0, BuildingBlock: JUFBIX_clean_sbu_0, # of connection points: 6
#     Node 2, Type 0, BuildingBlock: JUFBIX_clean_sbu_0, # of connection points: 6
#     Node 3, Type 0, BuildingBlock: JUFBIX_clean_sbu_0, # of connection points: 6
#     Node 4, Type 0, BuildingBlock: JUFBIX_clean_sbu_0, # of connection points: 6
#     Node 5, Type 0, BuildingBlock: JUFBIX_clean_sbu_0, # of connection points: 6
#     Node 6, Type 0, BuildingBlock: JUFBIX_clean_sbu_0, # of connection points: 6
#     Node 7, Type 0, BuildingBlock: JUFBIX_clean_sbu_0, # of connection points: 6
#     Node 8, Type 0, BuildingBlock: JUFBIX_clean_sbu_0, # of connection points: 6
#     Node 9, Type 0, BuildingBlock: JUFBIX_clean_sbu_0, # of connection points: 6
#     Node 10, Type 0, BuildingBlock: JUFBIX_clean_sbu_0, # of connection points: 6
#     Node 11, Type 0, BuildingBlock: JUFBIX_clean_sbu_0, # of connection points: 6
#     Node 12, Type 0, BuildingBlock: JUFBIX_clean_sbu_0, # of connection points: 6
#     Node 13, Type 0, BuildingBlock: JUFBIX_clean_sbu_0, # of connection points: 6
#     Node 14, Type 0, BuildingBlock: JUFBIX_clean_sbu_0, # of connection points: 6
#     Node 15, Type 0, BuildingBlock: JUFBIX_clean_sbu_0, # of connection points: 6
#     Edge 16, Type (0, 0), BuildingBlock: UVAHIK_clean_linker_0, # of connection points: 2
#     Edge 17, Type (0, 0), BuildingBlock: UVAHIK_clean_linker_0, # of connection points: 2
#     Edge 18, Type (0, 0), BuildingBlock: UVAHIK_clean_linker_0, # of connection points: 2
#     Edge 19, Type (0, 0), BuildingBlock: UVAHIK_clean_linker_0, # of connection points: 2
#     Edge 20, Type (0, 0), BuildingBlock: UVAHIK_clean_linker_0, # of connection points: 2
#     Edge 21, Type (0, 0), BuildingBlock: UVAHIK_clean_linker_0, # of connection points: 2
#     Edge 22, Type (0, 0), BuildingBlock: UVAHIK_clean_linker_0, # of connection points: 2
#     Edge 23, Type (0, 0), BuildingBlock: UVAHIK_clean_linker_0, # of connection points: 2
#     Edge 24, Type (0, 0), BuildingBlock: UVAHIK_clean_linker_0, # of connection points: 2
#     Edge 25, Type (0, 0), BuildingBlock: UVAHIK_clean_linker_0, # of connection points: 2
#     Edge 26, Type (0, 0), BuildingBlock: UVAHIK_clean_linker_0, # of connection points: 2
#     Edge 27, Type (0, 0), BuildingBlock: UVAHIK_clean_linker_0, # of connection points: 2
#     Edge 28, Type (0, 0), BuildingBlock: UVAHIK_clean_linker_0, # of connection points: 2
#     Edge 29, Type (0, 0), BuildingBlock: UVAHIK_clean_linker_0, # of connection points: 2
#     Edge 30, Type (0, 0), BuildingBlock: UVAHIK_clean_linker_0, # of connection points: 2
#     Edge 31, Type (0, 0), BuildingBlock: UVAHIK_clean_linker_0, # of connection points: 2
#     Edge 32, Type (0, 0), BuildingBlock: UVAHIK_clean_linker_0, # of connection points: 2
#     Edge 33, Type (0, 0), BuildingBlock: UVAHIK_clean_linker_0, # of connection points: 2
#     Edge 34, Type (0, 0), BuildingBlock: UVAHIK_clean_linker_0, # of connection points: 2
#     Edge 35, Type (0, 0), BuildingBlock: UVAHIK_clean_linker_0, # of connection points: 2
#     Edge 36, Type (0, 0), BuildingBlock: UVAHIK_clean_linker_0, # of connection points: 2
#     Edge 37, Type (0, 0), BuildingBlock: UVAHIK_clean_linker_0, # of connection points: 2
#     Edge 38, Type (0, 0), BuildingBlock: UVAHIK_clean_linker_0, # of connection points: 2
#     Edge 39, Type (0, 0), BuildingBlock: UVAHIK_clean_linker_0, # of connection points: 2
#     Edge 40, Type (0, 0), BuildingBlock: UVAHIK_clean_linker_0, # of connection points: 2
#     Edge 41, Type (0, 0), BuildingBlock: UVAHIK_clean_linker_0, # of connection points: 2
#     Edge 42, Type (0, 0), BuildingBlock: UVAHIK_clean_linker_0, # of connection points: 2
#     Edge 43, Type (0, 0), BuildingBlock: UVAHIK_clean_linker_0, # of connection points: 2
#     Edge 44, Type (0, 0), BuildingBlock: UVAHIK_clean_linker_0, # of connection points: 2
#     Edge 45, Type (0, 0), BuildingBlock: UVAHIK_clean_linker_0, # of connection points: 2
#     Edge 46, Type (0, 0), BuildingBlock: UVAHIK_clean_linker_0, # of connection points: 2
#     Edge 47, Type (0, 0), BuildingBlock: UVAHIK_clean_linker_0, # of connection points: 2
#     Edge 48, Type (0, 0), BuildingBlock: UVAHIK_clean_linker_0, # of connection points: 2
#     Edge 49, Type (0, 0), BuildingBlock: UVAHIK_clean_linker_0, # of connection points: 2
#     Edge 50, Type (0, 0), BuildingBlock: UVAHIK_clean_linker_0, # of connection points: 2
#     Edge 51, Type (0, 0), BuildingBlock: UVAHIK_clean_linker_0, # of connection points: 2
#     Edge 52, Type (0, 0), BuildingBlock: UVAHIK_clean_linker_0, # of connection points: 2
#     Edge 53, Type (0, 0), BuildingBlock: UVAHIK_clean_linker_0, # of connection points: 2
#     Edge 54, Type (0, 0), BuildingBlock: UVAHIK_clean_linker_0, # of connection points: 2
#     Edge 55, Type (0, 0), BuildingBlock: UVAHIK_clean_linker_0, # of connection points: 2
#     Edge 56, Type (0, 0), BuildingBlock: UVAHIK_clean_linker_0, # of connection points: 2
#     Edge 57, Type (0, 0), BuildingBlock: UVAHIK_clean_linker_0, # of connection points: 2
#     Edge 58, Type (0, 0), BuildingBlock: UVAHIK_clean_linker_0, # of connection points: 2
#     Edge 59, Type (0, 0), BuildingBlock: UVAHIK_clean_linker_0, # of connection points: 2
#     Edge 60, Type (0, 0), BuildingBlock: UVAHIK_clean_linker_0, # of connection points: 2
#     Edge 61, Type (0, 0), BuildingBlock: UVAHIK_clean_linker_0, # of connection points: 2
#     Edge 62, Type (0, 0), BuildingBlock: UVAHIK_clean_linker_0, # of connection points: 2
#     Edge 63, Type (0, 0), BuildingBlock: UVAHIK_clean_linker_0, # of connection points: 2
# Relax obj value: 0.330
# Max RMSD: 0.179
# Mean RMSD: 0.172
data_MOF--net-why--node1-JUFBIX_clean_sbu_0--edge1-UVAHIK_clean_linker_0
_symmetry_space_group_name_H-M    P1
_symmetry_Int_Tables_number       1
_symmetry_cell_setting            triclinic
loop_
_symmetry_equiv_pos_as_xyz
'x, y, z'
_cell_length_a     64.733269
_cell_length_b     64.35096
_cell_length_c     35.734499
_cell_angle_alpha  91.682977
_cell_angle_beta   82.985591
_cell_angle_gamma 94.406732
loop_
_atom_site_label
_atom_site_type_symbol
_atom_site_fract_x
_atom_site_fract_y
_atom_site_fract_z
_atom_type_partial_charge
Co0 Co 0.33348 0.19078 0.05169 0.0
C1 C 0.34887 0.23096 0.02852 0.0
Co2 Co 0.35832 0.20509 0.08321 0.0
C3 C 0.29693 0.16617 0.02773 0.0
C4 C 0.31719 0.18114 0.98303 0.0
N5 N 0.3144 0.17908 0.02083 0.0
N6 N 0.28903 0.15998 0.9955 0.0
C7 C 0.30172 0.16949 0.96748 0.0
H8 H 0.2905 0.16097 0.05557 0.0
H9 H 0.33 0.19025 0.96752 0.0
C10 C 0.34368 0.16473 0.10551 0.0
N11 N 0.37782 0.21683 0.11255 0.0
C12 C 0.39604 0.22752 0.10076 0.0
C13 C 0.3771 0.21629 0.15039 0.0
N14 N 0.40681 0.23363 0.12969 0.0
C15 C 0.39497 0.22656 0.16102 0.0
C16 C 0.31749 0.21283 0.11411 0.0
O17 O 0.33185 0.16564 0.0797 0.0
O18 O 0.35595 0.18046 0.11186 0.0
O19 O 0.33685 0.21627 0.11684 0.0
O20 O 0.31179 0.20149 0.08679 0.0
O21 O 0.36076 0.22978 0.05404 0.0
H22 H 0.36445 0.2088 0.169 0.0
H23 H 0.40152 0.2303 0.07136 0.0
O24 O 0.33556 0.21587 0.02374 0.0
O25 O 0.35517 0.18029 0.01724 0.0
O26 O 0.37986 0.19368 0.04931 0.0
C27 C 0.3744 0.18308 0.02115 0.0
H28 H 0.29987 0.16821 0.93778 0.0
H29 H 0.3989 0.22869 0.18953 0.0
Co30 Co 0.57402 0.58588 0.29952 0.0
C31 C 0.53559 0.60011 0.28919 0.0
Co32 Co 0.56437 0.61171 0.33797 0.0
C33 C 0.59206 0.54773 0.26862 0.0
C34 C 0.58022 0.56593 0.22784 0.0
N35 N 0.58214 0.56518 0.26493 0.0
N36 N 0.59661 0.53786 0.23505 0.0
C37 C 0.5891 0.54925 0.20947 0.0
H38 H 0.59648 0.54277 0.29504 0.0
H39 H 0.57319 0.57813 0.21479 0.0
C40 C 0.60255 0.59777 0.34919 0.0
N41 N 0.55623 0.6326 0.37156 0.0
C42 C 0.54745 0.64998 0.36359 0.0
C43 C 0.55716 0.63374 0.40906 0.0
N44 N 0.54273 0.66197 0.39459 0.0
C45 C 0.54889 0.65183 0.42332 0.0
C46 C 0.55115 0.57214 0.36553 0.0
O47 O 0.59936 0.58508 0.32211 0.0
O48 O 0.58919 0.6108 0.35983 0.0
O49 O 0.55117 0.59164 0.37212 0.0
O50 O 0.5605 0.56558 0.33447 0.0
O51 O 0.53934 0.6125 0.31617 0.0
H52 H 0.56325 0.62206 0.42501 0.0
H53 H 0.54472 0.65378 0.33539 0.0
O54 O 0.54871 0.58699 0.27739 0.0
O55 O 0.58723 0.60638 0.26485 0.0
O56 O 0.57766 0.63193 0.30328 0.0
C57 C 0.58671 0.62582 0.27179 0.0
H58 H 0.59006 0.54578 0.1795 0.0
H59 H 0.54716 0.65687 0.45262 0.0
Co60 Co 0.15069 0.83051 0.49281 0.0
C61 C 0.15901 0.85064 0.56006 0.0
Co62 Co 0.16039 0.80996 0.53473 0.0
C63 C 0.12491 0.8492 0.44436 0.0
C64 C 0.15532 0.86504 0.4422 0.0
N65 N 0.14334 0.84882 0.45833 0.0
N66 N 0.125 0.8649 0.42014 0.0
C67 C 0.14413 0.87484 0.41848 0.0
H68 H 0.11167 0.83813 0.4516 0.0
H69 H 0.17111 0.86966 0.44765 0.0
C70 C 0.15122 0.78992 0.46716 0.0
N71 N 0.16756 0.79142 0.56887 0.0
C72 C 0.18243 0.79341 0.59246 0.0
C73 C 0.15826 0.77213 0.57478 0.0
N74 N 0.18279 0.77601 0.61269 0.0
C75 C 0.16756 0.76265 0.60157 0.0
C76 C 0.11757 0.81347 0.54037 0.0
O77 O 0.14648 0.80789 0.45899 0.0
O78 O 0.1586 0.78758 0.49806 0.0
O79 O 0.13174 0.80405 0.55292 0.0
O80 O 0.12258 0.82641 0.51413 0.0
O81 O 0.16177 0.8325 0.57092 0.0
H82 H 0.14544 0.76539 0.56055 0.0
H83 H 0.1929 0.80724 0.59438 0.0
O84 O 0.15471 0.85298 0.52676 0.0
O85 O 0.17888 0.83448 0.47216 0.0
O86 O 0.18913 0.8163 0.51648 0.0
C87 C 0.19357 0.82771 0.48771 0.0
H88 H 0.14942 0.88852 0.40205 0.0
H89 H 0.16315 0.74722 0.61249 0.0
Co90 Co 0.92679 0.43087 0.8034 0.0
C91 C 0.96521 0.41408 0.78024 0.0
Co92 Co 0.93471 0.40592 0.83905 0.0
C93 C 0.91229 0.46931 0.77533 0.0
C94 C 0.92495 0.44841 0.73232 0.0
N95 N 0.92096 0.45078 0.77007 0.0
N96 N 0.91097 0.47857 0.74218 0.0
C97 C 0.9189 0.46532 0.71524 0.0
H98 H 0.90719 0.4759 0.80282 0.0
H99 H 0.93166 0.43503 0.71797 0.0
C100 C 0.89587 0.42144 0.86105 0.0
N101 N 0.94058 0.386 0.87134 0.0
C102 C 0.94922 0.36787 0.86225 0.0
C103 C 0.93767 0.38675 0.90935 0.0
N104 N 0.95193 0.35725 0.89308 0.0
C105 C 0.94462 0.36908 0.92281 0.0
C106 C 0.94832 0.44575 0.8625 0.0
O107 O 0.90046 0.43331 0.83292 0.0
O108 O 0.90897 0.40898 0.86873 0.0
O109 O 0.94765 0.42635 0.86809 0.0
O110 O 0.9398 0.45214 0.83494 0.0
O111 O 0.96039 0.40275 0.8089 0.0
H112 H 0.93119 0.39948 0.92617 0.0
H113 H 0.95338 0.3626 0.83347 0.0
O114 O 0.95306 0.42775 0.77353 0.0
O115 O 0.91394 0.40931 0.77302 0.0
O116 O 0.92172 0.38519 0.8098 0.0
C117 C 0.91348 0.39013 0.7812 0.0
H118 H 0.91985 0.46745 0.68513 0.0
H119 H 0.94478 0.36553 0.95218 0.0
Co120 Co 0.63073 0.80899 0.93582 0.0
C121 C 0.64536 0.84887 0.91155 0.0
Co122 Co 0.6558 0.82356 0.96656 0.0
C123 C 0.59214 0.78749 0.92192 0.0
C124 C 0.61093 0.79564 0.87023 0.0
N125 N 0.61068 0.79688 0.90802 0.0
N126 N 0.58067 0.78051 0.89444 0.0
C127 C 0.59248 0.78552 0.86177 0.0
H128 H 0.58725 0.78573 0.95179 0.0
H129 H 0.62361 0.80188 0.8502 0.0
C130 C 0.64034 0.78385 0.99166 0.0
N131 N 0.67527 0.83566 0.99625 0.0
C132 C 0.69292 0.84822 0.98826 0.0
C133 C 0.67245 0.83468 0.03426 0.0
N134 N 0.70078 0.85527 0.02002 0.0
C135 C 0.68798 0.84674 0.04886 0.0
C136 C 0.61523 0.83187 0.99748 0.0
O137 O 0.62849 0.78476 0.96602 0.0
O138 O 0.65373 0.79895 0.99595 0.0
O139 O 0.63451 0.83471 1.0009 0.0
O140 O 0.60959 0.82093 0.96988 0.0
O141 O 0.65737 0.84822 0.93716 0.0
H142 H 0.6595 0.82615 0.05053 0.0
H143 H 0.69941 0.85268 0.96003 0.0
O144 O 0.63289 0.83314 0.90607 0.0
O145 O 0.65182 0.79732 0.90206 0.0
O146 O 0.6771 0.81219 0.93153 0.0
C147 C 0.67122 0.80067 0.90457 0.0
H148 H 0.58794 0.78253 0.83384 0.0
H149 H 0.68975 0.84916 0.07846 0.0
Co150 Co 0.42108 0.40097 0.68046 0.0
C151 C 0.38404 0.4178 0.6706 0.0
Co152 Co 0.4142 0.42792 0.71809 0.0
C153 C 0.43369 0.3606 0.65663 0.0
C154 C 0.42547 0.37751 0.6106 0.0
N155 N 0.42665 0.37881 0.64803 0.0
N156 N 0.4371 0.34798 0.62608 0.0
C157 C 0.43197 0.35856 0.59698 0.0
H158 H 0.43688 0.35697 0.68466 0.0
H159 H 0.4205 0.38968 0.59424 0.0
C160 C 0.45144 0.41052 0.72705 0.0
N161 N 0.40878 0.45023 0.751 0.0
C162 C 0.39935 0.46779 0.7459 0.0
C163 C 0.41426 0.45221 0.78624 0.0
N164 N 0.39904 0.48069 0.77644 0.0
C165 C 0.40843 0.47095 0.80181 0.0
C166 C 0.3989 0.38953 0.74877 0.0
O167 O 0.44579 0.39779 0.70187 0.0
O168 O 0.44018 0.42543 0.73769 0.0
O169 O 0.40062 0.40907 0.75557 0.0
O170 O 0.40619 0.38259 0.7166 0.0
O171 O 0.3882 0.43004 0.69779 0.0
H172 H 0.42203 0.44076 0.79983 0.0
H173 H 0.39316 0.47121 0.72014 0.0
O174 O 0.39654 0.40411 0.6591 0.0
O175 O 0.43597 0.41935 0.64471 0.0
O176 O 0.42808 0.44652 0.68056 0.0
C177 C 0.43698 0.43899 0.64995 0.0
H178 H 0.43288 0.35303 0.56796 0.0
H179 H 0.41063 0.47684 0.82985 0.0
Co180 Co 0.82859 0.20135 0.48241 0.0
C181 C 0.83657 0.21996 0.55218 0.0
Co182 Co 0.83872 0.18022 0.52306 0.0
C183 C 0.80638 0.21856 0.42577 0.0
C184 C 0.82967 0.24016 0.44552 0.0
N185 N 0.82097 0.22053 0.44989 0.0
N186 N 0.80562 0.23627 0.40662 0.0
C187 C 0.82029 0.24985 0.41907 0.0
H188 H 0.79645 0.20447 0.42257 0.0
H189 H 0.8422 0.24695 0.46043 0.0
C190 C 0.83156 0.16165 0.45338 0.0
N191 N 0.84645 0.16108 0.55538 0.0
C192 C 0.86325 0.16215 0.5745 0.0
C193 C 0.83701 0.14191 0.56223 0.0
N194 N 0.86479 0.1443 0.59259 0.0
C195 C 0.84827 0.13155 0.58499 0.0
C196 C 0.79568 0.18144 0.52742 0.0
O197 O 0.82748 0.17976 0.44457 0.0
O198 O 0.83648 0.15878 0.48607 0.0
O199 O 0.8105 0.17417 0.54188 0.0
O200 O 0.79994 0.1942 0.50053 0.0
O201 O 0.84106 0.2018 0.5598 0.0
H202 H 0.82313 0.13565 0.55054 0.0
H203 H 0.8746 0.17544 0.57387 0.0
O204 O 0.83015 0.22289 0.5206 0.0
O205 O 0.85709 0.20801 0.46444 0.0
O206 O 0.867 0.18637 0.50381 0.0
C207 C 0.87162 0.19946 0.47766 0.0
H208 H 0.82432 0.26555 0.4092 0.0
H209 H 0.84471 0.11578 0.59486 0.0
Co210 Co 0.05517 0.60713 0.17942 0.0
C211 C 0.09271 0.58956 0.15772 0.0
Co212 Co 0.06077 0.58109 0.2148 0.0
C213 C 0.0429 0.64641 0.15644 0.0
C214 C 0.05341 0.62696 0.10939 0.0
N215 N 0.05056 0.62778 0.14742 0.0
N216 N 0.04072 0.65721 0.12554 0.0
C217 C 0.04734 0.64502 0.09586 0.0
H218 H 0.03845 0.65164 0.18515 0.0
H219 H 0.05925 0.61393 0.0926 0.0
C220 C 0.02366 0.60005 0.23753 0.0
N221 N 0.06549 0.56046 0.24782 0.0
C222 C 0.07626 0.54314 0.24261 0.0
C223 C 0.06034 0.56203 0.28551 0.0
N224 N 0.07817 0.53419 0.27573 0.0
C225 C 0.0681 0.54603 0.30262 0.0
C226 C 0.07639 0.62082 0.23824 0.0
O227 O 0.03007 0.61191 0.21013 0.0
O228 O 0.03421 0.58485 0.24344 0.0
O229 O 0.07367 0.60165 0.24668 0.0
O230 O 0.06976 0.62679 0.20865 0.0
O231 O 0.08745 0.57809 0.18624 0.0
H232 H 0.0522 0.57459 0.29991 0.0
H233 H 0.08346 0.53783 0.21543 0.0
O234 O 0.08029 0.60251 0.14932 0.0
O235 O 0.04072 0.58764 0.15034 0.0
O236 O 0.04766 0.56083 0.18196 0.0
C237 C 0.03937 0.56809 0.15491 0.0
H238 H 0.04776 0.64886 0.06647 0.0
H239 H 0.06684 0.54352 0.33267 0.0
Co240 Co 0.83185 0.68893 0.55289 0.0
C241 C 0.84704 0.72869 0.52673 0.0
Co242 Co 0.8567 0.70429 0.5832 0.0
C243 C 0.79497 0.6639 0.53122 0.0
C244 C 0.81583 0.67679 0.4851 0.0
N245 N 0.81266 0.67637 0.52315 0.0
N246 N 0.7874 0.65635 0.49949 0.0
C247 C 0.80045 0.66448 0.47057 0.0
H248 H 0.78822 0.65986 0.55953 0.0
H249 H 0.82891 0.68509 0.4688 0.0
C250 C 0.84234 0.66437 0.60857 0.0
N251 N 0.87654 0.71677 0.61104 0.0
C252 C 0.89507 0.72616 0.59716 0.0
C253 C 0.8762 0.71816 0.64883 0.0
N254 N 0.90646 0.73328 0.62466 0.0
C255 C 0.8946 0.72837 0.65732 0.0
C256 C 0.81603 0.71229 0.61391 0.0
O257 O 0.83005 0.66475 0.58338 0.0
O258 O 0.85492 0.68016 0.61312 0.0
O259 O 0.83538 0.71566 0.61682 0.0
O260 O 0.81034 0.7007 0.58689 0.0
O261 O 0.85856 0.7284 0.55299 0.0
H262 H 0.86352 0.71191 0.66886 0.0
H263 H 0.90005 0.72778 0.56729 0.0
O264 O 0.83414 0.71317 0.52227 0.0
O265 O 0.85336 0.67723 0.51972 0.0
O266 O 0.87808 0.69272 0.54917 0.0
C267 C 0.87263 0.6808 0.52263 0.0
H268 H 0.79893 0.66164 0.44097 0.0
H269 H 0.8991 0.73145 0.68527 0.0
Co270 Co 0.07385 0.08596 0.80179 0.0
C271 C 0.03634 0.10239 0.79082 0.0
Co272 Co 0.06553 0.1126 0.83925 0.0
C273 C 0.09104 0.04736 0.77055 0.0
C274 C 0.07783 0.06508 0.73078 0.0
N275 N 0.08082 0.0647 0.76745 0.0
N276 N 0.09473 0.03723 0.73699 0.0
C277 C 0.08636 0.04831 0.71207 0.0
H278 H 0.09642 0.04276 0.7964 0.0
H279 H 0.07047 0.07719 0.71812 0.0
C280 C 0.10267 0.09662 0.85135 0.0
N281 N 0.05852 0.134 0.87255 0.0
C282 C 0.05134 0.15221 0.86436 0.0
C283 C 0.05877 0.13466 0.91025 0.0
N284 N 0.04699 0.16423 0.89542 0.0
C285 C 0.05161 0.15324 0.92444 0.0
C286 C 0.05033 0.07362 0.86785 0.0
O287 O 0.09949 0.08442 0.82358 0.0
O288 O 0.08964 0.10994 0.86213 0.0
O289 O 0.05067 0.09323 0.87324 0.0
O290 O 0.06 0.06638 0.83764 0.0
O291 O 0.04123 0.11524 0.8164 0.0
H292 H 0.06364 0.12233 0.92638 0.0
H293 H 0.04883 0.15629 0.83618 0.0
O294 O 0.04817 0.08784 0.78069 0.0
O295 O 0.08741 0.10581 0.7661 0.0
O296 O 0.08042 0.13203 0.80479 0.0
C297 C 0.08846 0.12533 0.77294 0.0
H298 H 0.08664 0.04466 0.68224 0.0
H299 H 0.05 0.15828 0.95375 0.0
Co300 Co 0.65027 0.33056 0.99206 0.0
C301 C 0.65807 0.35005 0.0607 0.0
Co302 Co 0.66094 0.31017 0.03334 0.0
C303 C 0.62511 0.34805 0.94094 0.0
C304 C 0.65164 0.36837 0.95145 0.0
N305 N 0.64218 0.34932 0.95937 0.0
N306 N 0.62344 0.36567 0.92225 0.0
C307 C 0.64014 0.37847 0.92875 0.0
H308 H 0.61369 0.33481 0.94249 0.0
H309 H 0.66572 0.37473 0.96237 0.0
C310 C 0.65255 0.29075 0.9643 0.0
N311 N 0.66891 0.29137 0.06618 0.0
C312 C 0.68362 0.29358 0.09005 0.0
C313 C 0.66031 0.27173 0.07105 0.0
N314 N 0.68456 0.276 0.10949 0.0
C315 C 0.66987 0.26228 0.09752 0.0
C316 C 0.61784 0.31182 0.03904 0.0
O317 O 0.6476 0.30867 0.95629 0.0
O318 O 0.6593 0.28829 0.99576 0.0
O319 O 0.63254 0.30347 0.05209 0.0
O320 O 0.62217 0.32461 0.01236 0.0
O321 O 0.66216 0.33213 0.07052 0.0
H322 H 0.64772 0.26477 0.05647 0.0
H323 H 0.69351 0.30774 0.09286 0.0
O324 O 0.65292 0.35235 0.02801 0.0
O325 O 0.67824 0.33641 0.97221 0.0
O326 O 0.68948 0.31739 0.01439 0.0
C327 C 0.69332 0.32962 0.98662 0.0
H328 H 0.64366 0.39409 0.91817 0.0
H329 H 0.66595 0.24663 0.10774 0.0
Co330 Co 0.42581 0.93096 0.30399 0.0
C331 C 0.46448 0.91516 0.27898 0.0
Co332 Co 0.43492 0.90627 0.33898 0.0
C333 C 0.4086 0.96819 0.27689 0.0
C334 C 0.4215 0.94777 0.23323 0.0
N335 N 0.41866 0.95045 0.27106 0.0
N336 N 0.40487 0.97633 0.24404 0.0
C337 C 0.41304 0.96352 0.21667 0.0
H338 H 0.40341 0.97453 0.30454 0.0
H339 H 0.42879 0.9348 0.21854 0.0
C340 C 0.39584 0.92074 0.36294 0.0
N341 N 0.4419 0.88676 0.37103 0.0
C342 C 0.45003 0.86835 0.36208 0.0
C343 C 0.44005 0.88811 0.40901 0.0
N344 N 0.45341 0.85817 0.39299 0.0
C345 C 0.44715 0.87057 0.4226 0.0
C346 C 0.448 0.94652 0.36153 0.0
O347 O 0.3997 0.93264 0.33473 0.0
O348 O 0.40948 0.90873 0.36995 0.0
O349 O 0.4479 0.92716 0.36704 0.0
O350 O 0.43872 0.95268 0.33474 0.0
O351 O 0.46028 0.90371 0.30762 0.0
H352 H 0.43394 0.90104 0.42573 0.0
H353 H 0.45371 0.86273 0.33338 0.0
O354 O 0.45186 0.92853 0.27288 0.0
O355 O 0.41311 0.90898 0.27441 0.0
O356 O 0.42194 0.88509 0.31058 0.0
C357 C 0.41318 0.88984 0.28245 0.0
H358 H 0.41276 0.96535 0.18671 0.0
H359 H 0.44745 0.86711 0.45198 0.0
Co360 Co 0.13153 0.30801 0.43645 0.0
C361 C 0.14563 0.34849 0.41414 0.0
Co362 Co 0.15635 0.32258 0.46785 0.0
C363 C 0.09383 0.28531 0.41944 0.0
C364 C 0.11259 0.29643 0.36953 0.0
N365 N 0.11201 0.29602 0.40736 0.0
N366 N 0.08295 0.27909 0.39071 0.0
C367 C 0.09468 0.28609 0.35921 0.0
H368 H 0.08845 0.28263 0.44891 0.0
H369 H 0.12515 0.30393 0.35073 0.0
C370 C 0.14137 0.28231 0.49113 0.0
N371 N 0.17536 0.33457 0.49866 0.0
C372 C 0.19234 0.34819 0.49204 0.0
C373 C 0.17251 0.33246 0.53648 0.0
N374 N 0.19977 0.35477 0.52448 0.0
C375 C 0.18737 0.34484 0.55232 0.0
C376 C 0.11537 0.32976 0.4987 0.0
O377 O 0.12947 0.28336 0.4656 0.0
O378 O 0.1546 0.2975 0.49585 0.0
O379 O 0.1346 0.33279 0.5024 0.0
O380 O 0.10994 0.31915 0.47054 0.0
O381 O 0.15757 0.34772 0.43983 0.0
H382 H 0.15991 0.32303 0.55184 0.0
H383 H 0.19857 0.3538 0.46437 0.0
O384 O 0.13352 0.33263 0.40783 0.0
O385 O 0.15307 0.2971 0.40266 0.0
O386 O 0.1781 0.31211 0.43258 0.0
C387 C 0.17244 0.30072 0.40527 0.0
H388 H 0.09063 0.28389 0.33078 0.0
H389 H 0.18889 0.3466 0.58212 0.0
Co390 Co 0.92399 0.90138 0.182 0.0
C391 C 0.8859 0.91507 0.16996 0.0
Co392 Co 0.91415 0.92726 0.22026 0.0
C393 C 0.94125 0.86304 0.15745 0.0
C394 C 0.93178 0.87899 0.11142 0.0
N395 N 0.93239 0.88029 0.14899 0.0
N396 N 0.94636 0.851 0.12667 0.0
C397 C 0.94035 0.86097 0.0976 0.0
H398 H 0.94384 0.85943 0.18581 0.0
H399 H 0.92577 0.89056 0.0951 0.0
C400 C 0.95248 0.91324 0.23141 0.0
N401 N 0.90579 0.94829 0.25408 0.0
C402 C 0.89598 0.96564 0.24914 0.0
C403 C 0.90758 0.94825 0.29128 0.0
N404 N 0.8914 0.97623 0.282 0.0
C405 C 0.89878 0.96532 0.30845 0.0
C406 C 0.90131 0.88747 0.24815 0.0
O407 O 0.94883 0.90079 0.20445 0.0
O408 O 0.93934 0.92638 0.24299 0.0
O409 O 0.9008 0.90691 0.25527 0.0
O410 O 0.9105 0.88141 0.21673 0.0
O411 O 0.88894 0.92778 0.19708 0.0
H412 H 0.91456 0.93633 0.3052 0.0
H413 H 0.89172 0.97006 0.22226 0.0
O414 O 0.89937 0.90211 0.15948 0.0
O415 O 0.93738 0.9212 0.14774 0.0
O416 O 0.92785 0.94738 0.18489 0.0
C417 C 0.93735 0.94071 0.15403 0.0
H418 H 0.94242 0.8559 0.06833 0.0
H419 H 0.89785 0.9694 0.33818 0.0
Co420 Co 0.32724 0.70073 0.98494 0.0
C421 C 0.33624 0.71969 0.05336 0.0
Co422 Co 0.33739 0.67945 0.02524 0.0
C423 C 0.3051 0.71777 0.92789 0.0
C424 C 0.3288 0.73917 0.94684 0.0
N425 N 0.31978 0.7197 0.95186 0.0
N426 N 0.30459 0.73534 0.90824 0.0
C427 C 0.31953 0.7488 0.92018 0.0
H428 H 0.29493 0.70379 0.92518 0.0
H429 H 0.34147 0.7459 0.96146 0.0
C430 C 0.3293 0.66052 0.95686 0.0
N431 N 0.34502 0.66071 0.0586 0.0
C432 C 0.36319 0.66077 0.07355 0.0
C433 C 0.33344 0.64384 0.07317 0.0
N434 N 0.36332 0.64473 0.09692 0.0
C435 C 0.3446 0.63408 0.09698 0.0
C436 C 0.29444 0.68185 0.03133 0.0
O437 O 0.32582 0.67881 0.94787 0.0
O438 O 0.33399 0.65747 0.98967 0.0
O439 O 0.30936 0.67464 0.0455 0.0
O440 O 0.2985 0.69402 1.00351 0.0
O441 O 0.34093 0.70155 0.06065 0.0
H442 H 0.31792 0.63881 0.0667 0.0
H443 H 0.37604 0.67246 0.06772 0.0
O444 O 0.32914 0.72255 0.0224 0.0
O445 O 0.35583 0.707 0.96651 0.0
O446 O 0.36547 0.68443 1.00442 0.0
C447 C 0.37022 0.6977 0.97865 0.0
H448 H 0.3238 0.76436 0.90983 0.0
H449 H 0.33958 0.62 0.11245 0.0
Co450 Co 0.55288 0.107 0.6786 0.0
C451 C 0.59163 0.09213 0.65302 0.0
Co452 Co 0.56192 0.08169 0.7123 0.0
C453 C 0.53734 0.14509 0.65753 0.0
C454 C 0.54788 0.12634 0.60956 0.0
N455 N 0.5459 0.12701 0.64756 0.0
N456 N 0.53381 0.15575 0.62723 0.0
C457 C 0.54047 0.14398 0.59697 0.0
H458 H 0.53384 0.15031 0.68652 0.0
H459 H 0.55406 0.11368 0.59215 0.0
C460 C 0.52364 0.09794 0.73906 0.0
N461 N 0.56906 0.06175 0.74438 0.0
C462 C 0.5793 0.04414 0.73795 0.0
C463 C 0.56625 0.06407 0.78229 0.0
N464 N 0.58314 0.03575 0.7705 0.0
C465 C 0.57489 0.04825 0.79829 0.0
C466 C 0.57536 0.12237 0.73478 0.0
O467 O 0.52778 0.10965 0.71077 0.0
O468 O 0.53611 0.08423 0.7442 0.0
O469 O 0.57515 0.10311 0.74205 0.0
O470 O 0.56641 0.12769 0.70726 0.0
O471 O 0.58778 0.07991 0.68078 0.0
H472 H 0.55895 0.07691 0.79742 0.0
H473 H 0.5846 0.03813 0.7101 0.0
O474 O 0.57811 0.10448 0.64688 0.0
O475 O 0.5394 0.08655 0.65021 0.0
O476 O 0.54849 0.06051 0.68133 0.0
C477 C 0.53912 0.0671 0.65503 0.0
H478 H 0.5396 0.14757 0.56784 0.0
H479 H 0.57532 0.0462 0.82815 0.0
C480 C 0.43382 0.2583 0.09765 0.0
C481 C 0.42719 0.24445 0.12712 0.0
C482 C 0.45406 0.26778 0.09364 0.0
C483 C 0.50633 0.25895 0.11427 0.0
H484 H 0.51919 0.31656 0.08543 0.0
C485 C 0.59113 0.29389 0.08617 0.0
C486 C 0.59592 0.30637 0.05422 0.0
C487 C 0.5704 0.28809 0.09966 0.0
C488 C 0.51585 0.30041 0.09323 0.0
H489 H 0.43639 0.23004 0.17599 0.0
H490 H 0.47182 0.24666 0.16901 0.0
H491 H 0.48286 0.30338 0.10108 0.0
H492 H 0.58276 0.32283 0.01167 0.0
H493 H 0.54664 0.3123 0.03464 0.0
H494 H 0.53916 0.25567 0.10526 0.0
C495 C 0.46133 0.25009 0.14897 0.0
C496 C 0.49507 0.2929 0.10228 0.0
C497 C 0.44102 0.24072 0.15314 0.0
C498 C 0.57957 0.31324 0.03642 0.0
C499 C 0.55885 0.30732 0.04976 0.0
C500 C 0.52708 0.2664 0.10502 0.0
C501 C 0.46812 0.2635 0.1189 0.0
C502 C 0.49011 0.27203 0.11243 0.0
C503 C 0.55403 0.29453 0.08133 0.0
C504 C 0.53207 0.28714 0.09391 0.0
H505 H 0.42339 0.26167 0.0775 0.0
H506 H 0.45891 0.27792 0.07002 0.0
H507 H 0.50295 0.24271 0.12148 0.0
H508 H 0.6034 0.28849 0.10067 0.0
H509 H 0.56721 0.27849 0.12438 0.0
C510 C 0.52018 0.68588 0.36895 0.0
C511 C 0.53294 0.68137 0.39634 0.0
C512 C 0.51109 0.70487 0.36998 0.0
C513 C 0.51689 0.75863 0.40721 0.0
H514 H 0.46027 0.76084 0.38319 0.0
C515 C 0.47321 0.83375 0.42384 0.0
C516 C 0.46203 0.8383 0.39415 0.0
C517 C 0.48163 0.81449 0.42496 0.0
C518 C 0.47615 0.76046 0.38964 0.0
H519 H 0.54601 0.69326 0.44649 0.0
H520 H 0.52974 0.72628 0.44879 0.0
H521 H 0.47516 0.72722 0.38444 0.0
H522 H 0.45068 0.82615 0.34261 0.0
H523 H 0.46559 0.79256 0.34433 0.0
H524 H 0.51784 0.79189 0.41245 0.0
C525 C 0.52703 0.71519 0.4262 0.0
C526 C 0.48468 0.74124 0.39035 0.0
C527 C 0.53616 0.69619 0.42513 0.0
C528 C 0.4594 0.82317 0.36563 0.0
C529 C 0.46773 0.80387 0.36684 0.0
C530 C 0.50833 0.77785 0.40662 0.0
C531 C 0.51447 0.71977 0.39852 0.0
C532 C 0.50518 0.74012 0.39896 0.0
C533 C 0.47896 0.79936 0.3965 0.0
C534 C 0.48792 0.77895 0.39766 0.0
H535 H 0.51709 0.67471 0.34673 0.0
H536 H 0.50167 0.708 0.34802 0.0
H537 H 0.53284 0.75831 0.41336 0.0
H538 H 0.47568 0.84516 0.446 0.0
H539 H 0.49008 0.81137 0.44831 0.0
C540 C 0.07992 0.8201 0.54245 0.0
C541 C 0.09543 0.80886 0.55502 0.0
C542 C 0.05887 0.81478 0.55415 0.0
C543 C 0.01734 0.78975 0.55899 0.0
H544 H -0.00362 0.76988 0.65893 0.0
C545 C 0.94078 0.73924 0.5869 0.0
C546 C 0.92724 0.74327 0.61967 0.0
C547 C 0.96077 0.74914 0.58143 0.0
C548 C 0.00195 0.77562 0.63104 0.0
H549 H 0.10111 0.78371 0.59071 0.0
H550 H 0.06434 0.77416 0.61052 0.0
H551 H 0.03233 0.78491 0.64639 0.0
H552 H 0.92415 0.76077 0.67258 0.0
H553 H 0.95931 0.77814 0.66302 0.0
H554 H 0.98706 0.7805 0.54356 0.0
C555 C 0.06844 0.78728 0.59209 0.0
C556 C 0.02257 0.78402 0.62376 0.0
C557 C 0.08951 0.79266 0.58052 0.0
C558 C 0.93429 0.75724 0.64718 0.0
C559 C 0.95437 0.76718 0.6417 0.0
C560 C -0.00321 0.78138 0.56625 0.0
C561 C 0.05289 0.79805 0.5785 0.0
C562 C 0.03056 0.79088 0.58748 0.0
C563 C 0.96774 0.76333 0.6086 0.0
C564 C 0.98899 0.77386 0.60213 0.0
H565 H 0.084 0.8328 0.52305 0.0
H566 H 0.04726 0.82359 0.54367 0.0
H567 H 0.02305 0.79467 0.53064 0.0
H568 H 0.93605 0.72819 0.56559 0.0
H569 H 0.97089 0.74547 0.55605 0.0
C570 C 0.97573 0.33155 0.86378 0.0
C571 C 0.96141 0.33779 0.89403 0.0
C572 C 0.98518 0.31286 0.86495 0.0
C573 C 0.97932 0.26213 0.91177 0.0
H574 H 0.03817 0.26058 0.87544 0.0
C575 C 0.02543 0.19051 0.92916 0.0
C576 C 0.03838 0.18422 0.89706 0.0
C577 C 0.01636 0.20954 0.92999 0.0
C578 C 0.02169 0.26076 0.88542 0.0
H579 H 0.94557 0.32908 0.94897 0.0
H580 H 0.96243 0.29667 0.95138 0.0
H581 H 0.02145 0.29321 0.87442 0.0
H582 H 0.05249 0.19317 0.84113 0.0
H583 H 0.03651 0.22629 0.84241 0.0
H584 H 0.97961 0.22965 0.92277 0.0
C585 C 0.96617 0.30616 0.92659 0.0
C586 C 0.01211 0.27941 0.88478 0.0
C587 C 0.95669 0.32485 0.9254 0.0
C588 C 0.04238 0.19749 0.86607 0.0
C589 C 0.03342 0.21654 0.86697 0.0
C590 C 0.98893 0.24349 0.91252 0.0
C591 C 0.98057 0.3 0.89642 0.0
C592 C 0.9908 0.28027 0.89775 0.0
C593 C 0.0202 0.22269 0.89883 0.0
C594 C 0.01018 0.2426 0.89917 0.0
H595 H 0.97992 0.34123 0.83938 0.0
H596 H -0.00398 0.30842 0.84105 0.0
H597 H 0.96281 0.26224 0.92147 0.0
H598 H 0.02193 0.18053 0.95331 0.0
H599 H 0.00638 0.21399 0.95505 0.0
C600 C 0.54647 0.77418 0.93245 0.0
C601 C 0.55993 0.77041 0.89946 0.0
C602 C 0.52653 0.76414 0.93795 0.0
C603 C 0.4853 0.73773 0.8883 0.0
H604 H 0.46465 0.71787 0.98836 0.0
C605 C 0.40804 0.69171 0.97623 0.0
C606 C 0.3923 0.70279 0.96407 0.0
C607 C 0.42901 0.69743 0.96461 0.0
C608 C 0.47024 0.72303 0.9601 0.0
H609 H 0.56294 0.75323 0.8462 0.0
H610 H 0.52789 0.73565 0.85581 0.0
H611 H 0.5005 0.73243 0.97543 0.0
H612 H 0.38614 0.72811 0.92919 0.0
H613 H 0.42279 0.73836 0.90947 0.0
H614 H 0.45494 0.72826 0.87305 0.0
C615 C 0.53283 0.74651 0.87728 0.0
C616 C 0.49071 0.73162 0.95283 0.0
C617 C 0.55287 0.75658 0.87177 0.0
C618 C 0.39793 0.71928 0.93906 0.0
C619 C 0.41892 0.72505 0.92754 0.0
C620 C 0.46476 0.7291 0.89559 0.0
C621 C 0.51954 0.75009 0.91059 0.0
C622 C 0.49835 0.73941 0.91708 0.0
C623 C 0.4347 0.71442 0.94072 0.0
C624 C 0.45693 0.72194 0.93174 0.0
H625 H 0.55121 0.7851 0.95393 0.0
H626 H 0.51647 0.7676 0.96352 0.0
H627 H 0.49074 0.74367 0.86051 0.0
H628 H 0.4042 0.6788 0.99526 0.0
H629 H 0.4408 0.68872 0.97476 0.0
C630 C 0.44236 0.31526 0.65662 0.0
C631 C 0.44565 0.32797 0.62484 0.0
C632 C 0.45148 0.29629 0.65617 0.0
C633 C 0.49555 0.26917 0.60942 0.0
H634 H 0.46427 0.21968 0.65142 0.0
C635 C 0.52821 0.18812 0.59561 0.0
C636 C 0.52428 0.17524 0.62717 0.0
C637 C 0.51859 0.20676 0.59514 0.0
C638 C 0.47328 0.23343 0.64 0.0
H639 H 0.46095 0.33073 0.56758 0.0
H640 H 0.47675 0.29745 0.56662 0.0
H641 H 0.44709 0.25206 0.65041 0.0
H642 H 0.50709 0.17191 0.68299 0.0
H643 H 0.49074 0.20468 0.68254 0.0
H644 H 0.52179 0.25064 0.59933 0.0
C645 C 0.46721 0.30226 0.59197 0.0
C646 C 0.46343 0.25193 0.63935 0.0
C647 C 0.45799 0.32119 0.59236 0.0
C648 C 0.51065 0.18154 0.65839 0.0
C649 C 0.50106 0.20021 0.65795 0.0
C650 C 0.50542 0.25069 0.61019 0.0
C651 C 0.46415 0.2897 0.62396 0.0
C652 C 0.47447 0.26998 0.62406 0.0
C653 C 0.50485 0.21297 0.62625 0.0
C654 C 0.49439 0.23262 0.62551 0.0
H655 H 0.43273 0.31997 0.68189 0.0
H656 H 0.44897 0.287 0.68133 0.0
H657 H 0.50452 0.28294 0.598 0.0
H658 H 0.53881 0.18387 0.57128 0.0
H659 H 0.52169 0.21616 0.57015 0.0
C660 C 0.90979 0.19828 0.48178 0.0
C661 C 0.89364 0.2051 0.46339 0.0
C662 C 0.93059 0.20446 0.46938 0.0
C663 C 0.96259 0.24591 0.41559 0.0
H664 H 0.00705 0.20932 0.42045 0.0
C665 C 0.04862 0.27192 0.36769 0.0
C666 C 0.06254 0.2683 0.39362 0.0
C667 C 0.02831 0.26255 0.3721 0.0
C668 C -0.00522 0.2197 0.41903 0.0
H669 H 0.88662 0.22317 0.41682 0.0
H670 H 0.92292 0.23361 0.39473 0.0
H671 H 0.97075 0.19585 0.43533 0.0
H672 H 0.06645 0.25128 0.44341 0.0
H673 H 0.03094 0.23499 0.45129 0.0
H674 H 0.98662 0.26978 0.39955 0.0
C675 C 0.91952 0.22386 0.41923 0.0
C676 C 0.97401 0.21203 0.42765 0.0
C677 C 0.89872 0.2178 0.43178 0.0
C678 C 0.05597 0.25457 0.4233 0.0
C679 C 0.03573 0.24507 0.42755 0.0
C680 C 0.98333 0.25353 0.40676 0.0
C681 C 0.93568 0.21749 0.43817 0.0
C682 C 0.95769 0.22513 0.42652 0.0
C683 C 0.0216 0.24923 0.40233 0.0
C684 C -0.00037 0.24058 0.40886 0.0
H685 H 0.90637 0.18852 0.50629 0.0
H686 H 0.94262 0.19951 0.48496 0.0
H687 H 0.95045 0.25654 0.41505 0.0
H688 H 0.0532 0.28253 0.34469 0.0
H689 H 0.01778 0.26589 0.35208 0.0
C690 C 0.02156 0.682 0.09417 0.0
C691 C 0.03211 0.67711 0.1245 0.0
C692 C 0.01274 0.70108 0.09358 0.0
C693 C 0.01558 0.75448 0.13266 0.0
H694 H 0.95938 0.75512 0.10571 0.0
C695 C 0.96891 0.82745 0.15338 0.0
C696 C 0.95652 0.83181 0.12529 0.0
C697 C 0.97853 0.80874 0.15242 0.0
C698 C 0.97519 0.75525 0.11279 0.0
H699 H 0.04204 0.68853 0.17761 0.0
H700 H 0.02647 0.72185 0.17673 0.0
H701 H 0.97557 0.72215 0.10562 0.0
H702 H 0.94462 0.81987 0.07408 0.0
H703 H 0.96184 0.78743 0.07189 0.0
H704 H 0.01527 0.78757 0.13969 0.0
C705 C 0.02511 0.71093 0.15337 0.0
C706 C 0.98443 0.73636 0.1128 0.0
C707 C 0.03383 0.69178 0.15406 0.0
C708 C 0.95417 0.81709 0.09599 0.0
C709 C 0.96384 0.79839 0.09498 0.0
C710 C 0.00637 0.77338 0.13249 0.0
C711 C 0.01437 0.7157 0.12321 0.0
C712 C 0.00469 0.73579 0.12283 0.0
C713 C 0.97607 0.79398 0.12327 0.0
C714 C 0.98604 0.77397 0.12268 0.0
H715 H 0.01978 0.67094 0.07119 0.0
H716 H 0.00471 0.70443 0.06981 0.0
H717 H 0.03133 0.75451 0.14003 0.0
H718 H 0.97135 0.83853 0.17605 0.0
H719 H 0.98767 0.80574 0.17487 0.0
C720 C 0.11954 0.10269 0.90974 0.0
C721 C 0.12098 0.09574 0.87194 0.0
C722 C 0.13711 0.10461 0.92881 0.0
C723 C 0.19246 0.09234 0.9252 0.0
H724 H 0.19705 0.14493 0.98055 0.0
C725 C 0.27024 0.13395 0.95782 0.0
C726 C 0.27075 0.14646 0.99065 0.0
C727 C 0.25165 0.12348 0.94945 0.0
C728 C 0.19589 0.12996 0.96601 0.0
H729 H 0.14167 0.08423 0.82501 0.0
H730 H 0.17284 0.08819 0.85817 0.0
H731 H 0.1653 0.13461 0.95314 0.0
H732 H 0.25259 0.15659 0.04187 0.0
H733 H 0.21989 0.13806 0.02749 0.0
H734 H 0.22352 0.08817 0.93715 0.0
C735 C 0.15796 0.09186 0.87319 0.0
C736 C 0.17765 0.12403 0.95014 0.0
C737 C 0.14018 0.08965 0.85413 0.0
C738 C 0.25259 0.14708 0.01637 0.0
C739 C 0.23389 0.13663 1.00792 0.0
C740 C 0.2108 0.09831 0.9411 0.0
C741 C 0.15669 0.09996 0.91043 0.0
C742 C 0.17576 0.10527 0.92916 0.0
C743 C 0.23309 0.12526 0.97375 0.0
C744 C 0.21282 0.11735 0.96122 0.0
H745 H 0.10483 0.10711 0.92444 0.0
H746 H 0.13544 0.11033 0.95776 0.0
H747 H 0.19142 0.07768 0.9096 0.0
H748 H 0.28412 0.13291 0.93782 0.0
H749 H 0.25163 0.11499 0.92283 0.0
C750 C 0.65061 0.36665 0.12495 0.0
C751 C 0.65834 0.36828 0.08658 0.0
C752 C 0.64681 0.3847 0.14697 0.0
C753 C 0.63371 0.43787 0.13125 0.0
H754 H 0.64189 0.44976 0.23568 0.0
C755 C 0.62132 0.51825 0.19313 0.0
C756 C 0.60774 0.51946 0.22671 0.0
C757 C 0.62969 0.49954 0.18134 0.0
C758 C 0.63942 0.4465 0.20658 0.0
H759 H 0.67012 0.38973 0.04204 0.0
H760 H 0.66427 0.42099 0.08044 0.0
H761 H 0.65323 0.41706 0.20503 0.0
H762 H 0.59339 0.50254 0.27577 0.0
H763 H 0.60798 0.46931 0.25478 0.0
H764 H 0.61998 0.46698 0.13232 0.0
C765 C 0.66038 0.40596 0.09339 0.0
C766 C 0.64589 0.42785 0.18909 0.0
C767 C 0.66386 0.38807 0.07144 0.0
C768 C 0.60383 0.50192 0.24974 0.0
C769 C 0.61216 0.48299 0.23775 0.0
C770 C 0.62738 0.45634 0.14852 0.0
C771 C 0.65088 0.40452 0.13084 0.0
C772 C 0.64346 0.42359 0.15095 0.0
C773 C 0.62455 0.4815 0.20271 0.0
C774 C 0.6305 0.46109 0.18609 0.0
H775 H 0.64619 0.35151 0.13717 0.0
H776 H 0.63953 0.38311 0.17578 0.0
H777 H 0.63093 0.43477 0.10225 0.0
H778 H 0.62494 0.53169 0.17532 0.0
H779 H 0.6396 0.49898 0.15465 0.0
C780 C 0.35714 0.92212 0.3668 0.0
C781 C 0.37475 0.91795 0.38389 0.0
C782 C 0.33722 0.9144 0.38226 0.0
C783 C 0.31339 0.87053 0.4402 0.0
H784 H 0.26198 0.89667 0.43413 0.0
C785 C 0.23145 0.83303 0.49703 0.0
C786 C 0.21532 0.83541 0.47488 0.0
C787 C 0.2512 0.84328 0.48761 0.0
C788 C 0.27622 0.88911 0.43572 0.0
H789 H 0.38521 0.90435 0.43245 0.0
H790 H 0.35049 0.89149 0.45996 0.0
H791 H 0.29539 0.91639 0.41738 0.0
H792 H 0.20758 0.84946 0.42433 0.0
H793 H 0.24195 0.86698 0.40777 0.0
H794 H 0.29422 0.84319 0.45819 0.0
C795 C 0.35205 0.90005 0.434 0.0
C796 C 0.29535 0.90043 0.4262 0.0
C797 C 0.37192 0.9076 0.41843 0.0
C798 C 0.21961 0.84741 0.4422 0.0
C799 C 0.23926 0.85763 0.43285 0.0
C800 C 0.29427 0.85923 0.4498 0.0
C801 C 0.33458 0.90254 0.41523 0.0
C802 C 0.31417 0.89122 0.42801 0.0
C803 C 0.25513 0.85611 0.45592 0.0
C804 C 0.27548 0.86831 0.44723 0.0
H805 H 0.35886 0.92994 0.34004 0.0
H806 H 0.3241 0.91657 0.36702 0.0
H807 H 0.32758 0.86279 0.44121 0.0
H808 H 0.2286 0.82399 0.52248 0.0
H809 H 0.26313 0.84183 0.50596 0.0
C810 C 0.83329 0.62621 0.62039 0.0
C811 C 0.84353 0.64527 0.63028 0.0
C812 C 0.83683 0.60775 0.63766 0.0
C813 C 0.86101 0.57127 0.65511 0.0
H814 H 0.87082 0.56796 0.75968 0.0
C815 C 0.90998 0.50911 0.70255 0.0
C816 C 0.90256 0.49809 0.73548 0.0
C817 C 0.90061 0.52676 0.69335 0.0
C818 C 0.86793 0.56857 0.73053 0.0
H819 H 0.86456 0.66003 0.66767 0.0
H820 H 0.87077 0.62796 0.69746 0.0
H821 H 0.8566 0.59907 0.73802 0.0
H822 H 0.87999 0.49765 0.78554 0.0
H823 H 0.86362 0.52893 0.76958 0.0
H824 H 0.87256 0.541 0.64738 0.0
C825 C 0.85994 0.6272 0.67655 0.0
C826 C 0.85993 0.58644 0.71803 0.0
C827 C 0.85648 0.64561 0.65922 0.0
C828 C 0.88609 0.50582 0.76002 0.0
C829 C 0.87669 0.52366 0.75082 0.0
C830 C 0.86907 0.55353 0.66752 0.0
C831 C 0.85059 0.60796 0.66533 0.0
C832 C 0.85672 0.58815 0.67998 0.0
C833 C 0.88357 0.53402 0.71689 0.0
C834 C 0.87305 0.55213 0.70515 0.0
H835 H 0.82317 0.6254 0.59831 0.0
H836 H 0.82915 0.59322 0.62872 0.0
H837 H 0.85895 0.57209 0.62558 0.0
H838 H 0.92298 0.50396 0.68352 0.0
H839 H 0.90668 0.53471 0.66757 0.0
C840 C 0.73842 0.86483 1.00541 0.0
C841 C 0.71884 0.86913 0.02406 0.0
C842 C 0.75657 0.87538 0.01622 0.0
C843 C 0.77384 0.90099 0.10166 0.0
H844 H 0.82618 0.91156 0.03771 0.0
C845 C 0.85022 0.92673 0.16397 0.0
C846 C 0.86711 0.91507 0.15018 0.0
C847 C 0.83221 0.92562 0.14566 0.0
C848 C 0.81164 0.90872 0.05591 0.0
H849 H 0.70247 0.8889 0.06574 0.0
H850 H 0.73395 0.90792 0.08368 0.0
H851 H 0.79429 0.90196 1.00907 0.0
H852 H 0.87865 0.89374 0.10557 0.0
H853 H 0.8474 0.89174 0.07413 0.0
H854 H 0.79121 0.90712 0.14847 0.0
C855 C 0.73552 0.89598 0.06173 0.0
C856 C 0.7934 0.90318 0.03951 0.0
C857 C 0.71751 0.88526 0.0513 0.0
C858 C 0.86588 0.90284 0.11714 0.0
C859 C 0.84803 0.90185 0.0988 0.0
C860 C 0.79203 0.90657 0.118 0.0
C861 C 0.75532 0.89052 0.04559 0.0
C862 C 0.77434 0.89883 0.06224 0.0
C863 C 0.83087 0.91299 0.11306 0.0
C864 C 0.81122 0.91003 0.09538 0.0
H865 H 0.73972 0.8523 0.98456 0.0
H866 H 0.77155 0.87069 1.00329 0.0
H867 H 0.75955 0.89738 0.12015 0.0
H868 H 0.85075 0.93636 0.18925 0.0
H869 H 0.81926 0.93448 0.15717 0.0
C870 C 0.33433 0.64676 0.8902 0.0
C871 C 0.32968 0.64308 0.929 0.0
C872 C 0.33811 0.63015 0.86467 0.0
C873 C 0.33258 0.57266 0.85322 0.0
H874 H 0.38737 0.57894 0.79549 0.0
C875 C 0.37088 0.5038 0.7704 0.0
C876 C 0.39038 0.50062 0.78186 0.0
C877 C 0.36146 0.52245 0.77988 0.0
C878 C 0.37192 0.57704 0.81104 0.0
H879 H 0.3239 0.61912 0.9712 0.0
H880 H 0.33008 0.59022 0.92672 0.0
H881 H 0.37253 0.6092 0.82839 0.0
H882 H 0.41583 0.51467 0.81014 0.0
H883 H 0.39968 0.54735 0.82603 0.0
H884 H 0.3324 0.54029 0.83718 0.0
C885 C 0.33095 0.60587 0.91595 0.0
C886 C 0.36336 0.59437 0.82963 0.0
C887 C 0.32754 0.62244 0.94147 0.0
C888 C 0.40074 0.51674 0.80124 0.0
C889 C 0.39156 0.53546 0.81004 0.0
C890 C 0.34103 0.55537 0.8342 0.0
C891 C 0.33688 0.60958 0.87746 0.0
C892 C 0.34391 0.59221 0.85197 0.0
C893 C 0.37164 0.53837 0.80016 0.0
C894 C 0.3611 0.55727 0.81401 0.0
H895 H 0.33614 0.66253 0.87983 0.0
H896 H 0.34259 0.63342 0.83511 0.0
H897 H 0.31751 0.57058 0.8701 0.0
H898 H 0.36257 0.49151 0.75564 0.0
H899 H 0.3461 0.52432 0.77193 0.0
C900 C 0.63027 0.08943 0.64743 0.0
C901 C 0.61264 0.09479 0.63159 0.0
C902 C 0.65029 0.0967 0.63167 0.0
C903 C 0.67523 0.1411 0.57637 0.0
H904 H 0.72548 0.11207 0.57644 0.0
C905 C 0.7576 0.17715 0.51898 0.0
C906 C 0.77398 0.17329 0.53964 0.0
C907 C 0.7377 0.16715 0.52813 0.0
C908 C 0.71159 0.12044 0.57654 0.0
H909 H 0.60218 0.1102 0.58487 0.0
H910 H 0.63703 0.12236 0.55692 0.0
H911 H 0.69149 0.09353 0.59376 0.0
H912 H 0.7821 0.15661 0.58711 0.0
H913 H 0.74749 0.13959 0.60333 0.0
H914 H 0.6953 0.16808 0.55969 0.0
C915 C 0.63544 0.11314 0.58213 0.0
C916 C 0.69212 0.10979 0.58638 0.0
C917 C 0.61548 0.106 0.59795 0.0
C918 C 0.76987 0.15985 0.57043 0.0
C919 C 0.75006 0.14991 0.57954 0.0
C920 C 0.69468 0.15174 0.56652 0.0
C921 C 0.65301 0.10934 0.59968 0.0
C922 C 0.67371 0.12004 0.58671 0.0
C923 C 0.73384 0.15311 0.5581 0.0
C924 C 0.71309 0.1416 0.5669 0.0
H925 H 0.62856 0.08091 0.67347 0.0
H926 H 0.66349 0.09352 0.64597 0.0
H927 H 0.66138 0.14961 0.57703 0.0
H928 H 0.76029 0.18732 0.49497 0.0
H929 H 0.72553 0.1699 0.51098 0.0
C930 C 0.13327 0.36768 0.36209 0.0
C931 C 0.14431 0.36801 0.3937 0.0
C932 C 0.12965 0.38623 0.34534 0.0
C933 C 0.12337 0.4411 0.36997 0.0
H934 H 0.12502 0.44803 0.26216 0.0
C935 C 0.10194 0.51783 0.31269 0.0
C936 C 0.08984 0.51679 0.28256 0.0
C937 C 0.11133 0.50035 0.32279 0.0
C938 C 0.12426 0.44629 0.29235 0.0
H939 H 0.16095 0.3881 0.43153 0.0
H940 H 0.15452 0.42057 0.40236 0.0
H941 H 0.13688 0.41631 0.28601 0.0
H942 H 0.07869 0.49691 0.23839 0.0
H943 H 0.09461 0.4659 0.25661 0.0
H944 H 0.11008 0.4705 0.37675 0.0
C945 C 0.14858 0.4059 0.39069 0.0
C946 C 0.13116 0.42814 0.306 0.0
C947 C 0.15239 0.3873 0.40724 0.0
C948 C 0.08803 0.49809 0.26162 0.0
C949 C 0.0972 0.48038 0.27211 0.0
C950 C 0.11631 0.45909 0.35641 0.0
C951 C 0.13682 0.40559 0.35999 0.0
C952 C 0.13075 0.42532 0.345 0.0
C953 C 0.10858 0.48117 0.30345 0.0
C954 C 0.11663 0.462 0.3174 0.0
H955 H 0.12687 0.35309 0.35085 0.0
H956 H 0.12043 0.38543 0.32194 0.0
H957 H 0.12241 0.43925 0.40018 0.0
H958 H 0.10386 0.5322 0.32887 0.0
H959 H 0.12049 0.50185 0.34626 0.0
C960 C 0.62271 0.6098 0.40189 0.0
C961 C 0.62135 0.59757 0.36888 0.0
C962 C 0.64052 0.61052 0.4203 0.0
C963 C 0.69637 0.60498 0.40148 0.0
H964 H 0.69385 0.60977 0.51043 0.0
C965 C 0.7707 0.62616 0.46871 0.0
C966 C 0.76934 0.64249 0.49557 0.0
C967 C 0.7527 0.61539 0.45832 0.0
C968 C 0.69481 0.60848 0.47999 0.0
H969 H 0.63741 0.57602 0.32991 0.0
H970 H 0.66884 0.57743 0.36213 0.0
H971 H 0.66199 0.60038 0.48155 0.0
H972 H 0.7484 0.65959 0.53451 0.0
H973 H 0.71662 0.64112 0.51584 0.0
H974 H 0.72889 0.6139 0.39957 0.0
C975 C 0.65603 0.5865 0.37356 0.0
C976 C 0.67659 0.60307 0.46345 0.0
C977 C 0.63806 0.58566 0.35516 0.0
C978 C 0.74974 0.64692 0.51395 0.0
C979 C 0.73161 0.63632 0.50319 0.0
C980 C 0.71454 0.61043 0.41796 0.0
C981 C 0.6575 0.59909 0.40616 0.0
C982 C 0.67711 0.60174 0.42397 0.0
C983 C 0.7329 0.62099 0.47414 0.0
C984 C 0.71393 0.61267 0.45739 0.0
H985 H 0.61008 0.61909 0.4134 0.0
H986 H 0.64126 0.62063 0.44495 0.0
H987 H 0.69726 0.6044 0.371 0.0
H988 H 0.78575 0.6224 0.45452 0.0
H989 H 0.75429 0.60332 0.43662 0.0
C990 C 0.11946 0.01834 0.69377 0.0
C991 C 0.10624 0.01914 0.72786 0.0
C992 C 0.12823 0.99991 0.68136 0.0
C993 C 0.13937 0.94698 0.70593 0.0
H994 H 0.13165 0.93558 0.60117 0.0
C995 C 0.15144 0.8674 0.62415 0.0
C996 C 0.15923 0.86898 0.58579 0.0
C997 C 0.14752 0.88547 0.64607 0.0
C998 C 0.13424 0.9386 0.63028 0.0
H999 H 0.0929 1.00178 0.77703 0.0
H1000 H 0.10814 0.96903 0.75492 0.0
H1001 H 0.12007 0.96747 0.63154 0.0
H1002 H 0.17099 0.89042 0.54122 0.0
H1003 H 0.1649 0.92172 0.57945 0.0
H1004 H 0.15351 0.91772 0.70424 0.0
C1005 C 0.11176 0.98281 0.73799 0.0
C1006 C 0.12755 0.9569 0.64774 0.0
C1007 C 0.10305 1.00147 0.75063 0.0
C1008 C 0.16468 0.88877 0.57059 0.0
C1009 C 0.16106 0.90669 0.59245 0.0
C1010 C 0.14616 0.92849 0.68827 0.0
C1011 C 0.12384 0.98171 0.70253 0.0
C1012 C 0.13033 0.96153 0.68552 0.0
C1013 C 0.15153 0.90527 0.62989 0.0
C1014 C 0.14398 0.92433 0.65 0.0
H1015 H 0.12251 0.03189 0.67613 0.0
H1016 H 0.13792 0.99972 0.6544 0.0
H1017 H 0.14162 0.95012 0.73515 0.0
H1018 H 0.14705 0.85228 0.63647 0.0
H1019 H 0.14021 0.88388 0.67486 0.0
C1020 C 0.71833 0.35018 0.94083 0.0
C1021 C 0.71481 0.33778 0.97306 0.0
C1022 C 0.73785 0.36034 0.93023 0.0
C1023 C 0.78581 0.38022 0.96903 0.0
H1024 H 0.80783 0.38514 0.86351 0.0
C1025 C 0.87075 0.4082 0.91493 0.0
C1026 C 0.87452 0.41925 0.88111 0.0
C1027 C 0.85048 0.40122 0.92926 0.0
C1028 C 0.80171 0.38424 0.89306 0.0
H1029 H 0.72927 0.32573 0.01873 0.0
H1030 H 0.76372 0.3433 0.99972 0.0
H1031 H 0.77502 0.36476 0.88091 0.0
H1032 H 0.85991 0.43324 0.83758 0.0
H1033 H 0.82435 0.42116 0.86287 0.0
H1034 H 0.81282 0.39946 0.98106 0.0
C1035 C 0.75115 0.34537 0.98306 0.0
C1036 C 0.78296 0.37245 0.90306 0.0
C1037 C 0.73152 0.33514 0.99371 0.0
C1038 C 0.85748 0.42475 0.86367 0.0
C1039 C 0.83716 0.41764 0.87792 0.0
C1040 C 0.80465 0.39198 0.959 0.0
C1041 C 0.75442 0.35834 0.95151 0.0
C1042 C 0.77477 0.37029 0.94114 0.0
C1043 C 0.83357 0.40508 0.90998 0.0
C1044 C 0.8128 0.3941 0.92089 0.0
H1045 H 0.70579 0.35258 0.92428 0.0
H1046 H 0.73974 0.37036 0.90604 0.0
H1047 H 0.77974 0.37915 0.99858 0.0
H1048 H 0.88359 0.40382 0.92911 0.0
H1049 H 0.84825 0.39157 0.95396 0.0
C1050 C 0.3804 0.99354 0.20991 0.0
C1051 C 0.3938 0.99429 0.23806 0.0
C1052 C 0.37166 0.01147 0.20009 0.0
C1053 C 0.363 0.06672 0.22853 0.0
H1054 H 0.36233 0.07243 0.12093 0.0
C1055 C 0.35622 0.14524 0.15702 0.0
C1056 C 0.3446 0.14521 0.1262 0.0
C1057 C 0.35929 0.12661 0.17403 0.0
C1058 C 0.36207 0.07098 0.15111 0.0
H1059 H 0.40791 0.01418 0.2792 0.0
H1060 H 0.39304 0.04592 0.26149 0.0
H1061 H 0.3734 0.04066 0.14467 0.0
H1062 H 0.32637 0.12558 0.09011 0.0
H1063 H 0.33175 0.09298 0.11983 0.0
H1064 H 0.35226 0.09751 0.23452 0.0
C1065 C 0.38898 0.03134 0.24733 0.0
C1066 C 0.36841 0.0527 0.16483 0.0
C1067 C 0.39753 0.01321 0.25752 0.0
C1068 C 0.33542 0.12616 0.11374 0.0
C1069 C 0.33863 0.10747 0.13062 0.0
C1070 C 0.35676 0.08513 0.21471 0.0
C1071 C 0.37634 0.03078 0.21777 0.0
C1072 C 0.36901 0.05027 0.20373 0.0
C1073 C 0.35094 0.10744 0.1605 0.0
C1074 C 0.35628 0.08749 0.17579 0.0
H1075 H 0.37698 0.97905 0.19494 0.0
H1076 H 0.36151 0.01022 0.17806 0.0
H1077 H 0.36301 0.06535 0.25865 0.0
H1078 H 0.36348 0.15965 0.16743 0.0
H1079 H 0.36897 0.12717 0.19676 0.0
C1080 C 0.23666 0.3676 0.50972 0.0
C1081 C 0.21694 0.36956 0.52998 0.0
C1082 C 0.25422 0.37909 0.52096 0.0
C1083 C 0.27119 0.40276 0.60823 0.0
H1084 H 0.32154 0.41965 0.54282 0.0
C1085 C 0.34792 0.42953 0.6686 0.0
C1086 C 0.36504 0.41902 0.65184 0.0
C1087 C 0.3295 0.42882 0.65147 0.0
C1088 C 0.30755 0.41508 0.56145 0.0
H1089 H 0.19958 0.38627 0.57525 0.0
H1090 H 0.22995 0.40685 0.59414 0.0
H1091 H 0.28955 0.40885 0.51532 0.0
H1092 H 0.37668 0.40054 0.60303 0.0
H1093 H 0.34483 0.39928 0.5736 0.0
H1094 H 0.28929 0.40829 0.65423 0.0
C1095 C 0.23214 0.396 0.57049 0.0
C1096 C 0.28926 0.40884 0.54568 0.0
C1097 C 0.21474 0.38436 0.55956 0.0
C1098 C 0.36372 0.40866 0.61692 0.0
C1099 C 0.34549 0.40812 0.59975 0.0
C1100 C 0.28944 0.40905 0.62396 0.0
C1101 C 0.25222 0.39287 0.55241 0.0
C1102 C 0.27098 0.40212 0.56885 0.0
C1103 C 0.32803 0.41784 0.61708 0.0
C1104 C 0.30796 0.41473 0.60072 0.0
H1105 H 0.23867 0.35616 0.487 0.0
H1106 H 0.26945 0.37618 0.5065 0.0
H1107 H 0.25754 0.39737 0.627 0.0
H1108 H 0.34854 0.4377 0.69542 0.0
H1109 H 0.3163 0.43657 0.66539 0.0
C1110 C 0.83604 0.14686 0.38719 0.0
C1111 C 0.83135 0.14391 0.42621 0.0
C1112 C 0.83843 0.12963 0.36245 0.0
C1113 C 0.82694 0.07252 0.3552 0.0
H1114 H 0.88091 0.07171 0.29488 0.0
C1115 C 0.86771 0.99767 0.32294 0.0
C1116 C 0.88035 0.99484 0.28863 0.0
C1117 C 0.8583 0.01628 0.33126 0.0
C1118 C 0.86556 0.07178 0.31077 0.0
H1119 H 0.82436 0.12078 0.46974 0.0
H1120 H 0.82807 0.09093 0.4268 0.0
H1121 H 0.86989 0.10433 0.32481 0.0
H1122 H 0.89251 0.00906 0.23551 0.0
H1123 H 0.876 0.04195 0.25014 0.0
H1124 H 0.82287 0.03989 0.34248 0.0
C1125 C 0.83004 0.10642 0.41516 0.0
C1126 C 0.85925 0.09048 0.32793 0.0
C1127 C 0.82806 0.12353 0.43981 0.0
C1128 C 0.88279 0.01083 0.26213 0.0
C1129 C 0.87347 0.02966 0.27062 0.0
C1130 C 0.83317 0.0539 0.33794 0.0
C1131 C 0.83567 0.10924 0.37633 0.0
C1132 C 0.84025 0.09083 0.35156 0.0
C1133 C 0.8613 0.03265 0.30552 0.0
C1134 C 0.85293 0.05311 0.31686 0.0
H1135 H 0.83876 0.16243 0.37603 0.0
H1136 H 0.84277 0.13223 0.33262 0.0
H1137 H 0.81206 0.07241 0.37279 0.0
H1138 H 0.8653 0.98553 0.34369 0.0
H1139 H 0.8493 0.01811 0.35861 0.0
C1140 C 0.11822 0.60067 0.10299 0.0
C1141 C 0.11417 0.59097 0.13813 0.0
C1142 C 0.13852 0.60765 0.08885 0.0
C1143 C 0.18607 0.62775 0.12616 0.0
H1144 H 0.20947 0.63015 0.02103 0.0
C1145 C 0.26913 0.66292 0.07887 0.0
C1146 C 0.27286 0.67413 0.04523 0.0
C1147 C 0.24967 0.65271 0.08978 0.0
C1148 C 0.20299 0.62984 0.05044 0.0
H1149 H 0.12834 0.57923 0.18439 0.0
H1150 H 0.16399 0.59129 0.15944 0.0
H1151 H 0.17687 0.60913 0.03895 0.0
H1152 H 0.25881 0.68413 0.9974 0.0
H1153 H 0.22445 0.66646 0.01689 0.0
H1154 H 0.21189 0.64868 0.13771 0.0
C1155 C 0.15137 0.59376 0.14315 0.0
C1156 C 0.18443 0.61767 0.06072 0.0
C1157 C 0.13101 0.58663 0.15721 0.0
C1158 C 0.25638 0.67567 0.02352 0.0
C1159 C 0.2368 0.66535 0.03446 0.0
C1160 C 0.20455 0.63995 0.1159 0.0
C1161 C 0.15518 0.60515 0.10966 0.0
C1162 C 0.17577 0.61651 0.09871 0.0
C1163 C 0.23338 0.65345 0.06738 0.0
C1164 C 0.21324 0.64115 0.07793 0.0
H1165 H 0.10552 0.60415 0.08759 0.0
H1166 H 0.14091 0.61638 0.06302 0.0
H1167 H 0.17954 0.62763 0.15555 0.0
H1168 H 0.2815 0.66142 0.09628 0.0
H1169 H 0.24766 0.64355 0.11509 0.0
C1170 C 0.60852 0.01902 0.80317 0.0
C1171 C 0.59458 0.01798 0.7759 0.0
C1172 C 0.61749 1.00122 0.81291 0.0
C1173 C 0.62553 0.94565 0.78597 0.0
H1174 H 0.62756 0.94109 0.89344 0.0
C1175 C 0.63249 0.86786 0.85976 0.0
C1176 C 0.64445 0.86814 0.89016 0.0
C1177 C 0.62944 0.88633 0.8422 0.0
C1178 C 0.62745 0.94221 0.86328 0.0
H1179 H 0.57975 0.99773 0.73617 0.0
H1180 H 0.59502 0.96618 0.75378 0.0
H1181 H 0.6164 0.97267 0.86915 0.0
H1182 H 0.66331 0.88802 0.92484 0.0
H1183 H 0.65795 0.92033 0.89414 0.0
H1184 H 0.63598 0.91473 0.78061 0.0
C1185 C 0.59933 0.9809 0.76728 0.0
C1186 C 0.62104 0.96039 0.84924 0.0
C1187 C 0.59055 0.99891 0.75713 0.0
C1188 C 0.65399 0.88725 0.90157 0.0
C1189 C 0.6508 0.90577 0.88414 0.0
C1190 C 0.63182 0.92735 0.80012 0.0
C1191 C 0.61248 0.98174 0.79609 0.0
C1192 C 0.61995 0.9624 0.8104 0.0
C1193 C 0.63815 0.90557 0.85473 0.0
C1194 C 0.63279 0.9254 0.83899 0.0
H1195 H 0.61212 0.03364 0.81761 0.0
H1196 H 0.62802 1.00268 0.83433 0.0
H1197 H 0.62511 0.94669 0.75589 0.0
H1198 H 0.62496 0.85341 0.85015 0.0
H1199 H 0.61948 0.8856 0.81987 0.0
C1200 C 0.38513 0.16938 0.95629 0.0
C1201 C 0.38994 0.17384 0.99306 0.0
C1202 C 0.39928 0.15993 0.92973 0.0
C1203 C 0.45502 0.14704 0.91116 0.0
H1204 H 0.43335 0.1108 0.83407 0.0
C1205 C 0.50681 0.09708 0.80587 0.0
C1206 C 0.50605 0.10211 0.76806 0.0
C1207 C 0.49197 0.10401 0.83434 0.0
C1208 C 0.43956 0.12086 0.85551 0.0
H1209 H 0.4133 0.17186 0.03103 0.0
H1210 H 0.43771 0.15444 0.9853 0.0
H1211 H 0.4092 0.12644 0.88261 0.0
H1212 H 0.4886 0.11742 0.73019 0.0
H1213 H 0.46215 0.1288 0.77993 0.0
H1214 H 0.48544 0.14071 0.88432 0.0
C1215 C 0.42329 0.15882 0.97639 0.0
C1216 C 0.42577 0.13003 0.88318 0.0
C1217 C 0.40927 0.16873 1.00276 0.0
C1218 C 0.48954 0.11327 0.75907 0.0
C1219 C 0.47443 0.11977 0.78745 0.0
C1220 C 0.46879 0.13748 0.88394 0.0
C1221 C 0.41846 0.1542 0.93946 0.0
C1222 C 0.43326 0.14355 0.91111 0.0
C1223 C 0.47583 0.11565 0.82539 0.0
C1224 C 0.46118 0.12454 0.85563 0.0
H1225 H 0.37042 0.17335 0.94788 0.0
H1226 H 0.39513 0.15728 0.90145 0.0
H1227 H 0.4615 0.15756 0.93161 0.0
H1228 H 0.51945 0.08867 0.81372 0.0
H1229 H 0.49329 0.10059 0.86342 0.0
C1230 C 0.59989 0.66209 0.25213 0.0
C1231 C 0.59516 0.64107 0.24247 0.0
C1232 C 0.60664 0.67668 0.22405 0.0
C1233 C 0.60127 0.68831 0.12757 0.0
H1234 H 0.65216 0.7241 0.1285 0.0
C1235 C 0.6272 0.74716 1.00864 0.0
C1236 C 0.63756 0.76622 0.01807 0.0
C1237 C 0.62352 0.73103 0.03466 0.0
C1238 C 0.6377 0.71453 0.12801 0.0
H1239 H 0.59379 0.61889 0.19578 0.0
H1240 H 0.60498 0.64453 0.14678 0.0
H1241 H 0.64271 0.69817 0.17728 0.0
H1242 H 0.65209 0.78335 0.06227 0.0
H1243 H 0.64485 0.75583 0.10809 0.0
H1244 H 0.59548 0.7051 0.07974 0.0
C1245 C 0.60374 0.6496 0.1761 0.0
C1246 C 0.63241 0.69956 0.15591 0.0
C1247 C 0.59745 0.63494 0.20416 0.0
C1248 C 0.64428 0.76875 0.05396 0.0
C1249 C 0.6402 0.75282 0.08025 0.0
C1250 C 0.60629 0.70357 0.10016 0.0
C1251 C 0.60831 0.67062 0.18576 0.0
C1252 C 0.61416 0.6863 0.15592 0.0
C1253 C 0.62966 0.7337 0.07115 0.0
C1254 C 0.6246 0.71697 0.09989 0.0
H1255 H 0.59824 0.6673 0.28138 0.0
H1256 H 0.60998 0.69282 0.2322 0.0
H1257 H 0.58698 0.6784 0.1272 0.0
H1258 H 0.62193 0.74471 0.98112 0.0
H1259 H 0.61582 0.71647 0.02601 0.0
C1260 C 0.98922 0.90394 0.2297 0.0
C1261 C 0.97134 0.91153 0.25005 0.0
C1262 C 0.00654 0.90055 0.24779 0.0
C1263 C 0.02943 0.91017 0.33873 0.0
H1264 H 0.06096 0.86326 0.30208 0.0
C1265 C 0.08761 0.86973 0.41998 0.0
C1266 C 0.10799 0.87043 0.40109 0.0
C1267 C 0.07117 0.87572 0.40175 0.0
C1268 C 0.05229 0.87643 0.31244 0.0
H1269 H 0.95751 0.92176 0.30507 0.0
H1270 H 0.98728 0.91485 0.33726 0.0
H1271 H 0.03173 0.87201 0.27019 0.0
H1272 H 0.1272 0.87749 0.34847 0.0
H1273 H 0.09818 0.88725 0.31596 0.0
H1274 H 0.04964 0.91366 0.38227 0.0
C1275 C 0.98837 0.91217 0.30707 0.0
C1276 C 0.03565 0.88164 0.29402 0.0
C1277 C 0.97121 0.91607 0.2887 0.0
C1278 C 0.11162 0.87695 0.36356 0.0
C1279 C 0.0951 0.88244 0.34504 0.0
C1280 C 0.0458 0.90462 0.35766 0.0
C1281 C 0.0062 0.90409 0.28694 0.0
C1282 C 0.02403 0.89868 0.30671 0.0
C1283 C 0.0748 0.882 0.36411 0.0
C1284 C 0.05739 0.88779 0.34449 0.0
H1285 H 0.98977 0.90051 0.19974 0.0
H1286 H 0.02014 0.89496 0.23098 0.0
H1287 H 0.02118 0.92359 0.34907 0.0
H1288 H 0.08452 0.86492 0.44904 0.0
H1289 H 0.05557 0.87521 0.41684 0.0
C1290 C 0.83866 0.2584 0.56751 0.0
C1291 C 0.84075 0.23785 0.57809 0.0
C1292 C 0.84499 0.27538 0.58994 0.0
C1293 C 0.88078 0.28893 0.6614 0.0
H1294 H 0.8511 0.33915 0.6773 0.0
C1295 C 0.90353 0.35255 0.76795 0.0
C1296 C 0.90382 0.37353 0.75778 0.0
C1297 C 0.89505 0.33663 0.74583 0.0
C1298 C 0.85969 0.32532 0.67276 0.0
H1299 H 0.8503 0.21905 0.62146 0.0
H1300 H 0.86097 0.24855 0.66074 0.0
H1301 H 0.83706 0.31006 0.64007 0.0
H1302 H 0.89511 0.3942 0.71645 0.0
H1303 H 0.88035 0.36622 0.67749 0.0
H1304 H 0.9034 0.30407 0.69387 0.0
C1305 C 0.85484 0.2516 0.63473 0.0
C1306 C 0.85163 0.30863 0.65147 0.0
C1307 C 0.84855 0.23466 0.61233 0.0
C1308 C 0.89513 0.3782 0.72509 0.0
C1309 C 0.88658 0.36218 0.70287 0.0
C1310 C 0.8888 0.30555 0.68261 0.0
C1311 C 0.85356 0.27219 0.62345 0.0
C1312 C 0.862 0.29015 0.6458 0.0
C1313 C 0.88663 0.34118 0.71282 0.0
C1314 C 0.87829 0.3239 0.68888 0.0
H1315 H 0.83277 0.26144 0.54124 0.0
H1316 H 0.84389 0.291 0.58026 0.0
H1317 H 0.88949 0.27518 0.65685 0.0
H1318 H 0.90996 0.34834 0.79304 0.0
H1319 H 0.89501 0.32069 0.75477 0.0
C1320 C 0.60513 0.84629 0.06207 0.0
C1321 C 0.59982 0.84111 0.02579 0.0
C1322 C 0.59084 0.85519 0.08911 0.0
C1323 C 0.5478 0.88782 0.10228 0.0
H1324 H 0.53228 0.86031 0.19773 0.0
C1325 C 0.48167 0.91498 0.21249 0.0
C1326 C 0.48239 0.91102 0.25073 0.0
C1327 C 0.49684 0.90784 0.18487 0.0
C1328 C 0.53673 0.86852 0.17165 0.0
H1329 H 0.5755 0.84134 0.98919 0.0
H1330 H 0.5506 0.85762 0.03649 0.0
H1331 H 0.55677 0.84489 0.14971 0.0
H1332 H 0.50023 0.89775 0.29034 0.0
H1333 H 0.5274 0.88645 0.24258 0.0
H1334 H 0.52852 0.91191 0.1244 0.0
C1335 C 0.5658 0.85451 0.04386 0.0
C1336 C 0.5506 0.8595 0.144 0.0
C1337 C 0.57996 0.84513 0.01698 0.0
C1338 C 0.49922 0.90088 0.26102 0.0
C1339 C 0.51465 0.89417 0.2335 0.0
C1340 C 0.53424 0.89712 0.13025 0.0
C1341 C 0.57112 0.8595 0.08018 0.0
C1342 C 0.55617 0.86901 0.10905 0.0
C1343 C 0.51333 0.89693 0.19491 0.0
C1344 C 0.52843 0.88756 0.16536 0.0
H1345 H 0.6203 0.8433 0.06972 0.0
H1346 H 0.59529 0.85896 0.11691 0.0
H1347 H 0.55208 0.89553 0.0756 0.0
H1348 H 0.46874 0.92256 0.20369 0.0
H1349 H 0.49503 0.9101 0.15559 0.0
C1350 C 0.3906 0.38035 0.81699 0.0
C1351 C 0.39019 0.37479 0.77876 0.0
C1352 C 0.3847 0.3656 0.84512 0.0
C1353 C 0.37681 0.3078 0.85708 0.0
H1354 H 0.3533 0.32321 0.95822 0.0
C1355 C 0.34304 0.24707 0.96811 0.0
C1356 C 0.35145 0.24886 1.00266 0.0
C1357 C 0.34682 0.2631 0.94204 0.0
C1358 C 0.35994 0.31875 0.9301 0.0
H1359 H 0.38228 0.3497 0.74013 0.0
H1360 H 0.37088 0.32435 0.78893 0.0
H1361 H 0.36063 0.34982 0.91 0.0
H1362 H 0.36986 0.26922 0.03736 0.0
H1363 H 0.37595 0.29758 0.99196 0.0
H1364 H 0.37541 0.2766 0.87712 0.0
C1365 C 0.37661 0.3398 0.79744 0.0
C1366 C 0.36426 0.33399 0.90241 0.0
C1367 C 0.38292 0.35442 0.76935 0.0
C1368 C 0.36317 0.26737 0.01101 0.0
C1369 C 0.36661 0.28361 0.98513 0.0
C1370 C 0.37211 0.29255 0.88452 0.0
C1371 C 0.37787 0.34498 0.83575 0.0
C1372 C 0.3728 0.32876 0.86542 0.0
C1373 C 0.35876 0.28146 0.95012 0.0
C1374 C 0.36367 0.29785 0.9213 0.0
H1375 H 0.39634 0.39589 0.82512 0.0
H1376 H 0.38622 0.37024 0.87406 0.0
H1377 H 0.38391 0.30309 0.82945 0.0
H1378 H 0.33401 0.23301 0.96068 0.0
H1379 H 0.34048 0.26109 0.91536 0.0
C1380 C 0.01022 0.08977 0.74718 0.0
C1381 C 0.01758 0.10507 0.77216 0.0
C1382 C 0.99283 0.09287 0.72884 0.0
C1383 C 0.94786 0.12609 0.73229 0.0
H1384 H 0.94783 0.10804 0.62782 0.0
C1385 C 0.89151 0.15478 0.63461 0.0
C1386 C 0.88136 0.13932 0.61341 0.0
C1387 C 0.90759 0.14986 0.65484 0.0
C1388 C 0.94757 0.11301 0.65709 0.0
H1389 H 0.01255 0.13565 0.79734 0.0
H1390 H 0.98281 0.14129 0.76472 0.0
H1391 H 0.9768 0.10052 0.66176 0.0
H1392 H 0.88033 0.10673 0.5961 0.0
H1393 H 0.90857 0.09817 0.63117 0.0
H1394 H 0.9189 0.13913 0.72705 0.0
C1395 C 0.98999 0.12664 0.75994 0.0
C1396 C 0.96411 0.10863 0.67663 0.0
C1397 C 0.00718 0.12346 0.77852 0.0
C1398 C 0.88772 0.11889 0.61256 0.0
C1399 C 0.90398 0.11404 0.63233 0.0
C1400 C 0.93148 0.1307 0.71259 0.0
C1401 C 0.98257 0.11142 0.73482 0.0
C1402 C 0.96453 0.11522 0.71445 0.0
C1403 C 0.91402 0.12945 0.65375 0.0
C1404 C 0.93123 0.12428 0.67478 0.0
H1405 H 0.01789 0.07541 0.7418 0.0
H1406 H 0.98739 0.08067 0.71011 0.0
H1407 H 0.9474 0.13103 0.76159 0.0
H1408 H 0.88682 0.1706 0.63589 0.0
H1409 H 0.91519 0.16206 0.67095 0.0
C1410 C 0.15595 0.75293 0.44498 0.0
C1411 C 0.1464 0.77169 0.44261 0.0
C1412 C 0.1502 0.73539 0.42333 0.0
C1413 C 0.10676 0.70892 0.38566 0.0
H1414 H 0.14416 0.6858 0.3046 0.0
C1415 C 0.08619 0.63288 0.30157 0.0
C1416 C 0.08678 0.6362 0.26274 0.0
C1417 C 0.09485 0.64818 0.32496 0.0
C1418 C 0.13365 0.69202 0.32738 0.0
H1419 H 0.12332 0.78671 0.4158 0.0
H1420 H 0.1129 0.75587 0.37904 0.0
H1421 H 0.15689 0.71518 0.34329 0.0
H1422 H 0.09754 0.65772 0.21772 0.0
H1423 H 0.11329 0.6841 0.25844 0.0
H1424 H 0.08354 0.68576 0.37001 0.0
C1425 C 0.12503 0.75492 0.39717 0.0
C1426 C 0.14092 0.70872 0.34946 0.0
C1427 C 0.1311 0.77256 0.41805 0.0
C1428 C 0.09679 0.65478 0.24757 0.0
C1429 C 0.10588 0.66981 0.27077 0.0
C1430 C 0.09963 0.69193 0.3642 0.0
C1431 C 0.13446 0.73619 0.39974 0.0
C1432 C 0.12742 0.7175 0.37835 0.0
C1433 C 0.10473 0.66679 0.30973 0.0
C1434 C 0.11291 0.68354 0.33449 0.0
H1435 H 0.16775 0.7518 0.46371 0.0
H1436 H 0.15765 0.72105 0.42571 0.0
H1437 H 0.0961 0.71549 0.40783 0.0
H1438 H 0.0785 0.61874 0.31403 0.0
H1439 H 0.09378 0.64553 0.35495 0.0
C1440 C 0.9097 0.67686 0.49456 0.0
C1441 C 0.88827 0.67119 0.4951 0.0
C1442 C 0.92424 0.66807 0.4676 0.0
C1443 C 0.93122 0.62309 0.40161 0.0
H1444 H 0.97463 0.65975 0.34827 0.0
C1445 C -0.00027 0.59394 0.29763 0.0
C1446 C 0.00564 0.6055 0.26476 0.0
C1447 C 0.98468 0.60088 0.32577 0.0
C1448 C 0.96252 0.64932 0.36277 0.0
H1449 H 0.86532 0.65161 0.4681 0.0
H1450 H 0.89061 0.63635 0.42133 0.0
H1451 H 0.95035 0.67398 0.39836 0.0
H1452 H -0.00031 0.63294 0.23498 0.0
H1453 H 0.97343 0.64489 0.28385 0.0
H1454 H 0.94329 0.59848 0.36563 0.0
C1455 C 0.89623 0.64747 0.44181 0.0
C1456 C 0.94878 0.65743 0.39178 0.0
C1457 C 0.88172 0.65634 0.4685 0.0
C1458 C -0.00444 0.62367 0.25997 0.0
C1459 C 0.98064 0.63064 0.28813 0.0
C1460 C 0.94507 0.61494 0.37275 0.0
C1461 C 0.91763 0.65332 0.44087 0.0
C1462 C 0.93287 0.64445 0.41133 0.0
C1463 C 0.97534 0.61957 0.32168 0.0
C1464 C 0.96075 0.62801 0.35278 0.0
H1465 H 0.91524 0.68824 0.51468 0.0
H1466 H 0.94066 0.67276 0.46777 0.0
H1467 H 0.91922 0.61266 0.41639 0.0
H1468 H 0.00723 0.57991 0.30226 0.0
H1469 H 0.98097 0.59205 0.35136 0.0
C1470 C 0.10308 0.16099 0.75202 0.0
C1471 C 0.09726 0.14011 0.74302 0.0
C1472 C 0.10988 0.17526 0.72343 0.0
C1473 C 0.10294 0.1868 0.6275 0.0
H1474 H 0.15471 0.22146 0.62541 0.0
C1475 C 0.12798 0.24563 0.50801 0.0
C1476 C 0.13879 0.2645 0.51715 0.0
C1477 C 0.12447 0.22939 0.53386 0.0
C1478 C 0.14001 0.2122 0.62576 0.0
H1479 H 0.09406 0.11784 0.69694 0.0
H1480 H 0.10537 0.14295 0.6471 0.0
H1481 H 0.14553 0.19571 0.67455 0.0
H1482 H 0.15434 0.28114 0.56068 0.0
H1483 H 0.14746 0.25348 0.60616 0.0
H1484 H 0.09668 0.20377 0.58018 0.0
C1485 C 0.10493 0.14815 0.67629 0.0
C1486 C 0.13487 0.19733 0.65386 0.0
C1487 C 0.09858 0.13377 0.70483 0.0
C1488 C 0.14616 0.26671 0.55255 0.0
C1489 C 0.14229 0.25068 0.57865 0.0
C1490 C 0.10783 0.20197 0.59988 0.0
C1491 C 0.11052 0.16905 0.6853 0.0
C1492 C 0.11628 0.1845 0.65502 0.0
C1493 C 0.13129 0.23177 0.56988 0.0
C1494 C 0.12643 0.21499 0.59857 0.0
H1495 H 0.10219 0.16635 0.78115 0.0
H1496 H 0.11402 0.19132 0.73111 0.0
H1497 H 0.08839 0.17723 0.628 0.0
H1498 H 0.12217 0.24342 0.48089 0.0
H1499 H 0.11636 0.21499 0.52549 0.0
C1500 C 0.47988 0.3883 0.73868 0.0
C1501 C 0.47023 0.40714 0.74513 0.0
C1502 C 0.4968 0.38431 0.7574 0.0
C1503 C 0.53935 0.40891 0.80506 0.0
H1504 H 0.53715 0.35592 0.85492 0.0
C1505 C 0.60039 0.39091 0.90212 0.0
C1506 C 0.6066 0.37046 0.90193 0.0
C1507 C 0.58387 0.39559 0.88287 0.0
C1508 C 0.53821 0.37065 0.84068 0.0
H1509 H 0.4711 0.43678 0.77562 0.0
H1510 H 0.50105 0.42988 0.80797 0.0
H1511 H 0.50844 0.36396 0.82092 0.0
H1512 H 0.60066 0.33895 0.88095 0.0
H1513 H 0.57216 0.34714 0.84633 0.0
H1514 H 0.56931 0.41547 0.82391 0.0
C1515 C 0.49536 0.41822 0.78847 0.0
C1516 C 0.5217 0.37528 0.82137 0.0
C1517 C 0.47821 0.42213 0.77006 0.0
C1518 C 0.59603 0.35479 0.88189 0.0
C1519 C 0.57965 0.35951 0.8622 0.0
C1520 C 0.55601 0.40418 0.82399 0.0
C1521 C 0.50461 0.39915 0.78266 0.0
C1522 C 0.52211 0.39444 0.80339 0.0
C1523 C 0.5733 0.37997 0.86255 0.0
C1524 C 0.55565 0.38498 0.8421 0.0
H1525 H 0.47411 0.3764 0.71969 0.0
H1526 H 0.50379 0.36958 0.75212 0.0
H1527 H 0.54012 0.42371 0.79109 0.0
H1528 H 0.60804 0.40323 0.91787 0.0
H1529 H 0.57919 0.41142 0.88448 0.0
C1530 C 0.34896 0.73431 0.11293 0.0
C1531 C 0.34076 0.73755 0.07909 0.0
C1532 C 0.35534 0.75121 0.13533 0.0
C1533 C 0.35144 0.80798 0.1534 0.0
H1534 H 0.40378 0.80392 0.19417 0.0
C1535 C 0.39442 0.87773 0.22704 0.0
C1536 C 0.40359 0.87311 0.25924 0.0
C1537 C 0.38594 0.86167 0.20487 0.0
C1538 C 0.38902 0.80525 0.18338 0.0
H1539 H 0.33223 0.76119 0.04292 0.0
H1540 H 0.34349 0.79069 0.08197 0.0
H1541 H 0.38999 0.77509 0.15683 0.0
H1542 H 0.41069 0.84797 0.29368 0.0
H1543 H 0.39582 0.82019 0.25547 0.0
H1544 H 0.35059 0.83828 0.18003 0.0
C1545 C 0.34483 0.77505 0.09132 0.0
C1546 C 0.38108 0.78868 0.16198 0.0
C1547 C 0.33842 0.75812 0.06887 0.0
C1548 C 0.40386 0.85213 0.26898 0.0
C1549 C 0.39543 0.83615 0.24689 0.0
C1550 C 0.3594 0.82462 0.17489 0.0
C1551 C 0.35374 0.7718 0.12447 0.0
C1552 C 0.36211 0.78972 0.14695 0.0
C1553 C 0.38652 0.84066 0.21438 0.0
C1554 C 0.37822 0.82338 0.19042 0.0
H1555 H 0.35089 0.71869 0.12179 0.0
H1556 H 0.36173 0.74811 0.16106 0.0
H1557 H 0.33672 0.80926 0.14246 0.0
H1558 H 0.39397 0.89373 0.21872 0.0
H1559 H 0.37933 0.86569 0.17985 0.0
C1560 C 0.10476 0.34269 0.5641 0.0
C1561 C 0.09979 0.3385 0.52728 0.0
C1562 C 0.09043 0.35141 0.59129 0.0
C1563 C 0.04888 0.38561 0.60489 0.0
H1564 H 0.03097 0.35687 0.69844 0.0
C1565 C 0.98318 0.41413 0.71431 0.0
C1566 C 0.98316 0.40942 0.75243 0.0
C1567 C -0.00177 0.40666 0.68685 0.0
C1568 C 0.03609 0.36541 0.67292 0.0
H1569 H 0.07604 0.34026 0.48992 0.0
H1570 H 0.05109 0.35626 0.53756 0.0
H1571 H 0.05518 0.34114 0.65029 0.0
H1572 H -0.00037 0.39436 0.79208 0.0
H1573 H 0.02665 0.38241 0.74465 0.0
H1574 H 0.03063 0.41032 0.62775 0.0
C1575 C 0.06603 0.35248 0.54522 0.0
C1576 C 0.04979 0.35621 0.64518 0.0
C1577 C 0.0802 0.34326 0.51814 0.0
C1578 C -0.00081 0.39811 0.76284 0.0
C1579 C 0.01452 0.39104 0.73549 0.0
C1580 C 0.03551 0.39506 0.63297 0.0
C1581 C 0.07105 0.35655 0.58201 0.0
C1582 C 0.05621 0.36618 0.6109 0.0
C1583 C 0.0139 0.39464 0.69694 0.0
C1584 C 0.02883 0.38505 0.66739 0.0
H1585 H 0.11971 0.33911 0.57197 0.0
H1586 H 0.09464 0.35448 0.61948 0.0
H1587 H 0.05385 0.39368 0.57877 0.0
H1588 H 0.97088 0.42262 0.70537 0.0
H1589 H -0.00306 0.40958 0.65759 0.0
C1590 C 0.8905 0.8776 0.31546 0.0
C1591 C 0.89259 0.87203 0.27695 0.0
C1592 C 0.88407 0.86257 0.34287 0.0
C1593 C 0.87863 0.80463 0.35468 0.0
H1594 H 0.84904 0.81923 0.45172 0.0
C1595 C 0.84291 0.7433 0.46406 0.0
C1596 C 0.84965 0.74614 0.49994 0.0
C1597 C 0.84695 0.75906 0.43742 0.0
C1598 C 0.85735 0.81499 0.42474 0.0
H1599 H 0.88874 0.84654 0.23688 0.0
H1600 H 0.87642 0.82061 0.28425 0.0
H1601 H 0.8575 0.84576 0.40366 0.0
H1602 H 0.86531 0.76802 0.53639 0.0
H1603 H 0.87176 0.79585 0.49006 0.0
H1604 H 0.87775 0.77365 0.37566 0.0
C1605 C 0.88056 0.83634 0.2937 0.0
C1606 C 0.86235 0.83021 0.39717 0.0
C1607 C 0.88743 0.85128 0.26637 0.0
C1608 C 0.85992 0.76536 0.509 0.0
C1609 C 0.86356 0.7813 0.48257 0.0
C1610 C 0.87323 0.78936 0.38194 0.0
C1611 C 0.87915 0.84163 0.33246 0.0
C1612 C 0.87319 0.82531 0.36172 0.0
C1613 C 0.85743 0.77816 0.44632 0.0
C1614 C 0.86265 0.7944 0.4173 0.0
H1615 H 0.89457 0.89344 0.32451 0.0
H1616 H 0.88358 0.86734 0.37223 0.0
H1617 H 0.88743 0.80019 0.32833 0.0
H1618 H 0.83506 0.72865 0.45612 0.0
H1619 H 0.84197 0.75629 0.40973 0.0
C1620 C 0.40081 0.64145 0.09913 0.0
C1621 C 0.38016 0.6396 0.11678 0.0
C1622 C 0.41713 0.63588 0.1181 0.0
C1623 C 0.43562 0.63562 0.20651 0.0
H1624 H 0.46605 0.58737 0.17396 0.0
C1625 C 0.49901 0.60995 0.29076 0.0
C1626 C 0.51667 0.60179 0.27071 0.0
C1627 C 0.48158 0.61303 0.27271 0.0
C1628 C 0.45798 0.60109 0.18314 0.0
H1629 H 0.36032 0.63096 0.16799 0.0
H1630 H 0.38912 0.62192 0.20183 0.0
H1631 H 0.43758 0.59656 0.14004 0.0
H1632 H 0.53006 0.5903 0.21623 0.0
H1633 H 0.50014 0.59664 0.18409 0.0
H1634 H 0.45639 0.64105 0.24825 0.0
C1635 C 0.3925 0.62729 0.17312 0.0
C1636 C 0.4416 0.6062 0.16383 0.0
C1637 C 0.37612 0.63238 0.15385 0.0
C1638 C 0.51652 0.59644 0.2324 0.0
C1639 C 0.49928 0.6 0.21407 0.0
C1640 C 0.45227 0.63083 0.22531 0.0
C1641 C 0.41306 0.62887 0.15524 0.0
C1642 C 0.43031 0.62344 0.17552 0.0
C1643 C 0.48162 0.60855 0.23388 0.0
C1644 C 0.46367 0.61343 0.21401 0.0
H1645 H 0.40422 0.64683 0.07045 0.0
H1646 H 0.43295 0.63725 0.10396 0.0
H1647 H 0.42712 0.64909 0.21569 0.0
H1648 H 0.49867 0.61401 0.32046 0.0
H1649 H 0.46813 0.61906 0.28928 0.0
C1650 C 0.6413 0.27545 0.90407 0.0
C1651 C 0.64895 0.27267 0.93861 0.0
C1652 C 0.63606 0.25829 0.88132 0.0
C1653 C 0.62003 0.20219 0.88665 0.0
H1654 H 0.62999 0.2044 0.77759 0.0
C1655 C 0.59517 0.13317 0.78941 0.0
C1656 C 0.58579 0.13853 0.75791 0.0
C1657 C 0.6048 0.14864 0.81122 0.0
C1658 C 0.62696 0.20358 0.80801 0.0
H1659 H 0.65761 0.24961 0.97581 0.0
H1660 H 0.6486 0.21964 0.93586 0.0
H1661 H 0.64386 0.23302 0.81564 0.0
H1662 H 0.5792 0.16439 0.72464 0.0
H1663 H 0.59575 0.19121 0.76266 0.0
H1664 H 0.60283 0.17289 0.87898 0.0
C1665 C 0.64645 0.23513 0.92662 0.0
C1666 C 0.63493 0.21999 0.82982 0.0
C1667 C 0.65176 0.25232 0.94937 0.0
C1668 C 0.58633 0.15966 0.74863 0.0
C1669 C 0.59597 0.17507 0.7703 0.0
C1670 C 0.61205 0.18576 0.86481 0.0
C1671 C 0.63829 0.23789 0.89253 0.0
C1672 C 0.63129 0.21965 0.86941 0.0
C1673 C 0.60532 0.16978 0.80188 0.0
C1674 C 0.61514 0.18642 0.82521 0.0
H1675 H 0.63887 0.29089 0.89495 0.0
H1676 H 0.62959 0.261 0.85548 0.0
H1677 H 0.61672 0.20153 0.91706 0.0
H1678 H 0.59505 0.11703 0.79731 0.0
H1679 H 0.61199 0.14402 0.83519 0.0
C1680 C 0.30927 0.23462 0.1724 0.0
C1681 C 0.30214 0.22198 0.14309 0.0
C1682 C 0.29523 0.24318 0.20031 0.0
C1683 C 0.24085 0.23661 0.24595 0.0
H1684 H 0.25252 0.29307 0.2829 0.0
C1685 C 0.18071 0.27909 0.34682 0.0
C1686 C 0.18782 0.2917 0.37619 0.0
C1687 C 0.19477 0.27059 0.31887 0.0
C1688 C 0.24916 0.27719 0.27328 0.0
H1689 H 0.27449 0.20852 0.12024 0.0
H1690 H 0.24982 0.22366 0.16907 0.0
H1691 H 0.27625 0.27853 0.2323 0.0
H1692 H 0.21544 0.30519 0.39907 0.0
H1693 H 0.24015 0.29016 0.35017 0.0
H1694 H 0.21377 0.23527 0.28692 0.0
C1695 C 0.26639 0.22675 0.17051 0.0
C1696 C 0.26275 0.26885 0.24416 0.0
C1697 C 0.28051 0.21816 0.1424 0.0
C1698 C 0.20944 0.29557 0.37687 0.0
C1699 C 0.22358 0.28704 0.34872 0.0
C1700 C 0.22727 0.24495 0.27506 0.0
C1701 C 0.2736 0.23939 0.19982 0.0
C1702 C 0.25879 0.24844 0.23013 0.0
C1703 C 0.21639 0.27441 0.31938 0.0
C1704 C 0.23122 0.26536 0.28909 0.0
H1705 H 0.32581 0.23786 0.17402 0.0
H1706 H 0.30137 0.25252 0.22271 0.0
H1707 H 0.23749 0.22074 0.23633 0.0
H1708 H 0.16417 0.27581 0.34519 0.0
H1709 H 0.18864 0.26126 0.29644 0.0
C1710 C 0.53018 0.56569 0.42806 0.0
C1711 C 0.53997 0.55764 0.39397 0.0
C1712 C 0.51912 0.55247 0.45493 0.0
C1713 C 0.51291 0.49809 0.48655 0.0
H1714 H 0.46056 0.5152 0.53845 0.0
C1715 C 0.45817 0.4438 0.58697 0.0
C1716 C 0.44856 0.45263 0.62053 0.0
C1717 C 0.46926 0.45641 0.55908 0.0
C1718 C 0.47526 0.5103 0.52456 0.0
H1719 H 0.54597 0.52925 0.36162 0.0
H1720 H 0.52645 0.50602 0.40875 0.0
H1721 H 0.47991 0.5371 0.48965 0.0
H1722 H 0.44308 0.48171 0.651 0.0
H1723 H 0.46262 0.50377 0.6023 0.0
H1724 H 0.50825 0.4713 0.52157 0.0
C1725 C 0.52751 0.52265 0.41465 0.0
C1726 C 0.48635 0.52284 0.49651 0.0
C1727 C 0.53862 0.53594 0.38759 0.0
C1728 C 0.45026 0.47442 0.62547 0.0
C1729 C 0.46137 0.48706 0.59747 0.0
C1730 C 0.5018 0.48554 0.51462 0.0
C1731 C 0.5175 0.53081 0.44853 0.0
C1732 C 0.50538 0.51696 0.47731 0.0
C1733 C 0.47104 0.47819 0.56396 0.0
C1734 C 0.48287 0.49153 0.53408 0.0
H1735 H 0.53098 0.58231 0.43412 0.0
H1736 H 0.51197 0.55927 0.48097 0.0
H1737 H 0.52763 0.49324 0.47268 0.0
H1738 H 0.45712 0.42708 0.58211 0.0
H1739 H 0.47623 0.44907 0.53343 0.0
C1740 C 0.20069 0.75183 0.64795 0.0
C1741 C 0.19621 0.77228 0.6408 0.0
C1742 C 0.21266 0.74791 0.67655 0.0
C1743 C 0.2503 0.77282 0.73702 0.0
H1744 H 0.23237 0.72543 0.80076 0.0
C1745 C 0.2869 0.75955 0.87261 0.0
C1746 C 0.29142 0.73911 0.87974 0.0
C1747 C 0.2751 0.76348 0.84375 0.0
C1748 C 0.23772 0.73858 0.78297 0.0
H1749 H 0.20113 0.8047 0.65784 0.0
H1750 H 0.22208 0.79788 0.70797 0.0
H1751 H 0.21259 0.73278 0.74946 0.0
H1752 H 0.28678 0.70672 0.86225 0.0
H1753 H 0.2661 0.71356 0.81179 0.0
H1754 H 0.27541 0.77863 0.7706 0.0
C1755 C 0.21644 0.78488 0.69113 0.0
C1756 C 0.22639 0.74281 0.75354 0.0
C1757 C 0.20445 0.7888 0.66239 0.0
C1758 C 0.28342 0.72261 0.85778 0.0
C1759 C 0.27159 0.72655 0.82884 0.0
C1760 C 0.26162 0.7686 0.76647 0.0
C1761 C 0.22048 0.76435 0.6988 0.0
C1762 C 0.23255 0.75996 0.73018 0.0
C1763 C 0.26747 0.74706 0.82126 0.0
C1764 C 0.25546 0.75144 0.78981 0.0
H1765 H 0.19498 0.73878 0.63133 0.0
H1766 H 0.21587 0.73197 0.68112 0.0
H1767 H 0.25564 0.78597 0.71923 0.0
H1768 H 0.29242 0.77258 0.88946 0.0
H1769 H 0.27185 0.77941 0.83921 0.0
C1770 C 0.01666 0.56402 0.1032 0.0
C1771 C 0.02856 0.55466 0.12762 0.0
C1772 C 0.00771 0.55241 0.07497 0.0
C1773 C 0.99227 0.49876 0.0436 0.0
H1774 H 0.9942 0.52451 0.9462 0.0
C1775 C 0.97126 0.45135 0.91349 0.0
C1776 C 0.95874 0.45994 0.88922 0.0
C1777 C 0.9797 0.46343 0.94166 0.0
C1778 C 0.99329 0.5172 0.97333 0.0
H1779 H 0.03987 0.52546 0.14193 0.0
H1780 H 0.02424 0.50497 0.09206 0.0
H1781 H 0.00916 0.54371 0.99761 0.0
H1782 H 0.94594 0.48837 0.87488 0.0
H1783 H 0.96085 0.50978 0.92463 0.0
H1784 H 0.97652 0.47221 0.01924 0.0
C1785 C 0.02178 0.52142 0.09513 0.0
C1786 C 0.00189 0.52818 1.00287 0.0
C1787 C 0.03076 0.53312 0.1237 0.0
C1788 C 0.95553 0.4813 0.89304 0.0
C1789 C 0.96406 0.49351 0.92154 0.0
C1790 C 0.9837 0.48778 0.01406 0.0
C1791 C 0.01041 0.53103 0.07001 0.0
C1792 C 0.00151 0.51911 0.03843 0.0
C1793 C 0.97591 0.48456 0.94667 0.0
C1794 C 0.9842 0.4968 0.97845 0.0
H1795 H 0.01439 0.58053 0.10556 0.0
H1796 H -0.00135 0.56028 0.05693 0.0
H1797 H 0.99135 0.4914 0.07068 0.0
H1798 H 0.97438 0.43503 0.91117 0.0
H1799 H 0.98919 0.45612 0.9597 0.0
C1800 C 0.67924 0.77845 0.84675 0.0
C1801 C 0.68646 0.79136 0.87563 0.0
C1802 C 0.69322 0.76989 0.81871 0.0
C1803 C 0.7473 0.77701 0.7719 0.0
H1804 H 0.73626 0.72022 0.73609 0.0
C1805 C 0.80772 0.73468 0.67138 0.0
C1806 C 0.80065 0.72167 0.64249 0.0
C1807 C 0.79362 0.74329 0.69913 0.0
C1808 C 0.73943 0.73619 0.74539 0.0
H1809 H 0.71418 0.80525 0.89767 0.0
H1810 H 0.73873 0.79012 0.84868 0.0
H1811 H 0.71254 0.73468 0.7868 0.0
H1812 H 0.77306 0.70766 0.62014 0.0
H1813 H 0.7483 0.7229 0.66867 0.0
H1814 H 0.7742 0.77853 0.7305 0.0
C1815 C 0.72214 0.78682 0.84763 0.0
C1816 C 0.72586 0.74448 0.77456 0.0
C1817 C 0.7081 0.7954 0.87585 0.0
C1818 C 0.77903 0.71759 0.64197 0.0
C1819 C 0.76486 0.72623 0.66992 0.0
C1820 C 0.76088 0.76873 0.74272 0.0
C1821 C 0.71485 0.77397 0.81868 0.0
C1822 C 0.72961 0.765 0.7882 0.0
C1823 C 0.77201 0.73918 0.69888 0.0
C1824 C 0.75715 0.74819 0.72913 0.0
H1825 H 0.66268 0.77503 0.84552 0.0
H1826 H 0.68702 0.76035 0.79661 0.0
H1827 H 0.75049 0.79298 0.78121 0.0
H1828 H 0.82425 0.73813 0.67284 0.0
H1829 H 0.79972 0.75289 0.72126 0.0
C1830 C 0.70536 0.28906 0.16026 0.0
C1831 C 0.69786 0.27248 0.13791 0.0
C1832 C 0.71722 0.2853 0.18928 0.0
C1833 C 0.7279 0.24322 0.25096 0.0
H1834 H 0.77587 0.28009 0.27003 0.0
C1835 C 0.78488 0.22356 0.35557 0.0
C1836 C 0.79246 0.24001 0.37808 0.0
C1837 C 0.77305 0.22748 0.32661 0.0
C1838 C 0.76237 0.26977 0.26535 0.0
H1839 H 0.69781 0.23911 0.12744 0.0
H1840 H 0.71844 0.23259 0.17777 0.0
H1841 H 0.75622 0.28729 0.2184 0.0
H1842 H 0.79275 0.27338 0.38878 0.0
H1843 H 0.77215 0.2802 0.33853 0.0
H1844 H 0.73404 0.2257 0.29789 0.0
C1845 C 0.71477 0.24842 0.17353 0.0
C1846 C 0.75111 0.2739 0.23575 0.0
C1847 C 0.70294 0.25218 0.14462 0.0
C1848 C 0.78754 0.2604 0.3715 0.0
C1849 C 0.77573 0.26431 0.34264 0.0
C1850 C 0.73915 0.23909 0.28056 0.0
C1851 C 0.72185 0.26489 0.19651 0.0
C1852 C 0.73377 0.26065 0.22815 0.0
C1853 C 0.76852 0.24795 0.31959 0.0
C1854 C 0.75652 0.25231 0.28811 0.0
H1855 H 0.70157 0.30484 0.15608 0.0
H1856 H 0.72229 0.29831 0.20668 0.0
H1857 H 0.71441 0.23289 0.24628 0.0
H1858 H 0.78857 0.20772 0.3596 0.0
H1859 H 0.76791 0.21454 0.30912 0.0
C1860 C 0.02842 0.06844 0.92995 0.0
C1861 C 0.03873 0.05974 0.89689 0.0
C1862 C 0.0174 0.05573 0.9577 0.0
C1863 C 0.01273 1.00219 0.99357 0.0
H1864 H 0.95959 0.01827 0.0438 0.0
C1865 C 0.95877 0.94681 0.09182 0.0
C1866 C 0.94854 0.95508 0.12536 0.0
C1867 C 0.96969 0.95988 0.06457 0.0
C1868 C 0.97452 0.0137 0.0304 0.0
H1869 H 0.04549 0.03074 0.86715 0.0
H1870 H 0.02603 0.00842 0.91568 0.0
H1871 H 0.97857 0.04001 0.99425 0.0
H1872 H 0.94167 0.98368 0.15633 0.0
H1873 H 0.96095 0.00667 0.10851 0.0
H1874 H 0.00868 0.97587 0.02965 0.0
C1875 C 0.02669 0.02516 0.92019 0.0
C1876 C 0.9854 0.02614 1.00193 0.0
C1877 C 0.03775 0.03794 0.89229 0.0
C1878 C 0.94937 0.97683 0.13082 0.0
C1879 C 0.96033 0.98998 0.10336 0.0
C1880 C 0.00186 0.98976 0.02202 0.0
C1881 C 0.01635 0.03393 0.95321 0.0
C1882 C 0.00463 0.02052 0.98312 0.0
C1883 C 0.97072 0.98161 0.07 0.0
C1884 C 0.98258 0.99532 0.04069 0.0
H1885 H 0.0289 0.08518 0.93459 0.0
H1886 H 0.00994 0.06301 0.98298 0.0
H1887 H 0.02766 0.9976 0.98018 0.0
H1888 H 0.95839 0.93014 0.08646 0.0
H1889 H 0.97715 0.95291 0.03896 0.0
C1890 C 0.53305 0.03242 0.62108 0.0
C1891 C 0.52811 0.0531 0.62888 0.0
C1892 C 0.52417 0.02074 0.59235 0.0
C1893 C 0.49927 0.02844 0.50554 0.0
H1894 H 0.48195 0.96966 0.51385 0.0
C1895 C 0.45344 0.98143 0.3952 0.0
C1896 C 0.45883 0.96088 0.38739 0.0
C1897 C 0.46212 0.99332 0.42393 0.0
C1898 C 0.4869 0.98605 0.51088 0.0
H1899 H 0.50901 0.07725 0.61422 0.0
H1900 H 0.49344 0.05698 0.5654 0.0
H1901 H 0.49652 0.98817 0.56627 0.0
H1902 H 0.47856 0.93724 0.4019 0.0
H1903 H 0.49372 0.95785 0.45075 0.0
H1904 H 0.48963 0.0263 0.45013 0.0
C1905 C 0.50458 0.04987 0.58032 0.0
C1906 C 0.4953 0.99665 0.54099 0.0
C1907 C 0.51344 0.06145 0.60865 0.0
C1908 C 0.47377 0.95291 0.4075 0.0
C1909 C 0.48239 0.96469 0.43584 0.0
C1910 C 0.49086 0.01784 0.47543 0.0
C1911 C 0.51015 0.02954 0.57106 0.0
C1912 C 0.50158 0.018 0.53877 0.0
C1913 C 0.47634 0.98484 0.4452 0.0
C1914 C 0.48464 0.99648 0.47762 0.0
H1915 H 0.54435 0.02559 0.63604 0.0
H1916 H 0.52883 1.0051 0.58595 0.0
H1917 H 0.50426 0.04482 0.50252 0.0
H1918 H 0.44194 0.98796 0.3803 0.0
H1919 H 0.45714 0.00883 0.4304 0.0
loop_
_geom_bond_atom_site_label_1
_geom_bond_atom_site_label_2
_geom_bond_distance
_geom_bond_site_symmetry_2
_ccdc_geom_bond_type
Co0 N5 2.057 . S
Co0 O17 2.021 . S
Co0 O20 2.062 . S
Co0 O24 2.117 . S
Co0 O25 2.020 1_554 S
C1 O21 1.259 . S
C1 O24 1.258 . S
Co2 N11 2.057 . S
Co2 O18 2.117 . S
Co2 O19 2.020 . S
Co2 O21 2.021 . S
Co2 O26 2.062 . S
C3 N5 1.316 . S
C3 N6 1.347 1_554 S
C3 H8 0.931 . S
C4 N5 1.375 1_556 S
C4 C7 1.350 . S
C4 H9 0.930 . S
N5 Co0 2.057 . S
N5 C3 1.316 . S
N5 C4 1.375 1_554 S
N6 C3 1.347 1_556 S
N6 C7 1.373 . S
C7 C4 1.350 . S
C7 N6 1.373 . S
C7 H28 0.931 . S
H8 C3 0.931 . S
H9 C4 0.930 . S
C10 O17 1.259 . S
C10 O18 1.258 . S
N11 Co2 2.057 . S
N11 C12 1.316 . S
N11 C13 1.375 . S
C12 N11 1.316 . S
C12 N14 1.347 . S
C12 H23 0.931 . S
C13 N11 1.375 . S
C13 C15 1.350 . S
C13 H22 0.930 . S
N14 C12 1.347 . S
N14 C15 1.373 . S
C15 C13 1.350 . S
C15 N14 1.373 . S
C15 H29 0.931 . S
C16 O19 1.256 . S
C16 O20 1.255 . S
O17 Co0 2.021 . S
O17 C10 1.259 . S
O18 Co2 2.117 . S
O18 C10 1.258 . S
O19 Co2 2.020 . S
O19 C16 1.256 . S
O20 Co0 2.062 . S
O20 C16 1.255 . S
O21 C1 1.259 . S
O21 Co2 2.021 . S
H22 C13 0.930 . S
H23 C12 0.931 . S
O24 Co0 2.117 . S
O24 C1 1.258 . S
O25 Co0 2.020 1_556 S
O25 C27 1.256 . S
O26 Co2 2.062 . S
O26 C27 1.255 1_554 S
C27 O25 1.256 . S
C27 O26 1.255 1_556 S
H28 C7 0.931 . S
H29 C15 0.931 . S
Co30 N35 2.057 . S
Co30 O47 2.021 . S
Co30 O50 2.062 . S
Co30 O54 2.117 . S
Co30 O55 2.020 . S
C31 O51 1.259 . S
C31 O54 1.258 . S
Co32 N41 2.057 . S
Co32 O48 2.117 . S
Co32 O49 2.020 . S
Co32 O51 2.021 . S
Co32 O56 2.062 . S
C33 N35 1.316 . S
C33 N36 1.347 . S
C33 H38 0.931 . S
C34 N35 1.375 . S
C34 C37 1.350 . S
C34 H39 0.930 . S
N35 Co30 2.057 . S
N35 C33 1.316 . S
N35 C34 1.375 . S
N36 C33 1.347 . S
N36 C37 1.373 . S
C37 C34 1.350 . S
C37 N36 1.373 . S
C37 H58 0.931 . S
H38 C33 0.931 . S
H39 C34 0.930 . S
C40 O47 1.259 . S
C40 O48 1.258 . S
N41 Co32 2.057 . S
N41 C42 1.316 . S
N41 C43 1.375 . S
C42 N41 1.316 . S
C42 N44 1.347 . S
C42 H53 0.931 . S
C43 N41 1.375 . S
C43 C45 1.350 . S
C43 H52 0.930 . S
N44 C42 1.347 . S
N44 C45 1.373 . S
C45 C43 1.350 . S
C45 N44 1.373 . S
C45 H59 0.931 . S
C46 O49 1.256 . S
C46 O50 1.255 . S
O47 Co30 2.021 . S
O47 C40 1.259 . S
O48 Co32 2.117 . S
O48 C40 1.258 . S
O49 Co32 2.020 . S
O49 C46 1.256 . S
O50 Co30 2.062 . S
O50 C46 1.255 . S
O51 C31 1.259 . S
O51 Co32 2.021 . S
H52 C43 0.930 . S
H53 C42 0.931 . S
O54 Co30 2.117 . S
O54 C31 1.258 . S
O55 Co30 2.020 . S
O55 C57 1.256 . S
O56 Co32 2.062 . S
O56 C57 1.255 . S
C57 O55 1.256 . S
C57 O56 1.255 . S
H58 C37 0.931 . S
H59 C45 0.931 . S
Co60 N65 2.057 . S
Co60 O77 2.021 . S
Co60 O80 2.062 . S
Co60 O84 2.117 . S
Co60 O85 2.020 . S
C61 O81 1.259 . S
C61 O84 1.258 . S
Co62 N71 2.057 . S
Co62 O78 2.117 . S
Co62 O79 2.020 . S
Co62 O81 2.021 . S
Co62 O86 2.062 . S
C63 N65 1.316 . S
C63 N66 1.347 . S
C63 H68 0.931 . S
C64 N65 1.375 . S
C64 C67 1.350 . S
C64 H69 0.930 . S
N65 Co60 2.057 . S
N65 C63 1.316 . S
N65 C64 1.375 . S
N66 C63 1.347 . S
N66 C67 1.373 . S
C67 C64 1.350 . S
C67 N66 1.373 . S
C67 H88 0.931 . S
H68 C63 0.931 . S
H69 C64 0.930 . S
C70 O77 1.259 . S
C70 O78 1.258 . S
N71 Co62 2.057 . S
N71 C72 1.316 . S
N71 C73 1.375 . S
C72 N71 1.316 . S
C72 N74 1.347 . S
C72 H83 0.931 . S
C73 N71 1.375 . S
C73 C75 1.350 . S
C73 H82 0.930 . S
N74 C72 1.347 . S
N74 C75 1.373 . S
C75 C73 1.350 . S
C75 N74 1.373 . S
C75 H89 0.931 . S
C76 O79 1.256 . S
C76 O80 1.255 . S
O77 Co60 2.021 . S
O77 C70 1.259 . S
O78 Co62 2.117 . S
O78 C70 1.258 . S
O79 Co62 2.020 . S
O79 C76 1.256 . S
O80 Co60 2.062 . S
O80 C76 1.255 . S
O81 C61 1.259 . S
O81 Co62 2.021 . S
H82 C73 0.930 . S
H83 C72 0.931 . S
O84 Co60 2.117 . S
O84 C61 1.258 . S
O85 Co60 2.020 . S
O85 C87 1.256 . S
O86 Co62 2.062 . S
O86 C87 1.255 . S
C87 O85 1.256 . S
C87 O86 1.255 . S
H88 C67 0.931 . S
H89 C75 0.931 . S
Co90 N95 2.057 . S
Co90 O107 2.021 . S
Co90 O110 2.062 . S
Co90 O114 2.117 . S
Co90 O115 2.020 . S
C91 O111 1.259 . S
C91 O114 1.258 . S
Co92 N101 2.057 . S
Co92 O108 2.117 . S
Co92 O109 2.020 . S
Co92 O111 2.021 . S
Co92 O116 2.062 . S
C93 N95 1.316 . S
C93 N96 1.347 . S
C93 H98 0.931 . S
C94 N95 1.375 . S
C94 C97 1.350 . S
C94 H99 0.930 . S
N95 Co90 2.057 . S
N95 C93 1.316 . S
N95 C94 1.375 . S
N96 C93 1.347 . S
N96 C97 1.373 . S
C97 C94 1.350 . S
C97 N96 1.373 . S
C97 H118 0.931 . S
H98 C93 0.931 . S
H99 C94 0.930 . S
C100 O107 1.259 . S
C100 O108 1.258 . S
N101 Co92 2.057 . S
N101 C102 1.316 . S
N101 C103 1.375 . S
C102 N101 1.316 . S
C102 N104 1.347 . S
C102 H113 0.931 . S
C103 N101 1.375 . S
C103 C105 1.350 . S
C103 H112 0.930 . S
N104 C102 1.347 . S
N104 C105 1.373 . S
C105 C103 1.350 . S
C105 N104 1.373 . S
C105 H119 0.931 . S
C106 O109 1.256 . S
C106 O110 1.255 . S
O107 Co90 2.021 . S
O107 C100 1.259 . S
O108 Co92 2.117 . S
O108 C100 1.258 . S
O109 Co92 2.020 . S
O109 C106 1.256 . S
O110 Co90 2.062 . S
O110 C106 1.255 . S
O111 C91 1.259 . S
O111 Co92 2.021 . S
H112 C103 0.930 . S
H113 C102 0.931 . S
O114 Co90 2.117 . S
O114 C91 1.258 . S
O115 Co90 2.020 . S
O115 C117 1.256 . S
O116 Co92 2.062 . S
O116 C117 1.255 . S
C117 O115 1.256 . S
C117 O116 1.255 . S
H118 C97 0.931 . S
H119 C105 0.931 . S
Co120 N125 2.057 . S
Co120 O137 2.021 . S
Co120 O140 2.062 . S
Co120 O144 2.117 . S
Co120 O145 2.020 . S
C121 O141 1.259 . S
C121 O144 1.258 . S
Co122 N131 2.057 . S
Co122 O138 2.117 . S
Co122 O139 2.020 1_556 S
Co122 O141 2.021 . S
Co122 O146 2.062 . S
C123 N125 1.316 . S
C123 N126 1.347 . S
C123 H128 0.931 . S
C124 N125 1.375 . S
C124 C127 1.350 . S
C124 H129 0.930 . S
N125 Co120 2.057 . S
N125 C123 1.316 . S
N125 C124 1.375 . S
N126 C123 1.347 . S
N126 C127 1.373 . S
C127 C124 1.350 . S
C127 N126 1.373 . S
C127 H148 0.931 . S
H128 C123 0.931 . S
H129 C124 0.930 . S
C130 O137 1.259 . S
C130 O138 1.258 . S
N131 Co122 2.057 . S
N131 C132 1.316 . S
N131 C133 1.375 1_556 S
C132 N131 1.316 . S
C132 N134 1.347 1_556 S
C132 H143 0.931 . S
C133 N131 1.375 1_554 S
C133 C135 1.350 . S
C133 H142 0.930 . S
N134 C132 1.347 1_554 S
N134 C135 1.373 . S
C135 C133 1.350 . S
C135 N134 1.373 . S
C135 H149 0.931 . S
C136 O139 1.256 . S
C136 O140 1.255 1_554 S
O137 Co120 2.021 . S
O137 C130 1.259 . S
O138 Co122 2.117 . S
O138 C130 1.258 . S
O139 Co122 2.020 1_554 S
O139 C136 1.256 . S
O140 Co120 2.062 . S
O140 C136 1.255 1_556 S
O141 C121 1.259 . S
O141 Co122 2.021 . S
H142 C133 0.930 . S
H143 C132 0.931 . S
O144 Co120 2.117 . S
O144 C121 1.258 . S
O145 Co120 2.020 . S
O145 C147 1.256 . S
O146 Co122 2.062 . S
O146 C147 1.255 . S
C147 O145 1.256 . S
C147 O146 1.255 . S
H148 C127 0.931 . S
H149 C135 0.931 . S
Co150 N155 2.057 . S
Co150 O167 2.021 . S
Co150 O170 2.062 . S
Co150 O174 2.117 . S
Co150 O175 2.020 . S
C151 O171 1.259 . S
C151 O174 1.258 . S
Co152 N161 2.057 . S
Co152 O168 2.117 . S
Co152 O169 2.020 . S
Co152 O171 2.021 . S
Co152 O176 2.062 . S
C153 N155 1.316 . S
C153 N156 1.347 . S
C153 H158 0.931 . S
C154 N155 1.375 . S
C154 C157 1.350 . S
C154 H159 0.930 . S
N155 Co150 2.057 . S
N155 C153 1.316 . S
N155 C154 1.375 . S
N156 C153 1.347 . S
N156 C157 1.373 . S
C157 C154 1.350 . S
C157 N156 1.373 . S
C157 H178 0.931 . S
H158 C153 0.931 . S
H159 C154 0.930 . S
C160 O167 1.259 . S
C160 O168 1.258 . S
N161 Co152 2.057 . S
N161 C162 1.316 . S
N161 C163 1.375 . S
C162 N161 1.316 . S
C162 N164 1.347 . S
C162 H173 0.931 . S
C163 N161 1.375 . S
C163 C165 1.350 . S
C163 H172 0.930 . S
N164 C162 1.347 . S
N164 C165 1.373 . S
C165 C163 1.350 . S
C165 N164 1.373 . S
C165 H179 0.931 . S
C166 O169 1.256 . S
C166 O170 1.255 . S
O167 Co150 2.021 . S
O167 C160 1.259 . S
O168 Co152 2.117 . S
O168 C160 1.258 . S
O169 Co152 2.020 . S
O169 C166 1.256 . S
O170 Co150 2.062 . S
O170 C166 1.255 . S
O171 C151 1.259 . S
O171 Co152 2.021 . S
H172 C163 0.930 . S
H173 C162 0.931 . S
O174 Co150 2.117 . S
O174 C151 1.258 . S
O175 Co150 2.020 . S
O175 C177 1.256 . S
O176 Co152 2.062 . S
O176 C177 1.255 . S
C177 O175 1.256 . S
C177 O176 1.255 . S
H178 C157 0.931 . S
H179 C165 0.931 . S
Co180 N185 2.057 . S
Co180 O197 2.021 . S
Co180 O200 2.062 . S
Co180 O204 2.117 . S
Co180 O205 2.020 . S
C181 O201 1.259 . S
C181 O204 1.258 . S
Co182 N191 2.057 . S
Co182 O198 2.117 . S
Co182 O199 2.020 . S
Co182 O201 2.021 . S
Co182 O206 2.062 . S
C183 N185 1.316 . S
C183 N186 1.347 . S
C183 H188 0.931 . S
C184 N185 1.375 . S
C184 C187 1.350 . S
C184 H189 0.930 . S
N185 Co180 2.057 . S
N185 C183 1.316 . S
N185 C184 1.375 . S
N186 C183 1.347 . S
N186 C187 1.373 . S
C187 C184 1.350 . S
C187 N186 1.373 . S
C187 H208 0.931 . S
H188 C183 0.931 . S
H189 C184 0.930 . S
C190 O197 1.259 . S
C190 O198 1.258 . S
N191 Co182 2.057 . S
N191 C192 1.316 . S
N191 C193 1.375 . S
C192 N191 1.316 . S
C192 N194 1.347 . S
C192 H203 0.931 . S
C193 N191 1.375 . S
C193 C195 1.350 . S
C193 H202 0.930 . S
N194 C192 1.347 . S
N194 C195 1.373 . S
C195 C193 1.350 . S
C195 N194 1.373 . S
C195 H209 0.931 . S
C196 O199 1.256 . S
C196 O200 1.255 . S
O197 Co180 2.021 . S
O197 C190 1.259 . S
O198 Co182 2.117 . S
O198 C190 1.258 . S
O199 Co182 2.020 . S
O199 C196 1.256 . S
O200 Co180 2.062 . S
O200 C196 1.255 . S
O201 C181 1.259 . S
O201 Co182 2.021 . S
H202 C193 0.930 . S
H203 C192 0.931 . S
O204 Co180 2.117 . S
O204 C181 1.258 . S
O205 Co180 2.020 . S
O205 C207 1.256 . S
O206 Co182 2.062 . S
O206 C207 1.255 . S
C207 O205 1.256 . S
C207 O206 1.255 . S
H208 C187 0.931 . S
H209 C195 0.931 . S
Co210 N215 2.057 . S
Co210 O227 2.021 . S
Co210 O230 2.062 . S
Co210 O234 2.117 . S
Co210 O235 2.020 . S
C211 O231 1.259 . S
C211 O234 1.258 . S
Co212 N221 2.057 . S
Co212 O228 2.117 . S
Co212 O229 2.020 . S
Co212 O231 2.021 . S
Co212 O236 2.062 . S
C213 N215 1.316 . S
C213 N216 1.347 . S
C213 H218 0.931 . S
C214 N215 1.375 . S
C214 C217 1.350 . S
C214 H219 0.930 . S
N215 Co210 2.057 . S
N215 C213 1.316 . S
N215 C214 1.375 . S
N216 C213 1.347 . S
N216 C217 1.373 . S
C217 C214 1.350 . S
C217 N216 1.373 . S
C217 H238 0.931 . S
H218 C213 0.931 . S
H219 C214 0.930 . S
C220 O227 1.259 . S
C220 O228 1.258 . S
N221 Co212 2.057 . S
N221 C222 1.316 . S
N221 C223 1.375 . S
C222 N221 1.316 . S
C222 N224 1.347 . S
C222 H233 0.931 . S
C223 N221 1.375 . S
C223 C225 1.350 . S
C223 H232 0.930 . S
N224 C222 1.347 . S
N224 C225 1.373 . S
C225 C223 1.350 . S
C225 N224 1.373 . S
C225 H239 0.931 . S
C226 O229 1.256 . S
C226 O230 1.255 . S
O227 Co210 2.021 . S
O227 C220 1.259 . S
O228 Co212 2.117 . S
O228 C220 1.258 . S
O229 Co212 2.020 . S
O229 C226 1.256 . S
O230 Co210 2.062 . S
O230 C226 1.255 . S
O231 C211 1.259 . S
O231 Co212 2.021 . S
H232 C223 0.930 . S
H233 C222 0.931 . S
O234 Co210 2.117 . S
O234 C211 1.258 . S
O235 Co210 2.020 . S
O235 C237 1.256 . S
O236 Co212 2.062 . S
O236 C237 1.255 . S
C237 O235 1.256 . S
C237 O236 1.255 . S
H238 C217 0.931 . S
H239 C225 0.931 . S
Co240 N245 2.057 . S
Co240 O257 2.021 . S
Co240 O260 2.062 . S
Co240 O264 2.117 . S
Co240 O265 2.020 . S
C241 O261 1.259 . S
C241 O264 1.258 . S
Co242 N251 2.057 . S
Co242 O258 2.117 . S
Co242 O259 2.020 . S
Co242 O261 2.021 . S
Co242 O266 2.062 . S
C243 N245 1.316 . S
C243 N246 1.347 . S
C243 H248 0.931 . S
C244 N245 1.375 . S
C244 C247 1.350 . S
C244 H249 0.930 . S
N245 Co240 2.057 . S
N245 C243 1.316 . S
N245 C244 1.375 . S
N246 C243 1.347 . S
N246 C247 1.373 . S
C247 C244 1.350 . S
C247 N246 1.373 . S
C247 H268 0.931 . S
H248 C243 0.931 . S
H249 C244 0.930 . S
C250 O257 1.259 . S
C250 O258 1.258 . S
N251 Co242 2.057 . S
N251 C252 1.316 . S
N251 C253 1.375 . S
C252 N251 1.316 . S
C252 N254 1.347 . S
C252 H263 0.931 . S
C253 N251 1.375 . S
C253 C255 1.350 . S
C253 H262 0.930 . S
N254 C252 1.347 . S
N254 C255 1.373 . S
C255 C253 1.350 . S
C255 N254 1.373 . S
C255 H269 0.931 . S
C256 O259 1.256 . S
C256 O260 1.255 . S
O257 Co240 2.021 . S
O257 C250 1.259 . S
O258 Co242 2.117 . S
O258 C250 1.258 . S
O259 Co242 2.020 . S
O259 C256 1.256 . S
O260 Co240 2.062 . S
O260 C256 1.255 . S
O261 C241 1.259 . S
O261 Co242 2.021 . S
H262 C253 0.930 . S
H263 C252 0.931 . S
O264 Co240 2.117 . S
O264 C241 1.258 . S
O265 Co240 2.020 . S
O265 C267 1.256 . S
O266 Co242 2.062 . S
O266 C267 1.255 . S
C267 O265 1.256 . S
C267 O266 1.255 . S
H268 C247 0.931 . S
H269 C255 0.931 . S
Co270 N275 2.057 . S
Co270 O287 2.021 . S
Co270 O290 2.062 . S
Co270 O294 2.117 . S
Co270 O295 2.020 . S
C271 O291 1.259 . S
C271 O294 1.258 . S
Co272 N281 2.057 . S
Co272 O288 2.117 . S
Co272 O289 2.020 . S
Co272 O291 2.021 . S
Co272 O296 2.062 . S
C273 N275 1.316 . S
C273 N276 1.347 . S
C273 H278 0.931 . S
C274 N275 1.375 . S
C274 C277 1.350 . S
C274 H279 0.930 . S
N275 Co270 2.057 . S
N275 C273 1.316 . S
N275 C274 1.375 . S
N276 C273 1.347 . S
N276 C277 1.373 . S
C277 C274 1.350 . S
C277 N276 1.373 . S
C277 H298 0.931 . S
H278 C273 0.931 . S
H279 C274 0.930 . S
C280 O287 1.259 . S
C280 O288 1.258 . S
N281 Co272 2.057 . S
N281 C282 1.316 . S
N281 C283 1.375 . S
C282 N281 1.316 . S
C282 N284 1.347 . S
C282 H293 0.931 . S
C283 N281 1.375 . S
C283 C285 1.350 . S
C283 H292 0.930 . S
N284 C282 1.347 . S
N284 C285 1.373 . S
C285 C283 1.350 . S
C285 N284 1.373 . S
C285 H299 0.931 . S
C286 O289 1.256 . S
C286 O290 1.255 . S
O287 Co270 2.021 . S
O287 C280 1.259 . S
O288 Co272 2.117 . S
O288 C280 1.258 . S
O289 Co272 2.020 . S
O289 C286 1.256 . S
O290 Co270 2.062 . S
O290 C286 1.255 . S
O291 C271 1.259 . S
O291 Co272 2.021 . S
H292 C283 0.930 . S
H293 C282 0.931 . S
O294 Co270 2.117 . S
O294 C271 1.258 . S
O295 Co270 2.020 . S
O295 C297 1.256 . S
O296 Co272 2.062 . S
O296 C297 1.255 . S
C297 O295 1.256 . S
C297 O296 1.255 . S
H298 C277 0.931 . S
H299 C285 0.931 . S
Co300 N305 2.057 . S
Co300 O317 2.021 . S
Co300 O320 2.062 1_556 S
Co300 O324 2.117 1_556 S
Co300 O325 2.020 . S
C301 O321 1.259 . S
C301 O324 1.258 . S
Co302 N311 2.057 . S
Co302 O318 2.117 1_554 S
Co302 O319 2.020 . S
Co302 O321 2.021 . S
Co302 O326 2.062 . S
C303 N305 1.316 . S
C303 N306 1.347 . S
C303 H308 0.931 . S
C304 N305 1.375 . S
C304 C307 1.350 . S
C304 H309 0.930 . S
N305 Co300 2.057 . S
N305 C303 1.316 . S
N305 C304 1.375 . S
N306 C303 1.347 . S
N306 C307 1.373 . S
C307 C304 1.350 . S
C307 N306 1.373 . S
C307 H328 0.931 . S
H308 C303 0.931 . S
H309 C304 0.930 . S
C310 O317 1.259 . S
C310 O318 1.258 . S
N311 Co302 2.057 . S
N311 C312 1.316 . S
N311 C313 1.375 . S
C312 N311 1.316 . S
C312 N314 1.347 . S
C312 H323 0.931 . S
C313 N311 1.375 . S
C313 C315 1.350 . S
C313 H322 0.930 . S
N314 C312 1.347 . S
N314 C315 1.373 . S
C315 C313 1.350 . S
C315 N314 1.373 . S
C315 H329 0.931 . S
C316 O319 1.256 . S
C316 O320 1.255 . S
O317 Co300 2.021 . S
O317 C310 1.259 . S
O318 Co302 2.117 1_556 S
O318 C310 1.258 . S
O319 Co302 2.020 . S
O319 C316 1.256 . S
O320 Co300 2.062 1_554 S
O320 C316 1.255 . S
O321 C301 1.259 . S
O321 Co302 2.021 . S
H322 C313 0.930 . S
H323 C312 0.931 . S
O324 Co300 2.117 1_554 S
O324 C301 1.258 . S
O325 Co300 2.020 . S
O325 C327 1.256 . S
O326 Co302 2.062 . S
O326 C327 1.255 1_554 S
C327 O325 1.256 . S
C327 O326 1.255 1_556 S
H328 C307 0.931 . S
H329 C315 0.931 . S
Co330 N335 2.057 . S
Co330 O347 2.021 . S
Co330 O350 2.062 . S
Co330 O354 2.117 . S
Co330 O355 2.020 . S
C331 O351 1.259 . S
C331 O354 1.258 . S
Co332 N341 2.057 . S
Co332 O348 2.117 . S
Co332 O349 2.020 . S
Co332 O351 2.021 . S
Co332 O356 2.062 . S
C333 N335 1.316 . S
C333 N336 1.347 . S
C333 H338 0.931 . S
C334 N335 1.375 . S
C334 C337 1.350 . S
C334 H339 0.930 . S
N335 Co330 2.057 . S
N335 C333 1.316 . S
N335 C334 1.375 . S
N336 C333 1.347 . S
N336 C337 1.373 . S
C337 C334 1.350 . S
C337 N336 1.373 . S
C337 H358 0.931 . S
H338 C333 0.931 . S
H339 C334 0.930 . S
C340 O347 1.259 . S
C340 O348 1.258 . S
N341 Co332 2.057 . S
N341 C342 1.316 . S
N341 C343 1.375 . S
C342 N341 1.316 . S
C342 N344 1.347 . S
C342 H353 0.931 . S
C343 N341 1.375 . S
C343 C345 1.350 . S
C343 H352 0.930 . S
N344 C342 1.347 . S
N344 C345 1.373 . S
C345 C343 1.350 . S
C345 N344 1.373 . S
C345 H359 0.931 . S
C346 O349 1.256 . S
C346 O350 1.255 . S
O347 Co330 2.021 . S
O347 C340 1.259 . S
O348 Co332 2.117 . S
O348 C340 1.258 . S
O349 Co332 2.020 . S
O349 C346 1.256 . S
O350 Co330 2.062 . S
O350 C346 1.255 . S
O351 C331 1.259 . S
O351 Co332 2.021 . S
H352 C343 0.930 . S
H353 C342 0.931 . S
O354 Co330 2.117 . S
O354 C331 1.258 . S
O355 Co330 2.020 . S
O355 C357 1.256 . S
O356 Co332 2.062 . S
O356 C357 1.255 . S
C357 O355 1.256 . S
C357 O356 1.255 . S
H358 C337 0.931 . S
H359 C345 0.931 . S
Co360 N365 2.057 . S
Co360 O377 2.021 . S
Co360 O380 2.062 . S
Co360 O384 2.117 . S
Co360 O385 2.020 . S
C361 O381 1.259 . S
C361 O384 1.258 . S
Co362 N371 2.057 . S
Co362 O378 2.117 . S
Co362 O379 2.020 . S
Co362 O381 2.021 . S
Co362 O386 2.062 . S
C363 N365 1.316 . S
C363 N366 1.347 . S
C363 H368 0.931 . S
C364 N365 1.375 . S
C364 C367 1.350 . S
C364 H369 0.930 . S
N365 Co360 2.057 . S
N365 C363 1.316 . S
N365 C364 1.375 . S
N366 C363 1.347 . S
N366 C367 1.373 . S
C367 C364 1.350 . S
C367 N366 1.373 . S
C367 H388 0.931 . S
H368 C363 0.931 . S
H369 C364 0.930 . S
C370 O377 1.259 . S
C370 O378 1.258 . S
N371 Co362 2.057 . S
N371 C372 1.316 . S
N371 C373 1.375 . S
C372 N371 1.316 . S
C372 N374 1.347 . S
C372 H383 0.931 . S
C373 N371 1.375 . S
C373 C375 1.350 . S
C373 H382 0.930 . S
N374 C372 1.347 . S
N374 C375 1.373 . S
C375 C373 1.350 . S
C375 N374 1.373 . S
C375 H389 0.931 . S
C376 O379 1.256 . S
C376 O380 1.255 . S
O377 Co360 2.021 . S
O377 C370 1.259 . S
O378 Co362 2.117 . S
O378 C370 1.258 . S
O379 Co362 2.020 . S
O379 C376 1.256 . S
O380 Co360 2.062 . S
O380 C376 1.255 . S
O381 C361 1.259 . S
O381 Co362 2.021 . S
H382 C373 0.930 . S
H383 C372 0.931 . S
O384 Co360 2.117 . S
O384 C361 1.258 . S
O385 Co360 2.020 . S
O385 C387 1.256 . S
O386 Co362 2.062 . S
O386 C387 1.255 . S
C387 O385 1.256 . S
C387 O386 1.255 . S
H388 C367 0.931 . S
H389 C375 0.931 . S
Co390 N395 2.057 . S
Co390 O407 2.021 . S
Co390 O410 2.062 . S
Co390 O414 2.117 . S
Co390 O415 2.020 . S
C391 O411 1.259 . S
C391 O414 1.258 . S
Co392 N401 2.057 . S
Co392 O408 2.117 . S
Co392 O409 2.020 . S
Co392 O411 2.021 . S
Co392 O416 2.062 . S
C393 N395 1.316 . S
C393 N396 1.347 . S
C393 H398 0.931 . S
C394 N395 1.375 . S
C394 C397 1.350 . S
C394 H399 0.930 . S
N395 Co390 2.057 . S
N395 C393 1.316 . S
N395 C394 1.375 . S
N396 C393 1.347 . S
N396 C397 1.373 . S
C397 C394 1.350 . S
C397 N396 1.373 . S
C397 H418 0.931 . S
H398 C393 0.931 . S
H399 C394 0.930 . S
C400 O407 1.259 . S
C400 O408 1.258 . S
N401 Co392 2.057 . S
N401 C402 1.316 . S
N401 C403 1.375 . S
C402 N401 1.316 . S
C402 N404 1.347 . S
C402 H413 0.931 . S
C403 N401 1.375 . S
C403 C405 1.350 . S
C403 H412 0.930 . S
N404 C402 1.347 . S
N404 C405 1.373 . S
C405 C403 1.350 . S
C405 N404 1.373 . S
C405 H419 0.931 . S
C406 O409 1.256 . S
C406 O410 1.255 . S
O407 Co390 2.021 . S
O407 C400 1.259 . S
O408 Co392 2.117 . S
O408 C400 1.258 . S
O409 Co392 2.020 . S
O409 C406 1.256 . S
O410 Co390 2.062 . S
O410 C406 1.255 . S
O411 C391 1.259 . S
O411 Co392 2.021 . S
H412 C403 0.930 . S
H413 C402 0.931 . S
O414 Co390 2.117 . S
O414 C391 1.258 . S
O415 Co390 2.020 . S
O415 C417 1.256 . S
O416 Co392 2.062 . S
O416 C417 1.255 . S
C417 O415 1.256 . S
C417 O416 1.255 . S
H418 C397 0.931 . S
H419 C405 0.931 . S
Co420 N425 2.057 . S
Co420 O437 2.021 . S
Co420 O440 2.062 . S
Co420 O444 2.117 1_556 S
Co420 O445 2.020 . S
C421 O441 1.259 . S
C421 O444 1.258 . S
Co422 N431 2.057 . S
Co422 O438 2.117 1_554 S
Co422 O439 2.020 . S
Co422 O441 2.021 . S
Co422 O446 2.062 1_554 S
C423 N425 1.316 . S
C423 N426 1.347 . S
C423 H428 0.931 . S
C424 N425 1.375 . S
C424 C427 1.350 . S
C424 H429 0.930 . S
N425 Co420 2.057 . S
N425 C423 1.316 . S
N425 C424 1.375 . S
N426 C423 1.347 . S
N426 C427 1.373 . S
C427 C424 1.350 . S
C427 N426 1.373 . S
C427 H448 0.931 . S
H428 C423 0.931 . S
H429 C424 0.930 . S
C430 O437 1.259 . S
C430 O438 1.258 . S
N431 Co422 2.057 . S
N431 C432 1.316 . S
N431 C433 1.375 . S
C432 N431 1.316 . S
C432 N434 1.347 . S
C432 H443 0.931 . S
C433 N431 1.375 . S
C433 C435 1.350 . S
C433 H442 0.930 . S
N434 C432 1.347 . S
N434 C435 1.373 . S
C435 C433 1.350 . S
C435 N434 1.373 . S
C435 H449 0.931 . S
C436 O439 1.256 . S
C436 O440 1.255 1_554 S
O437 Co420 2.021 . S
O437 C430 1.259 . S
O438 Co422 2.117 1_556 S
O438 C430 1.258 . S
O439 Co422 2.020 . S
O439 C436 1.256 . S
O440 Co420 2.062 . S
O440 C436 1.255 1_556 S
O441 C421 1.259 . S
O441 Co422 2.021 . S
H442 C433 0.930 . S
H443 C432 0.931 . S
O444 Co420 2.117 1_554 S
O444 C421 1.258 . S
O445 Co420 2.020 . S
O445 C447 1.256 . S
O446 Co422 2.062 1_556 S
O446 C447 1.255 . S
C447 O445 1.256 . S
C447 O446 1.255 . S
H448 C427 0.931 . S
H449 C435 0.931 . S
Co450 N455 2.057 . S
Co450 O467 2.021 . S
Co450 O470 2.062 . S
Co450 O474 2.117 . S
Co450 O475 2.020 . S
C451 O471 1.259 . S
C451 O474 1.258 . S
Co452 N461 2.057 . S
Co452 O468 2.117 . S
Co452 O469 2.020 . S
Co452 O471 2.021 . S
Co452 O476 2.062 . S
C453 N455 1.316 . S
C453 N456 1.347 . S
C453 H458 0.931 . S
C454 N455 1.375 . S
C454 C457 1.350 . S
C454 H459 0.930 . S
N455 Co450 2.057 . S
N455 C453 1.316 . S
N455 C454 1.375 . S
N456 C453 1.347 . S
N456 C457 1.373 . S
C457 C454 1.350 . S
C457 N456 1.373 . S
C457 H478 0.931 . S
H458 C453 0.931 . S
H459 C454 0.930 . S
C460 O467 1.259 . S
C460 O468 1.258 . S
N461 Co452 2.057 . S
N461 C462 1.316 . S
N461 C463 1.375 . S
C462 N461 1.316 . S
C462 N464 1.347 . S
C462 H473 0.931 . S
C463 N461 1.375 . S
C463 C465 1.350 . S
C463 H472 0.930 . S
N464 C462 1.347 . S
N464 C465 1.373 . S
C465 C463 1.350 . S
C465 N464 1.373 . S
C465 H479 0.931 . S
C466 O469 1.256 . S
C466 O470 1.255 . S
O467 Co450 2.021 . S
O467 C460 1.259 . S
O468 Co452 2.117 . S
O468 C460 1.258 . S
O469 Co452 2.020 . S
O469 C466 1.256 . S
O470 Co450 2.062 . S
O470 C466 1.255 . S
O471 C451 1.259 . S
O471 Co452 2.021 . S
H472 C463 0.930 . S
H473 C462 0.931 . S
O474 Co450 2.117 . S
O474 C451 1.258 . S
O475 Co450 2.020 . S
O475 C477 1.256 . S
O476 Co452 2.062 . S
O476 C477 1.255 . S
C477 O475 1.256 . S
C477 O476 1.255 . S
H478 C457 0.931 . S
H479 C465 0.931 . S
C480 C481 1.349 . S
C480 C482 1.327 . S
C480 H505 0.950 . S
C481 C480 1.349 . S
C481 C497 1.349 . S
C482 C480 1.327 . S
C482 C501 1.429 . S
C482 H506 0.950 . S
C483 C500 1.574 . S
C483 C502 1.368 . S
C483 H507 0.949 . S
H484 C488 0.949 . S
C485 C486 1.349 . S
C485 C487 1.327 . S
C485 H508 0.950 . S
C486 C485 1.349 . S
C486 C498 1.349 . S
C487 C485 1.327 . S
C487 C503 1.429 . S
C487 H509 0.950 . S
C488 H484 0.949 . S
C488 C496 1.574 . S
C488 C504 1.368 . S
H489 C497 0.950 . S
H490 C495 0.950 . S
H491 C496 0.949 . S
H492 C498 0.950 1_556 S
H493 C499 0.950 . S
H494 C500 0.949 . S
C495 H490 0.950 . S
C495 C497 1.327 . S
C495 C501 1.429 . S
C496 C488 1.574 . S
C496 H491 0.949 . S
C496 C502 1.368 . S
C497 C481 1.349 . S
C497 H489 0.950 . S
C497 C495 1.327 . S
C498 C486 1.349 . S
C498 H492 0.950 1_554 S
C498 C499 1.327 . S
C499 H493 0.950 . S
C499 C498 1.327 . S
C499 C503 1.429 . S
C500 C483 1.574 . S
C500 H494 0.949 . S
C500 C504 1.368 . S
C501 C482 1.429 . S
C501 C495 1.429 . S
C501 C502 1.523 . S
C502 C483 1.368 . S
C502 C496 1.368 . S
C502 C501 1.523 . S
C503 C487 1.429 . S
C503 C499 1.429 . S
C503 C504 1.523 . S
C504 C488 1.368 . S
C504 C500 1.368 . S
C504 C503 1.523 . S
H505 C480 0.950 . S
H506 C482 0.950 . S
H507 C483 0.949 . S
H508 C485 0.950 . S
H509 C487 0.950 . S
C510 C511 1.349 . S
C510 C512 1.327 . S
C510 H535 0.950 . S
C511 C510 1.349 . S
C511 C527 1.349 . S
C512 C510 1.327 . S
C512 C531 1.429 . S
C512 H536 0.950 . S
C513 C530 1.574 . S
C513 C532 1.368 . S
C513 H537 0.949 . S
H514 C518 0.949 . S
C515 C516 1.349 . S
C515 C517 1.327 . S
C515 H538 0.950 . S
C516 C515 1.349 . S
C516 C528 1.349 . S
C517 C515 1.327 . S
C517 C533 1.429 . S
C517 H539 0.950 . S
C518 H514 0.949 . S
C518 C526 1.574 . S
C518 C534 1.368 . S
H519 C527 0.950 . S
H520 C525 0.950 . S
H521 C526 0.949 . S
H522 C528 0.950 . S
H523 C529 0.950 . S
H524 C530 0.949 . S
C525 H520 0.950 . S
C525 C527 1.327 . S
C525 C531 1.429 . S
C526 C518 1.574 . S
C526 H521 0.949 . S
C526 C532 1.368 . S
C527 C511 1.349 . S
C527 H519 0.950 . S
C527 C525 1.327 . S
C528 C516 1.349 . S
C528 H522 0.950 . S
C528 C529 1.327 . S
C529 H523 0.950 . S
C529 C528 1.327 . S
C529 C533 1.429 . S
C530 C513 1.574 . S
C530 H524 0.949 . S
C530 C534 1.368 . S
C531 C512 1.429 . S
C531 C525 1.429 . S
C531 C532 1.523 . S
C532 C513 1.368 . S
C532 C526 1.368 . S
C532 C531 1.523 . S
C533 C517 1.429 . S
C533 C529 1.429 . S
C533 C534 1.523 . S
C534 C518 1.368 . S
C534 C530 1.368 . S
C534 C533 1.523 . S
H535 C510 0.950 . S
H536 C512 0.950 . S
H537 C513 0.949 . S
H538 C515 0.950 . S
H539 C517 0.950 . S
C540 C541 1.349 . S
C540 C542 1.327 . S
C540 H565 0.950 . S
C541 C540 1.349 . S
C541 C557 1.349 . S
C542 C540 1.327 . S
C542 C561 1.429 . S
C542 H566 0.950 . S
C543 C560 1.574 . S
C543 C562 1.368 . S
C543 H567 0.949 . S
H544 C548 0.949 1_655 S
C545 C546 1.349 . S
C545 C547 1.327 . S
C545 H568 0.950 . S
C546 C545 1.349 . S
C546 C558 1.349 . S
C547 C545 1.327 . S
C547 C563 1.429 . S
C547 H569 0.950 . S
C548 H544 0.949 1_455 S
C548 C556 1.574 . S
C548 C564 1.368 . S
H549 C557 0.950 . S
H550 C555 0.950 . S
H551 C556 0.949 . S
H552 C558 0.950 . S
H553 C559 0.950 . S
H554 C560 0.949 . S
C555 H550 0.950 . S
C555 C557 1.327 . S
C555 C561 1.429 . S
C556 C548 1.574 . S
C556 H551 0.949 . S
C556 C562 1.368 . S
C557 C541 1.349 . S
C557 H549 0.950 . S
C557 C555 1.327 . S
C558 C546 1.349 . S
C558 H552 0.950 . S
C558 C559 1.327 . S
C559 H553 0.950 . S
C559 C558 1.327 . S
C559 C563 1.429 . S
C560 C543 1.574 . S
C560 H554 0.949 . S
C560 C564 1.368 . S
C561 C542 1.429 . S
C561 C555 1.429 . S
C561 C562 1.523 . S
C562 C543 1.368 . S
C562 C556 1.368 . S
C562 C561 1.523 . S
C563 C547 1.429 . S
C563 C559 1.429 . S
C563 C564 1.523 1_655 S
C564 C548 1.368 . S
C564 C560 1.368 . S
C564 C563 1.523 1_455 S
H565 C540 0.950 . S
H566 C542 0.950 . S
H567 C543 0.949 . S
H568 C545 0.950 . S
H569 C547 0.950 . S
C570 C571 1.349 . S
C570 C572 1.327 . S
C570 H595 0.950 . S
C571 C570 1.349 . S
C571 C587 1.349 . S
C572 C570 1.327 . S
C572 C591 1.429 . S
C572 H596 0.950 . S
C573 C590 1.574 . S
C573 C592 1.368 . S
C573 H597 0.949 . S
H574 C578 0.949 . S
C575 C576 1.349 . S
C575 C577 1.327 . S
C575 H598 0.950 . S
C576 C575 1.349 . S
C576 C588 1.349 . S
C577 C575 1.327 . S
C577 C593 1.429 . S
C577 H599 0.937 1_455 S
C578 H574 0.949 . S
C578 C586 1.574 1_455 S
C578 C594 1.368 . S
H579 C587 0.950 . S
H580 C585 0.950 . S
H581 C586 0.949 . S
H582 C588 0.950 . S
H583 C589 0.950 . S
H584 C590 0.949 . S
C585 H580 0.950 . S
C585 C587 1.327 . S
C585 C591 1.429 . S
C586 C578 1.574 1_655 S
C586 H581 0.949 . S
C586 C592 1.368 . S
C587 C571 1.349 . S
C587 H579 0.950 . S
C587 C585 1.327 . S
C588 C576 1.349 . S
C588 H582 0.950 . S
C588 C589 1.327 . S
C589 H583 0.950 . S
C589 C588 1.327 . S
C589 C593 1.429 . S
C590 C573 1.574 . S
C590 H584 0.949 . S
C590 C594 1.368 1_655 S
C591 C572 1.429 . S
C591 C585 1.429 . S
C591 C592 1.523 . S
C592 C573 1.368 . S
C592 C586 1.368 . S
C592 C591 1.523 . S
C593 C577 1.429 . S
C593 C589 1.429 . S
C593 C594 1.523 . S
C594 C578 1.368 . S
C594 C590 1.368 1_455 S
C594 C593 1.523 . S
H595 C570 0.950 . S
H596 C572 0.950 . S
H597 C573 0.949 . S
H598 C575 0.950 . S
H599 C577 0.937 1_655 S
C600 C601 1.349 . S
C600 C602 1.327 . S
C600 H625 0.950 . S
C601 C600 1.349 . S
C601 C617 1.349 . S
C602 C600 1.327 . S
C602 C621 1.429 . S
C602 H626 0.950 . S
C603 C620 1.574 . S
C603 C622 1.368 . S
C603 H627 0.949 . S
H604 C608 0.949 . S
C605 C606 1.349 . S
C605 C607 1.327 . S
C605 H628 0.950 . S
C606 C605 1.349 . S
C606 C618 1.349 . S
C607 C605 1.327 . S
C607 C623 1.429 . S
C607 H629 0.950 . S
C608 H604 0.949 . S
C608 C616 1.574 . S
C608 C624 1.368 . S
H609 C617 0.950 . S
H610 C615 0.950 . S
H611 C616 0.949 . S
H612 C618 0.950 . S
H613 C619 0.950 . S
H614 C620 0.949 . S
C615 H610 0.950 . S
C615 C617 1.327 . S
C615 C621 1.429 . S
C616 C608 1.574 . S
C616 H611 0.949 . S
C616 C622 1.368 . S
C617 C601 1.349 . S
C617 H609 0.950 . S
C617 C615 1.327 . S
C618 C606 1.349 . S
C618 H612 0.950 . S
C618 C619 1.327 . S
C619 H613 0.950 . S
C619 C618 1.327 . S
C619 C623 1.429 . S
C620 C603 1.574 . S
C620 H614 0.949 . S
C620 C624 1.368 . S
C621 C602 1.429 . S
C621 C615 1.429 . S
C621 C622 1.523 . S
C622 C603 1.368 . S
C622 C616 1.368 . S
C622 C621 1.523 . S
C623 C607 1.429 . S
C623 C619 1.429 . S
C623 C624 1.523 . S
C624 C608 1.368 . S
C624 C620 1.368 . S
C624 C623 1.523 . S
H625 C600 0.950 . S
H626 C602 0.950 . S
H627 C603 0.949 . S
H628 C605 0.950 . S
H629 C607 0.950 . S
C630 C631 1.349 . S
C630 C632 1.327 . S
C630 H655 0.950 . S
C631 C630 1.349 . S
C631 C647 1.349 . S
C632 C630 1.327 . S
C632 C651 1.429 . S
C632 H656 0.950 . S
C633 C650 1.574 . S
C633 C652 1.368 . S
C633 H657 0.949 . S
H634 C638 0.949 . S
C635 C636 1.349 . S
C635 C637 1.327 . S
C635 H658 0.950 . S
C636 C635 1.349 . S
C636 C648 1.349 . S
C637 C635 1.327 . S
C637 C653 1.429 . S
C637 H659 0.950 . S
C638 H634 0.949 . S
C638 C646 1.574 . S
C638 C654 1.368 . S
H639 C647 0.950 . S
H640 C645 0.950 . S
H641 C646 0.949 . S
H642 C648 0.950 . S
H643 C649 0.950 . S
H644 C650 0.949 . S
C645 H640 0.950 . S
C645 C647 1.327 . S
C645 C651 1.429 . S
C646 C638 1.574 . S
C646 H641 0.949 . S
C646 C652 1.368 . S
C647 C631 1.349 . S
C647 H639 0.950 . S
C647 C645 1.327 . S
C648 C636 1.349 . S
C648 H642 0.950 . S
C648 C649 1.327 . S
C649 H643 0.950 . S
C649 C648 1.327 . S
C649 C653 1.429 . S
C650 C633 1.574 . S
C650 H644 0.949 . S
C650 C654 1.368 . S
C651 C632 1.429 . S
C651 C645 1.429 . S
C651 C652 1.523 . S
C652 C633 1.368 . S
C652 C646 1.368 . S
C652 C651 1.523 . S
C653 C637 1.429 . S
C653 C649 1.429 . S
C653 C654 1.523 . S
C654 C638 1.368 . S
C654 C650 1.368 . S
C654 C653 1.523 . S
H655 C630 0.950 . S
H656 C632 0.950 . S
H657 C633 0.949 . S
H658 C635 0.950 . S
H659 C637 0.950 . S
C660 C661 1.349 . S
C660 C662 1.327 . S
C660 H685 0.950 . S
C661 C660 1.349 . S
C661 C677 1.349 . S
C662 C660 1.327 . S
C662 C681 1.429 . S
C662 H686 0.950 . S
C663 C680 1.574 . S
C663 C682 1.368 . S
C663 H687 0.949 . S
H664 C668 0.949 1_455 S
C665 C666 1.349 . S
C665 C667 1.327 . S
C665 H688 0.950 . S
C666 C665 1.349 . S
C666 C678 1.349 . S
C667 C665 1.327 . S
C667 C683 1.429 . S
C667 H689 0.950 . S
C668 H664 0.949 1_655 S
C668 C676 1.574 . S
C668 C684 1.368 . S
H669 C677 0.950 . S
H670 C675 0.950 . S
H671 C676 0.949 . S
H672 C678 0.950 . S
H673 C679 0.950 . S
H674 C680 0.949 . S
C675 H670 0.950 . S
C675 C677 1.327 . S
C675 C681 1.429 . S
C676 C668 1.574 . S
C676 H671 0.949 . S
C676 C682 1.368 . S
C677 C661 1.349 . S
C677 H669 0.950 . S
C677 C675 1.327 . S
C678 C666 1.349 . S
C678 H672 0.950 . S
C678 C679 1.327 . S
C679 H673 0.950 . S
C679 C678 1.327 . S
C679 C683 1.429 . S
C680 C663 1.574 . S
C680 H674 0.949 . S
C680 C684 1.368 . S
C681 C662 1.429 . S
C681 C675 1.429 . S
C681 C682 1.523 . S
C682 C663 1.368 . S
C682 C676 1.368 . S
C682 C681 1.523 . S
C683 C667 1.429 . S
C683 C679 1.429 . S
C683 C684 1.523 1_455 S
C684 C668 1.368 . S
C684 C680 1.368 . S
C684 C683 1.523 1_655 S
H685 C660 0.950 . S
H686 C662 0.950 . S
H687 C663 0.949 . S
H688 C665 0.950 . S
H689 C667 0.950 . S
C690 C691 1.349 . S
C690 C692 1.327 . S
C690 H715 0.950 . S
C691 C690 1.349 . S
C691 C707 1.349 . S
C692 C690 1.327 . S
C692 C711 1.429 . S
C692 H716 0.950 . S
C693 C710 1.574 . S
C693 C712 1.368 . S
C693 H717 0.949 . S
H694 C698 0.949 . S
C695 C696 1.349 . S
C695 C697 1.327 . S
C695 H718 0.950 . S
C696 C695 1.349 . S
C696 C708 1.349 . S
C697 C695 1.327 . S
C697 C713 1.429 . S
C697 H719 0.950 . S
C698 H694 0.949 . S
C698 C706 1.574 1_655 S
C698 C714 1.368 . S
H699 C707 0.950 . S
H700 C705 0.950 . S
H701 C706 0.949 . S
H702 C708 0.950 . S
H703 C709 0.950 . S
H704 C710 0.949 . S
C705 H700 0.950 . S
C705 C707 1.327 . S
C705 C711 1.429 . S
C706 C698 1.574 1_455 S
C706 H701 0.949 . S
C706 C712 1.368 . S
C707 C691 1.349 . S
C707 H699 0.950 . S
C707 C705 1.327 . S
C708 C696 1.349 . S
C708 H702 0.950 . S
C708 C709 1.327 . S
C709 H703 0.950 . S
C709 C708 1.327 . S
C709 C713 1.429 . S
C710 C693 1.574 . S
C710 H704 0.949 . S
C710 C714 1.368 1_455 S
C711 C692 1.429 . S
C711 C705 1.429 . S
C711 C712 1.523 . S
C712 C693 1.368 . S
C712 C706 1.368 . S
C712 C711 1.523 . S
C713 C697 1.429 . S
C713 C709 1.429 . S
C713 C714 1.523 . S
C714 C698 1.368 . S
C714 C710 1.368 1_655 S
C714 C713 1.523 . S
H715 C690 0.950 . S
H716 C692 0.950 . S
H717 C693 0.949 . S
H718 C695 0.950 . S
H719 C697 0.950 . S
C720 C721 1.349 . S
C720 C722 1.327 . S
C720 H745 0.950 . S
C721 C720 1.349 . S
C721 C737 1.349 . S
C722 C720 1.327 . S
C722 C741 1.429 . S
C722 H746 0.950 . S
C723 C740 1.574 . S
C723 C742 1.368 . S
C723 H747 0.949 . S
H724 C728 0.949 . S
C725 C726 1.349 . S
C725 C727 1.327 . S
C725 H748 0.950 . S
C726 C725 1.349 . S
C726 C738 1.349 . S
C727 C725 1.327 . S
C727 C743 1.429 . S
C727 H749 0.950 . S
C728 H724 0.949 . S
C728 C736 1.574 . S
C728 C744 1.368 . S
H729 C737 0.950 . S
H730 C735 0.950 . S
H731 C736 0.949 . S
H732 C738 0.950 . S
H733 C739 0.950 . S
H734 C740 0.949 . S
C735 H730 0.950 . S
C735 C737 1.327 . S
C735 C741 1.429 . S
C736 C728 1.574 . S
C736 H731 0.949 . S
C736 C742 1.368 . S
C737 C721 1.349 . S
C737 H729 0.950 . S
C737 C735 1.327 . S
C738 C726 1.349 . S
C738 H732 0.950 . S
C738 C739 1.327 . S
C739 H733 0.950 . S
C739 C738 1.327 . S
C739 C743 1.429 . S
C740 C723 1.574 . S
C740 H734 0.949 . S
C740 C744 1.368 . S
C741 C722 1.429 . S
C741 C735 1.429 . S
C741 C742 1.523 . S
C742 C723 1.368 . S
C742 C736 1.368 . S
C742 C741 1.523 . S
C743 C727 1.429 . S
C743 C739 1.429 . S
C743 C744 1.523 . S
C744 C728 1.368 . S
C744 C740 1.368 . S
C744 C743 1.523 . S
H745 C720 0.950 . S
H746 C722 0.950 . S
H747 C723 0.949 . S
H748 C725 0.950 . S
H749 C727 0.950 . S
C750 C751 1.349 . S
C750 C752 1.327 . S
C750 H775 0.950 . S
C751 C750 1.349 . S
C751 C767 1.349 . S
C752 C750 1.327 . S
C752 C771 1.429 . S
C752 H776 0.950 . S
C753 C770 1.574 . S
C753 C772 1.368 . S
C753 H777 0.949 . S
H754 C758 0.949 . S
C755 C756 1.349 . S
C755 C757 1.327 . S
C755 H778 0.950 . S
C756 C755 1.349 . S
C756 C768 1.349 . S
C757 C755 1.327 . S
C757 C773 1.429 . S
C757 H779 0.950 . S
C758 H754 0.949 . S
C758 C766 1.574 . S
C758 C774 1.368 . S
H759 C767 0.950 . S
H760 C765 0.950 . S
H761 C766 0.949 . S
H762 C768 0.950 . S
H763 C769 0.950 . S
H764 C770 0.949 . S
C765 H760 0.950 . S
C765 C767 1.327 . S
C765 C771 1.429 . S
C766 C758 1.574 . S
C766 H761 0.949 . S
C766 C772 1.368 . S
C767 C751 1.349 . S
C767 H759 0.950 . S
C767 C765 1.327 . S
C768 C756 1.349 . S
C768 H762 0.950 . S
C768 C769 1.327 . S
C769 H763 0.950 . S
C769 C768 1.327 . S
C769 C773 1.429 . S
C770 C753 1.574 . S
C770 H764 0.949 . S
C770 C774 1.368 . S
C771 C752 1.429 . S
C771 C765 1.429 . S
C771 C772 1.523 . S
C772 C753 1.368 . S
C772 C766 1.368 . S
C772 C771 1.523 . S
C773 C757 1.429 . S
C773 C769 1.429 . S
C773 C774 1.523 . S
C774 C758 1.368 . S
C774 C770 1.368 . S
C774 C773 1.523 . S
H775 C750 0.950 . S
H776 C752 0.950 . S
H777 C753 0.949 . S
H778 C755 0.950 . S
H779 C757 0.950 . S
C780 C781 1.349 . S
C780 C782 1.327 . S
C780 H805 0.950 . S
C781 C780 1.349 . S
C781 C797 1.349 . S
C782 C780 1.327 . S
C782 C801 1.429 . S
C782 H806 0.950 . S
C783 C800 1.574 . S
C783 C802 1.368 . S
C783 H807 0.949 . S
H784 C788 0.949 . S
C785 C786 1.349 . S
C785 C787 1.327 . S
C785 H808 0.950 . S
C786 C785 1.349 . S
C786 C798 1.349 . S
C787 C785 1.327 . S
C787 C803 1.429 . S
C787 H809 0.950 . S
C788 H784 0.949 . S
C788 C796 1.574 . S
C788 C804 1.368 . S
H789 C797 0.950 . S
H790 C795 0.950 . S
H791 C796 0.949 . S
H792 C798 0.950 . S
H793 C799 0.950 . S
H794 C800 0.949 . S
C795 H790 0.950 . S
C795 C797 1.327 . S
C795 C801 1.429 . S
C796 C788 1.574 . S
C796 H791 0.949 . S
C796 C802 1.368 . S
C797 C781 1.349 . S
C797 H789 0.950 . S
C797 C795 1.327 . S
C798 C786 1.349 . S
C798 H792 0.950 . S
C798 C799 1.327 . S
C799 H793 0.950 . S
C799 C798 1.327 . S
C799 C803 1.429 . S
C800 C783 1.574 . S
C800 H794 0.949 . S
C800 C804 1.368 . S
C801 C782 1.429 . S
C801 C795 1.429 . S
C801 C802 1.523 . S
C802 C783 1.368 . S
C802 C796 1.368 . S
C802 C801 1.523 . S
C803 C787 1.429 . S
C803 C799 1.429 . S
C803 C804 1.523 . S
C804 C788 1.368 . S
C804 C800 1.368 . S
C804 C803 1.523 . S
H805 C780 0.950 . S
H806 C782 0.950 . S
H807 C783 0.949 . S
H808 C785 0.950 . S
H809 C787 0.950 . S
C810 C811 1.349 . S
C810 C812 1.327 . S
C810 H835 0.950 . S
C811 C810 1.349 . S
C811 C827 1.349 . S
C812 C810 1.327 . S
C812 C831 1.429 . S
C812 H836 0.950 . S
C813 C830 1.574 . S
C813 C832 1.368 . S
C813 H837 0.949 . S
H814 C818 0.949 . S
C815 C816 1.349 . S
C815 C817 1.327 . S
C815 H838 0.950 . S
C816 C815 1.349 . S
C816 C828 1.349 . S
C817 C815 1.327 . S
C817 C833 1.429 . S
C817 H839 0.950 . S
C818 H814 0.949 . S
C818 C826 1.574 . S
C818 C834 1.368 . S
H819 C827 0.950 . S
H820 C825 0.950 . S
H821 C826 0.949 . S
H822 C828 0.950 . S
H823 C829 0.950 . S
H824 C830 0.949 . S
C825 H820 0.950 . S
C825 C827 1.327 . S
C825 C831 1.429 . S
C826 C818 1.574 . S
C826 H821 0.949 . S
C826 C832 1.368 . S
C827 C811 1.349 . S
C827 H819 0.950 . S
C827 C825 1.327 . S
C828 C816 1.349 . S
C828 H822 0.950 . S
C828 C829 1.327 . S
C829 H823 0.950 . S
C829 C828 1.327 . S
C829 C833 1.429 . S
C830 C813 1.574 . S
C830 H824 0.949 . S
C830 C834 1.368 . S
C831 C812 1.429 . S
C831 C825 1.429 . S
C831 C832 1.523 . S
C832 C813 1.368 . S
C832 C826 1.368 . S
C832 C831 1.523 . S
C833 C817 1.429 . S
C833 C829 1.429 . S
C833 C834 1.523 . S
C834 C818 1.368 . S
C834 C830 1.368 . S
C834 C833 1.523 . S
H835 C810 0.950 . S
H836 C812 0.950 . S
H837 C813 0.949 . S
H838 C815 0.950 . S
H839 C817 0.950 . S
C840 C841 1.349 . S
C840 C842 1.327 . S
C840 H865 0.950 1_554 S
C841 C840 1.349 . S
C841 C857 1.349 . S
C842 C840 1.327 . S
C842 C861 1.429 . S
C842 H866 0.950 . S
C843 C860 1.574 . S
C843 C862 1.368 . S
C843 H867 0.949 . S
H844 C848 0.949 . S
C845 C846 1.349 . S
C845 C847 1.327 . S
C845 H868 0.950 . S
C846 C845 1.349 . S
C846 C858 1.349 . S
C847 C845 1.327 . S
C847 C863 1.429 . S
C847 H869 0.950 . S
C848 H844 0.949 . S
C848 C856 1.574 . S
C848 C864 1.368 . S
H849 C857 0.950 . S
H850 C855 0.950 . S
H851 C856 0.949 . S
H852 C858 0.950 . S
H853 C859 0.950 . S
H854 C860 0.949 . S
C855 H850 0.950 . S
C855 C857 1.327 . S
C855 C861 1.429 . S
C856 C848 1.574 . S
C856 H851 0.949 . S
C856 C862 1.368 . S
C857 C841 1.349 . S
C857 H849 0.950 . S
C857 C855 1.327 . S
C858 C846 1.349 . S
C858 H852 0.950 . S
C858 C859 1.327 . S
C859 H853 0.950 . S
C859 C858 1.327 . S
C859 C863 1.429 . S
C860 C843 1.574 . S
C860 H854 0.949 . S
C860 C864 1.368 . S
C861 C842 1.429 . S
C861 C855 1.429 . S
C861 C862 1.523 . S
C862 C843 1.368 . S
C862 C856 1.368 . S
C862 C861 1.523 . S
C863 C847 1.429 . S
C863 C859 1.429 . S
C863 C864 1.523 . S
C864 C848 1.368 . S
C864 C860 1.368 . S
C864 C863 1.523 . S
H865 C840 0.950 1_556 S
H866 C842 0.950 . S
H867 C843 0.949 . S
H868 C845 0.950 . S
H869 C847 0.950 . S
C870 C871 1.349 . S
C870 C872 1.327 . S
C870 H895 0.950 . S
C871 C870 1.349 . S
C871 C887 1.349 . S
C872 C870 1.327 . S
C872 C891 1.429 . S
C872 H896 0.950 . S
C873 C890 1.574 . S
C873 C892 1.368 . S
C873 H897 0.949 . S
H874 C878 0.949 . S
C875 C876 1.349 . S
C875 C877 1.327 . S
C875 H898 0.950 . S
C876 C875 1.349 . S
C876 C888 1.349 . S
C877 C875 1.327 . S
C877 C893 1.429 . S
C877 H899 0.950 . S
C878 H874 0.949 . S
C878 C886 1.574 . S
C878 C894 1.368 . S
H879 C887 0.950 . S
H880 C885 0.950 . S
H881 C886 0.949 . S
H882 C888 0.950 . S
H883 C889 0.950 . S
H884 C890 0.949 . S
C885 H880 0.950 . S
C885 C887 1.327 . S
C885 C891 1.429 . S
C886 C878 1.574 . S
C886 H881 0.949 . S
C886 C892 1.368 . S
C887 C871 1.349 . S
C887 H879 0.950 . S
C887 C885 1.327 . S
C888 C876 1.349 . S
C888 H882 0.950 . S
C888 C889 1.327 . S
C889 H883 0.950 . S
C889 C888 1.327 . S
C889 C893 1.429 . S
C890 C873 1.574 . S
C890 H884 0.949 . S
C890 C894 1.368 . S
C891 C872 1.429 . S
C891 C885 1.429 . S
C891 C892 1.523 . S
C892 C873 1.368 . S
C892 C886 1.368 . S
C892 C891 1.523 . S
C893 C877 1.429 . S
C893 C889 1.429 . S
C893 C894 1.523 . S
C894 C878 1.368 . S
C894 C890 1.368 . S
C894 C893 1.523 . S
H895 C870 0.950 . S
H896 C872 0.950 . S
H897 C873 0.949 . S
H898 C875 0.950 . S
H899 C877 0.950 . S
C900 C901 1.349 . S
C900 C902 1.327 . S
C900 H925 0.950 . S
C901 C900 1.349 . S
C901 C917 1.349 . S
C902 C900 1.327 . S
C902 C921 1.429 . S
C902 H926 0.950 . S
C903 C920 1.574 . S
C903 C922 1.368 . S
C903 H927 0.949 . S
H904 C908 0.949 . S
C905 C906 1.349 . S
C905 C907 1.327 . S
C905 H928 0.950 . S
C906 C905 1.349 . S
C906 C918 1.349 . S
C907 C905 1.327 . S
C907 C923 1.429 . S
C907 H929 0.950 . S
C908 H904 0.949 . S
C908 C916 1.574 . S
C908 C924 1.368 . S
H909 C917 0.950 . S
H910 C915 0.950 . S
H911 C916 0.949 . S
H912 C918 0.950 . S
H913 C919 0.950 . S
H914 C920 0.949 . S
C915 H910 0.950 . S
C915 C917 1.327 . S
C915 C921 1.429 . S
C916 C908 1.574 . S
C916 H911 0.949 . S
C916 C922 1.368 . S
C917 C901 1.349 . S
C917 H909 0.950 . S
C917 C915 1.327 . S
C918 C906 1.349 . S
C918 H912 0.950 . S
C918 C919 1.327 . S
C919 H913 0.950 . S
C919 C918 1.327 . S
C919 C923 1.429 . S
C920 C903 1.574 . S
C920 H914 0.949 . S
C920 C924 1.368 . S
C921 C902 1.429 . S
C921 C915 1.429 . S
C921 C922 1.523 . S
C922 C903 1.368 . S
C922 C916 1.368 . S
C922 C921 1.523 . S
C923 C907 1.429 . S
C923 C919 1.429 . S
C923 C924 1.523 . S
C924 C908 1.368 . S
C924 C920 1.368 . S
C924 C923 1.523 . S
H925 C900 0.950 . S
H926 C902 0.950 . S
H927 C903 0.949 . S
H928 C905 0.950 . S
H929 C907 0.950 . S
C930 C931 1.349 . S
C930 C932 1.327 . S
C930 H955 0.950 . S
C931 C930 1.349 . S
C931 C947 1.349 . S
C932 C930 1.327 . S
C932 C951 1.429 . S
C932 H956 0.950 . S
C933 C950 1.574 . S
C933 C952 1.368 . S
C933 H957 0.949 . S
H934 C938 0.949 . S
C935 C936 1.349 . S
C935 C937 1.327 . S
C935 H958 0.950 . S
C936 C935 1.349 . S
C936 C948 1.349 . S
C937 C935 1.327 . S
C937 C953 1.429 . S
C937 H959 0.950 . S
C938 H934 0.949 . S
C938 C946 1.574 . S
C938 C954 1.368 . S
H939 C947 0.950 . S
H940 C945 0.950 . S
H941 C946 0.949 . S
H942 C948 0.950 . S
H943 C949 0.950 . S
H944 C950 0.949 . S
C945 H940 0.950 . S
C945 C947 1.327 . S
C945 C951 1.429 . S
C946 C938 1.574 . S
C946 H941 0.949 . S
C946 C952 1.368 . S
C947 C931 1.349 . S
C947 H939 0.950 . S
C947 C945 1.327 . S
C948 C936 1.349 . S
C948 H942 0.950 . S
C948 C949 1.327 . S
C949 H943 0.950 . S
C949 C948 1.327 . S
C949 C953 1.429 . S
C950 C933 1.574 . S
C950 H944 0.949 . S
C950 C954 1.368 . S
C951 C932 1.429 . S
C951 C945 1.429 . S
C951 C952 1.523 . S
C952 C933 1.368 . S
C952 C946 1.368 . S
C952 C951 1.523 . S
C953 C937 1.429 . S
C953 C949 1.429 . S
C953 C954 1.523 . S
C954 C938 1.368 . S
C954 C950 1.368 . S
C954 C953 1.523 . S
H955 C930 0.950 . S
H956 C932 0.950 . S
H957 C933 0.949 . S
H958 C935 0.950 . S
H959 C937 0.950 . S
C960 C961 1.349 . S
C960 C962 1.327 . S
C960 H985 0.950 . S
C961 C960 1.349 . S
C961 C977 1.349 . S
C962 C960 1.327 . S
C962 C981 1.429 . S
C962 H986 0.950 . S
C963 C980 1.574 . S
C963 C982 1.368 . S
C963 H987 0.949 . S
H964 C968 0.949 . S
C965 C966 1.349 . S
C965 C967 1.327 . S
C965 H988 0.950 . S
C966 C965 1.349 . S
C966 C978 1.349 . S
C967 C965 1.327 . S
C967 C983 1.429 . S
C967 H989 0.950 . S
C968 H964 0.949 . S
C968 C976 1.574 . S
C968 C984 1.368 . S
H969 C977 0.950 . S
H970 C975 0.950 . S
H971 C976 0.949 . S
H972 C978 0.950 . S
H973 C979 0.950 . S
H974 C980 0.949 . S
C975 H970 0.950 . S
C975 C977 1.327 . S
C975 C981 1.429 . S
C976 C968 1.574 . S
C976 H971 0.949 . S
C976 C982 1.368 . S
C977 C961 1.349 . S
C977 H969 0.950 . S
C977 C975 1.327 . S
C978 C966 1.349 . S
C978 H972 0.950 . S
C978 C979 1.327 . S
C979 H973 0.950 . S
C979 C978 1.327 . S
C979 C983 1.429 . S
C980 C963 1.574 . S
C980 H974 0.949 . S
C980 C984 1.368 . S
C981 C962 1.429 . S
C981 C975 1.429 . S
C981 C982 1.523 . S
C982 C963 1.368 . S
C982 C976 1.368 . S
C982 C981 1.523 . S
C983 C967 1.429 . S
C983 C979 1.429 . S
C983 C984 1.523 . S
C984 C968 1.368 . S
C984 C980 1.368 . S
C984 C983 1.523 . S
H985 C960 0.950 . S
H986 C962 0.950 . S
H987 C963 0.949 . S
H988 C965 0.950 . S
H989 C967 0.950 . S
C990 C991 1.349 . S
C990 C992 1.327 1_545 S
C990 H1015 0.950 . S
C991 C990 1.349 . S
C991 C1007 1.349 1_545 S
C992 C990 1.327 1_565 S
C992 C1011 1.429 . S
C992 H1016 0.958 . S
C993 C1010 1.574 . S
C993 C1012 1.368 . S
C993 H1017 0.949 . S
H994 C998 0.949 . S
C995 C996 1.349 . S
C995 C997 1.327 . S
C995 H1018 0.950 . S
C996 C995 1.349 . S
C996 C1008 1.349 . S
C997 C995 1.327 . S
C997 C1013 1.429 . S
C997 H1019 0.950 . S
C998 H994 0.949 . S
C998 C1006 1.574 . S
C998 C1014 1.368 . S
H999 C1007 0.950 . S
H1000 C1005 0.950 . S
H1001 C1006 0.949 . S
H1002 C1008 0.950 . S
H1003 C1009 0.950 . S
H1004 C1010 0.949 . S
C1005 H1000 0.950 . S
C1005 C1007 1.327 . S
C1005 C1011 1.429 . S
C1006 C998 1.574 . S
C1006 H1001 0.949 . S
C1006 C1012 1.368 . S
C1007 C991 1.349 1_565 S
C1007 H999 0.950 . S
C1007 C1005 1.327 . S
C1008 C996 1.349 . S
C1008 H1002 0.950 . S
C1008 C1009 1.327 . S
C1009 H1003 0.950 . S
C1009 C1008 1.327 . S
C1009 C1013 1.429 . S
C1010 C993 1.574 . S
C1010 H1004 0.949 . S
C1010 C1014 1.368 . S
C1011 C992 1.429 . S
C1011 C1005 1.429 . S
C1011 C1012 1.523 . S
C1012 C993 1.368 . S
C1012 C1006 1.368 . S
C1012 C1011 1.523 . S
C1013 C997 1.429 . S
C1013 C1009 1.429 . S
C1013 C1014 1.523 . S
C1014 C998 1.368 . S
C1014 C1010 1.368 . S
C1014 C1013 1.523 . S
H1015 C990 0.950 . S
H1016 C992 0.958 . S
H1017 C993 0.949 . S
H1018 C995 0.950 . S
H1019 C997 0.950 . S
C1020 C1021 1.349 . S
C1020 C1022 1.327 . S
C1020 H1045 0.950 . S
C1021 C1020 1.349 . S
C1021 C1037 1.349 1_556 S
C1022 C1020 1.327 . S
C1022 C1041 1.429 . S
C1022 H1046 0.950 . S
C1023 C1040 1.574 . S
C1023 C1042 1.368 . S
C1023 H1047 0.949 . S
H1024 C1028 0.949 . S
C1025 C1026 1.349 . S
C1025 C1027 1.327 . S
C1025 H1048 0.950 . S
C1026 C1025 1.349 . S
C1026 C1038 1.349 . S
C1027 C1025 1.327 . S
C1027 C1043 1.429 . S
C1027 H1049 0.950 . S
C1028 H1024 0.949 . S
C1028 C1036 1.574 . S
C1028 C1044 1.368 . S
H1029 C1037 0.950 . S
H1030 C1035 0.950 1_554 S
H1031 C1036 0.949 . S
H1032 C1038 0.950 . S
H1033 C1039 0.950 . S
H1034 C1040 0.949 . S
C1035 H1030 0.950 1_556 S
C1035 C1037 1.327 1_556 S
C1035 C1041 1.429 . S
C1036 C1028 1.574 . S
C1036 H1031 0.949 . S
C1036 C1042 1.368 . S
C1037 C1021 1.349 1_554 S
C1037 H1029 0.950 . S
C1037 C1035 1.327 1_554 S
C1038 C1026 1.349 . S
C1038 H1032 0.950 . S
C1038 C1039 1.327 . S
C1039 H1033 0.950 . S
C1039 C1038 1.327 . S
C1039 C1043 1.429 . S
C1040 C1023 1.574 . S
C1040 H1034 0.949 . S
C1040 C1044 1.368 . S
C1041 C1022 1.429 . S
C1041 C1035 1.429 . S
C1041 C1042 1.523 . S
C1042 C1023 1.368 . S
C1042 C1036 1.368 . S
C1042 C1041 1.523 . S
C1043 C1027 1.429 . S
C1043 C1039 1.429 . S
C1043 C1044 1.523 . S
C1044 C1028 1.368 . S
C1044 C1040 1.368 . S
C1044 C1043 1.523 . S
H1045 C1020 0.950 . S
H1046 C1022 0.950 . S
H1047 C1023 0.949 . S
H1048 C1025 0.950 . S
H1049 C1027 0.950 . S
C1050 C1051 1.349 . S
C1050 C1052 1.327 1_565 S
C1050 H1075 0.950 . S
C1051 C1050 1.349 . S
C1051 C1067 1.349 1_565 S
C1052 C1050 1.327 1_545 S
C1052 C1071 1.429 . S
C1052 H1076 0.950 . S
C1053 C1070 1.574 . S
C1053 C1072 1.368 . S
C1053 H1077 0.949 . S
H1054 C1058 0.949 . S
C1055 C1056 1.349 . S
C1055 C1057 1.327 . S
C1055 H1078 0.950 . S
C1056 C1055 1.349 . S
C1056 C1068 1.349 . S
C1057 C1055 1.327 . S
C1057 C1073 1.429 . S
C1057 H1079 0.950 . S
C1058 H1054 0.949 . S
C1058 C1066 1.574 . S
C1058 C1074 1.368 . S
H1059 C1067 0.950 . S
H1060 C1065 0.950 . S
H1061 C1066 0.949 . S
H1062 C1068 0.950 . S
H1063 C1069 0.950 . S
H1064 C1070 0.949 . S
C1065 H1060 0.950 . S
C1065 C1067 1.327 . S
C1065 C1071 1.429 . S
C1066 C1058 1.574 . S
C1066 H1061 0.949 . S
C1066 C1072 1.368 . S
C1067 C1051 1.349 1_545 S
C1067 H1059 0.950 . S
C1067 C1065 1.327 . S
C1068 C1056 1.349 . S
C1068 H1062 0.950 . S
C1068 C1069 1.327 . S
C1069 H1063 0.950 . S
C1069 C1068 1.327 . S
C1069 C1073 1.429 . S
C1070 C1053 1.574 . S
C1070 H1064 0.949 . S
C1070 C1074 1.368 . S
C1071 C1052 1.429 . S
C1071 C1065 1.429 . S
C1071 C1072 1.523 . S
C1072 C1053 1.368 . S
C1072 C1066 1.368 . S
C1072 C1071 1.523 . S
C1073 C1057 1.429 . S
C1073 C1069 1.429 . S
C1073 C1074 1.523 . S
C1074 C1058 1.368 . S
C1074 C1070 1.368 . S
C1074 C1073 1.523 . S
H1075 C1050 0.950 . S
H1076 C1052 0.950 . S
H1077 C1053 0.949 . S
H1078 C1055 0.950 . S
H1079 C1057 0.950 . S
C1080 C1081 1.349 . S
C1080 C1082 1.327 . S
C1080 H1105 0.950 . S
C1081 C1080 1.349 . S
C1081 C1097 1.349 . S
C1082 C1080 1.327 . S
C1082 C1101 1.429 . S
C1082 H1106 0.950 . S
C1083 C1100 1.574 . S
C1083 C1102 1.368 . S
C1083 H1107 0.949 . S
H1084 C1088 0.949 . S
C1085 C1086 1.349 . S
C1085 C1087 1.327 . S
C1085 H1108 0.950 . S
C1086 C1085 1.349 . S
C1086 C1098 1.349 . S
C1087 C1085 1.327 . S
C1087 C1103 1.429 . S
C1087 H1109 0.950 . S
C1088 H1084 0.949 . S
C1088 C1096 1.574 . S
C1088 C1104 1.368 . S
H1089 C1097 0.950 . S
H1090 C1095 0.950 . S
H1091 C1096 0.949 . S
H1092 C1098 0.950 . S
H1093 C1099 0.950 . S
H1094 C1100 0.949 . S
C1095 H1090 0.950 . S
C1095 C1097 1.327 . S
C1095 C1101 1.429 . S
C1096 C1088 1.574 . S
C1096 H1091 0.949 . S
C1096 C1102 1.368 . S
C1097 C1081 1.349 . S
C1097 H1089 0.950 . S
C1097 C1095 1.327 . S
C1098 C1086 1.349 . S
C1098 H1092 0.950 . S
C1098 C1099 1.327 . S
C1099 H1093 0.950 . S
C1099 C1098 1.327 . S
C1099 C1103 1.429 . S
C1100 C1083 1.574 . S
C1100 H1094 0.949 . S
C1100 C1104 1.368 . S
C1101 C1082 1.429 . S
C1101 C1095 1.429 . S
C1101 C1102 1.523 . S
C1102 C1083 1.368 . S
C1102 C1096 1.368 . S
C1102 C1101 1.523 . S
C1103 C1087 1.429 . S
C1103 C1099 1.429 . S
C1103 C1104 1.523 . S
C1104 C1088 1.368 . S
C1104 C1100 1.368 . S
C1104 C1103 1.523 . S
H1105 C1080 0.950 . S
H1106 C1082 0.950 . S
H1107 C1083 0.949 . S
H1108 C1085 0.950 . S
H1109 C1087 0.950 . S
C1110 C1111 1.349 . S
C1110 C1112 1.327 . S
C1110 H1135 0.950 . S
C1111 C1110 1.349 . S
C1111 C1127 1.349 . S
C1112 C1110 1.327 . S
C1112 C1131 1.429 . S
C1112 H1136 0.950 . S
C1113 C1130 1.574 . S
C1113 C1132 1.368 . S
C1113 H1137 0.949 . S
H1114 C1118 0.949 . S
C1115 C1116 1.349 . S
C1115 C1117 1.327 1_565 S
C1115 H1138 0.950 . S
C1116 C1115 1.349 . S
C1116 C1128 1.349 1_565 S
C1117 C1115 1.327 1_545 S
C1117 C1133 1.429 . S
C1117 H1139 0.950 . S
C1118 H1114 0.949 . S
C1118 C1126 1.574 . S
C1118 C1134 1.368 . S
H1119 C1127 0.950 . S
H1120 C1125 0.950 . S
H1121 C1126 0.949 . S
H1122 C1128 0.950 . S
H1123 C1129 0.950 . S
H1124 C1130 0.949 . S
C1125 H1120 0.950 . S
C1125 C1127 1.327 . S
C1125 C1131 1.429 . S
C1126 C1118 1.574 . S
C1126 H1121 0.949 . S
C1126 C1132 1.368 . S
C1127 C1111 1.349 . S
C1127 H1119 0.950 . S
C1127 C1125 1.327 . S
C1128 C1116 1.349 1_545 S
C1128 H1122 0.950 . S
C1128 C1129 1.327 . S
C1129 H1123 0.950 . S
C1129 C1128 1.327 . S
C1129 C1133 1.429 . S
C1130 C1113 1.574 . S
C1130 H1124 0.949 . S
C1130 C1134 1.368 . S
C1131 C1112 1.429 . S
C1131 C1125 1.429 . S
C1131 C1132 1.523 . S
C1132 C1113 1.368 . S
C1132 C1126 1.368 . S
C1132 C1131 1.523 . S
C1133 C1117 1.429 . S
C1133 C1129 1.429 . S
C1133 C1134 1.523 . S
C1134 C1118 1.368 . S
C1134 C1130 1.368 . S
C1134 C1133 1.523 . S
H1135 C1110 0.950 . S
H1136 C1112 0.950 . S
H1137 C1113 0.949 . S
H1138 C1115 0.950 . S
H1139 C1117 0.950 . S
C1140 C1141 1.349 . S
C1140 C1142 1.327 . S
C1140 H1165 0.950 . S
C1141 C1140 1.349 . S
C1141 C1157 1.349 . S
C1142 C1140 1.327 . S
C1142 C1161 1.429 . S
C1142 H1166 0.950 . S
C1143 C1160 1.574 . S
C1143 C1162 1.368 . S
C1143 H1167 0.949 . S
H1144 C1148 0.949 . S
C1145 C1146 1.349 . S
C1145 C1147 1.327 . S
C1145 H1168 0.950 . S
C1146 C1145 1.349 . S
C1146 C1158 1.349 1_554 S
C1147 C1145 1.327 . S
C1147 C1163 1.429 . S
C1147 H1169 0.950 . S
C1148 H1144 0.949 . S
C1148 C1156 1.574 . S
C1148 C1164 1.368 . S
H1149 C1157 0.950 . S
H1150 C1155 0.950 . S
H1151 C1156 0.949 . S
H1152 C1158 0.950 . S
H1153 C1159 0.950 1_556 S
H1154 C1160 0.949 . S
C1155 H1150 0.950 . S
C1155 C1157 1.327 . S
C1155 C1161 1.429 . S
C1156 C1148 1.574 . S
C1156 H1151 0.949 . S
C1156 C1162 1.368 . S
C1157 C1141 1.349 . S
C1157 H1149 0.950 . S
C1157 C1155 1.327 . S
C1158 C1146 1.349 1_556 S
C1158 H1152 0.950 . S
C1158 C1159 1.327 1_556 S
C1159 H1153 0.950 1_554 S
C1159 C1158 1.327 1_554 S
C1159 C1163 1.429 . S
C1160 C1143 1.574 . S
C1160 H1154 0.949 . S
C1160 C1164 1.368 . S
C1161 C1142 1.429 . S
C1161 C1155 1.429 . S
C1161 C1162 1.523 . S
C1162 C1143 1.368 . S
C1162 C1156 1.368 . S
C1162 C1161 1.523 . S
C1163 C1147 1.429 . S
C1163 C1159 1.429 . S
C1163 C1164 1.523 . S
C1164 C1148 1.368 . S
C1164 C1160 1.368 . S
C1164 C1163 1.523 . S
H1165 C1140 0.950 . S
H1166 C1142 0.950 . S
H1167 C1143 0.949 . S
H1168 C1145 0.950 . S
H1169 C1147 0.950 . S
C1170 C1171 1.349 . S
C1170 C1172 1.327 1_545 S
C1170 H1195 0.950 . S
C1171 C1170 1.349 . S
C1171 C1187 1.349 1_545 S
C1172 C1170 1.327 1_565 S
C1172 C1191 1.429 . S
C1172 H1196 0.950 . S
C1173 C1190 1.574 . S
C1173 C1192 1.368 . S
C1173 H1197 0.949 . S
H1174 C1178 0.949 . S
C1175 C1176 1.349 . S
C1175 C1177 1.327 . S
C1175 H1198 0.950 . S
C1176 C1175 1.349 . S
C1176 C1188 1.349 . S
C1177 C1175 1.327 . S
C1177 C1193 1.429 . S
C1177 H1199 0.950 . S
C1178 H1174 0.949 . S
C1178 C1186 1.574 . S
C1178 C1194 1.368 . S
H1179 C1187 0.950 . S
H1180 C1185 0.950 . S
H1181 C1186 0.949 . S
H1182 C1188 0.950 . S
H1183 C1189 0.950 . S
H1184 C1190 0.949 . S
C1185 H1180 0.950 . S
C1185 C1187 1.327 . S
C1185 C1191 1.429 . S
C1186 C1178 1.574 . S
C1186 H1181 0.949 . S
C1186 C1192 1.368 . S
C1187 C1171 1.349 1_565 S
C1187 H1179 0.950 . S
C1187 C1185 1.327 . S
C1188 C1176 1.349 . S
C1188 H1182 0.950 . S
C1188 C1189 1.327 . S
C1189 H1183 0.950 . S
C1189 C1188 1.327 . S
C1189 C1193 1.429 . S
C1190 C1173 1.574 . S
C1190 H1184 0.949 . S
C1190 C1194 1.368 . S
C1191 C1172 1.429 . S
C1191 C1185 1.429 . S
C1191 C1192 1.523 . S
C1192 C1173 1.368 . S
C1192 C1186 1.368 . S
C1192 C1191 1.523 . S
C1193 C1177 1.429 . S
C1193 C1189 1.429 . S
C1193 C1194 1.523 . S
C1194 C1178 1.368 . S
C1194 C1190 1.368 . S
C1194 C1193 1.523 . S
H1195 C1170 0.950 . S
H1196 C1172 0.950 . S
H1197 C1173 0.949 . S
H1198 C1175 0.950 . S
H1199 C1177 0.950 . S
C1200 C1201 1.349 . S
C1200 C1202 1.327 . S
C1200 H1225 0.950 . S
C1201 C1200 1.349 . S
C1201 C1217 1.349 . S
C1202 C1200 1.327 . S
C1202 C1221 1.429 . S
C1202 H1226 0.950 . S
C1203 C1220 1.574 . S
C1203 C1222 1.368 . S
C1203 H1227 0.949 . S
H1204 C1208 0.949 . S
C1205 C1206 1.349 . S
C1205 C1207 1.327 . S
C1205 H1228 0.950 . S
C1206 C1205 1.349 . S
C1206 C1218 1.349 . S
C1207 C1205 1.327 . S
C1207 C1223 1.429 . S
C1207 H1229 0.950 . S
C1208 H1204 0.949 . S
C1208 C1216 1.574 . S
C1208 C1224 1.368 . S
H1209 C1217 0.950 . S
H1210 C1215 0.950 . S
H1211 C1216 0.949 . S
H1212 C1218 0.950 . S
H1213 C1219 0.950 . S
H1214 C1220 0.949 . S
C1215 H1210 0.950 . S
C1215 C1217 1.327 . S
C1215 C1221 1.429 . S
C1216 C1208 1.574 . S
C1216 H1211 0.949 . S
C1216 C1222 1.368 . S
C1217 C1201 1.349 . S
C1217 H1209 0.950 . S
C1217 C1215 1.327 . S
C1218 C1206 1.349 . S
C1218 H1212 0.950 . S
C1218 C1219 1.327 . S
C1219 H1213 0.950 . S
C1219 C1218 1.327 . S
C1219 C1223 1.429 . S
C1220 C1203 1.574 . S
C1220 H1214 0.949 . S
C1220 C1224 1.368 . S
C1221 C1202 1.429 . S
C1221 C1215 1.429 . S
C1221 C1222 1.523 . S
C1222 C1203 1.368 . S
C1222 C1216 1.368 . S
C1222 C1221 1.523 . S
C1223 C1207 1.429 . S
C1223 C1219 1.429 . S
C1223 C1224 1.523 . S
C1224 C1208 1.368 . S
C1224 C1220 1.368 . S
C1224 C1223 1.523 . S
H1225 C1200 0.950 . S
H1226 C1202 0.950 . S
H1227 C1203 0.949 . S
H1228 C1205 0.950 . S
H1229 C1207 0.950 . S
C1230 C1231 1.349 . S
C1230 C1232 1.327 . S
C1230 H1255 0.950 . S
C1231 C1230 1.349 . S
C1231 C1247 1.349 . S
C1232 C1230 1.327 . S
C1232 C1251 1.429 . S
C1232 H1256 0.950 . S
C1233 C1250 1.574 . S
C1233 C1252 1.368 . S
C1233 H1257 0.949 . S
H1234 C1238 0.949 . S
C1235 C1236 1.349 . S
C1235 C1237 1.327 . S
C1235 H1258 0.950 1_554 S
C1236 C1235 1.349 . S
C1236 C1248 1.349 . S
C1237 C1235 1.327 . S
C1237 C1253 1.429 . S
C1237 H1259 0.950 . S
C1238 H1234 0.949 . S
C1238 C1246 1.574 . S
C1238 C1254 1.368 . S
H1239 C1247 0.950 . S
H1240 C1245 0.950 . S
H1241 C1246 0.949 . S
H1242 C1248 0.950 . S
H1243 C1249 0.950 . S
H1244 C1250 0.949 . S
C1245 H1240 0.950 . S
C1245 C1247 1.327 . S
C1245 C1251 1.429 . S
C1246 C1238 1.574 . S
C1246 H1241 0.949 . S
C1246 C1252 1.368 . S
C1247 C1231 1.349 . S
C1247 H1239 0.950 . S
C1247 C1245 1.327 . S
C1248 C1236 1.349 . S
C1248 H1242 0.950 . S
C1248 C1249 1.327 . S
C1249 H1243 0.950 . S
C1249 C1248 1.327 . S
C1249 C1253 1.429 . S
C1250 C1233 1.574 . S
C1250 H1244 0.949 . S
C1250 C1254 1.368 . S
C1251 C1232 1.429 . S
C1251 C1245 1.429 . S
C1251 C1252 1.523 . S
C1252 C1233 1.368 . S
C1252 C1246 1.368 . S
C1252 C1251 1.523 . S
C1253 C1237 1.429 . S
C1253 C1249 1.429 . S
C1253 C1254 1.523 . S
C1254 C1238 1.368 . S
C1254 C1250 1.368 . S
C1254 C1253 1.523 . S
H1255 C1230 0.950 . S
H1256 C1232 0.950 . S
H1257 C1233 0.949 . S
H1258 C1235 0.950 1_556 S
H1259 C1237 0.950 . S
C1260 C1261 1.349 . S
C1260 C1262 1.327 1_655 S
C1260 H1285 0.950 . S
C1261 C1260 1.349 . S
C1261 C1277 1.349 . S
C1262 C1260 1.327 1_455 S
C1262 C1281 1.429 . S
C1262 H1286 0.950 . S
C1263 C1280 1.574 . S
C1263 C1282 1.368 . S
C1263 H1287 0.949 . S
H1264 C1268 0.949 . S
C1265 C1266 1.349 . S
C1265 C1267 1.327 . S
C1265 H1288 0.950 . S
C1266 C1265 1.349 . S
C1266 C1278 1.349 . S
C1267 C1265 1.327 . S
C1267 C1283 1.429 . S
C1267 H1289 0.950 . S
C1268 H1264 0.949 . S
C1268 C1276 1.574 . S
C1268 C1284 1.368 . S
H1269 C1277 0.950 . S
H1270 C1275 0.950 . S
H1271 C1276 0.949 . S
H1272 C1278 0.950 . S
H1273 C1279 0.950 . S
H1274 C1280 0.949 . S
C1275 H1270 0.950 . S
C1275 C1277 1.327 . S
C1275 C1281 1.429 1_655 S
C1276 C1268 1.574 . S
C1276 H1271 0.949 . S
C1276 C1282 1.368 . S
C1277 C1261 1.349 . S
C1277 H1269 0.950 . S
C1277 C1275 1.327 . S
C1278 C1266 1.349 . S
C1278 H1272 0.950 . S
C1278 C1279 1.327 . S
C1279 H1273 0.950 . S
C1279 C1278 1.327 . S
C1279 C1283 1.429 . S
C1280 C1263 1.574 . S
C1280 H1274 0.949 . S
C1280 C1284 1.368 . S
C1281 C1262 1.429 . S
C1281 C1275 1.429 1_455 S
C1281 C1282 1.523 . S
C1282 C1263 1.368 . S
C1282 C1276 1.368 . S
C1282 C1281 1.523 . S
C1283 C1267 1.429 . S
C1283 C1279 1.429 . S
C1283 C1284 1.523 . S
C1284 C1268 1.368 . S
C1284 C1280 1.368 . S
C1284 C1283 1.523 . S
H1285 C1260 0.950 . S
H1286 C1262 0.950 . S
H1287 C1263 0.949 . S
H1288 C1265 0.950 . S
H1289 C1267 0.950 . S
C1290 C1291 1.349 . S
C1290 C1292 1.327 . S
C1290 H1315 0.950 . S
C1291 C1290 1.349 . S
C1291 C1307 1.349 . S
C1292 C1290 1.327 . S
C1292 C1311 1.429 . S
C1292 H1316 0.950 . S
C1293 C1310 1.574 . S
C1293 C1312 1.368 . S
C1293 H1317 0.949 . S
H1294 C1298 0.949 . S
C1295 C1296 1.349 . S
C1295 C1297 1.327 . S
C1295 H1318 0.950 . S
C1296 C1295 1.349 . S
C1296 C1308 1.349 . S
C1297 C1295 1.327 . S
C1297 C1313 1.429 . S
C1297 H1319 0.950 . S
C1298 H1294 0.949 . S
C1298 C1306 1.574 . S
C1298 C1314 1.368 . S
H1299 C1307 0.950 . S
H1300 C1305 0.950 . S
H1301 C1306 0.949 . S
H1302 C1308 0.950 . S
H1303 C1309 0.950 . S
H1304 C1310 0.949 . S
C1305 H1300 0.950 . S
C1305 C1307 1.327 . S
C1305 C1311 1.429 . S
C1306 C1298 1.574 . S
C1306 H1301 0.949 . S
C1306 C1312 1.368 . S
C1307 C1291 1.349 . S
C1307 H1299 0.950 . S
C1307 C1305 1.327 . S
C1308 C1296 1.349 . S
C1308 H1302 0.950 . S
C1308 C1309 1.327 . S
C1309 H1303 0.950 . S
C1309 C1308 1.327 . S
C1309 C1313 1.429 . S
C1310 C1293 1.574 . S
C1310 H1304 0.949 . S
C1310 C1314 1.368 . S
C1311 C1292 1.429 . S
C1311 C1305 1.429 . S
C1311 C1312 1.523 . S
C1312 C1293 1.368 . S
C1312 C1306 1.368 . S
C1312 C1311 1.523 . S
C1313 C1297 1.429 . S
C1313 C1309 1.429 . S
C1313 C1314 1.523 . S
C1314 C1298 1.368 . S
C1314 C1310 1.368 . S
C1314 C1313 1.523 . S
H1315 C1290 0.950 . S
H1316 C1292 0.950 . S
H1317 C1293 0.949 . S
H1318 C1295 0.950 . S
H1319 C1297 0.950 . S
C1320 C1321 1.349 . S
C1320 C1322 1.327 . S
C1320 H1345 0.950 . S
C1321 C1320 1.349 . S
C1321 C1337 1.349 . S
C1322 C1320 1.327 . S
C1322 C1341 1.429 . S
C1322 H1346 0.950 . S
C1323 C1340 1.574 . S
C1323 C1342 1.368 . S
C1323 H1347 0.949 . S
H1324 C1328 0.949 . S
C1325 C1326 1.349 . S
C1325 C1327 1.327 . S
C1325 H1348 0.950 . S
C1326 C1325 1.349 . S
C1326 C1338 1.349 . S
C1327 C1325 1.327 . S
C1327 C1343 1.429 . S
C1327 H1349 0.950 . S
C1328 H1324 0.949 . S
C1328 C1336 1.574 . S
C1328 C1344 1.368 . S
H1329 C1337 0.950 . S
H1330 C1335 0.950 . S
H1331 C1336 0.949 . S
H1332 C1338 0.950 . S
H1333 C1339 0.950 . S
H1334 C1340 0.949 . S
C1335 H1330 0.950 . S
C1335 C1337 1.327 . S
C1335 C1341 1.429 . S
C1336 C1328 1.574 . S
C1336 H1331 0.949 . S
C1336 C1342 1.368 . S
C1337 C1321 1.349 . S
C1337 H1329 0.950 . S
C1337 C1335 1.327 . S
C1338 C1326 1.349 . S
C1338 H1332 0.950 . S
C1338 C1339 1.327 . S
C1339 H1333 0.950 . S
C1339 C1338 1.327 . S
C1339 C1343 1.429 . S
C1340 C1323 1.574 . S
C1340 H1334 0.949 . S
C1340 C1344 1.368 . S
C1341 C1322 1.429 . S
C1341 C1335 1.429 . S
C1341 C1342 1.523 . S
C1342 C1323 1.368 . S
C1342 C1336 1.368 . S
C1342 C1341 1.523 . S
C1343 C1327 1.429 . S
C1343 C1339 1.429 . S
C1343 C1344 1.523 . S
C1344 C1328 1.368 . S
C1344 C1340 1.368 . S
C1344 C1343 1.523 . S
H1345 C1320 0.950 . S
H1346 C1322 0.950 . S
H1347 C1323 0.949 . S
H1348 C1325 0.950 . S
H1349 C1327 0.950 . S
C1350 C1351 1.349 . S
C1350 C1352 1.327 . S
C1350 H1375 0.950 . S
C1351 C1350 1.349 . S
C1351 C1367 1.349 . S
C1352 C1350 1.327 . S
C1352 C1371 1.429 . S
C1352 H1376 0.950 . S
C1353 C1370 1.574 . S
C1353 C1372 1.368 . S
C1353 H1377 0.949 . S
H1354 C1358 0.949 . S
C1355 C1356 1.349 . S
C1355 C1357 1.327 . S
C1355 H1378 0.950 . S
C1356 C1355 1.349 . S
C1356 C1368 1.349 . S
C1357 C1355 1.327 . S
C1357 C1373 1.429 . S
C1357 H1379 0.950 . S
C1358 H1354 0.949 . S
C1358 C1366 1.574 . S
C1358 C1374 1.368 . S
H1359 C1367 0.950 . S
H1360 C1365 0.950 . S
H1361 C1366 0.949 . S
H1362 C1368 0.950 1_554 S
H1363 C1369 0.950 . S
H1364 C1370 0.949 . S
C1365 H1360 0.950 . S
C1365 C1367 1.327 . S
C1365 C1371 1.429 . S
C1366 C1358 1.574 . S
C1366 H1361 0.949 . S
C1366 C1372 1.368 . S
C1367 C1351 1.349 . S
C1367 H1359 0.950 . S
C1367 C1365 1.327 . S
C1368 C1356 1.349 . S
C1368 H1362 0.950 1_556 S
C1368 C1369 1.327 . S
C1369 H1363 0.950 . S
C1369 C1368 1.327 . S
C1369 C1373 1.429 . S
C1370 C1353 1.574 . S
C1370 H1364 0.949 . S
C1370 C1374 1.368 . S
C1371 C1352 1.429 . S
C1371 C1365 1.429 . S
C1371 C1372 1.523 . S
C1372 C1353 1.368 . S
C1372 C1366 1.368 . S
C1372 C1371 1.523 . S
C1373 C1357 1.429 . S
C1373 C1369 1.429 . S
C1373 C1374 1.523 . S
C1374 C1358 1.368 . S
C1374 C1370 1.368 . S
C1374 C1373 1.523 . S
H1375 C1350 0.950 . S
H1376 C1352 0.950 . S
H1377 C1353 0.949 . S
H1378 C1355 0.950 . S
H1379 C1357 0.950 . S
C1380 C1381 1.349 . S
C1380 C1382 1.327 1_455 S
C1380 H1405 0.950 . S
C1381 C1380 1.349 . S
C1381 C1397 1.349 . S
C1382 C1380 1.327 1_655 S
C1382 C1401 1.429 . S
C1382 H1406 0.950 . S
C1383 C1400 1.574 . S
C1383 C1402 1.368 . S
C1383 H1407 0.949 . S
H1384 C1388 0.949 . S
C1385 C1386 1.349 . S
C1385 C1387 1.327 . S
C1385 H1408 0.950 . S
C1386 C1385 1.349 . S
C1386 C1398 1.349 . S
C1387 C1385 1.327 . S
C1387 C1403 1.429 . S
C1387 H1409 0.950 . S
C1388 H1384 0.949 . S
C1388 C1396 1.574 . S
C1388 C1404 1.368 . S
H1389 C1397 0.950 . S
H1390 C1395 0.950 . S
H1391 C1396 0.949 . S
H1392 C1398 0.950 . S
H1393 C1399 0.950 . S
H1394 C1400 0.949 . S
C1395 H1390 0.950 . S
C1395 C1397 1.327 . S
C1395 C1401 1.429 1_455 S
C1396 C1388 1.574 . S
C1396 H1391 0.949 . S
C1396 C1402 1.368 . S
C1397 C1381 1.349 . S
C1397 H1389 0.950 . S
C1397 C1395 1.327 . S
C1398 C1386 1.349 . S
C1398 H1392 0.950 . S
C1398 C1399 1.327 . S
C1399 H1393 0.950 . S
C1399 C1398 1.327 . S
C1399 C1403 1.429 . S
C1400 C1383 1.574 . S
C1400 H1394 0.949 . S
C1400 C1404 1.368 . S
C1401 C1382 1.429 . S
C1401 C1395 1.429 1_655 S
C1401 C1402 1.523 . S
C1402 C1383 1.368 . S
C1402 C1396 1.368 . S
C1402 C1401 1.523 . S
C1403 C1387 1.429 . S
C1403 C1399 1.429 . S
C1403 C1404 1.523 . S
C1404 C1388 1.368 . S
C1404 C1400 1.368 . S
C1404 C1403 1.523 . S
H1405 C1380 0.950 . S
H1406 C1382 0.950 . S
H1407 C1383 0.949 . S
H1408 C1385 0.950 . S
H1409 C1387 0.950 . S
C1410 C1411 1.349 . S
C1410 C1412 1.327 . S
C1410 H1435 0.950 . S
C1411 C1410 1.349 . S
C1411 C1427 1.349 . S
C1412 C1410 1.327 . S
C1412 C1431 1.429 . S
C1412 H1436 0.950 . S
C1413 C1430 1.574 . S
C1413 C1432 1.368 . S
C1413 H1437 0.949 . S
H1414 C1418 0.949 . S
C1415 C1416 1.349 . S
C1415 C1417 1.327 . S
C1415 H1438 0.950 . S
C1416 C1415 1.349 . S
C1416 C1428 1.349 . S
C1417 C1415 1.327 . S
C1417 C1433 1.429 . S
C1417 H1439 0.950 . S
C1418 H1414 0.949 . S
C1418 C1426 1.574 . S
C1418 C1434 1.368 . S
H1419 C1427 0.950 . S
H1420 C1425 0.950 . S
H1421 C1426 0.949 . S
H1422 C1428 0.950 . S
H1423 C1429 0.950 . S
H1424 C1430 0.949 . S
C1425 H1420 0.950 . S
C1425 C1427 1.327 . S
C1425 C1431 1.429 . S
C1426 C1418 1.574 . S
C1426 H1421 0.949 . S
C1426 C1432 1.368 . S
C1427 C1411 1.349 . S
C1427 H1419 0.950 . S
C1427 C1425 1.327 . S
C1428 C1416 1.349 . S
C1428 H1422 0.950 . S
C1428 C1429 1.327 . S
C1429 H1423 0.950 . S
C1429 C1428 1.327 . S
C1429 C1433 1.429 . S
C1430 C1413 1.574 . S
C1430 H1424 0.949 . S
C1430 C1434 1.368 . S
C1431 C1412 1.429 . S
C1431 C1425 1.429 . S
C1431 C1432 1.523 . S
C1432 C1413 1.368 . S
C1432 C1426 1.368 . S
C1432 C1431 1.523 . S
C1433 C1417 1.429 . S
C1433 C1429 1.429 . S
C1433 C1434 1.523 . S
C1434 C1418 1.368 . S
C1434 C1430 1.368 . S
C1434 C1433 1.523 . S
H1435 C1410 0.950 . S
H1436 C1412 0.950 . S
H1437 C1413 0.949 . S
H1438 C1415 0.950 . S
H1439 C1417 0.950 . S
C1440 C1441 1.349 . S
C1440 C1442 1.327 . S
C1440 H1465 0.950 . S
C1441 C1440 1.349 . S
C1441 C1457 1.349 . S
C1442 C1440 1.327 . S
C1442 C1461 1.429 . S
C1442 H1466 0.950 . S
C1443 C1460 1.574 . S
C1443 C1462 1.368 . S
C1443 H1467 0.949 . S
H1444 C1448 0.949 . S
C1445 C1446 1.349 . S
C1445 C1447 1.327 1_455 S
C1445 H1468 0.950 . S
C1446 C1445 1.349 . S
C1446 C1458 1.349 . S
C1447 C1445 1.327 1_655 S
C1447 C1463 1.429 . S
C1447 H1469 0.950 . S
C1448 H1444 0.949 . S
C1448 C1456 1.574 . S
C1448 C1464 1.368 . S
H1449 C1457 0.950 . S
H1450 C1455 0.950 . S
H1451 C1456 0.949 . S
H1452 C1458 0.950 . S
H1453 C1459 0.950 . S
H1454 C1460 0.949 . S
C1455 H1450 0.950 . S
C1455 C1457 1.327 . S
C1455 C1461 1.429 . S
C1456 C1448 1.574 . S
C1456 H1451 0.949 . S
C1456 C1462 1.368 . S
C1457 C1441 1.349 . S
C1457 H1449 0.950 . S
C1457 C1455 1.327 . S
C1458 C1446 1.349 . S
C1458 H1452 0.950 . S
C1458 C1459 1.327 . S
C1459 H1453 0.950 . S
C1459 C1458 1.327 . S
C1459 C1463 1.429 1_455 S
C1460 C1443 1.574 . S
C1460 H1454 0.949 . S
C1460 C1464 1.368 . S
C1461 C1442 1.429 . S
C1461 C1455 1.429 . S
C1461 C1462 1.523 . S
C1462 C1443 1.368 . S
C1462 C1456 1.368 . S
C1462 C1461 1.523 . S
C1463 C1447 1.429 . S
C1463 C1459 1.429 1_655 S
C1463 C1464 1.523 . S
C1464 C1448 1.368 . S
C1464 C1460 1.368 . S
C1464 C1463 1.523 . S
H1465 C1440 0.950 . S
H1466 C1442 0.950 . S
H1467 C1443 0.949 . S
H1468 C1445 0.950 . S
H1469 C1447 0.950 . S
C1470 C1471 1.349 . S
C1470 C1472 1.327 . S
C1470 H1495 0.950 . S
C1471 C1470 1.349 . S
C1471 C1487 1.349 . S
C1472 C1470 1.327 . S
C1472 C1491 1.429 . S
C1472 H1496 0.950 . S
C1473 C1490 1.574 . S
C1473 C1492 1.368 . S
C1473 H1497 0.949 . S
H1474 C1478 0.949 . S
C1475 C1476 1.349 . S
C1475 C1477 1.327 . S
C1475 H1498 0.950 . S
C1476 C1475 1.349 . S
C1476 C1488 1.349 . S
C1477 C1475 1.327 . S
C1477 C1493 1.429 . S
C1477 H1499 0.950 . S
C1478 H1474 0.949 . S
C1478 C1486 1.574 . S
C1478 C1494 1.368 . S
H1479 C1487 0.950 . S
H1480 C1485 0.950 . S
H1481 C1486 0.949 . S
H1482 C1488 0.950 . S
H1483 C1489 0.950 . S
H1484 C1490 0.949 . S
C1485 H1480 0.950 . S
C1485 C1487 1.327 . S
C1485 C1491 1.429 . S
C1486 C1478 1.574 . S
C1486 H1481 0.949 . S
C1486 C1492 1.368 . S
C1487 C1471 1.349 . S
C1487 H1479 0.950 . S
C1487 C1485 1.327 . S
C1488 C1476 1.349 . S
C1488 H1482 0.950 . S
C1488 C1489 1.327 . S
C1489 H1483 0.950 . S
C1489 C1488 1.327 . S
C1489 C1493 1.429 . S
C1490 C1473 1.574 . S
C1490 H1484 0.949 . S
C1490 C1494 1.368 . S
C1491 C1472 1.429 . S
C1491 C1485 1.429 . S
C1491 C1492 1.523 . S
C1492 C1473 1.368 . S
C1492 C1486 1.368 . S
C1492 C1491 1.523 . S
C1493 C1477 1.429 . S
C1493 C1489 1.429 . S
C1493 C1494 1.523 . S
C1494 C1478 1.368 . S
C1494 C1490 1.368 . S
C1494 C1493 1.523 . S
H1495 C1470 0.950 . S
H1496 C1472 0.950 . S
H1497 C1473 0.949 . S
H1498 C1475 0.950 . S
H1499 C1477 0.950 . S
C1500 C1501 1.349 . S
C1500 C1502 1.327 . S
C1500 H1525 0.950 . S
C1501 C1500 1.349 . S
C1501 C1517 1.349 . S
C1502 C1500 1.327 . S
C1502 C1521 1.429 . S
C1502 H1526 0.950 . S
C1503 C1520 1.574 . S
C1503 C1522 1.368 . S
C1503 H1527 0.949 . S
H1504 C1508 0.949 . S
C1505 C1506 1.349 . S
C1505 C1507 1.327 . S
C1505 H1528 0.950 . S
C1506 C1505 1.349 . S
C1506 C1518 1.349 . S
C1507 C1505 1.327 . S
C1507 C1523 1.429 . S
C1507 H1529 0.950 . S
C1508 H1504 0.949 . S
C1508 C1516 1.574 . S
C1508 C1524 1.368 . S
H1509 C1517 0.950 . S
H1510 C1515 0.950 . S
H1511 C1516 0.949 . S
H1512 C1518 0.950 . S
H1513 C1519 0.950 . S
H1514 C1520 0.949 . S
C1515 H1510 0.950 . S
C1515 C1517 1.327 . S
C1515 C1521 1.429 . S
C1516 C1508 1.574 . S
C1516 H1511 0.949 . S
C1516 C1522 1.368 . S
C1517 C1501 1.349 . S
C1517 H1509 0.950 . S
C1517 C1515 1.327 . S
C1518 C1506 1.349 . S
C1518 H1512 0.950 . S
C1518 C1519 1.327 . S
C1519 H1513 0.950 . S
C1519 C1518 1.327 . S
C1519 C1523 1.429 . S
C1520 C1503 1.574 . S
C1520 H1514 0.949 . S
C1520 C1524 1.368 . S
C1521 C1502 1.429 . S
C1521 C1515 1.429 . S
C1521 C1522 1.523 . S
C1522 C1503 1.368 . S
C1522 C1516 1.368 . S
C1522 C1521 1.523 . S
C1523 C1507 1.429 . S
C1523 C1519 1.429 . S
C1523 C1524 1.523 . S
C1524 C1508 1.368 . S
C1524 C1520 1.368 . S
C1524 C1523 1.523 . S
H1525 C1500 0.950 . S
H1526 C1502 0.950 . S
H1527 C1503 0.949 . S
H1528 C1505 0.950 . S
H1529 C1507 0.950 . S
C1530 C1531 1.349 . S
C1530 C1532 1.327 . S
C1530 H1555 0.950 . S
C1531 C1530 1.349 . S
C1531 C1547 1.349 . S
C1532 C1530 1.327 . S
C1532 C1551 1.429 . S
C1532 H1556 0.950 . S
C1533 C1550 1.574 . S
C1533 C1552 1.368 . S
C1533 H1557 0.949 . S
H1534 C1538 0.949 . S
C1535 C1536 1.349 . S
C1535 C1537 1.327 . S
C1535 H1558 0.950 . S
C1536 C1535 1.349 . S
C1536 C1548 1.349 . S
C1537 C1535 1.327 . S
C1537 C1553 1.429 . S
C1537 H1559 0.950 . S
C1538 H1534 0.949 . S
C1538 C1546 1.574 . S
C1538 C1554 1.368 . S
H1539 C1547 0.950 . S
H1540 C1545 0.950 . S
H1541 C1546 0.949 . S
H1542 C1548 0.950 . S
H1543 C1549 0.950 . S
H1544 C1550 0.949 . S
C1545 H1540 0.950 . S
C1545 C1547 1.327 . S
C1545 C1551 1.429 . S
C1546 C1538 1.574 . S
C1546 H1541 0.949 . S
C1546 C1552 1.368 . S
C1547 C1531 1.349 . S
C1547 H1539 0.950 . S
C1547 C1545 1.327 . S
C1548 C1536 1.349 . S
C1548 H1542 0.950 . S
C1548 C1549 1.327 . S
C1549 H1543 0.950 . S
C1549 C1548 1.327 . S
C1549 C1553 1.429 . S
C1550 C1533 1.574 . S
C1550 H1544 0.949 . S
C1550 C1554 1.368 . S
C1551 C1532 1.429 . S
C1551 C1545 1.429 . S
C1551 C1552 1.523 . S
C1552 C1533 1.368 . S
C1552 C1546 1.368 . S
C1552 C1551 1.523 . S
C1553 C1537 1.429 . S
C1553 C1549 1.429 . S
C1553 C1554 1.523 . S
C1554 C1538 1.368 . S
C1554 C1550 1.368 . S
C1554 C1553 1.523 . S
H1555 C1530 0.950 . S
H1556 C1532 0.950 . S
H1557 C1533 0.949 . S
H1558 C1535 0.950 . S
H1559 C1537 0.950 . S
C1560 C1561 1.349 . S
C1560 C1562 1.327 . S
C1560 H1585 0.950 . S
C1561 C1560 1.349 . S
C1561 C1577 1.349 . S
C1562 C1560 1.327 . S
C1562 C1581 1.429 . S
C1562 H1586 0.950 . S
C1563 C1580 1.574 . S
C1563 C1582 1.368 . S
C1563 H1587 0.949 . S
H1564 C1568 0.949 . S
C1565 C1566 1.349 . S
C1565 C1567 1.327 . S
C1565 H1588 0.950 . S
C1566 C1565 1.349 . S
C1566 C1578 1.349 . S
C1567 C1565 1.327 . S
C1567 C1583 1.429 1_655 S
C1567 H1589 0.950 . S
C1568 H1564 0.949 . S
C1568 C1576 1.574 . S
C1568 C1584 1.368 . S
H1569 C1577 0.950 . S
H1570 C1575 0.950 . S
H1571 C1576 0.949 . S
H1572 C1578 0.950 . S
H1573 C1579 0.950 . S
H1574 C1580 0.949 . S
C1575 H1570 0.950 . S
C1575 C1577 1.327 . S
C1575 C1581 1.429 . S
C1576 C1568 1.574 . S
C1576 H1571 0.949 . S
C1576 C1582 1.368 . S
C1577 C1561 1.349 . S
C1577 H1569 0.950 . S
C1577 C1575 1.327 . S
C1578 C1566 1.349 . S
C1578 H1572 0.950 . S
C1578 C1579 1.327 1_655 S
C1579 H1573 0.950 . S
C1579 C1578 1.327 1_455 S
C1579 C1583 1.429 . S
C1580 C1563 1.574 . S
C1580 H1574 0.949 . S
C1580 C1584 1.368 . S
C1581 C1562 1.429 . S
C1581 C1575 1.429 . S
C1581 C1582 1.523 . S
C1582 C1563 1.368 . S
C1582 C1576 1.368 . S
C1582 C1581 1.523 . S
C1583 C1567 1.429 1_455 S
C1583 C1579 1.429 . S
C1583 C1584 1.523 . S
C1584 C1568 1.368 . S
C1584 C1580 1.368 . S
C1584 C1583 1.523 . S
H1585 C1560 0.950 . S
H1586 C1562 0.950 . S
H1587 C1563 0.949 . S
H1588 C1565 0.950 . S
H1589 C1567 0.950 . S
C1590 C1591 1.349 . S
C1590 C1592 1.327 . S
C1590 H1615 0.950 . S
C1591 C1590 1.349 . S
C1591 C1607 1.349 . S
C1592 C1590 1.327 . S
C1592 C1611 1.429 . S
C1592 H1616 0.950 . S
C1593 C1610 1.574 . S
C1593 C1612 1.368 . S
C1593 H1617 0.949 . S
H1594 C1598 0.949 . S
C1595 C1596 1.349 . S
C1595 C1597 1.327 . S
C1595 H1618 0.950 . S
C1596 C1595 1.349 . S
C1596 C1608 1.349 . S
C1597 C1595 1.327 . S
C1597 C1613 1.429 . S
C1597 H1619 0.950 . S
C1598 H1594 0.949 . S
C1598 C1606 1.574 . S
C1598 C1614 1.368 . S
H1599 C1607 0.950 . S
H1600 C1605 0.950 . S
H1601 C1606 0.949 . S
H1602 C1608 0.950 . S
H1603 C1609 0.950 . S
H1604 C1610 0.949 . S
C1605 H1600 0.950 . S
C1605 C1607 1.327 . S
C1605 C1611 1.429 . S
C1606 C1598 1.574 . S
C1606 H1601 0.949 . S
C1606 C1612 1.368 . S
C1607 C1591 1.349 . S
C1607 H1599 0.950 . S
C1607 C1605 1.327 . S
C1608 C1596 1.349 . S
C1608 H1602 0.950 . S
C1608 C1609 1.327 . S
C1609 H1603 0.950 . S
C1609 C1608 1.327 . S
C1609 C1613 1.429 . S
C1610 C1593 1.574 . S
C1610 H1604 0.949 . S
C1610 C1614 1.368 . S
C1611 C1592 1.429 . S
C1611 C1605 1.429 . S
C1611 C1612 1.523 . S
C1612 C1593 1.368 . S
C1612 C1606 1.368 . S
C1612 C1611 1.523 . S
C1613 C1597 1.429 . S
C1613 C1609 1.429 . S
C1613 C1614 1.523 . S
C1614 C1598 1.368 . S
C1614 C1610 1.368 . S
C1614 C1613 1.523 . S
H1615 C1590 0.950 . S
H1616 C1592 0.950 . S
H1617 C1593 0.949 . S
H1618 C1595 0.950 . S
H1619 C1597 0.950 . S
C1620 C1621 1.349 . S
C1620 C1622 1.327 . S
C1620 H1645 0.950 . S
C1621 C1620 1.349 . S
C1621 C1637 1.349 . S
C1622 C1620 1.327 . S
C1622 C1641 1.429 . S
C1622 H1646 0.950 . S
C1623 C1640 1.574 . S
C1623 C1642 1.368 . S
C1623 H1647 0.949 . S
H1624 C1628 0.949 . S
C1625 C1626 1.349 . S
C1625 C1627 1.327 . S
C1625 H1648 0.950 . S
C1626 C1625 1.349 . S
C1626 C1638 1.349 . S
C1627 C1625 1.327 . S
C1627 C1643 1.429 . S
C1627 H1649 0.950 . S
C1628 H1624 0.949 . S
C1628 C1636 1.574 . S
C1628 C1644 1.368 . S
H1629 C1637 0.950 . S
H1630 C1635 0.950 . S
H1631 C1636 0.949 . S
H1632 C1638 0.950 . S
H1633 C1639 0.950 . S
H1634 C1640 0.949 . S
C1635 H1630 0.950 . S
C1635 C1637 1.327 . S
C1635 C1641 1.429 . S
C1636 C1628 1.574 . S
C1636 H1631 0.949 . S
C1636 C1642 1.368 . S
C1637 C1621 1.349 . S
C1637 H1629 0.950 . S
C1637 C1635 1.327 . S
C1638 C1626 1.349 . S
C1638 H1632 0.950 . S
C1638 C1639 1.327 . S
C1639 H1633 0.950 . S
C1639 C1638 1.327 . S
C1639 C1643 1.429 . S
C1640 C1623 1.574 . S
C1640 H1634 0.949 . S
C1640 C1644 1.368 . S
C1641 C1622 1.429 . S
C1641 C1635 1.429 . S
C1641 C1642 1.523 . S
C1642 C1623 1.368 . S
C1642 C1636 1.368 . S
C1642 C1641 1.523 . S
C1643 C1627 1.429 . S
C1643 C1639 1.429 . S
C1643 C1644 1.523 . S
C1644 C1628 1.368 . S
C1644 C1640 1.368 . S
C1644 C1643 1.523 . S
H1645 C1620 0.950 . S
H1646 C1622 0.950 . S
H1647 C1623 0.949 . S
H1648 C1625 0.950 . S
H1649 C1627 0.950 . S
C1650 C1651 1.349 . S
C1650 C1652 1.327 . S
C1650 H1675 0.950 . S
C1651 C1650 1.349 . S
C1651 C1667 1.349 . S
C1652 C1650 1.327 . S
C1652 C1671 1.429 . S
C1652 H1676 0.950 . S
C1653 C1670 1.574 . S
C1653 C1672 1.368 . S
C1653 H1677 0.949 . S
H1654 C1658 0.949 . S
C1655 C1656 1.349 . S
C1655 C1657 1.327 . S
C1655 H1678 0.950 . S
C1656 C1655 1.349 . S
C1656 C1668 1.349 . S
C1657 C1655 1.327 . S
C1657 C1673 1.429 . S
C1657 H1679 0.950 . S
C1658 H1654 0.949 . S
C1658 C1666 1.574 . S
C1658 C1674 1.368 . S
H1659 C1667 0.950 . S
H1660 C1665 0.950 . S
H1661 C1666 0.949 . S
H1662 C1668 0.950 . S
H1663 C1669 0.950 . S
H1664 C1670 0.949 . S
C1665 H1660 0.950 . S
C1665 C1667 1.327 . S
C1665 C1671 1.429 . S
C1666 C1658 1.574 . S
C1666 H1661 0.949 . S
C1666 C1672 1.368 . S
C1667 C1651 1.349 . S
C1667 H1659 0.950 . S
C1667 C1665 1.327 . S
C1668 C1656 1.349 . S
C1668 H1662 0.950 . S
C1668 C1669 1.327 . S
C1669 H1663 0.950 . S
C1669 C1668 1.327 . S
C1669 C1673 1.429 . S
C1670 C1653 1.574 . S
C1670 H1664 0.949 . S
C1670 C1674 1.368 . S
C1671 C1652 1.429 . S
C1671 C1665 1.429 . S
C1671 C1672 1.523 . S
C1672 C1653 1.368 . S
C1672 C1666 1.368 . S
C1672 C1671 1.523 . S
C1673 C1657 1.429 . S
C1673 C1669 1.429 . S
C1673 C1674 1.523 . S
C1674 C1658 1.368 . S
C1674 C1670 1.368 . S
C1674 C1673 1.523 . S
H1675 C1650 0.950 . S
H1676 C1652 0.950 . S
H1677 C1653 0.949 . S
H1678 C1655 0.950 . S
H1679 C1657 0.950 . S
C1680 C1681 1.349 . S
C1680 C1682 1.327 . S
C1680 H1705 0.950 . S
C1681 C1680 1.349 . S
C1681 C1697 1.349 . S
C1682 C1680 1.327 . S
C1682 C1701 1.429 . S
C1682 H1706 0.950 . S
C1683 C1700 1.574 . S
C1683 C1702 1.368 . S
C1683 H1707 0.949 . S
H1684 C1688 0.949 . S
C1685 C1686 1.349 . S
C1685 C1687 1.327 . S
C1685 H1708 0.950 . S
C1686 C1685 1.349 . S
C1686 C1698 1.349 . S
C1687 C1685 1.327 . S
C1687 C1703 1.429 . S
C1687 H1709 0.950 . S
C1688 H1684 0.949 . S
C1688 C1696 1.574 . S
C1688 C1704 1.368 . S
H1689 C1697 0.950 . S
H1690 C1695 0.950 . S
H1691 C1696 0.949 . S
H1692 C1698 0.950 . S
H1693 C1699 0.950 . S
H1694 C1700 0.949 . S
C1695 H1690 0.950 . S
C1695 C1697 1.327 . S
C1695 C1701 1.429 . S
C1696 C1688 1.574 . S
C1696 H1691 0.949 . S
C1696 C1702 1.368 . S
C1697 C1681 1.349 . S
C1697 H1689 0.950 . S
C1697 C1695 1.327 . S
C1698 C1686 1.349 . S
C1698 H1692 0.950 . S
C1698 C1699 1.327 . S
C1699 H1693 0.950 . S
C1699 C1698 1.327 . S
C1699 C1703 1.429 . S
C1700 C1683 1.574 . S
C1700 H1694 0.949 . S
C1700 C1704 1.368 . S
C1701 C1682 1.429 . S
C1701 C1695 1.429 . S
C1701 C1702 1.523 . S
C1702 C1683 1.368 . S
C1702 C1696 1.368 . S
C1702 C1701 1.523 . S
C1703 C1687 1.429 . S
C1703 C1699 1.429 . S
C1703 C1704 1.523 . S
C1704 C1688 1.368 . S
C1704 C1700 1.368 . S
C1704 C1703 1.523 . S
H1705 C1680 0.950 . S
H1706 C1682 0.950 . S
H1707 C1683 0.949 . S
H1708 C1685 0.950 . S
H1709 C1687 0.950 . S
C1710 C1711 1.349 . S
C1710 C1712 1.327 . S
C1710 H1735 0.950 . S
C1711 C1710 1.349 . S
C1711 C1727 1.349 . S
C1712 C1710 1.327 . S
C1712 C1731 1.429 . S
C1712 H1736 0.950 . S
C1713 C1730 1.574 . S
C1713 C1732 1.368 . S
C1713 H1737 0.949 . S
H1714 C1718 0.949 . S
C1715 C1716 1.349 . S
C1715 C1717 1.327 . S
C1715 H1738 0.950 . S
C1716 C1715 1.349 . S
C1716 C1728 1.349 . S
C1717 C1715 1.327 . S
C1717 C1733 1.429 . S
C1717 H1739 0.950 . S
C1718 H1714 0.949 . S
C1718 C1726 1.574 . S
C1718 C1734 1.368 . S
H1719 C1727 0.950 . S
H1720 C1725 0.950 . S
H1721 C1726 0.949 . S
H1722 C1728 0.950 . S
H1723 C1729 0.950 . S
H1724 C1730 0.949 . S
C1725 H1720 0.950 . S
C1725 C1727 1.327 . S
C1725 C1731 1.429 . S
C1726 C1718 1.574 . S
C1726 H1721 0.949 . S
C1726 C1732 1.368 . S
C1727 C1711 1.349 . S
C1727 H1719 0.950 . S
C1727 C1725 1.327 . S
C1728 C1716 1.349 . S
C1728 H1722 0.950 . S
C1728 C1729 1.327 . S
C1729 H1723 0.950 . S
C1729 C1728 1.327 . S
C1729 C1733 1.429 . S
C1730 C1713 1.574 . S
C1730 H1724 0.949 . S
C1730 C1734 1.368 . S
C1731 C1712 1.429 . S
C1731 C1725 1.429 . S
C1731 C1732 1.523 . S
C1732 C1713 1.368 . S
C1732 C1726 1.368 . S
C1732 C1731 1.523 . S
C1733 C1717 1.429 . S
C1733 C1729 1.429 . S
C1733 C1734 1.523 . S
C1734 C1718 1.368 . S
C1734 C1730 1.368 . S
C1734 C1733 1.523 . S
H1735 C1710 0.950 . S
H1736 C1712 0.950 . S
H1737 C1713 0.949 . S
H1738 C1715 0.950 . S
H1739 C1717 0.950 . S
C1740 C1741 1.349 . S
C1740 C1742 1.327 . S
C1740 H1765 0.950 . S
C1741 C1740 1.349 . S
C1741 C1757 1.349 . S
C1742 C1740 1.327 . S
C1742 C1761 1.429 . S
C1742 H1766 0.950 . S
C1743 C1760 1.574 . S
C1743 C1762 1.368 . S
C1743 H1767 0.949 . S
H1744 C1748 0.949 . S
C1745 C1746 1.349 . S
C1745 C1747 1.327 . S
C1745 H1768 0.950 . S
C1746 C1745 1.349 . S
C1746 C1758 1.349 . S
C1747 C1745 1.327 . S
C1747 C1763 1.429 . S
C1747 H1769 0.950 . S
C1748 H1744 0.949 . S
C1748 C1756 1.574 . S
C1748 C1764 1.368 . S
H1749 C1757 0.950 . S
H1750 C1755 0.950 . S
H1751 C1756 0.949 . S
H1752 C1758 0.950 . S
H1753 C1759 0.950 . S
H1754 C1760 0.949 . S
C1755 H1750 0.950 . S
C1755 C1757 1.327 . S
C1755 C1761 1.429 . S
C1756 C1748 1.574 . S
C1756 H1751 0.949 . S
C1756 C1762 1.368 . S
C1757 C1741 1.349 . S
C1757 H1749 0.950 . S
C1757 C1755 1.327 . S
C1758 C1746 1.349 . S
C1758 H1752 0.950 . S
C1758 C1759 1.327 . S
C1759 H1753 0.950 . S
C1759 C1758 1.327 . S
C1759 C1763 1.429 . S
C1760 C1743 1.574 . S
C1760 H1754 0.949 . S
C1760 C1764 1.368 . S
C1761 C1742 1.429 . S
C1761 C1755 1.429 . S
C1761 C1762 1.523 . S
C1762 C1743 1.368 . S
C1762 C1756 1.368 . S
C1762 C1761 1.523 . S
C1763 C1747 1.429 . S
C1763 C1759 1.429 . S
C1763 C1764 1.523 . S
C1764 C1748 1.368 . S
C1764 C1760 1.368 . S
C1764 C1763 1.523 . S
H1765 C1740 0.950 . S
H1766 C1742 0.950 . S
H1767 C1743 0.949 . S
H1768 C1745 0.950 . S
H1769 C1747 0.950 . S
C1770 C1771 1.349 . S
C1770 C1772 1.327 . S
C1770 H1795 0.950 . S
C1771 C1770 1.349 . S
C1771 C1787 1.349 . S
C1772 C1770 1.327 . S
C1772 C1791 1.429 . S
C1772 H1796 0.950 . S
C1773 C1790 1.574 . S
C1773 C1792 1.368 1_655 S
C1773 H1797 0.949 . S
H1774 C1778 0.949 . S
C1775 C1776 1.349 . S
C1775 C1777 1.327 . S
C1775 H1798 0.950 . S
C1776 C1775 1.349 . S
C1776 C1788 1.349 . S
C1777 C1775 1.327 . S
C1777 C1793 1.429 . S
C1777 H1799 0.950 . S
C1778 H1774 0.949 . S
C1778 C1786 1.574 . S
C1778 C1794 1.368 1_455 S
H1779 C1787 0.950 . S
H1780 C1785 0.950 . S
H1781 C1786 0.949 . S
H1782 C1788 0.950 . S
H1783 C1789 0.950 . S
H1784 C1790 0.949 . S
C1785 H1780 0.950 . S
C1785 C1787 1.327 . S
C1785 C1791 1.429 . S
C1786 C1778 1.574 . S
C1786 H1781 0.949 . S
C1786 C1792 1.368 1_556 S
C1787 C1771 1.349 . S
C1787 H1779 0.950 . S
C1787 C1785 1.327 . S
C1788 C1776 1.349 . S
C1788 H1782 0.950 . S
C1788 C1789 1.327 . S
C1789 H1783 0.950 . S
C1789 C1788 1.327 . S
C1789 C1793 1.429 . S
C1790 C1773 1.574 . S
C1790 H1784 0.949 . S
C1790 C1794 1.368 1_554 S
C1791 C1772 1.429 . S
C1791 C1785 1.429 . S
C1791 C1792 1.523 . S
C1792 C1773 1.368 1_455 S
C1792 C1786 1.368 1_554 S
C1792 C1791 1.523 . S
C1793 C1777 1.429 . S
C1793 C1789 1.429 . S
C1793 C1794 1.523 . S
C1794 C1778 1.368 1_655 S
C1794 C1790 1.368 1_556 S
C1794 C1793 1.523 . S
H1795 C1770 0.950 . S
H1796 C1772 0.950 . S
H1797 C1773 0.949 . S
H1798 C1775 0.950 . S
H1799 C1777 0.950 . S
C1800 C1801 1.349 . S
C1800 C1802 1.327 . S
C1800 H1825 0.950 . S
C1801 C1800 1.349 . S
C1801 C1817 1.349 . S
C1802 C1800 1.327 . S
C1802 C1821 1.429 . S
C1802 H1826 0.950 . S
C1803 C1820 1.574 . S
C1803 C1822 1.368 . S
C1803 H1827 0.949 . S
H1804 C1808 0.949 . S
C1805 C1806 1.349 . S
C1805 C1807 1.327 . S
C1805 H1828 0.950 . S
C1806 C1805 1.349 . S
C1806 C1818 1.349 . S
C1807 C1805 1.327 . S
C1807 C1823 1.429 . S
C1807 H1829 0.950 . S
C1808 H1804 0.949 . S
C1808 C1816 1.574 . S
C1808 C1824 1.368 . S
H1809 C1817 0.950 . S
H1810 C1815 0.950 . S
H1811 C1816 0.949 . S
H1812 C1818 0.950 . S
H1813 C1819 0.950 . S
H1814 C1820 0.949 . S
C1815 H1810 0.950 . S
C1815 C1817 1.327 . S
C1815 C1821 1.429 . S
C1816 C1808 1.574 . S
C1816 H1811 0.949 . S
C1816 C1822 1.368 . S
C1817 C1801 1.349 . S
C1817 H1809 0.950 . S
C1817 C1815 1.327 . S
C1818 C1806 1.349 . S
C1818 H1812 0.950 . S
C1818 C1819 1.327 . S
C1819 H1813 0.950 . S
C1819 C1818 1.327 . S
C1819 C1823 1.429 . S
C1820 C1803 1.574 . S
C1820 H1814 0.949 . S
C1820 C1824 1.368 . S
C1821 C1802 1.429 . S
C1821 C1815 1.429 . S
C1821 C1822 1.523 . S
C1822 C1803 1.368 . S
C1822 C1816 1.368 . S
C1822 C1821 1.523 . S
C1823 C1807 1.429 . S
C1823 C1819 1.429 . S
C1823 C1824 1.523 . S
C1824 C1808 1.368 . S
C1824 C1820 1.368 . S
C1824 C1823 1.523 . S
H1825 C1800 0.950 . S
H1826 C1802 0.950 . S
H1827 C1803 0.949 . S
H1828 C1805 0.950 . S
H1829 C1807 0.950 . S
C1830 C1831 1.349 . S
C1830 C1832 1.327 . S
C1830 H1855 0.950 . S
C1831 C1830 1.349 . S
C1831 C1847 1.349 . S
C1832 C1830 1.327 . S
C1832 C1851 1.429 . S
C1832 H1856 0.950 . S
C1833 C1850 1.574 . S
C1833 C1852 1.368 . S
C1833 H1857 0.949 . S
H1834 C1838 0.949 . S
C1835 C1836 1.349 . S
C1835 C1837 1.327 . S
C1835 H1858 0.950 . S
C1836 C1835 1.349 . S
C1836 C1848 1.349 . S
C1837 C1835 1.327 . S
C1837 C1853 1.429 . S
C1837 H1859 0.950 . S
C1838 H1834 0.949 . S
C1838 C1846 1.574 . S
C1838 C1854 1.368 . S
H1839 C1847 0.950 . S
H1840 C1845 0.950 . S
H1841 C1846 0.949 . S
H1842 C1848 0.950 . S
H1843 C1849 0.950 . S
H1844 C1850 0.949 . S
C1845 H1840 0.950 . S
C1845 C1847 1.327 . S
C1845 C1851 1.429 . S
C1846 C1838 1.574 . S
C1846 H1841 0.949 . S
C1846 C1852 1.368 . S
C1847 C1831 1.349 . S
C1847 H1839 0.950 . S
C1847 C1845 1.327 . S
C1848 C1836 1.349 . S
C1848 H1842 0.950 . S
C1848 C1849 1.327 . S
C1849 H1843 0.950 . S
C1849 C1848 1.327 . S
C1849 C1853 1.429 . S
C1850 C1833 1.574 . S
C1850 H1844 0.949 . S
C1850 C1854 1.368 . S
C1851 C1832 1.429 . S
C1851 C1845 1.429 . S
C1851 C1852 1.523 . S
C1852 C1833 1.368 . S
C1852 C1846 1.368 . S
C1852 C1851 1.523 . S
C1853 C1837 1.429 . S
C1853 C1849 1.429 . S
C1853 C1854 1.523 . S
C1854 C1838 1.368 . S
C1854 C1850 1.368 . S
C1854 C1853 1.523 . S
H1855 C1830 0.950 . S
H1856 C1832 0.950 . S
H1857 C1833 0.949 . S
H1858 C1835 0.950 . S
H1859 C1837 0.950 . S
C1860 C1861 1.349 . S
C1860 C1862 1.327 . S
C1860 H1885 0.950 . S
C1861 C1860 1.349 . S
C1861 C1877 1.349 . S
C1862 C1860 1.327 . S
C1862 C1881 1.429 . S
C1862 H1886 0.950 1_455 S
C1863 C1880 1.574 1_546 S
C1863 C1882 1.368 . S
C1863 H1887 0.949 . S
H1864 C1868 0.949 . S
C1865 C1866 1.349 . S
C1865 C1867 1.327 . S
C1865 H1888 0.950 . S
C1866 C1865 1.349 . S
C1866 C1878 1.349 . S
C1867 C1865 1.327 . S
C1867 C1883 1.429 . S
C1867 H1889 0.950 1_655 S
C1868 H1864 0.949 . S
C1868 C1876 1.574 1_564 S
C1868 C1884 1.368 . S
H1869 C1877 0.950 . S
H1870 C1875 0.950 . S
H1871 C1876 0.949 . S
H1872 C1878 0.950 . S
H1873 C1879 0.950 . S
H1874 C1880 0.949 . S
C1875 H1870 0.950 . S
C1875 C1877 1.327 . S
C1875 C1881 1.429 . S
C1876 C1868 1.574 1_546 S
C1876 H1871 0.949 . S
C1876 C1882 1.368 1_655 S
C1877 C1861 1.349 . S
C1877 H1869 0.950 . S
C1877 C1875 1.327 . S
C1878 C1866 1.349 . S
C1878 H1872 0.950 . S
C1878 C1879 1.327 . S
C1879 H1873 0.950 . S
C1879 C1878 1.327 . S
C1879 C1883 1.429 . S
C1880 C1863 1.574 1_564 S
C1880 H1874 0.949 . S
C1880 C1884 1.368 1_455 S
C1881 C1862 1.429 . S
C1881 C1875 1.429 . S
C1881 C1882 1.523 . S
C1882 C1863 1.368 . S
C1882 C1876 1.368 1_455 S
C1882 C1881 1.523 . S
C1883 C1867 1.429 . S
C1883 C1879 1.429 . S
C1883 C1884 1.523 . S
C1884 C1868 1.368 . S
C1884 C1880 1.368 1_655 S
C1884 C1883 1.523 . S
H1885 C1860 0.950 . S
H1886 C1862 0.950 1_655 S
H1887 C1863 0.949 . S
H1888 C1865 0.950 . S
H1889 C1867 0.950 1_455 S
C1890 C1891 1.349 . S
C1890 C1892 1.327 . S
C1890 H1915 0.950 . S
C1891 C1890 1.349 . S
C1891 C1907 1.349 . S
C1892 C1890 1.327 . S
C1892 C1911 1.429 . S
C1892 H1916 0.950 . S
C1893 C1910 1.574 . S
C1893 C1912 1.368 . S
C1893 H1917 0.949 . S
H1894 C1898 0.949 . S
C1895 C1896 1.349 . S
C1895 C1897 1.327 . S
C1895 H1918 0.950 . S
C1896 C1895 1.349 . S
C1896 C1908 1.349 . S
C1897 C1895 1.327 . S
C1897 C1913 1.429 . S
C1897 H1919 0.950 . S
C1898 H1894 0.949 . S
C1898 C1906 1.574 . S
C1898 C1914 1.368 . S
H1899 C1907 0.950 . S
H1900 C1905 0.950 . S
H1901 C1906 0.949 . S
H1902 C1908 0.950 . S
H1903 C1909 0.950 . S
H1904 C1910 0.949 . S
C1905 H1900 0.950 . S
C1905 C1907 1.327 . S
C1905 C1911 1.429 . S
C1906 C1898 1.574 . S
C1906 H1901 0.949 . S
C1906 C1912 1.368 1_565 S
C1907 C1891 1.349 . S
C1907 H1899 0.950 . S
C1907 C1905 1.327 . S
C1908 C1896 1.349 . S
C1908 H1902 0.950 . S
C1908 C1909 1.327 . S
C1909 H1903 0.950 . S
C1909 C1908 1.327 . S
C1909 C1913 1.429 . S
C1910 C1893 1.574 . S
C1910 H1904 0.949 . S
C1910 C1914 1.368 1_545 S
C1911 C1892 1.429 . S
C1911 C1905 1.429 . S
C1911 C1912 1.523 . S
C1912 C1893 1.368 . S
C1912 C1906 1.368 1_545 S
C1912 C1911 1.523 . S
C1913 C1897 1.429 . S
C1913 C1909 1.429 . S
C1913 C1914 1.523 . S
C1914 C1898 1.368 . S
C1914 C1910 1.368 1_565 S
C1914 C1913 1.523 . S
H1915 C1890 0.950 . S
H1916 C1892 0.950 . S
H1917 C1893 0.949 . S
H1918 C1895 0.950 . S
H1919 C1897 0.950 . S
C481 N14 0.725 . S
C486 C316 0.726 . S
C511 N44 0.563 . S
C516 N344 0.564 . S
C541 C76 0.726 . S
C546 N254 0.725 . S
C571 N104 0.564 . S
C576 N284 0.562 . S
C601 N126 0.725 . S
C606 C447 0.726 . S
C631 N156 0.563 . S
C636 N456 0.564 . S
C661 C207 0.726 . S
C666 N366 0.725 . S
C691 N216 0.564 . S
C696 N396 0.562 . S
C721 C280 1.111 . S
C726 N6 1.070 . S
C751 C301 1.054 . S
C756 N36 1.012 . S
C781 C340 1.053 . S
C786 C87 1.078 . S
C811 C250 1.530 . S
C816 N96 1.483 . S
C841 N134 1.070 . S
C846 C391 1.111 . S
C871 C430 1.054 . S
C876 N164 1.012 . S
C901 C451 1.053 . S
C906 C196 1.078 . S
C931 C361 1.530 . S
C936 N224 1.483 . S
C961 C40 1.111 . S
C966 N246 1.070 . S
C991 N276 1.012 . S
C996 C61 1.055 . S
C1021 C327 1.077 . S
C1026 C100 1.052 . S
C1051 N336 1.483 . S
C1056 C10 1.530 . S
C1081 N374 1.070 . S
C1086 C151 1.111 . S
C1111 C190 1.055 . S
C1116 N404 1.012 . S
C1141 C211 1.052 . S
C1146 C436 1.077 . S
C1171 N464 1.483 . S
C1176 C121 1.530 . S
C1201 C27 1.456 . S
C1206 C460 1.418 . S
C1231 C57 1.559 . S
C1236 C130 1.546 1_554 S
C1261 C400 0.793 . S
C1266 N66 0.794 . S
C1291 C181 1.559 . S
C1296 C117 1.588 . S
C1321 C136 1.456 . S
C1326 C331 1.418 . S
C1351 C166 1.559 . S
C1356 C1 1.546 1_556 S
C1381 C271 0.793 . S
C1386 N194 0.794 . S
C1411 C70 1.559 . S
C1416 C226 1.588 . S
C1441 C267 1.456 . S
C1446 C220 1.418 . S
C1471 C297 1.559 . S
C1476 C370 1.546 . S
C1501 C160 0.794 . S
C1506 N306 0.795 . S
C1531 C421 1.559 . S
C1536 C357 1.588 . S
C1561 C376 1.456 . S
C1566 C91 1.418 . S
C1591 C406 1.559 . S
C1596 C241 1.546 . S
C1621 N434 0.795 . S
C1626 C31 0.794 . S
C1651 C310 1.559 . S
C1656 C466 1.588 . S
C1681 C16 2.294 . S
C1686 C387 2.294 . S
C1711 C46 1.641 . S
C1716 C177 1.641 . S
C1741 N74 1.472 . S
C1746 N426 1.472 . S
C1771 C237 2.409 . S
C1776 C106 2.409 . S
C1801 C147 2.294 . S
C1806 C256 2.294 . S
C1831 N314 1.472 . S
C1836 N186 1.472 . S
C1861 C286 1.641 . S
C1866 C417 1.641 . S
C1891 C477 2.409 . S
C1896 C346 2.409 . S
