# Generated by pormake.
# Topology ecf, (8)-cn, num edge types: 1
# Building blocks:
#     Node 0, Type 0, BuildingBlock: TAGTUT_clean_sbu_3, # of connection points: 8
#     Node 1, Type 0, BuildingBlock: TAGTUT_clean_sbu_3, # of connection points: 8
#     Node 2, Type 0, BuildingBlock: TAGTUT_clean_sbu_3, # of connection points: 8
#     Node 3, Type 0, BuildingBlock: TAGTUT_clean_sbu_3, # of connection points: 8
#     Node 4, Type 0, BuildingBlock: TAGTUT_clean_sbu_3, # of connection points: 8
#     Node 5, Type 0, BuildingBlock: TAGTUT_clean_sbu_3, # of connection points: 8
#     Edge 6, Type (0, 0), BuildingBlock: TEMPAE_clean_linker_10, # of connection points: 2
#     Edge 7, Type (0, 0), BuildingBlock: TEMPAE_clean_linker_10, # of connection points: 2
#     Edge 8, Type (0, 0), BuildingBlock: TEMPAE_clean_linker_10, # of connection points: 2
#     Edge 9, Type (0, 0), BuildingBlock: TEMPAE_clean_linker_10, # of connection points: 2
#     Edge 10, Type (0, 0), BuildingBlock: TEMPAE_clean_linker_10, # of connection points: 2
#     Edge 11, Type (0, 0), BuildingBlock: TEMPAE_clean_linker_10, # of connection points: 2
#     Edge 12, Type (0, 0), BuildingBlock: TEMPAE_clean_linker_10, # of connection points: 2
#     Edge 13, Type (0, 0), BuildingBlock: TEMPAE_clean_linker_10, # of connection points: 2
#     Edge 14, Type (0, 0), BuildingBlock: TEMPAE_clean_linker_10, # of connection points: 2
#     Edge 15, Type (0, 0), BuildingBlock: TEMPAE_clean_linker_10, # of connection points: 2
#     Edge 16, Type (0, 0), BuildingBlock: TEMPAE_clean_linker_10, # of connection points: 2
#     Edge 17, Type (0, 0), BuildingBlock: TEMPAE_clean_linker_10, # of connection points: 2
#     Edge 18, Type (0, 0), BuildingBlock: TEMPAE_clean_linker_10, # of connection points: 2
#     Edge 19, Type (0, 0), BuildingBlock: TEMPAE_clean_linker_10, # of connection points: 2
#     Edge 20, Type (0, 0), BuildingBlock: TEMPAE_clean_linker_10, # of connection points: 2
#     Edge 21, Type (0, 0), BuildingBlock: TEMPAE_clean_linker_10, # of connection points: 2
#     Edge 22, Type (0, 0), BuildingBlock: TEMPAE_clean_linker_10, # of connection points: 2
#     Edge 23, Type (0, 0), BuildingBlock: TEMPAE_clean_linker_10, # of connection points: 2
#     Edge 24, Type (0, 0), BuildingBlock: TEMPAE_clean_linker_10, # of connection points: 2
#     Edge 25, Type (0, 0), BuildingBlock: TEMPAE_clean_linker_10, # of connection points: 2
#     Edge 26, Type (0, 0), BuildingBlock: TEMPAE_clean_linker_10, # of connection points: 2
#     Edge 27, Type (0, 0), BuildingBlock: TEMPAE_clean_linker_10, # of connection points: 2
#     Edge 28, Type (0, 0), BuildingBlock: TEMPAE_clean_linker_10, # of connection points: 2
#     Edge 29, Type (0, 0), BuildingBlock: TEMPAE_clean_linker_10, # of connection points: 2
# Relax obj value: 0.240
# Max RMSD: 0.186
# Mean RMSD: 0.186
data_MOF--net-ecf--node1-TAGTUT_clean_sbu_3--edge1-TEMPAE_clean_linker_10
_symmetry_space_group_name_H-M    P1
_symmetry_Int_Tables_number       1
_symmetry_cell_setting            triclinic
loop_
_symmetry_equiv_pos_as_xyz
'x, y, z'
_cell_length_a     33.871358
_cell_length_b     33.872789
_cell_length_c     27.365316
_cell_angle_alpha  90.02299
_cell_angle_beta   89.892984
_cell_angle_gamma 119.98782
loop_
_atom_site_label
_atom_site_type_symbol
_atom_site_fract_x
_atom_site_fract_y
_atom_site_fract_z
_atom_type_partial_charge
C0 C 0.1477 0.32705 0.16696 0.0
C1 C 0.03831 0.22989 0.30513 0.0
C2 C 0.15745 0.30317 0.39671 0.0
Mg3 Mg 0.26437 0.38423 0.17488 0.0
Mg4 Mg 0.3262 0.36291 0.25606 0.0
O5 O 0.27414 0.3673 0.24208 0.0
Mg6 Mg 0.21136 0.32055 0.25533 0.0
O7 O 0.14595 0.27787 0.26887 0.0
Mg8 Mg 0.13253 0.3281 0.28609 0.0
Mg9 Mg 0.13055 0.23232 0.31596 0.0
C10 C 0.27487 0.31046 0.35188 0.0
O11 O 0.21948 0.26197 0.2331 0.0
O12 O 0.3393 0.44396 0.1823 0.0
O13 O 0.16856 0.20389 0.28022 0.0
O14 O 0.28677 0.33417 0.14311 0.0
O15 O 0.37703 0.43182 0.24263 0.0
O16 O 0.32553 0.32054 0.20056 0.0
O17 O 0.20415 0.38179 0.27494 0.0
O18 O 0.24097 0.42833 0.21246 0.0
C19 C 0.2163 0.41869 0.25087 0.0
C20 C 0.3744 0.45738 0.20995 0.0
O21 O 0.23732 0.30694 0.33497 0.0
O22 O 0.06009 0.27244 0.29574 0.0
O23 O 0.31207 0.33095 0.32742 0.0
O24 O 0.14743 0.32594 0.36702 0.0
O25 O 0.05792 0.20647 0.31331 0.0
O26 O 0.15537 0.26595 0.38432 0.0
O27 O 0.18534 0.32586 0.17451 0.0
O28 O 0.12482 0.32885 0.2035 0.0
C29 C 0.30781 0.31375 0.15833 0.0
C30 C 0.20077 0.22099 0.24823 0.0
C31 C 0.79004 0.21959 0.74637 0.0
C32 C 0.91221 0.37807 0.71019 0.0
C33 C 0.98992 0.31057 0.66138 0.0
Mg34 Mg 0.79228 0.13681 0.78666 0.0
Mg35 Mg 0.88286 0.13117 0.82176 0.0
O36 O 0.85595 0.14799 0.77277 0.0
Mg37 Mg 0.88217 0.21391 0.75812 0.0
O38 O 0.90093 0.27716 0.74302 0.0
Mg39 Mg 0.8758 0.26789 0.67513 0.0
Mg40 Mg 0.95723 0.32905 0.75778 0.0
C41 C 0.96804 0.19768 0.7563 0.0
O42 O 0.92046 0.24025 0.83871 0.0
O43 O 0.77206 0.06298 0.798 0.0
O44 O 0.97322 0.31424 0.82951 0.0
O45 O 0.80664 0.1522 0.86841 0.0
O46 O 0.83402 0.05915 0.82019 0.0
O47 O 0.87375 0.15892 0.88754 0.0
O48 O 0.85355 0.18821 0.67635 0.0
O49 O 0.78785 0.12891 0.70389 0.0
C50 C 0.81459 0.15089 0.66815 0.0
C51 C 0.79142 0.04037 0.81008 0.0
O52 O 0.94834 0.21852 0.73964 0.0
O53 O 0.89121 0.34324 0.68195 0.0
O54 O 0.95022 0.16544 0.78813 0.0
O55 O 0.94868 0.28961 0.64565 0.0
O56 O 0.93953 0.38022 0.74366 0.0
O57 O 0.00034 0.32849 0.70357 0.0
O58 O 0.81401 0.20922 0.77405 0.0
O59 O 0.80722 0.24464 0.70864 0.0
C60 C 0.83907 0.1623 0.89868 0.0
C61 C 0.95535 0.27759 0.85495 0.0
C62 C 0.65642 0.82004 0.16548 0.0
C63 C 0.74566 0.79343 0.30282 0.0
C64 C 0.67339 0.84085 0.3961 0.0
Mg65 Mg 0.60066 0.88126 0.17743 0.0
Mg66 Mg 0.62373 0.96127 0.26255 0.0
O67 O 0.61875 0.90541 0.2454 0.0
Mg68 Mg 0.66302 0.88608 0.25811 0.0
O69 O 0.70262 0.85923 0.26997 0.0
Mg70 Mg 0.65007 0.79549 0.28331 0.0
Mg71 Mg 0.74731 0.88508 0.31814 0.0
C72 C 0.67405 0.95747 0.35756 0.0
O73 O 0.72456 0.95236 0.23991 0.0
O74 O 0.54032 0.89653 0.18783 0.0
O75 O 0.78033 0.9529 0.28571 0.0
O76 O 0.65096 0.95468 0.14849 0.0
O77 O 0.55454 0.94217 0.25306 0.0
O78 O 0.66507 0.00548 0.20793 0.0
O79 O 0.59958 0.81782 0.27381 0.0
O80 O 0.5561 0.81221 0.21009 0.0
C81 C 0.56461 0.79443 0.24677 0.0
C82 C 0.52783 0.91611 0.21975 0.0
O83 O 0.6762 0.92281 0.33995 0.0
O84 O 0.70348 0.77454 0.29174 0.0
O85 O 0.65543 0.97608 0.3333 0.0
O86 O 0.65047 0.80884 0.36555 0.0
O87 O 0.76987 0.83584 0.31365 0.0
O88 O 0.71153 0.87543 0.38492 0.0
O89 O 0.65842 0.85892 0.17545 0.0
O90 O 0.65206 0.79241 0.20009 0.0
C91 C 0.67139 -0.00426 0.16489 0.0
C92 C 0.76548 0.97148 0.2554 0.0
C93 C 0.76612 0.57011 0.7458 0.0
C94 C 0.60707 0.53174 0.72016 0.0
C95 C 0.6691 0.67491 0.66519 0.0
Mg96 Mg 0.84942 0.65597 0.78302 0.0
Mg97 Mg 0.85572 0.75201 0.81966 0.0
O98 O 0.83784 0.70838 0.77019 0.0
Mg99 Mg 0.77154 0.66837 0.75802 0.0
O100 O 0.70807 0.62363 0.74542 0.0
Mg101 Mg 0.71427 0.60541 0.6774 0.0
Mg102 Mg 0.65675 0.62788 0.7631 0.0
C103 C 0.78742 0.77083 0.75816 0.0
O104 O 0.74792 0.68096 0.83973 0.0
O105 O 0.92325 0.70971 0.79254 0.0
O106 O 0.67361 0.65954 0.83419 0.0
O107 O 0.83578 0.65516 0.86509 0.0
O108 O 0.92772 0.77552 0.81581 0.0
O109 O 0.82933 0.71542 0.88591 0.0
O110 O 0.794 0.66407 0.67511 0.0
O111 O 0.85487 0.65899 0.69991 0.0
C112 C 0.83139 0.66296 0.66531 0.0
C113 C 0.94625 0.75169 0.80449 0.0
O114 O 0.76616 0.7303 0.7412 0.0
O115 O 0.63909 0.54453 0.68812 0.0
O116 O 0.82062 0.78507 0.78866 0.0
O117 O 0.69006 0.65473 0.64903 0.0
O118 O 0.60742 0.55829 0.75358 0.0
O119 O 0.6531 0.66884 0.70829 0.0
O120 O 0.77707 0.60498 0.77288 0.0
O121 O 0.73981 0.56132 0.70915 0.0
C122 C 0.82613 0.67728 0.8962 0.0
C123 C 0.71115 0.67848 0.85788 0.0
C124 C 0.16256 0.83479 0.1636 0.0
C125 C 0.17841 0.94967 0.29731 0.0
C126 C 0.13212 0.83287 0.39318 0.0
Mg127 Mg 0.10464 0.71798 0.17737 0.0
Mg128 Mg 0.02322 0.66032 0.26175 0.0
O129 O 0.07853 0.71189 0.24446 0.0
Mg130 Mg 0.0945 0.77485 0.25482 0.0
O131 O 0.11753 0.84074 0.26514 0.0
Mg132 Mg 0.1813 0.85442 0.28207 0.0
Mg133 Mg 0.08847 0.85853 0.31119 0.0
C134 C 0.0235 0.71503 0.35463 0.0
O135 O 0.0266 0.76606 0.23377 0.0
O136 O 0.09087 0.64341 0.18949 0.0
O137 O 0.02168 0.82031 0.27709 0.0
O138 O 0.03144 0.69233 0.14638 0.0
O139 O 0.04429 0.61166 0.25415 0.0
O140 O 0.9799 0.6554 0.20536 0.0
O141 O 0.16376 0.78297 0.27374 0.0
O142 O 0.17315 0.74407 0.21342 0.0
C143 C 0.18865 0.77053 0.25033 0.0
C144 C 0.07117 0.61148 0.22146 0.0
O145 O 0.05695 0.75201 0.33589 0.0
O146 O 0.19851 0.92705 0.28902 0.0
O147 O 0.00633 0.67704 0.33185 0.0
O148 O 0.16474 0.84175 0.3635 0.0
O149 O 0.13551 0.93086 0.30592 0.0
O150 O 0.0973 0.83537 0.38048 0.0
O151 O 0.12409 0.79712 0.17267 0.0
O152 O 0.18797 0.859 0.19906 0.0
C153 C 0.9901 0.67079 0.16208 0.0
C154 C 0.0052 0.78626 0.24747 0.0
C155 C 0.41405 0.19228 0.74805 0.0
C156 C 0.453 0.07202 0.71029 0.0
C157 C 0.30956 -0.00532 0.65798 0.0
Mg158 Mg 0.32348 0.18506 0.78341 0.0
Mg159 Mg 0.2281 0.09176 0.81485 0.0
O160 O 0.27316 0.12116 0.76705 0.0
Mg161 Mg 0.31579 0.09823 0.75405 0.0
O162 O 0.36267 0.08218 0.74132 0.0
Mg163 Mg 0.37997 0.10862 0.6739 0.0
Mg164 Mg 0.35812 0.02569 0.75577 0.0
C165 C 0.21546 0.00872 0.74938 0.0
O166 O 0.30247 0.05957 0.83417 0.0
O167 O 0.26787 0.20177 0.79327 0.0
O168 O 0.32606 0.00843 0.82713 0.0
O169 O 0.32195 0.16893 0.86471 0.0
O170 O 0.20208 0.13831 0.81223 0.0
O171 O 0.26216 0.10106 0.88279 0.0
O172 O 0.32118 0.12866 0.67267 0.0
O173 O 0.32336 0.19218 0.70058 0.0
C174 C 0.32176 0.16711 0.66454 0.0
C175 C 0.22546 0.18121 0.80339 0.0
O176 O 0.25636 0.0305 0.73352 0.0
O177 O 0.4398 0.09365 0.68225 0.0
O178 O 0.19892 0.02484 0.7808 0.0
O179 O 0.33028 0.03614 0.64277 0.0
O180 O 0.42716 0.04381 0.74286 0.0
O181 O 0.31585 0.98362 0.70038 0.0
O182 O 0.37723 0.16737 0.77228 0.0
O183 O 0.42407 0.17684 0.71028 0.0
C184 C 0.29935 0.13635 0.89477 0.0
C185 C 0.30579 0.02549 0.85138 0.0
C186 C 0.22013 0.49349 0.25666 0.0
C187 C 0.19408 0.4459 0.25933 0.0
C188 C 0.19908 0.52003 0.25338 0.0
C189 C 0.15095 0.49813 0.25084 0.0
C190 C 0.1245 0.45022 0.25508 0.0
C191 C 0.14646 0.42478 0.26007 0.0
C192 C 0.22834 0.57127 0.25074 0.0
C193 C 0.07312 0.42555 0.25124 0.0
C194 C 0.09165 0.56555 0.27479 0.0
C195 C 0.08705 0.57851 0.22737 0.0
C196 C 0.11272 0.53969 0.28294 0.0
C197 C 0.12819 0.52516 0.24257 0.0
C198 C 0.12207 0.53655 0.1944 0.0
C199 C 0.10228 0.56397 0.18739 0.0
C200 C 0.11989 0.52933 0.33483 0.0
C201 C 0.13688 0.52024 0.15043 0.0
H202 H 0.25701 0.50981 0.25558 0.0
H203 H 0.12602 0.38824 0.26087 0.0
H204 H 0.22555 0.58329 0.21389 0.0
H205 H 0.21627 0.58752 0.27754 0.0
H206 H 0.26483 0.58304 0.25803 0.0
H207 H 0.05751 0.38821 0.2569 0.0
H208 H 0.0586 0.43902 0.27849 0.0
H209 H 0.06318 0.43149 0.21453 0.0
H210 H 0.08077 0.57756 0.30592 0.0
H211 H 0.09889 0.57418 0.15081 0.0
H212 H 0.15687 0.54396 0.34185 0.0
H213 H 0.10348 0.49198 0.34039 0.0
H214 H 0.1059 0.54335 0.36219 0.0
H215 H 0.12695 0.52956 0.11549 0.0
H216 H 0.12157 0.48264 0.15182 0.0
H217 H 0.17443 0.53527 0.15073 0.0
C218 C 0.51725 0.05889 0.73207 0.0
C219 C 0.50202 0.0869 0.71171 0.0
C220 C 0.56385 0.07565 0.74051 0.0
C221 C 0.5955 0.12174 0.72955 0.0
C222 C 0.5803 0.14993 0.70846 0.0
C223 C 0.53384 0.13197 0.69916 0.0
C224 C 0.57917 0.04429 0.76145 0.0
C225 C 0.613 0.19943 0.69665 0.0
C226 C 0.71337 0.18638 0.78629 0.0
C227 C 0.74031 0.1902 0.74588 0.0
C228 C 0.66554 0.16227 0.78241 0.0
C229 C 0.64495 0.14052 0.73768 0.0
C230 C 0.67236 0.14157 0.6982 0.0
C231 C 0.71965 0.16729 0.70244 0.0
C232 C 0.63727 0.1625 0.82494 0.0
C233 C 0.65192 0.11771 0.65042 0.0
H234 H 0.49268 0.02408 0.74199 0.0
H235 H 0.52224 0.15406 0.68424 0.0
H236 H 0.60482 0.04331 0.73696 0.0
H237 H 0.59586 0.05741 0.7973 0.0
H238 H 0.55038 0.00898 0.76648 0.0
H239 H 0.59527 0.21732 0.68288 0.0
H240 H 0.63271 0.21746 0.72971 0.0
H241 H 0.63779 0.20199 0.66851 0.0
H242 H 0.7296 0.20416 0.81979 0.0
H243 H 0.74063 0.17016 0.67118 0.0
H244 H 0.60912 0.12751 0.83278 0.0
H245 H 0.62155 0.18344 0.81544 0.0
H246 H 0.65796 0.17672 0.85857 0.0
H247 H 0.62319 0.08273 0.65704 0.0
H248 H 0.67746 0.11552 0.62675 0.0
H249 H 0.63821 0.13666 0.63027 0.0
C250 C 0.45225 0.52175 0.22976 0.0
C251 C 0.40847 0.50639 0.21095 0.0
C252 C 0.4822 0.56838 0.2379 0.0
C253 C 0.46732 0.59991 0.22832 0.0
C254 C 0.42334 0.58457 0.20882 0.0
C255 C 0.39473 0.53809 0.19969 0.0
C256 C 0.52949 0.58386 0.25706 0.0
C257 C 0.40601 0.61712 0.19862 0.0
C258 C 0.52183 0.7175 0.28608 0.0
C259 C 0.54389 0.74468 0.24547 0.0
C260 C 0.49801 0.66971 0.28181 0.0
C261 C 0.498 0.64937 0.23643 0.0
C262 C 0.52325 0.677 0.19658 0.0
C263 C 0.54497 0.72428 0.2013 0.0
C264 C 0.47065 0.6412 0.32478 0.0
C265 C 0.52543 0.65681 0.14807 0.0
H266 H 0.46284 0.49724 0.2387 0.0
H267 H 0.36061 0.52636 0.18602 0.0
H268 H 0.55536 0.60972 0.23213 0.0
H269 H 0.53394 0.60034 0.29323 0.0
H270 H 0.53635 0.55519 0.2609 0.0
H271 H 0.37004 0.59928 0.18599 0.0
H272 H 0.40848 0.63671 0.23212 0.0
H273 H 0.4274 0.64202 0.17017 0.0
H274 H 0.52124 0.73354 0.32015 0.0
H275 H 0.56236 0.74547 0.16992 0.0
H276 H 0.47795 0.61321 0.3316 0.0
H277 H 0.43376 0.62527 0.3164 0.0
H278 H 0.47779 0.66175 0.35865 0.0
H279 H 0.53216 0.62825 0.15356 0.0
H280 H 0.55234 0.68253 0.12379 0.0
H281 H 0.49218 0.64291 0.12915 0.0
C282 C 0.85286 0.39968 0.6969 0.0
C283 C 0.89757 0.41254 0.71059 0.0
C284 C 0.83493 0.42844 0.70545 0.0
C285 C 0.8628 0.47173 0.72694 0.0
C286 C 0.90864 0.48585 0.73879 0.0
C287 C 0.92532 0.45576 0.73113 0.0
C288 C 0.78569 0.41188 0.69273 0.0
C289 C 0.93979 0.53242 0.76006 0.0
C290 C 0.81821 0.55172 0.70119 0.0
C291 C 0.79535 0.54946 0.74478 0.0
C292 C 0.84332 0.52945 0.69634 0.0
C293 C 0.84383 0.50238 0.73533 0.0
C294 C 0.82193 0.50103 0.78014 0.0
C295 C 0.79844 0.52539 0.78463 0.0
C296 C 0.86736 0.53316 0.64854 0.0
C297 C 0.821 0.47177 0.82217 0.0
H298 H 0.83093 0.36605 0.68178 0.0
H299 H 0.95986 0.46578 0.7419 0.0
H300 H 0.76701 0.41288 0.72563 0.0
H301 H 0.78365 0.43467 0.66501 0.0
H302 H 0.76812 0.37656 0.6781 0.0
H303 H 0.97514 0.53903 0.76499 0.0
H304 H 0.94072 0.55917 0.73589 0.0
H305 H 0.92654 0.53565 0.79603 0.0
H306 H 0.81574 0.57038 0.67029 0.0
H307 H 0.78058 0.52365 0.8182 0.0
H308 H 0.8485 0.50066 0.62811 0.0
H309 H 0.90229 0.5393 0.65518 0.0
H310 H 0.86971 0.56107 0.62514 0.0
H311 H 0.80045 0.4353 0.8118 0.0
H312 H 0.80604 0.47748 0.85574 0.0
H313 H 0.8559 0.47867 0.83052 0.0
C314 C 0.26452 0.84153 0.25546 0.0
C315 C 0.23846 0.79388 0.25752 0.0
C316 C 0.31194 0.86379 0.24961 0.0
C317 C 0.33402 0.83776 0.24742 0.0
C318 C 0.30824 0.78976 0.25255 0.0
C319 C 0.26062 0.76833 0.25658 0.0
C320 C 0.33804 0.91493 0.24298 0.0
C321 C 0.33077 0.76094 0.2522 0.0
C322 C 0.44921 0.88433 0.18484 0.0
C323 C 0.47885 0.90102 0.22481 0.0
C324 C 0.40191 0.86497 0.19144 0.0
C325 C 0.38403 0.86076 0.23928 0.0
C326 C 0.4139 0.87793 0.2796 0.0
C327 C 0.46092 0.89851 0.27178 0.0
C328 C 0.37105 0.84838 0.14739 0.0
C329 C 0.39613 0.87291 0.33126 0.0
H330 H 0.24804 0.86162 0.25494 0.0
H331 H 0.24048 0.73142 0.25763 0.0
H332 H 0.36596 0.93098 0.2701 0.0
H333 H 0.35398 0.92338 0.20617 0.0
H334 H 0.31589 0.93029 0.24679 0.0
H335 H 0.30639 0.72466 0.26091 0.0
H336 H 0.34575 0.76262 0.21566 0.0
H337 H 0.35903 0.77428 0.27909 0.0
H338 H 0.46295 0.8861 0.14858 0.0
H339 H 0.48355 0.91055 0.30304 0.0
H340 H 0.34837 0.86327 0.1472 0.0
H341 H 0.34893 0.81081 0.14913 0.0
H342 H 0.39051 0.85735 0.11254 0.0
H343 H 0.37481 0.88914 0.33486 0.0
H344 H 0.42401 0.88838 0.35861 0.0
H345 H 0.37409 0.83624 0.34012 0.0
C346 C 0.48849 0.26403 0.75336 0.0
C347 C 0.44083 0.24202 0.75556 0.0
C348 C 0.51473 0.31168 0.74979 0.0
C349 C 0.49257 0.33765 0.74639 0.0
C350 C 0.44453 0.31569 0.74977 0.0
C351 C 0.41935 0.26822 0.75514 0.0
C352 C 0.56604 0.33405 0.74812 0.0
C353 C 0.41952 0.34199 0.74493 0.0
C354 C 0.55923 0.46434 0.77208 0.0
C355 C 0.57361 0.48267 0.72509 0.0
C356 C 0.53304 0.41724 0.7795 0.0
C357 C 0.51954 0.38772 0.73877 0.0
C358 C 0.53226 0.40602 0.69097 0.0
C359 C 0.55998 0.45337 0.68474 0.0
C360 C 0.52135 0.39903 0.83108 0.0
C361 C 0.5171 0.37554 0.64654 0.0
H362 H 0.50515 0.24377 0.7531 0.0
H363 H 0.38278 0.25183 0.75557 0.0
H364 H 0.57865 0.34939 0.71156 0.0
H365 H 0.58157 0.36203 0.77533 0.0
H366 H 0.57799 0.30949 0.75553 0.0
H367 H 0.38206 0.31988 0.7494 0.0
H368 H 0.43193 0.3696 0.77253 0.0
H369 H 0.4264 0.35835 0.70839 0.0
H370 H 0.57041 0.48674 0.80358 0.0
H371 H 0.57119 0.46744 0.64846 0.0
H372 H 0.536 0.37676 0.8386 0.0
H373 H 0.48389 0.37785 0.83554 0.0
H374 H 0.53448 0.42667 0.85879 0.0
H375 H 0.53246 0.35331 0.64705 0.0
H376 H 0.527 0.3953 0.6119 0.0
H377 H 0.47953 0.35296 0.64706 0.0
C378 C 0.19748 0.15486 0.20765 0.0
C379 C 0.22207 0.19489 0.23418 0.0
C380 C 0.21115 0.12228 0.20793 0.0
C381 C 0.24849 0.12986 0.23784 0.0
C382 C 0.27798 0.17374 0.25676 0.0
C383 C 0.2642 0.20625 0.25468 0.0
C384 C 0.18033 0.07669 0.18438 0.0
C385 C 0.31953 0.18416 0.2864 0.0
C386 C 0.194 0.02733 0.31676 0.0
C387 C 0.20529 -0.00109 0.29097 0.0
C388 C 0.21389 0.07324 0.30427 0.0
C389 C 0.24424 0.08996 0.26376 0.0
C390 C 0.25997 0.06274 0.24179 0.0
C391 C 0.24027 0.01715 0.25589 0.0
C392 C 0.19849 0.10226 0.3311 0.0
C393 C 0.29425 0.08035 0.20062 0.0
H394 H 0.16556 0.14731 0.19061 0.0
H395 H 0.28368 0.23832 0.27395 0.0
H396 H 0.20022 0.06168 0.16915 0.0
H397 H 0.15655 0.05282 0.21228 0.0
H398 H 0.15977 0.0797 0.15456 0.0
H399 H 0.34751 0.21933 0.27858 0.0
H400 H 0.31125 0.18248 0.32589 0.0
H401 H 0.33169 0.15983 0.27894 0.0
H402 H 0.1681 0.01319 0.34506 0.0
H403 H 0.24973 -0.00494 0.23672 0.0
H404 H 0.176 0.10883 0.30714 0.0
H405 H 0.22818 0.13558 0.34125 0.0
H406 H 0.17926 0.0855 0.36499 0.0
H407 H 0.27799 0.08347 0.16685 0.0
H408 H 0.30803 0.05732 0.19292 0.0
H409 H 0.32294 0.11468 0.20956 0.0
C410 C 0.02915 0.18695 0.72278 0.0
C411 C 0.01535 0.21565 0.74336 0.0
C412 C 0.07507 0.19952 0.72319 0.0
C413 C 0.10644 0.24034 0.74732 0.0
C414 C 0.09347 0.27242 0.76105 0.0
C415 C 0.04743 0.25961 0.75864 0.0
C416 C 0.0886 0.16594 0.70466 0.0
C417 C 0.12646 0.31718 0.78462 0.0
C418 C 0.16517 0.19817 0.82731 0.0
C419 C 0.20214 0.20713 0.79758 0.0
C420 C 0.13711 0.2159 0.81524 0.0
C421 C 0.14555 0.24102 0.77117 0.0
C422 C 0.18611 0.25483 0.74466 0.0
C423 C 0.21441 0.23791 0.75856 0.0
C424 C 0.09544 0.20288 0.84635 0.0
C425 C 0.19719 0.28265 0.69849 0.0
H426 H 0.0038 0.15349 0.70976 0.0
H427 H 0.0361 0.28199 0.77352 0.0
H428 H 0.12129 0.18384 0.68437 0.0
H429 H 0.09331 0.14799 0.73608 0.0
H430 H 0.06223 0.13999 0.68022 0.0
H431 H 0.11713 0.34355 0.77615 0.0
H432 H 0.12496 0.31275 0.8249 0.0
H433 H 0.16201 0.32946 0.77249 0.0
H434 H 0.15689 0.17547 0.85838 0.0
H435 H 0.24379 0.24547 0.73607 0.0
H436 H 0.0647 0.17598 0.82756 0.0
H437 H 0.09063 0.23262 0.85205 0.0
H438 H 0.09787 0.1896 0.88268 0.0
H439 H 0.18719 0.25956 0.66645 0.0
H440 H 0.23445 0.30669 0.69573 0.0
H441 H 0.17902 0.30215 0.69666 0.0
C442 C 0.97054 0.21868 0.26014 0.0
C443 C 0.98906 0.2065 0.2992 0.0
C444 C 0.92538 0.19019 0.24604 0.0
C445 C 0.89875 0.14953 0.27241 0.0
C446 C 0.91536 0.14125 0.31658 0.0
C447 C 0.96106 0.16947 0.32882 0.0
C448 C 0.90868 0.20114 0.19976 0.0
C449 C 0.88677 0.0995 0.34756 0.0
C450 C 0.78251 0.0508 0.25823 0.0
C451 C 0.79488 0.01898 0.24313 0.0
C452 C 0.8155 0.09689 0.26128 0.0
C453 C 0.86079 0.11021 0.24825 0.0
C454 C 0.87089 0.07916 0.22435 0.0
C455 C 0.83777 0.03317 0.22336 0.0
C456 C 0.80314 0.12954 0.28474 0.0
C457 C 0.91833 0.0931 0.20655 0.0
H458 H -0.00767 0.24812 0.23775 0.0
H459 H 0.97545 0.16125 0.35992 0.0
H460 H 0.92302 0.1924 0.16778 0.0
H461 H 0.871 0.18207 0.19701 0.0
H462 H 0.9209 0.23825 0.19771 0.0
H463 H 0.90215 0.10219 0.38411 0.0
H464 H 0.85197 0.0942 0.35273 0.0
H465 H 0.8836 0.06893 0.32895 0.0
H466 H 0.74855 0.0392 0.27254 0.0
H467 H 0.84631 0.00806 0.21045 0.0
H468 H 0.82595 0.16508 0.27233 0.0
H469 H 0.80638 0.12844 0.325 0.0
H470 H 0.76725 0.11966 0.27649 0.0
H471 H 0.93323 0.12595 0.18657 0.0
H472 H 0.91846 0.06701 0.18203 0.0
H473 H 0.94058 0.09771 0.23832 0.0
C474 C 0.77251 0.96324 0.83686 0.0
C475 C 0.76513 0.99096 0.80494 0.0
C476 C 0.75715 0.9178 0.82483 0.0
C477 C 0.73618 0.90122 0.77878 0.0
C478 C 0.72299 0.92719 0.74994 0.0
C479 C 0.73743 0.9721 0.7637 0.0
C480 C 0.76924 0.88987 0.85815 0.0
C481 C 0.69944 0.91031 0.70142 0.0
C482 C 0.79863 0.84511 0.73253 0.0
C483 C 0.76919 0.80053 0.74748 0.0
C484 C 0.78501 0.87762 0.73543 0.0
C485 C 0.74179 0.86502 0.75594 0.0
C486 C 0.70991 0.81873 0.76504 0.0
C487 C 0.72405 0.78657 0.76028 0.0
C488 C 0.81914 0.92645 0.72257 0.0
C489 C 0.66314 0.80384 0.78543 0.0
H490 H 0.79283 0.97786 0.86948 0.0
H491 H 0.7311 -0.00636 0.73942 0.0
H492 H 0.74064 0.85426 0.86068 0.0
H493 H 0.79925 0.88896 0.84313 0.0
H494 H 0.77782 0.90445 0.89558 0.0
H495 H 0.72537 0.92336 0.67183 0.0
H496 H 0.68024 0.87259 0.69946 0.0
H497 H 0.67571 0.92338 0.69448 0.0
H498 H 0.83324 0.85512 0.72176 0.0
H499 H 0.70131 0.75156 0.77133 0.0
H500 H 0.83316 0.9465 0.75659 0.0
H501 H 0.80256 0.94215 0.70152 0.0
H502 H 0.84801 0.92907 0.70066 0.0
H503 H 0.66481 0.80478 0.82594 0.0
H504 H 0.6385 0.7683 0.77435 0.0
H505 H 0.65026 0.82658 0.77332 0.0
C506 C 0.80578 0.77588 0.32552 0.0
C507 C 0.76824 0.76661 0.29665 0.0
C508 C 0.83445 0.75913 0.31222 0.0
C509 C 0.82579 0.73417 0.26804 0.0
C510 C 0.7844 0.71927 0.2429 0.0
C511 C 0.75574 0.73571 0.25769 0.0
C512 C 0.87705 0.77338 0.34198 0.0
C513 C 0.77301 0.69069 0.19725 0.0
C514 C 0.94091 0.79222 0.21489 0.0
C515 C 0.95737 0.76542 0.23469 0.0
C516 C 0.89449 0.77762 0.21731 0.0
C517 C 0.86516 0.73651 0.24243 0.0
C518 C 0.88073 0.70627 0.25542 0.0
C519 C 0.92722 0.72117 0.25105 0.0
C520 C 0.87855 0.80972 0.20018 0.0
C521 C 0.85025 0.66143 0.28044 0.0
H522 H 0.81432 0.79858 0.3566 0.0
H523 H 0.72595 0.72778 0.23591 0.0
H524 H 0.8827 0.74416 0.34759 0.0
H525 H 0.90708 0.80035 0.32217 0.0
H526 H 0.87525 0.78698 0.37836 0.0
H527 H 0.73565 0.6714 0.19073 0.0
H528 H 0.78937 0.71318 0.1653 0.0
H529 H 0.78589 0.66642 0.19946 0.0
H530 H 0.9647 0.82603 0.20127 0.0
H531 H 0.94048 0.70032 0.26563 0.0
H532 H 0.8739 0.82714 0.2322 0.0
H533 H 0.84537 0.79079 0.18111 0.0
H534 H 0.90353 0.8362 0.175 0.0
H535 H 0.85413 0.66623 0.32062 0.0
H536 H 0.86025 0.63586 0.27032 0.0
H537 H 0.81385 0.64783 0.27119 0.0
C538 C 0.20148 0.93064 0.756 0.0
C539 C 0.18856 0.96085 0.73704 0.0
C540 C 0.16939 0.88432 0.76026 0.0
C541 C 0.12426 0.86904 0.74489 0.0
C542 C 0.11405 0.89828 0.7173 0.0
C543 C 0.14633 0.94456 0.71482 0.0
C544 C 0.18241 0.85378 0.78734 0.0
C545 C 0.06688 0.88252 0.69748 0.0
C546 C 0.01441 0.76071 0.76106 0.0
C547 C -0.00431 0.77446 0.79865 0.0
C548 C 0.0596 0.78883 0.74636 0.0
C549 C 0.08605 0.83082 0.7705 0.0
C550 C 0.06926 0.84103 0.81342 0.0
C551 C 0.0237 0.81292 0.82647 0.0
C552 C 0.07759 0.77571 0.70251 0.0
C553 C 0.09753 0.88436 0.84217 0.0
H554 H 0.23492 0.9438 0.77229 0.0
H555 H 0.13729 0.96842 0.69923 0.0
H556 H 0.21762 0.86228 0.77741 0.0
H557 H 0.18193 0.85945 0.82724 0.0
H558 H 0.15872 0.81722 0.77956 0.0
H559 H 0.06686 0.90708 0.67059 0.0
H560 H 0.05291 0.84881 0.67954 0.0
H561 H 0.04371 0.879 0.72802 0.0
H562 H -0.00724 0.73011 0.74031 0.0
H563 H 0.0093 0.82244 0.85659 0.0
H564 H 0.05254 0.74155 0.68808 0.0
H565 H 0.10915 0.77549 0.71265 0.0
H566 H 0.08648 0.80111 0.67288 0.0
H567 H 0.13172 0.88907 0.85003 0.0
H568 H 0.08117 0.88425 0.87744 0.0
H569 H 0.1023 0.91412 0.82048 0.0
C570 C 0.29182 0.26988 0.0808 0.0
C571 C 0.31017 0.27922 0.12782 0.0
C572 C 0.2942 0.23715 0.05185 0.0
C573 C 0.31528 0.21317 0.07071 0.0
C574 C 0.33241 0.22124 0.11875 0.0
C575 C 0.32997 0.25448 0.14665 0.0
C576 C 0.27505 0.22912 1.00061 0.0
C577 C 0.35471 0.19624 0.14035 0.0
C578 C 0.28058 0.1191 0.98281 0.0
C579 C 0.31285 0.14367 0.9464 0.0
C580 C 0.28487 0.13831 0.02913 0.0
C581 C 0.32193 0.1825 0.0379 0.0
C582 C 0.35916 0.2021 1.00513 0.0
C583 C 0.35421 0.18212 0.95931 0.0
C584 C 0.24615 0.11492 0.0651 0.0
C585 C 0.40052 0.24811 1.01458 0.0
H586 H 0.27605 0.28847 0.06636 0.0
H587 H 0.34392 0.2611 0.1833 0.0
H588 H 0.3026 0.2375 0.97358 0.0
H589 H 0.24901 0.19269 0.99576 0.0
H590 H 0.25904 0.25004 0.99216 0.0
H591 H 0.35214 0.19497 0.18082 0.0
H592 H 0.33948 0.16097 0.12609 0.0
H593 H 0.39145 0.21459 0.13073 0.0
H594 H 0.24941 0.08799 0.97367 0.0
H595 H 0.38035 0.19985 0.93182 0.0
H596 H 0.22921 0.07727 0.06139 0.0
H597 H 0.22037 0.12525 0.05766 0.0
H598 H 0.2581 0.12457 0.10326 0.0
H599 H 0.39203 0.27516 1.00667 0.0
H600 H 0.4297 0.25398 0.99098 0.0
H601 H 0.41113 0.25148 0.05335 0.0
C602 C 0.07175 0.33403 0.64963 0.0
C603 C 0.02707 0.31314 0.63111 0.0
C604 C 0.10771 0.33729 0.62145 0.0
C605 C 0.09869 0.3195 0.57362 0.0
C606 C 0.05347 0.29728 0.55516 0.0
C607 C 0.01818 0.29433 0.58427 0.0
C608 C 0.15522 0.36135 0.64252 0.0
C609 C 0.04232 0.2776 0.5041 0.0
C610 C 0.16729 0.35826 0.4614 0.0
C611 C 0.1643 0.31686 0.44833 0.0
C612 C 0.15289 0.36344 0.50752 0.0
C613 C 0.13601 0.32647 0.54055 0.0
C614 C 0.14341 0.2896 0.53152 0.0
C615 C 0.15741 0.28492 0.48478 0.0
C616 C 0.1479 0.40461 0.51708 0.0
C617 C 0.12921 0.25139 0.56789 0.0
H618 H 0.07897 0.34834 0.68614 0.0
H619 H 0.98373 0.27776 0.57004 0.0
H620 H 0.17167 0.39825 0.63414 0.0
H621 H 0.15429 0.3579 0.6829 0.0
H622 H 0.1768 0.3483 0.62703 0.0
H623 H 0.00536 0.26134 0.49572 0.0
H624 H 0.0613 0.30488 0.47677 0.0
H625 H 0.05284 0.25162 0.4996 0.0
H626 H 0.17519 0.38421 0.43387 0.0
H627 H 0.15735 0.25376 0.4755 0.0
H628 H 0.15624 0.41591 0.55555 0.0
H629 H 0.112 0.39555 0.51048 0.0
H630 H 0.17021 0.4335 0.49267 0.0
H631 H 0.13253 0.26393 0.60598 0.0
H632 H 0.1499 0.23449 0.56345 0.0
H633 H 0.09294 0.22545 0.56162 0.0
C634 C 0.71381 0.02527 0.08682 0.0
C635 C 0.70466 0.03349 0.13431 0.0
C636 C 0.74497 0.06108 0.05747 0.0
C637 C 0.76742 0.10621 0.07627 0.0
C638 C 0.75953 0.11461 0.12474 0.0
C639 C 0.72805 0.0781 0.1532 0.0
C640 C 0.75299 0.0505 1.00589 0.0
C641 C 0.78272 0.16198 0.14627 0.0
C642 C 0.85901 0.16608 0.98653 0.0
C643 C 0.83244 0.17048 0.94998 0.0
C644 C 0.84128 0.15271 0.03364 0.0
C645 C 0.79662 0.14397 0.04315 0.0
C646 C 0.77512 0.15918 1.01002 0.0
C647 C 0.79343 0.17232 0.96317 0.0
C648 C 0.8667 0.14004 0.06974 0.0
C649 C 0.7288 0.15343 0.02054 0.0
H650 H 0.69631 0.99089 0.07233 0.0
H651 H 0.72157 0.0848 0.19022 0.0
H652 H 0.74241 0.06814 0.97928 0.0
H653 H 0.78976 0.0629 1.0 0.0
H654 H 0.73374 0.01341 0.99775 0.0
H655 H 0.78607 0.1609 0.18653 0.0
H656 H 0.81702 0.18408 0.13028 0.0
H657 H 0.76167 0.17798 0.13882 0.0
H658 H 0.89063 0.16711 0.97715 0.0
H659 H 0.77413 0.17837 0.93555 0.0
H660 H 0.85797 0.10422 0.06321 0.0
H661 H 0.85731 0.14273 0.10795 0.0
H662 H 0.90413 0.16209 0.06509 0.0
H663 H 0.70227 0.11746 1.01372 0.0
H664 H 0.72165 0.17564 0.99669 0.0
H665 H 0.7261 0.16137 0.05929 0.0
C666 C 0.64314 0.73129 0.65232 0.0
C667 C 0.66439 0.70769 0.63408 0.0
C668 C 0.63837 0.7626 0.62327 0.0
C669 C 0.65493 0.77001 0.57488 0.0
C670 C 0.67743 0.74713 0.55668 0.0
C671 C 0.68183 0.71623 0.5866 0.0
C672 C 0.61429 0.7862 0.64412 0.0
C673 C 0.69623 0.75447 0.5052 0.0
C674 C 0.61711 0.79584 0.46043 0.0
C675 C 0.65849 0.83429 0.44738 0.0
C676 C 0.61093 0.77806 0.50762 0.0
C677 C 0.64721 0.79941 0.54124 0.0
C678 C 0.68382 0.84365 0.53156 0.0
C679 C 0.68923 0.86085 0.48408 0.0
C680 C 0.5697 0.73225 0.51819 0.0
C681 C 0.72146 0.86887 0.56816 0.0
H682 H 0.62985 0.72519 0.6893 0.0
H683 H 0.69868 0.6985 0.57257 0.0
H684 H 0.62699 0.82052 0.62802 0.0
H685 H 0.57733 0.76544 0.63615 0.0
H686 H 0.61819 0.78957 0.68444 0.0
H687 H 0.71364 0.73469 0.49752 0.0
H688 H 0.66823 0.74407 0.47839 0.0
H689 H 0.72107 0.79107 0.49911 0.0
H690 H 0.59195 0.7766 0.43264 0.0
H691 H 0.72024 0.89207 0.47474 0.0
H692 H 0.55868 0.73011 0.55673 0.0
H693 H 0.57853 0.70515 0.51211 0.0
H694 H 0.54078 0.72544 0.49381 0.0
H695 H 0.70817 0.86152 0.60613 0.0
H696 H 0.73902 0.90624 0.56175 0.0
H697 H 0.74704 0.8577 0.56431 0.0
C698 C 0.82321 0.692 0.98469 0.0
C699 C 0.81788 0.66154 0.94712 0.0
C700 C 0.83588 0.68583 0.0314 0.0
C701 C 0.84313 0.64873 0.03935 0.0
C702 C 0.82702 0.61278 1.00514 0.0
C703 C 0.81451 0.6197 0.95878 0.0
C704 C 0.84957 0.72317 0.06879 0.0
C705 C 0.8312 0.57108 1.014 0.0
C706 C 0.96112 0.68225 0.08309 0.0
C707 C 0.95247 0.66503 0.13062 0.0
C708 C 0.9256 0.6777 0.05346 0.0
C709 C 0.88036 0.65535 0.07208 0.0
C710 C 0.87141 0.63856 0.1203 0.0
C711 C 0.90762 0.64336 0.14899 0.0
C712 C 0.93669 0.69653 1.00201 0.0
C713 C 0.82383 0.6145 0.14145 0.0
H714 H 0.82334 0.72338 0.97646 0.0
H715 H 0.80768 0.59479 0.93033 0.0
H716 H 0.8455 0.70978 0.10657 0.0
H717 H 0.886 0.7491 0.06331 0.0
H718 H 0.82915 0.74036 0.06464 0.0
H719 H 0.80828 0.54254 0.9896 0.0
H720 H 0.86683 0.57951 1.00662 0.0
H721 H 0.82311 0.55969 0.05253 0.0
H722 H -0.00433 0.69929 0.06895 0.0
H723 H 0.90054 0.63005 0.18594 0.0
H724 H 0.92532 0.72177 0.99652 0.0
H725 H 0.91844 0.66864 0.97519 0.0
H726 H 0.97375 0.71347 0.9938 0.0
H727 H 0.80236 0.6277 0.12614 0.0
H728 H 0.82453 0.61782 0.18183 0.0
H729 H 0.80733 0.57765 0.13274 0.0
C730 C 0.24909 0.91374 0.64608 0.0
C731 C 0.27493 0.95821 0.6273 0.0
C732 C 0.21525 0.8787 0.61811 0.0
C733 C 0.20768 0.88833 0.57007 0.0
C734 C 0.23311 0.93331 0.55115 0.0
C735 C 0.26636 0.96774 0.58016 0.0
C736 C 0.18908 0.83151 0.63985 0.0
C737 C 0.22598 0.94511 0.49982 0.0
C738 C 0.17506 0.81999 0.45809 0.0
C739 C 0.13837 0.82582 0.44486 0.0
C740 C 0.19433 0.83293 0.50445 0.0
C741 C 0.17596 0.85173 0.53729 0.0
C742 C 0.13289 0.84727 0.52803 0.0
C743 C 0.11436 0.83443 0.48116 0.0
C744 C 0.23874 0.83428 0.51465 0.0
C745 C 0.11051 0.86341 0.56438 0.0
H746 H 0.2552 0.906 0.68278 0.0
H747 H 0.28589 0.00205 0.56571 0.0
H748 H 0.15497 0.81079 0.62304 0.0
H749 H 0.20864 0.81365 0.63408 0.0
H750 H 0.18488 0.83329 0.67986 0.0
H751 H 0.24846 0.98181 0.49117 0.0
H752 H 0.23295 0.92484 0.47288 0.0
H753 H 0.19009 0.93666 0.49501 0.0
H754 H 0.19212 0.81069 0.43066 0.0
H755 H 0.08445 0.83665 0.47171 0.0
H756 H 0.24024 0.82508 0.55318 0.0
H757 H 0.26744 0.86941 0.50842 0.0
H758 H 0.24357 0.81075 0.49033 0.0
H759 H 0.1244 0.90059 0.55956 0.0
H760 H 0.11756 0.8575 0.60245 0.0
H761 H 0.07306 0.84596 0.55869 0.0
C762 C 0.74489 0.74585 0.91763 0.0
C763 C 0.71068 0.70128 0.90553 0.0
C764 C 0.73936 0.7704 0.95695 0.0
C765 C 0.6989 0.75008 0.986 0.0
C766 C 0.66495 0.70469 0.97451 0.0
C767 C 0.67098 0.68143 0.93466 0.0
C768 C 0.77665 0.81856 0.96688 0.0
C769 C 0.62165 0.68052 1.00424 0.0
C770 C 0.69715 0.78656 0.11904 0.0
C771 C 0.67191 0.80953 0.1172 0.0
C772 C 0.70752 0.76912 0.07705 0.0
C773 C 0.69284 0.77436 0.0303 0.0
C774 C 0.66931 0.79951 0.02739 0.0
C775 C 0.65912 0.8167 0.07057 0.0
C776 C 0.73259 0.74302 0.08337 0.0
C777 C 0.65358 0.80702 0.97859 0.0
H778 H 0.77516 0.76241 0.89494 0.0
H779 H 0.64386 0.6474 0.92567 0.0
H780 H 0.76227 0.84165 0.96844 0.0
H781 H 0.79224 0.82019 1.00298 0.0
H782 H 0.80383 0.83131 0.93858 0.0
H783 H 0.59833 0.64542 0.99084 0.0
H784 H 0.62997 0.67855 0.04305 0.0
H785 H 0.60342 0.70009 1.00313 0.0
H786 H 0.70821 0.781 0.15425 0.0
H787 H 0.63965 0.83406 0.0679 0.0
H788 H 0.76164 0.75564 0.05751 0.0
H789 H 0.70927 0.70647 0.07505 0.0
H790 H 0.74574 0.74573 0.1211 0.0
H791 H 0.68212 0.82076 0.9519 0.0
H792 H 0.6401 0.83087 0.98116 0.0
H793 H 0.62635 0.77397 0.96406 0.0
C794 C 0.97981 0.67475 0.43106 0.0
C795 C 2e-05 0.71457 0.40217 0.0
C796 C 0.95113 0.66914 0.47138 0.0
C797 C 0.94097 0.70381 0.48382 0.0
C798 C 0.96153 0.74442 0.4551 0.0
C799 C -0.00931 0.74936 0.41503 0.0
C800 C 0.93139 0.62558 0.50066 0.0
C801 C 0.95203 0.78248 0.46617 0.0
C802 C 0.83625 0.66603 0.57039 0.0
C803 C 0.85692 0.67786 0.61673 0.0
C804 C 0.86291 0.67592 0.52669 0.0
C805 C 0.91157 0.69827 0.5288 0.0
C806 C 0.93229 0.71208 0.57531 0.0
C807 C 0.90518 0.70191 0.61784 0.0
C808 C 0.8389 0.66105 0.4782 0.0
C809 C 0.98352 0.73594 0.58075 0.0
H810 H 0.986 0.64723 0.42161 0.0
H811 H 0.00459 0.7797 0.39251 0.0
H812 H 0.94254 0.63343 0.53929 0.0
H813 H 0.89362 0.60837 0.50047 0.0
H814 H 0.94186 0.60152 0.48624 0.0
H815 H 0.96955 0.81142 0.44024 0.0
H816 H 0.9148 0.76949 0.46446 0.0
H817 H 0.96329 0.79525 0.50383 0.0
H818 H 0.79938 0.64755 0.56829 0.0
H819 H 0.92236 0.71229 0.65281 0.0
H820 H 0.84351 0.63328 0.46291 0.0
H821 H 0.85403 0.68973 0.45174 0.0
H822 H 0.80181 0.6486 0.48151 0.0
H823 H -0.00437 0.71175 0.57207 0.0
H824 H -0.00519 0.74917 0.61834 0.0
H825 H 0.00029 0.76478 0.5547 0.0
C826 C 0.30052 0.97794 0.92527 0.0
C827 C 0.2826 0.001 0.89855 0.0
C828 C 0.27717 0.94915 0.96545 0.0
C829 C 0.23374 0.94184 0.98005 0.0
C830 C 0.21529 0.96503 0.95331 0.0
C831 C 0.23974 -0.00587 0.9133 0.0
C832 C 0.29932 0.92649 0.99249 0.0
C833 C 0.16923 0.95859 0.96657 0.0
C834 C 0.16367 0.83888 0.06823 0.0
C835 C 0.17518 0.85989 0.11449 0.0
C836 C 0.18083 0.86491 0.02413 0.0
C837 C 0.21022 0.9133 0.02568 0.0
C838 C 0.22011 0.9345 0.07213 0.0
C839 C 0.20274 0.90806 0.115 0.0
C840 C 0.1684 0.84046 0.97574 0.0
C841 C 0.2507 0.98549 0.07702 0.0
H842 H 0.33318 0.98211 0.91436 0.0
H843 H 0.22437 0.01009 0.89239 0.0
H844 H 0.3051 0.93787 0.03116 0.0
H845 H 0.2764 0.88898 0.99258 0.0
H846 H 0.33249 0.93434 0.97611 0.0
H847 H 0.15884 0.97786 0.94195 0.0
H848 H 0.14313 0.92188 0.96476 0.0
H849 H 0.16967 0.96996 1.00469 0.0
H850 H 0.14249 0.80214 0.06642 0.0
H851 H 0.21167 0.92584 0.1497 0.0
H852 H 0.19926 0.84286 0.95865 0.0
H853 H 0.15541 0.85694 0.95043 0.0
H854 H 0.14221 0.8039 0.97968 0.0
H855 H 0.28577 -0.00476 0.06515 0.0
H856 H 0.25227 -0.0025 0.11514 0.0
H857 H 0.2387 0.00371 0.05301 0.0
C858 C 0.31751 0.16744 0.56926 0.0
C859 C 0.3101 0.18074 0.6156 0.0
C860 C 0.30885 0.18472 0.52518 0.0
C861 C 0.29204 0.21595 0.52681 0.0
C862 C 0.283 0.22788 0.57339 0.0
C863 C 0.29197 0.21048 0.61626 0.0
C864 C 0.3187 0.17034 0.47669 0.0
C865 C 0.26491 0.26045 0.57832 0.0
C866 C 0.31813 0.30464 0.42455 0.0
C867 C 0.27658 0.28745 0.39903 0.0
C868 C 0.32361 0.28147 0.46482 0.0
C869 C 0.28687 0.23907 0.48097 0.0
C870 C 0.24465 0.22139 0.45553 0.0
C871 C 0.24006 0.2455 0.41518 0.0
C872 C 0.36914 0.30274 0.49034 0.0
C873 C 0.20424 0.17655 0.47063 0.0
H874 H 0.33116 0.14458 0.56733 0.0
H875 H 0.28482 0.22093 0.65103 0.0
H876 H 0.28859 0.15769 0.45238 0.0
H877 H 0.34728 0.2002 0.45839 0.0
H878 H 0.32789 0.14329 0.48073 0.0
H879 H 0.25694 0.26436 0.6168 0.0
H880 H 0.29051 0.2945 0.56417 0.0
H881 H 0.23358 0.24847 0.55616 0.0
H882 H 0.34701 0.33657 0.41263 0.0
H883 H 0.20828 0.23055 0.3952 0.0
H884 H 0.38225 0.27857 0.49063 0.0
H885 H 0.36511 0.3101 0.52897 0.0
H886 H 0.39493 0.33495 0.47265 0.0
H887 H 0.21326 0.14927 0.46886 0.0
H888 H 0.17405 0.16676 0.44708 0.0
H889 H 0.19487 0.17853 0.50905 0.0
C890 C 0.07488 0.30248 0.1194 0.0
C891 C 0.1218 0.3158 0.11831 0.0
C892 C 0.04791 0.2926 0.07691 0.0
C893 C 0.06728 0.296 0.03015 0.0
C894 C 0.11427 0.30824 0.02812 0.0
C895 C 0.1408 0.31773 0.07188 0.0
C896 C -0.00162 0.27944 0.08235 0.0
C897 C 0.13676 0.31205 0.97943 0.0
C898 C 0.98171 0.24213 0.92186 0.0
C899 C 0.97998 0.27975 0.90239 0.0
C900 C 0.01034 0.24677 0.96231 0.0
C901 C 0.03879 0.2902 0.98428 0.0
C902 C 0.03685 0.32804 0.96481 0.0
C903 C 0.00798 0.32242 0.92477 0.0
C904 C 0.01049 0.20508 0.98126 0.0
C905 C 0.06541 0.37498 0.98648 0.0
H906 H 0.05837 0.29966 0.1542 0.0
H907 H 0.17645 0.32744 0.06955 0.0
H908 H -0.00721 0.30614 0.0658 0.0
H909 H 0.97623 0.24715 0.06265 0.0
H910 H 0.98731 0.27505 0.12117 0.0
H911 H 0.17227 0.3189 0.98343 0.0
H912 H 0.11682 0.28013 0.95826 0.0
H913 H 0.1373 0.34004 0.95784 0.0
H914 H 0.96185 0.20922 0.90452 0.0
H915 H 0.00779 0.35215 0.91046 0.0
H916 H 0.00101 0.20002 0.02053 0.0
H917 H 0.04533 0.20997 0.97825 0.0
H918 H 0.98648 0.17376 0.96096 0.0
H919 H 0.05521 0.37496 0.02504 0.0
H920 H 0.06186 0.40141 0.96616 0.0
H921 H 0.10188 0.38454 0.98653 0.0
C922 C 0.77128 0.07665 0.62181 0.0
C923 C 0.80179 0.12432 0.62001 0.0
C924 C 0.75442 0.04924 0.57957 0.0
C925 C 0.76774 0.0689 0.53251 0.0
C926 C 0.79983 0.11668 0.52983 0.0
C927 C 0.81653 0.14368 0.5733 0.0
C928 C 0.72081 -0.00102 0.58562 0.0
C929 C 0.81565 0.13951 0.4808 0.0
C930 C 0.73723 0.98486 0.4228 0.0
C931 C 0.69629 0.98095 0.40543 0.0
C932 C 0.76128 0.01368 0.46313 0.0
C933 C 0.74457 0.03985 0.48717 0.0
C934 C 0.70295 0.03531 0.47009 0.0
C935 C 0.67979 0.00646 0.43006 0.0
C936 C 0.80517 0.01672 0.47951 0.0
C937 C 0.68265 0.06125 0.49416 0.0
H938 H 0.75972 0.06007 0.65698 0.0
H939 H 0.84002 0.18001 0.57054 0.0
H940 H 0.73206 0.97845 0.56441 0.0
H941 H 0.71645 0.98796 0.62443 0.0
H942 H 0.68709 0.99114 0.57111 0.0
H943 H 0.84321 0.1756 0.48421 0.0
H944 H 0.82816 0.12085 0.45809 0.0
H945 H 0.78653 0.1385 0.46114 0.0
H946 H 0.75146 0.96677 0.40378 0.0
H947 H 0.64855 0.00444 0.41735 0.0
H948 H 0.80301 0.00777 0.5188 0.0
H949 H 0.8336 0.05228 0.47538 0.0
H950 H 0.81336 -0.00622 0.45824 0.0
H951 H 0.67481 0.0509 0.53304 0.0
H952 H 0.65087 0.05534 0.47595 0.0
H953 H 0.70761 0.09833 0.49357 0.0
loop_
_geom_bond_atom_site_label_1
_geom_bond_atom_site_label_2
_geom_bond_distance
_geom_bond_site_symmetry_2
_ccdc_geom_bond_type
C0 O27 1.312 . S
C0 O28 1.208 . S
C1 O22 1.331 . S
C1 O25 1.244 1_655 S
C2 O24 1.264 . S
C2 O26 1.273 . S
Mg3 O5 1.936 . S
Mg3 O12 2.081 . S
Mg3 O14 2.023 . S
Mg3 O18 2.031 . S
Mg3 O27 2.291 . S
Mg4 O5 1.963 . S
Mg4 O15 1.942 . S
Mg4 O16 1.955 . S
Mg4 O23 1.986 . S
O5 Mg3 1.936 . S
O5 Mg4 1.963 . S
O5 Mg6 1.915 . S
Mg6 O5 1.915 . S
Mg6 O7 1.915 . S
Mg6 O11 2.013 . S
Mg6 O17 2.114 . S
Mg6 O21 2.013 . S
Mg6 O27 2.114 . S
O7 Mg6 1.915 . S
O7 Mg8 1.936 . S
O7 Mg9 1.963 . S
Mg8 O7 1.936 . S
Mg8 O17 2.291 . S
Mg8 O22 2.081 1_455 S
Mg8 O24 2.023 . S
Mg8 O28 2.031 . S
Mg9 O7 1.963 . S
Mg9 O13 1.986 . S
Mg9 O25 1.942 . S
Mg9 O26 1.955 . S
C10 O21 1.191 . S
C10 O23 1.307 . S
O11 Mg6 2.013 . S
O11 C30 1.191 . S
O12 Mg3 2.081 . S
O12 C20 1.331 . S
O13 Mg9 1.986 . S
O13 C30 1.307 . S
O14 Mg3 2.023 . S
O14 C29 1.264 . S
O15 Mg4 1.942 . S
O15 C20 1.244 . S
O16 Mg4 1.955 . S
O16 C29 1.273 . S
O17 Mg6 2.114 . S
O17 Mg8 2.291 . S
O17 C19 1.312 . S
O18 Mg3 2.031 . S
O18 C19 1.208 . S
C19 O17 1.312 . S
C19 O18 1.208 . S
C20 O12 1.331 . S
C20 O15 1.244 . S
O21 Mg6 2.013 . S
O21 C10 1.191 . S
O22 C1 1.331 . S
O22 Mg8 2.081 1_655 S
O23 Mg4 1.986 . S
O23 C10 1.307 . S
O24 C2 1.264 . S
O24 Mg8 2.023 . S
O25 C1 1.244 1_455 S
O25 Mg9 1.942 . S
O26 C2 1.273 . S
O26 Mg9 1.955 . S
O27 C0 1.312 . S
O27 Mg3 2.291 . S
O27 Mg6 2.114 . S
O28 C0 1.208 . S
O28 Mg8 2.031 . S
C29 O14 1.264 . S
C29 O16 1.273 . S
C30 O11 1.191 . S
C30 O13 1.307 . S
C31 O58 1.312 . S
C31 O59 1.208 . S
C32 O53 1.331 . S
C32 O56 1.244 . S
C33 O55 1.264 . S
C33 O57 1.273 . S
Mg34 O36 1.936 . S
Mg34 O43 2.081 1_545 S
Mg34 O45 2.023 . S
Mg34 O49 2.031 . S
Mg34 O58 2.291 . S
Mg35 O36 1.963 . S
Mg35 O46 1.942 . S
Mg35 O47 1.955 . S
Mg35 O54 1.986 . S
O36 Mg34 1.936 . S
O36 Mg35 1.963 . S
O36 Mg37 1.915 . S
Mg37 O36 1.915 . S
Mg37 O38 1.915 . S
Mg37 O42 2.013 . S
Mg37 O48 2.114 . S
Mg37 O52 2.013 . S
Mg37 O58 2.114 . S
O38 Mg37 1.915 . S
O38 Mg39 1.936 . S
O38 Mg40 1.963 . S
Mg39 O38 1.936 . S
Mg39 O48 2.291 . S
Mg39 O53 2.081 . S
Mg39 O55 2.023 . S
Mg39 O59 2.031 . S
Mg40 O38 1.963 . S
Mg40 O44 1.986 . S
Mg40 O56 1.942 . S
Mg40 O57 1.955 . S
C41 O52 1.191 . S
C41 O54 1.307 . S
O42 Mg37 2.013 . S
O42 C61 1.191 . S
O43 Mg34 2.081 1_565 S
O43 C51 1.331 . S
O44 Mg40 1.986 . S
O44 C61 1.307 . S
O45 Mg34 2.023 . S
O45 C60 1.264 . S
O46 Mg35 1.942 . S
O46 C51 1.244 1_545 S
O47 Mg35 1.955 . S
O47 C60 1.273 . S
O48 Mg37 2.114 . S
O48 Mg39 2.291 . S
O48 C50 1.312 . S
O49 Mg34 2.031 . S
O49 C50 1.208 . S
C50 O48 1.312 . S
C50 O49 1.208 . S
C51 O43 1.331 . S
C51 O46 1.244 1_565 S
O52 Mg37 2.013 . S
O52 C41 1.191 . S
O53 C32 1.331 . S
O53 Mg39 2.081 . S
O54 Mg35 1.986 . S
O54 C41 1.307 . S
O55 C33 1.264 . S
O55 Mg39 2.023 . S
O56 C32 1.244 . S
O56 Mg40 1.942 . S
O57 C33 1.273 . S
O57 Mg40 1.955 . S
O58 C31 1.312 . S
O58 Mg34 2.291 . S
O58 Mg37 2.114 . S
O59 C31 1.208 . S
O59 Mg39 2.031 . S
C60 O45 1.264 . S
C60 O47 1.273 . S
C61 O42 1.191 . S
C61 O44 1.307 . S
C62 O89 1.312 . S
C62 O90 1.208 . S
C63 O84 1.331 . S
C63 O87 1.244 . S
C64 O86 1.264 . S
C64 O88 1.273 . S
Mg65 O67 1.936 . S
Mg65 O74 2.081 . S
Mg65 O76 2.023 . S
Mg65 O80 2.031 . S
Mg65 O89 2.291 . S
Mg66 O67 1.963 . S
Mg66 O77 1.942 . S
Mg66 O78 1.955 . S
Mg66 O85 1.986 . S
O67 Mg65 1.936 . S
O67 Mg66 1.963 . S
O67 Mg68 1.915 . S
Mg68 O67 1.915 . S
Mg68 O69 1.915 . S
Mg68 O73 2.013 . S
Mg68 O79 2.114 . S
Mg68 O83 2.013 . S
Mg68 O89 2.114 . S
O69 Mg68 1.915 . S
O69 Mg70 1.936 . S
O69 Mg71 1.963 . S
Mg70 O69 1.936 . S
Mg70 O79 2.291 . S
Mg70 O84 2.081 . S
Mg70 O86 2.023 . S
Mg70 O90 2.031 . S
Mg71 O69 1.963 . S
Mg71 O75 1.986 . S
Mg71 O87 1.942 . S
Mg71 O88 1.955 . S
C72 O83 1.191 . S
C72 O85 1.307 . S
O73 Mg68 2.013 . S
O73 C92 1.191 . S
O74 Mg65 2.081 . S
O74 C82 1.331 . S
O75 Mg71 1.986 . S
O75 C92 1.307 . S
O76 Mg65 2.023 . S
O76 C91 1.264 . S
O77 Mg66 1.942 . S
O77 C82 1.244 . S
O78 Mg66 1.955 . S
O78 C91 1.273 . S
O79 Mg68 2.114 . S
O79 Mg70 2.291 . S
O79 C81 1.312 . S
O80 Mg65 2.031 . S
O80 C81 1.208 . S
C81 O79 1.312 . S
C81 O80 1.208 . S
C82 O74 1.331 . S
C82 O77 1.244 . S
O83 Mg68 2.013 . S
O83 C72 1.191 . S
O84 C63 1.331 . S
O84 Mg70 2.081 . S
O85 Mg66 1.986 . S
O85 C72 1.307 . S
O86 C64 1.264 . S
O86 Mg70 2.023 . S
O87 C63 1.244 . S
O87 Mg71 1.942 . S
O88 C64 1.273 . S
O88 Mg71 1.955 . S
O89 C62 1.312 . S
O89 Mg65 2.291 . S
O89 Mg68 2.114 . S
O90 C62 1.208 . S
O90 Mg70 2.031 . S
C91 O76 1.264 . S
C91 O78 1.273 . S
C92 O73 1.191 . S
C92 O75 1.307 . S
C93 O120 1.312 . S
C93 O121 1.208 . S
C94 O115 1.331 . S
C94 O118 1.244 . S
C95 O117 1.264 . S
C95 O119 1.273 . S
Mg96 O98 1.936 . S
Mg96 O105 2.081 1_655 S
Mg96 O107 2.023 . S
Mg96 O111 2.031 . S
Mg96 O120 2.291 . S
Mg97 O98 1.963 . S
Mg97 O108 1.942 . S
Mg97 O109 1.955 . S
Mg97 O116 1.986 . S
O98 Mg96 1.936 . S
O98 Mg97 1.963 . S
O98 Mg99 1.915 . S
Mg99 O98 1.915 . S
Mg99 O100 1.915 . S
Mg99 O104 2.013 . S
Mg99 O110 2.114 . S
Mg99 O114 2.013 . S
Mg99 O120 2.114 . S
O100 Mg99 1.915 . S
O100 Mg101 1.936 . S
O100 Mg102 1.963 . S
Mg101 O100 1.936 . S
Mg101 O110 2.291 . S
Mg101 O115 2.081 . S
Mg101 O117 2.023 . S
Mg101 O121 2.031 . S
Mg102 O100 1.963 . S
Mg102 O106 1.986 . S
Mg102 O118 1.942 . S
Mg102 O119 1.955 . S
C103 O114 1.191 . S
C103 O116 1.307 . S
O104 Mg99 2.013 . S
O104 C123 1.191 . S
O105 Mg96 2.081 1_455 S
O105 C113 1.331 . S
O106 Mg102 1.986 . S
O106 C123 1.307 . S
O107 Mg96 2.023 . S
O107 C122 1.264 . S
O108 Mg97 1.942 . S
O108 C113 1.244 1_655 S
O109 Mg97 1.955 . S
O109 C122 1.273 . S
O110 Mg99 2.114 . S
O110 Mg101 2.291 . S
O110 C112 1.312 . S
O111 Mg96 2.031 . S
O111 C112 1.208 . S
C112 O110 1.312 . S
C112 O111 1.208 . S
C113 O105 1.331 . S
C113 O108 1.244 1_455 S
O114 Mg99 2.013 . S
O114 C103 1.191 . S
O115 C94 1.331 . S
O115 Mg101 2.081 . S
O116 Mg97 1.986 . S
O116 C103 1.307 . S
O117 C95 1.264 . S
O117 Mg101 2.023 . S
O118 C94 1.244 . S
O118 Mg102 1.942 . S
O119 C95 1.273 . S
O119 Mg102 1.955 . S
O120 C93 1.312 . S
O120 Mg96 2.291 . S
O120 Mg99 2.114 . S
O121 C93 1.208 . S
O121 Mg101 2.031 . S
C122 O107 1.264 . S
C122 O109 1.273 . S
C123 O104 1.191 . S
C123 O106 1.307 . S
C124 O151 1.312 . S
C124 O152 1.208 . S
C125 O146 1.331 . S
C125 O149 1.244 1_545 S
C126 O148 1.264 . S
C126 O150 1.273 . S
Mg127 O129 1.936 . S
Mg127 O136 2.081 . S
Mg127 O138 2.023 . S
Mg127 O142 2.031 . S
Mg127 O151 2.291 . S
Mg128 O129 1.963 . S
Mg128 O139 1.942 . S
Mg128 O140 1.955 . S
Mg128 O147 1.986 . S
O129 Mg127 1.936 . S
O129 Mg128 1.963 . S
O129 Mg130 1.915 . S
Mg130 O129 1.915 . S
Mg130 O131 1.915 . S
Mg130 O135 2.013 . S
Mg130 O141 2.114 . S
Mg130 O145 2.013 . S
Mg130 O151 2.114 . S
O131 Mg130 1.915 . S
O131 Mg132 1.936 . S
O131 Mg133 1.963 . S
Mg132 O131 1.936 . S
Mg132 O141 2.291 . S
Mg132 O146 2.081 1_565 S
Mg132 O148 2.023 . S
Mg132 O152 2.031 . S
Mg133 O131 1.963 . S
Mg133 O137 1.986 . S
Mg133 O149 1.942 . S
Mg133 O150 1.955 . S
C134 O145 1.191 . S
C134 O147 1.307 . S
O135 Mg130 2.013 . S
O135 C154 1.191 . S
O136 Mg127 2.081 . S
O136 C144 1.331 . S
O137 Mg133 1.986 . S
O137 C154 1.307 . S
O138 Mg127 2.023 . S
O138 C153 1.264 . S
O139 Mg128 1.942 . S
O139 C144 1.244 . S
O140 Mg128 1.955 . S
O140 C153 1.273 . S
O141 Mg130 2.114 . S
O141 Mg132 2.291 . S
O141 C143 1.312 . S
O142 Mg127 2.031 . S
O142 C143 1.208 . S
C143 O141 1.312 . S
C143 O142 1.208 . S
C144 O136 1.331 . S
C144 O139 1.244 . S
O145 Mg130 2.013 . S
O145 C134 1.191 . S
O146 C125 1.331 . S
O146 Mg132 2.081 1_545 S
O147 Mg128 1.986 . S
O147 C134 1.307 . S
O148 C126 1.264 . S
O148 Mg132 2.023 . S
O149 C125 1.244 1_565 S
O149 Mg133 1.942 . S
O150 C126 1.273 . S
O150 Mg133 1.955 . S
O151 C124 1.312 . S
O151 Mg127 2.291 . S
O151 Mg130 2.114 . S
O152 C124 1.208 . S
O152 Mg132 2.031 . S
C153 O138 1.264 . S
C153 O140 1.273 . S
C154 O135 1.191 . S
C154 O137 1.307 . S
C155 O182 1.312 . S
C155 O183 1.208 . S
C156 O177 1.331 . S
C156 O180 1.244 . S
C157 O179 1.264 . S
C157 O181 1.273 . S
Mg158 O160 1.936 . S
Mg158 O167 2.081 . S
Mg158 O169 2.023 . S
Mg158 O173 2.031 . S
Mg158 O182 2.291 . S
Mg159 O160 1.963 . S
Mg159 O170 1.942 . S
Mg159 O171 1.955 . S
Mg159 O178 1.986 . S
O160 Mg158 1.936 . S
O160 Mg159 1.963 . S
O160 Mg161 1.915 . S
Mg161 O160 1.915 . S
Mg161 O162 1.915 . S
Mg161 O166 2.013 . S
Mg161 O172 2.114 . S
Mg161 O176 2.013 . S
Mg161 O182 2.114 . S
O162 Mg161 1.915 . S
O162 Mg163 1.936 . S
O162 Mg164 1.963 . S
Mg163 O162 1.936 . S
Mg163 O172 2.291 . S
Mg163 O177 2.081 . S
Mg163 O179 2.023 . S
Mg163 O183 2.031 . S
Mg164 O162 1.963 . S
Mg164 O168 1.986 . S
Mg164 O180 1.942 . S
Mg164 O181 1.955 . S
C165 O176 1.191 . S
C165 O178 1.307 . S
O166 Mg161 2.013 . S
O166 C185 1.191 . S
O167 Mg158 2.081 . S
O167 C175 1.331 . S
O168 Mg164 1.986 . S
O168 C185 1.307 . S
O169 Mg158 2.023 . S
O169 C184 1.264 . S
O170 Mg159 1.942 . S
O170 C175 1.244 . S
O171 Mg159 1.955 . S
O171 C184 1.273 . S
O172 Mg161 2.114 . S
O172 Mg163 2.291 . S
O172 C174 1.312 . S
O173 Mg158 2.031 . S
O173 C174 1.208 . S
C174 O172 1.312 . S
C174 O173 1.208 . S
C175 O167 1.331 . S
C175 O170 1.244 . S
O176 Mg161 2.013 . S
O176 C165 1.191 . S
O177 C156 1.331 . S
O177 Mg163 2.081 . S
O178 Mg159 1.986 . S
O178 C165 1.307 . S
O179 C157 1.264 . S
O179 Mg163 2.023 . S
O180 C156 1.244 . S
O180 Mg164 1.942 . S
O181 C157 1.273 . S
O181 Mg164 1.955 . S
O182 C155 1.312 . S
O182 Mg158 2.291 . S
O182 Mg161 2.114 . S
O183 C155 1.208 . S
O183 Mg163 2.031 . S
C184 O169 1.264 . S
C184 O171 1.273 . S
C185 O166 1.191 . S
C185 O168 1.307 . S
C186 C187 1.391 . S
C186 C188 1.394 . S
C186 H202 0.931 . S
C187 C186 1.391 . S
C187 C191 1.376 . S
C188 C186 1.394 . S
C188 C189 1.369 . S
C188 C192 1.531 . S
C189 C188 1.369 . S
C189 C190 1.410 . S
C189 C197 1.503 . S
C190 C189 1.410 . S
C190 C191 1.392 . S
C190 C193 1.511 . S
C191 C187 1.376 . S
C191 C190 1.392 . S
C191 H203 0.929 . S
C192 C188 1.531 . S
C192 H204 0.960 . S
C192 H205 0.962 . S
C192 H206 0.960 . S
C193 C190 1.511 . S
C193 H207 0.961 . S
C193 H208 0.961 . S
C193 H209 0.961 . S
C194 C195 1.370 . S
C194 C196 1.363 . S
C194 H210 0.931 . S
C195 C194 1.370 . S
C195 C199 1.408 . S
C196 C194 1.363 . S
C196 C197 1.370 . S
C196 C200 1.524 . S
C197 C189 1.503 . S
C197 C196 1.370 . S
C197 C198 1.403 . S
C198 C197 1.403 . S
C198 C199 1.404 . S
C198 C201 1.539 . S
C199 C195 1.408 . S
C199 C198 1.404 . S
C199 H211 0.930 . S
C200 C196 1.524 . S
C200 H212 0.956 . S
C200 H213 0.961 . S
C200 H214 0.961 . S
C201 C198 1.539 . S
C201 H215 0.958 . S
C201 H216 0.961 . S
C201 H217 0.960 . S
H202 C186 0.931 . S
H203 C191 0.929 . S
H204 C192 0.960 . S
H205 C192 0.962 . S
H206 C192 0.960 . S
H207 C193 0.961 . S
H208 C193 0.961 . S
H209 C193 0.961 . S
H210 C194 0.931 . S
H211 C199 0.930 . S
H212 C200 0.956 . S
H213 C200 0.961 . S
H214 C200 0.961 . S
H215 C201 0.958 . S
H216 C201 0.961 . S
H217 C201 0.960 . S
C218 C219 1.391 . S
C218 C220 1.394 . S
C218 H234 0.931 . S
C219 C218 1.391 . S
C219 C223 1.376 . S
C220 C218 1.394 . S
C220 C221 1.369 . S
C220 C224 1.531 . S
C221 C220 1.369 . S
C221 C222 1.410 . S
C221 C229 1.503 . S
C222 C221 1.410 . S
C222 C223 1.392 . S
C222 C225 1.511 . S
C223 C219 1.376 . S
C223 C222 1.392 . S
C223 H235 0.929 . S
C224 C220 1.531 . S
C224 H236 0.960 . S
C224 H237 0.962 . S
C224 H238 0.960 . S
C225 C222 1.511 . S
C225 H239 0.961 . S
C225 H240 0.961 . S
C225 H241 0.961 . S
C226 C227 1.370 . S
C226 C228 1.363 . S
C226 H242 0.931 . S
C227 C226 1.370 . S
C227 C231 1.408 . S
C228 C226 1.363 . S
C228 C229 1.370 . S
C228 C232 1.524 . S
C229 C221 1.503 . S
C229 C228 1.370 . S
C229 C230 1.403 . S
C230 C229 1.403 . S
C230 C231 1.404 . S
C230 C233 1.539 . S
C231 C227 1.408 . S
C231 C230 1.404 . S
C231 H243 0.930 . S
C232 C228 1.524 . S
C232 H244 0.956 . S
C232 H245 0.961 . S
C232 H246 0.961 . S
C233 C230 1.539 . S
C233 H247 0.958 . S
C233 H248 0.961 . S
C233 H249 0.960 . S
H234 C218 0.931 . S
H235 C223 0.929 . S
H236 C224 0.960 . S
H237 C224 0.962 . S
H238 C224 0.960 . S
H239 C225 0.961 . S
H240 C225 0.961 . S
H241 C225 0.961 . S
H242 C226 0.931 . S
H243 C231 0.930 . S
H244 C232 0.956 . S
H245 C232 0.961 . S
H246 C232 0.961 . S
H247 C233 0.958 . S
H248 C233 0.961 . S
H249 C233 0.960 . S
C250 C251 1.391 . S
C250 C252 1.394 . S
C250 H266 0.931 . S
C251 C250 1.391 . S
C251 C255 1.376 . S
C252 C250 1.394 . S
C252 C253 1.369 . S
C252 C256 1.531 . S
C253 C252 1.369 . S
C253 C254 1.410 . S
C253 C261 1.503 . S
C254 C253 1.410 . S
C254 C255 1.392 . S
C254 C257 1.511 . S
C255 C251 1.376 . S
C255 C254 1.392 . S
C255 H267 0.929 . S
C256 C252 1.531 . S
C256 H268 0.960 . S
C256 H269 0.962 . S
C256 H270 0.960 . S
C257 C254 1.511 . S
C257 H271 0.961 . S
C257 H272 0.961 . S
C257 H273 0.961 . S
C258 C259 1.370 . S
C258 C260 1.363 . S
C258 H274 0.931 . S
C259 C258 1.370 . S
C259 C263 1.408 . S
C260 C258 1.363 . S
C260 C261 1.370 . S
C260 C264 1.524 . S
C261 C253 1.503 . S
C261 C260 1.370 . S
C261 C262 1.403 . S
C262 C261 1.403 . S
C262 C263 1.404 . S
C262 C265 1.539 . S
C263 C259 1.408 . S
C263 C262 1.404 . S
C263 H275 0.930 . S
C264 C260 1.524 . S
C264 H276 0.956 . S
C264 H277 0.961 . S
C264 H278 0.961 . S
C265 C262 1.539 . S
C265 H279 0.958 . S
C265 H280 0.961 . S
C265 H281 0.960 . S
H266 C250 0.931 . S
H267 C255 0.929 . S
H268 C256 0.960 . S
H269 C256 0.962 . S
H270 C256 0.960 . S
H271 C257 0.961 . S
H272 C257 0.961 . S
H273 C257 0.961 . S
H274 C258 0.931 . S
H275 C263 0.930 . S
H276 C264 0.956 . S
H277 C264 0.961 . S
H278 C264 0.961 . S
H279 C265 0.958 . S
H280 C265 0.961 . S
H281 C265 0.960 . S
C282 C283 1.391 . S
C282 C284 1.394 . S
C282 H298 0.931 . S
C283 C282 1.391 . S
C283 C287 1.376 . S
C284 C282 1.394 . S
C284 C285 1.369 . S
C284 C288 1.531 . S
C285 C284 1.369 . S
C285 C286 1.410 . S
C285 C293 1.503 . S
C286 C285 1.410 . S
C286 C287 1.392 . S
C286 C289 1.511 . S
C287 C283 1.376 . S
C287 C286 1.392 . S
C287 H299 0.929 . S
C288 C284 1.531 . S
C288 H300 0.960 . S
C288 H301 0.962 . S
C288 H302 0.960 . S
C289 C286 1.511 . S
C289 H303 0.961 . S
C289 H304 0.961 . S
C289 H305 0.961 . S
C290 C291 1.370 . S
C290 C292 1.363 . S
C290 H306 0.931 . S
C291 C290 1.370 . S
C291 C295 1.408 . S
C292 C290 1.363 . S
C292 C293 1.370 . S
C292 C296 1.524 . S
C293 C285 1.503 . S
C293 C292 1.370 . S
C293 C294 1.403 . S
C294 C293 1.403 . S
C294 C295 1.404 . S
C294 C297 1.539 . S
C295 C291 1.408 . S
C295 C294 1.404 . S
C295 H307 0.930 . S
C296 C292 1.524 . S
C296 H308 0.956 . S
C296 H309 0.961 . S
C296 H310 0.961 . S
C297 C294 1.539 . S
C297 H311 0.958 . S
C297 H312 0.961 . S
C297 H313 0.960 . S
H298 C282 0.931 . S
H299 C287 0.929 . S
H300 C288 0.960 . S
H301 C288 0.962 . S
H302 C288 0.960 . S
H303 C289 0.961 . S
H304 C289 0.961 . S
H305 C289 0.961 . S
H306 C290 0.931 . S
H307 C295 0.930 . S
H308 C296 0.956 . S
H309 C296 0.961 . S
H310 C296 0.961 . S
H311 C297 0.958 . S
H312 C297 0.961 . S
H313 C297 0.960 . S
C314 C315 1.391 . S
C314 C316 1.394 . S
C314 H330 0.931 . S
C315 C314 1.391 . S
C315 C319 1.376 . S
C316 C314 1.394 . S
C316 C317 1.369 . S
C316 C320 1.531 . S
C317 C316 1.369 . S
C317 C318 1.410 . S
C317 C325 1.503 . S
C318 C317 1.410 . S
C318 C319 1.392 . S
C318 C321 1.511 . S
C319 C315 1.376 . S
C319 C318 1.392 . S
C319 H331 0.929 . S
C320 C316 1.531 . S
C320 H332 0.960 . S
C320 H333 0.962 . S
C320 H334 0.960 . S
C321 C318 1.511 . S
C321 H335 0.961 . S
C321 H336 0.961 . S
C321 H337 0.961 . S
C322 C323 1.370 . S
C322 C324 1.363 . S
C322 H338 0.931 . S
C323 C322 1.370 . S
C323 C327 1.408 . S
C324 C322 1.363 . S
C324 C325 1.370 . S
C324 C328 1.524 . S
C325 C317 1.503 . S
C325 C324 1.370 . S
C325 C326 1.403 . S
C326 C325 1.403 . S
C326 C327 1.404 . S
C326 C329 1.539 . S
C327 C323 1.408 . S
C327 C326 1.404 . S
C327 H339 0.930 . S
C328 C324 1.524 . S
C328 H340 0.956 . S
C328 H341 0.961 . S
C328 H342 0.961 . S
C329 C326 1.539 . S
C329 H343 0.958 . S
C329 H344 0.961 . S
C329 H345 0.960 . S
H330 C314 0.931 . S
H331 C319 0.929 . S
H332 C320 0.960 . S
H333 C320 0.962 . S
H334 C320 0.960 . S
H335 C321 0.961 . S
H336 C321 0.961 . S
H337 C321 0.961 . S
H338 C322 0.931 . S
H339 C327 0.930 . S
H340 C328 0.956 . S
H341 C328 0.961 . S
H342 C328 0.961 . S
H343 C329 0.958 . S
H344 C329 0.961 . S
H345 C329 0.960 . S
C346 C347 1.391 . S
C346 C348 1.394 . S
C346 H362 0.931 . S
C347 C346 1.391 . S
C347 C351 1.376 . S
C348 C346 1.394 . S
C348 C349 1.369 . S
C348 C352 1.531 . S
C349 C348 1.369 . S
C349 C350 1.410 . S
C349 C357 1.503 . S
C350 C349 1.410 . S
C350 C351 1.392 . S
C350 C353 1.511 . S
C351 C347 1.376 . S
C351 C350 1.392 . S
C351 H363 0.929 . S
C352 C348 1.531 . S
C352 H364 0.960 . S
C352 H365 0.962 . S
C352 H366 0.960 . S
C353 C350 1.511 . S
C353 H367 0.961 . S
C353 H368 0.961 . S
C353 H369 0.961 . S
C354 C355 1.370 . S
C354 C356 1.363 . S
C354 H370 0.931 . S
C355 C354 1.370 . S
C355 C359 1.408 . S
C356 C354 1.363 . S
C356 C357 1.370 . S
C356 C360 1.524 . S
C357 C349 1.503 . S
C357 C356 1.370 . S
C357 C358 1.403 . S
C358 C357 1.403 . S
C358 C359 1.404 . S
C358 C361 1.539 . S
C359 C355 1.408 . S
C359 C358 1.404 . S
C359 H371 0.930 . S
C360 C356 1.524 . S
C360 H372 0.956 . S
C360 H373 0.961 . S
C360 H374 0.961 . S
C361 C358 1.539 . S
C361 H375 0.958 . S
C361 H376 0.961 . S
C361 H377 0.960 . S
H362 C346 0.931 . S
H363 C351 0.929 . S
H364 C352 0.960 . S
H365 C352 0.962 . S
H366 C352 0.960 . S
H367 C353 0.961 . S
H368 C353 0.961 . S
H369 C353 0.961 . S
H370 C354 0.931 . S
H371 C359 0.930 . S
H372 C360 0.956 . S
H373 C360 0.961 . S
H374 C360 0.961 . S
H375 C361 0.958 . S
H376 C361 0.961 . S
H377 C361 0.960 . S
C378 C379 1.391 . S
C378 C380 1.394 . S
C378 H394 0.931 . S
C379 C378 1.391 . S
C379 C383 1.376 . S
C380 C378 1.394 . S
C380 C381 1.369 . S
C380 C384 1.531 . S
C381 C380 1.369 . S
C381 C382 1.410 . S
C381 C389 1.503 . S
C382 C381 1.410 . S
C382 C383 1.392 . S
C382 C385 1.511 . S
C383 C379 1.376 . S
C383 C382 1.392 . S
C383 H395 0.929 . S
C384 C380 1.531 . S
C384 H396 0.960 . S
C384 H397 0.962 . S
C384 H398 0.960 . S
C385 C382 1.511 . S
C385 H399 0.961 . S
C385 H400 0.961 . S
C385 H401 0.961 . S
C386 C387 1.370 . S
C386 C388 1.363 . S
C386 H402 0.931 . S
C387 C386 1.370 . S
C387 C391 1.408 . S
C388 C386 1.363 . S
C388 C389 1.370 . S
C388 C392 1.524 . S
C389 C381 1.503 . S
C389 C388 1.370 . S
C389 C390 1.403 . S
C390 C389 1.403 . S
C390 C391 1.404 . S
C390 C393 1.539 . S
C391 C387 1.408 . S
C391 C390 1.404 . S
C391 H403 0.930 . S
C392 C388 1.524 . S
C392 H404 0.956 . S
C392 H405 0.961 . S
C392 H406 0.961 . S
C393 C390 1.539 . S
C393 H407 0.958 . S
C393 H408 0.961 . S
C393 H409 0.960 . S
H394 C378 0.931 . S
H395 C383 0.929 . S
H396 C384 0.960 . S
H397 C384 0.962 . S
H398 C384 0.960 . S
H399 C385 0.961 . S
H400 C385 0.961 . S
H401 C385 0.961 . S
H402 C386 0.931 . S
H403 C391 0.930 . S
H404 C392 0.956 . S
H405 C392 0.961 . S
H406 C392 0.961 . S
H407 C393 0.958 . S
H408 C393 0.961 . S
H409 C393 0.960 . S
C410 C411 1.391 . S
C410 C412 1.394 1_655 S
C410 H426 0.931 . S
C411 C410 1.391 . S
C411 C415 1.376 . S
C412 C410 1.394 1_455 S
C412 C413 1.369 . S
C412 C416 1.531 . S
C413 C412 1.369 . S
C413 C414 1.410 . S
C413 C421 1.503 . S
C414 C413 1.410 . S
C414 C415 1.392 1_455 S
C414 C417 1.511 . S
C415 C411 1.376 . S
C415 C414 1.392 1_655 S
C415 H427 0.929 . S
C416 C412 1.531 . S
C416 H428 0.960 . S
C416 H429 0.962 . S
C416 H430 0.960 . S
C417 C414 1.511 . S
C417 H431 0.961 . S
C417 H432 0.961 . S
C417 H433 0.961 . S
C418 C419 1.370 . S
C418 C420 1.363 . S
C418 H434 0.931 . S
C419 C418 1.370 . S
C419 C423 1.408 . S
C420 C418 1.363 . S
C420 C421 1.370 . S
C420 C424 1.524 . S
C421 C413 1.503 . S
C421 C420 1.370 . S
C421 C422 1.403 . S
C422 C421 1.403 . S
C422 C423 1.404 . S
C422 C425 1.539 . S
C423 C419 1.408 . S
C423 C422 1.404 . S
C423 H435 0.930 . S
C424 C420 1.524 . S
C424 H436 0.956 . S
C424 H437 0.961 . S
C424 H438 0.961 . S
C425 C422 1.539 . S
C425 H439 0.958 . S
C425 H440 0.961 . S
C425 H441 0.960 . S
H426 C410 0.931 . S
H427 C415 0.929 . S
H428 C416 0.960 . S
H429 C416 0.962 . S
H430 C416 0.960 . S
H431 C417 0.961 . S
H432 C417 0.961 . S
H433 C417 0.961 . S
H434 C418 0.931 . S
H435 C423 0.930 . S
H436 C424 0.956 . S
H437 C424 0.961 . S
H438 C424 0.961 . S
H439 C425 0.958 . S
H440 C425 0.961 . S
H441 C425 0.960 . S
C442 C443 1.391 . S
C442 C444 1.394 . S
C442 H458 0.931 . S
C443 C442 1.391 . S
C443 C447 1.376 . S
C444 C442 1.394 . S
C444 C445 1.369 . S
C444 C448 1.531 . S
C445 C444 1.369 . S
C445 C446 1.410 . S
C445 C453 1.503 . S
C446 C445 1.410 . S
C446 C447 1.392 . S
C446 C449 1.511 . S
C447 C443 1.376 . S
C447 C446 1.392 . S
C447 H459 0.929 . S
C448 C444 1.531 . S
C448 H460 0.960 . S
C448 H461 0.962 . S
C448 H462 0.960 . S
C449 C446 1.511 . S
C449 H463 0.961 . S
C449 H464 0.961 . S
C449 H465 0.961 . S
C450 C451 1.370 . S
C450 C452 1.363 1_565 S
C450 H466 0.931 . S
C451 C450 1.370 . S
C451 C455 1.408 . S
C452 C450 1.363 1_545 S
C452 C453 1.370 . S
C452 C456 1.524 . S
C453 C445 1.503 . S
C453 C452 1.370 . S
C453 C454 1.406 . S
C454 C453 1.406 . S
C454 C455 1.401 1_545 S
C454 C457 1.539 . S
C455 C451 1.408 . S
C455 C454 1.401 1_565 S
C455 H467 0.930 . S
C456 C452 1.524 . S
C456 H468 0.956 . S
C456 H469 0.961 . S
C456 H470 0.961 . S
C457 C454 1.539 . S
C457 H471 0.958 . S
C457 H472 0.961 1_545 S
C457 H473 0.960 . S
H458 C442 0.931 . S
H459 C447 0.929 . S
H460 C448 0.960 . S
H461 C448 0.962 . S
H462 C448 0.960 . S
H463 C449 0.961 . S
H464 C449 0.961 . S
H465 C449 0.961 . S
H466 C450 0.931 . S
H467 C455 0.930 . S
H468 C456 0.956 . S
H469 C456 0.961 . S
H470 C456 0.961 . S
H471 C457 0.958 . S
H472 C457 0.961 1_565 S
H473 C457 0.960 . S
C474 C475 1.391 . S
C474 C476 1.394 . S
C474 H490 0.931 . S
C475 C474 1.391 . S
C475 C479 1.376 . S
C476 C474 1.394 . S
C476 C477 1.369 . S
C476 C480 1.531 . S
C477 C476 1.369 . S
C477 C478 1.410 . S
C477 C485 1.503 . S
C478 C477 1.410 . S
C478 C479 1.392 . S
C478 C481 1.511 . S
C479 C475 1.376 . S
C479 C478 1.392 . S
C479 H491 0.929 . S
C480 C476 1.531 . S
C480 H492 0.960 . S
C480 H493 0.962 . S
C480 H494 0.960 . S
C481 C478 1.511 . S
C481 H495 0.961 . S
C481 H496 0.961 . S
C481 H497 0.961 . S
C482 C483 1.370 . S
C482 C484 1.363 . S
C482 H498 0.931 . S
C483 C482 1.370 . S
C483 C487 1.408 . S
C484 C482 1.363 . S
C484 C485 1.370 . S
C484 C488 1.524 . S
C485 C477 1.503 . S
C485 C484 1.370 . S
C485 C486 1.403 . S
C486 C485 1.403 . S
C486 C487 1.404 . S
C486 C489 1.539 . S
C487 C483 1.408 . S
C487 C486 1.404 . S
C487 H499 0.930 . S
C488 C484 1.524 . S
C488 H500 0.956 . S
C488 H501 0.961 . S
C488 H502 0.961 . S
C489 C486 1.539 . S
C489 H503 0.958 . S
C489 H504 0.961 . S
C489 H505 0.960 . S
H490 C474 0.931 . S
H491 C479 0.929 . S
H492 C480 0.960 . S
H493 C480 0.962 . S
H494 C480 0.960 . S
H495 C481 0.961 . S
H496 C481 0.961 . S
H497 C481 0.961 . S
H498 C482 0.931 . S
H499 C487 0.930 . S
H500 C488 0.956 . S
H501 C488 0.961 . S
H502 C488 0.961 . S
H503 C489 0.958 . S
H504 C489 0.961 . S
H505 C489 0.960 . S
C506 C507 1.391 . S
C506 C508 1.394 . S
C506 H522 0.931 . S
C507 C506 1.391 . S
C507 C511 1.376 . S
C508 C506 1.394 . S
C508 C509 1.369 . S
C508 C512 1.531 . S
C509 C508 1.369 . S
C509 C510 1.410 . S
C509 C517 1.503 . S
C510 C509 1.410 . S
C510 C511 1.392 . S
C510 C513 1.511 . S
C511 C507 1.376 . S
C511 C510 1.392 . S
C511 H523 0.929 . S
C512 C508 1.531 . S
C512 H524 0.960 . S
C512 H525 0.962 . S
C512 H526 0.960 . S
C513 C510 1.511 . S
C513 H527 0.961 . S
C513 H528 0.961 . S
C513 H529 0.961 . S
C514 C515 1.370 . S
C514 C516 1.363 1_455 S
C514 H530 0.931 . S
C515 C514 1.370 . S
C515 C519 1.408 . S
C516 C514 1.363 1_655 S
C516 C517 1.370 . S
C516 C520 1.524 . S
C517 C509 1.503 . S
C517 C516 1.370 . S
C517 C518 1.403 . S
C518 C517 1.403 . S
C518 C519 1.404 1_655 S
C518 C521 1.539 . S
C519 C515 1.408 . S
C519 C518 1.404 1_455 S
C519 H531 0.930 . S
C520 C516 1.524 . S
C520 H532 0.956 . S
C520 H533 0.961 . S
C520 H534 0.961 1_655 S
C521 C518 1.539 . S
C521 H535 0.958 . S
C521 H536 0.961 . S
C521 H537 0.960 . S
H522 C506 0.931 . S
H523 C511 0.929 . S
H524 C512 0.960 . S
H525 C512 0.962 . S
H526 C512 0.960 . S
H527 C513 0.961 . S
H528 C513 0.961 . S
H529 C513 0.961 . S
H530 C514 0.931 . S
H531 C519 0.930 . S
H532 C520 0.956 . S
H533 C520 0.961 . S
H534 C520 0.961 1_455 S
H535 C521 0.958 . S
H536 C521 0.961 . S
H537 C521 0.960 . S
C538 C539 1.391 . S
C538 C540 1.394 1_545 S
C538 H554 0.931 . S
C539 C538 1.391 . S
C539 C543 1.376 . S
C540 C538 1.394 1_565 S
C540 C541 1.369 . S
C540 C544 1.531 . S
C541 C540 1.369 . S
C541 C542 1.410 . S
C541 C549 1.503 . S
C542 C541 1.410 . S
C542 C543 1.392 1_565 S
C542 C545 1.511 . S
C543 C539 1.376 . S
C543 C542 1.392 1_545 S
C543 H555 0.929 . S
C544 C540 1.531 . S
C544 H556 0.960 . S
C544 H557 0.962 . S
C544 H558 0.960 . S
C545 C542 1.511 . S
C545 H559 0.961 . S
C545 H560 0.961 . S
C545 H561 0.961 . S
C546 C547 1.370 . S
C546 C548 1.363 . S
C546 H562 0.931 . S
C547 C546 1.370 . S
C547 C551 1.408 . S
C548 C546 1.363 . S
C548 C549 1.370 . S
C548 C552 1.524 . S
C549 C541 1.503 . S
C549 C548 1.370 . S
C549 C550 1.403 . S
C550 C549 1.403 . S
C550 C551 1.404 . S
C550 C553 1.539 . S
C551 C547 1.408 . S
C551 C550 1.404 . S
C551 H563 0.930 . S
C552 C548 1.524 . S
C552 H564 0.956 . S
C552 H565 0.961 . S
C552 H566 0.961 . S
C553 C550 1.539 . S
C553 H567 0.958 . S
C553 H568 0.961 . S
C553 H569 0.960 . S
H554 C538 0.931 . S
H555 C543 0.929 . S
H556 C544 0.960 . S
H557 C544 0.962 . S
H558 C544 0.960 . S
H559 C545 0.961 . S
H560 C545 0.961 . S
H561 C545 0.961 . S
H562 C546 0.931 . S
H563 C551 0.930 . S
H564 C552 0.956 . S
H565 C552 0.961 . S
H566 C552 0.961 . S
H567 C553 0.958 . S
H568 C553 0.961 . S
H569 C553 0.960 . S
C570 C571 1.391 . S
C570 C572 1.394 . S
C570 H586 0.931 . S
C571 C570 1.391 . S
C571 C575 1.376 . S
C572 C570 1.394 . S
C572 C573 1.369 . S
C572 C576 1.531 1_554 S
C573 C572 1.369 . S
C573 C574 1.410 . S
C573 C581 1.503 1_554 S
C574 C573 1.410 . S
C574 C575 1.392 . S
C574 C577 1.511 . S
C575 C571 1.376 . S
C575 C574 1.392 . S
C575 H587 0.929 . S
C576 C572 1.531 1_556 S
C576 H588 0.960 . S
C576 H589 0.962 . S
C576 H590 0.960 . S
C577 C574 1.511 . S
C577 H591 0.961 . S
C577 H592 0.961 . S
C577 H593 0.961 . S
C578 C579 1.370 . S
C578 C580 1.363 . S
C578 H594 0.931 . S
C579 C578 1.370 . S
C579 C583 1.408 . S
C580 C578 1.363 . S
C580 C581 1.370 . S
C580 C584 1.524 1_556 S
C581 C573 1.503 1_556 S
C581 C580 1.370 . S
C581 C582 1.403 . S
C582 C581 1.403 . S
C582 C583 1.404 . S
C582 C585 1.539 . S
C583 C579 1.408 . S
C583 C582 1.404 . S
C583 H595 0.930 . S
C584 C580 1.524 1_554 S
C584 H596 0.956 . S
C584 H597 0.961 . S
C584 H598 0.961 . S
C585 C582 1.539 . S
C585 H599 0.958 . S
C585 H600 0.961 . S
C585 H601 0.960 . S
H586 C570 0.931 . S
H587 C575 0.929 . S
H588 C576 0.960 . S
H589 C576 0.962 . S
H590 C576 0.960 . S
H591 C577 0.961 . S
H592 C577 0.961 . S
H593 C577 0.961 . S
H594 C578 0.931 . S
H595 C583 0.930 . S
H596 C584 0.956 . S
H597 C584 0.961 . S
H598 C584 0.961 . S
H599 C585 0.958 . S
H600 C585 0.961 . S
H601 C585 0.960 . S
C602 C603 1.391 . S
C602 C604 1.394 . S
C602 H618 0.931 . S
C603 C602 1.391 . S
C603 C607 1.376 . S
C604 C602 1.394 . S
C604 C605 1.369 . S
C604 C608 1.531 1_655 S
C605 C604 1.369 . S
C605 C606 1.410 . S
C605 C613 1.503 . S
C606 C605 1.410 . S
C606 C607 1.392 . S
C606 C609 1.511 . S
C607 C603 1.376 . S
C607 C606 1.392 . S
C607 H619 0.929 . S
C608 C604 1.531 1_455 S
C608 H620 0.960 . S
C608 H621 0.962 . S
C608 H622 0.960 . S
C609 C606 1.511 . S
C609 H623 0.961 . S
C609 H624 0.961 . S
C609 H625 0.961 . S
C610 C611 1.370 . S
C610 C612 1.363 . S
C610 H626 0.931 . S
C611 C610 1.370 . S
C611 C615 1.408 . S
C612 C610 1.363 . S
C612 C613 1.370 1_455 S
C612 C616 1.524 . S
C613 C605 1.503 . S
C613 C612 1.370 1_655 S
C613 C614 1.403 . S
C614 C613 1.403 . S
C614 C615 1.404 1_655 S
C614 C617 1.539 . S
C615 C611 1.408 . S
C615 C614 1.404 1_455 S
C615 H627 0.930 . S
C616 C612 1.524 . S
C616 H628 0.956 . S
C616 H629 0.961 . S
C616 H630 0.961 . S
C617 C614 1.539 . S
C617 H631 0.958 . S
C617 H632 0.961 . S
C617 H633 0.960 . S
H618 C602 0.931 . S
H619 C607 0.929 . S
H620 C608 0.960 . S
H621 C608 0.962 . S
H622 C608 0.960 . S
H623 C609 0.961 . S
H624 C609 0.961 . S
H625 C609 0.961 . S
H626 C610 0.931 . S
H627 C615 0.930 . S
H628 C616 0.956 . S
H629 C616 0.961 . S
H630 C616 0.961 . S
H631 C617 0.958 . S
H632 C617 0.961 . S
H633 C617 0.960 . S
C634 C635 1.391 . S
C634 C636 1.394 . S
C634 H650 0.931 . S
C635 C634 1.391 . S
C635 C639 1.376 . S
C636 C634 1.394 . S
C636 C637 1.369 . S
C636 C640 1.531 1_554 S
C637 C636 1.369 . S
C637 C638 1.410 . S
C637 C645 1.503 1_554 S
C638 C637 1.410 . S
C638 C639 1.392 . S
C638 C641 1.511 1_565 S
C639 C635 1.376 . S
C639 C638 1.392 . S
C639 H651 0.929 . S
C640 C636 1.531 1_556 S
C640 H652 0.960 . S
C640 H653 0.962 . S
C640 H654 0.960 . S
C641 C638 1.511 1_545 S
C641 H655 0.961 . S
C641 H656 0.961 . S
C641 H657 0.961 . S
C642 C643 1.370 . S
C642 C644 1.363 . S
C642 H658 0.931 . S
C643 C642 1.370 . S
C643 C647 1.408 . S
C644 C642 1.363 . S
C644 C645 1.370 1_545 S
C644 C648 1.524 1_556 S
C645 C637 1.503 1_556 S
C645 C644 1.370 1_565 S
C645 C646 1.403 . S
C646 C645 1.403 . S
C646 C647 1.404 1_565 S
C646 C649 1.539 . S
C647 C643 1.408 . S
C647 C646 1.404 1_545 S
C647 H659 0.930 . S
C648 C644 1.524 1_554 S
C648 H660 0.956 1_545 S
C648 H661 0.961 . S
C648 H662 0.961 . S
C649 C646 1.539 . S
C649 H663 0.958 . S
C649 H664 0.961 . S
C649 H665 0.960 . S
H650 C634 0.931 . S
H651 C639 0.929 . S
H652 C640 0.960 . S
H653 C640 0.962 . S
H654 C640 0.960 . S
H655 C641 0.961 . S
H656 C641 0.961 . S
H657 C641 0.961 . S
H658 C642 0.931 . S
H659 C647 0.930 . S
H660 C648 0.956 1_565 S
H661 C648 0.961 . S
H662 C648 0.961 . S
H663 C649 0.958 . S
H664 C649 0.961 . S
H665 C649 0.960 . S
C666 C667 1.391 . S
C666 C668 1.394 . S
C666 H682 0.931 . S
C667 C666 1.391 . S
C667 C671 1.376 . S
C668 C666 1.394 . S
C668 C669 1.369 . S
C668 C672 1.531 . S
C669 C668 1.369 . S
C669 C670 1.410 . S
C669 C677 1.503 . S
C670 C669 1.410 . S
C670 C671 1.392 . S
C670 C673 1.511 . S
C671 C667 1.376 . S
C671 C670 1.392 . S
C671 H683 0.929 . S
C672 C668 1.531 . S
C672 H684 0.960 . S
C672 H685 0.962 . S
C672 H686 0.960 . S
C673 C670 1.511 . S
C673 H687 0.961 . S
C673 H688 0.961 . S
C673 H689 0.961 . S
C674 C675 1.370 . S
C674 C676 1.363 . S
C674 H690 0.931 . S
C675 C674 1.370 . S
C675 C679 1.408 . S
C676 C674 1.363 . S
C676 C677 1.370 . S
C676 C680 1.524 . S
C677 C669 1.503 . S
C677 C676 1.370 . S
C677 C678 1.403 . S
C678 C677 1.403 . S
C678 C679 1.404 . S
C678 C681 1.539 . S
C679 C675 1.408 . S
C679 C678 1.404 . S
C679 H691 0.930 . S
C680 C676 1.524 . S
C680 H692 0.956 . S
C680 H693 0.961 . S
C680 H694 0.961 . S
C681 C678 1.539 . S
C681 H695 0.958 . S
C681 H696 0.961 . S
C681 H697 0.960 . S
H682 C666 0.931 . S
H683 C671 0.929 . S
H684 C672 0.960 . S
H685 C672 0.962 . S
H686 C672 0.960 . S
H687 C673 0.961 . S
H688 C673 0.961 . S
H689 C673 0.961 . S
H690 C674 0.931 . S
H691 C679 0.930 . S
H692 C680 0.956 . S
H693 C680 0.961 . S
H694 C680 0.961 . S
H695 C681 0.958 . S
H696 C681 0.961 . S
H697 C681 0.960 . S
C698 C699 1.391 . S
C698 C700 1.394 . S
C698 H714 0.931 . S
C699 C698 1.391 . S
C699 C703 1.376 . S
C700 C698 1.394 . S
C700 C701 1.369 1_655 S
C700 C704 1.531 1_556 S
C701 C700 1.369 1_455 S
C701 C702 1.410 . S
C701 C709 1.503 1_556 S
C702 C701 1.410 . S
C702 C703 1.392 1_455 S
C702 C705 1.511 . S
C703 C699 1.376 . S
C703 C702 1.392 1_655 S
C703 H715 0.929 1_655 S
C704 C700 1.531 1_554 S
C704 H716 0.960 . S
C704 H717 0.962 . S
C704 H718 0.960 . S
C705 C702 1.511 . S
C705 H719 0.961 . S
C705 H720 0.961 . S
C705 H721 0.961 . S
C706 C707 1.370 . S
C706 C708 1.363 . S
C706 H722 0.931 . S
C707 C706 1.370 . S
C707 C711 1.408 . S
C708 C706 1.363 . S
C708 C709 1.370 . S
C708 C712 1.524 . S
C709 C701 1.503 1_554 S
C709 C708 1.370 . S
C709 C710 1.403 . S
C710 C709 1.403 . S
C710 C711 1.404 . S
C710 C713 1.539 . S
C711 C707 1.408 . S
C711 C710 1.404 . S
C711 H723 0.930 . S
C712 C708 1.524 . S
C712 H724 0.956 1_455 S
C712 H725 0.961 . S
C712 H726 0.961 . S
C713 C710 1.539 . S
C713 H727 0.958 . S
C713 H728 0.961 . S
C713 H729 0.960 1_554 S
H714 C698 0.931 . S
H715 C703 0.929 1_455 S
H716 C704 0.960 . S
H717 C704 0.962 . S
H718 C704 0.960 . S
H719 C705 0.961 . S
H720 C705 0.961 . S
H721 C705 0.961 . S
H722 C706 0.931 . S
H723 C711 0.930 . S
H724 C712 0.956 1_655 S
H725 C712 0.961 . S
H726 C712 0.961 . S
H727 C713 0.958 . S
H728 C713 0.961 . S
H729 C713 0.960 1_556 S
C730 C731 1.391 . S
C730 C732 1.394 . S
C730 H746 0.931 . S
C731 C730 1.391 . S
C731 C735 1.376 . S
C732 C730 1.394 . S
C732 C733 1.369 . S
C732 C736 1.531 1_545 S
C733 C732 1.369 . S
C733 C734 1.410 . S
C733 C741 1.503 1_545 S
C734 C733 1.410 . S
C734 C735 1.392 . S
C734 C737 1.511 . S
C735 C731 1.376 . S
C735 C734 1.392 . S
C735 H747 0.929 . S
C736 C732 1.531 1_565 S
C736 H748 0.960 . S
C736 H749 0.962 . S
C736 H750 0.960 . S
C737 C734 1.511 . S
C737 H751 0.961 . S
C737 H752 0.961 . S
C737 H753 0.961 . S
C738 C739 1.370 . S
C738 C740 1.363 1_565 S
C738 H754 0.931 1_565 S
C739 C738 1.370 . S
C739 C743 1.408 . S
C740 C738 1.363 1_545 S
C740 C741 1.370 1_545 S
C740 C744 1.524 . S
C741 C733 1.503 1_565 S
C741 C740 1.370 1_565 S
C741 C742 1.403 . S
C742 C741 1.403 . S
C742 C743 1.404 . S
C742 C745 1.539 . S
C743 C739 1.408 . S
C743 C742 1.404 . S
C743 H755 0.930 . S
C744 C740 1.524 . S
C744 H756 0.956 . S
C744 H757 0.961 . S
C744 H758 0.961 . S
C745 C742 1.539 . S
C745 H759 0.958 . S
C745 H760 0.961 . S
C745 H761 0.960 . S
H746 C730 0.931 . S
H747 C735 0.929 . S
H748 C736 0.960 . S
H749 C736 0.962 . S
H750 C736 0.960 . S
H751 C737 0.961 . S
H752 C737 0.961 . S
H753 C737 0.961 . S
H754 C738 0.931 1_545 S
H755 C743 0.930 . S
H756 C744 0.956 . S
H757 C744 0.961 . S
H758 C744 0.961 . S
H759 C745 0.958 . S
H760 C745 0.961 . S
H761 C745 0.960 . S
C762 C763 1.391 . S
C762 C764 1.394 . S
C762 H778 0.931 . S
C763 C762 1.391 . S
C763 C767 1.376 . S
C764 C762 1.394 . S
C764 C765 1.369 . S
C764 C768 1.531 . S
C765 C764 1.369 . S
C765 C766 1.410 . S
C765 C773 1.503 1_556 S
C766 C765 1.410 . S
C766 C767 1.392 . S
C766 C769 1.511 . S
C767 C763 1.376 . S
C767 C766 1.392 . S
C767 H779 0.929 . S
C768 C764 1.531 . S
C768 H780 0.960 1_556 S
C768 H781 0.962 1_556 S
C768 H782 0.960 . S
C769 C766 1.511 . S
C769 H783 0.961 . S
C769 H784 0.961 . S
C769 H785 0.961 . S
C770 C771 1.370 . S
C770 C772 1.363 . S
C770 H786 0.931 . S
C771 C770 1.370 . S
C771 C775 1.408 . S
C772 C770 1.363 . S
C772 C773 1.370 . S
C772 C776 1.524 . S
C773 C765 1.503 1_554 S
C773 C772 1.370 . S
C773 C774 1.403 . S
C774 C773 1.403 . S
C774 C775 1.404 . S
C774 C777 1.539 1_554 S
C775 C771 1.408 . S
C775 C774 1.404 . S
C775 H787 0.930 . S
C776 C772 1.524 . S
C776 H788 0.956 . S
C776 H789 0.961 . S
C776 H790 0.961 . S
C777 C774 1.539 1_556 S
C777 H791 0.958 . S
C777 H792 0.961 . S
C777 H793 0.960 . S
H778 C762 0.931 . S
H779 C767 0.929 . S
H780 C768 0.960 1_554 S
H781 C768 0.962 1_554 S
H782 C768 0.960 . S
H783 C769 0.961 . S
H784 C769 0.961 . S
H785 C769 0.961 . S
H786 C770 0.931 . S
H787 C775 0.930 . S
H788 C776 0.956 . S
H789 C776 0.961 . S
H790 C776 0.961 . S
H791 C777 0.958 . S
H792 C777 0.961 . S
H793 C777 0.960 . S
C794 C795 1.391 . S
C794 C796 1.394 . S
C794 H810 0.931 . S
C795 C794 1.391 . S
C795 C799 1.376 . S
C796 C794 1.394 . S
C796 C797 1.369 . S
C796 C800 1.531 . S
C797 C796 1.369 . S
C797 C798 1.410 . S
C797 C805 1.503 . S
C798 C797 1.410 . S
C798 C799 1.392 . S
C798 C801 1.511 . S
C799 C795 1.376 . S
C799 C798 1.392 . S
C799 H811 0.929 . S
C800 C796 1.531 . S
C800 H812 0.960 . S
C800 H813 0.962 . S
C800 H814 0.960 . S
C801 C798 1.511 . S
C801 H815 0.961 1_455 S
C801 H816 0.961 1_455 S
C801 H817 0.961 . S
C802 C803 1.370 . S
C802 C804 1.363 . S
C802 H818 0.931 . S
C803 C802 1.370 . S
C803 C807 1.408 . S
C804 C802 1.363 . S
C804 C805 1.370 1_655 S
C804 C808 1.524 . S
C805 C797 1.503 . S
C805 C804 1.370 1_455 S
C805 C806 1.403 . S
C806 C805 1.403 . S
C806 C807 1.404 1_455 S
C806 C809 1.539 . S
C807 C803 1.408 . S
C807 C806 1.404 1_655 S
C807 H819 0.930 . S
C808 C804 1.524 . S
C808 H820 0.956 . S
C808 H821 0.961 . S
C808 H822 0.961 . S
C809 C806 1.539 . S
C809 H823 0.958 . S
C809 H824 0.961 . S
C809 H825 0.960 . S
H810 C794 0.931 . S
H811 C799 0.929 . S
H812 C800 0.960 . S
H813 C800 0.962 . S
H814 C800 0.960 . S
H815 C801 0.961 1_655 S
H816 C801 0.961 1_655 S
H817 C801 0.961 . S
H818 C802 0.931 . S
H819 C807 0.930 . S
H820 C808 0.956 . S
H821 C808 0.961 . S
H822 C808 0.961 . S
H823 C809 0.958 . S
H824 C809 0.961 . S
H825 C809 0.960 . S
C826 C827 1.391 . S
C826 C828 1.394 . S
C826 H842 0.931 . S
C827 C826 1.391 . S
C827 C831 1.376 . S
C828 C826 1.394 . S
C828 C829 1.369 . S
C828 C832 1.531 1_556 S
C829 C828 1.369 . S
C829 C830 1.410 . S
C829 C837 1.503 1_556 S
C830 C829 1.410 . S
C830 C831 1.392 . S
C830 C833 1.511 1_545 S
C831 C827 1.376 . S
C831 C830 1.392 . S
C831 H843 0.929 . S
C832 C828 1.531 1_554 S
C832 H844 0.960 . S
C832 H845 0.962 . S
C832 H846 0.960 . S
C833 C830 1.511 1_565 S
C833 H847 0.961 . S
C833 H848 0.961 . S
C833 H849 0.961 . S
C834 C835 1.370 . S
C834 C836 1.363 . S
C834 H850 0.931 . S
C835 C834 1.370 . S
C835 C839 1.408 . S
C836 C834 1.363 . S
C836 C837 1.370 1_565 S
C836 C840 1.522 1_554 S
C837 C829 1.503 1_554 S
C837 C836 1.370 1_545 S
C837 C838 1.403 . S
C838 C837 1.403 . S
C838 C839 1.404 1_545 S
C838 C841 1.539 . S
C839 C835 1.408 . S
C839 C838 1.404 1_565 S
C839 H851 0.930 . S
C840 C836 1.522 1_556 S
C840 H852 0.956 1_566 S
C840 H853 0.964 . S
C840 H854 0.960 1_556 S
C841 C838 1.539 . S
C841 H855 0.958 . S
C841 H856 0.961 . S
C841 H857 0.960 . S
H842 C826 0.931 . S
H843 C831 0.929 . S
H844 C832 0.960 . S
H845 C832 0.962 . S
H846 C832 0.960 . S
H847 C833 0.961 . S
H848 C833 0.961 . S
H849 C833 0.961 . S
H850 C834 0.931 . S
H851 C839 0.930 . S
H852 C840 0.956 1_544 S
H853 C840 0.964 . S
H854 C840 0.960 1_554 S
H855 C841 0.958 . S
H856 C841 0.961 . S
H857 C841 0.960 . S
C858 C859 1.391 . S
C858 C860 1.394 . S
C858 H874 0.931 . S
C859 C858 1.391 . S
C859 C863 1.376 . S
C860 C858 1.394 . S
C860 C861 1.369 . S
C860 C864 1.531 . S
C861 C860 1.369 . S
C861 C862 1.410 . S
C861 C869 1.503 . S
C862 C861 1.410 . S
C862 C863 1.392 . S
C862 C865 1.511 . S
C863 C859 1.376 . S
C863 C862 1.392 . S
C863 H875 0.929 . S
C864 C860 1.531 . S
C864 H876 0.960 . S
C864 H877 0.962 . S
C864 H878 0.960 . S
C865 C862 1.511 . S
C865 H879 0.961 . S
C865 H880 0.961 . S
C865 H881 0.961 . S
C866 C867 1.370 . S
C866 C868 1.363 . S
C866 H882 0.931 . S
C867 C866 1.370 . S
C867 C871 1.408 . S
C868 C866 1.363 . S
C868 C869 1.370 . S
C868 C872 1.524 . S
C869 C861 1.503 . S
C869 C868 1.370 . S
C869 C870 1.403 . S
C870 C869 1.403 . S
C870 C871 1.404 . S
C870 C873 1.539 . S
C871 C867 1.408 . S
C871 C870 1.404 . S
C871 H883 0.930 . S
C872 C868 1.524 . S
C872 H884 0.956 . S
C872 H885 0.961 . S
C872 H886 0.961 . S
C873 C870 1.539 . S
C873 H887 0.958 . S
C873 H888 0.961 . S
C873 H889 0.960 . S
H874 C858 0.931 . S
H875 C863 0.929 . S
H876 C864 0.960 . S
H877 C864 0.962 . S
H878 C864 0.960 . S
H879 C865 0.961 . S
H880 C865 0.961 . S
H881 C865 0.961 . S
H882 C866 0.931 . S
H883 C871 0.930 . S
H884 C872 0.956 . S
H885 C872 0.961 . S
H886 C872 0.961 . S
H887 C873 0.958 . S
H888 C873 0.961 . S
H889 C873 0.960 . S
C890 C891 1.391 . S
C890 C892 1.394 1_455 S
C890 H906 0.931 . S
C891 C890 1.391 . S
C891 C895 1.376 . S
C892 C890 1.394 1_655 S
C892 C893 1.373 . S
C892 C896 1.531 . S
C893 C892 1.373 . S
C893 C894 1.399 1_655 S
C893 C901 1.509 1_554 S
C894 C893 1.399 1_455 S
C894 C895 1.392 . S
C894 C897 1.511 1_554 S
C895 C891 1.376 . S
C895 C894 1.392 . S
C895 H907 0.929 . S
C896 C892 1.531 . S
C896 H908 0.960 . S
C896 H909 0.962 . S
C896 H910 0.960 . S
C897 C894 1.511 1_556 S
C897 H911 0.961 . S
C897 H912 0.961 . S
C897 H913 0.961 . S
C898 C899 1.370 . S
C898 C900 1.363 . S
C898 H914 0.931 . S
C899 C898 1.370 . S
C899 C903 1.408 . S
C900 C898 1.363 . S
C900 C901 1.370 . S
C900 C904 1.524 1_556 S
C901 C893 1.509 1_556 S
C901 C900 1.370 . S
C901 C902 1.403 . S
C902 C901 1.403 . S
C902 C903 1.404 . S
C902 C905 1.539 1_655 S
C903 C899 1.408 . S
C903 C902 1.404 . S
C903 H915 0.930 . S
C904 C900 1.524 1_554 S
C904 H916 0.956 . S
C904 H917 0.961 . S
C904 H918 0.961 . S
C905 C902 1.539 1_455 S
C905 H919 0.958 1_455 S
C905 H920 0.961 . S
C905 H921 0.960 . S
H906 C890 0.931 . S
H907 C895 0.929 . S
H908 C896 0.960 . S
H909 C896 0.962 . S
H910 C896 0.960 . S
H911 C897 0.961 . S
H912 C897 0.961 . S
H913 C897 0.961 . S
H914 C898 0.931 . S
H915 C903 0.930 . S
H916 C904 0.956 . S
H917 C904 0.961 . S
H918 C904 0.961 . S
H919 C905 0.958 1_655 S
H920 C905 0.961 . S
H921 C905 0.960 . S
C922 C923 1.391 . S
C922 C924 1.394 1_545 S
C922 H938 0.931 1_545 S
C923 C922 1.391 . S
C923 C927 1.376 . S
C924 C922 1.394 1_565 S
C924 C925 1.369 . S
C924 C928 1.531 . S
C925 C924 1.369 . S
C925 C926 1.410 1_565 S
C925 C933 1.503 . S
C926 C925 1.410 1_545 S
C926 C927 1.392 . S
C926 C929 1.511 . S
C927 C923 1.376 . S
C927 C926 1.392 . S
C927 H939 0.929 . S
C928 C924 1.531 . S
C928 H940 0.960 . S
C928 H941 0.962 . S
C928 H942 0.960 . S
C929 C926 1.511 . S
C929 H943 0.961 . S
C929 H944 0.961 . S
C929 H945 0.961 . S
C930 C931 1.370 . S
C930 C932 1.363 . S
C930 H946 0.931 . S
C931 C930 1.370 . S
C931 C935 1.408 . S
C932 C930 1.363 . S
C932 C933 1.370 . S
C932 C936 1.524 . S
C933 C925 1.503 . S
C933 C932 1.370 . S
C933 C934 1.403 . S
C934 C933 1.403 . S
C934 C935 1.404 . S
C934 C937 1.539 . S
C935 C931 1.408 . S
C935 C934 1.404 . S
C935 H947 0.930 . S
C936 C932 1.524 . S
C936 H948 0.956 . S
C936 H949 0.961 1_565 S
C936 H950 0.961 . S
C937 C934 1.539 . S
C937 H951 0.958 . S
C937 H952 0.961 . S
C937 H953 0.960 . S
H938 C922 0.931 1_565 S
H939 C927 0.929 . S
H940 C928 0.960 . S
H941 C928 0.962 . S
H942 C928 0.960 . S
H943 C929 0.961 . S
H944 C929 0.961 . S
H945 C929 0.961 . S
H946 C930 0.931 . S
H947 C935 0.930 . S
H948 C936 0.956 . S
H949 C936 0.961 1_545 S
H950 C936 0.961 . S
H951 C937 0.958 . S
H952 C937 0.961 . S
H953 C937 0.960 . S
C187 C19 1.148 . S
C195 C144 1.267 . S
C219 C156 1.251 . S
C227 C31 1.175 . S
C251 C20 1.253 . S
C259 C81 1.173 . S
C283 C32 1.277 . S
C291 C93 1.213 . S
C315 C143 1.217 . S
C323 C82 1.285 . S
C347 C155 1.155 . S
C355 C94 1.266 . S
C379 C30 1.074 . S
C387 C125 1.075 . S
C411 C41 1.066 . S
C419 C175 1.074 . S
C443 C1 1.065 . S
C451 C92 1.049 . S
C475 C51 1.044 . S
C483 C103 1.020 . S
C507 C63 1.072 . S
C515 C154 1.036 . S
C539 C165 1.056 . S
C547 C113 1.072 . S
C571 C29 1.008 . S
C579 C184 0.987 . S
C603 C33 1.015 . S
C611 C2 0.960 . S
C635 C91 1.007 . S
C643 C60 0.991 . S
C667 C95 1.016 . S
C675 C64 0.961 . S
C699 C122 0.996 . S
C707 C153 1.011 . S
C731 C157 1.012 . S
C739 C126 0.983 . S
C763 C123 2.217 . S
C771 C62 2.291 . S
C795 C134 2.253 . S
C803 C112 2.281 . S
C827 C185 2.241 . S
C835 C124 2.285 . S
C859 C174 2.289 . S
C867 C10 2.244 . S
C891 C0 2.281 . S
C899 C61 2.243 . S
C923 C50 2.260 . S
C931 C72 2.254 . S
