# Generated by pormake.
# Topology unl, (4)-cn, num edge types: 1
# Building blocks:
#     Node 0, Type 0, BuildingBlock: NAHDIM_clean_sbu_0, # of connection points: 4
#     Node 1, Type 0, BuildingBlock: NAHDIM_clean_sbu_0, # of connection points: 4
#     Node 2, Type 0, BuildingBlock: NAHDIM_clean_sbu_0, # of connection points: 4
#     Node 3, Type 0, BuildingBlock: NAHDIM_clean_sbu_0, # of connection points: 4
#     Node 4, Type 0, BuildingBlock: NAHDIM_clean_sbu_0, # of connection points: 4
#     Node 5, Type 0, BuildingBlock: NAHDIM_clean_sbu_0, # of connection points: 4
#     Node 6, Type 0, BuildingBlock: NAHDIM_clean_sbu_0, # of connection points: 4
#     Node 7, Type 0, BuildingBlock: NAHDIM_clean_sbu_0, # of connection points: 4
#     Node 8, Type 0, BuildingBlock: NAHDIM_clean_sbu_0, # of connection points: 4
#     Node 9, Type 0, BuildingBlock: NAHDIM_clean_sbu_0, # of connection points: 4
#     Node 10, Type 0, BuildingBlock: NAHDIM_clean_sbu_0, # of connection points: 4
#     Node 11, Type 0, BuildingBlock: NAHDIM_clean_sbu_0, # of connection points: 4
#     Node 12, Type 0, BuildingBlock: NAHDIM_clean_sbu_0, # of connection points: 4
#     Node 13, Type 0, BuildingBlock: NAHDIM_clean_sbu_0, # of connection points: 4
#     Node 14, Type 0, BuildingBlock: NAHDIM_clean_sbu_0, # of connection points: 4
#     Node 15, Type 0, BuildingBlock: NAHDIM_clean_sbu_0, # of connection points: 4
#     Node 16, Type 0, BuildingBlock: NAHDIM_clean_sbu_0, # of connection points: 4
#     Node 17, Type 0, BuildingBlock: NAHDIM_clean_sbu_0, # of connection points: 4
#     Node 18, Type 0, BuildingBlock: NAHDIM_clean_sbu_0, # of connection points: 4
#     Node 19, Type 0, BuildingBlock: NAHDIM_clean_sbu_0, # of connection points: 4
#     Node 20, Type 0, BuildingBlock: NAHDIM_clean_sbu_0, # of connection points: 4
#     Node 21, Type 0, BuildingBlock: NAHDIM_clean_sbu_0, # of connection points: 4
#     Node 22, Type 0, BuildingBlock: NAHDIM_clean_sbu_0, # of connection points: 4
#     Node 23, Type 0, BuildingBlock: NAHDIM_clean_sbu_0, # of connection points: 4
#     Node 24, Type 0, BuildingBlock: NAHDIM_clean_sbu_0, # of connection points: 4
#     Node 25, Type 0, BuildingBlock: NAHDIM_clean_sbu_0, # of connection points: 4
#     Node 26, Type 0, BuildingBlock: NAHDIM_clean_sbu_0, # of connection points: 4
#     Node 27, Type 0, BuildingBlock: NAHDIM_clean_sbu_0, # of connection points: 4
#     Node 28, Type 0, BuildingBlock: NAHDIM_clean_sbu_0, # of connection points: 4
#     Node 29, Type 0, BuildingBlock: NAHDIM_clean_sbu_0, # of connection points: 4
#     Node 30, Type 0, BuildingBlock: NAHDIM_clean_sbu_0, # of connection points: 4
#     Node 31, Type 0, BuildingBlock: NAHDIM_clean_sbu_0, # of connection points: 4
#     Node 32, Type 0, BuildingBlock: NAHDIM_clean_sbu_0, # of connection points: 4
#     Node 33, Type 0, BuildingBlock: NAHDIM_clean_sbu_0, # of connection points: 4
#     Node 34, Type 0, BuildingBlock: NAHDIM_clean_sbu_0, # of connection points: 4
#     Node 35, Type 0, BuildingBlock: NAHDIM_clean_sbu_0, # of connection points: 4
#     Edge 36, Type (0, 0), BuildingBlock: XUDNAN_clean_linker_2, # of connection points: 2
#     Edge 37, Type (0, 0), BuildingBlock: XUDNAN_clean_linker_2, # of connection points: 2
#     Edge 38, Type (0, 0), BuildingBlock: XUDNAN_clean_linker_2, # of connection points: 2
#     Edge 39, Type (0, 0), BuildingBlock: XUDNAN_clean_linker_2, # of connection points: 2
#     Edge 40, Type (0, 0), BuildingBlock: XUDNAN_clean_linker_2, # of connection points: 2
#     Edge 41, Type (0, 0), BuildingBlock: XUDNAN_clean_linker_2, # of connection points: 2
#     Edge 42, Type (0, 0), BuildingBlock: XUDNAN_clean_linker_2, # of connection points: 2
#     Edge 43, Type (0, 0), BuildingBlock: XUDNAN_clean_linker_2, # of connection points: 2
#     Edge 44, Type (0, 0), BuildingBlock: XUDNAN_clean_linker_2, # of connection points: 2
#     Edge 45, Type (0, 0), BuildingBlock: XUDNAN_clean_linker_2, # of connection points: 2
#     Edge 46, Type (0, 0), BuildingBlock: XUDNAN_clean_linker_2, # of connection points: 2
#     Edge 47, Type (0, 0), BuildingBlock: XUDNAN_clean_linker_2, # of connection points: 2
#     Edge 48, Type (0, 0), BuildingBlock: XUDNAN_clean_linker_2, # of connection points: 2
#     Edge 49, Type (0, 0), BuildingBlock: XUDNAN_clean_linker_2, # of connection points: 2
#     Edge 50, Type (0, 0), BuildingBlock: XUDNAN_clean_linker_2, # of connection points: 2
#     Edge 51, Type (0, 0), BuildingBlock: XUDNAN_clean_linker_2, # of connection points: 2
#     Edge 52, Type (0, 0), BuildingBlock: XUDNAN_clean_linker_2, # of connection points: 2
#     Edge 53, Type (0, 0), BuildingBlock: XUDNAN_clean_linker_2, # of connection points: 2
#     Edge 54, Type (0, 0), BuildingBlock: XUDNAN_clean_linker_2, # of connection points: 2
#     Edge 55, Type (0, 0), BuildingBlock: XUDNAN_clean_linker_2, # of connection points: 2
#     Edge 56, Type (0, 0), BuildingBlock: XUDNAN_clean_linker_2, # of connection points: 2
#     Edge 57, Type (0, 0), BuildingBlock: XUDNAN_clean_linker_2, # of connection points: 2
#     Edge 58, Type (0, 0), BuildingBlock: XUDNAN_clean_linker_2, # of connection points: 2
#     Edge 59, Type (0, 0), BuildingBlock: XUDNAN_clean_linker_2, # of connection points: 2
#     Edge 60, Type (0, 0), BuildingBlock: XUDNAN_clean_linker_2, # of connection points: 2
#     Edge 61, Type (0, 0), BuildingBlock: XUDNAN_clean_linker_2, # of connection points: 2
#     Edge 62, Type (0, 0), BuildingBlock: XUDNAN_clean_linker_2, # of connection points: 2
#     Edge 63, Type (0, 0), BuildingBlock: XUDNAN_clean_linker_2, # of connection points: 2
#     Edge 64, Type (0, 0), BuildingBlock: XUDNAN_clean_linker_2, # of connection points: 2
#     Edge 65, Type (0, 0), BuildingBlock: XUDNAN_clean_linker_2, # of connection points: 2
#     Edge 66, Type (0, 0), BuildingBlock: XUDNAN_clean_linker_2, # of connection points: 2
#     Edge 67, Type (0, 0), BuildingBlock: XUDNAN_clean_linker_2, # of connection points: 2
#     Edge 68, Type (0, 0), BuildingBlock: XUDNAN_clean_linker_2, # of connection points: 2
#     Edge 69, Type (0, 0), BuildingBlock: XUDNAN_clean_linker_2, # of connection points: 2
#     Edge 70, Type (0, 0), BuildingBlock: XUDNAN_clean_linker_2, # of connection points: 2
#     Edge 71, Type (0, 0), BuildingBlock: XUDNAN_clean_linker_2, # of connection points: 2
#     Edge 72, Type (0, 0), BuildingBlock: XUDNAN_clean_linker_2, # of connection points: 2
#     Edge 73, Type (0, 0), BuildingBlock: XUDNAN_clean_linker_2, # of connection points: 2
#     Edge 74, Type (0, 0), BuildingBlock: XUDNAN_clean_linker_2, # of connection points: 2
#     Edge 75, Type (0, 0), BuildingBlock: XUDNAN_clean_linker_2, # of connection points: 2
#     Edge 76, Type (0, 0), BuildingBlock: XUDNAN_clean_linker_2, # of connection points: 2
#     Edge 77, Type (0, 0), BuildingBlock: XUDNAN_clean_linker_2, # of connection points: 2
#     Edge 78, Type (0, 0), BuildingBlock: XUDNAN_clean_linker_2, # of connection points: 2
#     Edge 79, Type (0, 0), BuildingBlock: XUDNAN_clean_linker_2, # of connection points: 2
#     Edge 80, Type (0, 0), BuildingBlock: XUDNAN_clean_linker_2, # of connection points: 2
#     Edge 81, Type (0, 0), BuildingBlock: XUDNAN_clean_linker_2, # of connection points: 2
#     Edge 82, Type (0, 0), BuildingBlock: XUDNAN_clean_linker_2, # of connection points: 2
#     Edge 83, Type (0, 0), BuildingBlock: XUDNAN_clean_linker_2, # of connection points: 2
#     Edge 84, Type (0, 0), BuildingBlock: XUDNAN_clean_linker_2, # of connection points: 2
#     Edge 85, Type (0, 0), BuildingBlock: XUDNAN_clean_linker_2, # of connection points: 2
#     Edge 86, Type (0, 0), BuildingBlock: XUDNAN_clean_linker_2, # of connection points: 2
#     Edge 87, Type (0, 0), BuildingBlock: XUDNAN_clean_linker_2, # of connection points: 2
#     Edge 88, Type (0, 0), BuildingBlock: XUDNAN_clean_linker_2, # of connection points: 2
#     Edge 89, Type (0, 0), BuildingBlock: XUDNAN_clean_linker_2, # of connection points: 2
#     Edge 90, Type (0, 0), BuildingBlock: XUDNAN_clean_linker_2, # of connection points: 2
#     Edge 91, Type (0, 0), BuildingBlock: XUDNAN_clean_linker_2, # of connection points: 2
#     Edge 92, Type (0, 0), BuildingBlock: XUDNAN_clean_linker_2, # of connection points: 2
#     Edge 93, Type (0, 0), BuildingBlock: XUDNAN_clean_linker_2, # of connection points: 2
#     Edge 94, Type (0, 0), BuildingBlock: XUDNAN_clean_linker_2, # of connection points: 2
#     Edge 95, Type (0, 0), BuildingBlock: XUDNAN_clean_linker_2, # of connection points: 2
#     Edge 96, Type (0, 0), BuildingBlock: XUDNAN_clean_linker_2, # of connection points: 2
#     Edge 97, Type (0, 0), BuildingBlock: XUDNAN_clean_linker_2, # of connection points: 2
#     Edge 98, Type (0, 0), BuildingBlock: XUDNAN_clean_linker_2, # of connection points: 2
#     Edge 99, Type (0, 0), BuildingBlock: XUDNAN_clean_linker_2, # of connection points: 2
#     Edge 100, Type (0, 0), BuildingBlock: XUDNAN_clean_linker_2, # of connection points: 2
#     Edge 101, Type (0, 0), BuildingBlock: XUDNAN_clean_linker_2, # of connection points: 2
#     Edge 102, Type (0, 0), BuildingBlock: XUDNAN_clean_linker_2, # of connection points: 2
#     Edge 103, Type (0, 0), BuildingBlock: XUDNAN_clean_linker_2, # of connection points: 2
#     Edge 104, Type (0, 0), BuildingBlock: XUDNAN_clean_linker_2, # of connection points: 2
#     Edge 105, Type (0, 0), BuildingBlock: XUDNAN_clean_linker_2, # of connection points: 2
#     Edge 106, Type (0, 0), BuildingBlock: XUDNAN_clean_linker_2, # of connection points: 2
#     Edge 107, Type (0, 0), BuildingBlock: XUDNAN_clean_linker_2, # of connection points: 2
# Relax obj value: 0.182
# Max RMSD: 0.223
# Mean RMSD: 0.223
data_MOF--net-unl--node1-NAHDIM_clean_sbu_0--edge1-XUDNAN_clean_linker_2
_symmetry_space_group_name_H-M    P1
_symmetry_Int_Tables_number       1
_symmetry_cell_setting            triclinic
loop_
_symmetry_equiv_pos_as_xyz
'x, y, z'
_cell_length_a     64.464129
_cell_length_b     64.477005
_cell_length_c     39.263882
_cell_angle_alpha  89.963111
_cell_angle_beta   89.99021
_cell_angle_gamma 120.00756
loop_
_atom_site_label
_atom_site_type_symbol
_atom_site_fract_x
_atom_site_fract_y
_atom_site_fract_z
_atom_type_partial_charge
C0 C 0.2415 0.12858 0.12375 0.0
O1 O 0.2239 0.11915 0.14594 0.0
O2 O 0.18556 0.08408 0.06821 0.0
Zn3 Zn 0.20308 0.11939 0.07806 0.0
O4 O 0.18592 0.12857 0.11246 0.0
C5 C 0.20226 0.12753 0.00531 0.0
O6 O 0.20296 0.1076 0.0021 0.0
O7 O 0.23693 0.13068 0.09289 0.0
C8 C 0.17296 0.11628 0.13731 0.0
O9 O 0.16983 0.09483 0.1431 0.0
C10 C 0.18739 0.06787 0.08404 0.0
O11 O 0.20109 0.07348 0.11114 0.0
O12 O 0.20319 0.13599 0.03486 0.0
C13 C 0.88269 0.12458 0.12759 0.0
O14 O 0.90586 0.13944 0.12985 0.0
O15 O 0.92768 0.11344 0.08751 0.0
Zn16 Zn 0.89439 0.08869 0.10157 0.0
O17 O 0.89375 0.06617 0.13769 0.0
C18 C 0.88718 0.06352 0.03735 0.0
O19 O 0.91003 0.07031 0.0398 0.0
O20 O 0.87506 0.10334 0.11716 0.0
C21 C 0.90512 0.05486 0.13483 0.0
O22 O 0.91904 0.05892 0.10828 0.0
C23 C 0.94639 0.12124 0.10574 0.0
O24 O 0.94455 0.11359 0.13722 0.0
O25 O 0.87727 0.06932 0.06048 0.0
C26 C 0.86866 0.74582 0.14617 0.0
O27 O 0.85573 0.75449 0.159 0.0
O28 O 0.8713 0.79964 0.12036 0.0
Zn29 Zn 0.89965 0.79484 0.12573 0.0
O30 O 0.92148 0.81388 0.16437 0.0
C31 C 0.90847 0.802 0.05326 0.0
O32 O 0.88499 0.79097 0.0514 0.0
O33 O 0.88833 0.75991 0.1315 0.0
C34 C 0.93777 0.83546 0.15927 0.0
O35 O 0.9394 0.8452 0.12927 0.0
C36 C 0.87217 0.81954 0.12508 0.0
O37 O 0.89188 0.83773 0.1371 0.0
O38 O 0.91846 0.80542 0.08223 0.0
C39 C 0.13535 0.25316 0.36164 0.0
O40 O 0.15144 0.24798 0.35047 0.0
O41 O 0.07364 0.18206 0.3887 0.0
Zn42 Zn 0.10779 0.20227 0.37379 0.0
O43 O 0.11311 0.19209 0.32781 0.0
C44 C 0.12213 0.18339 0.4304 0.0
O45 O 0.09914 0.16765 0.43185 0.0
O46 O 0.11539 0.23642 0.37245 0.0
C47 C 0.11308 0.17247 0.32449 0.0
O48 O 0.10873 0.15864 0.35125 0.0
C49 C 0.05772 0.18712 0.3799 0.0
O50 O 0.06348 0.20511 0.35896 0.0
O51 O 0.12978 0.19967 0.40778 0.0
C52 C 0.76184 0.88387 0.35198 0.0
O53 O 0.7658 0.90525 0.36054 0.0
O54 O 0.83079 0.88986 0.3798 0.0
Zn55 Zn 0.81249 0.90568 0.36376 0.0
O56 O 0.82932 0.9282 0.32469 0.0
C57 C 0.82903 0.9374 0.42043 0.0
O58 O 0.84927 0.93868 0.41144 0.0
O59 O 0.77935 0.88007 0.35069 0.0
C60 C 0.84565 0.92757 0.30736 0.0
O61 O 0.85155 0.91127 0.31441 0.0
C62 C 0.82419 0.8787 0.40795 0.0
O63 O 0.80581 0.87766 0.42402 0.0
O64 O 0.81028 0.92442 0.4031 0.0
C65 C 0.10678 0.86275 0.33965 0.0
O66 O 0.09989 0.87372 0.31811 0.0
O67 O 0.10472 0.91048 0.40207 0.0
Zn68 Zn 0.08241 0.87648 0.38814 0.0
O69 O 0.05874 0.87422 0.3527 0.0
C70 C 0.07502 0.86296 0.45858 0.0
O71 O 0.09808 0.87842 0.46031 0.0
O72 O 0.10125 0.86167 0.37089 0.0
C73 C 0.06006 0.89233 0.3377 0.0
O74 O 0.07761 0.91384 0.3453 0.0
C75 C 0.1239 0.92531 0.3869 0.0
O76 O 0.13012 0.91897 0.35863 0.0
O77 O 0.06446 0.85884 0.42995 0.0
C78 C 0.75649 0.87046 0.84005 0.0
O79 O 0.77542 0.88477 0.8218 0.0
O80 O 0.80845 0.9132 0.89364 0.0
Zn81 Zn 0.79265 0.87755 0.88756 0.0
O82 O 0.81108 0.86952 0.85422 0.0
C83 C 0.80337 0.87439 0.95814 0.0
O84 O 0.81626 0.89779 0.95532 0.0
O85 O 0.75938 0.86456 0.86978 0.0
C86 C 0.83166 0.87239 0.86072 0.0
O87 O 0.84175 0.88148 0.8902 0.0
C88 C 0.79625 0.92354 0.89779 0.0
O89 O 0.77278 0.91084 0.8961 0.0
O90 O 0.79152 0.86206 0.93258 0.0
C91 C 0.09599 0.86356 0.88694 0.0
O92 O 0.0782 0.85649 0.90865 0.0
O93 O 0.05503 0.88409 0.89716 0.0
Zn94 Zn 0.08839 0.90374 0.87912 0.0
O95 O 0.0896 0.92168 0.83656 0.0
C96 C 0.11122 0.92249 0.94441 0.0
O97 O 0.10401 0.89996 0.95134 0.0
O98 O 0.10321 0.88312 0.87089 0.0
C99 C 0.11018 0.93858 0.82797 0.0
O100 O 0.12883 0.94253 0.84639 0.0
C101 C 0.03529 0.87519 0.88119 0.0
O102 O 0.03529 0.87836 0.84813 0.0
O103 O 0.10694 0.92805 0.91524 0.0
C104 C 0.12504 0.26573 0.89779 0.0
O105 O 0.12493 0.25669 0.92781 0.0
O106 O 0.12023 0.20533 0.88728 0.0
Zn107 Zn 0.09615 0.21602 0.88086 0.0
O108 O 0.07503 0.19943 0.84041 0.0
C109 C 0.08309 0.20448 0.9521 0.0
O110 O 0.10483 0.20771 0.95482 0.0
O111 O 0.11365 0.25166 0.8734 0.0
C112 C 0.05325 0.18312 0.84379 0.0
O113 O 0.04415 0.17666 0.87449 0.0
C114 C 0.12408 0.19221 0.86712 0.0
O115 O 0.11199 0.18489 0.83851 0.0
O116 O 0.0759 0.20757 0.92339 0.0
C117 C 0.87416 0.74018 0.64081 0.0
O118 O 0.89251 0.74862 0.66173 0.0
O119 O 0.92888 0.7937 0.60798 0.0
Zn120 Zn 0.89668 0.78926 0.61947 0.0
O121 O 0.89669 0.80447 0.66404 0.0
C122 C 0.89584 0.80696 0.55224 0.0
O123 O 0.91096 0.79948 0.54536 0.0
O124 O 0.87227 0.7544 0.62038 0.0
C125 C 0.87789 0.80546 0.67046 0.0
O126 O 0.86025 0.7964 0.64832 0.0
C127 C 0.94799 0.80415 0.62541 0.0
O128 O 0.94756 0.81239 0.65584 0.0
O129 O 0.88749 0.80451 0.58224 0.0
C130 C 0.25223 0.11534 0.62886 0.0
O131 O 0.24042 0.1206 0.65127 0.0
O132 O 0.19541 0.10942 0.58565 0.0
Zn133 Zn 0.2053 0.08549 0.59894 0.0
O134 O 0.18787 0.06685 0.64064 0.0
C135 C 0.20653 0.06714 0.53229 0.0
O136 O 0.22519 0.08855 0.52754 0.0
O137 O 0.24084 0.10085 0.60492 0.0
C138 C 0.16523 0.05368 0.63916 0.0
O139 O 0.15403 0.05401 0.61138 0.0
C140 C 0.21009 0.12941 0.57218 0.0
O141 O 0.23271 0.13541 0.56925 0.0
O142 O 0.19566 0.06206 0.56072 0.0
C143 C 0.86848 0.12064 0.59617 0.0
O144 O 0.87055 0.1153 0.56453 0.0
O145 O 0.88379 0.06924 0.59639 0.0
Zn146 Zn 0.90183 0.10459 0.6056 0.0
O147 O 0.92838 0.11361 0.63927 0.0
C148 C 0.9312 0.11232 0.54902 0.0
O149 O 0.93326 0.09566 0.5654 0.0
O150 O 0.88019 0.11722 0.61937 0.0
C151 C 0.92663 0.11152 0.67144 0.0
O152 O 0.9054 0.102 0.68581 0.0
C153 C 0.86113 0.05618 0.59549 0.0
O154 O 0.84774 0.06519 0.60506 0.0
O155 O 0.91797 0.11981 0.56151 0.0
C156 C 0.92544 0.47501 0.4666 0.0
O157 O 0.91565 0.45434 0.4826 0.0
O158 O 0.87915 0.42279 0.42077 0.0
Zn159 Zn 0.87976 0.45322 0.43334 0.0
O160 O 0.85847 0.44835 0.47355 0.0
C161 C 0.84815 0.45105 0.37978 0.0
O162 O 0.83366 0.43001 0.39331 0.0
O163 O 0.91332 0.47861 0.44431 0.0
C164 C 0.85044 0.46256 0.478 0.0
O165 O 0.8562 0.48004 0.4561 0.0
C166 C 0.8617 0.40233 0.42851 0.0
O167 O 0.84397 0.40096 0.44676 0.0
O168 O 0.86873 0.4641 0.39281 0.0
C169 C 0.52196 0.4472 0.47048 0.0
O170 O 0.53385 0.44736 0.49774 0.0
O171 O 0.57679 0.44383 0.42768 0.0
Zn172 Zn 0.54233 0.42034 0.43856 0.0
O173 O 0.53941 0.4009 0.48029 0.0
C174 C 0.54111 0.39379 0.37845 0.0
O175 O 0.56414 0.40331 0.38444 0.0
O176 O 0.52326 0.43697 0.44361 0.0
C177 C 0.55602 0.40749 0.50225 0.0
O178 O 0.57591 0.42804 0.49816 0.0
C179 C 0.58491 0.46602 0.42234 0.0
O180 O 0.57065 0.47494 0.42599 0.0
O181 O 0.52836 0.39823 0.39854 0.0
C182 C 0.53194 0.07338 0.4566 0.0
O183 O 0.52547 0.08571 0.47616 0.0
O184 O 0.54154 0.12897 0.41754 0.0
Zn185 Zn 0.56588 0.12019 0.4322 0.0
O186 O 0.57989 0.13505 0.47774 0.0
C187 C 0.59875 0.14892 0.37794 0.0
O188 O 0.58927 0.16263 0.38226 0.0
O189 O 0.54924 0.08446 0.43598 0.0
C190 C 0.60124 0.15233 0.48064 0.0
O191 O 0.61458 0.16093 0.45327 0.0
C192 C 0.54315 0.14903 0.42392 0.0
O193 O 0.56151 0.1652 0.4414 0.0
O194 O 0.5916 0.13031 0.39628 0.0
C195 C 0.77377 0.5665 0.67172 0.0
O196 O 0.75397 0.55042 0.65676 0.0
O197 O 0.73416 0.51326 0.72096 0.0
Zn198 Zn 0.7686 0.52561 0.70857 0.0
O199 O 0.77223 0.50724 0.66993 0.0
C200 C 0.77894 0.51632 0.77811 0.0
O201 O 0.75603 0.5077 0.78407 0.0
O202 O 0.78315 0.55988 0.6946 0.0
C203 C 0.77445 0.489 0.67529 0.0
O204 O 0.77304 0.48123 0.70662 0.0
C205 C 0.71922 0.49141 0.7271 0.0
O206 O 0.726 0.47537 0.7243 0.0
O207 O 0.78743 0.52455 0.74879 0.0
C208 C 0.42514 0.21067 0.6718 0.0
O209 O 0.44354 0.21166 0.65589 0.0
O210 O 0.47742 0.22701 0.72831 0.0
Zn211 Zn 0.46221 0.24613 0.71369 0.0
O212 O 0.48137 0.27004 0.67728 0.0
C213 C 0.45624 0.25499 0.78399 0.0
O214 O 0.45077 0.23258 0.7879 0.0
O215 O 0.42881 0.22406 0.69745 0.0
C216 C 0.50244 0.28685 0.68391 0.0
O217 O 0.51165 0.28752 0.71402 0.0
C218 C 0.49089 0.22211 0.71057 0.0
O219 O 0.49596 0.22984 0.67902 0.0
O220 O 0.46116 0.26425 0.75441 0.0
C221 C 0.7779 0.19168 0.69352 0.0
O222 O 0.78106 0.19411 0.72665 0.0
O223 O 0.77046 0.24529 0.7195 0.0
Zn224 Zn 0.74709 0.21162 0.70515 0.0
O225 O 0.7219 0.21063 0.67385 0.0
C226 C 0.72992 0.19919 0.77489 0.0
O227 O 0.74094 0.2225 0.77911 0.0
O228 O 0.76438 0.19814 0.67921 0.0
C229 C 0.70082 0.20452 0.68373 0.0
O230 O 0.69535 0.19995 0.71613 0.0
C231 C 0.76402 0.2606 0.72554 0.0
O232 O 0.74148 0.25458 0.72133 0.0
O233 O 0.73083 0.1907 0.74608 0.0
C234 C 0.41451 0.2008 0.16104 0.0
O235 O 0.4266 0.2169 0.13753 0.0
O236 O 0.46861 0.25186 0.207 0.0
Zn237 Zn 0.46049 0.21802 0.19684 0.0
O238 O 0.48083 0.21528 0.1599 0.0
C239 C 0.47708 0.21478 0.2652 0.0
O240 O 0.48882 0.23829 0.2648 0.0
O241 O 0.42552 0.19857 0.1863 0.0
C242 C 0.50128 0.21824 0.16787 0.0
O243 O 0.50893 0.2241 0.19932 0.0
C244 C 0.48951 0.2701 0.20592 0.0
O245 O 0.50745 0.26774 0.1949 0.0
O246 O 0.46461 0.20328 0.23956 0.0
C247 C 0.792 0.20492 0.1852 0.0
O248 O 0.76931 0.19819 0.18058 0.0
O249 O 0.758 0.22334 0.23079 0.0
Zn250 Zn 0.792 0.24516 0.21536 0.0
O251 O 0.79417 0.26701 0.17712 0.0
C252 C 0.80419 0.26387 0.28452 0.0
O253 O 0.78208 0.2474 0.29168 0.0
O254 O 0.80562 0.22487 0.1995 0.0
C255 C 0.79622 0.2873 0.18344 0.0
O256 O 0.79555 0.2933 0.21522 0.0
C257 C 0.74245 0.22957 0.23609 0.0
O258 O 0.74801 0.25184 0.23041 0.0
O259 O 0.81204 0.26561 0.25435 0.0
C260 C 0.78354 0.57111 0.17341 0.0
O261 O 0.78905 0.55489 0.16404 0.0
O262 O 0.76694 0.51861 0.21931 0.0
Zn263 Zn 0.74466 0.53081 0.20679 0.0
O264 O 0.72143 0.5117 0.16951 0.0
C265 C 0.72171 0.51747 0.27355 0.0
O266 O 0.72981 0.50241 0.2741 0.0
O267 O 0.76491 0.56479 0.19133 0.0
C268 C 0.70155 0.49299 0.17611 0.0
O269 O 0.69674 0.48519 0.20764 0.0
C270 C 0.76181 0.49692 0.22193 0.0
O271 O 0.73993 0.47965 0.21539 0.0
O272 O 0.72609 0.53112 0.24795 0.0
C273 C 0.52978 0.08023 0.96187 0.0
O274 O 0.54605 0.09296 0.98484 0.0
O275 O 0.58333 0.13411 0.92226 0.0
Zn276 Zn 0.54916 0.12612 0.92989 0.0
O277 O 0.54611 0.14337 0.97055 0.0
C278 C 0.54603 0.13707 0.85893 0.0
O279 O 0.56057 0.12863 0.85378 0.0
O280 O 0.52759 0.0907 0.93586 0.0
C281 C 0.56305 0.15604 0.99101 0.0
O282 O 0.58415 0.15801 0.98644 0.0
C283 C 0.58856 0.11835 0.91313 0.0
O284 O 0.5714 0.09595 0.91037 0.0
O285 O 0.5387 0.13722 0.88895 0.0
C286 C 0.9269 0.45267 0.96065 0.0
O287 O 0.91679 0.45636 0.98725 0.0
O288 O 0.87214 0.45447 0.92089 0.0
Zn289 Zn 0.87863 0.42802 0.93295 0.0
O290 O 0.86266 0.41195 0.977 0.0
C291 C 0.84546 0.39454 0.88308 0.0
O292 O 0.83011 0.39989 0.89668 0.0
O293 O 0.91404 0.44115 0.93537 0.0
C294 C 0.8574 0.3904 0.98214 0.0
O295 O 0.86273 0.37929 0.95867 0.0
C296 C 0.85289 0.45413 0.92893 0.0
O297 O 0.83689 0.43646 0.94766 0.0
O298 O 0.86664 0.40419 0.89475 0.0
C299 C 0.52712 0.46083 0.96486 0.0
O300 O 0.52144 0.44448 0.98859 0.0
O301 O 0.52784 0.40703 0.92257 0.0
Zn302 Zn 0.55375 0.43991 0.93554 0.0
O303 O 0.57075 0.43941 0.9783 0.0
C304 C 0.58539 0.43987 0.88404 0.0
O305 O 0.57918 0.41881 0.89721 0.0
O306 O 0.54049 0.46193 0.94039 0.0
C307 C 0.59228 0.45588 0.98301 0.0
O308 O 0.60267 0.47291 0.96009 0.0
C309 C 0.51934 0.38844 0.94121 0.0
O310 O 0.52685 0.39026 0.97276 0.0
O311 O 0.57693 0.45221 0.89668 0.0
C312 C 0.58463 0.80034 0.79502 0.0
O313 O 0.57201 0.7849 0.81898 0.0
O314 O 0.52794 0.75219 0.75293 0.0
Zn315 Zn 0.53835 0.78623 0.76564 0.0
O316 O 0.52305 0.78883 0.80904 0.0
C317 C 0.51448 0.79245 0.7061 0.0
O318 O 0.50024 0.76913 0.70746 0.0
O319 O 0.57391 0.80379 0.77049 0.0
C320 C 0.50228 0.78654 0.80843 0.0
O321 O 0.49059 0.78163 0.77945 0.0
C322 C 0.50735 0.73426 0.75862 0.0
O323 O 0.49117 0.73732 0.77454 0.0
O324 O 0.53118 0.80269 0.72785 0.0
C325 C 0.19602 0.79395 0.82587 0.0
O326 O 0.20817 0.80419 0.79802 0.0
O327 O 0.25093 0.79469 0.80397 0.0
Zn328 Zn 0.21926 0.76642 0.8178 0.0
O329 O 0.2225 0.74316 0.84863 0.0
C330 C 0.2106 0.75494 0.74545 0.0
O331 O 0.22959 0.77613 0.7409 0.0
O332 O 0.19823 0.77732 0.83961 0.0
C333 C 0.22781 0.72835 0.83558 0.0
O334 O 0.23286 0.72987 0.80293 0.0
C335 C 0.27095 0.79542 0.80615 0.0
O336 O 0.27206 0.77799 0.82173 0.0
O337 O 0.20287 0.74789 0.77547 0.0
C338 C 0.21292 0.43186 0.81585 0.0
O339 O 0.21253 0.43223 0.78242 0.0
O340 O 0.22162 0.49719 0.79686 0.0
Zn341 Zn 0.24285 0.48396 0.81031 0.0
O342 O 0.26741 0.50577 0.84425 0.0
C343 C 0.24979 0.47902 0.73884 0.0
O344 O 0.22763 0.4747 0.73692 0.0
O345 O 0.22428 0.45144 0.83211 0.0
C346 C 0.2617 0.51504 0.86843 0.0
O347 O 0.2396 0.51091 0.87032 0.0
C348 C 0.19887 0.48523 0.7962 0.0
O349 O 0.18772 0.463 0.80716 0.0
O350 O 0.25984 0.48278 0.76784 0.0
C351 C 0.45577 0.90921 0.01685 0.0
O352 O 0.43749 0.89029 0.0032 0.0
O353 O 0.42002 0.86244 0.07874 0.0
Zn354 Zn 0.45311 0.87329 0.06114 0.0
O355 O 0.45183 0.85166 0.0234 0.0
C356 C 0.46597 0.8559 0.11993 0.0
O357 O 0.44436 0.83759 0.11512 0.0
O358 O 0.4661 0.90646 0.04258 0.0
C359 C 0.4702 0.85043 0.01495 0.0
O360 O 0.49029 0.86317 0.0318 0.0
C361 C 0.40277 0.84105 0.07629 0.0
O362 O 0.4063 0.82483 0.06142 0.0
O363 O 0.47391 0.87358 0.09961 0.0
C364 C 0.1011 0.53293 0.99214 0.0
O365 O 0.11853 0.53582 0.97178 0.0
O366 O 0.15501 0.54388 0.05084 0.0
Zn367 Zn 0.13965 0.56333 0.03831 0.0
O368 O 0.15914 0.58887 0.00403 0.0
C369 C 0.151 0.58331 0.10625 0.0
O370 O 0.16593 0.57503 0.10598 0.0
O371 O 0.10613 0.54278 0.02127 0.0
C372 C 0.17336 0.58812 0.98232 0.0
O373 O 0.17596 0.56918 0.98096 0.0
C374 C 0.14337 0.52129 0.05469 0.0
O375 O 0.12043 0.50942 0.04725 0.0
O376 O 0.13791 0.58012 0.08036 0.0
C377 C 0.45562 0.56055 0.01633 0.0
O378 O 0.45692 0.57925 0.00087 0.0
O379 O 0.45261 0.60203 0.08137 0.0
Zn380 Zn 0.42759 0.56926 0.06556 0.0
O381 O 0.40388 0.56972 0.03238 0.0
C382 C 0.40652 0.55816 0.13328 0.0
O383 O 0.41523 0.5814 0.13542 0.0
O384 O 0.44398 0.55325 0.044 0.0
C385 C 0.38626 0.57176 0.0426 0.0
O386 O 0.38416 0.57482 0.07522 0.0
C387 C 0.45044 0.62056 0.08109 0.0
O388 O 0.43101 0.61924 0.06825 0.0
O389 O 0.40972 0.54933 0.10621 0.0
C390 C 0.09461 0.57214 0.53058 0.0
O391 O 0.11148 0.59331 0.52019 0.0
O392 O 0.14828 0.60768 0.57748 0.0
Zn393 Zn 0.13403 0.57294 0.56545 0.0
O394 O 0.15248 0.56871 0.52708 0.0
C395 C 0.15154 0.56428 0.628 0.0
O396 O 0.16956 0.5858 0.62155 0.0
O397 O 0.10009 0.56004 0.55039 0.0
C398 C 0.16466 0.55829 0.53084 0.0
O399 O 0.16603 0.55035 0.56108 0.0
C400 C 0.13895 0.61254 0.6025 0.0
O401 O 0.12052 0.59494 0.61816 0.0
O402 O 0.13407 0.55484 0.6073 0.0
C403 C 0.43551 0.53408 0.513 0.0
O404 O 0.42112 0.53784 0.49357 0.0
O405 O 0.39304 0.54065 0.57875 0.0
Zn406 Zn 0.4259 0.5622 0.55991 0.0
O407 O 0.42605 0.58392 0.52281 0.0
C408 C 0.4363 0.59183 0.61776 0.0
O409 O 0.41383 0.58583 0.61271 0.0
O410 O 0.44017 0.54279 0.54286 0.0
C411 C 0.44658 0.60133 0.5151 0.0
O412 O 0.46551 0.60329 0.53074 0.0
C413 C 0.37317 0.53267 0.56337 0.0
O414 O 0.37296 0.5378 0.53103 0.0
O415 O 0.44591 0.58334 0.59819 0.0
C416 C 0.43124 0.90158 0.50347 0.0
O417 O 0.43097 0.88286 0.48975 0.0
O418 O 0.42474 0.85552 0.56376 0.0
Zn419 Zn 0.40111 0.866 0.55106 0.0
O420 O 0.377 0.84324 0.51722 0.0
C421 C 0.38251 0.85369 0.61879 0.0
O422 O 0.39201 0.83986 0.61632 0.0
O423 O 0.41905 0.89876 0.53026 0.0
C424 C 0.37911 0.82666 0.50305 0.0
O425 O 0.39741 0.82395 0.51094 0.0
C426 C 0.44595 0.87067 0.57274 0.0
O427 O 0.45278 0.89358 0.57248 0.0
O428 O 0.38406 0.86682 0.59363 0.0
C429 C 0.19311 0.42459 0.3327 0.0
O430 O 0.18154 0.4365 0.33496 0.0
O431 O 0.26318 0.48132 0.29008 0.0
Zn432 Zn 0.22813 0.46757 0.29918 0.0
O433 O 0.22233 0.48943 0.32904 0.0
C434 C 0.22128 0.48288 0.23437 0.0
O435 O 0.24101 0.50233 0.24358 0.0
O436 O 0.21378 0.43462 0.31919 0.0
C437 C 0.22537 0.4909 0.36109 0.0
O438 O 0.2332 0.47789 0.37605 0.0
C439 C 0.27134 0.4677 0.2819 0.0
O440 O 0.25685 0.44439 0.28202 0.0
O441 O 0.21211 0.46499 0.25437 0.0
C442 C 0.589 0.77438 0.3249 0.0
O443 O 0.57689 0.75143 0.31755 0.0
O444 O 0.53159 0.792 0.30372 0.0
Zn445 Zn 0.5429 0.76885 0.31499 0.0
O446 O 0.52376 0.74597 0.3526 0.0
C447 C 0.52305 0.74647 0.25017 0.0
O448 O 0.50996 0.75668 0.25419 0.0
O449 O 0.57797 0.78607 0.3264 0.0
C450 C 0.50112 0.73294 0.35042 0.0
O451 O 0.49002 0.73576 0.32432 0.0
C452 C 0.54609 0.81286 0.29259 0.0
O453 O 0.56916 0.8204 0.29279 0.0
O454 O 0.53831 0.74926 0.27283 0.0
C455 C 0.20065 0.78258 0.30648 0.0
O456 O 0.20002 0.77059 0.33391 0.0
O457 O 0.20514 0.72988 0.26173 0.0
Zn458 Zn 0.22913 0.76354 0.27571 0.0
O459 O 0.24754 0.76544 0.31831 0.0
C460 C 0.25803 0.76916 0.21506 0.0
O461 O 0.24724 0.74566 0.21488 0.0
O462 O 0.21194 0.78197 0.28038 0.0
C463 C 0.26423 0.76043 0.31604 0.0
O464 O 0.26811 0.7532 0.28669 0.0
C465 C 0.20512 0.71087 0.27031 0.0
O466 O 0.22151 0.71208 0.29134 0.0
O467 O 0.25292 0.77975 0.23804 0.0
H468 H 0.16474 0.0529 0.02278 0.0
H469 H 0.18402 0.02751 0.11318 0.0
H470 H 0.16611 0.98704 0.08773 0.0
H471 H 0.10825 -0.00073 0.00634 0.0
H472 H 0.1122 0.00197 0.96079 0.0
H473 H 0.12555 0.02841 0.98702 0.0
H474 H 0.16719 0.04087 0.96118 0.0
H475 H 0.15401 0.0144 0.93502 0.0
H476 H 0.17846 0.02033 0.96314 0.0
H477 H 0.14648 0.9494 0.05142 0.0
H478 H 0.12711 0.91801 0.00738 0.0
H479 H 0.12217 0.96919 0.94089 0.0
C480 C 0.16501 0.03882 0.03748 0.0
C481 C 0.17568 0.04332 0.07005 0.0
C482 C 0.17589 0.02443 0.0882 0.0
C483 C 0.16577 0.00141 0.07396 0.0
C484 C 0.15564 0.99769 0.04157 0.0
C485 C 0.15522 0.01591 0.02361 0.0
C486 C 0.14396 0.00761 0.9889 0.0
C487 C 0.12113 0.00942 0.98559 0.0
C488 C 0.16198 0.02163 0.96039 0.0
C489 C 0.13815 0.98184 0.99 0.0
C490 C 0.14488 0.97636 0.02059 0.0
C491 C 0.14114 0.95351 0.02737 0.0
C492 C 0.13015 0.93581 0.00222 0.0
C493 C 0.12321 0.94117 0.97067 0.0
C494 C 0.12737 0.96453 0.96464 0.0
H495 H 0.9556 0.14028 0.04161 0.0
H496 H 0.99077 0.13792 0.13464 0.0
H497 H 0.03017 0.16176 0.10662 0.0
H498 H 0.99291 0.13244 0.98522 0.0
H499 H 0.99284 0.15232 0.95298 0.0
H500 H 0.96771 0.13717 0.98137 0.0
H501 H 0.97239 0.17793 -0.00038 0.0
H502 H 0.99752 0.19323 0.97114 0.0
H503 H 0.00082 0.20113 0.01563 0.0
H504 H 0.06546 0.18276 0.06658 0.0
H505 H 0.09371 0.19994 0.01835 0.0
H506 H 0.03501 0.18869 0.95221 0.0
C507 C 0.97157 0.14506 0.05635 0.0
C508 C 0.9701 0.13726 0.09036 0.0
C509 C 0.99146 0.14378 0.1086 0.0
C510 C 0.01391 0.15732 0.09291 0.0
C511 C 0.01466 0.16432 0.05911 0.0
C512 C 0.99403 0.15855 0.04116 0.0
C513 C -0.00048 0.16714 0.00466 0.0
C514 C 0.98754 0.14601 0.9796 0.0
C515 C 0.99213 0.18598 0.99735 0.0
C516 C 0.02645 0.1782 0.00459 0.0
C517 C 0.0349 0.17654 0.03624 0.0
C518 C 0.05907 0.18443 0.04181 0.0
C519 C 0.07497 0.19411 0.01424 0.0
C520 C 0.06659 0.19578 0.98156 0.0
C521 C 0.04204 0.18795 0.97695 0.0
H522 H 0.83457 0.89461 0.01112 0.0
H523 H 0.77629 0.82688 0.97474 0.0
H524 H 0.78284 0.80606 0.02265 0.0
H525 H 0.87254 0.87459 0.02864 0.0
H526 H 0.88582 0.89237 0.06626 0.0
H527 H 0.87302 0.90257 0.03441 0.0
H528 H 0.8454 0.90541 0.07989 0.0
H529 H 0.85819 0.89518 0.11204 0.0
H530 H 0.82624 0.87955 0.10543 0.0
H531 H 0.80021 0.79189 0.06711 0.0
H532 H 0.82769 0.78541 0.10334 0.0
H533 H 0.87475 0.86228 0.11117 0.0
C534 C 0.82264 0.87551 0.0139 0.0
C535 C 0.80485 0.86237 0.98932 0.0
C536 C 0.78998 0.83732 0.99335 0.0
C537 C 0.79347 0.82535 0.02063 0.0
C538 C 0.81174 0.83873 0.04378 0.0
C539 C 0.82599 0.86331 0.04083 0.0
C540 C 0.84649 0.87309 0.06605 0.0
C541 C 0.87088 0.88641 0.04773 0.0
C542 C 0.84391 0.88926 0.09242 0.0
C543 C 0.84241 0.85003 0.08218 0.0
C544 C 0.82193 0.83046 0.06963 0.0
C545 C 0.81596 0.80708 0.07777 0.0
C546 C 0.83172 0.80357 0.09829 0.0
C547 C 0.8533 0.82336 0.11019 0.0
C548 C 0.85816 0.84683 0.10305 0.0
H549 H 0.96679 0.1059 0.52285 0.0
H550 H 0.92755 0.14335 0.50485 0.0
H551 H 0.95295 0.16317 0.45457 0.0
H552 H 0.02305 0.15401 0.50522 0.0
H553 H 0.03448 0.1366 0.48521 0.0
H554 H 0.01118 0.12302 0.51667 0.0
H555 H 0.9844 0.08987 0.47361 0.0
H556 H 0.00768 0.10339 0.44193 0.0
H557 H 0.97805 0.09817 0.43271 0.0
H558 H 0.98492 0.18148 0.40946 0.0
H559 H 0.02194 0.19824 0.37508 0.0
H560 H 0.04036 0.14911 0.42373 0.0
C561 C 0.96319 0.1179 0.50797 0.0
C562 C 0.94513 0.12301 0.51763 0.0
C563 C 0.94128 0.13915 0.49783 0.0
C564 C 0.95552 0.15038 0.46915 0.0
C565 C 0.97346 0.14522 0.46065 0.0
C566 C 0.97731 0.12935 0.47952 0.0
C567 C -0.00098 0.12844 0.46699 0.0
C568 C 0.01805 0.13598 0.4952 0.0
C569 C 0.99185 0.10348 0.45297 0.0
C570 C 0.00726 0.14684 0.43878 0.0
C571 C 0.99207 0.15603 0.43508 0.0
C572 C 0.99679 0.17422 0.41185 0.0
C573 C 0.01786 0.18362 0.39243 0.0
C574 C 0.03404 0.17498 0.39672 0.0
C575 C 0.0283 0.156 0.41969 0.0
H576 H 0.81878 0.86002 0.47192 0.0
H577 H 0.86003 0.87347 0.37889 0.0
H578 H 0.88283 0.85624 0.40548 0.0
H579 H 0.8673 0.87536 0.52935 0.0
H580 H 0.84922 0.85253 0.55994 0.0
H581 H 0.83579 0.86529 0.53318 0.0
H582 H 0.80466 0.82289 0.51178 0.0
H583 H 0.81796 0.80999 0.53854 0.0
H584 H 0.8149 0.80396 0.49345 0.0
H585 H 0.90107 0.83746 0.44255 0.0
H586 H 0.91378 0.8193 0.48746 0.0
H587 H 0.86094 0.8192 0.55617 0.0
C588 C 0.8325 0.85923 0.45701 0.0
C589 C 0.83757 0.86798 0.42329 0.0
C590 C 0.85583 0.86682 0.40477 0.0
C591 C 0.86886 0.85707 0.41964 0.0
C592 C 0.86345 0.84868 0.45302 0.0
C593 C 0.84574 0.84973 0.47148 0.0
C594 C 0.84369 0.83997 0.50711 0.0
C595 C 0.84934 0.85945 0.53397 0.0
C596 C 0.81883 0.81789 0.51305 0.0
C597 C 0.86299 0.83321 0.50585 0.0
C598 C 0.87415 0.83828 0.47444 0.0
C599 C 0.89247 0.83343 0.46726 0.0
C600 C 0.89955 0.82311 0.49291 0.0
C601 C 0.88838 0.81787 0.52532 0.0
C602 C 0.8699 0.82307 0.53172 0.0
H603 H 0.11838 0.94113 0.44872 0.0
H604 H 0.16447 0.96327 0.35962 0.0
H605 H 0.19064 0.00267 0.38651 0.0
H606 H 0.12279 0.998 0.4662 0.0
H607 H 0.12286 0.99437 0.51172 0.0
H608 H 0.10759 0.96845 0.48473 0.0
H609 H 0.13253 0.95094 0.51083 0.0
H610 H 0.14791 0.97682 0.53783 0.0
H611 H 0.16478 0.96849 0.51 0.0
H612 H 0.212 0.0396 0.42421 0.0
H613 H 0.22685 0.07044 0.46948 0.0
H614 H 0.16654 0.02286 0.53325 0.0
C615 C 0.13386 0.95428 0.43464 0.0
C616 C 0.13935 0.94918 0.40201 0.0
C617 C 0.15992 0.96683 0.38465 0.0
C618 C 0.17486 0.98924 0.3997 0.0
C619 C 0.16895 0.99359 0.43206 0.0
C620 C 0.14893 0.97655 0.44926 0.0
C621 C 0.14672 0.98524 0.48404 0.0
C622 C 0.12362 0.9866 0.48681 0.0
C623 C 0.14808 0.96943 0.51234 0.0
C624 C 0.16868 0.00988 0.48386 0.0
C625 C 0.18128 0.01449 0.45369 0.0
C626 C 0.20226 0.03618 0.44793 0.0
C627 C 0.21055 0.05357 0.47376 0.0
C628 C 0.19789 0.04904 0.5049 0.0
C629 C 0.17669 0.02689 0.5098 0.0
H630 H 0.89681 0.03442 0.99789 0.0
H631 H 0.84392 0.05615 0.01514 0.0
H632 H 0.81708 0.02622 0.97327 0.0
H633 H 0.88339 0.01862 0.90531 0.0
H634 H 0.88755 0.99311 0.90979 0.0
H635 H 0.90446 0.01921 0.93605 0.0
H636 H 0.88879 0.99274 0.99019 0.0
H637 H 0.87186 0.96666 0.96419 0.0
H638 H 0.85695 0.97422 0.99659 0.0
H639 H 0.79395 0.99071 0.93619 0.0
H640 H 0.77567 0.95125 0.90808 0.0
H641 H 0.8433 0.95211 0.9155 0.0
C642 C 0.8799 0.03338 0.99203 0.0
C643 C 0.87249 0.04768 0.00948 0.0
C644 C 0.84994 0.04537 0.00192 0.0
C645 C 0.83465 0.02854 0.97804 0.0
C646 C 0.84218 0.01421 0.96193 0.0
C647 C 0.8643 0.01647 0.96852 0.0
C648 C 0.86688 0.99697 0.95102 0.0
C649 C 0.88675 0.00762 0.92393 0.0
C650 C 0.87137 0.98176 0.97705 0.0
C651 C 0.84241 0.98283 0.93476 0.0
C652 C 0.82861 0.99334 0.94077 0.0
C653 C 0.8047 0.98251 0.93076 0.0
C654 C 0.79446 0.96007 0.9149 0.0
C655 C 0.80807 0.94864 0.90951 0.0
C656 C 0.83252 0.96054 0.9188 0.0
H657 H 0.95725 0.82466 0.04911 0.0
H658 H 0.89332 0.79905 0.98706 0.0
H659 H 0.9186 0.81422 0.93542 0.0
H660 H 0.99326 0.87864 0.00332 0.0
H661 H 0.02038 0.87733 0.00829 0.0
H662 H 0.99709 0.86394 0.03987 0.0
H663 H 0.99566 0.82331 0.03203 0.0
H664 H 0.01895 0.83658 0.00039 0.0
H665 H 0.99086 0.81026 0.99014 0.0
H666 H 0.95155 0.83318 0.89052 0.0
H667 H 0.98902 0.85416 0.85684 0.0
H668 H 0.03039 0.8666 0.9495 0.0
C669 C 0.94848 0.82213 0.0247 0.0
C670 C 0.9233 0.81064 0.02212 0.0
C671 C 0.9126 0.80777 0.98964 0.0
C672 C 0.9268 0.81632 0.96018 0.0
C673 C 0.95162 0.82761 0.96371 0.0
C674 C 0.96231 0.83047 0.9952 0.0
C675 C 0.98928 0.84344 0.99242 0.0
C676 C 0.00066 0.86725 0.01214 0.0
C677 C -0.00074 0.82744 0.00445 0.0
C678 C 0.99218 0.84758 0.95445 0.0
C679 C 0.97033 0.83834 0.93817 0.0
C680 C 0.96875 0.84042 0.90302 0.0
C681 C 0.99011 0.85235 0.8841 0.0
C682 C 0.01263 0.86201 0.90049 0.0
C683 C 0.0135 0.85941 0.93609 0.0
H684 H 0.1517 0.20482 0.92428 0.0
H685 H 0.13271 0.15939 0.83485 0.0
H686 H 0.1562 0.14156 0.85708 0.0
H687 H 0.21288 0.21337 0.93656 0.0
H688 H 0.20964 0.21224 0.98224 0.0
H689 H 0.1948 0.22407 0.95648 0.0
H690 H 0.15408 0.19369 0.98375 0.0
H691 H 0.16874 0.18178 0.00944 0.0
H692 H 0.14424 0.16215 0.98213 0.0
H693 H 0.17702 0.12489 0.89307 0.0
H694 H 0.19275 0.11074 0.93953 0.0
H695 H 0.19796 0.16751 0.00469 0.0
C696 C 0.15292 0.19154 0.90889 0.0
C697 C 0.1404 0.18352 0.8778 0.0
C698 C 0.14226 0.1659 0.85867 0.0
C699 C 0.15562 0.15572 0.87105 0.0
C700 C 0.16719 0.16358 0.90235 0.0
C701 C 0.16611 0.18126 0.92082 0.0
C702 C 0.17803 0.18499 0.95517 0.0
C703 C 0.20016 0.21016 0.95775 0.0
C704 C 0.16021 0.18036 0.98432 0.0
C705 C 0.18513 0.16595 0.95383 0.0
C706 C 0.17913 0.15402 0.92299 0.0
C707 C 0.18221 0.1344 0.91707 0.0
C708 C 0.19114 0.12648 0.94361 0.0
C709 C 0.19664 0.13805 0.97572 0.0
C710 C 0.19417 0.15841 0.98037 0.0
H711 H 0.95422 0.79276 0.56093 0.0
H712 H 0.99357 0.82973 0.6519 0.0
H713 H 0.03166 0.84452 0.6204 0.0
H714 H -0.00104 0.7779 0.52549 0.0
H715 H 0.99297 0.78346 0.48262 0.0
H716 H 0.96946 0.77216 0.51411 0.0
H717 H 0.96259 0.80782 0.50202 0.0
H718 H 0.98611 0.81931 0.4708 0.0
H719 H 0.98737 0.83799 0.50579 0.0
H720 H 0.06487 0.85969 0.57665 0.0
H721 H 0.08996 0.87426 0.52487 0.0
H722 H 0.02809 0.82797 0.46295 0.0
C723 C 0.97082 0.8034 0.57464 0.0
C724 C 0.97092 0.81003 0.60893 0.0
C725 C 0.99307 0.8243 0.62568 0.0
C726 C 0.01479 0.83274 0.60801 0.0
C727 C 0.01396 0.82657 0.57377 0.0
C728 C 0.9925 0.81206 0.55739 0.0
C729 C 0.99604 0.81019 0.5197 0.0
C730 C 0.98894 0.78439 0.50992 0.0
C731 C 0.98222 0.81938 0.49835 0.0
C732 C 0.02278 0.82669 0.51706 0.0
C733 C 0.03293 0.83562 0.54855 0.0
C734 C 0.05717 0.85249 0.55197 0.0
C735 C 0.07127 0.86069 0.52241 0.0
C736 C 0.06096 0.85224 0.48989 0.0
C737 C 0.03653 0.83467 0.48744 0.0
H738 H 0.11215 0.14837 0.47771 0.0
H739 H 0.17054 0.21397 0.43561 0.0
H740 H 0.19913 0.2095 0.47233 0.0
H741 H 0.13603 0.15621 0.56507 0.0
H742 H 0.12564 0.12471 0.56993 0.0
H743 H 0.10947 0.13443 0.54303 0.0
H744 H 0.11338 0.11081 0.49241 0.0
H745 H 0.12949 0.10101 0.51912 0.0
H746 H 0.14268 0.1165 0.47983 0.0
H747 H 0.22172 0.19597 0.50964 0.0
H748 H 0.23663 0.17398 0.54384 0.0
H749 H 0.1634 0.11745 0.56178 0.0
C750 C 0.13089 0.16203 0.47659 0.0
C751 C 0.13909 0.18156 0.45385 0.0
C752 C 0.16382 0.19887 0.45288 0.0
C753 C 0.1802 0.19654 0.47374 0.0
C754 C 0.17154 0.17689 0.49554 0.0
C755 C 0.14746 0.15997 0.49718 0.0
C756 C 0.14297 0.13967 0.52099 0.0
C757 C 0.12762 0.13871 0.55157 0.0
C758 C 0.13146 0.11558 0.50194 0.0
C759 C 0.16837 0.14747 0.53175 0.0
C760 C 0.18457 0.16912 0.51712 0.0
C761 C 0.20919 0.17917 0.52162 0.0
C762 C 0.21749 0.16653 0.54105 0.0
C763 C 0.20119 0.14406 0.55562 0.0
C764 C 0.17632 0.13474 0.55141 0.0
H765 H 0.8847 0.03569 0.56545 0.0
H766 H 0.81349 0.02504 0.5827 0.0
H767 H 0.79673 0.99053 0.54335 0.0
H768 H 0.87898 0.02634 0.47955 0.0
H769 H 0.89596 0.01112 0.47673 0.0
H770 H 0.90186 0.03211 0.51059 0.0
H771 H 0.89436 -0.00042 0.55545 0.0
H772 H 0.88877 0.9785 0.52168 0.0
H773 H 0.86668 0.97134 0.55456 0.0
H774 H 0.78866 0.96085 0.4963 0.0
H775 H 0.78969 0.93728 0.44739 0.0
H776 H 0.86637 0.96805 0.46092 0.0
C777 C 0.86548 0.0257 0.56183 0.0
C778 C 0.8504 0.03303 0.57726 0.0
C779 C 0.82539 0.01967 0.57132 0.0
C780 C 0.8157 5e-05 0.54899 0.0
C781 C 0.83125 0.99395 0.53308 0.0
C782 C 0.85558 0.00622 0.53958 0.0
C783 C 0.86877 0.99757 0.51708 0.0
C784 C 0.88748 0.018 0.49467 0.0
C785 C 0.88032 0.98606 0.53848 0.0
C786 C 0.84819 0.97906 0.49606 0.0
C787 C 0.82664 0.97701 0.50588 0.0
C788 C 0.80537 0.96203 0.48876 0.0
C789 C 0.80615 0.94881 0.46091 0.0
C790 C 0.8281 0.9508 0.45037 0.0
C791 C 0.84928 0.96599 0.46847 0.0
H792 H 0.78863 0.27556 0.34217 0.0
H793 H 0.85259 0.29441 0.28318 0.0
H794 H 0.87609 0.32887 0.32111 0.0
H795 H 0.79865 0.3322 0.35011 0.0
H796 H 0.78711 0.32921 0.39275 0.0
H797 H 0.77642 0.30325 0.36604 0.0
H798 H 0.78852 0.28229 0.41182 0.0
H799 H 0.79919 0.30824 0.43886 0.0
H800 H 0.81884 0.29698 0.42757 0.0
H801 H 0.89109 0.36432 0.35902 0.0
H802 H 0.89629 0.3987 0.39308 0.0
H803 H 0.82246 0.35727 0.42705 0.0
C804 C 0.80775 0.28644 0.33799 0.0
C805 C 0.81886 0.28223 0.30997 0.0
C806 C 0.84376 0.29728 0.30464 0.0
C807 C 0.85728 0.31681 0.32616 0.0
C808 C 0.84563 0.32097 0.35292 0.0
C809 C 0.82143 0.30615 0.35902 0.0
C810 C 0.81256 0.31628 0.38651 0.0
C811 C 0.79252 0.32049 0.37303 0.0
C812 C 0.8043 0.29998 0.41807 0.0
C813 C 0.83528 0.33966 0.39374 0.0
C814 C 0.85427 0.34177 0.37465 0.0
C815 C 0.8765 0.36269 0.37462 0.0
C816 C 0.87925 0.38216 0.39395 0.0
C817 C 0.8598 0.38063 0.4128 0.0
C818 C 0.83778 0.35886 0.41337 0.0
H819 H 0.61741 0.45183 0.40764 0.0
H820 H 0.60645 0.51292 0.40176 0.0
H821 H 0.64384 0.53505 0.36864 0.0
H822 H 0.68447 0.48668 0.4114 0.0
H823 H 0.68682 0.46494 0.38534 0.0
H824 H 0.66153 0.45557 0.4134 0.0
H825 H 0.63272 0.43625 0.36228 0.0
H826 H 0.65783 0.44569 0.33409 0.0
H827 H 0.63572 0.45433 0.32553 0.0
H828 H 0.67848 0.54788 0.32875 0.0
H829 H 0.70874 0.55107 0.28722 0.0
H830 H 0.69745 0.48191 0.32014 0.0
C831 C 0.62319 0.47011 0.40025 0.0
C832 C 0.60901 0.48065 0.40733 0.0
C833 C 0.61706 0.5045 0.39676 0.0
C834 C 0.6383 0.51723 0.37798 0.0
C835 C 0.6514 0.50597 0.37038 0.0
C836 C 0.64431 0.48305 0.38157 0.0
C837 C 0.66027 0.47413 0.36741 0.0
C838 C 0.6741 0.4701 0.3961 0.0
C839 C 0.64577 0.45126 0.34606 0.0
C840 C 0.67685 0.49523 0.34536 0.0
C841 C 0.67163 0.51353 0.34768 0.0
C842 C 0.6831 0.53392 0.32728 0.0
C843 C 0.70016 0.53551 0.30367 0.0
C844 C 0.70556 0.51683 0.3007 0.0
C845 C 0.69405 0.49669 0.32231 0.0
H846 H 0.55032 0.1936 0.40906 0.0
H847 H 0.49841 0.11785 0.40038 0.0
H848 H 0.47263 0.12739 0.36512 0.0
H849 H 0.50619 0.21594 0.40722 0.0
H850 H 0.52613 0.24151 0.38173 0.0
H851 H 0.53816 0.22918 0.4119 0.0
H852 H 0.56285 0.22435 0.36364 0.0
H853 H 0.55079 0.23643 0.33335 0.0
H854 H 0.54764 0.20738 0.32618 0.0
H855 H 0.45593 0.14418 0.32395 0.0
H856 H 0.44901 0.16726 0.27983 0.0
H857 H 0.51171 0.23232 0.31459 0.0
C858 C 0.53312 0.17911 0.40076 0.0
C859 C 0.52622 0.15501 0.40761 0.0
C860 C 0.50395 0.13644 0.39547 0.0
C861 C 0.48915 0.14169 0.37558 0.0
C862 C 0.49685 0.16559 0.36819 0.0
C863 C 0.51823 0.18405 0.38059 0.0
C864 C 0.5237 0.2079 0.36552 0.0
C865 C 0.52352 0.22462 0.39325 0.0
C866 C 0.54765 0.21969 0.34602 0.0
C867 C 0.50263 0.19979 0.3416 0.0
C868 C 0.48716 0.17538 0.34399 0.0
C869 C 0.4676 0.16338 0.32232 0.0
C870 C 0.46391 0.17662 0.29722 0.0
C871 C 0.47976 0.20158 0.29395 0.0
C872 C 0.49906 0.21334 0.31691 0.0
H873 H 0.61158 0.42119 0.85619 0.0
H874 H 0.59781 0.48037 0.84708 0.0
H875 H 0.62753 0.4975 0.80079 0.0
H876 H 0.67353 0.45521 0.84575 0.0
H877 H 0.67637 0.43297 0.82167 0.0
H878 H 0.65205 0.42386 0.85129 0.0
H879 H 0.62161 0.40092 0.80309 0.0
H880 H 0.6459 0.41005 0.77323 0.0
H881 H 0.62228 0.41656 0.76465 0.0
H882 H 0.66109 0.51019 0.75964 0.0
H883 H 0.69717 0.51816 0.72735 0.0
H884 H 0.68912 0.4507 0.76269 0.0
C885 C 0.61451 0.43753 0.84407 0.0
C886 C 0.60233 0.4494 0.85518 0.0
C887 C 0.60693 0.47094 0.83899 0.0
C888 C 0.62368 0.48076 0.81254 0.0
C889 C 0.63559 0.46877 0.80247 0.0
C890 C 0.63123 0.44762 0.81767 0.0
C891 C 0.64778 0.43931 0.80382 0.0
C892 C 0.66335 0.43776 0.83233 0.0
C893 C 0.63354 0.41528 0.78508 0.0
C894 C 0.6626 0.45948 0.77922 0.0
C895 C 0.65506 0.47611 0.77852 0.0
C896 C 0.66697 0.49713 0.75956 0.0
C897 C 0.68746 0.50152 0.74137 0.0
C898 C 0.69585 0.48499 0.74237 0.0
C899 C 0.6829 0.46347 0.76095 0.0
H900 H 0.48482 0.20547 0.77583 0.0
H901 H 0.51967 0.20712 0.68039 0.0
H902 H 0.53665 0.18413 0.70729 0.0
H903 H 0.53228 0.21363 0.83012 0.0
H904 H 0.51271 0.19399 0.86289 0.0
H905 H 0.50275 0.2097 0.83557 0.0
H906 H 0.4656 0.1694 0.81837 0.0
H907 H 0.47546 0.15354 0.84563 0.0
H908 H 0.46972 0.14579 0.80118 0.0
H909 H 0.55052 0.16163 0.74564 0.0
H910 H 0.56056 0.14225 0.79215 0.0
H911 H 0.51637 0.15593 0.86166 0.0
C912 C 0.49592 0.20093 0.7604 0.0
C913 C 0.50089 0.20806 0.72596 0.0
C914 C 0.5156 0.20182 0.70683 0.0
C915 C 0.52529 0.18875 0.72187 0.0
C916 C 0.52005 0.18208 0.75597 0.0
C917 C 0.5057 0.18799 0.77494 0.0
C918 C 0.50316 0.17929 0.81127 0.0
C919 C 0.51334 0.20041 0.83643 0.0
C920 C 0.47693 0.16091 0.81958 0.0
C921 C 0.51848 0.16766 0.80996 0.0
C922 C 0.52801 0.16933 0.77787 0.0
C923 C 0.54308 0.16016 0.77084 0.0
C924 C 0.54866 0.14917 0.7974 0.0
C925 C 0.53923 0.14754 0.83054 0.0
C926 C 0.52383 0.1568 0.83663 0.0
H927 H 0.80082 0.36826 0.85451 0.0
H928 H 0.87364 0.38124 0.84812 0.0
H929 H 0.8613 0.35097 0.80272 0.0
H930 H 0.77221 0.30596 0.84491 0.0
H931 H 0.74769 0.30346 0.81972 0.0
H932 H 0.76269 0.32778 0.84938 0.0
H933 H 0.77142 0.35827 0.80072 0.0
H934 H 0.75647 0.334 0.77084 0.0
H935 H 0.78689 0.3573 0.76303 0.0
H936 H 0.84063 0.31714 0.76184 0.0
H937 H 0.81274 0.2815 0.72859 0.0
H938 H 0.75347 0.29082 0.76075 0.0
C939 C 0.81425 0.36499 0.84325 0.0
C940 C 0.8382 0.37715 0.85483 0.0
C941 C 0.85518 0.37216 0.83966 0.0
C942 C 0.84838 0.35507 0.81374 0.0
C943 C 0.82459 0.34323 0.80315 0.0
C944 C 0.80778 0.34798 0.81733 0.0
C945 C 0.78309 0.33169 0.80275 0.0
C946 C 0.76539 0.31631 0.83087 0.0
C947 C 0.77394 0.34619 0.78317 0.0
C948 C 0.78856 0.31663 0.77884 0.0
C949 C 0.81265 0.32374 0.77923 0.0
C950 C 0.82178 0.31159 0.76093 0.0
C951 C 0.8058 0.29136 0.74219 0.0
C952 C 0.78099 0.28351 0.74192 0.0
C953 C 0.7724 0.29664 0.75998 0.0
H954 H 0.56203 0.37674 0.33427 0.0
H955 H 0.49495 0.37466 0.35591 0.0
H956 H 0.47585 0.3467 0.30807 0.0
H957 H 0.55522 0.3716 0.24034 0.0
H958 H 0.56831 0.35264 0.23753 0.0
H959 H 0.57758 0.37481 0.27076 0.0
H960 H 0.56685 0.34184 0.31635 0.0
H961 H 0.55771 0.31969 0.28331 0.0
H962 H 0.53712 0.31604 0.31695 0.0
H963 H 0.46294 0.31598 0.26228 0.0
H964 H 0.45677 0.28339 0.22327 0.0
H965 H 0.53225 0.30566 0.23079 0.0
C966 C 0.54343 0.37074 0.32859 0.0
C967 C 0.53 0.37794 0.34878 0.0
C968 C 0.50562 0.36941 0.34079 0.0
C969 C 0.49463 0.35363 0.31353 0.0
C970 C 0.50831 0.34668 0.29437 0.0
C971 C 0.53218 0.35496 0.3015 0.0
C972 C 0.5423 0.34315 0.27885 0.0
C973 C 0.56202 0.36166 0.25548 0.0
C974 C 0.55152 0.32936 0.30014 0.0
C975 C 0.52015 0.32633 0.25871 0.0
C976 C 0.50084 0.32892 0.26769 0.0
C977 C 0.478 0.31403 0.2546 0.0
C978 C 0.47467 0.29557 0.23248 0.0
C979 C 0.49406 0.29212 0.22381 0.0
C980 C 0.51719 0.30816 0.23636 0.0
H981 H 0.70763 0.23848 0.26011 0.0
H982 H 0.72533 0.18208 0.24918 0.0
H983 H 0.68881 0.15443 0.28093 0.0
H984 H 0.68709 0.22525 0.34396 0.0
H985 H 0.66311 0.23172 0.33886 0.0
H986 H 0.68926 0.24646 0.31221 0.0
H987 H 0.66257 0.23114 0.25832 0.0
H988 H 0.63627 0.21644 0.28484 0.0
H989 H 0.64195 0.19952 0.25341 0.0
H990 H 0.65262 0.13407 0.31822 0.0
H991 H 0.61843 0.122 0.35722 0.0
H992 H 0.62393 0.19141 0.34345 0.0
C993 C 0.7036 0.22019 0.2638 0.0
C994 C 0.71933 0.21245 0.25209 0.0
C995 C 0.71355 0.18843 0.25786 0.0
C996 C 0.69281 0.17256 0.27583 0.0
C997 C 0.67796 0.18091 0.28767 0.0
C998 C 0.68296 0.20409 0.2817 0.0
C999 C 0.66473 0.20891 0.2988 0.0
C1000 C 0.67677 0.22928 0.32501 0.0
C1001 C 0.65054 0.21432 0.27225 0.0
C1002 C 0.64907 0.18501 0.316 0.0
C1003 C 0.65693 0.16906 0.30907 0.0
C1004 C 0.64609 0.14627 0.3235 0.0
C1005 C 0.62674 0.13962 0.34571 0.0
C1006 C 0.61844 0.15571 0.35327 0.0
C1007 C 0.62967 0.1786 0.33789 0.0
H1008 H 0.80365 0.43005 0.35016 0.0
H1009 H 0.87496 0.49235 0.34367 0.0
H1010 H 0.86144 0.50849 0.29721 0.0
H1011 H 0.78962 0.42575 0.25794 0.0
H1012 H 0.75878 0.41713 0.26571 0.0
H1013 H 0.77469 0.40903 0.29573 0.0
H1014 H 0.76445 0.42975 0.34415 0.0
H1015 H 0.74851 0.43785 0.31436 0.0
H1016 H 0.77245 0.46069 0.33943 0.0
H1017 H 0.83947 0.51992 0.2562 0.0
H1018 H 0.81025 0.52615 0.22378 0.0
H1019 H 0.75325 0.45626 0.25594 0.0
C1020 C 0.81654 0.44688 0.33856 0.0
C1021 C 0.84038 0.45991 0.3505 0.0
C1022 C 0.85661 0.48202 0.33494 0.0
C1023 C 0.84914 0.49129 0.30841 0.0
C1024 C 0.82544 0.47817 0.29757 0.0
C1025 C 0.80938 0.4564 0.31204 0.0
C1026 C 0.78447 0.4468 0.29745 0.0
C1027 C 0.77643 0.42328 0.27805 0.0
C1028 C 0.76642 0.4436 0.32552 0.0
C1029 C 0.78889 0.46694 0.27334 0.0
C1030 C 0.81271 0.48472 0.27352 0.0
C1031 C 0.82085 0.50597 0.25538 0.0
C1032 C 0.80412 0.50936 0.23712 0.0
C1033 C 0.77956 0.4916 0.23715 0.0
C1034 C 0.77199 0.46991 0.25487 0.0
H1035 H 0.62685 0.16387 0.90847 0.0
H1036 H 0.60479 0.08959 0.88739 0.0
H1037 H 0.64276 0.10249 0.8569 0.0
H1038 H 0.64958 0.18552 0.83066 0.0
H1039 H 0.67456 0.2136 0.84443 0.0
H1040 H 0.64826 0.19861 0.87059 0.0
H1041 H 0.67401 0.19869 0.92133 0.0
H1042 H 0.70054 0.2139 0.8953 0.0
H1043 H 0.69326 0.1861 0.91598 0.0
H1044 H 0.67884 0.12337 0.81974 0.0
H1045 H 0.71113 0.15075 0.7808 0.0
H1046 H 0.71039 0.21138 0.8273 0.0
C1047 C 0.63033 0.15027 0.89845 0.0
C1048 C 0.61286 0.12573 0.90033 0.0
C1049 C 0.61794 0.1085 0.88637 0.0
C1050 C 0.63951 0.11565 0.86908 0.0
C1051 C 0.65594 0.14005 0.86643 0.0
C1052 C 0.65177 0.1571 0.88118 0.0
C1053 C 0.671 0.18219 0.87151 0.0
C1054 C 0.66019 0.19575 0.8532 0.0
C1055 C 0.68557 0.19603 0.9029 0.0
C1056 C 0.6859 0.17656 0.84755 0.0
C1057 C 0.67715 0.15217 0.84534 0.0
C1058 C 0.68628 0.14253 0.82193 0.0
C1059 C 0.70453 0.15819 0.79982 0.0
C1060 C 0.71341 0.18317 0.80133 0.0
C1061 C 0.70437 0.19242 0.82614 0.0
H1062 H 0.80885 0.45049 0.92334 0.0
H1063 H 0.88367 0.49571 0.89612 0.0
H1064 H 0.87306 0.5205 0.86046 0.0
H1065 H 0.7864 0.44759 0.84424 0.0
H1066 H 0.75985 0.4482 0.85697 0.0
H1067 H 0.77354 0.43694 0.88581 0.0
H1068 H 0.77723 0.4675 0.93166 0.0
H1069 H 0.76329 0.47875 0.903 0.0
H1070 H 0.79213 0.49895 0.9213 0.0
H1071 H 0.854 0.53581 0.82058 0.0
H1072 H 0.82778 0.54153 0.78056 0.0
H1073 H 0.76523 0.48682 0.83377 0.0
C1074 C 0.8231 0.46612 0.91087 0.0
C1075 C 0.84709 0.47125 0.91262 0.0
C1076 C 0.86517 0.49149 0.8952 0.0
C1077 C 0.85933 0.50574 0.87499 0.0
C1078 C 0.83538 0.49963 0.87268 0.0
C1079 C 0.81755 0.48047 0.89045 0.0
C1080 C 0.79296 0.4761 0.88058 0.0
C1081 C 0.77728 0.45071 0.86603 0.0
C1082 C 0.78068 0.4806 0.91094 0.0
C1083 C 0.79971 0.49506 0.85337 0.0
C1084 C 0.82428 0.50866 0.84958 0.0
C1085 C 0.83476 0.52568 0.82382 0.0
C1086 C 0.81973 0.5287 0.8011 0.0
C1087 C 0.79451 0.51475 0.80428 0.0
C1088 C 0.78445 0.49809 0.83119 0.0
H1089 H 0.50327 0.37933 0.87571 0.0
H1090 H 0.50065 0.34402 0.97111 0.0
H1091 H 0.47907 0.30472 0.94225 0.0
H1092 H 0.44472 0.33212 0.84118 0.0
H1093 H 0.45659 0.33667 0.79854 0.0
H1094 H 0.46807 0.36139 0.82802 0.0
H1095 H 0.51109 0.36894 0.81826 0.0
H1096 H 0.49979 0.34424 0.78902 0.0
H1097 H 0.51722 0.34489 0.82532 0.0
H1098 H 0.46255 0.26987 0.90112 0.0
H1099 H 0.45285 0.24284 0.85167 0.0
H1100 H 0.46701 0.30166 0.78381 0.0
C1101 C 0.49764 0.36334 0.89085 0.0
C1102 C 0.50359 0.36475 0.9257 0.0
C1103 C 0.49617 0.34337 0.9444 0.0
C1104 C 0.48386 0.32096 0.92824 0.0
C1105 C 0.47898 0.32031 0.89351 0.0
C1106 C 0.4855 0.34097 0.87515 0.0
C1107 C 0.48039 0.33584 0.8376 0.0
C1108 C 0.4613 0.34186 0.82564 0.0
C1109 C 0.50349 0.34926 0.81633 0.0
C1110 C 0.47079 0.30914 0.83741 0.0
C1111 C 0.46971 0.30038 0.8699 0.0
C1112 C 0.46294 0.27647 0.87564 0.0
C1113 C 0.4575 0.26126 0.84739 0.0
C1114 C 0.45913 0.27013 0.81388 0.0
C1115 C 0.4654 0.29427 0.80908 0.0
H1116 H 0.42093 0.61357 0.66283 0.0
H1117 H 0.48432 0.61155 0.63057 0.0
H1118 H 0.50902 0.64509 0.66938 0.0
H1119 H 0.44668 0.67479 0.66425 0.0
H1120 H 0.43086 0.67622 0.70122 0.0
H1121 H 0.41771 0.64983 0.67505 0.0
H1122 H 0.41361 0.62374 0.72767 0.0
H1123 H 0.42671 0.65011 0.75413 0.0
H1124 H 0.43967 0.63099 0.75307 0.0
H1125 H 0.52736 0.68211 0.70513 0.0
H1126 H 0.53791 0.71936 0.73626 0.0
H1127 H 0.46246 0.6967 0.74614 0.0
C1128 C 0.43992 0.61979 0.66448 0.0
C1129 C 0.4507 0.60993 0.64372 0.0
C1130 C 0.47566 0.61877 0.64635 0.0
C1131 C 0.48982 0.63777 0.66838 0.0
C1132 C 0.4787 0.6475 0.68785 0.0
C1133 C 0.45428 0.63866 0.68637 0.0
C1134 C 0.44699 0.65351 0.70772 0.0
C1135 C 0.43486 0.66422 0.68574 0.0
C1136 C 0.43079 0.6387 0.73741 0.0
C1137 C 0.47126 0.67267 0.72034 0.0
C1138 C 0.48929 0.66874 0.70893 0.0
C1139 C 0.51338 0.68513 0.71481 0.0
C1140 C 0.51919 0.70627 0.73238 0.0
C1141 C 0.50098 0.71079 0.74382 0.0
C1142 C 0.47673 0.6935 0.73831 0.0
H1143 H 0.37466 0.82606 0.6754 0.0
H1144 H 0.3593 0.87878 0.6317 0.0
H1145 H 0.33365 0.8742 0.68115 0.0
H1146 H 0.31772 0.78712 0.70264 0.0
H1147 H 0.32621 0.77827 0.74137 0.0
H1148 H 0.34638 0.78868 0.70571 0.0
H1149 H 0.37949 0.82127 0.74377 0.0
H1150 H 0.35932 0.81095 0.77964 0.0
H1151 H 0.37349 0.84191 0.76674 0.0
H1152 H 0.30539 0.8597 0.73062 0.0
H1153 H 0.27614 0.83583 0.77527 0.0
H1154 H 0.31049 0.79307 0.78715 0.0
C1155 C 0.36637 0.83707 0.67656 0.0
C1156 C 0.36901 0.85281 0.64972 0.0
C1157 C 0.35758 0.86666 0.65202 0.0
C1158 C 0.34308 0.86427 0.6801 0.0
C1159 C 0.34043 0.84818 0.70579 0.0
C1160 C 0.35189 0.83493 0.70435 0.0
C1161 C 0.34425 0.81714 0.73338 0.0
C1162 C 0.33296 0.79129 0.71996 0.0
C1163 C 0.3654 0.82319 0.7573 0.0
C1164 C 0.32584 0.82165 0.75049 0.0
C1165 C 0.32421 0.83992 0.73458 0.0
C1166 C 0.30684 0.84572 0.74375 0.0
C1167 C 0.29028 0.83204 0.76911 0.0
C1168 C 0.29115 0.81271 0.78486 0.0
C1169 C 0.30967 0.80804 0.77612 0.0
H1170 H 0.18969 0.57584 0.66982 0.0
H1171 H 0.11563 0.52134 0.6523 0.0
H1172 H 0.11825 0.4971 0.69907 0.0
H1173 H 0.21094 0.53661 0.68288 0.0
H1174 H 0.23236 0.55426 0.71526 0.0
H1175 H 0.22361 0.56866 0.68377 0.0
H1176 H 0.21093 0.58777 0.73161 0.0
H1177 H 0.21963 0.57336 0.76332 0.0
H1178 H 0.18969 0.56884 0.76342 0.0
H1179 H 0.13014 0.47718 0.74401 0.0
H1180 H 0.15082 0.46249 0.78152 0.0
H1181 H 0.21711 0.53002 0.76888 0.0
C1182 C 0.17385 0.55905 0.67626 0.0
C1183 C 0.15242 0.55054 0.65755 0.0
C1184 C 0.13223 0.52825 0.66637 0.0
C1185 C 0.13351 0.51441 0.693 0.0
C1186 C 0.15506 0.52316 0.71058 0.0
C1187 C 0.17486 0.54498 0.70257 0.0
C1188 C 0.19651 0.5494 0.72319 0.0
C1189 C 0.21705 0.55239 0.69988 0.0
C1190 C 0.20466 0.57113 0.74679 0.0
C1191 C 0.18601 0.52633 0.74332 0.0
C1192 C 0.16199 0.51157 0.73615 0.0
C1193 C 0.14887 0.48871 0.75017 0.0
C1194 C 0.16077 0.48052 0.77146 0.0
C1195 C 0.18557 0.49511 0.77819 0.0
C1196 C 0.1981 0.51849 0.7645 0.0
H1197 H 0.36599 0.79585 0.09076 0.0
H1198 H 0.38745 0.87111 0.0991 0.0
H1199 H 0.35031 0.86026 0.13061 0.0
H1200 H 0.30057 0.77256 0.08299 0.0
H1201 H 0.29322 0.74653 0.10854 0.0
H1202 H 0.31999 0.75993 0.08284 0.0
H1203 H 0.3454 0.76427 0.13633 0.0
H1204 H 0.31879 0.751 0.16217 0.0
H1205 H 0.34351 0.78009 0.17297 0.0
H1206 H 0.31337 0.84191 0.16585 0.0
H1207 H 0.27885 0.81717 0.20301 0.0
H1208 H 0.28114 0.75366 0.17221 0.0
C1209 C 0.36261 0.81001 0.09854 0.0
C1210 C 0.37955 0.83432 0.09237 0.0
C1211 C 0.37471 0.85236 0.10355 0.0
C1212 C 0.35362 0.84638 0.12133 0.0
C1213 C 0.33753 0.82228 0.12763 0.0
C1214 C 0.34169 0.80435 0.11651 0.0
C1215 C 0.32243 0.78002 0.12905 0.0
C1216 C 0.30821 0.7638 0.09906 0.0
C1217 C 0.33318 0.76816 0.15146 0.0
C1218 C 0.3072 0.78719 0.14977 0.0
C1219 C 0.3161 0.81162 0.14824 0.0
C1220 C 0.30601 0.82272 0.1669 0.0
C1221 C 0.28647 0.80851 0.18803 0.0
C1222 C 0.27727 0.78348 0.19042 0.0
C1223 C 0.28758 0.77269 0.17057 0.0
H1224 H 0.18754 0.54251 0.08457 0.0
H1225 H 0.12383 0.47337 0.06827 0.0
H1226 H 0.13968 0.45476 0.10766 0.0
H1227 H 0.23075 0.52014 0.09637 0.0
H1228 H 0.24668 0.54202 0.12908 0.0
H1229 H 0.23245 0.54889 0.09485 0.0
H1230 H 0.20884 0.55892 0.13895 0.0
H1231 H 0.22273 0.55186 0.17324 0.0
H1232 H 0.19053 0.53675 0.1702 0.0
H1233 H 0.15941 0.445 0.15514 0.0
H1234 H 0.18192 0.44466 0.20582 0.0
H1235 H 0.23252 0.52031 0.19113 0.0
C1236 C 0.17724 0.52331 0.08837 0.0
C1237 C 0.15448 0.50936 0.07323 0.0
C1238 C 0.14137 0.48439 0.07946 0.0
C1239 C 0.15025 0.47365 0.10175 0.0
C1240 C 0.17233 0.48812 0.11734 0.0
C1241 C 0.18577 0.51238 0.11063 0.0
C1242 C 0.20765 0.52445 0.13329 0.0
C1243 C 0.23075 0.53446 0.11213 0.0
C1244 C 0.2074 0.54414 0.15521 0.0
C1245 C 0.20393 0.50338 0.15475 0.0
C1246 C 0.18366 0.48251 0.14487 0.0
C1247 C 0.17557 0.46113 0.16269 0.0
C1248 C 0.18841 0.46114 0.19153 0.0
C1249 C 0.20903 0.48244 0.20235 0.0
C1250 C 0.21703 0.50367 0.18327 0.0
H1251 H 0.4873 0.73129 0.20271 0.0
H1252 H 0.54909 0.7253 0.23175 0.0
H1253 H 0.54003 0.69602 0.18561 0.0
H1254 H 0.44925 0.6711 0.18824 0.0
H1255 H 0.43391 0.67481 0.15242 0.0
H1256 H 0.44728 0.69792 0.18412 0.0
H1257 H 0.4721 0.7289 0.13736 0.0
H1258 H 0.45875 0.70582 0.10541 0.0
H1259 H 0.49088 0.72322 0.10937 0.0
H1260 H 0.52168 0.6641 0.14144 0.0
H1261 H 0.49492 0.63123 0.10307 0.0
H1262 H 0.4451 0.65802 0.10259 0.0
C1263 C 0.49926 0.72424 0.1989 0.0
C1264 C 0.51895 0.73063 0.22074 0.0
C1265 C 0.53392 0.72069 0.21527 0.0
C1266 C 0.52899 0.70414 0.18902 0.0
C1267 C 0.50914 0.69785 0.16838 0.0
C1268 C 0.49455 0.70765 0.17292 0.0
C1269 C 0.47309 0.69624 0.1494 0.0
C1270 C 0.4495 0.68431 0.16977 0.0
C1271 C 0.47375 0.71465 0.12387 0.0
C1272 C 0.4774 0.67785 0.13183 0.0
C1273 C 0.49849 0.67933 0.14276 0.0
C1274 C 0.50534 0.66301 0.13222 0.0
C1275 C 0.48999 0.64437 0.11051 0.0
C1276 C 0.468 0.64215 0.09971 0.0
C1277 C 0.46199 0.65949 0.1099 0.0
H1278 H 0.12988 0.62683 0.66336 0.0
H1279 H 0.17326 0.65386 0.57201 0.0
H1280 H 0.19361 0.69465 0.59649 0.0
H1281 H 0.12425 0.67991 0.6815 0.0
H1282 H 0.12667 0.67715 0.72682 0.0
H1283 H 0.11358 0.65079 0.70034 0.0
H1284 H 0.14415 0.63932 0.72363 0.0
H1285 H 0.15732 0.66559 0.75009 0.0
H1286 H 0.17575 0.66059 0.7205 0.0
H1287 H 0.21141 0.73177 0.63298 0.0
H1288 H 0.22628 0.76175 0.67922 0.0
H1289 H 0.17152 0.70984 0.74671 0.0
C1290 C 0.14329 0.64139 0.64816 0.0
C1291 C 0.14987 0.63723 0.61569 0.0
C1292 C 0.16788 0.65669 0.59692 0.0
C1293 C 0.17946 0.67992 0.61055 0.0
C1294 C 0.1728 0.68333 0.64292 0.0
C1295 C 0.15512 0.66458 0.66146 0.0
C1296 C 0.15265 0.6725 0.69674 0.0
C1297 C 0.12781 0.66994 0.70162 0.0
C1298 C 0.15778 0.65868 0.72435 0.0
C1299 C 0.17207 0.69852 0.69547 0.0
C1300 C 0.18328 0.70455 0.66409 0.0
C1301 C 0.20259 0.72733 0.65753 0.0
C1302 C 0.2109 0.74424 0.68396 0.0
C1303 C 0.20004 0.73816 0.71657 0.0
C1304 C 0.18011 0.71512 0.72203 0.0
H1305 H 0.29698 0.49144 0.73367 0.0
H1306 H 0.23389 0.47323 0.67287 0.0
H1307 H 0.25792 0.48146 0.62041 0.0
H1308 H 0.33704 0.54014 0.68502 0.0
H1309 H 0.36179 0.53478 0.68969 0.0
H1310 H 0.33907 0.52474 0.7221 0.0
H1311 H 0.33134 0.4814 0.71595 0.0
H1312 H 0.35415 0.49135 0.68353 0.0
H1313 H 0.32428 0.46728 0.67467 0.0
H1314 H 0.28985 0.49554 0.5748 0.0
H1315 H 0.32692 0.51399 0.54019 0.0
H1316 H 0.36856 0.52255 0.63139 0.0
C1317 C 0.28807 0.48871 0.70934 0.0
C1318 C 0.26354 0.48162 0.7074 0.0
C1319 C 0.25266 0.47857 0.67501 0.0
C1320 C 0.26615 0.48316 0.64505 0.0
C1321 C 0.29043 0.49062 0.64791 0.0
C1322 C 0.30123 0.49322 0.67926 0.0
C1323 C 0.32788 0.50295 0.67561 0.0
C1324 C 0.34228 0.52708 0.6942 0.0
C1325 C 0.33481 0.48464 0.68818 0.0
C1326 C 0.3305 0.50605 0.6374 0.0
C1327 C 0.30871 0.49865 0.62175 0.0
C1328 C 0.30697 0.50109 0.58672 0.0
C1329 C 0.32812 0.51162 0.56728 0.0
C1330 C 0.35064 0.51964 0.58302 0.0
C1331 C 0.35164 0.51642 0.61846 0.0
H1332 H 0.47435 0.7789 0.66731 0.0
H1333 H 0.54471 0.83932 0.68963 0.0
H1334 H 0.5363 0.86498 0.65227 0.0
H1335 H 0.4708 0.79532 0.57758 0.0
H1336 H 0.43935 0.78555 0.5812 0.0
H1337 H 0.45207 0.77111 0.60598 0.0
H1338 H 0.43601 0.78011 0.66125 0.0
H1339 H 0.42333 0.79461 0.63671 0.0
H1340 H 0.44396 0.81056 0.67076 0.0
H1341 H 0.51889 0.88502 0.61781 0.0
H1342 H 0.4934 0.89814 0.58894 0.0
H1343 H 0.43433 0.82479 0.58904 0.0
C1344 C 0.4882 0.79738 0.66369 0.0
C1345 C 0.51022 0.8071 0.68124 0.0
C1346 C 0.52771 0.83149 0.6764 0.0
C1347 C 0.52315 0.84619 0.65511 0.0
C1348 C 0.50107 0.83621 0.63876 0.0
C1349 C 0.48389 0.81235 0.64267 0.0
C1350 C 0.46088 0.80659 0.6246 0.0
C1351 C 0.45546 0.78858 0.59561 0.0
C1352 C 0.43982 0.79744 0.64984 0.0
C1353 C 0.46758 0.83109 0.61081 0.0
C1354 C 0.49094 0.84786 0.61889 0.0
C1355 C 0.50068 0.87202 0.61087 0.0
C1356 C 0.48604 0.8793 0.59457 0.0
C1357 C 0.46193 0.86249 0.58663 0.0
C1358 C 0.45279 0.83802 0.59435 0.0
H1359 H 0.30341 0.51501 0.27003 0.0
H1360 H 0.29367 0.44367 0.25911 0.0
H1361 H 0.33114 0.4604 0.22596 0.0
H1362 H 0.32131 0.53316 0.18877 0.0
H1363 H 0.34315 0.5638 0.19846 0.0
H1364 H 0.31831 0.54716 0.22674 0.0
H1365 H 0.34754 0.5558 0.27706 0.0
H1366 H 0.37257 0.57272 0.24893 0.0
H1367 H 0.37081 0.54819 0.27331 0.0
H1368 H 0.36527 0.48351 0.18615 0.0
H1369 H 0.39465 0.51169 0.14464 0.0
H1370 H 0.38272 0.56813 0.18232 0.0
C1371 C 0.30953 0.50298 0.26162 0.0
C1372 C 0.29563 0.47803 0.26722 0.0
C1373 C 0.30406 0.46286 0.25524 0.0
C1374 C 0.32536 0.4722 0.23645 0.0
C1375 C 0.33815 0.49677 0.23024 0.0
C1376 C 0.33073 0.51201 0.24286 0.0
C1377 C 0.34629 0.53729 0.22972 0.0
C1378 C 0.33137 0.54583 0.20974 0.0
C1379 C 0.36013 0.55452 0.25901 0.0
C1380 C 0.36295 0.53367 0.20653 0.0
C1381 C 0.35816 0.51024 0.2075 0.0
C1382 C 0.36959 0.50204 0.18576 0.0
C1383 C 0.38614 0.51812 0.16216 0.0
C1384 C 0.39108 0.54211 0.16053 0.0
C1385 C 0.37968 0.55003 0.18351 0.0
H1386 H 0.50032 0.79617 0.27007 0.0
H1387 H 0.57131 0.85912 0.26951 0.0
H1388 H 0.55733 0.87874 0.22879 0.0
H1389 H 0.49093 0.79546 0.18388 0.0
H1390 H 0.45936 0.78534 0.18636 0.0
H1391 H 0.47358 0.77785 0.21974 0.0
H1392 H 0.45879 0.79704 0.26458 0.0
H1393 H 0.44422 0.80434 0.23135 0.0
H1394 H 0.46552 0.82754 0.25899 0.0
H1395 H 0.53695 0.88945 0.18307 0.0
H1396 H 0.51154 0.89078 0.137 0.0
H1397 H 0.45434 0.82028 0.16678 0.0
C1398 C 0.51277 0.81438 0.26226 0.0
C1399 C 0.53687 0.8262 0.27317 0.0
C1400 C 0.55272 0.84979 0.26165 0.0
C1401 C 0.54494 0.86107 0.23853 0.0
C1402 C 0.52128 0.84853 0.22727 0.0
C1403 C 0.50537 0.82576 0.23897 0.0
C1404 C 0.48161 0.8152 0.22057 0.0
C1405 C 0.47606 0.79211 0.20151 0.0
C1406 C 0.46134 0.81078 0.24535 0.0
C1407 C 0.48681 0.83534 0.19607 0.0
C1408 C 0.50967 0.85452 0.20056 0.0
C1409 C 0.5189 0.87468 0.17965 0.0
C1410 C 0.50436 0.87523 0.15347 0.0
C1411 C 0.48093 0.85567 0.14832 0.0
C1412 C 0.47209 0.8356 0.17016 0.0
H1413 H 0.21212 0.673 0.25935 0.0
H1414 H 0.16274 0.69877 0.23917 0.0
H1415 H 0.13939 0.66433 0.20114 0.0
H1416 H 0.21618 0.65861 0.17764 0.0
H1417 H 0.21812 0.63219 0.18647 0.0
H1418 H 0.22782 0.65546 0.21787 0.0
H1419 H 0.19877 0.62488 0.26213 0.0
H1420 H 0.18909 0.60137 0.23086 0.0
H1421 H 0.16741 0.60677 0.25198 0.0
H1422 H 0.12536 0.63137 0.15893 0.0
H1423 H 0.12187 0.60248 0.11503 0.0
H1424 H 0.1809 0.59851 0.16152 0.0
C1425 C 0.19586 0.67086 0.24796 0.0
C1426 C 0.18904 0.68835 0.25243 0.0
C1427 C 0.16815 0.68545 0.23619 0.0
C1428 C 0.15472 0.6659 0.21469 0.0
C1429 C 0.16243 0.64942 0.20975 0.0
C1430 C 0.18244 0.6516 0.22607 0.0
C1431 C 0.18875 0.63335 0.21298 0.0
C1432 C 0.21421 0.64565 0.19784 0.0
C1433 C 0.18582 0.61553 0.24117 0.0
C1434 C 0.16987 0.62135 0.18567 0.0
C1435 C 0.15455 0.63053 0.18472 0.0
C1436 C 0.13693 0.62369 0.15982 0.0
C1437 C 0.13516 0.60735 0.1349 0.0
C1438 C 0.15109 0.59821 0.13488 0.0
C1439 C 0.16828 0.60495 0.16109 0.0
H1440 H 0.11802 0.1335 0.30996 0.0
H1441 H 0.12322 0.19738 0.26454 0.0
H1442 H 0.13676 0.18841 0.21063 0.0
H1443 H 0.17004 0.13893 0.27251 0.0
H1444 H 0.15794 0.10729 0.26579 0.0
H1445 H 0.14675 0.11753 0.30001 0.0
H1446 H 0.10358 0.09218 0.27659 0.0
H1447 H 0.11463 0.08178 0.24231 0.0
H1448 H 0.09738 0.0961 0.23301 0.0
H1449 H 0.15256 0.1744 0.16336 0.0
H1450 H 0.16882 0.15572 0.12509 0.0
H1451 H 0.15297 0.10055 0.2007 0.0
C1452 C 0.12167 0.14543 0.28855 0.0
C1453 C 0.11952 0.16613 0.29148 0.0
C1454 C 0.12469 0.18139 0.26291 0.0
C1455 C 0.13236 0.17644 0.23215 0.0
C1456 C 0.13465 0.1561 0.2303 0.0
C1457 C 0.12933 0.14074 0.25763 0.0
C1458 C 0.13429 0.12067 0.24933 0.0
C1459 C 0.15339 0.12115 0.27334 0.0
C1460 C 0.11108 0.09623 0.25037 0.0
C1461 C 0.14369 0.12744 0.2133 0.0
C1462 C 0.14363 0.14787 0.2028 0.0
C1463 C 0.15247 0.15825 0.17113 0.0
C1464 C 0.16175 0.14754 0.14963 0.0
C1465 C 0.1621 0.12663 0.15985 0.0
C1466 C 0.15271 0.11636 0.19201 0.0
H1467 H 0.83899 0.96476 0.28838 0.0
H1468 H 0.88071 0.93066 0.26451 0.0
H1469 H 0.90169 0.9605 0.21909 0.0
H1470 H 0.83125 0.97829 0.20288 0.0
H1471 H 0.83379 0.00667 0.2135 0.0
H1472 H 0.82257 0.98295 0.24457 0.0
H1473 H 0.85533 0.01114 0.28713 0.0
H1474 H 0.86671 0.03493 0.25612 0.0
H1475 H 0.88638 0.02566 0.2746 0.0
H1476 H 0.91749 0.99368 0.17535 0.0
H1477 H 0.92633 0.0271 0.13614 0.0
H1478 H 0.8744 0.03943 0.18933 0.0
C1479 C 0.85256 0.96355 0.27367 0.0
C1480 C 0.8582 0.94535 0.28002 0.0
C1481 C 0.87608 0.94444 0.26014 0.0
C1482 C 0.88813 0.96133 0.23432 0.0
C1483 C 0.88215 0.97905 0.22879 0.0
C1484 C 0.86478 0.98026 0.24791 0.0
C1485 C 0.8614 0.00081 0.23656 0.0
C1486 C 0.83573 0.99162 0.2236 0.0
C1487 C 0.86785 0.01922 0.26531 0.0
C1488 C 0.87942 0.01087 0.20782 0.0
C1489 C 0.89129 0.99815 0.2038 0.0
C1490 C 0.90839 0.00383 0.17836 0.0
C1491 C 0.9133 0.02286 0.15623 0.0
C1492 C 0.90112 0.03594 0.15968 0.0
C1493 C 0.88415 0.02991 0.1861 0.0
H1494 H 0.94768 0.81767 0.21652 0.0
H1495 H 0.96886 0.88372 0.16149 0.0
H1496 H 0.00093 0.90601 0.20355 0.0
H1497 H 0.96049 0.84333 0.30267 0.0
H1498 H 0.97182 0.82427 0.31683 0.0
H1499 H 0.94906 0.81397 0.28435 0.0
H1500 H 0.97611 0.80587 0.24412 0.0
H1501 H -0.00103 0.81624 0.27637 0.0
H1502 H 0.00598 0.82979 0.23468 0.0
H1503 H 0.03209 0.92069 0.24967 0.0
H1504 H 0.06061 0.92655 0.2957 0.0
H1505 H 0.01968 0.85065 0.31945 0.0
C1506 C 0.95877 0.83689 0.21367 0.0
C1507 C 0.9557 0.849 0.18588 0.0
C1508 C 0.97088 0.87409 0.18265 0.0
C1509 C 0.9891 0.88691 0.20645 0.0
C1510 C 0.99192 0.87436 0.23324 0.0
C1511 C 0.97718 0.84991 0.23698 0.0
C1512 C 0.98497 0.84044 0.26669 0.0
C1513 C 0.96542 0.82989 0.29427 0.0
C1514 C 0.99192 0.822 0.25473 0.0
C1515 C 0.00663 0.86332 0.27872 0.0
C1516 C 0.01018 0.88273 0.25935 0.0
C1517 C 0.02941 0.90566 0.26515 0.0
C1518 C 0.04552 0.9088 0.29134 0.0
C1519 C 0.0424 0.88907 0.31116 0.0
C1520 C 0.02257 0.86611 0.3048 0.0
H1521 H 0.84086 0.81214 0.68911 0.0
H1522 H 0.91033 0.82469 0.72289 0.0
H1523 H 0.90656 0.84389 0.77525 0.0
H1524 H 0.84722 0.86748 0.71967 0.0
H1525 H 0.81623 0.85416 0.73208 0.0
H1526 H 0.82458 0.84154 0.69743 0.0
H1527 H 0.804 0.80025 0.72772 0.0
H1528 H 0.79554 0.81273 0.76242 0.0
H1529 H 0.81254 0.798 0.77069 0.0
H1530 H 0.89468 0.8614 0.82439 0.0
H1531 H 0.87567 0.87555 0.866 0.0
H1532 H 0.81437 0.85149 0.79882 0.0
C1533 C 0.85532 0.8189 0.70746 0.0
C1534 C 0.87588 0.8169 0.70193 0.0
C1535 C 0.8944 0.82603 0.72661 0.0
C1536 C 0.89243 0.83697 0.7564 0.0
C1537 C 0.87188 0.83866 0.761 0.0
C1538 C 0.85368 0.82987 0.73715 0.0
C1539 C 0.8334 0.83378 0.74803 0.0
C1540 C 0.83018 0.85022 0.7228 0.0
C1541 C 0.80999 0.80976 0.75248 0.0
C1542 C 0.84294 0.84605 0.78185 0.0
C1543 C 0.86515 0.84876 0.78895 0.0
C1544 C 0.87731 0.85942 0.81904 0.0
C1545 C 0.86638 0.8674 0.8425 0.0
C1546 C 0.84355 0.86466 0.83567 0.0
C1547 C 0.83185 0.85393 0.80483 0.0
H1548 H 0.18379 0.04442 0.69619 0.0
H1549 H 0.11675 0.02347 0.6441 0.0
H1550 H 0.09501 0.99236 0.68768 0.0
H1551 H 0.17092 0.98611 0.71774 0.0
H1552 H 0.18538 0.99428 0.75874 0.0
H1553 H 0.19545 0.01603 0.7249 0.0
H1554 H 0.18898 0.04498 0.76335 0.0
H1555 H 0.17906 0.02338 0.79743 0.0
H1556 H 0.16013 0.03475 0.78283 0.0
H1557 H 0.08088 0.96209 0.7355 0.0
H1558 H 0.07544 0.93575 0.78456 0.0
H1559 H 0.15188 0.97656 0.80456 0.0
C1560 C 0.1645 0.03355 0.69417 0.0
C1561 C 0.15197 0.03644 0.66677 0.0
C1562 C 0.12674 0.02163 0.66491 0.0
C1563 C 0.11422 0.0039 0.68953 0.0
C1564 C 0.1272 0.00124 0.71586 0.0
C1565 C 0.15176 0.01574 0.71842 0.0
C1566 C 0.1616 0.0087 0.74847 0.0
C1567 C 0.17939 0.00081 0.73674 0.0
C1568 C 0.17311 0.02917 0.77456 0.0
C1569 C 0.13878 0.98779 0.7622 0.0
C1570 C 0.1191 0.98379 0.74317 0.0
C1571 C 0.09615 0.96513 0.75071 0.0
C1572 C 0.09324 0.95024 0.77856 0.0
C1573 C 0.11322 0.95408 0.79841 0.0
C1574 C 0.13622 0.97314 0.78996 0.0
H1575 H 0.93041 0.11181 0.74135 0.0
H1576 H 0.97284 0.13367 0.64856 0.0
H1577 H 0.00981 0.1524 0.68269 0.0
H1578 H 0.96663 0.16423 0.78823 0.0
H1579 H 0.96333 0.14922 0.8283 0.0
H1580 H 0.94006 0.13591 0.79673 0.0
H1581 H 0.94285 0.09718 0.79799 0.0
H1582 H 0.96611 0.11037 0.82969 0.0
H1583 H 0.97133 0.09905 0.79061 0.0
H1584 H 0.04207 0.1713 0.72639 0.0
H1585 H 0.06761 0.1882 0.77722 0.0
H1586 H 0.00449 0.15356 0.84176 0.0
C1587 C 0.94747 0.12026 0.72821 0.0
C1588 C 0.94868 0.12126 0.69226 0.0
C1589 C 0.97139 0.13264 0.67607 0.0
C1590 C 0.99254 0.14332 0.69522 0.0
C1591 C 0.99072 0.14234 0.73056 0.0
C1592 C 0.96881 0.13096 0.74696 0.0
C1593 C 0.97191 0.1332 0.78527 0.0
C1594 C 0.95977 0.14643 0.80051 0.0
C1595 C 0.96249 0.10848 0.80186 0.0
C1596 C -0.00106 0.1481 0.78773 0.0
C1597 C 0.00944 0.15305 0.75588 0.0
C1598 C 0.03411 0.16734 0.75152 0.0
C1599 C 0.04845 0.17692 0.78054 0.0
C1600 C 0.03807 0.17215 0.81346 0.0
C1601 C 0.013 0.15736 0.81698 0.0
H1602 H 0.78661 0.50581 0.61006 0.0
H1603 H 0.77838 0.44861 0.67714 0.0
H1604 H 0.79383 0.43341 0.63179 0.0
H1605 H 0.77148 0.47134 0.52973 0.0
H1606 H 0.79362 0.49674 0.50596 0.0
H1607 H 0.77916 0.50125 0.54219 0.0
H1608 H 0.82067 0.52927 0.56922 0.0
H1609 H 0.83523 0.52474 0.53327 0.0
H1610 H 0.84125 0.51837 0.57567 0.0
H1611 H 0.81364 0.42673 0.58109 0.0
H1612 H 0.83615 0.42904 0.52895 0.0
H1613 H 0.83173 0.49095 0.49564 0.0
C1614 C 0.78754 0.48977 0.61502 0.0
C1615 C 0.78119 0.47834 0.64711 0.0
C1616 C 0.78308 0.45763 0.65271 0.0
C1617 C 0.79178 0.44883 0.62709 0.0
C1618 C 0.79843 0.46089 0.59602 0.0
C1619 C 0.79629 0.48084 0.58984 0.0
C1620 C 0.80627 0.49158 0.55526 0.0
C1621 C 0.78644 0.49013 0.53191 0.0
C1622 C 0.82709 0.51752 0.55858 0.0
C1623 C 0.81496 0.47494 0.54331 0.0
C1624 C 0.81004 0.45719 0.56697 0.0
C1625 C 0.81735 0.44038 0.5622 0.0
C1626 C 0.83018 0.44188 0.53254 0.0
C1627 C 0.83569 0.46016 0.5082 0.0
C1628 C 0.8277 0.47668 0.51363 0.0
H1629 H 0.48656 0.29307 0.62207 0.0
H1630 H 0.54798 0.3251 0.68983 0.0
H1631 H 0.56896 0.35904 0.64997 0.0
H1632 H 0.52003 0.31104 0.54251 0.0
H1633 H 0.49845 0.31672 0.52167 0.0
H1634 H 0.48892 0.2944 0.55472 0.0
H1635 H 0.47021 0.3158 0.58787 0.0
H1636 H 0.47979 0.33825 0.55506 0.0
H1637 H 0.48861 0.34703 0.59862 0.0
H1638 H 0.58253 0.39036 0.60367 0.0
H1639 H 0.58782 0.41627 0.55421 0.0
H1640 H 0.51728 0.36366 0.51735 0.0
C1641 C 0.50453 0.30707 0.6284 0.0
C1642 C 0.51565 0.30639 0.65906 0.0
C1643 C 0.53911 0.3252 0.66647 0.0
C1644 C 0.55118 0.34456 0.64399 0.0
C1645 C 0.53955 0.34481 0.61422 0.0
C1646 C 0.51678 0.32651 0.60634 0.0
C1647 C 0.50794 0.3314 0.57326 0.0
C1648 C 0.50359 0.31225 0.54646 0.0
C1649 C 0.4853 0.33324 0.57907 0.0
C1650 C 0.52919 0.35543 0.5639 0.0
C1651 C 0.54728 0.36284 0.58774 0.0
C1652 C 0.56852 0.38468 0.58475 0.0
C1653 C 0.57134 0.39929 0.55659 0.0
C1654 C 0.55298 0.39202 0.53188 0.0
C1655 C 0.53168 0.36975 0.53573 0.0
H1656 H 0.64829 0.1822 0.49661 0.0
H1657 H 0.57736 0.14311 0.54153 0.0
H1658 H 0.59503 0.15654 0.59872 0.0
H1659 H 0.67686 0.1667 0.55768 0.0
H1660 H 0.70443 0.19503 0.5575 0.0
H1661 H 0.68594 0.18522 0.52004 0.0
H1662 H 0.68414 0.2245 0.5199 0.0
H1663 H 0.70267 0.23446 0.55746 0.0
H1664 H 0.67396 0.23289 0.55742 0.0
H1665 H 0.62078 0.17125 0.6512 0.0
H1666 H 0.65252 0.1843 0.69473 0.0
H1667 H 0.7065 0.21299 0.61512 0.0
C1668 C 0.6364 0.17687 0.51838 0.0
C1669 C 0.61144 0.16173 0.51462 0.0
C1670 C 0.59654 0.15476 0.54383 0.0
C1671 C 0.6064 0.1624 0.57639 0.0
C1672 C 0.63115 0.17701 0.57924 0.0
C1673 C 0.64594 0.18417 0.55099 0.0
C1674 C 0.67208 0.19804 0.56106 0.0
C1675 C 0.68561 0.18549 0.54832 0.0
C1676 C 0.6839 0.22401 0.5482 0.0
C1677 C 0.66973 0.1969 0.59943 0.0
C1678 C 0.646 0.1851 0.60945 0.0
C1679 C 0.63943 0.18077 0.64366 0.0
C1680 C 0.65759 0.18825 0.6682 0.0
C1681 C 0.68199 0.19966 0.65833 0.0
C1682 C 0.68803 0.20444 0.62352 0.0
H1683 H 0.52232 0.15791 0.00456 0.0
H1684 H 0.59437 0.18255 0.04179 0.0
H1685 H 0.58709 0.20304 0.08956 0.0
H1686 H 0.52017 0.21157 0.02594 0.0
H1687 H 0.48906 0.19516 0.03818 0.0
H1688 H 0.50025 0.18314 0.00631 0.0
H1689 H 0.48466 0.14412 0.04153 0.0
H1690 H 0.47337 0.15597 0.07342 0.0
H1691 H 0.49388 0.14589 0.08528 0.0
H1692 H 0.57125 0.21919 0.13465 0.0
H1693 H 0.54808 0.22983 0.17381 0.0
H1694 H 0.4867 0.19531 0.10627 0.0
C1695 C 0.53664 0.16769 0.02265 0.0
C1696 C 0.55893 0.16861 0.01945 0.0
C1697 C 0.57716 0.1816 0.0437 0.0
C1698 C 0.57321 0.19333 0.07088 0.0
C1699 C 0.551 0.19201 0.07328 0.0
C1700 C 0.53305 0.17957 0.04977 0.0
C1701 C 0.51061 0.18041 0.05854 0.0
C1702 C 0.50468 0.19335 0.03057 0.0
C1703 C 0.48938 0.1551 0.06509 0.0
C1704 C 0.51862 0.19501 0.09096 0.0
C1705 C 0.542 0.20158 0.09898 0.0
C1706 C 0.55301 0.21432 0.12849 0.0
C1707 C 0.53968 0.22025 0.15059 0.0
C1708 C 0.51563 0.2135 0.14301 0.0
C1709 C 0.50514 0.20098 0.11255 0.0
H1710 H 0.84354 0.34425 0.00029 0.0
H1711 H 0.8452 0.40862 0.03678 0.0
H1712 H 0.82705 0.38823 0.09111 0.0
H1713 H 0.78682 0.30145 0.04014 0.0
H1714 H 0.79688 0.2806 0.05001 0.0
H1715 H 0.80866 0.29982 0.0133 0.0
H1716 H 0.85187 0.31591 0.0357 0.0
H1717 H 0.84024 0.29673 0.0724 0.0
H1718 H 0.85956 0.32854 0.07788 0.0
H1719 H 0.81097 0.36155 0.14268 0.0
H1720 H 0.79845 0.33077 0.18764 0.0
H1721 H 0.80691 0.28381 0.11685 0.0
C1722 C 0.83991 0.35404 0.01955 0.0
C1723 C 0.84579 0.37804 0.01427 0.0
C1724 C 0.84083 0.39021 0.04023 0.0
C1725 C 0.83047 0.37876 0.07114 0.0
C1726 C 0.82506 0.35513 0.07558 0.0
C1727 C 0.82955 0.34289 0.05045 0.0
C1728 C 0.82293 0.31792 0.06203 0.0
C1729 C 0.80261 0.29882 0.04006 0.0
C1730 C 0.84496 0.3146 0.06201 0.0
C1731 C 0.81443 0.31817 0.09787 0.0
C1732 C 0.81565 0.33973 0.10515 0.0
C1733 C 0.80973 0.34452 0.13717 0.0
C1734 C 0.80266 0.32693 0.16255 0.0
C1735 C 0.80161 0.30484 0.15574 0.0
C1736 C 0.80727 0.30038 0.12278 0.0
H1737 H 0.63875 0.48816 -0.00041 0.0
H1738 H 0.57575 0.42408 0.03634 0.0
H1739 H 0.59777 0.4251 0.08841 0.0
H1740 H 0.68288 0.47374 0.03244 0.0
H1741 H 0.7039 0.50438 0.04341 0.0
H1742 H 0.68354 0.49787 0.00832 0.0
H1743 H 0.66794 0.524 0.03591 0.0
H1744 H 0.68827 0.53064 0.07098 0.0
H1745 H 0.65664 0.51773 0.07893 0.0
H1746 H 0.62609 0.4344 0.13779 0.0
H1747 H 0.65832 0.45147 0.18084 0.0
H1748 H 0.70278 0.50911 0.1111 0.0
C1749 C 0.62959 0.47422 0.01843 0.0
C1750 C 0.60552 0.45603 0.01388 0.0
C1751 C 0.5942 0.43818 0.03926 0.0
C1752 C 0.60657 0.43858 0.06888 0.0
C1753 C 0.63027 0.45684 0.07262 0.0
C1754 C 0.64167 0.4743 0.04804 0.0
C1755 C 0.66694 0.49244 0.05867 0.0
C1756 C 0.6854 0.49207 0.03426 0.0
C1757 C 0.67012 0.51769 0.06129 0.0
C1758 C 0.66785 0.4827 0.09336 0.0
C1759 C 0.64659 0.46209 0.10088 0.0
C1760 C 0.64289 0.45042 0.13206 0.0
C1761 C 0.6613 0.46026 0.15635 0.0
C1762 C 0.68311 0.48157 0.14931 0.0
C1763 C 0.68644 0.49267 0.11717 0.0
H1764 H 0.50676 0.84534 0.98831 0.0
H1765 H 0.43176 0.82334 0.97365 0.0
H1766 H 0.43105 0.80179 0.92139 0.0
H1767 H 0.52359 0.8569 0.90267 0.0
H1768 H 0.54427 0.84578 0.90402 0.0
H1769 H 0.53834 0.85755 0.942 0.0
H1770 H 0.52604 0.81775 0.97365 0.0
H1771 H 0.53199 0.80586 0.93572 0.0
H1772 H 0.50302 0.7899 0.95588 0.0
H1773 H 0.43937 0.78582 0.86822 0.0
H1774 H 0.45601 0.77586 0.81832 0.0
H1775 H 0.52537 0.80758 0.86807 0.0
C1776 C 0.49008 0.83569 0.97443 0.0
C1777 C 0.46931 0.83602 0.98511 0.0
C1778 C 0.4479 0.82332 0.96602 0.0
C1779 C 0.44729 0.81097 0.93632 0.0
C1780 C 0.46818 0.81134 0.92621 0.0
C1781 C 0.48914 0.82322 0.94478 0.0
C1782 C 0.5094 0.82186 0.92743 0.0
C1783 C 0.53011 0.84702 0.9185 0.0
C1784 C 0.51812 0.80801 0.94949 0.0
C1785 C 0.49672 0.80789 0.89576 0.0
C1786 C 0.47291 0.80186 0.89566 0.0
C1787 C 0.4579 0.79015 0.8682 0.0
C1788 C 0.46754 0.78463 0.83994 0.0
C1789 C 0.49194 0.79082 0.83939 0.0
C1790 C 0.50657 0.80231 0.86793 0.0
H1791 H 0.20743 0.71346 0.89856 0.0
H1792 H 0.24285 0.69694 0.81779 0.0
H1793 H 0.2355 0.66053 0.84882 0.0
H1794 H 0.22736 0.69043 0.97008 0.0
H1795 H 0.19903 0.67864 0.99175 0.0
H1796 H 0.2097 0.70481 0.96515 0.0
H1797 H 0.17026 0.68371 0.9304 0.0
H1798 H 0.15956 0.65746 0.95666 0.0
H1799 H 0.16116 0.65505 0.91112 0.0
H1800 H 0.22135 0.62418 0.88654 0.0
H1801 H 0.20135 0.59087 0.92777 0.0
H1802 H 0.17458 0.63111 0.98272 0.0
C1803 C 0.21415 0.7025 0.88775 0.0
C1804 C 0.22585 0.70811 0.85586 0.0
C1805 C 0.23392 0.69303 0.84227 0.0
C1806 C 0.22987 0.67234 0.85972 0.0
C1807 C 0.21775 0.66701 0.89073 0.0
C1808 C 0.2101 0.68172 0.90468 0.0
C1809 C 0.19596 0.67113 0.93704 0.0
C1810 C 0.20879 0.68721 0.96783 0.0
C1811 C 0.17021 0.66657 0.93357 0.0
C1812 C 0.19638 0.64792 0.93873 0.0
C1813 C 0.20927 0.64595 0.91206 0.0
C1814 C 0.2114 0.62563 0.90772 0.0
C1815 C 0.19995 0.60679 0.93122 0.0
C1816 C 0.18638 0.60836 0.95844 0.0
C1817 C 0.18483 0.62933 0.96223 0.0
H1818 H 0.38044 0.55671 0.97621 0.0
H1819 H 0.34881 0.57934 0.05504 0.0
H1820 H 0.31509 0.57077 0.01672 0.0
H1821 H 0.36135 0.57899 0.90265 0.0
H1822 H 0.35548 0.55355 0.87676 0.0
H1823 H 0.37849 0.56417 0.9089 0.0
H1824 H 0.35815 0.52183 0.93599 0.0
H1825 H 0.33507 0.51112 0.90408 0.0
H1826 H 0.32713 0.50781 0.94857 0.0
H1827 H 0.28311 0.55634 0.97186 0.0
H1828 H 0.25515 0.53682 0.92402 0.0
H1829 H 0.30759 0.52335 0.87479 0.0
C1830 C 0.3667 0.56036 0.98519 0.0
C1831 C 0.36731 0.56881 0.01857 0.0
C1832 C 0.34874 0.57293 0.02953 0.0
C1833 C 0.32955 0.56819 0.00792 0.0
C1834 C 0.32924 0.5594 0.97541 0.0
C1835 C 0.34737 0.55561 0.96402 0.0
C1836 C 0.3419 0.5444 0.92893 0.0
C1837 C 0.36041 0.56129 0.90276 0.0
C1838 C 0.34047 0.51984 0.92945 0.0
C1839 C 0.31759 0.54189 0.92273 0.0
C1840 C 0.31071 0.5509 0.94964 0.0
C1841 C 0.28842 0.54948 0.95045 0.0
C1842 C 0.27264 0.53832 0.92318 0.0
C1843 C 0.27918 0.5286 0.89561 0.0
C1844 C 0.30211 0.53077 0.89531 0.0
H1845 H 0.18953 0.53407 0.52965 0.0
H1846 H 0.16441 0.57141 0.46448 0.0
H1847 H 0.1802 0.56084 0.41422 0.0
H1848 H 0.24444 0.54976 0.48096 0.0
H1849 H 0.24171 0.52089 0.48829 0.0
H1850 H 0.23053 0.53341 0.51944 0.0
H1851 H 0.18869 0.49517 0.5163 0.0
H1852 H 0.19969 0.48259 0.48511 0.0
H1853 H 0.1739 0.4855 0.47565 0.0
H1854 H 0.1957 0.5435 0.37082 0.0
H1855 H 0.20988 0.52071 0.33723 0.0
H1856 H 0.22492 0.49465 0.43073 0.0
C1857 C 0.18767 0.54037 0.5049 0.0
C1858 C 0.17576 0.55361 0.50102 0.0
C1859 C 0.17351 0.5613 0.46811 0.0
C1860 C 0.18247 0.55543 0.4394 0.0
C1861 C 0.19375 0.542 0.44408 0.0
C1862 C 0.19651 0.53468 0.47601 0.0
C1863 C 0.20814 0.51931 0.47389 0.0
C1864 C 0.23266 0.53158 0.4917 0.0
C1865 C 0.19161 0.49416 0.4886 0.0
C1866 C 0.21084 0.51854 0.4357 0.0
C1867 C 0.20268 0.53196 0.419 0.0
C1868 C 0.20238 0.53314 0.38361 0.0
C1869 C 0.21043 0.52008 0.36477 0.0
C1870 C 0.21856 0.50592 0.38134 0.0
C1871 C 0.21901 0.50544 0.4173 0.0
H1872 H 0.48804 0.64146 0.49626 0.0
H1873 H 0.41157 0.60228 0.47624 0.0
H1874 H 0.4168 0.63285 0.43364 0.0
H1875 H 0.49599 0.70087 0.48846 0.0
H1876 H 0.52487 0.71298 0.46828 0.0
H1877 H 0.51489 0.68836 0.49771 0.0
H1878 H 0.52129 0.66331 0.45163 0.0
H1879 H 0.53137 0.68787 0.42213 0.0
H1880 H 0.50683 0.6588 0.41082 0.0
H1881 H 0.43088 0.66729 0.39181 0.0
H1882 H 0.4526 0.7022 0.3537 0.0
H1883 H 0.51963 0.71864 0.40224 0.0
C1884 C 0.47233 0.63927 0.48304 0.0
C1885 C 0.44938 0.61946 0.48958 0.0
C1886 C 0.42933 0.61732 0.47166 0.0
C1887 C 0.43212 0.63462 0.44748 0.0
C1888 C 0.45504 0.65394 0.44169 0.0
C1889 C 0.47478 0.65633 0.459 0.0
C1890 C 0.49755 0.67843 0.4477 0.0
C1891 C 0.50899 0.69621 0.4773 0.0
C1892 C 0.5153 0.67169 0.43214 0.0
C1893 C 0.48763 0.68801 0.42097 0.0
C1894 C 0.46307 0.67373 0.41793 0.0
C1895 C 0.45009 0.67867 0.39413 0.0
C1896 C 0.46259 0.69855 0.37261 0.0
C1897 C 0.48781 0.71323 0.37503 0.0
C1898 C 0.50034 0.70794 0.39988 0.0
H1899 H 0.33907 0.82742 0.48114 0.0
H1900 H 0.38032 0.79181 0.46474 0.0
H1901 H 0.35306 0.76834 0.41802 0.0
H1902 H 0.27993 0.7753 0.46192 0.0
H1903 H 0.26963 0.79338 0.44098 0.0
H1904 H 0.29114 0.80587 0.47508 0.0
H1905 H 0.3201 0.84054 0.43549 0.0
H1906 H 0.29873 0.82817 0.40133 0.0
H1907 H 0.32878 0.83364 0.3953 0.0
H1908 H 0.32383 0.75163 0.36987 0.0
H1909 H 0.29413 0.74228 0.32419 0.0
H1910 H 0.27124 0.78795 0.37278 0.0
C1911 C 0.34219 0.81444 0.46807 0.0
C1912 C 0.36184 0.81145 0.47662 0.0
C1913 C 0.36537 0.79439 0.45871 0.0
C1914 C 0.34995 0.78093 0.43217 0.0
C1915 C 0.33098 0.78458 0.42408 0.0
C1916 C 0.32693 0.80079 0.44163 0.0
C1917 C 0.30598 0.80218 0.42678 0.0
C1918 C 0.28545 0.79367 0.45274 0.0
C1919 C 0.31388 0.82764 0.41396 0.0
C1920 C 0.29927 0.78468 0.39755 0.0
C1921 C 0.31382 0.77462 0.39658 0.0
C1922 C 0.31209 0.75911 0.37063 0.0
C1923 C 0.29522 0.75397 0.34477 0.0
C1924 C 0.28028 0.76426 0.34511 0.0
C1925 C 0.28212 0.7795 0.37218 0.0
H1926 H 0.28314 0.15715 0.0888 0.0
H1927 H 0.25571 0.11741 0.18311 0.0
H1928 H 0.29698 0.13017 0.20143 0.0
H1929 H 0.33223 0.14551 0.07712 0.0
H1930 H 0.3525 0.17513 0.06117 0.0
H1931 H 0.32072 0.16201 0.05462 0.0
H1932 H 0.32183 0.19867 0.08352 0.0
H1933 H 0.3536 0.21192 0.09009 0.0
H1934 H 0.33413 0.20726 0.12577 0.0
H1935 H 0.34081 0.14734 0.20981 0.0
H1936 H 0.38487 0.16969 0.20945 0.0
H1937 H 0.38427 0.19947 0.11038 0.0
C1938 C 0.28582 0.151 0.1132 0.0
C1939 C 0.26623 0.13621 0.1345 0.0
C1940 C 0.27046 0.12877 0.16641 0.0
C1941 C 0.29381 0.13584 0.17698 0.0
C1942 C 0.31271 0.15044 0.15542 0.0
C1943 C 0.30904 0.15808 0.1243 0.0
C1944 C 0.33258 0.17454 0.10668 0.0
C1945 C 0.33462 0.16364 0.0729 0.0
C1946 C 0.33571 0.19958 0.10121 0.0
C1947 C 0.35007 0.17507 0.13289 0.0
C1948 C 0.33817 0.16084 0.16062 0.0
C1949 C 0.35036 0.15853 0.18825 0.0
C1950 C 0.37541 0.17131 0.18774 0.0
C1951 C 0.38807 0.18639 0.15989 0.0
C1952 C 0.37514 0.1881 0.13201 0.0
H1953 H 0.8388 0.21525 0.18515 0.0
H1954 H 0.76639 0.15897 0.16168 0.0
H1955 H 0.78184 0.13228 0.14526 0.0
H1956 H 0.86749 0.20289 0.11569 0.0
H1957 H 0.89381 0.20947 0.13996 0.0
H1958 H 0.87706 0.22414 0.15019 0.0
H1959 H 0.87232 0.20898 0.21242 0.0
H1960 H 0.88899 0.1942 0.20236 0.0
H1961 H 0.85941 0.17736 0.22047 0.0
H1962 H 0.80481 0.11163 0.13215 0.0
H1963 H 0.83406 0.09855 0.12091 0.0
H1964 H 0.89184 0.16842 0.15195 0.0
C1965 C 0.82618 0.19731 0.17657 0.0
C1966 C 0.80137 0.18916 0.17476 0.0
C1967 C 0.78547 0.16561 0.16324 0.0
C1968 C 0.79406 0.1503 0.15393 0.0
C1969 C 0.81858 0.15886 0.15615 0.0
C1970 C 0.83445 0.18183 0.167 0.0
C1971 C 0.86 0.18666 0.16658 0.0
C1972 C 0.8755 0.20699 0.14161 0.0
C1973 C 0.87081 0.19211 0.2026 0.0
C1974 C 0.85597 0.16276 0.15386 0.0
C1975 C 0.83193 0.14699 0.14815 0.0
C1976 C 0.82369 0.12381 0.13646 0.0
C1977 C 0.84048 0.11656 0.1302 0.0
C1978 C 0.86528 0.13247 0.13551 0.0
C1979 C 0.87304 0.15585 0.14763 0.0
H1980 H 0.77725 0.60893 0.18959 0.0
H1981 H 0.82584 0.59102 0.138 0.0
H1982 H 0.85308 0.63388 0.12561 0.0
H1983 H 0.78533 0.65624 0.13248 0.0
H1984 H 0.78371 0.67448 0.16599 0.0
H1985 H 0.76797 0.64236 0.17027 0.0
H1986 H 0.78979 0.64635 0.22742 0.0
H1987 H 0.80569 0.67847 0.22323 0.0
H1988 H 0.82208 0.66279 0.22863 0.0
H1989 H 0.87531 0.67873 0.11986 0.0
H1990 H 0.89045 0.72225 0.11964 0.0
H1991 H 0.82713 0.71058 0.17499 0.0
C1992 C 0.79356 0.61396 0.17555 0.0
C1993 C 0.79943 0.59662 0.16476 0.0
C1994 C 0.82096 0.60399 0.14649 0.0
C1995 C 0.83656 0.62829 0.13937 0.0
C1996 C 0.83031 0.64492 0.15066 0.0
C1997 C 0.80929 0.63807 0.16823 0.0
C1998 C 0.80679 0.65947 0.17765 0.0
C1999 C 0.78464 0.65805 0.16057 0.0
C2000 C 0.80605 0.66191 0.21654 0.0
C2001 C 0.82974 0.67947 0.1627 0.0
C2002 C 0.84308 0.67071 0.14728 0.0
C2003 C 0.86501 0.6858 0.1318 0.0
C2004 C 0.87346 0.71049 0.13186 0.0
C2005 C 0.85997 0.71984 0.1473 0.0
C2006 C 0.83788 0.70403 0.16299 0.0
H2007 H 0.20903 0.393 0.3213 0.0
H2008 H 0.15071 0.39865 0.367 0.0
H2009 H 0.13012 0.35552 0.38104 0.0
H2010 H 0.1728 0.33655 0.28261 0.0
H2011 H 0.19359 0.32601 0.28986 0.0
H2012 H 0.20447 0.3576 0.28539 0.0
H2013 H 0.22575 0.36548 0.34387 0.0
H2014 H 0.21505 0.33392 0.34845 0.0
H2015 H 0.20869 0.34967 0.381 0.0
H2016 H 0.11509 0.31151 0.38762 0.0
H2017 H 0.1069 0.26981 0.38719 0.0
H2018 H 0.17504 0.29306 0.33679 0.0
C2019 C 0.19208 0.38527 0.33467 0.0
C2020 C 0.1815 0.3992 0.34317 0.0
C2021 C 0.15916 0.38832 0.36028 0.0
C2022 C 0.14734 0.36386 0.36837 0.0
C2023 C 0.15811 0.35058 0.35915 0.0
C2024 C 0.18001 0.36091 0.34277 0.0
C2025 C 0.18731 0.34252 0.3345 0.0
C2026 C 0.18967 0.34056 0.29579 0.0
C2027 C 0.21058 0.34824 0.35308 0.0
C2028 C 0.16604 0.32018 0.34867 0.0
C2029 C 0.14942 0.32521 0.36283 0.0
C2030 C 0.12803 0.30736 0.3768 0.0
C2031 C 0.12353 0.28373 0.37635 0.0
C2032 C 0.14036 0.27817 0.36201 0.0
C2033 C 0.16188 0.29672 0.34808 0.0
H2034 H 0.61961 0.82196 0.3385 0.0
H2035 H 0.6179 0.75465 0.32058 0.0
H2036 H 0.66196 0.77543 0.32505 0.0
H2037 H 0.67265 0.85891 0.29053 0.0
H2038 H 0.68373 0.88384 0.31958 0.0
H2039 H 0.65198 0.86363 0.31568 0.0
H2040 H 0.64899 0.85551 0.38066 0.0
H2041 H 0.68071 0.8758 0.38479 0.0
H2042 H 0.66778 0.84544 0.39998 0.0
H2043 H 0.70619 0.8036 0.3302 0.0
H2044 H 0.74751 0.83701 0.33789 0.0
H2045 H 0.72031 0.88588 0.35271 0.0
C2046 C 0.62847 0.81154 0.3357 0.0
C2047 C 0.6153 0.78666 0.32919 0.0
C2048 C 0.6276 0.77372 0.32562 0.0
C2049 C 0.65263 0.78536 0.32805 0.0
C2050 C 0.66507 0.80993 0.33413 0.0
C2051 C 0.65342 0.82286 0.33809 0.0
C2052 C 0.67102 0.84911 0.34438 0.0
C2053 C 0.66977 0.86479 0.31584 0.0
C2054 C 0.66688 0.85691 0.37955 0.0
C2055 C 0.6944 0.84892 0.34327 0.0
C2056 C 0.69057 0.82615 0.33725 0.0
C2057 C 0.70942 0.82151 0.335 0.0
C2058 C 0.73283 0.84062 0.33933 0.0
C2059 C 0.73716 0.86407 0.34591 0.0
C2060 C 0.71762 0.86818 0.34771 0.0
H2061 H 0.17579 0.78947 0.35796 0.0
H2062 H 0.19651 0.80652 0.25185 0.0
H2063 H 0.17466 0.82872 0.2488 0.0
H2064 H 0.11653 0.78074 0.34925 0.0
H2065 H 0.11707 0.79425 0.38966 0.0
H2066 H 0.13448 0.77973 0.38372 0.0
H2067 H 0.17289 0.81865 0.40183 0.0
H2068 H 0.15558 0.83327 0.4079 0.0
H2069 H 0.18113 0.84626 0.37982 0.0
H2070 H 0.15015 0.84854 0.25677 0.0
H2071 H 0.12537 0.86563 0.27597 0.0
H2072 H 0.12103 0.83613 0.37693 0.0
C2073 C 0.17576 0.79789 0.3341 0.0
C2074 C 0.18785 0.79622 0.30516 0.0
C2075 C 0.1874 0.80755 0.27441 0.0
C2076 C 0.17502 0.82019 0.27237 0.0
C2077 C 0.16322 0.82141 0.3013 0.0
C2078 C 0.16354 0.81067 0.33162 0.0
C2079 C 0.14946 0.8148 0.35896 0.0
C2080 C 0.12812 0.79096 0.3711 0.0
C2081 C 0.16574 0.8291 0.38889 0.0
C2082 C 0.14117 0.8295 0.33921 0.0
C2083 C 0.14925 0.83306 0.30598 0.0
C2084 C 0.14374 0.84594 0.28277 0.0
C2085 C 0.12963 0.85554 0.29389 0.0
C2086 C 0.1213 0.85225 0.32793 0.0
C2087 C 0.12717 0.83902 0.35077 0.0
H2088 H 0.71383 0.83979 0.87094 0.0
H2089 H 0.7441 0.88223 0.77936 0.0
H2090 H 0.70332 0.86889 0.75797 0.0
H2091 H 0.66363 0.78988 0.83026 0.0
H2092 H 0.64342 0.78477 0.86512 0.0
H2093 H 0.675 0.79758 0.87309 0.0
H2094 H 0.67585 0.83389 0.90281 0.0
H2095 H 0.64429 0.82123 0.89486 0.0
H2096 H 0.66515 0.85106 0.88023 0.0
H2097 H 0.65946 0.85157 0.74708 0.0
H2098 H 0.61534 0.83057 0.74656 0.0
H2099 H 0.61374 0.79912 0.8451 0.0
C2100 C 0.71192 0.84626 0.84634 0.0
C2101 C 0.73214 0.86207 0.82681 0.0
C2102 C 0.72886 0.87009 0.79474 0.0
C2103 C 0.70579 0.86264 0.78239 0.0
C2104 C 0.68626 0.84715 0.8024 0.0
C2105 C 0.68906 0.83898 0.83361 0.0
C2106 C 0.66512 0.82241 0.85007 0.0
C2107 C 0.66159 0.79716 0.85491 0.0
C2108 C 0.66245 0.83277 0.884 0.0
C2109 C 0.64838 0.82259 0.82325 0.0
C2110 C 0.66094 0.83701 0.796 0.0
C2111 C 0.64942 0.84018 0.76822 0.0
C2112 C 0.62434 0.82819 0.76821 0.0
C2113 C 0.61108 0.81318 0.79579 0.0
C2114 C 0.62335 0.81042 0.82363 0.0
H2115 H 0.18965 0.83112 0.80571 0.0
H2116 H 0.16453 0.77279 0.87866 0.0
H2117 H 0.13586 0.78397 0.90176 0.0
H2118 H 0.18625 0.87334 0.86213 0.0
H2119 H 0.17645 0.88605 0.82931 0.0
H2120 H 0.19493 0.87337 0.81847 0.0
H2121 H 0.16306 0.84528 0.77484 0.0
H2122 H 0.14445 0.85781 0.78563 0.0
H2123 H 0.13263 0.82596 0.78872 0.0
H2124 H 0.10945 0.80105 0.91625 0.0
H2125 H 0.08832 0.82388 0.9227 0.0
H2126 H 0.13121 0.87142 0.84089 0.0
C2127 C 0.17815 0.8207 0.82657 0.0
C2128 C 0.17931 0.80105 0.84034 0.0
C2129 C 0.16399 0.78794 0.86772 0.0
C2130 C 0.14761 0.79411 0.88097 0.0
C2131 C 0.14684 0.81349 0.86667 0.0
C2132 C 0.16179 0.82667 0.84021 0.0
C2133 C 0.15754 0.84683 0.82965 0.0
C2134 C 0.18014 0.87135 0.83524 0.0
C2135 C 0.1489 0.84377 0.79251 0.0
C2136 C 0.13783 0.84289 0.85427 0.0
C2137 C 0.13185 0.82351 0.87531 0.0
C2138 C 0.11402 0.8163 0.89998 0.0
C2139 C 0.10209 0.82936 0.90339 0.0
C2140 C 0.10813 0.84946 0.88234 0.0
C2141 C 0.1262 0.85618 0.85742 0.0
H2142 H 0.18444 0.3868 0.7896 0.0
H2143 H 0.21349 0.42498 0.88453 0.0
H2144 H 0.1936 0.38669 0.91586 0.0
H2145 H 0.12695 0.34243 0.82372 0.0
H2146 H 0.12508 0.31858 0.79759 0.0
H2147 H 0.14135 0.34906 0.78262 0.0
H2148 H 0.17919 0.34528 0.774 0.0
H2149 H 0.16305 0.31481 0.78897 0.0
H2150 H 0.19069 0.33612 0.80925 0.0
H2151 H 0.17154 0.3443 0.93671 0.0
H2152 H 0.14813 0.3006 0.94581 0.0
H2153 H 0.13296 0.2901 0.83742 0.0
C2154 C 0.18658 0.38714 0.81698 0.0
C2155 C 0.20055 0.4089 0.83459 0.0
C2156 C 0.20286 0.40855 0.87046 0.0
C2157 C 0.19164 0.38689 0.88851 0.0
C2158 C 0.17808 0.36577 0.87035 0.0
C2159 C 0.17542 0.3657 0.83542 0.0
C2160 C 0.15995 0.34049 0.82203 0.0
C2161 C 0.13697 0.33747 0.80552 0.0
C2162 C 0.17407 0.33379 0.7971 0.0
C2163 C 0.15452 0.32639 0.85487 0.0
C2164 C 0.16514 0.34131 0.88243 0.0
C2165 C 0.16304 0.33242 0.91536 0.0
C2166 C 0.14972 0.30757 0.92024 0.0
C2167 C 0.13866 0.29193 0.89236 0.0
C2168 C 0.14108 0.30157 0.8593 0.0
H2169 H 0.87326 0.70461 0.68017 0.0
H2170 H 0.83396 0.71753 0.60109 0.0
H2171 H 0.80376 0.67448 0.60052 0.0
H2172 H 0.86332 0.64839 0.64804 0.0
H2173 H 0.86019 0.63531 0.68964 0.0
H2174 H 0.87854 0.66721 0.68409 0.0
H2175 H 0.85389 0.67409 0.73032 0.0
H2176 H 0.83547 0.64221 0.73602 0.0
H2177 H 0.82182 0.65996 0.72586 0.0
H2178 H 0.77797 0.6299 0.6083 0.0
H2179 H 0.75854 0.58709 0.62405 0.0
H2180 H 0.81491 0.60371 0.69788 0.0
C2181 C 0.8583 0.69843 0.66276 0.0
C2182 C 0.85598 0.71444 0.64069 0.0
C2183 C 0.83612 0.70559 0.61826 0.0
C2184 C 0.81886 0.68118 0.61773 0.0
C2185 C 0.82172 0.66588 0.63978 0.0
C2186 C 0.84093 0.67415 0.66188 0.0
C2187 C 0.83992 0.65398 0.68284 0.0
C2188 C 0.86179 0.65105 0.67571 0.0
C2189 C 0.83763 0.65779 0.72102 0.0
C2190 C 0.81717 0.63306 0.66903 0.0
C2191 C 0.80691 0.64026 0.64423 0.0
C2192 C 0.78582 0.62404 0.62771 0.0
C2193 C 0.77493 0.59977 0.63682 0.0
C2194 C 0.78519 0.59205 0.66218 0.0
C2195 C 0.80658 0.60901 0.6784 0.0
H2196 H 0.28269 0.14861 0.67507 0.0
H2197 H 0.28145 0.10794 0.58618 0.0
H2198 H 0.32551 0.12755 0.58787 0.0
H2199 H 0.33527 0.20323 0.65213 0.0
H2200 H 0.34639 0.21059 0.69511 0.0
H2201 H 0.31465 0.1929 0.6875 0.0
H2202 H 0.3123 0.15947 0.72682 0.0
H2203 H 0.34403 0.1771 0.73462 0.0
H2204 H 0.33137 0.14703 0.71841 0.0
H2205 H 0.36972 0.15205 0.59856 0.0
H2206 H 0.41106 0.17964 0.61783 0.0
H2207 H 0.38333 0.20429 0.69959 0.0
C2208 C 0.29165 0.14374 0.65605 0.0
C2209 C 0.2786 0.12672 0.63052 0.0
C2210 C 0.29105 0.12091 0.60602 0.0
C2211 C 0.31608 0.13195 0.60675 0.0
C2212 C 0.3284 0.14873 0.63213 0.0
C2213 C 0.31663 0.15458 0.65637 0.0
C2214 C 0.33413 0.17342 0.68068 0.0
C2215 C 0.33251 0.19639 0.67872 0.0
C2216 C 0.33022 0.16366 0.7173 0.0
C2217 C 0.35757 0.17731 0.6662 0.0
C2218 C 0.35388 0.16287 0.63825 0.0
C2219 C 0.37286 0.16342 0.62046 0.0
C2220 C 0.39626 0.17916 0.6316 0.0
C2221 C 0.40044 0.19412 0.6602 0.0
C2222 C 0.38076 0.19309 0.67764 0.0
H2223 H 0.86076 0.1344 0.6589 0.0
H2224 H 0.84117 0.12981 0.55218 0.0
H2225 H 0.81581 0.14737 0.56563 0.0
H2226 H 0.80298 0.11943 0.69322 0.0
H2227 H 0.81536 0.14002 0.72839 0.0
H2228 H 0.83181 0.12685 0.71044 0.0
H2229 H 0.86823 0.16919 0.70007 0.0
H2230 H 0.85187 0.18249 0.71792 0.0
H2231 H 0.86431 0.19068 0.67567 0.0
H2232 H 0.79307 0.16581 0.59034 0.0
H2233 H 0.77395 0.18354 0.62485 0.0
H2234 H 0.80827 0.17612 0.71558 0.0
C2235 C 0.85109 0.13701 0.63835 0.0
C2236 C 0.85295 0.13073 0.60447 0.0
C2237 C 0.84003 0.13448 0.57833 0.0
C2238 C 0.82558 0.14445 0.5857 0.0
C2239 C 0.82424 0.15054 0.61932 0.0
C2240 C 0.83659 0.14694 0.64524 0.0
C2241 C 0.83213 0.15518 0.67918 0.0
C2242 C 0.81983 0.13411 0.70428 0.0
C2243 C 0.85553 0.1756 0.69407 0.0
C2244 C 0.81537 0.16402 0.66824 0.0
C2245 C 0.81107 0.16117 0.63361 0.0
C2246 C 0.79627 0.1681 0.6175 0.0
C2247 C 0.78551 0.17818 0.63734 0.0
C2248 C 0.7896 0.18122 0.67294 0.0
C2249 C 0.80477 0.17403 0.68846 0.0
H2250 H 0.05592 0.52845 0.54628 0.0
H2251 H 0.0769 0.59322 0.48788 0.0
H2252 H 0.03544 0.57594 0.46673 0.0
H2253 H 0.01672 0.48756 0.48455 0.0
H2254 H 0.99517 0.4675 0.51518 0.0
H2255 H 0.0262 0.48541 0.52697 0.0
H2256 H 0.01436 0.50307 0.57771 0.0
H2257 H 0.98326 0.48518 0.56611 0.0
H2258 H 0.99672 0.5172 0.57001 0.0
H2259 H 0.99212 0.551 0.45027 0.0
H2260 H 0.95 0.52026 0.4398 0.0
H2261 H 0.9575 0.47193 0.5092 0.0
C2262 C 0.05181 0.53911 0.52923 0.0
C2263 C 0.06966 0.5622 0.51873 0.0
C2264 C 0.06352 0.57549 0.49629 0.0
C2265 C 0.04001 0.56585 0.48416 0.0
C2266 C 0.0229 0.54296 0.49483 0.0
C2267 C 0.02849 0.52979 0.51692 0.0
C2268 C 0.00696 0.50538 0.5238 0.0
C2269 C 0.01154 0.48528 0.5119 0.0
C2270 C -9e-05 0.50255 0.56166 0.0
C2271 C 0.98843 0.50676 0.50179 0.0
C2272 C -0.00204 0.52861 0.4854 0.0
C2273 C 0.98442 0.53387 0.4631 0.0
C2274 C 0.96052 0.51627 0.45729 0.0
C2275 C 0.95044 0.49369 0.47371 0.0
C2276 C 0.96462 0.48903 0.49638 0.0
H2277 H 0.46501 0.52211 0.54756 0.0
H2278 H 0.43053 0.5144 0.44965 0.0
H2279 H 0.44886 0.49125 0.42829 0.0
H2280 H 0.5203 0.52947 0.51511 0.0
H2281 H 0.52387 0.51262 0.54897 0.0
H2282 H 0.50791 0.52845 0.55665 0.0
H2283 H 0.47098 0.48909 0.57731 0.0
H2284 H 0.48683 0.47313 0.56971 0.0
H2285 H 0.45816 0.4632 0.5499 0.0
H2286 H 0.47105 0.46926 0.4175 0.0
H2287 H 0.49544 0.4496 0.41792 0.0
H2288 H 0.51538 0.47152 0.52302 0.0
C2289 C 0.46128 0.51555 0.52162 0.0
C2290 C 0.44633 0.52007 0.50025 0.0
C2291 C 0.4419 0.51115 0.46649 0.0
C2292 C 0.45224 0.49799 0.45412 0.0
C2293 C 0.4669 0.4939 0.47585 0.0
C2294 C 0.47141 0.50237 0.50888 0.0
C2295 C 0.48783 0.49548 0.52699 0.0
C2296 C 0.51137 0.51784 0.53754 0.0
C2297 C 0.47519 0.47926 0.5578 0.0
C2298 C 0.4919 0.48184 0.49892 0.0
C2299 C 0.47966 0.48114 0.46966 0.0
C2300 C 0.4807 0.46965 0.44027 0.0
C2301 C 0.49461 0.45854 0.44079 0.0
C2302 C 0.50732 0.45899 0.47053 0.0
C2303 C 0.50588 0.47082 0.49993 0.0
H2304 H 0.49608 0.04414 0.50064 0.0
H2305 H 0.53821 0.04279 0.41521 0.0
H2306 H 0.51604 -0.00139 0.41667 0.0
H2307 H 0.49385 0.99479 0.54573 0.0
H2308 H 0.46361 0.9834 0.56061 0.0
H2309 H 0.48241 0.01492 0.55227 0.0
H2310 H 0.45045 0.01358 0.51086 0.0
H2311 H 0.43158 0.98203 0.51898 0.0
H2312 H 0.44013 0.99264 0.47594 0.0
H2313 H 0.48952 0.95463 0.42763 0.0
H2314 H 0.46146 0.91392 0.44871 0.0
H2315 H 0.43696 0.94412 0.5272 0.0
C2316 C 0.50063 0.03458 0.48217 0.0
C2317 C 0.51885 0.04693 0.45778 0.0
C2318 C 0.52432 0.03372 0.43417 0.0
C2319 C 0.5118 0.00862 0.43472 0.0
C2320 C 0.4939 0.99702 0.45905 0.0
C2321 C 0.48837 0.00954 0.48242 0.0
C2322 C 0.46871 0.99276 0.50641 0.0
C2323 C 0.47769 0.9967 0.54344 0.0
C2324 C 0.4464 0.99541 0.50281 0.0
C2325 C 0.46412 0.96884 0.49294 0.0
C2326 C 0.47874 0.97168 0.46551 0.0
C2327 C 0.47794 0.95216 0.44906 0.0
C2328 C 0.46192 0.92911 0.4612 0.0
C2329 C 0.44701 0.92582 0.48959 0.0
C2330 C 0.44806 0.94601 0.50539 0.0
H2331 H 0.53331 0.05179 0.01078 0.0
H2332 H 0.49354 0.04912 0.92002 0.0
H2333 H 0.47015 0.00504 0.92432 0.0
H2334 H 0.53735 -0.00028 0.99221 0.0
H2335 H 0.53386 0.98991 0.03589 0.0
H2336 H 0.54703 0.02131 0.02627 0.0
H2337 H 0.51527 0.02365 0.06403 0.0
H2338 H 0.50206 0.99227 0.07389 0.0
H2339 H 0.4839 0.00355 0.05592 0.0
H2340 H 0.45145 0.96126 0.93811 0.0
H2341 H 0.43858 0.92085 0.96063 0.0
H2342 H 0.49094 0.95225 0.04195 0.0
C2343 C 0.51959 0.04198 0.99191 0.0
C2344 C 0.51522 0.05391 0.9651 0.0
C2345 C 0.4972 0.04037 0.94081 0.0
C2346 C 0.48382 0.01533 0.94302 0.0
C2347 C 0.48871 0.00413 0.96962 0.0
C2348 C 0.50613 0.017 0.99365 0.0
C2349 C 0.50809 0.0006 0.01945 0.0
C2350 C 0.53307 0.00303 0.01837 0.0
C2351 C 0.50196 0.0053 0.05545 0.0
C2352 C 0.48906 0.97649 0.00612 0.0
C2353 C 0.47806 0.97891 0.97741 0.0
C2354 C 0.45991 0.95913 0.96059 0.0
C2355 C 0.45274 0.93625 0.97358 0.0
C2356 C 0.46376 0.93338 0.00302 0.0
C2357 C 0.48219 0.95383 0.01935 0.0
H2358 H 0.96015 0.47882 0.00971 0.0
H2359 H 0.95283 0.44811 0.90897 0.0
H2360 H 0.99652 0.46459 0.90641 0.0
H2361 H 0.01456 0.53331 0.99341 0.0
H2362 H 0.02689 0.5348 0.03514 0.0
H2363 H 0.99492 0.52002 0.02943 0.0
H2364 H 0.99057 0.48136 0.05655 0.0
H2365 H 0.02253 0.49604 0.06236 0.0
H2366 H 0.00726 0.46827 0.03911 0.0
H2367 H 0.04119 0.48524 0.91423 0.0
H2368 H 0.08356 0.50842 0.9322 0.0
H2369 H 0.06141 0.52532 0.02778 0.0
C2370 C 0.9677 0.47546 0.98717 0.0
C2371 C 0.95305 0.46217 0.95956 0.0
C2372 C 0.96367 0.45824 0.93048 0.0
C2373 C 0.98848 0.46751 0.92876 0.0
C2374 C 0.00241 0.48063 0.95635 0.0
C2375 C 0.99242 0.48457 0.98502 0.0
C2376 C 0.01141 0.49953 0.01097 0.0
C2377 C 0.01197 0.52333 0.01761 0.0
C2378 C 0.00772 0.48545 0.04421 0.0
C2379 C 0.03364 0.50351 0.9923 0.0
C2380 C 0.0281 0.49244 0.96087 0.0
C2381 C 0.04576 0.49392 0.93885 0.0
C2382 C 0.06976 0.50714 0.94927 0.0
C2383 C 0.07581 0.51865 0.98139 0.0
C2384 C 0.05741 0.51668 0.0031 0.0
H2385 H 0.49854 0.46414 0.01388 0.0
H2386 H 0.53563 0.49632 0.9192 0.0
H2387 H 0.52105 0.52509 0.92165 0.0
H2388 H 0.44643 0.46943 0.9972 0.0
H2389 H 0.44341 0.47634 0.04077 0.0
H2390 H 0.45663 0.45811 0.03143 0.0
H2391 H 0.49462 0.48743 0.06538 0.0
H2392 H 0.48151 0.50573 0.07482 0.0
H2393 H 0.51038 0.51878 0.05435 0.0
H2394 H 0.50273 0.55065 0.93462 0.0
H2395 H 0.48197 0.57113 0.95747 0.0
H2396 H 0.45695 0.52212 0.04344 0.0
C2397 C 0.50357 0.47719 0.99363 0.0
C2398 C 0.51822 0.47795 0.96636 0.0
C2399 C 0.52442 0.49537 0.94038 0.0
C2400 C 0.51622 0.5118 0.9415 0.0
C2401 C 0.50184 0.51057 0.96875 0.0
C2402 C 0.49556 0.49373 0.99433 0.0
C2403 C 0.48003 0.49635 0.02091 0.0
C2404 C 0.45515 0.47371 0.02266 0.0
C2405 C 0.49238 0.50244 0.05593 0.0
C2406 C 0.47863 0.51733 0.0063 0.0
C2407 C 0.4913 0.52528 0.9762 0.0
C2408 C 0.49271 0.54457 0.95816 0.0
C2409 C 0.48087 0.55609 0.97133 0.0
C2410 C 0.46783 0.54824 0.00221 0.0
C2411 C 0.46673 0.52856 0.01975 0.0
loop_
_geom_bond_atom_site_label_1
_geom_bond_atom_site_label_2
_geom_bond_distance
_geom_bond_site_symmetry_2
_ccdc_geom_bond_type
C0 O1 1.160 . S
C0 O7 1.185 . S
O1 C0 1.160 . S
O2 Zn3 1.899 . S
O2 C10 1.284 . S
Zn3 O2 1.899 . S
Zn3 O4 2.032 . S
Zn3 O7 2.086 . S
Zn3 O12 1.977 . S
O4 Zn3 2.032 . S
O4 C8 1.278 . S
C5 O6 1.203 . S
C5 O12 1.267 . S
O6 C5 1.203 . S
O7 C0 1.185 . S
O7 Zn3 2.086 . S
C8 O4 1.278 . S
C8 O9 1.211 . S
O9 C8 1.211 . S
C10 O2 1.284 . S
C10 O11 1.273 . S
O11 C10 1.273 . S
O12 Zn3 1.977 . S
O12 C5 1.267 . S
C13 O14 1.160 . S
C13 O20 1.185 . S
O14 C13 1.160 . S
O15 Zn16 1.899 . S
O15 C23 1.284 . S
Zn16 O15 1.899 . S
Zn16 O17 2.032 . S
Zn16 O20 2.086 . S
Zn16 O25 1.977 . S
O17 Zn16 2.032 . S
O17 C21 1.278 . S
C18 O19 1.203 . S
C18 O25 1.267 . S
O19 C18 1.203 . S
O20 C13 1.185 . S
O20 Zn16 2.086 . S
C21 O17 1.278 . S
C21 O22 1.211 . S
O22 C21 1.211 . S
C23 O15 1.284 . S
C23 O24 1.273 . S
O24 C23 1.273 . S
O25 Zn16 1.977 . S
O25 C18 1.267 . S
C26 O27 1.160 . S
C26 O33 1.185 . S
O27 C26 1.160 . S
O28 Zn29 1.899 . S
O28 C36 1.284 . S
Zn29 O28 1.899 . S
Zn29 O30 2.032 . S
Zn29 O33 2.086 . S
Zn29 O38 1.977 . S
O30 Zn29 2.032 . S
O30 C34 1.278 . S
C31 O32 1.203 . S
C31 O38 1.267 . S
O32 C31 1.203 . S
O33 C26 1.185 . S
O33 Zn29 2.086 . S
C34 O30 1.278 . S
C34 O35 1.211 . S
O35 C34 1.211 . S
C36 O28 1.284 . S
C36 O37 1.273 . S
O37 C36 1.273 . S
O38 Zn29 1.977 . S
O38 C31 1.267 . S
C39 O40 1.160 . S
C39 O46 1.185 . S
O40 C39 1.160 . S
O41 Zn42 1.899 . S
O41 C49 1.284 . S
Zn42 O41 1.899 . S
Zn42 O43 2.032 . S
Zn42 O46 2.086 . S
Zn42 O51 1.977 . S
O43 Zn42 2.032 . S
O43 C47 1.278 . S
C44 O45 1.203 . S
C44 O51 1.267 . S
O45 C44 1.203 . S
O46 C39 1.185 . S
O46 Zn42 2.086 . S
C47 O43 1.278 . S
C47 O48 1.211 . S
O48 C47 1.211 . S
C49 O41 1.284 . S
C49 O50 1.273 . S
O50 C49 1.273 . S
O51 Zn42 1.977 . S
O51 C44 1.267 . S
C52 O53 1.160 . S
C52 O59 1.185 . S
O53 C52 1.160 . S
O54 Zn55 1.899 . S
O54 C62 1.284 . S
Zn55 O54 1.899 . S
Zn55 O56 2.032 . S
Zn55 O59 2.086 . S
Zn55 O64 1.977 . S
O56 Zn55 2.032 . S
O56 C60 1.278 . S
C57 O58 1.203 . S
C57 O64 1.267 . S
O58 C57 1.203 . S
O59 C52 1.185 . S
O59 Zn55 2.086 . S
C60 O56 1.278 . S
C60 O61 1.211 . S
O61 C60 1.211 . S
C62 O54 1.284 . S
C62 O63 1.273 . S
O63 C62 1.273 . S
O64 Zn55 1.977 . S
O64 C57 1.267 . S
C65 O66 1.160 . S
C65 O72 1.185 . S
O66 C65 1.160 . S
O67 Zn68 1.899 . S
O67 C75 1.284 . S
Zn68 O67 1.899 . S
Zn68 O69 2.032 . S
Zn68 O72 2.086 . S
Zn68 O77 1.977 . S
O69 Zn68 2.032 . S
O69 C73 1.278 . S
C70 O71 1.203 . S
C70 O77 1.267 . S
O71 C70 1.203 . S
O72 C65 1.185 . S
O72 Zn68 2.086 . S
C73 O69 1.278 . S
C73 O74 1.211 . S
O74 C73 1.211 . S
C75 O67 1.284 . S
C75 O76 1.273 . S
O76 C75 1.273 . S
O77 Zn68 1.977 . S
O77 C70 1.267 . S
C78 O79 1.160 . S
C78 O85 1.185 . S
O79 C78 1.160 . S
O80 Zn81 1.899 . S
O80 C88 1.284 . S
Zn81 O80 1.899 . S
Zn81 O82 2.032 . S
Zn81 O85 2.086 . S
Zn81 O90 1.977 . S
O82 Zn81 2.032 . S
O82 C86 1.278 . S
C83 O84 1.203 . S
C83 O90 1.267 . S
O84 C83 1.203 . S
O85 C78 1.185 . S
O85 Zn81 2.086 . S
C86 O82 1.278 . S
C86 O87 1.211 . S
O87 C86 1.211 . S
C88 O80 1.284 . S
C88 O89 1.273 . S
O89 C88 1.273 . S
O90 Zn81 1.977 . S
O90 C83 1.267 . S
C91 O92 1.160 . S
C91 O98 1.185 . S
O92 C91 1.160 . S
O93 Zn94 1.899 . S
O93 C101 1.284 . S
Zn94 O93 1.899 . S
Zn94 O95 2.032 . S
Zn94 O98 2.086 . S
Zn94 O103 1.977 . S
O95 Zn94 2.032 . S
O95 C99 1.278 . S
C96 O97 1.203 . S
C96 O103 1.267 . S
O97 C96 1.203 . S
O98 C91 1.185 . S
O98 Zn94 2.086 . S
C99 O95 1.278 . S
C99 O100 1.211 . S
O100 C99 1.211 . S
C101 O93 1.284 . S
C101 O102 1.273 . S
O102 C101 1.273 . S
O103 Zn94 1.977 . S
O103 C96 1.267 . S
C104 O105 1.160 . S
C104 O111 1.185 . S
O105 C104 1.160 . S
O106 Zn107 1.899 . S
O106 C114 1.284 . S
Zn107 O106 1.899 . S
Zn107 O108 2.032 . S
Zn107 O111 2.086 . S
Zn107 O116 1.977 . S
O108 Zn107 2.032 . S
O108 C112 1.278 . S
C109 O110 1.203 . S
C109 O116 1.267 . S
O110 C109 1.203 . S
O111 C104 1.185 . S
O111 Zn107 2.086 . S
C112 O108 1.278 . S
C112 O113 1.211 . S
O113 C112 1.211 . S
C114 O106 1.284 . S
C114 O115 1.273 . S
O115 C114 1.273 . S
O116 Zn107 1.977 . S
O116 C109 1.267 . S
C117 O118 1.160 . S
C117 O124 1.185 . S
O118 C117 1.160 . S
O119 Zn120 1.899 . S
O119 C127 1.284 . S
Zn120 O119 1.899 . S
Zn120 O121 2.032 . S
Zn120 O124 2.086 . S
Zn120 O129 1.977 . S
O121 Zn120 2.032 . S
O121 C125 1.278 . S
C122 O123 1.203 . S
C122 O129 1.267 . S
O123 C122 1.203 . S
O124 C117 1.185 . S
O124 Zn120 2.086 . S
C125 O121 1.278 . S
C125 O126 1.211 . S
O126 C125 1.211 . S
C127 O119 1.284 . S
C127 O128 1.273 . S
O128 C127 1.273 . S
O129 Zn120 1.977 . S
O129 C122 1.267 . S
C130 O131 1.160 . S
C130 O137 1.185 . S
O131 C130 1.160 . S
O132 Zn133 1.899 . S
O132 C140 1.284 . S
Zn133 O132 1.899 . S
Zn133 O134 2.032 . S
Zn133 O137 2.086 . S
Zn133 O142 1.977 . S
O134 Zn133 2.032 . S
O134 C138 1.278 . S
C135 O136 1.203 . S
C135 O142 1.267 . S
O136 C135 1.203 . S
O137 C130 1.185 . S
O137 Zn133 2.086 . S
C138 O134 1.278 . S
C138 O139 1.211 . S
O139 C138 1.211 . S
C140 O132 1.284 . S
C140 O141 1.273 . S
O141 C140 1.273 . S
O142 Zn133 1.977 . S
O142 C135 1.267 . S
C143 O144 1.160 . S
C143 O150 1.185 . S
O144 C143 1.160 . S
O145 Zn146 1.899 . S
O145 C153 1.284 . S
Zn146 O145 1.899 . S
Zn146 O147 2.032 . S
Zn146 O150 2.086 . S
Zn146 O155 1.977 . S
O147 Zn146 2.032 . S
O147 C151 1.278 . S
C148 O149 1.203 . S
C148 O155 1.267 . S
O149 C148 1.203 . S
O150 C143 1.185 . S
O150 Zn146 2.086 . S
C151 O147 1.278 . S
C151 O152 1.211 . S
O152 C151 1.211 . S
C153 O145 1.284 . S
C153 O154 1.273 . S
O154 C153 1.273 . S
O155 Zn146 1.977 . S
O155 C148 1.267 . S
C156 O157 1.160 . S
C156 O163 1.185 . S
O157 C156 1.160 . S
O158 Zn159 1.899 . S
O158 C166 1.284 . S
Zn159 O158 1.899 . S
Zn159 O160 2.032 . S
Zn159 O163 2.086 . S
Zn159 O168 1.977 . S
O160 Zn159 2.032 . S
O160 C164 1.278 . S
C161 O162 1.203 . S
C161 O168 1.267 . S
O162 C161 1.203 . S
O163 C156 1.185 . S
O163 Zn159 2.086 . S
C164 O160 1.278 . S
C164 O165 1.211 . S
O165 C164 1.211 . S
C166 O158 1.284 . S
C166 O167 1.273 . S
O167 C166 1.273 . S
O168 Zn159 1.977 . S
O168 C161 1.267 . S
C169 O170 1.160 . S
C169 O176 1.185 . S
O170 C169 1.160 . S
O171 Zn172 1.899 . S
O171 C179 1.284 . S
Zn172 O171 1.899 . S
Zn172 O173 2.032 . S
Zn172 O176 2.086 . S
Zn172 O181 1.977 . S
O173 Zn172 2.032 . S
O173 C177 1.278 . S
C174 O175 1.203 . S
C174 O181 1.267 . S
O175 C174 1.203 . S
O176 C169 1.185 . S
O176 Zn172 2.086 . S
C177 O173 1.278 . S
C177 O178 1.211 . S
O178 C177 1.211 . S
C179 O171 1.284 . S
C179 O180 1.273 . S
O180 C179 1.273 . S
O181 Zn172 1.977 . S
O181 C174 1.267 . S
C182 O183 1.160 . S
C182 O189 1.185 . S
O183 C182 1.160 . S
O184 Zn185 1.899 . S
O184 C192 1.284 . S
Zn185 O184 1.899 . S
Zn185 O186 2.032 . S
Zn185 O189 2.086 . S
Zn185 O194 1.977 . S
O186 Zn185 2.032 . S
O186 C190 1.278 . S
C187 O188 1.203 . S
C187 O194 1.267 . S
O188 C187 1.203 . S
O189 C182 1.185 . S
O189 Zn185 2.086 . S
C190 O186 1.278 . S
C190 O191 1.211 . S
O191 C190 1.211 . S
C192 O184 1.284 . S
C192 O193 1.273 . S
O193 C192 1.273 . S
O194 Zn185 1.977 . S
O194 C187 1.267 . S
C195 O196 1.160 . S
C195 O202 1.185 . S
O196 C195 1.160 . S
O197 Zn198 1.899 . S
O197 C205 1.284 . S
Zn198 O197 1.899 . S
Zn198 O199 2.032 . S
Zn198 O202 2.086 . S
Zn198 O207 1.977 . S
O199 Zn198 2.032 . S
O199 C203 1.278 . S
C200 O201 1.203 . S
C200 O207 1.267 . S
O201 C200 1.203 . S
O202 C195 1.185 . S
O202 Zn198 2.086 . S
C203 O199 1.278 . S
C203 O204 1.211 . S
O204 C203 1.211 . S
C205 O197 1.284 . S
C205 O206 1.273 . S
O206 C205 1.273 . S
O207 Zn198 1.977 . S
O207 C200 1.267 . S
C208 O209 1.160 . S
C208 O215 1.185 . S
O209 C208 1.160 . S
O210 Zn211 1.899 . S
O210 C218 1.284 . S
Zn211 O210 1.899 . S
Zn211 O212 2.032 . S
Zn211 O215 2.086 . S
Zn211 O220 1.977 . S
O212 Zn211 2.032 . S
O212 C216 1.278 . S
C213 O214 1.203 . S
C213 O220 1.267 . S
O214 C213 1.203 . S
O215 C208 1.185 . S
O215 Zn211 2.086 . S
C216 O212 1.278 . S
C216 O217 1.211 . S
O217 C216 1.211 . S
C218 O210 1.284 . S
C218 O219 1.273 . S
O219 C218 1.273 . S
O220 Zn211 1.977 . S
O220 C213 1.267 . S
C221 O222 1.160 . S
C221 O228 1.185 . S
O222 C221 1.160 . S
O223 Zn224 1.899 . S
O223 C231 1.284 . S
Zn224 O223 1.899 . S
Zn224 O225 2.032 . S
Zn224 O228 2.086 . S
Zn224 O233 1.977 . S
O225 Zn224 2.032 . S
O225 C229 1.278 . S
C226 O227 1.203 . S
C226 O233 1.267 . S
O227 C226 1.203 . S
O228 C221 1.185 . S
O228 Zn224 2.086 . S
C229 O225 1.278 . S
C229 O230 1.211 . S
O230 C229 1.211 . S
C231 O223 1.284 . S
C231 O232 1.273 . S
O232 C231 1.273 . S
O233 Zn224 1.977 . S
O233 C226 1.267 . S
C234 O235 1.160 . S
C234 O241 1.185 . S
O235 C234 1.160 . S
O236 Zn237 1.899 . S
O236 C244 1.284 . S
Zn237 O236 1.899 . S
Zn237 O238 2.032 . S
Zn237 O241 2.086 . S
Zn237 O246 1.977 . S
O238 Zn237 2.032 . S
O238 C242 1.278 . S
C239 O240 1.203 . S
C239 O246 1.267 . S
O240 C239 1.203 . S
O241 C234 1.185 . S
O241 Zn237 2.086 . S
C242 O238 1.278 . S
C242 O243 1.211 . S
O243 C242 1.211 . S
C244 O236 1.284 . S
C244 O245 1.273 . S
O245 C244 1.273 . S
O246 Zn237 1.977 . S
O246 C239 1.267 . S
C247 O248 1.160 . S
C247 O254 1.185 . S
O248 C247 1.160 . S
O249 Zn250 1.899 . S
O249 C257 1.284 . S
Zn250 O249 1.899 . S
Zn250 O251 2.032 . S
Zn250 O254 2.086 . S
Zn250 O259 1.977 . S
O251 Zn250 2.032 . S
O251 C255 1.278 . S
C252 O253 1.203 . S
C252 O259 1.267 . S
O253 C252 1.203 . S
O254 C247 1.185 . S
O254 Zn250 2.086 . S
C255 O251 1.278 . S
C255 O256 1.211 . S
O256 C255 1.211 . S
C257 O249 1.284 . S
C257 O258 1.273 . S
O258 C257 1.273 . S
O259 Zn250 1.977 . S
O259 C252 1.267 . S
C260 O261 1.160 . S
C260 O267 1.185 . S
O261 C260 1.160 . S
O262 Zn263 1.899 . S
O262 C270 1.284 . S
Zn263 O262 1.899 . S
Zn263 O264 2.032 . S
Zn263 O267 2.086 . S
Zn263 O272 1.977 . S
O264 Zn263 2.032 . S
O264 C268 1.278 . S
C265 O266 1.203 . S
C265 O272 1.267 . S
O266 C265 1.203 . S
O267 C260 1.185 . S
O267 Zn263 2.086 . S
C268 O264 1.278 . S
C268 O269 1.211 . S
O269 C268 1.211 . S
C270 O262 1.284 . S
C270 O271 1.273 . S
O271 C270 1.273 . S
O272 Zn263 1.977 . S
O272 C265 1.267 . S
C273 O274 1.160 . S
C273 O280 1.185 . S
O274 C273 1.160 . S
O275 Zn276 1.899 . S
O275 C283 1.284 . S
Zn276 O275 1.899 . S
Zn276 O277 2.032 . S
Zn276 O280 2.086 . S
Zn276 O285 1.977 . S
O277 Zn276 2.032 . S
O277 C281 1.278 . S
C278 O279 1.203 . S
C278 O285 1.267 . S
O279 C278 1.203 . S
O280 C273 1.185 . S
O280 Zn276 2.086 . S
C281 O277 1.278 . S
C281 O282 1.211 . S
O282 C281 1.211 . S
C283 O275 1.284 . S
C283 O284 1.273 . S
O284 C283 1.273 . S
O285 Zn276 1.977 . S
O285 C278 1.267 . S
C286 O287 1.160 . S
C286 O293 1.185 . S
O287 C286 1.160 . S
O288 Zn289 1.899 . S
O288 C296 1.284 . S
Zn289 O288 1.899 . S
Zn289 O290 2.032 . S
Zn289 O293 2.086 . S
Zn289 O298 1.977 . S
O290 Zn289 2.032 . S
O290 C294 1.278 . S
C291 O292 1.203 . S
C291 O298 1.267 . S
O292 C291 1.203 . S
O293 C286 1.185 . S
O293 Zn289 2.086 . S
C294 O290 1.278 . S
C294 O295 1.211 . S
O295 C294 1.211 . S
C296 O288 1.284 . S
C296 O297 1.273 . S
O297 C296 1.273 . S
O298 Zn289 1.977 . S
O298 C291 1.267 . S
C299 O300 1.160 . S
C299 O306 1.185 . S
O300 C299 1.160 . S
O301 Zn302 1.899 . S
O301 C309 1.284 . S
Zn302 O301 1.899 . S
Zn302 O303 2.032 . S
Zn302 O306 2.086 . S
Zn302 O311 1.977 . S
O303 Zn302 2.032 . S
O303 C307 1.278 . S
C304 O305 1.203 . S
C304 O311 1.267 . S
O305 C304 1.203 . S
O306 C299 1.185 . S
O306 Zn302 2.086 . S
C307 O303 1.278 . S
C307 O308 1.211 . S
O308 C307 1.211 . S
C309 O301 1.284 . S
C309 O310 1.273 . S
O310 C309 1.273 . S
O311 Zn302 1.977 . S
O311 C304 1.267 . S
C312 O313 1.160 . S
C312 O319 1.185 . S
O313 C312 1.160 . S
O314 Zn315 1.899 . S
O314 C322 1.284 . S
Zn315 O314 1.899 . S
Zn315 O316 2.032 . S
Zn315 O319 2.086 . S
Zn315 O324 1.977 . S
O316 Zn315 2.032 . S
O316 C320 1.278 . S
C317 O318 1.203 . S
C317 O324 1.267 . S
O318 C317 1.203 . S
O319 C312 1.185 . S
O319 Zn315 2.086 . S
C320 O316 1.278 . S
C320 O321 1.211 . S
O321 C320 1.211 . S
C322 O314 1.284 . S
C322 O323 1.273 . S
O323 C322 1.273 . S
O324 Zn315 1.977 . S
O324 C317 1.267 . S
C325 O326 1.160 . S
C325 O332 1.185 . S
O326 C325 1.160 . S
O327 Zn328 1.899 . S
O327 C335 1.284 . S
Zn328 O327 1.899 . S
Zn328 O329 2.032 . S
Zn328 O332 2.086 . S
Zn328 O337 1.977 . S
O329 Zn328 2.032 . S
O329 C333 1.278 . S
C330 O331 1.203 . S
C330 O337 1.267 . S
O331 C330 1.203 . S
O332 C325 1.185 . S
O332 Zn328 2.086 . S
C333 O329 1.278 . S
C333 O334 1.211 . S
O334 C333 1.211 . S
C335 O327 1.284 . S
C335 O336 1.273 . S
O336 C335 1.273 . S
O337 Zn328 1.977 . S
O337 C330 1.267 . S
C338 O339 1.160 . S
C338 O345 1.185 . S
O339 C338 1.160 . S
O340 Zn341 1.899 . S
O340 C348 1.284 . S
Zn341 O340 1.899 . S
Zn341 O342 2.032 . S
Zn341 O345 2.086 . S
Zn341 O350 1.977 . S
O342 Zn341 2.032 . S
O342 C346 1.278 . S
C343 O344 1.203 . S
C343 O350 1.267 . S
O344 C343 1.203 . S
O345 C338 1.185 . S
O345 Zn341 2.086 . S
C346 O342 1.278 . S
C346 O347 1.211 . S
O347 C346 1.211 . S
C348 O340 1.284 . S
C348 O349 1.273 . S
O349 C348 1.273 . S
O350 Zn341 1.977 . S
O350 C343 1.267 . S
C351 O352 1.160 . S
C351 O358 1.185 . S
O352 C351 1.160 . S
O353 Zn354 1.899 . S
O353 C361 1.284 . S
Zn354 O353 1.899 . S
Zn354 O355 2.032 . S
Zn354 O358 2.086 . S
Zn354 O363 1.977 . S
O355 Zn354 2.032 . S
O355 C359 1.278 . S
C356 O357 1.203 . S
C356 O363 1.267 . S
O357 C356 1.203 . S
O358 C351 1.185 . S
O358 Zn354 2.086 . S
C359 O355 1.278 . S
C359 O360 1.211 . S
O360 C359 1.211 . S
C361 O353 1.284 . S
C361 O362 1.273 . S
O362 C361 1.273 . S
O363 Zn354 1.977 . S
O363 C356 1.267 . S
C364 O365 1.160 . S
C364 O371 1.185 . S
O365 C364 1.160 . S
O366 Zn367 1.899 . S
O366 C374 1.284 . S
Zn367 O366 1.899 . S
Zn367 O368 2.032 . S
Zn367 O371 2.086 . S
Zn367 O376 1.977 . S
O368 Zn367 2.032 . S
O368 C372 1.278 . S
C369 O370 1.203 . S
C369 O376 1.267 . S
O370 C369 1.203 . S
O371 C364 1.185 . S
O371 Zn367 2.086 . S
C372 O368 1.278 . S
C372 O373 1.211 . S
O373 C372 1.211 . S
C374 O366 1.284 . S
C374 O375 1.273 . S
O375 C374 1.273 . S
O376 Zn367 1.977 . S
O376 C369 1.267 . S
C377 O378 1.160 . S
C377 O384 1.185 . S
O378 C377 1.160 . S
O379 Zn380 1.899 . S
O379 C387 1.284 . S
Zn380 O379 1.899 . S
Zn380 O381 2.032 . S
Zn380 O384 2.086 . S
Zn380 O389 1.977 . S
O381 Zn380 2.032 . S
O381 C385 1.278 . S
C382 O383 1.203 . S
C382 O389 1.267 . S
O383 C382 1.203 . S
O384 C377 1.185 . S
O384 Zn380 2.086 . S
C385 O381 1.278 . S
C385 O386 1.211 . S
O386 C385 1.211 . S
C387 O379 1.284 . S
C387 O388 1.273 . S
O388 C387 1.273 . S
O389 Zn380 1.977 . S
O389 C382 1.267 . S
C390 O391 1.160 . S
C390 O397 1.185 . S
O391 C390 1.160 . S
O392 Zn393 1.899 . S
O392 C400 1.284 . S
Zn393 O392 1.899 . S
Zn393 O394 2.032 . S
Zn393 O397 2.086 . S
Zn393 O402 1.977 . S
O394 Zn393 2.032 . S
O394 C398 1.278 . S
C395 O396 1.203 . S
C395 O402 1.267 . S
O396 C395 1.203 . S
O397 C390 1.185 . S
O397 Zn393 2.086 . S
C398 O394 1.278 . S
C398 O399 1.211 . S
O399 C398 1.211 . S
C400 O392 1.284 . S
C400 O401 1.273 . S
O401 C400 1.273 . S
O402 Zn393 1.977 . S
O402 C395 1.267 . S
C403 O404 1.160 . S
C403 O410 1.185 . S
O404 C403 1.160 . S
O405 Zn406 1.899 . S
O405 C413 1.284 . S
Zn406 O405 1.899 . S
Zn406 O407 2.032 . S
Zn406 O410 2.086 . S
Zn406 O415 1.977 . S
O407 Zn406 2.032 . S
O407 C411 1.278 . S
C408 O409 1.203 . S
C408 O415 1.267 . S
O409 C408 1.203 . S
O410 C403 1.185 . S
O410 Zn406 2.086 . S
C411 O407 1.278 . S
C411 O412 1.211 . S
O412 C411 1.211 . S
C413 O405 1.284 . S
C413 O414 1.273 . S
O414 C413 1.273 . S
O415 Zn406 1.977 . S
O415 C408 1.267 . S
C416 O417 1.160 . S
C416 O423 1.185 . S
O417 C416 1.160 . S
O418 Zn419 1.899 . S
O418 C426 1.284 . S
Zn419 O418 1.899 . S
Zn419 O420 2.032 . S
Zn419 O423 2.086 . S
Zn419 O428 1.977 . S
O420 Zn419 2.032 . S
O420 C424 1.278 . S
C421 O422 1.203 . S
C421 O428 1.267 . S
O422 C421 1.203 . S
O423 C416 1.185 . S
O423 Zn419 2.086 . S
C424 O420 1.278 . S
C424 O425 1.211 . S
O425 C424 1.211 . S
C426 O418 1.284 . S
C426 O427 1.273 . S
O427 C426 1.273 . S
O428 Zn419 1.977 . S
O428 C421 1.267 . S
C429 O430 1.160 . S
C429 O436 1.185 . S
O430 C429 1.160 . S
O431 Zn432 1.899 . S
O431 C439 1.284 . S
Zn432 O431 1.899 . S
Zn432 O433 2.032 . S
Zn432 O436 2.086 . S
Zn432 O441 1.977 . S
O433 Zn432 2.032 . S
O433 C437 1.278 . S
C434 O435 1.203 . S
C434 O441 1.267 . S
O435 C434 1.203 . S
O436 C429 1.185 . S
O436 Zn432 2.086 . S
C437 O433 1.278 . S
C437 O438 1.211 . S
O438 C437 1.211 . S
C439 O431 1.284 . S
C439 O440 1.273 . S
O440 C439 1.273 . S
O441 Zn432 1.977 . S
O441 C434 1.267 . S
C442 O443 1.160 . S
C442 O449 1.185 . S
O443 C442 1.160 . S
O444 Zn445 1.899 . S
O444 C452 1.284 . S
Zn445 O444 1.899 . S
Zn445 O446 2.032 . S
Zn445 O449 2.086 . S
Zn445 O454 1.977 . S
O446 Zn445 2.032 . S
O446 C450 1.278 . S
C447 O448 1.203 . S
C447 O454 1.267 . S
O448 C447 1.203 . S
O449 C442 1.185 . S
O449 Zn445 2.086 . S
C450 O446 1.278 . S
C450 O451 1.211 . S
O451 C450 1.211 . S
C452 O444 1.284 . S
C452 O453 1.273 . S
O453 C452 1.273 . S
O454 Zn445 1.977 . S
O454 C447 1.267 . S
C455 O456 1.160 . S
C455 O462 1.185 . S
O456 C455 1.160 . S
O457 Zn458 1.899 . S
O457 C465 1.284 . S
Zn458 O457 1.899 . S
Zn458 O459 2.032 . S
Zn458 O462 2.086 . S
Zn458 O467 1.977 . S
O459 Zn458 2.032 . S
O459 C463 1.278 . S
C460 O461 1.203 . S
C460 O467 1.267 . S
O461 C460 1.203 . S
O462 C455 1.185 . S
O462 Zn458 2.086 . S
C463 O459 1.278 . S
C463 O464 1.211 . S
O464 C463 1.211 . S
C465 O457 1.284 . S
C465 O466 1.273 . S
O466 C465 1.273 . S
O467 Zn458 1.977 . S
O467 C460 1.267 . S
H468 C480 0.930 . S
H469 C482 0.930 . S
H470 C483 0.930 1_565 S
H471 C487 0.959 . S
H472 C487 0.959 . S
H473 C487 0.961 . S
H474 C488 0.960 . S
H475 C488 0.961 . S
H476 C488 0.959 . S
H477 C491 0.929 . S
H478 C492 0.931 . S
H479 C494 0.930 . S
C480 H468 0.930 . S
C480 C481 1.399 . S
C480 C485 1.399 . S
C481 C480 1.399 . S
C481 C482 1.376 . S
C482 H469 0.930 . S
C482 C481 1.376 . S
C482 C483 1.388 . S
C483 H470 0.930 1_545 S
C483 C482 1.388 . S
C483 C484 1.390 . S
C484 C483 1.390 . S
C484 C485 1.394 . S
C484 C490 1.465 1_545 S
C485 C480 1.399 . S
C485 C484 1.394 . S
C485 C486 1.516 1_554 S
C486 C485 1.516 1_556 S
C486 C487 1.502 . S
C486 C488 1.561 . S
C486 C489 1.526 . S
C487 H471 0.959 . S
C487 H472 0.959 . S
C487 H473 0.961 . S
C487 C486 1.502 . S
C488 H474 0.960 . S
C488 H475 0.961 . S
C488 H476 0.959 . S
C488 C486 1.561 . S
C489 C486 1.526 . S
C489 C490 1.396 1_546 S
C489 C494 1.390 1_545 S
C490 C484 1.465 1_565 S
C490 C489 1.396 1_564 S
C490 C491 1.399 . S
C491 H477 0.929 . S
C491 C490 1.399 . S
C491 C492 1.385 1_554 S
C492 H478 0.931 . S
C492 C491 1.385 1_556 S
C492 C493 1.389 . S
C493 C492 1.389 . S
C493 C494 1.387 . S
C494 H479 0.930 . S
C494 C489 1.390 1_565 S
C494 C493 1.387 . S
H495 C507 0.930 . S
H496 C509 0.930 . S
H497 C510 0.931 1_455 S
H498 C514 0.959 . S
H499 C514 0.959 . S
H500 C514 0.961 . S
H501 C515 0.960 . S
H502 C515 0.961 1_556 S
H503 C515 0.959 . S
H504 C518 0.929 . S
H505 C519 0.931 . S
H506 C521 0.930 . S
C507 H495 0.930 . S
C507 C508 1.399 . S
C507 C512 1.399 . S
C508 C507 1.399 . S
C508 C509 1.376 . S
C509 H496 0.930 . S
C509 C508 1.376 . S
C509 C510 1.388 . S
C510 H497 0.931 1_655 S
C510 C509 1.388 . S
C510 C511 1.390 . S
C511 C510 1.390 . S
C511 C512 1.394 . S
C511 C517 1.465 1_655 S
C512 C507 1.399 . S
C512 C511 1.394 . S
C512 C513 1.516 1_554 S
C513 C512 1.516 1_556 S
C513 C514 1.502 . S
C513 C515 1.561 1_556 S
C513 C516 1.526 . S
C514 H498 0.959 . S
C514 H499 0.959 . S
C514 H500 0.961 . S
C514 C513 1.502 . S
C515 H501 0.960 . S
C515 H502 0.961 1_554 S
C515 H503 0.959 . S
C515 C513 1.561 1_554 S
C516 C513 1.526 . S
C516 C517 1.396 1_656 S
C516 C521 1.390 1_655 S
C517 C511 1.465 1_455 S
C517 C516 1.396 1_454 S
C517 C518 1.399 . S
C518 H504 0.929 . S
C518 C517 1.399 . S
C518 C519 1.385 1_554 S
C519 H505 0.931 . S
C519 C518 1.385 1_556 S
C519 C520 1.389 . S
C520 C519 1.389 . S
C520 C521 1.387 . S
C521 H506 0.930 . S
C521 C516 1.390 1_455 S
C521 C520 1.387 . S
H522 C534 0.930 . S
H523 C536 0.930 . S
H524 C537 0.930 . S
H525 C541 0.959 . S
H526 C541 0.959 . S
H527 C541 0.961 . S
H528 C542 0.960 . S
H529 C542 0.961 . S
H530 C542 0.959 . S
H531 C545 0.929 . S
H532 C546 0.931 . S
H533 C548 0.930 . S
C534 H522 0.930 . S
C534 C535 1.399 . S
C534 C539 1.399 1_556 S
C535 C534 1.399 . S
C535 C536 1.376 . S
C536 H523 0.930 . S
C536 C535 1.376 . S
C536 C537 1.388 . S
C537 H524 0.930 . S
C537 C536 1.388 . S
C537 C538 1.391 1_556 S
C538 C537 1.391 1_554 S
C538 C539 1.394 . S
C538 C544 1.464 . S
C539 C534 1.399 1_554 S
C539 C538 1.394 . S
C539 C540 1.516 . S
C540 C539 1.516 . S
C540 C541 1.502 . S
C540 C542 1.561 . S
C540 C543 1.526 . S
C541 H525 0.959 . S
C541 H526 0.959 . S
C541 H527 0.961 . S
C541 C540 1.502 . S
C542 H528 0.960 . S
C542 H529 0.961 . S
C542 H530 0.959 . S
C542 C540 1.561 . S
C543 C540 1.526 . S
C543 C544 1.396 . S
C543 C548 1.390 . S
C544 C538 1.464 . S
C544 C543 1.396 . S
C544 C545 1.399 . S
C545 H531 0.929 . S
C545 C544 1.399 . S
C545 C546 1.385 . S
C546 H532 0.931 . S
C546 C545 1.385 . S
C546 C547 1.389 . S
C547 C546 1.389 . S
C547 C548 1.387 . S
C548 H533 0.930 . S
C548 C543 1.390 . S
C548 C547 1.387 . S
H549 C561 0.930 . S
H550 C563 0.930 . S
H551 C564 0.930 . S
H552 C568 0.959 . S
H553 C568 0.959 . S
H554 C568 0.961 . S
H555 C569 0.960 . S
H556 C569 0.961 . S
H557 C569 0.959 . S
H558 C572 0.929 1_655 S
H559 C573 0.931 . S
H560 C575 0.930 . S
C561 H549 0.930 . S
C561 C562 1.399 . S
C561 C566 1.399 1_655 S
C562 C561 1.399 . S
C562 C563 1.376 . S
C563 H550 0.930 . S
C563 C562 1.376 . S
C563 C564 1.388 . S
C564 H551 0.930 . S
C564 C563 1.388 . S
C564 C565 1.390 . S
C565 C564 1.390 . S
C565 C566 1.394 1_655 S
C565 C571 1.465 1_655 S
C566 C561 1.399 1_455 S
C566 C565 1.394 1_455 S
C566 C567 1.516 . S
C567 C566 1.516 . S
C567 C568 1.502 . S
C567 C569 1.561 . S
C567 C570 1.526 . S
C568 H552 0.959 . S
C568 H553 0.959 . S
C568 H554 0.961 . S
C568 C567 1.502 . S
C569 H555 0.960 . S
C569 H556 0.961 . S
C569 H557 0.959 . S
C569 C567 1.561 . S
C570 C567 1.526 . S
C570 C571 1.396 . S
C570 C575 1.390 . S
C571 C565 1.465 1_455 S
C571 C570 1.396 . S
C571 C572 1.399 . S
C572 H558 0.929 1_455 S
C572 C571 1.399 . S
C572 C573 1.385 . S
C573 H559 0.931 . S
C573 C572 1.385 . S
C573 C574 1.389 . S
C574 C573 1.389 . S
C574 C575 1.387 . S
C575 H560 0.930 . S
C575 C570 1.390 . S
C575 C574 1.387 . S
H576 C588 0.930 . S
H577 C590 0.930 . S
H578 C591 0.930 . S
H579 C595 0.959 . S
H580 C595 0.959 . S
H581 C595 0.961 . S
H582 C596 0.960 . S
H583 C596 0.961 . S
H584 C596 0.959 . S
H585 C599 0.929 . S
H586 C600 0.931 . S
H587 C602 0.930 . S
C588 H576 0.930 . S
C588 C589 1.399 . S
C588 C593 1.399 . S
C589 C588 1.399 . S
C589 C590 1.376 . S
C590 H577 0.930 . S
C590 C589 1.376 . S
C590 C591 1.388 . S
C591 H578 0.930 . S
C591 C590 1.388 . S
C591 C592 1.390 . S
C592 C591 1.390 . S
C592 C593 1.394 . S
C592 C598 1.465 . S
C593 C588 1.399 . S
C593 C592 1.394 . S
C593 C594 1.516 . S
C594 C593 1.516 . S
C594 C595 1.502 . S
C594 C596 1.561 . S
C594 C597 1.526 . S
C595 H579 0.959 . S
C595 H580 0.959 . S
C595 H581 0.961 . S
C595 C594 1.502 . S
C596 H582 0.960 . S
C596 H583 0.961 . S
C596 H584 0.959 . S
C596 C594 1.561 . S
C597 C594 1.526 . S
C597 C598 1.396 . S
C597 C602 1.390 . S
C598 C592 1.465 . S
C598 C597 1.396 . S
C598 C599 1.399 . S
C599 H585 0.929 . S
C599 C598 1.399 . S
C599 C600 1.385 . S
C600 H586 0.931 . S
C600 C599 1.385 . S
C600 C601 1.389 . S
C601 C600 1.389 . S
C601 C602 1.387 . S
C602 H587 0.930 . S
C602 C597 1.390 . S
C602 C601 1.387 . S
H603 C615 0.930 . S
H604 C617 0.930 . S
H605 C618 0.930 1_545 S
H606 C622 0.959 . S
H607 C622 0.959 . S
H608 C622 0.961 . S
H609 C623 0.960 . S
H610 C623 0.961 . S
H611 C623 0.959 . S
H612 C626 0.929 . S
H613 C627 0.931 . S
H614 C629 0.930 . S
C615 H603 0.930 . S
C615 C616 1.399 . S
C615 C620 1.399 . S
C616 C615 1.399 . S
C616 C617 1.376 . S
C617 H604 0.930 . S
C617 C616 1.376 . S
C617 C618 1.388 . S
C618 H605 0.930 1_565 S
C618 C617 1.388 . S
C618 C619 1.390 . S
C619 C618 1.390 . S
C619 C620 1.394 . S
C619 C625 1.465 1_565 S
C620 C615 1.399 . S
C620 C619 1.394 . S
C620 C621 1.516 . S
C621 C620 1.516 . S
C621 C622 1.502 . S
C621 C623 1.561 . S
C621 C624 1.526 . S
C622 H606 0.959 . S
C622 H607 0.959 . S
C622 H608 0.961 . S
C622 C621 1.502 . S
C623 H609 0.960 . S
C623 H610 0.961 . S
C623 H611 0.959 . S
C623 C621 1.561 . S
C624 C621 1.526 . S
C624 C625 1.396 1_565 S
C624 C629 1.390 1_565 S
C625 C619 1.465 1_545 S
C625 C624 1.396 1_545 S
C625 C626 1.399 . S
C626 H612 0.929 . S
C626 C625 1.399 . S
C626 C627 1.385 . S
C627 H613 0.931 . S
C627 C626 1.385 . S
C627 C628 1.389 . S
C628 C627 1.389 . S
C628 C629 1.387 . S
C629 H614 0.930 . S
C629 C624 1.390 1_545 S
C629 C628 1.387 . S
H630 C642 0.930 . S
H631 C644 0.930 . S
H632 C645 0.917 1_556 S
H633 C649 0.959 1_545 S
H634 C649 0.959 . S
H635 C649 0.961 1_544 S
H636 C650 0.960 . S
H637 C650 0.961 . S
H638 C650 0.959 . S
H639 C653 0.929 . S
H640 C654 0.931 . S
H641 C656 0.930 . S
C642 H630 0.930 . S
C642 C643 1.399 . S
C642 C647 1.387 1_545 S
C643 C642 1.399 . S
C643 C644 1.376 . S
C644 H631 0.930 . S
C644 C643 1.376 . S
C644 C645 1.408 . S
C645 H632 0.917 1_554 S
C645 C644 1.408 . S
C645 C646 1.384 1_544 S
C646 C645 1.384 1_566 S
C646 C647 1.388 1_556 S
C646 C652 1.465 . S
C647 C642 1.387 1_565 S
C647 C646 1.388 1_554 S
C647 C648 1.532 1_554 S
C648 C647 1.532 1_556 S
C648 C649 1.504 . S
C648 C650 1.554 1_556 S
C648 C651 1.533 . S
C649 H633 0.959 1_565 S
C649 H634 0.959 . S
C649 H635 0.961 1_566 S
C649 C648 1.504 . S
C650 H636 0.960 . S
C650 H637 0.961 . S
C650 H638 0.959 . S
C650 C648 1.554 1_554 S
C651 C648 1.533 . S
C651 C652 1.396 . S
C651 C656 1.390 . S
C652 C646 1.465 . S
C652 C651 1.396 . S
C652 C653 1.399 . S
C653 H639 0.929 . S
C653 C652 1.399 . S
C653 C654 1.385 . S
C654 H640 0.931 . S
C654 C653 1.385 . S
C654 C655 1.389 . S
C655 C654 1.389 . S
C655 C656 1.387 . S
C656 H641 0.930 . S
C656 C651 1.390 . S
C656 C655 1.387 . S
H657 C669 0.930 . S
H658 C671 0.930 . S
H659 C672 0.930 . S
H660 C676 0.959 . S
H661 C676 0.959 . S
H662 C676 0.961 . S
H663 C677 0.960 . S
H664 C677 0.961 . S
H665 C677 0.959 . S
H666 C680 0.929 . S
H667 C681 0.931 . S
H668 C683 0.930 . S
C669 H657 0.930 . S
C669 C670 1.399 . S
C669 C674 1.399 1_655 S
C670 C669 1.399 . S
C670 C671 1.376 . S
C671 H658 0.930 . S
C671 C670 1.376 . S
C671 C672 1.388 1_554 S
C672 H659 0.930 . S
C672 C671 1.388 1_556 S
C672 C673 1.390 . S
C673 C672 1.390 . S
C673 C674 1.394 1_656 S
C673 C679 1.465 1_655 S
C674 C669 1.399 1_455 S
C674 C673 1.394 1_454 S
C674 C675 1.516 . S
C675 C674 1.516 . S
C675 C676 1.502 . S
C675 C677 1.561 . S
C675 C678 1.526 1_554 S
C676 H660 0.959 . S
C676 H661 0.959 . S
C676 H662 0.961 . S
C676 C675 1.502 . S
C677 H663 0.960 . S
C677 H664 0.961 . S
C677 H665 0.959 . S
C677 C675 1.561 . S
C678 C675 1.526 1_556 S
C678 C679 1.396 . S
C678 C683 1.390 . S
C679 C673 1.465 1_455 S
C679 C678 1.396 . S
C679 C680 1.399 . S
C680 H666 0.929 . S
C680 C679 1.399 . S
C680 C681 1.385 . S
C681 H667 0.931 . S
C681 C680 1.385 . S
C681 C682 1.389 . S
C682 C681 1.389 . S
C682 C683 1.387 . S
C683 H668 0.930 . S
C683 C678 1.390 . S
C683 C682 1.387 . S
H684 C696 0.930 . S
H685 C698 0.930 . S
H686 C699 0.930 . S
H687 C703 0.959 1_556 S
H688 C703 0.959 . S
H689 C703 0.971 . S
H690 C704 0.960 . S
H691 C704 0.961 . S
H692 C704 0.959 . S
H693 C707 0.929 . S
H694 C708 0.931 . S
H695 C710 0.930 . S
C696 H684 0.930 . S
C696 C697 1.399 . S
C696 C701 1.399 . S
C697 C696 1.399 . S
C697 C698 1.376 . S
C698 H685 0.930 . S
C698 C697 1.376 . S
C698 C699 1.388 . S
C699 H686 0.930 . S
C699 C698 1.388 . S
C699 C700 1.390 . S
C700 C699 1.390 . S
C700 C701 1.394 . S
C700 C706 1.465 . S
C701 C696 1.399 . S
C701 C700 1.394 . S
C701 C702 1.516 1_556 S
C702 C701 1.516 1_554 S
C702 C703 1.502 . S
C702 C704 1.561 . S
C702 C705 1.526 . S
C703 H687 0.959 1_554 S
C703 H688 0.959 . S
C703 H689 0.971 . S
C703 C702 1.502 . S
C704 H690 0.960 . S
C704 H691 0.961 . S
C704 H692 0.959 . S
C704 C702 1.561 . S
C705 C702 1.526 . S
C705 C706 1.396 1_554 S
C705 C710 1.390 . S
C706 C700 1.465 . S
C706 C705 1.396 1_556 S
C706 C707 1.399 . S
C707 H693 0.929 . S
C707 C706 1.399 . S
C707 C708 1.385 1_556 S
C708 H694 0.931 . S
C708 C707 1.385 1_554 S
C708 C709 1.389 . S
C709 C708 1.389 . S
C709 C710 1.387 . S
C710 H695 0.930 . S
C710 C705 1.390 . S
C710 C709 1.387 . S
H711 C723 0.930 . S
H712 C725 0.930 . S
H713 C726 0.930 . S
H714 C730 0.959 . S
H715 C730 0.959 . S
H716 C730 0.961 . S
H717 C731 0.960 . S
H718 C731 0.961 . S
H719 C731 0.959 . S
H720 C734 0.929 . S
H721 C735 0.931 . S
H722 C737 0.930 . S
C723 H711 0.930 . S
C723 C724 1.399 . S
C723 C728 1.399 . S
C724 C723 1.399 . S
C724 C725 1.376 . S
C725 H712 0.930 . S
C725 C724 1.376 . S
C725 C726 1.388 . S
C726 H713 0.930 . S
C726 C725 1.388 . S
C726 C727 1.390 . S
C727 C726 1.390 . S
C727 C728 1.394 . S
C727 C733 1.465 . S
C728 C723 1.399 . S
C728 C727 1.394 . S
C728 C729 1.516 . S
C729 C728 1.516 . S
C729 C730 1.502 . S
C729 C731 1.561 . S
C729 C732 1.526 . S
C730 H714 0.959 . S
C730 H715 0.959 . S
C730 H716 0.961 . S
C730 C729 1.502 . S
C731 H717 0.960 . S
C731 H718 0.961 . S
C731 H719 0.959 . S
C731 C729 1.561 . S
C732 C729 1.526 . S
C732 C733 1.396 . S
C732 C737 1.390 1_655 S
C733 C727 1.465 . S
C733 C732 1.396 . S
C733 C734 1.399 1_655 S
C734 H720 0.929 . S
C734 C733 1.399 1_455 S
C734 C735 1.385 . S
C735 H721 0.931 . S
C735 C734 1.385 . S
C735 C736 1.389 . S
C736 C735 1.389 . S
C736 C737 1.387 . S
C737 H722 0.930 . S
C737 C732 1.390 1_455 S
C737 C736 1.387 . S
H738 C750 0.930 . S
H739 C752 0.930 . S
H740 C753 0.930 . S
H741 C757 0.959 . S
H742 C757 0.959 . S
H743 C757 0.961 . S
H744 C758 0.960 . S
H745 C758 0.961 . S
H746 C758 0.959 . S
H747 C761 0.929 . S
H748 C762 0.931 . S
H749 C764 0.930 . S
C750 H738 0.930 . S
C750 C751 1.399 . S
C750 C755 1.399 . S
C751 C750 1.399 . S
C751 C752 1.376 . S
C752 H739 0.930 . S
C752 C751 1.376 . S
C752 C753 1.388 . S
C753 H740 0.930 . S
C753 C752 1.388 . S
C753 C754 1.390 . S
C754 C753 1.390 . S
C754 C755 1.394 . S
C754 C760 1.465 . S
C755 C750 1.399 . S
C755 C754 1.394 . S
C755 C756 1.516 . S
C756 C755 1.516 . S
C756 C757 1.502 . S
C756 C758 1.561 . S
C756 C759 1.526 . S
C757 H741 0.959 . S
C757 H742 0.959 . S
C757 H743 0.961 . S
C757 C756 1.502 . S
C758 H744 0.960 . S
C758 H745 0.961 . S
C758 H746 0.959 . S
C758 C756 1.561 . S
C759 C756 1.526 . S
C759 C760 1.396 . S
C759 C764 1.390 . S
C760 C754 1.465 . S
C760 C759 1.396 . S
C760 C761 1.399 . S
C761 H747 0.929 . S
C761 C760 1.399 . S
C761 C762 1.385 . S
C762 H748 0.931 . S
C762 C761 1.385 . S
C762 C763 1.389 . S
C763 C762 1.389 . S
C763 C764 1.387 . S
C764 H749 0.930 . S
C764 C759 1.390 . S
C764 C763 1.387 . S
H765 C777 0.930 . S
H766 C779 0.930 . S
H767 C780 0.930 . S
H768 C784 0.959 . S
H769 C784 0.959 . S
H770 C784 0.961 . S
H771 C785 0.960 . S
H772 C785 0.961 . S
H773 C785 0.959 . S
H774 C788 0.929 . S
H775 C789 0.931 . S
H776 C791 0.930 . S
C777 H765 0.930 . S
C777 C778 1.399 . S
C777 C782 1.399 . S
C778 C777 1.399 . S
C778 C779 1.376 . S
C779 H766 0.930 . S
C779 C778 1.376 . S
C779 C780 1.388 . S
C780 H767 0.930 . S
C780 C779 1.388 . S
C780 C781 1.390 . S
C781 C780 1.390 . S
C781 C782 1.394 . S
C781 C787 1.465 1_545 S
C782 C777 1.399 . S
C782 C781 1.394 . S
C782 C783 1.516 . S
C783 C782 1.516 . S
C783 C784 1.502 . S
C783 C785 1.561 . S
C783 C786 1.526 . S
C784 H768 0.959 . S
C784 H769 0.959 . S
C784 H770 0.961 . S
C784 C783 1.502 . S
C785 H771 0.960 . S
C785 H772 0.961 . S
C785 H773 0.959 . S
C785 C783 1.561 . S
C786 C783 1.526 . S
C786 C787 1.396 1_545 S
C786 C791 1.390 1_545 S
C787 C781 1.465 1_565 S
C787 C786 1.396 1_565 S
C787 C788 1.399 . S
C788 H774 0.929 . S
C788 C787 1.399 . S
C788 C789 1.385 . S
C789 H775 0.931 . S
C789 C788 1.385 . S
C789 C790 1.389 . S
C790 C789 1.389 . S
C790 C791 1.387 . S
C791 H776 0.930 . S
C791 C786 1.390 1_565 S
C791 C790 1.387 . S
H792 C804 0.930 . S
H793 C806 0.930 . S
H794 C807 0.930 . S
H795 C811 0.959 . S
H796 C811 0.959 . S
H797 C811 0.961 . S
H798 C812 0.960 . S
H799 C812 0.961 . S
H800 C812 0.959 . S
H801 C815 0.929 . S
H802 C816 0.931 . S
H803 C818 0.930 . S
C804 H792 0.930 . S
C804 C805 1.399 . S
C804 C809 1.399 . S
C805 C804 1.399 . S
C805 C806 1.376 . S
C806 H793 0.930 . S
C806 C805 1.376 . S
C806 C807 1.388 . S
C807 H794 0.930 . S
C807 C806 1.388 . S
C807 C808 1.390 . S
C808 C807 1.390 . S
C808 C809 1.394 . S
C808 C814 1.465 . S
C809 C804 1.399 . S
C809 C808 1.394 . S
C809 C810 1.516 . S
C810 C809 1.516 . S
C810 C811 1.502 . S
C810 C812 1.561 . S
C810 C813 1.526 . S
C811 H795 0.959 . S
C811 H796 0.959 . S
C811 H797 0.961 . S
C811 C810 1.502 . S
C812 H798 0.960 . S
C812 H799 0.961 . S
C812 H800 0.959 . S
C812 C810 1.561 . S
C813 C810 1.526 . S
C813 C814 1.396 . S
C813 C818 1.390 . S
C814 C808 1.465 . S
C814 C813 1.396 . S
C814 C815 1.399 . S
C815 H801 0.929 . S
C815 C814 1.399 . S
C815 C816 1.385 . S
C816 H802 0.931 . S
C816 C815 1.385 . S
C816 C817 1.389 . S
C817 C816 1.389 . S
C817 C818 1.387 . S
C818 H803 0.930 . S
C818 C813 1.390 . S
C818 C817 1.387 . S
H819 C831 0.930 . S
H820 C833 0.930 . S
H821 C834 0.930 . S
H822 C838 0.959 . S
H823 C838 0.959 . S
H824 C838 0.961 . S
H825 C839 0.960 . S
H826 C839 0.961 . S
H827 C839 0.959 . S
H828 C842 0.929 . S
H829 C843 0.931 . S
H830 C845 0.930 . S
C831 H819 0.930 . S
C831 C832 1.399 . S
C831 C836 1.399 . S
C832 C831 1.399 . S
C832 C833 1.376 . S
C833 H820 0.930 . S
C833 C832 1.376 . S
C833 C834 1.388 . S
C834 H821 0.930 . S
C834 C833 1.388 . S
C834 C835 1.390 . S
C835 C834 1.390 . S
C835 C836 1.394 . S
C835 C841 1.465 . S
C836 C831 1.399 . S
C836 C835 1.394 . S
C836 C837 1.516 . S
C837 C836 1.516 . S
C837 C838 1.502 . S
C837 C839 1.561 . S
C837 C840 1.526 . S
C838 H822 0.959 . S
C838 H823 0.959 . S
C838 H824 0.961 . S
C838 C837 1.502 . S
C839 H825 0.960 . S
C839 H826 0.961 . S
C839 H827 0.959 . S
C839 C837 1.561 . S
C840 C837 1.526 . S
C840 C841 1.396 . S
C840 C845 1.390 . S
C841 C835 1.465 . S
C841 C840 1.396 . S
C841 C842 1.399 . S
C842 H828 0.929 . S
C842 C841 1.399 . S
C842 C843 1.385 . S
C843 H829 0.931 . S
C843 C842 1.385 . S
C843 C844 1.389 . S
C844 C843 1.389 . S
C844 C845 1.387 . S
C845 H830 0.930 . S
C845 C840 1.390 . S
C845 C844 1.387 . S
H846 C858 0.930 . S
H847 C860 0.930 . S
H848 C861 0.930 . S
H849 C865 0.959 . S
H850 C865 0.959 . S
H851 C865 0.961 . S
H852 C866 0.960 . S
H853 C866 0.961 . S
H854 C866 0.959 . S
H855 C869 0.929 . S
H856 C870 0.931 . S
H857 C872 0.930 . S
C858 H846 0.930 . S
C858 C859 1.399 . S
C858 C863 1.399 . S
C859 C858 1.399 . S
C859 C860 1.376 . S
C860 H847 0.930 . S
C860 C859 1.376 . S
C860 C861 1.388 . S
C861 H848 0.930 . S
C861 C860 1.388 . S
C861 C862 1.390 . S
C862 C861 1.390 . S
C862 C863 1.394 . S
C862 C868 1.465 . S
C863 C858 1.399 . S
C863 C862 1.394 . S
C863 C864 1.516 . S
C864 C863 1.516 . S
C864 C865 1.502 . S
C864 C866 1.561 . S
C864 C867 1.526 . S
C865 H849 0.959 . S
C865 H850 0.959 . S
C865 H851 0.961 . S
C865 C864 1.502 . S
C866 H852 0.960 . S
C866 H853 0.961 . S
C866 H854 0.959 . S
C866 C864 1.561 . S
C867 C864 1.526 . S
C867 C868 1.396 . S
C867 C872 1.390 . S
C868 C862 1.465 . S
C868 C867 1.396 . S
C868 C869 1.399 . S
C869 H855 0.929 . S
C869 C868 1.399 . S
C869 C870 1.385 . S
C870 H856 0.931 . S
C870 C869 1.385 . S
C870 C871 1.389 . S
C871 C870 1.389 . S
C871 C872 1.387 . S
C872 H857 0.930 . S
C872 C867 1.390 . S
C872 C871 1.387 . S
H873 C885 0.930 . S
H874 C887 0.930 . S
H875 C888 0.930 . S
H876 C892 0.959 . S
H877 C892 0.959 . S
H878 C892 0.961 . S
H879 C893 0.960 . S
H880 C893 0.961 . S
H881 C893 0.959 . S
H882 C896 0.929 . S
H883 C897 0.931 . S
H884 C899 0.930 . S
C885 H873 0.930 . S
C885 C886 1.399 . S
C885 C890 1.399 . S
C886 C885 1.399 . S
C886 C887 1.376 . S
C887 H874 0.930 . S
C887 C886 1.376 . S
C887 C888 1.388 . S
C888 H875 0.930 . S
C888 C887 1.388 . S
C888 C889 1.390 . S
C889 C888 1.390 . S
C889 C890 1.394 . S
C889 C895 1.465 . S
C890 C885 1.399 . S
C890 C889 1.394 . S
C890 C891 1.516 . S
C891 C890 1.516 . S
C891 C892 1.502 . S
C891 C893 1.561 . S
C891 C894 1.526 . S
C892 H876 0.959 . S
C892 H877 0.959 . S
C892 H878 0.961 . S
C892 C891 1.502 . S
C893 H879 0.960 . S
C893 H880 0.961 . S
C893 H881 0.959 . S
C893 C891 1.561 . S
C894 C891 1.526 . S
C894 C895 1.396 . S
C894 C899 1.390 . S
C895 C889 1.465 . S
C895 C894 1.396 . S
C895 C896 1.399 . S
C896 H882 0.929 . S
C896 C895 1.399 . S
C896 C897 1.385 . S
C897 H883 0.931 . S
C897 C896 1.385 . S
C897 C898 1.389 . S
C898 C897 1.389 . S
C898 C899 1.387 . S
C899 H884 0.930 . S
C899 C894 1.390 . S
C899 C898 1.387 . S
H900 C912 0.930 . S
H901 C914 0.930 . S
H902 C915 0.930 . S
H903 C919 0.959 . S
H904 C919 0.959 . S
H905 C919 0.961 . S
H906 C920 0.960 . S
H907 C920 0.961 . S
H908 C920 0.959 . S
H909 C923 0.929 . S
H910 C924 0.931 . S
H911 C926 0.930 . S
C912 H900 0.930 . S
C912 C913 1.399 . S
C912 C917 1.399 . S
C913 C912 1.399 . S
C913 C914 1.376 . S
C914 H901 0.930 . S
C914 C913 1.376 . S
C914 C915 1.388 . S
C915 H902 0.930 . S
C915 C914 1.388 . S
C915 C916 1.390 . S
C916 C915 1.390 . S
C916 C917 1.394 . S
C916 C922 1.465 . S
C917 C912 1.399 . S
C917 C916 1.394 . S
C917 C918 1.516 . S
C918 C917 1.516 . S
C918 C919 1.502 . S
C918 C920 1.561 . S
C918 C921 1.526 . S
C919 H903 0.959 . S
C919 H904 0.959 . S
C919 H905 0.961 . S
C919 C918 1.502 . S
C920 H906 0.960 . S
C920 H907 0.961 . S
C920 H908 0.959 . S
C920 C918 1.561 . S
C921 C918 1.526 . S
C921 C922 1.396 . S
C921 C926 1.390 . S
C922 C916 1.465 . S
C922 C921 1.396 . S
C922 C923 1.399 . S
C923 H909 0.929 . S
C923 C922 1.399 . S
C923 C924 1.385 . S
C924 H910 0.931 . S
C924 C923 1.385 . S
C924 C925 1.389 . S
C925 C924 1.389 . S
C925 C926 1.387 . S
C926 H911 0.930 . S
C926 C921 1.390 . S
C926 C925 1.387 . S
H927 C939 0.930 . S
H928 C941 0.930 . S
H929 C942 0.930 . S
H930 C946 0.959 . S
H931 C946 0.959 . S
H932 C946 0.961 . S
H933 C947 0.960 . S
H934 C947 0.961 . S
H935 C947 0.959 . S
H936 C950 0.929 . S
H937 C951 0.931 . S
H938 C953 0.930 . S
C939 H927 0.930 . S
C939 C940 1.399 . S
C939 C944 1.399 . S
C940 C939 1.399 . S
C940 C941 1.376 . S
C941 H928 0.930 . S
C941 C940 1.376 . S
C941 C942 1.388 . S
C942 H929 0.930 . S
C942 C941 1.388 . S
C942 C943 1.390 . S
C943 C942 1.390 . S
C943 C944 1.394 . S
C943 C949 1.465 . S
C944 C939 1.399 . S
C944 C943 1.394 . S
C944 C945 1.516 . S
C945 C944 1.516 . S
C945 C946 1.502 . S
C945 C947 1.561 . S
C945 C948 1.526 . S
C946 H930 0.959 . S
C946 H931 0.959 . S
C946 H932 0.961 . S
C946 C945 1.502 . S
C947 H933 0.960 . S
C947 H934 0.961 . S
C947 H935 0.959 . S
C947 C945 1.561 . S
C948 C945 1.526 . S
C948 C949 1.396 . S
C948 C953 1.390 . S
C949 C943 1.465 . S
C949 C948 1.396 . S
C949 C950 1.399 . S
C950 H936 0.929 . S
C950 C949 1.399 . S
C950 C951 1.385 . S
C951 H937 0.931 . S
C951 C950 1.385 . S
C951 C952 1.389 . S
C952 C951 1.389 . S
C952 C953 1.387 . S
C953 H938 0.930 . S
C953 C948 1.390 . S
C953 C952 1.387 . S
H954 C966 0.930 . S
H955 C968 0.930 . S
H956 C969 0.930 . S
H957 C973 0.959 . S
H958 C973 0.959 . S
H959 C973 0.961 . S
H960 C974 0.960 . S
H961 C974 0.961 . S
H962 C974 0.959 . S
H963 C977 0.929 . S
H964 C978 0.931 . S
H965 C980 0.930 . S
C966 H954 0.930 . S
C966 C967 1.399 . S
C966 C971 1.399 . S
C967 C966 1.399 . S
C967 C968 1.376 . S
C968 H955 0.930 . S
C968 C967 1.376 . S
C968 C969 1.388 . S
C969 H956 0.930 . S
C969 C968 1.388 . S
C969 C970 1.390 . S
C970 C969 1.390 . S
C970 C971 1.394 . S
C970 C976 1.465 . S
C971 C966 1.399 . S
C971 C970 1.394 . S
C971 C972 1.516 . S
C972 C971 1.516 . S
C972 C973 1.502 . S
C972 C974 1.561 . S
C972 C975 1.526 . S
C973 H957 0.959 . S
C973 H958 0.959 . S
C973 H959 0.961 . S
C973 C972 1.502 . S
C974 H960 0.960 . S
C974 H961 0.961 . S
C974 H962 0.959 . S
C974 C972 1.561 . S
C975 C972 1.526 . S
C975 C976 1.396 . S
C975 C980 1.390 . S
C976 C970 1.465 . S
C976 C975 1.396 . S
C976 C977 1.399 . S
C977 H963 0.929 . S
C977 C976 1.399 . S
C977 C978 1.385 . S
C978 H964 0.931 . S
C978 C977 1.385 . S
C978 C979 1.389 . S
C979 C978 1.389 . S
C979 C980 1.387 . S
C980 H965 0.930 . S
C980 C975 1.390 . S
C980 C979 1.387 . S
H981 C993 0.930 . S
H982 C995 0.930 . S
H983 C996 0.930 . S
H984 C1000 0.959 . S
H985 C1000 0.959 . S
H986 C1000 0.961 . S
H987 C1001 0.960 . S
H988 C1001 0.961 . S
H989 C1001 0.959 . S
H990 C1004 0.929 . S
H991 C1005 0.931 . S
H992 C1007 0.930 . S
C993 H981 0.930 . S
C993 C994 1.399 . S
C993 C998 1.399 . S
C994 C993 1.399 . S
C994 C995 1.376 . S
C995 H982 0.930 . S
C995 C994 1.376 . S
C995 C996 1.388 . S
C996 H983 0.930 . S
C996 C995 1.388 . S
C996 C997 1.390 . S
C997 C996 1.390 . S
C997 C998 1.394 . S
C997 C1003 1.465 . S
C998 C993 1.399 . S
C998 C997 1.394 . S
C998 C999 1.516 . S
C999 C998 1.516 . S
C999 C1000 1.502 . S
C999 C1001 1.561 . S
C999 C1002 1.526 . S
C1000 H984 0.959 . S
C1000 H985 0.959 . S
C1000 H986 0.961 . S
C1000 C999 1.502 . S
C1001 H987 0.960 . S
C1001 H988 0.961 . S
C1001 H989 0.959 . S
C1001 C999 1.561 . S
C1002 C999 1.526 . S
C1002 C1003 1.396 . S
C1002 C1007 1.390 . S
C1003 C997 1.465 . S
C1003 C1002 1.396 . S
C1003 C1004 1.399 . S
C1004 H990 0.929 . S
C1004 C1003 1.399 . S
C1004 C1005 1.385 . S
C1005 H991 0.931 . S
C1005 C1004 1.385 . S
C1005 C1006 1.389 . S
C1006 C1005 1.389 . S
C1006 C1007 1.387 . S
C1007 H992 0.930 . S
C1007 C1002 1.390 . S
C1007 C1006 1.387 . S
H1008 C1020 0.930 . S
H1009 C1022 0.930 . S
H1010 C1023 0.930 . S
H1011 C1027 0.959 . S
H1012 C1027 0.959 . S
H1013 C1027 0.961 . S
H1014 C1028 0.960 . S
H1015 C1028 0.961 . S
H1016 C1028 0.959 . S
H1017 C1031 0.929 . S
H1018 C1032 0.931 . S
H1019 C1034 0.930 . S
C1020 H1008 0.930 . S
C1020 C1021 1.399 . S
C1020 C1025 1.399 . S
C1021 C1020 1.399 . S
C1021 C1022 1.376 . S
C1022 H1009 0.930 . S
C1022 C1021 1.376 . S
C1022 C1023 1.388 . S
C1023 H1010 0.930 . S
C1023 C1022 1.388 . S
C1023 C1024 1.390 . S
C1024 C1023 1.390 . S
C1024 C1025 1.394 . S
C1024 C1030 1.465 . S
C1025 C1020 1.399 . S
C1025 C1024 1.394 . S
C1025 C1026 1.516 . S
C1026 C1025 1.516 . S
C1026 C1027 1.502 . S
C1026 C1028 1.561 . S
C1026 C1029 1.526 . S
C1027 H1011 0.959 . S
C1027 H1012 0.959 . S
C1027 H1013 0.961 . S
C1027 C1026 1.502 . S
C1028 H1014 0.960 . S
C1028 H1015 0.961 . S
C1028 H1016 0.959 . S
C1028 C1026 1.561 . S
C1029 C1026 1.526 . S
C1029 C1030 1.396 . S
C1029 C1034 1.390 . S
C1030 C1024 1.465 . S
C1030 C1029 1.396 . S
C1030 C1031 1.399 . S
C1031 H1017 0.929 . S
C1031 C1030 1.399 . S
C1031 C1032 1.385 . S
C1032 H1018 0.931 . S
C1032 C1031 1.385 . S
C1032 C1033 1.389 . S
C1033 C1032 1.389 . S
C1033 C1034 1.387 . S
C1034 H1019 0.930 . S
C1034 C1029 1.390 . S
C1034 C1033 1.387 . S
H1035 C1047 0.930 . S
H1036 C1049 0.930 . S
H1037 C1050 0.930 . S
H1038 C1054 0.959 . S
H1039 C1054 0.959 . S
H1040 C1054 0.961 . S
H1041 C1055 0.960 . S
H1042 C1055 0.961 . S
H1043 C1055 0.959 . S
H1044 C1058 0.929 . S
H1045 C1059 0.931 . S
H1046 C1061 0.930 . S
C1047 H1035 0.930 . S
C1047 C1048 1.399 . S
C1047 C1052 1.399 . S
C1048 C1047 1.399 . S
C1048 C1049 1.376 . S
C1049 H1036 0.930 . S
C1049 C1048 1.376 . S
C1049 C1050 1.388 . S
C1050 H1037 0.930 . S
C1050 C1049 1.388 . S
C1050 C1051 1.390 . S
C1051 C1050 1.390 . S
C1051 C1052 1.394 . S
C1051 C1057 1.465 . S
C1052 C1047 1.399 . S
C1052 C1051 1.394 . S
C1052 C1053 1.516 . S
C1053 C1052 1.516 . S
C1053 C1054 1.502 . S
C1053 C1055 1.561 . S
C1053 C1056 1.526 . S
C1054 H1038 0.959 . S
C1054 H1039 0.959 . S
C1054 H1040 0.961 . S
C1054 C1053 1.502 . S
C1055 H1041 0.960 . S
C1055 H1042 0.961 . S
C1055 H1043 0.959 . S
C1055 C1053 1.561 . S
C1056 C1053 1.526 . S
C1056 C1057 1.396 . S
C1056 C1061 1.390 . S
C1057 C1051 1.465 . S
C1057 C1056 1.396 . S
C1057 C1058 1.399 . S
C1058 H1044 0.929 . S
C1058 C1057 1.399 . S
C1058 C1059 1.385 . S
C1059 H1045 0.931 . S
C1059 C1058 1.385 . S
C1059 C1060 1.389 . S
C1060 C1059 1.389 . S
C1060 C1061 1.387 . S
C1061 H1046 0.930 . S
C1061 C1056 1.390 . S
C1061 C1060 1.387 . S
H1062 C1074 0.930 . S
H1063 C1076 0.930 . S
H1064 C1077 0.930 . S
H1065 C1081 0.959 . S
H1066 C1081 0.959 . S
H1067 C1081 0.961 . S
H1068 C1082 0.960 . S
H1069 C1082 0.961 . S
H1070 C1082 0.959 . S
H1071 C1085 0.929 . S
H1072 C1086 0.931 . S
H1073 C1088 0.930 . S
C1074 H1062 0.930 . S
C1074 C1075 1.399 . S
C1074 C1079 1.399 . S
C1075 C1074 1.399 . S
C1075 C1076 1.376 . S
C1076 H1063 0.930 . S
C1076 C1075 1.376 . S
C1076 C1077 1.388 . S
C1077 H1064 0.930 . S
C1077 C1076 1.388 . S
C1077 C1078 1.390 . S
C1078 C1077 1.390 . S
C1078 C1079 1.394 . S
C1078 C1084 1.465 . S
C1079 C1074 1.399 . S
C1079 C1078 1.394 . S
C1079 C1080 1.516 . S
C1080 C1079 1.516 . S
C1080 C1081 1.502 . S
C1080 C1082 1.561 . S
C1080 C1083 1.526 . S
C1081 H1065 0.959 . S
C1081 H1066 0.959 . S
C1081 H1067 0.961 . S
C1081 C1080 1.502 . S
C1082 H1068 0.960 . S
C1082 H1069 0.961 . S
C1082 H1070 0.959 . S
C1082 C1080 1.561 . S
C1083 C1080 1.526 . S
C1083 C1084 1.396 . S
C1083 C1088 1.390 . S
C1084 C1078 1.465 . S
C1084 C1083 1.396 . S
C1084 C1085 1.399 . S
C1085 H1071 0.929 . S
C1085 C1084 1.399 . S
C1085 C1086 1.385 . S
C1086 H1072 0.931 . S
C1086 C1085 1.385 . S
C1086 C1087 1.389 . S
C1087 C1086 1.389 . S
C1087 C1088 1.387 . S
C1088 H1073 0.930 . S
C1088 C1083 1.390 . S
C1088 C1087 1.387 . S
H1089 C1101 0.930 . S
H1090 C1103 0.930 . S
H1091 C1104 0.930 . S
H1092 C1108 0.959 . S
H1093 C1108 0.959 . S
H1094 C1108 0.961 . S
H1095 C1109 0.960 . S
H1096 C1109 0.961 . S
H1097 C1109 0.959 . S
H1098 C1112 0.929 . S
H1099 C1113 0.931 . S
H1100 C1115 0.930 . S
C1101 H1089 0.930 . S
C1101 C1102 1.399 . S
C1101 C1106 1.399 . S
C1102 C1101 1.399 . S
C1102 C1103 1.376 . S
C1103 H1090 0.930 . S
C1103 C1102 1.376 . S
C1103 C1104 1.388 . S
C1104 H1091 0.930 . S
C1104 C1103 1.388 . S
C1104 C1105 1.390 . S
C1105 C1104 1.390 . S
C1105 C1106 1.394 . S
C1105 C1111 1.465 . S
C1106 C1101 1.399 . S
C1106 C1105 1.394 . S
C1106 C1107 1.516 . S
C1107 C1106 1.516 . S
C1107 C1108 1.502 . S
C1107 C1109 1.561 . S
C1107 C1110 1.526 . S
C1108 H1092 0.959 . S
C1108 H1093 0.959 . S
C1108 H1094 0.961 . S
C1108 C1107 1.502 . S
C1109 H1095 0.960 . S
C1109 H1096 0.961 . S
C1109 H1097 0.959 . S
C1109 C1107 1.561 . S
C1110 C1107 1.526 . S
C1110 C1111 1.396 . S
C1110 C1115 1.390 . S
C1111 C1105 1.465 . S
C1111 C1110 1.396 . S
C1111 C1112 1.399 . S
C1112 H1098 0.929 . S
C1112 C1111 1.399 . S
C1112 C1113 1.385 . S
C1113 H1099 0.931 . S
C1113 C1112 1.385 . S
C1113 C1114 1.389 . S
C1114 C1113 1.389 . S
C1114 C1115 1.387 . S
C1115 H1100 0.930 . S
C1115 C1110 1.390 . S
C1115 C1114 1.387 . S
H1116 C1128 0.930 . S
H1117 C1130 0.930 . S
H1118 C1131 0.930 . S
H1119 C1135 0.959 . S
H1120 C1135 0.959 . S
H1121 C1135 0.961 . S
H1122 C1136 0.960 . S
H1123 C1136 0.961 . S
H1124 C1136 0.959 . S
H1125 C1139 0.929 . S
H1126 C1140 0.931 . S
H1127 C1142 0.930 . S
C1128 H1116 0.930 . S
C1128 C1129 1.399 . S
C1128 C1133 1.399 . S
C1129 C1128 1.399 . S
C1129 C1130 1.376 . S
C1130 H1117 0.930 . S
C1130 C1129 1.376 . S
C1130 C1131 1.388 . S
C1131 H1118 0.930 . S
C1131 C1130 1.388 . S
C1131 C1132 1.390 . S
C1132 C1131 1.390 . S
C1132 C1133 1.394 . S
C1132 C1138 1.465 . S
C1133 C1128 1.399 . S
C1133 C1132 1.394 . S
C1133 C1134 1.516 . S
C1134 C1133 1.516 . S
C1134 C1135 1.502 . S
C1134 C1136 1.561 . S
C1134 C1137 1.526 . S
C1135 H1119 0.959 . S
C1135 H1120 0.959 . S
C1135 H1121 0.961 . S
C1135 C1134 1.502 . S
C1136 H1122 0.960 . S
C1136 H1123 0.961 . S
C1136 H1124 0.959 . S
C1136 C1134 1.561 . S
C1137 C1134 1.526 . S
C1137 C1138 1.396 . S
C1137 C1142 1.390 . S
C1138 C1132 1.465 . S
C1138 C1137 1.396 . S
C1138 C1139 1.399 . S
C1139 H1125 0.929 . S
C1139 C1138 1.399 . S
C1139 C1140 1.385 . S
C1140 H1126 0.931 . S
C1140 C1139 1.385 . S
C1140 C1141 1.389 . S
C1141 C1140 1.389 . S
C1141 C1142 1.387 . S
C1142 H1127 0.930 . S
C1142 C1137 1.390 . S
C1142 C1141 1.387 . S
H1143 C1155 0.930 . S
H1144 C1157 0.930 . S
H1145 C1158 0.930 . S
H1146 C1162 0.959 . S
H1147 C1162 0.959 . S
H1148 C1162 0.961 . S
H1149 C1163 0.960 . S
H1150 C1163 0.961 . S
H1151 C1163 0.959 . S
H1152 C1166 0.929 . S
H1153 C1167 0.931 . S
H1154 C1169 0.930 . S
C1155 H1143 0.930 . S
C1155 C1156 1.399 . S
C1155 C1160 1.399 . S
C1156 C1155 1.399 . S
C1156 C1157 1.376 . S
C1157 H1144 0.930 . S
C1157 C1156 1.376 . S
C1157 C1158 1.388 . S
C1158 H1145 0.930 . S
C1158 C1157 1.388 . S
C1158 C1159 1.390 . S
C1159 C1158 1.390 . S
C1159 C1160 1.394 . S
C1159 C1165 1.465 . S
C1160 C1155 1.399 . S
C1160 C1159 1.394 . S
C1160 C1161 1.516 . S
C1161 C1160 1.516 . S
C1161 C1162 1.502 . S
C1161 C1163 1.561 . S
C1161 C1164 1.526 . S
C1162 H1146 0.959 . S
C1162 H1147 0.959 . S
C1162 H1148 0.961 . S
C1162 C1161 1.502 . S
C1163 H1149 0.960 . S
C1163 H1150 0.961 . S
C1163 H1151 0.959 . S
C1163 C1161 1.561 . S
C1164 C1161 1.526 . S
C1164 C1165 1.396 . S
C1164 C1169 1.390 . S
C1165 C1159 1.465 . S
C1165 C1164 1.396 . S
C1165 C1166 1.399 . S
C1166 H1152 0.929 . S
C1166 C1165 1.399 . S
C1166 C1167 1.385 . S
C1167 H1153 0.931 . S
C1167 C1166 1.385 . S
C1167 C1168 1.389 . S
C1168 C1167 1.389 . S
C1168 C1169 1.387 . S
C1169 H1154 0.930 . S
C1169 C1164 1.390 . S
C1169 C1168 1.387 . S
H1170 C1182 0.930 . S
H1171 C1184 0.930 . S
H1172 C1185 0.930 . S
H1173 C1189 0.959 . S
H1174 C1189 0.959 . S
H1175 C1189 0.961 . S
H1176 C1190 0.960 . S
H1177 C1190 0.961 . S
H1178 C1190 0.959 . S
H1179 C1193 0.929 . S
H1180 C1194 0.931 . S
H1181 C1196 0.930 . S
C1182 H1170 0.930 . S
C1182 C1183 1.399 . S
C1182 C1187 1.399 . S
C1183 C1182 1.399 . S
C1183 C1184 1.376 . S
C1184 H1171 0.930 . S
C1184 C1183 1.376 . S
C1184 C1185 1.388 . S
C1185 H1172 0.930 . S
C1185 C1184 1.388 . S
C1185 C1186 1.390 . S
C1186 C1185 1.390 . S
C1186 C1187 1.394 . S
C1186 C1192 1.465 . S
C1187 C1182 1.399 . S
C1187 C1186 1.394 . S
C1187 C1188 1.516 . S
C1188 C1187 1.516 . S
C1188 C1189 1.502 . S
C1188 C1190 1.561 . S
C1188 C1191 1.526 . S
C1189 H1173 0.959 . S
C1189 H1174 0.959 . S
C1189 H1175 0.961 . S
C1189 C1188 1.502 . S
C1190 H1176 0.960 . S
C1190 H1177 0.961 . S
C1190 H1178 0.959 . S
C1190 C1188 1.561 . S
C1191 C1188 1.526 . S
C1191 C1192 1.396 . S
C1191 C1196 1.390 . S
C1192 C1186 1.465 . S
C1192 C1191 1.396 . S
C1192 C1193 1.399 . S
C1193 H1179 0.929 . S
C1193 C1192 1.399 . S
C1193 C1194 1.385 . S
C1194 H1180 0.931 . S
C1194 C1193 1.385 . S
C1194 C1195 1.389 . S
C1195 C1194 1.389 . S
C1195 C1196 1.387 . S
C1196 H1181 0.930 . S
C1196 C1191 1.390 . S
C1196 C1195 1.387 . S
H1197 C1209 0.930 . S
H1198 C1211 0.930 . S
H1199 C1212 0.930 . S
H1200 C1216 0.959 . S
H1201 C1216 0.959 . S
H1202 C1216 0.961 . S
H1203 C1217 0.960 . S
H1204 C1217 0.961 . S
H1205 C1217 0.959 . S
H1206 C1220 0.929 . S
H1207 C1221 0.931 . S
H1208 C1223 0.930 . S
C1209 H1197 0.930 . S
C1209 C1210 1.399 . S
C1209 C1214 1.399 . S
C1210 C1209 1.399 . S
C1210 C1211 1.376 . S
C1211 H1198 0.930 . S
C1211 C1210 1.376 . S
C1211 C1212 1.388 . S
C1212 H1199 0.930 . S
C1212 C1211 1.388 . S
C1212 C1213 1.390 . S
C1213 C1212 1.390 . S
C1213 C1214 1.394 . S
C1213 C1219 1.465 . S
C1214 C1209 1.399 . S
C1214 C1213 1.394 . S
C1214 C1215 1.516 . S
C1215 C1214 1.516 . S
C1215 C1216 1.502 . S
C1215 C1217 1.561 . S
C1215 C1218 1.526 . S
C1216 H1200 0.959 . S
C1216 H1201 0.959 . S
C1216 H1202 0.961 . S
C1216 C1215 1.502 . S
C1217 H1203 0.960 . S
C1217 H1204 0.961 . S
C1217 H1205 0.959 . S
C1217 C1215 1.561 . S
C1218 C1215 1.526 . S
C1218 C1219 1.396 . S
C1218 C1223 1.390 . S
C1219 C1213 1.465 . S
C1219 C1218 1.396 . S
C1219 C1220 1.399 . S
C1220 H1206 0.929 . S
C1220 C1219 1.399 . S
C1220 C1221 1.385 . S
C1221 H1207 0.931 . S
C1221 C1220 1.385 . S
C1221 C1222 1.389 . S
C1222 C1221 1.389 . S
C1222 C1223 1.387 . S
C1223 H1208 0.930 . S
C1223 C1218 1.390 . S
C1223 C1222 1.387 . S
H1224 C1236 0.930 . S
H1225 C1238 0.930 . S
H1226 C1239 0.930 . S
H1227 C1243 0.959 . S
H1228 C1243 0.959 . S
H1229 C1243 0.961 . S
H1230 C1244 0.960 . S
H1231 C1244 0.961 . S
H1232 C1244 0.959 . S
H1233 C1247 0.929 . S
H1234 C1248 0.931 . S
H1235 C1250 0.930 . S
C1236 H1224 0.930 . S
C1236 C1237 1.399 . S
C1236 C1241 1.399 . S
C1237 C1236 1.399 . S
C1237 C1238 1.376 . S
C1238 H1225 0.930 . S
C1238 C1237 1.376 . S
C1238 C1239 1.388 . S
C1239 H1226 0.930 . S
C1239 C1238 1.388 . S
C1239 C1240 1.390 . S
C1240 C1239 1.390 . S
C1240 C1241 1.394 . S
C1240 C1246 1.465 . S
C1241 C1236 1.399 . S
C1241 C1240 1.394 . S
C1241 C1242 1.516 . S
C1242 C1241 1.516 . S
C1242 C1243 1.502 . S
C1242 C1244 1.561 . S
C1242 C1245 1.526 . S
C1243 H1227 0.959 . S
C1243 H1228 0.959 . S
C1243 H1229 0.961 . S
C1243 C1242 1.502 . S
C1244 H1230 0.960 . S
C1244 H1231 0.961 . S
C1244 H1232 0.959 . S
C1244 C1242 1.561 . S
C1245 C1242 1.526 . S
C1245 C1246 1.396 . S
C1245 C1250 1.390 . S
C1246 C1240 1.465 . S
C1246 C1245 1.396 . S
C1246 C1247 1.399 . S
C1247 H1233 0.929 . S
C1247 C1246 1.399 . S
C1247 C1248 1.385 . S
C1248 H1234 0.931 . S
C1248 C1247 1.385 . S
C1248 C1249 1.389 . S
C1249 C1248 1.389 . S
C1249 C1250 1.387 . S
C1250 H1235 0.930 . S
C1250 C1245 1.390 . S
C1250 C1249 1.387 . S
H1251 C1263 0.930 . S
H1252 C1265 0.930 . S
H1253 C1266 0.930 . S
H1254 C1270 0.959 . S
H1255 C1270 0.959 . S
H1256 C1270 0.961 . S
H1257 C1271 0.960 . S
H1258 C1271 0.961 . S
H1259 C1271 0.959 . S
H1260 C1274 0.929 . S
H1261 C1275 0.931 . S
H1262 C1277 0.930 . S
C1263 H1251 0.930 . S
C1263 C1264 1.399 . S
C1263 C1268 1.399 . S
C1264 C1263 1.399 . S
C1264 C1265 1.376 . S
C1265 H1252 0.930 . S
C1265 C1264 1.376 . S
C1265 C1266 1.388 . S
C1266 H1253 0.930 . S
C1266 C1265 1.388 . S
C1266 C1267 1.390 . S
C1267 C1266 1.390 . S
C1267 C1268 1.394 . S
C1267 C1273 1.465 . S
C1268 C1263 1.399 . S
C1268 C1267 1.394 . S
C1268 C1269 1.516 . S
C1269 C1268 1.516 . S
C1269 C1270 1.502 . S
C1269 C1271 1.561 . S
C1269 C1272 1.526 . S
C1270 H1254 0.959 . S
C1270 H1255 0.959 . S
C1270 H1256 0.961 . S
C1270 C1269 1.502 . S
C1271 H1257 0.960 . S
C1271 H1258 0.961 . S
C1271 H1259 0.959 . S
C1271 C1269 1.561 . S
C1272 C1269 1.526 . S
C1272 C1273 1.396 . S
C1272 C1277 1.390 . S
C1273 C1267 1.465 . S
C1273 C1272 1.396 . S
C1273 C1274 1.399 . S
C1274 H1260 0.929 . S
C1274 C1273 1.399 . S
C1274 C1275 1.385 . S
C1275 H1261 0.931 . S
C1275 C1274 1.385 . S
C1275 C1276 1.389 . S
C1276 C1275 1.389 . S
C1276 C1277 1.387 . S
C1277 H1262 0.930 . S
C1277 C1272 1.390 . S
C1277 C1276 1.387 . S
H1278 C1290 0.930 . S
H1279 C1292 0.930 . S
H1280 C1293 0.930 . S
H1281 C1297 0.959 . S
H1282 C1297 0.959 . S
H1283 C1297 0.961 . S
H1284 C1298 0.960 . S
H1285 C1298 0.961 . S
H1286 C1298 0.959 . S
H1287 C1301 0.929 . S
H1288 C1302 0.931 . S
H1289 C1304 0.930 . S
C1290 H1278 0.930 . S
C1290 C1291 1.399 . S
C1290 C1295 1.399 . S
C1291 C1290 1.399 . S
C1291 C1292 1.376 . S
C1292 H1279 0.930 . S
C1292 C1291 1.376 . S
C1292 C1293 1.388 . S
C1293 H1280 0.930 . S
C1293 C1292 1.388 . S
C1293 C1294 1.390 . S
C1294 C1293 1.390 . S
C1294 C1295 1.394 . S
C1294 C1300 1.465 . S
C1295 C1290 1.399 . S
C1295 C1294 1.394 . S
C1295 C1296 1.516 . S
C1296 C1295 1.516 . S
C1296 C1297 1.502 . S
C1296 C1298 1.561 . S
C1296 C1299 1.526 . S
C1297 H1281 0.959 . S
C1297 H1282 0.959 . S
C1297 H1283 0.961 . S
C1297 C1296 1.502 . S
C1298 H1284 0.960 . S
C1298 H1285 0.961 . S
C1298 H1286 0.959 . S
C1298 C1296 1.561 . S
C1299 C1296 1.526 . S
C1299 C1300 1.396 . S
C1299 C1304 1.390 . S
C1300 C1294 1.465 . S
C1300 C1299 1.396 . S
C1300 C1301 1.399 . S
C1301 H1287 0.929 . S
C1301 C1300 1.399 . S
C1301 C1302 1.385 . S
C1302 H1288 0.931 . S
C1302 C1301 1.385 . S
C1302 C1303 1.389 . S
C1303 C1302 1.389 . S
C1303 C1304 1.387 . S
C1304 H1289 0.930 . S
C1304 C1299 1.390 . S
C1304 C1303 1.387 . S
H1305 C1317 0.930 . S
H1306 C1319 0.930 . S
H1307 C1320 0.930 . S
H1308 C1324 0.959 . S
H1309 C1324 0.959 . S
H1310 C1324 0.961 . S
H1311 C1325 0.960 . S
H1312 C1325 0.961 . S
H1313 C1325 0.959 . S
H1314 C1328 0.929 . S
H1315 C1329 0.931 . S
H1316 C1331 0.930 . S
C1317 H1305 0.930 . S
C1317 C1318 1.399 . S
C1317 C1322 1.399 . S
C1318 C1317 1.399 . S
C1318 C1319 1.376 . S
C1319 H1306 0.930 . S
C1319 C1318 1.376 . S
C1319 C1320 1.388 . S
C1320 H1307 0.930 . S
C1320 C1319 1.388 . S
C1320 C1321 1.390 . S
C1321 C1320 1.390 . S
C1321 C1322 1.394 . S
C1321 C1327 1.465 . S
C1322 C1317 1.399 . S
C1322 C1321 1.394 . S
C1322 C1323 1.516 . S
C1323 C1322 1.516 . S
C1323 C1324 1.502 . S
C1323 C1325 1.561 . S
C1323 C1326 1.526 . S
C1324 H1308 0.959 . S
C1324 H1309 0.959 . S
C1324 H1310 0.961 . S
C1324 C1323 1.502 . S
C1325 H1311 0.960 . S
C1325 H1312 0.961 . S
C1325 H1313 0.959 . S
C1325 C1323 1.561 . S
C1326 C1323 1.526 . S
C1326 C1327 1.396 . S
C1326 C1331 1.390 . S
C1327 C1321 1.465 . S
C1327 C1326 1.396 . S
C1327 C1328 1.399 . S
C1328 H1314 0.929 . S
C1328 C1327 1.399 . S
C1328 C1329 1.385 . S
C1329 H1315 0.931 . S
C1329 C1328 1.385 . S
C1329 C1330 1.389 . S
C1330 C1329 1.389 . S
C1330 C1331 1.387 . S
C1331 H1316 0.930 . S
C1331 C1326 1.390 . S
C1331 C1330 1.387 . S
H1332 C1344 0.930 . S
H1333 C1346 0.930 . S
H1334 C1347 0.930 . S
H1335 C1351 0.959 . S
H1336 C1351 0.959 . S
H1337 C1351 0.961 . S
H1338 C1352 0.960 . S
H1339 C1352 0.961 . S
H1340 C1352 0.959 . S
H1341 C1355 0.929 . S
H1342 C1356 0.931 . S
H1343 C1358 0.930 . S
C1344 H1332 0.930 . S
C1344 C1345 1.399 . S
C1344 C1349 1.399 . S
C1345 C1344 1.399 . S
C1345 C1346 1.376 . S
C1346 H1333 0.930 . S
C1346 C1345 1.376 . S
C1346 C1347 1.388 . S
C1347 H1334 0.930 . S
C1347 C1346 1.388 . S
C1347 C1348 1.390 . S
C1348 C1347 1.390 . S
C1348 C1349 1.394 . S
C1348 C1354 1.465 . S
C1349 C1344 1.399 . S
C1349 C1348 1.394 . S
C1349 C1350 1.516 . S
C1350 C1349 1.516 . S
C1350 C1351 1.502 . S
C1350 C1352 1.561 . S
C1350 C1353 1.526 . S
C1351 H1335 0.959 . S
C1351 H1336 0.959 . S
C1351 H1337 0.961 . S
C1351 C1350 1.502 . S
C1352 H1338 0.960 . S
C1352 H1339 0.961 . S
C1352 H1340 0.959 . S
C1352 C1350 1.561 . S
C1353 C1350 1.526 . S
C1353 C1354 1.396 . S
C1353 C1358 1.390 . S
C1354 C1348 1.465 . S
C1354 C1353 1.396 . S
C1354 C1355 1.399 . S
C1355 H1341 0.929 . S
C1355 C1354 1.399 . S
C1355 C1356 1.385 . S
C1356 H1342 0.931 . S
C1356 C1355 1.385 . S
C1356 C1357 1.389 . S
C1357 C1356 1.389 . S
C1357 C1358 1.387 . S
C1358 H1343 0.930 . S
C1358 C1353 1.390 . S
C1358 C1357 1.387 . S
H1359 C1371 0.930 . S
H1360 C1373 0.930 . S
H1361 C1374 0.930 . S
H1362 C1378 0.959 . S
H1363 C1378 0.959 . S
H1364 C1378 0.961 . S
H1365 C1379 0.960 . S
H1366 C1379 0.961 . S
H1367 C1379 0.959 . S
H1368 C1382 0.929 . S
H1369 C1383 0.931 . S
H1370 C1385 0.930 . S
C1371 H1359 0.930 . S
C1371 C1372 1.399 . S
C1371 C1376 1.399 . S
C1372 C1371 1.399 . S
C1372 C1373 1.376 . S
C1373 H1360 0.930 . S
C1373 C1372 1.376 . S
C1373 C1374 1.388 . S
C1374 H1361 0.930 . S
C1374 C1373 1.388 . S
C1374 C1375 1.390 . S
C1375 C1374 1.390 . S
C1375 C1376 1.394 . S
C1375 C1381 1.465 . S
C1376 C1371 1.399 . S
C1376 C1375 1.394 . S
C1376 C1377 1.516 . S
C1377 C1376 1.516 . S
C1377 C1378 1.502 . S
C1377 C1379 1.561 . S
C1377 C1380 1.526 . S
C1378 H1362 0.959 . S
C1378 H1363 0.959 . S
C1378 H1364 0.961 . S
C1378 C1377 1.502 . S
C1379 H1365 0.960 . S
C1379 H1366 0.961 . S
C1379 H1367 0.959 . S
C1379 C1377 1.561 . S
C1380 C1377 1.526 . S
C1380 C1381 1.396 . S
C1380 C1385 1.390 . S
C1381 C1375 1.465 . S
C1381 C1380 1.396 . S
C1381 C1382 1.399 . S
C1382 H1368 0.929 . S
C1382 C1381 1.399 . S
C1382 C1383 1.385 . S
C1383 H1369 0.931 . S
C1383 C1382 1.385 . S
C1383 C1384 1.389 . S
C1384 C1383 1.389 . S
C1384 C1385 1.387 . S
C1385 H1370 0.930 . S
C1385 C1380 1.390 . S
C1385 C1384 1.387 . S
H1386 C1398 0.930 . S
H1387 C1400 0.930 . S
H1388 C1401 0.930 . S
H1389 C1405 0.959 . S
H1390 C1405 0.959 . S
H1391 C1405 0.961 . S
H1392 C1406 0.960 . S
H1393 C1406 0.961 . S
H1394 C1406 0.959 . S
H1395 C1409 0.929 . S
H1396 C1410 0.931 . S
H1397 C1412 0.930 . S
C1398 H1386 0.930 . S
C1398 C1399 1.399 . S
C1398 C1403 1.399 . S
C1399 C1398 1.399 . S
C1399 C1400 1.376 . S
C1400 H1387 0.930 . S
C1400 C1399 1.376 . S
C1400 C1401 1.388 . S
C1401 H1388 0.930 . S
C1401 C1400 1.388 . S
C1401 C1402 1.390 . S
C1402 C1401 1.390 . S
C1402 C1403 1.394 . S
C1402 C1408 1.465 . S
C1403 C1398 1.399 . S
C1403 C1402 1.394 . S
C1403 C1404 1.516 . S
C1404 C1403 1.516 . S
C1404 C1405 1.502 . S
C1404 C1406 1.561 . S
C1404 C1407 1.526 . S
C1405 H1389 0.959 . S
C1405 H1390 0.959 . S
C1405 H1391 0.961 . S
C1405 C1404 1.502 . S
C1406 H1392 0.960 . S
C1406 H1393 0.961 . S
C1406 H1394 0.959 . S
C1406 C1404 1.561 . S
C1407 C1404 1.526 . S
C1407 C1408 1.396 . S
C1407 C1412 1.390 . S
C1408 C1402 1.465 . S
C1408 C1407 1.396 . S
C1408 C1409 1.399 . S
C1409 H1395 0.929 . S
C1409 C1408 1.399 . S
C1409 C1410 1.385 . S
C1410 H1396 0.931 . S
C1410 C1409 1.385 . S
C1410 C1411 1.389 . S
C1411 C1410 1.389 . S
C1411 C1412 1.387 . S
C1412 H1397 0.930 . S
C1412 C1407 1.390 . S
C1412 C1411 1.387 . S
H1413 C1425 0.930 . S
H1414 C1427 0.930 . S
H1415 C1428 0.930 . S
H1416 C1432 0.959 . S
H1417 C1432 0.959 . S
H1418 C1432 0.961 . S
H1419 C1433 0.960 . S
H1420 C1433 0.961 . S
H1421 C1433 0.959 . S
H1422 C1436 0.929 . S
H1423 C1437 0.931 . S
H1424 C1439 0.930 . S
C1425 H1413 0.930 . S
C1425 C1426 1.399 . S
C1425 C1430 1.399 . S
C1426 C1425 1.399 . S
C1426 C1427 1.376 . S
C1427 H1414 0.930 . S
C1427 C1426 1.376 . S
C1427 C1428 1.388 . S
C1428 H1415 0.930 . S
C1428 C1427 1.388 . S
C1428 C1429 1.390 . S
C1429 C1428 1.390 . S
C1429 C1430 1.394 . S
C1429 C1435 1.465 . S
C1430 C1425 1.399 . S
C1430 C1429 1.394 . S
C1430 C1431 1.516 . S
C1431 C1430 1.516 . S
C1431 C1432 1.502 . S
C1431 C1433 1.561 . S
C1431 C1434 1.526 . S
C1432 H1416 0.959 . S
C1432 H1417 0.959 . S
C1432 H1418 0.961 . S
C1432 C1431 1.502 . S
C1433 H1419 0.960 . S
C1433 H1420 0.961 . S
C1433 H1421 0.959 . S
C1433 C1431 1.561 . S
C1434 C1431 1.526 . S
C1434 C1435 1.396 . S
C1434 C1439 1.390 . S
C1435 C1429 1.465 . S
C1435 C1434 1.396 . S
C1435 C1436 1.399 . S
C1436 H1422 0.929 . S
C1436 C1435 1.399 . S
C1436 C1437 1.385 . S
C1437 H1423 0.931 . S
C1437 C1436 1.385 . S
C1437 C1438 1.389 . S
C1438 C1437 1.389 . S
C1438 C1439 1.387 . S
C1439 H1424 0.930 . S
C1439 C1434 1.390 . S
C1439 C1438 1.387 . S
H1440 C1452 0.930 . S
H1441 C1454 0.930 . S
H1442 C1455 0.930 . S
H1443 C1459 0.959 . S
H1444 C1459 0.959 . S
H1445 C1459 0.961 . S
H1446 C1460 0.960 . S
H1447 C1460 0.961 . S
H1448 C1460 0.959 . S
H1449 C1463 0.929 . S
H1450 C1464 0.931 . S
H1451 C1466 0.930 . S
C1452 H1440 0.930 . S
C1452 C1453 1.399 . S
C1452 C1457 1.399 . S
C1453 C1452 1.399 . S
C1453 C1454 1.376 . S
C1454 H1441 0.930 . S
C1454 C1453 1.376 . S
C1454 C1455 1.388 . S
C1455 H1442 0.930 . S
C1455 C1454 1.388 . S
C1455 C1456 1.390 . S
C1456 C1455 1.390 . S
C1456 C1457 1.394 . S
C1456 C1462 1.465 . S
C1457 C1452 1.399 . S
C1457 C1456 1.394 . S
C1457 C1458 1.516 . S
C1458 C1457 1.516 . S
C1458 C1459 1.502 . S
C1458 C1460 1.561 . S
C1458 C1461 1.526 . S
C1459 H1443 0.959 . S
C1459 H1444 0.959 . S
C1459 H1445 0.961 . S
C1459 C1458 1.502 . S
C1460 H1446 0.960 . S
C1460 H1447 0.961 . S
C1460 H1448 0.959 . S
C1460 C1458 1.561 . S
C1461 C1458 1.526 . S
C1461 C1462 1.396 . S
C1461 C1466 1.390 . S
C1462 C1456 1.465 . S
C1462 C1461 1.396 . S
C1462 C1463 1.399 . S
C1463 H1449 0.929 . S
C1463 C1462 1.399 . S
C1463 C1464 1.385 . S
C1464 H1450 0.931 . S
C1464 C1463 1.385 . S
C1464 C1465 1.389 . S
C1465 C1464 1.389 . S
C1465 C1466 1.387 . S
C1466 H1451 0.930 . S
C1466 C1461 1.390 . S
C1466 C1465 1.387 . S
H1467 C1479 0.930 . S
H1468 C1481 0.930 . S
H1469 C1482 0.930 . S
H1470 C1486 0.959 . S
H1471 C1486 0.959 . S
H1472 C1486 0.961 . S
H1473 C1487 0.960 . S
H1474 C1487 0.961 . S
H1475 C1487 0.959 . S
H1476 C1490 0.925 1_565 S
H1477 C1491 0.931 . S
H1478 C1493 0.930 . S
C1479 H1467 0.930 . S
C1479 C1480 1.399 . S
C1479 C1484 1.399 . S
C1480 C1479 1.399 . S
C1480 C1481 1.376 . S
C1481 H1468 0.930 . S
C1481 C1480 1.376 . S
C1481 C1482 1.388 . S
C1482 H1469 0.930 . S
C1482 C1481 1.388 . S
C1482 C1483 1.390 . S
C1483 C1482 1.390 . S
C1483 C1484 1.394 . S
C1483 C1489 1.465 1_565 S
C1484 C1479 1.399 . S
C1484 C1483 1.394 . S
C1484 C1485 1.516 1_565 S
C1485 C1484 1.516 1_545 S
C1485 C1486 1.502 . S
C1485 C1487 1.561 . S
C1485 C1488 1.526 . S
C1486 H1470 0.959 . S
C1486 H1471 0.959 . S
C1486 H1472 0.961 . S
C1486 C1485 1.502 . S
C1487 H1473 0.960 . S
C1487 H1474 0.961 . S
C1487 H1475 0.959 . S
C1487 C1485 1.561 . S
C1488 C1485 1.526 . S
C1488 C1489 1.396 . S
C1488 C1493 1.390 . S
C1489 C1483 1.465 1_545 S
C1489 C1488 1.396 . S
C1489 C1490 1.399 . S
C1490 H1476 0.925 1_545 S
C1490 C1489 1.399 . S
C1490 C1491 1.385 . S
C1491 H1477 0.931 . S
C1491 C1490 1.385 . S
C1491 C1492 1.389 . S
C1492 C1491 1.389 . S
C1492 C1493 1.387 . S
C1493 H1478 0.930 . S
C1493 C1488 1.390 . S
C1493 C1492 1.387 . S
H1494 C1506 0.930 . S
H1495 C1508 0.930 . S
H1496 C1509 0.930 . S
H1497 C1513 0.959 . S
H1498 C1513 0.959 . S
H1499 C1513 0.961 . S
H1500 C1514 0.960 1_655 S
H1501 C1514 0.961 . S
H1502 C1514 0.959 . S
H1503 C1517 0.929 . S
H1504 C1518 0.931 . S
H1505 C1520 0.930 . S
C1506 H1494 0.930 . S
C1506 C1507 1.399 . S
C1506 C1511 1.399 . S
C1507 C1506 1.399 . S
C1507 C1508 1.376 . S
C1508 H1495 0.930 . S
C1508 C1507 1.376 . S
C1508 C1509 1.388 . S
C1509 H1496 0.930 . S
C1509 C1508 1.388 . S
C1509 C1510 1.390 . S
C1510 C1509 1.390 . S
C1510 C1511 1.394 . S
C1510 C1516 1.465 1_655 S
C1511 C1506 1.399 . S
C1511 C1510 1.394 . S
C1511 C1512 1.516 . S
C1512 C1511 1.516 . S
C1512 C1513 1.502 . S
C1512 C1514 1.561 1_655 S
C1512 C1515 1.526 1_655 S
C1513 H1497 0.959 . S
C1513 H1498 0.959 . S
C1513 H1499 0.961 . S
C1513 C1512 1.502 . S
C1514 H1500 0.960 1_455 S
C1514 H1501 0.961 . S
C1514 H1502 0.959 . S
C1514 C1512 1.561 1_455 S
C1515 C1512 1.526 1_455 S
C1515 C1516 1.396 . S
C1515 C1520 1.390 . S
C1516 C1510 1.465 1_455 S
C1516 C1515 1.396 . S
C1516 C1517 1.399 . S
C1517 H1503 0.929 . S
C1517 C1516 1.399 . S
C1517 C1518 1.385 . S
C1518 H1504 0.931 . S
C1518 C1517 1.385 . S
C1518 C1519 1.389 . S
C1519 C1518 1.389 . S
C1519 C1520 1.387 . S
C1520 H1505 0.930 . S
C1520 C1515 1.390 . S
C1520 C1519 1.387 . S
H1521 C1533 0.930 . S
H1522 C1535 0.930 . S
H1523 C1536 0.930 . S
H1524 C1540 0.959 . S
H1525 C1540 0.959 . S
H1526 C1540 0.961 . S
H1527 C1541 0.960 . S
H1528 C1541 0.961 . S
H1529 C1541 0.959 . S
H1530 C1544 0.929 . S
H1531 C1545 0.931 . S
H1532 C1547 0.930 . S
C1533 H1521 0.930 . S
C1533 C1534 1.399 . S
C1533 C1538 1.399 . S
C1534 C1533 1.399 . S
C1534 C1535 1.376 . S
C1535 H1522 0.930 . S
C1535 C1534 1.376 . S
C1535 C1536 1.388 . S
C1536 H1523 0.930 . S
C1536 C1535 1.388 . S
C1536 C1537 1.390 . S
C1537 C1536 1.390 . S
C1537 C1538 1.394 . S
C1537 C1543 1.465 . S
C1538 C1533 1.399 . S
C1538 C1537 1.394 . S
C1538 C1539 1.516 . S
C1539 C1538 1.516 . S
C1539 C1540 1.502 . S
C1539 C1541 1.561 . S
C1539 C1542 1.526 . S
C1540 H1524 0.959 . S
C1540 H1525 0.959 . S
C1540 H1526 0.961 . S
C1540 C1539 1.502 . S
C1541 H1527 0.960 . S
C1541 H1528 0.961 . S
C1541 H1529 0.959 . S
C1541 C1539 1.561 . S
C1542 C1539 1.526 . S
C1542 C1543 1.396 . S
C1542 C1547 1.390 . S
C1543 C1537 1.465 . S
C1543 C1542 1.396 . S
C1543 C1544 1.399 . S
C1544 H1530 0.929 . S
C1544 C1543 1.399 . S
C1544 C1545 1.385 . S
C1545 H1531 0.931 . S
C1545 C1544 1.385 . S
C1545 C1546 1.389 . S
C1546 C1545 1.389 . S
C1546 C1547 1.387 . S
C1547 H1532 0.930 . S
C1547 C1542 1.390 . S
C1547 C1546 1.387 . S
H1548 C1560 0.930 . S
H1549 C1562 0.930 . S
H1550 C1563 0.930 1_565 S
H1551 C1567 0.959 . S
H1552 C1567 0.959 . S
H1553 C1567 0.961 . S
H1554 C1568 0.960 . S
H1555 C1568 0.961 . S
H1556 C1568 0.959 . S
H1557 C1571 0.929 . S
H1558 C1572 0.931 . S
H1559 C1574 0.930 . S
C1560 H1548 0.930 . S
C1560 C1561 1.399 . S
C1560 C1565 1.399 . S
C1561 C1560 1.399 . S
C1561 C1562 1.376 . S
C1562 H1549 0.930 . S
C1562 C1561 1.376 . S
C1562 C1563 1.388 . S
C1563 H1550 0.930 1_545 S
C1563 C1562 1.388 . S
C1563 C1564 1.390 . S
C1564 C1563 1.390 . S
C1564 C1565 1.394 . S
C1564 C1570 1.465 1_545 S
C1565 C1560 1.399 . S
C1565 C1564 1.394 . S
C1565 C1566 1.516 . S
C1566 C1565 1.516 . S
C1566 C1567 1.502 . S
C1566 C1568 1.561 . S
C1566 C1569 1.526 1_545 S
C1567 H1551 0.959 . S
C1567 H1552 0.959 . S
C1567 H1553 0.961 . S
C1567 C1566 1.502 . S
C1568 H1554 0.960 . S
C1568 H1555 0.961 . S
C1568 H1556 0.959 . S
C1568 C1566 1.561 . S
C1569 C1566 1.526 1_565 S
C1569 C1570 1.396 . S
C1569 C1574 1.390 . S
C1570 C1564 1.465 1_565 S
C1570 C1569 1.396 . S
C1570 C1571 1.399 . S
C1571 H1557 0.929 . S
C1571 C1570 1.399 . S
C1571 C1572 1.385 . S
C1572 H1558 0.931 . S
C1572 C1571 1.385 . S
C1572 C1573 1.389 . S
C1573 C1572 1.389 . S
C1573 C1574 1.387 . S
C1574 H1559 0.930 . S
C1574 C1569 1.390 . S
C1574 C1573 1.387 . S
H1575 C1587 0.930 . S
H1576 C1589 0.930 . S
H1577 C1590 0.930 . S
H1578 C1594 0.959 1_655 S
H1579 C1594 0.959 . S
H1580 C1594 0.961 1_655 S
H1581 C1595 0.960 . S
H1582 C1595 0.961 . S
H1583 C1595 0.959 . S
H1584 C1598 0.929 . S
H1585 C1599 0.931 . S
H1586 C1601 0.930 . S
C1587 H1575 0.930 . S
C1587 C1588 1.399 . S
C1587 C1592 1.399 . S
C1588 C1587 1.399 . S
C1588 C1589 1.376 . S
C1589 H1576 0.930 . S
C1589 C1588 1.376 . S
C1589 C1590 1.388 . S
C1590 H1577 0.930 . S
C1590 C1589 1.388 . S
C1590 C1591 1.390 . S
C1591 C1590 1.390 . S
C1591 C1592 1.394 . S
C1591 C1597 1.465 1_655 S
C1592 C1587 1.399 . S
C1592 C1591 1.394 . S
C1592 C1593 1.516 1_655 S
C1593 C1592 1.516 1_455 S
C1593 C1594 1.502 . S
C1593 C1595 1.561 . S
C1593 C1596 1.526 . S
C1594 H1578 0.959 1_455 S
C1594 H1579 0.959 . S
C1594 H1580 0.961 1_455 S
C1594 C1593 1.502 . S
C1595 H1581 0.960 . S
C1595 H1582 0.961 . S
C1595 H1583 0.959 . S
C1595 C1593 1.561 . S
C1596 C1593 1.526 . S
C1596 C1597 1.396 . S
C1596 C1601 1.390 . S
C1597 C1591 1.465 1_455 S
C1597 C1596 1.396 . S
C1597 C1598 1.399 . S
C1598 H1584 0.929 . S
C1598 C1597 1.399 . S
C1598 C1599 1.385 . S
C1599 H1585 0.931 . S
C1599 C1598 1.385 . S
C1599 C1600 1.389 . S
C1600 C1599 1.389 . S
C1600 C1601 1.387 . S
C1601 H1586 0.930 . S
C1601 C1596 1.390 . S
C1601 C1600 1.387 . S
H1602 C1614 0.930 . S
H1603 C1616 0.930 . S
H1604 C1617 0.930 . S
H1605 C1621 0.959 . S
H1606 C1621 0.959 . S
H1607 C1621 0.961 . S
H1608 C1622 0.960 . S
H1609 C1622 0.961 . S
H1610 C1622 0.959 . S
H1611 C1625 0.929 . S
H1612 C1626 0.931 . S
H1613 C1628 0.930 . S
C1614 H1602 0.930 . S
C1614 C1615 1.399 . S
C1614 C1619 1.399 . S
C1615 C1614 1.399 . S
C1615 C1616 1.376 . S
C1616 H1603 0.930 . S
C1616 C1615 1.376 . S
C1616 C1617 1.388 . S
C1617 H1604 0.930 . S
C1617 C1616 1.388 . S
C1617 C1618 1.390 . S
C1618 C1617 1.390 . S
C1618 C1619 1.394 . S
C1618 C1624 1.465 . S
C1619 C1614 1.399 . S
C1619 C1618 1.394 . S
C1619 C1620 1.516 . S
C1620 C1619 1.516 . S
C1620 C1621 1.502 . S
C1620 C1622 1.561 . S
C1620 C1623 1.526 . S
C1621 H1605 0.959 . S
C1621 H1606 0.959 . S
C1621 H1607 0.961 . S
C1621 C1620 1.502 . S
C1622 H1608 0.960 . S
C1622 H1609 0.961 . S
C1622 H1610 0.959 . S
C1622 C1620 1.561 . S
C1623 C1620 1.526 . S
C1623 C1624 1.396 . S
C1623 C1628 1.390 . S
C1624 C1618 1.465 . S
C1624 C1623 1.396 . S
C1624 C1625 1.399 . S
C1625 H1611 0.929 . S
C1625 C1624 1.399 . S
C1625 C1626 1.385 . S
C1626 H1612 0.931 . S
C1626 C1625 1.385 . S
C1626 C1627 1.389 . S
C1627 C1626 1.389 . S
C1627 C1628 1.387 . S
C1628 H1613 0.930 . S
C1628 C1623 1.390 . S
C1628 C1627 1.387 . S
H1629 C1641 0.930 . S
H1630 C1643 0.930 . S
H1631 C1644 0.930 . S
H1632 C1648 0.959 . S
H1633 C1648 0.959 . S
H1634 C1648 0.961 . S
H1635 C1649 0.960 . S
H1636 C1649 0.961 . S
H1637 C1649 0.959 . S
H1638 C1652 0.929 . S
H1639 C1653 0.931 . S
H1640 C1655 0.930 . S
C1641 H1629 0.930 . S
C1641 C1642 1.399 . S
C1641 C1646 1.399 . S
C1642 C1641 1.399 . S
C1642 C1643 1.376 . S
C1643 H1630 0.930 . S
C1643 C1642 1.376 . S
C1643 C1644 1.388 . S
C1644 H1631 0.930 . S
C1644 C1643 1.388 . S
C1644 C1645 1.390 . S
C1645 C1644 1.390 . S
C1645 C1646 1.394 . S
C1645 C1651 1.465 . S
C1646 C1641 1.399 . S
C1646 C1645 1.394 . S
C1646 C1647 1.516 . S
C1647 C1646 1.516 . S
C1647 C1648 1.502 . S
C1647 C1649 1.561 . S
C1647 C1650 1.526 . S
C1648 H1632 0.959 . S
C1648 H1633 0.959 . S
C1648 H1634 0.961 . S
C1648 C1647 1.502 . S
C1649 H1635 0.960 . S
C1649 H1636 0.961 . S
C1649 H1637 0.959 . S
C1649 C1647 1.561 . S
C1650 C1647 1.526 . S
C1650 C1651 1.396 . S
C1650 C1655 1.390 . S
C1651 C1645 1.465 . S
C1651 C1650 1.396 . S
C1651 C1652 1.399 . S
C1652 H1638 0.929 . S
C1652 C1651 1.399 . S
C1652 C1653 1.385 . S
C1653 H1639 0.931 . S
C1653 C1652 1.385 . S
C1653 C1654 1.389 . S
C1654 C1653 1.389 . S
C1654 C1655 1.387 . S
C1655 H1640 0.930 . S
C1655 C1650 1.390 . S
C1655 C1654 1.387 . S
H1656 C1668 0.930 . S
H1657 C1670 0.930 . S
H1658 C1671 0.930 . S
H1659 C1675 0.959 . S
H1660 C1675 0.959 . S
H1661 C1675 0.961 . S
H1662 C1676 0.960 . S
H1663 C1676 0.961 . S
H1664 C1676 0.959 . S
H1665 C1679 0.929 . S
H1666 C1680 0.931 . S
H1667 C1682 0.930 . S
C1668 H1656 0.930 . S
C1668 C1669 1.399 . S
C1668 C1673 1.399 . S
C1669 C1668 1.399 . S
C1669 C1670 1.376 . S
C1670 H1657 0.930 . S
C1670 C1669 1.376 . S
C1670 C1671 1.388 . S
C1671 H1658 0.930 . S
C1671 C1670 1.388 . S
C1671 C1672 1.390 . S
C1672 C1671 1.390 . S
C1672 C1673 1.394 . S
C1672 C1678 1.465 . S
C1673 C1668 1.399 . S
C1673 C1672 1.394 . S
C1673 C1674 1.516 . S
C1674 C1673 1.516 . S
C1674 C1675 1.502 . S
C1674 C1676 1.561 . S
C1674 C1677 1.526 . S
C1675 H1659 0.959 . S
C1675 H1660 0.959 . S
C1675 H1661 0.961 . S
C1675 C1674 1.502 . S
C1676 H1662 0.960 . S
C1676 H1663 0.961 . S
C1676 H1664 0.959 . S
C1676 C1674 1.561 . S
C1677 C1674 1.526 . S
C1677 C1678 1.396 . S
C1677 C1682 1.390 . S
C1678 C1672 1.465 . S
C1678 C1677 1.396 . S
C1678 C1679 1.399 . S
C1679 H1665 0.929 . S
C1679 C1678 1.399 . S
C1679 C1680 1.385 . S
C1680 H1666 0.931 . S
C1680 C1679 1.385 . S
C1680 C1681 1.389 . S
C1681 C1680 1.389 . S
C1681 C1682 1.387 . S
C1682 H1667 0.930 . S
C1682 C1677 1.390 . S
C1682 C1681 1.387 . S
H1683 C1695 0.930 . S
H1684 C1697 0.930 . S
H1685 C1698 0.930 . S
H1686 C1702 0.959 . S
H1687 C1702 0.959 . S
H1688 C1702 0.961 . S
H1689 C1703 0.960 . S
H1690 C1703 0.961 . S
H1691 C1703 0.959 . S
H1692 C1706 0.929 . S
H1693 C1707 0.931 . S
H1694 C1709 0.930 . S
C1695 H1683 0.930 . S
C1695 C1696 1.399 . S
C1695 C1700 1.399 . S
C1696 C1695 1.399 . S
C1696 C1697 1.376 . S
C1697 H1684 0.930 . S
C1697 C1696 1.376 . S
C1697 C1698 1.388 . S
C1698 H1685 0.930 . S
C1698 C1697 1.388 . S
C1698 C1699 1.390 . S
C1699 C1698 1.390 . S
C1699 C1700 1.394 . S
C1699 C1705 1.465 . S
C1700 C1695 1.399 . S
C1700 C1699 1.394 . S
C1700 C1701 1.516 . S
C1701 C1700 1.516 . S
C1701 C1702 1.502 . S
C1701 C1703 1.561 . S
C1701 C1704 1.526 . S
C1702 H1686 0.959 . S
C1702 H1687 0.959 . S
C1702 H1688 0.961 . S
C1702 C1701 1.502 . S
C1703 H1689 0.960 . S
C1703 H1690 0.961 . S
C1703 H1691 0.959 . S
C1703 C1701 1.561 . S
C1704 C1701 1.526 . S
C1704 C1705 1.396 . S
C1704 C1709 1.390 . S
C1705 C1699 1.465 . S
C1705 C1704 1.396 . S
C1705 C1706 1.399 . S
C1706 H1692 0.929 . S
C1706 C1705 1.399 . S
C1706 C1707 1.385 . S
C1707 H1693 0.931 . S
C1707 C1706 1.385 . S
C1707 C1708 1.389 . S
C1708 C1707 1.389 . S
C1708 C1709 1.387 . S
C1709 H1694 0.930 . S
C1709 C1704 1.390 . S
C1709 C1708 1.387 . S
H1710 C1722 0.930 . S
H1711 C1724 0.930 . S
H1712 C1725 0.930 . S
H1713 C1729 0.959 . S
H1714 C1729 0.959 . S
H1715 C1729 0.961 . S
H1716 C1730 0.960 . S
H1717 C1730 0.961 . S
H1718 C1730 0.959 . S
H1719 C1733 0.929 . S
H1720 C1734 0.931 . S
H1721 C1736 0.930 . S
C1722 H1710 0.930 . S
C1722 C1723 1.399 . S
C1722 C1727 1.399 . S
C1723 C1722 1.399 . S
C1723 C1724 1.376 . S
C1724 H1711 0.930 . S
C1724 C1723 1.376 . S
C1724 C1725 1.388 . S
C1725 H1712 0.930 . S
C1725 C1724 1.388 . S
C1725 C1726 1.390 . S
C1726 C1725 1.390 . S
C1726 C1727 1.394 . S
C1726 C1732 1.465 . S
C1727 C1722 1.399 . S
C1727 C1726 1.394 . S
C1727 C1728 1.516 . S
C1728 C1727 1.516 . S
C1728 C1729 1.502 . S
C1728 C1730 1.561 . S
C1728 C1731 1.526 . S
C1729 H1713 0.959 . S
C1729 H1714 0.959 . S
C1729 H1715 0.961 . S
C1729 C1728 1.502 . S
C1730 H1716 0.960 . S
C1730 H1717 0.961 . S
C1730 H1718 0.959 . S
C1730 C1728 1.561 . S
C1731 C1728 1.526 . S
C1731 C1732 1.396 . S
C1731 C1736 1.390 . S
C1732 C1726 1.465 . S
C1732 C1731 1.396 . S
C1732 C1733 1.399 . S
C1733 H1719 0.929 . S
C1733 C1732 1.399 . S
C1733 C1734 1.385 . S
C1734 H1720 0.931 . S
C1734 C1733 1.385 . S
C1734 C1735 1.389 . S
C1735 C1734 1.389 . S
C1735 C1736 1.387 . S
C1736 H1721 0.930 . S
C1736 C1731 1.390 . S
C1736 C1735 1.387 . S
H1737 C1749 0.930 . S
H1738 C1751 0.930 . S
H1739 C1752 0.930 . S
H1740 C1756 0.959 . S
H1741 C1756 0.959 . S
H1742 C1756 0.961 . S
H1743 C1757 0.960 . S
H1744 C1757 0.961 . S
H1745 C1757 0.959 . S
H1746 C1760 0.929 . S
H1747 C1761 0.931 . S
H1748 C1763 0.930 . S
C1749 H1737 0.930 . S
C1749 C1750 1.399 . S
C1749 C1754 1.399 . S
C1750 C1749 1.399 . S
C1750 C1751 1.376 . S
C1751 H1738 0.930 . S
C1751 C1750 1.376 . S
C1751 C1752 1.388 . S
C1752 H1739 0.930 . S
C1752 C1751 1.388 . S
C1752 C1753 1.390 . S
C1753 C1752 1.390 . S
C1753 C1754 1.394 . S
C1753 C1759 1.465 . S
C1754 C1749 1.399 . S
C1754 C1753 1.394 . S
C1754 C1755 1.516 . S
C1755 C1754 1.516 . S
C1755 C1756 1.502 . S
C1755 C1757 1.561 . S
C1755 C1758 1.526 . S
C1756 H1740 0.959 . S
C1756 H1741 0.959 . S
C1756 H1742 0.961 . S
C1756 C1755 1.502 . S
C1757 H1743 0.960 . S
C1757 H1744 0.961 . S
C1757 H1745 0.959 . S
C1757 C1755 1.561 . S
C1758 C1755 1.526 . S
C1758 C1759 1.396 . S
C1758 C1763 1.390 . S
C1759 C1753 1.465 . S
C1759 C1758 1.396 . S
C1759 C1760 1.399 . S
C1760 H1746 0.929 . S
C1760 C1759 1.399 . S
C1760 C1761 1.385 . S
C1761 H1747 0.931 . S
C1761 C1760 1.385 . S
C1761 C1762 1.389 . S
C1762 C1761 1.389 . S
C1762 C1763 1.387 . S
C1763 H1748 0.930 . S
C1763 C1758 1.390 . S
C1763 C1762 1.387 . S
H1764 C1776 0.930 . S
H1765 C1778 0.930 . S
H1766 C1779 0.930 . S
H1767 C1783 0.959 . S
H1768 C1783 0.959 . S
H1769 C1783 0.961 . S
H1770 C1784 0.960 . S
H1771 C1784 0.961 . S
H1772 C1784 0.959 . S
H1773 C1787 0.929 . S
H1774 C1788 0.931 . S
H1775 C1790 0.930 . S
C1776 H1764 0.930 . S
C1776 C1777 1.399 . S
C1776 C1781 1.399 . S
C1777 C1776 1.399 . S
C1777 C1778 1.376 . S
C1778 H1765 0.930 . S
C1778 C1777 1.376 . S
C1778 C1779 1.388 . S
C1779 H1766 0.930 . S
C1779 C1778 1.388 . S
C1779 C1780 1.390 . S
C1780 C1779 1.390 . S
C1780 C1781 1.394 . S
C1780 C1786 1.465 . S
C1781 C1776 1.399 . S
C1781 C1780 1.394 . S
C1781 C1782 1.516 . S
C1782 C1781 1.516 . S
C1782 C1783 1.502 . S
C1782 C1784 1.561 . S
C1782 C1785 1.526 . S
C1783 H1767 0.959 . S
C1783 H1768 0.959 . S
C1783 H1769 0.961 . S
C1783 C1782 1.502 . S
C1784 H1770 0.960 . S
C1784 H1771 0.961 . S
C1784 H1772 0.959 . S
C1784 C1782 1.561 . S
C1785 C1782 1.526 . S
C1785 C1786 1.396 . S
C1785 C1790 1.390 . S
C1786 C1780 1.465 . S
C1786 C1785 1.396 . S
C1786 C1787 1.399 . S
C1787 H1773 0.929 . S
C1787 C1786 1.399 . S
C1787 C1788 1.385 . S
C1788 H1774 0.931 . S
C1788 C1787 1.385 . S
C1788 C1789 1.389 . S
C1789 C1788 1.389 . S
C1789 C1790 1.387 . S
C1790 H1775 0.930 . S
C1790 C1785 1.390 . S
C1790 C1789 1.387 . S
H1791 C1803 0.930 . S
H1792 C1805 0.930 . S
H1793 C1806 0.930 . S
H1794 C1810 0.959 . S
H1795 C1810 0.959 . S
H1796 C1810 0.961 . S
H1797 C1811 0.960 . S
H1798 C1811 0.961 . S
H1799 C1811 0.959 . S
H1800 C1814 0.929 . S
H1801 C1815 0.931 1_554 S
H1802 C1817 0.930 . S
C1803 H1791 0.930 . S
C1803 C1804 1.399 . S
C1803 C1808 1.399 . S
C1804 C1803 1.399 . S
C1804 C1805 1.376 . S
C1805 H1792 0.930 . S
C1805 C1804 1.376 . S
C1805 C1806 1.388 . S
C1806 H1793 0.930 . S
C1806 C1805 1.388 . S
C1806 C1807 1.390 . S
C1807 C1806 1.390 . S
C1807 C1808 1.394 . S
C1807 C1813 1.465 . S
C1808 C1803 1.399 . S
C1808 C1807 1.394 . S
C1808 C1809 1.516 . S
C1809 C1808 1.516 . S
C1809 C1810 1.502 . S
C1809 C1811 1.561 . S
C1809 C1812 1.526 . S
C1810 H1794 0.959 . S
C1810 H1795 0.959 . S
C1810 H1796 0.961 . S
C1810 C1809 1.502 . S
C1811 H1797 0.960 . S
C1811 H1798 0.961 . S
C1811 H1799 0.959 . S
C1811 C1809 1.561 . S
C1812 C1809 1.526 . S
C1812 C1813 1.396 . S
C1812 C1817 1.390 . S
C1813 C1807 1.465 . S
C1813 C1812 1.396 . S
C1813 C1814 1.399 . S
C1814 H1800 0.929 . S
C1814 C1813 1.399 . S
C1814 C1815 1.385 . S
C1815 H1801 0.931 1_556 S
C1815 C1814 1.385 . S
C1815 C1816 1.389 . S
C1816 C1815 1.389 . S
C1816 C1817 1.387 . S
C1817 H1802 0.930 . S
C1817 C1812 1.390 . S
C1817 C1816 1.387 . S
H1818 C1830 0.930 . S
H1819 C1832 0.930 1_554 S
H1820 C1833 0.930 . S
H1821 C1837 0.959 . S
H1822 C1837 0.959 . S
H1823 C1837 0.961 . S
H1824 C1838 0.960 . S
H1825 C1838 0.961 . S
H1826 C1838 0.959 . S
H1827 C1841 0.929 . S
H1828 C1842 0.931 . S
H1829 C1844 0.930 . S
C1830 H1818 0.930 . S
C1830 C1831 1.399 . S
C1830 C1835 1.399 . S
C1831 C1830 1.399 . S
C1831 C1832 1.376 . S
C1832 H1819 0.930 1_556 S
C1832 C1831 1.376 . S
C1832 C1833 1.388 . S
C1833 H1820 0.930 . S
C1833 C1832 1.388 . S
C1833 C1834 1.390 . S
C1834 C1833 1.390 . S
C1834 C1835 1.394 . S
C1834 C1840 1.465 . S
C1835 C1830 1.399 . S
C1835 C1834 1.394 . S
C1835 C1836 1.516 . S
C1836 C1835 1.516 . S
C1836 C1837 1.502 . S
C1836 C1838 1.561 . S
C1836 C1839 1.526 . S
C1837 H1821 0.959 . S
C1837 H1822 0.959 . S
C1837 H1823 0.961 . S
C1837 C1836 1.502 . S
C1838 H1824 0.960 . S
C1838 H1825 0.961 . S
C1838 H1826 0.959 . S
C1838 C1836 1.561 . S
C1839 C1836 1.526 . S
C1839 C1840 1.396 . S
C1839 C1844 1.390 . S
C1840 C1834 1.465 . S
C1840 C1839 1.396 . S
C1840 C1841 1.399 . S
C1841 H1827 0.929 . S
C1841 C1840 1.399 . S
C1841 C1842 1.385 . S
C1842 H1828 0.931 . S
C1842 C1841 1.385 . S
C1842 C1843 1.389 . S
C1843 C1842 1.389 . S
C1843 C1844 1.387 . S
C1844 H1829 0.930 . S
C1844 C1839 1.390 . S
C1844 C1843 1.387 . S
H1845 C1857 0.930 . S
H1846 C1859 0.930 . S
H1847 C1860 0.930 . S
H1848 C1864 0.959 . S
H1849 C1864 0.959 . S
H1850 C1864 0.961 . S
H1851 C1865 0.960 . S
H1852 C1865 0.961 . S
H1853 C1865 0.959 . S
H1854 C1868 0.929 . S
H1855 C1869 0.931 . S
H1856 C1871 0.930 . S
C1857 H1845 0.930 . S
C1857 C1858 1.399 . S
C1857 C1862 1.399 . S
C1858 C1857 1.399 . S
C1858 C1859 1.376 . S
C1859 H1846 0.930 . S
C1859 C1858 1.376 . S
C1859 C1860 1.388 . S
C1860 H1847 0.930 . S
C1860 C1859 1.388 . S
C1860 C1861 1.390 . S
C1861 C1860 1.390 . S
C1861 C1862 1.394 . S
C1861 C1867 1.465 . S
C1862 C1857 1.399 . S
C1862 C1861 1.394 . S
C1862 C1863 1.516 . S
C1863 C1862 1.516 . S
C1863 C1864 1.502 . S
C1863 C1865 1.561 . S
C1863 C1866 1.526 . S
C1864 H1848 0.959 . S
C1864 H1849 0.959 . S
C1864 H1850 0.961 . S
C1864 C1863 1.502 . S
C1865 H1851 0.960 . S
C1865 H1852 0.961 . S
C1865 H1853 0.959 . S
C1865 C1863 1.561 . S
C1866 C1863 1.526 . S
C1866 C1867 1.396 . S
C1866 C1871 1.390 . S
C1867 C1861 1.465 . S
C1867 C1866 1.396 . S
C1867 C1868 1.399 . S
C1868 H1854 0.929 . S
C1868 C1867 1.399 . S
C1868 C1869 1.385 . S
C1869 H1855 0.931 . S
C1869 C1868 1.385 . S
C1869 C1870 1.389 . S
C1870 C1869 1.389 . S
C1870 C1871 1.387 . S
C1871 H1856 0.930 . S
C1871 C1866 1.390 . S
C1871 C1870 1.387 . S
H1872 C1884 0.930 . S
H1873 C1886 0.930 . S
H1874 C1887 0.930 . S
H1875 C1891 0.959 . S
H1876 C1891 0.959 . S
H1877 C1891 0.961 . S
H1878 C1892 0.960 . S
H1879 C1892 0.961 . S
H1880 C1892 0.959 . S
H1881 C1895 0.929 . S
H1882 C1896 0.931 . S
H1883 C1898 0.930 . S
C1884 H1872 0.930 . S
C1884 C1885 1.399 . S
C1884 C1889 1.399 . S
C1885 C1884 1.399 . S
C1885 C1886 1.376 . S
C1886 H1873 0.930 . S
C1886 C1885 1.376 . S
C1886 C1887 1.388 . S
C1887 H1874 0.930 . S
C1887 C1886 1.388 . S
C1887 C1888 1.390 . S
C1888 C1887 1.390 . S
C1888 C1889 1.394 . S
C1888 C1894 1.465 . S
C1889 C1884 1.399 . S
C1889 C1888 1.394 . S
C1889 C1890 1.516 . S
C1890 C1889 1.516 . S
C1890 C1891 1.502 . S
C1890 C1892 1.561 . S
C1890 C1893 1.526 . S
C1891 H1875 0.959 . S
C1891 H1876 0.959 . S
C1891 H1877 0.961 . S
C1891 C1890 1.502 . S
C1892 H1878 0.960 . S
C1892 H1879 0.961 . S
C1892 H1880 0.959 . S
C1892 C1890 1.561 . S
C1893 C1890 1.526 . S
C1893 C1894 1.396 . S
C1893 C1898 1.390 . S
C1894 C1888 1.465 . S
C1894 C1893 1.396 . S
C1894 C1895 1.399 . S
C1895 H1881 0.929 . S
C1895 C1894 1.399 . S
C1895 C1896 1.385 . S
C1896 H1882 0.931 . S
C1896 C1895 1.385 . S
C1896 C1897 1.389 . S
C1897 C1896 1.389 . S
C1897 C1898 1.387 . S
C1898 H1883 0.930 . S
C1898 C1893 1.390 . S
C1898 C1897 1.387 . S
H1899 C1911 0.930 . S
H1900 C1913 0.930 . S
H1901 C1914 0.930 . S
H1902 C1918 0.959 . S
H1903 C1918 0.959 . S
H1904 C1918 0.961 . S
H1905 C1919 0.960 . S
H1906 C1919 0.961 . S
H1907 C1919 0.959 . S
H1908 C1922 0.929 . S
H1909 C1923 0.931 . S
H1910 C1925 0.930 . S
C1911 H1899 0.930 . S
C1911 C1912 1.399 . S
C1911 C1916 1.399 . S
C1912 C1911 1.399 . S
C1912 C1913 1.376 . S
C1913 H1900 0.930 . S
C1913 C1912 1.376 . S
C1913 C1914 1.388 . S
C1914 H1901 0.930 . S
C1914 C1913 1.388 . S
C1914 C1915 1.390 . S
C1915 C1914 1.390 . S
C1915 C1916 1.394 . S
C1915 C1921 1.465 . S
C1916 C1911 1.399 . S
C1916 C1915 1.394 . S
C1916 C1917 1.516 . S
C1917 C1916 1.516 . S
C1917 C1918 1.502 . S
C1917 C1919 1.561 . S
C1917 C1920 1.526 . S
C1918 H1902 0.959 . S
C1918 H1903 0.959 . S
C1918 H1904 0.961 . S
C1918 C1917 1.502 . S
C1919 H1905 0.960 . S
C1919 H1906 0.961 . S
C1919 H1907 0.959 . S
C1919 C1917 1.561 . S
C1920 C1917 1.526 . S
C1920 C1921 1.396 . S
C1920 C1925 1.390 . S
C1921 C1915 1.465 . S
C1921 C1920 1.396 . S
C1921 C1922 1.399 . S
C1922 H1908 0.929 . S
C1922 C1921 1.399 . S
C1922 C1923 1.385 . S
C1923 H1909 0.931 . S
C1923 C1922 1.385 . S
C1923 C1924 1.389 . S
C1924 C1923 1.389 . S
C1924 C1925 1.387 . S
C1925 H1910 0.930 . S
C1925 C1920 1.390 . S
C1925 C1924 1.387 . S
H1926 C1938 0.930 . S
H1927 C1940 0.930 . S
H1928 C1941 0.930 . S
H1929 C1945 0.959 . S
H1930 C1945 0.959 . S
H1931 C1945 0.961 . S
H1932 C1946 0.960 . S
H1933 C1946 0.961 . S
H1934 C1946 0.959 . S
H1935 C1949 0.929 . S
H1936 C1950 0.931 . S
H1937 C1952 0.930 . S
C1938 H1926 0.930 . S
C1938 C1939 1.399 . S
C1938 C1943 1.399 . S
C1939 C1938 1.399 . S
C1939 C1940 1.376 . S
C1940 H1927 0.930 . S
C1940 C1939 1.376 . S
C1940 C1941 1.388 . S
C1941 H1928 0.930 . S
C1941 C1940 1.388 . S
C1941 C1942 1.390 . S
C1942 C1941 1.390 . S
C1942 C1943 1.394 . S
C1942 C1948 1.465 . S
C1943 C1938 1.399 . S
C1943 C1942 1.394 . S
C1943 C1944 1.516 . S
C1944 C1943 1.516 . S
C1944 C1945 1.502 . S
C1944 C1946 1.561 . S
C1944 C1947 1.526 . S
C1945 H1929 0.959 . S
C1945 H1930 0.959 . S
C1945 H1931 0.961 . S
C1945 C1944 1.502 . S
C1946 H1932 0.960 . S
C1946 H1933 0.961 . S
C1946 H1934 0.959 . S
C1946 C1944 1.561 . S
C1947 C1944 1.526 . S
C1947 C1948 1.396 . S
C1947 C1952 1.390 . S
C1948 C1942 1.465 . S
C1948 C1947 1.396 . S
C1948 C1949 1.399 . S
C1949 H1935 0.929 . S
C1949 C1948 1.399 . S
C1949 C1950 1.385 . S
C1950 H1936 0.931 . S
C1950 C1949 1.385 . S
C1950 C1951 1.389 . S
C1951 C1950 1.389 . S
C1951 C1952 1.387 . S
C1952 H1937 0.930 . S
C1952 C1947 1.390 . S
C1952 C1951 1.387 . S
H1953 C1965 0.930 . S
H1954 C1967 0.930 . S
H1955 C1968 0.930 . S
H1956 C1972 0.959 . S
H1957 C1972 0.959 . S
H1958 C1972 0.961 . S
H1959 C1973 0.960 . S
H1960 C1973 0.961 . S
H1961 C1973 0.959 . S
H1962 C1976 0.929 . S
H1963 C1977 0.931 . S
H1964 C1979 0.930 . S
C1965 H1953 0.930 . S
C1965 C1966 1.399 . S
C1965 C1970 1.399 . S
C1966 C1965 1.399 . S
C1966 C1967 1.376 . S
C1967 H1954 0.930 . S
C1967 C1966 1.376 . S
C1967 C1968 1.388 . S
C1968 H1955 0.930 . S
C1968 C1967 1.388 . S
C1968 C1969 1.390 . S
C1969 C1968 1.390 . S
C1969 C1970 1.394 . S
C1969 C1975 1.465 . S
C1970 C1965 1.399 . S
C1970 C1969 1.394 . S
C1970 C1971 1.516 . S
C1971 C1970 1.516 . S
C1971 C1972 1.502 . S
C1971 C1973 1.561 . S
C1971 C1974 1.526 . S
C1972 H1956 0.959 . S
C1972 H1957 0.959 . S
C1972 H1958 0.961 . S
C1972 C1971 1.502 . S
C1973 H1959 0.960 . S
C1973 H1960 0.961 . S
C1973 H1961 0.959 . S
C1973 C1971 1.561 . S
C1974 C1971 1.526 . S
C1974 C1975 1.396 . S
C1974 C1979 1.390 . S
C1975 C1969 1.465 . S
C1975 C1974 1.396 . S
C1975 C1976 1.399 . S
C1976 H1962 0.929 . S
C1976 C1975 1.399 . S
C1976 C1977 1.385 . S
C1977 H1963 0.931 . S
C1977 C1976 1.385 . S
C1977 C1978 1.389 . S
C1978 C1977 1.389 . S
C1978 C1979 1.387 . S
C1979 H1964 0.930 . S
C1979 C1974 1.390 . S
C1979 C1978 1.387 . S
H1980 C1992 0.930 . S
H1981 C1994 0.930 . S
H1982 C1995 0.930 . S
H1983 C1999 0.959 . S
H1984 C1999 0.959 . S
H1985 C1999 0.961 . S
H1986 C2000 0.960 . S
H1987 C2000 0.961 . S
H1988 C2000 0.959 . S
H1989 C2003 0.929 . S
H1990 C2004 0.931 . S
H1991 C2006 0.930 . S
C1992 H1980 0.930 . S
C1992 C1993 1.399 . S
C1992 C1997 1.399 . S
C1993 C1992 1.399 . S
C1993 C1994 1.376 . S
C1994 H1981 0.930 . S
C1994 C1993 1.376 . S
C1994 C1995 1.388 . S
C1995 H1982 0.930 . S
C1995 C1994 1.388 . S
C1995 C1996 1.390 . S
C1996 C1995 1.390 . S
C1996 C1997 1.394 . S
C1996 C2002 1.465 . S
C1997 C1992 1.399 . S
C1997 C1996 1.394 . S
C1997 C1998 1.516 . S
C1998 C1997 1.516 . S
C1998 C1999 1.502 . S
C1998 C2000 1.561 . S
C1998 C2001 1.526 . S
C1999 H1983 0.959 . S
C1999 H1984 0.959 . S
C1999 H1985 0.961 . S
C1999 C1998 1.502 . S
C2000 H1986 0.960 . S
C2000 H1987 0.961 . S
C2000 H1988 0.959 . S
C2000 C1998 1.561 . S
C2001 C1998 1.526 . S
C2001 C2002 1.396 . S
C2001 C2006 1.390 . S
C2002 C1996 1.465 . S
C2002 C2001 1.396 . S
C2002 C2003 1.399 . S
C2003 H1989 0.929 . S
C2003 C2002 1.399 . S
C2003 C2004 1.385 . S
C2004 H1990 0.931 . S
C2004 C2003 1.385 . S
C2004 C2005 1.389 . S
C2005 C2004 1.389 . S
C2005 C2006 1.387 . S
C2006 H1991 0.930 . S
C2006 C2001 1.390 . S
C2006 C2005 1.387 . S
H2007 C2019 0.930 . S
H2008 C2021 0.930 . S
H2009 C2022 0.930 . S
H2010 C2026 0.959 . S
H2011 C2026 0.959 . S
H2012 C2026 0.961 . S
H2013 C2027 0.960 . S
H2014 C2027 0.961 . S
H2015 C2027 0.959 . S
H2016 C2030 0.929 . S
H2017 C2031 0.931 . S
H2018 C2033 0.930 . S
C2019 H2007 0.930 . S
C2019 C2020 1.399 . S
C2019 C2024 1.399 . S
C2020 C2019 1.399 . S
C2020 C2021 1.376 . S
C2021 H2008 0.930 . S
C2021 C2020 1.376 . S
C2021 C2022 1.388 . S
C2022 H2009 0.930 . S
C2022 C2021 1.388 . S
C2022 C2023 1.390 . S
C2023 C2022 1.390 . S
C2023 C2024 1.394 . S
C2023 C2029 1.465 . S
C2024 C2019 1.399 . S
C2024 C2023 1.394 . S
C2024 C2025 1.516 . S
C2025 C2024 1.516 . S
C2025 C2026 1.502 . S
C2025 C2027 1.561 . S
C2025 C2028 1.526 . S
C2026 H2010 0.959 . S
C2026 H2011 0.959 . S
C2026 H2012 0.961 . S
C2026 C2025 1.502 . S
C2027 H2013 0.960 . S
C2027 H2014 0.961 . S
C2027 H2015 0.959 . S
C2027 C2025 1.561 . S
C2028 C2025 1.526 . S
C2028 C2029 1.396 . S
C2028 C2033 1.390 . S
C2029 C2023 1.465 . S
C2029 C2028 1.396 . S
C2029 C2030 1.399 . S
C2030 H2016 0.929 . S
C2030 C2029 1.399 . S
C2030 C2031 1.385 . S
C2031 H2017 0.931 . S
C2031 C2030 1.385 . S
C2031 C2032 1.389 . S
C2032 C2031 1.389 . S
C2032 C2033 1.387 . S
C2033 H2018 0.930 . S
C2033 C2028 1.390 . S
C2033 C2032 1.387 . S
H2034 C2046 0.930 . S
H2035 C2048 0.930 . S
H2036 C2049 0.930 . S
H2037 C2053 0.959 . S
H2038 C2053 0.959 . S
H2039 C2053 0.961 . S
H2040 C2054 0.960 . S
H2041 C2054 0.961 . S
H2042 C2054 0.959 . S
H2043 C2057 0.929 . S
H2044 C2058 0.931 . S
H2045 C2060 0.930 . S
C2046 H2034 0.930 . S
C2046 C2047 1.399 . S
C2046 C2051 1.399 . S
C2047 C2046 1.399 . S
C2047 C2048 1.376 . S
C2048 H2035 0.930 . S
C2048 C2047 1.376 . S
C2048 C2049 1.388 . S
C2049 H2036 0.930 . S
C2049 C2048 1.388 . S
C2049 C2050 1.390 . S
C2050 C2049 1.390 . S
C2050 C2051 1.394 . S
C2050 C2056 1.465 . S
C2051 C2046 1.399 . S
C2051 C2050 1.394 . S
C2051 C2052 1.516 . S
C2052 C2051 1.516 . S
C2052 C2053 1.502 . S
C2052 C2054 1.561 . S
C2052 C2055 1.526 . S
C2053 H2037 0.959 . S
C2053 H2038 0.959 . S
C2053 H2039 0.961 . S
C2053 C2052 1.502 . S
C2054 H2040 0.960 . S
C2054 H2041 0.961 . S
C2054 H2042 0.959 . S
C2054 C2052 1.561 . S
C2055 C2052 1.526 . S
C2055 C2056 1.396 . S
C2055 C2060 1.390 . S
C2056 C2050 1.465 . S
C2056 C2055 1.396 . S
C2056 C2057 1.399 . S
C2057 H2043 0.929 . S
C2057 C2056 1.399 . S
C2057 C2058 1.385 . S
C2058 H2044 0.931 . S
C2058 C2057 1.385 . S
C2058 C2059 1.389 . S
C2059 C2058 1.389 . S
C2059 C2060 1.387 . S
C2060 H2045 0.930 . S
C2060 C2055 1.390 . S
C2060 C2059 1.387 . S
H2061 C2073 0.930 . S
H2062 C2075 0.930 . S
H2063 C2076 0.930 . S
H2064 C2080 0.959 . S
H2065 C2080 0.959 . S
H2066 C2080 0.961 . S
H2067 C2081 0.960 . S
H2068 C2081 0.961 . S
H2069 C2081 0.959 . S
H2070 C2084 0.929 . S
H2071 C2085 0.931 . S
H2072 C2087 0.930 . S
C2073 H2061 0.930 . S
C2073 C2074 1.399 . S
C2073 C2078 1.399 . S
C2074 C2073 1.399 . S
C2074 C2075 1.376 . S
C2075 H2062 0.930 . S
C2075 C2074 1.376 . S
C2075 C2076 1.388 . S
C2076 H2063 0.930 . S
C2076 C2075 1.388 . S
C2076 C2077 1.390 . S
C2077 C2076 1.390 . S
C2077 C2078 1.394 . S
C2077 C2083 1.465 . S
C2078 C2073 1.399 . S
C2078 C2077 1.394 . S
C2078 C2079 1.516 . S
C2079 C2078 1.516 . S
C2079 C2080 1.502 . S
C2079 C2081 1.561 . S
C2079 C2082 1.526 . S
C2080 H2064 0.959 . S
C2080 H2065 0.959 . S
C2080 H2066 0.961 . S
C2080 C2079 1.502 . S
C2081 H2067 0.960 . S
C2081 H2068 0.961 . S
C2081 H2069 0.959 . S
C2081 C2079 1.561 . S
C2082 C2079 1.526 . S
C2082 C2083 1.396 . S
C2082 C2087 1.390 . S
C2083 C2077 1.465 . S
C2083 C2082 1.396 . S
C2083 C2084 1.399 . S
C2084 H2070 0.929 . S
C2084 C2083 1.399 . S
C2084 C2085 1.385 . S
C2085 H2071 0.931 . S
C2085 C2084 1.385 . S
C2085 C2086 1.389 . S
C2086 C2085 1.389 . S
C2086 C2087 1.387 . S
C2087 H2072 0.930 . S
C2087 C2082 1.390 . S
C2087 C2086 1.387 . S
H2088 C2100 0.930 . S
H2089 C2102 0.930 . S
H2090 C2103 0.930 . S
H2091 C2107 0.959 . S
H2092 C2107 0.959 . S
H2093 C2107 0.961 . S
H2094 C2108 0.960 . S
H2095 C2108 0.961 . S
H2096 C2108 0.959 . S
H2097 C2111 0.929 . S
H2098 C2112 0.931 . S
H2099 C2114 0.930 . S
C2100 H2088 0.930 . S
C2100 C2101 1.399 . S
C2100 C2105 1.399 . S
C2101 C2100 1.399 . S
C2101 C2102 1.376 . S
C2102 H2089 0.930 . S
C2102 C2101 1.376 . S
C2102 C2103 1.388 . S
C2103 H2090 0.930 . S
C2103 C2102 1.388 . S
C2103 C2104 1.390 . S
C2104 C2103 1.390 . S
C2104 C2105 1.394 . S
C2104 C2110 1.465 . S
C2105 C2100 1.399 . S
C2105 C2104 1.394 . S
C2105 C2106 1.516 . S
C2106 C2105 1.516 . S
C2106 C2107 1.502 . S
C2106 C2108 1.561 . S
C2106 C2109 1.526 . S
C2107 H2091 0.959 . S
C2107 H2092 0.959 . S
C2107 H2093 0.961 . S
C2107 C2106 1.502 . S
C2108 H2094 0.960 . S
C2108 H2095 0.961 . S
C2108 H2096 0.959 . S
C2108 C2106 1.561 . S
C2109 C2106 1.526 . S
C2109 C2110 1.396 . S
C2109 C2114 1.390 . S
C2110 C2104 1.465 . S
C2110 C2109 1.396 . S
C2110 C2111 1.399 . S
C2111 H2097 0.929 . S
C2111 C2110 1.399 . S
C2111 C2112 1.385 . S
C2112 H2098 0.931 . S
C2112 C2111 1.385 . S
C2112 C2113 1.389 . S
C2113 C2112 1.389 . S
C2113 C2114 1.387 . S
C2114 H2099 0.930 . S
C2114 C2109 1.390 . S
C2114 C2113 1.387 . S
H2115 C2127 0.930 . S
H2116 C2129 0.930 . S
H2117 C2130 0.930 . S
H2118 C2134 0.959 . S
H2119 C2134 0.959 . S
H2120 C2134 0.961 . S
H2121 C2135 0.960 . S
H2122 C2135 0.961 . S
H2123 C2135 0.959 . S
H2124 C2138 0.929 . S
H2125 C2139 0.931 . S
H2126 C2141 0.930 . S
C2127 H2115 0.930 . S
C2127 C2128 1.399 . S
C2127 C2132 1.399 . S
C2128 C2127 1.399 . S
C2128 C2129 1.376 . S
C2129 H2116 0.930 . S
C2129 C2128 1.376 . S
C2129 C2130 1.388 . S
C2130 H2117 0.930 . S
C2130 C2129 1.388 . S
C2130 C2131 1.390 . S
C2131 C2130 1.390 . S
C2131 C2132 1.394 . S
C2131 C2137 1.465 . S
C2132 C2127 1.399 . S
C2132 C2131 1.394 . S
C2132 C2133 1.516 . S
C2133 C2132 1.516 . S
C2133 C2134 1.502 . S
C2133 C2135 1.561 . S
C2133 C2136 1.526 . S
C2134 H2118 0.959 . S
C2134 H2119 0.959 . S
C2134 H2120 0.961 . S
C2134 C2133 1.502 . S
C2135 H2121 0.960 . S
C2135 H2122 0.961 . S
C2135 H2123 0.959 . S
C2135 C2133 1.561 . S
C2136 C2133 1.526 . S
C2136 C2137 1.396 . S
C2136 C2141 1.390 . S
C2137 C2131 1.465 . S
C2137 C2136 1.396 . S
C2137 C2138 1.399 . S
C2138 H2124 0.929 . S
C2138 C2137 1.399 . S
C2138 C2139 1.385 . S
C2139 H2125 0.931 . S
C2139 C2138 1.385 . S
C2139 C2140 1.389 . S
C2140 C2139 1.389 . S
C2140 C2141 1.387 . S
C2141 H2126 0.930 . S
C2141 C2136 1.390 . S
C2141 C2140 1.387 . S
H2142 C2154 0.930 . S
H2143 C2156 0.930 . S
H2144 C2157 0.930 . S
H2145 C2161 0.959 . S
H2146 C2161 0.959 . S
H2147 C2161 0.961 . S
H2148 C2162 0.960 . S
H2149 C2162 0.961 . S
H2150 C2162 0.959 . S
H2151 C2165 0.929 . S
H2152 C2166 0.931 . S
H2153 C2168 0.930 . S
C2154 H2142 0.930 . S
C2154 C2155 1.399 . S
C2154 C2159 1.399 . S
C2155 C2154 1.399 . S
C2155 C2156 1.376 . S
C2156 H2143 0.930 . S
C2156 C2155 1.376 . S
C2156 C2157 1.388 . S
C2157 H2144 0.930 . S
C2157 C2156 1.388 . S
C2157 C2158 1.390 . S
C2158 C2157 1.390 . S
C2158 C2159 1.394 . S
C2158 C2164 1.465 . S
C2159 C2154 1.399 . S
C2159 C2158 1.394 . S
C2159 C2160 1.516 . S
C2160 C2159 1.516 . S
C2160 C2161 1.502 . S
C2160 C2162 1.561 . S
C2160 C2163 1.526 . S
C2161 H2145 0.959 . S
C2161 H2146 0.959 . S
C2161 H2147 0.961 . S
C2161 C2160 1.502 . S
C2162 H2148 0.960 . S
C2162 H2149 0.961 . S
C2162 H2150 0.959 . S
C2162 C2160 1.561 . S
C2163 C2160 1.526 . S
C2163 C2164 1.396 . S
C2163 C2168 1.390 . S
C2164 C2158 1.465 . S
C2164 C2163 1.396 . S
C2164 C2165 1.399 . S
C2165 H2151 0.929 . S
C2165 C2164 1.399 . S
C2165 C2166 1.385 . S
C2166 H2152 0.931 . S
C2166 C2165 1.385 . S
C2166 C2167 1.389 . S
C2167 C2166 1.389 . S
C2167 C2168 1.387 . S
C2168 H2153 0.930 . S
C2168 C2163 1.390 . S
C2168 C2167 1.387 . S
H2169 C2181 0.930 . S
H2170 C2183 0.930 . S
H2171 C2184 0.930 . S
H2172 C2188 0.959 . S
H2173 C2188 0.959 . S
H2174 C2188 0.961 . S
H2175 C2189 0.960 . S
H2176 C2189 0.961 . S
H2177 C2189 0.959 . S
H2178 C2192 0.929 . S
H2179 C2193 0.931 . S
H2180 C2195 0.930 . S
C2181 H2169 0.930 . S
C2181 C2182 1.399 . S
C2181 C2186 1.399 . S
C2182 C2181 1.399 . S
C2182 C2183 1.376 . S
C2183 H2170 0.930 . S
C2183 C2182 1.376 . S
C2183 C2184 1.388 . S
C2184 H2171 0.930 . S
C2184 C2183 1.388 . S
C2184 C2185 1.390 . S
C2185 C2184 1.390 . S
C2185 C2186 1.394 . S
C2185 C2191 1.465 . S
C2186 C2181 1.399 . S
C2186 C2185 1.394 . S
C2186 C2187 1.516 . S
C2187 C2186 1.516 . S
C2187 C2188 1.502 . S
C2187 C2189 1.561 . S
C2187 C2190 1.526 . S
C2188 H2172 0.959 . S
C2188 H2173 0.959 . S
C2188 H2174 0.961 . S
C2188 C2187 1.502 . S
C2189 H2175 0.960 . S
C2189 H2176 0.961 . S
C2189 H2177 0.959 . S
C2189 C2187 1.561 . S
C2190 C2187 1.526 . S
C2190 C2191 1.396 . S
C2190 C2195 1.390 . S
C2191 C2185 1.465 . S
C2191 C2190 1.396 . S
C2191 C2192 1.399 . S
C2192 H2178 0.929 . S
C2192 C2191 1.399 . S
C2192 C2193 1.385 . S
C2193 H2179 0.931 . S
C2193 C2192 1.385 . S
C2193 C2194 1.389 . S
C2194 C2193 1.389 . S
C2194 C2195 1.387 . S
C2195 H2180 0.930 . S
C2195 C2190 1.390 . S
C2195 C2194 1.387 . S
H2196 C2208 0.930 . S
H2197 C2210 0.930 . S
H2198 C2211 0.930 . S
H2199 C2215 0.959 . S
H2200 C2215 0.959 . S
H2201 C2215 0.961 . S
H2202 C2216 0.960 . S
H2203 C2216 0.961 . S
H2204 C2216 0.959 . S
H2205 C2219 0.929 . S
H2206 C2220 0.931 . S
H2207 C2222 0.930 . S
C2208 H2196 0.930 . S
C2208 C2209 1.399 . S
C2208 C2213 1.399 . S
C2209 C2208 1.399 . S
C2209 C2210 1.376 . S
C2210 H2197 0.930 . S
C2210 C2209 1.376 . S
C2210 C2211 1.388 . S
C2211 H2198 0.930 . S
C2211 C2210 1.388 . S
C2211 C2212 1.390 . S
C2212 C2211 1.390 . S
C2212 C2213 1.394 . S
C2212 C2218 1.465 . S
C2213 C2208 1.399 . S
C2213 C2212 1.394 . S
C2213 C2214 1.516 . S
C2214 C2213 1.516 . S
C2214 C2215 1.502 . S
C2214 C2216 1.561 . S
C2214 C2217 1.526 . S
C2215 H2199 0.959 . S
C2215 H2200 0.959 . S
C2215 H2201 0.961 . S
C2215 C2214 1.502 . S
C2216 H2202 0.960 . S
C2216 H2203 0.961 . S
C2216 H2204 0.959 . S
C2216 C2214 1.561 . S
C2217 C2214 1.526 . S
C2217 C2218 1.396 . S
C2217 C2222 1.390 . S
C2218 C2212 1.465 . S
C2218 C2217 1.396 . S
C2218 C2219 1.399 . S
C2219 H2205 0.929 . S
C2219 C2218 1.399 . S
C2219 C2220 1.385 . S
C2220 H2206 0.931 . S
C2220 C2219 1.385 . S
C2220 C2221 1.389 . S
C2221 C2220 1.389 . S
C2221 C2222 1.387 . S
C2222 H2207 0.930 . S
C2222 C2217 1.390 . S
C2222 C2221 1.387 . S
H2223 C2235 0.930 . S
H2224 C2237 0.930 . S
H2225 C2238 0.930 . S
H2226 C2242 0.959 . S
H2227 C2242 0.959 . S
H2228 C2242 0.961 . S
H2229 C2243 0.960 . S
H2230 C2243 0.961 . S
H2231 C2243 0.959 . S
H2232 C2246 0.929 . S
H2233 C2247 0.931 . S
H2234 C2249 0.930 . S
C2235 H2223 0.930 . S
C2235 C2236 1.399 . S
C2235 C2240 1.399 . S
C2236 C2235 1.399 . S
C2236 C2237 1.376 . S
C2237 H2224 0.930 . S
C2237 C2236 1.376 . S
C2237 C2238 1.388 . S
C2238 H2225 0.930 . S
C2238 C2237 1.388 . S
C2238 C2239 1.390 . S
C2239 C2238 1.390 . S
C2239 C2240 1.394 . S
C2239 C2245 1.465 . S
C2240 C2235 1.399 . S
C2240 C2239 1.394 . S
C2240 C2241 1.516 . S
C2241 C2240 1.516 . S
C2241 C2242 1.502 . S
C2241 C2243 1.561 . S
C2241 C2244 1.526 . S
C2242 H2226 0.959 . S
C2242 H2227 0.959 . S
C2242 H2228 0.961 . S
C2242 C2241 1.502 . S
C2243 H2229 0.960 . S
C2243 H2230 0.961 . S
C2243 H2231 0.959 . S
C2243 C2241 1.561 . S
C2244 C2241 1.526 . S
C2244 C2245 1.396 . S
C2244 C2249 1.390 . S
C2245 C2239 1.465 . S
C2245 C2244 1.396 . S
C2245 C2246 1.399 . S
C2246 H2232 0.929 . S
C2246 C2245 1.399 . S
C2246 C2247 1.385 . S
C2247 H2233 0.931 . S
C2247 C2246 1.385 . S
C2247 C2248 1.389 . S
C2248 C2247 1.389 . S
C2248 C2249 1.387 . S
C2249 H2234 0.930 . S
C2249 C2244 1.390 . S
C2249 C2248 1.387 . S
H2250 C2262 0.930 . S
H2251 C2264 0.930 . S
H2252 C2265 0.930 . S
H2253 C2269 0.959 . S
H2254 C2269 0.959 . S
H2255 C2269 0.961 . S
H2256 C2270 0.960 . S
H2257 C2270 0.961 . S
H2258 C2270 0.959 . S
H2259 C2273 0.929 . S
H2260 C2274 0.931 . S
H2261 C2276 0.930 . S
C2262 H2250 0.930 . S
C2262 C2263 1.399 . S
C2262 C2267 1.399 . S
C2263 C2262 1.399 . S
C2263 C2264 1.376 . S
C2264 H2251 0.930 . S
C2264 C2263 1.376 . S
C2264 C2265 1.388 . S
C2265 H2252 0.930 . S
C2265 C2264 1.388 . S
C2265 C2266 1.390 . S
C2266 C2265 1.390 . S
C2266 C2267 1.394 . S
C2266 C2272 1.465 1_455 S
C2267 C2262 1.399 . S
C2267 C2266 1.394 . S
C2267 C2268 1.516 1_455 S
C2268 C2267 1.516 1_655 S
C2268 C2269 1.502 . S
C2268 C2270 1.561 . S
C2268 C2271 1.526 . S
C2269 H2253 0.959 . S
C2269 H2254 0.959 . S
C2269 H2255 0.961 . S
C2269 C2268 1.502 . S
C2270 H2256 0.960 . S
C2270 H2257 0.961 . S
C2270 H2258 0.959 . S
C2270 C2268 1.561 . S
C2271 C2268 1.526 . S
C2271 C2272 1.396 . S
C2271 C2276 1.390 . S
C2272 C2266 1.465 1_655 S
C2272 C2271 1.396 . S
C2272 C2273 1.399 . S
C2273 H2259 0.929 . S
C2273 C2272 1.399 . S
C2273 C2274 1.385 . S
C2274 H2260 0.931 . S
C2274 C2273 1.385 . S
C2274 C2275 1.389 . S
C2275 C2274 1.389 . S
C2275 C2276 1.387 . S
C2276 H2261 0.930 . S
C2276 C2271 1.390 . S
C2276 C2275 1.387 . S
H2277 C2289 0.930 . S
H2278 C2291 0.930 . S
H2279 C2292 0.930 . S
H2280 C2296 0.959 . S
H2281 C2296 0.959 . S
H2282 C2296 0.961 . S
H2283 C2297 0.960 . S
H2284 C2297 0.961 . S
H2285 C2297 0.959 . S
H2286 C2300 0.929 . S
H2287 C2301 0.931 . S
H2288 C2303 0.930 . S
C2289 H2277 0.930 . S
C2289 C2290 1.399 . S
C2289 C2294 1.399 . S
C2290 C2289 1.399 . S
C2290 C2291 1.376 . S
C2291 H2278 0.930 . S
C2291 C2290 1.376 . S
C2291 C2292 1.388 . S
C2292 H2279 0.930 . S
C2292 C2291 1.388 . S
C2292 C2293 1.390 . S
C2293 C2292 1.390 . S
C2293 C2294 1.394 . S
C2293 C2299 1.465 . S
C2294 C2289 1.399 . S
C2294 C2293 1.394 . S
C2294 C2295 1.516 . S
C2295 C2294 1.516 . S
C2295 C2296 1.502 . S
C2295 C2297 1.561 . S
C2295 C2298 1.526 . S
C2296 H2280 0.959 . S
C2296 H2281 0.959 . S
C2296 H2282 0.961 . S
C2296 C2295 1.502 . S
C2297 H2283 0.960 . S
C2297 H2284 0.961 . S
C2297 H2285 0.959 . S
C2297 C2295 1.561 . S
C2298 C2295 1.526 . S
C2298 C2299 1.396 . S
C2298 C2303 1.390 . S
C2299 C2293 1.465 . S
C2299 C2298 1.396 . S
C2299 C2300 1.399 . S
C2300 H2286 0.929 . S
C2300 C2299 1.399 . S
C2300 C2301 1.385 . S
C2301 H2287 0.931 . S
C2301 C2300 1.385 . S
C2301 C2302 1.389 . S
C2302 C2301 1.389 . S
C2302 C2303 1.387 . S
C2303 H2288 0.930 . S
C2303 C2298 1.390 . S
C2303 C2302 1.387 . S
H2304 C2316 0.930 . S
H2305 C2318 0.930 . S
H2306 C2319 0.930 . S
H2307 C2323 0.959 . S
H2308 C2323 0.958 . S
H2309 C2323 0.961 . S
H2310 C2324 0.960 . S
H2311 C2324 0.961 . S
H2312 C2324 0.959 . S
H2313 C2327 0.929 . S
H2314 C2328 0.931 . S
H2315 C2330 0.930 . S
C2316 H2304 0.930 . S
C2316 C2317 1.399 . S
C2316 C2321 1.399 . S
C2317 C2316 1.399 . S
C2317 C2318 1.376 . S
C2318 H2305 0.930 . S
C2318 C2317 1.376 . S
C2318 C2319 1.388 . S
C2319 H2306 0.930 . S
C2319 C2318 1.388 . S
C2319 C2320 1.390 . S
C2320 C2319 1.390 . S
C2320 C2321 1.394 . S
C2320 C2326 1.465 1_545 S
C2321 C2316 1.399 . S
C2321 C2320 1.394 . S
C2321 C2322 1.516 . S
C2322 C2321 1.516 . S
C2322 C2323 1.502 . S
C2322 C2324 1.561 . S
C2322 C2325 1.526 1_545 S
C2323 H2307 0.959 . S
C2323 H2308 0.958 . S
C2323 H2309 0.961 . S
C2323 C2322 1.502 . S
C2324 H2310 0.960 . S
C2324 H2311 0.961 . S
C2324 H2312 0.959 . S
C2324 C2322 1.561 . S
C2325 C2322 1.526 1_565 S
C2325 C2326 1.396 . S
C2325 C2330 1.390 . S
C2326 C2320 1.465 1_565 S
C2326 C2325 1.396 . S
C2326 C2327 1.399 . S
C2327 H2313 0.929 . S
C2327 C2326 1.399 . S
C2327 C2328 1.385 . S
C2328 H2314 0.931 . S
C2328 C2327 1.385 . S
C2328 C2329 1.389 . S
C2329 C2328 1.389 . S
C2329 C2330 1.387 . S
C2330 H2315 0.930 . S
C2330 C2325 1.390 . S
C2330 C2329 1.387 . S
H2331 C2343 0.930 . S
H2332 C2345 0.930 . S
H2333 C2346 0.930 . S
H2334 C2350 0.959 1_556 S
H2335 C2350 0.959 . S
H2336 C2350 0.961 . S
H2337 C2351 0.960 . S
H2338 C2351 0.961 . S
H2339 C2351 0.959 . S
H2340 C2354 0.930 1_556 S
H2341 C2355 0.931 . S
H2342 C2357 0.930 . S
C2343 H2331 0.930 . S
C2343 C2344 1.399 . S
C2343 C2348 1.399 . S
C2344 C2343 1.399 . S
C2344 C2345 1.376 . S
C2345 H2332 0.930 . S
C2345 C2344 1.376 . S
C2345 C2346 1.388 . S
C2346 H2333 0.930 . S
C2346 C2345 1.388 . S
C2346 C2347 1.390 . S
C2347 C2346 1.390 . S
C2347 C2348 1.394 . S
C2347 C2353 1.465 1_546 S
C2348 C2343 1.399 . S
C2348 C2347 1.394 . S
C2348 C2349 1.516 1_556 S
C2349 C2348 1.516 1_554 S
C2349 C2350 1.502 . S
C2349 C2351 1.561 . S
C2349 C2352 1.526 1_545 S
C2350 H2334 0.959 1_554 S
C2350 H2335 0.959 . S
C2350 H2336 0.961 . S
C2350 C2349 1.502 . S
C2351 H2337 0.960 . S
C2351 H2338 0.961 . S
C2351 H2339 0.959 . S
C2351 C2349 1.561 . S
C2352 C2349 1.526 1_565 S
C2352 C2353 1.396 . S
C2352 C2357 1.390 . S
C2353 C2347 1.465 1_564 S
C2353 C2352 1.396 . S
C2353 C2354 1.399 . S
C2354 H2340 0.930 1_554 S
C2354 C2353 1.399 . S
C2354 C2355 1.385 . S
C2355 H2341 0.931 . S
C2355 C2354 1.385 . S
C2355 C2356 1.389 . S
C2356 C2355 1.389 . S
C2356 C2357 1.387 . S
C2357 H2342 0.930 . S
C2357 C2352 1.390 . S
C2357 C2356 1.387 . S
H2358 C2370 0.930 1_554 S
H2359 C2372 0.930 . S
H2360 C2373 0.930 . S
H2361 C2377 0.959 . S
H2362 C2377 0.959 . S
H2363 C2377 0.961 . S
H2364 C2378 0.960 . S
H2365 C2378 0.961 . S
H2366 C2378 0.959 . S
H2367 C2381 0.929 . S
H2368 C2382 0.931 . S
H2369 C2384 0.930 . S
C2370 H2358 0.930 1_556 S
C2370 C2371 1.399 . S
C2370 C2375 1.399 1_556 S
C2371 C2370 1.399 . S
C2371 C2372 1.376 . S
C2372 H2359 0.930 . S
C2372 C2371 1.376 . S
C2372 C2373 1.388 . S
C2373 H2360 0.930 . S
C2373 C2372 1.388 . S
C2373 C2374 1.390 . S
C2374 C2373 1.390 . S
C2374 C2375 1.394 1_556 S
C2374 C2380 1.465 1_655 S
C2375 C2370 1.399 1_554 S
C2375 C2374 1.394 1_554 S
C2375 C2376 1.516 . S
C2376 C2375 1.516 . S
C2376 C2377 1.502 . S
C2376 C2378 1.561 . S
C2376 C2379 1.526 1_655 S
C2377 H2361 0.959 . S
C2377 H2362 0.959 . S
C2377 H2363 0.961 . S
C2377 C2376 1.502 . S
C2378 H2364 0.960 . S
C2378 H2365 0.961 . S
C2378 H2366 0.959 . S
C2378 C2376 1.561 . S
C2379 C2376 1.526 1_455 S
C2379 C2380 1.396 1_554 S
C2379 C2384 1.390 . S
C2380 C2374 1.465 1_455 S
C2380 C2379 1.396 1_556 S
C2380 C2381 1.399 . S
C2381 H2367 0.929 . S
C2381 C2380 1.399 . S
C2381 C2382 1.385 . S
C2382 H2368 0.931 . S
C2382 C2381 1.385 . S
C2382 C2383 1.389 1_556 S
C2383 C2382 1.389 1_554 S
C2383 C2384 1.387 . S
C2384 H2369 0.930 . S
C2384 C2379 1.390 . S
C2384 C2383 1.387 . S
H2385 C2397 0.930 1_554 S
H2386 C2399 0.930 . S
H2387 C2400 0.930 . S
H2388 C2404 0.959 . S
H2389 C2404 0.959 . S
H2390 C2404 0.961 . S
H2391 C2405 0.960 . S
H2392 C2405 0.961 . S
H2393 C2405 0.959 . S
H2394 C2408 0.929 . S
H2395 C2409 0.931 . S
H2396 C2411 0.930 . S
C2397 H2385 0.930 1_556 S
C2397 C2398 1.399 . S
C2397 C2402 1.399 1_556 S
C2398 C2397 1.399 . S
C2398 C2399 1.376 . S
C2399 H2386 0.930 . S
C2399 C2398 1.376 . S
C2399 C2400 1.388 . S
C2400 H2387 0.930 . S
C2400 C2399 1.388 . S
C2400 C2401 1.390 . S
C2401 C2400 1.390 . S
C2401 C2402 1.394 1_556 S
C2401 C2407 1.465 . S
C2402 C2397 1.399 1_554 S
C2402 C2401 1.394 1_554 S
C2402 C2403 1.516 . S
C2403 C2402 1.516 . S
C2403 C2404 1.502 . S
C2403 C2405 1.561 . S
C2403 C2406 1.526 . S
C2404 H2388 0.959 . S
C2404 H2389 0.959 . S
C2404 H2390 0.961 . S
C2404 C2403 1.502 . S
C2405 H2391 0.960 . S
C2405 H2392 0.961 . S
C2405 H2393 0.959 . S
C2405 C2403 1.561 . S
C2406 C2403 1.526 . S
C2406 C2407 1.396 1_554 S
C2406 C2411 1.390 . S
C2407 C2401 1.465 . S
C2407 C2406 1.396 1_556 S
C2407 C2408 1.399 . S
C2408 H2394 0.929 . S
C2408 C2407 1.399 . S
C2408 C2409 1.385 . S
C2409 H2395 0.931 . S
C2409 C2408 1.385 . S
C2409 C2410 1.389 1_556 S
C2410 C2409 1.389 1_554 S
C2410 C2411 1.387 . S
C2411 H2396 0.930 . S
C2411 C2406 1.390 . S
C2411 C2410 1.387 . S
C481 C10 1.115 . S
C493 C96 1.051 . S
C508 C23 1.114 . S
C520 C109 1.023 . S
C535 C83 1.114 . S
C547 C36 1.094 . S
C562 C148 1.021 . S
C574 C49 1.113 . S
C589 C62 1.090 . S
C601 C122 0.999 . S
C616 C75 1.116 . S
C628 C135 1.050 . S
C643 C18 1.115 . S
C655 C88 1.106 . S
C670 C31 1.101 . S
C682 C101 1.115 . S
C697 C114 1.100 . S
C709 C5 1.009 . S
C724 C127 1.091 . S
C736 C70 0.994 . S
C751 C44 1.101 . S
C763 C140 1.114 . S
C778 C153 1.116 . S
C790 C57 1.081 . S
C805 C252 1.096 . S
C817 C166 1.083 . S
C832 C179 1.104 . S
C844 C265 1.109 . S
C859 C192 1.084 . S
C871 C239 1.101 . S
C886 C304 1.112 . S
C898 C205 1.090 . S
C913 C218 1.115 . S
C925 C278 1.046 . S
C940 C291 1.115 . S
C952 C231 1.095 . S
C967 C174 1.030 . S
C979 C244 1.079 . S
C994 C257 1.081 . S
C1006 C187 1.053 . S
C1021 C161 1.079 . S
C1033 C270 1.087 . S
C1048 C283 1.113 . S
C1060 C226 1.107 . S
C1075 C296 1.099 . S
C1087 C200 1.109 . S
C1102 C309 1.104 . S
C1114 C213 1.016 . S
C1129 C408 1.112 . S
C1141 C322 1.090 . S
C1156 C421 1.066 . S
C1168 C335 1.080 . S
C1183 C395 1.033 . S
C1195 C348 1.114 . S
C1210 C361 1.082 . S
C1222 C460 1.093 . S
C1237 C374 1.101 . S
C1249 C434 1.111 . S
C1264 C447 1.102 . S
C1276 C387 1.085 . S
C1291 C400 1.079 . S
C1303 C330 1.012 . S
C1318 C343 0.997 . S
C1330 C413 1.095 . S
C1345 C317 1.111 . S
C1357 C426 1.100 . S
C1372 C439 1.106 . S
C1384 C382 1.114 . S
C1399 C452 1.114 . S
C1411 C356 1.102 . S
C1426 C465 1.084 . S
C1438 C369 1.068 . S
C1453 C47 1.330 . S
C1465 C8 1.236 . S
C1480 C60 1.317 . S
C1492 C21 1.264 . S
C1507 C34 1.245 . S
C1519 C73 1.332 . S
C1534 C125 1.332 . S
C1546 C86 1.224 . S
C1561 C138 1.226 . S
C1573 C99 1.340 . S
C1588 C151 1.269 . S
C1600 C112 1.258 . S
C1615 C203 1.240 . S
C1627 C164 1.324 . S
C1642 C216 1.286 . S
C1654 C177 1.296 . S
C1669 C190 1.344 . S
C1681 C229 1.225 . S
C1696 C281 1.311 1_554 S
C1708 C242 1.307 . S
C1723 C294 1.295 1_554 S
C1735 C255 1.238 . S
C1750 C307 1.327 1_554 S
C1762 C268 1.224 . S
C1777 C359 1.338 1_556 S
C1789 C320 1.229 . S
C1804 C333 1.335 . S
C1816 C372 1.243 1_556 S
C1831 C385 1.227 1_556 S
C1843 C346 1.345 . S
C1858 C398 1.277 . S
C1870 C437 1.251 . S
C1885 C411 1.287 . S
C1897 C450 1.244 . S
C1912 C424 1.341 . S
C1924 C463 1.265 . S
C1939 C0 1.405 . S
C1951 C234 1.430 . S
C1966 C247 1.384 . S
C1978 C13 1.444 . S
C1993 C260 1.403 . S
C2005 C26 1.415 . S
C2020 C429 1.386 . S
C2032 C39 1.433 . S
C2047 C442 1.405 . S
C2059 C52 1.413 . S
C2074 C455 1.440 . S
C2086 C65 1.394 . S
C2101 C78 1.404 . S
C2113 C312 1.413 . S
C2128 C325 1.445 . S
C2140 C91 1.383 . S
C2155 C338 1.445 . S
C2167 C104 1.386 . S
C2182 C117 1.441 . S
C2194 C195 1.392 . S
C2209 C130 1.430 . S
C2221 C208 1.407 . S
C2236 C143 1.382 . S
C2248 C221 1.445 . S
C2263 C390 1.381 . S
C2275 C156 1.443 . S
C2290 C403 1.394 . S
C2302 C169 1.423 . S
C2317 C182 1.394 . S
C2329 C416 1.425 . S
C2344 C273 1.445 . S
C2356 C351 1.382 . S
C2371 C286 1.442 . S
C2383 C364 1.392 . S
C2398 C299 1.440 . S
C2410 C377 1.393 . S
