# Generated by pormake.
# Topology sod, (4)-cn, num edge types: 1
# Building blocks:
#     Node 0, Type 0, BuildingBlock: ICAMEG_clean_sbu_1, # of connection points: 4
#     Node 1, Type 0, BuildingBlock: ICAMEG_clean_sbu_1, # of connection points: 4
#     Node 2, Type 0, BuildingBlock: ICAMEG_clean_sbu_1, # of connection points: 4
#     Node 3, Type 0, BuildingBlock: ICAMEG_clean_sbu_1, # of connection points: 4
#     Node 4, Type 0, BuildingBlock: ICAMEG_clean_sbu_1, # of connection points: 4
#     Node 5, Type 0, BuildingBlock: ICAMEG_clean_sbu_1, # of connection points: 4
#     Node 6, Type 0, BuildingBlock: ICAMEG_clean_sbu_1, # of connection points: 4
#     Node 7, Type 0, BuildingBlock: ICAMEG_clean_sbu_1, # of connection points: 4
#     Node 8, Type 0, BuildingBlock: ICAMEG_clean_sbu_1, # of connection points: 4
#     Node 9, Type 0, BuildingBlock: ICAMEG_clean_sbu_1, # of connection points: 4
#     Node 10, Type 0, BuildingBlock: ICAMEG_clean_sbu_1, # of connection points: 4
#     Node 11, Type 0, BuildingBlock: ICAMEG_clean_sbu_1, # of connection points: 4
#     Edge 12, Type (0, 0), BuildingBlock: ZUJKAS_clean_linker_0, # of connection points: 2
#     Edge 13, Type (0, 0), BuildingBlock: ZUJKAS_clean_linker_0, # of connection points: 2
#     Edge 14, Type (0, 0), BuildingBlock: ZUJKAS_clean_linker_0, # of connection points: 2
#     Edge 15, Type (0, 0), BuildingBlock: ZUJKAS_clean_linker_0, # of connection points: 2
#     Edge 16, Type (0, 0), BuildingBlock: ZUJKAS_clean_linker_0, # of connection points: 2
#     Edge 17, Type (0, 0), BuildingBlock: ZUJKAS_clean_linker_0, # of connection points: 2
#     Edge 18, Type (0, 0), BuildingBlock: ZUJKAS_clean_linker_0, # of connection points: 2
#     Edge 19, Type (0, 0), BuildingBlock: ZUJKAS_clean_linker_0, # of connection points: 2
#     Edge 20, Type (0, 0), BuildingBlock: ZUJKAS_clean_linker_0, # of connection points: 2
#     Edge 21, Type (0, 0), BuildingBlock: ZUJKAS_clean_linker_0, # of connection points: 2
#     Edge 22, Type (0, 0), BuildingBlock: ZUJKAS_clean_linker_0, # of connection points: 2
#     Edge 23, Type (0, 0), BuildingBlock: ZUJKAS_clean_linker_0, # of connection points: 2
#     Edge 24, Type (0, 0), BuildingBlock: ZUJKAS_clean_linker_0, # of connection points: 2
#     Edge 25, Type (0, 0), BuildingBlock: ZUJKAS_clean_linker_0, # of connection points: 2
#     Edge 26, Type (0, 0), BuildingBlock: ZUJKAS_clean_linker_0, # of connection points: 2
#     Edge 27, Type (0, 0), BuildingBlock: ZUJKAS_clean_linker_0, # of connection points: 2
#     Edge 28, Type (0, 0), BuildingBlock: ZUJKAS_clean_linker_0, # of connection points: 2
#     Edge 29, Type (0, 0), BuildingBlock: ZUJKAS_clean_linker_0, # of connection points: 2
#     Edge 30, Type (0, 0), BuildingBlock: ZUJKAS_clean_linker_0, # of connection points: 2
#     Edge 31, Type (0, 0), BuildingBlock: ZUJKAS_clean_linker_0, # of connection points: 2
#     Edge 32, Type (0, 0), BuildingBlock: ZUJKAS_clean_linker_0, # of connection points: 2
#     Edge 33, Type (0, 0), BuildingBlock: ZUJKAS_clean_linker_0, # of connection points: 2
#     Edge 34, Type (0, 0), BuildingBlock: ZUJKAS_clean_linker_0, # of connection points: 2
#     Edge 35, Type (0, 0), BuildingBlock: ZUJKAS_clean_linker_0, # of connection points: 2
# Relax obj value: 0.209
# Max RMSD: 0.239
# Mean RMSD: 0.237
data_MOF--net-sod--node1-ICAMEG_clean_sbu_1--edge1-ZUJKAS_clean_linker_0
_symmetry_space_group_name_H-M    P1
_symmetry_Int_Tables_number       1
_symmetry_cell_setting            triclinic
loop_
_symmetry_equiv_pos_as_xyz
'x, y, z'
_cell_length_a     54.637595
_cell_length_b     59.31895
_cell_length_c     57.034869
_cell_angle_alpha  90.124075
_cell_angle_beta   90.001912
_cell_angle_gamma 90.061895
loop_
_atom_site_label
_atom_site_type_symbol
_atom_site_fract_x
_atom_site_fract_y
_atom_site_fract_z
_atom_type_partial_charge
Co0 Co 0.00283 0.2503 0.54242 0.0
Co1 Co 0.9932 0.24343 0.4843 0.0
O2 O 0.99614 0.26355 0.5116 0.0
C3 C 0.97381 0.29292 0.552 0.0
O4 O 0.96922 0.2958 0.52963 0.0
C5 C 0.01768 0.28546 0.46602 0.0
O6 O 0.03104 0.28744 0.48503 0.0
O7 O 0.02758 0.23337 0.48964 0.0
O8 O 0.02236 0.22534 0.52761 0.0
H9 H 0.00463 0.17029 0.441 0.0
H10 H 0.01717 0.29804 0.53208 0.0
O11 O 0.98456 0.27512 0.55908 0.0
H12 H 0.09245 0.26125 0.56 0.0
H13 H 0.02337 0.2508 0.6286 0.0
H14 H 1.00167 0.2035 0.56049 0.0
H15 H 0.054 0.23979 0.55697 0.0
H16 H 0.0164 0.26797 0.58986 0.0
O17 O 0.00394 0.26836 0.46306 0.0
H18 H 0.00674 0.19578 0.47512 0.0
H19 H 0.97537 0.24867 0.43504 0.0
H20 H 0.00875 0.18561 0.59887 0.0
H21 H 0.05501 0.32018 0.53537 0.0
H22 H 0.01969 0.20931 0.63327 0.0
H23 H 0.09312 0.30182 0.54936 0.0
O24 O 0.972 0.23226 0.53934 0.0
H25 H 0.9256 0.3006 0.47825 0.0
H26 H 0.94577 0.21965 0.47542 0.0
H27 H 0.90293 0.23166 0.47057 0.0
H28 H 0.89259 0.27241 0.47189 0.0
H29 H 0.96816 0.28783 0.48335 0.0
H30 H 0.97311 0.22379 0.40045 0.0
H31 H 0.98771 0.18425 0.40332 0.0
O32 O 0.98112 0.2179 0.50419 0.0
C33 C 0.03428 0.22341 0.50843 0.0
C34 C 0.99818 0.18748 0.43954 0.0
C35 C 0.98052 0.21751 0.41677 0.0
N36 N 0.99115 0.22371 0.45714 0.0
C37 C 0.9993 0.202 0.45882 0.0
C38 C 0.98194 0.23155 0.43642 0.0
C39 C 0.9887 0.19532 0.4184 0.0
C40 C 0.03337 0.28995 0.5387 0.0
N41 N 0.03301 0.2677 0.54488 0.0
C42 C 0.05491 0.30257 0.5403 0.0
C43 C 0.07629 0.29225 0.54808 0.0
C44 C 0.07592 0.2695 0.55405 0.0
C45 C 0.05405 0.25743 0.55227 0.0
C46 C 0.01861 0.24029 0.61374 0.0
C47 C 0.00648 0.21393 0.57535 0.0
C48 C 0.01453 0.24993 0.59177 0.0
N49 N 0.00866 0.23675 0.57288 0.0
C50 C 0.01044 0.2037 0.59705 0.0
C51 C 0.01656 0.21701 0.61635 0.0
C52 C 0.96871 0.21774 0.5231 0.0
C53 C 0.92986 0.28279 0.47766 0.0
C54 C 0.94144 0.23741 0.47622 0.0
C55 C 0.91713 0.24411 0.47336 0.0
C56 C 0.91135 0.26697 0.4741 0.0
N57 N 0.95951 0.25302 0.47982 0.0
C58 C 0.95396 0.27546 0.48051 0.0
Co59 Co 0.73957 0.03407 0.50615 0.0
Co60 Co 0.74113 0.97753 0.49773 0.0
O61 O 0.75876 1.00623 0.50202 0.0
C62 C 0.78689 0.04878 0.48271 0.0
O63 O 0.79333 0.02789 0.47834 0.0
C64 C 0.78899 0.96495 0.52152 0.0
O65 O 0.79466 0.98612 0.52546 0.0
O66 O 0.72554 0.98217 0.52904 0.0
O67 O 0.71228 0.01698 0.52162 0.0
H68 H 0.66636 0.92823 0.50117 0.0
H69 H 0.79021 0.031 0.52557 0.0
O70 O 0.76607 0.0531 0.49173 0.0
H71 H 0.73807 0.0519 0.59261 0.0
H72 H 0.72602 0.11625 0.52477 0.0
H73 H 0.68741 0.0455 0.49822 0.0
H74 H 0.72016 0.04667 0.55337 0.0
H75 H 0.75033 0.08144 0.52111 0.0
O76 O 0.76838 0.95976 0.51255 0.0
H77 H 0.68953 0.96372 0.50504 0.0
H78 H 0.75457 0.93066 0.48311 0.0
H79 H 0.66237 0.07986 0.50188 0.0
H80 H 0.80891 0.03639 0.56438 0.0
H81 H 0.68167 0.11558 0.51523 0.0
H82 H 0.7828 0.04687 0.59833 0.0
O83 O 0.72457 0.02876 0.47468 0.0
H84 H 0.81118 0.97835 0.44022 0.0
H85 H 0.72298 0.96391 0.45035 0.0
H86 H 0.74157 0.95946 0.41132 0.0
H87 H 0.78604 0.96658 0.40604 0.0
H88 H 0.79179 0.98295 0.47881 0.0
H89 H 0.73216 0.89477 0.47925 0.0
H90 H 0.68769 0.89341 0.4882 0.0
O91 O 0.71318 0.99331 0.48188 0.0
C92 C 0.71203 0.99907 0.53397 0.0
C93 C 0.68572 0.92861 0.49719 0.0
C94 C 0.72265 0.90982 0.48493 0.0
N95 N 0.72338 0.94932 0.49428 0.0
C96 C 0.69894 0.94867 0.49933 0.0
C97 C 0.73528 0.93019 0.48725 0.0
C98 C 0.69771 0.90908 0.48993 0.0
C99 C 0.7787 0.0358 0.54007 0.0
N100 N 0.75411 0.03869 0.53698 0.0
C101 C 0.78941 0.03873 0.5621 0.0
C102 C 0.77475 0.04458 0.58115 0.0
C103 C 0.74967 0.04739 0.57795 0.0
C104 C 0.73962 0.04434 0.55565 0.0
C105 C 0.7174 0.10079 0.51892 0.0
C106 C 0.69595 0.06094 0.50409 0.0
C107 C 0.7311 0.08104 0.5167 0.0
N108 N 0.72032 0.06141 0.50945 0.0
C109 C 0.68167 0.08037 0.50611 0.0
C110 C 0.69252 0.1004 0.51358 0.0
C111 C 0.71201 0.01125 0.46962 0.0
C112 C 0.7918 0.9751 0.44231 0.0
C113 C 0.74231 0.96716 0.44827 0.0
C114 C 0.75276 0.96454 0.42608 0.0
C115 C 0.77769 0.96853 0.42313 0.0
N116 N 0.75627 0.97352 0.46707 0.0
C117 C 0.78071 0.97757 0.46423 0.0
Co118 Co 0.00547 0.76208 0.46877 0.0
Co119 Co 0.99309 0.77088 0.5261 0.0
O120 O 0.99669 0.75004 0.49953 0.0
C121 C 0.97575 0.71986 0.45891 0.0
O122 O 0.97066 0.71708 0.48119 0.0
C123 C 0.01754 0.73026 0.54739 0.0
O124 O 0.03481 0.73036 0.53139 0.0
O125 O 0.02807 0.78005 0.52229 0.0
O126 O 0.02539 0.78664 0.48375 0.0
H127 H 0.00439 0.84447 0.56864 0.0
H128 H 0.01737 0.71466 0.48284 0.0
O129 O 0.98689 0.73753 0.45196 0.0
H130 H 0.0951 0.74697 0.45492 0.0
H131 H 0.02981 0.75846 0.38356 0.0
H132 H 0.00759 0.80837 0.44943 0.0
H133 H 0.05755 0.76981 0.45511 0.0
H134 H 0.02028 0.74262 0.42241 0.0
O135 O 1.00155 0.74581 0.54803 0.0
H136 H 0.00747 0.81841 0.53507 0.0
H137 H 0.97289 0.76675 0.57458 0.0
H138 H 0.01729 0.82494 0.41093 0.0
H139 H 0.0543 0.69116 0.48251 0.0
H140 H 0.02849 0.79992 0.37764 0.0
H141 H 0.09363 0.70724 0.46851 0.0
O142 O 0.97537 0.78133 0.46991 0.0
H143 H 0.92292 0.716 0.52883 0.0
H144 H 0.94626 0.79624 0.53248 0.0
H145 H 0.90274 0.78568 0.53514 0.0
H146 H 0.8908 0.74529 0.53339 0.0
H147 H 0.96623 0.72734 0.52597 0.0
H148 H 0.96961 0.79224 0.60863 0.0
H149 H 0.98533 0.83144 0.60577 0.0
O150 O 0.98315 0.79633 0.50512 0.0
C151 C 0.03612 0.78918 0.50349 0.0
C152 C 0.99743 0.82744 0.5701 0.0
C153 C 0.97794 0.79812 0.59255 0.0
N154 N 0.9903 0.79109 0.55279 0.0
C155 C 0.99909 0.8126 0.55112 0.0
C156 C 0.97993 0.78374 0.57322 0.0
C157 C 0.98675 0.82011 0.59092 0.0
C158 C 0.03411 0.72175 0.47616 0.0
N159 N 0.0349 0.7435 0.46831 0.0
C160 C 0.05512 0.70837 0.47626 0.0
C161 C 0.07719 0.71741 0.46848 0.0
C162 C 0.07802 0.73968 0.46086 0.0
C163 C 0.05664 0.75255 0.461 0.0
C164 C 0.02495 0.76954 0.39792 0.0
C165 C 0.01252 0.79737 0.43507 0.0
C166 C 0.0194 0.76066 0.41995 0.0
N167 N 0.0134 0.77456 0.43822 0.0
C168 C 0.01796 0.80685 0.41329 0.0
C169 C 0.02422 0.7928 0.39462 0.0
C170 C 0.97179 0.79635 0.48561 0.0
C171 C 0.92788 0.73366 0.52962 0.0
C172 C 0.94125 0.77863 0.53157 0.0
C173 C 0.91655 0.77275 0.53315 0.0
C174 C 0.90987 0.75009 0.53217 0.0
N175 N 0.95883 0.76241 0.52899 0.0
C176 C 0.95239 0.74018 0.52802 0.0
Co177 Co 0.25724 0.98369 0.51118 0.0
Co178 Co 0.27037 0.03792 0.4986 0.0
O179 O 0.24605 0.01389 0.50267 0.0
C180 C 0.22797 0.95329 0.48113 0.0
O181 O 0.2487 0.94562 0.47262 0.0
C182 C 0.22879 0.06038 0.52363 0.0
O183 O 0.22739 0.04344 0.53834 0.0
O184 O 0.28112 0.03348 0.53172 0.0
O185 O 0.28599 0.99614 0.52895 0.0
H186 H 0.35376 0.07296 0.50665 0.0
H187 H 0.20633 0.99716 0.52208 0.0
O188 O 0.22813 0.97051 0.49456 0.0
H189 H 0.24257 0.97638 0.59819 0.0
H190 H 0.24783 0.90358 0.53964 0.0
H191 H 0.30532 0.96083 0.50969 0.0
H192 H 0.26684 0.97372 0.56189 0.0
H193 H 0.23339 0.94176 0.52989 0.0
O194 O 0.24548 0.06086 0.50811 0.0
H195 H 0.32296 0.04282 0.51059 0.0
H196 H 0.26903 0.08483 0.47961 0.0
H197 H 0.32056 0.92285 0.51934 0.0
H198 H 0.18126 0.99969 0.55792 0.0
H199 H 0.29172 0.8939 0.5344 0.0
H200 H 0.19939 0.98933 0.59635 0.0
O201 O 0.27687 0.98312 0.48149 0.0
H202 H 0.20824 0.04418 0.43395 0.0
H203 H 0.29632 0.04306 0.4527 0.0
H204 H 0.28321 0.04653 0.41153 0.0
H205 H 0.23888 0.04718 0.40193 0.0
H206 H 0.22216 0.04041 0.47489 0.0
H207 H 0.29921 0.11549 0.47553 0.0
H208 H 0.34196 0.10962 0.48899 0.0
O209 O 0.29584 0.01591 0.48789 0.0
C210 C 0.28998 0.01493 0.53928 0.0
C211 C 0.3352 0.07571 0.50068 0.0
C212 C 0.30458 0.09959 0.48325 0.0
N213 N 0.29422 0.06199 0.49527 0.0
C214 C 0.31767 0.05868 0.50283 0.0
C215 C 0.28754 0.08218 0.4857 0.0
C216 C 0.32856 0.09628 0.49079 0.0
C217 C 0.21429 0.99239 0.53869 0.0
N218 N 0.23801 0.98522 0.53982 0.0
C219 C 0.20003 0.99395 0.55895 0.0
C220 C 0.21022 0.98818 0.5805 0.0
C221 C 0.23445 0.98093 0.58155 0.0
C222 C 0.24815 0.97957 0.56093 0.0
C223 C 0.26058 0.91604 0.53308 0.0
C224 C 0.29265 0.94833 0.51621 0.0
C225 C 0.25252 0.9377 0.52751 0.0
N226 N 0.26849 0.95353 0.51912 0.0
C227 C 0.30139 0.92685 0.52167 0.0
C228 C 0.2852 0.91062 0.53013 0.0
C229 C 0.29358 0.99744 0.47665 0.0
C230 C 0.22761 0.04395 0.43792 0.0
C231 C 0.27699 0.04324 0.44869 0.0
C232 C 0.26968 0.04526 0.42533 0.0
C233 C 0.24481 0.04562 0.41996 0.0
N234 N 0.26001 0.04155 0.46623 0.0
C235 C 0.2356 0.04187 0.46108 0.0
Co236 Co 0.49131 0.98145 0.26436 0.0
Co237 Co 0.50108 0.03734 0.2581 0.0
O238 O 0.49427 0.00788 0.24374 0.0
C239 C 0.51563 0.96315 0.22057 0.0
O240 O 0.53011 0.98072 0.21865 0.0
C241 C 0.47296 0.04779 0.21347 0.0
O242 O 0.46979 0.02636 0.20858 0.0
O243 O 0.47025 0.03411 0.27682 0.0
O244 O 0.47977 1.00039 0.29128 0.0
H245 H 0.5074 0.09037 0.32665 0.0
H246 H 0.46565 0.98187 0.21853 0.0
O247 O 0.50138 0.96113 0.23807 0.0
H248 H 0.40114 0.96814 0.27725 0.0
H249 H 0.47083 0.90076 0.28396 0.0
H250 H 0.50535 0.97214 0.31367 0.0
H251 H 0.44418 0.97231 0.28938 0.0
H252 H 0.47308 0.93419 0.25846 0.0
O253 O 0.48262 0.05383 0.23284 0.0
H254 H 0.50041 0.05378 0.30718 0.0
H255 H 0.51416 0.08342 0.24072 0.0
H256 H 0.50325 0.93918 0.33979 0.0
H257 H 0.42285 0.97754 0.20558 0.0
H258 H 0.48588 0.90315 0.32498 0.0
H259 H 0.39022 0.97068 0.23505 0.0
O260 O 0.52587 0.98628 0.27457 0.0
H261 H 0.55366 0.03005 0.18568 0.0
H262 H 0.55199 0.05234 0.26891 0.0
H263 H 0.59043 0.05549 0.24673 0.0
H264 H 0.59145 0.04449 0.20471 0.0
H265 H 0.51583 0.02675 0.20856 0.0
H266 H 0.52099 0.12037 0.25946 0.0
H267 H 0.51776 0.12401 0.30274 0.0
O268 O 0.52084 0.02271 0.28359 0.0
C269 C 0.46686 0.01825 0.29155 0.0
C270 C 0.5089 0.089 0.30778 0.0
C271 C 0.51649 0.10584 0.27007 0.0
N272 N 0.50693 0.06641 0.27285 0.0
C273 C 0.505 0.06831 0.29665 0.0
C274 C 0.51247 0.08488 0.25955 0.0
C275 C 0.51469 0.10787 0.29435 0.0
C276 C 0.45158 0.97886 0.23145 0.0
N277 N 0.45745 0.97748 0.25468 0.0
C278 C 0.42737 0.97642 0.22402 0.0
C279 C 0.40907 0.97257 0.24056 0.0
C280 C 0.41518 0.97115 0.26423 0.0
C281 C 0.4396 0.97362 0.271 0.0
C282 C 0.47844 0.91637 0.29062 0.0
C283 C 0.4977 0.95657 0.30708 0.0
C284 C 0.47985 0.93535 0.27623 0.0
N285 N 0.48928 0.95517 0.28455 0.0
C286 C 0.49659 0.93793 0.32196 0.0
C287 C 0.48687 0.91772 0.31364 0.0
C288 C 0.53281 1.00426 0.28508 0.0
C289 C 0.55339 0.03517 0.2039 0.0
C290 C 0.55214 0.04756 0.25064 0.0
C291 C 0.57404 0.04938 0.23816 0.0
C292 C 0.5746 0.0432 0.2146 0.0
N293 N 0.53123 0.04 0.23997 0.0
C294 C 0.53183 0.03357 0.21695 0.0
Co295 Co 0.9999 0.53126 0.25172 0.0
Co296 Co 0.00878 0.47496 0.24768 0.0
O297 O 0.0058 0.50221 0.26723 0.0
C298 C 0.02758 0.54275 0.29636 0.0
O299 O 0.03073 0.52143 0.30164 0.0
C300 C 0.98435 0.45896 0.2924 0.0
O301 O 0.97191 0.4777 0.29499 0.0
O302 O 0.97468 0.47997 0.23623 0.0
O303 O 0.98056 0.51602 0.22628 0.0
H304 H 0.99792 0.43026 0.17342 0.0
H305 H 0.98414 0.52333 0.30146 0.0
O306 O 0.01808 0.54834 0.2768 0.0
H307 H 0.91057 0.55055 0.26058 0.0
H308 H 0.98131 0.6144 0.24733 0.0
H309 H 1.00211 0.54608 0.20217 0.0
H310 H 0.94939 0.54603 0.23926 0.0
H311 H 0.98706 0.578 0.26734 0.0
O312 O 0.99729 0.45562 0.27418 0.0
H313 H 0.99587 0.46414 0.19839 0.0
H314 H 0.02601 0.42767 0.25551 0.0
H315 H 0.99625 0.58209 0.18144 0.0
H316 H 0.94592 0.52805 0.32348 0.0
H317 H 0.98578 0.61659 0.20405 0.0
H318 H 0.90865 0.54172 0.30308 0.0
O319 O 0.03098 0.52706 0.23367 0.0
H320 H 0.07501 0.47196 0.30882 0.0
H321 H 0.05654 0.46403 0.22461 0.0
H322 H 0.09899 0.45944 0.23831 0.0
H323 H 0.10847 0.46332 0.28072 0.0
H324 H 0.03286 0.4767 0.2943 0.0
H325 H 0.0282 0.39335 0.2312 0.0
H326 H 0.01419 0.39451 0.18979 0.0
O327 O 0.02173 0.4927 0.22057 0.0
C328 C 0.96839 0.49765 0.22497 0.0
C329 C 0.00411 0.42954 0.19143 0.0
C330 C 0.02107 0.40882 0.22386 0.0
N331 N 0.01086 0.44796 0.22841 0.0
C332 C 0.00302 0.44869 0.20567 0.0
C333 C 0.01969 0.42831 0.23759 0.0
C334 C 0.01323 0.40949 0.20063 0.0
C335 C 0.96835 0.52976 0.29244 0.0
N336 N 0.96942 0.53494 0.26913 0.0
C337 C 0.94657 0.53219 0.30502 0.0
C338 C 0.92566 0.53979 0.29356 0.0
C339 C 0.92672 0.54475 0.26973 0.0
C340 C 0.94882 0.54213 0.25774 0.0
C341 C 0.98587 0.59948 0.23728 0.0
C342 C 0.99748 0.56098 0.21214 0.0
C343 C 0.98926 0.57883 0.24852 0.0
N344 N 0.99487 0.55987 0.23593 0.0
C345 C 0.99421 0.58135 0.2003 0.0
C346 C 0.98836 0.6007 0.213 0.0
C347 C 0.03461 0.51058 0.21968 0.0
C348 C 0.07113 0.47024 0.29029 0.0
C349 C 0.06051 0.46596 0.24306 0.0
C350 C 0.08459 0.46324 0.25073 0.0
C351 C 0.08989 0.4654 0.27452 0.0
N352 N 0.04218 0.47077 0.25861 0.0
C353 C 0.04727 0.4729 0.28196 0.0
Co354 Co 0.50254 0.03529 0.75017 0.0
Co355 Co 0.50518 0.97813 0.75105 0.0
O356 O 0.50375 0.00697 0.76805 0.0
C357 C 0.52855 0.0464 0.79571 0.0
O358 O 0.53165 0.02499 0.80052 0.0
C359 C 0.47906 0.96817 0.79682 0.0
O360 O 0.47678 0.98969 0.80165 0.0
O361 O 0.47343 0.98578 0.73568 0.0
O362 O 0.48458 0.02014 0.72377 0.0
H363 H 0.4972 0.92969 0.67905 0.0
H364 H 0.4821 0.03383 0.79879 0.0
O365 O 0.51959 0.05237 0.77604 0.0
H366 H 0.41467 0.06103 0.74904 0.0
H367 H 0.49253 0.11906 0.73893 0.0
H368 H 0.51174 0.04675 0.70034 0.0
H369 H 0.45483 0.05219 0.73178 0.0
H370 H 0.49257 0.08369 0.76153 0.0
O371 O 0.48755 0.96185 0.77704 0.0
H372 H 0.49688 0.96529 0.70141 0.0
H373 H 0.51464 0.93002 0.76387 0.0
H374 H 0.51168 0.0817 0.67706 0.0
H375 H 0.44242 0.04281 0.81679 0.0
H376 H 0.50202 0.1182 0.69635 0.0
H377 H 0.40826 0.05648 0.79188 0.0
O378 O 0.53454 0.02728 0.73545 0.0
H379 H 0.56429 0.97246 0.81874 0.0
H380 H 0.553 0.96022 0.73396 0.0
H381 H 0.59279 0.95163 0.75203 0.0
H382 H 0.59864 0.95761 0.79478 0.0
H383 H 0.52502 0.9812 0.79992 0.0
H384 H 0.51491 0.89402 0.74222 0.0
H385 H 0.50626 0.89371 0.69946 0.0
O386 O 0.52371 0.99245 0.72458 0.0
C387 C 0.47032 1.0031 0.72276 0.0
C388 C 0.50103 0.92961 0.69767 0.0
C389 C 0.51093 0.90958 0.73312 0.0
N390 N 0.50578 0.94979 0.73393 0.0
C391 C 0.5009 0.94973 0.71043 0.0
C392 C 0.51064 0.93002 0.74532 0.0
C393 C 0.50609 0.90942 0.70913 0.0
C394 C 0.46756 0.03998 0.7878 0.0
N395 N 0.47103 0.04261 0.76424 0.0
C396 C 0.44501 0.04495 0.79811 0.0
C397 C 0.42584 0.05259 0.78413 0.0
C398 C 0.42942 0.05513 0.7601 0.0
C399 C 0.45223 0.05002 0.75042 0.0
C400 C 0.49677 0.10326 0.73032 0.0
C401 C 0.50746 0.06254 0.70888 0.0
C402 C 0.49692 0.08317 0.74305 0.0
N403 N 0.50211 0.06312 0.73227 0.0
C404 C 0.50748 0.08229 0.69559 0.0
C405 C 0.50208 0.10276 0.70643 0.0
C406 C 0.53785 0.00954 0.7231 0.0
C407 C 0.56195 0.96969 0.80011 0.0
C408 C 0.55535 0.96304 0.75253 0.0
C409 C 0.57796 0.95806 0.76269 0.0
C410 C 0.58123 0.9614 0.78666 0.0
N411 N 0.53643 0.9711 0.76583 0.0
C412 C 0.53961 0.97451 0.78933 0.0
Co413 Co 1.00035 0.48302 0.76189 0.0
Co414 Co 0.00868 0.53958 0.76232 0.0
O415 O 0.00449 0.51141 0.74446 0.0
C416 C 0.02471 0.47004 0.71593 0.0
O417 O 0.02825 0.4912 0.71021 0.0
C418 C 0.98322 0.55345 0.71716 0.0
O419 O 0.97753 0.53257 0.71183 0.0
O420 O 0.97582 0.53442 0.77671 0.0
O421 O 0.98371 0.49923 0.7884 0.0
H422 H 0.0034 0.58684 0.83539 0.0
H423 H 0.98015 0.48736 0.71328 0.0
O424 O 0.01599 0.46494 0.73597 0.0
H425 H 0.91037 0.46432 0.76238 0.0
H426 H 0.98221 0.40022 0.7717 0.0
H427 H 0.00772 0.47021 0.81164 0.0
H428 H 0.95116 0.46967 0.77984 0.0
H429 H 0.98598 0.43574 0.74965 0.0
O430 O 0.99368 0.55806 0.73656 0.0
H431 H 0.99969 0.55205 0.81195 0.0
H432 H 0.02514 0.58656 0.75151 0.0
H433 H 0.00392 0.4351 0.83438 0.0
H434 H 0.93984 0.48183 0.69508 0.0
H435 H 0.99109 0.39976 0.81441 0.0
H436 H 0.90449 0.47026 0.71965 0.0
O437 O 0.03296 0.4881 0.77688 0.0
H438 H 0.0691 0.5411 0.69567 0.0
H439 H 0.05814 0.55221 0.78067 0.0
H440 H 0.09904 0.55703 0.76329 0.0
H441 H 0.10474 0.55157 0.72044 0.0
H442 H 0.02862 0.53613 0.71382 0.0
H443 H 0.02884 0.6218 0.77422 0.0
H444 H 0.01803 0.62206 0.81653 0.0
O445 O 0.0248 0.52312 0.78879 0.0
C446 C 0.9709 0.51719 0.78925 0.0
C447 C 0.00812 0.58695 0.81696 0.0
C448 C 0.02236 0.60658 0.78263 0.0
N449 N 0.01204 0.56726 0.78032 0.0
C450 C 0.00605 0.56729 0.80358 0.0
C451 C 0.02007 0.5866 0.76981 0.0
C452 C 0.01633 0.60671 0.80637 0.0
C453 C 0.96512 0.482 0.72411 0.0
N454 N 0.96832 0.47851 0.74757 0.0
C455 C 0.9422 0.47903 0.71369 0.0
C456 C 0.92236 0.47258 0.72749 0.0
C457 C 0.92565 0.46925 0.75144 0.0
C458 C 0.94884 0.47234 0.76123 0.0
C459 C 0.98782 0.4155 0.7806 0.0
C460 C 1.00205 0.45494 0.80281 0.0
C461 C 0.9901 0.43567 0.76819 0.0
N462 N 0.99703 0.45509 0.77934 0.0
C463 C 0.99997 0.43509 0.81579 0.0
C464 C 0.99279 0.41526 0.80457 0.0
C465 C 0.03765 0.50522 0.78974 0.0
C466 C 0.06685 0.54359 0.71435 0.0
C467 C 0.06042 0.54964 0.76205 0.0
C468 C 0.08366 0.55248 0.75228 0.0
C469 C 0.08684 0.54943 0.72826 0.0
N470 N 0.04084 0.54395 0.7483 0.0
C471 C 0.04389 0.54088 0.72474 0.0
Co472 Co 0.24661 0.53458 0.00936 0.0
Co473 Co 0.24598 0.47774 1.00279 0.0
O474 O 0.26466 0.50601 0.00612 0.0
C475 C 0.29428 0.54726 0.98515 0.0
O476 O 0.30081 0.52613 0.98253 0.0
C477 C 0.29324 0.46444 0.02726 0.0
O478 O 0.29965 0.48553 0.03058 0.0
O479 O 0.2304 0.48374 0.03385 0.0
O480 O 0.21892 0.51896 0.02571 0.0
H481 H 0.16954 0.43077 0.00766 0.0
H482 H 0.29735 0.53044 0.02845 0.0
O483 O 0.27349 0.55224 0.99384 0.0
H484 H 0.24685 0.55552 0.09508 0.0
H485 H 0.23643 0.61776 0.02494 0.0
H486 H 0.19481 0.54741 1.00159 0.0
H487 H 0.22832 0.54954 0.05623 0.0
H488 H 0.25937 0.58209 0.02232 0.0
O489 O 0.27254 0.45963 0.01826 0.0
H490 H 0.19392 0.46566 0.01045 0.0
H491 H 0.2578 0.4301 0.98965 0.0
H492 H 0.17113 0.58267 1.00423 0.0
H493 H 0.31668 0.53654 0.06685 0.0
H494 H 0.19195 0.61819 0.01597 0.0
H495 H 0.29139 0.54913 0.1006 0.0
O496 O 0.23104 0.52877 0.97826 0.0
H497 H 0.3162 0.47483 0.94555 0.0
H498 H 0.22752 0.46327 0.95579 0.0
H499 H 0.24608 0.45712 0.91699 0.0
H500 H 0.29078 0.46278 0.91166 0.0
H501 H 0.29685 0.48111 0.98391 0.0
H502 H 0.23416 0.39479 0.98688 0.0
H503 H 0.18967 0.39499 0.99581 0.0
O504 O 0.21864 0.49381 0.9864 0.0
C505 C 0.21763 0.50125 0.03829 0.0
C506 C 0.18891 0.43047 1.00371 0.0
C507 C 0.22518 0.41027 0.99208 0.0
N508 N 0.22726 0.44997 1.0002 0.0
C509 C 0.20281 0.45019 0.00523 0.0
C510 C 0.2385 0.43031 0.99378 0.0
C511 C 0.20022 0.41039 0.99707 0.0
C512 C 0.2862 0.53615 0.04284 0.0
N513 N 0.26172 0.53979 0.03985 0.0
C514 C 0.29726 0.53948 0.06465 0.0
C515 C 0.28307 0.54651 0.08359 0.0
C516 C 0.25809 0.55008 0.0805 0.0
C517 C 0.24768 0.5466 0.05843 0.0
C518 C 0.22715 0.60239 0.0198 0.0
C519 C 0.20401 0.56277 0.00677 0.0
C520 C 0.24007 0.58215 0.01818 0.0
N521 N 0.22845 0.56263 0.01183 0.0
C522 C 0.1905 0.5827 0.00821 0.0
C523 C 0.20219 0.60262 0.01478 0.0
C524 C 0.2179 0.5115 0.97376 0.0
C525 C 0.29672 0.4722 0.94766 0.0
C526 C 0.24696 0.46588 0.95367 0.0
C527 C 0.25738 0.46231 0.93163 0.0
C528 C 0.28245 0.46548 0.92865 0.0
N529 N 0.26107 0.47238 0.97233 0.0
C530 C 0.28564 0.47563 0.96945 0.0
Co531 Co 0.50676 0.25994 0.97457 0.0
Co532 Co 0.50069 0.26545 0.0337 0.0
O533 O 0.50244 0.24617 0.00556 0.0
C534 C 0.47752 0.21718 0.96592 0.0
O535 O 0.47464 0.21366 0.98845 0.0
C536 C 0.52615 0.22269 0.04861 0.0
O537 O 0.53457 0.21954 0.02734 0.0
O538 O 0.53396 0.27756 0.02652 0.0
O539 O 0.52711 0.28479 0.98854 0.0
H540 H 0.51093 0.33803 0.07835 0.0
H541 H 0.52185 0.21194 0.98267 0.0
O542 O 0.4874 0.23536 0.95866 0.0
H543 H 0.59479 0.24949 0.95043 0.0
H544 H 0.52098 0.26102 0.88722 0.0
H545 H 0.50434 0.30705 0.95751 0.0
H546 H 0.55667 0.2707 0.9565 0.0
H547 H 0.51686 0.24314 0.92598 0.0
O548 O 0.51458 0.24067 0.05372 0.0
H549 H 0.51204 0.31355 0.04342 0.0
H550 H 0.48681 0.25809 0.0838 0.0
H551 H 0.50862 0.32563 0.91911 0.0
H552 H 0.55928 0.18999 0.9763 0.0
H553 H 0.51699 0.30258 0.88361 0.0
H554 H 0.59626 0.20873 0.96016 0.0
O555 O 0.47618 0.27778 0.9798 0.0
H556 H 0.43668 0.205 0.04268 0.0
H557 H 0.45284 0.28672 0.04601 0.0
H558 H 0.41114 0.27264 0.05345 0.0
H559 H 0.40283 0.23149 0.05191 0.0
H560 H 0.47801 0.2198 0.03502 0.0
H561 H 0.48561 0.28195 0.1192 0.0
H562 H 0.49764 0.32226 0.11661 0.0
O563 O 0.48591 0.29081 0.01541 0.0
C564 C 0.53927 0.28776 0.00744 0.0
C565 C 0.50563 0.3205 0.07971 0.0
C566 C 0.49145 0.28902 0.10264 0.0
N567 N 0.4995 0.28439 0.06151 0.0
C568 C 0.50619 0.30654 0.05997 0.0
C569 C 0.49227 0.27556 0.08253 0.0
C570 C 0.49819 0.31164 0.10117 0.0
C571 C 0.53752 0.22026 0.97524 0.0
N572 N 0.53673 0.24267 0.96977 0.0
C573 C 0.55885 0.20771 0.97185 0.0
C574 C 0.5796 0.21824 0.96286 0.0
C575 C 0.5788 0.2411 0.95743 0.0
C576 C 0.55713 0.25308 0.96105 0.0
C577 C 0.51732 0.27125 0.90255 0.0
C578 C 0.50805 0.29689 0.94217 0.0
C579 C 0.51484 0.26121 0.92455 0.0
N580 N 0.51037 0.27404 0.94404 0.0
C581 C 0.51042 0.30752 0.92046 0.0
C582 C 0.5151 0.29457 0.90054 0.0
C583 C 0.47331 0.29173 0.99665 0.0
C584 C 0.44007 0.22296 0.04344 0.0
C585 C 0.44939 0.26879 0.04513 0.0
C586 C 0.42573 0.26092 0.04945 0.0
C587 C 0.42108 0.23783 0.0486 0.0
N588 N 0.46796 0.25411 0.04008 0.0
C589 C 0.4635 0.23146 0.03919 0.0
Co590 Co 0.7627 0.47736 0.00747 0.0
Co591 Co 0.76874 0.53374 1.00076 0.0
O592 O 0.74733 0.50715 1.0041 0.0
C593 C 0.71357 0.4684 0.98434 0.0
O594 O 0.70823 0.48994 0.9835 0.0
C595 C 0.72297 0.55059 0.02518 0.0
O596 O 0.71654 0.53009 0.03117 0.0
O597 O 0.78254 0.527 0.03233 0.0
O598 O 0.79153 0.49107 0.02425 0.0
H599 H 0.84911 0.57459 0.00722 0.0
H600 H 0.71253 0.48572 0.02722 0.0
O601 O 0.73441 0.46181 0.99162 0.0
H602 H 0.76102 0.45583 0.09288 0.0
H603 H 0.76537 0.39354 0.02174 0.0
H604 H 0.81339 0.46092 1.00056 0.0
H605 H 0.7797 0.46069 0.05398 0.0
H606 H 0.74558 0.43077 0.0192 0.0
O607 O 0.74329 0.55412 0.01488 0.0
H608 H 0.82146 0.54183 0.0099 0.0
H609 H 0.76187 0.58181 0.98645 0.0
H610 H 0.83396 0.42403 1.00316 0.0
H611 H 0.69307 0.48076 0.06561 0.0
H612 H 0.80991 0.39 0.01382 0.0
H613 H 0.71733 0.46576 0.09892 0.0
O614 O 0.77864 0.48199 0.97636 0.0
H615 H 0.70086 0.54103 0.94161 0.0
H616 H 0.79002 0.54544 0.954 0.0
H617 H 0.77321 0.55191 0.91454 0.0
H618 H 0.72829 0.54982 0.90812 0.0
H619 H 0.71846 0.53436 0.98071 0.0
H620 H 0.78882 0.61505 0.98377 0.0
H621 H 0.83282 0.61154 0.99408 0.0
O622 O 0.79511 0.51521 0.98559 0.0
C623 C 0.79365 0.50864 0.03711 0.0
C624 C 0.82997 0.57633 1.00266 0.0
C625 C 0.79614 0.59905 0.98953 0.0
N626 N 0.79006 0.55986 0.99833 0.0
C627 C 0.81423 0.55782 1.00412 0.0
C628 C 0.78093 0.58018 0.99121 0.0
C629 C 0.82082 0.59706 0.9953 0.0
C630 C 0.72322 0.47885 0.0413 0.0
N631 N 0.7472 0.4732 0.03799 0.0
C632 C 0.71208 0.47621 0.06317 0.0
C633 C 0.7257 0.46785 0.08186 0.0
C634 C 0.7502 0.46228 0.07848 0.0
C635 C 0.76069 0.46511 0.05636 0.0
C636 C 0.77605 0.40824 0.0171 0.0
C637 C 0.80281 0.44622 0.0053 0.0
C638 C 0.76493 0.42937 0.01554 0.0
N639 N 0.77834 0.44805 0.00983 0.0
C640 C 0.81455 0.42536 0.00671 0.0
C641 C 0.80104 0.40627 0.01266 0.0
C642 C 0.79361 0.498 0.97226 0.0
C643 C 0.72045 0.54206 0.94419 0.0
C644 C 0.77046 0.54441 0.9514 0.0
C645 C 0.76104 0.54815 0.92899 0.0
C646 C 0.73585 0.54697 0.9254 0.0
N647 N 0.75524 0.5396 0.96979 0.0
C648 C 0.73053 0.53837 0.96635 0.0
Co649 Co 0.51375 0.74525 0.03062 0.0
Co650 Co 0.50587 0.75219 0.97224 0.0
O651 O 0.51074 0.76544 1.00345 0.0
C652 C 0.48712 0.78641 0.0485 0.0
O653 O 0.47523 0.78867 0.02866 0.0
C654 C 0.53289 0.79622 0.96399 0.0
O655 O 0.53621 0.79943 0.98653 0.0
O656 O 0.53741 0.73544 0.97605 0.0
O657 O 0.52798 0.72057 0.01085 0.0
H658 H 0.50519 0.68785 0.91475 0.0
H659 H 0.5362 0.79085 0.03288 0.0
O660 O 0.50082 0.76939 0.05192 0.0
H661 H 0.60404 0.73791 0.04713 0.0
H662 H 0.5322 0.72571 0.11475 0.0
H663 H 0.5025 0.69693 0.03874 0.0
H664 H 0.56215 0.72381 0.04069 0.0
H665 H 0.52974 0.75079 0.08045 0.0
O666 O 0.52348 0.77789 0.95648 0.0
H667 H 0.51005 0.70565 0.95357 0.0
H668 H 0.49302 0.76968 0.92462 0.0
H669 H 0.50485 0.67123 0.07254 0.0
H670 H 0.57776 0.80568 0.03954 0.0
H671 H 0.51979 0.68557 0.1109 0.0
H672 H 0.61207 0.77913 0.04666 0.0
O673 O 0.48019 0.73343 0.024 0.0
H674 H 0.44989 0.81957 0.97832 0.0
H675 H 0.45584 0.73947 0.95597 0.0
H676 H 0.41644 0.75914 0.95196 0.0
H677 H 0.41328 0.79956 0.96299 0.0
H678 H 0.48872 0.7992 0.98253 0.0
H679 H 0.48825 0.75259 0.88546 0.0
H680 H 0.49422 0.71137 0.88035 0.0
O681 O 0.48717 0.72627 0.98606 0.0
C682 C 0.54078 0.72089 0.99218 0.0
C683 C 0.50252 0.70583 0.91676 0.0
C684 C 0.49305 0.74216 0.90031 0.0
N685 N 0.5018 0.73868 0.94142 0.0
C686 C 0.50523 0.71601 0.93871 0.0
C687 C 0.49589 0.75176 0.92253 0.0
C688 C 0.49638 0.71903 0.89746 0.0
C689 C 0.55096 0.77918 0.03607 0.0
N690 N 0.54667 0.75649 0.03633 0.0
C691 C 0.57449 0.78768 0.0398 0.0
C692 C 0.59374 0.77278 0.04378 0.0
C693 C 0.58925 0.74966 0.04403 0.0
C694 C 0.56547 0.74177 0.04028 0.0
C695 C 0.52564 0.71926 0.09813 0.0
C696 C 0.50905 0.70333 0.05534 0.0
C697 C 0.5241 0.73342 0.07866 0.0
N698 N 0.51597 0.72538 0.05756 0.0
C699 C 0.51033 0.68868 0.07444 0.0
C700 C 0.51869 0.69674 0.09596 0.0
C701 C 0.47483 0.72332 0.00484 0.0
C702 C 0.45109 0.80202 0.97322 0.0
C703 C 0.45471 0.75705 0.96085 0.0
C704 C 0.4323 0.76811 0.95851 0.0
C705 C 0.43054 0.79077 0.96469 0.0
N706 N 0.47493 0.76824 0.96899 0.0
C707 C 0.4732 0.7904 0.97534 0.0
H708 H 0.98275 0.29067 0.43253 0.0
H709 H 0.9774 0.3216 0.40531 0.0
H710 H 0.04166 0.3543 0.43322 0.0
H711 H 0.04683 0.32331 0.46145 0.0
H712 H 0.00377 0.38427 0.42555 0.0
H713 H 0.01713 0.33104 0.34683 0.0
H714 H 0.99327 0.32038 0.36531 0.0
H715 H 0.0243 0.32125 0.37594 0.0
C716 C 0.99601 0.30425 0.43286 0.0
C717 C 0.01554 0.30425 0.44898 0.0
C718 C 0.99287 0.32199 0.41719 0.0
C719 C 0.00942 0.34004 0.4168 0.0
C720 C 0.02876 0.34042 0.43309 0.0
H721 H 0.02097 0.42875 0.29849 0.0
H722 H 0.02654 0.40184 0.32986 0.0
C723 C 0.03178 0.32267 0.44911 0.0
C724 C 0.00627 0.3583 0.39922 0.0
H725 H 0.99949 0.36721 0.34049 0.0
C726 C 0.00305 0.38062 0.40692 0.0
C727 C 0.00551 0.35357 0.37489 0.0
C728 C 0.01049 0.3303 0.36523 0.0
C729 C 0.99874 0.39827 0.39095 0.0
C730 C 0.99703 0.39334 0.36669 0.0
C731 C 1.00047 0.37102 0.35908 0.0
C732 C 0.99354 0.41104 0.34851 0.0
C733 C 0.99664 0.42204 0.40016 0.0
C734 C 0.97308 0.42548 0.34844 0.0
C735 C 0.9699 0.44131 0.33037 0.0
C736 C 0.98685 0.44256 0.31187 0.0
C737 C 0.00724 0.42807 0.31215 0.0
C738 C 0.01056 0.41265 0.33022 0.0
H739 H 0.00461 0.4237 0.418 0.0
H740 H 0.00598 0.43416 0.38834 0.0
H741 H 0.97703 0.42675 0.40121 0.0
H742 H 0.95938 0.42427 0.3621 0.0
H743 H 0.95404 0.45225 0.33066 0.0
H744 H 0.67845 0.9789 0.45877 0.0
H745 H 0.65058 0.9775 0.42571 0.0
H746 H 0.67662 0.0423 0.40232 0.0
H747 H 0.70528 0.04376 0.43555 0.0
H748 H 0.61324 0.00678 0.4149 0.0
H749 H 0.68173 1.00274 0.34294 0.0
H750 H 0.68966 0.99775 0.37323 0.0
H751 H 0.68519 0.02603 0.3629 0.0
C752 C 0.67846 0.99293 0.44666 0.0
C753 C 0.69431 0.01144 0.44984 0.0
C754 C 0.66241 0.99205 0.4277 0.0
C755 C 0.66173 0.00959 0.41134 0.0
C756 C 0.67719 0.02834 0.41451 0.0
H757 H 0.5511 0.03952 0.31028 0.0
H758 H 0.5833 0.03923 0.33957 0.0
C759 C 0.6934 0.02925 0.43361 0.0
C760 C 0.64415 0.00825 0.39152 0.0
H761 H 0.63993 1.0053 0.33175 0.0
C762 C 0.61911 0.0064 0.39674 0.0
C763 C 0.65186 0.00746 0.36783 0.0
C764 C 0.67858 0.0084 0.36128 0.0
C765 C 0.60156 1.00418 0.37893 0.0
C766 C 0.60921 1.00386 0.35528 0.0
C767 C 0.63421 1.00544 0.34996 0.0
C768 C 0.59109 1.00372 0.336 0.0
C769 C 0.57486 1.00237 0.38539 0.0
C770 C 0.58502 0.98376 0.32401 0.0
C771 C 0.56638 0.98376 0.30703 0.0
C772 C 0.55365 1.00376 0.30185 0.0
C773 C 0.56039 0.02374 0.31365 0.0
C774 C 0.57886 0.02369 0.33047 0.0
H775 H 0.57218 0.99974 0.4045 0.0
H776 H 0.56531 0.01812 0.38027 0.0
H777 H 0.56615 0.98822 0.37571 0.0
H778 H 0.59429 0.96814 0.32817 0.0
H779 H 0.56166 0.9681 0.29835 0.0
H780 H 0.02876 0.58838 0.29085 0.0
H781 H 0.02 0.61693 0.32056 0.0
H782 H 0.01706 0.56535 0.37364 0.0
H783 H 0.02613 0.53664 0.34401 0.0
H784 H 0.97698 0.61753 0.3457 0.0
H785 H 0.05655 0.61461 0.40623 0.0
H786 H 0.05742 0.60248 0.37718 0.0
H787 H 0.04235 0.58781 0.40064 0.0
C788 C 0.02691 0.58314 0.30895 0.0
C789 C 0.02815 0.56019 0.31503 0.0
C790 C 0.02178 0.5995 0.32591 0.0
C791 C 0.01786 0.59333 0.34935 0.0
C792 C 0.02039 0.57059 0.35575 0.0
H793 H 0.97165 0.67498 0.4698 0.0
H794 H 0.97906 0.64293 0.44355 0.0
C795 C 0.02564 0.55417 0.33876 0.0
C796 C 0.00901 0.61045 0.36645 0.0
H797 H 0.02285 0.63705 0.41798 0.0
C798 C 0.98705 0.6218 0.36149 0.0
C799 C 0.02197 0.61586 0.38719 0.0
C800 C 0.04599 0.60472 0.39311 0.0
C801 C 0.97781 0.6385 0.37657 0.0
C802 C 0.99102 0.64425 0.39704 0.0
C803 C 0.0127 0.63257 0.40231 0.0
C804 C 0.98356 0.66329 0.41243 0.0
C805 C 0.95389 0.64977 0.3705 0.0
C806 C 0.98309 0.68534 0.40356 0.0
C807 C 0.97877 0.70364 0.41846 0.0
C808 C 0.97494 0.70033 0.44261 0.0
C809 C 0.97426 0.67814 0.45127 0.0
C810 C 0.97871 0.65981 0.43633 0.0
H811 H 0.9427 0.63919 0.35849 0.0
H812 H 0.94302 0.65342 0.38651 0.0
H813 H 0.95772 0.66597 0.36151 0.0
H814 H 0.98713 0.68849 0.38527 0.0
H815 H 0.97951 0.72049 0.4112 0.0
H816 H 0.34101 0.01023 0.47464 0.0
H817 H 0.36648 0.01331 0.43969 0.0
H818 H 0.30994 0.98145 0.39852 0.0
H819 H 0.28428 0.978 0.43385 0.0
H820 H 0.35779 0.96779 0.3862 0.0
H821 H 0.35091 0.06071 0.38973 0.0
H822 H 0.36177 0.04918 0.41686 0.0
H823 H 0.33139 0.04246 0.40682 0.0
C824 C 0.33421 1.00338 0.45825 0.0
C825 C 0.31067 0.99387 0.45693 0.0
C826 C 0.34866 1.0054 0.43824 0.0
C827 C 0.3398 0.99827 0.41638 0.0
C828 C 0.31699 0.98731 0.4152 0.0
H829 H 0.42259 0.04044 0.29004 0.0
H830 H 0.38859 0.03628 0.31815 0.0
C831 C 0.30248 0.98511 0.4354 0.0
C832 C 0.35436 1.00295 0.39495 0.0
H833 H 0.38389 0.04566 0.36634 0.0
C834 C 0.36319 0.98482 0.38162 0.0
C835 C 0.36092 0.02524 0.38858 0.0
C836 C 0.35053 0.04552 0.4011 0.0
C837 C 0.37975 0.9883 0.36312 0.0
C838 C 0.38803 0.01043 0.35816 0.0
C839 C 0.37788 0.02868 0.37041 0.0
C840 C 0.40869 0.01463 0.34181 0.0
C841 C 0.3886 0.96815 0.34933 0.0
C842 C 0.43149 1.00478 0.3464 0.0
C843 C 0.45073 0.0072 0.3306 0.0
C844 C 0.44778 0.01975 0.30989 0.0
C845 C 0.42543 0.03082 0.30593 0.0
C846 C 0.40598 0.02828 0.32184 0.0
H847 H 0.37508 0.95416 0.34985 0.0
H848 H 0.39218 0.97262 0.33074 0.0
H849 H 0.4059 0.9619 0.35716 0.0
H850 H 0.43426 0.99477 0.36204 0.0
H851 H 0.4678 0.99863 0.33429 0.0
H852 H 0.99722 0.59735 0.72197 0.0
H853 H 1.00199 0.62545 0.69165 0.0
H854 H 0.97114 0.57961 0.64079 0.0
H855 H 0.96784 0.55044 0.67113 0.0
H856 H 0.0095 0.59965 0.62266 0.0
H857 H 0.95315 0.6659 0.66362 0.0
H858 H 0.9769 0.65754 0.68337 0.0
H859 H 0.9537 0.6375 0.67472 0.0
C860 C 0.99129 0.5931 0.70443 0.0
C861 C 0.98223 0.57146 0.69908 0.0
C862 C 0.9938 0.60942 0.68705 0.0
C863 C 0.98649 0.60494 0.66393 0.0
C864 C 0.97683 0.58354 0.65853 0.0
H865 H 0.97522 0.71684 0.56784 0.0
H866 H 0.9682 0.6851 0.59357 0.0
C867 C 0.97475 0.56693 0.67593 0.0
C868 C 0.99001 0.6224 0.64547 0.0
H869 H 0.98186 0.6784 0.63452 0.0
C870 C 0.00314 0.61682 0.62507 0.0
C871 C 0.9815 0.64478 0.64836 0.0
C872 C 0.9653 0.65168 0.66859 0.0
C873 C 0.0084 0.63305 0.60778 0.0
C874 C 1.00118 0.65574 0.61142 0.0
C875 C 0.98776 0.66115 0.63171 0.0
C876 C 0.00597 0.67407 0.5941 0.0
C877 C 0.02109 0.6255 0.58563 0.0
C878 C 0.02961 0.67859 0.58533 0.0
C879 C 0.03358 0.69657 0.56976 0.0
C880 C 0.01415 0.7108 0.56337 0.0
C881 C 0.99068 0.70633 0.57238 0.0
C882 C 0.98661 0.68811 0.58724 0.0
H883 H 0.01832 0.60719 0.58238 0.0
H884 H 0.01437 0.63494 0.57014 0.0
H885 H 0.04106 0.62846 0.58742 0.0
H886 H 0.04506 0.66851 0.59082 0.0
H887 H 0.05188 0.69968 0.56322 0.0
H888 H 0.46321 0.03495 0.6891 0.0
H889 H 0.43102 0.03688 0.65987 0.0
H890 H 0.40046 0.9746 0.68549 0.0
H891 H 0.4329 0.97248 0.71533 0.0
H892 H 0.4208 1.00458 0.62459 0.0
H893 H 0.34144 0.01945 0.68376 0.0
H894 H 0.37272 0.02373 0.69305 0.0
H895 H 0.36059 0.9957 0.69063 0.0
C896 C 0.44969 0.02159 0.68873 0.0
C897 C 0.45068 1.00354 0.70474 0.0
C898 C 0.43126 0.02278 0.67191 0.0
C899 C 0.41321 1.00606 0.67066 0.0
C900 C 0.41405 0.98788 0.68642 0.0
H901 H 0.31458 0.97879 0.55692 0.0
H902 H 0.34362 0.97787 0.58915 0.0
C903 C 0.43267 0.98661 0.70334 0.0
C904 C 0.39414 0.00761 0.65221 0.0
H905 H 0.3329 0.01571 0.6432 0.0
C906 C 0.40158 0.00699 0.62866 0.0
C907 C 0.36914 0.01109 0.65759 0.0
C908 C 0.36037 0.01273 0.68261 0.0
C909 C 0.38466 0.00943 0.61035 0.0
C910 C 0.35964 0.0125 0.6157 0.0
C911 C 0.35215 0.0134 0.63922 0.0
C912 C 0.34097 0.01344 0.59692 0.0
C913 C 0.3936 0.00875 0.58532 0.0
C914 C 0.32958 0.03381 0.59078 0.0
C915 C 0.31286 0.03452 0.5721 0.0
C916 C 0.30719 0.01478 0.55946 0.0
C917 C 0.31842 0.99439 0.56611 0.0
C918 C 0.33509 0.99376 0.58459 0.0
H919 H 0.41382 0.0104 0.58417 0.0
H920 H 0.38824 0.99244 0.57723 0.0
H921 H 0.38503 0.02244 0.57492 0.0
H922 H 0.33396 0.04919 0.60016 0.0
H923 H 0.30453 0.05046 0.56749 0.0
H924 H 0.97021 0.33785 0.54111 0.0
H925 H 0.97777 0.36983 0.56743 0.0
H926 H 0.98463 0.32427 0.62582 0.0
H927 H 0.97691 0.29227 0.59979 0.0
H928 H 0.95769 0.36485 0.63563 0.0
H929 H 0.04776 0.38161 0.59355 0.0
H930 H 0.02169 0.38078 0.57432 0.0
H931 H 0.03118 0.3556 0.58915 0.0
C932 C 0.97274 0.33465 0.55964 0.0
C933 C 0.9731 0.31246 0.5683 0.0
C934 C 0.97734 0.35295 0.57461 0.0
C935 C 0.98229 0.34937 0.59848 0.0
C936 C 0.98107 0.32739 0.60742 0.0
H937 H 0.0236 0.42443 0.72209 0.0
H938 H 0.01431 0.39574 0.69264 0.0
C939 C 0.97661 0.30912 0.5925 0.0
C940 C 0.98977 0.36827 0.61406 0.0
H941 H 0.03626 0.40558 0.6247 0.0
C942 C 0.97482 0.37382 0.6332 0.0
C943 C 0.01214 0.37994 0.61084 0.0
C944 C 0.02929 0.37416 0.59098 0.0
C945 C 0.9816 0.39074 0.64922 0.0
C946 C 0.00425 0.40206 0.64634 0.0
C947 C 0.01899 0.39682 0.62694 0.0
C948 C 0.01297 0.4191 0.66359 0.0
C949 C 0.96429 0.3965 0.66897 0.0
C950 C 0.01687 0.44158 0.65684 0.0
C951 C 0.0225 0.45806 0.67365 0.0
C952 C 0.02433 0.45231 0.69752 0.0
C953 C 0.02207 0.4295 0.70392 0.0
C954 C 0.01655 0.41308 0.68712 0.0
H955 H 0.94527 0.39102 0.66503 0.0
H956 H 0.97028 0.38772 0.68514 0.0
H957 H 0.96421 0.41491 0.67253 0.0
H958 H 0.01446 0.44655 0.63872 0.0
H959 H 0.02404 0.47546 0.66811 0.0
H960 H 0.54799 0.97481 0.69334 0.0
H961 H 0.57924 0.97264 0.66331 0.0
H962 H 0.6032 0.03996 0.68043 0.0
H963 H 0.57189 0.04223 0.71133 0.0
H964 H 0.58323 0.99951 0.62471 0.0
H965 H 0.66765 1.00396 0.67889 0.0
H966 H 0.63789 0.99814 0.69128 0.0
H967 H 0.64614 0.02646 0.68349 0.0
C968 C 0.55996 0.9892 0.69106 0.0
C969 C 0.55741 0.00871 0.70498 0.0
C970 C 0.57787 0.98787 0.67375 0.0
C971 C 0.59376 1.00599 0.66976 0.0
C972 C 0.59142 0.02559 0.68352 0.0
H973 H 0.67565 0.029 0.54359 0.0
H974 H 0.64785 0.02946 0.57677 0.0
C975 C 0.57342 0.02692 0.70106 0.0
C976 C 0.61175 1.00443 0.65029 0.0
H977 H 0.6729 1.00416 0.63755 0.0
C978 C 0.60283 1.00051 0.62755 0.0
C979 C 0.63733 1.00536 0.65406 0.0
C980 C 0.64794 0.00851 0.67826 0.0
C981 C 0.61873 0.9978 0.60845 0.0
C982 C 0.64428 0.99939 0.61208 0.0
C983 C 0.65329 1.00297 0.63484 0.0
C984 C 0.66168 0.99873 0.59213 0.0
C985 C 0.60804 0.9931 0.58453 0.0
C986 C 0.67903 0.98137 0.58987 0.0
C987 C 0.69519 0.98101 0.57072 0.0
C988 C 0.69435 0.99814 0.55372 0.0
C989 C 0.6769 0.01545 0.55623 0.0
C990 C 0.66086 0.01576 0.57521 0.0
H991 H 0.5891 0.98638 0.58573 0.0
H992 H 0.6074 0.00902 0.57437 0.0
H993 H 0.61948 0.98084 0.57468 0.0
H994 H 0.67997 0.96809 0.60284 0.0
H995 H 0.70849 0.96754 0.56941 0.0
H996 H 0.42794 0.29167 0.97574 0.0
H997 H 0.39635 0.32115 0.97945 0.0
H998 H 0.44698 0.36286 0.01803 0.0
H999 H 0.47824 0.33366 0.01469 0.0
H1000 H 0.38491 0.34126 0.0318 0.0
H1001 H 0.41132 0.40206 0.96195 0.0
H1002 H 0.41672 0.3721 0.95913 0.0
H1003 H 0.43524 0.38862 0.9786 0.0
C1004 C 0.43242 0.30736 0.9845 0.0
C1005 C 0.4555 0.31039 0.99492 0.0
C1006 C 0.41438 0.32407 0.98674 0.0
C1007 C 0.41943 0.34412 0.99901 0.0
C1008 C 0.44279 0.34754 0.00844 0.0
H1009 H 0.34305 0.46826 0.03302 0.0
H1010 H 0.3736 0.4384 0.02802 0.0
C1011 C 0.4606 0.33083 0.00651 0.0
C1012 C 0.40006 0.36096 1.00371 0.0
H1013 H 0.38092 0.41374 0.98874 0.0
C1014 C 0.38378 0.35703 0.02226 0.0
C1015 C 0.39912 0.38164 0.99155 0.0
C1016 C 0.41642 0.38651 0.9716 0.0
C1017 C 0.36671 0.37344 0.02923 0.0
C1018 C 0.36553 0.39413 0.01691 0.0
C1019 C 0.38183 0.39795 0.99825 0.0
C1020 C 0.34707 0.41177 0.02254 0.0
C1021 C 0.35068 0.3687 0.0502 0.0
C1022 C 0.32201 0.4067 0.02162 0.0
C1023 C 0.30457 0.42362 0.0248 0.0
C1024 C 0.31174 0.44616 0.02855 0.0
C1025 C 0.33686 0.4511 0.03032 0.0
C1026 C 0.35435 0.43407 0.02727 0.0
H1027 H 0.35907 0.35592 0.06193 0.0
H1028 H 0.34719 0.38426 0.06052 0.0
H1029 H 0.33286 0.3619 0.04409 0.0
H1030 H 0.31587 0.38978 0.01754 0.0
H1031 H 0.28541 0.41913 0.02336 0.0
H1032 H 0.28597 0.59256 0.98721 0.0
H1033 H 0.31609 0.62258 0.99083 0.0
H1034 H 0.37435 0.57427 0.98229 0.0
H1035 H 0.34415 0.54376 0.97946 0.0
H1036 H 0.38225 0.60239 0.01966 0.0
H1037 H 0.35726 0.65288 0.94169 0.0
H1038 H 0.33173 0.64786 0.96073 0.0
H1039 H 0.34624 0.62452 0.94607 0.0
C1040 C 0.30517 0.58824 0.9858 0.0
C1041 C 0.3126 0.56566 0.98309 0.0
C1042 C 0.3224 0.60553 0.98775 0.0
C1043 C 0.34751 0.60077 0.98663 0.0
C1044 C 0.35505 0.57835 0.98318 0.0
H1045 H 0.46306 0.69625 0.96796 0.0
H1046 H 0.4322 0.66708 0.96577 0.0
C1047 C 0.33776 0.56095 0.98134 0.0
C1048 C 0.36576 0.61908 0.99013 0.0
H1049 H 0.3836 0.6705 0.96944 0.0
C1050 C 0.38265 0.61725 0.00861 0.0
C1051 C 0.3663 0.63845 0.9757 0.0
C1052 C 0.34957 0.64099 0.9548 0.0
C1053 C 0.40006 0.63424 0.01304 0.0
C1054 C 0.40023 0.65381 0.9989 0.0
C1055 C 0.38327 0.65564 0.98048 0.0
C1056 C 0.41924 0.67164 1.00128 0.0
C1057 C 0.41853 0.63077 0.03236 0.0
C1058 C 0.42234 0.68414 0.02209 0.0
C1059 C 0.44038 0.70101 0.02355 0.0
C1060 C 0.45538 0.70577 1.00412 0.0
C1061 C 0.45194 0.69324 0.98335 0.0
C1062 C 0.43419 0.67646 0.98199 0.0
H1063 H 0.41938 0.61288 0.03803 0.0
H1064 H 0.43707 0.63612 0.02664 0.0
H1065 H 0.41329 0.64115 0.04777 0.0
H1066 H 0.4107 0.68101 0.0371 0.0
H1067 H 0.44248 0.71035 0.03977 0.0
H1068 H 0.5592 0.30761 0.96894 0.0
H1069 H 0.58854 0.33803 0.96706 0.0
H1070 H 0.59103 0.34085 0.04262 0.0
H1071 H 0.56235 0.30898 0.04469 0.0
H1072 H 0.58331 0.37941 0.9807 0.0
H1073 H 0.66265 0.34289 0.02805 0.0
H1074 H 0.63666 0.32612 0.01927 0.0
H1075 H 0.63494 0.34374 0.04492 0.0
C1076 C 0.56634 0.31414 0.98528 0.0
C1077 C 0.55858 0.30545 0.00701 0.0
C1078 C 0.58304 0.33184 0.98413 0.0
C1079 C 0.59224 0.34175 0.00464 0.0
C1080 C 0.58467 0.33319 0.02649 0.0
H1081 H 0.66499 0.4738 0.99424 0.0
H1082 H 0.63461 0.44398 0.99977 0.0
C1083 C 0.56817 0.31501 0.02767 0.0
C1084 C 0.60891 0.36156 1.00257 0.0
H1085 H 0.66616 0.38083 0.01599 0.0
C1086 C 0.60144 0.37971 0.98845 0.0
C1087 C 0.63265 0.36193 0.01249 0.0
C1088 C 0.64235 0.34256 0.02685 0.0
C1089 C 0.61715 0.39783 0.98344 0.0
C1090 C 0.64078 0.39836 0.9936 0.0
C1091 C 0.64806 0.38048 0.00819 0.0
C1092 C 0.65858 0.41685 0.98883 0.0
C1093 C 0.60853 0.41567 0.96652 0.0
C1094 C 0.6823 0.41167 0.98099 0.0
C1095 C 0.6998 0.42866 0.97821 0.0
C1096 C 0.6939 0.45127 0.98294 0.0
C1097 C 0.66992 0.45661 0.98991 0.0
C1098 C 0.65252 0.43953 0.99311 0.0
H1099 H 0.59364 0.40929 0.955 0.0
H1100 H 0.60118 0.43021 0.97655 0.0
H1101 H 0.62374 0.42174 0.95526 0.0
H1102 H 0.68747 0.39435 0.97751 0.0
H1103 H 0.7182 0.42401 0.97303 0.0
H1104 H 0.73103 0.59513 0.01579 0.0
H1105 H 0.70051 0.62453 0.00968 0.0
H1106 H 0.64321 0.57799 0.02857 0.0
H1107 H 0.67367 0.54825 0.03457 0.0
H1108 H 0.66103 0.62105 0.97638 0.0
H1109 H 0.62831 0.63584 0.06737 0.0
H1110 H 0.65714 0.62226 0.061 0.0
H1111 H 0.629 0.60685 0.05812 0.0
C1112 C 0.71198 0.59113 0.01896 0.0
C1113 C 0.70483 0.56922 0.02556 0.0
C1114 C 0.69456 0.608 0.0154 0.0
C1115 C 0.66962 0.60346 0.01865 0.0
C1116 C 0.66241 0.58191 0.02618 0.0
H1117 H 0.53534 0.67737 0.00465 0.0
H1118 H 0.56724 0.64891 0.0085 0.0
C1119 C 0.67986 0.56494 0.02966 0.0
C1120 C 0.65114 0.62093 0.01293 0.0
H1121 H 0.60616 0.65348 0.03688 0.0
C1122 C 0.64906 0.62825 0.98959 0.0
C1123 C 0.63564 0.63028 0.0302 0.0
C1124 C 0.63766 0.6236 0.05563 0.0
C1125 C 0.63138 0.64422 0.98294 0.0
C1126 C 0.61571 0.65347 1.00021 0.0
C1127 C 0.6181 0.64635 0.02361 0.0
C1128 C 0.5961 0.66996 0.99453 0.0
C1129 C 0.62913 0.65051 0.95742 0.0
C1130 C 0.60149 0.69113 0.98463 0.0
C1131 C 0.58304 0.7074 0.982 0.0
C1132 C 0.55912 0.7028 0.98962 0.0
C1133 C 0.55365 0.68133 0.99858 0.0
C1134 C 0.57189 0.66509 1.00091 0.0
H1135 H 0.63791 0.6378 0.94582 0.0
H1136 H 0.60963 0.65227 0.95223 0.0
H1137 H 0.63836 0.66692 0.95446 0.0
H1138 H 0.62011 0.69547 0.97999 0.0
H1139 H 0.58778 0.72398 0.97549 0.0
H1140 H 0.53171 0.79503 0.91616 0.0
H1141 H 0.52368 0.82635 0.88967 0.0
H1142 H 0.52628 0.87279 0.94788 0.0
H1143 H 0.53395 0.84136 0.97471 0.0
H1144 H 0.48418 0.87718 0.92073 0.0
H1145 H 0.56632 0.8767 0.86388 0.0
H1146 H 0.55219 0.84947 0.86618 0.0
H1147 H 0.56541 0.86242 0.89179 0.0
C1148 C 0.53113 0.81195 0.92333 0.0
C1149 C 0.53348 0.81564 0.94761 0.0
C1150 C 0.52661 0.82989 0.9081 0.0
C1151 C 0.52452 0.85197 0.91673 0.0
C1152 C 0.5279 0.85589 0.94082 0.0
H1153 H 0.48038 0.97583 0.84429 0.0
H1154 H 0.48976 0.94823 0.87484 0.0
C1155 C 0.5325 0.83791 0.95611 0.0
C1156 C 0.51689 0.87052 0.90082 0.0
H1157 H 0.53143 0.89655 0.84931 0.0
C1158 C 0.49465 0.88164 0.90527 0.0
C1159 C 0.53051 0.87628 0.8806 0.0
C1160 C 0.55505 0.86575 0.87542 0.0
C1161 C 0.48525 0.89775 0.88959 0.0
C1162 C 0.4986 0.90307 0.86909 0.0
C1163 C 0.52109 0.89232 0.86494 0.0
C1164 C 0.48958 0.91948 0.85141 0.0
C1165 C 0.46073 0.90836 0.89466 0.0
C1166 C 0.48587 0.91248 0.82817 0.0
C1167 C 0.48049 0.92819 0.81069 0.0
C1168 C 0.47888 0.95132 0.81603 0.0
C1169 C 0.48122 0.95815 0.83958 0.0
C1170 C 0.48665 0.94237 0.85709 0.0
H1171 H 0.4503 0.89875 0.90806 0.0
H1172 H 0.4636 0.92572 0.90142 0.0
H1173 H 0.44954 0.90948 0.87846 0.0
H1174 H 0.48796 0.8949 0.82339 0.0
H1175 H 0.47872 0.9223 0.79278 0.0
H1176 H 0.21113 0.54391 0.9396 0.0
H1177 H 0.18152 0.54286 0.90708 0.0
H1178 H 0.15516 0.47839 0.93103 0.0
H1179 H 0.18398 0.47932 0.96336 0.0
H1180 H 0.17513 0.50817 0.8707 0.0
H1181 H 0.09323 0.51812 0.92735 0.0
H1182 H 0.12374 0.5249 0.93729 0.0
H1183 H 0.11363 0.49607 0.9364 0.0
C1184 C 0.19892 0.5296 0.93798 0.0
C1185 C 0.19994 0.51179 0.95421 0.0
C1186 C 0.18213 0.52896 0.91935 0.0
C1187 C 0.16603 0.51062 0.91682 0.0
C1188 C 0.16719 0.49282 0.93284 0.0
H1189 H 0.07168 0.47163 0.79835 0.0
H1190 H 0.10399 0.47191 0.82846 0.0
C1191 C 0.18381 0.49342 0.95133 0.0
C1192 C 0.14767 0.50987 0.8977 0.0
H1193 H 0.08612 0.50733 0.88786 0.0
C1194 C 0.15566 0.50811 0.87437 0.0
C1195 C 0.1223 0.50981 0.9026 0.0
C1196 C 0.11263 0.51253 0.92724 0.0
C1197 C 0.13885 0.50606 0.85578 0.0
C1198 C 0.11349 0.5055 0.86077 0.0
C1199 C 0.10558 0.50745 0.8841 0.0
C1200 C 0.09464 0.50491 0.84205 0.0
C1201 C 0.14827 0.50499 0.83095 0.0
C1202 C 0.0785 0.5231 0.84003 0.0
C1203 C 0.0601 0.5229 0.82317 0.0
C1204 C 0.05726 0.50447 0.80777 0.0
C1205 C 0.07338 0.4861 0.80985 0.0
C1206 C 0.09194 0.48632 0.82691 0.0
H1207 H 0.16787 0.50985 0.8298 0.0
H1208 H 0.14633 0.48751 0.82424 0.0
H1209 H 0.13744 0.51624 0.81938 0.0
H1210 H 0.08015 0.53757 0.85156 0.0
H1211 H 0.04807 0.53737 0.82231 0.0
H1212 H 0.52727 0.09223 0.79154 0.0
H1213 H 0.51931 0.11973 0.82246 0.0
H1214 H 0.52174 0.06689 0.8742 0.0
H1215 H 0.52937 0.03909 0.84321 0.0
H1216 H 0.4796 0.09357 0.87698 0.0
H1217 H 0.56249 0.14729 0.87325 0.0
H1218 H 0.54832 0.14331 0.84516 0.0
H1219 H 0.56129 0.11954 0.86023 0.0
C1220 C 0.52665 0.08647 0.80953 0.0
C1221 C 0.52897 0.06341 0.81485 0.0
C1222 C 0.52216 0.10226 0.82723 0.0
C1223 C 0.52006 0.09542 0.85069 0.0
C1224 C 0.52335 0.07256 0.85622 0.0
H1225 H 0.47719 0.17192 0.97582 0.0
H1226 H 0.48569 0.14111 0.9484 0.0
C1227 C 0.52793 0.05671 0.83849 0.0
C1228 C 0.51259 0.11191 0.86901 0.0
H1229 H 0.52798 0.16259 0.89343 0.0
C1230 C 0.4903 0.10854 0.8808 0.0
C1231 C 0.52651 0.13147 0.87392 0.0
C1232 C 0.5511 0.13556 0.86265 0.0
C1233 C 0.48116 0.12459 0.89675 0.0
C1234 C 0.49484 0.14438 0.90126 0.0
C1235 C 0.51737 0.1475 0.88982 0.0
C1236 C 0.48622 0.1623 0.91756 0.0
C1237 C 0.45656 0.12061 0.90803 0.0
C1238 C 0.48318 0.1844 0.90934 0.0
C1239 C 0.47832 0.20203 0.92495 0.0
C1240 C 0.47654 0.19798 0.94919 0.0
C1241 C 0.47814 0.17562 0.95725 0.0
C1242 C 0.48308 0.15796 0.94158 0.0
H1243 H 0.44581 0.10755 0.89854 0.0
H1244 H 0.45933 0.11473 0.92629 0.0
H1245 H 0.44572 0.13642 0.90866 0.0
H1246 H 0.48545 0.18815 0.89088 0.0
H1247 H 0.47713 0.21902 0.91812 0.0
H1248 H 0.96842 0.49386 0.82992 0.0
H1249 H 0.93419 0.49106 0.85696 0.0
H1250 H 0.89306 0.5381 0.81498 0.0
H1251 H 0.92799 0.54153 0.78789 0.0
H1252 H 0.88678 0.54635 0.86072 0.0
H1253 H 0.87301 0.45536 0.84606 0.0
H1254 H 0.90399 0.46071 0.85474 0.0
H1255 H 0.89264 0.47213 0.82756 0.0
C1256 C 0.95214 0.50372 0.82641 0.0
C1257 C 0.95081 0.51779 0.80664 0.0
C1258 C 0.93246 0.50191 0.8418 0.0
C1259 C 0.91069 0.51371 0.83759 0.0
C1260 C 0.90956 0.52854 0.81838 0.0
H1261 H 0.786 0.47809 0.92934 0.0
H1262 H 0.81164 0.48227 0.89414 0.0
C1263 C 0.92953 0.53061 0.80301 0.0
C1264 C 0.88959 0.51075 0.85378 0.0
H1265 H 0.85698 0.47018 0.88264 0.0
C1266 C 0.87998 0.52973 0.86522 0.0
C1267 C 0.8801 0.48913 0.85924 0.0
C1268 C 0.88779 0.46823 0.84602 0.0
C1269 C 0.86242 0.52753 0.88307 0.0
C1270 C 0.85486 0.50572 0.89019 0.0
C1271 C 0.86317 0.48687 0.87762 0.0
C1272 C 0.83963 0.50212 0.91147 0.0
C1273 C 0.8523 0.54866 0.89421 0.0
C1274 C 0.84732 0.51101 0.93306 0.0
C1275 C 0.83274 0.50876 0.95297 0.0
C1276 C 0.81036 0.49709 0.95193 0.0
C1277 C 0.80325 0.48701 0.93067 0.0
C1278 C 0.81778 0.48956 0.91055 0.0
H1279 H 0.85271 0.56302 0.88174 0.0
H1280 H 0.83317 0.5462 0.90029 0.0
H1281 H 0.86379 0.55334 0.90951 0.0
H1282 H 0.86451 0.52 0.93448 0.0
H1283 H 0.83882 0.51653 0.96917 0.0
H1284 H 0.47062 0.09348 0.21833 0.0
H1285 H 0.47795 0.12177 0.18808 0.0
H1286 H 0.48181 0.06943 0.13566 0.0
H1287 H 0.4745 0.04089 0.16592 0.0
H1288 H 0.52325 0.09954 0.13727 0.0
H1289 H 0.4354 0.14621 0.13383 0.0
H1290 H 0.44721 0.14202 0.16289 0.0
H1291 H 0.43783 0.1181 0.14572 0.0
C1292 C 0.47238 0.08799 0.20027 0.0
C1293 C 0.47188 0.0649 0.19455 0.0
C1294 C 0.47656 0.10421 0.18299 0.0
C1295 C 0.48034 0.09773 0.15959 0.0
C1296 C 0.47885 0.07479 0.15361 0.0
H1297 H 0.53177 0.17752 0.03962 0.0
H1298 H 0.52185 0.14623 0.06588 0.0
C1299 C 0.47445 0.05852 0.1709 0.0
C1300 C 0.48786 0.11479 0.14194 0.0
H1301 H 0.46978 0.16378 0.11589 0.0
C1302 C 0.5115 0.11347 0.13235 0.0
C1303 C 0.47256 0.13301 0.13571 0.0
C1304 C 0.44675 0.13491 0.14489 0.0
C1305 C 0.52055 0.13031 0.11732 0.0
C1306 C 0.50535 0.14873 0.11131 0.0
C1307 C 0.48152 0.14975 0.12056 0.0
C1308 C 0.51377 0.16741 0.09586 0.0
C1309 C 0.54662 0.12864 0.10876 0.0
C1310 C 0.51267 0.18977 0.1039 0.0
C1311 C 0.51816 0.20768 0.08889 0.0
C1312 C 0.52489 0.20366 0.06544 0.0
C1313 C 0.527 0.18122 0.05765 0.0
C1314 C 0.52132 0.16327 0.07268 0.0
H1315 H 0.5577 0.11717 0.11987 0.0
H1316 H 0.54668 0.1218 0.09063 0.0
H1317 H 0.55555 0.14546 0.10849 0.0
H1318 H 0.50696 0.19342 0.1217 0.0
H1319 H 0.51634 0.22473 0.09548 0.0
H1320 H 0.93895 0.46157 0.2123 0.0
H1321 H 0.90712 0.46113 0.18167 0.0
H1322 H 0.9205 0.53145 0.16787 0.0
H1323 H 0.95186 0.53222 0.19794 0.0
H1324 H 0.86272 0.4974 0.17597 0.0
H1325 H 0.93167 0.49143 0.10439 0.0
H1326 H 0.93752 0.48111 0.13366 0.0
H1327 H 0.93808 0.51083 0.12794 0.0
C1328 C 0.93493 0.47696 0.20288 0.0
C1329 C 0.94808 0.49688 0.20764 0.0
C1330 C 0.91676 0.47669 0.18545 0.0
C1331 C 0.91162 0.49627 0.17255 0.0
C1332 C 0.92427 0.51618 0.17762 0.0
H1333 H 0.8012 0.53984 0.07235 0.0
H1334 H 0.82902 0.53641 0.10601 0.0
C1335 C 0.94225 0.51651 0.19491 0.0
C1336 C 0.89388 0.49615 0.15295 0.0
H1337 H 0.89097 0.49969 0.09331 0.0
C1338 C 0.86878 0.49765 0.15787 0.0
C1339 C 0.90196 0.49659 0.12943 0.0
C1340 C 0.92876 0.49478 0.12336 0.0
C1341 C 0.8515 0.49997 0.13973 0.0
C1342 C 0.85967 0.50107 0.11621 0.0
C1343 C 0.88476 0.49907 0.11136 0.0
C1344 C 0.84251 0.50341 0.09619 0.0
C1345 C 0.82467 0.50103 0.14583 0.0
C1346 C 0.84133 0.48629 0.07929 0.0
C1347 C 0.8257 0.48826 0.06009 0.0
C1348 C 0.81087 0.50748 0.05722 0.0
C1349 C 0.81231 0.52482 0.07402 0.0
C1350 C 0.82803 0.5228 0.09337 0.0
H1351 H 0.82108 0.49501 0.16394 0.0
H1352 H 0.81833 0.51875 0.14458 0.0
H1353 H 0.81368 0.49075 0.13337 0.0
H1354 H 0.85245 0.47127 0.08102 0.0
H1355 H 0.82525 0.47456 0.04751 0.0
H1356 H 0.51828 0.79056 0.08551 0.0
H1357 H 0.52236 0.82172 0.11279 0.0
H1358 H 0.46282 0.85631 0.07876 0.0
H1359 H 0.45902 0.82508 0.05051 0.0
H1360 H 0.50103 0.88482 0.08866 0.0
H1361 H 0.47878 0.83498 0.16767 0.0
H1362 H 0.50362 0.8228 0.15152 0.0
H1363 H 0.47365 0.82436 0.13843 0.0
C1364 C 0.50574 0.80458 0.08386 0.0
C1365 C 0.48801 0.80506 0.06594 0.0
C1366 C 0.50813 0.82245 0.0996 0.0
C1367 C 0.49258 0.84118 0.09822 0.0
C1368 C 0.47492 0.84193 0.08028 0.0
H1369 H 0.47767 0.93447 0.21328 0.0
H1370 H 0.47247 0.90675 0.18242 0.0
C1371 C 0.47267 0.82403 0.06424 0.0
C1372 C 0.4952 0.8599 0.11548 0.0
H1373 H 0.49786 0.87061 0.17425 0.0
C1374 C 0.50011 0.8818 0.10739 0.0
C1375 C 0.4938 0.85602 0.13993 0.0
C1376 C 0.48692 0.83332 0.1499 0.0
C1377 C 0.50407 0.89982 0.12308 0.0
C1378 C 0.50369 0.89569 0.14754 0.0
C1379 C 0.49849 0.87381 0.15553 0.0
C1380 C 0.507 0.91385 0.16537 0.0
C1381 C 0.50806 0.92314 0.11331 0.0
C1382 C 0.5282 0.92739 0.16618 0.0
C1383 C 0.53116 0.94369 0.1839 0.0
C1384 C 0.51322 0.94635 0.20136 0.0
C1385 C 0.4921 0.93275 0.20037 0.0
C1386 C 0.48901 0.91685 0.18262 0.0
H1387 H 0.50129 0.92452 0.095 0.0
H1388 H 0.49871 0.93607 0.1242 0.0
H1389 H 0.52795 0.92694 0.11323 0.0
H1390 H 0.54263 0.92509 0.1534 0.0
H1391 H 0.54763 0.95387 0.1842 0.0
H1392 H 0.20818 0.46815 0.07123 0.0
H1393 H 0.17771 0.46957 0.10302 0.0
H1394 H 0.15611 0.5361 0.08096 0.0
H1395 H 0.1856 0.53476 0.0493 0.0
H1396 H 0.17201 0.50194 0.14058 0.0
H1397 H 0.09169 0.50074 0.0812 0.0
H1398 H 0.12201 0.493 0.07155 0.0
H1399 H 0.11358 0.52222 0.07402 0.0
C1400 C 0.19684 0.483 0.07312 0.0
C1401 C 0.19935 0.50125 0.05758 0.0
C1402 C 0.17955 0.48384 0.09133 0.0
C1403 C 0.16447 0.50286 0.09413 0.0
C1404 C 0.16725 0.52112 0.07889 0.0
H1405 H 0.0718 0.5418 0.21377 0.0
H1406 H 0.10422 0.54099 0.18378 0.0
C1407 C 0.18429 0.5203 0.06079 0.0
C1408 C 0.14553 0.50389 0.11272 0.0
H1409 H 0.08414 0.51103 0.12085 0.0
C1410 C 0.15277 0.50377 0.13634 0.0
C1411 C 0.12044 0.5062 0.1071 0.0
C1412 C 0.11139 0.50534 0.0821 0.0
C1413 C 0.13553 0.5062 0.15451 0.0
C1414 C 0.11053 0.50921 0.14883 0.0
C1415 C 0.10335 0.50909 0.12519 0.0
C1416 C 0.0911 0.5105 0.16699 0.0
C1417 C 0.14413 0.50503 0.17961 0.0
C1418 C 0.07262 0.49414 0.167 0.0
C1419 C 0.0541 0.49475 0.18371 0.0
C1420 C 0.05351 0.51173 0.20101 0.0
C1421 C 0.07173 0.5285 0.20073 0.0
C1422 C 0.09039 0.5279 0.18379 0.0
H1423 H 0.16286 0.49786 0.181 0.0
H1424 H 0.14447 0.52228 0.18717 0.0
H1425 H 0.13147 0.49463 0.19032 0.0
H1426 H 0.07268 0.48064 0.15417 0.0
H1427 H 0.04036 0.48158 0.18317 0.0
H1428 H 0.78285 0.91949 0.51646 0.0
H1429 H 0.81447 0.89124 0.50951 0.0
H1430 H 0.87032 0.94164 0.51989 0.0
H1431 H 0.83872 0.97026 0.52663 0.0
H1432 H 0.85059 0.8953 0.47205 0.0
H1433 H 0.89228 0.88653 0.56051 0.0
H1434 H 0.86195 0.89788 0.55613 0.0
H1435 H 0.88837 0.91485 0.54994 0.0
C1436 C 0.80185 0.9246 0.51761 0.0
C1437 C 0.80821 0.94725 0.52196 0.0
C1438 C 0.81989 0.90838 0.51358 0.0
C1439 C 0.84471 0.91434 0.51411 0.0
C1440 C 0.85124 0.93666 0.51957 0.0
H1441 H 0.97922 0.84044 0.4947 0.0
H1442 H 0.94807 0.86969 0.49868 0.0
C1443 C 0.83315 0.95298 0.5235 0.0
C1444 C 0.86358 0.89746 0.50762 0.0
H1445 H 0.91164 0.86739 0.52933 0.0
C1446 C 0.86396 0.88913 0.48454 0.0
C1447 C 0.88095 0.88952 0.52395 0.0
C1448 C 0.8809 0.89746 0.54909 0.0
C1449 C 0.8816 0.87336 0.47722 0.0
C1450 C 0.89896 0.8653 0.49359 0.0
C1451 C 0.89842 0.8736 0.51672 0.0
C1452 C 0.91807 0.84846 0.48732 0.0
C1453 C 0.88183 0.86595 0.4519 0.0
C1454 C 0.9118 0.82693 0.47874 0.0
C1455 C 0.9298 0.81028 0.47591 0.0
C1456 C 0.95419 0.81483 0.48204 0.0
C1457 C 0.96055 0.83661 0.4896 0.0
C1458 C 0.94273 0.85327 0.49207 0.0
H1459 H 0.87236 0.8783 0.44044 0.0
H1460 H 0.90083 0.86367 0.44542 0.0
H1461 H 0.87209 0.84959 0.45029 0.0
H1462 H 0.89286 0.8226 0.47546 0.0
H1463 H 0.92436 0.79343 0.47068 0.0
H1464 H 0.92169 0.22047 0.53956 0.0
H1465 H 0.88952 0.19165 0.5348 0.0
H1466 H 0.94269 0.14563 0.50599 0.0
H1467 H 0.97456 0.17423 0.51043 0.0
H1468 H 0.87955 0.17165 0.48738 0.0
H1469 H 0.90251 0.1076 0.55481 0.0
H1470 H 0.91173 0.13679 0.55729 0.0
H1471 H 0.92784 0.11811 0.5379 0.0
C1472 C 0.92656 0.20393 0.53298 0.0
C1473 C 0.95058 0.19945 0.52557 0.0
C1474 C 0.9082 0.18759 0.53005 0.0
C1475 C 0.9138 0.16647 0.52017 0.0
C1476 C 0.93804 0.16168 0.51392 0.0
H1477 H 0.83673 0.0452 0.47711 0.0
H1478 H 0.86737 0.0746 0.48434 0.0
C1479 C 0.95621 0.17802 0.51649 0.0
C1480 C 0.89424 0.15009 0.51419 0.0
H1481 H 0.87425 0.09663 0.52532 0.0
C1482 C 0.87814 0.15533 0.49583 0.0
C1483 C 0.89282 0.1287 0.52496 0.0
C1484 C 0.9095 0.12241 0.54496 0.0
C1485 C 0.86097 0.13953 0.48757 0.0
C1486 C 0.85945 0.11809 0.49838 0.0
C1487 C 0.87547 0.11298 0.51692 0.0
C1488 C 0.84094 0.10094 0.49132 0.0
C1489 C 0.84522 0.14573 0.46683 0.0
C1490 C 0.8159 0.10603 0.4923 0.0
C1491 C 0.79839 0.08938 0.48785 0.0
C1492 C 0.80548 0.06708 0.48273 0.0
C1493 C 0.83059 0.06219 0.48086 0.0
C1494 C 0.84814 0.07894 0.48519 0.0
H1495 H 0.85384 0.1592 0.45612 0.0
H1496 H 0.84171 0.13091 0.45539 0.0
H1497 H 0.82739 0.15222 0.47323 0.0
H1498 H 0.80981 0.12269 0.49743 0.0
H1499 H 0.77925 0.09383 0.4894 0.0
H1500 H 0.06086 0.80654 0.54203 0.0
H1501 H 0.09282 0.83592 0.54171 0.0
H1502 H 0.08975 0.83788 0.46623 0.0
H1503 H 0.0582 0.80926 0.46625 0.0
H1504 H 0.14007 0.83723 0.51785 0.0
H1505 H 0.07734 0.9038 0.48627 0.0
H1506 H 0.06652 0.8778 0.49905 0.0
H1507 H 0.07597 0.87859 0.46885 0.0
C1508 C 0.06715 0.81314 0.52539 0.0
C1509 C 0.05679 0.80551 0.50421 0.0
C1510 C 0.08535 0.82993 0.52524 0.0
C1511 C 0.09327 0.83937 0.50394 0.0
C1512 C 0.08356 0.83119 0.48288 0.0
H1513 H 0.22257 0.91152 0.46104 0.0
H1514 H 0.1894 0.88457 0.46773 0.0
C1515 C 0.06554 0.81461 0.48299 0.0
C1516 C 0.1116 0.85783 0.50313 0.0
H1517 H 0.12024 0.91081 0.48122 0.0
C1518 C 0.13572 0.85344 0.51017 0.0
C1519 C 0.10582 0.87908 0.49334 0.0
C1520 C 0.07995 0.88523 0.48665 0.0
C1521 C 0.15444 0.86938 0.50667 0.0
C1522 C 0.14893 0.89005 0.4954 0.0
C1523 C 0.12457 0.89482 0.48943 0.0
C1524 C 0.16815 0.90696 0.48974 0.0
C1525 C 0.17993 0.86394 0.5151 0.0
C1526 C 0.16652 0.92897 0.49867 0.0
C1527 C 0.18525 0.94456 0.49454 0.0
C1528 C 0.20603 0.93846 0.48136 0.0
C1529 C 0.20692 0.91679 0.47132 0.0
C1530 C 0.18811 0.90124 0.47541 0.0
H1531 H 0.17966 0.85094 0.52909 0.0
H1532 H 0.19081 0.8572 0.50023 0.0
H1533 H 0.1893 0.87922 0.52193 0.0
H1534 H 0.15114 0.93387 0.50952 0.0
H1535 H 0.18387 0.96107 0.50255 0.0
H1536 H 0.04873 0.19572 0.54385 0.0
H1537 H 0.08217 0.16881 0.54418 0.0
H1538 H 0.10075 0.18682 0.47322 0.0
H1539 H 0.06681 0.21409 0.47252 0.0
H1540 H 0.08927 0.13118 0.50918 0.0
H1541 H 0.1656 0.19329 0.51535 0.0
H1542 H 0.13476 0.20026 0.52418 0.0
H1543 H 0.14211 0.19775 0.49366 0.0
C1544 C 0.05982 0.19414 0.52821 0.0
C1545 C 0.05502 0.20721 0.50812 0.0
C1546 C 0.07896 0.17864 0.52848 0.0
C1547 C 0.09395 0.17591 0.50882 0.0
C1548 C 0.08941 0.18884 0.48865 0.0
H1549 H 0.22416 0.09427 0.49173 0.0
H1550 H 0.19134 0.12168 0.48818 0.0
C1551 C 0.07001 0.20436 0.48827 0.0
C1552 C 0.11415 0.1593 0.50974 0.0
H1553 H 0.17605 0.15486 0.51626 0.0
C1554 C 0.10829 0.13629 0.51058 0.0
C1555 C 0.13885 0.1661 0.51164 0.0
C1556 C 0.14591 0.19068 0.51129 0.0
C1557 C 0.12653 0.1198 0.51315 0.0
C1558 C 0.15126 0.12659 0.51566 0.0
C1559 C 0.1571 0.14966 0.51454 0.0
C1560 C 0.17146 0.11004 0.51864 0.0
C1561 C 0.11915 0.09528 0.51266 0.0
C1562 C 0.17156 0.09453 0.53728 0.0
C1563 C 0.19036 0.07857 0.53931 0.0
C1564 C 0.20958 0.07806 0.52292 0.0
C1565 C 0.20973 0.09411 0.50474 0.0
C1566 C 0.19092 0.10986 0.50264 0.0
H1567 H 0.10105 0.09285 0.50413 0.0
H1568 H 0.1329 0.08492 0.5032 0.0
H1569 H 0.11775 0.08896 0.53091 0.0
H1570 H 0.15705 0.09471 0.55021 0.0
H1571 H 0.18973 0.06654 0.55356 0.0
loop_
_geom_bond_atom_site_label_1
_geom_bond_atom_site_label_2
_geom_bond_distance
_geom_bond_site_symmetry_2
_ccdc_geom_bond_type
Co0 O2 2.143 . S
Co0 O8 2.074 . S
Co0 O11 2.093 1_455 S
Co0 O24 2.097 1_455 S
Co0 N41 2.151 . S
Co0 N49 2.214 . S
Co1 O2 2.160 1_655 S
Co1 O7 2.058 1_655 S
Co1 O17 2.057 1_655 S
Co1 O32 2.037 . S
Co1 N36 2.145 . S
Co1 N57 2.257 . S
O2 Co0 2.143 . S
O2 Co1 2.160 1_455 S
C3 O4 1.278 . S
C3 O11 1.224 . S
O4 C3 1.278 . S
C5 O6 1.245 . S
C5 O17 1.232 . S
O6 C5 1.245 . S
O7 Co1 2.058 1_455 S
O7 C33 1.269 . S
O8 Co0 2.074 . S
O8 C33 1.257 . S
H9 C34 0.930 . S
H10 C40 0.930 . S
O11 Co0 2.093 1_655 S
O11 C3 1.224 . S
H12 C44 0.929 . S
H13 C46 0.930 . S
H14 C47 0.930 . S
H15 C45 0.929 . S
H16 C48 0.928 . S
O17 Co1 2.057 1_455 S
O17 C5 1.232 . S
H18 C37 0.929 . S
H19 C38 0.929 . S
H20 C50 0.931 . S
H21 C42 0.929 . S
H22 C51 0.930 . S
H23 C43 0.931 . S
O24 Co0 2.097 1_655 S
O24 C52 1.214 . S
H25 C53 0.929 . S
H26 C54 0.929 . S
H27 C55 0.930 . S
H28 C56 0.929 . S
H29 C58 0.930 . S
H30 C35 0.930 . S
H31 C39 0.930 . S
O32 Co1 2.037 . S
O32 C52 1.234 . S
C33 O7 1.269 . S
C33 O8 1.257 . S
C34 H9 0.930 . S
C34 C37 1.388 . S
C34 C39 1.418 . S
C35 H30 0.930 . S
C35 C38 1.404 . S
C35 C39 1.353 . S
N36 Co1 2.145 . S
N36 C37 1.397 . S
N36 C38 1.334 . S
C37 H18 0.929 . S
C37 C34 1.388 . S
C37 N36 1.397 . S
C38 H19 0.929 . S
C38 C35 1.404 . S
C38 N36 1.334 . S
C39 H31 0.930 . S
C39 C34 1.418 . S
C39 C35 1.353 . S
C40 H10 0.930 . S
C40 N41 1.330 . S
C40 C42 1.446 . S
N41 Co0 2.151 . S
N41 C40 1.330 . S
N41 C45 1.418 . S
C42 H21 0.929 . S
C42 C40 1.446 . S
C42 C43 1.332 . S
C43 H23 0.931 . S
C43 C42 1.332 . S
C43 C44 1.267 . S
C44 H12 0.929 . S
C44 C43 1.267 . S
C44 C45 1.251 . S
C45 H15 0.929 . S
C45 N41 1.418 . S
C45 C44 1.251 . S
C46 H13 0.930 . S
C46 C48 1.406 . S
C46 C51 1.261 . S
C47 H14 0.930 . S
C47 N49 1.325 . S
C47 C50 1.357 . S
C48 H16 0.928 . S
C48 C46 1.406 . S
C48 N49 1.261 . S
N49 Co0 2.214 . S
N49 C47 1.325 . S
N49 C48 1.261 . S
C50 H20 0.931 . S
C50 C47 1.357 . S
C50 C51 1.312 . S
C51 H22 0.930 . S
C51 C46 1.261 . S
C51 C50 1.312 . S
C52 O24 1.214 . S
C52 O32 1.234 . S
C53 H25 0.929 . S
C53 C56 1.391 . S
C53 C58 1.391 . S
C54 H26 0.929 . S
C54 C55 1.390 . S
C54 N57 1.391 . S
C55 H27 0.930 . S
C55 C54 1.390 . S
C55 C56 1.392 . S
C56 H28 0.929 . S
C56 C53 1.391 . S
C56 C55 1.392 . S
N57 Co1 2.257 . S
N57 C54 1.391 . S
N57 C58 1.388 . S
C58 H29 0.930 . S
C58 C53 1.391 . S
C58 N57 1.388 . S
Co59 O61 2.143 . S
Co59 O67 2.074 . S
Co59 O70 2.093 . S
Co59 O83 2.097 . S
Co59 N100 2.151 . S
Co59 N108 2.214 . S
Co60 O61 2.160 1_565 S
Co60 O66 2.058 . S
Co60 O76 2.057 . S
Co60 O91 2.037 . S
Co60 N95 2.145 . S
Co60 N116 2.257 . S
O61 Co59 2.143 . S
O61 Co60 2.160 1_545 S
C62 O63 1.278 . S
C62 O70 1.224 . S
O63 C62 1.278 . S
C64 O65 1.245 . S
C64 O76 1.232 . S
O65 C64 1.245 . S
O66 Co60 2.058 . S
O66 C92 1.269 . S
O67 Co59 2.074 . S
O67 C92 1.257 1_545 S
H68 C93 0.930 . S
H69 C99 0.930 . S
O70 Co59 2.093 . S
O70 C62 1.224 . S
H71 C103 0.929 . S
H72 C105 0.930 . S
H73 C106 0.930 . S
H74 C104 0.929 . S
H75 C107 0.928 . S
O76 Co60 2.057 . S
O76 C64 1.232 . S
H77 C96 0.929 . S
H78 C97 0.929 . S
H79 C109 0.931 . S
H80 C101 0.929 . S
H81 C110 0.930 . S
H82 C102 0.931 . S
O83 Co59 2.097 . S
O83 C111 1.214 . S
H84 C112 0.929 . S
H85 C113 0.929 . S
H86 C114 0.930 . S
H87 C115 0.929 . S
H88 C117 0.930 . S
H89 C94 0.930 . S
H90 C98 0.930 . S
O91 Co60 2.037 . S
O91 C111 1.234 1_565 S
C92 O66 1.269 . S
C92 O67 1.257 1_565 S
C93 H68 0.930 . S
C93 C96 1.388 . S
C93 C98 1.418 . S
C94 H89 0.930 . S
C94 C97 1.404 . S
C94 C98 1.353 . S
N95 Co60 2.145 . S
N95 C96 1.397 . S
N95 C97 1.334 . S
C96 H77 0.929 . S
C96 C93 1.388 . S
C96 N95 1.397 . S
C97 H78 0.929 . S
C97 C94 1.404 . S
C97 N95 1.334 . S
C98 H90 0.930 . S
C98 C93 1.418 . S
C98 C94 1.353 . S
C99 H69 0.930 . S
C99 N100 1.330 . S
C99 C101 1.446 . S
N100 Co59 2.151 . S
N100 C99 1.330 . S
N100 C104 1.418 . S
C101 H80 0.929 . S
C101 C99 1.446 . S
C101 C102 1.332 . S
C102 H82 0.931 . S
C102 C101 1.332 . S
C102 C103 1.267 . S
C103 H71 0.929 . S
C103 C102 1.267 . S
C103 C104 1.251 . S
C104 H74 0.929 . S
C104 N100 1.418 . S
C104 C103 1.251 . S
C105 H72 0.930 . S
C105 C107 1.406 . S
C105 C110 1.261 . S
C106 H73 0.930 . S
C106 N108 1.325 . S
C106 C109 1.357 . S
C107 H75 0.928 . S
C107 C105 1.406 . S
C107 N108 1.261 . S
N108 Co59 2.214 . S
N108 C106 1.325 . S
N108 C107 1.261 . S
C109 H79 0.931 . S
C109 C106 1.357 . S
C109 C110 1.312 . S
C110 H81 0.930 . S
C110 C105 1.261 . S
C110 C109 1.312 . S
C111 O83 1.214 . S
C111 O91 1.234 1_545 S
C112 H84 0.929 . S
C112 C115 1.391 . S
C112 C117 1.391 . S
C113 H85 0.929 . S
C113 C114 1.390 . S
C113 N116 1.391 . S
C114 H86 0.930 . S
C114 C113 1.390 . S
C114 C115 1.392 . S
C115 H87 0.929 . S
C115 C112 1.391 . S
C115 C114 1.392 . S
N116 Co60 2.257 . S
N116 C113 1.391 . S
N116 C117 1.388 . S
C117 H88 0.930 . S
C117 C112 1.391 . S
C117 N116 1.388 . S
Co118 O120 2.143 . S
Co118 O126 2.074 . S
Co118 O129 2.093 1_455 S
Co118 O142 2.097 1_455 S
Co118 N159 2.151 . S
Co118 N167 2.214 . S
Co119 O120 2.160 1_655 S
Co119 O125 2.058 1_655 S
Co119 O135 2.057 1_655 S
Co119 O150 2.037 . S
Co119 N154 2.145 . S
Co119 N175 2.257 . S
O120 Co118 2.143 . S
O120 Co119 2.160 1_455 S
C121 O122 1.278 . S
C121 O129 1.224 . S
O122 C121 1.278 . S
C123 O124 1.245 . S
C123 O135 1.232 . S
O124 C123 1.245 . S
O125 Co119 2.058 1_455 S
O125 C151 1.269 . S
O126 Co118 2.074 . S
O126 C151 1.257 . S
H127 C152 0.930 . S
H128 C158 0.930 . S
O129 Co118 2.093 1_655 S
O129 C121 1.224 . S
H130 C162 0.929 . S
H131 C164 0.930 . S
H132 C165 0.930 . S
H133 C163 0.929 . S
H134 C166 0.928 . S
O135 Co119 2.057 1_455 S
O135 C123 1.232 . S
H136 C155 0.929 . S
H137 C156 0.929 . S
H138 C168 0.931 . S
H139 C160 0.929 . S
H140 C169 0.930 . S
H141 C161 0.931 . S
O142 Co118 2.097 1_655 S
O142 C170 1.214 . S
H143 C171 0.929 . S
H144 C172 0.929 . S
H145 C173 0.930 . S
H146 C174 0.929 . S
H147 C176 0.930 . S
H148 C153 0.930 . S
H149 C157 0.930 . S
O150 Co119 2.037 . S
O150 C170 1.234 . S
C151 O125 1.269 . S
C151 O126 1.257 . S
C152 H127 0.930 . S
C152 C155 1.388 . S
C152 C157 1.418 . S
C153 H148 0.930 . S
C153 C156 1.404 . S
C153 C157 1.353 . S
N154 Co119 2.145 . S
N154 C155 1.397 . S
N154 C156 1.334 . S
C155 H136 0.929 . S
C155 C152 1.388 . S
C155 N154 1.397 . S
C156 H137 0.929 . S
C156 C153 1.404 . S
C156 N154 1.334 . S
C157 H149 0.930 . S
C157 C152 1.418 . S
C157 C153 1.353 . S
C158 H128 0.930 . S
C158 N159 1.330 . S
C158 C160 1.446 . S
N159 Co118 2.151 . S
N159 C158 1.330 . S
N159 C163 1.418 . S
C160 H139 0.929 . S
C160 C158 1.446 . S
C160 C161 1.332 . S
C161 H141 0.931 . S
C161 C160 1.332 . S
C161 C162 1.267 . S
C162 H130 0.929 . S
C162 C161 1.267 . S
C162 C163 1.251 . S
C163 H133 0.929 . S
C163 N159 1.418 . S
C163 C162 1.251 . S
C164 H131 0.930 . S
C164 C166 1.406 . S
C164 C169 1.261 . S
C165 H132 0.930 . S
C165 N167 1.325 . S
C165 C168 1.357 . S
C166 H134 0.928 . S
C166 C164 1.406 . S
C166 N167 1.261 . S
N167 Co118 2.214 . S
N167 C165 1.325 . S
N167 C166 1.261 . S
C168 H138 0.931 . S
C168 C165 1.357 . S
C168 C169 1.312 . S
C169 H140 0.930 . S
C169 C164 1.261 . S
C169 C168 1.312 . S
C170 O142 1.214 . S
C170 O150 1.234 . S
C171 H143 0.929 . S
C171 C174 1.391 . S
C171 C176 1.391 . S
C172 H144 0.929 . S
C172 C173 1.390 . S
C172 N175 1.391 . S
C173 H145 0.930 . S
C173 C172 1.390 . S
C173 C174 1.392 . S
C174 H146 0.929 . S
C174 C171 1.391 . S
C174 C173 1.392 . S
N175 Co119 2.257 . S
N175 C172 1.391 . S
N175 C176 1.388 . S
C176 H147 0.930 . S
C176 C171 1.391 . S
C176 N175 1.388 . S
Co177 O179 2.163 . S
Co177 O185 2.074 . S
Co177 O188 2.093 . S
Co177 O201 2.097 . S
Co177 N218 2.151 . S
Co177 N226 2.214 . S
Co178 O179 2.139 1_545 S
Co178 O184 2.058 . S
Co178 O194 2.057 . S
Co178 O209 2.037 . S
Co178 N213 2.145 . S
Co178 N234 2.257 . S
O179 Co177 2.163 . S
O179 Co178 2.139 1_565 S
C180 O181 1.278 . S
C180 O188 1.224 . S
O181 C180 1.278 . S
C182 O183 1.245 . S
C182 O194 1.232 . S
O183 C182 1.245 . S
O184 Co178 2.058 . S
O184 C210 1.269 . S
O185 Co177 2.074 . S
O185 C210 1.257 1_565 S
H186 C211 0.930 . S
H187 C217 0.930 . S
O188 Co177 2.093 . S
O188 C180 1.224 . S
H189 C221 0.929 . S
H190 C223 0.930 . S
H191 C224 0.930 . S
H192 C222 0.929 . S
H193 C225 0.928 . S
O194 Co178 2.057 . S
O194 C182 1.232 . S
H195 C214 0.929 . S
H196 C215 0.929 . S
H197 C227 0.931 . S
H198 C219 0.929 . S
H199 C228 0.930 . S
H200 C220 0.931 . S
O201 Co177 2.097 . S
O201 C229 1.214 . S
H202 C230 0.929 . S
H203 C231 0.929 . S
H204 C232 0.930 . S
H205 C233 0.929 . S
H206 C235 0.930 . S
H207 C212 0.930 . S
H208 C216 0.930 . S
O209 Co178 2.037 . S
O209 C229 1.234 1_545 S
C210 O184 1.269 . S
C210 O185 1.257 1_545 S
C211 H186 0.930 . S
C211 C214 1.388 . S
C211 C216 1.418 . S
C212 H207 0.930 . S
C212 C215 1.404 . S
C212 C216 1.353 . S
N213 Co178 2.145 . S
N213 C214 1.397 . S
N213 C215 1.334 . S
C214 H195 0.929 . S
C214 C211 1.388 . S
C214 N213 1.397 . S
C215 H196 0.929 . S
C215 C212 1.404 . S
C215 N213 1.334 . S
C216 H208 0.930 . S
C216 C211 1.418 . S
C216 C212 1.353 . S
C217 H187 0.930 . S
C217 N218 1.330 . S
C217 C219 1.446 . S
N218 Co177 2.151 . S
N218 C217 1.330 . S
N218 C222 1.418 . S
C219 H198 0.929 . S
C219 C217 1.446 . S
C219 C220 1.332 . S
C220 H200 0.931 . S
C220 C219 1.332 . S
C220 C221 1.267 . S
C221 H189 0.929 . S
C221 C220 1.267 . S
C221 C222 1.251 . S
C222 H192 0.929 . S
C222 N218 1.418 . S
C222 C221 1.251 . S
C223 H190 0.930 . S
C223 C225 1.406 . S
C223 C228 1.261 . S
C224 H191 0.930 . S
C224 N226 1.325 . S
C224 C227 1.357 . S
C225 H193 0.928 . S
C225 C223 1.406 . S
C225 N226 1.261 . S
N226 Co177 2.214 . S
N226 C224 1.325 . S
N226 C225 1.261 . S
C227 H197 0.931 . S
C227 C224 1.357 . S
C227 C228 1.312 . S
C228 H199 0.930 . S
C228 C223 1.261 . S
C228 C227 1.312 . S
C229 O201 1.214 . S
C229 O209 1.234 1_565 S
C230 H202 0.929 . S
C230 C233 1.391 . S
C230 C235 1.391 . S
C231 H203 0.929 . S
C231 C232 1.390 . S
C231 N234 1.391 . S
C232 H204 0.930 . S
C232 C231 1.390 . S
C232 C233 1.392 . S
C233 H205 0.929 . S
C233 C230 1.391 . S
C233 C232 1.392 . S
N234 Co178 2.257 . S
N234 C231 1.391 . S
N234 C235 1.388 . S
C235 H206 0.930 . S
C235 C230 1.391 . S
C235 N234 1.388 . S
Co236 O238 2.172 . S
Co236 O244 2.074 . S
Co236 O247 2.093 . S
Co236 O260 2.097 . S
Co236 N277 2.151 . S
Co236 N285 2.214 . S
Co237 O238 2.131 1_545 S
Co237 O243 2.058 . S
Co237 O253 2.057 . S
Co237 O268 2.037 . S
Co237 N272 2.145 . S
Co237 N293 2.257 . S
O238 Co236 2.172 . S
O238 Co237 2.131 1_565 S
C239 O240 1.278 . S
C239 O247 1.224 . S
O240 C239 1.278 . S
C241 O242 1.245 . S
C241 O253 1.232 . S
O242 C241 1.245 . S
O243 Co237 2.058 . S
O243 C269 1.269 . S
O244 Co236 2.074 . S
O244 C269 1.257 1_565 S
H245 C270 0.930 . S
H246 C276 0.930 . S
O247 Co236 2.093 . S
O247 C239 1.224 . S
H248 C280 0.929 . S
H249 C282 0.930 . S
H250 C283 0.930 . S
H251 C281 0.929 . S
H252 C284 0.928 . S
O253 Co237 2.057 . S
O253 C241 1.232 . S
H254 C273 0.929 . S
H255 C274 0.929 . S
H256 C286 0.931 . S
H257 C278 0.929 . S
H258 C287 0.930 . S
H259 C279 0.931 . S
O260 Co236 2.097 . S
O260 C288 1.214 . S
H261 C289 0.929 . S
H262 C290 0.929 . S
H263 C291 0.930 . S
H264 C292 0.929 . S
H265 C294 0.930 . S
H266 C271 0.930 . S
H267 C275 0.930 . S
O268 Co237 2.037 . S
O268 C288 1.234 1_545 S
C269 O243 1.269 . S
C269 O244 1.257 1_545 S
C270 H245 0.930 . S
C270 C273 1.388 . S
C270 C275 1.418 . S
C271 H266 0.930 . S
C271 C274 1.404 . S
C271 C275 1.353 . S
N272 Co237 2.145 . S
N272 C273 1.397 . S
N272 C274 1.334 . S
C273 H254 0.929 . S
C273 C270 1.388 . S
C273 N272 1.397 . S
C274 H255 0.929 . S
C274 C271 1.404 . S
C274 N272 1.334 . S
C275 H267 0.930 . S
C275 C270 1.418 . S
C275 C271 1.353 . S
C276 H246 0.930 . S
C276 N277 1.330 . S
C276 C278 1.446 . S
N277 Co236 2.151 . S
N277 C276 1.330 . S
N277 C281 1.418 . S
C278 H257 0.929 . S
C278 C276 1.446 . S
C278 C279 1.332 . S
C279 H259 0.931 . S
C279 C278 1.332 . S
C279 C280 1.267 . S
C280 H248 0.929 . S
C280 C279 1.267 . S
C280 C281 1.251 . S
C281 H251 0.929 . S
C281 N277 1.418 . S
C281 C280 1.251 . S
C282 H249 0.930 . S
C282 C284 1.406 . S
C282 C287 1.261 . S
C283 H250 0.930 . S
C283 N285 1.325 . S
C283 C286 1.357 . S
C284 H252 0.928 . S
C284 C282 1.406 . S
C284 N285 1.261 . S
N285 Co236 2.214 . S
N285 C283 1.325 . S
N285 C284 1.261 . S
C286 H256 0.931 . S
C286 C283 1.357 . S
C286 C287 1.312 . S
C287 H258 0.930 . S
C287 C282 1.261 . S
C287 C286 1.312 . S
C288 O260 1.214 . S
C288 O268 1.234 1_565 S
C289 H261 0.929 . S
C289 C292 1.391 . S
C289 C294 1.391 . S
C290 H262 0.929 . S
C290 C291 1.390 . S
C290 N293 1.391 . S
C291 H263 0.930 . S
C291 C290 1.390 . S
C291 C292 1.392 . S
C292 H264 0.929 . S
C292 C289 1.391 . S
C292 C291 1.392 . S
N293 Co237 2.257 . S
N293 C290 1.391 . S
N293 C294 1.388 . S
C294 H265 0.930 . S
C294 C289 1.391 . S
C294 N293 1.388 . S
Co295 O297 2.143 . S
Co295 O303 2.074 . S
Co295 O306 2.093 1_655 S
Co295 O319 2.097 1_655 S
Co295 N336 2.151 . S
Co295 N344 2.214 . S
Co296 O297 2.160 1_455 S
Co296 O302 2.058 1_455 S
Co296 O312 2.045 1_455 S
Co296 O327 2.037 . S
Co296 N331 2.145 . S
Co296 N352 2.257 . S
O297 Co295 2.143 . S
O297 Co296 2.160 1_655 S
C298 O299 1.278 . S
C298 O306 1.224 . S
O299 C298 1.278 . S
C300 O301 1.245 . S
C300 O312 1.257 . S
O301 C300 1.245 . S
O302 Co296 2.058 1_655 S
O302 C328 1.269 . S
O303 Co295 2.074 . S
O303 C328 1.257 . S
H304 C329 0.930 . S
H305 C335 0.930 . S
O306 Co295 2.093 1_455 S
O306 C298 1.224 . S
H307 C339 0.929 . S
H308 C341 0.930 . S
H309 C342 0.930 . S
H310 C340 0.929 . S
H311 C343 0.928 . S
O312 Co296 2.045 1_655 S
O312 C300 1.257 . S
H313 C332 0.929 . S
H314 C333 0.929 . S
H315 C345 0.931 . S
H316 C337 0.929 . S
H317 C346 0.930 . S
H318 C338 0.931 . S
O319 Co295 2.097 1_455 S
O319 C347 1.214 . S
H320 C348 0.929 . S
H321 C349 0.929 . S
H322 C350 0.930 . S
H323 C351 0.929 . S
H324 C353 0.930 . S
H325 C330 0.930 . S
H326 C334 0.930 . S
O327 Co296 2.037 . S
O327 C347 1.234 . S
C328 O302 1.269 . S
C328 O303 1.257 . S
C329 H304 0.930 . S
C329 C332 1.388 . S
C329 C334 1.418 . S
C330 H325 0.930 . S
C330 C333 1.404 . S
C330 C334 1.353 . S
N331 Co296 2.145 . S
N331 C332 1.397 . S
N331 C333 1.334 . S
C332 H313 0.929 . S
C332 C329 1.388 . S
C332 N331 1.397 . S
C333 H314 0.929 . S
C333 C330 1.404 . S
C333 N331 1.334 . S
C334 H326 0.930 . S
C334 C329 1.418 . S
C334 C330 1.353 . S
C335 H305 0.930 . S
C335 N336 1.330 . S
C335 C337 1.446 . S
N336 Co295 2.151 . S
N336 C335 1.330 . S
N336 C340 1.418 . S
C337 H316 0.929 . S
C337 C335 1.446 . S
C337 C338 1.332 . S
C338 H318 0.931 . S
C338 C337 1.332 . S
C338 C339 1.267 . S
C339 H307 0.929 . S
C339 C338 1.267 . S
C339 C340 1.251 . S
C340 H310 0.929 . S
C340 N336 1.418 . S
C340 C339 1.251 . S
C341 H308 0.930 . S
C341 C343 1.406 . S
C341 C346 1.261 . S
C342 H309 0.930 . S
C342 N344 1.325 . S
C342 C345 1.357 . S
C343 H311 0.928 . S
C343 C341 1.406 . S
C343 N344 1.261 . S
N344 Co295 2.214 . S
N344 C342 1.325 . S
N344 C343 1.261 . S
C345 H315 0.931 . S
C345 C342 1.357 . S
C345 C346 1.312 . S
C346 H317 0.930 . S
C346 C341 1.261 . S
C346 C345 1.312 . S
C347 O319 1.214 . S
C347 O327 1.234 . S
C348 H320 0.929 . S
C348 C351 1.391 . S
C348 C353 1.391 . S
C349 H321 0.929 . S
C349 C350 1.390 . S
C349 N352 1.391 . S
C350 H322 0.930 . S
C350 C349 1.390 . S
C350 C351 1.392 . S
C351 H323 0.929 . S
C351 C348 1.391 . S
C351 C350 1.392 . S
N352 Co296 2.257 . S
N352 C349 1.391 . S
N352 C353 1.388 . S
C353 H324 0.930 . S
C353 C348 1.391 . S
C353 N352 1.388 . S
Co354 O356 2.143 . S
Co354 O362 2.074 . S
Co354 O365 2.093 . S
Co354 O378 2.097 . S
Co354 N395 2.151 . S
Co354 N403 2.214 . S
Co355 O356 2.160 1_565 S
Co355 O361 2.058 . S
Co355 O371 2.057 . S
Co355 O386 2.037 . S
Co355 N390 2.145 . S
Co355 N411 2.257 . S
O356 Co354 2.143 . S
O356 Co355 2.160 1_545 S
C357 O358 1.278 . S
C357 O365 1.224 . S
O358 C357 1.278 . S
C359 O360 1.245 . S
C359 O371 1.232 . S
O360 C359 1.245 . S
O361 Co355 2.058 . S
O361 C387 1.269 . S
O362 Co354 2.074 . S
O362 C387 1.257 1_545 S
H363 C388 0.930 . S
H364 C394 0.930 . S
O365 Co354 2.093 . S
O365 C357 1.224 . S
H366 C398 0.929 . S
H367 C400 0.930 . S
H368 C401 0.930 . S
H369 C399 0.929 . S
H370 C402 0.928 . S
O371 Co355 2.057 . S
O371 C359 1.232 . S
H372 C391 0.929 . S
H373 C392 0.929 . S
H374 C404 0.931 . S
H375 C396 0.929 . S
H376 C405 0.930 . S
H377 C397 0.931 . S
O378 Co354 2.097 . S
O378 C406 1.214 . S
H379 C407 0.929 . S
H380 C408 0.929 . S
H381 C409 0.930 . S
H382 C410 0.929 . S
H383 C412 0.930 . S
H384 C389 0.930 . S
H385 C393 0.930 . S
O386 Co355 2.037 . S
O386 C406 1.234 1_565 S
C387 O361 1.269 . S
C387 O362 1.257 1_565 S
C388 H363 0.930 . S
C388 C391 1.388 . S
C388 C393 1.418 . S
C389 H384 0.930 . S
C389 C392 1.404 . S
C389 C393 1.353 . S
N390 Co355 2.145 . S
N390 C391 1.397 . S
N390 C392 1.334 . S
C391 H372 0.929 . S
C391 C388 1.388 . S
C391 N390 1.397 . S
C392 H373 0.929 . S
C392 C389 1.404 . S
C392 N390 1.334 . S
C393 H385 0.930 . S
C393 C388 1.418 . S
C393 C389 1.353 . S
C394 H364 0.930 . S
C394 N395 1.330 . S
C394 C396 1.446 . S
N395 Co354 2.151 . S
N395 C394 1.330 . S
N395 C399 1.418 . S
C396 H375 0.929 . S
C396 C394 1.446 . S
C396 C397 1.332 . S
C397 H377 0.931 . S
C397 C396 1.332 . S
C397 C398 1.267 . S
C398 H366 0.929 . S
C398 C397 1.267 . S
C398 C399 1.251 . S
C399 H369 0.929 . S
C399 N395 1.418 . S
C399 C398 1.251 . S
C400 H367 0.930 . S
C400 C402 1.406 . S
C400 C405 1.261 . S
C401 H368 0.930 . S
C401 N403 1.325 . S
C401 C404 1.357 . S
C402 H370 0.928 . S
C402 C400 1.406 . S
C402 N403 1.261 . S
N403 Co354 2.214 . S
N403 C401 1.325 . S
N403 C402 1.261 . S
C404 H374 0.931 . S
C404 C401 1.357 . S
C404 C405 1.312 . S
C405 H376 0.930 . S
C405 C400 1.261 . S
C405 C404 1.312 . S
C406 O378 1.214 . S
C406 O386 1.234 1_545 S
C407 H379 0.929 . S
C407 C410 1.391 . S
C407 C412 1.391 . S
C408 H380 0.929 . S
C408 C409 1.390 . S
C408 N411 1.391 . S
C409 H381 0.930 . S
C409 C408 1.390 . S
C409 C410 1.392 . S
C410 H382 0.929 . S
C410 C407 1.391 . S
C410 C409 1.392 . S
N411 Co355 2.257 . S
N411 C408 1.391 . S
N411 C412 1.388 . S
C412 H383 0.930 . S
C412 C407 1.391 . S
C412 N411 1.388 . S
Co413 O415 2.143 . S
Co413 O421 2.074 . S
Co413 O424 2.093 1_655 S
Co413 O437 2.097 1_655 S
Co413 N454 2.151 . S
Co413 N462 2.214 . S
Co414 O415 2.160 1_455 S
Co414 O420 2.058 1_455 S
Co414 O430 2.047 1_455 S
Co414 O445 2.037 . S
Co414 N449 2.145 . S
Co414 N470 2.257 . S
O415 Co413 2.143 . S
O415 Co414 2.160 1_655 S
C416 O417 1.278 . S
C416 O424 1.224 . S
O417 C416 1.278 . S
C418 O419 1.245 . S
C418 O430 1.253 . S
O419 C418 1.245 . S
O420 Co414 2.058 1_655 S
O420 C446 1.269 . S
O421 Co413 2.074 . S
O421 C446 1.257 . S
H422 C447 0.930 . S
H423 C453 0.930 . S
O424 Co413 2.093 1_455 S
O424 C416 1.224 . S
H425 C457 0.929 . S
H426 C459 0.930 . S
H427 C460 0.930 . S
H428 C458 0.929 . S
H429 C461 0.928 . S
O430 Co414 2.047 1_655 S
O430 C418 1.253 . S
H431 C450 0.929 . S
H432 C451 0.929 . S
H433 C463 0.931 . S
H434 C455 0.929 . S
H435 C464 0.930 . S
H436 C456 0.931 . S
O437 Co413 2.097 1_455 S
O437 C465 1.214 . S
H438 C466 0.929 . S
H439 C467 0.929 . S
H440 C468 0.930 . S
H441 C469 0.929 . S
H442 C471 0.930 . S
H443 C448 0.930 . S
H444 C452 0.930 . S
O445 Co414 2.037 . S
O445 C465 1.234 . S
C446 O420 1.269 . S
C446 O421 1.257 . S
C447 H422 0.930 . S
C447 C450 1.388 . S
C447 C452 1.418 . S
C448 H443 0.930 . S
C448 C451 1.404 . S
C448 C452 1.353 . S
N449 Co414 2.145 . S
N449 C450 1.397 . S
N449 C451 1.334 . S
C450 H431 0.929 . S
C450 C447 1.388 . S
C450 N449 1.397 . S
C451 H432 0.929 . S
C451 C448 1.404 . S
C451 N449 1.334 . S
C452 H444 0.930 . S
C452 C447 1.418 . S
C452 C448 1.353 . S
C453 H423 0.930 . S
C453 N454 1.330 . S
C453 C455 1.446 . S
N454 Co413 2.151 . S
N454 C453 1.330 . S
N454 C458 1.418 . S
C455 H434 0.929 . S
C455 C453 1.446 . S
C455 C456 1.332 . S
C456 H436 0.931 . S
C456 C455 1.332 . S
C456 C457 1.267 . S
C457 H425 0.929 . S
C457 C456 1.267 . S
C457 C458 1.251 . S
C458 H428 0.929 . S
C458 N454 1.418 . S
C458 C457 1.251 . S
C459 H426 0.930 . S
C459 C461 1.406 . S
C459 C464 1.261 . S
C460 H427 0.930 . S
C460 N462 1.325 . S
C460 C463 1.357 . S
C461 H429 0.928 . S
C461 C459 1.406 . S
C461 N462 1.261 . S
N462 Co413 2.214 . S
N462 C460 1.325 . S
N462 C461 1.261 . S
C463 H433 0.931 . S
C463 C460 1.357 . S
C463 C464 1.312 . S
C464 H435 0.930 . S
C464 C459 1.261 . S
C464 C463 1.312 . S
C465 O437 1.214 . S
C465 O445 1.234 . S
C466 H438 0.929 . S
C466 C469 1.391 . S
C466 C471 1.391 . S
C467 H439 0.929 . S
C467 C468 1.390 . S
C467 N470 1.391 . S
C468 H440 0.930 . S
C468 C467 1.390 . S
C468 C469 1.392 . S
C469 H441 0.929 . S
C469 C466 1.391 . S
C469 C468 1.392 . S
N470 Co414 2.257 . S
N470 C467 1.391 . S
N470 C471 1.388 . S
C471 H442 0.930 . S
C471 C466 1.391 . S
C471 N470 1.388 . S
Co472 O474 2.143 . S
Co472 O480 2.074 . S
Co472 O483 2.093 1_554 S
Co472 O496 2.097 1_554 S
Co472 N513 2.151 . S
Co472 N521 2.214 . S
Co473 O474 2.160 1_556 S
Co473 O479 2.058 1_556 S
Co473 O489 2.057 1_556 S
Co473 O504 2.037 . S
Co473 N508 2.145 . S
Co473 N529 2.257 . S
O474 Co472 2.143 . S
O474 Co473 2.160 1_554 S
C475 O476 1.278 . S
C475 O483 1.224 . S
O476 C475 1.278 . S
C477 O478 1.245 . S
C477 O489 1.232 . S
O478 C477 1.245 . S
O479 Co473 2.058 1_554 S
O479 C505 1.269 . S
O480 Co472 2.074 . S
O480 C505 1.257 . S
H481 C506 0.930 . S
H482 C512 0.930 . S
O483 Co472 2.093 1_556 S
O483 C475 1.224 . S
H484 C516 0.929 . S
H485 C518 0.930 . S
H486 C519 0.930 . S
H487 C517 0.929 . S
H488 C520 0.928 . S
O489 Co473 2.057 1_554 S
O489 C477 1.232 . S
H490 C509 0.929 . S
H491 C510 0.929 . S
H492 C522 0.931 . S
H493 C514 0.929 . S
H494 C523 0.930 . S
H495 C515 0.931 . S
O496 Co472 2.097 1_556 S
O496 C524 1.214 . S
H497 C525 0.929 . S
H498 C526 0.929 . S
H499 C527 0.930 . S
H500 C528 0.929 . S
H501 C530 0.930 . S
H502 C507 0.930 . S
H503 C511 0.930 . S
O504 Co473 2.037 . S
O504 C524 1.234 . S
C505 O479 1.269 . S
C505 O480 1.257 . S
C506 H481 0.930 . S
C506 C509 1.388 . S
C506 C511 1.418 . S
C507 H502 0.930 . S
C507 C510 1.404 . S
C507 C511 1.353 . S
N508 Co473 2.145 . S
N508 C509 1.397 . S
N508 C510 1.334 . S
C509 H490 0.929 . S
C509 C506 1.388 . S
C509 N508 1.397 . S
C510 H491 0.929 . S
C510 C507 1.404 . S
C510 N508 1.334 . S
C511 H503 0.930 . S
C511 C506 1.418 . S
C511 C507 1.353 . S
C512 H482 0.930 . S
C512 N513 1.330 . S
C512 C514 1.446 . S
N513 Co472 2.151 . S
N513 C512 1.330 . S
N513 C517 1.418 . S
C514 H493 0.929 . S
C514 C512 1.446 . S
C514 C515 1.332 . S
C515 H495 0.931 . S
C515 C514 1.332 . S
C515 C516 1.267 . S
C516 H484 0.929 . S
C516 C515 1.267 . S
C516 C517 1.251 . S
C517 H487 0.929 . S
C517 N513 1.418 . S
C517 C516 1.251 . S
C518 H485 0.930 . S
C518 C520 1.406 . S
C518 C523 1.261 . S
C519 H486 0.930 . S
C519 N521 1.325 . S
C519 C522 1.357 . S
C520 H488 0.928 . S
C520 C518 1.406 . S
C520 N521 1.261 . S
N521 Co472 2.214 . S
N521 C519 1.325 . S
N521 C520 1.261 . S
C522 H492 0.931 . S
C522 C519 1.357 . S
C522 C523 1.312 . S
C523 H494 0.930 . S
C523 C518 1.261 . S
C523 C522 1.312 . S
C524 O496 1.214 . S
C524 O504 1.234 . S
C525 H497 0.929 . S
C525 C528 1.391 . S
C525 C530 1.391 . S
C526 H498 0.929 . S
C526 C527 1.390 . S
C526 N529 1.391 . S
C527 H499 0.930 . S
C527 C526 1.390 . S
C527 C528 1.392 . S
C528 H500 0.929 . S
C528 C525 1.391 . S
C528 C527 1.392 . S
N529 Co473 2.257 . S
N529 C526 1.391 . S
N529 C530 1.388 . S
C530 H501 0.930 . S
C530 C525 1.391 . S
C530 N529 1.388 . S
Co531 O533 2.174 . S
Co531 O539 2.074 . S
Co531 O542 2.093 . S
Co531 O555 2.097 . S
Co531 N572 2.151 . S
Co531 N580 2.214 . S
Co532 O533 2.129 1_554 S
Co532 O538 2.058 . S
Co532 O548 2.057 . S
Co532 O563 2.037 . S
Co532 N567 2.145 . S
Co532 N588 2.257 . S
O533 Co531 2.174 . S
O533 Co532 2.129 1_556 S
C534 O535 1.278 . S
C534 O542 1.224 . S
O535 C534 1.278 . S
C536 O537 1.245 . S
C536 O548 1.232 . S
O537 C536 1.245 . S
O538 Co532 2.058 . S
O538 C564 1.269 . S
O539 Co531 2.074 . S
O539 C564 1.257 1_556 S
H540 C565 0.930 . S
H541 C571 0.930 . S
O542 Co531 2.093 . S
O542 C534 1.224 . S
H543 C575 0.929 . S
H544 C577 0.930 . S
H545 C578 0.930 . S
H546 C576 0.929 . S
H547 C579 0.928 . S
O548 Co532 2.057 . S
O548 C536 1.232 . S
H549 C568 0.929 . S
H550 C569 0.929 . S
H551 C581 0.931 . S
H552 C573 0.929 . S
H553 C582 0.930 . S
H554 C574 0.931 . S
O555 Co531 2.097 . S
O555 C583 1.214 . S
H556 C584 0.929 . S
H557 C585 0.929 . S
H558 C586 0.930 . S
H559 C587 0.929 . S
H560 C589 0.930 . S
H561 C566 0.930 . S
H562 C570 0.930 . S
O563 Co532 2.037 . S
O563 C583 1.234 1_554 S
C564 O538 1.269 . S
C564 O539 1.257 1_554 S
C565 H540 0.930 . S
C565 C568 1.388 . S
C565 C570 1.418 . S
C566 H561 0.930 . S
C566 C569 1.404 . S
C566 C570 1.353 . S
N567 Co532 2.145 . S
N567 C568 1.397 . S
N567 C569 1.334 . S
C568 H549 0.929 . S
C568 C565 1.388 . S
C568 N567 1.397 . S
C569 H550 0.929 . S
C569 C566 1.404 . S
C569 N567 1.334 . S
C570 H562 0.930 . S
C570 C565 1.418 . S
C570 C566 1.353 . S
C571 H541 0.930 . S
C571 N572 1.330 . S
C571 C573 1.446 . S
N572 Co531 2.151 . S
N572 C571 1.330 . S
N572 C576 1.418 . S
C573 H552 0.929 . S
C573 C571 1.446 . S
C573 C574 1.332 . S
C574 H554 0.931 . S
C574 C573 1.332 . S
C574 C575 1.267 . S
C575 H543 0.929 . S
C575 C574 1.267 . S
C575 C576 1.251 . S
C576 H546 0.929 . S
C576 N572 1.418 . S
C576 C575 1.251 . S
C577 H544 0.930 . S
C577 C579 1.406 . S
C577 C582 1.261 . S
C578 H545 0.930 . S
C578 N580 1.325 . S
C578 C581 1.357 . S
C579 H547 0.928 . S
C579 C577 1.406 . S
C579 N580 1.261 . S
N580 Co531 2.214 . S
N580 C578 1.325 . S
N580 C579 1.261 . S
C581 H551 0.931 . S
C581 C578 1.357 . S
C581 C582 1.312 . S
C582 H553 0.930 . S
C582 C577 1.261 . S
C582 C581 1.312 . S
C583 O555 1.214 . S
C583 O563 1.234 1_556 S
C584 H556 0.929 . S
C584 C587 1.391 . S
C584 C589 1.391 . S
C585 H557 0.929 . S
C585 C586 1.390 . S
C585 N588 1.391 . S
C586 H558 0.930 . S
C586 C585 1.390 . S
C586 C587 1.392 . S
C587 H559 0.929 . S
C587 C584 1.391 . S
C587 C586 1.392 . S
N588 Co532 2.257 . S
N588 C585 1.391 . S
N588 C589 1.388 . S
C589 H560 0.930 . S
C589 C584 1.391 . S
C589 N588 1.388 . S
Co590 O592 2.143 . S
Co590 O598 2.074 . S
Co590 O601 2.093 1_554 S
Co590 O614 2.097 1_554 S
Co590 N631 2.151 . S
Co590 N639 2.214 . S
Co591 O592 2.160 1_556 S
Co591 O597 2.058 1_556 S
Co591 O607 2.057 1_556 S
Co591 O622 2.037 . S
Co591 N626 2.145 . S
Co591 N647 2.257 . S
O592 Co590 2.143 . S
O592 Co591 2.160 1_554 S
C593 O594 1.278 . S
C593 O601 1.224 . S
O594 C593 1.278 . S
C595 O596 1.245 . S
C595 O607 1.232 . S
O596 C595 1.245 . S
O597 Co591 2.058 1_554 S
O597 C623 1.269 . S
O598 Co590 2.074 . S
O598 C623 1.257 . S
H599 C624 0.930 . S
H600 C630 0.930 . S
O601 Co590 2.093 1_556 S
O601 C593 1.224 . S
H602 C634 0.929 . S
H603 C636 0.930 . S
H604 C637 0.930 . S
H605 C635 0.929 . S
H606 C638 0.928 . S
O607 Co591 2.057 1_554 S
O607 C595 1.232 . S
H608 C627 0.929 . S
H609 C628 0.929 . S
H610 C640 0.931 . S
H611 C632 0.929 . S
H612 C641 0.930 . S
H613 C633 0.931 . S
O614 Co590 2.097 1_556 S
O614 C642 1.214 . S
H615 C643 0.929 . S
H616 C644 0.929 . S
H617 C645 0.930 . S
H618 C646 0.929 . S
H619 C648 0.930 . S
H620 C625 0.930 . S
H621 C629 0.930 . S
O622 Co591 2.037 . S
O622 C642 1.234 . S
C623 O597 1.269 . S
C623 O598 1.257 . S
C624 H599 0.930 . S
C624 C627 1.388 . S
C624 C629 1.418 . S
C625 H620 0.930 . S
C625 C628 1.404 . S
C625 C629 1.353 . S
N626 Co591 2.145 . S
N626 C627 1.397 . S
N626 C628 1.334 . S
C627 H608 0.929 . S
C627 C624 1.388 . S
C627 N626 1.397 . S
C628 H609 0.929 . S
C628 C625 1.404 . S
C628 N626 1.334 . S
C629 H621 0.930 . S
C629 C624 1.418 . S
C629 C625 1.353 . S
C630 H600 0.930 . S
C630 N631 1.330 . S
C630 C632 1.446 . S
N631 Co590 2.151 . S
N631 C630 1.330 . S
N631 C635 1.418 . S
C632 H611 0.929 . S
C632 C630 1.446 . S
C632 C633 1.332 . S
C633 H613 0.931 . S
C633 C632 1.332 . S
C633 C634 1.267 . S
C634 H602 0.929 . S
C634 C633 1.267 . S
C634 C635 1.251 . S
C635 H605 0.929 . S
C635 N631 1.418 . S
C635 C634 1.251 . S
C636 H603 0.930 . S
C636 C638 1.406 . S
C636 C641 1.261 . S
C637 H604 0.930 . S
C637 N639 1.325 . S
C637 C640 1.357 . S
C638 H606 0.928 . S
C638 C636 1.406 . S
C638 N639 1.261 . S
N639 Co590 2.214 . S
N639 C637 1.325 . S
N639 C638 1.261 . S
C640 H610 0.931 . S
C640 C637 1.357 . S
C640 C641 1.312 . S
C641 H612 0.930 . S
C641 C636 1.261 . S
C641 C640 1.312 . S
C642 O614 1.214 . S
C642 O622 1.234 . S
C643 H615 0.929 . S
C643 C646 1.391 . S
C643 C648 1.391 . S
C644 H616 0.929 . S
C644 C645 1.390 . S
C644 N647 1.391 . S
C645 H617 0.930 . S
C645 C644 1.390 . S
C645 C646 1.392 . S
C646 H618 0.929 . S
C646 C643 1.391 . S
C646 C645 1.392 . S
N647 Co591 2.257 . S
N647 C644 1.391 . S
N647 C648 1.388 . S
C648 H619 0.930 . S
C648 C643 1.391 . S
C648 N647 1.388 . S
Co649 O651 2.143 . S
Co649 O657 2.074 . S
Co649 O660 2.093 . S
Co649 O673 2.097 . S
Co649 N690 2.151 . S
Co649 N698 2.214 . S
Co650 O651 2.160 1_556 S
Co650 O656 2.058 . S
Co650 O666 2.057 . S
Co650 O681 2.037 . S
Co650 N685 2.145 . S
Co650 N706 2.257 . S
O651 Co649 2.143 . S
O651 Co650 2.160 1_554 S
C652 O653 1.278 . S
C652 O660 1.224 . S
O653 C652 1.278 . S
C654 O655 1.245 . S
C654 O666 1.232 . S
O655 C654 1.245 . S
O656 Co650 2.058 . S
O656 C682 1.269 . S
O657 Co649 2.074 . S
O657 C682 1.257 1_554 S
H658 C683 0.930 . S
H659 C689 0.930 . S
O660 Co649 2.093 . S
O660 C652 1.224 . S
H661 C693 0.929 . S
H662 C695 0.930 . S
H663 C696 0.930 . S
H664 C694 0.929 . S
H665 C697 0.928 . S
O666 Co650 2.057 . S
O666 C654 1.232 . S
H667 C686 0.929 . S
H668 C687 0.929 . S
H669 C699 0.931 . S
H670 C691 0.929 . S
H671 C700 0.930 . S
H672 C692 0.931 . S
O673 Co649 2.097 . S
O673 C701 1.214 . S
H674 C702 0.929 . S
H675 C703 0.929 . S
H676 C704 0.930 . S
H677 C705 0.929 . S
H678 C707 0.930 . S
H679 C684 0.930 . S
H680 C688 0.930 . S
O681 Co650 2.037 . S
O681 C701 1.234 1_556 S
C682 O656 1.269 . S
C682 O657 1.257 1_556 S
C683 H658 0.930 . S
C683 C686 1.388 . S
C683 C688 1.418 . S
C684 H679 0.930 . S
C684 C687 1.404 . S
C684 C688 1.353 . S
N685 Co650 2.145 . S
N685 C686 1.397 . S
N685 C687 1.334 . S
C686 H667 0.929 . S
C686 C683 1.388 . S
C686 N685 1.397 . S
C687 H668 0.929 . S
C687 C684 1.404 . S
C687 N685 1.334 . S
C688 H680 0.930 . S
C688 C683 1.418 . S
C688 C684 1.353 . S
C689 H659 0.930 . S
C689 N690 1.330 . S
C689 C691 1.446 . S
N690 Co649 2.151 . S
N690 C689 1.330 . S
N690 C694 1.418 . S
C691 H670 0.929 . S
C691 C689 1.446 . S
C691 C692 1.332 . S
C692 H672 0.931 . S
C692 C691 1.332 . S
C692 C693 1.267 . S
C693 H661 0.929 . S
C693 C692 1.267 . S
C693 C694 1.251 . S
C694 H664 0.929 . S
C694 N690 1.418 . S
C694 C693 1.251 . S
C695 H662 0.930 . S
C695 C697 1.406 . S
C695 C700 1.261 . S
C696 H663 0.930 . S
C696 N698 1.325 . S
C696 C699 1.357 . S
C697 H665 0.928 . S
C697 C695 1.406 . S
C697 N698 1.261 . S
N698 Co649 2.214 . S
N698 C696 1.325 . S
N698 C697 1.261 . S
C699 H669 0.931 . S
C699 C696 1.357 . S
C699 C700 1.312 . S
C700 H671 0.930 . S
C700 C695 1.261 . S
C700 C699 1.312 . S
C701 O673 1.214 . S
C701 O681 1.234 1_554 S
C702 H674 0.929 . S
C702 C705 1.391 . S
C702 C707 1.391 . S
C703 H675 0.929 . S
C703 C704 1.390 . S
C703 N706 1.391 . S
C704 H676 0.930 . S
C704 C703 1.390 . S
C704 C705 1.392 . S
C705 H677 0.929 . S
C705 C702 1.391 . S
C705 C704 1.392 . S
N706 Co650 2.257 . S
N706 C703 1.391 . S
N706 C707 1.388 . S
C707 H678 0.930 . S
C707 C702 1.391 . S
C707 N706 1.388 . S
H708 C716 0.929 . S
H709 C718 0.930 . S
H710 C720 0.930 . S
H711 C723 0.929 . S
H712 C726 0.930 . S
H713 C728 0.960 . S
H714 C728 0.960 . S
H715 C728 0.960 . S
C716 H708 0.929 . S
C716 C717 1.377 1_655 S
C716 C718 1.384 . S
C717 C716 1.377 1_455 S
C717 C723 1.390 . S
C718 H709 0.930 . S
C718 C716 1.384 . S
C718 C719 1.372 1_655 S
C719 C718 1.372 1_455 S
C719 C720 1.400 . S
C719 C724 1.490 . S
C720 H710 0.930 . S
C720 C719 1.400 . S
C720 C723 1.386 . S
H721 C737 0.930 . S
H722 C738 0.931 . S
C723 H711 0.929 . S
C723 C717 1.390 . S
C723 C720 1.386 . S
C724 C719 1.490 . S
C724 C726 1.395 1_455 S
C724 C727 1.403 . S
H725 C731 0.930 . S
C726 H712 0.930 . S
C726 C724 1.395 1_655 S
C726 C729 1.403 . S
C727 C724 1.403 . S
C727 C728 1.524 . S
C727 C731 1.400 . S
C728 H713 0.960 . S
C728 H714 0.960 . S
C728 H715 0.960 . S
C728 C727 1.524 . S
C729 C726 1.403 . S
C729 C730 1.392 . S
C729 C733 1.495 . S
C730 C729 1.392 . S
C730 C731 1.385 1_655 S
C730 C732 1.478 . S
C731 H725 0.930 . S
C731 C727 1.400 . S
C731 C730 1.385 1_455 S
C732 C730 1.478 . S
C732 C734 1.381 . S
C732 C738 1.383 1_655 S
C733 C729 1.495 . S
C733 H739 0.959 . S
C733 H740 0.961 . S
C733 H741 0.960 . S
C734 C732 1.381 . S
C734 C735 1.394 . S
C734 H742 0.930 . S
C735 C734 1.394 . S
C735 C736 1.383 . S
C735 H743 0.929 . S
C736 C735 1.383 . S
C736 C737 1.377 1_655 S
C737 H721 0.930 . S
C737 C736 1.377 1_455 S
C737 C738 1.379 . S
C738 H722 0.931 . S
C738 C732 1.383 1_455 S
C738 C737 1.379 . S
H739 C733 0.959 . S
H740 C733 0.961 . S
H741 C733 0.960 . S
H742 C734 0.930 . S
H743 C735 0.929 . S
H744 C752 0.929 . S
H745 C754 0.930 . S
H746 C756 0.930 . S
H747 C759 0.929 . S
H748 C762 0.930 . S
H749 C764 0.960 . S
H750 C764 0.960 . S
H751 C764 0.960 . S
C752 H744 0.929 . S
C752 C753 1.377 1_565 S
C752 C754 1.384 . S
C753 C752 1.377 1_545 S
C753 C759 1.390 . S
C754 H745 0.930 . S
C754 C752 1.384 . S
C754 C755 1.372 1_565 S
C755 C754 1.372 1_545 S
C755 C756 1.400 . S
C755 C760 1.490 . S
C756 H746 0.930 . S
C756 C755 1.400 . S
C756 C759 1.386 . S
H757 C773 0.930 . S
H758 C774 0.931 . S
C759 H747 0.929 . S
C759 C753 1.390 . S
C759 C756 1.386 . S
C760 C755 1.490 . S
C760 C762 1.395 1_545 S
C760 C763 1.403 . S
H761 C767 0.930 . S
C762 H748 0.930 . S
C762 C760 1.395 1_565 S
C762 C765 1.403 . S
C763 C760 1.403 . S
C763 C764 1.524 . S
C763 C767 1.400 . S
C764 H749 0.960 . S
C764 H750 0.960 . S
C764 H751 0.960 . S
C764 C763 1.524 . S
C765 C762 1.403 . S
C765 C766 1.392 . S
C765 C769 1.495 . S
C766 C765 1.392 . S
C766 C767 1.385 1_565 S
C766 C768 1.478 . S
C767 H761 0.930 . S
C767 C763 1.400 . S
C767 C766 1.385 1_545 S
C768 C766 1.478 . S
C768 C770 1.381 . S
C768 C774 1.383 1_565 S
C769 C765 1.495 . S
C769 H775 0.959 . S
C769 H776 0.961 . S
C769 H777 0.960 . S
C770 C768 1.381 . S
C770 C771 1.394 . S
C770 H778 0.930 . S
C771 C770 1.394 . S
C771 C772 1.383 . S
C771 H779 0.929 . S
C772 C771 1.383 . S
C772 C773 1.377 1_565 S
C773 H757 0.930 . S
C773 C772 1.377 1_545 S
C773 C774 1.379 . S
C774 H758 0.931 . S
C774 C768 1.383 1_545 S
C774 C773 1.379 . S
H775 C769 0.959 . S
H776 C769 0.961 . S
H777 C769 0.960 . S
H778 C770 0.930 . S
H779 C771 0.929 . S
H780 C788 0.929 . S
H781 C790 0.930 . S
H782 C792 0.930 . S
H783 C795 0.929 1_655 S
H784 C798 0.930 . S
H785 C800 0.960 . S
H786 C800 0.960 . S
H787 C800 0.960 . S
C788 H780 0.929 . S
C788 C789 1.377 . S
C788 C790 1.384 . S
C789 C788 1.377 . S
C789 C795 1.390 . S
C790 H781 0.930 . S
C790 C788 1.384 . S
C790 C791 1.372 . S
C791 C790 1.372 . S
C791 C792 1.400 1_455 S
C791 C796 1.490 . S
C792 H782 0.930 . S
C792 C791 1.400 1_655 S
C792 C795 1.386 1_655 S
H793 C809 0.930 . S
H794 C810 0.931 . S
C795 H783 0.929 1_455 S
C795 C789 1.390 . S
C795 C792 1.386 1_455 S
C796 C791 1.490 . S
C796 C798 1.395 1_455 S
C796 C799 1.403 . S
H797 C803 0.930 . S
C798 H784 0.930 . S
C798 C796 1.395 1_655 S
C798 C801 1.403 . S
C799 C796 1.403 . S
C799 C800 1.524 . S
C799 C803 1.400 . S
C800 H785 0.960 . S
C800 H786 0.960 . S
C800 H787 0.960 . S
C800 C799 1.524 . S
C801 C798 1.403 . S
C801 C802 1.392 . S
C801 C805 1.495 . S
C802 C801 1.392 . S
C802 C803 1.385 1_655 S
C802 C804 1.478 . S
C803 H797 0.930 . S
C803 C799 1.400 . S
C803 C802 1.385 1_455 S
C804 C802 1.478 . S
C804 C806 1.381 1_655 S
C804 C810 1.383 . S
C805 C801 1.495 . S
C805 H811 0.959 . S
C805 H812 0.961 . S
C805 H813 0.960 . S
C806 C804 1.381 1_455 S
C806 C807 1.399 . S
C806 H814 0.930 . S
C807 C806 1.399 . S
C807 C808 1.360 1_455 S
C807 H815 0.949 . S
C808 C807 1.360 1_655 S
C808 C809 1.377 . S
C809 H793 0.930 . S
C809 C808 1.377 . S
C809 C810 1.379 . S
C810 H794 0.931 . S
C810 C804 1.383 . S
C810 C809 1.379 . S
H811 C805 0.959 . S
H812 C805 0.961 . S
H813 C805 0.960 . S
H814 C806 0.930 . S
H815 C807 0.949 . S
H816 C824 0.929 . S
H817 C826 0.930 . S
H818 C828 0.930 . S
H819 C831 0.929 . S
H820 C834 0.930 . S
H821 C836 0.960 . S
H822 C836 0.960 . S
H823 C836 0.960 . S
C824 H816 0.929 . S
C824 C825 1.377 . S
C824 C826 1.384 . S
C825 C824 1.377 . S
C825 C831 1.390 1_565 S
C826 H817 0.930 . S
C826 C824 1.384 . S
C826 C827 1.372 . S
C827 C826 1.372 . S
C827 C828 1.400 1_565 S
C827 C832 1.490 . S
C828 H818 0.930 . S
C828 C827 1.400 1_545 S
C828 C831 1.386 . S
H829 C845 0.930 . S
H830 C846 0.931 . S
C831 H819 0.929 . S
C831 C825 1.390 1_545 S
C831 C828 1.386 . S
C832 C827 1.490 . S
C832 C834 1.395 . S
C832 C835 1.403 1_565 S
H833 C839 0.930 . S
C834 H820 0.930 . S
C834 C832 1.395 . S
C834 C837 1.403 . S
C835 C832 1.403 1_545 S
C835 C836 1.524 . S
C835 C839 1.400 . S
C836 H821 0.960 . S
C836 H822 0.960 . S
C836 H823 0.960 . S
C836 C835 1.524 . S
C837 C834 1.403 . S
C837 C838 1.392 . S
C837 C841 1.495 . S
C838 C837 1.392 . S
C838 C839 1.385 1_565 S
C838 C840 1.478 1_565 S
C839 H833 0.930 . S
C839 C835 1.400 . S
C839 C838 1.385 1_545 S
C840 C838 1.478 1_545 S
C840 C842 1.381 1_545 S
C840 C846 1.383 . S
C841 C837 1.495 . S
C841 H847 0.959 . S
C841 H848 0.961 . S
C841 H849 0.960 . S
C842 C840 1.381 1_565 S
C842 C843 1.394 . S
C842 H850 0.930 . S
C843 C842 1.394 . S
C843 C844 1.383 1_565 S
C843 H851 0.929 . S
C844 C843 1.383 1_545 S
C844 C845 1.377 . S
C845 H829 0.930 . S
C845 C844 1.377 . S
C845 C846 1.379 . S
C846 H830 0.931 . S
C846 C840 1.383 . S
C846 C845 1.379 . S
H847 C841 0.959 . S
H848 C841 0.961 . S
H849 C841 0.960 . S
H850 C842 0.930 . S
H851 C843 0.929 . S
H852 C860 0.929 . S
H853 C862 0.930 . S
H854 C864 0.930 . S
H855 C867 0.929 . S
H856 C870 0.930 . S
H857 C872 0.960 . S
H858 C872 0.960 . S
H859 C872 0.960 . S
C860 H852 0.929 . S
C860 C861 1.377 1_455 S
C860 C862 1.384 . S
C861 C860 1.377 1_655 S
C861 C867 1.390 . S
C862 H853 0.930 . S
C862 C860 1.384 . S
C862 C863 1.372 1_455 S
C863 C862 1.372 1_655 S
C863 C864 1.400 . S
C863 C868 1.490 . S
C864 H854 0.930 . S
C864 C863 1.400 . S
C864 C867 1.386 . S
H865 C881 0.930 . S
H866 C882 0.931 . S
C867 H855 0.929 . S
C867 C861 1.390 . S
C867 C864 1.386 . S
C868 C863 1.490 . S
C868 C870 1.395 1_655 S
C868 C871 1.403 . S
H869 C875 0.930 . S
C870 H856 0.930 . S
C870 C868 1.395 1_455 S
C870 C873 1.403 . S
C871 C868 1.403 . S
C871 C872 1.524 . S
C871 C875 1.400 . S
C872 H857 0.960 . S
C872 H858 0.960 . S
C872 H859 0.960 . S
C872 C871 1.524 . S
C873 C870 1.403 . S
C873 C874 1.392 . S
C873 C877 1.495 . S
C874 C873 1.392 . S
C874 C875 1.385 1_455 S
C874 C876 1.478 . S
C875 H869 0.930 . S
C875 C871 1.400 . S
C875 C874 1.385 1_655 S
C876 C874 1.478 . S
C876 C878 1.381 . S
C876 C882 1.383 1_455 S
C877 C873 1.495 . S
C877 H883 0.959 . S
C877 H884 0.961 . S
C877 H885 0.960 . S
C878 C876 1.381 . S
C878 C879 1.394 . S
C878 H886 0.930 . S
C879 C878 1.394 . S
C879 C880 1.383 . S
C879 H887 0.929 . S
C880 C879 1.383 . S
C880 C881 1.377 1_455 S
C881 H865 0.930 . S
C881 C880 1.377 1_655 S
C881 C882 1.379 . S
C882 H866 0.931 . S
C882 C876 1.383 1_655 S
C882 C881 1.379 . S
H883 C877 0.959 . S
H884 C877 0.961 . S
H885 C877 0.960 . S
H886 C878 0.930 . S
H887 C879 0.929 . S
H888 C896 0.929 . S
H889 C898 0.930 . S
H890 C900 0.930 . S
H891 C903 0.929 . S
H892 C906 0.930 . S
H893 C908 0.960 . S
H894 C908 0.960 . S
H895 C908 0.960 . S
C896 H888 0.929 . S
C896 C897 1.377 1_545 S
C896 C898 1.384 . S
C897 C896 1.377 1_565 S
C897 C903 1.390 . S
C898 H889 0.930 . S
C898 C896 1.384 . S
C898 C899 1.372 1_545 S
C899 C898 1.372 1_565 S
C899 C900 1.400 . S
C899 C904 1.494 . S
C900 H890 0.930 . S
C900 C899 1.400 . S
C900 C903 1.386 . S
H901 C917 0.930 . S
H902 C918 0.931 . S
C903 H891 0.929 . S
C903 C897 1.390 . S
C903 C900 1.386 . S
C904 C899 1.494 . S
C904 C906 1.383 1_565 S
C904 C907 1.410 . S
H905 C911 0.930 . S
C906 H892 0.930 . S
C906 C904 1.383 1_545 S
C906 C909 1.403 . S
C907 C904 1.410 . S
C907 C908 1.524 . S
C907 C911 1.400 . S
C908 H893 0.960 . S
C908 H894 0.960 . S
C908 H895 0.960 . S
C908 C907 1.524 . S
C909 C906 1.403 . S
C909 C910 1.392 . S
C909 C913 1.495 . S
C910 C909 1.392 . S
C910 C911 1.385 1_545 S
C910 C912 1.478 . S
C911 H905 0.930 . S
C911 C907 1.400 . S
C911 C910 1.385 1_565 S
C912 C910 1.478 . S
C912 C914 1.381 . S
C912 C918 1.383 1_545 S
C913 C909 1.495 . S
C913 H919 0.959 . S
C913 H920 0.961 . S
C913 H921 0.960 . S
C914 C912 1.381 . S
C914 C915 1.394 . S
C914 H922 0.930 . S
C915 C914 1.394 . S
C915 C916 1.383 . S
C915 H923 0.929 . S
C916 C915 1.383 . S
C916 C917 1.377 1_545 S
C917 H901 0.930 . S
C917 C916 1.377 1_565 S
C917 C918 1.379 . S
C918 H902 0.931 . S
C918 C912 1.383 1_565 S
C918 C917 1.379 . S
H919 C913 0.959 . S
H920 C913 0.961 . S
H921 C913 0.960 . S
H922 C914 0.930 . S
H923 C915 0.929 . S
H924 C932 0.929 . S
H925 C934 0.930 . S
H926 C936 0.930 . S
H927 C939 0.929 . S
H928 C942 0.930 . S
H929 C944 0.960 . S
H930 C944 0.960 . S
H931 C944 0.960 . S
C932 H924 0.929 . S
C932 C933 1.377 . S
C932 C934 1.384 . S
C933 C932 1.377 . S
C933 C939 1.390 1_655 S
C934 H925 0.930 . S
C934 C932 1.384 . S
C934 C935 1.372 . S
C935 C934 1.372 . S
C935 C936 1.400 1_655 S
C935 C940 1.490 . S
C936 H926 0.930 . S
C936 C935 1.400 1_455 S
C936 C939 1.386 . S
H937 C953 0.930 . S
H938 C954 0.931 . S
C939 H927 0.929 . S
C939 C933 1.390 1_455 S
C939 C936 1.386 . S
C940 C935 1.490 . S
C940 C942 1.395 . S
C940 C943 1.403 1_655 S
H941 C947 0.930 . S
C942 H928 0.930 . S
C942 C940 1.395 . S
C942 C945 1.403 . S
C943 C940 1.403 1_455 S
C943 C944 1.524 . S
C943 C947 1.400 . S
C944 H929 0.960 . S
C944 H930 0.960 . S
C944 H931 0.960 . S
C944 C943 1.524 . S
C945 C942 1.403 . S
C945 C946 1.422 . S
C945 C949 1.495 . S
C946 C945 1.422 . S
C946 C947 1.358 1_655 S
C946 C948 1.473 1_655 S
C947 H941 0.930 . S
C947 C943 1.400 . S
C947 C946 1.358 1_455 S
C948 C946 1.473 1_455 S
C948 C950 1.381 1_455 S
C948 C954 1.383 . S
C949 C945 1.495 . S
C949 H955 0.959 . S
C949 H956 0.961 . S
C949 H957 0.960 . S
C950 C948 1.381 1_655 S
C950 C951 1.400 . S
C950 H958 0.930 . S
C951 C950 1.400 . S
C951 C952 1.369 1_655 S
C951 H959 0.939 . S
C952 C951 1.369 1_455 S
C952 C953 1.377 . S
C953 H937 0.930 . S
C953 C952 1.377 . S
C953 C954 1.379 . S
C954 H938 0.931 . S
C954 C948 1.383 . S
C954 C953 1.379 . S
H955 C949 0.959 . S
H956 C949 0.961 . S
H957 C949 0.960 . S
H958 C950 0.930 . S
H959 C951 0.939 . S
H960 C968 0.929 . S
H961 C970 0.930 . S
H962 C972 0.930 . S
H963 C975 0.929 . S
H964 C978 0.930 . S
H965 C980 0.960 . S
H966 C980 0.960 . S
H967 C980 0.960 . S
C968 H960 0.929 . S
C968 C969 1.377 1_565 S
C968 C970 1.384 . S
C969 C968 1.377 1_545 S
C969 C975 1.390 . S
C970 H961 0.930 . S
C970 C968 1.384 . S
C970 C971 1.372 1_565 S
C971 C970 1.372 1_545 S
C971 C972 1.400 . S
C971 C976 1.490 . S
C972 H962 0.930 . S
C972 C971 1.400 . S
C972 C975 1.386 . S
H973 C989 0.930 . S
H974 C990 0.931 . S
C975 H963 0.929 . S
C975 C969 1.390 . S
C975 C972 1.386 . S
C976 C971 1.490 . S
C976 C978 1.395 1_545 S
C976 C979 1.403 . S
H977 C983 0.930 . S
C978 H964 0.930 . S
C978 C976 1.395 1_565 S
C978 C981 1.403 . S
C979 C976 1.403 . S
C979 C980 1.524 . S
C979 C983 1.400 . S
C980 H965 0.960 . S
C980 H966 0.960 . S
C980 H967 0.960 . S
C980 C979 1.524 . S
C981 C978 1.403 . S
C981 C982 1.392 . S
C981 C985 1.495 . S
C982 C981 1.392 . S
C982 C983 1.385 1_565 S
C982 C984 1.478 . S
C983 H977 0.930 . S
C983 C979 1.400 . S
C983 C982 1.385 1_545 S
C984 C982 1.478 . S
C984 C986 1.381 . S
C984 C990 1.383 1_565 S
C985 C981 1.495 . S
C985 H991 0.959 . S
C985 H992 0.961 . S
C985 H993 0.960 . S
C986 C984 1.381 . S
C986 C987 1.394 . S
C986 H994 0.930 . S
C987 C986 1.394 . S
C987 C988 1.383 . S
C987 H995 0.929 . S
C988 C987 1.383 . S
C988 C989 1.377 1_565 S
C989 H973 0.930 . S
C989 C988 1.377 1_545 S
C989 C990 1.379 . S
C990 H974 0.931 . S
C990 C984 1.383 1_545 S
C990 C989 1.379 . S
H991 C985 0.959 . S
H992 C985 0.961 . S
H993 C985 0.960 . S
H994 C986 0.930 . S
H995 C987 0.929 . S
H996 C1004 0.929 1_554 S
H997 C1006 0.930 . S
H998 C1008 0.930 . S
H999 C1011 0.929 . S
H1000 C1014 0.930 . S
H1001 C1016 0.960 . S
H1002 C1016 0.960 . S
H1003 C1016 0.960 . S
C1004 H996 0.929 1_556 S
C1004 C1005 1.377 . S
C1004 C1006 1.384 1_556 S
C1005 C1004 1.377 . S
C1005 C1011 1.390 . S
C1006 H997 0.930 . S
C1006 C1004 1.384 1_554 S
C1006 C1007 1.372 1_554 S
C1007 C1006 1.372 1_556 S
C1007 C1008 1.400 . S
C1007 C1012 1.496 . S
C1008 H998 0.930 . S
C1008 C1007 1.400 . S
C1008 C1011 1.386 . S
H1009 C1025 0.930 . S
H1010 C1026 0.931 . S
C1011 H999 0.929 . S
C1011 C1005 1.390 . S
C1011 C1008 1.386 . S
C1012 C1007 1.496 . S
C1012 C1014 1.362 1_556 S
C1012 C1015 1.429 . S
H1013 C1019 0.930 . S
C1014 H1000 0.930 . S
C1014 C1012 1.362 1_554 S
C1014 C1017 1.403 . S
C1015 C1012 1.429 . S
C1015 C1016 1.524 . S
C1015 C1019 1.400 . S
C1016 H1001 0.960 . S
C1016 H1002 0.960 . S
C1016 H1003 0.960 . S
C1016 C1015 1.524 . S
C1017 C1014 1.403 . S
C1017 C1018 1.392 . S
C1017 C1021 1.495 . S
C1018 C1017 1.392 . S
C1018 C1019 1.385 1_554 S
C1018 C1020 1.478 . S
C1019 H1013 0.930 . S
C1019 C1015 1.400 . S
C1019 C1018 1.385 1_556 S
C1020 C1018 1.478 . S
C1020 C1022 1.381 . S
C1020 C1026 1.383 . S
C1021 C1017 1.495 . S
C1021 H1027 0.959 . S
C1021 H1028 0.961 . S
C1021 H1029 0.960 . S
C1022 C1020 1.381 . S
C1022 C1023 1.394 . S
C1022 H1030 0.930 . S
C1023 C1022 1.394 . S
C1023 C1024 1.383 . S
C1023 H1031 0.929 . S
C1024 C1023 1.383 . S
C1024 C1025 1.377 . S
C1025 H1009 0.930 . S
C1025 C1024 1.377 . S
C1025 C1026 1.379 . S
C1026 H1010 0.931 . S
C1026 C1020 1.383 . S
C1026 C1025 1.379 . S
H1027 C1021 0.959 . S
H1028 C1021 0.961 . S
H1029 C1021 0.960 . S
H1030 C1022 0.930 . S
H1031 C1023 0.929 . S
H1032 C1040 0.929 . S
H1033 C1042 0.930 . S
H1034 C1044 0.930 . S
H1035 C1047 0.929 . S
H1036 C1050 0.930 . S
H1037 C1052 0.960 . S
H1038 C1052 0.960 . S
H1039 C1052 0.960 . S
C1040 H1032 0.929 . S
C1040 C1041 1.377 1_554 S
C1040 C1042 1.384 . S
C1041 C1040 1.377 1_556 S
C1041 C1047 1.390 . S
C1042 H1033 0.930 . S
C1042 C1040 1.384 . S
C1042 C1043 1.372 1_554 S
C1043 C1042 1.372 1_556 S
C1043 C1044 1.400 . S
C1043 C1048 1.490 . S
C1044 H1034 0.930 . S
C1044 C1043 1.400 . S
C1044 C1047 1.386 . S
H1045 C1061 0.930 . S
H1046 C1062 0.931 . S
C1047 H1035 0.929 . S
C1047 C1041 1.390 . S
C1047 C1044 1.386 . S
C1048 C1043 1.490 . S
C1048 C1050 1.395 1_556 S
C1048 C1051 1.403 . S
H1049 C1055 0.930 . S
C1050 H1036 0.930 . S
C1050 C1048 1.395 1_554 S
C1050 C1053 1.403 . S
C1051 C1048 1.403 . S
C1051 C1052 1.524 . S
C1051 C1055 1.400 . S
C1052 H1037 0.960 . S
C1052 H1038 0.960 . S
C1052 H1039 0.960 . S
C1052 C1051 1.524 . S
C1053 C1050 1.403 . S
C1053 C1054 1.392 . S
C1053 C1057 1.495 . S
C1054 C1053 1.392 . S
C1054 C1055 1.385 1_554 S
C1054 C1056 1.478 . S
C1055 H1049 0.930 . S
C1055 C1051 1.400 . S
C1055 C1054 1.385 1_556 S
C1056 C1054 1.478 . S
C1056 C1058 1.381 . S
C1056 C1062 1.383 1_554 S
C1057 C1053 1.495 . S
C1057 H1063 0.959 . S
C1057 H1064 0.961 . S
C1057 H1065 0.960 . S
C1058 C1056 1.381 . S
C1058 C1059 1.394 . S
C1058 H1066 0.930 . S
C1059 C1058 1.394 . S
C1059 C1060 1.383 . S
C1059 H1067 0.929 . S
C1060 C1059 1.383 . S
C1060 C1061 1.377 1_554 S
C1061 H1045 0.930 . S
C1061 C1060 1.377 1_556 S
C1061 C1062 1.379 . S
C1062 H1046 0.931 . S
C1062 C1056 1.383 1_556 S
C1062 C1061 1.379 . S
H1063 C1057 0.959 . S
H1064 C1057 0.961 . S
H1065 C1057 0.960 . S
H1066 C1058 0.930 . S
H1067 C1059 0.929 . S
H1068 C1076 0.929 . S
H1069 C1078 0.930 . S
H1070 C1080 0.930 . S
H1071 C1083 0.929 . S
H1072 C1086 0.930 . S
H1073 C1088 0.960 . S
H1074 C1088 0.960 . S
H1075 C1088 0.960 . S
C1076 H1068 0.929 . S
C1076 C1077 1.377 1_556 S
C1076 C1078 1.384 . S
C1077 C1076 1.377 1_554 S
C1077 C1083 1.390 . S
C1078 H1069 0.930 . S
C1078 C1076 1.384 . S
C1078 C1079 1.372 1_556 S
C1079 C1078 1.372 1_554 S
C1079 C1080 1.400 . S
C1079 C1084 1.499 . S
C1080 H1070 0.930 . S
C1080 C1079 1.400 . S
C1080 C1083 1.386 . S
H1081 C1097 0.930 . S
H1082 C1098 0.931 . S
C1083 H1071 0.929 . S
C1083 C1077 1.390 . S
C1083 C1080 1.386 . S
C1084 C1079 1.499 . S
C1084 C1086 1.357 1_554 S
C1084 C1087 1.432 . S
H1085 C1091 0.930 . S
C1086 H1072 0.930 . S
C1086 C1084 1.357 1_556 S
C1086 C1089 1.403 . S
C1087 C1084 1.432 . S
C1087 C1088 1.524 . S
C1087 C1091 1.400 . S
C1088 H1073 0.960 . S
C1088 H1074 0.960 . S
C1088 H1075 0.960 . S
C1088 C1087 1.524 . S
C1089 C1086 1.403 . S
C1089 C1090 1.392 . S
C1089 C1093 1.495 . S
C1090 C1089 1.392 . S
C1090 C1091 1.385 1_556 S
C1090 C1092 1.478 . S
C1091 H1085 0.930 . S
C1091 C1087 1.400 . S
C1091 C1090 1.385 1_554 S
C1092 C1090 1.478 . S
C1092 C1094 1.381 . S
C1092 C1098 1.383 1_556 S
C1093 C1089 1.495 . S
C1093 H1099 0.959 . S
C1093 H1100 0.961 . S
C1093 H1101 0.960 . S
C1094 C1092 1.381 . S
C1094 C1095 1.394 . S
C1094 H1102 0.930 . S
C1095 C1094 1.394 . S
C1095 C1096 1.383 . S
C1095 H1103 0.929 . S
C1096 C1095 1.383 . S
C1096 C1097 1.377 1_556 S
C1097 H1081 0.930 . S
C1097 C1096 1.377 1_554 S
C1097 C1098 1.379 . S
C1098 H1082 0.931 . S
C1098 C1092 1.383 1_554 S
C1098 C1097 1.379 . S
H1099 C1093 0.959 . S
H1100 C1093 0.961 . S
H1101 C1093 0.960 . S
H1102 C1094 0.930 . S
H1103 C1095 0.929 . S
H1104 C1112 0.929 1_556 S
H1105 C1114 0.938 . S
H1106 C1116 0.930 . S
H1107 C1119 0.929 . S
H1108 C1122 0.930 . S
H1109 C1124 0.960 . S
H1110 C1124 0.960 . S
H1111 C1124 0.960 . S
C1112 H1104 0.929 1_554 S
C1112 C1113 1.377 . S
C1112 C1114 1.382 1_554 S
C1113 C1112 1.377 . S
C1113 C1119 1.390 . S
C1114 H1105 0.938 . S
C1114 C1112 1.382 1_556 S
C1114 C1115 1.367 1_556 S
C1115 C1114 1.367 1_554 S
C1115 C1116 1.400 . S
C1115 C1120 1.490 . S
C1116 H1106 0.930 . S
C1116 C1115 1.400 . S
C1116 C1119 1.386 . S
H1117 C1133 0.922 1_554 S
H1118 C1134 0.931 1_554 S
C1119 H1107 0.929 . S
C1119 C1113 1.390 . S
C1119 C1116 1.386 . S
C1120 C1115 1.490 . S
C1120 C1122 1.395 1_554 S
C1120 C1123 1.403 . S
H1121 C1127 0.930 . S
C1122 H1108 0.930 . S
C1122 C1120 1.395 1_556 S
C1122 C1125 1.403 . S
C1123 C1120 1.403 . S
C1123 C1124 1.524 . S
C1123 C1127 1.400 . S
C1124 H1109 0.960 . S
C1124 H1110 0.960 . S
C1124 H1111 0.960 . S
C1124 C1123 1.524 . S
C1125 C1122 1.403 . S
C1125 C1126 1.392 . S
C1125 C1129 1.495 . S
C1126 C1125 1.392 . S
C1126 C1127 1.385 1_556 S
C1126 C1128 1.478 . S
C1127 H1121 0.930 . S
C1127 C1123 1.400 . S
C1127 C1126 1.385 1_554 S
C1128 C1126 1.478 . S
C1128 C1130 1.381 . S
C1128 C1134 1.383 . S
C1129 C1125 1.495 . S
C1129 H1135 0.959 . S
C1129 H1136 0.961 . S
C1129 H1137 0.960 . S
C1130 C1128 1.381 . S
C1130 C1131 1.394 . S
C1130 H1138 0.930 . S
C1131 C1130 1.394 . S
C1131 C1132 1.383 . S
C1131 H1139 0.929 . S
C1132 C1131 1.383 . S
C1132 C1133 1.377 . S
C1133 H1117 0.922 1_556 S
C1133 C1132 1.377 . S
C1133 C1134 1.379 . S
C1134 H1118 0.931 1_556 S
C1134 C1128 1.383 . S
C1134 C1133 1.379 . S
H1135 C1129 0.959 . S
H1136 C1129 0.961 . S
H1137 C1129 0.960 . S
H1138 C1130 0.930 . S
H1139 C1131 0.929 . S
H1140 C1148 0.929 . S
H1141 C1150 0.930 . S
H1142 C1152 0.930 . S
H1143 C1155 0.929 . S
H1144 C1158 0.930 . S
H1145 C1160 0.960 . S
H1146 C1160 0.960 . S
H1147 C1160 0.960 . S
C1148 H1140 0.929 . S
C1148 C1149 1.377 . S
C1148 C1150 1.384 . S
C1149 C1148 1.377 . S
C1149 C1155 1.390 . S
C1150 H1141 0.930 . S
C1150 C1148 1.384 . S
C1150 C1151 1.372 . S
C1151 C1150 1.372 . S
C1151 C1152 1.400 . S
C1151 C1156 1.490 . S
C1152 H1142 0.930 . S
C1152 C1151 1.400 . S
C1152 C1155 1.386 . S
H1153 C1169 0.930 . S
H1154 C1170 0.931 . S
C1155 H1143 0.929 . S
C1155 C1149 1.390 . S
C1155 C1152 1.386 . S
C1156 C1151 1.490 . S
C1156 C1158 1.395 . S
C1156 C1159 1.403 . S
H1157 C1163 0.930 . S
C1158 H1144 0.930 . S
C1158 C1156 1.395 . S
C1158 C1161 1.403 . S
C1159 C1156 1.403 . S
C1159 C1160 1.524 . S
C1159 C1163 1.400 . S
C1160 H1145 0.960 . S
C1160 H1146 0.960 . S
C1160 H1147 0.960 . S
C1160 C1159 1.524 . S
C1161 C1158 1.403 . S
C1161 C1162 1.392 . S
C1161 C1165 1.495 . S
C1162 C1161 1.392 . S
C1162 C1163 1.385 . S
C1162 C1164 1.478 . S
C1163 H1157 0.930 . S
C1163 C1159 1.400 . S
C1163 C1162 1.385 . S
C1164 C1162 1.478 . S
C1164 C1166 1.381 . S
C1164 C1170 1.383 . S
C1165 C1161 1.495 . S
C1165 H1171 0.959 . S
C1165 H1172 0.961 . S
C1165 H1173 0.960 . S
C1166 C1164 1.381 . S
C1166 C1167 1.394 . S
C1166 H1174 0.930 . S
C1167 C1166 1.394 . S
C1167 C1168 1.383 . S
C1167 H1175 0.929 . S
C1168 C1167 1.383 . S
C1168 C1169 1.377 . S
C1169 H1153 0.930 . S
C1169 C1168 1.377 . S
C1169 C1170 1.379 . S
C1170 H1154 0.931 . S
C1170 C1164 1.383 . S
C1170 C1169 1.379 . S
H1171 C1165 0.959 . S
H1172 C1165 0.961 . S
H1173 C1165 0.960 . S
H1174 C1166 0.930 . S
H1175 C1167 0.929 . S
H1176 C1184 0.929 . S
H1177 C1186 0.930 . S
H1178 C1188 0.930 . S
H1179 C1191 0.929 . S
H1180 C1194 0.930 . S
H1181 C1196 0.960 . S
H1182 C1196 0.960 . S
H1183 C1196 0.960 . S
C1184 H1176 0.929 . S
C1184 C1185 1.377 . S
C1184 C1186 1.384 . S
C1185 C1184 1.377 . S
C1185 C1191 1.390 . S
C1186 H1177 0.930 . S
C1186 C1184 1.384 . S
C1186 C1187 1.372 . S
C1187 C1186 1.372 . S
C1187 C1188 1.400 . S
C1187 C1192 1.490 . S
C1188 H1178 0.930 . S
C1188 C1187 1.400 . S
C1188 C1191 1.386 . S
H1189 C1205 0.930 . S
H1190 C1206 0.931 . S
C1191 H1179 0.929 . S
C1191 C1185 1.390 . S
C1191 C1188 1.386 . S
C1192 C1187 1.490 . S
C1192 C1194 1.395 . S
C1192 C1195 1.403 . S
H1193 C1199 0.930 . S
C1194 H1180 0.930 . S
C1194 C1192 1.395 . S
C1194 C1197 1.403 . S
C1195 C1192 1.403 . S
C1195 C1196 1.524 . S
C1195 C1199 1.400 . S
C1196 H1181 0.960 . S
C1196 H1182 0.960 . S
C1196 H1183 0.960 . S
C1196 C1195 1.524 . S
C1197 C1194 1.403 . S
C1197 C1198 1.392 . S
C1197 C1201 1.495 . S
C1198 C1197 1.392 . S
C1198 C1199 1.385 . S
C1198 C1200 1.478 . S
C1199 H1193 0.930 . S
C1199 C1195 1.400 . S
C1199 C1198 1.385 . S
C1200 C1198 1.478 . S
C1200 C1202 1.381 . S
C1200 C1206 1.383 . S
C1201 C1197 1.495 . S
C1201 H1207 0.959 . S
C1201 H1208 0.961 . S
C1201 H1209 0.960 . S
C1202 C1200 1.381 . S
C1202 C1203 1.394 . S
C1202 H1210 0.930 . S
C1203 C1202 1.394 . S
C1203 C1204 1.383 . S
C1203 H1211 0.929 . S
C1204 C1203 1.383 . S
C1204 C1205 1.377 . S
C1205 H1189 0.930 . S
C1205 C1204 1.377 . S
C1205 C1206 1.379 . S
C1206 H1190 0.931 . S
C1206 C1200 1.383 . S
C1206 C1205 1.379 . S
H1207 C1201 0.959 . S
H1208 C1201 0.961 . S
H1209 C1201 0.960 . S
H1210 C1202 0.930 . S
H1211 C1203 0.929 . S
H1212 C1220 0.929 . S
H1213 C1222 0.930 . S
H1214 C1224 0.930 . S
H1215 C1227 0.929 . S
H1216 C1230 0.930 . S
H1217 C1232 0.960 . S
H1218 C1232 0.960 . S
H1219 C1232 0.960 . S
C1220 H1212 0.929 . S
C1220 C1221 1.377 . S
C1220 C1222 1.384 . S
C1221 C1220 1.377 . S
C1221 C1227 1.390 . S
C1222 H1213 0.930 . S
C1222 C1220 1.384 . S
C1222 C1223 1.372 . S
C1223 C1222 1.372 . S
C1223 C1224 1.400 . S
C1223 C1228 1.490 . S
C1224 H1214 0.930 . S
C1224 C1223 1.400 . S
C1224 C1227 1.386 . S
H1225 C1241 0.930 . S
H1226 C1242 0.931 . S
C1227 H1215 0.929 . S
C1227 C1221 1.390 . S
C1227 C1224 1.386 . S
C1228 C1223 1.490 . S
C1228 C1230 1.395 . S
C1228 C1231 1.403 . S
H1229 C1235 0.930 . S
C1230 H1216 0.930 . S
C1230 C1228 1.395 . S
C1230 C1233 1.403 . S
C1231 C1228 1.403 . S
C1231 C1232 1.524 . S
C1231 C1235 1.400 . S
C1232 H1217 0.960 . S
C1232 H1218 0.960 . S
C1232 H1219 0.960 . S
C1232 C1231 1.524 . S
C1233 C1230 1.403 . S
C1233 C1234 1.392 . S
C1233 C1237 1.495 . S
C1234 C1233 1.392 . S
C1234 C1235 1.385 . S
C1234 C1236 1.478 . S
C1235 H1229 0.930 . S
C1235 C1231 1.400 . S
C1235 C1234 1.385 . S
C1236 C1234 1.478 . S
C1236 C1238 1.381 . S
C1236 C1242 1.383 . S
C1237 C1233 1.495 . S
C1237 H1243 0.959 . S
C1237 H1244 0.961 . S
C1237 H1245 0.960 . S
C1238 C1236 1.381 . S
C1238 C1239 1.394 . S
C1238 H1246 0.930 . S
C1239 C1238 1.394 . S
C1239 C1240 1.383 . S
C1239 H1247 0.929 . S
C1240 C1239 1.383 . S
C1240 C1241 1.377 . S
C1241 H1225 0.930 . S
C1241 C1240 1.377 . S
C1241 C1242 1.379 . S
C1242 H1226 0.931 . S
C1242 C1236 1.383 . S
C1242 C1241 1.379 . S
H1243 C1237 0.959 . S
H1244 C1237 0.961 . S
H1245 C1237 0.960 . S
H1246 C1238 0.930 . S
H1247 C1239 0.929 . S
H1248 C1256 0.929 . S
H1249 C1258 0.930 . S
H1250 C1260 0.930 . S
H1251 C1263 0.929 . S
H1252 C1266 0.930 . S
H1253 C1268 0.960 . S
H1254 C1268 0.960 . S
H1255 C1268 0.960 . S
C1256 H1248 0.929 . S
C1256 C1257 1.377 . S
C1256 C1258 1.384 . S
C1257 C1256 1.377 . S
C1257 C1263 1.390 . S
C1258 H1249 0.930 . S
C1258 C1256 1.384 . S
C1258 C1259 1.372 . S
C1259 C1258 1.372 . S
C1259 C1260 1.400 . S
C1259 C1264 1.490 . S
C1260 H1250 0.930 . S
C1260 C1259 1.400 . S
C1260 C1263 1.386 . S
H1261 C1277 0.930 . S
H1262 C1278 0.931 . S
C1263 H1251 0.929 . S
C1263 C1257 1.390 . S
C1263 C1260 1.386 . S
C1264 C1259 1.490 . S
C1264 C1266 1.395 . S
C1264 C1267 1.403 . S
H1265 C1271 0.930 . S
C1266 H1252 0.930 . S
C1266 C1264 1.395 . S
C1266 C1269 1.403 . S
C1267 C1264 1.403 . S
C1267 C1268 1.524 . S
C1267 C1271 1.400 . S
C1268 H1253 0.960 . S
C1268 H1254 0.960 . S
C1268 H1255 0.960 . S
C1268 C1267 1.524 . S
C1269 C1266 1.403 . S
C1269 C1270 1.392 . S
C1269 C1273 1.495 . S
C1270 C1269 1.392 . S
C1270 C1271 1.385 . S
C1270 C1272 1.478 . S
C1271 H1265 0.930 . S
C1271 C1267 1.400 . S
C1271 C1270 1.385 . S
C1272 C1270 1.478 . S
C1272 C1274 1.381 . S
C1272 C1278 1.383 . S
C1273 C1269 1.495 . S
C1273 H1279 0.959 . S
C1273 H1280 0.961 . S
C1273 H1281 0.960 . S
C1274 C1272 1.381 . S
C1274 C1275 1.394 . S
C1274 H1282 0.930 . S
C1275 C1274 1.394 . S
C1275 C1276 1.383 . S
C1275 H1283 0.929 . S
C1276 C1275 1.383 . S
C1276 C1277 1.377 . S
C1277 H1261 0.930 . S
C1277 C1276 1.377 . S
C1277 C1278 1.379 . S
C1278 H1262 0.931 . S
C1278 C1272 1.383 . S
C1278 C1277 1.379 . S
H1279 C1273 0.959 . S
H1280 C1273 0.961 . S
H1281 C1273 0.960 . S
H1282 C1274 0.930 . S
H1283 C1275 0.929 . S
H1284 C1292 0.929 . S
H1285 C1294 0.930 . S
H1286 C1296 0.930 . S
H1287 C1299 0.929 . S
H1288 C1302 0.930 . S
H1289 C1304 0.960 . S
H1290 C1304 0.960 . S
H1291 C1304 0.960 . S
C1292 H1284 0.929 . S
C1292 C1293 1.377 . S
C1292 C1294 1.384 . S
C1293 C1292 1.377 . S
C1293 C1299 1.390 . S
C1294 H1285 0.930 . S
C1294 C1292 1.384 . S
C1294 C1295 1.372 . S
C1295 C1294 1.372 . S
C1295 C1296 1.400 . S
C1295 C1300 1.490 . S
C1296 H1286 0.930 . S
C1296 C1295 1.400 . S
C1296 C1299 1.386 . S
H1297 C1313 0.930 . S
H1298 C1314 0.931 . S
C1299 H1287 0.929 . S
C1299 C1293 1.390 . S
C1299 C1296 1.386 . S
C1300 C1295 1.490 . S
C1300 C1302 1.395 . S
C1300 C1303 1.403 . S
H1301 C1307 0.930 . S
C1302 H1288 0.930 . S
C1302 C1300 1.395 . S
C1302 C1305 1.403 . S
C1303 C1300 1.403 . S
C1303 C1304 1.524 . S
C1303 C1307 1.400 . S
C1304 H1289 0.960 . S
C1304 H1290 0.960 . S
C1304 H1291 0.960 . S
C1304 C1303 1.524 . S
C1305 C1302 1.403 . S
C1305 C1306 1.392 . S
C1305 C1309 1.495 . S
C1306 C1305 1.392 . S
C1306 C1307 1.385 . S
C1306 C1308 1.478 . S
C1307 H1301 0.930 . S
C1307 C1303 1.400 . S
C1307 C1306 1.385 . S
C1308 C1306 1.478 . S
C1308 C1310 1.381 . S
C1308 C1314 1.383 . S
C1309 C1305 1.495 . S
C1309 H1315 0.959 . S
C1309 H1316 0.961 . S
C1309 H1317 0.960 . S
C1310 C1308 1.381 . S
C1310 C1311 1.394 . S
C1310 H1318 0.930 . S
C1311 C1310 1.394 . S
C1311 C1312 1.383 . S
C1311 H1319 0.929 . S
C1312 C1311 1.383 . S
C1312 C1313 1.377 . S
C1313 H1297 0.930 . S
C1313 C1312 1.377 . S
C1313 C1314 1.379 . S
C1314 H1298 0.931 . S
C1314 C1308 1.383 . S
C1314 C1313 1.379 . S
H1315 C1309 0.959 . S
H1316 C1309 0.961 . S
H1317 C1309 0.960 . S
H1318 C1310 0.930 . S
H1319 C1311 0.929 . S
H1320 C1328 0.929 . S
H1321 C1330 0.930 . S
H1322 C1332 0.930 . S
H1323 C1335 0.929 . S
H1324 C1338 0.930 . S
H1325 C1340 0.960 . S
H1326 C1340 0.960 . S
H1327 C1340 0.960 . S
C1328 H1320 0.929 . S
C1328 C1329 1.377 . S
C1328 C1330 1.384 . S
C1329 C1328 1.377 . S
C1329 C1335 1.390 . S
C1330 H1321 0.930 . S
C1330 C1328 1.384 . S
C1330 C1331 1.372 . S
C1331 C1330 1.372 . S
C1331 C1332 1.400 . S
C1331 C1336 1.490 . S
C1332 H1322 0.930 . S
C1332 C1331 1.400 . S
C1332 C1335 1.386 . S
H1333 C1349 0.930 . S
H1334 C1350 0.931 . S
C1335 H1323 0.929 . S
C1335 C1329 1.390 . S
C1335 C1332 1.386 . S
C1336 C1331 1.490 . S
C1336 C1338 1.395 . S
C1336 C1339 1.403 . S
H1337 C1343 0.930 . S
C1338 H1324 0.930 . S
C1338 C1336 1.395 . S
C1338 C1341 1.403 . S
C1339 C1336 1.403 . S
C1339 C1340 1.524 . S
C1339 C1343 1.400 . S
C1340 H1325 0.960 . S
C1340 H1326 0.960 . S
C1340 H1327 0.960 . S
C1340 C1339 1.524 . S
C1341 C1338 1.403 . S
C1341 C1342 1.392 . S
C1341 C1345 1.495 . S
C1342 C1341 1.392 . S
C1342 C1343 1.385 . S
C1342 C1344 1.478 . S
C1343 H1337 0.930 . S
C1343 C1339 1.400 . S
C1343 C1342 1.385 . S
C1344 C1342 1.478 . S
C1344 C1346 1.381 . S
C1344 C1350 1.383 . S
C1345 C1341 1.495 . S
C1345 H1351 0.959 . S
C1345 H1352 0.961 . S
C1345 H1353 0.960 . S
C1346 C1344 1.381 . S
C1346 C1347 1.394 . S
C1346 H1354 0.930 . S
C1347 C1346 1.394 . S
C1347 C1348 1.383 . S
C1347 H1355 0.929 . S
C1348 C1347 1.383 . S
C1348 C1349 1.377 . S
C1349 H1333 0.930 . S
C1349 C1348 1.377 . S
C1349 C1350 1.379 . S
C1350 H1334 0.931 . S
C1350 C1344 1.383 . S
C1350 C1349 1.379 . S
H1351 C1345 0.959 . S
H1352 C1345 0.961 . S
H1353 C1345 0.960 . S
H1354 C1346 0.930 . S
H1355 C1347 0.929 . S
H1356 C1364 0.929 . S
H1357 C1366 0.930 . S
H1358 C1368 0.930 . S
H1359 C1371 0.929 . S
H1360 C1374 0.930 . S
H1361 C1376 0.960 . S
H1362 C1376 0.960 . S
H1363 C1376 0.960 . S
C1364 H1356 0.929 . S
C1364 C1365 1.377 . S
C1364 C1366 1.384 . S
C1365 C1364 1.377 . S
C1365 C1371 1.390 . S
C1366 H1357 0.930 . S
C1366 C1364 1.384 . S
C1366 C1367 1.372 . S
C1367 C1366 1.372 . S
C1367 C1368 1.400 . S
C1367 C1372 1.490 . S
C1368 H1358 0.930 . S
C1368 C1367 1.400 . S
C1368 C1371 1.386 . S
H1369 C1385 0.930 . S
H1370 C1386 0.931 . S
C1371 H1359 0.929 . S
C1371 C1365 1.390 . S
C1371 C1368 1.386 . S
C1372 C1367 1.490 . S
C1372 C1374 1.395 . S
C1372 C1375 1.403 . S
H1373 C1379 0.930 . S
C1374 H1360 0.930 . S
C1374 C1372 1.395 . S
C1374 C1377 1.403 . S
C1375 C1372 1.403 . S
C1375 C1376 1.524 . S
C1375 C1379 1.400 . S
C1376 H1361 0.960 . S
C1376 H1362 0.960 . S
C1376 H1363 0.960 . S
C1376 C1375 1.524 . S
C1377 C1374 1.403 . S
C1377 C1378 1.392 . S
C1377 C1381 1.495 . S
C1378 C1377 1.392 . S
C1378 C1379 1.385 . S
C1378 C1380 1.478 . S
C1379 H1373 0.930 . S
C1379 C1375 1.400 . S
C1379 C1378 1.385 . S
C1380 C1378 1.478 . S
C1380 C1382 1.381 . S
C1380 C1386 1.383 . S
C1381 C1377 1.495 . S
C1381 H1387 0.959 . S
C1381 H1388 0.961 . S
C1381 H1389 0.960 . S
C1382 C1380 1.381 . S
C1382 C1383 1.394 . S
C1382 H1390 0.930 . S
C1383 C1382 1.394 . S
C1383 C1384 1.383 . S
C1383 H1391 0.929 . S
C1384 C1383 1.383 . S
C1384 C1385 1.377 . S
C1385 H1369 0.930 . S
C1385 C1384 1.377 . S
C1385 C1386 1.379 . S
C1386 H1370 0.931 . S
C1386 C1380 1.383 . S
C1386 C1385 1.379 . S
H1387 C1381 0.959 . S
H1388 C1381 0.961 . S
H1389 C1381 0.960 . S
H1390 C1382 0.930 . S
H1391 C1383 0.929 . S
H1392 C1400 0.929 . S
H1393 C1402 0.930 . S
H1394 C1404 0.930 . S
H1395 C1407 0.929 . S
H1396 C1410 0.930 . S
H1397 C1412 0.960 . S
H1398 C1412 0.960 . S
H1399 C1412 0.960 . S
C1400 H1392 0.929 . S
C1400 C1401 1.377 . S
C1400 C1402 1.384 . S
C1401 C1400 1.377 . S
C1401 C1407 1.390 . S
C1402 H1393 0.930 . S
C1402 C1400 1.384 . S
C1402 C1403 1.372 . S
C1403 C1402 1.372 . S
C1403 C1404 1.400 . S
C1403 C1408 1.490 . S
C1404 H1394 0.930 . S
C1404 C1403 1.400 . S
C1404 C1407 1.386 . S
H1405 C1421 0.930 . S
H1406 C1422 0.931 . S
C1407 H1395 0.929 . S
C1407 C1401 1.390 . S
C1407 C1404 1.386 . S
C1408 C1403 1.490 . S
C1408 C1410 1.395 . S
C1408 C1411 1.403 . S
H1409 C1415 0.930 . S
C1410 H1396 0.930 . S
C1410 C1408 1.395 . S
C1410 C1413 1.403 . S
C1411 C1408 1.403 . S
C1411 C1412 1.524 . S
C1411 C1415 1.400 . S
C1412 H1397 0.960 . S
C1412 H1398 0.960 . S
C1412 H1399 0.960 . S
C1412 C1411 1.524 . S
C1413 C1410 1.403 . S
C1413 C1414 1.392 . S
C1413 C1417 1.495 . S
C1414 C1413 1.392 . S
C1414 C1415 1.385 . S
C1414 C1416 1.478 . S
C1415 H1409 0.930 . S
C1415 C1411 1.400 . S
C1415 C1414 1.385 . S
C1416 C1414 1.478 . S
C1416 C1418 1.381 . S
C1416 C1422 1.383 . S
C1417 C1413 1.495 . S
C1417 H1423 0.959 . S
C1417 H1424 0.961 . S
C1417 H1425 0.960 . S
C1418 C1416 1.381 . S
C1418 C1419 1.394 . S
C1418 H1426 0.930 . S
C1419 C1418 1.394 . S
C1419 C1420 1.383 . S
C1419 H1427 0.929 . S
C1420 C1419 1.383 . S
C1420 C1421 1.377 . S
C1421 H1405 0.930 . S
C1421 C1420 1.377 . S
C1421 C1422 1.379 . S
C1422 H1406 0.931 . S
C1422 C1416 1.383 . S
C1422 C1421 1.379 . S
H1423 C1417 0.959 . S
H1424 C1417 0.961 . S
H1425 C1417 0.960 . S
H1426 C1418 0.930 . S
H1427 C1419 0.929 . S
H1428 C1436 0.929 . S
H1429 C1438 0.930 . S
H1430 C1440 0.930 . S
H1431 C1443 0.929 . S
H1432 C1446 0.930 . S
H1433 C1448 0.960 . S
H1434 C1448 0.960 . S
H1435 C1448 0.960 . S
C1436 H1428 0.929 . S
C1436 C1437 1.377 . S
C1436 C1438 1.384 . S
C1437 C1436 1.377 . S
C1437 C1443 1.390 . S
C1438 H1429 0.930 . S
C1438 C1436 1.384 . S
C1438 C1439 1.372 . S
C1439 C1438 1.372 . S
C1439 C1440 1.400 . S
C1439 C1444 1.490 . S
C1440 H1430 0.930 . S
C1440 C1439 1.400 . S
C1440 C1443 1.386 . S
H1441 C1457 0.930 . S
H1442 C1458 0.931 . S
C1443 H1431 0.929 . S
C1443 C1437 1.390 . S
C1443 C1440 1.386 . S
C1444 C1439 1.490 . S
C1444 C1446 1.395 . S
C1444 C1447 1.403 . S
H1445 C1451 0.930 . S
C1446 H1432 0.930 . S
C1446 C1444 1.395 . S
C1446 C1449 1.403 . S
C1447 C1444 1.403 . S
C1447 C1448 1.524 . S
C1447 C1451 1.400 . S
C1448 H1433 0.960 . S
C1448 H1434 0.960 . S
C1448 H1435 0.960 . S
C1448 C1447 1.524 . S
C1449 C1446 1.403 . S
C1449 C1450 1.392 . S
C1449 C1453 1.495 . S
C1450 C1449 1.392 . S
C1450 C1451 1.385 . S
C1450 C1452 1.478 . S
C1451 H1445 0.930 . S
C1451 C1447 1.400 . S
C1451 C1450 1.385 . S
C1452 C1450 1.478 . S
C1452 C1454 1.381 . S
C1452 C1458 1.383 . S
C1453 C1449 1.495 . S
C1453 H1459 0.959 . S
C1453 H1460 0.961 . S
C1453 H1461 0.960 . S
C1454 C1452 1.381 . S
C1454 C1455 1.394 . S
C1454 H1462 0.930 . S
C1455 C1454 1.394 . S
C1455 C1456 1.383 . S
C1455 H1463 0.929 . S
C1456 C1455 1.383 . S
C1456 C1457 1.377 . S
C1457 H1441 0.930 . S
C1457 C1456 1.377 . S
C1457 C1458 1.379 . S
C1458 H1442 0.931 . S
C1458 C1452 1.383 . S
C1458 C1457 1.379 . S
H1459 C1453 0.959 . S
H1460 C1453 0.961 . S
H1461 C1453 0.960 . S
H1462 C1454 0.930 . S
H1463 C1455 0.929 . S
H1464 C1472 0.929 . S
H1465 C1474 0.930 . S
H1466 C1476 0.930 . S
H1467 C1479 0.929 . S
H1468 C1482 0.930 . S
H1469 C1484 0.960 . S
H1470 C1484 0.960 . S
H1471 C1484 0.960 . S
C1472 H1464 0.929 . S
C1472 C1473 1.377 . S
C1472 C1474 1.384 . S
C1473 C1472 1.377 . S
C1473 C1479 1.390 . S
C1474 H1465 0.930 . S
C1474 C1472 1.384 . S
C1474 C1475 1.372 . S
C1475 C1474 1.372 . S
C1475 C1476 1.400 . S
C1475 C1480 1.490 . S
C1476 H1466 0.930 . S
C1476 C1475 1.400 . S
C1476 C1479 1.386 . S
H1477 C1493 0.930 . S
H1478 C1494 0.931 . S
C1479 H1467 0.929 . S
C1479 C1473 1.390 . S
C1479 C1476 1.386 . S
C1480 C1475 1.490 . S
C1480 C1482 1.395 . S
C1480 C1483 1.403 . S
H1481 C1487 0.930 . S
C1482 H1468 0.930 . S
C1482 C1480 1.395 . S
C1482 C1485 1.403 . S
C1483 C1480 1.403 . S
C1483 C1484 1.524 . S
C1483 C1487 1.400 . S
C1484 H1469 0.960 . S
C1484 H1470 0.960 . S
C1484 H1471 0.960 . S
C1484 C1483 1.524 . S
C1485 C1482 1.403 . S
C1485 C1486 1.392 . S
C1485 C1489 1.495 . S
C1486 C1485 1.392 . S
C1486 C1487 1.385 . S
C1486 C1488 1.478 . S
C1487 H1481 0.930 . S
C1487 C1483 1.400 . S
C1487 C1486 1.385 . S
C1488 C1486 1.478 . S
C1488 C1490 1.381 . S
C1488 C1494 1.383 . S
C1489 C1485 1.495 . S
C1489 H1495 0.959 . S
C1489 H1496 0.961 . S
C1489 H1497 0.960 . S
C1490 C1488 1.381 . S
C1490 C1491 1.394 . S
C1490 H1498 0.930 . S
C1491 C1490 1.394 . S
C1491 C1492 1.383 . S
C1491 H1499 0.929 . S
C1492 C1491 1.383 . S
C1492 C1493 1.377 . S
C1493 H1477 0.930 . S
C1493 C1492 1.377 . S
C1493 C1494 1.379 . S
C1494 H1478 0.931 . S
C1494 C1488 1.383 . S
C1494 C1493 1.379 . S
H1495 C1489 0.959 . S
H1496 C1489 0.961 . S
H1497 C1489 0.960 . S
H1498 C1490 0.930 . S
H1499 C1491 0.929 . S
H1500 C1508 0.929 . S
H1501 C1510 0.930 . S
H1502 C1512 0.930 . S
H1503 C1515 0.929 . S
H1504 C1518 0.930 . S
H1505 C1520 0.960 . S
H1506 C1520 0.960 . S
H1507 C1520 0.960 . S
C1508 H1500 0.929 . S
C1508 C1509 1.377 . S
C1508 C1510 1.384 . S
C1509 C1508 1.377 . S
C1509 C1515 1.390 . S
C1510 H1501 0.930 . S
C1510 C1508 1.384 . S
C1510 C1511 1.372 . S
C1511 C1510 1.372 . S
C1511 C1512 1.400 . S
C1511 C1516 1.490 . S
C1512 H1502 0.930 . S
C1512 C1511 1.400 . S
C1512 C1515 1.386 . S
H1513 C1529 0.930 . S
H1514 C1530 0.931 . S
C1515 H1503 0.929 . S
C1515 C1509 1.390 . S
C1515 C1512 1.386 . S
C1516 C1511 1.490 . S
C1516 C1518 1.395 . S
C1516 C1519 1.403 . S
H1517 C1523 0.930 . S
C1518 H1504 0.930 . S
C1518 C1516 1.395 . S
C1518 C1521 1.403 . S
C1519 C1516 1.403 . S
C1519 C1520 1.524 . S
C1519 C1523 1.400 . S
C1520 H1505 0.960 . S
C1520 H1506 0.960 . S
C1520 H1507 0.960 . S
C1520 C1519 1.524 . S
C1521 C1518 1.403 . S
C1521 C1522 1.392 . S
C1521 C1525 1.495 . S
C1522 C1521 1.392 . S
C1522 C1523 1.385 . S
C1522 C1524 1.478 . S
C1523 H1517 0.930 . S
C1523 C1519 1.400 . S
C1523 C1522 1.385 . S
C1524 C1522 1.478 . S
C1524 C1526 1.381 . S
C1524 C1530 1.383 . S
C1525 C1521 1.495 . S
C1525 H1531 0.959 . S
C1525 H1532 0.961 . S
C1525 H1533 0.960 . S
C1526 C1524 1.381 . S
C1526 C1527 1.394 . S
C1526 H1534 0.930 . S
C1527 C1526 1.394 . S
C1527 C1528 1.383 . S
C1527 H1535 0.929 . S
C1528 C1527 1.383 . S
C1528 C1529 1.377 . S
C1529 H1513 0.930 . S
C1529 C1528 1.377 . S
C1529 C1530 1.379 . S
C1530 H1514 0.931 . S
C1530 C1524 1.383 . S
C1530 C1529 1.379 . S
H1531 C1525 0.959 . S
H1532 C1525 0.961 . S
H1533 C1525 0.960 . S
H1534 C1526 0.930 . S
H1535 C1527 0.929 . S
H1536 C1544 0.929 . S
H1537 C1546 0.930 . S
H1538 C1548 0.930 . S
H1539 C1551 0.929 . S
H1540 C1554 0.930 . S
H1541 C1556 0.960 . S
H1542 C1556 0.960 . S
H1543 C1556 0.960 . S
C1544 H1536 0.929 . S
C1544 C1545 1.377 . S
C1544 C1546 1.384 . S
C1545 C1544 1.377 . S
C1545 C1551 1.390 . S
C1546 H1537 0.930 . S
C1546 C1544 1.384 . S
C1546 C1547 1.372 . S
C1547 C1546 1.372 . S
C1547 C1548 1.400 . S
C1547 C1552 1.490 . S
C1548 H1538 0.930 . S
C1548 C1547 1.400 . S
C1548 C1551 1.386 . S
H1549 C1565 0.930 . S
H1550 C1566 0.931 . S
C1551 H1539 0.929 . S
C1551 C1545 1.390 . S
C1551 C1548 1.386 . S
C1552 C1547 1.490 . S
C1552 C1554 1.395 . S
C1552 C1555 1.403 . S
H1553 C1559 0.930 . S
C1554 H1540 0.930 . S
C1554 C1552 1.395 . S
C1554 C1557 1.403 . S
C1555 C1552 1.403 . S
C1555 C1556 1.524 . S
C1555 C1559 1.400 . S
C1556 H1541 0.960 . S
C1556 H1542 0.960 . S
C1556 H1543 0.960 . S
C1556 C1555 1.524 . S
C1557 C1554 1.403 . S
C1557 C1558 1.392 . S
C1557 C1561 1.495 . S
C1558 C1557 1.392 . S
C1558 C1559 1.385 . S
C1558 C1560 1.478 . S
C1559 H1553 0.930 . S
C1559 C1555 1.400 . S
C1559 C1558 1.385 . S
C1560 C1558 1.478 . S
C1560 C1562 1.381 . S
C1560 C1566 1.383 . S
C1561 C1557 1.495 . S
C1561 H1567 0.959 . S
C1561 H1568 0.961 . S
C1561 H1569 0.960 . S
C1562 C1560 1.381 . S
C1562 C1563 1.394 . S
C1562 H1570 0.930 . S
C1563 C1562 1.394 . S
C1563 C1564 1.383 . S
C1563 H1571 0.929 . S
C1564 C1563 1.383 . S
C1564 C1565 1.377 . S
C1565 H1549 0.930 . S
C1565 C1564 1.377 . S
C1565 C1566 1.379 . S
C1566 H1550 0.931 . S
C1566 C1560 1.383 . S
C1566 C1565 1.379 . S
H1567 C1561 0.959 . S
H1568 C1561 0.961 . S
H1569 C1561 0.960 . S
H1570 C1562 0.930 . S
H1571 C1563 0.929 . S
C717 C5 1.549 . S
C736 C300 1.550 . S
C753 C111 1.569 . S
C772 C288 1.580 . S
C789 C298 1.553 . S
C808 C121 1.547 . S
C825 C229 1.572 . S
C844 C269 1.555 . S
C861 C418 1.549 . S
C880 C123 1.554 . S
C897 C387 1.572 . S
C916 C210 1.575 . S
C933 C3 1.550 . S
C952 C416 1.535 . S
C969 C406 1.568 . S
C988 C92 1.577 . S
C1005 C583 1.550 . S
C1024 C477 1.566 . S
C1041 C475 1.552 . S
C1060 C701 1.549 . S
C1077 C564 1.546 . S
C1096 C593 1.565 . S
C1113 C595 1.558 . S
C1132 C682 1.562 . S
C1149 C654 1.550 . S
C1168 C359 1.555 . S
C1185 C524 1.574 . S
C1204 C465 1.558 . S
C1221 C357 1.550 . S
C1240 C534 1.558 . S
C1257 C446 1.570 . S
C1276 C642 1.565 . S
C1293 C241 1.549 . S
C1312 C536 1.557 . S
C1329 C328 1.577 . S
C1348 C623 1.572 . S
C1365 C652 1.547 . S
C1384 C239 1.552 . S
C1401 C505 1.574 . S
C1420 C347 1.554 . S
C1437 C64 1.558 . S
C1456 C170 1.549 . S
C1473 C52 1.549 . S
C1492 C62 1.550 . S
C1509 C151 1.549 . S
C1528 C180 1.542 . S
C1545 C33 1.548 . S
C1564 C182 1.561 . S
