# Generated by pormake.
# Topology umx, (4)-cn, num edge types: 1
# Building blocks:
#     Node 0, Type 0, BuildingBlock: ESEHIV_clean_sbu_0, # of connection points: 4
#     Node 1, Type 0, BuildingBlock: ESEHIV_clean_sbu_0, # of connection points: 4
#     Node 2, Type 0, BuildingBlock: ESEHIV_clean_sbu_0, # of connection points: 4
#     Node 3, Type 0, BuildingBlock: ESEHIV_clean_sbu_0, # of connection points: 4
#     Node 4, Type 0, BuildingBlock: ESEHIV_clean_sbu_0, # of connection points: 4
#     Node 5, Type 0, BuildingBlock: ESEHIV_clean_sbu_0, # of connection points: 4
#     Node 6, Type 0, BuildingBlock: ESEHIV_clean_sbu_0, # of connection points: 4
#     Node 7, Type 0, BuildingBlock: ESEHIV_clean_sbu_0, # of connection points: 4
#     Edge 8, Type (0, 0), BuildingBlock: OJICUG_clean_linker_0, # of connection points: 2
#     Edge 9, Type (0, 0), BuildingBlock: OJICUG_clean_linker_0, # of connection points: 2
#     Edge 10, Type (0, 0), BuildingBlock: OJICUG_clean_linker_0, # of connection points: 2
#     Edge 11, Type (0, 0), BuildingBlock: OJICUG_clean_linker_0, # of connection points: 2
#     Edge 12, Type (0, 0), BuildingBlock: OJICUG_clean_linker_0, # of connection points: 2
#     Edge 13, Type (0, 0), BuildingBlock: OJICUG_clean_linker_0, # of connection points: 2
#     Edge 14, Type (0, 0), BuildingBlock: OJICUG_clean_linker_0, # of connection points: 2
#     Edge 15, Type (0, 0), BuildingBlock: OJICUG_clean_linker_0, # of connection points: 2
#     Edge 16, Type (0, 0), BuildingBlock: OJICUG_clean_linker_0, # of connection points: 2
#     Edge 17, Type (0, 0), BuildingBlock: OJICUG_clean_linker_0, # of connection points: 2
#     Edge 18, Type (0, 0), BuildingBlock: OJICUG_clean_linker_0, # of connection points: 2
#     Edge 19, Type (0, 0), BuildingBlock: OJICUG_clean_linker_0, # of connection points: 2
#     Edge 20, Type (0, 0), BuildingBlock: OJICUG_clean_linker_0, # of connection points: 2
#     Edge 21, Type (0, 0), BuildingBlock: OJICUG_clean_linker_0, # of connection points: 2
#     Edge 22, Type (0, 0), BuildingBlock: OJICUG_clean_linker_0, # of connection points: 2
#     Edge 23, Type (0, 0), BuildingBlock: OJICUG_clean_linker_0, # of connection points: 2
# Relax obj value: 0.135
# Max RMSD: 0.189
# Mean RMSD: 0.174
data_MOF--net-umx--node1-ESEHIV_clean_sbu_0--edge1-OJICUG_clean_linker_0
_symmetry_space_group_name_H-M    P1
_symmetry_Int_Tables_number       1
_symmetry_cell_setting            triclinic
loop_
_symmetry_equiv_pos_as_xyz
'x, y, z'
_cell_length_a     28.131495
_cell_length_b     35.432152
_cell_length_c     22.143223
_cell_angle_alpha  89.457185
_cell_angle_beta   90.102553
_cell_angle_gamma 89.999197
loop_
_atom_site_label
_atom_site_type_symbol
_atom_site_fract_x
_atom_site_fract_y
_atom_site_fract_z
_atom_type_partial_charge
Cu0 Cu 0.17021 0.41317 0.0809 0.0
N1 N 0.21016 0.44328 1.03472 0.0
N2 N 0.2408 0.4741 0.95605 0.0
C3 C 0.21123 0.44633 0.97427 0.0
C4 C 0.25909 0.48903 1.00677 0.0
C5 C 0.24025 0.46978 1.05536 0.0
O6 O 0.17764 0.36164 1.05322 0.0
C7 C 0.07835 0.43941 0.11841 0.0
O8 O 0.08602 0.41961 0.16793 0.0
H9 H 0.1888 0.43003 0.94449 0.0
H10 H 0.24663 0.47569 0.1025 0.0
N11 N 0.19433 0.41661 0.15854 0.0
N12 N 0.21428 0.44381 0.24486 0.0
C13 C 0.18442 0.44424 0.19744 0.0
C14 C 0.23243 0.39844 0.18163 0.0
C15 C 0.24479 0.41518 0.23535 0.0
C16 C 0.17905 0.33355 0.08956 0.0
O17 O 0.16157 0.33736 0.14415 0.0
H18 H 0.1583 0.46608 0.18888 0.0
H19 H 0.25156 0.37611 0.15923 0.0
O20 O 0.10731 0.43662 0.07453 0.0
H21 H 0.28325 0.51279 1.0085 0.0
H22 H 0.27463 0.40779 0.26404 0.0
Cu23 Cu 0.55967 0.1846 0.58363 0.0
N24 N 0.57668 0.13389 0.57979 0.0
N25 N 0.56391 0.07162 0.57726 0.0
C26 C 0.54436 0.10629 0.57286 0.0
C27 C 0.6107 0.07777 0.58726 0.0
C28 C 0.61848 0.11629 0.58883 0.0
O29 O 0.52448 0.18875 0.66159 0.0
C30 C 0.55258 0.19363 0.45668 0.0
O31 O 0.59798 0.18573 0.46264 0.0
H32 H 0.50673 0.11175 0.56748 0.0
H33 H 0.65183 0.13033 0.59784 0.0
N34 N 0.61105 0.21774 0.59344 0.0
N35 N 0.68161 0.2462 0.60195 0.0
C36 C 0.65773 0.21641 0.57887 0.0
C37 C 0.60569 0.24958 0.62532 0.0
C38 C 0.64888 0.267 0.63089 0.0
C39 C 0.5496 0.18272 0.7094 0.0
O40 O 0.59454 0.17367 0.70244 0.0
H41 H 0.67397 0.19399 0.55326 0.0
H42 H 0.57242 0.25907 0.64431 0.0
O43 O 0.52744 0.19602 0.50496 0.0
H44 H 0.63734 0.05608 0.59381 0.0
H45 H 0.65573 0.2933 0.65388 0.0
Cu46 Cu 0.8541 0.59483 0.08207 0.0
N47 N 0.81438 0.572 1.02659 0.0
N48 N 0.78962 0.54071 0.94547 0.0
C49 C 0.82669 0.55783 0.97285 0.0
C50 C 0.75264 0.54457 0.9838 0.0
C51 C 0.76805 0.5639 1.0337 0.0
O52 O 0.85229 0.64856 0.0639 0.0
C53 C 0.94309 0.56337 0.12136 0.0
O54 O 0.93485 0.58105 0.17217 0.0
H55 H 0.86228 0.55994 0.95478 0.0
H56 H 0.74717 0.57077 0.07303 0.0
N57 N 0.82579 0.58574 0.15647 0.0
N58 N 0.80427 0.55508 0.24 0.0
C59 C 0.83446 0.55616 0.19303 0.0
C60 C 0.78801 0.60353 0.18046 0.0
C61 C 0.77468 0.58464 0.23241 0.0
C62 C 0.84841 0.67362 0.10449 0.0
O63 O 0.86093 0.66511 0.16017 0.0
H64 H 0.86103 0.53485 0.18411 0.0
H65 H 0.77048 0.62779 0.16047 0.0
O66 O 0.91547 0.56895 0.07653 0.0
H67 H 0.71726 0.53337 0.97739 0.0
H68 H 0.74555 0.59184 0.26202 0.0
Cu69 Cu 0.46776 0.81816 0.58429 0.0
N70 N 0.45018 0.86878 0.57909 0.0
N71 N 0.4633 0.93105 0.5761 0.0
C72 C 0.48265 0.89647 0.58319 0.0
C73 C 0.41644 0.92475 0.56697 0.0
C74 C 0.40841 0.88621 0.56892 0.0
O75 O 0.50329 0.81466 0.6623 0.0
C76 C 0.47473 0.80874 0.45763 0.0
O77 O 0.42893 0.81498 0.46331 0.0
H78 H 0.52016 0.89104 0.58976 0.0
H79 H 0.37474 0.87208 0.56279 0.0
N80 N 0.41767 0.78384 0.59547 0.0
N81 N 0.34872 0.75318 0.60666 0.0
C82 C 0.37055 0.784 0.58288 0.0
C83 C 0.42537 0.7517 0.6268 0.0
C84 C 0.38323 0.73293 0.63398 0.0
C85 C 0.47801 0.82054 0.70972 0.0
O86 O 0.43289 0.82896 0.70212 0.0
H87 H 0.35254 0.80624 0.5581 0.0
H88 H 0.45959 0.7429 0.64428 0.0
O89 O 0.50011 0.80736 0.50598 0.0
H90 H 0.3898 0.94635 0.55965 0.0
H91 H 0.37834 0.70608 0.6569 0.0
Cu92 Cu 0.17244 0.58906 0.58795 0.0
N93 N 0.21244 0.55993 0.63583 0.0
N94 N 0.24244 0.52988 0.7158 0.0
C95 C 0.21218 0.55687 0.6963 0.0
C96 C 0.26258 0.51548 0.6659 0.0
C97 C 0.24412 0.53425 0.61651 0.0
O98 O 0.17944 0.6411 0.61337 0.0
C99 C 0.08065 0.56265 0.55045 0.0
O100 O 0.0884 0.58232 0.50085 0.0
H101 H 0.18838 0.57257 0.7251 0.0
H102 H 0.25191 0.52855 0.56967 0.0
N103 N 0.19668 0.58424 0.51071 0.0
N104 N 0.21599 0.55577 0.42533 0.0
C105 C 0.18645 0.55608 0.47291 0.0
C106 C 0.23472 0.60198 0.4868 0.0
C107 C 0.24667 0.58446 0.43363 0.0
C108 C 0.18098 0.66862 0.57595 0.0
O109 O 0.16421 0.66385 0.52113 0.0
H110 H 0.16013 0.53453 0.48225 0.0
H111 H 0.25394 0.62469 0.50818 0.0
O112 O 0.1096 0.56554 0.59447 0.0
H113 H 0.28777 0.49238 0.66522 0.0
H114 H 0.27623 0.59148 0.40437 0.0
Cu115 Cu 0.46765 0.18607 0.08337 0.0
N116 N 0.45015 0.13542 0.08834 0.0
N117 N 0.46336 0.07316 0.09139 0.0
C118 C 0.48275 0.10778 0.08515 0.0
C119 C 0.41634 0.07938 0.09902 0.0
C120 C 0.40826 0.11792 0.09702 0.0
O121 O 0.50316 0.18973 1.00553 0.0
C122 C 0.47465 0.19533 0.21008 0.0
O123 O 0.42886 0.18903 0.20418 0.0
H124 H 0.52034 0.11327 0.0797 0.0
H125 H 0.37443 0.13198 0.10194 0.0
N126 N 0.41753 0.22038 0.07217 0.0
N127 N 0.3485 0.25089 1.06024 0.0
C128 C 0.37029 0.21994 0.08376 0.0
C129 C 0.42536 0.25282 1.04176 0.0
C130 C 0.38317 0.27151 1.03415 0.0
C131 C 0.47787 0.18397 0.95797 0.0
O132 O 0.43273 0.1756 0.96531 0.0
H133 H 0.35216 0.1974 0.10759 0.0
H134 H 0.45969 0.26187 1.02514 0.0
O135 O 0.50002 0.19679 0.16184 0.0
H136 H 0.38961 0.05773 0.10521 0.0
H137 H 0.37835 0.29854 1.01172 0.0
Cu138 Cu 0.85605 0.40755 0.58628 0.0
N139 N 0.81604 0.43162 0.63989 0.0
N140 N 0.7907 0.46336 0.72016 0.0
C141 C 0.82742 0.44479 0.69468 0.0
C142 C 0.7549 0.46148 0.67952 0.0
C143 C 0.77065 0.44188 0.63015 0.0
O144 O 0.85377 0.35418 0.60703 0.0
C145 C 0.9452 0.43883 0.54722 0.0
O146 O 0.93706 0.42101 0.49648 0.0
H147 H 0.86216 0.44098 0.7148 0.0
H148 H 0.75075 0.43634 0.58938 0.0
N149 N 0.82826 0.41518 0.51104 0.0
N150 N 0.80617 0.4447 0.42661 0.0
C151 C 0.83646 0.44443 0.47364 0.0
C152 C 0.79072 0.39677 0.48749 0.0
C153 C 0.77704 0.41495 0.43499 0.0
C154 C 0.85036 0.32844 0.56747 0.0
O155 O 0.86405 0.33589 0.51192 0.0
H156 H 0.86255 0.46619 0.48217 0.0
H157 H 0.77339 0.37272 0.50829 0.0
O158 O 0.91748 0.43338 0.59189 0.0
H159 H 0.72021 0.47429 0.68397 0.0
H160 H 0.74782 0.40726 0.40571 0.0
Cu161 Cu 0.55969 0.81958 0.08447 0.0
N162 N 0.57664 0.87029 0.08864 0.0
N163 N 0.56389 0.93255 0.09128 0.0
C164 C 0.54424 0.89788 0.09482 0.0
C165 C 0.61081 0.92639 0.08259 0.0
C166 C 0.61859 0.88787 0.08097 0.0
O167 O 0.52446 0.81558 1.00635 0.0
C168 C 0.55263 0.81055 0.21139 0.0
O169 O 0.59796 0.8187 0.20565 0.0
H170 H 0.50655 0.89244 0.09918 0.0
H171 H 0.65208 0.87382 0.07298 0.0
N172 N 0.61114 0.78654 0.07462 0.0
N173 N 0.68168 0.75795 0.06724 0.0
C174 C 0.65758 0.78749 0.09066 0.0
C175 C 0.60615 0.75517 1.04145 0.0
C176 C 0.64933 0.73768 1.03655 0.0
C177 C 0.54951 0.82193 0.9587 0.0
O178 O 0.59436 0.83125 0.96593 0.0
H179 H 0.6735 0.80944 0.11765 0.0
H180 H 0.57313 0.74601 1.02123 0.0
O181 O 0.52752 0.80801 0.16299 0.0
H182 H 0.63757 0.94809 0.07708 0.0
H183 H 0.6564 0.71166 1.01294 0.0
C184 C 0.17255 0.48563 0.31413 0.0
C185 C 0.21537 0.47119 0.29181 0.0
H186 H 0.13946 0.52439 0.37423 0.0
C187 C 0.25876 0.48528 0.31338 0.0
H188 H 0.13874 0.47505 0.29805 0.0
C189 C 0.25917 0.51385 0.35636 0.0
C190 C 0.21621 0.52808 0.37881 0.0
H191 H 0.29215 0.47476 0.29608 0.0
H192 H 0.29288 0.52434 0.37284 0.0
C193 C 0.17296 0.51368 0.35752 0.0
C194 C 0.56237 0.18571 0.82234 0.0
C195 C 0.53062 0.18555 0.77263 0.0
H196 H 0.57135 0.18578 0.919 0.0
C197 C 0.48174 0.18666 0.78492 0.0
H198 H 0.60041 0.1851 0.81501 0.0
C199 C 0.46518 0.18676 0.84492 0.0
C200 C 0.49692 0.18619 0.89464 0.0
H201 H 0.4562 0.18659 0.74826 0.0
H202 H 0.42714 0.18697 0.85227 0.0
C203 C 0.54583 0.18623 0.88233 0.0
C204 C 0.84791 0.48639 0.35568 0.0
C205 C 0.80511 0.47208 0.37877 0.0
H206 H 0.88093 0.52427 0.29291 0.0
C207 C 0.76171 0.48559 0.35589 0.0
H208 H 0.88174 0.47617 0.3726 0.0
C209 C 0.76124 0.51348 0.3109 0.0
C210 C 0.80416 0.5275 0.28757 0.0
H211 H 0.72834 0.47507 0.3736 0.0
H212 H 0.72752 0.52366 0.29362 0.0
C213 C 0.84745 0.51365 0.31014 0.0
C214 C 0.5624 0.81901 0.84584 0.0
C215 C 0.5306 0.81905 0.89536 0.0
H216 H 0.57147 0.81898 0.74923 0.0
C217 C 0.48173 0.81778 0.88278 0.0
H218 H 0.60043 0.81974 0.8534 0.0
C219 C 0.46523 0.81765 0.82268 0.0
C220 C 0.49702 0.81834 0.77315 0.0
H221 H 0.45616 0.81776 0.91929 0.0
H222 H 0.4272 0.81732 0.8151 0.0
C223 C 0.54591 0.81844 0.78575 0.0
C224 C 0.74731 0.49323 0.80433 0.0
C225 C 0.79041 0.4826 0.77729 0.0
H226 H 0.71314 0.52061 0.87764 0.0
C227 C 0.83323 0.49148 0.80676 0.0
H228 H 0.71353 0.48661 0.78364 0.0
C229 C 0.83297 0.5103 0.86176 0.0
C230 C 0.78989 0.52119 0.88858 0.0
H231 H 0.86725 0.48431 0.78739 0.0
H232 H 0.86674 0.51594 0.88318 0.0
C233 C 0.74707 0.51245 0.85901 0.0
C234 C 0.56263 0.80698 0.32514 0.0
C235 C 0.53223 0.80689 0.27411 0.0
H236 H 0.56913 0.80728 0.42209 0.0
C237 C 0.48302 0.80533 0.28459 0.0
H238 H 0.60083 0.80806 0.31936 0.0
C239 C 0.46489 0.805 0.34394 0.0
C240 C 0.49527 0.806 0.39495 0.0
H241 H 0.45838 0.80528 0.24696 0.0
H242 H 0.42667 0.80455 0.34973 0.0
C243 C 0.54451 0.80643 0.38448 0.0
C244 C 0.24763 0.46314 0.84705 0.0
C245 C 0.24597 0.48822 0.89561 0.0
H246 H 0.24857 0.45705 0.75095 0.0
C247 C 0.24629 0.52726 0.88425 0.0
H248 H 0.24756 0.43294 0.85504 0.0
C249 C 0.2462 0.54099 0.82502 0.0
C250 C 0.24678 0.5159 0.77644 0.0
H251 H 0.24459 0.54706 0.92111 0.0
H252 H 0.245 0.57117 0.817 0.0
C253 C 0.24853 0.47689 0.78784 0.0
C254 C 0.48294 0.19862 0.38317 0.0
C255 C 0.53216 0.19721 0.39386 0.0
H256 H 0.42659 0.19927 0.31779 0.0
C257 C 0.56256 0.19725 0.34297 0.0
H258 H 0.45831 0.19858 0.42069 0.0
C259 C 0.54443 0.19776 0.28355 0.0
C260 C 0.49518 0.19805 0.27286 0.0
H261 H 0.60076 0.19629 0.34892 0.0
H262 H 0.56905 0.19702 0.24604 0.0
C263 C 0.4648 0.19893 0.32374 0.0
C264 C 0.99508 0.51775 0.06467 0.0
C265 C 0.97869 0.53234 0.11974 0.0
H266 H 0.03958 0.47704 1.02086 0.0
C267 C 0.99424 0.51528 0.17387 0.0
H268 H 0.98352 0.53007 1.02217 0.0
C269 C 0.02518 0.48436 0.17307 0.0
C270 C 0.04214 0.47003 0.11815 0.0
H271 H 0.98188 0.52541 0.21709 0.0
H272 H 0.03659 0.47219 0.21575 0.0
C273 C 0.02693 0.48722 0.06391 0.0
C274 C 0.53207 0.9701 0.60727 0.0
C275 C 0.48834 0.96669 0.57671 0.0
H276 H 0.59012 0.00589 0.63171 0.0
C277 C 0.47021 0.99844 0.5459 0.0
H278 H 0.54682 0.94652 0.6324 0.0
C279 C 0.49521 0.03261 0.54553 0.0
C280 C 0.53895 0.03597 0.57606 0.0
H281 H 0.43708 0.99676 0.52118 0.0
H282 H 0.48045 0.05631 0.52067 0.0
C283 C 0.55706 0.00423 0.60683 0.0
C284 C 0.02767 0.51752 0.49568 0.0
C285 C 0.04445 0.53204 0.55063 0.0
H286 H 0.98446 0.47637 0.45157 0.0
C287 C 0.02903 0.51505 0.60487 0.0
H288 H 0.03925 0.52952 0.453 0.0
C289 C 0.99712 0.48456 0.60405 0.0
C290 C 0.98088 0.46979 0.54895 0.0
H291 H 0.04154 0.52537 0.64795 0.0
H292 H 0.98538 0.4724 0.64654 0.0
C293 C 0.99668 0.48663 0.49483 0.0
C294 C 0.55756 1.00011 1.06247 0.0
C295 C 0.53896 0.96822 0.09226 0.0
H296 H 0.54776 0.05795 1.03741 0.0
C297 C 0.49478 0.97145 0.12159 0.0
H298 H 0.59099 0.99855 1.03852 0.0
C299 C 0.46983 0.00565 0.12097 0.0
C300 C 0.48844 0.03753 0.09111 0.0
H301 H 0.47963 0.94765 0.1457 0.0
H302 H 0.43633 0.00722 0.14475 0.0
C303 C 0.53261 0.03426 1.06179 0.0
C304 C 0.23635 0.30133 1.02104 0.0
C305 C 0.21411 0.30317 0.07769 0.0
H306 H 0.29676 0.28245 0.97112 0.0
C307 C 0.23221 0.28078 0.12546 0.0
H308 H 0.22315 0.31776 0.98306 0.0
C309 C 0.27461 0.26044 0.11839 0.0
C310 C 0.29945 0.26226 1.06356 0.0
H311 H 0.2159 0.28141 0.16971 0.0
H312 H 0.29 0.24604 0.15708 0.0
C313 C 0.2786 0.28119 1.01417 0.0
C314 C 0.79481 0.27804 0.53031 0.0
C315 C 0.816 0.29734 0.57885 0.0
H316 H 0.73454 0.24594 0.5 0.0
C317 C 0.79708 0.29214 0.63703 0.0
H318 H 0.80851 0.28127 0.48488 0.0
C319 C 0.75484 0.27212 0.64528 0.0
C320 C 0.73083 0.25651 0.59579 0.0
H321 H 0.8127 0.30613 0.67557 0.0
H322 H 0.73901 0.27108 0.68982 0.0
C323 C 0.75249 0.25771 0.53879 0.0
C324 C 0.79725 0.71171 1.03455 0.0
C325 C 0.81481 0.70527 0.09321 0.0
H326 H 0.74065 0.73425 0.98048 0.0
C327 C 0.79287 0.72391 0.14178 0.0
H328 H 0.8135 0.69825 0.996 0.0
C329 C 0.75104 0.7448 0.13256 0.0
C330 C 0.73066 0.74723 0.0748 0.0
H331 H 0.80551 0.71972 0.18757 0.0
H332 H 0.73241 0.75603 0.17118 0.0
C333 C 0.75551 0.73229 1.02556 0.0
C334 C 0.27583 0.7422 0.54688 0.0
C335 C 0.29982 0.74151 0.60247 0.0
H336 H 0.21828 0.71981 0.49474 0.0
C337 C 0.27847 0.7232 0.65201 0.0
H338 H 0.29165 0.75609 0.50806 0.0
C339 C 0.23664 0.70255 0.64475 0.0
C340 C 0.21535 0.69955 0.58756 0.0
H341 H 0.296 0.72279 0.69559 0.0
H342 H 0.2231 0.68661 0.68301 0.0
C343 C 0.23386 0.72133 0.53942 0.0
loop_
_geom_bond_atom_site_label_1
_geom_bond_atom_site_label_2
_geom_bond_distance
_geom_bond_site_symmetry_2
_ccdc_geom_bond_type
Cu0 N1 1.999 1_554 S
Cu0 O6 1.974 . S
Cu0 N11 1.985 . S
Cu0 O20 1.959 . S
N1 Cu0 1.999 1_556 S
N1 C3 1.263 . S
N1 C5 1.389 . S
N2 C3 1.358 . S
N2 C4 1.400 . S
C3 N1 1.263 . S
C3 N2 1.358 . S
C3 H9 0.930 . S
C4 N2 1.400 . S
C4 C5 1.351 . S
C4 H21 0.930 . S
C5 N1 1.389 . S
C5 C4 1.351 . S
C5 H10 0.930 . S
O6 Cu0 1.974 . S
O6 C16 1.282 . S
C7 O8 1.261 . S
C7 O20 1.251 . S
O8 C7 1.261 . S
H9 C3 0.930 . S
H10 C5 0.930 . S
N11 Cu0 1.985 . S
N11 C13 1.335 . S
N11 C14 1.390 . S
N12 C13 1.345 . S
N12 C15 1.336 . S
C13 N11 1.335 . S
C13 N12 1.345 . S
C13 H18 0.930 . S
C14 N11 1.390 . S
C14 C15 1.346 . S
C14 H19 0.930 . S
C15 N12 1.336 . S
C15 C14 1.346 . S
C15 H22 0.929 . S
C16 O6 1.282 . S
C16 O17 1.216 . S
O17 C16 1.216 . S
H18 C13 0.930 . S
H19 C14 0.930 . S
O20 Cu0 1.959 . S
O20 C7 1.251 . S
H21 C4 0.930 . S
H22 C15 0.929 . S
Cu23 N24 1.999 . S
Cu23 O29 1.974 . S
Cu23 N34 1.985 . S
Cu23 O43 1.959 . S
N24 Cu23 1.999 . S
N24 C26 1.263 . S
N24 C28 1.389 . S
N25 C26 1.358 . S
N25 C27 1.400 . S
C26 N24 1.263 . S
C26 N25 1.358 . S
C26 H32 0.930 . S
C27 N25 1.400 . S
C27 C28 1.351 . S
C27 H44 0.930 . S
C28 N24 1.389 . S
C28 C27 1.351 . S
C28 H33 0.930 . S
O29 Cu23 1.974 . S
O29 C39 1.282 . S
C30 O31 1.261 . S
C30 O43 1.251 . S
O31 C30 1.261 . S
H32 C26 0.930 . S
H33 C28 0.930 . S
N34 Cu23 1.985 . S
N34 C36 1.335 . S
N34 C37 1.390 . S
N35 C36 1.345 . S
N35 C38 1.336 . S
C36 N34 1.335 . S
C36 N35 1.345 . S
C36 H41 0.930 . S
C37 N34 1.390 . S
C37 C38 1.346 . S
C37 H42 0.930 . S
C38 N35 1.336 . S
C38 C37 1.346 . S
C38 H45 0.929 . S
C39 O29 1.282 . S
C39 O40 1.216 . S
O40 C39 1.216 . S
H41 C36 0.930 . S
H42 C37 0.930 . S
O43 Cu23 1.959 . S
O43 C30 1.251 . S
H44 C27 0.930 . S
H45 C38 0.929 . S
Cu46 N47 1.999 1_554 S
Cu46 O52 1.974 . S
Cu46 N57 1.985 . S
Cu46 O66 1.959 . S
N47 Cu46 1.999 1_556 S
N47 C49 1.263 . S
N47 C51 1.389 . S
N48 C49 1.358 . S
N48 C50 1.400 . S
C49 N47 1.263 . S
C49 N48 1.358 . S
C49 H55 0.930 . S
C50 N48 1.400 . S
C50 C51 1.351 . S
C50 H67 0.930 . S
C51 N47 1.389 . S
C51 C50 1.351 . S
C51 H56 0.930 . S
O52 Cu46 1.974 . S
O52 C62 1.282 . S
C53 O54 1.261 . S
C53 O66 1.251 . S
O54 C53 1.261 . S
H55 C49 0.930 . S
H56 C51 0.930 . S
N57 Cu46 1.985 . S
N57 C59 1.335 . S
N57 C60 1.390 . S
N58 C59 1.345 . S
N58 C61 1.336 . S
C59 N57 1.335 . S
C59 N58 1.345 . S
C59 H64 0.930 . S
C60 N57 1.390 . S
C60 C61 1.346 . S
C60 H65 0.930 . S
C61 N58 1.336 . S
C61 C60 1.346 . S
C61 H68 0.929 . S
C62 O52 1.282 . S
C62 O63 1.216 . S
O63 C62 1.216 . S
H64 C59 0.930 . S
H65 C60 0.930 . S
O66 Cu46 1.959 . S
O66 C53 1.251 . S
H67 C50 0.930 . S
H68 C61 0.929 . S
Cu69 N70 1.999 . S
Cu69 O75 1.974 . S
Cu69 N80 1.985 . S
Cu69 O89 1.959 . S
N70 Cu69 1.999 . S
N70 C72 1.263 . S
N70 C74 1.389 . S
N71 C72 1.358 . S
N71 C73 1.400 . S
C72 N70 1.263 . S
C72 N71 1.358 . S
C72 H78 0.930 . S
C73 N71 1.400 . S
C73 C74 1.351 . S
C73 H90 0.930 . S
C74 N70 1.389 . S
C74 C73 1.351 . S
C74 H79 0.930 . S
O75 Cu69 1.974 . S
O75 C85 1.282 . S
C76 O77 1.261 . S
C76 O89 1.251 . S
O77 C76 1.261 . S
H78 C72 0.930 . S
H79 C74 0.930 . S
N80 Cu69 1.985 . S
N80 C82 1.335 . S
N80 C83 1.390 . S
N81 C82 1.345 . S
N81 C84 1.336 . S
C82 N80 1.335 . S
C82 N81 1.345 . S
C82 H87 0.930 . S
C83 N80 1.390 . S
C83 C84 1.346 . S
C83 H88 0.930 . S
C84 N81 1.336 . S
C84 C83 1.346 . S
C84 H91 0.929 . S
C85 O75 1.282 . S
C85 O86 1.216 . S
O86 C85 1.216 . S
H87 C82 0.930 . S
H88 C83 0.930 . S
O89 Cu69 1.959 . S
O89 C76 1.251 . S
H90 C73 0.930 . S
H91 C84 0.929 . S
Cu92 N93 1.999 . S
Cu92 O98 1.974 . S
Cu92 N103 1.985 . S
Cu92 O112 1.959 . S
N93 Cu92 1.999 . S
N93 C95 1.263 . S
N93 C97 1.389 . S
N94 C95 1.358 . S
N94 C96 1.400 . S
C95 N93 1.263 . S
C95 N94 1.358 . S
C95 H101 0.930 . S
C96 N94 1.400 . S
C96 C97 1.351 . S
C96 H113 0.930 . S
C97 N93 1.389 . S
C97 C96 1.351 . S
C97 H102 0.930 . S
O98 Cu92 1.974 . S
O98 C108 1.282 . S
C99 O100 1.261 . S
C99 O112 1.251 . S
O100 C99 1.261 . S
H101 C95 0.930 . S
H102 C97 0.930 . S
N103 Cu92 1.985 . S
N103 C105 1.335 . S
N103 C106 1.390 . S
N104 C105 1.345 . S
N104 C107 1.336 . S
C105 N103 1.335 . S
C105 N104 1.345 . S
C105 H110 0.930 . S
C106 N103 1.390 . S
C106 C107 1.346 . S
C106 H111 0.930 . S
C107 N104 1.336 . S
C107 C106 1.346 . S
C107 H114 0.929 . S
C108 O98 1.282 . S
C108 O109 1.216 . S
O109 C108 1.216 . S
H110 C105 0.930 . S
H111 C106 0.930 . S
O112 Cu92 1.959 . S
O112 C99 1.251 . S
H113 C96 0.930 . S
H114 C107 0.929 . S
Cu115 N116 1.999 . S
Cu115 O121 1.974 1_554 S
Cu115 N126 1.985 . S
Cu115 O135 1.959 . S
N116 Cu115 1.999 . S
N116 C118 1.263 1_554 S
N116 C120 1.389 . S
N117 C118 1.358 . S
N117 C119 1.400 1_556 S
C118 N116 1.263 1_556 S
C118 N117 1.358 . S
C118 H124 0.930 . S
C119 N117 1.400 1_554 S
C119 C120 1.351 . S
C119 H136 0.930 . S
C120 N116 1.389 . S
C120 C119 1.351 . S
C120 H125 0.930 . S
O121 Cu115 1.974 1_556 S
O121 C131 1.282 . S
C122 O123 1.261 . S
C122 O135 1.251 . S
O123 C122 1.261 . S
H124 C118 0.930 . S
H125 C120 0.930 . S
N126 Cu115 1.985 . S
N126 C128 1.335 . S
N126 C129 1.390 1_554 S
N127 C128 1.345 . S
N127 C130 1.336 1_554 S
C128 N126 1.335 . S
C128 N127 1.345 . S
C128 H133 0.930 . S
C129 N126 1.390 1_556 S
C129 C130 1.346 . S
C129 H134 0.930 . S
C130 N127 1.336 1_556 S
C130 C129 1.346 . S
C130 H137 0.929 . S
C131 O121 1.282 . S
C131 O132 1.216 . S
O132 C131 1.216 . S
H133 C128 0.930 . S
H134 C129 0.930 . S
O135 Cu115 1.959 . S
O135 C122 1.251 . S
H136 C119 0.930 . S
H137 C130 0.929 . S
Cu138 N139 1.999 . S
Cu138 O144 1.974 . S
Cu138 N149 1.985 . S
Cu138 O158 1.959 . S
N139 Cu138 1.999 . S
N139 C141 1.263 . S
N139 C143 1.389 . S
N140 C141 1.358 . S
N140 C142 1.400 . S
C141 N139 1.263 . S
C141 N140 1.358 . S
C141 H147 0.930 . S
C142 N140 1.400 . S
C142 C143 1.351 . S
C142 H159 0.930 . S
C143 N139 1.389 . S
C143 C142 1.351 . S
C143 H148 0.930 . S
O144 Cu138 1.974 . S
O144 C154 1.282 . S
C145 O146 1.261 . S
C145 O158 1.251 . S
O146 C145 1.261 . S
H147 C141 0.930 . S
H148 C143 0.930 . S
N149 Cu138 1.985 . S
N149 C151 1.335 . S
N149 C152 1.390 . S
N150 C151 1.345 . S
N150 C153 1.336 . S
C151 N149 1.335 . S
C151 N150 1.345 . S
C151 H156 0.930 . S
C152 N149 1.390 . S
C152 C153 1.346 . S
C152 H157 0.930 . S
C153 N150 1.336 . S
C153 C152 1.346 . S
C153 H160 0.929 . S
C154 O144 1.282 . S
C154 O155 1.216 . S
O155 C154 1.216 . S
H156 C151 0.930 . S
H157 C152 0.930 . S
O158 Cu138 1.959 . S
O158 C145 1.251 . S
H159 C142 0.930 . S
H160 C153 0.929 . S
Cu161 N162 1.999 . S
Cu161 O167 1.974 1_554 S
Cu161 N172 1.985 . S
Cu161 O181 1.959 . S
N162 Cu161 1.999 . S
N162 C164 1.263 1_554 S
N162 C166 1.389 . S
N163 C164 1.358 . S
N163 C165 1.400 1_556 S
C164 N162 1.263 1_556 S
C164 N163 1.358 . S
C164 H170 0.930 . S
C165 N163 1.400 1_554 S
C165 C166 1.351 . S
C165 H182 0.930 . S
C166 N162 1.389 . S
C166 C165 1.351 . S
C166 H171 0.930 . S
O167 Cu161 1.974 1_556 S
O167 C177 1.282 . S
C168 O169 1.261 . S
C168 O181 1.251 . S
O169 C168 1.261 . S
H170 C164 0.930 . S
H171 C166 0.930 . S
N172 Cu161 1.985 . S
N172 C174 1.335 . S
N172 C175 1.390 1_554 S
N173 C174 1.345 . S
N173 C176 1.336 1_554 S
C174 N172 1.335 . S
C174 N173 1.345 . S
C174 H179 0.930 . S
C175 N172 1.390 1_556 S
C175 C176 1.346 . S
C175 H180 0.930 . S
C176 N173 1.336 1_556 S
C176 C175 1.346 . S
C176 H183 0.929 . S
C177 O167 1.282 . S
C177 O178 1.216 . S
O178 C177 1.216 . S
H179 C174 0.930 . S
H180 C175 0.930 . S
O181 Cu161 1.959 . S
O181 C168 1.251 . S
H182 C165 0.930 . S
H183 C176 0.929 . S
C184 C185 1.387 . S
C184 H188 0.950 . S
C184 C193 1.390 . S
C185 C184 1.387 . S
C185 C187 1.387 . S
H186 C193 0.950 . S
C187 C185 1.387 . S
C187 C189 1.390 . S
C187 H191 0.950 . S
H188 C184 0.950 . S
C189 C187 1.390 . S
C189 C190 1.387 . S
C189 H192 0.950 . S
C190 C189 1.387 . S
C190 C193 1.387 . S
H191 C187 0.950 . S
H192 C189 0.950 . S
C193 C184 1.390 . S
C193 H186 0.950 . S
C193 C190 1.387 . S
C194 C195 1.387 . S
C194 H198 0.950 . S
C194 C203 1.390 . S
C195 C194 1.387 . S
C195 C197 1.387 . S
H196 C203 0.950 . S
C197 C195 1.387 . S
C197 C199 1.390 . S
C197 H201 0.950 . S
H198 C194 0.950 . S
C199 C197 1.390 . S
C199 C200 1.387 . S
C199 H202 0.950 . S
C200 C199 1.387 . S
C200 C203 1.387 . S
H201 C197 0.950 . S
H202 C199 0.950 . S
C203 C194 1.390 . S
C203 H196 0.950 . S
C203 C200 1.387 . S
C204 C205 1.387 . S
C204 H208 0.950 . S
C204 C213 1.390 . S
C205 C204 1.387 . S
C205 C207 1.387 . S
H206 C213 0.950 . S
C207 C205 1.387 . S
C207 C209 1.390 . S
C207 H211 0.950 . S
H208 C204 0.950 . S
C209 C207 1.390 . S
C209 C210 1.387 . S
C209 H212 0.950 . S
C210 C209 1.387 . S
C210 C213 1.387 . S
H211 C207 0.950 . S
H212 C209 0.950 . S
C213 C204 1.390 . S
C213 H206 0.950 . S
C213 C210 1.387 . S
C214 C215 1.387 . S
C214 H218 0.950 . S
C214 C223 1.390 . S
C215 C214 1.387 . S
C215 C217 1.387 . S
H216 C223 0.950 . S
C217 C215 1.387 . S
C217 C219 1.390 . S
C217 H221 0.950 . S
H218 C214 0.950 . S
C219 C217 1.390 . S
C219 C220 1.387 . S
C219 H222 0.950 . S
C220 C219 1.387 . S
C220 C223 1.387 . S
H221 C217 0.950 . S
H222 C219 0.950 . S
C223 C214 1.390 . S
C223 H216 0.950 . S
C223 C220 1.387 . S
C224 C225 1.387 . S
C224 H228 0.950 . S
C224 C233 1.390 . S
C225 C224 1.387 . S
C225 C227 1.387 . S
H226 C233 0.950 . S
C227 C225 1.387 . S
C227 C229 1.390 . S
C227 H231 0.950 . S
H228 C224 0.950 . S
C229 C227 1.390 . S
C229 C230 1.387 . S
C229 H232 0.950 . S
C230 C229 1.387 . S
C230 C233 1.387 . S
H231 C227 0.950 . S
H232 C229 0.950 . S
C233 C224 1.390 . S
C233 H226 0.950 . S
C233 C230 1.387 . S
C234 C235 1.387 . S
C234 H238 0.950 . S
C234 C243 1.390 . S
C235 C234 1.387 . S
C235 C237 1.387 . S
H236 C243 0.950 . S
C237 C235 1.387 . S
C237 C239 1.390 . S
C237 H241 0.950 . S
H238 C234 0.950 . S
C239 C237 1.390 . S
C239 C240 1.387 . S
C239 H242 0.950 . S
C240 C239 1.387 . S
C240 C243 1.387 . S
H241 C237 0.950 . S
H242 C239 0.950 . S
C243 C234 1.390 . S
C243 H236 0.950 . S
C243 C240 1.387 . S
C244 C245 1.387 . S
C244 H248 0.950 . S
C244 C253 1.390 . S
C245 C244 1.387 . S
C245 C247 1.387 . S
H246 C253 0.950 . S
C247 C245 1.387 . S
C247 C249 1.390 . S
C247 H251 0.950 . S
H248 C244 0.950 . S
C249 C247 1.390 . S
C249 C250 1.387 . S
C249 H252 0.950 . S
C250 C249 1.387 . S
C250 C253 1.387 . S
H251 C247 0.950 . S
H252 C249 0.950 . S
C253 C244 1.390 . S
C253 H246 0.950 . S
C253 C250 1.387 . S
C254 C255 1.387 . S
C254 H258 0.950 . S
C254 C263 1.390 . S
C255 C254 1.387 . S
C255 C257 1.387 . S
H256 C263 0.950 . S
C257 C255 1.387 . S
C257 C259 1.390 . S
C257 H261 0.950 . S
H258 C254 0.950 . S
C259 C257 1.390 . S
C259 C260 1.387 . S
C259 H262 0.950 . S
C260 C259 1.387 . S
C260 C263 1.387 . S
H261 C257 0.950 . S
H262 C259 0.950 . S
C263 C254 1.390 . S
C263 H256 0.950 . S
C263 C260 1.387 . S
C264 C265 1.387 . S
C264 H268 0.950 1_554 S
C264 C273 1.390 1_655 S
C265 C264 1.387 . S
C265 C267 1.387 . S
H266 C273 0.950 1_556 S
C267 C265 1.387 . S
C267 C269 1.390 1_655 S
C267 H271 0.950 . S
H268 C264 0.950 1_556 S
C269 C267 1.390 1_455 S
C269 C270 1.387 . S
C269 H272 0.950 . S
C270 C269 1.387 . S
C270 C273 1.387 . S
H271 C267 0.950 . S
H272 C269 0.950 . S
C273 C264 1.390 1_455 S
C273 H266 0.950 1_554 S
C273 C270 1.387 . S
C274 C275 1.387 . S
C274 H278 0.950 . S
C274 C283 1.390 1_565 S
C275 C274 1.387 . S
C275 C277 1.387 . S
H276 C283 0.950 . S
C277 C275 1.387 . S
C277 C279 1.390 1_565 S
C277 H281 0.950 . S
H278 C274 0.950 . S
C279 C277 1.390 1_545 S
C279 C280 1.387 . S
C279 H282 0.950 . S
C280 C279 1.387 . S
C280 C283 1.387 . S
H281 C277 0.950 . S
H282 C279 0.950 . S
C283 C274 1.390 1_545 S
C283 H276 0.950 . S
C283 C280 1.387 . S
C284 C285 1.387 . S
C284 H288 0.950 . S
C284 C293 1.390 1_455 S
C285 C284 1.387 . S
C285 C287 1.387 . S
H286 C293 0.950 . S
C287 C285 1.387 . S
C287 C289 1.390 1_455 S
C287 H291 0.950 . S
H288 C284 0.950 . S
C289 C287 1.390 1_655 S
C289 C290 1.387 . S
C289 H292 0.950 . S
C290 C289 1.387 . S
C290 C293 1.387 . S
H291 C287 0.950 . S
H292 C289 0.950 . S
C293 C284 1.390 1_655 S
C293 H286 0.950 . S
C293 C290 1.387 . S
C294 C295 1.387 . S
C294 H298 0.950 . S
C294 C303 1.390 1_565 S
C295 C294 1.387 . S
C295 C297 1.387 1_556 S
H296 C303 0.950 . S
C297 C295 1.387 1_554 S
C297 C299 1.390 1_565 S
C297 H301 0.950 . S
H298 C294 0.950 . S
C299 C297 1.390 1_545 S
C299 C300 1.387 1_554 S
C299 H302 0.950 . S
C300 C299 1.387 1_556 S
C300 C303 1.387 . S
H301 C297 0.950 . S
H302 C299 0.950 . S
C303 C294 1.390 1_545 S
C303 H296 0.950 . S
C303 C300 1.387 . S
C304 C305 1.387 . S
C304 H308 0.950 . S
C304 C313 1.390 . S
C305 C304 1.387 . S
C305 C307 1.387 . S
H306 C313 0.950 . S
C307 C305 1.387 . S
C307 C309 1.390 . S
C307 H311 0.950 1_554 S
H308 C304 0.950 . S
C309 C307 1.390 . S
C309 C310 1.387 . S
C309 H312 0.950 . S
C310 C309 1.387 . S
C310 C313 1.387 . S
H311 C307 0.950 1_556 S
H312 C309 0.950 . S
C313 C304 1.390 . S
C313 H306 0.950 . S
C313 C310 1.387 . S
C314 C315 1.387 . S
C314 H318 0.950 . S
C314 C323 1.390 . S
C315 C314 1.387 . S
C315 C317 1.387 . S
H316 C323 0.950 . S
C317 C315 1.387 . S
C317 C319 1.390 . S
C317 H321 0.950 . S
H318 C314 0.950 . S
C319 C317 1.390 . S
C319 C320 1.387 . S
C319 H322 0.950 . S
C320 C319 1.387 . S
C320 C323 1.387 . S
H321 C317 0.950 . S
H322 C319 0.950 . S
C323 C314 1.390 . S
C323 H316 0.950 . S
C323 C320 1.387 . S
C324 C325 1.387 1_556 S
C324 H328 0.950 . S
C324 C333 1.390 . S
C325 C324 1.387 1_554 S
C325 C327 1.387 . S
H326 C333 0.950 . S
C327 C325 1.387 . S
C327 C329 1.390 . S
C327 H331 0.950 . S
H328 C324 0.950 . S
C329 C327 1.390 . S
C329 C330 1.387 . S
C329 H332 0.950 . S
C330 C329 1.387 . S
C330 C333 1.387 1_554 S
H331 C327 0.950 . S
H332 C329 0.950 . S
C333 C324 1.390 . S
C333 H326 0.950 . S
C333 C330 1.387 1_556 S
C334 C335 1.387 . S
C334 H338 0.950 . S
C334 C343 1.390 . S
C335 C334 1.387 . S
C335 C337 1.387 . S
H336 C343 0.950 . S
C337 C335 1.387 . S
C337 C339 1.390 . S
C337 H341 0.950 . S
H338 C334 0.950 . S
C339 C337 1.390 . S
C339 C340 1.387 . S
C339 H342 0.950 . S
C340 C339 1.387 . S
C340 C343 1.387 . S
H341 C337 0.950 . S
H342 C339 0.950 . S
C343 C334 1.390 . S
C343 H336 0.950 . S
C343 C340 1.387 . S
C185 N12 0.558 . S
C190 N104 0.558 . S
C195 C39 1.913 . S
C200 C131 1.913 . S
C205 N150 0.558 . S
C210 N58 0.558 . S
C215 C177 1.912 . S
C220 C85 1.912 . S
C225 N140 1.225 . S
C230 N48 1.225 . S
C235 C168 2.581 . S
C240 C76 2.581 . S
C245 N2 1.225 . S
C250 N94 1.225 . S
C255 C30 2.580 . S
C260 C122 2.580 . S
C265 C53 1.846 . S
C270 C7 1.846 . S
C275 N71 1.740 . S
C280 N25 1.740 . S
C285 C99 1.843 . S
C290 C145 1.843 . S
C295 N163 1.740 . S
C300 N117 1.740 . S
C305 C16 1.772 . S
C310 N127 1.740 . S
C315 C154 1.771 . S
C320 N35 1.738 . S
C325 C62 1.769 . S
C330 N173 1.738 . S
C335 N81 1.737 . S
C340 C108 1.771 . S
