# Generated by pormake.
# Topology sma, (6)-cn, num edge types: 1
# Building blocks:
#     Node 0, Type 0, BuildingBlock: BETGAK_clean_sbu_0, # of connection points: 6
#     Node 1, Type 0, BuildingBlock: BETGAK_clean_sbu_0, # of connection points: 6
#     Node 2, Type 0, BuildingBlock: BETGAK_clean_sbu_0, # of connection points: 6
#     Edge 3, Type (0, 0), BuildingBlock: XUDNAN_clean_linker_2, # of connection points: 2
#     Edge 4, Type (0, 0), BuildingBlock: XUDNAN_clean_linker_2, # of connection points: 2
#     Edge 5, Type (0, 0), BuildingBlock: XUDNAN_clean_linker_2, # of connection points: 2
#     Edge 6, Type (0, 0), BuildingBlock: XUDNAN_clean_linker_2, # of connection points: 2
#     Edge 7, Type (0, 0), BuildingBlock: XUDNAN_clean_linker_2, # of connection points: 2
#     Edge 8, Type (0, 0), BuildingBlock: XUDNAN_clean_linker_2, # of connection points: 2
#     Edge 9, Type (0, 0), BuildingBlock: XUDNAN_clean_linker_2, # of connection points: 2
#     Edge 10, Type (0, 0), BuildingBlock: XUDNAN_clean_linker_2, # of connection points: 2
#     Edge 11, Type (0, 0), BuildingBlock: XUDNAN_clean_linker_2, # of connection points: 2
# Relax obj value: 0.133
# Max RMSD: 0.255
# Mean RMSD: 0.203
data_MOF--net-sma--node1-BETGAK_clean_sbu_0--edge1-XUDNAN_clean_linker_2
_symmetry_space_group_name_H-M    P1
_symmetry_Int_Tables_number       1
_symmetry_cell_setting            triclinic
loop_
_symmetry_equiv_pos_as_xyz
'x, y, z'
_cell_length_a     40.028003
_cell_length_b     47.017443
_cell_length_c     13.958227
_cell_angle_alpha  93.075571
_cell_angle_beta   90.164292
_cell_angle_gamma 140.0258
loop_
_atom_site_label
_atom_site_type_symbol
_atom_site_fract_x
_atom_site_fract_y
_atom_site_fract_z
_atom_type_partial_charge
La0 La 0.16544 0.66492 0.14236 0.0
La1 La 1.10084 0.67517 0.19428 0.0
C2 C 0.22583 0.67046 0.05772 0.0
C3 C 0.24593 0.65428 0.04552 0.0
C4 C 0.25083 0.63925 0.12205 0.0
C5 C 0.27711 0.63038 0.11161 0.0
C6 C 0.2993 0.63668 0.02471 0.0
C7 C 0.29293 0.65056 0.94762 0.0
C8 C 0.26646 0.65916 0.95796 0.0
C9 C 0.15479 0.6675 0.32774 0.0
C10 C 0.21959 0.76178 0.17576 0.0
C11 C 1.03762 0.67153 0.25042 0.0
C12 C 1.01676 0.68503 0.21506 0.0
C13 C 1.03854 0.71247 0.13923 0.0
C14 C 1.01462 0.72081 0.09965 0.0
C15 C 0.96823 0.70166 0.13475 0.0
C16 C 0.9474 0.67504 0.21231 0.0
C17 C 0.97136 0.66679 0.25178 0.0
C18 C 0.11813 0.6788 0.01167 0.0
C19 C 1.05266 0.58012 0.19618 0.0
O20 O 0.23805 0.69235 0.1399 0.0
O21 O 0.17835 0.645 0.02355 0.0
O22 O 0.16175 0.64683 0.28786 0.0
O23 O 0.1589 0.68834 0.26617 0.0
O24 O 0.21672 0.73506 0.12581 0.0
O25 O 0.17895 0.74531 0.22057 0.0
O26 O 1.08687 0.70298 0.28139 0.0
O27 O 1.02411 0.64005 0.19615 0.0
O28 O 0.11275 0.69983 0.05547 0.0
O29 O 0.10939 0.65389 0.06768 0.0
O30 O 1.05245 0.60697 0.23058 0.0
O31 O 1.09149 0.59493 0.14773 0.0
H32 H 0.23576 0.63566 0.19064 0.0
H33 H 0.28157 0.62003 0.17269 0.0
H34 H 0.30874 0.65508 0.87934 0.0
H35 H 0.2634 0.671 0.89816 0.0
H36 H 1.07331 0.72658 0.1091 0.0
H37 H 1.03159 0.74113 0.03955 0.0
H38 H 0.91233 0.66033 0.24244 0.0
H39 H 0.95372 0.64532 0.30988 0.0
La40 La 0.67396 0.17013 0.37787 0.0
La41 La 0.61439 0.18461 0.32843 0.0
C42 C 0.70581 0.14826 0.46744 0.0
C43 C 0.6909 0.10852 0.47984 0.0
C44 C 0.68367 0.08395 0.40106 0.0
C45 C 0.67407 1.04893 0.41539 0.0
C46 C 0.67117 1.0374 0.50878 0.0
C47 C 0.67718 1.06145 0.58725 0.0
C48 C 0.68709 0.09662 0.57288 0.0
C49 C 0.67085 0.17806 0.196 0.0
C50 C 0.55064 0.08576 0.32023 0.0
C51 C 0.57931 0.2093 0.278 0.0
C52 C 0.56924 0.22955 0.33421 0.0
C53 C 0.55004 0.21638 0.42592 0.0
C54 C 0.54117 0.23585 0.47959 0.0
C55 C 0.55141 0.26915 0.44323 0.0
C56 C 0.57146 0.28287 0.35196 0.0
C57 C 0.58018 0.26315 0.29792 0.0
C58 C 0.62922 0.18462 0.51351 0.0
C59 C 0.73948 0.2664 0.34149 0.0
O60 O 0.72088 0.16434 0.38327 0.0
O61 O 0.67632 0.14895 0.5043 0.0
O62 O 0.7075 0.18772 0.24016 0.0
O63 O 0.63411 0.15915 0.2499 0.0
O64 O 0.59254 0.10194 0.36459 0.0
O65 O 0.55219 0.11263 0.2866 0.0
O66 O 0.54994 0.16836 0.29301 0.0
O67 O 0.62812 0.23379 0.27459 0.0
O68 O 0.58847 0.17038 0.4769 0.0
O69 O 0.65993 0.20056 0.44938 0.0
O70 O 0.69592 0.24861 0.30078 0.0
O71 O 0.73838 0.24258 0.392 0.0
H72 H 0.68646 0.09228 0.32832 0.0
H73 H 0.67037 1.03173 0.3531 0.0
H74 H 0.67431 1.05318 0.66007 0.0
H75 H 0.69255 0.11504 0.63488 0.0
H76 H 0.54183 0.19096 0.45648 0.0
H77 H 0.52665 0.22502 0.55024 0.0
H78 H 0.57953 0.30826 0.32163 0.0
H79 H 0.59539 0.2741 0.22769 0.0
La80 La 0.66941 0.71251 0.88664 0.0
La81 La 0.59854 0.61555 0.90783 0.0
C82 C 0.7109 0.78436 0.83354 0.0
C83 C 0.69568 0.80142 0.7882 0.0
C84 C 0.68364 0.81796 0.84536 0.0
C85 C 0.67368 0.83756 0.80394 0.0
C86 C 0.67536 0.84106 0.70425 0.0
C87 C 0.6866 0.82395 0.64681 0.0
C88 C 0.69714 0.80477 0.68841 0.0
C89 C 0.66745 0.69418 0.06259 0.0
C90 C 0.54915 0.64318 0.92109 0.0
C91 C 0.55546 0.54181 0.948 0.0
C92 C 0.55096 0.50973 0.90155 0.0
C93 C 0.50181 0.46749 0.86524 0.0
C94 C 0.49633 0.4369 0.81868 0.0
C95 C 0.53984 0.4475 0.80792 0.0
C96 C 0.58917 0.48988 0.84441 0.0
C97 C 0.59469 0.52066 0.89069 0.0
C98 C 0.60181 0.63474 0.73272 0.0
C99 C 0.72234 0.68728 0.902 0.0
O100 O 0.6966 0.77186 0.92055 0.0
O101 O 0.70667 0.75777 0.78027 0.0
O102 O 0.70731 0.73185 0.02813 0.0
O103 O 0.62928 0.66975 0.00138 0.0
O104 O 0.58951 0.67822 0.87553 0.0
O105 O 0.5496 0.61814 0.95833 0.0
O106 O 0.53137 0.54613 0.90108 0.0
O107 O 0.6014 0.5802 -0.01466 0.0
O108 O 0.56285 0.59575 0.76161 0.0
O109 O 0.63906 0.65855 0.79505 0.0
O110 O 0.67592 0.64678 0.91806 0.0
O111 O 0.72905 0.71834 0.87849 0.0
H112 H 0.6828 0.81651 0.92261 0.0
H113 H 0.6647 0.85005 0.8501 0.0
H114 H 0.68883 0.8266 0.56993 0.0
H115 H 0.70751 0.7934 0.64257 0.0
H116 H 0.46747 0.45819 0.87217 0.0
H117 H 0.45785 0.405 0.79011 0.0
H118 H 0.62348 0.49909 0.83853 0.0
H119 H 0.63319 0.55293 0.9178 0.0
H120 H 0.39194 0.68827 0.93863 0.0
H121 H 0.27551 0.56895 0.08899 0.0
H122 H 0.32585 0.55722 0.07509 0.0
H123 H 0.41899 0.64688 0.77085 0.0
H124 H 0.48785 0.69932 0.77407 0.0
H125 H 0.4424 0.69817 0.79431 0.0
H126 H 0.49245 0.74485 0.95737 0.0
H127 H 0.53799 0.74612 0.9374 0.0
H128 H 0.50328 0.72549 0.04545 0.0
H129 H 0.38852 0.55841 0.04616 0.0
H130 H 0.46054 0.57321 0.00815 0.0
H131 H 0.53743 0.692 0.87572 0.0
C132 C 0.37672 0.65939 -0.03228 0.0
C133 C 0.32956 0.62945 0.01489 0.0
C134 C 0.31164 0.59256 0.05345 0.0
C135 C 0.33984 0.58548 0.04538 0.0
C136 C 0.38605 0.6156 -0.00134 0.0
C137 C 0.40454 0.6519 0.96062 0.0
C138 C 0.45599 0.6797 0.91574 0.0
C139 C 0.45098 0.68108 0.8073 0.0
C140 C 0.50002 0.72682 -0.03292 0.0
C141 C 0.46352 0.65334 0.93469 0.0
C142 C 0.42256 0.61643 -0.01767 0.0
C143 C 0.42076 0.58717 0.00876 0.0
C144 C 0.46201 0.59594 -0.01328 0.0
C145 C 0.50485 0.63378 0.93877 0.0
C146 C 0.50525 0.66267 0.91196 0.0
H147 H 0.76337 0.33759 0.29853 0.0
H148 H 0.83313 0.30056 0.34612 0.0
H149 H 0.91901 0.37566 0.31375 0.0
H150 H 0.84234 0.40867 0.10837 0.0
H151 H 0.84897 0.44992 0.14932 0.0
H152 H 0.79216 0.39293 0.1749 0.0
H153 H 0.81031 0.41764 0.3567 0.0
H154 H 0.86711 0.47473 0.33169 0.0
H155 H 0.87299 0.45046 0.41462 0.0
H156 H 0.99673 0.45316 0.26809 0.0
H157 H 1.06334 0.53073 0.22664 0.0
H158 H 0.94756 0.52231 0.22022 0.0
C159 C 0.79679 0.3454 0.30228 0.0
C160 C 0.79122 0.31287 0.32497 0.0
C161 C 0.83613 0.32469 0.32969 0.0
C162 C 0.88522 0.36734 0.31093 0.0
C163 C 0.88946 0.39853 0.28881 0.0
C164 C 0.84672 0.38848 0.2857 0.0
C165 C 0.86291 0.42902 0.2629 0.0
C166 C 0.83492 0.41956 0.16824 0.0
C167 C 0.85272 0.44383 0.34646 0.0
C168 C 0.92118 0.4631 0.25273 0.0
C169 C 0.93529 0.44441 0.26698 0.0
C170 C 0.98622 0.46826 0.25768 0.0
C171 C 1.02382 0.51236 0.23364 0.0
C172 C 1.01098 0.53289 0.22045 0.0
C173 C 0.95881 0.50779 0.23078 0.0
H174 H 0.71452 1.03401 0.65512 0.0
H175 H 0.60958 0.95844 0.39751 0.0
H176 H 0.59915 0.90027 0.41922 0.0
H177 H 0.77772 1.00849 0.6221 0.0
H178 H 0.78198 1.00396 0.74784 0.0
H179 H 0.78106 1.03963 0.71239 0.0
H180 H 0.70145 0.99821 0.81266 0.0
H181 H 0.70222 0.96249 0.84871 0.0
H182 H 0.64379 0.93873 0.79135 0.0
H183 H 0.60208 0.8509 0.46681 0.0
H184 H 0.61571 0.81336 0.54002 0.0
H185 H 0.71583 0.91968 0.76957 0.0
C186 C 0.68868 1.00499 0.60385 0.0
C187 C 0.66309 1.0012 0.52418 0.0
C188 C 0.63043 0.96278 0.4582 0.0
C189 C 0.62393 0.9293 0.47027 0.0
C190 C 0.65 0.93435 0.54912 0.0
C191 C 0.68145 0.9711 0.61515 0.0
C192 C 0.7052 0.96856 0.69364 0.0
C193 C 0.76504 1.00747 0.69396 0.0
C194 C 0.68707 0.96689 0.79243 0.0
C195 C 0.68241 0.92473 0.66127 0.0
C196 C 0.65081 0.90557 0.57753 0.0
C197 C 0.62654 0.86553 0.53265 0.0
C198 C 0.6347 0.84455 0.57448 0.0
C199 C 0.66661 0.8634 0.66075 0.0
C200 C 0.69058 0.90403 0.70444 0.0
H201 H 0.72139 0.63192 0.95945 0.0
H202 H 0.82704 0.76722 0.88747 0.0
H203 H 0.90209 0.7854 0.93276 0.0
H204 H 0.79382 0.65859 0.16572 0.0
H205 H 0.77843 0.61119 0.1466 0.0
H206 H 0.73364 0.60817 0.10071 0.0
H207 H 0.73583 0.58603 0.92912 0.0
H208 H 0.78027 0.5885 -0.0256 0.0
H209 H 0.79757 0.62085 0.87713 0.0
H210 H 0.9659 0.78917 -0.00404 0.0
H211 H 1.01161 0.77825 0.06861 0.0
H212 H 0.86262 0.64026 0.09827 0.0
C213 C 0.76016 0.66528 0.95137 0.0
C214 C 0.76805 0.69805 0.91901 0.0
C215 C 0.81977 0.74139 0.91124 0.0
C216 C 0.86268 0.75203 0.93706 0.0
C217 C 0.85327 0.71898 -0.02957 0.0
C218 C 0.80312 0.67641 -0.02296 0.0
C219 C 0.80292 0.64718 0.01872 0.0
C220 C 0.77559 0.63031 0.11356 0.0
C221 C 0.77766 0.60835 0.94546 0.0
C222 C 0.86089 0.68001 0.03588 0.0
C223 C 0.88944 0.72121 0.00716 0.0
C224 C 0.9438 0.75692 0.01792 0.0
C225 C 0.96947 0.75034 0.05902 0.0
C226 C 0.94091 0.70841 0.08959 0.0
C227 C 0.88582 0.67291 0.07704 0.0
H228 H 0.44421 1.02961 0.29557 0.0
H229 H 0.55339 1.03038 0.28991 0.0
H230 H 0.48107 0.94971 0.24973 0.0
H231 H 0.34366 0.9254 0.40795 0.0
H232 H 0.28972 0.90602 0.3409 0.0
H233 H 0.34996 0.96479 0.36529 0.0
H234 H 0.35546 0.97461 0.18321 0.0
H235 H 0.29525 0.91585 0.15828 0.0
H236 H 0.353 0.94201 0.1012 0.0
H237 H 0.39991 0.87067 0.20589 0.0
H238 H 0.31141 0.7941 0.17386 0.0
H239 H 0.24834 0.83805 0.21782 0.0
C240 C 0.45268 1.01267 0.28533 0.0
C241 C 0.50484 1.03666 0.29569 0.0
C242 C 0.51411 1.01308 0.28292 0.0
C243 C 0.47318 0.9671 0.25959 0.0
C244 C 0.42253 0.94444 0.25031 0.0
C245 C 0.41165 0.96598 0.26378 0.0
C246 C 0.35275 0.93233 0.25318 0.0
C247 C 0.33285 0.93213 0.34746 0.0
C248 C 0.33827 0.94177 0.16895 0.0
C249 C 0.33272 0.88884 0.23141 0.0
C250 C 0.37419 0.89725 0.22901 0.0
C251 C 0.36705 0.86358 0.20795 0.0
C252 C 0.3163 0.82 0.18925 0.0
C253 C 0.27243 0.80962 0.19278 0.0
C254 C 0.28088 0.84473 0.21478 0.0
H255 H 0.60469 0.46124 0.68454 0.0
H256 H 0.46005 0.35768 0.82371 0.0
H257 H 0.44662 0.30154 0.74197 0.0
H258 H 0.56251 0.39831 0.45787 0.0
H259 H 0.62384 0.42077 0.4416 0.0
H260 H 0.62235 0.45337 0.50991 0.0
H261 H 0.67126 0.46276 0.65541 0.0
H262 H 0.6732 0.43043 0.58735 0.0
H263 H 0.64513 0.41413 0.70235 0.0
H264 H 0.44817 0.2563 0.64594 0.0
H265 H 0.46605 0.22494 0.54501 0.0
H266 H 0.61106 0.35726 0.47075 0.0
C267 C 0.57039 0.42682 0.69854 0.0
C268 C 0.53317 0.41403 0.76016 0.0
C269 C 0.48864 0.36844 0.7755 0.0
C270 C 0.48077 0.33622 0.72978 0.0
C271 C 0.51785 0.3499 0.66903 0.0
C272 C 0.56194 0.39408 0.65358 0.0
C273 C 0.59596 0.39972 0.58553 0.0
C274 C 0.60147 0.41919 0.49326 0.0
C275 C 0.64956 0.42846 0.63567 0.0
C276 C 0.564 0.35179 0.56521 0.0
C277 C 0.51907 0.32368 0.61416 0.0
C278 C 0.48336 0.27799 0.60764 0.0
C279 C 0.49402 0.26051 0.55043 0.0
C280 C 0.54014 0.28856 0.50033 0.0
C281 C 0.57529 0.33485 0.50741 0.0
H282 H 1.10734 0.62496 0.88379 0.0
H283 H 0.17002 0.75173 0.92208 0.0
H284 H 0.19438 0.7652 0.75481 0.0
H285 H 0.20487 0.66093 0.71194 0.0
H286 H 0.15642 0.60812 0.64108 0.0
H287 H 0.15072 0.61091 0.76845 0.0
H288 H 1.05809 0.5708 0.73384 0.0
H289 H 1.06369 0.56835 0.6066 0.0
H290 H 1.0491 0.594 0.65518 0.0
H291 H 0.2006 0.76121 0.58337 0.0
H292 H 0.193 0.74172 0.41164 0.0
H293 H 0.12829 0.61799 0.47653 0.0
C294 C 0.12749 0.65597 0.85716 0.0
C295 C 0.13705 0.68743 0.91518 0.0
C296 C 0.16234 0.72725 0.87826 0.0
C297 C 0.17657 0.73533 0.78362 0.0
C298 C 0.16536 0.70328 0.727 0.0
C299 C 0.14185 0.66453 0.76189 0.0
C300 C 0.13055 0.63425 0.68231 0.0
C301 C 0.16255 0.6282 0.70212 0.0
C302 C 1.07187 0.58919 0.66871 0.0
C303 C 0.14933 0.66133 0.59699 0.0
C304 C 0.16972 0.7012 0.62541 0.0
C305 C 0.18576 0.73057 0.5601 0.0
C306 C 0.18086 0.71899 0.46265 0.0
C307 C 0.16036 0.67852 0.43137 0.0
C308 C 0.1449 0.64947 0.49927 0.0
H309 H 0.59107 0.14357 0.07121 0.0
H310 H 0.75773 0.23688 0.10043 0.0
H311 H 0.76497 0.25262 0.93181 0.0
H312 H 0.56998 0.09704 0.84061 0.0
H313 H 0.52216 0.09078 0.79596 0.0
H314 H 0.52996 0.09031 0.92271 0.0
H315 H 0.54611 0.15486 0.95912 0.0
H316 H 0.53797 0.15534 0.83232 0.0
H317 H 0.59661 0.20546 0.901 0.0
H318 H 0.75426 0.25265 0.76089 0.0
H319 H 0.72639 0.23946 0.59103 0.0
H320 H 0.56631 0.14677 0.6657 0.0
C321 C 0.62905 0.16787 0.04206 0.0
C322 C 0.67386 0.18899 0.09787 0.0
C323 C 0.72296 0.2202 0.05809 0.0
C324 C 0.72754 0.22955 0.96272 0.0
C325 C 0.68264 0.20745 0.90846 0.0
C326 C 0.63432 0.17747 0.94613 0.0
C327 C 0.59207 0.15634 0.86913 0.0
C328 C 0.55114 0.10562 0.85638 0.0
C329 C 0.5667 0.16875 0.89175 0.0
C330 C 0.62423 0.17824 0.78222 0.0
C331 C 0.67639 0.20782 0.80745 0.0
C332 C 0.71372 0.23021 0.74009 0.0
C333 C 0.69742 0.22228 0.64381 0.0
C334 C 0.64433 0.19233 0.61591 0.0
C335 C 0.60722 0.17024 0.68585 0.0
H336 H 0.58652 0.59203 0.56707 0.0
H337 H 0.62356 0.70183 0.68057 0.0
H338 H 0.64391 0.72887 0.51861 0.0
H339 H 0.68287 0.64768 0.40428 0.0
H340 H 0.64329 0.60335 0.30909 0.0
H341 H 0.62823 0.59068 0.43227 0.0
H342 H 0.53431 0.54728 0.39192 0.0
H343 H 0.54882 0.55921 0.26812 0.0
H344 H 0.52473 0.57419 0.33406 0.0
H345 H 0.67133 0.74907 0.3531 0.0
H346 H 0.69005 0.75484 0.18207 0.0
H347 H 0.62709 0.62801 0.17072 0.0
C348 C 0.59816 0.62135 0.5569 0.0
C349 C 0.60597 0.64636 0.63543 0.0
C350 C 0.62056 0.68415 0.6211 0.0
C351 C 0.63134 0.69921 0.52963 0.0
C352 C 0.62606 0.67526 0.45394 0.0
C353 C 0.60847 0.63649 0.46572 0.0
C354 C 0.60655 0.61736 0.3721 0.0
C355 C 0.64238 0.61463 0.37997 0.0
C356 C 0.55024 0.57181 0.33964 0.0
C357 C 0.62736 0.65224 0.30683 0.0
C358 C 0.63866 0.68545 0.35588 0.0
C359 C 0.66176 0.72293 0.31317 0.0
C360 C 0.67273 0.72615 0.21681 0.0
C361 C 0.65992 0.69183 0.16489 0.0
C362 C 0.63685 0.6544 0.20983 0.0
loop_
_geom_bond_atom_site_label_1
_geom_bond_atom_site_label_2
_geom_bond_distance
_geom_bond_site_symmetry_2
_ccdc_geom_bond_type
La0 C2 2.928 . S
La0 O20 2.521 . S
La0 O21 2.628 . S
La0 O22 2.554 . S
La0 O23 2.757 . S
La0 O24 2.470 . S
La0 O29 2.482 . S
La0 O31 2.503 1_455 S
La1 C11 2.928 . S
La1 O23 2.482 1_655 S
La1 O25 2.503 1_655 S
La1 O26 2.521 . S
La1 O27 2.628 . S
La1 O28 2.554 1_554 S
La1 O29 2.757 1_655 S
La1 O30 2.470 . S
C2 La0 2.928 . S
C2 C3 1.503 . S
C2 O20 1.261 . S
C2 O21 1.243 . S
C3 C2 1.503 . S
C3 C4 1.394 . S
C3 C8 1.373 . S
C4 C3 1.394 . S
C4 C5 1.380 . S
C4 H32 0.930 . S
C5 C4 1.380 . S
C5 C6 1.376 . S
C5 H33 0.930 . S
C6 C5 1.376 . S
C6 C7 1.370 . S
C7 C6 1.370 . S
C7 C8 1.396 . S
C7 H34 0.929 . S
C8 C3 1.373 . S
C8 C7 1.396 . S
C8 H35 0.929 . S
C9 O22 1.240 . S
C9 O23 1.289 . S
C10 O24 1.258 . S
C10 O25 1.256 . S
C11 La1 2.928 . S
C11 C12 1.503 . S
C11 O26 1.261 . S
C11 O27 1.243 . S
C12 C11 1.503 . S
C12 C13 1.394 . S
C12 C17 1.373 . S
C13 C12 1.394 . S
C13 C14 1.380 . S
C13 H36 0.930 . S
C14 C13 1.380 . S
C14 C15 1.376 . S
C14 H37 0.930 . S
C15 C14 1.376 . S
C15 C16 1.370 . S
C16 C15 1.370 . S
C16 C17 1.396 . S
C16 H38 0.929 . S
C17 C12 1.373 . S
C17 C16 1.396 . S
C17 H39 0.929 . S
C18 O28 1.240 1_455 S
C18 O29 1.289 1_556 S
C19 O30 1.258 . S
C19 O31 1.256 . S
O20 La0 2.521 . S
O20 C2 1.261 . S
O21 La0 2.628 . S
O21 C2 1.243 . S
O22 La0 2.554 . S
O22 C9 1.240 . S
O23 La0 2.757 . S
O23 La1 2.482 1_455 S
O23 C9 1.289 . S
O24 La0 2.470 . S
O24 C10 1.258 . S
O25 La1 2.503 1_455 S
O25 C10 1.256 . S
O26 La1 2.521 . S
O26 C11 1.261 . S
O27 La1 2.628 . S
O27 C11 1.243 . S
O28 La1 2.554 1_556 S
O28 C18 1.240 1_655 S
O29 La0 2.482 . S
O29 La1 2.757 1_455 S
O29 C18 1.289 1_554 S
O30 La1 2.470 . S
O30 C19 1.258 . S
O31 La0 2.503 1_655 S
O31 C19 1.256 . S
H32 C4 0.930 . S
H33 C5 0.930 . S
H34 C7 0.929 . S
H35 C8 0.929 . S
H36 C13 0.930 . S
H37 C14 0.930 . S
H38 C16 0.929 . S
H39 C17 0.929 . S
La40 C42 2.928 . S
La40 O60 2.521 . S
La40 O61 2.628 . S
La40 O62 2.554 . S
La40 O63 2.757 . S
La40 O64 2.470 . S
La40 O69 2.482 . S
La40 O71 2.503 . S
La41 C51 2.928 . S
La41 O63 2.482 . S
La41 O65 2.503 . S
La41 O66 2.521 . S
La41 O67 2.628 . S
La41 O68 2.554 . S
La41 O69 2.757 . S
La41 O70 2.470 . S
C42 La40 2.928 . S
C42 C43 1.503 1_545 S
C42 O60 1.261 . S
C42 O61 1.243 . S
C43 C42 1.503 1_565 S
C43 C44 1.394 . S
C43 C48 1.373 . S
C44 C43 1.394 . S
C44 C45 1.380 . S
C44 H72 0.930 . S
C45 C44 1.380 . S
C45 C46 1.376 . S
C45 H73 0.930 . S
C46 C45 1.376 . S
C46 C47 1.370 . S
C47 C46 1.370 . S
C47 C48 1.396 . S
C47 H74 0.929 . S
C48 C43 1.373 . S
C48 C47 1.396 . S
C48 H75 0.929 . S
C49 O62 1.240 . S
C49 O63 1.289 . S
C50 O64 1.258 . S
C50 O65 1.256 . S
C51 La41 2.928 . S
C51 C52 1.503 . S
C51 O66 1.261 . S
C51 O67 1.243 . S
C52 C51 1.503 . S
C52 C53 1.394 . S
C52 C57 1.373 . S
C53 C52 1.394 . S
C53 C54 1.380 . S
C53 H76 0.930 . S
C54 C53 1.380 . S
C54 C55 1.376 . S
C54 H77 0.930 . S
C55 C54 1.376 . S
C55 C56 1.370 . S
C56 C55 1.370 . S
C56 C57 1.396 . S
C56 H78 0.929 . S
C57 C52 1.373 . S
C57 C56 1.396 . S
C57 H79 0.929 . S
C58 O68 1.240 . S
C58 O69 1.289 . S
C59 O70 1.258 . S
C59 O71 1.256 . S
O60 La40 2.521 . S
O60 C42 1.261 . S
O61 La40 2.628 . S
O61 C42 1.243 . S
O62 La40 2.554 . S
O62 C49 1.240 . S
O63 La40 2.757 . S
O63 La41 2.482 . S
O63 C49 1.289 . S
O64 La40 2.470 . S
O64 C50 1.258 . S
O65 La41 2.503 . S
O65 C50 1.256 . S
O66 La41 2.521 . S
O66 C51 1.261 . S
O67 La41 2.628 . S
O67 C51 1.243 . S
O68 La41 2.554 . S
O68 C58 1.240 . S
O69 La40 2.482 . S
O69 La41 2.757 . S
O69 C58 1.289 . S
O70 La41 2.470 . S
O70 C59 1.258 . S
O71 La40 2.503 . S
O71 C59 1.256 . S
H72 C44 0.930 . S
H73 C45 0.930 . S
H74 C47 0.929 . S
H75 C48 0.929 . S
H76 C53 0.930 . S
H77 C54 0.930 . S
H78 C56 0.929 . S
H79 C57 0.929 . S
La80 C82 2.928 . S
La80 O100 2.521 . S
La80 O101 2.628 . S
La80 O102 2.554 1_556 S
La80 O103 2.757 . S
La80 O104 2.470 . S
La80 O109 2.482 . S
La80 O111 2.503 . S
La81 C91 2.928 . S
La81 O103 2.482 . S
La81 O105 2.503 . S
La81 O106 2.521 . S
La81 O107 2.628 . S
La81 O108 2.554 . S
La81 O109 2.757 . S
La81 O110 2.470 . S
C82 La80 2.928 . S
C82 C83 1.503 . S
C82 O100 1.261 . S
C82 O101 1.243 . S
C83 C82 1.503 . S
C83 C84 1.394 . S
C83 C88 1.373 . S
C84 C83 1.394 . S
C84 C85 1.380 . S
C84 H112 0.933 . S
C85 C84 1.380 . S
C85 C86 1.376 . S
C85 H113 0.930 . S
C86 C85 1.376 . S
C86 C87 1.370 . S
C87 C86 1.370 . S
C87 C88 1.396 . S
C87 H114 0.929 . S
C88 C83 1.373 . S
C88 C87 1.396 . S
C88 H115 0.929 . S
C89 O102 1.240 . S
C89 O103 1.289 1_554 S
C90 O104 1.258 . S
C90 O105 1.256 . S
C91 La81 2.928 . S
C91 C92 1.503 . S
C91 O106 1.261 . S
C91 O107 1.243 . S
C92 C91 1.503 . S
C92 C93 1.394 . S
C92 C97 1.373 . S
C93 C92 1.394 . S
C93 C94 1.380 . S
C93 H116 0.930 . S
C94 C93 1.380 . S
C94 C95 1.376 . S
C94 H117 0.930 . S
C95 C94 1.376 . S
C95 C96 1.370 . S
C96 C95 1.370 . S
C96 C97 1.396 . S
C96 H118 0.929 . S
C97 C92 1.373 . S
C97 C96 1.396 . S
C97 H119 0.929 . S
C98 O108 1.240 . S
C98 O109 1.289 . S
C99 O110 1.258 . S
C99 O111 1.256 . S
O100 La80 2.521 . S
O100 C82 1.261 . S
O101 La80 2.628 . S
O101 C82 1.243 . S
O102 La80 2.554 1_554 S
O102 C89 1.240 . S
O103 La80 2.757 . S
O103 La81 2.482 . S
O103 C89 1.289 1_556 S
O104 La80 2.470 . S
O104 C90 1.258 . S
O105 La81 2.503 . S
O105 C90 1.256 . S
O106 La81 2.521 . S
O106 C91 1.261 . S
O107 La81 2.628 . S
O107 C91 1.243 . S
O108 La81 2.554 . S
O108 C98 1.240 . S
O109 La80 2.482 . S
O109 La81 2.757 . S
O109 C98 1.289 . S
O110 La81 2.470 . S
O110 C99 1.258 . S
O111 La80 2.503 . S
O111 C99 1.256 . S
H112 C84 0.933 . S
H113 C85 0.930 . S
H114 C87 0.929 . S
H115 C88 0.929 . S
H116 C93 0.930 . S
H117 C94 0.930 . S
H118 C96 0.929 . S
H119 C97 0.929 . S
H120 C132 0.930 . S
H121 C134 0.930 . S
H122 C135 0.930 . S
H123 C139 0.959 . S
H124 C139 0.959 . S
H125 C139 0.961 . S
H126 C140 0.960 . S
H127 C140 0.961 . S
H128 C140 0.959 . S
H129 C143 0.929 . S
H130 C144 0.931 . S
H131 C146 0.930 . S
C132 H120 0.930 . S
C132 C133 1.399 . S
C132 C137 1.399 . S
C133 C132 1.399 . S
C133 C134 1.376 . S
C134 H121 0.930 . S
C134 C133 1.376 . S
C134 C135 1.388 . S
C135 H122 0.930 . S
C135 C134 1.388 . S
C135 C136 1.390 . S
C136 C135 1.390 . S
C136 C137 1.394 . S
C136 C142 1.465 1_554 S
C137 C132 1.399 . S
C137 C136 1.394 . S
C137 C138 1.516 . S
C138 C137 1.516 . S
C138 C139 1.502 1_554 S
C138 C140 1.561 . S
C138 C141 1.526 1_554 S
C139 H123 0.959 . S
C139 H124 0.959 . S
C139 H125 0.961 . S
C139 C138 1.502 1_556 S
C140 H126 0.960 . S
C140 H127 0.961 . S
C140 H128 0.959 . S
C140 C138 1.561 . S
C141 C138 1.526 1_556 S
C141 C142 1.396 . S
C141 C146 1.390 . S
C142 C136 1.465 1_556 S
C142 C141 1.396 . S
C142 C143 1.399 . S
C143 H129 0.929 . S
C143 C142 1.399 . S
C143 C144 1.385 . S
C144 H130 0.931 . S
C144 C143 1.385 . S
C144 C145 1.389 . S
C145 C144 1.389 . S
C145 C146 1.387 . S
C146 H131 0.930 . S
C146 C141 1.390 . S
C146 C145 1.387 . S
H147 C159 0.930 . S
H148 C161 0.930 . S
H149 C162 0.930 . S
H150 C166 0.959 . S
H151 C166 0.959 . S
H152 C166 0.961 . S
H153 C167 0.960 . S
H154 C167 0.961 . S
H155 C167 0.959 . S
H156 C170 0.929 . S
H157 C171 0.931 . S
H158 C173 0.930 . S
C159 H147 0.930 . S
C159 C160 1.399 . S
C159 C164 1.399 . S
C160 C159 1.399 . S
C160 C161 1.376 . S
C161 H148 0.930 . S
C161 C160 1.376 . S
C161 C162 1.388 . S
C162 H149 0.930 . S
C162 C161 1.388 . S
C162 C163 1.390 . S
C163 C162 1.390 . S
C163 C164 1.394 . S
C163 C169 1.465 . S
C164 C159 1.399 . S
C164 C163 1.394 . S
C164 C165 1.516 . S
C165 C164 1.516 . S
C165 C166 1.502 . S
C165 C167 1.561 . S
C165 C168 1.526 . S
C166 H150 0.959 . S
C166 H151 0.959 . S
C166 H152 0.961 . S
C166 C165 1.502 . S
C167 H153 0.960 . S
C167 H154 0.961 . S
C167 H155 0.959 . S
C167 C165 1.561 . S
C168 C165 1.526 . S
C168 C169 1.396 . S
C168 C173 1.390 . S
C169 C163 1.465 . S
C169 C168 1.396 . S
C169 C170 1.399 . S
C170 H156 0.929 . S
C170 C169 1.399 . S
C170 C171 1.385 . S
C171 H157 0.931 . S
C171 C170 1.385 . S
C171 C172 1.389 . S
C172 C171 1.389 . S
C172 C173 1.387 . S
C173 H158 0.930 . S
C173 C168 1.390 . S
C173 C172 1.387 . S
H174 C186 0.930 . S
H175 C188 0.930 . S
H176 C189 0.930 . S
H177 C193 0.959 . S
H178 C193 0.959 . S
H179 C193 0.961 . S
H180 C194 0.960 . S
H181 C194 0.961 . S
H182 C194 0.959 . S
H183 C197 0.929 . S
H184 C198 0.931 . S
H185 C200 0.930 . S
C186 H174 0.930 . S
C186 C187 1.399 . S
C186 C191 1.399 . S
C187 C186 1.399 . S
C187 C188 1.376 . S
C188 H175 0.930 . S
C188 C187 1.376 . S
C188 C189 1.388 . S
C189 H176 0.930 . S
C189 C188 1.388 . S
C189 C190 1.390 . S
C190 C189 1.390 . S
C190 C191 1.394 . S
C190 C196 1.465 . S
C191 C186 1.399 . S
C191 C190 1.394 . S
C191 C192 1.516 . S
C192 C191 1.516 . S
C192 C193 1.502 . S
C192 C194 1.561 . S
C192 C195 1.526 . S
C193 H177 0.959 . S
C193 H178 0.959 . S
C193 H179 0.961 . S
C193 C192 1.502 . S
C194 H180 0.960 . S
C194 H181 0.961 . S
C194 H182 0.959 . S
C194 C192 1.561 . S
C195 C192 1.526 . S
C195 C196 1.396 . S
C195 C200 1.390 . S
C196 C190 1.465 . S
C196 C195 1.396 . S
C196 C197 1.399 . S
C197 H183 0.929 . S
C197 C196 1.399 . S
C197 C198 1.385 . S
C198 H184 0.931 . S
C198 C197 1.385 . S
C198 C199 1.389 . S
C199 C198 1.389 . S
C199 C200 1.387 . S
C200 H185 0.930 . S
C200 C195 1.390 . S
C200 C199 1.387 . S
H201 C213 0.930 1_554 S
H202 C215 0.930 . S
H203 C216 0.930 . S
H204 C220 0.959 . S
H205 C220 0.959 . S
H206 C220 0.961 . S
H207 C221 0.960 . S
H208 C221 0.961 . S
H209 C221 0.959 1_556 S
H210 C224 0.929 1_556 S
H211 C225 0.931 . S
H212 C227 0.930 . S
C213 H201 0.930 1_556 S
C213 C214 1.399 . S
C213 C218 1.399 1_556 S
C214 C213 1.399 . S
C214 C215 1.376 . S
C215 H202 0.930 . S
C215 C214 1.376 . S
C215 C216 1.388 . S
C216 H203 0.930 . S
C216 C215 1.388 . S
C216 C217 1.390 . S
C217 C216 1.390 . S
C217 C218 1.394 1_556 S
C217 C223 1.465 1_556 S
C218 C213 1.399 1_554 S
C218 C217 1.394 1_554 S
C218 C219 1.516 . S
C219 C218 1.516 . S
C219 C220 1.502 . S
C219 C221 1.561 . S
C219 C222 1.526 . S
C220 H204 0.959 . S
C220 H205 0.959 . S
C220 H206 0.961 . S
C220 C219 1.502 . S
C221 H207 0.960 . S
C221 H208 0.961 . S
C221 H209 0.959 1_554 S
C221 C219 1.561 . S
C222 C219 1.526 . S
C222 C223 1.396 . S
C222 C227 1.390 . S
C223 C217 1.465 1_554 S
C223 C222 1.396 . S
C223 C224 1.399 . S
C224 H210 0.929 1_554 S
C224 C223 1.399 . S
C224 C225 1.385 . S
C225 H211 0.931 . S
C225 C224 1.385 . S
C225 C226 1.389 . S
C226 C225 1.389 . S
C226 C227 1.387 . S
C227 H212 0.930 . S
C227 C222 1.390 . S
C227 C226 1.387 . S
H228 C240 0.930 . S
H229 C242 0.930 . S
H230 C243 0.930 . S
H231 C247 0.959 . S
H232 C247 0.959 . S
H233 C247 0.961 . S
H234 C248 0.960 . S
H235 C248 0.961 . S
H236 C248 0.959 . S
H237 C251 0.929 . S
H238 C252 0.931 . S
H239 C254 0.930 . S
C240 H228 0.930 . S
C240 C241 1.399 . S
C240 C245 1.399 . S
C241 C240 1.399 . S
C241 C242 1.376 . S
C242 H229 0.930 . S
C242 C241 1.376 . S
C242 C243 1.388 . S
C243 H230 0.930 . S
C243 C242 1.388 . S
C243 C244 1.390 . S
C244 C243 1.390 . S
C244 C245 1.394 . S
C244 C250 1.465 . S
C245 C240 1.399 . S
C245 C244 1.394 . S
C245 C246 1.516 . S
C246 C245 1.516 . S
C246 C247 1.502 . S
C246 C248 1.561 . S
C246 C249 1.526 . S
C247 H231 0.959 . S
C247 H232 0.959 . S
C247 H233 0.961 . S
C247 C246 1.502 . S
C248 H234 0.960 . S
C248 H235 0.961 . S
C248 H236 0.959 . S
C248 C246 1.561 . S
C249 C246 1.526 . S
C249 C250 1.396 . S
C249 C254 1.390 . S
C250 C244 1.465 . S
C250 C249 1.396 . S
C250 C251 1.399 . S
C251 H237 0.929 . S
C251 C250 1.399 . S
C251 C252 1.385 . S
C252 H238 0.931 . S
C252 C251 1.385 . S
C252 C253 1.389 . S
C253 C252 1.389 . S
C253 C254 1.387 . S
C254 H239 0.930 . S
C254 C249 1.390 . S
C254 C253 1.387 . S
H255 C267 0.930 . S
H256 C269 0.930 . S
H257 C270 0.930 . S
H258 C274 0.959 . S
H259 C274 0.959 . S
H260 C274 0.961 . S
H261 C275 0.960 . S
H262 C275 0.961 . S
H263 C275 0.959 . S
H264 C278 0.929 . S
H265 C279 0.931 . S
H266 C281 0.930 . S
C267 H255 0.930 . S
C267 C268 1.399 . S
C267 C272 1.399 . S
C268 C267 1.399 . S
C268 C269 1.376 . S
C269 H256 0.930 . S
C269 C268 1.376 . S
C269 C270 1.388 . S
C270 H257 0.930 . S
C270 C269 1.388 . S
C270 C271 1.390 . S
C271 C270 1.390 . S
C271 C272 1.394 . S
C271 C277 1.465 . S
C272 C267 1.399 . S
C272 C271 1.394 . S
C272 C273 1.516 . S
C273 C272 1.516 . S
C273 C274 1.502 . S
C273 C275 1.561 . S
C273 C276 1.526 . S
C274 H258 0.959 . S
C274 H259 0.959 . S
C274 H260 0.961 . S
C274 C273 1.502 . S
C275 H261 0.960 . S
C275 H262 0.961 . S
C275 H263 0.959 . S
C275 C273 1.561 . S
C276 C273 1.526 . S
C276 C277 1.396 . S
C276 C281 1.390 . S
C277 C271 1.465 . S
C277 C276 1.396 . S
C277 C278 1.399 . S
C278 H264 0.929 . S
C278 C277 1.399 . S
C278 C279 1.385 . S
C279 H265 0.931 . S
C279 C278 1.385 . S
C279 C280 1.389 . S
C280 C279 1.389 . S
C280 C281 1.387 . S
C281 H266 0.930 . S
C281 C276 1.390 . S
C281 C280 1.387 . S
H282 C294 0.930 . S
H283 C296 0.930 . S
H284 C297 0.930 . S
H285 C301 0.959 . S
H286 C301 0.959 . S
H287 C301 0.961 . S
H288 C302 0.960 . S
H289 C302 0.961 . S
H290 C302 0.959 . S
H291 C305 0.929 . S
H292 C306 0.931 . S
H293 C308 0.930 . S
C294 H282 0.930 . S
C294 C295 1.399 1_655 S
C294 C299 1.399 . S
C295 C294 1.399 1_455 S
C295 C296 1.376 . S
C296 H283 0.930 . S
C296 C295 1.376 . S
C296 C297 1.388 . S
C297 H284 0.930 . S
C297 C296 1.388 . S
C297 C298 1.390 . S
C298 C297 1.390 . S
C298 C299 1.394 1_455 S
C298 C304 1.465 . S
C299 C294 1.399 . S
C299 C298 1.394 1_655 S
C299 C300 1.516 . S
C300 C299 1.516 . S
C300 C301 1.502 . S
C300 C302 1.561 . S
C300 C303 1.526 . S
C301 H285 0.959 . S
C301 H286 0.959 . S
C301 H287 0.961 . S
C301 C300 1.502 . S
C302 H288 0.960 . S
C302 H289 0.961 . S
C302 H290 0.959 . S
C302 C300 1.561 . S
C303 C300 1.526 . S
C303 C304 1.396 1_655 S
C303 C308 1.390 . S
C304 C298 1.465 . S
C304 C303 1.396 1_455 S
C304 C305 1.399 . S
C305 H291 0.929 . S
C305 C304 1.399 . S
C305 C306 1.385 . S
C306 H292 0.931 . S
C306 C305 1.385 . S
C306 C307 1.389 . S
C307 C306 1.389 . S
C307 C308 1.387 1_455 S
C308 H293 0.930 . S
C308 C303 1.390 . S
C308 C307 1.387 1_655 S
H309 C321 0.930 . S
H310 C323 0.930 . S
H311 C324 0.930 . S
H312 C328 0.959 . S
H313 C328 0.959 . S
H314 C328 0.961 1_554 S
H315 C329 0.984 . S
H316 C329 0.939 1_565 S
H317 C329 0.959 . S
H318 C332 0.929 . S
H319 C333 0.931 . S
H320 C335 0.930 . S
C321 H309 0.930 . S
C321 C322 1.399 . S
C321 C326 1.399 . S
C322 C321 1.399 . S
C322 C323 1.376 . S
C323 H310 0.930 . S
C323 C322 1.376 . S
C323 C324 1.388 . S
C324 H311 0.930 . S
C324 C323 1.388 . S
C324 C325 1.390 . S
C325 C324 1.390 . S
C325 C326 1.394 . S
C325 C331 1.465 1_554 S
C326 C321 1.399 . S
C326 C325 1.394 . S
C326 C327 1.516 1_554 S
C327 C326 1.516 1_556 S
C327 C328 1.502 . S
C327 C329 1.561 . S
C327 C330 1.526 . S
C328 H312 0.959 . S
C328 H313 0.959 . S
C328 H314 0.961 1_556 S
C328 C327 1.502 . S
C329 H315 0.984 . S
C329 H316 0.939 1_545 S
C329 H317 0.959 . S
C329 C327 1.561 . S
C330 C327 1.526 . S
C330 C331 1.396 . S
C330 C335 1.390 . S
C331 C325 1.465 1_556 S
C331 C330 1.396 . S
C331 C332 1.399 . S
C332 H318 0.929 . S
C332 C331 1.399 . S
C332 C333 1.385 . S
C333 H319 0.931 . S
C333 C332 1.385 . S
C333 C334 1.389 . S
C334 C333 1.389 . S
C334 C335 1.387 . S
C335 H320 0.930 . S
C335 C330 1.390 . S
C335 C334 1.387 . S
H336 C348 0.930 . S
H337 C350 0.930 . S
H338 C351 0.930 . S
H339 C355 0.959 . S
H340 C355 0.959 . S
H341 C355 0.961 . S
H342 C356 0.960 . S
H343 C356 0.961 . S
H344 C356 0.959 . S
H345 C359 0.929 . S
H346 C360 0.931 . S
H347 C362 0.930 . S
C348 H336 0.930 . S
C348 C349 1.399 . S
C348 C353 1.399 . S
C349 C348 1.399 . S
C349 C350 1.376 . S
C350 H337 0.930 . S
C350 C349 1.376 . S
C350 C351 1.388 . S
C351 H338 0.930 . S
C351 C350 1.388 . S
C351 C352 1.390 . S
C352 C351 1.390 . S
C352 C353 1.394 . S
C352 C358 1.465 . S
C353 C348 1.399 . S
C353 C352 1.394 . S
C353 C354 1.516 . S
C354 C353 1.516 . S
C354 C355 1.502 . S
C354 C356 1.561 . S
C354 C357 1.526 . S
C355 H339 0.959 . S
C355 H340 0.959 . S
C355 H341 0.961 . S
C355 C354 1.502 . S
C356 H342 0.960 . S
C356 H343 0.961 . S
C356 H344 0.959 . S
C356 C354 1.561 . S
C357 C354 1.526 . S
C357 C358 1.396 . S
C357 C362 1.390 . S
C358 C352 1.465 . S
C358 C357 1.396 . S
C358 C359 1.399 . S
C359 H345 0.929 . S
C359 C358 1.399 . S
C359 C360 1.385 . S
C360 H346 0.931 . S
C360 C359 1.385 . S
C360 C361 1.389 . S
C361 C360 1.389 . S
C361 C362 1.387 . S
C362 H347 0.930 . S
C362 C357 1.390 . S
C362 C361 1.387 . S
C133 C6 2.176 . S
C145 C90 2.178 . S
C160 C59 3.004 . S
C172 C19 2.950 . S
C187 C46 1.572 . S
C199 C86 1.518 . S
C214 C99 2.589 . S
C226 C15 2.412 . S
C241 C50 2.685 1_565 S
C253 C10 2.623 . S
C268 C95 1.561 . S
C280 C55 1.495 . S
C295 C18 0.517 . S
C307 C9 0.586 . S
C322 C49 0.637 . S
C334 C58 0.478 . S
C349 C98 0.610 . S
C361 C89 0.460 . S
