# Generated by pormake.
# Topology ums, (4)-cn, num edge types: 1
# Building blocks:
#     Node 0, Type 0, BuildingBlock: NAHDIM_clean_sbu_0, # of connection points: 4
#     Node 1, Type 0, BuildingBlock: NAHDIM_clean_sbu_0, # of connection points: 4
#     Node 2, Type 0, BuildingBlock: NAHDIM_clean_sbu_0, # of connection points: 4
#     Node 3, Type 0, BuildingBlock: NAHDIM_clean_sbu_0, # of connection points: 4
#     Node 4, Type 0, BuildingBlock: NAHDIM_clean_sbu_0, # of connection points: 4
#     Node 5, Type 0, BuildingBlock: NAHDIM_clean_sbu_0, # of connection points: 4
#     Node 6, Type 0, BuildingBlock: NAHDIM_clean_sbu_0, # of connection points: 4
#     Node 7, Type 0, BuildingBlock: NAHDIM_clean_sbu_0, # of connection points: 4
#     Node 8, Type 0, BuildingBlock: NAHDIM_clean_sbu_0, # of connection points: 4
#     Node 9, Type 0, BuildingBlock: NAHDIM_clean_sbu_0, # of connection points: 4
#     Node 10, Type 0, BuildingBlock: NAHDIM_clean_sbu_0, # of connection points: 4
#     Node 11, Type 0, BuildingBlock: NAHDIM_clean_sbu_0, # of connection points: 4
#     Node 12, Type 0, BuildingBlock: NAHDIM_clean_sbu_0, # of connection points: 4
#     Node 13, Type 0, BuildingBlock: NAHDIM_clean_sbu_0, # of connection points: 4
#     Node 14, Type 0, BuildingBlock: NAHDIM_clean_sbu_0, # of connection points: 4
#     Node 15, Type 0, BuildingBlock: NAHDIM_clean_sbu_0, # of connection points: 4
#     Node 16, Type 0, BuildingBlock: NAHDIM_clean_sbu_0, # of connection points: 4
#     Node 17, Type 0, BuildingBlock: NAHDIM_clean_sbu_0, # of connection points: 4
#     Node 18, Type 0, BuildingBlock: NAHDIM_clean_sbu_0, # of connection points: 4
#     Node 19, Type 0, BuildingBlock: NAHDIM_clean_sbu_0, # of connection points: 4
#     Node 20, Type 0, BuildingBlock: NAHDIM_clean_sbu_0, # of connection points: 4
#     Node 21, Type 0, BuildingBlock: NAHDIM_clean_sbu_0, # of connection points: 4
#     Node 22, Type 0, BuildingBlock: NAHDIM_clean_sbu_0, # of connection points: 4
#     Node 23, Type 0, BuildingBlock: NAHDIM_clean_sbu_0, # of connection points: 4
#     Node 24, Type 0, BuildingBlock: NAHDIM_clean_sbu_0, # of connection points: 4
#     Node 25, Type 0, BuildingBlock: NAHDIM_clean_sbu_0, # of connection points: 4
#     Node 26, Type 0, BuildingBlock: NAHDIM_clean_sbu_0, # of connection points: 4
#     Node 27, Type 0, BuildingBlock: NAHDIM_clean_sbu_0, # of connection points: 4
#     Node 28, Type 0, BuildingBlock: NAHDIM_clean_sbu_0, # of connection points: 4
#     Node 29, Type 0, BuildingBlock: NAHDIM_clean_sbu_0, # of connection points: 4
#     Node 30, Type 0, BuildingBlock: NAHDIM_clean_sbu_0, # of connection points: 4
#     Node 31, Type 0, BuildingBlock: NAHDIM_clean_sbu_0, # of connection points: 4
#     Node 32, Type 0, BuildingBlock: NAHDIM_clean_sbu_0, # of connection points: 4
#     Node 33, Type 0, BuildingBlock: NAHDIM_clean_sbu_0, # of connection points: 4
#     Node 34, Type 0, BuildingBlock: NAHDIM_clean_sbu_0, # of connection points: 4
#     Node 35, Type 0, BuildingBlock: NAHDIM_clean_sbu_0, # of connection points: 4
#     Edge 36, Type (0, 0), BuildingBlock: OJICUG_clean_linker_0, # of connection points: 2
#     Edge 37, Type (0, 0), BuildingBlock: OJICUG_clean_linker_0, # of connection points: 2
#     Edge 38, Type (0, 0), BuildingBlock: OJICUG_clean_linker_0, # of connection points: 2
#     Edge 39, Type (0, 0), BuildingBlock: OJICUG_clean_linker_0, # of connection points: 2
#     Edge 40, Type (0, 0), BuildingBlock: OJICUG_clean_linker_0, # of connection points: 2
#     Edge 41, Type (0, 0), BuildingBlock: OJICUG_clean_linker_0, # of connection points: 2
#     Edge 42, Type (0, 0), BuildingBlock: OJICUG_clean_linker_0, # of connection points: 2
#     Edge 43, Type (0, 0), BuildingBlock: OJICUG_clean_linker_0, # of connection points: 2
#     Edge 44, Type (0, 0), BuildingBlock: OJICUG_clean_linker_0, # of connection points: 2
#     Edge 45, Type (0, 0), BuildingBlock: OJICUG_clean_linker_0, # of connection points: 2
#     Edge 46, Type (0, 0), BuildingBlock: OJICUG_clean_linker_0, # of connection points: 2
#     Edge 47, Type (0, 0), BuildingBlock: OJICUG_clean_linker_0, # of connection points: 2
#     Edge 48, Type (0, 0), BuildingBlock: OJICUG_clean_linker_0, # of connection points: 2
#     Edge 49, Type (0, 0), BuildingBlock: OJICUG_clean_linker_0, # of connection points: 2
#     Edge 50, Type (0, 0), BuildingBlock: OJICUG_clean_linker_0, # of connection points: 2
#     Edge 51, Type (0, 0), BuildingBlock: OJICUG_clean_linker_0, # of connection points: 2
#     Edge 52, Type (0, 0), BuildingBlock: OJICUG_clean_linker_0, # of connection points: 2
#     Edge 53, Type (0, 0), BuildingBlock: OJICUG_clean_linker_0, # of connection points: 2
#     Edge 54, Type (0, 0), BuildingBlock: OJICUG_clean_linker_0, # of connection points: 2
#     Edge 55, Type (0, 0), BuildingBlock: OJICUG_clean_linker_0, # of connection points: 2
#     Edge 56, Type (0, 0), BuildingBlock: OJICUG_clean_linker_0, # of connection points: 2
#     Edge 57, Type (0, 0), BuildingBlock: OJICUG_clean_linker_0, # of connection points: 2
#     Edge 58, Type (0, 0), BuildingBlock: OJICUG_clean_linker_0, # of connection points: 2
#     Edge 59, Type (0, 0), BuildingBlock: OJICUG_clean_linker_0, # of connection points: 2
#     Edge 60, Type (0, 0), BuildingBlock: OJICUG_clean_linker_0, # of connection points: 2
#     Edge 61, Type (0, 0), BuildingBlock: OJICUG_clean_linker_0, # of connection points: 2
#     Edge 62, Type (0, 0), BuildingBlock: OJICUG_clean_linker_0, # of connection points: 2
#     Edge 63, Type (0, 0), BuildingBlock: OJICUG_clean_linker_0, # of connection points: 2
#     Edge 64, Type (0, 0), BuildingBlock: OJICUG_clean_linker_0, # of connection points: 2
#     Edge 65, Type (0, 0), BuildingBlock: OJICUG_clean_linker_0, # of connection points: 2
#     Edge 66, Type (0, 0), BuildingBlock: OJICUG_clean_linker_0, # of connection points: 2
#     Edge 67, Type (0, 0), BuildingBlock: OJICUG_clean_linker_0, # of connection points: 2
#     Edge 68, Type (0, 0), BuildingBlock: OJICUG_clean_linker_0, # of connection points: 2
#     Edge 69, Type (0, 0), BuildingBlock: OJICUG_clean_linker_0, # of connection points: 2
#     Edge 70, Type (0, 0), BuildingBlock: OJICUG_clean_linker_0, # of connection points: 2
#     Edge 71, Type (0, 0), BuildingBlock: OJICUG_clean_linker_0, # of connection points: 2
#     Edge 72, Type (0, 0), BuildingBlock: OJICUG_clean_linker_0, # of connection points: 2
#     Edge 73, Type (0, 0), BuildingBlock: OJICUG_clean_linker_0, # of connection points: 2
#     Edge 74, Type (0, 0), BuildingBlock: OJICUG_clean_linker_0, # of connection points: 2
#     Edge 75, Type (0, 0), BuildingBlock: OJICUG_clean_linker_0, # of connection points: 2
#     Edge 76, Type (0, 0), BuildingBlock: OJICUG_clean_linker_0, # of connection points: 2
#     Edge 77, Type (0, 0), BuildingBlock: OJICUG_clean_linker_0, # of connection points: 2
#     Edge 78, Type (0, 0), BuildingBlock: OJICUG_clean_linker_0, # of connection points: 2
#     Edge 79, Type (0, 0), BuildingBlock: OJICUG_clean_linker_0, # of connection points: 2
#     Edge 80, Type (0, 0), BuildingBlock: OJICUG_clean_linker_0, # of connection points: 2
#     Edge 81, Type (0, 0), BuildingBlock: OJICUG_clean_linker_0, # of connection points: 2
#     Edge 82, Type (0, 0), BuildingBlock: OJICUG_clean_linker_0, # of connection points: 2
#     Edge 83, Type (0, 0), BuildingBlock: OJICUG_clean_linker_0, # of connection points: 2
#     Edge 84, Type (0, 0), BuildingBlock: OJICUG_clean_linker_0, # of connection points: 2
#     Edge 85, Type (0, 0), BuildingBlock: OJICUG_clean_linker_0, # of connection points: 2
#     Edge 86, Type (0, 0), BuildingBlock: OJICUG_clean_linker_0, # of connection points: 2
#     Edge 87, Type (0, 0), BuildingBlock: OJICUG_clean_linker_0, # of connection points: 2
#     Edge 88, Type (0, 0), BuildingBlock: OJICUG_clean_linker_0, # of connection points: 2
#     Edge 89, Type (0, 0), BuildingBlock: OJICUG_clean_linker_0, # of connection points: 2
#     Edge 90, Type (0, 0), BuildingBlock: OJICUG_clean_linker_0, # of connection points: 2
#     Edge 91, Type (0, 0), BuildingBlock: OJICUG_clean_linker_0, # of connection points: 2
#     Edge 92, Type (0, 0), BuildingBlock: OJICUG_clean_linker_0, # of connection points: 2
#     Edge 93, Type (0, 0), BuildingBlock: OJICUG_clean_linker_0, # of connection points: 2
#     Edge 94, Type (0, 0), BuildingBlock: OJICUG_clean_linker_0, # of connection points: 2
#     Edge 95, Type (0, 0), BuildingBlock: OJICUG_clean_linker_0, # of connection points: 2
#     Edge 96, Type (0, 0), BuildingBlock: OJICUG_clean_linker_0, # of connection points: 2
#     Edge 97, Type (0, 0), BuildingBlock: OJICUG_clean_linker_0, # of connection points: 2
#     Edge 98, Type (0, 0), BuildingBlock: OJICUG_clean_linker_0, # of connection points: 2
#     Edge 99, Type (0, 0), BuildingBlock: OJICUG_clean_linker_0, # of connection points: 2
#     Edge 100, Type (0, 0), BuildingBlock: OJICUG_clean_linker_0, # of connection points: 2
#     Edge 101, Type (0, 0), BuildingBlock: OJICUG_clean_linker_0, # of connection points: 2
#     Edge 102, Type (0, 0), BuildingBlock: OJICUG_clean_linker_0, # of connection points: 2
#     Edge 103, Type (0, 0), BuildingBlock: OJICUG_clean_linker_0, # of connection points: 2
#     Edge 104, Type (0, 0), BuildingBlock: OJICUG_clean_linker_0, # of connection points: 2
#     Edge 105, Type (0, 0), BuildingBlock: OJICUG_clean_linker_0, # of connection points: 2
#     Edge 106, Type (0, 0), BuildingBlock: OJICUG_clean_linker_0, # of connection points: 2
#     Edge 107, Type (0, 0), BuildingBlock: OJICUG_clean_linker_0, # of connection points: 2
# Relax obj value: 0.129
# Max RMSD: 0.121
# Mean RMSD: 0.115
data_MOF--net-ums--node1-NAHDIM_clean_sbu_0--edge1-OJICUG_clean_linker_0
_symmetry_space_group_name_H-M    P1
_symmetry_Int_Tables_number       1
_symmetry_cell_setting            triclinic
loop_
_symmetry_equiv_pos_as_xyz
'x, y, z'
_cell_length_a     74.677769
_cell_length_b     74.667814
_cell_length_c     17.340194
_cell_angle_alpha  90.142226
_cell_angle_beta   89.958438
_cell_angle_gamma 119.91517
loop_
_atom_site_label
_atom_site_type_symbol
_atom_site_fract_x
_atom_site_fract_y
_atom_site_fract_z
_atom_type_partial_charge
C0 C 0.19871 0.24714 0.22839 0.0
O1 O 0.19839 0.26253 0.26403 0.0
O2 O 0.19779 0.28789 0.11696 0.0
Zn3 Zn 0.17773 0.25732 0.11671 0.0
O4 O 0.15363 0.25244 0.18313 0.0
C5 C 0.15019 0.23354 0.99282 0.0
O6 O 0.13853 0.22201 0.04962 0.0
O7 O 0.19095 0.24203 0.16126 0.0
C8 C 0.14353 0.23612 0.22288 0.0
O9 O 0.14858 0.22162 0.21962 0.0
C10 C 0.19363 0.29887 0.07275 0.0
O11 O 0.17697 0.28976 0.02958 0.0
O12 O 0.16802 0.2486 0.00786 0.0
C13 C 0.76851 0.94847 0.24917 0.0
O14 O 0.75373 0.93282 0.28674 0.0
O15 O 0.72818 0.9106 0.11079 0.0
Zn16 Zn 0.75633 0.91601 0.14404 0.0
O17 O 0.75319 0.89727 0.23221 0.0
C18 C 0.75606 0.88985 0.03274 0.0
O19 O 0.73927 0.87864 0.07352 0.0
O20 O 0.77325 0.94541 0.1818 0.0
C21 C 0.76809 0.89534 0.25758 0.0
O22 O 0.78614 0.90521 0.2232 0.0
C23 C 0.71273 0.90333 0.15587 0.0
O24 O 0.71517 0.89999 0.22842 0.0
O25 O 0.76806 0.90851 0.05295 0.0
C26 C 0.03632 0.80268 0.24945 0.0
O27 O 0.04947 0.80224 0.29862 0.0
O28 O 0.07609 0.79441 0.12871 0.0
Zn29 Zn 0.07177 0.81822 0.15495 0.0
O30 O 0.08902 0.83298 0.24719 0.0
C31 C 0.1 0.84359 0.04318 0.0
O32 O 0.1109 0.83709 0.08107 0.0
O33 O 0.04217 0.80861 0.18073 0.0
C34 C 0.08977 0.84926 0.2732 0.0
O35 O 0.07962 0.85693 0.23729 0.0
C36 C 0.07227 0.78685 0.06098 0.0
O37 O 0.06387 0.79365 0.01085 0.0
O38 O 0.08165 0.83771 0.06512 0.0
C39 C 0.23447 0.20273 0.37323 0.0
O40 O 0.24789 0.21128 0.42954 0.0
O41 O 0.27716 0.19535 0.40429 0.0
Zn42 Zn 0.24862 0.17321 0.37391 0.0
O43 O 0.25077 0.15798 0.28211 0.0
C44 C 0.24948 0.14779 0.48645 0.0
O45 O 0.26675 0.15383 0.44812 0.0
O46 O 0.23161 0.18592 0.34369 0.0
C47 C 0.23612 0.14052 0.26029 0.0
O48 O 0.21879 0.13166 0.2997 0.0
C49 C 0.2912 0.20574 0.35539 0.0
O50 O 0.28678 0.20279 0.28148 0.0
O51 O 0.23721 0.15388 0.46393 0.0
C52 C 0.80481 0.03016 0.38267 0.0
O53 O 0.79645 0.03334 0.44412 0.0
O54 O 0.80416 0.07782 0.41263 0.0
Zn55 Zn 0.82822 0.07465 0.37933 0.0
O56 O 0.84151 0.0928 0.28789 0.0
C57 C 0.85303 0.10292 0.48927 0.0
O58 O 0.84551 0.11282 0.45065 0.0
O59 O 0.81911 0.04554 0.34762 0.0
C60 C 0.85862 0.09574 0.26137 0.0
O61 O 0.86795 0.08695 0.2955 0.0
C62 C 0.79335 0.0813 0.36506 0.0
O63 O 0.79677 0.08105 0.29084 0.0
O64 O 0.84821 0.08475 0.46796 0.0
C65 C 0.95375 0.77958 0.34816 0.0
O66 O 0.9393 0.77505 0.29625 0.0
O67 O 0.90549 0.73365 0.43595 0.0
Zn68 Zn 0.91875 0.76463 0.4448 0.0
O69 O 0.90499 0.77387 0.3682 0.0
C70 C 0.91043 0.75969 0.60679 0.0
O71 O 0.91324 0.74384 0.59627 0.0
O72 O 0.94884 0.77705 0.41917 0.0
C73 C 0.88547 0.76568 0.37008 0.0
O74 O 0.87515 0.75264 0.42571 0.0
C75 C 0.89853 0.72434 0.3721 0.0
O76 O 0.90027 0.73514 0.31004 0.0
O77 O 0.91338 0.77176 0.55067 0.0
C78 C 0.80594 0.75126 0.84141 0.0
O79 O 0.81236 0.7423 0.79209 0.0
O80 O 0.80347 0.70429 0.95305 0.0
Zn81 Zn 0.82275 0.73519 0.95399 0.0
O82 O 0.84724 0.7412 0.88747 0.0
C83 C 0.84711 0.76201 0.08076 0.0
O84 O 0.85658 0.77585 0.02665 0.0
O85 O 0.80846 0.74994 0.91323 0.0
C86 C 0.85848 0.75834 0.85375 0.0
O87 O 0.85446 0.77345 0.86282 0.0
C88 C 0.80471 0.69336 0.00668 0.0
O89 O 0.8182 0.70251 0.06236 0.0
O90 O 0.83222 0.74433 0.06266 0.0
C91 C 0.22732 0.043 0.76526 0.0
O92 O 0.24111 0.0581 0.72261 0.0
O93 O 0.27177 0.07949 0.90219 0.0
Zn94 Zn 0.24407 0.0758 0.87235 0.0
O95 O 0.24829 0.09522 0.78557 0.0
C96 C 0.24689 0.10269 0.98597 0.0
O97 O 0.26394 0.11306 0.94562 0.0
O98 O 0.2252 0.04664 0.83545 0.0
C99 C 0.23391 0.09785 0.75911 0.0
O100 O 0.21554 0.08812 0.79121 0.0
C101 C 0.28622 0.08456 0.85352 0.0
O102 O 0.28262 0.08609 0.78039 0.0
O103 O 0.23384 0.08441 0.96478 0.0
C104 C 0.95719 0.18602 0.78517 0.0
O105 O 0.94401 0.18429 0.73152 0.0
O106 O 0.9174 0.19561 0.91109 0.0
Zn107 Zn 0.92139 0.17191 0.8797 0.0
O108 O 0.90375 0.15761 0.78742 0.0
C109 C 0.89352 0.14678 0.99152 0.0
O110 O 0.88295 0.15393 0.95515 0.0
O111 O 0.95107 0.18173 0.8546 0.0
C112 C 0.90153 0.14052 0.76337 0.0
O113 O 0.91061 0.13193 0.80065 0.0
C114 C 0.91408 0.20656 0.86363 0.0
O115 O 0.91453 0.20333 0.78931 0.0
O116 O 0.91165 0.15213 0.96841 0.0
C117 C 0.76948 0.7993 0.73681 0.0
O118 O 0.75715 0.80198 0.78351 0.0
O119 O 0.72781 0.79987 0.60974 0.0
Zn120 Zn 0.75653 0.8211 0.6421 0.0
O121 O 0.75474 0.83634 0.73501 0.0
C122 C 0.75604 0.84741 0.53356 0.0
O123 O 0.73939 0.84194 0.57521 0.0
O124 O 0.77239 0.8067 0.66902 0.0
C125 C 0.76888 0.85412 0.75649 0.0
O126 O 0.78593 0.86384 0.71576 0.0
C127 C 0.71263 0.79095 0.65569 0.0
O128 O 0.71569 0.7946 0.73005 0.0
O129 O 0.76808 0.84072 0.55266 0.0
C130 C 0.18522 0.96021 0.64089 0.0
O131 O 0.19039 0.95646 0.5728 0.0
O132 O 0.18663 0.91272 0.60852 0.0
Zn133 Zn 0.16344 0.91586 0.65269 0.0
O134 O 0.15166 0.89801 0.74619 0.0
C135 C 0.13694 0.88714 0.54928 0.0
O136 O 0.14482 0.87752 0.58757 0.0
O137 O 0.17331 0.94515 0.68356 0.0
C138 C 0.13427 0.89439 0.77227 0.0
O139 O 0.12429 0.90233 0.73686 0.0
C140 C 0.19699 0.90646 0.64637 0.0
O141 O 0.19398 0.90352 0.72103 0.0
O142 O 0.14198 0.90547 0.56915 0.0
C143 C 0.04269 0.21639 0.70732 0.0
O144 O 0.05663 0.22349 0.76238 0.0
O145 O 0.08897 0.26384 0.61553 0.0
Zn146 Zn 0.07914 0.23337 0.61847 0.0
O147 O 0.09335 0.22746 0.70436 0.0
C148 C 0.089 0.23567 0.45803 0.0
O149 O 0.08395 0.25019 0.4596 0.0
O150 O 0.04857 0.2183 0.63751 0.0
C151 C 0.11285 0.23549 0.70584 0.0
O152 O 0.1239 0.24766 0.64918 0.0
C153 C 0.09366 0.27526 0.67505 0.0
O154 O 0.09238 0.26716 0.74341 0.0
O155 O 0.08693 0.22536 0.51886 0.0
C156 C 0.86046 0.58709 0.52929 0.0
O157 O 0.86111 0.60356 0.5596 0.0
O158 O 0.85531 0.62452 0.41478 0.0
Zn159 Zn 0.83672 0.59365 0.41625 0.0
O160 O 0.81194 0.58762 0.48046 0.0
C161 C 0.8115 0.56667 0.29259 0.0
O162 O 0.80068 0.5544 0.3493 0.0
O163 O 0.85119 0.58012 0.46543 0.0
C164 C 0.80249 0.57124 0.52034 0.0
O165 O 0.80866 0.55757 0.51777 0.0
C166 C 0.85344 0.63515 0.36157 0.0
O167 O 0.83969 0.62569 0.30692 0.0
O168 O 0.82783 0.58355 0.30797 0.0
C169 C 0.43533 0.29731 0.4431 0.0
O170 O 0.42332 0.29369 0.38288 0.0
O171 O 0.38953 0.24927 0.40995 0.0
Zn172 Zn 0.41716 0.25321 0.44131 0.0
O173 O 0.41298 0.23497 0.53173 0.0
C174 C 0.41443 0.22581 0.32992 0.0
O175 O 0.3972 0.21558 0.36938 0.0
O176 O 0.43596 0.28236 0.47493 0.0
C177 C 0.42703 0.23158 0.5562 0.0
O178 O 0.44488 0.2399 0.52022 0.0
C179 C 0.37562 0.24615 0.45892 0.0
O180 O 0.37985 0.24688 0.53279 0.0
O181 O 0.42754 0.24404 0.35128 0.0
C182 C 0.70975 0.14392 0.55535 0.0
O183 O 0.72366 0.14617 0.60667 0.0
O184 O 0.74854 0.13462 0.42685 0.0
Zn185 Zn 0.74465 0.15852 0.45629 0.0
O186 O 0.76318 0.17372 0.54561 0.0
C187 C 0.77113 0.18186 0.33892 0.0
O188 O 0.78157 0.17439 0.37407 0.0
O189 O 0.71513 0.14838 0.48529 0.0
C190 C 0.76564 0.19095 0.56903 0.0
O191 O 0.75611 0.19927 0.53308 0.0
C192 C 0.7527 0.12452 0.47541 0.0
O193 O 0.75325 0.12885 0.54917 0.0
O194 O 0.75349 0.17744 0.36502 0.0
C195 C 0.89687 0.54483 0.68599 0.0
O196 O 0.91263 0.55492 0.73283 0.0
O197 O 0.93575 0.53157 0.72864 0.0
Zn198 Zn 0.90637 0.51157 0.69831 0.0
O199 O 0.90652 0.49549 0.60571 0.0
C200 C 0.90329 0.48317 0.80652 0.0
O201 O 0.9195 0.4866 0.76548 0.0
O202 O 0.89128 0.5263 0.66761 0.0
C203 C 0.89064 0.47902 0.58318 0.0
O204 O 0.87343 0.47165 0.62301 0.0
C205 C 0.95024 0.53965 0.67945 0.0
O206 O 0.94578 0.53595 0.60577 0.0
O207 O 0.89342 0.49229 0.78766 0.0
C208 C 0.47146 0.3768 0.59381 0.0
O209 O 0.4718 0.39239 0.55766 0.0
O210 O 0.46409 0.41162 0.73784 0.0
Zn211 Zn 0.48798 0.40783 0.70662 0.0
O212 O 0.50405 0.42813 0.62339 0.0
C213 C 0.51181 0.4331 0.82368 0.0
O214 O 0.5053 0.44402 0.78597 0.0
O215 O 0.47783 0.37928 0.66322 0.0
C216 C 0.52024 0.42916 0.59534 0.0
O217 O 0.52701 0.41734 0.62382 0.0
C218 C 0.4558 0.41847 0.69129 0.0
O219 O 0.46202 0.42186 0.61922 0.0
O220 O 0.50644 0.415 0.79958 0.0
C221 C 0.62392 0.10528 0.64252 0.0
O222 O 0.60975 0.09798 0.5883 0.0
O223 O 0.58262 0.05381 0.75403 0.0
Zn224 Zn 0.58832 0.08279 0.73776 0.0
O225 O 0.57067 0.08137 0.64842 0.0
C226 C 0.56104 0.0787 0.85438 0.0
O227 O 0.55017 0.06189 0.81306 0.0
O228 O 0.61842 0.10122 0.71269 0.0
C229 C 0.5661 0.09493 0.62821 0.0
O230 O 0.57291 0.11196 0.66894 0.0
C231 C 0.58164 0.04272 0.69671 0.0
O232 O 0.58593 0.05096 0.62755 0.0
O233 O 0.57931 0.09154 0.83297 0.0
C234 C 0.47598 0.09918 0.13757 0.0
O235 O 0.48068 0.08915 0.08657 0.0
O236 O 0.46891 0.05219 0.26965 0.0
Zn237 Zn 0.49164 0.08043 0.23966 0.0
O238 O 0.50715 0.07734 0.1507 0.0
C239 C 0.51732 0.07993 0.3521 0.0
O240 O 0.51196 0.06302 0.31213 0.0
O241 O 0.47954 0.09805 0.20858 0.0
C242 C 0.52481 0.09154 0.12876 0.0
O243 O 0.53392 0.10917 0.16645 0.0
C244 C 0.45906 0.03816 0.21986 0.0
O245 O 0.46302 0.04255 0.14631 0.0
O246 O 0.51058 0.09177 0.33094 0.0
C247 C 0.87583 0.36688 0.20727 0.0
O248 O 0.88772 0.37235 0.26867 0.0
O249 O 0.91978 0.41479 0.23051 0.0
Zn250 Zn 0.89209 0.4104 0.1982 0.0
O251 O 0.89615 0.42736 0.10357 0.0
C252 C 0.8957 0.43924 0.3042 0.0
O253 O 0.91239 0.44884 0.2614 0.0
O254 O 0.874 0.38056 0.17055 0.0
C255 C 0.88391 0.43358 0.08222 0.0
O256 O 0.86752 0.42904 0.12407 0.0
C257 C 0.93293 0.41509 0.18334 0.0
O258 O 0.92821 0.41178 0.10974 0.0
O259 O 0.88228 0.42077 0.28667 0.0
C260 C 0.61947 0.51559 0.10953 0.0
O261 O 0.60593 0.51478 0.05927 0.0
O262 O 0.58146 0.52572 0.23624 0.0
Zn263 Zn 0.58457 0.5013 0.20767 0.0
O264 O 0.56596 0.48643 0.11815 0.0
C265 C 0.55754 0.47891 0.3247 0.0
O266 O 0.54778 0.48693 0.2883 0.0
O267 O 0.6139 0.51046 0.17907 0.0
C268 C 0.56254 0.46887 0.09459 0.0
O269 O 0.57118 0.45964 0.13056 0.0
C270 C 0.57586 0.53474 0.18799 0.0
O271 O 0.57371 0.52916 0.11514 0.0
O272 O 0.575 0.4825 0.29937 0.0
C273 C 0.43149 0.13988 0.03982 0.0
O274 O 0.42035 0.14321 0.09033 0.0
O275 O 0.38469 0.13351 0.91061 0.0
Zn276 Zn 0.41302 0.15616 0.94041 0.0
O277 O 0.41049 0.17162 0.03063 0.0
C278 C 0.41166 0.18155 0.82847 0.0
O279 O 0.39451 0.17558 0.86751 0.0
O280 O 0.43101 0.14431 0.96938 0.0
C281 C 0.42542 0.18862 0.0546 0.0
O282 O 0.44319 0.1969 0.01807 0.0
C283 C 0.37037 0.12387 0.95944 0.0
O284 O 0.37447 0.12775 0.03326 0.0
O285 O 0.4239 0.17533 0.84999 0.0
C286 C 0.85093 0.28763 0.06756 0.0
O287 O 0.85235 0.27345 0.10732 0.0
O288 O 0.86303 0.25393 0.92804 0.0
Zn289 Zn 0.83786 0.25574 0.9574 0.0
O290 O 0.82292 0.23536 0.04172 0.0
C291 C 0.8154 0.22907 0.84014 0.0
O292 O 0.8231 0.2192 0.8779 0.0
O293 O 0.84522 0.28398 0.99739 0.0
C294 C 0.8062 0.23307 0.06976 0.0
O295 O 0.79814 0.24373 0.0409 0.0
C296 C 0.87195 0.24808 0.97586 0.0
O297 O 0.86594 0.2452 0.04819 0.0
O298 O 0.81937 0.24678 0.86425 0.0
C299 C 0.70422 0.54653 0.01812 0.0
O300 O 0.71848 0.55174 0.0714 0.0
O301 O 0.75226 0.59477 0.93252 0.0
Zn302 Zn 0.74002 0.56384 0.92483 0.0
O303 O 0.75401 0.55537 0.00347 0.0
C304 C 0.74878 0.56841 0.76298 0.0
O305 O 0.74489 0.58365 0.77106 0.0
O306 O 0.70963 0.54991 0.9477 0.0
C307 C 0.77353 0.56342 0.00256 0.0
O308 O 0.7841 0.57624 0.94674 0.0
C309 C 0.75873 0.60414 0.99657 0.0
O310 O 0.75682 0.59338 0.05895 0.0
O311 O 0.74637 0.55691 0.82043 0.0
C312 C 0.52412 0.89819 0.89379 0.0
O313 O 0.52082 0.90806 0.94983 0.0
O314 O 0.52821 0.94682 0.79392 0.0
Zn315 Zn 0.50601 0.91732 0.80776 0.0
O316 O 0.4901 0.91682 0.90152 0.0
C317 C 0.47954 0.91913 0.6967 0.0
O318 O 0.4835 0.93518 0.73995 0.0
O319 O 0.51888 0.89968 0.82544 0.0
C320 C 0.4726 0.90214 0.92233 0.0
O321 O 0.4631 0.88545 0.8794 0.0
C322 C 0.53729 0.95425 0.73027 0.0
O323 O 0.53269 0.94203 0.66997 0.0
O324 O 0.48752 0.90815 0.71475 0.0
C325 C 0.09563 0.62076 0.75381 0.0
O326 O 0.08479 0.61614 0.6898 0.0
O327 O 0.04752 0.57376 0.73605 0.0
Zn328 Zn 0.07472 0.57673 0.76847 0.0
O329 O 0.07009 0.55959 0.86302 0.0
C330 C 0.07042 0.54735 0.66212 0.0
O331 O 0.05338 0.53795 0.70317 0.0
O332 O 0.09452 0.60626 0.79524 0.0
C333 C 0.08253 0.5537 0.88514 0.0
O334 O 0.09919 0.55868 0.84425 0.0
C335 C 0.03409 0.57248 0.7841 0.0
O336 O 0.03837 0.57412 0.85815 0.0
O337 O 0.08399 0.56567 0.68059 0.0
C338 C 0.3685 0.47867 0.88685 0.0
O339 O 0.38196 0.48209 0.94168 0.0
O340 O 0.40848 0.46893 0.76031 0.0
Zn341 Zn 0.40432 0.49243 0.79228 0.0
O342 O 0.42185 0.50631 0.885 0.0
C343 C 0.43273 0.51744 0.68328 0.0
O344 O 0.44282 0.51023 0.72248 0.0
O345 O 0.37451 0.48209 0.81707 0.0
C346 C 0.42536 0.52389 0.90853 0.0
O347 O 0.41768 0.53368 0.87015 0.0
C348 C 0.41242 0.45835 0.80732 0.0
O349 O 0.41232 0.46169 0.8817 0.0
O350 O 0.41445 0.51232 0.70382 0.0
C351 C 0.56724 0.85376 0.95782 0.0
O352 O 0.57664 0.84988 0.90171 0.0
O353 O 0.61502 0.85785 0.07966 0.0
Zn354 Zn 0.58654 0.8361 0.04715 0.0
O355 O 0.58859 0.82174 0.95235 0.0
C356 C 0.58817 0.80988 0.15454 0.0
O357 O 0.60527 0.81623 0.11479 0.0
O358 O 0.56904 0.84899 0.02654 0.0
C359 C 0.57454 0.80389 0.93121 0.0
O360 O 0.55773 0.79393 0.97308 0.0
C361 C 0.63016 0.86699 0.03363 0.0
O362 O 0.62704 0.86347 0.95921 0.0
O363 O 0.57569 0.81594 0.13456 0.0
C364 C 0.13359 0.70402 0.87283 0.0
O365 O 0.13423 0.7187 0.82929 0.0
O366 O 0.12566 0.74138 0.00609 0.0
Zn367 Zn 0.14961 0.73749 0.97708 0.0
O368 O 0.16476 0.75636 0.88906 0.0
C369 C 0.17354 0.76471 0.09131 0.0
O370 O 0.16652 0.77501 0.05237 0.0
O371 O 0.13961 0.70816 0.94258 0.0
C372 C 0.18124 0.75788 0.86172 0.0
O373 O 0.18914 0.74743 0.89377 0.0
C374 C 0.1158 0.74587 0.95745 0.0
O375 O 0.12029 0.74663 0.88385 0.0
O376 O 0.16858 0.74656 0.06909 0.0
C377 C 0.28209 0.44252 0.96161 0.0
O378 O 0.2683 0.43157 0.90875 0.0
O379 O 0.23548 0.39794 0.03265 0.0
Zn380 Zn 0.24512 0.42824 0.03888 0.0
O381 O 0.23307 0.43415 0.9458 0.0
C382 C 0.21601 0.41964 0.15413 0.0
O383 O 0.20617 0.40401 0.10643 0.0
O384 O 0.27593 0.44386 0.02864 0.0
C385 C 0.21814 0.43766 0.94111 0.0
O386 O 0.20921 0.43908 0.00428 0.0
C387 C 0.23999 0.38801 0.08074 0.0
O388 O 0.25261 0.39796 0.13804 0.0
O389 O 0.23427 0.43366 0.13743 0.0
C390 C 0.11749 0.41082 0.45029 0.0
O391 O 0.12421 0.40274 0.39832 0.0
O392 O 0.12598 0.37028 0.5722 0.0
Zn393 Zn 0.14173 0.40076 0.54905 0.0
O394 O 0.15979 0.4043 0.45795 0.0
C395 C 0.1766 0.41803 0.64917 0.0
O396 O 0.18334 0.41021 0.59629 0.0
O397 O 0.12255 0.41121 0.52051 0.0
C398 C 0.17445 0.42127 0.43267 0.0
O399 O 0.17928 0.43861 0.46869 0.0
C400 C 0.12465 0.36285 0.63923 0.0
O401 O 0.13281 0.37545 0.69816 0.0
O402 O 0.1589 0.41627 0.64097 0.0
C403 C 0.57359 0.70915 0.4398 0.0
O404 O 0.58957 0.72417 0.40452 0.0
O405 O 0.61457 0.74605 0.57846 0.0
Zn406 Zn 0.58675 0.74149 0.54537 0.0
O407 O 0.59052 0.76047 0.45775 0.0
C408 C 0.58734 0.76806 0.65559 0.0
O409 O 0.6042 0.77914 0.61498 0.0
O410 O 0.56875 0.71248 0.50654 0.0
C411 C 0.5754 0.76149 0.4293 0.0
O412 O 0.55699 0.7506 0.46032 0.0
C413 C 0.63006 0.75369 0.53352 0.0
O414 O 0.62768 0.75761 0.46164 0.0
O415 O 0.57529 0.74939 0.63583 0.0
C416 C 0.27905 0.85302 0.38393 0.0
O417 O 0.26523 0.85476 0.34282 0.0
O418 O 0.24048 0.85593 0.52096 0.0
Zn419 Zn 0.24426 0.83283 0.47976 0.0
O420 O 0.22593 0.81924 0.38802 0.0
C421 C 0.2171 0.80704 0.58853 0.0
O422 O 0.20678 0.81439 0.5517 0.0
O423 O 0.27373 0.84376 0.44842 0.0
C424 C 0.22352 0.80218 0.36273 0.0
O425 O 0.23285 0.79354 0.39803 0.0
C426 C 0.23388 0.86591 0.48256 0.0
O427 O 0.2303 0.86221 0.40841 0.0
O428 O 0.23526 0.81227 0.56596 0.0
C429 C 0.07334 0.45241 0.35896 0.0
O430 O 0.0619 0.45541 0.40913 0.0
O431 O 0.03131 0.45575 0.2383 0.0
Zn432 Zn 0.06078 0.47544 0.26761 0.0
O433 O 0.06114 0.49139 0.36166 0.0
C434 C 0.06347 0.50405 0.16052 0.0
O435 O 0.04732 0.50057 0.20204 0.0
O436 O 0.07539 0.45971 0.29133 0.0
C437 C 0.07697 0.50777 0.38511 0.0
O438 O 0.09425 0.51535 0.34563 0.0
C439 C 0.01685 0.44865 0.28773 0.0
O440 O 0.02139 0.45331 0.36089 0.0
O441 O 0.07339 0.49493 0.17868 0.0
C442 C 0.529 0.62908 0.29406 0.0
O443 O 0.53735 0.62457 0.23592 0.0
O444 O 0.52313 0.57979 0.25704 0.0
Zn445 Zn 0.50075 0.58537 0.29244 0.0
O446 O 0.4867 0.56782 0.38447 0.0
C447 C 0.474 0.55838 0.18447 0.0
O448 O 0.48 0.54726 0.22364 0.0
O449 O 0.51266 0.61484 0.32467 0.0
C450 C 0.46991 0.56602 0.40985 0.0
O451 O 0.46149 0.57545 0.37385 0.0
C452 C 0.53516 0.57755 0.30259 0.0
O453 O 0.53383 0.57994 0.37709 0.0
O454 O 0.48061 0.577 0.20487 0.0
C455 C 0.3641 0.89348 0.28449 0.0
O456 O 0.36995 0.90526 0.22288 0.0
O457 O 0.41326 0.9396 0.27231 0.0
Zn458 Zn 0.40774 0.91149 0.30486 0.0
O459 O 0.42413 0.91485 0.40087 0.0
C460 C 0.43638 0.91286 0.20058 0.0
O461 O 0.44711 0.92967 0.24206 0.0
O462 O 0.37772 0.89321 0.32742 0.0
C463 C 0.43022 0.9024 0.42073 0.0
O464 O 0.42566 0.88627 0.37706 0.0
C465 C 0.41609 0.95353 0.32086 0.0
O466 O 0.41411 0.9491 0.39476 0.0
O467 O 0.41758 0.90077 0.21807 0.0
C468 C 0.22678 0.23178 0.3721 0.0
C469 C 0.22437 0.21353 0.33886 0.0
H470 H 0.22052 0.25673 0.36327 0.0
C471 C 0.21309 0.20621 0.26992 0.0
H472 H 0.23539 0.2378 0.42518 0.0
C473 C 0.20477 0.21714 0.23411 0.0
C474 C 0.2074 0.23553 0.26676 0.0
H475 H 0.21098 0.19222 0.24267 0.0
H476 H 0.19631 0.21117 0.18069 0.0
C477 C 0.2183 0.24263 0.33654 0.0
C478 C 0.78084 0.992 0.38944 0.0
C479 C 0.79653 0.00912 0.35064 0.0
H480 H 0.75979 0.9595 0.38798 0.0
C481 C 0.80357 0.00604 0.27919 0.0
H482 H 0.77511 0.99383 0.44459 0.0
C483 C 0.7947 0.98631 0.24637 0.0
C484 C 0.7787 0.96928 0.28453 0.0
H485 H 0.81566 0.01893 0.24779 0.0
H486 H 0.80022 0.98447 0.19077 0.0
C487 C 0.77205 0.97231 0.35683 0.0
C488 C 0.9899 0.78782 0.3772 0.0
C489 C 0.97509 0.78621 0.32355 0.0
H490 H 0.02081 0.79411 0.39571 0.0
C491 C 0.98062 0.79025 0.24538 0.0
H492 H 0.98609 0.78474 0.43779 0.0
C493 C 0.00052 0.79565 0.22124 0.0
C494 C 0.01526 0.797 0.27473 0.0
H495 H 0.96955 0.78915 0.20259 0.0
H496 H 0.0043 0.79862 0.16058 0.0
C497 C 0.00977 0.79309 0.35298 0.0
C498 C 0.78705 0.77042 0.86643 0.0
C499 C 0.79661 0.76349 0.81395 0.0
H500 H 0.77101 0.78712 0.88313 0.0
C501 C 0.79746 0.76865 0.73559 0.0
H502 H 0.78615 0.76672 0.92719 0.0
C503 C 0.78892 0.78057 0.71033 0.0
C504 C 0.7792 0.78732 0.76288 0.0
H505 H 0.80483 0.76362 0.69383 0.0
H506 H 0.78975 0.78428 0.64962 0.0
C507 C 0.77836 0.78212 0.84113 0.0
C508 C 0.20107 0.00537 0.77738 0.0
C509 C 0.21535 0.02199 0.73231 0.0
H510 H 0.1802 0.9728 0.78363 0.0
C511 C 0.21868 0.01828 0.65551 0.0
H512 H 0.1981 0.00773 0.8366 0.0
C513 C 0.20846 -0.00171 0.62513 0.0
C514 C 0.19465 0.98157 0.67083 0.0
H515 H 0.22949 0.03077 0.61902 0.0
H516 H 0.21171 0.99592 0.56628 0.0
C517 C 0.19081 0.98536 0.7469 0.0
C518 C 0.01421 0.20432 0.80403 0.0
C519 C 0.02062 0.20759 0.72662 0.0
H520 H 0.98916 0.19488 0.88327 0.0
C521 C 0.0059 0.20316 0.66844 0.0
H522 H 0.02518 0.20753 0.85021 0.0
C523 C 0.98525 0.19603 0.68747 0.0
C524 C 0.97891 0.19306 0.76499 0.0
H525 H 0.01037 0.20555 0.60826 0.0
H526 H 0.9743 0.19297 0.64138 0.0
C527 C 0.99356 0.19707 0.82302 0.0
C528 C 0.86497 0.5564 0.54714 0.0
C529 C 0.86961 0.57629 0.57043 0.0
H530 H 0.86966 0.5308 0.56605 0.0
C531 C 0.88282 0.58556 0.6338 0.0
H532 H 0.85471 0.54877 0.49892 0.0
C533 C 0.89152 0.57527 0.67222 0.0
C534 C 0.88695 0.55543 0.64853 0.0
H535 H 0.88664 0.60086 0.65318 0.0
H536 H 0.90187 0.5829 0.72018 0.0
C537 C 0.87345 0.54605 0.586 0.0
C538 C 0.45544 0.32096 0.55196 0.0
C539 C 0.44607 0.31802 0.4791 0.0
H540 H 0.47072 0.34181 0.6458 0.0
C541 C 0.44591 0.33477 0.44326 0.0
H542 H 0.45579 0.30833 0.5812 0.0
C543 C 0.45449 0.35391 0.4802 0.0
C544 C 0.46331 0.3567 0.55402 0.0
H545 H 0.43886 0.33303 0.38713 0.0
H546 H 0.45386 0.36643 0.45128 0.0
C547 C 0.46392 0.3401 0.58919 0.0
C548 C 0.68213 0.13096 0.65618 0.0
C549 C 0.68794 0.13534 0.57836 0.0
H550 H 0.65734 0.11817 0.73773 0.0
C551 C 0.67264 0.13084 0.52256 0.0
H552 H 0.69358 0.13436 0.70064 0.0
C553 C 0.65188 0.12154 0.54381 0.0
C554 C 0.64601 0.11662 0.62134 0.0
H555 H 0.67662 0.13411 0.46216 0.0
H556 H 0.64042 0.1179 0.49917 0.0
C557 C 0.66137 0.12173 0.67749 0.0
C558 C 0.45707 0.11813 0.16737 0.0
C559 C 0.46563 0.11064 0.11275 0.0
H560 H 0.43951 0.1332 0.18705 0.0
C561 C 0.46358 0.11357 0.0339 0.0
H562 H 0.4584 0.11613 0.22855 0.0
C563 C 0.45285 0.12345 0.01009 0.0
C564 C 0.44382 0.13044 0.06468 0.0
H565 H 0.4701 0.10805 0.99041 0.0
H566 H 0.45131 0.12525 0.9489 0.0
C567 C 0.44619 0.12786 0.14355 0.0
C568 C 0.86391 0.31177 0.18015 0.0
C569 C 0.85605 0.30749 0.10455 0.0
H570 H 0.8761 0.33378 0.27216 0.0
C571 C 0.85334 0.32237 0.06506 0.0
H572 H 0.86606 0.30058 0.21244 0.0
C573 C 0.85894 0.34138 0.09972 0.0
C574 C 0.86749 0.34592 0.17435 0.0
H575 H 0.84716 0.31946 0.007 0.0
H576 H 0.85714 0.35273 0.06706 0.0
C577 C 0.86961 0.33079 0.21458 0.0
C578 C 0.64679 0.52721 0.00783 0.0
C579 C 0.64099 0.52279 0.08565 0.0
H580 H 0.6713 0.53805 0.92522 0.0
C581 C 0.65601 0.52562 0.14052 0.0
H582 H 0.63556 0.52511 0.96409 0.0
C583 C 0.67649 0.53307 0.11826 0.0
C584 C 0.68235 0.53776 0.04062 0.0
H585 H 0.65203 0.52232 0.20091 0.0
H586 H 0.68773 0.5353 0.16215 0.0
C587 C 0.66727 0.53457 0.98549 0.0
C588 C 0.54114 0.87839 0.84938 0.0
C589 C 0.53438 0.88607 0.90998 0.0
H590 H 0.55689 0.86219 0.81702 0.0
C591 C 0.53792 0.88247 0.98646 0.0
H592 H 0.53863 0.88091 0.78983 0.0
C593 C 0.54826 0.87163 0.00205 0.0
C594 C 0.55542 0.86434 0.94146 0.0
H595 H 0.53282 0.88811 0.03443 0.0
H596 H 0.55093 0.86928 0.06161 0.0
C597 C 0.55164 0.8677 0.86498 0.0
C598 C 0.10826 0.65842 0.73642 0.0
C599 C 0.107 0.64233 0.78199 0.0
H600 H 0.1177 0.69048 0.72926 0.0
C601 C 0.11555 0.64687 0.85663 0.0
H602 H 0.1019 0.65547 0.67864 0.0
C603 C 0.12453 0.66698 0.88598 0.0
C604 C 0.12522 0.68294 0.84112 0.0
H605 H 0.11484 0.6348 0.89325 0.0
H606 H 0.1306 0.66992 0.9442 0.0
C607 C 0.11731 0.67851 0.76559 0.0
C608 C 0.3106 0.45393 0.8658 0.0
C609 C 0.30428 0.4526 0.94293 0.0
H610 H 0.33585 0.46338 0.78753 0.0
C611 C 0.31928 0.46049 0.00142 0.0
H612 H 0.2994 0.44808 0.81937 0.0
C613 C 0.3402 0.46913 0.98315 0.0
C614 C 0.34649 0.47023 0.90602 0.0
H615 H 0.31485 0.45966 0.06138 0.0
H616 H 0.35142 0.47486 0.02951 0.0
C617 C 0.3315 0.46275 0.84749 0.0
C618 C 0.08508 0.43673 0.45989 0.0
C619 C 0.08402 0.44112 0.38182 0.0
H620 H 0.09654 0.42375 0.54284 0.0
C621 C 0.09347 0.43486 0.32621 0.0
H622 H 0.07795 0.44136 0.50412 0.0
C623 C 0.10395 0.42457 0.34837 0.0
C624 C 0.10538 0.42058 0.42661 0.0
H625 H 0.09284 0.43794 0.26557 0.0
H626 H 0.11126 0.42012 0.30424 0.0
C627 C 0.09575 0.42666 0.48212 0.0
C628 C 0.53257 0.65377 0.39897 0.0
C629 C 0.5396 0.64992 0.32896 0.0
H630 H 0.53786 0.67546 0.48937 0.0
C631 C 0.55752 0.66585 0.29492 0.0
H632 H 0.51881 0.64178 0.42678 0.0
C633 C 0.56839 0.68512 0.33076 0.0
C634 C 0.56164 0.68884 0.40162 0.0
H635 H 0.56333 0.6634 0.24103 0.0
H636 H 0.58226 0.69702 0.30325 0.0
C637 C 0.54352 0.67303 0.43508 0.0
C638 C 0.32705 0.88305 0.2623 0.0
C639 C 0.34211 0.88198 0.30728 0.0
H640 H 0.29531 0.8747 0.25117 0.0
C641 C 0.33612 0.87057 0.37619 0.0
H642 H 0.33115 0.89167 0.20886 0.0
C643 C 0.31557 0.86088 0.40058 0.0
C644 C 0.3006 0.86237 0.35651 0.0
H645 H 0.34735 0.86941 0.41213 0.0
H646 H 0.3115 0.85247 0.4545 0.0
C647 C 0.3065 0.87333 0.28665 0.0
C648 C 0.14438 0.24525 0.78536 0.0
C649 C 0.12296 0.23286 0.77462 0.0
H650 H 0.16988 0.25507 0.86285 0.0
C651 C 0.11104 0.21892 0.83286 0.0
H652 H 0.15401 0.25605 0.74137 0.0
C653 C 0.12015 0.21823 0.90223 0.0
C654 C 0.14134 0.23159 0.91498 0.0
H655 H 0.09452 0.20899 0.82598 0.0
H656 H 0.11037 0.2079 0.94708 0.0
C657 C 0.15348 0.24466 0.85499 0.0
C658 C 0.77767 0.89235 0.91726 0.0
C659 C 0.76 0.8809 0.96294 0.0
H660 H 0.79441 0.89288 0.81587 0.0
C661 C 0.74554 0.86064 0.94046 0.0
H662 H 0.78908 0.90801 0.93306 0.0
C663 C 0.74851 0.85206 0.87361 0.0
C664 C 0.76607 0.86347 0.82751 0.0
H665 H 0.73174 0.85135 0.97419 0.0
H666 H 0.73696 0.83642 0.85814 0.0
C667 C 0.7807 0.88369 0.85016 0.0
C668 C 0.09751 0.86437 0.93459 0.0
C669 C 0.10877 0.85685 0.97453 0.0
H670 H 0.09675 0.88216 0.83933 0.0
C671 C 0.12847 0.86184 0.94757 0.0
H672 H 0.08228 0.86078 0.9539 0.0
C673 C 0.13671 0.874 0.88188 0.0
C674 C 0.12547 0.88151 0.84181 0.0
H675 H 0.13753 0.85626 0.9769 0.0
H676 H 0.15192 0.87751 0.86259 0.0
C677 C 0.1058 0.87661 0.86893 0.0
C678 C 0.25661 0.11886 0.65082 0.0
C679 C 0.23771 0.11085 0.69013 0.0
H680 H 0.27501 0.1366 0.55581 0.0
C681 C 0.22253 0.11503 0.66185 0.0
H682 H 0.26862 0.11589 0.67084 0.0
C683 C 0.22624 0.12703 0.59552 0.0
C684 C 0.24514 0.13493 0.55614 0.0
H685 H 0.20781 0.10905 0.69089 0.0
H686 H 0.21431 0.13006 0.57502 0.0
C687 C 0.26025 0.13069 0.58454 0.0
C688 C 0.86959 0.13199 0.58362 0.0
C689 C 0.8659 0.11253 0.55841 0.0
H690 H 0.88358 0.15598 0.66794 0.0
C691 C 0.87416 0.10234 0.60092 0.0
H692 H 0.86344 0.14027 0.55233 0.0
C693 C 0.8858 0.11142 0.66755 0.0
C694 C 0.8893 0.1308 0.69299 0.0
H695 H 0.87158 0.08733 0.58298 0.0
H696 H 0.89193 0.10319 0.69926 0.0
C697 C 0.88111 0.14099 0.65016 0.0
C698 C 0.8793 0.74455 0.79083 0.0
C699 C 0.8743 0.7603 0.79782 0.0
H700 H 0.89499 0.73219 0.72574 0.0
C701 C 0.88341 0.77716 0.74703 0.0
H702 H 0.87271 0.73146 0.82964 0.0
C703 C 0.89616 0.77756 0.68725 0.0
C704 C 0.90014 0.76117 0.67742 0.0
H705 H 0.87998 0.78962 0.7512 0.0
H706 H 0.90219 0.79031 0.6469 0.0
C707 C 0.89215 0.74502 0.73141 0.0
C708 C 0.84432 0.75176 0.21909 0.0
C709 C 0.85566 0.76552 0.15956 0.0
H710 H 0.84476 0.7413 0.33333 0.0
C711 C 0.87604 0.78122 0.17405 0.0
H712 H 0.82851 0.73961 0.20981 0.0
C713 C 0.88542 0.78208 0.24465 0.0
C714 C 0.87451 0.7674 0.30224 0.0
H715 H 0.88514 0.79211 0.12941 0.0
H716 H 0.90151 0.79364 0.25275 0.0
C717 C 0.85362 0.75277 0.28998 0.0
C718 C 0.2592 0.13183 0.07977 0.0
C719 C 0.24368 0.11214 0.05583 0.0
H720 H 0.26904 0.1561 0.16274 0.0
C721 C 0.2255 0.10175 0.09976 0.0
H722 H 0.27343 0.14028 0.04743 0.0
C723 C 0.22296 0.11091 0.16635 0.0
C724 C 0.23858 0.13059 0.19025 0.0
H725 H 0.21327 0.08655 0.08281 0.0
H726 H 0.2088 0.10256 0.19911 0.0
C727 C 0.25671 0.14092 0.14615 0.0
C728 C 0.85683 0.11686 0.15332 0.0
C729 C 0.86765 0.10868 0.19215 0.0
H730 H 0.85645 0.13515 0.05956 0.0
C731 C 0.88703 0.11292 0.16394 0.0
H732 H 0.84184 0.11386 0.17341 0.0
C733 C 0.89545 0.12521 0.09843 0.0
C734 C 0.88461 0.13341 0.05982 0.0
H735 H 0.89574 0.10683 0.19256 0.0
H736 H 0.91045 0.12831 0.07821 0.0
C737 C 0.8652 0.12905 0.08786 0.0
C738 C 0.74699 0.87546 0.37078 0.0
C739 C 0.76526 0.88298 0.32767 0.0
H740 H 0.72992 0.8586 0.46947 0.0
C741 C 0.78074 0.8789 0.35317 0.0
H742 H 0.73478 0.87839 0.35303 0.0
C743 C 0.77791 0.86739 0.42033 0.0
C744 C 0.75962 0.85995 0.46339 0.0
H745 H 0.79501 0.88452 0.32118 0.0
H746 H 0.79002 0.86436 0.4385 0.0
C747 C 0.74424 0.86416 0.4379 0.0
C748 C 0.10982 0.84905 0.38784 0.0
C749 C 0.10143 0.85897 0.34458 0.0
H750 H 0.12732 0.85003 0.48651 0.0
C751 C 0.1042 0.87805 0.37052 0.0
H752 H 0.10786 0.83428 0.3698 0.0
C753 C 0.11547 0.88717 0.43782 0.0
C754 C 0.12403 0.87729 0.48052 0.0
H755 H 0.09786 0.88605 0.33848 0.0
H756 H 0.11762 0.90201 0.45595 0.0
C757 C 0.12092 0.85807 0.45509 0.0
C758 C 0.10738 0.2487 0.33245 0.0
C759 C 0.10034 0.23385 0.39138 0.0
H760 H 0.12661 0.2611 0.23295 0.0
C761 C 0.10603 0.21852 0.38992 0.0
H762 H 0.10323 0.26069 0.33174 0.0
C763 C 0.11939 0.21872 0.33306 0.0
C764 C 0.12742 0.23433 0.27693 0.0
H765 H 0.10077 0.20679 0.43429 0.0
H766 H 0.12405 0.20712 0.33504 0.0
C767 C 0.12086 0.24899 0.27598 0.0
C768 C 0.81462 0.57602 0.15294 0.0
C769 C 0.8029 0.56301 0.21372 0.0
H770 H 0.81457 0.58612 0.03769 0.0
C771 C 0.78214 0.54811 0.20038 0.0
H772 H 0.83072 0.58754 0.16122 0.0
C773 C 0.77285 0.5474 0.12972 0.0
C774 C 0.7842 0.56145 0.07091 0.0
H775 H 0.77272 0.53778 0.24586 0.0
H776 H 0.75653 0.53648 0.12254 0.0
C777 C 0.80538 0.57518 0.08205 0.0
C778 C 0.40451 0.18817 0.16761 0.0
C779 C 0.42289 0.19838 0.12485 0.0
H780 H 0.38756 0.18872 0.26572 0.0
C781 C 0.43873 0.21773 0.15055 0.0
H782 H 0.39202 0.17321 0.14966 0.0
C783 C 0.43614 0.22671 0.21752 0.0
C784 C 0.41771 0.21643 0.26008 0.0
H785 H 0.45309 0.22597 0.11886 0.0
H786 H 0.44854 0.24168 0.23581 0.0
C787 C 0.40198 0.19706 0.23445 0.0
C788 C 0.77806 0.21648 0.16856 0.0
C789 C 0.79674 0.21953 0.13722 0.0
H790 H 0.75523 0.20214 0.2571 0.0
C791 C 0.80673 0.20994 0.17232 0.0
H792 H 0.77001 0.22368 0.14281 0.0
C793 C 0.79835 0.19776 0.23775 0.0
C794 C 0.77976 0.19479 0.26946 0.0
H795 H 0.82116 0.21199 0.14975 0.0
H796 H 0.80652 0.19068 0.26343 0.0
C797 C 0.76961 0.20418 0.23403 0.0
C798 C 0.90971 0.46118 0.89749 0.0
C799 C 0.8976 0.46989 0.87562 0.0
H800 H 0.91493 0.44301 0.97951 0.0
C801 C 0.8806 0.46625 0.92155 0.0
H802 H 0.92293 0.46366 0.86346 0.0
C803 C 0.87596 0.4543 0.98852 0.0
C804 C 0.8883 0.44585 0.01079 0.0
H805 H 0.87097 0.47276 0.90619 0.0
H806 H 0.86286 0.45186 0.02312 0.0
C807 C 0.90515 0.44934 0.96427 0.0
C808 C 0.54134 0.47005 0.98565 0.0
C809 C 0.54941 0.45935 0.02589 0.0
H810 H 0.5233 0.4702 0.89069 0.0
C811 C 0.54498 0.43975 -0.00077 0.0
H812 H 0.54445 0.48518 0.00447 0.0
C813 C 0.53273 0.43107 0.9335 0.0
C814 C 0.52477 0.44188 0.89323 0.0
H815 H 0.55098 0.43112 0.02902 0.0
H816 H 0.52956 0.41596 0.91417 0.0
C817 C 0.52921 0.46144 0.92015 0.0
C818 C 0.56292 0.10052 0.96809 0.0
C819 C 0.55207 0.0822 0.92496 0.0
H820 H 0.56282 0.11788 0.06657 0.0
C821 C 0.5324 0.067 0.94997 0.0
H822 H 0.57812 0.11251 0.9503 0.0
C823 C 0.52371 0.07002 0.01642 0.0
C824 C 0.53444 0.08835 0.05942 0.0
H825 H 0.52363 0.05268 0.91826 0.0
H826 H 0.50847 0.05797 0.03374 0.0
C827 C 0.55416 0.10358 0.03467 0.0
C828 C 0.53638 0.0703 0.44551 0.0
C829 C 0.53016 0.08435 0.42203 0.0
H830 H 0.55243 0.06258 0.52859 0.0
C831 C 0.53595 0.10216 0.46677 0.0
H832 H 0.53219 0.05642 0.41248 0.0
C833 C 0.54768 0.10573 0.53398 0.0
C834 C 0.55373 0.09153 0.55754 0.0
H835 H 0.53137 0.11326 0.45013 0.0
H836 H 0.55191 0.11954 0.5675 0.0
C837 C 0.54798 0.07382 0.51239 0.0
C838 C 0.87603 0.43984 0.42113 0.0
C839 C 0.89373 0.44942 0.37436 0.0
H840 H 0.8611 0.44169 0.52411 0.0
C841 C 0.91018 0.4688 0.39656 0.0
H842 H 0.86312 0.42489 0.40559 0.0
C843 C 0.90912 0.47828 0.46435 0.0
C844 C 0.89151 0.46871 0.51149 0.0
H845 H 0.92408 0.47662 0.36203 0.0
H846 H 0.92216 0.49317 0.47968 0.0
C847 C 0.8749 0.44944 0.48901 0.0
C848 C 0.52142 0.45293 0.49206 0.0
C849 C 0.53037 0.44242 0.52779 0.0
H850 H 0.52291 0.47254 0.39999 0.0
C851 C 0.54858 0.44418 0.49676 0.0
H852 H 0.50737 0.45188 0.51437 0.0
C853 C 0.55756 0.45613 0.43089 0.0
C854 C 0.54841 0.4664 0.39471 0.0
H855 H 0.55583 0.43626 0.52303 0.0
H856 H 0.57155 0.45717 0.40801 0.0
C857 C 0.5303 0.46473 0.4262 0.0
C858 C 0.40482 0.21148 0.66706 0.0
C859 C 0.42334 0.21879 0.6257 0.0
H860 H 0.38672 0.19418 0.76338 0.0
C861 C 0.4382 0.2139 0.6519 0.0
H862 H 0.39306 0.215 0.64861 0.0
C863 C 0.43453 0.20185 0.71805 0.0
C864 C 0.41598 0.19458 0.75927 0.0
H865 H 0.45264 0.21931 0.62127 0.0
H866 H 0.4462 0.19824 0.7368 0.0
C867 C 0.40121 0.19957 0.73311 0.0
C868 C 0.7877 0.19135 0.67793 0.0
C869 C 0.77856 0.20104 0.63767 0.0
H870 H 0.80636 0.19255 0.77309 0.0
C871 C 0.78167 0.22019 0.66435 0.0
H872 H 0.78561 0.17659 0.65905 0.0
C873 C 0.79365 0.22942 0.73016 0.0
C874 C 0.80269 0.21962 0.77049 0.0
H875 H 0.77482 0.22804 0.63457 0.0
H876 H 0.79578 0.24416 0.74948 0.0
C877 C 0.79959 0.20051 0.74354 0.0
C878 C 0.76496 0.55163 0.68713 0.0
C879 C 0.75955 0.56711 0.69348 0.0
H880 H 0.78268 0.54071 0.62701 0.0
C881 C 0.76653 0.58264 0.63708 0.0
H882 H 0.75971 0.53937 0.72935 0.0
C883 C 0.77979 0.58347 0.57861 0.0
C884 C 0.78624 0.56873 0.57519 0.0
H885 H 0.76256 0.59473 0.64006 0.0
H886 H 0.78557 0.59611 0.53785 0.0
C887 C 0.77815 0.55241 0.62847 0.0
C888 C 0.44684 0.92334 0.53913 0.0
C889 C 0.44254 0.90632 0.49195 0.0
H890 H 0.46178 0.94065 0.64058 0.0
C891 C 0.45027 0.8933 0.51326 0.0
H892 H 0.44111 0.93367 0.52448 0.0
C893 C 0.46219 0.89734 0.58007 0.0
C894 C 0.46657 0.91445 0.62691 0.0
H895 H 0.44723 0.88006 0.47814 0.0
H896 H 0.46803 0.88711 0.59476 0.0
C897 C 0.45869 0.92734 0.60584 0.0
C898 C 0.05651 0.5177 0.57007 0.0
C899 C 0.07278 0.53711 0.59285 0.0
H900 H 0.04504 0.49334 0.48693 0.0
C901 C 0.09075 0.54672 0.54744 0.0
H902 H 0.04243 0.50985 0.60363 0.0
C903 C 0.09227 0.53716 0.48012 0.0
C904 C 0.07581 0.51789 0.45685 0.0
H905 H 0.10355 0.56168 0.5635 0.0
H906 H 0.10624 0.54496 0.44594 0.0
C907 C 0.05798 0.50824 0.50286 0.0
C908 C 0.46159 0.53388 0.58848 0.0
C909 C 0.44224 0.53031 0.61428 0.0
H910 H 0.48539 0.54781 0.50378 0.0
C911 C 0.43203 0.53868 0.5725 0.0
H912 H 0.46986 0.52762 0.6192 0.0
C913 C 0.44101 0.55035 0.50605 0.0
C914 C 0.4603 0.55376 0.48003 0.0
H915 H 0.41709 0.53618 0.59093 0.0
H916 H 0.43279 0.55659 0.47492 0.0
C917 C 0.47049 0.54542 0.52206 0.0
C918 C 0.56563 0.78873 0.26422 0.0
C919 C 0.58446 0.79714 0.22408 0.0
H920 H 0.54794 0.77076 0.36089 0.0
C921 C 0.60017 0.79376 0.25212 0.0
H922 H 0.55325 0.79109 0.24397 0.0
C923 C 0.59723 0.78237 0.31911 0.0
C924 C 0.57843 0.77391 0.35934 0.0
H925 H 0.61489 0.8001 0.22276 0.0
H926 H 0.60969 0.78009 0.33903 0.0
C927 C 0.56261 0.77712 0.33114 0.0
C928 C 0.20211 0.80252 0.25262 0.0
C929 C 0.21069 0.79241 0.29355 0.0
H930 H 0.1838 0.80177 0.15686 0.0
C931 C 0.20703 0.77302 0.26732 0.0
H932 H 0.20465 0.81748 0.27113 0.0
C933 C 0.19498 0.76393 0.20154 0.0
C934 C 0.18645 0.77411 0.16061 0.0
H935 H 0.21344 0.76483 0.29761 0.0
H936 H 0.19239 0.74898 0.18277 0.0
C937 C 0.19017 0.7935 0.18689 0.0
C938 C 0.21399 0.43843 0.27143 0.0
C939 C 0.20579 0.42045 0.22591 0.0
H940 H 0.21039 0.45291 0.37272 0.0
C941 C 0.18742 0.4029 0.24925 0.0
H942 H 0.22812 0.45219 0.25473 0.0
C943 C 0.17744 0.40325 0.31657 0.0
C944 C 0.18546 0.42122 0.36197 0.0
H945 H 0.18073 0.38877 0.21569 0.0
H946 H 0.16329 0.38941 0.33261 0.0
C947 C 0.20383 0.43885 0.33877 0.0
C948 C 0.21867 0.43463 0.79807 0.0
C949 C 0.20889 0.43639 0.86461 0.0
H950 H 0.21616 0.42756 0.67779 0.0
C951 C 0.18931 0.43459 0.85769 0.0
H952 H 0.23388 0.43618 0.80118 0.0
C953 C 0.17914 0.42966 0.78649 0.0
C954 C 0.18838 0.42642 0.72126 0.0
H955 H 0.18141 0.43595 0.90783 0.0
H956 H 0.16366 0.42741 0.78349 0.0
C957 C 0.20851 0.42964 0.72724 0.0
C958 C 0.59469 0.80613 0.81325 0.0
C959 C 0.57727 0.79462 0.8599 0.0
H960 H 0.61138 0.80683 0.71243 0.0
C961 C 0.56274 0.77432 0.83782 0.0
H962 H 0.60614 0.82184 0.82831 0.0
C963 C 0.56578 0.76563 0.77089 0.0
C964 C 0.58336 0.77714 0.72484 0.0
H965 H 0.54914 0.76507 0.87254 0.0
H966 H 0.55447 0.74989 0.75563 0.0
C967 C 0.59768 0.79751 0.74655 0.0
C968 C 0.1805 0.77922 0.75272 0.0
C969 C 0.1907 0.77047 0.79209 0.0
H970 H 0.18073 0.79737 0.65759 0.0
C971 C 0.20965 0.77358 0.76341 0.0
H972 H 0.16582 0.77705 0.77301 0.0
C973 C 0.21829 0.78535 0.69683 0.0
C974 C 0.20803 0.79408 0.65763 0.0
H975 H 0.21786 0.767 0.79246 0.0
H976 H 0.23297 0.78763 0.67622 0.0
C977 C 0.18903 0.79082 0.68621 0.0
C978 C 0.09073 0.53323 0.97903 0.0
C979 C 0.07816 0.54138 0.95643 0.0
H980 H 0.096 0.51501 0.06152 0.0
C981 C 0.06116 0.53759 0.00256 0.0
H982 H 0.10397 0.53591 0.94474 0.0
C983 C 0.05668 0.52576 0.06934 0.0
C984 C 0.06903 0.51735 0.09151 0.0
H985 H 0.05119 0.5437 0.98704 0.0
H986 H 0.04334 0.52303 0.10309 0.0
C987 C 0.08618 0.52128 0.04592 0.0
C988 C 0.44279 0.55283 0.00439 0.0
C989 C 0.4375 0.53283 0.97965 0.0
H990 H 0.4585 0.57667 0.08888 0.0
C991 C 0.44386 0.52126 0.02383 0.0
H992 H 0.43807 0.56211 0.97162 0.0
C993 C 0.45539 0.52951 0.09086 0.0
C994 C 0.46094 0.54958 0.11524 0.0
H995 H 0.43997 0.50577 0.00667 0.0
H996 H 0.46013 0.52017 0.1231 0.0
C997 C 0.45445 0.56115 0.07155 0.0
C998 C 0.47476 0.92118 0.04349 0.0
C999 C 0.4633 0.90413 0.99484 0.0
H1000 H 0.47535 0.93714 0.14647 0.0
C1001 C 0.44305 0.88936 0.01602 0.0
H1002 H 0.49046 0.93279 0.02928 0.0
C1003 C 0.43431 0.89189 0.08374 0.0
C1004 C 0.44572 0.90919 0.13151 0.0
H1005 H 0.43385 0.87602 0.97981 0.0
H1006 H 0.41855 0.88047 0.09807 0.0
C1007 C 0.4661 0.92366 0.11099 0.0
C1008 C 0.23357 0.35362 0.12922 0.0
C1009 C 0.22942 0.36521 0.07576 0.0
H1010 H 0.22557 0.32346 0.17004 0.0
C1011 C 0.21421 0.35476 0.01918 0.0
H1012 H 0.24523 0.36122 0.17339 0.0
C1013 C 0.20292 0.33324 0.01754 0.0
C1014 C 0.20665 0.32162 0.07213 0.0
H1015 H 0.21064 0.36319 0.97695 0.0
H1016 H 0.19106 0.32573 0.97397 0.0
C1017 C 0.22232 0.33201 0.12727 0.0
C1018 C 0.68857 0.89647 0.04508 0.0
C1019 C 0.69183 0.8965 0.12498 0.0
H1020 H 0.66649 0.88722 0.95339 0.0
C1021 C 0.67473 0.88858 0.1747 0.0
H1022 H 0.70143 0.90254 0.00518 0.0
C1023 C 0.65473 0.8799 0.14504 0.0
C1024 C 0.65138 0.87885 0.06493 0.0
H1025 H 0.67672 0.88851 0.23655 0.0
H1026 H 0.64187 0.87332 0.18496 0.0
C1027 C 0.66853 0.88769 0.01534 0.0
C1028 C 0.09156 0.75922 0.93156 0.0
C1029 C 0.10184 0.75328 0.98462 0.0
H1030 H 0.07388 0.77427 0.91419 0.0
C1031 C 0.10017 0.7563 0.06379 0.0
H1032 H 0.09241 0.75698 0.87022 0.0
C1033 C 0.08961 0.76628 0.08899 0.0
C1034 C 0.08041 0.77335 0.03559 0.0
H1035 H 0.10779 0.75179 0.10629 0.0
H1036 H 0.08938 0.76915 0.15014 0.0
C1037 C 0.0809 0.76911 0.95682 0.0
C1038 C 0.31744 0.22154 0.46088 0.0
C1039 C 0.31279 0.21881 0.38165 0.0
H1040 H 0.34097 0.23256 0.54751 0.0
C1041 C 0.32907 0.22722 0.32818 0.0
H1042 H 0.30524 0.2154 0.50362 0.0
C1043 C 0.34957 0.23703 0.3534 0.0
C1044 C 0.3542 0.23869 0.43262 0.0
H1045 H 0.32602 0.22549 0.26676 0.0
H1046 H 0.36176 0.24261 0.31067 0.0
C1047 C 0.33794 0.23142 0.4861 0.0
C1048 C 0.76797 0.10186 0.50009 0.0
C1049 C 0.75997 0.11046 0.44792 0.0
H1050 H 0.78463 0.08568 0.51485 0.0
C1051 C 0.76077 0.10706 0.36848 0.0
H1052 H 0.76747 0.10406 0.56166 0.0
C1053 C 0.77059 0.09649 0.34158 0.0
C1054 C 0.77983 0.08913 0.39355 0.0
H1055 H 0.7546 0.11332 0.32671 0.0
H1056 H 0.77174 0.09495 0.27992 0.0
C1057 C 0.77781 0.09131 0.47319 0.0
C1058 C 0.87652 0.6911 0.30216 0.0
C1059 C 0.88776 0.70154 0.36835 0.0
H1060 H 0.85682 0.66194 0.24824 0.0
C1061 C 0.88818 0.68998 0.43143 0.0
H1062 H 0.87585 0.69956 0.25263 0.0
C1063 C 0.8774 0.6684 0.42867 0.0
C1064 C 0.86579 0.65796 0.36308 0.0
H1065 H 0.89676 0.69759 0.48318 0.0
H1066 H 0.87786 0.65991 0.4785 0.0
C1067 C 0.86557 0.66953 0.2997 0.0
C1068 C 0.78076 0.66019 0.93859 0.0
C1069 C 0.79193 0.67057 0.00502 0.0
H1070 H 0.76157 0.631 0.88357 0.0
C1071 C 0.79139 0.65893 0.06944 0.0
H1072 H 0.78089 0.66872 0.88798 0.0
C1073 C 0.78021 0.63737 0.06715 0.0
C1074 C 0.76948 0.62696 0.00012 0.0
H1075 H 0.79976 0.66646 0.12163 0.0
H1076 H 0.78035 0.62889 0.11751 0.0
C1077 C 0.76973 0.63858 0.93601 0.0
C1078 C 0.33242 0.10248 0.98552 0.0
C1079 C 0.34882 0.11095 0.93253 0.0
H1080 H 0.2997 0.08731 0.00214 0.0
C1081 C 0.34433 0.10853 0.85317 0.0
H1082 H 0.33535 0.10396 0.04702 0.0
C1083 C 0.3239 0.099 0.82741 0.0
C1084 C 0.30753 0.09167 0.88044 0.0
H1085 H 0.3566 0.11474 0.81075 0.0
H1086 H 0.32101 0.09813 0.76593 0.0
C1087 C 0.31197 0.09293 0.95973 0.0
C1088 C 0.89957 0.22998 0.84083 0.0
C1089 C 0.90657 0.22032 0.8924 0.0
H1090 H 0.8833 0.24659 0.82676 0.0
C1091 C 0.90447 0.22231 0.9721 0.0
H1092 H 0.90108 0.22888 0.77912 0.0
C1093 C 0.89429 0.23246 -0.00056 0.0
C1094 C 0.886 0.24086 0.9477 0.0
H1095 H 0.90988 0.21522 0.01351 0.0
H1096 H 0.89212 0.23288 0.06105 0.0
C1097 C 0.88939 0.24017 0.8682 0.0
C1098 C 0.6881 0.77781 0.54426 0.0
C1099 C 0.69144 0.7789 0.62436 0.0
H1100 H 0.66608 0.7689 0.45276 0.0
C1101 C 0.6743 0.76977 0.67395 0.0
H1102 H 0.70096 0.7846 0.50436 0.0
C1103 C 0.65425 0.76068 0.64421 0.0
C1104 C 0.65098 0.76064 0.56433 0.0
H1105 H 0.67636 0.77025 0.73589 0.0
H1106 H 0.64138 0.75442 0.68409 0.0
C1107 C 0.66808 0.76883 0.51459 0.0
C1108 C 0.20956 0.8989 0.52324 0.0
C1109 C 0.20941 0.89914 0.6044 0.0
H1110 H 0.2175 0.88831 0.42094 0.0
C1111 C 0.2195 0.89041 0.64461 0.0
H1112 H 0.20202 0.90559 0.49038 0.0
C1113 C 0.22843 0.88055 0.60468 0.0
C1114 C 0.22739 0.87914 0.52368 0.0
H1115 H 0.21979 0.89044 0.70706 0.0
H1116 H 0.23536 0.87326 0.63764 0.0
C1117 C 0.21842 0.88897 0.48331 0.0
C1118 C 0.11482 0.3319 0.72268 0.0
C1119 C 0.11558 0.34029 0.64942 0.0
H1120 H 0.10729 0.30479 0.78837 0.0
C1121 C 0.10848 0.327 0.58523 0.0
H1122 H 0.12017 0.34172 0.77333 0.0
C1123 C 0.1012 0.30589 0.5938 0.0
C1124 C 0.10078 0.29754 0.66681 0.0
H1125 H 0.10885 0.33293 0.52796 0.0
H1126 H 0.09608 0.29615 0.54292 0.0
C1127 C 0.10747 0.31074 0.7313 0.0
C1128 C 0.00849 0.56453 0.67781 0.0
C1129 C 0.01309 0.56668 0.75709 0.0
H1130 H 0.98507 0.55452 0.59102 0.0
C1131 C -0.00291 0.56176 0.8102 0.0
H1132 H 0.02049 0.56832 0.6353 0.0
C1133 C 0.97675 0.5538 0.78476 0.0
C1134 C 0.972 0.55066 0.70565 0.0
H1135 H 0.00011 0.56333 0.87164 0.0
H1136 H 0.96467 0.54948 0.82735 0.0
C1137 C 0.98817 0.55664 0.65236 0.0
C1138 C 0.4278 0.43562 0.82844 0.0
C1139 C 0.42041 0.44509 0.77762 0.0
H1140 H 0.44467 0.41957 0.84098 0.0
C1141 C 0.4226 0.44346 0.69775 0.0
H1142 H 0.42625 0.43648 0.89025 0.0
C1143 C 0.43319 0.43383 0.66952 0.0
C1144 C 0.44177 0.42555 0.7205 0.0
H1145 H 0.41693 0.45043 0.65691 0.0
H1146 H 0.43536 0.43362 0.60782 0.0
C1147 C 0.43836 0.42592 0.80015 0.0
C1148 C 0.55841 0.98585 0.65008 0.0
C1149 C 0.55104 0.97682 0.72267 0.0
H1150 H 0.57404 0.01383 0.58491 0.0
C1151 C 0.55569 0.98972 0.78758 0.0
H1152 H 0.55517 0.97634 0.599 0.0
C1153 C 0.56651 0.01116 0.77957 0.0
C1154 C 0.5729 0.0202 0.70643 0.0
H1155 H 0.5504 0.98327 0.84449 0.0
H1156 H 0.5692 0.02062 0.83046 0.0
C1157 C 0.56923 0.00734 0.64203 0.0
C1158 C 0.44182 0.01183 0.32399 0.0
C1159 C 0.44547 0.01658 0.24508 0.0
H1160 H 0.42945 0.98816 0.40987 0.0
C1161 C 0.43743 0.00037 0.19106 0.0
H1162 H 0.44768 0.02397 0.3671 0.0
C1163 C 0.42702 0.97983 0.21563 0.0
C1164 C 0.42437 0.97508 0.29472 0.0
H1165 H 0.43987 0.0035 0.12984 0.0
H1166 H 0.4217 0.9677 0.17262 0.0
C1167 C 0.43133 0.99129 0.34855 0.0
C1168 C 0.99021 0.43353 0.18313 0.0
C1169 C 0.99508 0.4376 0.2619 0.0
H1170 H 0.96669 0.42306 0.09645 0.0
C1171 C 0.97904 0.43245 0.31505 0.0
H1172 H 0.0022 0.43723 0.14071 0.0
C1173 C 0.95872 0.4244 0.28964 0.0
C1174 C 0.95399 0.42126 0.21054 0.0
H1175 H 0.98225 0.43528 0.37615 0.0
H1176 H 0.94681 0.4212 0.33194 0.0
C1177 C 0.96985 0.4254 0.15771 0.0
C1178 C 0.56883 0.55297 0.29514 0.0
C1179 C 0.56846 0.54866 0.21593 0.0
H1180 H 0.55872 0.56564 0.38473 0.0
C1181 C 0.55909 0.55608 0.16482 0.0
H1182 H 0.57604 0.54759 0.33606 0.0
C1183 C 0.54913 0.56639 0.19278 0.0
C1184 C 0.54837 0.56955 0.27245 0.0
H1185 H 0.55864 0.55315 0.10344 0.0
H1186 H 0.54133 0.57117 0.15207 0.0
C1187 C 0.55889 0.56333 0.3231 0.0
loop_
_geom_bond_atom_site_label_1
_geom_bond_atom_site_label_2
_geom_bond_distance
_geom_bond_site_symmetry_2
_ccdc_geom_bond_type
C0 O1 1.160 . S
C0 O7 1.185 . S
O1 C0 1.160 . S
O2 Zn3 1.899 . S
O2 C10 1.284 . S
Zn3 O2 1.899 . S
Zn3 O4 2.032 . S
Zn3 O7 2.086 . S
Zn3 O12 1.977 . S
O4 Zn3 2.032 . S
O4 C8 1.278 . S
C5 O6 1.203 . S
C5 O12 1.267 . S
O6 C5 1.203 . S
O7 C0 1.185 . S
O7 Zn3 2.086 . S
C8 O4 1.278 . S
C8 O9 1.211 . S
O9 C8 1.211 . S
C10 O2 1.284 . S
C10 O11 1.273 . S
O11 C10 1.273 . S
O12 Zn3 1.977 . S
O12 C5 1.267 . S
C13 O14 1.160 . S
C13 O20 1.185 . S
O14 C13 1.160 . S
O15 Zn16 1.899 . S
O15 C23 1.284 . S
Zn16 O15 1.899 . S
Zn16 O17 2.032 . S
Zn16 O20 2.086 . S
Zn16 O25 1.977 . S
O17 Zn16 2.032 . S
O17 C21 1.278 . S
C18 O19 1.203 . S
C18 O25 1.267 . S
O19 C18 1.203 . S
O20 C13 1.185 . S
O20 Zn16 2.086 . S
C21 O17 1.278 . S
C21 O22 1.211 . S
O22 C21 1.211 . S
C23 O15 1.284 . S
C23 O24 1.273 . S
O24 C23 1.273 . S
O25 Zn16 1.977 . S
O25 C18 1.267 . S
C26 O27 1.160 . S
C26 O33 1.185 . S
O27 C26 1.160 . S
O28 Zn29 1.899 . S
O28 C36 1.284 . S
Zn29 O28 1.899 . S
Zn29 O30 2.032 . S
Zn29 O33 2.086 . S
Zn29 O38 1.977 . S
O30 Zn29 2.032 . S
O30 C34 1.278 . S
C31 O32 1.203 . S
C31 O38 1.267 . S
O32 C31 1.203 . S
O33 C26 1.185 . S
O33 Zn29 2.086 . S
C34 O30 1.278 . S
C34 O35 1.211 . S
O35 C34 1.211 . S
C36 O28 1.284 . S
C36 O37 1.273 . S
O37 C36 1.273 . S
O38 Zn29 1.977 . S
O38 C31 1.267 . S
C39 O40 1.160 . S
C39 O46 1.185 . S
O40 C39 1.160 . S
O41 Zn42 1.899 . S
O41 C49 1.284 . S
Zn42 O41 1.899 . S
Zn42 O43 2.032 . S
Zn42 O46 2.086 . S
Zn42 O51 1.977 . S
O43 Zn42 2.032 . S
O43 C47 1.278 . S
C44 O45 1.203 . S
C44 O51 1.267 . S
O45 C44 1.203 . S
O46 C39 1.185 . S
O46 Zn42 2.086 . S
C47 O43 1.278 . S
C47 O48 1.211 . S
O48 C47 1.211 . S
C49 O41 1.284 . S
C49 O50 1.273 . S
O50 C49 1.273 . S
O51 Zn42 1.977 . S
O51 C44 1.267 . S
C52 O53 1.160 . S
C52 O59 1.185 . S
O53 C52 1.160 . S
O54 Zn55 1.899 . S
O54 C62 1.284 . S
Zn55 O54 1.899 . S
Zn55 O56 2.032 . S
Zn55 O59 2.086 . S
Zn55 O64 1.977 . S
O56 Zn55 2.032 . S
O56 C60 1.278 . S
C57 O58 1.203 . S
C57 O64 1.267 . S
O58 C57 1.203 . S
O59 C52 1.185 . S
O59 Zn55 2.086 . S
C60 O56 1.278 . S
C60 O61 1.211 . S
O61 C60 1.211 . S
C62 O54 1.284 . S
C62 O63 1.273 . S
O63 C62 1.273 . S
O64 Zn55 1.977 . S
O64 C57 1.267 . S
C65 O66 1.160 . S
C65 O72 1.185 . S
O66 C65 1.160 . S
O67 Zn68 1.899 . S
O67 C75 1.284 . S
Zn68 O67 1.899 . S
Zn68 O69 2.032 . S
Zn68 O72 2.086 . S
Zn68 O77 1.977 . S
O69 Zn68 2.032 . S
O69 C73 1.278 . S
C70 O71 1.203 . S
C70 O77 1.267 . S
O71 C70 1.203 . S
O72 C65 1.185 . S
O72 Zn68 2.086 . S
C73 O69 1.278 . S
C73 O74 1.211 . S
O74 C73 1.211 . S
C75 O67 1.284 . S
C75 O76 1.273 . S
O76 C75 1.273 . S
O77 Zn68 1.977 . S
O77 C70 1.267 . S
C78 O79 1.160 . S
C78 O85 1.185 . S
O79 C78 1.160 . S
O80 Zn81 1.899 . S
O80 C88 1.284 . S
Zn81 O80 1.899 . S
Zn81 O82 2.032 . S
Zn81 O85 2.086 . S
Zn81 O90 1.977 . S
O82 Zn81 2.032 . S
O82 C86 1.278 . S
C83 O84 1.203 . S
C83 O90 1.267 . S
O84 C83 1.203 . S
O85 C78 1.185 . S
O85 Zn81 2.086 . S
C86 O82 1.278 . S
C86 O87 1.211 . S
O87 C86 1.211 . S
C88 O80 1.284 . S
C88 O89 1.273 . S
O89 C88 1.273 . S
O90 Zn81 1.977 . S
O90 C83 1.267 . S
C91 O92 1.160 . S
C91 O98 1.185 . S
O92 C91 1.160 . S
O93 Zn94 1.899 . S
O93 C101 1.284 . S
Zn94 O93 1.899 . S
Zn94 O95 2.032 . S
Zn94 O98 2.086 . S
Zn94 O103 1.977 . S
O95 Zn94 2.032 . S
O95 C99 1.278 . S
C96 O97 1.203 . S
C96 O103 1.267 . S
O97 C96 1.203 . S
O98 C91 1.185 . S
O98 Zn94 2.086 . S
C99 O95 1.278 . S
C99 O100 1.211 . S
O100 C99 1.211 . S
C101 O93 1.284 . S
C101 O102 1.273 . S
O102 C101 1.273 . S
O103 Zn94 1.977 . S
O103 C96 1.267 . S
C104 O105 1.160 . S
C104 O111 1.185 . S
O105 C104 1.160 . S
O106 Zn107 1.899 . S
O106 C114 1.284 . S
Zn107 O106 1.899 . S
Zn107 O108 2.032 . S
Zn107 O111 2.086 . S
Zn107 O116 1.977 . S
O108 Zn107 2.032 . S
O108 C112 1.278 . S
C109 O110 1.203 . S
C109 O116 1.267 . S
O110 C109 1.203 . S
O111 C104 1.185 . S
O111 Zn107 2.086 . S
C112 O108 1.278 . S
C112 O113 1.211 . S
O113 C112 1.211 . S
C114 O106 1.284 . S
C114 O115 1.273 . S
O115 C114 1.273 . S
O116 Zn107 1.977 . S
O116 C109 1.267 . S
C117 O118 1.160 . S
C117 O124 1.185 . S
O118 C117 1.160 . S
O119 Zn120 1.899 . S
O119 C127 1.284 . S
Zn120 O119 1.899 . S
Zn120 O121 2.032 . S
Zn120 O124 2.086 . S
Zn120 O129 1.977 . S
O121 Zn120 2.032 . S
O121 C125 1.278 . S
C122 O123 1.203 . S
C122 O129 1.267 . S
O123 C122 1.203 . S
O124 C117 1.185 . S
O124 Zn120 2.086 . S
C125 O121 1.278 . S
C125 O126 1.211 . S
O126 C125 1.211 . S
C127 O119 1.284 . S
C127 O128 1.273 . S
O128 C127 1.273 . S
O129 Zn120 1.977 . S
O129 C122 1.267 . S
C130 O131 1.160 . S
C130 O137 1.185 . S
O131 C130 1.160 . S
O132 Zn133 1.899 . S
O132 C140 1.284 . S
Zn133 O132 1.899 . S
Zn133 O134 2.032 . S
Zn133 O137 2.086 . S
Zn133 O142 1.977 . S
O134 Zn133 2.032 . S
O134 C138 1.278 . S
C135 O136 1.203 . S
C135 O142 1.267 . S
O136 C135 1.203 . S
O137 C130 1.185 . S
O137 Zn133 2.086 . S
C138 O134 1.278 . S
C138 O139 1.211 . S
O139 C138 1.211 . S
C140 O132 1.284 . S
C140 O141 1.273 . S
O141 C140 1.273 . S
O142 Zn133 1.977 . S
O142 C135 1.267 . S
C143 O144 1.160 . S
C143 O150 1.185 . S
O144 C143 1.160 . S
O145 Zn146 1.899 . S
O145 C153 1.284 . S
Zn146 O145 1.899 . S
Zn146 O147 2.032 . S
Zn146 O150 2.086 . S
Zn146 O155 1.977 . S
O147 Zn146 2.032 . S
O147 C151 1.278 . S
C148 O149 1.203 . S
C148 O155 1.267 . S
O149 C148 1.203 . S
O150 C143 1.185 . S
O150 Zn146 2.086 . S
C151 O147 1.278 . S
C151 O152 1.211 . S
O152 C151 1.211 . S
C153 O145 1.284 . S
C153 O154 1.273 . S
O154 C153 1.273 . S
O155 Zn146 1.977 . S
O155 C148 1.267 . S
C156 O157 1.160 . S
C156 O163 1.185 . S
O157 C156 1.160 . S
O158 Zn159 1.899 . S
O158 C166 1.284 . S
Zn159 O158 1.899 . S
Zn159 O160 2.032 . S
Zn159 O163 2.086 . S
Zn159 O168 1.977 . S
O160 Zn159 2.032 . S
O160 C164 1.278 . S
C161 O162 1.203 . S
C161 O168 1.267 . S
O162 C161 1.203 . S
O163 C156 1.185 . S
O163 Zn159 2.086 . S
C164 O160 1.278 . S
C164 O165 1.211 . S
O165 C164 1.211 . S
C166 O158 1.284 . S
C166 O167 1.273 . S
O167 C166 1.273 . S
O168 Zn159 1.977 . S
O168 C161 1.267 . S
C169 O170 1.160 . S
C169 O176 1.185 . S
O170 C169 1.160 . S
O171 Zn172 1.899 . S
O171 C179 1.284 . S
Zn172 O171 1.899 . S
Zn172 O173 2.032 . S
Zn172 O176 2.086 . S
Zn172 O181 1.977 . S
O173 Zn172 2.032 . S
O173 C177 1.278 . S
C174 O175 1.203 . S
C174 O181 1.267 . S
O175 C174 1.203 . S
O176 C169 1.185 . S
O176 Zn172 2.086 . S
C177 O173 1.278 . S
C177 O178 1.211 . S
O178 C177 1.211 . S
C179 O171 1.284 . S
C179 O180 1.273 . S
O180 C179 1.273 . S
O181 Zn172 1.977 . S
O181 C174 1.267 . S
C182 O183 1.160 . S
C182 O189 1.185 . S
O183 C182 1.160 . S
O184 Zn185 1.899 . S
O184 C192 1.284 . S
Zn185 O184 1.899 . S
Zn185 O186 2.032 . S
Zn185 O189 2.086 . S
Zn185 O194 1.977 . S
O186 Zn185 2.032 . S
O186 C190 1.278 . S
C187 O188 1.203 . S
C187 O194 1.267 . S
O188 C187 1.203 . S
O189 C182 1.185 . S
O189 Zn185 2.086 . S
C190 O186 1.278 . S
C190 O191 1.211 . S
O191 C190 1.211 . S
C192 O184 1.284 . S
C192 O193 1.273 . S
O193 C192 1.273 . S
O194 Zn185 1.977 . S
O194 C187 1.267 . S
C195 O196 1.160 . S
C195 O202 1.185 . S
O196 C195 1.160 . S
O197 Zn198 1.899 . S
O197 C205 1.284 . S
Zn198 O197 1.899 . S
Zn198 O199 2.032 . S
Zn198 O202 2.086 . S
Zn198 O207 1.977 . S
O199 Zn198 2.032 . S
O199 C203 1.278 . S
C200 O201 1.203 . S
C200 O207 1.267 . S
O201 C200 1.203 . S
O202 C195 1.185 . S
O202 Zn198 2.086 . S
C203 O199 1.278 . S
C203 O204 1.211 . S
O204 C203 1.211 . S
C205 O197 1.284 . S
C205 O206 1.273 . S
O206 C205 1.273 . S
O207 Zn198 1.977 . S
O207 C200 1.267 . S
C208 O209 1.160 . S
C208 O215 1.185 . S
O209 C208 1.160 . S
O210 Zn211 1.899 . S
O210 C218 1.284 . S
Zn211 O210 1.899 . S
Zn211 O212 2.032 . S
Zn211 O215 2.086 . S
Zn211 O220 1.977 . S
O212 Zn211 2.032 . S
O212 C216 1.278 . S
C213 O214 1.203 . S
C213 O220 1.267 . S
O214 C213 1.203 . S
O215 C208 1.185 . S
O215 Zn211 2.086 . S
C216 O212 1.278 . S
C216 O217 1.211 . S
O217 C216 1.211 . S
C218 O210 1.284 . S
C218 O219 1.273 . S
O219 C218 1.273 . S
O220 Zn211 1.977 . S
O220 C213 1.267 . S
C221 O222 1.160 . S
C221 O228 1.185 . S
O222 C221 1.160 . S
O223 Zn224 1.899 . S
O223 C231 1.284 . S
Zn224 O223 1.899 . S
Zn224 O225 2.032 . S
Zn224 O228 2.086 . S
Zn224 O233 1.977 . S
O225 Zn224 2.032 . S
O225 C229 1.278 . S
C226 O227 1.203 . S
C226 O233 1.267 . S
O227 C226 1.203 . S
O228 C221 1.185 . S
O228 Zn224 2.086 . S
C229 O225 1.278 . S
C229 O230 1.211 . S
O230 C229 1.211 . S
C231 O223 1.284 . S
C231 O232 1.273 . S
O232 C231 1.273 . S
O233 Zn224 1.977 . S
O233 C226 1.267 . S
C234 O235 1.160 . S
C234 O241 1.185 . S
O235 C234 1.160 . S
O236 Zn237 1.899 . S
O236 C244 1.284 . S
Zn237 O236 1.899 . S
Zn237 O238 2.032 . S
Zn237 O241 2.086 . S
Zn237 O246 1.977 . S
O238 Zn237 2.032 . S
O238 C242 1.278 . S
C239 O240 1.203 . S
C239 O246 1.267 . S
O240 C239 1.203 . S
O241 C234 1.185 . S
O241 Zn237 2.086 . S
C242 O238 1.278 . S
C242 O243 1.211 . S
O243 C242 1.211 . S
C244 O236 1.284 . S
C244 O245 1.273 . S
O245 C244 1.273 . S
O246 Zn237 1.977 . S
O246 C239 1.267 . S
C247 O248 1.160 . S
C247 O254 1.185 . S
O248 C247 1.160 . S
O249 Zn250 1.899 . S
O249 C257 1.284 . S
Zn250 O249 1.899 . S
Zn250 O251 2.032 . S
Zn250 O254 2.086 . S
Zn250 O259 1.977 . S
O251 Zn250 2.032 . S
O251 C255 1.278 . S
C252 O253 1.203 . S
C252 O259 1.267 . S
O253 C252 1.203 . S
O254 C247 1.185 . S
O254 Zn250 2.086 . S
C255 O251 1.278 . S
C255 O256 1.211 . S
O256 C255 1.211 . S
C257 O249 1.284 . S
C257 O258 1.273 . S
O258 C257 1.273 . S
O259 Zn250 1.977 . S
O259 C252 1.267 . S
C260 O261 1.160 . S
C260 O267 1.185 . S
O261 C260 1.160 . S
O262 Zn263 1.899 . S
O262 C270 1.284 . S
Zn263 O262 1.899 . S
Zn263 O264 2.032 . S
Zn263 O267 2.086 . S
Zn263 O272 1.977 . S
O264 Zn263 2.032 . S
O264 C268 1.278 . S
C265 O266 1.203 . S
C265 O272 1.267 . S
O266 C265 1.203 . S
O267 C260 1.185 . S
O267 Zn263 2.086 . S
C268 O264 1.278 . S
C268 O269 1.211 . S
O269 C268 1.211 . S
C270 O262 1.284 . S
C270 O271 1.273 . S
O271 C270 1.273 . S
O272 Zn263 1.977 . S
O272 C265 1.267 . S
C273 O274 1.160 . S
C273 O280 1.185 1_554 S
O274 C273 1.160 . S
O275 Zn276 1.899 . S
O275 C283 1.284 . S
Zn276 O275 1.899 . S
Zn276 O277 2.032 1_556 S
Zn276 O280 2.086 . S
Zn276 O285 1.977 . S
O277 Zn276 2.032 1_554 S
O277 C281 1.278 . S
C278 O279 1.203 . S
C278 O285 1.267 . S
O279 C278 1.203 . S
O280 C273 1.185 1_556 S
O280 Zn276 2.086 . S
C281 O277 1.278 . S
C281 O282 1.211 . S
O282 C281 1.211 . S
C283 O275 1.284 . S
C283 O284 1.273 1_556 S
O284 C283 1.273 1_554 S
O285 Zn276 1.977 . S
O285 C278 1.267 . S
C286 O287 1.160 . S
C286 O293 1.185 1_554 S
O287 C286 1.160 . S
O288 Zn289 1.899 . S
O288 C296 1.284 . S
Zn289 O288 1.899 . S
Zn289 O290 2.032 1_556 S
Zn289 O293 2.086 . S
Zn289 O298 1.977 . S
O290 Zn289 2.032 1_554 S
O290 C294 1.278 . S
C291 O292 1.203 . S
C291 O298 1.267 . S
O292 C291 1.203 . S
O293 C286 1.185 1_556 S
O293 Zn289 2.086 . S
C294 O290 1.278 . S
C294 O295 1.211 . S
O295 C294 1.211 . S
C296 O288 1.284 . S
C296 O297 1.273 1_556 S
O297 C296 1.273 1_554 S
O298 Zn289 1.977 . S
O298 C291 1.267 . S
C299 O300 1.160 . S
C299 O306 1.185 1_554 S
O300 C299 1.160 . S
O301 Zn302 1.899 . S
O301 C309 1.284 . S
Zn302 O301 1.899 . S
Zn302 O303 2.032 1_556 S
Zn302 O306 2.086 . S
Zn302 O311 1.977 . S
O303 Zn302 2.032 1_554 S
O303 C307 1.278 . S
C304 O305 1.203 . S
C304 O311 1.267 . S
O305 C304 1.203 . S
O306 C299 1.185 1_556 S
O306 Zn302 2.086 . S
C307 O303 1.278 . S
C307 O308 1.211 . S
O308 C307 1.211 . S
C309 O301 1.284 . S
C309 O310 1.273 1_556 S
O310 C309 1.273 1_554 S
O311 Zn302 1.977 . S
O311 C304 1.267 . S
C312 O313 1.160 . S
C312 O319 1.185 . S
O313 C312 1.160 . S
O314 Zn315 1.899 . S
O314 C322 1.284 . S
Zn315 O314 1.899 . S
Zn315 O316 2.032 . S
Zn315 O319 2.086 . S
Zn315 O324 1.977 . S
O316 Zn315 2.032 . S
O316 C320 1.278 . S
C317 O318 1.203 . S
C317 O324 1.267 . S
O318 C317 1.203 . S
O319 C312 1.185 . S
O319 Zn315 2.086 . S
C320 O316 1.278 . S
C320 O321 1.211 . S
O321 C320 1.211 . S
C322 O314 1.284 . S
C322 O323 1.273 . S
O323 C322 1.273 . S
O324 Zn315 1.977 . S
O324 C317 1.267 . S
C325 O326 1.160 . S
C325 O332 1.185 . S
O326 C325 1.160 . S
O327 Zn328 1.899 . S
O327 C335 1.284 . S
Zn328 O327 1.899 . S
Zn328 O329 2.032 . S
Zn328 O332 2.086 . S
Zn328 O337 1.977 . S
O329 Zn328 2.032 . S
O329 C333 1.278 . S
C330 O331 1.203 . S
C330 O337 1.267 . S
O331 C330 1.203 . S
O332 C325 1.185 . S
O332 Zn328 2.086 . S
C333 O329 1.278 . S
C333 O334 1.211 . S
O334 C333 1.211 . S
C335 O327 1.284 . S
C335 O336 1.273 . S
O336 C335 1.273 . S
O337 Zn328 1.977 . S
O337 C330 1.267 . S
C338 O339 1.160 . S
C338 O345 1.185 . S
O339 C338 1.160 . S
O340 Zn341 1.899 . S
O340 C348 1.284 . S
Zn341 O340 1.899 . S
Zn341 O342 2.032 . S
Zn341 O345 2.086 . S
Zn341 O350 1.977 . S
O342 Zn341 2.032 . S
O342 C346 1.278 . S
C343 O344 1.203 . S
C343 O350 1.267 . S
O344 C343 1.203 . S
O345 C338 1.185 . S
O345 Zn341 2.086 . S
C346 O342 1.278 . S
C346 O347 1.211 . S
O347 C346 1.211 . S
C348 O340 1.284 . S
C348 O349 1.273 . S
O349 C348 1.273 . S
O350 Zn341 1.977 . S
O350 C343 1.267 . S
C351 O352 1.160 . S
C351 O358 1.185 1_556 S
O352 C351 1.160 . S
O353 Zn354 1.899 . S
O353 C361 1.284 . S
Zn354 O353 1.899 . S
Zn354 O355 2.032 1_554 S
Zn354 O358 2.086 . S
Zn354 O363 1.977 . S
O355 Zn354 2.032 1_556 S
O355 C359 1.278 . S
C356 O357 1.203 . S
C356 O363 1.267 . S
O357 C356 1.203 . S
O358 C351 1.185 1_554 S
O358 Zn354 2.086 . S
C359 O355 1.278 . S
C359 O360 1.211 . S
O360 C359 1.211 . S
C361 O353 1.284 . S
C361 O362 1.273 1_554 S
O362 C361 1.273 1_556 S
O363 Zn354 1.977 . S
O363 C356 1.267 . S
C364 O365 1.160 . S
C364 O371 1.185 1_556 S
O365 C364 1.160 . S
O366 Zn367 1.899 . S
O366 C374 1.284 . S
Zn367 O366 1.899 . S
Zn367 O368 2.032 1_554 S
Zn367 O371 2.086 . S
Zn367 O376 1.977 . S
O368 Zn367 2.032 1_556 S
O368 C372 1.278 . S
C369 O370 1.203 . S
C369 O376 1.267 . S
O370 C369 1.203 . S
O371 C364 1.185 1_554 S
O371 Zn367 2.086 . S
C372 O368 1.278 . S
C372 O373 1.211 . S
O373 C372 1.211 . S
C374 O366 1.284 . S
C374 O375 1.273 1_554 S
O375 C374 1.273 1_556 S
O376 Zn367 1.977 . S
O376 C369 1.267 . S
C377 O378 1.160 . S
C377 O384 1.185 1_556 S
O378 C377 1.160 . S
O379 Zn380 1.899 . S
O379 C387 1.284 . S
Zn380 O379 1.899 . S
Zn380 O381 2.032 1_554 S
Zn380 O384 2.086 . S
Zn380 O389 1.977 . S
O381 Zn380 2.032 1_556 S
O381 C385 1.278 . S
C382 O383 1.203 . S
C382 O389 1.267 . S
O383 C382 1.203 . S
O384 C377 1.185 1_554 S
O384 Zn380 2.086 . S
C385 O381 1.278 . S
C385 O386 1.211 . S
O386 C385 1.211 . S
C387 O379 1.284 . S
C387 O388 1.273 1_554 S
O388 C387 1.273 1_556 S
O389 Zn380 1.977 . S
O389 C382 1.267 . S
C390 O391 1.160 . S
C390 O397 1.185 . S
O391 C390 1.160 . S
O392 Zn393 1.899 . S
O392 C400 1.284 . S
Zn393 O392 1.899 . S
Zn393 O394 2.032 . S
Zn393 O397 2.086 . S
Zn393 O402 1.977 . S
O394 Zn393 2.032 . S
O394 C398 1.278 . S
C395 O396 1.203 . S
C395 O402 1.267 . S
O396 C395 1.203 . S
O397 C390 1.185 . S
O397 Zn393 2.086 . S
C398 O394 1.278 . S
C398 O399 1.211 . S
O399 C398 1.211 . S
C400 O392 1.284 . S
C400 O401 1.273 . S
O401 C400 1.273 . S
O402 Zn393 1.977 . S
O402 C395 1.267 . S
C403 O404 1.160 . S
C403 O410 1.185 . S
O404 C403 1.160 . S
O405 Zn406 1.899 . S
O405 C413 1.284 . S
Zn406 O405 1.899 . S
Zn406 O407 2.032 . S
Zn406 O410 2.086 . S
Zn406 O415 1.977 . S
O407 Zn406 2.032 . S
O407 C411 1.278 . S
C408 O409 1.203 . S
C408 O415 1.267 . S
O409 C408 1.203 . S
O410 C403 1.185 . S
O410 Zn406 2.086 . S
C411 O407 1.278 . S
C411 O412 1.211 . S
O412 C411 1.211 . S
C413 O405 1.284 . S
C413 O414 1.273 . S
O414 C413 1.273 . S
O415 Zn406 1.977 . S
O415 C408 1.267 . S
C416 O417 1.160 . S
C416 O423 1.185 . S
O417 C416 1.160 . S
O418 Zn419 1.899 . S
O418 C426 1.284 . S
Zn419 O418 1.899 . S
Zn419 O420 2.032 . S
Zn419 O423 2.086 . S
Zn419 O428 1.977 . S
O420 Zn419 2.032 . S
O420 C424 1.278 . S
C421 O422 1.203 . S
C421 O428 1.267 . S
O422 C421 1.203 . S
O423 C416 1.185 . S
O423 Zn419 2.086 . S
C424 O420 1.278 . S
C424 O425 1.211 . S
O425 C424 1.211 . S
C426 O418 1.284 . S
C426 O427 1.273 . S
O427 C426 1.273 . S
O428 Zn419 1.977 . S
O428 C421 1.267 . S
C429 O430 1.160 . S
C429 O436 1.185 . S
O430 C429 1.160 . S
O431 Zn432 1.899 . S
O431 C439 1.284 . S
Zn432 O431 1.899 . S
Zn432 O433 2.032 . S
Zn432 O436 2.086 . S
Zn432 O441 1.977 . S
O433 Zn432 2.032 . S
O433 C437 1.278 . S
C434 O435 1.203 . S
C434 O441 1.267 . S
O435 C434 1.203 . S
O436 C429 1.185 . S
O436 Zn432 2.086 . S
C437 O433 1.278 . S
C437 O438 1.211 . S
O438 C437 1.211 . S
C439 O431 1.284 . S
C439 O440 1.273 . S
O440 C439 1.273 . S
O441 Zn432 1.977 . S
O441 C434 1.267 . S
C442 O443 1.160 . S
C442 O449 1.185 . S
O443 C442 1.160 . S
O444 Zn445 1.899 . S
O444 C452 1.284 . S
Zn445 O444 1.899 . S
Zn445 O446 2.032 . S
Zn445 O449 2.086 . S
Zn445 O454 1.977 . S
O446 Zn445 2.032 . S
O446 C450 1.278 . S
C447 O448 1.203 . S
C447 O454 1.267 . S
O448 C447 1.203 . S
O449 C442 1.185 . S
O449 Zn445 2.086 . S
C450 O446 1.278 . S
C450 O451 1.211 . S
O451 C450 1.211 . S
C452 O444 1.284 . S
C452 O453 1.273 . S
O453 C452 1.273 . S
O454 Zn445 1.977 . S
O454 C447 1.267 . S
C455 O456 1.160 . S
C455 O462 1.185 . S
O456 C455 1.160 . S
O457 Zn458 1.899 . S
O457 C465 1.284 . S
Zn458 O457 1.899 . S
Zn458 O459 2.032 . S
Zn458 O462 2.086 . S
Zn458 O467 1.977 . S
O459 Zn458 2.032 . S
O459 C463 1.278 . S
C460 O461 1.203 . S
C460 O467 1.267 . S
O461 C460 1.203 . S
O462 C455 1.185 . S
O462 Zn458 2.086 . S
C463 O459 1.278 . S
C463 O464 1.211 . S
O464 C463 1.211 . S
C465 O457 1.284 . S
C465 O466 1.273 . S
O466 C465 1.273 . S
O467 Zn458 1.977 . S
O467 C460 1.267 . S
C468 C469 1.387 . S
C468 H472 0.950 . S
C468 C477 1.390 . S
C469 C468 1.387 . S
C469 C471 1.387 . S
H470 C477 0.950 . S
C471 C469 1.387 . S
C471 C473 1.390 . S
C471 H475 0.950 . S
H472 C468 0.950 . S
C473 C471 1.390 . S
C473 C474 1.387 . S
C473 H476 0.950 . S
C474 C473 1.387 . S
C474 C477 1.387 . S
H475 C471 0.950 . S
H476 C473 0.950 . S
C477 C468 1.390 . S
C477 H470 0.950 . S
C477 C474 1.387 . S
C478 C479 1.387 . S
C478 H482 0.950 . S
C478 C487 1.390 1_545 S
C479 C478 1.387 . S
C479 C481 1.387 . S
H480 C487 0.950 . S
C481 C479 1.387 . S
C481 C483 1.390 1_545 S
C481 H485 0.950 . S
H482 C478 0.950 . S
C483 C481 1.390 1_565 S
C483 C484 1.387 . S
C483 H486 0.950 . S
C484 C483 1.387 . S
C484 C487 1.387 . S
H485 C481 0.950 . S
H486 C483 0.950 . S
C487 C478 1.390 1_565 S
C487 H480 0.950 . S
C487 C484 1.387 . S
C488 C489 1.387 . S
C488 H492 0.950 . S
C488 C497 1.390 1_655 S
C489 C488 1.387 . S
C489 C491 1.387 . S
H490 C497 0.950 . S
C491 C489 1.387 . S
C491 C493 1.390 1_655 S
C491 H495 0.950 . S
H492 C488 0.950 . S
C493 C491 1.390 1_455 S
C493 C494 1.387 . S
C493 H496 0.950 . S
C494 C493 1.387 . S
C494 C497 1.387 . S
H495 C491 0.950 . S
H496 C493 0.950 . S
C497 C488 1.390 1_455 S
C497 H490 0.950 . S
C497 C494 1.387 . S
C498 C499 1.387 . S
C498 H502 0.950 . S
C498 C507 1.390 . S
C499 C498 1.387 . S
C499 C501 1.387 . S
H500 C507 0.950 . S
C501 C499 1.387 . S
C501 C503 1.390 . S
C501 H505 0.950 . S
H502 C498 0.950 . S
C503 C501 1.390 . S
C503 C504 1.387 . S
C503 H506 0.950 . S
C504 C503 1.387 . S
C504 C507 1.387 . S
H505 C501 0.950 . S
H506 C503 0.950 . S
C507 C498 1.390 . S
C507 H500 0.950 . S
C507 C504 1.387 . S
C508 C509 1.387 . S
C508 H512 0.950 . S
C508 C517 1.390 1_545 S
C509 C508 1.387 . S
C509 C511 1.387 . S
H510 C517 0.950 . S
C511 C509 1.387 . S
C511 C513 1.390 1_545 S
C511 H515 0.950 . S
H512 C508 0.950 . S
C513 C511 1.390 1_565 S
C513 C514 1.387 . S
C513 H516 0.950 . S
C514 C513 1.387 . S
C514 C517 1.387 . S
H515 C511 0.950 . S
H516 C513 0.950 . S
C517 C508 1.390 1_565 S
C517 H510 0.950 . S
C517 C514 1.387 . S
C518 C519 1.387 . S
C518 H522 0.950 . S
C518 C527 1.390 1_455 S
C519 C518 1.387 . S
C519 C521 1.387 . S
H520 C527 0.950 . S
C521 C519 1.387 . S
C521 C523 1.390 1_455 S
C521 H525 0.950 . S
H522 C518 0.950 . S
C523 C521 1.390 1_655 S
C523 C524 1.387 . S
C523 H526 0.950 . S
C524 C523 1.387 . S
C524 C527 1.387 . S
H525 C521 0.950 . S
H526 C523 0.950 . S
C527 C518 1.390 1_655 S
C527 H520 0.950 . S
C527 C524 1.387 . S
C528 C529 1.387 . S
C528 H532 0.950 . S
C528 C537 1.390 . S
C529 C528 1.387 . S
C529 C531 1.387 . S
H530 C537 0.950 . S
C531 C529 1.387 . S
C531 C533 1.390 . S
C531 H535 0.950 . S
H532 C528 0.950 . S
C533 C531 1.390 . S
C533 C534 1.387 . S
C533 H536 0.950 . S
C534 C533 1.387 . S
C534 C537 1.387 . S
H535 C531 0.950 . S
H536 C533 0.950 . S
C537 C528 1.390 . S
C537 H530 0.950 . S
C537 C534 1.387 . S
C538 C539 1.387 . S
C538 H542 0.950 . S
C538 C547 1.390 . S
C539 C538 1.387 . S
C539 C541 1.387 . S
H540 C547 0.950 . S
C541 C539 1.387 . S
C541 C543 1.390 . S
C541 H545 0.950 . S
H542 C538 0.950 . S
C543 C541 1.390 . S
C543 C544 1.387 . S
C543 H546 0.950 . S
C544 C543 1.387 . S
C544 C547 1.387 . S
H545 C541 0.950 . S
H546 C543 0.950 . S
C547 C538 1.390 . S
C547 H540 0.950 . S
C547 C544 1.387 . S
C548 C549 1.387 . S
C548 H552 0.950 . S
C548 C557 1.390 . S
C549 C548 1.387 . S
C549 C551 1.387 . S
H550 C557 0.950 . S
C551 C549 1.387 . S
C551 C553 1.390 . S
C551 H555 0.950 . S
H552 C548 0.950 . S
C553 C551 1.390 . S
C553 C554 1.387 . S
C553 H556 0.950 . S
C554 C553 1.387 . S
C554 C557 1.387 . S
H555 C551 0.950 . S
H556 C553 0.950 . S
C557 C548 1.390 . S
C557 H550 0.950 . S
C557 C554 1.387 . S
C558 C559 1.387 . S
C558 H562 0.950 . S
C558 C567 1.390 . S
C559 C558 1.387 . S
C559 C561 1.387 . S
H560 C567 0.950 . S
C561 C559 1.387 . S
C561 C563 1.390 . S
C561 H565 0.950 . S
H562 C558 0.950 . S
C563 C561 1.390 . S
C563 C564 1.387 . S
C563 H566 0.950 1_554 S
C564 C563 1.387 . S
C564 C567 1.387 . S
H565 C561 0.950 . S
H566 C563 0.950 1_556 S
C567 C558 1.390 . S
C567 H560 0.950 . S
C567 C564 1.387 . S
C568 C569 1.387 . S
C568 H572 0.950 . S
C568 C577 1.390 . S
C569 C568 1.387 . S
C569 C571 1.387 . S
H570 C577 0.950 . S
C571 C569 1.387 . S
C571 C573 1.390 . S
C571 H575 0.950 . S
H572 C568 0.950 . S
C573 C571 1.390 . S
C573 C574 1.387 . S
C573 H576 0.950 . S
C574 C573 1.387 . S
C574 C577 1.387 . S
H575 C571 0.950 . S
H576 C573 0.950 . S
C577 C568 1.390 . S
C577 H570 0.950 . S
C577 C574 1.387 . S
C578 C579 1.387 . S
C578 H582 0.950 . S
C578 C587 1.390 . S
C579 C578 1.387 . S
C579 C581 1.387 . S
H580 C587 0.950 1_556 S
C581 C579 1.387 . S
C581 C583 1.390 . S
C581 H585 0.950 . S
H582 C578 0.950 . S
C583 C581 1.390 . S
C583 C584 1.387 . S
C583 H586 0.950 . S
C584 C583 1.387 . S
C584 C587 1.387 . S
H585 C581 0.950 . S
H586 C583 0.950 . S
C587 C578 1.390 . S
C587 H580 0.950 1_554 S
C587 C584 1.387 . S
C588 C589 1.387 . S
C588 H592 0.950 . S
C588 C597 1.390 . S
C589 C588 1.387 . S
C589 C591 1.387 . S
H590 C597 0.950 . S
C591 C589 1.387 . S
C591 C593 1.390 . S
C591 H595 0.950 . S
H592 C588 0.950 . S
C593 C591 1.390 . S
C593 C594 1.387 . S
C593 H596 0.950 1_556 S
C594 C593 1.387 . S
C594 C597 1.387 . S
H595 C591 0.950 . S
H596 C593 0.950 1_554 S
C597 C588 1.390 . S
C597 H590 0.950 . S
C597 C594 1.387 . S
C598 C599 1.387 . S
C598 H602 0.950 . S
C598 C607 1.390 . S
C599 C598 1.387 . S
C599 C601 1.387 . S
H600 C607 0.950 . S
C601 C599 1.387 . S
C601 C603 1.390 . S
C601 H605 0.950 . S
H602 C598 0.950 . S
C603 C601 1.390 . S
C603 C604 1.387 . S
C603 H606 0.950 . S
C604 C603 1.387 . S
C604 C607 1.387 . S
H605 C601 0.950 . S
H606 C603 0.950 . S
C607 C598 1.390 . S
C607 H600 0.950 . S
C607 C604 1.387 . S
C608 C609 1.387 . S
C608 H612 0.950 . S
C608 C617 1.390 . S
C609 C608 1.387 . S
C609 C611 1.387 . S
H610 C617 0.950 . S
C611 C609 1.387 . S
C611 C613 1.390 . S
C611 H615 0.950 1_556 S
H612 C608 0.950 . S
C613 C611 1.390 . S
C613 C614 1.387 . S
C613 H616 0.950 . S
C614 C613 1.387 . S
C614 C617 1.387 . S
H615 C611 0.950 1_554 S
H616 C613 0.950 . S
C617 C608 1.390 . S
C617 H610 0.950 . S
C617 C614 1.387 . S
C618 C619 1.387 . S
C618 H622 0.950 . S
C618 C627 1.390 . S
C619 C618 1.387 . S
C619 C621 1.387 . S
H620 C627 0.950 . S
C621 C619 1.387 . S
C621 C623 1.390 . S
C621 H625 0.950 . S
H622 C618 0.950 . S
C623 C621 1.390 . S
C623 C624 1.387 . S
C623 H626 0.950 . S
C624 C623 1.387 . S
C624 C627 1.387 . S
H625 C621 0.950 . S
H626 C623 0.950 . S
C627 C618 1.390 . S
C627 H620 0.950 . S
C627 C624 1.387 . S
C628 C629 1.387 . S
C628 H632 0.950 . S
C628 C637 1.390 . S
C629 C628 1.387 . S
C629 C631 1.387 . S
H630 C637 0.950 . S
C631 C629 1.387 . S
C631 C633 1.390 . S
C631 H635 0.950 . S
H632 C628 0.950 . S
C633 C631 1.390 . S
C633 C634 1.387 . S
C633 H636 0.950 . S
C634 C633 1.387 . S
C634 C637 1.387 . S
H635 C631 0.950 . S
H636 C633 0.950 . S
C637 C628 1.390 . S
C637 H630 0.950 . S
C637 C634 1.387 . S
C638 C639 1.387 . S
C638 H642 0.950 . S
C638 C647 1.390 . S
C639 C638 1.387 . S
C639 C641 1.387 . S
H640 C647 0.950 . S
C641 C639 1.387 . S
C641 C643 1.390 . S
C641 H645 0.950 . S
H642 C638 0.950 . S
C643 C641 1.390 . S
C643 C644 1.387 . S
C643 H646 0.950 . S
C644 C643 1.387 . S
C644 C647 1.387 . S
H645 C641 0.950 . S
H646 C643 0.950 . S
C647 C638 1.390 . S
C647 H640 0.950 . S
C647 C644 1.387 . S
C648 C649 1.387 . S
C648 H652 0.950 . S
C648 C657 1.390 . S
C649 C648 1.387 . S
C649 C651 1.387 . S
H650 C657 0.950 . S
C651 C649 1.387 . S
C651 C653 1.390 . S
C651 H655 0.950 . S
H652 C648 0.950 . S
C653 C651 1.390 . S
C653 C654 1.387 . S
C653 H656 0.950 . S
C654 C653 1.387 . S
C654 C657 1.387 . S
H655 C651 0.950 . S
H656 C653 0.950 . S
C657 C648 1.390 . S
C657 H650 0.950 . S
C657 C654 1.387 . S
C658 C659 1.387 . S
C658 H662 0.950 . S
C658 C667 1.390 . S
C659 C658 1.387 . S
C659 C661 1.387 . S
H660 C667 0.950 . S
C661 C659 1.387 . S
C661 C663 1.390 . S
C661 H665 0.950 . S
H662 C658 0.950 . S
C663 C661 1.390 . S
C663 C664 1.387 . S
C663 H666 0.950 . S
C664 C663 1.387 . S
C664 C667 1.387 . S
H665 C661 0.950 . S
H666 C663 0.950 . S
C667 C658 1.390 . S
C667 H660 0.950 . S
C667 C664 1.387 . S
C668 C669 1.387 . S
C668 H672 0.950 . S
C668 C677 1.390 . S
C669 C668 1.387 . S
C669 C671 1.387 . S
H670 C677 0.950 . S
C671 C669 1.387 . S
C671 C673 1.390 . S
C671 H675 0.940 1_556 S
H672 C668 0.950 . S
C673 C671 1.390 . S
C673 C674 1.387 . S
C673 H676 0.950 . S
C674 C673 1.387 . S
C674 C677 1.387 . S
H675 C671 0.940 1_554 S
H676 C673 0.950 . S
C677 C668 1.390 . S
C677 H670 0.950 . S
C677 C674 1.387 . S
C678 C679 1.387 . S
C678 H682 0.950 . S
C678 C687 1.390 . S
C679 C678 1.387 . S
C679 C681 1.387 . S
H680 C687 0.950 . S
C681 C679 1.387 . S
C681 C683 1.390 . S
C681 H685 0.950 . S
H682 C678 0.950 . S
C683 C681 1.390 . S
C683 C684 1.387 . S
C683 H686 0.950 . S
C684 C683 1.387 . S
C684 C687 1.387 . S
H685 C681 0.950 . S
H686 C683 0.950 . S
C687 C678 1.390 . S
C687 H680 0.950 . S
C687 C684 1.387 . S
C688 C689 1.387 . S
C688 H692 0.950 . S
C688 C697 1.390 . S
C689 C688 1.387 . S
C689 C691 1.387 . S
H690 C697 0.950 . S
C691 C689 1.387 . S
C691 C693 1.390 . S
C691 H695 0.950 . S
H692 C688 0.950 . S
C693 C691 1.390 . S
C693 C694 1.387 . S
C693 H696 0.950 . S
C694 C693 1.387 . S
C694 C697 1.387 . S
H695 C691 0.950 . S
H696 C693 0.950 . S
C697 C688 1.390 . S
C697 H690 0.950 . S
C697 C694 1.387 . S
C698 C699 1.387 . S
C698 H702 0.950 . S
C698 C707 1.390 . S
C699 C698 1.387 . S
C699 C701 1.387 . S
H700 C707 0.950 . S
C701 C699 1.387 . S
C701 C703 1.390 . S
C701 H705 0.950 . S
H702 C698 0.950 . S
C703 C701 1.390 . S
C703 C704 1.387 . S
C703 H706 0.950 . S
C704 C703 1.387 . S
C704 C707 1.387 . S
H705 C701 0.950 . S
H706 C703 0.950 . S
C707 C698 1.390 . S
C707 H700 0.950 . S
C707 C704 1.387 . S
C708 C709 1.387 . S
C708 H712 0.950 . S
C708 C717 1.390 . S
C709 C708 1.387 . S
C709 C711 1.387 . S
H710 C717 0.950 . S
C711 C709 1.387 . S
C711 C713 1.390 . S
C711 H715 0.950 . S
H712 C708 0.950 . S
C713 C711 1.390 . S
C713 C714 1.387 . S
C713 H716 0.950 . S
C714 C713 1.387 . S
C714 C717 1.387 . S
H715 C711 0.950 . S
H716 C713 0.950 . S
C717 C708 1.390 . S
C717 H710 0.950 . S
C717 C714 1.387 . S
C718 C719 1.387 . S
C718 H722 0.950 1_554 S
C718 C727 1.390 . S
C719 C718 1.387 . S
C719 C721 1.387 . S
H720 C727 0.950 . S
C721 C719 1.387 . S
C721 C723 1.390 . S
C721 H725 0.950 . S
H722 C718 0.950 1_556 S
C723 C721 1.390 . S
C723 C724 1.387 . S
C723 H726 0.950 . S
C724 C723 1.387 . S
C724 C727 1.387 . S
H725 C721 0.950 . S
H726 C723 0.950 . S
C727 C718 1.390 . S
C727 H720 0.950 . S
C727 C724 1.387 . S
C728 C729 1.387 . S
C728 H732 0.950 . S
C728 C737 1.390 . S
C729 C728 1.387 . S
C729 C731 1.387 . S
H730 C737 0.950 . S
C731 C729 1.387 . S
C731 C733 1.390 . S
C731 H735 0.950 . S
H732 C728 0.950 . S
C733 C731 1.390 . S
C733 C734 1.387 . S
C733 H736 0.950 . S
C734 C733 1.387 . S
C734 C737 1.387 . S
H735 C731 0.950 . S
H736 C733 0.950 . S
C737 C728 1.390 . S
C737 H730 0.950 . S
C737 C734 1.387 . S
C738 C739 1.387 . S
C738 H742 0.950 . S
C738 C747 1.390 . S
C739 C738 1.387 . S
C739 C741 1.387 . S
H740 C747 0.950 . S
C741 C739 1.387 . S
C741 C743 1.390 . S
C741 H745 0.950 . S
H742 C738 0.950 . S
C743 C741 1.390 . S
C743 C744 1.387 . S
C743 H746 0.950 . S
C744 C743 1.387 . S
C744 C747 1.387 . S
H745 C741 0.950 . S
H746 C743 0.950 . S
C747 C738 1.390 . S
C747 H740 0.950 . S
C747 C744 1.387 . S
C748 C749 1.387 . S
C748 H752 0.950 . S
C748 C757 1.390 . S
C749 C748 1.387 . S
C749 C751 1.387 . S
H750 C757 0.950 . S
C751 C749 1.387 . S
C751 C753 1.390 . S
C751 H755 0.950 . S
H752 C748 0.950 . S
C753 C751 1.390 . S
C753 C754 1.387 . S
C753 H756 0.950 . S
C754 C753 1.387 . S
C754 C757 1.387 . S
H755 C751 0.950 . S
H756 C753 0.950 . S
C757 C748 1.390 . S
C757 H750 0.950 . S
C757 C754 1.387 . S
C758 C759 1.387 . S
C758 H762 0.950 . S
C758 C767 1.390 . S
C759 C758 1.387 . S
C759 C761 1.387 . S
H760 C767 0.950 . S
C761 C759 1.387 . S
C761 C763 1.390 . S
C761 H765 0.950 . S
H762 C758 0.950 . S
C763 C761 1.390 . S
C763 C764 1.387 . S
C763 H766 0.950 . S
C764 C763 1.387 . S
C764 C767 1.387 . S
H765 C761 0.950 . S
H766 C763 0.950 . S
C767 C758 1.390 . S
C767 H760 0.950 . S
C767 C764 1.387 . S
C768 C769 1.387 . S
C768 H772 0.950 . S
C768 C777 1.390 . S
C769 C768 1.387 . S
C769 C771 1.387 . S
H770 C777 0.950 . S
C771 C769 1.387 . S
C771 C773 1.390 . S
C771 H775 0.950 . S
H772 C768 0.950 . S
C773 C771 1.390 . S
C773 C774 1.387 . S
C773 H776 0.950 . S
C774 C773 1.387 . S
C774 C777 1.387 . S
H775 C771 0.950 . S
H776 C773 0.950 . S
C777 C768 1.390 . S
C777 H770 0.950 . S
C777 C774 1.387 . S
C778 C779 1.387 . S
C778 H782 0.950 . S
C778 C787 1.390 . S
C779 C778 1.387 . S
C779 C781 1.387 . S
H780 C787 0.950 . S
C781 C779 1.387 . S
C781 C783 1.390 . S
C781 H785 0.950 . S
H782 C778 0.950 . S
C783 C781 1.390 . S
C783 C784 1.387 . S
C783 H786 0.950 . S
C784 C783 1.387 . S
C784 C787 1.387 . S
H785 C781 0.950 . S
H786 C783 0.950 . S
C787 C778 1.390 . S
C787 H780 0.950 . S
C787 C784 1.387 . S
C788 C789 1.387 . S
C788 H792 0.950 . S
C788 C797 1.390 . S
C789 C788 1.387 . S
C789 C791 1.387 . S
H790 C797 0.950 . S
C791 C789 1.387 . S
C791 C793 1.390 . S
C791 H795 0.950 . S
H792 C788 0.950 . S
C793 C791 1.390 . S
C793 C794 1.387 . S
C793 H796 0.950 . S
C794 C793 1.387 . S
C794 C797 1.387 . S
H795 C791 0.950 . S
H796 C793 0.950 . S
C797 C788 1.390 . S
C797 H790 0.950 . S
C797 C794 1.387 . S
C798 C799 1.387 . S
C798 H802 0.950 . S
C798 C807 1.390 . S
C799 C798 1.387 . S
C799 C801 1.387 . S
H800 C807 0.950 . S
C801 C799 1.387 . S
C801 C803 1.390 1_556 S
C801 H805 0.950 . S
H802 C798 0.950 . S
C803 C801 1.390 1_554 S
C803 C804 1.387 . S
C803 H806 0.950 . S
C804 C803 1.387 . S
C804 C807 1.387 1_554 S
H805 C801 0.950 . S
H806 C803 0.950 . S
C807 C798 1.390 . S
C807 H800 0.950 . S
C807 C804 1.387 1_556 S
C808 C809 1.387 1_556 S
C808 H812 0.950 . S
C808 C817 1.390 . S
C809 C808 1.387 1_554 S
C809 C811 1.387 . S
H810 C817 0.950 . S
C811 C809 1.387 . S
C811 C813 1.390 1_554 S
C811 H815 0.950 . S
H812 C808 0.950 . S
C813 C811 1.390 1_556 S
C813 C814 1.387 . S
C813 H816 0.950 . S
C814 C813 1.387 . S
C814 C817 1.387 . S
H815 C811 0.950 . S
H816 C813 0.950 . S
C817 C808 1.390 . S
C817 H810 0.950 . S
C817 C814 1.387 . S
C818 C819 1.387 . S
C818 H822 0.950 . S
C818 C827 1.390 . S
C819 C818 1.387 . S
C819 C821 1.387 . S
H820 C827 0.950 1_554 S
C821 C819 1.387 . S
C821 C823 1.390 . S
C821 H825 0.950 . S
H822 C818 0.950 . S
C823 C821 1.390 . S
C823 C824 1.387 1_556 S
C823 H826 0.950 . S
C824 C823 1.387 1_554 S
C824 C827 1.387 1_554 S
H825 C821 0.950 . S
H826 C823 0.950 . S
C827 C818 1.390 . S
C827 H820 0.950 1_556 S
C827 C824 1.387 1_556 S
C828 C829 1.387 . S
C828 H832 0.950 . S
C828 C837 1.390 . S
C829 C828 1.387 . S
C829 C831 1.387 . S
H830 C837 0.950 . S
C831 C829 1.387 . S
C831 C833 1.390 . S
C831 H835 0.950 . S
H832 C828 0.950 . S
C833 C831 1.390 . S
C833 C834 1.387 . S
C833 H836 0.950 . S
C834 C833 1.387 . S
C834 C837 1.387 . S
H835 C831 0.950 . S
H836 C833 0.950 . S
C837 C828 1.390 . S
C837 H830 0.950 . S
C837 C834 1.387 . S
C838 C839 1.387 . S
C838 H842 0.950 . S
C838 C847 1.390 . S
C839 C838 1.387 . S
C839 C841 1.387 . S
H840 C847 0.950 . S
C841 C839 1.387 . S
C841 C843 1.390 . S
C841 H845 0.950 . S
H842 C838 0.950 . S
C843 C841 1.390 . S
C843 C844 1.387 . S
C843 H846 0.950 . S
C844 C843 1.387 . S
C844 C847 1.387 . S
H845 C841 0.950 . S
H846 C843 0.950 . S
C847 C838 1.390 . S
C847 H840 0.950 . S
C847 C844 1.387 . S
C848 C849 1.387 . S
C848 H852 0.950 . S
C848 C857 1.390 . S
C849 C848 1.387 . S
C849 C851 1.387 . S
H850 C857 0.950 . S
C851 C849 1.387 . S
C851 C853 1.390 . S
C851 H855 0.950 . S
H852 C848 0.950 . S
C853 C851 1.390 . S
C853 C854 1.387 . S
C853 H856 0.950 . S
C854 C853 1.387 . S
C854 C857 1.387 . S
H855 C851 0.950 . S
H856 C853 0.950 . S
C857 C848 1.390 . S
C857 H850 0.950 . S
C857 C854 1.387 . S
C858 C859 1.387 . S
C858 H862 0.950 . S
C858 C867 1.390 . S
C859 C858 1.387 . S
C859 C861 1.387 . S
H860 C867 0.950 . S
C861 C859 1.387 . S
C861 C863 1.390 . S
C861 H865 0.950 . S
H862 C858 0.950 . S
C863 C861 1.390 . S
C863 C864 1.387 . S
C863 H866 0.950 . S
C864 C863 1.387 . S
C864 C867 1.387 . S
H865 C861 0.950 . S
H866 C863 0.950 . S
C867 C858 1.390 . S
C867 H860 0.950 . S
C867 C864 1.387 . S
C868 C869 1.387 . S
C868 H872 0.950 . S
C868 C877 1.390 . S
C869 C868 1.387 . S
C869 C871 1.387 . S
H870 C877 0.950 . S
C871 C869 1.387 . S
C871 C873 1.390 . S
C871 H875 0.950 . S
H872 C868 0.950 . S
C873 C871 1.390 . S
C873 C874 1.387 . S
C873 H876 0.950 . S
C874 C873 1.387 . S
C874 C877 1.387 . S
H875 C871 0.950 . S
H876 C873 0.950 . S
C877 C868 1.390 . S
C877 H870 0.950 . S
C877 C874 1.387 . S
C878 C879 1.387 . S
C878 H882 0.950 . S
C878 C887 1.390 . S
C879 C878 1.387 . S
C879 C881 1.387 . S
H880 C887 0.950 . S
C881 C879 1.387 . S
C881 C883 1.390 . S
C881 H885 0.950 . S
H882 C878 0.950 . S
C883 C881 1.390 . S
C883 C884 1.387 . S
C883 H886 0.950 . S
C884 C883 1.387 . S
C884 C887 1.387 . S
H885 C881 0.950 . S
H886 C883 0.950 . S
C887 C878 1.390 . S
C887 H880 0.950 . S
C887 C884 1.387 . S
C888 C889 1.387 . S
C888 H892 0.950 . S
C888 C897 1.390 . S
C889 C888 1.387 . S
C889 C891 1.387 . S
H890 C897 0.950 . S
C891 C889 1.387 . S
C891 C893 1.390 . S
C891 H895 0.950 . S
H892 C888 0.950 . S
C893 C891 1.390 . S
C893 C894 1.387 . S
C893 H896 0.950 . S
C894 C893 1.387 . S
C894 C897 1.387 . S
H895 C891 0.950 . S
H896 C893 0.950 . S
C897 C888 1.390 . S
C897 H890 0.950 . S
C897 C894 1.387 . S
C898 C899 1.387 . S
C898 H902 0.950 . S
C898 C907 1.390 . S
C899 C898 1.387 . S
C899 C901 1.387 . S
H900 C907 0.950 . S
C901 C899 1.387 . S
C901 C903 1.390 . S
C901 H905 0.950 . S
H902 C898 0.950 . S
C903 C901 1.390 . S
C903 C904 1.387 . S
C903 H906 0.950 . S
C904 C903 1.387 . S
C904 C907 1.387 . S
H905 C901 0.950 . S
H906 C903 0.950 . S
C907 C898 1.390 . S
C907 H900 0.950 . S
C907 C904 1.387 . S
C908 C909 1.387 . S
C908 H912 0.950 . S
C908 C917 1.390 . S
C909 C908 1.387 . S
C909 C911 1.387 . S
H910 C917 0.950 . S
C911 C909 1.387 . S
C911 C913 1.390 . S
C911 H915 0.950 . S
H912 C908 0.950 . S
C913 C911 1.390 . S
C913 C914 1.387 . S
C913 H916 0.950 . S
C914 C913 1.387 . S
C914 C917 1.387 . S
H915 C911 0.950 . S
H916 C913 0.950 . S
C917 C908 1.390 . S
C917 H910 0.950 . S
C917 C914 1.387 . S
C918 C919 1.387 . S
C918 H922 0.950 . S
C918 C927 1.390 . S
C919 C918 1.387 . S
C919 C921 1.387 . S
H920 C927 0.950 . S
C921 C919 1.387 . S
C921 C923 1.390 . S
C921 H925 0.950 . S
H922 C918 0.950 . S
C923 C921 1.390 . S
C923 C924 1.387 . S
C923 H926 0.950 . S
C924 C923 1.387 . S
C924 C927 1.387 . S
H925 C921 0.950 . S
H926 C923 0.950 . S
C927 C918 1.390 . S
C927 H920 0.950 . S
C927 C924 1.387 . S
C928 C929 1.387 . S
C928 H932 0.950 . S
C928 C937 1.390 . S
C929 C928 1.387 . S
C929 C931 1.387 . S
H930 C937 0.950 . S
C931 C929 1.387 . S
C931 C933 1.390 . S
C931 H935 0.950 . S
H932 C928 0.950 . S
C933 C931 1.390 . S
C933 C934 1.387 . S
C933 H936 0.950 . S
C934 C933 1.387 . S
C934 C937 1.387 . S
H935 C931 0.950 . S
H936 C933 0.950 . S
C937 C928 1.390 . S
C937 H930 0.950 . S
C937 C934 1.387 . S
C938 C939 1.387 . S
C938 H942 0.950 . S
C938 C947 1.390 . S
C939 C938 1.387 . S
C939 C941 1.387 . S
H940 C947 0.950 . S
C941 C939 1.387 . S
C941 C943 1.390 . S
C941 H945 0.950 . S
H942 C938 0.950 . S
C943 C941 1.390 . S
C943 C944 1.387 . S
C943 H946 0.950 . S
C944 C943 1.387 . S
C944 C947 1.387 . S
H945 C941 0.950 . S
H946 C943 0.950 . S
C947 C938 1.390 . S
C947 H940 0.950 . S
C947 C944 1.387 . S
C948 C949 1.387 . S
C948 H952 0.950 . S
C948 C957 1.390 . S
C949 C948 1.387 . S
C949 C951 1.387 . S
H950 C957 0.950 . S
C951 C949 1.387 . S
C951 C953 1.390 . S
C951 H955 0.950 . S
H952 C948 0.950 . S
C953 C951 1.390 . S
C953 C954 1.387 . S
C953 H956 0.950 . S
C954 C953 1.387 . S
C954 C957 1.387 . S
H955 C951 0.950 . S
H956 C953 0.950 . S
C957 C948 1.390 . S
C957 H950 0.950 . S
C957 C954 1.387 . S
C958 C959 1.387 . S
C958 H962 0.950 . S
C958 C967 1.390 . S
C959 C958 1.387 . S
C959 C961 1.387 . S
H960 C967 0.950 . S
C961 C959 1.387 . S
C961 C963 1.390 . S
C961 H965 0.950 . S
H962 C958 0.950 . S
C963 C961 1.390 . S
C963 C964 1.387 . S
C963 H966 0.950 . S
C964 C963 1.387 . S
C964 C967 1.387 . S
H965 C961 0.950 . S
H966 C963 0.950 . S
C967 C958 1.390 . S
C967 H960 0.950 . S
C967 C964 1.387 . S
C968 C969 1.387 . S
C968 H972 0.950 . S
C968 C977 1.390 . S
C969 C968 1.387 . S
C969 C971 1.387 . S
H970 C977 0.950 . S
C971 C969 1.387 . S
C971 C973 1.390 . S
C971 H975 0.950 . S
H972 C968 0.950 . S
C973 C971 1.390 . S
C973 C974 1.387 . S
C973 H976 0.950 . S
C974 C973 1.387 . S
C974 C977 1.387 . S
H975 C971 0.950 . S
H976 C973 0.950 . S
C977 C968 1.390 . S
C977 H970 0.950 . S
C977 C974 1.387 . S
C978 C979 1.387 1_554 S
C978 H982 0.950 . S
C978 C987 1.390 . S
C979 C978 1.387 1_556 S
C979 C981 1.387 1_556 S
H980 C987 0.950 . S
C981 C979 1.387 1_554 S
C981 C983 1.390 . S
C981 H985 0.950 1_554 S
H982 C978 0.950 . S
C983 C981 1.390 . S
C983 C984 1.387 . S
C983 H986 0.950 . S
C984 C983 1.387 . S
C984 C987 1.387 . S
H985 C981 0.950 1_556 S
H986 C983 0.950 . S
C987 C978 1.390 . S
C987 H980 0.950 . S
C987 C984 1.387 . S
C988 C989 1.387 . S
C988 H992 0.950 . S
C988 C997 1.390 1_556 S
C989 C988 1.387 . S
C989 C991 1.387 1_556 S
H990 C997 0.950 . S
C991 C989 1.387 1_554 S
C991 C993 1.390 . S
C991 H995 0.950 . S
H992 C988 0.950 . S
C993 C991 1.390 . S
C993 C994 1.387 . S
C993 H996 0.950 . S
C994 C993 1.387 . S
C994 C997 1.387 . S
H995 C991 0.950 . S
H996 C993 0.950 . S
C997 C988 1.390 1_554 S
C997 H990 0.950 . S
C997 C994 1.387 . S
C998 C999 1.387 1_554 S
C998 H1002 0.950 . S
C998 C1007 1.390 . S
C999 C998 1.387 1_556 S
C999 C1001 1.387 1_556 S
H1000 C1007 0.950 . S
C1001 C999 1.387 1_554 S
C1001 C1003 1.390 . S
C1001 H1005 0.950 1_554 S
H1002 C998 0.950 . S
C1003 C1001 1.390 . S
C1003 C1004 1.387 . S
C1003 H1006 0.950 . S
C1004 C1003 1.387 . S
C1004 C1007 1.387 . S
H1005 C1001 0.950 1_556 S
H1006 C1003 0.950 . S
C1007 C998 1.390 . S
C1007 H1000 0.950 . S
C1007 C1004 1.387 . S
C1008 C1009 1.387 . S
C1008 H1012 0.950 . S
C1008 C1017 1.390 . S
C1009 C1008 1.387 . S
C1009 C1011 1.387 . S
H1010 C1017 0.950 . S
C1011 C1009 1.387 . S
C1011 C1013 1.390 . S
C1011 H1015 0.950 . S
H1012 C1008 0.950 . S
C1013 C1011 1.390 . S
C1013 C1014 1.387 . S
C1013 H1016 0.950 . S
C1014 C1013 1.387 . S
C1014 C1017 1.387 . S
H1015 C1011 0.950 . S
H1016 C1013 0.950 . S
C1017 C1008 1.390 . S
C1017 H1010 0.950 . S
C1017 C1014 1.387 . S
C1018 C1019 1.387 . S
C1018 H1022 0.950 1_554 S
C1018 C1027 1.390 . S
C1019 C1018 1.387 . S
C1019 C1021 1.387 . S
H1020 C1027 0.951 1_556 S
C1021 C1019 1.387 . S
C1021 C1023 1.390 . S
C1021 H1025 0.950 . S
H1022 C1018 0.950 1_556 S
C1023 C1021 1.390 . S
C1023 C1024 1.387 . S
C1023 H1026 0.950 . S
C1024 C1023 1.387 . S
C1024 C1027 1.387 . S
H1025 C1021 0.950 . S
H1026 C1023 0.950 . S
C1027 C1018 1.390 . S
C1027 H1020 0.951 1_554 S
C1027 C1024 1.387 . S
C1028 C1029 1.387 . S
C1028 H1032 0.950 . S
C1028 C1037 1.390 . S
C1029 C1028 1.387 . S
C1029 C1031 1.387 . S
H1030 C1037 0.950 . S
C1031 C1029 1.387 . S
C1031 C1033 1.390 . S
C1031 H1035 0.950 . S
H1032 C1028 0.950 . S
C1033 C1031 1.390 . S
C1033 C1034 1.387 . S
C1033 H1036 0.950 . S
C1034 C1033 1.387 . S
C1034 C1037 1.387 . S
H1035 C1031 0.950 . S
H1036 C1033 0.950 . S
C1037 C1028 1.390 . S
C1037 H1030 0.950 . S
C1037 C1034 1.387 . S
C1038 C1039 1.387 . S
C1038 H1042 0.950 . S
C1038 C1047 1.390 . S
C1039 C1038 1.387 . S
C1039 C1041 1.387 . S
H1040 C1047 0.950 . S
C1041 C1039 1.387 . S
C1041 C1043 1.390 . S
C1041 H1045 0.950 . S
H1042 C1038 0.950 . S
C1043 C1041 1.390 . S
C1043 C1044 1.387 . S
C1043 H1046 0.950 . S
C1044 C1043 1.387 . S
C1044 C1047 1.387 . S
H1045 C1041 0.950 . S
H1046 C1043 0.950 . S
C1047 C1038 1.390 . S
C1047 H1040 0.950 . S
C1047 C1044 1.387 . S
C1048 C1049 1.387 . S
C1048 H1052 0.950 . S
C1048 C1057 1.390 . S
C1049 C1048 1.387 . S
C1049 C1051 1.387 . S
H1050 C1057 0.950 . S
C1051 C1049 1.387 . S
C1051 C1053 1.390 . S
C1051 H1055 0.950 . S
H1052 C1048 0.950 . S
C1053 C1051 1.390 . S
C1053 C1054 1.387 . S
C1053 H1056 0.950 . S
C1054 C1053 1.387 . S
C1054 C1057 1.387 . S
H1055 C1051 0.950 . S
H1056 C1053 0.950 . S
C1057 C1048 1.390 . S
C1057 H1050 0.950 . S
C1057 C1054 1.387 . S
C1058 C1059 1.387 . S
C1058 H1062 0.950 . S
C1058 C1067 1.390 . S
C1059 C1058 1.387 . S
C1059 C1061 1.387 . S
H1060 C1067 0.950 . S
C1061 C1059 1.387 . S
C1061 C1063 1.390 . S
C1061 H1065 0.950 . S
H1062 C1058 0.950 . S
C1063 C1061 1.390 . S
C1063 C1064 1.387 . S
C1063 H1066 0.950 . S
C1064 C1063 1.387 . S
C1064 C1067 1.387 . S
H1065 C1061 0.950 . S
H1066 C1063 0.950 . S
C1067 C1058 1.390 . S
C1067 H1060 0.950 . S
C1067 C1064 1.387 . S
C1068 C1069 1.387 . S
C1068 H1072 0.950 . S
C1068 C1077 1.390 . S
C1069 C1068 1.387 . S
C1069 C1071 1.387 . S
H1070 C1077 0.950 . S
C1071 C1069 1.387 . S
C1071 C1073 1.390 . S
C1071 H1075 0.950 . S
H1072 C1068 0.950 . S
C1073 C1071 1.390 . S
C1073 C1074 1.387 . S
C1073 H1076 0.950 . S
C1074 C1073 1.387 . S
C1074 C1077 1.387 . S
H1075 C1071 0.950 . S
H1076 C1073 0.950 . S
C1077 C1068 1.390 . S
C1077 H1070 0.950 . S
C1077 C1074 1.387 . S
C1078 C1079 1.387 1_554 S
C1078 H1082 0.950 . S
C1078 C1087 1.390 1_554 S
C1079 C1078 1.387 1_556 S
C1079 C1081 1.387 . S
H1080 C1087 0.950 1_554 S
C1081 C1079 1.387 . S
C1081 C1083 1.390 . S
C1081 H1085 0.950 . S
H1082 C1078 0.950 . S
C1083 C1081 1.390 . S
C1083 C1084 1.387 . S
C1083 H1086 0.950 . S
C1084 C1083 1.387 . S
C1084 C1087 1.387 . S
H1085 C1081 0.950 . S
H1086 C1083 0.950 . S
C1087 C1078 1.390 1_556 S
C1087 H1080 0.950 1_556 S
C1087 C1084 1.387 . S
C1088 C1089 1.387 . S
C1088 H1092 0.950 . S
C1088 C1097 1.390 . S
C1089 C1088 1.387 . S
C1089 C1091 1.387 . S
H1090 C1097 0.950 . S
C1091 C1089 1.387 . S
C1091 C1093 1.390 . S
C1091 H1095 0.950 . S
H1092 C1088 0.950 . S
C1093 C1091 1.390 . S
C1093 C1094 1.387 . S
C1093 H1096 0.950 1_556 S
C1094 C1093 1.387 . S
C1094 C1097 1.387 . S
H1095 C1091 0.950 . S
H1096 C1093 0.950 1_554 S
C1097 C1088 1.390 . S
C1097 H1090 0.950 . S
C1097 C1094 1.387 . S
C1098 C1099 1.387 . S
C1098 H1102 0.950 . S
C1098 C1107 1.390 . S
C1099 C1098 1.387 . S
C1099 C1101 1.387 . S
H1100 C1107 0.950 . S
C1101 C1099 1.387 . S
C1101 C1103 1.390 . S
C1101 H1105 0.950 . S
H1102 C1098 0.950 . S
C1103 C1101 1.390 . S
C1103 C1104 1.387 . S
C1103 H1106 0.950 . S
C1104 C1103 1.387 . S
C1104 C1107 1.387 . S
H1105 C1101 0.950 . S
H1106 C1103 0.950 . S
C1107 C1098 1.390 . S
C1107 H1100 0.950 . S
C1107 C1104 1.387 . S
C1108 C1109 1.387 . S
C1108 H1112 0.950 . S
C1108 C1117 1.390 . S
C1109 C1108 1.387 . S
C1109 C1111 1.387 . S
H1110 C1117 0.950 . S
C1111 C1109 1.387 . S
C1111 C1113 1.390 . S
C1111 H1115 0.950 . S
H1112 C1108 0.950 . S
C1113 C1111 1.390 . S
C1113 C1114 1.387 . S
C1113 H1116 0.950 . S
C1114 C1113 1.387 . S
C1114 C1117 1.387 . S
H1115 C1111 0.950 . S
H1116 C1113 0.950 . S
C1117 C1108 1.390 . S
C1117 H1110 0.950 . S
C1117 C1114 1.387 . S
C1118 C1119 1.387 . S
C1118 H1122 0.950 . S
C1118 C1127 1.390 . S
C1119 C1118 1.387 . S
C1119 C1121 1.387 . S
H1120 C1127 0.950 . S
C1121 C1119 1.387 . S
C1121 C1123 1.390 . S
C1121 H1125 0.950 . S
H1122 C1118 0.950 . S
C1123 C1121 1.390 . S
C1123 C1124 1.387 . S
C1123 H1126 0.950 . S
C1124 C1123 1.387 . S
C1124 C1127 1.387 . S
H1125 C1121 0.950 . S
H1126 C1123 0.950 . S
C1127 C1118 1.390 . S
C1127 H1120 0.950 . S
C1127 C1124 1.387 . S
C1128 C1129 1.387 . S
C1128 H1132 0.950 . S
C1128 C1137 1.390 1_455 S
C1129 C1128 1.387 . S
C1129 C1131 1.387 . S
H1130 C1137 0.950 . S
C1131 C1129 1.387 . S
C1131 C1133 1.390 1_455 S
C1131 H1135 0.950 . S
H1132 C1128 0.950 . S
C1133 C1131 1.390 1_655 S
C1133 C1134 1.387 . S
C1133 H1136 0.950 . S
C1134 C1133 1.387 . S
C1134 C1137 1.387 . S
H1135 C1131 0.950 . S
H1136 C1133 0.950 . S
C1137 C1128 1.390 1_655 S
C1137 H1130 0.950 . S
C1137 C1134 1.387 . S
C1138 C1139 1.387 . S
C1138 H1142 0.950 . S
C1138 C1147 1.390 . S
C1139 C1138 1.387 . S
C1139 C1141 1.387 . S
H1140 C1147 0.950 . S
C1141 C1139 1.387 . S
C1141 C1143 1.390 . S
C1141 H1145 0.950 . S
H1142 C1138 0.950 . S
C1143 C1141 1.390 . S
C1143 C1144 1.387 . S
C1143 H1146 0.950 . S
C1144 C1143 1.387 . S
C1144 C1147 1.387 . S
H1145 C1141 0.950 . S
H1146 C1143 0.950 . S
C1147 C1138 1.390 . S
C1147 H1140 0.950 . S
C1147 C1144 1.387 . S
C1148 C1149 1.387 . S
C1148 H1152 0.950 . S
C1148 C1157 1.390 1_565 S
C1149 C1148 1.387 . S
C1149 C1151 1.387 . S
H1150 C1157 0.950 . S
C1151 C1149 1.387 . S
C1151 C1153 1.390 1_565 S
C1151 H1155 0.950 . S
H1152 C1148 0.950 . S
C1153 C1151 1.390 1_545 S
C1153 C1154 1.387 . S
C1153 H1156 0.950 . S
C1154 C1153 1.387 . S
C1154 C1157 1.387 . S
H1155 C1151 0.950 . S
H1156 C1153 0.950 . S
C1157 C1148 1.390 1_545 S
C1157 H1150 0.950 . S
C1157 C1154 1.387 . S
C1158 C1159 1.387 . S
C1158 H1162 0.950 . S
C1158 C1167 1.390 1_545 S
C1159 C1158 1.387 . S
C1159 C1161 1.387 . S
H1160 C1167 0.950 . S
C1161 C1159 1.387 . S
C1161 C1163 1.390 1_545 S
C1161 H1165 0.950 . S
H1162 C1158 0.950 . S
C1163 C1161 1.390 1_565 S
C1163 C1164 1.387 . S
C1163 H1166 0.950 . S
C1164 C1163 1.387 . S
C1164 C1167 1.387 . S
H1165 C1161 0.950 . S
H1166 C1163 0.950 . S
C1167 C1158 1.390 1_565 S
C1167 H1160 0.950 . S
C1167 C1164 1.387 . S
C1168 C1169 1.387 . S
C1168 H1172 0.950 . S
C1168 C1177 1.390 1_455 S
C1169 C1168 1.387 . S
C1169 C1171 1.387 . S
H1170 C1177 0.950 . S
C1171 C1169 1.387 . S
C1171 C1173 1.390 1_455 S
C1171 H1175 0.950 . S
H1172 C1168 0.950 . S
C1173 C1171 1.390 1_655 S
C1173 C1174 1.387 . S
C1173 H1176 0.950 . S
C1174 C1173 1.387 . S
C1174 C1177 1.387 . S
H1175 C1171 0.950 . S
H1176 C1173 0.950 . S
C1177 C1168 1.390 1_655 S
C1177 H1170 0.950 . S
C1177 C1174 1.387 . S
C1178 C1179 1.387 . S
C1178 H1182 0.950 . S
C1178 C1187 1.390 . S
C1179 C1178 1.387 . S
C1179 C1181 1.387 . S
H1180 C1187 0.950 . S
C1181 C1179 1.387 . S
C1181 C1183 1.390 . S
C1181 H1185 0.950 . S
H1182 C1178 0.950 . S
C1183 C1181 1.390 . S
C1183 C1184 1.387 . S
C1183 H1186 0.950 . S
C1184 C1183 1.387 . S
C1184 C1187 1.387 . S
H1185 C1181 0.950 . S
H1186 C1183 0.950 . S
C1187 C1178 1.390 . S
C1187 H1180 0.950 . S
C1187 C1184 1.387 . S
C469 C39 1.330 . S
C474 C0 1.328 . S
C479 C52 1.330 . S
C484 C13 1.329 . S
C489 C65 1.329 . S
C494 C26 1.327 . S
C499 C78 1.327 . S
C504 C117 1.331 . S
C509 C91 1.329 . S
C514 C130 1.330 . S
C519 C143 1.329 . S
C524 C104 1.327 . S
C529 C156 1.307 . S
C534 C195 1.305 . S
C539 C169 1.307 . S
C544 C208 1.304 . S
C549 C182 1.307 . S
C554 C221 1.307 . S
C559 C234 1.298 . S
C564 C273 1.304 . S
C569 C286 1.302 . S
C574 C247 1.297 . S
C579 C260 1.300 . S
C584 C299 1.301 . S
C589 C312 1.299 . S
C594 C351 1.301 . S
C599 C325 1.299 . S
C604 C364 1.302 . S
C609 C377 1.302 . S
C614 C338 1.299 . S
C619 C429 1.307 . S
C624 C390 1.308 . S
C629 C442 1.306 . S
C634 C403 1.309 . S
C639 C455 1.304 . S
C644 C416 1.309 . S
C649 C151 1.371 . S
C654 C5 1.292 1_556 S
C659 C18 1.292 1_556 S
C664 C125 1.371 . S
C669 C31 1.292 1_556 S
C674 C138 1.371 . S
C679 C99 1.382 . S
C684 C44 1.307 . S
C689 C57 1.307 . S
C694 C112 1.382 . S
C699 C86 1.380 . S
C704 C70 1.304 . S
C709 C83 1.293 1_554 S
C714 C73 1.371 . S
C719 C96 1.292 1_554 S
C724 C47 1.372 . S
C729 C60 1.373 . S
C734 C109 1.295 1_554 S
C739 C21 1.380 . S
C744 C122 1.302 . S
C749 C34 1.382 . S
C754 C135 1.306 . S
C759 C148 1.304 . S
C764 C8 1.382 . S
C769 C161 1.261 . S
C774 C307 1.333 . S
C779 C281 1.334 . S
C784 C174 1.263 . S
C789 C294 1.336 . S
C794 C187 1.264 . S
C799 C200 1.295 . S
C804 C255 1.361 . S
C809 C268 1.362 . S
C814 C213 1.295 . S
C819 C226 1.293 . S
C824 C242 1.362 . S
C829 C239 1.286 . S
C834 C229 1.357 . S
C839 C252 1.290 . S
C844 C203 1.356 . S
C849 C216 1.356 . S
C854 C265 1.286 . S
C859 C177 1.390 . S
C864 C278 1.318 . S
C869 C190 1.392 . S
C874 C291 1.321 . S
C879 C304 1.318 . S
C884 C164 1.391 . S
C889 C463 1.355 . S
C894 C317 1.288 . S
C899 C330 1.291 . S
C904 C437 1.356 . S
C909 C343 1.288 . S
C914 C450 1.355 . S
C919 C356 1.316 . S
C924 C411 1.392 . S
C929 C424 1.389 . S
C934 C369 1.319 . S
C939 C382 1.319 . S
C944 C398 1.393 . S
C949 C385 1.336 . S
C954 C395 1.263 . S
C959 C359 1.336 . S
C964 C408 1.263 . S
C969 C372 1.334 . S
C974 C421 1.260 . S
C979 C333 1.360 . S
C984 C434 1.291 . S
C989 C346 1.360 . S
C994 C447 1.294 . S
C999 C320 1.362 . S
C1004 C460 1.293 . S
C1009 C387 1.446 . S
C1014 C10 1.447 . S
C1019 C23 1.447 . S
C1024 C361 1.446 . S
C1029 C374 1.447 . S
C1034 C36 1.447 . S
C1039 C49 1.445 . S
C1044 C179 1.444 . S
C1049 C192 1.444 . S
C1054 C62 1.445 . S
C1059 C75 1.445 . S
C1064 C166 1.445 . S
C1069 C88 1.446 . S
C1074 C309 1.447 . S
C1079 C283 1.448 . S
C1084 C101 1.446 . S
C1089 C114 1.447 . S
C1094 C296 1.447 . S
C1099 C127 1.443 . S
C1104 C413 1.446 . S
C1109 C140 1.443 . S
C1114 C426 1.446 . S
C1119 C400 1.444 . S
C1124 C153 1.444 . S
C1129 C335 1.434 . S
C1134 C205 1.432 . S
C1139 C348 1.432 . S
C1144 C218 1.433 . S
C1149 C322 1.433 . S
C1154 C231 1.433 . S
C1159 C244 1.433 . S
C1164 C465 1.433 . S
C1169 C439 1.432 . S
C1174 C257 1.434 . S
C1179 C270 1.432 . S
C1184 C452 1.433 . S
