# Generated by pormake.
# Topology gis, (4)-cn, num edge types: 1
# Building blocks:
#     Node 0, Type 0, BuildingBlock: QUQFOY_clean_sbu_1, # of connection points: 4
#     Node 1, Type 0, BuildingBlock: QUQFOY_clean_sbu_1, # of connection points: 4
#     Node 2, Type 0, BuildingBlock: QUQFOY_clean_sbu_1, # of connection points: 4
#     Node 3, Type 0, BuildingBlock: QUQFOY_clean_sbu_1, # of connection points: 4
#     Node 4, Type 0, BuildingBlock: QUQFOY_clean_sbu_1, # of connection points: 4
#     Node 5, Type 0, BuildingBlock: QUQFOY_clean_sbu_1, # of connection points: 4
#     Node 6, Type 0, BuildingBlock: QUQFOY_clean_sbu_1, # of connection points: 4
#     Node 7, Type 0, BuildingBlock: QUQFOY_clean_sbu_1, # of connection points: 4
#     Node 8, Type 0, BuildingBlock: QUQFOY_clean_sbu_1, # of connection points: 4
#     Node 9, Type 0, BuildingBlock: QUQFOY_clean_sbu_1, # of connection points: 4
#     Node 10, Type 0, BuildingBlock: QUQFOY_clean_sbu_1, # of connection points: 4
#     Node 11, Type 0, BuildingBlock: QUQFOY_clean_sbu_1, # of connection points: 4
#     Node 12, Type 0, BuildingBlock: QUQFOY_clean_sbu_1, # of connection points: 4
#     Node 13, Type 0, BuildingBlock: QUQFOY_clean_sbu_1, # of connection points: 4
#     Node 14, Type 0, BuildingBlock: QUQFOY_clean_sbu_1, # of connection points: 4
#     Node 15, Type 0, BuildingBlock: QUQFOY_clean_sbu_1, # of connection points: 4
#     Edge 16, Type (0, 0), BuildingBlock: EZIPEK_clean_linker_0, # of connection points: 2
#     Edge 17, Type (0, 0), BuildingBlock: EZIPEK_clean_linker_0, # of connection points: 2
#     Edge 18, Type (0, 0), BuildingBlock: EZIPEK_clean_linker_0, # of connection points: 2
#     Edge 19, Type (0, 0), BuildingBlock: EZIPEK_clean_linker_0, # of connection points: 2
#     Edge 20, Type (0, 0), BuildingBlock: EZIPEK_clean_linker_0, # of connection points: 2
#     Edge 21, Type (0, 0), BuildingBlock: EZIPEK_clean_linker_0, # of connection points: 2
#     Edge 22, Type (0, 0), BuildingBlock: EZIPEK_clean_linker_0, # of connection points: 2
#     Edge 23, Type (0, 0), BuildingBlock: EZIPEK_clean_linker_0, # of connection points: 2
#     Edge 24, Type (0, 0), BuildingBlock: EZIPEK_clean_linker_0, # of connection points: 2
#     Edge 25, Type (0, 0), BuildingBlock: EZIPEK_clean_linker_0, # of connection points: 2
#     Edge 26, Type (0, 0), BuildingBlock: EZIPEK_clean_linker_0, # of connection points: 2
#     Edge 27, Type (0, 0), BuildingBlock: EZIPEK_clean_linker_0, # of connection points: 2
#     Edge 28, Type (0, 0), BuildingBlock: EZIPEK_clean_linker_0, # of connection points: 2
#     Edge 29, Type (0, 0), BuildingBlock: EZIPEK_clean_linker_0, # of connection points: 2
#     Edge 30, Type (0, 0), BuildingBlock: EZIPEK_clean_linker_0, # of connection points: 2
#     Edge 31, Type (0, 0), BuildingBlock: EZIPEK_clean_linker_0, # of connection points: 2
#     Edge 32, Type (0, 0), BuildingBlock: EZIPEK_clean_linker_0, # of connection points: 2
#     Edge 33, Type (0, 0), BuildingBlock: EZIPEK_clean_linker_0, # of connection points: 2
#     Edge 34, Type (0, 0), BuildingBlock: EZIPEK_clean_linker_0, # of connection points: 2
#     Edge 35, Type (0, 0), BuildingBlock: EZIPEK_clean_linker_0, # of connection points: 2
#     Edge 36, Type (0, 0), BuildingBlock: EZIPEK_clean_linker_0, # of connection points: 2
#     Edge 37, Type (0, 0), BuildingBlock: EZIPEK_clean_linker_0, # of connection points: 2
#     Edge 38, Type (0, 0), BuildingBlock: EZIPEK_clean_linker_0, # of connection points: 2
#     Edge 39, Type (0, 0), BuildingBlock: EZIPEK_clean_linker_0, # of connection points: 2
#     Edge 40, Type (0, 0), BuildingBlock: EZIPEK_clean_linker_0, # of connection points: 2
#     Edge 41, Type (0, 0), BuildingBlock: EZIPEK_clean_linker_0, # of connection points: 2
#     Edge 42, Type (0, 0), BuildingBlock: EZIPEK_clean_linker_0, # of connection points: 2
#     Edge 43, Type (0, 0), BuildingBlock: EZIPEK_clean_linker_0, # of connection points: 2
#     Edge 44, Type (0, 0), BuildingBlock: EZIPEK_clean_linker_0, # of connection points: 2
#     Edge 45, Type (0, 0), BuildingBlock: EZIPEK_clean_linker_0, # of connection points: 2
#     Edge 46, Type (0, 0), BuildingBlock: EZIPEK_clean_linker_0, # of connection points: 2
#     Edge 47, Type (0, 0), BuildingBlock: EZIPEK_clean_linker_0, # of connection points: 2
# Relax obj value: 0.008
# Max RMSD: 0.052
# Mean RMSD: 0.052
data_MOF--net-gis--node1-QUQFOY_clean_sbu_1--edge1-EZIPEK_clean_linker_0
_symmetry_space_group_name_H-M    P1
_symmetry_Int_Tables_number       1
_symmetry_cell_setting            triclinic
loop_
_symmetry_equiv_pos_as_xyz
'x, y, z'
_cell_length_a     40.077191
_cell_length_b     40.00001
_cell_length_c     31.507662
_cell_angle_alpha  90.00562
_cell_angle_beta   90.080896
_cell_angle_gamma 89.976205
loop_
_atom_site_label
_atom_site_type_symbol
_atom_site_fract_x
_atom_site_fract_y
_atom_site_fract_z
_atom_type_partial_charge
O0 O 0.14737 0.67797 0.1516 0.0
Cd1 Cd 0.14477 0.63078 0.17792 0.0
Cd2 Cd 0.12887 0.61618 0.09784 0.0
O3 O 0.14367 0.66446 0.08375 0.0
O4 O 0.1691 0.63605 0.23244 0.0
O5 O 0.18705 0.60353 0.18027 0.0
C6 C 0.19188 0.61677 0.21717 0.0
C7 C 0.14659 0.56927 0.06022 0.0
C8 C 0.14778 0.68625 0.11269 0.0
C9 C 0.07528 0.60969 0.16463 0.0
O10 O 0.08252 0.61132 0.12547 0.0
O11 O 0.09766 0.61351 0.1928 0.0
O12 O 0.12486 0.58968 0.04463 0.0
O13 O 0.16008 0.57675 0.09628 0.0
O14 O 0.64936 0.83927 0.37263 0.0
Cd15 Cd 0.64864 0.88686 0.34705 0.0
Cd16 Cd 0.63883 0.90088 0.42749 0.0
O17 O 0.65731 0.8536 0.4395 0.0
O18 O 0.67187 0.88183 0.29179 0.0
O19 O 0.69213 0.9119 0.34511 0.0
C20 C 0.69591 0.89927 0.30765 0.0
C21 C 0.65121 0.94772 0.46818 0.0
C22 C 0.65534 0.83128 0.41091 0.0
C23 C 0.58111 0.90725 0.36612 0.0
O24 O 0.59083 0.90229 0.40398 0.0
O25 O 0.60183 0.90652 0.3357 0.0
O26 O 0.63395 0.92333 0.48334 0.0
O27 O 0.66386 0.94451 0.4307 0.0
O28 O 0.36662 0.33453 0.65721 0.0
Cd29 Cd 0.36769 0.38222 0.68254 0.0
Cd30 Cd 0.38062 0.39597 0.60201 0.0
O31 O 0.36161 0.34891 0.58992 0.0
O32 O 0.34475 0.37726 0.73803 0.0
O33 O 0.32414 0.40723 0.68489 0.0
C34 C 0.32066 0.39478 0.72247 0.0
C35 C 0.36733 0.44284 0.56182 0.0
C36 C 0.3617 0.32663 0.61865 0.0
C37 C 0.4361 0.40336 0.66582 0.0
O38 O 0.4282 0.39833 0.62728 0.0
O39 O 0.41403 0.40259 0.69468 0.0
O40 O 0.38529 0.41899 0.54647 0.0
O41 O 0.35473 0.4391 0.59925 0.0
O42 O 0.92699 0.11081 0.89987 0.0
Cd43 Cd 0.88061 0.11626 0.92753 0.0
Cd44 Cd 0.86591 0.13213 0.84735 0.0
O45 O 0.91209 0.1126 0.83245 0.0
O46 O 0.88519 0.09042 0.98116 0.0
O47 O 0.84931 0.07694 0.93054 0.0
C48 C 0.86319 0.06991 0.9665 0.0
C49 C 0.818 0.12102 0.80812 0.0
C50 C 0.93431 0.10854 0.86078 0.0
C51 C 0.86417 0.18694 0.9134 0.0
O52 O 0.86574 0.17915 0.87437 0.0
O53 O 0.86602 0.16456 0.94196 0.0
O54 O 0.8418 0.13905 0.79291 0.0
O55 O 0.82222 0.10726 0.84484 0.0
O56 O 0.14684 0.33762 0.87538 0.0
Cd57 Cd 0.14656 0.38533 0.85012 0.0
Cd58 Cd 0.1297 0.39834 0.92985 0.0
O59 O 0.14429 0.35007 0.9436 0.0
O60 O 0.17095 0.37918 0.79584 0.0
O61 O 0.19022 0.4103 0.84867 0.0
C62 C 0.19462 0.39706 0.81171 0.0
C63 C 0.14703 0.4452 0.9678 0.0
C64 C 0.14743 0.32866 0.91406 0.0
C65 C 0.07737 0.40702 0.86201 0.0
O66 O 0.08373 0.40305 0.90117 0.0
O67 O 0.10053 0.40527 0.83462 0.0
O68 O 0.1252 0.42476 0.98302 0.0
O69 O 0.16083 0.43776 0.93196 0.0
O70 O 0.8683 0.83848 0.15409 0.0
Cd71 Cd 0.86998 0.8857 0.18041 0.0
Cd72 Cd 0.88286 0.90094 0.09997 0.0
O73 O 0.86692 0.85288 0.08647 0.0
O74 O 0.84628 0.88023 0.23532 0.0
O75 O 0.82689 0.91154 0.18271 0.0
C76 C 0.82267 0.89842 0.21979 0.0
C77 C 0.8646 0.94753 0.06202 0.0
C78 C 0.86542 0.83061 0.11519 0.0
C79 C 0.93841 0.90802 0.16449 0.0
O80 O 0.9301 0.90572 0.12569 0.0
O81 O 0.91682 0.90447 0.19362 0.0
O82 O 0.88588 0.92681 0.04619 0.0
O83 O 0.85194 0.94063 0.09869 0.0
O84 O 0.42568 0.61333 0.40397 0.0
Cd85 Cd 0.37835 0.61513 0.42992 0.0
Cd86 Cd 0.36403 0.62412 0.34914 0.0
O87 O 0.41085 0.60459 0.33742 0.0
O88 O 0.38358 0.59278 0.4858 0.0
O89 O 0.35296 0.57183 0.43345 0.0
C90 C 0.36586 0.56858 0.47084 0.0
C91 C 0.31716 0.61214 0.30837 0.0
C92 C 0.43332 0.60657 0.3658 0.0
C93 C 0.35867 0.6828 0.40932 0.0
O94 O 0.36333 0.67252 0.37165 0.0
O95 O 0.35934 0.66243 0.44021 0.0
O96 O 0.34184 0.62885 0.29306 0.0
O97 O 0.32004 0.59979 0.34609 0.0
O98 O 0.64588 0.18289 0.65218 0.0
Cd99 Cd 0.64465 0.13567 0.67856 0.0
Cd100 Cd 0.63245 0.12028 0.59815 0.0
O101 O 0.65018 0.16769 0.58509 0.0
O102 O 0.66796 0.1411 0.73383 0.0
O103 O 0.68795 0.11022 0.68121 0.0
C104 C 0.69179 0.12313 0.7185 0.0
C105 C 0.64711 0.07344 0.55878 0.0
C106 C 0.65023 0.19032 0.61339 0.0
C107 C 0.57645 0.11349 0.66137 0.0
O108 O 0.58479 0.11693 0.62275 0.0
O109 O 0.59802 0.11613 0.69076 0.0
O110 O 0.62847 0.09661 0.54302 0.0
O111 O 0.65954 0.07786 0.59622 0.0
O112 O 0.86601 0.33729 0.87425 0.0
Cd113 Cd 0.86729 0.38474 0.84853 0.0
Cd114 Cd 0.88294 0.39892 0.92866 0.0
O115 O 0.86646 0.35113 0.94209 0.0
O116 O 0.8432 0.37925 0.79388 0.0
O117 O 0.82409 0.4105 0.84665 0.0
C118 C 0.81971 0.39747 0.80953 0.0
C119 C 0.86941 0.44584 0.96857 0.0
C120 C 0.86402 0.32916 0.91312 0.0
C121 C 0.93645 0.40611 0.86232 0.0
O122 O 0.9295 0.40256 0.90136 0.0
O123 O 0.91384 0.40373 0.83418 0.0
O124 O 0.88855 0.42273 0.9835 0.0
O125 O 0.85571 0.44121 0.93188 0.0
O126 O 0.36378 0.17567 0.6546 0.0
Cd127 Cd 0.36543 0.12785 0.67911 0.0
Cd128 Cd 0.37888 0.11535 0.59843 0.0
O129 O 0.36029 0.16265 0.58666 0.0
O130 O 0.34266 0.13302 0.73468 0.0
O131 O 0.32198 0.10267 0.68196 0.0
C132 C 0.31849 0.11552 0.71933 0.0
C133 C 0.36537 0.068 0.559 0.0
C134 C 0.35955 0.18429 0.61619 0.0
C135 C 0.43452 0.10899 0.66222 0.0
O136 O 0.42643 0.11381 0.62371 0.0
O137 O 0.4124 0.10868 0.69108 0.0
O138 O 0.3832 0.09173 0.54315 0.0
O139 O 0.35303 0.07211 0.59652 0.0
O140 O 0.647 0.68067 0.37319 0.0
Cd141 Cd 0.64401 0.63338 0.34734 0.0
Cd142 Cd 0.63063 0.61909 0.42864 0.0
O143 O 0.646 0.66747 0.44128 0.0
O144 O 0.66704 0.63862 0.29191 0.0
O145 O 0.68683 0.60708 0.34405 0.0
C146 C 0.69072 0.62026 0.30695 0.0
C147 C 0.64918 0.57265 0.4666 0.0
C148 C 0.64904 0.6891 0.41197 0.0
C149 C 0.5752 0.61124 0.36427 0.0
O150 O 0.58357 0.61353 0.40304 0.0
O151 O 0.59665 0.61517 0.33502 0.0
O152 O 0.62789 0.59332 0.48252 0.0
O153 O 0.66188 0.57968 0.42999 0.0
O154 O 0.08671 0.90293 0.1235 0.0
Cd155 Cd 0.13308 0.89864 0.09566 0.0
Cd156 Cd 0.14906 0.88545 0.17532 0.0
O157 O 0.10306 0.90574 0.19023 0.0
O158 O 0.1283 0.92462 0.0422 0.0
O159 O 0.16354 0.93855 0.09342 0.0
C160 C 0.14971 0.94552 0.0574 0.0
C161 C 0.19745 0.89807 0.2132 0.0
C162 C 0.08006 0.90723 0.1625 0.0
C163 C 0.15028 0.82886 0.11134 0.0
O164 O 0.14873 0.83758 0.1501 0.0
O165 O 0.14859 0.85062 0.08203 0.0
O166 O 0.17399 0.88023 0.22958 0.0
O167 O 0.19274 0.91058 0.17586 0.0
O168 O 0.86442 0.67986 0.15427 0.0
Cd169 Cd 0.86485 0.63206 0.17925 0.0
Cd170 Cd 0.88068 0.61905 0.09911 0.0
O171 O 0.86335 0.66657 0.08628 0.0
O172 O 0.84072 0.63745 0.23387 0.0
O173 O 0.82117 0.60708 0.18049 0.0
C174 C 0.81693 0.61984 0.21778 0.0
C175 C 0.8684 0.57223 0.05826 0.0
C176 C 0.86178 0.68834 0.11556 0.0
C177 C 0.93406 0.61136 0.16552 0.0
O178 O 0.92728 0.61633 0.12665 0.0
O179 O 0.91114 0.61199 0.19334 0.0
O180 O 0.88679 0.59607 0.04376 0.0
O181 O 0.85467 0.57607 0.09503 0.0
O182 O 0.1446 0.17782 0.87311 0.0
Cd183 Cd 0.14445 0.13028 0.84713 0.0
Cd184 Cd 0.12931 0.11606 0.92672 0.0
O185 O 0.14472 0.164 0.94094 0.0
O186 O 0.16882 0.13604 0.79271 0.0
O187 O 0.18801 0.1051 0.84576 0.0
C188 C 0.1924 0.11802 0.80861 0.0
C189 C 0.1472 0.06914 0.96417 0.0
C190 C 0.14645 0.18606 0.91201 0.0
C191 C 0.07569 0.10813 0.86025 0.0
O192 O 0.08271 0.11175 0.89929 0.0
O193 O 0.09841 0.11019 0.8323 0.0
O194 O 0.12551 0.08952 0.97985 0.0
O195 O 0.1604 0.07656 0.92796 0.0
O196 O 0.58543 0.40666 0.62515 0.0
Cd197 Cd 0.63209 0.40243 0.59812 0.0
Cd198 Cd 0.64702 0.38705 0.67839 0.0
O199 O 0.59991 0.40455 0.69273 0.0
O200 O 0.62796 0.42886 0.54491 0.0
O201 O 0.66307 0.44205 0.59652 0.0
C202 C 0.64963 0.44936 0.56038 0.0
C203 C 0.69398 0.39895 0.71904 0.0
C204 C 0.57777 0.40816 0.66419 0.0
C205 C 0.6504 0.33228 0.61231 0.0
O206 O 0.64918 0.3402 0.6513 0.0
O207 O 0.64724 0.35438 0.58358 0.0
O208 O 0.67032 0.38033 0.7334 0.0
O209 O 0.69001 0.413 0.68246 0.0
O210 O 0.36386 0.837 0.3671 0.0
Cd211 Cd 0.3689 0.88518 0.34523 0.0
Cd212 Cd 0.37941 0.89583 0.4282 0.0
O213 O 0.36417 0.84654 0.43613 0.0
O214 O 0.34787 0.88243 0.28811 0.0
O215 O 0.32656 0.91223 0.34084 0.0
C216 C 0.32368 0.90015 0.30296 0.0
C217 C 0.36379 0.94134 0.46966 0.0
C218 C 0.36167 0.82641 0.40498 0.0
C219 C 0.43797 0.90373 0.36869 0.0
O220 O 0.42747 0.90123 0.40654 0.0
O221 O 0.41791 0.90108 0.33751 0.0
O222 O 0.38169 0.91742 0.48501 0.0
O223 O 0.3519 0.93799 0.43175 0.0
C224 C 0.18141 0.77457 0.11462 0.0
C225 C 0.15281 0.79271 0.10124 0.0
C226 C 0.12297 0.74028 0.08721 0.0
C227 C 0.15116 0.72217 0.10202 0.0
N228 N 0.20934 0.72076 0.12067 0.0
N229 N 0.09934 0.79354 0.06585 0.0
C230 C 0.18113 0.739 0.11276 0.0
C231 C 0.12471 0.77575 0.08415 0.0
N232 N 0.20849 0.7915 0.12997 0.0
N233 N 0.09372 0.72381 0.07912 0.0
H234 H 0.09874 0.81956 0.0649 0.0
H235 H 0.08005 0.78259 0.04861 0.0
H236 H 0.09141 0.69787 0.08043 0.0
H237 H 0.07105 0.73579 0.07374 0.0
H238 H 0.22854 0.78012 0.14524 0.0
H239 H 0.21043 0.8175 0.1286 0.0
H240 H 0.23282 0.73119 0.12547 0.0
H241 H 0.20976 0.6947 0.11904 0.0
C242 C 0.49079 0.93328 0.34614 0.0
C243 C 0.47458 0.90414 0.36162 0.0
C244 C 0.52843 0.87536 0.36626 0.0
C245 C 0.54488 0.90583 0.35762 0.0
N246 N 0.54287 0.96428 0.34005 0.0
N247 N 0.47862 0.84857 0.39182 0.0
C248 C 0.52641 0.93492 0.34712 0.0
C249 C 0.49356 0.87541 0.37292 0.0
N250 N 0.47219 0.95942 0.3313 0.0
N251 N 0.54627 0.84619 0.36778 0.0
H252 H 0.45317 0.84732 0.39773 0.0
H253 H 0.49183 0.82877 0.40522 0.0
H254 H 0.57198 0.84523 0.36269 0.0
H255 H 0.53522 0.82267 0.36962 0.0
H256 H 0.48237 0.9801 0.31603 0.0
H257 H 0.44617 0.95941 0.33177 0.0
H258 H 0.53099 0.98729 0.33683 0.0
H259 H 0.56886 0.96582 0.33952 0.0
C260 C 0.38362 0.27331 0.58752 0.0
C261 C 0.35729 0.29083 0.60784 0.0
C262 C 0.32788 0.23793 0.62052 0.0
C263 C 0.3565 0.22036 0.60642 0.0
N264 N 0.41221 0.22043 0.57755 0.0
N265 N 0.30343 0.29101 0.64157 0.0
C266 C 0.38426 0.23776 0.58927 0.0
C267 C 0.32894 0.27344 0.62334 0.0
N268 N 0.40835 0.29064 0.56734 0.0
N269 N 0.2997 0.22045 0.63076 0.0
H270 H 0.30238 0.31708 0.64111 0.0
H271 H 0.28387 0.28007 0.6582 0.0
H272 H 0.29835 0.19446 0.62837 0.0
H273 H 0.27698 0.2315 0.63834 0.0
H274 H 0.42619 0.27945 0.54801 0.0
H275 H 0.4097 0.31665 0.56707 0.0
H276 H 0.43488 0.23167 0.57017 0.0
H277 H 0.41354 0.1944 0.57757 0.0
C278 C 0.0229 0.13047 0.8284 0.0
C279 C 0.0402 0.10367 0.84818 0.0
C280 C 0.987 0.0752 0.86163 0.0
C281 C 0.96985 0.10456 0.84903 0.0
N282 N 0.97093 0.16099 0.8218 0.0
N283 N 0.03974 0.04945 0.88127 0.0
C284 C 0.98755 0.13214 0.83176 0.0
C285 C 0.02249 0.07547 0.86361 0.0
N286 N 0.04022 0.1548 0.80738 0.0
N287 N 0.96913 0.04715 0.87143 0.0
H288 H 0.06574 0.04799 0.88051 0.0
H289 H 0.02858 0.0299 0.89778 0.0
H290 H 0.94312 0.04643 0.86978 0.0
H291 H 0.97985 0.02397 0.87769 0.0
H292 H 0.02889 0.17283 0.78839 0.0
H293 H 0.06615 0.15547 0.80573 0.0
H294 H 0.98281 0.18344 0.8147 0.0
H295 H 0.94508 0.16339 0.82335 0.0
C296 C 0.12105 0.27494 0.93763 0.0
C297 C 0.14981 0.29252 0.92375 0.0
C298 C 0.17882 0.23959 0.91021 0.0
C299 C 0.14969 0.222 0.92274 0.0
N300 N 0.09591 0.22195 0.9571 0.0
N301 N 0.20815 0.29272 0.90607 0.0
C302 C 0.12186 0.2394 0.93975 0.0
C303 C 0.17943 0.2751 0.91303 0.0
N304 N 0.0922 0.29208 0.9458 0.0
N305 N 0.20555 0.22222 0.89469 0.0
H306 H 0.20921 0.31873 0.90842 0.0
H307 H 0.23139 0.28176 0.9014 0.0
H308 H 0.20681 0.19617 0.89522 0.0
H309 H 0.22596 0.23335 0.88 0.0
H310 H 0.06919 0.28065 0.95057 0.0
H311 H 0.09064 0.31809 0.94526 0.0
H312 H 0.07666 0.23308 0.97417 0.0
H313 H 0.09474 0.19594 0.9574 0.0
C314 C 0.99201 0.88409 0.1924 0.0
C315 C 0.97427 0.91165 0.17501 0.0
C316 C 0.02695 0.94012 0.15897 0.0
C317 C 0.04466 0.91201 0.17478 0.0
N318 N 0.04483 0.8613 0.21636 0.0
N319 N 0.97372 0.96881 0.15151 0.0
C320 C 0.02741 0.88553 0.19521 0.0
C321 C 0.99148 0.9407 0.16153 0.0
N322 N 0.97532 0.85546 0.20305 0.0
N323 N 0.04415 0.96575 0.14043 0.0
H324 H 0.94774 0.9698 0.15356 0.0
H325 H 0.98456 0.99182 0.14469 0.0
H326 H 0.07016 0.96704 0.14073 0.0
H327 H 0.0329 0.9851 0.1236 0.0
H328 H 0.98714 0.83301 0.21037 0.0
H329 H 0.94944 0.8532 0.20181 0.0
H330 H 0.03361 0.8435 0.23577 0.0
H331 H 0.07078 0.8605 0.21764 0.0
C332 C 0.33133 0.73773 0.42842 0.0
C333 C 0.36012 0.71923 0.41696 0.0
C334 C 0.38987 0.77066 0.39976 0.0
C335 C 0.36147 0.78969 0.41209 0.0
N336 N 0.3071 0.79205 0.44463 0.0
N337 N 0.41936 0.718 0.40445 0.0
C338 C 0.33287 0.77343 0.42894 0.0
C339 C 0.39022 0.73576 0.40683 0.0
N340 N 0.30225 0.72121 0.43683 0.0
N341 N 0.41613 0.78556 0.37962 0.0
H342 H 0.42058 0.69229 0.40992 0.0
H343 H 0.44273 0.72916 0.40155 0.0
H344 H 0.41728 0.81103 0.37349 0.0
H345 H 0.4355 0.77225 0.36548 0.0
H346 H 0.27936 0.73308 0.44081 0.0
H347 H 0.30077 0.69517 0.43764 0.0
H348 H 0.28697 0.78186 0.46097 0.0
H349 H 0.30689 0.81811 0.44372 0.0
C350 C 0.52438 0.07923 0.65834 0.0
C351 C 0.5407 0.10889 0.67159 0.0
C352 C 0.48698 0.13328 0.69244 0.0
C353 C 0.47043 0.10596 0.67282 0.0
N354 N 0.47228 0.05196 0.63928 0.0
N355 N 0.53827 0.16491 0.69984 0.0
C356 C 0.48888 0.07844 0.65681 0.0
C357 C 0.52229 0.13586 0.68919 0.0
N358 N 0.54301 0.05184 0.64773 0.0
N359 N 0.46893 0.15715 0.71336 0.0
H360 H 0.56409 0.16781 0.69844 0.0
H361 H 0.52594 0.18701 0.70748 0.0
H362 H 0.44297 0.15708 0.71485 0.0
H363 H 0.47965 0.17561 0.73224 0.0
H364 H 0.53298 0.02849 0.64079 0.0
H365 H 0.56903 0.05179 0.64915 0.0
H366 H 0.48381 0.0329 0.62226 0.0
H367 H 0.44637 0.04959 0.64079 0.0
C368 C 0.83174 0.24041 0.91174 0.0
C369 C 0.86081 0.22279 0.92459 0.0
C370 C 0.88973 0.27568 0.93866 0.0
C371 C 0.86118 0.29326 0.92392 0.0
N372 N 0.80296 0.29378 0.90554 0.0
N373 N 0.91445 0.22273 0.95943 0.0
C374 C 0.83144 0.27597 0.91346 0.0
C375 C 0.88869 0.24018 0.94151 0.0
N376 N 0.8048 0.22296 0.8969 0.0
N377 N 0.91858 0.29276 0.94701 0.0
H378 H 0.91529 0.19672 0.96046 0.0
H379 H 0.93381 0.2339 0.9763 0.0
H380 H 0.92023 0.31876 0.94609 0.0
H381 H 0.9415 0.28129 0.95244 0.0
H382 H 0.78432 0.23393 0.88211 0.0
H383 H 0.8034 0.19693 0.8983 0.0
H384 H 0.77963 0.28302 0.90082 0.0
H385 H 0.80219 0.31984 0.90695 0.0
C386 C 0.62672 0.74394 0.43824 0.0
C387 C 0.65381 0.72494 0.42212 0.0
C388 C 0.68509 0.77631 0.4072 0.0
C389 C 0.65753 0.79532 0.42181 0.0
N390 N 0.60544 0.79816 0.45988 0.0
N391 N 0.71125 0.72169 0.40049 0.0
C392 C 0.62957 0.77937 0.44059 0.0
C393 C 0.68387 0.7408 0.40961 0.0
N394 N 0.59743 0.72834 0.44841 0.0
N395 N 0.71198 0.79236 0.39001 0.0
H396 H 0.711 0.69565 0.40252 0.0
H397 H 0.73481 0.73142 0.39428 0.0
H398 H 0.71453 0.81832 0.39069 0.0
H399 H 0.73117 0.78029 0.37391 0.0
H400 H 0.57533 0.74096 0.45506 0.0
H401 H 0.59446 0.70246 0.44777 0.0
H402 H 0.58622 0.78805 0.47797 0.0
H403 H 0.60597 0.8242 0.46072 0.0
C404 C 0.88802 0.74123 0.08905 0.0
C405 C 0.85955 0.72437 0.10518 0.0
C406 C 0.8318 0.77797 0.1186 0.0
C407 C 0.86086 0.79484 0.10433 0.0
N408 N 0.91325 0.7935 0.06677 0.0
N409 N 0.80197 0.72534 0.12637 0.0
C410 C 0.88772 0.77674 0.0861 0.0
C411 C 0.83059 0.74241 0.11704 0.0
N412 N 0.91622 0.72347 0.07947 0.0
N413 N 0.80574 0.79612 0.1345 0.0
H414 H 0.8005 0.69931 0.12501 0.0
H415 H 0.77908 0.73667 0.13228 0.0
H416 H 0.80489 0.82217 0.13291 0.0
H417 H 0.78545 0.78572 0.15026 0.0
H418 H 0.9392 0.73442 0.07293 0.0
H419 H 0.91739 0.69745 0.08056 0.0
H420 H 0.93171 0.78182 0.04891 0.0
H421 H 0.91469 0.81949 0.06558 0.0
C422 C 0.68308 0.27924 0.61414 0.0
C423 C 0.65383 0.29646 0.60134 0.0
C424 C 0.62732 0.24321 0.58236 0.0
C425 C 0.65424 0.22601 0.60192 0.0
N426 N 0.70865 0.22649 0.63434 0.0
N427 N 0.59746 0.29558 0.57434 0.0
C428 C 0.68261 0.24373 0.61676 0.0
C429 C 0.62603 0.27872 0.58474 0.0
N430 N 0.71127 0.29706 0.62344 0.0
N431 N 0.60263 0.2256 0.56239 0.0
H432 H 0.59552 0.32155 0.57509 0.0
H433 H 0.57489 0.28389 0.56748 0.0
H434 H 0.60192 0.19958 0.56153 0.0
H435 H 0.58427 0.23666 0.54368 0.0
H436 H 0.73433 0.28625 0.62993 0.0
H437 H 0.71222 0.32308 0.62122 0.0
H438 H 0.72828 0.2377 0.65063 0.0
H439 H 0.71003 0.20043 0.6338 0.0
C440 C 0.02494 0.38543 0.82848 0.0
C441 C 0.04208 0.41184 0.84926 0.0
C442 C 0.98879 0.43979 0.86376 0.0
C443 C 0.97183 0.41059 0.85025 0.0
N444 N 0.97297 0.35508 0.82028 0.0
N445 N 0.04144 0.4655 0.88378 0.0
C446 C 0.98958 0.38358 0.83171 0.0
C447 C 0.02427 0.4397 0.86551 0.0
N448 N 0.04241 0.36164 0.80666 0.0
N449 N 0.97074 0.46748 0.87473 0.0
H450 H 0.06743 0.46711 0.88283 0.0
H451 H 0.03026 0.48474 0.90086 0.0
H452 H 0.94472 0.46806 0.87317 0.0
H453 H 0.98127 0.49055 0.882 0.0
H454 H 0.03122 0.34386 0.78717 0.0
H455 H 0.06834 0.36126 0.80487 0.0
H456 H 0.98481 0.33285 0.81206 0.0
H457 H 0.94708 0.35279 0.82149 0.0
C458 C 0.52327 0.57675 0.36671 0.0
C459 C 0.5394 0.60666 0.35403 0.0
C460 C 0.48527 0.63148 0.33552 0.0
C461 C 0.4691 0.60377 0.35464 0.0
N462 N 0.47156 0.54932 0.3869 0.0
N463 N 0.53638 0.66331 0.32787 0.0
C464 C 0.48781 0.57598 0.36936 0.0
C465 C 0.52064 0.63401 0.33789 0.0
N466 N 0.54206 0.54912 0.37581 0.0
N467 N 0.46676 0.65571 0.31591 0.0
H468 H 0.56222 0.66621 0.32865 0.0
H469 H 0.52388 0.68554 0.32134 0.0
H470 H 0.44076 0.65542 0.31501 0.0
H471 H 0.47706 0.67469 0.29753 0.0
H472 H 0.53208 0.52562 0.38204 0.0
H473 H 0.56805 0.5491 0.37368 0.0
H474 H 0.48347 0.53 0.40302 0.0
H475 H 0.44561 0.54714 0.38653 0.0
C476 C 0.52372 0.43925 0.66376 0.0
C477 C 0.54202 0.41037 0.67556 0.0
C478 C 0.49004 0.38186 0.69505 0.0
C479 C 0.47173 0.40847 0.67647 0.0
N480 N 0.46993 0.4634 0.64544 0.0
N481 N 0.54318 0.35332 0.7007 0.0
C482 C 0.48826 0.43765 0.66193 0.0
C483 C 0.52542 0.38169 0.69172 0.0
N484 N 0.54047 0.46815 0.6547 0.0
N485 N 0.47359 0.3564 0.71503 0.0
H486 H 0.56911 0.35199 0.69906 0.0
H487 H 0.53221 0.33028 0.70706 0.0
H488 H 0.44767 0.35488 0.71658 0.0
H489 H 0.48554 0.33823 0.73318 0.0
H490 H 0.52886 0.49098 0.64901 0.0
H491 H 0.56643 0.46986 0.65629 0.0
H492 H 0.48021 0.48371 0.62952 0.0
H493 H 0.44391 0.46387 0.64661 0.0
C494 C 0.02219 0.57712 0.16429 0.0
C495 C 0.03973 0.60631 0.17659 0.0
C496 C 0.98706 0.63307 0.19709 0.0
C497 C 0.96944 0.60642 0.1776 0.0
N498 N 0.96907 0.552 0.14508 0.0
N499 N 0.03946 0.66285 0.20354 0.0
C500 C 0.98671 0.57787 0.16241 0.0
C501 C 0.02243 0.63423 0.19371 0.0
N502 N 0.03966 0.54876 0.15466 0.0
N503 N 0.96996 0.65769 0.21788 0.0
H504 H 0.06534 0.66484 0.20192 0.0
H505 H 0.02791 0.68546 0.21068 0.0
H506 H 0.94402 0.65838 0.21969 0.0
H507 H 0.98144 0.67587 0.2365 0.0
H508 H 0.02861 0.52571 0.14857 0.0
H509 H 0.06566 0.54766 0.15627 0.0
H510 H 0.9799 0.53223 0.12864 0.0
H511 H 0.94305 0.55094 0.14604 0.0
C512 C 0.15813 0.53815 0.99285 0.0
C513 C 0.15416 0.53747 0.03757 0.0
C514 C 0.15803 0.47632 0.03536 0.0
C515 C 0.15436 0.477 0.99059 0.0
N516 N 0.14577 0.51009 0.92694 0.0
N517 N 0.14525 0.50438 0.10111 0.0
C518 C 0.1535 0.50829 0.96914 0.0
C519 C 0.15322 0.50618 0.059 0.0
N520 N 0.16652 0.5673 0.97298 0.0
N521 N 0.16632 0.44716 0.05535 0.0
H522 H 0.13962 0.52511 0.11971 0.0
H523 H 0.14083 0.48179 0.11661 0.0
H524 H 0.17113 0.42509 0.03877 0.0
H525 H 0.17212 0.44595 0.08757 0.0
H526 H 0.17252 0.56851 0.94083 0.0
H527 H 0.17121 0.58938 0.98961 0.0
H528 H 0.14142 0.53267 0.91138 0.0
H529 H 0.14026 0.48935 0.90827 0.0
C530 C 0.74345 0.93092 0.27353 0.0
C531 C 0.72863 0.90018 0.28582 0.0
C532 C 0.77321 0.86927 0.25016 0.0
C533 C 0.78991 0.89978 0.2415 0.0
N534 N 0.79341 0.9596 0.24941 0.0
N535 N 0.73365 0.84033 0.29459 0.0
C536 C 0.77569 0.93069 0.25431 0.0
C537 C 0.74471 0.86942 0.2766 0.0
N538 N 0.72629 0.96013 0.27893 0.0
N539 N 0.78369 0.84016 0.23165 0.0
H540 H 0.71334 0.83922 0.31518 0.0
H541 H 0.74672 0.81786 0.29265 0.0
H542 H 0.80395 0.83886 0.21101 0.0
H543 H 0.77018 0.81794 0.2332 0.0
H544 H 0.73416 0.98296 0.26665 0.0
H545 H 0.70273 0.96111 0.29292 0.0
H546 H 0.78597 0.98246 0.26206 0.0
H547 H 0.81699 0.96026 0.23546 0.0
C548 C 0.33483 0.48956 0.52677 0.0
C549 C 0.36579 0.4754 0.53941 0.0
C550 C 0.39582 0.52003 0.5026 0.0
C551 C 0.36507 0.53611 0.49351 0.0
N552 N 0.30533 0.53877 0.50132 0.0
N553 N 0.42542 0.48158 0.54808 0.0
C554 C 0.33449 0.52157 0.5067 0.0
C555 C 0.39619 0.49189 0.5298 0.0
N556 N 0.30599 0.47198 0.53261 0.0
N557 N 0.42466 0.5307 0.48379 0.0
H558 H 0.4269 0.46159 0.56921 0.0
H559 H 0.44761 0.49503 0.5458 0.0
H560 H 0.4256 0.55069 0.4626 0.0
H561 H 0.44706 0.51754 0.48568 0.0
H562 H 0.28305 0.47932 0.52016 0.0
H563 H 0.30543 0.44858 0.54721 0.0
H564 H 0.28265 0.53115 0.51416 0.0
H565 H 0.30427 0.56214 0.4867 0.0
C566 C 0.74071 0.15187 0.75118 0.0
C567 C 0.72428 0.12149 0.74099 0.0
C568 C 0.77064 0.08986 0.77266 0.0
C569 C 0.78519 0.12038 0.78636 0.0
N570 N 0.7796 0.17989 0.79765 0.0
N571 N 0.72096 0.0615 0.74692 0.0
C572 C 0.76893 0.15123 0.7782 0.0
C573 C 0.73853 0.09037 0.75299 0.0
N574 N 0.73032 0.18135 0.73353 0.0
N575 N 0.78794 0.06063 0.7771 0.0
H576 H 0.69743 0.06104 0.73274 0.0
H577 H 0.72843 0.03843 0.75894 0.0
H578 H 0.81141 0.05942 0.79139 0.0
H579 H 0.78028 0.03809 0.76376 0.0
H580 H 0.74368 0.20359 0.73631 0.0
H581 H 0.71038 0.18303 0.71235 0.0
H582 H 0.7664 0.20232 0.79635 0.0
H583 H 0.79963 0.18054 0.81879 0.0
C584 C 0.89817 0.49578 0.99838 0.0
C585 C 0.86783 0.4787 0.99026 0.0
C586 C 0.83674 0.52469 0.02357 0.0
C587 C 0.86744 0.53965 0.03576 0.0
N588 N 0.92727 0.5345 0.04389 0.0
N589 N 0.8083 0.47447 0.99949 0.0
C590 C 0.89813 0.52381 0.02573 0.0
C591 C 0.83703 0.49251 1.00394 0.0
N592 N 0.92697 0.48613 0.97858 0.0
N593 N 0.80752 0.54166 0.02938 0.0
H594 H 0.80769 0.45095 0.98522 0.0
H595 H 0.78562 0.48161 1.0128 0.0
H596 H 0.80649 0.56526 0.04341 0.0
H597 H 0.78471 0.53362 0.01727 0.0
H598 H 0.94898 0.49996 0.98008 0.0
H599 H 0.92806 0.46646 0.9569 0.0
H600 H 0.94971 0.52153 0.04101 0.0
H601 H 0.92845 0.55411 0.06564 0.0
C602 C 0.24182 0.14654 0.77721 0.0
C603 C 0.22511 0.11622 0.78683 0.0
C604 C 0.27115 0.08448 0.75477 0.0
C605 C 0.28591 0.11498 0.74149 0.0
N606 N 0.28085 0.17467 0.73119 0.0
N607 N 0.22133 0.0563 0.78022 0.0
C608 C 0.26999 0.14591 0.7502 0.0
C609 C 0.23911 0.08508 0.77448 0.0
N610 N 0.23167 0.17592 0.79532 0.0
N611 N 0.28818 0.05514 0.74976 0.0
H612 H 0.19787 0.0559 0.79452 0.0
H613 H 0.22858 0.03326 0.76793 0.0
H614 H 0.31155 0.05389 0.73533 0.0
H615 H 0.28038 0.03252 0.76273 0.0
H616 H 0.24521 0.19808 0.79292 0.0
H617 H 0.21175 0.17752 0.81647 0.0
H618 H 0.26788 0.19721 0.73292 0.0
H619 H 0.30077 0.17536 0.70995 0.0
C620 C 0.65587 0.50954 0.46854 0.0
C621 C 0.65704 0.54102 0.48953 0.0
C622 C 0.65678 0.51243 0.55836 0.0
C623 C 0.65729 0.48096 0.53732 0.0
N624 N 0.66909 0.45061 0.47293 0.0
N625 N 0.67019 0.57131 0.55358 0.0
C626 C 0.66084 0.47991 0.49256 0.0
C627 C 0.66143 0.54205 0.5342 0.0
N628 N 0.64749 0.50733 0.42657 0.0
N629 N 0.64936 0.51466 0.60059 0.0
H630 H 0.67493 0.59319 0.53657 0.0
H631 H 0.67646 0.57276 0.58565 0.0
H632 H 0.64389 0.49414 0.61962 0.0
H633 H 0.64526 0.53742 0.61584 0.0
H634 H 0.64294 0.48458 0.4115 0.0
H635 H 0.64161 0.52785 0.40771 0.0
H636 H 0.67474 0.44915 0.4407 0.0
H637 H 0.67407 0.4287 0.48979 0.0
C638 C 0.27524 0.87002 0.2713 0.0
C639 C 0.29128 0.90089 0.28013 0.0
C640 C 0.24458 0.93096 0.24683 0.0
C641 C 0.23042 0.89986 0.23456 0.0
N642 N 0.23683 0.84017 0.22605 0.0
N643 N 0.2937 0.9607 0.27206 0.0
C644 C 0.24709 0.86951 0.24416 0.0
C645 C 0.27662 0.93144 0.26677 0.0
N646 N 0.28588 0.84122 0.29046 0.0
N647 N 0.22695 0.95982 0.24082 0.0
H648 H 0.31702 0.9618 0.28675 0.0
H649 H 0.286 0.9834 0.25915 0.0
H650 H 0.20355 0.9603 0.22629 0.0
H651 H 0.23429 0.98287 0.253 0.0
H652 H 0.27281 0.81875 0.28859 0.0
H653 H 0.30564 0.84042 0.31201 0.0
H654 H 0.25033 0.81797 0.2284 0.0
H655 H 0.21684 0.83865 0.20491 0.0
C656 C 0.68072 0.02744 0.52397 0.0
C657 C 0.64949 0.04076 0.53686 0.0
C658 C 0.62039 0.9956 0.4999 0.0
C659 C 0.65146 0.98028 0.4906 0.0
N660 N 0.71128 0.97905 0.4981 0.0
N661 N 0.59017 0.03281 0.54629 0.0
C662 C 0.68175 0.99551 0.50374 0.0
C663 C 0.61948 0.02347 0.52748 0.0
N664 N 0.70915 0.04572 0.52978 0.0
N665 N 0.59174 0.98451 0.48089 0.0
H666 H 0.58843 0.05243 0.56798 0.0
H667 H 0.56832 0.0188 0.54396 0.0
H668 H 0.59126 0.96497 0.45897 0.0
H669 H 0.56903 0.99707 0.48326 0.0
H670 H 0.73219 0.039 0.51716 0.0
H671 H 0.7092 0.06905 0.5446 0.0
H672 H 0.73384 0.98719 0.51087 0.0
H673 H 0.71282 0.95577 0.48329 0.0
C674 C 0.27231 0.36609 0.75641 0.0
C675 C 0.28832 0.39646 0.74517 0.0
C676 C 0.24177 0.42818 0.77605 0.0
C677 C 0.22757 0.39776 0.79053 0.0
N678 N 0.23374 0.33857 0.80369 0.0
N679 N 0.29106 0.45658 0.74938 0.0
C680 C 0.24414 0.36695 0.78339 0.0
C681 C 0.2738 0.42765 0.75631 0.0
N682 N 0.28299 0.33638 0.73971 0.0
N683 N 0.22422 0.45731 0.77988 0.0
H684 H 0.31455 0.45703 0.73518 0.0
H685 H 0.28337 0.47979 0.7607 0.0
H686 H 0.20089 0.45853 0.79444 0.0
H687 H 0.23158 0.47972 0.76594 0.0
H688 H 0.26989 0.31405 0.74324 0.0
H689 H 0.3029 0.33448 0.7186 0.0
H690 H 0.24713 0.31624 0.8031 0.0
H691 H 0.21373 0.33816 0.82482 0.0
C692 C 0.8527 0.04002 0.03496 0.0
C693 C 0.85575 0.03856 0.99015 0.0
C694 C 0.85172 0.97749 0.99421 0.0
C695 C 0.85653 0.97894 0.03878 0.0
N696 N 0.86651 0.01312 0.10118 0.0
N697 N 0.86306 1.0043 0.92724 0.0
C698 C 0.85785 0.01059 0.05933 0.0
C699 C 0.85607 1.0069 0.96956 0.0
N700 N 0.84472 0.06952 0.05429 0.0
N701 N 0.84281 0.94805 0.9754 0.0
H702 H 0.8683 0.02465 0.90782 0.0
H703 H 0.86703 0.98142 0.91225 0.0
H704 H 0.83829 0.92631 0.99279 0.0
H705 H 0.83622 0.94631 0.94346 0.0
H706 H 0.83941 0.0713 0.08659 0.0
H707 H 0.83964 0.09129 0.03719 0.0
H708 H 0.8712 0.03598 0.11591 0.0
H709 H 0.87241 0.99272 0.12025 0.0
C710 C 0.23725 0.58296 0.253 0.0
C711 C 0.22453 0.61423 0.23904 0.0
C712 C 0.27006 0.64329 0.2752 0.0
C713 C 0.28477 0.61208 0.28565 0.0
N714 N 0.285 0.552 0.27994 0.0
N715 N 0.23355 0.67328 0.22759 0.0
C716 C 0.26907 0.58176 0.27337 0.0
C717 C 0.24231 0.64414 0.24745 0.0
N718 N 0.2185 0.5547 0.2481 0.0
N719 N 0.28158 0.67215 0.29333 0.0
H720 H 0.21406 0.6749 0.20569 0.0
H721 H 0.24789 0.69497 0.22928 0.0
H722 H 0.30101 0.67271 0.31538 0.0
H723 H 0.26947 0.69507 0.2901 0.0
H724 H 0.22479 0.53177 0.26153 0.0
H725 H 0.19524 0.55476 0.23321 0.0
H726 H 0.2765 0.52933 0.26782 0.0
H727 H 0.30821 0.55032 0.29482 0.0
C728 C 0.39409 0.0188 0.52696 0.0
C729 C 0.36371 0.03518 0.53706 0.0
C730 C 0.33234 0.9885 0.50547 0.0
C731 C 0.36286 0.97406 0.49184 0.0
N732 N 0.4222 0.98009 0.48042 0.0
N733 N 0.30379 0.03806 0.53159 0.0
C734 C 0.39356 0.99052 0.49998 0.0
C735 C 0.3327 0.02066 0.52525 0.0
N736 N 0.42348 0.02934 0.54456 0.0
N737 N 0.30326 0.97112 0.5006 0.0
H738 H 0.30326 0.06156 0.54593 0.0
H739 H 0.28073 0.03045 0.51981 0.0
H740 H 0.30226 0.94775 0.48595 0.0
H741 H 0.28065 0.97864 0.51373 0.0
H742 H 0.44572 0.016 0.5419 0.0
H743 H 0.42509 0.04939 0.56561 0.0
H744 H 0.44449 0.99345 0.48176 0.0
H745 H 0.42296 0.96018 0.45907 0.0
C746 C 0.76945 0.58793 0.25181 0.0
C747 C 0.78407 0.61872 0.23931 0.0
C748 C 0.73986 0.64948 0.27585 0.0
C749 C 0.72328 0.61894 0.28472 0.0
N750 N 0.71976 0.55913 0.27662 0.0
N751 N 0.77857 0.67848 0.23026 0.0
C752 C 0.73739 0.58807 0.27154 0.0
C753 C 0.76794 0.64941 0.24869 0.0
N754 N 0.78664 0.55876 0.24619 0.0
N755 N 0.72975 0.6785 0.29491 0.0
H756 H 0.79836 0.67953 0.20884 0.0
H757 H 0.76548 0.70092 0.23261 0.0
H758 H 0.71005 0.67966 0.31644 0.0
H759 H 0.74321 0.70074 0.29295 0.0
H760 H 0.77893 0.53592 0.25861 0.0
H761 H 0.81005 0.55783 0.2318 0.0
H762 H 0.72711 0.53632 0.26375 0.0
H763 H 0.69633 0.55842 0.29098 0.0
C764 C 0.15516 0.00869 0.05563 0.0
C765 C 0.15649 0.97732 0.0344 0.0
C766 C 0.15468 1.00615 0.96579 0.0
C767 C 0.15521 0.03755 0.98702 0.0
N768 N 0.16743 0.06782 0.05139 0.0
N769 N 0.16883 0.94741 0.96984 0.0
C770 C 0.15933 0.03849 0.03172 0.0
C771 C 0.16008 0.97649 0.98963 0.0
N772 N 0.14741 0.01058 0.09779 0.0
N773 N 0.14656 1.00403 0.92373 0.0
H774 H 0.1741 0.9255 0.98657 0.0
H775 H 0.17455 0.94616 0.93762 0.0
H776 H 0.14046 0.02458 0.90503 0.0
H777 H 0.14249 0.9813 0.9084 0.0
H778 H 0.14275 0.03318 0.11315 0.0
H779 H 0.14216 0.98987 0.1166 0.0
H780 H 0.1735 0.06923 0.08353 0.0
H781 H 0.17186 0.08987 0.03461 0.0
C782 C 0.74083 0.43045 0.75515 0.0
C783 C 0.72651 0.39983 0.74145 0.0
C784 C 0.77056 0.36867 0.77787 0.0
C785 C 0.78699 0.39911 0.78766 0.0
N786 N 0.79031 0.45906 0.78108 0.0
N787 N 0.73258 0.34028 0.73061 0.0
C788 C 0.77281 0.43013 0.77517 0.0
C789 C 0.74274 0.36906 0.7502 0.0
N790 N 0.72347 0.45961 0.75033 0.0
N791 N 0.78061 0.3394 0.79639 0.0
H792 H 0.71316 0.3395 0.70856 0.0
H793 H 0.74581 0.31789 0.73263 0.0
H794 H 0.80009 0.33804 0.81832 0.0
H795 H 0.76727 0.31715 0.79361 0.0
H796 H 0.73101 0.48223 0.76358 0.0
H797 H 0.70007 0.46068 0.73586 0.0
H798 H 0.78289 0.48202 0.76869 0.0
H799 H 0.8137 0.45966 0.79562 0.0
loop_
_geom_bond_atom_site_label_1
_geom_bond_atom_site_label_2
_geom_bond_distance
_geom_bond_site_symmetry_2
_ccdc_geom_bond_type
O0 Cd1 2.223 . S
O0 C8 1.315 . S
Cd1 O0 2.223 . S
Cd1 O4 2.297 . S
Cd1 O5 2.439 . S
Cd1 O11 2.240 . S
Cd2 O3 2.240 . S
Cd2 O10 2.223 . S
Cd2 O12 2.297 . S
Cd2 O13 2.439 . S
O3 Cd2 2.240 . S
O3 C8 1.279 . S
O4 Cd1 2.297 . S
O4 C6 1.247 . S
O5 Cd1 2.439 . S
O5 C6 1.208 . S
C6 O4 1.247 . S
C6 O5 1.208 . S
C7 O12 1.247 . S
C7 O13 1.208 . S
C8 O0 1.315 . S
C8 O3 1.279 . S
C9 O10 1.315 . S
C9 O11 1.279 . S
O10 Cd2 2.223 . S
O10 C9 1.315 . S
O11 Cd1 2.240 . S
O11 C9 1.279 . S
O12 Cd2 2.297 . S
O12 C7 1.247 . S
O13 Cd2 2.439 . S
O13 C7 1.208 . S
O14 Cd15 2.223 . S
O14 C22 1.315 . S
Cd15 O14 2.223 . S
Cd15 O18 2.297 . S
Cd15 O19 2.439 . S
Cd15 O25 2.240 . S
Cd16 O17 2.240 . S
Cd16 O24 2.223 . S
Cd16 O26 2.297 . S
Cd16 O27 2.439 . S
O17 Cd16 2.240 . S
O17 C22 1.279 . S
O18 Cd15 2.297 . S
O18 C20 1.247 . S
O19 Cd15 2.439 . S
O19 C20 1.208 . S
C20 O18 1.247 . S
C20 O19 1.208 . S
C21 O26 1.247 . S
C21 O27 1.208 . S
C22 O14 1.315 . S
C22 O17 1.279 . S
C23 O24 1.315 . S
C23 O25 1.279 . S
O24 Cd16 2.223 . S
O24 C23 1.315 . S
O25 Cd15 2.240 . S
O25 C23 1.279 . S
O26 Cd16 2.297 . S
O26 C21 1.247 . S
O27 Cd16 2.439 . S
O27 C21 1.208 . S
O28 Cd29 2.223 . S
O28 C36 1.315 . S
Cd29 O28 2.223 . S
Cd29 O32 2.297 . S
Cd29 O33 2.439 . S
Cd29 O39 2.240 . S
Cd30 O31 2.240 . S
Cd30 O38 2.223 . S
Cd30 O40 2.297 . S
Cd30 O41 2.439 . S
O31 Cd30 2.240 . S
O31 C36 1.279 . S
O32 Cd29 2.297 . S
O32 C34 1.247 . S
O33 Cd29 2.439 . S
O33 C34 1.208 . S
C34 O32 1.247 . S
C34 O33 1.208 . S
C35 O40 1.247 . S
C35 O41 1.208 . S
C36 O28 1.315 . S
C36 O31 1.279 . S
C37 O38 1.315 . S
C37 O39 1.279 . S
O38 Cd30 2.223 . S
O38 C37 1.315 . S
O39 Cd29 2.240 . S
O39 C37 1.279 . S
O40 Cd30 2.297 . S
O40 C35 1.247 . S
O41 Cd30 2.439 . S
O41 C35 1.208 . S
O42 Cd43 2.223 . S
O42 C50 1.315 . S
Cd43 O42 2.223 . S
Cd43 O46 2.297 . S
Cd43 O47 2.439 . S
Cd43 O53 2.240 . S
Cd44 O45 2.240 . S
Cd44 O52 2.223 . S
Cd44 O54 2.297 . S
Cd44 O55 2.439 . S
O45 Cd44 2.240 . S
O45 C50 1.279 . S
O46 Cd43 2.297 . S
O46 C48 1.247 . S
O47 Cd43 2.439 . S
O47 C48 1.208 . S
C48 O46 1.247 . S
C48 O47 1.208 . S
C49 O54 1.247 . S
C49 O55 1.208 . S
C50 O42 1.315 . S
C50 O45 1.279 . S
C51 O52 1.315 . S
C51 O53 1.279 . S
O52 Cd44 2.223 . S
O52 C51 1.315 . S
O53 Cd43 2.240 . S
O53 C51 1.279 . S
O54 Cd44 2.297 . S
O54 C49 1.247 . S
O55 Cd44 2.439 . S
O55 C49 1.208 . S
O56 Cd57 2.223 . S
O56 C64 1.315 . S
Cd57 O56 2.223 . S
Cd57 O60 2.297 . S
Cd57 O61 2.439 . S
Cd57 O67 2.240 . S
Cd58 O59 2.240 . S
Cd58 O66 2.223 . S
Cd58 O68 2.297 . S
Cd58 O69 2.439 . S
O59 Cd58 2.240 . S
O59 C64 1.279 . S
O60 Cd57 2.297 . S
O60 C62 1.247 . S
O61 Cd57 2.439 . S
O61 C62 1.208 . S
C62 O60 1.247 . S
C62 O61 1.208 . S
C63 O68 1.247 . S
C63 O69 1.208 . S
C64 O56 1.315 . S
C64 O59 1.279 . S
C65 O66 1.315 . S
C65 O67 1.279 . S
O66 Cd58 2.223 . S
O66 C65 1.315 . S
O67 Cd57 2.240 . S
O67 C65 1.279 . S
O68 Cd58 2.297 . S
O68 C63 1.247 . S
O69 Cd58 2.439 . S
O69 C63 1.208 . S
O70 Cd71 2.223 . S
O70 C78 1.315 . S
Cd71 O70 2.223 . S
Cd71 O74 2.297 . S
Cd71 O75 2.439 . S
Cd71 O81 2.240 . S
Cd72 O73 2.240 . S
Cd72 O80 2.223 . S
Cd72 O82 2.297 . S
Cd72 O83 2.439 . S
O73 Cd72 2.240 . S
O73 C78 1.279 . S
O74 Cd71 2.297 . S
O74 C76 1.247 . S
O75 Cd71 2.439 . S
O75 C76 1.208 . S
C76 O74 1.247 . S
C76 O75 1.208 . S
C77 O82 1.247 . S
C77 O83 1.208 . S
C78 O70 1.315 . S
C78 O73 1.279 . S
C79 O80 1.315 . S
C79 O81 1.279 . S
O80 Cd72 2.223 . S
O80 C79 1.315 . S
O81 Cd71 2.240 . S
O81 C79 1.279 . S
O82 Cd72 2.297 . S
O82 C77 1.247 . S
O83 Cd72 2.439 . S
O83 C77 1.208 . S
O84 Cd85 2.223 . S
O84 C92 1.315 . S
Cd85 O84 2.223 . S
Cd85 O88 2.297 . S
Cd85 O89 2.439 . S
Cd85 O95 2.240 . S
Cd86 O87 2.240 . S
Cd86 O94 2.223 . S
Cd86 O96 2.297 . S
Cd86 O97 2.439 . S
O87 Cd86 2.240 . S
O87 C92 1.279 . S
O88 Cd85 2.297 . S
O88 C90 1.247 . S
O89 Cd85 2.439 . S
O89 C90 1.208 . S
C90 O88 1.247 . S
C90 O89 1.208 . S
C91 O96 1.247 . S
C91 O97 1.208 . S
C92 O84 1.315 . S
C92 O87 1.279 . S
C93 O94 1.315 . S
C93 O95 1.279 . S
O94 Cd86 2.223 . S
O94 C93 1.315 . S
O95 Cd85 2.240 . S
O95 C93 1.279 . S
O96 Cd86 2.297 . S
O96 C91 1.247 . S
O97 Cd86 2.439 . S
O97 C91 1.208 . S
O98 Cd99 2.223 . S
O98 C106 1.315 . S
Cd99 O98 2.223 . S
Cd99 O102 2.297 . S
Cd99 O103 2.439 . S
Cd99 O109 2.240 . S
Cd100 O101 2.240 . S
Cd100 O108 2.223 . S
Cd100 O110 2.297 . S
Cd100 O111 2.439 . S
O101 Cd100 2.240 . S
O101 C106 1.279 . S
O102 Cd99 2.297 . S
O102 C104 1.247 . S
O103 Cd99 2.439 . S
O103 C104 1.208 . S
C104 O102 1.247 . S
C104 O103 1.208 . S
C105 O110 1.247 . S
C105 O111 1.208 . S
C106 O98 1.315 . S
C106 O101 1.279 . S
C107 O108 1.315 . S
C107 O109 1.279 . S
O108 Cd100 2.223 . S
O108 C107 1.315 . S
O109 Cd99 2.240 . S
O109 C107 1.279 . S
O110 Cd100 2.297 . S
O110 C105 1.247 . S
O111 Cd100 2.439 . S
O111 C105 1.208 . S
O112 Cd113 2.223 . S
O112 C120 1.315 . S
Cd113 O112 2.223 . S
Cd113 O116 2.297 . S
Cd113 O117 2.439 . S
Cd113 O123 2.240 . S
Cd114 O115 2.240 . S
Cd114 O122 2.223 . S
Cd114 O124 2.297 . S
Cd114 O125 2.439 . S
O115 Cd114 2.240 . S
O115 C120 1.279 . S
O116 Cd113 2.297 . S
O116 C118 1.247 . S
O117 Cd113 2.439 . S
O117 C118 1.208 . S
C118 O116 1.247 . S
C118 O117 1.208 . S
C119 O124 1.247 . S
C119 O125 1.208 . S
C120 O112 1.315 . S
C120 O115 1.279 . S
C121 O122 1.315 . S
C121 O123 1.279 . S
O122 Cd114 2.223 . S
O122 C121 1.315 . S
O123 Cd113 2.240 . S
O123 C121 1.279 . S
O124 Cd114 2.297 . S
O124 C119 1.247 . S
O125 Cd114 2.439 . S
O125 C119 1.208 . S
O126 Cd127 2.223 . S
O126 C134 1.315 . S
Cd127 O126 2.223 . S
Cd127 O130 2.297 . S
Cd127 O131 2.439 . S
Cd127 O137 2.240 . S
Cd128 O129 2.240 . S
Cd128 O136 2.223 . S
Cd128 O138 2.297 . S
Cd128 O139 2.439 . S
O129 Cd128 2.240 . S
O129 C134 1.279 . S
O130 Cd127 2.297 . S
O130 C132 1.247 . S
O131 Cd127 2.439 . S
O131 C132 1.208 . S
C132 O130 1.247 . S
C132 O131 1.208 . S
C133 O138 1.247 . S
C133 O139 1.208 . S
C134 O126 1.315 . S
C134 O129 1.279 . S
C135 O136 1.315 . S
C135 O137 1.279 . S
O136 Cd128 2.223 . S
O136 C135 1.315 . S
O137 Cd127 2.240 . S
O137 C135 1.279 . S
O138 Cd128 2.297 . S
O138 C133 1.247 . S
O139 Cd128 2.439 . S
O139 C133 1.208 . S
O140 Cd141 2.223 . S
O140 C148 1.315 . S
Cd141 O140 2.223 . S
Cd141 O144 2.297 . S
Cd141 O145 2.439 . S
Cd141 O151 2.240 . S
Cd142 O143 2.240 . S
Cd142 O150 2.223 . S
Cd142 O152 2.297 . S
Cd142 O153 2.439 . S
O143 Cd142 2.240 . S
O143 C148 1.279 . S
O144 Cd141 2.297 . S
O144 C146 1.247 . S
O145 Cd141 2.439 . S
O145 C146 1.208 . S
C146 O144 1.247 . S
C146 O145 1.208 . S
C147 O152 1.247 . S
C147 O153 1.208 . S
C148 O140 1.315 . S
C148 O143 1.279 . S
C149 O150 1.315 . S
C149 O151 1.279 . S
O150 Cd142 2.223 . S
O150 C149 1.315 . S
O151 Cd141 2.240 . S
O151 C149 1.279 . S
O152 Cd142 2.297 . S
O152 C147 1.247 . S
O153 Cd142 2.439 . S
O153 C147 1.208 . S
O154 Cd155 2.223 . S
O154 C162 1.315 . S
Cd155 O154 2.223 . S
Cd155 O158 2.297 . S
Cd155 O159 2.439 . S
Cd155 O165 2.240 . S
Cd156 O157 2.240 . S
Cd156 O164 2.223 . S
Cd156 O166 2.297 . S
Cd156 O167 2.439 . S
O157 Cd156 2.240 . S
O157 C162 1.279 . S
O158 Cd155 2.297 . S
O158 C160 1.247 . S
O159 Cd155 2.439 . S
O159 C160 1.208 . S
C160 O158 1.247 . S
C160 O159 1.208 . S
C161 O166 1.247 . S
C161 O167 1.208 . S
C162 O154 1.315 . S
C162 O157 1.279 . S
C163 O164 1.315 . S
C163 O165 1.279 . S
O164 Cd156 2.223 . S
O164 C163 1.315 . S
O165 Cd155 2.240 . S
O165 C163 1.279 . S
O166 Cd156 2.297 . S
O166 C161 1.247 . S
O167 Cd156 2.439 . S
O167 C161 1.208 . S
O168 Cd169 2.223 . S
O168 C176 1.315 . S
Cd169 O168 2.223 . S
Cd169 O172 2.297 . S
Cd169 O173 2.439 . S
Cd169 O179 2.240 . S
Cd170 O171 2.240 . S
Cd170 O178 2.223 . S
Cd170 O180 2.297 . S
Cd170 O181 2.439 . S
O171 Cd170 2.240 . S
O171 C176 1.279 . S
O172 Cd169 2.297 . S
O172 C174 1.247 . S
O173 Cd169 2.439 . S
O173 C174 1.208 . S
C174 O172 1.247 . S
C174 O173 1.208 . S
C175 O180 1.247 . S
C175 O181 1.208 . S
C176 O168 1.315 . S
C176 O171 1.279 . S
C177 O178 1.315 . S
C177 O179 1.279 . S
O178 Cd170 2.223 . S
O178 C177 1.315 . S
O179 Cd169 2.240 . S
O179 C177 1.279 . S
O180 Cd170 2.297 . S
O180 C175 1.247 . S
O181 Cd170 2.439 . S
O181 C175 1.208 . S
O182 Cd183 2.223 . S
O182 C190 1.315 . S
Cd183 O182 2.223 . S
Cd183 O186 2.297 . S
Cd183 O187 2.439 . S
Cd183 O193 2.240 . S
Cd184 O185 2.240 . S
Cd184 O192 2.223 . S
Cd184 O194 2.297 . S
Cd184 O195 2.439 . S
O185 Cd184 2.240 . S
O185 C190 1.279 . S
O186 Cd183 2.297 . S
O186 C188 1.247 . S
O187 Cd183 2.439 . S
O187 C188 1.208 . S
C188 O186 1.247 . S
C188 O187 1.208 . S
C189 O194 1.247 . S
C189 O195 1.208 . S
C190 O182 1.315 . S
C190 O185 1.279 . S
C191 O192 1.315 . S
C191 O193 1.279 . S
O192 Cd184 2.223 . S
O192 C191 1.315 . S
O193 Cd183 2.240 . S
O193 C191 1.279 . S
O194 Cd184 2.297 . S
O194 C189 1.247 . S
O195 Cd184 2.439 . S
O195 C189 1.208 . S
O196 Cd197 2.223 . S
O196 C204 1.315 . S
Cd197 O196 2.223 . S
Cd197 O200 2.297 . S
Cd197 O201 2.439 . S
Cd197 O207 2.240 . S
Cd198 O199 2.240 . S
Cd198 O206 2.223 . S
Cd198 O208 2.297 . S
Cd198 O209 2.439 . S
O199 Cd198 2.240 . S
O199 C204 1.279 . S
O200 Cd197 2.297 . S
O200 C202 1.247 . S
O201 Cd197 2.439 . S
O201 C202 1.208 . S
C202 O200 1.247 . S
C202 O201 1.208 . S
C203 O208 1.247 . S
C203 O209 1.208 . S
C204 O196 1.315 . S
C204 O199 1.279 . S
C205 O206 1.315 . S
C205 O207 1.279 . S
O206 Cd198 2.223 . S
O206 C205 1.315 . S
O207 Cd197 2.240 . S
O207 C205 1.279 . S
O208 Cd198 2.297 . S
O208 C203 1.247 . S
O209 Cd198 2.439 . S
O209 C203 1.208 . S
O210 Cd211 2.223 . S
O210 C218 1.315 . S
Cd211 O210 2.223 . S
Cd211 O214 2.297 . S
Cd211 O215 2.439 . S
Cd211 O221 2.240 . S
Cd212 O213 2.240 . S
Cd212 O220 2.223 . S
Cd212 O222 2.297 . S
Cd212 O223 2.439 . S
O213 Cd212 2.240 . S
O213 C218 1.279 . S
O214 Cd211 2.297 . S
O214 C216 1.247 . S
O215 Cd211 2.439 . S
O215 C216 1.208 . S
C216 O214 1.247 . S
C216 O215 1.208 . S
C217 O222 1.247 . S
C217 O223 1.208 . S
C218 O210 1.315 . S
C218 O213 1.279 . S
C219 O220 1.315 . S
C219 O221 1.279 . S
O220 Cd212 2.223 . S
O220 C219 1.315 . S
O221 Cd211 2.240 . S
O221 C219 1.279 . S
O222 Cd212 2.297 . S
O222 C217 1.247 . S
O223 Cd212 2.439 . S
O223 C217 1.208 . S
C224 C225 1.363 . S
C224 C230 1.379 . S
C224 N232 1.356 . S
C225 C224 1.363 . S
C225 C231 1.363 . S
C226 C227 1.363 . S
C226 C231 1.379 . S
C226 N233 1.356 . S
C227 C226 1.363 . S
C227 C230 1.363 . S
N228 C230 1.356 . S
N228 H240 0.984 . S
N228 H241 0.985 . S
N229 C231 1.356 . S
N229 H234 0.984 . S
N229 H235 0.985 . S
C230 C224 1.379 . S
C230 C227 1.363 . S
C230 N228 1.356 . S
C231 C225 1.363 . S
C231 C226 1.379 . S
C231 N229 1.356 . S
N232 C224 1.356 . S
N232 H238 0.984 . S
N232 H239 0.984 . S
N233 C226 1.356 . S
N233 H236 0.984 . S
N233 H237 0.985 . S
H234 N229 0.984 . S
H235 N229 0.985 . S
H236 N233 0.984 . S
H237 N233 0.985 . S
H238 N232 0.984 . S
H239 N232 0.984 . S
H240 N228 0.984 . S
H241 N228 0.985 . S
C242 C243 1.363 . S
C242 C248 1.379 . S
C242 N250 1.356 . S
C243 C242 1.363 . S
C243 C249 1.363 . S
C244 C245 1.363 . S
C244 C249 1.379 . S
C244 N251 1.356 . S
C245 C244 1.363 . S
C245 C248 1.363 . S
N246 C248 1.356 . S
N246 H258 0.984 . S
N246 H259 0.985 . S
N247 C249 1.356 . S
N247 H252 0.984 . S
N247 H253 0.985 . S
C248 C242 1.379 . S
C248 C245 1.363 . S
C248 N246 1.356 . S
C249 C243 1.363 . S
C249 C244 1.379 . S
C249 N247 1.356 . S
N250 C242 1.356 . S
N250 H256 0.984 . S
N250 H257 0.984 . S
N251 C244 1.356 . S
N251 H254 0.984 . S
N251 H255 0.985 . S
H252 N247 0.984 . S
H253 N247 0.985 . S
H254 N251 0.984 . S
H255 N251 0.985 . S
H256 N250 0.984 . S
H257 N250 0.984 . S
H258 N246 0.984 . S
H259 N246 0.985 . S
C260 C261 1.363 . S
C260 C266 1.379 . S
C260 N268 1.356 . S
C261 C260 1.363 . S
C261 C267 1.363 . S
C262 C263 1.363 . S
C262 C267 1.379 . S
C262 N269 1.356 . S
C263 C262 1.363 . S
C263 C266 1.363 . S
N264 C266 1.356 . S
N264 H276 0.984 . S
N264 H277 0.985 . S
N265 C267 1.356 . S
N265 H270 0.984 . S
N265 H271 0.985 . S
C266 C260 1.379 . S
C266 C263 1.363 . S
C266 N264 1.356 . S
C267 C261 1.363 . S
C267 C262 1.379 . S
C267 N265 1.356 . S
N268 C260 1.356 . S
N268 H274 0.984 . S
N268 H275 0.984 . S
N269 C262 1.356 . S
N269 H272 0.984 . S
N269 H273 0.985 . S
H270 N265 0.984 . S
H271 N265 0.985 . S
H272 N269 0.984 . S
H273 N269 0.985 . S
H274 N268 0.984 . S
H275 N268 0.984 . S
H276 N264 0.984 . S
H277 N264 0.985 . S
C278 C279 1.363 . S
C278 C284 1.379 1_455 S
C278 N286 1.356 . S
C279 C278 1.363 . S
C279 C285 1.363 . S
C280 C281 1.363 . S
C280 C285 1.379 1_655 S
C280 N287 1.356 . S
C281 C280 1.363 . S
C281 C284 1.363 . S
N282 C284 1.356 . S
N282 H294 0.984 . S
N282 H295 0.985 . S
N283 C285 1.356 . S
N283 H288 0.984 . S
N283 H289 0.985 . S
C284 C278 1.379 1_655 S
C284 C281 1.363 . S
C284 N282 1.356 . S
C285 C279 1.363 . S
C285 C280 1.379 1_455 S
C285 N283 1.356 . S
N286 C278 1.356 . S
N286 H292 0.984 . S
N286 H293 0.984 . S
N287 C280 1.356 . S
N287 H290 0.984 . S
N287 H291 0.985 . S
H288 N283 0.984 . S
H289 N283 0.985 . S
H290 N287 0.984 . S
H291 N287 0.985 . S
H292 N286 0.984 . S
H293 N286 0.984 . S
H294 N282 0.984 . S
H295 N282 0.985 . S
C296 C297 1.363 . S
C296 C302 1.379 . S
C296 N304 1.356 . S
C297 C296 1.363 . S
C297 C303 1.363 . S
C298 C299 1.363 . S
C298 C303 1.379 . S
C298 N305 1.356 . S
C299 C298 1.363 . S
C299 C302 1.363 . S
N300 C302 1.356 . S
N300 H312 0.984 . S
N300 H313 0.985 . S
N301 C303 1.356 . S
N301 H306 0.984 . S
N301 H307 0.985 . S
C302 C296 1.379 . S
C302 C299 1.363 . S
C302 N300 1.356 . S
C303 C297 1.363 . S
C303 C298 1.379 . S
C303 N301 1.356 . S
N304 C296 1.356 . S
N304 H310 0.984 . S
N304 H311 0.984 . S
N305 C298 1.356 . S
N305 H308 0.984 . S
N305 H309 0.985 . S
H306 N301 0.984 . S
H307 N301 0.985 . S
H308 N305 0.984 . S
H309 N305 0.985 . S
H310 N304 0.984 . S
H311 N304 0.984 . S
H312 N300 0.984 . S
H313 N300 0.985 . S
C314 C315 1.363 . S
C314 C320 1.379 1_655 S
C314 N322 1.356 . S
C315 C314 1.363 . S
C315 C321 1.363 . S
C316 C317 1.363 . S
C316 C321 1.379 1_455 S
C316 N323 1.356 . S
C317 C316 1.363 . S
C317 C320 1.363 . S
N318 C320 1.356 . S
N318 H330 0.984 . S
N318 H331 0.985 . S
N319 C321 1.356 . S
N319 H324 0.984 . S
N319 H325 0.985 . S
C320 C314 1.379 1_455 S
C320 C317 1.363 . S
C320 N318 1.356 . S
C321 C315 1.363 . S
C321 C316 1.379 1_655 S
C321 N319 1.356 . S
N322 C314 1.356 . S
N322 H328 0.984 . S
N322 H329 0.984 . S
N323 C316 1.356 . S
N323 H326 0.984 . S
N323 H327 0.985 . S
H324 N319 0.984 . S
H325 N319 0.985 . S
H326 N323 0.984 . S
H327 N323 0.985 . S
H328 N322 0.984 . S
H329 N322 0.984 . S
H330 N318 0.984 . S
H331 N318 0.985 . S
C332 C333 1.363 . S
C332 C338 1.379 . S
C332 N340 1.356 . S
C333 C332 1.363 . S
C333 C339 1.363 . S
C334 C335 1.363 . S
C334 C339 1.379 . S
C334 N341 1.356 . S
C335 C334 1.363 . S
C335 C338 1.363 . S
N336 C338 1.356 . S
N336 H348 0.984 . S
N336 H349 0.985 . S
N337 C339 1.356 . S
N337 H342 0.984 . S
N337 H343 0.985 . S
C338 C332 1.379 . S
C338 C335 1.363 . S
C338 N336 1.356 . S
C339 C333 1.363 . S
C339 C334 1.379 . S
C339 N337 1.356 . S
N340 C332 1.356 . S
N340 H346 0.984 . S
N340 H347 0.984 . S
N341 C334 1.356 . S
N341 H344 0.984 . S
N341 H345 0.985 . S
H342 N337 0.984 . S
H343 N337 0.985 . S
H344 N341 0.984 . S
H345 N341 0.985 . S
H346 N340 0.984 . S
H347 N340 0.984 . S
H348 N336 0.984 . S
H349 N336 0.985 . S
C350 C351 1.363 . S
C350 C356 1.379 . S
C350 N358 1.356 . S
C351 C350 1.363 . S
C351 C357 1.363 . S
C352 C353 1.363 . S
C352 C357 1.379 . S
C352 N359 1.356 . S
C353 C352 1.363 . S
C353 C356 1.363 . S
N354 C356 1.356 . S
N354 H366 0.984 . S
N354 H367 0.985 . S
N355 C357 1.356 . S
N355 H360 0.984 . S
N355 H361 0.985 . S
C356 C350 1.379 . S
C356 C353 1.363 . S
C356 N354 1.356 . S
C357 C351 1.363 . S
C357 C352 1.379 . S
C357 N355 1.356 . S
N358 C350 1.356 . S
N358 H364 0.984 . S
N358 H365 0.984 . S
N359 C352 1.356 . S
N359 H362 0.984 . S
N359 H363 0.985 . S
H360 N355 0.984 . S
H361 N355 0.985 . S
H362 N359 0.984 . S
H363 N359 0.985 . S
H364 N358 0.984 . S
H365 N358 0.984 . S
H366 N354 0.984 . S
H367 N354 0.985 . S
C368 C369 1.363 . S
C368 C374 1.379 . S
C368 N376 1.356 . S
C369 C368 1.363 . S
C369 C375 1.363 . S
C370 C371 1.363 . S
C370 C375 1.379 . S
C370 N377 1.356 . S
C371 C370 1.363 . S
C371 C374 1.363 . S
N372 C374 1.356 . S
N372 H384 0.984 . S
N372 H385 0.985 . S
N373 C375 1.356 . S
N373 H378 0.984 . S
N373 H379 0.985 . S
C374 C368 1.379 . S
C374 C371 1.363 . S
C374 N372 1.356 . S
C375 C369 1.363 . S
C375 C370 1.379 . S
C375 N373 1.356 . S
N376 C368 1.356 . S
N376 H382 0.984 . S
N376 H383 0.984 . S
N377 C370 1.356 . S
N377 H380 0.984 . S
N377 H381 0.985 . S
H378 N373 0.984 . S
H379 N373 0.985 . S
H380 N377 0.984 . S
H381 N377 0.985 . S
H382 N376 0.984 . S
H383 N376 0.984 . S
H384 N372 0.984 . S
H385 N372 0.985 . S
C386 C387 1.363 . S
C386 C392 1.379 . S
C386 N394 1.356 . S
C387 C386 1.363 . S
C387 C393 1.363 . S
C388 C389 1.363 . S
C388 C393 1.379 . S
C388 N395 1.356 . S
C389 C388 1.363 . S
C389 C392 1.363 . S
N390 C392 1.356 . S
N390 H402 0.984 . S
N390 H403 0.985 . S
N391 C393 1.356 . S
N391 H396 0.984 . S
N391 H397 0.985 . S
C392 C386 1.379 . S
C392 C389 1.363 . S
C392 N390 1.356 . S
C393 C387 1.363 . S
C393 C388 1.379 . S
C393 N391 1.356 . S
N394 C386 1.356 . S
N394 H400 0.984 . S
N394 H401 0.984 . S
N395 C388 1.356 . S
N395 H398 0.984 . S
N395 H399 0.985 . S
H396 N391 0.984 . S
H397 N391 0.985 . S
H398 N395 0.984 . S
H399 N395 0.985 . S
H400 N394 0.984 . S
H401 N394 0.984 . S
H402 N390 0.984 . S
H403 N390 0.985 . S
C404 C405 1.363 . S
C404 C410 1.379 . S
C404 N412 1.356 . S
C405 C404 1.363 . S
C405 C411 1.363 . S
C406 C407 1.363 . S
C406 C411 1.379 . S
C406 N413 1.356 . S
C407 C406 1.363 . S
C407 C410 1.363 . S
N408 C410 1.356 . S
N408 H420 0.984 . S
N408 H421 0.985 . S
N409 C411 1.356 . S
N409 H414 0.984 . S
N409 H415 0.985 . S
C410 C404 1.379 . S
C410 C407 1.363 . S
C410 N408 1.356 . S
C411 C405 1.363 . S
C411 C406 1.379 . S
C411 N409 1.356 . S
N412 C404 1.356 . S
N412 H418 0.984 . S
N412 H419 0.984 . S
N413 C406 1.356 . S
N413 H416 0.984 . S
N413 H417 0.985 . S
H414 N409 0.984 . S
H415 N409 0.985 . S
H416 N413 0.984 . S
H417 N413 0.985 . S
H418 N412 0.984 . S
H419 N412 0.984 . S
H420 N408 0.984 . S
H421 N408 0.985 . S
C422 C423 1.363 . S
C422 C428 1.379 . S
C422 N430 1.356 . S
C423 C422 1.363 . S
C423 C429 1.363 . S
C424 C425 1.363 . S
C424 C429 1.379 . S
C424 N431 1.356 . S
C425 C424 1.363 . S
C425 C428 1.363 . S
N426 C428 1.356 . S
N426 H438 0.984 . S
N426 H439 0.985 . S
N427 C429 1.356 . S
N427 H432 0.984 . S
N427 H433 0.985 . S
C428 C422 1.379 . S
C428 C425 1.363 . S
C428 N426 1.356 . S
C429 C423 1.363 . S
C429 C424 1.379 . S
C429 N427 1.356 . S
N430 C422 1.356 . S
N430 H436 0.984 . S
N430 H437 0.984 . S
N431 C424 1.356 . S
N431 H434 0.984 . S
N431 H435 0.985 . S
H432 N427 0.984 . S
H433 N427 0.985 . S
H434 N431 0.984 . S
H435 N431 0.985 . S
H436 N430 0.984 . S
H437 N430 0.984 . S
H438 N426 0.984 . S
H439 N426 0.985 . S
C440 C441 1.363 . S
C440 C446 1.379 1_455 S
C440 N448 1.356 . S
C441 C440 1.363 . S
C441 C447 1.363 . S
C442 C443 1.363 . S
C442 C447 1.379 1_655 S
C442 N449 1.356 . S
C443 C442 1.363 . S
C443 C446 1.363 . S
N444 C446 1.356 . S
N444 H456 0.984 . S
N444 H457 0.985 . S
N445 C447 1.356 . S
N445 H450 0.984 . S
N445 H451 0.985 . S
C446 C440 1.379 1_655 S
C446 C443 1.363 . S
C446 N444 1.356 . S
C447 C441 1.363 . S
C447 C442 1.379 1_455 S
C447 N445 1.356 . S
N448 C440 1.356 . S
N448 H454 0.984 . S
N448 H455 0.984 . S
N449 C442 1.356 . S
N449 H452 0.984 . S
N449 H453 0.985 . S
H450 N445 0.984 . S
H451 N445 0.985 . S
H452 N449 0.984 . S
H453 N449 0.985 . S
H454 N448 0.984 . S
H455 N448 0.984 . S
H456 N444 0.984 . S
H457 N444 0.985 . S
C458 C459 1.363 . S
C458 C464 1.379 . S
C458 N466 1.356 . S
C459 C458 1.363 . S
C459 C465 1.363 . S
C460 C461 1.363 . S
C460 C465 1.379 . S
C460 N467 1.356 . S
C461 C460 1.363 . S
C461 C464 1.363 . S
N462 C464 1.356 . S
N462 H474 0.984 . S
N462 H475 0.985 . S
N463 C465 1.356 . S
N463 H468 0.984 . S
N463 H469 0.985 . S
C464 C458 1.379 . S
C464 C461 1.363 . S
C464 N462 1.356 . S
C465 C459 1.363 . S
C465 C460 1.379 . S
C465 N463 1.356 . S
N466 C458 1.356 . S
N466 H472 0.984 . S
N466 H473 0.984 . S
N467 C460 1.356 . S
N467 H470 0.984 . S
N467 H471 0.985 . S
H468 N463 0.984 . S
H469 N463 0.985 . S
H470 N467 0.984 . S
H471 N467 0.985 . S
H472 N466 0.984 . S
H473 N466 0.984 . S
H474 N462 0.984 . S
H475 N462 0.985 . S
C476 C477 1.363 . S
C476 C482 1.379 . S
C476 N484 1.356 . S
C477 C476 1.363 . S
C477 C483 1.363 . S
C478 C479 1.363 . S
C478 C483 1.379 . S
C478 N485 1.356 . S
C479 C478 1.363 . S
C479 C482 1.363 . S
N480 C482 1.356 . S
N480 H492 0.984 . S
N480 H493 0.985 . S
N481 C483 1.356 . S
N481 H486 0.984 . S
N481 H487 0.985 . S
C482 C476 1.379 . S
C482 C479 1.363 . S
C482 N480 1.356 . S
C483 C477 1.363 . S
C483 C478 1.379 . S
C483 N481 1.356 . S
N484 C476 1.356 . S
N484 H490 0.984 . S
N484 H491 0.984 . S
N485 C478 1.356 . S
N485 H488 0.984 . S
N485 H489 0.985 . S
H486 N481 0.984 . S
H487 N481 0.985 . S
H488 N485 0.984 . S
H489 N485 0.985 . S
H490 N484 0.984 . S
H491 N484 0.984 . S
H492 N480 0.984 . S
H493 N480 0.985 . S
C494 C495 1.363 . S
C494 C500 1.379 1_455 S
C494 N502 1.356 . S
C495 C494 1.363 . S
C495 C501 1.363 . S
C496 C497 1.363 . S
C496 C501 1.379 1_655 S
C496 N503 1.356 . S
C497 C496 1.363 . S
C497 C500 1.363 . S
N498 C500 1.356 . S
N498 H510 0.984 . S
N498 H511 0.985 . S
N499 C501 1.356 . S
N499 H504 0.984 . S
N499 H505 0.985 . S
C500 C494 1.379 1_655 S
C500 C497 1.363 . S
C500 N498 1.356 . S
C501 C495 1.363 . S
C501 C496 1.379 1_455 S
C501 N499 1.356 . S
N502 C494 1.356 . S
N502 H508 0.984 . S
N502 H509 0.984 . S
N503 C496 1.356 . S
N503 H506 0.984 . S
N503 H507 0.985 . S
H504 N499 0.984 . S
H505 N499 0.985 . S
H506 N503 0.984 . S
H507 N503 0.985 . S
H508 N502 0.984 . S
H509 N502 0.984 . S
H510 N498 0.984 . S
H511 N498 0.985 . S
C512 C513 1.363 1_556 S
C512 C518 1.379 . S
C512 N520 1.356 . S
C513 C512 1.363 1_554 S
C513 C519 1.363 . S
C514 C515 1.363 1_554 S
C514 C519 1.379 . S
C514 N521 1.356 . S
C515 C514 1.363 1_556 S
C515 C518 1.363 . S
N516 C518 1.356 . S
N516 H528 0.984 . S
N516 H529 0.985 . S
N517 C519 1.356 . S
N517 H522 0.984 . S
N517 H523 0.985 . S
C518 C512 1.379 . S
C518 C515 1.363 . S
C518 N516 1.356 . S
C519 C513 1.363 . S
C519 C514 1.379 . S
C519 N517 1.356 . S
N520 C512 1.356 . S
N520 H526 0.984 . S
N520 H527 0.984 1_556 S
N521 C514 1.356 . S
N521 H524 0.984 1_554 S
N521 H525 0.985 . S
H522 N517 0.984 . S
H523 N517 0.985 . S
H524 N521 0.984 1_556 S
H525 N521 0.985 . S
H526 N520 0.984 . S
H527 N520 0.984 1_554 S
H528 N516 0.984 . S
H529 N516 0.985 . S
C530 C531 1.363 . S
C530 C536 1.379 . S
C530 N538 1.356 . S
C531 C530 1.363 . S
C531 C537 1.363 . S
C532 C533 1.363 . S
C532 C537 1.379 . S
C532 N539 1.356 . S
C533 C532 1.363 . S
C533 C536 1.363 . S
N534 C536 1.356 . S
N534 H546 0.984 . S
N534 H547 0.985 . S
N535 C537 1.356 . S
N535 H540 0.984 . S
N535 H541 0.985 . S
C536 C530 1.379 . S
C536 C533 1.363 . S
C536 N534 1.356 . S
C537 C531 1.363 . S
C537 C532 1.379 . S
C537 N535 1.356 . S
N538 C530 1.356 . S
N538 H544 0.984 . S
N538 H545 0.984 . S
N539 C532 1.356 . S
N539 H542 0.984 . S
N539 H543 0.985 . S
H540 N535 0.984 . S
H541 N535 0.985 . S
H542 N539 0.984 . S
H543 N539 0.985 . S
H544 N538 0.984 . S
H545 N538 0.984 . S
H546 N534 0.984 . S
H547 N534 0.985 . S
C548 C549 1.363 . S
C548 C554 1.379 . S
C548 N556 1.356 . S
C549 C548 1.363 . S
C549 C555 1.363 . S
C550 C551 1.363 . S
C550 C555 1.379 . S
C550 N557 1.356 . S
C551 C550 1.363 . S
C551 C554 1.363 . S
N552 C554 1.356 . S
N552 H564 0.984 . S
N552 H565 0.985 . S
N553 C555 1.356 . S
N553 H558 0.984 . S
N553 H559 0.985 . S
C554 C548 1.379 . S
C554 C551 1.363 . S
C554 N552 1.356 . S
C555 C549 1.363 . S
C555 C550 1.379 . S
C555 N553 1.356 . S
N556 C548 1.356 . S
N556 H562 0.984 . S
N556 H563 0.984 . S
N557 C550 1.356 . S
N557 H560 0.984 . S
N557 H561 0.985 . S
H558 N553 0.984 . S
H559 N553 0.985 . S
H560 N557 0.984 . S
H561 N557 0.985 . S
H562 N556 0.984 . S
H563 N556 0.984 . S
H564 N552 0.984 . S
H565 N552 0.985 . S
C566 C567 1.363 . S
C566 C572 1.379 . S
C566 N574 1.356 . S
C567 C566 1.363 . S
C567 C573 1.363 . S
C568 C569 1.363 . S
C568 C573 1.379 . S
C568 N575 1.356 . S
C569 C568 1.363 . S
C569 C572 1.363 . S
N570 C572 1.356 . S
N570 H582 0.984 . S
N570 H583 0.985 . S
N571 C573 1.356 . S
N571 H576 0.984 . S
N571 H577 0.985 . S
C572 C566 1.379 . S
C572 C569 1.363 . S
C572 N570 1.356 . S
C573 C567 1.363 . S
C573 C568 1.379 . S
C573 N571 1.356 . S
N574 C566 1.356 . S
N574 H580 0.984 . S
N574 H581 0.984 . S
N575 C568 1.356 . S
N575 H578 0.984 . S
N575 H579 0.985 . S
H576 N571 0.984 . S
H577 N571 0.985 . S
H578 N575 0.984 . S
H579 N575 0.985 . S
H580 N574 0.984 . S
H581 N574 0.984 . S
H582 N570 0.984 . S
H583 N570 0.985 . S
C584 C585 1.379 . S
C584 C590 1.363 1_556 S
C584 N592 1.362 . S
C585 C584 1.379 . S
C585 C591 1.363 . S
C586 C587 1.379 . S
C586 C591 1.363 1_554 S
C586 N593 1.362 . S
C587 C586 1.379 . S
C587 C590 1.363 . S
N588 C590 1.356 . S
N588 H600 0.984 . S
N588 H601 0.985 . S
N589 C591 1.356 . S
N589 H594 0.984 . S
N589 H595 0.985 . S
C590 C584 1.363 1_554 S
C590 C587 1.363 . S
C590 N588 1.356 . S
C591 C585 1.363 . S
C591 C586 1.363 1_556 S
C591 N589 1.356 . S
N592 C584 1.362 . S
N592 H598 0.984 1_556 S
N592 H599 0.984 . S
N593 C586 1.362 . S
N593 H596 0.984 . S
N593 H597 0.985 1_554 S
H594 N589 0.984 . S
H595 N589 0.985 . S
H596 N593 0.984 . S
H597 N593 0.985 1_556 S
H598 N592 0.984 1_554 S
H599 N592 0.984 . S
H600 N588 0.984 . S
H601 N588 0.985 . S
C602 C603 1.363 . S
C602 C608 1.379 . S
C602 N610 1.356 . S
C603 C602 1.363 . S
C603 C609 1.363 . S
C604 C605 1.363 . S
C604 C609 1.379 . S
C604 N611 1.356 . S
C605 C604 1.363 . S
C605 C608 1.363 . S
N606 C608 1.356 . S
N606 H618 0.984 . S
N606 H619 0.985 . S
N607 C609 1.356 . S
N607 H612 0.984 . S
N607 H613 0.985 . S
C608 C602 1.379 . S
C608 C605 1.363 . S
C608 N606 1.356 . S
C609 C603 1.363 . S
C609 C604 1.379 . S
C609 N607 1.356 . S
N610 C602 1.356 . S
N610 H616 0.984 . S
N610 H617 0.984 . S
N611 C604 1.356 . S
N611 H614 0.984 . S
N611 H615 0.985 . S
H612 N607 0.984 . S
H613 N607 0.985 . S
H614 N611 0.984 . S
H615 N611 0.985 . S
H616 N610 0.984 . S
H617 N610 0.984 . S
H618 N606 0.984 . S
H619 N606 0.985 . S
C620 C621 1.363 . S
C620 C626 1.379 . S
C620 N628 1.356 . S
C621 C620 1.363 . S
C621 C627 1.363 . S
C622 C623 1.363 . S
C622 C627 1.379 . S
C622 N629 1.356 . S
C623 C622 1.363 . S
C623 C626 1.363 . S
N624 C626 1.356 . S
N624 H636 0.984 . S
N624 H637 0.985 . S
N625 C627 1.356 . S
N625 H630 0.984 . S
N625 H631 0.985 . S
C626 C620 1.379 . S
C626 C623 1.363 . S
C626 N624 1.356 . S
C627 C621 1.363 . S
C627 C622 1.379 . S
C627 N625 1.356 . S
N628 C620 1.356 . S
N628 H634 0.984 . S
N628 H635 0.984 . S
N629 C622 1.356 . S
N629 H632 0.984 . S
N629 H633 0.985 . S
H630 N625 0.984 . S
H631 N625 0.985 . S
H632 N629 0.984 . S
H633 N629 0.985 . S
H634 N628 0.984 . S
H635 N628 0.984 . S
H636 N624 0.984 . S
H637 N624 0.985 . S
C638 C639 1.363 . S
C638 C644 1.379 . S
C638 N646 1.356 . S
C639 C638 1.363 . S
C639 C645 1.363 . S
C640 C641 1.363 . S
C640 C645 1.379 . S
C640 N647 1.356 . S
C641 C640 1.363 . S
C641 C644 1.363 . S
N642 C644 1.356 . S
N642 H654 0.984 . S
N642 H655 0.985 . S
N643 C645 1.356 . S
N643 H648 0.984 . S
N643 H649 0.985 . S
C644 C638 1.379 . S
C644 C641 1.363 . S
C644 N642 1.356 . S
C645 C639 1.363 . S
C645 C640 1.379 . S
C645 N643 1.356 . S
N646 C638 1.356 . S
N646 H652 0.984 . S
N646 H653 0.984 . S
N647 C640 1.356 . S
N647 H650 0.984 . S
N647 H651 0.985 . S
H648 N643 0.984 . S
H649 N643 0.985 . S
H650 N647 0.984 . S
H651 N647 0.985 . S
H652 N646 0.984 . S
H653 N646 0.984 . S
H654 N642 0.984 . S
H655 N642 0.985 . S
C656 C657 1.363 . S
C656 C662 1.379 1_545 S
C656 N664 1.356 . S
C657 C656 1.363 . S
C657 C663 1.363 . S
C658 C659 1.363 . S
C658 C663 1.379 1_565 S
C658 N665 1.356 . S
C659 C658 1.363 . S
C659 C662 1.363 . S
N660 C662 1.356 . S
N660 H672 0.984 . S
N660 H673 0.985 . S
N661 C663 1.356 . S
N661 H666 0.984 . S
N661 H667 0.985 . S
C662 C656 1.379 1_565 S
C662 C659 1.363 . S
C662 N660 1.356 . S
C663 C657 1.363 . S
C663 C658 1.379 1_545 S
C663 N661 1.356 . S
N664 C656 1.356 . S
N664 H670 0.984 . S
N664 H671 0.984 . S
N665 C658 1.356 . S
N665 H668 0.984 . S
N665 H669 0.985 . S
H666 N661 0.984 . S
H667 N661 0.985 . S
H668 N665 0.984 . S
H669 N665 0.985 . S
H670 N664 0.984 . S
H671 N664 0.984 . S
H672 N660 0.984 . S
H673 N660 0.985 . S
C674 C675 1.363 . S
C674 C680 1.379 . S
C674 N682 1.356 . S
C675 C674 1.363 . S
C675 C681 1.363 . S
C676 C677 1.363 . S
C676 C681 1.379 . S
C676 N683 1.356 . S
C677 C676 1.363 . S
C677 C680 1.363 . S
N678 C680 1.356 . S
N678 H690 0.984 . S
N678 H691 0.985 . S
N679 C681 1.356 . S
N679 H684 0.984 . S
N679 H685 0.985 . S
C680 C674 1.379 . S
C680 C677 1.363 . S
C680 N678 1.356 . S
C681 C675 1.363 . S
C681 C676 1.379 . S
C681 N679 1.356 . S
N682 C674 1.356 . S
N682 H688 0.984 . S
N682 H689 0.984 . S
N683 C676 1.356 . S
N683 H686 0.984 . S
N683 H687 0.985 . S
H684 N679 0.984 . S
H685 N679 0.985 . S
H686 N683 0.984 . S
H687 N683 0.985 . S
H688 N682 0.984 . S
H689 N682 0.984 . S
H690 N678 0.984 . S
H691 N678 0.985 . S
C692 C693 1.363 1_554 S
C692 C698 1.379 . S
C692 N700 1.356 . S
C693 C692 1.363 1_556 S
C693 C699 1.363 1_545 S
C694 C695 1.363 1_556 S
C694 C699 1.379 . S
C694 N701 1.356 . S
C695 C694 1.363 1_554 S
C695 C698 1.363 1_565 S
N696 C698 1.356 1_565 S
N696 H708 0.984 1_565 S
N696 H709 0.985 . S
N697 C699 1.356 1_545 S
N697 H702 0.984 . S
N697 H703 0.985 1_545 S
C698 C692 1.379 . S
C698 C695 1.363 1_545 S
C698 N696 1.356 1_545 S
C699 C693 1.363 1_565 S
C699 C694 1.379 . S
C699 N697 1.356 1_565 S
N700 C692 1.356 . S
N700 H706 0.984 . S
N700 H707 0.984 1_554 S
N701 C694 1.356 . S
N701 H704 0.984 1_556 S
N701 H705 0.985 . S
H702 N697 0.984 . S
H703 N697 0.985 1_565 S
H704 N701 0.984 1_554 S
H705 N701 0.985 . S
H706 N700 0.984 . S
H707 N700 0.984 1_556 S
H708 N696 0.984 1_545 S
H709 N696 0.985 . S
C710 C711 1.363 . S
C710 C716 1.379 . S
C710 N718 1.356 . S
C711 C710 1.363 . S
C711 C717 1.363 . S
C712 C713 1.363 . S
C712 C717 1.379 . S
C712 N719 1.356 . S
C713 C712 1.363 . S
C713 C716 1.363 . S
N714 C716 1.356 . S
N714 H726 0.984 . S
N714 H727 0.985 . S
N715 C717 1.356 . S
N715 H720 0.984 . S
N715 H721 0.985 . S
C716 C710 1.379 . S
C716 C713 1.363 . S
C716 N714 1.356 . S
C717 C711 1.363 . S
C717 C712 1.379 . S
C717 N715 1.356 . S
N718 C710 1.356 . S
N718 H724 0.984 . S
N718 H725 0.984 . S
N719 C712 1.356 . S
N719 H722 0.984 . S
N719 H723 0.985 . S
H720 N715 0.984 . S
H721 N715 0.985 . S
H722 N719 0.984 . S
H723 N719 0.985 . S
H724 N718 0.984 . S
H725 N718 0.984 . S
H726 N714 0.984 . S
H727 N714 0.985 . S
C728 C729 1.363 . S
C728 C734 1.379 1_545 S
C728 N736 1.356 . S
C729 C728 1.363 . S
C729 C735 1.363 . S
C730 C731 1.363 . S
C730 C735 1.379 1_565 S
C730 N737 1.356 . S
C731 C730 1.363 . S
C731 C734 1.363 . S
N732 C734 1.356 . S
N732 H744 0.984 . S
N732 H745 0.985 . S
N733 C735 1.356 . S
N733 H738 0.984 . S
N733 H739 0.985 . S
C734 C728 1.379 1_565 S
C734 C731 1.363 . S
C734 N732 1.356 . S
C735 C729 1.363 . S
C735 C730 1.379 1_545 S
C735 N733 1.356 . S
N736 C728 1.356 . S
N736 H742 0.984 . S
N736 H743 0.984 . S
N737 C730 1.356 . S
N737 H740 0.984 . S
N737 H741 0.985 . S
H738 N733 0.984 . S
H739 N733 0.985 . S
H740 N737 0.984 . S
H741 N737 0.985 . S
H742 N736 0.984 . S
H743 N736 0.984 . S
H744 N732 0.984 . S
H745 N732 0.985 . S
C746 C747 1.363 . S
C746 C752 1.379 . S
C746 N754 1.356 . S
C747 C746 1.363 . S
C747 C753 1.363 . S
C748 C749 1.363 . S
C748 C753 1.379 . S
C748 N755 1.356 . S
C749 C748 1.363 . S
C749 C752 1.363 . S
N750 C752 1.356 . S
N750 H762 0.984 . S
N750 H763 0.985 . S
N751 C753 1.356 . S
N751 H756 0.984 . S
N751 H757 0.985 . S
C752 C746 1.379 . S
C752 C749 1.363 . S
C752 N750 1.356 . S
C753 C747 1.363 . S
C753 C748 1.379 . S
C753 N751 1.356 . S
N754 C746 1.356 . S
N754 H760 0.984 . S
N754 H761 0.984 . S
N755 C748 1.356 . S
N755 H758 0.984 . S
N755 H759 0.985 . S
H756 N751 0.984 . S
H757 N751 0.985 . S
H758 N755 0.984 . S
H759 N755 0.985 . S
H760 N754 0.984 . S
H761 N754 0.984 . S
H762 N750 0.984 . S
H763 N750 0.985 . S
C764 C765 1.343 1_545 S
C764 C770 1.398 . S
C764 N772 1.350 1_545 S
C765 C764 1.343 1_565 S
C765 C771 1.363 1_554 S
C766 C767 1.343 1_565 S
C766 C771 1.398 . S
C766 N773 1.350 1_565 S
C767 C766 1.343 1_545 S
C767 C770 1.363 1_556 S
N768 C770 1.356 . S
N768 H780 0.984 . S
N768 H781 0.985 1_554 S
N769 C771 1.356 . S
N769 H774 0.984 1_556 S
N769 H775 0.985 . S
C770 C764 1.398 . S
C770 C767 1.363 1_554 S
C770 N768 1.356 . S
C771 C765 1.363 1_556 S
C771 C766 1.398 . S
C771 N769 1.356 . S
N772 C764 1.350 1_565 S
N772 H778 0.984 1_565 S
N772 H779 0.984 . S
N773 C766 1.350 1_545 S
N773 H776 0.984 . S
N773 H777 0.985 1_545 S
H774 N769 0.984 1_554 S
H775 N769 0.985 . S
H776 N773 0.984 . S
H777 N773 0.985 1_565 S
H778 N772 0.984 1_545 S
H779 N772 0.984 . S
H780 N768 0.984 . S
H781 N768 0.985 1_556 S
C782 C783 1.363 . S
C782 C788 1.379 . S
C782 N790 1.356 . S
C783 C782 1.363 . S
C783 C789 1.363 . S
C784 C785 1.363 . S
C784 C789 1.379 . S
C784 N791 1.356 . S
C785 C784 1.363 . S
C785 C788 1.363 . S
N786 C788 1.356 . S
N786 H798 0.984 . S
N786 H799 0.985 . S
N787 C789 1.356 . S
N787 H792 0.984 . S
N787 H793 0.985 . S
C788 C782 1.379 . S
C788 C785 1.363 . S
C788 N786 1.356 . S
C789 C783 1.363 . S
C789 C784 1.379 . S
C789 N787 1.356 . S
N790 C782 1.356 . S
N790 H796 0.984 . S
N790 H797 0.984 . S
N791 C784 1.356 . S
N791 H794 0.984 . S
N791 H795 0.985 . S
H792 N787 0.984 . S
H793 N787 0.985 . S
H794 N791 0.984 . S
H795 N791 0.985 . S
H796 N790 0.984 . S
H797 N790 0.984 . S
H798 N786 0.984 . S
H799 N786 0.985 . S
C225 C163 1.435 . S
C227 C8 1.435 . S
C243 C219 1.435 . S
C245 C23 1.435 . S
C261 C36 1.435 . S
C263 C134 1.435 . S
C279 C191 1.435 . S
C281 C50 1.435 . S
C297 C64 1.435 . S
C299 C190 1.435 . S
C315 C79 1.435 . S
C317 C162 1.435 . S
C333 C93 1.435 . S
C335 C218 1.435 . S
C351 C107 1.435 . S
C353 C135 1.435 . S
C369 C51 1.435 . S
C371 C120 1.435 . S
C387 C148 1.435 . S
C389 C22 1.435 . S
C405 C176 1.435 . S
C407 C78 1.435 . S
C423 C205 1.435 . S
C425 C106 1.435 . S
C441 C65 1.435 . S
C443 C121 1.435 . S
C459 C149 1.435 . S
C461 C92 1.435 . S
C477 C204 1.435 . S
C479 C37 1.435 . S
C495 C9 1.435 . S
C497 C177 1.435 . S
C513 C7 1.444 . S
C515 C63 1.444 . S
C531 C20 1.444 . S
C533 C76 1.444 . S
C549 C35 1.444 . S
C551 C90 1.444 . S
C567 C104 1.444 . S
C569 C49 1.444 . S
C585 C119 1.444 . S
C587 C175 1.444 . S
C603 C188 1.444 . S
C605 C132 1.444 . S
C621 C147 1.444 . S
C623 C202 1.444 . S
C639 C216 1.444 . S
C641 C161 1.444 . S
C657 C105 1.444 . S
C659 C21 1.444 . S
C675 C34 1.444 . S
C677 C62 1.444 . S
C693 C48 1.444 . S
C695 C77 1.444 . S
C711 C6 1.444 . S
C713 C91 1.444 . S
C729 C133 1.444 . S
C731 C217 1.444 . S
C747 C174 1.444 . S
C749 C146 1.444 . S
C765 C160 1.444 . S
C767 C189 1.444 . S
C783 C203 1.444 . S
C785 C118 1.444 . S
