# Generated by pormake.
# Topology vmz, (8)-cn, num edge types: 1
# Building blocks:
#     Node 0, Type 0, BuildingBlock: TAGTUT_clean_sbu_3, # of connection points: 8
#     Node 1, Type 0, BuildingBlock: TAGTUT_clean_sbu_3, # of connection points: 8
#     Node 2, Type 0, BuildingBlock: TAGTUT_clean_sbu_3, # of connection points: 8
#     Node 3, Type 0, BuildingBlock: TAGTUT_clean_sbu_3, # of connection points: 8
#     Edge 4, Type (0, 0), BuildingBlock: ZUJKAS_clean_linker_0, # of connection points: 2
#     Edge 5, Type (0, 0), BuildingBlock: ZUJKAS_clean_linker_0, # of connection points: 2
#     Edge 6, Type (0, 0), BuildingBlock: ZUJKAS_clean_linker_0, # of connection points: 2
#     Edge 7, Type (0, 0), BuildingBlock: ZUJKAS_clean_linker_0, # of connection points: 2
#     Edge 8, Type (0, 0), BuildingBlock: ZUJKAS_clean_linker_0, # of connection points: 2
#     Edge 9, Type (0, 0), BuildingBlock: ZUJKAS_clean_linker_0, # of connection points: 2
#     Edge 10, Type (0, 0), BuildingBlock: ZUJKAS_clean_linker_0, # of connection points: 2
#     Edge 11, Type (0, 0), BuildingBlock: ZUJKAS_clean_linker_0, # of connection points: 2
#     Edge 12, Type (0, 0), BuildingBlock: ZUJKAS_clean_linker_0, # of connection points: 2
#     Edge 13, Type (0, 0), BuildingBlock: ZUJKAS_clean_linker_0, # of connection points: 2
#     Edge 14, Type (0, 0), BuildingBlock: ZUJKAS_clean_linker_0, # of connection points: 2
#     Edge 15, Type (0, 0), BuildingBlock: ZUJKAS_clean_linker_0, # of connection points: 2
#     Edge 16, Type (0, 0), BuildingBlock: ZUJKAS_clean_linker_0, # of connection points: 2
#     Edge 17, Type (0, 0), BuildingBlock: ZUJKAS_clean_linker_0, # of connection points: 2
#     Edge 18, Type (0, 0), BuildingBlock: ZUJKAS_clean_linker_0, # of connection points: 2
#     Edge 19, Type (0, 0), BuildingBlock: ZUJKAS_clean_linker_0, # of connection points: 2
# Relax obj value: 0.217
# Max RMSD: 0.272
# Mean RMSD: 0.270
data_MOF--net-vmz--node1-TAGTUT_clean_sbu_3--edge1-ZUJKAS_clean_linker_0
_symmetry_space_group_name_H-M    P1
_symmetry_Int_Tables_number       1
_symmetry_cell_setting            triclinic
loop_
_symmetry_equiv_pos_as_xyz
'x, y, z'
_cell_length_a     31.410869
_cell_length_b     23.318558
_cell_length_c     41.299956
_cell_angle_alpha  89.661989
_cell_angle_beta   99.036953
_cell_angle_gamma 89.920512
loop_
_atom_site_label
_atom_site_type_symbol
_atom_site_fract_x
_atom_site_fract_y
_atom_site_fract_z
_atom_type_partial_charge
C0 C 0.21161 0.23052 0.15168 0.0
C1 C 0.24218 0.39063 0.0671 0.0
C2 C 0.25735 0.24162 0.00535 0.0
Mg3 Mg 0.24263 0.1004 0.15721 0.0
Mg4 Mg 0.33379 0.05943 0.13487 0.0
O5 O 0.28095 0.09561 0.1224 0.0
Mg6 Mg 0.27887 0.17785 0.10793 0.0
O7 O 0.27104 0.25986 0.09401 0.0
Mg8 Mg 0.20855 0.2561 0.07323 0.0
Mg9 Mg 0.30918 0.29073 0.06783 0.0
C10 C 0.34776 0.11551 0.06682 0.0
O11 O 0.34444 0.20388 0.13608 0.0
O12 O 0.24584 0.00183 0.15974 0.0
O13 O 0.36738 0.27037 0.10273 0.0
O14 O 0.3001 0.10448 0.20014 0.0
O15 O 0.30813 0.97614 0.14327 0.0
O16 O 0.36209 0.09416 0.18091 0.0
O17 O 0.21336 0.15888 0.07986 0.0
O18 O 0.18688 0.09862 0.11381 0.0
C19 C 0.18284 0.12748 0.08696 0.0
C20 C 0.27261 0.96354 0.15325 0.0
O21 O 0.31736 0.15248 0.06695 0.0
O22 O 0.2122 0.35398 0.06896 0.0
O23 O 0.35952 0.08005 0.09049 0.0
O24 O 0.22466 0.2459 0.02019 0.0
O25 O 0.28133 0.37577 0.0661 0.0
O26 O 0.29541 0.25154 0.0201 0.0
O27 O 0.24338 0.19755 0.14945 0.0
O28 O 0.1936 0.26071 0.12717 0.0
C29 C 0.34136 0.10381 0.20451 0.0
C30 C 0.37324 0.23859 0.12869 0.0
C31 C 0.65451 0.65732 0.45512 0.0
C32 C 0.7555 0.81223 0.51379 0.0
C33 C 0.74205 0.89323 0.41631 0.0
Mg34 Mg 0.63821 0.60696 0.38323 0.0
Mg35 Mg 0.74051 0.6143 0.34985 0.0
O36 O 0.6886 0.65119 0.3631 0.0
Mg37 Mg 0.71361 0.69956 0.40235 0.0
O38 O 0.73422 0.74519 0.44239 0.0
Mg39 Mg 0.68159 0.79051 0.44644 0.0
Mg40 Mg 0.78629 0.78576 0.44748 0.0
C41 C 0.77844 0.73466 0.35125 0.0
O42 O 0.77674 0.64691 0.41565 0.0
O43 O 0.66799 0.6234 0.33631 0.0
O44 O 0.82532 0.715 0.43494 0.0
O45 O 0.68029 0.52415 0.38933 0.0
O46 O 0.70802 0.59434 0.30133 0.0
O47 O 0.74712 0.53359 0.37664 0.0
O48 O 0.65433 0.75696 0.39414 0.0
O49 O 0.60142 0.69411 0.378 0.0
C50 C 0.6145 0.74556 0.38471 0.0
C51 C 0.67106 0.59401 0.31032 0.0
O52 O 0.74958 0.75288 0.36756 0.0
O53 O 0.7162 0.81243 0.49906 0.0
O54 O 0.78803 0.68138 0.35089 0.0
O55 O 0.70797 0.87293 0.42538 0.0
O56 O 0.78743 0.8035 0.49856 0.0
O57 O 0.77705 0.86442 0.41979 0.0
O58 O 0.67471 0.64415 0.43149 0.0
O59 O 0.65526 0.7086 0.46599 0.0
C60 C 0.71785 0.50389 0.38736 0.0
C61 C 0.81567 0.66331 0.42596 0.0
C62 C 0.66859 0.88942 0.9377 0.0
C63 C 0.76076 0.74124 0.01183 0.0
C64 C 0.7613 0.64643 0.91971 0.0
Mg65 Mg 0.6605 0.92963 0.86426 0.0
Mg66 Mg 0.76756 0.91982 0.83725 0.0
O67 O 0.71527 0.88406 0.85157 0.0
Mg68 Mg 0.73445 0.83863 0.89342 0.0
O69 O 0.74983 0.79753 0.93625 0.0
Mg70 Mg 0.69573 0.75443 0.93857 0.0
Mg71 Mg 0.8022 0.7584 0.9485 0.0
C72 C 0.80631 0.79938 0.84974 0.0
O73 O 0.79504 0.89152 0.90815 0.0
O74 O 0.69735 0.90015 0.82291 0.0
O75 O 0.84276 0.82844 0.93535 0.0
O76 O 0.70132 0.01375 0.86919 0.0
O77 O 0.7369 0.92332 0.78628 0.0
O78 O 0.76872 0.00629 0.85757 0.0
O79 O 0.67527 0.78068 0.88342 0.0
O80 O 0.62481 0.84319 0.86084 0.0
C81 C 0.63642 0.79226 0.87045 0.0
C82 C 0.69911 0.91664 0.79319 0.0
O83 O 0.77554 0.78236 0.86457 0.0
O84 O 0.72324 0.73936 0.99403 0.0
O85 O 0.81587 0.85268 0.84837 0.0
O86 O 0.72543 0.66848 0.92441 0.0
O87 O 0.79533 0.74818 0.99938 0.0
O88 O 0.79631 0.67521 0.9249 0.0
O89 O 0.69225 0.89789 0.91568 0.0
O90 O 0.6666 0.84003 0.95107 0.0
C91 C 0.73835 0.03554 0.86709 0.0
C92 C 0.83319 0.87792 0.92212 0.0
C93 C 0.35546 0.23425 0.61651 0.0
C94 C 0.34281 0.41466 0.69066 0.0
C95 C 0.24506 0.47004 0.61223 0.0
Mg96 Mg 0.28694 0.17894 0.55851 0.0
Mg97 Mg 0.18136 0.18464 0.55673 0.0
O98 O 0.23389 0.22359 0.56353 0.0
Mg99 Mg 0.25612 0.27466 0.60124 0.0
O100 O 0.28388 0.32655 0.63689 0.0
Mg101 Mg 0.32448 0.36956 0.61266 0.0
Mg102 Mg 0.25117 0.37188 0.66107 0.0
C103 C 0.15284 0.30804 0.57914 0.0
O104 O 0.22574 0.22797 0.64298 0.0
O105 O 0.25211 0.15205 0.50698 0.0
O106 O 0.21251 0.30219 0.67526 0.0
O107 O 0.2608 0.09805 0.58188 0.0
O108 O 0.181 0.16557 0.50545 0.0
O109 O 0.19069 0.10631 0.58471 0.0
O110 O 0.29048 0.32759 0.56571 0.0
O111 O 0.31233 0.2583 0.53543 0.0
C112 C 0.31134 0.31119 0.54314 0.0
C113 C 0.21335 0.15306 0.49134 0.0
O114 O 0.19173 0.32476 0.58933 0.0
O115 O 0.35492 0.40534 0.66287 0.0
O116 O 0.14334 0.2566 0.56948 0.0
O117 O 0.28044 0.4505 0.60487 0.0
O118 O 0.30427 0.40476 0.69578 0.0
O119 O 0.22406 0.44237 0.63124 0.0
O120 O 0.31615 0.21835 0.60914 0.0
O121 O 0.36558 0.28742 0.62017 0.0
C122 C 0.22595 0.07796 0.5899 0.0
C123 C 0.21048 0.24871 0.66781 0.0
H124 H 0.16571 0.43851 0.07724 0.0
H125 H 0.15454 0.53662 0.09482 0.0
H126 H 0.285 0.5792 0.08386 0.0
H127 H 0.29682 0.48152 0.06633 0.0
H128 H 0.24881 0.58934 0.15267 0.0
H129 H 0.16055 0.70311 0.04302 0.0
H130 H 0.14872 0.62937 0.05185 0.0
H131 H 0.19844 0.64671 0.03803 0.0
C132 C 0.19178 0.46902 0.0778 0.0
C133 C 0.23241 0.45196 0.0708 0.0
C134 C 0.18524 0.52493 0.08788 0.0
C135 C 0.21908 0.5644 0.09076 0.0
C136 C 0.25864 0.54882 0.08175 0.0
H137 H 0.32549 0.87063 0.15527 0.0
H138 H 0.30393 0.77082 0.14713 0.0
C139 C 0.26526 0.49305 0.07171 0.0
C140 C 0.21524 0.62015 0.10632 0.0
H141 H 0.18859 0.75953 0.08865 0.0
C142 C 0.2349 0.62651 0.13899 0.0
C143 C 0.19643 0.6678 0.08839 0.0
C144 C 0.17468 0.66195 0.05335 0.0
C145 C 0.23875 0.68058 0.15363 0.0
C146 C 0.22312 0.72908 0.13482 0.0
C147 C 0.20055 0.72205 0.10294 0.0
C148 C 0.2358 0.78753 0.14554 0.0
C149 C 0.26107 0.68567 0.18859 0.0
C150 C 0.20459 0.8297 0.14772 0.0
C151 C 0.21685 0.88696 0.1524 0.0
C152 C 0.2604 0.9027 0.15431 0.0
C153 C 0.2917 0.85984 0.15372 0.0
C154 C 0.27946 0.80273 0.14935 0.0
H155 H 0.25788 0.64552 0.20263 0.0
H156 H 0.29595 0.69341 0.18871 0.0
H157 H 0.24783 0.72194 0.20124 0.0
H158 H 0.17071 0.8186 0.14455 0.0
H159 H 0.19199 0.91912 0.15267 0.0
H160 H 0.81049 0.95794 0.4033 0.0
H161 H 0.8117 0.06179 0.39453 0.0
H162 H 0.67511 0.07029 0.397 0.0
H163 H 0.67329 0.96669 0.40508 0.0
H164 H 0.70077 0.14166 0.34961 0.0
H165 H 0.80439 0.17115 0.47052 0.0
H166 H 0.82618 0.12475 0.44263 0.0
H167 H 0.77834 0.10398 0.45849 0.0
C168 C 0.78055 0.98171 0.40142 0.0
C169 C 0.74191 0.95398 0.40541 0.0
C170 C 0.78139 0.04116 0.39669 0.0
C171 C 0.74372 0.0739 0.39601 0.0
C172 C 0.70466 0.04591 0.39781 0.0
H173 H 0.65979 0.42321 0.40064 0.0
H174 H 0.66915 0.31935 0.40254 0.0
C175 C 0.70372 0.98658 0.40246 0.0
C176 C 0.74497 0.13748 0.39503 0.0
H177 H 0.78454 0.25459 0.43925 0.0
C178 C 0.71926 0.16635 0.36911 0.0
C179 C 0.76905 0.16962 0.42059 0.0
C180 C 0.7958 0.14098 0.44981 0.0
C181 C 0.71673 0.22646 0.36816 0.0
C182 C 0.74013 0.25842 0.39403 0.0
C183 C 0.76668 0.22978 0.41952 0.0
C184 C 0.73594 0.32155 0.39558 0.0
C185 C 0.68899 0.25538 0.33953 0.0
C186 C 0.77103 0.35721 0.39254 0.0
C187 C 0.7659 0.41688 0.39152 0.0
C188 C 0.72561 0.44178 0.39378 0.0
C189 C 0.69125 0.40572 0.39869 0.0
C190 C 0.69638 0.34623 0.39953 0.0
H191 H 0.68171 0.22627 0.31818 0.0
H192 H 0.65796 0.26851 0.34696 0.0
H193 H 0.70493 0.29449 0.33177 0.0
H194 H 0.80197 0.33883 0.38983 0.0
H195 H 0.79312 0.4433 0.3879 0.0
H196 H 0.8313 0.58036 0.91062 0.0
H197 H 0.83286 0.47668 0.90117 0.0
H198 H 0.69543 0.46871 0.89922 0.0
H199 H 0.69338 0.57185 0.90854 0.0
H200 H 0.74597 0.38842 0.94344 0.0
H201 H 0.78733 0.38182 0.81735 0.0
H202 H 0.82035 0.42641 0.84658 0.0
H203 H 0.76483 0.44488 0.83351 0.0
C204 C 0.80129 0.55676 0.90771 0.0
C205 C 0.76225 0.58474 0.91048 0.0
C206 C 0.80225 0.49743 0.90224 0.0
C207 C 0.76423 0.46491 0.89938 0.0
C208 C 0.72516 0.49289 0.90135 0.0
H209 H 0.67967 0.1134 0.8829 0.0
H210 H 0.68922 0.21601 0.89199 0.0
C211 C 0.7241 0.55205 0.90665 0.0
C212 C 0.76513 0.40135 0.89615 0.0
H213 H 0.78117 0.29307 0.84389 0.0
C214 C 0.75376 0.36755 0.9217 0.0
C215 C 0.77576 0.37412 0.86796 0.0
C216 C 0.78752 0.40843 0.8396 0.0
C217 C 0.75243 0.30738 0.91976 0.0
C218 C 0.7616 0.28008 0.89108 0.0
C219 C 0.77401 0.31385 0.86583 0.0
C220 C 0.75651 0.21693 0.88621 0.0
C221 C 0.74164 0.27366 0.94869 0.0
C222 C 0.79089 0.18296 0.87919 0.0
C223 C 0.78543 0.12391 0.87361 0.0
C224 C 0.74534 0.09757 0.87476 0.0
C225 C 0.71111 0.13181 0.882 0.0
C226 C 0.71656 0.1907 0.88741 0.0
H227 H 0.74938 0.29826 0.97183 0.0
H228 H 0.70656 0.26447 0.94484 0.0
H229 H 0.75939 0.23227 0.95166 0.0
H230 H 0.82199 0.20217 0.87799 0.0
H231 H 0.81252 0.09907 0.8681 0.0
H232 H 0.15668 0.01532 0.60322 0.0
H233 H 0.15329 0.91136 0.6106 0.0
H234 H 0.28922 0.89831 0.60621 0.0
H235 H 0.29322 0.00188 0.59963 0.0
H236 H 0.16959 0.83302 0.56589 0.0
H237 H 0.27916 0.79377 0.68241 0.0
H238 H 0.25883 0.86434 0.67012 0.0
H239 H 0.30466 0.83554 0.65435 0.0
C240 C 0.18613 0.99056 0.6047 0.0
C241 C 0.22521 0.01714 0.60071 0.0
C242 C 0.18405 0.93104 0.60875 0.0
C243 C 0.22102 0.89697 0.60914 0.0
C244 C 0.26041 0.92367 0.60664 0.0
H245 H 0.28959 0.54899 0.58156 0.0
H246 H 0.27791 0.65257 0.57888 0.0
C247 C 0.26258 0.98309 0.60272 0.0
C248 C 0.21793 0.83338 0.60918 0.0
H249 H 0.26451 0.71272 0.64653 0.0
C250 C 0.18984 0.80672 0.58384 0.0
C251 C 0.24427 0.79899 0.63264 0.0
C252 C 0.27308 0.82465 0.66159 0.0
C253 C 0.18878 0.74673 0.58061 0.0
C254 C 0.21653 0.71281 0.60317 0.0
C255 C 0.2436 0.73916 0.62906 0.0
C256 C 0.21915 0.64984 0.59992 0.0
C257 C 0.15916 0.71977 0.55259 0.0
C258 C 0.18904 0.61404 0.6116 0.0
C259 C 0.19558 0.55461 0.61325 0.0
C260 C 0.23249 0.53018 0.60335 0.0
C261 C 0.26088 0.56614 0.58949 0.0
C262 C 0.2544 0.62545 0.58803 0.0
H263 H 0.1406 0.75227 0.53634 0.0
H264 H 0.17821 0.69321 0.53779 0.0
H265 H 0.13613 0.69086 0.56241 0.0
H266 H 0.16163 0.63227 0.62088 0.0
H267 H 0.17295 0.52826 0.62391 0.0
H268 H 0.63041 0.85787 0.37317 0.0
H269 H 0.57797 0.93457 0.35949 0.0
H270 H 0.47555 0.81912 0.37486 0.0
H271 H 0.52795 0.74108 0.38674 0.0
H272 H 0.45608 0.86616 0.31962 0.0
H273 H 0.5106 0.04257 0.40389 0.0
H274 H 0.55428 0.02034 0.38377 0.0
H275 H 0.53214 0.9709 0.4105 0.0
C276 C 0.59679 0.84906 0.37422 0.0
C277 C 0.58318 0.79334 0.38069 0.0
C278 C 0.5668 0.8933 0.36681 0.0
C279 C 0.52269 0.88322 0.36669 0.0
C280 C 0.50938 0.82814 0.37488 0.0
H281 H 0.30945 0.08279 0.26144 0.0
H282 H 0.35079 0.04089 0.311 0.0
C283 C 0.53928 0.78349 0.38153 0.0
C284 C 0.4903 0.92717 0.35306 0.0
H285 H 0.4694 0.07133 0.35065 0.0
C286 C 0.45827 0.91066 0.32717 0.0
C287 C 0.49298 0.98549 0.36273 0.0
C288 C 0.52413 0.00559 0.392 0.0
C289 C 0.4309 0.95103 0.30937 0.0
C290 C 0.43559 0.0097 0.3176 0.0
C291 C 0.46604 0.02627 0.34442 0.0
C292 C 0.41273 0.05368 0.29551 0.0
C293 C 0.39879 0.93104 0.28052 0.0
C294 C 0.43428 0.07873 0.27176 0.0
C295 C 0.41081 0.10234 0.2433 0.0
C296 C 0.36548 0.10109 0.23828 0.0
C297 C 0.34433 0.0838 0.26434 0.0
C298 C 0.36788 0.05985 0.29277 0.0
H299 H 0.4018 0.88448 0.27577 0.0
H300 H 0.36556 0.93946 0.28531 0.0
H301 H 0.40319 0.95516 0.25802 0.0
H302 H 0.46893 0.07449 0.27357 0.0
H303 H 0.42809 0.11626 0.22393 0.0
H304 H 0.59859 0.55937 0.3349 0.0
H305 H 0.55161 0.47834 0.31633 0.0
H306 H 0.627 0.44489 0.2397 0.0
H307 H 0.67453 0.52408 0.25858 0.0
H308 H 0.50208 0.46524 0.25849 0.0
H309 H 0.61781 0.28556 0.27555 0.0
H310 H 0.62973 0.35452 0.2945 0.0
H311 H 0.63806 0.34235 0.25287 0.0
C312 C 0.60543 0.53433 0.31437 0.0
C313 C 0.64065 0.54767 0.29852 0.0
C314 C 0.57866 0.48794 0.30386 0.0
C315 C 0.58668 0.4544 0.27731 0.0
C316 C 0.6212 0.46865 0.26104 0.0
H317 H 0.4484 0.29006 0.11922 0.0
H318 H 0.50316 0.32965 0.16178 0.0
C319 C 0.64801 0.51452 0.27162 0.0
C320 C 0.55677 0.40819 0.26411 0.0
H321 H 0.5553 0.27288 0.23263 0.0
C322 C 0.51342 0.42264 0.25369 0.0
C323 C 0.57152 0.35237 0.25812 0.0
C324 C 0.61675 0.33266 0.27122 0.0
C325 C 0.48533 0.38442 0.23509 0.0
C326 C 0.50115 0.33069 0.22667 0.0
C327 C 0.54359 0.31451 0.2389 0.0
C328 C 0.47499 0.29453 0.20209 0.0
C329 C 0.43953 0.40287 0.22279 0.0
C330 C 0.4424 0.2596 0.21092 0.0
C331 C 0.41107 0.23685 0.18666 0.0
C332 C 0.41183 0.24923 0.15334 0.0
C333 C 0.44675 0.28016 0.14465 0.0
C334 C 0.47814 0.30259 0.1689 0.0
H335 H 0.43206 0.44578 0.23204 0.0
H336 H 0.43396 0.40422 0.19557 0.0
H337 H 0.41677 0.37118 0.23058 0.0
H338 H 0.43952 0.25328 0.23649 0.0
H339 H 0.38446 0.21359 0.19421 0.0
H340 H 0.44218 0.25136 0.62478 0.0
H341 H 0.49832 0.1841 0.64814 0.0
H342 H 0.40288 0.05205 0.6506 0.0
H343 H 0.34619 0.11903 0.6269 0.0
H344 H 0.49159 0.13649 0.71145 0.0
H345 H 0.50732 0.96947 0.61818 0.0
H346 H 0.48553 0.03999 0.60721 0.0
H347 H 0.45367 0.98802 0.62474 0.0
C348 C 0.43313 0.20768 0.62958 0.0
C349 C 0.38969 0.19073 0.62447 0.0
C350 C 0.46527 0.16931 0.64283 0.0
C351 C 0.45461 0.11335 0.65107 0.0
C352 C 0.41169 0.09497 0.64402 0.0
H353 H 0.61565 0.91745 0.80407 0.0
H354 H 0.55312 0.95852 0.76862 0.0
C355 C 0.37938 0.13338 0.6306 0.0
C356 C 0.48751 0.07758 0.67114 0.0
H357 H 0.54894 0.95692 0.67075 0.0
C358 C 0.50406 0.09709 0.70265 0.0
C359 C 0.50343 0.02638 0.6594 0.0
C360 C 0.4869 0.00459 0.62546 0.0
C361 C 0.53682 0.06718 0.72269 0.0
C362 C 0.5529 0.01597 0.71101 0.0
C363 C 0.5361 0.99601 0.6796 0.0
C364 C 0.58912 0.98497 0.73054 0.0
C365 C 0.55489 0.09151 0.75581 0.0
C366 C 0.62957 0.98499 0.72029 0.0
C367 C 0.66529 0.96184 0.74047 0.0
C368 C 0.66098 0.9383 0.77119 0.0
C369 C 0.62002 0.93613 0.78076 0.0
C370 C 0.58431 0.95933 0.76054 0.0
H371 H 0.54457 0.13661 0.75845 0.0
H372 H 0.54342 0.06545 0.77528 0.0
H373 H 0.59067 0.08986 0.75992 0.0
H374 H 0.63376 0.00467 0.69716 0.0
H375 H 0.69638 0.96349 0.7323 0.0
H376 H 0.65169 0.67642 0.8748 0.0
H377 H 0.6016 0.60019 0.85357 0.0
H378 H 0.50022 0.72517 0.8292 0.0
H379 H 0.54975 0.80163 0.8502 0.0
H380 H 0.50564 0.57012 0.86333 0.0
H381 H 0.53388 0.64942 0.74107 0.0
H382 H 0.57065 0.66392 0.77828 0.0
H383 H 0.52079 0.70276 0.76927 0.0
C384 C 0.61847 0.68757 0.86571 0.0
C385 C 0.60487 0.74521 0.86365 0.0
C386 C 0.58992 0.64392 0.8537 0.0
C387 C 0.54751 0.65743 0.83968 0.0
C388 C 0.53297 0.71421 0.83991 0.0
H389 H 0.32668 0.47033 0.7457 0.0
H390 H 0.37867 0.52155 0.78553 0.0
C391 C 0.56141 0.7578 0.85178 0.0
C392 C 0.52028 0.61427 0.82053 0.0
H393 H 0.48002 0.57947 0.74173 0.0
C394 C 0.50011 0.57164 0.83675 0.0
C395 C 0.51385 0.61628 0.78593 0.0
C396 C 0.5361 0.66022 0.76745 0.0
C397 C 0.47249 0.5315 0.81898 0.0
C398 C 0.46478 0.53495 0.78432 0.0
C399 C 0.48592 0.5769 0.7683 0.0
C400 C 0.43425 0.49683 0.76372 0.0
C401 C 0.4521 0.4857 0.83738 0.0
C402 C 0.44823 0.46596 0.73829 0.0
C403 C 0.41859 0.43767 0.71518 0.0
C404 C 0.37434 0.43948 0.71716 0.0
C405 C 0.36058 0.46802 0.74359 0.0
C406 C 0.3903 0.49691 0.76655 0.0
H407 H 0.47073 0.47834 0.86224 0.0
H408 H 0.41913 0.49956 0.84033 0.0
H409 H 0.44956 0.44454 0.82383 0.0
H410 H 0.48201 0.46548 0.73563 0.0
H411 H 0.43028 0.41553 0.69532 0.0
H412 H 0.11505 0.0554 0.08905 0.0
H413 H 0.05035 0.04639 0.04824 0.0
H414 H 0.09297 0.18589 0.99229 0.0
H415 H 0.15806 0.19475 0.03275 0.0
H416 H 0.98512 0.12802 0.02314 0.0
H417 H 0.07903 0.04968 0.92807 0.0
H418 H 0.10292 0.05369 0.97067 0.0
H419 H 0.09228 0.11815 0.94683 0.0
C420 C 0.11057 0.08453 0.06826 0.0
C421 C 0.14204 0.12525 0.0639 0.0
C422 C 0.07355 0.07948 0.04504 0.0
C423 C 0.06734 0.11514 0.0172 0.0
C424 C 0.09763 0.15752 0.01342 0.0
H425 H 0.82284 0.9928 0.90986 0.0
H426 H 0.87744 0.06745 0.92074 0.0
C427 C 0.13481 0.16241 0.03658 0.0
C428 C 0.03031 0.10432 0.99148 0.0
H429 H 0.00506 0.03101 0.91999 0.0
C430 C 0.98901 0.10836 1.00003 0.0
C431 C 0.03597 0.07945 0.96132 0.0
C432 C 0.07986 0.07464 0.951 0.0
C433 C 0.95371 0.08212 0.981 0.0
C434 C 0.9602 0.05213 0.95247 0.0
C435 C 0.00052 0.05394 0.94198 0.0
C436 C 0.92922 0.00837 0.9382 0.0
C437 C 0.91098 0.0816 0.99344 0.0
C438 C 0.94097 0.95043 0.94258 0.0
C439 C 0.91011 0.90763 0.93575 0.0
C440 C 0.86694 0.92219 0.92456 0.0
C441 C 0.85587 0.98013 0.91812 0.0
C442 C 0.88692 0.02295 0.92461 0.0
H443 H 0.91283 0.10247 0.01773 0.0
H444 H 0.88653 0.10484 0.97583 0.0
H445 H 0.89963 0.03687 0.9956 0.0
H446 H 0.97359 0.93842 0.95311 0.0
H447 H 0.91979 0.86342 0.94062 0.0
H448 H 0.15939 0.42364 0.56902 0.0
H449 H 0.10084 0.4875 0.54473 0.0
H450 H 0.00891 0.35186 0.55 0.0
H451 H 0.06683 0.28826 0.57452 0.0
H452 H 0.05181 0.45657 0.48387 0.0
H453 H 0.94624 0.49306 0.5776 0.0
H454 H 0.00157 0.46964 0.58804 0.0
H455 H 0.96004 0.41911 0.57306 0.0
C456 C 0.12653 0.40815 0.56617 0.0
C457 C 0.11771 0.35077 0.57336 0.0
C458 C 0.09318 0.44453 0.55207 0.0
C459 C 0.05063 0.42426 0.54553 0.0
C460 C 0.04142 0.36854 0.55519 0.0
H461 H 0.80866 0.54809 0.43712 0.0
H462 H 0.86702 0.48422 0.46181 0.0
C463 C 0.07464 0.33216 0.56907 0.0
C464 C 0.01683 0.45792 0.52476 0.0
H465 H 0.91626 0.51466 0.5222 0.0
C466 C 0.02232 0.46983 0.4923 0.0
C467 C 0.97821 0.47417 0.53573 0.0
C468 C 0.9712 0.46383 0.5706 0.0
C469 C 0.98986 0.49701 0.47033 0.0
C470 C 0.95124 0.51331 0.4813 0.0
C471 C 0.94575 0.5014 0.51376 0.0
C472 C 0.91745 0.54697 0.4605 0.0
C473 C -0.00314 0.50718 0.43544 0.0
C474 C 0.92683 0.6024 0.45048 0.0
C475 C 0.89374 0.63874 0.43634 0.0
C476 C 0.85061 0.62041 0.4322 0.0
C477 C 0.84158 0.56333 0.43985 0.0
C478 C 0.87482 0.52697 0.45418 0.0
H479 H 0.02154 0.47754 0.4284 0.0
H480 H 0.96642 0.50179 0.41801 0.0
H481 H 0.00843 0.55169 0.43299 0.0
H482 H 0.95941 0.61891 0.45551 0.0
H483 H 0.90171 0.68241 0.43053 0.0
H484 H 0.37602 0.02113 0.03937 0.0
H485 H 0.42635 0.01696 1.00018 0.0
H486 H 0.42505 0.20163 0.99272 0.0
H487 H 0.37461 0.20599 0.03264 0.0
H488 H 0.42695 0.06358 0.93432 0.0
H489 H 0.55203 0.15611 0.03086 0.0
H490 H 0.50193 0.12956 0.04123 0.0
H491 H 0.50241 0.19434 0.01765 0.0
C492 C 0.38575 0.06079 0.02887 0.0
C493 C 0.37161 0.11385 0.03895 0.0
C494 C 0.41428 0.0584 0.00637 0.0
C495 C 0.42956 0.109 0.99377 0.0
C496 C 0.41364 0.16217 1.0023 0.0
H497 H 0.67038 0.00503 0.92527 0.0
H498 H 0.61338 0.07554 0.93002 0.0
C499 C 0.38465 0.16457 0.02482 0.0
C500 C 0.46599 0.10426 0.97529 0.0
H501 H 0.57575 0.09729 0.99152 0.0
C502 C 0.45955 0.07296 0.94604 0.0
C503 C 0.50846 0.11697 0.99053 0.0
C504 C 0.51702 0.15106 0.02182 0.0
C505 C 0.49443 0.04825 0.93382 0.0
C506 C 0.53639 0.05479 0.95151 0.0
C507 C 0.54334 0.09211 0.97826 0.0
C508 C 0.57084 0.01371 0.94744 0.0
C509 C 0.48585 0.01107 0.90377 0.0
C510 C 0.56606 0.95638 0.95658 0.0
C511 C 0.59842 0.91651 0.95428 0.0
C512 C 0.63621 0.93314 0.94259 0.0
C513 C 0.64134 0.99095 0.93395 0.0
C514 C 0.60893 0.03117 0.93661 0.0
H515 H 0.4558 0.02442 0.88754 0.0
H516 H 0.51316 0.01276 0.88966 0.0
H517 H 0.48181 0.96595 0.91143 0.0
H518 H 0.53719 0.94249 0.96567 0.0
H519 H 0.59333 0.87238 0.96103 0.0
H520 H 0.36408 0.28715 0.4983 0.0
H521 H 0.42168 0.34626 0.48294 0.0
H522 H 0.38656 0.48352 0.54311 0.0
H523 H 0.32862 0.42449 0.55882 0.0
H524 H 0.42209 0.45531 0.4534 0.0
H525 H 0.51457 0.45249 0.57972 0.0
H526 H 0.47005 0.40463 0.56694 0.0
H527 H 0.46006 0.47805 0.5764 0.0
C528 C 0.36819 0.33008 0.50816 0.0
C529 C 0.34209 0.35056 0.53041 0.0
C530 C 0.40123 0.36381 0.49928 0.0
C531 C 0.40903 0.4187 0.51246 0.0
C532 C 0.38169 0.44066 0.53327 0.0
H533 H 0.60018 0.67787 0.49926 0.0
H534 H 0.54229 0.61742 0.51262 0.0
C535 C 0.34846 0.40692 0.54214 0.0
C536 C 0.4466 0.45193 0.50505 0.0
H537 H 0.54269 0.5091 0.54037 0.0
C538 C 0.44853 0.46703 0.47236 0.0
C539 C 0.48117 0.46669 0.52985 0.0
C540 C 0.48176 0.44929 0.56518 0.0
C541 C 0.48366 0.49776 0.46388 0.0
C542 C 0.51815 0.51276 0.48872 0.0
C543 C 0.5163 0.49735 0.52137 0.0
C544 C 0.5553 0.54724 0.4816 0.0
C545 C 0.48301 0.51531 0.42858 0.0
C546 C 0.58285 0.52715 0.46043 0.0
C547 C 0.61629 0.5618 0.45264 0.0
C548 C 0.62272 0.61713 0.46589 0.0
C549 C 0.59615 0.63578 0.48826 0.0
C550 C 0.56289 0.60125 0.496 0.0
H551 H 0.45023 0.51183 0.41402 0.0
H552 H 0.49446 0.56009 0.42685 0.0
H553 H 0.50488 0.48682 0.41734 0.0
H554 H 0.57824 0.48492 0.44968 0.0
H555 H 0.63652 0.54559 0.43589 0.0
H556 H 0.25759 0.15837 0.69541 0.0
H557 H 0.26166 0.13002 0.75302 0.0
H558 H 0.1474 0.22906 0.7594 0.0
H559 H 0.14377 0.25841 0.70212 0.0
H560 H 0.26913 0.23334 0.79611 0.0
H561 H 0.14042 0.08378 0.82103 0.0
H562 H 0.16133 0.0843 0.78263 0.0
H563 H 0.12488 0.1395 0.79112 0.0
C564 C 0.23182 0.17119 0.70847 0.0
C565 C 0.20029 0.21054 0.69423 0.0
C566 C 0.23448 0.15548 0.74157 0.0
C567 C 0.20494 0.17762 0.76057 0.0
C568 C 0.17027 0.21095 0.74518 0.0
H569 H 0.18235 0.24621 0.96155 0.0
H570 H 0.17196 0.22512 0.90296 0.0
C571 C 0.16803 0.22742 0.71231 0.0
C572 C 0.21522 0.17695 0.79696 0.0
H573 H 0.17797 0.13423 0.86663 0.0
C574 C 0.24969 0.21091 0.81163 0.0
C575 C 0.18924 0.1487 0.817 0.0
C576 C 0.15198 0.11164 0.80231 0.0
C577 C 0.25797 0.21925 0.84571 0.0
C578 C 0.23202 0.19094 0.86601 0.0
C579 C 0.19806 0.15578 0.85127 0.0
C580 C 0.23817 0.19989 0.90225 0.0
C581 C 0.29293 0.26099 0.85923 0.0
C582 C 0.27861 0.19155 0.92181 0.0
C583 C 0.2849 0.20493 0.95525 0.0
C584 C 0.25056 0.2254 0.97013 0.0
C585 C 0.2096 0.23091 0.95089 0.0
C586 C 0.20355 0.21861 0.91733 0.0
H587 H 0.30069 0.29106 0.84002 0.0
H588 H 0.2834 0.28661 0.87951 0.0
H589 H 0.32278 0.23687 0.86878 0.0
H590 H 0.30556 0.17528 0.91116 0.0
H591 H 0.31667 0.19918 0.96943 0.0
H592 H 0.87814 0.80971 0.82065 0.0
H593 H 0.87755 0.79062 0.76257 0.0
H594 H 0.7613 0.6918 0.75985 0.0
H595 H 0.76161 0.71036 0.81791 0.0
H596 H 0.84811 0.68228 0.70901 0.0
H597 H 0.74179 0.87146 0.71856 0.0
H598 H 0.78578 0.85396 0.75071 0.0
H599 H 0.73845 0.81004 0.74469 0.0
C600 C 0.85389 0.78101 0.80823 0.0
C601 C 0.81911 0.76324 0.82356 0.0
C602 C 0.85356 0.77026 0.77496 0.0
C603 C 0.8188 0.74107 0.75693 0.0
C604 C 0.78826 0.71472 0.77346 0.0
H605 H 0.69722 0.80065 0.55624 0.0
H606 H 0.71313 0.78172 0.61513 0.0
C607 C 0.78865 0.72523 0.8068 0.0
C608 C 0.80843 0.75151 0.72128 0.0
H609 H 0.75222 0.84413 0.66606 0.0
C610 C 0.82706 0.7174 0.69946 0.0
C611 C 0.78091 0.79746 0.70913 0.0
C612 C 0.76049 0.83566 0.73181 0.0
C613 C 0.81861 0.72807 0.66549 0.0
C614 C 0.79173 0.77489 0.6534 0.0
C615 C 0.77289 0.80849 0.67537 0.0
C616 C 0.78228 0.78966 0.61804 0.0
C617 C 0.83788 0.68854 0.64286 0.0
C618 C 0.8157 0.80316 0.60046 0.0
C619 C 0.80673 0.81416 0.56679 0.0
C620 C 0.76407 0.81243 0.55011 0.0
C621 C 0.73042 0.80249 0.56824 0.0
C622 C 0.73948 0.79117 0.60189 0.0
H623 H 0.84721 0.64655 0.65477 0.0
H624 H 0.81493 0.68085 0.61998 0.0
H625 H 0.86735 0.70852 0.63615 0.0
H626 H 0.84883 0.8042 0.61266 0.0
H627 H 0.83342 0.82211 0.55366 0.0
H628 H 0.7302 0.81839 0.31645 0.0
H629 H 0.73134 0.83811 0.25839 0.0
H630 H 0.85102 0.74543 0.26401 0.0
H631 H 0.85005 0.72508 0.322 0.0
H632 H 0.82514 0.85784 0.21387 0.0
H633 H 0.71819 0.66622 0.20944 0.0
H634 H 0.71098 0.72426 0.23671 0.0
H635 H 0.75843 0.68051 0.24471 0.0
C636 C 0.75806 0.80498 0.3059 0.0
C637 C 0.78969 0.76926 0.32367 0.0
C638 C 0.75844 0.81593 0.27257 0.0
C639 C 0.79084 0.79227 0.25691 0.0
C640 C 0.82566 0.76384 0.2757 0.0
H641 H 0.8339 0.73502 0.05762 0.0
H642 H 0.84023 0.74914 0.11669 0.0
C643 C 0.82517 0.75251 0.30891 0.0
C644 C 0.78411 0.78659 0.2208 0.0
H645 H 0.73489 0.70051 0.15952 0.0
C646 C 0.80526 0.82376 0.20186 0.0
C647 C 0.7581 0.74201 0.20536 0.0
C648 C 0.73508 0.70064 0.22491 0.0
C649 C 0.80102 0.81743 0.16763 0.0
C650 C 0.77587 0.77179 0.15223 0.0
C651 C 0.75425 0.73527 0.1713 0.0
C652 C 0.77182 0.76071 0.11646 0.0
C653 C 0.823 0.86017 0.14826 0.0
C654 C 0.73104 0.75932 0.09683 0.0
C655 C 0.72718 0.75027 0.06301 0.0
C656 C 0.7641 0.74237 0.04812 0.0
C657 C 0.80477 0.74141 0.06813 0.0
C658 C 0.80854 0.75016 0.10193 0.0
H659 H 0.82976 0.90104 0.16179 0.0
H660 H 0.85426 0.84211 0.14382 0.0
H661 H 0.80306 0.86967 0.12417 0.0
H662 H 0.70219 0.76663 0.10757 0.0
H663 H 0.69536 0.75144 0.04843 0.0
H664 H 0.13668 0.14795 0.44908 0.0
H665 H 0.12616 0.1537 0.38919 0.0
H666 H 0.26393 0.15521 0.39167 0.0
H667 H 0.27478 0.14786 0.45122 0.0
H668 H 0.14965 0.2403 0.35328 0.0
H669 H 0.22903 0.04234 0.31983 0.0
H670 H 0.21628 0.05354 0.36043 0.0
H671 H 0.26448 0.08386 0.34884 0.0
C672 C 0.16477 0.14813 0.43686 0.0
C673 C 0.2066 0.14729 0.45508 0.0
C674 C 0.15868 0.15168 0.40259 0.0
C675 C 0.19422 0.15435 0.38583 0.0
C676 C 0.23596 0.1518 0.4039 0.0
H677 H 0.22104 0.30891 0.20055 0.0
H678 H 0.2097 0.29152 0.25722 0.0
C679 C 0.2421 0.1478 0.43809 0.0
C680 C 0.18791 0.16441 0.3498 0.0
H681 H 0.21859 0.11687 0.27893 0.0
C682 C 0.1642 0.21282 0.33694 0.0
C683 C 0.20651 0.12837 0.32834 0.0
C684 C 0.2301 0.07382 0.34004 0.0
C685 C 0.15986 0.22721 0.30348 0.0
C686 C 0.18048 0.1929 0.28242 0.0
C687 C 0.20297 0.14348 0.29508 0.0
C688 C 0.18054 0.20797 0.24741 0.0
C689 C 0.1332 0.27895 0.29106 0.0
C690 C 0.16745 0.1673 0.22294 0.0
C691 C 0.17415 0.17718 0.19074 0.0
C692 C 0.19369 0.22807 0.18239 0.0
C693 C 0.20472 0.27015 0.20633 0.0
C694 C 0.19832 0.26009 0.23869 0.0
H695 H 0.10906 0.28923 0.30717 0.0
H696 H 0.1547 0.31662 0.29085 0.0
H697 H 0.11608 0.27222 0.26574 0.0
H698 H 0.15389 0.12671 0.22908 0.0
H699 H 0.16623 0.1437 0.17274 0.0
loop_
_geom_bond_atom_site_label_1
_geom_bond_atom_site_label_2
_geom_bond_distance
_geom_bond_site_symmetry_2
_ccdc_geom_bond_type
C0 O27 1.312 . S
C0 O28 1.208 . S
C1 O22 1.331 . S
C1 O25 1.244 . S
C2 O24 1.264 . S
C2 O26 1.273 . S
Mg3 O5 1.936 . S
Mg3 O12 2.081 1_545 S
Mg3 O14 2.023 1_545 S
Mg3 O18 2.031 . S
Mg3 O27 2.291 . S
Mg4 O5 1.963 1_565 S
Mg4 O15 1.942 . S
Mg4 O16 1.955 . S
Mg4 O23 1.986 1_565 S
O5 Mg3 1.936 . S
O5 Mg4 1.963 1_545 S
O5 Mg6 1.915 . S
Mg6 O5 1.915 . S
Mg6 O7 1.915 . S
Mg6 O11 2.013 . S
Mg6 O17 2.114 . S
Mg6 O21 2.013 . S
Mg6 O27 2.114 . S
O7 Mg6 1.915 . S
O7 Mg8 1.936 . S
O7 Mg9 1.963 . S
Mg8 O7 1.936 . S
Mg8 O17 2.291 . S
Mg8 O22 2.081 . S
Mg8 O24 2.023 . S
Mg8 O28 2.031 . S
Mg9 O7 1.963 . S
Mg9 O13 1.986 . S
Mg9 O25 1.942 . S
Mg9 O26 1.955 . S
C10 O21 1.191 . S
C10 O23 1.307 . S
O11 Mg6 2.013 . S
O11 C30 1.191 . S
O12 Mg3 2.081 1_565 S
O12 C20 1.331 . S
O13 Mg9 1.986 . S
O13 C30 1.307 . S
O14 Mg3 2.023 1_565 S
O14 C29 1.264 . S
O15 Mg4 1.942 . S
O15 C20 1.244 . S
O16 Mg4 1.955 . S
O16 C29 1.273 . S
O17 Mg6 2.114 . S
O17 Mg8 2.291 . S
O17 C19 1.312 . S
O18 Mg3 2.031 . S
O18 C19 1.208 . S
C19 O17 1.312 . S
C19 O18 1.208 . S
C20 O12 1.331 . S
C20 O15 1.244 . S
O21 Mg6 2.013 . S
O21 C10 1.191 . S
O22 C1 1.331 . S
O22 Mg8 2.081 . S
O23 Mg4 1.986 1_545 S
O23 C10 1.307 . S
O24 C2 1.264 . S
O24 Mg8 2.023 . S
O25 C1 1.244 . S
O25 Mg9 1.942 . S
O26 C2 1.273 . S
O26 Mg9 1.955 . S
O27 C0 1.312 . S
O27 Mg3 2.291 . S
O27 Mg6 2.114 . S
O28 C0 1.208 . S
O28 Mg8 2.031 . S
C29 O14 1.264 . S
C29 O16 1.273 . S
C30 O11 1.191 . S
C30 O13 1.307 . S
C31 O58 1.312 . S
C31 O59 1.208 . S
C32 O53 1.331 . S
C32 O56 1.244 . S
C33 O55 1.264 . S
C33 O57 1.273 . S
Mg34 O36 1.936 . S
Mg34 O43 2.081 . S
Mg34 O45 2.023 . S
Mg34 O49 2.031 . S
Mg34 O58 2.291 . S
Mg35 O36 1.963 . S
Mg35 O46 1.942 . S
Mg35 O47 1.955 . S
Mg35 O54 1.986 . S
O36 Mg34 1.936 . S
O36 Mg35 1.963 . S
O36 Mg37 1.915 . S
Mg37 O36 1.915 . S
Mg37 O38 1.915 . S
Mg37 O42 2.013 . S
Mg37 O48 2.114 . S
Mg37 O52 2.013 . S
Mg37 O58 2.114 . S
O38 Mg37 1.915 . S
O38 Mg39 1.936 . S
O38 Mg40 1.963 . S
Mg39 O38 1.936 . S
Mg39 O48 2.291 . S
Mg39 O53 2.081 . S
Mg39 O55 2.023 . S
Mg39 O59 2.031 . S
Mg40 O38 1.963 . S
Mg40 O44 1.986 . S
Mg40 O56 1.942 . S
Mg40 O57 1.955 . S
C41 O52 1.191 . S
C41 O54 1.307 . S
O42 Mg37 2.013 . S
O42 C61 1.191 . S
O43 Mg34 2.081 . S
O43 C51 1.331 . S
O44 Mg40 1.986 . S
O44 C61 1.307 . S
O45 Mg34 2.023 . S
O45 C60 1.264 . S
O46 Mg35 1.942 . S
O46 C51 1.244 . S
O47 Mg35 1.955 . S
O47 C60 1.273 . S
O48 Mg37 2.114 . S
O48 Mg39 2.291 . S
O48 C50 1.312 . S
O49 Mg34 2.031 . S
O49 C50 1.208 . S
C50 O48 1.312 . S
C50 O49 1.208 . S
C51 O43 1.331 . S
C51 O46 1.244 . S
O52 Mg37 2.013 . S
O52 C41 1.191 . S
O53 C32 1.331 . S
O53 Mg39 2.081 . S
O54 Mg35 1.986 . S
O54 C41 1.307 . S
O55 C33 1.264 . S
O55 Mg39 2.023 . S
O56 C32 1.244 . S
O56 Mg40 1.942 . S
O57 C33 1.273 . S
O57 Mg40 1.955 . S
O58 C31 1.312 . S
O58 Mg34 2.291 . S
O58 Mg37 2.114 . S
O59 C31 1.208 . S
O59 Mg39 2.031 . S
C60 O45 1.264 . S
C60 O47 1.273 . S
C61 O42 1.191 . S
C61 O44 1.307 . S
C62 O89 1.312 . S
C62 O90 1.208 . S
C63 O84 1.331 . S
C63 O87 1.244 . S
C64 O86 1.264 . S
C64 O88 1.273 . S
Mg65 O67 1.936 . S
Mg65 O74 2.081 1_565 S
Mg65 O76 2.023 1_565 S
Mg65 O80 2.031 . S
Mg65 O89 2.291 . S
Mg66 O67 1.963 . S
Mg66 O77 1.942 1_565 S
Mg66 O78 1.955 1_565 S
Mg66 O85 1.986 . S
O67 Mg65 1.936 . S
O67 Mg66 1.963 . S
O67 Mg68 1.915 . S
Mg68 O67 1.915 . S
Mg68 O69 1.915 . S
Mg68 O73 2.013 . S
Mg68 O79 2.114 . S
Mg68 O83 2.013 . S
Mg68 O89 2.114 . S
O69 Mg68 1.915 . S
O69 Mg70 1.936 . S
O69 Mg71 1.963 . S
Mg70 O69 1.936 . S
Mg70 O79 2.291 . S
Mg70 O84 2.081 . S
Mg70 O86 2.023 . S
Mg70 O90 2.031 . S
Mg71 O69 1.963 . S
Mg71 O75 1.986 . S
Mg71 O87 1.942 . S
Mg71 O88 1.955 . S
C72 O83 1.191 . S
C72 O85 1.307 . S
O73 Mg68 2.013 . S
O73 C92 1.191 . S
O74 Mg65 2.081 1_545 S
O74 C82 1.331 . S
O75 Mg71 1.986 . S
O75 C92 1.307 . S
O76 Mg65 2.023 1_545 S
O76 C91 1.264 . S
O77 Mg66 1.942 1_545 S
O77 C82 1.244 . S
O78 Mg66 1.955 1_545 S
O78 C91 1.273 . S
O79 Mg68 2.114 . S
O79 Mg70 2.291 . S
O79 C81 1.312 . S
O80 Mg65 2.031 . S
O80 C81 1.208 . S
C81 O79 1.312 . S
C81 O80 1.208 . S
C82 O74 1.331 . S
C82 O77 1.244 . S
O83 Mg68 2.013 . S
O83 C72 1.191 . S
O84 C63 1.331 . S
O84 Mg70 2.081 . S
O85 Mg66 1.986 . S
O85 C72 1.307 . S
O86 C64 1.264 . S
O86 Mg70 2.023 . S
O87 C63 1.244 . S
O87 Mg71 1.942 . S
O88 C64 1.273 . S
O88 Mg71 1.955 . S
O89 C62 1.312 . S
O89 Mg65 2.291 . S
O89 Mg68 2.114 . S
O90 C62 1.208 . S
O90 Mg70 2.031 . S
C91 O76 1.264 . S
C91 O78 1.273 . S
C92 O73 1.191 . S
C92 O75 1.307 . S
C93 O120 1.312 . S
C93 O121 1.208 . S
C94 O115 1.331 . S
C94 O118 1.244 . S
C95 O117 1.264 . S
C95 O119 1.273 . S
Mg96 O98 1.936 . S
Mg96 O105 2.081 . S
Mg96 O107 2.023 . S
Mg96 O111 2.031 . S
Mg96 O120 2.291 . S
Mg97 O98 1.963 . S
Mg97 O108 1.942 . S
Mg97 O109 1.955 . S
Mg97 O116 1.986 . S
O98 Mg96 1.936 . S
O98 Mg97 1.963 . S
O98 Mg99 1.915 . S
Mg99 O98 1.915 . S
Mg99 O100 1.915 . S
Mg99 O104 2.013 . S
Mg99 O110 2.114 . S
Mg99 O114 2.013 . S
Mg99 O120 2.114 . S
O100 Mg99 1.915 . S
O100 Mg101 1.936 . S
O100 Mg102 1.963 . S
Mg101 O100 1.936 . S
Mg101 O110 2.291 . S
Mg101 O115 2.081 . S
Mg101 O117 2.023 . S
Mg101 O121 2.031 . S
Mg102 O100 1.963 . S
Mg102 O106 1.986 . S
Mg102 O118 1.942 . S
Mg102 O119 1.955 . S
C103 O114 1.191 . S
C103 O116 1.307 . S
O104 Mg99 2.013 . S
O104 C123 1.191 . S
O105 Mg96 2.081 . S
O105 C113 1.331 . S
O106 Mg102 1.986 . S
O106 C123 1.307 . S
O107 Mg96 2.023 . S
O107 C122 1.264 . S
O108 Mg97 1.942 . S
O108 C113 1.244 . S
O109 Mg97 1.955 . S
O109 C122 1.273 . S
O110 Mg99 2.114 . S
O110 Mg101 2.291 . S
O110 C112 1.312 . S
O111 Mg96 2.031 . S
O111 C112 1.208 . S
C112 O110 1.312 . S
C112 O111 1.208 . S
C113 O105 1.331 . S
C113 O108 1.244 . S
O114 Mg99 2.013 . S
O114 C103 1.191 . S
O115 C94 1.331 . S
O115 Mg101 2.081 . S
O116 Mg97 1.986 . S
O116 C103 1.307 . S
O117 C95 1.264 . S
O117 Mg101 2.023 . S
O118 C94 1.244 . S
O118 Mg102 1.942 . S
O119 C95 1.273 . S
O119 Mg102 1.955 . S
O120 C93 1.312 . S
O120 Mg96 2.291 . S
O120 Mg99 2.114 . S
O121 C93 1.208 . S
O121 Mg101 2.031 . S
C122 O107 1.264 . S
C122 O109 1.273 . S
C123 O104 1.191 . S
C123 O106 1.307 . S
H124 C132 0.929 . S
H125 C134 0.930 . S
H126 C136 0.930 . S
H127 C139 0.929 . S
H128 C142 0.930 . S
H129 C144 0.960 . S
H130 C144 0.960 . S
H131 C144 0.960 . S
C132 H124 0.929 . S
C132 C133 1.377 . S
C132 C134 1.384 . S
C133 C132 1.377 . S
C133 C139 1.390 . S
C134 H125 0.930 . S
C134 C132 1.384 . S
C134 C135 1.372 . S
C135 C134 1.372 . S
C135 C136 1.400 . S
C135 C140 1.490 . S
C136 H126 0.930 . S
C136 C135 1.400 . S
C136 C139 1.386 . S
H137 C153 0.930 . S
H138 C154 0.931 . S
C139 H127 0.929 . S
C139 C133 1.390 . S
C139 C136 1.386 . S
C140 C135 1.490 . S
C140 C142 1.395 . S
C140 C143 1.403 . S
H141 C147 0.930 . S
C142 H128 0.930 . S
C142 C140 1.395 . S
C142 C145 1.403 . S
C143 C140 1.403 . S
C143 C144 1.524 . S
C143 C147 1.400 . S
C144 H129 0.960 . S
C144 H130 0.960 . S
C144 H131 0.960 . S
C144 C143 1.524 . S
C145 C142 1.403 . S
C145 C146 1.392 . S
C145 C149 1.495 . S
C146 C145 1.392 . S
C146 C147 1.385 . S
C146 C148 1.478 . S
C147 H141 0.930 . S
C147 C143 1.400 . S
C147 C146 1.385 . S
C148 C146 1.478 . S
C148 C150 1.381 . S
C148 C154 1.383 . S
C149 C145 1.495 . S
C149 H155 0.959 . S
C149 H156 0.961 . S
C149 H157 0.960 . S
C150 C148 1.381 . S
C150 C151 1.394 . S
C150 H158 0.930 . S
C151 C150 1.394 . S
C151 C152 1.383 . S
C151 H159 0.929 . S
C152 C151 1.383 . S
C152 C153 1.377 . S
C153 H137 0.930 . S
C153 C152 1.377 . S
C153 C154 1.379 . S
C154 H138 0.931 . S
C154 C148 1.383 . S
C154 C153 1.379 . S
H155 C149 0.959 . S
H156 C149 0.961 . S
H157 C149 0.960 . S
H158 C150 0.930 . S
H159 C151 0.929 . S
H160 C168 0.929 . S
H161 C170 0.930 . S
H162 C172 0.930 . S
H163 C175 0.929 . S
H164 C178 0.930 . S
H165 C180 0.960 . S
H166 C180 0.960 . S
H167 C180 0.960 . S
C168 H160 0.929 . S
C168 C169 1.377 . S
C168 C170 1.384 . S
C169 C168 1.377 . S
C169 C175 1.390 . S
C170 H161 0.930 . S
C170 C168 1.384 . S
C170 C171 1.372 . S
C171 C170 1.372 . S
C171 C172 1.400 . S
C171 C176 1.490 1_565 S
C172 H162 0.930 . S
C172 C171 1.400 . S
C172 C175 1.386 . S
H173 C189 0.930 . S
H174 C190 0.931 . S
C175 H163 0.929 . S
C175 C169 1.390 . S
C175 C172 1.386 . S
C176 C171 1.490 1_545 S
C176 C178 1.395 . S
C176 C179 1.403 . S
H177 C183 0.930 . S
C178 H164 0.930 . S
C178 C176 1.395 . S
C178 C181 1.403 . S
C179 C176 1.403 . S
C179 C180 1.524 . S
C179 C183 1.400 . S
C180 H165 0.960 . S
C180 H166 0.960 . S
C180 H167 0.960 . S
C180 C179 1.524 . S
C181 C178 1.403 . S
C181 C182 1.392 . S
C181 C185 1.495 . S
C182 C181 1.392 . S
C182 C183 1.385 . S
C182 C184 1.478 . S
C183 H177 0.930 . S
C183 C179 1.400 . S
C183 C182 1.385 . S
C184 C182 1.478 . S
C184 C186 1.381 . S
C184 C190 1.383 . S
C185 C181 1.495 . S
C185 H191 0.959 . S
C185 H192 0.961 . S
C185 H193 0.960 . S
C186 C184 1.381 . S
C186 C187 1.394 . S
C186 H194 0.930 . S
C187 C186 1.394 . S
C187 C188 1.383 . S
C187 H195 0.929 . S
C188 C187 1.383 . S
C188 C189 1.377 . S
C189 H173 0.930 . S
C189 C188 1.377 . S
C189 C190 1.379 . S
C190 H174 0.931 . S
C190 C184 1.383 . S
C190 C189 1.379 . S
H191 C185 0.959 . S
H192 C185 0.961 . S
H193 C185 0.960 . S
H194 C186 0.930 . S
H195 C187 0.929 . S
H196 C204 0.929 . S
H197 C206 0.930 . S
H198 C208 0.930 . S
H199 C211 0.929 . S
H200 C214 0.930 . S
H201 C216 0.960 . S
H202 C216 0.960 . S
H203 C216 0.960 . S
C204 H196 0.929 . S
C204 C205 1.377 . S
C204 C206 1.384 . S
C205 C204 1.377 . S
C205 C211 1.390 . S
C206 H197 0.930 . S
C206 C204 1.384 . S
C206 C207 1.372 . S
C207 C206 1.372 . S
C207 C208 1.400 . S
C207 C212 1.490 . S
C208 H198 0.930 . S
C208 C207 1.400 . S
C208 C211 1.386 . S
H209 C225 0.930 . S
H210 C226 0.931 . S
C211 H199 0.929 . S
C211 C205 1.390 . S
C211 C208 1.386 . S
C212 C207 1.490 . S
C212 C214 1.395 . S
C212 C215 1.403 . S
H213 C219 0.930 . S
C214 H200 0.930 . S
C214 C212 1.395 . S
C214 C217 1.403 . S
C215 C212 1.403 . S
C215 C216 1.524 . S
C215 C219 1.400 . S
C216 H201 0.960 . S
C216 H202 0.960 . S
C216 H203 0.960 . S
C216 C215 1.524 . S
C217 C214 1.403 . S
C217 C218 1.392 . S
C217 C221 1.495 . S
C218 C217 1.392 . S
C218 C219 1.385 . S
C218 C220 1.478 . S
C219 H213 0.930 . S
C219 C215 1.400 . S
C219 C218 1.385 . S
C220 C218 1.478 . S
C220 C222 1.381 . S
C220 C226 1.383 . S
C221 C217 1.495 . S
C221 H227 0.959 . S
C221 H228 0.961 . S
C221 H229 0.960 . S
C222 C220 1.381 . S
C222 C223 1.394 . S
C222 H230 0.930 . S
C223 C222 1.394 . S
C223 C224 1.383 . S
C223 H231 0.929 . S
C224 C223 1.383 . S
C224 C225 1.377 . S
C225 H209 0.930 . S
C225 C224 1.377 . S
C225 C226 1.379 . S
C226 H210 0.931 . S
C226 C220 1.383 . S
C226 C225 1.379 . S
H227 C221 0.959 . S
H228 C221 0.961 . S
H229 C221 0.960 . S
H230 C222 0.930 . S
H231 C223 0.929 . S
H232 C240 0.929 . S
H233 C242 0.930 . S
H234 C244 0.930 . S
H235 C247 0.929 . S
H236 C250 0.930 . S
H237 C252 0.960 . S
H238 C252 0.960 . S
H239 C252 0.960 . S
C240 H232 0.929 . S
C240 C241 1.377 . S
C240 C242 1.384 . S
C241 C240 1.377 . S
C241 C247 1.390 . S
C242 H233 0.930 . S
C242 C240 1.384 . S
C242 C243 1.372 . S
C243 C242 1.372 . S
C243 C244 1.400 . S
C243 C248 1.490 1_545 S
C244 H234 0.930 . S
C244 C243 1.400 . S
C244 C247 1.386 . S
H245 C261 0.930 . S
H246 C262 0.931 . S
C247 H235 0.929 . S
C247 C241 1.390 . S
C247 C244 1.386 . S
C248 C243 1.490 1_565 S
C248 C250 1.395 . S
C248 C251 1.403 . S
H249 C255 0.930 . S
C250 H236 0.930 . S
C250 C248 1.395 . S
C250 C253 1.403 . S
C251 C248 1.403 . S
C251 C252 1.524 . S
C251 C255 1.400 . S
C252 H237 0.960 . S
C252 H238 0.960 . S
C252 H239 0.960 . S
C252 C251 1.524 . S
C253 C250 1.403 . S
C253 C254 1.392 . S
C253 C257 1.495 . S
C254 C253 1.392 . S
C254 C255 1.385 . S
C254 C256 1.478 . S
C255 H249 0.930 . S
C255 C251 1.400 . S
C255 C254 1.385 . S
C256 C254 1.478 . S
C256 C258 1.381 . S
C256 C262 1.383 . S
C257 C253 1.495 . S
C257 H263 0.959 . S
C257 H264 0.961 . S
C257 H265 0.960 . S
C258 C256 1.381 . S
C258 C259 1.394 . S
C258 H266 0.930 . S
C259 C258 1.394 . S
C259 C260 1.383 . S
C259 H267 0.929 . S
C260 C259 1.383 . S
C260 C261 1.377 . S
C261 H245 0.930 . S
C261 C260 1.377 . S
C261 C262 1.379 . S
C262 H246 0.931 . S
C262 C256 1.383 . S
C262 C261 1.379 . S
H263 C257 0.959 . S
H264 C257 0.961 . S
H265 C257 0.960 . S
H266 C258 0.930 . S
H267 C259 0.929 . S
H268 C276 0.929 . S
H269 C278 0.930 . S
H270 C280 0.930 . S
H271 C283 0.929 . S
H272 C286 0.930 . S
H273 C288 0.960 . S
H274 C288 0.960 . S
H275 C288 0.960 . S
C276 H268 0.929 . S
C276 C277 1.377 . S
C276 C278 1.384 . S
C277 C276 1.377 . S
C277 C283 1.390 . S
C278 H269 0.930 . S
C278 C276 1.384 . S
C278 C279 1.372 . S
C279 C278 1.372 . S
C279 C280 1.400 . S
C279 C284 1.490 . S
C280 H270 0.930 . S
C280 C279 1.400 . S
C280 C283 1.386 . S
H281 C297 0.930 . S
H282 C298 0.931 . S
C283 H271 0.929 . S
C283 C277 1.390 . S
C283 C280 1.386 . S
C284 C279 1.490 . S
C284 C286 1.395 . S
C284 C287 1.403 . S
H285 C291 0.930 . S
C286 H272 0.930 . S
C286 C284 1.395 . S
C286 C289 1.403 . S
C287 C284 1.403 . S
C287 C288 1.524 . S
C287 C291 1.400 . S
C288 H273 0.960 . S
C288 H274 0.960 . S
C288 H275 0.960 . S
C288 C287 1.524 . S
C289 C286 1.403 . S
C289 C290 1.392 . S
C289 C293 1.495 . S
C290 C289 1.392 . S
C290 C291 1.385 . S
C290 C292 1.478 . S
C291 H285 0.930 . S
C291 C287 1.400 . S
C291 C290 1.385 . S
C292 C290 1.478 . S
C292 C294 1.381 . S
C292 C298 1.383 . S
C293 C289 1.495 . S
C293 H299 0.959 . S
C293 H300 0.961 . S
C293 H301 0.960 . S
C294 C292 1.381 . S
C294 C295 1.394 1_565 S
C294 H302 0.930 . S
C295 C294 1.394 1_545 S
C295 C296 1.383 1_545 S
C295 H303 0.929 . S
C296 C295 1.383 1_565 S
C296 C297 1.377 . S
C297 H281 0.930 . S
C297 C296 1.377 . S
C297 C298 1.379 . S
C298 H282 0.931 . S
C298 C292 1.383 . S
C298 C297 1.379 . S
H299 C293 0.959 . S
H300 C293 0.961 . S
H301 C293 0.960 . S
H302 C294 0.930 . S
H303 C295 0.929 . S
H304 C312 0.929 . S
H305 C314 0.930 . S
H306 C316 0.930 . S
H307 C319 0.929 . S
H308 C322 0.930 . S
H309 C324 0.960 . S
H310 C324 0.960 . S
H311 C324 0.960 . S
C312 H304 0.929 . S
C312 C313 1.377 . S
C312 C314 1.384 . S
C313 C312 1.377 . S
C313 C319 1.390 . S
C314 H305 0.930 . S
C314 C312 1.384 . S
C314 C315 1.372 . S
C315 C314 1.372 . S
C315 C316 1.400 . S
C315 C320 1.490 . S
C316 H306 0.930 . S
C316 C315 1.400 . S
C316 C319 1.386 . S
H317 C333 0.930 . S
H318 C334 0.931 . S
C319 H307 0.929 . S
C319 C313 1.390 . S
C319 C316 1.386 . S
C320 C315 1.490 . S
C320 C322 1.395 . S
C320 C323 1.403 . S
H321 C327 0.930 . S
C322 H308 0.930 . S
C322 C320 1.395 . S
C322 C325 1.403 . S
C323 C320 1.403 . S
C323 C324 1.524 . S
C323 C327 1.400 . S
C324 H309 0.960 . S
C324 H310 0.960 . S
C324 H311 0.960 . S
C324 C323 1.524 . S
C325 C322 1.403 . S
C325 C326 1.392 . S
C325 C329 1.495 . S
C326 C325 1.392 . S
C326 C327 1.385 . S
C326 C328 1.478 . S
C327 H321 0.930 . S
C327 C323 1.400 . S
C327 C326 1.385 . S
C328 C326 1.478 . S
C328 C330 1.381 . S
C328 C334 1.383 . S
C329 C325 1.495 . S
C329 H335 0.959 . S
C329 H336 0.961 . S
C329 H337 0.960 . S
C330 C328 1.381 . S
C330 C331 1.394 . S
C330 H338 0.930 . S
C331 C330 1.394 . S
C331 C332 1.383 . S
C331 H339 0.929 . S
C332 C331 1.383 . S
C332 C333 1.377 . S
C333 H317 0.930 . S
C333 C332 1.377 . S
C333 C334 1.379 . S
C334 H318 0.931 . S
C334 C328 1.383 . S
C334 C333 1.379 . S
H335 C329 0.959 . S
H336 C329 0.961 . S
H337 C329 0.960 . S
H338 C330 0.930 . S
H339 C331 0.929 . S
H340 C348 0.929 . S
H341 C350 0.930 . S
H342 C352 0.930 . S
H343 C355 0.929 . S
H344 C358 0.930 . S
H345 C360 0.960 . S
H346 C360 0.960 . S
H347 C360 0.960 . S
C348 H340 0.929 . S
C348 C349 1.377 . S
C348 C350 1.384 . S
C349 C348 1.377 . S
C349 C355 1.390 . S
C350 H341 0.930 . S
C350 C348 1.384 . S
C350 C351 1.372 . S
C351 C350 1.372 . S
C351 C352 1.400 . S
C351 C356 1.490 . S
C352 H342 0.930 . S
C352 C351 1.400 . S
C352 C355 1.386 . S
H353 C369 0.930 . S
H354 C370 0.931 . S
C355 H343 0.929 . S
C355 C349 1.390 . S
C355 C352 1.386 . S
C356 C351 1.490 . S
C356 C358 1.395 . S
C356 C359 1.403 . S
H357 C363 0.930 . S
C358 H344 0.930 . S
C358 C356 1.395 . S
C358 C361 1.403 . S
C359 C356 1.403 . S
C359 C360 1.524 . S
C359 C363 1.400 . S
C360 H345 0.960 . S
C360 H346 0.960 . S
C360 H347 0.960 . S
C360 C359 1.524 . S
C361 C358 1.403 . S
C361 C362 1.392 . S
C361 C365 1.495 . S
C362 C361 1.392 . S
C362 C363 1.385 . S
C362 C364 1.478 . S
C363 H357 0.930 . S
C363 C359 1.400 . S
C363 C362 1.385 . S
C364 C362 1.478 . S
C364 C366 1.381 . S
C364 C370 1.383 . S
C365 C361 1.495 . S
C365 H371 0.959 . S
C365 H372 0.961 . S
C365 H373 0.960 . S
C366 C364 1.381 . S
C366 C367 1.394 . S
C366 H374 0.930 . S
C367 C366 1.394 . S
C367 C368 1.383 . S
C367 H375 0.929 . S
C368 C367 1.383 . S
C368 C369 1.377 . S
C369 H353 0.930 . S
C369 C368 1.377 . S
C369 C370 1.379 . S
C370 H354 0.931 . S
C370 C364 1.383 . S
C370 C369 1.379 . S
H371 C365 0.959 . S
H372 C365 0.961 . S
H373 C365 0.960 . S
H374 C366 0.930 . S
H375 C367 0.929 . S
H376 C384 0.929 . S
H377 C386 0.930 . S
H378 C388 0.930 . S
H379 C391 0.929 . S
H380 C394 0.930 . S
H381 C396 0.960 . S
H382 C396 0.960 . S
H383 C396 0.960 . S
C384 H376 0.929 . S
C384 C385 1.377 . S
C384 C386 1.384 . S
C385 C384 1.377 . S
C385 C391 1.390 . S
C386 H377 0.930 . S
C386 C384 1.384 . S
C386 C387 1.372 . S
C387 C386 1.372 . S
C387 C388 1.400 . S
C387 C392 1.490 . S
C388 H378 0.930 . S
C388 C387 1.400 . S
C388 C391 1.386 . S
H389 C405 0.930 . S
H390 C406 0.931 . S
C391 H379 0.929 . S
C391 C385 1.390 . S
C391 C388 1.386 . S
C392 C387 1.490 . S
C392 C394 1.395 . S
C392 C395 1.403 . S
H393 C399 0.930 . S
C394 H380 0.930 . S
C394 C392 1.395 . S
C394 C397 1.403 . S
C395 C392 1.403 . S
C395 C396 1.524 . S
C395 C399 1.400 . S
C396 H381 0.960 . S
C396 H382 0.960 . S
C396 H383 0.960 . S
C396 C395 1.524 . S
C397 C394 1.403 . S
C397 C398 1.392 . S
C397 C401 1.495 . S
C398 C397 1.392 . S
C398 C399 1.385 . S
C398 C400 1.478 . S
C399 H393 0.930 . S
C399 C395 1.400 . S
C399 C398 1.385 . S
C400 C398 1.478 . S
C400 C402 1.381 . S
C400 C406 1.383 . S
C401 C397 1.495 . S
C401 H407 0.959 . S
C401 H408 0.961 . S
C401 H409 0.960 . S
C402 C400 1.381 . S
C402 C403 1.394 . S
C402 H410 0.930 . S
C403 C402 1.394 . S
C403 C404 1.383 . S
C403 H411 0.929 . S
C404 C403 1.383 . S
C404 C405 1.377 . S
C405 H389 0.930 . S
C405 C404 1.377 . S
C405 C406 1.379 . S
C406 H390 0.931 . S
C406 C400 1.383 . S
C406 C405 1.379 . S
H407 C401 0.959 . S
H408 C401 0.961 . S
H409 C401 0.960 . S
H410 C402 0.930 . S
H411 C403 0.929 . S
H412 C420 0.929 . S
H413 C422 0.930 . S
H414 C424 0.930 . S
H415 C427 0.929 . S
H416 C430 0.930 . S
H417 C432 0.960 . S
H418 C432 0.960 . S
H419 C432 0.960 . S
C420 H412 0.929 . S
C420 C421 1.377 1_565 S
C420 C422 1.384 . S
C421 C420 1.377 1_545 S
C421 C427 1.390 . S
C422 H413 0.930 . S
C422 C420 1.384 . S
C422 C423 1.372 1_565 S
C423 C422 1.372 1_545 S
C423 C424 1.400 . S
C423 C428 1.490 . S
C424 H414 0.930 . S
C424 C423 1.400 . S
C424 C427 1.386 . S
H425 C441 0.930 . S
H426 C442 0.931 . S
C427 H415 0.929 . S
C427 C421 1.390 . S
C427 C424 1.386 . S
C428 C423 1.490 . S
C428 C430 1.395 1_545 S
C428 C431 1.403 1_554 S
H429 C435 0.930 . S
C430 H416 0.930 . S
C430 C428 1.395 1_565 S
C430 C433 1.403 1_455 S
C431 C428 1.403 1_556 S
C431 C432 1.524 . S
C431 C435 1.400 1_455 S
C432 H417 0.960 . S
C432 H418 0.960 . S
C432 H419 0.960 . S
C432 C431 1.524 . S
C433 C430 1.403 1_655 S
C433 C434 1.392 1_554 S
C433 C437 1.495 . S
C434 C433 1.392 1_556 S
C434 C435 1.385 1_565 S
C434 C436 1.478 . S
C435 H429 0.930 . S
C435 C431 1.400 1_655 S
C435 C434 1.385 1_545 S
C436 C434 1.478 . S
C436 C438 1.381 . S
C436 C442 1.383 1_565 S
C437 C433 1.495 . S
C437 H443 0.959 . S
C437 H444 0.961 . S
C437 H445 0.960 . S
C438 C436 1.381 . S
C438 C439 1.394 . S
C438 H446 0.930 . S
C439 C438 1.394 . S
C439 C440 1.383 . S
C439 H447 0.929 . S
C440 C439 1.383 . S
C440 C441 1.377 1_565 S
C441 H425 0.930 . S
C441 C440 1.377 1_545 S
C441 C442 1.379 . S
C442 H426 0.931 . S
C442 C436 1.383 1_545 S
C442 C441 1.379 . S
H443 C437 0.959 . S
H444 C437 0.961 . S
H445 C437 0.960 . S
H446 C438 0.930 . S
H447 C439 0.929 . S
H448 C456 0.929 . S
H449 C458 0.930 . S
H450 C460 0.930 . S
H451 C463 0.929 . S
H452 C466 0.930 . S
H453 C468 0.960 1_655 S
H454 C468 0.960 . S
H455 C468 0.960 . S
C456 H448 0.929 . S
C456 C457 1.377 . S
C456 C458 1.384 . S
C457 C456 1.377 . S
C457 C463 1.390 . S
C458 H449 0.930 . S
C458 C456 1.384 . S
C458 C459 1.372 . S
C459 C458 1.372 . S
C459 C460 1.400 . S
C459 C464 1.490 . S
C460 H450 0.930 . S
C460 C459 1.400 . S
C460 C463 1.386 . S
H461 C477 0.930 . S
H462 C478 0.931 . S
C463 H451 0.929 . S
C463 C457 1.390 . S
C463 C460 1.386 . S
C464 C459 1.490 . S
C464 C466 1.395 . S
C464 C467 1.403 . S
H465 C471 0.930 . S
C466 H452 0.930 . S
C466 C464 1.395 . S
C466 C469 1.403 1_455 S
C467 C464 1.403 . S
C467 C468 1.524 . S
C467 C471 1.400 1_455 S
C468 H453 0.960 1_455 S
C468 H454 0.960 . S
C468 H455 0.960 . S
C468 C467 1.524 . S
C469 C466 1.403 1_655 S
C469 C470 1.392 . S
C469 C473 1.495 . S
C470 C469 1.392 . S
C470 C471 1.385 . S
C470 C472 1.478 . S
C471 H465 0.930 . S
C471 C467 1.400 1_655 S
C471 C470 1.385 . S
C472 C470 1.478 . S
C472 C474 1.381 . S
C472 C478 1.383 . S
C473 C469 1.495 . S
C473 H479 0.959 1_655 S
C473 H480 0.961 . S
C473 H481 0.960 . S
C474 C472 1.381 . S
C474 C475 1.394 . S
C474 H482 0.930 . S
C475 C474 1.394 . S
C475 C476 1.383 . S
C475 H483 0.929 . S
C476 C475 1.383 . S
C476 C477 1.377 . S
C477 H461 0.930 . S
C477 C476 1.377 . S
C477 C478 1.379 . S
C478 H462 0.931 . S
C478 C472 1.383 . S
C478 C477 1.379 . S
H479 C473 0.959 1_455 S
H480 C473 0.961 . S
H481 C473 0.960 . S
H482 C474 0.930 . S
H483 C475 0.929 . S
H484 C492 0.929 . S
H485 C494 0.930 . S
H486 C496 0.930 . S
H487 C499 0.929 . S
H488 C502 0.930 . S
H489 C504 0.960 . S
H490 C504 0.960 1_565 S
H491 C504 0.960 . S
C492 H484 0.929 . S
C492 C493 1.377 1_565 S
C492 C494 1.384 . S
C493 C492 1.377 1_545 S
C493 C499 1.390 . S
C494 H485 0.930 . S
C494 C492 1.384 . S
C494 C495 1.372 1_565 S
C495 C494 1.372 1_545 S
C495 C496 1.400 . S
C495 C500 1.490 . S
C496 H486 0.930 . S
C496 C495 1.400 . S
C496 C499 1.386 . S
H497 C513 0.930 1_545 S
H498 C514 0.931 . S
C499 H487 0.929 . S
C499 C493 1.390 . S
C499 C496 1.386 . S
C500 C495 1.490 . S
C500 C502 1.395 1_544 S
C500 C503 1.403 . S
H501 C507 0.930 . S
C502 H488 0.930 . S
C502 C500 1.395 1_566 S
C502 C505 1.403 . S
C503 C500 1.403 . S
C503 C504 1.524 . S
C503 C507 1.400 1_545 S
C504 H489 0.960 . S
C504 H490 0.960 1_545 S
C504 H491 0.960 . S
C504 C503 1.524 . S
C505 C502 1.403 . S
C505 C506 1.392 . S
C505 C509 1.495 . S
C506 C505 1.392 . S
C506 C507 1.385 1_556 S
C506 C508 1.478 . S
C507 H501 0.930 . S
C507 C503 1.400 1_565 S
C507 C506 1.385 1_554 S
C508 C506 1.478 . S
C508 C510 1.381 . S
C508 C514 1.383 1_565 S
C509 C505 1.495 . S
C509 H515 0.959 . S
C509 H516 0.956 1_565 S
C509 H517 0.960 . S
C510 C508 1.381 . S
C510 C511 1.394 . S
C510 H518 0.930 . S
C511 C510 1.394 . S
C511 C512 1.383 . S
C511 H519 0.929 . S
C512 C511 1.383 . S
C512 C513 1.377 . S
C513 H497 0.930 1_565 S
C513 C512 1.377 . S
C513 C514 1.379 1_565 S
C514 H498 0.931 . S
C514 C508 1.383 1_545 S
C514 C513 1.379 1_545 S
H515 C509 0.959 . S
H516 C509 0.956 1_545 S
H517 C509 0.960 . S
H518 C510 0.930 . S
H519 C511 0.929 . S
H520 C528 0.929 . S
H521 C530 0.930 . S
H522 C532 0.930 . S
H523 C535 0.929 . S
H524 C538 0.930 . S
H525 C540 0.960 . S
H526 C540 0.960 . S
H527 C540 0.960 . S
C528 H520 0.929 . S
C528 C529 1.377 . S
C528 C530 1.384 . S
C529 C528 1.377 . S
C529 C535 1.390 . S
C530 H521 0.930 . S
C530 C528 1.384 . S
C530 C531 1.372 . S
C531 C530 1.372 . S
C531 C532 1.400 . S
C531 C536 1.490 . S
C532 H522 0.930 . S
C532 C531 1.400 . S
C532 C535 1.386 . S
H533 C549 0.930 . S
H534 C550 0.931 . S
C535 H523 0.929 . S
C535 C529 1.390 . S
C535 C532 1.386 . S
C536 C531 1.490 . S
C536 C538 1.395 . S
C536 C539 1.403 . S
H537 C543 0.930 . S
C538 H524 0.930 . S
C538 C536 1.395 . S
C538 C541 1.403 . S
C539 C536 1.403 . S
C539 C540 1.524 . S
C539 C543 1.400 . S
C540 H525 0.960 . S
C540 H526 0.960 . S
C540 H527 0.960 . S
C540 C539 1.524 . S
C541 C538 1.403 . S
C541 C542 1.392 . S
C541 C545 1.495 . S
C542 C541 1.392 . S
C542 C543 1.385 . S
C542 C544 1.478 . S
C543 H537 0.930 . S
C543 C539 1.400 . S
C543 C542 1.385 . S
C544 C542 1.478 . S
C544 C546 1.381 . S
C544 C550 1.383 . S
C545 C541 1.495 . S
C545 H551 0.959 . S
C545 H552 0.961 . S
C545 H553 0.960 . S
C546 C544 1.381 . S
C546 C547 1.394 . S
C546 H554 0.930 . S
C547 C546 1.394 . S
C547 C548 1.383 . S
C547 H555 0.929 . S
C548 C547 1.383 . S
C548 C549 1.377 . S
C549 H533 0.930 . S
C549 C548 1.377 . S
C549 C550 1.379 . S
C550 H534 0.931 . S
C550 C544 1.383 . S
C550 C549 1.379 . S
H551 C545 0.959 . S
H552 C545 0.961 . S
H553 C545 0.960 . S
H554 C546 0.930 . S
H555 C547 0.929 . S
H556 C564 0.929 . S
H557 C566 0.930 . S
H558 C568 0.930 . S
H559 C571 0.929 . S
H560 C574 0.930 . S
H561 C576 0.960 . S
H562 C576 0.960 . S
H563 C576 0.960 . S
C564 H556 0.929 . S
C564 C565 1.377 . S
C564 C566 1.384 . S
C565 C564 1.377 . S
C565 C571 1.390 . S
C566 H557 0.930 . S
C566 C564 1.384 . S
C566 C567 1.372 . S
C567 C566 1.372 . S
C567 C568 1.400 . S
C567 C572 1.490 . S
C568 H558 0.930 . S
C568 C567 1.400 . S
C568 C571 1.386 . S
H569 C585 0.930 . S
H570 C586 0.931 . S
C571 H559 0.929 . S
C571 C565 1.390 . S
C571 C568 1.386 . S
C572 C567 1.490 . S
C572 C574 1.395 . S
C572 C575 1.403 . S
H573 C579 0.930 . S
C574 H560 0.930 . S
C574 C572 1.395 . S
C574 C577 1.403 . S
C575 C572 1.403 . S
C575 C576 1.524 . S
C575 C579 1.400 . S
C576 H561 0.960 . S
C576 H562 0.960 . S
C576 H563 0.960 . S
C576 C575 1.524 . S
C577 C574 1.403 . S
C577 C578 1.392 . S
C577 C581 1.495 . S
C578 C577 1.392 . S
C578 C579 1.385 . S
C578 C580 1.478 . S
C579 H573 0.930 . S
C579 C575 1.400 . S
C579 C578 1.385 . S
C580 C578 1.478 . S
C580 C582 1.381 . S
C580 C586 1.383 . S
C581 C577 1.495 . S
C581 H587 0.959 . S
C581 H588 0.961 . S
C581 H589 0.960 . S
C582 C580 1.381 . S
C582 C583 1.394 . S
C582 H590 0.930 . S
C583 C582 1.394 . S
C583 C584 1.383 . S
C583 H591 0.929 . S
C584 C583 1.383 . S
C584 C585 1.377 . S
C585 H569 0.930 . S
C585 C584 1.377 . S
C585 C586 1.379 . S
C586 H570 0.931 . S
C586 C580 1.383 . S
C586 C585 1.379 . S
H587 C581 0.959 . S
H588 C581 0.961 . S
H589 C581 0.960 . S
H590 C582 0.930 . S
H591 C583 0.929 . S
H592 C600 0.929 . S
H593 C602 0.930 . S
H594 C604 0.930 . S
H595 C607 0.929 . S
H596 C610 0.930 . S
H597 C612 0.960 . S
H598 C612 0.960 . S
H599 C612 0.960 . S
C600 H592 0.929 . S
C600 C601 1.377 . S
C600 C602 1.384 . S
C601 C600 1.377 . S
C601 C607 1.390 . S
C602 H593 0.930 . S
C602 C600 1.384 . S
C602 C603 1.372 . S
C603 C602 1.372 . S
C603 C604 1.400 . S
C603 C608 1.490 . S
C604 H594 0.930 . S
C604 C603 1.400 . S
C604 C607 1.386 . S
H605 C621 0.930 . S
H606 C622 0.931 . S
C607 H595 0.929 . S
C607 C601 1.390 . S
C607 C604 1.386 . S
C608 C603 1.490 . S
C608 C610 1.395 . S
C608 C611 1.403 . S
H609 C615 0.930 . S
C610 H596 0.930 . S
C610 C608 1.395 . S
C610 C613 1.403 . S
C611 C608 1.403 . S
C611 C612 1.524 . S
C611 C615 1.400 . S
C612 H597 0.960 . S
C612 H598 0.960 . S
C612 H599 0.960 . S
C612 C611 1.524 . S
C613 C610 1.403 . S
C613 C614 1.392 . S
C613 C617 1.495 . S
C614 C613 1.392 . S
C614 C615 1.385 . S
C614 C616 1.478 . S
C615 H609 0.930 . S
C615 C611 1.400 . S
C615 C614 1.385 . S
C616 C614 1.478 . S
C616 C618 1.381 . S
C616 C622 1.383 . S
C617 C613 1.495 . S
C617 H623 0.959 . S
C617 H624 0.961 . S
C617 H625 0.960 . S
C618 C616 1.381 . S
C618 C619 1.394 . S
C618 H626 0.930 . S
C619 C618 1.394 . S
C619 C620 1.383 . S
C619 H627 0.929 . S
C620 C619 1.383 . S
C620 C621 1.377 . S
C621 H605 0.930 . S
C621 C620 1.377 . S
C621 C622 1.379 . S
C622 H606 0.931 . S
C622 C616 1.383 . S
C622 C621 1.379 . S
H623 C617 0.959 . S
H624 C617 0.961 . S
H625 C617 0.960 . S
H626 C618 0.930 . S
H627 C619 0.929 . S
H628 C636 0.929 . S
H629 C638 0.930 . S
H630 C640 0.930 . S
H631 C643 0.929 . S
H632 C646 0.930 . S
H633 C648 0.960 . S
H634 C648 0.960 . S
H635 C648 0.960 . S
C636 H628 0.929 . S
C636 C637 1.377 . S
C636 C638 1.384 . S
C637 C636 1.377 . S
C637 C643 1.390 . S
C638 H629 0.930 . S
C638 C636 1.384 . S
C638 C639 1.372 . S
C639 C638 1.372 . S
C639 C640 1.400 . S
C639 C644 1.490 . S
C640 H630 0.930 . S
C640 C639 1.400 . S
C640 C643 1.386 . S
H641 C657 0.930 . S
H642 C658 0.931 . S
C643 H631 0.929 . S
C643 C637 1.390 . S
C643 C640 1.386 . S
C644 C639 1.490 . S
C644 C646 1.395 . S
C644 C647 1.403 . S
H645 C651 0.930 . S
C646 H632 0.930 . S
C646 C644 1.395 . S
C646 C649 1.403 . S
C647 C644 1.403 . S
C647 C648 1.524 . S
C647 C651 1.400 . S
C648 H633 0.960 . S
C648 H634 0.960 . S
C648 H635 0.960 . S
C648 C647 1.524 . S
C649 C646 1.403 . S
C649 C650 1.392 . S
C649 C653 1.495 . S
C650 C649 1.392 . S
C650 C651 1.385 . S
C650 C652 1.478 . S
C651 H645 0.930 . S
C651 C647 1.400 . S
C651 C650 1.385 . S
C652 C650 1.478 . S
C652 C654 1.381 . S
C652 C658 1.383 . S
C653 C649 1.495 . S
C653 H659 0.959 . S
C653 H660 0.961 . S
C653 H661 0.960 . S
C654 C652 1.381 . S
C654 C655 1.394 . S
C654 H662 0.930 . S
C655 C654 1.394 . S
C655 C656 1.383 . S
C655 H663 0.929 . S
C656 C655 1.383 . S
C656 C657 1.377 . S
C657 H641 0.930 . S
C657 C656 1.377 . S
C657 C658 1.379 . S
C658 H642 0.931 . S
C658 C652 1.383 . S
C658 C657 1.379 . S
H659 C653 0.959 . S
H660 C653 0.961 . S
H661 C653 0.960 . S
H662 C654 0.930 . S
H663 C655 0.929 . S
H664 C672 0.929 . S
H665 C674 0.930 . S
H666 C676 0.930 . S
H667 C679 0.929 . S
H668 C682 0.930 . S
H669 C684 0.960 . S
H670 C684 0.960 . S
H671 C684 0.960 . S
C672 H664 0.929 . S
C672 C673 1.377 . S
C672 C674 1.384 . S
C673 C672 1.377 . S
C673 C679 1.390 . S
C674 H665 0.930 . S
C674 C672 1.384 . S
C674 C675 1.372 . S
C675 C674 1.372 . S
C675 C676 1.400 . S
C675 C680 1.490 . S
C676 H666 0.930 . S
C676 C675 1.400 . S
C676 C679 1.386 . S
H677 C693 0.930 . S
H678 C694 0.931 . S
C679 H667 0.929 . S
C679 C673 1.390 . S
C679 C676 1.386 . S
C680 C675 1.490 . S
C680 C682 1.395 . S
C680 C683 1.403 . S
H681 C687 0.930 . S
C682 H668 0.930 . S
C682 C680 1.395 . S
C682 C685 1.403 . S
C683 C680 1.403 . S
C683 C684 1.524 . S
C683 C687 1.400 . S
C684 H669 0.960 . S
C684 H670 0.960 . S
C684 H671 0.960 . S
C684 C683 1.524 . S
C685 C682 1.403 . S
C685 C686 1.392 . S
C685 C689 1.495 . S
C686 C685 1.392 . S
C686 C687 1.385 . S
C686 C688 1.478 . S
C687 H681 0.930 . S
C687 C683 1.400 . S
C687 C686 1.385 . S
C688 C686 1.478 . S
C688 C690 1.381 . S
C688 C694 1.383 . S
C689 C685 1.495 . S
C689 H695 0.959 . S
C689 H696 0.961 . S
C689 H697 0.960 . S
C690 C688 1.381 . S
C690 C691 1.394 . S
C690 H698 0.930 . S
C691 C690 1.394 . S
C691 C692 1.383 . S
C691 H699 0.929 . S
C692 C691 1.383 . S
C692 C693 1.377 . S
C693 H677 0.930 . S
C693 C692 1.377 . S
C693 C694 1.379 . S
C694 H678 0.931 . S
C694 C688 1.383 . S
C694 C693 1.379 . S
H695 C689 0.959 . S
H696 C689 0.961 . S
H697 C689 0.960 . S
H698 C690 0.930 . S
H699 C691 0.929 . S
C133 C1 1.153 . S
C152 C20 1.129 . S
C169 C33 1.678 . S
C188 C60 1.662 . S
C205 C64 1.682 . S
C224 C91 1.699 . S
C241 C122 1.684 . S
C260 C95 1.683 . S
C277 C50 0.956 . S
C296 C29 0.832 . S
C313 C51 0.726 . S
C332 C30 0.692 . S
C349 C93 0.784 . S
C368 C82 0.741 . S
C385 C81 0.812 . S
C404 C94 0.837 . S
C421 C19 1.135 . S
C440 C92 1.090 . S
C457 C103 1.095 . S
C476 C61 1.082 . S
C493 C10 0.773 . S
C512 C62 0.730 . S
C529 C112 0.801 . S
C548 C31 0.741 . S
C565 C123 1.972 . S
C584 C2 2.011 1_556 S
C601 C72 1.780 . S
C620 C32 1.845 . S
C637 C41 1.740 . S
C656 C63 1.815 1_554 S
C673 C113 1.951 . S
C692 C0 1.965 . S
