# Generated by pormake.
# Topology wio, (6)-cn, num edge types: 1
# Building blocks:
#     Node 0, Type 0, BuildingBlock: GEDQOX_clean_sbu_0, # of connection points: 6
#     Node 1, Type 0, BuildingBlock: GEDQOX_clean_sbu_0, # of connection points: 6
#     Node 2, Type 0, BuildingBlock: GEDQOX_clean_sbu_0, # of connection points: 6
#     Node 3, Type 0, BuildingBlock: GEDQOX_clean_sbu_0, # of connection points: 6
#     Node 4, Type 0, BuildingBlock: GEDQOX_clean_sbu_0, # of connection points: 6
#     Node 5, Type 0, BuildingBlock: GEDQOX_clean_sbu_0, # of connection points: 6
#     Node 6, Type 0, BuildingBlock: GEDQOX_clean_sbu_0, # of connection points: 6
#     Node 7, Type 0, BuildingBlock: GEDQOX_clean_sbu_0, # of connection points: 6
#     Node 8, Type 0, BuildingBlock: GEDQOX_clean_sbu_0, # of connection points: 6
#     Node 9, Type 0, BuildingBlock: GEDQOX_clean_sbu_0, # of connection points: 6
#     Node 10, Type 0, BuildingBlock: GEDQOX_clean_sbu_0, # of connection points: 6
#     Node 11, Type 0, BuildingBlock: GEDQOX_clean_sbu_0, # of connection points: 6
#     Node 12, Type 0, BuildingBlock: GEDQOX_clean_sbu_0, # of connection points: 6
#     Node 13, Type 0, BuildingBlock: GEDQOX_clean_sbu_0, # of connection points: 6
#     Node 14, Type 0, BuildingBlock: GEDQOX_clean_sbu_0, # of connection points: 6
#     Node 15, Type 0, BuildingBlock: GEDQOX_clean_sbu_0, # of connection points: 6
#     Node 16, Type 0, BuildingBlock: GEDQOX_clean_sbu_0, # of connection points: 6
#     Node 17, Type 0, BuildingBlock: GEDQOX_clean_sbu_0, # of connection points: 6
#     Node 18, Type 0, BuildingBlock: GEDQOX_clean_sbu_0, # of connection points: 6
#     Node 19, Type 0, BuildingBlock: GEDQOX_clean_sbu_0, # of connection points: 6
#     Node 20, Type 0, BuildingBlock: GEDQOX_clean_sbu_0, # of connection points: 6
#     Node 21, Type 0, BuildingBlock: GEDQOX_clean_sbu_0, # of connection points: 6
#     Node 22, Type 0, BuildingBlock: GEDQOX_clean_sbu_0, # of connection points: 6
#     Node 23, Type 0, BuildingBlock: GEDQOX_clean_sbu_0, # of connection points: 6
#     Node 24, Type 0, BuildingBlock: GEDQOX_clean_sbu_0, # of connection points: 6
#     Node 25, Type 0, BuildingBlock: GEDQOX_clean_sbu_0, # of connection points: 6
#     Node 26, Type 0, BuildingBlock: GEDQOX_clean_sbu_0, # of connection points: 6
#     Node 27, Type 0, BuildingBlock: GEDQOX_clean_sbu_0, # of connection points: 6
#     Node 28, Type 0, BuildingBlock: GEDQOX_clean_sbu_0, # of connection points: 6
#     Node 29, Type 0, BuildingBlock: GEDQOX_clean_sbu_0, # of connection points: 6
#     Node 30, Type 0, BuildingBlock: GEDQOX_clean_sbu_0, # of connection points: 6
#     Node 31, Type 0, BuildingBlock: GEDQOX_clean_sbu_0, # of connection points: 6
#     Edge 32, Type (0, 0), BuildingBlock: ZUJKAS_clean_linker_0, # of connection points: 2
#     Edge 33, Type (0, 0), BuildingBlock: ZUJKAS_clean_linker_0, # of connection points: 2
#     Edge 34, Type (0, 0), BuildingBlock: ZUJKAS_clean_linker_0, # of connection points: 2
#     Edge 35, Type (0, 0), BuildingBlock: ZUJKAS_clean_linker_0, # of connection points: 2
#     Edge 36, Type (0, 0), BuildingBlock: ZUJKAS_clean_linker_0, # of connection points: 2
#     Edge 37, Type (0, 0), BuildingBlock: ZUJKAS_clean_linker_0, # of connection points: 2
#     Edge 38, Type (0, 0), BuildingBlock: ZUJKAS_clean_linker_0, # of connection points: 2
#     Edge 39, Type (0, 0), BuildingBlock: ZUJKAS_clean_linker_0, # of connection points: 2
#     Edge 40, Type (0, 0), BuildingBlock: ZUJKAS_clean_linker_0, # of connection points: 2
#     Edge 41, Type (0, 0), BuildingBlock: ZUJKAS_clean_linker_0, # of connection points: 2
#     Edge 42, Type (0, 0), BuildingBlock: ZUJKAS_clean_linker_0, # of connection points: 2
#     Edge 43, Type (0, 0), BuildingBlock: ZUJKAS_clean_linker_0, # of connection points: 2
#     Edge 44, Type (0, 0), BuildingBlock: ZUJKAS_clean_linker_0, # of connection points: 2
#     Edge 45, Type (0, 0), BuildingBlock: ZUJKAS_clean_linker_0, # of connection points: 2
#     Edge 46, Type (0, 0), BuildingBlock: ZUJKAS_clean_linker_0, # of connection points: 2
#     Edge 47, Type (0, 0), BuildingBlock: ZUJKAS_clean_linker_0, # of connection points: 2
#     Edge 48, Type (0, 0), BuildingBlock: ZUJKAS_clean_linker_0, # of connection points: 2
#     Edge 49, Type (0, 0), BuildingBlock: ZUJKAS_clean_linker_0, # of connection points: 2
#     Edge 50, Type (0, 0), BuildingBlock: ZUJKAS_clean_linker_0, # of connection points: 2
#     Edge 51, Type (0, 0), BuildingBlock: ZUJKAS_clean_linker_0, # of connection points: 2
#     Edge 52, Type (0, 0), BuildingBlock: ZUJKAS_clean_linker_0, # of connection points: 2
#     Edge 53, Type (0, 0), BuildingBlock: ZUJKAS_clean_linker_0, # of connection points: 2
#     Edge 54, Type (0, 0), BuildingBlock: ZUJKAS_clean_linker_0, # of connection points: 2
#     Edge 55, Type (0, 0), BuildingBlock: ZUJKAS_clean_linker_0, # of connection points: 2
#     Edge 56, Type (0, 0), BuildingBlock: ZUJKAS_clean_linker_0, # of connection points: 2
#     Edge 57, Type (0, 0), BuildingBlock: ZUJKAS_clean_linker_0, # of connection points: 2
#     Edge 58, Type (0, 0), BuildingBlock: ZUJKAS_clean_linker_0, # of connection points: 2
#     Edge 59, Type (0, 0), BuildingBlock: ZUJKAS_clean_linker_0, # of connection points: 2
#     Edge 60, Type (0, 0), BuildingBlock: ZUJKAS_clean_linker_0, # of connection points: 2
#     Edge 61, Type (0, 0), BuildingBlock: ZUJKAS_clean_linker_0, # of connection points: 2
#     Edge 62, Type (0, 0), BuildingBlock: ZUJKAS_clean_linker_0, # of connection points: 2
#     Edge 63, Type (0, 0), BuildingBlock: ZUJKAS_clean_linker_0, # of connection points: 2
#     Edge 64, Type (0, 0), BuildingBlock: ZUJKAS_clean_linker_0, # of connection points: 2
#     Edge 65, Type (0, 0), BuildingBlock: ZUJKAS_clean_linker_0, # of connection points: 2
#     Edge 66, Type (0, 0), BuildingBlock: ZUJKAS_clean_linker_0, # of connection points: 2
#     Edge 67, Type (0, 0), BuildingBlock: ZUJKAS_clean_linker_0, # of connection points: 2
#     Edge 68, Type (0, 0), BuildingBlock: ZUJKAS_clean_linker_0, # of connection points: 2
#     Edge 69, Type (0, 0), BuildingBlock: ZUJKAS_clean_linker_0, # of connection points: 2
#     Edge 70, Type (0, 0), BuildingBlock: ZUJKAS_clean_linker_0, # of connection points: 2
#     Edge 71, Type (0, 0), BuildingBlock: ZUJKAS_clean_linker_0, # of connection points: 2
#     Edge 72, Type (0, 0), BuildingBlock: ZUJKAS_clean_linker_0, # of connection points: 2
#     Edge 73, Type (0, 0), BuildingBlock: ZUJKAS_clean_linker_0, # of connection points: 2
#     Edge 74, Type (0, 0), BuildingBlock: ZUJKAS_clean_linker_0, # of connection points: 2
#     Edge 75, Type (0, 0), BuildingBlock: ZUJKAS_clean_linker_0, # of connection points: 2
#     Edge 76, Type (0, 0), BuildingBlock: ZUJKAS_clean_linker_0, # of connection points: 2
#     Edge 77, Type (0, 0), BuildingBlock: ZUJKAS_clean_linker_0, # of connection points: 2
#     Edge 78, Type (0, 0), BuildingBlock: ZUJKAS_clean_linker_0, # of connection points: 2
#     Edge 79, Type (0, 0), BuildingBlock: ZUJKAS_clean_linker_0, # of connection points: 2
#     Edge 80, Type (0, 0), BuildingBlock: ZUJKAS_clean_linker_0, # of connection points: 2
#     Edge 81, Type (0, 0), BuildingBlock: ZUJKAS_clean_linker_0, # of connection points: 2
#     Edge 82, Type (0, 0), BuildingBlock: ZUJKAS_clean_linker_0, # of connection points: 2
#     Edge 83, Type (0, 0), BuildingBlock: ZUJKAS_clean_linker_0, # of connection points: 2
#     Edge 84, Type (0, 0), BuildingBlock: ZUJKAS_clean_linker_0, # of connection points: 2
#     Edge 85, Type (0, 0), BuildingBlock: ZUJKAS_clean_linker_0, # of connection points: 2
#     Edge 86, Type (0, 0), BuildingBlock: ZUJKAS_clean_linker_0, # of connection points: 2
#     Edge 87, Type (0, 0), BuildingBlock: ZUJKAS_clean_linker_0, # of connection points: 2
#     Edge 88, Type (0, 0), BuildingBlock: ZUJKAS_clean_linker_0, # of connection points: 2
#     Edge 89, Type (0, 0), BuildingBlock: ZUJKAS_clean_linker_0, # of connection points: 2
#     Edge 90, Type (0, 0), BuildingBlock: ZUJKAS_clean_linker_0, # of connection points: 2
#     Edge 91, Type (0, 0), BuildingBlock: ZUJKAS_clean_linker_0, # of connection points: 2
#     Edge 92, Type (0, 0), BuildingBlock: ZUJKAS_clean_linker_0, # of connection points: 2
#     Edge 93, Type (0, 0), BuildingBlock: ZUJKAS_clean_linker_0, # of connection points: 2
#     Edge 94, Type (0, 0), BuildingBlock: ZUJKAS_clean_linker_0, # of connection points: 2
#     Edge 95, Type (0, 0), BuildingBlock: ZUJKAS_clean_linker_0, # of connection points: 2
#     Edge 96, Type (0, 0), BuildingBlock: ZUJKAS_clean_linker_0, # of connection points: 2
#     Edge 97, Type (0, 0), BuildingBlock: ZUJKAS_clean_linker_0, # of connection points: 2
#     Edge 98, Type (0, 0), BuildingBlock: ZUJKAS_clean_linker_0, # of connection points: 2
#     Edge 99, Type (0, 0), BuildingBlock: ZUJKAS_clean_linker_0, # of connection points: 2
#     Edge 100, Type (0, 0), BuildingBlock: ZUJKAS_clean_linker_0, # of connection points: 2
#     Edge 101, Type (0, 0), BuildingBlock: ZUJKAS_clean_linker_0, # of connection points: 2
#     Edge 102, Type (0, 0), BuildingBlock: ZUJKAS_clean_linker_0, # of connection points: 2
#     Edge 103, Type (0, 0), BuildingBlock: ZUJKAS_clean_linker_0, # of connection points: 2
#     Edge 104, Type (0, 0), BuildingBlock: ZUJKAS_clean_linker_0, # of connection points: 2
#     Edge 105, Type (0, 0), BuildingBlock: ZUJKAS_clean_linker_0, # of connection points: 2
#     Edge 106, Type (0, 0), BuildingBlock: ZUJKAS_clean_linker_0, # of connection points: 2
#     Edge 107, Type (0, 0), BuildingBlock: ZUJKAS_clean_linker_0, # of connection points: 2
#     Edge 108, Type (0, 0), BuildingBlock: ZUJKAS_clean_linker_0, # of connection points: 2
#     Edge 109, Type (0, 0), BuildingBlock: ZUJKAS_clean_linker_0, # of connection points: 2
#     Edge 110, Type (0, 0), BuildingBlock: ZUJKAS_clean_linker_0, # of connection points: 2
#     Edge 111, Type (0, 0), BuildingBlock: ZUJKAS_clean_linker_0, # of connection points: 2
#     Edge 112, Type (0, 0), BuildingBlock: ZUJKAS_clean_linker_0, # of connection points: 2
#     Edge 113, Type (0, 0), BuildingBlock: ZUJKAS_clean_linker_0, # of connection points: 2
#     Edge 114, Type (0, 0), BuildingBlock: ZUJKAS_clean_linker_0, # of connection points: 2
#     Edge 115, Type (0, 0), BuildingBlock: ZUJKAS_clean_linker_0, # of connection points: 2
#     Edge 116, Type (0, 0), BuildingBlock: ZUJKAS_clean_linker_0, # of connection points: 2
#     Edge 117, Type (0, 0), BuildingBlock: ZUJKAS_clean_linker_0, # of connection points: 2
#     Edge 118, Type (0, 0), BuildingBlock: ZUJKAS_clean_linker_0, # of connection points: 2
#     Edge 119, Type (0, 0), BuildingBlock: ZUJKAS_clean_linker_0, # of connection points: 2
#     Edge 120, Type (0, 0), BuildingBlock: ZUJKAS_clean_linker_0, # of connection points: 2
#     Edge 121, Type (0, 0), BuildingBlock: ZUJKAS_clean_linker_0, # of connection points: 2
#     Edge 122, Type (0, 0), BuildingBlock: ZUJKAS_clean_linker_0, # of connection points: 2
#     Edge 123, Type (0, 0), BuildingBlock: ZUJKAS_clean_linker_0, # of connection points: 2
#     Edge 124, Type (0, 0), BuildingBlock: ZUJKAS_clean_linker_0, # of connection points: 2
#     Edge 125, Type (0, 0), BuildingBlock: ZUJKAS_clean_linker_0, # of connection points: 2
#     Edge 126, Type (0, 0), BuildingBlock: ZUJKAS_clean_linker_0, # of connection points: 2
#     Edge 127, Type (0, 0), BuildingBlock: ZUJKAS_clean_linker_0, # of connection points: 2
# Relax obj value: 0.142
# Max RMSD: 0.200
# Mean RMSD: 0.200
data_MOF--net-wio--node1-GEDQOX_clean_sbu_0--edge1-ZUJKAS_clean_linker_0
_symmetry_space_group_name_H-M    P1
_symmetry_Int_Tables_number       1
_symmetry_cell_setting            triclinic
loop_
_symmetry_equiv_pos_as_xyz
'x, y, z'
_cell_length_a     64.728556
_cell_length_b     64.742051
_cell_length_c     78.923245
_cell_angle_alpha  89.939031
_cell_angle_beta   90.005322
_cell_angle_gamma 89.959267
loop_
_atom_site_label
_atom_site_type_symbol
_atom_site_fract_x
_atom_site_fract_y
_atom_site_fract_z
_atom_type_partial_charge
Nd0 Nd 0.12646 0.12393 0.31312 0.0
Nd1 Nd 0.15253 0.11012 0.34321 0.0
C2 C 0.10968 0.13017 0.28285 0.0
C3 C 0.11421 0.12822 0.26442 0.0
C4 C 0.10881 0.11022 0.25548 0.0
C5 C 0.11139 0.1091 0.23787 0.0
C6 C 0.11935 0.12598 0.2287 0.0
C7 C 0.1251 0.14383 0.2377 0.0
C8 C 0.1225 0.14497 0.2553 0.0
C9 C 0.13512 0.15477 0.33587 0.0
C10 C 0.17638 0.11791 0.30801 0.0
C11 C 0.16905 0.10329 0.37368 0.0
C12 C 0.16465 0.09132 0.38936 0.0
C13 C 0.17738 0.09378 0.40361 0.0
C14 C 0.17427 0.08185 0.41827 0.0
C15 C 0.15832 0.06705 0.41909 0.0
C16 C 0.1454 0.06484 0.40478 0.0
C17 C 0.14852 0.07683 0.39011 0.0
C18 C 0.14117 0.07914 0.32164 0.0
C19 C 0.10068 0.11228 0.34632 0.0
O20 O 0.10715 0.11316 0.29161 0.0
O21 O 0.11946 0.14449 0.29136 0.0
O22 O 0.1175 0.15241 0.3283 0.0
O23 O 0.14819 0.14142 0.33098 0.0
O24 O 0.15778 0.11579 0.30146 0.0
O25 O 0.17885 0.11959 0.32466 0.0
O26 O 0.15712 0.11908 0.37026 0.0
O27 O 0.1736 0.09259 0.36015 0.0
O28 O 0.15902 0.07972 0.32904 0.0
O29 O 0.12985 0.0937 0.32649 0.0
O30 O 0.11886 0.11091 0.3541 0.0
O31 O 0.09934 0.11533 0.32985 0.0
H32 H 0.10224 0.09707 0.26204 0.0
H33 H 0.10703 0.09501 0.23142 0.0
H34 H 0.13101 0.15725 0.23108 0.0
H35 H 0.12656 0.15919 0.2617 0.0
H36 H 0.19 0.10476 0.40333 0.0
H37 H 0.18476 0.0839 0.42882 0.0
H38 H 0.13278 0.05387 0.40491 0.0
H39 H 0.13846 0.07464 0.37929 0.0
Nd40 Nd 0.12498 0.87219 0.56361 0.0
Nd41 Nd 0.14288 0.89637 0.59366 0.0
C42 C 0.11348 0.8562 0.53415 0.0
C43 C 0.11561 0.85942 0.51567 0.0
C44 C 0.13299 0.86911 0.50855 0.0
C45 C 0.13453 0.87166 0.4909 0.0
C46 C 0.11866 0.8647 0.48007 0.0
C47 C 0.10131 0.85508 0.48738 0.0
C48 C 0.09982 0.85249 0.50494 0.0
C49 C 0.0973 0.87959 0.58943 0.0
C50 C 0.13536 0.92162 0.55785 0.0
C51 C 0.15234 0.917 0.62174 0.0
C52 C 0.1648 0.91327 0.63733 0.0
C53 C 0.16188 0.92574 0.65168 0.0
C54 C 0.17367 0.92262 0.66643 0.0
C55 C 0.18877 0.90692 0.66725 0.0
C56 C 0.19153 0.89435 0.65281 0.0
C57 C 0.17967 0.89746 0.63807 0.0
C58 C 0.17155 0.87515 0.57489 0.0
C59 C 0.13883 0.846 0.5961 0.0
O60 O 0.12989 0.8501 0.54251 0.0
O61 O 0.10245 0.86976 0.54247 0.0
O62 O 0.0988 0.86237 0.58121 0.0
O63 O 0.11012 0.89272 0.58387 0.0
O64 O 0.13015 0.90365 0.55129 0.0
O65 O 0.1399 0.92352 0.57421 0.0
O66 O 0.13539 0.90613 0.62002 0.0
O67 O 0.16253 0.91887 0.60748 0.0
O68 O 0.17304 0.87774 0.59111 0.0
O69 O 0.15634 0.88494 0.56909 0.0
O70 O 0.13738 0.86361 0.60457 0.0
O71 O 0.13799 0.84558 0.57938 0.0
H72 H 0.14533 0.87468 0.5166 0.0
H73 H 0.14802 0.87931 0.48577 0.0
H74 H 0.08894 0.84921 0.47949 0.0
H75 H 0.08631 0.84492 0.51015 0.0
H76 H 0.15053 0.93804 0.65145 0.0
H77 H 0.17118 0.9328 0.67711 0.0
H78 H 0.20271 0.88192 0.65293 0.0
H79 H 0.18215 0.88751 0.62724 0.0
Nd80 Nd 0.38169 0.87991 0.8136 0.0
Nd81 Nd 0.35471 0.89324 0.84329 0.0
C82 C 0.39949 0.87379 0.78375 0.0
C83 C 0.3952 0.8742 0.76532 0.0
C84 C 0.3849 0.89081 0.75749 0.0
C85 C 0.38204 0.89106 0.73985 0.0
C86 C 0.38942 0.87474 0.72969 0.0
C87 C 0.39933 0.85801 0.73771 0.0
C88 C 0.40221 0.85779 0.75527 0.0
C89 C 0.37309 0.84899 0.83635 0.0
C90 C 0.33153 0.88478 0.8078 0.0
C91 C 0.33809 0.8999 0.8737 0.0
C92 C 0.34306 0.9116 0.8894 0.0
C93 C 0.33256 0.90715 0.90453 0.0
C94 C 0.3361 0.91886 0.91922 0.0
C95 C 0.35022 0.93544 0.91917 0.0
C96 C 0.36099 0.93961 0.904 0.0
C97 C 0.35748 0.92782 0.88932 0.0
C98 C 0.36516 0.92417 0.82144 0.0
C99 C 0.40655 0.89246 0.84704 0.0
O100 O 0.40004 0.89143 0.79183 0.0
O101 O 0.39085 0.85902 0.79257 0.0
O102 O 0.39091 0.85177 0.82919 0.0
O103 O 0.3599 0.86205 0.83117 0.0
O104 O 0.35026 0.88647 0.80138 0.0
O105 O 0.32872 0.88368 0.82446 0.0
O106 O 0.34948 0.88374 0.87017 0.0
O107 O 0.33382 0.91086 0.86024 0.0
O108 O 0.34724 0.92301 0.82869 0.0
O109 O 0.37705 0.91019 0.82659 0.0
O110 O 0.38819 0.89341 0.85453 0.0
O111 O 0.40831 0.88936 0.8306 0.0
H112 H 0.37929 0.90369 0.76494 0.0
H113 H 0.37447 0.90427 0.73414 0.0
H114 H 0.40486 0.84498 0.73041 0.0
H115 H 0.41012 0.84479 0.76101 0.0
H116 H 0.3213 0.89478 0.90491 0.0
H117 H 0.32731 0.91525 0.93051 0.0
H118 H 0.3722 0.952 0.90345 0.0
H119 H 0.36587 0.93154 0.87783 0.0
Nd120 Nd 0.37566 0.13148 0.06221 0.0
Nd121 Nd 0.36279 0.1052 0.09253 0.0
C122 C 0.3815 0.14883 0.03209 0.0
C123 C 0.38135 0.14431 0.0137 0.0
C124 C 0.36596 0.13209 1.00613 0.0
C125 C 0.36578 0.12903 0.98851 0.0
C126 C 0.38106 0.13802 0.97813 0.0
C127 C 0.39656 0.14998 0.98586 0.0
C128 C 0.39667 0.15309 1.0034 0.0
C129 C 0.40696 0.12306 0.08471 0.0
C130 C 0.37059 0.0813 0.05729 0.0
C131 C 0.35667 0.08896 0.12319 0.0
C132 C 0.34501 0.09372 0.13896 0.0
C133 C 0.34939 0.08285 0.15393 0.0
C134 C 0.33775 0.08622 0.16871 0.0
C135 C 0.32134 0.10055 0.16891 0.0
C136 C 0.31722 0.11167 0.15388 0.0
C137 C 0.32892 0.10831 0.13911 0.0
C138 C 0.33133 0.1158 0.07115 0.0
C139 C 0.36326 0.15704 0.09532 0.0
O140 O 0.36377 0.14891 0.04006 0.0
O141 O 0.39644 0.14078 0.04109 0.0
O142 O 0.40413 0.14079 0.07739 0.0
O143 O 0.39371 0.10991 0.07986 0.0
O144 O 0.36871 0.09987 0.05059 0.0
O145 O 0.37204 0.07886 0.07397 0.0
O146 O 0.37248 0.10071 0.11946 0.0
O147 O 0.34569 0.08429 0.10985 0.0
O148 O 0.33235 0.09804 0.07868 0.0
O149 O 0.34569 0.12746 0.07584 0.0
O150 O 0.36339 0.13895 0.1033 0.0
O151 O 0.36548 0.15827 0.07875 0.0
H152 H 0.35399 0.12504 0.01379 0.0
H153 H 0.35374 0.11954 0.98303 0.0
H154 H 0.4084 0.15739 0.97831 0.0
H155 H 0.40863 0.16266 1.00893 0.0
H156 H 0.36164 0.07144 0.15414 0.0
H157 H 0.34132 0.07715 0.17986 0.0
H158 H 0.30497 0.12305 0.15351 0.0
H159 H 0.32524 0.11695 0.12773 0.0
Nd160 Nd 0.12235 0.8741 0.21336 0.0
Nd161 Nd 0.14579 0.89301 0.18313 0.0
C162 C 0.10655 0.8622 0.24283 0.0
C163 C 0.10942 0.86469 0.26129 0.0
C164 C 0.12737 0.87357 0.26814 0.0
C165 C 0.12977 0.8753 0.28578 0.0
C166 C 0.11423 0.86823 0.2969 0.0
C167 C 0.09629 0.85942 0.28986 0.0
C168 C 0.09394 0.8577 0.27229 0.0
C169 C 0.12935 0.84722 0.18696 0.0
C170 C 0.17197 0.88397 0.2182 0.0
C171 C 0.16626 0.90309 0.15512 0.0
C172 C 0.16312 0.91583 0.13955 0.0
C173 C 0.16783 0.90751 0.12357 0.0
C174 C 0.16557 0.91937 0.10876 0.0
C175 C 0.15857 0.93999 0.10947 0.0
C176 C 0.15372 0.94823 0.12554 0.0
C177 C 0.15592 0.93632 0.14034 0.0
C178 C 0.1249 0.921 0.20279 0.0
C179 C 0.0955 0.88844 0.18123 0.0
O180 O 0.09988 0.87829 0.23438 0.0
O181 O 0.12072 0.85177 0.23464 0.0
O182 O 0.1124 0.84812 0.19563 0.0
O183 O 0.14246 0.86004 0.19249 0.0
O184 O 0.15433 0.87823 0.22509 0.0
O185 O 0.17326 0.8896 0.20205 0.0
O186 O 0.15529 0.88616 0.15656 0.0
O187 O 0.16834 0.91285 0.16956 0.0
O188 O 0.12713 0.92303 0.18655 0.0
O189 O 0.13485 0.90565 0.20815 0.0
O190 O 0.11296 0.8875 0.1725 0.0
O191 O 0.0954 0.88718 0.19794 0.0
H192 H 0.13951 0.87913 0.25987 0.0
H193 H 0.14369 0.88235 0.29069 0.0
H194 H 0.08414 0.85349 0.29794 0.0
H195 H 0.08001 0.85071 0.26728 0.0
H196 H 0.17336 0.89176 0.12253 0.0
H197 H 0.16915 0.91224 0.09671 0.0
H198 H 0.14856 0.96406 0.12678 0.0
H199 H 0.15212 0.94325 0.15243 0.0
Nd200 Nd 0.37384 0.87333 0.46241 0.0
Nd201 Nd 0.36094 0.90009 0.432 0.0
C202 C 0.37828 0.85613 0.49274 0.0
C203 C 0.37746 0.86117 0.51113 0.0
C204 C 0.35929 0.85787 0.52055 0.0
C205 C 0.35904 0.86088 0.53814 0.0
C206 C 0.37701 0.86712 0.5468 0.0
C207 C 0.39504 0.87082 0.5373 0.0
C208 C 0.39528 0.86783 0.51973 0.0
C209 C 0.40514 0.88165 0.44 0.0
C210 C 0.36985 0.92374 0.46725 0.0
C211 C 0.35469 0.91645 0.40148 0.0
C212 C 0.34196 0.91217 0.38616 0.0
C213 C 0.3499 0.91637 0.36996 0.0
C214 C 0.3377 0.91349 0.35542 0.0
C215 C 0.31715 0.90639 0.35668 0.0
C216 C 0.3094 0.9019 0.37299 0.0
C217 C 0.32164 0.90468 0.3875 0.0
C218 C 0.32967 0.88953 0.45351 0.0
C219 C 0.36211 0.8482 0.42875 0.0
O220 O 0.36087 0.85602 0.48428 0.0
O221 O 0.39369 0.86357 0.48389 0.0
O222 O 0.40279 0.86418 0.44785 0.0
O223 O 0.39175 0.89479 0.44465 0.0
O224 O 0.36803 0.90522 0.47405 0.0
O225 O 0.37078 0.92617 0.45055 0.0
O226 O 0.36995 0.90381 0.40483 0.0
O227 O 0.34479 0.92218 0.41512 0.0
O228 O 0.33057 0.90726 0.44593 0.0
O229 O 0.344 0.87786 0.44874 0.0
O230 O 0.36101 0.86648 0.42112 0.0
O231 O 0.3651 0.84656 0.44524 0.0
H232 H 0.34535 0.85248 0.51438 0.0
H233 H 0.34493 0.85766 0.54502 0.0
H234 H 0.40908 0.87592 0.54347 0.0
H235 H 0.4096 0.8704 0.51295 0.0
H236 H 0.36553 0.92209 0.36855 0.0
H237 H 0.34446 0.91679 0.34317 0.0
H238 H 0.29364 0.89667 0.37464 0.0
H239 H 0.31506 0.90128 0.39981 0.0
Nd240 Nd 0.38327 0.13058 0.71161 0.0
Nd241 Nd 0.35943 0.11258 0.68141 0.0
C242 C 0.3996 0.14124 0.74115 0.0
C243 C 0.39652 0.13864 0.75957 0.0
C244 C 0.379 0.12874 0.76622 0.0
C245 C 0.37644 0.12684 0.78384 0.0
C246 C 0.39142 0.13473 0.7951 0.0
C247 C 0.4089 0.14462 0.78823 0.0
C248 C 0.4114 0.14651 0.7707 0.0
C249 C 0.377 0.15815 0.68552 0.0
C250 C 0.33358 0.12143 0.71678 0.0
C251 C 0.3391 0.10262 0.65332 0.0
C252 C 0.34262 0.08984 0.63774 0.0
C253 C 0.34789 0.09926 0.62224 0.0
C254 C 0.3507 0.08745 0.60747 0.0
C255 C 0.34823 0.06581 0.60768 0.0
C256 C 0.3429 0.05642 0.6232 0.0
C257 C 0.34011 0.06823 0.63797 0.0
C258 C 0.38 0.08398 0.70079 0.0
C259 C 0.40971 0.11643 0.67921 0.0
O260 O 0.40544 0.12493 0.73259 0.0
O261 O 0.38598 0.1525 0.73305 0.0
O262 O 0.39379 0.15675 0.69436 0.0
O263 O 0.36353 0.14547 0.69077 0.0
O264 O 0.35128 0.12734 0.72345 0.0
O265 O 0.33213 0.11566 0.70066 0.0
O266 O 0.34982 0.11969 0.65493 0.0
O267 O 0.33677 0.0929 0.66777 0.0
O268 O 0.37801 0.08245 0.68451 0.0
O269 O 0.37019 0.09933 0.70628 0.0
O270 O 0.39219 0.11779 0.67061 0.0
O271 O 0.40997 0.11741 0.69592 0.0
H272 H 0.36732 0.12253 0.75783 0.0
H273 H 0.36287 0.11899 0.78863 0.0
H274 H 0.42056 0.15124 0.79642 0.0
H275 H 0.42497 0.1543 0.76582 0.0
H276 H 0.34982 0.11586 0.6215 0.0
H277 H 0.35503 0.09534 0.5959 0.0
H278 H 0.34049 0.0399 0.62394 0.0
H279 H 0.33582 0.06035 0.64956 0.0
Nd280 Nd 0.12595 0.12907 0.9622 0.0
Nd281 Nd 0.14509 0.10604 0.932 0.0
C282 C 0.11363 0.14409 0.99176 0.0
C283 C 0.11585 0.14034 1.01017 0.0
C284 C 0.13453 0.13351 0.01733 0.0
C285 C 0.13624 0.1307 0.03491 0.0
C286 C 0.11928 0.13453 0.04566 0.0
C287 C 0.10057 0.14113 0.03833 0.0
C288 C 0.09891 0.14401 0.02081 0.0
C289 C 0.09918 0.12291 0.93559 0.0
C290 C 0.13586 0.07946 0.96692 0.0
C291 C 0.15562 0.08618 0.90381 0.0
C292 C 0.1686 0.08978 0.88842 0.0
C293 C 0.16041 0.08596 0.87224 0.0
C294 C 0.17249 0.08867 0.8576 0.0
C295 C 0.19324 0.09522 0.85868 0.0
C296 C 0.20135 0.09918 0.87496 0.0
C297 C 0.18922 0.09654 0.88959 0.0
C298 C 0.17293 0.12665 0.95194 0.0
C299 C 0.14069 0.15639 0.93057 0.0
O300 O 0.12984 0.15094 0.98356 0.0
O301 O 0.10303 0.13048 0.98313 0.0
O302 O 0.10029 0.13962 0.94452 0.0
O303 O 0.11189 0.10949 0.94092 0.0
O304 O 0.12975 0.09698 0.97375 0.0
O305 O 0.14189 0.07835 0.95084 0.0
O306 O 0.1386 0.09704 0.90524 0.0
O307 O 0.16515 0.08376 0.91833 0.0
O308 O 0.17503 0.12471 0.9357 0.0
O309 O 0.15757 0.11662 0.95717 0.0
O310 O 0.13975 0.13907 0.92167 0.0
O311 O 0.13931 0.15623 0.94727 0.0
H312 H 0.1478 0.13041 1.00936 0.0
H313 H 0.15081 0.12538 0.04008 0.0
H314 H 0.08727 0.1445 0.04619 0.0
H315 H 0.08437 0.14933 0.01557 0.0
H316 H 0.14458 0.08079 0.8709 0.0
H317 H 0.16544 0.08577 0.84539 0.0
H318 H 0.21726 0.10397 0.87649 0.0
H319 H 0.19608 0.09965 0.90184 0.0
Nd320 Nd 0.8526 0.8913 0.68104 0.0
Nd321 Nd 0.87822 0.87787 0.71165 0.0
C322 C 0.837 0.89765 0.65022 0.0
C323 C 0.84133 0.91055 0.63496 0.0
C324 C 0.83758 0.90259 0.6187 0.0
C325 C 0.84044 0.91489 0.60419 0.0
C326 C 0.8471 0.93557 0.60553 0.0
C327 C 0.85114 0.94337 0.62189 0.0
C328 C 0.84834 0.93103 0.63638 0.0
C329 C 0.86352 0.9228 0.70217 0.0
C330 C 0.90453 0.88935 0.67864 0.0
C331 C 0.89456 0.87193 0.74215 0.0
C332 C 0.88967 0.87349 0.76054 0.0
C333 C 0.88957 0.89262 0.76902 0.0
C334 C 0.88667 0.89356 0.78662 0.0
C335 C 0.8838 0.8754 0.79619 0.0
C336 C 0.88357 0.85635 0.78763 0.0
C337 C 0.88654 0.85541 0.77007 0.0
C338 C 0.86982 0.8468 0.68898 0.0
C339 C 0.82815 0.88345 0.71607 0.0
O340 O 0.84985 0.88261 0.65371 0.0
O341 O 0.83074 0.90731 0.66382 0.0
O342 O 0.84609 0.9223 0.69414 0.0
O343 O 0.87489 0.90795 0.698 0.0
O344 O 0.88648 0.89058 0.67065 0.0
O345 O 0.90563 0.88639 0.69514 0.0
O346 O 0.89669 0.88906 0.73349 0.0
O347 O 0.88538 0.85737 0.73347 0.0
O348 O 0.88737 0.84923 0.69668 0.0
O349 O 0.85674 0.86021 0.69371 0.0
O350 O 0.84658 0.88548 0.72294 0.0
O351 O 0.82596 0.8821 0.69937 0.0
H352 H 0.83221 0.88685 0.61721 0.0
H353 H 0.8375 0.90808 0.59191 0.0
H354 H 0.85602 0.95922 0.62361 0.0
H355 H 0.85138 0.93765 0.64874 0.0
H356 H 0.89203 0.90688 0.76212 0.0
H357 H 0.88674 0.90852 0.79275 0.0
H358 H 0.88172 0.84203 0.79456 0.0
H359 H 0.88683 0.84042 0.76399 0.0
Nd360 Nd 0.86166 0.1067 0.43124 0.0
Nd361 Nd 0.88035 0.12984 0.46143 0.0
C362 C 0.85186 0.08654 0.40301 0.0
C363 C 0.83932 0.09024 0.38748 0.0
C364 C 0.8427 0.07822 0.37295 0.0
C365 C 0.83077 0.08119 0.35827 0.0
C366 C 0.81506 0.09628 0.35771 0.0
C367 C 0.81186 0.10844 0.37232 0.0
C368 C 0.82385 0.10548 0.38699 0.0
C369 C 0.8334 0.12722 0.45085 0.0
C370 C 0.86581 0.15703 0.42969 0.0
C371 C 0.89256 0.14495 0.49101 0.0
C372 C 0.89018 0.14125 0.50942 0.0
C373 C 0.8713 0.13497 0.51654 0.0
C374 C 0.86946 0.13216 0.53412 0.0
C375 C 0.8865 0.13544 0.54491 0.0
C376 C 0.9054 0.14152 0.53763 0.0
C377 C 0.90719 0.1444 0.52012 0.0
C378 C 0.90739 0.12296 0.43504 0.0
C379 C 0.87022 0.08026 0.46629 0.0
O380 O 0.86878 0.09745 0.40469 0.0
O381 O 0.84178 0.08453 0.4173 0.0
O382 O 0.83153 0.12518 0.43459 0.0
O383 O 0.84879 0.11737 0.45629 0.0
O384 O 0.86737 0.1397 0.42085 0.0
O385 O 0.8667 0.15685 0.44641 0.0
O386 O 0.87644 0.15186 0.4827 0.0
O387 O 0.90317 0.13127 0.48245 0.0
O388 O 0.90614 0.14002 0.44352 0.0
O389 O 0.89465 0.1098 0.44065 0.0
O390 O 0.87591 0.0979 0.4732 0.0
O391 O 0.86477 0.07904 0.45009 0.0
H392 H 0.85451 0.06635 0.37299 0.0
H393 H 0.83361 0.07132 0.34745 0.0
H394 H 0.80017 0.12041 0.37239 0.0
H395 H 0.821 0.11508 0.39798 0.0
H396 H 0.85796 0.13228 0.50855 0.0
H397 H 0.85474 0.12725 0.53925 0.0
H398 H 0.91877 0.14446 0.54552 0.0
H399 H 0.92188 0.1493 0.51491 0.0
Nd400 Nd 0.64859 0.11001 0.182 0.0
Nd401 Nd 0.62207 0.12439 0.21146 0.0
C402 C 0.66512 0.10277 0.15163 0.0
C403 C 0.66034 0.09071 0.13607 0.0
C404 C 0.67006 0.09573 0.12071 0.0
C405 C 0.66677 0.08376 0.10611 0.0
C406 C 0.6537 0.06635 0.10649 0.0
C407 C 0.64368 0.06161 0.12189 0.0
C408 C 0.64692 0.07365 0.13648 0.0
C409 C 0.63709 0.07936 0.20381 0.0
C410 C 0.59682 0.11191 0.17821 0.0
C411 C 0.60484 0.13163 0.24139 0.0
C412 C 0.60939 0.13111 0.25983 0.0
C413 C 0.61402 0.11259 0.26839 0.0
C414 C 0.61686 0.11244 0.28602 0.0
C415 C 0.61513 0.13079 0.29552 0.0
C416 C 0.61094 0.14932 0.28681 0.0
C417 C 0.60803 0.14944 0.26924 0.0
C418 C 0.6313 0.15475 0.18836 0.0
C419 C 0.67201 0.11812 0.21731 0.0
O420 O 0.65357 0.11887 0.15493 0.0
O421 O 0.66953 0.09215 0.16525 0.0
O422 O 0.65501 0.07991 0.19651 0.0
O423 O 0.62567 0.09379 0.19875 0.0
O424 O 0.61515 0.11037 0.17074 0.0
O425 O 0.59512 0.1154 0.1946 0.0
O426 O 0.60317 0.11403 0.23333 0.0
O427 O 0.61406 0.14588 0.23239 0.0
O428 O 0.61341 0.15238 0.1955 0.0
O429 O 0.64425 0.14158 0.19376 0.0
O430 O 0.65326 0.11679 0.2237 0.0
O431 O 0.67483 0.11915 0.20066 0.0
H432 H 0.68053 0.10876 0.12006 0.0
H433 H 0.67497 0.08786 0.09463 0.0
H434 H 0.63326 0.04856 0.1227 0.0
H435 H 0.63914 0.06947 0.14814 0.0
H436 H 0.61513 0.09815 0.26153 0.0
H437 H 0.61988 0.09784 0.29225 0.0
H438 H 0.60988 0.16383 0.29357 0.0
H439 H 0.60446 0.16393 0.26301 0.0
Nd440 Nd 0.642 0.89543 0.93361 0.0
Nd441 Nd 0.62676 0.87002 0.96368 0.0
C442 C 0.64975 0.91112 0.90301 0.0
C443 C 0.66254 0.90672 0.88762 0.0
C444 C 0.65297 0.90288 0.87193 0.0
C445 C 0.66475 0.89999 0.85714 0.0
C446 C 0.68652 0.90095 0.85755 0.0
C447 C 0.69605 0.90463 0.87334 0.0
C448 C 0.68428 0.90746 0.88811 0.0
C449 C 0.67239 0.88358 0.95565 0.0
C450 C 0.6395 0.84365 0.93104 0.0
C451 C 0.61812 0.85316 0.99355 0.0
C452 C 0.61944 0.85675 1.01202 0.0
C453 C 0.63455 0.86962 0.0192 0.0
C454 C 0.63577 0.87199 0.03687 0.0
C455 C 0.62195 0.86146 0.04767 0.0
C456 C 0.60667 0.8489 0.04029 0.0
C457 C 0.60545 0.84659 0.0227 0.0
C458 C 0.59689 0.87932 0.94008 0.0
C459 C 0.63469 0.91961 0.96871 0.0
O460 O 0.634 0.89903 0.90619 0.0
O461 O 0.65938 0.91674 0.91681 0.0
O462 O 0.67268 0.90104 0.94764 0.0
O463 O 0.65745 0.87267 0.95097 0.0
O464 O 0.64061 0.86167 0.92301 0.0
O465 O 0.63636 0.84263 0.94753 0.0
O466 O 0.63541 0.85 0.98537 0.0
O467 O 0.60498 0.86443 0.985 0.0
O468 O 0.59883 0.86157 0.94754 0.0
O469 O 0.61028 0.89207 0.94536 0.0
O470 O 0.63607 0.90098 0.97535 0.0
O471 O 0.63309 0.92205 0.95204 0.0
H472 H 0.63627 0.9023 0.87106 0.0
H473 H 0.65673 0.89691 0.84537 0.0
H474 H 0.71269 0.90584 0.87427 0.0
H475 H 0.69228 0.91053 0.89989 0.0
H476 H 0.64553 0.87763 1.01118 0.0
H477 H 0.64782 0.88169 0.04209 0.0
H478 H 0.59551 0.84087 0.04811 0.0
H479 H 0.59361 0.83667 0.01742 0.0
Nd480 Nd 0.85472 0.11114 0.84452 0.0
Nd481 Nd 0.87963 0.12299 0.81284 0.0
C482 C 0.83958 0.1056 0.87561 0.0
C483 C 0.84295 0.09229 0.89092 0.0
C484 C 0.85633 0.09838 0.90407 0.0
C485 C 0.85851 0.08629 0.9188 0.0
C486 C 0.84725 0.06781 0.92089 0.0
C487 C 0.834 0.06171 0.90765 0.0
C488 C 0.83183 0.07377 0.89296 0.0
C489 C 0.8648 0.07872 0.82395 0.0
C490 C 0.90659 0.11227 0.84572 0.0
C491 C 0.8956 0.12702 0.782 0.0
C492 C 0.89044 0.12542 0.76366 0.0
C493 C 0.89509 0.10732 0.75456 0.0
C494 C 0.89232 0.10647 0.73696 0.0
C495 C 0.88491 0.12374 0.72795 0.0
C496 C 0.87978 0.14167 0.73713 0.0
C497 C 0.88258 0.14252 0.75472 0.0
C498 C 0.87248 0.15501 0.83491 0.0
C499 C 0.82936 0.11898 0.80981 0.0
O500 O 0.8534 0.11969 0.87191 0.0
O501 O 0.83212 0.09672 0.86206 0.0
O502 O 0.84764 0.07962 0.83234 0.0
O503 O 0.87628 0.09366 0.82752 0.0
O504 O 0.88888 0.11268 0.85425 0.0
O505 O 0.90707 0.11369 0.82905 0.0
O506 O 0.89653 0.10992 0.79083 0.0
O507 O 0.88777 0.14241 0.79062 0.0
O508 O 0.88959 0.15224 0.82664 0.0
O509 O 0.85911 0.14155 0.83094 0.0
O510 O 0.84741 0.11626 0.80243 0.0
O511 O 0.82784 0.12073 0.82653 0.0
H512 H 0.86497 0.11265 0.9031 0.0
H513 H 0.86868 0.09172 0.92873 0.0
H514 H 0.82529 0.04747 0.90854 0.0
H515 H 0.82124 0.06859 0.88323 0.0
H516 H 0.90132 0.09389 0.761 0.0
H517 H 0.89617 0.09231 0.73039 0.0
H518 H 0.87429 0.15535 0.73064 0.0
H519 H 0.87907 0.15681 0.76124 0.0
Nd520 Nd 0.64452 0.10715 0.5928 0.0
Nd521 Nd 0.63104 0.13342 0.56281 0.0
C522 C 0.65108 0.09114 0.62345 0.0
C523 C 0.6636 0.09548 0.63896 0.0
C524 C 0.65396 0.09662 0.65489 0.0
C525 C 0.66562 0.09958 0.66973 0.0
C526 C 0.68732 0.10141 0.66909 0.0
C527 C 0.69689 0.10048 0.65305 0.0
C528 C 0.68523 0.0976 0.63822 0.0
C529 C 0.67579 0.11774 0.57125 0.0
C530 C 0.64394 0.15903 0.59567 0.0
C531 C 0.62376 0.15027 0.53271 0.0
C532 C 0.62436 0.14575 0.51427 0.0
C533 C 0.64283 0.14066 0.50584 0.0
C534 C 0.64307 0.13799 0.48819 0.0
C535 C 0.62487 0.14035 0.47856 0.0
C536 C 0.60637 0.14493 0.48716 0.0
C537 C 0.60615 0.14766 0.50474 0.0
C538 C 0.60043 0.12525 0.58597 0.0
C539 C 0.6371 0.08351 0.55756 0.0
O540 O 0.63562 0.1035 0.62003 0.0
O541 O 0.661 0.0854 0.60982 0.0
O542 O 0.67494 0.10009 0.57895 0.0
O543 O 0.66141 0.12944 0.5759 0.0
O544 O 0.64413 0.14089 0.60357 0.0
O545 O 0.64138 0.16033 0.57913 0.0
O546 O 0.64132 0.15216 0.54081 0.0
O547 O 0.60959 0.14091 0.54169 0.0
O548 O 0.60323 0.14299 0.5787 0.0
O549 O 0.61328 0.11195 0.58071 0.0
O550 O 0.63915 0.10216 0.55109 0.0
O551 O 0.63502 0.08096 0.57418 0.0
H552 H 0.63735 0.09503 0.65589 0.0
H553 H 0.65754 0.10053 0.68171 0.0
H554 H 0.71353 0.10149 0.6519 0.0
H555 H 0.69324 0.09675 0.6262 0.0
H556 H 0.65716 0.1391 0.51281 0.0
H557 H 0.65765 0.13465 0.48205 0.0
H558 H 0.59196 0.14647 0.48029 0.0
H559 H 0.5917 0.15157 0.51089 0.0
Nd560 Nd 0.64408 0.89409 0.34384 0.0
Nd561 Nd 0.62057 0.87515 0.31384 0.0
C562 C 0.66423 0.90386 0.37205 0.0
C563 C 0.66063 0.9164 0.38762 0.0
C564 C 0.66731 0.90897 0.40343 0.0
C565 C 0.66448 0.92068 0.41823 0.0
C566 C 0.65492 0.94025 0.41764 0.0
C567 C 0.64808 0.94757 0.40176 0.0
C568 C 0.65084 0.9358 0.38697 0.0
C569 C 0.62382 0.92224 0.3239 0.0
C570 C 0.59372 0.89071 0.3454 0.0
C571 C 0.60483 0.86245 0.2846 0.0
C572 C 0.60803 0.86437 0.26615 0.0
C573 C 0.62398 0.87651 0.25934 0.0
C574 C 0.62682 0.8777 0.24171 0.0
C575 C 0.6138 0.8667 0.23059 0.0
C576 C 0.59776 0.85472 0.23759 0.0
C577 C 0.59494 0.85358 0.25514 0.0
C578 C 0.62722 0.84864 0.34067 0.0
C579 C 0.67018 0.88504 0.30875 0.0
O580 O 0.65335 0.88691 0.37041 0.0
O581 O 0.66643 0.91382 0.3577 0.0
O582 O 0.62598 0.9244 0.34013 0.0
O583 O 0.63344 0.90662 0.31865 0.0
O584 O 0.61103 0.88903 0.35426 0.0
O585 O 0.59384 0.88952 0.3287 0.0
O586 O 0.59831 0.87889 0.29264 0.0
O587 O 0.61881 0.85212 0.2931 0.0
O588 O 0.61016 0.84983 0.33218 0.0
O589 O 0.6405 0.86105 0.33481 0.0
O590 O 0.65246 0.87938 0.30194 0.0
O591 O 0.67156 0.89055 0.32493 0.0
H592 H 0.67491 0.89409 0.40433 0.0
H593 H 0.67019 0.91454 0.43011 0.0
H594 H 0.64039 0.96238 0.40075 0.0
H595 H 0.64534 0.94191 0.37501 0.0
H596 H 0.63429 0.88494 0.26764 0.0
H597 H 0.63943 0.88693 0.23682 0.0
H598 H 0.5872 0.84634 0.22947 0.0
H599 H 0.5825 0.84419 0.26014 0.0
Nd600 Nd 0.85888 0.89638 0.09477 0.0
Nd601 Nd 0.87554 0.87325 0.06376 0.0
C602 C 0.84961 0.91654 0.12307 0.0
C603 C 0.83679 0.91322 0.13856 0.0
C604 C 0.84526 0.91688 0.15467 0.0
C605 C 0.83332 0.91435 0.1694 0.0
C606 C 0.81247 0.90813 0.16846 0.0
C607 C 0.80407 0.90436 0.15225 0.0
C608 C 0.81605 0.90682 0.13754 0.0
C609 C 0.82954 0.87708 0.07543 0.0
C610 C 0.86238 0.84604 0.09603 0.0
C611 C 0.88439 0.85787 0.0335 0.0
C612 C 0.88246 0.86245 0.0151 0.0
C613 C 0.86313 0.86361 1.00698 0.0
C614 C 0.86189 0.86659 0.98939 0.0
C615 C 0.87991 0.86854 0.97951 0.0
C616 C 0.89918 0.8677 0.98774 0.0
C617 C 0.90042 0.86463 1.00528 0.0
C618 C 0.90389 0.87873 0.08942 0.0
C619 C 0.86832 0.92334 0.05998 0.0
O620 O 0.86627 0.90519 0.12141 0.0
O621 O 0.83987 0.91927 0.10869 0.0
O622 O 0.82872 0.87781 0.09182 0.0
O623 O 0.84479 0.88699 0.06992 0.0
O624 O 0.8646 0.86327 0.10491 0.0
O625 O 0.86236 0.84639 0.0793 0.0
O626 O 0.86759 0.85317 0.04196 0.0
O627 O 0.89729 0.86922 0.04225 0.0
O628 O 0.90205 0.86197 0.08058 0.0
O629 O 0.89127 0.89237 0.08441 0.0
O630 O 0.87351 0.90574 0.05277 0.0
O631 O 0.86271 0.92428 0.07617 0.0
H632 H 0.8612 0.92177 0.15587 0.0
H633 H 0.84057 0.91708 0.18155 0.0
H634 H 0.78806 0.89984 0.15085 0.0
H635 H 0.80899 0.90383 0.12534 0.0
H636 H 0.84896 0.86199 0.01415 0.0
H637 H 0.84678 0.86739 0.98353 0.0
H638 H 0.91339 0.86883 0.98056 0.0
H639 H 0.91552 0.8636 1.01114 0.0
Nd640 Nd 0.62264 0.62365 0.81358 0.0
Nd641 Nd 0.64766 0.60998 0.84496 0.0
C642 C 0.60704 0.62997 0.78288 0.0
C643 C 0.6122 0.62828 0.7646 0.0
C644 C 0.61769 0.60936 0.75706 0.0
C645 C 0.62105 0.6081 0.73951 0.0
C646 C 0.61911 0.62573 0.72914 0.0
C647 C 0.61398 0.64466 0.73682 0.0
C648 C 0.61052 0.64589 0.75429 0.0
C649 C 0.63032 0.65454 0.83651 0.0
C650 C 0.67284 0.61783 0.81021 0.0
C651 C 0.66322 0.60391 0.87587 0.0
C652 C 0.65877 0.5922 0.89166 0.0
C653 C 0.64158 0.57906 0.89304 0.0
C654 C 0.63835 0.5673 0.90782 0.0
C655 C 0.65224 0.5684 0.9216 0.0
C656 C 0.66929 0.58183 0.92014 0.0
C657 C 0.6725 0.59352 0.90538 0.0
C658 C 0.63729 0.5789 0.8231 0.0
C659 C 0.59575 0.61172 0.84633 0.0
O660 O 0.60436 0.6129 0.7915 0.0
O661 O 0.6165 0.6443 0.79161 0.0
O662 O 0.61316 0.65238 0.82819 0.0
O663 O 0.6435 0.641 0.83221 0.0
O664 O 0.6546 0.61593 0.80294 0.0
O665 O 0.6746 0.61917 0.82695 0.0
O666 O 0.65103 0.61936 0.87202 0.0
O667 O 0.66836 0.59302 0.86259 0.0
O668 O 0.65449 0.57912 0.8315 0.0
O669 O 0.62599 0.59374 0.82736 0.0
O670 O 0.61356 0.61105 0.85472 0.0
O671 O 0.59508 0.61431 0.82974 0.0
H672 H 0.61915 0.59549 0.76465 0.0
H673 H 0.6252 0.59332 0.73407 0.0
H674 H 0.61204 0.65849 0.72925 0.0
H675 H 0.60614 0.66061 0.75974 0.0
H676 H 0.63075 0.57776 0.88262 0.0
H677 H 0.6249 0.5574 0.90846 0.0
H678 H 0.68054 0.58295 0.93025 0.0
H679 H 0.68595 0.60342 0.90459 0.0
Nd680 Nd 0.6302 0.37372 0.06556 0.0
Nd681 Nd 0.64355 0.39944 0.09618 0.0
C682 C 0.6243 0.35742 0.03508 0.0
C683 C 0.62529 0.36239 0.0167 0.0
C684 C 0.64411 0.3665 1.00842 0.0
C685 C 0.64471 0.36942 0.99079 0.0
C686 C 0.62652 0.36825 0.98101 0.0
C687 C 0.60769 0.36466 0.98944 0.0
C688 C 0.60711 0.3617 1.00701 0.0
C689 C 0.59913 0.38189 0.08828 0.0
C690 C 0.63511 0.4239 0.06124 0.0
C691 C 0.65003 0.41475 0.12704 0.0
C692 C 0.66297 0.41027 0.14231 0.0
C693 C 0.65367 0.40835 0.15833 0.0
C694 C 0.66569 0.40521 0.17296 0.0
C695 C 0.68742 0.40397 0.17202 0.0
C696 C 0.69665 0.4057 0.15589 0.0
C697 C 0.68463 0.40875 0.14127 0.0
C698 C 0.67496 0.38881 0.07476 0.0
C699 C 0.64194 0.34751 0.09859 0.0
O700 O 0.64166 0.35586 0.04349 0.0
O701 O 0.60957 0.36607 0.04394 0.0
O702 O 0.60163 0.36439 0.08055 0.0
O703 O 0.61248 0.39505 0.0836 0.0
O704 O 0.63721 0.40552 0.05432 0.0
O705 O 0.63394 0.42605 0.07795 0.0
O706 O 0.63491 0.40203 0.12353 0.0
O707 O 0.65954 0.42123 0.11342 0.0
O708 O 0.67437 0.40624 0.08279 0.0
O709 O 0.66028 0.37733 0.07913 0.0
O710 O 0.64302 0.36556 0.10654 0.0
O711 O 0.639 0.34636 0.08209 0.0
H712 H 0.65845 0.36706 0.01548 0.0
H713 H 0.65952 0.37198 0.98477 0.0
H714 H 0.5933 0.36403 0.98246 0.0
H715 H 0.59239 0.35851 0.013 0.0
H716 H 0.63704 0.40946 0.15957 0.0
H717 H 0.65786 0.40365 0.18502 0.0
H718 H 0.71328 0.40516 0.15452 0.0
H719 H 0.69239 0.4102 0.12917 0.0
Nd720 Nd 0.88259 0.37951 0.31403 0.0
Nd721 Nd 0.85762 0.39164 0.34565 0.0
C722 C 0.89828 0.37502 0.28313 0.0
C723 C 0.89262 0.37581 0.26485 0.0
C724 C 0.89098 0.39471 0.25611 0.0
C725 C 0.88742 0.3951 0.23857 0.0
C726 C 0.88543 0.37661 0.22931 0.0
C727 C 0.88674 0.35776 0.23815 0.0
C728 C 0.89036 0.35737 0.25564 0.0
C729 C 0.87514 0.34761 0.33615 0.0
C730 C 0.83218 0.38406 0.31095 0.0
C731 C 0.84249 0.39664 0.37679 0.0
C732 C 0.84713 0.40862 0.39239 0.0
C733 C 0.83701 0.40376 0.4076 0.0
C734 C 0.84023 0.41564 0.42225 0.0
C735 C 0.85365 0.43279 0.42206 0.0
C736 C 0.86403 0.4374 0.40679 0.0
C737 C 0.86082 0.42545 0.39215 0.0
C738 C 0.86781 0.42388 0.32485 0.0
C739 C 0.90953 0.39019 0.34697 0.0
O740 O 0.89882 0.39239 0.2916 0.0
O741 O 0.89109 0.35966 0.29216 0.0
O742 O 0.89229 0.3502 0.32789 0.0
O743 O 0.86188 0.36122 0.33216 0.0
O744 O 0.85032 0.38619 0.30358 0.0
O745 O 0.83057 0.38265 0.3277 0.0
O746 O 0.85519 0.38172 0.37268 0.0
O747 O 0.8364 0.40725 0.36361 0.0
O748 O 0.85063 0.42307 0.33323 0.0
O749 O 0.87929 0.40894 0.32859 0.0
O750 O 0.89174 0.39019 0.35539 0.0
O751 O 0.91014 0.38852 0.33031 0.0
H752 H 0.89277 0.40924 0.26274 0.0
H753 H 0.88628 0.40991 0.23226 0.0
H754 H 0.88562 0.34321 0.23145 0.0
H755 H 0.89185 0.34255 0.26191 0.0
H756 H 0.8263 0.39092 0.40809 0.0
H757 H 0.83173 0.41167 0.43361 0.0
H758 H 0.87471 0.45023 0.40613 0.0
H759 H 0.86886 0.42951 0.38057 0.0
Nd760 Nd 0.8727 0.63001 0.56424 0.0
Nd761 Nd 0.85951 0.60381 0.59459 0.0
C762 C 0.87857 0.64667 0.53385 0.0
C763 C 0.87739 0.64212 0.51539 0.0
C764 C 0.85836 0.64096 0.50678 0.0
C765 C 0.85774 0.63853 0.48911 0.0
C766 C 0.87613 0.63731 0.47959 0.0
C767 C 0.89509 0.63797 0.48831 0.0
C768 C 0.8957 0.64042 0.50593 0.0
C769 C 0.90388 0.6216 0.58686 0.0
C770 C 0.86778 0.57987 0.55957 0.0
C771 C 0.85293 0.58801 0.6253 0.0
C772 C 0.84024 0.59241 0.64072 0.0
C773 C 0.84986 0.59493 0.65656 0.0
C774 C 0.83812 0.59803 0.67133 0.0
C775 C 0.81634 0.59863 0.67075 0.0
C776 C 0.80677 0.59626 0.65481 0.0
C777 C 0.81851 0.59323 0.64004 0.0
C778 C 0.82821 0.61421 0.57297 0.0
C779 C 0.86066 0.65572 0.5974 0.0
O780 O 0.86131 0.6484 0.54237 0.0
O781 O 0.89322 0.63761 0.54256 0.0
O782 O 0.90125 0.63923 0.57933 0.0
O783 O 0.89057 0.60848 0.58206 0.0
O784 O 0.86529 0.59836 0.55287 0.0
O785 O 0.86961 0.57759 0.57623 0.0
O786 O 0.8683 0.60048 0.62186 0.0
O787 O 0.84318 0.58201 0.61165 0.0
O788 O 0.8291 0.5966 0.58074 0.0
O789 O 0.84257 0.62591 0.57762 0.0
O790 O 0.85961 0.63754 0.60519 0.0
O791 O 0.86377 0.65713 0.58093 0.0
H792 H 0.84393 0.64238 0.51364 0.0
H793 H 0.84285 0.63828 0.48287 0.0
H794 H 0.90956 0.63672 0.48151 0.0
H795 H 0.9106 0.64138 0.51213 0.0
H796 H 0.86655 0.59434 0.65754 0.0
H797 H 0.8462 0.6001 0.68322 0.0
H798 H 0.7901 0.59629 0.65372 0.0
H799 H 0.81049 0.59127 0.62811 0.0
Nd800 Nd 0.62359 0.37931 0.71286 0.0
Nd801 Nd 0.64769 0.39181 0.68098 0.0
C802 C 0.60845 0.3726 0.74367 0.0
C803 C 0.61314 0.37389 0.76207 0.0
C804 C 0.61706 0.39277 0.77028 0.0
C805 C 0.61986 0.39344 0.78793 0.0
C806 C 0.61871 0.37528 0.79776 0.0
C807 C 0.61526 0.35641 0.78938 0.0
C808 C 0.61246 0.35576 0.77182 0.0
C809 C 0.63207 0.34746 0.69092 0.0
C810 C 0.67315 0.38748 0.71591 0.0
C811 C 0.66259 0.39636 0.64972 0.0
C812 C 0.65874 0.40912 0.63431 0.0
C813 C 0.66247 0.4008 0.61817 0.0
C814 C 0.66007 0.41292 0.60351 0.0
C815 C 0.65388 0.43378 0.60456 0.0
C816 C 0.64985 0.44196 0.62081 0.0
C817 C 0.65221 0.4298 0.63546 0.0
C818 C 0.63674 0.42435 0.70102 0.0
C819 C 0.59581 0.38874 0.68019 0.0
O820 O 0.60534 0.3897 0.73517 0.0
O821 O 0.61838 0.35864 0.7349 0.0
O822 O 0.61475 0.3498 0.69894 0.0
O823 O 0.64487 0.36148 0.69482 0.0
O824 O 0.65487 0.38991 0.72294 0.0
O825 O 0.6748 0.38395 0.69938 0.0
O826 O 0.6488 0.38241 0.65374 0.0
O827 O 0.66995 0.40589 0.66301 0.0
O828 O 0.65309 0.42438 0.6916 0.0
O829 O 0.6257 0.40881 0.69813 0.0
O830 O 0.6135 0.38912 0.67162 0.0
O831 O 0.59546 0.38728 0.69686 0.0
H832 H 0.61762 0.40706 0.76314 0.0
H833 H 0.62235 0.40828 0.79392 0.0
H834 H 0.61467 0.34205 0.79642 0.0
H835 H 0.60942 0.341 0.76586 0.0
H836 H 0.66747 0.3849 0.6169 0.0
H837 H 0.66298 0.40583 0.59133 0.0
H838 H 0.64531 0.45795 0.62229 0.0
H839 H 0.64922 0.43669 0.64772 0.0
Nd840 Nd 0.87247 0.37196 0.96142 0.0
Nd841 Nd 0.8612 0.39737 0.92977 0.0
C842 C 0.8759 0.35599 0.99233 0.0
C843 C 0.87483 0.36158 1.01062 0.0
C844 C 0.85599 0.36078 0.01951 0.0
C845 C 0.85538 0.36414 0.03706 0.0
C846 C 0.8736 0.36831 0.0462 0.0
C847 C 0.89235 0.36949 0.03722 0.0
C848 C 0.89296 0.3661 0.0197 0.0
C849 C 0.90488 0.37937 0.93983 0.0
C850 C 0.86865 0.4224 0.96468 0.0
C851 C 0.85663 0.4125 0.89858 0.0
C852 C 0.84443 0.40787 0.88306 0.0
C853 C 0.85151 0.41457 0.86716 0.0
C854 C 0.83961 0.41141 0.85249 0.0
C855 C 0.82024 0.4015 0.85335 0.0
C856 C 0.81339 0.39448 0.86932 0.0
C857 C 0.82534 0.39758 0.88397 0.0
C858 C 0.82851 0.38731 0.95008 0.0
C859 C 0.86227 0.34545 0.92821 0.0
O860 O 0.8587 0.35594 0.98361 0.0
O861 O 0.89164 0.36279 0.98354 0.0
O862 O 0.90205 0.36219 0.948 0.0
O863 O 0.89128 0.39268 0.94368 0.0
O864 O 0.86609 0.40424 0.97192 0.0
O865 O 0.87035 0.42416 0.94796 0.0
O866 O 0.87133 0.39956 0.90276 0.0
O867 O 0.84627 0.41903 0.91174 0.0
O868 O 0.82966 0.40459 0.94187 0.0
O869 O 0.84339 0.37572 0.94645 0.0
O870 O 0.86261 0.36332 0.91989 0.0
O871 O 0.86357 0.34466 0.94488 0.0
H872 H 0.84173 0.35718 0.01298 0.0
H873 H 0.84062 0.36334 0.04349 0.0
H874 H 0.90673 0.37236 0.04382 0.0
H875 H 0.90778 0.36653 0.01334 0.0
H876 H 0.86613 0.4226 0.86612 0.0
H877 H 0.84539 0.41723 0.84053 0.0
H878 H 0.79877 0.3865 0.87052 0.0
H879 H 0.81955 0.39214 0.89605 0.0
Nd880 Nd 0.88048 0.62363 0.21164 0.0
Nd881 Nd 0.85573 0.6102 0.18039 0.0
C882 C 0.89637 0.62965 0.24228 0.0
C883 C 0.89123 0.62953 0.26064 0.0
C884 C 0.88466 0.61152 0.26906 0.0
C885 C 0.8816 0.61155 0.28668 0.0
C886 C 0.88507 0.62955 0.2963 0.0
C887 C 0.89116 0.64763 0.28772 0.0
C888 C 0.89424 0.64758 0.27016 0.0
C889 C 0.8728 0.65475 0.18877 0.0
C890 C 0.8302 0.61826 0.21499 0.0
C891 C 0.84102 0.60371 0.1493 0.0
C892 C 0.84541 0.59073 0.13403 0.0
C893 C 0.8502 0.6001 0.11843 0.0
C894 C 0.85315 0.58817 0.10373 0.0
C895 C 0.85131 0.56646 0.10416 0.0
C896 C 0.84668 0.55712 0.11987 0.0
C897 C 0.8438 0.56904 0.13455 0.0
C898 C 0.8663 0.57869 0.20183 0.0
C899 C 0.90761 0.61204 0.17903 0.0
O900 O 0.89712 0.61196 0.2343 0.0
O901 O 0.8886 0.6445 0.233 0.0
O902 O 0.89 0.65239 0.197 0.0
O903 O 0.8596 0.64123 0.19307 0.0
O904 O 0.84839 0.61673 0.22237 0.0
O905 O 0.82854 0.61922 0.19822 0.0
O906 O 0.85389 0.61865 0.15294 0.0
O907 O 0.83415 0.59436 0.16286 0.0
O908 O 0.84917 0.57902 0.19336 0.0
O909 O 0.87761 0.59364 0.19781 0.0
O910 O 0.88983 0.61166 0.17061 0.0
O911 O 0.90817 0.61423 0.19564 0.0
H912 H 0.88227 0.5973 0.26212 0.0
H913 H 0.87708 0.59728 0.29282 0.0
H914 H 0.89362 0.66189 0.29458 0.0
H915 H 0.89935 0.66167 0.26403 0.0
H916 H 0.85147 0.61675 0.11755 0.0
H917 H 0.85696 0.59603 0.09203 0.0
H918 H 0.84478 0.54055 0.12081 0.0
H919 H 0.84001 0.5612 0.14627 0.0
Nd920 Nd 0.62614 0.62761 0.46153 0.0
Nd921 Nd 0.64318 0.60498 0.43007 0.0
C922 C 0.61696 0.64188 0.49211 0.0
C923 C 0.6197 0.63704 0.51042 0.0
C924 C 0.63859 0.64055 0.5188 0.0
C925 C 0.64032 0.63747 0.53635 0.0
C926 C 0.62325 0.63079 0.54596 0.0
C927 C 0.60451 0.62693 0.53749 0.0
C928 C 0.60275 0.6301 0.51999 0.0
C929 C 0.59782 0.62259 0.43586 0.0
C930 C 0.63426 0.5775 0.46463 0.0
C931 C 0.65208 0.58578 0.40122 0.0
C932 C 0.66471 0.58953 0.38562 0.0
C933 C 0.65515 0.59015 0.36963 0.0
C934 C 0.66681 0.59303 0.35478 0.0
C935 C 0.68848 0.5953 0.35542 0.0
C936 C 0.698 0.59475 0.3715 0.0
C937 C 0.68632 0.59194 0.38635 0.0
C938 C 0.67234 0.6248 0.44927 0.0
C939 C 0.63924 0.65545 0.42959 0.0
O940 O 0.63317 0.64785 0.48345 0.0
O941 O 0.60462 0.62993 0.48335 0.0
O942 O 0.59936 0.63893 0.44524 0.0
O943 O 0.6107 0.60891 0.44041 0.0
O944 O 0.62879 0.59491 0.472 0.0
O945 O 0.63994 0.57681 0.44845 0.0
O946 O 0.63545 0.59709 0.4033 0.0
O947 O 0.66193 0.58245 0.41548 0.0
O948 O 0.67367 0.62293 0.43297 0.0
O949 O 0.65718 0.61481 0.4549 0.0
O950 O 0.63772 0.63832 0.42049 0.0
O951 O 0.63865 0.65499 0.44632 0.0
H952 H 0.65198 0.64597 0.51187 0.0
H953 H 0.65505 0.64038 0.5424 0.0
H954 H 0.59096 0.62206 0.54447 0.0
H955 H 0.58793 0.6275 0.51399 0.0
H956 H 0.63856 0.58833 0.36859 0.0
H957 H 0.65873 0.59367 0.34278 0.0
H958 H 0.71461 0.59611 0.37266 0.0
H959 H 0.69431 0.59149 0.39841 0.0
Nd960 Nd 0.35467 0.39294 0.17992 0.0
Nd961 Nd 0.37961 0.37908 0.2106 0.0
C962 C 0.33964 0.39936 0.14892 0.0
C963 C 0.34399 0.41218 0.13353 0.0
C964 C 0.35009 0.40273 0.11828 0.0
C965 C 0.35312 0.41446 0.10348 0.0
C966 C 0.35004 0.43603 0.10343 0.0
C967 C 0.34406 0.44546 0.11877 0.0
C968 C 0.34108 0.43375 0.13356 0.0
C969 C 0.36488 0.42431 0.2015 0.0
C970 C 0.40667 0.39138 0.17826 0.0
C971 C 0.39447 0.37105 0.24125 0.0
C972 C 0.38878 0.37268 0.25939 0.0
C973 C 0.382 0.39132 0.26668 0.0
C974 C 0.37742 0.39234 0.28405 0.0
C975 C 0.37937 0.37473 0.29444 0.0
C976 C 0.38593 0.3561 0.287 0.0
C977 C 0.39062 0.35513 0.26973 0.0
C978 C 0.37178 0.34827 0.18754 0.0
C979 C 0.32992 0.38638 0.21479 0.0
O980 O 0.35242 0.38431 0.15257 0.0
O981 O 0.33298 0.40886 0.16248 0.0
O982 O 0.34777 0.42387 0.19299 0.0
O983 O 0.37644 0.40952 0.19745 0.0
O984 O 0.38876 0.39269 0.17009 0.0
O985 O 0.40749 0.38805 0.19474 0.0
O986 O 0.39845 0.38808 0.23293 0.0
O987 O 0.38423 0.35759 0.23222 0.0
O988 O 0.38917 0.35087 0.1954 0.0
O989 O 0.3585 0.36156 0.19218 0.0
O990 O 0.34838 0.38864 0.22151 0.0
O991 O 0.32785 0.38381 0.19818 0.0
H992 H 0.35236 0.38616 0.11776 0.0
H993 H 0.35799 0.40656 0.09207 0.0
H994 H 0.3412 0.46192 0.11931 0.0
H995 H 0.33622 0.44164 0.14497 0.0
H996 H 0.38032 0.4051 0.259 0.0
H997 H 0.37223 0.40688 0.28932 0.0
H998 H 0.3879 0.34232 0.29462 0.0
H999 H 0.3959 0.34061 0.26444 0.0
Nd1000 Nd 0.3604 0.60431 0.92874 0.0
Nd1001 Nd 0.3718 0.62997 0.95999 0.0
C1002 C 0.35576 0.58857 0.89779 0.0
C1003 C 0.34364 0.59302 0.88222 0.0
C1004 C 0.33046 0.61022 0.88117 0.0
C1005 C 0.31827 0.61355 0.86666 0.0
C1006 C 0.31896 0.59974 0.85283 0.0
C1007 C 0.33245 0.58268 0.85394 0.0
C1008 C 0.34459 0.57937 0.86844 0.0
C1009 C 0.32771 0.61494 0.94881 0.0
C1010 C 0.36215 0.65617 0.92642 0.0
C1011 C 0.37529 0.64622 0.99076 0.0
C1012 C 0.37345 0.64095 1.00908 0.0
C1013 C 0.35511 0.64515 0.018 0.0
C1014 C 0.35401 0.64215 0.03558 0.0
C1015 C 0.37126 0.63495 0.04473 0.0
C1016 C 0.38944 0.63031 0.03572 0.0
C1017 C 0.39055 0.63333 0.01816 0.0
C1018 C 0.4043 0.62206 0.93859 0.0
C1019 C 0.36748 0.57969 0.96385 0.0
O1020 O 0.37047 0.60154 0.90183 0.0
O1021 O 0.34524 0.58247 0.911 0.0
O1022 O 0.32887 0.59745 0.94092 0.0
O1023 O 0.34266 0.62641 0.94511 0.0
O1024 O 0.3616 0.63814 0.91841 0.0
O1025 O 0.36404 0.6573 0.94304 0.0
O1026 O 0.35833 0.6471 0.98175 0.0
O1027 O 0.39085 0.63842 0.9823 0.0
O1028 O 0.40146 0.63935 0.94658 0.0
O1029 O 0.39064 0.60886 0.94256 0.0
O1030 O 0.36467 0.59796 0.97081 0.0
O1031 O 0.36956 0.57776 0.94718 0.0
H1032 H 0.32944 0.62098 0.89164 0.0
H1033 H 0.30834 0.627 0.86627 0.0
H1034 H 0.33328 0.57151 0.84376 0.0
H1035 H 0.35453 0.56592 0.86899 0.0
H1036 H 0.34168 0.65119 1.01146 0.0
H1037 H 0.33965 0.64563 0.04202 0.0
H1038 H 0.40313 0.62501 0.04231 0.0
H1039 H 0.40502 0.63017 1.01178 0.0
Nd1040 Nd 0.14753 0.60989 0.68046 0.0
Nd1041 Nd 0.12124 0.62352 0.71074 0.0
C1042 C 0.1633 0.6029 0.64982 0.0
C1043 C 0.15889 0.59014 0.63445 0.0
C1044 C 0.1565 0.59968 0.61856 0.0
C1045 C 0.15352 0.58786 0.60382 0.0
C1046 C 0.15293 0.56608 0.60451 0.0
C1047 C 0.15511 0.55661 0.62051 0.0
C1048 C 0.15802 0.56843 0.63524 0.0
C1049 C 0.13727 0.57905 0.70245 0.0
C1050 C 0.09562 0.61081 0.67764 0.0
C1051 C 0.10394 0.62947 0.74086 0.0
C1052 C 0.10842 0.62924 0.75925 0.0
C1053 C 0.1233 0.61601 0.76639 0.0
C1054 C 0.12664 0.61583 0.78399 0.0
C1055 C 0.11523 0.62894 0.79477 0.0
C1056 C 0.10044 0.64218 0.78744 0.0
C1057 C 0.09711 0.64232 0.76993 0.0
C1058 C 0.12928 0.65408 0.68753 0.0
C1059 C 0.17162 0.61921 0.71537 0.0
O1060 O 0.15097 0.61842 0.65313 0.0
O1061 O 0.16917 0.59319 0.66354 0.0
O1062 O 0.15491 0.57983 0.69474 0.0
O1063 O 0.12549 0.59328 0.69764 0.0
O1064 O 0.11378 0.60974 0.66984 0.0
O1065 O 0.09424 0.61405 0.6941 0.0
O1066 O 0.10379 0.61173 0.73292 0.0
O1067 O 0.1122 0.64433 0.7319 0.0
O1068 O 0.11169 0.6516 0.69517 0.0
O1069 O 0.14255 0.64109 0.69263 0.0
O1070 O 0.15315 0.61747 0.72227 0.0
O1071 O 0.17388 0.61998 0.69865 0.0
H1072 H 0.15713 0.61635 0.6175 0.0
H1073 H 0.15158 0.59586 0.59188 0.0
H1074 H 0.15507 0.53994 0.62168 0.0
H1075 H 0.15986 0.56047 0.64722 0.0
H1076 H 0.13228 0.60579 0.75839 0.0
H1077 H 0.13828 0.60557 0.78913 0.0
H1078 H 0.09109 0.65223 0.79528 0.0
H1079 H 0.08548 0.65256 0.76471 0.0
Nd1080 Nd 0.14434 0.39685 0.43087 0.0
Nd1081 Nd 0.13193 0.37099 0.46204 0.0
C1082 C 0.1497 0.41226 0.39986 0.0
C1083 C 0.16163 0.40745 0.38422 0.0
C1084 C 0.15517 0.41544 0.36854 0.0
C1085 C 0.1669 0.41214 0.3538 0.0
C1086 C 0.18549 0.40079 0.35435 0.0
C1087 C 0.19171 0.39249 0.37009 0.0
C1088 C 0.17992 0.39575 0.38482 0.0
C1089 C 0.17614 0.38656 0.45199 0.0
C1090 C 0.14331 0.34495 0.42869 0.0
C1091 C 0.12805 0.35453 0.49273 0.0
C1092 C 0.12848 0.35977 0.51112 0.0
C1093 C 0.14643 0.35637 0.52081 0.0
C1094 C 0.1463 0.35931 0.53842 0.0
C1095 C 0.12818 0.36559 0.54684 0.0
C1096 C 0.11038 0.36945 0.53707 0.0
C1097 C 0.11051 0.36653 0.51948 0.0
C1098 C 0.10025 0.37876 0.4398 0.0
C1099 C 0.13559 0.4216 0.46567 0.0
O1100 O 0.13443 0.39994 0.40386 0.0
O1101 O 0.16038 0.418 0.4131 0.0
O1102 O 0.17525 0.40403 0.44399 0.0
O1103 O 0.16148 0.37496 0.44783 0.0
O1104 O 0.1441 0.363 0.42069 0.0
O1105 O 0.1406 0.34376 0.44524 0.0
O1106 O 0.14551 0.35503 0.48437 0.0
O1107 O 0.11241 0.3611 0.48369 0.0
O1108 O 0.10276 0.3615 0.44794 0.0
O1109 O 0.11373 0.39198 0.44409 0.0
O1110 O 0.13739 0.40333 0.47293 0.0
O1111 O 0.13481 0.42352 0.44892 0.0
H1112 H 0.14118 0.42458 0.36774 0.0
H1113 H 0.16163 0.41897 0.34204 0.0
H1114 H 0.20571 0.3834 0.37106 0.0
H1115 H 0.18523 0.38931 0.39673 0.0
H1116 H 0.16047 0.3509 0.51484 0.0
H1117 H 0.16026 0.35597 0.54548 0.0
H1118 H 0.09623 0.37462 0.54303 0.0
H1119 H 0.09636 0.3692 0.51249 0.0
Nd1120 Nd 0.35403 0.61362 0.34377 0.0
Nd1121 Nd 0.37815 0.62626 0.31239 0.0
C1122 C 0.3392 0.60938 0.3751 0.0
C1123 C 0.34338 0.59715 0.39073 0.0
C1124 C 0.33736 0.60492 0.40659 0.0
C1125 C 0.34006 0.59316 0.42141 0.0
C1126 C 0.34881 0.57323 0.42078 0.0
C1127 C 0.35516 0.56565 0.40484 0.0
C1128 C 0.35251 0.57746 0.39003 0.0
C1129 C 0.36419 0.58098 0.32357 0.0
C1130 C 0.40596 0.61513 0.34456 0.0
C1131 C 0.39309 0.63408 0.28169 0.0
C1132 C 0.38829 0.63234 0.26336 0.0
C1133 C 0.38278 0.61349 0.25576 0.0
C1134 C 0.37938 0.61236 0.23821 0.0
C1135 C 0.38132 0.63005 0.2279 0.0
C1136 C 0.38659 0.64889 0.23565 0.0
C1137 C 0.39006 0.64999 0.25312 0.0
C1138 C 0.3703 0.65774 0.33493 0.0
C1139 C 0.32876 0.61793 0.30877 0.0
O1140 O 0.35263 0.62356 0.37085 0.0
O1141 O 0.33221 0.59926 0.36198 0.0
O1142 O 0.34782 0.58136 0.33298 0.0
O1143 O 0.37565 0.59625 0.32644 0.0
O1144 O 0.38833 0.61507 0.3532 0.0
O1145 O 0.4062 0.61702 0.32792 0.0
O1146 O 0.39724 0.6172 0.29019 0.0
O1147 O 0.38227 0.64737 0.29045 0.0
O1148 O 0.3878 0.65486 0.32731 0.0
O1149 O 0.35714 0.64432 0.33048 0.0
O1150 O 0.34714 0.61545 0.30196 0.0
O1151 O 0.32693 0.62144 0.32529 0.0
H1152 H 0.33022 0.62002 0.40749 0.0
H1153 H 0.33474 0.59952 0.43332 0.0
H1154 H 0.36225 0.55055 0.40378 0.0
H1155 H 0.3574 0.5711 0.37798 0.0
H1156 H 0.38124 0.59961 0.26332 0.0
H1157 H 0.37514 0.59764 0.23271 0.0
H1158 H 0.38854 0.66277 0.22815 0.0
H1159 H 0.39444 0.66467 0.25864 0.0
Nd1160 Nd 0.14172 0.60463 0.0936 0.0
Nd1161 Nd 0.12868 0.62997 0.06235 0.0
C1162 C 0.14733 0.58953 0.1247 0.0
C1163 C 0.15933 0.59452 0.14028 0.0
C1164 C 0.15249 0.58738 0.15612 0.0
C1165 C 0.16422 0.59083 0.17084 0.0
C1166 C 0.1832 0.60147 0.17012 0.0
C1167 C 0.18981 0.60893 0.1542 0.0
C1168 C 0.17802 0.60553 0.1395 0.0
C1169 C 0.1734 0.61525 0.07251 0.0
C1170 C 0.13991 0.65649 0.09542 0.0
C1171 C 0.12337 0.64685 0.03196 0.0
C1172 C 0.12398 0.64268 0.01353 0.0
C1173 C 0.13852 0.62923 1.0062 0.0
C1174 C 0.13921 0.62657 0.98853 0.0
C1175 C 0.12545 0.63738 0.97786 0.0
C1176 C 0.11073 0.65052 0.98538 0.0
C1177 C 0.11004 0.65312 1.00296 0.0
C1178 C 0.09734 0.62197 0.0849 0.0
C1179 C 0.13406 0.57968 0.05864 0.0
O1180 O 0.13197 0.60174 0.12067 0.0
O1181 O 0.15794 0.58368 0.11145 0.0
O1182 O 0.17288 0.59796 0.08078 0.0
O1183 O 0.15846 0.62665 0.07644 0.0
O1184 O 0.141 0.63857 0.10358 0.0
O1185 O 0.13715 0.65743 0.07887 0.0
O1186 O 0.14093 0.64713 0.04019 0.0
O1187 O 0.10836 0.63851 0.04069 0.0
O1188 O 0.09964 0.63923 0.07674 0.0
O1189 O 0.11092 0.60887 0.08055 0.0
O1190 O 0.13553 0.59799 0.05143 0.0
O1191 O 0.13307 0.57773 0.07539 0.0
H1192 H 0.13818 0.57879 0.15708 0.0
H1193 H 0.15863 0.58465 0.18274 0.0
H1194 H 0.20412 0.61747 0.15309 0.0
H1195 H 0.18364 0.61132 0.12747 0.0
H1196 H 0.14947 0.62099 0.0141 0.0
H1197 H 0.15082 0.61643 0.98321 0.0
H1198 H 0.09964 0.65879 0.97766 0.0
H1199 H 0.09867 0.66353 1.00832 0.0
Nd1200 Nd 0.14547 0.39348 0.84366 0.0
Nd1201 Nd 0.12141 0.3756 0.81348 0.0
C1202 C 0.16583 0.40279 0.87186 0.0
C1203 C 0.16244 0.41537 0.88754 0.0
C1204 C 0.16072 0.40561 0.90341 0.0
C1205 C 0.15798 0.41719 0.91831 0.0
C1206 C 0.15698 0.43895 0.91783 0.0
C1207 C 0.15871 0.44868 0.90189 0.0
C1208 C 0.16139 0.43709 0.88699 0.0
C1209 C 0.12452 0.42225 0.82485 0.0
C1210 C 0.09503 0.38964 0.84571 0.0
C1211 C 0.10563 0.36373 0.78405 0.0
C1212 C 0.10889 0.36574 0.76557 0.0
C1213 C 0.11916 0.38278 0.75845 0.0
C1214 C 0.12161 0.38432 0.74079 0.0
C1215 C 0.11382 0.36886 0.72994 0.0
C1216 C 0.10382 0.35173 0.73728 0.0
C1217 C 0.10138 0.35023 0.75485 0.0
C1218 C 0.12864 0.34821 0.83959 0.0
C1219 C 0.17088 0.38591 0.80796 0.0
O1220 O 0.15481 0.38593 0.87013 0.0
O1221 O 0.16834 0.41266 0.8575 0.0
O1222 O 0.12717 0.42379 0.84106 0.0
O1223 O 0.13415 0.40695 0.81901 0.0
O1224 O 0.11255 0.38779 0.8543 0.0
O1225 O 0.09483 0.38911 0.82899 0.0
O1226 O 0.09938 0.38016 0.79228 0.0
O1227 O 0.11926 0.35288 0.79248 0.0
O1228 O 0.11142 0.34959 0.83132 0.0
O1229 O 0.1418 0.36084 0.83386 0.0
O1230 O 0.15291 0.38091 0.80127 0.0
O1231 O 0.17271 0.3903 0.82435 0.0
H1232 H 0.16152 0.38893 0.90432 0.0
H1233 H 0.15644 0.40899 0.9302 0.0
H1234 H 0.15837 0.46535 0.90089 0.0
H1235 H 0.16276 0.44524 0.87506 0.0
H1236 H 0.12515 0.39492 0.7665 0.0
H1237 H 0.12927 0.3978 0.73564 0.0
H1238 H 0.09798 0.33933 0.72944 0.0
H1239 H 0.09354 0.33689 0.76009 0.0
Nd1240 Nd 0.35943 0.40089 0.59472 0.0
Nd1241 Nd 0.3765 0.37761 0.56078 0.0
C1242 C 0.35125 0.42084 0.62337 0.0
C1243 C 0.3393 0.41709 0.63917 0.0
C1244 C 0.33949 0.43181 0.65221 0.0
C1245 C 0.32773 0.42888 0.66698 0.0
C1246 C 0.31538 0.41112 0.66912 0.0
C1247 C 0.3154 0.3963 0.656 0.0
C1248 C 0.32721 0.39925 0.64123 0.0
C1249 C 0.33105 0.38026 0.57552 0.0
C1250 C 0.36692 0.35037 0.59491 0.0
C1251 C 0.38119 0.36077 0.53043 0.0
C1252 C 0.37672 0.3643 0.51218 0.0
C1253 C 0.35703 0.36096 0.50512 0.0
C1254 C 0.35378 0.36343 0.48761 0.0
C1255 C 0.37012 0.36935 0.47685 0.0
C1256 C 0.3897 0.37276 0.48402 0.0
C1257 C 0.39295 0.3702 0.50138 0.0
C1258 C 0.40893 0.38893 0.582 0.0
C1259 C 0.36548 0.42721 0.55869 0.0
O1260 O 0.36798 0.40974 0.62106 0.0
O1261 O 0.34046 0.4231 0.60944 0.0
O1262 O 0.32906 0.38292 0.59173 0.0
O1263 O 0.34619 0.39037 0.5699 0.0
O1264 O 0.36606 0.36761 0.60405 0.0
O1265 O 0.36867 0.35037 0.57817 0.0
O1266 O 0.36608 0.35571 0.54072 0.0
O1267 O 0.39461 0.37328 0.53738 0.0
O1268 O 0.41124 0.37926 0.56778 0.0
O1269 O 0.38997 0.39209 0.58422 0.0
O1270 O 0.36821 0.40947 0.55076 0.0
O1271 O 0.36425 0.42843 0.57556 0.0
H1272 H 0.34861 0.44575 0.6509 0.0
H1273 H 0.32799 0.44081 0.67658 0.0
H1274 H 0.3064 0.38229 0.65718 0.0
H1275 H 0.32681 0.38763 0.63136 0.0
H1276 H 0.34421 0.35627 0.51305 0.0
H1277 H 0.33848 0.36076 0.48252 0.0
H1278 H 0.40274 0.37692 0.47612 0.0
H1279 H 0.40837 0.37256 0.50635 0.0
H1280 H 0.21892 0.11628 0.31411 0.0
H1281 H 0.24682 0.1152 0.29273 0.0
H1282 H 0.20144 0.11787 0.25284 0.0
H1283 H 0.17401 0.11919 0.27362 0.0
H1284 H 0.25376 0.08618 0.26587 0.0
H1285 H 0.2406 0.16415 0.23937 0.0
H1286 H 0.23017 0.15623 0.25957 0.0
H1287 H 0.21733 0.14916 0.24019 0.0
C1288 C 0.21495 0.11683 0.30079 0.0
C1289 C 0.1941 0.11792 0.29574 0.0
C1290 C 0.23091 0.11614 0.28856 0.0
C1291 C 0.22632 0.11681 0.27108 0.0
C1292 C 0.20555 0.1178 0.26615 0.0
H1293 H 0.27932 0.10712 0.17116 0.0
H1294 H 0.2582 0.11135 0.1966 0.0
C1295 C 0.18977 0.11842 0.27821 0.0
C1296 C 0.24279 0.11593 0.25771 0.0
H1297 H 0.25941 0.14053 0.22176 0.0
C1298 C 0.25527 0.09823 0.25639 0.0
C1299 C 0.24477 0.13156 0.24521 0.0
C1300 C 0.23265 0.15143 0.24622 0.0
C1301 C 0.26884 0.0953 0.24256 0.0
C1302 C 0.2703 0.11066 0.22976 0.0
C1303 C 0.25828 0.12864 0.23141 0.0
C1304 C 0.28356 0.10814 0.21427 0.0
C1305 C 0.28077 0.07534 0.24138 0.0
C1306 C 0.30504 0.10523 0.21551 0.0
C1307 C 0.31726 0.10288 0.2009 0.0
C1308 C 0.30837 0.10353 0.18458 0.0
C1309 C 0.28688 0.10676 0.1834 0.0
C1310 C 0.27469 0.10908 0.19801 0.0
H1311 H 0.27419 0.0632 0.24975 0.0
H1312 H 0.28097 0.06946 0.22817 0.0
H1313 H 0.29698 0.07808 0.24538 0.0
H1314 H 0.31246 0.10499 0.22781 0.0
H1315 H 0.33375 0.10082 0.20242 0.0
H1316 H 0.14751 0.02589 0.42087 0.0
H1317 H 0.1438 0.00415 0.44605 0.0
H1318 H 0.16007 0.05573 0.4778 0.0
H1319 H 0.16311 0.07779 0.45275 0.0
H1320 H 0.17263 0.99336 0.46967 0.0
H1321 H 0.10867 0.03507 0.50162 0.0
H1322 H 0.11563 0.03987 0.47982 0.0
H1323 H 0.13062 0.05092 0.49671 0.0
C1324 C 0.14995 0.03279 0.4332 0.0
C1325 C 0.15553 0.05376 0.43462 0.0
C1326 C 0.14797 0.02023 0.44764 0.0
C1327 C 0.15136 0.02824 0.46398 0.0
C1328 C 0.15695 0.04915 0.46546 0.0
H1329 H 0.14972 0.96179 0.56317 0.0
H1330 H 0.15459 0.98905 0.54159 0.0
C1331 C 0.15895 0.06173 0.45102 0.0
C1332 C 0.14976 0.01448 0.47927 0.0
H1333 H 0.12405 0.00752 0.51688 0.0
C1334 C 0.16201 0.99655 0.47997 0.0
C1335 C 0.13604 0.01855 0.4929 0.0
C1336 C 0.12184 0.03703 0.49273 0.0
C1337 C 0.16082 0.98264 0.49369 0.0
C1338 C 0.14681 0.98647 0.50713 0.0
C1339 C 0.1349 0.00462 0.50669 0.0
C1340 C 0.143 0.97074 0.52072 0.0
C1341 C 0.17455 0.96379 0.49366 0.0
C1342 C 0.13439 0.95164 0.51634 0.0
C1343 C 0.1315 0.93624 0.52854 0.0
C1344 C 0.13712 0.93934 0.54564 0.0
C1345 C 0.14521 0.95877 0.55019 0.0
C1346 C 0.14803 0.97436 0.53785 0.0
H1347 H 0.18809 0.96583 0.48517 0.0
H1348 H 0.18018 0.96023 0.50663 0.0
H1349 H 0.16558 0.95031 0.48906 0.0
H1350 H 0.13005 0.94851 0.50333 0.0
H1351 H 0.12508 0.92167 0.52435 0.0
H1352 H 0.28917 0.88998 0.81326 0.0
H1353 H 0.26179 0.89214 0.7915 0.0
H1354 H 0.30728 0.88272 0.7524 0.0
H1355 H 0.3342 0.8803 0.77361 0.0
H1356 H 0.25801 0.9201 0.7637 0.0
H1357 H 0.26395 0.84008 0.73983 0.0
H1358 H 0.27495 0.84791 0.75984 0.0
H1359 H 0.28851 0.85285 0.74034 0.0
C1360 C 0.29325 0.88808 0.80004 0.0
C1361 C 0.314 0.88485 0.79534 0.0
C1362 C 0.27759 0.88942 0.78758 0.0
C1363 C 0.28233 0.88726 0.77022 0.0
C1364 C 0.303 0.88399 0.76563 0.0
H1365 H 0.23003 0.89653 0.66965 0.0
H1366 H 0.25094 0.89178 0.69517 0.0
C1367 C 0.3185 0.88273 0.77792 0.0
C1368 C 0.26619 0.88909 0.75661 0.0
H1369 H 0.24744 0.86448 0.7214 0.0
C1370 C 0.25542 0.90781 0.75461 0.0
C1371 C 0.26281 0.87316 0.7446 0.0
C1372 C 0.27302 0.8523 0.74633 0.0
C1373 C 0.24222 0.91134 0.74062 0.0
C1374 C 0.23933 0.89559 0.72834 0.0
C1375 C 0.24965 0.87667 0.73064 0.0
C1376 C 0.22623 0.89854 0.71277 0.0
C1377 C 0.23224 0.93228 0.73874 0.0
C1378 C 0.20515 0.90366 0.71395 0.0
C1379 C 0.19306 0.90635 0.69929 0.0
C1380 C 0.20164 0.90382 0.68298 0.0
C1381 C 0.2227 0.8984 0.68188 0.0
C1382 C 0.23477 0.89577 0.69654 0.0
H1383 H 0.24009 0.94415 0.74658 0.0
H1384 H 0.23242 0.93743 0.72531 0.0
H1385 H 0.21592 0.93133 0.74295 0.0
H1386 H 0.19791 0.90536 0.72624 0.0
H1387 H 0.17686 0.9101 0.70077 0.0
H1388 H 0.35549 0.9776 0.92102 0.0
H1389 H 0.35955 0.99912 0.94624 0.0
H1390 H 0.35503 0.94511 0.97797 0.0
H1391 H 0.35151 0.92336 0.95276 0.0
H1392 H 0.33215 0.0044 0.97288 0.0
H1393 H 0.40646 0.97322 0.99711 0.0
H1394 H 0.39739 0.96825 0.97588 0.0
H1395 H 0.38668 0.95428 0.99349 0.0
C1396 C 0.35571 0.97017 0.93331 0.0
C1397 C 0.35325 0.9486 0.9347 0.0
C1398 C 0.35789 0.98258 0.9478 0.0
C1399 C 0.35788 0.97382 0.96411 0.0
C1400 C 0.35548 0.95231 0.96558 0.0
H1401 H 0.36602 0.03905 0.0636 0.0
H1402 H 0.36244 0.01129 0.04232 0.0
C1403 C 0.35321 0.93987 0.95109 0.0
C1404 C 0.35957 0.98738 0.97948 0.0
H1405 H 0.38975 0.99829 0.01408 0.0
C1406 C 0.34473 0.00296 0.98189 0.0
C1407 C 0.37585 0.98552 0.99143 0.0
C1408 C 0.39263 0.96955 0.98935 0.0
C1409 C 0.34583 0.01676 0.99566 0.0
C1410 C 0.36243 0.01533 1.00732 0.0
C1411 C 0.37698 0.99939 1.00523 0.0
C1412 C 0.36585 0.03149 0.02062 0.0
C1413 C 0.32917 0.03291 0.99755 0.0
C1414 C 0.36959 0.05191 0.01561 0.0
C1415 C 0.37168 0.06761 0.02762 0.0
C1416 C 0.37019 0.0635 0.04514 0.0
C1417 C 0.36724 0.04285 0.05027 0.0
C1418 C 0.36514 0.02698 0.0381 0.0
H1419 H 0.31474 0.02831 0.99094 0.0
H1420 H 0.32558 0.03576 1.01111 0.0
H1421 H 0.33459 0.04763 0.99187 0.0
H1422 H 0.37066 0.05582 1.00229 0.0
H1423 H 0.37421 0.08317 0.023 0.0
H1424 H 0.31633 0.93044 0.32771 0.0
H1425 H 0.29394 0.92691 0.30289 0.0
H1426 H 0.26486 0.87382 0.32552 0.0
H1427 H 0.28748 0.87681 0.35019 0.0
H1428 H 0.28768 0.89232 0.27995 0.0
H1429 H 0.21615 0.91338 0.31463 0.0
H1430 H 0.24162 0.91857 0.32292 0.0
H1431 H 0.23095 0.893 0.32423 0.0
C1432 C 0.3054 0.9178 0.32739 0.0
C1433 C 0.30378 0.90399 0.34118 0.0
C1434 C 0.29249 0.91589 0.31316 0.0
C1435 C 0.27747 0.90027 0.31237 0.0
C1436 C 0.27604 0.88624 0.32592 0.0
H1437 H 0.17752 0.86257 0.24748 0.0
H1438 H 0.20427 0.86689 0.26882 0.0
C1439 C 0.28899 0.88805 0.34011 0.0
C1440 C 0.26312 0.89873 0.29755 0.0
H1441 H 0.21198 0.90057 0.28677 0.0
C1442 C 0.27113 0.89425 0.2814 0.0
C1443 C 0.24152 0.90133 0.29936 0.0
C1444 C 0.23199 0.90702 0.31617 0.0
C1445 C 0.25808 0.8915 0.26721 0.0
C1446 C 0.23641 0.89375 0.2691 0.0
C1447 C 0.22852 0.89872 0.28521 0.0
C1448 C 0.22138 0.89007 0.25493 0.0
C1449 C 0.2676 0.88543 0.2505 0.0
C1450 C 0.22208 0.90133 0.23962 0.0
C1451 C 0.20673 0.89868 0.22712 0.0
C1452 C 0.1902 0.88494 0.22981 0.0
C1453 C 0.18993 0.87336 0.24493 0.0
C1454 C 0.20526 0.87586 0.25724 0.0
H1455 H 0.28345 0.87913 0.25215 0.0
H1456 H 0.25801 0.8737 0.24393 0.0
H1457 H 0.26865 0.89927 0.24224 0.0
H1458 H 0.23406 0.91272 0.23757 0.0
H1459 H 0.20728 0.90805 0.21576 0.0
H1460 H 0.35953 0.96501 0.46185 0.0
H1461 H 0.35713 0.99252 0.48344 0.0
H1462 H 0.37805 0.94973 0.52163 0.0
H1463 H 0.38058 0.92263 0.50047 0.0
H1464 H 0.33254 0.99221 0.51385 0.0
H1465 H 0.41544 0.99961 0.52971 0.0
H1466 H 0.40658 0.98733 0.5105 0.0
H1467 H 0.40657 0.97337 0.53023 0.0
C1468 C 0.36397 0.96163 0.47479 0.0
C1469 C 0.37032 0.94156 0.47933 0.0
C1470 C 0.36247 0.97732 0.48716 0.0
C1471 C 0.36764 0.97334 0.50422 0.0
C1472 C 0.37432 0.95343 0.50859 0.0
H1473 H 0.36534 0.02694 0.60446 0.0
H1474 H 0.36934 0.00609 0.57887 0.0
C1475 C 0.37565 0.93784 0.49639 0.0
C1476 C 0.36529 0.98938 0.51781 0.0
H1477 H 0.39156 0.013 0.5501 0.0
C1478 C 0.34549 0.99704 0.5216 0.0
C1479 C 0.38212 0.99562 0.52809 0.0
C1480 C 0.40391 0.98872 0.52435 0.0
C1481 C 0.34196 0.00995 0.53575 0.0
C1482 C 0.35875 0.01578 0.54629 0.0
C1483 C 0.37862 0.00854 0.54218 0.0
C1484 C 0.35601 0.02876 0.56192 0.0
C1485 C 0.3201 0.01643 0.5397 0.0
C1486 C 0.34737 0.04868 0.5611 0.0
C1487 C 0.34487 0.06065 0.57583 0.0
C1488 C 0.35107 0.05311 0.59183 0.0
C1489 C 0.35999 0.03325 0.59253 0.0
C1490 C 0.36247 0.0213 0.57781 0.0
H1491 H 0.3086 0.00646 0.53321 0.0
H1492 H 0.31711 0.01591 0.55355 0.0
H1493 H 0.31767 0.03253 0.53529 0.0
H1494 H 0.34263 0.05508 0.54904 0.0
H1495 H 0.33781 0.07574 0.57466 0.0
H1496 H 0.22364 0.12418 0.85222 0.0
H1497 H 0.24526 0.1278 0.82699 0.0
H1498 H 0.21436 0.07603 0.80399 0.0
H1499 H 0.19292 0.07198 0.82928 0.0
H1500 H 0.27258 0.09912 0.81253 0.0
H1501 H 0.21108 0.11988 0.76651 0.0
H1502 H 0.20712 0.12088 0.78914 0.0
H1503 H 0.20661 0.09653 0.77826 0.0
C1504 C 0.22144 0.11342 0.8419 0.0
C1505 C 0.20633 0.09778 0.84298 0.0
C1506 C 0.2338 0.11562 0.82736 0.0
C1507 C 0.23133 0.10242 0.81337 0.0
C1508 C 0.21632 0.08677 0.81437 0.0
H1509 H 0.29924 0.09572 0.71581 0.0
H1510 H 0.27375 0.09036 0.73864 0.0
C1511 C 0.204 0.08449 0.82894 0.0
C1512 C 0.24495 0.10463 0.79806 0.0
H1513 H 0.24468 0.11486 0.7554 0.0
C1514 C 0.26643 0.10259 0.80006 0.0
C1515 C 0.23705 0.10894 0.78166 0.0
C1516 C 0.21422 0.11186 0.77869 0.0
C1517 C 0.28012 0.10469 0.78627 0.0
C1518 C 0.2723 0.10954 0.76993 0.0
C1519 C 0.25078 0.1112 0.76784 0.0
C1520 C 0.28637 0.11384 0.75519 0.0
C1521 C 0.3029 0.10133 0.78935 0.0
C1522 C 0.30138 0.1294 0.75643 0.0
C1523 C 0.31587 0.13242 0.7435 0.0
C1524 C 0.31566 0.12022 0.72872 0.0
C1525 C 0.29982 0.10548 0.72693 0.0
C1526 C 0.28531 0.10233 0.74005 0.0
H1527 H 0.30563 0.09146 0.80066 0.0
H1528 H 0.31046 0.094 0.77825 0.0
H1529 H 0.31044 0.11645 0.7917 0.0
H1530 H 0.30224 0.13899 0.76765 0.0
H1531 H 0.32767 0.14407 0.74532 0.0
H1532 H 0.12925 0.96964 0.10185 0.0
H1533 H 0.12639 0.99093 0.07635 0.0
H1534 H 0.17996 0.96095 0.05528 0.0
H1535 H 0.18325 0.93986 0.08086 0.0
H1536 H 0.15536 0.01866 0.06275 0.0
H1537 H 0.13798 0.95655 0.01642 0.0
H1538 H 0.13588 0.95273 0.03903 0.0
H1539 H 0.16079 0.95259 0.029 0.0
C1540 C 0.14056 0.96758 0.09189 0.0
C1541 C 0.15649 0.95284 0.0936 0.0
C1542 C 0.1388 0.97974 0.0772 0.0
C1543 C 0.15275 0.97742 0.06368 0.0
C1544 C 0.16868 0.96277 0.0653 0.0
H1545 H 0.16265 0.04593 0.9665 0.0
H1546 H 0.16758 0.02029 0.98933 0.0
C1547 C 0.17052 0.95066 0.08002 0.0
C1548 C 0.15103 0.99089 0.04825 0.0
H1549 H 0.14267 0.99021 1.00533 0.0
C1550 C 0.15257 0.0124 0.05021 0.0
C1551 C 0.14762 0.98282 0.03178 0.0
C1552 C 0.14529 0.95993 0.02885 0.0
C1553 C 0.15079 0.02597 0.03631 0.0
C1554 C 0.1468 0.01797 0.0199 0.0
C1555 C 0.14568 0.99643 0.01785 0.0
C1556 C 0.14273 0.0319 1.00504 0.0
C1557 C 0.1535 0.04882 0.03937 0.0
C1558 C 0.12658 0.04634 1.0058 0.0
C1559 C 0.1238 0.06089 0.99288 0.0
C1560 C 0.13688 0.06131 0.97861 0.0
C1561 C 0.15223 0.04598 0.97724 0.0
C1562 C 0.15513 0.03141 0.99035 0.0
H1563 H 0.16272 0.05182 0.05099 0.0
H1564 H 0.16123 0.05645 0.02847 0.0
H1565 H 0.13811 0.05606 0.04115 0.0
H1566 H 0.11638 0.04674 0.01667 0.0
H1567 H 0.11167 0.07229 0.99434 0.0
H1568 H 0.8289 0.87077 0.74873 0.0
H1569 H 0.80221 0.87367 0.77021 0.0
H1570 H 0.76024 0.89877 0.73308 0.0
H1571 H 0.78721 0.89551 0.71113 0.0
H1572 H 0.7851 0.90873 0.7815 0.0
H1573 H 0.72308 0.85747 0.75712 0.0
H1574 H 0.74902 0.85697 0.74873 0.0
H1575 H 0.73154 0.87726 0.74273 0.0
C1576 C 0.81392 0.87667 0.74495 0.0
C1577 C 0.8103 0.88295 0.7281 0.0
C1578 C 0.79861 0.87835 0.75736 0.0
C1579 C 0.77906 0.88641 0.75344 0.0
C1580 C 0.77504 0.89217 0.73648 0.0
H1581 H 0.67751 0.914 0.82495 0.0
H1582 H 0.69881 0.91086 0.79942 0.0
C1583 C 0.79048 0.89033 0.7239 0.0
C1584 C 0.76377 0.88975 0.76752 0.0
H1585 H 0.71605 0.87565 0.78246 0.0
C1586 C 0.76999 0.90149 0.78162 0.0
C1587 C 0.74392 0.88048 0.76781 0.0
C1588 C 0.73647 0.86719 0.75338 0.0
C1589 C 0.75723 0.90397 0.79595 0.0
C1590 C 0.73765 0.89425 0.79646 0.0
C1591 C 0.73109 0.88302 0.78217 0.0
C1592 C 0.72412 0.89524 0.81189 0.0
C1593 C 0.76486 0.91713 0.81042 0.0
C1594 C 0.73094 0.88712 0.82745 0.0
C1595 C 0.71872 0.88873 0.84209 0.0
C1596 C 0.69923 0.89849 0.84165 0.0
C1597 C 0.69226 0.90619 0.82591 0.0
C1598 C 0.70449 0.9045 0.81123 0.0
H1599 H 0.7773 0.92784 0.80633 0.0
H1600 H 0.75207 0.92633 0.81599 0.0
H1601 H 0.77124 0.90696 0.82048 0.0
H1602 H 0.74581 0.8795 0.82829 0.0
H1603 H 0.72455 0.88215 0.85377 0.0
H1604 H 0.89166 0.07458 0.49551 0.0
H1605 H 0.88715 0.048 0.51698 0.0
H1606 H 0.841 0.01843 0.48598 0.0
H1607 H 0.84584 0.04507 0.46403 0.0
H1608 H 0.85339 0.04066 0.53509 0.0
H1609 H 0.87421 0.9688 0.50081 0.0
H1610 H 0.87989 0.99414 0.49247 0.0
H1611 H 0.8542 0.98376 0.49088 0.0
C1612 C 0.88076 0.06226 0.49304 0.0
C1613 C 0.86914 0.06203 0.47793 0.0
C1614 C 0.87815 0.04702 0.50543 0.0
C1615 C 0.86379 0.031 0.50324 0.0
C1616 C 0.8525 0.03032 0.48795 0.0
H1617 H 0.8236 0.93592 0.57624 0.0
H1618 H 0.8272 0.95827 0.55138 0.0
C1619 C 0.85525 0.0456 0.47537 0.0
C1620 C 0.86002 0.01608 0.51753 0.0
H1621 H 0.86118 0.96489 0.5287 0.0
C1622 C 0.85514 0.0241 0.53362 0.0
C1623 C 0.86213 0.99438 0.51578 0.0
C1624 C 0.86807 0.9847 0.49911 0.0
C1625 C 0.85247 0.01122 0.54786 0.0
C1626 C 0.85495 0.98959 0.54619 0.0
C1627 C 0.85935 0.98145 0.53006 0.0
C1628 C 0.85333 0.97531 0.56112 0.0
C1629 C 0.84678 0.02094 0.5646 0.0
C1630 C 0.86703 0.97705 0.57487 0.0
C1631 C 0.86516 0.96413 0.5891 0.0
C1632 C 0.84951 0.94902 0.59002 0.0
C1633 C 0.83603 0.9471 0.57605 0.0
C1634 C 0.83798 0.95999 0.56178 0.0
H1635 H 0.84023 0.03668 0.56291 0.0
H1636 H 0.83538 0.0113 0.57152 0.0
H1637 H 0.86084 0.02228 0.57256 0.0
H1638 H 0.87929 0.98843 0.57459 0.0
H1639 H 0.87617 0.9659 0.59932 0.0
H1640 H 0.66955 0.12285 0.25146 0.0
H1641 H 0.69639 0.11913 0.27267 0.0
H1642 H 0.74136 0.10795 0.23347 0.0
H1643 H 0.71417 0.11179 0.21175 0.0
H1644 H 0.71973 0.08425 0.27891 0.0
H1645 H 0.77056 0.15094 0.26366 0.0
H1646 H 0.74452 0.14889 0.25563 0.0
H1647 H 0.76479 0.13359 0.24651 0.0
C1648 C 0.68514 0.11975 0.24715 0.0
C1649 C 0.68955 0.11757 0.22973 0.0
C1650 C 0.70055 0.11761 0.25943 0.0
C1651 C 0.72102 0.11331 0.25482 0.0
C1652 C 0.72575 0.11155 0.23742 0.0
H1653 H 0.82676 0.0942 0.32407 0.0
H1654 H 0.80499 0.09748 0.2988 0.0
C1655 C 0.71018 0.11371 0.22498 0.0
C1656 C 0.73675 0.10985 0.26852 0.0
H1657 H 0.78048 0.12986 0.28667 0.0
C1658 C 0.73306 0.09419 0.28051 0.0
C1659 C 0.75427 0.1227 0.2707 0.0
C1660 C 0.75881 0.1401 0.25855 0.0
C1661 C 0.7461 0.0912 0.29461 0.0
C1662 C 0.76322 0.10448 0.29714 0.0
C1663 C 0.76732 0.11975 0.28488 0.0
C1664 C 0.77666 0.10297 0.31261 0.0
C1665 C 0.74143 0.07368 0.30664 0.0
C1666 C 0.76821 0.10529 0.32892 0.0
C1667 C 0.78062 0.10332 0.34344 0.0
C1668 C 0.80191 0.09904 0.34211 0.0
C1669 C 0.81041 0.09714 0.32571 0.0
C1670 C 0.79798 0.09917 0.31118 0.0
H1671 H 0.73192 0.06154 0.30047 0.0
H1672 H 0.75585 0.06649 0.31147 0.0
H1673 H 0.73257 0.07973 0.3176 0.0
H1674 H 0.75192 0.1086 0.33045 0.0
H1675 H 0.77337 0.10476 0.35575 0.0
H1676 H 0.63586 0.91759 1.00313 0.0
H1677 H 0.63901 0.94522 0.0236 0.0
H1678 H 0.63937 0.9901 0.98324 0.0
H1679 H 0.63607 0.96206 0.96223 0.0
H1680 H 0.67098 0.97335 0.02672 0.0
H1681 H 0.59614 0.01379 0.01655 0.0
H1682 H 0.60091 0.98803 1.00871 0.0
H1683 H 0.61209 0.00989 0.99816 0.0
C1684 C 0.6365 0.93328 0.99839 0.0
C1685 C 0.63571 0.93743 0.98083 0.0
C1686 C 0.63833 0.94916 1.01026 0.0
C1687 C 0.63933 0.96986 1.00512 0.0
C1688 C 0.63835 0.97429 0.98762 0.0
H1689 H 0.6506 0.07812 0.0729 0.0
H1690 H 0.6478 0.05599 0.04781 0.0
C1691 C 0.63653 0.95823 0.97558 0.0
C1692 C 0.64209 0.98628 0.01834 0.0
H1693 H 0.61788 0.02684 0.03796 0.0
C1694 C 0.65941 0.98513 0.02907 0.0
C1695 C 0.62708 0.00176 0.02149 0.0
C1696 C 0.6079 0.00349 1.01074 0.0
C1697 C 0.66197 0.99865 0.04289 0.0
C1698 C 0.64661 0.01365 0.04644 0.0
C1699 C 0.62961 0.0153 0.03539 0.0
C1700 C 0.64773 0.02726 0.0618 0.0
C1701 C 0.68123 0.99677 0.05356 0.0
C1702 C 0.64826 0.01864 0.07817 0.0
C1703 C 0.64993 0.03126 0.09257 0.0
C1704 C 0.65106 0.05293 0.09106 0.0
C1705 C 0.6501 0.06154 0.07464 0.0
C1706 C 0.64835 0.04888 0.06023 0.0
H1707 H 0.69393 0.98904 0.04651 0.0
H1708 H 0.6867 0.01216 0.05783 0.0
H1709 H 0.67776 0.9873 0.06494 0.0
H1710 H 0.64745 0.00205 0.07983 0.0
H1711 H 0.65077 0.02394 0.10489 0.0
H1712 H 0.82857 0.13524 0.77832 0.0
H1713 H 0.80168 0.13259 0.75693 0.0
H1714 H 0.76225 0.10134 0.79275 0.0
H1715 H 0.78934 0.10444 0.81461 0.0
H1716 H 0.78743 0.09758 0.74376 0.0
H1717 H 0.72143 0.14096 0.77124 0.0
H1718 H 0.7473 0.14285 0.77966 0.0
H1719 H 0.73157 0.12074 0.78445 0.0
C1720 C 0.81403 0.12814 0.78183 0.0
C1721 C 0.81114 0.12008 0.79825 0.0
C1722 C 0.79862 0.12657 0.7695 0.0
C1723 C 0.77978 0.11678 0.77306 0.0
C1724 C 0.77645 0.1093 0.78966 0.0
H1725 H 0.68069 0.08439 0.70082 0.0
H1726 H 0.70197 0.08778 0.72632 0.0
C1727 C 0.79195 0.11108 0.80219 0.0
C1728 C 0.76466 0.11332 0.7589 0.0
H1729 H 0.71552 0.12395 0.74513 0.0
C1730 C 0.77171 0.10337 0.74414 0.0
C1731 C 0.74402 0.12069 0.75926 0.0
C1732 C 0.7356 0.13206 0.77442 0.0
C1733 C 0.75898 0.10084 0.72981 0.0
C1734 C 0.73854 0.10864 0.73001 0.0
C1735 C 0.73121 0.11806 0.7449 0.0
C1736 C 0.72488 0.1075 0.7147 0.0
C1737 C 0.76754 0.08971 0.71456 0.0
C1738 C 0.73034 0.11778 0.69965 0.0
C1739 C 0.71809 0.11605 0.68504 0.0
C1740 C 0.69997 0.10396 0.685 0.0
C1741 C 0.69433 0.09404 0.70026 0.0
C1742 C 0.70657 0.09587 0.71491 0.0
H1743 H 0.78125 0.08018 0.71786 0.0
H1744 H 0.75567 0.07957 0.70875 0.0
H1745 H 0.77237 0.10124 0.70493 0.0
H1746 H 0.74417 0.12718 0.6992 0.0
H1747 H 0.72282 0.12435 0.67378 0.0
H1748 H 0.63363 0.04098 0.56333 0.0
H1749 H 0.63667 0.01308 0.54208 0.0
H1750 H 0.64612 0.05846 0.5029 0.0
H1751 H 0.64315 0.08591 0.52351 0.0
H1752 H 0.61301 0.00696 0.50982 0.0
H1753 H 0.69652 0.01917 0.49844 0.0
H1754 H 0.6836 0.02841 0.51726 0.0
H1755 H 0.6816 0.04255 0.4977 0.0
C1756 C 0.63634 0.04497 0.55019 0.0
C1757 C 0.63823 0.06583 0.54531 0.0
C1758 C 0.63806 0.02901 0.53804 0.0
C1759 C 0.64196 0.03363 0.52087 0.0
C1760 C 0.64348 0.05439 0.51604 0.0
H1761 H 0.65954 0.98229 0.42135 0.0
H1762 H 0.65587 0.00306 0.44706 0.0
C1763 C 0.64167 0.07017 0.528 0.0
C1764 C 0.64448 0.01722 0.50765 0.0
H1765 H 0.67815 1.0005 0.47712 0.0
C1766 C 0.62735 0.00523 0.50286 0.0
C1767 C 0.66314 0.01503 0.49842 0.0
C1768 C 0.68234 0.02683 0.50328 0.0
C1769 C 0.62812 0.99192 0.48869 0.0
C1770 C 0.64662 0.99026 0.47913 0.0
C1771 C 0.66391 0.00178 0.48429 0.0
C1772 C 0.64824 0.97733 0.4634 0.0
C1773 C 0.60882 0.98047 0.48358 0.0
C1774 C 0.64532 0.95581 0.46388 0.0
C1775 C 0.64736 0.94384 0.44911 0.0
C1776 C 0.6524 0.95304 0.43344 0.0
C1777 C 0.65534 0.97461 0.43305 0.0
C1778 C 0.65338 0.98654 0.44782 0.0
H1779 H 0.59481 0.98696 0.48973 0.0
H1780 H 0.60667 0.98094 0.46963 0.0
H1781 H 0.61024 0.96405 0.48746 0.0
H1782 H 0.64171 0.9482 0.47573 0.0
H1783 H 0.64483 0.92734 0.44998 0.0
H1784 H 0.81339 0.93127 0.19788 0.0
H1785 H 0.79263 0.92695 0.22352 0.0
H1786 H 0.76054 0.87598 0.20036 0.0
H1787 H 0.78187 0.87949 0.17504 0.0
H1788 H 0.75187 0.93012 0.229 0.0
H1789 H 0.77562 0.8504 0.24494 0.0
H1790 H 0.78889 0.8656 0.22917 0.0
H1791 H 0.76537 0.85221 0.22389 0.0
C1792 C 0.8022 0.91886 0.19829 0.0
C1793 C 0.79957 0.90565 0.18424 0.0
C1794 C 0.79016 0.91653 0.21299 0.0
C1795 C 0.77517 0.90087 0.21415 0.0
C1796 C 0.77229 0.88786 0.20008 0.0
H1797 H 0.67491 0.86511 0.27866 0.0
H1798 H 0.70184 0.86958 0.25744 0.0
C1799 C 0.78437 0.89012 0.18541 0.0
C1800 C 0.76218 0.89851 0.22982 0.0
H1801 H 0.74551 0.86318 0.25913 0.0
C1802 C 0.75072 0.91554 0.23571 0.0
C1803 C 0.76064 0.87955 0.23876 0.0
C1804 C 0.77345 0.86097 0.23398 0.0
C1805 C 0.73722 0.91389 0.2497 0.0
C1806 C 0.7352 0.89475 0.25825 0.0
C1807 C 0.74701 0.87787 0.25263 0.0
C1808 C 0.71965 0.89145 0.27206 0.0
C1809 C 0.72456 0.93243 0.25482 0.0
C1810 C 0.72081 0.90184 0.28772 0.0
C1811 C 0.70534 0.89917 0.30012 0.0
C1812 C 0.68833 0.88616 0.29704 0.0
C1813 C 0.68767 0.87534 0.28154 0.0
C1814 C 0.70312 0.87786 0.26932 0.0
H1815 H 0.72535 0.94503 0.24527 0.0
H1816 H 0.70813 0.92802 0.25664 0.0
H1817 H 0.73041 0.93851 0.26705 0.0
H1818 H 0.73356 0.91221 0.29028 0.0
H1819 H 0.70632 0.90782 0.31183 0.0
H1820 H 0.81671 0.04637 0.93776 0.0
H1821 H 0.81982 0.0248 0.96305 0.0
H1822 H 0.88487 0.0385 0.96573 0.0
H1823 H 0.88196 0.05999 0.94031 0.0
H1824 H 0.84234 0.9901 0.968 0.0
H1825 H 0.8673 0.04921 0.01434 0.0
H1826 H 0.85686 0.05586 0.99382 0.0
H1827 H 0.88343 0.04807 0.99586 0.0
C1828 C 0.83175 0.04479 0.94362 0.0
C1829 C 0.84909 0.05503 0.9368 0.0
C1830 C 0.83346 0.03249 0.95823 0.0
C1831 C 0.85251 0.03016 0.96658 0.0
C1832 C 0.86986 0.04039 0.95987 0.0
H1833 H 0.88937 0.92862 0.03051 0.0
H1834 H 0.885 0.95542 1.00918 0.0
C1835 C 0.86817 0.0527 0.94524 0.0
C1836 C 0.85434 0.01618 0.98172 0.0
H1837 H 0.87019 0.01398 0.02317 0.0
C1838 C 0.84831 0.99542 0.98007 0.0
C1839 C 0.86186 0.02302 0.99765 0.0
C1840 C 0.86755 0.0453 1.00063 0.0
C1841 C 0.85013 0.98131 0.99359 0.0
C1842 C 0.8585 0.98792 1.00929 0.0
C1843 C 0.86394 0.0088 1.01116 0.0
C1844 C 0.86256 0.97298 0.02343 0.0
C1845 C 0.84304 0.95935 0.99094 0.0
C1846 C 0.85219 0.97433 0.0391 0.0
C1847 C 0.85477 0.95888 0.05158 0.0
C1848 C 0.86782 0.94185 0.0486 0.0
C1849 C 0.87899 0.94131 0.03326 0.0
C1850 C 0.87645 0.95663 0.02093 0.0
H1851 H 0.83194 0.95815 0.98024 0.0
H1852 H 0.8566 0.94953 0.98791 0.0
H1853 H 0.83561 0.9531 1.00254 0.0
H1854 H 0.84148 0.98687 0.04142 0.0
H1855 H 0.84586 0.95979 0.06317 0.0
H1856 H 0.67317 0.62992 0.77734 0.0
H1857 H 0.7009 0.62732 0.75666 0.0
H1858 H 0.74171 0.60356 0.79519 0.0
H1859 H 0.71361 0.60616 0.81629 0.0
H1860 H 0.74154 0.64538 0.75654 0.0
H1861 H 0.74346 0.55941 0.75627 0.0
H1862 H 0.72188 0.57371 0.7648 0.0
H1863 H 0.74564 0.57223 0.77643 0.0
C1864 C 0.68806 0.62425 0.78157 0.0
C1865 C 0.69106 0.61816 0.79856 0.0
C1866 C 0.70396 0.6228 0.76965 0.0
C1867 C 0.72339 0.615 0.77421 0.0
C1868 C 0.72677 0.60939 0.79127 0.0
H1869 H 0.82396 0.58376 0.70302 0.0
H1870 H 0.8033 0.5885 0.72869 0.0
C1871 C 0.71077 0.61106 0.80337 0.0
C1872 C 0.73962 0.61261 0.7608 0.0
H1873 H 0.76472 0.57653 0.73666 0.0
C1874 C 0.74677 0.63032 0.75232 0.0
C1875 C 0.7465 0.593 0.7552 0.0
C1876 C 0.73896 0.57342 0.76351 0.0
C1877 C 0.76034 0.62897 0.73838 0.0
C1878 C 0.7666 0.60931 0.73232 0.0
C1879 C 0.75993 0.59162 0.74114 0.0
C1880 C 0.7795 0.60678 0.71661 0.0
C1881 C 0.76795 0.64873 0.73039 0.0
C1882 C 0.77308 0.61523 0.70104 0.0
C1883 C 0.78502 0.61276 0.68632 0.0
C1884 C 0.80369 0.60152 0.68662 0.0
C1885 C 0.80995 0.59285 0.70221 0.0
C1886 C 0.79801 0.59539 0.71696 0.0
H1887 H 0.7675 0.66177 0.73953 0.0
H1888 H 0.78399 0.64706 0.7256 0.0
H1889 H 0.75776 0.65283 0.71958 0.0
H1890 H 0.75866 0.62365 0.7002 0.0
H1891 H 0.77962 0.61986 0.67471 0.0
H1892 H 0.63829 0.52824 0.92387 0.0
H1893 H 0.63465 0.50671 0.94918 0.0
H1894 H 0.65678 0.55678 0.98016 0.0
H1895 H 0.65983 0.57866 0.955 0.0
H1896 H 0.66487 0.49417 0.97137 0.0
H1897 H 0.60574 0.53919 1.00642 0.0
H1898 H 0.61126 0.5436 0.98429 0.0
H1899 H 0.62817 0.55371 1.00033 0.0
C1900 C 0.64203 0.53488 0.93607 0.0
C1901 C 0.64931 0.55535 0.93724 0.0
C1902 C 0.64008 0.52243 0.95058 0.0
C1903 C 0.64516 0.53009 0.96673 0.0
C1904 C 0.65235 0.55052 0.96798 0.0
H1905 H 0.64634 0.46504 0.06634 0.0
H1906 H 0.64933 0.49217 0.04439 0.0
C1907 C 0.65435 0.56298 0.95346 0.0
C1908 C 0.64381 0.51635 0.98204 0.0
H1909 H 0.62053 0.51063 0.02083 0.0
C1910 C 0.65516 0.49783 0.98216 0.0
C1911 C 0.63134 0.52109 0.99631 0.0
C1912 C 0.61828 0.54038 0.99686 0.0
C1913 C 0.65431 0.48399 0.99593 0.0
C1914 C 0.64141 0.48843 1.01 0.0
C1915 C 0.63043 0.50717 1.01012 0.0
C1916 C 0.63807 0.47298 0.02392 0.0
C1917 C 0.66738 0.46469 0.99528 0.0
C1918 C 0.62999 0.45349 0.01996 0.0
C1919 C 0.62832 0.43815 0.03235 0.0
C1920 C 0.63445 0.44179 0.04923 0.0
C1921 C 0.64145 0.4617 0.05351 0.0
C1922 C 0.64324 0.47717 0.04094 0.0
H1923 H 0.6808 0.46661 0.98665 0.0
H1924 H 0.67317 0.46043 1.00806 0.0
H1925 H 0.6579 0.45171 0.9904 0.0
H1926 H 0.62532 0.44994 1.00711 0.0
H1927 H 0.62254 0.42314 0.02855 0.0
H1928 H 0.68091 0.41967 0.2042 0.0
H1929 H 0.70275 0.41595 0.22937 0.0
H1930 H 0.74554 0.37872 0.20086 0.0
H1931 H 0.72365 0.38187 0.17577 0.0
H1932 H 0.71759 0.37957 0.2472 0.0
H1933 H 0.78171 0.42586 0.2202 0.0
H1934 H 0.75597 0.42615 0.21137 0.0
H1935 H 0.77318 0.40504 0.2069 0.0
C1936 C 0.6948 0.41043 0.20326 0.0
C1937 C 0.70044 0.40122 0.18772 0.0
C1938 C 0.70736 0.40841 0.21772 0.0
C1939 C 0.726 0.3973 0.21703 0.0
C1940 C 0.73146 0.38772 0.2017 0.0
H1941 H 0.83131 0.3694 0.27891 0.0
H1942 H 0.80411 0.37252 0.25784 0.0
C1943 C 0.7189 0.38963 0.18727 0.0
C1944 C 0.73995 0.39596 0.23217 0.0
H1945 H 0.78879 0.40768 0.24562 0.0
C1946 C 0.73311 0.38584 0.24693 0.0
C1947 C 0.76019 0.40424 0.23192 0.0
C1948 C 0.7682 0.41611 0.21683 0.0
C1949 C 0.74624 0.38301 0.26108 0.0
C1950 C 0.76668 0.39088 0.26065 0.0
C1951 C 0.77322 0.40151 0.24604 0.0
C1952 C 0.78213 0.38726 0.27457 0.0
C1953 C 0.73837 0.3709 0.27607 0.0
C1954 C 0.77891 0.39401 0.29137 0.0
C1955 C 0.79461 0.39198 0.30372 0.0
C1956 C 0.8139 0.38345 0.29939 0.0
C1957 C 0.81671 0.37616 0.28274 0.0
C1958 C 0.80112 0.37799 0.27058 0.0
H1959 H 0.72437 0.3618 0.27285 0.0
H1960 H 0.75042 0.3602 0.28092 0.0
H1961 H 0.73425 0.38176 0.2864 0.0
H1962 H 0.76459 0.40156 0.29481 0.0
H1963 H 0.79201 0.398 0.31634 0.0
H1964 H 0.86855 0.53742 0.56611 0.0
H1965 H 0.86818 0.5092 0.54504 0.0
H1966 H 0.86665 0.55403 0.50468 0.0
H1967 H 0.86723 0.5818 0.52514 0.0
H1968 H 0.83852 0.50037 0.5188 0.0
H1969 H 0.91491 0.51731 0.49073 0.0
H1970 H 0.90704 0.52745 0.51104 0.0
H1971 H 0.89869 0.53975 0.49176 0.0
C1972 C 0.8683 0.54121 0.55275 0.0
C1973 C 0.86805 0.56201 0.54747 0.0
C1974 C 0.86803 0.52507 0.5407 0.0
C1975 C 0.86776 0.52943 0.52318 0.0
C1976 C 0.86734 0.55014 0.51802 0.0
H1977 H 0.85787 0.47509 0.42396 0.0
H1978 H 0.86174 0.4966 0.4492 0.0
C1979 C 0.86755 0.5661 0.5299 0.0
C1980 C 0.86741 0.51276 0.51 0.0
H1981 H 0.89187 0.49704 0.47375 0.0
C1982 C 0.85036 0.49937 0.50912 0.0
C1983 C 0.88278 0.51145 0.49725 0.0
C1984 C 0.90199 0.52462 0.4978 0.0
C1985 C 0.84779 0.48551 0.49545 0.0
C1986 C 0.86284 0.48472 0.48239 0.0
C1987 C 0.88021 0.49765 0.48361 0.0
C1988 C 0.86058 0.47123 0.46703 0.0
C1989 C 0.82846 0.47253 0.49473 0.0
C1990 C 0.85894 0.44964 0.46845 0.0
C1991 C 0.85681 0.43721 0.45396 0.0
C1992 C 0.85641 0.446 0.43759 0.0
C1993 C 0.85836 0.46762 0.43624 0.0
C1994 C 0.86046 0.48002 0.45073 0.0
H1995 H 0.81625 0.4785 0.50332 0.0
H1996 H 0.82219 0.47196 0.48164 0.0
H1997 H 0.83221 0.45652 0.49871 0.0
H1998 H 0.85952 0.44232 0.48079 0.0
H1999 H 0.85575 0.42064 0.45559 0.0
H2000 H 0.71449 0.37688 0.7103 0.0
H2001 H 0.74284 0.37733 0.73134 0.0
H2002 H 0.70108 0.40183 0.76878 0.0
H2003 H 0.67322 0.40153 0.74832 0.0
H2004 H 0.75875 0.4121 0.75321 0.0
H2005 H 0.7247 0.34828 0.79074 0.0
H2006 H 0.71768 0.35313 0.76894 0.0
H2007 H 0.70672 0.36849 0.78564 0.0
C2008 C 0.71145 0.38249 0.72298 0.0
C2009 C 0.6914 0.38891 0.72754 0.0
C2010 C 0.72764 0.38272 0.73501 0.0
C2011 C 0.72401 0.38925 0.75179 0.0
C2012 C 0.70425 0.39633 0.75608 0.0
H2013 H 0.77805 0.40548 0.85041 0.0
H2014 H 0.75664 0.40169 0.82509 0.0
C2015 C 0.68825 0.39614 0.74422 0.0
C2016 C 0.74038 0.38863 0.76521 0.0
H2017 H 0.75016 0.36881 0.80463 0.0
C2018 C 0.75713 0.40238 0.76433 0.0
C2019 C 0.7382 0.37608 0.77982 0.0
C2020 C 0.72096 0.36052 0.78134 0.0
C2021 C 0.77113 0.4046 0.77796 0.0
C2022 C 0.76857 0.39246 0.79281 0.0
C2023 C 0.75218 0.37824 0.79338 0.0
C2024 C 0.78204 0.39481 0.80819 0.0
C2025 C 0.78791 0.42068 0.77665 0.0
C2026 C 0.80357 0.39197 0.80736 0.0
C2027 C 0.81593 0.39412 0.82192 0.0
C2028 C 0.80708 0.39894 0.83776 0.0
C2029 C 0.78548 0.40151 0.83856 0.0
C2030 C 0.77317 0.39944 0.82401 0.0
H2031 H 0.78462 0.43213 0.7665 0.0
H2032 H 0.78983 0.42904 0.78882 0.0
H2033 H 0.80275 0.41297 0.77357 0.0
H2034 H 0.81084 0.38784 0.79549 0.0
H2035 H 0.83242 0.39166 0.82079 0.0
H2036 H 0.8686 0.52765 0.1009 0.0
H2037 H 0.87145 0.50631 0.07549 0.0
H2038 H 0.843 0.55448 0.04588 0.0
H2039 H 0.83968 0.57584 0.07129 0.0
H2040 H 0.83948 0.49205 0.05456 0.0
H2041 H 0.89429 0.5402 0.01749 0.0
H2042 H 0.89034 0.54372 0.03996 0.0
H2043 H 0.87164 0.55332 0.02509 0.0
C2044 C 0.86281 0.53377 0.08905 0.0
C2045 C 0.85387 0.55363 0.08835 0.0
C2046 C 0.8646 0.52153 0.07444 0.0
C2047 C 0.85771 0.52879 0.05862 0.0
C2048 C 0.84888 0.54861 0.0578 0.0
H2049 H 0.85613 0.46313 0.95936 0.0
H2050 H 0.85285 0.49039 0.98113 0.0
C2051 C 0.84701 0.56087 0.07243 0.0
C2052 C 0.85897 0.51517 0.04327 0.0
H2053 H 0.88111 0.5104 1.00396 0.0
C2054 C 0.84857 0.49613 0.04351 0.0
C2055 C 0.87061 0.52047 0.02867 0.0
C2056 C 0.88251 0.54046 0.02773 0.0
C2057 C 0.84961 0.48228 0.02978 0.0
C2058 C 0.86181 0.48723 0.0154 0.0
C2059 C 0.87178 0.50652 0.01492 0.0
C2060 C 0.86547 0.47184 1.00151 0.0
C2061 C 0.83747 0.46242 0.03081 0.0
C2062 C 0.87445 0.45271 1.00544 0.0
C2063 C 0.87627 0.43729 0.99315 0.0
C2064 C 0.86943 0.44052 0.9764 0.0
C2065 C 0.8616 0.46013 0.97209 0.0
C2066 C 0.85963 0.47567 0.98456 0.0
H2067 H 0.82419 0.46383 0.03966 0.0
H2068 H 0.83155 0.45776 0.01817 0.0
H2069 H 0.84767 0.44994 0.03563 0.0
H2070 H 0.87964 0.44946 0.01822 0.0
H2071 H 0.88265 0.42251 0.99694 0.0
H2072 H 0.79047 0.60309 0.20983 0.0
H2073 H 0.76281 0.59993 0.23128 0.0
H2074 H 0.80157 0.63044 0.2679 0.0
H2075 H 0.82889 0.63354 0.24687 0.0
H2076 H 0.76683 0.57905 0.26421 0.0
H2077 H 0.74603 0.66146 0.27213 0.0
H2078 H 0.75939 0.65191 0.25362 0.0
H2079 H 0.77333 0.6566 0.27295 0.0
C2080 C 0.79286 0.60951 0.22235 0.0
C2081 C 0.8119 0.61866 0.22655 0.0
C2082 C 0.77711 0.60756 0.23465 0.0
C2083 C 0.77997 0.61512 0.25125 0.0
C2084 C 0.79876 0.62475 0.2552 0.0
H2085 H 0.7235 0.61899 0.35056 0.0
H2086 H 0.7443 0.62279 0.32492 0.0
C2087 C 0.81445 0.62645 0.2431 0.0
C2088 C 0.7641 0.61213 0.26489 0.0
H2089 H 0.73549 0.63858 0.29425 0.0
C2090 C 0.75969 0.59204 0.2706 0.0
C2091 C 0.75493 0.62905 0.27344 0.0
C2092 C 0.75848 0.65098 0.26766 0.0
C2093 C 0.74714 0.58847 0.28496 0.0
C2094 C 0.73824 0.60544 0.29372 0.0
C2095 C 0.74226 0.62551 0.2877 0.0
C2096 C 0.72531 0.60284 0.30942 0.0
C2097 C 0.74437 0.56655 0.29107 0.0
C2098 C 0.7074 0.59053 0.30945 0.0
C2099 C 0.69553 0.58809 0.32424 0.0
C2100 C 0.70106 0.59807 0.33948 0.0
C2101 C 0.71883 0.61069 0.3393 0.0
C2102 C 0.73071 0.61304 0.32452 0.0
H2103 H 0.75657 0.55616 0.28602 0.0
H2104 H 0.74466 0.56574 0.30512 0.0
H2105 H 0.72923 0.56065 0.28663 0.0
H2106 H 0.70249 0.58282 0.29797 0.0
H2107 H 0.68214 0.57811 0.32375 0.0
H2108 H 0.62551 0.4646 0.59769 0.0
H2109 H 0.62299 0.48651 0.57252 0.0
H2110 H 0.67506 0.45502 0.55041 0.0
H2111 H 0.67796 0.43326 0.57563 0.0
H2112 H 0.65226 0.51349 0.55908 0.0
H2113 H 0.63291 0.45309 0.5118 0.0
H2114 H 0.63111 0.44866 0.53435 0.0
H2115 H 0.65583 0.44818 0.524 0.0
C2116 C 0.63655 0.46232 0.58756 0.0
C2117 C 0.65193 0.44696 0.58887 0.0
C2118 C 0.63498 0.47484 0.57306 0.0
C2119 C 0.64861 0.4723 0.55934 0.0
C2120 C 0.664 0.45704 0.56057 0.0
H2121 H 0.66037 0.54345 0.46353 0.0
H2122 H 0.66464 0.51697 0.48581 0.0
C2123 C 0.66562 0.44454 0.57509 0.0
C2124 C 0.64717 0.4862 0.54413 0.0
H2125 H 0.63875 0.48684 0.50121 0.0
C2126 C 0.64928 0.50761 0.54645 0.0
C2127 C 0.64351 0.47865 0.52753 0.0
C2128 C 0.64053 0.45591 0.5242 0.0
C2129 C 0.64782 0.52157 0.53279 0.0
C2130 C 0.64362 0.5141 0.51624 0.0
C2131 C 0.64193 0.49265 0.51383 0.0
C2132 C 0.63989 0.52852 0.50164 0.0
C2133 C 0.65107 0.54427 0.53623 0.0
C2134 C 0.62399 0.54321 0.50263 0.0
C2135 C 0.62157 0.55822 0.49003 0.0
C2136 C 0.63478 0.55888 0.47584 0.0
C2137 C 0.64985 0.54332 0.4742 0.0
C2138 C 0.65238 0.52827 0.487 0.0
H2139 H 0.66029 0.54677 0.54793 0.0
H2140 H 0.65904 0.55196 0.52549 0.0
H2141 H 0.63584 0.55184 0.53807 0.0
H2142 H 0.61373 0.54346 0.51347 0.0
H2143 H 0.60965 0.5698 0.49168 0.0
H2144 H 0.17283 0.39385 0.32138 0.0
H2145 H 0.19426 0.38969 0.29601 0.0
H2146 H 0.2491 0.3977 0.32624 0.0
H2147 H 0.22788 0.40183 0.3516 0.0
H2148 H 0.22185 0.41523 0.28026 0.0
H2149 H 0.26292 0.34499 0.30162 0.0
H2150 H 0.24032 0.35471 0.31236 0.0
H2151 H 0.26535 0.36574 0.3165 0.0
C2152 C 0.18946 0.39478 0.32267 0.0
C2153 C 0.19853 0.39801 0.33871 0.0
C2154 C 0.20173 0.39233 0.30809 0.0
C2155 C 0.22341 0.39295 0.30912 0.0
C2156 C 0.23248 0.39652 0.32506 0.0
H2157 H 0.33144 0.39512 0.24845 0.0
H2158 H 0.30386 0.39578 0.26908 0.0
C2159 C 0.22025 0.3989 0.33963 0.0
C2160 C 0.2366 0.39024 0.29361 0.0
H2161 H 0.27784 0.36302 0.27813 0.0
C2162 C 0.2339 0.40362 0.2797 0.0
C2163 C 0.25227 0.37496 0.29267 0.0
C2164 C 0.25527 0.35915 0.30651 0.0
C2165 C 0.24708 0.40286 0.26542 0.0
C2166 C 0.2633 0.38819 0.26486 0.0
C2167 C 0.26547 0.37432 0.27848 0.0
C2168 C 0.27959 0.38829 0.25134 0.0
C2169 C 0.24418 0.41841 0.25138 0.0
C2170 C 0.27534 0.38393 0.23417 0.0
C2171 C 0.29139 0.38348 0.22201 0.0
C2172 C 0.31199 0.38733 0.22683 0.0
C2173 C 0.31592 0.39191 0.24403 0.0
C2174 C 0.30007 0.39232 0.25601 0.0
H2175 H 0.2329 0.43064 0.25482 0.0
H2176 H 0.25915 0.42581 0.24814 0.0
H2177 H 0.23846 0.4104 0.23988 0.0
H2178 H 0.25969 0.38052 0.23022 0.0
H2179 H 0.28773 0.37986 0.20896 0.0
H2180 H 0.36582 0.47542 0.10006 0.0
H2181 H 0.36926 0.49622 0.07437 0.0
H2182 H 0.34504 0.44596 0.04465 0.0
H2183 H 0.3407 0.42534 0.07038 0.0
H2184 H 0.39199 0.49028 0.0459 0.0
H2185 H 0.30901 0.49281 0.02827 0.0
H2186 H 0.31771 0.48378 0.0487 0.0
H2187 H 0.31937 0.46722 0.03047 0.0
C2188 C 0.3609 0.46881 0.08814 0.0
C2189 C 0.35279 0.44861 0.0875 0.0
C2190 C 0.36306 0.48073 0.07336 0.0
C2191 C 0.35711 0.47291 0.05747 0.0
C2192 C 0.34935 0.45264 0.05671 0.0
H2193 H 0.35968 0.538 0.95767 0.0
H2194 H 0.35817 0.50989 0.97887 0.0
C2195 C 0.34714 0.4407 0.0715 0.0
C2196 C 0.35941 0.48593 0.04181 0.0
H2197 H 0.33245 0.50839 1.0092 0.0
C2198 C 0.37894 0.49413 0.03787 0.0
C2199 C 0.34248 0.49096 0.03112 0.0
C2200 C 0.32092 0.48341 0.03488 0.0
C2201 C 0.38195 0.50731 0.02386 0.0
C2202 C 0.36495 0.5128 0.01347 0.0
C2203 C 0.34553 0.50412 0.01705 0.0
C2204 C 0.36662 0.52923 1.00014 0.0
C2205 C 0.40338 0.5154 0.02037 0.0
C2206 C 0.37179 0.54941 1.00494 0.0
C2207 C 0.37258 0.56532 0.99298 0.0
C2208 C 0.36819 0.56166 0.97573 0.0
C2209 C 0.36332 0.54136 0.97077 0.0
C2210 C 0.36234 0.52532 0.98291 0.0
H2211 H 0.41543 0.50514 0.02584 0.0
H2212 H 0.40619 0.51699 1.00654 0.0
H2213 H 0.40508 0.53086 0.02627 0.0
H2214 H 0.37483 0.55301 0.01811 0.0
H2215 H 0.37643 0.58068 0.99739 0.0
H2216 H 0.17068 0.62866 0.74885 0.0
H2217 H 0.19801 0.62571 0.76977 0.0
H2218 H 0.24069 0.60682 0.73081 0.0
H2219 H 0.21306 0.61003 0.70943 0.0
H2220 H 0.21831 0.59077 0.77866 0.0
H2221 H 0.27486 0.64945 0.75658 0.0
H2222 H 0.24864 0.64858 0.74881 0.0
H2223 H 0.26746 0.63045 0.74115 0.0
C2224 C 0.18591 0.62409 0.74455 0.0
C2225 C 0.18956 0.61954 0.72733 0.0
C2226 C 0.20159 0.62238 0.75664 0.0
C2227 C 0.22155 0.6161 0.75201 0.0
C2228 C 0.22554 0.61203 0.73475 0.0
H2229 H 0.32818 0.59266 0.81914 0.0
H2230 H 0.30537 0.59594 0.7945 0.0
C2231 C 0.20971 0.61384 0.7225 0.0
C2232 C 0.23745 0.61285 0.76562 0.0
H2233 H 0.28415 0.62976 0.78065 0.0
C2234 C 0.23272 0.5993 0.77902 0.0
C2235 C 0.25638 0.62382 0.76619 0.0
C2236 C 0.26217 0.63903 0.75251 0.0
C2237 C 0.24612 0.59658 0.79292 0.0
C2238 C 0.26477 0.60797 0.79374 0.0
C2239 C 0.26983 0.6211 0.78014 0.0
C2240 C 0.27894 0.60665 0.80876 0.0
C2241 C 0.2402 0.58132 0.80654 0.0
C2242 C 0.27194 0.61192 0.82507 0.0
C2243 C 0.28492 0.60995 0.83924 0.0
C2244 C 0.30536 0.60273 0.83753 0.0
C2245 C 0.31248 0.59793 0.8211 0.0
C2246 C 0.29947 0.59995 0.80691 0.0
H2247 H 0.22888 0.56978 0.80182 0.0
H2248 H 0.25397 0.57299 0.81143 0.0
H2249 H 0.23293 0.58973 0.81724 0.0
H2250 H 0.25631 0.61749 0.82687 0.0
H2251 H 0.27873 0.61368 0.85161 0.0
H2252 H 0.13176 0.52938 0.60044 0.0
H2253 H 0.12867 0.50811 0.57503 0.0
H2254 H 0.16403 0.55278 0.54678 0.0
H2255 H 0.16809 0.57367 0.57233 0.0
H2256 H 0.11112 0.51528 0.5447 0.0
H2257 H 0.19472 0.50091 0.53468 0.0
H2258 H 0.18482 0.51221 0.55391 0.0
H2259 H 0.18798 0.52778 0.5352 0.0
C2260 C 0.1392 0.53461 0.58893 0.0
C2261 C 0.15036 0.55331 0.58867 0.0
C2262 C 0.13724 0.52245 0.57429 0.0
C2263 C 0.14641 0.52852 0.55891 0.0
C2264 C 0.15719 0.54737 0.55849 0.0
H2265 H 0.14773 0.46223 0.45999 0.0
H2266 H 0.14961 0.49027 0.48115 0.0
C2267 C 0.15924 0.55953 0.57315 0.0
C2268 C 0.14435 0.51523 0.5434 0.0
H2269 H 0.17201 0.48839 0.51358 0.0
C2270 C 0.12448 0.50949 0.53791 0.0
C2271 C 0.1617 0.5076 0.53434 0.0
C2272 C 0.18352 0.51225 0.53989 0.0
C2273 C 0.12152 0.49634 0.52389 0.0
C2274 C 0.13885 0.48843 0.51505 0.0
C2275 C 0.1587 0.49456 0.52021 0.0
C2276 C 0.13672 0.47217 0.50166 0.0
C2277 C 0.09978 0.4909 0.51868 0.0
C2278 C 0.12885 0.45271 0.50605 0.0
C2279 C 0.12788 0.4368 0.4941 0.0
C2280 C 0.13469 0.43979 0.47731 0.0
C2281 C 0.14214 0.45945 0.47272 0.0
C2282 C 0.14334 0.47543 0.48485 0.0
H2283 H 0.08844 0.50249 0.5233 0.0
H2284 H 0.09845 0.48972 0.50468 0.0
H2285 H 0.09559 0.4757 0.52422 0.0
H2286 H 0.12392 0.44961 0.51892 0.0
H2287 H 0.12206 0.42191 0.49818 0.0
H2288 H 0.22555 0.59929 0.17315 0.0
H2289 H 0.24669 0.60348 0.19858 0.0
H2290 H 0.19184 0.61449 0.22818 0.0
H2291 H 0.17055 0.61026 0.20277 0.0
H2292 H 0.25189 0.63603 0.21956 0.0
H2293 H 0.21956 0.57078 0.25672 0.0
H2294 H 0.21433 0.57413 0.23443 0.0
H2295 H 0.20075 0.58938 0.24987 0.0
C2296 C 0.21791 0.60273 0.18502 0.0
C2297 C 0.19621 0.60435 0.18577 0.0
C2298 C 0.23007 0.60502 0.19964 0.0
C2299 C 0.22096 0.60896 0.2155 0.0
C2300 C 0.19933 0.61089 0.21628 0.0
H2301 H 0.28696 0.62706 0.31421 0.0
H2302 H 0.25888 0.62621 0.29293 0.0
C2303 C 0.18713 0.60852 0.20166 0.0
C2304 C 0.23427 0.61151 0.23099 0.0
H2305 H 0.24447 0.59159 0.27044 0.0
C2306 C 0.25013 0.62634 0.23068 0.0
C2307 C 0.23205 0.59904 0.24569 0.0
C2308 C 0.21589 0.58231 0.24673 0.0
C2309 C 0.2639 0.62879 0.24437 0.0
C2310 C 0.26207 0.61593 0.25884 0.0
C2311 C 0.24583 0.60155 0.25945 0.0
C2312 C 0.27835 0.61568 0.27237 0.0
C2313 C 0.28054 0.64502 0.24313 0.0
C2314 C 0.29843 0.60953 0.2681 0.0
C2315 C 0.31427 0.60993 0.28009 0.0
C2316 C 0.31069 0.61646 0.29691 0.0
C2317 C 0.29036 0.62201 0.30143 0.0
C2318 C 0.27431 0.62155 0.28926 0.0
H2319 H 0.27637 0.65731 0.2339 0.0
H2320 H 0.2835 0.65226 0.25564 0.0
H2321 H 0.29509 0.63769 0.23874 0.0
H2322 H 0.30194 0.60454 0.25532 0.0
H2323 H 0.32953 0.60524 0.27598 0.0
H2324 H 0.13486 0.47501 0.92242 0.0
H2325 H 0.13104 0.49555 0.94817 0.0
H2326 H 0.16796 0.45143 0.97571 0.0
H2327 H 0.17268 0.43127 0.94983 0.0
H2328 H 0.11363 0.48667 0.97837 0.0
H2329 H 0.19653 0.50421 0.98885 0.0
H2330 H 0.18714 0.49313 0.96936 0.0
H2331 H 0.1909 0.47711 0.98774 0.0
C2332 C 0.14249 0.46976 0.93384 0.0
C2333 C 0.15425 0.45141 0.93381 0.0
C2334 C 0.14012 0.4815 0.94868 0.0
C2335 C 0.14947 0.47535 0.96397 0.0
C2336 C 0.16094 0.45689 0.96408 0.0
H2337 H 0.14798 0.53949 0.06394 0.0
H2338 H 0.15107 0.51191 0.04245 0.0
C2339 C 0.16338 0.44515 0.94923 0.0
C2340 C 0.14682 0.48811 0.97973 0.0
H2341 H 0.17324 0.51528 1.01008 0.0
C2342 C 0.12672 0.49283 0.98529 0.0
C2343 C 0.16381 0.49619 0.98897 0.0
C2344 C 0.18581 0.49259 0.98338 0.0
C2345 C 0.12316 0.50545 0.99956 0.0
C2346 C 0.14011 0.51386 1.00856 0.0
C2347 C 0.16022 0.50872 1.00332 0.0
C2348 C 0.13725 0.52974 0.02218 0.0
C2349 C 0.10119 0.50978 1.00484 0.0
C2350 C 0.12843 0.54888 0.01804 0.0
C2351 C 0.12675 0.56451 0.03017 0.0
C2352 C 0.13379 0.56156 0.04691 0.0
C2353 C 0.14217 0.5422 0.05127 0.0
C2354 C 0.14408 0.5265 0.03894 0.0
H2355 H 0.09042 0.49775 1.00008 0.0
H2356 H 0.09982 0.51066 0.01885 0.0
H2357 H 0.09627 0.52484 0.99946 0.0
H2358 H 0.12332 0.55198 1.00522 0.0
H2359 H 0.12024 0.57919 0.02627 0.0
H2360 H 0.27638 0.39421 0.67184 0.0
H2361 H 0.25521 0.38988 0.69725 0.0
H2362 H 0.30334 0.41717 0.72755 0.0
H2363 H 0.32473 0.42141 0.70223 0.0
H2364 H 0.26268 0.3678 0.72668 0.0
H2365 H 0.25332 0.45096 0.74208 0.0
H2366 H 0.26302 0.44223 0.72187 0.0
H2367 H 0.2796 0.44236 0.74013 0.0
C2368 C 0.28262 0.39918 0.68389 0.0
C2369 C 0.30239 0.40826 0.6848 0.0
C2370 C 0.27038 0.39679 0.69846 0.0
C2371 C 0.27742 0.40349 0.71439 0.0
C2372 C 0.29723 0.41232 0.71542 0.0
H2373 H 0.2107 0.40119 0.81325 0.0
H2374 H 0.23846 0.40487 0.79201 0.0
C2375 C 0.3095 0.41473 0.70085 0.0
C2376 C 0.26417 0.40077 0.72986 0.0
H2377 H 0.23885 0.42707 0.76134 0.0
C2378 C 0.25755 0.38079 0.73426 0.0
C2379 C 0.25754 0.41762 0.73999 0.0
C2380 C 0.26356 0.43954 0.73576 0.0
C2381 C 0.24444 0.37724 0.74822 0.0
C2382 C 0.23724 0.39414 0.75801 0.0
C2383 C 0.24433 0.41407 0.75395 0.0
C2384 C 0.2209 0.39158 0.77137 0.0
C2385 C 0.23846 0.35528 0.75237 0.0
C2386 C 0.20172 0.38311 0.76694 0.0
C2387 C 0.18602 0.38094 0.77896 0.0
C2388 C 0.18877 0.38735 0.79591 0.0
C2389 C 0.20801 0.3959 0.80043 0.0
C2390 C 0.22387 0.3981 0.78825 0.0
H2391 H 0.2503 0.34416 0.74782 0.0
H2392 H 0.23635 0.35307 0.76621 0.0
H2393 H 0.2237 0.35154 0.74592 0.0
H2394 H 0.1987 0.37844 0.754 0.0
H2395 H 0.17149 0.3744 0.77477 0.0
H2396 H 0.35486 0.42675 0.52545 0.0
H2397 H 0.35183 0.45512 0.50566 0.0
H2398 H 0.36606 0.49836 0.54545 0.0
H2399 H 0.36941 0.46944 0.56579 0.0
H2400 H 0.32518 0.48885 0.50602 0.0
H2401 H 0.40738 0.51403 0.50726 0.0
H2402 H 0.39927 0.48936 0.51562 0.0
H2403 H 0.39397 0.51259 0.5272 0.0
C2404 C 0.35748 0.44222 0.53021 0.0
C2405 C 0.36264 0.44563 0.54736 0.0
C2406 C 0.35563 0.45853 0.51874 0.0
C2407 C 0.35894 0.47896 0.52387 0.0
C2408 C 0.36373 0.4827 0.54106 0.0
H2409 H 0.35934 0.5855 0.4532 0.0
H2410 H 0.36118 0.5644 0.47898 0.0
C2411 C 0.36549 0.46618 0.55273 0.0
C2412 C 0.35713 0.49583 0.51089 0.0
H2413 H 0.38556 0.53012 0.4874 0.0
C2414 C 0.33835 0.49804 0.5021 0.0
C2415 C 0.37426 0.50789 0.50567 0.0
C2416 C 0.39495 0.50588 0.5143 0.0
C2417 C 0.33635 0.51147 0.48814 0.0
C2418 C 0.3537 0.52286 0.48243 0.0
C2419 C 0.37227 0.52133 0.49163 0.0
C2420 C 0.35298 0.53576 0.46661 0.0
C2421 C 0.31558 0.51329 0.47958 0.0
C2422 C 0.34813 0.52677 0.45089 0.0
C2423 C 0.347 0.53881 0.43611 0.0
C2424 C 0.35076 0.56025 0.43656 0.0
C2425 C 0.35601 0.56915 0.4523 0.0
C2426 C 0.35721 0.55705 0.46709 0.0
H2427 H 0.30282 0.50874 0.48823 0.0
H2428 H 0.31274 0.5293 0.47508 0.0
H2429 H 0.31516 0.50281 0.46847 0.0
H2430 H 0.34518 0.51035 0.45003 0.0
H2431 H 0.34276 0.53132 0.42435 0.0
H2432 H 0.13541 0.3055 0.43924 0.0
H2433 H 0.13875 0.27358 0.42311 0.0
H2434 H 0.16086 0.30808 0.37999 0.0
H2435 H 0.15689 0.34028 0.39593 0.0
H2436 H 0.13327 0.28139 0.37018 0.0
H2437 H 0.18806 0.23958 0.41139 0.0
H2438 H 0.16574 0.24754 0.42313 0.0
H2439 H 0.18263 0.26673 0.41406 0.0
C2440 C 0.14115 0.30634 0.42637 0.0
C2441 C 0.14593 0.3255 0.41892 0.0
C2442 C 0.14325 0.28798 0.41718 0.0
C2443 C 0.15056 0.28825 0.40042 0.0
C2444 C 0.15536 0.30739 0.39295 0.0
H2445 H 0.17292 0.17118 0.34504 0.0
H2446 H 0.17889 0.20398 0.36015 0.0
C2447 C 0.15305 0.32581 0.40207 0.0
C2448 C 0.15175 0.26875 0.39039 0.0
H2449 H 0.16842 0.21858 0.39188 0.0
C2450 C 0.14122 0.26778 0.37486 0.0
C2451 C 0.16245 0.25097 0.39621 0.0
C2452 C 0.17555 0.25132 0.41202 0.0
C2453 C 0.14023 0.2494 0.36545 0.0
C2454 C 0.14952 0.23121 0.37195 0.0
C2455 C 0.16097 0.23239 0.38703 0.0
C2456 C 0.1464 0.21074 0.36373 0.0
C2457 C 0.12914 0.24967 0.34863 0.0
C2458 C 0.12629 0.20328 0.36129 0.0
C2459 C 0.1229 0.18482 0.35264 0.0
C2460 C 0.13956 0.17313 0.34643 0.0
C2461 C 0.1598 0.17994 0.34963 0.0
C2462 C 0.1632 0.19866 0.35822 0.0
H2463 H 0.12919 0.26538 0.34294 0.0
H2464 H 0.13629 0.23876 0.33951 0.0
H2465 H 0.11279 0.2451 0.35057 0.0
H2466 H 0.1131 0.21192 0.36589 0.0
H2467 H 0.10712 0.17982 0.35061 0.0
H2468 H 0.07303 0.85182 0.60532 0.0
H2469 H 0.04043 0.85788 0.61998 0.0
H2470 H 0.04715 0.92347 0.61212 0.0
H2471 H 0.08036 0.91743 0.59765 0.0
H2472 H 0.03156 0.9143 0.64381 0.0
H2473 H 0.98754 0.87179 0.59506 0.0
H2474 H 0.00785 0.85625 0.60384 0.0
H2475 H 0.01414 0.87927 0.59208 0.0
C2476 C 0.06769 0.86757 0.60684 0.0
C2477 C 0.07911 0.88414 0.60018 0.0
C2478 C 0.04894 0.871 0.61511 0.0
C2479 C 0.04097 0.89107 0.61669 0.0
C2480 C 0.05287 0.90782 0.61084 0.0
H2481 H 0.9099 0.90171 0.64552 0.0
H2482 H 0.94254 0.90527 0.63001 0.0
C2483 C 0.07185 0.90438 0.60265 0.0
C2484 C 0.02011 0.8942 0.62425 0.0
H2485 H 0.97021 0.87727 0.62157 0.0
C2486 C 0.01809 0.90642 0.63884 0.0
C2487 C 0.00234 0.88435 0.61755 0.0
C2488 C 0.003 0.87238 0.60116 0.0
C2489 C 0.99908 0.90814 0.64739 0.0
C2490 C 0.98171 0.89693 0.64144 0.0
C2491 C 0.98351 0.88562 0.62634 0.0
C2492 C 0.96188 0.89585 0.65105 0.0
C2493 C 0.99784 0.922 0.66272 0.0
C2494 C 0.96174 0.88912 0.66796 0.0
C2495 C 0.94317 0.88722 0.67686 0.0
C2496 C 0.92415 0.89167 0.669 0.0
C2497 C 0.92423 0.89817 0.65198 0.0
C2498 C 0.94291 0.90024 0.6431 0.0
H2499 H 0.00943 0.93462 0.662 0.0
H2500 H 0.98225 0.92896 0.66407 0.0
H2501 H 1.00124 0.9128 0.67426 0.0
H2502 H 0.97602 0.88494 0.67424 0.0
H2503 H 0.94375 0.88193 0.68987 0.0
H2504 H 0.33539 0.8312 0.84373 0.0
H2505 H 0.32953 0.79817 0.85844 0.0
H2506 H 0.3951 0.7923 0.86709 0.0
H2507 H 0.40098 0.82467 0.85208 0.0
H2508 H 0.37975 0.7575 0.85447 0.0
H2509 H 0.33063 0.78326 0.90813 0.0
H2510 H 0.32072 0.78964 0.88753 0.0
H2511 H 0.34437 0.8012 0.89474 0.0
C2512 C 0.34846 0.82293 0.84899 0.0
C2513 C 0.36864 0.83045 0.84672 0.0
C2514 C 0.34512 0.8041 0.85744 0.0
C2515 C 0.36187 0.79272 0.86399 0.0
C2516 C 0.38191 0.80066 0.86211 0.0
H2517 H 0.36967 0.6954 0.93752 0.0
H2518 H 0.36782 0.72753 0.92145 0.0
C2519 C 0.38526 0.81922 0.85355 0.0
C2520 C 0.35906 0.77211 0.87214 0.0
H2521 H 0.33692 0.74742 0.90587 0.0
C2522 C 0.3703 0.75529 0.86567 0.0
C2523 C 0.34684 0.76921 0.88682 0.0
C2524 C 0.33508 0.78679 0.89484 0.0
C2525 C 0.37015 0.73588 0.87367 0.0
C2526 C 0.35787 0.73293 0.88832 0.0
C2527 C 0.34623 0.74962 0.89458 0.0
C2528 C 0.35809 0.71315 0.89804 0.0
C2529 C 0.38392 0.71905 0.86675 0.0
C2530 C 0.353 0.69423 0.89035 0.0
C2531 C 0.35432 0.67568 0.89949 0.0
C2532 C 0.36041 0.67571 0.91661 0.0
C2533 C 0.36493 0.69474 0.92437 0.0
C2534 C 0.36382 0.71319 0.9152 0.0
H2535 H 0.39615 0.72535 0.85833 0.0
H2536 H 0.39146 0.71029 0.87716 0.0
H2537 H 0.37447 0.70813 0.8592 0.0
H2538 H 0.34803 0.69379 0.87725 0.0
H2539 H 0.35048 0.66134 0.89316 0.0
H2540 H 0.43315 0.15088 0.09843 0.0
H2541 H 0.46546 0.14449 0.11341 0.0
H2542 H 0.45595 0.07881 0.10881 0.0
H2543 H 0.423 0.0852 0.09405 0.0
H2544 H 0.47081 0.08907 0.13999 0.0
H2545 H 0.51868 0.12705 0.09118 0.0
H2546 H 0.49885 0.14406 0.09873 0.0
H2547 H 0.49187 0.12073 0.08769 0.0
C2548 C 0.43788 0.13505 0.10062 0.0
C2549 C 0.42567 0.11854 0.09488 0.0
C2550 C 0.45646 0.13141 0.10909 0.0
C2551 C 0.46352 0.11118 0.1118 0.0
C2552 C 0.45097 0.09457 0.10666 0.0
H2553 H 0.5927 0.09806 0.14541 0.0
H2554 H 0.56076 0.09466 0.12893 0.0
C2555 C 0.43216 0.09822 0.09827 0.0
C2556 C 0.48392 0.10769 0.12011 0.0
H2557 H 0.53448 0.12278 0.11856 0.0
C2558 C 0.48479 0.0962 0.13519 0.0
C2559 C 0.50234 0.11654 0.11367 0.0
C2560 C 0.50296 0.12758 0.09683 0.0
C2561 C 0.50329 0.0943 0.14445 0.0
C2562 C 0.52131 0.10461 0.13872 0.0
C2563 C 0.52066 0.11514 0.12317 0.0
C2564 C 0.54067 0.10555 0.14898 0.0
C2565 C 0.50326 0.0812 0.16027 0.0
C2566 C 0.54017 0.11302 0.16567 0.0
C2567 C 0.55835 0.1148 0.17514 0.0
C2568 C 0.5776 0.10952 0.16806 0.0
C2569 C 0.57816 0.10225 0.15127 0.0
C2570 C 0.55989 0.10028 0.14184 0.0
H2571 H 0.49134 0.06889 0.15955 0.0
H2572 H 0.51854 0.07385 0.16245 0.0
H2573 H 0.49951 0.09106 0.17135 0.0
H2574 H 0.52573 0.11788 0.17133 0.0
H2575 H 0.55729 0.12069 0.18795 0.0
H2576 H 0.10147 0.82332 0.17087 0.0
H2577 H 0.10759 0.79133 0.15536 0.0
H2578 H 0.17326 0.79852 0.16243 0.0
H2579 H 0.16717 0.83112 0.17773 0.0
H2580 H 0.16354 0.78368 0.13056 0.0
H2581 H 0.12265 0.73809 0.17938 0.0
H2582 H 0.10672 0.75842 0.17114 0.0
H2583 H 0.12993 0.7647 0.18262 0.0
C2584 C 0.11725 0.81822 0.16898 0.0
C2585 C 0.13384 0.82956 0.17567 0.0
C2586 C 0.12071 0.79983 0.16022 0.0
C2587 C 0.14083 0.79215 0.15819 0.0
C2588 C 0.15758 0.80402 0.16404 0.0
H2589 H 0.15282 0.66193 0.1283 0.0
H2590 H 0.15621 0.69453 0.1438 0.0
C2591 C 0.15411 0.82265 0.17272 0.0
C2592 C 0.14403 0.77153 0.15028 0.0
H2593 H 0.1279 0.72138 0.15263 0.0
C2594 C 0.15596 0.76999 0.13548 0.0
C2595 C 0.13458 0.75352 0.15691 0.0
C2596 C 0.12295 0.75369 0.17349 0.0
C2597 C 0.1578 0.75117 0.12669 0.0
C2598 C 0.147 0.73354 0.13262 0.0
C2599 C 0.13595 0.73489 0.14789 0.0
C2600 C 0.14617 0.7138 0.12292 0.0
C2601 C 0.17136 0.75042 0.11116 0.0
C2602 C 0.13919 0.71366 0.10607 0.0
C2603 C 0.13741 0.6951 0.09716 0.0
C2604 C 0.1422 0.67613 0.10496 0.0
C2605 C 0.14899 0.67624 0.12189 0.0
C2606 C 0.15097 0.69488 0.13077 0.0
H2607 H 0.18378 0.76224 0.1118 0.0
H2608 H 0.1786 0.73499 0.10957 0.0
H2609 H 0.16187 0.75381 0.09978 0.0
H2610 H 0.1347 0.7279 0.09987 0.0
H2611 H 0.1319 0.69562 0.08421 0.0
H2612 H 0.55598 0.89973 0.33154 0.0
H2613 H 0.52283 0.90312 0.34609 0.0
H2614 H 0.55266 0.89064 0.39389 0.0
H2615 H 0.58597 0.88775 0.37949 0.0
H2616 H 0.5021 0.87483 0.36324 0.0
H2617 H 0.51826 0.94003 0.40641 0.0
H2618 H 0.53513 0.93344 0.38902 0.0
H2619 H 0.53682 0.91965 0.40881 0.0
C2620 C 0.55556 0.89789 0.34518 0.0
C2621 C 0.57369 0.89348 0.35434 0.0
C2622 C 0.53656 0.89987 0.35349 0.0
C2623 C 0.53521 0.89749 0.37115 0.0
C2624 C 0.55331 0.89313 0.38033 0.0
H2625 H 0.43474 0.85445 0.43076 0.0
H2626 H 0.46485 0.86033 0.41295 0.0
C2627 C 0.57237 0.8913 0.37204 0.0
C2628 C 0.51472 0.8981 0.37977 0.0
H2629 H 0.48871 0.91906 0.41335 0.0
C2630 C 0.49913 0.88472 0.37405 0.0
C2631 C 0.51057 0.91125 0.3937 0.0
C2632 C 0.52601 0.92706 0.39973 0.0
C2633 C 0.47998 0.88342 0.38234 0.0
C2634 C 0.47639 0.89549 0.397 0.0
C2635 C 0.49154 0.90962 0.40224 0.0
C2636 C 0.45776 0.89237 0.40775 0.0
C2637 C 0.4638 0.86895 0.37539 0.0
C2638 C 0.4439 0.90861 0.41116 0.0
C2639 C 0.42655 0.9053 0.42153 0.0
C2640 C 0.42298 0.88576 0.42874 0.0
C2641 C 0.43697 0.86967 0.42535 0.0
C2642 C 0.45418 0.87297 0.41507 0.0
H2643 H 0.46606 0.86622 0.36161 0.0
H2644 H 0.46505 0.85382 0.38193 0.0
H2645 H 0.44798 0.8751 0.37743 0.0
H2646 H 0.44646 0.92377 0.40573 0.0
H2647 H 0.41604 0.91798 0.42395 0.0
H2648 H 0.35906 0.31274 0.58065 0.0
H2649 H 0.35668 0.27924 0.59464 0.0
H2650 H 0.36959 0.30798 0.64276 0.0
H2651 H 0.37135 0.34179 0.62889 0.0
H2652 H 0.38476 0.258 0.61064 0.0
H2653 H 0.32109 0.27303 0.65567 0.0
H2654 H 0.32733 0.29059 0.63866 0.0
H2655 H 0.34179 0.29117 0.65816 0.0
C2656 C 0.3613 0.31202 0.59424 0.0
C2657 C 0.36542 0.33003 0.60363 0.0
C2658 C 0.35988 0.29279 0.60224 0.0
C2659 C 0.3626 0.291 0.61983 0.0
C2660 C 0.36683 0.30894 0.62926 0.0
H2661 H 0.40524 0.18592 0.67486 0.0
H2662 H 0.39988 0.21676 0.65783 0.0
C2663 C 0.36803 0.32828 0.62127 0.0
C2664 C 0.36221 0.27021 0.62805 0.0
H2665 H 0.3416 0.24277 0.66104 0.0
C2666 C 0.37513 0.25467 0.62154 0.0
C2667 C 0.34935 0.26554 0.64208 0.0
C2668 C 0.33394 0.2809 0.64893 0.0
C2669 C 0.37617 0.235 0.62904 0.0
C2670 C 0.36439 0.23081 0.64376 0.0
C2671 C 0.3508 0.24601 0.64986 0.0
C2672 C 0.36727 0.21144 0.65371 0.0
C2673 C 0.38997 0.2189 0.62108 0.0
C2674 C 0.35061 0.19822 0.65744 0.0
C2675 C 0.35362 0.18044 0.6674 0.0
C2676 C 0.37331 0.17579 0.67391 0.0
C2677 C 0.38988 0.18899 0.67002 0.0
C2678 C 0.38688 0.20663 0.66016 0.0
H2679 H 0.39203 0.22179 0.6073 0.0
H2680 H 0.40545 0.21958 0.62709 0.0
H2681 H 0.38364 0.20311 0.62283 0.0
H2682 H 0.3353 0.2017 0.65269 0.0
H2683 H 0.34056 0.17059 0.67026 0.0
H2684 H 0.07094 0.15085 0.92526 0.0
H2685 H 0.03945 0.14506 0.90921 0.0
H2686 H 0.05517 0.08063 0.90385 0.0
H2687 H 0.08686 0.08631 0.92055 0.0
H2688 H 0.03312 0.13232 0.87759 0.0
H2689 H 0.99676 0.07723 0.92265 0.0
H2690 H 0.01952 0.09195 0.92797 0.0
H2691 H 0.02158 0.06957 0.91462 0.0
C2692 C 0.06779 0.1354 0.92068 0.0
C2693 C 0.0813 0.11898 0.92432 0.0
C2694 C 0.04973 0.13213 0.91146 0.0
C2695 C 0.04467 0.11235 0.90555 0.0
C2696 C 0.05848 0.09594 0.90862 0.0
H2697 H 0.94384 0.10127 0.83236 0.0
H2698 H 0.97716 0.09922 0.84664 0.0
C2699 C 0.07667 0.09922 0.918 0.0
C2700 C 0.02488 0.10945 0.8962 0.0
H2701 H 0.97775 0.08564 0.89806 0.0
C2702 C 0.02108 0.12199 0.882 0.0
C2703 C 0.009 0.09622 0.90212 0.0
C2704 C 0.01175 0.08308 0.91776 0.0
C2705 C 0.00185 0.12199 0.87376 0.0
C2706 C 0.98605 0.10858 0.87952 0.0
C2707 C 0.98988 0.09582 0.8936 0.0
C2708 C 0.96537 0.10798 0.87125 0.0
C2709 C 0.99843 0.13699 0.85937 0.0
C2710 C 0.94737 0.11261 0.88048 0.0
C2711 C 0.9281 0.11353 0.87236 0.0
C2712 C 0.92653 0.1099 0.85484 0.0
C2713 C 0.94449 0.10452 0.84581 0.0
C2714 C 0.96363 0.1034 0.85395 0.0
H2715 H 0.0097 0.14993 0.85971 0.0
H2716 H 1.00045 0.1288 0.84714 0.0
H2717 H 0.98259 0.14357 0.85974 0.0
H2718 H 0.9483 0.11608 0.89389 0.0
H2719 H 0.91456 0.11762 0.8797 0.0
H2720 H 0.832 0.83048 0.67985 0.0
H2721 H 0.82585 0.79738 0.66527 0.0
H2722 H 0.89162 0.7886 0.66017 0.0
H2723 H 0.89776 0.82103 0.67495 0.0
H2724 H 0.83613 0.78212 0.63404 0.0
H2725 H 0.87503 0.7356 0.6833 0.0
H2726 H 0.8683 0.76237 0.68649 0.0
H2727 H 0.8917 0.75554 0.67546 0.0
C2728 C 0.84508 0.82147 0.67552 0.0
C2729 C 0.86535 0.82817 0.67874 0.0
C2730 C 0.84158 0.80257 0.66724 0.0
C2731 C 0.8583 0.79017 0.66206 0.0
C2732 C 0.87847 0.79748 0.66453 0.0
H2733 H 0.86874 0.69516 0.58703 0.0
H2734 H 0.86554 0.72701 0.60321 0.0
C2735 C 0.88195 0.81614 0.67289 0.0
C2736 C 0.85502 0.7696 0.65402 0.0
H2737 H 0.87092 0.71931 0.65613 0.0
C2738 C 0.8435 0.76832 0.63899 0.0
C2739 C 0.86418 0.75141 0.66065 0.0
C2740 C 0.87529 0.75123 0.67746 0.0
C2741 C 0.84186 0.74965 0.62995 0.0
C2742 C 0.85248 0.73187 0.63586 0.0
C2743 C 0.86304 0.73293 0.65138 0.0
C2744 C 0.85366 0.71233 0.62586 0.0
C2745 C 0.82869 0.74922 0.61418 0.0
C2746 C 0.8488 0.69319 0.63332 0.0
C2747 C 0.85102 0.67477 0.62415 0.0
C2748 C 0.85812 0.6751 0.60729 0.0
C2749 C 0.86299 0.69428 0.5999 0.0
C2750 C 0.86098 0.71261 0.60911 0.0
H2751 H 0.81619 0.76097 0.61481 0.0
H2752 H 0.83845 0.75294 0.60303 0.0
H2753 H 0.82159 0.73381 0.61221 0.0
H2754 H 0.84331 0.69249 0.64627 0.0
H2755 H 0.84714 0.66029 0.63025 0.0
H2756 H 0.06153 0.12012 0.33528 0.0
H2757 H 0.02936 0.11791 0.35112 0.0
H2758 H 0.06281 0.09708 0.39521 0.0
H2759 H 0.09541 0.09983 0.37948 0.0
H2760 H 0.00956 0.0864 0.3661 0.0
H2761 H 0.03077 0.14499 0.41443 0.0
H2762 H 0.04601 0.14075 0.39564 0.0
H2763 H 0.04801 0.12331 0.41332 0.0
C2764 C 0.06216 0.11506 0.34835 0.0
C2765 C 0.08116 0.1103 0.35613 0.0
C2766 C 0.04366 0.11375 0.3574 0.0
C2767 C 0.04359 0.10759 0.37444 0.0
C2768 C 0.06246 0.10232 0.38218 0.0
H2769 H 0.92465 0.0852 0.42724 0.0
H2770 H 0.95771 0.07922 0.41266 0.0
C2771 C 0.0811 0.10382 0.37315 0.0
C2772 C 0.02368 0.10718 0.38396 0.0
H2773 H 0.99827 0.12915 0.41733 0.0
C2774 C 0.00711 0.09565 0.37737 0.0
C2775 C 0.0204 0.1194 0.39858 0.0
C2776 C 0.03715 0.13297 0.40586 0.0
C2777 C 0.98731 0.09638 0.38473 0.0
C2778 C 0.98405 0.10863 0.39933 0.0
C2779 C 1.00076 0.11971 0.40617 0.0
C2780 C 0.96324 0.11153 0.40708 0.0
C2781 C 0.96989 0.08475 0.37637 0.0
C2782 C 0.95527 0.13158 0.4088 0.0
C2783 C 0.93665 0.135 0.41727 0.0
C2784 C 0.92544 0.11843 0.42415 0.0
C2785 C 0.93289 0.09823 0.4219 0.0
C2786 C 0.95176 0.09481 0.41355 0.0
H2787 H 0.97377 0.08026 0.36316 0.0
H2788 H 0.96675 0.07042 0.38364 0.0
H2789 H 0.95554 0.09414 0.37617 0.0
H2790 H 0.96371 0.14473 0.40387 0.0
H2791 H 0.93125 0.15074 0.41877 0.0
H2792 H 0.63469 0.3082 0.08753 0.0
H2793 H 0.63704 0.27607 0.10355 0.0
H2794 H 0.65727 0.30992 0.14756 0.0
H2795 H 0.65434 0.34236 0.1317 0.0
H2796 H 0.66836 0.25632 0.11903 0.0
H2797 H 0.60923 0.27826 0.16672 0.0
H2798 H 0.6137 0.29324 0.14781 0.0
H2799 H 0.63083 0.29555 0.16566 0.0
C2800 C 0.63965 0.30889 0.10062 0.0
C2801 C 0.64415 0.32795 0.10835 0.0
C2802 C 0.64105 0.29044 0.10977 0.0
C2803 C 0.64704 0.29051 0.12687 0.0
C2804 C 0.65214 0.30945 0.13451 0.0
H2805 H 0.66926 0.1723 0.18133 0.0
H2806 H 0.67548 0.20532 0.16665 0.0
C2807 C 0.65054 0.32801 0.1254 0.0
C2808 C 0.64739 0.27075 0.1366 0.0
H2809 H 0.6255 0.24605 0.17039 0.0
C2810 C 0.65907 0.25409 0.13032 0.0
C2811 C 0.63513 0.26775 0.15126 0.0
C2812 C 0.62136 0.28456 0.15821 0.0
C2813 C 0.65848 0.23447 0.13805 0.0
C2814 C 0.64622 0.23151 0.1527 0.0
C2815 C 0.63498 0.24831 0.15921 0.0
C2816 C 0.64325 0.21085 0.16072 0.0
C2817 C 0.67029 0.21692 0.13004 0.0
C2818 C 0.62317 0.20295 0.16232 0.0
C2819 C 0.61962 0.1844 0.17084 0.0
C2820 C 0.63607 0.17315 0.17791 0.0
C2821 C 0.65632 0.18059 0.17588 0.0
C2822 C 0.65987 0.19942 0.16745 0.0
H2823 H 0.675 0.22055 0.11684 0.0
H2824 H 0.68448 0.21389 0.13752 0.0
H2825 H 0.6609 0.20257 0.12993 0.0
H2826 H 0.6101 0.21134 0.15718 0.0
H2827 H 0.60386 0.17901 0.17212 0.0
H2828 H 0.44616 0.88486 0.83692 0.0
H2829 H 0.47772 0.88691 0.85362 0.0
H2830 H 0.44262 0.90786 0.89676 0.0
H2831 H 0.41066 0.9052 0.88019 0.0
H2832 H 0.49746 0.91774 0.8692 0.0
H2833 H 0.47302 0.85978 0.91707 0.0
H2834 H 0.45864 0.86431 0.89787 0.0
H2835 H 0.45621 0.88174 0.91549 0.0
C2836 C 0.44505 0.88993 0.84996 0.0
C2837 C 0.42577 0.89469 0.85723 0.0
C2838 C 0.4632 0.89115 0.85951 0.0
C2839 C 0.46263 0.89723 0.87656 0.0
C2840 C 0.44347 0.90263 0.88375 0.0
H2841 H 0.58033 0.91751 0.93226 0.0
H2842 H 0.54768 0.92425 0.91722 0.0
C2843 C 0.4252 0.9012 0.87423 0.0
C2844 C 0.48211 0.89735 0.88671 0.0
H2845 H 0.50549 0.8753 0.92109 0.0
C2846 C 0.49919 0.90854 0.8806 0.0
C2847 C 0.48448 0.88521 0.90152 0.0
C2848 C 0.4672 0.87192 0.90832 0.0
C2849 C 0.51861 0.90756 0.88863 0.0
C2850 C 0.52095 0.89541 0.90343 0.0
C2851 C 0.50372 0.88469 0.90978 0.0
C2852 C 0.54137 0.89206 0.9118 0.0
C2853 C 0.53662 0.91879 0.88074 0.0
C2854 C 0.54872 0.87181 0.91387 0.0
C2855 C 0.56707 0.86798 0.9226 0.0
C2856 C 0.57868 0.88428 0.92945 0.0
C2857 C 0.57177 0.90466 0.927 0.0
C2858 C 0.55315 0.90851 0.91836 0.0
H2859 H 0.53343 0.92328 0.86741 0.0
H2860 H 0.53973 0.9331 0.88804 0.0
H2861 H 0.55078 0.9091 0.88103 0.0
H2862 H 0.54006 0.85885 0.90888 0.0
H2863 H 0.57203 0.85211 0.92422 0.0
H2864 H 0.86522 0.33898 0.89383 0.0
H2865 H 0.86343 0.30598 0.87875 0.0
H2866 H 0.85227 0.27434 0.92598 0.0
H2867 H 0.85457 0.30705 0.94115 0.0
H2868 H 0.88134 0.25525 0.90853 0.0
H2869 H 0.81521 0.27005 0.86573 0.0
H2870 H 0.83517 0.2891 0.86366 0.0
H2871 H 0.82131 0.28674 0.88334 0.0
C2872 C 0.8622 0.32502 0.90099 0.0
C2873 C 0.8601 0.32572 0.91872 0.0
C2874 C 0.86101 0.30615 0.89232 0.0
C2875 C 0.85739 0.28762 0.90116 0.0
C2876 C 0.85502 0.28838 0.91883 0.0
H2877 H 0.83677 0.16693 0.8514 0.0
H2878 H 0.83162 0.19839 0.86849 0.0
C2879 C 0.85636 0.30715 0.9275 0.0
C2880 C 0.85744 0.26729 0.89227 0.0
H2881 H 0.83609 0.24046 0.8593 0.0
C2882 C 0.87128 0.252 0.89787 0.0
C2883 C 0.84411 0.26279 0.87852 0.0
C2884 C 0.82796 0.27795 0.87256 0.0
C2885 C 0.87265 0.23273 0.8898 0.0
C2886 C 0.86017 0.22868 0.87545 0.0
C2887 C 0.84579 0.24362 0.8702 0.0
C2888 C 0.86287 0.20958 0.86518 0.0
C2889 C 0.88751 0.21685 0.89674 0.0
C2890 C 0.88199 0.20557 0.85751 0.0
C2891 C 0.88494 0.18775 0.84788 0.0
C2892 C 0.86877 0.17354 0.84551 0.0
C2893 C 0.84951 0.17757 0.85305 0.0
C2894 C 0.84655 0.19553 0.86276 0.0
H2895 H 0.89087 0.21961 0.91036 0.0
H2896 H 0.88132 0.20096 0.89529 0.0
H2897 H 0.90232 0.21787 0.8897 0.0
H2898 H 0.89468 0.21634 0.85889 0.0
H2899 H 0.89995 0.18518 0.84219 0.0
H2900 H 0.44896 0.1218 0.6914 0.0
H2901 H 0.48145 0.1201 0.67564 0.0
H2902 H 0.44803 0.10368 0.63035 0.0
H2903 H 0.41541 0.10605 0.64588 0.0
H2904 H 0.50142 0.09023 0.65864 0.0
H2905 H 0.47994 0.15275 0.61389 0.0
H2906 H 0.46479 0.14688 0.63243 0.0
H2907 H 0.46226 0.13144 0.61359 0.0
C2908 C 0.4485 0.11781 0.67808 0.0
C2909 C 0.42953 0.11432 0.66986 0.0
C2910 C 0.46712 0.11679 0.66909 0.0
C2911 C 0.46723 0.11216 0.6517 0.0
C2912 C 0.44836 0.10786 0.64362 0.0
H2913 H 0.58208 0.08803 0.59398 0.0
H2914 H 0.54995 0.08301 0.61015 0.0
C2915 C 0.4297 0.10913 0.65256 0.0
C2916 C 0.48702 0.11237 0.64202 0.0
H2917 H 0.51118 0.13514 0.60837 0.0
C2918 C 0.50357 0.10005 0.64763 0.0
C2919 C 0.48995 0.12535 0.62776 0.0
C2920 C 0.47338 0.14001 0.62164 0.0
C2921 C 0.52294 0.10045 0.63948 0.0
C2922 C 0.52571 0.11317 0.62506 0.0
C2923 C 0.50907 0.12528 0.61935 0.0
C2924 C 0.54599 0.11541 0.61625 0.0
C2925 C 0.5404 0.08781 0.64677 0.0
C2926 C 0.55447 0.1352 0.61418 0.0
C2927 C 0.57246 0.13808 0.60474 0.0
C2928 C 0.58259 0.12123 0.59723 0.0
C2929 C 0.57464 0.10126 0.59974 0.0
C2930 C 0.55633 0.0984 0.60905 0.0
H2931 H 0.53734 0.08327 0.66012 0.0
H2932 H 0.54223 0.07348 0.63922 0.0
H2933 H 0.55519 0.09647 0.64629 0.0
H2934 H 0.54692 0.14857 0.61964 0.0
H2935 H 0.5783 0.15364 0.60312 0.0
H2936 H 0.66474 0.83112 0.34888 0.0
H2937 H 0.67022 0.79853 0.36438 0.0
H2938 H 0.60476 0.79444 0.37401 0.0
H2939 H 0.5992 0.82639 0.35819 0.0
H2940 H 0.66211 0.7841 0.39643 0.0
H2941 H 0.61552 0.7406 0.34985 0.0
H2942 H 0.62363 0.76688 0.34624 0.0
H2943 H 0.60118 0.76151 0.35898 0.0
C2944 C 0.6516 0.82334 0.3545 0.0
C2945 C 0.63151 0.83108 0.35215 0.0
C2946 C 0.65473 0.80472 0.36331 0.0
C2947 C 0.63782 0.79369 0.36993 0.0
C2948 C 0.61797 0.80226 0.36855 0.0
H2949 H 0.63381 0.69404 0.44302 0.0
H2950 H 0.63547 0.72722 0.42838 0.0
C2951 C 0.61483 0.82062 0.35962 0.0
C2952 C 0.64057 0.77294 0.37779 0.0
H2953 H 0.62265 0.72337 0.37599 0.0
C2954 C 0.65364 0.77076 0.39188 0.0
C2955 C 0.62992 0.75536 0.37163 0.0
C2956 C 0.61696 0.75612 0.35573 0.0
C2957 C 0.65568 0.75171 0.40037 0.0
C2958 C 0.64392 0.7345 0.39488 0.0
C2959 C 0.63148 0.73655 0.3804 0.0
C2960 C 0.64389 0.71431 0.40404 0.0
C2961 C 0.67062 0.75024 0.415 0.0
C2962 C 0.64742 0.69578 0.3952 0.0
C2963 C 0.64603 0.67669 0.40349 0.0
C2964 C 0.64116 0.67568 0.42084 0.0
C2965 C 0.6378 0.69423 0.4297 0.0
C2966 C 0.63894 0.71329 0.42135 0.0
H2967 H 0.68312 0.76192 0.41387 0.0
H2968 H 0.66224 0.75331 0.427 0.0
H2969 H 0.67775 0.73467 0.41579 0.0
H2970 H 0.65115 0.69608 0.38182 0.0
H2971 H 0.64876 0.66273 0.39628 0.0
H2972 H 0.92083 0.91575 0.09949 0.0
H2973 H 0.95333 0.92065 0.11519 0.0
H2974 H 0.95922 0.85462 0.12082 0.0
H2975 H 0.92738 0.84971 0.10476 0.0
H2976 H 0.96742 0.91055 0.14647 0.0
H2977 H 0.0133 0.86848 0.09858 0.0
H2978 H 0.98684 0.876 0.09494 0.0
H2979 H 0.99271 0.85284 0.10669 0.0
C2980 C 0.92904 0.90234 0.10421 0.0
C2981 C 0.92178 0.88234 0.1007 0.0
C2982 C 0.9476 0.90513 0.11314 0.0
C2983 C 0.95909 0.88797 0.11875 0.0
C2984 C 0.95108 0.86808 0.11613 0.0
H2985 H 0.05663 0.88136 0.19355 0.0
H2986 H 0.02391 0.88316 0.17826 0.0
C2987 C 0.93277 0.8653 0.10706 0.0
C2988 C 0.97959 0.89059 0.12708 0.0
H2989 H 0.02964 0.87392 0.1254 0.0
C2990 C 0.98108 0.90271 0.14178 0.0
C2991 C 0.99759 0.88079 0.12077 0.0
C2992 C 0.99761 0.869 0.10428 0.0
C2993 C 0.99984 0.90459 0.15069 0.0
C2994 C 0.01749 0.89359 0.14502 0.0
C2995 C 0.01613 0.88213 0.12995 0.0
C2996 C 0.0374 0.89333 0.15457 0.0
C2997 C 1.00055 0.91857 0.16596 0.0
C2998 C 0.05612 0.89777 0.14629 0.0
C2999 C 0.07498 0.89629 0.15493 0.0
C3000 C 0.07553 0.89044 0.17209 0.0
C3001 C 0.05678 0.88614 0.18039 0.0
C3002 C 0.03797 0.88735 0.17168 0.0
H3003 H 0.98866 0.93092 0.16511 0.0
H3004 H 0.99726 0.90937 0.17752 0.0
H3005 H 0.01594 0.92592 0.16739 0.0
H3006 H 0.05617 0.9023 0.13307 0.0
H3007 H 0.08911 0.89975 0.14816 0.0
H3008 H 0.66623 0.66563 0.85317 0.0
H3009 H 0.67172 0.69669 0.8707 0.0
H3010 H 0.60881 0.71552 0.8614 0.0
H3011 H 0.6032 0.68478 0.84433 0.0
H3012 H 0.66766 0.739 0.86215 0.0
H3013 H 0.6126 0.71781 0.91282 0.0
H3014 H 0.62197 0.69934 0.89752 0.0
H3015 H 0.60105 0.71649 0.89219 0.0
C3016 C 0.6536 0.67638 0.855 0.0
C3017 C 0.63428 0.67272 0.84744 0.0
C3018 C 0.65674 0.69411 0.86495 0.0
C3019 C 0.64056 0.70829 0.86758 0.0
C3020 C 0.62139 0.70464 0.85988 0.0
H3021 H 0.63806 0.83741 0.89658 0.0
H3022 H 0.64051 0.80446 0.88145 0.0
C3023 C 0.61826 0.68705 0.85003 0.0
C3024 C 0.6434 0.72717 0.87808 0.0
H3025 H 0.62186 0.75357 0.91108 0.0
C3026 C 0.65786 0.74211 0.873 0.0
C3027 C 0.6308 0.73114 0.89237 0.0
C3028 C 0.61589 0.71525 0.89916 0.0
C3029 C 0.65946 0.76122 0.88141 0.0
C3030 C 0.64594 0.76569 0.89506 0.0
C3031 C 0.63206 0.75037 0.9005 0.0
C3032 C 0.64577 0.78601 0.90396 0.0
C3033 C 0.67572 0.77636 0.87565 0.0
C3034 C 0.64748 0.78671 0.92169 0.0
C3035 C 0.6457 0.80544 0.93036 0.0
C3036 C 0.64223 0.82402 0.92154 0.0
C3037 C 0.64087 0.82342 0.90376 0.0
C3038 C 0.64244 0.80458 0.89507 0.0
H3039 H 0.68865 0.7684 0.86908 0.0
H3040 H 0.66872 0.78741 0.86656 0.0
H3041 H 0.68209 0.78523 0.88649 0.0
H3042 H 0.65 0.77266 0.92887 0.0
H3043 H 0.64695 0.80529 0.94405 0.0
H3044 H 0.57342 0.35384 0.10225 0.0
H3045 H 0.54094 0.35986 0.11704 0.0
H3046 H 0.54959 0.42564 0.11216 0.0
H3047 H 0.58273 0.41962 0.09757 0.0
H3048 H 0.53416 0.41503 0.1434 0.0
H3049 H 0.4881 0.37669 0.09363 0.0
H3050 H 0.50801 0.35999 0.10151 0.0
H3051 H 0.51488 0.38348 0.09062 0.0
C3052 C 0.56849 0.36962 0.10437 0.0
C3053 C 0.58049 0.38626 0.09856 0.0
C3054 C 0.54981 0.37304 0.11273 0.0
C3055 C 0.54245 0.39318 0.11527 0.0
C3056 C 0.55482 0.40994 0.11015 0.0
H3057 H 0.41224 0.40518 0.14562 0.0
H3058 H 0.44485 0.40877 0.13014 0.0
C3059 C 0.57374 0.40651 0.10186 0.0
C3060 C 0.52181 0.3964 0.12322 0.0
H3061 H 0.47148 0.38082 0.12063 0.0
C3062 C 0.52039 0.40778 0.13831 0.0
C3063 C 0.50368 0.38738 0.11642 0.0
C3064 C 0.50367 0.3764 0.09956 0.0
C3065 C 0.5016 0.40946 0.1472 0.0
C3066 C 0.48384 0.39904 0.14108 0.0
C3067 C 0.48507 0.38856 0.12554 0.0
C3068 C 0.46409 0.39805 0.15081 0.0
C3069 C 0.50102 0.42248 0.16304 0.0
C3070 C 0.46389 0.39065 0.16755 0.0
C3071 C 0.44531 0.38877 0.17646 0.0
C3072 C 0.42636 0.39388 0.16877 0.0
C3073 C 0.42652 0.40111 0.15195 0.0
C3074 C 0.44518 0.40319 0.14309 0.0
H3075 H 0.51293 0.43483 0.16263 0.0
H3076 H 0.48565 0.42977 0.16486 0.0
H3077 H 0.5044 0.41258 0.17418 0.0
H3078 H 0.4781 0.38589 0.17365 0.0
H3079 H 0.4458 0.38292 0.18932 0.0
H3080 H 0.90219 0.3169 0.34305 0.0
H3081 H 0.89683 0.28594 0.35998 0.0
H3082 H 0.83457 0.3055 0.37105 0.0
H3083 H 0.83979 0.3367 0.35365 0.0
H3084 H 0.88783 0.28217 0.39342 0.0
H3085 H 0.82606 0.24629 0.35435 0.0
H3086 H 0.84135 0.26776 0.3469 0.0
H3087 H 0.82081 0.27199 0.3618 0.0
C3088 C 0.88729 0.31466 0.34901 0.0
C3089 C 0.87136 0.3292 0.34691 0.0
C3090 C 0.88427 0.29692 0.35874 0.0
C3091 C 0.86523 0.29318 0.36665 0.0
C3092 C 0.84928 0.30782 0.3648 0.0
H3093 H 0.85798 0.19504 0.4435 0.0
H3094 H 0.85589 0.22831 0.42894 0.0
C3095 C 0.8523 0.32569 0.35496 0.0
C3096 C 0.86264 0.27403 0.37693 0.0
H3097 H 0.83667 0.22808 0.37876 0.0
C3098 C 0.87652 0.27041 0.3903 0.0
C3099 C 0.84807 0.25856 0.37272 0.0
C3100 C 0.8333 0.26116 0.35809 0.0
C3101 C 0.87653 0.2517 0.39934 0.0
C3102 C 0.8619 0.23624 0.3952 0.0
C3103 C 0.84779 0.23995 0.382 0.0
C3104 C 0.86166 0.21583 0.40396 0.0
C3105 C 0.89279 0.24837 0.41279 0.0
C3106 C 0.86479 0.19755 0.39472 0.0
C3107 C 0.8658 0.17841 0.40301 0.0
C3108 C 0.86369 0.17714 0.42072 0.0
C3109 C 0.85994 0.19543 0.42987 0.0
C3110 C 0.85882 0.21452 0.42157 0.0
H3111 H 0.9059 0.25931 0.41139 0.0
H3112 H 0.88582 0.25087 0.42546 0.0
H3113 H 0.89895 0.23236 0.41232 0.0
H3114 H 0.86694 0.19813 0.38112 0.0
H3115 H 0.86862 0.16467 0.39554 0.0
H3116 H 0.92997 0.64936 0.60074 0.0
H3117 H 0.96255 0.64296 0.61531 0.0
H3118 H 0.95346 0.57729 0.61005 0.0
H3119 H 0.92022 0.58369 0.59572 0.0
H3120 H 0.96896 0.58711 0.64114 0.0
H3121 H 0.01537 0.62635 0.59205 0.0
H3122 H 0.99559 0.64306 0.60009 0.0
H3123 H 0.98854 0.61986 0.5889 0.0
C3124 C 0.93483 0.63353 0.60272 0.0
C3125 C 0.92266 0.61703 0.59691 0.0
C3126 C 0.95358 0.62989 0.61095 0.0
C3127 C 0.96084 0.60967 0.61332 0.0
C3128 C 0.94832 0.59305 0.60816 0.0
H3129 H 0.09091 0.59749 0.64475 0.0
H3130 H 0.05863 0.59392 0.62875 0.0
C3131 C 0.92934 0.5967 0.60001 0.0
C3132 C 0.98145 0.6062 0.62128 0.0
H3133 H 0.03182 0.62179 0.61913 0.0
C3134 C 0.98277 0.59446 0.63621 0.0
C3135 C 0.99965 0.61533 0.61467 0.0
C3136 C 0.99978 0.62665 0.59794 0.0
C3137 C 1.00149 0.59256 0.64516 0.0
C3138 C 0.01929 0.60315 0.63928 0.0
C3139 C 0.01819 0.61394 0.62386 0.0
C3140 C 0.03887 0.60412 0.64925 0.0
C3141 C 0.00195 0.57918 0.66081 0.0
C3142 C 0.03867 0.61124 0.66605 0.0
C3143 C 0.05703 0.61311 0.67525 0.0
C3144 C 0.07619 0.60827 0.66779 0.0
C3145 C 0.07645 0.60133 0.6509 0.0
C3146 C 0.05798 0.59926 0.64174 0.0
H3147 H 0.99016 0.56674 0.6601 0.0
H3148 H 0.01735 0.57197 0.66269 0.0
H3149 H 0.99831 0.58878 0.67206 0.0
H3150 H 0.0243 0.61579 0.672 0.0
H3151 H 0.0562 0.61874 0.68815 0.0
H3152 H 0.66806 0.33685 0.67419 0.0
H3153 H 0.67404 0.30575 0.65681 0.0
H3154 H 0.6117 0.28567 0.66673 0.0
H3155 H 0.60562 0.31642 0.68371 0.0
H3156 H 0.67061 0.26304 0.66569 0.0
H3157 H 0.61523 0.28389 0.61505 0.0
H3158 H 0.62461 0.30244 0.63027 0.0
H3159 H 0.60393 0.28513 0.63578 0.0
C3160 C 0.65567 0.3258 0.67256 0.0
C3161 C 0.63635 0.32913 0.68025 0.0
C3162 C 0.65909 0.30805 0.66269 0.0
C3163 C 0.6432 0.29352 0.66027 0.0
C3164 C 0.62406 0.29681 0.66812 0.0
H3165 H 0.64199 0.16474 0.63018 0.0
H3166 H 0.64407 0.19747 0.64566 0.0
C3167 C 0.62065 0.31441 0.6779 0.0
C3168 C 0.64629 0.27472 0.64972 0.0
H3169 H 0.62536 0.24839 0.61643 0.0
C3170 C 0.66092 0.25992 0.65478 0.0
C3171 C 0.63382 0.27073 0.63537 0.0
C3172 C 0.61866 0.28648 0.62868 0.0
C3173 C 0.66284 0.2409 0.64624 0.0
C3174 C 0.6495 0.23644 0.63248 0.0
C3175 C 0.63543 0.25161 0.62709 0.0
C3176 C 0.64973 0.21624 0.6234 0.0
C3177 C 0.67921 0.22587 0.652 0.0
C3178 C 0.65188 0.21579 0.60571 0.0
C3179 C 0.65037 0.19719 0.59683 0.0
C3180 C 0.6467 0.17848 0.60542 0.0
C3181 C 0.64496 0.17882 0.62318 0.0
C3182 C 0.6463 0.19754 0.63207 0.0
H3183 H 0.6919 0.23384 0.65885 0.0
H3184 H 0.6722 0.21452 0.66083 0.0
H3185 H 0.6859 0.21731 0.64111 0.0
H3186 H 0.65448 0.22995 0.5987 0.0
H3187 H 0.6519 0.19754 0.58317 0.0
H3188 H 0.93559 0.35224 0.93313 0.0
H3189 H 0.9667 0.35756 0.91637 0.0
H3190 H 0.9474 0.41991 0.90528 0.0
H3191 H 0.91606 0.41472 0.92249 0.0
H3192 H 0.97053 0.36676 0.88287 0.0
H3193 H 0.00665 0.42806 0.92224 0.0
H3194 H 0.98513 0.41277 0.92961 0.0
H3195 H 0.98094 0.43347 0.91483 0.0
C3196 C 0.93793 0.36715 0.9272 0.0
C3197 C 0.92342 0.38312 0.92923 0.0
C3198 C 0.95576 0.37015 0.91757 0.0
C3199 C 0.95959 0.3892 0.90971 0.0
C3200 C 0.945 0.40519 0.9115 0.0
H3201 H 0.05678 0.39783 0.83247 0.0
H3202 H 0.02377 0.39954 0.8474 0.0
C3203 C 0.92705 0.40219 0.92123 0.0
C3204 C 0.97877 0.39178 0.89947 0.0
H3205 H 0.02471 0.41777 0.89767 0.0
C3206 C 0.98231 0.37802 0.88603 0.0
C3207 C 0.99427 0.40629 0.90374 0.0
C3208 C 0.99174 0.42091 0.91847 0.0
C3209 C 1.00096 0.37813 0.87692 0.0
C3210 C 0.01643 0.39273 0.88109 0.0
C3211 C 0.01282 0.40667 0.89441 0.0
C3212 C 0.0367 0.3932 0.87215 0.0
C3213 C 0.00421 0.36205 0.86334 0.0
C3214 C 0.05514 0.38985 0.88115 0.0
C3215 C 0.07414 0.38905 0.87265 0.0
C3216 C 0.07509 0.39159 0.85495 0.0
C3217 C 0.05665 0.39555 0.84606 0.0
C3218 C 0.0377 0.39646 0.85458 0.0
H3219 H 0.99331 0.3489 0.8647 0.0
H3220 H 1.00158 0.36917 0.85073 0.0
H3221 H 0.02024 0.35593 0.86368 0.0
H3222 H 0.05478 0.38738 0.89472 0.0
H3223 H 0.08802 0.38604 0.87992 0.0
H3224 H 0.86684 0.83798 0.13002 0.0
H3225 H 0.86533 0.80441 0.14429 0.0
H3226 H 0.85144 0.77489 0.09669 0.0
H3227 H 0.85334 0.80826 0.08228 0.0
H3228 H 0.83467 0.77503 0.14748 0.0
H3229 H 0.9016 0.74266 0.11243 0.0
H3230 H 0.89514 0.76975 0.11187 0.0
H3231 H 0.88102 0.75164 0.09907 0.0
C3232 C 0.86343 0.82437 0.12257 0.0
C3233 C 0.86044 0.82585 0.10495 0.0
C3234 C 0.86253 0.80516 0.13077 0.0
C3235 C 0.85863 0.78702 0.12154 0.0
C3236 C 0.85496 0.78856 0.10404 0.0
H3237 H 0.83688 0.66621 0.17219 0.0
H3238 H 0.83142 0.6975 0.15491 0.0
C3239 C 0.85597 0.80772 0.09583 0.0
C3240 C 0.8589 0.7665 0.13017 0.0
H3241 H 0.88396 0.72 0.13084 0.0
C3242 C 0.84538 0.76295 0.14381 0.0
C3243 C 0.87299 0.75077 0.12547 0.0
C3244 C 0.88865 0.75388 0.11152 0.0
C3245 C 0.84572 0.74424 0.15295 0.0
C3246 C 0.85975 0.72849 0.14818 0.0
C3247 C 0.87305 0.73196 0.13439 0.0
C3248 C 0.8625 0.7092 0.1583 0.0
C3249 C 0.83164 0.74181 0.16805 0.0
C3250 C 0.88183 0.70506 0.16558 0.0
C3251 C 0.88498 0.68727 0.17523 0.0
C3252 C 0.86888 0.67307 0.17791 0.0
C3253 C 0.84953 0.67694 0.17043 0.0
C3254 C 0.84638 0.69487 0.16066 0.0
H3255 H 0.82485 0.75678 0.17208 0.0
H3256 H 0.81879 0.73124 0.1647 0.0
H3257 H 0.84011 0.73498 0.17893 0.0
H3258 H 0.89453 0.71578 0.16393 0.0
H3259 H 0.90011 0.68475 0.18073 0.0
H3260 H 0.5858 0.58705 0.41916 0.0
H3261 H 0.55449 0.58237 0.40178 0.0
H3262 H 0.53803 0.64609 0.41018 0.0
H3263 H 0.56908 0.65091 0.42707 0.0
H3264 H 0.51315 0.58743 0.41088 0.0
H3265 H 0.53306 0.64157 0.35922 0.0
H3266 H 0.55197 0.63236 0.37425 0.0
H3267 H 0.53516 0.65354 0.37963 0.0
C3268 C 0.57559 0.60007 0.41708 0.0
C3269 C 0.57993 0.61935 0.42444 0.0
C3270 C 0.55769 0.59738 0.40722 0.0
C3271 C 0.54403 0.61397 0.40446 0.0
C3272 C 0.5485 0.63318 0.41178 0.0
H3273 H 0.41371 0.61758 0.3788 0.0
H3274 H 0.44727 0.61535 0.39306 0.0
C3275 C 0.56625 0.63587 0.42154 0.0
C3276 C 0.52466 0.6114 0.39448 0.0
H3277 H 0.49717 0.63297 0.36203 0.0
C3278 C 0.50974 0.59718 0.40005 0.0
C3279 C 0.52026 0.62392 0.38021 0.0
C3280 C 0.53605 0.63854 0.37286 0.0
C3281 C 0.49027 0.59575 0.39216 0.0
C3282 C 0.48542 0.6092 0.37855 0.0
C3283 C 0.50067 0.62284 0.3726 0.0
C3284 C 0.46475 0.60947 0.37016 0.0
C3285 C 0.47518 0.57973 0.39843 0.0
C3286 C 0.46331 0.60736 0.3525 0.0
C3287 C 0.44423 0.60898 0.34431 0.0
C3288 C 0.42602 0.61271 0.35356 0.0
C3289 C 0.42738 0.61455 0.37129 0.0
C3290 C 0.44658 0.61312 0.37948 0.0
H3291 H 0.48322 0.56681 0.40495 0.0
H3292 H 0.4645 0.58697 0.40768 0.0
H3293 H 0.46587 0.57331 0.38786 0.0
H3294 H 0.47705 0.6046 0.34499 0.0
H3295 H 0.44381 0.60738 0.33065 0.0
H3296 H 0.35327 0.19499 0.08269 0.0
H3297 H 0.35064 0.22765 0.09788 0.0
H3298 H 0.36426 0.19646 0.14487 0.0
H3299 H 0.36642 0.16339 0.12974 0.0
H3300 H 0.33378 0.22653 0.14851 0.0
H3301 H 0.40133 0.2584 0.11407 0.0
H3302 H 0.38091 0.25001 0.10035 0.0
H3303 H 0.39447 0.23144 0.11319 0.0
C3304 C 0.35566 0.19498 0.09628 0.0
C3305 C 0.36037 0.17656 0.10496 0.0
C3306 C 0.3542 0.21374 0.10494 0.0
C3307 C 0.35773 0.21464 0.12246 0.0
C3308 C 0.36161 0.19618 0.13132 0.0
H3309 H 0.39901 0.31801 0.18021 0.0
H3310 H 0.39339 0.28636 0.1644 0.0
C3311 C 0.36288 0.17729 0.12265 0.0
C3312 C 0.35819 0.23496 0.13133 0.0
H3313 H 0.38306 0.28149 0.13173 0.0
C3314 C 0.34453 0.23857 0.14486 0.0
C3315 C 0.37233 0.25064 0.12664 0.0
C3316 C 0.38823 0.24742 0.11288 0.0
C3317 C 0.34471 0.25739 0.15383 0.0
C3318 C 0.35869 0.27314 0.14897 0.0
C3319 C 0.37217 0.26954 0.13534 0.0
C3320 C 0.36127 0.29261 0.15882 0.0
C3321 C 0.33046 0.25998 0.1688 0.0
C3322 C 0.34508 0.30695 0.16093 0.0
C3323 C 0.34825 0.32526 0.17017 0.0
C3324 C 0.36769 0.32951 0.17731 0.0
C3325 C 0.38381 0.31524 0.17494 0.0
C3326 C 0.38064 0.29707 0.16586 0.0
H3327 H 0.32379 0.24501 0.173 0.0
H3328 H 0.33874 0.2671 0.17964 0.0
H3329 H 0.31753 0.27036 0.16521 0.0
H3330 H 0.33009 0.30407 0.15533 0.0
H3331 H 0.33558 0.33603 0.17172 0.0
H3332 H 0.55729 0.60537 0.833 0.0
H3333 H 0.52439 0.60337 0.84797 0.0
H3334 H 0.55594 0.61109 0.89566 0.0
H3335 H 0.58916 0.61259 0.88076 0.0
H3336 H 0.52465 0.58198 0.89755 0.0
H3337 H 0.49585 0.65378 0.86722 0.0
H3338 H 0.50327 0.63419 0.85234 0.0
H3339 H 0.52247 0.64574 0.86582 0.0
C3340 C 0.55732 0.6066 0.84669 0.0
C3341 C 0.57591 0.60941 0.85565 0.0
C3342 C 0.53843 0.60552 0.85523 0.0
C3343 C 0.53759 0.60754 0.87292 0.0
C3344 C 0.55617 0.60961 0.88199 0.0
H3345 H 0.43593 0.64847 0.93329 0.0
H3346 H 0.46752 0.64288 0.91728 0.0
C3347 C 0.57516 0.61052 0.87345 0.0
C3348 C 0.51731 0.60818 0.88185 0.0
H3349 H 0.47205 0.63524 0.88405 0.0
C3350 C 0.51312 0.5936 0.8946 0.0
C3351 C 0.50231 0.62346 0.8781 0.0
C3352 C 0.50622 0.64031 0.86525 0.0
C3353 C 0.49441 0.59395 0.90373 0.0
C3354 C 0.47933 0.60908 0.8998 0.0
C3355 C 0.48349 0.6235 0.88694 0.0
C3356 C 0.45998 0.61162 0.90984 0.0
C3357 C 0.49124 0.57859 0.91787 0.0
C3358 C 0.44501 0.59591 0.91101 0.0
C3359 C 0.42676 0.59905 0.92036 0.0
C3360 C 0.42321 0.61801 0.92854 0.0
C3361 C 0.43817 0.63366 0.92718 0.0
C3362 C 0.45628 0.6305 0.91799 0.0
H3363 H 0.50593 0.57097 0.92164 0.0
H3364 H 0.48445 0.58621 0.92917 0.0
H3365 H 0.48036 0.56642 0.91359 0.0
H3366 H 0.44729 0.58135 0.90455 0.0
H3367 H 0.41545 0.58677 0.9211 0.0
H3368 H 0.1332 0.80684 0.58399 0.0
H3369 H 0.1349 0.77437 0.5997 0.0
H3370 H 0.15158 0.80763 0.645 0.0
H3371 H 0.14919 0.8403 0.62948 0.0
H3372 H 0.16483 0.75442 0.61636 0.0
H3373 H 0.10283 0.77547 0.66169 0.0
H3374 H 0.1085 0.79082 0.64321 0.0
H3375 H 0.12423 0.79305 0.66193 0.0
C3376 C 0.13723 0.80729 0.5973 0.0
C3377 C 0.14081 0.82623 0.60552 0.0
C3378 C 0.13825 0.78866 0.60627 0.0
C3379 C 0.14299 0.7885 0.62364 0.0
C3380 C 0.14733 0.80734 0.63173 0.0
H3381 H 0.16662 0.67222 0.6797 0.0
H3382 H 0.17188 0.70472 0.6641 0.0
C3383 C 0.14604 0.82603 0.62282 0.0
C3384 C 0.14288 0.76863 0.63323 0.0
H3385 H 0.12016 0.74397 0.66665 0.0
C3386 C 0.15508 0.75212 0.62738 0.0
C3387 C 0.12999 0.76553 0.6475 0.0
C3388 C 0.11549 0.78207 0.65387 0.0
C3389 C 0.15457 0.7326 0.63526 0.0
C3390 C 0.14189 0.72962 0.64968 0.0
C3391 C 0.12997 0.74624 0.65566 0.0
C3392 C 0.13948 0.70916 0.65816 0.0
C3393 C 0.16701 0.7152 0.62769 0.0
C3394 C 0.11961 0.70083 0.66013 0.0
C3395 C 0.1166 0.68261 0.66925 0.0
C3396 C 0.1334 0.67212 0.67652 0.0
C3397 C 0.15343 0.67993 0.6741 0.0
C3398 C 0.15643 0.69846 0.66513 0.0
H3399 H 0.17152 0.71852 0.61438 0.0
H3400 H 0.18137 0.71306 0.63517 0.0
H3401 H 0.15822 0.70048 0.62797 0.0
H3402 H 0.10629 0.70866 0.65484 0.0
H3403 H 0.10099 0.67689 0.67083 0.0
H3404 H 0.91635 0.38756 0.38132 0.0
H3405 H 0.94951 0.38937 0.39619 0.0
H3406 H 0.98069 0.40006 0.3487 0.0
H3407 H 0.94782 0.3977 0.33374 0.0
H3408 H 0.99997 0.37125 0.36606 0.0
H3409 H 0.98572 0.43734 0.4089 0.0
H3410 H 0.96666 0.41745 0.41121 0.0
H3411 H 0.96877 0.43122 0.39145 0.0
C3412 C 0.93024 0.39049 0.37406 0.0
C3413 C 0.92937 0.39242 0.35631 0.0
C3414 C 0.94921 0.39169 0.38261 0.0
C3415 C 0.96766 0.39519 0.37363 0.0
C3416 C 0.96673 0.39742 0.35595 0.0
H3417 H 0.08866 0.41482 0.42357 0.0
H3418 H 0.05729 0.42042 0.40641 0.0
C3419 C 0.94785 0.39604 0.3474 0.0
C3420 C 0.9881 0.39511 0.3824 0.0
H3421 H 0.01519 0.41621 0.41535 0.0
C3422 C 0.00331 0.38126 0.37673 0.0
C3423 C 0.99273 0.40839 0.39616 0.0
C3424 C 0.97769 0.42459 0.40218 0.0
C3425 C 0.02263 0.37978 0.38474 0.0
C3426 C 0.0268 0.39215 0.39912 0.0
C3427 C 0.01194 0.40658 0.40443 0.0
C3428 C 0.04586 0.3892 0.40941 0.0
C3429 C 0.03841 0.36491 0.37771 0.0
C3430 C 0.04972 0.36996 0.41694 0.0
C3431 C 0.06749 0.36676 0.42659 0.0
C3432 C 0.0818 0.38278 0.42915 0.0
C3433 C 0.07793 0.40218 0.42177 0.0
C3434 C 0.06002 0.40539 0.41202 0.0
H3435 H 0.03565 0.36176 0.36406 0.0
H3436 H 0.05435 0.37095 0.37925 0.0
H3437 H 0.03726 0.35001 0.38461 0.0
H3438 H 0.03886 0.35737 0.41544 0.0
H3439 H 0.06992 0.35165 0.43216 0.0
H3440 H 0.3706 0.80869 0.4388 0.0
H3441 H 0.36832 0.77705 0.4222 0.0
H3442 H 0.34564 0.81187 0.37945 0.0
H3443 H 0.34857 0.84385 0.39587 0.0
H3444 H 0.33722 0.75702 0.40751 0.0
H3445 H 0.39276 0.78162 0.35788 0.0
H3446 H 0.38895 0.7961 0.37712 0.0
H3447 H 0.37083 0.79838 0.35992 0.0
C3448 C 0.36513 0.8097 0.42586 0.0
C3449 C 0.35994 0.82892 0.41865 0.0
C3450 C 0.36378 0.79151 0.41637 0.0
C3451 C 0.35712 0.79199 0.39944 0.0
C3452 C 0.35134 0.81108 0.39233 0.0
H3453 H 0.33288 0.67473 0.3444 0.0
H3454 H 0.32748 0.70738 0.35977 0.0
C3455 C 0.35292 0.82938 0.40177 0.0
C3456 C 0.35664 0.77248 0.38934 0.0
H3457 H 0.37661 0.74936 0.35403 0.0
C3458 C 0.34578 0.75537 0.39578 0.0
C3459 C 0.36796 0.77019 0.37409 0.0
C3460 C 0.38095 0.78746 0.3669 0.0
C3461 C 0.34623 0.73602 0.38761 0.0
C3462 C 0.35745 0.73379 0.37232 0.0
C3463 C 0.36791 0.75104 0.3657 0.0
C3464 C 0.36006 0.71347 0.36361 0.0
C3465 C 0.33542 0.71798 0.39585 0.0
C3466 C 0.38008 0.70604 0.36048 0.0
C3467 C 0.38314 0.68771 0.35154 0.0
C3468 C 0.36627 0.67619 0.34554 0.0
C3469 C 0.34616 0.68323 0.34899 0.0
C3470 C 0.34308 0.70184 0.35783 0.0
H3471 H 0.33197 0.72098 0.40941 0.0
H3472 H 0.32055 0.71516 0.38925 0.0
H3473 H 0.34491 0.70373 0.39495 0.0
H3474 H 0.39345 0.71458 0.36484 0.0
H3475 H 0.39883 0.68265 0.34916 0.0
H3476 H 0.06702 0.64901 0.09274 0.0
H3477 H 0.03632 0.64337 0.10988 0.0
H3478 H 0.05518 0.58046 0.11909 0.0
H3479 H 0.08622 0.58599 0.1015 0.0
H3480 H 0.01291 0.58444 0.11069 0.0
H3481 H 0.03398 0.63955 0.16129 0.0
H3482 H 0.03524 0.65112 0.14065 0.0
H3483 H 0.05247 0.63024 0.14596 0.0
C3484 C 0.06477 0.63395 0.09843 0.0
C3485 C 0.07911 0.61795 0.0958 0.0
C3486 C 0.0472 0.63079 0.10833 0.0
C3487 C 0.04357 0.61162 0.11604 0.0
C3488 C 0.05775 0.59544 0.11335 0.0
H3489 H 0.94595 0.6049 0.19236 0.0
H3490 H 0.97881 0.6021 0.17741 0.0
C3491 C 0.07547 0.59861 0.10335 0.0
C3492 C 0.02469 0.60874 0.12657 0.0
H3493 H 0.9982 0.63022 0.15959 0.0
C3494 C 0.00978 0.59424 0.12153 0.0
C3495 C 0.02068 0.62133 0.14086 0.0
C3496 C 0.03653 0.63628 0.14763 0.0
C3497 C 0.99066 0.5926 0.12996 0.0
C3498 C 0.98614 0.60613 0.14358 0.0
C3499 C 1.00143 0.62002 0.14902 0.0
C3500 C 0.96573 0.60634 0.15241 0.0
C3501 C 0.97556 0.57631 0.12422 0.0
C3502 C 0.94726 0.60967 0.1434 0.0
C3503 C 0.92831 0.61111 0.15195 0.0
C3504 C 0.92746 0.60962 0.16972 0.0
C3505 C 0.94597 0.60622 0.17868 0.0
C3506 C 0.96483 0.60459 0.17013 0.0
H3507 H 0.98356 0.56337 0.11771 0.0
H3508 H 0.96664 0.56998 0.13506 0.0
H3509 H 0.96454 0.58327 0.11508 0.0
H3510 H 0.94753 0.61165 0.12978 0.0
H3511 H 0.9144 0.61388 0.14466 0.0
H3512 H 0.10057 0.32659 0.85752 0.0
H3513 H 0.10602 0.29529 0.87415 0.0
H3514 H 0.17145 0.29855 0.86402 0.0
H3515 H 0.16606 0.33055 0.84778 0.0
H3516 H 0.11946 0.25981 0.86227 0.0
H3517 H 0.17197 0.28497 0.9138 0.0
H3518 H 0.15852 0.30308 0.90034 0.0
H3519 H 0.18153 0.2904 0.89292 0.0
C3520 C 0.11619 0.32086 0.85911 0.0
C3521 C 0.13289 0.33095 0.85135 0.0
C3522 C 0.11928 0.30292 0.86858 0.0
C3523 C 0.13915 0.29449 0.87043 0.0
C3524 C 0.15602 0.30491 0.86309 0.0
H3525 H 0.15074 0.16326 0.89729 0.0
H3526 H 0.15246 0.1964 0.88242 0.0
C3527 C 0.15294 0.32315 0.85376 0.0
C3528 C 0.14161 0.27405 0.87893 0.0
H3529 H 0.1656 0.24896 0.91162 0.0
C3530 C 0.12957 0.25747 0.87306 0.0
C3531 C 0.15468 0.27097 0.8931 0.0
C3532 C 0.16727 0.28833 0.90054 0.0
C3533 C 0.12995 0.23809 0.88105 0.0
C3534 C 0.1433 0.23485 0.89502 0.0
C3535 C 0.15552 0.25136 0.90082 0.0
C3536 C 0.14398 0.21477 0.90426 0.0
C3537 C 0.1154 0.22154 0.8748 0.0
C3538 C 0.13956 0.21405 0.92167 0.0
C3539 C 0.1389 0.19514 0.93027 0.0
C3540 C 0.14255 0.1765 0.92162 0.0
C3541 C 0.14756 0.17729 0.90429 0.0
C3542 C 0.14846 0.19624 0.89574 0.0
H3543 H 0.10243 0.22817 0.86733 0.0
H3544 H 0.12397 0.21076 0.86643 0.0
H3545 H 0.10884 0.21255 0.88551 0.0
H3546 H 0.13613 0.22811 0.92855 0.0
H3547 H 0.13505 0.19514 0.94362 0.0
H3548 H 0.55686 0.39128 0.69364 0.0
H3549 H 0.52393 0.393 0.67855 0.0
H3550 H 0.55623 0.39175 0.63081 0.0
H3551 H 0.58933 0.3899 0.64578 0.0
H3552 H 0.50905 0.42235 0.65433 0.0
H3553 H 0.51484 0.34339 0.62745 0.0
H3554 H 0.53091 0.35208 0.64472 0.0
H3555 H 0.53688 0.35947 0.62331 0.0
C3556 C 0.55704 0.39136 0.67992 0.0
C3557 C 0.57583 0.3903 0.67094 0.0
C3558 C 0.53815 0.39241 0.67132 0.0
C3559 C 0.53758 0.39225 0.65356 0.0
C3560 C 0.55628 0.39157 0.64453 0.0
H3561 H 0.44906 0.39093 0.57359 0.0
H3562 H 0.4789 0.39323 0.59226 0.0
C3563 C 0.57521 0.39059 0.65312 0.0
C3564 C 0.51743 0.39251 0.64447 0.0
H3565 H 0.48794 0.36467 0.61685 0.0
C3566 C 0.50432 0.4097 0.64621 0.0
C3567 C 0.51119 0.37589 0.63404 0.0
C3568 C 0.52407 0.35656 0.63235 0.0
C3569 C 0.48558 0.4111 0.63719 0.0
C3570 C 0.47965 0.39472 0.62638 0.0
C3571 C 0.49251 0.37729 0.62507 0.0
C3572 C 0.46102 0.39572 0.61532 0.0
C3573 C 0.47266 0.43039 0.63879 0.0
C3574 C 0.44086 0.39682 0.62199 0.0
C3575 C 0.42357 0.3957 0.6112 0.0
C3576 C 0.4263 0.39323 0.59366 0.0
C3577 C 0.44646 0.39279 0.58707 0.0
C3578 C 0.46357 0.39406 0.59773 0.0
H3579 H 0.48132 0.44318 0.6449 0.0
H3580 H 0.46721 0.43565 0.62616 0.0
H3581 H 0.45886 0.42699 0.64666 0.0
H3582 H 0.43848 0.39776 0.63555 0.0
H3583 H 0.40821 0.39579 0.61662 0.0
H3584 H 0.10207 0.07079 0.31095 0.0
H3585 H 0.09128 0.04319 0.29161 0.0
H3586 H 0.15501 0.02505 0.28531 0.0
H3587 H 0.16571 0.05194 0.30513 0.0
H3588 H 0.09911 0.03517 0.25939 0.0
H3589 H 0.12945 0.97114 0.29816 0.0
H3590 H 0.12749 0.99714 0.30619 0.0
H3591 H 0.14966 0.9893 0.29391 0.0
C3592 C 0.11371 0.06077 0.30548 0.0
C3593 C 0.13466 0.06314 0.30967 0.0
C3594 C 0.10755 0.04509 0.29445 0.0
C3595 C 0.1223 0.03174 0.28741 0.0
C3596 C 0.14331 0.03472 0.29108 0.0
H3597 H 0.12672 0.96237 0.19737 0.0
H3598 H 0.12044 0.98942 0.21824 0.0
C3599 C 0.14943 0.05012 0.30231 0.0
C3600 C 0.11599 0.0148 0.27602 0.0
H3601 H 0.12531 0.96402 0.2683 0.0
C3602 C 0.10446 0.01948 0.26145 0.0
C3603 C 0.1223 0.99422 0.27901 0.0
C3604 C 0.13268 0.98763 0.29529 0.0
C3605 C 0.10036 0.00436 0.24918 0.0
C3606 C 0.10876 0.98432 0.25129 0.0
C3607 C 0.11907 0.9794 0.26644 0.0
C3608 C 0.10881 0.96864 0.23761 0.0
C3609 C 0.0872 0.01013 0.23413 0.0
C3610 C 0.10455 0.94789 0.24146 0.0
C3611 C 0.10916 0.93239 0.22983 0.0
C3612 C 0.11736 0.93742 0.21394 0.0
C3613 C 0.12018 0.9582 0.20953 0.0
C3614 C 0.11633 0.97369 0.22141 0.0
H3615 H 0.07533 0.02172 0.23776 0.0
H3616 H 0.09708 0.01731 0.22427 0.0
H3617 H 0.07929 0.99649 0.22863 0.0
H3618 H 0.09873 0.94355 0.25384 0.0
H3619 H 0.10691 0.91647 0.23346 0.0
H3620 H 0.21253 0.87999 0.5809 0.0
H3621 H 0.24041 0.87557 0.56029 0.0
H3622 H 0.1971 0.84933 0.5247 0.0
H3623 H 0.16902 0.85532 0.54482 0.0
H3624 H 0.25892 0.84712 0.5421 0.0
H3625 H 0.21487 0.89893 0.49909 0.0
H3626 H 0.20663 0.89372 0.52044 0.0
H3627 H 0.20146 0.87541 0.50378 0.0
C3628 C 0.20909 0.87298 0.56876 0.0
C3629 C 0.18869 0.86835 0.56419 0.0
C3630 C 0.22499 0.87041 0.55702 0.0
C3631 C 0.22068 0.86275 0.54076 0.0
C3632 C 0.20062 0.856 0.53694 0.0
H3633 H 0.31992 0.8512 0.46524 0.0
H3634 H 0.29379 0.84254 0.48658 0.0
C3635 C 0.18462 0.85926 0.54845 0.0
C3636 C 0.23659 0.86408 0.52737 0.0
H3637 H 0.24635 0.88601 0.48891 0.0
C3638 C 0.2562 0.85555 0.53043 0.0
C3639 C 0.23306 0.87545 0.51229 0.0
C3640 C 0.21295 0.88657 0.50875 0.0
C3641 C 0.27253 0.85845 0.51897 0.0
C3642 C 0.26882 0.86951 0.50381 0.0
C3643 C 0.24907 0.87748 0.50054 0.0
C3644 C 0.28535 0.87435 0.49155 0.0
C3645 C 0.29374 0.85053 0.52359 0.0
C3646 C 0.28892 0.89502 0.48705 0.0
C3647 C 0.30334 0.89991 0.4746 0.0
C3648 C 0.3146 0.88421 0.46663 0.0
C3649 C 0.31139 0.86354 0.47131 0.0
C3650 C 0.29665 0.85861 0.48359 0.0
H3651 H 0.29508 0.84725 0.53737 0.0
H3652 H 0.29676 0.83595 0.51665 0.0
H3653 H 0.30587 0.86185 0.52003 0.0
H3654 H 0.28037 0.9074 0.49306 0.0
H3655 H 0.30573 0.91598 0.47128 0.0
H3656 H 0.33828 0.94444 0.80124 0.0
H3657 H 0.34631 0.9696 0.77917 0.0
H3658 H 0.41142 0.96269 0.78974 0.0
H3659 H 0.40339 0.93655 0.81127 0.0
H3660 H 0.36318 0.00533 0.78395 0.0
H3661 H 0.41218 0.96127 0.73908 0.0
H3662 H 0.39756 0.94893 0.7557 0.0
H3663 H 0.42191 0.96107 0.76036 0.0
C3664 C 0.3543 0.94817 0.79871 0.0
C3665 C 0.37025 0.93882 0.80795 0.0
C3666 C 0.35889 0.96247 0.7861 0.0
C3667 C 0.37947 0.96792 0.78272 0.0
C3668 C 0.39547 0.95837 0.79184 0.0
H3669 H 0.39469 0.08659 0.73282 0.0
H3670 H 0.39991 0.05817 0.75275 0.0
C3671 C 0.39088 0.94365 0.80423 0.0
C3672 C 0.38377 0.98484 0.77065 0.0
H3673 H 0.40996 0.99758 0.7346 0.0
C3674 C 0.37338 0.0036 0.77313 0.0
C3675 C 0.397 0.98249 0.75651 0.0
C3676 C 0.40764 0.96229 0.75263 0.0
C3677 C 0.37532 0.01992 0.76166 0.0
C3678 C 0.38902 0.01786 0.74777 0.0
C3679 C 0.39975 0.99922 0.74541 0.0
C3680 C 0.39101 0.03437 0.73492 0.0
C3681 C 0.36181 0.03874 0.76417 0.0
C3682 C 0.38624 0.03021 0.7179 0.0
C3683 C 0.38417 0.04639 0.70632 0.0
C3684 C 0.38643 0.06688 0.71176 0.0
C3685 C 0.3927 0.07091 0.72843 0.0
C3686 C 0.39548 0.05471 0.73983 0.0
H3687 H 0.34828 0.03531 0.77237 0.0
H3688 H 0.3709 0.05105 0.77048 0.0
H3689 H 0.35601 0.04478 0.75189 0.0
H3690 H 0.3829 0.0146 0.71381 0.0
H3691 H 0.37938 0.04295 0.69348 0.0
H3692 H 0.1677 0.1444 0.9826 0.0
H3693 H 0.19436 0.15346 1.00308 0.0
H3694 H 0.24113 0.13308 0.96776 0.0
H3695 H 0.21439 0.12588 0.94677 0.0
H3696 H 0.21573 0.1277 0.01775 0.0
H3697 H 0.27164 0.17951 0.98711 0.0
H3698 H 0.24659 0.1746 0.97794 0.0
H3699 H 0.26807 0.15753 0.97372 0.0
C3700 C 0.18369 0.14259 0.97906 0.0
C3701 C 0.18906 0.13452 0.96322 0.0
C3702 C 0.19896 0.14772 0.99075 0.0
C3703 C 0.21986 0.14414 0.98699 0.0
C3704 C 0.22524 0.13669 0.97084 0.0
H3705 H 0.30499 0.09043 0.05465 0.0
H3706 H 0.27771 0.10025 0.03484 0.0
C3707 C 0.20994 0.13231 0.95891 0.0
C3708 C 0.23547 0.14485 1.00071 0.0
H3709 H 0.2859 0.15638 1.00891 0.0
C3710 C 0.23088 0.13448 0.0159 0.0
C3711 C 0.25518 0.15396 0.99862 0.0
C3712 C 0.26051 0.16722 0.98351 0.0
C3713 C 0.24577 0.13187 0.02853 0.0
C3714 C 0.26611 0.13889 0.02556 0.0
C3715 C 0.27041 0.15049 1.01095 0.0
C3716 C 0.28326 0.13315 0.03696 0.0
C3717 C 0.23953 0.12134 0.04483 0.0
C3718 C 0.29609 0.14834 0.04401 0.0
C3719 C 0.31201 0.14269 0.05503 0.0
C3720 C 0.31511 0.12182 0.0592 0.0
C3721 C 0.3026 0.10664 0.05184 0.0
C3722 C 0.28697 0.11225 0.04063 0.0
H3723 H 0.22293 0.12403 0.04767 0.0
H3724 H 0.24179 0.10443 0.04352 0.0
H3725 H 0.24884 0.12689 0.05573 0.0
H3726 H 0.29362 0.16453 0.04118 0.0
H3727 H 0.32163 0.15463 0.0605 0.0
H3728 H 0.90168 0.07313 0.80797 0.0
H3729 H 0.91044 0.04603 0.78749 0.0
H3730 H 0.84973 0.0196 0.79366 0.0
H3731 H 0.84087 0.04661 0.81404 0.0
H3732 H 0.88453 0.99057 0.79398 0.0
H3733 H 0.88392 0.04496 0.73905 0.0
H3734 H 0.89991 0.0511 0.757 0.0
H3735 H 0.87235 0.05165 0.75911 0.0
C3736 C 0.89024 0.06151 0.80493 0.0
C3737 C 0.87053 0.06199 0.81237 0.0
C3738 C 0.89529 0.04608 0.7933 0.0
C3739 C 0.88066 0.03101 0.78907 0.0
C3740 C 0.86119 0.03115 0.79686 0.0
H3741 H 0.84018 0.95506 0.71263 0.0
H3742 H 0.8495 0.98142 0.7334 0.0
C3743 C 0.85614 0.04657 0.80842 0.0
C3744 C 0.88495 0.01551 0.77593 0.0
H3745 H 0.88549 0.00952 0.73305 0.0
C3746 C 0.88524 0.99463 0.78065 0.0
C3747 C 0.88584 0.02108 0.75863 0.0
C3748 C 0.88541 0.04338 0.75301 0.0
C3749 C 0.88511 0.979 0.76839 0.0
C3750 C 0.88478 0.98459 0.75109 0.0
C3751 C 0.88579 0.00545 0.74638 0.0
C3752 C 0.88018 0.96928 0.73789 0.0
C3753 C 0.88393 0.95671 0.77397 0.0
C3754 C 0.89451 0.95397 0.73352 0.0
C3755 C 0.88922 0.93891 0.72163 0.0
C3756 C 0.86955 0.93904 0.7141 0.0
C3757 C 0.85543 0.95464 0.71829 0.0
C3758 C 0.86073 0.96968 0.73009 0.0
H3759 H 0.88245 0.95514 0.78793 0.0
H3760 H 0.87054 0.94897 0.76789 0.0
H3761 H 0.89812 0.94846 0.7699 0.0
H3762 H 0.90964 0.95358 0.73938 0.0
H3763 H 0.90044 0.92713 0.71843 0.0
H3764 H 0.70207 0.09206 0.55497 0.0
H3765 H 0.72892 0.10143 0.53466 0.0
H3766 H 0.71253 0.16577 0.53975 0.0
H3767 H 0.68495 0.15631 0.55963 0.0
H3768 H 0.71992 0.15652 0.50752 0.0
H3769 H 0.78364 0.12608 0.54659 0.0
H3770 H 0.7649 0.10623 0.54301 0.0
H3771 H 0.75779 0.12904 0.55477 0.0
C3772 C 0.70426 0.1082 0.55179 0.0
C3773 C 0.69175 0.12352 0.55898 0.0
C3774 C 0.71965 0.11355 0.54027 0.0
C3775 C 0.72311 0.13435 0.53611 0.0
C3776 C 0.71025 0.14966 0.54297 0.0
H3777 H 0.83823 0.14604 0.4811 0.0
H3778 H 0.81137 0.15498 0.50147 0.0
C3779 C 0.69458 0.14426 0.55431 0.0
C3780 C 0.74008 0.13983 0.52444 0.0
H3781 H 0.79057 0.12905 0.51662 0.0
C3782 C 0.73551 0.15089 0.5096 0.0
C3783 C 0.76054 0.13314 0.52745 0.0
C3784 C 0.76704 0.12319 0.54393 0.0
C3785 C 0.7506 0.15415 0.49712 0.0
C3786 C 0.77047 0.1454 0.49933 0.0
C3787 C 0.7753 0.13555 0.5147 0.0
C3788 C 0.78608 0.14463 0.48559 0.0
C3789 C 0.74498 0.16684 0.48175 0.0
C3790 C 0.78086 0.13663 0.46959 0.0
C3791 C 0.79625 0.13227 0.45772 0.0
C3792 C 0.81708 0.13508 0.46196 0.0
C3793 C 0.82227 0.14373 0.47763 0.0
C3794 C 0.8069 0.1488 0.48925 0.0
H3795 H 0.73357 0.17901 0.48509 0.0
H3796 H 0.75873 0.17433 0.47602 0.0
H3797 H 0.73763 0.15669 0.47216 0.0
H3798 H 0.76506 0.13258 0.4666 0.0
H3799 H 0.79195 0.12539 0.44572 0.0
H3800 H 0.66189 0.05295 0.22088 0.0
H3801 H 0.65149 0.02613 0.24088 0.0
H3802 H 0.5875 0.04295 0.23391 0.0
H3803 H 0.59799 0.07053 0.21436 0.0
H3804 H 0.59524 0.03524 0.26636 0.0
H3805 H 0.62707 0.97165 0.22805 0.0
H3806 H 0.64689 0.99025 0.23221 0.0
H3807 H 0.6246 0.99756 0.21986 0.0
C3808 C 0.64561 0.05087 0.22359 0.0
C3809 C 0.63069 0.06349 0.21596 0.0
C3810 C 0.63967 0.0355 0.23492 0.0
C3811 C 0.61868 0.03215 0.23846 0.0
C3812 C 0.60375 0.04514 0.23118 0.0
H3813 H 0.60614 0.917 0.2932 0.0
H3814 H 0.59724 0.94366 0.27263 0.0
C3815 C 0.60974 0.0608 0.22003 0.0
C3816 C 0.61261 0.01514 0.24989 0.0
H3817 H 0.62318 0.96467 0.25798 0.0
C3818 C 0.60096 0.01967 0.26442 0.0
C3819 C 0.61941 0.99469 0.24705 0.0
C3820 C 0.62996 0.98823 0.23083 0.0
C3821 C 0.59725 0.00455 0.27681 0.0
C3822 C 0.60615 0.98471 0.27485 0.0
C3823 C 0.61655 0.97991 0.25973 0.0
C3824 C 0.60663 0.96916 0.28866 0.0
C3825 C 0.58394 0.01012 0.29181 0.0
C3826 C 0.61401 0.97455 0.30483 0.0
C3827 C 0.61826 0.95927 0.31683 0.0
C3828 C 0.616 0.93838 0.31258 0.0
C3829 C 0.60795 0.93301 0.29672 0.0
C3830 C 0.60294 0.94826 0.28497 0.0
H3831 H 0.57177 0.02136 0.28809 0.0
H3832 H 0.57639 0.99632 0.29743 0.0
H3833 H 0.59364 0.01765 0.30161 0.0
H3834 H 0.6177 0.99042 0.30787 0.0
H3835 H 0.62467 0.96372 0.32897 0.0
H3836 H 0.70298 0.90704 0.96897 0.0
H3837 H 0.72697 0.89753 0.99159 0.0
H3838 H 0.69873 0.83734 0.9951 0.0
H3839 H 0.67483 0.84665 0.97218 0.0
H3840 H 0.71532 0.88411 0.02522 0.0
H3841 H 0.76212 0.82613 0.98979 0.0
H3842 H 0.74611 0.84489 0.97908 0.0
H3843 H 0.73443 0.82344 0.98979 0.0
C3844 C 0.70199 0.89174 0.97448 0.0
C3845 C 0.68713 0.87756 0.96889 0.0
C3846 C 0.71561 0.88636 0.98741 0.0
C3847 C 0.71461 0.86673 0.99489 0.0
C3848 C 0.69981 0.85248 0.98933 0.0
H3849 H 0.79392 0.85795 0.08521 0.0
H3850 H 0.76434 0.84935 0.06708 0.0
C3851 C 0.68616 0.85786 0.97634 0.0
C3852 C 0.72907 0.86161 1.00867 0.0
H3853 H 0.77382 0.83564 0.01684 0.0
C3854 C 0.72792 0.87323 0.02361 0.0
C3855 C 0.74537 0.84737 1.00637 0.0
C3856 C 0.74728 0.83475 0.99039 0.0
C3857 C 0.74344 0.872 0.03592 0.0
C3858 C 0.7603 0.85845 0.03328 0.0
C3859 C 0.76077 0.84589 0.0188 0.0
C3860 C 0.77899 0.85969 0.04392 0.0
C3861 C 0.7424 0.88631 0.051 0.0
C3862 C 0.79728 0.86726 0.03671 0.0
C3863 C 0.81413 0.87202 0.04696 0.0
C3864 C 0.81288 0.86931 0.06456 0.0
C3865 C 0.79509 0.86042 0.07166 0.0
C3866 C 0.77823 0.85554 0.06136 0.0
H3867 H 0.72995 0.89803 0.0497 0.0
H3868 H 0.73931 0.87716 0.06261 0.0
H3869 H 0.75733 0.89448 0.05273 0.0
H3870 H 0.79817 0.87051 0.02326 0.0
H3871 H 0.82777 0.87866 0.04116 0.0
H3872 H 0.66286 0.55023 0.80943 0.0
H3873 H 0.65604 0.52812 0.78504 0.0
H3874 H 0.59501 0.55439 0.78023 0.0
H3875 H 0.60143 0.57586 0.80525 0.0
H3876 H 0.59399 0.51356 0.77647 0.0
H3877 H 0.65566 0.54505 0.73596 0.0
H3878 H 0.66626 0.53745 0.75599 0.0
H3879 H 0.64725 0.55781 0.75508 0.0
C3880 C 0.64798 0.55123 0.8032 0.0
C3881 C 0.63278 0.56493 0.80898 0.0
C3882 C 0.64418 0.5388 0.78916 0.0
C3883 C 0.62526 0.54013 0.78053 0.0
C3884 C 0.60982 0.55341 0.78657 0.0
H3885 H 0.63329 0.46374 0.68994 0.0
H3886 H 0.62437 0.49419 0.70688 0.0
C3887 C 0.61354 0.5657 0.80076 0.0
C3888 C 0.62154 0.52686 0.76566 0.0
H3889 H 0.64541 0.50962 0.73001 0.0
C3890 C 0.60495 0.51294 0.76608 0.0
C3891 C 0.6353 0.52663 0.75178 0.0
C3892 C 0.65194 0.54274 0.74957 0.0
C3893 C 0.60289 0.49754 0.75373 0.0
C3894 C 0.61831 0.4956 0.74111 0.0
C3895 C 0.6338 0.51072 0.73988 0.0
C3896 C 0.62009 0.47706 0.73024 0.0
C3897 C 0.58442 0.48338 0.75457 0.0
C3898 C 0.62035 0.45729 0.73764 0.0
C3899 C 0.62486 0.43995 0.72787 0.0
C3900 C 0.62983 0.44221 0.71073 0.0
C3901 C 0.62943 0.46181 0.70321 0.0
C3902 C 0.62433 0.47912 0.71285 0.0
H3903 H 0.57066 0.49177 0.75941 0.0
H3904 H 0.58062 0.47675 0.74198 0.0
H3905 H 0.58769 0.47059 0.76355 0.0
H3906 H 0.61803 0.45531 0.75112 0.0
H3907 H 0.62563 0.42495 0.7339 0.0
H3908 H 0.79695 0.41177 0.9603 0.0
H3909 H 0.77017 0.40348 0.98105 0.0
H3910 H 0.79562 0.34229 0.98702 0.0
H3911 H 0.82248 0.35048 0.96612 0.0
H3912 H 0.74046 0.36932 0.98132 0.0
H3913 H 0.79604 0.36914 0.03539 0.0
H3914 H 0.80254 0.38029 0.01511 0.0
H3915 H 0.80149 0.35277 0.01753 0.0
C3916 C 0.79674 0.39651 0.96594 0.0
C3917 C 0.81184 0.38183 0.96182 0.0
C3918 C 0.78145 0.39178 0.97772 0.0
C3919 C 0.7811 0.37235 0.98557 0.0
C3920 C 0.79583 0.35743 0.98116 0.0
H3921 H 0.67942 0.35203 0.05833 0.0
H3922 H 0.70521 0.34344 0.03662 0.0
C3923 C 0.81113 0.36214 0.9693 0.0
C3924 C 0.7658 0.36841 0.99897 0.0
H3925 H 0.76071 0.3677 0.04194 0.0
C3926 C 0.74481 0.36849 0.99457 0.0
C3927 C 0.77172 0.36741 0.01618 0.0
C3928 C 0.79414 0.36749 0.02146 0.0
C3929 C 0.72945 0.36871 1.00708 0.0
C3930 C 0.73541 0.3688 0.02428 0.0
C3931 C 0.75636 0.36756 0.02867 0.0
C3932 C 0.72038 0.37317 0.03777 0.0
C3933 C 0.70705 0.37018 1.00188 0.0
C3934 C 0.72069 0.39258 0.0456 0.0
C3935 C 0.706 0.39756 0.05781 0.0
C3936 C 0.69086 0.38313 0.06239 0.0
C3937 C 0.69083 0.36349 0.05482 0.0
C3938 C 0.70551 0.35855 0.04251 0.0
H3939 H 0.70515 0.3716 0.98793 0.0
H3940 H 0.69869 0.35616 1.00618 0.0
H3941 H 0.69965 0.38372 1.00803 0.0
H3942 H 0.7321 0.40403 0.04202 0.0
H3943 H 0.70634 0.41278 0.06349 0.0
H3944 H 0.90259 0.57495 0.21913 0.0
H3945 H 0.91169 0.54819 0.23988 0.0
H3946 H 0.85293 0.51855 0.23142 0.0
H3947 H 0.84362 0.54532 0.21094 0.0
H3948 H 0.88766 0.53918 0.26978 0.0
H3949 H 0.8962 0.47113 0.22784 0.0
H3950 H 0.89803 0.49739 0.22016 0.0
H3951 H 0.87316 0.48579 0.22373 0.0
C3952 C 0.89166 0.56269 0.22171 0.0
C3953 C 0.87235 0.5622 0.21359 0.0
C3954 C 0.89693 0.54741 0.23344 0.0
C3955 C 0.88309 0.53132 0.23692 0.0
C3956 C 0.86395 0.53066 0.22861 0.0
H3957 H 0.84443 0.45684 0.31583 0.0
H3958 H 0.85321 0.48391 0.29547 0.0
C3959 C 0.85861 0.546 0.21702 0.0
C3960 C 0.88765 0.51601 0.2502 0.0
H3961 H 0.88863 0.46409 0.2572 0.0
C3962 C 0.88837 0.52277 0.26706 0.0
C3963 C 0.88886 0.4947 0.24653 0.0
C3964 C 0.88924 0.48679 0.22856 0.0
C3965 C 0.8886 0.50858 0.28046 0.0
C3966 C 0.88794 0.48725 0.27678 0.0
C3967 C 0.88892 0.48051 0.25993 0.0
C3968 C 0.8837 0.47184 0.29005 0.0
C3969 C 0.88868 0.51649 0.29843 0.0
C3970 C 0.8979 0.45606 0.29354 0.0
C3971 C 0.89294 0.44062 0.30521 0.0
C3972 C 0.87357 0.44062 0.31324 0.0
C3973 C 0.85947 0.45654 0.30982 0.0
C3974 C 0.86451 0.47204 0.29829 0.0
H3975 H 0.89527 0.53231 0.29918 0.0
H3976 H 0.87256 0.51714 0.30319 0.0
H3977 H 0.89768 0.5061 0.30686 0.0
H3978 H 0.91271 0.45563 0.28715 0.0
H3979 H 0.90414 0.42859 0.3078 0.0
H3980 H 0.71219 0.61276 0.44648 0.0
H3981 H 0.73962 0.61816 0.46738 0.0
H3982 H 0.69891 0.65738 0.49643 0.0
H3983 H 0.6712 0.65101 0.47595 0.0
H3984 H 0.76064 0.64905 0.48115 0.0
H3985 H 0.71045 0.61297 0.53012 0.0
H3986 H 0.70333 0.61372 0.50808 0.0
H3987 H 0.70005 0.63623 0.5212 0.0
C3988 C 0.70928 0.62274 0.45723 0.0
C3989 C 0.68961 0.63112 0.45998 0.0
C3990 C 0.72491 0.62586 0.46912 0.0
C3991 C 0.72109 0.63769 0.48371 0.0
C3992 C 0.70194 0.64761 0.48558 0.0
H3993 H 0.821 0.65194 0.55876 0.0
H3994 H 0.79512 0.66042 0.53712 0.0
C3995 C 0.68616 0.64402 0.47392 0.0
C3996 C 0.73649 0.63788 0.49754 0.0
H3997 H 0.74358 0.62314 0.53863 0.0
C3998 C 0.75692 0.64355 0.49377 0.0
C3999 C 0.73157 0.63044 0.51394 0.0
C4000 C 0.71023 0.62281 0.51857 0.0
C4001 C 0.77274 0.64133 0.50579 0.0
C4002 C 0.76777 0.63384 0.52212 0.0
C4003 C 0.74724 0.62895 0.52608 0.0
C4004 C 0.78374 0.6291 0.53488 0.0
C4005 C 0.79473 0.64594 0.50065 0.0
C4006 C 0.78557 0.60881 0.54098 0.0
C4007 C 0.8 0.60404 0.55345 0.0
C4008 C 0.81292 0.61947 0.55996 0.0
C4009 C 0.81122 0.63978 0.55383 0.0
C4010 C 0.79659 0.6446 0.54142 0.0
H4011 H 0.7964 0.6474 0.48669 0.0
H4012 H 0.79966 0.66074 0.50646 0.0
H4013 H 0.80532 0.63362 0.50518 0.0
H4014 H 0.77577 0.59664 0.53607 0.0
H4015 H 0.80112 0.58825 0.55793 0.0
H4016 H 0.36274 0.54103 0.33357 0.0
H4017 H 0.37087 0.51052 0.31651 0.0
H4018 H 0.38597 0.55012 0.27416 0.0
H4019 H 0.37932 0.58046 0.2917 0.0
H4020 H 0.35142 0.4978 0.29167 0.0
H4021 H 0.43044 0.50974 0.26818 0.0
H4022 H 0.41985 0.52524 0.28506 0.0
H4023 H 0.41559 0.53224 0.26318 0.0
C4024 C 0.36832 0.54308 0.32073 0.0
C4025 C 0.37062 0.56289 0.31385 0.0
C4026 C 0.37297 0.52571 0.311 0.0
C4027 C 0.3794 0.52793 0.29408 0.0
C4028 C 0.38187 0.54789 0.28733 0.0
H4029 H 0.34036 0.45561 0.21209 0.0
H4030 H 0.34615 0.47869 0.23602 0.0
C4031 C 0.37788 0.56525 0.29727 0.0
C4032 C 0.38075 0.5096 0.28289 0.0
H4033 H 0.40769 0.48954 0.24958 0.0
C4034 C 0.36403 0.49578 0.28277 0.0
C4035 C 0.39736 0.50645 0.27149 0.0
C4036 C 0.4169 0.51911 0.27216 0.0
C4037 C 0.36275 0.4799 0.27082 0.0
C4038 C 0.3781 0.47841 0.25815 0.0
C4039 C 0.39561 0.49112 0.25902 0.0
C4040 C 0.37535 0.46489 0.24326 0.0
C4041 C 0.34477 0.4651 0.27175 0.0
C4042 C 0.39041 0.45027 0.23884 0.0
C4043 C 0.38735 0.43739 0.22487 0.0
C4044 C 0.36912 0.4389 0.21529 0.0
C4045 C 0.35443 0.45398 0.2194 0.0
C4046 C 0.35762 0.46701 0.23317 0.0
H4047 H 0.33921 0.46335 0.285 0.0
H4048 H 0.33175 0.47129 0.26413 0.0
H4049 H 0.34897 0.44961 0.2668 0.0
H4050 H 0.40435 0.44862 0.24633 0.0
H4051 H 0.39909 0.42614 0.22169 0.0
H4052 H 0.32185 0.65206 0.96435 0.0
H4053 H 0.29503 0.66078 0.98513 0.0
H4054 H 0.2693 0.59965 0.98 0.0
H4055 H 0.29602 0.59083 0.95935 0.0
H4056 H 0.23978 0.63382 0.97973 0.0
H4057 H 0.29524 0.63512 0.03388 0.0
H4058 H 0.30071 0.65109 0.01576 0.0
H4059 H 0.30179 0.62353 0.0138 0.0
C4060 C 0.31044 0.64053 0.96769 0.0
C4061 C 0.31105 0.62071 0.96046 0.0
C4062 C 0.29517 0.64554 0.97948 0.0
C4063 C 0.28039 0.63078 0.9841 0.0
C4064 C 0.28063 0.61121 0.97651 0.0
H4065 H 0.20527 0.59142 0.06195 0.0
H4066 H 0.23141 0.60016 0.04078 0.0
C4067 C 0.29589 0.60619 0.96479 0.0
C4068 C 0.26507 0.63506 0.99741 0.0
H4069 H 0.25988 0.63662 0.04036 0.0
C4070 C 0.24409 0.63492 0.99298 0.0
C4071 C 0.27095 0.63643 0.01461 0.0
C4072 C 0.29337 0.63646 0.01993 0.0
C4073 C 0.22871 0.63492 1.00546 0.0
C4074 C 0.23463 0.63515 0.02268 0.0
C4075 C 0.25556 0.63651 0.02708 0.0
C4076 C 0.21957 0.63092 0.03617 0.0
C4077 C 0.20632 0.63328 1.00024 0.0
C4078 C 0.20453 0.64551 0.04063 0.0
C4079 C 0.18962 0.64057 0.05275 0.0
C4080 C 0.18959 0.62097 0.06041 0.0
C4081 C 0.20495 0.60661 0.05617 0.0
C4082 C 0.21987 0.61158 0.04415 0.0
H4083 H 0.20448 0.63166 0.98631 0.0
H4084 H 0.19899 0.61978 1.00652 0.0
H4085 H 0.19787 0.64731 1.00438 0.0
H4086 H 0.20424 0.66057 0.03462 0.0
H4087 H 0.17805 0.65198 0.05601 0.0
H4088 H 0.1038 0.4193 0.79521 0.0
H4089 H 0.09727 0.4471 0.7749 0.0
H4090 H 0.12451 0.49087 0.80957 0.0
H4091 H 0.12952 0.46327 0.83038 0.0
H4092 H 0.09541 0.50906 0.79155 0.0
H4093 H 0.14648 0.46435 0.74845 0.0
H4094 H 0.12305 0.45109 0.75365 0.0
H4095 H 0.14174 0.45651 0.76997 0.0
C4096 C 0.10785 0.43495 0.79859 0.0
C4097 C 0.11741 0.43923 0.81412 0.0
C4098 C 0.10426 0.45078 0.78699 0.0
C4099 C 0.11114 0.47088 0.79048 0.0
C4100 C 0.11925 0.47542 0.80656 0.0
H4101 H 0.16379 0.55511 0.72022 0.0
H4102 H 0.15526 0.52985 0.74211 0.0
C4103 C 0.12217 0.45968 0.81841 0.0
C4104 C 0.1122 0.48656 0.7769 0.0
H4105 H 0.13367 0.49583 0.7382 0.0
C4106 C 0.10369 0.5062 0.77983 0.0
C4107 C 0.12334 0.48282 0.76176 0.0
C4108 C 0.13435 0.46264 0.75831 0.0
C4109 C 0.10647 0.52237 0.76821 0.0
C4110 C 0.11739 0.51848 0.75303 0.0
C4111 C 0.12527 0.49869 0.74987 0.0
C4112 C 0.1222 0.53488 0.74064 0.0
C4113 C 0.09853 0.54362 0.77266 0.0
C4114 C 0.10644 0.54617 0.73267 0.0
C4115 C 0.11135 0.56085 0.72035 0.0
C4116 C 0.13201 0.56402 0.71561 0.0
C4117 C 0.14773 0.55276 0.72358 0.0
C4118 C 0.14287 0.53839 0.73608 0.0
H4119 H 0.09544 0.54514 0.78645 0.0
H4120 H 0.10974 0.55576 0.76887 0.0
H4121 H 0.08383 0.54646 0.76583 0.0
H4122 H 0.09038 0.54335 0.73571 0.0
H4123 H 0.09899 0.56939 0.71428 0.0
H4124 H 0.18263 0.34897 0.46658 0.0
H4125 H 0.2089 0.34006 0.48776 0.0
H4126 H 0.23176 0.40264 0.48623 0.0
H4127 H 0.20572 0.41155 0.46499 0.0
H4128 H 0.26264 0.37226 0.48451 0.0
H4129 H 0.20777 0.35844 0.53771 0.0
H4130 H 0.20354 0.34391 0.51862 0.0
H4131 H 0.20013 0.37142 0.51846 0.0
C4132 C 0.19326 0.36079 0.47082 0.0
C4133 C 0.19216 0.38097 0.4643 0.0
C4134 C 0.20817 0.3557 0.48291 0.0
C4135 C 0.22204 0.37077 0.48864 0.0
C4136 C 0.22113 0.39083 0.48193 0.0
H4137 H 0.2931 0.39713 0.57396 0.0
H4138 H 0.26626 0.38982 0.55296 0.0
C4139 C 0.20629 0.3959 0.46984 0.0
C4140 C 0.23762 0.36595 0.50168 0.0
H4141 H 0.24323 0.35631 0.5439 0.0
C4142 C 0.2585 0.3685 0.49747 0.0
C4143 C 0.23197 0.36105 0.5185 0.0
C4144 C 0.20965 0.35866 0.52372 0.0
C4145 C 0.27394 0.36737 0.50985 0.0
C4146 C 0.26827 0.36308 0.52681 0.0
C4147 C 0.24746 0.35948 0.53085 0.0
C4148 C 0.28327 0.3651 0.5408 0.0
C4149 C 0.29597 0.37201 0.5048 0.0
C4150 C 0.30134 0.35311 0.54128 0.0
C4151 C 0.31674 0.3575 0.55313 0.0
C4152 C 0.31403 0.37365 0.56471 0.0
C4153 C 0.29541 0.38464 0.56503 0.0
C4154 C 0.28013 0.38044 0.55309 0.0
H4155 H 0.29698 0.37905 0.49198 0.0
H4156 H 0.30336 0.38266 0.514 0.0
H4157 H 0.30496 0.35742 0.50462 0.0
H4158 H 0.30379 0.34084 0.53218 0.0
H4159 H 0.33079 0.34847 0.55314 0.0
H4160 H 0.09102 0.11763 0.06755 0.0
H4161 H 0.09298 0.11544 0.09847 0.0
H4162 H 0.15351 0.14311 0.0973 0.0
H4163 H 0.15149 0.14579 0.06637 0.0
H4164 H 0.12236 0.09539 0.11956 0.0
H4165 H 0.12117 0.18016 0.13046 0.0
H4166 H 0.1141 0.16877 0.11042 0.0
H4167 H 0.14084 0.17118 0.11618 0.0
C4168 C 0.10471 0.12338 0.07386 0.0
C4169 C 0.12102 0.13206 0.06443 0.0
C4170 C 0.10586 0.12199 0.09154 0.0
C4171 C 0.12325 0.1294 0.10025 0.0
C4172 C 0.13978 0.13761 0.09089 0.0
H4173 H 0.15041 0.1412 0.20842 0.0
H4174 H 0.15218 0.14121 0.17743 0.0
C4175 C 0.13869 0.13893 0.07318 0.0
C4176 C 0.12394 0.12858 0.11911 0.0
H4177 H 0.12566 0.15893 0.15452 0.0
C4178 C 0.12308 0.10927 0.12721 0.0
C4179 C 0.12494 0.1467 0.12911 0.0
C4180 C 0.12514 0.16791 0.12116 0.0
C4181 C 0.12335 0.10758 0.14499 0.0
C4182 C 0.12406 0.12572 0.155 0.0
C4183 C 0.12513 0.14502 0.14689 0.0
C4184 C 0.12324 0.12509 0.17389 0.0
C4185 C 0.12325 0.08634 0.15288 0.0
C4186 C 0.1063 0.11619 0.18229 0.0
C4187 C 0.10522 0.1162 0.20002 0.0
C4188 C 0.12097 0.12528 0.2098 0.0
C4189 C 0.13791 0.13423 0.20134 0.0
C4190 C 0.13899 0.13417 0.1836 0.0
H4191 H 0.12883 0.07441 0.14386 0.0
H4192 H 0.13304 0.08583 0.16442 0.0
H4193 H 0.10721 0.08227 0.15654 0.0
H4194 H 0.09368 0.10957 0.17512 0.0
H4195 H 0.09174 0.10955 0.20604 0.0
H4196 H 0.1526 0.85943 0.45947 0.0
H4197 H 0.15427 0.86222 0.4285 0.0
H4198 H 0.08951 0.87767 0.42702 0.0
H4199 H 0.08783 0.87549 0.45788 0.0
H4200 H 0.13235 0.83944 0.40457 0.0
H4201 H 0.11471 0.92273 0.39751 0.0
H4202 H 0.12215 0.91141 0.41752 0.0
H4203 H 0.096 0.9091 0.41003 0.0
C4204 C 0.13879 0.86377 0.45259 0.0
C4205 C 0.12008 0.86724 0.46125 0.0
C4206 C 0.13974 0.86523 0.43485 0.0
C4207 C 0.12209 0.87042 0.42538 0.0
C4208 C 0.10345 0.87401 0.434 0.0
H4209 H 0.08469 0.87815 0.32053 0.0
H4210 H 0.08801 0.87866 0.35136 0.0
C4211 C 0.10246 0.87251 0.45169 0.0
C4212 C 0.12283 0.8712 0.40648 0.0
H4213 H 0.11262 0.9023 0.37242 0.0
C4214 C 0.12827 0.85325 0.39754 0.0
C4215 C 0.11747 0.88921 0.39726 0.0
C4216 C 0.11244 0.90927 0.40606 0.0
C4217 C 0.12776 0.85259 0.3797 0.0
C4218 C 0.12203 0.8705 0.37048 0.0
C4219 C 0.11697 0.88855 0.37943 0.0
C4220 C 0.12044 0.8706 0.3516 0.0
C4221 C 0.13259 0.83247 0.37091 0.0
C4222 C 0.13765 0.86627 0.34133 0.0
C4223 C 0.13577 0.86581 0.32362 0.0
C4224 C 0.11663 0.86975 0.31574 0.0
C4225 C 0.09958 0.87463 0.32609 0.0
C4226 C 0.10148 0.87509 0.34377 0.0
H4227 H 0.13172 0.81912 0.37974 0.0
H4228 H 0.12179 0.82973 0.36022 0.0
H4229 H 0.14851 0.83312 0.36573 0.0
H4230 H 0.15256 0.86316 0.34702 0.0
H4231 H 0.14923 0.86191 0.31612 0.0
H4232 H 0.35629 0.88821 0.71067 0.0
H4233 H 0.35259 0.88772 0.67974 0.0
H4234 H 0.41363 0.86173 0.67507 0.0
H4235 H 0.41759 0.8624 0.70581 0.0
H4236 H 0.37713 0.90636 0.65402 0.0
H4237 H 0.37748 0.82099 0.64842 0.0
H4238 H 0.37348 0.83406 0.66835 0.0
H4239 H 0.39913 0.83116 0.65993 0.0
C4240 C 0.369 0.88254 0.70307 0.0
C4241 C 0.38716 0.87512 0.71083 0.0
C4242 C 0.36681 0.88219 0.68538 0.0
C4243 C 0.38267 0.87431 0.67508 0.0
C4244 C 0.40097 0.86739 0.68275 0.0
H4245 H 0.40752 0.85515 0.56881 0.0
H4246 H 0.40794 0.85791 0.59967 0.0
C4247 C 0.40319 0.86776 0.70038 0.0
C4248 C 0.38026 0.87338 0.65632 0.0
H4249 H 0.38099 0.84001 0.62278 0.0
C4250 C 0.37777 0.89185 0.64718 0.0
C4251 C 0.38109 0.85444 0.64739 0.0
C4252 C 0.38274 0.834 0.65651 0.0
C4253 C 0.37682 0.89194 0.62935 0.0
C4254 C 0.37803 0.87301 0.62041 0.0
C4255 C 0.38015 0.85453 0.62959 0.0
C4256 C 0.37772 0.87199 0.60154 0.0
C4257 C 0.37526 0.91235 0.6202 0.0
C4258 C 0.36051 0.87887 0.59224 0.0
C4259 C 0.36027 0.87742 0.57451 0.0
C4260 C 0.37722 0.86902 0.56568 0.0
C4261 C 0.39436 0.86206 0.57509 0.0
C4262 C 0.39456 0.86348 0.59279 0.0
H4263 H 0.37946 0.92551 0.62853 0.0
H4264 H 0.38545 0.91258 0.60888 0.0
H4265 H 0.35911 0.91468 0.61587 0.0
H4266 H 0.34716 0.88515 0.5987 0.0
H4267 H 0.34685 0.88301 0.56771 0.0
H4268 H 0.35594 0.13897 0.81414 0.0
H4269 H 0.35266 0.13818 0.8451 0.0
H4270 H 0.41786 0.12583 0.84963 0.0
H4271 H 0.42126 0.12632 0.81882 0.0
H4272 H 0.36286 0.10701 0.86952 0.0
H4273 H 0.40956 0.17792 0.87872 0.0
H4274 H 0.39915 0.17062 0.85837 0.0
H4275 H 0.42213 0.15837 0.86631 0.0
C4276 C 0.36955 0.13584 0.8217 0.0
C4277 C 0.38893 0.13298 0.8139 0.0
C4278 C 0.36766 0.13549 0.83942 0.0
C4279 C 0.38509 0.13236 0.84972 0.0
C4280 C 0.40428 0.12878 0.84198 0.0
H4281 H 0.41389 0.13124 0.95686 0.0
H4282 H 0.41375 0.12914 0.92594 0.0
C4283 C 0.40619 0.1291 0.82432 0.0
C4284 C 0.3834 0.13309 0.86855 0.0
H4285 H 0.40138 0.1587 0.90342 0.0
C4286 C 0.37115 0.11838 0.87695 0.0
C4287 C 0.39421 0.14796 0.87825 0.0
C4288 C 0.40686 0.16475 0.86999 0.0
C4289 C 0.36996 0.11774 0.89478 0.0
C4290 C 0.381 0.13246 0.90448 0.0
C4291 C 0.393 0.14734 0.89604 0.0
C4292 C 0.38066 0.13265 0.9234 0.0
C4293 C 0.35741 0.1009 0.90305 0.0
C4294 C 0.36209 0.13532 0.93238 0.0
C4295 C 0.36213 0.13655 0.95014 0.0
C4296 C 0.38076 0.13537 0.9593 0.0
C4297 C 0.39928 0.13248 0.95025 0.0
C4298 C 0.39922 0.13119 0.93254 0.0
H4299 H 0.35453 0.08783 0.89425 0.0
H4300 H 0.3653 0.09487 0.91454 0.0
H4301 H 0.34222 0.10728 0.90694 0.0
H4302 H 0.34761 0.13699 0.92565 0.0
H4303 H 0.34762 0.1391 0.95664 0.0
H4304 H 0.90527 0.89958 0.81875 0.0
H4305 H 0.9033 0.89923 0.84973 0.0
H4306 H 0.85583 0.85266 0.84747 0.0
H4307 H 0.85772 0.85288 0.81652 0.0
H4308 H 0.87146 0.90707 0.87202 0.0
H4309 H 0.89766 0.82592 0.87888 0.0
H4310 H 0.89967 0.83989 0.85916 0.0
H4311 H 0.87541 0.82881 0.86553 0.0
C4312 C 0.89426 0.88939 0.82481 0.0
C4313 C 0.88177 0.87613 0.81507 0.0
C4314 C 0.89322 0.88915 0.84256 0.0
C4315 C 0.87973 0.87561 0.85101 0.0
C4316 C 0.86678 0.86283 0.84131 0.0
H4317 H 0.85411 0.8485 0.95731 0.0
H4318 H 0.85328 0.85119 0.92636 0.0
C4319 C 0.86785 0.86301 0.82358 0.0
C4320 C 0.87924 0.87484 0.86991 0.0
H4321 H 0.88565 0.84246 0.9038 0.0
C4322 C 0.87464 0.89296 0.87896 0.0
C4323 C 0.88341 0.85644 0.87904 0.0
C4324 C 0.88951 0.8367 0.87019 0.0
C4325 C 0.87374 0.89308 0.8968 0.0
C4326 C 0.87784 0.87466 0.90589 0.0
C4327 C 0.88241 0.85655 0.89685 0.0
C4328 C 0.87775 0.87385 0.92479 0.0
C4329 C 0.86801 0.91285 0.90575 0.0
C4330 C 0.89181 0.88564 0.93426 0.0
C4331 C 0.89229 0.88418 0.95198 0.0
C4332 C 0.87874 0.87084 0.96066 0.0
C4333 C 0.86457 0.85915 0.95112 0.0
C4334 C 0.86416 0.86057 0.93339 0.0
H4335 H 0.86017 0.92391 0.8971 0.0
H4336 H 0.85772 0.90973 0.91671 0.0
H4337 H 0.88226 0.92035 0.91057 0.0
H4338 H 0.90269 0.89574 0.92794 0.0
H4339 H 0.90331 0.89352 0.95889 0.0
H4340 H 0.85443 0.14025 0.70772 0.0
H4341 H 0.85287 0.14089 0.67672 0.0
H4342 H 0.91046 0.10754 0.67429 0.0
H4343 H 0.91215 0.10685 0.70521 0.0
H4344 H 0.87978 0.15823 0.65416 0.0
H4345 H 0.87492 0.07406 0.64232 0.0
H4346 H 0.87091 0.08513 0.66304 0.0
H4347 H 0.89668 0.0811 0.65515 0.0
C4348 C 0.86676 0.13302 0.7006 0.0
C4349 C 0.88336 0.12339 0.70904 0.0
C4350 C 0.86581 0.13333 0.68285 0.0
C4351 C 0.88136 0.12396 0.6731 0.0
C4352 C 0.89797 0.11439 0.68147 0.0
H4353 H 0.91431 0.1177 0.5668 0.0
H4354 H 0.91211 0.11512 0.59769 0.0
C4355 C 0.89891 0.11401 0.69921 0.0
C4356 C 0.88072 0.12499 0.65421 0.0
H4357 H 0.88219 0.09535 0.61835 0.0
C4358 C 0.88011 0.14447 0.64634 0.0
C4359 C 0.88117 0.10705 0.64394 0.0
C4360 C 0.88075 0.08565 0.65152 0.0
C4361 C 0.88051 0.14651 0.62858 0.0
C4362 C 0.88126 0.12858 0.61834 0.0
C4363 C 0.88166 0.1091 0.62619 0.0
C4364 C 0.88214 0.12975 0.59949 0.0
C4365 C 0.88078 0.16787 0.62093 0.0
C4366 C 0.86586 0.13849 0.59013 0.0
C4367 C 0.86709 0.14004 0.57243 0.0
C4368 C 0.88464 0.13287 0.56369 0.0
C4369 C 0.90071 0.1237 0.5731 0.0
C4370 C 0.89942 0.12209 0.59077 0.0
H4371 H 0.88492 0.17985 0.63041 0.0
H4372 H 0.89192 0.16871 0.61025 0.0
H4373 H 0.8652 0.17157 0.61591 0.0
H4374 H 0.85221 0.14421 0.59653 0.0
H4375 H 0.85447 0.14728 0.56564 0.0
H4376 H 0.64701 0.11326 0.45861 0.0
H4377 H 0.64753 0.11108 0.4276 0.0
H4378 H 0.60334 0.16079 0.42466 0.0
H4379 H 0.60336 0.16367 0.45545 0.0
H4380 H 0.61637 0.10272 0.40505 0.0
H4381 H 0.64752 0.18085 0.39248 0.0
H4382 H 0.64792 0.16931 0.4133 0.0
H4383 H 0.62477 0.18142 0.40545 0.0
C4384 C 0.63762 0.12394 0.45137 0.0
C4385 C 0.62518 0.13868 0.45964 0.0
C4386 C 0.63783 0.12257 0.43362 0.0
C4387 C 0.62574 0.136 0.42373 0.0
C4388 C 0.61315 0.15054 0.43194 0.0
H4389 H 0.59296 0.15325 0.31877 0.0
H4390 H 0.59664 0.15361 0.34955 0.0
C4391 C 0.61296 0.15196 0.44963 0.0
C4392 C 0.62586 0.13459 0.40485 0.0
H4393 H 0.63276 0.16319 0.36883 0.0
C4394 C 0.62017 0.11588 0.39713 0.0
C4395 C 0.63089 0.15172 0.39446 0.0
C4396 C 0.63832 0.17189 0.40183 0.0
C4397 C 0.61865 0.11408 0.37938 0.0
C4398 C 0.62314 0.13139 0.36905 0.0
C4399 C 0.62921 0.14996 0.37675 0.0
C4400 C 0.62103 0.1308 0.35025 0.0
C4401 C 0.61157 0.09389 0.37184 0.0
C4402 C 0.63365 0.11796 0.34031 0.0
C4403 C 0.63175 0.11786 0.3226 0.0
C4404 C 0.6172 0.13065 0.31443 0.0
C4405 C 0.60458 0.14345 0.3245 0.0
C4406 C 0.60656 0.14359 0.34216 0.0
H4407 H 0.6047 0.08351 0.38153 0.0
H4408 H 0.60001 0.09661 0.36168 0.0
H4409 H 0.62501 0.08586 0.36611 0.0
H4410 H 0.64519 0.10823 0.34624 0.0
H4411 H 0.64194 0.10803 0.31531 0.0
H4412 H 0.62992 0.89609 0.06689 0.0
H4413 H 0.63144 0.89873 0.09788 0.0
H4414 H 0.61827 0.83367 0.10214 0.0
H4415 H 0.61733 0.83077 0.07133 0.0
H4416 H 0.60058 0.89007 0.12145 0.0
H4417 H 0.66841 0.83978 0.13279 0.0
H4418 H 0.6621 0.84983 0.11208 0.0
H4419 H 0.64881 0.82754 0.12025 0.0
C4420 C 0.62766 0.88228 0.07441 0.0
C4421 C 0.62349 0.86321 0.06654 0.0
C4422 C 0.62841 0.88384 0.09215 0.0
C4423 C 0.62525 0.86635 0.10239 0.0
C4424 C 0.62114 0.84733 0.09456 0.0
H4425 H 0.61067 0.83493 0.20777 0.0
H4426 H 0.61403 0.83637 0.17696 0.0
C4427 C 0.62036 0.84575 0.07689 0.0
C4428 C 0.62544 0.86799 0.12125 0.0
H4429 H 0.64757 0.84766 0.15693 0.0
C4430 C 0.61102 0.88099 0.12921 0.0
C4431 C 0.63906 0.85615 0.13142 0.0
C4432 C 0.65561 0.84269 0.12371 0.0
C4433 C 0.6093 0.88185 0.14699 0.0
C4434 C 0.6226 0.86963 0.15714 0.0
C4435 C 0.63732 0.85698 0.14918 0.0
C4436 C 0.62092 0.86903 0.176 0.0
C4437 C 0.5927 0.89521 0.15473 0.0
C4438 C 0.62398 0.88686 0.18584 0.0
C4439 C 0.62194 0.88612 0.20354 0.0
C4440 C 0.61682 0.86751 0.2118 0.0
C4441 C 0.61422 0.84962 0.20188 0.0
C4442 C 0.61629 0.85037 0.18423 0.0
H4443 H 0.58084 0.89983 0.14528 0.0
H4444 H 0.58492 0.88706 0.16534 0.0
H4445 H 0.59983 0.90948 0.15985 0.0
H4446 H 0.62794 0.90137 0.17984 0.0
H4447 H 0.62398 0.90021 0.21071 0.0
H4448 H 0.60524 0.59551 0.70753 0.0
H4449 H 0.60787 0.59454 0.67657 0.0
H4450 H 0.64083 0.65236 0.6771 0.0
H4451 H 0.63868 0.65323 0.70803 0.0
H4452 H 0.5921 0.62403 0.65376 0.0
H4453 H 0.67697 0.61626 0.64638 0.0
H4454 H 0.66391 0.61112 0.66616 0.0
H4455 H 0.66909 0.63726 0.65976 0.0
C4456 C 0.61339 0.60783 0.7011 0.0
C4457 C 0.62177 0.62444 0.71034 0.0
C4458 C 0.61476 0.60732 0.68337 0.0
C4459 C 0.62475 0.62325 0.67447 0.0
C4460 C 0.63335 0.63971 0.68365 0.0
H4461 H 0.64272 0.65634 0.56867 0.0
H4462 H 0.64321 0.65373 0.59962 0.0
C4463 C 0.63191 0.64028 0.70136 0.0
C4464 C 0.62526 0.62323 0.65557 0.0
H4465 H 0.65782 0.62395 0.62144 0.0
C4466 C 0.60647 0.62384 0.64669 0.0
C4467 C 0.644 0.62312 0.64632 0.0
C4468 C 0.66466 0.62172 0.6551 0.0
C4469 C 0.6059 0.62484 0.62888 0.0
C4470 C 0.62465 0.62475 0.6196 0.0
C4471 C 0.64345 0.62402 0.62849 0.0
C4472 C 0.62505 0.62571 0.60069 0.0
C4473 C 0.58519 0.62668 0.6202 0.0
C4474 C 0.61512 0.61058 0.59089 0.0
C4475 C 0.61482 0.61203 0.57317 0.0
C4476 C 0.62463 0.62855 0.56479 0.0
C4477 C 0.63514 0.64332 0.57464 0.0
C4478 C 0.63536 0.6419 0.59237 0.0
H4479 H 0.57302 0.63222 0.62903 0.0
H4480 H 0.58599 0.63743 0.60925 0.0
H4481 H 0.58045 0.61127 0.61546 0.0
H4482 H 0.60754 0.59762 0.59694 0.0
H4483 H 0.60692 0.60015 0.56601 0.0
H4484 H 0.64485 0.39893 0.81743 0.0
H4485 H 0.64806 0.39896 0.84842 0.0
H4486 H 0.59997 0.35316 0.85191 0.0
H4487 H 0.59647 0.35318 0.82113 0.0
H4488 H 0.61832 0.4073 0.87393 0.0
H4489 H 0.64732 0.32696 0.87893 0.0
H4490 H 0.64686 0.34097 0.85914 0.0
H4491 H 0.62368 0.3292 0.86718 0.0
C4492 C 0.63485 0.38896 0.82479 0.0
C4493 C 0.62056 0.37586 0.81668 0.0
C4494 C 0.63677 0.38894 0.84252 0.0
C4495 C 0.62455 0.37576 0.85251 0.0
C4496 C 0.60996 0.36307 0.84448 0.0
H4497 H 0.6043 0.34613 0.95765 0.0
H4498 H 0.6047 0.34928 0.92685 0.0
C4499 C 0.60801 0.36309 0.82682 0.0
C4500 C 0.62677 0.37532 0.87133 0.0
H4501 H 0.6366 0.34294 0.90463 0.0
C4502 C 0.62253 0.3933 0.88065 0.0
C4503 C 0.63228 0.35705 0.88012 0.0
C4504 C 0.638 0.33749 0.87085 0.0
C4505 C 0.62284 0.39329 0.89851 0.0
C4506 C 0.62793 0.37488 0.90731 0.0
C4507 C 0.63262 0.35703 0.89794 0.0
C4508 C 0.62771 0.37348 0.9262 0.0
C4509 C 0.61695 0.41277 0.9078 0.0
C4510 C 0.64066 0.3859 0.93622 0.0
C4511 C 0.64034 0.38426 0.95397 0.0
C4512 C 0.6271 0.3701 0.96209 0.0
C4513 C 0.61438 0.35752 0.95195 0.0
C4514 C 0.61471 0.35918 0.93427 0.0
H4515 H 0.60866 0.42384 0.89944 0.0
H4516 H 0.60699 0.40924 0.91888 0.0
H4517 H 0.63115 0.42047 0.91248 0.0
H4518 H 0.65115 0.39676 0.93033 0.0
H4519 H 0.6503 0.39426 0.96131 0.0
H4520 H 0.85118 0.34595 0.06938 0.0
H4521 H 0.8517 0.34876 0.1003 0.0
H4522 H 0.89634 0.39794 0.09686 0.0
H4523 H 0.8955 0.39565 0.06592 0.0
H4524 H 0.88541 0.3432 0.12173 0.0
H4525 H 0.85338 0.42217 0.12914 0.0
H4526 H 0.85139 0.40786 0.10959 0.0
H4527 H 0.87513 0.42061 0.11508 0.0
C4528 C 0.86083 0.35764 0.07516 0.0
C4529 C 0.87324 0.37063 0.06507 0.0
C4530 C 0.86122 0.35912 0.09287 0.0
C4531 C 0.87386 0.37373 0.10096 0.0
C4532 C 0.88618 0.38679 0.09095 0.0
H4533 H 0.90423 0.40197 0.20599 0.0
H4534 H 0.90097 0.40124 0.1751 0.0
C4535 C 0.88584 0.3853 0.07323 0.0
C4536 C 0.87484 0.37464 0.11984 0.0
H4537 H 0.86737 0.40651 0.15385 0.0
C4538 C 0.88133 0.357 0.12876 0.0
C4539 C 0.86964 0.39268 0.12903 0.0
C4540 C 0.86181 0.41187 0.12027 0.0
C4541 C 0.88314 0.35702 0.14653 0.0
C4542 C 0.87789 0.37504 0.15575 0.0
C4543 C 0.87138 0.39269 0.14683 0.0
C4544 C 0.8792 0.37591 0.17462 0.0
C4545 C 0.89122 0.33787 0.15522 0.0
C4546 C 0.86769 0.36225 0.18474 0.0
C4547 C 0.86949 0.36266 0.20244 0.0
C4548 C 0.8827 0.37688 0.21048 0.0
C4549 C 0.89376 0.39094 0.20031 0.0
C4550 C 0.89199 0.39047 0.1826 0.0
H4551 H 0.89976 0.32771 0.14629 0.0
H4552 H 0.90164 0.34193 0.16589 0.0
H4553 H 0.87803 0.32893 0.16038 0.0
H4554 H 0.85729 0.35123 0.17895 0.0
H4555 H 0.86042 0.35187 0.20984 0.0
H4556 H 0.90954 0.64911 0.31974 0.0
H4557 H 0.90594 0.64946 0.35053 0.0
H4558 H 0.8525 0.61005 0.34682 0.0
H4559 H 0.85582 0.60979 0.31589 0.0
H4560 H 0.87266 0.6631 0.37012 0.0
H4561 H 0.88834 0.57992 0.38185 0.0
H4562 H 0.89421 0.5923 0.36192 0.0
H4563 H 0.86808 0.5852 0.3669 0.0
C4564 C 0.89689 0.64062 0.32539 0.0
C4565 C 0.88294 0.62946 0.31521 0.0
C4566 C 0.89493 0.64074 0.34306 0.0
C4567 C 0.8791 0.62959 0.35107 0.0
C4568 C 0.8651 0.61844 0.341 0.0
H4569 H 0.8495 0.6152 0.45921 0.0
H4570 H 0.84889 0.61362 0.42816 0.0
C4571 C 0.86703 0.61832 0.32328 0.0
C4572 C 0.87709 0.63015 0.36991 0.0
H4573 H 0.879 0.60011 0.40558 0.0
C4574 C 0.87404 0.64931 0.37786 0.0
C4575 C 0.87876 0.61216 0.38005 0.0
C4576 C 0.8827 0.59123 0.37232 0.0
C4577 C 0.87261 0.651 0.3956 0.0
C4578 C 0.87473 0.63308 0.40578 0.0
C4579 C 0.8774 0.61385 0.39782 0.0
C4580 C 0.87494 0.63411 0.42468 0.0
C4581 C 0.86859 0.67197 0.40325 0.0
C4582 C 0.88991 0.64594 0.43313 0.0
C4583 C 0.89022 0.64697 0.45084 0.0
C4584 C 0.87567 0.63604 0.46064 0.0
C4585 C 0.86078 0.62403 0.45213 0.0
C4586 C 0.86049 0.623 0.43436 0.0
H4587 H 0.86126 0.68261 0.39397 0.0
H4588 H 0.85846 0.67078 0.41456 0.0
H4589 H 0.88349 0.67891 0.40722 0.0
H4590 H 0.90147 0.65435 0.426 0.0
H4591 H 0.90177 0.65658 0.45685 0.0
H4592 H 0.35874 0.34646 0.31402 0.0
H4593 H 0.35386 0.34676 0.34475 0.0
H4594 H 0.38578 0.40508 0.34779 0.0
H4595 H 0.39059 0.40494 0.31702 0.0
H4596 H 0.38314 0.3462 0.36903 0.0
H4597 H 0.33567 0.41681 0.37665 0.0
H4598 H 0.33991 0.40484 0.3563 0.0
H4599 H 0.35931 0.42136 0.36538 0.0
C4600 C 0.36464 0.35941 0.32121 0.0
C4601 C 0.37507 0.37568 0.31302 0.0
C4602 C 0.36177 0.3596 0.3388 0.0
C4603 C 0.3692 0.37606 0.34864 0.0
C4604 C 0.37943 0.39244 0.34048 0.0
H4605 H 0.38552 0.39928 0.45575 0.0
H4606 H 0.38394 0.40059 0.4248 0.0
C4607 C 0.38221 0.39233 0.32286 0.0
C4608 C 0.36733 0.37541 0.36749 0.0
H4609 H 0.35005 0.40246 0.40192 0.0
C4610 C 0.37571 0.35842 0.3762 0.0
C4611 C 0.35768 0.39136 0.37689 0.0
C4612 C 0.34745 0.40952 0.36833 0.0
C4613 C 0.3752 0.35717 0.39398 0.0
C4614 C 0.36578 0.37322 0.40339 0.0
C4615 C 0.35725 0.39015 0.39471 0.0
C4616 C 0.36537 0.37302 0.42227 0.0
C4617 C 0.38534 0.33897 0.40259 0.0
C4618 C 0.35498 0.35738 0.43122 0.0
C4619 C 0.3559 0.35654 0.44897 0.0
C4620 C 0.36725 0.37134 0.45813 0.0
C4621 C 0.37693 0.38743 0.44911 0.0
C4622 C 0.37595 0.38829 0.43141 0.0
H4623 H 0.3958 0.33045 0.39389 0.0
H4624 H 0.39436 0.34405 0.41381 0.0
H4625 H 0.37324 0.3281 0.40701 0.0
H4626 H 0.34642 0.34562 0.42446 0.0
H4627 H 0.34832 0.3439 0.45546 0.0
H4628 H 0.36167 0.65794 0.2072 0.0
H4629 H 0.3587 0.65727 0.17632 0.0
H4630 H 0.39148 0.5993 0.17502 0.0
H4631 H 0.39451 0.59986 0.20593 0.0
H4632 H 0.38981 0.6574 0.15292 0.0
H4633 H 0.34226 0.58686 0.14488 0.0
H4634 H 0.34539 0.59945 0.16511 0.0
H4635 H 0.36535 0.58283 0.15703 0.0
C4636 C 0.36823 0.64501 0.20037 0.0
C4637 C 0.37835 0.62895 0.20912 0.0
C4638 C 0.36644 0.64461 0.18269 0.0
C4639 C 0.37463 0.62812 0.17328 0.0
C4640 C 0.38459 0.61196 0.18196 0.0
H4641 H 0.38819 0.60461 0.06489 0.0
H4642 H 0.38895 0.603 0.0959 0.0
C4643 C 0.38633 0.61232 0.19968 0.0
C4644 C 0.37361 0.62842 0.15438 0.0
H4645 H 0.35653 0.60146 0.11983 0.0
C4646 C 0.38242 0.64521 0.14571 0.0
C4647 C 0.36406 0.61249 0.1449 0.0
C4648 C 0.35355 0.59447 0.15343 0.0
C4649 C 0.38221 0.64638 0.1279 0.0
C4650 C 0.37261 0.63049 0.11843 0.0
C4651 C 0.36388 0.61364 0.12707 0.0
C4652 C 0.3715 0.63115 0.09956 0.0
C4653 C 0.39269 0.66442 0.11938 0.0
C4654 C 0.3611 0.64728 0.09124 0.0
C4655 C 0.36071 0.64831 0.0735 0.0
C4656 C 0.37066 0.63316 0.06363 0.0
C4657 C 0.38063 0.61672 0.07204 0.0
C4658 C 0.38097 0.6157 0.08979 0.0
H4659 H 0.40379 0.67224 0.12799 0.0
H4660 H 0.40109 0.65939 0.10782 0.0
H4661 H 0.38084 0.67591 0.11555 0.0
H4662 H 0.35337 0.65921 0.09848 0.0
H4663 H 0.35303 0.66128 0.06755 0.0
H4664 H 0.12202 0.59558 0.81581 0.0
H4665 H 0.12507 0.5955 0.84679 0.0
H4666 H 0.11854 0.66174 0.84734 0.0
H4667 H 0.11571 0.66202 0.81649 0.0
H4668 H 0.15304 0.6158 0.86907 0.0
H4669 H 0.07257 0.64235 0.87945 0.0
H4670 H 0.08146 0.63265 0.85929 0.0
H4671 H 0.08723 0.65871 0.86556 0.0
C4672 C 0.12147 0.61017 0.82249 0.0
C4673 C 0.11837 0.62879 0.81358 0.0
C4674 C 0.12312 0.61008 0.84023 0.0
C4675 C 0.12161 0.62857 0.84946 0.0
C4676 C 0.11923 0.64722 0.84057 0.0
H4677 H 0.12143 0.66793 0.95402 0.0
H4678 H 0.12127 0.66461 0.92321 0.0
C4679 C 0.11759 0.64734 0.82288 0.0
C4680 C 0.12232 0.62848 0.86837 0.0
H4681 H 0.09465 0.64229 0.90348 0.0
C4682 C 0.14023 0.62144 0.87662 0.0
C4683 C 0.10558 0.63579 0.87824 0.0
C4684 C 0.08554 0.64263 0.87023 0.0
C4685 C 0.14211 0.62218 0.89441 0.0
C4686 C 0.12548 0.62983 0.90427 0.0
C4687 C 0.10745 0.63652 0.89599 0.0
C4688 C 0.12653 0.63161 0.92312 0.0
C4689 C 0.16215 0.61543 0.90245 0.0
C4690 C 0.12953 0.61417 0.93347 0.0
C4691 C 0.12959 0.61602 0.9512 0.0
C4692 C 0.12641 0.63533 0.95899 0.0
C4693 C 0.1236 0.65276 0.94854 0.0
C4694 C 0.1236 0.65091 0.93087 0.0
H4695 H 0.17499 0.61499 0.89311 0.0
H4696 H 0.16655 0.62593 0.91297 0.0
H4697 H 0.16026 0.59966 0.90774 0.0
H4698 H 0.13138 0.59903 0.92786 0.0
H4699 H 0.13154 0.60223 0.95882 0.0
H4700 H 0.14697 0.38295 0.71129 0.0
H4701 H 0.15025 0.3848 0.68037 0.0
H4702 H 0.08901 0.35955 0.67495 0.0
H4703 H 0.08532 0.35834 0.70569 0.0
H4704 H 0.14865 0.35326 0.65682 0.0
H4705 H 0.08608 0.40952 0.64408 0.0
H4706 H 0.09632 0.40521 0.66506 0.0
H4707 H 0.07755 0.38774 0.65628 0.0
C4708 C 0.13406 0.37811 0.70353 0.0
C4709 C 0.11586 0.37051 0.71108 0.0
C4710 C 0.13602 0.37903 0.68583 0.0
C4711 C 0.11978 0.37259 0.67526 0.0
C4712 C 0.10163 0.365 0.68276 0.0
H4713 H 0.0969 0.35424 0.56842 0.0
H4714 H 0.09594 0.35672 0.5993 0.0
C4715 C 0.09965 0.36407 0.70041 0.0
C4716 C 0.12196 0.3731 0.65642 0.0
H4717 H 0.09908 0.39103 0.6202 0.0
C4718 C 0.13795 0.3617 0.64882 0.0
C4719 C 0.108 0.38409 0.64593 0.0
C4720 C 0.09115 0.3975 0.65324 0.0
C4721 C 0.13991 0.36041 0.63107 0.0
C4722 C 0.1257 0.37109 0.62058 0.0
C4723 C 0.10993 0.38277 0.62819 0.0
C4724 C 0.1265 0.36988 0.60169 0.0
C4725 C 0.15674 0.34701 0.62371 0.0
C4726 C 0.1439 0.37671 0.59263 0.0
C4727 C 0.14447 0.3754 0.57488 0.0
C4728 C 0.12758 0.36738 0.56576 0.0
C4729 C 0.11009 0.36078 0.57492 0.0
C4730 C 0.10955 0.36208 0.59263 0.0
H4731 H 0.16302 0.33601 0.63322 0.0
H4732 H 0.15095 0.3381 0.61267 0.0
H4733 H 0.16961 0.35697 0.61931 0.0
H4734 H 0.157 0.38323 0.59927 0.0
H4735 H 0.15807 0.38093 0.5683 0.0
loop_
_geom_bond_atom_site_label_1
_geom_bond_atom_site_label_2
_geom_bond_distance
_geom_bond_site_symmetry_2
_ccdc_geom_bond_type
Nd0 C2 2.836 . S
Nd0 O20 2.500 . S
Nd0 O21 2.492 . S
Nd0 O22 2.487 . S
Nd0 O23 2.682 . S
Nd0 O24 2.410 . S
Nd0 O29 2.414 . S
Nd0 O31 2.424 . S
Nd1 C11 2.836 . S
Nd1 O23 2.414 . S
Nd1 O25 2.424 . S
Nd1 O26 2.500 . S
Nd1 O27 2.492 . S
Nd1 O28 2.487 . S
Nd1 O29 2.682 . S
Nd1 O30 2.410 . S
C2 Nd0 2.836 . S
C2 C3 1.498 . S
C2 O20 1.258 . S
C2 O21 1.239 . S
C3 C2 1.498 . S
C3 C4 1.366 . S
C3 C8 1.407 . S
C4 C3 1.366 . S
C4 C5 1.392 . S
C4 H32 0.930 . S
C5 C4 1.392 . S
C5 C6 1.398 . S
C5 H33 0.929 . S
C6 C5 1.398 . S
C6 C7 1.352 . S
C7 C6 1.352 . S
C7 C8 1.384 . S
C7 H34 0.930 . S
C8 C3 1.407 . S
C8 C7 1.384 . S
C8 H35 0.929 . S
C9 O22 1.241 . S
C9 O23 1.273 . S
C10 O24 1.251 . S
C10 O25 1.268 . S
C11 Nd1 2.836 . S
C11 C12 1.498 . S
C11 O26 1.258 . S
C11 O27 1.239 . S
C12 C11 1.498 . S
C12 C13 1.366 . S
C12 C17 1.407 . S
C13 C12 1.366 . S
C13 C14 1.392 . S
C13 H36 0.930 . S
C14 C13 1.392 . S
C14 C15 1.398 . S
C14 H37 0.929 . S
C15 C14 1.398 . S
C15 C16 1.352 . S
C16 C15 1.352 . S
C16 C17 1.384 . S
C16 H38 0.930 . S
C17 C12 1.407 . S
C17 C16 1.384 . S
C17 H39 0.929 . S
C18 O28 1.241 . S
C18 O29 1.273 . S
C19 O30 1.251 . S
C19 O31 1.268 . S
O20 Nd0 2.500 . S
O20 C2 1.258 . S
O21 Nd0 2.492 . S
O21 C2 1.239 . S
O22 Nd0 2.487 . S
O22 C9 1.241 . S
O23 Nd0 2.682 . S
O23 Nd1 2.414 . S
O23 C9 1.273 . S
O24 Nd0 2.410 . S
O24 C10 1.251 . S
O25 Nd1 2.424 . S
O25 C10 1.268 . S
O26 Nd1 2.500 . S
O26 C11 1.258 . S
O27 Nd1 2.492 . S
O27 C11 1.239 . S
O28 Nd1 2.487 . S
O28 C18 1.241 . S
O29 Nd0 2.414 . S
O29 Nd1 2.682 . S
O29 C18 1.273 . S
O30 Nd1 2.410 . S
O30 C19 1.251 . S
O31 Nd0 2.424 . S
O31 C19 1.268 . S
H32 C4 0.930 . S
H33 C5 0.929 . S
H34 C7 0.930 . S
H35 C8 0.929 . S
H36 C13 0.930 . S
H37 C14 0.929 . S
H38 C16 0.930 . S
H39 C17 0.929 . S
Nd40 C42 2.836 . S
Nd40 O60 2.500 . S
Nd40 O61 2.492 . S
Nd40 O62 2.487 . S
Nd40 O63 2.682 . S
Nd40 O64 2.410 . S
Nd40 O69 2.414 . S
Nd40 O71 2.424 . S
Nd41 C51 2.836 . S
Nd41 O63 2.414 . S
Nd41 O65 2.424 . S
Nd41 O66 2.500 . S
Nd41 O67 2.492 . S
Nd41 O68 2.487 . S
Nd41 O69 2.682 . S
Nd41 O70 2.410 . S
C42 Nd40 2.836 . S
C42 C43 1.498 . S
C42 O60 1.258 . S
C42 O61 1.239 . S
C43 C42 1.498 . S
C43 C44 1.366 . S
C43 C48 1.407 . S
C44 C43 1.366 . S
C44 C45 1.392 . S
C44 H72 0.930 . S
C45 C44 1.392 . S
C45 C46 1.398 . S
C45 H73 0.929 . S
C46 C45 1.398 . S
C46 C47 1.352 . S
C47 C46 1.352 . S
C47 C48 1.384 . S
C47 H74 0.930 . S
C48 C43 1.407 . S
C48 C47 1.384 . S
C48 H75 0.929 . S
C49 O62 1.241 . S
C49 O63 1.273 . S
C50 O64 1.251 . S
C50 O65 1.268 . S
C51 Nd41 2.836 . S
C51 C52 1.498 . S
C51 O66 1.258 . S
C51 O67 1.239 . S
C52 C51 1.498 . S
C52 C53 1.366 . S
C52 C57 1.407 . S
C53 C52 1.366 . S
C53 C54 1.392 . S
C53 H76 0.930 . S
C54 C53 1.392 . S
C54 C55 1.398 . S
C54 H77 0.929 . S
C55 C54 1.398 . S
C55 C56 1.352 . S
C56 C55 1.352 . S
C56 C57 1.384 . S
C56 H78 0.930 . S
C57 C52 1.407 . S
C57 C56 1.384 . S
C57 H79 0.929 . S
C58 O68 1.241 . S
C58 O69 1.273 . S
C59 O70 1.251 . S
C59 O71 1.268 . S
O60 Nd40 2.500 . S
O60 C42 1.258 . S
O61 Nd40 2.492 . S
O61 C42 1.239 . S
O62 Nd40 2.487 . S
O62 C49 1.241 . S
O63 Nd40 2.682 . S
O63 Nd41 2.414 . S
O63 C49 1.273 . S
O64 Nd40 2.410 . S
O64 C50 1.251 . S
O65 Nd41 2.424 . S
O65 C50 1.268 . S
O66 Nd41 2.500 . S
O66 C51 1.258 . S
O67 Nd41 2.492 . S
O67 C51 1.239 . S
O68 Nd41 2.487 . S
O68 C58 1.241 . S
O69 Nd40 2.414 . S
O69 Nd41 2.682 . S
O69 C58 1.273 . S
O70 Nd41 2.410 . S
O70 C59 1.251 . S
O71 Nd40 2.424 . S
O71 C59 1.268 . S
H72 C44 0.930 . S
H73 C45 0.929 . S
H74 C47 0.930 . S
H75 C48 0.929 . S
H76 C53 0.930 . S
H77 C54 0.929 . S
H78 C56 0.930 . S
H79 C57 0.929 . S
Nd80 C82 2.836 . S
Nd80 O100 2.500 . S
Nd80 O101 2.492 . S
Nd80 O102 2.487 . S
Nd80 O103 2.682 . S
Nd80 O104 2.410 . S
Nd80 O109 2.414 . S
Nd80 O111 2.424 . S
Nd81 C91 2.836 . S
Nd81 O103 2.414 . S
Nd81 O105 2.424 . S
Nd81 O106 2.500 . S
Nd81 O107 2.492 . S
Nd81 O108 2.487 . S
Nd81 O109 2.682 . S
Nd81 O110 2.410 . S
C82 Nd80 2.836 . S
C82 C83 1.498 . S
C82 O100 1.258 . S
C82 O101 1.239 . S
C83 C82 1.498 . S
C83 C84 1.366 . S
C83 C88 1.407 . S
C84 C83 1.366 . S
C84 C85 1.392 . S
C84 H112 0.930 . S
C85 C84 1.392 . S
C85 C86 1.398 . S
C85 H113 0.929 . S
C86 C85 1.398 . S
C86 C87 1.352 . S
C87 C86 1.352 . S
C87 C88 1.384 . S
C87 H114 0.930 . S
C88 C83 1.407 . S
C88 C87 1.384 . S
C88 H115 0.929 . S
C89 O102 1.241 . S
C89 O103 1.273 . S
C90 O104 1.251 . S
C90 O105 1.268 . S
C91 Nd81 2.836 . S
C91 C92 1.498 . S
C91 O106 1.258 . S
C91 O107 1.239 . S
C92 C91 1.498 . S
C92 C93 1.366 . S
C92 C97 1.407 . S
C93 C92 1.366 . S
C93 C94 1.392 . S
C93 H116 0.930 . S
C94 C93 1.392 . S
C94 C95 1.398 . S
C94 H117 0.929 . S
C95 C94 1.398 . S
C95 C96 1.352 . S
C96 C95 1.352 . S
C96 C97 1.384 . S
C96 H118 0.930 . S
C97 C92 1.407 . S
C97 C96 1.384 . S
C97 H119 0.929 . S
C98 O108 1.241 . S
C98 O109 1.273 . S
C99 O110 1.251 . S
C99 O111 1.268 . S
O100 Nd80 2.500 . S
O100 C82 1.258 . S
O101 Nd80 2.492 . S
O101 C82 1.239 . S
O102 Nd80 2.487 . S
O102 C89 1.241 . S
O103 Nd80 2.682 . S
O103 Nd81 2.414 . S
O103 C89 1.273 . S
O104 Nd80 2.410 . S
O104 C90 1.251 . S
O105 Nd81 2.424 . S
O105 C90 1.268 . S
O106 Nd81 2.500 . S
O106 C91 1.258 . S
O107 Nd81 2.492 . S
O107 C91 1.239 . S
O108 Nd81 2.487 . S
O108 C98 1.241 . S
O109 Nd80 2.414 . S
O109 Nd81 2.682 . S
O109 C98 1.273 . S
O110 Nd81 2.410 . S
O110 C99 1.251 . S
O111 Nd80 2.424 . S
O111 C99 1.268 . S
H112 C84 0.930 . S
H113 C85 0.929 . S
H114 C87 0.930 . S
H115 C88 0.929 . S
H116 C93 0.930 . S
H117 C94 0.929 . S
H118 C96 0.930 . S
H119 C97 0.929 . S
Nd120 C122 2.836 . S
Nd120 O140 2.500 . S
Nd120 O141 2.492 . S
Nd120 O142 2.487 . S
Nd120 O143 2.682 . S
Nd120 O144 2.410 . S
Nd120 O149 2.414 . S
Nd120 O151 2.424 . S
Nd121 C131 2.836 . S
Nd121 O143 2.414 . S
Nd121 O145 2.424 . S
Nd121 O146 2.500 . S
Nd121 O147 2.492 . S
Nd121 O148 2.487 . S
Nd121 O149 2.682 . S
Nd121 O150 2.410 . S
C122 Nd120 2.836 . S
C122 C123 1.498 1_554 S
C122 O140 1.258 . S
C122 O141 1.239 . S
C123 C122 1.498 1_556 S
C123 C124 1.366 . S
C123 C128 1.407 . S
C124 C123 1.366 . S
C124 C125 1.392 . S
C124 H152 0.930 . S
C125 C124 1.392 . S
C125 C126 1.398 . S
C125 H153 0.929 . S
C126 C125 1.398 . S
C126 C127 1.352 . S
C127 C126 1.352 . S
C127 C128 1.384 . S
C127 H154 0.930 . S
C128 C123 1.407 . S
C128 C127 1.384 . S
C128 H155 0.929 . S
C129 O142 1.241 . S
C129 O143 1.273 . S
C130 O144 1.251 . S
C130 O145 1.268 . S
C131 Nd121 2.836 . S
C131 C132 1.498 . S
C131 O146 1.258 . S
C131 O147 1.239 . S
C132 C131 1.498 . S
C132 C133 1.366 . S
C132 C137 1.407 . S
C133 C132 1.366 . S
C133 C134 1.392 . S
C133 H156 0.930 . S
C134 C133 1.392 . S
C134 C135 1.398 . S
C134 H157 0.929 . S
C135 C134 1.398 . S
C135 C136 1.352 . S
C136 C135 1.352 . S
C136 C137 1.384 . S
C136 H158 0.930 . S
C137 C132 1.407 . S
C137 C136 1.384 . S
C137 H159 0.929 . S
C138 O148 1.241 . S
C138 O149 1.273 . S
C139 O150 1.251 . S
C139 O151 1.268 . S
O140 Nd120 2.500 . S
O140 C122 1.258 . S
O141 Nd120 2.492 . S
O141 C122 1.239 . S
O142 Nd120 2.487 . S
O142 C129 1.241 . S
O143 Nd120 2.682 . S
O143 Nd121 2.414 . S
O143 C129 1.273 . S
O144 Nd120 2.410 . S
O144 C130 1.251 . S
O145 Nd121 2.424 . S
O145 C130 1.268 . S
O146 Nd121 2.500 . S
O146 C131 1.258 . S
O147 Nd121 2.492 . S
O147 C131 1.239 . S
O148 Nd121 2.487 . S
O148 C138 1.241 . S
O149 Nd120 2.414 . S
O149 Nd121 2.682 . S
O149 C138 1.273 . S
O150 Nd121 2.410 . S
O150 C139 1.251 . S
O151 Nd120 2.424 . S
O151 C139 1.268 . S
H152 C124 0.930 . S
H153 C125 0.929 . S
H154 C127 0.930 . S
H155 C128 0.929 . S
H156 C133 0.930 . S
H157 C134 0.929 . S
H158 C136 0.930 . S
H159 C137 0.929 . S
Nd160 C162 2.836 . S
Nd160 O180 2.500 . S
Nd160 O181 2.492 . S
Nd160 O182 2.487 . S
Nd160 O183 2.682 . S
Nd160 O184 2.410 . S
Nd160 O189 2.414 . S
Nd160 O191 2.424 . S
Nd161 C171 2.836 . S
Nd161 O183 2.414 . S
Nd161 O185 2.424 . S
Nd161 O186 2.500 . S
Nd161 O187 2.492 . S
Nd161 O188 2.487 . S
Nd161 O189 2.682 . S
Nd161 O190 2.410 . S
C162 Nd160 2.836 . S
C162 C163 1.498 . S
C162 O180 1.258 . S
C162 O181 1.239 . S
C163 C162 1.498 . S
C163 C164 1.366 . S
C163 C168 1.407 . S
C164 C163 1.366 . S
C164 C165 1.392 . S
C164 H192 0.930 . S
C165 C164 1.392 . S
C165 C166 1.398 . S
C165 H193 0.929 . S
C166 C165 1.398 . S
C166 C167 1.352 . S
C167 C166 1.352 . S
C167 C168 1.384 . S
C167 H194 0.930 . S
C168 C163 1.407 . S
C168 C167 1.384 . S
C168 H195 0.929 . S
C169 O182 1.241 . S
C169 O183 1.273 . S
C170 O184 1.251 . S
C170 O185 1.268 . S
C171 Nd161 2.836 . S
C171 C172 1.498 . S
C171 O186 1.258 . S
C171 O187 1.239 . S
C172 C171 1.498 . S
C172 C173 1.366 . S
C172 C177 1.407 . S
C173 C172 1.366 . S
C173 C174 1.392 . S
C173 H196 0.930 . S
C174 C173 1.392 . S
C174 C175 1.398 . S
C174 H197 0.929 . S
C175 C174 1.398 . S
C175 C176 1.352 . S
C176 C175 1.352 . S
C176 C177 1.384 . S
C176 H198 0.930 . S
C177 C172 1.407 . S
C177 C176 1.384 . S
C177 H199 0.929 . S
C178 O188 1.241 . S
C178 O189 1.273 . S
C179 O190 1.251 . S
C179 O191 1.268 . S
O180 Nd160 2.500 . S
O180 C162 1.258 . S
O181 Nd160 2.492 . S
O181 C162 1.239 . S
O182 Nd160 2.487 . S
O182 C169 1.241 . S
O183 Nd160 2.682 . S
O183 Nd161 2.414 . S
O183 C169 1.273 . S
O184 Nd160 2.410 . S
O184 C170 1.251 . S
O185 Nd161 2.424 . S
O185 C170 1.268 . S
O186 Nd161 2.500 . S
O186 C171 1.258 . S
O187 Nd161 2.492 . S
O187 C171 1.239 . S
O188 Nd161 2.487 . S
O188 C178 1.241 . S
O189 Nd160 2.414 . S
O189 Nd161 2.682 . S
O189 C178 1.273 . S
O190 Nd161 2.410 . S
O190 C179 1.251 . S
O191 Nd160 2.424 . S
O191 C179 1.268 . S
H192 C164 0.930 . S
H193 C165 0.929 . S
H194 C167 0.930 . S
H195 C168 0.929 . S
H196 C173 0.930 . S
H197 C174 0.929 . S
H198 C176 0.930 . S
H199 C177 0.929 . S
Nd200 C202 2.836 . S
Nd200 O220 2.500 . S
Nd200 O221 2.492 . S
Nd200 O222 2.487 . S
Nd200 O223 2.682 . S
Nd200 O224 2.410 . S
Nd200 O229 2.414 . S
Nd200 O231 2.424 . S
Nd201 C211 2.836 . S
Nd201 O223 2.414 . S
Nd201 O225 2.424 . S
Nd201 O226 2.500 . S
Nd201 O227 2.492 . S
Nd201 O228 2.487 . S
Nd201 O229 2.682 . S
Nd201 O230 2.410 . S
C202 Nd200 2.836 . S
C202 C203 1.498 . S
C202 O220 1.258 . S
C202 O221 1.239 . S
C203 C202 1.498 . S
C203 C204 1.366 . S
C203 C208 1.407 . S
C204 C203 1.366 . S
C204 C205 1.392 . S
C204 H232 0.930 . S
C205 C204 1.392 . S
C205 C206 1.398 . S
C205 H233 0.929 . S
C206 C205 1.398 . S
C206 C207 1.352 . S
C207 C206 1.352 . S
C207 C208 1.384 . S
C207 H234 0.930 . S
C208 C203 1.407 . S
C208 C207 1.384 . S
C208 H235 0.929 . S
C209 O222 1.241 . S
C209 O223 1.273 . S
C210 O224 1.251 . S
C210 O225 1.268 . S
C211 Nd201 2.836 . S
C211 C212 1.498 . S
C211 O226 1.258 . S
C211 O227 1.239 . S
C212 C211 1.498 . S
C212 C213 1.366 . S
C212 C217 1.407 . S
C213 C212 1.366 . S
C213 C214 1.392 . S
C213 H236 0.930 . S
C214 C213 1.392 . S
C214 C215 1.398 . S
C214 H237 0.929 . S
C215 C214 1.398 . S
C215 C216 1.352 . S
C216 C215 1.352 . S
C216 C217 1.384 . S
C216 H238 0.930 . S
C217 C212 1.407 . S
C217 C216 1.384 . S
C217 H239 0.929 . S
C218 O228 1.241 . S
C218 O229 1.273 . S
C219 O230 1.251 . S
C219 O231 1.268 . S
O220 Nd200 2.500 . S
O220 C202 1.258 . S
O221 Nd200 2.492 . S
O221 C202 1.239 . S
O222 Nd200 2.487 . S
O222 C209 1.241 . S
O223 Nd200 2.682 . S
O223 Nd201 2.414 . S
O223 C209 1.273 . S
O224 Nd200 2.410 . S
O224 C210 1.251 . S
O225 Nd201 2.424 . S
O225 C210 1.268 . S
O226 Nd201 2.500 . S
O226 C211 1.258 . S
O227 Nd201 2.492 . S
O227 C211 1.239 . S
O228 Nd201 2.487 . S
O228 C218 1.241 . S
O229 Nd200 2.414 . S
O229 Nd201 2.682 . S
O229 C218 1.273 . S
O230 Nd201 2.410 . S
O230 C219 1.251 . S
O231 Nd200 2.424 . S
O231 C219 1.268 . S
H232 C204 0.930 . S
H233 C205 0.929 . S
H234 C207 0.930 . S
H235 C208 0.929 . S
H236 C213 0.930 . S
H237 C214 0.929 . S
H238 C216 0.930 . S
H239 C217 0.929 . S
Nd240 C242 2.836 . S
Nd240 O260 2.500 . S
Nd240 O261 2.492 . S
Nd240 O262 2.487 . S
Nd240 O263 2.682 . S
Nd240 O264 2.410 . S
Nd240 O269 2.414 . S
Nd240 O271 2.424 . S
Nd241 C251 2.836 . S
Nd241 O263 2.414 . S
Nd241 O265 2.424 . S
Nd241 O266 2.500 . S
Nd241 O267 2.492 . S
Nd241 O268 2.487 . S
Nd241 O269 2.682 . S
Nd241 O270 2.410 . S
C242 Nd240 2.836 . S
C242 C243 1.498 . S
C242 O260 1.258 . S
C242 O261 1.239 . S
C243 C242 1.498 . S
C243 C244 1.366 . S
C243 C248 1.407 . S
C244 C243 1.366 . S
C244 C245 1.392 . S
C244 H272 0.930 . S
C245 C244 1.392 . S
C245 C246 1.398 . S
C245 H273 0.929 . S
C246 C245 1.398 . S
C246 C247 1.352 . S
C247 C246 1.352 . S
C247 C248 1.384 . S
C247 H274 0.930 . S
C248 C243 1.407 . S
C248 C247 1.384 . S
C248 H275 0.929 . S
C249 O262 1.241 . S
C249 O263 1.273 . S
C250 O264 1.251 . S
C250 O265 1.268 . S
C251 Nd241 2.836 . S
C251 C252 1.498 . S
C251 O266 1.258 . S
C251 O267 1.239 . S
C252 C251 1.498 . S
C252 C253 1.366 . S
C252 C257 1.407 . S
C253 C252 1.366 . S
C253 C254 1.392 . S
C253 H276 0.930 . S
C254 C253 1.392 . S
C254 C255 1.398 . S
C254 H277 0.929 . S
C255 C254 1.398 . S
C255 C256 1.352 . S
C256 C255 1.352 . S
C256 C257 1.384 . S
C256 H278 0.930 . S
C257 C252 1.407 . S
C257 C256 1.384 . S
C257 H279 0.929 . S
C258 O268 1.241 . S
C258 O269 1.273 . S
C259 O270 1.251 . S
C259 O271 1.268 . S
O260 Nd240 2.500 . S
O260 C242 1.258 . S
O261 Nd240 2.492 . S
O261 C242 1.239 . S
O262 Nd240 2.487 . S
O262 C249 1.241 . S
O263 Nd240 2.682 . S
O263 Nd241 2.414 . S
O263 C249 1.273 . S
O264 Nd240 2.410 . S
O264 C250 1.251 . S
O265 Nd241 2.424 . S
O265 C250 1.268 . S
O266 Nd241 2.500 . S
O266 C251 1.258 . S
O267 Nd241 2.492 . S
O267 C251 1.239 . S
O268 Nd241 2.487 . S
O268 C258 1.241 . S
O269 Nd240 2.414 . S
O269 Nd241 2.682 . S
O269 C258 1.273 . S
O270 Nd241 2.410 . S
O270 C259 1.251 . S
O271 Nd240 2.424 . S
O271 C259 1.268 . S
H272 C244 0.930 . S
H273 C245 0.929 . S
H274 C247 0.930 . S
H275 C248 0.929 . S
H276 C253 0.930 . S
H277 C254 0.929 . S
H278 C256 0.930 . S
H279 C257 0.929 . S
Nd280 C282 2.836 . S
Nd280 O300 2.500 . S
Nd280 O301 2.492 . S
Nd280 O302 2.487 . S
Nd280 O303 2.682 . S
Nd280 O304 2.410 . S
Nd280 O309 2.414 . S
Nd280 O311 2.424 . S
Nd281 C291 2.836 . S
Nd281 O303 2.414 . S
Nd281 O305 2.424 . S
Nd281 O306 2.500 . S
Nd281 O307 2.492 . S
Nd281 O308 2.487 . S
Nd281 O309 2.682 . S
Nd281 O310 2.410 . S
C282 Nd280 2.836 . S
C282 C283 1.498 1_556 S
C282 O300 1.258 . S
C282 O301 1.239 . S
C283 C282 1.498 1_554 S
C283 C284 1.366 . S
C283 C288 1.407 . S
C284 C283 1.366 . S
C284 C285 1.392 . S
C284 H312 0.930 . S
C285 C284 1.392 . S
C285 C286 1.398 . S
C285 H313 0.929 . S
C286 C285 1.398 . S
C286 C287 1.352 . S
C287 C286 1.352 . S
C287 C288 1.384 . S
C287 H314 0.930 . S
C288 C283 1.407 . S
C288 C287 1.384 . S
C288 H315 0.929 . S
C289 O302 1.241 . S
C289 O303 1.273 . S
C290 O304 1.251 . S
C290 O305 1.268 . S
C291 Nd281 2.836 . S
C291 C292 1.498 . S
C291 O306 1.258 . S
C291 O307 1.239 . S
C292 C291 1.498 . S
C292 C293 1.366 . S
C292 C297 1.407 . S
C293 C292 1.366 . S
C293 C294 1.392 . S
C293 H316 0.930 . S
C294 C293 1.392 . S
C294 C295 1.398 . S
C294 H317 0.929 . S
C295 C294 1.398 . S
C295 C296 1.352 . S
C296 C295 1.352 . S
C296 C297 1.384 . S
C296 H318 0.930 . S
C297 C292 1.407 . S
C297 C296 1.384 . S
C297 H319 0.929 . S
C298 O308 1.241 . S
C298 O309 1.273 . S
C299 O310 1.251 . S
C299 O311 1.268 . S
O300 Nd280 2.500 . S
O300 C282 1.258 . S
O301 Nd280 2.492 . S
O301 C282 1.239 . S
O302 Nd280 2.487 . S
O302 C289 1.241 . S
O303 Nd280 2.682 . S
O303 Nd281 2.414 . S
O303 C289 1.273 . S
O304 Nd280 2.410 . S
O304 C290 1.251 . S
O305 Nd281 2.424 . S
O305 C290 1.268 . S
O306 Nd281 2.500 . S
O306 C291 1.258 . S
O307 Nd281 2.492 . S
O307 C291 1.239 . S
O308 Nd281 2.487 . S
O308 C298 1.241 . S
O309 Nd280 2.414 . S
O309 Nd281 2.682 . S
O309 C298 1.273 . S
O310 Nd281 2.410 . S
O310 C299 1.251 . S
O311 Nd280 2.424 . S
O311 C299 1.268 . S
H312 C284 0.930 . S
H313 C285 0.929 . S
H314 C287 0.930 . S
H315 C288 0.929 . S
H316 C293 0.930 . S
H317 C294 0.929 . S
H318 C296 0.930 . S
H319 C297 0.929 . S
Nd320 C322 2.836 . S
Nd320 O340 2.500 . S
Nd320 O341 2.492 . S
Nd320 O342 2.487 . S
Nd320 O343 2.682 . S
Nd320 O344 2.410 . S
Nd320 O349 2.414 . S
Nd320 O351 2.424 . S
Nd321 C331 2.836 . S
Nd321 O343 2.414 . S
Nd321 O345 2.424 . S
Nd321 O346 2.500 . S
Nd321 O347 2.492 . S
Nd321 O348 2.487 . S
Nd321 O349 2.682 . S
Nd321 O350 2.410 . S
C322 Nd320 2.836 . S
C322 C323 1.498 . S
C322 O340 1.258 . S
C322 O341 1.239 . S
C323 C322 1.498 . S
C323 C324 1.366 . S
C323 C328 1.407 . S
C324 C323 1.366 . S
C324 C325 1.392 . S
C324 H352 0.930 . S
C325 C324 1.392 . S
C325 C326 1.398 . S
C325 H353 0.929 . S
C326 C325 1.398 . S
C326 C327 1.352 . S
C327 C326 1.352 . S
C327 C328 1.384 . S
C327 H354 0.930 . S
C328 C323 1.407 . S
C328 C327 1.384 . S
C328 H355 0.929 . S
C329 O342 1.241 . S
C329 O343 1.273 . S
C330 O344 1.251 . S
C330 O345 1.268 . S
C331 Nd321 2.836 . S
C331 C332 1.498 . S
C331 O346 1.258 . S
C331 O347 1.239 . S
C332 C331 1.498 . S
C332 C333 1.366 . S
C332 C337 1.407 . S
C333 C332 1.366 . S
C333 C334 1.392 . S
C333 H356 0.930 . S
C334 C333 1.392 . S
C334 C335 1.398 . S
C334 H357 0.929 . S
C335 C334 1.398 . S
C335 C336 1.352 . S
C336 C335 1.352 . S
C336 C337 1.384 . S
C336 H358 0.930 . S
C337 C332 1.407 . S
C337 C336 1.384 . S
C337 H359 0.929 . S
C338 O348 1.241 . S
C338 O349 1.273 . S
C339 O350 1.251 . S
C339 O351 1.268 . S
O340 Nd320 2.500 . S
O340 C322 1.258 . S
O341 Nd320 2.492 . S
O341 C322 1.239 . S
O342 Nd320 2.487 . S
O342 C329 1.241 . S
O343 Nd320 2.682 . S
O343 Nd321 2.414 . S
O343 C329 1.273 . S
O344 Nd320 2.410 . S
O344 C330 1.251 . S
O345 Nd321 2.424 . S
O345 C330 1.268 . S
O346 Nd321 2.500 . S
O346 C331 1.258 . S
O347 Nd321 2.492 . S
O347 C331 1.239 . S
O348 Nd321 2.487 . S
O348 C338 1.241 . S
O349 Nd320 2.414 . S
O349 Nd321 2.682 . S
O349 C338 1.273 . S
O350 Nd321 2.410 . S
O350 C339 1.251 . S
O351 Nd320 2.424 . S
O351 C339 1.268 . S
H352 C324 0.930 . S
H353 C325 0.929 . S
H354 C327 0.930 . S
H355 C328 0.929 . S
H356 C333 0.930 . S
H357 C334 0.929 . S
H358 C336 0.930 . S
H359 C337 0.929 . S
Nd360 C362 2.836 . S
Nd360 O380 2.500 . S
Nd360 O381 2.492 . S
Nd360 O382 2.487 . S
Nd360 O383 2.682 . S
Nd360 O384 2.410 . S
Nd360 O389 2.414 . S
Nd360 O391 2.424 . S
Nd361 C371 2.836 . S
Nd361 O383 2.414 . S
Nd361 O385 2.424 . S
Nd361 O386 2.500 . S
Nd361 O387 2.492 . S
Nd361 O388 2.487 . S
Nd361 O389 2.682 . S
Nd361 O390 2.410 . S
C362 Nd360 2.836 . S
C362 C363 1.498 . S
C362 O380 1.258 . S
C362 O381 1.239 . S
C363 C362 1.498 . S
C363 C364 1.366 . S
C363 C368 1.407 . S
C364 C363 1.366 . S
C364 C365 1.392 . S
C364 H392 0.930 . S
C365 C364 1.392 . S
C365 C366 1.398 . S
C365 H393 0.929 . S
C366 C365 1.398 . S
C366 C367 1.352 . S
C367 C366 1.352 . S
C367 C368 1.384 . S
C367 H394 0.930 . S
C368 C363 1.407 . S
C368 C367 1.384 . S
C368 H395 0.929 . S
C369 O382 1.241 . S
C369 O383 1.273 . S
C370 O384 1.251 . S
C370 O385 1.268 . S
C371 Nd361 2.836 . S
C371 C372 1.498 . S
C371 O386 1.258 . S
C371 O387 1.239 . S
C372 C371 1.498 . S
C372 C373 1.366 . S
C372 C377 1.407 . S
C373 C372 1.366 . S
C373 C374 1.392 . S
C373 H396 0.930 . S
C374 C373 1.392 . S
C374 C375 1.398 . S
C374 H397 0.929 . S
C375 C374 1.398 . S
C375 C376 1.352 . S
C376 C375 1.352 . S
C376 C377 1.384 . S
C376 H398 0.930 . S
C377 C372 1.407 . S
C377 C376 1.384 . S
C377 H399 0.929 . S
C378 O388 1.241 . S
C378 O389 1.273 . S
C379 O390 1.251 . S
C379 O391 1.268 . S
O380 Nd360 2.500 . S
O380 C362 1.258 . S
O381 Nd360 2.492 . S
O381 C362 1.239 . S
O382 Nd360 2.487 . S
O382 C369 1.241 . S
O383 Nd360 2.682 . S
O383 Nd361 2.414 . S
O383 C369 1.273 . S
O384 Nd360 2.410 . S
O384 C370 1.251 . S
O385 Nd361 2.424 . S
O385 C370 1.268 . S
O386 Nd361 2.500 . S
O386 C371 1.258 . S
O387 Nd361 2.492 . S
O387 C371 1.239 . S
O388 Nd361 2.487 . S
O388 C378 1.241 . S
O389 Nd360 2.414 . S
O389 Nd361 2.682 . S
O389 C378 1.273 . S
O390 Nd361 2.410 . S
O390 C379 1.251 . S
O391 Nd360 2.424 . S
O391 C379 1.268 . S
H392 C364 0.930 . S
H393 C365 0.929 . S
H394 C367 0.930 . S
H395 C368 0.929 . S
H396 C373 0.930 . S
H397 C374 0.929 . S
H398 C376 0.930 . S
H399 C377 0.929 . S
Nd400 C402 2.836 . S
Nd400 O420 2.500 . S
Nd400 O421 2.492 . S
Nd400 O422 2.487 . S
Nd400 O423 2.682 . S
Nd400 O424 2.410 . S
Nd400 O429 2.414 . S
Nd400 O431 2.424 . S
Nd401 C411 2.836 . S
Nd401 O423 2.414 . S
Nd401 O425 2.424 . S
Nd401 O426 2.500 . S
Nd401 O427 2.492 . S
Nd401 O428 2.487 . S
Nd401 O429 2.682 . S
Nd401 O430 2.410 . S
C402 Nd400 2.836 . S
C402 C403 1.498 . S
C402 O420 1.258 . S
C402 O421 1.239 . S
C403 C402 1.498 . S
C403 C404 1.366 . S
C403 C408 1.407 . S
C404 C403 1.366 . S
C404 C405 1.392 . S
C404 H432 0.930 . S
C405 C404 1.392 . S
C405 C406 1.398 . S
C405 H433 0.929 . S
C406 C405 1.398 . S
C406 C407 1.352 . S
C407 C406 1.352 . S
C407 C408 1.384 . S
C407 H434 0.930 . S
C408 C403 1.407 . S
C408 C407 1.384 . S
C408 H435 0.929 . S
C409 O422 1.241 . S
C409 O423 1.273 . S
C410 O424 1.251 . S
C410 O425 1.268 . S
C411 Nd401 2.836 . S
C411 C412 1.498 . S
C411 O426 1.258 . S
C411 O427 1.239 . S
C412 C411 1.498 . S
C412 C413 1.366 . S
C412 C417 1.407 . S
C413 C412 1.366 . S
C413 C414 1.392 . S
C413 H436 0.930 . S
C414 C413 1.392 . S
C414 C415 1.398 . S
C414 H437 0.929 . S
C415 C414 1.398 . S
C415 C416 1.352 . S
C416 C415 1.352 . S
C416 C417 1.384 . S
C416 H438 0.930 . S
C417 C412 1.407 . S
C417 C416 1.384 . S
C417 H439 0.929 . S
C418 O428 1.241 . S
C418 O429 1.273 . S
C419 O430 1.251 . S
C419 O431 1.268 . S
O420 Nd400 2.500 . S
O420 C402 1.258 . S
O421 Nd400 2.492 . S
O421 C402 1.239 . S
O422 Nd400 2.487 . S
O422 C409 1.241 . S
O423 Nd400 2.682 . S
O423 Nd401 2.414 . S
O423 C409 1.273 . S
O424 Nd400 2.410 . S
O424 C410 1.251 . S
O425 Nd401 2.424 . S
O425 C410 1.268 . S
O426 Nd401 2.500 . S
O426 C411 1.258 . S
O427 Nd401 2.492 . S
O427 C411 1.239 . S
O428 Nd401 2.487 . S
O428 C418 1.241 . S
O429 Nd400 2.414 . S
O429 Nd401 2.682 . S
O429 C418 1.273 . S
O430 Nd401 2.410 . S
O430 C419 1.251 . S
O431 Nd400 2.424 . S
O431 C419 1.268 . S
H432 C404 0.930 . S
H433 C405 0.929 . S
H434 C407 0.930 . S
H435 C408 0.929 . S
H436 C413 0.930 . S
H437 C414 0.929 . S
H438 C416 0.930 . S
H439 C417 0.929 . S
Nd440 C442 2.836 . S
Nd440 O460 2.500 . S
Nd440 O461 2.492 . S
Nd440 O462 2.487 . S
Nd440 O463 2.682 . S
Nd440 O464 2.410 . S
Nd440 O469 2.414 . S
Nd440 O471 2.424 . S
Nd441 C451 2.836 . S
Nd441 O463 2.414 . S
Nd441 O465 2.424 . S
Nd441 O466 2.500 . S
Nd441 O467 2.492 . S
Nd441 O468 2.487 . S
Nd441 O469 2.682 . S
Nd441 O470 2.410 . S
C442 Nd440 2.836 . S
C442 C443 1.498 . S
C442 O460 1.258 . S
C442 O461 1.239 . S
C443 C442 1.498 . S
C443 C444 1.366 . S
C443 C448 1.407 . S
C444 C443 1.366 . S
C444 C445 1.392 . S
C444 H472 0.930 . S
C445 C444 1.392 . S
C445 C446 1.398 . S
C445 H473 0.929 . S
C446 C445 1.398 . S
C446 C447 1.352 . S
C447 C446 1.352 . S
C447 C448 1.384 . S
C447 H474 0.930 . S
C448 C443 1.407 . S
C448 C447 1.384 . S
C448 H475 0.929 . S
C449 O462 1.241 . S
C449 O463 1.273 . S
C450 O464 1.251 . S
C450 O465 1.268 . S
C451 Nd441 2.836 . S
C451 C452 1.498 1_556 S
C451 O466 1.258 . S
C451 O467 1.239 . S
C452 C451 1.498 1_554 S
C452 C453 1.366 . S
C452 C457 1.407 . S
C453 C452 1.366 . S
C453 C454 1.392 . S
C453 H476 0.930 . S
C454 C453 1.392 . S
C454 C455 1.398 . S
C454 H477 0.929 . S
C455 C454 1.398 . S
C455 C456 1.352 . S
C456 C455 1.352 . S
C456 C457 1.384 . S
C456 H478 0.930 . S
C457 C452 1.407 . S
C457 C456 1.384 . S
C457 H479 0.929 . S
C458 O468 1.241 . S
C458 O469 1.273 . S
C459 O470 1.251 . S
C459 O471 1.268 . S
O460 Nd440 2.500 . S
O460 C442 1.258 . S
O461 Nd440 2.492 . S
O461 C442 1.239 . S
O462 Nd440 2.487 . S
O462 C449 1.241 . S
O463 Nd440 2.682 . S
O463 Nd441 2.414 . S
O463 C449 1.273 . S
O464 Nd440 2.410 . S
O464 C450 1.251 . S
O465 Nd441 2.424 . S
O465 C450 1.268 . S
O466 Nd441 2.500 . S
O466 C451 1.258 . S
O467 Nd441 2.492 . S
O467 C451 1.239 . S
O468 Nd441 2.487 . S
O468 C458 1.241 . S
O469 Nd440 2.414 . S
O469 Nd441 2.682 . S
O469 C458 1.273 . S
O470 Nd441 2.410 . S
O470 C459 1.251 . S
O471 Nd440 2.424 . S
O471 C459 1.268 . S
H472 C444 0.930 . S
H473 C445 0.929 . S
H474 C447 0.930 . S
H475 C448 0.929 . S
H476 C453 0.930 . S
H477 C454 0.929 . S
H478 C456 0.930 . S
H479 C457 0.929 . S
Nd480 C482 2.836 . S
Nd480 O500 2.500 . S
Nd480 O501 2.492 . S
Nd480 O502 2.487 . S
Nd480 O503 2.682 . S
Nd480 O504 2.410 . S
Nd480 O509 2.414 . S
Nd480 O511 2.424 . S
Nd481 C491 2.836 . S
Nd481 O503 2.414 . S
Nd481 O505 2.424 . S
Nd481 O506 2.500 . S
Nd481 O507 2.492 . S
Nd481 O508 2.487 . S
Nd481 O509 2.682 . S
Nd481 O510 2.410 . S
C482 Nd480 2.836 . S
C482 C483 1.498 . S
C482 O500 1.258 . S
C482 O501 1.239 . S
C483 C482 1.498 . S
C483 C484 1.366 . S
C483 C488 1.407 . S
C484 C483 1.366 . S
C484 C485 1.392 . S
C484 H512 0.930 . S
C485 C484 1.392 . S
C485 C486 1.398 . S
C485 H513 0.929 . S
C486 C485 1.398 . S
C486 C487 1.352 . S
C487 C486 1.352 . S
C487 C488 1.384 . S
C487 H514 0.930 . S
C488 C483 1.407 . S
C488 C487 1.384 . S
C488 H515 0.929 . S
C489 O502 1.241 . S
C489 O503 1.273 . S
C490 O504 1.251 . S
C490 O505 1.268 . S
C491 Nd481 2.836 . S
C491 C492 1.498 . S
C491 O506 1.258 . S
C491 O507 1.239 . S
C492 C491 1.498 . S
C492 C493 1.366 . S
C492 C497 1.407 . S
C493 C492 1.366 . S
C493 C494 1.392 . S
C493 H516 0.930 . S
C494 C493 1.392 . S
C494 C495 1.398 . S
C494 H517 0.929 . S
C495 C494 1.398 . S
C495 C496 1.352 . S
C496 C495 1.352 . S
C496 C497 1.384 . S
C496 H518 0.930 . S
C497 C492 1.407 . S
C497 C496 1.384 . S
C497 H519 0.929 . S
C498 O508 1.241 . S
C498 O509 1.273 . S
C499 O510 1.251 . S
C499 O511 1.268 . S
O500 Nd480 2.500 . S
O500 C482 1.258 . S
O501 Nd480 2.492 . S
O501 C482 1.239 . S
O502 Nd480 2.487 . S
O502 C489 1.241 . S
O503 Nd480 2.682 . S
O503 Nd481 2.414 . S
O503 C489 1.273 . S
O504 Nd480 2.410 . S
O504 C490 1.251 . S
O505 Nd481 2.424 . S
O505 C490 1.268 . S
O506 Nd481 2.500 . S
O506 C491 1.258 . S
O507 Nd481 2.492 . S
O507 C491 1.239 . S
O508 Nd481 2.487 . S
O508 C498 1.241 . S
O509 Nd480 2.414 . S
O509 Nd481 2.682 . S
O509 C498 1.273 . S
O510 Nd481 2.410 . S
O510 C499 1.251 . S
O511 Nd480 2.424 . S
O511 C499 1.268 . S
H512 C484 0.930 . S
H513 C485 0.929 . S
H514 C487 0.930 . S
H515 C488 0.929 . S
H516 C493 0.930 . S
H517 C494 0.929 . S
H518 C496 0.930 . S
H519 C497 0.929 . S
Nd520 C522 2.836 . S
Nd520 O540 2.500 . S
Nd520 O541 2.492 . S
Nd520 O542 2.487 . S
Nd520 O543 2.682 . S
Nd520 O544 2.410 . S
Nd520 O549 2.414 . S
Nd520 O551 2.424 . S
Nd521 C531 2.836 . S
Nd521 O543 2.414 . S
Nd521 O545 2.424 . S
Nd521 O546 2.500 . S
Nd521 O547 2.492 . S
Nd521 O548 2.487 . S
Nd521 O549 2.682 . S
Nd521 O550 2.410 . S
C522 Nd520 2.836 . S
C522 C523 1.498 . S
C522 O540 1.258 . S
C522 O541 1.239 . S
C523 C522 1.498 . S
C523 C524 1.366 . S
C523 C528 1.407 . S
C524 C523 1.366 . S
C524 C525 1.392 . S
C524 H552 0.930 . S
C525 C524 1.392 . S
C525 C526 1.398 . S
C525 H553 0.929 . S
C526 C525 1.398 . S
C526 C527 1.352 . S
C527 C526 1.352 . S
C527 C528 1.384 . S
C527 H554 0.930 . S
C528 C523 1.407 . S
C528 C527 1.384 . S
C528 H555 0.929 . S
C529 O542 1.241 . S
C529 O543 1.273 . S
C530 O544 1.251 . S
C530 O545 1.268 . S
C531 Nd521 2.836 . S
C531 C532 1.498 . S
C531 O546 1.258 . S
C531 O547 1.239 . S
C532 C531 1.498 . S
C532 C533 1.366 . S
C532 C537 1.407 . S
C533 C532 1.366 . S
C533 C534 1.392 . S
C533 H556 0.930 . S
C534 C533 1.392 . S
C534 C535 1.398 . S
C534 H557 0.929 . S
C535 C534 1.398 . S
C535 C536 1.352 . S
C536 C535 1.352 . S
C536 C537 1.384 . S
C536 H558 0.930 . S
C537 C532 1.407 . S
C537 C536 1.384 . S
C537 H559 0.929 . S
C538 O548 1.241 . S
C538 O549 1.273 . S
C539 O550 1.251 . S
C539 O551 1.268 . S
O540 Nd520 2.500 . S
O540 C522 1.258 . S
O541 Nd520 2.492 . S
O541 C522 1.239 . S
O542 Nd520 2.487 . S
O542 C529 1.241 . S
O543 Nd520 2.682 . S
O543 Nd521 2.414 . S
O543 C529 1.273 . S
O544 Nd520 2.410 . S
O544 C530 1.251 . S
O545 Nd521 2.424 . S
O545 C530 1.268 . S
O546 Nd521 2.500 . S
O546 C531 1.258 . S
O547 Nd521 2.492 . S
O547 C531 1.239 . S
O548 Nd521 2.487 . S
O548 C538 1.241 . S
O549 Nd520 2.414 . S
O549 Nd521 2.682 . S
O549 C538 1.273 . S
O550 Nd521 2.410 . S
O550 C539 1.251 . S
O551 Nd520 2.424 . S
O551 C539 1.268 . S
H552 C524 0.930 . S
H553 C525 0.929 . S
H554 C527 0.930 . S
H555 C528 0.929 . S
H556 C533 0.930 . S
H557 C534 0.929 . S
H558 C536 0.930 . S
H559 C537 0.929 . S
Nd560 C562 2.836 . S
Nd560 O580 2.500 . S
Nd560 O581 2.492 . S
Nd560 O582 2.487 . S
Nd560 O583 2.682 . S
Nd560 O584 2.410 . S
Nd560 O589 2.414 . S
Nd560 O591 2.424 . S
Nd561 C571 2.836 . S
Nd561 O583 2.414 . S
Nd561 O585 2.424 . S
Nd561 O586 2.500 . S
Nd561 O587 2.492 . S
Nd561 O588 2.487 . S
Nd561 O589 2.682 . S
Nd561 O590 2.410 . S
C562 Nd560 2.836 . S
C562 C563 1.498 . S
C562 O580 1.258 . S
C562 O581 1.239 . S
C563 C562 1.498 . S
C563 C564 1.366 . S
C563 C568 1.407 . S
C564 C563 1.366 . S
C564 C565 1.392 . S
C564 H592 0.930 . S
C565 C564 1.392 . S
C565 C566 1.398 . S
C565 H593 0.929 . S
C566 C565 1.398 . S
C566 C567 1.352 . S
C567 C566 1.352 . S
C567 C568 1.384 . S
C567 H594 0.930 . S
C568 C563 1.407 . S
C568 C567 1.384 . S
C568 H595 0.929 . S
C569 O582 1.241 . S
C569 O583 1.273 . S
C570 O584 1.251 . S
C570 O585 1.268 . S
C571 Nd561 2.836 . S
C571 C572 1.498 . S
C571 O586 1.258 . S
C571 O587 1.239 . S
C572 C571 1.498 . S
C572 C573 1.366 . S
C572 C577 1.407 . S
C573 C572 1.366 . S
C573 C574 1.392 . S
C573 H596 0.930 . S
C574 C573 1.392 . S
C574 C575 1.398 . S
C574 H597 0.929 . S
C575 C574 1.398 . S
C575 C576 1.352 . S
C576 C575 1.352 . S
C576 C577 1.384 . S
C576 H598 0.930 . S
C577 C572 1.407 . S
C577 C576 1.384 . S
C577 H599 0.929 . S
C578 O588 1.241 . S
C578 O589 1.273 . S
C579 O590 1.251 . S
C579 O591 1.268 . S
O580 Nd560 2.500 . S
O580 C562 1.258 . S
O581 Nd560 2.492 . S
O581 C562 1.239 . S
O582 Nd560 2.487 . S
O582 C569 1.241 . S
O583 Nd560 2.682 . S
O583 Nd561 2.414 . S
O583 C569 1.273 . S
O584 Nd560 2.410 . S
O584 C570 1.251 . S
O585 Nd561 2.424 . S
O585 C570 1.268 . S
O586 Nd561 2.500 . S
O586 C571 1.258 . S
O587 Nd561 2.492 . S
O587 C571 1.239 . S
O588 Nd561 2.487 . S
O588 C578 1.241 . S
O589 Nd560 2.414 . S
O589 Nd561 2.682 . S
O589 C578 1.273 . S
O590 Nd561 2.410 . S
O590 C579 1.251 . S
O591 Nd560 2.424 . S
O591 C579 1.268 . S
H592 C564 0.930 . S
H593 C565 0.929 . S
H594 C567 0.930 . S
H595 C568 0.929 . S
H596 C573 0.930 . S
H597 C574 0.929 . S
H598 C576 0.930 . S
H599 C577 0.929 . S
Nd600 C602 2.836 . S
Nd600 O620 2.500 . S
Nd600 O621 2.492 . S
Nd600 O622 2.487 . S
Nd600 O623 2.682 . S
Nd600 O624 2.410 . S
Nd600 O629 2.414 . S
Nd600 O631 2.424 . S
Nd601 C611 2.836 . S
Nd601 O623 2.414 . S
Nd601 O625 2.424 . S
Nd601 O626 2.500 . S
Nd601 O627 2.492 . S
Nd601 O628 2.487 . S
Nd601 O629 2.682 . S
Nd601 O630 2.410 . S
C602 Nd600 2.836 . S
C602 C603 1.498 . S
C602 O620 1.258 . S
C602 O621 1.239 . S
C603 C602 1.498 . S
C603 C604 1.366 . S
C603 C608 1.407 . S
C604 C603 1.366 . S
C604 C605 1.392 . S
C604 H632 0.930 . S
C605 C604 1.392 . S
C605 C606 1.398 . S
C605 H633 0.929 . S
C606 C605 1.398 . S
C606 C607 1.352 . S
C607 C606 1.352 . S
C607 C608 1.384 . S
C607 H634 0.930 . S
C608 C603 1.407 . S
C608 C607 1.384 . S
C608 H635 0.929 . S
C609 O622 1.241 . S
C609 O623 1.273 . S
C610 O624 1.251 . S
C610 O625 1.268 . S
C611 Nd601 2.836 . S
C611 C612 1.498 1_554 S
C611 O626 1.258 . S
C611 O627 1.239 . S
C612 C611 1.498 1_556 S
C612 C613 1.366 . S
C612 C617 1.407 . S
C613 C612 1.366 . S
C613 C614 1.392 . S
C613 H636 0.930 . S
C614 C613 1.392 . S
C614 C615 1.398 . S
C614 H637 0.929 . S
C615 C614 1.398 . S
C615 C616 1.352 . S
C616 C615 1.352 . S
C616 C617 1.384 . S
C616 H638 0.930 . S
C617 C612 1.407 . S
C617 C616 1.384 . S
C617 H639 0.929 . S
C618 O628 1.241 . S
C618 O629 1.273 . S
C619 O630 1.251 . S
C619 O631 1.268 . S
O620 Nd600 2.500 . S
O620 C602 1.258 . S
O621 Nd600 2.492 . S
O621 C602 1.239 . S
O622 Nd600 2.487 . S
O622 C609 1.241 . S
O623 Nd600 2.682 . S
O623 Nd601 2.414 . S
O623 C609 1.273 . S
O624 Nd600 2.410 . S
O624 C610 1.251 . S
O625 Nd601 2.424 . S
O625 C610 1.268 . S
O626 Nd601 2.500 . S
O626 C611 1.258 . S
O627 Nd601 2.492 . S
O627 C611 1.239 . S
O628 Nd601 2.487 . S
O628 C618 1.241 . S
O629 Nd600 2.414 . S
O629 Nd601 2.682 . S
O629 C618 1.273 . S
O630 Nd601 2.410 . S
O630 C619 1.251 . S
O631 Nd600 2.424 . S
O631 C619 1.268 . S
H632 C604 0.930 . S
H633 C605 0.929 . S
H634 C607 0.930 . S
H635 C608 0.929 . S
H636 C613 0.930 . S
H637 C614 0.929 . S
H638 C616 0.930 . S
H639 C617 0.929 . S
Nd640 C642 2.836 . S
Nd640 O660 2.500 . S
Nd640 O661 2.492 . S
Nd640 O662 2.487 . S
Nd640 O663 2.682 . S
Nd640 O664 2.410 . S
Nd640 O669 2.414 . S
Nd640 O671 2.424 . S
Nd641 C651 2.836 . S
Nd641 O663 2.414 . S
Nd641 O665 2.424 . S
Nd641 O666 2.500 . S
Nd641 O667 2.492 . S
Nd641 O668 2.487 . S
Nd641 O669 2.682 . S
Nd641 O670 2.410 . S
C642 Nd640 2.836 . S
C642 C643 1.498 . S
C642 O660 1.258 . S
C642 O661 1.239 . S
C643 C642 1.498 . S
C643 C644 1.366 . S
C643 C648 1.407 . S
C644 C643 1.366 . S
C644 C645 1.392 . S
C644 H672 0.930 . S
C645 C644 1.392 . S
C645 C646 1.398 . S
C645 H673 0.929 . S
C646 C645 1.398 . S
C646 C647 1.352 . S
C647 C646 1.352 . S
C647 C648 1.384 . S
C647 H674 0.930 . S
C648 C643 1.407 . S
C648 C647 1.384 . S
C648 H675 0.929 . S
C649 O662 1.241 . S
C649 O663 1.273 . S
C650 O664 1.251 . S
C650 O665 1.268 . S
C651 Nd641 2.836 . S
C651 C652 1.498 . S
C651 O666 1.258 . S
C651 O667 1.239 . S
C652 C651 1.498 . S
C652 C653 1.366 . S
C652 C657 1.407 . S
C653 C652 1.366 . S
C653 C654 1.392 . S
C653 H676 0.930 . S
C654 C653 1.392 . S
C654 C655 1.398 . S
C654 H677 0.929 . S
C655 C654 1.398 . S
C655 C656 1.352 . S
C656 C655 1.352 . S
C656 C657 1.384 . S
C656 H678 0.930 . S
C657 C652 1.407 . S
C657 C656 1.384 . S
C657 H679 0.929 . S
C658 O668 1.241 . S
C658 O669 1.273 . S
C659 O670 1.251 . S
C659 O671 1.268 . S
O660 Nd640 2.500 . S
O660 C642 1.258 . S
O661 Nd640 2.492 . S
O661 C642 1.239 . S
O662 Nd640 2.487 . S
O662 C649 1.241 . S
O663 Nd640 2.682 . S
O663 Nd641 2.414 . S
O663 C649 1.273 . S
O664 Nd640 2.410 . S
O664 C650 1.251 . S
O665 Nd641 2.424 . S
O665 C650 1.268 . S
O666 Nd641 2.500 . S
O666 C651 1.258 . S
O667 Nd641 2.492 . S
O667 C651 1.239 . S
O668 Nd641 2.487 . S
O668 C658 1.241 . S
O669 Nd640 2.414 . S
O669 Nd641 2.682 . S
O669 C658 1.273 . S
O670 Nd641 2.410 . S
O670 C659 1.251 . S
O671 Nd640 2.424 . S
O671 C659 1.268 . S
H672 C644 0.930 . S
H673 C645 0.929 . S
H674 C647 0.930 . S
H675 C648 0.929 . S
H676 C653 0.930 . S
H677 C654 0.929 . S
H678 C656 0.930 . S
H679 C657 0.929 . S
Nd680 C682 2.836 . S
Nd680 O700 2.500 . S
Nd680 O701 2.492 . S
Nd680 O702 2.487 . S
Nd680 O703 2.682 . S
Nd680 O704 2.410 . S
Nd680 O709 2.414 . S
Nd680 O711 2.424 . S
Nd681 C691 2.836 . S
Nd681 O703 2.414 . S
Nd681 O705 2.424 . S
Nd681 O706 2.500 . S
Nd681 O707 2.492 . S
Nd681 O708 2.487 . S
Nd681 O709 2.682 . S
Nd681 O710 2.410 . S
C682 Nd680 2.836 . S
C682 C683 1.498 1_554 S
C682 O700 1.258 . S
C682 O701 1.239 . S
C683 C682 1.498 1_556 S
C683 C684 1.366 . S
C683 C688 1.407 . S
C684 C683 1.366 . S
C684 C685 1.392 . S
C684 H712 0.930 . S
C685 C684 1.392 . S
C685 C686 1.398 . S
C685 H713 0.929 . S
C686 C685 1.398 . S
C686 C687 1.352 . S
C687 C686 1.352 . S
C687 C688 1.384 . S
C687 H714 0.930 . S
C688 C683 1.407 . S
C688 C687 1.384 . S
C688 H715 0.929 . S
C689 O702 1.241 . S
C689 O703 1.273 . S
C690 O704 1.251 . S
C690 O705 1.268 . S
C691 Nd681 2.836 . S
C691 C692 1.498 . S
C691 O706 1.258 . S
C691 O707 1.239 . S
C692 C691 1.498 . S
C692 C693 1.366 . S
C692 C697 1.407 . S
C693 C692 1.366 . S
C693 C694 1.392 . S
C693 H716 0.930 . S
C694 C693 1.392 . S
C694 C695 1.398 . S
C694 H717 0.929 . S
C695 C694 1.398 . S
C695 C696 1.352 . S
C696 C695 1.352 . S
C696 C697 1.384 . S
C696 H718 0.930 . S
C697 C692 1.407 . S
C697 C696 1.384 . S
C697 H719 0.929 . S
C698 O708 1.241 . S
C698 O709 1.273 . S
C699 O710 1.251 . S
C699 O711 1.268 . S
O700 Nd680 2.500 . S
O700 C682 1.258 . S
O701 Nd680 2.492 . S
O701 C682 1.239 . S
O702 Nd680 2.487 . S
O702 C689 1.241 . S
O703 Nd680 2.682 . S
O703 Nd681 2.414 . S
O703 C689 1.273 . S
O704 Nd680 2.410 . S
O704 C690 1.251 . S
O705 Nd681 2.424 . S
O705 C690 1.268 . S
O706 Nd681 2.500 . S
O706 C691 1.258 . S
O707 Nd681 2.492 . S
O707 C691 1.239 . S
O708 Nd681 2.487 . S
O708 C698 1.241 . S
O709 Nd680 2.414 . S
O709 Nd681 2.682 . S
O709 C698 1.273 . S
O710 Nd681 2.410 . S
O710 C699 1.251 . S
O711 Nd680 2.424 . S
O711 C699 1.268 . S
H712 C684 0.930 . S
H713 C685 0.929 . S
H714 C687 0.930 . S
H715 C688 0.929 . S
H716 C693 0.930 . S
H717 C694 0.929 . S
H718 C696 0.930 . S
H719 C697 0.929 . S
Nd720 C722 2.836 . S
Nd720 O740 2.500 . S
Nd720 O741 2.492 . S
Nd720 O742 2.487 . S
Nd720 O743 2.682 . S
Nd720 O744 2.410 . S
Nd720 O749 2.414 . S
Nd720 O751 2.424 . S
Nd721 C731 2.836 . S
Nd721 O743 2.414 . S
Nd721 O745 2.424 . S
Nd721 O746 2.500 . S
Nd721 O747 2.492 . S
Nd721 O748 2.487 . S
Nd721 O749 2.682 . S
Nd721 O750 2.410 . S
C722 Nd720 2.836 . S
C722 C723 1.498 . S
C722 O740 1.258 . S
C722 O741 1.239 . S
C723 C722 1.498 . S
C723 C724 1.366 . S
C723 C728 1.407 . S
C724 C723 1.366 . S
C724 C725 1.392 . S
C724 H752 0.930 . S
C725 C724 1.392 . S
C725 C726 1.398 . S
C725 H753 0.929 . S
C726 C725 1.398 . S
C726 C727 1.352 . S
C727 C726 1.352 . S
C727 C728 1.384 . S
C727 H754 0.930 . S
C728 C723 1.407 . S
C728 C727 1.384 . S
C728 H755 0.929 . S
C729 O742 1.241 . S
C729 O743 1.273 . S
C730 O744 1.251 . S
C730 O745 1.268 . S
C731 Nd721 2.836 . S
C731 C732 1.498 . S
C731 O746 1.258 . S
C731 O747 1.239 . S
C732 C731 1.498 . S
C732 C733 1.366 . S
C732 C737 1.407 . S
C733 C732 1.366 . S
C733 C734 1.392 . S
C733 H756 0.930 . S
C734 C733 1.392 . S
C734 C735 1.398 . S
C734 H757 0.929 . S
C735 C734 1.398 . S
C735 C736 1.352 . S
C736 C735 1.352 . S
C736 C737 1.384 . S
C736 H758 0.930 . S
C737 C732 1.407 . S
C737 C736 1.384 . S
C737 H759 0.929 . S
C738 O748 1.241 . S
C738 O749 1.273 . S
C739 O750 1.251 . S
C739 O751 1.268 . S
O740 Nd720 2.500 . S
O740 C722 1.258 . S
O741 Nd720 2.492 . S
O741 C722 1.239 . S
O742 Nd720 2.487 . S
O742 C729 1.241 . S
O743 Nd720 2.682 . S
O743 Nd721 2.414 . S
O743 C729 1.273 . S
O744 Nd720 2.410 . S
O744 C730 1.251 . S
O745 Nd721 2.424 . S
O745 C730 1.268 . S
O746 Nd721 2.500 . S
O746 C731 1.258 . S
O747 Nd721 2.492 . S
O747 C731 1.239 . S
O748 Nd721 2.487 . S
O748 C738 1.241 . S
O749 Nd720 2.414 . S
O749 Nd721 2.682 . S
O749 C738 1.273 . S
O750 Nd721 2.410 . S
O750 C739 1.251 . S
O751 Nd720 2.424 . S
O751 C739 1.268 . S
H752 C724 0.930 . S
H753 C725 0.929 . S
H754 C727 0.930 . S
H755 C728 0.929 . S
H756 C733 0.930 . S
H757 C734 0.929 . S
H758 C736 0.930 . S
H759 C737 0.929 . S
Nd760 C762 2.836 . S
Nd760 O780 2.500 . S
Nd760 O781 2.492 . S
Nd760 O782 2.487 . S
Nd760 O783 2.682 . S
Nd760 O784 2.410 . S
Nd760 O789 2.414 . S
Nd760 O791 2.424 . S
Nd761 C771 2.836 . S
Nd761 O783 2.414 . S
Nd761 O785 2.424 . S
Nd761 O786 2.500 . S
Nd761 O787 2.492 . S
Nd761 O788 2.487 . S
Nd761 O789 2.682 . S
Nd761 O790 2.410 . S
C762 Nd760 2.836 . S
C762 C763 1.498 . S
C762 O780 1.258 . S
C762 O781 1.239 . S
C763 C762 1.498 . S
C763 C764 1.366 . S
C763 C768 1.407 . S
C764 C763 1.366 . S
C764 C765 1.392 . S
C764 H792 0.930 . S
C765 C764 1.392 . S
C765 C766 1.398 . S
C765 H793 0.929 . S
C766 C765 1.398 . S
C766 C767 1.352 . S
C767 C766 1.352 . S
C767 C768 1.384 . S
C767 H794 0.930 . S
C768 C763 1.407 . S
C768 C767 1.384 . S
C768 H795 0.929 . S
C769 O782 1.241 . S
C769 O783 1.273 . S
C770 O784 1.251 . S
C770 O785 1.268 . S
C771 Nd761 2.836 . S
C771 C772 1.498 . S
C771 O786 1.258 . S
C771 O787 1.239 . S
C772 C771 1.498 . S
C772 C773 1.366 . S
C772 C777 1.407 . S
C773 C772 1.366 . S
C773 C774 1.392 . S
C773 H796 0.930 . S
C774 C773 1.392 . S
C774 C775 1.398 . S
C774 H797 0.929 . S
C775 C774 1.398 . S
C775 C776 1.352 . S
C776 C775 1.352 . S
C776 C777 1.384 . S
C776 H798 0.930 . S
C777 C772 1.407 . S
C777 C776 1.384 . S
C777 H799 0.929 . S
C778 O788 1.241 . S
C778 O789 1.273 . S
C779 O790 1.251 . S
C779 O791 1.268 . S
O780 Nd760 2.500 . S
O780 C762 1.258 . S
O781 Nd760 2.492 . S
O781 C762 1.239 . S
O782 Nd760 2.487 . S
O782 C769 1.241 . S
O783 Nd760 2.682 . S
O783 Nd761 2.414 . S
O783 C769 1.273 . S
O784 Nd760 2.410 . S
O784 C770 1.251 . S
O785 Nd761 2.424 . S
O785 C770 1.268 . S
O786 Nd761 2.500 . S
O786 C771 1.258 . S
O787 Nd761 2.492 . S
O787 C771 1.239 . S
O788 Nd761 2.487 . S
O788 C778 1.241 . S
O789 Nd760 2.414 . S
O789 Nd761 2.682 . S
O789 C778 1.273 . S
O790 Nd761 2.410 . S
O790 C779 1.251 . S
O791 Nd760 2.424 . S
O791 C779 1.268 . S
H792 C764 0.930 . S
H793 C765 0.929 . S
H794 C767 0.930 . S
H795 C768 0.929 . S
H796 C773 0.930 . S
H797 C774 0.929 . S
H798 C776 0.930 . S
H799 C777 0.929 . S
Nd800 C802 2.836 . S
Nd800 O820 2.500 . S
Nd800 O821 2.492 . S
Nd800 O822 2.487 . S
Nd800 O823 2.682 . S
Nd800 O824 2.410 . S
Nd800 O829 2.414 . S
Nd800 O831 2.424 . S
Nd801 C811 2.836 . S
Nd801 O823 2.414 . S
Nd801 O825 2.424 . S
Nd801 O826 2.500 . S
Nd801 O827 2.492 . S
Nd801 O828 2.487 . S
Nd801 O829 2.682 . S
Nd801 O830 2.410 . S
C802 Nd800 2.836 . S
C802 C803 1.498 . S
C802 O820 1.258 . S
C802 O821 1.239 . S
C803 C802 1.498 . S
C803 C804 1.366 . S
C803 C808 1.407 . S
C804 C803 1.366 . S
C804 C805 1.392 . S
C804 H832 0.930 . S
C805 C804 1.392 . S
C805 C806 1.398 . S
C805 H833 0.929 . S
C806 C805 1.398 . S
C806 C807 1.352 . S
C807 C806 1.352 . S
C807 C808 1.384 . S
C807 H834 0.930 . S
C808 C803 1.407 . S
C808 C807 1.384 . S
C808 H835 0.929 . S
C809 O822 1.241 . S
C809 O823 1.273 . S
C810 O824 1.251 . S
C810 O825 1.268 . S
C811 Nd801 2.836 . S
C811 C812 1.498 . S
C811 O826 1.258 . S
C811 O827 1.239 . S
C812 C811 1.498 . S
C812 C813 1.366 . S
C812 C817 1.407 . S
C813 C812 1.366 . S
C813 C814 1.392 . S
C813 H836 0.930 . S
C814 C813 1.392 . S
C814 C815 1.398 . S
C814 H837 0.929 . S
C815 C814 1.398 . S
C815 C816 1.352 . S
C816 C815 1.352 . S
C816 C817 1.384 . S
C816 H838 0.930 . S
C817 C812 1.407 . S
C817 C816 1.384 . S
C817 H839 0.929 . S
C818 O828 1.241 . S
C818 O829 1.273 . S
C819 O830 1.251 . S
C819 O831 1.268 . S
O820 Nd800 2.500 . S
O820 C802 1.258 . S
O821 Nd800 2.492 . S
O821 C802 1.239 . S
O822 Nd800 2.487 . S
O822 C809 1.241 . S
O823 Nd800 2.682 . S
O823 Nd801 2.414 . S
O823 C809 1.273 . S
O824 Nd800 2.410 . S
O824 C810 1.251 . S
O825 Nd801 2.424 . S
O825 C810 1.268 . S
O826 Nd801 2.500 . S
O826 C811 1.258 . S
O827 Nd801 2.492 . S
O827 C811 1.239 . S
O828 Nd801 2.487 . S
O828 C818 1.241 . S
O829 Nd800 2.414 . S
O829 Nd801 2.682 . S
O829 C818 1.273 . S
O830 Nd801 2.410 . S
O830 C819 1.251 . S
O831 Nd800 2.424 . S
O831 C819 1.268 . S
H832 C804 0.930 . S
H833 C805 0.929 . S
H834 C807 0.930 . S
H835 C808 0.929 . S
H836 C813 0.930 . S
H837 C814 0.929 . S
H838 C816 0.930 . S
H839 C817 0.929 . S
Nd840 C842 2.836 . S
Nd840 O860 2.500 . S
Nd840 O861 2.492 . S
Nd840 O862 2.487 . S
Nd840 O863 2.682 . S
Nd840 O864 2.410 . S
Nd840 O869 2.414 . S
Nd840 O871 2.424 . S
Nd841 C851 2.836 . S
Nd841 O863 2.414 . S
Nd841 O865 2.424 . S
Nd841 O866 2.500 . S
Nd841 O867 2.492 . S
Nd841 O868 2.487 . S
Nd841 O869 2.682 . S
Nd841 O870 2.410 . S
C842 Nd840 2.836 . S
C842 C843 1.498 1_556 S
C842 O860 1.258 . S
C842 O861 1.239 . S
C843 C842 1.498 1_554 S
C843 C844 1.366 . S
C843 C848 1.407 . S
C844 C843 1.366 . S
C844 C845 1.392 . S
C844 H872 0.930 . S
C845 C844 1.392 . S
C845 C846 1.398 . S
C845 H873 0.929 . S
C846 C845 1.398 . S
C846 C847 1.352 . S
C847 C846 1.352 . S
C847 C848 1.384 . S
C847 H874 0.930 . S
C848 C843 1.407 . S
C848 C847 1.384 . S
C848 H875 0.929 . S
C849 O862 1.241 . S
C849 O863 1.273 . S
C850 O864 1.251 . S
C850 O865 1.268 . S
C851 Nd841 2.836 . S
C851 C852 1.498 . S
C851 O866 1.258 . S
C851 O867 1.239 . S
C852 C851 1.498 . S
C852 C853 1.366 . S
C852 C857 1.407 . S
C853 C852 1.366 . S
C853 C854 1.392 . S
C853 H876 0.930 . S
C854 C853 1.392 . S
C854 C855 1.398 . S
C854 H877 0.929 . S
C855 C854 1.398 . S
C855 C856 1.352 . S
C856 C855 1.352 . S
C856 C857 1.384 . S
C856 H878 0.930 . S
C857 C852 1.407 . S
C857 C856 1.384 . S
C857 H879 0.929 . S
C858 O868 1.241 . S
C858 O869 1.273 . S
C859 O870 1.251 . S
C859 O871 1.268 . S
O860 Nd840 2.500 . S
O860 C842 1.258 . S
O861 Nd840 2.492 . S
O861 C842 1.239 . S
O862 Nd840 2.487 . S
O862 C849 1.241 . S
O863 Nd840 2.682 . S
O863 Nd841 2.414 . S
O863 C849 1.273 . S
O864 Nd840 2.410 . S
O864 C850 1.251 . S
O865 Nd841 2.424 . S
O865 C850 1.268 . S
O866 Nd841 2.500 . S
O866 C851 1.258 . S
O867 Nd841 2.492 . S
O867 C851 1.239 . S
O868 Nd841 2.487 . S
O868 C858 1.241 . S
O869 Nd840 2.414 . S
O869 Nd841 2.682 . S
O869 C858 1.273 . S
O870 Nd841 2.410 . S
O870 C859 1.251 . S
O871 Nd840 2.424 . S
O871 C859 1.268 . S
H872 C844 0.930 . S
H873 C845 0.929 . S
H874 C847 0.930 . S
H875 C848 0.929 . S
H876 C853 0.930 . S
H877 C854 0.929 . S
H878 C856 0.930 . S
H879 C857 0.929 . S
Nd880 C882 2.836 . S
Nd880 O900 2.500 . S
Nd880 O901 2.492 . S
Nd880 O902 2.487 . S
Nd880 O903 2.682 . S
Nd880 O904 2.410 . S
Nd880 O909 2.414 . S
Nd880 O911 2.424 . S
Nd881 C891 2.836 . S
Nd881 O903 2.414 . S
Nd881 O905 2.424 . S
Nd881 O906 2.500 . S
Nd881 O907 2.492 . S
Nd881 O908 2.487 . S
Nd881 O909 2.682 . S
Nd881 O910 2.410 . S
C882 Nd880 2.836 . S
C882 C883 1.498 . S
C882 O900 1.258 . S
C882 O901 1.239 . S
C883 C882 1.498 . S
C883 C884 1.366 . S
C883 C888 1.407 . S
C884 C883 1.366 . S
C884 C885 1.392 . S
C884 H912 0.930 . S
C885 C884 1.392 . S
C885 C886 1.398 . S
C885 H913 0.929 . S
C886 C885 1.398 . S
C886 C887 1.352 . S
C887 C886 1.352 . S
C887 C888 1.384 . S
C887 H914 0.930 . S
C888 C883 1.407 . S
C888 C887 1.384 . S
C888 H915 0.929 . S
C889 O902 1.241 . S
C889 O903 1.273 . S
C890 O904 1.251 . S
C890 O905 1.268 . S
C891 Nd881 2.836 . S
C891 C892 1.498 . S
C891 O906 1.258 . S
C891 O907 1.239 . S
C892 C891 1.498 . S
C892 C893 1.366 . S
C892 C897 1.407 . S
C893 C892 1.366 . S
C893 C894 1.392 . S
C893 H916 0.930 . S
C894 C893 1.392 . S
C894 C895 1.398 . S
C894 H917 0.929 . S
C895 C894 1.398 . S
C895 C896 1.352 . S
C896 C895 1.352 . S
C896 C897 1.384 . S
C896 H918 0.930 . S
C897 C892 1.407 . S
C897 C896 1.384 . S
C897 H919 0.929 . S
C898 O908 1.241 . S
C898 O909 1.273 . S
C899 O910 1.251 . S
C899 O911 1.268 . S
O900 Nd880 2.500 . S
O900 C882 1.258 . S
O901 Nd880 2.492 . S
O901 C882 1.239 . S
O902 Nd880 2.487 . S
O902 C889 1.241 . S
O903 Nd880 2.682 . S
O903 Nd881 2.414 . S
O903 C889 1.273 . S
O904 Nd880 2.410 . S
O904 C890 1.251 . S
O905 Nd881 2.424 . S
O905 C890 1.268 . S
O906 Nd881 2.500 . S
O906 C891 1.258 . S
O907 Nd881 2.492 . S
O907 C891 1.239 . S
O908 Nd881 2.487 . S
O908 C898 1.241 . S
O909 Nd880 2.414 . S
O909 Nd881 2.682 . S
O909 C898 1.273 . S
O910 Nd881 2.410 . S
O910 C899 1.251 . S
O911 Nd880 2.424 . S
O911 C899 1.268 . S
H912 C884 0.930 . S
H913 C885 0.929 . S
H914 C887 0.930 . S
H915 C888 0.929 . S
H916 C893 0.930 . S
H917 C894 0.929 . S
H918 C896 0.930 . S
H919 C897 0.929 . S
Nd920 C922 2.836 . S
Nd920 O940 2.500 . S
Nd920 O941 2.492 . S
Nd920 O942 2.487 . S
Nd920 O943 2.682 . S
Nd920 O944 2.410 . S
Nd920 O949 2.414 . S
Nd920 O951 2.424 . S
Nd921 C931 2.836 . S
Nd921 O943 2.414 . S
Nd921 O945 2.424 . S
Nd921 O946 2.500 . S
Nd921 O947 2.492 . S
Nd921 O948 2.487 . S
Nd921 O949 2.682 . S
Nd921 O950 2.410 . S
C922 Nd920 2.836 . S
C922 C923 1.498 . S
C922 O940 1.258 . S
C922 O941 1.239 . S
C923 C922 1.498 . S
C923 C924 1.366 . S
C923 C928 1.407 . S
C924 C923 1.366 . S
C924 C925 1.392 . S
C924 H952 0.930 . S
C925 C924 1.392 . S
C925 C926 1.398 . S
C925 H953 0.929 . S
C926 C925 1.398 . S
C926 C927 1.352 . S
C927 C926 1.352 . S
C927 C928 1.384 . S
C927 H954 0.930 . S
C928 C923 1.407 . S
C928 C927 1.384 . S
C928 H955 0.929 . S
C929 O942 1.241 . S
C929 O943 1.273 . S
C930 O944 1.251 . S
C930 O945 1.268 . S
C931 Nd921 2.836 . S
C931 C932 1.498 . S
C931 O946 1.258 . S
C931 O947 1.239 . S
C932 C931 1.498 . S
C932 C933 1.366 . S
C932 C937 1.407 . S
C933 C932 1.366 . S
C933 C934 1.392 . S
C933 H956 0.930 . S
C934 C933 1.392 . S
C934 C935 1.398 . S
C934 H957 0.929 . S
C935 C934 1.398 . S
C935 C936 1.352 . S
C936 C935 1.352 . S
C936 C937 1.384 . S
C936 H958 0.930 . S
C937 C932 1.407 . S
C937 C936 1.384 . S
C937 H959 0.929 . S
C938 O948 1.241 . S
C938 O949 1.273 . S
C939 O950 1.251 . S
C939 O951 1.268 . S
O940 Nd920 2.500 . S
O940 C922 1.258 . S
O941 Nd920 2.492 . S
O941 C922 1.239 . S
O942 Nd920 2.487 . S
O942 C929 1.241 . S
O943 Nd920 2.682 . S
O943 Nd921 2.414 . S
O943 C929 1.273 . S
O944 Nd920 2.410 . S
O944 C930 1.251 . S
O945 Nd921 2.424 . S
O945 C930 1.268 . S
O946 Nd921 2.500 . S
O946 C931 1.258 . S
O947 Nd921 2.492 . S
O947 C931 1.239 . S
O948 Nd921 2.487 . S
O948 C938 1.241 . S
O949 Nd920 2.414 . S
O949 Nd921 2.682 . S
O949 C938 1.273 . S
O950 Nd921 2.410 . S
O950 C939 1.251 . S
O951 Nd920 2.424 . S
O951 C939 1.268 . S
H952 C924 0.930 . S
H953 C925 0.929 . S
H954 C927 0.930 . S
H955 C928 0.929 . S
H956 C933 0.930 . S
H957 C934 0.929 . S
H958 C936 0.930 . S
H959 C937 0.929 . S
Nd960 C962 2.836 . S
Nd960 O980 2.500 . S
Nd960 O981 2.492 . S
Nd960 O982 2.487 . S
Nd960 O983 2.682 . S
Nd960 O984 2.410 . S
Nd960 O989 2.414 . S
Nd960 O991 2.424 . S
Nd961 C971 2.836 . S
Nd961 O983 2.414 . S
Nd961 O985 2.424 . S
Nd961 O986 2.500 . S
Nd961 O987 2.492 . S
Nd961 O988 2.487 . S
Nd961 O989 2.682 . S
Nd961 O990 2.410 . S
C962 Nd960 2.836 . S
C962 C963 1.498 . S
C962 O980 1.258 . S
C962 O981 1.239 . S
C963 C962 1.498 . S
C963 C964 1.366 . S
C963 C968 1.407 . S
C964 C963 1.366 . S
C964 C965 1.392 . S
C964 H992 0.930 . S
C965 C964 1.392 . S
C965 C966 1.398 . S
C965 H993 0.929 . S
C966 C965 1.398 . S
C966 C967 1.352 . S
C967 C966 1.352 . S
C967 C968 1.384 . S
C967 H994 0.930 . S
C968 C963 1.407 . S
C968 C967 1.384 . S
C968 H995 0.929 . S
C969 O982 1.241 . S
C969 O983 1.273 . S
C970 O984 1.251 . S
C970 O985 1.268 . S
C971 Nd961 2.836 . S
C971 C972 1.498 . S
C971 O986 1.258 . S
C971 O987 1.239 . S
C972 C971 1.498 . S
C972 C973 1.366 . S
C972 C977 1.407 . S
C973 C972 1.366 . S
C973 C974 1.392 . S
C973 H996 0.930 . S
C974 C973 1.392 . S
C974 C975 1.398 . S
C974 H997 0.929 . S
C975 C974 1.398 . S
C975 C976 1.352 . S
C976 C975 1.352 . S
C976 C977 1.384 . S
C976 H998 0.930 . S
C977 C972 1.407 . S
C977 C976 1.384 . S
C977 H999 0.929 . S
C978 O988 1.241 . S
C978 O989 1.273 . S
C979 O990 1.251 . S
C979 O991 1.268 . S
O980 Nd960 2.500 . S
O980 C962 1.258 . S
O981 Nd960 2.492 . S
O981 C962 1.239 . S
O982 Nd960 2.487 . S
O982 C969 1.241 . S
O983 Nd960 2.682 . S
O983 Nd961 2.414 . S
O983 C969 1.273 . S
O984 Nd960 2.410 . S
O984 C970 1.251 . S
O985 Nd961 2.424 . S
O985 C970 1.268 . S
O986 Nd961 2.500 . S
O986 C971 1.258 . S
O987 Nd961 2.492 . S
O987 C971 1.239 . S
O988 Nd961 2.487 . S
O988 C978 1.241 . S
O989 Nd960 2.414 . S
O989 Nd961 2.682 . S
O989 C978 1.273 . S
O990 Nd961 2.410 . S
O990 C979 1.251 . S
O991 Nd960 2.424 . S
O991 C979 1.268 . S
H992 C964 0.930 . S
H993 C965 0.929 . S
H994 C967 0.930 . S
H995 C968 0.929 . S
H996 C973 0.930 . S
H997 C974 0.929 . S
H998 C976 0.930 . S
H999 C977 0.929 . S
Nd1000 C1002 2.836 . S
Nd1000 O1020 2.500 . S
Nd1000 O1021 2.492 . S
Nd1000 O1022 2.487 . S
Nd1000 O1023 2.682 . S
Nd1000 O1024 2.410 . S
Nd1000 O1029 2.414 . S
Nd1000 O1031 2.424 . S
Nd1001 C1011 2.836 . S
Nd1001 O1023 2.414 . S
Nd1001 O1025 2.424 . S
Nd1001 O1026 2.500 . S
Nd1001 O1027 2.492 . S
Nd1001 O1028 2.487 . S
Nd1001 O1029 2.682 . S
Nd1001 O1030 2.410 . S
C1002 Nd1000 2.836 . S
C1002 C1003 1.498 . S
C1002 O1020 1.258 . S
C1002 O1021 1.239 . S
C1003 C1002 1.498 . S
C1003 C1004 1.366 . S
C1003 C1008 1.407 . S
C1004 C1003 1.366 . S
C1004 C1005 1.392 . S
C1004 H1032 0.930 . S
C1005 C1004 1.392 . S
C1005 C1006 1.398 . S
C1005 H1033 0.929 . S
C1006 C1005 1.398 . S
C1006 C1007 1.352 . S
C1007 C1006 1.352 . S
C1007 C1008 1.384 . S
C1007 H1034 0.930 . S
C1008 C1003 1.407 . S
C1008 C1007 1.384 . S
C1008 H1035 0.929 . S
C1009 O1022 1.241 . S
C1009 O1023 1.273 . S
C1010 O1024 1.251 . S
C1010 O1025 1.268 . S
C1011 Nd1001 2.836 . S
C1011 C1012 1.498 1_556 S
C1011 O1026 1.258 . S
C1011 O1027 1.239 . S
C1012 C1011 1.498 1_554 S
C1012 C1013 1.366 . S
C1012 C1017 1.407 . S
C1013 C1012 1.366 . S
C1013 C1014 1.392 . S
C1013 H1036 0.930 . S
C1014 C1013 1.392 . S
C1014 C1015 1.398 . S
C1014 H1037 0.929 . S
C1015 C1014 1.398 . S
C1015 C1016 1.352 . S
C1016 C1015 1.352 . S
C1016 C1017 1.384 . S
C1016 H1038 0.930 . S
C1017 C1012 1.407 . S
C1017 C1016 1.384 . S
C1017 H1039 0.929 . S
C1018 O1028 1.241 . S
C1018 O1029 1.273 . S
C1019 O1030 1.251 . S
C1019 O1031 1.268 . S
O1020 Nd1000 2.500 . S
O1020 C1002 1.258 . S
O1021 Nd1000 2.492 . S
O1021 C1002 1.239 . S
O1022 Nd1000 2.487 . S
O1022 C1009 1.241 . S
O1023 Nd1000 2.682 . S
O1023 Nd1001 2.414 . S
O1023 C1009 1.273 . S
O1024 Nd1000 2.410 . S
O1024 C1010 1.251 . S
O1025 Nd1001 2.424 . S
O1025 C1010 1.268 . S
O1026 Nd1001 2.500 . S
O1026 C1011 1.258 . S
O1027 Nd1001 2.492 . S
O1027 C1011 1.239 . S
O1028 Nd1001 2.487 . S
O1028 C1018 1.241 . S
O1029 Nd1000 2.414 . S
O1029 Nd1001 2.682 . S
O1029 C1018 1.273 . S
O1030 Nd1001 2.410 . S
O1030 C1019 1.251 . S
O1031 Nd1000 2.424 . S
O1031 C1019 1.268 . S
H1032 C1004 0.930 . S
H1033 C1005 0.929 . S
H1034 C1007 0.930 . S
H1035 C1008 0.929 . S
H1036 C1013 0.930 . S
H1037 C1014 0.929 . S
H1038 C1016 0.930 . S
H1039 C1017 0.929 . S
Nd1040 C1042 2.836 . S
Nd1040 O1060 2.500 . S
Nd1040 O1061 2.492 . S
Nd1040 O1062 2.487 . S
Nd1040 O1063 2.682 . S
Nd1040 O1064 2.410 . S
Nd1040 O1069 2.414 . S
Nd1040 O1071 2.424 . S
Nd1041 C1051 2.836 . S
Nd1041 O1063 2.414 . S
Nd1041 O1065 2.424 . S
Nd1041 O1066 2.500 . S
Nd1041 O1067 2.492 . S
Nd1041 O1068 2.487 . S
Nd1041 O1069 2.682 . S
Nd1041 O1070 2.410 . S
C1042 Nd1040 2.836 . S
C1042 C1043 1.498 . S
C1042 O1060 1.258 . S
C1042 O1061 1.239 . S
C1043 C1042 1.498 . S
C1043 C1044 1.366 . S
C1043 C1048 1.407 . S
C1044 C1043 1.366 . S
C1044 C1045 1.392 . S
C1044 H1072 0.930 . S
C1045 C1044 1.392 . S
C1045 C1046 1.398 . S
C1045 H1073 0.929 . S
C1046 C1045 1.398 . S
C1046 C1047 1.352 . S
C1047 C1046 1.352 . S
C1047 C1048 1.384 . S
C1047 H1074 0.930 . S
C1048 C1043 1.407 . S
C1048 C1047 1.384 . S
C1048 H1075 0.929 . S
C1049 O1062 1.241 . S
C1049 O1063 1.273 . S
C1050 O1064 1.251 . S
C1050 O1065 1.268 . S
C1051 Nd1041 2.836 . S
C1051 C1052 1.498 . S
C1051 O1066 1.258 . S
C1051 O1067 1.239 . S
C1052 C1051 1.498 . S
C1052 C1053 1.366 . S
C1052 C1057 1.407 . S
C1053 C1052 1.366 . S
C1053 C1054 1.392 . S
C1053 H1076 0.930 . S
C1054 C1053 1.392 . S
C1054 C1055 1.398 . S
C1054 H1077 0.929 . S
C1055 C1054 1.398 . S
C1055 C1056 1.352 . S
C1056 C1055 1.352 . S
C1056 C1057 1.384 . S
C1056 H1078 0.930 . S
C1057 C1052 1.407 . S
C1057 C1056 1.384 . S
C1057 H1079 0.929 . S
C1058 O1068 1.241 . S
C1058 O1069 1.273 . S
C1059 O1070 1.251 . S
C1059 O1071 1.268 . S
O1060 Nd1040 2.500 . S
O1060 C1042 1.258 . S
O1061 Nd1040 2.492 . S
O1061 C1042 1.239 . S
O1062 Nd1040 2.487 . S
O1062 C1049 1.241 . S
O1063 Nd1040 2.682 . S
O1063 Nd1041 2.414 . S
O1063 C1049 1.273 . S
O1064 Nd1040 2.410 . S
O1064 C1050 1.251 . S
O1065 Nd1041 2.424 . S
O1065 C1050 1.268 . S
O1066 Nd1041 2.500 . S
O1066 C1051 1.258 . S
O1067 Nd1041 2.492 . S
O1067 C1051 1.239 . S
O1068 Nd1041 2.487 . S
O1068 C1058 1.241 . S
O1069 Nd1040 2.414 . S
O1069 Nd1041 2.682 . S
O1069 C1058 1.273 . S
O1070 Nd1041 2.410 . S
O1070 C1059 1.251 . S
O1071 Nd1040 2.424 . S
O1071 C1059 1.268 . S
H1072 C1044 0.930 . S
H1073 C1045 0.929 . S
H1074 C1047 0.930 . S
H1075 C1048 0.929 . S
H1076 C1053 0.930 . S
H1077 C1054 0.929 . S
H1078 C1056 0.930 . S
H1079 C1057 0.929 . S
Nd1080 C1082 2.836 . S
Nd1080 O1100 2.500 . S
Nd1080 O1101 2.492 . S
Nd1080 O1102 2.487 . S
Nd1080 O1103 2.682 . S
Nd1080 O1104 2.410 . S
Nd1080 O1109 2.414 . S
Nd1080 O1111 2.424 . S
Nd1081 C1091 2.836 . S
Nd1081 O1103 2.414 . S
Nd1081 O1105 2.424 . S
Nd1081 O1106 2.500 . S
Nd1081 O1107 2.492 . S
Nd1081 O1108 2.487 . S
Nd1081 O1109 2.682 . S
Nd1081 O1110 2.410 . S
C1082 Nd1080 2.836 . S
C1082 C1083 1.498 . S
C1082 O1100 1.258 . S
C1082 O1101 1.239 . S
C1083 C1082 1.498 . S
C1083 C1084 1.366 . S
C1083 C1088 1.407 . S
C1084 C1083 1.366 . S
C1084 C1085 1.392 . S
C1084 H1112 0.930 . S
C1085 C1084 1.392 . S
C1085 C1086 1.398 . S
C1085 H1113 0.929 . S
C1086 C1085 1.398 . S
C1086 C1087 1.352 . S
C1087 C1086 1.352 . S
C1087 C1088 1.384 . S
C1087 H1114 0.930 . S
C1088 C1083 1.407 . S
C1088 C1087 1.384 . S
C1088 H1115 0.929 . S
C1089 O1102 1.241 . S
C1089 O1103 1.273 . S
C1090 O1104 1.251 . S
C1090 O1105 1.268 . S
C1091 Nd1081 2.836 . S
C1091 C1092 1.498 . S
C1091 O1106 1.258 . S
C1091 O1107 1.239 . S
C1092 C1091 1.498 . S
C1092 C1093 1.366 . S
C1092 C1097 1.407 . S
C1093 C1092 1.366 . S
C1093 C1094 1.392 . S
C1093 H1116 0.930 . S
C1094 C1093 1.392 . S
C1094 C1095 1.398 . S
C1094 H1117 0.929 . S
C1095 C1094 1.398 . S
C1095 C1096 1.352 . S
C1096 C1095 1.352 . S
C1096 C1097 1.384 . S
C1096 H1118 0.930 . S
C1097 C1092 1.407 . S
C1097 C1096 1.384 . S
C1097 H1119 0.929 . S
C1098 O1108 1.241 . S
C1098 O1109 1.273 . S
C1099 O1110 1.251 . S
C1099 O1111 1.268 . S
O1100 Nd1080 2.500 . S
O1100 C1082 1.258 . S
O1101 Nd1080 2.492 . S
O1101 C1082 1.239 . S
O1102 Nd1080 2.487 . S
O1102 C1089 1.241 . S
O1103 Nd1080 2.682 . S
O1103 Nd1081 2.414 . S
O1103 C1089 1.273 . S
O1104 Nd1080 2.410 . S
O1104 C1090 1.251 . S
O1105 Nd1081 2.424 . S
O1105 C1090 1.268 . S
O1106 Nd1081 2.500 . S
O1106 C1091 1.258 . S
O1107 Nd1081 2.492 . S
O1107 C1091 1.239 . S
O1108 Nd1081 2.487 . S
O1108 C1098 1.241 . S
O1109 Nd1080 2.414 . S
O1109 Nd1081 2.682 . S
O1109 C1098 1.273 . S
O1110 Nd1081 2.410 . S
O1110 C1099 1.251 . S
O1111 Nd1080 2.424 . S
O1111 C1099 1.268 . S
H1112 C1084 0.930 . S
H1113 C1085 0.929 . S
H1114 C1087 0.930 . S
H1115 C1088 0.929 . S
H1116 C1093 0.930 . S
H1117 C1094 0.929 . S
H1118 C1096 0.930 . S
H1119 C1097 0.929 . S
Nd1120 C1122 2.836 . S
Nd1120 O1140 2.500 . S
Nd1120 O1141 2.492 . S
Nd1120 O1142 2.487 . S
Nd1120 O1143 2.682 . S
Nd1120 O1144 2.410 . S
Nd1120 O1149 2.414 . S
Nd1120 O1151 2.424 . S
Nd1121 C1131 2.836 . S
Nd1121 O1143 2.414 . S
Nd1121 O1145 2.424 . S
Nd1121 O1146 2.500 . S
Nd1121 O1147 2.492 . S
Nd1121 O1148 2.487 . S
Nd1121 O1149 2.682 . S
Nd1121 O1150 2.410 . S
C1122 Nd1120 2.836 . S
C1122 C1123 1.498 . S
C1122 O1140 1.258 . S
C1122 O1141 1.239 . S
C1123 C1122 1.498 . S
C1123 C1124 1.366 . S
C1123 C1128 1.407 . S
C1124 C1123 1.366 . S
C1124 C1125 1.392 . S
C1124 H1152 0.930 . S
C1125 C1124 1.392 . S
C1125 C1126 1.398 . S
C1125 H1153 0.929 . S
C1126 C1125 1.398 . S
C1126 C1127 1.352 . S
C1127 C1126 1.352 . S
C1127 C1128 1.384 . S
C1127 H1154 0.930 . S
C1128 C1123 1.407 . S
C1128 C1127 1.384 . S
C1128 H1155 0.929 . S
C1129 O1142 1.241 . S
C1129 O1143 1.273 . S
C1130 O1144 1.251 . S
C1130 O1145 1.268 . S
C1131 Nd1121 2.836 . S
C1131 C1132 1.498 . S
C1131 O1146 1.258 . S
C1131 O1147 1.239 . S
C1132 C1131 1.498 . S
C1132 C1133 1.366 . S
C1132 C1137 1.407 . S
C1133 C1132 1.366 . S
C1133 C1134 1.392 . S
C1133 H1156 0.930 . S
C1134 C1133 1.392 . S
C1134 C1135 1.398 . S
C1134 H1157 0.929 . S
C1135 C1134 1.398 . S
C1135 C1136 1.352 . S
C1136 C1135 1.352 . S
C1136 C1137 1.384 . S
C1136 H1158 0.930 . S
C1137 C1132 1.407 . S
C1137 C1136 1.384 . S
C1137 H1159 0.929 . S
C1138 O1148 1.241 . S
C1138 O1149 1.273 . S
C1139 O1150 1.251 . S
C1139 O1151 1.268 . S
O1140 Nd1120 2.500 . S
O1140 C1122 1.258 . S
O1141 Nd1120 2.492 . S
O1141 C1122 1.239 . S
O1142 Nd1120 2.487 . S
O1142 C1129 1.241 . S
O1143 Nd1120 2.682 . S
O1143 Nd1121 2.414 . S
O1143 C1129 1.273 . S
O1144 Nd1120 2.410 . S
O1144 C1130 1.251 . S
O1145 Nd1121 2.424 . S
O1145 C1130 1.268 . S
O1146 Nd1121 2.500 . S
O1146 C1131 1.258 . S
O1147 Nd1121 2.492 . S
O1147 C1131 1.239 . S
O1148 Nd1121 2.487 . S
O1148 C1138 1.241 . S
O1149 Nd1120 2.414 . S
O1149 Nd1121 2.682 . S
O1149 C1138 1.273 . S
O1150 Nd1121 2.410 . S
O1150 C1139 1.251 . S
O1151 Nd1120 2.424 . S
O1151 C1139 1.268 . S
H1152 C1124 0.930 . S
H1153 C1125 0.929 . S
H1154 C1127 0.930 . S
H1155 C1128 0.929 . S
H1156 C1133 0.930 . S
H1157 C1134 0.929 . S
H1158 C1136 0.930 . S
H1159 C1137 0.929 . S
Nd1160 C1162 2.836 . S
Nd1160 O1180 2.500 . S
Nd1160 O1181 2.492 . S
Nd1160 O1182 2.487 . S
Nd1160 O1183 2.682 . S
Nd1160 O1184 2.410 . S
Nd1160 O1189 2.414 . S
Nd1160 O1191 2.424 . S
Nd1161 C1171 2.836 . S
Nd1161 O1183 2.414 . S
Nd1161 O1185 2.424 . S
Nd1161 O1186 2.500 . S
Nd1161 O1187 2.492 . S
Nd1161 O1188 2.487 . S
Nd1161 O1189 2.682 . S
Nd1161 O1190 2.410 . S
C1162 Nd1160 2.836 . S
C1162 C1163 1.498 . S
C1162 O1180 1.258 . S
C1162 O1181 1.239 . S
C1163 C1162 1.498 . S
C1163 C1164 1.366 . S
C1163 C1168 1.407 . S
C1164 C1163 1.366 . S
C1164 C1165 1.392 . S
C1164 H1192 0.930 . S
C1165 C1164 1.392 . S
C1165 C1166 1.398 . S
C1165 H1193 0.929 . S
C1166 C1165 1.398 . S
C1166 C1167 1.352 . S
C1167 C1166 1.352 . S
C1167 C1168 1.384 . S
C1167 H1194 0.930 . S
C1168 C1163 1.407 . S
C1168 C1167 1.384 . S
C1168 H1195 0.929 . S
C1169 O1182 1.241 . S
C1169 O1183 1.273 . S
C1170 O1184 1.251 . S
C1170 O1185 1.268 . S
C1171 Nd1161 2.836 . S
C1171 C1172 1.498 1_554 S
C1171 O1186 1.258 . S
C1171 O1187 1.239 . S
C1172 C1171 1.498 1_556 S
C1172 C1173 1.366 . S
C1172 C1177 1.407 . S
C1173 C1172 1.366 . S
C1173 C1174 1.392 . S
C1173 H1196 0.930 . S
C1174 C1173 1.392 . S
C1174 C1175 1.398 . S
C1174 H1197 0.929 . S
C1175 C1174 1.398 . S
C1175 C1176 1.352 . S
C1176 C1175 1.352 . S
C1176 C1177 1.384 . S
C1176 H1198 0.930 . S
C1177 C1172 1.407 . S
C1177 C1176 1.384 . S
C1177 H1199 0.929 . S
C1178 O1188 1.241 . S
C1178 O1189 1.273 . S
C1179 O1190 1.251 . S
C1179 O1191 1.268 . S
O1180 Nd1160 2.500 . S
O1180 C1162 1.258 . S
O1181 Nd1160 2.492 . S
O1181 C1162 1.239 . S
O1182 Nd1160 2.487 . S
O1182 C1169 1.241 . S
O1183 Nd1160 2.682 . S
O1183 Nd1161 2.414 . S
O1183 C1169 1.273 . S
O1184 Nd1160 2.410 . S
O1184 C1170 1.251 . S
O1185 Nd1161 2.424 . S
O1185 C1170 1.268 . S
O1186 Nd1161 2.500 . S
O1186 C1171 1.258 . S
O1187 Nd1161 2.492 . S
O1187 C1171 1.239 . S
O1188 Nd1161 2.487 . S
O1188 C1178 1.241 . S
O1189 Nd1160 2.414 . S
O1189 Nd1161 2.682 . S
O1189 C1178 1.273 . S
O1190 Nd1161 2.410 . S
O1190 C1179 1.251 . S
O1191 Nd1160 2.424 . S
O1191 C1179 1.268 . S
H1192 C1164 0.930 . S
H1193 C1165 0.929 . S
H1194 C1167 0.930 . S
H1195 C1168 0.929 . S
H1196 C1173 0.930 . S
H1197 C1174 0.929 . S
H1198 C1176 0.930 . S
H1199 C1177 0.929 . S
Nd1200 C1202 2.836 . S
Nd1200 O1220 2.500 . S
Nd1200 O1221 2.492 . S
Nd1200 O1222 2.487 . S
Nd1200 O1223 2.682 . S
Nd1200 O1224 2.410 . S
Nd1200 O1229 2.414 . S
Nd1200 O1231 2.424 . S
Nd1201 C1211 2.836 . S
Nd1201 O1223 2.414 . S
Nd1201 O1225 2.424 . S
Nd1201 O1226 2.500 . S
Nd1201 O1227 2.492 . S
Nd1201 O1228 2.487 . S
Nd1201 O1229 2.682 . S
Nd1201 O1230 2.410 . S
C1202 Nd1200 2.836 . S
C1202 C1203 1.498 . S
C1202 O1220 1.258 . S
C1202 O1221 1.239 . S
C1203 C1202 1.498 . S
C1203 C1204 1.366 . S
C1203 C1208 1.407 . S
C1204 C1203 1.366 . S
C1204 C1205 1.392 . S
C1204 H1232 0.930 . S
C1205 C1204 1.392 . S
C1205 C1206 1.398 . S
C1205 H1233 0.929 . S
C1206 C1205 1.398 . S
C1206 C1207 1.352 . S
C1207 C1206 1.352 . S
C1207 C1208 1.384 . S
C1207 H1234 0.930 . S
C1208 C1203 1.407 . S
C1208 C1207 1.384 . S
C1208 H1235 0.929 . S
C1209 O1222 1.241 . S
C1209 O1223 1.273 . S
C1210 O1224 1.251 . S
C1210 O1225 1.268 . S
C1211 Nd1201 2.836 . S
C1211 C1212 1.498 . S
C1211 O1226 1.258 . S
C1211 O1227 1.239 . S
C1212 C1211 1.498 . S
C1212 C1213 1.366 . S
C1212 C1217 1.407 . S
C1213 C1212 1.366 . S
C1213 C1214 1.392 . S
C1213 H1236 0.930 . S
C1214 C1213 1.392 . S
C1214 C1215 1.398 . S
C1214 H1237 0.929 . S
C1215 C1214 1.398 . S
C1215 C1216 1.352 . S
C1216 C1215 1.352 . S
C1216 C1217 1.384 . S
C1216 H1238 0.930 . S
C1217 C1212 1.407 . S
C1217 C1216 1.384 . S
C1217 H1239 0.929 . S
C1218 O1228 1.241 . S
C1218 O1229 1.273 . S
C1219 O1230 1.251 . S
C1219 O1231 1.268 . S
O1220 Nd1200 2.500 . S
O1220 C1202 1.258 . S
O1221 Nd1200 2.492 . S
O1221 C1202 1.239 . S
O1222 Nd1200 2.487 . S
O1222 C1209 1.241 . S
O1223 Nd1200 2.682 . S
O1223 Nd1201 2.414 . S
O1223 C1209 1.273 . S
O1224 Nd1200 2.410 . S
O1224 C1210 1.251 . S
O1225 Nd1201 2.424 . S
O1225 C1210 1.268 . S
O1226 Nd1201 2.500 . S
O1226 C1211 1.258 . S
O1227 Nd1201 2.492 . S
O1227 C1211 1.239 . S
O1228 Nd1201 2.487 . S
O1228 C1218 1.241 . S
O1229 Nd1200 2.414 . S
O1229 Nd1201 2.682 . S
O1229 C1218 1.273 . S
O1230 Nd1201 2.410 . S
O1230 C1219 1.251 . S
O1231 Nd1200 2.424 . S
O1231 C1219 1.268 . S
H1232 C1204 0.930 . S
H1233 C1205 0.929 . S
H1234 C1207 0.930 . S
H1235 C1208 0.929 . S
H1236 C1213 0.930 . S
H1237 C1214 0.929 . S
H1238 C1216 0.930 . S
H1239 C1217 0.929 . S
Nd1240 C1242 2.836 . S
Nd1240 O1260 2.500 . S
Nd1240 O1261 2.492 . S
Nd1240 O1262 2.487 . S
Nd1240 O1263 2.682 . S
Nd1240 O1264 2.410 . S
Nd1240 O1269 2.414 . S
Nd1240 O1271 2.424 . S
Nd1241 C1251 2.836 . S
Nd1241 O1263 2.414 . S
Nd1241 O1265 2.424 . S
Nd1241 O1266 2.500 . S
Nd1241 O1267 2.492 . S
Nd1241 O1268 2.487 . S
Nd1241 O1269 2.682 . S
Nd1241 O1270 2.410 . S
C1242 Nd1240 2.836 . S
C1242 C1243 1.498 . S
C1242 O1260 1.258 . S
C1242 O1261 1.239 . S
C1243 C1242 1.498 . S
C1243 C1244 1.366 . S
C1243 C1248 1.407 . S
C1244 C1243 1.366 . S
C1244 C1245 1.392 . S
C1244 H1272 0.930 . S
C1245 C1244 1.392 . S
C1245 C1246 1.398 . S
C1245 H1273 0.929 . S
C1246 C1245 1.398 . S
C1246 C1247 1.352 . S
C1247 C1246 1.352 . S
C1247 C1248 1.384 . S
C1247 H1274 0.930 . S
C1248 C1243 1.407 . S
C1248 C1247 1.384 . S
C1248 H1275 0.929 . S
C1249 O1262 1.241 . S
C1249 O1263 1.273 . S
C1250 O1264 1.251 . S
C1250 O1265 1.268 . S
C1251 Nd1241 2.836 . S
C1251 C1252 1.498 . S
C1251 O1266 1.258 . S
C1251 O1267 1.239 . S
C1252 C1251 1.498 . S
C1252 C1253 1.366 . S
C1252 C1257 1.407 . S
C1253 C1252 1.366 . S
C1253 C1254 1.392 . S
C1253 H1276 0.930 . S
C1254 C1253 1.392 . S
C1254 C1255 1.398 . S
C1254 H1277 0.929 . S
C1255 C1254 1.398 . S
C1255 C1256 1.352 . S
C1256 C1255 1.352 . S
C1256 C1257 1.384 . S
C1256 H1278 0.930 . S
C1257 C1252 1.407 . S
C1257 C1256 1.384 . S
C1257 H1279 0.929 . S
C1258 O1268 1.241 . S
C1258 O1269 1.273 . S
C1259 O1270 1.251 . S
C1259 O1271 1.268 . S
O1260 Nd1240 2.500 . S
O1260 C1242 1.258 . S
O1261 Nd1240 2.492 . S
O1261 C1242 1.239 . S
O1262 Nd1240 2.487 . S
O1262 C1249 1.241 . S
O1263 Nd1240 2.682 . S
O1263 Nd1241 2.414 . S
O1263 C1249 1.273 . S
O1264 Nd1240 2.410 . S
O1264 C1250 1.251 . S
O1265 Nd1241 2.424 . S
O1265 C1250 1.268 . S
O1266 Nd1241 2.500 . S
O1266 C1251 1.258 . S
O1267 Nd1241 2.492 . S
O1267 C1251 1.239 . S
O1268 Nd1241 2.487 . S
O1268 C1258 1.241 . S
O1269 Nd1240 2.414 . S
O1269 Nd1241 2.682 . S
O1269 C1258 1.273 . S
O1270 Nd1241 2.410 . S
O1270 C1259 1.251 . S
O1271 Nd1240 2.424 . S
O1271 C1259 1.268 . S
H1272 C1244 0.930 . S
H1273 C1245 0.929 . S
H1274 C1247 0.930 . S
H1275 C1248 0.929 . S
H1276 C1253 0.930 . S
H1277 C1254 0.929 . S
H1278 C1256 0.930 . S
H1279 C1257 0.929 . S
H1280 C1288 0.929 . S
H1281 C1290 0.930 . S
H1282 C1292 0.930 . S
H1283 C1295 0.929 . S
H1284 C1298 0.930 . S
H1285 C1300 0.960 . S
H1286 C1300 0.960 . S
H1287 C1300 0.960 . S
C1288 H1280 0.929 . S
C1288 C1289 1.377 . S
C1288 C1290 1.384 . S
C1289 C1288 1.377 . S
C1289 C1295 1.390 . S
C1290 H1281 0.930 . S
C1290 C1288 1.384 . S
C1290 C1291 1.372 . S
C1291 C1290 1.372 . S
C1291 C1292 1.400 . S
C1291 C1296 1.490 . S
C1292 H1282 0.930 . S
C1292 C1291 1.400 . S
C1292 C1295 1.386 . S
H1293 C1309 0.930 . S
H1294 C1310 0.931 . S
C1295 H1283 0.929 . S
C1295 C1289 1.390 . S
C1295 C1292 1.386 . S
C1296 C1291 1.490 . S
C1296 C1298 1.395 . S
C1296 C1299 1.403 . S
H1297 C1303 0.930 . S
C1298 H1284 0.930 . S
C1298 C1296 1.395 . S
C1298 C1301 1.403 . S
C1299 C1296 1.403 . S
C1299 C1300 1.524 . S
C1299 C1303 1.400 . S
C1300 H1285 0.960 . S
C1300 H1286 0.960 . S
C1300 H1287 0.960 . S
C1300 C1299 1.524 . S
C1301 C1298 1.403 . S
C1301 C1302 1.392 . S
C1301 C1305 1.495 . S
C1302 C1301 1.392 . S
C1302 C1303 1.385 . S
C1302 C1304 1.478 . S
C1303 H1297 0.930 . S
C1303 C1299 1.400 . S
C1303 C1302 1.385 . S
C1304 C1302 1.478 . S
C1304 C1306 1.381 . S
C1304 C1310 1.383 . S
C1305 C1301 1.495 . S
C1305 H1311 0.959 . S
C1305 H1312 0.961 . S
C1305 H1313 0.960 . S
C1306 C1304 1.381 . S
C1306 C1307 1.394 . S
C1306 H1314 0.930 . S
C1307 C1306 1.394 . S
C1307 C1308 1.383 . S
C1307 H1315 0.929 . S
C1308 C1307 1.383 . S
C1308 C1309 1.377 . S
C1309 H1293 0.930 . S
C1309 C1308 1.377 . S
C1309 C1310 1.379 . S
C1310 H1294 0.931 . S
C1310 C1304 1.383 . S
C1310 C1309 1.379 . S
H1311 C1305 0.959 . S
H1312 C1305 0.961 . S
H1313 C1305 0.960 . S
H1314 C1306 0.930 . S
H1315 C1307 0.929 . S
H1316 C1324 0.929 . S
H1317 C1326 0.930 1_565 S
H1318 C1328 0.930 . S
H1319 C1331 0.929 . S
H1320 C1334 0.930 . S
H1321 C1336 0.960 . S
H1322 C1336 0.960 . S
H1323 C1336 0.960 . S
C1324 H1316 0.929 . S
C1324 C1325 1.377 . S
C1324 C1326 1.384 . S
C1325 C1324 1.377 . S
C1325 C1331 1.390 . S
C1326 H1317 0.930 1_545 S
C1326 C1324 1.384 . S
C1326 C1327 1.372 . S
C1327 C1326 1.372 . S
C1327 C1328 1.400 . S
C1327 C1332 1.490 1_545 S
C1328 H1318 0.930 . S
C1328 C1327 1.400 . S
C1328 C1331 1.386 . S
H1329 C1345 0.930 . S
H1330 C1346 0.931 . S
C1331 H1319 0.929 . S
C1331 C1325 1.390 . S
C1331 C1328 1.386 . S
C1332 C1327 1.490 1_565 S
C1332 C1334 1.395 . S
C1332 C1335 1.403 . S
H1333 C1339 0.930 . S
C1334 H1320 0.930 . S
C1334 C1332 1.395 . S
C1334 C1337 1.403 . S
C1335 C1332 1.403 . S
C1335 C1336 1.524 . S
C1335 C1339 1.400 . S
C1336 H1321 0.960 . S
C1336 H1322 0.960 . S
C1336 H1323 0.960 . S
C1336 C1335 1.524 . S
C1337 C1334 1.403 . S
C1337 C1338 1.392 . S
C1337 C1341 1.495 . S
C1338 C1337 1.392 . S
C1338 C1339 1.385 . S
C1338 C1340 1.478 . S
C1339 H1333 0.930 . S
C1339 C1335 1.400 . S
C1339 C1338 1.385 . S
C1340 C1338 1.478 . S
C1340 C1342 1.381 . S
C1340 C1346 1.383 . S
C1341 C1337 1.495 . S
C1341 H1347 0.959 . S
C1341 H1348 0.961 . S
C1341 H1349 0.960 . S
C1342 C1340 1.381 . S
C1342 C1343 1.394 . S
C1342 H1350 0.930 . S
C1343 C1342 1.394 . S
C1343 C1344 1.383 . S
C1343 H1351 0.929 . S
C1344 C1343 1.383 . S
C1344 C1345 1.377 . S
C1345 H1329 0.930 . S
C1345 C1344 1.377 . S
C1345 C1346 1.379 . S
C1346 H1330 0.931 . S
C1346 C1340 1.383 . S
C1346 C1345 1.379 . S
H1347 C1341 0.959 . S
H1348 C1341 0.961 . S
H1349 C1341 0.960 . S
H1350 C1342 0.930 . S
H1351 C1343 0.929 . S
H1352 C1360 0.929 . S
H1353 C1362 0.930 . S
H1354 C1364 0.930 . S
H1355 C1367 0.929 . S
H1356 C1370 0.930 . S
H1357 C1372 0.960 . S
H1358 C1372 0.960 . S
H1359 C1372 0.960 . S
C1360 H1352 0.929 . S
C1360 C1361 1.377 . S
C1360 C1362 1.384 . S
C1361 C1360 1.377 . S
C1361 C1367 1.390 . S
C1362 H1353 0.930 . S
C1362 C1360 1.384 . S
C1362 C1363 1.372 . S
C1363 C1362 1.372 . S
C1363 C1364 1.400 . S
C1363 C1368 1.490 . S
C1364 H1354 0.930 . S
C1364 C1363 1.400 . S
C1364 C1367 1.386 . S
H1365 C1381 0.930 . S
H1366 C1382 0.931 . S
C1367 H1355 0.929 . S
C1367 C1361 1.390 . S
C1367 C1364 1.386 . S
C1368 C1363 1.490 . S
C1368 C1370 1.395 . S
C1368 C1371 1.403 . S
H1369 C1375 0.930 . S
C1370 H1356 0.930 . S
C1370 C1368 1.395 . S
C1370 C1373 1.403 . S
C1371 C1368 1.403 . S
C1371 C1372 1.524 . S
C1371 C1375 1.400 . S
C1372 H1357 0.960 . S
C1372 H1358 0.960 . S
C1372 H1359 0.960 . S
C1372 C1371 1.524 . S
C1373 C1370 1.403 . S
C1373 C1374 1.392 . S
C1373 C1377 1.495 . S
C1374 C1373 1.392 . S
C1374 C1375 1.385 . S
C1374 C1376 1.478 . S
C1375 H1369 0.930 . S
C1375 C1371 1.400 . S
C1375 C1374 1.385 . S
C1376 C1374 1.478 . S
C1376 C1378 1.381 . S
C1376 C1382 1.383 . S
C1377 C1373 1.495 . S
C1377 H1383 0.959 . S
C1377 H1384 0.961 . S
C1377 H1385 0.960 . S
C1378 C1376 1.381 . S
C1378 C1379 1.394 . S
C1378 H1386 0.930 . S
C1379 C1378 1.394 . S
C1379 C1380 1.383 . S
C1379 H1387 0.929 . S
C1380 C1379 1.383 . S
C1380 C1381 1.377 . S
C1381 H1365 0.930 . S
C1381 C1380 1.377 . S
C1381 C1382 1.379 . S
C1382 H1366 0.931 . S
C1382 C1376 1.383 . S
C1382 C1381 1.379 . S
H1383 C1377 0.959 . S
H1384 C1377 0.961 . S
H1385 C1377 0.960 . S
H1386 C1378 0.930 . S
H1387 C1379 0.929 . S
H1388 C1396 0.929 . S
H1389 C1398 0.930 1_545 S
H1390 C1400 0.930 . S
H1391 C1403 0.929 . S
H1392 C1406 0.930 . S
H1393 C1408 0.960 . S
H1394 C1408 0.960 . S
H1395 C1408 0.960 . S
C1396 H1388 0.929 . S
C1396 C1397 1.377 . S
C1396 C1398 1.384 . S
C1397 C1396 1.377 . S
C1397 C1403 1.390 . S
C1398 H1389 0.930 1_565 S
C1398 C1396 1.384 . S
C1398 C1399 1.372 . S
C1399 C1398 1.372 . S
C1399 C1400 1.400 . S
C1399 C1404 1.490 1_565 S
C1400 H1390 0.930 . S
C1400 C1399 1.400 . S
C1400 C1403 1.386 . S
H1401 C1417 0.930 . S
H1402 C1418 0.931 . S
C1403 H1391 0.929 . S
C1403 C1397 1.390 . S
C1403 C1400 1.386 . S
C1404 C1399 1.490 1_545 S
C1404 C1406 1.395 . S
C1404 C1407 1.403 . S
H1405 C1411 0.930 . S
C1406 H1392 0.930 . S
C1406 C1404 1.395 . S
C1406 C1409 1.403 . S
C1407 C1404 1.403 . S
C1407 C1408 1.524 . S
C1407 C1411 1.400 . S
C1408 H1393 0.960 . S
C1408 H1394 0.960 . S
C1408 H1395 0.960 . S
C1408 C1407 1.524 . S
C1409 C1406 1.403 . S
C1409 C1410 1.392 . S
C1409 C1413 1.495 . S
C1410 C1409 1.392 . S
C1410 C1411 1.385 . S
C1410 C1412 1.478 . S
C1411 H1405 0.930 . S
C1411 C1407 1.400 . S
C1411 C1410 1.385 . S
C1412 C1410 1.478 . S
C1412 C1414 1.381 . S
C1412 C1418 1.383 1_556 S
C1413 C1409 1.495 . S
C1413 H1419 0.959 . S
C1413 H1420 0.961 . S
C1413 H1421 0.960 . S
C1414 C1412 1.381 . S
C1414 C1415 1.394 1_556 S
C1414 H1422 0.930 . S
C1415 C1414 1.394 1_554 S
C1415 C1416 1.383 . S
C1415 H1423 0.929 . S
C1416 C1415 1.383 . S
C1416 C1417 1.377 . S
C1417 H1401 0.930 . S
C1417 C1416 1.377 . S
C1417 C1418 1.379 . S
C1418 H1402 0.931 . S
C1418 C1412 1.383 1_554 S
C1418 C1417 1.379 . S
H1419 C1413 0.959 . S
H1420 C1413 0.961 . S
H1421 C1413 0.960 . S
H1422 C1414 0.930 . S
H1423 C1415 0.929 . S
H1424 C1432 0.929 . S
H1425 C1434 0.930 . S
H1426 C1436 0.930 . S
H1427 C1439 0.929 . S
H1428 C1442 0.930 . S
H1429 C1444 0.960 . S
H1430 C1444 0.960 . S
H1431 C1444 0.960 . S
C1432 H1424 0.929 . S
C1432 C1433 1.377 . S
C1432 C1434 1.384 . S
C1433 C1432 1.377 . S
C1433 C1439 1.390 . S
C1434 H1425 0.930 . S
C1434 C1432 1.384 . S
C1434 C1435 1.372 . S
C1435 C1434 1.372 . S
C1435 C1436 1.400 . S
C1435 C1440 1.490 . S
C1436 H1426 0.930 . S
C1436 C1435 1.400 . S
C1436 C1439 1.386 . S
H1437 C1453 0.930 . S
H1438 C1454 0.931 . S
C1439 H1427 0.929 . S
C1439 C1433 1.390 . S
C1439 C1436 1.386 . S
C1440 C1435 1.490 . S
C1440 C1442 1.395 . S
C1440 C1443 1.403 . S
H1441 C1447 0.930 . S
C1442 H1428 0.930 . S
C1442 C1440 1.395 . S
C1442 C1445 1.403 . S
C1443 C1440 1.403 . S
C1443 C1444 1.524 . S
C1443 C1447 1.400 . S
C1444 H1429 0.960 . S
C1444 H1430 0.960 . S
C1444 H1431 0.960 . S
C1444 C1443 1.524 . S
C1445 C1442 1.403 . S
C1445 C1446 1.392 . S
C1445 C1449 1.495 . S
C1446 C1445 1.392 . S
C1446 C1447 1.385 . S
C1446 C1448 1.478 . S
C1447 H1441 0.930 . S
C1447 C1443 1.400 . S
C1447 C1446 1.385 . S
C1448 C1446 1.478 . S
C1448 C1450 1.381 . S
C1448 C1454 1.383 . S
C1449 C1445 1.495 . S
C1449 H1455 0.959 . S
C1449 H1456 0.961 . S
C1449 H1457 0.960 . S
C1450 C1448 1.381 . S
C1450 C1451 1.394 . S
C1450 H1458 0.930 . S
C1451 C1450 1.394 . S
C1451 C1452 1.383 . S
C1451 H1459 0.929 . S
C1452 C1451 1.383 . S
C1452 C1453 1.377 . S
C1453 H1437 0.930 . S
C1453 C1452 1.377 . S
C1453 C1454 1.379 . S
C1454 H1438 0.931 . S
C1454 C1448 1.383 . S
C1454 C1453 1.379 . S
H1455 C1449 0.959 . S
H1456 C1449 0.961 . S
H1457 C1449 0.960 . S
H1458 C1450 0.930 . S
H1459 C1451 0.929 . S
H1460 C1468 0.929 . S
H1461 C1470 0.930 . S
H1462 C1472 0.930 . S
H1463 C1475 0.929 . S
H1464 C1478 0.930 . S
H1465 C1480 0.960 . S
H1466 C1480 0.960 . S
H1467 C1480 0.960 . S
C1468 H1460 0.929 . S
C1468 C1469 1.377 . S
C1468 C1470 1.384 . S
C1469 C1468 1.377 . S
C1469 C1475 1.390 . S
C1470 H1461 0.930 . S
C1470 C1468 1.384 . S
C1470 C1471 1.372 . S
C1471 C1470 1.372 . S
C1471 C1472 1.400 . S
C1471 C1476 1.490 . S
C1472 H1462 0.930 . S
C1472 C1471 1.400 . S
C1472 C1475 1.386 . S
H1473 C1489 0.930 . S
H1474 C1490 0.956 . S
C1475 H1463 0.929 . S
C1475 C1469 1.390 . S
C1475 C1472 1.386 . S
C1476 C1471 1.490 . S
C1476 C1478 1.395 . S
C1476 C1479 1.403 . S
H1477 C1483 0.930 . S
C1478 H1464 0.930 . S
C1478 C1476 1.395 . S
C1478 C1481 1.403 . S
C1479 C1476 1.403 . S
C1479 C1480 1.524 . S
C1479 C1483 1.400 . S
C1480 H1465 0.960 . S
C1480 H1466 0.960 . S
C1480 H1467 0.960 . S
C1480 C1479 1.524 . S
C1481 C1478 1.403 . S
C1481 C1482 1.392 . S
C1481 C1485 1.495 . S
C1482 C1481 1.392 . S
C1482 C1483 1.385 . S
C1482 C1484 1.478 1_565 S
C1483 H1477 0.930 . S
C1483 C1479 1.400 . S
C1483 C1482 1.385 . S
C1484 C1482 1.478 1_545 S
C1484 C1486 1.381 . S
C1484 C1490 1.376 1_545 S
C1485 C1481 1.495 . S
C1485 H1491 0.959 . S
C1485 H1492 0.961 . S
C1485 H1493 0.960 1_565 S
C1486 C1484 1.381 . S
C1486 C1487 1.394 . S
C1486 H1494 0.930 . S
C1487 C1486 1.394 . S
C1487 C1488 1.383 . S
C1487 H1495 0.929 . S
C1488 C1487 1.383 . S
C1488 C1489 1.377 . S
C1489 H1473 0.930 . S
C1489 C1488 1.377 . S
C1489 C1490 1.362 1_545 S
C1490 H1474 0.956 . S
C1490 C1484 1.376 1_565 S
C1490 C1489 1.362 1_565 S
H1491 C1485 0.959 . S
H1492 C1485 0.961 . S
H1493 C1485 0.960 1_545 S
H1494 C1486 0.930 . S
H1495 C1487 0.929 . S
H1496 C1504 0.929 . S
H1497 C1506 0.930 . S
H1498 C1508 0.930 . S
H1499 C1511 0.929 . S
H1500 C1514 0.930 . S
H1501 C1516 0.960 . S
H1502 C1516 0.960 . S
H1503 C1516 0.960 . S
C1504 H1496 0.929 . S
C1504 C1505 1.377 . S
C1504 C1506 1.384 . S
C1505 C1504 1.377 . S
C1505 C1511 1.390 . S
C1506 H1497 0.930 . S
C1506 C1504 1.384 . S
C1506 C1507 1.372 . S
C1507 C1506 1.372 . S
C1507 C1508 1.400 . S
C1507 C1512 1.490 . S
C1508 H1498 0.930 . S
C1508 C1507 1.400 . S
C1508 C1511 1.386 . S
H1509 C1525 0.930 . S
H1510 C1526 0.931 . S
C1511 H1499 0.929 . S
C1511 C1505 1.390 . S
C1511 C1508 1.386 . S
C1512 C1507 1.490 . S
C1512 C1514 1.395 . S
C1512 C1515 1.403 . S
H1513 C1519 0.930 . S
C1514 H1500 0.930 . S
C1514 C1512 1.395 . S
C1514 C1517 1.403 . S
C1515 C1512 1.403 . S
C1515 C1516 1.524 . S
C1515 C1519 1.400 . S
C1516 H1501 0.960 . S
C1516 H1502 0.960 . S
C1516 H1503 0.960 . S
C1516 C1515 1.524 . S
C1517 C1514 1.403 . S
C1517 C1518 1.392 . S
C1517 C1521 1.495 . S
C1518 C1517 1.392 . S
C1518 C1519 1.385 . S
C1518 C1520 1.478 . S
C1519 H1513 0.930 . S
C1519 C1515 1.400 . S
C1519 C1518 1.385 . S
C1520 C1518 1.478 . S
C1520 C1522 1.381 . S
C1520 C1526 1.383 . S
C1521 C1517 1.495 . S
C1521 H1527 0.959 . S
C1521 H1528 0.961 . S
C1521 H1529 0.960 . S
C1522 C1520 1.381 . S
C1522 C1523 1.394 . S
C1522 H1530 0.930 . S
C1523 C1522 1.394 . S
C1523 C1524 1.383 . S
C1523 H1531 0.929 . S
C1524 C1523 1.383 . S
C1524 C1525 1.377 . S
C1525 H1509 0.930 . S
C1525 C1524 1.377 . S
C1525 C1526 1.379 . S
C1526 H1510 0.931 . S
C1526 C1520 1.383 . S
C1526 C1525 1.379 . S
H1527 C1521 0.959 . S
H1528 C1521 0.961 . S
H1529 C1521 0.960 . S
H1530 C1522 0.930 . S
H1531 C1523 0.929 . S
H1532 C1540 0.929 . S
H1533 C1542 0.930 1_545 S
H1534 C1544 0.930 . S
H1535 C1547 0.929 . S
H1536 C1550 0.930 . S
H1537 C1552 0.960 . S
H1538 C1552 0.960 . S
H1539 C1552 0.960 . S
C1540 H1532 0.929 . S
C1540 C1541 1.377 . S
C1540 C1542 1.384 . S
C1541 C1540 1.377 . S
C1541 C1547 1.390 . S
C1542 H1533 0.930 1_565 S
C1542 C1540 1.384 . S
C1542 C1543 1.372 . S
C1543 C1542 1.372 . S
C1543 C1544 1.400 . S
C1543 C1548 1.490 1_565 S
C1544 H1534 0.930 . S
C1544 C1543 1.400 . S
C1544 C1547 1.386 . S
H1545 C1561 0.930 . S
H1546 C1562 0.931 . S
C1547 H1535 0.929 . S
C1547 C1541 1.390 . S
C1547 C1544 1.386 . S
C1548 C1543 1.490 1_545 S
C1548 C1550 1.395 . S
C1548 C1551 1.403 . S
H1549 C1555 0.863 1_556 S
C1550 H1536 0.930 . S
C1550 C1548 1.395 . S
C1550 C1553 1.403 . S
C1551 C1548 1.403 . S
C1551 C1552 1.524 1_545 S
C1551 C1555 1.400 . S
C1552 H1537 0.960 . S
C1552 H1538 0.960 . S
C1552 H1539 0.960 . S
C1552 C1551 1.524 1_565 S
C1553 C1550 1.403 . S
C1553 C1554 1.392 . S
C1553 C1557 1.495 . S
C1554 C1553 1.392 . S
C1554 C1555 1.385 . S
C1554 C1556 1.478 . S
C1555 H1549 0.863 1_554 S
C1555 C1551 1.400 . S
C1555 C1554 1.385 . S
C1556 C1554 1.478 . S
C1556 C1558 1.381 . S
C1556 C1562 1.383 1_554 S
C1557 C1553 1.495 . S
C1557 H1563 0.959 . S
C1557 H1564 0.961 . S
C1557 H1565 0.960 . S
C1558 C1556 1.381 . S
C1558 C1559 1.394 1_554 S
C1558 H1566 0.930 . S
C1559 C1558 1.394 1_556 S
C1559 C1560 1.383 . S
C1559 H1567 0.929 . S
C1560 C1559 1.383 . S
C1560 C1561 1.377 . S
C1561 H1545 0.930 . S
C1561 C1560 1.377 . S
C1561 C1562 1.379 . S
C1562 H1546 0.931 . S
C1562 C1556 1.383 1_556 S
C1562 C1561 1.379 . S
H1563 C1557 0.959 . S
H1564 C1557 0.961 . S
H1565 C1557 0.960 . S
H1566 C1558 0.930 . S
H1567 C1559 0.929 . S
H1568 C1576 0.929 . S
H1569 C1578 0.930 . S
H1570 C1580 0.930 . S
H1571 C1583 0.929 . S
H1572 C1586 0.930 . S
H1573 C1588 0.960 . S
H1574 C1588 0.960 . S
H1575 C1588 0.960 . S
C1576 H1568 0.929 . S
C1576 C1577 1.377 . S
C1576 C1578 1.384 . S
C1577 C1576 1.377 . S
C1577 C1583 1.390 . S
C1578 H1569 0.930 . S
C1578 C1576 1.384 . S
C1578 C1579 1.372 . S
C1579 C1578 1.372 . S
C1579 C1580 1.400 . S
C1579 C1584 1.490 . S
C1580 H1570 0.930 . S
C1580 C1579 1.400 . S
C1580 C1583 1.386 . S
H1581 C1597 0.930 . S
H1582 C1598 0.931 . S
C1583 H1571 0.929 . S
C1583 C1577 1.390 . S
C1583 C1580 1.386 . S
C1584 C1579 1.490 . S
C1584 C1586 1.395 . S
C1584 C1587 1.403 . S
H1585 C1591 0.930 . S
C1586 H1572 0.930 . S
C1586 C1584 1.395 . S
C1586 C1589 1.403 . S
C1587 C1584 1.403 . S
C1587 C1588 1.524 . S
C1587 C1591 1.400 . S
C1588 H1573 0.960 . S
C1588 H1574 0.960 . S
C1588 H1575 0.960 . S
C1588 C1587 1.524 . S
C1589 C1586 1.403 . S
C1589 C1590 1.392 . S
C1589 C1593 1.495 . S
C1590 C1589 1.392 . S
C1590 C1591 1.385 . S
C1590 C1592 1.478 . S
C1591 H1585 0.930 . S
C1591 C1587 1.400 . S
C1591 C1590 1.385 . S
C1592 C1590 1.478 . S
C1592 C1594 1.381 . S
C1592 C1598 1.383 . S
C1593 C1589 1.495 . S
C1593 H1599 0.959 . S
C1593 H1600 0.961 . S
C1593 H1601 0.960 . S
C1594 C1592 1.381 . S
C1594 C1595 1.394 . S
C1594 H1602 0.930 . S
C1595 C1594 1.394 . S
C1595 C1596 1.383 . S
C1595 H1603 0.929 . S
C1596 C1595 1.383 . S
C1596 C1597 1.377 . S
C1597 H1581 0.930 . S
C1597 C1596 1.377 . S
C1597 C1598 1.379 . S
C1598 H1582 0.931 . S
C1598 C1592 1.383 . S
C1598 C1597 1.379 . S
H1599 C1593 0.959 . S
H1600 C1593 0.961 . S
H1601 C1593 0.960 . S
H1602 C1594 0.930 . S
H1603 C1595 0.929 . S
H1604 C1612 0.929 . S
H1605 C1614 0.930 . S
H1606 C1616 0.930 . S
H1607 C1619 0.929 . S
H1608 C1622 0.930 . S
H1609 C1624 0.958 . S
H1610 C1624 0.960 . S
H1611 C1624 0.960 . S
C1612 H1604 0.929 . S
C1612 C1613 1.377 . S
C1612 C1614 1.384 . S
C1613 C1612 1.377 . S
C1613 C1619 1.390 . S
C1614 H1605 0.930 . S
C1614 C1612 1.384 . S
C1614 C1615 1.372 . S
C1615 C1614 1.372 . S
C1615 C1616 1.400 . S
C1615 C1620 1.490 . S
C1616 H1606 0.930 . S
C1616 C1615 1.400 . S
C1616 C1619 1.386 . S
H1617 C1633 0.930 . S
H1618 C1634 0.931 . S
C1619 H1607 0.929 . S
C1619 C1613 1.390 . S
C1619 C1616 1.386 . S
C1620 C1615 1.490 . S
C1620 C1622 1.395 . S
C1620 C1623 1.403 . S
H1621 C1627 0.930 1_565 S
C1622 H1608 0.930 . S
C1622 C1620 1.395 . S
C1622 C1625 1.403 . S
C1623 C1620 1.403 . S
C1623 C1624 1.524 . S
C1623 C1627 1.400 . S
C1624 H1609 0.958 . S
C1624 H1610 0.960 . S
C1624 H1611 0.960 . S
C1624 C1623 1.524 . S
C1625 C1622 1.403 . S
C1625 C1626 1.392 . S
C1625 C1629 1.495 . S
C1626 C1625 1.392 . S
C1626 C1627 1.385 . S
C1626 C1628 1.478 1_545 S
C1627 H1621 0.930 1_545 S
C1627 C1623 1.400 . S
C1627 C1626 1.385 . S
C1628 C1626 1.478 1_565 S
C1628 C1630 1.381 . S
C1628 C1634 1.383 . S
C1629 C1625 1.495 . S
C1629 H1635 0.959 . S
C1629 H1636 0.961 . S
C1629 H1637 0.960 . S
C1630 C1628 1.381 . S
C1630 C1631 1.394 . S
C1630 H1638 0.930 1_565 S
C1631 C1630 1.394 . S
C1631 C1632 1.383 . S
C1631 H1639 0.929 . S
C1632 C1631 1.383 . S
C1632 C1633 1.377 . S
C1633 H1617 0.930 . S
C1633 C1632 1.377 . S
C1633 C1634 1.379 . S
C1634 H1618 0.931 . S
C1634 C1628 1.383 . S
C1634 C1633 1.379 . S
H1635 C1629 0.959 . S
H1636 C1629 0.961 . S
H1637 C1629 0.960 . S
H1638 C1630 0.930 1_545 S
H1639 C1631 0.929 . S
H1640 C1648 0.929 . S
H1641 C1650 0.930 . S
H1642 C1652 0.930 . S
H1643 C1655 0.929 . S
H1644 C1658 0.930 . S
H1645 C1660 0.960 . S
H1646 C1660 0.960 . S
H1647 C1660 0.960 . S
C1648 H1640 0.929 . S
C1648 C1649 1.377 . S
C1648 C1650 1.384 . S
C1649 C1648 1.377 . S
C1649 C1655 1.390 . S
C1650 H1641 0.930 . S
C1650 C1648 1.384 . S
C1650 C1651 1.372 . S
C1651 C1650 1.372 . S
C1651 C1652 1.400 . S
C1651 C1656 1.490 . S
C1652 H1642 0.930 . S
C1652 C1651 1.400 . S
C1652 C1655 1.386 . S
H1653 C1669 0.930 . S
H1654 C1670 0.931 . S
C1655 H1643 0.929 . S
C1655 C1649 1.390 . S
C1655 C1652 1.386 . S
C1656 C1651 1.490 . S
C1656 C1658 1.395 . S
C1656 C1659 1.403 . S
H1657 C1663 0.930 . S
C1658 H1644 0.930 . S
C1658 C1656 1.395 . S
C1658 C1661 1.403 . S
C1659 C1656 1.403 . S
C1659 C1660 1.524 . S
C1659 C1663 1.400 . S
C1660 H1645 0.960 . S
C1660 H1646 0.960 . S
C1660 H1647 0.960 . S
C1660 C1659 1.524 . S
C1661 C1658 1.403 . S
C1661 C1662 1.392 . S
C1661 C1665 1.495 . S
C1662 C1661 1.392 . S
C1662 C1663 1.385 . S
C1662 C1664 1.478 . S
C1663 H1657 0.930 . S
C1663 C1659 1.400 . S
C1663 C1662 1.385 . S
C1664 C1662 1.478 . S
C1664 C1666 1.381 . S
C1664 C1670 1.383 . S
C1665 C1661 1.495 . S
C1665 H1671 0.959 . S
C1665 H1672 0.961 . S
C1665 H1673 0.960 . S
C1666 C1664 1.381 . S
C1666 C1667 1.394 . S
C1666 H1674 0.930 . S
C1667 C1666 1.394 . S
C1667 C1668 1.383 . S
C1667 H1675 0.929 . S
C1668 C1667 1.383 . S
C1668 C1669 1.377 . S
C1669 H1653 0.930 . S
C1669 C1668 1.377 . S
C1669 C1670 1.379 . S
C1670 H1654 0.931 . S
C1670 C1664 1.383 . S
C1670 C1669 1.379 . S
H1671 C1665 0.959 . S
H1672 C1665 0.961 . S
H1673 C1665 0.960 . S
H1674 C1666 0.930 . S
H1675 C1667 0.929 . S
H1676 C1684 0.929 . S
H1677 C1686 0.930 . S
H1678 C1688 0.930 . S
H1679 C1691 0.929 . S
H1680 C1694 0.930 . S
H1681 C1696 0.960 . S
H1682 C1696 0.960 . S
H1683 C1696 0.960 1_556 S
C1684 H1676 0.929 . S
C1684 C1685 1.377 . S
C1684 C1686 1.384 1_556 S
C1685 C1684 1.377 . S
C1685 C1691 1.390 . S
C1686 H1677 0.930 . S
C1686 C1684 1.384 1_554 S
C1686 C1687 1.372 . S
C1687 C1686 1.372 . S
C1687 C1688 1.400 1_554 S
C1687 C1692 1.490 . S
C1688 H1678 0.930 . S
C1688 C1687 1.400 1_556 S
C1688 C1691 1.386 . S
H1689 C1705 0.930 . S
H1690 C1706 0.931 . S
C1691 H1679 0.929 . S
C1691 C1685 1.390 . S
C1691 C1688 1.386 . S
C1692 C1687 1.490 . S
C1692 C1694 1.395 . S
C1692 C1695 1.403 . S
H1693 C1699 0.930 . S
C1694 H1680 0.930 . S
C1694 C1692 1.395 . S
C1694 C1697 1.403 . S
C1695 C1692 1.403 . S
C1695 C1696 1.524 . S
C1695 C1699 1.400 . S
C1696 H1681 0.960 . S
C1696 H1682 0.960 . S
C1696 H1683 0.960 1_554 S
C1696 C1695 1.524 . S
C1697 C1694 1.403 . S
C1697 C1698 1.392 . S
C1697 C1701 1.495 . S
C1698 C1697 1.392 . S
C1698 C1699 1.385 . S
C1698 C1700 1.478 1_565 S
C1699 H1693 0.930 . S
C1699 C1695 1.400 . S
C1699 C1698 1.385 . S
C1700 C1698 1.478 1_545 S
C1700 C1702 1.383 . S
C1700 C1706 1.383 . S
C1701 C1697 1.495 . S
C1701 H1707 0.959 . S
C1701 H1708 0.987 . S
C1701 H1709 0.960 . S
C1702 C1700 1.383 . S
C1702 C1703 1.402 . S
C1702 H1710 0.920 1_545 S
C1703 C1702 1.402 . S
C1703 C1704 1.383 . S
C1703 H1711 0.929 . S
C1704 C1703 1.383 . S
C1704 C1705 1.377 . S
C1705 H1689 0.930 . S
C1705 C1704 1.377 . S
C1705 C1706 1.379 . S
C1706 H1690 0.931 . S
C1706 C1700 1.383 . S
C1706 C1705 1.379 . S
H1707 C1701 0.959 . S
H1708 C1701 0.987 . S
H1709 C1701 0.960 . S
H1710 C1702 0.920 1_565 S
H1711 C1703 0.929 . S
H1712 C1720 0.929 . S
H1713 C1722 0.930 . S
H1714 C1724 0.930 . S
H1715 C1727 0.929 . S
H1716 C1730 0.930 . S
H1717 C1732 0.960 . S
H1718 C1732 0.960 . S
H1719 C1732 0.960 . S
C1720 H1712 0.929 . S
C1720 C1721 1.377 . S
C1720 C1722 1.384 . S
C1721 C1720 1.377 . S
C1721 C1727 1.390 . S
C1722 H1713 0.930 . S
C1722 C1720 1.384 . S
C1722 C1723 1.372 . S
C1723 C1722 1.372 . S
C1723 C1724 1.400 . S
C1723 C1728 1.490 . S
C1724 H1714 0.930 . S
C1724 C1723 1.400 . S
C1724 C1727 1.386 . S
H1725 C1741 0.930 . S
H1726 C1742 0.931 . S
C1727 H1715 0.929 . S
C1727 C1721 1.390 . S
C1727 C1724 1.386 . S
C1728 C1723 1.490 . S
C1728 C1730 1.395 . S
C1728 C1731 1.403 . S
H1729 C1735 0.930 . S
C1730 H1716 0.930 . S
C1730 C1728 1.395 . S
C1730 C1733 1.403 . S
C1731 C1728 1.403 . S
C1731 C1732 1.524 . S
C1731 C1735 1.400 . S
C1732 H1717 0.960 . S
C1732 H1718 0.960 . S
C1732 H1719 0.960 . S
C1732 C1731 1.524 . S
C1733 C1730 1.403 . S
C1733 C1734 1.392 . S
C1733 C1737 1.495 . S
C1734 C1733 1.392 . S
C1734 C1735 1.385 . S
C1734 C1736 1.478 . S
C1735 H1729 0.930 . S
C1735 C1731 1.400 . S
C1735 C1734 1.385 . S
C1736 C1734 1.478 . S
C1736 C1738 1.381 . S
C1736 C1742 1.383 . S
C1737 C1733 1.495 . S
C1737 H1743 0.959 . S
C1737 H1744 0.961 . S
C1737 H1745 0.960 . S
C1738 C1736 1.381 . S
C1738 C1739 1.394 . S
C1738 H1746 0.930 . S
C1739 C1738 1.394 . S
C1739 C1740 1.383 . S
C1739 H1747 0.929 . S
C1740 C1739 1.383 . S
C1740 C1741 1.377 . S
C1741 H1725 0.930 . S
C1741 C1740 1.377 . S
C1741 C1742 1.379 . S
C1742 H1726 0.931 . S
C1742 C1736 1.383 . S
C1742 C1741 1.379 . S
H1743 C1737 0.959 . S
H1744 C1737 0.961 . S
H1745 C1737 0.960 . S
H1746 C1738 0.930 . S
H1747 C1739 0.929 . S
H1748 C1756 0.929 . S
H1749 C1758 0.930 . S
H1750 C1760 0.930 . S
H1751 C1763 0.929 . S
H1752 C1766 0.930 . S
H1753 C1768 0.960 . S
H1754 C1768 0.960 . S
H1755 C1768 0.960 . S
C1756 H1748 0.929 . S
C1756 C1757 1.377 . S
C1756 C1758 1.384 . S
C1757 C1756 1.377 . S
C1757 C1763 1.390 . S
C1758 H1749 0.930 . S
C1758 C1756 1.384 . S
C1758 C1759 1.372 . S
C1759 C1758 1.372 . S
C1759 C1760 1.400 . S
C1759 C1764 1.490 . S
C1760 H1750 0.930 . S
C1760 C1759 1.400 . S
C1760 C1763 1.386 . S
H1761 C1777 0.930 . S
H1762 C1778 0.931 1_545 S
C1763 H1751 0.929 . S
C1763 C1757 1.390 . S
C1763 C1760 1.386 . S
C1764 C1759 1.490 . S
C1764 C1766 1.395 . S
C1764 C1767 1.403 . S
H1765 C1771 0.930 1_565 S
C1766 H1752 0.930 . S
C1766 C1764 1.395 . S
C1766 C1769 1.403 . S
C1767 C1764 1.403 . S
C1767 C1768 1.524 . S
C1767 C1771 1.400 . S
C1768 H1753 0.960 . S
C1768 H1754 0.960 . S
C1768 H1755 0.960 . S
C1768 C1767 1.524 . S
C1769 C1766 1.403 . S
C1769 C1770 1.392 . S
C1769 C1773 1.495 . S
C1770 C1769 1.392 . S
C1770 C1771 1.385 . S
C1770 C1772 1.478 1_545 S
C1771 H1765 0.930 1_545 S
C1771 C1767 1.400 . S
C1771 C1770 1.385 . S
C1772 C1770 1.478 1_565 S
C1772 C1774 1.381 . S
C1772 C1778 1.383 . S
C1773 C1769 1.495 . S
C1773 H1779 0.959 . S
C1773 H1780 0.961 . S
C1773 H1781 0.960 . S
C1774 C1772 1.381 . S
C1774 C1775 1.394 . S
C1774 H1782 0.930 . S
C1775 C1774 1.394 . S
C1775 C1776 1.383 . S
C1775 H1783 0.929 . S
C1776 C1775 1.383 . S
C1776 C1777 1.377 . S
C1777 H1761 0.930 . S
C1777 C1776 1.377 . S
C1777 C1778 1.379 . S
C1778 H1762 0.931 1_565 S
C1778 C1772 1.383 . S
C1778 C1777 1.379 . S
H1779 C1773 0.959 . S
H1780 C1773 0.961 . S
H1781 C1773 0.960 . S
H1782 C1774 0.930 . S
H1783 C1775 0.929 . S
H1784 C1792 0.929 . S
H1785 C1794 0.930 . S
H1786 C1796 0.930 . S
H1787 C1799 0.929 . S
H1788 C1802 0.930 . S
H1789 C1804 0.960 . S
H1790 C1804 0.960 . S
H1791 C1804 0.960 . S
C1792 H1784 0.929 . S
C1792 C1793 1.377 . S
C1792 C1794 1.384 . S
C1793 C1792 1.377 . S
C1793 C1799 1.390 . S
C1794 H1785 0.930 . S
C1794 C1792 1.384 . S
C1794 C1795 1.372 . S
C1795 C1794 1.372 . S
C1795 C1796 1.400 . S
C1795 C1800 1.490 . S
C1796 H1786 0.930 . S
C1796 C1795 1.400 . S
C1796 C1799 1.386 . S
H1797 C1813 0.930 . S
H1798 C1814 0.931 . S
C1799 H1787 0.929 . S
C1799 C1793 1.390 . S
C1799 C1796 1.386 . S
C1800 C1795 1.490 . S
C1800 C1802 1.395 . S
C1800 C1803 1.403 . S
H1801 C1807 0.930 . S
C1802 H1788 0.930 . S
C1802 C1800 1.395 . S
C1802 C1805 1.403 . S
C1803 C1800 1.403 . S
C1803 C1804 1.524 . S
C1803 C1807 1.400 . S
C1804 H1789 0.960 . S
C1804 H1790 0.960 . S
C1804 H1791 0.960 . S
C1804 C1803 1.524 . S
C1805 C1802 1.403 . S
C1805 C1806 1.392 . S
C1805 C1809 1.495 . S
C1806 C1805 1.392 . S
C1806 C1807 1.385 . S
C1806 C1808 1.478 . S
C1807 H1801 0.930 . S
C1807 C1803 1.400 . S
C1807 C1806 1.385 . S
C1808 C1806 1.478 . S
C1808 C1810 1.381 . S
C1808 C1814 1.383 . S
C1809 C1805 1.495 . S
C1809 H1815 0.959 . S
C1809 H1816 0.961 . S
C1809 H1817 0.960 . S
C1810 C1808 1.381 . S
C1810 C1811 1.394 . S
C1810 H1818 0.930 . S
C1811 C1810 1.394 . S
C1811 C1812 1.383 . S
C1811 H1819 0.929 . S
C1812 C1811 1.383 . S
C1812 C1813 1.377 . S
C1813 H1797 0.930 . S
C1813 C1812 1.377 . S
C1813 C1814 1.379 . S
C1814 H1798 0.931 . S
C1814 C1808 1.383 . S
C1814 C1813 1.379 . S
H1815 C1809 0.959 . S
H1816 C1809 0.961 . S
H1817 C1809 0.960 . S
H1818 C1810 0.930 . S
H1819 C1811 0.929 . S
H1820 C1828 0.929 . S
H1821 C1830 0.930 . S
H1822 C1832 0.930 . S
H1823 C1835 0.929 . S
H1824 C1838 0.930 . S
H1825 C1840 0.960 . S
H1826 C1840 0.960 . S
H1827 C1840 0.960 . S
C1828 H1820 0.929 . S
C1828 C1829 1.377 . S
C1828 C1830 1.384 . S
C1829 C1828 1.377 . S
C1829 C1835 1.390 . S
C1830 H1821 0.930 . S
C1830 C1828 1.384 . S
C1830 C1831 1.372 . S
C1831 C1830 1.372 . S
C1831 C1832 1.400 . S
C1831 C1836 1.490 1_545 S
C1832 H1822 0.930 . S
C1832 C1831 1.400 . S
C1832 C1835 1.386 . S
H1833 C1849 0.930 . S
H1834 C1850 0.947 . S
C1835 H1823 0.929 . S
C1835 C1829 1.390 . S
C1835 C1832 1.386 . S
C1836 C1831 1.490 1_565 S
C1836 C1838 1.395 . S
C1836 C1839 1.403 . S
H1837 C1843 0.894 1_554 S
C1838 H1824 0.930 . S
C1838 C1836 1.395 . S
C1838 C1841 1.403 . S
C1839 C1836 1.403 . S
C1839 C1840 1.524 1_565 S
C1839 C1843 1.400 . S
C1840 H1825 0.960 . S
C1840 H1826 0.960 . S
C1840 H1827 0.960 . S
C1840 C1839 1.524 1_545 S
C1841 C1838 1.403 . S
C1841 C1842 1.392 . S
C1841 C1845 1.495 . S
C1842 C1841 1.392 . S
C1842 C1843 1.385 . S
C1842 C1844 1.478 . S
C1843 H1837 0.894 1_556 S
C1843 C1839 1.400 . S
C1843 C1842 1.385 . S
C1844 C1842 1.478 . S
C1844 C1846 1.363 1_556 S
C1844 C1850 1.383 1_556 S
C1845 C1841 1.495 . S
C1845 H1851 0.959 . S
C1845 H1852 0.961 . S
C1845 H1853 0.960 . S
C1846 C1844 1.363 1_554 S
C1846 C1847 1.445 . S
C1846 H1854 0.901 1_554 S
C1847 C1846 1.445 . S
C1847 C1848 1.383 . S
C1847 H1855 0.929 . S
C1848 C1847 1.383 . S
C1848 C1849 1.377 . S
C1849 H1833 0.930 . S
C1849 C1848 1.377 . S
C1849 C1850 1.379 . S
C1850 H1834 0.947 . S
C1850 C1844 1.383 1_554 S
C1850 C1849 1.379 . S
H1851 C1845 0.959 . S
H1852 C1845 0.961 . S
H1853 C1845 0.960 . S
H1854 C1846 0.901 1_556 S
H1855 C1847 0.929 . S
H1856 C1864 0.929 . S
H1857 C1866 0.930 . S
H1858 C1868 0.930 . S
H1859 C1871 0.929 . S
H1860 C1874 0.930 . S
H1861 C1876 0.960 . S
H1862 C1876 0.960 . S
H1863 C1876 0.960 . S
C1864 H1856 0.929 . S
C1864 C1865 1.377 . S
C1864 C1866 1.384 . S
C1865 C1864 1.377 . S
C1865 C1871 1.390 . S
C1866 H1857 0.930 . S
C1866 C1864 1.384 . S
C1866 C1867 1.372 . S
C1867 C1866 1.372 . S
C1867 C1868 1.400 . S
C1867 C1872 1.490 . S
C1868 H1858 0.930 . S
C1868 C1867 1.400 . S
C1868 C1871 1.386 . S
H1869 C1885 0.930 . S
H1870 C1886 0.931 . S
C1871 H1859 0.929 . S
C1871 C1865 1.390 . S
C1871 C1868 1.386 . S
C1872 C1867 1.490 . S
C1872 C1874 1.395 . S
C1872 C1875 1.403 . S
H1873 C1879 0.930 . S
C1874 H1860 0.930 . S
C1874 C1872 1.395 . S
C1874 C1877 1.403 . S
C1875 C1872 1.403 . S
C1875 C1876 1.524 . S
C1875 C1879 1.400 . S
C1876 H1861 0.960 . S
C1876 H1862 0.960 . S
C1876 H1863 0.960 . S
C1876 C1875 1.524 . S
C1877 C1874 1.403 . S
C1877 C1878 1.392 . S
C1877 C1881 1.495 . S
C1878 C1877 1.392 . S
C1878 C1879 1.385 . S
C1878 C1880 1.478 . S
C1879 H1873 0.930 . S
C1879 C1875 1.400 . S
C1879 C1878 1.385 . S
C1880 C1878 1.478 . S
C1880 C1882 1.381 . S
C1880 C1886 1.383 . S
C1881 C1877 1.495 . S
C1881 H1887 0.959 . S
C1881 H1888 0.961 . S
C1881 H1889 0.960 . S
C1882 C1880 1.381 . S
C1882 C1883 1.394 . S
C1882 H1890 0.930 . S
C1883 C1882 1.394 . S
C1883 C1884 1.383 . S
C1883 H1891 0.929 . S
C1884 C1883 1.383 . S
C1884 C1885 1.377 . S
C1885 H1869 0.930 . S
C1885 C1884 1.377 . S
C1885 C1886 1.379 . S
C1886 H1870 0.931 . S
C1886 C1880 1.383 . S
C1886 C1885 1.379 . S
H1887 C1881 0.959 . S
H1888 C1881 0.961 . S
H1889 C1881 0.960 . S
H1890 C1882 0.930 . S
H1891 C1883 0.929 . S
H1892 C1900 0.929 . S
H1893 C1902 0.930 . S
H1894 C1904 0.930 . S
H1895 C1907 0.929 . S
H1896 C1910 0.930 . S
H1897 C1912 0.960 . S
H1898 C1912 0.960 . S
H1899 C1912 0.960 . S
C1900 H1892 0.929 . S
C1900 C1901 1.377 . S
C1900 C1902 1.384 . S
C1901 C1900 1.377 . S
C1901 C1907 1.390 . S
C1902 H1893 0.930 . S
C1902 C1900 1.384 . S
C1902 C1903 1.372 . S
C1903 C1902 1.372 . S
C1903 C1904 1.400 . S
C1903 C1908 1.490 . S
C1904 H1894 0.930 . S
C1904 C1903 1.400 . S
C1904 C1907 1.386 . S
H1905 C1921 0.930 . S
H1906 C1922 0.933 . S
C1907 H1895 0.929 . S
C1907 C1901 1.390 . S
C1907 C1904 1.386 . S
C1908 C1903 1.490 . S
C1908 C1910 1.395 . S
C1908 C1911 1.403 . S
H1909 C1915 0.930 . S
C1910 H1896 0.930 . S
C1910 C1908 1.395 . S
C1910 C1913 1.403 . S
C1911 C1908 1.403 . S
C1911 C1912 1.524 . S
C1911 C1915 1.400 . S
C1912 H1897 0.960 . S
C1912 H1898 0.960 . S
C1912 H1899 0.960 . S
C1912 C1911 1.524 . S
C1913 C1910 1.403 . S
C1913 C1914 1.392 . S
C1913 C1917 1.495 . S
C1914 C1913 1.392 . S
C1914 C1915 1.385 . S
C1914 C1916 1.478 . S
C1915 H1909 0.930 . S
C1915 C1911 1.400 . S
C1915 C1914 1.385 . S
C1916 C1914 1.478 . S
C1916 C1918 1.381 1_556 S
C1916 C1922 1.383 . S
C1917 C1913 1.495 . S
C1917 H1923 0.959 . S
C1917 H1924 0.961 . S
C1917 H1925 0.960 . S
C1918 C1916 1.381 1_554 S
C1918 C1919 1.394 . S
C1918 H1926 0.930 . S
C1919 C1918 1.394 . S
C1919 C1920 1.383 . S
C1919 H1927 0.929 . S
C1920 C1919 1.383 . S
C1920 C1921 1.377 . S
C1921 H1905 0.930 . S
C1921 C1920 1.377 . S
C1921 C1922 1.377 1_554 S
C1922 H1906 0.933 . S
C1922 C1916 1.383 . S
C1922 C1921 1.377 1_556 S
H1923 C1917 0.959 . S
H1924 C1917 0.961 . S
H1925 C1917 0.960 . S
H1926 C1918 0.930 . S
H1927 C1919 0.929 . S
H1928 C1936 0.929 . S
H1929 C1938 0.930 . S
H1930 C1940 0.930 . S
H1931 C1943 0.929 . S
H1932 C1946 0.930 . S
H1933 C1948 0.960 . S
H1934 C1948 0.960 . S
H1935 C1948 0.960 . S
C1936 H1928 0.929 . S
C1936 C1937 1.377 . S
C1936 C1938 1.384 . S
C1937 C1936 1.377 . S
C1937 C1943 1.390 . S
C1938 H1929 0.930 . S
C1938 C1936 1.384 . S
C1938 C1939 1.372 . S
C1939 C1938 1.372 . S
C1939 C1940 1.400 . S
C1939 C1944 1.490 . S
C1940 H1930 0.930 . S
C1940 C1939 1.400 . S
C1940 C1943 1.386 . S
H1941 C1957 0.930 . S
H1942 C1958 0.931 . S
C1943 H1931 0.929 . S
C1943 C1937 1.390 . S
C1943 C1940 1.386 . S
C1944 C1939 1.490 . S
C1944 C1946 1.395 . S
C1944 C1947 1.403 . S
H1945 C1951 0.930 . S
C1946 H1932 0.930 . S
C1946 C1944 1.395 . S
C1946 C1949 1.403 . S
C1947 C1944 1.403 . S
C1947 C1948 1.524 . S
C1947 C1951 1.400 . S
C1948 H1933 0.960 . S
C1948 H1934 0.960 . S
C1948 H1935 0.960 . S
C1948 C1947 1.524 . S
C1949 C1946 1.403 . S
C1949 C1950 1.392 . S
C1949 C1953 1.495 . S
C1950 C1949 1.392 . S
C1950 C1951 1.385 . S
C1950 C1952 1.478 . S
C1951 H1945 0.930 . S
C1951 C1947 1.400 . S
C1951 C1950 1.385 . S
C1952 C1950 1.478 . S
C1952 C1954 1.381 . S
C1952 C1958 1.383 . S
C1953 C1949 1.495 . S
C1953 H1959 0.959 . S
C1953 H1960 0.961 . S
C1953 H1961 0.960 . S
C1954 C1952 1.381 . S
C1954 C1955 1.394 . S
C1954 H1962 0.930 . S
C1955 C1954 1.394 . S
C1955 C1956 1.383 . S
C1955 H1963 0.929 . S
C1956 C1955 1.383 . S
C1956 C1957 1.377 . S
C1957 H1941 0.930 . S
C1957 C1956 1.377 . S
C1957 C1958 1.379 . S
C1958 H1942 0.931 . S
C1958 C1952 1.383 . S
C1958 C1957 1.379 . S
H1959 C1953 0.959 . S
H1960 C1953 0.961 . S
H1961 C1953 0.960 . S
H1962 C1954 0.930 . S
H1963 C1955 0.929 . S
H1964 C1972 0.929 . S
H1965 C1974 0.930 . S
H1966 C1976 0.930 . S
H1967 C1979 0.929 . S
H1968 C1982 0.930 . S
H1969 C1984 0.960 . S
H1970 C1984 0.960 . S
H1971 C1984 0.960 . S
C1972 H1964 0.929 . S
C1972 C1973 1.377 . S
C1972 C1974 1.384 . S
C1973 C1972 1.377 . S
C1973 C1979 1.390 . S
C1974 H1965 0.930 . S
C1974 C1972 1.384 . S
C1974 C1975 1.372 . S
C1975 C1974 1.372 . S
C1975 C1976 1.400 . S
C1975 C1980 1.490 . S
C1976 H1966 0.930 . S
C1976 C1975 1.400 . S
C1976 C1979 1.386 . S
H1977 C1993 0.930 . S
H1978 C1994 0.931 . S
C1979 H1967 0.929 . S
C1979 C1973 1.390 . S
C1979 C1976 1.386 . S
C1980 C1975 1.490 . S
C1980 C1982 1.395 . S
C1980 C1983 1.403 . S
H1981 C1987 0.930 . S
C1982 H1968 0.930 . S
C1982 C1980 1.395 . S
C1982 C1985 1.403 . S
C1983 C1980 1.403 . S
C1983 C1984 1.524 . S
C1983 C1987 1.400 . S
C1984 H1969 0.960 . S
C1984 H1970 0.960 . S
C1984 H1971 0.960 . S
C1984 C1983 1.524 . S
C1985 C1982 1.403 . S
C1985 C1986 1.392 . S
C1985 C1989 1.495 . S
C1986 C1985 1.392 . S
C1986 C1987 1.385 . S
C1986 C1988 1.478 . S
C1987 H1981 0.930 . S
C1987 C1983 1.400 . S
C1987 C1986 1.385 . S
C1988 C1986 1.478 . S
C1988 C1990 1.381 . S
C1988 C1994 1.383 . S
C1989 C1985 1.495 . S
C1989 H1995 0.959 . S
C1989 H1996 0.961 . S
C1989 H1997 0.960 . S
C1990 C1988 1.381 . S
C1990 C1991 1.394 . S
C1990 H1998 0.930 . S
C1991 C1990 1.394 . S
C1991 C1992 1.383 . S
C1991 H1999 0.929 . S
C1992 C1991 1.383 . S
C1992 C1993 1.377 . S
C1993 H1977 0.930 . S
C1993 C1992 1.377 . S
C1993 C1994 1.379 . S
C1994 H1978 0.931 . S
C1994 C1988 1.383 . S
C1994 C1993 1.379 . S
H1995 C1989 0.959 . S
H1996 C1989 0.961 . S
H1997 C1989 0.960 . S
H1998 C1990 0.930 . S
H1999 C1991 0.929 . S
H2000 C2008 0.929 . S
H2001 C2010 0.930 . S
H2002 C2012 0.930 . S
H2003 C2015 0.929 . S
H2004 C2018 0.930 . S
H2005 C2020 0.960 . S
H2006 C2020 0.960 . S
H2007 C2020 0.960 . S
C2008 H2000 0.929 . S
C2008 C2009 1.377 . S
C2008 C2010 1.384 . S
C2009 C2008 1.377 . S
C2009 C2015 1.390 . S
C2010 H2001 0.930 . S
C2010 C2008 1.384 . S
C2010 C2011 1.372 . S
C2011 C2010 1.372 . S
C2011 C2012 1.400 . S
C2011 C2016 1.490 . S
C2012 H2002 0.930 . S
C2012 C2011 1.400 . S
C2012 C2015 1.386 . S
H2013 C2029 0.930 . S
H2014 C2030 0.931 . S
C2015 H2003 0.929 . S
C2015 C2009 1.390 . S
C2015 C2012 1.386 . S
C2016 C2011 1.490 . S
C2016 C2018 1.395 . S
C2016 C2019 1.403 . S
H2017 C2023 0.930 . S
C2018 H2004 0.930 . S
C2018 C2016 1.395 . S
C2018 C2021 1.403 . S
C2019 C2016 1.403 . S
C2019 C2020 1.524 . S
C2019 C2023 1.400 . S
C2020 H2005 0.960 . S
C2020 H2006 0.960 . S
C2020 H2007 0.960 . S
C2020 C2019 1.524 . S
C2021 C2018 1.403 . S
C2021 C2022 1.392 . S
C2021 C2025 1.495 . S
C2022 C2021 1.392 . S
C2022 C2023 1.385 . S
C2022 C2024 1.478 . S
C2023 H2017 0.930 . S
C2023 C2019 1.400 . S
C2023 C2022 1.385 . S
C2024 C2022 1.478 . S
C2024 C2026 1.381 . S
C2024 C2030 1.383 . S
C2025 C2021 1.495 . S
C2025 H2031 0.959 . S
C2025 H2032 0.961 . S
C2025 H2033 0.960 . S
C2026 C2024 1.381 . S
C2026 C2027 1.394 . S
C2026 H2034 0.930 . S
C2027 C2026 1.394 . S
C2027 C2028 1.383 . S
C2027 H2035 0.929 . S
C2028 C2027 1.383 . S
C2028 C2029 1.377 . S
C2029 H2013 0.930 . S
C2029 C2028 1.377 . S
C2029 C2030 1.379 . S
C2030 H2014 0.931 . S
C2030 C2024 1.383 . S
C2030 C2029 1.379 . S
H2031 C2025 0.959 . S
H2032 C2025 0.961 . S
H2033 C2025 0.960 . S
H2034 C2026 0.930 . S
H2035 C2027 0.929 . S
H2036 C2044 0.929 . S
H2037 C2046 0.930 . S
H2038 C2048 0.930 . S
H2039 C2051 0.929 . S
H2040 C2054 0.930 . S
H2041 C2056 0.960 . S
H2042 C2056 0.960 . S
H2043 C2056 0.960 . S
C2044 H2036 0.929 . S
C2044 C2045 1.377 . S
C2044 C2046 1.384 . S
C2045 C2044 1.377 . S
C2045 C2051 1.390 . S
C2046 H2037 0.930 . S
C2046 C2044 1.384 . S
C2046 C2047 1.372 . S
C2047 C2046 1.372 . S
C2047 C2048 1.400 . S
C2047 C2052 1.490 . S
C2048 H2038 0.930 . S
C2048 C2047 1.400 . S
C2048 C2051 1.386 . S
H2049 C2065 0.930 . S
H2050 C2066 0.931 . S
C2051 H2039 0.929 . S
C2051 C2045 1.390 . S
C2051 C2048 1.386 . S
C2052 C2047 1.490 . S
C2052 C2054 1.395 . S
C2052 C2055 1.403 . S
H2053 C2059 0.939 . S
C2054 H2040 0.930 . S
C2054 C2052 1.395 . S
C2054 C2057 1.403 . S
C2055 C2052 1.403 . S
C2055 C2056 1.524 . S
C2055 C2059 1.400 . S
C2056 H2041 0.960 . S
C2056 H2042 0.960 . S
C2056 H2043 0.960 . S
C2056 C2055 1.524 . S
C2057 C2054 1.403 . S
C2057 C2058 1.392 . S
C2057 C2061 1.495 . S
C2058 C2057 1.392 . S
C2058 C2059 1.385 . S
C2058 C2060 1.478 . S
C2059 H2053 0.939 . S
C2059 C2055 1.400 . S
C2059 C2058 1.385 . S
C2060 C2058 1.478 . S
C2060 C2062 1.381 . S
C2060 C2066 1.383 1_554 S
C2061 C2057 1.495 . S
C2061 H2067 0.959 . S
C2061 H2068 0.961 . S
C2061 H2069 0.960 . S
C2062 C2060 1.381 . S
C2062 C2063 1.394 1_554 S
C2062 H2070 0.930 . S
C2063 C2062 1.394 1_556 S
C2063 C2064 1.383 . S
C2063 H2071 0.929 . S
C2064 C2063 1.383 . S
C2064 C2065 1.377 . S
C2065 H2049 0.930 . S
C2065 C2064 1.377 . S
C2065 C2066 1.379 . S
C2066 H2050 0.931 . S
C2066 C2060 1.383 1_556 S
C2066 C2065 1.379 . S
H2067 C2061 0.959 . S
H2068 C2061 0.961 . S
H2069 C2061 0.960 . S
H2070 C2062 0.930 . S
H2071 C2063 0.929 . S
H2072 C2080 0.929 . S
H2073 C2082 0.930 . S
H2074 C2084 0.930 . S
H2075 C2087 0.929 . S
H2076 C2090 0.930 . S
H2077 C2092 0.960 . S
H2078 C2092 0.960 . S
H2079 C2092 0.960 . S
C2080 H2072 0.929 . S
C2080 C2081 1.377 . S
C2080 C2082 1.384 . S
C2081 C2080 1.377 . S
C2081 C2087 1.390 . S
C2082 H2073 0.930 . S
C2082 C2080 1.384 . S
C2082 C2083 1.372 . S
C2083 C2082 1.372 . S
C2083 C2084 1.400 . S
C2083 C2088 1.490 . S
C2084 H2074 0.930 . S
C2084 C2083 1.400 . S
C2084 C2087 1.386 . S
H2085 C2101 0.930 . S
H2086 C2102 0.931 . S
C2087 H2075 0.929 . S
C2087 C2081 1.390 . S
C2087 C2084 1.386 . S
C2088 C2083 1.490 . S
C2088 C2090 1.395 . S
C2088 C2091 1.403 . S
H2089 C2095 0.930 . S
C2090 H2076 0.930 . S
C2090 C2088 1.395 . S
C2090 C2093 1.403 . S
C2091 C2088 1.403 . S
C2091 C2092 1.524 . S
C2091 C2095 1.400 . S
C2092 H2077 0.960 . S
C2092 H2078 0.960 . S
C2092 H2079 0.960 . S
C2092 C2091 1.524 . S
C2093 C2090 1.403 . S
C2093 C2094 1.392 . S
C2093 C2097 1.495 . S
C2094 C2093 1.392 . S
C2094 C2095 1.385 . S
C2094 C2096 1.478 . S
C2095 H2089 0.930 . S
C2095 C2091 1.400 . S
C2095 C2094 1.385 . S
C2096 C2094 1.478 . S
C2096 C2098 1.381 . S
C2096 C2102 1.383 . S
C2097 C2093 1.495 . S
C2097 H2103 0.959 . S
C2097 H2104 0.961 . S
C2097 H2105 0.960 . S
C2098 C2096 1.381 . S
C2098 C2099 1.394 . S
C2098 H2106 0.930 . S
C2099 C2098 1.394 . S
C2099 C2100 1.383 . S
C2099 H2107 0.929 . S
C2100 C2099 1.383 . S
C2100 C2101 1.377 . S
C2101 H2085 0.930 . S
C2101 C2100 1.377 . S
C2101 C2102 1.379 . S
C2102 H2086 0.931 . S
C2102 C2096 1.383 . S
C2102 C2101 1.379 . S
H2103 C2097 0.959 . S
H2104 C2097 0.961 . S
H2105 C2097 0.960 . S
H2106 C2098 0.930 . S
H2107 C2099 0.929 . S
H2108 C2116 0.929 . S
H2109 C2118 0.930 . S
H2110 C2120 0.930 . S
H2111 C2123 0.929 . S
H2112 C2126 0.930 . S
H2113 C2128 0.960 . S
H2114 C2128 0.960 . S
H2115 C2128 0.960 . S
C2116 H2108 0.929 . S
C2116 C2117 1.377 . S
C2116 C2118 1.384 . S
C2117 C2116 1.377 . S
C2117 C2123 1.390 . S
C2118 H2109 0.930 . S
C2118 C2116 1.384 . S
C2118 C2119 1.372 . S
C2119 C2118 1.372 . S
C2119 C2120 1.400 . S
C2119 C2124 1.490 . S
C2120 H2110 0.930 . S
C2120 C2119 1.400 . S
C2120 C2123 1.386 . S
H2121 C2137 0.930 . S
H2122 C2138 0.931 . S
C2123 H2111 0.929 . S
C2123 C2117 1.390 . S
C2123 C2120 1.386 . S
C2124 C2119 1.490 . S
C2124 C2126 1.395 . S
C2124 C2127 1.403 . S
H2125 C2131 0.930 . S
C2126 H2112 0.930 . S
C2126 C2124 1.395 . S
C2126 C2129 1.403 . S
C2127 C2124 1.403 . S
C2127 C2128 1.524 . S
C2127 C2131 1.400 . S
C2128 H2113 0.960 . S
C2128 H2114 0.960 . S
C2128 H2115 0.960 . S
C2128 C2127 1.524 . S
C2129 C2126 1.403 . S
C2129 C2130 1.392 . S
C2129 C2133 1.495 . S
C2130 C2129 1.392 . S
C2130 C2131 1.385 . S
C2130 C2132 1.478 . S
C2131 H2125 0.930 . S
C2131 C2127 1.400 . S
C2131 C2130 1.385 . S
C2132 C2130 1.478 . S
C2132 C2134 1.381 . S
C2132 C2138 1.383 . S
C2133 C2129 1.495 . S
C2133 H2139 0.959 . S
C2133 H2140 0.961 . S
C2133 H2141 0.960 . S
C2134 C2132 1.381 . S
C2134 C2135 1.394 . S
C2134 H2142 0.930 . S
C2135 C2134 1.394 . S
C2135 C2136 1.383 . S
C2135 H2143 0.929 . S
C2136 C2135 1.383 . S
C2136 C2137 1.377 . S
C2137 H2121 0.930 . S
C2137 C2136 1.377 . S
C2137 C2138 1.379 . S
C2138 H2122 0.931 . S
C2138 C2132 1.383 . S
C2138 C2137 1.379 . S
H2139 C2133 0.959 . S
H2140 C2133 0.961 . S
H2141 C2133 0.960 . S
H2142 C2134 0.930 . S
H2143 C2135 0.929 . S
H2144 C2152 0.929 . S
H2145 C2154 0.930 . S
H2146 C2156 0.930 . S
H2147 C2159 0.929 . S
H2148 C2162 0.930 . S
H2149 C2164 0.960 . S
H2150 C2164 0.960 . S
H2151 C2164 0.960 . S
C2152 H2144 0.929 . S
C2152 C2153 1.377 . S
C2152 C2154 1.384 . S
C2153 C2152 1.377 . S
C2153 C2159 1.390 . S
C2154 H2145 0.930 . S
C2154 C2152 1.384 . S
C2154 C2155 1.372 . S
C2155 C2154 1.372 . S
C2155 C2156 1.400 . S
C2155 C2160 1.490 . S
C2156 H2146 0.930 . S
C2156 C2155 1.400 . S
C2156 C2159 1.386 . S
H2157 C2173 0.930 . S
H2158 C2174 0.931 . S
C2159 H2147 0.929 . S
C2159 C2153 1.390 . S
C2159 C2156 1.386 . S
C2160 C2155 1.490 . S
C2160 C2162 1.395 . S
C2160 C2163 1.403 . S
H2161 C2167 0.930 . S
C2162 H2148 0.930 . S
C2162 C2160 1.395 . S
C2162 C2165 1.403 . S
C2163 C2160 1.403 . S
C2163 C2164 1.524 . S
C2163 C2167 1.400 . S
C2164 H2149 0.960 . S
C2164 H2150 0.960 . S
C2164 H2151 0.960 . S
C2164 C2163 1.524 . S
C2165 C2162 1.403 . S
C2165 C2166 1.392 . S
C2165 C2169 1.495 . S
C2166 C2165 1.392 . S
C2166 C2167 1.385 . S
C2166 C2168 1.478 . S
C2167 H2161 0.930 . S
C2167 C2163 1.400 . S
C2167 C2166 1.385 . S
C2168 C2166 1.478 . S
C2168 C2170 1.381 . S
C2168 C2174 1.383 . S
C2169 C2165 1.495 . S
C2169 H2175 0.959 . S
C2169 H2176 0.961 . S
C2169 H2177 0.960 . S
C2170 C2168 1.381 . S
C2170 C2171 1.394 . S
C2170 H2178 0.930 . S
C2171 C2170 1.394 . S
C2171 C2172 1.383 . S
C2171 H2179 0.929 . S
C2172 C2171 1.383 . S
C2172 C2173 1.377 . S
C2173 H2157 0.930 . S
C2173 C2172 1.377 . S
C2173 C2174 1.379 . S
C2174 H2158 0.931 . S
C2174 C2168 1.383 . S
C2174 C2173 1.379 . S
H2175 C2169 0.959 . S
H2176 C2169 0.961 . S
H2177 C2169 0.960 . S
H2178 C2170 0.930 . S
H2179 C2171 0.929 . S
H2180 C2188 0.929 . S
H2181 C2190 0.930 . S
H2182 C2192 0.930 . S
H2183 C2195 0.929 . S
H2184 C2198 0.930 . S
H2185 C2200 0.960 . S
H2186 C2200 0.960 . S
H2187 C2200 0.960 . S
C2188 H2180 0.929 . S
C2188 C2189 1.377 . S
C2188 C2190 1.384 . S
C2189 C2188 1.377 . S
C2189 C2195 1.390 . S
C2190 H2181 0.930 . S
C2190 C2188 1.384 . S
C2190 C2191 1.372 . S
C2191 C2190 1.372 . S
C2191 C2192 1.400 . S
C2191 C2196 1.490 . S
C2192 H2182 0.930 . S
C2192 C2191 1.400 . S
C2192 C2195 1.386 . S
H2193 C2209 0.930 . S
H2194 C2210 0.931 . S
C2195 H2183 0.929 . S
C2195 C2189 1.390 . S
C2195 C2192 1.386 . S
C2196 C2191 1.490 . S
C2196 C2198 1.395 . S
C2196 C2199 1.403 . S
H2197 C2203 0.930 . S
C2198 H2184 0.930 . S
C2198 C2196 1.395 . S
C2198 C2201 1.403 . S
C2199 C2196 1.403 . S
C2199 C2200 1.524 . S
C2199 C2203 1.400 . S
C2200 H2185 0.960 . S
C2200 H2186 0.960 . S
C2200 H2187 0.960 . S
C2200 C2199 1.524 . S
C2201 C2198 1.403 . S
C2201 C2202 1.392 . S
C2201 C2205 1.495 . S
C2202 C2201 1.392 . S
C2202 C2203 1.385 . S
C2202 C2204 1.478 . S
C2203 H2197 0.930 . S
C2203 C2199 1.400 . S
C2203 C2202 1.385 . S
C2204 C2202 1.478 . S
C2204 C2206 1.381 . S
C2204 C2210 1.383 1_554 S
C2205 C2201 1.495 . S
C2205 H2211 0.959 . S
C2205 H2212 0.961 . S
C2205 H2213 0.960 . S
C2206 C2204 1.381 . S
C2206 C2207 1.394 1_554 S
C2206 H2214 0.930 . S
C2207 C2206 1.394 1_556 S
C2207 C2208 1.383 . S
C2207 H2215 0.929 . S
C2208 C2207 1.383 . S
C2208 C2209 1.377 . S
C2209 H2193 0.930 . S
C2209 C2208 1.377 . S
C2209 C2210 1.379 . S
C2210 H2194 0.931 . S
C2210 C2204 1.383 1_556 S
C2210 C2209 1.379 . S
H2211 C2205 0.959 . S
H2212 C2205 0.961 . S
H2213 C2205 0.960 . S
H2214 C2206 0.930 . S
H2215 C2207 0.929 . S
H2216 C2224 0.929 . S
H2217 C2226 0.930 . S
H2218 C2228 0.930 . S
H2219 C2231 0.929 . S
H2220 C2234 0.930 . S
H2221 C2236 0.960 . S
H2222 C2236 0.960 . S
H2223 C2236 0.960 . S
C2224 H2216 0.929 . S
C2224 C2225 1.377 . S
C2224 C2226 1.384 . S
C2225 C2224 1.377 . S
C2225 C2231 1.390 . S
C2226 H2217 0.930 . S
C2226 C2224 1.384 . S
C2226 C2227 1.372 . S
C2227 C2226 1.372 . S
C2227 C2228 1.400 . S
C2227 C2232 1.490 . S
C2228 H2218 0.930 . S
C2228 C2227 1.400 . S
C2228 C2231 1.386 . S
H2229 C2245 0.930 . S
H2230 C2246 0.931 . S
C2231 H2219 0.929 . S
C2231 C2225 1.390 . S
C2231 C2228 1.386 . S
C2232 C2227 1.490 . S
C2232 C2234 1.395 . S
C2232 C2235 1.403 . S
H2233 C2239 0.930 . S
C2234 H2220 0.930 . S
C2234 C2232 1.395 . S
C2234 C2237 1.403 . S
C2235 C2232 1.403 . S
C2235 C2236 1.524 . S
C2235 C2239 1.400 . S
C2236 H2221 0.960 . S
C2236 H2222 0.960 . S
C2236 H2223 0.960 . S
C2236 C2235 1.524 . S
C2237 C2234 1.403 . S
C2237 C2238 1.392 . S
C2237 C2241 1.495 . S
C2238 C2237 1.392 . S
C2238 C2239 1.385 . S
C2238 C2240 1.478 . S
C2239 H2233 0.930 . S
C2239 C2235 1.400 . S
C2239 C2238 1.385 . S
C2240 C2238 1.478 . S
C2240 C2242 1.381 . S
C2240 C2246 1.383 . S
C2241 C2237 1.495 . S
C2241 H2247 0.959 . S
C2241 H2248 0.961 . S
C2241 H2249 0.960 . S
C2242 C2240 1.381 . S
C2242 C2243 1.394 . S
C2242 H2250 0.930 . S
C2243 C2242 1.394 . S
C2243 C2244 1.383 . S
C2243 H2251 0.929 . S
C2244 C2243 1.383 . S
C2244 C2245 1.377 . S
C2245 H2229 0.930 . S
C2245 C2244 1.377 . S
C2245 C2246 1.379 . S
C2246 H2230 0.931 . S
C2246 C2240 1.383 . S
C2246 C2245 1.379 . S
H2247 C2241 0.959 . S
H2248 C2241 0.961 . S
H2249 C2241 0.960 . S
H2250 C2242 0.930 . S
H2251 C2243 0.929 . S
H2252 C2260 0.929 . S
H2253 C2262 0.930 . S
H2254 C2264 0.930 . S
H2255 C2267 0.929 . S
H2256 C2270 0.930 . S
H2257 C2272 0.960 . S
H2258 C2272 0.960 . S
H2259 C2272 0.960 . S
C2260 H2252 0.929 . S
C2260 C2261 1.377 . S
C2260 C2262 1.384 . S
C2261 C2260 1.377 . S
C2261 C2267 1.390 . S
C2262 H2253 0.930 . S
C2262 C2260 1.384 . S
C2262 C2263 1.372 . S
C2263 C2262 1.372 . S
C2263 C2264 1.400 . S
C2263 C2268 1.490 . S
C2264 H2254 0.930 . S
C2264 C2263 1.400 . S
C2264 C2267 1.386 . S
H2265 C2281 0.930 . S
H2266 C2282 0.931 . S
C2267 H2255 0.929 . S
C2267 C2261 1.390 . S
C2267 C2264 1.386 . S
C2268 C2263 1.490 . S
C2268 C2270 1.395 . S
C2268 C2271 1.403 . S
H2269 C2275 0.930 . S
C2270 H2256 0.930 . S
C2270 C2268 1.395 . S
C2270 C2273 1.403 . S
C2271 C2268 1.403 . S
C2271 C2272 1.524 . S
C2271 C2275 1.400 . S
C2272 H2257 0.960 . S
C2272 H2258 0.960 . S
C2272 H2259 0.960 . S
C2272 C2271 1.524 . S
C2273 C2270 1.403 . S
C2273 C2274 1.392 . S
C2273 C2277 1.495 . S
C2274 C2273 1.392 . S
C2274 C2275 1.385 . S
C2274 C2276 1.478 . S
C2275 H2269 0.930 . S
C2275 C2271 1.400 . S
C2275 C2274 1.385 . S
C2276 C2274 1.478 . S
C2276 C2278 1.381 . S
C2276 C2282 1.383 . S
C2277 C2273 1.495 . S
C2277 H2283 0.959 . S
C2277 H2284 0.961 . S
C2277 H2285 0.960 . S
C2278 C2276 1.381 . S
C2278 C2279 1.394 . S
C2278 H2286 0.930 . S
C2279 C2278 1.394 . S
C2279 C2280 1.383 . S
C2279 H2287 0.929 . S
C2280 C2279 1.383 . S
C2280 C2281 1.377 . S
C2281 H2265 0.930 . S
C2281 C2280 1.377 . S
C2281 C2282 1.379 . S
C2282 H2266 0.931 . S
C2282 C2276 1.383 . S
C2282 C2281 1.379 . S
H2283 C2277 0.959 . S
H2284 C2277 0.961 . S
H2285 C2277 0.960 . S
H2286 C2278 0.930 . S
H2287 C2279 0.929 . S
H2288 C2296 0.929 . S
H2289 C2298 0.930 . S
H2290 C2300 0.930 . S
H2291 C2303 0.929 . S
H2292 C2306 0.930 . S
H2293 C2308 0.960 . S
H2294 C2308 0.960 . S
H2295 C2308 0.960 . S
C2296 H2288 0.929 . S
C2296 C2297 1.377 . S
C2296 C2298 1.384 . S
C2297 C2296 1.377 . S
C2297 C2303 1.390 . S
C2298 H2289 0.930 . S
C2298 C2296 1.384 . S
C2298 C2299 1.372 . S
C2299 C2298 1.372 . S
C2299 C2300 1.400 . S
C2299 C2304 1.490 . S
C2300 H2290 0.930 . S
C2300 C2299 1.400 . S
C2300 C2303 1.386 . S
H2301 C2317 0.930 . S
H2302 C2318 0.931 . S
C2303 H2291 0.929 . S
C2303 C2297 1.390 . S
C2303 C2300 1.386 . S
C2304 C2299 1.490 . S
C2304 C2306 1.395 . S
C2304 C2307 1.403 . S
H2305 C2311 0.930 . S
C2306 H2292 0.930 . S
C2306 C2304 1.395 . S
C2306 C2309 1.403 . S
C2307 C2304 1.403 . S
C2307 C2308 1.524 . S
C2307 C2311 1.400 . S
C2308 H2293 0.960 . S
C2308 H2294 0.960 . S
C2308 H2295 0.960 . S
C2308 C2307 1.524 . S
C2309 C2306 1.403 . S
C2309 C2310 1.392 . S
C2309 C2313 1.495 . S
C2310 C2309 1.392 . S
C2310 C2311 1.385 . S
C2310 C2312 1.478 . S
C2311 H2305 0.930 . S
C2311 C2307 1.400 . S
C2311 C2310 1.385 . S
C2312 C2310 1.478 . S
C2312 C2314 1.381 . S
C2312 C2318 1.383 . S
C2313 C2309 1.495 . S
C2313 H2319 0.959 . S
C2313 H2320 0.961 . S
C2313 H2321 0.960 . S
C2314 C2312 1.381 . S
C2314 C2315 1.394 . S
C2314 H2322 0.930 . S
C2315 C2314 1.394 . S
C2315 C2316 1.383 . S
C2315 H2323 0.929 . S
C2316 C2315 1.383 . S
C2316 C2317 1.377 . S
C2317 H2301 0.930 . S
C2317 C2316 1.377 . S
C2317 C2318 1.379 . S
C2318 H2302 0.931 . S
C2318 C2312 1.383 . S
C2318 C2317 1.379 . S
H2319 C2313 0.959 . S
H2320 C2313 0.961 . S
H2321 C2313 0.960 . S
H2322 C2314 0.930 . S
H2323 C2315 0.929 . S
H2324 C2332 0.929 . S
H2325 C2334 0.930 . S
H2326 C2336 0.930 . S
H2327 C2339 0.929 . S
H2328 C2342 0.930 . S
H2329 C2344 0.960 . S
H2330 C2344 0.960 . S
H2331 C2344 0.960 . S
C2332 H2324 0.929 . S
C2332 C2333 1.377 . S
C2332 C2334 1.384 . S
C2333 C2332 1.377 . S
C2333 C2339 1.390 . S
C2334 H2325 0.930 . S
C2334 C2332 1.384 . S
C2334 C2335 1.372 . S
C2335 C2334 1.372 . S
C2335 C2336 1.400 . S
C2335 C2340 1.490 . S
C2336 H2326 0.930 . S
C2336 C2335 1.400 . S
C2336 C2339 1.386 . S
H2337 C2353 0.930 . S
H2338 C2354 0.931 . S
C2339 H2327 0.929 . S
C2339 C2333 1.390 . S
C2339 C2336 1.386 . S
C2340 C2335 1.490 . S
C2340 C2342 1.395 . S
C2340 C2343 1.403 . S
H2341 C2347 0.930 . S
C2342 H2328 0.930 . S
C2342 C2340 1.395 . S
C2342 C2345 1.403 . S
C2343 C2340 1.403 . S
C2343 C2344 1.524 . S
C2343 C2347 1.400 . S
C2344 H2329 0.960 . S
C2344 H2330 0.960 . S
C2344 H2331 0.960 . S
C2344 C2343 1.524 . S
C2345 C2342 1.403 . S
C2345 C2346 1.392 . S
C2345 C2349 1.495 1_556 S
C2346 C2345 1.392 . S
C2346 C2347 1.385 . S
C2346 C2348 1.453 1_556 S
C2347 H2341 0.930 . S
C2347 C2343 1.400 . S
C2347 C2346 1.385 . S
C2348 C2346 1.453 1_554 S
C2348 C2350 1.388 . S
C2348 C2354 1.400 . S
C2349 C2345 1.495 1_554 S
C2349 H2355 0.959 . S
C2349 H2356 0.961 . S
C2349 H2357 0.960 . S
C2350 C2348 1.388 . S
C2350 C2351 1.394 . S
C2350 H2358 0.930 1_554 S
C2351 C2350 1.394 . S
C2351 C2352 1.383 . S
C2351 H2359 0.929 . S
C2352 C2351 1.383 . S
C2352 C2353 1.377 . S
C2353 H2337 0.930 . S
C2353 C2352 1.377 . S
C2353 C2354 1.379 . S
C2354 H2338 0.931 . S
C2354 C2348 1.400 . S
C2354 C2353 1.379 . S
H2355 C2349 0.959 . S
H2356 C2349 0.961 . S
H2357 C2349 0.960 . S
H2358 C2350 0.930 1_556 S
H2359 C2351 0.929 . S
H2360 C2368 0.929 . S
H2361 C2370 0.930 . S
H2362 C2372 0.930 . S
H2363 C2375 0.929 . S
H2364 C2378 0.930 . S
H2365 C2380 0.960 . S
H2366 C2380 0.960 . S
H2367 C2380 0.960 . S
C2368 H2360 0.929 . S
C2368 C2369 1.377 . S
C2368 C2370 1.384 . S
C2369 C2368 1.377 . S
C2369 C2375 1.390 . S
C2370 H2361 0.930 . S
C2370 C2368 1.384 . S
C2370 C2371 1.372 . S
C2371 C2370 1.372 . S
C2371 C2372 1.400 . S
C2371 C2376 1.490 . S
C2372 H2362 0.930 . S
C2372 C2371 1.400 . S
C2372 C2375 1.386 . S
H2373 C2389 0.930 . S
H2374 C2390 0.931 . S
C2375 H2363 0.929 . S
C2375 C2369 1.390 . S
C2375 C2372 1.386 . S
C2376 C2371 1.490 . S
C2376 C2378 1.395 . S
C2376 C2379 1.403 . S
H2377 C2383 0.930 . S
C2378 H2364 0.930 . S
C2378 C2376 1.395 . S
C2378 C2381 1.403 . S
C2379 C2376 1.403 . S
C2379 C2380 1.524 . S
C2379 C2383 1.400 . S
C2380 H2365 0.960 . S
C2380 H2366 0.960 . S
C2380 H2367 0.960 . S
C2380 C2379 1.524 . S
C2381 C2378 1.403 . S
C2381 C2382 1.392 . S
C2381 C2385 1.495 . S
C2382 C2381 1.392 . S
C2382 C2383 1.385 . S
C2382 C2384 1.478 . S
C2383 H2377 0.930 . S
C2383 C2379 1.400 . S
C2383 C2382 1.385 . S
C2384 C2382 1.478 . S
C2384 C2386 1.381 . S
C2384 C2390 1.383 . S
C2385 C2381 1.495 . S
C2385 H2391 0.959 . S
C2385 H2392 0.961 . S
C2385 H2393 0.960 . S
C2386 C2384 1.381 . S
C2386 C2387 1.394 . S
C2386 H2394 0.930 . S
C2387 C2386 1.394 . S
C2387 C2388 1.383 . S
C2387 H2395 0.929 . S
C2388 C2387 1.383 . S
C2388 C2389 1.377 . S
C2389 H2373 0.930 . S
C2389 C2388 1.377 . S
C2389 C2390 1.379 . S
C2390 H2374 0.931 . S
C2390 C2384 1.383 . S
C2390 C2389 1.379 . S
H2391 C2385 0.959 . S
H2392 C2385 0.961 . S
H2393 C2385 0.960 . S
H2394 C2386 0.930 . S
H2395 C2387 0.929 . S
H2396 C2404 0.929 . S
H2397 C2406 0.930 . S
H2398 C2408 0.930 . S
H2399 C2411 0.929 . S
H2400 C2414 0.930 . S
H2401 C2416 0.960 . S
H2402 C2416 0.960 . S
H2403 C2416 0.960 . S
C2404 H2396 0.929 . S
C2404 C2405 1.377 . S
C2404 C2406 1.384 . S
C2405 C2404 1.377 . S
C2405 C2411 1.390 . S
C2406 H2397 0.930 . S
C2406 C2404 1.384 . S
C2406 C2407 1.372 . S
C2407 C2406 1.372 . S
C2407 C2408 1.400 . S
C2407 C2412 1.490 . S
C2408 H2398 0.930 . S
C2408 C2407 1.400 . S
C2408 C2411 1.386 . S
H2409 C2425 0.930 . S
H2410 C2426 0.931 . S
C2411 H2399 0.929 . S
C2411 C2405 1.390 . S
C2411 C2408 1.386 . S
C2412 C2407 1.490 . S
C2412 C2414 1.395 . S
C2412 C2415 1.403 . S
H2413 C2419 0.930 . S
C2414 H2400 0.930 . S
C2414 C2412 1.395 . S
C2414 C2417 1.403 . S
C2415 C2412 1.403 . S
C2415 C2416 1.524 . S
C2415 C2419 1.400 . S
C2416 H2401 0.960 . S
C2416 H2402 0.960 . S
C2416 H2403 0.960 . S
C2416 C2415 1.524 . S
C2417 C2414 1.403 . S
C2417 C2418 1.392 . S
C2417 C2421 1.495 . S
C2418 C2417 1.392 . S
C2418 C2419 1.385 . S
C2418 C2420 1.478 . S
C2419 H2413 0.930 . S
C2419 C2415 1.400 . S
C2419 C2418 1.385 . S
C2420 C2418 1.478 . S
C2420 C2422 1.381 . S
C2420 C2426 1.383 . S
C2421 C2417 1.495 . S
C2421 H2427 0.959 . S
C2421 H2428 0.961 . S
C2421 H2429 0.960 . S
C2422 C2420 1.381 . S
C2422 C2423 1.394 . S
C2422 H2430 0.930 . S
C2423 C2422 1.394 . S
C2423 C2424 1.383 . S
C2423 H2431 0.929 . S
C2424 C2423 1.383 . S
C2424 C2425 1.377 . S
C2425 H2409 0.930 . S
C2425 C2424 1.377 . S
C2425 C2426 1.379 . S
C2426 H2410 0.931 . S
C2426 C2420 1.383 . S
C2426 C2425 1.379 . S
H2427 C2421 0.959 . S
H2428 C2421 0.961 . S
H2429 C2421 0.960 . S
H2430 C2422 0.930 . S
H2431 C2423 0.929 . S
H2432 C2440 0.929 . S
H2433 C2442 0.930 . S
H2434 C2444 0.930 . S
H2435 C2447 0.929 . S
H2436 C2450 0.930 . S
H2437 C2452 0.960 . S
H2438 C2452 0.960 . S
H2439 C2452 0.960 . S
C2440 H2432 0.929 . S
C2440 C2441 1.377 . S
C2440 C2442 1.384 . S
C2441 C2440 1.377 . S
C2441 C2447 1.390 . S
C2442 H2433 0.930 . S
C2442 C2440 1.384 . S
C2442 C2443 1.372 . S
C2443 C2442 1.372 . S
C2443 C2444 1.400 . S
C2443 C2448 1.490 . S
C2444 H2434 0.930 . S
C2444 C2443 1.400 . S
C2444 C2447 1.386 . S
H2445 C2461 0.930 . S
H2446 C2462 0.931 . S
C2447 H2435 0.929 . S
C2447 C2441 1.390 . S
C2447 C2444 1.386 . S
C2448 C2443 1.490 . S
C2448 C2450 1.395 . S
C2448 C2451 1.403 . S
H2449 C2455 0.930 . S
C2450 H2436 0.930 . S
C2450 C2448 1.395 . S
C2450 C2453 1.403 . S
C2451 C2448 1.403 . S
C2451 C2452 1.524 . S
C2451 C2455 1.400 . S
C2452 H2437 0.960 . S
C2452 H2438 0.960 . S
C2452 H2439 0.960 . S
C2452 C2451 1.524 . S
C2453 C2450 1.403 . S
C2453 C2454 1.392 . S
C2453 C2457 1.495 . S
C2454 C2453 1.392 . S
C2454 C2455 1.385 . S
C2454 C2456 1.478 . S
C2455 H2449 0.930 . S
C2455 C2451 1.400 . S
C2455 C2454 1.385 . S
C2456 C2454 1.478 . S
C2456 C2458 1.381 . S
C2456 C2462 1.383 . S
C2457 C2453 1.495 . S
C2457 H2463 0.959 . S
C2457 H2464 0.961 . S
C2457 H2465 0.960 . S
C2458 C2456 1.381 . S
C2458 C2459 1.394 . S
C2458 H2466 0.930 . S
C2459 C2458 1.394 . S
C2459 C2460 1.383 . S
C2459 H2467 0.929 . S
C2460 C2459 1.383 . S
C2460 C2461 1.377 . S
C2461 H2445 0.930 . S
C2461 C2460 1.377 . S
C2461 C2462 1.379 . S
C2462 H2446 0.931 . S
C2462 C2456 1.383 . S
C2462 C2461 1.379 . S
H2463 C2457 0.959 . S
H2464 C2457 0.961 . S
H2465 C2457 0.960 . S
H2466 C2458 0.930 . S
H2467 C2459 0.929 . S
H2468 C2476 0.929 . S
H2469 C2478 0.930 . S
H2470 C2480 0.930 . S
H2471 C2483 0.929 . S
H2472 C2486 0.930 . S
H2473 C2488 0.913 1_655 S
H2474 C2488 0.960 . S
H2475 C2488 0.960 . S
C2476 H2468 0.929 . S
C2476 C2477 1.377 . S
C2476 C2478 1.384 . S
C2477 C2476 1.377 . S
C2477 C2483 1.390 . S
C2478 H2469 0.930 . S
C2478 C2476 1.384 . S
C2478 C2479 1.372 . S
C2479 C2478 1.372 . S
C2479 C2480 1.400 . S
C2479 C2484 1.490 . S
C2480 H2470 0.930 . S
C2480 C2479 1.400 . S
C2480 C2483 1.386 . S
H2481 C2497 0.930 . S
H2482 C2498 0.931 . S
C2483 H2471 0.929 . S
C2483 C2477 1.390 . S
C2483 C2480 1.386 . S
C2484 C2479 1.490 . S
C2484 C2486 1.395 . S
C2484 C2487 1.403 . S
H2485 C2491 0.930 1_655 S
C2486 H2472 0.930 . S
C2486 C2484 1.395 . S
C2486 C2489 1.403 . S
C2487 C2484 1.403 . S
C2487 C2488 1.524 . S
C2487 C2491 1.400 . S
C2488 H2473 0.913 1_455 S
C2488 H2474 0.960 . S
C2488 H2475 0.960 . S
C2488 C2487 1.524 . S
C2489 C2486 1.403 . S
C2489 C2490 1.392 . S
C2489 C2493 1.495 . S
C2490 C2489 1.392 . S
C2490 C2491 1.385 . S
C2490 C2492 1.478 1_455 S
C2491 H2485 0.930 1_455 S
C2491 C2487 1.400 . S
C2491 C2490 1.385 . S
C2492 C2490 1.478 1_655 S
C2492 C2494 1.381 . S
C2492 C2498 1.383 . S
C2493 C2489 1.495 . S
C2493 H2499 0.959 . S
C2493 H2500 0.961 . S
C2493 H2501 0.960 . S
C2494 C2492 1.381 . S
C2494 C2495 1.394 . S
C2494 H2502 0.930 . S
C2495 C2494 1.394 . S
C2495 C2496 1.383 . S
C2495 H2503 0.929 . S
C2496 C2495 1.383 . S
C2496 C2497 1.377 . S
C2497 H2481 0.930 . S
C2497 C2496 1.377 . S
C2497 C2498 1.379 . S
C2498 H2482 0.931 . S
C2498 C2492 1.383 . S
C2498 C2497 1.379 . S
H2499 C2493 0.959 . S
H2500 C2493 0.961 . S
H2501 C2493 0.960 . S
H2502 C2494 0.930 . S
H2503 C2495 0.929 . S
H2504 C2512 0.929 . S
H2505 C2514 0.930 . S
H2506 C2516 0.930 . S
H2507 C2519 0.929 . S
H2508 C2522 0.930 . S
H2509 C2524 0.960 . S
H2510 C2524 0.960 . S
H2511 C2524 0.960 . S
C2512 H2504 0.929 . S
C2512 C2513 1.377 . S
C2512 C2514 1.384 . S
C2513 C2512 1.377 . S
C2513 C2519 1.390 . S
C2514 H2505 0.930 . S
C2514 C2512 1.384 . S
C2514 C2515 1.372 . S
C2515 C2514 1.372 . S
C2515 C2516 1.400 . S
C2515 C2520 1.490 . S
C2516 H2506 0.930 . S
C2516 C2515 1.400 . S
C2516 C2519 1.386 . S
H2517 C2533 0.930 . S
H2518 C2534 0.931 . S
C2519 H2507 0.929 . S
C2519 C2513 1.390 . S
C2519 C2516 1.386 . S
C2520 C2515 1.490 . S
C2520 C2522 1.395 . S
C2520 C2523 1.403 . S
H2521 C2527 0.930 . S
C2522 H2508 0.930 . S
C2522 C2520 1.395 . S
C2522 C2525 1.403 . S
C2523 C2520 1.403 . S
C2523 C2524 1.524 . S
C2523 C2527 1.400 . S
C2524 H2509 0.960 . S
C2524 H2510 0.960 . S
C2524 H2511 0.960 . S
C2524 C2523 1.524 . S
C2525 C2522 1.403 . S
C2525 C2526 1.392 . S
C2525 C2529 1.495 . S
C2526 C2525 1.392 . S
C2526 C2527 1.385 . S
C2526 C2528 1.478 . S
C2527 H2521 0.930 . S
C2527 C2523 1.400 . S
C2527 C2526 1.385 . S
C2528 C2526 1.478 . S
C2528 C2530 1.381 . S
C2528 C2534 1.383 . S
C2529 C2525 1.495 . S
C2529 H2535 0.959 . S
C2529 H2536 0.961 . S
C2529 H2537 0.960 . S
C2530 C2528 1.381 . S
C2530 C2531 1.394 . S
C2530 H2538 0.930 . S
C2531 C2530 1.394 . S
C2531 C2532 1.383 . S
C2531 H2539 0.929 . S
C2532 C2531 1.383 . S
C2532 C2533 1.377 . S
C2533 H2517 0.930 . S
C2533 C2532 1.377 . S
C2533 C2534 1.379 . S
C2534 H2518 0.931 . S
C2534 C2528 1.383 . S
C2534 C2533 1.379 . S
H2535 C2529 0.959 . S
H2536 C2529 0.961 . S
H2537 C2529 0.960 . S
H2538 C2530 0.930 . S
H2539 C2531 0.929 . S
H2540 C2548 0.929 . S
H2541 C2550 0.930 . S
H2542 C2552 0.930 . S
H2543 C2555 0.929 . S
H2544 C2558 0.930 . S
H2545 C2560 0.960 . S
H2546 C2560 0.960 . S
H2547 C2560 0.960 . S
C2548 H2540 0.929 . S
C2548 C2549 1.377 . S
C2548 C2550 1.384 . S
C2549 C2548 1.377 . S
C2549 C2555 1.390 . S
C2550 H2541 0.930 . S
C2550 C2548 1.384 . S
C2550 C2551 1.372 . S
C2551 C2550 1.372 . S
C2551 C2552 1.400 . S
C2551 C2556 1.490 . S
C2552 H2542 0.930 . S
C2552 C2551 1.400 . S
C2552 C2555 1.386 . S
H2553 C2569 0.930 . S
H2554 C2570 0.931 . S
C2555 H2543 0.929 . S
C2555 C2549 1.390 . S
C2555 C2552 1.386 . S
C2556 C2551 1.490 . S
C2556 C2558 1.395 . S
C2556 C2559 1.403 . S
H2557 C2563 0.930 . S
C2558 H2544 0.930 . S
C2558 C2556 1.395 . S
C2558 C2561 1.403 . S
C2559 C2556 1.403 . S
C2559 C2560 1.524 . S
C2559 C2563 1.400 . S
C2560 H2545 0.960 . S
C2560 H2546 0.960 . S
C2560 H2547 0.960 . S
C2560 C2559 1.524 . S
C2561 C2558 1.403 . S
C2561 C2562 1.392 . S
C2561 C2565 1.495 . S
C2562 C2561 1.392 . S
C2562 C2563 1.385 . S
C2562 C2564 1.478 . S
C2563 H2557 0.930 . S
C2563 C2559 1.400 . S
C2563 C2562 1.385 . S
C2564 C2562 1.478 . S
C2564 C2566 1.381 . S
C2564 C2570 1.383 . S
C2565 C2561 1.495 . S
C2565 H2571 0.959 . S
C2565 H2572 0.961 . S
C2565 H2573 0.960 . S
C2566 C2564 1.381 . S
C2566 C2567 1.394 . S
C2566 H2574 0.930 . S
C2567 C2566 1.394 . S
C2567 C2568 1.383 . S
C2567 H2575 0.929 . S
C2568 C2567 1.383 . S
C2568 C2569 1.377 . S
C2569 H2553 0.930 . S
C2569 C2568 1.377 . S
C2569 C2570 1.379 . S
C2570 H2554 0.931 . S
C2570 C2564 1.383 . S
C2570 C2569 1.379 . S
H2571 C2565 0.959 . S
H2572 C2565 0.961 . S
H2573 C2565 0.960 . S
H2574 C2566 0.930 . S
H2575 C2567 0.929 . S
H2576 C2584 0.929 . S
H2577 C2586 0.930 . S
H2578 C2588 0.930 . S
H2579 C2591 0.929 . S
H2580 C2594 0.930 . S
H2581 C2596 0.960 . S
H2582 C2596 0.960 . S
H2583 C2596 0.960 . S
C2584 H2576 0.929 . S
C2584 C2585 1.377 . S
C2584 C2586 1.384 . S
C2585 C2584 1.377 . S
C2585 C2591 1.390 . S
C2586 H2577 0.930 . S
C2586 C2584 1.384 . S
C2586 C2587 1.372 . S
C2587 C2586 1.372 . S
C2587 C2588 1.400 . S
C2587 C2592 1.490 . S
C2588 H2578 0.930 . S
C2588 C2587 1.400 . S
C2588 C2591 1.386 . S
H2589 C2605 0.930 . S
H2590 C2606 0.931 . S
C2591 H2579 0.929 . S
C2591 C2585 1.390 . S
C2591 C2588 1.386 . S
C2592 C2587 1.490 . S
C2592 C2594 1.395 . S
C2592 C2595 1.403 . S
H2593 C2599 0.930 . S
C2594 H2580 0.930 . S
C2594 C2592 1.395 . S
C2594 C2597 1.403 . S
C2595 C2592 1.403 . S
C2595 C2596 1.524 . S
C2595 C2599 1.400 . S
C2596 H2581 0.960 . S
C2596 H2582 0.960 . S
C2596 H2583 0.960 . S
C2596 C2595 1.524 . S
C2597 C2594 1.403 . S
C2597 C2598 1.392 . S
C2597 C2601 1.495 . S
C2598 C2597 1.392 . S
C2598 C2599 1.385 . S
C2598 C2600 1.478 . S
C2599 H2593 0.930 . S
C2599 C2595 1.400 . S
C2599 C2598 1.385 . S
C2600 C2598 1.478 . S
C2600 C2602 1.381 . S
C2600 C2606 1.383 . S
C2601 C2597 1.495 . S
C2601 H2607 0.959 . S
C2601 H2608 0.961 . S
C2601 H2609 0.960 . S
C2602 C2600 1.381 . S
C2602 C2603 1.394 . S
C2602 H2610 0.930 . S
C2603 C2602 1.394 . S
C2603 C2604 1.383 . S
C2603 H2611 0.929 . S
C2604 C2603 1.383 . S
C2604 C2605 1.377 . S
C2605 H2589 0.930 . S
C2605 C2604 1.377 . S
C2605 C2606 1.379 . S
C2606 H2590 0.931 . S
C2606 C2600 1.383 . S
C2606 C2605 1.379 . S
H2607 C2601 0.959 . S
H2608 C2601 0.961 . S
H2609 C2601 0.960 . S
H2610 C2602 0.930 . S
H2611 C2603 0.929 . S
H2612 C2620 0.929 . S
H2613 C2622 0.930 . S
H2614 C2624 0.930 . S
H2615 C2627 0.929 . S
H2616 C2630 0.930 . S
H2617 C2632 0.960 . S
H2618 C2632 0.960 . S
H2619 C2632 0.960 . S
C2620 H2612 0.929 . S
C2620 C2621 1.377 . S
C2620 C2622 1.384 . S
C2621 C2620 1.377 . S
C2621 C2627 1.390 . S
C2622 H2613 0.930 . S
C2622 C2620 1.384 . S
C2622 C2623 1.372 . S
C2623 C2622 1.372 . S
C2623 C2624 1.400 . S
C2623 C2628 1.490 . S
C2624 H2614 0.930 . S
C2624 C2623 1.400 . S
C2624 C2627 1.386 . S
H2625 C2641 0.930 . S
H2626 C2642 0.931 . S
C2627 H2615 0.929 . S
C2627 C2621 1.390 . S
C2627 C2624 1.386 . S
C2628 C2623 1.490 . S
C2628 C2630 1.395 . S
C2628 C2631 1.403 . S
H2629 C2635 0.930 . S
C2630 H2616 0.930 . S
C2630 C2628 1.395 . S
C2630 C2633 1.403 . S
C2631 C2628 1.403 . S
C2631 C2632 1.524 . S
C2631 C2635 1.400 . S
C2632 H2617 0.960 . S
C2632 H2618 0.960 . S
C2632 H2619 0.960 . S
C2632 C2631 1.524 . S
C2633 C2630 1.403 . S
C2633 C2634 1.392 . S
C2633 C2637 1.495 . S
C2634 C2633 1.392 . S
C2634 C2635 1.385 . S
C2634 C2636 1.478 . S
C2635 H2629 0.930 . S
C2635 C2631 1.400 . S
C2635 C2634 1.385 . S
C2636 C2634 1.478 . S
C2636 C2638 1.381 . S
C2636 C2642 1.383 . S
C2637 C2633 1.495 . S
C2637 H2643 0.959 . S
C2637 H2644 0.961 . S
C2637 H2645 0.960 . S
C2638 C2636 1.381 . S
C2638 C2639 1.394 . S
C2638 H2646 0.930 . S
C2639 C2638 1.394 . S
C2639 C2640 1.383 . S
C2639 H2647 0.929 . S
C2640 C2639 1.383 . S
C2640 C2641 1.377 . S
C2641 H2625 0.930 . S
C2641 C2640 1.377 . S
C2641 C2642 1.379 . S
C2642 H2626 0.931 . S
C2642 C2636 1.383 . S
C2642 C2641 1.379 . S
H2643 C2637 0.959 . S
H2644 C2637 0.961 . S
H2645 C2637 0.960 . S
H2646 C2638 0.930 . S
H2647 C2639 0.929 . S
H2648 C2656 0.929 . S
H2649 C2658 0.930 . S
H2650 C2660 0.930 . S
H2651 C2663 0.929 . S
H2652 C2666 0.930 . S
H2653 C2668 0.960 . S
H2654 C2668 0.960 . S
H2655 C2668 0.960 . S
C2656 H2648 0.929 . S
C2656 C2657 1.377 . S
C2656 C2658 1.384 . S
C2657 C2656 1.377 . S
C2657 C2663 1.390 . S
C2658 H2649 0.930 . S
C2658 C2656 1.384 . S
C2658 C2659 1.372 . S
C2659 C2658 1.372 . S
C2659 C2660 1.400 . S
C2659 C2664 1.490 . S
C2660 H2650 0.930 . S
C2660 C2659 1.400 . S
C2660 C2663 1.386 . S
H2661 C2677 0.930 . S
H2662 C2678 0.931 . S
C2663 H2651 0.929 . S
C2663 C2657 1.390 . S
C2663 C2660 1.386 . S
C2664 C2659 1.490 . S
C2664 C2666 1.395 . S
C2664 C2667 1.403 . S
H2665 C2671 0.930 . S
C2666 H2652 0.930 . S
C2666 C2664 1.395 . S
C2666 C2669 1.403 . S
C2667 C2664 1.403 . S
C2667 C2668 1.524 . S
C2667 C2671 1.400 . S
C2668 H2653 0.960 . S
C2668 H2654 0.960 . S
C2668 H2655 0.960 . S
C2668 C2667 1.524 . S
C2669 C2666 1.403 . S
C2669 C2670 1.392 . S
C2669 C2673 1.495 . S
C2670 C2669 1.392 . S
C2670 C2671 1.385 . S
C2670 C2672 1.478 . S
C2671 H2665 0.930 . S
C2671 C2667 1.400 . S
C2671 C2670 1.385 . S
C2672 C2670 1.478 . S
C2672 C2674 1.381 . S
C2672 C2678 1.383 . S
C2673 C2669 1.495 . S
C2673 H2679 0.959 . S
C2673 H2680 0.961 . S
C2673 H2681 0.960 . S
C2674 C2672 1.381 . S
C2674 C2675 1.394 . S
C2674 H2682 0.930 . S
C2675 C2674 1.394 . S
C2675 C2676 1.383 . S
C2675 H2683 0.929 . S
C2676 C2675 1.383 . S
C2676 C2677 1.377 . S
C2677 H2661 0.930 . S
C2677 C2676 1.377 . S
C2677 C2678 1.379 . S
C2678 H2662 0.931 . S
C2678 C2672 1.383 . S
C2678 C2677 1.379 . S
H2679 C2673 0.959 . S
H2680 C2673 0.961 . S
H2681 C2673 0.960 . S
H2682 C2674 0.930 . S
H2683 C2675 0.929 . S
H2684 C2692 0.929 . S
H2685 C2694 0.930 . S
H2686 C2696 0.930 . S
H2687 C2699 0.929 . S
H2688 C2702 0.930 . S
H2689 C2704 0.960 . S
H2690 C2704 0.960 . S
H2691 C2704 0.960 . S
C2692 H2684 0.929 . S
C2692 C2693 1.377 . S
C2692 C2694 1.384 . S
C2693 C2692 1.377 . S
C2693 C2699 1.390 . S
C2694 H2685 0.930 . S
C2694 C2692 1.384 . S
C2694 C2695 1.372 . S
C2695 C2694 1.372 . S
C2695 C2696 1.400 . S
C2695 C2700 1.490 . S
C2696 H2686 0.930 . S
C2696 C2695 1.400 . S
C2696 C2699 1.386 . S
H2697 C2713 0.930 . S
H2698 C2714 0.931 . S
C2699 H2687 0.929 . S
C2699 C2693 1.390 . S
C2699 C2696 1.386 . S
C2700 C2695 1.490 . S
C2700 C2702 1.395 . S
C2700 C2703 1.403 . S
H2701 C2707 0.930 . S
C2702 H2688 0.930 . S
C2702 C2700 1.395 . S
C2702 C2705 1.403 . S
C2703 C2700 1.403 . S
C2703 C2704 1.524 . S
C2703 C2707 1.400 . S
C2704 H2689 0.960 . S
C2704 H2690 0.960 . S
C2704 H2691 0.960 . S
C2704 C2703 1.524 . S
C2705 C2702 1.403 . S
C2705 C2706 1.390 1_455 S
C2705 C2709 1.495 1_455 S
C2706 C2705 1.390 1_655 S
C2706 C2707 1.376 1_655 S
C2706 C2708 1.489 . S
C2707 H2701 0.930 . S
C2707 C2703 1.400 . S
C2707 C2706 1.376 1_455 S
C2708 C2706 1.489 . S
C2708 C2710 1.381 . S
C2708 C2714 1.383 . S
C2709 C2705 1.495 1_655 S
C2709 H2715 0.959 . S
C2709 H2716 0.961 . S
C2709 H2717 0.960 . S
C2710 C2708 1.381 . S
C2710 C2711 1.394 . S
C2710 H2718 0.930 . S
C2711 C2710 1.394 . S
C2711 C2712 1.383 . S
C2711 H2719 0.929 . S
C2712 C2711 1.383 . S
C2712 C2713 1.377 . S
C2713 H2697 0.930 . S
C2713 C2712 1.377 . S
C2713 C2714 1.379 . S
C2714 H2698 0.931 . S
C2714 C2708 1.383 . S
C2714 C2713 1.379 . S
H2715 C2709 0.959 . S
H2716 C2709 0.961 . S
H2717 C2709 0.960 . S
H2718 C2710 0.930 . S
H2719 C2711 0.929 . S
H2720 C2728 0.929 . S
H2721 C2730 0.930 . S
H2722 C2732 0.930 . S
H2723 C2735 0.929 . S
H2724 C2738 0.930 . S
H2725 C2740 0.960 . S
H2726 C2740 0.960 . S
H2727 C2740 0.960 . S
C2728 H2720 0.929 . S
C2728 C2729 1.377 . S
C2728 C2730 1.384 . S
C2729 C2728 1.377 . S
C2729 C2735 1.390 . S
C2730 H2721 0.930 . S
C2730 C2728 1.384 . S
C2730 C2731 1.372 . S
C2731 C2730 1.372 . S
C2731 C2732 1.400 . S
C2731 C2736 1.490 . S
C2732 H2722 0.930 . S
C2732 C2731 1.400 . S
C2732 C2735 1.386 . S
H2733 C2749 0.930 . S
H2734 C2750 0.931 . S
C2735 H2723 0.929 . S
C2735 C2729 1.390 . S
C2735 C2732 1.386 . S
C2736 C2731 1.490 . S
C2736 C2738 1.395 . S
C2736 C2739 1.403 . S
H2737 C2743 0.930 . S
C2738 H2724 0.930 . S
C2738 C2736 1.395 . S
C2738 C2741 1.403 . S
C2739 C2736 1.403 . S
C2739 C2740 1.524 . S
C2739 C2743 1.400 . S
C2740 H2725 0.960 . S
C2740 H2726 0.960 . S
C2740 H2727 0.960 . S
C2740 C2739 1.524 . S
C2741 C2738 1.403 . S
C2741 C2742 1.392 . S
C2741 C2745 1.495 . S
C2742 C2741 1.392 . S
C2742 C2743 1.385 . S
C2742 C2744 1.478 . S
C2743 H2737 0.930 . S
C2743 C2739 1.400 . S
C2743 C2742 1.385 . S
C2744 C2742 1.478 . S
C2744 C2746 1.381 . S
C2744 C2750 1.383 . S
C2745 C2741 1.495 . S
C2745 H2751 0.959 . S
C2745 H2752 0.961 . S
C2745 H2753 0.960 . S
C2746 C2744 1.381 . S
C2746 C2747 1.394 . S
C2746 H2754 0.930 . S
C2747 C2746 1.394 . S
C2747 C2748 1.383 . S
C2747 H2755 0.929 . S
C2748 C2747 1.383 . S
C2748 C2749 1.377 . S
C2749 H2733 0.930 . S
C2749 C2748 1.377 . S
C2749 C2750 1.379 . S
C2750 H2734 0.931 . S
C2750 C2744 1.383 . S
C2750 C2749 1.379 . S
H2751 C2745 0.959 . S
H2752 C2745 0.961 . S
H2753 C2745 0.960 . S
H2754 C2746 0.930 . S
H2755 C2747 0.929 . S
H2756 C2764 0.929 . S
H2757 C2766 0.930 . S
H2758 C2768 0.930 . S
H2759 C2771 0.929 . S
H2760 C2774 0.930 . S
H2761 C2776 0.960 . S
H2762 C2776 0.960 . S
H2763 C2776 0.960 . S
C2764 H2756 0.929 . S
C2764 C2765 1.377 . S
C2764 C2766 1.384 . S
C2765 C2764 1.377 . S
C2765 C2771 1.390 . S
C2766 H2757 0.930 . S
C2766 C2764 1.384 . S
C2766 C2767 1.372 . S
C2767 C2766 1.372 . S
C2767 C2768 1.400 . S
C2767 C2772 1.490 1_455 S
C2768 H2758 0.930 . S
C2768 C2767 1.400 . S
C2768 C2771 1.386 . S
H2769 C2785 0.930 . S
H2770 C2786 0.931 . S
C2771 H2759 0.929 . S
C2771 C2765 1.390 . S
C2771 C2768 1.386 . S
C2772 C2767 1.490 1_655 S
C2772 C2774 1.395 . S
C2772 C2775 1.403 . S
H2773 C2779 0.930 . S
C2774 H2760 0.930 . S
C2774 C2772 1.395 . S
C2774 C2777 1.403 . S
C2775 C2772 1.403 . S
C2775 C2776 1.524 1_655 S
C2775 C2779 1.400 . S
C2776 H2761 0.960 . S
C2776 H2762 0.960 . S
C2776 H2763 0.960 . S
C2776 C2775 1.524 1_455 S
C2777 C2774 1.403 . S
C2777 C2778 1.392 . S
C2777 C2781 1.495 . S
C2778 C2777 1.392 . S
C2778 C2779 1.385 . S
C2778 C2780 1.478 . S
C2779 H2773 0.930 . S
C2779 C2775 1.400 . S
C2779 C2778 1.385 . S
C2780 C2778 1.478 . S
C2780 C2782 1.381 . S
C2780 C2786 1.383 . S
C2781 C2777 1.495 . S
C2781 H2787 0.959 . S
C2781 H2788 0.961 . S
C2781 H2789 0.960 . S
C2782 C2780 1.381 . S
C2782 C2783 1.394 . S
C2782 H2790 0.930 . S
C2783 C2782 1.394 . S
C2783 C2784 1.383 . S
C2783 H2791 0.929 . S
C2784 C2783 1.383 . S
C2784 C2785 1.377 . S
C2785 H2769 0.930 . S
C2785 C2784 1.377 . S
C2785 C2786 1.379 . S
C2786 H2770 0.931 . S
C2786 C2780 1.383 . S
C2786 C2785 1.379 . S
H2787 C2781 0.959 . S
H2788 C2781 0.961 . S
H2789 C2781 0.960 . S
H2790 C2782 0.930 . S
H2791 C2783 0.929 . S
H2792 C2800 0.929 . S
H2793 C2802 0.930 . S
H2794 C2804 0.930 . S
H2795 C2807 0.929 . S
H2796 C2810 0.930 . S
H2797 C2812 0.960 . S
H2798 C2812 0.960 . S
H2799 C2812 0.960 . S
C2800 H2792 0.929 . S
C2800 C2801 1.377 . S
C2800 C2802 1.384 . S
C2801 C2800 1.377 . S
C2801 C2807 1.390 . S
C2802 H2793 0.930 . S
C2802 C2800 1.384 . S
C2802 C2803 1.372 . S
C2803 C2802 1.372 . S
C2803 C2804 1.400 . S
C2803 C2808 1.490 . S
C2804 H2794 0.930 . S
C2804 C2803 1.400 . S
C2804 C2807 1.386 . S
H2805 C2821 0.930 . S
H2806 C2822 0.931 . S
C2807 H2795 0.929 . S
C2807 C2801 1.390 . S
C2807 C2804 1.386 . S
C2808 C2803 1.490 . S
C2808 C2810 1.395 . S
C2808 C2811 1.403 . S
H2809 C2815 0.930 . S
C2810 H2796 0.930 . S
C2810 C2808 1.395 . S
C2810 C2813 1.403 . S
C2811 C2808 1.403 . S
C2811 C2812 1.524 . S
C2811 C2815 1.400 . S
C2812 H2797 0.960 . S
C2812 H2798 0.960 . S
C2812 H2799 0.960 . S
C2812 C2811 1.524 . S
C2813 C2810 1.403 . S
C2813 C2814 1.392 . S
C2813 C2817 1.495 . S
C2814 C2813 1.392 . S
C2814 C2815 1.385 . S
C2814 C2816 1.478 . S
C2815 H2809 0.930 . S
C2815 C2811 1.400 . S
C2815 C2814 1.385 . S
C2816 C2814 1.478 . S
C2816 C2818 1.381 . S
C2816 C2822 1.383 . S
C2817 C2813 1.495 . S
C2817 H2823 0.959 . S
C2817 H2824 0.961 . S
C2817 H2825 0.960 . S
C2818 C2816 1.381 . S
C2818 C2819 1.394 . S
C2818 H2826 0.930 . S
C2819 C2818 1.394 . S
C2819 C2820 1.383 . S
C2819 H2827 0.929 . S
C2820 C2819 1.383 . S
C2820 C2821 1.377 . S
C2821 H2805 0.930 . S
C2821 C2820 1.377 . S
C2821 C2822 1.379 . S
C2822 H2806 0.931 . S
C2822 C2816 1.383 . S
C2822 C2821 1.379 . S
H2823 C2817 0.959 . S
H2824 C2817 0.961 . S
H2825 C2817 0.960 . S
H2826 C2818 0.930 . S
H2827 C2819 0.929 . S
H2828 C2836 0.929 . S
H2829 C2838 0.930 . S
H2830 C2840 0.930 . S
H2831 C2843 0.929 . S
H2832 C2846 0.930 . S
H2833 C2848 0.960 . S
H2834 C2848 0.960 . S
H2835 C2848 0.960 . S
C2836 H2828 0.929 . S
C2836 C2837 1.377 . S
C2836 C2838 1.384 . S
C2837 C2836 1.377 . S
C2837 C2843 1.390 . S
C2838 H2829 0.930 . S
C2838 C2836 1.384 . S
C2838 C2839 1.372 . S
C2839 C2838 1.372 . S
C2839 C2840 1.400 . S
C2839 C2844 1.490 . S
C2840 H2830 0.930 . S
C2840 C2839 1.400 . S
C2840 C2843 1.386 . S
H2841 C2857 0.930 . S
H2842 C2858 0.931 . S
C2843 H2831 0.929 . S
C2843 C2837 1.390 . S
C2843 C2840 1.386 . S
C2844 C2839 1.490 . S
C2844 C2846 1.395 . S
C2844 C2847 1.403 . S
H2845 C2851 0.930 . S
C2846 H2832 0.930 . S
C2846 C2844 1.395 . S
C2846 C2849 1.403 . S
C2847 C2844 1.403 . S
C2847 C2848 1.524 . S
C2847 C2851 1.400 . S
C2848 H2833 0.960 . S
C2848 H2834 0.960 . S
C2848 H2835 0.960 . S
C2848 C2847 1.524 . S
C2849 C2846 1.403 . S
C2849 C2850 1.392 . S
C2849 C2853 1.495 . S
C2850 C2849 1.392 . S
C2850 C2851 1.385 . S
C2850 C2852 1.478 . S
C2851 H2845 0.930 . S
C2851 C2847 1.400 . S
C2851 C2850 1.385 . S
C2852 C2850 1.478 . S
C2852 C2854 1.381 . S
C2852 C2858 1.383 . S
C2853 C2849 1.495 . S
C2853 H2859 0.959 . S
C2853 H2860 0.961 . S
C2853 H2861 0.960 . S
C2854 C2852 1.381 . S
C2854 C2855 1.394 . S
C2854 H2862 0.930 . S
C2855 C2854 1.394 . S
C2855 C2856 1.383 . S
C2855 H2863 0.929 . S
C2856 C2855 1.383 . S
C2856 C2857 1.377 . S
C2857 H2841 0.930 . S
C2857 C2856 1.377 . S
C2857 C2858 1.379 . S
C2858 H2842 0.931 . S
C2858 C2852 1.383 . S
C2858 C2857 1.379 . S
H2859 C2853 0.959 . S
H2860 C2853 0.961 . S
H2861 C2853 0.960 . S
H2862 C2854 0.930 . S
H2863 C2855 0.929 . S
H2864 C2872 0.929 . S
H2865 C2874 0.930 . S
H2866 C2876 0.930 . S
H2867 C2879 0.929 . S
H2868 C2882 0.930 . S
H2869 C2884 0.960 . S
H2870 C2884 0.960 . S
H2871 C2884 0.960 . S
C2872 H2864 0.929 . S
C2872 C2873 1.377 . S
C2872 C2874 1.384 . S
C2873 C2872 1.377 . S
C2873 C2879 1.390 . S
C2874 H2865 0.930 . S
C2874 C2872 1.384 . S
C2874 C2875 1.372 . S
C2875 C2874 1.372 . S
C2875 C2876 1.400 . S
C2875 C2880 1.490 . S
C2876 H2866 0.930 . S
C2876 C2875 1.400 . S
C2876 C2879 1.386 . S
H2877 C2893 0.930 . S
H2878 C2894 0.931 . S
C2879 H2867 0.929 . S
C2879 C2873 1.390 . S
C2879 C2876 1.386 . S
C2880 C2875 1.490 . S
C2880 C2882 1.395 . S
C2880 C2883 1.403 . S
H2881 C2887 0.930 . S
C2882 H2868 0.930 . S
C2882 C2880 1.395 . S
C2882 C2885 1.403 . S
C2883 C2880 1.403 . S
C2883 C2884 1.524 . S
C2883 C2887 1.400 . S
C2884 H2869 0.960 . S
C2884 H2870 0.960 . S
C2884 H2871 0.960 . S
C2884 C2883 1.524 . S
C2885 C2882 1.403 . S
C2885 C2886 1.392 . S
C2885 C2889 1.495 . S
C2886 C2885 1.392 . S
C2886 C2887 1.385 . S
C2886 C2888 1.478 . S
C2887 H2881 0.930 . S
C2887 C2883 1.400 . S
C2887 C2886 1.385 . S
C2888 C2886 1.478 . S
C2888 C2890 1.381 . S
C2888 C2894 1.383 . S
C2889 C2885 1.495 . S
C2889 H2895 0.959 . S
C2889 H2896 0.961 . S
C2889 H2897 0.960 . S
C2890 C2888 1.381 . S
C2890 C2891 1.394 . S
C2890 H2898 0.930 . S
C2891 C2890 1.394 . S
C2891 C2892 1.383 . S
C2891 H2899 0.929 . S
C2892 C2891 1.383 . S
C2892 C2893 1.377 . S
C2893 H2877 0.930 . S
C2893 C2892 1.377 . S
C2893 C2894 1.379 . S
C2894 H2878 0.931 . S
C2894 C2888 1.383 . S
C2894 C2893 1.379 . S
H2895 C2889 0.959 . S
H2896 C2889 0.961 . S
H2897 C2889 0.960 . S
H2898 C2890 0.930 . S
H2899 C2891 0.929 . S
H2900 C2908 0.929 . S
H2901 C2910 0.930 . S
H2902 C2912 0.930 . S
H2903 C2915 0.929 . S
H2904 C2918 0.930 . S
H2905 C2920 0.960 . S
H2906 C2920 0.960 . S
H2907 C2920 0.960 . S
C2908 H2900 0.929 . S
C2908 C2909 1.377 . S
C2908 C2910 1.384 . S
C2909 C2908 1.377 . S
C2909 C2915 1.390 . S
C2910 H2901 0.930 . S
C2910 C2908 1.384 . S
C2910 C2911 1.372 . S
C2911 C2910 1.372 . S
C2911 C2912 1.400 . S
C2911 C2916 1.490 . S
C2912 H2902 0.930 . S
C2912 C2911 1.400 . S
C2912 C2915 1.386 . S
H2913 C2929 0.930 . S
H2914 C2930 0.931 . S
C2915 H2903 0.929 . S
C2915 C2909 1.390 . S
C2915 C2912 1.386 . S
C2916 C2911 1.490 . S
C2916 C2918 1.395 . S
C2916 C2919 1.403 . S
H2917 C2923 0.930 . S
C2918 H2904 0.930 . S
C2918 C2916 1.395 . S
C2918 C2921 1.403 . S
C2919 C2916 1.403 . S
C2919 C2920 1.524 . S
C2919 C2923 1.400 . S
C2920 H2905 0.960 . S
C2920 H2906 0.960 . S
C2920 H2907 0.960 . S
C2920 C2919 1.524 . S
C2921 C2918 1.403 . S
C2921 C2922 1.392 . S
C2921 C2925 1.495 . S
C2922 C2921 1.392 . S
C2922 C2923 1.385 . S
C2922 C2924 1.478 . S
C2923 H2917 0.930 . S
C2923 C2919 1.400 . S
C2923 C2922 1.385 . S
C2924 C2922 1.478 . S
C2924 C2926 1.381 . S
C2924 C2930 1.383 . S
C2925 C2921 1.495 . S
C2925 H2931 0.959 . S
C2925 H2932 0.961 . S
C2925 H2933 0.960 . S
C2926 C2924 1.381 . S
C2926 C2927 1.394 . S
C2926 H2934 0.930 . S
C2927 C2926 1.394 . S
C2927 C2928 1.383 . S
C2927 H2935 0.929 . S
C2928 C2927 1.383 . S
C2928 C2929 1.377 . S
C2929 H2913 0.930 . S
C2929 C2928 1.377 . S
C2929 C2930 1.379 . S
C2930 H2914 0.931 . S
C2930 C2924 1.383 . S
C2930 C2929 1.379 . S
H2931 C2925 0.959 . S
H2932 C2925 0.961 . S
H2933 C2925 0.960 . S
H2934 C2926 0.930 . S
H2935 C2927 0.929 . S
H2936 C2944 0.929 . S
H2937 C2946 0.930 . S
H2938 C2948 0.930 . S
H2939 C2951 0.929 . S
H2940 C2954 0.930 . S
H2941 C2956 0.960 . S
H2942 C2956 0.960 . S
H2943 C2956 0.960 . S
C2944 H2936 0.929 . S
C2944 C2945 1.377 . S
C2944 C2946 1.384 . S
C2945 C2944 1.377 . S
C2945 C2951 1.390 . S
C2946 H2937 0.930 . S
C2946 C2944 1.384 . S
C2946 C2947 1.372 . S
C2947 C2946 1.372 . S
C2947 C2948 1.400 . S
C2947 C2952 1.490 . S
C2948 H2938 0.930 . S
C2948 C2947 1.400 . S
C2948 C2951 1.386 . S
H2949 C2965 0.930 . S
H2950 C2966 0.931 . S
C2951 H2939 0.929 . S
C2951 C2945 1.390 . S
C2951 C2948 1.386 . S
C2952 C2947 1.490 . S
C2952 C2954 1.395 . S
C2952 C2955 1.403 . S
H2953 C2959 0.930 . S
C2954 H2940 0.930 . S
C2954 C2952 1.395 . S
C2954 C2957 1.403 . S
C2955 C2952 1.403 . S
C2955 C2956 1.524 . S
C2955 C2959 1.400 . S
C2956 H2941 0.960 . S
C2956 H2942 0.960 . S
C2956 H2943 0.960 . S
C2956 C2955 1.524 . S
C2957 C2954 1.403 . S
C2957 C2958 1.392 . S
C2957 C2961 1.495 . S
C2958 C2957 1.392 . S
C2958 C2959 1.385 . S
C2958 C2960 1.478 . S
C2959 H2953 0.930 . S
C2959 C2955 1.400 . S
C2959 C2958 1.385 . S
C2960 C2958 1.478 . S
C2960 C2962 1.381 . S
C2960 C2966 1.383 . S
C2961 C2957 1.495 . S
C2961 H2967 0.959 . S
C2961 H2968 0.961 . S
C2961 H2969 0.960 . S
C2962 C2960 1.381 . S
C2962 C2963 1.394 . S
C2962 H2970 0.930 . S
C2963 C2962 1.394 . S
C2963 C2964 1.383 . S
C2963 H2971 0.929 . S
C2964 C2963 1.383 . S
C2964 C2965 1.377 . S
C2965 H2949 0.930 . S
C2965 C2964 1.377 . S
C2965 C2966 1.379 . S
C2966 H2950 0.931 . S
C2966 C2960 1.383 . S
C2966 C2965 1.379 . S
H2967 C2961 0.959 . S
H2968 C2961 0.961 . S
H2969 C2961 0.960 . S
H2970 C2962 0.930 . S
H2971 C2963 0.929 . S
H2972 C2980 0.929 . S
H2973 C2982 0.930 . S
H2974 C2984 0.930 . S
H2975 C2987 0.929 . S
H2976 C2990 0.930 . S
H2977 C2992 0.960 . S
H2978 C2992 0.960 . S
H2979 C2992 0.960 . S
C2980 H2972 0.929 . S
C2980 C2981 1.377 . S
C2980 C2982 1.384 . S
C2981 C2980 1.377 . S
C2981 C2987 1.390 . S
C2982 H2973 0.930 . S
C2982 C2980 1.384 . S
C2982 C2983 1.372 . S
C2983 C2982 1.372 . S
C2983 C2984 1.400 . S
C2983 C2988 1.490 . S
C2984 H2974 0.930 . S
C2984 C2983 1.400 . S
C2984 C2987 1.386 . S
H2985 C3001 0.930 . S
H2986 C3002 0.931 . S
C2987 H2975 0.929 . S
C2987 C2981 1.390 . S
C2987 C2984 1.386 . S
C2988 C2983 1.490 . S
C2988 C2990 1.395 . S
C2988 C2991 1.403 . S
H2989 C2995 0.930 1_455 S
C2990 H2976 0.930 . S
C2990 C2988 1.395 . S
C2990 C2993 1.403 . S
C2991 C2988 1.403 . S
C2991 C2992 1.524 . S
C2991 C2995 1.400 . S
C2992 H2977 0.960 . S
C2992 H2978 0.960 . S
C2992 H2979 0.960 . S
C2992 C2991 1.524 . S
C2993 C2990 1.403 . S
C2993 C2994 1.392 . S
C2993 C2997 1.495 . S
C2994 C2993 1.392 . S
C2994 C2995 1.385 . S
C2994 C2996 1.478 1_655 S
C2995 H2989 0.930 1_655 S
C2995 C2991 1.400 . S
C2995 C2994 1.385 . S
C2996 C2994 1.478 1_455 S
C2996 C2998 1.381 . S
C2996 C3002 1.383 . S
C2997 C2993 1.495 . S
C2997 H3003 0.959 . S
C2997 H3004 0.961 . S
C2997 H3005 0.960 . S
C2998 C2996 1.381 . S
C2998 C2999 1.394 . S
C2998 H3006 0.930 . S
C2999 C2998 1.394 . S
C2999 C3000 1.383 . S
C2999 H3007 0.929 . S
C3000 C2999 1.383 . S
C3000 C3001 1.377 . S
C3001 H2985 0.930 . S
C3001 C3000 1.377 . S
C3001 C3002 1.379 . S
C3002 H2986 0.931 . S
C3002 C2996 1.383 . S
C3002 C3001 1.379 . S
H3003 C2997 0.959 . S
H3004 C2997 0.961 . S
H3005 C2997 0.960 . S
H3006 C2998 0.930 . S
H3007 C2999 0.929 . S
H3008 C3016 0.929 . S
H3009 C3018 0.930 . S
H3010 C3020 0.930 . S
H3011 C3023 0.929 . S
H3012 C3026 0.930 . S
H3013 C3028 0.960 . S
H3014 C3028 0.960 . S
H3015 C3028 0.960 . S
C3016 H3008 0.929 . S
C3016 C3017 1.377 . S
C3016 C3018 1.384 . S
C3017 C3016 1.377 . S
C3017 C3023 1.390 . S
C3018 H3009 0.930 . S
C3018 C3016 1.384 . S
C3018 C3019 1.372 . S
C3019 C3018 1.372 . S
C3019 C3020 1.400 . S
C3019 C3024 1.490 . S
C3020 H3010 0.930 . S
C3020 C3019 1.400 . S
C3020 C3023 1.386 . S
H3021 C3037 0.930 . S
H3022 C3038 0.931 . S
C3023 H3011 0.929 . S
C3023 C3017 1.390 . S
C3023 C3020 1.386 . S
C3024 C3019 1.490 . S
C3024 C3026 1.395 . S
C3024 C3027 1.403 . S
H3025 C3031 0.930 . S
C3026 H3012 0.930 . S
C3026 C3024 1.395 . S
C3026 C3029 1.403 . S
C3027 C3024 1.403 . S
C3027 C3028 1.524 . S
C3027 C3031 1.400 . S
C3028 H3013 0.960 . S
C3028 H3014 0.960 . S
C3028 H3015 0.960 . S
C3028 C3027 1.524 . S
C3029 C3026 1.403 . S
C3029 C3030 1.392 . S
C3029 C3033 1.495 . S
C3030 C3029 1.392 . S
C3030 C3031 1.385 . S
C3030 C3032 1.478 . S
C3031 H3025 0.930 . S
C3031 C3027 1.400 . S
C3031 C3030 1.385 . S
C3032 C3030 1.478 . S
C3032 C3034 1.381 . S
C3032 C3038 1.383 . S
C3033 C3029 1.495 . S
C3033 H3039 0.959 . S
C3033 H3040 0.961 . S
C3033 H3041 0.960 . S
C3034 C3032 1.381 . S
C3034 C3035 1.394 . S
C3034 H3042 0.930 . S
C3035 C3034 1.394 . S
C3035 C3036 1.383 . S
C3035 H3043 0.929 . S
C3036 C3035 1.383 . S
C3036 C3037 1.377 . S
C3037 H3021 0.930 . S
C3037 C3036 1.377 . S
C3037 C3038 1.379 . S
C3038 H3022 0.931 . S
C3038 C3032 1.383 . S
C3038 C3037 1.379 . S
H3039 C3033 0.959 . S
H3040 C3033 0.961 . S
H3041 C3033 0.960 . S
H3042 C3034 0.930 . S
H3043 C3035 0.929 . S
H3044 C3052 0.929 . S
H3045 C3054 0.930 . S
H3046 C3056 0.930 . S
H3047 C3059 0.929 . S
H3048 C3062 0.930 . S
H3049 C3064 0.960 . S
H3050 C3064 0.960 . S
H3051 C3064 0.960 . S
C3052 H3044 0.929 . S
C3052 C3053 1.377 . S
C3052 C3054 1.384 . S
C3053 C3052 1.377 . S
C3053 C3059 1.390 . S
C3054 H3045 0.930 . S
C3054 C3052 1.384 . S
C3054 C3055 1.372 . S
C3055 C3054 1.372 . S
C3055 C3056 1.400 . S
C3055 C3060 1.490 . S
C3056 H3046 0.930 . S
C3056 C3055 1.400 . S
C3056 C3059 1.386 . S
H3057 C3073 0.930 . S
H3058 C3074 0.931 . S
C3059 H3047 0.929 . S
C3059 C3053 1.390 . S
C3059 C3056 1.386 . S
C3060 C3055 1.490 . S
C3060 C3062 1.395 . S
C3060 C3063 1.403 . S
H3061 C3067 0.930 . S
C3062 H3048 0.930 . S
C3062 C3060 1.395 . S
C3062 C3065 1.403 . S
C3063 C3060 1.403 . S
C3063 C3064 1.524 . S
C3063 C3067 1.400 . S
C3064 H3049 0.960 . S
C3064 H3050 0.960 . S
C3064 H3051 0.960 . S
C3064 C3063 1.524 . S
C3065 C3062 1.403 . S
C3065 C3066 1.392 . S
C3065 C3069 1.495 . S
C3066 C3065 1.392 . S
C3066 C3067 1.385 . S
C3066 C3068 1.478 . S
C3067 H3061 0.930 . S
C3067 C3063 1.400 . S
C3067 C3066 1.385 . S
C3068 C3066 1.478 . S
C3068 C3070 1.381 . S
C3068 C3074 1.383 . S
C3069 C3065 1.495 . S
C3069 H3075 0.959 . S
C3069 H3076 0.961 . S
C3069 H3077 0.960 . S
C3070 C3068 1.381 . S
C3070 C3071 1.394 . S
C3070 H3078 0.930 . S
C3071 C3070 1.394 . S
C3071 C3072 1.383 . S
C3071 H3079 0.929 . S
C3072 C3071 1.383 . S
C3072 C3073 1.377 . S
C3073 H3057 0.930 . S
C3073 C3072 1.377 . S
C3073 C3074 1.379 . S
C3074 H3058 0.931 . S
C3074 C3068 1.383 . S
C3074 C3073 1.379 . S
H3075 C3069 0.959 . S
H3076 C3069 0.961 . S
H3077 C3069 0.960 . S
H3078 C3070 0.930 . S
H3079 C3071 0.929 . S
H3080 C3088 0.929 . S
H3081 C3090 0.930 . S
H3082 C3092 0.930 . S
H3083 C3095 0.929 . S
H3084 C3098 0.930 . S
H3085 C3100 0.960 . S
H3086 C3100 0.960 . S
H3087 C3100 0.960 . S
C3088 H3080 0.929 . S
C3088 C3089 1.377 . S
C3088 C3090 1.384 . S
C3089 C3088 1.377 . S
C3089 C3095 1.390 . S
C3090 H3081 0.930 . S
C3090 C3088 1.384 . S
C3090 C3091 1.372 . S
C3091 C3090 1.372 . S
C3091 C3092 1.400 . S
C3091 C3096 1.490 . S
C3092 H3082 0.930 . S
C3092 C3091 1.400 . S
C3092 C3095 1.386 . S
H3093 C3109 0.930 . S
H3094 C3110 0.931 . S
C3095 H3083 0.929 . S
C3095 C3089 1.390 . S
C3095 C3092 1.386 . S
C3096 C3091 1.490 . S
C3096 C3098 1.395 . S
C3096 C3099 1.403 . S
H3097 C3103 0.930 . S
C3098 H3084 0.930 . S
C3098 C3096 1.395 . S
C3098 C3101 1.403 . S
C3099 C3096 1.403 . S
C3099 C3100 1.524 . S
C3099 C3103 1.400 . S
C3100 H3085 0.960 . S
C3100 H3086 0.960 . S
C3100 H3087 0.960 . S
C3100 C3099 1.524 . S
C3101 C3098 1.403 . S
C3101 C3102 1.392 . S
C3101 C3105 1.495 . S
C3102 C3101 1.392 . S
C3102 C3103 1.385 . S
C3102 C3104 1.478 . S
C3103 H3097 0.930 . S
C3103 C3099 1.400 . S
C3103 C3102 1.385 . S
C3104 C3102 1.478 . S
C3104 C3106 1.381 . S
C3104 C3110 1.383 . S
C3105 C3101 1.495 . S
C3105 H3111 0.959 . S
C3105 H3112 0.961 . S
C3105 H3113 0.960 . S
C3106 C3104 1.381 . S
C3106 C3107 1.394 . S
C3106 H3114 0.930 . S
C3107 C3106 1.394 . S
C3107 C3108 1.383 . S
C3107 H3115 0.929 . S
C3108 C3107 1.383 . S
C3108 C3109 1.377 . S
C3109 H3093 0.930 . S
C3109 C3108 1.377 . S
C3109 C3110 1.379 . S
C3110 H3094 0.931 . S
C3110 C3104 1.383 . S
C3110 C3109 1.379 . S
H3111 C3105 0.959 . S
H3112 C3105 0.961 . S
H3113 C3105 0.960 . S
H3114 C3106 0.930 . S
H3115 C3107 0.929 . S
H3116 C3124 0.929 . S
H3117 C3126 0.930 . S
H3118 C3128 0.930 . S
H3119 C3131 0.929 . S
H3120 C3134 0.930 . S
H3121 C3136 0.960 . S
H3122 C3136 0.960 . S
H3123 C3136 0.960 . S
C3124 H3116 0.929 . S
C3124 C3125 1.377 . S
C3124 C3126 1.384 . S
C3125 C3124 1.377 . S
C3125 C3131 1.390 . S
C3126 H3117 0.930 . S
C3126 C3124 1.384 . S
C3126 C3127 1.372 . S
C3127 C3126 1.372 . S
C3127 C3128 1.400 . S
C3127 C3132 1.490 . S
C3128 H3118 0.930 . S
C3128 C3127 1.400 . S
C3128 C3131 1.386 . S
H3129 C3145 0.930 . S
H3130 C3146 0.931 . S
C3131 H3119 0.929 . S
C3131 C3125 1.390 . S
C3131 C3128 1.386 . S
C3132 C3127 1.490 . S
C3132 C3134 1.395 . S
C3132 C3135 1.403 . S
H3133 C3139 0.930 1_455 S
C3134 H3120 0.930 . S
C3134 C3132 1.395 . S
C3134 C3137 1.403 . S
C3135 C3132 1.403 . S
C3135 C3136 1.524 . S
C3135 C3139 1.400 . S
C3136 H3121 0.960 . S
C3136 H3122 0.960 . S
C3136 H3123 0.960 . S
C3136 C3135 1.524 . S
C3137 C3134 1.403 . S
C3137 C3138 1.392 . S
C3137 C3141 1.495 . S
C3138 C3137 1.392 . S
C3138 C3139 1.385 . S
C3138 C3140 1.478 1_655 S
C3139 H3133 0.930 1_655 S
C3139 C3135 1.400 . S
C3139 C3138 1.385 . S
C3140 C3138 1.478 1_455 S
C3140 C3142 1.381 . S
C3140 C3146 1.383 . S
C3141 C3137 1.495 . S
C3141 H3147 0.959 . S
C3141 H3148 0.961 . S
C3141 H3149 0.960 . S
C3142 C3140 1.381 . S
C3142 C3143 1.394 . S
C3142 H3150 0.930 . S
C3143 C3142 1.394 . S
C3143 C3144 1.383 . S
C3143 H3151 0.929 . S
C3144 C3143 1.383 . S
C3144 C3145 1.377 . S
C3145 H3129 0.930 . S
C3145 C3144 1.377 . S
C3145 C3146 1.379 . S
C3146 H3130 0.931 . S
C3146 C3140 1.383 . S
C3146 C3145 1.379 . S
H3147 C3141 0.959 . S
H3148 C3141 0.961 . S
H3149 C3141 0.960 . S
H3150 C3142 0.930 . S
H3151 C3143 0.929 . S
H3152 C3160 0.929 . S
H3153 C3162 0.930 . S
H3154 C3164 0.930 . S
H3155 C3167 0.929 . S
H3156 C3170 0.930 . S
H3157 C3172 0.960 . S
H3158 C3172 0.960 . S
H3159 C3172 0.960 . S
C3160 H3152 0.929 . S
C3160 C3161 1.377 . S
C3160 C3162 1.384 . S
C3161 C3160 1.377 . S
C3161 C3167 1.390 . S
C3162 H3153 0.930 . S
C3162 C3160 1.384 . S
C3162 C3163 1.372 . S
C3163 C3162 1.372 . S
C3163 C3164 1.400 . S
C3163 C3168 1.490 . S
C3164 H3154 0.930 . S
C3164 C3163 1.400 . S
C3164 C3167 1.386 . S
H3165 C3181 0.930 . S
H3166 C3182 0.931 . S
C3167 H3155 0.929 . S
C3167 C3161 1.390 . S
C3167 C3164 1.386 . S
C3168 C3163 1.490 . S
C3168 C3170 1.395 . S
C3168 C3171 1.403 . S
H3169 C3175 0.930 . S
C3170 H3156 0.930 . S
C3170 C3168 1.395 . S
C3170 C3173 1.403 . S
C3171 C3168 1.403 . S
C3171 C3172 1.524 . S
C3171 C3175 1.400 . S
C3172 H3157 0.960 . S
C3172 H3158 0.960 . S
C3172 H3159 0.960 . S
C3172 C3171 1.524 . S
C3173 C3170 1.403 . S
C3173 C3174 1.392 . S
C3173 C3177 1.495 . S
C3174 C3173 1.392 . S
C3174 C3175 1.385 . S
C3174 C3176 1.478 . S
C3175 H3169 0.930 . S
C3175 C3171 1.400 . S
C3175 C3174 1.385 . S
C3176 C3174 1.478 . S
C3176 C3178 1.381 . S
C3176 C3182 1.383 . S
C3177 C3173 1.495 . S
C3177 H3183 0.959 . S
C3177 H3184 0.961 . S
C3177 H3185 0.960 . S
C3178 C3176 1.381 . S
C3178 C3179 1.394 . S
C3178 H3186 0.930 . S
C3179 C3178 1.394 . S
C3179 C3180 1.383 . S
C3179 H3187 0.929 . S
C3180 C3179 1.383 . S
C3180 C3181 1.377 . S
C3181 H3165 0.930 . S
C3181 C3180 1.377 . S
C3181 C3182 1.379 . S
C3182 H3166 0.931 . S
C3182 C3176 1.383 . S
C3182 C3181 1.379 . S
H3183 C3177 0.959 . S
H3184 C3177 0.961 . S
H3185 C3177 0.960 . S
H3186 C3178 0.930 . S
H3187 C3179 0.929 . S
H3188 C3196 0.929 . S
H3189 C3198 0.930 . S
H3190 C3200 0.930 . S
H3191 C3203 0.929 . S
H3192 C3206 0.930 . S
H3193 C3208 0.960 . S
H3194 C3208 0.960 . S
H3195 C3208 0.960 . S
C3196 H3188 0.929 . S
C3196 C3197 1.377 . S
C3196 C3198 1.384 . S
C3197 C3196 1.377 . S
C3197 C3203 1.390 . S
C3198 H3189 0.930 . S
C3198 C3196 1.384 . S
C3198 C3199 1.372 . S
C3199 C3198 1.372 . S
C3199 C3200 1.400 . S
C3199 C3204 1.490 . S
C3200 H3190 0.930 . S
C3200 C3199 1.400 . S
C3200 C3203 1.386 . S
H3201 C3217 0.930 . S
H3202 C3218 0.931 . S
C3203 H3191 0.929 . S
C3203 C3197 1.390 . S
C3203 C3200 1.386 . S
C3204 C3199 1.490 . S
C3204 C3206 1.395 . S
C3204 C3207 1.403 . S
H3205 C3211 0.930 . S
C3206 H3192 0.930 . S
C3206 C3204 1.395 . S
C3206 C3209 1.403 . S
C3207 C3204 1.403 . S
C3207 C3208 1.524 . S
C3207 C3211 1.400 . S
C3208 H3193 0.960 . S
C3208 H3194 0.960 . S
C3208 H3195 0.960 . S
C3208 C3207 1.524 . S
C3209 C3206 1.403 . S
C3209 C3210 1.402 . S
C3209 C3213 1.495 1_655 S
C3210 C3209 1.402 . S
C3210 C3211 1.399 . S
C3210 C3212 1.455 1_655 S
C3211 H3205 0.930 . S
C3211 C3207 1.400 . S
C3211 C3210 1.399 . S
C3212 C3210 1.455 1_455 S
C3212 C3214 1.381 . S
C3212 C3218 1.383 . S
C3213 C3209 1.495 1_455 S
C3213 H3219 0.959 1_455 S
C3213 H3220 0.961 . S
C3213 H3221 0.960 . S
C3214 C3212 1.381 . S
C3214 C3215 1.394 . S
C3214 H3222 0.930 . S
C3215 C3214 1.394 . S
C3215 C3216 1.383 . S
C3215 H3223 0.929 . S
C3216 C3215 1.383 . S
C3216 C3217 1.377 . S
C3217 H3201 0.930 . S
C3217 C3216 1.377 . S
C3217 C3218 1.379 . S
C3218 H3202 0.931 . S
C3218 C3212 1.383 . S
C3218 C3217 1.379 . S
H3219 C3213 0.959 1_655 S
H3220 C3213 0.961 . S
H3221 C3213 0.960 . S
H3222 C3214 0.930 . S
H3223 C3215 0.929 . S
H3224 C3232 0.929 . S
H3225 C3234 0.930 . S
H3226 C3236 0.930 . S
H3227 C3239 0.929 . S
H3228 C3242 0.930 . S
H3229 C3244 0.960 . S
H3230 C3244 0.960 . S
H3231 C3244 0.960 . S
C3232 H3224 0.929 . S
C3232 C3233 1.377 . S
C3232 C3234 1.384 . S
C3233 C3232 1.377 . S
C3233 C3239 1.390 . S
C3234 H3225 0.930 . S
C3234 C3232 1.384 . S
C3234 C3235 1.372 . S
C3235 C3234 1.372 . S
C3235 C3236 1.400 . S
C3235 C3240 1.490 . S
C3236 H3226 0.930 . S
C3236 C3235 1.400 . S
C3236 C3239 1.386 . S
H3237 C3253 0.930 . S
H3238 C3254 0.931 . S
C3239 H3227 0.929 . S
C3239 C3233 1.390 . S
C3239 C3236 1.386 . S
C3240 C3235 1.490 . S
C3240 C3242 1.395 . S
C3240 C3243 1.403 . S
H3241 C3247 0.930 . S
C3242 H3228 0.930 . S
C3242 C3240 1.395 . S
C3242 C3245 1.403 . S
C3243 C3240 1.403 . S
C3243 C3244 1.524 . S
C3243 C3247 1.400 . S
C3244 H3229 0.960 . S
C3244 H3230 0.960 . S
C3244 H3231 0.960 . S
C3244 C3243 1.524 . S
C3245 C3242 1.403 . S
C3245 C3246 1.392 . S
C3245 C3249 1.495 . S
C3246 C3245 1.392 . S
C3246 C3247 1.385 . S
C3246 C3248 1.478 . S
C3247 H3241 0.930 . S
C3247 C3243 1.400 . S
C3247 C3246 1.385 . S
C3248 C3246 1.478 . S
C3248 C3250 1.381 . S
C3248 C3254 1.383 . S
C3249 C3245 1.495 . S
C3249 H3255 0.959 . S
C3249 H3256 0.961 . S
C3249 H3257 0.960 . S
C3250 C3248 1.381 . S
C3250 C3251 1.394 . S
C3250 H3258 0.930 . S
C3251 C3250 1.394 . S
C3251 C3252 1.383 . S
C3251 H3259 0.929 . S
C3252 C3251 1.383 . S
C3252 C3253 1.377 . S
C3253 H3237 0.930 . S
C3253 C3252 1.377 . S
C3253 C3254 1.379 . S
C3254 H3238 0.931 . S
C3254 C3248 1.383 . S
C3254 C3253 1.379 . S
H3255 C3249 0.959 . S
H3256 C3249 0.961 . S
H3257 C3249 0.960 . S
H3258 C3250 0.930 . S
H3259 C3251 0.929 . S
H3260 C3268 0.929 . S
H3261 C3270 0.930 . S
H3262 C3272 0.930 . S
H3263 C3275 0.929 . S
H3264 C3278 0.930 . S
H3265 C3280 0.960 . S
H3266 C3280 0.960 . S
H3267 C3280 0.960 . S
C3268 H3260 0.929 . S
C3268 C3269 1.377 . S
C3268 C3270 1.384 . S
C3269 C3268 1.377 . S
C3269 C3275 1.390 . S
C3270 H3261 0.930 . S
C3270 C3268 1.384 . S
C3270 C3271 1.372 . S
C3271 C3270 1.372 . S
C3271 C3272 1.400 . S
C3271 C3276 1.490 . S
C3272 H3262 0.930 . S
C3272 C3271 1.400 . S
C3272 C3275 1.386 . S
H3273 C3289 0.930 . S
H3274 C3290 0.931 . S
C3275 H3263 0.929 . S
C3275 C3269 1.390 . S
C3275 C3272 1.386 . S
C3276 C3271 1.490 . S
C3276 C3278 1.395 . S
C3276 C3279 1.403 . S
H3277 C3283 0.930 . S
C3278 H3264 0.930 . S
C3278 C3276 1.395 . S
C3278 C3281 1.403 . S
C3279 C3276 1.403 . S
C3279 C3280 1.524 . S
C3279 C3283 1.400 . S
C3280 H3265 0.960 . S
C3280 H3266 0.960 . S
C3280 H3267 0.960 . S
C3280 C3279 1.524 . S
C3281 C3278 1.403 . S
C3281 C3282 1.392 . S
C3281 C3285 1.495 . S
C3282 C3281 1.392 . S
C3282 C3283 1.385 . S
C3282 C3284 1.478 . S
C3283 H3277 0.930 . S
C3283 C3279 1.400 . S
C3283 C3282 1.385 . S
C3284 C3282 1.478 . S
C3284 C3286 1.381 . S
C3284 C3290 1.383 . S
C3285 C3281 1.495 . S
C3285 H3291 0.959 . S
C3285 H3292 0.961 . S
C3285 H3293 0.960 . S
C3286 C3284 1.381 . S
C3286 C3287 1.394 . S
C3286 H3294 0.930 . S
C3287 C3286 1.394 . S
C3287 C3288 1.383 . S
C3287 H3295 0.929 . S
C3288 C3287 1.383 . S
C3288 C3289 1.377 . S
C3289 H3273 0.930 . S
C3289 C3288 1.377 . S
C3289 C3290 1.379 . S
C3290 H3274 0.931 . S
C3290 C3284 1.383 . S
C3290 C3289 1.379 . S
H3291 C3285 0.959 . S
H3292 C3285 0.961 . S
H3293 C3285 0.960 . S
H3294 C3286 0.930 . S
H3295 C3287 0.929 . S
H3296 C3304 0.929 . S
H3297 C3306 0.930 . S
H3298 C3308 0.930 . S
H3299 C3311 0.929 . S
H3300 C3314 0.930 . S
H3301 C3316 0.960 . S
H3302 C3316 0.960 . S
H3303 C3316 0.960 . S
C3304 H3296 0.929 . S
C3304 C3305 1.377 . S
C3304 C3306 1.384 . S
C3305 C3304 1.377 . S
C3305 C3311 1.390 . S
C3306 H3297 0.930 . S
C3306 C3304 1.384 . S
C3306 C3307 1.372 . S
C3307 C3306 1.372 . S
C3307 C3308 1.400 . S
C3307 C3312 1.490 . S
C3308 H3298 0.930 . S
C3308 C3307 1.400 . S
C3308 C3311 1.386 . S
H3309 C3325 0.930 . S
H3310 C3326 0.931 . S
C3311 H3299 0.929 . S
C3311 C3305 1.390 . S
C3311 C3308 1.386 . S
C3312 C3307 1.490 . S
C3312 C3314 1.395 . S
C3312 C3315 1.403 . S
H3313 C3319 0.930 . S
C3314 H3300 0.930 . S
C3314 C3312 1.395 . S
C3314 C3317 1.403 . S
C3315 C3312 1.403 . S
C3315 C3316 1.524 . S
C3315 C3319 1.400 . S
C3316 H3301 0.960 . S
C3316 H3302 0.960 . S
C3316 H3303 0.960 . S
C3316 C3315 1.524 . S
C3317 C3314 1.403 . S
C3317 C3318 1.392 . S
C3317 C3321 1.495 . S
C3318 C3317 1.392 . S
C3318 C3319 1.385 . S
C3318 C3320 1.478 . S
C3319 H3313 0.930 . S
C3319 C3315 1.400 . S
C3319 C3318 1.385 . S
C3320 C3318 1.478 . S
C3320 C3322 1.381 . S
C3320 C3326 1.383 . S
C3321 C3317 1.495 . S
C3321 H3327 0.959 . S
C3321 H3328 0.961 . S
C3321 H3329 0.960 . S
C3322 C3320 1.381 . S
C3322 C3323 1.394 . S
C3322 H3330 0.930 . S
C3323 C3322 1.394 . S
C3323 C3324 1.383 . S
C3323 H3331 0.929 . S
C3324 C3323 1.383 . S
C3324 C3325 1.377 . S
C3325 H3309 0.930 . S
C3325 C3324 1.377 . S
C3325 C3326 1.379 . S
C3326 H3310 0.931 . S
C3326 C3320 1.383 . S
C3326 C3325 1.379 . S
H3327 C3321 0.959 . S
H3328 C3321 0.961 . S
H3329 C3321 0.960 . S
H3330 C3322 0.930 . S
H3331 C3323 0.929 . S
H3332 C3340 0.929 . S
H3333 C3342 0.930 . S
H3334 C3344 0.930 . S
H3335 C3347 0.929 . S
H3336 C3350 0.930 . S
H3337 C3352 0.960 . S
H3338 C3352 0.960 . S
H3339 C3352 0.960 . S
C3340 H3332 0.929 . S
C3340 C3341 1.377 . S
C3340 C3342 1.384 . S
C3341 C3340 1.377 . S
C3341 C3347 1.390 . S
C3342 H3333 0.930 . S
C3342 C3340 1.384 . S
C3342 C3343 1.372 . S
C3343 C3342 1.372 . S
C3343 C3344 1.400 . S
C3343 C3348 1.490 . S
C3344 H3334 0.930 . S
C3344 C3343 1.400 . S
C3344 C3347 1.386 . S
H3345 C3361 0.930 . S
H3346 C3362 0.931 . S
C3347 H3335 0.929 . S
C3347 C3341 1.390 . S
C3347 C3344 1.386 . S
C3348 C3343 1.490 . S
C3348 C3350 1.395 . S
C3348 C3351 1.403 . S
H3349 C3355 0.930 . S
C3350 H3336 0.930 . S
C3350 C3348 1.395 . S
C3350 C3353 1.403 . S
C3351 C3348 1.403 . S
C3351 C3352 1.524 . S
C3351 C3355 1.400 . S
C3352 H3337 0.960 . S
C3352 H3338 0.960 . S
C3352 H3339 0.960 . S
C3352 C3351 1.524 . S
C3353 C3350 1.403 . S
C3353 C3354 1.392 . S
C3353 C3357 1.495 . S
C3354 C3353 1.392 . S
C3354 C3355 1.385 . S
C3354 C3356 1.478 . S
C3355 H3349 0.930 . S
C3355 C3351 1.400 . S
C3355 C3354 1.385 . S
C3356 C3354 1.478 . S
C3356 C3358 1.381 . S
C3356 C3362 1.383 . S
C3357 C3353 1.495 . S
C3357 H3363 0.959 . S
C3357 H3364 0.961 . S
C3357 H3365 0.960 . S
C3358 C3356 1.381 . S
C3358 C3359 1.394 . S
C3358 H3366 0.930 . S
C3359 C3358 1.394 . S
C3359 C3360 1.383 . S
C3359 H3367 0.929 . S
C3360 C3359 1.383 . S
C3360 C3361 1.377 . S
C3361 H3345 0.930 . S
C3361 C3360 1.377 . S
C3361 C3362 1.379 . S
C3362 H3346 0.931 . S
C3362 C3356 1.383 . S
C3362 C3361 1.379 . S
H3363 C3357 0.959 . S
H3364 C3357 0.961 . S
H3365 C3357 0.960 . S
H3366 C3358 0.930 . S
H3367 C3359 0.929 . S
H3368 C3376 0.929 . S
H3369 C3378 0.930 . S
H3370 C3380 0.930 . S
H3371 C3383 0.929 . S
H3372 C3386 0.930 . S
H3373 C3388 0.960 . S
H3374 C3388 0.960 . S
H3375 C3388 0.960 . S
C3376 H3368 0.929 . S
C3376 C3377 1.377 . S
C3376 C3378 1.384 . S
C3377 C3376 1.377 . S
C3377 C3383 1.390 . S
C3378 H3369 0.930 . S
C3378 C3376 1.384 . S
C3378 C3379 1.372 . S
C3379 C3378 1.372 . S
C3379 C3380 1.400 . S
C3379 C3384 1.490 . S
C3380 H3370 0.930 . S
C3380 C3379 1.400 . S
C3380 C3383 1.386 . S
H3381 C3397 0.930 . S
H3382 C3398 0.931 . S
C3383 H3371 0.929 . S
C3383 C3377 1.390 . S
C3383 C3380 1.386 . S
C3384 C3379 1.490 . S
C3384 C3386 1.395 . S
C3384 C3387 1.403 . S
H3385 C3391 0.930 . S
C3386 H3372 0.930 . S
C3386 C3384 1.395 . S
C3386 C3389 1.403 . S
C3387 C3384 1.403 . S
C3387 C3388 1.524 . S
C3387 C3391 1.400 . S
C3388 H3373 0.960 . S
C3388 H3374 0.960 . S
C3388 H3375 0.960 . S
C3388 C3387 1.524 . S
C3389 C3386 1.403 . S
C3389 C3390 1.392 . S
C3389 C3393 1.495 . S
C3390 C3389 1.392 . S
C3390 C3391 1.385 . S
C3390 C3392 1.478 . S
C3391 H3385 0.930 . S
C3391 C3387 1.400 . S
C3391 C3390 1.385 . S
C3392 C3390 1.478 . S
C3392 C3394 1.381 . S
C3392 C3398 1.383 . S
C3393 C3389 1.495 . S
C3393 H3399 0.959 . S
C3393 H3400 0.961 . S
C3393 H3401 0.960 . S
C3394 C3392 1.381 . S
C3394 C3395 1.394 . S
C3394 H3402 0.930 . S
C3395 C3394 1.394 . S
C3395 C3396 1.383 . S
C3395 H3403 0.929 . S
C3396 C3395 1.383 . S
C3396 C3397 1.377 . S
C3397 H3381 0.930 . S
C3397 C3396 1.377 . S
C3397 C3398 1.379 . S
C3398 H3382 0.931 . S
C3398 C3392 1.383 . S
C3398 C3397 1.379 . S
H3399 C3393 0.959 . S
H3400 C3393 0.961 . S
H3401 C3393 0.960 . S
H3402 C3394 0.930 . S
H3403 C3395 0.929 . S
H3404 C3412 0.929 . S
H3405 C3414 0.930 . S
H3406 C3416 0.930 . S
H3407 C3419 0.929 . S
H3408 C3422 0.930 . S
H3409 C3424 0.960 . S
H3410 C3424 0.960 1_655 S
H3411 C3424 0.962 . S
C3412 H3404 0.929 . S
C3412 C3413 1.377 . S
C3412 C3414 1.384 . S
C3413 C3412 1.377 . S
C3413 C3419 1.390 . S
C3414 H3405 0.930 . S
C3414 C3412 1.384 . S
C3414 C3415 1.372 . S
C3415 C3414 1.372 . S
C3415 C3416 1.400 . S
C3415 C3420 1.490 1_655 S
C3416 H3406 0.930 . S
C3416 C3415 1.400 . S
C3416 C3419 1.386 . S
H3417 C3433 0.930 . S
H3418 C3434 0.931 . S
C3419 H3407 0.929 . S
C3419 C3413 1.390 . S
C3419 C3416 1.386 . S
C3420 C3415 1.490 1_455 S
C3420 C3422 1.395 . S
C3420 C3423 1.403 . S
H3421 C3427 0.930 . S
C3422 H3408 0.930 . S
C3422 C3420 1.395 . S
C3422 C3425 1.403 . S
C3423 C3420 1.403 . S
C3423 C3424 1.524 . S
C3423 C3427 1.400 . S
C3424 H3409 0.960 . S
C3424 H3410 0.960 1_455 S
C3424 H3411 0.962 . S
C3424 C3423 1.524 . S
C3425 C3422 1.403 . S
C3425 C3426 1.392 . S
C3425 C3429 1.495 . S
C3426 C3425 1.392 . S
C3426 C3427 1.385 . S
C3426 C3428 1.478 . S
C3427 H3421 0.930 . S
C3427 C3423 1.400 . S
C3427 C3426 1.385 . S
C3428 C3426 1.478 . S
C3428 C3430 1.381 . S
C3428 C3434 1.383 . S
C3429 C3425 1.495 . S
C3429 H3435 0.959 . S
C3429 H3436 0.961 . S
C3429 H3437 0.960 . S
C3430 C3428 1.381 . S
C3430 C3431 1.394 . S
C3430 H3438 0.930 . S
C3431 C3430 1.394 . S
C3431 C3432 1.383 . S
C3431 H3439 0.929 . S
C3432 C3431 1.383 . S
C3432 C3433 1.377 . S
C3433 H3417 0.930 . S
C3433 C3432 1.377 . S
C3433 C3434 1.379 . S
C3434 H3418 0.931 . S
C3434 C3428 1.383 . S
C3434 C3433 1.379 . S
H3435 C3429 0.959 . S
H3436 C3429 0.961 . S
H3437 C3429 0.960 . S
H3438 C3430 0.930 . S
H3439 C3431 0.929 . S
H3440 C3448 0.929 . S
H3441 C3450 0.930 . S
H3442 C3452 0.930 . S
H3443 C3455 0.929 . S
H3444 C3458 0.930 . S
H3445 C3460 0.960 . S
H3446 C3460 0.960 . S
H3447 C3460 0.960 . S
C3448 H3440 0.929 . S
C3448 C3449 1.377 . S
C3448 C3450 1.384 . S
C3449 C3448 1.377 . S
C3449 C3455 1.390 . S
C3450 H3441 0.930 . S
C3450 C3448 1.384 . S
C3450 C3451 1.372 . S
C3451 C3450 1.372 . S
C3451 C3452 1.400 . S
C3451 C3456 1.490 . S
C3452 H3442 0.930 . S
C3452 C3451 1.400 . S
C3452 C3455 1.386 . S
H3453 C3469 0.930 . S
H3454 C3470 0.931 . S
C3455 H3443 0.929 . S
C3455 C3449 1.390 . S
C3455 C3452 1.386 . S
C3456 C3451 1.490 . S
C3456 C3458 1.395 . S
C3456 C3459 1.403 . S
H3457 C3463 0.930 . S
C3458 H3444 0.930 . S
C3458 C3456 1.395 . S
C3458 C3461 1.403 . S
C3459 C3456 1.403 . S
C3459 C3460 1.524 . S
C3459 C3463 1.400 . S
C3460 H3445 0.960 . S
C3460 H3446 0.960 . S
C3460 H3447 0.960 . S
C3460 C3459 1.524 . S
C3461 C3458 1.403 . S
C3461 C3462 1.392 . S
C3461 C3465 1.495 . S
C3462 C3461 1.392 . S
C3462 C3463 1.385 . S
C3462 C3464 1.478 . S
C3463 H3457 0.930 . S
C3463 C3459 1.400 . S
C3463 C3462 1.385 . S
C3464 C3462 1.478 . S
C3464 C3466 1.381 . S
C3464 C3470 1.383 . S
C3465 C3461 1.495 . S
C3465 H3471 0.959 . S
C3465 H3472 0.961 . S
C3465 H3473 0.960 . S
C3466 C3464 1.381 . S
C3466 C3467 1.394 . S
C3466 H3474 0.930 . S
C3467 C3466 1.394 . S
C3467 C3468 1.383 . S
C3467 H3475 0.929 . S
C3468 C3467 1.383 . S
C3468 C3469 1.377 . S
C3469 H3453 0.930 . S
C3469 C3468 1.377 . S
C3469 C3470 1.379 . S
C3470 H3454 0.931 . S
C3470 C3464 1.383 . S
C3470 C3469 1.379 . S
H3471 C3465 0.959 . S
H3472 C3465 0.961 . S
H3473 C3465 0.960 . S
H3474 C3466 0.930 . S
H3475 C3467 0.929 . S
H3476 C3484 0.929 . S
H3477 C3486 0.930 . S
H3478 C3488 0.930 . S
H3479 C3491 0.929 . S
H3480 C3494 0.930 . S
H3481 C3496 0.960 . S
H3482 C3496 0.960 . S
H3483 C3496 0.960 . S
C3484 H3476 0.929 . S
C3484 C3485 1.377 . S
C3484 C3486 1.384 . S
C3485 C3484 1.377 . S
C3485 C3491 1.390 . S
C3486 H3477 0.930 . S
C3486 C3484 1.384 . S
C3486 C3487 1.372 . S
C3487 C3486 1.372 . S
C3487 C3488 1.400 . S
C3487 C3492 1.490 . S
C3488 H3478 0.930 . S
C3488 C3487 1.400 . S
C3488 C3491 1.386 . S
H3489 C3505 0.930 . S
H3490 C3506 0.931 . S
C3491 H3479 0.929 . S
C3491 C3485 1.390 . S
C3491 C3488 1.386 . S
C3492 C3487 1.490 . S
C3492 C3494 1.395 . S
C3492 C3495 1.403 . S
H3493 C3499 0.930 . S
C3494 H3480 0.930 . S
C3494 C3492 1.395 . S
C3494 C3497 1.353 1_455 S
C3495 C3492 1.403 . S
C3495 C3496 1.524 . S
C3495 C3499 1.400 . S
C3496 H3481 0.960 . S
C3496 H3482 0.960 . S
C3496 H3483 0.960 . S
C3496 C3495 1.524 . S
C3497 C3494 1.353 1_655 S
C3497 C3498 1.392 . S
C3497 C3501 1.544 . S
C3498 C3497 1.392 . S
C3498 C3499 1.338 1_655 S
C3498 C3500 1.524 . S
C3499 H3493 0.930 . S
C3499 C3495 1.400 . S
C3499 C3498 1.338 1_455 S
C3500 C3498 1.524 . S
C3500 C3502 1.381 . S
C3500 C3506 1.383 . S
C3501 C3497 1.544 . S
C3501 H3507 0.959 . S
C3501 H3508 0.961 . S
C3501 H3509 0.960 . S
C3502 C3500 1.381 . S
C3502 C3503 1.394 . S
C3502 H3510 0.930 . S
C3503 C3502 1.394 . S
C3503 C3504 1.383 . S
C3503 H3511 0.929 . S
C3504 C3503 1.383 . S
C3504 C3505 1.377 . S
C3505 H3489 0.930 . S
C3505 C3504 1.377 . S
C3505 C3506 1.379 . S
C3506 H3490 0.931 . S
C3506 C3500 1.383 . S
C3506 C3505 1.379 . S
H3507 C3501 0.959 . S
H3508 C3501 0.961 . S
H3509 C3501 0.960 . S
H3510 C3502 0.930 . S
H3511 C3503 0.929 . S
H3512 C3520 0.929 . S
H3513 C3522 0.930 . S
H3514 C3524 0.930 . S
H3515 C3527 0.929 . S
H3516 C3530 0.930 . S
H3517 C3532 0.960 . S
H3518 C3532 0.960 . S
H3519 C3532 0.960 . S
C3520 H3512 0.929 . S
C3520 C3521 1.377 . S
C3520 C3522 1.384 . S
C3521 C3520 1.377 . S
C3521 C3527 1.390 . S
C3522 H3513 0.930 . S
C3522 C3520 1.384 . S
C3522 C3523 1.372 . S
C3523 C3522 1.372 . S
C3523 C3524 1.400 . S
C3523 C3528 1.490 . S
C3524 H3514 0.930 . S
C3524 C3523 1.400 . S
C3524 C3527 1.386 . S
H3525 C3541 0.930 . S
H3526 C3542 0.931 . S
C3527 H3515 0.929 . S
C3527 C3521 1.390 . S
C3527 C3524 1.386 . S
C3528 C3523 1.490 . S
C3528 C3530 1.395 . S
C3528 C3531 1.403 . S
H3529 C3535 0.930 . S
C3530 H3516 0.930 . S
C3530 C3528 1.395 . S
C3530 C3533 1.403 . S
C3531 C3528 1.403 . S
C3531 C3532 1.524 . S
C3531 C3535 1.400 . S
C3532 H3517 0.960 . S
C3532 H3518 0.960 . S
C3532 H3519 0.960 . S
C3532 C3531 1.524 . S
C3533 C3530 1.403 . S
C3533 C3534 1.392 . S
C3533 C3537 1.495 . S
C3534 C3533 1.392 . S
C3534 C3535 1.385 . S
C3534 C3536 1.478 . S
C3535 H3529 0.930 . S
C3535 C3531 1.400 . S
C3535 C3534 1.385 . S
C3536 C3534 1.478 . S
C3536 C3538 1.381 . S
C3536 C3542 1.383 . S
C3537 C3533 1.495 . S
C3537 H3543 0.959 . S
C3537 H3544 0.961 . S
C3537 H3545 0.960 . S
C3538 C3536 1.381 . S
C3538 C3539 1.394 . S
C3538 H3546 0.930 . S
C3539 C3538 1.394 . S
C3539 C3540 1.383 . S
C3539 H3547 0.929 . S
C3540 C3539 1.383 . S
C3540 C3541 1.377 . S
C3541 H3525 0.930 . S
C3541 C3540 1.377 . S
C3541 C3542 1.379 . S
C3542 H3526 0.931 . S
C3542 C3536 1.383 . S
C3542 C3541 1.379 . S
H3543 C3537 0.959 . S
H3544 C3537 0.961 . S
H3545 C3537 0.960 . S
H3546 C3538 0.930 . S
H3547 C3539 0.929 . S
H3548 C3556 0.929 . S
H3549 C3558 0.930 . S
H3550 C3560 0.930 . S
H3551 C3563 0.929 . S
H3552 C3566 0.930 . S
H3553 C3568 0.960 . S
H3554 C3568 0.960 . S
H3555 C3568 0.960 . S
C3556 H3548 0.929 . S
C3556 C3557 1.377 . S
C3556 C3558 1.384 . S
C3557 C3556 1.377 . S
C3557 C3563 1.390 . S
C3558 H3549 0.930 . S
C3558 C3556 1.384 . S
C3558 C3559 1.372 . S
C3559 C3558 1.372 . S
C3559 C3560 1.400 . S
C3559 C3564 1.490 . S
C3560 H3550 0.930 . S
C3560 C3559 1.400 . S
C3560 C3563 1.386 . S
H3561 C3577 0.930 . S
H3562 C3578 0.931 . S
C3563 H3551 0.929 . S
C3563 C3557 1.390 . S
C3563 C3560 1.386 . S
C3564 C3559 1.490 . S
C3564 C3566 1.395 . S
C3564 C3567 1.403 . S
H3565 C3571 0.930 . S
C3566 H3552 0.930 . S
C3566 C3564 1.395 . S
C3566 C3569 1.403 . S
C3567 C3564 1.403 . S
C3567 C3568 1.524 . S
C3567 C3571 1.400 . S
C3568 H3553 0.960 . S
C3568 H3554 0.960 . S
C3568 H3555 0.960 . S
C3568 C3567 1.524 . S
C3569 C3566 1.403 . S
C3569 C3570 1.392 . S
C3569 C3573 1.495 . S
C3570 C3569 1.392 . S
C3570 C3571 1.385 . S
C3570 C3572 1.478 . S
C3571 H3565 0.930 . S
C3571 C3567 1.400 . S
C3571 C3570 1.385 . S
C3572 C3570 1.478 . S
C3572 C3574 1.381 . S
C3572 C3578 1.383 . S
C3573 C3569 1.495 . S
C3573 H3579 0.959 . S
C3573 H3580 0.961 . S
C3573 H3581 0.960 . S
C3574 C3572 1.381 . S
C3574 C3575 1.394 . S
C3574 H3582 0.930 . S
C3575 C3574 1.394 . S
C3575 C3576 1.383 . S
C3575 H3583 0.929 . S
C3576 C3575 1.383 . S
C3576 C3577 1.377 . S
C3577 H3561 0.930 . S
C3577 C3576 1.377 . S
C3577 C3578 1.379 . S
C3578 H3562 0.931 . S
C3578 C3572 1.383 . S
C3578 C3577 1.379 . S
H3579 C3573 0.959 . S
H3580 C3573 0.961 . S
H3581 C3573 0.960 . S
H3582 C3574 0.930 . S
H3583 C3575 0.929 . S
H3584 C3592 0.929 . S
H3585 C3594 0.930 . S
H3586 C3596 0.930 . S
H3587 C3599 0.929 . S
H3588 C3602 0.930 . S
H3589 C3604 0.960 . S
H3590 C3604 0.960 . S
H3591 C3604 0.960 1_545 S
C3592 H3584 0.929 . S
C3592 C3593 1.377 . S
C3592 C3594 1.384 . S
C3593 C3592 1.377 . S
C3593 C3599 1.390 . S
C3594 H3585 0.930 . S
C3594 C3592 1.384 . S
C3594 C3595 1.372 . S
C3595 C3594 1.372 . S
C3595 C3596 1.400 . S
C3595 C3600 1.490 . S
C3596 H3586 0.930 . S
C3596 C3595 1.400 . S
C3596 C3599 1.386 . S
H3597 C3613 0.930 . S
H3598 C3614 0.931 . S
C3599 H3587 0.929 . S
C3599 C3593 1.390 . S
C3599 C3596 1.386 . S
C3600 C3595 1.490 . S
C3600 C3602 1.395 . S
C3600 C3603 1.403 1_545 S
H3601 C3607 0.930 . S
C3602 H3588 0.930 . S
C3602 C3600 1.395 . S
C3602 C3605 1.403 . S
C3603 C3600 1.403 1_565 S
C3603 C3604 1.524 . S
C3603 C3607 1.400 . S
C3604 H3589 0.960 . S
C3604 H3590 0.960 . S
C3604 H3591 0.960 1_565 S
C3604 C3603 1.524 . S
C3605 C3602 1.403 . S
C3605 C3606 1.392 1_545 S
C3605 C3609 1.495 . S
C3606 C3605 1.392 1_565 S
C3606 C3607 1.385 . S
C3606 C3608 1.478 . S
C3607 H3601 0.930 . S
C3607 C3603 1.400 . S
C3607 C3606 1.385 . S
C3608 C3606 1.478 . S
C3608 C3610 1.381 . S
C3608 C3614 1.383 . S
C3609 C3605 1.495 . S
C3609 H3615 0.959 . S
C3609 H3616 0.961 . S
C3609 H3617 0.960 1_545 S
C3610 C3608 1.381 . S
C3610 C3611 1.394 . S
C3610 H3618 0.930 . S
C3611 C3610 1.394 . S
C3611 C3612 1.383 . S
C3611 H3619 0.929 . S
C3612 C3611 1.383 . S
C3612 C3613 1.377 . S
C3613 H3597 0.930 . S
C3613 C3612 1.377 . S
C3613 C3614 1.379 . S
C3614 H3598 0.931 . S
C3614 C3608 1.383 . S
C3614 C3613 1.379 . S
H3615 C3609 0.959 . S
H3616 C3609 0.961 . S
H3617 C3609 0.960 1_565 S
H3618 C3610 0.930 . S
H3619 C3611 0.929 . S
H3620 C3628 0.929 . S
H3621 C3630 0.930 . S
H3622 C3632 0.930 . S
H3623 C3635 0.929 . S
H3624 C3638 0.930 . S
H3625 C3640 0.960 . S
H3626 C3640 0.960 . S
H3627 C3640 0.960 . S
C3628 H3620 0.929 . S
C3628 C3629 1.377 . S
C3628 C3630 1.384 . S
C3629 C3628 1.377 . S
C3629 C3635 1.390 . S
C3630 H3621 0.930 . S
C3630 C3628 1.384 . S
C3630 C3631 1.372 . S
C3631 C3630 1.372 . S
C3631 C3632 1.400 . S
C3631 C3636 1.490 . S
C3632 H3622 0.930 . S
C3632 C3631 1.400 . S
C3632 C3635 1.386 . S
H3633 C3649 0.930 . S
H3634 C3650 0.931 . S
C3635 H3623 0.929 . S
C3635 C3629 1.390 . S
C3635 C3632 1.386 . S
C3636 C3631 1.490 . S
C3636 C3638 1.395 . S
C3636 C3639 1.403 . S
H3637 C3643 0.930 . S
C3638 H3624 0.930 . S
C3638 C3636 1.395 . S
C3638 C3641 1.403 . S
C3639 C3636 1.403 . S
C3639 C3640 1.524 . S
C3639 C3643 1.400 . S
C3640 H3625 0.960 . S
C3640 H3626 0.960 . S
C3640 H3627 0.960 . S
C3640 C3639 1.524 . S
C3641 C3638 1.403 . S
C3641 C3642 1.392 . S
C3641 C3645 1.495 . S
C3642 C3641 1.392 . S
C3642 C3643 1.385 . S
C3642 C3644 1.478 . S
C3643 H3637 0.930 . S
C3643 C3639 1.400 . S
C3643 C3642 1.385 . S
C3644 C3642 1.478 . S
C3644 C3646 1.381 . S
C3644 C3650 1.383 . S
C3645 C3641 1.495 . S
C3645 H3651 0.959 . S
C3645 H3652 0.961 . S
C3645 H3653 0.960 . S
C3646 C3644 1.381 . S
C3646 C3647 1.394 . S
C3646 H3654 0.930 . S
C3647 C3646 1.394 . S
C3647 C3648 1.383 . S
C3647 H3655 0.929 . S
C3648 C3647 1.383 . S
C3648 C3649 1.377 . S
C3649 H3633 0.930 . S
C3649 C3648 1.377 . S
C3649 C3650 1.379 . S
C3650 H3634 0.931 . S
C3650 C3644 1.383 . S
C3650 C3649 1.379 . S
H3651 C3645 0.959 . S
H3652 C3645 0.961 . S
H3653 C3645 0.960 . S
H3654 C3646 0.930 . S
H3655 C3647 0.929 . S
H3656 C3664 0.929 . S
H3657 C3666 0.930 . S
H3658 C3668 0.930 . S
H3659 C3671 0.929 . S
H3660 C3674 0.930 . S
H3661 C3676 0.960 . S
H3662 C3676 0.960 . S
H3663 C3676 0.960 . S
C3664 H3656 0.929 . S
C3664 C3665 1.377 . S
C3664 C3666 1.384 . S
C3665 C3664 1.377 . S
C3665 C3671 1.390 . S
C3666 H3657 0.930 . S
C3666 C3664 1.384 . S
C3666 C3667 1.372 . S
C3667 C3666 1.372 . S
C3667 C3668 1.400 . S
C3667 C3672 1.490 . S
C3668 H3658 0.930 . S
C3668 C3667 1.400 . S
C3668 C3671 1.386 . S
H3669 C3685 0.930 . S
H3670 C3686 0.931 . S
C3671 H3659 0.929 . S
C3671 C3665 1.390 . S
C3671 C3668 1.386 . S
C3672 C3667 1.490 . S
C3672 C3674 1.395 . S
C3672 C3675 1.403 . S
H3673 C3679 0.930 . S
C3674 H3660 0.930 . S
C3674 C3672 1.395 . S
C3674 C3677 1.403 1_565 S
C3675 C3672 1.403 . S
C3675 C3676 1.524 . S
C3675 C3679 1.400 1_565 S
C3676 H3661 0.960 . S
C3676 H3662 0.960 . S
C3676 H3663 0.960 . S
C3676 C3675 1.524 . S
C3677 C3674 1.403 1_545 S
C3677 C3678 1.392 . S
C3677 C3681 1.495 . S
C3678 C3677 1.392 . S
C3678 C3679 1.385 . S
C3678 C3680 1.478 . S
C3679 H3673 0.930 . S
C3679 C3675 1.400 1_545 S
C3679 C3678 1.385 . S
C3680 C3678 1.478 . S
C3680 C3682 1.381 . S
C3680 C3686 1.383 . S
C3681 C3677 1.495 . S
C3681 H3687 0.959 . S
C3681 H3688 0.961 . S
C3681 H3689 0.960 . S
C3682 C3680 1.381 . S
C3682 C3683 1.394 . S
C3682 H3690 0.930 . S
C3683 C3682 1.394 . S
C3683 C3684 1.383 . S
C3683 H3691 0.929 . S
C3684 C3683 1.383 . S
C3684 C3685 1.377 . S
C3685 H3669 0.930 . S
C3685 C3684 1.377 . S
C3685 C3686 1.379 . S
C3686 H3670 0.931 . S
C3686 C3680 1.383 . S
C3686 C3685 1.379 . S
H3687 C3681 0.959 . S
H3688 C3681 0.961 . S
H3689 C3681 0.960 . S
H3690 C3682 0.930 . S
H3691 C3683 0.929 . S
H3692 C3700 0.929 . S
H3693 C3702 0.930 . S
H3694 C3704 0.930 . S
H3695 C3707 0.929 . S
H3696 C3710 0.930 . S
H3697 C3712 0.960 . S
H3698 C3712 0.960 . S
H3699 C3712 0.960 . S
C3700 H3692 0.929 . S
C3700 C3701 1.377 . S
C3700 C3702 1.384 . S
C3701 C3700 1.377 . S
C3701 C3707 1.390 . S
C3702 H3693 0.930 . S
C3702 C3700 1.384 . S
C3702 C3703 1.372 . S
C3703 C3702 1.372 . S
C3703 C3704 1.400 . S
C3703 C3708 1.490 . S
C3704 H3694 0.930 . S
C3704 C3703 1.400 . S
C3704 C3707 1.386 . S
H3705 C3721 0.930 . S
H3706 C3722 0.931 . S
C3707 H3695 0.929 . S
C3707 C3701 1.390 . S
C3707 C3704 1.386 . S
C3708 C3703 1.490 . S
C3708 C3710 1.395 1_556 S
C3708 C3711 1.403 . S
H3709 C3715 0.930 . S
C3710 H3696 0.930 . S
C3710 C3708 1.395 1_554 S
C3710 C3713 1.403 . S
C3711 C3708 1.403 . S
C3711 C3712 1.524 . S
C3711 C3715 1.400 . S
C3712 H3697 0.960 . S
C3712 H3698 0.960 . S
C3712 H3699 0.960 . S
C3712 C3711 1.524 . S
C3713 C3710 1.403 . S
C3713 C3714 1.392 . S
C3713 C3717 1.495 . S
C3714 C3713 1.392 . S
C3714 C3715 1.385 1_554 S
C3714 C3716 1.478 . S
C3715 H3709 0.930 . S
C3715 C3711 1.400 . S
C3715 C3714 1.385 1_556 S
C3716 C3714 1.478 . S
C3716 C3718 1.381 . S
C3716 C3722 1.383 . S
C3717 C3713 1.495 . S
C3717 H3723 0.959 . S
C3717 H3724 0.961 . S
C3717 H3725 0.960 . S
C3718 C3716 1.381 . S
C3718 C3719 1.394 . S
C3718 H3726 0.930 . S
C3719 C3718 1.394 . S
C3719 C3720 1.383 . S
C3719 H3727 0.929 . S
C3720 C3719 1.383 . S
C3720 C3721 1.377 . S
C3721 H3705 0.930 . S
C3721 C3720 1.377 . S
C3721 C3722 1.379 . S
C3722 H3706 0.931 . S
C3722 C3716 1.383 . S
C3722 C3721 1.379 . S
H3723 C3717 0.959 . S
H3724 C3717 0.961 . S
H3725 C3717 0.960 . S
H3726 C3718 0.930 . S
H3727 C3719 0.929 . S
H3728 C3736 0.929 . S
H3729 C3738 0.930 . S
H3730 C3740 0.930 . S
H3731 C3743 0.929 . S
H3732 C3746 0.930 . S
H3733 C3748 0.960 . S
H3734 C3748 0.960 . S
H3735 C3748 0.960 . S
C3736 H3728 0.929 . S
C3736 C3737 1.377 . S
C3736 C3738 1.384 . S
C3737 C3736 1.377 . S
C3737 C3743 1.390 . S
C3738 H3729 0.930 . S
C3738 C3736 1.384 . S
C3738 C3739 1.372 . S
C3739 C3738 1.372 . S
C3739 C3740 1.400 . S
C3739 C3744 1.490 . S
C3740 H3730 0.930 . S
C3740 C3739 1.400 . S
C3740 C3743 1.386 . S
H3741 C3757 0.930 . S
H3742 C3758 0.931 . S
C3743 H3731 0.929 . S
C3743 C3737 1.390 . S
C3743 C3740 1.386 . S
C3744 C3739 1.490 . S
C3744 C3746 1.395 1_545 S
C3744 C3747 1.403 . S
H3745 C3751 0.930 . S
C3746 H3732 0.930 . S
C3746 C3744 1.395 1_565 S
C3746 C3749 1.403 . S
C3747 C3744 1.403 . S
C3747 C3748 1.524 . S
C3747 C3751 1.400 1_545 S
C3748 H3733 0.960 . S
C3748 H3734 0.960 . S
C3748 H3735 0.960 . S
C3748 C3747 1.524 . S
C3749 C3746 1.403 . S
C3749 C3750 1.392 . S
C3749 C3753 1.495 . S
C3750 C3749 1.392 . S
C3750 C3751 1.385 . S
C3750 C3752 1.478 . S
C3751 H3745 0.930 . S
C3751 C3747 1.400 1_565 S
C3751 C3750 1.385 . S
C3752 C3750 1.478 . S
C3752 C3754 1.381 . S
C3752 C3758 1.383 . S
C3753 C3749 1.495 . S
C3753 H3759 0.959 . S
C3753 H3760 0.961 . S
C3753 H3761 0.960 . S
C3754 C3752 1.381 . S
C3754 C3755 1.394 . S
C3754 H3762 0.930 . S
C3755 C3754 1.394 . S
C3755 C3756 1.383 . S
C3755 H3763 0.929 . S
C3756 C3755 1.383 . S
C3756 C3757 1.377 . S
C3757 H3741 0.930 . S
C3757 C3756 1.377 . S
C3757 C3758 1.379 . S
C3758 H3742 0.931 . S
C3758 C3752 1.383 . S
C3758 C3757 1.379 . S
H3759 C3753 0.959 . S
H3760 C3753 0.961 . S
H3761 C3753 0.960 . S
H3762 C3754 0.930 . S
H3763 C3755 0.929 . S
H3764 C3772 0.929 . S
H3765 C3774 0.930 . S
H3766 C3776 0.930 . S
H3767 C3779 0.929 . S
H3768 C3782 0.930 . S
H3769 C3784 0.960 . S
H3770 C3784 0.960 . S
H3771 C3784 0.960 . S
C3772 H3764 0.929 . S
C3772 C3773 1.377 . S
C3772 C3774 1.384 . S
C3773 C3772 1.377 . S
C3773 C3779 1.390 . S
C3774 H3765 0.930 . S
C3774 C3772 1.384 . S
C3774 C3775 1.372 . S
C3775 C3774 1.372 . S
C3775 C3776 1.400 . S
C3775 C3780 1.490 . S
C3776 H3766 0.930 . S
C3776 C3775 1.400 . S
C3776 C3779 1.386 . S
H3777 C3793 0.930 . S
H3778 C3794 0.931 . S
C3779 H3767 0.929 . S
C3779 C3773 1.390 . S
C3779 C3776 1.386 . S
C3780 C3775 1.490 . S
C3780 C3782 1.395 . S
C3780 C3783 1.403 . S
H3781 C3787 0.930 . S
C3782 H3768 0.930 . S
C3782 C3780 1.395 . S
C3782 C3785 1.403 . S
C3783 C3780 1.403 . S
C3783 C3784 1.524 . S
C3783 C3787 1.400 . S
C3784 H3769 0.960 . S
C3784 H3770 0.960 . S
C3784 H3771 0.960 . S
C3784 C3783 1.524 . S
C3785 C3782 1.403 . S
C3785 C3786 1.392 . S
C3785 C3789 1.495 . S
C3786 C3785 1.392 . S
C3786 C3787 1.385 . S
C3786 C3788 1.478 . S
C3787 H3781 0.930 . S
C3787 C3783 1.400 . S
C3787 C3786 1.385 . S
C3788 C3786 1.478 . S
C3788 C3790 1.381 . S
C3788 C3794 1.383 . S
C3789 C3785 1.495 . S
C3789 H3795 0.959 . S
C3789 H3796 0.961 . S
C3789 H3797 0.960 . S
C3790 C3788 1.381 . S
C3790 C3791 1.394 . S
C3790 H3798 0.930 . S
C3791 C3790 1.394 . S
C3791 C3792 1.383 . S
C3791 H3799 0.929 . S
C3792 C3791 1.383 . S
C3792 C3793 1.377 . S
C3793 H3777 0.930 . S
C3793 C3792 1.377 . S
C3793 C3794 1.379 . S
C3794 H3778 0.931 . S
C3794 C3788 1.383 . S
C3794 C3793 1.379 . S
H3795 C3789 0.959 . S
H3796 C3789 0.961 . S
H3797 C3789 0.960 . S
H3798 C3790 0.930 . S
H3799 C3791 0.929 . S
H3800 C3808 0.929 . S
H3801 C3810 0.930 . S
H3802 C3812 0.930 . S
H3803 C3815 0.929 . S
H3804 C3818 0.930 . S
H3805 C3820 0.960 . S
H3806 C3820 0.960 . S
H3807 C3820 0.960 . S
C3808 H3800 0.929 . S
C3808 C3809 1.377 . S
C3808 C3810 1.384 . S
C3809 C3808 1.377 . S
C3809 C3815 1.390 . S
C3810 H3801 0.930 . S
C3810 C3808 1.384 . S
C3810 C3811 1.372 . S
C3811 C3810 1.372 . S
C3811 C3812 1.400 . S
C3811 C3816 1.490 . S
C3812 H3802 0.930 . S
C3812 C3811 1.400 . S
C3812 C3815 1.386 . S
H3813 C3829 0.930 . S
H3814 C3830 0.931 . S
C3815 H3803 0.929 . S
C3815 C3809 1.390 . S
C3815 C3812 1.386 . S
C3816 C3811 1.490 . S
C3816 C3818 1.395 . S
C3816 C3819 1.403 1_545 S
H3817 C3823 0.930 . S
C3818 H3804 0.930 . S
C3818 C3816 1.395 . S
C3818 C3821 1.403 . S
C3819 C3816 1.403 1_565 S
C3819 C3820 1.524 . S
C3819 C3823 1.400 . S
C3820 H3805 0.960 . S
C3820 H3806 0.960 . S
C3820 H3807 0.960 . S
C3820 C3819 1.524 . S
C3821 C3818 1.403 . S
C3821 C3822 1.392 1_545 S
C3821 C3825 1.495 . S
C3822 C3821 1.392 1_565 S
C3822 C3823 1.385 . S
C3822 C3824 1.478 . S
C3823 H3817 0.930 . S
C3823 C3819 1.400 . S
C3823 C3822 1.385 . S
C3824 C3822 1.478 . S
C3824 C3826 1.381 . S
C3824 C3830 1.383 . S
C3825 C3821 1.495 . S
C3825 H3831 0.959 . S
C3825 H3832 0.961 . S
C3825 H3833 0.960 . S
C3826 C3824 1.381 . S
C3826 C3827 1.394 . S
C3826 H3834 0.930 . S
C3827 C3826 1.394 . S
C3827 C3828 1.383 . S
C3827 H3835 0.929 . S
C3828 C3827 1.383 . S
C3828 C3829 1.377 . S
C3829 H3813 0.930 . S
C3829 C3828 1.377 . S
C3829 C3830 1.379 . S
C3830 H3814 0.931 . S
C3830 C3824 1.383 . S
C3830 C3829 1.379 . S
H3831 C3825 0.959 . S
H3832 C3825 0.961 . S
H3833 C3825 0.960 . S
H3834 C3826 0.930 . S
H3835 C3827 0.929 . S
H3836 C3844 0.929 . S
H3837 C3846 0.930 . S
H3838 C3848 0.930 . S
H3839 C3851 0.929 . S
H3840 C3854 0.930 . S
H3841 C3856 0.960 . S
H3842 C3856 0.960 . S
H3843 C3856 0.960 . S
C3844 H3836 0.929 . S
C3844 C3845 1.377 . S
C3844 C3846 1.384 . S
C3845 C3844 1.377 . S
C3845 C3851 1.390 . S
C3846 H3837 0.930 . S
C3846 C3844 1.384 . S
C3846 C3847 1.372 . S
C3847 C3846 1.372 . S
C3847 C3848 1.400 . S
C3847 C3852 1.490 . S
C3848 H3838 0.930 . S
C3848 C3847 1.400 . S
C3848 C3851 1.386 . S
H3849 C3865 0.930 . S
H3850 C3866 0.931 . S
C3851 H3839 0.929 . S
C3851 C3845 1.390 . S
C3851 C3848 1.386 . S
C3852 C3847 1.490 . S
C3852 C3854 1.395 1_556 S
C3852 C3855 1.403 . S
H3853 C3859 0.930 . S
C3854 H3840 0.930 . S
C3854 C3852 1.395 1_554 S
C3854 C3857 1.403 . S
C3855 C3852 1.403 . S
C3855 C3856 1.524 . S
C3855 C3859 1.400 . S
C3856 H3841 0.960 . S
C3856 H3842 0.960 . S
C3856 H3843 0.960 . S
C3856 C3855 1.524 . S
C3857 C3854 1.403 . S
C3857 C3858 1.392 . S
C3857 C3861 1.495 . S
C3858 C3857 1.392 . S
C3858 C3859 1.385 1_554 S
C3858 C3860 1.478 . S
C3859 H3853 0.930 . S
C3859 C3855 1.400 . S
C3859 C3858 1.385 1_556 S
C3860 C3858 1.478 . S
C3860 C3862 1.381 . S
C3860 C3866 1.383 . S
C3861 C3857 1.495 . S
C3861 H3867 0.959 . S
C3861 H3868 0.961 . S
C3861 H3869 0.960 . S
C3862 C3860 1.381 . S
C3862 C3863 1.394 . S
C3862 H3870 0.930 . S
C3863 C3862 1.394 . S
C3863 C3864 1.383 . S
C3863 H3871 0.929 . S
C3864 C3863 1.383 . S
C3864 C3865 1.377 . S
C3865 H3849 0.930 . S
C3865 C3864 1.377 . S
C3865 C3866 1.379 . S
C3866 H3850 0.931 . S
C3866 C3860 1.383 . S
C3866 C3865 1.379 . S
H3867 C3861 0.959 . S
H3868 C3861 0.961 . S
H3869 C3861 0.960 . S
H3870 C3862 0.930 . S
H3871 C3863 0.929 . S
H3872 C3880 0.929 . S
H3873 C3882 0.930 . S
H3874 C3884 0.930 . S
H3875 C3887 0.929 . S
H3876 C3890 0.930 . S
H3877 C3892 0.960 . S
H3878 C3892 0.960 . S
H3879 C3892 0.960 . S
C3880 H3872 0.929 . S
C3880 C3881 1.377 . S
C3880 C3882 1.384 . S
C3881 C3880 1.377 . S
C3881 C3887 1.390 . S
C3882 H3873 0.930 . S
C3882 C3880 1.384 . S
C3882 C3883 1.372 . S
C3883 C3882 1.372 . S
C3883 C3884 1.400 . S
C3883 C3888 1.490 . S
C3884 H3874 0.930 . S
C3884 C3883 1.400 . S
C3884 C3887 1.386 . S
H3885 C3901 0.930 . S
H3886 C3902 0.931 . S
C3887 H3875 0.929 . S
C3887 C3881 1.390 . S
C3887 C3884 1.386 . S
C3888 C3883 1.490 . S
C3888 C3890 1.395 . S
C3888 C3891 1.403 . S
H3889 C3895 0.930 . S
C3890 H3876 0.930 . S
C3890 C3888 1.395 . S
C3890 C3893 1.403 . S
C3891 C3888 1.403 . S
C3891 C3892 1.524 . S
C3891 C3895 1.400 . S
C3892 H3877 0.960 . S
C3892 H3878 0.960 . S
C3892 H3879 0.960 . S
C3892 C3891 1.524 . S
C3893 C3890 1.403 . S
C3893 C3894 1.392 . S
C3893 C3897 1.495 . S
C3894 C3893 1.392 . S
C3894 C3895 1.385 . S
C3894 C3896 1.478 . S
C3895 H3889 0.930 . S
C3895 C3891 1.400 . S
C3895 C3894 1.385 . S
C3896 C3894 1.478 . S
C3896 C3898 1.381 . S
C3896 C3902 1.383 . S
C3897 C3893 1.495 . S
C3897 H3903 0.959 . S
C3897 H3904 0.961 . S
C3897 H3905 0.960 . S
C3898 C3896 1.381 . S
C3898 C3899 1.394 . S
C3898 H3906 0.930 . S
C3899 C3898 1.394 . S
C3899 C3900 1.383 . S
C3899 H3907 0.929 . S
C3900 C3899 1.383 . S
C3900 C3901 1.377 . S
C3901 H3885 0.930 . S
C3901 C3900 1.377 . S
C3901 C3902 1.379 . S
C3902 H3886 0.931 . S
C3902 C3896 1.383 . S
C3902 C3901 1.379 . S
H3903 C3897 0.959 . S
H3904 C3897 0.961 . S
H3905 C3897 0.960 . S
H3906 C3898 0.930 . S
H3907 C3899 0.929 . S
H3908 C3916 0.929 . S
H3909 C3918 0.930 . S
H3910 C3920 0.930 . S
H3911 C3923 0.929 . S
H3912 C3926 0.930 . S
H3913 C3928 0.960 . S
H3914 C3928 0.960 . S
H3915 C3928 0.960 . S
C3916 H3908 0.929 . S
C3916 C3917 1.377 . S
C3916 C3918 1.384 . S
C3917 C3916 1.377 . S
C3917 C3923 1.390 . S
C3918 H3909 0.930 . S
C3918 C3916 1.384 . S
C3918 C3919 1.372 . S
C3919 C3918 1.372 . S
C3919 C3920 1.400 . S
C3919 C3924 1.490 . S
C3920 H3910 0.930 . S
C3920 C3919 1.400 . S
C3920 C3923 1.386 . S
H3921 C3937 0.930 . S
H3922 C3938 0.931 . S
C3923 H3911 0.929 . S
C3923 C3917 1.390 . S
C3923 C3920 1.386 . S
C3924 C3919 1.490 . S
C3924 C3926 1.395 . S
C3924 C3927 1.403 1_556 S
H3925 C3931 0.930 . S
C3926 H3912 0.930 . S
C3926 C3924 1.395 . S
C3926 C3929 1.403 . S
C3927 C3924 1.403 1_554 S
C3927 C3928 1.524 . S
C3927 C3931 1.400 . S
C3928 H3913 0.960 . S
C3928 H3914 0.960 . S
C3928 H3915 0.960 . S
C3928 C3927 1.524 . S
C3929 C3926 1.403 . S
C3929 C3930 1.392 1_556 S
C3929 C3933 1.495 . S
C3930 C3929 1.392 1_554 S
C3930 C3931 1.385 . S
C3930 C3932 1.478 . S
C3931 H3925 0.930 . S
C3931 C3927 1.400 . S
C3931 C3930 1.385 . S
C3932 C3930 1.478 . S
C3932 C3934 1.381 . S
C3932 C3938 1.383 . S
C3933 C3929 1.495 . S
C3933 H3939 0.959 . S
C3933 H3940 0.961 . S
C3933 H3941 0.960 . S
C3934 C3932 1.381 . S
C3934 C3935 1.394 . S
C3934 H3942 0.930 . S
C3935 C3934 1.394 . S
C3935 C3936 1.383 . S
C3935 H3943 0.929 . S
C3936 C3935 1.383 . S
C3936 C3937 1.377 . S
C3937 H3921 0.930 . S
C3937 C3936 1.377 . S
C3937 C3938 1.379 . S
C3938 H3922 0.931 . S
C3938 C3932 1.383 . S
C3938 C3937 1.379 . S
H3939 C3933 0.959 . S
H3940 C3933 0.961 . S
H3941 C3933 0.960 . S
H3942 C3934 0.930 . S
H3943 C3935 0.929 . S
H3944 C3952 0.929 . S
H3945 C3954 0.930 . S
H3946 C3956 0.930 . S
H3947 C3959 0.929 . S
H3948 C3962 0.930 . S
H3949 C3964 0.960 . S
H3950 C3964 0.960 . S
H3951 C3964 0.960 . S
C3952 H3944 0.929 . S
C3952 C3953 1.377 . S
C3952 C3954 1.384 . S
C3953 C3952 1.377 . S
C3953 C3959 1.390 . S
C3954 H3945 0.930 . S
C3954 C3952 1.384 . S
C3954 C3955 1.372 . S
C3955 C3954 1.372 . S
C3955 C3956 1.400 . S
C3955 C3960 1.490 . S
C3956 H3946 0.930 . S
C3956 C3955 1.400 . S
C3956 C3959 1.386 . S
H3957 C3973 0.930 . S
H3958 C3974 0.931 . S
C3959 H3947 0.929 . S
C3959 C3953 1.390 . S
C3959 C3956 1.386 . S
C3960 C3955 1.490 . S
C3960 C3962 1.395 . S
C3960 C3963 1.403 . S
H3961 C3967 0.930 . S
C3962 H3948 0.930 . S
C3962 C3960 1.395 . S
C3962 C3965 1.403 . S
C3963 C3960 1.403 . S
C3963 C3964 1.524 . S
C3963 C3967 1.400 . S
C3964 H3949 0.960 . S
C3964 H3950 0.960 . S
C3964 H3951 0.960 . S
C3964 C3963 1.524 . S
C3965 C3962 1.403 . S
C3965 C3966 1.392 . S
C3965 C3969 1.495 . S
C3966 C3965 1.392 . S
C3966 C3967 1.385 . S
C3966 C3968 1.478 . S
C3967 H3961 0.930 . S
C3967 C3963 1.400 . S
C3967 C3966 1.385 . S
C3968 C3966 1.478 . S
C3968 C3970 1.381 . S
C3968 C3974 1.383 . S
C3969 C3965 1.495 . S
C3969 H3975 0.959 . S
C3969 H3976 0.961 . S
C3969 H3977 0.960 . S
C3970 C3968 1.381 . S
C3970 C3971 1.394 . S
C3970 H3978 0.930 . S
C3971 C3970 1.394 . S
C3971 C3972 1.383 . S
C3971 H3979 0.929 . S
C3972 C3971 1.383 . S
C3972 C3973 1.377 . S
C3973 H3957 0.930 . S
C3973 C3972 1.377 . S
C3973 C3974 1.379 . S
C3974 H3958 0.931 . S
C3974 C3968 1.383 . S
C3974 C3973 1.379 . S
H3975 C3969 0.959 . S
H3976 C3969 0.961 . S
H3977 C3969 0.960 . S
H3978 C3970 0.930 . S
H3979 C3971 0.929 . S
H3980 C3988 0.929 . S
H3981 C3990 0.930 . S
H3982 C3992 0.930 . S
H3983 C3995 0.929 . S
H3984 C3998 0.930 . S
H3985 C4000 0.960 . S
H3986 C4000 0.960 . S
H3987 C4000 0.960 . S
C3988 H3980 0.929 . S
C3988 C3989 1.377 . S
C3988 C3990 1.384 . S
C3989 C3988 1.377 . S
C3989 C3995 1.390 . S
C3990 H3981 0.930 . S
C3990 C3988 1.384 . S
C3990 C3991 1.372 . S
C3991 C3990 1.372 . S
C3991 C3992 1.400 . S
C3991 C3996 1.490 . S
C3992 H3982 0.930 . S
C3992 C3991 1.400 . S
C3992 C3995 1.386 . S
H3993 C4009 0.930 . S
H3994 C4010 0.931 . S
C3995 H3983 0.929 . S
C3995 C3989 1.390 . S
C3995 C3992 1.386 . S
C3996 C3991 1.490 . S
C3996 C3998 1.395 . S
C3996 C3999 1.403 . S
H3997 C4003 0.930 . S
C3998 H3984 0.930 . S
C3998 C3996 1.395 . S
C3998 C4001 1.403 . S
C3999 C3996 1.403 . S
C3999 C4000 1.524 . S
C3999 C4003 1.400 . S
C4000 H3985 0.960 . S
C4000 H3986 0.960 . S
C4000 H3987 0.960 . S
C4000 C3999 1.524 . S
C4001 C3998 1.403 . S
C4001 C4002 1.392 . S
C4001 C4005 1.495 . S
C4002 C4001 1.392 . S
C4002 C4003 1.385 . S
C4002 C4004 1.478 . S
C4003 H3997 0.930 . S
C4003 C3999 1.400 . S
C4003 C4002 1.385 . S
C4004 C4002 1.478 . S
C4004 C4006 1.381 . S
C4004 C4010 1.383 . S
C4005 C4001 1.495 . S
C4005 H4011 0.959 . S
C4005 H4012 0.961 . S
C4005 H4013 0.960 . S
C4006 C4004 1.381 . S
C4006 C4007 1.394 . S
C4006 H4014 0.930 . S
C4007 C4006 1.394 . S
C4007 C4008 1.383 . S
C4007 H4015 0.929 . S
C4008 C4007 1.383 . S
C4008 C4009 1.377 . S
C4009 H3993 0.930 . S
C4009 C4008 1.377 . S
C4009 C4010 1.379 . S
C4010 H3994 0.931 . S
C4010 C4004 1.383 . S
C4010 C4009 1.379 . S
H4011 C4005 0.959 . S
H4012 C4005 0.961 . S
H4013 C4005 0.960 . S
H4014 C4006 0.930 . S
H4015 C4007 0.929 . S
H4016 C4024 0.929 . S
H4017 C4026 0.930 . S
H4018 C4028 0.930 . S
H4019 C4031 0.929 . S
H4020 C4034 0.930 . S
H4021 C4036 0.960 . S
H4022 C4036 0.960 . S
H4023 C4036 0.960 . S
C4024 H4016 0.929 . S
C4024 C4025 1.377 . S
C4024 C4026 1.384 . S
C4025 C4024 1.377 . S
C4025 C4031 1.390 . S
C4026 H4017 0.930 . S
C4026 C4024 1.384 . S
C4026 C4027 1.372 . S
C4027 C4026 1.372 . S
C4027 C4028 1.400 . S
C4027 C4032 1.490 . S
C4028 H4018 0.930 . S
C4028 C4027 1.400 . S
C4028 C4031 1.386 . S
H4029 C4045 0.930 . S
H4030 C4046 0.931 . S
C4031 H4019 0.929 . S
C4031 C4025 1.390 . S
C4031 C4028 1.386 . S
C4032 C4027 1.490 . S
C4032 C4034 1.395 . S
C4032 C4035 1.403 . S
H4033 C4039 0.930 . S
C4034 H4020 0.930 . S
C4034 C4032 1.395 . S
C4034 C4037 1.403 . S
C4035 C4032 1.403 . S
C4035 C4036 1.524 . S
C4035 C4039 1.400 . S
C4036 H4021 0.960 . S
C4036 H4022 0.960 . S
C4036 H4023 0.960 . S
C4036 C4035 1.524 . S
C4037 C4034 1.403 . S
C4037 C4038 1.392 . S
C4037 C4041 1.495 . S
C4038 C4037 1.392 . S
C4038 C4039 1.385 . S
C4038 C4040 1.478 . S
C4039 H4033 0.930 . S
C4039 C4035 1.400 . S
C4039 C4038 1.385 . S
C4040 C4038 1.478 . S
C4040 C4042 1.381 . S
C4040 C4046 1.383 . S
C4041 C4037 1.495 . S
C4041 H4047 0.959 . S
C4041 H4048 0.961 . S
C4041 H4049 0.960 . S
C4042 C4040 1.381 . S
C4042 C4043 1.394 . S
C4042 H4050 0.930 . S
C4043 C4042 1.394 . S
C4043 C4044 1.383 . S
C4043 H4051 0.929 . S
C4044 C4043 1.383 . S
C4044 C4045 1.377 . S
C4045 H4029 0.930 . S
C4045 C4044 1.377 . S
C4045 C4046 1.379 . S
C4046 H4030 0.931 . S
C4046 C4040 1.383 . S
C4046 C4045 1.379 . S
H4047 C4041 0.959 . S
H4048 C4041 0.961 . S
H4049 C4041 0.960 . S
H4050 C4042 0.930 . S
H4051 C4043 0.929 . S
H4052 C4060 0.929 . S
H4053 C4062 0.930 . S
H4054 C4064 0.930 . S
H4055 C4067 0.929 . S
H4056 C4070 0.930 . S
H4057 C4072 0.960 . S
H4058 C4072 0.960 . S
H4059 C4072 0.960 . S
C4060 H4052 0.929 . S
C4060 C4061 1.377 . S
C4060 C4062 1.384 . S
C4061 C4060 1.377 . S
C4061 C4067 1.390 . S
C4062 H4053 0.930 . S
C4062 C4060 1.384 . S
C4062 C4063 1.372 . S
C4063 C4062 1.372 . S
C4063 C4064 1.400 . S
C4063 C4068 1.490 . S
C4064 H4054 0.930 . S
C4064 C4063 1.400 . S
C4064 C4067 1.386 . S
H4065 C4081 0.930 . S
H4066 C4082 0.931 . S
C4067 H4055 0.929 . S
C4067 C4061 1.390 . S
C4067 C4064 1.386 . S
C4068 C4063 1.490 . S
C4068 C4070 1.395 . S
C4068 C4071 1.403 1_556 S
H4069 C4075 0.930 . S
C4070 H4056 0.930 . S
C4070 C4068 1.395 . S
C4070 C4073 1.403 . S
C4071 C4068 1.403 1_554 S
C4071 C4072 1.524 . S
C4071 C4075 1.400 . S
C4072 H4057 0.960 . S
C4072 H4058 0.960 . S
C4072 H4059 0.960 . S
C4072 C4071 1.524 . S
C4073 C4070 1.403 . S
C4073 C4074 1.392 1_556 S
C4073 C4077 1.495 . S
C4074 C4073 1.392 1_554 S
C4074 C4075 1.385 . S
C4074 C4076 1.478 . S
C4075 H4069 0.930 . S
C4075 C4071 1.400 . S
C4075 C4074 1.385 . S
C4076 C4074 1.478 . S
C4076 C4078 1.381 . S
C4076 C4082 1.383 . S
C4077 C4073 1.495 . S
C4077 H4083 0.959 . S
C4077 H4084 0.961 . S
C4077 H4085 0.960 . S
C4078 C4076 1.381 . S
C4078 C4079 1.394 . S
C4078 H4086 0.930 . S
C4079 C4078 1.394 . S
C4079 C4080 1.383 . S
C4079 H4087 0.929 . S
C4080 C4079 1.383 . S
C4080 C4081 1.377 . S
C4081 H4065 0.930 . S
C4081 C4080 1.377 . S
C4081 C4082 1.379 . S
C4082 H4066 0.931 . S
C4082 C4076 1.383 . S
C4082 C4081 1.379 . S
H4083 C4077 0.959 . S
H4084 C4077 0.961 . S
H4085 C4077 0.960 . S
H4086 C4078 0.930 . S
H4087 C4079 0.929 . S
H4088 C4096 0.929 . S
H4089 C4098 0.930 . S
H4090 C4100 0.930 . S
H4091 C4103 0.929 . S
H4092 C4106 0.930 . S
H4093 C4108 0.960 . S
H4094 C4108 0.960 . S
H4095 C4108 0.960 . S
C4096 H4088 0.929 . S
C4096 C4097 1.377 . S
C4096 C4098 1.384 . S
C4097 C4096 1.377 . S
C4097 C4103 1.390 . S
C4098 H4089 0.930 . S
C4098 C4096 1.384 . S
C4098 C4099 1.372 . S
C4099 C4098 1.372 . S
C4099 C4100 1.400 . S
C4099 C4104 1.490 . S
C4100 H4090 0.930 . S
C4100 C4099 1.400 . S
C4100 C4103 1.386 . S
H4101 C4117 0.930 . S
H4102 C4118 0.931 . S
C4103 H4091 0.929 . S
C4103 C4097 1.390 . S
C4103 C4100 1.386 . S
C4104 C4099 1.490 . S
C4104 C4106 1.395 . S
C4104 C4107 1.403 . S
H4105 C4111 0.930 . S
C4106 H4092 0.930 . S
C4106 C4104 1.395 . S
C4106 C4109 1.403 . S
C4107 C4104 1.403 . S
C4107 C4108 1.524 . S
C4107 C4111 1.400 . S
C4108 H4093 0.960 . S
C4108 H4094 0.960 . S
C4108 H4095 0.960 . S
C4108 C4107 1.524 . S
C4109 C4106 1.403 . S
C4109 C4110 1.392 . S
C4109 C4113 1.495 . S
C4110 C4109 1.392 . S
C4110 C4111 1.385 . S
C4110 C4112 1.478 . S
C4111 H4105 0.930 . S
C4111 C4107 1.400 . S
C4111 C4110 1.385 . S
C4112 C4110 1.478 . S
C4112 C4114 1.381 . S
C4112 C4118 1.383 . S
C4113 C4109 1.495 . S
C4113 H4119 0.959 . S
C4113 H4120 0.961 . S
C4113 H4121 0.960 . S
C4114 C4112 1.381 . S
C4114 C4115 1.394 . S
C4114 H4122 0.930 . S
C4115 C4114 1.394 . S
C4115 C4116 1.383 . S
C4115 H4123 0.929 . S
C4116 C4115 1.383 . S
C4116 C4117 1.377 . S
C4117 H4101 0.930 . S
C4117 C4116 1.377 . S
C4117 C4118 1.379 . S
C4118 H4102 0.931 . S
C4118 C4112 1.383 . S
C4118 C4117 1.379 . S
H4119 C4113 0.959 . S
H4120 C4113 0.961 . S
H4121 C4113 0.960 . S
H4122 C4114 0.930 . S
H4123 C4115 0.929 . S
H4124 C4132 0.929 . S
H4125 C4134 0.930 . S
H4126 C4136 0.930 . S
H4127 C4139 0.929 . S
H4128 C4142 0.930 . S
H4129 C4144 0.960 . S
H4130 C4144 0.960 . S
H4131 C4144 0.960 . S
C4132 H4124 0.929 . S
C4132 C4133 1.377 . S
C4132 C4134 1.384 . S
C4133 C4132 1.377 . S
C4133 C4139 1.390 . S
C4134 H4125 0.930 . S
C4134 C4132 1.384 . S
C4134 C4135 1.372 . S
C4135 C4134 1.372 . S
C4135 C4136 1.400 . S
C4135 C4140 1.490 . S
C4136 H4126 0.930 . S
C4136 C4135 1.400 . S
C4136 C4139 1.386 . S
H4137 C4153 0.930 . S
H4138 C4154 0.931 . S
C4139 H4127 0.929 . S
C4139 C4133 1.390 . S
C4139 C4136 1.386 . S
C4140 C4135 1.490 . S
C4140 C4142 1.395 . S
C4140 C4143 1.403 . S
H4141 C4147 0.930 . S
C4142 H4128 0.930 . S
C4142 C4140 1.395 . S
C4142 C4145 1.403 . S
C4143 C4140 1.403 . S
C4143 C4144 1.524 . S
C4143 C4147 1.400 . S
C4144 H4129 0.960 . S
C4144 H4130 0.960 . S
C4144 H4131 0.960 . S
C4144 C4143 1.524 . S
C4145 C4142 1.403 . S
C4145 C4146 1.392 . S
C4145 C4149 1.495 . S
C4146 C4145 1.392 . S
C4146 C4147 1.385 . S
C4146 C4148 1.478 . S
C4147 H4141 0.930 . S
C4147 C4143 1.400 . S
C4147 C4146 1.385 . S
C4148 C4146 1.478 . S
C4148 C4150 1.381 . S
C4148 C4154 1.383 . S
C4149 C4145 1.495 . S
C4149 H4155 0.959 . S
C4149 H4156 0.961 . S
C4149 H4157 0.960 . S
C4150 C4148 1.381 . S
C4150 C4151 1.394 . S
C4150 H4158 0.930 . S
C4151 C4150 1.394 . S
C4151 C4152 1.383 . S
C4151 H4159 0.929 . S
C4152 C4151 1.383 . S
C4152 C4153 1.377 . S
C4153 H4137 0.930 . S
C4153 C4152 1.377 . S
C4153 C4154 1.379 . S
C4154 H4138 0.931 . S
C4154 C4148 1.383 . S
C4154 C4153 1.379 . S
H4155 C4149 0.959 . S
H4156 C4149 0.961 . S
H4157 C4149 0.960 . S
H4158 C4150 0.930 . S
H4159 C4151 0.929 . S
H4160 C4168 0.929 . S
H4161 C4170 0.930 . S
H4162 C4172 0.930 . S
H4163 C4175 0.929 . S
H4164 C4178 0.930 . S
H4165 C4180 0.960 . S
H4166 C4180 0.960 . S
H4167 C4180 0.960 . S
C4168 H4160 0.929 . S
C4168 C4169 1.377 . S
C4168 C4170 1.384 . S
C4169 C4168 1.377 . S
C4169 C4175 1.390 . S
C4170 H4161 0.930 . S
C4170 C4168 1.384 . S
C4170 C4171 1.372 . S
C4171 C4170 1.372 . S
C4171 C4172 1.400 . S
C4171 C4176 1.490 . S
C4172 H4162 0.930 . S
C4172 C4171 1.400 . S
C4172 C4175 1.386 . S
H4173 C4189 0.930 . S
H4174 C4190 0.931 . S
C4175 H4163 0.929 . S
C4175 C4169 1.390 . S
C4175 C4172 1.386 . S
C4176 C4171 1.490 . S
C4176 C4178 1.395 . S
C4176 C4179 1.403 . S
H4177 C4183 0.930 . S
C4178 H4164 0.930 . S
C4178 C4176 1.395 . S
C4178 C4181 1.403 . S
C4179 C4176 1.403 . S
C4179 C4180 1.524 . S
C4179 C4183 1.400 . S
C4180 H4165 0.960 . S
C4180 H4166 0.960 . S
C4180 H4167 0.960 . S
C4180 C4179 1.524 . S
C4181 C4178 1.403 . S
C4181 C4182 1.392 . S
C4181 C4185 1.495 . S
C4182 C4181 1.392 . S
C4182 C4183 1.385 . S
C4182 C4184 1.478 . S
C4183 H4177 0.930 . S
C4183 C4179 1.400 . S
C4183 C4182 1.385 . S
C4184 C4182 1.478 . S
C4184 C4186 1.381 . S
C4184 C4190 1.383 . S
C4185 C4181 1.495 . S
C4185 H4191 0.959 . S
C4185 H4192 0.961 . S
C4185 H4193 0.960 . S
C4186 C4184 1.381 . S
C4186 C4187 1.394 . S
C4186 H4194 0.930 . S
C4187 C4186 1.394 . S
C4187 C4188 1.383 . S
C4187 H4195 0.929 . S
C4188 C4187 1.383 . S
C4188 C4189 1.377 . S
C4189 H4173 0.930 . S
C4189 C4188 1.377 . S
C4189 C4190 1.379 . S
C4190 H4174 0.931 . S
C4190 C4184 1.383 . S
C4190 C4189 1.379 . S
H4191 C4185 0.959 . S
H4192 C4185 0.961 . S
H4193 C4185 0.960 . S
H4194 C4186 0.930 . S
H4195 C4187 0.929 . S
H4196 C4204 0.929 . S
H4197 C4206 0.930 . S
H4198 C4208 0.930 . S
H4199 C4211 0.929 . S
H4200 C4214 0.930 . S
H4201 C4216 0.960 . S
H4202 C4216 0.960 . S
H4203 C4216 0.960 . S
C4204 H4196 0.929 . S
C4204 C4205 1.377 . S
C4204 C4206 1.384 . S
C4205 C4204 1.377 . S
C4205 C4211 1.390 . S
C4206 H4197 0.930 . S
C4206 C4204 1.384 . S
C4206 C4207 1.372 . S
C4207 C4206 1.372 . S
C4207 C4208 1.400 . S
C4207 C4212 1.490 . S
C4208 H4198 0.930 . S
C4208 C4207 1.400 . S
C4208 C4211 1.386 . S
H4209 C4225 0.930 . S
H4210 C4226 0.931 . S
C4211 H4199 0.929 . S
C4211 C4205 1.390 . S
C4211 C4208 1.386 . S
C4212 C4207 1.490 . S
C4212 C4214 1.395 . S
C4212 C4215 1.403 . S
H4213 C4219 0.930 . S
C4214 H4200 0.930 . S
C4214 C4212 1.395 . S
C4214 C4217 1.403 . S
C4215 C4212 1.403 . S
C4215 C4216 1.524 . S
C4215 C4219 1.400 . S
C4216 H4201 0.960 . S
C4216 H4202 0.960 . S
C4216 H4203 0.960 . S
C4216 C4215 1.524 . S
C4217 C4214 1.403 . S
C4217 C4218 1.392 . S
C4217 C4221 1.495 . S
C4218 C4217 1.392 . S
C4218 C4219 1.385 . S
C4218 C4220 1.478 . S
C4219 H4213 0.930 . S
C4219 C4215 1.400 . S
C4219 C4218 1.385 . S
C4220 C4218 1.478 . S
C4220 C4222 1.381 . S
C4220 C4226 1.383 . S
C4221 C4217 1.495 . S
C4221 H4227 0.959 . S
C4221 H4228 0.961 . S
C4221 H4229 0.960 . S
C4222 C4220 1.381 . S
C4222 C4223 1.394 . S
C4222 H4230 0.930 . S
C4223 C4222 1.394 . S
C4223 C4224 1.383 . S
C4223 H4231 0.929 . S
C4224 C4223 1.383 . S
C4224 C4225 1.377 . S
C4225 H4209 0.930 . S
C4225 C4224 1.377 . S
C4225 C4226 1.379 . S
C4226 H4210 0.931 . S
C4226 C4220 1.383 . S
C4226 C4225 1.379 . S
H4227 C4221 0.959 . S
H4228 C4221 0.961 . S
H4229 C4221 0.960 . S
H4230 C4222 0.930 . S
H4231 C4223 0.929 . S
H4232 C4240 0.929 . S
H4233 C4242 0.930 . S
H4234 C4244 0.930 . S
H4235 C4247 0.929 . S
H4236 C4250 0.930 . S
H4237 C4252 0.960 . S
H4238 C4252 0.960 . S
H4239 C4252 0.960 . S
C4240 H4232 0.929 . S
C4240 C4241 1.377 . S
C4240 C4242 1.384 . S
C4241 C4240 1.377 . S
C4241 C4247 1.390 . S
C4242 H4233 0.930 . S
C4242 C4240 1.384 . S
C4242 C4243 1.372 . S
C4243 C4242 1.372 . S
C4243 C4244 1.400 . S
C4243 C4248 1.490 . S
C4244 H4234 0.930 . S
C4244 C4243 1.400 . S
C4244 C4247 1.386 . S
H4245 C4261 0.930 . S
H4246 C4262 0.931 . S
C4247 H4235 0.929 . S
C4247 C4241 1.390 . S
C4247 C4244 1.386 . S
C4248 C4243 1.490 . S
C4248 C4250 1.395 . S
C4248 C4251 1.403 . S
H4249 C4255 0.930 . S
C4250 H4236 0.930 . S
C4250 C4248 1.395 . S
C4250 C4253 1.403 . S
C4251 C4248 1.403 . S
C4251 C4252 1.524 . S
C4251 C4255 1.400 . S
C4252 H4237 0.960 . S
C4252 H4238 0.960 . S
C4252 H4239 0.960 . S
C4252 C4251 1.524 . S
C4253 C4250 1.403 . S
C4253 C4254 1.392 . S
C4253 C4257 1.495 . S
C4254 C4253 1.392 . S
C4254 C4255 1.385 . S
C4254 C4256 1.478 . S
C4255 H4249 0.930 . S
C4255 C4251 1.400 . S
C4255 C4254 1.385 . S
C4256 C4254 1.478 . S
C4256 C4258 1.381 . S
C4256 C4262 1.383 . S
C4257 C4253 1.495 . S
C4257 H4263 0.959 . S
C4257 H4264 0.961 . S
C4257 H4265 0.960 . S
C4258 C4256 1.381 . S
C4258 C4259 1.394 . S
C4258 H4266 0.930 . S
C4259 C4258 1.394 . S
C4259 C4260 1.383 . S
C4259 H4267 0.929 . S
C4260 C4259 1.383 . S
C4260 C4261 1.377 . S
C4261 H4245 0.930 . S
C4261 C4260 1.377 . S
C4261 C4262 1.379 . S
C4262 H4246 0.931 . S
C4262 C4256 1.383 . S
C4262 C4261 1.379 . S
H4263 C4257 0.959 . S
H4264 C4257 0.961 . S
H4265 C4257 0.960 . S
H4266 C4258 0.930 . S
H4267 C4259 0.929 . S
H4268 C4276 0.929 . S
H4269 C4278 0.930 . S
H4270 C4280 0.930 . S
H4271 C4283 0.929 . S
H4272 C4286 0.930 . S
H4273 C4288 0.960 . S
H4274 C4288 0.960 . S
H4275 C4288 0.960 . S
C4276 H4268 0.929 . S
C4276 C4277 1.377 . S
C4276 C4278 1.384 . S
C4277 C4276 1.377 . S
C4277 C4283 1.390 . S
C4278 H4269 0.930 . S
C4278 C4276 1.384 . S
C4278 C4279 1.372 . S
C4279 C4278 1.372 . S
C4279 C4280 1.400 . S
C4279 C4284 1.490 . S
C4280 H4270 0.930 . S
C4280 C4279 1.400 . S
C4280 C4283 1.386 . S
H4281 C4297 0.930 . S
H4282 C4298 0.931 . S
C4283 H4271 0.929 . S
C4283 C4277 1.390 . S
C4283 C4280 1.386 . S
C4284 C4279 1.490 . S
C4284 C4286 1.395 . S
C4284 C4287 1.403 . S
H4285 C4291 0.930 . S
C4286 H4272 0.930 . S
C4286 C4284 1.395 . S
C4286 C4289 1.403 . S
C4287 C4284 1.403 . S
C4287 C4288 1.524 . S
C4287 C4291 1.400 . S
C4288 H4273 0.960 . S
C4288 H4274 0.960 . S
C4288 H4275 0.960 . S
C4288 C4287 1.524 . S
C4289 C4286 1.403 . S
C4289 C4290 1.392 . S
C4289 C4293 1.495 . S
C4290 C4289 1.392 . S
C4290 C4291 1.385 . S
C4290 C4292 1.478 . S
C4291 H4285 0.930 . S
C4291 C4287 1.400 . S
C4291 C4290 1.385 . S
C4292 C4290 1.478 . S
C4292 C4294 1.381 . S
C4292 C4298 1.383 . S
C4293 C4289 1.495 . S
C4293 H4299 0.959 . S
C4293 H4300 0.961 . S
C4293 H4301 0.960 . S
C4294 C4292 1.381 . S
C4294 C4295 1.394 . S
C4294 H4302 0.930 . S
C4295 C4294 1.394 . S
C4295 C4296 1.383 . S
C4295 H4303 0.929 . S
C4296 C4295 1.383 . S
C4296 C4297 1.377 . S
C4297 H4281 0.930 . S
C4297 C4296 1.377 . S
C4297 C4298 1.379 . S
C4298 H4282 0.931 . S
C4298 C4292 1.383 . S
C4298 C4297 1.379 . S
H4299 C4293 0.959 . S
H4300 C4293 0.961 . S
H4301 C4293 0.960 . S
H4302 C4294 0.930 . S
H4303 C4295 0.929 . S
H4304 C4312 0.929 . S
H4305 C4314 0.930 . S
H4306 C4316 0.930 . S
H4307 C4319 0.929 . S
H4308 C4322 0.930 . S
H4309 C4324 0.960 . S
H4310 C4324 0.960 . S
H4311 C4324 0.960 . S
C4312 H4304 0.929 . S
C4312 C4313 1.377 . S
C4312 C4314 1.384 . S
C4313 C4312 1.377 . S
C4313 C4319 1.390 . S
C4314 H4305 0.930 . S
C4314 C4312 1.384 . S
C4314 C4315 1.372 . S
C4315 C4314 1.372 . S
C4315 C4316 1.400 . S
C4315 C4320 1.490 . S
C4316 H4306 0.930 . S
C4316 C4315 1.400 . S
C4316 C4319 1.386 . S
H4317 C4333 0.930 . S
H4318 C4334 0.931 . S
C4319 H4307 0.929 . S
C4319 C4313 1.390 . S
C4319 C4316 1.386 . S
C4320 C4315 1.490 . S
C4320 C4322 1.395 . S
C4320 C4323 1.403 . S
H4321 C4327 0.930 . S
C4322 H4308 0.930 . S
C4322 C4320 1.395 . S
C4322 C4325 1.403 . S
C4323 C4320 1.403 . S
C4323 C4324 1.524 . S
C4323 C4327 1.400 . S
C4324 H4309 0.960 . S
C4324 H4310 0.960 . S
C4324 H4311 0.960 . S
C4324 C4323 1.524 . S
C4325 C4322 1.403 . S
C4325 C4326 1.392 . S
C4325 C4329 1.495 . S
C4326 C4325 1.392 . S
C4326 C4327 1.385 . S
C4326 C4328 1.478 . S
C4327 H4321 0.930 . S
C4327 C4323 1.400 . S
C4327 C4326 1.385 . S
C4328 C4326 1.478 . S
C4328 C4330 1.381 . S
C4328 C4334 1.383 . S
C4329 C4325 1.495 . S
C4329 H4335 0.959 . S
C4329 H4336 0.961 . S
C4329 H4337 0.960 . S
C4330 C4328 1.381 . S
C4330 C4331 1.394 . S
C4330 H4338 0.930 . S
C4331 C4330 1.394 . S
C4331 C4332 1.383 . S
C4331 H4339 0.929 . S
C4332 C4331 1.383 . S
C4332 C4333 1.377 . S
C4333 H4317 0.930 . S
C4333 C4332 1.377 . S
C4333 C4334 1.379 . S
C4334 H4318 0.931 . S
C4334 C4328 1.383 . S
C4334 C4333 1.379 . S
H4335 C4329 0.959 . S
H4336 C4329 0.961 . S
H4337 C4329 0.960 . S
H4338 C4330 0.930 . S
H4339 C4331 0.929 . S
H4340 C4348 0.929 . S
H4341 C4350 0.930 . S
H4342 C4352 0.930 . S
H4343 C4355 0.929 . S
H4344 C4358 0.930 . S
H4345 C4360 0.960 . S
H4346 C4360 0.960 . S
H4347 C4360 0.960 . S
C4348 H4340 0.929 . S
C4348 C4349 1.377 . S
C4348 C4350 1.384 . S
C4349 C4348 1.377 . S
C4349 C4355 1.390 . S
C4350 H4341 0.930 . S
C4350 C4348 1.384 . S
C4350 C4351 1.372 . S
C4351 C4350 1.372 . S
C4351 C4352 1.400 . S
C4351 C4356 1.490 . S
C4352 H4342 0.930 . S
C4352 C4351 1.400 . S
C4352 C4355 1.386 . S
H4353 C4369 0.930 . S
H4354 C4370 0.931 . S
C4355 H4343 0.929 . S
C4355 C4349 1.390 . S
C4355 C4352 1.386 . S
C4356 C4351 1.490 . S
C4356 C4358 1.395 . S
C4356 C4359 1.403 . S
H4357 C4363 0.930 . S
C4358 H4344 0.930 . S
C4358 C4356 1.395 . S
C4358 C4361 1.403 . S
C4359 C4356 1.403 . S
C4359 C4360 1.524 . S
C4359 C4363 1.400 . S
C4360 H4345 0.960 . S
C4360 H4346 0.960 . S
C4360 H4347 0.960 . S
C4360 C4359 1.524 . S
C4361 C4358 1.403 . S
C4361 C4362 1.392 . S
C4361 C4365 1.495 . S
C4362 C4361 1.392 . S
C4362 C4363 1.385 . S
C4362 C4364 1.478 . S
C4363 H4357 0.930 . S
C4363 C4359 1.400 . S
C4363 C4362 1.385 . S
C4364 C4362 1.478 . S
C4364 C4366 1.381 . S
C4364 C4370 1.383 . S
C4365 C4361 1.495 . S
C4365 H4371 0.959 . S
C4365 H4372 0.961 . S
C4365 H4373 0.960 . S
C4366 C4364 1.381 . S
C4366 C4367 1.394 . S
C4366 H4374 0.930 . S
C4367 C4366 1.394 . S
C4367 C4368 1.383 . S
C4367 H4375 0.929 . S
C4368 C4367 1.383 . S
C4368 C4369 1.377 . S
C4369 H4353 0.930 . S
C4369 C4368 1.377 . S
C4369 C4370 1.379 . S
C4370 H4354 0.931 . S
C4370 C4364 1.383 . S
C4370 C4369 1.379 . S
H4371 C4365 0.959 . S
H4372 C4365 0.961 . S
H4373 C4365 0.960 . S
H4374 C4366 0.930 . S
H4375 C4367 0.929 . S
H4376 C4384 0.929 . S
H4377 C4386 0.930 . S
H4378 C4388 0.930 . S
H4379 C4391 0.929 . S
H4380 C4394 0.930 . S
H4381 C4396 0.960 . S
H4382 C4396 0.960 . S
H4383 C4396 0.960 . S
C4384 H4376 0.929 . S
C4384 C4385 1.377 . S
C4384 C4386 1.384 . S
C4385 C4384 1.377 . S
C4385 C4391 1.390 . S
C4386 H4377 0.930 . S
C4386 C4384 1.384 . S
C4386 C4387 1.372 . S
C4387 C4386 1.372 . S
C4387 C4388 1.400 . S
C4387 C4392 1.490 . S
C4388 H4378 0.930 . S
C4388 C4387 1.400 . S
C4388 C4391 1.386 . S
H4389 C4405 0.930 . S
H4390 C4406 0.931 . S
C4391 H4379 0.929 . S
C4391 C4385 1.390 . S
C4391 C4388 1.386 . S
C4392 C4387 1.490 . S
C4392 C4394 1.395 . S
C4392 C4395 1.403 . S
H4393 C4399 0.930 . S
C4394 H4380 0.930 . S
C4394 C4392 1.395 . S
C4394 C4397 1.403 . S
C4395 C4392 1.403 . S
C4395 C4396 1.524 . S
C4395 C4399 1.400 . S
C4396 H4381 0.960 . S
C4396 H4382 0.960 . S
C4396 H4383 0.960 . S
C4396 C4395 1.524 . S
C4397 C4394 1.403 . S
C4397 C4398 1.392 . S
C4397 C4401 1.495 . S
C4398 C4397 1.392 . S
C4398 C4399 1.385 . S
C4398 C4400 1.478 . S
C4399 H4393 0.930 . S
C4399 C4395 1.400 . S
C4399 C4398 1.385 . S
C4400 C4398 1.478 . S
C4400 C4402 1.381 . S
C4400 C4406 1.383 . S
C4401 C4397 1.495 . S
C4401 H4407 0.959 . S
C4401 H4408 0.961 . S
C4401 H4409 0.960 . S
C4402 C4400 1.381 . S
C4402 C4403 1.394 . S
C4402 H4410 0.930 . S
C4403 C4402 1.394 . S
C4403 C4404 1.383 . S
C4403 H4411 0.929 . S
C4404 C4403 1.383 . S
C4404 C4405 1.377 . S
C4405 H4389 0.930 . S
C4405 C4404 1.377 . S
C4405 C4406 1.379 . S
C4406 H4390 0.931 . S
C4406 C4400 1.383 . S
C4406 C4405 1.379 . S
H4407 C4401 0.959 . S
H4408 C4401 0.961 . S
H4409 C4401 0.960 . S
H4410 C4402 0.930 . S
H4411 C4403 0.929 . S
H4412 C4420 0.929 . S
H4413 C4422 0.930 . S
H4414 C4424 0.930 . S
H4415 C4427 0.929 . S
H4416 C4430 0.930 . S
H4417 C4432 0.960 . S
H4418 C4432 0.960 . S
H4419 C4432 0.960 . S
C4420 H4412 0.929 . S
C4420 C4421 1.377 . S
C4420 C4422 1.384 . S
C4421 C4420 1.377 . S
C4421 C4427 1.390 . S
C4422 H4413 0.930 . S
C4422 C4420 1.384 . S
C4422 C4423 1.372 . S
C4423 C4422 1.372 . S
C4423 C4424 1.400 . S
C4423 C4428 1.490 . S
C4424 H4414 0.930 . S
C4424 C4423 1.400 . S
C4424 C4427 1.386 . S
H4425 C4441 0.930 . S
H4426 C4442 0.931 . S
C4427 H4415 0.929 . S
C4427 C4421 1.390 . S
C4427 C4424 1.386 . S
C4428 C4423 1.490 . S
C4428 C4430 1.395 . S
C4428 C4431 1.403 . S
H4429 C4435 0.930 . S
C4430 H4416 0.930 . S
C4430 C4428 1.395 . S
C4430 C4433 1.403 . S
C4431 C4428 1.403 . S
C4431 C4432 1.524 . S
C4431 C4435 1.400 . S
C4432 H4417 0.960 . S
C4432 H4418 0.960 . S
C4432 H4419 0.960 . S
C4432 C4431 1.524 . S
C4433 C4430 1.403 . S
C4433 C4434 1.392 . S
C4433 C4437 1.495 . S
C4434 C4433 1.392 . S
C4434 C4435 1.385 . S
C4434 C4436 1.478 . S
C4435 H4429 0.930 . S
C4435 C4431 1.400 . S
C4435 C4434 1.385 . S
C4436 C4434 1.478 . S
C4436 C4438 1.381 . S
C4436 C4442 1.383 . S
C4437 C4433 1.495 . S
C4437 H4443 0.959 . S
C4437 H4444 0.961 . S
C4437 H4445 0.960 . S
C4438 C4436 1.381 . S
C4438 C4439 1.394 . S
C4438 H4446 0.930 . S
C4439 C4438 1.394 . S
C4439 C4440 1.383 . S
C4439 H4447 0.929 . S
C4440 C4439 1.383 . S
C4440 C4441 1.377 . S
C4441 H4425 0.930 . S
C4441 C4440 1.377 . S
C4441 C4442 1.379 . S
C4442 H4426 0.931 . S
C4442 C4436 1.383 . S
C4442 C4441 1.379 . S
H4443 C4437 0.959 . S
H4444 C4437 0.961 . S
H4445 C4437 0.960 . S
H4446 C4438 0.930 . S
H4447 C4439 0.929 . S
H4448 C4456 0.929 . S
H4449 C4458 0.930 . S
H4450 C4460 0.930 . S
H4451 C4463 0.929 . S
H4452 C4466 0.930 . S
H4453 C4468 0.960 . S
H4454 C4468 0.960 . S
H4455 C4468 0.960 . S
C4456 H4448 0.929 . S
C4456 C4457 1.377 . S
C4456 C4458 1.384 . S
C4457 C4456 1.377 . S
C4457 C4463 1.390 . S
C4458 H4449 0.930 . S
C4458 C4456 1.384 . S
C4458 C4459 1.372 . S
C4459 C4458 1.372 . S
C4459 C4460 1.400 . S
C4459 C4464 1.490 . S
C4460 H4450 0.930 . S
C4460 C4459 1.400 . S
C4460 C4463 1.386 . S
H4461 C4477 0.930 . S
H4462 C4478 0.931 . S
C4463 H4451 0.929 . S
C4463 C4457 1.390 . S
C4463 C4460 1.386 . S
C4464 C4459 1.490 . S
C4464 C4466 1.395 . S
C4464 C4467 1.403 . S
H4465 C4471 0.930 . S
C4466 H4452 0.930 . S
C4466 C4464 1.395 . S
C4466 C4469 1.403 . S
C4467 C4464 1.403 . S
C4467 C4468 1.524 . S
C4467 C4471 1.400 . S
C4468 H4453 0.960 . S
C4468 H4454 0.960 . S
C4468 H4455 0.960 . S
C4468 C4467 1.524 . S
C4469 C4466 1.403 . S
C4469 C4470 1.392 . S
C4469 C4473 1.495 . S
C4470 C4469 1.392 . S
C4470 C4471 1.385 . S
C4470 C4472 1.478 . S
C4471 H4465 0.930 . S
C4471 C4467 1.400 . S
C4471 C4470 1.385 . S
C4472 C4470 1.478 . S
C4472 C4474 1.381 . S
C4472 C4478 1.383 . S
C4473 C4469 1.495 . S
C4473 H4479 0.959 . S
C4473 H4480 0.961 . S
C4473 H4481 0.960 . S
C4474 C4472 1.381 . S
C4474 C4475 1.394 . S
C4474 H4482 0.930 . S
C4475 C4474 1.394 . S
C4475 C4476 1.383 . S
C4475 H4483 0.929 . S
C4476 C4475 1.383 . S
C4476 C4477 1.377 . S
C4477 H4461 0.930 . S
C4477 C4476 1.377 . S
C4477 C4478 1.379 . S
C4478 H4462 0.931 . S
C4478 C4472 1.383 . S
C4478 C4477 1.379 . S
H4479 C4473 0.959 . S
H4480 C4473 0.961 . S
H4481 C4473 0.960 . S
H4482 C4474 0.930 . S
H4483 C4475 0.929 . S
H4484 C4492 0.929 . S
H4485 C4494 0.930 . S
H4486 C4496 0.930 . S
H4487 C4499 0.929 . S
H4488 C4502 0.930 . S
H4489 C4504 0.960 . S
H4490 C4504 0.960 . S
H4491 C4504 0.960 . S
C4492 H4484 0.929 . S
C4492 C4493 1.377 . S
C4492 C4494 1.384 . S
C4493 C4492 1.377 . S
C4493 C4499 1.390 . S
C4494 H4485 0.930 . S
C4494 C4492 1.384 . S
C4494 C4495 1.372 . S
C4495 C4494 1.372 . S
C4495 C4496 1.400 . S
C4495 C4500 1.490 . S
C4496 H4486 0.930 . S
C4496 C4495 1.400 . S
C4496 C4499 1.386 . S
H4497 C4513 0.930 . S
H4498 C4514 0.931 . S
C4499 H4487 0.929 . S
C4499 C4493 1.390 . S
C4499 C4496 1.386 . S
C4500 C4495 1.490 . S
C4500 C4502 1.395 . S
C4500 C4503 1.403 . S
H4501 C4507 0.930 . S
C4502 H4488 0.930 . S
C4502 C4500 1.395 . S
C4502 C4505 1.403 . S
C4503 C4500 1.403 . S
C4503 C4504 1.524 . S
C4503 C4507 1.400 . S
C4504 H4489 0.960 . S
C4504 H4490 0.960 . S
C4504 H4491 0.960 . S
C4504 C4503 1.524 . S
C4505 C4502 1.403 . S
C4505 C4506 1.392 . S
C4505 C4509 1.495 . S
C4506 C4505 1.392 . S
C4506 C4507 1.385 . S
C4506 C4508 1.478 . S
C4507 H4501 0.930 . S
C4507 C4503 1.400 . S
C4507 C4506 1.385 . S
C4508 C4506 1.478 . S
C4508 C4510 1.381 . S
C4508 C4514 1.383 . S
C4509 C4505 1.495 . S
C4509 H4515 0.959 . S
C4509 H4516 0.961 . S
C4509 H4517 0.960 . S
C4510 C4508 1.381 . S
C4510 C4511 1.394 . S
C4510 H4518 0.930 . S
C4511 C4510 1.394 . S
C4511 C4512 1.383 . S
C4511 H4519 0.929 . S
C4512 C4511 1.383 . S
C4512 C4513 1.377 . S
C4513 H4497 0.930 . S
C4513 C4512 1.377 . S
C4513 C4514 1.379 . S
C4514 H4498 0.931 . S
C4514 C4508 1.383 . S
C4514 C4513 1.379 . S
H4515 C4509 0.959 . S
H4516 C4509 0.961 . S
H4517 C4509 0.960 . S
H4518 C4510 0.930 . S
H4519 C4511 0.929 . S
H4520 C4528 0.929 . S
H4521 C4530 0.930 . S
H4522 C4532 0.930 . S
H4523 C4535 0.929 . S
H4524 C4538 0.930 . S
H4525 C4540 0.960 . S
H4526 C4540 0.960 . S
H4527 C4540 0.960 . S
C4528 H4520 0.929 . S
C4528 C4529 1.377 . S
C4528 C4530 1.384 . S
C4529 C4528 1.377 . S
C4529 C4535 1.390 . S
C4530 H4521 0.930 . S
C4530 C4528 1.384 . S
C4530 C4531 1.372 . S
C4531 C4530 1.372 . S
C4531 C4532 1.400 . S
C4531 C4536 1.490 . S
C4532 H4522 0.930 . S
C4532 C4531 1.400 . S
C4532 C4535 1.386 . S
H4533 C4549 0.930 . S
H4534 C4550 0.931 . S
C4535 H4523 0.929 . S
C4535 C4529 1.390 . S
C4535 C4532 1.386 . S
C4536 C4531 1.490 . S
C4536 C4538 1.395 . S
C4536 C4539 1.403 . S
H4537 C4543 0.930 . S
C4538 H4524 0.930 . S
C4538 C4536 1.395 . S
C4538 C4541 1.403 . S
C4539 C4536 1.403 . S
C4539 C4540 1.524 . S
C4539 C4543 1.400 . S
C4540 H4525 0.960 . S
C4540 H4526 0.960 . S
C4540 H4527 0.960 . S
C4540 C4539 1.524 . S
C4541 C4538 1.403 . S
C4541 C4542 1.392 . S
C4541 C4545 1.495 . S
C4542 C4541 1.392 . S
C4542 C4543 1.385 . S
C4542 C4544 1.478 . S
C4543 H4537 0.930 . S
C4543 C4539 1.400 . S
C4543 C4542 1.385 . S
C4544 C4542 1.478 . S
C4544 C4546 1.381 . S
C4544 C4550 1.383 . S
C4545 C4541 1.495 . S
C4545 H4551 0.959 . S
C4545 H4552 0.961 . S
C4545 H4553 0.960 . S
C4546 C4544 1.381 . S
C4546 C4547 1.394 . S
C4546 H4554 0.930 . S
C4547 C4546 1.394 . S
C4547 C4548 1.383 . S
C4547 H4555 0.929 . S
C4548 C4547 1.383 . S
C4548 C4549 1.377 . S
C4549 H4533 0.930 . S
C4549 C4548 1.377 . S
C4549 C4550 1.379 . S
C4550 H4534 0.931 . S
C4550 C4544 1.383 . S
C4550 C4549 1.379 . S
H4551 C4545 0.959 . S
H4552 C4545 0.961 . S
H4553 C4545 0.960 . S
H4554 C4546 0.930 . S
H4555 C4547 0.929 . S
H4556 C4564 0.929 . S
H4557 C4566 0.930 . S
H4558 C4568 0.930 . S
H4559 C4571 0.929 . S
H4560 C4574 0.930 . S
H4561 C4576 0.960 . S
H4562 C4576 0.960 . S
H4563 C4576 0.960 . S
C4564 H4556 0.929 . S
C4564 C4565 1.377 . S
C4564 C4566 1.384 . S
C4565 C4564 1.377 . S
C4565 C4571 1.390 . S
C4566 H4557 0.930 . S
C4566 C4564 1.384 . S
C4566 C4567 1.372 . S
C4567 C4566 1.372 . S
C4567 C4568 1.400 . S
C4567 C4572 1.490 . S
C4568 H4558 0.930 . S
C4568 C4567 1.400 . S
C4568 C4571 1.386 . S
H4569 C4585 0.930 . S
H4570 C4586 0.931 . S
C4571 H4559 0.929 . S
C4571 C4565 1.390 . S
C4571 C4568 1.386 . S
C4572 C4567 1.490 . S
C4572 C4574 1.395 . S
C4572 C4575 1.403 . S
H4573 C4579 0.930 . S
C4574 H4560 0.930 . S
C4574 C4572 1.395 . S
C4574 C4577 1.403 . S
C4575 C4572 1.403 . S
C4575 C4576 1.524 . S
C4575 C4579 1.400 . S
C4576 H4561 0.960 . S
C4576 H4562 0.960 . S
C4576 H4563 0.960 . S
C4576 C4575 1.524 . S
C4577 C4574 1.403 . S
C4577 C4578 1.392 . S
C4577 C4581 1.495 . S
C4578 C4577 1.392 . S
C4578 C4579 1.385 . S
C4578 C4580 1.478 . S
C4579 H4573 0.930 . S
C4579 C4575 1.400 . S
C4579 C4578 1.385 . S
C4580 C4578 1.478 . S
C4580 C4582 1.381 . S
C4580 C4586 1.383 . S
C4581 C4577 1.495 . S
C4581 H4587 0.959 . S
C4581 H4588 0.961 . S
C4581 H4589 0.960 . S
C4582 C4580 1.381 . S
C4582 C4583 1.394 . S
C4582 H4590 0.930 . S
C4583 C4582 1.394 . S
C4583 C4584 1.383 . S
C4583 H4591 0.929 . S
C4584 C4583 1.383 . S
C4584 C4585 1.377 . S
C4585 H4569 0.930 . S
C4585 C4584 1.377 . S
C4585 C4586 1.379 . S
C4586 H4570 0.931 . S
C4586 C4580 1.383 . S
C4586 C4585 1.379 . S
H4587 C4581 0.959 . S
H4588 C4581 0.961 . S
H4589 C4581 0.960 . S
H4590 C4582 0.930 . S
H4591 C4583 0.929 . S
H4592 C4600 0.929 . S
H4593 C4602 0.930 . S
H4594 C4604 0.930 . S
H4595 C4607 0.929 . S
H4596 C4610 0.930 . S
H4597 C4612 0.960 . S
H4598 C4612 0.960 . S
H4599 C4612 0.960 . S
C4600 H4592 0.929 . S
C4600 C4601 1.377 . S
C4600 C4602 1.384 . S
C4601 C4600 1.377 . S
C4601 C4607 1.390 . S
C4602 H4593 0.930 . S
C4602 C4600 1.384 . S
C4602 C4603 1.372 . S
C4603 C4602 1.372 . S
C4603 C4604 1.400 . S
C4603 C4608 1.490 . S
C4604 H4594 0.930 . S
C4604 C4603 1.400 . S
C4604 C4607 1.386 . S
H4605 C4621 0.930 . S
H4606 C4622 0.931 . S
C4607 H4595 0.929 . S
C4607 C4601 1.390 . S
C4607 C4604 1.386 . S
C4608 C4603 1.490 . S
C4608 C4610 1.395 . S
C4608 C4611 1.403 . S
H4609 C4615 0.930 . S
C4610 H4596 0.930 . S
C4610 C4608 1.395 . S
C4610 C4613 1.403 . S
C4611 C4608 1.403 . S
C4611 C4612 1.524 . S
C4611 C4615 1.400 . S
C4612 H4597 0.960 . S
C4612 H4598 0.960 . S
C4612 H4599 0.960 . S
C4612 C4611 1.524 . S
C4613 C4610 1.403 . S
C4613 C4614 1.392 . S
C4613 C4617 1.495 . S
C4614 C4613 1.392 . S
C4614 C4615 1.385 . S
C4614 C4616 1.478 . S
C4615 H4609 0.930 . S
C4615 C4611 1.400 . S
C4615 C4614 1.385 . S
C4616 C4614 1.478 . S
C4616 C4618 1.381 . S
C4616 C4622 1.383 . S
C4617 C4613 1.495 . S
C4617 H4623 0.959 . S
C4617 H4624 0.961 . S
C4617 H4625 0.960 . S
C4618 C4616 1.381 . S
C4618 C4619 1.394 . S
C4618 H4626 0.930 . S
C4619 C4618 1.394 . S
C4619 C4620 1.383 . S
C4619 H4627 0.929 . S
C4620 C4619 1.383 . S
C4620 C4621 1.377 . S
C4621 H4605 0.930 . S
C4621 C4620 1.377 . S
C4621 C4622 1.379 . S
C4622 H4606 0.931 . S
C4622 C4616 1.383 . S
C4622 C4621 1.379 . S
H4623 C4617 0.959 . S
H4624 C4617 0.961 . S
H4625 C4617 0.960 . S
H4626 C4618 0.930 . S
H4627 C4619 0.929 . S
H4628 C4636 0.929 . S
H4629 C4638 0.930 . S
H4630 C4640 0.930 . S
H4631 C4643 0.929 . S
H4632 C4646 0.930 . S
H4633 C4648 0.960 . S
H4634 C4648 0.960 . S
H4635 C4648 0.960 . S
C4636 H4628 0.929 . S
C4636 C4637 1.377 . S
C4636 C4638 1.384 . S
C4637 C4636 1.377 . S
C4637 C4643 1.390 . S
C4638 H4629 0.930 . S
C4638 C4636 1.384 . S
C4638 C4639 1.372 . S
C4639 C4638 1.372 . S
C4639 C4640 1.400 . S
C4639 C4644 1.490 . S
C4640 H4630 0.930 . S
C4640 C4639 1.400 . S
C4640 C4643 1.386 . S
H4641 C4657 0.930 . S
H4642 C4658 0.931 . S
C4643 H4631 0.929 . S
C4643 C4637 1.390 . S
C4643 C4640 1.386 . S
C4644 C4639 1.490 . S
C4644 C4646 1.395 . S
C4644 C4647 1.403 . S
H4645 C4651 0.930 . S
C4646 H4632 0.930 . S
C4646 C4644 1.395 . S
C4646 C4649 1.403 . S
C4647 C4644 1.403 . S
C4647 C4648 1.524 . S
C4647 C4651 1.400 . S
C4648 H4633 0.960 . S
C4648 H4634 0.960 . S
C4648 H4635 0.960 . S
C4648 C4647 1.524 . S
C4649 C4646 1.403 . S
C4649 C4650 1.392 . S
C4649 C4653 1.495 . S
C4650 C4649 1.392 . S
C4650 C4651 1.385 . S
C4650 C4652 1.478 . S
C4651 H4645 0.930 . S
C4651 C4647 1.400 . S
C4651 C4650 1.385 . S
C4652 C4650 1.478 . S
C4652 C4654 1.381 . S
C4652 C4658 1.383 . S
C4653 C4649 1.495 . S
C4653 H4659 0.959 . S
C4653 H4660 0.961 . S
C4653 H4661 0.960 . S
C4654 C4652 1.381 . S
C4654 C4655 1.394 . S
C4654 H4662 0.930 . S
C4655 C4654 1.394 . S
C4655 C4656 1.383 . S
C4655 H4663 0.929 . S
C4656 C4655 1.383 . S
C4656 C4657 1.377 . S
C4657 H4641 0.930 . S
C4657 C4656 1.377 . S
C4657 C4658 1.379 . S
C4658 H4642 0.931 . S
C4658 C4652 1.383 . S
C4658 C4657 1.379 . S
H4659 C4653 0.959 . S
H4660 C4653 0.961 . S
H4661 C4653 0.960 . S
H4662 C4654 0.930 . S
H4663 C4655 0.929 . S
H4664 C4672 0.929 . S
H4665 C4674 0.930 . S
H4666 C4676 0.930 . S
H4667 C4679 0.929 . S
H4668 C4682 0.930 . S
H4669 C4684 0.960 . S
H4670 C4684 0.960 . S
H4671 C4684 0.960 . S
C4672 H4664 0.929 . S
C4672 C4673 1.377 . S
C4672 C4674 1.384 . S
C4673 C4672 1.377 . S
C4673 C4679 1.390 . S
C4674 H4665 0.930 . S
C4674 C4672 1.384 . S
C4674 C4675 1.372 . S
C4675 C4674 1.372 . S
C4675 C4676 1.400 . S
C4675 C4680 1.490 . S
C4676 H4666 0.930 . S
C4676 C4675 1.400 . S
C4676 C4679 1.386 . S
H4677 C4693 0.930 . S
H4678 C4694 0.931 . S
C4679 H4667 0.929 . S
C4679 C4673 1.390 . S
C4679 C4676 1.386 . S
C4680 C4675 1.490 . S
C4680 C4682 1.395 . S
C4680 C4683 1.403 . S
H4681 C4687 0.930 . S
C4682 H4668 0.930 . S
C4682 C4680 1.395 . S
C4682 C4685 1.403 . S
C4683 C4680 1.403 . S
C4683 C4684 1.524 . S
C4683 C4687 1.400 . S
C4684 H4669 0.960 . S
C4684 H4670 0.960 . S
C4684 H4671 0.960 . S
C4684 C4683 1.524 . S
C4685 C4682 1.403 . S
C4685 C4686 1.392 . S
C4685 C4689 1.495 . S
C4686 C4685 1.392 . S
C4686 C4687 1.385 . S
C4686 C4688 1.478 . S
C4687 H4681 0.930 . S
C4687 C4683 1.400 . S
C4687 C4686 1.385 . S
C4688 C4686 1.478 . S
C4688 C4690 1.381 . S
C4688 C4694 1.383 . S
C4689 C4685 1.495 . S
C4689 H4695 0.959 . S
C4689 H4696 0.961 . S
C4689 H4697 0.960 . S
C4690 C4688 1.381 . S
C4690 C4691 1.394 . S
C4690 H4698 0.930 . S
C4691 C4690 1.394 . S
C4691 C4692 1.383 . S
C4691 H4699 0.929 . S
C4692 C4691 1.383 . S
C4692 C4693 1.377 . S
C4693 H4677 0.930 . S
C4693 C4692 1.377 . S
C4693 C4694 1.379 . S
C4694 H4678 0.931 . S
C4694 C4688 1.383 . S
C4694 C4693 1.379 . S
H4695 C4689 0.959 . S
H4696 C4689 0.961 . S
H4697 C4689 0.960 . S
H4698 C4690 0.930 . S
H4699 C4691 0.929 . S
H4700 C4708 0.929 . S
H4701 C4710 0.930 . S
H4702 C4712 0.930 . S
H4703 C4715 0.929 . S
H4704 C4718 0.930 . S
H4705 C4720 0.960 . S
H4706 C4720 0.960 . S
H4707 C4720 0.960 . S
C4708 H4700 0.929 . S
C4708 C4709 1.377 . S
C4708 C4710 1.384 . S
C4709 C4708 1.377 . S
C4709 C4715 1.390 . S
C4710 H4701 0.930 . S
C4710 C4708 1.384 . S
C4710 C4711 1.372 . S
C4711 C4710 1.372 . S
C4711 C4712 1.400 . S
C4711 C4716 1.490 . S
C4712 H4702 0.930 . S
C4712 C4711 1.400 . S
C4712 C4715 1.386 . S
H4713 C4729 0.930 . S
H4714 C4730 0.931 . S
C4715 H4703 0.929 . S
C4715 C4709 1.390 . S
C4715 C4712 1.386 . S
C4716 C4711 1.490 . S
C4716 C4718 1.395 . S
C4716 C4719 1.403 . S
H4717 C4723 0.930 . S
C4718 H4704 0.930 . S
C4718 C4716 1.395 . S
C4718 C4721 1.403 . S
C4719 C4716 1.403 . S
C4719 C4720 1.524 . S
C4719 C4723 1.400 . S
C4720 H4705 0.960 . S
C4720 H4706 0.960 . S
C4720 H4707 0.960 . S
C4720 C4719 1.524 . S
C4721 C4718 1.403 . S
C4721 C4722 1.392 . S
C4721 C4725 1.495 . S
C4722 C4721 1.392 . S
C4722 C4723 1.385 . S
C4722 C4724 1.478 . S
C4723 H4717 0.930 . S
C4723 C4719 1.400 . S
C4723 C4722 1.385 . S
C4724 C4722 1.478 . S
C4724 C4726 1.381 . S
C4724 C4730 1.383 . S
C4725 C4721 1.495 . S
C4725 H4731 0.959 . S
C4725 H4732 0.961 . S
C4725 H4733 0.960 . S
C4726 C4724 1.381 . S
C4726 C4727 1.394 . S
C4726 H4734 0.930 . S
C4727 C4726 1.394 . S
C4727 C4728 1.383 . S
C4727 H4735 0.929 . S
C4728 C4727 1.383 . S
C4728 C4729 1.377 . S
C4729 H4713 0.930 . S
C4729 C4728 1.377 . S
C4729 C4730 1.379 . S
C4730 H4714 0.931 . S
C4730 C4724 1.383 . S
C4730 C4729 1.379 . S
H4731 C4725 0.959 . S
H4732 C4725 0.961 . S
H4733 C4725 0.960 . S
H4734 C4726 0.930 . S
H4735 C4727 0.929 . S
C1289 C10 1.935 . S
C1308 C135 1.891 . S
C1325 C15 1.884 . S
C1344 C50 1.938 . S
C1361 C90 1.935 . S
C1380 C55 1.898 . S
C1397 C95 1.885 . S
C1416 C130 1.941 . S
C1433 C215 1.886 . S
C1452 C170 1.924 . S
C1469 C210 1.935 . S
C1488 C255 1.875 . S
C1505 C295 1.890 . S
C1524 C250 1.938 . S
C1541 C175 1.890 . S
C1560 C290 1.938 . S
C1577 C339 1.935 . S
C1596 C446 1.863 . S
C1613 C379 1.935 . S
C1632 C326 1.865 . S
C1649 C419 1.936 . S
C1668 C366 1.872 . S
C1685 C459 1.937 . S
C1704 C406 1.874 . S
C1721 C499 1.935 . S
C1740 C526 1.865 . S
C1757 C539 1.935 . S
C1776 C566 1.876 . S
C1793 C606 1.892 . S
C1812 C579 1.941 . S
C1829 C486 1.889 . S
C1848 C619 1.939 . S
C1865 C650 1.938 . S
C1884 C775 1.894 . S
C1901 C655 1.892 . S
C1920 C690 1.933 . S
C1937 C695 1.885 . S
C1956 C730 1.926 . S
C1973 C770 1.935 . S
C1992 C735 1.895 . S
C2009 C810 1.936 . S
C2028 C855 1.902 . S
C2045 C895 1.889 . S
C2064 C850 1.941 . S
C2081 C890 1.937 . S
C2100 C935 1.864 . S
C2117 C815 1.891 . S
C2136 C930 1.936 . S
C2153 C1086 1.888 . S
C2172 C979 1.931 . S
C2189 C966 1.884 . S
C2208 C1019 1.926 . S
C2225 C1059 1.935 . S
C2244 C1006 1.869 . S
C2261 C1046 1.884 . S
C2280 C1099 1.924 . S
C2297 C1166 1.886 . S
C2316 C1139 1.934 . S
C2333 C1206 1.884 . S
C2352 C1179 1.924 . S
C2369 C1246 1.887 . S
C2388 C1219 1.935 . S
C2405 C1259 1.937 . S
C2424 C1126 1.879 . S
C2441 C1090 1.569 . S
C2460 C9 1.542 . S
C2477 C49 1.555 . S
C2496 C330 1.556 . S
C2513 C89 1.561 . S
C2532 C1010 1.583 . S
C2549 C129 1.556 . S
C2568 C410 1.561 . S
C2585 C169 1.555 . S
C2604 C1170 1.555 . S
C2621 C570 1.573 . S
C2640 C209 1.565 . S
C2657 C1250 1.574 . S
C2676 C249 1.573 . S
C2693 C289 1.556 . S
C2712 C490 1.566 . S
C2729 C338 1.555 . S
C2748 C779 1.564 . S
C2765 C19 1.571 . S
C2784 C378 1.573 . S
C2801 C699 1.572 . S
C2820 C418 1.569 . S
C2837 C99 1.572 . S
C2856 C458 1.568 . S
C2873 C859 1.575 . S
C2892 C498 1.549 . S
C2909 C259 1.570 . S
C2928 C538 1.574 . S
C2945 C578 1.553 . S
C2964 C939 1.573 . S
C2981 C618 1.554 . S
C3000 C179 1.568 . S
C3017 C649 1.559 . S
C3036 C450 1.570 . S
C3053 C689 1.556 . S
C3072 C970 1.560 . S
C3089 C729 1.558 . S
C3108 C370 1.571 . S
C3125 C769 1.557 . S
C3144 C1050 1.562 . S
C3161 C809 1.561 . S
C3180 C530 1.580 . S
C3197 C849 1.555 . S
C3216 C1210 1.559 . S
C3233 C610 1.573 . S
C3252 C889 1.559 . S
C3269 C929 1.557 . S
C3288 C1130 1.565 . S
C3305 C139 1.568 . S
C3324 C978 1.556 . S
C3341 C659 1.568 . S
C3360 C1018 1.561 . S
C3377 C59 1.573 . S
C3396 C1058 1.570 . S
C3413 C739 1.574 . S
C3432 C1098 1.553 . S
C3449 C219 1.570 . S
C3468 C1138 1.574 . S
C3485 C1178 1.557 . S
C3504 C899 1.583 . S
C3521 C1218 1.562 . S
C3540 C299 1.562 . S
C3557 C819 1.568 . S
C3576 C1258 1.568 . S
C3593 C18 0.333 . S
C3612 C178 0.355 . S
C3629 C58 0.321 . S
C3648 C218 0.415 . S
C3665 C98 0.350 . S
C3684 C258 0.282 . S
C3701 C298 0.352 . S
C3720 C138 0.257 . S
C3737 C489 0.354 . S
C3756 C329 0.425 . S
C3773 C529 0.316 . S
C3792 C369 0.313 . S
C3809 C409 0.316 . S
C3828 C569 0.320 . S
C3845 C449 0.315 . S
C3864 C609 0.269 . S
C3881 C658 0.317 . S
C3900 C818 0.426 . S
C3917 C858 0.334 . S
C3936 C698 0.365 . S
C3953 C898 0.355 . S
C3972 C738 0.238 . S
C3989 C938 0.319 . S
C4008 C778 0.420 . S
C4025 C1129 0.338 . S
C4044 C969 0.270 . S
C4061 C1009 0.356 . S
C4080 C1169 0.406 . S
C4097 C1209 0.351 . S
C4116 C1049 0.432 . S
C4133 C1089 0.351 . S
C4152 C1249 0.343 . S
C4169 C286 1.327 . S
C4188 C6 1.299 . S
C4205 C46 1.321 . S
C4224 C166 1.344 . S
C4241 C86 1.326 . S
C4260 C206 1.332 . S
C4277 C246 1.328 . S
C4296 C126 1.315 . S
C4313 C335 1.322 . S
C4332 C615 1.317 . S
C4349 C495 1.323 . S
C4368 C375 1.315 . S
C4385 C535 1.319 . S
C4404 C415 1.298 . S
C4421 C455 1.321 . S
C4440 C575 1.307 . S
C4457 C646 1.320 . S
C4476 C926 1.341 . S
C4493 C806 1.326 . S
C4512 C686 1.333 . S
C4529 C846 1.319 . S
C4548 C726 1.338 . S
C4565 C886 1.321 . S
C4584 C766 1.309 . S
C4601 C975 1.324 . S
C4620 C1255 1.323 . S
C4637 C1135 1.326 . S
C4656 C1015 1.329 . S
C4673 C1055 1.319 . S
C4692 C1175 1.302 . S
C4709 C1215 1.319 . S
C4728 C1095 1.299 . S
