# Generated by pormake.
# Topology uoh, (4)-cn, num edge types: 1
# Building blocks:
#     Node 0, Type 0, BuildingBlock: QUQFOY_clean_sbu_1, # of connection points: 4
#     Node 1, Type 0, BuildingBlock: QUQFOY_clean_sbu_1, # of connection points: 4
#     Node 2, Type 0, BuildingBlock: QUQFOY_clean_sbu_1, # of connection points: 4
#     Node 3, Type 0, BuildingBlock: QUQFOY_clean_sbu_1, # of connection points: 4
#     Node 4, Type 0, BuildingBlock: QUQFOY_clean_sbu_1, # of connection points: 4
#     Node 5, Type 0, BuildingBlock: QUQFOY_clean_sbu_1, # of connection points: 4
#     Node 6, Type 0, BuildingBlock: QUQFOY_clean_sbu_1, # of connection points: 4
#     Node 7, Type 0, BuildingBlock: QUQFOY_clean_sbu_1, # of connection points: 4
#     Node 8, Type 0, BuildingBlock: QUQFOY_clean_sbu_1, # of connection points: 4
#     Node 9, Type 0, BuildingBlock: QUQFOY_clean_sbu_1, # of connection points: 4
#     Node 10, Type 0, BuildingBlock: QUQFOY_clean_sbu_1, # of connection points: 4
#     Node 11, Type 0, BuildingBlock: QUQFOY_clean_sbu_1, # of connection points: 4
#     Node 12, Type 0, BuildingBlock: QUQFOY_clean_sbu_1, # of connection points: 4
#     Node 13, Type 0, BuildingBlock: QUQFOY_clean_sbu_1, # of connection points: 4
#     Node 14, Type 0, BuildingBlock: QUQFOY_clean_sbu_1, # of connection points: 4
#     Node 15, Type 0, BuildingBlock: QUQFOY_clean_sbu_1, # of connection points: 4
#     Node 16, Type 0, BuildingBlock: QUQFOY_clean_sbu_1, # of connection points: 4
#     Node 17, Type 0, BuildingBlock: QUQFOY_clean_sbu_1, # of connection points: 4
#     Node 18, Type 0, BuildingBlock: QUQFOY_clean_sbu_1, # of connection points: 4
#     Node 19, Type 0, BuildingBlock: QUQFOY_clean_sbu_1, # of connection points: 4
#     Node 20, Type 0, BuildingBlock: QUQFOY_clean_sbu_1, # of connection points: 4
#     Node 21, Type 0, BuildingBlock: QUQFOY_clean_sbu_1, # of connection points: 4
#     Node 22, Type 0, BuildingBlock: QUQFOY_clean_sbu_1, # of connection points: 4
#     Node 23, Type 0, BuildingBlock: QUQFOY_clean_sbu_1, # of connection points: 4
#     Node 24, Type 0, BuildingBlock: QUQFOY_clean_sbu_1, # of connection points: 4
#     Node 25, Type 0, BuildingBlock: QUQFOY_clean_sbu_1, # of connection points: 4
#     Node 26, Type 0, BuildingBlock: QUQFOY_clean_sbu_1, # of connection points: 4
#     Node 27, Type 0, BuildingBlock: QUQFOY_clean_sbu_1, # of connection points: 4
#     Node 28, Type 0, BuildingBlock: QUQFOY_clean_sbu_1, # of connection points: 4
#     Node 29, Type 0, BuildingBlock: QUQFOY_clean_sbu_1, # of connection points: 4
#     Node 30, Type 0, BuildingBlock: QUQFOY_clean_sbu_1, # of connection points: 4
#     Node 31, Type 0, BuildingBlock: QUQFOY_clean_sbu_1, # of connection points: 4
#     Node 32, Type 0, BuildingBlock: QUQFOY_clean_sbu_1, # of connection points: 4
#     Node 33, Type 0, BuildingBlock: QUQFOY_clean_sbu_1, # of connection points: 4
#     Node 34, Type 0, BuildingBlock: QUQFOY_clean_sbu_1, # of connection points: 4
#     Node 35, Type 0, BuildingBlock: QUQFOY_clean_sbu_1, # of connection points: 4
#     Edge 36, Type (0, 0), BuildingBlock: CIFDUS_clean_linker_0, # of connection points: 2
#     Edge 37, Type (0, 0), BuildingBlock: CIFDUS_clean_linker_0, # of connection points: 2
#     Edge 38, Type (0, 0), BuildingBlock: CIFDUS_clean_linker_0, # of connection points: 2
#     Edge 39, Type (0, 0), BuildingBlock: CIFDUS_clean_linker_0, # of connection points: 2
#     Edge 40, Type (0, 0), BuildingBlock: CIFDUS_clean_linker_0, # of connection points: 2
#     Edge 41, Type (0, 0), BuildingBlock: CIFDUS_clean_linker_0, # of connection points: 2
#     Edge 42, Type (0, 0), BuildingBlock: CIFDUS_clean_linker_0, # of connection points: 2
#     Edge 43, Type (0, 0), BuildingBlock: CIFDUS_clean_linker_0, # of connection points: 2
#     Edge 44, Type (0, 0), BuildingBlock: CIFDUS_clean_linker_0, # of connection points: 2
#     Edge 45, Type (0, 0), BuildingBlock: CIFDUS_clean_linker_0, # of connection points: 2
#     Edge 46, Type (0, 0), BuildingBlock: CIFDUS_clean_linker_0, # of connection points: 2
#     Edge 47, Type (0, 0), BuildingBlock: CIFDUS_clean_linker_0, # of connection points: 2
#     Edge 48, Type (0, 0), BuildingBlock: CIFDUS_clean_linker_0, # of connection points: 2
#     Edge 49, Type (0, 0), BuildingBlock: CIFDUS_clean_linker_0, # of connection points: 2
#     Edge 50, Type (0, 0), BuildingBlock: CIFDUS_clean_linker_0, # of connection points: 2
#     Edge 51, Type (0, 0), BuildingBlock: CIFDUS_clean_linker_0, # of connection points: 2
#     Edge 52, Type (0, 0), BuildingBlock: CIFDUS_clean_linker_0, # of connection points: 2
#     Edge 53, Type (0, 0), BuildingBlock: CIFDUS_clean_linker_0, # of connection points: 2
#     Edge 54, Type (0, 0), BuildingBlock: CIFDUS_clean_linker_0, # of connection points: 2
#     Edge 55, Type (0, 0), BuildingBlock: CIFDUS_clean_linker_0, # of connection points: 2
#     Edge 56, Type (0, 0), BuildingBlock: CIFDUS_clean_linker_0, # of connection points: 2
#     Edge 57, Type (0, 0), BuildingBlock: CIFDUS_clean_linker_0, # of connection points: 2
#     Edge 58, Type (0, 0), BuildingBlock: CIFDUS_clean_linker_0, # of connection points: 2
#     Edge 59, Type (0, 0), BuildingBlock: CIFDUS_clean_linker_0, # of connection points: 2
#     Edge 60, Type (0, 0), BuildingBlock: CIFDUS_clean_linker_0, # of connection points: 2
#     Edge 61, Type (0, 0), BuildingBlock: CIFDUS_clean_linker_0, # of connection points: 2
#     Edge 62, Type (0, 0), BuildingBlock: CIFDUS_clean_linker_0, # of connection points: 2
#     Edge 63, Type (0, 0), BuildingBlock: CIFDUS_clean_linker_0, # of connection points: 2
#     Edge 64, Type (0, 0), BuildingBlock: CIFDUS_clean_linker_0, # of connection points: 2
#     Edge 65, Type (0, 0), BuildingBlock: CIFDUS_clean_linker_0, # of connection points: 2
#     Edge 66, Type (0, 0), BuildingBlock: CIFDUS_clean_linker_0, # of connection points: 2
#     Edge 67, Type (0, 0), BuildingBlock: CIFDUS_clean_linker_0, # of connection points: 2
#     Edge 68, Type (0, 0), BuildingBlock: CIFDUS_clean_linker_0, # of connection points: 2
#     Edge 69, Type (0, 0), BuildingBlock: CIFDUS_clean_linker_0, # of connection points: 2
#     Edge 70, Type (0, 0), BuildingBlock: CIFDUS_clean_linker_0, # of connection points: 2
#     Edge 71, Type (0, 0), BuildingBlock: CIFDUS_clean_linker_0, # of connection points: 2
#     Edge 72, Type (0, 0), BuildingBlock: CIFDUS_clean_linker_0, # of connection points: 2
#     Edge 73, Type (0, 0), BuildingBlock: CIFDUS_clean_linker_0, # of connection points: 2
#     Edge 74, Type (0, 0), BuildingBlock: CIFDUS_clean_linker_0, # of connection points: 2
#     Edge 75, Type (0, 0), BuildingBlock: CIFDUS_clean_linker_0, # of connection points: 2
#     Edge 76, Type (0, 0), BuildingBlock: CIFDUS_clean_linker_0, # of connection points: 2
#     Edge 77, Type (0, 0), BuildingBlock: CIFDUS_clean_linker_0, # of connection points: 2
#     Edge 78, Type (0, 0), BuildingBlock: CIFDUS_clean_linker_0, # of connection points: 2
#     Edge 79, Type (0, 0), BuildingBlock: CIFDUS_clean_linker_0, # of connection points: 2
#     Edge 80, Type (0, 0), BuildingBlock: CIFDUS_clean_linker_0, # of connection points: 2
#     Edge 81, Type (0, 0), BuildingBlock: CIFDUS_clean_linker_0, # of connection points: 2
#     Edge 82, Type (0, 0), BuildingBlock: CIFDUS_clean_linker_0, # of connection points: 2
#     Edge 83, Type (0, 0), BuildingBlock: CIFDUS_clean_linker_0, # of connection points: 2
#     Edge 84, Type (0, 0), BuildingBlock: CIFDUS_clean_linker_0, # of connection points: 2
#     Edge 85, Type (0, 0), BuildingBlock: CIFDUS_clean_linker_0, # of connection points: 2
#     Edge 86, Type (0, 0), BuildingBlock: CIFDUS_clean_linker_0, # of connection points: 2
#     Edge 87, Type (0, 0), BuildingBlock: CIFDUS_clean_linker_0, # of connection points: 2
#     Edge 88, Type (0, 0), BuildingBlock: CIFDUS_clean_linker_0, # of connection points: 2
#     Edge 89, Type (0, 0), BuildingBlock: CIFDUS_clean_linker_0, # of connection points: 2
#     Edge 90, Type (0, 0), BuildingBlock: CIFDUS_clean_linker_0, # of connection points: 2
#     Edge 91, Type (0, 0), BuildingBlock: CIFDUS_clean_linker_0, # of connection points: 2
#     Edge 92, Type (0, 0), BuildingBlock: CIFDUS_clean_linker_0, # of connection points: 2
#     Edge 93, Type (0, 0), BuildingBlock: CIFDUS_clean_linker_0, # of connection points: 2
#     Edge 94, Type (0, 0), BuildingBlock: CIFDUS_clean_linker_0, # of connection points: 2
#     Edge 95, Type (0, 0), BuildingBlock: CIFDUS_clean_linker_0, # of connection points: 2
#     Edge 96, Type (0, 0), BuildingBlock: CIFDUS_clean_linker_0, # of connection points: 2
#     Edge 97, Type (0, 0), BuildingBlock: CIFDUS_clean_linker_0, # of connection points: 2
#     Edge 98, Type (0, 0), BuildingBlock: CIFDUS_clean_linker_0, # of connection points: 2
#     Edge 99, Type (0, 0), BuildingBlock: CIFDUS_clean_linker_0, # of connection points: 2
#     Edge 100, Type (0, 0), BuildingBlock: CIFDUS_clean_linker_0, # of connection points: 2
#     Edge 101, Type (0, 0), BuildingBlock: CIFDUS_clean_linker_0, # of connection points: 2
#     Edge 102, Type (0, 0), BuildingBlock: CIFDUS_clean_linker_0, # of connection points: 2
#     Edge 103, Type (0, 0), BuildingBlock: CIFDUS_clean_linker_0, # of connection points: 2
#     Edge 104, Type (0, 0), BuildingBlock: CIFDUS_clean_linker_0, # of connection points: 2
#     Edge 105, Type (0, 0), BuildingBlock: CIFDUS_clean_linker_0, # of connection points: 2
#     Edge 106, Type (0, 0), BuildingBlock: CIFDUS_clean_linker_0, # of connection points: 2
#     Edge 107, Type (0, 0), BuildingBlock: CIFDUS_clean_linker_0, # of connection points: 2
# Relax obj value: 0.082
# Max RMSD: 0.127
# Mean RMSD: 0.127
data_MOF--net-uoh--node1-QUQFOY_clean_sbu_1--edge1-CIFDUS_clean_linker_0
_symmetry_space_group_name_H-M    P1
_symmetry_Int_Tables_number       1
_symmetry_cell_setting            triclinic
loop_
_symmetry_equiv_pos_as_xyz
'x, y, z'
_cell_length_a     81.789249
_cell_length_b     81.740343
_cell_length_c     24.879023
_cell_angle_alpha  90.14887
_cell_angle_beta   89.882065
_cell_angle_gamma 120.04759
loop_
_atom_site_label
_atom_site_type_symbol
_atom_site_fract_x
_atom_site_fract_y
_atom_site_fract_z
_atom_type_partial_charge
O0 O 0.24752 0.15733 0.12111 0.0
Cd1 Cd 0.2612 0.17321 0.18862 0.0
Cd2 Cd 0.25592 0.13952 0.2212 0.0
O3 O 0.24102 0.12933 0.1509 0.0
O4 O 0.25727 0.19559 0.18789 0.0
O5 O 0.24691 0.17444 0.25325 0.0
C6 C 0.24826 0.18957 0.23271 0.0
C7 C 0.24405 0.12377 0.30263 0.0
C8 C 0.24035 0.13963 0.11379 0.0
C9 C 0.29617 0.17057 0.20169 0.0
O10 O 0.28487 0.15331 0.21274 0.0
O11 O 0.28983 0.18177 0.19338 0.0
O12 O 0.24996 0.11694 0.26556 0.0
O13 O 0.24423 0.13936 0.29265 0.0
O14 O 0.86539 0.09483 0.08032 0.0
Cd15 Cd 0.84847 0.09147 0.14637 0.0
Cd16 Cd 0.88218 0.11769 0.1857 0.0
O17 O 0.89339 0.11406 0.11519 0.0
O18 O 0.82517 0.0662 0.13497 0.0
O19 O 0.84407 0.07262 0.20497 0.0
C20 C 0.82933 0.06057 0.17855 0.0
C21 C 0.89252 0.11581 0.27179 0.0
C22 C 0.88328 0.10448 0.07558 0.0
C23 C 0.85319 0.12965 0.16793 0.0
O24 O 0.8702 0.13456 0.17905 0.0
O25 O 0.84134 0.11246 0.1568 0.0
O26 O 0.90252 0.13008 0.24093 0.0
O27 O 0.87705 0.10207 0.25248 0.0
O28 O 0.93222 0.7754 0.09359 0.0
Cd29 Cd 0.93435 0.76253 0.16267 0.0
Cd30 Cd 0.90564 0.76942 0.19003 0.0
O31 O 0.91145 0.78375 0.11771 0.0
O32 O 0.95931 0.76388 0.15157 0.0
O33 O 0.95374 0.77769 0.22002 0.0
C34 C 0.96547 0.7745 0.1936 0.0
C35 C 0.90122 0.78107 0.27171 0.0
C36 C 0.92256 0.78325 0.08275 0.0
C37 C 0.89584 0.72859 0.17795 0.0
O38 O 0.8902 0.74044 0.18341 0.0
O39 O 0.91342 0.73431 0.17279 0.0
O40 O 0.88904 0.77585 0.23333 0.0
O41 O 0.91664 0.78079 0.26251 0.0
O42 O 0.16039 0.24312 0.43443 0.0
Cd43 Cd 0.17748 0.25677 0.36871 0.0
Cd44 Cd 0.14393 0.25076 0.3295 0.0
O45 O 0.13274 0.23619 0.4004 0.0
O46 O 0.19995 0.25284 0.37256 0.0
O47 O 0.17943 0.2424 0.30561 0.0
C48 C 0.19437 0.24381 0.32757 0.0
C49 C 0.13278 0.23863 0.24347 0.0
C50 C 0.14259 0.23586 0.43952 0.0
C51 C 0.17425 0.29131 0.34944 0.0
O52 O 0.15721 0.27974 0.33672 0.0
O53 O 0.18549 0.28527 0.36105 0.0
O54 O 0.12343 0.24361 0.27481 0.0
O55 O 0.14794 0.2396 0.26222 0.0
O56 O 0.77807 0.92765 0.42271 0.0
Cd57 Cd 0.7648 0.92822 0.35267 0.0
Cd58 Cd 0.77352 0.90121 0.32756 0.0
O59 O 0.78804 0.90797 0.40037 0.0
O60 O 0.7651 0.95293 0.35854 0.0
O61 O 0.77959 0.94673 0.29342 0.0
C62 C 0.77582 0.95859 0.31664 0.0
C63 C 0.78599 0.90369 0.24106 0.0
C64 C 0.78676 0.91889 0.43467 0.0
C65 C 0.73221 0.88858 0.33903 0.0
O66 O 0.7447 0.88374 0.33419 0.0
O67 O 0.7371 0.90602 0.34318 0.0
O68 O 0.78303 0.88991 0.27251 0.0
O69 O 0.783 0.91668 0.26024 0.0
O70 O 0.10082 0.85769 0.4215 0.0
Cd71 Cd 0.10054 0.84476 0.35 0.0
Cd72 Cd 0.12452 0.88133 0.32407 0.0
O73 O 0.11785 0.88772 0.39876 0.0
O74 O 0.07657 0.81979 0.35515 0.0
O75 O 0.08137 0.84102 0.29291 0.0
C76 C 0.07011 0.82503 0.31552 0.0
C77 C 0.12549 0.89666 0.24378 0.0
C78 C 0.1083 0.8751 0.43357 0.0
C79 C 0.14059 0.85503 0.33029 0.0
O80 O 0.14345 0.87174 0.32549 0.0
O81 O 0.12388 0.84122 0.33741 0.0
O82 O 0.1378 0.9051 0.28125 0.0
O83 O 0.1117 0.87982 0.25353 0.0
O84 O 0.77804 0.85884 0.92103 0.0
Cd85 Cd 0.76817 0.84676 0.84627 0.0
Cd86 Cd 0.77648 0.88291 0.82468 0.0
O87 O 0.78912 0.88892 0.90048 0.0
O88 O 0.76945 0.82265 0.84034 0.0
O89 O 0.78787 0.84855 0.79438 0.0
C90 C 0.78319 0.83147 0.80683 0.0
C91 C 0.7901 0.89379 0.73981 0.0
C92 C 0.7865 0.87621 0.9347 0.0
C93 C 0.73555 0.85343 0.82499 0.0
O94 O 0.74763 0.87097 0.82634 0.0
O95 O 0.74093 0.84123 0.82716 0.0
O96 O 0.78692 0.90445 0.77154 0.0
O97 O 0.78687 0.8777 0.75818 0.0
O98 O 0.16273 0.92391 0.92908 0.0
Cd99 Cd 0.18028 0.92687 0.86484 0.0
Cd100 Cd 0.14673 0.89984 0.82358 0.0
O101 O 0.13523 0.90347 0.89343 0.0
O102 O 0.20315 0.9531 0.86988 0.0
O103 O 0.18322 0.94342 0.80158 0.0
C104 C 0.19809 0.95677 0.82446 0.0
C105 C 0.13656 0.90198 0.73732 0.0
C106 C 0.14486 0.91363 0.93294 0.0
C107 C 0.17597 0.88846 0.84611 0.0
O108 O 0.15915 0.88338 0.8319 0.0
O109 O 0.18745 0.90569 0.85824 0.0
O110 O 0.12659 0.88746 0.7674 0.0
O111 O 0.15193 0.91561 0.75722 0.0
O112 O 0.09734 0.24961 0.92517 0.0
Cd113 Cd 0.09707 0.26026 0.85005 0.0
Cd114 Cd 0.12366 0.251 0.83186 0.0
O115 O 0.1158 0.23785 0.90613 0.0
O116 O 0.07325 0.26156 0.84499 0.0
O117 O 0.07846 0.24206 0.79576 0.0
C118 C 0.06732 0.24827 0.80958 0.0
C119 C 0.12512 0.23691 0.75137 0.0
C120 C 0.10553 0.24055 0.93943 0.0
C121 C 0.13674 0.29233 0.83399 0.0
O122 O 0.14157 0.2798 0.83517 0.0
O123 O 0.1193 0.28746 0.83458 0.0
O124 O 0.13739 0.24092 0.78907 0.0
O125 O 0.1112 0.23977 0.76093 0.0
O126 O 0.8633 0.77195 0.58937 0.0
Cd127 Cd 0.84814 0.76003 0.65942 0.0
Cd128 Cd 0.88254 0.76917 0.6962 0.0
O129 O 0.89187 0.78305 0.62341 0.0
O130 O 0.82328 0.75959 0.6571 0.0
O131 O 0.84629 0.77744 0.71347 0.0
C132 C 0.82958 0.772 0.69518 0.0
C133 C 0.8929 0.78274 0.78122 0.0
C134 C 0.88119 0.78098 0.58366 0.0
C135 C 0.85484 0.72786 0.68503 0.0
O136 O 0.87198 0.74044 0.69243 0.0
O137 O 0.8425 0.73265 0.67566 0.0
O138 O 0.9035 0.77927 0.75027 0.0
O139 O 0.87685 0.77953 0.76242 0.0
O140 O 0.24987 0.09579 0.62057 0.0
Cd141 Cd 0.26389 0.09436 0.68822 0.0
Cd142 Cd 0.25668 0.12149 0.72129 0.0
O143 O 0.24169 0.11603 0.65097 0.0
O144 O 0.26101 0.06844 0.6878 0.0
O145 O 0.24972 0.07861 0.75256 0.0
C146 C 0.25171 0.06514 0.73225 0.0
C147 C 0.24415 0.12451 0.80275 0.0
C148 C 0.24179 0.10548 0.61354 0.0
C149 C 0.2976 0.13294 0.70199 0.0
O150 O 0.28557 0.13797 0.71296 0.0
O151 O 0.29218 0.11555 0.69361 0.0
O152 O 0.24953 0.13723 0.7659 0.0
O153 O 0.24527 0.10959 0.79256 0.0
O154 O 0.92948 0.16227 0.58958 0.0
Cd155 Cd 0.93082 0.17372 0.66479 0.0
Cd156 Cd 0.90341 0.13821 0.68431 0.0
O157 O 0.91034 0.13224 0.60947 0.0
O158 O 0.95627 0.19724 0.67198 0.0
O159 O 0.94764 0.17128 0.71919 0.0
C160 C 0.96053 0.18824 0.70661 0.0
C161 C 0.90123 0.12215 0.76413 0.0
C162 C 0.92069 0.14494 0.5757 0.0
C163 C 0.89206 0.16791 0.68375 0.0
O164 O 0.88667 0.15039 0.68267 0.0
O165 O 0.90963 0.18011 0.68191 0.0
O166 O 0.88874 0.11442 0.72663 0.0
O167 O 0.9157 0.13858 0.75468 0.0
O168 O 0.91778 0.49122 0.42827 0.0
Cd169 Cd 0.92983 0.50654 0.49799 0.0
Cd170 Cd 0.9228 0.47218 0.53319 0.0
O171 O 0.90832 0.46278 0.4614 0.0
O172 O 0.92721 0.52989 0.50075 0.0
O173 O 0.91157 0.50523 0.55411 0.0
C174 C 0.9149 0.52164 0.53844 0.0
C175 C 0.9098 0.46083 0.61808 0.0
C176 C 0.90929 0.47332 0.42247 0.0
C177 C 0.96356 0.50185 0.52073 0.0
O178 O 0.95171 0.48444 0.52772 0.0
O179 O 0.95781 0.51356 0.5127 0.0
O180 O 0.91414 0.45102 0.58647 0.0
O181 O 0.91198 0.4766 0.6002 0.0
O182 O 0.53624 0.43316 0.42386 0.0
Cd183 Cd 0.5214 0.42997 0.49431 0.0
Cd184 Cd 0.55682 0.45343 0.53189 0.0
O185 O 0.56514 0.44852 0.45765 0.0
O186 O 0.49734 0.40448 0.49723 0.0
O187 O 0.52233 0.41224 0.54805 0.0
C188 C 0.50559 0.39965 0.53294 0.0
C189 C 0.56842 0.45149 0.61622 0.0
C190 C 0.55407 0.44089 0.41778 0.0
C191 C 0.53056 0.46929 0.52323 0.0
O192 O 0.54722 0.47228 0.53019 0.0
O193 O 0.51714 0.45265 0.51266 0.0
O194 O 0.57863 0.46508 0.58352 0.0
O195 O 0.55226 0.43826 0.59922 0.0
O196 O 0.59568 0.10695 0.42956 0.0
Cd197 Cd 0.5974 0.09626 0.50339 0.0
Cd198 Cd 0.56939 0.10422 0.52582 0.0
O199 O 0.57649 0.11769 0.45122 0.0
O200 O 0.62297 0.09799 0.50989 0.0
O201 O 0.61466 0.11549 0.55747 0.0
C202 C 0.62742 0.11132 0.54465 0.0
C203 C 0.5709 0.11713 0.61134 0.0
C204 C 0.58683 0.11551 0.41672 0.0
C205 C 0.55804 0.06322 0.52099 0.0
O206 O 0.55263 0.07533 0.52129 0.0
O207 O 0.57564 0.06863 0.51937 0.0
O208 O 0.55728 0.11377 0.57868 0.0
O209 O 0.58419 0.11439 0.59377 0.0
O210 O 0.8355 0.57989 0.76454 0.0
Cd211 Cd 0.85054 0.5924 0.69472 0.0
Cd212 Cd 0.81603 0.58358 0.65933 0.0
O213 O 0.80687 0.56917 0.73131 0.0
O214 O 0.87536 0.59272 0.6951 0.0
O215 O 0.8521 0.57532 0.63886 0.0
C216 C 0.86886 0.58058 0.65635 0.0
C217 C 0.80529 0.57057 0.57404 0.0
C218 C 0.81761 0.57084 0.77048 0.0
C219 C 0.84388 0.62481 0.67223 0.0
O220 O 0.82673 0.61228 0.66475 0.0
O221 O 0.85622 0.61993 0.68062 0.0
O222 O 0.79493 0.57409 0.60584 0.0
O223 O 0.8213 0.57341 0.59211 0.0
O224 O 0.44568 0.26255 0.75427 0.0
Cd225 Cd 0.43305 0.2638 0.68325 0.0
Cd226 Cd 0.44142 0.23724 0.65352 0.0
O227 O 0.45624 0.24409 0.72439 0.0
O228 O 0.43295 0.28835 0.68078 0.0
O229 O 0.45001 0.28163 0.62553 0.0
C230 C 0.44499 0.29348 0.64194 0.0
C231 C 0.45434 0.2343 0.57294 0.0
C232 C 0.4548 0.25388 0.76191 0.0
C233 C 0.40028 0.22447 0.66689 0.0
O234 O 0.4127 0.21964 0.66076 0.0
O235 O 0.40529 0.24188 0.67216 0.0
O236 O 0.4497 0.22204 0.61085 0.0
O237 O 0.45247 0.24886 0.58187 0.0
O238 O 0.76699 0.19284 0.76278 0.0
Cd239 Cd 0.76374 0.17731 0.69321 0.0
Cd240 Cd 0.79017 0.21137 0.65692 0.0
O241 O 0.78553 0.22122 0.72868 0.0
O242 O 0.73906 0.15268 0.69604 0.0
O243 O 0.74473 0.17539 0.63812 0.0
C244 C 0.73323 0.15883 0.65709 0.0
C245 C 0.78848 0.22221 0.57133 0.0
C246 C 0.77636 0.21076 0.76827 0.0
C247 C 0.80238 0.18273 0.67042 0.0
O248 O 0.80756 0.20002 0.66282 0.0
O249 O 0.78501 0.17078 0.67878 0.0
O250 O 0.80241 0.23232 0.60321 0.0
O251 O 0.77492 0.20641 0.58946 0.0
O252 O 0.44784 0.19987 0.25478 0.0
Cd253 Cd 0.43581 0.1851 0.18438 0.0
Cd254 Cd 0.44186 0.21925 0.15318 0.0
O255 O 0.4566 0.22841 0.22406 0.0
O256 O 0.43854 0.16198 0.18228 0.0
O257 O 0.45347 0.18604 0.12636 0.0
C258 C 0.45036 0.16978 0.14326 0.0
C259 C 0.45379 0.23567 0.07277 0.0
C260 C 0.45597 0.21768 0.2619 0.0
C261 C 0.40137 0.1885 0.1671 0.0
O262 O 0.41293 0.20599 0.16042 0.0
O263 O 0.40748 0.17701 0.17307 0.0
O264 O 0.44818 0.24236 0.11097 0.0
O265 O 0.45349 0.21993 0.08127 0.0
O266 O 0.83624 0.25911 0.25505 0.0
Cd267 Cd 0.84822 0.26035 0.18067 0.0
Cd268 Cd 0.81201 0.23334 0.15946 0.0
O269 O 0.80619 0.24052 0.23416 0.0
O270 O 0.87364 0.28401 0.18024 0.0
O271 O 0.85003 0.28012 0.12835 0.0
C272 C 0.86716 0.29078 0.14483 0.0
C273 C 0.79565 0.23058 0.07977 0.0
C274 C 0.81886 0.25064 0.26832 0.0
C275 C 0.84077 0.22085 0.16063 0.0
O276 O 0.82338 0.2159 0.16136 0.0
O277 O 0.8533 0.2383 0.16322 0.0
O278 O 0.78804 0.21852 0.11828 0.0
O279 O 0.81215 0.24513 0.0882 0.0
O280 O 0.769 0.58036 0.25659 0.0
Cd281 Cd 0.76774 0.59054 0.1816 0.0
Cd282 Cd 0.79539 0.58262 0.16265 0.0
O283 O 0.78804 0.56934 0.23674 0.0
O284 O 0.74247 0.58902 0.17609 0.0
O285 O 0.75038 0.57138 0.12736 0.0
C286 C 0.73776 0.57569 0.14118 0.0
C287 C 0.7986 0.56946 0.08255 0.0
C288 C 0.77763 0.57168 0.2704 0.0
C289 C 0.80659 0.62363 0.16393 0.0
O290 O 0.81203 0.61156 0.16572 0.0
O291 O 0.789 0.61816 0.16475 0.0
O292 O 0.81072 0.57413 0.121 0.0
O293 O 0.78383 0.57098 0.09125 0.0
O294 O 0.52474 0.10556 0.93107 0.0
Cd295 Cd 0.51322 0.09513 1.00595 0.0
Cd296 Cd 0.54936 0.1048 0.02597 0.0
O297 O 0.55499 0.11809 0.95122 0.0
O298 O 0.48786 0.0937 1.00974 0.0
O299 O 0.5125 0.11385 0.05778 0.0
C300 C 0.49518 0.10747 0.04375 0.0
C301 C 0.55984 0.11789 0.11159 0.0
C302 C 0.54205 0.11492 0.91724 0.0
C303 C 0.52162 0.06349 0.02386 0.0
O304 O 0.53895 0.07615 0.02194 0.0
O305 O 0.50889 0.06818 0.02353 0.0
O306 O 0.57086 0.11558 0.07894 0.0
O307 O 0.54349 0.11412 0.09381 0.0
O308 O 0.92197 0.42872 0.93683 0.0
Cd309 Cd 0.93235 0.42883 1.01229 0.0
Cd310 Cd 0.91944 0.45285 0.03107 0.0
O311 O 0.90689 0.44412 0.95614 0.0
O312 O 0.93159 0.404 0.023 0.0
O313 O 0.91283 0.41193 0.06581 0.0
C314 C 0.91755 0.39936 0.05533 0.0
C315 C 0.90497 0.45438 0.11052 0.0
C316 C 0.91131 0.43514 0.92267 0.0
C317 C 0.96168 0.46917 0.03165 0.0
O318 O 0.94785 0.47211 0.02997 0.0
O319 O 0.95879 0.45231 0.02977 0.0
O320 O 0.90832 0.46612 0.07179 0.0
O321 O 0.90836 0.44076 0.10215 0.0
O322 O 0.60018 0.50098 0.93249 0.0
Cd323 Cd 0.60025 0.51243 1.00678 0.0
Cd324 Cd 0.57303 0.47659 0.02537 0.0
O325 O 0.58136 0.47089 0.95232 0.0
O326 O 0.62434 0.53741 1.01141 0.0
O327 O 0.61866 0.51282 0.06161 0.0
C328 C 0.63009 0.53003 0.04709 0.0
C329 C 0.57049 0.46069 0.1057 0.0
C330 C 0.59202 0.48362 0.91903 0.0
C331 C 0.56064 0.50538 0.02169 0.0
O332 O 0.55553 0.48793 0.02082 0.0
O333 O 0.57816 0.51778 0.02117 0.0
O334 O 0.55843 0.45277 0.0673 0.0
O335 O 0.58479 0.47733 0.09707 0.0
O336 O 0.58195 0.8245 0.76229 0.0
Cd337 Cd 0.59616 0.841 0.8285 0.0
Cd338 Cd 0.59037 0.80713 0.8637 0.0
O339 O 0.57492 0.79662 0.79449 0.0
O340 O 0.59239 0.86349 0.82637 0.0
O341 O 0.58219 0.84283 0.89306 0.0
C342 C 0.58355 0.85785 0.87157 0.0
C343 C 0.57926 0.79117 0.94523 0.0
C344 C 0.57429 0.80667 0.75659 0.0
C345 C 0.63078 0.83781 0.84261 0.0
O346 O 0.61924 0.82066 0.85411 0.0
O347 O 0.62475 0.84923 0.83361 0.0
O348 O 0.58494 0.78451 0.90713 0.0
O349 O 0.57917 0.80668 0.93627 0.0
O350 O 0.1955 0.7598 0.77942 0.0
Cd351 Cd 0.18343 0.75886 0.85333 0.0
Cd352 Cd 0.21904 0.7865 0.87415 0.0
O353 O 0.22539 0.77898 0.80076 0.0
O354 O 0.15995 0.73329 0.85989 0.0
O355 O 0.18553 0.74219 0.90911 0.0
C356 C 0.16877 0.72912 0.89537 0.0
C357 C 0.23542 0.79003 0.95431 0.0
C358 C 0.21293 0.7684 0.7667 0.0
C359 C 0.18934 0.79791 0.8693 0.0
O360 O 0.20682 0.80319 0.86977 0.0
O361 O 0.17707 0.78033 0.86762 0.0
O362 O 0.24281 0.80208 0.9157 0.0
O363 O 0.21914 0.7752 0.94593 0.0
O364 O 0.26439 0.44201 0.77369 0.0
Cd365 Cd 0.26615 0.42932 0.84399 0.0
Cd366 Cd 0.23915 0.43696 0.87505 0.0
O367 O 0.24572 0.45211 0.80486 0.0
O368 O 0.29084 0.4296 0.84497 0.0
O369 O 0.28399 0.4462 0.90178 0.0
C370 C 0.29591 0.44142 0.88441 0.0
C371 C 0.23532 0.44908 0.9561 0.0
C372 C 0.25552 0.45096 0.76689 0.0
C373 C 0.22735 0.39601 0.86028 0.0
O374 O 0.22218 0.40818 0.86656 0.0
O375 O 0.24481 0.40134 0.85507 0.0
O376 O 0.22319 0.44429 0.91775 0.0
O377 O 0.25025 0.44786 0.94741 0.0
O378 O 0.50233 0.91403 0.08386 0.0
Cd379 Cd 0.51539 0.92682 1.01227 0.0
Cd380 Cd 0.47984 0.91897 0.99078 0.0
O381 O 0.4727 0.90472 0.06341 0.0
O382 O 0.53856 0.9242 1.00886 0.0
O383 O 0.51552 0.91137 0.94899 0.0
C384 C 0.53146 0.91385 0.9666 0.0
C385 C 0.46376 0.90666 0.90962 0.0
C386 C 0.48495 0.90577 0.09687 0.0
C387 C 0.50982 0.96017 1.00145 0.0
O388 O 0.4924 0.94789 0.99753 0.0
O389 O 0.52214 0.95499 1.00416 0.0
O390 O 0.45636 0.91132 0.94829 0.0
O391 O 0.47991 0.90788 0.9183 0.0
O392 O 0.11218 0.59001 0.09566 0.0
Cd393 Cd 0.0995 0.59072 0.02448 0.0
Cd394 Cd 0.11237 0.5678 0.99261 0.0
O395 O 0.1266 0.57523 0.06446 0.0
O396 O 0.0974 0.61419 0.02328 0.0
O397 O 0.1166 0.60989 0.96974 0.0
C398 C 0.1103 0.62068 0.98659 0.0
C399 C 0.12644 0.56634 0.91265 0.0
C400 C 0.1232 0.58342 0.10276 0.0
C401 C 0.07017 0.55045 1.00252 0.0
O402 O 0.08417 0.5479 0.99689 0.0
O403 O 0.07291 0.56708 1.00988 0.0
O404 O 0.12284 0.55435 0.95074 0.0
O405 O 0.12314 0.58002 0.92141 0.0
O406 O 0.43677 0.53166 0.09774 0.0
Cd407 Cd 0.4328 0.5159 0.02845 0.0
Cd408 Cd 0.45988 0.54988 0.99167 0.0
O409 O 0.45545 0.55996 0.06323 0.0
O410 O 0.40663 0.49285 0.02822 0.0
O411 O 0.41557 0.51701 0.97301 0.0
C412 C 0.40241 0.50087 0.99036 0.0
C413 C 0.4589 0.56127 0.90628 0.0
C414 C 0.44624 0.54958 0.1029 0.0
C415 C 0.47083 0.52009 1.00513 0.0
O416 O 0.47631 0.53746 0.99783 0.0
O417 O 0.45337 0.50833 0.01326 0.0
O418 O 0.47297 0.57087 0.93821 0.0
O419 O 0.44494 0.54572 0.92416 0.0
O420 O 0.11558 0.53052 0.59549 0.0
Cd421 Cd 0.10349 0.51559 0.52521 0.0
Cd422 Cd 0.10963 0.54963 0.49322 0.0
O423 O 0.12435 0.55894 0.56381 0.0
O424 O 0.10701 0.49293 0.52201 0.0
O425 O 0.1215 0.51736 0.4671 0.0
C426 C 0.11891 0.50122 0.48342 0.0
C427 C 0.12186 0.56615 0.41335 0.0
C428 C 0.12383 0.54837 0.60191 0.0
C429 C 0.06905 0.51895 0.50601 0.0
O430 O 0.0807 0.53643 0.4995 0.0
O431 O 0.07508 0.50742 0.51284 0.0
O432 O 0.11605 0.57277 0.45121 0.0
O433 O 0.12153 0.5504 0.42189 0.0
O434 O 0.50542 0.59237 0.58774 0.0
Cd435 Cd 0.51555 0.59136 0.51247 0.0
Cd436 Cd 0.47866 0.56803 0.49365 0.0
O437 O 0.47495 0.57687 0.56855 0.0
O438 O 0.54121 0.61447 0.5037 0.0
O439 O 0.51602 0.60996 0.45843 0.0
C440 C 0.53367 0.62072 0.47 0.0
C441 C 0.46316 0.56757 0.4145 0.0
C442 C 0.48831 0.586 0.6019 0.0
C443 C 0.50329 0.55046 0.49411 0.0
O444 O 0.48663 0.54784 0.49455 0.0
O445 O 0.51744 0.56718 0.49673 0.0
O446 O 0.45437 0.55581 0.45295 0.0
O447 O 0.48044 0.58063 0.42289 0.0
O448 O 0.43438 0.91398 0.59196 0.0
Cd449 Cd 0.43016 0.92503 0.52174 0.0
Cd450 Cd 0.45709 0.9177 0.48546 0.0
O451 O 0.45255 0.90363 0.55796 0.0
O452 O 0.404 0.92201 0.52088 0.0
O453 O 0.41273 0.90608 0.46755 0.0
C454 C 0.39965 0.90932 0.48407 0.0
C455 C 0.45548 0.90485 0.39994 0.0
C456 C 0.44371 0.90544 0.59772 0.0
C457 C 0.4684 0.95858 0.4978 0.0
O458 O 0.47381 0.9466 0.49119 0.0
O459 O 0.45094 0.95298 0.50528 0.0
O460 O 0.46954 0.90904 0.43158 0.0
O461 O 0.44189 0.90699 0.41818 0.0
O462 O 0.19998 0.44191 0.27479 0.0
Cd463 Cd 0.18547 0.43001 0.34568 0.0
Cd464 Cd 0.22017 0.43725 0.37719 0.0
O465 O 0.22869 0.45138 0.30527 0.0
O466 O 0.16105 0.43033 0.34457 0.0
O467 O 0.18425 0.44747 0.40136 0.0
C468 C 0.16763 0.44252 0.3831 0.0
C469 C 0.23684 0.45015 0.45671 0.0
C470 C 0.21778 0.45029 0.26739 0.0
C471 C 0.19032 0.39637 0.36636 0.0
O472 O 0.20773 0.40831 0.37246 0.0
O473 O 0.17853 0.40204 0.35918 0.0
O474 O 0.24366 0.44461 0.41865 0.0
O475 O 0.22083 0.44929 0.44842 0.0
O476 O 0.58502 0.76181 0.26348 0.0
Cd477 Cd 0.59592 0.75866 0.33536 0.0
Cd478 Cd 0.58763 0.78504 0.36721 0.0
O479 O 0.57386 0.7796 0.29466 0.0
O480 O 0.59337 0.73286 0.33748 0.0
O481 O 0.57719 0.74144 0.39045 0.0
C482 C 0.58069 0.72845 0.37429 0.0
C483 C 0.57417 0.78804 0.4469 0.0
C484 C 0.57604 0.77063 0.25612 0.0
C485 C 0.62887 0.79696 0.35844 0.0
O486 O 0.61654 0.80197 0.3633 0.0
O487 O 0.62372 0.77957 0.35171 0.0
O488 O 0.5796 0.80057 0.40949 0.0
O489 O 0.5755 0.77318 0.43789 0.0
O490 O 0.26111 0.82578 0.27217 0.0
Cd491 Cd 0.26267 0.8403 0.34217 0.0
Cd492 Cd 0.24024 0.80499 0.37924 0.0
O493 O 0.24599 0.7969 0.30589 0.0
O494 O 0.28624 0.86604 0.34227 0.0
O495 O 0.28201 0.8429 0.39673 0.0
C496 C 0.29273 0.85992 0.37962 0.0
C497 C 0.24346 0.79456 0.46386 0.0
C498 C 0.25384 0.80798 0.26626 0.0
C499 C 0.22252 0.82934 0.36811 0.0
O500 O 0.22008 0.81295 0.3765 0.0
O501 O 0.23898 0.84305 0.35748 0.0
O502 O 0.23004 0.78354 0.43166 0.0
O503 O 0.25584 0.81104 0.44628 0.0
H504 H 0.23344 0.10135 0.89032 0.0
H505 H 0.24266 0.15549 0.8363 0.0
H506 H 0.23917 0.16379 0.92802 0.0
H507 H 0.2381 0.15758 0.02451 0.0
H508 H 0.22966 0.10381 0.0793 0.0
H509 H 0.22777 0.09336 0.98647 0.0
C510 C 0.23435 0.11482 0.89848 0.0
C511 C 0.23865 0.1279 0.8566 0.0
C512 C 0.23257 0.11965 0.9516 0.0
C513 C 0.23958 0.14522 0.86781 0.0
C514 C 0.23762 0.15002 0.92034 0.0
C515 C 0.23543 0.14341 0.01628 0.0
C516 C 0.2344 0.13167 0.05896 0.0
C517 C 0.2348 0.13763 0.96277 0.0
C518 C 0.2307 0.11326 0.04735 0.0
C519 C 0.22974 0.10729 0.99416 0.0
H520 H 0.92338 0.13593 0.85369 0.0
H521 H 0.87097 0.08892 0.79685 0.0
H522 H 0.86193 0.07773 0.88874 0.0
H523 H 0.86683 0.08374 0.98558 0.0
H524 H 0.9189 0.13097 0.04317 0.0
H525 H 0.93024 0.13933 0.95088 0.0
C526 C 0.91015 0.12303 0.86127 0.0
C527 C 0.89776 0.11347 0.81835 0.0
C528 C 0.90487 0.11676 0.91452 0.0
C529 C 0.88074 0.09668 0.82901 0.0
C530 C 0.8755 0.09028 0.88168 0.0
C531 C 0.88082 0.09565 0.97809 0.0
C532 C 0.89184 0.10686 0.02136 0.0
C533 C 0.88714 0.10058 0.92485 0.0
C534 C 0.91004 0.1221 1.01077 0.0
C535 C 0.91651 0.12699 0.95787 0.0
H536 H 0.89576 0.78858 0.03339 0.0
H537 H 0.94885 0.79066 1.00499 0.0
H538 H 0.94546 0.79322 0.90857 0.0
H539 H 0.92537 0.79022 0.8319 0.0
H540 H 0.87169 0.78692 0.85946 0.0
H541 H 0.87749 0.78974 0.95623 0.0
C542 C 0.90682 0.79008 1.00624 0.0
C543 C 0.92243 0.78919 0.02648 0.0
C544 C 0.90455 0.79106 0.95044 0.0
C545 C 0.93659 0.79111 0.99057 0.0
C546 C 0.93464 0.7925 0.9353 0.0
C547 C 0.91508 0.79047 0.85895 0.0
C548 C 0.89801 0.78808 0.83838 0.0
C549 C 0.91834 0.79174 0.91466 0.0
C550 C 0.88491 0.7886 0.8741 0.0
C551 C 0.88818 0.79014 0.92957 0.0
H552 H 0.15849 0.23091 0.52966 0.0
H553 H 0.10741 0.22816 0.47213 0.0
H554 H 0.09629 0.22591 0.56441 0.0
H555 H 0.10317 0.22938 0.66162 0.0
H556 H 0.15452 0.23254 0.71843 0.0
H557 H 0.16324 0.22978 0.62656 0.0
C558 C 0.14474 0.22943 0.53714 0.0
C559 C 0.13397 0.23001 0.49384 0.0
C560 C 0.13854 0.22846 0.59042 0.0
C561 C 0.11609 0.22785 0.5045 0.0
C562 C 0.10975 0.2267 0.55742 0.0
C563 C 0.11609 0.22909 0.65402 0.0
C564 C 0.1283 0.23147 0.69697 0.0
C565 C 0.12118 0.22771 0.60076 0.0
C566 C 0.14491 0.23091 0.68628 0.0
C567 C 0.14996 0.22939 0.63361 0.0
H568 H 0.79458 0.89414 0.4871 0.0
H569 H 0.79231 0.9453 0.5104 0.0
H570 H 0.79555 0.94336 0.60714 0.0
H571 H 0.79461 0.92488 0.68598 0.0
H572 H 0.79601 0.87323 0.66333 0.0
H573 H 0.79779 0.87778 0.56615 0.0
C574 C 0.79527 0.90512 0.51318 0.0
C575 C 0.79297 0.91971 0.49131 0.0
C576 C 0.79673 0.90371 0.56929 0.0
C577 C 0.79385 0.93378 0.52598 0.0
C578 C 0.79564 0.93266 0.58149 0.0
C579 C 0.7957 0.91481 0.65991 0.0
C580 C 0.79494 0.89862 0.68214 0.0
C581 C 0.7964 0.91732 0.60378 0.0
C582 C 0.79643 0.88577 0.64752 0.0
C583 C 0.79738 0.88832 0.59175 0.0
H584 H 0.10519 0.87563 0.68482 0.0
H585 H 0.15666 0.92876 0.66119 0.0
H586 H 0.15088 0.92658 0.56445 0.0
H587 H 0.1334 0.90747 0.48567 0.0
H588 H 0.08268 0.85374 0.51001 0.0
H589 H 0.08578 0.85846 0.60707 0.0
C590 C 0.115 0.8869 0.65866 0.0
C591 C 0.13146 0.90219 0.68024 0.0
C592 C 0.11176 0.88541 0.60295 0.0
C593 C 0.14393 0.91674 0.6457 0.0
C594 C 0.14066 0.91549 0.59026 0.0
C595 C 0.12276 0.89705 0.51217 0.0
C596 C 0.10794 0.8802 0.49059 0.0
C597 C 0.12493 0.89959 0.56824 0.0
C598 C 0.09433 0.86677 0.52556 0.0
C599 C 0.09613 0.86941 0.58114 0.0
H600 H 0.7904 0.87703 0.18737 0.0
H601 H 0.79167 0.92994 0.16416 0.0
H602 H 0.79435 0.92733 0.06708 0.0
H603 H 0.79266 0.90821 0.98797 0.0
H604 H 0.79019 0.85474 1.01201 0.0
H605 H 0.79192 0.85954 0.10903 0.0
C606 C 0.79158 0.88816 0.16123 0.0
C607 C 0.79067 0.90357 0.18324 0.0
C608 C 0.79278 0.88641 0.10523 0.0
C609 C 0.79225 0.91787 0.14851 0.0
C610 C 0.79373 0.91636 0.09282 0.0
C611 C 0.79293 0.8978 0.01436 0.0
C612 C 0.79115 0.88106 0.99249 0.0
C613 C 0.79348 0.90044 0.07056 0.0
C614 C 0.7914 0.86769 0.02754 0.0
C615 C 0.79233 0.87039 0.08319 0.0
H616 H 0.10401 0.88157 0.15343 0.0
H617 H 0.15447 0.93075 0.21125 0.0
H618 H 0.16366 0.94182 0.1194 0.0
H619 H 0.1598 0.93524 0.02262 0.0
H620 H 0.10958 0.886 0.9641 0.0
H621 H 0.09778 0.87755 0.0559 0.0
C622 C 0.11681 0.89491 0.14603 0.0
C623 C 0.12867 0.90511 0.18929 0.0
C624 C 0.12219 0.90115 0.09279 0.0
C625 C 0.14513 0.92247 0.17885 0.0
C626 C 0.15047 0.92881 0.12619 0.0
C627 C 0.14609 0.92287 0.02977 0.0
C628 C 0.13578 0.91113 0.98644 0.0
C629 C 0.13948 0.91791 0.0828 0.0
C630 C 0.11791 0.89529 0.99656 0.0
C631 C 0.11118 0.89034 0.04921 0.0
H632 H 0.12874 0.23073 0.99144 0.0
H633 H 0.08153 0.2396 0.01731 0.0
H634 H 0.08447 0.23753 0.11422 0.0
H635 H 0.10284 0.23724 0.19162 0.0
H636 H 0.15082 0.22963 0.1662 0.0
H637 H 0.14503 0.22695 0.06945 0.0
C638 C 0.11883 0.2318 0.01818 0.0
C639 C 0.10506 0.23552 0.99697 0.0
C640 C 0.12087 0.23105 0.07415 0.0
C641 C 0.09237 0.2369 0.0324 0.0
C642 C 0.09407 0.23578 0.08795 0.0
C643 C 0.11185 0.23468 0.16506 0.0
C644 C 0.12737 0.23386 0.18621 0.0
C645 C 0.10866 0.23351 0.10931 0.0
C646 C 0.13884 0.23043 0.1511 0.0
C647 C 0.13557 0.22896 0.09564 0.0
H648 H 0.92291 0.79108 0.3628 0.0
H649 H 0.86875 0.77996 0.30313 0.0
H650 H 0.85851 0.78116 0.3943 0.0
H651 H 0.86345 0.78155 0.4916 0.0
H652 H 0.91748 0.7926 0.55201 0.0
H653 H 0.92926 0.79557 0.46026 0.0
C654 C 0.90899 0.78925 0.36963 0.0
C655 C 0.89656 0.78517 0.32605 0.0
C656 C 0.90307 0.78981 0.42251 0.0
C657 C 0.87861 0.78298 0.33577 0.0
C658 C 0.87268 0.78361 0.38805 0.0
C659 C 0.87792 0.78494 0.48482 0.0
C660 C 0.88943 0.78658 0.52885 0.0
C661 C 0.88457 0.78643 0.43185 0.0
C662 C 0.90822 0.79118 0.51907 0.0
C663 C 0.91496 0.79277 0.46647 0.0
H664 H 0.24063 0.08576 0.52391 0.0
H665 H 0.22934 0.12921 0.57965 0.0
H666 H 0.22674 0.13731 0.48701 0.0
H667 H 0.2325 0.13528 0.39069 0.0
H668 H 0.24451 0.09225 0.33568 0.0
H669 H 0.24185 0.08074 0.4273 0.0
C670 C 0.2372 0.09673 0.51593 0.0
C671 C 0.23555 0.10707 0.55881 0.0
C672 C 0.23613 0.10162 0.46252 0.0
C673 C 0.23086 0.12109 0.54754 0.0
C674 C 0.22949 0.12584 0.49446 0.0
C675 C 0.2342 0.12318 0.39861 0.0
C676 C 0.23904 0.11488 0.35646 0.0
C677 C 0.23288 0.11673 0.45167 0.0
C678 C 0.24099 0.09907 0.36738 0.0
C679 C 0.23951 0.09247 0.41986 0.0
H680 H 0.89589 0.11227 0.52405 0.0
H681 H 0.94537 0.16686 0.49769 0.0
H682 H 0.94223 0.16157 0.40086 0.0
H683 H 0.92331 0.14329 0.32366 0.0
H684 H 0.87304 0.08929 0.34925 0.0
H685 H 0.87876 0.09241 0.44611 0.0
C686 C 0.90623 0.12284 0.4972 0.0
C687 C 0.92074 0.14003 0.51823 0.0
C688 C 0.90408 0.11991 0.44126 0.0
C689 C 0.93396 0.15358 0.4827 0.0
C690 C 0.93215 0.15059 0.42722 0.0
C691 C 0.91376 0.13204 0.35027 0.0
C692 C 0.89765 0.11618 0.32915 0.0
C693 C 0.91692 0.1341 0.40601 0.0
C694 C 0.88549 0.10171 0.36434 0.0
C695 C 0.88872 0.10351 0.41984 0.0
H696 H 0.89691 0.43239 0.19991 0.0
H697 H 0.90292 0.48511 0.14426 0.0
H698 H 0.9025 0.49479 0.2368 0.0
H699 H 0.90505 0.49025 0.33341 0.0
H700 H 0.89916 0.43758 0.38913 0.0
H701 H 0.89466 0.42591 0.29695 0.0
C702 C 0.89772 0.44582 0.20794 0.0
C703 C 0.90025 0.45811 0.16513 0.0
C704 C 0.89772 0.45145 0.26143 0.0
C705 C 0.90108 0.47539 0.17634 0.0
C706 C 0.90096 0.48102 0.22937 0.0
C707 C 0.90245 0.47608 0.32553 0.0
C708 C 0.90279 0.46497 0.36819 0.0
C709 C 0.90002 0.46948 0.27225 0.0
C710 C 0.89911 0.44654 0.35719 0.0
C711 C 0.89662 0.43985 0.30435 0.0
H712 H 0.59315 0.47302 0.19474 0.0
H713 H 0.53909 0.42848 0.13848 0.0
H714 H 0.53007 0.41694 0.23004 0.0
H715 H 0.53586 0.42189 0.32703 0.0
H716 H 0.58987 0.4662 0.38401 0.0
H717 H 0.60064 0.47512 0.29148 0.0
C718 C 0.57954 0.46058 0.20238 0.0
C719 C 0.56673 0.45184 0.15973 0.0
C720 C 0.57434 0.45401 0.25545 0.0
C721 C 0.54921 0.43561 0.17042 0.0
C722 C 0.54398 0.42901 0.22292 0.0
C723 C 0.55012 0.43327 0.31925 0.0
C724 C 0.56191 0.4435 0.36253 0.0
C725 C 0.55617 0.43846 0.26591 0.0
C726 C 0.58044 0.45807 0.3516 0.0
C727 C 0.58658 0.4633 0.29859 0.0
H728 H 0.56163 0.12279 0.3648 0.0
H729 H 0.61211 0.11952 0.33898 0.0
H730 H 0.60946 0.12227 0.24226 0.0
H731 H 0.59081 0.12173 0.16434 0.0
H732 H 0.53962 0.12372 0.18945 0.0
H733 H 0.5447 0.1256 0.28651 0.0
C734 C 0.57229 0.1231 0.33813 0.0
C735 C 0.58696 0.12079 0.35938 0.0
C736 C 0.57045 0.12425 0.28208 0.0
C737 C 0.60057 0.12112 0.32394 0.0
C738 C 0.59905 0.12264 0.26845 0.0
C739 C 0.58094 0.12294 0.19091 0.0
C740 C 0.56477 0.12243 0.16939 0.0
C741 C 0.58373 0.12362 0.24692 0.0
C742 C 0.55215 0.124 0.2047 0.0
C743 C 0.55501 0.125 0.26038 0.0
H744 H 0.83538 0.5691 0.86117 0.0
H745 H 0.78146 0.55924 0.8032 0.0
H746 H 0.7699 0.55568 0.89531 0.0
H747 H 0.77655 0.55965 0.99251 0.0
H748 H 0.83053 0.56958 0.05008 0.0
H749 H 0.84041 0.56856 0.95826 0.0
C750 C 0.82097 0.56582 0.86856 0.0
C751 C 0.80945 0.56475 0.82516 0.0
C752 C 0.81443 0.56398 0.92178 0.0
C753 C 0.79073 0.56026 0.83566 0.0
C754 C 0.78411 0.55832 0.88847 0.0
C755 C 0.79033 0.56122 0.98509 0.0
C756 C 0.80285 0.56497 0.02823 0.0
C757 C 0.79605 0.56081 0.93191 0.0
C758 C 0.82061 0.56681 0.01777 0.0
C759 C 0.82634 0.56631 0.96513 0.0
H760 H 0.454 0.2725 0.85206 0.0
H761 H 0.46936 0.23199 0.79572 0.0
H762 H 0.47267 0.22429 0.88813 0.0
H763 H 0.46663 0.22567 0.98445 0.0
H764 H 0.45099 0.266 0.04048 0.0
H765 H 0.4526 0.27723 0.94896 0.0
C766 C 0.45845 0.26227 0.8599 0.0
C767 C 0.46105 0.2526 0.81688 0.0
C768 C 0.46006 0.25766 0.91325 0.0
C769 C 0.46707 0.23955 0.82794 0.0
C770 C 0.46887 0.23504 0.88089 0.0
C771 C 0.46391 0.23715 0.97677 0.0
C772 C 0.45836 0.24472 0.01916 0.0
C773 C 0.46467 0.24346 0.92382 0.0
C774 C 0.45512 0.25976 1.00858 0.0
C775 C 0.45597 0.26618 0.95614 0.0
H776 H 0.75692 0.19376 0.85995 0.0
H777 H 0.80207 0.24675 0.79979 0.0
H778 H 0.81081 0.25855 0.89148 0.0
H779 H 0.80831 0.25225 0.98892 0.0
H780 H 0.76307 0.19921 0.0486 0.0
H781 H 0.75165 0.18923 0.95731 0.0
C782 C 0.76845 0.20803 0.86678 0.0
C783 C 0.77897 0.2192 0.82285 0.0
C784 C 0.77356 0.21471 0.91977 0.0
C785 C 0.79374 0.23774 0.83265 0.0
C786 C 0.79885 0.2445 0.88523 0.0
C787 C 0.79573 0.23866 0.98208 0.0
C788 C 0.78676 0.22642 0.02568 0.0
C789 C 0.78927 0.23287 0.92916 0.0
C790 C 0.77038 0.20891 0.01594 0.0
C791 C 0.76385 0.20312 0.96359 0.0
H792 H 0.465 0.2571 0.48474 0.0
H793 H 0.45511 0.20287 0.54006 0.0
H794 H 0.4575 0.19386 0.44823 0.0
H795 H 0.45779 0.19959 0.35148 0.0
H796 H 0.46733 0.25367 0.29579 0.0
H797 H 0.47007 0.26459 0.38833 0.0
C798 C 0.46372 0.24346 0.47683 0.0
C799 C 0.45952 0.23057 0.51912 0.0
C800 C 0.4649 0.23824 0.42371 0.0
C801 C 0.45814 0.21302 0.50824 0.0
C802 C 0.45945 0.2078 0.45564 0.0
C803 C 0.46085 0.2139 0.35949 0.0
C804 C 0.46197 0.22562 0.31667 0.0
C805 C 0.46212 0.22002 0.41289 0.0
C806 C 0.46622 0.24423 0.32788 0.0
C807 C 0.46768 0.25049 0.3809 0.0
H808 H 0.8164 0.25299 0.5204 0.0
H809 H 0.76212 0.20325 0.49308 0.0
H810 H 0.76563 0.20915 0.39637 0.0
H811 H 0.78587 0.22619 0.31904 0.0
H812 H 0.84076 0.27506 0.347 0.0
H813 H 0.83511 0.27188 0.44369 0.0
C814 C 0.80517 0.24361 0.49344 0.0
C815 C 0.78911 0.22758 0.51407 0.0
C816 C 0.80746 0.24685 0.43774 0.0
C817 C 0.77469 0.21563 0.4784 0.0
C818 C 0.77671 0.21896 0.42297 0.0
C819 C 0.79643 0.23639 0.34619 0.0
C820 C 0.8138 0.25074 0.32565 0.0
C821 C 0.7933 0.2342 0.40206 0.0
C822 C 0.82733 0.26378 0.3616 0.0
C823 C 0.82415 0.26195 0.417 0.0
H824 H 0.77448 0.56721 0.52232 0.0
H825 H 0.82449 0.56305 0.49678 0.0
H826 H 0.81882 0.56037 0.39996 0.0
H827 H 0.80198 0.56335 0.32205 0.0
H828 H 0.75285 0.56903 0.34812 0.0
H829 H 0.75573 0.56671 0.44495 0.0
C830 C 0.78397 0.56537 0.49573 0.0
C831 C 0.8 0.56555 0.51685 0.0
C832 C 0.78087 0.56427 0.43995 0.0
C833 C 0.81209 0.56309 0.48168 0.0
C834 C 0.8089 0.56162 0.4262 0.0
C835 C 0.79165 0.56366 0.34882 0.0
C836 C 0.77734 0.56657 0.32774 0.0
C837 C 0.79367 0.5628 0.40475 0.0
C838 C 0.76412 0.56699 0.36316 0.0
C839 C 0.76578 0.56571 0.41865 0.0
H840 H 0.54256 0.11887 0.66453 0.0
H841 H 0.59781 0.1255 0.68821 0.0
H842 H 0.59481 0.12784 0.78517 0.0
H843 H 0.57494 0.12417 0.86408 0.0
H844 H 0.51924 0.11637 0.83995 0.0
H845 H 0.5241 0.11859 0.74295 0.0
C846 C 0.55411 0.12118 0.69076 0.0
C847 C 0.57032 0.12183 0.6689 0.0
C848 C 0.55215 0.12215 0.74678 0.0
C849 C 0.58511 0.12484 0.70374 0.0
C850 C 0.58339 0.12612 0.75937 0.0
C851 C 0.56403 0.12337 0.8377 0.0
C852 C 0.54668 0.11993 0.85953 0.0
C853 C 0.56674 0.12424 0.78153 0.0
C854 C 0.53268 0.11886 0.82446 0.0
C855 C 0.53542 0.12007 0.76881 0.0
H856 H 0.9087 0.43122 0.671 0.0
H857 H 0.89933 0.47828 0.69327 0.0
H858 H 0.89614 0.47265 0.79005 0.0
H859 H 0.9003 0.45709 0.86917 0.0
H860 H 0.91134 0.41114 0.84658 0.0
H861 H 0.90928 0.41342 0.74939 0.0
C862 C 0.9056 0.44003 0.69686 0.0
C863 C 0.90449 0.45528 0.67492 0.0
C864 C 0.90423 0.437 0.75266 0.0
C865 C 0.90041 0.46652 0.70909 0.0
C866 C 0.89863 0.46335 0.76454 0.0
C867 C 0.90181 0.44729 0.84304 0.0
C868 C 0.90617 0.4341 0.86516 0.0
C869 C 0.90115 0.44903 0.78696 0.0
C870 C 0.90816 0.42155 0.83064 0.0
C871 C 0.90704 0.42288 0.77498 0.0
H872 H 0.59808 0.48048 0.668 0.0
H873 H 0.55032 0.42471 0.69381 0.0
H874 H 0.55506 0.42881 0.79086 0.0
H875 H 0.56998 0.44988 0.86829 0.0
H876 H 0.61672 0.50623 0.84185 0.0
H877 H 0.61528 0.50015 0.74551 0.0
C878 C 0.58895 0.46904 0.69475 0.0
C879 C 0.57375 0.4524 0.67357 0.0
C880 C 0.59143 0.47169 0.75064 0.0
C881 C 0.56207 0.43773 0.70895 0.0
C882 C 0.56471 0.44009 0.76456 0.0
C883 C 0.58011 0.4607 0.84162 0.0
C884 C 0.59328 0.47858 0.86237 0.0
C885 C 0.57892 0.45727 0.7859 0.0
C886 C 0.60629 0.49241 0.82706 0.0
C887 C 0.60547 0.48896 0.77183 0.0
H888 H 0.57078 0.82359 0.66665 0.0
H889 H 0.56306 0.77046 0.72496 0.0
H890 H 0.5597 0.75884 0.633 0.0
H891 H 0.56408 0.76569 0.53609 0.0
H892 H 0.57249 0.81913 0.4783 0.0
H893 H 0.57022 0.82852 0.56976 0.0
C894 C 0.56796 0.80932 0.6594 0.0
C895 C 0.56757 0.7981 0.70273 0.0
C896 C 0.56642 0.80282 0.60631 0.0
C897 C 0.56362 0.77952 0.69247 0.0
C898 C 0.56181 0.77287 0.63976 0.0
C899 C 0.56503 0.77923 0.54338 0.0
C900 C 0.56882 0.79181 0.50047 0.0
C901 C 0.56399 0.7847 0.59632 0.0
C902 C 0.5698 0.80922 0.51059 0.0
C903 C 0.56856 0.81466 0.56298 0.0
H904 H 0.21637 0.76348 0.51563 0.0
H905 H 0.26971 0.81453 0.5414 0.0
H906 H 0.26617 0.80942 0.63843 0.0
H907 H 0.24588 0.79284 0.71601 0.0
H908 H 0.19173 0.74281 0.68947 0.0
H909 H 0.19777 0.74501 0.59298 0.0
C910 C 0.22743 0.77329 0.54234 0.0
C911 C 0.24318 0.78947 0.52119 0.0
C912 C 0.22506 0.77056 0.59818 0.0
C913 C 0.25737 0.80202 0.55652 0.0
C914 C 0.25532 0.79914 0.61212 0.0
C915 C 0.23558 0.78218 0.68926 0.0
C916 C 0.21828 0.7678 0.71001 0.0
C917 C 0.23891 0.78382 0.63347 0.0
C918 C 0.20508 0.75414 0.67463 0.0
C919 C 0.2085 0.75541 0.61935 0.0
H920 H 0.22626 0.46223 0.5455 0.0
H921 H 0.26811 0.44893 0.4881 0.0
H922 H 0.27957 0.45074 0.57943 0.0
H923 H 0.27463 0.45145 0.67646 0.0
H924 H 0.23261 0.46449 0.73419 0.0
H925 H 0.22465 0.4678 0.64208 0.0
C926 C 0.23812 0.4601 0.55284 0.0
C927 C 0.24605 0.4551 0.51011 0.0
C928 C 0.24456 0.46095 0.6057 0.0
C929 C 0.26158 0.45261 0.52027 0.0
C930 C 0.26813 0.45357 0.57259 0.0
C931 C 0.264 0.4554 0.66899 0.0
C932 C 0.254 0.45733 0.71228 0.0
C933 C 0.25926 0.45702 0.61581 0.0
C934 C 0.24045 0.46272 0.70174 0.0
C935 C 0.23578 0.46453 0.64896 0.0
H936 H 0.4521 0.89759 0.14794 0.0
H937 H 0.50623 0.90183 0.17455 0.0
H938 H 0.50081 0.89959 0.27131 0.0
H939 H 0.48276 0.90086 0.34859 0.0
H940 H 0.42911 0.8977 0.32232 0.0
H941 H 0.43221 0.89487 0.22563 0.0
C942 C 0.46252 0.89756 0.17477 0.0
C943 C 0.47966 0.90012 0.15383 0.0
C944 C 0.45952 0.89673 0.23071 0.0
C945 C 0.49299 0.90007 0.18942 0.0
C946 C 0.48994 0.89887 0.24491 0.0
C947 C 0.47157 0.89921 0.32185 0.0
C948 C 0.45585 0.89975 0.34278 0.0
C949 C 0.47359 0.89791 0.26608 0.0
C950 C 0.44145 0.89748 0.30742 0.0
C951 C 0.44323 0.89591 0.25198 0.0
H952 H 0.12176 0.60203 0.19177 0.0
H953 H 0.13873 0.56251 0.13754 0.0
H954 H 0.14223 0.55533 0.23041 0.0
H955 H 0.13569 0.55666 0.32636 0.0
H956 H 0.11849 0.59605 0.38017 0.0
H957 H 0.12011 0.607 0.28833 0.0
C958 C 0.12659 0.59213 0.20022 0.0
C959 C 0.12959 0.58256 0.15775 0.0
C960 C 0.12832 0.58784 0.25374 0.0
C961 C 0.13616 0.57 0.16942 0.0
C962 C 0.13805 0.56577 0.2226 0.0
C963 C 0.13265 0.56789 0.31812 0.0
C964 C 0.12662 0.57524 0.3599 0.0
C965 C 0.13342 0.57403 0.26502 0.0
C966 C 0.12298 0.58998 0.34869 0.0
C967 C 0.12383 0.59623 0.29609 0.0
H968 H 0.4251 0.53344 0.19258 0.0
H969 H 0.4734 0.58479 0.13568 0.0
H970 H 0.48167 0.59618 0.22789 0.0
H971 H 0.47776 0.58951 0.32503 0.0
H972 H 0.42937 0.53814 0.38156 0.0
H973 H 0.41848 0.52904 0.28943 0.0
C974 C 0.43723 0.54729 0.20025 0.0
C975 C 0.44877 0.55807 0.15723 0.0
C976 C 0.44203 0.55371 0.25349 0.0
C977 C 0.46429 0.57611 0.16792 0.0
C978 C 0.46912 0.58261 0.22078 0.0
C979 C 0.46461 0.57652 0.3173 0.0
C980 C 0.45459 0.5644 0.36021 0.0
C981 C 0.45848 0.57123 0.26398 0.0
C982 C 0.43748 0.54771 0.34941 0.0
C983 C 0.43126 0.54241 0.29659 0.0
H984 H 0.1352 0.58874 0.82407 0.0
H985 H 0.12892 0.53587 0.87938 0.0
H986 H 0.13015 0.52655 0.78705 0.0
H987 H 0.12804 0.53132 0.69052 0.0
H988 H 0.13421 0.58414 0.63511 0.0
H989 H 0.1383 0.59561 0.72732 0.0
C990 C 0.13451 0.57536 0.816 0.0
C991 C 0.13159 0.56288 0.85849 0.0
C992 C 0.13498 0.56994 0.76266 0.0
C993 C 0.13098 0.54569 0.84741 0.0
C994 C 0.13158 0.54028 0.79452 0.0
C995 C 0.13064 0.54548 0.6985 0.0
C996 C 0.1304 0.55666 0.65601 0.0
C997 C 0.1328 0.55196 0.75176 0.0
C998 C 0.13412 0.57511 0.66703 0.0
C999 C 0.13638 0.58169 0.71987 0.0
H1000 H 0.48831 0.59021 0.85372 0.0
H1001 H 0.43134 0.54433 0.83004 0.0
H1002 H 0.43455 0.54977 0.73315 0.0
H1003 H 0.45492 0.56481 0.6546 0.0
H1004 H 0.51243 0.60955 0.67865 0.0
H1005 H 0.50751 0.60748 0.77569 0.0
C1006 C 0.47646 0.58162 0.82752 0.0
C1007 C 0.45969 0.56675 0.84915 0.0
C1008 C 0.47855 0.58453 0.77168 0.0
C1009 C 0.44447 0.55579 0.8145 0.0
C1010 C 0.44631 0.55886 0.75899 0.0
C1011 C 0.46625 0.5744 0.68098 0.0
C1012 C 0.48408 0.58718 0.65931 0.0
C1013 C 0.46349 0.57278 0.73699 0.0
C1014 C 0.49862 0.59945 0.6942 0.0
C1015 C 0.49584 0.59825 0.74979 0.0
H1016 H 0.47604 0.89708 0.81885 0.0
H1017 H 0.43175 0.90645 0.87818 0.0
H1018 H 0.4202 0.90465 0.78693 0.0
H1019 H 0.42496 0.90429 0.68964 0.0
H1020 H 0.46925 0.89505 0.62967 0.0
H1021 H 0.47821 0.8926 0.72154 0.0
C1022 C 0.46366 0.8984 0.81193 0.0
C1023 C 0.45497 0.90216 0.85541 0.0
C1024 C 0.45713 0.89751 0.75905 0.0
C1025 C 0.43884 0.90368 0.8456 0.0
C1026 C 0.43223 0.90272 0.79329 0.0
C1027 C 0.43636 0.90141 0.69655 0.0
C1028 C 0.44655 0.90013 0.65261 0.0
C1029 C 0.44162 0.90023 0.74958 0.0
C1030 C 0.46116 0.89618 0.66254 0.0
C1031 C 0.4664 0.89488 0.7152 0.0
H1032 H 0.19922 0.45077 0.17707 0.0
H1033 H 0.25398 0.46271 0.23382 0.0
H1034 H 0.26509 0.46561 0.14149 0.0
H1035 H 0.25786 0.46031 0.04495 0.0
H1036 H 0.20301 0.44815 0.9885 0.0
H1037 H 0.19351 0.45002 0.08013 0.0
C1038 C 0.2137 0.45437 0.16933 0.0
C1039 C 0.22559 0.45615 0.21244 0.0
C1040 C 0.21996 0.45577 0.11603 0.0
C1041 C 0.24441 0.46108 0.20153 0.0
C1042 C 0.25078 0.46265 0.14863 0.0
C1043 C 0.24395 0.4584 0.05258 0.0
C1044 C 0.23108 0.45377 1.01 0.0
C1045 C 0.23846 0.45931 0.10558 0.0
C1046 C 0.21318 0.45156 0.02054 0.0
C1047 C 0.20767 0.45256 0.07303 0.0
H1048 H 0.56692 0.80145 0.03414 0.0
H1049 H 0.58173 0.76062 0.97702 0.0
H1050 H 0.57956 0.74886 0.06811 0.0
H1051 H 0.57744 0.75285 0.16501 0.0
H1052 H 0.56293 0.79383 0.22273 0.0
H1053 H 0.56063 0.80251 0.13053 0.0
C1054 C 0.56937 0.78978 0.04151 0.0
C1055 C 0.57478 0.78216 0.9989 0.0
C1056 C 0.56826 0.78314 0.09424 0.0
C1057 C 0.57771 0.7669 1.00908 0.0
C1058 C 0.57652 0.76016 0.06126 0.0
C1059 C 0.57343 0.76344 0.15749 0.0
C1060 C 0.57069 0.77287 0.20087 0.0
C1061 C 0.57241 0.76859 0.10434 0.0
C1062 C 0.56526 0.7864 0.19022 0.0
C1063 C 0.56405 0.79147 0.13742 0.0
H1064 H 0.27266 0.82658 0.17564 0.0
H1065 H 0.2303 0.77165 0.23286 0.0
H1066 H 0.22216 0.7604 0.14044 0.0
H1067 H 0.22411 0.76752 0.04356 0.0
H1068 H 0.26661 0.8225 0.98691 0.0
H1069 H 0.27772 0.83221 0.07859 0.0
C1070 C 0.2619 0.81203 0.16797 0.0
C1071 C 0.25194 0.8001 0.21126 0.0
C1072 C 0.25713 0.80569 0.11464 0.0
C1073 C 0.23819 0.78121 0.20045 0.0
C1074 C 0.23341 0.77478 0.14749 0.0
C1075 C 0.23603 0.7815 0.05115 0.0
C1076 C 0.24429 0.79434 1.00836 0.0
C1077 C 0.24232 0.7871 0.10426 0.0
C1078 C 0.25986 0.81234 0.01897 0.0
C1079 C 0.26621 0.81797 0.07153 0.0
H1080 H 0.21216 0.22735 0.37701 0.0
H1081 H 0.19906 0.24039 0.22075 0.0
H1082 H 0.2155 0.22574 0.17765 0.0
H1083 H 0.23311 0.20863 0.18429 0.0
H1084 H 0.24317 0.19244 0.34004 0.0
H1085 H 0.22846 0.20881 0.3835 0.0
C1086 C 0.21303 0.22706 0.33354 0.0
C1087 C 0.20459 0.23511 0.30205 0.0
C1088 C 0.22191 0.21798 0.309 0.0
C1089 C 0.20548 0.23432 0.24579 0.0
C1090 C 0.21488 0.22595 0.22115 0.0
C1091 C 0.23215 0.20879 0.22776 0.0
C1092 C 0.23938 0.19951 0.25897 0.0
C1093 C 0.22309 0.21767 0.25231 0.0
C1094 C 0.23773 0.1995 0.31519 0.0
C1095 C 0.22934 0.20888 0.34003 0.0
H1096 H 0.78451 0.97208 0.21423 0.0
H1097 H 0.78724 0.98973 0.37897 0.0
H1098 H 0.80441 0.02289 0.35146 0.0
H1099 H 0.81962 0.04705 0.28051 0.0
H1100 H 0.8139 0.02941 0.11494 0.0
H1101 H 0.79697 0.99621 0.14247 0.0
C1102 C 0.78877 0.98322 0.24393 0.0
C1103 C 0.78473 0.97849 0.29854 0.0
C1104 C 0.79817 1.00228 0.22763 0.0
C1105 C 0.79013 0.99302 0.33664 0.0
C1106 C 0.80003 0.012 0.32098 0.0
C1107 C 0.81457 0.03589 0.25059 0.0
C1108 C 0.81812 0.04061 0.19586 0.0
C1109 C 0.80428 0.01682 0.26663 0.0
C1110 C 0.81129 0.02608 0.15733 0.0
C1111 C 0.80166 1.0071 0.17305 0.0
H1112 H 0.98105 0.77902 0.29334 0.0
H1113 H 0.99528 0.79088 0.1257 0.0
H1114 H 0.02895 0.80789 0.14784 0.0
H1115 H 0.05453 0.82007 0.21551 0.0
H1116 H 0.04035 0.80506 0.38193 0.0
H1117 H 1.0067 0.78858 0.35995 0.0
C1118 C 0.99157 0.7853 0.26181 0.0
C1119 C 0.98574 0.78386 0.20806 0.0
C1120 C 1.01096 0.79448 0.27468 0.0
C1121 C 0.99947 0.7918 0.16739 0.0
C1122 C 0.01872 0.80157 0.18003 0.0
C1123 C 0.04404 0.81307 0.24677 0.0
C1124 C 0.0499 0.81385 0.30027 0.0
C1125 C 0.02467 0.80309 0.23358 0.0
C1126 C 0.03619 0.80457 0.34038 0.0
C1127 C 0.01693 0.79522 0.32789 0.0
H1128 H 0.84197 0.80827 0.72447 0.0
H1129 H 0.79155 0.75374 0.71229 0.0
H1130 H 0.77263 0.76699 0.74781 0.0
H1131 H 0.77048 0.79437 0.78219 0.0
H1132 H 0.82058 0.84946 0.7842 0.0
H1133 H 0.83952 0.83584 0.75276 0.0
C1134 C 0.82684 0.79931 0.72983 0.0
C1135 C 0.81817 0.78003 0.71644 0.0
C1136 C 0.81599 0.80718 0.74828 0.0
C1137 C 0.79852 0.76862 0.72248 0.0
C1138 C 0.78772 0.77619 0.74281 0.0
C1139 C 0.78554 0.80334 0.77566 0.0
C1140 C 0.79415 0.82287 0.78579 0.0
C1141 C 0.79629 0.79548 0.75582 0.0
C1142 C 0.81362 0.83439 0.77651 0.0
C1143 C 0.82448 0.82661 0.7587 0.0
H1144 H 0.23776 0.03102 0.68326 0.0
H1145 H 0.24597 0.05699 0.83933 0.0
H1146 H 0.23134 0.02584 0.88211 0.0
H1147 H 0.2154 0.99098 0.87487 0.0
H1148 H 0.20405 0.96507 0.71801 0.0
H1149 H 0.22071 0.99627 0.67579 0.0
C1150 C 0.23645 0.02984 0.72667 0.0
C1151 C 0.24311 0.04629 0.75816 0.0
C1152 C 0.22741 0.01184 0.75079 0.0
C1153 C 0.24098 0.04454 0.81426 0.0
C1154 C 0.23264 0.02672 0.83871 0.0
C1155 C 0.21673 0.99222 0.83148 0.0
C1156 C 0.2087 0.97576 0.79957 0.0
C1157 C 0.22571 1.01025 0.80738 0.0
C1158 C 0.21016 0.97754 0.74338 0.0
C1159 C 0.21968 0.99537 0.71924 0.0
H1160 H 0.98651 0.22561 0.71866 0.0
H1161 H 0.97814 0.16973 0.7436 0.0
H1162 H 1.0108 0.18331 0.77414 0.0
H1163 H 0.04196 0.21117 0.79353 0.0
H1164 H 0.04934 0.26695 0.77765 0.0
H1165 H 0.01704 0.25343 0.74345 0.0
C1166 C 0.99184 0.21643 0.73098 0.0
C1167 C 0.97994 0.19669 0.72866 0.0
C1168 C 1.01054 0.22435 0.74973 0.0
C1169 C 0.98698 0.18497 0.74526 0.0
C1170 C 1.0057 0.19272 0.76245 0.0
C1171 C 0.03648 0.22032 0.78213 0.0
C1172 C 0.04804 0.24001 0.78721 0.0
C1173 C 0.01765 0.21239 0.76463 0.0
C1174 C 0.0407 0.25174 0.77366 0.0
C1175 C 0.02224 0.24402 0.75424 0.0
H1176 H 0.85662 0.54411 0.62996 0.0
H1177 H 0.90643 0.59931 0.63262 0.0
H1178 H 0.92512 0.58625 0.59407 0.0
H1179 H 0.92724 0.55885 0.55979 0.0
H1180 H 0.87809 0.5032 0.56783 0.0
H1181 H 0.85922 0.51656 0.60205 0.0
C1182 C 0.87156 0.55325 0.62187 0.0
C1183 C 0.88013 0.57265 0.63341 0.0
C1184 C 0.88233 0.5455 0.60178 0.0
C1185 C 0.89955 0.58432 0.62386 0.0
C1186 C 0.91022 0.57686 0.60181 0.0
C1187 C 0.9124 0.54971 0.56911 0.0
C1188 C 0.90401 0.53009 0.56096 0.0
C1189 C 0.90177 0.55745 0.59063 0.0
C1190 C 0.88485 0.51834 0.5739 0.0
C1191 C 0.87404 0.52597 0.5933 0.0
H1192 H 0.48178 0.3178 0.61862 0.0
H1193 H 0.42659 0.31225 0.61451 0.0
H1194 H 0.44016 0.34433 0.57817 0.0
H1195 H 0.46803 0.37435 0.54884 0.0
H1196 H 0.52352 0.3809 0.56353 0.0
H1197 H 0.50969 0.34829 0.59458 0.0
C1198 C 0.47276 0.32361 0.60933 0.0
C1199 C 0.45321 0.31264 0.61841 0.0
C1200 C 0.48078 0.34235 0.59069 0.0
C1201 C 0.44168 0.32044 0.60749 0.0
C1202 C 0.44944 0.33878 0.5868 0.0
C1203 C 0.47705 0.36859 0.55889 0.0
C1204 C 0.49678 0.38001 0.55364 0.0
C1205 C 0.46901 0.34993 0.57846 0.0
C1206 C 0.50831 0.37244 0.56743 0.0
C1207 C 0.5004 0.35376 0.585 0.0
H1208 H 0.65235 0.09921 0.56757 0.0
H1209 H 0.64604 0.1485 0.57075 0.0
H1210 H 0.67847 0.16778 0.60278 0.0
H1211 H 0.70883 0.17077 0.62989 0.0
H1212 H 0.71414 0.12099 0.63709 0.0
H1213 H 0.6821 0.1018 0.60108 0.0
C1214 C 0.65811 0.11416 0.57541 0.0
C1215 C 0.64685 0.12244 0.56651 0.0
C1216 C 0.67665 0.12509 0.59556 0.0
C1217 C 0.65439 0.14178 0.57747 0.0
C1218 C 0.67298 0.15284 0.5956 0.0
C1219 C 0.70295 0.15573 0.62333 0.0
C1220 C 0.71386 0.14732 0.63542 0.0
C1221 C 0.68427 0.14468 0.60468 0.0
C1222 C 0.70599 0.12776 0.62787 0.0
C1223 C 0.68768 0.1168 0.60728 0.0
H1224 H 0.43846 0.13218 0.13521 0.0
H1225 H 0.48584 0.18739 0.10129 0.0
H1226 H 0.50426 0.17307 0.07034 0.0
H1227 H 0.50708 0.14478 0.0539 0.0
H1228 H 0.45866 0.08949 0.07817 0.0
H1229 H 0.44047 0.10378 0.11209 0.0
C1230 C 0.45279 0.14104 0.1208 0.0
C1231 C 0.46082 0.16083 0.12082 0.0
C1232 C 0.46313 0.13266 0.10166 0.0
C1233 C 0.47932 0.17213 0.10146 0.0
C1234 C 0.48989 0.16395 0.08401 0.0
C1235 C 0.49256 0.13591 0.06688 0.0
C1236 C 0.48426 0.11613 0.0644 0.0
C1237 C 0.48199 0.14424 0.08423 0.0
C1238 C 0.46534 0.10475 0.08007 0.0
C1239 C 0.45495 0.11292 0.0994 0.0
H1240 H 0.92817 0.37271 0.06677 0.0
H1241 H 0.88104 0.38185 0.08925 0.0
H1242 H 0.86097 0.34885 0.11542 0.0
H1243 H 0.85657 0.31708 0.13101 0.0
H1244 H 0.90434 0.30862 0.11751 0.0
H1245 H 0.92431 0.34144 0.08836 0.0
C1246 C 0.91354 0.36749 0.07773 0.0
C1247 C 0.90613 0.37975 0.0759 0.0
C1248 C 0.90213 0.34851 0.09386 0.0
C1249 C 0.88717 0.37278 0.09062 0.0
C1250 C 0.87562 0.35386 0.10528 0.0
C1251 C 0.87133 0.32244 0.12124 0.0
C1252 C 0.87894 0.31043 0.12546 0.0
C1253 C 0.88289 0.34154 0.10668 0.0
C1254 C 0.89817 0.31761 0.1141 0.0
C1255 C 0.90959 0.33638 0.09758 0.0
H1256 H 0.712 0.58746 0.13314 0.0
H1257 H 0.71939 0.53957 0.10313 0.0
H1258 H 0.68638 0.52078 0.07518 0.0
H1259 H 0.65519 0.51785 0.05946 0.0
H1260 H 0.64872 0.56663 0.08034 0.0
H1261 H 0.6814 0.58512 0.11211 0.0
C1262 C 0.70638 0.57293 0.12026 0.0
C1263 C 0.71813 0.56492 0.12039 0.0
C1264 C 0.68747 0.56232 0.10306 0.0
C1265 C 0.7107 0.54613 0.10312 0.0
C1266 C 0.69177 0.53532 0.08743 0.0
C1267 C 0.66095 0.53248 0.07148 0.0
C1268 C 0.64954 0.54082 0.06854 0.0
C1269 C 0.67999 0.54323 0.08748 0.0
C1270 C 0.65724 0.55991 0.08277 0.0
C1271 C 0.67592 0.57048 0.10077 0.0
H1272 H 0.55038 0.89856 0.01503 0.0
H1273 H 0.53339 0.90784 0.85952 0.0
H1274 H 0.5489 0.89224 0.81609 0.0
H1275 H 0.56698 0.8755 0.82257 0.0
H1276 H 0.58067 0.86298 0.97869 0.0
H1277 H 0.56681 0.88021 0.02178 0.0
C1278 C 0.55019 0.89724 0.97161 0.0
C1279 C 0.54098 0.90455 0.94039 0.0
C1280 C 0.55851 0.88761 0.94715 0.0
C1281 C 0.54046 0.90239 0.8843 0.0
C1282 C 0.54933 0.89348 0.85951 0.0
C1283 C 0.56697 0.87664 0.86602 0.0
C1284 C 0.57501 0.86817 0.89745 0.0
C1285 C 0.55836 0.88598 0.89052 0.0
C1286 C 0.57459 0.86941 0.9537 0.0
C1287 C 0.56669 0.87928 0.97831 0.0
H1288 H 0.14723 0.6472 0.97526 0.0
H1289 H 0.09099 0.63814 0.95535 0.0
H1290 H 0.10396 0.67084 0.92479 0.0
H1291 H 0.13148 0.70217 0.90387 0.0
H1292 H 0.18765 0.71201 0.93329 0.0
H1293 H 0.17464 0.67909 0.96057 0.0
C1294 C 0.13787 0.65241 0.9638 0.0
C1295 C 0.1182 0.64025 0.96655 0.0
C1296 C 0.14544 0.67145 0.94853 0.0
C1297 C 0.10617 0.64723 0.95304 0.0
C1298 C 0.11359 0.66593 0.93573 0.0
C1299 C 0.14084 0.69711 0.91656 0.0
C1300 C 0.16052 0.70954 0.91636 0.0
C1301 C 0.13322 0.67821 0.93343 0.0
C1302 C 0.17246 0.70281 0.93336 0.0
C1303 C 0.16503 0.68393 0.94866 0.0
H1304 H 0.32132 0.4784 0.90137 0.0
H1305 H 0.31342 0.42247 0.91789 0.0
H1306 H 0.34544 0.43572 0.95434 0.0
H1307 H 0.37601 0.46346 0.98028 0.0
H1308 H 0.38499 0.51945 0.95331 0.0
H1309 H 0.35245 0.5061 0.92195 0.0
C1310 C 0.32662 0.46917 0.91338 0.0
C1311 C 0.31502 0.44951 0.90785 0.0
C1312 C 0.34532 0.47695 0.93204 0.0
C1313 C 0.32212 0.43765 0.92222 0.0
C1314 C 0.34042 0.44523 0.94295 0.0
C1315 C 0.3708 0.47269 0.96748 0.0
C1316 C 0.38286 0.49241 0.96938 0.0
C1317 C 0.3522 0.46488 0.94783 0.0
C1318 C 0.37601 0.50422 0.95204 0.0
C1319 C 0.35738 0.4966 0.9343 0.0
H1320 H 0.10901 0.46404 0.47806 0.0
H1321 H 0.15397 0.52003 0.43847 0.0
H1322 H 0.1735 0.50702 0.40708 0.0
H1323 H 0.17799 0.4796 0.39145 0.0
H1324 H 0.13184 0.42345 0.42181 0.0
H1325 H 0.11266 0.43651 0.45653 0.0
C1326 C 0.12306 0.47337 0.46235 0.0
C1327 C 0.13005 0.49299 0.46085 0.0
C1328 C 0.13406 0.46573 0.44308 0.0
C1329 C 0.14821 0.50488 0.43985 0.0
C1330 C 0.15944 0.49745 0.42215 0.0
C1331 C 0.16377 0.4703 0.40602 0.0
C1332 C 0.15638 0.45063 0.40502 0.0
C1333 C 0.15257 0.47791 0.42382 0.0
C1334 C 0.13781 0.43864 0.42269 0.0
C1335 C 0.12685 0.44611 0.44241 0.0
H1336 H 0.52235 0.64654 0.45935 0.0
H1337 H 0.56995 0.63849 0.43354 0.0
H1338 H 0.5887 0.67099 0.40041 0.0
H1339 H 0.59162 0.70194 0.37972 0.0
H1340 H 0.54501 0.71084 0.41502 0.0
H1341 H 0.5259 0.67798 0.44395 0.0
C1342 C 0.53678 0.6519 0.44599 0.0
C1343 C 0.5447 0.64009 0.44795 0.0
C1344 C 0.5477 0.67084 0.42922 0.0
C1345 C 0.56355 0.64731 0.43193 0.0
C1346 C 0.57426 0.66589 0.41314 0.0
C1347 C 0.5773 0.69667 0.39391 0.0
C1348 C 0.56973 0.70882 0.39501 0.0
C1349 C 0.56652 0.67784 0.41182 0.0
C1350 C 0.55121 0.70184 0.41402 0.0
C1351 C 0.54024 0.683 0.43032 0.0
H1352 H 0.37359 0.92048 0.46753 0.0
H1353 H 0.38178 0.87245 0.45474 0.0
H1354 H 0.34918 0.85269 0.42454 0.0
H1355 H 0.31821 0.84894 0.40149 0.0
H1356 H 0.31087 0.89756 0.40355 0.0
H1357 H 0.34308 0.91719 0.43818 0.0
C1358 C 0.36819 0.90569 0.45804 0.0
C1359 C 0.38004 0.89791 0.46367 0.0
C1360 C 0.34954 0.89451 0.43889 0.0
C1361 C 0.37296 0.87879 0.45056 0.0
C1362 C 0.35429 0.86746 0.43347 0.0
C1363 C 0.32368 0.86382 0.4098 0.0
C1364 C 0.31215 0.87177 0.40074 0.0
C1365 C 0.34243 0.87513 0.42755 0.0
C1366 C 0.31949 0.89114 0.41048 0.0
C1367 C 0.33789 0.90235 0.43026 0.0
H1368 H 0.31312 0.14916 0.20314 0.0
H1369 H 0.3253 0.20672 0.18493 0.0
H1370 H 0.3587 0.21711 0.17081 0.0
H1371 H 0.38438 0.20989 0.16379 0.0
H1372 H 0.37213 0.15229 0.18175 0.0
H1373 H 0.33872 0.14189 0.19521 0.0
C1374 C 0.32305 0.16401 0.19637 0.0
C1375 C 0.31663 0.17714 0.19541 0.0
C1376 C 0.3422 0.16987 0.18778 0.0
C1377 C 0.32978 0.1963 0.1861 0.0
C1378 C 0.34889 0.20225 0.17786 0.0
C1379 C 0.37443 0.19502 0.17032 0.0
C1380 C 0.38085 0.1819 0.17165 0.0
C1381 C 0.35525 0.18915 0.17848 0.0
C1382 C 0.36766 0.16272 0.18036 0.0
C1383 C 0.34854 0.15676 0.18827 0.0
H1384 H 0.81756 0.18266 0.1538 0.0
H1385 H 0.87638 0.22566 0.16614 0.0
H1386 H 0.88521 0.20123 0.17023 0.0
H1387 H 0.87629 0.16779 0.17189 0.0
H1388 H 0.81756 0.12471 0.15847 0.0
H1389 H 0.80868 0.14914 0.15354 0.0
C1390 C 0.83234 0.18675 0.15714 0.0
C1391 C 0.84628 0.20605 0.15972 0.0
C1392 C 0.83734 0.17262 0.15965 0.0
C1393 C 0.86534 0.21097 0.16397 0.0
C1394 C 0.87041 0.19699 0.1665 0.0
C1395 C 0.86151 0.16368 0.16809 0.0
C1396 C 0.8476 0.14437 0.16589 0.0
C1397 C 0.85652 0.17779 0.16476 0.0
C1398 C 0.82856 0.13941 0.1604 0.0
C1399 C 0.82347 0.15339 0.15751 0.0
H1400 H 0.84492 0.63955 0.1643 0.0
H1401 H 0.80076 0.65387 0.16413 0.0
H1402 H 0.82447 0.68742 0.16913 0.0
H1403 H 0.85759 0.7126 0.17495 0.0
H1404 H 0.90184 0.69841 0.17466 0.0
H1405 H 0.87814 0.66483 0.16876 0.0
C1406 C 0.84043 0.64998 0.1651 0.0
C1407 C 0.82099 0.6441 0.16384 0.0
C1408 C 0.85414 0.66926 0.16826 0.0
C1409 C 0.81555 0.65791 0.16495 0.0
C1410 C 0.82912 0.67712 0.16797 0.0
C1411 C 0.86212 0.7022 0.17379 0.0
C1412 C 0.88155 0.7081 0.17553 0.0
C1413 C 0.84843 0.68294 0.17 0.0
C1414 C 0.88704 0.69434 0.17353 0.0
C1415 C 0.87348 0.67512 0.17007 0.0
H1416 H 0.21218 0.38 0.37625 0.0
H1417 H 0.15451 0.36652 0.35131 0.0
H1418 H 0.14469 0.33306 0.3429 0.0
H1419 H 0.15246 0.30772 0.34142 0.0
H1420 H 0.21004 0.32104 0.36694 0.0
H1421 H 0.2199 0.35454 0.37592 0.0
C1422 C 0.19743 0.36977 0.36925 0.0
C1423 C 0.18411 0.37587 0.36447 0.0
C1424 C 0.19188 0.35053 0.36414 0.0
C1425 C 0.16507 0.36231 0.3553 0.0
C1426 C 0.15945 0.34315 0.3503 0.0
C1427 C 0.1672 0.31791 0.34871 0.0
C1428 C 0.1805 0.31179 0.35321 0.0
C1429 C 0.17274 0.33712 0.35431 0.0
C1430 C 0.1995 0.32529 0.36313 0.0
C1431 C 0.20514 0.34446 0.36838 0.0
H1432 H 0.6438 0.83514 0.36089 0.0
H1433 H 0.65979 0.79223 0.35179 0.0
H1434 H 0.69301 0.81676 0.3442 0.0
H1435 H 0.71744 0.85033 0.33889 0.0
H1436 H 0.70129 0.89313 0.34739 0.0
H1437 H 0.66817 0.86861 0.35603 0.0
C1438 C 0.65452 0.83108 0.35758 0.0
C1439 C 0.64921 0.81177 0.35707 0.0
C1440 C 0.67357 0.84525 0.35267 0.0
C1441 C 0.66339 0.80691 0.35244 0.0
C1442 C 0.68241 0.82095 0.34792 0.0
C1443 C 0.7067 0.85435 0.34242 0.0
C1444 C 0.71195 0.87364 0.34229 0.0
C1445 C 0.68765 0.84016 0.34765 0.0
C1446 C 0.69775 0.87847 0.34719 0.0
C1447 C 0.67878 0.86443 0.35229 0.0
H1448 H 0.21993 0.85916 0.32857 0.0
H1449 H 0.18701 0.80477 0.40463 0.0
H1450 H 0.15865 0.80732 0.39735 0.0
H1451 H 0.14293 0.82493 0.36909 0.0
H1452 H 0.17597 0.87934 0.2933 0.0
H1453 H 0.20426 0.87669 0.30021 0.0
C1454 C 0.2066 0.84794 0.34401 0.0
C1455 C 0.20571 0.83184 0.36726 0.0
C1456 C 0.1902 0.84937 0.33919 0.0
C1457 C 0.1882 0.81736 0.38653 0.0
C1458 C 0.1719 0.81876 0.38224 0.0
C1459 C 0.15628 0.8361 0.35358 0.0
C1460 C 0.15724 0.85227 0.3306 0.0
C1461 C 0.17267 0.83463 0.35831 0.0
C1462 C 0.17475 0.86672 0.31127 0.0
C1463 C 0.19101 0.86526 0.31532 0.0
H1464 H 0.71959 0.87581 0.82067 0.0
H1465 H 0.70534 0.81737 0.82936 0.0
H1466 H 0.67188 0.8076 0.83584 0.0
H1467 H 0.64679 0.8156 0.84151 0.0
H1468 H 0.66079 0.87393 0.83207 0.0
H1469 H 0.69429 0.88377 0.82368 0.0
C1470 C 0.70919 0.86091 0.82364 0.0
C1471 C 0.71508 0.84736 0.82461 0.0
C1472 C 0.68994 0.85537 0.82765 0.0
C1473 C 0.70131 0.82812 0.82842 0.0
C1474 C 0.68214 0.82252 0.83234 0.0
C1475 C 0.65713 0.8305 0.83779 0.0
C1476 C 0.65121 0.84402 0.83785 0.0
C1477 C 0.67633 0.83603 0.83253 0.0
C1478 C 0.66488 0.86322 0.83234 0.0
C1479 C 0.68406 0.86885 0.82748 0.0
H1480 H 0.21205 0.83621 0.87482 0.0
H1481 H 0.15362 0.79264 0.85837 0.0
H1482 H 0.14453 0.81678 0.84877 0.0
H1483 H 0.15318 0.85018 0.84337 0.0
H1484 H 0.21155 0.89376 0.86109 0.0
H1485 H 0.22062 0.86962 0.87145 0.0
C1486 C 0.19729 0.83192 0.8694 0.0
C1487 C 0.18355 0.81253 0.8673 0.0
C1488 C 0.19216 0.84589 0.86369 0.0
C1489 C 0.16451 0.80738 0.86032 0.0
C1490 C 0.1593 0.8212 0.85459 0.0
C1491 C 0.16793 0.85446 0.84924 0.0
C1492 C 0.18168 0.87385 0.85104 0.0
C1493 C 0.17302 0.84049 0.85579 0.0
C1494 C 0.20066 0.87901 0.85934 0.0
C1495 C 0.20586 0.86519 0.86537 0.0
H1496 H 0.18927 0.38092 0.85339 0.0
H1497 H 0.23248 0.36531 0.85686 0.0
H1498 H 0.20834 0.33201 0.84722 0.0
H1499 H 0.17497 0.30734 0.83835 0.0
H1500 H 0.1319 0.32315 0.83419 0.0
H1501 H 0.15607 0.35639 0.84301 0.0
C1502 C 0.19347 0.37026 0.85231 0.0
C1503 C 0.21273 0.37568 0.8562 0.0
C1504 C 0.17953 0.35117 0.84623 0.0
C1505 C 0.21781 0.3616 0.85415 0.0
C1506 C 0.20399 0.34254 0.84852 0.0
C1507 C 0.17083 0.31803 0.83903 0.0
C1508 C 0.15156 0.31265 0.83558 0.0
C1509 C 0.18482 0.33716 0.84445 0.0
C1510 C 0.14656 0.3268 0.83666 0.0
C1511 C 0.16039 0.34584 0.8419 0.0
H1512 H 0.87832 0.71326 0.69199 0.0
H1513 H 0.81951 0.6968 0.67476 0.0
H1514 H 0.81111 0.66367 0.66807 0.0
H1515 H 0.82042 0.63942 0.66625 0.0
H1516 H 0.87922 0.65584 0.68336 0.0
H1517 H 0.88762 0.68897 0.69047 0.0
C1518 C 0.86363 0.70245 0.68709 0.0
C1519 C 0.84957 0.7076 0.68402 0.0
C1520 C 0.8589 0.68341 0.68279 0.0
C1521 C 0.83064 0.69332 0.67736 0.0
C1522 C 0.82582 0.67435 0.67337 0.0
C1523 C 0.83511 0.65022 0.67127 0.0
C1524 C 0.84917 0.64506 0.67407 0.0
C1525 C 0.83984 0.66924 0.67574 0.0
C1526 C 0.86809 0.65933 0.68092 0.0
C1527 C 0.87291 0.6783 0.68514 0.0
H1528 H 0.3125 0.17111 0.70283 0.0
H1529 H 0.3282 0.12817 0.68591 0.0
H1530 H 0.36113 0.15266 0.67185 0.0
H1531 H 0.38543 0.18622 0.66446 0.0
H1532 H 0.36955 0.22906 0.68092 0.0
H1533 H 0.33666 0.20455 0.69447 0.0
C1534 C 0.3231 0.16703 0.69637 0.0
C1535 C 0.3178 0.14774 0.69576 0.0
C1536 C 0.34197 0.18118 0.68777 0.0
C1537 C 0.3318 0.14285 0.68681 0.0
C1538 C 0.35065 0.15687 0.67861 0.0
C1539 C 0.37479 0.19025 0.67068 0.0
C1540 C 0.38006 0.20955 0.67156 0.0
C1541 C 0.35588 0.17607 0.67886 0.0
C1542 C 0.36599 0.21439 0.67988 0.0
C1543 C 0.34715 0.20036 0.68784 0.0
H1544 H 0.85377 0.14535 0.68509 0.0
H1545 H 0.89777 0.20397 0.68172 0.0
H1546 H 0.87393 0.21359 0.67617 0.0
H1547 H 0.84067 0.20538 0.67097 0.0
H1548 H 0.79671 0.14676 0.67505 0.0
H1549 H 0.82055 0.13716 0.68118 0.0
C1550 C 0.85821 0.16026 0.68341 0.0
C1551 C 0.87762 0.17391 0.68384 0.0
C1552 C 0.84443 0.1657 0.67991 0.0
C1553 C 0.88299 0.19314 0.68159 0.0
C1554 C 0.86935 0.19866 0.67821 0.0
C1555 C 0.83625 0.19048 0.67292 0.0
C1556 C 0.81685 0.17681 0.67224 0.0
C1557 C 0.85004 0.18506 0.67698 0.0
C1558 C 0.81149 0.15759 0.67534 0.0
C1559 C 0.82513 0.15209 0.67896 0.0
H1560 H 0.05241 0.54061 0.50058 0.0
H1561 H 0.03931 0.48272 0.51747 0.0
H1562 H 1.0057 0.4725 0.52487 0.0
H1563 H 0.98008 0.48 0.5268 0.0
H1564 H 0.99335 0.53795 0.50989 0.0
H1565 H 0.0269 0.54811 0.50273 0.0
C1566 C 0.04225 0.52572 0.50566 0.0
C1567 C 0.04848 0.51246 0.50829 0.0
C1568 C 0.02296 0.51995 0.51027 0.0
C1569 C 0.035 0.49325 0.51514 0.0
C1570 C 0.01576 0.4874 0.51953 0.0
C1571 C 0.99028 0.49488 0.52183 0.0
C1572 C 0.98409 0.50818 0.51904 0.0
C1573 C 1.00959 0.50063 0.51733 0.0
C1574 C 0.99762 0.52738 0.5123 0.0
C1575 C 0.01684 0.53321 0.50805 0.0
H1576 H 0.53402 0.54839 0.52699 0.0
H1577 H 0.47797 0.5146 0.46176 0.0
H1578 H 0.48093 0.48637 0.46683 0.0
H1579 H 0.49945 0.47107 0.49014 0.0
H1580 H 0.55526 0.50502 0.55727 0.0
H1581 H 0.55223 0.53309 0.5517 0.0
C1582 C 0.52253 0.53489 0.51339 0.0
C1583 C 0.50587 0.5337 0.49371 0.0
C1584 C 0.52417 0.51858 0.51733 0.0
C1585 C 0.491 0.51598 0.47703 0.0
C1586 C 0.49264 0.49977 0.48006 0.0
C1587 C 0.51087 0.48456 0.50404 0.0
C1588 C 0.52754 0.48581 0.52405 0.0
C1589 C 0.50912 0.50085 0.50048 0.0
C1590 C 0.54223 0.50353 0.54154 0.0
C1591 C 0.54058 0.51968 0.53824 0.0
H1592 H 0.5197 0.04742 0.51894 0.0
H1593 H 0.56367 0.03283 0.51742 0.0
H1594 H 0.53988 0.99941 0.50848 0.0
H1595 H 0.50669 0.97438 0.50027 0.0
H1596 H 0.46269 0.98891 0.50258 0.0
H1597 H 0.48649 0.02236 0.51149 0.0
C1598 C 0.52415 0.03697 0.51695 0.0
C1599 C 0.54356 0.04275 0.51897 0.0
C1600 C 0.51038 0.01776 0.51146 0.0
C1601 C 0.54891 0.02888 0.51615 0.0
C1602 C 0.53529 1.00974 0.51083 0.0
C1603 C 0.50225 0.98483 0.50236 0.0
C1604 C 0.48284 0.97905 0.50043 0.0
C1605 C 0.516 1.00403 0.50813 0.0
C1606 C 0.47746 0.99288 0.50376 0.0
C1607 C 0.49108 0.01203 0.50902 0.0
H1608 H 0.54523 0.04892 0.01908 0.0
H1609 H 0.48614 0.03232 0.02606 0.0
H1610 H 0.47748 0.99914 0.01908 0.0
H1611 H 0.48655 0.97491 1.0094 0.0
H1612 H 0.54556 0.99125 1.00275 0.0
H1613 H 0.55433 0.02451 1.01088 0.0
C1614 C 0.53043 0.03807 0.0194 0.0
C1615 C 0.51636 0.04322 0.02312 0.0
C1616 C 0.52553 0.01897 0.01502 0.0
C1617 C 0.49729 0.02887 0.02334 0.0
C1618 C 0.49231 1.00986 0.01918 0.0
C1619 C 0.50137 0.9857 1.00952 0.0
C1620 C 0.51537 0.98049 1.00515 0.0
C1621 C 0.5063 1.00476 0.0146 0.0
C1622 C 0.53447 0.99477 1.00587 0.0
C1623 C 0.53949 0.01381 1.01062 0.0
H1624 H 0.99484 0.47082 1.00314 0.0
H1625 H 0.97212 0.50517 0.06133 0.0
H1626 H 1.00329 0.53333 0.05599 0.0
H1627 H 0.03709 0.54853 0.03347 0.0
H1628 H 0.05977 0.51424 0.97439 0.0
H1629 H 0.0287 0.48603 0.98089 0.0
C1630 C 0.99676 0.48443 0.01521 0.0
C1631 C 0.98112 0.48579 0.03273 0.0
C1632 C 1.01475 0.50074 1.01128 0.0
C1633 C 0.98387 0.50364 0.0476 0.0
C1634 C 1.00171 0.51982 0.04443 0.0
C1635 C 0.03522 0.53492 0.02163 0.0
C1636 C 0.05082 0.53363 1.00335 0.0
C1637 C 0.01725 0.5186 0.02583 0.0
C1638 C 0.04808 0.51576 0.98863 0.0
C1639 C 0.03028 0.49954 0.99246 0.0
H1640 H 0.52224 0.48256 0.02118 0.0
H1641 H 0.56608 0.54127 0.01874 0.0
H1642 H 0.54222 0.55077 1.01204 0.0
H1643 H 0.50907 0.54254 1.00611 0.0
H1644 H 0.46503 0.48396 1.0098 0.0
H1645 H 0.48888 0.47433 0.01638 0.0
C1646 C 0.52662 0.49746 0.01942 0.0
C1647 C 0.54602 0.51117 0.0205 0.0
C1648 C 0.51279 0.50285 0.01541 0.0
C1649 C 0.55132 0.53038 0.01812 0.0
C1650 C 0.53766 0.53584 0.01411 0.0
C1651 C 0.50461 0.52763 1.00805 0.0
C1652 C 0.4852 0.514 1.00713 0.0
C1653 C 0.51838 0.52221 1.01245 0.0
C1654 C 0.47981 0.49477 1.01025 0.0
C1655 C 0.49346 0.48925 0.01413 0.0
loop_
_geom_bond_atom_site_label_1
_geom_bond_atom_site_label_2
_geom_bond_distance
_geom_bond_site_symmetry_2
_ccdc_geom_bond_type
O0 Cd1 2.223 . S
O0 C8 1.315 . S
Cd1 O0 2.223 . S
Cd1 O4 2.297 . S
Cd1 O5 2.439 . S
Cd1 O11 2.240 . S
Cd2 O3 2.240 . S
Cd2 O10 2.223 . S
Cd2 O12 2.297 . S
Cd2 O13 2.439 . S
O3 Cd2 2.240 . S
O3 C8 1.279 . S
O4 Cd1 2.297 . S
O4 C6 1.247 . S
O5 Cd1 2.439 . S
O5 C6 1.208 . S
C6 O4 1.247 . S
C6 O5 1.208 . S
C7 O12 1.247 . S
C7 O13 1.208 . S
C8 O0 1.315 . S
C8 O3 1.279 . S
C9 O10 1.315 . S
C9 O11 1.279 . S
O10 Cd2 2.223 . S
O10 C9 1.315 . S
O11 Cd1 2.240 . S
O11 C9 1.279 . S
O12 Cd2 2.297 . S
O12 C7 1.247 . S
O13 Cd2 2.439 . S
O13 C7 1.208 . S
O14 Cd15 2.223 . S
O14 C22 1.315 . S
Cd15 O14 2.223 . S
Cd15 O18 2.297 . S
Cd15 O19 2.439 . S
Cd15 O25 2.240 . S
Cd16 O17 2.240 . S
Cd16 O24 2.223 . S
Cd16 O26 2.297 . S
Cd16 O27 2.439 . S
O17 Cd16 2.240 . S
O17 C22 1.279 . S
O18 Cd15 2.297 . S
O18 C20 1.247 . S
O19 Cd15 2.439 . S
O19 C20 1.208 . S
C20 O18 1.247 . S
C20 O19 1.208 . S
C21 O26 1.247 . S
C21 O27 1.208 . S
C22 O14 1.315 . S
C22 O17 1.279 . S
C23 O24 1.315 . S
C23 O25 1.279 . S
O24 Cd16 2.223 . S
O24 C23 1.315 . S
O25 Cd15 2.240 . S
O25 C23 1.279 . S
O26 Cd16 2.297 . S
O26 C21 1.247 . S
O27 Cd16 2.439 . S
O27 C21 1.208 . S
O28 Cd29 2.223 . S
O28 C36 1.315 . S
Cd29 O28 2.223 . S
Cd29 O32 2.297 . S
Cd29 O33 2.439 . S
Cd29 O39 2.240 . S
Cd30 O31 2.240 . S
Cd30 O38 2.223 . S
Cd30 O40 2.297 . S
Cd30 O41 2.439 . S
O31 Cd30 2.240 . S
O31 C36 1.279 . S
O32 Cd29 2.297 . S
O32 C34 1.247 . S
O33 Cd29 2.439 . S
O33 C34 1.208 . S
C34 O32 1.247 . S
C34 O33 1.208 . S
C35 O40 1.247 . S
C35 O41 1.208 . S
C36 O28 1.315 . S
C36 O31 1.279 . S
C37 O38 1.315 . S
C37 O39 1.279 . S
O38 Cd30 2.223 . S
O38 C37 1.315 . S
O39 Cd29 2.240 . S
O39 C37 1.279 . S
O40 Cd30 2.297 . S
O40 C35 1.247 . S
O41 Cd30 2.439 . S
O41 C35 1.208 . S
O42 Cd43 2.223 . S
O42 C50 1.315 . S
Cd43 O42 2.223 . S
Cd43 O46 2.297 . S
Cd43 O47 2.439 . S
Cd43 O53 2.240 . S
Cd44 O45 2.240 . S
Cd44 O52 2.223 . S
Cd44 O54 2.297 . S
Cd44 O55 2.439 . S
O45 Cd44 2.240 . S
O45 C50 1.279 . S
O46 Cd43 2.297 . S
O46 C48 1.247 . S
O47 Cd43 2.439 . S
O47 C48 1.208 . S
C48 O46 1.247 . S
C48 O47 1.208 . S
C49 O54 1.247 . S
C49 O55 1.208 . S
C50 O42 1.315 . S
C50 O45 1.279 . S
C51 O52 1.315 . S
C51 O53 1.279 . S
O52 Cd44 2.223 . S
O52 C51 1.315 . S
O53 Cd43 2.240 . S
O53 C51 1.279 . S
O54 Cd44 2.297 . S
O54 C49 1.247 . S
O55 Cd44 2.439 . S
O55 C49 1.208 . S
O56 Cd57 2.223 . S
O56 C64 1.315 . S
Cd57 O56 2.223 . S
Cd57 O60 2.297 . S
Cd57 O61 2.439 . S
Cd57 O67 2.240 . S
Cd58 O59 2.240 . S
Cd58 O66 2.223 . S
Cd58 O68 2.297 . S
Cd58 O69 2.439 . S
O59 Cd58 2.240 . S
O59 C64 1.279 . S
O60 Cd57 2.297 . S
O60 C62 1.247 . S
O61 Cd57 2.439 . S
O61 C62 1.208 . S
C62 O60 1.247 . S
C62 O61 1.208 . S
C63 O68 1.247 . S
C63 O69 1.208 . S
C64 O56 1.315 . S
C64 O59 1.279 . S
C65 O66 1.315 . S
C65 O67 1.279 . S
O66 Cd58 2.223 . S
O66 C65 1.315 . S
O67 Cd57 2.240 . S
O67 C65 1.279 . S
O68 Cd58 2.297 . S
O68 C63 1.247 . S
O69 Cd58 2.439 . S
O69 C63 1.208 . S
O70 Cd71 2.223 . S
O70 C78 1.315 . S
Cd71 O70 2.223 . S
Cd71 O74 2.297 . S
Cd71 O75 2.439 . S
Cd71 O81 2.240 . S
Cd72 O73 2.240 . S
Cd72 O80 2.223 . S
Cd72 O82 2.297 . S
Cd72 O83 2.439 . S
O73 Cd72 2.240 . S
O73 C78 1.279 . S
O74 Cd71 2.297 . S
O74 C76 1.247 . S
O75 Cd71 2.439 . S
O75 C76 1.208 . S
C76 O74 1.247 . S
C76 O75 1.208 . S
C77 O82 1.247 . S
C77 O83 1.208 . S
C78 O70 1.315 . S
C78 O73 1.279 . S
C79 O80 1.315 . S
C79 O81 1.279 . S
O80 Cd72 2.223 . S
O80 C79 1.315 . S
O81 Cd71 2.240 . S
O81 C79 1.279 . S
O82 Cd72 2.297 . S
O82 C77 1.247 . S
O83 Cd72 2.439 . S
O83 C77 1.208 . S
O84 Cd85 2.223 . S
O84 C92 1.315 . S
Cd85 O84 2.223 . S
Cd85 O88 2.297 . S
Cd85 O89 2.439 . S
Cd85 O95 2.240 . S
Cd86 O87 2.240 . S
Cd86 O94 2.223 . S
Cd86 O96 2.297 . S
Cd86 O97 2.439 . S
O87 Cd86 2.240 . S
O87 C92 1.279 . S
O88 Cd85 2.297 . S
O88 C90 1.247 . S
O89 Cd85 2.439 . S
O89 C90 1.208 . S
C90 O88 1.247 . S
C90 O89 1.208 . S
C91 O96 1.247 . S
C91 O97 1.208 . S
C92 O84 1.315 . S
C92 O87 1.279 . S
C93 O94 1.315 . S
C93 O95 1.279 . S
O94 Cd86 2.223 . S
O94 C93 1.315 . S
O95 Cd85 2.240 . S
O95 C93 1.279 . S
O96 Cd86 2.297 . S
O96 C91 1.247 . S
O97 Cd86 2.439 . S
O97 C91 1.208 . S
O98 Cd99 2.223 . S
O98 C106 1.315 . S
Cd99 O98 2.223 . S
Cd99 O102 2.297 . S
Cd99 O103 2.439 . S
Cd99 O109 2.240 . S
Cd100 O101 2.240 . S
Cd100 O108 2.223 . S
Cd100 O110 2.297 . S
Cd100 O111 2.439 . S
O101 Cd100 2.240 . S
O101 C106 1.279 . S
O102 Cd99 2.297 . S
O102 C104 1.247 . S
O103 Cd99 2.439 . S
O103 C104 1.208 . S
C104 O102 1.247 . S
C104 O103 1.208 . S
C105 O110 1.247 . S
C105 O111 1.208 . S
C106 O98 1.315 . S
C106 O101 1.279 . S
C107 O108 1.315 . S
C107 O109 1.279 . S
O108 Cd100 2.223 . S
O108 C107 1.315 . S
O109 Cd99 2.240 . S
O109 C107 1.279 . S
O110 Cd100 2.297 . S
O110 C105 1.247 . S
O111 Cd100 2.439 . S
O111 C105 1.208 . S
O112 Cd113 2.223 . S
O112 C120 1.315 . S
Cd113 O112 2.223 . S
Cd113 O116 2.297 . S
Cd113 O117 2.439 . S
Cd113 O123 2.240 . S
Cd114 O115 2.240 . S
Cd114 O122 2.223 . S
Cd114 O124 2.297 . S
Cd114 O125 2.439 . S
O115 Cd114 2.240 . S
O115 C120 1.279 . S
O116 Cd113 2.297 . S
O116 C118 1.247 . S
O117 Cd113 2.439 . S
O117 C118 1.208 . S
C118 O116 1.247 . S
C118 O117 1.208 . S
C119 O124 1.247 . S
C119 O125 1.208 . S
C120 O112 1.315 . S
C120 O115 1.279 . S
C121 O122 1.315 . S
C121 O123 1.279 . S
O122 Cd114 2.223 . S
O122 C121 1.315 . S
O123 Cd113 2.240 . S
O123 C121 1.279 . S
O124 Cd114 2.297 . S
O124 C119 1.247 . S
O125 Cd114 2.439 . S
O125 C119 1.208 . S
O126 Cd127 2.223 . S
O126 C134 1.315 . S
Cd127 O126 2.223 . S
Cd127 O130 2.297 . S
Cd127 O131 2.439 . S
Cd127 O137 2.240 . S
Cd128 O129 2.240 . S
Cd128 O136 2.223 . S
Cd128 O138 2.297 . S
Cd128 O139 2.439 . S
O129 Cd128 2.240 . S
O129 C134 1.279 . S
O130 Cd127 2.297 . S
O130 C132 1.247 . S
O131 Cd127 2.439 . S
O131 C132 1.208 . S
C132 O130 1.247 . S
C132 O131 1.208 . S
C133 O138 1.247 . S
C133 O139 1.208 . S
C134 O126 1.315 . S
C134 O129 1.279 . S
C135 O136 1.315 . S
C135 O137 1.279 . S
O136 Cd128 2.223 . S
O136 C135 1.315 . S
O137 Cd127 2.240 . S
O137 C135 1.279 . S
O138 Cd128 2.297 . S
O138 C133 1.247 . S
O139 Cd128 2.439 . S
O139 C133 1.208 . S
O140 Cd141 2.223 . S
O140 C148 1.315 . S
Cd141 O140 2.223 . S
Cd141 O144 2.297 . S
Cd141 O145 2.439 . S
Cd141 O151 2.240 . S
Cd142 O143 2.240 . S
Cd142 O150 2.223 . S
Cd142 O152 2.297 . S
Cd142 O153 2.439 . S
O143 Cd142 2.240 . S
O143 C148 1.279 . S
O144 Cd141 2.297 . S
O144 C146 1.247 . S
O145 Cd141 2.439 . S
O145 C146 1.208 . S
C146 O144 1.247 . S
C146 O145 1.208 . S
C147 O152 1.247 . S
C147 O153 1.208 . S
C148 O140 1.315 . S
C148 O143 1.279 . S
C149 O150 1.315 . S
C149 O151 1.279 . S
O150 Cd142 2.223 . S
O150 C149 1.315 . S
O151 Cd141 2.240 . S
O151 C149 1.279 . S
O152 Cd142 2.297 . S
O152 C147 1.247 . S
O153 Cd142 2.439 . S
O153 C147 1.208 . S
O154 Cd155 2.223 . S
O154 C162 1.315 . S
Cd155 O154 2.223 . S
Cd155 O158 2.297 . S
Cd155 O159 2.439 . S
Cd155 O165 2.240 . S
Cd156 O157 2.240 . S
Cd156 O164 2.223 . S
Cd156 O166 2.297 . S
Cd156 O167 2.439 . S
O157 Cd156 2.240 . S
O157 C162 1.279 . S
O158 Cd155 2.297 . S
O158 C160 1.247 . S
O159 Cd155 2.439 . S
O159 C160 1.208 . S
C160 O158 1.247 . S
C160 O159 1.208 . S
C161 O166 1.247 . S
C161 O167 1.208 . S
C162 O154 1.315 . S
C162 O157 1.279 . S
C163 O164 1.315 . S
C163 O165 1.279 . S
O164 Cd156 2.223 . S
O164 C163 1.315 . S
O165 Cd155 2.240 . S
O165 C163 1.279 . S
O166 Cd156 2.297 . S
O166 C161 1.247 . S
O167 Cd156 2.439 . S
O167 C161 1.208 . S
O168 Cd169 2.223 . S
O168 C176 1.315 . S
Cd169 O168 2.223 . S
Cd169 O172 2.297 . S
Cd169 O173 2.439 . S
Cd169 O179 2.240 . S
Cd170 O171 2.240 . S
Cd170 O178 2.223 . S
Cd170 O180 2.297 . S
Cd170 O181 2.439 . S
O171 Cd170 2.240 . S
O171 C176 1.279 . S
O172 Cd169 2.297 . S
O172 C174 1.247 . S
O173 Cd169 2.439 . S
O173 C174 1.208 . S
C174 O172 1.247 . S
C174 O173 1.208 . S
C175 O180 1.247 . S
C175 O181 1.208 . S
C176 O168 1.315 . S
C176 O171 1.279 . S
C177 O178 1.315 . S
C177 O179 1.279 . S
O178 Cd170 2.223 . S
O178 C177 1.315 . S
O179 Cd169 2.240 . S
O179 C177 1.279 . S
O180 Cd170 2.297 . S
O180 C175 1.247 . S
O181 Cd170 2.439 . S
O181 C175 1.208 . S
O182 Cd183 2.223 . S
O182 C190 1.315 . S
Cd183 O182 2.223 . S
Cd183 O186 2.297 . S
Cd183 O187 2.439 . S
Cd183 O193 2.240 . S
Cd184 O185 2.240 . S
Cd184 O192 2.223 . S
Cd184 O194 2.297 . S
Cd184 O195 2.439 . S
O185 Cd184 2.240 . S
O185 C190 1.279 . S
O186 Cd183 2.297 . S
O186 C188 1.247 . S
O187 Cd183 2.439 . S
O187 C188 1.208 . S
C188 O186 1.247 . S
C188 O187 1.208 . S
C189 O194 1.247 . S
C189 O195 1.208 . S
C190 O182 1.315 . S
C190 O185 1.279 . S
C191 O192 1.315 . S
C191 O193 1.279 . S
O192 Cd184 2.223 . S
O192 C191 1.315 . S
O193 Cd183 2.240 . S
O193 C191 1.279 . S
O194 Cd184 2.297 . S
O194 C189 1.247 . S
O195 Cd184 2.439 . S
O195 C189 1.208 . S
O196 Cd197 2.223 . S
O196 C204 1.315 . S
Cd197 O196 2.223 . S
Cd197 O200 2.297 . S
Cd197 O201 2.439 . S
Cd197 O207 2.240 . S
Cd198 O199 2.240 . S
Cd198 O206 2.223 . S
Cd198 O208 2.297 . S
Cd198 O209 2.439 . S
O199 Cd198 2.240 . S
O199 C204 1.279 . S
O200 Cd197 2.297 . S
O200 C202 1.247 . S
O201 Cd197 2.439 . S
O201 C202 1.208 . S
C202 O200 1.247 . S
C202 O201 1.208 . S
C203 O208 1.247 . S
C203 O209 1.208 . S
C204 O196 1.315 . S
C204 O199 1.279 . S
C205 O206 1.315 . S
C205 O207 1.279 . S
O206 Cd198 2.223 . S
O206 C205 1.315 . S
O207 Cd197 2.240 . S
O207 C205 1.279 . S
O208 Cd198 2.297 . S
O208 C203 1.247 . S
O209 Cd198 2.439 . S
O209 C203 1.208 . S
O210 Cd211 2.223 . S
O210 C218 1.315 . S
Cd211 O210 2.223 . S
Cd211 O214 2.297 . S
Cd211 O215 2.439 . S
Cd211 O221 2.240 . S
Cd212 O213 2.240 . S
Cd212 O220 2.223 . S
Cd212 O222 2.297 . S
Cd212 O223 2.439 . S
O213 Cd212 2.240 . S
O213 C218 1.279 . S
O214 Cd211 2.297 . S
O214 C216 1.247 . S
O215 Cd211 2.439 . S
O215 C216 1.208 . S
C216 O214 1.247 . S
C216 O215 1.208 . S
C217 O222 1.247 . S
C217 O223 1.208 . S
C218 O210 1.315 . S
C218 O213 1.279 . S
C219 O220 1.315 . S
C219 O221 1.279 . S
O220 Cd212 2.223 . S
O220 C219 1.315 . S
O221 Cd211 2.240 . S
O221 C219 1.279 . S
O222 Cd212 2.297 . S
O222 C217 1.247 . S
O223 Cd212 2.439 . S
O223 C217 1.208 . S
O224 Cd225 2.223 . S
O224 C232 1.315 . S
Cd225 O224 2.223 . S
Cd225 O228 2.297 . S
Cd225 O229 2.439 . S
Cd225 O235 2.240 . S
Cd226 O227 2.240 . S
Cd226 O234 2.223 . S
Cd226 O236 2.297 . S
Cd226 O237 2.439 . S
O227 Cd226 2.240 . S
O227 C232 1.279 . S
O228 Cd225 2.297 . S
O228 C230 1.247 . S
O229 Cd225 2.439 . S
O229 C230 1.208 . S
C230 O228 1.247 . S
C230 O229 1.208 . S
C231 O236 1.247 . S
C231 O237 1.208 . S
C232 O224 1.315 . S
C232 O227 1.279 . S
C233 O234 1.315 . S
C233 O235 1.279 . S
O234 Cd226 2.223 . S
O234 C233 1.315 . S
O235 Cd225 2.240 . S
O235 C233 1.279 . S
O236 Cd226 2.297 . S
O236 C231 1.247 . S
O237 Cd226 2.439 . S
O237 C231 1.208 . S
O238 Cd239 2.223 . S
O238 C246 1.315 . S
Cd239 O238 2.223 . S
Cd239 O242 2.297 . S
Cd239 O243 2.439 . S
Cd239 O249 2.240 . S
Cd240 O241 2.240 . S
Cd240 O248 2.223 . S
Cd240 O250 2.297 . S
Cd240 O251 2.439 . S
O241 Cd240 2.240 . S
O241 C246 1.279 . S
O242 Cd239 2.297 . S
O242 C244 1.247 . S
O243 Cd239 2.439 . S
O243 C244 1.208 . S
C244 O242 1.247 . S
C244 O243 1.208 . S
C245 O250 1.247 . S
C245 O251 1.208 . S
C246 O238 1.315 . S
C246 O241 1.279 . S
C247 O248 1.315 . S
C247 O249 1.279 . S
O248 Cd240 2.223 . S
O248 C247 1.315 . S
O249 Cd239 2.240 . S
O249 C247 1.279 . S
O250 Cd240 2.297 . S
O250 C245 1.247 . S
O251 Cd240 2.439 . S
O251 C245 1.208 . S
O252 Cd253 2.223 . S
O252 C260 1.315 . S
Cd253 O252 2.223 . S
Cd253 O256 2.297 . S
Cd253 O257 2.439 . S
Cd253 O263 2.240 . S
Cd254 O255 2.240 . S
Cd254 O262 2.223 . S
Cd254 O264 2.297 1_554 S
Cd254 O265 2.439 1_554 S
O255 Cd254 2.240 . S
O255 C260 1.279 . S
O256 Cd253 2.297 . S
O256 C258 1.247 . S
O257 Cd253 2.439 . S
O257 C258 1.208 . S
C258 O256 1.247 . S
C258 O257 1.208 . S
C259 O264 1.247 . S
C259 O265 1.208 . S
C260 O252 1.315 . S
C260 O255 1.279 . S
C261 O262 1.315 . S
C261 O263 1.279 . S
O262 Cd254 2.223 . S
O262 C261 1.315 . S
O263 Cd253 2.240 . S
O263 C261 1.279 . S
O264 Cd254 2.297 1_556 S
O264 C259 1.247 . S
O265 Cd254 2.439 1_556 S
O265 C259 1.208 . S
O266 Cd267 2.223 . S
O266 C274 1.315 . S
Cd267 O266 2.223 . S
Cd267 O270 2.297 . S
Cd267 O271 2.439 . S
Cd267 O277 2.240 . S
Cd268 O269 2.240 . S
Cd268 O276 2.223 . S
Cd268 O278 2.297 1_554 S
Cd268 O279 2.439 1_554 S
O269 Cd268 2.240 . S
O269 C274 1.279 . S
O270 Cd267 2.297 . S
O270 C272 1.247 . S
O271 Cd267 2.439 . S
O271 C272 1.208 . S
C272 O270 1.247 . S
C272 O271 1.208 . S
C273 O278 1.247 . S
C273 O279 1.208 . S
C274 O266 1.315 . S
C274 O269 1.279 . S
C275 O276 1.315 . S
C275 O277 1.279 . S
O276 Cd268 2.223 . S
O276 C275 1.315 . S
O277 Cd267 2.240 . S
O277 C275 1.279 . S
O278 Cd268 2.297 1_556 S
O278 C273 1.247 . S
O279 Cd268 2.439 1_556 S
O279 C273 1.208 . S
O280 Cd281 2.223 . S
O280 C288 1.315 . S
Cd281 O280 2.223 . S
Cd281 O284 2.297 . S
Cd281 O285 2.439 . S
Cd281 O291 2.240 . S
Cd282 O283 2.240 . S
Cd282 O290 2.223 . S
Cd282 O292 2.297 1_554 S
Cd282 O293 2.439 1_554 S
O283 Cd282 2.240 . S
O283 C288 1.279 . S
O284 Cd281 2.297 . S
O284 C286 1.247 . S
O285 Cd281 2.439 . S
O285 C286 1.208 . S
C286 O284 1.247 . S
C286 O285 1.208 . S
C287 O292 1.247 . S
C287 O293 1.208 . S
C288 O280 1.315 . S
C288 O283 1.279 . S
C289 O290 1.315 . S
C289 O291 1.279 . S
O290 Cd282 2.223 . S
O290 C289 1.315 . S
O291 Cd281 2.240 . S
O291 C289 1.279 . S
O292 Cd282 2.297 1_556 S
O292 C287 1.247 . S
O293 Cd282 2.439 1_556 S
O293 C287 1.208 . S
O294 Cd295 2.223 1_556 S
O294 C302 1.315 . S
Cd295 O294 2.223 1_554 S
Cd295 O298 2.297 . S
Cd295 O299 2.439 . S
Cd295 O305 2.240 . S
Cd296 O297 2.240 . S
Cd296 O304 2.223 . S
Cd296 O306 2.297 . S
Cd296 O307 2.439 . S
O297 Cd296 2.240 . S
O297 C302 1.279 1_554 S
O298 Cd295 2.297 . S
O298 C300 1.247 . S
O299 Cd295 2.439 . S
O299 C300 1.208 . S
C300 O298 1.247 . S
C300 O299 1.208 . S
C301 O306 1.247 . S
C301 O307 1.208 . S
C302 O294 1.315 . S
C302 O297 1.279 1_556 S
C303 O304 1.315 . S
C303 O305 1.279 . S
O304 Cd296 2.223 . S
O304 C303 1.315 . S
O305 Cd295 2.240 . S
O305 C303 1.279 . S
O306 Cd296 2.297 . S
O306 C301 1.247 . S
O307 Cd296 2.439 . S
O307 C301 1.208 . S
O308 Cd309 2.223 1_556 S
O308 C316 1.315 . S
Cd309 O308 2.223 1_554 S
Cd309 O312 2.297 . S
Cd309 O313 2.439 . S
Cd309 O319 2.240 . S
Cd310 O311 2.240 . S
Cd310 O318 2.223 . S
Cd310 O320 2.297 . S
Cd310 O321 2.439 . S
O311 Cd310 2.240 . S
O311 C316 1.279 1_554 S
O312 Cd309 2.297 . S
O312 C314 1.247 . S
O313 Cd309 2.439 . S
O313 C314 1.208 . S
C314 O312 1.247 . S
C314 O313 1.208 . S
C315 O320 1.247 . S
C315 O321 1.208 . S
C316 O308 1.315 . S
C316 O311 1.279 1_556 S
C317 O318 1.315 . S
C317 O319 1.279 . S
O318 Cd310 2.223 . S
O318 C317 1.315 . S
O319 Cd309 2.240 . S
O319 C317 1.279 . S
O320 Cd310 2.297 . S
O320 C315 1.247 . S
O321 Cd310 2.439 . S
O321 C315 1.208 . S
O322 Cd323 2.223 1_556 S
O322 C330 1.315 . S
Cd323 O322 2.223 1_554 S
Cd323 O326 2.297 . S
Cd323 O327 2.439 . S
Cd323 O333 2.240 . S
Cd324 O325 2.240 . S
Cd324 O332 2.223 . S
Cd324 O334 2.297 . S
Cd324 O335 2.439 . S
O325 Cd324 2.240 . S
O325 C330 1.279 1_554 S
O326 Cd323 2.297 . S
O326 C328 1.247 . S
O327 Cd323 2.439 . S
O327 C328 1.208 . S
C328 O326 1.247 . S
C328 O327 1.208 . S
C329 O334 1.247 . S
C329 O335 1.208 . S
C330 O322 1.315 . S
C330 O325 1.279 1_556 S
C331 O332 1.315 . S
C331 O333 1.279 . S
O332 Cd324 2.223 . S
O332 C331 1.315 . S
O333 Cd323 2.240 . S
O333 C331 1.279 . S
O334 Cd324 2.297 . S
O334 C329 1.247 . S
O335 Cd324 2.439 . S
O335 C329 1.208 . S
O336 Cd337 2.223 . S
O336 C344 1.315 . S
Cd337 O336 2.223 . S
Cd337 O340 2.297 . S
Cd337 O341 2.439 . S
Cd337 O347 2.240 . S
Cd338 O339 2.240 . S
Cd338 O346 2.223 . S
Cd338 O348 2.297 1_556 S
Cd338 O349 2.439 1_556 S
O339 Cd338 2.240 . S
O339 C344 1.279 . S
O340 Cd337 2.297 . S
O340 C342 1.247 . S
O341 Cd337 2.439 . S
O341 C342 1.208 . S
C342 O340 1.247 . S
C342 O341 1.208 . S
C343 O348 1.247 . S
C343 O349 1.208 . S
C344 O336 1.315 . S
C344 O339 1.279 . S
C345 O346 1.315 . S
C345 O347 1.279 . S
O346 Cd338 2.223 . S
O346 C345 1.315 . S
O347 Cd337 2.240 . S
O347 C345 1.279 . S
O348 Cd338 2.297 1_554 S
O348 C343 1.247 . S
O349 Cd338 2.439 1_554 S
O349 C343 1.208 . S
O350 Cd351 2.223 . S
O350 C358 1.315 . S
Cd351 O350 2.223 . S
Cd351 O354 2.297 . S
Cd351 O355 2.439 . S
Cd351 O361 2.240 . S
Cd352 O353 2.240 . S
Cd352 O360 2.223 . S
Cd352 O362 2.297 1_556 S
Cd352 O363 2.439 1_556 S
O353 Cd352 2.240 . S
O353 C358 1.279 . S
O354 Cd351 2.297 . S
O354 C356 1.247 . S
O355 Cd351 2.439 . S
O355 C356 1.208 . S
C356 O354 1.247 . S
C356 O355 1.208 . S
C357 O362 1.247 . S
C357 O363 1.208 . S
C358 O350 1.315 . S
C358 O353 1.279 . S
C359 O360 1.315 . S
C359 O361 1.279 . S
O360 Cd352 2.223 . S
O360 C359 1.315 . S
O361 Cd351 2.240 . S
O361 C359 1.279 . S
O362 Cd352 2.297 1_554 S
O362 C357 1.247 . S
O363 Cd352 2.439 1_554 S
O363 C357 1.208 . S
O364 Cd365 2.223 . S
O364 C372 1.315 . S
Cd365 O364 2.223 . S
Cd365 O368 2.297 . S
Cd365 O369 2.439 . S
Cd365 O375 2.240 . S
Cd366 O367 2.240 . S
Cd366 O374 2.223 . S
Cd366 O376 2.297 1_556 S
Cd366 O377 2.439 1_556 S
O367 Cd366 2.240 . S
O367 C372 1.279 . S
O368 Cd365 2.297 . S
O368 C370 1.247 . S
O369 Cd365 2.439 . S
O369 C370 1.208 . S
C370 O368 1.247 . S
C370 O369 1.208 . S
C371 O376 1.247 . S
C371 O377 1.208 . S
C372 O364 1.315 . S
C372 O367 1.279 . S
C373 O374 1.315 . S
C373 O375 1.279 . S
O374 Cd366 2.223 . S
O374 C373 1.315 . S
O375 Cd365 2.240 . S
O375 C373 1.279 . S
O376 Cd366 2.297 1_554 S
O376 C371 1.247 . S
O377 Cd366 2.439 1_554 S
O377 C371 1.208 . S
O378 Cd379 2.223 1_554 S
O378 C386 1.315 . S
Cd379 O378 2.223 1_556 S
Cd379 O382 2.297 . S
Cd379 O383 2.439 . S
Cd379 O389 2.240 . S
Cd380 O381 2.240 . S
Cd380 O388 2.223 . S
Cd380 O390 2.297 . S
Cd380 O391 2.439 . S
O381 Cd380 2.240 . S
O381 C386 1.279 1_556 S
O382 Cd379 2.297 . S
O382 C384 1.247 . S
O383 Cd379 2.439 . S
O383 C384 1.208 . S
C384 O382 1.247 . S
C384 O383 1.208 . S
C385 O390 1.247 . S
C385 O391 1.208 . S
C386 O378 1.315 . S
C386 O381 1.279 1_554 S
C387 O388 1.315 . S
C387 O389 1.279 . S
O388 Cd380 2.223 . S
O388 C387 1.315 . S
O389 Cd379 2.240 . S
O389 C387 1.279 . S
O390 Cd380 2.297 . S
O390 C385 1.247 . S
O391 Cd380 2.439 . S
O391 C385 1.208 . S
O392 Cd393 2.223 1_554 S
O392 C400 1.315 . S
Cd393 O392 2.223 1_556 S
Cd393 O396 2.297 . S
Cd393 O397 2.439 . S
Cd393 O403 2.240 . S
Cd394 O395 2.240 . S
Cd394 O402 2.223 . S
Cd394 O404 2.297 . S
Cd394 O405 2.439 . S
O395 Cd394 2.240 . S
O395 C400 1.279 1_556 S
O396 Cd393 2.297 . S
O396 C398 1.247 . S
O397 Cd393 2.439 . S
O397 C398 1.208 . S
C398 O396 1.247 . S
C398 O397 1.208 . S
C399 O404 1.247 . S
C399 O405 1.208 . S
C400 O392 1.315 . S
C400 O395 1.279 1_554 S
C401 O402 1.315 . S
C401 O403 1.279 . S
O402 Cd394 2.223 . S
O402 C401 1.315 . S
O403 Cd393 2.240 . S
O403 C401 1.279 . S
O404 Cd394 2.297 . S
O404 C399 1.247 . S
O405 Cd394 2.439 . S
O405 C399 1.208 . S
O406 Cd407 2.223 1_554 S
O406 C414 1.315 . S
Cd407 O406 2.223 1_556 S
Cd407 O410 2.297 . S
Cd407 O411 2.439 . S
Cd407 O417 2.240 . S
Cd408 O409 2.240 . S
Cd408 O416 2.223 . S
Cd408 O418 2.297 . S
Cd408 O419 2.439 . S
O409 Cd408 2.240 . S
O409 C414 1.279 1_556 S
O410 Cd407 2.297 . S
O410 C412 1.247 . S
O411 Cd407 2.439 . S
O411 C412 1.208 . S
C412 O410 1.247 . S
C412 O411 1.208 . S
C413 O418 1.247 . S
C413 O419 1.208 . S
C414 O406 1.315 . S
C414 O409 1.279 1_554 S
C415 O416 1.315 . S
C415 O417 1.279 . S
O416 Cd408 2.223 . S
O416 C415 1.315 . S
O417 Cd407 2.240 . S
O417 C415 1.279 . S
O418 Cd408 2.297 . S
O418 C413 1.247 . S
O419 Cd408 2.439 . S
O419 C413 1.208 . S
O420 Cd421 2.223 . S
O420 C428 1.315 . S
Cd421 O420 2.223 . S
Cd421 O424 2.297 . S
Cd421 O425 2.439 . S
Cd421 O431 2.240 . S
Cd422 O423 2.240 . S
Cd422 O430 2.223 . S
Cd422 O432 2.297 . S
Cd422 O433 2.439 . S
O423 Cd422 2.240 . S
O423 C428 1.279 . S
O424 Cd421 2.297 . S
O424 C426 1.247 . S
O425 Cd421 2.439 . S
O425 C426 1.208 . S
C426 O424 1.247 . S
C426 O425 1.208 . S
C427 O432 1.247 . S
C427 O433 1.208 . S
C428 O420 1.315 . S
C428 O423 1.279 . S
C429 O430 1.315 . S
C429 O431 1.279 . S
O430 Cd422 2.223 . S
O430 C429 1.315 . S
O431 Cd421 2.240 . S
O431 C429 1.279 . S
O432 Cd422 2.297 . S
O432 C427 1.247 . S
O433 Cd422 2.439 . S
O433 C427 1.208 . S
O434 Cd435 2.223 . S
O434 C442 1.315 . S
Cd435 O434 2.223 . S
Cd435 O438 2.297 . S
Cd435 O439 2.439 . S
Cd435 O445 2.240 . S
Cd436 O437 2.240 . S
Cd436 O444 2.223 . S
Cd436 O446 2.297 . S
Cd436 O447 2.439 . S
O437 Cd436 2.240 . S
O437 C442 1.279 . S
O438 Cd435 2.297 . S
O438 C440 1.247 . S
O439 Cd435 2.439 . S
O439 C440 1.208 . S
C440 O438 1.247 . S
C440 O439 1.208 . S
C441 O446 1.247 . S
C441 O447 1.208 . S
C442 O434 1.315 . S
C442 O437 1.279 . S
C443 O444 1.315 . S
C443 O445 1.279 . S
O444 Cd436 2.223 . S
O444 C443 1.315 . S
O445 Cd435 2.240 . S
O445 C443 1.279 . S
O446 Cd436 2.297 . S
O446 C441 1.247 . S
O447 Cd436 2.439 . S
O447 C441 1.208 . S
O448 Cd449 2.223 . S
O448 C456 1.315 . S
Cd449 O448 2.223 . S
Cd449 O452 2.297 . S
Cd449 O453 2.439 . S
Cd449 O459 2.240 . S
Cd450 O451 2.240 . S
Cd450 O458 2.223 . S
Cd450 O460 2.297 . S
Cd450 O461 2.439 . S
O451 Cd450 2.240 . S
O451 C456 1.279 . S
O452 Cd449 2.297 . S
O452 C454 1.247 . S
O453 Cd449 2.439 . S
O453 C454 1.208 . S
C454 O452 1.247 . S
C454 O453 1.208 . S
C455 O460 1.247 . S
C455 O461 1.208 . S
C456 O448 1.315 . S
C456 O451 1.279 . S
C457 O458 1.315 . S
C457 O459 1.279 . S
O458 Cd450 2.223 . S
O458 C457 1.315 . S
O459 Cd449 2.240 . S
O459 C457 1.279 . S
O460 Cd450 2.297 . S
O460 C455 1.247 . S
O461 Cd450 2.439 . S
O461 C455 1.208 . S
O462 Cd463 2.223 . S
O462 C470 1.315 . S
Cd463 O462 2.223 . S
Cd463 O466 2.297 . S
Cd463 O467 2.439 . S
Cd463 O473 2.240 . S
Cd464 O465 2.240 . S
Cd464 O472 2.223 . S
Cd464 O474 2.297 . S
Cd464 O475 2.439 . S
O465 Cd464 2.240 . S
O465 C470 1.279 . S
O466 Cd463 2.297 . S
O466 C468 1.247 . S
O467 Cd463 2.439 . S
O467 C468 1.208 . S
C468 O466 1.247 . S
C468 O467 1.208 . S
C469 O474 1.247 . S
C469 O475 1.208 . S
C470 O462 1.315 . S
C470 O465 1.279 . S
C471 O472 1.315 . S
C471 O473 1.279 . S
O472 Cd464 2.223 . S
O472 C471 1.315 . S
O473 Cd463 2.240 . S
O473 C471 1.279 . S
O474 Cd464 2.297 . S
O474 C469 1.247 . S
O475 Cd464 2.439 . S
O475 C469 1.208 . S
O476 Cd477 2.223 . S
O476 C484 1.315 . S
Cd477 O476 2.223 . S
Cd477 O480 2.297 . S
Cd477 O481 2.439 . S
Cd477 O487 2.240 . S
Cd478 O479 2.240 . S
Cd478 O486 2.223 . S
Cd478 O488 2.297 . S
Cd478 O489 2.439 . S
O479 Cd478 2.240 . S
O479 C484 1.279 . S
O480 Cd477 2.297 . S
O480 C482 1.247 . S
O481 Cd477 2.439 . S
O481 C482 1.208 . S
C482 O480 1.247 . S
C482 O481 1.208 . S
C483 O488 1.247 . S
C483 O489 1.208 . S
C484 O476 1.315 . S
C484 O479 1.279 . S
C485 O486 1.315 . S
C485 O487 1.279 . S
O486 Cd478 2.223 . S
O486 C485 1.315 . S
O487 Cd477 2.240 . S
O487 C485 1.279 . S
O488 Cd478 2.297 . S
O488 C483 1.247 . S
O489 Cd478 2.439 . S
O489 C483 1.208 . S
O490 Cd491 2.223 . S
O490 C498 1.315 . S
Cd491 O490 2.223 . S
Cd491 O494 2.297 . S
Cd491 O495 2.439 . S
Cd491 O501 2.240 . S
Cd492 O493 2.240 . S
Cd492 O500 2.223 . S
Cd492 O502 2.297 . S
Cd492 O503 2.439 . S
O493 Cd492 2.240 . S
O493 C498 1.279 . S
O494 Cd491 2.297 . S
O494 C496 1.247 . S
O495 Cd491 2.439 . S
O495 C496 1.208 . S
C496 O494 1.247 . S
C496 O495 1.208 . S
C497 O502 1.247 . S
C497 O503 1.208 . S
C498 O490 1.315 . S
C498 O493 1.279 . S
C499 O500 1.315 . S
C499 O501 1.279 . S
O500 Cd492 2.223 . S
O500 C499 1.315 . S
O501 Cd491 2.240 . S
O501 C499 1.279 . S
O502 Cd492 2.297 . S
O502 C497 1.247 . S
O503 Cd492 2.439 . S
O503 C497 1.208 . S
H504 C510 0.930 . S
H505 C513 0.930 . S
H506 C514 0.930 . S
H507 C515 0.930 . S
H508 C518 0.930 . S
H509 C519 0.930 . S
C510 H504 0.930 . S
C510 C511 1.355 . S
C510 C512 1.415 . S
C511 C510 1.355 . S
C511 C513 1.419 . S
C512 C510 1.415 . S
C512 C517 1.425 1_556 S
C512 C519 1.409 1_556 S
C513 H505 0.930 . S
C513 C511 1.419 . S
C513 C514 1.362 . S
C514 H506 0.930 . S
C514 C513 1.362 . S
C514 C517 1.409 1_556 S
C515 H507 0.930 . S
C515 C516 1.355 . S
C515 C517 1.415 . S
C516 C515 1.355 . S
C516 C518 1.419 . S
C517 C512 1.425 1_554 S
C517 C514 1.409 1_554 S
C517 C515 1.415 . S
C518 H508 0.930 . S
C518 C516 1.419 . S
C518 C519 1.362 . S
C519 H509 0.930 . S
C519 C512 1.409 1_554 S
C519 C518 1.362 . S
H520 C526 0.930 . S
H521 C529 0.930 . S
H522 C530 0.930 . S
H523 C531 0.930 . S
H524 C534 0.930 . S
H525 C535 0.930 . S
C526 H520 0.930 . S
C526 C527 1.355 . S
C526 C528 1.415 1_556 S
C527 C526 1.355 . S
C527 C529 1.419 . S
C528 C526 1.415 1_554 S
C528 C533 1.425 . S
C528 C535 1.409 . S
C529 H521 0.930 . S
C529 C527 1.419 . S
C529 C530 1.362 . S
C530 H522 0.930 . S
C530 C529 1.362 . S
C530 C533 1.409 1_556 S
C531 H523 0.930 . S
C531 C532 1.355 . S
C531 C533 1.415 . S
C532 C531 1.355 . S
C532 C534 1.419 . S
C533 C528 1.425 . S
C533 C530 1.409 1_554 S
C533 C531 1.415 . S
C534 H524 0.930 . S
C534 C532 1.419 . S
C534 C535 1.362 . S
C535 H525 0.930 . S
C535 C528 1.409 . S
C535 C534 1.362 . S
H536 C542 0.930 . S
H537 C545 0.930 . S
H538 C546 0.930 . S
H539 C547 0.930 . S
H540 C550 0.930 . S
H541 C551 0.930 1_554 S
C542 H536 0.930 . S
C542 C543 1.355 . S
C542 C544 1.415 . S
C543 C542 1.355 . S
C543 C545 1.419 . S
C544 C542 1.415 . S
C544 C549 1.425 1_554 S
C544 C551 1.409 1_554 S
C545 H537 0.930 . S
C545 C543 1.419 . S
C545 C546 1.362 . S
C546 H538 0.930 . S
C546 C545 1.362 . S
C546 C549 1.409 1_554 S
C547 H539 0.930 . S
C547 C548 1.355 . S
C547 C549 1.415 . S
C548 C547 1.355 . S
C548 C550 1.419 . S
C549 C544 1.425 1_556 S
C549 C546 1.409 1_556 S
C549 C547 1.415 . S
C550 H540 0.930 . S
C550 C548 1.419 . S
C550 C551 1.362 . S
C551 H541 0.930 1_556 S
C551 C544 1.409 1_556 S
C551 C550 1.362 . S
H552 C558 0.930 . S
H553 C561 0.930 . S
H554 C562 0.930 . S
H555 C563 0.930 . S
H556 C566 0.930 . S
H557 C567 0.930 . S
C558 H552 0.930 . S
C558 C559 1.355 . S
C558 C560 1.415 . S
C559 C558 1.355 . S
C559 C561 1.419 . S
C560 C558 1.415 . S
C560 C565 1.425 . S
C560 C567 1.409 . S
C561 H553 0.930 . S
C561 C559 1.419 . S
C561 C562 1.362 . S
C562 H554 0.930 . S
C562 C561 1.362 . S
C562 C565 1.409 . S
C563 H555 0.930 . S
C563 C564 1.355 . S
C563 C565 1.415 . S
C564 C563 1.355 . S
C564 C566 1.419 . S
C565 C560 1.425 . S
C565 C562 1.409 . S
C565 C563 1.415 . S
C566 H556 0.930 . S
C566 C564 1.419 . S
C566 C567 1.362 . S
C567 H557 0.930 . S
C567 C560 1.409 . S
C567 C566 1.362 . S
H568 C574 0.930 . S
H569 C577 0.930 . S
H570 C578 0.930 . S
H571 C579 0.930 . S
H572 C582 0.930 . S
H573 C583 0.930 . S
C574 H568 0.930 . S
C574 C575 1.355 . S
C574 C576 1.415 . S
C575 C574 1.355 . S
C575 C577 1.419 . S
C576 C574 1.415 . S
C576 C581 1.425 . S
C576 C583 1.409 . S
C577 H569 0.930 . S
C577 C575 1.419 . S
C577 C578 1.362 . S
C578 H570 0.930 . S
C578 C577 1.362 . S
C578 C581 1.409 . S
C579 H571 0.930 . S
C579 C580 1.355 . S
C579 C581 1.415 . S
C580 C579 1.355 . S
C580 C582 1.419 . S
C581 C576 1.425 . S
C581 C578 1.409 . S
C581 C579 1.415 . S
C582 H572 0.930 . S
C582 C580 1.419 . S
C582 C583 1.362 . S
C583 H573 0.930 . S
C583 C576 1.409 . S
C583 C582 1.362 . S
H584 C590 0.930 . S
H585 C593 0.930 . S
H586 C594 0.930 . S
H587 C595 0.930 . S
H588 C598 0.930 . S
H589 C599 0.930 . S
C590 H584 0.930 . S
C590 C591 1.355 . S
C590 C592 1.415 . S
C591 C590 1.355 . S
C591 C593 1.419 . S
C592 C590 1.415 . S
C592 C597 1.425 . S
C592 C599 1.409 . S
C593 H585 0.930 . S
C593 C591 1.419 . S
C593 C594 1.362 . S
C594 H586 0.930 . S
C594 C593 1.362 . S
C594 C597 1.409 . S
C595 H587 0.930 . S
C595 C596 1.355 . S
C595 C597 1.415 . S
C596 C595 1.355 . S
C596 C598 1.419 . S
C597 C592 1.425 . S
C597 C594 1.409 . S
C597 C595 1.415 . S
C598 H588 0.930 . S
C598 C596 1.419 . S
C598 C599 1.362 . S
C599 H589 0.930 . S
C599 C592 1.409 . S
C599 C598 1.362 . S
H600 C606 0.930 . S
H601 C609 0.930 . S
H602 C610 0.930 1_556 S
H603 C611 0.930 . S
H604 C614 0.930 . S
H605 C615 0.930 . S
C606 H600 0.930 . S
C606 C607 1.355 . S
C606 C608 1.415 . S
C607 C606 1.355 . S
C607 C609 1.419 . S
C608 C606 1.415 . S
C608 C613 1.425 1_554 S
C608 C615 1.409 1_554 S
C609 H601 0.930 . S
C609 C607 1.419 . S
C609 C610 1.362 . S
C610 H602 0.930 1_554 S
C610 C609 1.362 . S
C610 C613 1.409 1_554 S
C611 H603 0.930 . S
C611 C612 1.355 . S
C611 C613 1.415 . S
C612 C611 1.355 . S
C612 C614 1.419 . S
C613 C608 1.425 1_556 S
C613 C610 1.409 1_556 S
C613 C611 1.415 . S
C614 H604 0.930 . S
C614 C612 1.419 . S
C614 C615 1.362 . S
C615 H605 0.930 . S
C615 C608 1.409 1_556 S
C615 C614 1.362 . S
H616 C622 0.930 . S
H617 C625 0.930 . S
H618 C626 0.930 . S
H619 C627 0.930 . S
H620 C630 0.930 . S
H621 C631 0.930 . S
C622 H616 0.930 . S
C622 C623 1.355 . S
C622 C624 1.415 1_554 S
C623 C622 1.355 . S
C623 C625 1.419 . S
C624 C622 1.415 1_556 S
C624 C629 1.425 . S
C624 C631 1.409 . S
C625 H617 0.930 . S
C625 C623 1.419 . S
C625 C626 1.362 . S
C626 H618 0.930 . S
C626 C625 1.362 . S
C626 C629 1.409 1_554 S
C627 H619 0.930 . S
C627 C628 1.355 . S
C627 C629 1.415 . S
C628 C627 1.355 . S
C628 C630 1.419 . S
C629 C624 1.425 . S
C629 C626 1.409 1_556 S
C629 C627 1.415 . S
C630 H620 0.930 . S
C630 C628 1.419 . S
C630 C631 1.362 . S
C631 H621 0.930 . S
C631 C624 1.409 . S
C631 C630 1.362 . S
H632 C638 0.930 . S
H633 C641 0.930 . S
H634 C642 0.930 . S
H635 C643 0.930 . S
H636 C646 0.930 . S
H637 C647 0.933 . S
C638 H632 0.930 . S
C638 C639 1.355 . S
C638 C640 1.415 . S
C639 C638 1.355 . S
C639 C641 1.419 . S
C640 C638 1.415 . S
C640 C645 1.425 1_556 S
C640 C647 1.409 1_556 S
C641 H633 0.930 . S
C641 C639 1.419 . S
C641 C642 1.362 . S
C642 H634 0.930 . S
C642 C641 1.362 . S
C642 C645 1.409 1_556 S
C643 H635 0.930 . S
C643 C644 1.355 . S
C643 C645 1.415 . S
C644 C643 1.355 . S
C644 C646 1.419 . S
C645 C640 1.425 1_554 S
C645 C642 1.409 1_554 S
C645 C643 1.415 . S
C646 H636 0.930 . S
C646 C644 1.419 . S
C646 C647 1.362 . S
C647 H637 0.933 . S
C647 C640 1.409 1_554 S
C647 C646 1.362 . S
H648 C654 0.930 . S
H649 C657 0.930 . S
H650 C658 0.930 . S
H651 C659 0.930 . S
H652 C662 0.930 . S
H653 C663 0.930 . S
C654 H648 0.930 . S
C654 C655 1.355 . S
C654 C656 1.415 . S
C655 C654 1.355 . S
C655 C657 1.419 . S
C656 C654 1.415 . S
C656 C661 1.425 . S
C656 C663 1.409 . S
C657 H649 0.930 . S
C657 C655 1.419 . S
C657 C658 1.362 . S
C658 H650 0.930 . S
C658 C657 1.362 . S
C658 C661 1.409 . S
C659 H651 0.930 . S
C659 C660 1.355 . S
C659 C661 1.415 . S
C660 C659 1.355 . S
C660 C662 1.419 . S
C661 C656 1.425 . S
C661 C658 1.409 . S
C661 C659 1.415 . S
C662 H652 0.930 . S
C662 C660 1.419 . S
C662 C663 1.362 . S
C663 H653 0.930 . S
C663 C656 1.409 . S
C663 C662 1.362 . S
H664 C670 0.930 . S
H665 C673 0.930 . S
H666 C674 0.930 . S
H667 C675 0.930 . S
H668 C678 0.930 . S
H669 C679 0.930 . S
C670 H664 0.930 . S
C670 C671 1.355 . S
C670 C672 1.415 . S
C671 C670 1.355 . S
C671 C673 1.419 . S
C672 C670 1.415 . S
C672 C677 1.425 . S
C672 C679 1.409 . S
C673 H665 0.930 . S
C673 C671 1.419 . S
C673 C674 1.362 . S
C674 H666 0.930 . S
C674 C673 1.362 . S
C674 C677 1.409 . S
C675 H667 0.930 . S
C675 C676 1.355 . S
C675 C677 1.415 . S
C676 C675 1.355 . S
C676 C678 1.419 . S
C677 C672 1.425 . S
C677 C674 1.409 . S
C677 C675 1.415 . S
C678 H668 0.930 . S
C678 C676 1.419 . S
C678 C679 1.362 . S
C679 H669 0.930 . S
C679 C672 1.409 . S
C679 C678 1.362 . S
H680 C686 0.930 . S
H681 C689 0.930 . S
H682 C690 0.930 . S
H683 C691 0.930 . S
H684 C694 0.930 . S
H685 C695 0.930 . S
C686 H680 0.930 . S
C686 C687 1.355 . S
C686 C688 1.415 . S
C687 C686 1.355 . S
C687 C689 1.419 . S
C688 C686 1.415 . S
C688 C693 1.425 . S
C688 C695 1.409 . S
C689 H681 0.930 . S
C689 C687 1.419 . S
C689 C690 1.362 . S
C690 H682 0.930 . S
C690 C689 1.362 . S
C690 C693 1.409 . S
C691 H683 0.930 . S
C691 C692 1.355 . S
C691 C693 1.415 . S
C692 C691 1.355 . S
C692 C694 1.419 . S
C693 C688 1.425 . S
C693 C690 1.409 . S
C693 C691 1.415 . S
C694 H684 0.930 . S
C694 C692 1.419 . S
C694 C695 1.362 . S
C695 H685 0.930 . S
C695 C688 1.409 . S
C695 C694 1.362 . S
H696 C702 0.930 . S
H697 C705 0.930 . S
H698 C706 0.930 . S
H699 C707 0.930 . S
H700 C710 0.930 . S
H701 C711 0.930 . S
C702 H696 0.930 . S
C702 C703 1.355 . S
C702 C704 1.415 . S
C703 C702 1.355 . S
C703 C705 1.419 . S
C704 C702 1.415 . S
C704 C709 1.425 . S
C704 C711 1.409 . S
C705 H697 0.930 . S
C705 C703 1.419 . S
C705 C706 1.362 . S
C706 H698 0.930 . S
C706 C705 1.362 . S
C706 C709 1.409 . S
C707 H699 0.930 . S
C707 C708 1.355 . S
C707 C709 1.415 . S
C708 C707 1.355 . S
C708 C710 1.419 . S
C709 C704 1.425 . S
C709 C706 1.409 . S
C709 C707 1.415 . S
C710 H700 0.930 . S
C710 C708 1.419 . S
C710 C711 1.362 . S
C711 H701 0.930 . S
C711 C704 1.409 . S
C711 C710 1.362 . S
H712 C718 0.930 . S
H713 C721 0.930 . S
H714 C722 0.930 . S
H715 C723 0.930 . S
H716 C726 0.930 . S
H717 C727 0.930 . S
C718 H712 0.930 . S
C718 C719 1.355 . S
C718 C720 1.415 . S
C719 C718 1.355 . S
C719 C721 1.419 . S
C720 C718 1.415 . S
C720 C725 1.425 . S
C720 C727 1.409 . S
C721 H713 0.930 . S
C721 C719 1.419 . S
C721 C722 1.362 . S
C722 H714 0.930 . S
C722 C721 1.362 . S
C722 C725 1.409 . S
C723 H715 0.930 . S
C723 C724 1.355 . S
C723 C725 1.415 . S
C724 C723 1.355 . S
C724 C726 1.419 . S
C725 C720 1.425 . S
C725 C722 1.409 . S
C725 C723 1.415 . S
C726 H716 0.930 . S
C726 C724 1.419 . S
C726 C727 1.362 . S
C727 H717 0.930 . S
C727 C720 1.409 . S
C727 C726 1.362 . S
H728 C734 0.930 . S
H729 C737 0.930 . S
H730 C738 0.930 . S
H731 C739 0.930 . S
H732 C742 0.930 . S
H733 C743 0.930 . S
C734 H728 0.930 . S
C734 C735 1.355 . S
C734 C736 1.415 . S
C735 C734 1.355 . S
C735 C737 1.419 . S
C736 C734 1.415 . S
C736 C741 1.425 . S
C736 C743 1.409 . S
C737 H729 0.930 . S
C737 C735 1.419 . S
C737 C738 1.362 . S
C738 H730 0.930 . S
C738 C737 1.362 . S
C738 C741 1.409 . S
C739 H731 0.930 . S
C739 C740 1.355 . S
C739 C741 1.415 . S
C740 C739 1.355 . S
C740 C742 1.419 . S
C741 C736 1.425 . S
C741 C738 1.409 . S
C741 C739 1.415 . S
C742 H732 0.930 . S
C742 C740 1.419 . S
C742 C743 1.362 . S
C743 H733 0.930 . S
C743 C736 1.409 . S
C743 C742 1.362 . S
H744 C750 0.930 . S
H745 C753 0.930 . S
H746 C754 0.930 . S
H747 C755 0.930 . S
H748 C758 0.930 . S
H749 C759 0.930 . S
C750 H744 0.930 . S
C750 C751 1.355 . S
C750 C752 1.415 . S
C751 C750 1.355 . S
C751 C753 1.419 . S
C752 C750 1.415 . S
C752 C757 1.425 . S
C752 C759 1.409 . S
C753 H745 0.930 . S
C753 C751 1.419 . S
C753 C754 1.362 . S
C754 H746 0.930 . S
C754 C753 1.362 . S
C754 C757 1.409 . S
C755 H747 0.930 . S
C755 C756 1.355 . S
C755 C757 1.415 . S
C756 C755 1.355 . S
C756 C758 1.419 . S
C757 C752 1.425 . S
C757 C754 1.409 . S
C757 C755 1.415 . S
C758 H748 0.930 . S
C758 C756 1.419 . S
C758 C759 1.362 . S
C759 H749 0.930 . S
C759 C752 1.409 . S
C759 C758 1.362 . S
H760 C766 0.930 . S
H761 C769 0.930 . S
H762 C770 0.930 . S
H763 C771 0.930 . S
H764 C774 0.930 . S
H765 C775 0.930 . S
C766 H760 0.930 . S
C766 C767 1.355 . S
C766 C768 1.415 . S
C767 C766 1.355 . S
C767 C769 1.419 . S
C768 C766 1.415 . S
C768 C773 1.425 . S
C768 C775 1.409 . S
C769 H761 0.930 . S
C769 C767 1.419 . S
C769 C770 1.362 . S
C770 H762 0.930 . S
C770 C769 1.362 . S
C770 C773 1.409 . S
C771 H763 0.930 . S
C771 C772 1.355 . S
C771 C773 1.415 . S
C772 C771 1.355 . S
C772 C774 1.419 . S
C773 C768 1.425 . S
C773 C770 1.409 . S
C773 C771 1.415 . S
C774 H764 0.930 . S
C774 C772 1.419 . S
C774 C775 1.362 . S
C775 H765 0.930 . S
C775 C768 1.409 . S
C775 C774 1.362 . S
H776 C782 0.930 . S
H777 C785 0.930 . S
H778 C786 0.930 . S
H779 C787 0.930 . S
H780 C790 0.930 . S
H781 C791 0.930 . S
C782 H776 0.930 . S
C782 C783 1.355 . S
C782 C784 1.415 . S
C783 C782 1.355 . S
C783 C785 1.419 . S
C784 C782 1.415 . S
C784 C789 1.425 . S
C784 C791 1.409 . S
C785 H777 0.930 . S
C785 C783 1.419 . S
C785 C786 1.362 . S
C786 H778 0.930 . S
C786 C785 1.362 . S
C786 C789 1.409 . S
C787 H779 0.930 . S
C787 C788 1.355 . S
C787 C789 1.415 . S
C788 C787 1.355 . S
C788 C790 1.419 . S
C789 C784 1.425 . S
C789 C786 1.409 . S
C789 C787 1.415 . S
C790 H780 0.930 . S
C790 C788 1.419 . S
C790 C791 1.362 . S
C791 H781 0.930 . S
C791 C784 1.409 . S
C791 C790 1.362 . S
H792 C798 0.930 . S
H793 C801 0.930 . S
H794 C802 0.930 . S
H795 C803 0.930 . S
H796 C806 0.930 . S
H797 C807 0.930 . S
C798 H792 0.930 . S
C798 C799 1.355 . S
C798 C800 1.415 . S
C799 C798 1.355 . S
C799 C801 1.419 . S
C800 C798 1.415 . S
C800 C805 1.425 . S
C800 C807 1.409 . S
C801 H793 0.930 . S
C801 C799 1.419 . S
C801 C802 1.362 . S
C802 H794 0.930 . S
C802 C801 1.362 . S
C802 C805 1.409 . S
C803 H795 0.930 . S
C803 C804 1.355 . S
C803 C805 1.415 . S
C804 C803 1.355 . S
C804 C806 1.419 . S
C805 C800 1.425 . S
C805 C802 1.409 . S
C805 C803 1.415 . S
C806 H796 0.930 . S
C806 C804 1.419 . S
C806 C807 1.362 . S
C807 H797 0.930 . S
C807 C800 1.409 . S
C807 C806 1.362 . S
H808 C814 0.930 . S
H809 C817 0.930 . S
H810 C818 0.930 . S
H811 C819 0.930 . S
H812 C822 0.930 . S
H813 C823 0.930 . S
C814 H808 0.930 . S
C814 C815 1.355 . S
C814 C816 1.415 . S
C815 C814 1.355 . S
C815 C817 1.419 . S
C816 C814 1.415 . S
C816 C821 1.425 . S
C816 C823 1.409 . S
C817 H809 0.930 . S
C817 C815 1.419 . S
C817 C818 1.362 . S
C818 H810 0.930 . S
C818 C817 1.362 . S
C818 C821 1.409 . S
C819 H811 0.930 . S
C819 C820 1.355 . S
C819 C821 1.415 . S
C820 C819 1.355 . S
C820 C822 1.419 . S
C821 C816 1.425 . S
C821 C818 1.409 . S
C821 C819 1.415 . S
C822 H812 0.930 . S
C822 C820 1.419 . S
C822 C823 1.362 . S
C823 H813 0.930 . S
C823 C816 1.409 . S
C823 C822 1.362 . S
H824 C830 0.930 . S
H825 C833 0.930 . S
H826 C834 0.930 . S
H827 C835 0.930 . S
H828 C838 0.930 . S
H829 C839 0.930 . S
C830 H824 0.930 . S
C830 C831 1.355 . S
C830 C832 1.415 . S
C831 C830 1.355 . S
C831 C833 1.419 . S
C832 C830 1.415 . S
C832 C837 1.425 . S
C832 C839 1.409 . S
C833 H825 0.930 . S
C833 C831 1.419 . S
C833 C834 1.362 . S
C834 H826 0.930 . S
C834 C833 1.362 . S
C834 C837 1.409 . S
C835 H827 0.930 . S
C835 C836 1.355 . S
C835 C837 1.415 . S
C836 C835 1.355 . S
C836 C838 1.419 . S
C837 C832 1.425 . S
C837 C834 1.409 . S
C837 C835 1.415 . S
C838 H828 0.930 . S
C838 C836 1.419 . S
C838 C839 1.362 . S
C839 H829 0.930 . S
C839 C832 1.409 . S
C839 C838 1.362 . S
H840 C846 0.930 . S
H841 C849 0.930 . S
H842 C850 0.930 . S
H843 C851 0.930 . S
H844 C854 0.930 . S
H845 C855 0.930 . S
C846 H840 0.930 . S
C846 C847 1.355 . S
C846 C848 1.415 . S
C847 C846 1.355 . S
C847 C849 1.419 . S
C848 C846 1.415 . S
C848 C853 1.425 . S
C848 C855 1.409 . S
C849 H841 0.930 . S
C849 C847 1.419 . S
C849 C850 1.362 . S
C850 H842 0.930 . S
C850 C849 1.362 . S
C850 C853 1.409 . S
C851 H843 0.930 . S
C851 C852 1.355 . S
C851 C853 1.415 . S
C852 C851 1.355 . S
C852 C854 1.419 . S
C853 C848 1.425 . S
C853 C850 1.409 . S
C853 C851 1.415 . S
C854 H844 0.930 . S
C854 C852 1.419 . S
C854 C855 1.362 . S
C855 H845 0.930 . S
C855 C848 1.409 . S
C855 C854 1.362 . S
H856 C862 0.930 . S
H857 C865 0.930 . S
H858 C866 0.930 . S
H859 C867 0.930 . S
H860 C870 0.930 . S
H861 C871 0.930 . S
C862 H856 0.930 . S
C862 C863 1.355 . S
C862 C864 1.415 . S
C863 C862 1.355 . S
C863 C865 1.419 . S
C864 C862 1.415 . S
C864 C869 1.425 . S
C864 C871 1.409 . S
C865 H857 0.930 . S
C865 C863 1.419 . S
C865 C866 1.362 . S
C866 H858 0.930 . S
C866 C865 1.362 . S
C866 C869 1.409 . S
C867 H859 0.930 . S
C867 C868 1.355 . S
C867 C869 1.415 . S
C868 C867 1.355 . S
C868 C870 1.419 . S
C869 C864 1.425 . S
C869 C866 1.409 . S
C869 C867 1.415 . S
C870 H860 0.930 . S
C870 C868 1.419 . S
C870 C871 1.362 . S
C871 H861 0.930 . S
C871 C864 1.409 . S
C871 C870 1.362 . S
H872 C878 0.930 . S
H873 C881 0.930 . S
H874 C882 0.930 . S
H875 C883 0.930 . S
H876 C886 0.930 . S
H877 C887 0.930 . S
C878 H872 0.930 . S
C878 C879 1.355 . S
C878 C880 1.415 . S
C879 C878 1.355 . S
C879 C881 1.419 . S
C880 C878 1.415 . S
C880 C885 1.425 . S
C880 C887 1.409 . S
C881 H873 0.930 . S
C881 C879 1.419 . S
C881 C882 1.362 . S
C882 H874 0.930 . S
C882 C881 1.362 . S
C882 C885 1.409 . S
C883 H875 0.930 . S
C883 C884 1.355 . S
C883 C885 1.415 . S
C884 C883 1.355 . S
C884 C886 1.419 . S
C885 C880 1.425 . S
C885 C882 1.409 . S
C885 C883 1.415 . S
C886 H876 0.930 . S
C886 C884 1.419 . S
C886 C887 1.362 . S
C887 H877 0.930 . S
C887 C880 1.409 . S
C887 C886 1.362 . S
H888 C894 0.930 . S
H889 C897 0.930 . S
H890 C898 0.930 . S
H891 C899 0.930 . S
H892 C902 0.930 . S
H893 C903 0.930 . S
C894 H888 0.930 . S
C894 C895 1.355 . S
C894 C896 1.415 . S
C895 C894 1.355 . S
C895 C897 1.419 . S
C896 C894 1.415 . S
C896 C901 1.425 . S
C896 C903 1.409 . S
C897 H889 0.930 . S
C897 C895 1.419 . S
C897 C898 1.362 . S
C898 H890 0.930 . S
C898 C897 1.362 . S
C898 C901 1.409 . S
C899 H891 0.930 . S
C899 C900 1.355 . S
C899 C901 1.415 . S
C900 C899 1.355 . S
C900 C902 1.419 . S
C901 C896 1.425 . S
C901 C898 1.409 . S
C901 C899 1.415 . S
C902 H892 0.930 . S
C902 C900 1.419 . S
C902 C903 1.362 . S
C903 H893 0.930 . S
C903 C896 1.409 . S
C903 C902 1.362 . S
H904 C910 0.930 . S
H905 C913 0.930 . S
H906 C914 0.930 . S
H907 C915 0.930 . S
H908 C918 0.930 . S
H909 C919 0.930 . S
C910 H904 0.930 . S
C910 C911 1.355 . S
C910 C912 1.415 . S
C911 C910 1.355 . S
C911 C913 1.419 . S
C912 C910 1.415 . S
C912 C917 1.425 . S
C912 C919 1.409 . S
C913 H905 0.930 . S
C913 C911 1.419 . S
C913 C914 1.362 . S
C914 H906 0.930 . S
C914 C913 1.362 . S
C914 C917 1.409 . S
C915 H907 0.930 . S
C915 C916 1.355 . S
C915 C917 1.415 . S
C916 C915 1.355 . S
C916 C918 1.419 . S
C917 C912 1.425 . S
C917 C914 1.409 . S
C917 C915 1.415 . S
C918 H908 0.930 . S
C918 C916 1.419 . S
C918 C919 1.362 . S
C919 H909 0.930 . S
C919 C912 1.409 . S
C919 C918 1.362 . S
H920 C926 0.930 . S
H921 C929 0.930 . S
H922 C930 0.930 . S
H923 C931 0.930 . S
H924 C934 0.930 . S
H925 C935 0.930 . S
C926 H920 0.930 . S
C926 C927 1.355 . S
C926 C928 1.415 . S
C927 C926 1.355 . S
C927 C929 1.419 . S
C928 C926 1.415 . S
C928 C933 1.425 . S
C928 C935 1.409 . S
C929 H921 0.930 . S
C929 C927 1.419 . S
C929 C930 1.362 . S
C930 H922 0.930 . S
C930 C929 1.362 . S
C930 C933 1.409 . S
C931 H923 0.930 . S
C931 C932 1.355 . S
C931 C933 1.415 . S
C932 C931 1.355 . S
C932 C934 1.419 . S
C933 C928 1.425 . S
C933 C930 1.409 . S
C933 C931 1.415 . S
C934 H924 0.930 . S
C934 C932 1.419 . S
C934 C935 1.362 . S
C935 H925 0.930 . S
C935 C928 1.409 . S
C935 C934 1.362 . S
H936 C942 0.930 . S
H937 C945 0.930 . S
H938 C946 0.930 . S
H939 C947 0.930 . S
H940 C950 0.930 . S
H941 C951 0.930 . S
C942 H936 0.930 . S
C942 C943 1.355 . S
C942 C944 1.415 . S
C943 C942 1.355 . S
C943 C945 1.419 . S
C944 C942 1.415 . S
C944 C949 1.425 . S
C944 C951 1.409 . S
C945 H937 0.930 . S
C945 C943 1.419 . S
C945 C946 1.362 . S
C946 H938 0.930 . S
C946 C945 1.362 . S
C946 C949 1.409 . S
C947 H939 0.930 . S
C947 C948 1.355 . S
C947 C949 1.415 . S
C948 C947 1.355 . S
C948 C950 1.419 . S
C949 C944 1.425 . S
C949 C946 1.409 . S
C949 C947 1.415 . S
C950 H940 0.930 . S
C950 C948 1.419 . S
C950 C951 1.362 . S
C951 H941 0.930 . S
C951 C944 1.409 . S
C951 C950 1.362 . S
H952 C958 0.930 . S
H953 C961 0.930 . S
H954 C962 0.930 . S
H955 C963 0.930 . S
H956 C966 0.930 . S
H957 C967 0.930 . S
C958 H952 0.930 . S
C958 C959 1.355 . S
C958 C960 1.415 . S
C959 C958 1.355 . S
C959 C961 1.419 . S
C960 C958 1.415 . S
C960 C965 1.425 . S
C960 C967 1.409 . S
C961 H953 0.930 . S
C961 C959 1.419 . S
C961 C962 1.362 . S
C962 H954 0.930 . S
C962 C961 1.362 . S
C962 C965 1.409 . S
C963 H955 0.930 . S
C963 C964 1.355 . S
C963 C965 1.415 . S
C964 C963 1.355 . S
C964 C966 1.419 . S
C965 C960 1.425 . S
C965 C962 1.409 . S
C965 C963 1.415 . S
C966 H956 0.930 . S
C966 C964 1.419 . S
C966 C967 1.362 . S
C967 H957 0.930 . S
C967 C960 1.409 . S
C967 C966 1.362 . S
H968 C974 0.930 . S
H969 C977 0.930 . S
H970 C978 0.930 . S
H971 C979 0.930 . S
H972 C982 0.930 . S
H973 C983 0.930 . S
C974 H968 0.930 . S
C974 C975 1.355 . S
C974 C976 1.415 . S
C975 C974 1.355 . S
C975 C977 1.419 . S
C976 C974 1.415 . S
C976 C981 1.425 . S
C976 C983 1.409 . S
C977 H969 0.930 . S
C977 C975 1.419 . S
C977 C978 1.362 . S
C978 H970 0.930 . S
C978 C977 1.362 . S
C978 C981 1.409 . S
C979 H971 0.930 . S
C979 C980 1.355 . S
C979 C981 1.415 . S
C980 C979 1.355 . S
C980 C982 1.419 . S
C981 C976 1.425 . S
C981 C978 1.409 . S
C981 C979 1.415 . S
C982 H972 0.930 . S
C982 C980 1.419 . S
C982 C983 1.362 . S
C983 H973 0.930 . S
C983 C976 1.409 . S
C983 C982 1.362 . S
H984 C990 0.930 . S
H985 C993 0.930 . S
H986 C994 0.930 . S
H987 C995 0.930 . S
H988 C998 0.930 . S
H989 C999 0.930 . S
C990 H984 0.930 . S
C990 C991 1.355 . S
C990 C992 1.415 . S
C991 C990 1.355 . S
C991 C993 1.419 . S
C992 C990 1.415 . S
C992 C997 1.425 . S
C992 C999 1.409 . S
C993 H985 0.930 . S
C993 C991 1.419 . S
C993 C994 1.362 . S
C994 H986 0.930 . S
C994 C993 1.362 . S
C994 C997 1.409 . S
C995 H987 0.930 . S
C995 C996 1.355 . S
C995 C997 1.415 . S
C996 C995 1.355 . S
C996 C998 1.419 . S
C997 C992 1.425 . S
C997 C994 1.409 . S
C997 C995 1.415 . S
C998 H988 0.930 . S
C998 C996 1.419 . S
C998 C999 1.362 . S
C999 H989 0.930 . S
C999 C992 1.409 . S
C999 C998 1.362 . S
H1000 C1006 0.930 . S
H1001 C1009 0.930 . S
H1002 C1010 0.930 . S
H1003 C1011 0.930 . S
H1004 C1014 0.930 . S
H1005 C1015 0.930 . S
C1006 H1000 0.930 . S
C1006 C1007 1.355 . S
C1006 C1008 1.415 . S
C1007 C1006 1.355 . S
C1007 C1009 1.419 . S
C1008 C1006 1.415 . S
C1008 C1013 1.425 . S
C1008 C1015 1.409 . S
C1009 H1001 0.930 . S
C1009 C1007 1.419 . S
C1009 C1010 1.362 . S
C1010 H1002 0.930 . S
C1010 C1009 1.362 . S
C1010 C1013 1.409 . S
C1011 H1003 0.930 . S
C1011 C1012 1.355 . S
C1011 C1013 1.415 . S
C1012 C1011 1.355 . S
C1012 C1014 1.419 . S
C1013 C1008 1.425 . S
C1013 C1010 1.409 . S
C1013 C1011 1.415 . S
C1014 H1004 0.930 . S
C1014 C1012 1.419 . S
C1014 C1015 1.362 . S
C1015 H1005 0.930 . S
C1015 C1008 1.409 . S
C1015 C1014 1.362 . S
H1016 C1022 0.930 . S
H1017 C1025 0.930 . S
H1018 C1026 0.930 . S
H1019 C1027 0.930 . S
H1020 C1030 0.930 . S
H1021 C1031 0.930 . S
C1022 H1016 0.930 . S
C1022 C1023 1.355 . S
C1022 C1024 1.415 . S
C1023 C1022 1.355 . S
C1023 C1025 1.419 . S
C1024 C1022 1.415 . S
C1024 C1029 1.425 . S
C1024 C1031 1.409 . S
C1025 H1017 0.930 . S
C1025 C1023 1.419 . S
C1025 C1026 1.362 . S
C1026 H1018 0.930 . S
C1026 C1025 1.362 . S
C1026 C1029 1.409 . S
C1027 H1019 0.930 . S
C1027 C1028 1.355 . S
C1027 C1029 1.415 . S
C1028 C1027 1.355 . S
C1028 C1030 1.419 . S
C1029 C1024 1.425 . S
C1029 C1026 1.409 . S
C1029 C1027 1.415 . S
C1030 H1020 0.930 . S
C1030 C1028 1.419 . S
C1030 C1031 1.362 . S
C1031 H1021 0.930 . S
C1031 C1024 1.409 . S
C1031 C1030 1.362 . S
H1032 C1038 0.930 . S
H1033 C1041 0.930 . S
H1034 C1042 0.930 . S
H1035 C1043 0.930 . S
H1036 C1046 0.930 . S
H1037 C1047 0.930 . S
C1038 H1032 0.930 . S
C1038 C1039 1.355 . S
C1038 C1040 1.415 . S
C1039 C1038 1.355 . S
C1039 C1041 1.419 . S
C1040 C1038 1.415 . S
C1040 C1045 1.425 . S
C1040 C1047 1.409 . S
C1041 H1033 0.930 . S
C1041 C1039 1.419 . S
C1041 C1042 1.362 . S
C1042 H1034 0.930 . S
C1042 C1041 1.362 . S
C1042 C1045 1.409 . S
C1043 H1035 0.930 . S
C1043 C1044 1.355 . S
C1043 C1045 1.415 . S
C1044 C1043 1.355 . S
C1044 C1046 1.419 . S
C1045 C1040 1.425 . S
C1045 C1042 1.409 . S
C1045 C1043 1.415 . S
C1046 H1036 0.930 . S
C1046 C1044 1.419 . S
C1046 C1047 1.362 . S
C1047 H1037 0.930 . S
C1047 C1040 1.409 . S
C1047 C1046 1.362 . S
H1048 C1054 0.930 . S
H1049 C1057 0.930 . S
H1050 C1058 0.930 . S
H1051 C1059 0.930 . S
H1052 C1062 0.930 . S
H1053 C1063 0.930 . S
C1054 H1048 0.930 . S
C1054 C1055 1.355 . S
C1054 C1056 1.415 . S
C1055 C1054 1.355 . S
C1055 C1057 1.419 . S
C1056 C1054 1.415 . S
C1056 C1061 1.425 . S
C1056 C1063 1.409 . S
C1057 H1049 0.930 . S
C1057 C1055 1.419 . S
C1057 C1058 1.362 . S
C1058 H1050 0.930 . S
C1058 C1057 1.362 . S
C1058 C1061 1.409 . S
C1059 H1051 0.930 . S
C1059 C1060 1.355 . S
C1059 C1061 1.415 . S
C1060 C1059 1.355 . S
C1060 C1062 1.419 . S
C1061 C1056 1.425 . S
C1061 C1058 1.409 . S
C1061 C1059 1.415 . S
C1062 H1052 0.930 . S
C1062 C1060 1.419 . S
C1062 C1063 1.362 . S
C1063 H1053 0.930 . S
C1063 C1056 1.409 . S
C1063 C1062 1.362 . S
H1064 C1070 0.930 . S
H1065 C1073 0.930 . S
H1066 C1074 0.930 . S
H1067 C1075 0.930 . S
H1068 C1078 0.930 . S
H1069 C1079 0.930 . S
C1070 H1064 0.930 . S
C1070 C1071 1.355 . S
C1070 C1072 1.415 . S
C1071 C1070 1.355 . S
C1071 C1073 1.419 . S
C1072 C1070 1.415 . S
C1072 C1077 1.425 . S
C1072 C1079 1.409 . S
C1073 H1065 0.930 . S
C1073 C1071 1.419 . S
C1073 C1074 1.362 . S
C1074 H1066 0.930 . S
C1074 C1073 1.362 . S
C1074 C1077 1.409 . S
C1075 H1067 0.930 . S
C1075 C1076 1.355 . S
C1075 C1077 1.415 . S
C1076 C1075 1.355 . S
C1076 C1078 1.419 . S
C1077 C1072 1.425 . S
C1077 C1074 1.409 . S
C1077 C1075 1.415 . S
C1078 H1068 0.930 . S
C1078 C1076 1.419 . S
C1078 C1079 1.362 . S
C1079 H1069 0.930 . S
C1079 C1072 1.409 . S
C1079 C1078 1.362 . S
H1080 C1086 0.930 . S
H1081 C1089 0.930 . S
H1082 C1090 0.930 . S
H1083 C1091 0.930 . S
H1084 C1094 0.930 . S
H1085 C1095 0.930 . S
C1086 H1080 0.930 . S
C1086 C1087 1.355 . S
C1086 C1088 1.415 . S
C1087 C1086 1.355 . S
C1087 C1089 1.419 . S
C1088 C1086 1.415 . S
C1088 C1093 1.425 . S
C1088 C1095 1.409 . S
C1089 H1081 0.930 . S
C1089 C1087 1.419 . S
C1089 C1090 1.362 . S
C1090 H1082 0.930 . S
C1090 C1089 1.362 . S
C1090 C1093 1.409 . S
C1091 H1083 0.930 . S
C1091 C1092 1.355 . S
C1091 C1093 1.415 . S
C1092 C1091 1.355 . S
C1092 C1094 1.419 . S
C1093 C1088 1.425 . S
C1093 C1090 1.409 . S
C1093 C1091 1.415 . S
C1094 H1084 0.930 . S
C1094 C1092 1.419 . S
C1094 C1095 1.362 . S
C1095 H1085 0.930 . S
C1095 C1088 1.409 . S
C1095 C1094 1.362 . S
H1096 C1102 0.930 . S
H1097 C1105 0.930 . S
H1098 C1106 0.931 . S
H1099 C1107 0.930 . S
H1100 C1110 0.930 . S
H1101 C1111 0.931 . S
C1102 H1096 0.930 . S
C1102 C1103 1.355 . S
C1102 C1104 1.415 . S
C1103 C1102 1.355 . S
C1103 C1105 1.419 . S
C1104 C1102 1.415 . S
C1104 C1109 1.425 1_565 S
C1104 C1111 1.409 1_565 S
C1105 H1097 0.930 . S
C1105 C1103 1.419 . S
C1105 C1106 1.362 . S
C1106 H1098 0.931 . S
C1106 C1105 1.362 . S
C1106 C1109 1.409 1_565 S
C1107 H1099 0.930 . S
C1107 C1108 1.355 . S
C1107 C1109 1.415 . S
C1108 C1107 1.355 . S
C1108 C1110 1.419 . S
C1109 C1104 1.425 1_545 S
C1109 C1106 1.409 1_545 S
C1109 C1107 1.415 . S
C1110 H1100 0.930 . S
C1110 C1108 1.419 . S
C1110 C1111 1.362 . S
C1111 H1101 0.931 . S
C1111 C1104 1.409 1_545 S
C1111 C1110 1.362 . S
H1112 C1118 0.930 . S
H1113 C1121 0.930 . S
H1114 C1122 0.942 . S
H1115 C1123 0.930 . S
H1116 C1126 0.930 . S
H1117 C1127 0.942 . S
C1118 H1112 0.930 . S
C1118 C1119 1.355 . S
C1118 C1120 1.415 . S
C1119 C1118 1.355 . S
C1119 C1121 1.419 . S
C1120 C1118 1.415 . S
C1120 C1125 1.425 1_655 S
C1120 C1127 1.409 1_655 S
C1121 H1113 0.930 . S
C1121 C1119 1.419 . S
C1121 C1122 1.362 . S
C1122 H1114 0.942 . S
C1122 C1121 1.362 . S
C1122 C1125 1.409 1_655 S
C1123 H1115 0.930 . S
C1123 C1124 1.355 . S
C1123 C1125 1.415 . S
C1124 C1123 1.355 . S
C1124 C1126 1.419 . S
C1125 C1120 1.425 1_455 S
C1125 C1122 1.409 1_455 S
C1125 C1123 1.415 . S
C1126 H1116 0.930 . S
C1126 C1124 1.419 . S
C1126 C1127 1.362 . S
C1127 H1117 0.942 . S
C1127 C1120 1.409 1_455 S
C1127 C1126 1.362 . S
H1128 C1134 0.930 . S
H1129 C1137 0.930 . S
H1130 C1138 0.930 . S
H1131 C1139 0.930 . S
H1132 C1142 0.930 . S
H1133 C1143 0.930 . S
C1134 H1128 0.930 . S
C1134 C1135 1.355 . S
C1134 C1136 1.415 . S
C1135 C1134 1.355 . S
C1135 C1137 1.419 . S
C1136 C1134 1.415 . S
C1136 C1141 1.425 . S
C1136 C1143 1.409 . S
C1137 H1129 0.930 . S
C1137 C1135 1.419 . S
C1137 C1138 1.362 . S
C1138 H1130 0.930 . S
C1138 C1137 1.362 . S
C1138 C1141 1.409 . S
C1139 H1131 0.930 . S
C1139 C1140 1.355 . S
C1139 C1141 1.415 . S
C1140 C1139 1.355 . S
C1140 C1142 1.419 . S
C1141 C1136 1.425 . S
C1141 C1138 1.409 . S
C1141 C1139 1.415 . S
C1142 H1132 0.930 . S
C1142 C1140 1.419 . S
C1142 C1143 1.362 . S
C1143 H1133 0.930 . S
C1143 C1136 1.409 . S
C1143 C1142 1.362 . S
H1144 C1150 0.930 . S
H1145 C1153 0.930 . S
H1146 C1154 0.930 . S
H1147 C1155 0.930 . S
H1148 C1158 0.930 . S
H1149 C1159 0.930 . S
C1150 H1144 0.930 . S
C1150 C1151 1.355 . S
C1150 C1152 1.415 . S
C1151 C1150 1.355 . S
C1151 C1153 1.419 . S
C1152 C1150 1.415 . S
C1152 C1157 1.425 1_545 S
C1152 C1159 1.409 1_545 S
C1153 H1145 0.930 . S
C1153 C1151 1.419 . S
C1153 C1154 1.362 . S
C1154 H1146 0.930 . S
C1154 C1153 1.362 . S
C1154 C1157 1.409 1_545 S
C1155 H1147 0.930 . S
C1155 C1156 1.355 . S
C1155 C1157 1.415 . S
C1156 C1155 1.355 . S
C1156 C1158 1.419 . S
C1157 C1152 1.425 1_565 S
C1157 C1154 1.409 1_565 S
C1157 C1155 1.415 . S
C1158 H1148 0.930 . S
C1158 C1156 1.419 . S
C1158 C1159 1.362 . S
C1159 H1149 0.930 . S
C1159 C1152 1.409 1_565 S
C1159 C1158 1.362 . S
H1160 C1166 0.930 . S
H1161 C1169 0.930 . S
H1162 C1170 0.930 . S
H1163 C1171 0.930 . S
H1164 C1174 0.930 . S
H1165 C1175 0.930 . S
C1166 H1160 0.930 . S
C1166 C1167 1.355 . S
C1166 C1168 1.415 . S
C1167 C1166 1.355 . S
C1167 C1169 1.419 . S
C1168 C1166 1.415 . S
C1168 C1173 1.425 1_655 S
C1168 C1175 1.409 1_655 S
C1169 H1161 0.930 . S
C1169 C1167 1.419 . S
C1169 C1170 1.362 . S
C1170 H1162 0.930 . S
C1170 C1169 1.362 . S
C1170 C1173 1.409 1_655 S
C1171 H1163 0.930 . S
C1171 C1172 1.355 . S
C1171 C1173 1.415 . S
C1172 C1171 1.355 . S
C1172 C1174 1.419 . S
C1173 C1168 1.425 1_455 S
C1173 C1170 1.409 1_455 S
C1173 C1171 1.415 . S
C1174 H1164 0.930 . S
C1174 C1172 1.419 . S
C1174 C1175 1.362 . S
C1175 H1165 0.930 . S
C1175 C1168 1.409 1_455 S
C1175 C1174 1.362 . S
H1176 C1182 0.930 . S
H1177 C1185 0.930 . S
H1178 C1186 0.930 . S
H1179 C1187 0.930 . S
H1180 C1190 0.930 . S
H1181 C1191 0.930 . S
C1182 H1176 0.930 . S
C1182 C1183 1.355 . S
C1182 C1184 1.415 . S
C1183 C1182 1.355 . S
C1183 C1185 1.419 . S
C1184 C1182 1.415 . S
C1184 C1189 1.425 . S
C1184 C1191 1.409 . S
C1185 H1177 0.930 . S
C1185 C1183 1.419 . S
C1185 C1186 1.362 . S
C1186 H1178 0.930 . S
C1186 C1185 1.362 . S
C1186 C1189 1.409 . S
C1187 H1179 0.930 . S
C1187 C1188 1.355 . S
C1187 C1189 1.415 . S
C1188 C1187 1.355 . S
C1188 C1190 1.419 . S
C1189 C1184 1.425 . S
C1189 C1186 1.409 . S
C1189 C1187 1.415 . S
C1190 H1180 0.930 . S
C1190 C1188 1.419 . S
C1190 C1191 1.362 . S
C1191 H1181 0.930 . S
C1191 C1184 1.409 . S
C1191 C1190 1.362 . S
H1192 C1198 0.930 . S
H1193 C1201 0.930 . S
H1194 C1202 0.930 . S
H1195 C1203 0.930 . S
H1196 C1206 0.930 . S
H1197 C1207 0.930 . S
C1198 H1192 0.930 . S
C1198 C1199 1.355 . S
C1198 C1200 1.415 . S
C1199 C1198 1.355 . S
C1199 C1201 1.419 . S
C1200 C1198 1.415 . S
C1200 C1205 1.425 . S
C1200 C1207 1.409 . S
C1201 H1193 0.930 . S
C1201 C1199 1.419 . S
C1201 C1202 1.362 . S
C1202 H1194 0.930 . S
C1202 C1201 1.362 . S
C1202 C1205 1.409 . S
C1203 H1195 0.930 . S
C1203 C1204 1.355 . S
C1203 C1205 1.415 . S
C1204 C1203 1.355 . S
C1204 C1206 1.419 . S
C1205 C1200 1.425 . S
C1205 C1202 1.409 . S
C1205 C1203 1.415 . S
C1206 H1196 0.930 . S
C1206 C1204 1.419 . S
C1206 C1207 1.362 . S
C1207 H1197 0.930 . S
C1207 C1200 1.409 . S
C1207 C1206 1.362 . S
H1208 C1214 0.930 . S
H1209 C1217 0.930 . S
H1210 C1218 0.930 . S
H1211 C1219 0.930 . S
H1212 C1222 0.930 . S
H1213 C1223 0.930 . S
C1214 H1208 0.930 . S
C1214 C1215 1.355 . S
C1214 C1216 1.415 . S
C1215 C1214 1.355 . S
C1215 C1217 1.419 . S
C1216 C1214 1.415 . S
C1216 C1221 1.425 . S
C1216 C1223 1.409 . S
C1217 H1209 0.930 . S
C1217 C1215 1.419 . S
C1217 C1218 1.362 . S
C1218 H1210 0.930 . S
C1218 C1217 1.362 . S
C1218 C1221 1.409 . S
C1219 H1211 0.930 . S
C1219 C1220 1.355 . S
C1219 C1221 1.415 . S
C1220 C1219 1.355 . S
C1220 C1222 1.419 . S
C1221 C1216 1.425 . S
C1221 C1218 1.409 . S
C1221 C1219 1.415 . S
C1222 H1212 0.930 . S
C1222 C1220 1.419 . S
C1222 C1223 1.362 . S
C1223 H1213 0.930 . S
C1223 C1216 1.409 . S
C1223 C1222 1.362 . S
H1224 C1230 0.930 . S
H1225 C1233 0.930 . S
H1226 C1234 0.930 . S
H1227 C1235 0.930 . S
H1228 C1238 0.930 . S
H1229 C1239 0.930 . S
C1230 H1224 0.930 . S
C1230 C1231 1.355 . S
C1230 C1232 1.415 . S
C1231 C1230 1.355 . S
C1231 C1233 1.419 . S
C1232 C1230 1.415 . S
C1232 C1237 1.425 . S
C1232 C1239 1.409 . S
C1233 H1225 0.930 . S
C1233 C1231 1.419 . S
C1233 C1234 1.362 . S
C1234 H1226 0.930 . S
C1234 C1233 1.362 . S
C1234 C1237 1.409 . S
C1235 H1227 0.930 . S
C1235 C1236 1.355 . S
C1235 C1237 1.415 . S
C1236 C1235 1.355 . S
C1236 C1238 1.419 . S
C1237 C1232 1.425 . S
C1237 C1234 1.409 . S
C1237 C1235 1.415 . S
C1238 H1228 0.930 . S
C1238 C1236 1.419 . S
C1238 C1239 1.362 . S
C1239 H1229 0.930 . S
C1239 C1232 1.409 . S
C1239 C1238 1.362 . S
H1240 C1246 0.930 . S
H1241 C1249 0.930 . S
H1242 C1250 0.930 . S
H1243 C1251 0.930 . S
H1244 C1254 0.930 . S
H1245 C1255 0.930 . S
C1246 H1240 0.930 . S
C1246 C1247 1.355 . S
C1246 C1248 1.415 . S
C1247 C1246 1.355 . S
C1247 C1249 1.419 . S
C1248 C1246 1.415 . S
C1248 C1253 1.425 . S
C1248 C1255 1.409 . S
C1249 H1241 0.930 . S
C1249 C1247 1.419 . S
C1249 C1250 1.362 . S
C1250 H1242 0.930 . S
C1250 C1249 1.362 . S
C1250 C1253 1.409 . S
C1251 H1243 0.930 . S
C1251 C1252 1.355 . S
C1251 C1253 1.415 . S
C1252 C1251 1.355 . S
C1252 C1254 1.419 . S
C1253 C1248 1.425 . S
C1253 C1250 1.409 . S
C1253 C1251 1.415 . S
C1254 H1244 0.930 . S
C1254 C1252 1.419 . S
C1254 C1255 1.362 . S
C1255 H1245 0.930 . S
C1255 C1248 1.409 . S
C1255 C1254 1.362 . S
H1256 C1262 0.930 . S
H1257 C1265 0.930 . S
H1258 C1266 0.930 . S
H1259 C1267 0.930 . S
H1260 C1270 0.930 . S
H1261 C1271 0.930 . S
C1262 H1256 0.930 . S
C1262 C1263 1.355 . S
C1262 C1264 1.415 . S
C1263 C1262 1.355 . S
C1263 C1265 1.419 . S
C1264 C1262 1.415 . S
C1264 C1269 1.425 . S
C1264 C1271 1.409 . S
C1265 H1257 0.930 . S
C1265 C1263 1.419 . S
C1265 C1266 1.362 . S
C1266 H1258 0.930 . S
C1266 C1265 1.362 . S
C1266 C1269 1.409 . S
C1267 H1259 0.930 . S
C1267 C1268 1.355 . S
C1267 C1269 1.415 . S
C1268 C1267 1.355 . S
C1268 C1270 1.419 . S
C1269 C1264 1.425 . S
C1269 C1266 1.409 . S
C1269 C1267 1.415 . S
C1270 H1260 0.930 . S
C1270 C1268 1.419 . S
C1270 C1271 1.362 . S
C1271 H1261 0.930 . S
C1271 C1264 1.409 . S
C1271 C1270 1.362 . S
H1272 C1278 0.930 . S
H1273 C1281 0.930 . S
H1274 C1282 0.930 . S
H1275 C1283 0.930 . S
H1276 C1286 0.930 . S
H1277 C1287 0.930 . S
C1278 H1272 0.930 . S
C1278 C1279 1.355 . S
C1278 C1280 1.415 . S
C1279 C1278 1.355 . S
C1279 C1281 1.419 . S
C1280 C1278 1.415 . S
C1280 C1285 1.425 . S
C1280 C1287 1.409 . S
C1281 H1273 0.930 . S
C1281 C1279 1.419 . S
C1281 C1282 1.362 . S
C1282 H1274 0.930 . S
C1282 C1281 1.362 . S
C1282 C1285 1.409 . S
C1283 H1275 0.930 . S
C1283 C1284 1.355 . S
C1283 C1285 1.415 . S
C1284 C1283 1.355 . S
C1284 C1286 1.419 . S
C1285 C1280 1.425 . S
C1285 C1282 1.409 . S
C1285 C1283 1.415 . S
C1286 H1276 0.930 . S
C1286 C1284 1.419 . S
C1286 C1287 1.362 . S
C1287 H1277 0.930 . S
C1287 C1280 1.409 . S
C1287 C1286 1.362 . S
H1288 C1294 0.930 . S
H1289 C1297 0.930 . S
H1290 C1298 0.930 . S
H1291 C1299 0.930 . S
H1292 C1302 0.930 . S
H1293 C1303 0.930 . S
C1294 H1288 0.930 . S
C1294 C1295 1.355 . S
C1294 C1296 1.415 . S
C1295 C1294 1.355 . S
C1295 C1297 1.419 . S
C1296 C1294 1.415 . S
C1296 C1301 1.425 . S
C1296 C1303 1.409 . S
C1297 H1289 0.930 . S
C1297 C1295 1.419 . S
C1297 C1298 1.362 . S
C1298 H1290 0.930 . S
C1298 C1297 1.362 . S
C1298 C1301 1.409 . S
C1299 H1291 0.930 . S
C1299 C1300 1.355 . S
C1299 C1301 1.415 . S
C1300 C1299 1.355 . S
C1300 C1302 1.419 . S
C1301 C1296 1.425 . S
C1301 C1298 1.409 . S
C1301 C1299 1.415 . S
C1302 H1292 0.930 . S
C1302 C1300 1.419 . S
C1302 C1303 1.362 . S
C1303 H1293 0.930 . S
C1303 C1296 1.409 . S
C1303 C1302 1.362 . S
H1304 C1310 0.930 . S
H1305 C1313 0.930 . S
H1306 C1314 0.930 . S
H1307 C1315 0.930 . S
H1308 C1318 0.930 . S
H1309 C1319 0.930 . S
C1310 H1304 0.930 . S
C1310 C1311 1.355 . S
C1310 C1312 1.415 . S
C1311 C1310 1.355 . S
C1311 C1313 1.419 . S
C1312 C1310 1.415 . S
C1312 C1317 1.425 . S
C1312 C1319 1.409 . S
C1313 H1305 0.930 . S
C1313 C1311 1.419 . S
C1313 C1314 1.362 . S
C1314 H1306 0.930 . S
C1314 C1313 1.362 . S
C1314 C1317 1.409 . S
C1315 H1307 0.930 . S
C1315 C1316 1.355 . S
C1315 C1317 1.415 . S
C1316 C1315 1.355 . S
C1316 C1318 1.419 . S
C1317 C1312 1.425 . S
C1317 C1314 1.409 . S
C1317 C1315 1.415 . S
C1318 H1308 0.930 . S
C1318 C1316 1.419 . S
C1318 C1319 1.362 . S
C1319 H1309 0.930 . S
C1319 C1312 1.409 . S
C1319 C1318 1.362 . S
H1320 C1326 0.930 . S
H1321 C1329 0.930 . S
H1322 C1330 0.930 . S
H1323 C1331 0.930 . S
H1324 C1334 0.930 . S
H1325 C1335 0.930 . S
C1326 H1320 0.930 . S
C1326 C1327 1.355 . S
C1326 C1328 1.415 . S
C1327 C1326 1.355 . S
C1327 C1329 1.419 . S
C1328 C1326 1.415 . S
C1328 C1333 1.425 . S
C1328 C1335 1.409 . S
C1329 H1321 0.930 . S
C1329 C1327 1.419 . S
C1329 C1330 1.362 . S
C1330 H1322 0.930 . S
C1330 C1329 1.362 . S
C1330 C1333 1.409 . S
C1331 H1323 0.930 . S
C1331 C1332 1.355 . S
C1331 C1333 1.415 . S
C1332 C1331 1.355 . S
C1332 C1334 1.419 . S
C1333 C1328 1.425 . S
C1333 C1330 1.409 . S
C1333 C1331 1.415 . S
C1334 H1324 0.930 . S
C1334 C1332 1.419 . S
C1334 C1335 1.362 . S
C1335 H1325 0.930 . S
C1335 C1328 1.409 . S
C1335 C1334 1.362 . S
H1336 C1342 0.930 . S
H1337 C1345 0.930 . S
H1338 C1346 0.930 . S
H1339 C1347 0.930 . S
H1340 C1350 0.930 . S
H1341 C1351 0.930 . S
C1342 H1336 0.930 . S
C1342 C1343 1.355 . S
C1342 C1344 1.415 . S
C1343 C1342 1.355 . S
C1343 C1345 1.419 . S
C1344 C1342 1.415 . S
C1344 C1349 1.425 . S
C1344 C1351 1.409 . S
C1345 H1337 0.930 . S
C1345 C1343 1.419 . S
C1345 C1346 1.362 . S
C1346 H1338 0.930 . S
C1346 C1345 1.362 . S
C1346 C1349 1.409 . S
C1347 H1339 0.930 . S
C1347 C1348 1.355 . S
C1347 C1349 1.415 . S
C1348 C1347 1.355 . S
C1348 C1350 1.419 . S
C1349 C1344 1.425 . S
C1349 C1346 1.409 . S
C1349 C1347 1.415 . S
C1350 H1340 0.930 . S
C1350 C1348 1.419 . S
C1350 C1351 1.362 . S
C1351 H1341 0.930 . S
C1351 C1344 1.409 . S
C1351 C1350 1.362 . S
H1352 C1358 0.930 . S
H1353 C1361 0.930 . S
H1354 C1362 0.930 . S
H1355 C1363 0.930 . S
H1356 C1366 0.930 . S
H1357 C1367 0.930 . S
C1358 H1352 0.930 . S
C1358 C1359 1.355 . S
C1358 C1360 1.415 . S
C1359 C1358 1.355 . S
C1359 C1361 1.419 . S
C1360 C1358 1.415 . S
C1360 C1365 1.425 . S
C1360 C1367 1.409 . S
C1361 H1353 0.930 . S
C1361 C1359 1.419 . S
C1361 C1362 1.362 . S
C1362 H1354 0.930 . S
C1362 C1361 1.362 . S
C1362 C1365 1.409 . S
C1363 H1355 0.930 . S
C1363 C1364 1.355 . S
C1363 C1365 1.415 . S
C1364 C1363 1.355 . S
C1364 C1366 1.419 . S
C1365 C1360 1.425 . S
C1365 C1362 1.409 . S
C1365 C1363 1.415 . S
C1366 H1356 0.930 . S
C1366 C1364 1.419 . S
C1366 C1367 1.362 . S
C1367 H1357 0.930 . S
C1367 C1360 1.409 . S
C1367 C1366 1.362 . S
H1368 C1374 0.930 . S
H1369 C1377 0.930 . S
H1370 C1378 0.930 . S
H1371 C1379 0.930 . S
H1372 C1382 0.930 . S
H1373 C1383 0.930 . S
C1374 H1368 0.930 . S
C1374 C1375 1.355 . S
C1374 C1376 1.415 . S
C1375 C1374 1.355 . S
C1375 C1377 1.419 . S
C1376 C1374 1.415 . S
C1376 C1381 1.425 . S
C1376 C1383 1.409 . S
C1377 H1369 0.930 . S
C1377 C1375 1.419 . S
C1377 C1378 1.362 . S
C1378 H1370 0.930 . S
C1378 C1377 1.362 . S
C1378 C1381 1.409 . S
C1379 H1371 0.930 . S
C1379 C1380 1.355 . S
C1379 C1381 1.415 . S
C1380 C1379 1.355 . S
C1380 C1382 1.419 . S
C1381 C1376 1.425 . S
C1381 C1378 1.409 . S
C1381 C1379 1.415 . S
C1382 H1372 0.930 . S
C1382 C1380 1.419 . S
C1382 C1383 1.362 . S
C1383 H1373 0.930 . S
C1383 C1376 1.409 . S
C1383 C1382 1.362 . S
H1384 C1390 0.930 . S
H1385 C1393 0.930 . S
H1386 C1394 0.930 . S
H1387 C1395 0.930 . S
H1388 C1398 0.930 . S
H1389 C1399 0.930 . S
C1390 H1384 0.930 . S
C1390 C1391 1.355 . S
C1390 C1392 1.415 . S
C1391 C1390 1.355 . S
C1391 C1393 1.419 . S
C1392 C1390 1.415 . S
C1392 C1397 1.425 . S
C1392 C1399 1.409 . S
C1393 H1385 0.930 . S
C1393 C1391 1.419 . S
C1393 C1394 1.362 . S
C1394 H1386 0.930 . S
C1394 C1393 1.362 . S
C1394 C1397 1.409 . S
C1395 H1387 0.930 . S
C1395 C1396 1.355 . S
C1395 C1397 1.415 . S
C1396 C1395 1.355 . S
C1396 C1398 1.419 . S
C1397 C1392 1.425 . S
C1397 C1394 1.409 . S
C1397 C1395 1.415 . S
C1398 H1388 0.930 . S
C1398 C1396 1.419 . S
C1398 C1399 1.362 . S
C1399 H1389 0.930 . S
C1399 C1392 1.409 . S
C1399 C1398 1.362 . S
H1400 C1406 0.930 . S
H1401 C1409 0.930 . S
H1402 C1410 0.930 . S
H1403 C1411 0.930 . S
H1404 C1414 0.930 . S
H1405 C1415 0.930 . S
C1406 H1400 0.930 . S
C1406 C1407 1.355 . S
C1406 C1408 1.415 . S
C1407 C1406 1.355 . S
C1407 C1409 1.419 . S
C1408 C1406 1.415 . S
C1408 C1413 1.425 . S
C1408 C1415 1.409 . S
C1409 H1401 0.930 . S
C1409 C1407 1.419 . S
C1409 C1410 1.362 . S
C1410 H1402 0.930 . S
C1410 C1409 1.362 . S
C1410 C1413 1.409 . S
C1411 H1403 0.930 . S
C1411 C1412 1.355 . S
C1411 C1413 1.415 . S
C1412 C1411 1.355 . S
C1412 C1414 1.419 . S
C1413 C1408 1.425 . S
C1413 C1410 1.409 . S
C1413 C1411 1.415 . S
C1414 H1404 0.930 . S
C1414 C1412 1.419 . S
C1414 C1415 1.362 . S
C1415 H1405 0.930 . S
C1415 C1408 1.409 . S
C1415 C1414 1.362 . S
H1416 C1422 0.930 . S
H1417 C1425 0.930 . S
H1418 C1426 0.930 . S
H1419 C1427 0.930 . S
H1420 C1430 0.930 . S
H1421 C1431 0.930 . S
C1422 H1416 0.930 . S
C1422 C1423 1.355 . S
C1422 C1424 1.415 . S
C1423 C1422 1.355 . S
C1423 C1425 1.419 . S
C1424 C1422 1.415 . S
C1424 C1429 1.425 . S
C1424 C1431 1.409 . S
C1425 H1417 0.930 . S
C1425 C1423 1.419 . S
C1425 C1426 1.362 . S
C1426 H1418 0.930 . S
C1426 C1425 1.362 . S
C1426 C1429 1.409 . S
C1427 H1419 0.930 . S
C1427 C1428 1.355 . S
C1427 C1429 1.415 . S
C1428 C1427 1.355 . S
C1428 C1430 1.419 . S
C1429 C1424 1.425 . S
C1429 C1426 1.409 . S
C1429 C1427 1.415 . S
C1430 H1420 0.930 . S
C1430 C1428 1.419 . S
C1430 C1431 1.362 . S
C1431 H1421 0.930 . S
C1431 C1424 1.409 . S
C1431 C1430 1.362 . S
H1432 C1438 0.930 . S
H1433 C1441 0.930 . S
H1434 C1442 0.930 . S
H1435 C1443 0.930 . S
H1436 C1446 0.930 . S
H1437 C1447 0.930 . S
C1438 H1432 0.930 . S
C1438 C1439 1.355 . S
C1438 C1440 1.415 . S
C1439 C1438 1.355 . S
C1439 C1441 1.419 . S
C1440 C1438 1.415 . S
C1440 C1445 1.425 . S
C1440 C1447 1.409 . S
C1441 H1433 0.930 . S
C1441 C1439 1.419 . S
C1441 C1442 1.362 . S
C1442 H1434 0.930 . S
C1442 C1441 1.362 . S
C1442 C1445 1.409 . S
C1443 H1435 0.930 . S
C1443 C1444 1.355 . S
C1443 C1445 1.415 . S
C1444 C1443 1.355 . S
C1444 C1446 1.419 . S
C1445 C1440 1.425 . S
C1445 C1442 1.409 . S
C1445 C1443 1.415 . S
C1446 H1436 0.930 . S
C1446 C1444 1.419 . S
C1446 C1447 1.362 . S
C1447 H1437 0.930 . S
C1447 C1440 1.409 . S
C1447 C1446 1.362 . S
H1448 C1454 0.930 . S
H1449 C1457 0.930 . S
H1450 C1458 0.930 . S
H1451 C1459 0.930 . S
H1452 C1462 0.930 . S
H1453 C1463 0.930 . S
C1454 H1448 0.930 . S
C1454 C1455 1.355 . S
C1454 C1456 1.415 . S
C1455 C1454 1.355 . S
C1455 C1457 1.419 . S
C1456 C1454 1.415 . S
C1456 C1461 1.425 . S
C1456 C1463 1.409 . S
C1457 H1449 0.930 . S
C1457 C1455 1.419 . S
C1457 C1458 1.362 . S
C1458 H1450 0.930 . S
C1458 C1457 1.362 . S
C1458 C1461 1.409 . S
C1459 H1451 0.930 . S
C1459 C1460 1.355 . S
C1459 C1461 1.415 . S
C1460 C1459 1.355 . S
C1460 C1462 1.419 . S
C1461 C1456 1.425 . S
C1461 C1458 1.409 . S
C1461 C1459 1.415 . S
C1462 H1452 0.930 . S
C1462 C1460 1.419 . S
C1462 C1463 1.362 . S
C1463 H1453 0.930 . S
C1463 C1456 1.409 . S
C1463 C1462 1.362 . S
H1464 C1470 0.930 . S
H1465 C1473 0.930 . S
H1466 C1474 0.930 . S
H1467 C1475 0.930 . S
H1468 C1478 0.930 . S
H1469 C1479 0.930 . S
C1470 H1464 0.930 . S
C1470 C1471 1.355 . S
C1470 C1472 1.415 . S
C1471 C1470 1.355 . S
C1471 C1473 1.419 . S
C1472 C1470 1.415 . S
C1472 C1477 1.425 . S
C1472 C1479 1.409 . S
C1473 H1465 0.930 . S
C1473 C1471 1.419 . S
C1473 C1474 1.362 . S
C1474 H1466 0.930 . S
C1474 C1473 1.362 . S
C1474 C1477 1.409 . S
C1475 H1467 0.930 . S
C1475 C1476 1.355 . S
C1475 C1477 1.415 . S
C1476 C1475 1.355 . S
C1476 C1478 1.419 . S
C1477 C1472 1.425 . S
C1477 C1474 1.409 . S
C1477 C1475 1.415 . S
C1478 H1468 0.930 . S
C1478 C1476 1.419 . S
C1478 C1479 1.362 . S
C1479 H1469 0.930 . S
C1479 C1472 1.409 . S
C1479 C1478 1.362 . S
H1480 C1486 0.930 . S
H1481 C1489 0.930 . S
H1482 C1490 0.930 . S
H1483 C1491 0.930 . S
H1484 C1494 0.930 . S
H1485 C1495 0.930 . S
C1486 H1480 0.930 . S
C1486 C1487 1.355 . S
C1486 C1488 1.415 . S
C1487 C1486 1.355 . S
C1487 C1489 1.419 . S
C1488 C1486 1.415 . S
C1488 C1493 1.425 . S
C1488 C1495 1.409 . S
C1489 H1481 0.930 . S
C1489 C1487 1.419 . S
C1489 C1490 1.362 . S
C1490 H1482 0.930 . S
C1490 C1489 1.362 . S
C1490 C1493 1.409 . S
C1491 H1483 0.930 . S
C1491 C1492 1.355 . S
C1491 C1493 1.415 . S
C1492 C1491 1.355 . S
C1492 C1494 1.419 . S
C1493 C1488 1.425 . S
C1493 C1490 1.409 . S
C1493 C1491 1.415 . S
C1494 H1484 0.930 . S
C1494 C1492 1.419 . S
C1494 C1495 1.362 . S
C1495 H1485 0.930 . S
C1495 C1488 1.409 . S
C1495 C1494 1.362 . S
H1496 C1502 0.930 . S
H1497 C1505 0.930 . S
H1498 C1506 0.930 . S
H1499 C1507 0.930 . S
H1500 C1510 0.930 . S
H1501 C1511 0.930 . S
C1502 H1496 0.930 . S
C1502 C1503 1.355 . S
C1502 C1504 1.415 . S
C1503 C1502 1.355 . S
C1503 C1505 1.419 . S
C1504 C1502 1.415 . S
C1504 C1509 1.425 . S
C1504 C1511 1.409 . S
C1505 H1497 0.930 . S
C1505 C1503 1.419 . S
C1505 C1506 1.362 . S
C1506 H1498 0.930 . S
C1506 C1505 1.362 . S
C1506 C1509 1.409 . S
C1507 H1499 0.930 . S
C1507 C1508 1.355 . S
C1507 C1509 1.415 . S
C1508 C1507 1.355 . S
C1508 C1510 1.419 . S
C1509 C1504 1.425 . S
C1509 C1506 1.409 . S
C1509 C1507 1.415 . S
C1510 H1500 0.930 . S
C1510 C1508 1.419 . S
C1510 C1511 1.362 . S
C1511 H1501 0.930 . S
C1511 C1504 1.409 . S
C1511 C1510 1.362 . S
H1512 C1518 0.930 . S
H1513 C1521 0.930 . S
H1514 C1522 0.930 . S
H1515 C1523 0.930 . S
H1516 C1526 0.930 . S
H1517 C1527 0.930 . S
C1518 H1512 0.930 . S
C1518 C1519 1.355 . S
C1518 C1520 1.415 . S
C1519 C1518 1.355 . S
C1519 C1521 1.419 . S
C1520 C1518 1.415 . S
C1520 C1525 1.425 . S
C1520 C1527 1.409 . S
C1521 H1513 0.930 . S
C1521 C1519 1.419 . S
C1521 C1522 1.362 . S
C1522 H1514 0.930 . S
C1522 C1521 1.362 . S
C1522 C1525 1.409 . S
C1523 H1515 0.930 . S
C1523 C1524 1.355 . S
C1523 C1525 1.415 . S
C1524 C1523 1.355 . S
C1524 C1526 1.419 . S
C1525 C1520 1.425 . S
C1525 C1522 1.409 . S
C1525 C1523 1.415 . S
C1526 H1516 0.930 . S
C1526 C1524 1.419 . S
C1526 C1527 1.362 . S
C1527 H1517 0.930 . S
C1527 C1520 1.409 . S
C1527 C1526 1.362 . S
H1528 C1534 0.930 . S
H1529 C1537 0.930 . S
H1530 C1538 0.930 . S
H1531 C1539 0.930 . S
H1532 C1542 0.930 . S
H1533 C1543 0.930 . S
C1534 H1528 0.930 . S
C1534 C1535 1.355 . S
C1534 C1536 1.415 . S
C1535 C1534 1.355 . S
C1535 C1537 1.419 . S
C1536 C1534 1.415 . S
C1536 C1541 1.425 . S
C1536 C1543 1.409 . S
C1537 H1529 0.930 . S
C1537 C1535 1.419 . S
C1537 C1538 1.362 . S
C1538 H1530 0.930 . S
C1538 C1537 1.362 . S
C1538 C1541 1.409 . S
C1539 H1531 0.930 . S
C1539 C1540 1.355 . S
C1539 C1541 1.415 . S
C1540 C1539 1.355 . S
C1540 C1542 1.419 . S
C1541 C1536 1.425 . S
C1541 C1538 1.409 . S
C1541 C1539 1.415 . S
C1542 H1532 0.930 . S
C1542 C1540 1.419 . S
C1542 C1543 1.362 . S
C1543 H1533 0.930 . S
C1543 C1536 1.409 . S
C1543 C1542 1.362 . S
H1544 C1550 0.930 . S
H1545 C1553 0.930 . S
H1546 C1554 0.930 . S
H1547 C1555 0.930 . S
H1548 C1558 0.930 . S
H1549 C1559 0.930 . S
C1550 H1544 0.930 . S
C1550 C1551 1.355 . S
C1550 C1552 1.415 . S
C1551 C1550 1.355 . S
C1551 C1553 1.419 . S
C1552 C1550 1.415 . S
C1552 C1557 1.425 . S
C1552 C1559 1.409 . S
C1553 H1545 0.930 . S
C1553 C1551 1.419 . S
C1553 C1554 1.362 . S
C1554 H1546 0.930 . S
C1554 C1553 1.362 . S
C1554 C1557 1.409 . S
C1555 H1547 0.930 . S
C1555 C1556 1.355 . S
C1555 C1557 1.415 . S
C1556 C1555 1.355 . S
C1556 C1558 1.419 . S
C1557 C1552 1.425 . S
C1557 C1554 1.409 . S
C1557 C1555 1.415 . S
C1558 H1548 0.930 . S
C1558 C1556 1.419 . S
C1558 C1559 1.362 . S
C1559 H1549 0.930 . S
C1559 C1552 1.409 . S
C1559 C1558 1.362 . S
H1560 C1566 0.930 . S
H1561 C1569 0.930 . S
H1562 C1570 0.927 1_655 S
H1563 C1571 0.930 . S
H1564 C1574 0.930 . S
H1565 C1575 0.927 1_455 S
C1566 H1560 0.930 . S
C1566 C1567 1.355 . S
C1566 C1568 1.415 . S
C1567 C1566 1.355 . S
C1567 C1569 1.419 . S
C1568 C1566 1.415 . S
C1568 C1573 1.425 1_455 S
C1568 C1575 1.387 1_455 S
C1569 H1561 0.930 . S
C1569 C1567 1.419 . S
C1569 C1570 1.388 . S
C1570 H1562 0.927 1_455 S
C1570 C1569 1.388 . S
C1570 C1573 1.387 1_455 S
C1571 H1563 0.930 . S
C1571 C1572 1.355 . S
C1571 C1573 1.415 . S
C1572 C1571 1.355 . S
C1572 C1574 1.419 . S
C1573 C1568 1.425 1_655 S
C1573 C1570 1.387 1_655 S
C1573 C1571 1.415 . S
C1574 H1564 0.930 . S
C1574 C1572 1.419 . S
C1574 C1575 1.388 . S
C1575 H1565 0.927 1_655 S
C1575 C1568 1.387 1_655 S
C1575 C1574 1.388 . S
H1576 C1582 0.930 . S
H1577 C1585 0.930 . S
H1578 C1586 0.930 . S
H1579 C1587 0.930 . S
H1580 C1590 0.930 . S
H1581 C1591 0.930 . S
C1582 H1576 0.930 . S
C1582 C1583 1.355 . S
C1582 C1584 1.415 . S
C1583 C1582 1.355 . S
C1583 C1585 1.419 . S
C1584 C1582 1.415 . S
C1584 C1589 1.425 . S
C1584 C1591 1.409 . S
C1585 H1577 0.930 . S
C1585 C1583 1.419 . S
C1585 C1586 1.362 . S
C1586 H1578 0.930 . S
C1586 C1585 1.362 . S
C1586 C1589 1.409 . S
C1587 H1579 0.930 . S
C1587 C1588 1.355 . S
C1587 C1589 1.415 . S
C1588 C1587 1.355 . S
C1588 C1590 1.419 . S
C1589 C1584 1.425 . S
C1589 C1586 1.409 . S
C1589 C1587 1.415 . S
C1590 H1580 0.930 . S
C1590 C1588 1.419 . S
C1590 C1591 1.362 . S
C1591 H1581 0.930 . S
C1591 C1584 1.409 . S
C1591 C1590 1.362 . S
H1592 C1598 0.930 . S
H1593 C1601 0.930 . S
H1594 C1602 0.930 . S
H1595 C1603 0.930 . S
H1596 C1606 0.930 . S
H1597 C1607 0.930 . S
C1598 H1592 0.930 . S
C1598 C1599 1.355 . S
C1598 C1600 1.415 . S
C1599 C1598 1.355 . S
C1599 C1601 1.419 . S
C1600 C1598 1.415 . S
C1600 C1605 1.425 1_545 S
C1600 C1607 1.409 1_545 S
C1601 H1593 0.930 . S
C1601 C1599 1.419 . S
C1601 C1602 1.362 . S
C1602 H1594 0.930 . S
C1602 C1601 1.362 . S
C1602 C1605 1.409 1_545 S
C1603 H1595 0.930 . S
C1603 C1604 1.355 . S
C1603 C1605 1.415 . S
C1604 C1603 1.355 . S
C1604 C1606 1.419 . S
C1605 C1600 1.425 1_565 S
C1605 C1602 1.409 1_565 S
C1605 C1603 1.415 . S
C1606 H1596 0.930 . S
C1606 C1604 1.419 . S
C1606 C1607 1.362 . S
C1607 H1597 0.930 . S
C1607 C1600 1.409 1_565 S
C1607 C1606 1.362 . S
H1608 C1614 0.930 . S
H1609 C1617 0.930 1_556 S
H1610 C1618 0.930 . S
H1611 C1619 0.930 . S
H1612 C1622 0.930 1_554 S
H1613 C1623 0.930 . S
C1614 H1608 0.930 . S
C1614 C1615 1.355 . S
C1614 C1616 1.415 . S
C1615 C1614 1.355 . S
C1615 C1617 1.419 . S
C1616 C1614 1.415 . S
C1616 C1621 1.425 1_544 S
C1616 C1623 1.409 1_545 S
C1617 H1609 0.930 1_554 S
C1617 C1615 1.419 . S
C1617 C1618 1.362 1_554 S
C1618 H1610 0.930 . S
C1618 C1617 1.362 1_556 S
C1618 C1621 1.409 1_545 S
C1619 H1611 0.930 . S
C1619 C1620 1.355 . S
C1619 C1621 1.415 . S
C1620 C1619 1.355 . S
C1620 C1622 1.419 . S
C1621 C1616 1.425 1_566 S
C1621 C1618 1.409 1_565 S
C1621 C1619 1.415 . S
C1622 H1612 0.930 1_556 S
C1622 C1620 1.419 . S
C1622 C1623 1.362 1_556 S
C1623 H1613 0.930 . S
C1623 C1616 1.409 1_565 S
C1623 C1622 1.362 1_554 S
H1624 C1630 0.930 . S
H1625 C1633 0.930 . S
H1626 C1634 0.930 . S
H1627 C1635 0.930 . S
H1628 C1638 0.930 . S
H1629 C1639 0.930 . S
C1630 H1624 0.930 . S
C1630 C1631 1.355 . S
C1630 C1632 1.415 1_655 S
C1631 C1630 1.355 . S
C1631 C1633 1.419 . S
C1632 C1630 1.415 1_455 S
C1632 C1637 1.425 1_454 S
C1632 C1639 1.409 . S
C1633 H1625 0.930 . S
C1633 C1631 1.419 . S
C1633 C1634 1.362 1_554 S
C1634 H1626 0.930 . S
C1634 C1633 1.362 1_556 S
C1634 C1637 1.409 . S
C1635 H1627 0.930 . S
C1635 C1636 1.355 . S
C1635 C1637 1.415 1_455 S
C1636 C1635 1.355 . S
C1636 C1638 1.419 . S
C1637 C1632 1.425 1_656 S
C1637 C1634 1.409 . S
C1637 C1635 1.415 1_655 S
C1638 H1628 0.930 . S
C1638 C1636 1.419 . S
C1638 C1639 1.362 1_556 S
C1639 H1629 0.930 . S
C1639 C1632 1.409 . S
C1639 C1638 1.362 1_554 S
H1640 C1646 0.930 . S
H1641 C1649 0.930 . S
H1642 C1650 0.930 . S
H1643 C1651 0.930 . S
H1644 C1654 0.930 . S
H1645 C1655 0.930 . S
C1646 H1640 0.930 . S
C1646 C1647 1.355 . S
C1646 C1648 1.415 1_554 S
C1647 C1646 1.355 . S
C1647 C1649 1.419 . S
C1648 C1646 1.415 1_556 S
C1648 C1653 1.425 1_556 S
C1648 C1655 1.409 . S
C1649 H1641 0.930 . S
C1649 C1647 1.419 . S
C1649 C1650 1.362 . S
C1650 H1642 0.930 . S
C1650 C1649 1.362 . S
C1650 C1653 1.409 . S
C1651 H1643 0.930 . S
C1651 C1652 1.355 . S
C1651 C1653 1.415 1_556 S
C1652 C1651 1.355 . S
C1652 C1654 1.419 . S
C1653 C1648 1.425 1_554 S
C1653 C1650 1.409 . S
C1653 C1651 1.415 1_554 S
C1654 H1644 0.930 . S
C1654 C1652 1.419 . S
C1654 C1655 1.362 . S
C1655 H1645 0.930 . S
C1655 C1648 1.409 . S
C1655 C1654 1.362 . S
C511 C147 1.276 . S
C516 C8 1.271 . S
C527 C161 1.274 . S
C532 C22 1.198 . S
C543 C36 1.222 . S
C548 C133 1.292 . S
C559 C50 1.256 . S
C564 C119 1.284 . S
C575 C64 1.194 . S
C580 C91 1.277 . S
C591 C105 1.293 . S
C596 C78 1.208 . S
C607 C63 1.286 . S
C612 C92 1.184 . S
C623 C77 1.266 . S
C628 C106 1.275 . S
C639 C120 1.185 . S
C644 C49 1.287 . S
C655 C35 1.267 . S
C660 C134 1.275 . S
C671 C148 1.275 . S
C676 C7 1.272 . S
C687 C162 1.244 . S
C692 C21 1.288 . S
C703 C315 1.271 . S
C708 C176 1.276 . S
C719 C329 1.268 . S
C724 C190 1.214 . S
C735 C204 1.218 . S
C740 C301 1.293 . S
C751 C218 1.273 . S
C756 C287 1.265 . S
C767 C232 1.261 . S
C772 C259 1.282 . S
C783 C246 1.252 . S
C788 C273 1.285 . S
C799 C231 1.263 . S
C804 C260 1.244 . S
C815 C245 1.282 . S
C820 C274 1.186 . S
C831 C217 1.293 . S
C836 C288 1.201 . S
C847 C203 1.293 . S
C852 C302 1.211 . S
C863 C175 1.286 . S
C868 C316 1.184 . S
C879 C189 1.281 . S
C884 C330 1.187 . S
C895 C344 1.274 . S
C900 C483 1.273 . S
C911 C497 1.292 . S
C916 C358 1.219 . S
C927 C469 1.262 . S
C932 C372 1.251 . S
C943 C386 1.202 . S
C948 C455 1.272 . S
C959 C400 1.218 . S
C964 C427 1.268 . S
C975 C414 1.254 . S
C980 C441 1.262 . S
C991 C399 1.265 . S
C996 C428 1.273 . S
C1007 C413 1.293 . S
C1012 C442 1.215 . S
C1023 C385 1.287 . S
C1028 C456 1.248 . S
C1039 C470 1.233 . S
C1044 C371 1.264 . S
C1055 C343 1.282 . S
C1060 C484 1.261 . S
C1071 C498 1.274 . S
C1076 C357 1.273 . S
C1087 C48 1.537 . S
C1092 C6 1.505 . S
C1103 C62 1.526 . S
C1108 C20 1.512 . S
C1119 C34 1.536 . S
C1124 C76 1.503 . S
C1135 C132 1.503 . S
C1140 C90 1.539 . S
C1151 C146 1.534 . S
C1156 C104 1.509 . S
C1167 C160 1.542 . S
C1172 C118 1.499 . S
C1183 C216 1.499 . S
C1188 C174 1.541 . S
C1199 C230 1.500 . S
C1204 C188 1.539 . S
C1215 C202 1.542 . S
C1220 C244 1.499 . S
C1231 C258 1.541 . S
C1236 C300 1.499 . S
C1247 C314 1.528 . S
C1252 C272 1.510 . S
C1263 C286 1.530 . S
C1268 C328 1.508 . S
C1279 C384 1.528 . S
C1284 C342 1.516 . S
C1295 C398 1.503 . S
C1300 C356 1.536 . S
C1311 C370 1.499 . S
C1316 C412 1.541 . S
C1327 C426 1.540 . S
C1332 C468 1.499 . S
C1343 C440 1.499 . S
C1348 C482 1.541 . S
C1359 C454 1.541 . S
C1364 C496 1.499 . S
C1375 C9 1.539 . S
C1380 C261 1.539 . S
C1391 C275 1.522 . S
C1396 C23 1.522 . S
C1407 C289 1.540 . S
C1412 C37 1.540 . S
C1423 C471 1.545 . S
C1428 C51 1.545 . S
C1439 C485 1.530 . S
C1444 C65 1.530 . S
C1455 C499 1.529 . S
C1460 C79 1.529 . S
C1471 C93 1.538 . S
C1476 C345 1.538 . S
C1487 C359 1.539 . S
C1492 C107 1.539 . S
C1503 C373 1.535 . S
C1508 C121 1.535 . S
C1519 C135 1.532 . S
C1524 C219 1.532 . S
C1535 C149 1.515 . S
C1540 C233 1.515 . S
C1551 C163 1.539 . S
C1556 C247 1.539 . S
C1567 C429 1.544 . S
C1572 C177 1.544 . S
C1583 C443 1.538 . S
C1588 C191 1.538 . S
C1599 C205 1.542 . S
C1604 C457 1.542 . S
C1615 C303 1.532 . S
C1620 C387 1.532 . S
C1631 C317 1.499 . S
C1636 C401 1.499 . S
C1647 C331 1.545 . S
C1652 C415 1.545 . S
