# Generated by pormake.
# Topology gme, (4)-cn, num edge types: 1
# Building blocks:
#     Node 0, Type 0, BuildingBlock: ICAMEG_clean_sbu_1, # of connection points: 4
#     Node 1, Type 0, BuildingBlock: ICAMEG_clean_sbu_1, # of connection points: 4
#     Node 2, Type 0, BuildingBlock: ICAMEG_clean_sbu_1, # of connection points: 4
#     Node 3, Type 0, BuildingBlock: ICAMEG_clean_sbu_1, # of connection points: 4
#     Node 4, Type 0, BuildingBlock: ICAMEG_clean_sbu_1, # of connection points: 4
#     Node 5, Type 0, BuildingBlock: ICAMEG_clean_sbu_1, # of connection points: 4
#     Node 6, Type 0, BuildingBlock: ICAMEG_clean_sbu_1, # of connection points: 4
#     Node 7, Type 0, BuildingBlock: ICAMEG_clean_sbu_1, # of connection points: 4
#     Node 8, Type 0, BuildingBlock: ICAMEG_clean_sbu_1, # of connection points: 4
#     Node 9, Type 0, BuildingBlock: ICAMEG_clean_sbu_1, # of connection points: 4
#     Node 10, Type 0, BuildingBlock: ICAMEG_clean_sbu_1, # of connection points: 4
#     Node 11, Type 0, BuildingBlock: ICAMEG_clean_sbu_1, # of connection points: 4
#     Node 12, Type 0, BuildingBlock: ICAMEG_clean_sbu_1, # of connection points: 4
#     Node 13, Type 0, BuildingBlock: ICAMEG_clean_sbu_1, # of connection points: 4
#     Node 14, Type 0, BuildingBlock: ICAMEG_clean_sbu_1, # of connection points: 4
#     Node 15, Type 0, BuildingBlock: ICAMEG_clean_sbu_1, # of connection points: 4
#     Node 16, Type 0, BuildingBlock: ICAMEG_clean_sbu_1, # of connection points: 4
#     Node 17, Type 0, BuildingBlock: ICAMEG_clean_sbu_1, # of connection points: 4
#     Node 18, Type 0, BuildingBlock: ICAMEG_clean_sbu_1, # of connection points: 4
#     Node 19, Type 0, BuildingBlock: ICAMEG_clean_sbu_1, # of connection points: 4
#     Node 20, Type 0, BuildingBlock: ICAMEG_clean_sbu_1, # of connection points: 4
#     Node 21, Type 0, BuildingBlock: ICAMEG_clean_sbu_1, # of connection points: 4
#     Node 22, Type 0, BuildingBlock: ICAMEG_clean_sbu_1, # of connection points: 4
#     Node 23, Type 0, BuildingBlock: ICAMEG_clean_sbu_1, # of connection points: 4
#     Edge 24, Type (0, 0), BuildingBlock: AJUNOK_clean_linker_0, # of connection points: 2
#     Edge 25, Type (0, 0), BuildingBlock: AJUNOK_clean_linker_0, # of connection points: 2
#     Edge 26, Type (0, 0), BuildingBlock: AJUNOK_clean_linker_0, # of connection points: 2
#     Edge 27, Type (0, 0), BuildingBlock: AJUNOK_clean_linker_0, # of connection points: 2
#     Edge 28, Type (0, 0), BuildingBlock: AJUNOK_clean_linker_0, # of connection points: 2
#     Edge 29, Type (0, 0), BuildingBlock: AJUNOK_clean_linker_0, # of connection points: 2
#     Edge 30, Type (0, 0), BuildingBlock: AJUNOK_clean_linker_0, # of connection points: 2
#     Edge 31, Type (0, 0), BuildingBlock: AJUNOK_clean_linker_0, # of connection points: 2
#     Edge 32, Type (0, 0), BuildingBlock: AJUNOK_clean_linker_0, # of connection points: 2
#     Edge 33, Type (0, 0), BuildingBlock: AJUNOK_clean_linker_0, # of connection points: 2
#     Edge 34, Type (0, 0), BuildingBlock: AJUNOK_clean_linker_0, # of connection points: 2
#     Edge 35, Type (0, 0), BuildingBlock: AJUNOK_clean_linker_0, # of connection points: 2
#     Edge 36, Type (0, 0), BuildingBlock: AJUNOK_clean_linker_0, # of connection points: 2
#     Edge 37, Type (0, 0), BuildingBlock: AJUNOK_clean_linker_0, # of connection points: 2
#     Edge 38, Type (0, 0), BuildingBlock: AJUNOK_clean_linker_0, # of connection points: 2
#     Edge 39, Type (0, 0), BuildingBlock: AJUNOK_clean_linker_0, # of connection points: 2
#     Edge 40, Type (0, 0), BuildingBlock: AJUNOK_clean_linker_0, # of connection points: 2
#     Edge 41, Type (0, 0), BuildingBlock: AJUNOK_clean_linker_0, # of connection points: 2
#     Edge 42, Type (0, 0), BuildingBlock: AJUNOK_clean_linker_0, # of connection points: 2
#     Edge 43, Type (0, 0), BuildingBlock: AJUNOK_clean_linker_0, # of connection points: 2
#     Edge 44, Type (0, 0), BuildingBlock: AJUNOK_clean_linker_0, # of connection points: 2
#     Edge 45, Type (0, 0), BuildingBlock: AJUNOK_clean_linker_0, # of connection points: 2
#     Edge 46, Type (0, 0), BuildingBlock: AJUNOK_clean_linker_0, # of connection points: 2
#     Edge 47, Type (0, 0), BuildingBlock: AJUNOK_clean_linker_0, # of connection points: 2
#     Edge 48, Type (0, 0), BuildingBlock: AJUNOK_clean_linker_0, # of connection points: 2
#     Edge 49, Type (0, 0), BuildingBlock: AJUNOK_clean_linker_0, # of connection points: 2
#     Edge 50, Type (0, 0), BuildingBlock: AJUNOK_clean_linker_0, # of connection points: 2
#     Edge 51, Type (0, 0), BuildingBlock: AJUNOK_clean_linker_0, # of connection points: 2
#     Edge 52, Type (0, 0), BuildingBlock: AJUNOK_clean_linker_0, # of connection points: 2
#     Edge 53, Type (0, 0), BuildingBlock: AJUNOK_clean_linker_0, # of connection points: 2
#     Edge 54, Type (0, 0), BuildingBlock: AJUNOK_clean_linker_0, # of connection points: 2
#     Edge 55, Type (0, 0), BuildingBlock: AJUNOK_clean_linker_0, # of connection points: 2
#     Edge 56, Type (0, 0), BuildingBlock: AJUNOK_clean_linker_0, # of connection points: 2
#     Edge 57, Type (0, 0), BuildingBlock: AJUNOK_clean_linker_0, # of connection points: 2
#     Edge 58, Type (0, 0), BuildingBlock: AJUNOK_clean_linker_0, # of connection points: 2
#     Edge 59, Type (0, 0), BuildingBlock: AJUNOK_clean_linker_0, # of connection points: 2
#     Edge 60, Type (0, 0), BuildingBlock: AJUNOK_clean_linker_0, # of connection points: 2
#     Edge 61, Type (0, 0), BuildingBlock: AJUNOK_clean_linker_0, # of connection points: 2
#     Edge 62, Type (0, 0), BuildingBlock: AJUNOK_clean_linker_0, # of connection points: 2
#     Edge 63, Type (0, 0), BuildingBlock: AJUNOK_clean_linker_0, # of connection points: 2
#     Edge 64, Type (0, 0), BuildingBlock: AJUNOK_clean_linker_0, # of connection points: 2
#     Edge 65, Type (0, 0), BuildingBlock: AJUNOK_clean_linker_0, # of connection points: 2
#     Edge 66, Type (0, 0), BuildingBlock: AJUNOK_clean_linker_0, # of connection points: 2
#     Edge 67, Type (0, 0), BuildingBlock: AJUNOK_clean_linker_0, # of connection points: 2
#     Edge 68, Type (0, 0), BuildingBlock: AJUNOK_clean_linker_0, # of connection points: 2
#     Edge 69, Type (0, 0), BuildingBlock: AJUNOK_clean_linker_0, # of connection points: 2
#     Edge 70, Type (0, 0), BuildingBlock: AJUNOK_clean_linker_0, # of connection points: 2
#     Edge 71, Type (0, 0), BuildingBlock: AJUNOK_clean_linker_0, # of connection points: 2
# Relax obj value: 0.062
# Max RMSD: 0.062
# Mean RMSD: 0.062
data_MOF--net-gme--node1-ICAMEG_clean_sbu_1--edge1-AJUNOK_clean_linker_0
_symmetry_space_group_name_H-M    P1
_symmetry_Int_Tables_number       1
_symmetry_cell_setting            triclinic
loop_
_symmetry_equiv_pos_as_xyz
'x, y, z'
_cell_length_a     44.677405
_cell_length_b     44.691995
_cell_length_c     44.864413
_cell_angle_alpha  89.989592
_cell_angle_beta   90.004414
_cell_angle_gamma 120.00912
loop_
_atom_site_label
_atom_site_type_symbol
_atom_site_fract_x
_atom_site_fract_y
_atom_site_fract_z
_atom_type_partial_charge
Co0 Co 0.44526 0.10095 0.14549 0.0
Co1 Co 0.38147 0.01643 0.13391 0.0
O2 O 0.40478 0.06595 0.12408 0.0
C3 C 0.39935 0.13168 0.14921 0.0
O4 O 0.37305 0.10165 0.15692 0.0
C5 C 0.39884 0.0204 0.06994 0.0
O6 O 0.42928 0.0463 0.07722 0.0
O7 O 0.42598 0.01604 0.13345 0.0
O8 O 0.46393 0.06919 0.14973 0.0
H9 H 0.36367 0.91134 0.1898 0.0
H10 H 0.42802 0.12097 0.0879 0.0
O11 O 0.42834 0.13452 0.14242 0.0
H12 H 0.54394 0.13548 0.07373 0.0
H13 H 0.5449 0.22084 0.16461 0.0
H14 H 0.48243 0.10023 0.19998 0.0
H15 H 0.51389 0.11546 0.12189 0.0
H16 H 0.49385 0.17661 0.13746 0.0
O17 O 0.37593 0.00486 0.09001 0.0
H18 H 0.39288 0.97353 0.17778 0.0
H19 H 0.31993 0.95422 0.10916 0.0
H20 H 0.53358 0.14354 0.22763 0.0
H21 H 0.45773 0.14217 0.03967 0.0
H22 H 0.56525 0.20432 0.20992 0.0
H23 H 0.51597 0.14917 0.03224 0.0
O24 O 0.42064 0.08439 0.18376 0.0
H25 H 0.29406 0.04518 0.09331 0.0
H26 H 0.32173 0.99016 0.17585 0.0
H27 H 0.2674 0.99184 0.17723 0.0
H28 H 0.25328 0.0195 0.13574 0.0
H29 H 0.34822 0.04311 0.09292 0.0
H30 H 0.29009 0.89178 0.12023 0.0
H31 H 0.31188 0.87001 0.1609 0.0
O32 O 0.38662 0.02693 0.17819 0.0
C33 C 0.45578 0.03847 0.14282 0.0
C34 C 0.35385 0.92052 0.1721 0.0
C35 C 0.31259 0.90954 0.13302 0.0
N36 N 0.35793 0.96748 0.14298 0.0
C37 C 0.37022 0.95571 0.16526 0.0
C38 C 0.32962 0.9449 0.12681 0.0
C39 C 0.32482 0.89734 0.15585 0.0
C40 C 0.4536 0.1245 0.085 0.0
N41 N 0.46923 0.11713 0.10774 0.0
C42 C 0.47021 0.13632 0.05759 0.0
C43 C 0.50287 0.1402 0.05342 0.0
C44 C 0.51857 0.13246 0.07667 0.0
C45 C 0.50131 0.12094 0.10385 0.0
C46 C 0.53139 0.19441 0.1725 0.0
C47 C 0.49616 0.1266 0.19205 0.0
C48 C 0.50242 0.16926 0.15725 0.0
N49 N 0.48534 0.13579 0.16696 0.0
C50 C 0.52506 0.15102 0.20785 0.0
C51 C 0.54279 0.18513 0.19792 0.0
C52 C 0.40016 0.05441 0.19411 0.0
C53 C 0.29989 0.03297 0.11148 0.0
C54 C 0.31578 0.00227 0.15772 0.0
C55 C 0.28495 0.00309 0.15861 0.0
C56 C 0.27703 0.0186 0.13531 0.0
N57 N 0.33805 0.0164 0.13426 0.0
C58 C 0.33045 0.03161 0.11133 0.0
Co59 Co 0.33076 0.43916 0.64434 0.0
Co60 Co 0.36384 0.38492 0.63495 0.0
O61 O 0.33214 0.40143 0.62387 0.0
C62 C 0.25596 0.3856 0.64865 0.0
O63 O 0.26384 0.36508 0.66338 0.0
C64 C 0.37533 0.40057 0.57053 0.0
O65 O 0.37625 0.42965 0.57698 0.0
O66 O 0.40431 0.43269 0.63365 0.0
O67 O 0.38184 0.46475 0.64973 0.0
H68 H 0.46123 0.3861 0.69191 0.0
H69 H 0.29604 0.41721 0.58552 0.0
O70 O 0.27954 0.41488 0.63926 0.0
H71 H 0.38503 0.53974 0.57318 0.0
H72 H 0.28844 0.5232 0.66134 0.0
H73 H 0.36385 0.48026 0.69872 0.0
H74 H 0.37764 0.51044 0.62142 0.0
H75 H 0.29216 0.4769 0.63471 0.0
O76 O 0.37098 0.37921 0.5913 0.0
H77 H 0.42094 0.40657 0.67845 0.0
H78 H 0.37449 0.32812 0.61268 0.0
H79 H 0.36089 0.52659 0.72603 0.0
H80 H 0.30168 0.44593 0.53722 0.0
H81 H 0.32296 0.54838 0.70735 0.0
H82 H 0.34671 0.5075 0.5307 0.0
O83 O 0.3254 0.41608 0.68316 0.0
H84 H 0.25381 0.28471 0.59611 0.0
H85 H 0.33817 0.3268 0.67851 0.0
H86 H 0.28739 0.26816 0.68107 0.0
H87 H 0.24481 0.24674 0.63963 0.0
H88 H 0.30484 0.34329 0.59458 0.0
H89 H 0.41451 0.307 0.62519 0.0
H90 H 0.45814 0.33596 0.66518 0.0
O91 O 0.35741 0.39039 0.67894 0.0
C92 C 0.40751 0.46113 0.6428 0.0
C93 C 0.44224 0.37318 0.67453 0.0
C94 C 0.41603 0.3288 0.63706 0.0
N95 N 0.39513 0.36826 0.6451 0.0
C96 C 0.41929 0.38457 0.66689 0.0
C97 C 0.39348 0.34089 0.63005 0.0
C98 C 0.44051 0.34506 0.6595 0.0
C99 C 0.31532 0.44417 0.58302 0.0
N100 N 0.33639 0.46212 0.60632 0.0
C101 C 0.31852 0.46025 0.55557 0.0
C102 C 0.34381 0.49479 0.55192 0.0
C103 C 0.36536 0.51287 0.57572 0.0
C104 C 0.36119 0.49606 0.60294 0.0
C105 C 0.3051 0.51397 0.66967 0.0
C106 C 0.34747 0.48977 0.69032 0.0
C107 C 0.30733 0.48777 0.65468 0.0
N108 N 0.32852 0.47616 0.66495 0.0
C109 C 0.34582 0.51594 0.70594 0.0
C110 C 0.3245 0.52811 0.69547 0.0
C111 C 0.34009 0.40056 0.69447 0.0
C112 C 0.27223 0.29371 0.61427 0.0
C113 C 0.31971 0.31771 0.66043 0.0
C114 C 0.29104 0.28445 0.66198 0.0
C115 C 0.26717 0.27244 0.63871 0.0
N116 N 0.32453 0.33838 0.63634 0.0
C117 C 0.30122 0.32681 0.61347 0.0
Co118 Co 0.88734 0.3364 0.14498 0.0
Co119 Co 0.97336 0.36259 0.1337 0.0
O120 O 0.92407 0.33352 0.12383 0.0
C121 C 0.86207 0.26074 0.14801 0.0
O122 O 0.8935 0.26672 0.15321 0.0
C123 C 0.9686 0.37412 0.06942 0.0
O124 O 0.94134 0.37656 0.07622 0.0
O125 O 0.97026 0.40559 0.13245 0.0
O126 O 0.91644 0.38734 0.14866 0.0
H127 H 0.07532 0.45591 0.18871 0.0
H128 H 0.86958 0.2986 0.08762 0.0
O129 O 0.85632 0.28536 0.14257 0.0
H130 H 0.84692 0.39478 0.07236 0.0
H131 H 0.76442 0.30685 0.16418 0.0
H132 H 0.88503 0.3731 0.1992 0.0
H133 H 0.86804 0.38683 0.12081 0.0
H134 H 0.81103 0.30444 0.1368 0.0
O135 O 0.98512 0.36859 0.08986 0.0
H136 H 0.0135 0.41937 0.17644 0.0
H137 H 0.03793 0.36735 0.10997 0.0
H138 H 0.83925 0.37636 0.22721 0.0
H139 H 0.84742 0.30498 0.03906 0.0
H140 H 0.77842 0.34308 0.20971 0.0
H141 H 0.83631 0.35356 0.0311 0.0
O142 O 0.90509 0.33043 0.18355 0.0
H143 H 0.95395 0.24898 0.09443 0.0
H144 H 0.00291 0.33322 0.17661 0.0
H145 H 0.00621 0.2798 0.17873 0.0
H146 H 0.98168 0.23727 0.13739 0.0
H147 H 0.95092 0.3026 0.09337 0.0
H148 H 0.10007 0.40358 0.12126 0.0
H149 H 0.11909 0.44811 0.16101 0.0
O150 O 0.96274 0.35739 0.17792 0.0
C151 C 0.94655 0.41126 0.14151 0.0
C152 C 0.06736 0.4365 0.17143 0.0
C153 C 0.08124 0.40715 0.13356 0.0
N154 N 0.02212 0.39098 0.14281 0.0
C155 C 0.03239 0.41566 0.16447 0.0
C156 C 0.04604 0.38675 0.12723 0.0
C157 C 0.0919 0.43213 0.15586 0.0
C158 C 0.86427 0.31947 0.08446 0.0
N159 N 0.86999 0.34221 0.10705 0.0
C160 C 0.85191 0.32307 0.05688 0.0
C161 C 0.84572 0.35037 0.05241 0.0
C162 C 0.85172 0.37353 0.07554 0.0
C163 C 0.86387 0.369 0.10288 0.0
C164 C 0.79085 0.32163 0.17194 0.0
C165 C 0.85867 0.35876 0.19131 0.0
C166 C 0.81736 0.32039 0.15651 0.0
N167 N 0.8508 0.33895 0.16618 0.0
C168 C 0.83284 0.36063 0.20731 0.0
C169 C 0.79872 0.34192 0.1975 0.0
C170 C 0.93547 0.3425 0.19409 0.0
C171 C 0.96481 0.26735 0.11254 0.0
C172 C 0.99204 0.31477 0.1586 0.0
C173 C 0.99407 0.28461 0.15989 0.0
C174 C 0.98033 0.26078 0.13667 0.0
N175 N 0.97683 0.32105 0.13483 0.0
C176 C 0.96328 0.29781 0.112 0.0
Co177 Co 0.55946 0.89325 0.64569 0.0
Co178 Co 0.6139 0.98041 0.63654 0.0
O179 O 0.59679 0.93237 0.62491 0.0
C180 C 0.61275 0.87177 0.64716 0.0
O181 O 0.63403 0.90052 0.66109 0.0
C182 C 0.59738 0.97721 0.5724 0.0
O183 O 0.56838 0.94884 0.5786 0.0
O184 O 0.56626 0.9734 0.636 0.0
O185 O 0.53445 0.91917 0.6531 0.0
H186 H 0.61472 0.07646 0.69536 0.0
H187 H 0.57928 0.88176 0.5855 0.0
O188 O 0.58306 0.86594 0.63881 0.0
H189 H 0.45689 0.85027 0.57704 0.0
H190 H 0.47402 0.76694 0.66127 0.0
H191 H 0.52226 0.88427 0.70267 0.0
H192 H 0.48749 0.8697 0.62506 0.0
H193 H 0.51966 0.81726 0.63439 0.0
O194 O 0.61903 0.99369 0.59312 0.0
H195 H 0.59379 0.01573 0.68152 0.0
H196 H 0.67052 0.04789 0.61411 0.0
H197 H 0.4765 0.83475 0.73021 0.0
H198 H 0.54948 0.8619 0.53713 0.0
H199 H 0.45207 0.77551 0.70951 0.0
H200 H 0.4879 0.84618 0.53265 0.0
O201 O 0.58412 0.91034 0.68396 0.0
H202 H 0.71302 0.97021 0.59544 0.0
H203 H 0.67273 0.01203 0.67949 0.0
H204 H 0.73125 0.01946 0.68095 0.0
H205 H 0.75176 0.99852 0.63867 0.0
H206 H 0.65457 0.96307 0.59501 0.0
H207 H 0.69203 0.10898 0.62696 0.0
H208 H 0.66415 0.12358 0.66796 0.0
O209 O 0.60906 0.96806 0.68037 0.0
C210 C 0.5382 0.94853 0.6462 0.0
C211 C 0.62716 0.07043 0.67753 0.0
C212 C 0.67052 0.08869 0.63912 0.0
N213 N 0.63112 0.02831 0.64722 0.0
C214 C 0.6155 0.0361 0.66967 0.0
C215 C 0.65819 0.05406 0.6319 0.0
C216 C 0.65487 0.09686 0.66213 0.0
C217 C 0.55235 0.87452 0.58381 0.0
N218 N 0.53515 0.87682 0.60809 0.0
C219 C 0.53567 0.86348 0.55633 0.0
C220 C 0.50113 0.85472 0.55382 0.0
C221 C 0.48373 0.85705 0.5787 0.0
C222 C 0.50125 0.86822 0.60581 0.0
C223 C 0.48431 0.79262 0.67043 0.0
C224 C 0.51138 0.85867 0.6933 0.0
C225 C 0.5101 0.82124 0.65528 0.0
N226 N 0.523 0.8538 0.66659 0.0
C227 C 0.48565 0.83068 0.7091 0.0
C228 C 0.472 0.79746 0.6975 0.0
C229 C 0.59994 0.94045 0.6954 0.0
C230 C 0.70441 0.97953 0.61395 0.0
C231 C 0.68144 0.00277 0.66104 0.0
C232 C 0.71463 0.00712 0.66197 0.0
C233 C 0.72612 0.99538 0.63824 0.0
N234 N 0.66033 0.98729 0.6371 0.0
C235 C 0.67139 0.97566 0.61378 0.0
Co236 Co 0.66485 0.5601 0.14331 0.0
Co237 Co 0.6376 0.62004 0.13479 0.0
O238 O 0.66874 0.60189 0.12556 0.0
C239 C 0.74088 0.6139 0.15009 0.0
O240 O 0.73611 0.63972 0.14311 0.0
C241 C 0.62834 0.60345 0.0705 0.0
O242 O 0.62911 0.57539 0.07763 0.0
O243 O 0.5953 0.57321 0.13379 0.0
O244 O 0.61417 0.53529 0.13713 0.0
H245 H 0.54245 0.62549 0.18971 0.0
H246 H 0.7135 0.59429 0.09302 0.0
O247 O 0.7158 0.58293 0.15029 0.0
H248 H 0.63423 0.4754 0.05889 0.0
H249 H 0.70031 0.471 0.16259 0.0
H250 H 0.61636 0.50852 0.18654 0.0
H251 H 0.62778 0.49428 0.10893 0.0
H252 H 0.70489 0.52299 0.13904 0.0
O253 O 0.63129 0.62483 0.09078 0.0
H254 H 0.58097 0.60238 0.17801 0.0
H255 H 0.6297 0.67758 0.10999 0.0
H256 H 0.61061 0.45615 0.21036 0.0
H257 H 0.72144 0.57624 0.04313 0.0
H258 H 0.65271 0.43702 0.19837 0.0
H259 H 0.68151 0.51646 0.02569 0.0
O260 O 0.6596 0.57529 0.1836 0.0
H261 H 0.74856 0.71786 0.09461 0.0
H262 H 0.66517 0.67881 0.1777 0.0
H263 H 0.7168 0.73694 0.17944 0.0
H264 H 0.75887 0.75684 0.13763 0.0
H265 H 0.69682 0.65975 0.09399 0.0
H266 H 0.59151 0.70138 0.12075 0.0
H267 H 0.54761 0.67538 0.16096 0.0
O268 O 0.643 0.61497 0.17874 0.0
C269 C 0.59019 0.54254 0.1344 0.0
C270 C 0.56154 0.63712 0.17219 0.0
C271 C 0.58906 0.67968 0.13347 0.0
N272 N 0.60771 0.63879 0.14353 0.0
C273 C 0.58347 0.62418 0.16552 0.0
C274 C 0.61055 0.66606 0.12744 0.0
C275 C 0.56443 0.66509 0.15604 0.0
C276 C 0.69634 0.5681 0.08581 0.0
N277 N 0.67041 0.54531 0.10402 0.0
C278 C 0.70087 0.55806 0.05746 0.0
C279 C 0.67841 0.52453 0.04766 0.0
C280 C 0.65185 0.5015 0.06626 0.0
C281 C 0.64823 0.5124 0.09452 0.0
C282 C 0.68168 0.47896 0.16788 0.0
C283 C 0.63464 0.50021 0.18104 0.0
C284 C 0.68418 0.50843 0.15467 0.0
N285 N 0.66072 0.51862 0.16121 0.0
C286 C 0.6313 0.47059 0.19466 0.0
C287 C 0.65499 0.45992 0.18796 0.0
C288 C 0.65141 0.59655 0.19464 0.0
C289 C 0.73038 0.70951 0.11294 0.0
C290 C 0.68349 0.68718 0.15953 0.0
C291 C 0.7126 0.72018 0.16058 0.0
C292 C 0.73618 0.73135 0.1371 0.0
N293 N 0.67798 0.66592 0.13575 0.0
C294 C 0.70095 0.67669 0.11264 0.0
Co295 Co 0.10668 0.66645 0.64201 0.0
Co296 Co 0.01981 0.63429 0.63119 0.0
O297 O 0.06826 0.6652 0.62042 0.0
C298 C 0.12912 0.74176 0.64311 0.0
O299 O 0.10104 0.73517 0.65778 0.0
C300 C 0.02484 0.62166 0.56737 0.0
O301 O 0.05241 0.62001 0.57469 0.0
O302 O 0.02649 0.59351 0.63085 0.0
O303 O 0.08026 0.61551 0.64875 0.0
H304 H 0.92195 0.53826 0.68791 0.0
H305 H 0.12003 0.6983 0.5819 0.0
O306 O 0.13449 0.71742 0.63544 0.0
H307 H 0.154 0.60915 0.57543 0.0
H308 H 0.23246 0.70802 0.66178 0.0
H309 H 0.11312 0.6345 0.6978 0.0
H310 H 0.13076 0.61819 0.62225 0.0
H311 H 0.18324 0.70399 0.6335 0.0
O312 O 0.00767 0.62678 0.58747 0.0
H313 H 0.98306 0.57774 0.67496 0.0
H314 H 0.95305 0.62439 0.60775 0.0
H315 H 0.16157 0.6376 0.72664 0.0
H316 H 0.14497 0.69142 0.53513 0.0
H317 H 0.22178 0.67463 0.70868 0.0
H318 H 0.16161 0.6462 0.53152 0.0
O319 O 0.08867 0.67366 0.67992 0.0
H320 H 0.03161 0.74436 0.59033 0.0
H321 H 0.98739 0.66118 0.67357 0.0
H322 H 0.98016 0.71237 0.67489 0.0
H323 H 0.00229 0.75435 0.63301 0.0
H324 H 0.03853 0.69294 0.59003 0.0
H325 H 0.89156 0.58517 0.61974 0.0
H326 H 0.8757 0.54185 0.66019 0.0
O327 O 0.03107 0.64107 0.67529 0.0
C328 C 0.05112 0.59001 0.64119 0.0
C329 C 0.92853 0.55713 0.67033 0.0
C330 C 0.91147 0.58344 0.63205 0.0
N331 N 0.97158 0.60364 0.64094 0.0
C332 C 0.96308 0.57963 0.66298 0.0
C333 C 0.94631 0.60554 0.62534 0.0
C334 C 0.9026 0.55914 0.65475 0.0
C335 C 0.12794 0.67911 0.58071 0.0
N336 N 0.12428 0.65897 0.60489 0.0
C337 C 0.14177 0.67512 0.5541 0.0
C338 C 0.1511 0.64973 0.55209 0.0
C339 C 0.14679 0.62891 0.57669 0.0
C340 C 0.13337 0.634 0.6031 0.0
C341 C 0.20635 0.69174 0.6698 0.0
C342 C 0.13921 0.65042 0.68969 0.0
C343 C 0.17836 0.68937 0.65389 0.0
N344 N 0.14529 0.66873 0.66382 0.0
C345 C 0.16656 0.65218 0.70618 0.0
C346 C 0.20034 0.67299 0.69611 0.0
C347 C 0.05833 0.65888 0.69096 0.0
C348 C 0.02178 0.72621 0.60866 0.0
C349 C 0.99719 0.67939 0.65531 0.0
C350 C 0.99295 0.70829 0.65615 0.0
C351 C 0.00536 0.73182 0.63264 0.0
N352 N 0.01322 0.67401 0.63166 0.0
C353 C 0.02552 0.697 0.60857 0.0
Co354 Co 0.89407 0.56202 0.37339 0.0
Co355 Co 0.98221 0.61569 0.37975 0.0
O356 O 0.93451 0.60048 0.39176 0.0
C357 C 0.8749 0.6166 0.36532 0.0
O358 O 0.90294 0.63504 0.34946 0.0
C359 C 0.97867 0.5994 0.44382 0.0
O360 O 0.94959 0.57113 0.43763 0.0
O361 O 0.97408 0.56756 0.38056 0.0
O362 O 0.91787 0.53476 0.36982 0.0
H363 H 0.07575 0.61228 0.32031 0.0
H364 H 0.88583 0.58994 0.43077 0.0
O365 O 0.86848 0.58792 0.37674 0.0
H366 H 0.84806 0.46759 0.45071 0.0
H367 H 0.76692 0.47674 0.36219 0.0
H368 H 0.88325 0.5174 0.32105 0.0
H369 H 0.86767 0.49218 0.40053 0.0
H370 H 0.81804 0.52581 0.38533 0.0
O371 O 0.99585 0.62073 0.42309 0.0
H372 H 0.01555 0.59359 0.33449 0.0
H373 H 0.05078 0.67083 0.40162 0.0
H374 H 0.83272 0.46909 0.29669 0.0
H375 H 0.86583 0.56624 0.48116 0.0
H376 H 0.774 0.44838 0.31737 0.0
H377 H 0.84694 0.50468 0.49142 0.0
O378 O 0.91106 0.58189 0.33336 0.0
H379 H 0.97692 0.71761 0.42062 0.0
H380 H 0.01471 0.67381 0.33625 0.0
H381 H 0.02445 0.73319 0.33453 0.0
H382 H 0.00556 0.75547 0.37697 0.0
H383 H 0.96746 0.65829 0.42132 0.0
H384 H 0.11138 0.69014 0.38841 0.0
H385 H 0.12416 0.66086 0.3474 0.0
O386 O 0.96913 0.61067 0.33614 0.0
C387 C 0.94765 0.53853 0.37445 0.0
C388 C 0.07052 0.62533 0.33814 0.0
C389 C 0.09051 0.66901 0.37639 0.0
N390 N 0.0297 0.63131 0.36866 0.0
C391 C 0.03649 0.61495 0.34618 0.0
C392 C 0.05617 0.65793 0.3838 0.0
C393 C 0.09766 0.65257 0.35337 0.0
C394 C 0.87716 0.56301 0.43496 0.0
N395 N 0.87769 0.54243 0.41268 0.0
C396 C 0.86606 0.54978 0.46357 0.0
C397 C 0.85553 0.51526 0.46933 0.0
C398 C 0.85619 0.49444 0.4465 0.0
C399 C 0.86744 0.50855 0.41816 0.0
C400 C 0.79231 0.48577 0.35286 0.0
C401 C 0.85778 0.50866 0.3301 0.0
C402 C 0.82138 0.51339 0.36595 0.0
N403 N 0.85365 0.52417 0.35478 0.0
C404 C 0.82926 0.48129 0.3162 0.0
C405 C 0.79633 0.46973 0.32778 0.0
C406 C 0.94088 0.59889 0.32144 0.0
C407 C 0.98535 0.70822 0.40203 0.0
C408 C 0.00632 0.68328 0.35476 0.0
C409 C 0.01197 0.71695 0.35368 0.0
C410 C 0.00138 0.72944 0.37751 0.0
N411 N 0.99067 0.66267 0.37893 0.0
C412 C 0.98015 0.6747 0.40234 0.0
Co413 Co 0.3319 0.88947 0.87259 0.0
Co414 Co 0.36128 0.97628 0.88262 0.0
O415 O 0.33123 0.92749 0.89345 0.0
C416 C 0.25682 0.8669 0.8709 0.0
O417 O 0.26389 0.89843 0.86448 0.0
C418 C 0.37409 0.97246 0.94689 0.0
O419 O 0.3747 0.94409 0.94069 0.0
O420 O 0.40322 0.97135 0.88311 0.0
O421 O 0.38294 0.9169 0.86774 0.0
H422 H 0.45521 0.07533 0.82528 0.0
H423 H 0.2967 0.87529 0.93107 0.0
O424 O 0.28076 0.86015 0.87634 0.0
H425 H 0.38956 0.84726 0.9442 0.0
H426 H 0.29532 0.76462 0.85389 0.0
H427 H 0.36627 0.88434 0.81788 0.0
H428 H 0.38056 0.86728 0.89559 0.0
H429 H 0.29693 0.81307 0.8816 0.0
O430 O 0.36885 0.98893 0.92622 0.0
H431 H 0.41679 0.01399 0.83816 0.0
H432 H 0.36952 0.04238 0.90607 0.0
H433 H 0.36559 0.83669 0.78959 0.0
H434 H 0.30451 0.8549 0.98002 0.0
H435 H 0.32985 0.7763 0.80755 0.0
H436 H 0.35133 0.8409 0.98684 0.0
O437 O 0.32558 0.90694 0.83403 0.0
H438 H 0.25035 0.96187 0.92404 0.0
H439 H 0.3325 0.00674 0.84007 0.0
H440 H 0.28028 0.01228 0.83891 0.0
H441 H 0.23882 0.98981 0.88115 0.0
H442 H 0.30275 0.95659 0.92415 0.0
H443 H 0.40767 0.10404 0.89417 0.0
H444 H 0.4508 0.12084 0.85342 0.0
O445 O 0.3545 0.96476 0.83862 0.0
C446 C 0.40772 0.94682 0.87428 0.0
C447 C 0.43643 0.06833 0.84301 0.0
C448 C 0.40978 0.08445 0.88169 0.0
N449 N 0.39075 0.02463 0.87264 0.0
C450 C 0.41453 0.03365 0.85032 0.0
C451 C 0.38829 0.04951 0.88836 0.0
C452 C 0.43397 0.09386 0.85883 0.0
C453 C 0.31684 0.86883 0.9338 0.0
N454 N 0.33807 0.87239 0.91051 0.0
C455 C 0.32126 0.85747 0.96159 0.0
C456 C 0.34758 0.84968 0.96541 0.0
C457 C 0.36906 0.85328 0.94151 0.0
C458 C 0.36391 0.86474 0.91406 0.0
C459 C 0.31114 0.79084 0.84593 0.0
C460 C 0.35096 0.85817 0.82602 0.0
C461 C 0.31219 0.81839 0.86154 0.0
N462 N 0.33202 0.85156 0.85157 0.0
C463 C 0.35057 0.83128 0.80984 0.0
C464 C 0.33049 0.79741 0.81991 0.0
C465 C 0.33804 0.93715 0.82311 0.0
C466 C 0.26827 0.97184 0.90554 0.0
C467 C 0.31451 0.99678 0.85848 0.0
C468 C 0.28503 7e-05 0.85773 0.0
C469 C 0.26179 0.98748 0.88145 0.0
N470 N 0.32071 0.98147 0.88221 0.0
C471 C 0.29804 0.96904 0.90553 0.0
Co472 Co 0.44126 0.32924 0.37888 0.0
Co473 Co 0.38799 0.36437 0.38324 0.0
O474 O 0.40173 0.33088 0.39527 0.0
C475 C 0.38679 0.2558 0.36684 0.0
O476 O 0.36991 0.26606 0.34959 0.0
C477 C 0.40017 0.3745 0.44815 0.0
O478 O 0.42839 0.37313 0.44321 0.0
O479 O 0.43622 0.40378 0.3865 0.0
O480 O 0.46951 0.38046 0.37774 0.0
H481 H 0.39694 0.46458 0.32504 0.0
H482 H 0.4078 0.28981 0.43388 0.0
O483 O 0.4144 0.27767 0.38002 0.0
H484 H 0.52846 0.37136 0.46228 0.0
H485 H 0.52402 0.28405 0.37175 0.0
H486 H 0.49176 0.36629 0.33053 0.0
H487 H 0.50867 0.36971 0.4107 0.0
H488 H 0.4741 0.2867 0.39189 0.0
O489 O 0.38026 0.37134 0.42646 0.0
H490 H 0.41389 0.42191 0.3397 0.0
H491 H 0.33208 0.37789 0.40273 0.0
H492 H 0.54158 0.36408 0.30937 0.0
H493 H 0.42664 0.29029 0.48563 0.0
H494 H 0.55803 0.32272 0.33003 0.0
H495 H 0.48732 0.3314 0.50015 0.0
O496 O 0.42525 0.3294 0.33752 0.0
H497 H 0.28278 0.25617 0.41848 0.0
H498 H 0.33261 0.34161 0.33727 0.0
H499 H 0.27313 0.29265 0.33247 0.0
H500 H 0.2478 0.24954 0.37333 0.0
H501 H 0.3423 0.3054 0.42219 0.0
H502 H 0.31447 0.42034 0.38903 0.0
H503 H 0.34692 0.46398 0.34982 0.0
O504 O 0.39599 0.35822 0.33993 0.0
C505 C 0.46561 0.40643 0.38212 0.0
C506 C 0.38252 0.44561 0.34208 0.0
C507 C 0.33625 0.4208 0.37801 0.0
N508 N 0.37379 0.39726 0.37183 0.0
C509 C 0.39191 0.42131 0.35038 0.0
C510 C 0.34638 0.39688 0.38572 0.0
C511 C 0.35447 0.44528 0.35601 0.0
C512 C 0.43436 0.30748 0.43993 0.0
N513 N 0.45712 0.32962 0.41924 0.0
C514 C 0.44484 0.30775 0.46931 0.0
C515 C 0.47887 0.33087 0.47745 0.0
C516 C 0.50195 0.35332 0.45622 0.0
C517 C 0.49056 0.35235 0.42706 0.0
C518 C 0.51701 0.30201 0.36242 0.0
C519 C 0.49874 0.34821 0.33961 0.0
C520 C 0.4888 0.30369 0.37379 0.0
N521 N 0.48021 0.32684 0.36256 0.0
C522 C 0.52695 0.34705 0.32752 0.0
C523 C 0.53614 0.32381 0.33909 0.0
C524 C 0.40961 0.34351 0.32515 0.0
C525 C 0.29351 0.27481 0.40055 0.0
C526 C 0.32185 0.32286 0.35504 0.0
C527 C 0.28811 0.29524 0.35225 0.0
C528 C 0.27391 0.27108 0.37519 0.0
N529 N 0.34088 0.32637 0.37999 0.0
C530 C 0.32716 0.30278 0.40256 0.0
Co531 Co 0.10322 0.43872 0.8738 0.0
Co532 Co 0.01618 0.38282 0.88256 0.0
O533 O 0.06437 0.40079 0.89444 0.0
C534 C 0.12652 0.38676 0.87231 0.0
O535 O 0.09774 0.36495 0.85868 0.0
C536 C 0.01823 0.39859 0.94682 0.0
O537 O 0.04651 0.42782 0.94098 0.0
O538 O 0.02211 0.43003 0.88337 0.0
O539 O 0.07628 0.46271 0.86632 0.0
H540 H 0.91951 0.38023 0.82327 0.0
H541 H 0.11502 0.41922 0.934 0.0
O542 O 0.13163 0.41618 0.88072 0.0
H543 H 0.14374 0.54074 0.9427 0.0
H544 H 0.22911 0.52602 0.85842 0.0
H545 H 0.11149 0.47628 0.81717 0.0
H546 H 0.12511 0.51025 0.89458 0.0
H547 H 0.17918 0.47969 0.88519 0.0
O548 O 0.00235 0.37701 0.92591 0.0
H549 H 0.98035 0.40224 0.83751 0.0
H550 H 0.94904 0.32506 0.90441 0.0
H551 H 0.16055 0.52285 0.78982 0.0
H552 H 0.13405 0.44891 0.98249 0.0
H553 H 0.21992 0.54804 0.81045 0.0
H554 H 0.14839 0.51006 0.98708 0.0
O555 O 0.08676 0.4141 0.83543 0.0
H556 H 0.02862 0.28489 0.92329 0.0
H557 H 0.98601 0.32436 0.83921 0.0
H558 H 0.98002 0.26645 0.83746 0.0
H559 H 0.00136 0.24635 0.87974 0.0
H560 H 0.03433 0.34273 0.92402 0.0
H561 H 0.88784 0.30245 0.89116 0.0
H562 H 0.87277 0.33 0.85021 0.0
O563 O 0.02893 0.38829 0.83878 0.0
C564 C 0.04663 0.45831 0.87319 0.0
C565 C 0.92575 0.36793 0.84107 0.0
C566 C 0.90797 0.32429 0.8792 0.0
N567 N 0.96821 0.36476 0.87158 0.0
C568 C 0.96015 0.3802 0.84916 0.0
C569 C 0.94265 0.33725 0.88665 0.0
C570 C 0.89954 0.33976 0.85622 0.0
C571 C 0.12164 0.44596 0.93575 0.0
N572 N 0.11902 0.46298 0.91148 0.0
C573 C 0.13223 0.46258 0.96329 0.0
C574 C 0.1402 0.49687 0.96587 0.0
C575 C 0.13756 0.51409 0.94099 0.0
C576 C 0.12686 0.49664 0.91381 0.0
C577 C 0.20334 0.51544 0.84931 0.0
C578 C 0.13713 0.4875 0.82652 0.0
C579 C 0.17496 0.48922 0.86439 0.0
N580 N 0.14232 0.47584 0.85308 0.0
C581 C 0.16487 0.5137 0.81083 0.0
C582 C 0.19817 0.52777 0.82239 0.0
C583 C 0.05672 0.39794 0.82385 0.0
C584 C 0.01913 0.29332 0.90477 0.0
C585 C 0.99543 0.31583 0.85767 0.0
C586 C 0.99191 0.28299 0.85657 0.0
C587 C 0.00387 0.27172 0.88031 0.0
N588 N 0.01036 0.33682 0.88177 0.0
C589 C 0.02219 0.32598 0.9051 0.0
Co590 Co 0.6677 0.10679 0.37536 0.0
Co591 Co 0.63416 0.01931 0.38513 0.0
O592 O 0.66617 0.06762 0.3959 0.0
C593 C 0.74251 0.12771 0.37003 0.0
O594 O 0.73439 0.09937 0.35512 0.0
C595 C 0.62223 0.02452 0.44911 0.0
O596 O 0.62183 0.0528 0.44202 0.0
O597 O 0.59384 0.02686 0.3858 0.0
O598 O 0.61652 0.08173 0.3707 0.0
H599 H 0.53681 0.92299 0.32825 0.0
H600 H 0.70361 0.12 0.43361 0.0
O601 O 0.71907 0.13344 0.37977 0.0
H602 H 0.61607 0.15527 0.4471 0.0
H603 H 0.71032 0.23312 0.35772 0.0
H604 H 0.6338 0.11455 0.32145 0.0
H605 H 0.62179 0.13208 0.39894 0.0
H606 H 0.70703 0.18327 0.38433 0.0
O607 O 0.62656 0.00698 0.42885 0.0
H608 H 0.57743 0.98377 0.3413 0.0
H609 H 0.62266 0.95187 0.40831 0.0
H610 H 0.63644 0.16369 0.29412 0.0
H611 H 0.69978 0.14452 0.48173 0.0
H612 H 0.67492 0.22353 0.31227 0.0
H613 H 0.65546 0.16191 0.48885 0.0
O614 O 0.67209 0.08849 0.3365 0.0
H615 H 0.74333 0.02832 0.42533 0.0
H616 H 0.65973 0.98604 0.34237 0.0
H617 H 0.71012 0.9775 0.34063 0.0
H618 H 0.75232 0.99865 0.38236 0.0
H619 H 0.6927 0.03657 0.42604 0.0
H620 H 0.58229 0.89069 0.3962 0.0
H621 H 0.5391 0.87595 0.35581 0.0
O622 O 0.64095 0.03077 0.34113 0.0
C623 C 0.59076 0.05234 0.37718 0.0
C624 C 0.5556 0.92908 0.34582 0.0
C625 C 0.58112 0.91096 0.38397 0.0
N626 N 0.60265 0.97133 0.37527 0.0
C627 C 0.57875 0.96344 0.35323 0.0
C628 C 0.60387 0.94562 0.39076 0.0
C629 C 0.55688 0.9027 0.3613 0.0
C630 C 0.68465 0.12805 0.43636 0.0
N631 N 0.66307 0.12473 0.41342 0.0
C632 C 0.68247 0.14175 0.46371 0.0
C633 C 0.65758 0.15148 0.4677 0.0
C634 C 0.63543 0.1477 0.4443 0.0
C635 C 0.63863 0.1343 0.41714 0.0
C636 C 0.69348 0.2072 0.34961 0.0
C637 C 0.65048 0.14049 0.32958 0.0
C638 C 0.69147 0.17885 0.3646 0.0
N639 N 0.66995 0.14599 0.35464 0.0
C640 C 0.65193 0.16822 0.31396 0.0
C641 C 0.67356 0.20178 0.32413 0.0
C642 C 0.65774 0.05818 0.32542 0.0
C643 C 0.72509 0.01892 0.40705 0.0
C644 C 0.67804 0.99543 0.36056 0.0
C645 C 0.70648 0.99044 0.35948 0.0
C646 C 0.73013 0.0023 0.38291 0.0
N647 N 0.67322 0.01166 0.38435 0.0
C648 C 0.69632 0.02342 0.40738 0.0
Co649 Co 0.55897 0.66662 0.87599 0.0
Co650 Co 0.61417 0.63446 0.88296 0.0
O651 O 0.59729 0.66536 0.89538 0.0
C652 C 0.6117 0.74189 0.8735 0.0
O653 O 0.63239 0.73515 0.85772 0.0
C654 C 0.5996 0.62159 0.9473 0.0
O655 O 0.57013 0.62023 0.94164 0.0
O656 O 0.56665 0.59359 0.88447 0.0
O657 O 0.53389 0.61568 0.86939 0.0
H658 H 0.61345 0.5389 0.82344 0.0
H659 H 0.58159 0.69814 0.93584 0.0
O660 O 0.58258 0.71759 0.88245 0.0
H661 H 0.45906 0.60882 0.94754 0.0
H662 H 0.47398 0.70838 0.86226 0.0
H663 H 0.51753 0.63488 0.82149 0.0
H664 H 0.48774 0.61902 0.89864 0.0
H665 H 0.52053 0.70408 0.88788 0.0
O666 O 0.62077 0.62677 0.92615 0.0
H667 H 0.59286 0.57875 0.83809 0.0
H668 H 0.67164 0.62404 0.90373 0.0
H669 H 0.47085 0.63831 0.79521 0.0
H670 H 0.55375 0.68926 0.98504 0.0
H671 H 0.44878 0.6753 0.8156 0.0
H672 H 0.49209 0.64419 0.99116 0.0
O673 O 0.58194 0.67365 0.83687 0.0
H674 H 0.71434 0.74423 0.92226 0.0
H675 H 0.67162 0.66154 0.83864 0.0
H676 H 0.73004 0.71269 0.83603 0.0
H677 H 0.75178 0.75442 0.87809 0.0
H678 H 0.65598 0.69286 0.92384 0.0
H679 H 0.69286 0.58444 0.89005 0.0
H680 H 0.66378 0.54158 0.84954 0.0
O681 O 0.60787 0.64169 0.83939 0.0
C682 C 0.53792 0.59014 0.87587 0.0
C683 C 0.62642 0.55754 0.84105 0.0
C684 C 0.67097 0.58307 0.87846 0.0
N685 N 0.63123 0.60386 0.87154 0.0
C686 C 0.61496 0.58025 0.84936 0.0
C687 C 0.6588 0.60538 0.88615 0.0
C688 C 0.65464 0.55904 0.85573 0.0
C689 C 0.55462 0.67885 0.93823 0.0
N690 N 0.53628 0.6593 0.91435 0.0
C691 C 0.53904 0.67379 0.96618 0.0
C692 C 0.50447 0.64844 0.96961 0.0
C693 C 0.48593 0.62857 0.94516 0.0
C694 C 0.50235 0.63439 0.91754 0.0
C695 C 0.4833 0.69209 0.8532 0.0
C696 C 0.50786 0.65078 0.83064 0.0
C697 C 0.50966 0.68955 0.86761 0.0
N698 N 0.52147 0.66893 0.85637 0.0
C699 C 0.4815 0.65272 0.81561 0.0
C700 C 0.46917 0.67352 0.82703 0.0
C701 C 0.5978 0.65972 0.82483 0.0
C702 C 0.70519 0.72618 0.90383 0.0
C703 C 0.68086 0.67963 0.85699 0.0
C704 C 0.71399 0.70851 0.85541 0.0
C705 C 0.72617 0.73191 0.87902 0.0
N706 N 0.66049 0.67415 0.88144 0.0
C707 C 0.67222 0.697 0.90464 0.0
Co708 Co 0.55866 0.89265 0.87414 0.0
Co709 Co 0.61401 0.97958 0.88405 0.0
O710 O 0.59618 0.9312 0.89535 0.0
C711 C 0.61124 0.86991 0.87298 0.0
O712 O 0.63276 0.89798 0.85833 0.0
C713 C 0.59749 0.97544 0.9481 0.0
O714 O 0.56822 0.9476 0.9414 0.0
O715 O 0.56665 0.97329 0.88466 0.0
O716 O 0.53442 0.91934 0.86725 0.0
H717 H 0.61648 0.07689 0.82594 0.0
H718 H 0.57728 0.8795 0.93429 0.0
O719 O 0.5816 0.86464 0.88082 0.0
H720 H 0.45453 0.84701 0.94122 0.0
H721 H 0.47358 0.76687 0.85548 0.0
H722 H 0.52004 0.88589 0.81844 0.0
H723 H 0.4866 0.86951 0.89419 0.0
H724 H 0.51921 0.81623 0.88332 0.0
O725 O 0.61925 0.99244 0.92761 0.0
H726 H 0.59468 0.01591 0.83945 0.0
H727 H 0.67115 0.0465 0.90693 0.0
H728 H 0.47425 0.83731 0.79003 0.0
H729 H 0.54562 0.85521 0.98127 0.0
H730 H 0.45074 0.77727 0.80851 0.0
H731 H 0.48397 0.83937 0.98511 0.0
O732 O 0.58365 0.90999 0.8361 0.0
H733 H 0.712 0.96714 0.92471 0.0
H734 H 0.67301 0.01105 0.84126 0.0
H735 H 0.73118 0.01763 0.83971 0.0
H736 H 0.75105 0.99564 0.88168 0.0
H737 H 0.65392 0.96088 0.92525 0.0
H738 H 0.69362 0.10785 0.89434 0.0
H739 H 0.66631 0.12335 0.85349 0.0
O740 O 0.60913 0.9677 0.8401 0.0
C741 C 0.53833 0.94863 0.87467 0.0
C742 C 0.62869 0.07046 0.84371 0.0
C743 C 0.67195 0.08784 0.88212 0.0
N744 N 0.63186 0.02769 0.87373 0.0
C745 C 0.61653 0.03598 0.85138 0.0
C746 C 0.65909 0.05308 0.88918 0.0
C747 C 0.65662 0.09652 0.8592 0.0
C748 C 0.55025 0.87192 0.93559 0.0
N749 N 0.53378 0.87562 0.91143 0.0
C750 C 0.53254 0.85849 0.96232 0.0
C751 C 0.49794 0.84959 0.96446 0.0
C752 C 0.48143 0.85391 0.93986 0.0
C753 C 0.49982 0.86692 0.91334 0.0
C754 C 0.48355 0.79292 0.84725 0.0
C755 C 0.50971 0.85987 0.82678 0.0
C756 C 0.5094 0.82098 0.86291 0.0
N757 N 0.522 0.85396 0.8527 0.0
C758 C 0.48388 0.83245 0.81053 0.0
C759 C 0.47074 0.79877 0.8209 0.0
C760 C 0.59981 0.94018 0.82488 0.0
C761 C 0.70368 0.97691 0.90633 0.0
C762 C 0.68143 0.00135 0.85958 0.0
C763 C 0.71443 0.0052 0.8586 0.0
C764 C 0.72556 0.99287 0.88216 0.0
N765 N 0.66017 0.98576 0.88341 0.0
C766 C 0.67087 0.97355 0.90656 0.0
Co767 Co 0.67198 0.56993 0.37762 0.0
Co768 Co 0.63056 0.61754 0.38435 0.0
O769 O 0.6668 0.60696 0.39521 0.0
C770 C 0.74403 0.6092 0.35512 0.0
O771 O 0.73134 0.60005 0.32813 0.0
C772 C 0.62117 0.60141 0.44859 0.0
O773 O 0.62425 0.57455 0.44169 0.0
O774 O 0.59394 0.56792 0.3858 0.0
O775 O 0.62113 0.53796 0.37803 0.0
H776 H 0.5274 0.60318 0.32733 0.0
H777 H 0.71191 0.60506 0.43198 0.0
O778 O 0.72358 0.60141 0.37732 0.0
H779 H 0.64323 0.48179 0.45885 0.0
H780 H 0.72757 0.4967 0.36501 0.0
H781 H 0.63639 0.51917 0.32916 0.0
H782 H 0.63813 0.50176 0.40888 0.0
H783 H 0.71993 0.54247 0.38777 0.0
O784 O 0.62254 0.62188 0.42808 0.0
H785 H 0.57333 0.59019 0.3404 0.0
H786 H 0.61089 0.66795 0.40717 0.0
H787 H 0.64322 0.47305 0.30565 0.0
H788 H 0.71886 0.586 0.4818 0.0
H789 H 0.68916 0.46156 0.32354 0.0
H790 H 0.68428 0.52397 0.49555 0.0
O791 O 0.66811 0.58535 0.33715 0.0
H792 H 0.73306 0.72583 0.4231 0.0
H793 H 0.64928 0.67462 0.34081 0.0
H794 H 0.69449 0.73604 0.3383 0.0
H795 H 0.73672 0.76207 0.37972 0.0
H796 H 0.68761 0.66441 0.42453 0.0
H797 H 0.56516 0.68159 0.39501 0.0
H798 H 0.52309 0.64917 0.35475 0.0
O799 O 0.63782 0.61293 0.34052 0.0
C800 C 0.59373 0.53959 0.38191 0.0
C801 C 0.54565 0.61758 0.34484 0.0
C802 C 0.56681 0.66155 0.38286 0.0
N803 N 0.59494 0.62853 0.37432 0.0
C804 C 0.57179 0.61043 0.35226 0.0
C805 C 0.59261 0.65368 0.38968 0.0
C806 C 0.54323 0.64336 0.36026 0.0
C807 C 0.69714 0.57796 0.43765 0.0
N808 N 0.67509 0.5545 0.41735 0.0
C809 C 0.70108 0.56733 0.46593 0.0
C810 C 0.68163 0.53253 0.47364 0.0
C811 C 0.65855 0.50887 0.45308 0.0
C812 C 0.6556 0.52037 0.42488 0.0
C813 C 0.70754 0.50143 0.35692 0.0
C814 C 0.65639 0.51427 0.3371 0.0
C815 C 0.70307 0.52736 0.36976 0.0
N816 N 0.67768 0.53346 0.35986 0.0
C817 C 0.66015 0.48814 0.32368 0.0
C818 C 0.68594 0.48173 0.33371 0.0
C819 C 0.65325 0.60042 0.32531 0.0
C820 C 0.71478 0.71481 0.40494 0.0
C821 C 0.6677 0.68569 0.3588 0.0
C822 C 0.69317 0.72052 0.35732 0.0
C823 C 0.71684 0.73511 0.38058 0.0
N824 N 0.66579 0.66598 0.38281 0.0
C825 C 0.68894 0.68007 0.40566 0.0
Co826 Co 0.10512 0.66341 0.87045 0.0
Co827 Co 0.0186 0.63423 0.88073 0.0
O828 O 0.0673 0.66409 0.89166 0.0
C829 C 0.12845 0.7386 0.8703 0.0
O830 O 0.09706 0.73186 0.86375 0.0
C831 C 0.02169 0.62207 0.94523 0.0
O832 O 0.0498 0.62079 0.93942 0.0
O833 O 0.02352 0.59233 0.88212 0.0
O834 O 0.07709 0.61239 0.86426 0.0
H835 H 0.91957 0.53939 0.82411 0.0
H836 H 0.11962 0.69698 0.92969 0.0
O837 O 0.13492 0.71438 0.87535 0.0
H838 H 0.14533 0.60226 0.94013 0.0
H839 H 0.2297 0.69803 0.85272 0.0
H840 H 0.11076 0.63235 0.81386 0.0
H841 H 0.1259 0.61312 0.89198 0.0
H842 H 0.18124 0.69639 0.88045 0.0
O843 O 0.00568 0.62747 0.92425 0.0
H844 H 0.98086 0.57745 0.83739 0.0
H845 H 0.95252 0.62717 0.90302 0.0
H846 H 0.15832 0.63284 0.7856 0.0
H847 H 0.13947 0.68732 0.9782 0.0
H848 H 0.21837 0.66597 0.80498 0.0
H849 H 0.15231 0.63956 0.98366 0.0
O850 O 0.08803 0.67122 0.8323 0.0
H851 H 0.03329 0.74598 0.92021 0.0
H852 H 0.98861 0.66256 0.83719 0.0
H853 H 0.98339 0.71489 0.83495 0.0
H854 H 0.00575 0.757 0.87671 0.0
H855 H 0.03828 0.69345 0.92139 0.0
H856 H 0.89088 0.58934 0.89078 0.0
H857 H 0.87409 0.5452 0.85092 0.0
O858 O 0.03031 0.64019 0.8367 0.0
C859 C 0.04743 0.58772 0.87176 0.0
C860 C 0.92656 0.55861 0.84143 0.0
C861 C 0.91046 0.58664 0.87886 0.0
N862 N 0.97025 0.60476 0.87068 0.0
C863 C 0.96122 0.58031 0.84896 0.0
C864 C 0.94539 0.60794 0.88573 0.0
C865 C 0.90106 0.56187 0.8565 0.0
C866 C 0.12557 0.67643 0.93183 0.0
N867 N 0.12167 0.65571 0.90804 0.0
C868 C 0.13663 0.67096 0.95938 0.0
C869 C 0.14376 0.64411 0.96244 0.0
C870 C 0.13981 0.62315 0.93803 0.0
C871 C 0.12866 0.62935 0.91085 0.0
C872 C 0.20362 0.68325 0.84417 0.0
C873 C 0.13668 0.64626 0.82271 0.0
C874 C 0.17605 0.68215 0.85981 0.0
N875 N 0.14303 0.66357 0.84913 0.0
C876 C 0.16357 0.64669 0.80649 0.0
C877 C 0.19725 0.6653 0.81737 0.0
C878 C 0.05779 0.65738 0.82114 0.0
C879 C 0.02337 0.72778 0.90191 0.0
C880 C 0.99855 0.68083 0.85538 0.0
C881 C 0.99543 0.71037 0.85403 0.0
C882 C 0.00796 0.73398 0.87748 0.0
N883 N 0.01364 0.67492 0.87945 0.0
C884 C 0.02601 0.69794 0.90251 0.0
Co885 Co 0.43674 0.105 0.37287 0.0
Co886 Co 0.3833 0.01749 0.38335 0.0
O887 O 0.39932 0.06588 0.3937 0.0
C888 C 0.38279 0.12574 0.3663 0.0
O889 O 0.36293 0.09764 0.35096 0.0
C890 C 0.40083 0.02372 0.44738 0.0
O891 O 0.42926 0.05218 0.44013 0.0
O892 O 0.43134 0.02547 0.38392 0.0
O893 O 0.46327 0.08034 0.36875 0.0
H894 H 0.38464 0.92091 0.32722 0.0
H895 H 0.4138 0.11852 0.43084 0.0
O896 O 0.41161 0.13129 0.37679 0.0
H897 H 0.53706 0.15557 0.44445 0.0
H898 H 0.51924 0.23124 0.35333 0.0
H899 H 0.47828 0.11217 0.31909 0.0
H900 H 0.50819 0.13153 0.39643 0.0
H901 H 0.47332 0.18167 0.38077 0.0
O902 O 0.37903 0.00573 0.4272 0.0
H903 H 0.40422 0.98178 0.33948 0.0
H904 H 0.32816 0.95014 0.40743 0.0
H905 H 0.52419 0.16101 0.29101 0.0
H906 H 0.44209 0.14382 0.47882 0.0
H907 H 0.54499 0.2211 0.30815 0.0
H908 H 0.50403 0.16212 0.486 0.0
O909 O 0.41404 0.08603 0.33421 0.0
H910 H 0.28286 0.02586 0.42373 0.0
H911 H 0.32413 0.98327 0.34098 0.0
H912 H 0.26492 0.97408 0.33948 0.0
H913 H 0.24392 0.99539 0.3811 0.0
H914 H 0.34199 0.03474 0.42421 0.0
H915 H 0.30791 0.88891 0.39608 0.0
H916 H 0.33615 0.87399 0.35564 0.0
O917 O 0.3874 0.02832 0.33918 0.0
C918 C 0.45987 0.05111 0.37545 0.0
C919 C 0.37204 0.92708 0.34481 0.0
C920 C 0.32901 0.90912 0.38349 0.0
N921 N 0.36711 0.96946 0.37392 0.0
C922 C 0.38293 0.96149 0.35177 0.0
C923 C 0.34061 0.94382 0.38984 0.0
C924 C 0.34486 0.90077 0.36079 0.0
C925 C 0.44092 0.12695 0.43361 0.0
N926 N 0.45932 0.12366 0.4108 0.0
C927 C 0.45675 0.1411 0.46089 0.0
C928 C 0.4915 0.15133 0.46491 0.0
C929 C 0.51003 0.14761 0.44163 0.0
C930 C 0.49345 0.13374 0.41454 0.0
C931 C 0.51043 0.2052 0.34571 0.0
C932 C 0.48733 0.13823 0.3268 0.0
C933 C 0.48445 0.17702 0.36116 0.0
N934 N 0.4734 0.14403 0.35175 0.0
C935 C 0.51327 0.16578 0.31076 0.0
C936 C 0.52489 0.19948 0.32035 0.0
C937 C 0.3976 0.05564 0.32343 0.0
C938 C 0.29169 0.01638 0.4055 0.0
C939 C 0.31522 0.99272 0.35913 0.0
C940 C 0.28164 0.98737 0.35819 0.0
C941 C 0.26986 0.99931 0.38155 0.0
N942 N 0.33642 0.00938 0.38274 0.0
C943 C 0.3251 0.02124 0.40569 0.0
Co944 Co 0.33105 0.43897 0.87524 0.0
Co945 Co 0.36344 0.38409 0.8842 0.0
O946 O 0.33197 0.40084 0.89555 0.0
C947 C 0.25556 0.38679 0.87107 0.0
O948 O 0.26259 0.36587 0.85599 0.0
C949 C 0.37463 0.39838 0.94881 0.0
O950 O 0.37546 0.42756 0.94298 0.0
O951 O 0.40414 0.43169 0.88608 0.0
O952 O 0.38215 0.46395 0.86949 0.0
H953 H 0.46088 0.38557 0.82708 0.0
H954 H 0.29691 0.41744 0.9343 0.0
O955 O 0.27982 0.41554 0.88073 0.0
H956 H 0.38741 0.53945 0.94634 0.0
H957 H 0.29002 0.52415 0.85866 0.0
H958 H 0.36416 0.47991 0.82079 0.0
H959 H 0.37892 0.5101 0.89798 0.0
H960 H 0.29347 0.47768 0.88529 0.0
O961 O 0.37032 0.37748 0.92768 0.0
H962 H 0.42083 0.40619 0.84094 0.0
H963 H 0.37334 0.32646 0.90553 0.0
H964 H 0.36165 0.52656 0.79357 0.0
H965 H 0.3037 0.44622 0.98276 0.0
H966 H 0.32436 0.54898 0.8125 0.0
H967 H 0.3495 0.50752 0.98912 0.0
O968 O 0.325 0.41569 0.83636 0.0
H969 H 0.25283 0.28378 0.922 0.0
H970 H 0.33763 0.32664 0.83994 0.0
H971 H 0.2866 0.26821 0.83677 0.0
H972 H 0.2438 0.2464 0.87804 0.0
H973 H 0.30411 0.34217 0.92414 0.0
H974 H 0.4131 0.30515 0.89261 0.0
H975 H 0.45714 0.33468 0.85301 0.0
O976 O 0.35735 0.39036 0.84034 0.0
C977 C 0.40765 0.46019 0.87673 0.0
C978 C 0.44171 0.37239 0.84429 0.0
C979 C 0.41491 0.32727 0.88108 0.0
N980 N 0.39451 0.36726 0.87372 0.0
C981 C 0.41889 0.38387 0.85215 0.0
C982 C 0.3925 0.33947 0.88833 0.0
C983 C 0.43961 0.34386 0.85886 0.0
C984 C 0.31652 0.44429 0.93675 0.0
N985 N 0.33741 0.46205 0.9133 0.0
C986 C 0.32038 0.4604 0.96429 0.0
C987 C 0.34611 0.49479 0.96785 0.0
C988 C 0.36742 0.5127 0.94387 0.0
C989 C 0.36261 0.49585 0.91658 0.0
C990 C 0.30646 0.51469 0.85026 0.0
C991 C 0.3481 0.48973 0.82931 0.0
C992 C 0.30851 0.48836 0.86523 0.0
N993 N 0.32929 0.47633 0.85478 0.0
C994 C 0.3467 0.51607 0.81375 0.0
C995 C 0.32574 0.52861 0.82436 0.0
C996 C 0.33988 0.40041 0.82491 0.0
C997 C 0.27134 0.29296 0.90391 0.0
C998 C 0.31907 0.31738 0.85794 0.0
C999 C 0.29026 0.28424 0.85605 0.0
C1000 C 0.26627 0.27201 0.87922 0.0
N1001 N 0.3239 0.33772 0.88227 0.0
C1002 C 0.30047 0.32595 0.90505 0.0
Co1003 Co 0.89226 0.33064 0.37629 0.0
Co1004 Co 0.98015 0.36475 0.38298 0.0
O1005 O 0.93247 0.3325 0.39503 0.0
C1006 C 0.87125 0.25592 0.37035 0.0
O1007 O 0.89896 0.26412 0.35442 0.0
C1008 C 0.97742 0.37713 0.44728 0.0
O1009 O 0.94856 0.37692 0.44138 0.0
O1010 O 0.9723 0.40484 0.38453 0.0
O1011 O 0.91677 0.38171 0.37139 0.0
H1012 H 0.07381 0.46251 0.32431 0.0
H1013 H 0.88351 0.29602 0.43464 0.0
O1014 O 0.86603 0.27932 0.38099 0.0
H1015 H 0.84814 0.38298 0.45155 0.0
H1016 H 0.76504 0.28746 0.3642 0.0
H1017 H 0.88143 0.36374 0.32327 0.0
H1018 H 0.86706 0.3758 0.40177 0.0
H1019 H 0.81638 0.29123 0.38833 0.0
O1020 O 0.99413 0.37266 0.42631 0.0
H1021 H 0.01361 0.42131 0.33871 0.0
H1022 H 0.04864 0.37695 0.40388 0.0
H1023 H 0.83073 0.36053 0.2983 0.0
H1024 H 0.86428 0.30202 0.4847 0.0
H1025 H 0.77198 0.32217 0.31879 0.0
H1026 H 0.8466 0.34587 0.49343 0.0
O1027 O 0.90886 0.32626 0.33649 0.0
H1028 H 0.97396 0.2564 0.42195 0.0
H1029 H 0.01201 0.33938 0.33861 0.0
H1030 H 0.02108 0.28937 0.33581 0.0
H1031 H 0.00206 0.2475 0.37773 0.0
H1032 H 0.96514 0.30664 0.4237 0.0
H1033 H 0.10926 0.41794 0.39047 0.0
H1034 H 0.12213 0.46099 0.3503 0.0
O1035 O 0.9668 0.3576 0.33936 0.0
C1036 C 0.94636 0.40765 0.37696 0.0
C1037 C 0.06854 0.44378 0.34176 0.0
C1038 C 0.08843 0.41878 0.3789 0.0
N1039 N 0.02766 0.39651 0.37184 0.0
C1040 C 0.03451 0.42031 0.34992 0.0
C1041 C 0.05408 0.39567 0.38643 0.0
C1042 C 0.09563 0.44293 0.35637 0.0
C1043 C 0.87543 0.31486 0.43818 0.0
N1044 N 0.87631 0.33544 0.41528 0.0
C1045 C 0.86474 0.31826 0.46661 0.0
C1046 C 0.85488 0.34292 0.4715 0.0
C1047 C 0.85578 0.36378 0.44802 0.0
C1048 C 0.86664 0.35967 0.4199 0.0
C1049 C 0.79046 0.30422 0.35503 0.0
C1050 C 0.85597 0.34709 0.33239 0.0
C1051 C 0.81966 0.30652 0.36863 0.0
N1052 N 0.85192 0.32798 0.35741 0.0
C1053 C 0.82735 0.34533 0.31811 0.0
C1054 C 0.7944 0.32377 0.32959 0.0
C1055 C 0.93874 0.34071 0.32445 0.0
C1056 C 0.98243 0.27451 0.40357 0.0
C1057 C 0.00354 0.3212 0.35688 0.0
C1058 C 0.00883 0.29298 0.35521 0.0
C1059 C 0.99816 0.26951 0.37874 0.0
N1060 N 0.98818 0.32598 0.38135 0.0
C1061 C 0.9776 0.30305 0.40448 0.0
Co1062 Co 0.10681 0.4396 0.64518 0.0
Co1063 Co 0.01982 0.38415 0.63458 0.0
O1064 O 0.06839 0.40188 0.62399 0.0
C1065 C 0.12801 0.38613 0.64832 0.0
O1066 O 0.09871 0.36476 0.66148 0.0
C1067 C 0.02499 0.4015 0.57053 0.0
O1068 O 0.05279 0.43062 0.57763 0.0
O1069 O 0.02617 0.43152 0.63412 0.0
O1070 O 0.08049 0.46438 0.65051 0.0
H1071 H 0.92154 0.38138 0.69134 0.0
H1072 H 0.12138 0.41933 0.58632 0.0
O1073 O 0.13444 0.41605 0.64017 0.0
H1074 H 0.15321 0.54155 0.57552 0.0
H1075 H 0.23245 0.52477 0.66442 0.0
H1076 H 0.113 0.47939 0.69995 0.0
H1077 H 0.13053 0.5111 0.62319 0.0
H1078 H 0.18338 0.47852 0.63679 0.0
O1079 O 0.00776 0.37947 0.5908 0.0
H1080 H 0.98277 0.40313 0.67872 0.0
H1081 H 0.95326 0.32742 0.61072 0.0
H1082 H 0.1613 0.52567 0.72823 0.0
H1083 H 0.14537 0.44926 0.53863 0.0
H1084 H 0.22156 0.54867 0.71049 0.0
H1085 H 0.16102 0.51066 0.53287 0.0
O1086 O 0.08869 0.41558 0.68355 0.0
H1087 H 0.03262 0.28641 0.59392 0.0
H1088 H 0.98755 0.32478 0.67693 0.0
H1089 H 0.98085 0.26657 0.67836 0.0
H1090 H 0.00343 0.24703 0.63661 0.0
H1091 H 0.03899 0.34452 0.59351 0.0
H1092 H 0.89168 0.30501 0.62242 0.0
H1093 H 0.87551 0.33196 0.66308 0.0
O1094 O 0.03092 0.38856 0.6787 0.0
C1095 C 0.05102 0.46016 0.64339 0.0
C1096 C 0.92826 0.36933 0.67366 0.0
C1097 C 0.9115 0.32649 0.63495 0.0
N1098 N 0.97154 0.36633 0.64423 0.0
C1099 C 0.96288 0.38146 0.66648 0.0
C1100 C 0.94639 0.33932 0.62839 0.0
C1101 C 0.90245 0.34163 0.65776 0.0
C1102 C 0.12868 0.44622 0.58416 0.0
N1103 N 0.12464 0.46343 0.60757 0.0
C1104 C 0.14208 0.46298 0.55705 0.0
C1105 C 0.15083 0.49743 0.55382 0.0
C1106 C 0.1464 0.51475 0.57772 0.0
C1107 C 0.1333 0.49728 0.60461 0.0
C1108 C 0.20631 0.51501 0.67235 0.0
C1109 C 0.13912 0.48944 0.69196 0.0
C1110 C 0.17842 0.48883 0.65678 0.0
N1111 N 0.14531 0.47655 0.66655 0.0
C1112 C 0.16638 0.51557 0.70813 0.0
C1113 C 0.20018 0.52842 0.69818 0.0
C1114 C 0.05831 0.39872 0.69434 0.0
C1115 C 0.02259 0.2946 0.61221 0.0
C1116 C 0.99751 0.3165 0.65871 0.0
C1117 C 0.99358 0.28348 0.65962 0.0
C1118 C 0.00625 0.27253 0.63618 0.0
N1119 N 0.01349 0.33795 0.63508 0.0
C1120 C 0.02601 0.32742 0.61204 0.0
Co1121 Co 0.6579 0.10314 0.14511 0.0
Co1122 Co 0.63687 0.01815 0.13529 0.0
O1123 O 0.66344 0.06745 0.12508 0.0
C1124 C 0.73407 0.13105 0.14877 0.0
O1125 O 0.72924 0.09991 0.15317 0.0
C1126 C 0.62321 0.02169 0.07143 0.0
O1127 O 0.61959 0.0482 0.07842 0.0
O1128 O 0.59216 0.018 0.13471 0.0
O1129 O 0.60708 0.07215 0.14773 0.0
H1130 H 0.5483 0.91381 0.1912 0.0
H1131 H 0.69726 0.12065 0.08867 0.0
O1132 O 0.70873 0.13584 0.14377 0.0
H1133 H 0.59908 0.13895 0.06882 0.0
H1134 H 0.6813 0.22445 0.16203 0.0
H1135 H 0.61768 0.10388 0.19738 0.0
H1136 H 0.60663 0.11987 0.11846 0.0
H1137 H 0.68766 0.17909 0.13645 0.0
O1138 O 0.63057 0.00622 0.09158 0.0
H1139 H 0.5817 0.97585 0.17872 0.0
H1140 H 0.63601 0.95551 0.11146 0.0
H1141 H 0.61016 0.14831 0.22338 0.0
H1142 H 0.69077 0.14 0.03881 0.0
H1143 H 0.6421 0.2091 0.20569 0.0
H1144 H 0.64127 0.14912 0.02862 0.0
O1145 O 0.66361 0.08653 0.18436 0.0
H1146 H 0.75184 0.04367 0.09408 0.0
H1147 H 0.67019 0.99243 0.17786 0.0
H1148 H 0.72557 0.9928 0.17914 0.0
H1149 H 0.7668 0.01849 0.13699 0.0
H1150 H 0.69632 0.04306 0.09387 0.0
H1151 H 0.60286 0.89318 0.12287 0.0
H1152 H 0.55878 0.872 0.16314 0.0
O1153 O 0.64239 0.02932 0.17938 0.0
C1154 C 0.58464 0.04092 0.14214 0.0
C1155 C 0.56754 0.92273 0.17371 0.0
C1156 C 0.59815 0.91115 0.13535 0.0
N1157 N 0.61109 0.9693 0.14471 0.0
C1158 C 0.58664 0.95783 0.16665 0.0
C1159 C 0.61681 0.94645 0.12896 0.0
C1160 C 0.57342 0.89929 0.15793 0.0
C1161 C 0.67589 0.12497 0.08449 0.0
N1162 N 0.65247 0.11931 0.10648 0.0
C1163 C 0.67225 0.13575 0.05618 0.0
C1164 C 0.64444 0.14079 0.05047 0.0
C1165 C 0.6207 0.13504 0.07302 0.0
C1166 C 0.62509 0.12418 0.10105 0.0
C1167 C 0.66709 0.19801 0.16985 0.0
C1168 C 0.63141 0.1302 0.18939 0.0
C1169 C 0.67061 0.17222 0.15547 0.0
N1170 N 0.65269 0.13876 0.16517 0.0
C1171 C 0.62717 0.15529 0.20428 0.0
C1172 C 0.64512 0.1894 0.19436 0.0
C1173 C 0.65461 0.05683 0.19521 0.0
C1174 C 0.73405 0.03232 0.11254 0.0
C1175 C 0.68807 0.00381 0.15951 0.0
C1176 C 0.71934 0.00384 0.16031 0.0
C1177 C 0.74245 0.01824 0.13665 0.0
N1178 N 0.68001 0.01763 0.13577 0.0
C1179 C 0.70252 0.03178 0.11248 0.0
Co1180 Co 0.55758 0.66808 0.64476 0.0
Co1181 Co 0.61311 0.63639 0.63617 0.0
O1182 O 0.59578 0.66723 0.6247 0.0
C1183 C 0.61108 0.74272 0.64801 0.0
O1184 O 0.63204 0.73478 0.66191 0.0
C1185 C 0.59658 0.62344 0.5721 0.0
O1186 O 0.56751 0.6226 0.57846 0.0
O1187 O 0.56571 0.59539 0.6354 0.0
O1188 O 0.53249 0.61701 0.65032 0.0
H1189 H 0.61448 0.54097 0.69428 0.0
H1190 H 0.58002 0.70176 0.58563 0.0
O1191 O 0.58136 0.71921 0.63942 0.0
H1192 H 0.45786 0.61184 0.57289 0.0
H1193 H 0.47237 0.70914 0.66072 0.0
H1194 H 0.51636 0.635 0.69905 0.0
H1195 H 0.48644 0.6209 0.62172 0.0
H1196 H 0.51907 0.70577 0.63442 0.0
O1197 O 0.61836 0.62863 0.59271 0.0
H1198 H 0.59326 0.58065 0.68081 0.0
H1199 H 0.67012 0.62626 0.61362 0.0
H1200 H 0.46963 0.6376 0.72605 0.0
H1201 H 0.55227 0.69391 0.53648 0.0
H1202 H 0.44733 0.6749 0.70689 0.0
H1203 H 0.49081 0.64855 0.52985 0.0
O1204 O 0.58057 0.67402 0.68374 0.0
H1205 H 0.71193 0.7463 0.59559 0.0
H1206 H 0.67172 0.66372 0.67931 0.0
H1207 H 0.73008 0.71505 0.68103 0.0
H1208 H 0.75055 0.75673 0.63892 0.0
H1209 H 0.65365 0.69476 0.59489 0.0
H1210 H 0.69194 0.58683 0.6261 0.0
H1211 H 0.66414 0.5439 0.6668 0.0
O1212 O 0.60794 0.64349 0.67998 0.0
C1213 C 0.53686 0.59169 0.64391 0.0
C1214 C 0.62689 0.55965 0.67659 0.0
C1215 C 0.67035 0.58536 0.6383 0.0
N1216 N 0.63065 0.60592 0.64666 0.0
C1217 C 0.61507 0.58226 0.66895 0.0
C1218 C 0.65784 0.60757 0.6313 0.0
C1219 C 0.65474 0.56129 0.66113 0.0
C1220 C 0.55314 0.68227 0.583 0.0
N1221 N 0.53487 0.66189 0.60654 0.0
C1222 C 0.53761 0.67783 0.55509 0.0
C1223 C 0.50315 0.65233 0.55137 0.0
C1224 C 0.48465 0.6317 0.5755 0.0
C1225 C 0.50102 0.63687 0.60308 0.0
C1226 C 0.48182 0.69275 0.66926 0.0
C1227 C 0.50661 0.65108 0.69045 0.0
C1228 C 0.50824 0.69071 0.65445 0.0
N1229 N 0.52015 0.66988 0.665 0.0
C1230 C 0.48022 0.65254 0.70589 0.0
C1231 C 0.46776 0.67351 0.69515 0.0
C1232 C 0.59727 0.66062 0.69513 0.0
C1233 C 0.70334 0.72828 0.61403 0.0
C1234 C 0.68041 0.68179 0.66094 0.0
C1235 C 0.71351 0.71077 0.66201 0.0
C1236 C 0.72498 0.73413 0.63837 0.0
N1237 N 0.65938 0.67618 0.63695 0.0
C1238 C 0.67041 0.69899 0.61372 0.0
Co1239 Co 0.89027 0.55932 0.14228 0.0
Co1240 Co 0.97725 0.61694 0.1319 0.0
O1241 O 0.92826 0.59825 0.12155 0.0
C1242 C 0.86847 0.61228 0.14659 0.0
O1243 O 0.90024 0.63629 0.15286 0.0
C1244 C 0.97235 0.59954 0.06791 0.0
O1245 O 0.94449 0.57044 0.07495 0.0
O1246 O 0.9724 0.5701 0.13148 0.0
O1247 O 0.91748 0.53537 0.14572 0.0
H1248 H 0.07699 0.6227 0.18858 0.0
H1249 H 0.87452 0.58167 0.08515 0.0
O1250 O 0.86127 0.58167 0.14013 0.0
H1251 H 0.8457 0.46102 0.06884 0.0
H1252 H 0.7654 0.47123 0.16131 0.0
H1253 H 0.88543 0.51851 0.19601 0.0
H1254 H 0.8678 0.48917 0.11748 0.0
H1255 H 0.81372 0.51864 0.13394 0.0
O1256 O 0.98931 0.62173 0.08814 0.0
H1257 H 0.0155 0.59944 0.17604 0.0
H1258 H 0.04308 0.67464 0.10783 0.0
H1259 H 0.83791 0.47091 0.22393 0.0
H1260 H 0.85142 0.55414 0.03641 0.0
H1261 H 0.77737 0.44698 0.20661 0.0
H1262 H 0.83719 0.49352 0.02793 0.0
O1263 O 0.90845 0.58203 0.18106 0.0
H1264 H 0.9624 0.71326 0.09072 0.0
H1265 H 0.00817 0.67634 0.17425 0.0
H1266 H 0.01374 0.73409 0.17543 0.0
H1267 H 0.99081 0.75291 0.13341 0.0
H1268 H 0.95712 0.65561 0.09058 0.0
H1269 H 0.1049 0.69853 0.11943 0.0
H1270 H 0.12217 0.6726 0.16016 0.0
O1271 O 0.96624 0.61231 0.17601 0.0
C1272 C 0.94765 0.54085 0.13967 0.0
C1273 C 0.06979 0.6343 0.17086 0.0
C1274 C 0.08545 0.67684 0.13202 0.0
N1275 N 0.02573 0.63588 0.14144 0.0
C1276 C 0.03501 0.62132 0.16374 0.0
C1277 C 0.05043 0.66316 0.12552 0.0
C1278 C 0.09512 0.66228 0.15488 0.0
C1279 C 0.86788 0.55511 0.08174 0.0
N1280 N 0.87238 0.53704 0.10415 0.0
C1281 C 0.85497 0.53971 0.05408 0.0
C1282 C 0.84703 0.5057 0.04932 0.0
C1283 C 0.85185 0.48748 0.07224 0.0
C1284 C 0.86456 0.50363 0.09969 0.0
C1285 C 0.79169 0.48128 0.16896 0.0
C1286 C 0.8592 0.50794 0.18813 0.0
C1287 C 0.81917 0.5081 0.15354 0.0
N1288 N 0.85244 0.52099 0.16311 0.0
C1289 C 0.83238 0.4811 0.20411 0.0
C1290 C 0.79842 0.46772 0.1944 0.0
C1291 C 0.93871 0.60018 0.19179 0.0
C1292 C 0.97257 0.70539 0.10912 0.0
C1293 C 0.99801 0.68429 0.15594 0.0
C1294 C 0.00132 0.71705 0.15669 0.0
C1295 C 0.98847 0.7276 0.1331 0.0
N1296 N 0.98245 0.66269 0.13231 0.0
C1297 C 0.96976 0.67283 0.10911 0.0
Co1298 Co 0.33222 0.8927 0.64348 0.0
Co1299 Co 0.36483 0.97984 0.63503 0.0
O1300 O 0.33426 0.93197 0.62282 0.0
C1301 C 0.25701 0.87032 0.64313 0.0
O1302 O 0.26333 0.89801 0.65828 0.0
C1303 C 0.37917 0.97745 0.57102 0.0
O1304 O 0.38031 0.94938 0.57731 0.0
O1305 O 0.40555 0.97301 0.63477 0.0
O1306 O 0.38296 0.91879 0.65194 0.0
H1307 H 0.459 0.07532 0.69521 0.0
H1308 H 0.30313 0.88263 0.58248 0.0
O1309 O 0.28153 0.86523 0.6354 0.0
H1310 H 0.39365 0.85046 0.57629 0.0
H1311 H 0.29088 0.76622 0.65843 0.0
H1312 H 0.35923 0.88312 0.7009 0.0
H1313 H 0.3812 0.86942 0.62399 0.0
H1314 H 0.29643 0.81687 0.6315 0.0
O1315 O 0.37351 0.99365 0.59169 0.0
H1316 H 0.41953 0.01473 0.6807 0.0
H1317 H 0.37585 0.0475 0.61302 0.0
H1318 H 0.35462 0.83327 0.72849 0.0
H1319 H 0.31425 0.86313 0.53445 0.0
H1320 H 0.32019 0.77425 0.70725 0.0
H1321 H 0.35994 0.84708 0.53111 0.0
O1322 O 0.32346 0.90912 0.68158 0.0
H1323 H 0.25596 0.96985 0.59302 0.0
H1324 H 0.33688 0.01072 0.67795 0.0
H1325 H 0.28571 0.01805 0.67902 0.0
H1326 H 0.24487 0.9976 0.6363 0.0
H1327 H 0.30732 0.96281 0.59297 0.0
H1328 H 0.4151 0.10847 0.62652 0.0
H1329 H 0.45694 0.12268 0.66799 0.0
O1330 O 0.35675 0.96684 0.67878 0.0
C1331 C 0.40866 0.94819 0.64519 0.0
C1332 C 0.44079 0.06945 0.67717 0.0
C1333 C 0.41619 0.08806 0.6386 0.0
N1334 N 0.39524 0.02762 0.64623 0.0
C1335 C 0.41831 0.0352 0.66894 0.0
C1336 C 0.39408 0.05351 0.63101 0.0
C1337 C 0.43965 0.09602 0.66187 0.0
C1338 C 0.32267 0.87517 0.5813 0.0
N1339 N 0.34132 0.87696 0.60605 0.0
C1340 C 0.32901 0.86436 0.554 0.0
C1341 C 0.35471 0.85543 0.55213 0.0
C1342 C 0.37365 0.85736 0.57747 0.0
C1343 C 0.36657 0.86825 0.60439 0.0
C1344 C 0.30614 0.79182 0.66782 0.0
C1345 C 0.34469 0.85762 0.6913 0.0
C1346 C 0.30944 0.82061 0.65265 0.0
N1347 N 0.32885 0.85305 0.66429 0.0
C1348 C 0.34196 0.82944 0.70712 0.0
C1349 C 0.32259 0.79634 0.69522 0.0
C1350 C 0.33787 0.939 0.69346 0.0
C1351 C 0.27362 0.97896 0.61173 0.0
C1352 C 0.31917 0.00167 0.65931 0.0
C1353 C 0.29029 0.00596 0.66002 0.0
C1354 C 0.26739 0.99449 0.63604 0.0
N1355 N 0.32516 0.98652 0.63534 0.0
C1356 C 0.3028 0.97514 0.61178 0.0
Co1357 Co 0.45246 0.33954 0.14151 0.0
Co1358 Co 0.38793 0.36078 0.13539 0.0
O1359 O 0.40928 0.33299 0.12455 0.0
C1360 C 0.4034 0.26368 0.15137 0.0
O1361 O 0.37753 0.26894 0.15683 0.0
C1362 C 0.40057 0.37129 0.07039 0.0
O1363 O 0.43034 0.3731 0.07549 0.0
O1364 O 0.43287 0.40522 0.13277 0.0
O1365 O 0.4737 0.39035 0.13822 0.0
H1366 H 0.37695 0.45187 0.19186 0.0
H1367 H 0.42119 0.29408 0.08912 0.0
O1368 O 0.43317 0.28871 0.14479 0.0
H1369 H 0.53787 0.38269 0.05673 0.0
H1370 H 0.54958 0.3141 0.1551 0.0
H1371 H 0.50125 0.38692 0.18687 0.0
H1372 H 0.51815 0.38276 0.10806 0.0
H1373 H 0.49541 0.30597 0.13308 0.0
O1374 O 0.37973 0.36586 0.0919 0.0
H1375 H 0.40374 0.41701 0.17849 0.0
H1376 H 0.32554 0.36226 0.11399 0.0
H1377 H 0.55561 0.3961 0.2093 0.0
H1378 H 0.43996 0.29275 0.03765 0.0
H1379 H 0.58021 0.35964 0.19334 0.0
H1380 H 0.49863 0.33741 0.02113 0.0
O1381 O 0.43588 0.34005 0.1826 0.0
H1382 H 0.29556 0.24458 0.09894 0.0
H1383 H 0.33121 0.32978 0.18037 0.0
H1384 H 0.27617 0.27471 0.1844 0.0
H1385 H 0.25803 0.23166 0.14348 0.0
H1386 H 0.35053 0.29989 0.09593 0.0
H1387 H 0.29804 0.39675 0.12638 0.0
H1388 H 0.32369 0.44183 0.16568 0.0
O1389 O 0.39603 0.35653 0.17897 0.0
C1390 C 0.46429 0.41264 0.13451 0.0
C1391 C 0.36546 0.43225 0.17475 0.0
C1392 C 0.32119 0.40132 0.138 0.0
N1393 N 0.36608 0.38749 0.14567 0.0
C1394 C 0.38048 0.41239 0.16715 0.0
C1395 C 0.3369 0.38192 0.13103 0.0
C1396 C 0.3356 0.42661 0.16005 0.0
C1397 C 0.44684 0.31343 0.08214 0.0
N1398 N 0.46848 0.33858 0.10151 0.0
C1399 C 0.4573 0.31261 0.05295 0.0
C1400 C 0.4902 0.3377 0.04368 0.0
C1401 C 0.51221 0.36314 0.06363 0.0
C1402 C 0.50085 0.36316 0.09263 0.0
C1403 C 0.53918 0.33023 0.16218 0.0
C1404 C 0.51185 0.37102 0.17973 0.0
C1405 C 0.50845 0.32567 0.14986 0.0
N1406 N 0.49527 0.34609 0.15856 0.0
C1407 C 0.54262 0.37631 0.19254 0.0
C1408 C 0.55636 0.35579 0.18362 0.0
C1409 C 0.41451 0.3477 0.1943 0.0
C1410 C 0.30314 0.26317 0.11688 0.0
C1411 C 0.32354 0.31115 0.1625 0.0
C1412 C 0.2923 0.28005 0.16488 0.0
C1413 C 0.28212 0.25592 0.1419 0.0
N1414 N 0.344 0.31807 0.13789 0.0
C1415 C 0.33417 0.29458 0.11525 0.0
C1416 C 0.3889 0.02389 0.27478 0.0
C1417 C 0.39229 0.05273 0.29054 0.0
C1418 C 0.38944 0.02352 0.24337 0.0
C1419 C 0.39345 0.052 0.22669 0.0
H1420 H 0.38756 0.00219 0.28673 0.0
H1421 H 0.38854 0.00161 0.23218 0.0
S1422 S 0.39696 0.13103 0.25695 0.0
N1423 N 0.3951 0.10845 0.28669 0.0
N1424 N 0.39624 0.10772 0.22816 0.0
C1425 C 0.39435 0.07982 0.24216 0.0
C1426 C 0.39373 0.08019 0.27392 0.0
C1427 C 0.31802 0.40667 0.74408 0.0
C1428 C 0.33815 0.3963 0.7276 0.0
C1429 C 0.31798 0.40666 0.77525 0.0
C1430 C 0.33805 0.39627 0.79177 0.0
H1431 H 0.30256 0.41575 0.73291 0.0
H1432 H 0.3025 0.41574 0.7864 0.0
S1433 S 0.39301 0.36356 0.75974 0.0
N1434 N 0.37698 0.37295 0.73037 0.0
N1435 N 0.3769 0.37291 0.78907 0.0
C1436 C 0.35715 0.38429 0.7757 0.0
C1437 C 0.3572 0.3843 0.7437 0.0
C1438 C 0.90815 0.32097 0.24405 0.0
C1439 C 0.93846 0.34011 0.22709 0.0
C1440 C 0.90893 0.32047 0.27519 0.0
C1441 C 0.94006 0.33913 0.29121 0.0
H1442 H 0.88317 0.30661 0.23329 0.0
H1443 H 0.8845 0.30581 0.28674 0.0
S1444 S 0.02742 0.39114 0.25768 0.0
N1445 N 0.00108 0.37648 0.22877 0.0
N1446 N 0.00256 0.37562 0.28743 0.0
C1447 C 0.97089 0.35725 0.27461 0.0
C1448 C 0.97009 0.35771 0.24262 0.0
C1449 C 0.60803 0.97089 0.7445 0.0
C1450 C 0.6055 0.94276 0.7282 0.0
C1451 C 0.60803 0.97085 0.77587 0.0
C1452 C 0.6055 0.94267 0.79208 0.0
H1453 H 0.60834 0.99237 0.73302 0.0
H1454 H 0.60833 0.99228 0.78742 0.0
S1455 S 0.60456 0.86551 0.76003 0.0
N1456 N 0.60493 0.88807 0.73078 0.0
N1457 N 0.6049 0.88797 0.78935 0.0
C1458 C 0.60538 0.91553 0.776 0.0
C1459 C 0.60539 0.91558 0.7442 0.0
C1460 C 0.667 0.58433 0.27583 0.0
C1461 C 0.65311 0.60164 0.29199 0.0
C1462 C 0.66648 0.58331 0.24472 0.0
C1463 C 0.65208 0.59957 0.22784 0.0
H1464 H 0.67813 0.57083 0.2872 0.0
H1465 H 0.67749 0.56936 0.23389 0.0
S1466 S 0.61242 0.64884 0.25878 0.0
N1467 N 0.62453 0.63575 0.28847 0.0
N1468 N 0.6238 0.63406 0.22976 0.0
C1469 C 0.63838 0.6174 0.24351 0.0
C1470 C 0.63878 0.61832 0.27552 0.0
C1471 C 0.08591 0.68134 0.74065 0.0
C1472 C 0.05563 0.66087 0.72402 0.0
C1473 C 0.0858 0.6809 0.7718 0.0
C1474 C 0.05539 0.66 0.78813 0.0
H1475 H 0.11044 0.69732 0.72961 0.0
H1476 H 0.11023 0.69661 0.78307 0.0
S1477 S 0.96811 0.60424 0.7557 0.0
N1478 N 0.99357 0.6211 0.72646 0.0
N1479 N 0.99337 0.6203 0.78516 0.0
C1480 C 0.02444 0.64074 0.77194 0.0
C1481 C 0.02456 0.64118 0.73995 0.0
C1482 C 0.97061 0.60961 0.24039 0.0
C1483 C 0.94137 0.60522 0.22467 0.0
C1484 C 0.97101 0.60905 0.27178 0.0
C1485 C 0.94217 0.604 0.28856 0.0
H1486 H 0.99272 0.61192 0.22842 0.0
H1487 H 0.99349 0.61108 0.28288 0.0
S1488 S 0.86156 0.59716 0.25812 0.0
N1489 N 0.88464 0.60006 0.22843 0.0
N1490 N 0.88524 0.59875 0.28693 0.0
C1491 C 0.91371 0.6018 0.27304 0.0
C1492 C 0.91336 0.60249 0.24127 0.0
C1493 C 0.35942 0.96874 0.77427 0.0
C1494 C 0.33472 0.93974 0.79032 0.0
C1495 C 0.35935 0.96919 0.74288 0.0
C1496 C 0.33452 0.94067 0.72639 0.0
H1497 H 0.37994 0.9906 0.78594 0.0
H1498 H 0.37984 0.99139 0.73153 0.0
S1499 S 0.26073 0.86088 0.75794 0.0
N1500 N 0.28229 0.88361 0.78733 0.0
N1501 N 0.28204 0.88442 0.72879 0.0
C1502 C 0.30833 0.91254 0.7423 0.0
C1503 C 0.30847 0.91208 0.7741 0.0
C1504 C 0.42617 0.33019 0.27544 0.0
C1505 C 0.40866 0.34373 0.29178 0.0
C1506 C 0.42757 0.33143 0.24423 0.0
C1507 C 0.41137 0.3461 0.22756 0.0
H1508 H 0.43946 0.31881 0.2868 0.0
H1509 H 0.44172 0.3208 0.23314 0.0
S1510 S 0.36124 0.38457 0.2591 0.0
N1511 N 0.37421 0.37201 0.28855 0.0
N1512 N 0.37648 0.37391 0.22997 0.0
C1513 C 0.39319 0.35923 0.24348 0.0
C1514 C 0.39195 0.35818 0.27545 0.0
C1515 C 0.02714 0.39047 0.74312 0.0
C1516 C 0.0554 0.39287 0.72712 0.0
C1517 C 0.02679 0.39032 0.7745 0.0
C1518 C 0.05468 0.39255 0.79101 0.0
H1519 H 0.00592 0.3904 0.73139 0.0
H1520 H 0.00529 0.39012 0.78583 0.0
S1521 S 0.1319 0.39294 0.75975 0.0
N1522 N 0.10984 0.39297 0.73027 0.0
N1523 N 0.10917 0.39266 0.78885 0.0
C1524 C 0.08191 0.39253 0.77521 0.0
C1525 C 0.08227 0.39269 0.74341 0.0
C1526 C 0.67763 0.08618 0.27549 0.0
C1527 C 0.65926 0.05561 0.29229 0.0
C1528 C 0.67682 0.08585 0.24436 0.0
C1529 C 0.65769 0.05494 0.2282 0.0
H1530 H 0.69224 0.11103 0.28639 0.0
H1531 H 0.6909 0.11043 0.23293 0.0
S1532 S 0.60769 0.96706 0.26102 0.0
N1533 N 0.62327 0.99296 0.29014 0.0
N1534 N 0.6219 0.99238 0.23144 0.0
C1535 C 0.64058 0.02385 0.24452 0.0
C1536 C 0.6413 0.02417 0.27651 0.0
C1537 C 0.60625 0.63852 0.74403 0.0
C1538 C 0.60243 0.66353 0.728 0.0
C1539 C 0.60633 0.63828 0.77539 0.0
C1540 C 0.6026 0.66305 0.79191 0.0
H1541 H 0.60766 0.61806 0.73233 0.0
H1542 H 0.60783 0.61766 0.7867 0.0
S1543 S 0.59786 0.73759 0.76059 0.0
N1544 N 0.59919 0.71621 0.73112 0.0
N1545 N 0.59933 0.71578 0.78969 0.0
C1546 C 0.60104 0.68948 0.77609 0.0
C1547 C 0.60096 0.68971 0.74428 0.0
C1548 C 0.42882 0.1951 0.15601 0.0
C1549 C 0.39775 0.16394 0.15143 0.0
C1550 C 0.42972 0.22665 0.1569 0.0
C1551 C 0.39961 0.22881 0.15314 0.0
H1552 H 0.453 0.19535 0.15891 0.0
H1553 H 0.45458 0.24967 0.16033 0.0
S1554 S 0.31101 0.15471 0.14222 0.0
N1555 N 0.33555 0.13678 0.14459 0.0
N1556 N 0.33727 0.19677 0.14602 0.0
C1557 C 0.36796 0.19782 0.14965 0.0
C1558 C 0.36703 0.16526 0.14885 0.0
C1559 C 0.18053 0.39406 0.62259 0.0
C1560 C 0.15612 0.37802 0.64547 0.0
C1561 C 0.21167 0.39387 0.62265 0.0
C1562 C 0.21977 0.37772 0.64566 0.0
H1563 H 0.17634 0.40846 0.60525 0.0
H1564 H 0.23037 0.40813 0.60533 0.0
S1565 S 0.16314 0.3291 0.70925 0.0
N1566 N 0.14068 0.34299 0.69042 0.0
N1567 N 0.19959 0.3427 0.69062 0.0
C1568 C 0.19452 0.35927 0.66748 0.0
C1569 C 0.16256 0.35942 0.66737 0.0
C1570 C 0.82929 0.19674 0.13796 0.0
C1571 C 0.83178 0.22601 0.1521 0.0
C1572 C 0.79792 0.16497 0.13815 0.0
C1573 C 0.76847 0.16193 0.15245 0.0
H1574 H 0.85102 0.19887 0.12547 0.0
H1575 H 0.79619 0.14334 0.1258 0.0
S1576 S 0.76398 0.22921 0.1974 0.0
N1577 N 0.8038 0.24849 0.18422 0.0
N1578 N 0.74527 0.18933 0.18443 0.0
C1579 C 0.77163 0.19037 0.16841 0.0
C1580 C 0.80322 0.22232 0.16827 0.0
C1581 C 0.6033 0.78724 0.62189 0.0
C1582 C 0.61929 0.77897 0.6449 0.0
C1583 C 0.60375 0.81871 0.62164 0.0
C1584 C 0.62024 0.84322 0.64438 0.0
H1585 H 0.58874 0.7685 0.6047 0.0
H1586 H 0.5895 0.8231 0.60429 0.0
S1587 S 0.66854 0.83542 0.70832 0.0
N1588 N 0.65437 0.79883 0.68981 0.0
N1589 N 0.65525 0.8583 0.68934 0.0
C1590 C 0.63855 0.83645 0.66635 0.0
C1591 C 0.63807 0.8042 0.66661 0.0
C1592 C 0.80422 0.64365 0.13737 0.0
C1593 C 0.77599 0.61898 0.15423 0.0
C1594 C 0.83552 0.64317 0.13633 0.0
C1595 C 0.83919 0.61798 0.15205 0.0
H1596 H 0.8014 0.6619 0.12346 0.0
H1597 H 0.85603 0.6611 0.12178 0.0
S1598 S 0.77542 0.55193 0.20347 0.0
N1599 N 0.75574 0.57202 0.19016 0.0
N1600 N 0.81399 0.5709 0.18776 0.0
C1601 C 0.81217 0.59508 0.17068 0.0
C1602 C 0.78069 0.59567 0.17191 0.0
C1603 C 0.19554 0.83484 0.66023 0.0
C1604 C 0.22123 0.84164 0.63883 0.0
C1605 C 0.16415 0.80326 0.66024 0.0
C1606 C 0.15764 0.77764 0.63888 0.0
H1607 H 0.20065 0.85286 0.67829 0.0
H1608 H 0.14606 0.79798 0.67829 0.0
S1609 S 0.21365 0.78591 0.57465 0.0
N1610 N 0.23581 0.82246 0.5932 0.0
N1611 N 0.17718 0.76343 0.59324 0.0
C1612 C 0.18182 0.78559 0.61585 0.0
C1613 C 0.21355 0.81754 0.61583 0.0
C1614 C 0.83635 0.6328 0.33836 0.0
C1615 C 0.84667 0.6246 0.36526 0.0
C1616 C 0.80393 0.63046 0.33584 0.0
C1617 C 0.78101 0.62031 0.36024 0.0
H1618 H 0.85209 0.63824 0.31853 0.0
H1619 H 0.79598 0.63459 0.31414 0.0
S1620 S 0.79934 0.60239 0.437 0.0
N1621 N 0.83391 0.61031 0.41758 0.0
N1622 N 0.77359 0.60695 0.41336 0.0
C1623 C 0.79281 0.61558 0.38804 0.0
C1624 C 0.82549 0.61738 0.39039 0.0
C1625 C 0.16195 0.80177 0.88327 0.0
C1626 C 0.15827 0.77357 0.86642 0.0
C1627 C 0.1935 0.83337 0.88336 0.0
C1628 C 0.22184 0.83724 0.8666 0.0
H1629 H 0.14115 0.79877 0.89766 0.0
H1630 H 0.19635 0.85402 0.89786 0.0
S1631 S 0.22298 0.773 0.81505 0.0
N1632 N 0.1839 0.75304 0.82982 0.0
N1633 N 0.24276 0.81194 0.83004 0.0
C1634 C 0.21739 0.81001 0.84809 0.0
C1635 C 0.18565 0.77822 0.848 0.0
C1636 C 0.38801 0.17649 0.39324 0.0
C1637 C 0.37494 0.15408 0.36868 0.0
C1638 C 0.38901 0.20822 0.39333 0.0
C1639 C 0.37714 0.21898 0.36879 0.0
H1640 H 0.39934 0.17032 0.41193 0.0
H1641 H 0.401 0.22531 0.41217 0.0
S1642 S 0.33694 0.16806 0.30028 0.0
N1643 N 0.34684 0.14319 0.32032 0.0
N1644 N 0.34886 0.20323 0.32038 0.0
C1645 C 0.3614 0.19564 0.34507 0.0
C1646 C 0.36028 0.16306 0.34503 0.0
C1647 C 0.21254 0.39806 0.89616 0.0
C1648 C 0.21963 0.37997 0.87421 0.0
C1649 C 0.18128 0.39811 0.89647 0.0
C1650 C 0.15565 0.37997 0.87489 0.0
H1651 H 0.23195 0.41368 0.91255 0.0
H1652 H 0.17782 0.41376 0.91304 0.0
S1653 S 0.15994 0.32596 0.81409 0.0
N1654 N 0.19733 0.34128 0.83156 0.0
N1655 N 0.13831 0.3413 0.8322 0.0
C1656 C 0.1613 0.3598 0.854 0.0
C1657 C 0.19335 0.3598 0.85365 0.0
C1658 C 0.78715 0.18018 0.39599 0.0
C1659 C 0.77882 0.1559 0.37298 0.0
C1660 C 0.81849 0.21133 0.39609 0.0
C1661 C 0.84287 0.21965 0.37315 0.0
H1662 H 0.76853 0.17589 0.41334 0.0
H1663 H 0.82282 0.22986 0.41353 0.0
S1664 S 0.83548 0.1631 0.3097 0.0
N1665 N 0.7989 0.14063 0.32824 0.0
N1666 N 0.85811 0.19954 0.32838 0.0
C1667 C 0.8362 0.19445 0.35131 0.0
C1668 C 0.80407 0.16247 0.35123 0.0
C1669 C 0.63695 0.80291 0.85535 0.0
C1670 C 0.61888 0.77775 0.87736 0.0
C1671 C 0.63681 0.83431 0.85522 0.0
C1672 C 0.61856 0.84136 0.87706 0.0
H1673 H 0.64918 0.79737 0.83699 0.0
H1674 H 0.64895 0.85198 0.83677 0.0
S1675 S 0.57303 0.78686 0.94263 0.0
N1676 N 0.58675 0.76427 0.92388 0.0
N1677 N 0.58637 0.82289 0.92353 0.0
C1678 C 0.60308 0.8177 0.90054 0.0
C1679 C 0.60329 0.78598 0.90072 0.0
C1680 C 0.36664 0.96181 1.00193 0.0
C1681 C 0.37969 0.98531 0.97799 0.0
C1682 C 0.37203 0.97338 0.03164 0.0
C1683 C 0.39161 0.00879 0.03847 0.0
H1684 H 0.35191 0.93427 0.99766 0.0
H1685 H 0.36156 0.95441 0.04938 0.0
S1686 S 0.43154 0.08075 0.98395 0.0
N1687 N 0.41253 0.04559 0.96314 0.0
N1688 N 0.42375 0.06722 0.01885 0.0
C1689 C 0.40485 0.03249 0.01474 0.0
C1690 C 0.39859 0.02079 0.98453 0.0
C1691 C 0.40233 0.36751 0.50339 0.0
C1692 C 0.39202 0.38012 0.47901 0.0
C1693 C 0.39603 0.37342 0.53289 0.0
C1694 C 0.38004 0.393 0.53917 0.0
H1695 H 0.4153 0.35284 0.49965 0.0
H1696 H 0.40453 0.36331 0.55092 0.0
S1697 S 0.34793 0.43163 0.48332 0.0
N1698 N 0.36439 0.41244 0.46314 0.0
N1699 N 0.35352 0.42447 0.51844 0.0
C1700 C 0.36954 0.40566 0.51498 0.0
C1701 C 0.37523 0.39895 0.48495 0.0
C1702 C 0.02815 0.40256 1.00198 0.0
C1703 C 0.00493 0.3909 0.9778 0.0
C1704 C 0.01622 0.39617 0.03158 0.0
C1705 C 0.98064 0.3788 0.03807 0.0
H1706 H 0.05577 0.41656 0.99801 0.0
H1707 H 0.035 0.40566 0.0495 0.0
S1708 S 0.90924 0.34298 0.98285 0.0
N1709 N 0.94473 0.36057 0.96238 0.0
N1710 N 0.92237 0.34966 0.01788 0.0
C1711 C 0.9572 0.36705 0.0141 0.0
C1712 C 0.96932 0.37278 0.98401 0.0
C1713 C 0.59929 0.9775 0.48761 0.0
C1714 C 0.6172 0.01294 0.48062 0.0
C1715 C 0.5928 0.96616 0.51737 0.0
C1716 C 0.60486 0.98982 0.54122 0.0
H1717 H 0.5895 0.9584 0.46996 0.0
H1718 H 0.57846 0.93863 0.52173 0.0
S1719 S 0.65418 0.08534 0.53488 0.0
N1720 N 0.64726 0.07156 0.50005 0.0
N1721 N 0.63607 0.05026 0.55581 0.0
C1722 C 0.62346 0.02527 0.53453 0.0
C1723 C 0.62933 0.03681 0.50428 0.0
C1724 C 0.60374 0.62571 0.03195 0.0
C1725 C 0.62282 0.6094 0.03898 0.0
C1726 C 0.59622 0.62939 1.00221 0.0
C1727 C 0.60832 0.61777 0.97841 0.0
H1728 H 0.59375 0.63487 0.04956 0.0
H1729 H 0.58098 0.64163 0.99784 0.0
S1730 S 0.66065 0.57471 0.98486 0.0
N1731 N 0.65418 0.58212 0.01966 0.0
N1732 N 0.64099 0.59002 0.96388 0.0
C1733 C 0.62817 0.60224 0.98512 0.0
C1734 C 0.63514 0.59778 0.01537 0.0
C1735 C 0.97833 0.60101 0.52854 0.0
C1736 C 0.01368 0.61728 0.53576 0.0
C1737 C 0.96724 0.59521 0.49872 0.0
C1738 C 0.99112 0.60637 0.47503 0.0
H1739 H 0.95906 0.59197 0.54606 0.0
H1740 H 0.93975 0.58209 0.49418 0.0
S1741 S 0.08655 0.65138 0.48198 0.0
N1742 N 0.07247 0.64486 0.51672 0.0
N1743 N 0.05166 0.63497 0.46081 0.0
C1744 C 0.02651 0.62336 0.48194 0.0
C1745 C 0.03777 0.62851 0.51227 0.0
C1746 C 0.62136 0.02218 0.98672 0.0
C1747 C 0.60514 0.98685 0.97953 0.0
C1748 C 0.62712 0.03325 0.01656 0.0
C1749 C 0.61786 0.00946 0.04017 0.0
H1750 H 0.62882 0.04132 0.96922 0.0
H1751 H 0.63906 0.06066 0.02116 0.0
S1752 S 0.57616 0.91426 0.03306 0.0
N1753 N 0.58057 0.92826 0.99838 0.0
N1754 N 0.59241 0.9491 0.05427 0.0
C1755 C 0.60248 0.97418 0.03321 0.0
C1756 C 0.59583 0.96287 1.00293 0.0
C1757 C 0.59795 0.62502 0.48734 0.0
C1758 C 0.61596 0.60761 0.4802 0.0
C1759 C 0.59161 0.62985 0.51714 0.0
C1760 C 0.60387 0.61832 0.54089 0.0
H1761 H 0.58806 0.63435 0.46978 0.0
H1762 H 0.57724 0.64299 0.5216 0.0
S1763 S 0.65304 0.57203 0.53433 0.0
N1764 N 0.64601 0.57893 0.49954 0.0
N1765 N 0.63505 0.58905 0.55532 0.0
C1766 C 0.62241 0.60148 0.5341 0.0
C1767 C 0.62817 0.59583 0.50382 0.0
C1768 C 0.01997 0.62378 0.02999 0.0
C1769 C 0.9844 0.60614 0.03654 0.0
C1770 C 0.03183 0.62867 1.00038 0.0
C1771 C 0.00856 0.61701 0.97625 0.0
H1772 H 0.03878 0.63315 0.04788 0.0
H1773 H 0.05944 0.64191 0.99636 0.0
S1774 S 0.91288 0.57045 0.98142 0.0
N1775 N 0.92609 0.57735 0.01642 0.0
N1776 N 0.94832 0.58756 0.96092 0.0
C1777 C 0.97297 0.60003 0.9825 0.0
C1778 C 0.96091 0.59431 0.0126 0.0
C1779 C 0.37282 0.966 0.51606 0.0
C1780 C 0.38406 0.98985 0.53977 0.0
C1781 C 0.37748 0.97706 0.48622 0.0
C1782 C 0.39446 0.01243 0.47899 0.0
H1783 H 0.36006 0.93852 0.52058 0.0
H1784 H 0.36845 0.95781 0.46869 0.0
S1785 S 0.42871 0.08525 0.53279 0.0
N1786 N 0.4123 0.05037 0.55396 0.0
N1787 N 0.42209 0.07118 0.49804 0.0
C1788 C 0.40582 0.03649 0.5025 0.0
C1789 C 0.40033 0.02521 0.53284 0.0
C1790 C 0.40409 0.36637 0.01501 0.0
C1791 C 0.39198 0.37677 0.03966 0.0
C1792 C 0.39749 0.37252 0.98565 0.0
C1793 C 0.37945 0.39021 0.97989 0.0
H1794 H 0.41874 0.35332 0.01841 0.0
H1795 H 0.40743 0.3642 0.96736 0.0
S1796 S 0.342 0.42255 0.03657 0.0
N1797 N 0.36034 0.40486 0.05629 0.0
N1798 N 0.34897 0.41738 1.00129 0.0
C1799 C 0.36709 0.40059 1.00434 0.0
C1800 C 0.37306 0.39359 0.03418 0.0
C1801 C 0.97807 0.37558 0.53203 0.0
C1802 C 0.0135 0.39455 0.53898 0.0
C1803 C 0.96665 0.37013 0.50229 0.0
C1804 C 0.99026 0.38257 0.4784 0.0
H1805 H 0.95898 0.36556 0.54969 0.0
H1806 H 0.9391 0.35588 0.49798 0.0
S1807 S 0.08579 0.43264 0.48459 0.0
N1808 N 0.07209 0.42538 0.51945 0.0
N1809 N 0.05066 0.41415 0.4637 0.0
C1810 C 0.02574 0.40085 0.48503 0.0
C1811 C 0.03733 0.40713 0.51528 0.0
C1812 C 0.50698 0.04432 0.16909 0.0
C1813 C 0.48371 0.03013 0.14518 0.0
C1814 C 0.53864 0.04525 0.16879 0.0
C1815 C 0.54822 0.03189 0.14463 0.0
H1816 H 0.50152 0.0566 0.18746 0.0
H1817 H 0.55652 0.0581 0.18697 0.0
S1818 S 0.49526 0.989 0.07781 0.0
N1819 N 0.4711 -2e-05 0.09772 0.0
N1820 N 0.53101 0.00152 0.09728 0.0
C1821 C 0.52419 0.01517 0.12162 0.0
C1822 C 0.49174 0.01431 0.12188 0.0
C1823 C 0.47727 0.55193 0.66219 0.0
C1824 C 0.50603 0.55662 0.64563 0.0
C1825 C 0.44621 0.52059 0.6619 0.0
C1826 C 0.4423 0.49233 0.645 0.0
H1827 H 0.47838 0.57292 0.67514 0.0
H1828 H 0.42484 0.51889 0.67465 0.0
S1829 S 0.51035 0.49017 0.59911 0.0
N1830 N 0.52929 0.52969 0.61298 0.0
N1831 N 0.47054 0.47041 0.61241 0.0
C1832 C 0.47126 0.49598 0.62933 0.0
C1833 C 0.50317 0.52817 0.62965 0.0
C1834 C 0.93334 0.45401 0.16389 0.0
C1835 C 0.95279 0.44697 0.14334 0.0
C1836 C 0.93345 0.48523 0.16334 0.0
C1837 C 0.95308 0.51094 0.14228 0.0
H1838 H 0.91687 0.43473 0.18001 0.0
H1839 H 0.91711 0.48879 0.17908 0.0
S1840 S 0.01083 0.50676 0.08512 0.0
N1841 N 0.99416 0.46921 0.10254 0.0
N1842 N 0.99447 0.52846 0.1016 0.0
C1843 C 0.97442 0.50532 0.12274 0.0
C1844 C 0.97426 0.47319 0.12326 0.0
C1845 C 0.46978 0.97233 0.62767 0.0
C1846 C 0.44357 0.95254 0.64839 0.0
C1847 C 0.5013 0.97243 0.62792 0.0
C1848 C 0.50751 0.95274 0.64891 0.0
H1849 H 0.4653 0.98644 0.61026 0.0
H1850 H 0.52014 0.9866 0.6107 0.0
S1851 S 0.44979 0.90196 0.71126 0.0
N1852 N 0.42786 0.91669 0.69281 0.0
N1853 N 0.48677 0.91688 0.6933 0.0
C1854 C 0.48243 0.93487 0.67093 0.0
C1855 C 0.45053 0.93477 0.67067 0.0
C1856 C 0.55018 0.48647 0.11106 0.0
C1857 C 0.55499 0.51308 0.13055 0.0
C1858 C 0.51935 0.45488 0.11096 0.0
C1859 C 0.49226 0.44859 0.13048 0.0
H1860 H 0.57095 0.48961 0.09656 0.0
H1861 H 0.51726 0.4347 0.09629 0.0
S1862 S 0.49052 0.51107 0.18366 0.0
N1863 N 0.52912 0.53243 0.16798 0.0
N1864 N 0.47084 0.47243 0.16797 0.0
C1865 C 0.49562 0.47577 0.14853 0.0
C1866 C 0.52717 0.50824 0.14854 0.0
C1867 C 0.07033 0.51942 0.66225 0.0
C1868 C 0.04683 0.491 0.64502 0.0
C1869 C 0.07039 0.55065 0.66167 0.0
C1870 C 0.04697 0.55505 0.64383 0.0
H1871 H 0.08955 0.51793 0.67588 0.0
H1872 H 0.08966 0.57181 0.67491 0.0
S1873 S 0.97837 0.48797 0.59603 0.0
N1874 N 0.99805 0.46855 0.61081 0.0
N1875 N 0.99815 0.52758 0.60972 0.0
C1876 C 0.02212 0.52638 0.62755 0.0
C1877 C 0.02206 0.49432 0.62814 0.0
C1878 C 0.92299 0.47659 0.36102 0.0
C1879 C 0.95043 0.5068 0.37343 0.0
C1880 C 0.92262 0.44524 0.36172 0.0
C1881 C 0.94967 0.44236 0.37487 0.0
H1882 H 0.90108 0.47682 0.35095 0.0
H1883 H 0.90044 0.42293 0.35213 0.0
S1884 S 0.02879 0.51406 0.40916 0.0
N1885 N 0.00635 0.53229 0.39821 0.0
N1886 N 0.00568 0.47298 0.39952 0.0
C1887 C 0.97801 0.47256 0.38649 0.0
C1888 C 0.97839 0.5048 0.38577 0.0
C1889 C 0.48009 0.93019 0.85376 0.0
C1890 C 0.50751 0.95282 0.87233 0.0
C1891 C 0.44867 0.92977 0.85367 0.0
C1892 C 0.4431 0.95196 0.87214 0.0
H1893 H 0.48249 0.91186 0.83961 0.0
H1894 H 0.42824 0.91114 0.83946 0.0
S1895 S 0.50725 0.018 0.92347 0.0
N1896 N 0.5278 -0.00043 0.9085 0.0
N1897 N 0.46835 0.99875 0.9083 0.0
C1898 C 0.4708 0.97606 0.88973 0.0
C1899 C 0.50307 0.97649 0.88983 0.0
C1900 C 0.5296 0.44357 0.37721 0.0
C1901 C 0.49733 0.44111 0.38224 0.0
C1902 C 0.56021 0.47536 0.37717 0.0
C1903 C 0.56025 0.50648 0.38213 0.0
H1904 H 0.53153 0.4207 0.37319 0.0
H1905 H 0.58407 0.47529 0.37312 0.0
S1906 S 0.4827 0.51481 0.39603 0.0
N1907 N 0.4672 0.47288 0.39208 0.0
N1908 N 0.52496 0.5329 0.39199 0.0
C1909 C 0.52818 0.50464 0.38707 0.0
C1910 C 0.49676 0.47198 0.38713 0.0
C1911 C 0.02422 0.49619 0.89223 0.0
C1912 C 0.04158 0.48839 0.87006 0.0
C1913 C 0.02435 0.52774 0.89186 0.0
C1914 C 0.04181 0.55229 0.86929 0.0
H1915 H 0.01213 0.4787 0.9108 0.0
H1916 H 0.0124 0.5337 0.91017 0.0
S1917 S 0.0851 0.54108 0.80316 0.0
N1918 N 0.07228 0.50554 0.82288 0.0
N1919 N 0.07244 0.56444 0.82212 0.0
C1920 C 0.05691 0.54352 0.84591 0.0
C1921 C 0.05682 0.51165 0.84632 0.0
C1922 C 0.5525 0.07478 0.3605 0.0
C1923 C 0.55594 0.04879 0.37511 0.0
C1924 C 0.52114 0.07444 0.36002 0.0
C1925 C 0.4915 0.0481 0.37414 0.0
H1926 H 0.57441 0.09614 0.34963 0.0
H1927 H 0.52048 0.09557 0.34882 0.0
S1928 S 0.48576 0.97255 0.414 0.0
N1929 N 0.52639 0.9948 0.40287 0.0
N1930 N 0.46708 0.99417 0.402 0.0
C1931 C 0.49401 0.02109 0.3879 0.0
C1932 C 0.52625 0.02143 0.38838 0.0
C1933 C 0.47807 0.55096 0.85773 0.0
C1934 C 0.50682 0.55521 0.87408 0.0
C1935 C 0.4468 0.5198 0.858 0.0
C1936 C 0.44262 0.49125 0.87464 0.0
H1937 H 0.47935 0.57215 0.84498 0.0
H1938 H 0.42548 0.51847 0.84541 0.0
S1939 S 0.5105 0.48789 0.91986 0.0
N1940 N 0.52974 0.52753 0.90623 0.0
N1941 N 0.47062 0.46862 0.90673 0.0
C1942 C 0.47154 0.49447 0.89009 0.0
C1943 C 0.50368 0.52648 0.8898 0.0
loop_
_geom_bond_atom_site_label_1
_geom_bond_atom_site_label_2
_geom_bond_distance
_geom_bond_site_symmetry_2
_ccdc_geom_bond_type
Co0 O2 2.143 . S
Co0 O8 2.074 . S
Co0 O11 2.093 . S
Co0 O24 2.097 . S
Co0 N41 2.151 . S
Co0 N49 2.214 . S
Co1 O2 2.160 . S
Co1 O7 2.058 . S
Co1 O17 2.057 1_545 S
Co1 O32 2.037 . S
Co1 N36 2.145 1_545 S
Co1 N57 2.257 1_545 S
O2 Co0 2.143 . S
O2 Co1 2.160 . S
C3 O4 1.278 . S
C3 O11 1.224 . S
O4 C3 1.278 . S
C5 O6 1.245 . S
C5 O17 1.232 1_545 S
O6 C5 1.245 . S
O7 Co1 2.058 . S
O7 C33 1.269 . S
O8 Co0 2.074 . S
O8 C33 1.257 . S
H9 C34 0.930 . S
H10 C40 0.930 . S
O11 Co0 2.093 . S
O11 C3 1.224 . S
H12 C44 0.929 . S
H13 C46 0.930 . S
H14 C47 0.930 . S
H15 C45 0.929 . S
H16 C48 0.928 . S
O17 Co1 2.057 1_565 S
O17 C5 1.232 1_565 S
H18 C37 0.929 . S
H19 C38 0.929 . S
H20 C50 0.931 . S
H21 C42 0.929 . S
H22 C51 0.930 . S
H23 C43 0.931 . S
O24 Co0 2.097 . S
O24 C52 1.214 . S
H25 C53 0.929 . S
H26 C54 0.929 . S
H27 C55 0.930 . S
H28 C56 0.929 . S
H29 C58 0.930 . S
H30 C35 0.930 . S
H31 C39 0.930 . S
O32 Co1 2.037 . S
O32 C52 1.234 . S
C33 O7 1.269 . S
C33 O8 1.257 . S
C34 H9 0.930 . S
C34 C37 1.388 . S
C34 C39 1.418 . S
C35 H30 0.930 . S
C35 C38 1.404 . S
C35 C39 1.353 . S
N36 Co1 2.145 1_565 S
N36 C37 1.397 . S
N36 C38 1.334 . S
C37 H18 0.929 . S
C37 C34 1.388 . S
C37 N36 1.397 . S
C38 H19 0.929 . S
C38 C35 1.404 . S
C38 N36 1.334 . S
C39 H31 0.930 . S
C39 C34 1.418 . S
C39 C35 1.353 . S
C40 H10 0.930 . S
C40 N41 1.330 . S
C40 C42 1.446 . S
N41 Co0 2.151 . S
N41 C40 1.330 . S
N41 C45 1.418 . S
C42 H21 0.929 . S
C42 C40 1.446 . S
C42 C43 1.332 . S
C43 H23 0.931 . S
C43 C42 1.332 . S
C43 C44 1.267 . S
C44 H12 0.929 . S
C44 C43 1.267 . S
C44 C45 1.251 . S
C45 H15 0.929 . S
C45 N41 1.418 . S
C45 C44 1.251 . S
C46 H13 0.930 . S
C46 C48 1.406 . S
C46 C51 1.261 . S
C47 H14 0.930 . S
C47 N49 1.325 . S
C47 C50 1.357 . S
C48 H16 0.928 . S
C48 C46 1.406 . S
C48 N49 1.261 . S
N49 Co0 2.214 . S
N49 C47 1.325 . S
N49 C48 1.261 . S
C50 H20 0.931 . S
C50 C47 1.357 . S
C50 C51 1.312 . S
C51 H22 0.930 . S
C51 C46 1.261 . S
C51 C50 1.312 . S
C52 O24 1.214 . S
C52 O32 1.234 . S
C53 H25 0.929 . S
C53 C56 1.391 1_545 S
C53 C58 1.391 . S
C54 H26 0.929 . S
C54 C55 1.390 . S
C54 N57 1.391 . S
C55 H27 0.930 . S
C55 C54 1.390 . S
C55 C56 1.392 . S
C56 H28 0.929 . S
C56 C53 1.391 1_565 S
C56 C55 1.392 . S
N57 Co1 2.257 1_565 S
N57 C54 1.391 . S
N57 C58 1.388 1_565 S
C58 H29 0.930 . S
C58 C53 1.391 . S
C58 N57 1.388 1_545 S
Co59 O61 2.143 . S
Co59 O67 2.074 . S
Co59 O70 2.093 . S
Co59 O83 2.097 . S
Co59 N100 2.151 . S
Co59 N108 2.214 . S
Co60 O61 2.160 . S
Co60 O66 2.058 . S
Co60 O76 2.057 . S
Co60 O91 2.037 . S
Co60 N95 2.145 . S
Co60 N116 2.257 . S
O61 Co59 2.143 . S
O61 Co60 2.160 . S
C62 O63 1.278 . S
C62 O70 1.224 . S
O63 C62 1.278 . S
C64 O65 1.245 . S
C64 O76 1.232 . S
O65 C64 1.245 . S
O66 Co60 2.058 . S
O66 C92 1.269 . S
O67 Co59 2.074 . S
O67 C92 1.257 . S
H68 C93 0.930 . S
H69 C99 0.930 . S
O70 Co59 2.093 . S
O70 C62 1.224 . S
H71 C103 0.929 . S
H72 C105 0.930 . S
H73 C106 0.930 . S
H74 C104 0.929 . S
H75 C107 0.928 . S
O76 Co60 2.057 . S
O76 C64 1.232 . S
H77 C96 0.929 . S
H78 C97 0.929 . S
H79 C109 0.931 . S
H80 C101 0.929 . S
H81 C110 0.930 . S
H82 C102 0.931 . S
O83 Co59 2.097 . S
O83 C111 1.214 . S
H84 C112 0.929 . S
H85 C113 0.929 . S
H86 C114 0.930 . S
H87 C115 0.929 . S
H88 C117 0.930 . S
H89 C94 0.930 . S
H90 C98 0.930 . S
O91 Co60 2.037 . S
O91 C111 1.234 . S
C92 O66 1.269 . S
C92 O67 1.257 . S
C93 H68 0.930 . S
C93 C96 1.388 . S
C93 C98 1.418 . S
C94 H89 0.930 . S
C94 C97 1.404 . S
C94 C98 1.353 . S
N95 Co60 2.145 . S
N95 C96 1.397 . S
N95 C97 1.334 . S
C96 H77 0.929 . S
C96 C93 1.388 . S
C96 N95 1.397 . S
C97 H78 0.929 . S
C97 C94 1.404 . S
C97 N95 1.334 . S
C98 H90 0.930 . S
C98 C93 1.418 . S
C98 C94 1.353 . S
C99 H69 0.930 . S
C99 N100 1.330 . S
C99 C101 1.446 . S
N100 Co59 2.151 . S
N100 C99 1.330 . S
N100 C104 1.418 . S
C101 H80 0.929 . S
C101 C99 1.446 . S
C101 C102 1.332 . S
C102 H82 0.931 . S
C102 C101 1.332 . S
C102 C103 1.267 . S
C103 H71 0.929 . S
C103 C102 1.267 . S
C103 C104 1.251 . S
C104 H74 0.929 . S
C104 N100 1.418 . S
C104 C103 1.251 . S
C105 H72 0.930 . S
C105 C107 1.406 . S
C105 C110 1.261 . S
C106 H73 0.930 . S
C106 N108 1.325 . S
C106 C109 1.357 . S
C107 H75 0.928 . S
C107 C105 1.406 . S
C107 N108 1.261 . S
N108 Co59 2.214 . S
N108 C106 1.325 . S
N108 C107 1.261 . S
C109 H79 0.931 . S
C109 C106 1.357 . S
C109 C110 1.312 . S
C110 H81 0.930 . S
C110 C105 1.261 . S
C110 C109 1.312 . S
C111 O83 1.214 . S
C111 O91 1.234 . S
C112 H84 0.929 . S
C112 C115 1.391 . S
C112 C117 1.391 . S
C113 H85 0.929 . S
C113 C114 1.390 . S
C113 N116 1.391 . S
C114 H86 0.930 . S
C114 C113 1.390 . S
C114 C115 1.392 . S
C115 H87 0.929 . S
C115 C112 1.391 . S
C115 C114 1.392 . S
N116 Co60 2.257 . S
N116 C113 1.391 . S
N116 C117 1.388 . S
C117 H88 0.930 . S
C117 C112 1.391 . S
C117 N116 1.388 . S
Co118 O120 2.143 . S
Co118 O126 2.074 . S
Co118 O129 2.093 . S
Co118 O142 2.097 . S
Co118 N159 2.151 . S
Co118 N167 2.214 . S
Co119 O120 2.160 . S
Co119 O125 2.058 . S
Co119 O135 2.057 1_655 S
Co119 O150 2.037 . S
Co119 N154 2.145 1_655 S
Co119 N175 2.257 1_655 S
O120 Co118 2.143 . S
O120 Co119 2.160 . S
C121 O122 1.278 . S
C121 O129 1.224 . S
O122 C121 1.278 . S
C123 O124 1.245 . S
C123 O135 1.232 1_655 S
O124 C123 1.245 . S
O125 Co119 2.058 . S
O125 C151 1.269 . S
O126 Co118 2.074 . S
O126 C151 1.257 . S
H127 C152 0.930 . S
H128 C158 0.930 . S
O129 Co118 2.093 . S
O129 C121 1.224 . S
H130 C162 0.929 . S
H131 C164 0.930 . S
H132 C165 0.930 . S
H133 C163 0.929 . S
H134 C166 0.928 . S
O135 Co119 2.057 1_455 S
O135 C123 1.232 1_455 S
H136 C155 0.929 . S
H137 C156 0.929 . S
H138 C168 0.931 . S
H139 C160 0.929 . S
H140 C169 0.930 . S
H141 C161 0.931 . S
O142 Co118 2.097 . S
O142 C170 1.214 . S
H143 C171 0.929 . S
H144 C172 0.929 . S
H145 C173 0.930 . S
H146 C174 0.929 . S
H147 C176 0.930 . S
H148 C153 0.930 . S
H149 C157 0.930 . S
O150 Co119 2.037 . S
O150 C170 1.234 . S
C151 O125 1.269 . S
C151 O126 1.257 . S
C152 H127 0.930 . S
C152 C155 1.388 . S
C152 C157 1.418 . S
C153 H148 0.930 . S
C153 C156 1.404 . S
C153 C157 1.353 . S
N154 Co119 2.145 1_455 S
N154 C155 1.397 . S
N154 C156 1.334 . S
C155 H136 0.929 . S
C155 C152 1.388 . S
C155 N154 1.397 . S
C156 H137 0.929 . S
C156 C153 1.404 . S
C156 N154 1.334 . S
C157 H149 0.930 . S
C157 C152 1.418 . S
C157 C153 1.353 . S
C158 H128 0.930 . S
C158 N159 1.330 . S
C158 C160 1.446 . S
N159 Co118 2.151 . S
N159 C158 1.330 . S
N159 C163 1.418 . S
C160 H139 0.929 . S
C160 C158 1.446 . S
C160 C161 1.332 . S
C161 H141 0.931 . S
C161 C160 1.332 . S
C161 C162 1.267 . S
C162 H130 0.929 . S
C162 C161 1.267 . S
C162 C163 1.251 . S
C163 H133 0.929 . S
C163 N159 1.418 . S
C163 C162 1.251 . S
C164 H131 0.930 . S
C164 C166 1.406 . S
C164 C169 1.261 . S
C165 H132 0.930 . S
C165 N167 1.325 . S
C165 C168 1.357 . S
C166 H134 0.928 . S
C166 C164 1.406 . S
C166 N167 1.261 . S
N167 Co118 2.214 . S
N167 C165 1.325 . S
N167 C166 1.261 . S
C168 H138 0.931 . S
C168 C165 1.357 . S
C168 C169 1.312 . S
C169 H140 0.930 . S
C169 C164 1.261 . S
C169 C168 1.312 . S
C170 O142 1.214 . S
C170 O150 1.234 . S
C171 H143 0.929 . S
C171 C174 1.391 1_655 S
C171 C176 1.391 . S
C172 H144 0.929 . S
C172 C173 1.390 . S
C172 N175 1.391 . S
C173 H145 0.930 . S
C173 C172 1.390 . S
C173 C174 1.392 . S
C174 H146 0.929 . S
C174 C171 1.391 1_455 S
C174 C173 1.392 . S
N175 Co119 2.257 1_455 S
N175 C172 1.391 . S
N175 C176 1.388 1_455 S
C176 H147 0.930 . S
C176 C171 1.391 . S
C176 N175 1.388 1_655 S
Co177 O179 2.143 . S
Co177 O185 2.074 . S
Co177 O188 2.093 . S
Co177 O201 2.097 . S
Co177 N218 2.151 . S
Co177 N226 2.214 . S
Co178 O179 2.160 . S
Co178 O184 2.058 . S
Co178 O194 2.057 1_565 S
Co178 O209 2.037 . S
Co178 N213 2.145 1_565 S
Co178 N234 2.257 1_565 S
O179 Co177 2.143 . S
O179 Co178 2.160 . S
C180 O181 1.278 . S
C180 O188 1.224 . S
O181 C180 1.278 . S
C182 O183 1.245 . S
C182 O194 1.232 1_565 S
O183 C182 1.245 . S
O184 Co178 2.058 . S
O184 C210 1.269 . S
O185 Co177 2.074 . S
O185 C210 1.257 . S
H186 C211 0.930 . S
H187 C217 0.930 . S
O188 Co177 2.093 . S
O188 C180 1.224 . S
H189 C221 0.929 . S
H190 C223 0.930 . S
H191 C224 0.930 . S
H192 C222 0.929 . S
H193 C225 0.928 . S
O194 Co178 2.057 1_545 S
O194 C182 1.232 1_545 S
H195 C214 0.929 . S
H196 C215 0.929 . S
H197 C227 0.931 . S
H198 C219 0.929 . S
H199 C228 0.930 . S
H200 C220 0.931 . S
O201 Co177 2.097 . S
O201 C229 1.214 . S
H202 C230 0.929 . S
H203 C231 0.929 . S
H204 C232 0.930 . S
H205 C233 0.929 . S
H206 C235 0.930 . S
H207 C212 0.930 . S
H208 C216 0.930 . S
O209 Co178 2.037 . S
O209 C229 1.234 . S
C210 O184 1.269 . S
C210 O185 1.257 . S
C211 H186 0.930 . S
C211 C214 1.388 . S
C211 C216 1.418 . S
C212 H207 0.930 . S
C212 C215 1.404 . S
C212 C216 1.353 . S
N213 Co178 2.145 1_545 S
N213 C214 1.397 . S
N213 C215 1.334 . S
C214 H195 0.929 . S
C214 C211 1.388 . S
C214 N213 1.397 . S
C215 H196 0.929 . S
C215 C212 1.404 . S
C215 N213 1.334 . S
C216 H208 0.930 . S
C216 C211 1.418 . S
C216 C212 1.353 . S
C217 H187 0.930 . S
C217 N218 1.330 . S
C217 C219 1.446 . S
N218 Co177 2.151 . S
N218 C217 1.330 . S
N218 C222 1.418 . S
C219 H198 0.929 . S
C219 C217 1.446 . S
C219 C220 1.332 . S
C220 H200 0.931 . S
C220 C219 1.332 . S
C220 C221 1.267 . S
C221 H189 0.929 . S
C221 C220 1.267 . S
C221 C222 1.251 . S
C222 H192 0.929 . S
C222 N218 1.418 . S
C222 C221 1.251 . S
C223 H190 0.930 . S
C223 C225 1.406 . S
C223 C228 1.261 . S
C224 H191 0.930 . S
C224 N226 1.325 . S
C224 C227 1.357 . S
C225 H193 0.928 . S
C225 C223 1.406 . S
C225 N226 1.261 . S
N226 Co177 2.214 . S
N226 C224 1.325 . S
N226 C225 1.261 . S
C227 H197 0.931 . S
C227 C224 1.357 . S
C227 C228 1.312 . S
C228 H199 0.930 . S
C228 C223 1.261 . S
C228 C227 1.312 . S
C229 O201 1.214 . S
C229 O209 1.234 . S
C230 H202 0.929 . S
C230 C233 1.391 1_565 S
C230 C235 1.391 . S
C231 H203 0.929 . S
C231 C232 1.390 . S
C231 N234 1.391 . S
C232 H204 0.930 . S
C232 C231 1.390 . S
C232 C233 1.392 . S
C233 H205 0.929 . S
C233 C230 1.391 1_545 S
C233 C232 1.392 . S
N234 Co178 2.257 1_545 S
N234 C231 1.391 . S
N234 C235 1.388 1_545 S
C235 H206 0.930 . S
C235 C230 1.391 . S
C235 N234 1.388 1_565 S
Co236 O238 2.143 . S
Co236 O244 2.074 . S
Co236 O247 2.093 . S
Co236 O260 2.097 . S
Co236 N277 2.151 . S
Co236 N285 2.214 . S
Co237 O238 2.160 . S
Co237 O243 2.058 . S
Co237 O253 2.057 . S
Co237 O268 2.037 . S
Co237 N272 2.145 . S
Co237 N293 2.257 . S
O238 Co236 2.143 . S
O238 Co237 2.160 . S
C239 O240 1.278 . S
C239 O247 1.224 . S
O240 C239 1.278 . S
C241 O242 1.245 . S
C241 O253 1.232 . S
O242 C241 1.245 . S
O243 Co237 2.058 . S
O243 C269 1.269 . S
O244 Co236 2.074 . S
O244 C269 1.257 . S
H245 C270 0.930 . S
H246 C276 0.930 . S
O247 Co236 2.093 . S
O247 C239 1.224 . S
H248 C280 0.929 . S
H249 C282 0.930 . S
H250 C283 0.930 . S
H251 C281 0.929 . S
H252 C284 0.928 . S
O253 Co237 2.057 . S
O253 C241 1.232 . S
H254 C273 0.929 . S
H255 C274 0.929 . S
H256 C286 0.931 . S
H257 C278 0.929 . S
H258 C287 0.930 . S
H259 C279 0.931 . S
O260 Co236 2.097 . S
O260 C288 1.214 . S
H261 C289 0.929 . S
H262 C290 0.929 . S
H263 C291 0.930 . S
H264 C292 0.929 . S
H265 C294 0.930 . S
H266 C271 0.930 . S
H267 C275 0.930 . S
O268 Co237 2.037 . S
O268 C288 1.234 . S
C269 O243 1.269 . S
C269 O244 1.257 . S
C270 H245 0.930 . S
C270 C273 1.388 . S
C270 C275 1.418 . S
C271 H266 0.930 . S
C271 C274 1.404 . S
C271 C275 1.353 . S
N272 Co237 2.145 . S
N272 C273 1.397 . S
N272 C274 1.334 . S
C273 H254 0.929 . S
C273 C270 1.388 . S
C273 N272 1.397 . S
C274 H255 0.929 . S
C274 C271 1.404 . S
C274 N272 1.334 . S
C275 H267 0.930 . S
C275 C270 1.418 . S
C275 C271 1.353 . S
C276 H246 0.930 . S
C276 N277 1.330 . S
C276 C278 1.446 . S
N277 Co236 2.151 . S
N277 C276 1.330 . S
N277 C281 1.418 . S
C278 H257 0.929 . S
C278 C276 1.446 . S
C278 C279 1.332 . S
C279 H259 0.931 . S
C279 C278 1.332 . S
C279 C280 1.267 . S
C280 H248 0.929 . S
C280 C279 1.267 . S
C280 C281 1.251 . S
C281 H251 0.929 . S
C281 N277 1.418 . S
C281 C280 1.251 . S
C282 H249 0.930 . S
C282 C284 1.406 . S
C282 C287 1.261 . S
C283 H250 0.930 . S
C283 N285 1.325 . S
C283 C286 1.357 . S
C284 H252 0.928 . S
C284 C282 1.406 . S
C284 N285 1.261 . S
N285 Co236 2.214 . S
N285 C283 1.325 . S
N285 C284 1.261 . S
C286 H256 0.931 . S
C286 C283 1.357 . S
C286 C287 1.312 . S
C287 H258 0.930 . S
C287 C282 1.261 . S
C287 C286 1.312 . S
C288 O260 1.214 . S
C288 O268 1.234 . S
C289 H261 0.929 . S
C289 C292 1.391 . S
C289 C294 1.391 . S
C290 H262 0.929 . S
C290 C291 1.390 . S
C290 N293 1.391 . S
C291 H263 0.930 . S
C291 C290 1.390 . S
C291 C292 1.392 . S
C292 H264 0.929 . S
C292 C289 1.391 . S
C292 C291 1.392 . S
N293 Co237 2.257 . S
N293 C290 1.391 . S
N293 C294 1.388 . S
C294 H265 0.930 . S
C294 C289 1.391 . S
C294 N293 1.388 . S
Co295 O297 2.143 . S
Co295 O303 2.074 . S
Co295 O306 2.093 . S
Co295 O319 2.097 . S
Co295 N336 2.151 . S
Co295 N344 2.214 . S
Co296 O297 2.160 . S
Co296 O302 2.058 . S
Co296 O312 2.057 1_455 S
Co296 O327 2.037 . S
Co296 N331 2.145 1_455 S
Co296 N352 2.257 1_455 S
O297 Co295 2.143 . S
O297 Co296 2.160 . S
C298 O299 1.278 . S
C298 O306 1.224 . S
O299 C298 1.278 . S
C300 O301 1.245 . S
C300 O312 1.232 1_455 S
O301 C300 1.245 . S
O302 Co296 2.058 . S
O302 C328 1.269 . S
O303 Co295 2.074 . S
O303 C328 1.257 . S
H304 C329 0.930 . S
H305 C335 0.930 . S
O306 Co295 2.093 . S
O306 C298 1.224 . S
H307 C339 0.929 . S
H308 C341 0.930 . S
H309 C342 0.930 . S
H310 C340 0.929 . S
H311 C343 0.928 . S
O312 Co296 2.057 1_655 S
O312 C300 1.232 1_655 S
H313 C332 0.929 . S
H314 C333 0.929 . S
H315 C345 0.931 . S
H316 C337 0.929 . S
H317 C346 0.930 . S
H318 C338 0.931 . S
O319 Co295 2.097 . S
O319 C347 1.214 . S
H320 C348 0.929 . S
H321 C349 0.929 . S
H322 C350 0.930 . S
H323 C351 0.929 . S
H324 C353 0.930 . S
H325 C330 0.930 . S
H326 C334 0.930 . S
O327 Co296 2.037 . S
O327 C347 1.234 . S
C328 O302 1.269 . S
C328 O303 1.257 . S
C329 H304 0.930 . S
C329 C332 1.388 . S
C329 C334 1.418 . S
C330 H325 0.930 . S
C330 C333 1.404 . S
C330 C334 1.353 . S
N331 Co296 2.145 1_655 S
N331 C332 1.397 . S
N331 C333 1.334 . S
C332 H313 0.929 . S
C332 C329 1.388 . S
C332 N331 1.397 . S
C333 H314 0.929 . S
C333 C330 1.404 . S
C333 N331 1.334 . S
C334 H326 0.930 . S
C334 C329 1.418 . S
C334 C330 1.353 . S
C335 H305 0.930 . S
C335 N336 1.330 . S
C335 C337 1.446 . S
N336 Co295 2.151 . S
N336 C335 1.330 . S
N336 C340 1.418 . S
C337 H316 0.929 . S
C337 C335 1.446 . S
C337 C338 1.332 . S
C338 H318 0.931 . S
C338 C337 1.332 . S
C338 C339 1.267 . S
C339 H307 0.929 . S
C339 C338 1.267 . S
C339 C340 1.251 . S
C340 H310 0.929 . S
C340 N336 1.418 . S
C340 C339 1.251 . S
C341 H308 0.930 . S
C341 C343 1.406 . S
C341 C346 1.261 . S
C342 H309 0.930 . S
C342 N344 1.325 . S
C342 C345 1.357 . S
C343 H311 0.928 . S
C343 C341 1.406 . S
C343 N344 1.261 . S
N344 Co295 2.214 . S
N344 C342 1.325 . S
N344 C343 1.261 . S
C345 H315 0.931 . S
C345 C342 1.357 . S
C345 C346 1.312 . S
C346 H317 0.930 . S
C346 C341 1.261 . S
C346 C345 1.312 . S
C347 O319 1.214 . S
C347 O327 1.234 . S
C348 H320 0.929 . S
C348 C351 1.391 1_455 S
C348 C353 1.391 . S
C349 H321 0.929 . S
C349 C350 1.390 . S
C349 N352 1.391 . S
C350 H322 0.930 . S
C350 C349 1.390 . S
C350 C351 1.392 . S
C351 H323 0.929 . S
C351 C348 1.391 1_655 S
C351 C350 1.392 . S
N352 Co296 2.257 1_655 S
N352 C349 1.391 . S
N352 C353 1.388 1_655 S
C353 H324 0.930 . S
C353 C348 1.391 . S
C353 N352 1.388 1_455 S
Co354 O356 2.143 . S
Co354 O362 2.074 . S
Co354 O365 2.093 . S
Co354 O378 2.097 . S
Co354 N395 2.151 . S
Co354 N403 2.214 . S
Co355 O356 2.160 . S
Co355 O361 2.058 . S
Co355 O371 2.057 1_655 S
Co355 O386 2.037 . S
Co355 N390 2.145 1_655 S
Co355 N411 2.257 1_655 S
O356 Co354 2.143 . S
O356 Co355 2.160 . S
C357 O358 1.278 . S
C357 O365 1.224 . S
O358 C357 1.278 . S
C359 O360 1.245 . S
C359 O371 1.232 1_655 S
O360 C359 1.245 . S
O361 Co355 2.058 . S
O361 C387 1.269 . S
O362 Co354 2.074 . S
O362 C387 1.257 . S
H363 C388 0.930 . S
H364 C394 0.930 . S
O365 Co354 2.093 . S
O365 C357 1.224 . S
H366 C398 0.929 . S
H367 C400 0.930 . S
H368 C401 0.930 . S
H369 C399 0.929 . S
H370 C402 0.928 . S
O371 Co355 2.057 1_455 S
O371 C359 1.232 1_455 S
H372 C391 0.929 . S
H373 C392 0.929 . S
H374 C404 0.931 . S
H375 C396 0.929 . S
H376 C405 0.930 . S
H377 C397 0.931 . S
O378 Co354 2.097 . S
O378 C406 1.214 . S
H379 C407 0.929 . S
H380 C408 0.929 . S
H381 C409 0.930 . S
H382 C410 0.929 . S
H383 C412 0.930 . S
H384 C389 0.930 . S
H385 C393 0.930 . S
O386 Co355 2.037 . S
O386 C406 1.234 . S
C387 O361 1.269 . S
C387 O362 1.257 . S
C388 H363 0.930 . S
C388 C391 1.388 . S
C388 C393 1.418 . S
C389 H384 0.930 . S
C389 C392 1.404 . S
C389 C393 1.353 . S
N390 Co355 2.145 1_455 S
N390 C391 1.397 . S
N390 C392 1.334 . S
C391 H372 0.929 . S
C391 C388 1.388 . S
C391 N390 1.397 . S
C392 H373 0.929 . S
C392 C389 1.404 . S
C392 N390 1.334 . S
C393 H385 0.930 . S
C393 C388 1.418 . S
C393 C389 1.353 . S
C394 H364 0.930 . S
C394 N395 1.330 . S
C394 C396 1.446 . S
N395 Co354 2.151 . S
N395 C394 1.330 . S
N395 C399 1.418 . S
C396 H375 0.929 . S
C396 C394 1.446 . S
C396 C397 1.332 . S
C397 H377 0.931 . S
C397 C396 1.332 . S
C397 C398 1.267 . S
C398 H366 0.929 . S
C398 C397 1.267 . S
C398 C399 1.251 . S
C399 H369 0.929 . S
C399 N395 1.418 . S
C399 C398 1.251 . S
C400 H367 0.930 . S
C400 C402 1.406 . S
C400 C405 1.261 . S
C401 H368 0.930 . S
C401 N403 1.325 . S
C401 C404 1.357 . S
C402 H370 0.928 . S
C402 C400 1.406 . S
C402 N403 1.261 . S
N403 Co354 2.214 . S
N403 C401 1.325 . S
N403 C402 1.261 . S
C404 H374 0.931 . S
C404 C401 1.357 . S
C404 C405 1.312 . S
C405 H376 0.930 . S
C405 C400 1.261 . S
C405 C404 1.312 . S
C406 O378 1.214 . S
C406 O386 1.234 . S
C407 H379 0.929 . S
C407 C410 1.391 1_655 S
C407 C412 1.391 . S
C408 H380 0.929 . S
C408 C409 1.390 . S
C408 N411 1.391 . S
C409 H381 0.930 . S
C409 C408 1.390 . S
C409 C410 1.392 . S
C410 H382 0.929 . S
C410 C407 1.391 1_455 S
C410 C409 1.392 . S
N411 Co355 2.257 1_455 S
N411 C408 1.391 . S
N411 C412 1.388 1_455 S
C412 H383 0.930 . S
C412 C407 1.391 . S
C412 N411 1.388 1_655 S
Co413 O415 2.143 . S
Co413 O421 2.074 . S
Co413 O424 2.093 . S
Co413 O437 2.097 . S
Co413 N454 2.151 . S
Co413 N462 2.214 . S
Co414 O415 2.160 . S
Co414 O420 2.058 . S
Co414 O430 2.057 1_565 S
Co414 O445 2.037 . S
Co414 N449 2.145 1_565 S
Co414 N470 2.257 1_565 S
O415 Co413 2.143 . S
O415 Co414 2.160 . S
C416 O417 1.278 . S
C416 O424 1.224 . S
O417 C416 1.278 . S
C418 O419 1.245 . S
C418 O430 1.232 1_565 S
O419 C418 1.245 . S
O420 Co414 2.058 . S
O420 C446 1.269 . S
O421 Co413 2.074 . S
O421 C446 1.257 . S
H422 C447 0.930 . S
H423 C453 0.930 . S
O424 Co413 2.093 . S
O424 C416 1.224 . S
H425 C457 0.929 . S
H426 C459 0.930 . S
H427 C460 0.930 . S
H428 C458 0.929 . S
H429 C461 0.928 . S
O430 Co414 2.057 1_545 S
O430 C418 1.232 1_545 S
H431 C450 0.929 . S
H432 C451 0.929 . S
H433 C463 0.931 . S
H434 C455 0.929 . S
H435 C464 0.930 . S
H436 C456 0.931 . S
O437 Co413 2.097 . S
O437 C465 1.214 . S
H438 C466 0.929 . S
H439 C467 0.929 . S
H440 C468 0.930 . S
H441 C469 0.929 . S
H442 C471 0.930 . S
H443 C448 0.930 . S
H444 C452 0.930 . S
O445 Co414 2.037 . S
O445 C465 1.234 . S
C446 O420 1.269 . S
C446 O421 1.257 . S
C447 H422 0.930 . S
C447 C450 1.388 . S
C447 C452 1.418 . S
C448 H443 0.930 . S
C448 C451 1.404 . S
C448 C452 1.353 . S
N449 Co414 2.145 1_545 S
N449 C450 1.397 . S
N449 C451 1.334 . S
C450 H431 0.929 . S
C450 C447 1.388 . S
C450 N449 1.397 . S
C451 H432 0.929 . S
C451 C448 1.404 . S
C451 N449 1.334 . S
C452 H444 0.930 . S
C452 C447 1.418 . S
C452 C448 1.353 . S
C453 H423 0.930 . S
C453 N454 1.330 . S
C453 C455 1.446 . S
N454 Co413 2.151 . S
N454 C453 1.330 . S
N454 C458 1.418 . S
C455 H434 0.929 . S
C455 C453 1.446 . S
C455 C456 1.332 . S
C456 H436 0.931 . S
C456 C455 1.332 . S
C456 C457 1.267 . S
C457 H425 0.929 . S
C457 C456 1.267 . S
C457 C458 1.251 . S
C458 H428 0.929 . S
C458 N454 1.418 . S
C458 C457 1.251 . S
C459 H426 0.930 . S
C459 C461 1.406 . S
C459 C464 1.261 . S
C460 H427 0.930 . S
C460 N462 1.325 . S
C460 C463 1.357 . S
C461 H429 0.928 . S
C461 C459 1.406 . S
C461 N462 1.261 . S
N462 Co413 2.214 . S
N462 C460 1.325 . S
N462 C461 1.261 . S
C463 H433 0.931 . S
C463 C460 1.357 . S
C463 C464 1.312 . S
C464 H435 0.930 . S
C464 C459 1.261 . S
C464 C463 1.312 . S
C465 O437 1.214 . S
C465 O445 1.234 . S
C466 H438 0.929 . S
C466 C469 1.391 1_565 S
C466 C471 1.391 . S
C467 H439 0.929 . S
C467 C468 1.390 . S
C467 N470 1.391 . S
C468 H440 0.930 . S
C468 C467 1.390 . S
C468 C469 1.392 . S
C469 H441 0.929 . S
C469 C466 1.391 1_545 S
C469 C468 1.392 . S
N470 Co414 2.257 1_545 S
N470 C467 1.391 . S
N470 C471 1.388 1_545 S
C471 H442 0.930 . S
C471 C466 1.391 . S
C471 N470 1.388 1_565 S
Co472 O474 2.143 . S
Co472 O480 2.074 . S
Co472 O483 2.093 . S
Co472 O496 2.097 . S
Co472 N513 2.151 . S
Co472 N521 2.214 . S
Co473 O474 2.160 . S
Co473 O479 2.058 . S
Co473 O489 2.057 . S
Co473 O504 2.037 . S
Co473 N508 2.145 . S
Co473 N529 2.257 . S
O474 Co472 2.143 . S
O474 Co473 2.160 . S
C475 O476 1.278 . S
C475 O483 1.224 . S
O476 C475 1.278 . S
C477 O478 1.245 . S
C477 O489 1.232 . S
O478 C477 1.245 . S
O479 Co473 2.058 . S
O479 C505 1.269 . S
O480 Co472 2.074 . S
O480 C505 1.257 . S
H481 C506 0.930 . S
H482 C512 0.930 . S
O483 Co472 2.093 . S
O483 C475 1.224 . S
H484 C516 0.929 . S
H485 C518 0.930 . S
H486 C519 0.930 . S
H487 C517 0.929 . S
H488 C520 0.928 . S
O489 Co473 2.057 . S
O489 C477 1.232 . S
H490 C509 0.929 . S
H491 C510 0.929 . S
H492 C522 0.931 . S
H493 C514 0.929 . S
H494 C523 0.930 . S
H495 C515 0.931 . S
O496 Co472 2.097 . S
O496 C524 1.214 . S
H497 C525 0.929 . S
H498 C526 0.929 . S
H499 C527 0.930 . S
H500 C528 0.929 . S
H501 C530 0.930 . S
H502 C507 0.930 . S
H503 C511 0.930 . S
O504 Co473 2.037 . S
O504 C524 1.234 . S
C505 O479 1.269 . S
C505 O480 1.257 . S
C506 H481 0.930 . S
C506 C509 1.388 . S
C506 C511 1.418 . S
C507 H502 0.930 . S
C507 C510 1.404 . S
C507 C511 1.353 . S
N508 Co473 2.145 . S
N508 C509 1.397 . S
N508 C510 1.334 . S
C509 H490 0.929 . S
C509 C506 1.388 . S
C509 N508 1.397 . S
C510 H491 0.929 . S
C510 C507 1.404 . S
C510 N508 1.334 . S
C511 H503 0.930 . S
C511 C506 1.418 . S
C511 C507 1.353 . S
C512 H482 0.930 . S
C512 N513 1.330 . S
C512 C514 1.446 . S
N513 Co472 2.151 . S
N513 C512 1.330 . S
N513 C517 1.418 . S
C514 H493 0.929 . S
C514 C512 1.446 . S
C514 C515 1.332 . S
C515 H495 0.931 . S
C515 C514 1.332 . S
C515 C516 1.267 . S
C516 H484 0.929 . S
C516 C515 1.267 . S
C516 C517 1.251 . S
C517 H487 0.929 . S
C517 N513 1.418 . S
C517 C516 1.251 . S
C518 H485 0.930 . S
C518 C520 1.406 . S
C518 C523 1.261 . S
C519 H486 0.930 . S
C519 N521 1.325 . S
C519 C522 1.357 . S
C520 H488 0.928 . S
C520 C518 1.406 . S
C520 N521 1.261 . S
N521 Co472 2.214 . S
N521 C519 1.325 . S
N521 C520 1.261 . S
C522 H492 0.931 . S
C522 C519 1.357 . S
C522 C523 1.312 . S
C523 H494 0.930 . S
C523 C518 1.261 . S
C523 C522 1.312 . S
C524 O496 1.214 . S
C524 O504 1.234 . S
C525 H497 0.929 . S
C525 C528 1.391 . S
C525 C530 1.391 . S
C526 H498 0.929 . S
C526 C527 1.390 . S
C526 N529 1.391 . S
C527 H499 0.930 . S
C527 C526 1.390 . S
C527 C528 1.392 . S
C528 H500 0.929 . S
C528 C525 1.391 . S
C528 C527 1.392 . S
N529 Co473 2.257 . S
N529 C526 1.391 . S
N529 C530 1.388 . S
C530 H501 0.930 . S
C530 C525 1.391 . S
C530 N529 1.388 . S
Co531 O533 2.143 . S
Co531 O539 2.074 . S
Co531 O542 2.093 . S
Co531 O555 2.097 . S
Co531 N572 2.151 . S
Co531 N580 2.214 . S
Co532 O533 2.160 . S
Co532 O538 2.058 . S
Co532 O548 2.057 1_455 S
Co532 O563 2.037 . S
Co532 N567 2.145 1_455 S
Co532 N588 2.257 1_455 S
O533 Co531 2.143 . S
O533 Co532 2.160 . S
C534 O535 1.278 . S
C534 O542 1.224 . S
O535 C534 1.278 . S
C536 O537 1.245 . S
C536 O548 1.232 1_455 S
O537 C536 1.245 . S
O538 Co532 2.058 . S
O538 C564 1.269 . S
O539 Co531 2.074 . S
O539 C564 1.257 . S
H540 C565 0.930 . S
H541 C571 0.930 . S
O542 Co531 2.093 . S
O542 C534 1.224 . S
H543 C575 0.929 . S
H544 C577 0.930 . S
H545 C578 0.930 . S
H546 C576 0.929 . S
H547 C579 0.928 . S
O548 Co532 2.057 1_655 S
O548 C536 1.232 1_655 S
H549 C568 0.929 . S
H550 C569 0.929 . S
H551 C581 0.931 . S
H552 C573 0.929 . S
H553 C582 0.930 . S
H554 C574 0.931 . S
O555 Co531 2.097 . S
O555 C583 1.214 . S
H556 C584 0.929 . S
H557 C585 0.929 . S
H558 C586 0.930 . S
H559 C587 0.929 . S
H560 C589 0.930 . S
H561 C566 0.930 . S
H562 C570 0.930 . S
O563 Co532 2.037 . S
O563 C583 1.234 . S
C564 O538 1.269 . S
C564 O539 1.257 . S
C565 H540 0.930 . S
C565 C568 1.388 . S
C565 C570 1.418 . S
C566 H561 0.930 . S
C566 C569 1.404 . S
C566 C570 1.353 . S
N567 Co532 2.145 1_655 S
N567 C568 1.397 . S
N567 C569 1.334 . S
C568 H549 0.929 . S
C568 C565 1.388 . S
C568 N567 1.397 . S
C569 H550 0.929 . S
C569 C566 1.404 . S
C569 N567 1.334 . S
C570 H562 0.930 . S
C570 C565 1.418 . S
C570 C566 1.353 . S
C571 H541 0.930 . S
C571 N572 1.330 . S
C571 C573 1.446 . S
N572 Co531 2.151 . S
N572 C571 1.330 . S
N572 C576 1.418 . S
C573 H552 0.929 . S
C573 C571 1.446 . S
C573 C574 1.332 . S
C574 H554 0.931 . S
C574 C573 1.332 . S
C574 C575 1.267 . S
C575 H543 0.929 . S
C575 C574 1.267 . S
C575 C576 1.251 . S
C576 H546 0.929 . S
C576 N572 1.418 . S
C576 C575 1.251 . S
C577 H544 0.930 . S
C577 C579 1.406 . S
C577 C582 1.261 . S
C578 H545 0.930 . S
C578 N580 1.325 . S
C578 C581 1.357 . S
C579 H547 0.928 . S
C579 C577 1.406 . S
C579 N580 1.261 . S
N580 Co531 2.214 . S
N580 C578 1.325 . S
N580 C579 1.261 . S
C581 H551 0.931 . S
C581 C578 1.357 . S
C581 C582 1.312 . S
C582 H553 0.930 . S
C582 C577 1.261 . S
C582 C581 1.312 . S
C583 O555 1.214 . S
C583 O563 1.234 . S
C584 H556 0.929 . S
C584 C587 1.391 1_455 S
C584 C589 1.391 . S
C585 H557 0.929 . S
C585 C586 1.390 . S
C585 N588 1.391 . S
C586 H558 0.930 . S
C586 C585 1.390 . S
C586 C587 1.392 . S
C587 H559 0.929 . S
C587 C584 1.391 1_655 S
C587 C586 1.392 . S
N588 Co532 2.257 1_655 S
N588 C585 1.391 . S
N588 C589 1.388 1_655 S
C589 H560 0.930 . S
C589 C584 1.391 . S
C589 N588 1.388 1_455 S
Co590 O592 2.143 . S
Co590 O598 2.074 . S
Co590 O601 2.093 . S
Co590 O614 2.097 . S
Co590 N631 2.151 . S
Co590 N639 2.214 . S
Co591 O592 2.160 . S
Co591 O597 2.058 . S
Co591 O607 2.057 1_545 S
Co591 O622 2.037 . S
Co591 N626 2.145 1_545 S
Co591 N647 2.257 1_545 S
O592 Co590 2.143 . S
O592 Co591 2.160 . S
C593 O594 1.278 . S
C593 O601 1.224 . S
O594 C593 1.278 . S
C595 O596 1.245 . S
C595 O607 1.232 1_545 S
O596 C595 1.245 . S
O597 Co591 2.058 . S
O597 C623 1.269 . S
O598 Co590 2.074 . S
O598 C623 1.257 . S
H599 C624 0.930 . S
H600 C630 0.930 . S
O601 Co590 2.093 . S
O601 C593 1.224 . S
H602 C634 0.929 . S
H603 C636 0.930 . S
H604 C637 0.930 . S
H605 C635 0.929 . S
H606 C638 0.928 . S
O607 Co591 2.057 1_565 S
O607 C595 1.232 1_565 S
H608 C627 0.929 . S
H609 C628 0.929 . S
H610 C640 0.931 . S
H611 C632 0.929 . S
H612 C641 0.930 . S
H613 C633 0.931 . S
O614 Co590 2.097 . S
O614 C642 1.214 . S
H615 C643 0.929 . S
H616 C644 0.929 . S
H617 C645 0.930 . S
H618 C646 0.929 . S
H619 C648 0.930 . S
H620 C625 0.930 . S
H621 C629 0.930 . S
O622 Co591 2.037 . S
O622 C642 1.234 . S
C623 O597 1.269 . S
C623 O598 1.257 . S
C624 H599 0.930 . S
C624 C627 1.388 . S
C624 C629 1.418 . S
C625 H620 0.930 . S
C625 C628 1.404 . S
C625 C629 1.353 . S
N626 Co591 2.145 1_565 S
N626 C627 1.397 . S
N626 C628 1.334 . S
C627 H608 0.929 . S
C627 C624 1.388 . S
C627 N626 1.397 . S
C628 H609 0.929 . S
C628 C625 1.404 . S
C628 N626 1.334 . S
C629 H621 0.930 . S
C629 C624 1.418 . S
C629 C625 1.353 . S
C630 H600 0.930 . S
C630 N631 1.330 . S
C630 C632 1.446 . S
N631 Co590 2.151 . S
N631 C630 1.330 . S
N631 C635 1.418 . S
C632 H611 0.929 . S
C632 C630 1.446 . S
C632 C633 1.332 . S
C633 H613 0.931 . S
C633 C632 1.332 . S
C633 C634 1.267 . S
C634 H602 0.929 . S
C634 C633 1.267 . S
C634 C635 1.251 . S
C635 H605 0.929 . S
C635 N631 1.418 . S
C635 C634 1.251 . S
C636 H603 0.930 . S
C636 C638 1.406 . S
C636 C641 1.261 . S
C637 H604 0.930 . S
C637 N639 1.325 . S
C637 C640 1.357 . S
C638 H606 0.928 . S
C638 C636 1.406 . S
C638 N639 1.261 . S
N639 Co590 2.214 . S
N639 C637 1.325 . S
N639 C638 1.261 . S
C640 H610 0.931 . S
C640 C637 1.357 . S
C640 C641 1.312 . S
C641 H612 0.930 . S
C641 C636 1.261 . S
C641 C640 1.312 . S
C642 O614 1.214 . S
C642 O622 1.234 . S
C643 H615 0.929 . S
C643 C646 1.391 1_545 S
C643 C648 1.391 . S
C644 H616 0.929 . S
C644 C645 1.390 . S
C644 N647 1.391 . S
C645 H617 0.930 . S
C645 C644 1.390 . S
C645 C646 1.392 . S
C646 H618 0.929 . S
C646 C643 1.391 1_565 S
C646 C645 1.392 . S
N647 Co591 2.257 1_565 S
N647 C644 1.391 . S
N647 C648 1.388 1_565 S
C648 H619 0.930 . S
C648 C643 1.391 . S
C648 N647 1.388 1_545 S
Co649 O651 2.143 . S
Co649 O657 2.074 . S
Co649 O660 2.093 . S
Co649 O673 2.097 . S
Co649 N690 2.151 . S
Co649 N698 2.214 . S
Co650 O651 2.160 . S
Co650 O656 2.058 . S
Co650 O666 2.057 . S
Co650 O681 2.037 . S
Co650 N685 2.145 . S
Co650 N706 2.257 . S
O651 Co649 2.143 . S
O651 Co650 2.160 . S
C652 O653 1.278 . S
C652 O660 1.224 . S
O653 C652 1.278 . S
C654 O655 1.245 . S
C654 O666 1.232 . S
O655 C654 1.245 . S
O656 Co650 2.058 . S
O656 C682 1.269 . S
O657 Co649 2.074 . S
O657 C682 1.257 . S
H658 C683 0.930 . S
H659 C689 0.930 . S
O660 Co649 2.093 . S
O660 C652 1.224 . S
H661 C693 0.929 . S
H662 C695 0.930 . S
H663 C696 0.930 . S
H664 C694 0.929 . S
H665 C697 0.928 . S
O666 Co650 2.057 . S
O666 C654 1.232 . S
H667 C686 0.929 . S
H668 C687 0.929 . S
H669 C699 0.931 . S
H670 C691 0.929 . S
H671 C700 0.930 . S
H672 C692 0.931 . S
O673 Co649 2.097 . S
O673 C701 1.214 . S
H674 C702 0.929 . S
H675 C703 0.929 . S
H676 C704 0.930 . S
H677 C705 0.929 . S
H678 C707 0.930 . S
H679 C684 0.930 . S
H680 C688 0.930 . S
O681 Co650 2.037 . S
O681 C701 1.234 . S
C682 O656 1.269 . S
C682 O657 1.257 . S
C683 H658 0.930 . S
C683 C686 1.388 . S
C683 C688 1.418 . S
C684 H679 0.930 . S
C684 C687 1.404 . S
C684 C688 1.353 . S
N685 Co650 2.145 . S
N685 C686 1.397 . S
N685 C687 1.334 . S
C686 H667 0.929 . S
C686 C683 1.388 . S
C686 N685 1.397 . S
C687 H668 0.929 . S
C687 C684 1.404 . S
C687 N685 1.334 . S
C688 H680 0.930 . S
C688 C683 1.418 . S
C688 C684 1.353 . S
C689 H659 0.930 . S
C689 N690 1.330 . S
C689 C691 1.446 . S
N690 Co649 2.151 . S
N690 C689 1.330 . S
N690 C694 1.418 . S
C691 H670 0.929 . S
C691 C689 1.446 . S
C691 C692 1.332 . S
C692 H672 0.931 . S
C692 C691 1.332 . S
C692 C693 1.267 . S
C693 H661 0.929 . S
C693 C692 1.267 . S
C693 C694 1.251 . S
C694 H664 0.929 . S
C694 N690 1.418 . S
C694 C693 1.251 . S
C695 H662 0.930 . S
C695 C697 1.406 . S
C695 C700 1.261 . S
C696 H663 0.930 . S
C696 N698 1.325 . S
C696 C699 1.357 . S
C697 H665 0.928 . S
C697 C695 1.406 . S
C697 N698 1.261 . S
N698 Co649 2.214 . S
N698 C696 1.325 . S
N698 C697 1.261 . S
C699 H669 0.931 . S
C699 C696 1.357 . S
C699 C700 1.312 . S
C700 H671 0.930 . S
C700 C695 1.261 . S
C700 C699 1.312 . S
C701 O673 1.214 . S
C701 O681 1.234 . S
C702 H674 0.929 . S
C702 C705 1.391 . S
C702 C707 1.391 . S
C703 H675 0.929 . S
C703 C704 1.390 . S
C703 N706 1.391 . S
C704 H676 0.930 . S
C704 C703 1.390 . S
C704 C705 1.392 . S
C705 H677 0.929 . S
C705 C702 1.391 . S
C705 C704 1.392 . S
N706 Co650 2.257 . S
N706 C703 1.391 . S
N706 C707 1.388 . S
C707 H678 0.930 . S
C707 C702 1.391 . S
C707 N706 1.388 . S
Co708 O710 2.143 . S
Co708 O716 2.074 . S
Co708 O719 2.093 . S
Co708 O732 2.097 . S
Co708 N749 2.151 . S
Co708 N757 2.214 . S
Co709 O710 2.160 . S
Co709 O715 2.058 . S
Co709 O725 2.057 1_565 S
Co709 O740 2.037 . S
Co709 N744 2.145 1_565 S
Co709 N765 2.257 1_565 S
O710 Co708 2.143 . S
O710 Co709 2.160 . S
C711 O712 1.278 . S
C711 O719 1.224 . S
O712 C711 1.278 . S
C713 O714 1.245 . S
C713 O725 1.232 1_565 S
O714 C713 1.245 . S
O715 Co709 2.058 . S
O715 C741 1.269 . S
O716 Co708 2.074 . S
O716 C741 1.257 . S
H717 C742 0.930 . S
H718 C748 0.930 . S
O719 Co708 2.093 . S
O719 C711 1.224 . S
H720 C752 0.929 . S
H721 C754 0.930 . S
H722 C755 0.930 . S
H723 C753 0.929 . S
H724 C756 0.928 . S
O725 Co709 2.057 1_545 S
O725 C713 1.232 1_545 S
H726 C745 0.929 . S
H727 C746 0.929 . S
H728 C758 0.931 . S
H729 C750 0.929 . S
H730 C759 0.930 . S
H731 C751 0.931 . S
O732 Co708 2.097 . S
O732 C760 1.214 . S
H733 C761 0.929 . S
H734 C762 0.929 . S
H735 C763 0.930 . S
H736 C764 0.929 . S
H737 C766 0.930 . S
H738 C743 0.930 . S
H739 C747 0.930 . S
O740 Co709 2.037 . S
O740 C760 1.234 . S
C741 O715 1.269 . S
C741 O716 1.257 . S
C742 H717 0.930 . S
C742 C745 1.388 . S
C742 C747 1.418 . S
C743 H738 0.930 . S
C743 C746 1.404 . S
C743 C747 1.353 . S
N744 Co709 2.145 1_545 S
N744 C745 1.397 . S
N744 C746 1.334 . S
C745 H726 0.929 . S
C745 C742 1.388 . S
C745 N744 1.397 . S
C746 H727 0.929 . S
C746 C743 1.404 . S
C746 N744 1.334 . S
C747 H739 0.930 . S
C747 C742 1.418 . S
C747 C743 1.353 . S
C748 H718 0.930 . S
C748 N749 1.330 . S
C748 C750 1.446 . S
N749 Co708 2.151 . S
N749 C748 1.330 . S
N749 C753 1.418 . S
C750 H729 0.929 . S
C750 C748 1.446 . S
C750 C751 1.332 . S
C751 H731 0.931 . S
C751 C750 1.332 . S
C751 C752 1.267 . S
C752 H720 0.929 . S
C752 C751 1.267 . S
C752 C753 1.251 . S
C753 H723 0.929 . S
C753 N749 1.418 . S
C753 C752 1.251 . S
C754 H721 0.930 . S
C754 C756 1.406 . S
C754 C759 1.261 . S
C755 H722 0.930 . S
C755 N757 1.325 . S
C755 C758 1.357 . S
C756 H724 0.928 . S
C756 C754 1.406 . S
C756 N757 1.261 . S
N757 Co708 2.214 . S
N757 C755 1.325 . S
N757 C756 1.261 . S
C758 H728 0.931 . S
C758 C755 1.357 . S
C758 C759 1.312 . S
C759 H730 0.930 . S
C759 C754 1.261 . S
C759 C758 1.312 . S
C760 O732 1.214 . S
C760 O740 1.234 . S
C761 H733 0.929 . S
C761 C764 1.391 1_565 S
C761 C766 1.391 . S
C762 H734 0.929 . S
C762 C763 1.390 . S
C762 N765 1.391 . S
C763 H735 0.930 . S
C763 C762 1.390 . S
C763 C764 1.392 . S
C764 H736 0.929 . S
C764 C761 1.391 1_545 S
C764 C763 1.392 . S
N765 Co709 2.257 1_545 S
N765 C762 1.391 . S
N765 C766 1.388 1_545 S
C766 H737 0.930 . S
C766 C761 1.391 . S
C766 N765 1.388 1_565 S
Co767 O769 2.143 . S
Co767 O775 2.074 . S
Co767 O778 2.093 . S
Co767 O791 2.097 . S
Co767 N808 2.151 . S
Co767 N816 2.214 . S
Co768 O769 2.160 . S
Co768 O774 2.058 . S
Co768 O784 2.057 . S
Co768 O799 2.037 . S
Co768 N803 2.145 . S
Co768 N824 2.257 . S
O769 Co767 2.143 . S
O769 Co768 2.160 . S
C770 O771 1.278 . S
C770 O778 1.224 . S
O771 C770 1.278 . S
C772 O773 1.245 . S
C772 O784 1.232 . S
O773 C772 1.245 . S
O774 Co768 2.058 . S
O774 C800 1.269 . S
O775 Co767 2.074 . S
O775 C800 1.257 . S
H776 C801 0.930 . S
H777 C807 0.930 . S
O778 Co767 2.093 . S
O778 C770 1.224 . S
H779 C811 0.929 . S
H780 C813 0.930 . S
H781 C814 0.930 . S
H782 C812 0.929 . S
H783 C815 0.928 . S
O784 Co768 2.057 . S
O784 C772 1.232 . S
H785 C804 0.929 . S
H786 C805 0.929 . S
H787 C817 0.931 . S
H788 C809 0.929 . S
H789 C818 0.930 . S
H790 C810 0.931 . S
O791 Co767 2.097 . S
O791 C819 1.214 . S
H792 C820 0.929 . S
H793 C821 0.929 . S
H794 C822 0.930 . S
H795 C823 0.929 . S
H796 C825 0.930 . S
H797 C802 0.930 . S
H798 C806 0.930 . S
O799 Co768 2.037 . S
O799 C819 1.234 . S
C800 O774 1.269 . S
C800 O775 1.257 . S
C801 H776 0.930 . S
C801 C804 1.388 . S
C801 C806 1.418 . S
C802 H797 0.930 . S
C802 C805 1.404 . S
C802 C806 1.353 . S
N803 Co768 2.145 . S
N803 C804 1.397 . S
N803 C805 1.334 . S
C804 H785 0.929 . S
C804 C801 1.388 . S
C804 N803 1.397 . S
C805 H786 0.929 . S
C805 C802 1.404 . S
C805 N803 1.334 . S
C806 H798 0.930 . S
C806 C801 1.418 . S
C806 C802 1.353 . S
C807 H777 0.930 . S
C807 N808 1.330 . S
C807 C809 1.446 . S
N808 Co767 2.151 . S
N808 C807 1.330 . S
N808 C812 1.418 . S
C809 H788 0.929 . S
C809 C807 1.446 . S
C809 C810 1.332 . S
C810 H790 0.931 . S
C810 C809 1.332 . S
C810 C811 1.267 . S
C811 H779 0.929 . S
C811 C810 1.267 . S
C811 C812 1.251 . S
C812 H782 0.929 . S
C812 N808 1.418 . S
C812 C811 1.251 . S
C813 H780 0.930 . S
C813 C815 1.406 . S
C813 C818 1.261 . S
C814 H781 0.930 . S
C814 N816 1.325 . S
C814 C817 1.357 . S
C815 H783 0.928 . S
C815 C813 1.406 . S
C815 N816 1.261 . S
N816 Co767 2.214 . S
N816 C814 1.325 . S
N816 C815 1.261 . S
C817 H787 0.931 . S
C817 C814 1.357 . S
C817 C818 1.312 . S
C818 H789 0.930 . S
C818 C813 1.261 . S
C818 C817 1.312 . S
C819 O791 1.214 . S
C819 O799 1.234 . S
C820 H792 0.929 . S
C820 C823 1.391 . S
C820 C825 1.391 . S
C821 H793 0.929 . S
C821 C822 1.390 . S
C821 N824 1.391 . S
C822 H794 0.930 . S
C822 C821 1.390 . S
C822 C823 1.392 . S
C823 H795 0.929 . S
C823 C820 1.391 . S
C823 C822 1.392 . S
N824 Co768 2.257 . S
N824 C821 1.391 . S
N824 C825 1.388 . S
C825 H796 0.930 . S
C825 C820 1.391 . S
C825 N824 1.388 . S
Co826 O828 2.143 . S
Co826 O834 2.074 . S
Co826 O837 2.093 . S
Co826 O850 2.097 . S
Co826 N867 2.151 . S
Co826 N875 2.214 . S
Co827 O828 2.160 . S
Co827 O833 2.058 . S
Co827 O843 2.057 1_455 S
Co827 O858 2.037 . S
Co827 N862 2.145 1_455 S
Co827 N883 2.257 1_455 S
O828 Co826 2.143 . S
O828 Co827 2.160 . S
C829 O830 1.278 . S
C829 O837 1.224 . S
O830 C829 1.278 . S
C831 O832 1.245 . S
C831 O843 1.232 1_455 S
O832 C831 1.245 . S
O833 Co827 2.058 . S
O833 C859 1.269 . S
O834 Co826 2.074 . S
O834 C859 1.257 . S
H835 C860 0.930 . S
H836 C866 0.930 . S
O837 Co826 2.093 . S
O837 C829 1.224 . S
H838 C870 0.929 . S
H839 C872 0.930 . S
H840 C873 0.930 . S
H841 C871 0.929 . S
H842 C874 0.928 . S
O843 Co827 2.057 1_655 S
O843 C831 1.232 1_655 S
H844 C863 0.929 . S
H845 C864 0.929 . S
H846 C876 0.931 . S
H847 C868 0.929 . S
H848 C877 0.930 . S
H849 C869 0.931 . S
O850 Co826 2.097 . S
O850 C878 1.214 . S
H851 C879 0.929 . S
H852 C880 0.929 . S
H853 C881 0.930 . S
H854 C882 0.929 . S
H855 C884 0.930 . S
H856 C861 0.930 . S
H857 C865 0.930 . S
O858 Co827 2.037 . S
O858 C878 1.234 . S
C859 O833 1.269 . S
C859 O834 1.257 . S
C860 H835 0.930 . S
C860 C863 1.388 . S
C860 C865 1.418 . S
C861 H856 0.930 . S
C861 C864 1.404 . S
C861 C865 1.353 . S
N862 Co827 2.145 1_655 S
N862 C863 1.397 . S
N862 C864 1.334 . S
C863 H844 0.929 . S
C863 C860 1.388 . S
C863 N862 1.397 . S
C864 H845 0.929 . S
C864 C861 1.404 . S
C864 N862 1.334 . S
C865 H857 0.930 . S
C865 C860 1.418 . S
C865 C861 1.353 . S
C866 H836 0.930 . S
C866 N867 1.330 . S
C866 C868 1.446 . S
N867 Co826 2.151 . S
N867 C866 1.330 . S
N867 C871 1.418 . S
C868 H847 0.929 . S
C868 C866 1.446 . S
C868 C869 1.332 . S
C869 H849 0.931 . S
C869 C868 1.332 . S
C869 C870 1.267 . S
C870 H838 0.929 . S
C870 C869 1.267 . S
C870 C871 1.251 . S
C871 H841 0.929 . S
C871 N867 1.418 . S
C871 C870 1.251 . S
C872 H839 0.930 . S
C872 C874 1.406 . S
C872 C877 1.261 . S
C873 H840 0.930 . S
C873 N875 1.325 . S
C873 C876 1.357 . S
C874 H842 0.928 . S
C874 C872 1.406 . S
C874 N875 1.261 . S
N875 Co826 2.214 . S
N875 C873 1.325 . S
N875 C874 1.261 . S
C876 H846 0.931 . S
C876 C873 1.357 . S
C876 C877 1.312 . S
C877 H848 0.930 . S
C877 C872 1.261 . S
C877 C876 1.312 . S
C878 O850 1.214 . S
C878 O858 1.234 . S
C879 H851 0.929 . S
C879 C882 1.391 1_455 S
C879 C884 1.391 . S
C880 H852 0.929 . S
C880 C881 1.390 . S
C880 N883 1.391 . S
C881 H853 0.930 . S
C881 C880 1.390 . S
C881 C882 1.392 . S
C882 H854 0.929 . S
C882 C879 1.391 1_655 S
C882 C881 1.392 . S
N883 Co827 2.257 1_655 S
N883 C880 1.391 . S
N883 C884 1.388 1_655 S
C884 H855 0.930 . S
C884 C879 1.391 . S
C884 N883 1.388 1_455 S
Co885 O887 2.143 . S
Co885 O893 2.074 . S
Co885 O896 2.093 . S
Co885 O909 2.097 . S
Co885 N926 2.151 . S
Co885 N934 2.214 . S
Co886 O887 2.160 . S
Co886 O892 2.058 . S
Co886 O902 2.057 1_545 S
Co886 O917 2.037 . S
Co886 N921 2.145 1_545 S
Co886 N942 2.257 1_545 S
O887 Co885 2.143 . S
O887 Co886 2.160 . S
C888 O889 1.278 . S
C888 O896 1.224 . S
O889 C888 1.278 . S
C890 O891 1.245 . S
C890 O902 1.232 1_545 S
O891 C890 1.245 . S
O892 Co886 2.058 . S
O892 C918 1.269 . S
O893 Co885 2.074 . S
O893 C918 1.257 . S
H894 C919 0.930 . S
H895 C925 0.930 . S
O896 Co885 2.093 . S
O896 C888 1.224 . S
H897 C929 0.929 . S
H898 C931 0.930 . S
H899 C932 0.930 . S
H900 C930 0.929 . S
H901 C933 0.928 . S
O902 Co886 2.057 1_565 S
O902 C890 1.232 1_565 S
H903 C922 0.929 . S
H904 C923 0.929 . S
H905 C935 0.931 . S
H906 C927 0.929 . S
H907 C936 0.930 . S
H908 C928 0.931 . S
O909 Co885 2.097 . S
O909 C937 1.214 . S
H910 C938 0.929 . S
H911 C939 0.929 . S
H912 C940 0.930 . S
H913 C941 0.929 . S
H914 C943 0.930 . S
H915 C920 0.930 . S
H916 C924 0.930 . S
O917 Co886 2.037 . S
O917 C937 1.234 . S
C918 O892 1.269 . S
C918 O893 1.257 . S
C919 H894 0.930 . S
C919 C922 1.388 . S
C919 C924 1.418 . S
C920 H915 0.930 . S
C920 C923 1.404 . S
C920 C924 1.353 . S
N921 Co886 2.145 1_565 S
N921 C922 1.397 . S
N921 C923 1.334 . S
C922 H903 0.929 . S
C922 C919 1.388 . S
C922 N921 1.397 . S
C923 H904 0.929 . S
C923 C920 1.404 . S
C923 N921 1.334 . S
C924 H916 0.930 . S
C924 C919 1.418 . S
C924 C920 1.353 . S
C925 H895 0.930 . S
C925 N926 1.330 . S
C925 C927 1.446 . S
N926 Co885 2.151 . S
N926 C925 1.330 . S
N926 C930 1.418 . S
C927 H906 0.929 . S
C927 C925 1.446 . S
C927 C928 1.332 . S
C928 H908 0.931 . S
C928 C927 1.332 . S
C928 C929 1.267 . S
C929 H897 0.929 . S
C929 C928 1.267 . S
C929 C930 1.251 . S
C930 H900 0.929 . S
C930 N926 1.418 . S
C930 C929 1.251 . S
C931 H898 0.930 . S
C931 C933 1.406 . S
C931 C936 1.261 . S
C932 H899 0.930 . S
C932 N934 1.325 . S
C932 C935 1.357 . S
C933 H901 0.928 . S
C933 C931 1.406 . S
C933 N934 1.261 . S
N934 Co885 2.214 . S
N934 C932 1.325 . S
N934 C933 1.261 . S
C935 H905 0.931 . S
C935 C932 1.357 . S
C935 C936 1.312 . S
C936 H907 0.930 . S
C936 C931 1.261 . S
C936 C935 1.312 . S
C937 O909 1.214 . S
C937 O917 1.234 . S
C938 H910 0.929 . S
C938 C941 1.391 1_545 S
C938 C943 1.391 . S
C939 H911 0.929 . S
C939 C940 1.390 . S
C939 N942 1.391 . S
C940 H912 0.930 . S
C940 C939 1.390 . S
C940 C941 1.392 . S
C941 H913 0.929 . S
C941 C938 1.391 1_565 S
C941 C940 1.392 . S
N942 Co886 2.257 1_565 S
N942 C939 1.391 . S
N942 C943 1.388 1_565 S
C943 H914 0.930 . S
C943 C938 1.391 . S
C943 N942 1.388 1_545 S
Co944 O946 2.143 . S
Co944 O952 2.074 . S
Co944 O955 2.093 . S
Co944 O968 2.097 . S
Co944 N985 2.151 . S
Co944 N993 2.214 . S
Co945 O946 2.160 . S
Co945 O951 2.058 . S
Co945 O961 2.057 . S
Co945 O976 2.037 . S
Co945 N980 2.145 . S
Co945 N1001 2.257 . S
O946 Co944 2.143 . S
O946 Co945 2.160 . S
C947 O948 1.278 . S
C947 O955 1.224 . S
O948 C947 1.278 . S
C949 O950 1.245 . S
C949 O961 1.232 . S
O950 C949 1.245 . S
O951 Co945 2.058 . S
O951 C977 1.269 . S
O952 Co944 2.074 . S
O952 C977 1.257 . S
H953 C978 0.930 . S
H954 C984 0.930 . S
O955 Co944 2.093 . S
O955 C947 1.224 . S
H956 C988 0.929 . S
H957 C990 0.930 . S
H958 C991 0.930 . S
H959 C989 0.929 . S
H960 C992 0.928 . S
O961 Co945 2.057 . S
O961 C949 1.232 . S
H962 C981 0.929 . S
H963 C982 0.929 . S
H964 C994 0.931 . S
H965 C986 0.929 . S
H966 C995 0.930 . S
H967 C987 0.931 . S
O968 Co944 2.097 . S
O968 C996 1.214 . S
H969 C997 0.929 . S
H970 C998 0.929 . S
H971 C999 0.930 . S
H972 C1000 0.929 . S
H973 C1002 0.930 . S
H974 C979 0.930 . S
H975 C983 0.930 . S
O976 Co945 2.037 . S
O976 C996 1.234 . S
C977 O951 1.269 . S
C977 O952 1.257 . S
C978 H953 0.930 . S
C978 C981 1.388 . S
C978 C983 1.418 . S
C979 H974 0.930 . S
C979 C982 1.404 . S
C979 C983 1.353 . S
N980 Co945 2.145 . S
N980 C981 1.397 . S
N980 C982 1.334 . S
C981 H962 0.929 . S
C981 C978 1.388 . S
C981 N980 1.397 . S
C982 H963 0.929 . S
C982 C979 1.404 . S
C982 N980 1.334 . S
C983 H975 0.930 . S
C983 C978 1.418 . S
C983 C979 1.353 . S
C984 H954 0.930 . S
C984 N985 1.330 . S
C984 C986 1.446 . S
N985 Co944 2.151 . S
N985 C984 1.330 . S
N985 C989 1.418 . S
C986 H965 0.929 . S
C986 C984 1.446 . S
C986 C987 1.332 . S
C987 H967 0.931 . S
C987 C986 1.332 . S
C987 C988 1.267 . S
C988 H956 0.929 . S
C988 C987 1.267 . S
C988 C989 1.251 . S
C989 H959 0.929 . S
C989 N985 1.418 . S
C989 C988 1.251 . S
C990 H957 0.930 . S
C990 C992 1.406 . S
C990 C995 1.261 . S
C991 H958 0.930 . S
C991 N993 1.325 . S
C991 C994 1.357 . S
C992 H960 0.928 . S
C992 C990 1.406 . S
C992 N993 1.261 . S
N993 Co944 2.214 . S
N993 C991 1.325 . S
N993 C992 1.261 . S
C994 H964 0.931 . S
C994 C991 1.357 . S
C994 C995 1.312 . S
C995 H966 0.930 . S
C995 C990 1.261 . S
C995 C994 1.312 . S
C996 O968 1.214 . S
C996 O976 1.234 . S
C997 H969 0.929 . S
C997 C1000 1.391 . S
C997 C1002 1.391 . S
C998 H970 0.929 . S
C998 C999 1.390 . S
C998 N1001 1.391 . S
C999 H971 0.930 . S
C999 C998 1.390 . S
C999 C1000 1.392 . S
C1000 H972 0.929 . S
C1000 C997 1.391 . S
C1000 C999 1.392 . S
N1001 Co945 2.257 . S
N1001 C998 1.391 . S
N1001 C1002 1.388 . S
C1002 H973 0.930 . S
C1002 C997 1.391 . S
C1002 N1001 1.388 . S
Co1003 O1005 2.143 . S
Co1003 O1011 2.074 . S
Co1003 O1014 2.093 . S
Co1003 O1027 2.097 . S
Co1003 N1044 2.151 . S
Co1003 N1052 2.214 . S
Co1004 O1005 2.160 . S
Co1004 O1010 2.058 . S
Co1004 O1020 2.057 1_655 S
Co1004 O1035 2.037 . S
Co1004 N1039 2.145 1_655 S
Co1004 N1060 2.257 1_655 S
O1005 Co1003 2.143 . S
O1005 Co1004 2.160 . S
C1006 O1007 1.278 . S
C1006 O1014 1.224 . S
O1007 C1006 1.278 . S
C1008 O1009 1.245 . S
C1008 O1020 1.232 1_655 S
O1009 C1008 1.245 . S
O1010 Co1004 2.058 . S
O1010 C1036 1.269 . S
O1011 Co1003 2.074 . S
O1011 C1036 1.257 . S
H1012 C1037 0.930 . S
H1013 C1043 0.930 . S
O1014 Co1003 2.093 . S
O1014 C1006 1.224 . S
H1015 C1047 0.929 . S
H1016 C1049 0.930 . S
H1017 C1050 0.930 . S
H1018 C1048 0.929 . S
H1019 C1051 0.928 . S
O1020 Co1004 2.057 1_455 S
O1020 C1008 1.232 1_455 S
H1021 C1040 0.929 . S
H1022 C1041 0.929 . S
H1023 C1053 0.931 . S
H1024 C1045 0.929 . S
H1025 C1054 0.930 . S
H1026 C1046 0.931 . S
O1027 Co1003 2.097 . S
O1027 C1055 1.214 . S
H1028 C1056 0.929 . S
H1029 C1057 0.929 . S
H1030 C1058 0.930 . S
H1031 C1059 0.929 . S
H1032 C1061 0.930 . S
H1033 C1038 0.930 . S
H1034 C1042 0.930 . S
O1035 Co1004 2.037 . S
O1035 C1055 1.234 . S
C1036 O1010 1.269 . S
C1036 O1011 1.257 . S
C1037 H1012 0.930 . S
C1037 C1040 1.388 . S
C1037 C1042 1.418 . S
C1038 H1033 0.930 . S
C1038 C1041 1.404 . S
C1038 C1042 1.353 . S
N1039 Co1004 2.145 1_455 S
N1039 C1040 1.397 . S
N1039 C1041 1.334 . S
C1040 H1021 0.929 . S
C1040 C1037 1.388 . S
C1040 N1039 1.397 . S
C1041 H1022 0.929 . S
C1041 C1038 1.404 . S
C1041 N1039 1.334 . S
C1042 H1034 0.930 . S
C1042 C1037 1.418 . S
C1042 C1038 1.353 . S
C1043 H1013 0.930 . S
C1043 N1044 1.330 . S
C1043 C1045 1.446 . S
N1044 Co1003 2.151 . S
N1044 C1043 1.330 . S
N1044 C1048 1.418 . S
C1045 H1024 0.929 . S
C1045 C1043 1.446 . S
C1045 C1046 1.332 . S
C1046 H1026 0.931 . S
C1046 C1045 1.332 . S
C1046 C1047 1.267 . S
C1047 H1015 0.929 . S
C1047 C1046 1.267 . S
C1047 C1048 1.251 . S
C1048 H1018 0.929 . S
C1048 N1044 1.418 . S
C1048 C1047 1.251 . S
C1049 H1016 0.930 . S
C1049 C1051 1.406 . S
C1049 C1054 1.261 . S
C1050 H1017 0.930 . S
C1050 N1052 1.325 . S
C1050 C1053 1.357 . S
C1051 H1019 0.928 . S
C1051 C1049 1.406 . S
C1051 N1052 1.261 . S
N1052 Co1003 2.214 . S
N1052 C1050 1.325 . S
N1052 C1051 1.261 . S
C1053 H1023 0.931 . S
C1053 C1050 1.357 . S
C1053 C1054 1.312 . S
C1054 H1025 0.930 . S
C1054 C1049 1.261 . S
C1054 C1053 1.312 . S
C1055 O1027 1.214 . S
C1055 O1035 1.234 . S
C1056 H1028 0.929 . S
C1056 C1059 1.391 1_655 S
C1056 C1061 1.391 . S
C1057 H1029 0.929 . S
C1057 C1058 1.390 . S
C1057 N1060 1.391 . S
C1058 H1030 0.930 . S
C1058 C1057 1.390 . S
C1058 C1059 1.392 . S
C1059 H1031 0.929 . S
C1059 C1056 1.391 1_455 S
C1059 C1058 1.392 . S
N1060 Co1004 2.257 1_455 S
N1060 C1057 1.391 . S
N1060 C1061 1.388 1_455 S
C1061 H1032 0.930 . S
C1061 C1056 1.391 . S
C1061 N1060 1.388 1_655 S
Co1062 O1064 2.143 . S
Co1062 O1070 2.074 . S
Co1062 O1073 2.093 . S
Co1062 O1086 2.097 . S
Co1062 N1103 2.151 . S
Co1062 N1111 2.214 . S
Co1063 O1064 2.160 . S
Co1063 O1069 2.058 . S
Co1063 O1079 2.057 1_455 S
Co1063 O1094 2.037 . S
Co1063 N1098 2.145 1_455 S
Co1063 N1119 2.257 1_455 S
O1064 Co1062 2.143 . S
O1064 Co1063 2.160 . S
C1065 O1066 1.278 . S
C1065 O1073 1.224 . S
O1066 C1065 1.278 . S
C1067 O1068 1.245 . S
C1067 O1079 1.232 1_455 S
O1068 C1067 1.245 . S
O1069 Co1063 2.058 . S
O1069 C1095 1.269 . S
O1070 Co1062 2.074 . S
O1070 C1095 1.257 . S
H1071 C1096 0.930 . S
H1072 C1102 0.930 . S
O1073 Co1062 2.093 . S
O1073 C1065 1.224 . S
H1074 C1106 0.929 . S
H1075 C1108 0.930 . S
H1076 C1109 0.930 . S
H1077 C1107 0.929 . S
H1078 C1110 0.928 . S
O1079 Co1063 2.057 1_655 S
O1079 C1067 1.232 1_655 S
H1080 C1099 0.929 . S
H1081 C1100 0.929 . S
H1082 C1112 0.931 . S
H1083 C1104 0.929 . S
H1084 C1113 0.930 . S
H1085 C1105 0.931 . S
O1086 Co1062 2.097 . S
O1086 C1114 1.214 . S
H1087 C1115 0.929 . S
H1088 C1116 0.929 . S
H1089 C1117 0.930 . S
H1090 C1118 0.929 . S
H1091 C1120 0.930 . S
H1092 C1097 0.930 . S
H1093 C1101 0.930 . S
O1094 Co1063 2.037 . S
O1094 C1114 1.234 . S
C1095 O1069 1.269 . S
C1095 O1070 1.257 . S
C1096 H1071 0.930 . S
C1096 C1099 1.388 . S
C1096 C1101 1.418 . S
C1097 H1092 0.930 . S
C1097 C1100 1.404 . S
C1097 C1101 1.353 . S
N1098 Co1063 2.145 1_655 S
N1098 C1099 1.397 . S
N1098 C1100 1.334 . S
C1099 H1080 0.929 . S
C1099 C1096 1.388 . S
C1099 N1098 1.397 . S
C1100 H1081 0.929 . S
C1100 C1097 1.404 . S
C1100 N1098 1.334 . S
C1101 H1093 0.930 . S
C1101 C1096 1.418 . S
C1101 C1097 1.353 . S
C1102 H1072 0.930 . S
C1102 N1103 1.330 . S
C1102 C1104 1.446 . S
N1103 Co1062 2.151 . S
N1103 C1102 1.330 . S
N1103 C1107 1.418 . S
C1104 H1083 0.929 . S
C1104 C1102 1.446 . S
C1104 C1105 1.332 . S
C1105 H1085 0.931 . S
C1105 C1104 1.332 . S
C1105 C1106 1.267 . S
C1106 H1074 0.929 . S
C1106 C1105 1.267 . S
C1106 C1107 1.251 . S
C1107 H1077 0.929 . S
C1107 N1103 1.418 . S
C1107 C1106 1.251 . S
C1108 H1075 0.930 . S
C1108 C1110 1.406 . S
C1108 C1113 1.261 . S
C1109 H1076 0.930 . S
C1109 N1111 1.325 . S
C1109 C1112 1.357 . S
C1110 H1078 0.928 . S
C1110 C1108 1.406 . S
C1110 N1111 1.261 . S
N1111 Co1062 2.214 . S
N1111 C1109 1.325 . S
N1111 C1110 1.261 . S
C1112 H1082 0.931 . S
C1112 C1109 1.357 . S
C1112 C1113 1.312 . S
C1113 H1084 0.930 . S
C1113 C1108 1.261 . S
C1113 C1112 1.312 . S
C1114 O1086 1.214 . S
C1114 O1094 1.234 . S
C1115 H1087 0.929 . S
C1115 C1118 1.391 1_455 S
C1115 C1120 1.391 . S
C1116 H1088 0.929 . S
C1116 C1117 1.390 . S
C1116 N1119 1.391 . S
C1117 H1089 0.930 . S
C1117 C1116 1.390 . S
C1117 C1118 1.392 . S
C1118 H1090 0.929 . S
C1118 C1115 1.391 1_655 S
C1118 C1117 1.392 . S
N1119 Co1063 2.257 1_655 S
N1119 C1116 1.391 . S
N1119 C1120 1.388 1_655 S
C1120 H1091 0.930 . S
C1120 C1115 1.391 . S
C1120 N1119 1.388 1_455 S
Co1121 O1123 2.143 . S
Co1121 O1129 2.074 . S
Co1121 O1132 2.093 . S
Co1121 O1145 2.097 . S
Co1121 N1162 2.151 . S
Co1121 N1170 2.214 . S
Co1122 O1123 2.160 . S
Co1122 O1128 2.058 . S
Co1122 O1138 2.057 1_545 S
Co1122 O1153 2.037 . S
Co1122 N1157 2.145 1_545 S
Co1122 N1178 2.257 1_545 S
O1123 Co1121 2.143 . S
O1123 Co1122 2.160 . S
C1124 O1125 1.278 . S
C1124 O1132 1.224 . S
O1125 C1124 1.278 . S
C1126 O1127 1.245 . S
C1126 O1138 1.232 1_545 S
O1127 C1126 1.245 . S
O1128 Co1122 2.058 . S
O1128 C1154 1.269 . S
O1129 Co1121 2.074 . S
O1129 C1154 1.257 . S
H1130 C1155 0.930 . S
H1131 C1161 0.930 . S
O1132 Co1121 2.093 . S
O1132 C1124 1.224 . S
H1133 C1165 0.929 . S
H1134 C1167 0.930 . S
H1135 C1168 0.930 . S
H1136 C1166 0.929 . S
H1137 C1169 0.928 . S
O1138 Co1122 2.057 1_565 S
O1138 C1126 1.232 1_565 S
H1139 C1158 0.929 . S
H1140 C1159 0.929 . S
H1141 C1171 0.931 . S
H1142 C1163 0.929 . S
H1143 C1172 0.930 . S
H1144 C1164 0.931 . S
O1145 Co1121 2.097 . S
O1145 C1173 1.214 . S
H1146 C1174 0.929 . S
H1147 C1175 0.929 . S
H1148 C1176 0.930 . S
H1149 C1177 0.929 . S
H1150 C1179 0.930 . S
H1151 C1156 0.930 . S
H1152 C1160 0.930 . S
O1153 Co1122 2.037 . S
O1153 C1173 1.234 . S
C1154 O1128 1.269 . S
C1154 O1129 1.257 . S
C1155 H1130 0.930 . S
C1155 C1158 1.388 . S
C1155 C1160 1.418 . S
C1156 H1151 0.930 . S
C1156 C1159 1.404 . S
C1156 C1160 1.353 . S
N1157 Co1122 2.145 1_565 S
N1157 C1158 1.397 . S
N1157 C1159 1.334 . S
C1158 H1139 0.929 . S
C1158 C1155 1.388 . S
C1158 N1157 1.397 . S
C1159 H1140 0.929 . S
C1159 C1156 1.404 . S
C1159 N1157 1.334 . S
C1160 H1152 0.930 . S
C1160 C1155 1.418 . S
C1160 C1156 1.353 . S
C1161 H1131 0.930 . S
C1161 N1162 1.330 . S
C1161 C1163 1.446 . S
N1162 Co1121 2.151 . S
N1162 C1161 1.330 . S
N1162 C1166 1.418 . S
C1163 H1142 0.929 . S
C1163 C1161 1.446 . S
C1163 C1164 1.332 . S
C1164 H1144 0.931 . S
C1164 C1163 1.332 . S
C1164 C1165 1.267 . S
C1165 H1133 0.929 . S
C1165 C1164 1.267 . S
C1165 C1166 1.251 . S
C1166 H1136 0.929 . S
C1166 N1162 1.418 . S
C1166 C1165 1.251 . S
C1167 H1134 0.930 . S
C1167 C1169 1.406 . S
C1167 C1172 1.261 . S
C1168 H1135 0.930 . S
C1168 N1170 1.325 . S
C1168 C1171 1.357 . S
C1169 H1137 0.928 . S
C1169 C1167 1.406 . S
C1169 N1170 1.261 . S
N1170 Co1121 2.214 . S
N1170 C1168 1.325 . S
N1170 C1169 1.261 . S
C1171 H1141 0.931 . S
C1171 C1168 1.357 . S
C1171 C1172 1.312 . S
C1172 H1143 0.930 . S
C1172 C1167 1.261 . S
C1172 C1171 1.312 . S
C1173 O1145 1.214 . S
C1173 O1153 1.234 . S
C1174 H1146 0.929 . S
C1174 C1177 1.391 1_545 S
C1174 C1179 1.391 . S
C1175 H1147 0.929 . S
C1175 C1176 1.390 . S
C1175 N1178 1.391 . S
C1176 H1148 0.930 . S
C1176 C1175 1.390 . S
C1176 C1177 1.392 . S
C1177 H1149 0.929 . S
C1177 C1174 1.391 1_565 S
C1177 C1176 1.392 . S
N1178 Co1122 2.257 1_565 S
N1178 C1175 1.391 . S
N1178 C1179 1.388 1_565 S
C1179 H1150 0.930 . S
C1179 C1174 1.391 . S
C1179 N1178 1.388 1_545 S
Co1180 O1182 2.143 . S
Co1180 O1188 2.074 . S
Co1180 O1191 2.093 . S
Co1180 O1204 2.097 . S
Co1180 N1221 2.151 . S
Co1180 N1229 2.214 . S
Co1181 O1182 2.160 . S
Co1181 O1187 2.058 . S
Co1181 O1197 2.057 . S
Co1181 O1212 2.037 . S
Co1181 N1216 2.145 . S
Co1181 N1237 2.257 . S
O1182 Co1180 2.143 . S
O1182 Co1181 2.160 . S
C1183 O1184 1.278 . S
C1183 O1191 1.224 . S
O1184 C1183 1.278 . S
C1185 O1186 1.245 . S
C1185 O1197 1.232 . S
O1186 C1185 1.245 . S
O1187 Co1181 2.058 . S
O1187 C1213 1.269 . S
O1188 Co1180 2.074 . S
O1188 C1213 1.257 . S
H1189 C1214 0.930 . S
H1190 C1220 0.930 . S
O1191 Co1180 2.093 . S
O1191 C1183 1.224 . S
H1192 C1224 0.929 . S
H1193 C1226 0.930 . S
H1194 C1227 0.930 . S
H1195 C1225 0.929 . S
H1196 C1228 0.928 . S
O1197 Co1181 2.057 . S
O1197 C1185 1.232 . S
H1198 C1217 0.929 . S
H1199 C1218 0.929 . S
H1200 C1230 0.931 . S
H1201 C1222 0.929 . S
H1202 C1231 0.930 . S
H1203 C1223 0.931 . S
O1204 Co1180 2.097 . S
O1204 C1232 1.214 . S
H1205 C1233 0.929 . S
H1206 C1234 0.929 . S
H1207 C1235 0.930 . S
H1208 C1236 0.929 . S
H1209 C1238 0.930 . S
H1210 C1215 0.930 . S
H1211 C1219 0.930 . S
O1212 Co1181 2.037 . S
O1212 C1232 1.234 . S
C1213 O1187 1.269 . S
C1213 O1188 1.257 . S
C1214 H1189 0.930 . S
C1214 C1217 1.388 . S
C1214 C1219 1.418 . S
C1215 H1210 0.930 . S
C1215 C1218 1.404 . S
C1215 C1219 1.353 . S
N1216 Co1181 2.145 . S
N1216 C1217 1.397 . S
N1216 C1218 1.334 . S
C1217 H1198 0.929 . S
C1217 C1214 1.388 . S
C1217 N1216 1.397 . S
C1218 H1199 0.929 . S
C1218 C1215 1.404 . S
C1218 N1216 1.334 . S
C1219 H1211 0.930 . S
C1219 C1214 1.418 . S
C1219 C1215 1.353 . S
C1220 H1190 0.930 . S
C1220 N1221 1.330 . S
C1220 C1222 1.446 . S
N1221 Co1180 2.151 . S
N1221 C1220 1.330 . S
N1221 C1225 1.418 . S
C1222 H1201 0.929 . S
C1222 C1220 1.446 . S
C1222 C1223 1.332 . S
C1223 H1203 0.931 . S
C1223 C1222 1.332 . S
C1223 C1224 1.267 . S
C1224 H1192 0.929 . S
C1224 C1223 1.267 . S
C1224 C1225 1.251 . S
C1225 H1195 0.929 . S
C1225 N1221 1.418 . S
C1225 C1224 1.251 . S
C1226 H1193 0.930 . S
C1226 C1228 1.406 . S
C1226 C1231 1.261 . S
C1227 H1194 0.930 . S
C1227 N1229 1.325 . S
C1227 C1230 1.357 . S
C1228 H1196 0.928 . S
C1228 C1226 1.406 . S
C1228 N1229 1.261 . S
N1229 Co1180 2.214 . S
N1229 C1227 1.325 . S
N1229 C1228 1.261 . S
C1230 H1200 0.931 . S
C1230 C1227 1.357 . S
C1230 C1231 1.312 . S
C1231 H1202 0.930 . S
C1231 C1226 1.261 . S
C1231 C1230 1.312 . S
C1232 O1204 1.214 . S
C1232 O1212 1.234 . S
C1233 H1205 0.929 . S
C1233 C1236 1.391 . S
C1233 C1238 1.391 . S
C1234 H1206 0.929 . S
C1234 C1235 1.390 . S
C1234 N1237 1.391 . S
C1235 H1207 0.930 . S
C1235 C1234 1.390 . S
C1235 C1236 1.392 . S
C1236 H1208 0.929 . S
C1236 C1233 1.391 . S
C1236 C1235 1.392 . S
N1237 Co1181 2.257 . S
N1237 C1234 1.391 . S
N1237 C1238 1.388 . S
C1238 H1209 0.930 . S
C1238 C1233 1.391 . S
C1238 N1237 1.388 . S
Co1239 O1241 2.143 . S
Co1239 O1247 2.074 . S
Co1239 O1250 2.093 . S
Co1239 O1263 2.097 . S
Co1239 N1280 2.151 . S
Co1239 N1288 2.214 . S
Co1240 O1241 2.160 . S
Co1240 O1246 2.058 . S
Co1240 O1256 2.057 1_655 S
Co1240 O1271 2.037 . S
Co1240 N1275 2.145 1_655 S
Co1240 N1296 2.257 1_655 S
O1241 Co1239 2.143 . S
O1241 Co1240 2.160 . S
C1242 O1243 1.278 . S
C1242 O1250 1.224 . S
O1243 C1242 1.278 . S
C1244 O1245 1.245 . S
C1244 O1256 1.232 1_655 S
O1245 C1244 1.245 . S
O1246 Co1240 2.058 . S
O1246 C1272 1.269 . S
O1247 Co1239 2.074 . S
O1247 C1272 1.257 . S
H1248 C1273 0.930 . S
H1249 C1279 0.930 . S
O1250 Co1239 2.093 . S
O1250 C1242 1.224 . S
H1251 C1283 0.929 . S
H1252 C1285 0.930 . S
H1253 C1286 0.930 . S
H1254 C1284 0.929 . S
H1255 C1287 0.928 . S
O1256 Co1240 2.057 1_455 S
O1256 C1244 1.232 1_455 S
H1257 C1276 0.929 . S
H1258 C1277 0.929 . S
H1259 C1289 0.931 . S
H1260 C1281 0.929 . S
H1261 C1290 0.930 . S
H1262 C1282 0.931 . S
O1263 Co1239 2.097 . S
O1263 C1291 1.214 . S
H1264 C1292 0.929 . S
H1265 C1293 0.929 . S
H1266 C1294 0.930 . S
H1267 C1295 0.929 . S
H1268 C1297 0.930 . S
H1269 C1274 0.930 . S
H1270 C1278 0.930 . S
O1271 Co1240 2.037 . S
O1271 C1291 1.234 . S
C1272 O1246 1.269 . S
C1272 O1247 1.257 . S
C1273 H1248 0.930 . S
C1273 C1276 1.388 . S
C1273 C1278 1.418 . S
C1274 H1269 0.930 . S
C1274 C1277 1.404 . S
C1274 C1278 1.353 . S
N1275 Co1240 2.145 1_455 S
N1275 C1276 1.397 . S
N1275 C1277 1.334 . S
C1276 H1257 0.929 . S
C1276 C1273 1.388 . S
C1276 N1275 1.397 . S
C1277 H1258 0.929 . S
C1277 C1274 1.404 . S
C1277 N1275 1.334 . S
C1278 H1270 0.930 . S
C1278 C1273 1.418 . S
C1278 C1274 1.353 . S
C1279 H1249 0.930 . S
C1279 N1280 1.330 . S
C1279 C1281 1.446 . S
N1280 Co1239 2.151 . S
N1280 C1279 1.330 . S
N1280 C1284 1.418 . S
C1281 H1260 0.929 . S
C1281 C1279 1.446 . S
C1281 C1282 1.332 . S
C1282 H1262 0.931 . S
C1282 C1281 1.332 . S
C1282 C1283 1.267 . S
C1283 H1251 0.929 . S
C1283 C1282 1.267 . S
C1283 C1284 1.251 . S
C1284 H1254 0.929 . S
C1284 N1280 1.418 . S
C1284 C1283 1.251 . S
C1285 H1252 0.930 . S
C1285 C1287 1.406 . S
C1285 C1290 1.261 . S
C1286 H1253 0.930 . S
C1286 N1288 1.325 . S
C1286 C1289 1.357 . S
C1287 H1255 0.928 . S
C1287 C1285 1.406 . S
C1287 N1288 1.261 . S
N1288 Co1239 2.214 . S
N1288 C1286 1.325 . S
N1288 C1287 1.261 . S
C1289 H1259 0.931 . S
C1289 C1286 1.357 . S
C1289 C1290 1.312 . S
C1290 H1261 0.930 . S
C1290 C1285 1.261 . S
C1290 C1289 1.312 . S
C1291 O1263 1.214 . S
C1291 O1271 1.234 . S
C1292 H1264 0.929 . S
C1292 C1295 1.391 1_655 S
C1292 C1297 1.391 . S
C1293 H1265 0.929 . S
C1293 C1294 1.390 . S
C1293 N1296 1.391 . S
C1294 H1266 0.930 . S
C1294 C1293 1.390 . S
C1294 C1295 1.392 . S
C1295 H1267 0.929 . S
C1295 C1292 1.391 1_455 S
C1295 C1294 1.392 . S
N1296 Co1240 2.257 1_455 S
N1296 C1293 1.391 . S
N1296 C1297 1.388 1_455 S
C1297 H1268 0.930 . S
C1297 C1292 1.391 . S
C1297 N1296 1.388 1_655 S
Co1298 O1300 2.143 . S
Co1298 O1306 2.074 . S
Co1298 O1309 2.093 . S
Co1298 O1322 2.097 . S
Co1298 N1339 2.151 . S
Co1298 N1347 2.214 . S
Co1299 O1300 2.160 . S
Co1299 O1305 2.058 . S
Co1299 O1315 2.057 1_565 S
Co1299 O1330 2.037 . S
Co1299 N1334 2.145 1_565 S
Co1299 N1355 2.257 1_565 S
O1300 Co1298 2.143 . S
O1300 Co1299 2.160 . S
C1301 O1302 1.278 . S
C1301 O1309 1.224 . S
O1302 C1301 1.278 . S
C1303 O1304 1.245 . S
C1303 O1315 1.232 1_565 S
O1304 C1303 1.245 . S
O1305 Co1299 2.058 . S
O1305 C1331 1.269 . S
O1306 Co1298 2.074 . S
O1306 C1331 1.257 . S
H1307 C1332 0.930 . S
H1308 C1338 0.930 . S
O1309 Co1298 2.093 . S
O1309 C1301 1.224 . S
H1310 C1342 0.929 . S
H1311 C1344 0.930 . S
H1312 C1345 0.930 . S
H1313 C1343 0.929 . S
H1314 C1346 0.928 . S
O1315 Co1299 2.057 1_545 S
O1315 C1303 1.232 1_545 S
H1316 C1335 0.929 . S
H1317 C1336 0.929 . S
H1318 C1348 0.931 . S
H1319 C1340 0.929 . S
H1320 C1349 0.930 . S
H1321 C1341 0.931 . S
O1322 Co1298 2.097 . S
O1322 C1350 1.214 . S
H1323 C1351 0.929 . S
H1324 C1352 0.929 . S
H1325 C1353 0.930 . S
H1326 C1354 0.929 . S
H1327 C1356 0.930 . S
H1328 C1333 0.930 . S
H1329 C1337 0.930 . S
O1330 Co1299 2.037 . S
O1330 C1350 1.234 . S
C1331 O1305 1.269 . S
C1331 O1306 1.257 . S
C1332 H1307 0.930 . S
C1332 C1335 1.388 . S
C1332 C1337 1.418 . S
C1333 H1328 0.930 . S
C1333 C1336 1.404 . S
C1333 C1337 1.353 . S
N1334 Co1299 2.145 1_545 S
N1334 C1335 1.397 . S
N1334 C1336 1.334 . S
C1335 H1316 0.929 . S
C1335 C1332 1.388 . S
C1335 N1334 1.397 . S
C1336 H1317 0.929 . S
C1336 C1333 1.404 . S
C1336 N1334 1.334 . S
C1337 H1329 0.930 . S
C1337 C1332 1.418 . S
C1337 C1333 1.353 . S
C1338 H1308 0.930 . S
C1338 N1339 1.330 . S
C1338 C1340 1.446 . S
N1339 Co1298 2.151 . S
N1339 C1338 1.330 . S
N1339 C1343 1.418 . S
C1340 H1319 0.929 . S
C1340 C1338 1.446 . S
C1340 C1341 1.332 . S
C1341 H1321 0.931 . S
C1341 C1340 1.332 . S
C1341 C1342 1.267 . S
C1342 H1310 0.929 . S
C1342 C1341 1.267 . S
C1342 C1343 1.251 . S
C1343 H1313 0.929 . S
C1343 N1339 1.418 . S
C1343 C1342 1.251 . S
C1344 H1311 0.930 . S
C1344 C1346 1.406 . S
C1344 C1349 1.261 . S
C1345 H1312 0.930 . S
C1345 N1347 1.325 . S
C1345 C1348 1.357 . S
C1346 H1314 0.928 . S
C1346 C1344 1.406 . S
C1346 N1347 1.261 . S
N1347 Co1298 2.214 . S
N1347 C1345 1.325 . S
N1347 C1346 1.261 . S
C1348 H1318 0.931 . S
C1348 C1345 1.357 . S
C1348 C1349 1.312 . S
C1349 H1320 0.930 . S
C1349 C1344 1.261 . S
C1349 C1348 1.312 . S
C1350 O1322 1.214 . S
C1350 O1330 1.234 . S
C1351 H1323 0.929 . S
C1351 C1354 1.391 1_565 S
C1351 C1356 1.391 . S
C1352 H1324 0.929 . S
C1352 C1353 1.390 . S
C1352 N1355 1.391 . S
C1353 H1325 0.930 . S
C1353 C1352 1.390 . S
C1353 C1354 1.392 . S
C1354 H1326 0.929 . S
C1354 C1351 1.391 1_545 S
C1354 C1353 1.392 . S
N1355 Co1299 2.257 1_545 S
N1355 C1352 1.391 . S
N1355 C1356 1.388 1_545 S
C1356 H1327 0.930 . S
C1356 C1351 1.391 . S
C1356 N1355 1.388 1_565 S
Co1357 O1359 2.143 . S
Co1357 O1365 2.074 . S
Co1357 O1368 2.093 . S
Co1357 O1381 2.097 . S
Co1357 N1398 2.151 . S
Co1357 N1406 2.214 . S
Co1358 O1359 2.160 . S
Co1358 O1364 2.058 . S
Co1358 O1374 2.057 . S
Co1358 O1389 2.037 . S
Co1358 N1393 2.145 . S
Co1358 N1414 2.257 . S
O1359 Co1357 2.143 . S
O1359 Co1358 2.160 . S
C1360 O1361 1.278 . S
C1360 O1368 1.224 . S
O1361 C1360 1.278 . S
C1362 O1363 1.245 . S
C1362 O1374 1.232 . S
O1363 C1362 1.245 . S
O1364 Co1358 2.058 . S
O1364 C1390 1.269 . S
O1365 Co1357 2.074 . S
O1365 C1390 1.257 . S
H1366 C1391 0.930 . S
H1367 C1397 0.930 . S
O1368 Co1357 2.093 . S
O1368 C1360 1.224 . S
H1369 C1401 0.929 . S
H1370 C1403 0.930 . S
H1371 C1404 0.930 . S
H1372 C1402 0.929 . S
H1373 C1405 0.928 . S
O1374 Co1358 2.057 . S
O1374 C1362 1.232 . S
H1375 C1394 0.929 . S
H1376 C1395 0.929 . S
H1377 C1407 0.931 . S
H1378 C1399 0.929 . S
H1379 C1408 0.930 . S
H1380 C1400 0.931 . S
O1381 Co1357 2.097 . S
O1381 C1409 1.214 . S
H1382 C1410 0.929 . S
H1383 C1411 0.929 . S
H1384 C1412 0.930 . S
H1385 C1413 0.929 . S
H1386 C1415 0.930 . S
H1387 C1392 0.930 . S
H1388 C1396 0.930 . S
O1389 Co1358 2.037 . S
O1389 C1409 1.234 . S
C1390 O1364 1.269 . S
C1390 O1365 1.257 . S
C1391 H1366 0.930 . S
C1391 C1394 1.388 . S
C1391 C1396 1.418 . S
C1392 H1387 0.930 . S
C1392 C1395 1.404 . S
C1392 C1396 1.353 . S
N1393 Co1358 2.145 . S
N1393 C1394 1.397 . S
N1393 C1395 1.334 . S
C1394 H1375 0.929 . S
C1394 C1391 1.388 . S
C1394 N1393 1.397 . S
C1395 H1376 0.929 . S
C1395 C1392 1.404 . S
C1395 N1393 1.334 . S
C1396 H1388 0.930 . S
C1396 C1391 1.418 . S
C1396 C1392 1.353 . S
C1397 H1367 0.930 . S
C1397 N1398 1.330 . S
C1397 C1399 1.446 . S
N1398 Co1357 2.151 . S
N1398 C1397 1.330 . S
N1398 C1402 1.418 . S
C1399 H1378 0.929 . S
C1399 C1397 1.446 . S
C1399 C1400 1.332 . S
C1400 H1380 0.931 . S
C1400 C1399 1.332 . S
C1400 C1401 1.267 . S
C1401 H1369 0.929 . S
C1401 C1400 1.267 . S
C1401 C1402 1.251 . S
C1402 H1372 0.929 . S
C1402 N1398 1.418 . S
C1402 C1401 1.251 . S
C1403 H1370 0.930 . S
C1403 C1405 1.406 . S
C1403 C1408 1.261 . S
C1404 H1371 0.930 . S
C1404 N1406 1.325 . S
C1404 C1407 1.357 . S
C1405 H1373 0.928 . S
C1405 C1403 1.406 . S
C1405 N1406 1.261 . S
N1406 Co1357 2.214 . S
N1406 C1404 1.325 . S
N1406 C1405 1.261 . S
C1407 H1377 0.931 . S
C1407 C1404 1.357 . S
C1407 C1408 1.312 . S
C1408 H1379 0.930 . S
C1408 C1403 1.261 . S
C1408 C1407 1.312 . S
C1409 O1381 1.214 . S
C1409 O1389 1.234 . S
C1410 H1382 0.929 . S
C1410 C1413 1.391 . S
C1410 C1415 1.391 . S
C1411 H1383 0.929 . S
C1411 C1412 1.390 . S
C1411 N1414 1.391 . S
C1412 H1384 0.930 . S
C1412 C1411 1.390 . S
C1412 C1413 1.392 . S
C1413 H1385 0.929 . S
C1413 C1410 1.391 . S
C1413 C1412 1.392 . S
N1414 Co1358 2.257 . S
N1414 C1411 1.391 . S
N1414 C1415 1.388 . S
C1415 H1386 0.930 . S
C1415 C1410 1.391 . S
C1415 N1414 1.388 . S
C1416 C1417 1.369 . S
C1416 C1418 1.419 . S
C1416 H1420 0.930 . S
C1417 C1416 1.369 . S
C1417 C1426 1.429 . S
C1418 C1416 1.419 . S
C1418 C1419 1.363 . S
C1418 H1421 0.929 . S
C1419 C1418 1.363 . S
C1419 C1425 1.428 . S
H1420 C1416 0.930 . S
H1421 C1418 0.929 . S
S1422 N1423 1.613 1_565 S
S1422 N1424 1.610 1_565 S
N1423 S1422 1.613 1_545 S
N1423 C1426 1.350 . S
N1424 S1422 1.610 1_545 S
N1424 C1425 1.351 . S
C1425 C1419 1.428 . S
C1425 N1424 1.351 . S
C1425 C1426 1.434 . S
C1426 C1417 1.429 . S
C1426 N1423 1.350 . S
C1426 C1425 1.434 . S
C1427 C1428 1.369 . S
C1427 C1429 1.419 . S
C1427 H1431 0.930 . S
C1428 C1427 1.369 . S
C1428 C1437 1.429 . S
C1429 C1427 1.419 . S
C1429 C1430 1.363 . S
C1429 H1432 0.929 . S
C1430 C1429 1.363 . S
C1430 C1436 1.428 . S
H1431 C1427 0.930 . S
H1432 C1429 0.929 . S
S1433 N1434 1.613 . S
S1433 N1435 1.610 . S
N1434 S1433 1.613 . S
N1434 C1437 1.350 . S
N1435 S1433 1.610 . S
N1435 C1436 1.351 . S
C1436 C1430 1.428 . S
C1436 N1435 1.351 . S
C1436 C1437 1.434 . S
C1437 C1428 1.429 . S
C1437 N1434 1.350 . S
C1437 C1436 1.434 . S
C1438 C1439 1.369 . S
C1438 C1440 1.419 . S
C1438 H1442 0.930 . S
C1439 C1438 1.369 . S
C1439 C1448 1.429 . S
C1440 C1438 1.419 . S
C1440 C1441 1.363 . S
C1440 H1443 0.929 . S
C1441 C1440 1.363 . S
C1441 C1447 1.428 . S
H1442 C1438 0.930 . S
H1443 C1440 0.929 . S
S1444 N1445 1.613 . S
S1444 N1446 1.610 . S
N1445 S1444 1.613 . S
N1445 C1448 1.350 . S
N1446 S1444 1.610 . S
N1446 C1447 1.351 . S
C1447 C1441 1.428 . S
C1447 N1446 1.351 . S
C1447 C1448 1.434 . S
C1448 C1439 1.429 . S
C1448 N1445 1.350 . S
C1448 C1447 1.434 . S
C1449 C1450 1.369 . S
C1449 C1451 1.419 . S
C1449 H1453 0.930 1_565 S
C1450 C1449 1.369 . S
C1450 C1459 1.429 . S
C1451 C1449 1.419 . S
C1451 C1452 1.363 . S
C1451 H1454 0.929 1_565 S
C1452 C1451 1.363 . S
C1452 C1458 1.428 . S
H1453 C1449 0.930 1_545 S
H1454 C1451 0.929 1_545 S
S1455 N1456 1.613 . S
S1455 N1457 1.610 . S
N1456 S1455 1.613 . S
N1456 C1459 1.350 . S
N1457 S1455 1.610 . S
N1457 C1458 1.351 . S
C1458 C1452 1.428 . S
C1458 N1457 1.351 . S
C1458 C1459 1.434 . S
C1459 C1450 1.429 . S
C1459 N1456 1.350 . S
C1459 C1458 1.434 . S
C1460 C1461 1.369 . S
C1460 C1462 1.419 . S
C1460 H1464 0.930 . S
C1461 C1460 1.369 . S
C1461 C1470 1.429 . S
C1462 C1460 1.419 . S
C1462 C1463 1.363 . S
C1462 H1465 0.929 . S
C1463 C1462 1.363 . S
C1463 C1469 1.428 . S
H1464 C1460 0.930 . S
H1465 C1462 0.929 . S
S1466 N1467 1.613 . S
S1466 N1468 1.610 . S
N1467 S1466 1.613 . S
N1467 C1470 1.350 . S
N1468 S1466 1.610 . S
N1468 C1469 1.351 . S
C1469 C1463 1.428 . S
C1469 N1468 1.351 . S
C1469 C1470 1.434 . S
C1470 C1461 1.429 . S
C1470 N1467 1.350 . S
C1470 C1469 1.434 . S
C1471 C1472 1.369 . S
C1471 C1473 1.419 . S
C1471 H1475 0.930 1_455 S
C1472 C1471 1.369 . S
C1472 C1481 1.429 . S
C1473 C1471 1.419 . S
C1473 C1474 1.363 . S
C1473 H1476 0.929 1_455 S
C1474 C1473 1.363 . S
C1474 C1480 1.428 . S
H1475 C1471 0.930 1_655 S
H1476 C1473 0.929 1_655 S
S1477 N1478 1.613 . S
S1477 N1479 1.610 . S
N1478 S1477 1.613 . S
N1478 C1481 1.350 . S
N1479 S1477 1.610 . S
N1479 C1480 1.351 . S
C1480 C1474 1.428 . S
C1480 N1479 1.351 . S
C1480 C1481 1.434 . S
C1481 C1472 1.429 . S
C1481 N1478 1.350 . S
C1481 C1480 1.434 . S
C1482 C1483 1.369 . S
C1482 C1484 1.419 . S
C1482 H1486 0.930 1_655 S
C1483 C1482 1.369 . S
C1483 C1492 1.429 . S
C1484 C1482 1.419 . S
C1484 C1485 1.363 . S
C1484 H1487 0.929 1_655 S
C1485 C1484 1.363 . S
C1485 C1491 1.428 . S
H1486 C1482 0.930 1_455 S
H1487 C1484 0.929 1_455 S
S1488 N1489 1.613 . S
S1488 N1490 1.610 . S
N1489 S1488 1.613 . S
N1489 C1492 1.350 . S
N1490 S1488 1.610 . S
N1490 C1491 1.351 . S
C1491 C1485 1.428 . S
C1491 N1490 1.351 . S
C1491 C1492 1.434 . S
C1492 C1483 1.429 . S
C1492 N1489 1.350 . S
C1492 C1491 1.434 . S
C1493 C1494 1.369 . S
C1493 C1495 1.419 . S
C1493 H1497 0.930 1_565 S
C1494 C1493 1.369 . S
C1494 C1503 1.429 . S
C1495 C1493 1.419 . S
C1495 C1496 1.363 . S
C1495 H1498 0.929 1_565 S
C1496 C1495 1.363 . S
C1496 C1502 1.428 . S
H1497 C1493 0.930 1_545 S
H1498 C1495 0.929 1_545 S
S1499 N1500 1.613 . S
S1499 N1501 1.610 . S
N1500 S1499 1.613 . S
N1500 C1503 1.350 . S
N1501 S1499 1.610 . S
N1501 C1502 1.351 . S
C1502 C1496 1.428 . S
C1502 N1501 1.351 . S
C1502 C1503 1.434 . S
C1503 C1494 1.429 . S
C1503 N1500 1.350 . S
C1503 C1502 1.434 . S
C1504 C1505 1.369 . S
C1504 C1506 1.419 . S
C1504 H1508 0.930 . S
C1505 C1504 1.369 . S
C1505 C1514 1.429 . S
C1506 C1504 1.419 . S
C1506 C1507 1.363 . S
C1506 H1509 0.929 . S
C1507 C1506 1.363 . S
C1507 C1513 1.428 . S
H1508 C1504 0.930 . S
H1509 C1506 0.929 . S
S1510 N1511 1.613 . S
S1510 N1512 1.610 . S
N1511 S1510 1.613 . S
N1511 C1514 1.350 . S
N1512 S1510 1.610 . S
N1512 C1513 1.351 . S
C1513 C1507 1.428 . S
C1513 N1512 1.351 . S
C1513 C1514 1.434 . S
C1514 C1505 1.429 . S
C1514 N1511 1.350 . S
C1514 C1513 1.434 . S
C1515 C1516 1.369 . S
C1515 C1517 1.419 . S
C1515 H1519 0.930 . S
C1516 C1515 1.369 . S
C1516 C1525 1.429 . S
C1517 C1515 1.419 . S
C1517 C1518 1.363 . S
C1517 H1520 0.929 . S
C1518 C1517 1.363 . S
C1518 C1524 1.428 . S
H1519 C1515 0.930 . S
H1520 C1517 0.929 . S
S1521 N1522 1.613 . S
S1521 N1523 1.610 . S
N1522 S1521 1.613 . S
N1522 C1525 1.350 . S
N1523 S1521 1.610 . S
N1523 C1524 1.351 . S
C1524 C1518 1.428 . S
C1524 N1523 1.351 . S
C1524 C1525 1.434 . S
C1525 C1516 1.429 . S
C1525 N1522 1.350 . S
C1525 C1524 1.434 . S
C1526 C1527 1.369 . S
C1526 C1528 1.419 . S
C1526 H1530 0.930 . S
C1527 C1526 1.369 . S
C1527 C1536 1.428 1_545 S
C1528 C1526 1.419 . S
C1528 C1529 1.363 . S
C1528 H1531 0.929 . S
C1529 C1528 1.363 . S
C1529 C1535 1.430 1_545 S
H1530 C1526 0.930 . S
H1531 C1528 0.929 . S
S1532 N1533 1.613 . S
S1532 N1534 1.610 . S
N1533 S1532 1.613 . S
N1533 C1536 1.350 . S
N1534 S1532 1.610 . S
N1534 C1535 1.349 . S
C1535 C1529 1.430 1_565 S
C1535 N1534 1.349 . S
C1535 C1536 1.434 . S
C1536 C1527 1.428 1_565 S
C1536 N1533 1.350 . S
C1536 C1535 1.434 . S
C1537 C1538 1.369 . S
C1537 C1539 1.419 . S
C1537 H1541 0.930 . S
C1538 C1537 1.369 . S
C1538 C1547 1.429 . S
C1539 C1537 1.419 . S
C1539 C1540 1.363 . S
C1539 H1542 0.929 . S
C1540 C1539 1.363 . S
C1540 C1546 1.428 . S
H1541 C1537 0.930 . S
H1542 C1539 0.929 . S
S1543 N1544 1.613 . S
S1543 N1545 1.610 . S
N1544 S1543 1.613 . S
N1544 C1547 1.350 . S
N1545 S1543 1.610 . S
N1545 C1546 1.351 . S
C1546 C1540 1.428 . S
C1546 N1545 1.351 . S
C1546 C1547 1.434 . S
C1547 C1538 1.429 . S
C1547 N1544 1.350 . S
C1547 C1546 1.434 . S
C1548 C1549 1.369 . S
C1548 C1550 1.419 . S
C1548 H1552 0.930 . S
C1549 C1548 1.369 . S
C1549 C1558 1.429 . S
C1550 C1548 1.419 . S
C1550 C1551 1.363 . S
C1550 H1553 0.929 . S
C1551 C1550 1.363 . S
C1551 C1557 1.428 . S
H1552 C1548 0.930 . S
H1553 C1550 0.929 . S
S1554 N1555 1.613 . S
S1554 N1556 1.610 . S
N1555 S1554 1.613 . S
N1555 C1558 1.350 . S
N1556 S1554 1.610 . S
N1556 C1557 1.351 . S
C1557 C1551 1.428 . S
C1557 N1556 1.351 . S
C1557 C1558 1.434 . S
C1558 C1549 1.429 . S
C1558 N1555 1.350 . S
C1558 C1557 1.434 . S
C1559 C1560 1.369 . S
C1559 C1561 1.419 . S
C1559 H1563 0.930 . S
C1560 C1559 1.369 . S
C1560 C1569 1.429 . S
C1561 C1559 1.419 . S
C1561 C1562 1.363 . S
C1561 H1564 0.929 . S
C1562 C1561 1.363 . S
C1562 C1568 1.428 . S
H1563 C1559 0.930 . S
H1564 C1561 0.929 . S
S1565 N1566 1.613 . S
S1565 N1567 1.610 . S
N1566 S1565 1.613 . S
N1566 C1569 1.350 . S
N1567 S1565 1.610 . S
N1567 C1568 1.351 . S
C1568 C1562 1.428 . S
C1568 N1567 1.351 . S
C1568 C1569 1.434 . S
C1569 C1560 1.429 . S
C1569 N1566 1.350 . S
C1569 C1568 1.434 . S
C1570 C1571 1.369 . S
C1570 C1572 1.419 . S
C1570 H1574 0.930 . S
C1571 C1570 1.369 . S
C1571 C1580 1.429 . S
C1572 C1570 1.419 . S
C1572 C1573 1.363 . S
C1572 H1575 0.929 . S
C1573 C1572 1.363 . S
C1573 C1579 1.428 . S
H1574 C1570 0.930 . S
H1575 C1572 0.929 . S
S1576 N1577 1.613 . S
S1576 N1578 1.610 . S
N1577 S1576 1.613 . S
N1577 C1580 1.350 . S
N1578 S1576 1.610 . S
N1578 C1579 1.351 . S
C1579 C1573 1.428 . S
C1579 N1578 1.351 . S
C1579 C1580 1.434 . S
C1580 C1571 1.429 . S
C1580 N1577 1.350 . S
C1580 C1579 1.434 . S
C1581 C1582 1.369 . S
C1581 C1583 1.419 . S
C1581 H1585 0.930 . S
C1582 C1581 1.369 . S
C1582 C1591 1.429 . S
C1583 C1581 1.419 . S
C1583 C1584 1.363 . S
C1583 H1586 0.929 . S
C1584 C1583 1.363 . S
C1584 C1590 1.428 . S
H1585 C1581 0.930 . S
H1586 C1583 0.929 . S
S1587 N1588 1.613 . S
S1587 N1589 1.610 . S
N1588 S1587 1.613 . S
N1588 C1591 1.350 . S
N1589 S1587 1.610 . S
N1589 C1590 1.351 . S
C1590 C1584 1.428 . S
C1590 N1589 1.351 . S
C1590 C1591 1.434 . S
C1591 C1582 1.429 . S
C1591 N1588 1.350 . S
C1591 C1590 1.434 . S
C1592 C1593 1.369 . S
C1592 C1594 1.419 . S
C1592 H1596 0.930 . S
C1593 C1592 1.369 . S
C1593 C1602 1.429 . S
C1594 C1592 1.419 . S
C1594 C1595 1.363 . S
C1594 H1597 0.929 . S
C1595 C1594 1.363 . S
C1595 C1601 1.428 . S
H1596 C1592 0.930 . S
H1597 C1594 0.929 . S
S1598 N1599 1.613 . S
S1598 N1600 1.610 . S
N1599 S1598 1.613 . S
N1599 C1602 1.350 . S
N1600 S1598 1.610 . S
N1600 C1601 1.351 . S
C1601 C1595 1.428 . S
C1601 N1600 1.351 . S
C1601 C1602 1.434 . S
C1602 C1593 1.429 . S
C1602 N1599 1.350 . S
C1602 C1601 1.434 . S
C1603 C1604 1.369 . S
C1603 C1605 1.419 . S
C1603 H1607 0.930 . S
C1604 C1603 1.369 . S
C1604 C1613 1.429 . S
C1605 C1603 1.419 . S
C1605 C1606 1.363 . S
C1605 H1608 0.929 . S
C1606 C1605 1.363 . S
C1606 C1612 1.428 . S
H1607 C1603 0.930 . S
H1608 C1605 0.929 . S
S1609 N1610 1.613 . S
S1609 N1611 1.610 . S
N1610 S1609 1.613 . S
N1610 C1613 1.350 . S
N1611 S1609 1.610 . S
N1611 C1612 1.351 . S
C1612 C1606 1.428 . S
C1612 N1611 1.351 . S
C1612 C1613 1.434 . S
C1613 C1604 1.429 . S
C1613 N1610 1.350 . S
C1613 C1612 1.434 . S
C1614 C1615 1.369 . S
C1614 C1616 1.419 . S
C1614 H1618 0.930 . S
C1615 C1614 1.369 . S
C1615 C1624 1.429 . S
C1616 C1614 1.419 . S
C1616 C1617 1.363 . S
C1616 H1619 0.929 . S
C1617 C1616 1.363 . S
C1617 C1623 1.428 . S
H1618 C1614 0.930 . S
H1619 C1616 0.929 . S
S1620 N1621 1.613 . S
S1620 N1622 1.610 . S
N1621 S1620 1.613 . S
N1621 C1624 1.350 . S
N1622 S1620 1.610 . S
N1622 C1623 1.351 . S
C1623 C1617 1.428 . S
C1623 N1622 1.351 . S
C1623 C1624 1.434 . S
C1624 C1615 1.429 . S
C1624 N1621 1.350 . S
C1624 C1623 1.434 . S
C1625 C1626 1.369 . S
C1625 C1627 1.419 . S
C1625 H1629 0.930 . S
C1626 C1625 1.369 . S
C1626 C1635 1.429 . S
C1627 C1625 1.419 . S
C1627 C1628 1.363 . S
C1627 H1630 0.929 . S
C1628 C1627 1.363 . S
C1628 C1634 1.428 . S
H1629 C1625 0.930 . S
H1630 C1627 0.929 . S
S1631 N1632 1.613 . S
S1631 N1633 1.610 . S
N1632 S1631 1.613 . S
N1632 C1635 1.350 . S
N1633 S1631 1.610 . S
N1633 C1634 1.351 . S
C1634 C1628 1.428 . S
C1634 N1633 1.351 . S
C1634 C1635 1.434 . S
C1635 C1626 1.429 . S
C1635 N1632 1.350 . S
C1635 C1634 1.434 . S
C1636 C1637 1.369 . S
C1636 C1638 1.419 . S
C1636 H1640 0.930 . S
C1637 C1636 1.369 . S
C1637 C1646 1.429 . S
C1638 C1636 1.419 . S
C1638 C1639 1.363 . S
C1638 H1641 0.929 . S
C1639 C1638 1.363 . S
C1639 C1645 1.428 . S
H1640 C1636 0.930 . S
H1641 C1638 0.929 . S
S1642 N1643 1.613 . S
S1642 N1644 1.610 . S
N1643 S1642 1.613 . S
N1643 C1646 1.350 . S
N1644 S1642 1.610 . S
N1644 C1645 1.351 . S
C1645 C1639 1.428 . S
C1645 N1644 1.351 . S
C1645 C1646 1.434 . S
C1646 C1637 1.429 . S
C1646 N1643 1.350 . S
C1646 C1645 1.434 . S
C1647 C1648 1.369 . S
C1647 C1649 1.419 . S
C1647 H1651 0.930 . S
C1648 C1647 1.369 . S
C1648 C1657 1.429 . S
C1649 C1647 1.419 . S
C1649 C1650 1.363 . S
C1649 H1652 0.929 . S
C1650 C1649 1.363 . S
C1650 C1656 1.428 . S
H1651 C1647 0.930 . S
H1652 C1649 0.929 . S
S1653 N1654 1.613 . S
S1653 N1655 1.610 . S
N1654 S1653 1.613 . S
N1654 C1657 1.350 . S
N1655 S1653 1.610 . S
N1655 C1656 1.351 . S
C1656 C1650 1.428 . S
C1656 N1655 1.351 . S
C1656 C1657 1.434 . S
C1657 C1648 1.429 . S
C1657 N1654 1.350 . S
C1657 C1656 1.434 . S
C1658 C1659 1.369 . S
C1658 C1660 1.419 . S
C1658 H1662 0.930 . S
C1659 C1658 1.369 . S
C1659 C1668 1.429 . S
C1660 C1658 1.419 . S
C1660 C1661 1.363 . S
C1660 H1663 0.929 . S
C1661 C1660 1.363 . S
C1661 C1667 1.428 . S
H1662 C1658 0.930 . S
H1663 C1660 0.929 . S
S1664 N1665 1.613 . S
S1664 N1666 1.610 . S
N1665 S1664 1.613 . S
N1665 C1668 1.350 . S
N1666 S1664 1.610 . S
N1666 C1667 1.351 . S
C1667 C1661 1.428 . S
C1667 N1666 1.351 . S
C1667 C1668 1.434 . S
C1668 C1659 1.429 . S
C1668 N1665 1.350 . S
C1668 C1667 1.434 . S
C1669 C1670 1.369 . S
C1669 C1671 1.419 . S
C1669 H1673 0.930 . S
C1670 C1669 1.369 . S
C1670 C1679 1.429 . S
C1671 C1669 1.419 . S
C1671 C1672 1.363 . S
C1671 H1674 0.929 . S
C1672 C1671 1.363 . S
C1672 C1678 1.428 . S
H1673 C1669 0.930 . S
H1674 C1671 0.929 . S
S1675 N1676 1.613 . S
S1675 N1677 1.610 . S
N1676 S1675 1.613 . S
N1676 C1679 1.350 . S
N1677 S1675 1.610 . S
N1677 C1678 1.351 . S
C1678 C1672 1.428 . S
C1678 N1677 1.351 . S
C1678 C1679 1.434 . S
C1679 C1670 1.429 . S
C1679 N1676 1.350 . S
C1679 C1678 1.434 . S
C1680 C1681 1.369 . S
C1680 C1682 1.419 1_556 S
C1680 H1684 0.930 . S
C1681 C1680 1.369 . S
C1681 C1690 1.429 1_565 S
C1682 C1680 1.419 1_554 S
C1682 C1683 1.363 1_565 S
C1682 H1685 0.929 . S
C1683 C1682 1.363 1_545 S
C1683 C1689 1.428 . S
H1684 C1680 0.930 . S
H1685 C1682 0.929 . S
S1686 N1687 1.613 . S
S1686 N1688 1.610 1_556 S
N1687 S1686 1.613 . S
N1687 C1690 1.350 . S
N1688 S1686 1.610 1_554 S
N1688 C1689 1.351 . S
C1689 C1683 1.428 . S
C1689 N1688 1.351 . S
C1689 C1690 1.434 1_554 S
C1690 C1681 1.429 1_545 S
C1690 N1687 1.350 . S
C1690 C1689 1.434 1_556 S
C1691 C1692 1.369 . S
C1691 C1693 1.419 . S
C1691 H1695 0.930 . S
C1692 C1691 1.369 . S
C1692 C1701 1.429 . S
C1693 C1691 1.419 . S
C1693 C1694 1.363 . S
C1693 H1696 0.929 . S
C1694 C1693 1.363 . S
C1694 C1700 1.428 . S
H1695 C1691 0.930 . S
H1696 C1693 0.929 . S
S1697 N1698 1.613 . S
S1697 N1699 1.610 . S
N1698 S1697 1.613 . S
N1698 C1701 1.350 . S
N1699 S1697 1.610 . S
N1699 C1700 1.351 . S
C1700 C1694 1.428 . S
C1700 N1699 1.351 . S
C1700 C1701 1.434 . S
C1701 C1692 1.429 . S
C1701 N1698 1.350 . S
C1701 C1700 1.434 . S
C1702 C1703 1.369 . S
C1702 C1704 1.419 1_556 S
C1702 H1706 0.930 . S
C1703 C1702 1.369 . S
C1703 C1712 1.429 1_455 S
C1704 C1702 1.419 1_554 S
C1704 C1705 1.363 1_455 S
C1704 H1707 0.929 . S
C1705 C1704 1.363 1_655 S
C1705 C1711 1.428 . S
H1706 C1702 0.930 . S
H1707 C1704 0.929 . S
S1708 N1709 1.613 . S
S1708 N1710 1.610 1_556 S
N1709 S1708 1.613 . S
N1709 C1712 1.350 . S
N1710 S1708 1.610 1_554 S
N1710 C1711 1.351 . S
C1711 C1705 1.428 . S
C1711 N1710 1.351 . S
C1711 C1712 1.434 1_554 S
C1712 C1703 1.429 1_655 S
C1712 N1709 1.350 . S
C1712 C1711 1.434 1_556 S
C1713 C1714 1.369 1_565 S
C1713 C1715 1.419 . S
C1713 H1717 0.930 . S
C1714 C1713 1.369 1_545 S
C1714 C1723 1.429 . S
C1715 C1713 1.419 . S
C1715 C1716 1.363 . S
C1715 H1718 0.929 . S
C1716 C1715 1.363 . S
C1716 C1722 1.428 1_565 S
H1717 C1713 0.930 . S
H1718 C1715 0.929 . S
S1719 N1720 1.613 . S
S1719 N1721 1.610 . S
N1720 S1719 1.613 . S
N1720 C1723 1.350 . S
N1721 S1719 1.610 . S
N1721 C1722 1.351 . S
C1722 C1716 1.428 1_545 S
C1722 N1721 1.351 . S
C1722 C1723 1.434 . S
C1723 C1714 1.429 . S
C1723 N1720 1.350 . S
C1723 C1722 1.434 . S
C1724 C1725 1.369 . S
C1724 C1726 1.419 1_554 S
C1724 H1728 0.930 . S
C1725 C1724 1.369 . S
C1725 C1734 1.429 . S
C1726 C1724 1.419 1_556 S
C1726 C1727 1.363 . S
C1726 H1729 0.929 . S
C1727 C1726 1.363 . S
C1727 C1733 1.428 . S
H1728 C1724 0.930 . S
H1729 C1726 0.929 . S
S1730 N1731 1.613 1_556 S
S1730 N1732 1.610 . S
N1731 S1730 1.613 1_554 S
N1731 C1734 1.350 . S
N1732 S1730 1.610 . S
N1732 C1733 1.351 . S
C1733 C1727 1.428 . S
C1733 N1732 1.351 . S
C1733 C1734 1.434 1_556 S
C1734 C1725 1.429 . S
C1734 N1731 1.350 . S
C1734 C1733 1.434 1_554 S
C1735 C1736 1.369 1_655 S
C1735 C1737 1.419 . S
C1735 H1739 0.930 . S
C1736 C1735 1.369 1_455 S
C1736 C1745 1.429 . S
C1737 C1735 1.419 . S
C1737 C1738 1.363 . S
C1737 H1740 0.929 . S
C1738 C1737 1.363 . S
C1738 C1744 1.428 1_655 S
H1739 C1735 0.930 . S
H1740 C1737 0.929 . S
S1741 N1742 1.613 . S
S1741 N1743 1.610 . S
N1742 S1741 1.613 . S
N1742 C1745 1.350 . S
N1743 S1741 1.610 . S
N1743 C1744 1.351 . S
C1744 C1738 1.428 1_455 S
C1744 N1743 1.351 . S
C1744 C1745 1.434 . S
C1745 C1736 1.429 . S
C1745 N1742 1.350 . S
C1745 C1744 1.434 . S
C1746 C1747 1.369 1_545 S
C1746 C1748 1.419 1_556 S
C1746 H1750 0.930 . S
C1747 C1746 1.369 1_565 S
C1747 C1756 1.429 . S
C1748 C1746 1.419 1_554 S
C1748 C1749 1.363 . S
C1748 H1751 0.929 . S
C1749 C1748 1.363 . S
C1749 C1755 1.428 1_545 S
H1750 C1746 0.930 . S
H1751 C1748 0.929 . S
S1752 N1753 1.613 1_554 S
S1752 N1754 1.610 . S
N1753 S1752 1.613 1_556 S
N1753 C1756 1.350 . S
N1754 S1752 1.610 . S
N1754 C1755 1.351 . S
C1755 C1749 1.428 1_565 S
C1755 N1754 1.351 . S
C1755 C1756 1.434 1_554 S
C1756 C1747 1.429 . S
C1756 N1753 1.350 . S
C1756 C1755 1.434 1_556 S
C1757 C1758 1.369 . S
C1757 C1759 1.419 . S
C1757 H1761 0.930 . S
C1758 C1757 1.369 . S
C1758 C1767 1.429 . S
C1759 C1757 1.419 . S
C1759 C1760 1.363 . S
C1759 H1762 0.929 . S
C1760 C1759 1.363 . S
C1760 C1766 1.428 . S
H1761 C1757 0.930 . S
H1762 C1759 0.929 . S
S1763 N1764 1.613 . S
S1763 N1765 1.610 . S
N1764 S1763 1.613 . S
N1764 C1767 1.350 . S
N1765 S1763 1.610 . S
N1765 C1766 1.351 . S
C1766 C1760 1.428 . S
C1766 N1765 1.351 . S
C1766 C1767 1.434 . S
C1767 C1758 1.429 . S
C1767 N1764 1.350 . S
C1767 C1766 1.434 . S
C1768 C1769 1.369 1_455 S
C1768 C1770 1.419 1_554 S
C1768 H1772 0.930 . S
C1769 C1768 1.369 1_655 S
C1769 C1778 1.429 . S
C1770 C1768 1.419 1_556 S
C1770 C1771 1.363 . S
C1770 H1773 0.929 . S
C1771 C1770 1.363 . S
C1771 C1777 1.428 1_455 S
H1772 C1768 0.930 . S
H1773 C1770 0.929 . S
S1774 N1775 1.613 1_556 S
S1774 N1776 1.610 . S
N1775 S1774 1.613 1_554 S
N1775 C1778 1.350 . S
N1776 S1774 1.610 . S
N1776 C1777 1.351 . S
C1777 C1771 1.428 1_655 S
C1777 N1776 1.351 . S
C1777 C1778 1.434 1_556 S
C1778 C1769 1.429 . S
C1778 N1775 1.350 . S
C1778 C1777 1.434 1_554 S
C1779 C1780 1.369 . S
C1779 C1781 1.419 . S
C1779 H1783 0.930 . S
C1780 C1779 1.369 . S
C1780 C1789 1.429 1_565 S
C1781 C1779 1.419 . S
C1781 C1782 1.363 1_565 S
C1781 H1784 0.929 . S
C1782 C1781 1.363 1_545 S
C1782 C1788 1.428 . S
H1783 C1779 0.930 . S
H1784 C1781 0.929 . S
S1785 N1786 1.613 . S
S1785 N1787 1.610 . S
N1786 S1785 1.613 . S
N1786 C1789 1.350 . S
N1787 S1785 1.610 . S
N1787 C1788 1.351 . S
C1788 C1782 1.428 . S
C1788 N1787 1.351 . S
C1788 C1789 1.434 . S
C1789 C1780 1.429 1_545 S
C1789 N1786 1.350 . S
C1789 C1788 1.434 . S
C1790 C1791 1.369 . S
C1790 C1792 1.419 1_554 S
C1790 H1794 0.930 . S
C1791 C1790 1.369 . S
C1791 C1800 1.429 . S
C1792 C1790 1.419 1_556 S
C1792 C1793 1.363 . S
C1792 H1795 0.929 . S
C1793 C1792 1.363 . S
C1793 C1799 1.428 . S
H1794 C1790 0.930 . S
H1795 C1792 0.929 . S
S1796 N1797 1.613 . S
S1796 N1798 1.610 1_554 S
N1797 S1796 1.613 . S
N1797 C1800 1.350 . S
N1798 S1796 1.610 1_556 S
N1798 C1799 1.351 . S
C1799 C1793 1.428 . S
C1799 N1798 1.351 . S
C1799 C1800 1.434 1_556 S
C1800 C1791 1.429 . S
C1800 N1797 1.350 . S
C1800 C1799 1.434 1_554 S
C1801 C1802 1.369 1_655 S
C1801 C1803 1.419 . S
C1801 H1805 0.930 . S
C1802 C1801 1.369 1_455 S
C1802 C1811 1.429 . S
C1803 C1801 1.419 . S
C1803 C1804 1.363 . S
C1803 H1806 0.929 . S
C1804 C1803 1.363 . S
C1804 C1810 1.428 1_655 S
H1805 C1801 0.930 . S
H1806 C1803 0.929 . S
S1807 N1808 1.613 . S
S1807 N1809 1.610 . S
N1808 S1807 1.613 . S
N1808 C1811 1.350 . S
N1809 S1807 1.610 . S
N1809 C1810 1.351 . S
C1810 C1804 1.428 1_455 S
C1810 N1809 1.351 . S
C1810 C1811 1.434 . S
C1811 C1802 1.429 . S
C1811 N1808 1.350 . S
C1811 C1810 1.434 . S
C1812 C1813 1.369 . S
C1812 C1814 1.419 . S
C1812 H1816 0.930 1_545 S
C1813 C1812 1.369 . S
C1813 C1822 1.429 . S
C1814 C1812 1.419 . S
C1814 C1815 1.363 . S
C1814 H1817 0.929 1_545 S
C1815 C1814 1.363 . S
C1815 C1821 1.428 . S
H1816 C1812 0.930 1_565 S
H1817 C1814 0.929 1_565 S
S1818 N1819 1.613 . S
S1818 N1820 1.610 . S
N1819 S1818 1.613 . S
N1819 C1822 1.350 . S
N1820 S1818 1.610 . S
N1820 C1821 1.351 . S
C1821 C1815 1.428 . S
C1821 N1820 1.351 . S
C1821 C1822 1.434 . S
C1822 C1813 1.429 . S
C1822 N1819 1.350 . S
C1822 C1821 1.434 . S
C1823 C1824 1.369 . S
C1823 C1825 1.419 . S
C1823 H1827 0.930 . S
C1824 C1823 1.369 . S
C1824 C1833 1.429 . S
C1825 C1823 1.419 . S
C1825 C1826 1.363 . S
C1825 H1828 0.929 . S
C1826 C1825 1.363 . S
C1826 C1832 1.428 . S
H1827 C1823 0.930 . S
H1828 C1825 0.929 . S
S1829 N1830 1.613 . S
S1829 N1831 1.610 . S
N1830 S1829 1.613 . S
N1830 C1833 1.350 . S
N1831 S1829 1.610 . S
N1831 C1832 1.351 . S
C1832 C1826 1.428 . S
C1832 N1831 1.351 . S
C1832 C1833 1.434 . S
C1833 C1824 1.429 . S
C1833 N1830 1.350 . S
C1833 C1832 1.434 . S
C1834 C1835 1.369 . S
C1834 C1836 1.419 . S
C1834 H1838 0.930 . S
C1835 C1834 1.369 . S
C1835 C1844 1.429 . S
C1836 C1834 1.419 . S
C1836 C1837 1.363 . S
C1836 H1839 0.929 . S
C1837 C1836 1.363 . S
C1837 C1843 1.428 . S
H1838 C1834 0.930 . S
H1839 C1836 0.929 . S
S1840 N1841 1.613 . S
S1840 N1842 1.610 . S
N1841 S1840 1.613 . S
N1841 C1844 1.350 1_455 S
N1842 S1840 1.610 . S
N1842 C1843 1.351 1_455 S
C1843 C1837 1.428 . S
C1843 N1842 1.351 1_655 S
C1843 C1844 1.434 . S
C1844 C1835 1.429 . S
C1844 N1841 1.350 1_655 S
C1844 C1843 1.434 . S
C1845 C1846 1.369 . S
C1845 C1847 1.419 . S
C1845 H1849 0.930 1_565 S
C1846 C1845 1.369 . S
C1846 C1855 1.429 . S
C1847 C1845 1.419 . S
C1847 C1848 1.363 . S
C1847 H1850 0.929 1_565 S
C1848 C1847 1.363 . S
C1848 C1854 1.428 . S
H1849 C1845 0.930 1_545 S
H1850 C1847 0.929 1_545 S
S1851 N1852 1.613 . S
S1851 N1853 1.610 . S
N1852 S1851 1.613 . S
N1852 C1855 1.350 . S
N1853 S1851 1.610 . S
N1853 C1854 1.351 . S
C1854 C1848 1.428 . S
C1854 N1853 1.351 . S
C1854 C1855 1.434 . S
C1855 C1846 1.429 . S
C1855 N1852 1.350 . S
C1855 C1854 1.434 . S
C1856 C1857 1.369 . S
C1856 C1858 1.419 . S
C1856 H1860 0.930 . S
C1857 C1856 1.369 . S
C1857 C1866 1.429 . S
C1858 C1856 1.419 . S
C1858 C1859 1.363 . S
C1858 H1861 0.929 . S
C1859 C1858 1.363 . S
C1859 C1865 1.428 . S
H1860 C1856 0.930 . S
H1861 C1858 0.929 . S
S1862 N1863 1.613 . S
S1862 N1864 1.610 . S
N1863 S1862 1.613 . S
N1863 C1866 1.350 . S
N1864 S1862 1.610 . S
N1864 C1865 1.351 . S
C1865 C1859 1.428 . S
C1865 N1864 1.351 . S
C1865 C1866 1.434 . S
C1866 C1857 1.429 . S
C1866 N1863 1.350 . S
C1866 C1865 1.434 . S
C1867 C1868 1.369 . S
C1867 C1869 1.419 . S
C1867 H1871 0.930 . S
C1868 C1867 1.369 . S
C1868 C1877 1.429 . S
C1869 C1867 1.419 . S
C1869 C1870 1.363 . S
C1869 H1872 0.929 . S
C1870 C1869 1.363 . S
C1870 C1876 1.428 . S
H1871 C1867 0.930 . S
H1872 C1869 0.929 . S
S1873 N1874 1.613 . S
S1873 N1875 1.610 . S
N1874 S1873 1.613 . S
N1874 C1877 1.350 1_655 S
N1875 S1873 1.610 . S
N1875 C1876 1.351 1_655 S
C1876 C1870 1.428 . S
C1876 N1875 1.351 1_455 S
C1876 C1877 1.434 . S
C1877 C1868 1.429 . S
C1877 N1874 1.350 1_455 S
C1877 C1876 1.434 . S
C1878 C1879 1.369 . S
C1878 C1880 1.419 . S
C1878 H1882 0.930 . S
C1879 C1878 1.369 . S
C1879 C1888 1.429 . S
C1880 C1878 1.419 . S
C1880 C1881 1.363 . S
C1880 H1883 0.929 . S
C1881 C1880 1.363 . S
C1881 C1887 1.428 . S
H1882 C1878 0.930 . S
H1883 C1880 0.929 . S
S1884 N1885 1.613 . S
S1884 N1886 1.610 . S
N1885 S1884 1.613 . S
N1885 C1888 1.350 1_455 S
N1886 S1884 1.610 . S
N1886 C1887 1.351 1_455 S
C1887 C1881 1.428 . S
C1887 N1886 1.351 1_655 S
C1887 C1888 1.434 . S
C1888 C1879 1.429 . S
C1888 N1885 1.350 1_655 S
C1888 C1887 1.434 . S
C1889 C1890 1.369 . S
C1889 C1891 1.419 . S
C1889 H1893 0.930 . S
C1890 C1889 1.369 . S
C1890 C1899 1.429 . S
C1891 C1889 1.419 . S
C1891 C1892 1.363 . S
C1891 H1894 0.929 . S
C1892 C1891 1.363 . S
C1892 C1898 1.428 . S
H1893 C1889 0.930 . S
H1894 C1891 0.929 . S
S1895 N1896 1.613 . S
S1895 N1897 1.610 . S
N1896 S1895 1.613 . S
N1896 C1899 1.350 1_545 S
N1897 S1895 1.610 . S
N1897 C1898 1.351 1_545 S
C1898 C1892 1.428 . S
C1898 N1897 1.351 1_565 S
C1898 C1899 1.434 . S
C1899 C1890 1.429 . S
C1899 N1896 1.350 1_565 S
C1899 C1898 1.434 . S
C1900 C1901 1.369 . S
C1900 C1902 1.419 . S
C1900 H1904 0.930 . S
C1901 C1900 1.369 . S
C1901 C1910 1.429 . S
C1902 C1900 1.419 . S
C1902 C1903 1.363 . S
C1902 H1905 0.929 . S
C1903 C1902 1.363 . S
C1903 C1909 1.428 . S
H1904 C1900 0.930 . S
H1905 C1902 0.929 . S
S1906 N1907 1.613 . S
S1906 N1908 1.610 . S
N1907 S1906 1.613 . S
N1907 C1910 1.350 . S
N1908 S1906 1.610 . S
N1908 C1909 1.351 . S
C1909 C1903 1.428 . S
C1909 N1908 1.351 . S
C1909 C1910 1.434 . S
C1910 C1901 1.429 . S
C1910 N1907 1.350 . S
C1910 C1909 1.434 . S
C1911 C1912 1.369 . S
C1911 C1913 1.419 . S
C1911 H1915 0.930 . S
C1912 C1911 1.369 . S
C1912 C1921 1.429 . S
C1913 C1911 1.419 . S
C1913 C1914 1.363 . S
C1913 H1916 0.929 . S
C1914 C1913 1.363 . S
C1914 C1920 1.428 . S
H1915 C1911 0.930 . S
H1916 C1913 0.929 . S
S1917 N1918 1.613 . S
S1917 N1919 1.610 . S
N1918 S1917 1.613 . S
N1918 C1921 1.350 . S
N1919 S1917 1.610 . S
N1919 C1920 1.351 . S
C1920 C1914 1.428 . S
C1920 N1919 1.351 . S
C1920 C1921 1.434 . S
C1921 C1912 1.429 . S
C1921 N1918 1.350 . S
C1921 C1920 1.434 . S
C1922 C1923 1.369 . S
C1922 C1924 1.419 . S
C1922 H1926 0.930 1_545 S
C1923 C1922 1.369 . S
C1923 C1932 1.429 . S
C1924 C1922 1.419 . S
C1924 C1925 1.363 . S
C1924 H1927 0.929 1_545 S
C1925 C1924 1.363 . S
C1925 C1931 1.428 . S
H1926 C1922 0.930 1_565 S
H1927 C1924 0.929 1_565 S
S1928 N1929 1.613 . S
S1928 N1930 1.610 . S
N1929 S1928 1.613 . S
N1929 C1932 1.350 . S
N1930 S1928 1.610 . S
N1930 C1931 1.351 . S
C1931 C1925 1.428 . S
C1931 N1930 1.351 . S
C1931 C1932 1.434 . S
C1932 C1923 1.429 . S
C1932 N1929 1.350 . S
C1932 C1931 1.434 . S
C1933 C1934 1.369 . S
C1933 C1935 1.419 . S
C1933 H1937 0.930 . S
C1934 C1933 1.369 . S
C1934 C1943 1.429 . S
C1935 C1933 1.419 . S
C1935 C1936 1.363 . S
C1935 H1938 0.929 . S
C1936 C1935 1.363 . S
C1936 C1942 1.428 . S
H1937 C1933 0.930 . S
H1938 C1935 0.929 . S
S1939 N1940 1.613 . S
S1939 N1941 1.610 . S
N1940 S1939 1.613 . S
N1940 C1943 1.350 . S
N1941 S1939 1.610 . S
N1941 C1942 1.351 . S
C1942 C1936 1.428 . S
C1942 N1941 1.351 . S
C1942 C1943 1.434 . S
C1943 C1934 1.429 . S
C1943 N1940 1.350 . S
C1943 C1942 1.434 . S
C1417 C937 1.358 . S
C1419 C52 1.357 . S
C1428 C111 1.358 . S
C1430 C996 1.357 . S
C1439 C170 1.356 . S
C1441 C1055 1.356 . S
C1450 C229 1.354 . S
C1452 C760 1.354 . S
C1461 C819 1.354 . S
C1463 C288 1.355 . S
C1472 C347 1.355 . S
C1474 C878 1.355 . S
C1483 C1291 1.354 . S
C1485 C406 1.354 . S
C1494 C465 1.354 . S
C1496 C1350 1.354 . S
C1505 C524 1.357 . S
C1507 C1409 1.357 . S
C1516 C1114 1.356 . S
C1518 C583 1.356 . S
C1527 C642 1.358 . S
C1529 C1173 1.358 . S
C1538 C1232 1.354 . S
C1540 C701 1.354 . S
C1549 C3 1.685 . S
C1551 C1360 1.685 . S
C1560 C1065 1.685 . S
C1562 C62 1.684 . S
C1571 C121 1.682 . S
C1573 C1124 1.682 . S
C1582 C1183 1.683 . S
C1584 C180 1.683 . S
C1593 C239 1.682 . S
C1595 C1242 1.682 . S
C1604 C1301 1.683 . S
C1606 C298 1.683 . S
C1615 C357 1.681 . S
C1617 C770 1.681 . S
C1626 C829 1.681 . S
C1628 C416 1.681 . S
C1637 C888 1.682 . S
C1639 C475 1.682 . S
C1648 C947 1.685 . S
C1650 C534 1.685 . S
C1659 C593 1.685 . S
C1661 C1006 1.684 . S
C1670 C652 1.681 . S
C1672 C711 1.681 . S
C1681 C418 1.464 . S
C1683 C5 1.458 . S
C1692 C477 1.461 . S
C1694 C64 1.458 . S
C1703 C536 1.460 . S
C1705 C123 1.458 . S
C1714 C595 1.456 . S
C1716 C182 1.462 . S
C1725 C241 1.462 . S
C1727 C654 1.462 . S
C1736 C300 1.461 . S
C1738 C359 1.463 . S
C1747 C713 1.458 . S
C1749 C1126 1.460 . S
C1758 C772 1.458 . S
C1760 C1185 1.464 . S
C1769 C1244 1.457 . S
C1771 C831 1.461 . S
C1780 C1303 1.462 . S
C1782 C890 1.457 . S
C1791 C1362 1.464 . S
C1793 C949 1.458 . S
C1802 C1067 1.457 . S
C1804 C1008 1.461 . S
C1813 C33 1.774 . S
C1815 C1154 1.775 . S
C1824 C1213 1.776 . S
C1826 C92 1.776 . S
C1835 C151 1.776 . S
C1837 C1272 1.776 . S
C1846 C1331 1.775 . S
C1848 C210 1.775 . S
C1857 C269 1.776 . S
C1859 C1390 1.776 . S
C1868 C1095 1.776 . S
C1870 C328 1.776 . S
C1879 C387 1.776 . S
C1881 C1036 1.776 . S
C1890 C741 1.776 . S
C1892 C446 1.776 . S
C1901 C505 1.776 . S
C1903 C800 1.776 . S
C1912 C564 1.775 . S
C1914 C859 1.775 . S
C1923 C623 1.775 . S
C1925 C918 1.775 . S
C1934 C682 1.775 . S
C1936 C977 1.775 . S
