# Generated by pormake.
# Topology can, (4)-cn, num edge types: 1
# Building blocks:
#     Node 0, Type 0, BuildingBlock: NAHDIM_clean_sbu_0, # of connection points: 4
#     Node 1, Type 0, BuildingBlock: NAHDIM_clean_sbu_0, # of connection points: 4
#     Node 2, Type 0, BuildingBlock: NAHDIM_clean_sbu_0, # of connection points: 4
#     Node 3, Type 0, BuildingBlock: NAHDIM_clean_sbu_0, # of connection points: 4
#     Node 4, Type 0, BuildingBlock: NAHDIM_clean_sbu_0, # of connection points: 4
#     Node 5, Type 0, BuildingBlock: NAHDIM_clean_sbu_0, # of connection points: 4
#     Node 6, Type 0, BuildingBlock: NAHDIM_clean_sbu_0, # of connection points: 4
#     Node 7, Type 0, BuildingBlock: NAHDIM_clean_sbu_0, # of connection points: 4
#     Node 8, Type 0, BuildingBlock: NAHDIM_clean_sbu_0, # of connection points: 4
#     Node 9, Type 0, BuildingBlock: NAHDIM_clean_sbu_0, # of connection points: 4
#     Node 10, Type 0, BuildingBlock: NAHDIM_clean_sbu_0, # of connection points: 4
#     Node 11, Type 0, BuildingBlock: NAHDIM_clean_sbu_0, # of connection points: 4
#     Edge 12, Type (0, 0), BuildingBlock: TEMPAE_clean_linker_10, # of connection points: 2
#     Edge 13, Type (0, 0), BuildingBlock: TEMPAE_clean_linker_10, # of connection points: 2
#     Edge 14, Type (0, 0), BuildingBlock: TEMPAE_clean_linker_10, # of connection points: 2
#     Edge 15, Type (0, 0), BuildingBlock: TEMPAE_clean_linker_10, # of connection points: 2
#     Edge 16, Type (0, 0), BuildingBlock: TEMPAE_clean_linker_10, # of connection points: 2
#     Edge 17, Type (0, 0), BuildingBlock: TEMPAE_clean_linker_10, # of connection points: 2
#     Edge 18, Type (0, 0), BuildingBlock: TEMPAE_clean_linker_10, # of connection points: 2
#     Edge 19, Type (0, 0), BuildingBlock: TEMPAE_clean_linker_10, # of connection points: 2
#     Edge 20, Type (0, 0), BuildingBlock: TEMPAE_clean_linker_10, # of connection points: 2
#     Edge 21, Type (0, 0), BuildingBlock: TEMPAE_clean_linker_10, # of connection points: 2
#     Edge 22, Type (0, 0), BuildingBlock: TEMPAE_clean_linker_10, # of connection points: 2
#     Edge 23, Type (0, 0), BuildingBlock: TEMPAE_clean_linker_10, # of connection points: 2
#     Edge 24, Type (0, 0), BuildingBlock: TEMPAE_clean_linker_10, # of connection points: 2
#     Edge 25, Type (0, 0), BuildingBlock: TEMPAE_clean_linker_10, # of connection points: 2
#     Edge 26, Type (0, 0), BuildingBlock: TEMPAE_clean_linker_10, # of connection points: 2
#     Edge 27, Type (0, 0), BuildingBlock: TEMPAE_clean_linker_10, # of connection points: 2
#     Edge 28, Type (0, 0), BuildingBlock: TEMPAE_clean_linker_10, # of connection points: 2
#     Edge 29, Type (0, 0), BuildingBlock: TEMPAE_clean_linker_10, # of connection points: 2
#     Edge 30, Type (0, 0), BuildingBlock: TEMPAE_clean_linker_10, # of connection points: 2
#     Edge 31, Type (0, 0), BuildingBlock: TEMPAE_clean_linker_10, # of connection points: 2
#     Edge 32, Type (0, 0), BuildingBlock: TEMPAE_clean_linker_10, # of connection points: 2
#     Edge 33, Type (0, 0), BuildingBlock: TEMPAE_clean_linker_10, # of connection points: 2
#     Edge 34, Type (0, 0), BuildingBlock: TEMPAE_clean_linker_10, # of connection points: 2
#     Edge 35, Type (0, 0), BuildingBlock: TEMPAE_clean_linker_10, # of connection points: 2
# Relax obj value: 0.093
# Max RMSD: 0.085
# Mean RMSD: 0.085
data_MOF--net-can--node1-NAHDIM_clean_sbu_0--edge1-TEMPAE_clean_linker_10
_symmetry_space_group_name_H-M    P1
_symmetry_Int_Tables_number       1
_symmetry_cell_setting            triclinic
loop_
_symmetry_equiv_pos_as_xyz
'x, y, z'
_cell_length_a     60.452519
_cell_length_b     60.509371
_cell_length_c     25.581252
_cell_angle_alpha  90.003888
_cell_angle_beta   90.00168
_cell_angle_gamma 119.97365
loop_
_atom_site_label
_atom_site_type_symbol
_atom_site_fract_x
_atom_site_fract_y
_atom_site_fract_z
_atom_type_partial_charge
C0 C 0.11261 0.39 0.27308 0.0
O1 O 0.09239 0.37204 0.29712 0.0
O2 O 0.05682 0.39256 0.20257 0.0
Zn3 Zn 0.08059 0.41196 0.26183 0.0
O4 O 0.06364 0.39774 0.33076 0.0
C5 C 0.09801 0.46213 0.2177 0.0
O6 O 0.10178 0.45207 0.1755 0.0
O7 O 0.11205 0.40927 0.25503 0.0
C8 C 0.04585 0.40177 0.34513 0.0
O9 O 0.03892 0.41448 0.31395 0.0
C10 C 0.04255 0.39992 0.18159 0.0
O11 O 0.04252 0.42014 0.20018 0.0
O12 O 0.08982 0.44872 0.25891 0.0
C13 C 0.71536 0.10699 0.73041 0.0
O14 O 0.7141 0.0858 0.71409 0.0
O15 O 0.66021 0.05804 0.66476 0.0
Zn16 Zn 0.66142 0.07484 0.73325 0.0
O17 O 0.65774 0.05259 0.79446 0.0
C18 C 0.61327 0.07076 0.7066 0.0
O19 O 0.61301 0.05464 0.67188 0.0
O20 O 0.69484 0.10709 0.74045 0.0
C21 C 0.63628 0.03322 0.80513 0.0
O22 O 0.61695 0.0269 0.77334 0.0
C23 C 0.66322 0.03887 0.6589 0.0
O24 O 0.66817 0.02897 0.69987 0.0
O25 O 0.6325 0.08236 0.73658 0.0
C26 C 0.59324 0.71421 0.23249 0.0
O27 O 0.60737 0.71111 0.19751 0.0
O28 O 0.59707 0.66045 0.19801 0.0
Zn29 Zn 0.5807 0.66351 0.26381 0.0
O30 O 0.5989 0.66187 0.32785 0.0
C31 C 0.53134 0.62554 0.2255 0.0
O32 O 0.54054 0.63728 0.1808 0.0
O33 O 0.58012 0.6963 0.26446 0.0
C34 C 0.5956 0.64033 0.34213 0.0
O35 O 0.58163 0.62024 0.31282 0.0
C36 C 0.61925 0.66316 0.19464 0.0
O37 O 0.63336 0.66834 0.23688 0.0
O38 O 0.5449 0.63396 0.26647 0.0
C39 C 0.87277 0.59273 0.73203 0.0
O40 O 0.89392 0.61019 0.75429 0.0
O41 O 0.92213 0.58676 0.63732 0.0
Zn42 Zn 0.90439 0.57172 0.70521 0.0
O43 O 0.92663 0.59015 0.76689 0.0
C44 C 0.90709 0.52645 0.68315 0.0
O45 O 0.9242 0.54162 0.64902 0.0
O46 O 0.87263 0.57417 0.70849 0.0
C47 C 0.94391 0.58556 0.78226 0.0
O48 O 0.94824 0.56959 0.75544 0.0
C49 C 0.9399 0.60974 0.6321 0.0
O50 O 0.94754 0.6249 0.67299 0.0
O51 O 0.89539 0.53495 0.71045 0.0
C52 C 0.26255 0.87411 0.25726 0.0
O53 O 0.2619 0.89525 0.26484 0.0
O54 O 0.31373 0.92626 0.17278 0.0
Zn55 Zn 0.31519 0.90942 0.23927 0.0
O56 O 0.31845 0.93016 0.30292 0.0
C57 C 0.36433 0.917 0.20704 0.0
O58 O 0.36328 0.93298 0.17375 0.0
O59 O 0.28362 0.87549 0.24557 0.0
C60 C 0.3393 0.95057 0.31204 0.0
O61 O 0.35779 0.95867 0.27742 0.0
C62 C 0.31097 0.94569 0.16969 0.0
O63 O 0.30819 0.95595 0.21265 0.0
O64 O 0.3457 0.90446 0.23794 0.0
C65 C 0.38688 0.26887 0.76226 0.0
O66 O 0.36521 0.26861 0.76921 0.0
O67 O 0.38722 0.32039 0.67483 0.0
Zn68 Zn 0.40481 0.32142 0.74222 0.0
O69 O 0.38636 0.32446 0.80469 0.0
C70 C 0.44848 0.36933 0.70938 0.0
O71 O 0.43323 0.36789 0.67132 0.0
O72 O 0.40667 0.28962 0.74964 0.0
C73 C 0.39127 0.34637 0.8204 0.0
O74 O 0.40737 0.36662 0.79363 0.0
C75 C 0.36707 0.32197 0.67221 0.0
O76 O 0.35636 0.32367 0.71554 0.0
O77 O 0.44055 0.35145 0.74283 0.0
C78 C 0.59268 0.88008 0.25359 0.0
O79 O 0.61268 0.90062 0.27191 0.0
O80 O 0.5909 0.93385 0.30458 0.0
Zn81 Zn 0.57458 0.91508 0.23804 0.0
O82 O 0.59346 0.93481 0.17447 0.0
C83 C 0.53238 0.92317 0.25853 0.0
O84 O 0.54932 0.94136 0.28862 0.0
O85 O 0.57366 0.88158 0.23713 0.0
C86 C 0.5953 0.95621 0.16429 0.0
O87 O 0.58611 0.96603 0.19778 0.0
C88 C 0.61417 0.95097 0.30981 0.0
O89 O 0.62961 0.9574 0.26944 0.0
O90 O 0.53874 0.90904 0.23355 0.0
C91 C 0.70992 0.59945 0.74725 0.0
O92 O 0.70779 0.61764 0.72395 0.0
O93 O 0.65284 0.59481 0.83618 0.0
Zn94 Zn 0.65698 0.58043 0.76881 0.0
O95 O 0.65538 0.59973 0.70656 0.0
C96 C 0.6066 0.53773 0.78017 0.0
O97 O 0.60346 0.55466 0.80627 0.0
O98 O 0.69051 0.58135 0.76942 0.0
C99 C 0.63804 0.60554 0.70092 0.0
O100 O 0.62127 0.6001 0.73849 0.0
C101 C 0.66472 0.61837 0.84772 0.0
O102 O 0.68065 0.63495 0.81371 0.0
O103 O 0.62843 0.54421 0.76121 0.0
C104 C 0.10567 0.7 0.25853 0.0
O105 O 0.0975 0.68577 0.30073 0.0
O106 O 0.04395 0.64746 0.27483 0.0
Zn107 Zn 0.06563 0.65508 0.21071 0.0
O108 O 0.0461 0.65112 0.14458 0.0
C109 C 0.06265 0.60699 0.21068 0.0
O110 O 0.03834 0.59995 0.2147 0.0
O111 O 0.09485 0.69075 0.21505 0.0
C112 C 0.0222 0.63623 0.13991 0.0
O113 O 0.00884 0.62329 0.18076 0.0
C114 C 0.03163 0.65869 0.28659 0.0
O115 O 0.0319 0.67575 0.25443 0.0
O116 O 0.07897 0.63064 0.20838 0.0
C117 C 0.4003 0.11011 0.79092 0.0
O118 O 0.4042 0.10185 0.83556 0.0
O119 O 0.38459 0.04631 0.8142 0.0
Zn120 Zn 0.401 0.06633 0.74923 0.0
O121 O 0.38342 0.04644 0.68491 0.0
C122 C 0.44566 0.06278 0.77278 0.0
O123 O 0.42954 0.04441 0.80362 0.0
O124 O 0.39866 0.09804 0.74916 0.0
C125 C 0.38473 0.02688 0.67199 0.0
O126 O 0.3967 0.01894 0.70292 0.0
C127 C 0.36105 0.03669 0.82506 0.0
O128 O 0.3459 0.03919 0.79174 0.0
O129 O 0.43786 0.07529 0.74619 0.0
C130 C 0.27598 0.38579 0.23282 0.0
O131 O 0.27808 0.36973 0.20152 0.0
O132 O 0.33685 0.39057 0.31156 0.0
Zn133 Zn 0.32991 0.40567 0.24838 0.0
O134 O 0.3312 0.38859 0.18202 0.0
C135 C 0.3799 0.44805 0.23919 0.0
O136 O 0.385 0.42935 0.2374 0.0
O137 O 0.29564 0.40275 0.25651 0.0
C138 C 0.34323 0.37646 0.17779 0.0
O139 O 0.35478 0.37392 0.21893 0.0
C140 C 0.32224 0.36772 0.32626 0.0
O141 O 0.30197 0.35278 0.29821 0.0
O142 O 0.35684 0.44268 0.2442 0.0
C143 C 0.88137 0.27047 0.7824 0.0
O144 O 0.89757 0.2735 0.81975 0.0
O145 O 0.93279 0.32756 0.83228 0.0
Zn146 Zn 0.91604 0.32409 0.76238 0.0
O147 O 0.93995 0.33029 0.70264 0.0
C148 C 0.91489 0.37035 0.78392 0.0
O149 O 0.93195 0.37347 0.81934 0.0
O150 O 0.88552 0.28936 0.75399 0.0
C151 C 0.95883 0.35246 0.69478 0.0
O152 O 0.9634 0.37076 0.72817 0.0
C153 C 0.95503 0.33064 0.83801 0.0
O154 O 0.96798 0.33071 0.79674 0.0
O155 O 0.9049 0.35025 0.75613 0.0
C156 C 0.02339 0.36293 0.11984 0.0
C157 C 0.02782 0.3872 0.13404 0.0
C158 C 0.01055 0.3513 0.07328 0.0
C159 C 0.00242 0.3645 0.03986 0.0
C160 C 0.00658 0.38887 0.05434 0.0
C161 C 0.01903 0.39982 0.10151 0.0
C162 C 0.00598 0.32508 0.05953 0.0
C163 C -0.00154 0.40367 0.01937 0.0
C164 C -0.00626 0.34977 0.89483 0.0
C165 C 0.96709 0.3368 0.89017 0.0
C166 C 0.00553 0.35831 0.94366 0.0
C167 C 0.99023 0.35331 0.98888 0.0
C168 C 0.9633 0.33911 0.98471 0.0
C169 C 0.95203 0.33123 0.93526 0.0
C170 C 0.03431 0.3737 0.9465 0.0
C171 C 0.9464 0.33297 0.03221 0.0
H172 H 0.03002 0.35304 0.14506 0.0
H173 H 0.02253 0.41864 0.11215 0.0
H174 H 0.9854 0.312 0.05159 0.0
H175 H 0.01655 0.32608 0.02334 0.0
H176 H 0.01216 0.31678 0.09117 0.0
H177 H 0.00294 0.42231 0.03658 0.0
H178 H 0.00824 0.40721 0.98101 0.0
H179 H 0.97763 0.39241 0.01186 0.0
H180 H 0.00545 0.3542 0.86005 0.0
H181 H 0.9314 0.321 0.93184 0.0
H182 H 0.04157 0.36525 0.97553 0.0
H183 H 0.04032 0.39337 0.95975 0.0
H184 H 0.04345 0.37481 0.90817 0.0
H185 H 0.95252 0.32434 0.0632 0.0
H186 H 0.92598 0.31965 0.023 0.0
H187 H 0.94817 0.35079 0.04841 0.0
C188 C 0.64935 0.98152 0.36876 0.0
C189 C 0.62347 0.9636 0.36106 0.0
C190 C 0.65808 -0.00601 0.41702 0.0
C191 C 0.64046 0.98845 0.45827 0.0
C192 C 0.6144 0.97011 0.45094 0.0
C193 C 0.60624 0.95788 0.4025 0.0
C194 C 0.68603 0.01338 0.4236 0.0
C195 C 0.59499 0.96378 0.49393 0.0
C196 C 0.66147 0.00505 0.59958 0.0
C197 C 0.65956 0.02703 0.60665 0.0
C198 C 0.65621 0.99275 0.55085 0.0
C199 C 0.64883 0.00265 0.50841 0.0
C200 C 0.64769 0.02528 0.51489 0.0
C201 C 0.65309 0.0372 0.56388 0.0
C202 C 0.65773 0.9687 0.54524 0.0
C203 C 0.63984 0.0364 0.47057 0.0
H204 H 0.6628 0.98596 0.337 0.0
H205 H 0.5862 0.94405 0.39695 0.0
H206 H 0.68834 0.0325 0.43075 0.0
H207 H 0.69388 0.00855 0.45816 0.0
H208 H 0.69748 0.0145 0.38869 0.0
H209 H 0.57561 0.94843 0.48246 0.0
H210 H 0.60091 0.95764 0.52958 0.0
H211 H 0.59394 0.98103 0.50434 0.0
H212 H 0.66656 -0.00286 0.63236 0.0
H213 H 0.65167 0.05424 0.56887 0.0
H214 H 0.6697 0.97021 0.51106 0.0
H215 H 0.63836 0.95224 0.53812 0.0
H216 H 0.66577 0.96467 0.58064 0.0
H217 H 0.65186 0.03926 0.43566 0.0
H218 H 0.64141 0.05495 0.48113 0.0
H219 H 0.61976 0.02289 0.45939 0.0
C220 C 0.61445 0.657 0.09801 0.0
C221 C 0.62856 0.65972 0.14351 0.0
C222 C 0.62205 0.65225 0.04955 0.0
C223 C 0.64422 0.65002 0.04651 0.0
C224 C 0.65899 0.65349 0.09195 0.0
C225 C 0.65101 0.65838 0.13998 0.0
C226 C 0.60587 0.64881 0.00189 0.0
C227 C 0.6827 0.65116 0.09015 0.0
C228 C 0.64481 0.60855 0.93632 0.0
C229 C 0.66038 0.62676 0.89913 0.0
C230 C 0.63992 0.61594 0.98486 0.0
C231 C 0.65076 0.64219 -0.0035 0.0
C232 C 0.66678 0.66071 0.95953 0.0
C233 C 0.67146 0.65277 0.91122 0.0
C234 C 0.62278 0.5956 0.02335 0.0
C235 C 0.67856 0.68888 0.97061 0.0
H236 H 0.5972 0.65823 0.10028 0.0
H237 H 0.66203 0.66051 0.17496 0.0
H238 H 0.61786 0.66153 0.96989 0.0
H239 H 0.59729 0.6289 0.98751 0.0
H240 H 0.59023 0.6529 0.01017 0.0
H241 H 0.69307 0.65622 0.12805 0.0
H242 H 0.67741 0.63128 0.08011 0.0
H243 H 0.69584 0.6637 0.05922 0.0
H244 H 0.63626 0.58841 0.92746 0.0
H245 H 0.68352 0.66694 0.88271 0.0
H246 H 0.60544 0.59701 0.03075 0.0
H247 H 0.63275 0.59852 0.0613 0.0
H248 H 0.61674 0.57605 0.00913 0.0
H249 H 0.66328 0.69378 0.97564 0.0
H250 H 0.69148 0.70084 0.93874 0.0
H251 H 0.68954 0.69379 0.00768 0.0
C252 C 0.00056 0.66152 0.3472 0.0
C253 C 0.01784 0.65298 0.33695 0.0
C254 C 0.98731 0.65589 0.3949 0.0
C255 C -0.00829 0.64166 0.43327 0.0
C256 C 0.0094 0.63333 0.42338 0.0
C257 C 0.02214 0.63896 0.37527 0.0
C258 C 0.96836 0.66485 0.40397 0.0
C259 C 0.01478 0.61829 0.46351 0.0
C260 C 0.97465 0.64262 0.57576 0.0
C261 C 0.95231 0.61886 0.58061 0.0
C262 C 0.98734 0.65068 0.52758 0.0
C263 C 0.9773 0.63466 0.48327 0.0
C264 C 0.9543 0.61105 0.48757 0.0
C265 C 0.94215 0.60339 0.53622 0.0
C266 C 0.01192 0.67593 0.52448 0.0
C267 C 0.94291 0.59352 0.4411 0.0
H268 H -0.00286 0.67233 0.31771 0.0
H269 H 0.03562 0.63246 0.36784 0.0
H270 H 0.94903 0.64816 0.41011 0.0
H271 H 0.97344 0.67666 0.4399 0.0
H272 H 0.96755 0.6762 0.37065 0.0
H273 H 0.02976 0.614 0.4504 0.0
H274 H 0.02102 0.62906 0.5008 0.0
H275 H -0.00292 0.6 0.47178 0.0
H276 H 0.9826 0.65469 0.60987 0.0
H277 H 0.92478 0.58508 0.53953 0.0
H278 H 0.01087 0.68774 0.49246 0.0
H279 H 0.02797 0.67261 0.51531 0.0
H280 H 0.0163 0.68686 0.56159 0.0
H281 H 0.9407 0.604 0.40779 0.0
H282 H 0.92399 0.5767 0.45011 0.0
H283 H 0.95595 0.58664 0.42823 0.0
C284 C 0.36823 0.02339 0.91276 0.0
C285 C 0.35119 0.02328 0.87539 0.0
C286 C 0.35946 0.01074 0.96059 0.0
C287 C 0.33295 -0.00253 0.97133 0.0
C288 C 0.31561 -0.00259 0.93406 0.0
C289 C 0.32495 0.0104 0.88648 0.0
C290 C 0.37859 0.01133 -0.00056 0.0
C291 C 0.28721 0.98332 0.94416 0.0
C292 C 0.31397 0.94544 0.07242 0.0
C293 C 0.31332 0.95784 0.11825 0.0
C294 C 0.31898 0.95768 0.0238 0.0
C295 C 0.32361 0.98299 0.02097 0.0
C296 C 0.32176 -0.00481 0.06666 0.0
C297 C 0.31655 0.98241 0.11483 0.0
C298 C 0.32058 0.94395 0.97589 0.0
C299 C 0.32662 0.0222 0.06512 0.0
H300 H 0.38855 0.03341 0.90468 0.0
H301 H 0.31168 0.01024 0.8578 0.0
H302 H 0.37655 0.01897 0.03744 0.0
H303 H 0.37487 0.99168 0.00654 0.0
H304 H 0.3986 0.02321 0.98574 0.0
H305 H 0.27634 0.98583 0.91193 0.0
H306 H 0.28027 0.96265 0.94892 0.0
H307 H 0.283 0.9901 0.98111 0.0
H308 H 0.31123 0.92634 0.07464 0.0
H309 H 0.316 0.99209 0.15004 0.0
H310 H 0.34065 0.95321 0.96208 0.0
H311 H 0.30897 0.94519 0.94367 0.0
H312 H 0.31393 0.92351 0.98374 0.0
H313 H 0.34708 0.03548 0.05641 0.0
H314 H 0.32184 0.02797 0.10277 0.0
H315 H 0.31531 0.02438 0.03349 0.0
C316 C 0.31246 0.3331 0.3915 0.0
C317 C 0.3276 0.35857 0.37568 0.0
C318 C 0.31712 0.32456 0.43908 0.0
C319 C 0.33728 0.34199 0.47158 0.0
C320 C 0.35269 0.36767 0.45565 0.0
C321 C 0.34773 0.37561 0.40786 0.0
C322 C 0.30046 0.29699 0.4547 0.0
C323 C 0.37434 0.38685 0.48934 0.0
C324 C 0.33837 0.33114 0.61727 0.0
C325 C 0.35728 0.32424 0.62068 0.0
C326 C 0.33086 0.33596 0.56867 0.0
C327 C 0.34244 0.33363 0.52247 0.0
C328 C 0.36061 0.32545 0.52549 0.0
C329 C 0.36789 0.32094 0.57459 0.0
C330 C 0.31146 0.34472 0.56697 0.0
C331 C 0.3732 0.32254 0.47703 0.0
H332 H 0.29691 0.31981 0.36678 0.0
H333 H 0.35951 0.39534 0.39602 0.0
H334 H 0.31241 0.28807 0.46135 0.0
H335 H 0.2906 0.29579 0.49205 0.0
H336 H 0.28586 0.28577 0.42461 0.0
H337 H 0.38448 0.40612 0.47129 0.0
H338 H 0.36689 0.38836 0.52801 0.0
H339 H 0.38834 0.38041 0.49632 0.0
H340 H 0.33003 0.33366 0.65268 0.0
H341 H 0.38236 0.31539 0.57686 0.0
H342 H 0.29607 0.33308 0.53869 0.0
H343 H 0.3208 0.36481 0.55339 0.0
H344 H 0.30271 0.3435 0.60582 0.0
H345 H 0.35858 0.31075 0.44749 0.0
H346 H 0.38501 0.31362 0.48561 0.0
H347 H 0.38565 0.34155 0.45929 0.0
C348 C 0.97268 0.58736 0.85424 0.0
C349 C 0.95708 0.59602 0.83258 0.0
C350 C 0.98353 0.59541 0.90396 0.0
C351 C 0.97881 0.61268 0.9325 0.0
C352 C 0.96373 0.62211 0.91023 0.0
C353 C 0.95297 0.61361 0.86055 0.0
C354 C -0.00051 0.58489 0.92653 0.0
C355 C 0.95852 0.64075 0.93934 0.0
C356 C 0.98529 0.61142 0.07978 0.0
C357 C 0.01017 0.63171 0.08771 0.0
C358 C 0.9746 0.6054 0.02953 0.0
C359 C 0.98907 0.62018 0.98632 0.0
C360 C 0.0138 0.64129 0.99433 0.0
C361 C 0.0241 0.64675 0.04493 0.0
C362 C 0.94816 0.58269 0.02244 0.0
C363 C 0.02968 0.65764 0.94926 0.0
H364 H 0.97593 0.57376 0.83293 0.0
H365 H 0.941 0.62047 0.84397 0.0
H366 H 0.01865 0.60073 0.93754 0.0
H367 H 0.99036 0.57395 0.96265 0.0
H368 H 0.00191 0.57216 0.8987 0.0
H369 H 0.94755 0.6473 0.91542 0.0
H370 H 0.94753 0.63168 0.97543 0.0
H371 H 0.97675 0.65765 0.95149 0.0
H372 H 0.97441 0.5997 0.11262 0.0
H373 H 0.04328 0.66258 0.05078 0.0
H374 H 0.94925 0.56801 -0.00165 0.0
H375 H 0.93581 0.58842 0.00125 0.0
H376 H 0.93895 0.57393 0.0603 0.0
H377 H 0.0344 0.64612 0.9226 0.0
H378 H 0.04778 0.67443 0.96253 0.0
H379 H 0.0187 0.66446 0.92624 0.0
C380 C 0.32474 0.9532 0.40218 0.0
C381 C 0.34369 0.96332 0.36341 0.0
C382 C 0.32959 0.96352 0.45277 0.0
C383 C 0.35393 0.98444 0.46478 0.0
C384 C 0.3728 -0.00465 0.42532 0.0
C385 C 0.36745 0.98465 0.37508 0.0
C386 C 0.30896 0.95148 0.49382 0.0
C387 C 0.39896 0.01779 0.43663 0.0
C388 C 0.36367 0.02429 0.58623 0.0
C389 C 0.37502 0.01472 0.6205 0.0
C390 C 0.3562 0.01427 0.53572 0.0
C391 C 0.36016 -0.0058 0.51917 0.0
C392 C 0.37093 0.98399 0.55403 0.0
C393 C 0.37823 -0.00563 0.60431 0.0
C394 C 0.3447 0.02559 0.49963 0.0
C395 C 0.37536 0.96251 0.53776 0.0
H396 H 0.30629 0.93676 0.39345 0.0
H397 H 0.38216 0.99264 0.34531 0.0
H398 H 0.31506 0.94285 0.52485 0.0
H399 H 0.30582 0.96619 0.5127 0.0
H400 H 0.29054 0.93641 0.47732 0.0
H401 H 0.41099 0.0249 0.40096 0.0
H402 H 0.39722 0.03365 0.45398 0.0
H403 H 0.4089 0.01217 0.46563 0.0
H404 H 0.36106 0.03999 0.59846 0.0
H405 H 0.38692 0.98683 0.63056 0.0
H406 H 0.32611 0.01038 0.48427 0.0
H407 H 0.35745 0.03455 0.46555 0.0
H408 H 0.34168 0.04022 0.51938 0.0
H409 H 0.35725 0.946 0.52382 0.0
H410 H 0.38299 0.95605 0.57019 0.0
H411 H 0.3891 0.96881 0.50476 0.0
C412 C 0.3621 0.32768 0.89727 0.0
C413 C 0.38086 0.34919 0.87064 0.0
C414 C 0.35349 0.33001 0.94681 0.0
C415 C 0.36411 0.35437 0.97034 0.0
C416 C 0.3826 0.3762 0.94313 0.0
C417 C 0.39065 0.37335 0.89347 0.0
C418 C 0.33347 0.30637 0.97441 0.0
C419 C 0.39446 0.4025 0.96711 0.0
C420 C 0.33212 0.3682 0.08301 0.0
C421 C 0.34656 0.36794 0.12571 0.0
C422 C 0.33687 0.36271 0.03236 0.0
C423 C 0.35671 0.35712 0.02425 0.0
C424 C 0.3707 0.35588 0.06744 0.0
C425 C 0.36535 0.36117 0.11775 0.0
C426 C 0.32131 0.36384 0.98733 0.0
C427 C 0.39209 0.35009 0.06024 0.0
H428 H 0.35435 0.30895 0.8797 0.0
H429 H 0.40516 0.39005 0.87318 0.0
H430 H 0.34171 0.30309 0.01032 0.0
H431 H 0.3173 0.30896 0.98672 0.0
H432 H 0.32595 0.2891 0.94938 0.0
H433 H 0.40813 0.41757 0.94024 0.0
H434 H 0.37938 0.40699 0.97796 0.0
H435 H 0.40474 0.40308 0.0035 0.0
H436 H 0.3174 0.3732 0.08898 0.0
H437 H 0.37658 0.36093 0.15055 0.0
H438 H 0.31377 0.34629 0.96325 0.0
H439 H 0.33365 0.38021 0.96167 0.0
H440 H 0.30504 0.36604 0.00077 0.0
H441 H 0.38524 0.33209 0.03803 0.0
H442 H 0.40009 0.34835 0.0981 0.0
H443 H 0.40768 0.36554 0.03712 0.0
C444 C -0.0048 0.38244 0.63809 0.0
C445 C 0.97397 0.35814 0.64621 0.0
C446 C 0.00821 0.38888 0.59019 0.0
C447 C -0.00033 0.37063 0.54943 0.0
C448 C 0.97887 0.34578 0.55804 0.0
C449 C 0.96631 0.3398 0.60643 0.0
C450 C 0.03051 0.41551 0.58256 0.0
C451 C 0.96918 0.32585 0.51541 0.0
C452 C 0.0129 0.39606 0.41083 0.0
C453 C 0.03371 0.39312 0.39693 0.0
C454 C 0.00155 0.38861 0.46023 0.0
C455 C 0.01134 0.37809 0.49672 0.0
C456 C 0.03224 0.37491 0.48291 0.0
C457 C 0.04315 0.3824 0.43304 0.0
C458 C 0.97915 0.39215 0.47349 0.0
C459 C 0.04322 0.36386 0.52098 0.0
H460 H 0.00134 0.39666 0.66877 0.0
H461 H 0.94995 0.32096 0.61243 0.0
H462 H 0.04728 0.41472 0.56737 0.0
H463 H 0.02547 0.42574 0.5531 0.0
H464 H 0.03605 0.42675 0.61938 0.0
H465 H 0.95399 0.30692 0.52953 0.0
H466 H 0.96135 0.33197 0.48284 0.0
H467 H 0.98507 0.32375 0.49927 0.0
H468 H 0.00546 0.40426 0.3831 0.0
H469 H 0.05927 0.38012 0.42259 0.0
H470 H 0.98394 0.4051 0.50755 0.0
H471 H 0.96244 0.37358 0.48466 0.0
H472 H 0.97358 0.40022 0.44036 0.0
H473 H 0.05008 0.37594 0.55655 0.0
H474 H 0.05936 0.36241 0.50397 0.0
H475 H 0.0282 0.34458 0.53353 0.0
C476 C 0.65277 0.02778 0.89102 0.0
C477 C 0.63241 0.01999 0.85578 0.0
C478 C 0.64881 0.01728 0.94136 0.0
C479 C 0.6239 -0.00143 0.95676 0.0
C480 C 0.60346 0.98993 0.92073 0.0
C481 C 0.60797 0.00072 0.87062 0.0
C482 C 0.67109 0.02684 0.97865 0.0
C483 C 0.57662 0.96992 0.93573 0.0
C484 C 0.61289 0.95674 0.07547 0.0
C485 C 0.60507 0.96841 0.11287 0.0
C486 C 0.61979 0.96675 0.02481 0.0
C487 C 0.61885 0.98894 0.01133 0.0
C488 C 0.61188 0.00132 0.04943 0.0
C489 C 0.60508 0.99091 0.09977 0.0
C490 C 0.62725 0.95311 0.98526 0.0
C491 C 0.61078 0.02512 0.03651 0.0
H492 H 0.67175 0.04259 0.87979 0.0
H493 H 0.59214 -0.00547 0.84361 0.0
H494 H 0.66819 0.037 0.0117 0.0
H495 H 0.67234 0.01058 -0.00461 0.0
H496 H 0.68955 0.04006 0.95944 0.0
H497 H 0.56314 0.96429 0.90231 0.0
H498 H 0.57643 0.95265 0.9509 0.0
H499 H 0.56961 0.97732 0.96752 0.0
H500 H 0.61302 0.93939 0.08531 0.0
H501 H 0.59916 0.0001 0.12847 0.0
H502 H 0.64584 0.96665 0.96704 0.0
H503 H 0.61284 0.94535 0.9535 0.0
H504 H 0.62875 0.93714 0.00294 0.0
H505 H 0.6293 0.03991 0.02006 0.0
H506 H 0.60627 0.03316 0.07126 0.0
H507 H 0.59597 0.02069 0.0063 0.0
C508 C 0.59879 0.61319 0.41186 0.0
C509 C 0.60523 0.63749 0.3934 0.0
C510 C 0.60591 0.6099 0.46214 0.0
C511 C 0.61991 0.63145 0.49462 0.0
C512 C 0.62717 0.65612 0.47568 0.0
C513 C 0.6197 0.65885 0.42527 0.0
C514 C 0.59784 0.58326 0.48098 0.0
C515 C 0.64229 0.67953 0.50911 0.0
C516 C 0.61322 0.61722 0.63989 0.0
C517 C 0.63497 0.61527 0.64999 0.0
C518 C 0.60855 0.62342 0.5898 0.0
C519 C 0.62613 0.62788 0.54901 0.0
C520 C 0.64874 0.62717 0.55956 0.0
C521 C 0.65287 0.62084 0.60994 0.0
C522 C 0.58424 0.62406 0.58001 0.0
C523 C 0.66802 0.63204 0.51714 0.0
H524 H 0.58765 0.5966 0.38749 0.0
H525 H 0.62483 0.67772 0.4112 0.0
H526 H 0.61478 0.58214 0.49383 0.0
H527 H 0.58503 0.57856 0.5153 0.0
H528 H 0.5877 0.56862 0.4503 0.0
H529 H 0.64769 0.69745 0.48752 0.0
H530 H 0.63088 0.67862 0.54384 0.0
H531 H 0.65993 0.68024 0.52362 0.0
H532 H 0.59933 0.61303 0.67064 0.0
H533 H 0.66984 0.61956 0.61751 0.0
H534 H 0.57178 0.60838 0.55298 0.0
H535 H 0.5886 0.64226 0.56094 0.0
H536 H 0.57346 0.62193 0.61661 0.0
H537 H 0.65951 0.61648 0.48778 0.0
H538 H 0.68567 0.63308 0.53277 0.0
H539 H 0.6733 0.65013 0.49647 0.0
C540 C 0.09669 0.59484 0.20912 0.0
C541 C 0.07072 0.5876 0.20934 0.0
C542 C 0.10436 0.57642 0.20902 0.0
C543 C 0.0856 0.55023 0.20896 0.0
C544 C 0.05938 0.54284 0.20845 0.0
C545 C 0.05227 0.5616 0.20875 0.0
C546 C 0.13247 0.58495 0.20973 0.0
C547 C 0.03878 0.51506 0.20823 0.0
C548 C 0.09903 0.49797 0.16707 0.0
C549 C 0.09904 0.48703 0.21538 0.0
C550 C 0.09595 0.51945 0.16437 0.0
C551 C 0.09307 0.5303 0.21111 0.0
C552 C 0.09473 0.52032 0.26003 0.0
C553 C 0.09759 0.49873 0.26157 0.0
C554 C 0.09421 0.52955 0.11147 0.0
C555 C 0.09203 0.53153 0.31076 0.0
H556 H 0.11106 0.6149 0.20956 0.0
H557 H 0.03217 0.55583 0.20871 0.0
H558 H 0.13718 0.57802 0.24588 0.0
H559 H 0.13731 0.57654 0.17617 0.0
H560 H 0.14466 0.60604 0.208 0.0
H561 H 0.01929 0.51254 0.20625 0.0
H562 H 0.04142 0.50515 0.17435 0.0
H563 H 0.04019 0.50556 0.24415 0.0
H564 H 0.10014 0.48903 0.13121 0.0
H565 H 0.09785 0.49051 0.29906 0.0
H566 H 0.10667 0.55057 0.10994 0.0
H567 H 0.07432 0.52526 0.10465 0.0
H568 H 0.0997 0.52092 0.07926 0.0
H569 H 0.10476 0.55253 0.31096 0.0
H570 H 0.09659 0.52339 0.34529 0.0
H571 H 0.07214 0.52768 0.31476 0.0
C572 C 0.48906 0.08642 0.73181 0.0
C573 C 0.47195 0.06739 0.76596 0.0
C574 C 0.51336 0.08963 0.72219 0.0
C575 C 0.52062 0.07336 0.74716 0.0
C576 C 0.50374 0.05465 0.78288 0.0
C577 C 0.47964 0.05193 0.79193 0.0
C578 C 0.53095 0.1099 0.68413 0.0
C579 C 0.51081 0.03692 0.81028 0.0
C580 C 0.56861 0.05901 0.6833 0.0
C581 C 0.59042 0.0734 0.71402 0.0
C582 C 0.54599 0.05945 0.69273 0.0
C583 C 0.54518 0.07472 0.73376 0.0
C584 C 0.56738 0.09003 0.76369 0.0
C585 C 0.58976 0.08916 0.75351 0.0
C586 C 0.52269 0.04287 0.65992 0.0
C587 C 0.56726 0.10668 0.80753 0.0
H588 H 0.48332 0.09853 0.71177 0.0
H589 H 0.46659 0.03724 0.81852 0.0
H590 H 0.54996 0.12208 0.70219 0.0
H591 H 0.53385 0.10076 0.64924 0.0
H592 H 0.52325 0.12226 0.67108 0.0
H593 H 0.49606 0.02428 0.83887 0.0
H594 H 0.51335 0.02483 0.78102 0.0
H595 H 0.52925 0.04808 0.83112 0.0
H596 H 0.56896 0.04686 0.65257 0.0
H597 H 0.60656 0.10042 0.77731 0.0
H598 H 0.51501 0.05449 0.64273 0.0
H599 H 0.50749 0.02812 0.68495 0.0
H600 H 0.52687 0.03315 0.62775 0.0
H601 H 0.5598 0.11904 0.7934 0.0
H602 H 0.58659 0.11895 0.8243 0.0
H603 H 0.55436 0.09452 0.83916 0.0
C604 C 0.49303 0.59017 0.18136 0.0
C605 C 0.50668 0.60131 0.22742 0.0
C606 C 0.471 0.56596 0.18211 0.0
C607 C 0.46245 0.55266 0.23006 0.0
C608 C 0.47553 0.56426 0.27695 0.0
C609 C 0.49749 0.58844 0.27507 0.0
C610 C 0.45749 0.5542 0.13133 0.0
C611 C 0.46692 0.5507 0.32888 0.0
C612 C 0.39576 0.49504 0.2406 0.0
C613 C 0.4008 0.47487 0.23576 0.0
C614 C 0.4156 0.52053 0.23826 0.0
C615 C 0.44101 0.5259 0.23081 0.0
C616 C 0.44616 0.50562 0.2253 0.0
C617 C 0.426 0.48037 0.2279 0.0
C618 C 0.40943 0.54169 0.24435 0.0
C619 C 0.47302 0.5106 0.21717 0.0
H620 H 0.49994 0.60001 0.1444 0.0
H621 H 0.50784 0.59696 0.3109 0.0
H622 H 0.45948 0.53736 0.12207 0.0
H623 H 0.43678 0.54739 0.13495 0.0
H624 H 0.46528 0.56782 0.09814 0.0
H625 H 0.47803 0.56309 0.36215 0.0
H626 H 0.44639 0.54405 0.33532 0.0
H627 H 0.46916 0.53358 0.32878 0.0
H628 H 0.37632 0.49095 0.24663 0.0
H629 H 0.43006 0.46492 0.22393 0.0
H630 H 0.41654 0.5546 0.21003 0.0
H631 H 0.41928 0.55331 0.27933 0.0
H632 H 0.38861 0.53432 0.24849 0.0
H633 H 0.48152 0.52261 0.18195 0.0
H634 H 0.47371 0.4927 0.21241 0.0
H635 H 0.48513 0.52128 0.25103 0.0
C636 C 0.88675 0.48533 0.733 0.0
C637 C 0.90399 0.50107 0.69453 0.0
C638 C 0.88562 0.46246 0.74794 0.0
C639 C 0.9022 0.45529 0.724 0.0
C640 C 0.91892 0.4706 0.68378 0.0
C641 C 0.91956 0.49327 0.66942 0.0
C642 C 0.86736 0.44647 0.79062 0.0
C643 C 0.9369 0.46358 0.65731 0.0
C644 C 0.92356 0.41485 0.79753 0.0
C645 C 0.90959 0.39122 0.77237 0.0
C646 C 0.92071 0.43565 0.78325 0.0
C647 C 0.90334 0.4327 0.74305 0.0
C648 C 0.88836 0.40862 0.71904 0.0
C649 C 0.89172 0.38816 0.73389 0.0
C650 C 0.93704 0.46107 0.80976 0.0
C651 C 0.86947 0.40471 0.67641 0.0
H652 H 0.87456 0.49116 0.75244 0.0
H653 H 0.93287 0.50526 0.63956 0.0
H654 H 0.85587 0.4263 0.77786 0.0
H655 H 0.8783 0.44678 0.82571 0.0
H656 H 0.85418 0.45346 0.80194 0.0
H657 H 0.94772 0.47679 0.62485 0.0
H658 H 0.95075 0.46397 0.68629 0.0
H659 H 0.92613 0.44389 0.64154 0.0
H660 H 0.93735 0.41737 0.8274 0.0
H661 H 0.88073 0.36991 0.71445 0.0
H662 H 0.92489 0.46846 0.82553 0.0
H663 H 0.95021 0.47517 0.78082 0.0
H664 H 0.94857 0.45983 0.84224 0.0
H665 H 0.85658 0.41178 0.68927 0.0
H666 H 0.8577 0.38434 0.66503 0.0
H667 H 0.87984 0.41587 0.64135 0.0
C668 C 0.40887 0.93007 0.17937 0.0
C669 C 0.38779 0.91521 0.21158 0.0
C670 C 0.43188 0.93 0.18579 0.0
C671 C 0.43382 0.91471 0.22535 0.0
C672 C 0.4124 0.8991 0.25698 0.0
C673 C 0.38962 0.89953 0.24972 0.0
C674 C 0.45432 0.94686 0.1512 0.0
C675 C 0.41377 0.8825 0.29949 0.0
C676 C 0.489 0.9017 0.2173 0.0
C677 C 0.50671 0.92014 0.25166 0.0
C678 C 0.46503 0.89946 0.2088 0.0
C679 C 0.45867 0.91606 0.23529 0.0
C680 C 0.47628 0.93443 0.27063 0.0
C681 C 0.50008 0.93624 0.27839 0.0
C682 C 0.44668 0.87963 0.17091 0.0
C683 C 0.47013 0.95243 0.29967 0.0
H684 H 0.4076 0.94217 0.1497 0.0
H685 H 0.3734 0.88794 0.2747 0.0
H686 H 0.47004 0.96159 0.1753 0.0
H687 H 0.46173 0.93542 0.13197 0.0
H688 H 0.44929 0.95658 0.12052 0.0
H689 H 0.395 0.87038 0.31864 0.0
H690 H 0.42059 0.86998 0.28315 0.0
H691 H 0.42773 0.89467 0.32971 0.0
H692 H 0.49396 0.88917 0.19652 0.0
H693 H 0.51362 0.9505 0.30507 0.0
H694 H 0.44271 0.8891 0.13803 0.0
H695 H 0.42821 0.86701 0.19056 0.0
H696 H 0.45422 0.86766 0.15471 0.0
H697 H 0.46681 0.96437 0.27139 0.0
H698 H 0.48568 0.96522 0.32672 0.0
H699 H 0.45231 0.94145 0.32258 0.0
C700 C 0.58748 0.4942 0.74021 0.0
C701 C 0.58461 0.51196 0.77044 0.0
C702 C 0.56645 0.47014 0.72882 0.0
C703 C 0.54203 0.46376 0.74813 0.0
C704 C 0.53909 0.48146 0.77926 0.0
C705 C 0.56041 0.50533 0.79005 0.0
C706 C 0.57028 0.45169 0.69561 0.0
C707 C 0.51333 0.4753 0.80064 0.0
C708 C 0.48171 0.41323 0.68187 0.0
C709 C 0.47363 0.39263 0.71645 0.0
C710 C 0.50442 0.43627 0.6908 0.0
C711 C 0.51937 0.43872 0.73536 0.0
C712 C 0.51181 0.41772 0.76937 0.0
C713 C 0.48902 0.39491 0.7595 0.0
C714 C 0.51194 0.45826 0.65356 0.0
C715 C 0.52732 0.41962 0.81719 0.0
H716 H 0.60612 0.49917 0.72491 0.0
H717 H 0.55801 0.51892 0.81347 0.0
H718 H 0.56345 0.43343 0.71683 0.0
H719 H 0.55882 0.44733 0.65927 0.0
H720 H 0.59062 0.45933 0.68476 0.0
H721 H 0.51437 0.491 0.82495 0.0
H722 H 0.49984 0.47155 0.76795 0.0
H723 H 0.50527 0.45773 0.82475 0.0
H724 H 0.46999 0.41161 0.64841 0.0
H725 H 0.48298 0.37906 0.78634 0.0
H726 H 0.53183 0.46572 0.63983 0.0
H727 H 0.5113 0.47408 0.67413 0.0
H728 H 0.49915 0.45274 0.61898 0.0
H729 H 0.5475 0.42659 0.80622 0.0
H730 H 0.51979 0.40102 0.83761 0.0
H731 H 0.5272 0.43364 0.84496 0.0
C732 C 0.13823 0.36903 0.29362 0.0
C733 C 0.13577 0.38789 0.2668 0.0
C734 C 0.1604 0.36724 0.28867 0.0
C735 C 0.18038 0.38458 0.25576 0.0
C736 C 0.17781 0.40338 0.22792 0.0
C737 C 0.15558 0.40488 0.23397 0.0
C738 C 0.16262 0.34709 0.31926 0.0
C739 C 0.19866 0.42207 0.19211 0.0
C740 C 0.24821 0.39916 0.27899 0.0
C741 C 0.25114 0.38454 0.23995 0.0
C742 C 0.22504 0.39883 0.28536 0.0
C743 C 0.20439 0.3837 0.25158 0.0
C744 C 0.20707 0.3686 0.21259 0.0
C745 C 0.23042 0.36912 0.20738 0.0
C746 C 0.22279 0.415 0.32771 0.0
C747 C 0.18547 0.35238 0.17565 0.0
H748 H 0.12299 0.35586 0.3191 0.0
H749 H 0.15372 0.4194 0.21284 0.0
H750 H 0.16637 0.33495 0.29239 0.0
H751 H 0.17904 0.35632 0.34658 0.0
H752 H 0.1451 0.33467 0.34215 0.0
H753 H 0.19326 0.43491 0.17179 0.0
H754 H 0.21634 0.43394 0.21492 0.0
H755 H 0.20323 0.41164 0.16228 0.0
H756 H 0.26409 0.41097 0.30457 0.0
H757 H 0.23257 0.35779 0.17712 0.0
H758 H 0.20622 0.40303 0.35329 0.0
H759 H 0.21935 0.42973 0.30984 0.0
H760 H 0.24023 0.42472 0.35231 0.0
H761 H 0.16812 0.33914 0.19805 0.0
H762 H 0.19033 0.34103 0.14872 0.0
H763 H 0.18061 0.36474 0.15198 0.0
C764 C 0.843 0.24154 0.72947 0.0
C765 C 0.85816 0.24549 0.77387 0.0
C766 C 0.82042 0.21834 0.72155 0.0
C767 C 0.8127 0.19872 0.75917 0.0
C768 C 0.82811 0.20238 0.80361 0.0
C769 C 0.85077 0.22573 0.81034 0.0
C770 C 0.80457 0.21502 0.6734 0.0
C771 C 0.82034 0.18188 0.84466 0.0
C772 C 0.74184 0.15119 0.76503 0.0
C773 C 0.74034 0.13029 0.73814 0.0
C774 C 0.76538 0.1734 0.77298 0.0
C775 C 0.78789 0.17483 0.75302 0.0
C776 C 0.78654 0.1538 0.72594 0.0
C777 C 0.76274 0.13168 0.71905 0.0
C778 C 0.76614 0.19541 0.80244 0.0
C779 C 0.81016 0.15481 0.70366 0.0
H780 H 0.84871 0.25665 0.70089 0.0
H781 H 0.86241 0.22868 0.84472 0.0
H782 H 0.80096 0.19764 0.65176 0.0
H783 H 0.78573 0.21242 0.68501 0.0
H784 H 0.81395 0.23164 0.64657 0.0
H785 H 0.83497 0.18734 0.8758 0.0
H786 H 0.8021 0.17797 0.86298 0.0
H787 H 0.81702 0.16384 0.82641 0.0
H788 H 0.72461 0.15016 0.78021 0.0
H789 H 0.76168 0.1156 0.69815 0.0
H790 H 0.77356 0.21239 0.77666 0.0
H791 H 0.77933 0.20067 0.83624 0.0
H792 H 0.74701 0.19088 0.81702 0.0
H793 H 0.81912 0.17041 0.67448 0.0
H794 H 0.8059 0.13662 0.68452 0.0
H795 H 0.82439 0.15911 0.73508 0.0
C796 C 0.57992 0.74266 0.27604 0.0
C797 C 0.59292 0.73843 0.23534 0.0
C798 C 0.57973 0.76566 0.27969 0.0
C799 C 0.59272 0.7848 0.24155 0.0
C800 C 0.60576 0.78062 0.20022 0.0
C801 C 0.60577 0.75748 0.19768 0.0
C802 C 0.56573 0.76954 0.32447 0.0
C803 C 0.61969 0.80059 0.15869 0.0
C804 C 0.57308 0.8348 0.22404 0.0
C805 C 0.59253 0.85562 0.25106 0.0
C806 C 0.57296 0.81163 0.22047 0.0
C807 C 0.59264 0.80921 0.2449 0.0
C808 C 0.61221 0.83007 0.27257 0.0
C809 C 0.61198 0.85309 0.27514 0.0
C810 C 0.55187 0.7898 0.19034 0.0
C811 C 0.63338 0.82806 0.29947 0.0
H812 H 0.57 0.72804 0.30537 0.0
H813 H 0.6158 0.75432 0.16607 0.0
H814 H 0.57915 0.78655 0.34754 0.0
H815 H 0.55068 0.77318 0.30913 0.0
H816 H 0.55669 0.7528 0.35103 0.0
H817 H 0.62872 0.79427 0.1289 0.0
H818 H 0.60623 0.80523 0.13868 0.0
H819 H 0.63474 0.81844 0.17695 0.0
H820 H 0.55803 0.83666 0.20517 0.0
H821 H 0.62702 0.86909 0.29623 0.0
H822 H 0.54134 0.77305 0.21634 0.0
H823 H 0.56013 0.78392 0.15816 0.0
H824 H 0.53806 0.79486 0.17338 0.0
H825 H 0.62519 0.81233 0.3285 0.0
H826 H 0.64703 0.84599 0.31982 0.0
H827 H 0.64407 0.82338 0.27048 0.0
C828 C 0.8284 0.57901 0.70254 0.0
C829 C 0.84934 0.59457 0.73447 0.0
C830 C 0.806 0.58046 0.70453 0.0
C831 C 0.80445 0.59767 0.73976 0.0
C832 C 0.82551 0.61342 0.77212 0.0
C833 C 0.8478 0.61179 0.76885 0.0
C834 C 0.78399 0.56356 0.66903 0.0
C835 C 0.82438 0.63179 0.81054 0.0
C836 C 0.75427 0.61639 0.71357 0.0
C837 C 0.73443 0.59964 0.74662 0.0
C838 C 0.7773 0.61611 0.71123 0.0
C839 C 0.7806 0.59887 0.74314 0.0
C840 C 0.76085 0.58228 0.77735 0.0
C841 C 0.73792 0.58277 0.77847 0.0
C842 C 0.7979 0.63391 0.67394 0.0
C843 C 0.76384 0.56384 0.81237 0.0
H844 H 0.82954 0.56576 0.67566 0.0
H845 H 0.8639 0.6238 0.79377 0.0
H846 H 0.76697 0.55074 0.69273 0.0
H847 H 0.77876 0.57539 0.6445 0.0
H848 H 0.78852 0.55168 0.64294 0.0
H849 H 0.84246 0.64276 0.83277 0.0
H850 H 0.82031 0.64544 0.78965 0.0
H851 H 0.80857 0.62118 0.83869 0.0
H852 H 0.75165 0.62943 0.68877 0.0
H853 H 0.72271 0.56989 0.80435 0.0
H854 H 0.80189 0.62268 0.64503 0.0
H855 H 0.8159 0.64604 0.69557 0.0
H856 H 0.7925 0.64648 0.65252 0.0
H857 H 0.76651 0.55012 0.78826 0.0
H858 H 0.74703 0.55294 0.8382 0.0
H859 H 0.7811 0.5743 0.83713 0.0
C860 C 0.21546 0.84721 0.27165 0.0
C861 C 0.23907 0.84896 0.2613 0.0
C862 C 0.19298 0.82341 0.27392 0.0
C863 C 0.19423 0.80093 0.26567 0.0
C864 C 0.21805 0.80256 0.25615 0.0
C865 C 0.24018 0.82656 0.25406 0.0
C866 C 0.16786 0.82232 0.28419 0.0
C867 C 0.22011 0.77897 0.24723 0.0
C868 C 0.14017 0.73642 0.30864 0.0
C869 C 0.12759 0.72628 0.26112 0.0
C870 C 0.16159 0.761 0.31102 0.0
C871 C 0.17056 0.77569 0.26477 0.0
C872 C 0.15761 0.76578 0.21693 0.0
C873 C 0.13627 0.74119 0.21568 0.0
C874 C 0.17495 0.77103 0.36273 0.0
C875 C 0.16664 0.78093 0.1668 0.0
H876 H 0.21447 0.86444 0.27741 0.0
H877 H 0.25837 0.82774 0.24625 0.0
H878 H 0.15508 0.81395 0.24991 0.0
H879 H 0.15812 0.80978 0.31814 0.0
H880 H 0.1703 0.84148 0.29205 0.0
H881 H 0.2402 0.7835 0.24218 0.0
H882 H 0.21165 0.76566 0.28068 0.0
H883 H 0.20916 0.76882 0.21179 0.0
H884 H 0.13351 0.72505 0.34395 0.0
H885 H 0.12659 0.73354 0.17883 0.0
H886 H 0.1766 0.78975 0.37151 0.0
H887 H 0.19463 0.77411 0.36058 0.0
H888 H 0.16478 0.75775 0.39554 0.0
H889 H 0.16792 0.79975 0.17176 0.0
H890 H 0.15378 0.7709 0.13334 0.0
H891 H 0.18607 0.78458 0.15703 0.0
C892 C 0.36637 0.2221 0.78038 0.0
C893 C 0.38838 0.24542 0.76926 0.0
C894 C 0.36759 0.19968 0.78624 0.0
C895 C 0.39139 0.20071 0.78097 0.0
C896 C 0.41372 0.22424 0.77053 0.0
C897 C 0.41194 0.24631 0.76472 0.0
C898 C 0.34339 0.17486 0.79722 0.0
C899 C 0.43944 0.22604 0.76475 0.0
C900 C 0.39995 0.14698 0.83446 0.0
C901 C 0.39762 0.13306 0.78892 0.0
C902 C 0.39765 0.16891 0.83263 0.0
C903 C 0.39287 0.17702 0.78417 0.0
C904 C 0.39022 0.16291 0.73821 0.0
C905 C 0.39265 0.14112 0.74114 0.0
C906 C 0.4006 0.18357 0.88239 0.0
C907 C 0.38509 0.17099 0.68581 0.0
H908 H 0.34811 0.22128 0.78403 0.0
H909 H 0.42906 0.26428 0.75637 0.0
H910 H 0.3395 0.16129 0.76464 0.0
H911 H 0.34566 0.16596 0.83322 0.0
H912 H 0.32657 0.17747 0.80207 0.0
H913 H 0.4551 0.24597 0.75854 0.0
H914 H 0.44384 0.21834 0.80013 0.0
H915 H 0.43906 0.2143 0.73108 0.0
H916 H 0.40373 0.14083 0.87153 0.0
H917 H 0.39073 0.13043 0.70578 0.0
H918 H 0.38339 0.18529 0.88902 0.0
H919 H 0.4171 0.20321 0.87882 0.0
H920 H 0.40358 0.17434 0.91711 0.0
H921 H 0.36748 0.17235 0.68781 0.0
H922 H 0.38286 0.15751 0.65404 0.0
H923 H 0.40104 0.1902 0.67547 0.0
loop_
_geom_bond_atom_site_label_1
_geom_bond_atom_site_label_2
_geom_bond_distance
_geom_bond_site_symmetry_2
_ccdc_geom_bond_type
C0 O1 1.160 . S
C0 O7 1.185 . S
O1 C0 1.160 . S
O2 Zn3 1.899 . S
O2 C10 1.284 . S
Zn3 O2 1.899 . S
Zn3 O4 2.032 . S
Zn3 O7 2.086 . S
Zn3 O12 1.977 . S
O4 Zn3 2.032 . S
O4 C8 1.278 . S
C5 O6 1.203 . S
C5 O12 1.267 . S
O6 C5 1.203 . S
O7 C0 1.185 . S
O7 Zn3 2.086 . S
C8 O4 1.278 . S
C8 O9 1.211 . S
O9 C8 1.211 . S
C10 O2 1.284 . S
C10 O11 1.273 . S
O11 C10 1.273 . S
O12 Zn3 1.977 . S
O12 C5 1.267 . S
C13 O14 1.160 . S
C13 O20 1.185 . S
O14 C13 1.160 . S
O15 Zn16 1.899 . S
O15 C23 1.284 . S
Zn16 O15 1.899 . S
Zn16 O17 2.032 . S
Zn16 O20 2.086 . S
Zn16 O25 1.977 . S
O17 Zn16 2.032 . S
O17 C21 1.278 . S
C18 O19 1.203 . S
C18 O25 1.267 . S
O19 C18 1.203 . S
O20 C13 1.185 . S
O20 Zn16 2.086 . S
C21 O17 1.278 . S
C21 O22 1.211 . S
O22 C21 1.211 . S
C23 O15 1.284 . S
C23 O24 1.273 . S
O24 C23 1.273 . S
O25 Zn16 1.977 . S
O25 C18 1.267 . S
C26 O27 1.160 . S
C26 O33 1.185 . S
O27 C26 1.160 . S
O28 Zn29 1.899 . S
O28 C36 1.284 . S
Zn29 O28 1.899 . S
Zn29 O30 2.032 . S
Zn29 O33 2.086 . S
Zn29 O38 1.977 . S
O30 Zn29 2.032 . S
O30 C34 1.278 . S
C31 O32 1.203 . S
C31 O38 1.267 . S
O32 C31 1.203 . S
O33 C26 1.185 . S
O33 Zn29 2.086 . S
C34 O30 1.278 . S
C34 O35 1.211 . S
O35 C34 1.211 . S
C36 O28 1.284 . S
C36 O37 1.273 . S
O37 C36 1.273 . S
O38 Zn29 1.977 . S
O38 C31 1.267 . S
C39 O40 1.160 . S
C39 O46 1.185 . S
O40 C39 1.160 . S
O41 Zn42 1.899 . S
O41 C49 1.284 . S
Zn42 O41 1.899 . S
Zn42 O43 2.032 . S
Zn42 O46 2.086 . S
Zn42 O51 1.977 . S
O43 Zn42 2.032 . S
O43 C47 1.278 . S
C44 O45 1.203 . S
C44 O51 1.267 . S
O45 C44 1.203 . S
O46 C39 1.185 . S
O46 Zn42 2.086 . S
C47 O43 1.278 . S
C47 O48 1.211 . S
O48 C47 1.211 . S
C49 O41 1.284 . S
C49 O50 1.273 . S
O50 C49 1.273 . S
O51 Zn42 1.977 . S
O51 C44 1.267 . S
C52 O53 1.160 . S
C52 O59 1.185 . S
O53 C52 1.160 . S
O54 Zn55 1.899 . S
O54 C62 1.284 . S
Zn55 O54 1.899 . S
Zn55 O56 2.032 . S
Zn55 O59 2.086 . S
Zn55 O64 1.977 . S
O56 Zn55 2.032 . S
O56 C60 1.278 . S
C57 O58 1.203 . S
C57 O64 1.267 . S
O58 C57 1.203 . S
O59 C52 1.185 . S
O59 Zn55 2.086 . S
C60 O56 1.278 . S
C60 O61 1.211 . S
O61 C60 1.211 . S
C62 O54 1.284 . S
C62 O63 1.273 . S
O63 C62 1.273 . S
O64 Zn55 1.977 . S
O64 C57 1.267 . S
C65 O66 1.160 . S
C65 O72 1.185 . S
O66 C65 1.160 . S
O67 Zn68 1.899 . S
O67 C75 1.284 . S
Zn68 O67 1.899 . S
Zn68 O69 2.032 . S
Zn68 O72 2.086 . S
Zn68 O77 1.977 . S
O69 Zn68 2.032 . S
O69 C73 1.278 . S
C70 O71 1.203 . S
C70 O77 1.267 . S
O71 C70 1.203 . S
O72 C65 1.185 . S
O72 Zn68 2.086 . S
C73 O69 1.278 . S
C73 O74 1.211 . S
O74 C73 1.211 . S
C75 O67 1.284 . S
C75 O76 1.273 . S
O76 C75 1.273 . S
O77 Zn68 1.977 . S
O77 C70 1.267 . S
C78 O79 1.160 . S
C78 O85 1.185 . S
O79 C78 1.160 . S
O80 Zn81 1.899 . S
O80 C88 1.284 . S
Zn81 O80 1.899 . S
Zn81 O82 2.032 . S
Zn81 O85 2.086 . S
Zn81 O90 1.977 . S
O82 Zn81 2.032 . S
O82 C86 1.278 . S
C83 O84 1.203 . S
C83 O90 1.267 . S
O84 C83 1.203 . S
O85 C78 1.185 . S
O85 Zn81 2.086 . S
C86 O82 1.278 . S
C86 O87 1.211 . S
O87 C86 1.211 . S
C88 O80 1.284 . S
C88 O89 1.273 . S
O89 C88 1.273 . S
O90 Zn81 1.977 . S
O90 C83 1.267 . S
C91 O92 1.160 . S
C91 O98 1.185 . S
O92 C91 1.160 . S
O93 Zn94 1.899 . S
O93 C101 1.284 . S
Zn94 O93 1.899 . S
Zn94 O95 2.032 . S
Zn94 O98 2.086 . S
Zn94 O103 1.977 . S
O95 Zn94 2.032 . S
O95 C99 1.278 . S
C96 O97 1.203 . S
C96 O103 1.267 . S
O97 C96 1.203 . S
O98 C91 1.185 . S
O98 Zn94 2.086 . S
C99 O95 1.278 . S
C99 O100 1.211 . S
O100 C99 1.211 . S
C101 O93 1.284 . S
C101 O102 1.273 . S
O102 C101 1.273 . S
O103 Zn94 1.977 . S
O103 C96 1.267 . S
C104 O105 1.160 . S
C104 O111 1.185 . S
O105 C104 1.160 . S
O106 Zn107 1.899 . S
O106 C114 1.284 . S
Zn107 O106 1.899 . S
Zn107 O108 2.032 . S
Zn107 O111 2.086 . S
Zn107 O116 1.977 . S
O108 Zn107 2.032 . S
O108 C112 1.278 . S
C109 O110 1.203 . S
C109 O116 1.267 . S
O110 C109 1.203 . S
O111 C104 1.185 . S
O111 Zn107 2.086 . S
C112 O108 1.278 . S
C112 O113 1.211 . S
O113 C112 1.211 . S
C114 O106 1.284 . S
C114 O115 1.273 . S
O115 C114 1.273 . S
O116 Zn107 1.977 . S
O116 C109 1.267 . S
C117 O118 1.160 . S
C117 O124 1.185 . S
O118 C117 1.160 . S
O119 Zn120 1.899 . S
O119 C127 1.284 . S
Zn120 O119 1.899 . S
Zn120 O121 2.032 . S
Zn120 O124 2.086 . S
Zn120 O129 1.977 . S
O121 Zn120 2.032 . S
O121 C125 1.278 . S
C122 O123 1.203 . S
C122 O129 1.267 . S
O123 C122 1.203 . S
O124 C117 1.185 . S
O124 Zn120 2.086 . S
C125 O121 1.278 . S
C125 O126 1.211 . S
O126 C125 1.211 . S
C127 O119 1.284 . S
C127 O128 1.273 . S
O128 C127 1.273 . S
O129 Zn120 1.977 . S
O129 C122 1.267 . S
C130 O131 1.160 . S
C130 O137 1.185 . S
O131 C130 1.160 . S
O132 Zn133 1.899 . S
O132 C140 1.284 . S
Zn133 O132 1.899 . S
Zn133 O134 2.032 . S
Zn133 O137 2.086 . S
Zn133 O142 1.977 . S
O134 Zn133 2.032 . S
O134 C138 1.278 . S
C135 O136 1.203 . S
C135 O142 1.267 . S
O136 C135 1.203 . S
O137 C130 1.185 . S
O137 Zn133 2.086 . S
C138 O134 1.278 . S
C138 O139 1.211 . S
O139 C138 1.211 . S
C140 O132 1.284 . S
C140 O141 1.273 . S
O141 C140 1.273 . S
O142 Zn133 1.977 . S
O142 C135 1.267 . S
C143 O144 1.160 . S
C143 O150 1.185 . S
O144 C143 1.160 . S
O145 Zn146 1.899 . S
O145 C153 1.284 . S
Zn146 O145 1.899 . S
Zn146 O147 2.032 . S
Zn146 O150 2.086 . S
Zn146 O155 1.977 . S
O147 Zn146 2.032 . S
O147 C151 1.278 . S
C148 O149 1.203 . S
C148 O155 1.267 . S
O149 C148 1.203 . S
O150 C143 1.185 . S
O150 Zn146 2.086 . S
C151 O147 1.278 . S
C151 O152 1.211 . S
O152 C151 1.211 . S
C153 O145 1.284 . S
C153 O154 1.273 . S
O154 C153 1.273 . S
O155 Zn146 1.977 . S
O155 C148 1.267 . S
C156 C157 1.391 . S
C156 C158 1.394 . S
C156 H172 0.931 . S
C157 C156 1.391 . S
C157 C161 1.376 . S
C158 C156 1.394 . S
C158 C159 1.369 . S
C158 C162 1.531 1_554 S
C159 C158 1.369 . S
C159 C160 1.410 1_455 S
C159 C167 1.503 1_454 S
C160 C159 1.410 1_655 S
C160 C161 1.392 1_655 S
C160 C163 1.511 . S
C161 C157 1.376 . S
C161 C160 1.392 1_455 S
C161 H173 0.915 1_455 S
C162 C158 1.531 1_556 S
C162 H174 0.960 . S
C162 H175 0.962 . S
C162 H176 0.960 . S
C163 C160 1.511 . S
C163 H177 0.961 . S
C163 H178 0.961 . S
C163 H179 0.961 . S
C164 C165 1.370 . S
C164 C166 1.363 . S
C164 H180 0.931 . S
C165 C164 1.370 . S
C165 C169 1.408 . S
C166 C164 1.363 . S
C166 C167 1.370 . S
C166 C170 1.524 1_655 S
C167 C159 1.503 1_656 S
C167 C166 1.370 . S
C167 C168 1.403 . S
C168 C167 1.403 . S
C168 C169 1.404 . S
C168 C171 1.539 . S
C169 C165 1.408 . S
C169 C168 1.404 . S
C169 H181 0.930 . S
C170 C166 1.524 1_455 S
C170 H182 0.956 . S
C170 H183 0.961 . S
C170 H184 0.961 . S
C171 C168 1.539 . S
C171 H185 0.958 . S
C171 H186 0.961 . S
C171 H187 0.960 1_556 S
H172 C156 0.931 . S
H173 C161 0.915 1_655 S
H174 C162 0.960 . S
H175 C162 0.962 . S
H176 C162 0.960 . S
H177 C163 0.961 . S
H178 C163 0.961 . S
H179 C163 0.961 . S
H180 C164 0.931 . S
H181 C169 0.930 . S
H182 C170 0.956 . S
H183 C170 0.961 . S
H184 C170 0.961 . S
H185 C171 0.958 . S
H186 C171 0.961 . S
H187 C171 0.960 1_554 S
C188 C189 1.391 . S
C188 C190 1.394 . S
C188 H204 0.931 . S
C189 C188 1.391 . S
C189 C193 1.376 . S
C190 C188 1.394 . S
C190 C191 1.369 . S
C190 C194 1.531 . S
C191 C190 1.369 . S
C191 C192 1.410 1_565 S
C191 C199 1.503 1_565 S
C192 C191 1.410 1_545 S
C192 C193 1.392 1_545 S
C192 C195 1.511 . S
C193 C189 1.376 . S
C193 C192 1.392 1_565 S
C193 H205 0.929 . S
C194 C190 1.531 . S
C194 H206 0.960 . S
C194 H207 0.962 . S
C194 H208 0.960 . S
C195 C192 1.511 . S
C195 H209 0.961 . S
C195 H210 0.961 . S
C195 H211 0.961 . S
C196 C197 1.370 . S
C196 C198 1.363 1_545 S
C196 H212 0.931 . S
C197 C196 1.370 . S
C197 C201 1.408 . S
C198 C196 1.363 1_565 S
C198 C199 1.370 1_565 S
C198 C202 1.524 . S
C199 C191 1.503 1_545 S
C199 C198 1.370 1_545 S
C199 C200 1.403 . S
C200 C199 1.403 . S
C200 C201 1.404 . S
C200 C203 1.539 . S
C201 C197 1.408 . S
C201 C200 1.404 . S
C201 H213 0.930 . S
C202 C198 1.524 . S
C202 H214 0.956 . S
C202 H215 0.961 . S
C202 H216 0.961 . S
C203 C200 1.539 . S
C203 H217 0.958 . S
C203 H218 0.961 . S
C203 H219 0.960 . S
H204 C188 0.931 . S
H205 C193 0.929 . S
H206 C194 0.960 . S
H207 C194 0.962 . S
H208 C194 0.960 . S
H209 C195 0.961 . S
H210 C195 0.961 . S
H211 C195 0.961 . S
H212 C196 0.931 . S
H213 C201 0.930 . S
H214 C202 0.956 . S
H215 C202 0.961 . S
H216 C202 0.961 . S
H217 C203 0.958 . S
H218 C203 0.961 . S
H219 C203 0.960 . S
C220 C221 1.391 . S
C220 C222 1.394 . S
C220 H236 0.931 . S
C221 C220 1.391 . S
C221 C225 1.376 . S
C222 C220 1.394 . S
C222 C223 1.369 . S
C222 C226 1.531 1_554 S
C223 C222 1.369 . S
C223 C224 1.410 . S
C223 C231 1.503 1_554 S
C224 C223 1.410 . S
C224 C225 1.392 . S
C224 C227 1.511 . S
C225 C221 1.376 . S
C225 C224 1.392 . S
C225 H237 0.929 . S
C226 C222 1.531 1_556 S
C226 H238 0.960 . S
C226 H239 0.962 . S
C226 H240 0.960 . S
C227 C224 1.511 . S
C227 H241 0.961 . S
C227 H242 0.961 . S
C227 H243 0.961 . S
C228 C229 1.370 . S
C228 C230 1.363 . S
C228 H244 0.931 . S
C229 C228 1.370 . S
C229 C233 1.408 . S
C230 C228 1.363 . S
C230 C231 1.370 . S
C230 C234 1.524 . S
C231 C223 1.503 1_556 S
C231 C230 1.370 . S
C231 C232 1.403 . S
C232 C231 1.403 . S
C232 C233 1.404 . S
C232 C235 1.539 . S
C233 C229 1.408 . S
C233 C232 1.404 . S
C233 H245 0.930 . S
C234 C230 1.524 . S
C234 H246 0.956 . S
C234 H247 0.961 1_556 S
C234 H248 0.961 . S
C235 C232 1.539 . S
C235 H249 0.958 . S
C235 H250 0.961 . S
C235 H251 0.960 . S
H236 C220 0.931 . S
H237 C225 0.929 . S
H238 C226 0.960 . S
H239 C226 0.962 . S
H240 C226 0.960 . S
H241 C227 0.961 . S
H242 C227 0.961 . S
H243 C227 0.961 . S
H244 C228 0.931 . S
H245 C233 0.930 . S
H246 C234 0.956 . S
H247 C234 0.961 1_554 S
H248 C234 0.961 . S
H249 C235 0.958 . S
H250 C235 0.961 . S
H251 C235 0.960 . S
C252 C253 1.391 . S
C252 C254 1.394 1_455 S
C252 H268 0.931 1_455 S
C253 C252 1.391 . S
C253 C257 1.376 . S
C254 C252 1.394 1_655 S
C254 C255 1.369 1_655 S
C254 C258 1.531 . S
C255 C254 1.369 1_455 S
C255 C256 1.410 . S
C255 C263 1.503 1_455 S
C256 C255 1.410 . S
C256 C257 1.392 . S
C256 C259 1.511 . S
C257 C253 1.376 . S
C257 C256 1.392 . S
C257 H269 0.929 . S
C258 C254 1.531 . S
C258 H270 0.960 . S
C258 H271 0.962 . S
C258 H272 0.960 . S
C259 C256 1.511 . S
C259 H273 0.961 . S
C259 H274 0.961 . S
C259 H275 0.961 . S
C260 C261 1.370 . S
C260 C262 1.363 . S
C260 H276 0.931 . S
C261 C260 1.370 . S
C261 C265 1.408 . S
C262 C260 1.363 . S
C262 C263 1.370 . S
C262 C266 1.524 . S
C263 C255 1.503 1_655 S
C263 C262 1.370 . S
C263 C264 1.403 . S
C264 C263 1.403 . S
C264 C265 1.404 . S
C264 C267 1.539 1_655 S
C265 C261 1.408 . S
C265 C264 1.404 . S
C265 H277 0.930 . S
C266 C262 1.524 . S
C266 H278 0.956 . S
C266 H279 0.961 1_655 S
C266 H280 0.961 . S
C267 C264 1.539 1_455 S
C267 H281 0.958 1_455 S
C267 H282 0.961 . S
C267 H283 0.960 . S
H268 C252 0.931 1_655 S
H269 C257 0.929 . S
H270 C258 0.960 . S
H271 C258 0.962 . S
H272 C258 0.960 . S
H273 C259 0.961 . S
H274 C259 0.961 . S
H275 C259 0.961 . S
H276 C260 0.931 . S
H277 C265 0.930 . S
H278 C266 0.956 . S
H279 C266 0.961 1_455 S
H280 C266 0.961 . S
H281 C267 0.958 1_655 S
H282 C267 0.961 . S
H283 C267 0.960 . S
C284 C285 1.391 . S
C284 C286 1.394 . S
C284 H300 0.931 . S
C285 C284 1.391 . S
C285 C289 1.376 . S
C286 C284 1.394 . S
C286 C287 1.369 . S
C286 C290 1.531 . S
C287 C286 1.369 . S
C287 C288 1.410 . S
C287 C295 1.503 1_546 S
C288 C287 1.410 . S
C288 C289 1.392 . S
C288 C291 1.508 . S
C289 C285 1.376 . S
C289 C288 1.392 . S
C289 H301 0.929 . S
C290 C286 1.531 . S
C290 H302 0.960 1_556 S
C290 H303 0.962 . S
C290 H304 0.960 . S
C291 C288 1.508 . S
C291 H305 0.962 1_545 S
C291 H306 0.923 1_545 S
C291 H307 1.003 . S
C292 C293 1.370 . S
C292 C294 1.363 . S
C292 H308 0.931 . S
C293 C292 1.370 . S
C293 C297 1.408 . S
C294 C292 1.363 . S
C294 C295 1.370 . S
C294 C298 1.524 1_554 S
C295 C287 1.503 1_564 S
C295 C294 1.370 . S
C295 C296 1.403 1_565 S
C296 C295 1.403 1_545 S
C296 C297 1.404 1_545 S
C296 C299 1.539 . S
C297 C293 1.408 . S
C297 C296 1.404 1_565 S
C297 H309 0.930 1_565 S
C298 C294 1.524 1_556 S
C298 H310 0.956 . S
C298 H311 0.961 . S
C298 H312 0.961 . S
C299 C296 1.539 . S
C299 H313 0.958 . S
C299 H314 0.961 . S
C299 H315 0.960 . S
H300 C284 0.931 . S
H301 C289 0.929 . S
H302 C290 0.960 1_554 S
H303 C290 0.962 . S
H304 C290 0.960 . S
H305 C291 0.962 1_565 S
H306 C291 0.923 1_565 S
H307 C291 1.003 . S
H308 C292 0.931 . S
H309 C297 0.930 1_545 S
H310 C298 0.956 . S
H311 C298 0.961 . S
H312 C298 0.961 . S
H313 C299 0.958 . S
H314 C299 0.961 . S
H315 C299 0.960 . S
C316 C317 1.391 . S
C316 C318 1.394 . S
C316 H332 0.931 . S
C317 C316 1.391 . S
C317 C321 1.376 . S
C318 C316 1.394 . S
C318 C319 1.369 . S
C318 C322 1.531 . S
C319 C318 1.369 . S
C319 C320 1.410 . S
C319 C327 1.503 . S
C320 C319 1.410 . S
C320 C321 1.392 . S
C320 C323 1.511 . S
C321 C317 1.376 . S
C321 C320 1.392 . S
C321 H333 0.929 . S
C322 C318 1.531 . S
C322 H334 0.960 . S
C322 H335 0.962 . S
C322 H336 0.960 . S
C323 C320 1.511 . S
C323 H337 0.961 . S
C323 H338 0.961 . S
C323 H339 0.961 . S
C324 C325 1.370 . S
C324 C326 1.363 . S
C324 H340 0.931 . S
C325 C324 1.370 . S
C325 C329 1.408 . S
C326 C324 1.363 . S
C326 C327 1.370 . S
C326 C330 1.524 . S
C327 C319 1.503 . S
C327 C326 1.370 . S
C327 C328 1.403 . S
C328 C327 1.403 . S
C328 C329 1.404 . S
C328 C331 1.539 . S
C329 C325 1.408 . S
C329 C328 1.404 . S
C329 H341 0.930 . S
C330 C326 1.524 . S
C330 H342 0.956 . S
C330 H343 0.961 . S
C330 H344 0.961 . S
C331 C328 1.539 . S
C331 H345 0.958 . S
C331 H346 0.961 . S
C331 H347 0.960 . S
H332 C316 0.931 . S
H333 C321 0.929 . S
H334 C322 0.960 . S
H335 C322 0.962 . S
H336 C322 0.960 . S
H337 C323 0.961 . S
H338 C323 0.961 . S
H339 C323 0.961 . S
H340 C324 0.931 . S
H341 C329 0.930 . S
H342 C330 0.956 . S
H343 C330 0.961 . S
H344 C330 0.961 . S
H345 C331 0.958 . S
H346 C331 0.961 . S
H347 C331 0.960 . S
C348 C349 1.391 . S
C348 C350 1.394 . S
C348 H364 0.931 . S
C349 C348 1.391 . S
C349 C353 1.376 . S
C350 C348 1.394 . S
C350 C351 1.369 . S
C350 C354 1.531 . S
C351 C350 1.369 . S
C351 C352 1.399 . S
C351 C359 1.503 1_656 S
C352 C351 1.399 . S
C352 C353 1.409 . S
C352 C355 1.507 1_655 S
C353 C349 1.376 . S
C353 C352 1.409 . S
C353 H365 0.929 . S
C354 C350 1.531 . S
C354 H366 0.960 1_556 S
C354 H367 0.962 1_556 S
C354 H368 0.960 . S
C355 C352 1.507 1_455 S
C355 H369 0.961 . S
C355 H370 0.961 . S
C355 H371 0.961 . S
C356 C357 1.370 . S
C356 C358 1.363 1_455 S
C356 H372 0.930 . S
C357 C356 1.370 . S
C357 C361 1.408 . S
C358 C356 1.363 1_655 S
C358 C359 1.370 1_655 S
C358 C362 1.524 . S
C359 C351 1.503 1_454 S
C359 C358 1.370 1_455 S
C359 C360 1.403 . S
C360 C359 1.403 . S
C360 C361 1.404 . S
C360 C363 1.539 1_554 S
C361 C357 1.408 . S
C361 C360 1.404 . S
C361 H373 0.930 . S
C362 C358 1.524 . S
C362 H374 0.956 . S
C362 H375 0.961 . S
C362 H376 0.961 . S
C363 C360 1.539 1_556 S
C363 H377 0.958 . S
C363 H378 0.961 . S
C363 H379 0.960 . S
H364 C348 0.931 . S
H365 C353 0.929 . S
H366 C354 0.960 1_554 S
H367 C354 0.962 1_554 S
H368 C354 0.960 . S
H369 C355 0.961 . S
H370 C355 0.961 . S
H371 C355 0.961 . S
H372 C356 0.930 . S
H373 C361 0.930 . S
H374 C362 0.956 . S
H375 C362 0.961 . S
H376 C362 0.961 . S
H377 C363 0.958 . S
H378 C363 0.961 . S
H379 C363 0.960 . S
C380 C381 1.391 . S
C380 C382 1.394 . S
C380 H396 0.931 . S
C381 C380 1.391 . S
C381 C385 1.376 . S
C382 C380 1.394 . S
C382 C383 1.369 . S
C382 C386 1.531 . S
C383 C382 1.369 . S
C383 C384 1.410 1_565 S
C383 C391 1.503 1_565 S
C384 C383 1.410 1_545 S
C384 C385 1.392 1_545 S
C384 C387 1.511 . S
C385 C381 1.376 . S
C385 C384 1.392 1_565 S
C385 H397 0.929 1_565 S
C386 C382 1.531 . S
C386 H398 0.960 . S
C386 H399 0.962 . S
C386 H400 0.960 . S
C387 C384 1.511 . S
C387 H401 0.961 . S
C387 H402 0.961 . S
C387 H403 0.961 . S
C388 C389 1.370 . S
C388 C390 1.363 . S
C388 H404 0.931 . S
C389 C388 1.370 . S
C389 C393 1.408 . S
C390 C388 1.363 . S
C390 C391 1.370 . S
C390 C394 1.524 1_545 S
C391 C383 1.503 1_545 S
C391 C390 1.370 . S
C391 C392 1.403 . S
C392 C391 1.403 . S
C392 C393 1.404 . S
C392 C395 1.539 . S
C393 C389 1.408 . S
C393 C392 1.404 . S
C393 H405 0.930 . S
C394 C390 1.524 1_565 S
C394 H406 0.956 . S
C394 H407 0.961 1_565 S
C394 H408 0.961 1_565 S
C395 C392 1.539 . S
C395 H409 0.958 . S
C395 H410 0.961 . S
C395 H411 0.960 . S
H396 C380 0.931 . S
H397 C385 0.929 1_545 S
H398 C386 0.960 . S
H399 C386 0.962 . S
H400 C386 0.960 . S
H401 C387 0.961 . S
H402 C387 0.961 . S
H403 C387 0.961 . S
H404 C388 0.931 . S
H405 C393 0.930 . S
H406 C394 0.956 . S
H407 C394 0.961 1_545 S
H408 C394 0.961 1_545 S
H409 C395 0.958 . S
H410 C395 0.961 . S
H411 C395 0.960 . S
C412 C413 1.391 . S
C412 C414 1.394 . S
C412 H428 0.931 . S
C413 C412 1.391 . S
C413 C417 1.376 . S
C414 C412 1.394 . S
C414 C415 1.369 . S
C414 C418 1.531 . S
C415 C414 1.369 . S
C415 C416 1.410 . S
C415 C423 1.503 1_556 S
C416 C415 1.410 . S
C416 C417 1.392 . S
C416 C419 1.511 . S
C417 C413 1.376 . S
C417 C416 1.392 . S
C417 H429 0.929 . S
C418 C414 1.531 . S
C418 H430 0.960 1_556 S
C418 H431 0.962 . S
C418 H432 0.960 . S
C419 C416 1.511 . S
C419 H433 0.961 . S
C419 H434 0.961 1_556 S
C419 H435 0.961 1_556 S
C420 C421 1.370 . S
C420 C422 1.363 . S
C420 H436 0.931 . S
C421 C420 1.370 . S
C421 C425 1.408 . S
C422 C420 1.363 . S
C422 C423 1.370 . S
C422 C426 1.524 1_554 S
C423 C415 1.503 1_554 S
C423 C422 1.370 . S
C423 C424 1.403 . S
C424 C423 1.403 . S
C424 C425 1.404 . S
C424 C427 1.539 . S
C425 C421 1.408 . S
C425 C424 1.404 . S
C425 H437 0.930 . S
C426 C422 1.524 1_556 S
C426 H438 0.956 . S
C426 H439 0.961 . S
C426 H440 0.961 . S
C427 C424 1.539 . S
C427 H441 0.958 . S
C427 H442 0.961 . S
C427 H443 0.960 . S
H428 C412 0.931 . S
H429 C417 0.929 . S
H430 C418 0.960 1_554 S
H431 C418 0.962 . S
H432 C418 0.960 . S
H433 C419 0.961 . S
H434 C419 0.961 1_554 S
H435 C419 0.961 1_554 S
H436 C420 0.931 . S
H437 C425 0.930 . S
H438 C426 0.956 . S
H439 C426 0.961 . S
H440 C426 0.961 . S
H441 C427 0.958 . S
H442 C427 0.961 . S
H443 C427 0.960 . S
C444 C445 1.391 . S
C444 C446 1.394 1_655 S
C444 H460 0.931 . S
C445 C444 1.391 . S
C445 C449 1.376 . S
C446 C444 1.394 1_455 S
C446 C447 1.369 1_455 S
C446 C450 1.531 . S
C447 C446 1.369 1_655 S
C447 C448 1.410 . S
C447 C455 1.503 1_655 S
C448 C447 1.410 . S
C448 C449 1.392 . S
C448 C451 1.511 . S
C449 C445 1.376 . S
C449 C448 1.392 . S
C449 H461 0.929 . S
C450 C446 1.531 . S
C450 H462 0.960 . S
C450 H463 0.962 . S
C450 H464 0.960 . S
C451 C448 1.511 . S
C451 H465 0.961 . S
C451 H466 0.961 . S
C451 H467 0.961 . S
C452 C453 1.370 . S
C452 C454 1.363 . S
C452 H468 0.931 . S
C453 C452 1.370 . S
C453 C457 1.408 . S
C454 C452 1.363 . S
C454 C455 1.370 . S
C454 C458 1.524 1_455 S
C455 C447 1.503 1_455 S
C455 C454 1.370 . S
C455 C456 1.403 . S
C456 C455 1.403 . S
C456 C457 1.404 . S
C456 C459 1.539 . S
C457 C453 1.408 . S
C457 C456 1.404 . S
C457 H469 0.930 . S
C458 C454 1.524 1_655 S
C458 H470 0.956 . S
C458 H471 0.961 . S
C458 H472 0.961 . S
C459 C456 1.539 . S
C459 H473 0.958 . S
C459 H474 0.961 . S
C459 H475 0.960 . S
H460 C444 0.931 . S
H461 C449 0.929 . S
H462 C450 0.960 . S
H463 C450 0.962 . S
H464 C450 0.960 . S
H465 C451 0.961 . S
H466 C451 0.961 . S
H467 C451 0.961 . S
H468 C452 0.931 . S
H469 C457 0.930 . S
H470 C458 0.956 . S
H471 C458 0.961 . S
H472 C458 0.961 . S
H473 C459 0.958 . S
H474 C459 0.961 . S
H475 C459 0.960 . S
C476 C477 1.391 . S
C476 C478 1.394 . S
C476 H492 0.931 . S
C477 C476 1.391 . S
C477 C481 1.376 . S
C478 C476 1.394 . S
C478 C479 1.369 . S
C478 C482 1.526 1_556 S
C479 C478 1.369 . S
C479 C480 1.410 . S
C479 C487 1.503 1_546 S
C480 C479 1.410 . S
C480 C481 1.392 . S
C480 C483 1.511 1_545 S
C481 C477 1.376 . S
C481 C480 1.392 . S
C481 H493 0.929 . S
C482 C478 1.526 1_554 S
C482 H494 0.967 . S
C482 H495 0.960 1_554 S
C482 H496 0.959 1_554 S
C483 C480 1.511 1_565 S
C483 H497 0.961 . S
C483 H498 0.961 . S
C483 H499 0.961 1_565 S
C484 C485 1.370 . S
C484 C486 1.363 . S
C484 H500 0.931 . S
C485 C484 1.370 . S
C485 C489 1.408 . S
C486 C484 1.363 . S
C486 C487 1.370 . S
C486 C490 1.524 1_554 S
C487 C479 1.503 1_564 S
C487 C486 1.370 . S
C487 C488 1.403 1_565 S
C488 C487 1.403 1_545 S
C488 C489 1.404 1_545 S
C488 C491 1.539 . S
C489 C485 1.408 . S
C489 C488 1.404 1_565 S
C489 H501 0.929 1_565 S
C490 C486 1.524 1_556 S
C490 H502 0.956 . S
C490 H503 0.961 . S
C490 H504 0.961 . S
C491 C488 1.539 . S
C491 H505 0.958 . S
C491 H506 0.961 . S
C491 H507 0.960 . S
H492 C476 0.931 . S
H493 C481 0.929 . S
H494 C482 0.967 . S
H495 C482 0.960 1_556 S
H496 C482 0.959 1_556 S
H497 C483 0.961 . S
H498 C483 0.961 . S
H499 C483 0.961 1_545 S
H500 C484 0.931 . S
H501 C489 0.929 1_545 S
H502 C490 0.956 . S
H503 C490 0.961 . S
H504 C490 0.961 . S
H505 C491 0.958 . S
H506 C491 0.961 . S
H507 C491 0.960 . S
C508 C509 1.391 . S
C508 C510 1.394 . S
C508 H524 0.931 . S
C509 C508 1.391 . S
C509 C513 1.376 . S
C510 C508 1.394 . S
C510 C511 1.369 . S
C510 C514 1.531 . S
C511 C510 1.369 . S
C511 C512 1.410 . S
C511 C519 1.503 . S
C512 C511 1.410 . S
C512 C513 1.392 . S
C512 C515 1.511 . S
C513 C509 1.376 . S
C513 C512 1.392 . S
C513 H525 0.929 . S
C514 C510 1.531 . S
C514 H526 0.960 . S
C514 H527 0.962 . S
C514 H528 0.960 . S
C515 C512 1.511 . S
C515 H529 0.961 . S
C515 H530 0.961 . S
C515 H531 0.961 . S
C516 C517 1.370 . S
C516 C518 1.363 . S
C516 H532 0.931 . S
C517 C516 1.370 . S
C517 C521 1.408 . S
C518 C516 1.363 . S
C518 C519 1.370 . S
C518 C522 1.524 . S
C519 C511 1.503 . S
C519 C518 1.370 . S
C519 C520 1.403 . S
C520 C519 1.403 . S
C520 C521 1.404 . S
C520 C523 1.539 . S
C521 C517 1.408 . S
C521 C520 1.404 . S
C521 H533 0.930 . S
C522 C518 1.524 . S
C522 H534 0.956 . S
C522 H535 0.961 . S
C522 H536 0.961 . S
C523 C520 1.539 . S
C523 H537 0.958 . S
C523 H538 0.961 . S
C523 H539 0.960 . S
H524 C508 0.931 . S
H525 C513 0.929 . S
H526 C514 0.960 . S
H527 C514 0.962 . S
H528 C514 0.960 . S
H529 C515 0.961 . S
H530 C515 0.961 . S
H531 C515 0.961 . S
H532 C516 0.931 . S
H533 C521 0.930 . S
H534 C522 0.956 . S
H535 C522 0.961 . S
H536 C522 0.961 . S
H537 C523 0.958 . S
H538 C523 0.961 . S
H539 C523 0.960 . S
C540 C541 1.391 . S
C540 C542 1.394 . S
C540 H556 0.931 . S
C541 C540 1.391 . S
C541 C545 1.376 . S
C542 C540 1.394 . S
C542 C543 1.369 . S
C542 C546 1.531 . S
C543 C542 1.369 . S
C543 C544 1.410 . S
C543 C551 1.503 . S
C544 C543 1.410 . S
C544 C545 1.392 . S
C544 C547 1.511 . S
C545 C541 1.376 . S
C545 C544 1.392 . S
C545 H557 0.929 . S
C546 C542 1.531 . S
C546 H558 0.960 . S
C546 H559 0.962 . S
C546 H560 0.960 . S
C547 C544 1.511 . S
C547 H561 0.961 . S
C547 H562 0.961 . S
C547 H563 0.961 . S
C548 C549 1.370 . S
C548 C550 1.363 . S
C548 H564 0.931 . S
C549 C548 1.370 . S
C549 C553 1.408 . S
C550 C548 1.363 . S
C550 C551 1.370 . S
C550 C554 1.524 . S
C551 C543 1.503 . S
C551 C550 1.370 . S
C551 C552 1.403 . S
C552 C551 1.403 . S
C552 C553 1.404 . S
C552 C555 1.539 . S
C553 C549 1.408 . S
C553 C552 1.404 . S
C553 H565 0.930 . S
C554 C550 1.524 . S
C554 H566 0.956 . S
C554 H567 0.961 . S
C554 H568 0.961 . S
C555 C552 1.539 . S
C555 H569 0.958 . S
C555 H570 0.961 . S
C555 H571 0.960 . S
H556 C540 0.931 . S
H557 C545 0.929 . S
H558 C546 0.960 . S
H559 C546 0.962 . S
H560 C546 0.960 . S
H561 C547 0.961 . S
H562 C547 0.961 . S
H563 C547 0.961 . S
H564 C548 0.931 . S
H565 C553 0.930 . S
H566 C554 0.956 . S
H567 C554 0.961 . S
H568 C554 0.961 . S
H569 C555 0.958 . S
H570 C555 0.961 . S
H571 C555 0.960 . S
C572 C573 1.391 . S
C572 C574 1.394 . S
C572 H588 0.931 . S
C573 C572 1.391 . S
C573 C577 1.376 . S
C574 C572 1.394 . S
C574 C575 1.369 . S
C574 C578 1.531 . S
C575 C574 1.369 . S
C575 C576 1.410 . S
C575 C583 1.503 . S
C576 C575 1.410 . S
C576 C577 1.392 . S
C576 C579 1.511 . S
C577 C573 1.376 . S
C577 C576 1.392 . S
C577 H589 0.929 . S
C578 C574 1.531 . S
C578 H590 0.960 . S
C578 H591 0.962 . S
C578 H592 0.960 . S
C579 C576 1.511 . S
C579 H593 0.961 . S
C579 H594 0.961 . S
C579 H595 0.961 . S
C580 C581 1.370 . S
C580 C582 1.363 . S
C580 H596 0.931 . S
C581 C580 1.370 . S
C581 C585 1.408 . S
C582 C580 1.363 . S
C582 C583 1.370 . S
C582 C586 1.524 . S
C583 C575 1.503 . S
C583 C582 1.370 . S
C583 C584 1.403 . S
C584 C583 1.403 . S
C584 C585 1.404 . S
C584 C587 1.539 . S
C585 C581 1.408 . S
C585 C584 1.404 . S
C585 H597 0.930 . S
C586 C582 1.524 . S
C586 H598 0.956 . S
C586 H599 0.961 . S
C586 H600 0.961 . S
C587 C584 1.539 . S
C587 H601 0.958 . S
C587 H602 0.961 . S
C587 H603 0.960 . S
H588 C572 0.931 . S
H589 C577 0.929 . S
H590 C578 0.960 . S
H591 C578 0.962 . S
H592 C578 0.960 . S
H593 C579 0.961 . S
H594 C579 0.961 . S
H595 C579 0.961 . S
H596 C580 0.931 . S
H597 C585 0.930 . S
H598 C586 0.956 . S
H599 C586 0.961 . S
H600 C586 0.961 . S
H601 C587 0.958 . S
H602 C587 0.961 . S
H603 C587 0.960 . S
C604 C605 1.391 . S
C604 C606 1.394 . S
C604 H620 0.931 . S
C605 C604 1.391 . S
C605 C609 1.376 . S
C606 C604 1.394 . S
C606 C607 1.369 . S
C606 C610 1.531 . S
C607 C606 1.369 . S
C607 C608 1.410 . S
C607 C615 1.503 . S
C608 C607 1.410 . S
C608 C609 1.392 . S
C608 C611 1.511 . S
C609 C605 1.376 . S
C609 C608 1.392 . S
C609 H621 0.929 . S
C610 C606 1.531 . S
C610 H622 0.960 . S
C610 H623 0.962 . S
C610 H624 0.960 . S
C611 C608 1.511 . S
C611 H625 0.961 . S
C611 H626 0.961 . S
C611 H627 0.961 . S
C612 C613 1.370 . S
C612 C614 1.363 . S
C612 H628 0.931 . S
C613 C612 1.370 . S
C613 C617 1.408 . S
C614 C612 1.363 . S
C614 C615 1.370 . S
C614 C618 1.524 . S
C615 C607 1.503 . S
C615 C614 1.370 . S
C615 C616 1.403 . S
C616 C615 1.403 . S
C616 C617 1.404 . S
C616 C619 1.539 . S
C617 C613 1.408 . S
C617 C616 1.404 . S
C617 H629 0.930 . S
C618 C614 1.524 . S
C618 H630 0.956 . S
C618 H631 0.961 . S
C618 H632 0.961 . S
C619 C616 1.539 . S
C619 H633 0.958 . S
C619 H634 0.961 . S
C619 H635 0.960 . S
H620 C604 0.931 . S
H621 C609 0.929 . S
H622 C610 0.960 . S
H623 C610 0.962 . S
H624 C610 0.960 . S
H625 C611 0.961 . S
H626 C611 0.961 . S
H627 C611 0.961 . S
H628 C612 0.931 . S
H629 C617 0.930 . S
H630 C618 0.956 . S
H631 C618 0.961 . S
H632 C618 0.961 . S
H633 C619 0.958 . S
H634 C619 0.961 . S
H635 C619 0.960 . S
C636 C637 1.391 . S
C636 C638 1.394 . S
C636 H652 0.931 . S
C637 C636 1.391 . S
C637 C641 1.376 . S
C638 C636 1.394 . S
C638 C639 1.369 . S
C638 C642 1.531 . S
C639 C638 1.369 . S
C639 C640 1.410 . S
C639 C647 1.503 . S
C640 C639 1.410 . S
C640 C641 1.392 . S
C640 C643 1.511 . S
C641 C637 1.376 . S
C641 C640 1.392 . S
C641 H653 0.929 . S
C642 C638 1.531 . S
C642 H654 0.960 . S
C642 H655 0.962 . S
C642 H656 0.960 . S
C643 C640 1.511 . S
C643 H657 0.961 . S
C643 H658 0.961 . S
C643 H659 0.961 . S
C644 C645 1.370 . S
C644 C646 1.363 . S
C644 H660 0.931 . S
C645 C644 1.370 . S
C645 C649 1.408 . S
C646 C644 1.363 . S
C646 C647 1.370 . S
C646 C650 1.524 . S
C647 C639 1.503 . S
C647 C646 1.370 . S
C647 C648 1.403 . S
C648 C647 1.403 . S
C648 C649 1.404 . S
C648 C651 1.539 . S
C649 C645 1.408 . S
C649 C648 1.404 . S
C649 H661 0.930 . S
C650 C646 1.524 . S
C650 H662 0.956 . S
C650 H663 0.961 . S
C650 H664 0.961 . S
C651 C648 1.539 . S
C651 H665 0.958 . S
C651 H666 0.961 . S
C651 H667 0.960 . S
H652 C636 0.931 . S
H653 C641 0.929 . S
H654 C642 0.960 . S
H655 C642 0.962 . S
H656 C642 0.960 . S
H657 C643 0.961 . S
H658 C643 0.961 . S
H659 C643 0.961 . S
H660 C644 0.931 . S
H661 C649 0.930 . S
H662 C650 0.956 . S
H663 C650 0.961 . S
H664 C650 0.961 . S
H665 C651 0.958 . S
H666 C651 0.961 . S
H667 C651 0.960 . S
C668 C669 1.391 . S
C668 C670 1.394 . S
C668 H684 0.931 . S
C669 C668 1.391 . S
C669 C673 1.376 . S
C670 C668 1.394 . S
C670 C671 1.369 . S
C670 C674 1.531 . S
C671 C670 1.369 . S
C671 C672 1.410 . S
C671 C679 1.503 . S
C672 C671 1.410 . S
C672 C673 1.392 . S
C672 C675 1.511 . S
C673 C669 1.376 . S
C673 C672 1.392 . S
C673 H685 0.929 . S
C674 C670 1.531 . S
C674 H686 0.960 . S
C674 H687 0.962 . S
C674 H688 0.960 . S
C675 C672 1.511 . S
C675 H689 0.961 . S
C675 H690 0.961 . S
C675 H691 0.961 . S
C676 C677 1.370 . S
C676 C678 1.363 . S
C676 H692 0.931 . S
C677 C676 1.370 . S
C677 C681 1.408 . S
C678 C676 1.363 . S
C678 C679 1.370 . S
C678 C682 1.524 . S
C679 C671 1.503 . S
C679 C678 1.370 . S
C679 C680 1.403 . S
C680 C679 1.403 . S
C680 C681 1.404 . S
C680 C683 1.539 . S
C681 C677 1.408 . S
C681 C680 1.404 . S
C681 H693 0.930 . S
C682 C678 1.524 . S
C682 H694 0.956 . S
C682 H695 0.961 . S
C682 H696 0.961 . S
C683 C680 1.539 . S
C683 H697 0.958 . S
C683 H698 0.961 . S
C683 H699 0.960 . S
H684 C668 0.931 . S
H685 C673 0.929 . S
H686 C674 0.960 . S
H687 C674 0.962 . S
H688 C674 0.960 . S
H689 C675 0.961 . S
H690 C675 0.961 . S
H691 C675 0.961 . S
H692 C676 0.931 . S
H693 C681 0.930 . S
H694 C682 0.956 . S
H695 C682 0.961 . S
H696 C682 0.961 . S
H697 C683 0.958 . S
H698 C683 0.961 . S
H699 C683 0.960 . S
C700 C701 1.391 . S
C700 C702 1.394 . S
C700 H716 0.931 . S
C701 C700 1.391 . S
C701 C705 1.376 . S
C702 C700 1.394 . S
C702 C703 1.369 . S
C702 C706 1.531 . S
C703 C702 1.369 . S
C703 C704 1.410 . S
C703 C711 1.503 . S
C704 C703 1.410 . S
C704 C705 1.392 . S
C704 C707 1.511 . S
C705 C701 1.376 . S
C705 C704 1.392 . S
C705 H717 0.929 . S
C706 C702 1.531 . S
C706 H718 0.960 . S
C706 H719 0.962 . S
C706 H720 0.960 . S
C707 C704 1.511 . S
C707 H721 0.961 . S
C707 H722 0.961 . S
C707 H723 0.961 . S
C708 C709 1.370 . S
C708 C710 1.363 . S
C708 H724 0.931 . S
C709 C708 1.370 . S
C709 C713 1.408 . S
C710 C708 1.363 . S
C710 C711 1.370 . S
C710 C714 1.524 . S
C711 C703 1.503 . S
C711 C710 1.370 . S
C711 C712 1.403 . S
C712 C711 1.403 . S
C712 C713 1.404 . S
C712 C715 1.539 . S
C713 C709 1.408 . S
C713 C712 1.404 . S
C713 H725 0.930 . S
C714 C710 1.524 . S
C714 H726 0.956 . S
C714 H727 0.961 . S
C714 H728 0.961 . S
C715 C712 1.539 . S
C715 H729 0.958 . S
C715 H730 0.961 . S
C715 H731 0.960 . S
H716 C700 0.931 . S
H717 C705 0.929 . S
H718 C706 0.960 . S
H719 C706 0.962 . S
H720 C706 0.960 . S
H721 C707 0.961 . S
H722 C707 0.961 . S
H723 C707 0.961 . S
H724 C708 0.931 . S
H725 C713 0.930 . S
H726 C714 0.956 . S
H727 C714 0.961 . S
H728 C714 0.961 . S
H729 C715 0.958 . S
H730 C715 0.961 . S
H731 C715 0.960 . S
C732 C733 1.391 . S
C732 C734 1.394 . S
C732 H748 0.931 . S
C733 C732 1.391 . S
C733 C737 1.376 . S
C734 C732 1.394 . S
C734 C735 1.369 . S
C734 C738 1.531 . S
C735 C734 1.369 . S
C735 C736 1.410 . S
C735 C743 1.503 . S
C736 C735 1.410 . S
C736 C737 1.392 . S
C736 C739 1.511 . S
C737 C733 1.376 . S
C737 C736 1.392 . S
C737 H749 0.929 . S
C738 C734 1.531 . S
C738 H750 0.960 . S
C738 H751 0.962 . S
C738 H752 0.960 . S
C739 C736 1.511 . S
C739 H753 0.961 . S
C739 H754 0.961 . S
C739 H755 0.961 . S
C740 C741 1.370 . S
C740 C742 1.363 . S
C740 H756 0.931 . S
C741 C740 1.370 . S
C741 C745 1.408 . S
C742 C740 1.363 . S
C742 C743 1.370 . S
C742 C746 1.524 . S
C743 C735 1.503 . S
C743 C742 1.370 . S
C743 C744 1.403 . S
C744 C743 1.403 . S
C744 C745 1.404 . S
C744 C747 1.539 . S
C745 C741 1.408 . S
C745 C744 1.404 . S
C745 H757 0.930 . S
C746 C742 1.524 . S
C746 H758 0.956 . S
C746 H759 0.961 . S
C746 H760 0.961 . S
C747 C744 1.539 . S
C747 H761 0.958 . S
C747 H762 0.961 . S
C747 H763 0.960 . S
H748 C732 0.931 . S
H749 C737 0.929 . S
H750 C738 0.960 . S
H751 C738 0.962 . S
H752 C738 0.960 . S
H753 C739 0.961 . S
H754 C739 0.961 . S
H755 C739 0.961 . S
H756 C740 0.931 . S
H757 C745 0.930 . S
H758 C746 0.956 . S
H759 C746 0.961 . S
H760 C746 0.961 . S
H761 C747 0.958 . S
H762 C747 0.961 . S
H763 C747 0.960 . S
C764 C765 1.391 . S
C764 C766 1.394 . S
C764 H780 0.931 . S
C765 C764 1.391 . S
C765 C769 1.376 . S
C766 C764 1.394 . S
C766 C767 1.369 . S
C766 C770 1.531 . S
C767 C766 1.369 . S
C767 C768 1.410 . S
C767 C775 1.503 . S
C768 C767 1.410 . S
C768 C769 1.392 . S
C768 C771 1.511 . S
C769 C765 1.376 . S
C769 C768 1.392 . S
C769 H781 0.929 . S
C770 C766 1.531 . S
C770 H782 0.960 . S
C770 H783 0.962 . S
C770 H784 0.960 . S
C771 C768 1.511 . S
C771 H785 0.961 . S
C771 H786 0.961 . S
C771 H787 0.961 . S
C772 C773 1.370 . S
C772 C774 1.363 . S
C772 H788 0.931 . S
C773 C772 1.370 . S
C773 C777 1.408 . S
C774 C772 1.363 . S
C774 C775 1.370 . S
C774 C778 1.524 . S
C775 C767 1.503 . S
C775 C774 1.370 . S
C775 C776 1.403 . S
C776 C775 1.403 . S
C776 C777 1.404 . S
C776 C779 1.539 . S
C777 C773 1.408 . S
C777 C776 1.404 . S
C777 H789 0.930 . S
C778 C774 1.524 . S
C778 H790 0.956 . S
C778 H791 0.961 . S
C778 H792 0.961 . S
C779 C776 1.539 . S
C779 H793 0.958 . S
C779 H794 0.961 . S
C779 H795 0.960 . S
H780 C764 0.931 . S
H781 C769 0.929 . S
H782 C770 0.960 . S
H783 C770 0.962 . S
H784 C770 0.960 . S
H785 C771 0.961 . S
H786 C771 0.961 . S
H787 C771 0.961 . S
H788 C772 0.931 . S
H789 C777 0.930 . S
H790 C778 0.956 . S
H791 C778 0.961 . S
H792 C778 0.961 . S
H793 C779 0.958 . S
H794 C779 0.961 . S
H795 C779 0.960 . S
C796 C797 1.391 . S
C796 C798 1.394 . S
C796 H812 0.931 . S
C797 C796 1.391 . S
C797 C801 1.376 . S
C798 C796 1.394 . S
C798 C799 1.369 . S
C798 C802 1.531 . S
C799 C798 1.369 . S
C799 C800 1.410 . S
C799 C807 1.503 . S
C800 C799 1.410 . S
C800 C801 1.392 . S
C800 C803 1.511 . S
C801 C797 1.376 . S
C801 C800 1.392 . S
C801 H813 0.929 . S
C802 C798 1.531 . S
C802 H814 0.960 . S
C802 H815 0.962 . S
C802 H816 0.960 . S
C803 C800 1.511 . S
C803 H817 0.961 . S
C803 H818 0.961 . S
C803 H819 0.961 . S
C804 C805 1.370 . S
C804 C806 1.363 . S
C804 H820 0.931 . S
C805 C804 1.370 . S
C805 C809 1.408 . S
C806 C804 1.363 . S
C806 C807 1.370 . S
C806 C810 1.524 . S
C807 C799 1.503 . S
C807 C806 1.370 . S
C807 C808 1.403 . S
C808 C807 1.403 . S
C808 C809 1.404 . S
C808 C811 1.539 . S
C809 C805 1.408 . S
C809 C808 1.404 . S
C809 H821 0.930 . S
C810 C806 1.524 . S
C810 H822 0.956 . S
C810 H823 0.961 . S
C810 H824 0.961 . S
C811 C808 1.539 . S
C811 H825 0.958 . S
C811 H826 0.961 . S
C811 H827 0.960 . S
H812 C796 0.931 . S
H813 C801 0.929 . S
H814 C802 0.960 . S
H815 C802 0.962 . S
H816 C802 0.960 . S
H817 C803 0.961 . S
H818 C803 0.961 . S
H819 C803 0.961 . S
H820 C804 0.931 . S
H821 C809 0.930 . S
H822 C810 0.956 . S
H823 C810 0.961 . S
H824 C810 0.961 . S
H825 C811 0.958 . S
H826 C811 0.961 . S
H827 C811 0.960 . S
C828 C829 1.391 . S
C828 C830 1.394 . S
C828 H844 0.931 . S
C829 C828 1.391 . S
C829 C833 1.376 . S
C830 C828 1.394 . S
C830 C831 1.369 . S
C830 C834 1.531 . S
C831 C830 1.369 . S
C831 C832 1.410 . S
C831 C839 1.503 . S
C832 C831 1.410 . S
C832 C833 1.392 . S
C832 C835 1.511 . S
C833 C829 1.376 . S
C833 C832 1.392 . S
C833 H845 0.929 . S
C834 C830 1.531 . S
C834 H846 0.960 . S
C834 H847 0.962 . S
C834 H848 0.960 . S
C835 C832 1.511 . S
C835 H849 0.961 . S
C835 H850 0.961 . S
C835 H851 0.961 . S
C836 C837 1.370 . S
C836 C838 1.363 . S
C836 H852 0.931 . S
C837 C836 1.370 . S
C837 C841 1.408 . S
C838 C836 1.363 . S
C838 C839 1.370 . S
C838 C842 1.524 . S
C839 C831 1.503 . S
C839 C838 1.370 . S
C839 C840 1.403 . S
C840 C839 1.403 . S
C840 C841 1.404 . S
C840 C843 1.539 . S
C841 C837 1.408 . S
C841 C840 1.404 . S
C841 H853 0.930 . S
C842 C838 1.524 . S
C842 H854 0.956 . S
C842 H855 0.961 . S
C842 H856 0.961 . S
C843 C840 1.539 . S
C843 H857 0.958 . S
C843 H858 0.961 . S
C843 H859 0.960 . S
H844 C828 0.931 . S
H845 C833 0.929 . S
H846 C834 0.960 . S
H847 C834 0.962 . S
H848 C834 0.960 . S
H849 C835 0.961 . S
H850 C835 0.961 . S
H851 C835 0.961 . S
H852 C836 0.931 . S
H853 C841 0.930 . S
H854 C842 0.956 . S
H855 C842 0.961 . S
H856 C842 0.961 . S
H857 C843 0.958 . S
H858 C843 0.961 . S
H859 C843 0.960 . S
C860 C861 1.391 . S
C860 C862 1.394 . S
C860 H876 0.931 . S
C861 C860 1.391 . S
C861 C865 1.376 . S
C862 C860 1.394 . S
C862 C863 1.369 . S
C862 C866 1.531 . S
C863 C862 1.369 . S
C863 C864 1.410 . S
C863 C871 1.503 . S
C864 C863 1.410 . S
C864 C865 1.392 . S
C864 C867 1.511 . S
C865 C861 1.376 . S
C865 C864 1.392 . S
C865 H877 0.929 . S
C866 C862 1.531 . S
C866 H878 0.960 . S
C866 H879 0.962 . S
C866 H880 0.960 . S
C867 C864 1.511 . S
C867 H881 0.961 . S
C867 H882 0.961 . S
C867 H883 0.961 . S
C868 C869 1.370 . S
C868 C870 1.363 . S
C868 H884 0.931 . S
C869 C868 1.370 . S
C869 C873 1.408 . S
C870 C868 1.363 . S
C870 C871 1.370 . S
C870 C874 1.524 . S
C871 C863 1.503 . S
C871 C870 1.370 . S
C871 C872 1.403 . S
C872 C871 1.403 . S
C872 C873 1.404 . S
C872 C875 1.539 . S
C873 C869 1.408 . S
C873 C872 1.404 . S
C873 H885 0.930 . S
C874 C870 1.524 . S
C874 H886 0.956 . S
C874 H887 0.961 . S
C874 H888 0.961 . S
C875 C872 1.539 . S
C875 H889 0.958 . S
C875 H890 0.961 . S
C875 H891 0.960 . S
H876 C860 0.931 . S
H877 C865 0.929 . S
H878 C866 0.960 . S
H879 C866 0.962 . S
H880 C866 0.960 . S
H881 C867 0.961 . S
H882 C867 0.961 . S
H883 C867 0.961 . S
H884 C868 0.931 . S
H885 C873 0.930 . S
H886 C874 0.956 . S
H887 C874 0.961 . S
H888 C874 0.961 . S
H889 C875 0.958 . S
H890 C875 0.961 . S
H891 C875 0.960 . S
C892 C893 1.391 . S
C892 C894 1.394 . S
C892 H908 0.931 . S
C893 C892 1.391 . S
C893 C897 1.376 . S
C894 C892 1.394 . S
C894 C895 1.369 . S
C894 C898 1.531 . S
C895 C894 1.369 . S
C895 C896 1.410 . S
C895 C903 1.503 . S
C896 C895 1.410 . S
C896 C897 1.392 . S
C896 C899 1.511 . S
C897 C893 1.376 . S
C897 C896 1.392 . S
C897 H909 0.929 . S
C898 C894 1.531 . S
C898 H910 0.960 . S
C898 H911 0.962 . S
C898 H912 0.960 . S
C899 C896 1.511 . S
C899 H913 0.961 . S
C899 H914 0.961 . S
C899 H915 0.961 . S
C900 C901 1.370 . S
C900 C902 1.363 . S
C900 H916 0.931 . S
C901 C900 1.370 . S
C901 C905 1.408 . S
C902 C900 1.363 . S
C902 C903 1.370 . S
C902 C906 1.524 . S
C903 C895 1.503 . S
C903 C902 1.370 . S
C903 C904 1.403 . S
C904 C903 1.403 . S
C904 C905 1.404 . S
C904 C907 1.539 . S
C905 C901 1.408 . S
C905 C904 1.404 . S
C905 H917 0.930 . S
C906 C902 1.524 . S
C906 H918 0.956 . S
C906 H919 0.961 . S
C906 H920 0.961 . S
C907 C904 1.539 . S
C907 H921 0.958 . S
C907 H922 0.961 . S
C907 H923 0.960 . S
H908 C892 0.931 . S
H909 C897 0.929 . S
H910 C898 0.960 . S
H911 C898 0.962 . S
H912 C898 0.960 . S
H913 C899 0.961 . S
H914 C899 0.961 . S
H915 C899 0.961 . S
H916 C900 0.931 . S
H917 C905 0.930 . S
H918 C906 0.956 . S
H919 C906 0.961 . S
H920 C906 0.961 . S
H921 C907 0.958 . S
H922 C907 0.961 . S
H923 C907 0.960 . S
C157 C10 1.331 . S
C165 C153 1.339 . S
C189 C88 1.326 . S
C197 C23 1.339 . S
C221 C36 1.340 . S
C229 C101 1.337 . S
C253 C114 1.326 . S
C261 C49 1.329 . S
C285 C127 1.343 . S
C293 C62 1.331 . S
C317 C140 1.319 . S
C325 C75 1.337 . S
C349 C47 1.337 . S
C357 C112 1.351 . S
C381 C60 1.314 . S
C389 C125 1.340 . S
C413 C73 1.358 . S
C421 C138 1.355 . S
C445 C151 1.383 . S
C453 C8 1.369 . S
C477 C21 1.338 . S
C485 C86 1.347 . S
C509 C34 1.334 . S
C517 C99 1.350 . S
C541 C109 1.458 . S
C549 C5 1.474 . S
C573 C122 1.480 . S
C581 C18 1.482 . S
C605 C31 1.444 . S
C613 C135 1.465 . S
C637 C44 1.496 . S
C645 C148 1.484 . S
C669 C57 1.448 . S
C677 C83 1.463 . S
C701 C96 1.482 . S
C709 C70 1.483 . S
C733 C0 1.293 . S
C741 C130 1.316 . S
C765 C143 1.323 . S
C773 C13 1.304 . S
C797 C26 1.313 . S
C805 C78 1.308 . S
C829 C39 1.326 . S
C837 C91 1.310 . S
C861 C52 1.287 . S
C869 C104 1.324 . S
C893 C65 1.287 . S
C901 C117 1.324 . S
