# Generated by pormake.
# Topology snp, (6)-cn, num edge types: 1
# Building blocks:
#     Node 0, Type 0, BuildingBlock: PAMTUU_clean_sbu_0, # of connection points: 6
#     Node 1, Type 0, BuildingBlock: PAMTUU_clean_sbu_0, # of connection points: 6
#     Node 2, Type 0, BuildingBlock: PAMTUU_clean_sbu_0, # of connection points: 6
#     Node 3, Type 0, BuildingBlock: PAMTUU_clean_sbu_0, # of connection points: 6
#     Edge 4, Type (0, 0), BuildingBlock: FUNLAD_clean_linker_0, # of connection points: 2
#     Edge 5, Type (0, 0), BuildingBlock: FUNLAD_clean_linker_0, # of connection points: 2
#     Edge 6, Type (0, 0), BuildingBlock: FUNLAD_clean_linker_0, # of connection points: 2
#     Edge 7, Type (0, 0), BuildingBlock: FUNLAD_clean_linker_0, # of connection points: 2
#     Edge 8, Type (0, 0), BuildingBlock: FUNLAD_clean_linker_0, # of connection points: 2
#     Edge 9, Type (0, 0), BuildingBlock: FUNLAD_clean_linker_0, # of connection points: 2
#     Edge 10, Type (0, 0), BuildingBlock: FUNLAD_clean_linker_0, # of connection points: 2
#     Edge 11, Type (0, 0), BuildingBlock: FUNLAD_clean_linker_0, # of connection points: 2
#     Edge 12, Type (0, 0), BuildingBlock: FUNLAD_clean_linker_0, # of connection points: 2
#     Edge 13, Type (0, 0), BuildingBlock: FUNLAD_clean_linker_0, # of connection points: 2
#     Edge 14, Type (0, 0), BuildingBlock: FUNLAD_clean_linker_0, # of connection points: 2
#     Edge 15, Type (0, 0), BuildingBlock: FUNLAD_clean_linker_0, # of connection points: 2
# Relax obj value: 0.370
# Max RMSD: 0.228
# Mean RMSD: 0.216
data_MOF--net-snp--node1-PAMTUU_clean_sbu_0--edge1-FUNLAD_clean_linker_0
_symmetry_space_group_name_H-M    P1
_symmetry_Int_Tables_number       1
_symmetry_cell_setting            triclinic
loop_
_symmetry_equiv_pos_as_xyz
'x, y, z'
_cell_length_a     28.842591
_cell_length_b     29.114684
_cell_length_c     38.812731
_cell_angle_alpha  96.385937
_cell_angle_beta   87.514682
_cell_angle_gamma 98.922529
loop_
_atom_site_label
_atom_site_type_symbol
_atom_site_fract_x
_atom_site_fract_y
_atom_site_fract_z
_atom_type_partial_charge
Tb0 Tb 0.23353 0.96215 0.19013 0.0
Tb1 Tb 0.27141 0.06849 0.22332 0.0
C2 C 0.16567 0.02204 0.23453 0.0
C3 C 0.22229 0.85608 0.12803 0.0
C4 C 0.23957 0.81358 0.061 0.0
C5 C 0.20157 0.7944 0.0815 0.0
C6 C 0.19308 0.8155 0.11485 0.0
C7 C 0.26047 0.87504 0.1078 0.0
C8 C 0.26916 0.85388 0.07464 0.0
C9 C 0.21205 0.87948 0.16232 0.0
O10 O 0.21292 0.00665 0.15305 0.0
O11 O 0.26206 0.07567 0.16759 0.0
O12 O 0.33146 0.03159 0.21235 0.0
O13 O 0.30209 0.98338 0.16615 0.0
O14 O 0.2661 0.1399 0.23522 0.0
O15 O 0.32705 0.11241 0.24883 0.0
O16 O 0.25076 0.03056 0.26899 0.0
O17 O 0.25114 0.95544 0.24397 0.0
O18 O 0.1745 0.98028 0.22234 0.0
O19 O 0.19621 0.0602 0.23255 0.0
C20 C 0.23219 0.04888 0.14596 0.0
O21 O 0.24825 0.89349 0.18191 0.0
O22 O 0.18493 0.91145 0.16266 0.0
C23 C 0.33817 1.00523 0.18359 0.0
C24 C 0.29716 0.16447 0.2907 0.0
C25 C 0.29292 0.1837 0.36349 0.0
C26 C 0.32946 0.20724 0.34393 0.0
C27 C 0.33176 0.19736 0.30773 0.0
C28 C 0.2595 0.14275 0.31011 0.0
C29 C 0.25743 0.15222 0.34609 0.0
C30 C 0.30354 0.14736 0.25392 0.0
C31 C 0.24805 0.9855 0.27179 0.0
H32 H 0.17828 0.76331 0.07164 0.0
H33 H 0.16338 0.80054 0.13016 0.0
H34 H 0.28316 0.90665 0.11743 0.0
H35 H 0.29814 0.86999 0.05924 0.0
H36 H 0.3573 0.23157 0.35673 0.0
H37 H 0.36143 0.21397 0.29323 0.0
H38 H 0.23254 0.11701 0.29758 0.0
H39 H 0.22849 0.13409 0.36045 0.0
Tb40 Tb 0.04567 0.2434 0.70558 0.0
Tb41 Tb 0.99691 0.223 0.62237 0.0
C42 C 0.03012 0.32757 0.66286 0.0
C43 C 0.0886 0.22259 0.80073 0.0
C44 C 0.1194 0.1977 0.86561 0.0
C45 C 0.14649 0.23231 0.84707 0.0
C46 C 0.13147 0.24438 0.81534 0.0
C47 C 0.06134 0.18838 0.8193 0.0
C48 C 0.0763 0.17627 0.85092 0.0
C49 C 0.07405 0.23187 0.76518 0.0
O50 O 0.97925 0.26973 0.71096 0.0
O51 O 0.94128 0.22672 0.66291 0.0
O52 O 0.02762 0.16194 0.63409 0.0
O53 O 1.00109 0.18064 0.68622 0.0
O54 O 0.98674 0.24304 0.57277 0.0
O55 O 0.9504 0.17778 0.5882 0.0
O56 O 0.07166 0.23899 0.61379 0.0
O57 O 0.10254 0.23144 0.6674 0.0
O58 O 0.04944 0.31367 0.68974 0.0
O59 O 0.00679 0.29882 0.63815 0.0
C60 C 0.94104 0.25245 0.6934 0.0
O61 O 0.0343 0.21159 0.75207 0.0
O62 O 0.09698 0.26198 0.7455 0.0
C63 C 0.02109 0.15111 0.66587 0.0
C64 C 0.95572 0.18522 0.52571 0.0
C65 C 0.93747 0.15198 0.45382 0.0
C66 C 0.9264 0.12239 0.48053 0.0
C67 C 0.9351 0.13873 0.51571 0.0
C68 C 0.96771 0.21453 0.49904 0.0
C69 C 0.95889 0.19828 0.46388 0.0
C70 C 0.95736 0.20533 0.56345 0.0
C71 C 0.10672 0.23664 0.63382 0.0
H72 H 0.18017 0.24958 0.85656 0.0
H73 H 0.15406 0.2703 0.80188 0.0
H74 H 0.02832 0.17022 0.80911 0.0
H75 H 0.05354 0.15007 0.86395 0.0
H76 H 0.90931 0.08676 0.47451 0.0
H77 H 0.92416 0.11515 0.53523 0.0
H78 H 0.98276 0.25079 0.50542 0.0
H79 H 0.96875 0.22236 0.44456 0.0
Tb80 Tb 0.84185 0.94393 0.07746 0.0
Tb81 Tb 0.83022 0.04671 0.05555 0.0
C82 C 0.92257 0.02826 0.0862 0.0
C83 C 0.82726 0.84326 0.12667 0.0
C84 C 0.80181 0.81838 0.19383 0.0
C85 C 0.84249 0.80518 0.1767 0.0
C86 C 0.8551 0.81757 0.14338 0.0
C87 C 0.78543 0.85444 0.143 0.0
C88 C 0.77267 0.84183 0.17613 0.0
C89 C 0.84509 0.86381 0.09481 0.0
O90 O 0.84119 0.98409 0.12835 0.0
O91 O 0.82712 0.05555 0.1136 0.0
O92 O 0.7651 0.9987 0.04629 0.0
O93 O 0.77064 0.95678 0.09103 0.0
O94 O 0.85418 0.10791 1.03247 0.0
O95 O 0.78429 0.09625 0.05555 0.0
O96 O 0.86522 0.0131 1.00993 0.0
O97 O 0.844 0.93659 1.02032 0.0
O98 O 0.91187 0.98417 0.07354 0.0
O99 O 0.89461 0.05862 0.0827 0.0
C100 C 0.83471 0.02772 0.13718 0.0
O101 O 0.81359 0.87267 0.07431 0.0
O102 O 0.87932 0.89862 0.09943 0.0
C103 C 0.74474 0.97463 0.07079 0.0
C104 C 0.79513 0.13889 1.00686 0.0
C105 C 0.76985 0.17667 0.94789 0.0
C106 C 0.763 0.19913 0.98134 0.0
C107 C 0.77573 0.18043 1.01056 0.0
C108 C 0.79922 0.11473 0.97381 0.0
C109 C 0.78686 0.13353 0.94456 0.0
C110 C 0.81385 0.123 0.03728 0.0
C111 C 0.862 0.96803 0.99948 0.0
H112 H 0.86599 0.78758 0.18973 0.0
H113 H 0.88778 0.80913 0.13138 0.0
H114 H 0.7635 0.87466 0.13081 0.0
H115 H 0.74077 0.85189 0.18837 0.0
H116 H 0.74929 0.23197 0.98486 0.0
H117 H 0.77193 0.19927 0.03597 0.0
H118 H 0.81386 0.08236 0.97049 0.0
H119 H 0.79319 0.11549 0.91927 0.0
Tb120 Tb 0.11813 0.84564 0.64069 0.0
Tb121 Tb 0.00947 0.84594 0.62075 0.0
C122 C 0.07978 0.93441 0.64399 0.0
C123 C 0.21864 0.82582 0.68843 0.0
C124 C 0.24004 0.79149 0.75008 0.0
C125 C 0.25127 0.83939 0.74595 0.0
C126 C 0.24082 0.85632 0.71538 0.0
C127 C 0.20985 0.77757 0.69171 0.0
C128 C 0.22058 0.76061 0.72219 0.0
C129 C 0.20052 0.84516 0.659 0.0
O130 O 0.08104 0.86143 0.69124 0.0
O131 O 0.0034 0.83924 0.67667 0.0
O132 O 0.02445 0.77384 0.60906 0.0
O133 O 0.08079 0.77762 0.64904 0.0
O134 O 0.95872 0.8836 0.60597 0.0
O135 O 0.94072 0.81043 0.61303 0.0
O136 O 0.05026 0.86352 0.57361 0.0
O137 O 0.12066 0.83981 0.58319 0.0
O138 O 0.10811 0.91145 0.62473 0.0
O139 O 0.03716 0.91291 0.64957 0.0
C140 C 0.03576 0.85312 0.70027 0.0
O141 O 0.17946 0.81492 0.63504 0.0
O142 O 0.17751 0.88026 0.66734 0.0
C143 C 0.04923 0.75305 0.6286 0.0
C144 C 0.90562 0.83723 0.56671 0.0
C145 C 0.86556 0.81761 0.50069 0.0
C146 C 0.84717 0.79191 0.52806 0.0
C147 C 0.8669 0.80186 0.56088 0.0
C148 C 0.92406 0.86275 0.53923 0.0
C149 C 0.9041 0.85316 0.50665 0.0
C150 C 0.92738 0.84625 0.60103 0.0
C151 C 0.09232 0.85501 0.56251 0.0
H152 H 0.26579 0.86427 0.76702 0.0
H153 H 0.248 0.89362 0.71347 0.0
H154 H 0.19301 0.75299 0.67134 0.0
H155 H 0.21227 0.72344 0.72431 0.0
H156 H 0.81738 0.76441 0.52412 0.0
H157 H 0.85217 0.78167 0.58165 0.0
H158 H 0.95423 0.8899 0.54268 0.0
H159 H 0.91947 0.873 0.48587 0.0
C160 C 0.9652 0.08782 0.12885 0.0
C161 C 0.95267 0.04037 0.11655 0.0
C162 C 0.97606 0.10096 0.16355 0.0
C163 C 0.97471 0.06705 0.18664 0.0
C164 C 0.96645 0.01942 0.17358 0.0
C165 C 0.95574 1.00625 0.13884 0.0
C166 C 0.98821 0.08232 0.223 0.0
C167 C 0.98279 0.0525 0.2475 0.0
C168 C 0.0262 0.04204 0.2615 0.0
C169 C 0.06295 0.07828 0.27092 0.0
C170 C 0.1093 0.07081 0.26488 0.0
C171 C 0.11901 0.02686 0.25014 0.0
H172 H 0.00825 0.96766 0.2467 0.0
C173 C 0.08248 0.98882 0.24735 0.0
C174 C 0.03616 0.99637 0.25337 0.0
H175 H 0.08906 0.95412 0.23733 0.0
H176 H 0.96313 0.11495 0.11224 0.0
H177 H 0.98414 0.13781 0.1726 0.0
H178 H 0.96766 0.99202 0.19005 0.0
H179 H 0.94617 0.96944 0.13029 0.0
H180 H 0.01455 0.11341 0.22625 0.0
H181 H 0.95381 0.02374 0.24526 0.0
H182 H 0.05591 0.11356 0.27842 0.0
H183 H 0.13703 0.10041 0.26888 0.0
C184 C 0.07992 0.97908 0.7029 0.0
C185 C 0.10194 0.97055 0.67033 0.0
C186 C 0.10474 0.00675 0.72978 0.0
C187 C 0.15155 0.02692 0.72425 0.0
C188 C 0.17356 0.01862 0.69186 0.0
C189 C 0.14894 0.99079 0.66508 0.0
C190 C 0.1737 0.06488 0.74926 0.0
C191 C 0.16183 0.10782 0.75036 0.0
C192 C 0.1256 0.11709 0.72739 0.0
C193 C 0.07878 0.11221 0.73908 0.0
C194 C 0.04363 0.11698 0.71683 0.0
C195 C 0.05485 0.12824 0.68282 0.0
H196 H 0.17246 0.12548 0.68269 0.0
C197 C 0.10126 0.12894 0.67023 0.0
C198 C 0.13657 0.12378 0.69251 0.0
H199 H 0.11078 0.13653 0.64407 0.0
H200 H 0.04401 0.96352 0.70793 0.0
H201 H 0.08698 0.01378 0.75454 0.0
H202 H 0.20919 0.03513 0.68693 0.0
H203 H 0.16697 0.98459 0.64031 0.0
H204 H 0.20094 0.0585 0.76577 0.0
H205 H 0.17807 0.1358 0.76884 0.0
H206 H 0.06947 0.10481 0.76545 0.0
H207 H 0.00794 0.11546 0.72709 0.0
C208 C 0.67297 0.95403 0.10852 0.0
C209 C 0.69331 0.97225 0.0783 0.0
C210 C 0.62553 0.95544 0.11742 0.0
C211 C 0.59702 0.97502 0.09626 0.0
C212 C 0.61689 0.99155 0.0654 0.0
C213 C 0.6645 0.99059 0.05666 0.0
C214 C 0.54657 0.97831 0.10543 0.0
C215 C 0.52973 0.98302 0.13849 0.0
C216 C 0.48014 0.9889 0.14862 0.0
C217 C 0.47094 0.011 0.18173 0.0
C218 C 0.42511 0.01661 0.19281 0.0
C219 C 0.38688 0.99955 0.17129 0.0
H220 H 0.44729 0.95357 0.10157 0.0
C221 C 0.39586 0.97693 0.13822 0.0
C222 C 0.44194 0.97178 0.12694 0.0
H223 H 0.36728 0.96317 0.12098 0.0
H224 H 0.69392 0.93939 0.12577 0.0
H225 H 0.61132 0.94095 0.14084 0.0
H226 H 0.59577 1.00634 0.04835 0.0
H227 H 0.67884 1.00483 1.03316 0.0
H228 H 0.52357 0.98012 0.08436 0.0
H229 H 0.55401 0.98556 0.15948 0.0
H230 H 0.49945 0.02426 0.19915 0.0
H231 H 0.41968 0.034 0.21849 0.0
C232 C 0.01544 0.39562 0.63186 0.0
C233 C 0.03292 0.3789 0.66069 0.0
C234 C 0.01803 0.44375 0.62961 0.0
C235 C 0.03799 0.47672 0.65631 0.0
C236 C 0.05544 0.45991 0.68505 0.0
C237 C 0.05298 0.41183 0.68725 0.0
C238 C 0.04295 0.52865 0.65516 0.0
C239 C 0.02364 0.5504 0.63146 0.0
C240 C 0.03072 0.60251 0.63078 0.0
C241 C 0.99932 0.62309 0.61269 0.0
C242 C 0.00513 0.6718 0.61146 0.0
C243 C 0.04266 0.70111 0.62826 0.0
H244 H 0.09516 0.61806 0.65982 0.0
C245 C 0.07452 0.68036 0.64571 0.0
C246 C 0.06888 0.63197 0.64679 0.0
H247 H 0.10435 0.70153 0.65856 0.0
H248 H 0.99995 0.37152 0.6107 0.0
H249 H 0.00484 0.45455 0.60665 0.0
H250 H 0.07128 0.48414 0.70603 0.0
H251 H 0.06683 0.4006 0.70987 0.0
H252 H 0.0631 0.54993 0.67571 0.0
H253 H 1.00071 0.52984 0.61221 0.0
H254 H 0.96989 0.60144 0.59967 0.0
H255 H 0.98 0.68645 0.59769 0.0
C256 C 0.18594 0.27289 0.61374 0.0
C257 C 0.15164 0.23327 0.61516 0.0
C258 C 0.22135 0.27359 0.58773 0.0
C259 C 0.22324 0.2345 0.56318 0.0
C260 C 0.19024 0.19401 0.56617 0.0
C261 C 0.15465 0.1937 0.59158 0.0
C262 C 0.2537 0.2389 0.53138 0.0
C263 C 0.26748 0.20135 0.51256 0.0
C264 C 0.28134 0.19929 0.47504 0.0
C265 C 0.29264 0.23913 0.45692 0.0
C266 C 0.29828 0.23428 0.42067 0.0
C267 C 0.29239 0.18969 0.40196 0.0
H268 H 0.27039 0.12352 0.46937 0.0
C269 C 0.28381 0.15011 0.42024 0.0
C270 C 0.27865 0.15489 0.45627 0.0
H271 H 0.2801 0.11527 0.40654 0.0
H272 H 0.18324 0.30438 0.63094 0.0
H273 H 0.24574 0.30551 0.58565 0.0
H274 H 0.18901 0.16379 0.5471 0.0
H275 H 0.12724 0.16367 0.59091 0.0
H276 H 0.25982 0.27287 0.52165 0.0
H277 H 0.26255 0.1684 0.52393 0.0
H278 H 0.29616 0.27404 0.47029 0.0
H279 H 0.30534 0.26537 0.40719 0.0
C280 C 0.89147 0.29409 0.73657 0.0
C281 C 0.89575 0.25597 0.71178 0.0
C282 C 0.85316 0.29261 0.75986 0.0
C283 C 0.81916 0.25216 0.75947 0.0
C284 C 0.82094 0.21639 0.73218 0.0
C285 C 0.85887 0.2183 0.70843 0.0
C286 C 0.78612 0.24263 0.78931 0.0
C287 C 0.79495 0.26318 0.82175 0.0
C288 C 0.77625 0.24281 0.85399 0.0
C289 C 0.78734 0.26937 0.88581 0.0
C290 C 0.78203 0.24858 0.91671 0.0
C291 C 0.76523 0.20059 0.91656 0.0
H292 H 0.74653 0.17355 0.83046 0.0
C293 C 0.74999 0.17492 0.88519 0.0
C294 C 0.75557 0.19567 0.85417 0.0
H295 H 0.73601 0.13807 0.88431 0.0
H296 H 0.91894 0.32413 0.73904 0.0
H297 H 0.8519 0.32227 0.77908 0.0
H298 H 0.79492 0.18515 0.73079 0.0
H299 H 0.86114 0.18855 0.68935 0.0
H300 H 0.75846 0.21293 0.78529 0.0
H301 H 0.82219 0.29325 0.82563 0.0
H302 H 0.80333 0.3057 0.88658 0.0
H303 H 0.79447 0.2695 0.94027 0.0
C304 C 0.83751 0.84387 0.44721 0.0
C305 C 0.84561 0.8072 0.46567 0.0
C306 C 0.82323 0.83494 0.41293 0.0
C307 C 0.81661 0.78898 0.39632 0.0
C308 C 0.82372 0.75219 0.41504 0.0
C309 C 0.83766 0.76113 0.44954 0.0
C310 C 0.80739 0.77939 0.35865 0.0
C311 C 0.78477 0.8069 0.34171 0.0
C312 C 0.78426 0.80557 0.3033 0.0
C313 C 0.77355 0.84504 0.28941 0.0
C314 C 0.77778 0.8484 0.25383 0.0
C315 C 0.79242 0.81206 0.23109 0.0
H316 H 0.80392 0.73638 0.28975 0.0
C317 C 0.80092 0.77146 0.24469 0.0
C318 C 0.79676 0.76811 0.28042 0.0
H319 H 0.8114 0.7425 0.22774 0.0
H320 H 0.84327 0.8797 0.45907 0.0
H321 H 0.81962 0.86448 0.39916 0.0
H322 H 0.81943 0.71658 0.40272 0.0
H323 H 0.84413 0.73226 0.4631 0.0
H324 H 0.82219 0.75049 0.34466 0.0
H325 H 0.76907 0.83465 0.35666 0.0
H326 H 0.76373 0.8744 0.30629 0.0
H327 H 0.77153 0.88047 0.24439 0.0
C328 C 0.2819 0.79408 0.80585 0.0
C329 C 0.24422 0.7748 0.78444 0.0
C330 C 0.28199 0.78375 0.84013 0.0
C331 C 0.24443 0.7534 0.85371 0.0
C332 C 0.20821 0.7321 0.83161 0.0
C333 C 0.20801 0.74267 0.79743 0.0
C334 C 0.23841 0.74754 0.89134 0.0
C335 C 0.27141 0.76387 0.91501 0.0
C336 C 0.26133 0.76894 0.95303 0.0
C337 C 0.29923 0.77801 0.97556 0.0
C338 C 0.29202 0.79035 1.01097 0.0
C339 C 0.24666 0.79396 1.02461 0.0
H340 H 0.1854 0.76541 0.95075 0.0
C341 C 0.20844 0.7828 1.00246 0.0
C342 C 0.21563 0.77068 0.96704 0.0
H343 H 0.17316 0.78602 1.01214 0.0
H344 H 0.31065 0.81848 0.79646 0.0
H345 H 0.31054 0.80157 0.85598 0.0
H346 H 0.1787 0.7088 0.84127 0.0
H347 H 0.17808 0.72756 0.78184 0.0
H348 H 0.20408 0.73128 0.89995 0.0
H349 H 0.30701 0.77632 0.90658 0.0
H350 H 0.33479 0.77717 0.96555 0.0
H351 H 0.3221 0.79834 1.02755 0.0
C352 C 0.90986 0.98192 0.9432 0.0
C353 C 0.87969 0.95174 0.96341 0.0
C354 C 0.92761 0.96569 0.91013 0.0
C355 C 0.91529 0.91875 0.89586 0.0
C356 C 0.88465 0.88901 0.91593 0.0
C357 C 0.86765 0.90493 0.94907 0.0
C358 C 0.93124 0.89959 0.85987 0.0
C359 C 0.97077 0.91694 0.84206 0.0
C360 C 0.98686 0.89688 0.80631 0.0
C361 C 0.03428 0.90798 0.79544 0.0
C362 C 0.05049 0.89224 0.76194 0.0
C363 C 0.01971 0.86541 0.73753 0.0
H364 H 0.91931 0.86017 0.78873 0.0
C365 C 0.97228 0.85393 0.74844 0.0
C366 C 0.9562 0.86911 0.78216 0.0
H367 H 0.94709 0.83372 0.73062 0.0
H368 H 0.92024 0.01817 0.95308 0.0
H369 H 0.95029 0.99028 0.8956 0.0
H370 H 0.87388 0.85282 0.90601 0.0
H371 H 0.84463 0.88033 0.96341 0.0
H372 H 0.91006 0.868 0.84831 0.0
H373 H 0.99383 0.94644 0.85472 0.0
H374 H 0.05912 0.92943 0.81293 0.0
H375 H 0.08707 0.90244 0.75486 0.0
C376 C 0.21813 0.99529 0.33475 0.0
C377 C 0.23645 0.96746 0.30681 0.0
C378 C 0.2037 0.9772 0.36655 0.0
C379 C 0.20754 0.93067 0.37173 0.0
C380 C 0.22695 0.9034 0.34409 0.0
C381 C 0.24059 0.92117 0.31217 0.0
C382 C 0.19327 0.90971 0.40555 0.0
C383 C 0.15965 0.92345 0.42843 0.0
C384 C 0.14305 0.90186 0.46162 0.0
C385 C 0.09853 0.90845 0.47591 0.0
C386 C 0.08196 0.8918 0.50757 0.0
C387 C 0.10949 0.86834 0.52688 0.0
H388 H 0.20524 0.87197 0.47082 0.0
C389 C 0.15406 0.86116 0.51253 0.0
C390 C 0.17049 0.8774 0.48035 0.0
H391 H 0.17668 0.84365 0.52645 0.0
H392 H 0.21405 0.03102 0.33189 0.0
H393 H 0.19003 1.00003 0.38712 0.0
H394 H 0.23095 0.86765 0.34697 0.0
H395 H 0.25433 0.89839 0.29156 0.0
H396 H 0.2094 0.87992 0.41063 0.0
H397 H 0.14112 0.95085 0.42177 0.0
H398 H 0.07626 0.92709 0.46258 0.0
H399 H 0.04762 0.89851 0.5173 0.0
C400 C 0.12349 0.13837 0.90992 0.0
C401 C 0.13579 0.18407 0.89975 0.0
C402 C 0.13855 0.12593 0.94153 0.0
C403 C 0.1667 0.1587 0.96461 0.0
C404 C 0.17899 0.20421 0.95437 0.0
C405 C 0.16398 0.21661 0.92286 0.0
C406 C 0.1844 0.14777 0.99915 0.0
C407 C 0.17395 0.10632 1.01341 0.0
C408 C 0.19077 0.09442 0.04787 0.0
C409 C 0.17434 0.04969 0.05825 0.0
C410 C 0.18792 0.03565 0.08946 0.0
C411 C 0.21889 0.06557 0.11224 0.0
H412 H 0.23596 0.15949 0.0641 0.0
C413 C 0.23574 0.11055 0.10208 0.0
C414 C 0.22196 0.12476 0.07052 0.0
H415 H 0.25957 0.13495 0.11857 0.0
H416 H 0.10262 0.11154 0.89316 0.0
H417 H 0.12805 0.09034 0.9474 0.0
H418 H 0.20041 0.23079 0.97101 0.0
H419 H 0.17411 0.25232 0.91699 0.0
H420 H 0.20707 0.17597 1.01352 0.0
H421 H 0.15089 0.07841 0.99913 0.0
H422 H 0.15046 0.02496 0.04199 0.0
H423 H 0.17378 1.00079 0.09568 0.0
C424 C 0.84592 0.01702 0.20044 0.0
C425 C 0.84172 0.047 0.17484 0.0
C426 C 0.85675 0.03464 0.23503 0.0
C427 C 0.86444 0.08321 0.24546 0.0
C428 C 0.85947 0.11305 0.21994 0.0
C429 C 0.84836 0.0954 0.18538 0.0
C430 C 0.87696 0.10443 0.28225 0.0
C431 C 0.8899 0.081 0.30802 0.0
C432 C 0.90255 0.10146 0.34494 0.0
C433 C 0.91641 0.07195 0.36782 0.0
C434 C 0.92783 0.08818 0.40249 0.0
C435 C 0.92602 0.1349 0.41606 0.0
H436 H 0.89044 0.17282 0.34226 0.0
C437 C 0.91253 0.16473 0.39312 0.0
C438 C 0.90095 0.1484 0.35831 0.0
H439 H 0.90992 0.20077 0.40219 0.0
H440 H 0.8413 0.97951 0.1937 0.0
H441 H 0.85912 0.00974 0.2533 0.0
H442 H 0.86482 0.15058 0.22665 0.0
H443 H 0.84613 0.11991 0.1667 0.0
H444 H 0.87611 0.1416 0.28781 0.0
H445 H 0.89204 0.04413 0.30197 0.0
H446 H 0.91843 0.03571 0.35885 0.0
H447 H 0.93863 0.06386 0.41858 0.0
loop_
_geom_bond_atom_site_label_1
_geom_bond_atom_site_label_2
_geom_bond_distance
_geom_bond_site_symmetry_2
_ccdc_geom_bond_type
Tb0 C9 2.764 . S
Tb0 O10 2.325 1_565 S
Tb0 O13 2.303 1_565 S
Tb0 O17 2.322 . S
Tb0 O18 2.349 . S
Tb0 O21 2.415 . S
Tb0 O22 2.399 . S
Tb1 O11 2.322 . S
Tb1 O12 2.349 . S
Tb1 O14 2.415 . S
Tb1 O15 2.399 . S
Tb1 O16 2.325 . S
Tb1 O19 2.303 . S
Tb1 C30 2.764 . S
C2 O18 1.261 1_545 S
C2 O19 1.257 . S
C3 C6 1.358 . S
C3 C7 1.332 . S
C3 C9 1.504 . S
C4 C5 1.373 . S
C4 C8 1.308 . S
C5 C4 1.373 . S
C5 C6 1.429 1_556 S
C5 H32 0.932 . S
C6 C3 1.358 . S
C6 C5 1.429 1_554 S
C6 H33 0.930 . S
C7 C3 1.332 . S
C7 C8 1.394 1_554 S
C7 H34 0.932 . S
C8 C4 1.308 . S
C8 C7 1.394 1_556 S
C8 H35 0.929 . S
C9 Tb0 2.764 . S
C9 C3 1.504 . S
C9 O21 1.239 . S
C9 O22 1.263 . S
O10 Tb0 2.325 1_545 S
O10 C20 1.236 . S
O11 Tb1 2.322 . S
O11 C20 1.257 . S
O12 Tb1 2.349 . S
O12 C23 1.261 . S
O13 Tb0 2.303 1_545 S
O13 C23 1.257 . S
O14 Tb1 2.415 . S
O14 C30 1.239 . S
O15 Tb1 2.399 . S
O15 C30 1.263 . S
O16 Tb1 2.325 . S
O16 C31 1.236 1_545 S
O17 Tb0 2.322 . S
O17 C31 1.257 . S
O18 Tb0 2.349 . S
O18 C2 1.261 1_565 S
O19 Tb1 2.303 . S
O19 C2 1.257 . S
C20 O10 1.236 . S
C20 O11 1.257 . S
O21 Tb0 2.415 . S
O21 C9 1.239 . S
O22 Tb0 2.399 . S
O22 C9 1.263 . S
C23 O12 1.261 . S
C23 O13 1.257 . S
C24 C27 1.358 . S
C24 C28 1.332 . S
C24 C30 1.504 . S
C25 C26 1.373 . S
C25 C29 1.308 . S
C26 C25 1.373 . S
C26 C27 1.429 . S
C26 H36 0.932 . S
C27 C24 1.358 . S
C27 C26 1.429 . S
C27 H37 0.930 . S
C28 C24 1.332 . S
C28 C29 1.394 . S
C28 H38 0.932 . S
C29 C25 1.308 . S
C29 C28 1.394 . S
C29 H39 0.929 . S
C30 Tb1 2.764 . S
C30 O14 1.239 . S
C30 O15 1.263 . S
C30 C24 1.504 . S
C31 O16 1.236 1_565 S
C31 O17 1.257 . S
H32 C5 0.932 . S
H33 C6 0.930 . S
H34 C7 0.932 . S
H35 C8 0.929 . S
H36 C26 0.932 . S
H37 C27 0.930 . S
H38 C28 0.932 . S
H39 C29 0.929 . S
Tb40 C49 2.764 . S
Tb40 O50 2.325 . S
Tb40 O53 2.303 . S
Tb40 O57 2.322 . S
Tb40 O58 2.349 . S
Tb40 O61 2.415 . S
Tb40 O62 2.399 . S
Tb41 O51 2.322 . S
Tb41 O52 2.349 . S
Tb41 O54 2.413 1_455 S
Tb41 O55 2.399 1_455 S
Tb41 O56 2.325 . S
Tb41 O59 2.303 . S
Tb41 C70 2.764 1_455 S
C42 O58 1.261 . S
C42 O59 1.257 . S
C43 C46 1.358 . S
C43 C47 1.332 . S
C43 C49 1.504 . S
C44 C45 1.373 . S
C44 C48 1.308 . S
C45 C44 1.373 . S
C45 C46 1.429 . S
C45 H72 0.932 . S
C46 C43 1.358 . S
C46 C45 1.429 . S
C46 H73 0.930 . S
C47 C43 1.332 . S
C47 C48 1.394 . S
C47 H74 0.932 . S
C48 C44 1.308 . S
C48 C47 1.394 . S
C48 H75 0.929 . S
C49 Tb40 2.764 . S
C49 C43 1.504 . S
C49 O61 1.239 . S
C49 O62 1.263 . S
O50 Tb40 2.325 . S
O50 C60 1.236 . S
O51 Tb41 2.322 . S
O51 C60 1.257 . S
O52 Tb41 2.349 . S
O52 C63 1.261 . S
O53 Tb40 2.303 . S
O53 C63 1.257 . S
O54 Tb41 2.413 1_655 S
O54 C70 1.240 . S
O55 Tb41 2.399 1_655 S
O55 C70 1.263 . S
O56 Tb41 2.325 . S
O56 C71 1.236 . S
O57 Tb40 2.322 . S
O57 C71 1.257 . S
O58 Tb40 2.349 . S
O58 C42 1.261 . S
O59 Tb41 2.303 . S
O59 C42 1.257 . S
C60 O50 1.236 . S
C60 O51 1.257 . S
O61 Tb40 2.415 . S
O61 C49 1.239 . S
O62 Tb40 2.399 . S
O62 C49 1.263 . S
C63 O52 1.261 . S
C63 O53 1.257 . S
C64 C67 1.358 . S
C64 C68 1.332 . S
C64 C70 1.504 . S
C65 C66 1.373 . S
C65 C69 1.308 . S
C66 C65 1.373 . S
C66 C67 1.429 . S
C66 H76 0.932 . S
C67 C64 1.358 . S
C67 C66 1.429 . S
C67 H77 0.930 . S
C68 C64 1.332 . S
C68 C69 1.394 . S
C68 H78 0.932 . S
C69 C65 1.308 . S
C69 C68 1.394 . S
C69 H79 0.929 . S
C70 Tb41 2.764 1_655 S
C70 O54 1.240 . S
C70 O55 1.263 . S
C70 C64 1.504 . S
C71 O56 1.236 . S
C71 O57 1.257 . S
H72 C45 0.932 . S
H73 C46 0.930 . S
H74 C47 0.932 . S
H75 C48 0.929 . S
H76 C66 0.932 . S
H77 C67 0.930 . S
H78 C68 0.932 . S
H79 C69 0.929 . S
Tb80 C89 2.764 . S
Tb80 O90 2.325 1_565 S
Tb80 O93 2.303 . S
Tb80 O97 2.322 . S
Tb80 O98 2.349 . S
Tb80 O101 2.415 . S
Tb80 O102 2.399 . S
Tb81 O91 2.322 . S
Tb81 O92 2.349 . S
Tb81 O94 2.415 . S
Tb81 O95 2.399 . S
Tb81 O96 2.325 1_545 S
Tb81 O99 2.303 . S
Tb81 C110 2.764 1_554 S
C82 O98 1.261 . S
C82 O99 1.257 1_565 S
C83 C86 1.358 . S
C83 C87 1.332 . S
C83 C89 1.504 . S
C84 C85 1.373 . S
C84 C88 1.308 . S
C85 C84 1.373 . S
C85 C86 1.429 . S
C85 H112 0.932 . S
C86 C83 1.358 . S
C86 C85 1.429 . S
C86 H113 0.930 . S
C87 C83 1.332 . S
C87 C88 1.394 . S
C87 H114 0.932 . S
C88 C84 1.308 . S
C88 C87 1.394 . S
C88 H115 0.929 . S
C89 Tb80 2.764 . S
C89 C83 1.504 . S
C89 O101 1.239 . S
C89 O102 1.263 . S
O90 Tb80 2.325 1_545 S
O90 C100 1.236 . S
O91 Tb81 2.322 . S
O91 C100 1.257 . S
O92 Tb81 2.349 . S
O92 C103 1.261 . S
O93 Tb80 2.303 . S
O93 C103 1.257 1_565 S
O94 Tb81 2.415 . S
O94 C110 1.239 1_554 S
O95 Tb81 2.399 . S
O95 C110 1.263 1_554 S
O96 Tb81 2.325 1_565 S
O96 C111 1.236 . S
O97 Tb80 2.322 . S
O97 C111 1.257 . S
O98 Tb80 2.349 . S
O98 C82 1.261 . S
O99 Tb81 2.303 . S
O99 C82 1.257 1_545 S
C100 O90 1.236 . S
C100 O91 1.257 . S
O101 Tb80 2.415 . S
O101 C89 1.239 . S
O102 Tb80 2.399 . S
O102 C89 1.263 . S
C103 O92 1.261 . S
C103 O93 1.257 1_545 S
C104 C107 1.358 . S
C104 C108 1.332 . S
C104 C110 1.504 . S
C105 C106 1.373 . S
C105 C109 1.308 . S
C106 C105 1.373 . S
C106 C107 1.429 . S
C106 H116 0.932 . S
C107 C104 1.358 . S
C107 C106 1.429 . S
C107 H117 0.930 . S
C108 C104 1.332 . S
C108 C109 1.394 . S
C108 H118 0.932 . S
C109 C105 1.308 . S
C109 C108 1.394 . S
C109 H119 0.929 . S
C110 Tb81 2.764 1_556 S
C110 O94 1.239 1_556 S
C110 O95 1.263 1_556 S
C110 C104 1.504 . S
C111 O96 1.236 . S
C111 O97 1.257 . S
H112 C85 0.932 . S
H113 C86 0.930 . S
H114 C87 0.932 . S
H115 C88 0.929 . S
H116 C106 0.932 . S
H117 C107 0.930 . S
H118 C108 0.932 . S
H119 C109 0.929 . S
Tb120 C129 2.764 . S
Tb120 O130 2.325 1_455 S
Tb120 O133 2.303 . S
Tb120 O137 2.322 . S
Tb120 O138 2.349 . S
Tb120 O141 2.415 . S
Tb120 O142 2.399 . S
Tb121 O131 2.322 . S
Tb121 O132 2.349 . S
Tb121 O134 2.415 . S
Tb121 O135 2.399 . S
Tb121 O136 2.325 1_655 S
Tb121 O139 2.303 . S
Tb121 C150 2.764 . S
C122 O138 1.261 . S
C122 O139 1.257 1_455 S
C123 C126 1.358 . S
C123 C127 1.332 . S
C123 C129 1.504 . S
C124 C125 1.373 . S
C124 C128 1.308 . S
C125 C124 1.373 . S
C125 C126 1.429 . S
C125 H152 0.932 . S
C126 C123 1.358 . S
C126 C125 1.429 . S
C126 H153 0.930 . S
C127 C123 1.332 . S
C127 C128 1.394 . S
C127 H154 0.932 . S
C128 C124 1.308 . S
C128 C127 1.394 . S
C128 H155 0.929 . S
C129 Tb120 2.764 . S
C129 C123 1.504 . S
C129 O141 1.239 . S
C129 O142 1.263 . S
O130 Tb120 2.325 1_655 S
O130 C140 1.236 . S
O131 Tb121 2.322 . S
O131 C140 1.257 . S
O132 Tb121 2.349 . S
O132 C143 1.261 . S
O133 Tb120 2.303 . S
O133 C143 1.257 1_455 S
O134 Tb121 2.415 . S
O134 C150 1.239 . S
O135 Tb121 2.399 . S
O135 C150 1.263 . S
O136 Tb121 2.325 1_455 S
O136 C151 1.236 . S
O137 Tb120 2.322 . S
O137 C151 1.257 . S
O138 Tb120 2.349 . S
O138 C122 1.261 . S
O139 Tb121 2.303 . S
O139 C122 1.257 1_655 S
C140 O130 1.236 . S
C140 O131 1.257 . S
O141 Tb120 2.415 . S
O141 C129 1.239 . S
O142 Tb120 2.399 . S
O142 C129 1.263 . S
C143 O132 1.261 . S
C143 O133 1.257 1_655 S
C144 C147 1.358 . S
C144 C148 1.332 . S
C144 C150 1.504 . S
C145 C146 1.373 . S
C145 C149 1.308 . S
C146 C145 1.373 . S
C146 C147 1.429 . S
C146 H156 0.932 . S
C147 C144 1.358 . S
C147 C146 1.429 . S
C147 H157 0.930 . S
C148 C144 1.332 . S
C148 C149 1.394 . S
C148 H158 0.932 . S
C149 C145 1.308 . S
C149 C148 1.394 . S
C149 H159 0.929 . S
C150 Tb121 2.764 . S
C150 O134 1.239 . S
C150 O135 1.263 . S
C150 C144 1.504 . S
C151 O136 1.236 . S
C151 O137 1.257 . S
H152 C125 0.932 . S
H153 C126 0.930 . S
H154 C127 0.932 . S
H155 C128 0.929 . S
H156 C146 0.932 . S
H157 C147 0.930 . S
H158 C148 0.932 . S
H159 C149 0.929 . S
C160 C161 1.399 . S
C160 C162 1.383 . S
C160 H176 0.951 . S
C161 C160 1.399 . S
C161 C165 1.365 1_545 S
C162 C160 1.383 . S
C162 C163 1.402 1_545 S
C162 H177 0.951 . S
C163 C162 1.402 1_565 S
C163 C164 1.375 . S
C163 C166 1.481 1_655 S
C164 C163 1.375 . S
C164 C165 1.367 . S
C164 H178 0.951 . S
C165 C161 1.365 1_565 S
C165 C164 1.367 . S
C165 H179 0.950 . S
C166 C163 1.481 1_455 S
C166 C167 1.297 1_565 S
C166 H180 0.950 . S
C167 C166 1.297 1_545 S
C167 C168 1.479 . S
C167 H181 0.950 . S
C168 C167 1.479 . S
C168 C169 1.375 . S
C168 C174 1.404 1_545 S
C169 C168 1.375 . S
C169 C170 1.369 . S
C169 H182 0.950 . S
C170 C169 1.369 . S
C170 C171 1.392 . S
C170 H183 0.951 . S
C171 C170 1.392 . S
C171 C173 1.384 1_545 S
H172 C174 0.949 . S
C173 C171 1.384 1_565 S
C173 C174 1.385 . S
C173 H175 0.950 . S
C174 C168 1.404 1_565 S
C174 H172 0.949 . S
C174 C173 1.385 . S
H175 C173 0.950 . S
H176 C160 0.951 . S
H177 C162 0.951 . S
H178 C164 0.951 . S
H179 C165 0.950 . S
H180 C166 0.950 . S
H181 C167 0.950 . S
H182 C169 0.950 . S
H183 C170 0.951 . S
C184 C185 1.386 1_455 S
C184 C186 1.383 . S
C184 H200 0.951 . S
C185 C184 1.386 1_655 S
C185 C189 1.383 . S
C186 C184 1.383 . S
C186 C187 1.402 . S
C186 H201 0.951 . S
C187 C186 1.402 . S
C187 C188 1.375 . S
C187 C190 1.481 . S
C188 C187 1.375 . S
C188 C189 1.367 1_455 S
C188 H202 0.951 1_455 S
C189 C185 1.383 . S
C189 C188 1.367 1_655 S
C189 H203 0.950 . S
C190 C187 1.481 . S
C190 C191 1.297 1_565 S
C190 H204 0.950 1_565 S
C191 C190 1.297 1_545 S
C191 C192 1.479 . S
C191 H205 0.950 . S
C192 C191 1.479 . S
C192 C193 1.375 . S
C192 C198 1.404 . S
C193 C192 1.375 . S
C193 C194 1.369 . S
C193 H206 0.950 . S
C194 C193 1.369 . S
C194 C195 1.392 . S
C194 H207 0.951 . S
C195 C194 1.392 . S
C195 C197 1.384 . S
H196 C198 0.949 . S
C197 C195 1.384 . S
C197 C198 1.385 . S
C197 H199 0.950 . S
C198 C192 1.404 . S
C198 H196 0.949 . S
C198 C197 1.385 . S
H199 C197 0.950 . S
H200 C184 0.951 . S
H201 C186 0.951 . S
H202 C188 0.951 1_655 S
H203 C189 0.950 . S
H204 C190 0.950 1_545 S
H205 C191 0.950 . S
H206 C193 0.950 . S
H207 C194 0.951 . S
C208 C209 1.386 1_565 S
C208 C210 1.383 . S
C208 H224 0.951 . S
C209 C208 1.386 1_545 S
C209 C213 1.383 . S
C210 C208 1.383 . S
C210 C211 1.402 1_565 S
C210 H225 0.951 . S
C211 C210 1.402 1_545 S
C211 C212 1.375 . S
C211 C214 1.481 . S
C212 C211 1.375 . S
C212 C213 1.367 . S
C212 H226 0.951 . S
C213 C209 1.383 . S
C213 C212 1.367 . S
C213 H227 0.950 . S
C214 C211 1.481 . S
C214 C215 1.297 . S
C214 H228 0.950 . S
C215 C214 1.297 . S
C215 C216 1.479 . S
C215 H229 0.950 . S
C216 C215 1.479 . S
C216 C217 1.375 . S
C216 C222 1.404 . S
C217 C216 1.375 . S
C217 C218 1.369 . S
C217 H230 0.950 1_545 S
C218 C217 1.369 . S
C218 C219 1.392 . S
C218 H231 0.951 1_545 S
C219 C218 1.392 . S
C219 C221 1.384 . S
H220 C222 0.949 . S
C221 C219 1.384 . S
C221 C222 1.385 . S
C221 H223 0.950 . S
C222 C216 1.404 . S
C222 H220 0.949 . S
C222 C221 1.385 . S
H223 C221 0.950 . S
H224 C208 0.951 . S
H225 C210 0.951 . S
H226 C212 0.951 . S
H227 C213 0.950 . S
H228 C214 0.950 . S
H229 C215 0.950 . S
H230 C217 0.950 1_565 S
H231 C218 0.951 1_565 S
C232 C233 1.386 . S
C232 C234 1.383 . S
C232 H248 0.951 . S
C233 C232 1.386 . S
C233 C237 1.383 . S
C234 C232 1.383 . S
C234 C235 1.402 . S
C234 H249 0.951 1_455 S
C235 C234 1.402 . S
C235 C236 1.375 . S
C235 C238 1.481 . S
C236 C235 1.375 . S
C236 C237 1.367 . S
C236 H250 0.951 . S
C237 C233 1.383 . S
C237 C236 1.367 . S
C237 H251 0.950 . S
C238 C235 1.481 . S
C238 C239 1.297 . S
C238 H252 0.950 . S
C239 C238 1.297 . S
C239 C240 1.479 . S
C239 H253 0.950 1_455 S
C240 C239 1.479 . S
C240 C241 1.375 1_455 S
C240 C246 1.404 . S
C241 C240 1.375 1_655 S
C241 C242 1.369 . S
C241 H254 0.950 . S
C242 C241 1.369 . S
C242 C243 1.392 . S
C242 H255 0.951 . S
C243 C242 1.392 . S
C243 C245 1.384 1_655 S
H244 C246 0.949 . S
C245 C243 1.384 1_455 S
C245 C246 1.385 . S
C245 H247 0.950 . S
C246 C240 1.404 . S
C246 H244 0.949 . S
C246 C245 1.385 . S
H247 C245 0.950 . S
H248 C232 0.951 . S
H249 C234 0.951 1_655 S
H250 C236 0.951 . S
H251 C237 0.950 . S
H252 C238 0.950 . S
H253 C239 0.950 1_655 S
H254 C241 0.950 . S
H255 C242 0.951 . S
C256 C257 1.386 . S
C256 C258 1.383 . S
C256 H272 0.951 . S
C257 C256 1.386 . S
C257 C261 1.383 . S
C258 C256 1.383 . S
C258 C259 1.402 . S
C258 H273 0.951 . S
C259 C258 1.402 . S
C259 C260 1.375 . S
C259 C262 1.481 . S
C260 C259 1.375 . S
C260 C261 1.367 . S
C260 H274 0.951 . S
C261 C257 1.383 . S
C261 C260 1.367 . S
C261 H275 0.950 . S
C262 C259 1.481 . S
C262 C263 1.297 . S
C262 H276 0.950 . S
C263 C262 1.297 . S
C263 C264 1.479 . S
C263 H277 0.950 . S
C264 C263 1.479 . S
C264 C265 1.375 . S
C264 C270 1.404 . S
C265 C264 1.375 . S
C265 C266 1.369 . S
C265 H278 0.950 . S
C266 C265 1.369 . S
C266 C267 1.392 . S
C266 H279 0.951 . S
C267 C266 1.392 . S
C267 C269 1.384 . S
H268 C270 0.949 . S
C269 C267 1.384 . S
C269 C270 1.385 . S
C269 H271 0.950 . S
C270 C264 1.404 . S
C270 H268 0.949 . S
C270 C269 1.385 . S
H271 C269 0.950 . S
H272 C256 0.951 . S
H273 C258 0.951 . S
H274 C260 0.951 . S
H275 C261 0.950 . S
H276 C262 0.950 . S
H277 C263 0.950 . S
H278 C265 0.950 . S
H279 C266 0.951 . S
C280 C281 1.386 . S
C280 C282 1.383 1_455 S
C280 H296 0.951 . S
C281 C280 1.386 . S
C281 C285 1.383 1_455 S
C282 C280 1.383 1_655 S
C282 C283 1.402 . S
C282 H297 0.951 . S
C283 C282 1.402 . S
C283 C284 1.375 . S
C283 C286 1.481 . S
C284 C283 1.375 . S
C284 C285 1.367 . S
C284 H298 0.951 . S
C285 C281 1.383 1_655 S
C285 C284 1.367 . S
C285 H299 0.950 . S
C286 C283 1.481 . S
C286 C287 1.297 . S
C286 H300 0.950 . S
C287 C286 1.297 . S
C287 C288 1.479 . S
C287 H301 0.950 . S
C288 C287 1.479 . S
C288 C289 1.375 . S
C288 C294 1.404 . S
C289 C288 1.375 . S
C289 C290 1.369 . S
C289 H302 0.950 . S
C290 C289 1.369 . S
C290 C291 1.392 . S
C290 H303 0.951 . S
C291 C290 1.392 . S
C291 C293 1.384 . S
H292 C294 0.949 . S
C293 C291 1.384 . S
C293 C294 1.385 . S
C293 H295 0.950 . S
C294 C288 1.404 . S
C294 H292 0.949 . S
C294 C293 1.385 . S
H295 C293 0.950 . S
H296 C280 0.951 . S
H297 C282 0.951 . S
H298 C284 0.951 . S
H299 C285 0.950 . S
H300 C286 0.950 . S
H301 C287 0.950 . S
H302 C289 0.950 . S
H303 C290 0.951 . S
C304 C305 1.386 . S
C304 C306 1.383 . S
C304 H320 0.951 . S
C305 C304 1.386 . S
C305 C309 1.383 . S
C306 C304 1.383 . S
C306 C307 1.402 . S
C306 H321 0.951 . S
C307 C306 1.402 . S
C307 C308 1.375 . S
C307 C310 1.481 . S
C308 C307 1.375 . S
C308 C309 1.367 . S
C308 H322 0.951 . S
C309 C305 1.383 . S
C309 C308 1.367 . S
C309 H323 0.950 . S
C310 C307 1.481 . S
C310 C311 1.297 . S
C310 H324 0.950 . S
C311 C310 1.297 . S
C311 C312 1.479 . S
C311 H325 0.950 . S
C312 C311 1.479 . S
C312 C313 1.375 . S
C312 C318 1.404 . S
C313 C312 1.375 . S
C313 C314 1.369 . S
C313 H326 0.950 . S
C314 C313 1.369 . S
C314 C315 1.392 . S
C314 H327 0.951 . S
C315 C314 1.392 . S
C315 C317 1.384 . S
H316 C318 0.949 . S
C317 C315 1.384 . S
C317 C318 1.385 . S
C317 H319 0.950 . S
C318 C312 1.404 . S
C318 H316 0.949 . S
C318 C317 1.385 . S
H319 C317 0.950 . S
H320 C304 0.951 . S
H321 C306 0.951 . S
H322 C308 0.951 . S
H323 C309 0.950 . S
H324 C310 0.950 . S
H325 C311 0.950 . S
H326 C313 0.950 . S
H327 C314 0.951 . S
C328 C329 1.386 . S
C328 C330 1.383 . S
C328 H344 0.951 . S
C329 C328 1.386 . S
C329 C333 1.383 . S
C330 C328 1.383 . S
C330 C331 1.402 . S
C330 H345 0.951 . S
C331 C330 1.402 . S
C331 C332 1.375 . S
C331 C334 1.481 . S
C332 C331 1.375 . S
C332 C333 1.367 . S
C332 H346 0.951 . S
C333 C329 1.383 . S
C333 C332 1.367 . S
C333 H347 0.950 . S
C334 C331 1.481 . S
C334 C335 1.297 . S
C334 H348 0.950 . S
C335 C334 1.297 . S
C335 C336 1.479 . S
C335 H349 0.950 . S
C336 C335 1.479 . S
C336 C337 1.375 . S
C336 C342 1.404 . S
C337 C336 1.375 . S
C337 C338 1.369 . S
C337 H350 0.950 . S
C338 C337 1.369 . S
C338 C339 1.392 . S
C338 H351 0.951 . S
C339 C338 1.392 . S
C339 C341 1.384 . S
H340 C342 0.949 . S
C341 C339 1.384 . S
C341 C342 1.385 . S
C341 H343 0.950 . S
C342 C336 1.404 . S
C342 H340 0.949 . S
C342 C341 1.385 . S
H343 C341 0.950 . S
H344 C328 0.951 . S
H345 C330 0.951 . S
H346 C332 0.951 . S
H347 C333 0.950 . S
H348 C334 0.950 . S
H349 C335 0.950 . S
H350 C337 0.950 . S
H351 C338 0.951 . S
C352 C353 1.386 . S
C352 C354 1.383 . S
C352 H368 0.951 . S
C353 C352 1.386 . S
C353 C357 1.383 . S
C354 C352 1.383 . S
C354 C355 1.402 . S
C354 H369 0.951 . S
C355 C354 1.402 . S
C355 C356 1.375 . S
C355 C358 1.481 . S
C356 C355 1.375 . S
C356 C357 1.367 . S
C356 H370 0.951 . S
C357 C353 1.383 . S
C357 C356 1.367 . S
C357 H371 0.950 . S
C358 C355 1.481 . S
C358 C359 1.297 . S
C358 H372 0.950 . S
C359 C358 1.297 . S
C359 C360 1.479 . S
C359 H373 0.950 . S
C360 C359 1.479 . S
C360 C361 1.375 . S
C360 C366 1.404 . S
C361 C360 1.375 . S
C361 C362 1.369 . S
C361 H374 0.950 . S
C362 C361 1.369 . S
C362 C363 1.392 . S
C362 H375 0.951 . S
C363 C362 1.392 . S
C363 C365 1.384 . S
H364 C366 0.949 . S
C365 C363 1.384 . S
C365 C366 1.385 . S
C365 H367 0.950 . S
C366 C360 1.404 . S
C366 H364 0.949 . S
C366 C365 1.385 . S
H367 C365 0.950 . S
H368 C352 0.951 . S
H369 C354 0.951 . S
H370 C356 0.951 . S
H371 C357 0.950 . S
H372 C358 0.950 . S
H373 C359 0.950 . S
H374 C361 0.950 . S
H375 C362 0.951 . S
C376 C377 1.386 . S
C376 C378 1.383 . S
C376 H392 0.951 . S
C377 C376 1.386 . S
C377 C381 1.383 . S
C378 C376 1.383 . S
C378 C379 1.402 . S
C378 H393 0.951 . S
C379 C378 1.402 . S
C379 C380 1.375 . S
C379 C382 1.481 . S
C380 C379 1.375 . S
C380 C381 1.367 . S
C380 H394 0.951 . S
C381 C377 1.383 . S
C381 C380 1.367 . S
C381 H395 0.950 . S
C382 C379 1.481 . S
C382 C383 1.297 . S
C382 H396 0.950 . S
C383 C382 1.297 . S
C383 C384 1.479 . S
C383 H397 0.950 . S
C384 C383 1.479 . S
C384 C385 1.375 . S
C384 C390 1.404 . S
C385 C384 1.375 . S
C385 C386 1.369 . S
C385 H398 0.950 . S
C386 C385 1.369 . S
C386 C387 1.392 . S
C386 H399 0.951 . S
C387 C386 1.392 . S
C387 C389 1.384 . S
H388 C390 0.949 . S
C389 C387 1.384 . S
C389 C390 1.385 . S
C389 H391 0.950 . S
C390 C384 1.404 . S
C390 H388 0.949 . S
C390 C389 1.385 . S
H391 C389 0.950 . S
H392 C376 0.951 . S
H393 C378 0.951 . S
H394 C380 0.951 . S
H395 C381 0.950 . S
H396 C382 0.950 . S
H397 C383 0.950 . S
H398 C385 0.950 . S
H399 C386 0.951 . S
C400 C401 1.386 . S
C400 C402 1.383 . S
C400 H416 0.951 . S
C401 C400 1.386 . S
C401 C405 1.383 . S
C402 C400 1.383 . S
C402 C403 1.402 . S
C402 H417 0.951 . S
C403 C402 1.402 . S
C403 C404 1.375 . S
C403 C406 1.481 . S
C404 C403 1.375 . S
C404 C405 1.367 . S
C404 H418 0.951 . S
C405 C401 1.383 . S
C405 C404 1.367 . S
C405 H419 0.950 . S
C406 C403 1.481 . S
C406 C407 1.297 . S
C406 H420 0.950 . S
C407 C406 1.297 . S
C407 C408 1.479 . S
C407 H421 0.950 . S
C408 C407 1.479 . S
C408 C409 1.375 . S
C408 C414 1.404 1_556 S
C409 C408 1.375 . S
C409 C410 1.369 1_556 S
C409 H422 0.950 . S
C410 C409 1.369 1_554 S
C410 C411 1.392 . S
C410 H423 0.951 . S
C411 C410 1.392 . S
C411 C413 1.384 . S
H412 C414 0.949 . S
C413 C411 1.384 . S
C413 C414 1.385 . S
C413 H415 0.950 . S
C414 C408 1.404 1_554 S
C414 H412 0.949 . S
C414 C413 1.385 . S
H415 C413 0.950 . S
H416 C400 0.951 . S
H417 C402 0.951 . S
H418 C404 0.951 . S
H419 C405 0.950 . S
H420 C406 0.950 . S
H421 C407 0.950 . S
H422 C409 0.950 . S
H423 C410 0.951 . S
C424 C425 1.386 . S
C424 C426 1.383 . S
C424 H440 0.951 . S
C425 C424 1.386 . S
C425 C429 1.383 . S
C426 C424 1.383 . S
C426 C427 1.402 . S
C426 H441 0.951 . S
C427 C426 1.402 . S
C427 C428 1.375 . S
C427 C430 1.481 . S
C428 C427 1.375 . S
C428 C429 1.367 . S
C428 H442 0.951 . S
C429 C425 1.383 . S
C429 C428 1.367 . S
C429 H443 0.950 . S
C430 C427 1.481 . S
C430 C431 1.297 . S
C430 H444 0.950 . S
C431 C430 1.297 . S
C431 C432 1.479 . S
C431 H445 0.950 . S
C432 C431 1.479 . S
C432 C433 1.375 . S
C432 C438 1.404 . S
C433 C432 1.375 . S
C433 C434 1.369 . S
C433 H446 0.950 . S
C434 C433 1.369 . S
C434 C435 1.392 . S
C434 H447 0.951 . S
C435 C434 1.392 . S
C435 C437 1.384 . S
H436 C438 0.949 . S
C437 C435 1.384 . S
C437 C438 1.385 . S
C437 H439 0.950 . S
C438 C432 1.404 . S
C438 H436 0.949 . S
C438 C437 1.385 . S
H439 C437 0.950 . S
H440 C424 0.951 . S
H441 C426 0.951 . S
H442 C428 0.951 . S
H443 C429 0.950 . S
H444 C430 0.950 . S
H445 C431 0.950 . S
H446 C433 0.950 . S
H447 C434 0.951 . S
C161 C82 0.527 1_545 S
C171 C2 0.842 . S
C185 C122 0.626 1_655 S
C195 C63 0.682 . S
C209 C103 0.824 . S
C219 C23 0.827 . S
C233 C42 0.742 . S
C243 C143 0.802 . S
C257 C71 0.410 . S
C267 C25 0.581 . S
C281 C60 0.730 . S
C291 C105 0.820 . S
C305 C145 0.378 . S
C315 C84 0.228 . S
C329 C124 0.350 . S
C339 C4 0.562 . S
C353 C111 3.326 1_556 S
C363 C140 3.226 . S
C377 C31 3.653 . S
C387 C151 3.622 . S
C401 C44 2.618 . S
C411 C20 2.653 . S
C425 C100 2.320 . S
C435 C65 2.274 . S
