# Generated by pormake.
# Topology wji, (4)-cn, num edge types: 1
# Building blocks:
#     Node 0, Type 0, BuildingBlock: QUQFOY_clean_sbu_3, # of connection points: 4
#     Node 1, Type 0, BuildingBlock: QUQFOY_clean_sbu_3, # of connection points: 4
#     Node 2, Type 0, BuildingBlock: QUQFOY_clean_sbu_3, # of connection points: 4
#     Node 3, Type 0, BuildingBlock: QUQFOY_clean_sbu_3, # of connection points: 4
#     Node 4, Type 0, BuildingBlock: QUQFOY_clean_sbu_3, # of connection points: 4
#     Node 5, Type 0, BuildingBlock: QUQFOY_clean_sbu_3, # of connection points: 4
#     Node 6, Type 0, BuildingBlock: QUQFOY_clean_sbu_3, # of connection points: 4
#     Node 7, Type 0, BuildingBlock: QUQFOY_clean_sbu_3, # of connection points: 4
#     Node 8, Type 0, BuildingBlock: QUQFOY_clean_sbu_3, # of connection points: 4
#     Node 9, Type 0, BuildingBlock: QUQFOY_clean_sbu_3, # of connection points: 4
#     Node 10, Type 0, BuildingBlock: QUQFOY_clean_sbu_3, # of connection points: 4
#     Node 11, Type 0, BuildingBlock: QUQFOY_clean_sbu_3, # of connection points: 4
#     Edge 12, Type (0, 0), BuildingBlock: MIFKUJ_clean_linker_0, # of connection points: 2
#     Edge 13, Type (0, 0), BuildingBlock: MIFKUJ_clean_linker_0, # of connection points: 2
#     Edge 14, Type (0, 0), BuildingBlock: MIFKUJ_clean_linker_0, # of connection points: 2
#     Edge 15, Type (0, 0), BuildingBlock: MIFKUJ_clean_linker_0, # of connection points: 2
#     Edge 16, Type (0, 0), BuildingBlock: MIFKUJ_clean_linker_0, # of connection points: 2
#     Edge 17, Type (0, 0), BuildingBlock: MIFKUJ_clean_linker_0, # of connection points: 2
#     Edge 18, Type (0, 0), BuildingBlock: MIFKUJ_clean_linker_0, # of connection points: 2
#     Edge 19, Type (0, 0), BuildingBlock: MIFKUJ_clean_linker_0, # of connection points: 2
#     Edge 20, Type (0, 0), BuildingBlock: MIFKUJ_clean_linker_0, # of connection points: 2
#     Edge 21, Type (0, 0), BuildingBlock: MIFKUJ_clean_linker_0, # of connection points: 2
#     Edge 22, Type (0, 0), BuildingBlock: MIFKUJ_clean_linker_0, # of connection points: 2
#     Edge 23, Type (0, 0), BuildingBlock: MIFKUJ_clean_linker_0, # of connection points: 2
#     Edge 24, Type (0, 0), BuildingBlock: MIFKUJ_clean_linker_0, # of connection points: 2
#     Edge 25, Type (0, 0), BuildingBlock: MIFKUJ_clean_linker_0, # of connection points: 2
#     Edge 26, Type (0, 0), BuildingBlock: MIFKUJ_clean_linker_0, # of connection points: 2
#     Edge 27, Type (0, 0), BuildingBlock: MIFKUJ_clean_linker_0, # of connection points: 2
#     Edge 28, Type (0, 0), BuildingBlock: MIFKUJ_clean_linker_0, # of connection points: 2
#     Edge 29, Type (0, 0), BuildingBlock: MIFKUJ_clean_linker_0, # of connection points: 2
#     Edge 30, Type (0, 0), BuildingBlock: MIFKUJ_clean_linker_0, # of connection points: 2
#     Edge 31, Type (0, 0), BuildingBlock: MIFKUJ_clean_linker_0, # of connection points: 2
#     Edge 32, Type (0, 0), BuildingBlock: MIFKUJ_clean_linker_0, # of connection points: 2
#     Edge 33, Type (0, 0), BuildingBlock: MIFKUJ_clean_linker_0, # of connection points: 2
#     Edge 34, Type (0, 0), BuildingBlock: MIFKUJ_clean_linker_0, # of connection points: 2
#     Edge 35, Type (0, 0), BuildingBlock: MIFKUJ_clean_linker_0, # of connection points: 2
# Relax obj value: 0.220
# Max RMSD: 0.128
# Mean RMSD: 0.128
data_MOF--net-wji--node1-QUQFOY_clean_sbu_3--edge1-MIFKUJ_clean_linker_0
_symmetry_space_group_name_H-M    P1
_symmetry_Int_Tables_number       1
_symmetry_cell_setting            triclinic
loop_
_symmetry_equiv_pos_as_xyz
'x, y, z'
_cell_length_a     76.289838
_cell_length_b     76.423012
_cell_length_c     29.908484
_cell_angle_alpha  90.279908
_cell_angle_beta   89.882229
_cell_angle_gamma 120.06319
loop_
_atom_site_label
_atom_site_type_symbol
_atom_site_fract_x
_atom_site_fract_y
_atom_site_fract_z
_atom_type_partial_charge
C0 C 0.43211 0.35593 0.43917 0.0
O1 O 0.41976 0.36015 0.45805 0.0
Cd2 Cd 0.38474 0.3363 0.46679 0.0
O3 O 0.42616 0.33806 0.42491 0.0
Cd4 Cd 0.39426 0.30452 0.42443 0.0
C5 C 0.37238 0.32255 0.35585 0.0
O6 O 0.38325 0.30706 0.49863 0.0
O7 O 0.3599 0.28451 0.45653 0.0
O8 O 0.41774 0.29395 0.44709 0.0
C9 C 0.36559 0.29194 0.49531 0.0
O10 O 0.37077 0.3309 0.39138 0.0
C11 C 0.40859 0.2766 0.42903 0.0
O12 O 0.38169 0.31258 0.35631 0.0
O13 O 0.39334 0.2726 0.40477 0.0
C14 C 0.06402 0.43977 0.61595 0.0
O15 O 0.04738 0.42737 0.63439 0.0
Cd16 Cd 0.03711 0.39288 0.64847 0.0
O17 O 0.07688 0.43442 0.60554 0.0
Cd18 Cd 0.0802 0.40369 0.61245 0.0
C19 C 0.04163 0.37947 0.5402 0.0
O20 O 0.06438 0.39186 0.68437 0.0
O21 O 0.06582 0.36937 0.64318 0.0
O22 O 0.11291 0.42625 0.64416 0.0
C23 C 0.0623 0.3744 0.68112 0.0
O24 O 0.03074 0.3779 0.57398 0.0
C25 C 0.1226 0.41933 0.62319 0.0
O26 O 0.06094 0.38948 0.5428 0.0
O27 O 0.11279 0.4057 0.59398 0.0
C28 C 0.61772 0.06822 0.78375 0.0
O29 O 0.61333 0.05098 0.79868 0.0
Cd30 Cd 0.63676 0.03941 0.80618 0.0
O31 O 0.63595 0.08113 0.77333 0.0
Cd32 Cd 0.67 0.08357 0.77547 0.0
C33 C 0.65434 0.04707 0.69707 0.0
O34 O 0.66483 0.06568 0.84488 0.0
O35 O 0.69032 0.06943 0.80643 0.0
O36 O 0.68037 0.11695 0.80515 0.0
C37 C 0.68041 0.06387 0.84264 0.0
O38 O 0.64431 0.03539 0.7291 0.0
C39 C 0.69798 0.12556 0.78827 0.0
O40 O 0.66493 0.06615 0.70308 0.0
O41 O 0.70217 0.11499 0.76214 0.0
C42 C 0.5477 0.62594 0.96236 0.0
O43 O 0.55855 0.62078 0.9845 0.0
Cd44 Cd 0.59406 0.64181 -0.00638 0.0
O45 O 0.55524 0.64388 0.9473 0.0
Cd46 Cd 0.58793 0.67678 0.95215 0.0
C47 C 0.60727 0.65639 0.88274 0.0
O48 O 0.59906 0.67255 0.02491 0.0
O49 O 0.62228 0.69559 0.98384 0.0
O50 O 0.56582 0.68923 0.97582 0.0
C51 C 0.61717 0.68689 0.02146 0.0
O52 O 0.60669 0.64634 0.91714 0.0
C53 C 0.57592 0.70649 0.95798 0.0
O54 O 0.60073 0.66883 0.88428 0.0
O55 O 0.591 0.7096 0.93406 0.0
C56 C 0.91012 0.54753 0.10987 0.0
O57 O 0.92666 0.55983 0.12894 0.0
Cd58 Cd 0.93823 0.59473 0.13972 0.0
O59 O 0.89815 0.55347 0.09603 0.0
Cd60 Cd 0.89693 0.58567 0.09695 0.0
C61 C 0.93737 0.60823 0.02966 0.0
O62 O 0.9105 0.59642 0.17148 0.0
O63 O 0.91188 0.6199 0.1297 0.0
O64 O 0.86181 0.56275 0.11592 0.0
C65 C 0.91374 0.61429 0.16831 0.0
O66 O 0.94714 0.60944 0.06514 0.0
C67 C 0.85487 0.57312 0.0985 0.0
O68 O 0.91804 0.59884 0.02965 0.0
O69 O 0.86729 0.58874 0.07682 0.0
C70 C 0.36015 0.91465 0.28209 0.0
O71 O 0.36431 0.93112 0.30135 0.0
Cd72 Cd 0.34097 0.94299 0.30901 0.0
O73 O 0.34232 0.90276 0.26746 0.0
Cd74 Cd 0.30844 0.90045 0.26738 0.0
C75 C 0.32639 0.94011 0.19794 0.0
O76 O 0.31095 0.91592 0.3393 0.0
O77 O 0.28777 0.9146 0.29635 0.0
O78 O 0.29766 0.86674 0.29336 0.0
C79 C 0.29613 0.91881 0.3345 0.0
O80 O 0.33511 0.95028 0.23302 0.0
C81 C 0.28064 0.85819 0.27379 0.0
O82 O 0.31627 0.92081 0.19887 0.0
O83 O 0.27694 0.86908 0.24779 0.0
C84 C 0.61686 0.53696 0.37892 0.0
O85 O 0.61178 0.54929 0.36392 0.0
Cd86 Cd 0.63402 0.58462 0.35774 0.0
O87 O 0.63525 0.54293 0.38915 0.0
Cd88 Cd 0.66869 0.57516 0.38606 0.0
C89 C 0.65217 0.59379 0.46682 0.0
O90 O 0.66316 0.58921 0.31871 0.0
O91 O 0.68795 0.61017 0.36038 0.0
O92 O 0.68 0.55406 0.35048 0.0
C93 C 0.67846 0.60669 0.32374 0.0
O94 O 0.64135 0.59478 0.43567 0.0
C95 C 0.69758 0.56293 0.36749 0.0
O96 O 0.66383 0.58659 0.45972 0.0
O97 O 0.7013 0.57653 0.39664 0.0
C98 C 0.06503 0.62327 0.53243 0.0
O99 O 0.04818 0.61978 0.51642 0.0
Cd100 Cd 0.03877 0.64481 0.50704 0.0
O101 O 0.07855 0.64121 0.54317 0.0
Cd102 Cd 0.08296 0.67592 0.54042 0.0
C103 C 0.04587 0.66244 0.6161 0.0
O104 O 0.06606 0.67254 0.47033 0.0
O105 O 0.06934 0.69709 0.51166 0.0
O106 O 0.11526 0.68477 0.50807 0.0
C107 C 0.06431 0.68808 0.4742 0.0
O108 O 0.03431 0.65349 0.58291 0.0
C109 C 0.12534 0.7018 0.52726 0.0
O110 O 0.06509 0.67117 0.612 0.0
O111 O 0.11598 0.7064 0.55604 0.0
C112 C 0.43615 0.07114 0.70804 0.0
O113 O 0.42378 0.05431 0.69014 0.0
Cd114 Cd 0.38916 0.04364 0.67622 0.0
O115 O 0.43059 0.08386 0.71813 0.0
Cd116 Cd 0.39917 0.08614 0.71114 0.0
C117 C 0.37579 0.0483 0.78429 0.0
O118 O 0.38787 0.07036 0.63861 0.0
O119 O 0.36481 0.07084 0.67951 0.0
O120 O 0.42193 0.11927 0.68206 0.0
C121 C 0.37025 0.06798 0.64142 0.0
O122 O 0.37425 0.03732 0.75065 0.0
C123 C 0.41312 0.12801 0.69923 0.0
O124 O 0.38557 0.06755 0.78138 0.0
O125 O 0.3986 0.11764 0.726 0.0
C126 C 0.36751 0.44495 0.8531 0.0
O127 O 0.37189 0.43227 0.83665 0.0
Cd128 Cd 0.34826 0.39691 0.83091 0.0
O129 O 0.34941 0.43936 0.86508 0.0
Cd130 Cd 0.31536 0.40824 0.86317 0.0
C131 C 0.33089 0.38727 0.94059 0.0
O132 O 0.31871 0.39297 0.79535 0.0
O133 O 0.29449 0.37278 0.83881 0.0
O134 O 0.30544 0.42944 0.82487 0.0
C135 C 0.30342 0.37563 0.80152 0.0
O136 O 0.34043 0.38521 0.90784 0.0
C137 C 0.28895 0.42365 0.8456 0.0
O138 O 0.321 0.39655 0.93573 0.0
O139 O 0.28507 0.41134 0.8777 0.0
C140 C 0.90693 0.36281 0.04766 0.0
O141 O 0.92389 0.36746 0.03025 0.0
Cd142 Cd 0.93573 0.34438 0.0176 0.0
O143 O 0.89452 0.34461 0.05891 0.0
Cd144 Cd 0.89296 0.31113 0.05593 0.0
C145 C 0.93252 0.32785 0.1265 0.0
O146 O 0.90881 0.31509 0.98386 0.0
O147 O 0.90758 0.29136 0.02438 0.0
O148 O 0.85892 0.2995 0.0296 0.0
C149 C 0.91172 0.30023 0.98694 0.0
O150 O 0.94289 0.337 0.09209 0.0
C151 C 0.85089 0.28232 0.04816 0.0
O152 O 0.91319 0.31798 0.12495 0.0
O153 O 0.86213 0.27898 0.07391 0.0
C154 C 0.5425 0.91367 0.19692 0.0
O155 O 0.55431 0.92974 0.17592 0.0
Cd156 Cd 0.58968 0.94262 0.16696 0.0
O157 O 0.54901 0.90249 0.21269 0.0
Cd158 Cd 0.58127 0.9014 0.21182 0.0
C159 C 0.60295 0.94259 0.27796 0.0
O160 O 0.59294 0.91543 0.13824 0.0
O161 O 0.61555 0.91516 0.18054 0.0
O162 O 0.55918 0.86667 0.1893 0.0
C163 C 0.61073 0.91839 0.14222 0.0
O164 O 0.60345 0.9519 0.24232 0.0
C165 C 0.5688 0.85953 0.20944 0.0
O166 O 0.5946 0.92334 0.27827 0.0
O167 O 0.58334 0.8716 0.23457 0.0
H168 H 0.34816 0.36438 0.95895 0.0
H169 H 0.35098 0.35123 0.03068 0.0
H170 H 0.31863 0.37745 0.09412 0.0
H171 H 0.3159 0.39103 0.02184 0.0
H172 H 0.35246 0.38528 0.14046 0.0
H173 H 0.29565 0.32673 0.07865 0.0
H174 H 0.27635 0.30094 0.02118 0.0
H175 H 0.32039 0.28164 0.02329 0.0
H176 H 0.34013 0.30752 0.08034 0.0
H177 H 0.34761 0.33844 0.34594 0.0
H178 H 0.3369 0.34694 0.2767 0.0
H179 H 0.36821 0.32294 0.20044 0.0
H180 H 0.37883 0.31404 0.26995 0.0
H181 H 0.33189 0.31318 0.16274 0.0
H182 H 0.38999 0.37336 0.21909 0.0
H183 H 0.40987 0.39944 0.27562 0.0
H184 H 0.3637 0.41584 0.28271 0.0
H185 H 0.3434 0.38964 0.22663 0.0
C186 C 0.34152 0.36735 0.98798 0.0
C187 C 0.33179 0.37881 0.98453 0.0
C188 C 0.34305 0.35966 0.02902 0.0
C189 C 0.33478 0.3631 0.06767 0.0
C190 C 0.32503 0.37453 0.06459 0.0
C191 C 0.32344 0.38224 0.02329 0.0
C192 C 0.33724 0.35545 0.11137 0.0
C193 C 0.34758 0.36945 0.14568 0.0
C194 C 0.33134 0.33486 0.11773 0.0
C195 C 0.31945 0.31918 0.08358 0.0
C196 C 0.3013 0.31709 0.06664 0.0
C197 C 0.29027 0.30244 0.03417 0.0
C198 C 0.29716 0.28969 0.01853 0.0
C199 C 0.31508 0.29154 0.03542 0.0
C200 C 0.32618 0.30618 0.06788 0.0
C201 C 0.35213 0.33479 0.3145 0.0
C202 C 0.36429 0.32574 0.31353 0.0
C203 C 0.346 0.33972 0.27491 0.0
C204 C 0.35207 0.33594 0.23342 0.0
C205 C 0.36344 0.32608 0.23215 0.0
C206 C 0.36951 0.32102 0.27188 0.0
C207 C 0.34726 0.34304 0.19158 0.0
C208 C 0.33655 0.32896 0.15765 0.0
C209 C 0.35285 0.36357 0.18548 0.0
C210 C 0.36508 0.3794 0.21903 0.0
C211 C 0.384 0.38242 0.23296 0.0
C212 C 0.39536 0.39724 0.26488 0.0
C213 C 0.38803 0.40925 0.28284 0.0
C214 C 0.36935 0.4065 0.26882 0.0
C215 C 0.35792 0.39168 0.23695 0.0
H216 H 0.39684 0.42072 0.30754 0.0
H217 H 0.2886 0.27835 -0.00662 0.0
H218 H 0.05865 0.38407 0.45675 0.0
H219 H 0.04076 0.37207 0.3853 0.0
H220 H 0.98355 0.34316 0.45489 0.0
H221 H 0.00118 0.3547 0.52605 0.0
H222 H 0.98301 0.31993 0.38676 0.0
H223 H 0.00204 0.38969 0.40978 0.0
H224 H 0.02595 0.4258 0.42419 0.0
H225 H 0.05825 0.42921 0.30376 0.0
H226 H 0.03474 0.39299 0.2891 0.0
H227 H 0.91685 0.31559 0.2111 0.0
H228 H 0.93588 0.32134 0.28086 0.0
H229 H -0.00807 0.3499 0.20685 0.0
H230 H 0.97323 0.34448 0.13757 0.0
H231 H -0.00621 0.37261 0.27626 0.0
H232 H 0.97338 0.30282 0.25152 0.0
H233 H 0.94917 0.26671 0.23782 0.0
H234 H 0.91885 0.26344 0.36126 0.0
H235 H 0.94272 0.29962 0.37541 0.0
C236 C 0.04229 0.37492 0.45686 0.0
C237 C 0.03136 0.37056 0.49712 0.0
C238 C 0.03208 0.36813 0.41601 0.0
C239 C 0.01079 0.35697 0.41475 0.0
C240 C -4e-05 0.35177 0.45501 0.0
C241 C 0.01011 0.35851 0.49572 0.0
C242 C -0.00036 0.35174 0.37166 0.0
C243 C 0.98526 0.33145 0.36269 0.0
C244 C 0.00274 0.36675 0.34005 0.0
C245 C 0.01677 0.38857 0.34862 0.0
C246 C 0.01433 0.3981 0.38656 0.0
C247 C 0.0278 0.4186 0.39475 0.0
C248 C 0.04363 0.42979 0.36495 0.0
C249 C 0.046 0.42052 0.32685 0.0
C250 C 0.03261 0.4 0.31859 0.0
C251 C 0.93321 0.32291 0.20969 0.0
C252 C 0.94349 0.32967 0.16874 0.0
C253 C 0.94406 0.32613 0.24955 0.0
C254 C 0.96535 0.33602 0.24904 0.0
C255 C 0.97554 0.34233 0.2081 0.0
C256 C 0.96477 0.33917 0.16845 0.0
C257 C 0.97719 0.34077 0.29114 0.0
C258 C -0.00836 0.36103 0.30007 0.0
C259 C 0.97407 0.32574 0.3227 0.0
C260 C 0.95972 0.30398 0.3143 0.0
C261 C 0.96145 0.29444 0.27556 0.0
C262 C 0.9478 0.27395 0.26775 0.0
C263 C 0.93245 0.2628 0.29859 0.0
C264 C 0.93074 0.27211 0.33737 0.0
C265 C 0.94433 0.2926 0.34532 0.0
H266 H 0.92191 0.24694 0.29248 0.0
H267 H 0.05405 0.44566 0.3713 0.0
H268 H 0.61875 0.98318 0.289 0.0
H269 H 0.63157 0.00302 0.35733 0.0
H270 H 0.61979 0.9495 0.42948 0.0
H271 H 0.60677 0.9293 0.36086 0.0
H272 H 0.61032 -0.00184 0.43459 0.0
H273 H 0.657 0.96541 0.51252 0.0
H274 H 0.67714 0.94997 0.48819 0.0
H275 H 0.69002 0.98167 0.36347 0.0
H276 H 0.67022 -0.00248 0.3873 0.0
H277 H 0.6251 0.01002 0.66856 0.0
H278 H 0.62074 -0.00481 0.59426 0.0
H279 H 0.67486 0.04831 0.54928 0.0
H280 H 0.67921 0.06368 0.62395 0.0
H281 H 0.6669 0.00373 0.52698 0.0
H282 H 0.64147 0.05028 0.51254 0.0
H283 H 0.6214 0.06566 0.53773 0.0
H284 H 0.56716 0.00758 0.53288 0.0
H285 H 0.58698 0.9918 0.50835 0.0
C286 C 0.61895 0.97554 0.31924 0.0
C287 C 0.61162 0.95457 0.31943 0.0
C288 C 0.62628 0.98696 0.35831 0.0
C289 C 0.62669 0.97776 0.39837 0.0
C290 C 0.61977 0.95691 0.39873 0.0
C291 C 0.61226 0.94539 0.35956 0.0
C292 C 0.63343 0.98991 0.44009 0.0
C293 C 0.62279 -0.00053 0.45455 0.0
C294 C 0.64977 0.99173 0.46601 0.0
C295 C 0.66195 0.9825 0.45157 0.0
C296 C 0.6642 0.96915 0.47998 0.0
C297 C 0.67555 0.96031 0.46627 0.0
C298 C 0.6848 0.96479 0.42426 0.0
C299 C 0.68278 0.97816 0.39593 0.0
C300 C 0.67147 0.98705 0.4095 0.0
C301 C 0.63622 0.01858 0.6431 0.0
C302 C 0.65251 0.03808 0.65215 0.0
C303 C 0.63367 0.01004 0.60067 0.0
C304 C 0.64749 0.02066 0.56656 0.0
C305 C 0.6641 0.03991 0.57546 0.0
C306 C 0.66649 0.04867 0.61793 0.0
C307 C 0.6437 0.01176 0.52123 0.0
C308 C 0.65467 0.00262 0.50646 0.0
C309 C 0.62773 0.01038 0.49479 0.0
C310 C 0.61574 0.01984 0.50904 0.0
C311 C 0.62529 0.04076 0.51725 0.0
C312 C 0.61396 0.04956 0.53132 0.0
C313 C 0.59303 0.0376 0.53702 0.0
C314 C 0.58338 0.01682 0.52851 0.0
C315 C 0.59466 0.00795 0.51448 0.0
H316 H 0.58428 0.04444 0.54793 0.0
H317 H 0.69357 0.95792 0.41369 0.0
H318 H 0.68216 0.61543 0.52813 0.0
H319 H 0.67856 0.62961 0.59921 0.0
H320 H 0.61398 0.60074 0.57767 0.0
H321 H 0.61778 0.58777 0.50603 0.0
H322 H 0.62539 0.63582 0.60409 0.0
H323 H 0.63832 0.58359 0.65537 0.0
H324 H 0.65755 0.56567 0.66216 0.0
H325 H 0.70803 0.61907 0.71754 0.0
H326 H 0.68915 0.63738 0.71059 0.0
H327 H 0.60841 0.62262 0.8598 0.0
H328 H 0.61972 0.61528 0.78983 0.0
H329 H 0.63568 0.67445 0.74053 0.0
H330 H 0.62328 0.68149 0.81024 0.0
H331 H 0.65281 0.62867 0.74864 0.0
H332 H 0.63069 0.67319 0.62833 0.0
H333 H 0.60624 0.68533 0.62326 0.0
H334 H 0.56505 0.63713 0.70876 0.0
H335 H 0.58915 0.62461 0.71393 0.0
C336 C 0.66723 0.61204 0.53902 0.0
C337 C 0.65025 0.60058 0.51179 0.0
C338 C 0.66515 0.6201 0.57958 0.0
C339 C 0.64596 0.61624 0.59403 0.0
C340 C 0.62898 0.60421 0.56719 0.0
C341 C 0.63113 0.59667 0.52636 0.0
C342 C 0.64323 0.62483 0.6365 0.0
C343 C 0.63147 0.63429 0.63565 0.0
C344 C 0.65105 0.62286 0.67785 0.0
C345 C 0.66243 0.61191 0.68194 0.0
C346 C 0.65358 0.59155 0.66867 0.0
C347 C 0.6644 0.58132 0.67261 0.0
C348 C 0.68403 0.59125 0.69012 0.0
C349 C 0.69284 0.61142 0.70387 0.0
C350 C 0.68209 0.62172 0.69997 0.0
C351 C 0.61434 0.63412 0.83411 0.0
C352 C 0.61484 0.6526 0.84039 0.0
C353 C 0.62092 0.62993 0.79412 0.0
C354 C 0.62845 0.64422 0.75961 0.0
C355 C 0.62957 0.663 0.76627 0.0
C356 C 0.62253 0.66704 0.80611 0.0
C357 C 0.6343 0.63887 0.71637 0.0
C358 C 0.64688 0.63033 0.71698 0.0
C359 C 0.62646 0.64081 0.67501 0.0
C360 C 0.61183 0.64816 0.67196 0.0
C361 C 0.6164 0.66519 0.64598 0.0
C362 C 0.60261 0.67213 0.6431 0.0
C363 C 0.58415 0.66206 0.66582 0.0
C364 C 0.57939 0.64498 0.69134 0.0
C365 C 0.59312 0.63797 0.69429 0.0
H366 H 0.5735 0.66746 0.66357 0.0
H367 H 0.69238 0.5833 0.69316 0.0
H368 H 0.00592 0.64833 0.63308 0.0
H369 H 0.98949 0.6437 0.7052 0.0
H370 H 0.04747 0.66971 0.77124 0.0
H371 H 0.06419 0.67415 0.69861 0.0
H372 H 0.02025 0.63469 0.80913 0.0
H373 H 0.02132 0.69531 0.76698 0.0
H374 H 0.01618 0.71809 0.71758 0.0
H375 H 0.95225 0.67593 0.71435 0.0
H376 H 0.95702 0.65275 0.76324 0.0
H377 H 0.97832 0.63181 0.02078 0.0
H378 H -0.0022 0.64481 0.95224 0.0
H379 H 0.94254 0.61815 0.87537 0.0
H380 H 0.92273 0.60517 0.94425 0.0
H381 H 0.97028 0.65614 0.84554 0.0
H382 H 0.9696 0.59457 0.88201 0.0
H383 H 0.97447 0.57136 0.93055 0.0
H384 H 0.03767 0.61525 0.94339 0.0
H385 H 0.03311 0.63884 0.89539 0.0
C386 C 0.01529 0.65328 0.6628 0.0
C387 C 0.03641 0.66155 0.66001 0.0
C388 C 0.00584 0.65074 0.70409 0.0
C389 C 0.01724 0.65655 0.74363 0.0
C390 C 0.03839 0.6652 0.74107 0.0
C391 C 0.04792 0.66778 0.69957 0.0
C392 C 0.00678 0.65215 0.7875 0.0
C393 C 0.00966 0.63976 0.81751 0.0
C394 C -0.00749 0.65828 0.79785 0.0
C395 C 0.98956 0.67222 0.76855 0.0
C396 C 0.00618 0.69082 0.75548 0.0
C397 C 0.00333 0.70382 0.7276 0.0
C398 C 0.98391 0.69844 0.71276 0.0
C399 C 0.96728 0.68007 0.72585 0.0
C400 C 0.97005 0.66701 0.7537 0.0
C401 C 0.97021 0.62875 0.9894 0.0
C402 C 0.94892 0.61724 0.98801 0.0
C403 C 0.98143 0.6362 0.95021 0.0
C404 C 0.97165 0.63217 0.90867 0.0
C405 C 0.95038 0.62136 0.90714 0.0
C406 C 0.93909 0.61391 0.94649 0.0
C407 C 0.9837 0.63863 0.86686 0.0
C408 C 0.98106 0.65131 0.83729 0.0
C409 C -0.00182 0.63275 0.85679 0.0
C410 C 0.00097 0.61855 0.8855 0.0
C411 C 0.9845 0.59933 0.89548 0.0
C412 C 0.98721 0.5861 0.92284 0.0
C413 C 0.00636 0.59184 0.94015 0.0
C414 C 0.02285 0.61083 0.93002 0.0
C415 C 0.02021 0.62413 0.90271 0.0
H416 H 0.00843 0.58157 0.96132 0.0
H417 H 0.98173 0.70853 0.69118 0.0
H418 H 0.38022 0.06574 0.86732 0.0
H419 H 0.36885 0.04827 0.93916 0.0
H420 H 0.34107 0.99071 0.87084 0.0
H421 H 0.35194 0.00789 0.79931 0.0
H422 H 0.31768 0.98992 0.93863 0.0
H423 H 0.38827 0.01099 0.91609 0.0
H424 H 0.42413 0.03595 0.90168 0.0
H425 H 0.42618 0.06824 0.02129 0.0
H426 H 0.39021 0.04364 0.03601 0.0
H427 H 0.31479 0.92474 0.11281 0.0
H428 H 0.32056 0.94388 0.04351 0.0
H429 H 0.34875 -0.00034 0.1188 0.0
H430 H 0.34339 0.98084 0.18769 0.0
H431 H 0.37124 0.00255 0.04907 0.0
H432 H 0.30101 0.98022 0.07407 0.0
H433 H 0.26508 0.95537 0.08788 0.0
H434 H 0.26225 0.92532 0.96415 0.0
H435 H 0.29826 0.94985 0.94988 0.0
C436 C 0.37144 0.04938 0.86758 0.0
C437 C 0.3672 0.03823 0.82757 0.0
C438 C 0.36502 0.03941 0.90865 0.0
C439 C 0.35438 0.01817 0.91037 0.0
C440 C 0.34929 0.00709 0.87035 0.0
C441 C 0.35564 0.01699 0.82943 0.0
C442 C 0.34955 0.00732 0.95367 0.0
C443 C 0.32939 0.99257 0.9627 0.0
C444 C 0.36479 0.011 0.98533 0.0
C445 C 0.3865 0.02561 0.97687 0.0
C446 C 0.39634 0.02349 0.93916 0.0
C447 C 0.41668 0.03756 0.93095 0.0
C448 C 0.42741 0.05371 0.96048 0.0
C449 C 0.41783 0.05575 -0.00161 0.0
C450 C 0.39747 0.04175 0.00669 0.0
C451 C 0.32208 0.94107 0.1146 0.0
C452 C 0.32869 0.95123 0.15582 0.0
C453 C 0.32531 0.95199 0.07499 0.0
C454 C 0.335 0.97322 0.07599 0.0
C455 C 0.34131 0.98332 0.11716 0.0
C456 C 0.33819 0.97247 0.15658 0.0
C457 C 0.33934 0.98508 0.03415 0.0
C458 C 0.35946 -2e-05 0.02528 0.0
C459 C 0.32406 0.98151 0.00267 0.0
C460 C 0.30239 0.96676 0.01112 0.0
C461 C 0.29277 0.96822 0.04998 0.0
C462 C 0.27238 0.95421 0.05786 0.0
C463 C 0.2614 0.93874 0.02697 0.0
C464 C 0.27078 0.93729 0.98807 0.0
C465 C 0.29118 0.95126 0.98005 0.0
H466 H 0.24561 0.92791 0.03313 0.0
H467 H 0.44315 0.06462 0.95406 0.0
H468 H 0.57644 0.52244 0.38609 0.0
H469 H 0.54983 0.48777 0.39995 0.0
H470 H 0.59407 0.46843 0.40154 0.0
H471 H 0.6212 0.50352 0.38852 0.0
H472 H 0.55261 0.44519 0.34326 0.0
H473 H 0.58095 0.46512 0.49067 0.0
H474 H 0.59522 0.48875 0.55437 0.0
H475 H 0.53983 0.49007 0.56709 0.0
H476 H 0.52534 0.46671 0.50298 0.0
H477 H 0.46435 0.35208 0.41096 0.0
H478 H 0.49981 0.37897 0.40421 0.0
H479 H 0.48356 0.42275 0.44881 0.0
H480 H 0.44845 0.39613 0.45655 0.0
H481 H 0.5169 0.42926 0.48916 0.0
H482 H 0.49126 0.41591 0.33655 0.0
H483 H 0.47623 0.39454 0.26965 0.0
H484 H 0.52544 0.38247 0.26407 0.0
H485 H 0.54063 0.4036 0.33131 0.0
C486 C 0.5806 0.51087 0.38918 0.0
C487 C 0.60093 0.51571 0.3862 0.0
C488 C 0.56536 0.49108 0.39718 0.0
C489 C 0.57007 0.47567 0.40179 0.0
C490 C 0.59025 0.48023 0.39805 0.0
C491 C 0.60566 0.50021 0.39079 0.0
C492 C 0.55349 0.455 0.41119 0.0
C493 C 0.54507 0.44133 0.37549 0.0
C494 C 0.54356 0.45034 0.45297 0.0
C495 C 0.55212 0.46426 0.49182 0.0
C496 C 0.57188 0.47058 0.50681 0.0
C497 C 0.57999 0.4839 0.54304 0.0
C498 C 0.56845 0.49093 0.56472 0.0
C499 C 0.54875 0.48462 0.55026 0.0
C500 C 0.54057 0.47131 0.51401 0.0
C501 C 0.46837 0.36745 0.41931 0.0
C502 C 0.45356 0.37196 0.43424 0.0
C503 C 0.48863 0.38279 0.4154 0.0
C504 C 0.49433 0.40289 0.42587 0.0
C505 C 0.47955 0.40734 0.44085 0.0
C506 C 0.45943 0.39208 0.44507 0.0
C507 C 0.51552 0.41961 0.42077 0.0
C508 C 0.52474 0.43264 0.45731 0.0
C509 C 0.52605 0.42376 0.37958 0.0
C510 C 0.51692 0.41108 0.33925 0.0
C511 C 0.49878 0.40856 0.32125 0.0
C512 C 0.49025 0.39652 0.28325 0.0
C513 C 0.49984 0.38709 0.26272 0.0
C514 C 0.51801 0.38974 0.28008 0.0
C515 C 0.52658 0.40174 0.31812 0.0
H516 H 0.49322 0.37779 0.23329 0.0
H517 H 0.57476 0.50125 0.59276 0.0
H518 H 0.03659 0.45252 0.61108 0.0
H519 H 0.04274 0.48609 0.59166 0.0
H520 H 0.10655 0.50734 0.57774 0.0
H521 H 0.1005 0.47346 0.59652 0.0
H522 H 0.09434 0.53302 0.63142 0.0
H523 H 0.08567 0.50164 0.48789 0.0
H524 H 0.06907 0.47438 0.43192 0.0
H525 H 0.01481 0.47799 0.4416 0.0
H526 H 0.03095 0.50502 0.49824 0.0
H527 H 0.10115 0.62461 0.54852 0.0
H528 H 0.10663 0.59583 0.55787 0.0
H529 H 0.0425 0.55475 0.5416 0.0
H530 H 0.03706 0.58318 0.53084 0.0
H531 H 0.06225 0.54158 0.4955 0.0
H532 H 0.06748 0.56752 0.64631 0.0
H533 H 0.08196 0.59349 0.70564 0.0
H534 H 0.14028 0.59899 0.68572 0.0
H535 H 0.12617 0.5732 0.62588 0.0
C536 C 0.05196 0.4643 0.60405 0.0
C537 C 0.06807 0.46033 0.60528 0.0
C538 C 0.05542 0.48345 0.59283 0.0
C539 C 0.07506 0.49907 0.58309 0.0
C540 C 0.09129 0.49539 0.58511 0.0
C541 C 0.08779 0.47606 0.59568 0.0
C542 C 0.07822 0.51913 0.5706 0.0
C543 C 0.08777 0.53514 0.60122 0.0
C544 C 0.0693 0.52161 0.5316 0.0
C545 C 0.0595 0.5053 0.49755 0.0
C546 C 0.07013 0.4965 0.47841 0.0
C547 C 0.06081 0.4811 0.44649 0.0
C548 C 0.04089 0.47445 0.43322 0.0
C549 C 0.03024 0.48316 0.45189 0.0
C550 C 0.03948 0.49854 0.48388 0.0
C551 C 0.08825 0.60942 0.54696 0.0
C552 C 0.06868 0.60617 0.5389 0.0
C553 C 0.09139 0.593 0.55243 0.0
C554 C 0.07496 0.57311 0.55072 0.0
C555 C 0.05545 0.56993 0.54277 0.0
C556 C 0.05235 0.58624 0.53675 0.0
C557 C 0.07768 0.55536 0.55719 0.0
C558 C 0.06925 0.53973 0.52529 0.0
C559 C 0.08737 0.55316 0.59535 0.0
C560 C 0.09584 0.56865 0.63126 0.0
C561 C 0.08343 0.57439 0.65435 0.0
C562 C 0.09156 0.58905 0.68811 0.0
C563 C 0.11204 0.59794 0.69933 0.0
C564 C 0.12443 0.59213 0.67691 0.0
C565 C 0.11637 0.57749 0.64309 0.0
H566 H 0.11831 0.60928 0.72548 0.0
H567 H 0.03372 0.46261 0.40837 0.0
H568 H 0.44926 0.04411 0.7146 0.0
H569 H 0.4832 0.05081 0.73291 0.0
H570 H 0.50423 0.11461 0.74252 0.0
H571 H 0.46993 0.10801 0.72491 0.0
H572 H 0.52903 0.10024 0.68737 0.0
H573 H 0.50099 0.09711 0.83315 0.0
H574 H 0.47469 0.08261 0.89158 0.0
H575 H 0.47682 0.02754 0.88821 0.0
H576 H 0.50286 0.04155 0.82922 0.0
H577 H 0.62096 0.10497 0.76488 0.0
H578 H 0.59322 0.11225 0.757 0.0
H579 H 0.54985 0.04946 0.7814 0.0
H580 H 0.5772 0.04223 0.79036 0.0
H581 H 0.53976 0.07216 0.82714 0.0
H582 H 0.56079 0.0707 0.67457 0.0
H583 H 0.58511 0.0819 0.61201 0.0
H584 H 0.5944 0.142 0.62387 0.0
H585 H 0.57028 0.13117 0.68689 0.0
C586 C 0.46106 0.0596 0.72047 0.0
C587 C 0.45691 0.07554 0.71834 0.0
C588 C 0.48042 0.06337 0.73103 0.0
C589 C 0.4961 0.08316 0.73917 0.0
C590 C 0.49223 0.09924 0.73635 0.0
C591 C 0.47268 0.09543 0.72647 0.0
C592 C 0.51637 0.08659 0.75089 0.0
C593 C 0.53167 0.09464 0.71841 0.0
C594 C 0.51949 0.07883 0.79097 0.0
C595 C 0.50383 0.07037 0.82656 0.0
C596 C 0.49573 0.08184 0.84458 0.0
C597 C 0.48088 0.07372 0.87786 0.0
C598 C 0.47409 0.05417 0.89358 0.0
C599 C 0.48211 0.04269 0.87602 0.0
C600 C 0.49693 0.05072 0.8427 0.0
C601 C 0.6055 0.09276 0.76858 0.0
C602 C 0.6013 0.07303 0.77831 0.0
C603 C 0.58967 0.09693 0.76398 0.0
C604 C 0.56944 0.08138 0.76849 0.0
C605 C 0.56532 0.06174 0.77814 0.0
C606 C 0.58103 0.05762 0.7831 0.0
C607 C 0.55226 0.08511 0.76289 0.0
C608 C 0.53747 0.07836 0.7966 0.0
C609 C 0.54948 0.09369 0.72357 0.0
C610 C 0.56397 0.1002 0.68579 0.0
C611 C 0.56816 0.08634 0.66407 0.0
C612 C 0.58187 0.09261 0.62849 0.0
C613 C 0.59135 0.11267 0.61409 0.0
C614 C 0.58708 0.12648 0.63515 0.0
C615 C 0.57339 0.12029 0.67078 0.0
H616 H 0.60196 0.1175 0.58653 0.0
H617 H 0.46267 0.04792 0.91945 0.0
H618 H 0.52608 0.58813 -0.00263 0.0
H619 H 0.4923 0.5615 0.97646 0.0
H620 H 0.48694 0.60195 0.8847 0.0
H621 H 0.52109 0.62886 0.90519 0.0
H622 H 0.45494 0.55667 0.97967 0.0
H623 H 0.46104 0.57277 0.79191 0.0
H624 H 0.48714 0.59041 0.73402 0.0
H625 H 0.52896 0.57963 0.80805 0.0
H626 H 0.50304 0.56173 0.86601 0.0
H627 H 0.364 0.47687 0.88472 0.0
H628 H 0.39137 0.51149 0.89889 0.0
H629 H 0.43497 0.49565 0.8506 0.0
H630 H 0.40783 0.4613 0.83554 0.0
H631 H 0.44473 0.53238 0.82253 0.0
H632 H 0.42477 0.49564 0.96317 0.0
H633 H 0.40051 0.47617 0.02295 0.0
H634 H 0.38937 0.52525 0.0463 0.0
H635 H 0.4134 0.5449 0.98625 0.0
C636 C 0.51772 0.5915 0.97301 0.0
C637 C 0.52639 0.61058 0.95261 0.0
C638 C 0.49832 0.57626 0.9613 0.0
C639 C 0.48717 0.57969 0.92881 0.0
C640 C 0.49538 0.59896 0.9096 0.0
C641 C 0.51487 0.61431 0.92142 0.0
C642 C 0.46763 0.5625 0.91334 0.0
C643 C 0.45255 0.55153 0.94516 0.0
C644 C 0.46459 0.55571 0.86841 0.0
C645 C 0.4802 0.56617 0.83351 0.0
C646 C 0.4758 0.57415 0.79574 0.0
C647 C 0.49056 0.58418 0.76293 0.0
C648 C 0.50972 0.58622 0.76745 0.0
C649 C 0.51414 0.57812 0.80468 0.0
C650 C 0.49943 0.56805 0.83753 0.0
C651 C 0.37941 0.48081 0.87676 0.0
C652 C 0.38374 0.46624 0.85937 0.0
C653 C 0.39502 0.5006 0.8849 0.0
C654 C 0.41524 0.5061 0.8762 0.0
C655 C 0.41949 0.49177 0.85744 0.0
C656 C 0.40393 0.47207 0.8491 0.0
C657 C 0.43223 0.52628 0.8891 0.0
C658 C 0.44681 0.53783 0.85677 0.0
C659 C 0.43503 0.53339 0.93378 0.0
C660 C 0.42067 0.52162 0.96992 0.0
C661 C 0.41703 0.5022 0.98086 0.0
C662 C 0.40335 0.49115 0.01481 0.0
C663 C 0.39336 0.49944 0.03831 0.0
C664 C 0.39708 0.51883 0.028 0.0
C665 C 0.41073 0.52993 -0.00597 0.0
H666 H 0.38277 0.49086 0.06458 0.0
H667 H 0.52113 0.59402 0.74206 0.0
H668 H 0.93327 0.40315 0.05423 0.0
H669 H 0.92556 0.43007 0.06782 0.0
H670 H 0.86177 0.38631 0.07167 0.0
H671 H 0.86938 0.35894 0.05907 0.0
H672 H 0.88123 0.42793 0.01109 0.0
H673 H 0.8705 0.39943 0.15912 0.0
H674 H 0.87909 0.38507 0.22344 0.0
H675 H 0.93624 0.43993 0.23728 0.0
H676 H 0.92813 0.4545 0.17254 0.0
H677 H 0.87447 0.51529 0.07912 0.0
H678 H 0.86635 0.48002 0.07129 0.0
H679 H 0.92601 0.49657 0.11931 0.0
H680 H 0.93404 0.53142 0.12801 0.0
H681 H 0.89881 0.46302 0.15807 0.0
H682 H 0.91319 0.48933 0.00662 0.0
H683 H 0.90779 0.50453 0.93924 0.0
H684 H 0.84672 0.45504 0.92909 0.0
H685 H 0.85171 0.43968 -0.00321 0.0
C686 C 0.91758 0.39918 0.05788 0.0
C687 C 0.90192 0.37892 0.05562 0.0
C688 C 0.91322 0.41458 0.06566 0.0
C689 C 0.89314 0.4101 0.07069 0.0
C690 C 0.87736 0.38997 0.06783 0.0
C691 C 0.88174 0.37441 0.06085 0.0
C692 C 0.88918 0.42681 0.07958 0.0
C693 C 0.88444 0.43534 0.0435 0.0
C694 C 0.89386 0.4366 0.1216 0.0
C695 C 0.89876 0.42798 0.16077 0.0
C696 C 0.88498 0.40836 0.17562 0.0
C697 C 0.88974 0.4002 0.21221 0.0
C698 C 0.90822 0.41157 0.23438 0.0
C699 C 0.92194 0.43114 0.22006 0.0
C700 C 0.91725 0.43936 0.18345 0.0
C701 C 0.88583 0.51137 0.08799 0.0
C702 C 0.90491 0.52619 0.10418 0.0
C703 C 0.88117 0.49123 0.08345 0.0
C704 C 0.89559 0.48566 0.09463 0.0
C705 C 0.91458 0.50045 0.1108 0.0
C706 C 0.91918 0.52044 0.11557 0.0
C707 C 0.8914 0.46459 0.08921 0.0
C708 C 0.89481 0.45531 0.12597 0.0
C709 C 0.88572 0.45427 0.04763 0.0
C710 C 0.88273 0.46351 0.00706 0.0
C711 C 0.89856 0.48179 0.99023 0.0
C712 C 0.89559 0.49041 0.95195 0.0
C713 C 0.8769 0.48079 0.92999 0.0
C714 C 0.86117 0.4625 0.9462 0.0
C715 C 0.86406 0.45383 0.98451 0.0
H716 H 0.87463 0.48749 0.90035 0.0
H717 H 0.91188 0.40522 0.2627 0.0
H718 H 0.39965 0.93703 0.3079 0.0
H719 H 0.4269 0.92985 0.2948 0.0
H720 H 0.38494 0.87349 0.23064 0.0
H721 H 0.35744 0.88074 0.24295 0.0
H722 H 0.4343 0.90085 0.31992 0.0
H723 H 0.41095 0.86578 0.14517 0.0
H724 H 0.39022 0.865 0.08108 0.0
H725 H 0.40103 0.92415 0.11629 0.0
H726 H 0.422 0.92535 0.18021 0.0
H727 H 0.51313 0.88252 0.24658 0.0
H728 H 0.47854 0.87549 0.261 0.0
H729 H 0.48927 0.92582 0.17765 0.0
H730 H 0.5235 0.93277 0.16268 0.0
H731 H 0.45206 0.89438 0.16341 0.0
H732 H 0.49441 0.93081 0.29096 0.0
H733 H 0.5171 0.93552 0.35422 0.0
H734 H 0.47129 0.87994 0.41229 0.0
H735 H 0.44842 0.87481 0.34902 0.0
C736 C 0.39611 0.92303 0.29117 0.0
C737 C 0.37636 0.90954 0.27611 0.0
C738 C 0.41172 0.91889 0.28396 0.0
C739 C 0.408 0.9012 0.26153 0.0
C740 C 0.38819 0.88734 0.24763 0.0
C741 C 0.3725 0.89151 0.25471 0.0
C742 C 0.42525 0.89811 0.25085 0.0
C743 C 0.43802 0.89914 0.28574 0.0
C744 C 0.43019 0.89596 0.20628 0.0
C745 C 0.4178 0.89552 0.16774 0.0
C746 C 0.40892 0.87862 0.13914 0.0
C747 C 0.39713 0.87811 0.10287 0.0
C748 C 0.39424 0.89448 0.09473 0.0
C749 C 0.40321 0.91144 0.12274 0.0
C750 C 0.41503 0.91204 0.15901 0.0
C751 C 0.50803 0.89196 0.23099 0.0
C752 C 0.52116 0.90833 0.20379 0.0
C753 C 0.48828 0.88792 0.2393 0.0
C754 C 0.48139 0.90022 0.22062 0.0
C755 C 0.49423 0.91609 0.19228 0.0
C756 C 0.51389 0.92012 0.18401 0.0
C757 C 0.46134 0.89764 0.23238 0.0
C758 C 0.44802 0.89548 0.1977 0.0
C759 C 0.45612 0.8992 0.27705 0.0
C760 C 0.46983 0.9023 0.31505 0.0
C761 C 0.48925 0.91952 0.31706 0.0
C762 C 0.50212 0.92228 0.35293 0.0
C763 C 0.49566 0.908 0.38717 0.0
C764 C 0.47629 0.89096 0.38568 0.0
C765 C 0.46337 0.88812 0.34984 0.0
H766 H 0.50565 0.91017 0.41492 0.0
H767 H 0.3851 0.89405 0.06666 0.0
H768 H 0.28464 0.33527 0.82149 0.0
H769 H 0.28605 0.309 0.77665 0.0
H770 H 0.31489 0.35173 0.6698 0.0
H771 H 0.31391 0.37801 0.71443 0.0
H772 H 0.2771 0.29231 0.68122 0.0
H773 H 0.36014 0.35578 0.66081 0.0
H774 H 0.38485 0.38649 0.70145 0.0
H775 H 0.35548 0.35993 0.82571 0.0
H776 H 0.33089 0.3289 0.78595 0.0
H777 H 0.32774 0.28678 0.49178 0.0
H778 H 0.30847 0.28834 0.5553 0.0
H779 H 0.35176 0.28684 0.64587 0.0
H780 H 0.37183 0.2869 0.582 0.0
H781 H 0.35062 0.31758 0.66299 0.0
H782 H 0.29809 0.25043 0.64767 0.0
H783 H 0.27255 0.21898 0.61091 0.0
H784 H 0.24045 0.24853 0.56668 0.0
H785 H 0.26594 0.28026 0.60256 0.0
C786 C 0.29068 0.33883 0.78787 0.0
C787 C 0.29959 0.35873 0.77164 0.0
C788 C 0.29135 0.3238 0.76228 0.0
C789 C 0.30079 0.32859 0.72033 0.0
C790 C 0.30765 0.34785 0.7023 0.0
C791 C 0.30721 0.36287 0.72791 0.0
C792 C 0.3073 0.31537 0.6989 0.0
C793 C 0.29311 0.29752 0.67735 0.0
C794 C 0.32815 0.32187 0.69589 0.0
C795 C 0.3436 0.34006 0.72033 0.0
C796 C 0.35909 0.35641 0.69685 0.0
C797 C 0.37306 0.37389 0.71973 0.0
C798 C 0.37171 0.37518 0.76612 0.0
C799 C 0.35649 0.35893 0.78978 0.0
C800 C 0.34254 0.34139 0.76709 0.0
C801 C 0.33271 0.2861 0.52532 0.0
C802 C 0.35128 0.28696 0.53235 0.0
C803 C 0.32159 0.2868 0.56175 0.0
C804 C 0.32863 0.28776 0.60566 0.0
C805 C 0.34609 0.28632 0.61242 0.0
C806 C 0.35754 0.28631 0.57602 0.0
C807 C 0.32051 0.29462 0.64278 0.0
C808 C 0.3345 0.31158 0.66751 0.0
C809 C 0.29947 0.28684 0.64953 0.0
C810 C 0.28402 0.26779 0.62778 0.0
C811 C 0.28566 0.25028 0.62986 0.0
C812 C 0.27117 0.23239 0.6092 0.0
C813 C 0.2549 0.23176 0.58645 0.0
C814 C 0.25306 0.24903 0.58436 0.0
C815 C 0.26751 0.26697 0.60496 0.0
H816 H 0.2437 0.21789 0.57047 0.0
H817 H 0.38247 0.38876 0.78373 0.0
H818 H 0.93521 0.28284 -0.00097 0.0
H819 H 0.96251 0.28658 0.94945 0.0
H820 H 0.94389 0.31491 0.85069 0.0
H821 H 0.91695 0.31163 0.90015 0.0
H822 H 0.96978 0.28018 0.8532 0.0
H823 H 0.98314 0.36112 0.84078 0.0
H824 H 0.97556 0.38397 0.8847 0.0
H825 H 0.97675 0.35469 0.00591 0.0
H826 H 0.98466 0.33193 0.96279 0.0
H827 H 0.02999 0.33663 0.67092 0.0
H828 H 0.007 0.31574 0.73005 0.0
H829 H 0.04777 0.35749 0.82935 0.0
H830 H 0.06992 0.37911 0.76981 0.0
H831 H 0.01453 0.35451 0.8414 0.0
H832 H 0.03321 0.30466 0.82342 0.0
H833 H 0.04128 0.28107 0.78446 0.0
H834 H 0.98051 0.24788 0.7338 0.0
H835 H 0.97213 0.27143 0.77189 0.0
C836 C 0.93653 0.28924 0.96612 0.0
C837 C 0.92433 0.2974 0.95369 0.0
C838 C 0.95204 0.29123 0.93779 0.0
C839 C 0.95529 0.30126 0.89687 0.0
C840 C 0.94162 0.30724 0.88238 0.0
C841 C 0.92634 0.30548 0.91074 0.0
C842 C 0.9749 0.30938 0.87368 0.0
C843 C 0.97977 0.29639 0.8506 0.0
C844 C 0.9882 0.33048 0.87217 0.0
C845 C 0.98435 0.34474 0.89851 0.0
C846 C 0.98195 0.35969 0.87683 0.0
C847 C 0.97755 0.37259 0.90158 0.0
C848 C 0.97561 0.37075 0.94805 0.0
C849 C 0.9782 0.35608 0.96991 0.0
C850 C 0.98263 0.34317 0.94533 0.0
C851 C 0.03427 0.34094 0.70548 0.0
C852 C 0.0515 0.35945 0.71614 0.0
C853 C 0.02121 0.32892 0.73937 0.0
C854 C 0.02558 0.33499 0.78438 0.0
C855 C 0.04394 0.35255 0.79494 0.0
C856 C 0.05661 0.36488 0.76103 0.0
C857 C 0.00954 0.32542 0.81892 0.0
C858 C 0.00512 0.33823 0.84436 0.0
C859 C -0.00285 0.30417 0.82342 0.0
C860 C 0.00207 0.2899 0.8004 0.0
C861 C 0.02159 0.29242 0.80372 0.0
C862 C 0.02622 0.27903 0.78182 0.0
C863 C 0.01143 0.263 0.75663 0.0
C864 C -0.00804 0.2603 0.75335 0.0
C865 C 0.98725 0.27364 0.77517 0.0
H866 H 0.01505 0.25266 0.73969 0.0
H867 H 0.97212 0.38069 0.96713 0.0
H868 H 0.65199 0.9358 0.14895 0.0
H869 H 0.67711 0.95956 0.09593 0.0
H870 H 0.62906 0.94957 0.00506 0.0
H871 H 0.60409 0.92581 0.05722 0.0
H872 H 0.66272 0.95727 0.95948 0.0
H873 H 0.64385 0.98532 0.08767 0.0
H874 H 0.64184 0.99035 0.1687 0.0
H875 H 0.70622 0.01596 0.18031 0.0
H876 H 0.70853 0.0108 0.09936 0.0
H877 H 0.66238 0.05213 0.9236 0.0
H878 H 0.66441 0.02882 0.97534 0.0
H879 H 0.70932 0.02637 0.8917 0.0
H880 H 0.70709 0.04967 0.83889 0.0
H881 H 0.69159 0.02591 0.02568 0.0
H882 H 0.69711 0.97633 0.89181 0.0
H883 H 0.69295 0.97035 0.81027 0.0
H884 H 0.64715 0.98735 0.80898 0.0
H885 H 0.65092 -0.0068 0.89052 0.0
C886 C 0.64686 0.93828 0.11706 0.0
C887 C 0.62607 0.92935 0.10752 0.0
C888 C 0.66123 0.95179 0.08684 0.0
C889 C 0.65491 0.95651 0.0469 0.0
C890 C 0.63428 0.94613 0.03566 0.0
C891 C 0.61998 0.93269 0.06572 0.0
C892 C 0.66875 0.9745 0.0204 0.0
C893 C 0.66963 0.97232 0.974 0.0
C894 C 0.67765 -0.00588 0.03936 0.0
C895 C 0.67633 -0.00254 0.08775 0.0
C896 C 0.65755 0.99193 0.10761 0.0
C897 C 0.65635 -0.0052 0.15347 0.0
C898 C 0.67389 0.00342 0.17966 0.0
C899 C 0.69265 0.00924 0.16 0.0
C900 C 0.69391 0.00633 0.11415 0.0
C901 C 0.67295 0.04692 0.91648 0.0
C902 C 0.68429 0.0524 0.87683 0.0
C903 C 0.67425 0.03372 0.94633 0.0
C904 C 0.68689 0.02572 0.93719 0.0
C905 C 0.69936 0.03228 0.89918 0.0
C906 C 0.69805 0.04555 0.86909 0.0
C907 C 0.68455 0.00862 0.96459 0.0
C908 C 0.68589 0.01097 0.01123 0.0
C909 C 0.67706 0.98912 0.94577 0.0
C910 C 0.67451 0.98545 0.89697 0.0
C911 C 0.68616 0.97876 0.87404 0.0
C912 C 0.68386 0.97539 0.82788 0.0
C913 C 0.66986 0.97854 0.80443 0.0
C914 C 0.65804 0.98498 0.82714 0.0
C915 C 0.66025 0.98832 0.8733 0.0
H916 H 0.66812 0.97595 0.7687 0.0
H917 H 0.67294 0.00563 0.21516 0.0
H918 H 0.60986 0.67208 0.10584 0.0
H919 H 0.63431 0.67307 0.15921 0.0
H920 H 0.68316 0.7102 0.06917 0.0
H921 H 0.65853 0.7091 0.01495 0.0
H922 H 0.68525 0.6782 0.0934 0.0
H923 H 0.68222 0.72934 0.17245 0.0
H924 H 0.66733 0.74849 0.2058 0.0
H925 H 0.63249 0.69963 0.29613 0.0
H926 H 0.64689 0.68003 0.26294 0.0
H927 H 0.70442 0.64736 0.33402 0.0
H928 H 0.70906 0.67427 0.28257 0.0
H929 H 0.66733 0.62928 0.18981 0.0
H930 H 0.66277 0.60254 0.2405 0.0
H931 H 0.68008 0.68208 0.25811 0.0
H932 H 0.6778 0.64294 0.08667 0.0
H933 H 0.69322 0.62401 0.05484 0.0
H934 H 0.74186 0.65173 0.14978 0.0
H935 H 0.72697 0.67114 0.18173 0.0
C936 C 0.62582 0.68081 0.09772 0.0
C937 C 0.63228 0.69031 0.05608 0.0
C938 C 0.63984 0.68156 0.12848 0.0
C939 C 0.66061 0.69191 0.11839 0.0
C940 C 0.66722 0.70226 0.07769 0.0
C941 C 0.65314 0.70159 0.04684 0.0
C942 C 0.67457 0.68904 0.14771 0.0
C943 C 0.68456 0.67945 0.12941 0.0
C944 C 0.67443 0.69149 0.19459 0.0
C945 C 0.66573 0.70322 0.21519 0.0
C946 C 0.67133 0.72263 0.19932 0.0
C947 C 0.66296 0.73357 0.21821 0.0
C948 C 0.64899 0.72529 0.25309 0.0
C949 C 0.64336 0.70605 0.26919 0.0
C950 C 0.65167 0.69504 0.25042 0.0
C951 C 0.69654 0.64326 0.30225 0.0
C952 C 0.68308 0.62289 0.29134 0.0
C953 C 0.69923 0.65863 0.27297 0.0
C954 C 0.68874 0.65377 0.2322 0.0
C955 C 0.67592 0.63339 0.22068 0.0
C956 C 0.67315 0.6181 0.24989 0.0
C957 C 0.68887 0.66957 0.20367 0.0
C958 C 0.68161 0.68164 0.22213 0.0
C959 C 0.69183 0.66969 0.15697 0.0
C960 C 0.70125 0.65857 0.13661 0.0
C961 C 0.69193 0.64523 0.10044 0.0
C962 C 0.70054 0.63435 0.08245 0.0
C963 C 0.7185 0.63666 0.10027 0.0
C964 C 0.72794 0.64994 0.13601 0.0
C965 C 0.71941 0.66088 0.15409 0.0
H966 H 0.7251 0.62816 0.08643 0.0
H967 H 0.64252 0.73378 0.26764 0.0
H968 H 0.0394 0.70355 0.4906 0.0
H969 H 0.01189 0.69973 0.44172 0.0
H970 H 0.03353 0.67639 0.337 0.0
H971 H 0.06064 0.6797 0.38577 0.0
H972 H 0.0045 0.70798 0.34664 0.0
H973 H -0.00313 0.63001 0.32145 0.0
H974 H 0.00567 0.60718 0.36111 0.0
H975 H 3e-05 0.63099 0.48726 0.0
H976 H -0.00885 0.65387 0.44834 0.0
H977 H 0.94505 0.65287 0.16056 0.0
H978 H 0.96789 0.67347 0.22045 0.0
H979 H 0.92881 0.62934 0.31745 0.0
H980 H 0.90673 0.60814 0.25708 0.0
H981 H 0.96303 0.63365 0.32571 0.0
H982 H 0.94078 0.68116 0.3181 0.0
H983 H 0.931 0.70429 0.2838 0.0
H984 H -0.00863 0.74097 0.23325 0.0
H985 H 0.00146 0.7179 0.26666 0.0
C986 C 0.03871 0.69834 0.45657 0.0
C987 C 0.05181 0.69151 0.44205 0.0
C988 C 0.02307 0.69626 0.42868 0.0
C989 C 0.02061 0.68754 0.38614 0.0
C990 C 0.03518 0.68305 0.36989 0.0
C991 C 0.05056 0.68483 0.39781 0.0
C992 C 0.00104 0.67901 0.36261 0.0
C993 C -0.00477 0.69176 0.34205 0.0
C994 C 0.98869 0.65784 0.35836 0.0
C995 C -0.00652 0.64371 0.38199 0.0
C996 C -0.00258 0.63028 0.35766 0.0
C997 C 0.00249 0.61738 0.38 0.0
C998 C 0.0035 0.6177 0.42668 0.0
C999 C -0.00064 0.63084 0.45111 0.0
C1000 C -0.00564 0.6438 0.42893 0.0
C1001 C 0.94107 0.64792 0.19484 0.0
C1002 C 0.92436 0.62888 0.20443 0.0
C1003 C 0.95405 0.65978 0.22917 0.0
C1004 C 0.95014 0.65298 0.27363 0.0
C1005 C 0.93226 0.63484 0.28342 0.0
C1006 C 0.91964 0.62274 0.24902 0.0
C1007 C 0.96631 0.66253 0.30796 0.0
C1008 C 0.97173 0.64989 0.33066 0.0
C1009 C 0.9778 0.68374 0.31495 0.0
C1010 C 0.97185 0.6977 0.29473 0.0
C1011 C 0.95194 0.69407 0.29939 0.0
C1012 C 0.94635 0.70719 0.28015 0.0
C1013 C 0.96055 0.72407 0.25631 0.0
C1014 C 0.98039 0.72789 0.25173 0.0
C1015 C 0.98606 0.71481 0.27089 0.0
H1016 H 0.95619 0.73421 0.24144 0.0
H1017 H 0.00746 0.60773 0.44392 0.0
H1018 H 0.27954 0.94276 0.31871 0.0
H1019 H 0.28335 0.97062 0.36658 0.0
H1020 H 0.30966 0.95179 0.46978 0.0
H1021 H 0.30626 0.92427 0.42214 0.0
H1022 H 0.27619 0.9785 0.46343 0.0
H1023 H 0.35656 0.99025 0.47849 0.0
H1024 H 0.37933 0.98227 0.43544 0.0
H1025 H 0.35099 0.98423 0.31314 0.0
H1026 H 0.32828 0.99251 0.35541 0.0
H1027 H 0.33199 0.03621 0.64857 0.0
H1028 H 0.31128 0.0143 0.58764 0.0
H1029 H 0.35468 0.05544 0.49181 0.0
H1030 H 0.37611 0.07649 0.55319 0.0
H1031 H 0.35074 0.02206 0.47755 0.0
H1032 H 0.30195 0.04207 0.4949 0.0
H1033 H 0.27863 0.0507 0.53327 0.0
H1034 H 0.24373 0.98983 0.58128 0.0
H1035 H 0.26699 0.98087 0.54379 0.0
C1036 C 0.28545 0.94415 0.35224 0.0
C1037 C 0.29304 0.9317 0.36651 0.0
C1038 C 0.2875 0.95999 0.37955 0.0
C1039 C 0.29701 0.96332 0.42128 0.0
C1040 C 0.30238 0.94945 0.43748 0.0
C1041 C 0.30055 0.93383 0.41017 0.0
C1042 C 0.30532 0.98308 0.44385 0.0
C1043 C 0.29245 0.98826 0.46648 0.0
C1044 C 0.3265 -0.00392 0.44593 0.0
C1045 C 0.34065 0.99187 0.42015 0.0
C1046 C 0.35531 0.98913 0.4424 0.0
C1047 C 0.36818 0.98452 0.41814 0.0
C1048 C 0.36658 0.98269 0.3716 0.0
C1049 C 0.35219 0.98559 0.34919 0.0
C1050 C 0.3393 0.99022 0.37329 0.0
C1051 C 0.33675 0.0408 0.61439 0.0
C1052 C 0.35565 0.05778 0.60525 0.0
C1053 C 0.32481 0.02838 0.57946 0.0
C1054 C 0.33135 0.03315 0.53489 0.0
C1055 C 0.34937 0.0513 0.52586 0.0
C1056 C 0.3616 0.06333 0.56081 0.0
C1057 C 0.32172 0.01757 0.49929 0.0
C1058 C 0.33443 0.01294 0.47403 0.0
C1059 C 0.30042 0.00558 0.49397 0.0
C1060 C 0.2863 0.01082 0.51661 0.0
C1061 C 0.28938 0.03054 0.51388 0.0
C1062 C 0.27616 0.03549 0.53545 0.0
C1063 C 0.25972 0.02083 0.55973 0.0
C1064 C 0.25646 0.00117 0.56243 0.0
C1065 C 0.26964 -0.00386 0.54094 0.0
H1066 H 0.2495 0.02469 0.57641 0.0
H1067 H 0.3765 0.97904 0.35289 0.0
H1068 H 0.38483 0.2355 0.42078 0.0
H1069 H 0.38814 0.21039 0.46498 0.0
H1070 H 0.4457 0.25719 0.51547 0.0
H1071 H 0.4425 0.2823 0.47172 0.0
H1072 H 0.41549 0.19669 0.48 0.0
H1073 H 0.44346 0.25302 0.62911 0.0
H1074 H 0.44145 0.28271 0.65478 0.0
H1075 H 0.38572 0.26151 0.58275 0.0
H1076 H 0.38724 0.23157 0.55732 0.0
H1077 H 0.44494 0.15414 0.6478 0.0
H1078 H 0.44656 0.1811 0.60147 0.0
H1079 H 0.39166 0.17294 0.66227 0.0
H1080 H 0.38997 0.14593 0.70912 0.0
H1081 H 0.41811 0.21282 0.64188 0.0
H1082 H 0.38754 0.14843 0.56966 0.0
H1083 H 0.38518 0.11656 0.54441 0.0
H1084 H 0.43811 0.14983 0.46295 0.0
H1085 H 0.44098 0.18195 0.48833 0.0
C1086 C 0.39854 0.24031 0.43998 0.0
C1087 C 0.41326 0.26091 0.44336 0.0
C1088 C 0.40037 0.22596 0.46534 0.0
C1089 C 0.41692 0.23207 0.49427 0.0
C1090 C 0.43264 0.25226 0.49392 0.0
C1091 C 0.43082 0.26657 0.46874 0.0
C1092 C 0.41667 0.21808 0.5287 0.0
C1093 C 0.41619 0.20026 0.51534 0.0
C1094 C 0.41687 0.22243 0.57489 0.0
C1095 C 0.4156 0.24018 0.59093 0.0
C1096 C 0.43074 0.25466 0.61894 0.0
C1097 C 0.42968 0.27154 0.63343 0.0
C1098 C 0.4135 0.27404 0.62028 0.0
C1099 C 0.39829 0.25961 0.59279 0.0
C1100 C 0.39925 0.24269 0.57831 0.0
C1101 C 0.43352 0.15847 0.65232 0.0
C1102 C 0.41716 0.14773 0.68167 0.0
C1103 C 0.43442 0.17381 0.62562 0.0
C1104 C 0.41895 0.17862 0.62766 0.0
C1105 C 0.40366 0.16931 0.65999 0.0
C1106 C 0.40276 0.15394 0.68686 0.0
C1107 C 0.41767 0.19178 0.59317 0.0
C1108 C 0.41766 0.20937 0.60653 0.0
C1109 C 0.41639 0.18688 0.54705 0.0
C1110 C 0.41459 0.1676 0.53124 0.0
C1111 C 0.39876 0.14896 0.54662 0.0
C1112 C 0.39732 0.13085 0.53226 0.0
C1113 C 0.41151 0.13117 0.50218 0.0
C1114 C 0.42714 0.14961 0.4863 0.0
C1115 C 0.42868 0.16777 0.50065 0.0
H1116 H 0.41037 0.11713 0.4911 0.0
H1117 H 0.41273 0.28712 0.63146 0.0
H1118 H 0.2499 0.40965 0.87405 0.0
H1119 H 0.22367 0.41324 0.83498 0.0
H1120 H 0.26778 0.45202 0.73773 0.0
H1121 H 0.29404 0.44909 0.77721 0.0
H1122 H 0.2421 0.4643 0.75031 0.0
H1123 H 0.23758 0.40067 0.71938 0.0
H1124 H 0.23463 0.36787 0.73781 0.0
H1125 H 0.17705 0.34856 0.80009 0.0
H1126 H 0.1798 0.38137 0.78255 0.0
H1127 H 0.14658 0.40467 0.59143 0.0
H1128 H 0.17822 0.4099 0.62452 0.0
H1129 H 0.17632 0.45098 0.72136 0.0
H1130 H 0.14535 0.44642 0.68768 0.0
H1131 H 0.18266 0.39929 0.70326 0.0
H1132 H 0.22201 0.48335 0.76275 0.0
H1133 H 0.22728 0.5161 0.73585 0.0
H1134 H 0.2191 0.49463 0.60031 0.0
H1135 H 0.21405 0.46185 0.62631 0.0
C1136 C 0.25409 0.41936 0.84504 0.0
C1137 C 0.27398 0.42887 0.82841 0.0
C1138 C 0.23907 0.42127 0.82251 0.0
C1139 C 0.24367 0.43248 0.78273 0.0
C1140 C 0.26382 0.44318 0.76812 0.0
C1141 C 0.27883 0.44144 0.79076 0.0
C1142 C 0.22741 0.43185 0.75434 0.0
C1143 C 0.22905 0.4501 0.74016 0.0
C1144 C 0.21075 0.41332 0.73968 0.0
C1145 C 0.20899 0.39354 0.75004 0.0
C1146 C 0.22435 0.38947 0.73726 0.0
C1147 C 0.22271 0.37088 0.74752 0.0
C1148 C 0.20569 0.35616 0.77021 0.0
C1149 C 0.19024 0.35999 0.78258 0.0
C1150 C 0.19183 0.37857 0.77247 0.0
C1151 C 0.15324 0.41524 0.61896 0.0
C1152 C 0.14342 0.42507 0.637 0.0
C1153 C 0.17124 0.41812 0.63806 0.0
C1154 C 0.17971 0.43086 0.67546 0.0
C1155 C 0.17036 0.44136 0.69211 0.0
C1156 C 0.15253 0.43864 0.67285 0.0
C1157 C 0.19712 0.43177 0.69978 0.0
C1158 C 0.19569 0.41353 0.71329 0.0
C1159 C 0.21428 0.45032 0.71256 0.0
C1160 C 0.21747 0.47007 0.69657 0.0
C1161 C 0.22142 0.48564 0.72719 0.0
C1162 C 0.22435 0.50421 0.7121 0.0
C1163 C 0.22347 0.50742 0.66642 0.0
C1164 C 0.2197 0.49209 0.63571 0.0
C1165 C 0.21677 0.47351 0.65061 0.0
H1166 H 0.22573 0.5218 0.65481 0.0
H1167 H 0.20444 0.34178 0.77811 0.0
H1168 H 0.82085 0.28645 0.0095 0.0
H1169 H 0.79191 0.26045 0.96733 0.0
H1170 H 0.80756 0.21593 0.00753 0.0
H1171 H 0.8362 0.24167 0.05081 0.0
H1172 H 0.80566 0.23228 0.90008 0.0
H1173 H 0.77185 0.19849 0.04205 0.0
H1174 H 0.75829 0.19934 0.11648 0.0
H1175 H 0.7208 0.22024 0.05776 0.0
H1176 H 0.73441 0.21979 0.98304 0.0
H1177 H 0.73855 0.14015 0.79284 0.0
H1178 H 0.76297 0.16892 0.83702 0.0
H1179 H 0.71733 0.18504 0.86571 0.0
H1180 H 0.69249 0.15541 0.82365 0.0
H1181 H 0.73369 0.18557 0.9385 0.0
H1182 H 0.76163 0.21481 0.79754 0.0
H1183 H 0.77484 0.21703 0.72121 0.0
H1184 H 0.82303 0.2093 0.77265 0.0
H1185 H 0.80996 0.20677 0.84925 0.0
C1186 C 0.81768 0.27096 0.0107 0.0
C1187 C 0.83078 0.26607 0.03341 0.0
C1188 C 0.80121 0.25618 0.98652 0.0
C1189 C 0.7977 0.23637 0.98446 0.0
C1190 C 0.80997 0.23114 0.00922 0.0
C1191 C 0.82626 0.24584 0.03408 0.0
C1192 C 0.78307 0.22195 0.95179 0.0
C1193 C 0.78994 0.22185 0.90835 0.0
C1194 C 0.7625 0.20914 0.96237 0.0
C1195 C 0.75436 0.2094 0.00717 0.0
C1196 C 0.76092 0.20351 0.04512 0.0
C1197 C 0.75317 0.20385 0.08732 0.0
C1198 C 0.73876 0.20992 0.09188 0.0
C1199 C 0.73201 0.2156 0.05421 0.0
C1200 C 0.73972 0.21529 0.01194 0.0
C1201 C 0.73388 0.15016 0.80747 0.0
C1202 C 0.71364 0.14557 0.80479 0.0
C1203 C 0.74789 0.16669 0.83277 0.0
C1204 C 0.74211 0.17934 0.85469 0.0
C1205 C 0.72217 0.17548 0.84947 0.0
C1206 C 0.70803 0.15866 0.82508 0.0
C1207 C 0.75625 0.19532 0.88624 0.0
C1208 C 0.74934 0.19592 0.9296 0.0
C1209 C 0.77676 0.20891 0.87519 0.0
C1210 C 0.78471 0.21045 0.82913 0.0
C1211 C 0.77496 0.21344 0.79255 0.0
C1212 C 0.78244 0.21478 0.74923 0.0
C1213 C 0.79974 0.21326 0.74207 0.0
C1214 C 0.80962 0.21046 0.77824 0.0
C1215 C 0.8022 0.2091 0.82163 0.0
H1216 H 0.80551 0.2143 0.70851 0.0
H1217 H 0.73277 0.21016 0.12457 0.0
H1218 H 0.53487 0.82767 0.17388 0.0
H1219 H 0.53332 0.79912 0.13263 0.0
H1220 H 0.59499 0.81882 0.17017 0.0
H1221 H 0.59651 0.84704 0.21256 0.0
H1222 H 0.58153 0.8164 0.06852 0.0
H1223 H 0.56936 0.78 0.20901 0.0
H1224 H 0.55048 0.76532 0.2788 0.0
H1225 H 0.49625 0.72851 0.20335 0.0
H1226 H 0.51476 0.74321 0.13311 0.0
H1227 H 0.60394 0.74621 0.96775 0.0
H1228 H 0.59983 0.77126 0.0099 0.0
H1229 H 0.53567 0.72915 0.02175 0.0
H1230 H 0.54011 0.70356 0.98215 0.0
H1231 H 0.54806 0.7428 0.09793 0.0
H1232 H 0.55772 0.77594 0.95853 0.0
H1233 H 0.57362 0.79068 0.88608 0.0
H1234 H 0.62817 0.83372 0.95331 0.0
H1235 H 0.6127 0.81907 0.02616 0.0
C1236 C 0.54783 0.82546 0.17475 0.0
C1237 C 0.56582 0.83958 0.19634 0.0
C1238 C 0.54694 0.80922 0.15106 0.0
C1239 C 0.5641 0.80707 0.14818 0.0
C1240 C 0.58161 0.82031 0.17216 0.0
C1241 C 0.58238 0.8363 0.19664 0.0
C1242 C 0.56458 0.79269 0.1158 0.0
C1243 C 0.57446 0.8003 0.07493 0.0
C1244 C 0.55448 0.77171 0.12366 0.0
C1245 C 0.54338 0.76289 0.16586 0.0
C1246 C 0.55336 0.76895 0.20733 0.0
C1247 C 0.54274 0.76058 0.24696 0.0
C1248 C 0.52216 0.74605 0.24552 0.0
C1249 C 0.51218 0.7398 0.20443 0.0
C1250 C 0.52273 0.74814 0.1647 0.0
C1251 C 0.58886 0.74253 0.97811 0.0
C1252 C 0.57233 0.72299 0.97166 0.0
C1253 C 0.58648 0.7569 0.00226 0.0
C1254 C 0.56738 0.75223 0.01903 0.0
C1255 C 0.55059 0.73313 0.00958 0.0
C1256 C 0.55308 0.71857 0.98655 0.0
C1257 C 0.56536 0.76641 0.0501 0.0
C1258 C 0.5551 0.75883 0.09088 0.0
C1259 C 0.5747 0.78743 0.0416 0.0
C1260 C 0.58409 0.79629 -0.00218 0.0
C1261 C 0.57316 0.78845 0.95786 0.0
C1262 C 0.58209 0.79681 0.91671 0.0
C1263 C 0.60191 0.81309 0.91508 0.0
C1264 C 0.61282 0.82109 0.95462 0.0
C1265 C 0.60397 0.81279 -0.00415 0.0
H1266 H 0.60879 0.81954 0.88319 0.0
H1267 H 0.51397 0.73958 0.27624 0.0
H1268 H 0.73789 0.59034 0.36436 0.0
H1269 H 0.76284 0.58906 0.3148 0.0
H1270 H 0.71872 0.52835 0.27521 0.0
H1271 H 0.69343 0.52973 0.32358 0.0
H1272 H 0.76646 0.54282 0.29719 0.0
H1273 H 0.71802 0.55246 0.20664 0.0
H1274 H 0.6989 0.56995 0.19139 0.0
H1275 H 0.75448 0.62677 0.18467 0.0
H1276 H 0.77391 0.60964 0.20077 0.0
H1277 H 0.82157 0.53695 0.11835 0.0
H1278 H 0.79151 0.53202 0.15866 0.0
H1279 H 0.81351 0.59614 0.152 0.0
H1280 H 0.84284 0.60086 0.10925 0.0
H1281 H 0.77512 0.57835 0.15318 0.0
H1282 H 0.82409 0.57294 0.24271 0.0
H1283 H 0.84639 0.55972 0.26478 0.0
H1284 H 0.79461 0.5005 0.28158 0.0
H1285 H 0.77201 0.51333 0.259 0.0
C1286 C 0.73368 0.57649 0.34617 0.0
C1287 C 0.71373 0.56013 0.34772 0.0
C1288 C 0.74789 0.57586 0.31767 0.0
C1289 C 0.74245 0.55871 0.29116 0.0
C1290 C 0.72308 0.54172 0.2954 0.0
C1291 C 0.70872 0.54251 0.32311 0.0
C1292 C 0.75643 0.55919 0.25641 0.0
C1293 C 0.76816 0.55024 0.26533 0.0
C1294 C 0.75905 0.56956 0.21574 0.0
C1295 C 0.74738 0.5798 0.20548 0.0
C1296 C 0.72615 0.56871 0.20242 0.0
C1297 C 0.71526 0.57855 0.19351 0.0
C1298 C 0.72546 0.59947 0.18722 0.0
C1299 C 0.74659 0.61058 0.18965 0.0
C1300 C 0.75754 0.60081 0.19866 0.0
C1301 C 0.81957 0.54984 0.12412 0.0
C1302 C 0.83456 0.56929 0.11103 0.0
C1303 C 0.80252 0.54707 0.14761 0.0
C1304 C 0.80062 0.56382 0.15995 0.0
C1305 C 0.81469 0.58299 0.14334 0.0
C1306 C 0.83145 0.58568 0.11872 0.0
C1307 C 0.78523 0.56174 0.19342 0.0
C1308 C 0.77331 0.57059 0.1846 0.0
C1309 C 0.78287 0.55177 0.23485 0.0
C1310 C 0.79639 0.54404 0.2487 0.0
C1311 C 0.81748 0.55707 0.25085 0.0
C1312 C 0.83017 0.54965 0.26346 0.0
C1313 C 0.82193 0.52927 0.27445 0.0
C1314 C 0.80097 0.51628 0.27297 0.0
C1315 C 0.78821 0.52361 0.26028 0.0
H1316 H 0.83178 0.52356 0.28421 0.0
H1317 H 0.717 0.60707 0.18035 0.0
H1318 H 0.14752 0.74239 0.54567 0.0
H1319 H 0.17652 0.76761 0.50264 0.0
H1320 H 0.17776 0.71996 0.42742 0.0
H1321 H 0.1489 0.69474 0.47004 0.0
H1322 H 0.21589 0.77668 0.47966 0.0
H1323 H 0.17915 0.73222 0.3167 0.0
H1324 H 0.14521 0.70725 0.28867 0.0
H1325 H 0.11786 0.72912 0.38245 0.0
H1326 H 0.15163 0.75444 0.41044 0.0
H1327 H 0.28612 0.82896 0.31161 0.0
H1328 H 0.2608 0.79946 0.35261 0.0
H1329 H 0.21449 0.81268 0.31146 0.0
H1330 H 0.23964 0.84177 0.26903 0.0
H1331 H 0.1987 0.77342 0.31858 0.0
H1332 H 0.24052 0.83108 0.41099 0.0
H1333 H 0.27281 0.85847 0.44107 0.0
H1334 H 0.28712 0.81468 0.49214 0.0
H1335 H 0.25502 0.78703 0.46179 0.0
C1336 C 0.15439 0.73728 0.52097 0.0
C1337 C 0.14574 0.7166 0.51077 0.0
C1338 C 0.17093 0.7517 0.49637 0.0
C1339 C 0.17894 0.74561 0.46126 0.0
C1340 C 0.17155 0.72495 0.45393 0.0
C1341 C 0.15509 0.71056 0.47844 0.0
C1342 C 0.19334 0.76064 0.42912 0.0
C1343 C 0.21223 0.77591 0.44441 0.0
C1344 C 0.18828 0.75992 0.38335 0.0
C1345 C 0.16792 0.74505 0.366 0.0
C1346 C 0.1659 0.73175 0.33118 0.0
C1347 C 0.14669 0.71754 0.31531 0.0
C1348 C 0.12939 0.71655 0.33388 0.0
C1349 C 0.13127 0.72985 0.3682 0.0
C1350 C 0.15044 0.74412 0.3841 0.0
C1351 C 0.27042 0.82518 0.31014 0.0
C1352 C 0.26486 0.83776 0.28754 0.0
C1353 C 0.256 0.80843 0.3339 0.0
C1354 C 0.23588 0.80426 0.33631 0.0
C1355 C 0.22996 0.81572 0.31042 0.0
C1356 C 0.24434 0.83231 0.28601 0.0
C1357 C 0.22154 0.78929 0.36883 0.0
C1358 C 0.20255 0.77406 0.35369 0.0
C1359 C 0.2263 0.79042 0.41499 0.0
C1360 C 0.24547 0.80701 0.43377 0.0
C1361 C 0.25061 0.8273 0.42842 0.0
C1362 C 0.26887 0.84287 0.44552 0.0
C1363 C 0.28203 0.83832 0.46841 0.0
C1364 C 0.27693 0.81818 0.47435 0.0
C1365 C 0.2587 0.80256 0.45723 0.0
H1366 H 0.29617 0.85039 0.48161 0.0
H1367 H 0.11453 0.70551 0.32161 0.0
loop_
_geom_bond_atom_site_label_1
_geom_bond_atom_site_label_2
_geom_bond_distance
_geom_bond_site_symmetry_2
_ccdc_geom_bond_type
C0 O1 1.306 . S
C0 O3 1.160 . S
O1 C0 1.306 . S
O1 Cd2 2.228 . S
Cd2 O1 2.228 . S
Cd2 O6 2.273 . S
Cd2 O10 2.277 . S
O3 C0 1.160 . S
O3 Cd4 2.203 . S
Cd4 O3 2.203 . S
Cd4 O6 2.411 . S
Cd4 O7 2.333 . S
Cd4 O8 2.352 . S
Cd4 O12 2.277 . S
Cd4 O13 2.356 . S
C5 O10 1.209 . S
C5 O12 1.226 . S
O6 Cd2 2.273 . S
O6 Cd4 2.411 . S
O6 C9 1.320 . S
O7 Cd4 2.333 . S
O7 C9 1.214 . S
O8 Cd4 2.352 . S
O8 C11 1.258 . S
C9 O6 1.320 . S
C9 O7 1.214 . S
O10 Cd2 2.277 . S
O10 C5 1.209 . S
C11 O8 1.258 . S
C11 O13 1.282 . S
O12 Cd4 2.277 . S
O12 C5 1.226 . S
O13 Cd4 2.356 . S
O13 C11 1.282 . S
C14 O15 1.306 . S
C14 O17 1.160 . S
O15 C14 1.306 . S
O15 Cd16 2.228 . S
Cd16 O15 2.228 . S
Cd16 O20 2.273 . S
Cd16 O24 2.277 . S
O17 C14 1.160 . S
O17 Cd18 2.203 . S
Cd18 O17 2.203 . S
Cd18 O20 2.411 . S
Cd18 O21 2.333 . S
Cd18 O22 2.352 . S
Cd18 O26 2.277 . S
Cd18 O27 2.356 . S
C19 O24 1.209 . S
C19 O26 1.226 . S
O20 Cd16 2.273 . S
O20 Cd18 2.411 . S
O20 C23 1.320 . S
O21 Cd18 2.333 . S
O21 C23 1.214 . S
O22 Cd18 2.352 . S
O22 C25 1.258 . S
C23 O20 1.320 . S
C23 O21 1.214 . S
O24 Cd16 2.277 . S
O24 C19 1.209 . S
C25 O22 1.258 . S
C25 O27 1.282 . S
O26 Cd18 2.277 . S
O26 C19 1.226 . S
O27 Cd18 2.356 . S
O27 C25 1.282 . S
C28 O29 1.306 . S
C28 O31 1.160 . S
O29 C28 1.306 . S
O29 Cd30 2.228 . S
Cd30 O29 2.228 . S
Cd30 O34 2.273 . S
Cd30 O38 2.277 . S
O31 C28 1.160 . S
O31 Cd32 2.203 . S
Cd32 O31 2.203 . S
Cd32 O34 2.411 . S
Cd32 O35 2.333 . S
Cd32 O36 2.352 . S
Cd32 O40 2.277 . S
Cd32 O41 2.356 . S
C33 O38 1.209 . S
C33 O40 1.226 . S
O34 Cd30 2.273 . S
O34 Cd32 2.411 . S
O34 C37 1.320 . S
O35 Cd32 2.333 . S
O35 C37 1.214 . S
O36 Cd32 2.352 . S
O36 C39 1.258 . S
C37 O34 1.320 . S
C37 O35 1.214 . S
O38 Cd30 2.277 . S
O38 C33 1.209 . S
C39 O36 1.258 . S
C39 O41 1.282 . S
O40 Cd32 2.277 . S
O40 C33 1.226 . S
O41 Cd32 2.356 . S
O41 C39 1.282 . S
C42 O43 1.306 . S
C42 O45 1.160 . S
O43 C42 1.306 . S
O43 Cd44 2.228 . S
Cd44 O43 2.228 . S
Cd44 O48 2.273 . S
Cd44 O52 2.277 . S
O45 C42 1.160 . S
O45 Cd46 2.203 . S
Cd46 O45 2.203 . S
Cd46 O48 2.411 . S
Cd46 O49 2.333 . S
Cd46 O50 2.352 . S
Cd46 O54 2.277 . S
Cd46 O55 2.356 . S
C47 O52 1.209 . S
C47 O54 1.226 . S
O48 Cd44 2.273 . S
O48 Cd46 2.411 . S
O48 C51 1.320 . S
O49 Cd46 2.333 . S
O49 C51 1.214 . S
O50 Cd46 2.352 . S
O50 C53 1.258 . S
C51 O48 1.320 . S
C51 O49 1.214 . S
O52 Cd44 2.277 . S
O52 C47 1.209 . S
C53 O50 1.258 . S
C53 O55 1.282 . S
O54 Cd46 2.277 . S
O54 C47 1.226 . S
O55 Cd46 2.356 . S
O55 C53 1.282 . S
C56 O57 1.306 . S
C56 O59 1.160 . S
O57 C56 1.306 . S
O57 Cd58 2.228 . S
Cd58 O57 2.228 . S
Cd58 O62 2.273 . S
Cd58 O66 2.277 . S
O59 C56 1.160 . S
O59 Cd60 2.203 . S
Cd60 O59 2.203 . S
Cd60 O62 2.411 . S
Cd60 O63 2.333 . S
Cd60 O64 2.352 . S
Cd60 O68 2.277 . S
Cd60 O69 2.356 . S
C61 O66 1.209 . S
C61 O68 1.226 . S
O62 Cd58 2.273 . S
O62 Cd60 2.411 . S
O62 C65 1.320 . S
O63 Cd60 2.333 . S
O63 C65 1.214 . S
O64 Cd60 2.352 . S
O64 C67 1.258 . S
C65 O62 1.320 . S
C65 O63 1.214 . S
O66 Cd58 2.277 . S
O66 C61 1.209 . S
C67 O64 1.258 . S
C67 O69 1.282 . S
O68 Cd60 2.277 . S
O68 C61 1.226 . S
O69 Cd60 2.356 . S
O69 C67 1.282 . S
C70 O71 1.306 . S
C70 O73 1.160 . S
O71 C70 1.306 . S
O71 Cd72 2.228 . S
Cd72 O71 2.228 . S
Cd72 O76 2.273 . S
Cd72 O80 2.277 . S
O73 C70 1.160 . S
O73 Cd74 2.203 . S
Cd74 O73 2.203 . S
Cd74 O76 2.411 . S
Cd74 O77 2.333 . S
Cd74 O78 2.352 . S
Cd74 O82 2.277 . S
Cd74 O83 2.356 . S
C75 O80 1.209 . S
C75 O82 1.226 . S
O76 Cd72 2.273 . S
O76 Cd74 2.411 . S
O76 C79 1.320 . S
O77 Cd74 2.333 . S
O77 C79 1.214 . S
O78 Cd74 2.352 . S
O78 C81 1.258 . S
C79 O76 1.320 . S
C79 O77 1.214 . S
O80 Cd72 2.277 . S
O80 C75 1.209 . S
C81 O78 1.258 . S
C81 O83 1.282 . S
O82 Cd74 2.277 . S
O82 C75 1.226 . S
O83 Cd74 2.356 . S
O83 C81 1.282 . S
C84 O85 1.306 . S
C84 O87 1.160 . S
O85 C84 1.306 . S
O85 Cd86 2.228 . S
Cd86 O85 2.228 . S
Cd86 O90 2.273 . S
Cd86 O94 2.277 . S
O87 C84 1.160 . S
O87 Cd88 2.203 . S
Cd88 O87 2.203 . S
Cd88 O90 2.411 . S
Cd88 O91 2.333 . S
Cd88 O92 2.352 . S
Cd88 O96 2.277 . S
Cd88 O97 2.356 . S
C89 O94 1.209 . S
C89 O96 1.226 . S
O90 Cd86 2.273 . S
O90 Cd88 2.411 . S
O90 C93 1.320 . S
O91 Cd88 2.333 . S
O91 C93 1.214 . S
O92 Cd88 2.352 . S
O92 C95 1.258 . S
C93 O90 1.320 . S
C93 O91 1.214 . S
O94 Cd86 2.277 . S
O94 C89 1.209 . S
C95 O92 1.258 . S
C95 O97 1.282 . S
O96 Cd88 2.277 . S
O96 C89 1.226 . S
O97 Cd88 2.356 . S
O97 C95 1.282 . S
C98 O99 1.306 . S
C98 O101 1.160 . S
O99 C98 1.306 . S
O99 Cd100 2.228 . S
Cd100 O99 2.228 . S
Cd100 O104 2.273 . S
Cd100 O108 2.277 . S
O101 C98 1.160 . S
O101 Cd102 2.203 . S
Cd102 O101 2.203 . S
Cd102 O104 2.411 . S
Cd102 O105 2.333 . S
Cd102 O106 2.352 . S
Cd102 O110 2.277 . S
Cd102 O111 2.356 . S
C103 O108 1.209 . S
C103 O110 1.226 . S
O104 Cd100 2.273 . S
O104 Cd102 2.411 . S
O104 C107 1.320 . S
O105 Cd102 2.333 . S
O105 C107 1.214 . S
O106 Cd102 2.352 . S
O106 C109 1.258 . S
C107 O104 1.320 . S
C107 O105 1.214 . S
O108 Cd100 2.277 . S
O108 C103 1.209 . S
C109 O106 1.258 . S
C109 O111 1.282 . S
O110 Cd102 2.277 . S
O110 C103 1.226 . S
O111 Cd102 2.356 . S
O111 C109 1.282 . S
C112 O113 1.306 . S
C112 O115 1.160 . S
O113 C112 1.306 . S
O113 Cd114 2.228 . S
Cd114 O113 2.228 . S
Cd114 O118 2.273 . S
Cd114 O122 2.277 . S
O115 C112 1.160 . S
O115 Cd116 2.203 . S
Cd116 O115 2.203 . S
Cd116 O118 2.411 . S
Cd116 O119 2.333 . S
Cd116 O120 2.352 . S
Cd116 O124 2.277 . S
Cd116 O125 2.356 . S
C117 O122 1.209 . S
C117 O124 1.226 . S
O118 Cd114 2.273 . S
O118 Cd116 2.411 . S
O118 C121 1.320 . S
O119 Cd116 2.333 . S
O119 C121 1.214 . S
O120 Cd116 2.352 . S
O120 C123 1.258 . S
C121 O118 1.320 . S
C121 O119 1.214 . S
O122 Cd114 2.277 . S
O122 C117 1.209 . S
C123 O120 1.258 . S
C123 O125 1.282 . S
O124 Cd116 2.277 . S
O124 C117 1.226 . S
O125 Cd116 2.356 . S
O125 C123 1.282 . S
C126 O127 1.306 . S
C126 O129 1.160 . S
O127 C126 1.306 . S
O127 Cd128 2.228 . S
Cd128 O127 2.228 . S
Cd128 O132 2.273 . S
Cd128 O136 2.277 . S
O129 C126 1.160 . S
O129 Cd130 2.203 . S
Cd130 O129 2.203 . S
Cd130 O132 2.411 . S
Cd130 O133 2.333 . S
Cd130 O134 2.352 . S
Cd130 O138 2.277 . S
Cd130 O139 2.356 . S
C131 O136 1.209 . S
C131 O138 1.226 . S
O132 Cd128 2.273 . S
O132 Cd130 2.411 . S
O132 C135 1.320 . S
O133 Cd130 2.333 . S
O133 C135 1.214 . S
O134 Cd130 2.352 . S
O134 C137 1.258 . S
C135 O132 1.320 . S
C135 O133 1.214 . S
O136 Cd128 2.277 . S
O136 C131 1.209 . S
C137 O134 1.258 . S
C137 O139 1.282 . S
O138 Cd130 2.277 . S
O138 C131 1.226 . S
O139 Cd130 2.356 . S
O139 C137 1.282 . S
C140 O141 1.306 . S
C140 O143 1.160 . S
O141 C140 1.306 . S
O141 Cd142 2.228 . S
Cd142 O141 2.228 . S
Cd142 O146 2.273 . S
Cd142 O150 2.277 . S
O143 C140 1.160 . S
O143 Cd144 2.203 . S
Cd144 O143 2.203 . S
Cd144 O146 2.411 . S
Cd144 O147 2.333 . S
Cd144 O148 2.352 . S
Cd144 O152 2.277 . S
Cd144 O153 2.356 . S
C145 O150 1.209 . S
C145 O152 1.226 . S
O146 Cd142 2.273 . S
O146 Cd144 2.411 . S
O146 C149 1.320 . S
O147 Cd144 2.333 . S
O147 C149 1.214 . S
O148 Cd144 2.352 . S
O148 C151 1.258 . S
C149 O146 1.320 . S
C149 O147 1.214 . S
O150 Cd142 2.277 . S
O150 C145 1.209 . S
C151 O148 1.258 . S
C151 O153 1.282 . S
O152 Cd144 2.277 . S
O152 C145 1.226 . S
O153 Cd144 2.356 . S
O153 C151 1.282 . S
C154 O155 1.306 . S
C154 O157 1.160 . S
O155 C154 1.306 . S
O155 Cd156 2.228 . S
Cd156 O155 2.228 . S
Cd156 O160 2.273 . S
Cd156 O164 2.277 . S
O157 C154 1.160 . S
O157 Cd158 2.203 . S
Cd158 O157 2.203 . S
Cd158 O160 2.411 . S
Cd158 O161 2.333 . S
Cd158 O162 2.352 . S
Cd158 O166 2.277 . S
Cd158 O167 2.356 . S
C159 O164 1.209 . S
C159 O166 1.226 . S
O160 Cd156 2.273 . S
O160 Cd158 2.411 . S
O160 C163 1.320 . S
O161 Cd158 2.333 . S
O161 C163 1.214 . S
O162 Cd158 2.352 . S
O162 C165 1.258 . S
C163 O160 1.320 . S
C163 O161 1.214 . S
O164 Cd156 2.277 . S
O164 C159 1.209 . S
C165 O162 1.258 . S
C165 O167 1.282 . S
O166 Cd158 2.277 . S
O166 C159 1.226 . S
O167 Cd158 2.356 . S
O167 C165 1.282 . S
H168 C186 0.951 1_556 S
H169 C188 0.951 . S
H170 C190 0.950 . S
H171 C191 0.950 . S
H172 C193 0.950 . S
H173 C196 0.950 . S
H174 C197 0.950 . S
H175 C199 0.950 . S
H176 C200 0.950 . S
H177 C201 0.951 . S
H178 C203 0.951 . S
H179 C205 0.950 . S
H180 C206 0.950 . S
H181 C208 0.950 . S
H182 C211 0.950 . S
H183 C212 0.950 . S
H184 C214 0.950 . S
H185 C215 0.950 . S
C186 H168 0.951 1_554 S
C186 C187 1.366 . S
C186 C188 1.388 . S
C187 C186 1.366 . S
C187 C191 1.385 . S
C188 H169 0.951 . S
C188 C186 1.388 . S
C188 C189 1.366 . S
C189 C188 1.366 . S
C189 C190 1.414 . S
C189 C192 1.499 . S
C190 H170 0.950 . S
C190 C189 1.414 . S
C190 C191 1.374 . S
C191 H171 0.950 . S
C191 C187 1.385 . S
C191 C190 1.374 . S
C192 C189 1.499 . S
C192 C193 1.373 . S
C192 C194 1.389 . S
C193 H172 0.950 . S
C193 C192 1.373 . S
C193 C209 1.377 . S
C194 C192 1.389 . S
C194 C195 1.524 . S
C194 C208 1.377 . S
C195 C194 1.524 . S
C195 C196 1.397 . S
C195 C200 1.363 . S
C196 H173 0.950 . S
C196 C195 1.397 . S
C196 C197 1.334 . S
C197 H174 0.950 . S
C197 C196 1.334 . S
C197 C198 1.287 . S
C198 C197 1.287 . S
C198 C199 1.524 . S
C198 H217 0.913 1_554 S
C199 H175 0.950 . S
C199 C198 1.524 . S
C199 C200 1.415 . S
C200 H176 0.950 . S
C200 C195 1.363 . S
C200 C199 1.415 . S
C201 H177 0.951 . S
C201 C202 1.366 . S
C201 C203 1.388 . S
C202 C201 1.366 . S
C202 C206 1.385 . S
C203 H178 0.951 . S
C203 C201 1.388 . S
C203 C204 1.366 . S
C204 C203 1.366 . S
C204 C205 1.414 . S
C204 C207 1.499 . S
C205 H179 0.950 . S
C205 C204 1.414 . S
C205 C206 1.374 . S
C206 H180 0.950 . S
C206 C202 1.385 . S
C206 C205 1.374 . S
C207 C204 1.499 . S
C207 C208 1.373 . S
C207 C209 1.389 . S
C208 H181 0.950 . S
C208 C194 1.377 . S
C208 C207 1.373 . S
C209 C193 1.377 . S
C209 C207 1.389 . S
C209 C210 1.524 . S
C210 C209 1.524 . S
C210 C211 1.397 . S
C210 C215 1.363 . S
C211 H182 0.950 . S
C211 C210 1.397 . S
C211 C212 1.334 . S
C212 H183 0.950 . S
C212 C211 1.334 . S
C212 C213 1.287 . S
C213 C212 1.287 . S
C213 C214 1.524 . S
C213 H216 0.999 . S
C214 H184 0.950 . S
C214 C213 1.524 . S
C214 C215 1.415 . S
C215 H185 0.950 . S
C215 C210 1.363 . S
C215 C214 1.415 . S
H216 C213 0.999 . S
H217 C198 0.913 1_556 S
H218 C236 0.951 . S
H219 C238 0.951 . S
H220 C240 0.950 . S
H221 C241 0.950 . S
H222 C243 0.950 . S
H223 C246 0.950 . S
H224 C247 0.950 . S
H225 C249 0.950 . S
H226 C250 0.950 . S
H227 C251 0.951 . S
H228 C253 0.951 . S
H229 C255 0.950 . S
H230 C256 0.950 . S
H231 C258 0.950 . S
H232 C261 0.950 . S
H233 C262 0.950 . S
H234 C264 0.950 . S
H235 C265 0.950 . S
C236 H218 0.951 . S
C236 C237 1.366 . S
C236 C238 1.388 . S
C237 C236 1.366 . S
C237 C241 1.385 . S
C238 H219 0.951 . S
C238 C236 1.388 . S
C238 C239 1.366 . S
C239 C238 1.366 . S
C239 C240 1.414 . S
C239 C242 1.499 . S
C240 H220 0.950 . S
C240 C239 1.414 . S
C240 C241 1.374 . S
C241 H221 0.950 . S
C241 C237 1.385 . S
C241 C240 1.374 . S
C242 C239 1.499 . S
C242 C243 1.373 1_455 S
C242 C244 1.389 . S
C243 H222 0.950 . S
C243 C242 1.373 1_655 S
C243 C259 1.377 . S
C244 C242 1.389 . S
C244 C245 1.524 . S
C244 C258 1.377 . S
C245 C244 1.524 . S
C245 C246 1.397 . S
C245 C250 1.363 . S
C246 H223 0.950 . S
C246 C245 1.397 . S
C246 C247 1.334 . S
C247 H224 0.950 . S
C247 C246 1.334 . S
C247 C248 1.287 . S
C248 C247 1.287 . S
C248 C249 1.524 . S
C248 H267 0.913 . S
C249 H225 0.950 . S
C249 C248 1.524 . S
C249 C250 1.415 . S
C250 H226 0.950 . S
C250 C245 1.363 . S
C250 C249 1.415 . S
C251 H227 0.951 . S
C251 C252 1.366 . S
C251 C253 1.388 . S
C252 C251 1.366 . S
C252 C256 1.385 . S
C253 H228 0.951 . S
C253 C251 1.388 . S
C253 C254 1.366 . S
C254 C253 1.366 . S
C254 C255 1.414 . S
C254 C257 1.499 . S
C255 H229 0.950 . S
C255 C254 1.414 . S
C255 C256 1.374 . S
C256 H230 0.950 . S
C256 C252 1.385 . S
C256 C255 1.374 . S
C257 C254 1.499 . S
C257 C258 1.373 1_655 S
C257 C259 1.389 . S
C258 H231 0.950 . S
C258 C244 1.377 . S
C258 C257 1.373 1_455 S
C259 C243 1.377 . S
C259 C257 1.389 . S
C259 C260 1.524 . S
C260 C259 1.524 . S
C260 C261 1.397 . S
C260 C265 1.363 . S
C261 H232 0.950 . S
C261 C260 1.397 . S
C261 C262 1.334 . S
C262 H233 0.950 . S
C262 C261 1.334 . S
C262 C263 1.287 . S
C263 C262 1.287 . S
C263 C264 1.524 . S
C263 H266 0.999 . S
C264 H234 0.950 . S
C264 C263 1.524 . S
C264 C265 1.415 . S
C265 H235 0.950 . S
C265 C260 1.363 . S
C265 C264 1.415 . S
H266 C263 0.999 . S
H267 C248 0.913 . S
H268 C286 0.951 . S
H269 C288 0.951 . S
H270 C290 0.950 . S
H271 C291 0.950 . S
H272 C293 0.933 . S
H273 C296 0.950 . S
H274 C297 0.950 . S
H275 C299 0.950 . S
H276 C300 0.950 . S
H277 C301 0.951 . S
H278 C303 0.951 . S
H279 C305 0.950 . S
H280 C306 0.950 . S
H281 C308 0.933 . S
H282 C311 0.950 . S
H283 C312 0.950 . S
H284 C314 0.950 . S
H285 C315 0.950 . S
C286 H268 0.951 . S
C286 C287 1.366 . S
C286 C288 1.388 . S
C287 C286 1.366 . S
C287 C291 1.385 . S
C288 H269 0.951 . S
C288 C286 1.388 . S
C288 C289 1.366 . S
C289 C288 1.366 . S
C289 C290 1.414 . S
C289 C292 1.499 . S
C290 H270 0.950 . S
C290 C289 1.414 . S
C290 C291 1.374 . S
C291 H271 0.950 . S
C291 C287 1.385 . S
C291 C290 1.374 . S
C292 C289 1.499 . S
C292 C293 1.422 . S
C292 C294 1.389 . S
C293 H272 0.933 . S
C293 C292 1.422 . S
C293 C309 1.346 1_565 S
C294 C292 1.389 . S
C294 C295 1.524 . S
C294 C308 1.346 1_565 S
C295 C294 1.524 . S
C295 C296 1.397 . S
C295 C300 1.363 . S
C296 H273 0.950 . S
C296 C295 1.397 . S
C296 C297 1.334 . S
C297 H274 0.950 . S
C297 C296 1.334 . S
C297 C298 1.287 . S
C298 C297 1.287 . S
C298 C299 1.524 . S
C298 H317 0.913 . S
C299 H275 0.950 . S
C299 C298 1.524 . S
C299 C300 1.415 . S
C300 H276 0.950 . S
C300 C295 1.363 . S
C300 C299 1.415 . S
C301 H277 0.951 . S
C301 C302 1.366 . S
C301 C303 1.388 . S
C302 C301 1.366 . S
C302 C306 1.385 . S
C303 H278 0.951 . S
C303 C301 1.388 . S
C303 C304 1.366 . S
C304 C303 1.366 . S
C304 C305 1.414 . S
C304 C307 1.499 . S
C305 H279 0.950 . S
C305 C304 1.414 . S
C305 C306 1.374 . S
C306 H280 0.950 . S
C306 C302 1.385 . S
C306 C305 1.374 . S
C307 C304 1.499 . S
C307 C308 1.422 . S
C307 C309 1.389 . S
C308 H281 0.933 . S
C308 C294 1.346 1_545 S
C308 C307 1.422 . S
C309 C293 1.346 1_545 S
C309 C307 1.389 . S
C309 C310 1.524 . S
C310 C309 1.524 . S
C310 C311 1.397 . S
C310 C315 1.363 . S
C311 H282 0.950 . S
C311 C310 1.397 . S
C311 C312 1.334 . S
C312 H283 0.950 . S
C312 C311 1.334 . S
C312 C313 1.287 . S
C313 C312 1.287 . S
C313 C314 1.524 . S
C313 H316 0.999 . S
C314 H284 0.950 . S
C314 C313 1.524 . S
C314 C315 1.415 . S
C315 H285 0.950 . S
C315 C310 1.363 . S
C315 C314 1.415 . S
H316 C313 0.999 . S
H317 C298 0.913 . S
H318 C336 0.951 . S
H319 C338 0.951 . S
H320 C340 0.950 . S
H321 C341 0.950 . S
H322 C343 0.950 . S
H323 C346 0.950 . S
H324 C347 0.950 . S
H325 C349 0.950 . S
H326 C350 0.950 . S
H327 C351 0.951 . S
H328 C353 0.951 . S
H329 C355 0.950 . S
H330 C356 0.950 . S
H331 C358 0.950 . S
H332 C361 0.950 . S
H333 C362 0.950 . S
H334 C364 0.950 . S
H335 C365 0.950 . S
C336 H318 0.951 . S
C336 C337 1.366 . S
C336 C338 1.388 . S
C337 C336 1.366 . S
C337 C341 1.385 . S
C338 H319 0.951 . S
C338 C336 1.388 . S
C338 C339 1.366 . S
C339 C338 1.366 . S
C339 C340 1.414 . S
C339 C342 1.499 . S
C340 H320 0.950 . S
C340 C339 1.414 . S
C340 C341 1.374 . S
C341 H321 0.950 . S
C341 C337 1.385 . S
C341 C340 1.374 . S
C342 C339 1.499 . S
C342 C343 1.373 . S
C342 C344 1.389 . S
C343 H322 0.950 . S
C343 C342 1.373 . S
C343 C359 1.377 . S
C344 C342 1.389 . S
C344 C345 1.524 . S
C344 C358 1.377 . S
C345 C344 1.524 . S
C345 C346 1.397 . S
C345 C350 1.363 . S
C346 H323 0.950 . S
C346 C345 1.397 . S
C346 C347 1.334 . S
C347 H324 0.950 . S
C347 C346 1.334 . S
C347 C348 1.287 . S
C348 C347 1.287 . S
C348 C349 1.524 . S
C348 H367 0.913 . S
C349 H325 0.950 . S
C349 C348 1.524 . S
C349 C350 1.415 . S
C350 H326 0.950 . S
C350 C345 1.363 . S
C350 C349 1.415 . S
C351 H327 0.951 . S
C351 C352 1.366 . S
C351 C353 1.388 . S
C352 C351 1.366 . S
C352 C356 1.385 . S
C353 H328 0.951 . S
C353 C351 1.388 . S
C353 C354 1.366 . S
C354 C353 1.366 . S
C354 C355 1.414 . S
C354 C357 1.499 . S
C355 H329 0.950 . S
C355 C354 1.414 . S
C355 C356 1.374 . S
C356 H330 0.950 . S
C356 C352 1.385 . S
C356 C355 1.374 . S
C357 C354 1.499 . S
C357 C358 1.373 . S
C357 C359 1.389 . S
C358 H331 0.950 . S
C358 C344 1.377 . S
C358 C357 1.373 . S
C359 C343 1.377 . S
C359 C357 1.389 . S
C359 C360 1.524 . S
C360 C359 1.524 . S
C360 C361 1.397 . S
C360 C365 1.363 . S
C361 H332 0.950 . S
C361 C360 1.397 . S
C361 C362 1.334 . S
C362 H333 0.950 . S
C362 C361 1.334 . S
C362 C363 1.287 . S
C363 C362 1.287 . S
C363 C364 1.524 . S
C363 H366 0.999 . S
C364 H334 0.950 . S
C364 C363 1.524 . S
C364 C365 1.415 . S
C365 H335 0.950 . S
C365 C360 1.363 . S
C365 C364 1.415 . S
H366 C363 0.999 . S
H367 C348 0.913 . S
H368 C386 0.951 . S
H369 C388 0.951 . S
H370 C390 0.950 . S
H371 C391 0.950 . S
H372 C393 0.950 . S
H373 C396 0.952 1_455 S
H374 C397 0.950 1_455 S
H375 C399 0.950 . S
H376 C400 0.950 . S
H377 C401 0.951 1_554 S
H378 C403 0.951 . S
H379 C405 0.950 . S
H380 C406 0.950 . S
H381 C408 0.950 . S
H382 C411 0.953 1_655 S
H383 C412 0.950 1_655 S
H384 C414 0.950 . S
H385 C415 0.950 . S
C386 H368 0.951 . S
C386 C387 1.366 . S
C386 C388 1.388 . S
C387 C386 1.366 . S
C387 C391 1.385 . S
C388 H369 0.951 . S
C388 C386 1.388 . S
C388 C389 1.366 . S
C389 C388 1.366 . S
C389 C390 1.414 . S
C389 C392 1.499 . S
C390 H370 0.950 . S
C390 C389 1.414 . S
C390 C391 1.374 . S
C391 H371 0.950 . S
C391 C387 1.385 . S
C391 C390 1.374 . S
C392 C389 1.499 . S
C392 C393 1.373 . S
C392 C394 1.389 1_455 S
C393 H372 0.950 . S
C393 C392 1.373 . S
C393 C409 1.377 . S
C394 C392 1.389 1_655 S
C394 C395 1.524 . S
C394 C408 1.377 . S
C395 C394 1.524 . S
C395 C396 1.396 . S
C395 C400 1.363 . S
C396 H373 0.952 1_655 S
C396 C395 1.396 . S
C396 C397 1.332 . S
C397 H374 0.950 1_655 S
C397 C396 1.332 . S
C397 C398 1.287 . S
C398 C397 1.287 . S
C398 C399 1.524 . S
C398 H417 0.913 . S
C399 H375 0.950 . S
C399 C398 1.524 . S
C399 C400 1.415 . S
C400 H376 0.950 . S
C400 C395 1.363 . S
C400 C399 1.415 . S
C401 H377 0.951 1_556 S
C401 C402 1.366 . S
C401 C403 1.388 . S
C402 C401 1.366 . S
C402 C406 1.385 . S
C403 H378 0.951 . S
C403 C401 1.388 . S
C403 C404 1.366 . S
C404 C403 1.366 . S
C404 C405 1.414 . S
C404 C407 1.499 . S
C405 H379 0.950 . S
C405 C404 1.414 . S
C405 C406 1.374 . S
C406 H380 0.950 . S
C406 C402 1.385 . S
C406 C405 1.374 . S
C407 C404 1.499 . S
C407 C408 1.373 . S
C407 C409 1.389 1_655 S
C408 H381 0.950 . S
C408 C394 1.377 . S
C408 C407 1.373 . S
C409 C393 1.377 . S
C409 C407 1.389 1_455 S
C409 C410 1.524 . S
C410 C409 1.524 . S
C410 C411 1.396 . S
C410 C415 1.363 . S
C411 H382 0.953 1_455 S
C411 C410 1.396 . S
C411 C412 1.331 . S
C412 H383 0.950 1_455 S
C412 C411 1.331 . S
C412 C413 1.287 . S
C413 C412 1.287 . S
C413 C414 1.524 . S
C413 H416 0.999 1_556 S
C414 H384 0.950 . S
C414 C413 1.524 . S
C414 C415 1.415 . S
C415 H385 0.950 . S
C415 C410 1.363 . S
C415 C414 1.415 . S
H416 C413 0.999 1_554 S
H417 C398 0.913 . S
H418 C436 0.951 . S
H419 C438 0.951 . S
H420 C440 0.950 . S
H421 C441 0.950 . S
H422 C443 0.950 . S
H423 C446 0.950 . S
H424 C447 0.950 1_556 S
H425 C449 0.950 . S
H426 C450 0.950 . S
H427 C451 0.951 . S
H428 C453 0.951 . S
H429 C455 0.950 . S
H430 C456 0.950 . S
H431 C458 0.950 . S
H432 C461 0.950 . S
H433 C462 0.950 1_554 S
H434 C464 0.950 . S
H435 C465 0.950 . S
C436 H418 0.951 . S
C436 C437 1.366 . S
C436 C438 1.388 . S
C437 C436 1.366 . S
C437 C441 1.385 . S
C438 H419 0.951 . S
C438 C436 1.388 . S
C438 C439 1.366 . S
C439 C438 1.366 . S
C439 C440 1.414 . S
C439 C442 1.499 . S
C440 H420 0.950 . S
C440 C439 1.414 . S
C440 C441 1.374 . S
C441 H421 0.950 . S
C441 C437 1.385 . S
C441 C440 1.374 . S
C442 C439 1.499 . S
C442 C443 1.373 1_545 S
C442 C444 1.389 1_556 S
C443 H422 0.950 . S
C443 C442 1.373 1_565 S
C443 C459 1.377 . S
C444 C442 1.389 1_554 S
C444 C445 1.524 . S
C444 C458 1.377 . S
C445 C444 1.524 . S
C445 C446 1.397 1_554 S
C445 C450 1.363 . S
C446 H423 0.950 . S
C446 C445 1.397 1_556 S
C446 C447 1.334 1_556 S
C447 H424 0.950 1_554 S
C447 C446 1.334 1_554 S
C447 C448 1.287 . S
C448 C447 1.287 . S
C448 C449 1.524 . S
C448 H467 0.913 . S
C449 H425 0.950 . S
C449 C448 1.524 . S
C449 C450 1.415 . S
C450 H426 0.950 . S
C450 C445 1.363 . S
C450 C449 1.415 . S
C451 H427 0.951 . S
C451 C452 1.366 . S
C451 C453 1.388 . S
C452 C451 1.366 . S
C452 C456 1.385 . S
C453 H428 0.951 . S
C453 C451 1.388 . S
C453 C454 1.366 . S
C454 C453 1.366 . S
C454 C455 1.414 . S
C454 C457 1.499 . S
C455 H429 0.950 . S
C455 C454 1.414 . S
C455 C456 1.374 . S
C456 H430 0.950 . S
C456 C452 1.385 . S
C456 C455 1.374 . S
C457 C454 1.499 . S
C457 C458 1.373 1_565 S
C457 C459 1.389 1_554 S
C458 H431 0.950 . S
C458 C444 1.377 . S
C458 C457 1.373 1_545 S
C459 C443 1.377 . S
C459 C457 1.389 1_556 S
C459 C460 1.524 . S
C460 C459 1.524 . S
C460 C461 1.397 1_556 S
C460 C465 1.363 . S
C461 H432 0.950 . S
C461 C460 1.397 1_554 S
C461 C462 1.334 1_554 S
C462 H433 0.950 1_556 S
C462 C461 1.334 1_556 S
C462 C463 1.287 . S
C463 C462 1.287 . S
C463 C464 1.524 . S
C463 H466 0.999 . S
C464 H434 0.950 . S
C464 C463 1.524 . S
C464 C465 1.415 . S
C465 H435 0.950 . S
C465 C460 1.363 . S
C465 C464 1.415 . S
H466 C463 0.999 . S
H467 C448 0.913 . S
H468 C486 0.951 . S
H469 C488 0.951 . S
H470 C490 0.950 . S
H471 C491 0.950 . S
H472 C493 0.950 . S
H473 C496 0.950 . S
H474 C497 0.950 . S
H475 C499 0.950 . S
H476 C500 0.950 . S
H477 C501 0.951 . S
H478 C503 0.951 . S
H479 C505 0.950 . S
H480 C506 0.950 . S
H481 C508 0.950 . S
H482 C511 0.950 . S
H483 C512 0.950 . S
H484 C514 0.950 . S
H485 C515 0.950 . S
C486 H468 0.951 . S
C486 C487 1.366 . S
C486 C488 1.388 . S
C487 C486 1.366 . S
C487 C491 1.385 . S
C488 H469 0.951 . S
C488 C486 1.388 . S
C488 C489 1.366 . S
C489 C488 1.366 . S
C489 C490 1.414 . S
C489 C492 1.499 . S
C490 H470 0.950 . S
C490 C489 1.414 . S
C490 C491 1.374 . S
C491 H471 0.950 . S
C491 C487 1.385 . S
C491 C490 1.374 . S
C492 C489 1.499 . S
C492 C493 1.373 . S
C492 C494 1.389 . S
C493 H472 0.950 . S
C493 C492 1.373 . S
C493 C509 1.377 . S
C494 C492 1.389 . S
C494 C495 1.524 . S
C494 C508 1.377 . S
C495 C494 1.524 . S
C495 C496 1.397 . S
C495 C500 1.363 . S
C496 H473 0.950 . S
C496 C495 1.397 . S
C496 C497 1.334 . S
C497 H474 0.950 . S
C497 C496 1.334 . S
C497 C498 1.287 . S
C498 C497 1.287 . S
C498 C499 1.524 . S
C498 H517 0.913 . S
C499 H475 0.950 . S
C499 C498 1.524 . S
C499 C500 1.415 . S
C500 H476 0.950 . S
C500 C495 1.363 . S
C500 C499 1.415 . S
C501 H477 0.951 . S
C501 C502 1.366 . S
C501 C503 1.388 . S
C502 C501 1.366 . S
C502 C506 1.385 . S
C503 H478 0.951 . S
C503 C501 1.388 . S
C503 C504 1.366 . S
C504 C503 1.366 . S
C504 C505 1.414 . S
C504 C507 1.499 . S
C505 H479 0.950 . S
C505 C504 1.414 . S
C505 C506 1.374 . S
C506 H480 0.950 . S
C506 C502 1.385 . S
C506 C505 1.374 . S
C507 C504 1.499 . S
C507 C508 1.373 . S
C507 C509 1.389 . S
C508 H481 0.950 . S
C508 C494 1.377 . S
C508 C507 1.373 . S
C509 C493 1.377 . S
C509 C507 1.389 . S
C509 C510 1.524 . S
C510 C509 1.524 . S
C510 C511 1.397 . S
C510 C515 1.363 . S
C511 H482 0.950 . S
C511 C510 1.397 . S
C511 C512 1.334 . S
C512 H483 0.950 . S
C512 C511 1.334 . S
C512 C513 1.287 . S
C513 C512 1.287 . S
C513 C514 1.524 . S
C513 H516 0.999 . S
C514 H484 0.950 . S
C514 C513 1.524 . S
C514 C515 1.415 . S
C515 H485 0.950 . S
C515 C510 1.363 . S
C515 C514 1.415 . S
H516 C513 0.999 . S
H517 C498 0.913 . S
H518 C536 0.951 . S
H519 C538 0.951 . S
H520 C540 0.950 . S
H521 C541 0.950 . S
H522 C543 0.950 . S
H523 C546 0.950 . S
H524 C547 0.950 . S
H525 C549 0.950 . S
H526 C550 0.950 . S
H527 C551 0.951 . S
H528 C553 0.951 . S
H529 C555 0.950 . S
H530 C556 0.950 . S
H531 C558 0.950 . S
H532 C561 0.950 . S
H533 C562 0.950 . S
H534 C564 0.950 . S
H535 C565 0.950 . S
C536 H518 0.951 . S
C536 C537 1.366 . S
C536 C538 1.388 . S
C537 C536 1.366 . S
C537 C541 1.385 . S
C538 H519 0.951 . S
C538 C536 1.388 . S
C538 C539 1.366 . S
C539 C538 1.366 . S
C539 C540 1.414 . S
C539 C542 1.499 . S
C540 H520 0.950 . S
C540 C539 1.414 . S
C540 C541 1.374 . S
C541 H521 0.950 . S
C541 C537 1.385 . S
C541 C540 1.374 . S
C542 C539 1.499 . S
C542 C543 1.373 . S
C542 C544 1.389 . S
C543 H522 0.950 . S
C543 C542 1.373 . S
C543 C559 1.377 . S
C544 C542 1.389 . S
C544 C545 1.524 . S
C544 C558 1.377 . S
C545 C544 1.524 . S
C545 C546 1.397 . S
C545 C550 1.363 . S
C546 H523 0.950 . S
C546 C545 1.397 . S
C546 C547 1.334 . S
C547 H524 0.950 . S
C547 C546 1.334 . S
C547 C548 1.287 . S
C548 C547 1.287 . S
C548 C549 1.524 . S
C548 H567 0.913 . S
C549 H525 0.950 . S
C549 C548 1.524 . S
C549 C550 1.415 . S
C550 H526 0.950 . S
C550 C545 1.363 . S
C550 C549 1.415 . S
C551 H527 0.951 . S
C551 C552 1.366 . S
C551 C553 1.388 . S
C552 C551 1.366 . S
C552 C556 1.385 . S
C553 H528 0.951 . S
C553 C551 1.388 . S
C553 C554 1.366 . S
C554 C553 1.366 . S
C554 C555 1.414 . S
C554 C557 1.499 . S
C555 H529 0.950 . S
C555 C554 1.414 . S
C555 C556 1.374 . S
C556 H530 0.950 . S
C556 C552 1.385 . S
C556 C555 1.374 . S
C557 C554 1.499 . S
C557 C558 1.373 . S
C557 C559 1.389 . S
C558 H531 0.950 . S
C558 C544 1.377 . S
C558 C557 1.373 . S
C559 C543 1.377 . S
C559 C557 1.389 . S
C559 C560 1.524 . S
C560 C559 1.524 . S
C560 C561 1.397 . S
C560 C565 1.363 . S
C561 H532 0.950 . S
C561 C560 1.397 . S
C561 C562 1.334 . S
C562 H533 0.950 . S
C562 C561 1.334 . S
C562 C563 1.287 . S
C563 C562 1.287 . S
C563 C564 1.524 . S
C563 H566 0.999 . S
C564 H534 0.950 . S
C564 C563 1.524 . S
C564 C565 1.415 . S
C565 H535 0.950 . S
C565 C560 1.363 . S
C565 C564 1.415 . S
H566 C563 0.999 . S
H567 C548 0.913 . S
H568 C586 0.951 . S
H569 C588 0.951 . S
H570 C590 0.950 . S
H571 C591 0.950 . S
H572 C593 0.950 . S
H573 C596 0.950 . S
H574 C597 0.950 . S
H575 C599 0.950 . S
H576 C600 0.950 . S
H577 C601 0.951 . S
H578 C603 0.951 . S
H579 C605 0.950 . S
H580 C606 0.950 . S
H581 C608 0.950 . S
H582 C611 0.950 . S
H583 C612 0.950 . S
H584 C614 0.950 . S
H585 C615 0.950 . S
C586 H568 0.951 . S
C586 C587 1.366 . S
C586 C588 1.388 . S
C587 C586 1.366 . S
C587 C591 1.385 . S
C588 H569 0.951 . S
C588 C586 1.388 . S
C588 C589 1.366 . S
C589 C588 1.366 . S
C589 C590 1.414 . S
C589 C592 1.499 . S
C590 H570 0.950 . S
C590 C589 1.414 . S
C590 C591 1.374 . S
C591 H571 0.950 . S
C591 C587 1.385 . S
C591 C590 1.374 . S
C592 C589 1.499 . S
C592 C593 1.373 . S
C592 C594 1.389 . S
C593 H572 0.950 . S
C593 C592 1.373 . S
C593 C609 1.377 . S
C594 C592 1.389 . S
C594 C595 1.524 . S
C594 C608 1.377 . S
C595 C594 1.524 . S
C595 C596 1.397 . S
C595 C600 1.363 . S
C596 H573 0.950 . S
C596 C595 1.397 . S
C596 C597 1.334 . S
C597 H574 0.950 . S
C597 C596 1.334 . S
C597 C598 1.287 . S
C598 C597 1.287 . S
C598 C599 1.524 . S
C598 H617 0.913 . S
C599 H575 0.950 . S
C599 C598 1.524 . S
C599 C600 1.415 . S
C600 H576 0.950 . S
C600 C595 1.363 . S
C600 C599 1.415 . S
C601 H577 0.951 . S
C601 C602 1.366 . S
C601 C603 1.388 . S
C602 C601 1.366 . S
C602 C606 1.385 . S
C603 H578 0.951 . S
C603 C601 1.388 . S
C603 C604 1.366 . S
C604 C603 1.366 . S
C604 C605 1.414 . S
C604 C607 1.499 . S
C605 H579 0.950 . S
C605 C604 1.414 . S
C605 C606 1.374 . S
C606 H580 0.950 . S
C606 C602 1.385 . S
C606 C605 1.374 . S
C607 C604 1.499 . S
C607 C608 1.373 . S
C607 C609 1.389 . S
C608 H581 0.950 . S
C608 C594 1.377 . S
C608 C607 1.373 . S
C609 C593 1.377 . S
C609 C607 1.389 . S
C609 C610 1.524 . S
C610 C609 1.524 . S
C610 C611 1.397 . S
C610 C615 1.363 . S
C611 H582 0.950 . S
C611 C610 1.397 . S
C611 C612 1.334 . S
C612 H583 0.950 . S
C612 C611 1.334 . S
C612 C613 1.287 . S
C613 C612 1.287 . S
C613 C614 1.524 . S
C613 H616 0.999 . S
C614 H584 0.950 . S
C614 C613 1.524 . S
C614 C615 1.415 . S
C615 H585 0.950 . S
C615 C610 1.363 . S
C615 C614 1.415 . S
H616 C613 0.999 . S
H617 C598 0.913 . S
H618 C636 0.951 . S
H619 C638 0.951 . S
H620 C640 0.950 . S
H621 C641 0.950 . S
H622 C643 0.950 . S
H623 C646 0.950 . S
H624 C647 0.950 . S
H625 C649 0.950 . S
H626 C650 0.950 . S
H627 C651 0.951 . S
H628 C653 0.951 . S
H629 C655 0.950 . S
H630 C656 0.950 . S
H631 C658 0.950 . S
H632 C661 0.950 1_554 S
H633 C662 0.950 . S
H634 C664 0.950 . S
H635 C665 0.950 . S
C636 H618 0.951 . S
C636 C637 1.366 . S
C636 C638 1.388 . S
C637 C636 1.366 . S
C637 C641 1.385 . S
C638 H619 0.951 . S
C638 C636 1.388 . S
C638 C639 1.366 . S
C639 C638 1.366 . S
C639 C640 1.414 . S
C639 C642 1.499 . S
C640 H620 0.950 . S
C640 C639 1.414 . S
C640 C641 1.374 . S
C641 H621 0.950 . S
C641 C637 1.385 . S
C641 C640 1.374 . S
C642 C639 1.499 . S
C642 C643 1.373 . S
C642 C644 1.389 . S
C643 H622 0.950 . S
C643 C642 1.373 . S
C643 C659 1.377 . S
C644 C642 1.389 . S
C644 C645 1.524 . S
C644 C658 1.377 . S
C645 C644 1.524 . S
C645 C646 1.397 . S
C645 C650 1.363 . S
C646 H623 0.950 . S
C646 C645 1.397 . S
C646 C647 1.334 . S
C647 H624 0.950 . S
C647 C646 1.334 . S
C647 C648 1.287 . S
C648 C647 1.287 . S
C648 C649 1.524 . S
C648 H667 0.913 . S
C649 H625 0.950 . S
C649 C648 1.524 . S
C649 C650 1.415 . S
C650 H626 0.950 . S
C650 C645 1.363 . S
C650 C649 1.415 . S
C651 H627 0.951 . S
C651 C652 1.366 . S
C651 C653 1.388 . S
C652 C651 1.366 . S
C652 C656 1.385 . S
C653 H628 0.951 . S
C653 C651 1.388 . S
C653 C654 1.366 . S
C654 C653 1.366 . S
C654 C655 1.414 . S
C654 C657 1.499 . S
C655 H629 0.950 . S
C655 C654 1.414 . S
C655 C656 1.374 . S
C656 H630 0.950 . S
C656 C652 1.385 . S
C656 C655 1.374 . S
C657 C654 1.499 . S
C657 C658 1.373 . S
C657 C659 1.389 . S
C658 H631 0.950 . S
C658 C644 1.377 . S
C658 C657 1.373 . S
C659 C643 1.377 . S
C659 C657 1.389 . S
C659 C660 1.524 . S
C660 C659 1.524 . S
C660 C661 1.397 . S
C660 C665 1.363 . S
C661 H632 0.950 1_556 S
C661 C660 1.397 . S
C661 C662 1.334 1_556 S
C662 H633 0.950 . S
C662 C661 1.334 1_554 S
C662 C663 1.287 1_554 S
C663 C662 1.287 1_556 S
C663 C664 1.524 . S
C663 H666 0.999 1_556 S
C664 H634 0.950 . S
C664 C663 1.524 . S
C664 C665 1.415 . S
C665 H635 0.950 . S
C665 C660 1.363 . S
C665 C664 1.415 . S
H666 C663 0.999 1_554 S
H667 C648 0.913 . S
H668 C686 0.951 . S
H669 C688 0.951 . S
H670 C690 0.950 . S
H671 C691 0.950 . S
H672 C693 0.950 . S
H673 C696 0.950 . S
H674 C697 0.950 . S
H675 C699 0.950 . S
H676 C700 0.950 . S
H677 C701 0.951 . S
H678 C703 0.951 . S
H679 C705 0.950 . S
H680 C706 0.950 . S
H681 C708 0.950 . S
H682 C711 0.950 1_554 S
H683 C712 0.950 . S
H684 C714 0.950 . S
H685 C715 0.950 . S
C686 H668 0.951 . S
C686 C687 1.366 . S
C686 C688 1.388 . S
C687 C686 1.366 . S
C687 C691 1.385 . S
C688 H669 0.951 . S
C688 C686 1.388 . S
C688 C689 1.366 . S
C689 C688 1.366 . S
C689 C690 1.414 . S
C689 C692 1.499 . S
C690 H670 0.950 . S
C690 C689 1.414 . S
C690 C691 1.374 . S
C691 H671 0.950 . S
C691 C687 1.385 . S
C691 C690 1.374 . S
C692 C689 1.499 . S
C692 C693 1.373 . S
C692 C694 1.389 . S
C693 H672 0.950 . S
C693 C692 1.373 . S
C693 C709 1.377 . S
C694 C692 1.389 . S
C694 C695 1.524 . S
C694 C708 1.377 . S
C695 C694 1.524 . S
C695 C696 1.397 . S
C695 C700 1.363 . S
C696 H673 0.950 . S
C696 C695 1.397 . S
C696 C697 1.334 . S
C697 H674 0.950 . S
C697 C696 1.334 . S
C697 C698 1.287 . S
C698 C697 1.287 . S
C698 C699 1.524 . S
C698 H717 0.913 . S
C699 H675 0.950 . S
C699 C698 1.524 . S
C699 C700 1.415 . S
C700 H676 0.950 . S
C700 C695 1.363 . S
C700 C699 1.415 . S
C701 H677 0.951 . S
C701 C702 1.366 . S
C701 C703 1.388 . S
C702 C701 1.366 . S
C702 C706 1.385 . S
C703 H678 0.951 . S
C703 C701 1.388 . S
C703 C704 1.366 . S
C704 C703 1.366 . S
C704 C705 1.414 . S
C704 C707 1.499 . S
C705 H679 0.950 . S
C705 C704 1.414 . S
C705 C706 1.374 . S
C706 H680 0.950 . S
C706 C702 1.385 . S
C706 C705 1.374 . S
C707 C704 1.499 . S
C707 C708 1.373 . S
C707 C709 1.389 . S
C708 H681 0.950 . S
C708 C694 1.377 . S
C708 C707 1.373 . S
C709 C693 1.377 . S
C709 C707 1.389 . S
C709 C710 1.524 1_554 S
C710 C709 1.524 1_556 S
C710 C711 1.397 . S
C710 C715 1.363 . S
C711 H682 0.950 1_556 S
C711 C710 1.397 . S
C711 C712 1.334 . S
C712 H683 0.950 . S
C712 C711 1.334 . S
C712 C713 1.287 . S
C713 C712 1.287 . S
C713 C714 1.524 . S
C713 H716 0.999 . S
C714 H684 0.950 . S
C714 C713 1.524 . S
C714 C715 1.415 . S
C715 H685 0.950 . S
C715 C710 1.363 . S
C715 C714 1.415 . S
H716 C713 0.999 . S
H717 C698 0.913 . S
H718 C736 0.951 . S
H719 C738 0.951 . S
H720 C740 0.950 . S
H721 C741 0.950 . S
H722 C743 0.950 . S
H723 C746 0.950 . S
H724 C747 0.950 . S
H725 C749 0.950 . S
H726 C750 0.950 . S
H727 C751 0.951 . S
H728 C753 0.951 . S
H729 C755 0.950 . S
H730 C756 0.950 . S
H731 C758 0.950 . S
H732 C761 0.950 . S
H733 C762 0.950 . S
H734 C764 0.950 . S
H735 C765 0.950 . S
C736 H718 0.951 . S
C736 C737 1.366 . S
C736 C738 1.388 . S
C737 C736 1.366 . S
C737 C741 1.385 . S
C738 H719 0.951 . S
C738 C736 1.388 . S
C738 C739 1.366 . S
C739 C738 1.366 . S
C739 C740 1.414 . S
C739 C742 1.499 . S
C740 H720 0.950 . S
C740 C739 1.414 . S
C740 C741 1.374 . S
C741 H721 0.950 . S
C741 C737 1.385 . S
C741 C740 1.374 . S
C742 C739 1.499 . S
C742 C743 1.373 . S
C742 C744 1.389 . S
C743 H722 0.950 . S
C743 C742 1.373 . S
C743 C759 1.377 . S
C744 C742 1.389 . S
C744 C745 1.524 . S
C744 C758 1.377 . S
C745 C744 1.524 . S
C745 C746 1.397 . S
C745 C750 1.363 . S
C746 H723 0.950 . S
C746 C745 1.397 . S
C746 C747 1.334 . S
C747 H724 0.950 . S
C747 C746 1.334 . S
C747 C748 1.287 . S
C748 C747 1.287 . S
C748 C749 1.524 . S
C748 H767 0.913 . S
C749 H725 0.950 . S
C749 C748 1.524 . S
C749 C750 1.415 . S
C750 H726 0.950 . S
C750 C745 1.363 . S
C750 C749 1.415 . S
C751 H727 0.951 . S
C751 C752 1.366 . S
C751 C753 1.388 . S
C752 C751 1.366 . S
C752 C756 1.385 . S
C753 H728 0.951 . S
C753 C751 1.388 . S
C753 C754 1.366 . S
C754 C753 1.366 . S
C754 C755 1.414 . S
C754 C757 1.499 . S
C755 H729 0.950 . S
C755 C754 1.414 . S
C755 C756 1.374 . S
C756 H730 0.950 . S
C756 C752 1.385 . S
C756 C755 1.374 . S
C757 C754 1.499 . S
C757 C758 1.373 . S
C757 C759 1.389 . S
C758 H731 0.950 . S
C758 C744 1.377 . S
C758 C757 1.373 . S
C759 C743 1.377 . S
C759 C757 1.389 . S
C759 C760 1.524 . S
C760 C759 1.524 . S
C760 C761 1.397 . S
C760 C765 1.363 . S
C761 H732 0.950 . S
C761 C760 1.397 . S
C761 C762 1.334 . S
C762 H733 0.950 . S
C762 C761 1.334 . S
C762 C763 1.287 . S
C763 C762 1.287 . S
C763 C764 1.524 . S
C763 H766 0.999 . S
C764 H734 0.950 . S
C764 C763 1.524 . S
C764 C765 1.415 . S
C765 H735 0.950 . S
C765 C760 1.363 . S
C765 C764 1.415 . S
H766 C763 0.999 . S
H767 C748 0.913 . S
H768 C786 0.951 . S
H769 C788 0.951 . S
H770 C790 0.950 . S
H771 C791 0.950 . S
H772 C793 0.950 . S
H773 C796 0.950 . S
H774 C797 0.950 . S
H775 C799 0.950 . S
H776 C800 0.950 . S
H777 C801 0.951 . S
H778 C803 0.951 . S
H779 C805 0.950 . S
H780 C806 0.950 . S
H781 C808 0.950 . S
H782 C811 0.950 . S
H783 C812 0.950 . S
H784 C814 0.950 . S
H785 C815 0.950 . S
C786 H768 0.951 . S
C786 C787 1.366 . S
C786 C788 1.388 . S
C787 C786 1.366 . S
C787 C791 1.385 . S
C788 H769 0.951 . S
C788 C786 1.388 . S
C788 C789 1.366 . S
C789 C788 1.366 . S
C789 C790 1.414 . S
C789 C792 1.499 . S
C790 H770 0.950 . S
C790 C789 1.414 . S
C790 C791 1.374 . S
C791 H771 0.950 . S
C791 C787 1.385 . S
C791 C790 1.374 . S
C792 C789 1.499 . S
C792 C793 1.373 . S
C792 C794 1.389 . S
C793 H772 0.950 . S
C793 C792 1.373 . S
C793 C809 1.377 . S
C794 C792 1.389 . S
C794 C795 1.524 . S
C794 C808 1.377 . S
C795 C794 1.524 . S
C795 C796 1.397 . S
C795 C800 1.363 . S
C796 H773 0.950 . S
C796 C795 1.397 . S
C796 C797 1.334 . S
C797 H774 0.950 . S
C797 C796 1.334 . S
C797 C798 1.287 . S
C798 C797 1.287 . S
C798 C799 1.524 . S
C798 H817 0.913 . S
C799 H775 0.950 . S
C799 C798 1.524 . S
C799 C800 1.415 . S
C800 H776 0.950 . S
C800 C795 1.363 . S
C800 C799 1.415 . S
C801 H777 0.951 . S
C801 C802 1.366 . S
C801 C803 1.388 . S
C802 C801 1.366 . S
C802 C806 1.385 . S
C803 H778 0.951 . S
C803 C801 1.388 . S
C803 C804 1.366 . S
C804 C803 1.366 . S
C804 C805 1.414 . S
C804 C807 1.499 . S
C805 H779 0.950 . S
C805 C804 1.414 . S
C805 C806 1.374 . S
C806 H780 0.950 . S
C806 C802 1.385 . S
C806 C805 1.374 . S
C807 C804 1.499 . S
C807 C808 1.373 . S
C807 C809 1.389 . S
C808 H781 0.950 . S
C808 C794 1.377 . S
C808 C807 1.373 . S
C809 C793 1.377 . S
C809 C807 1.389 . S
C809 C810 1.524 . S
C810 C809 1.524 . S
C810 C811 1.397 . S
C810 C815 1.363 . S
C811 H782 0.950 . S
C811 C810 1.397 . S
C811 C812 1.334 . S
C812 H783 0.950 . S
C812 C811 1.334 . S
C812 C813 1.287 . S
C813 C812 1.287 . S
C813 C814 1.524 . S
C813 H816 0.999 . S
C814 H784 0.950 . S
C814 C813 1.524 . S
C814 C815 1.415 . S
C815 H785 0.950 . S
C815 C810 1.363 . S
C815 C814 1.415 . S
H816 C813 0.999 . S
H817 C798 0.913 . S
H818 C836 0.951 1_554 S
H819 C838 0.951 . S
H820 C840 0.950 . S
H821 C841 0.950 . S
H822 C843 0.950 . S
H823 C846 0.950 . S
H824 C847 0.950 . S
H825 C849 0.950 . S
H826 C850 0.950 . S
H827 C851 0.951 . S
H828 C853 0.951 . S
H829 C855 0.950 . S
H830 C856 0.950 . S
H831 C858 0.950 . S
H832 C861 0.950 . S
H833 C862 0.950 . S
H834 C864 0.950 . S
H835 C865 0.950 . S
C836 H818 0.951 1_556 S
C836 C837 1.366 . S
C836 C838 1.388 . S
C837 C836 1.366 . S
C837 C841 1.385 . S
C838 H819 0.951 . S
C838 C836 1.388 . S
C838 C839 1.366 . S
C839 C838 1.366 . S
C839 C840 1.414 . S
C839 C842 1.499 . S
C840 H820 0.950 . S
C840 C839 1.414 . S
C840 C841 1.374 . S
C841 H821 0.950 . S
C841 C837 1.385 . S
C841 C840 1.374 . S
C842 C839 1.499 . S
C842 C843 1.373 . S
C842 C844 1.389 . S
C843 H822 0.950 . S
C843 C842 1.373 . S
C843 C859 1.377 1_655 S
C844 C842 1.389 . S
C844 C845 1.524 . S
C844 C858 1.377 1_655 S
C845 C844 1.524 . S
C845 C846 1.397 . S
C845 C850 1.363 1_655 S
C846 H823 0.950 . S
C846 C845 1.397 . S
C846 C847 1.334 . S
C847 H824 0.950 . S
C847 C846 1.334 . S
C847 C848 1.287 . S
C848 C847 1.287 . S
C848 C849 1.524 1_655 S
C848 H867 0.913 . S
C849 H825 0.950 . S
C849 C848 1.524 1_455 S
C849 C850 1.415 . S
C850 H826 0.950 . S
C850 C845 1.363 1_455 S
C850 C849 1.415 . S
C851 H827 0.951 . S
C851 C852 1.366 . S
C851 C853 1.388 . S
C852 C851 1.366 . S
C852 C856 1.385 . S
C853 H828 0.951 . S
C853 C851 1.388 . S
C853 C854 1.366 . S
C854 C853 1.366 . S
C854 C855 1.414 . S
C854 C857 1.499 . S
C855 H829 0.950 . S
C855 C854 1.414 . S
C855 C856 1.374 . S
C856 H830 0.950 . S
C856 C852 1.385 . S
C856 C855 1.374 . S
C857 C854 1.499 . S
C857 C858 1.373 . S
C857 C859 1.389 . S
C858 H831 0.950 . S
C858 C844 1.377 1_455 S
C858 C857 1.373 . S
C859 C843 1.377 1_455 S
C859 C857 1.389 . S
C859 C860 1.524 . S
C860 C859 1.524 . S
C860 C861 1.397 . S
C860 C865 1.363 1_455 S
C861 H832 0.950 . S
C861 C860 1.397 . S
C861 C862 1.334 . S
C862 H833 0.950 . S
C862 C861 1.334 . S
C862 C863 1.287 . S
C863 C862 1.287 . S
C863 C864 1.524 1_455 S
C863 H866 0.999 . S
C864 H834 0.950 . S
C864 C863 1.524 1_655 S
C864 C865 1.415 . S
C865 H835 0.950 . S
C865 C860 1.363 1_655 S
C865 C864 1.415 . S
H866 C863 0.999 . S
H867 C848 0.913 . S
H868 C886 0.951 . S
H869 C888 0.951 . S
H870 C890 0.950 . S
H871 C891 0.950 . S
H872 C893 0.950 . S
H873 C896 0.950 1_565 S
H874 C897 0.950 . S
H875 C899 0.950 . S
H876 C900 0.950 . S
H877 C901 0.951 . S
H878 C903 0.951 . S
H879 C905 0.950 . S
H880 C906 0.950 . S
H881 C908 0.950 . S
H882 C911 0.950 1_545 S
H883 C912 0.950 . S
H884 C914 0.950 . S
H885 C915 0.950 . S
C886 H868 0.951 . S
C886 C887 1.366 . S
C886 C888 1.388 . S
C887 C886 1.366 . S
C887 C891 1.385 . S
C888 H869 0.951 . S
C888 C886 1.388 . S
C888 C889 1.366 . S
C889 C888 1.366 . S
C889 C890 1.414 . S
C889 C892 1.499 . S
C890 H870 0.950 . S
C890 C889 1.414 . S
C890 C891 1.374 . S
C891 H871 0.950 . S
C891 C887 1.385 . S
C891 C890 1.374 . S
C892 C889 1.499 . S
C892 C893 1.373 1_554 S
C892 C894 1.389 1_565 S
C893 H872 0.950 . S
C893 C892 1.373 1_556 S
C893 C909 1.377 . S
C894 C892 1.389 1_545 S
C894 C895 1.524 . S
C894 C908 1.377 . S
C895 C894 1.524 . S
C895 C896 1.397 . S
C895 C900 1.363 . S
C896 H873 0.950 1_545 S
C896 C895 1.397 . S
C896 C897 1.334 . S
C897 H874 0.950 . S
C897 C896 1.334 . S
C897 C898 1.287 . S
C898 C897 1.287 . S
C898 C899 1.524 . S
C898 H917 0.913 . S
C899 H875 0.950 . S
C899 C898 1.524 . S
C899 C900 1.415 . S
C900 H876 0.950 . S
C900 C895 1.363 . S
C900 C899 1.415 . S
C901 H877 0.951 . S
C901 C902 1.366 . S
C901 C903 1.388 . S
C902 C901 1.366 . S
C902 C906 1.385 . S
C903 H878 0.951 . S
C903 C901 1.388 . S
C903 C904 1.366 . S
C904 C903 1.366 . S
C904 C905 1.414 . S
C904 C907 1.499 . S
C905 H879 0.950 . S
C905 C904 1.414 . S
C905 C906 1.374 . S
C906 H880 0.950 . S
C906 C902 1.385 . S
C906 C905 1.374 . S
C907 C904 1.499 . S
C907 C908 1.373 1_556 S
C907 C909 1.389 1_545 S
C908 H881 0.950 . S
C908 C894 1.377 . S
C908 C907 1.373 1_554 S
C909 C893 1.377 . S
C909 C907 1.389 1_565 S
C909 C910 1.524 . S
C910 C909 1.524 . S
C910 C911 1.397 . S
C910 C915 1.363 . S
C911 H882 0.950 1_565 S
C911 C910 1.397 . S
C911 C912 1.334 . S
C912 H883 0.950 . S
C912 C911 1.334 . S
C912 C913 1.287 . S
C913 C912 1.287 . S
C913 C914 1.524 . S
C913 H916 0.999 . S
C914 H884 0.950 . S
C914 C913 1.524 . S
C914 C915 1.415 . S
C915 H885 0.950 . S
C915 C910 1.363 . S
C915 C914 1.415 . S
H916 C913 0.999 . S
H917 C898 0.913 . S
H918 C936 0.951 . S
H919 C938 0.951 . S
H920 C940 0.950 . S
H921 C941 0.950 . S
H922 C943 0.950 . S
H923 C946 0.950 . S
H924 C947 0.950 . S
H925 C949 0.950 . S
H926 C950 0.950 . S
H927 C951 0.951 . S
H928 C953 0.951 . S
H929 C955 0.950 . S
H930 C956 0.950 . S
H931 C958 0.950 . S
H932 C961 0.950 . S
H933 C962 0.950 . S
H934 C964 0.950 . S
H935 C965 0.950 . S
C936 H918 0.951 . S
C936 C937 1.366 . S
C936 C938 1.388 . S
C937 C936 1.366 . S
C937 C941 1.385 . S
C938 H919 0.951 . S
C938 C936 1.388 . S
C938 C939 1.366 . S
C939 C938 1.366 . S
C939 C940 1.414 . S
C939 C942 1.499 . S
C940 H920 0.950 . S
C940 C939 1.414 . S
C940 C941 1.374 . S
C941 H921 0.950 . S
C941 C937 1.385 . S
C941 C940 1.374 . S
C942 C939 1.499 . S
C942 C943 1.373 . S
C942 C944 1.389 . S
C943 H922 0.950 . S
C943 C942 1.373 . S
C943 C959 1.377 . S
C944 C942 1.389 . S
C944 C945 1.524 . S
C944 C958 1.377 . S
C945 C944 1.524 . S
C945 C946 1.397 . S
C945 C950 1.363 . S
C946 H923 0.950 . S
C946 C945 1.397 . S
C946 C947 1.334 . S
C947 H924 0.950 . S
C947 C946 1.334 . S
C947 C948 1.287 . S
C948 C947 1.287 . S
C948 C949 1.524 . S
C948 H967 0.913 . S
C949 H925 0.950 . S
C949 C948 1.524 . S
C949 C950 1.415 . S
C950 H926 0.950 . S
C950 C945 1.363 . S
C950 C949 1.415 . S
C951 H927 0.951 . S
C951 C952 1.366 . S
C951 C953 1.388 . S
C952 C951 1.366 . S
C952 C956 1.385 . S
C953 H928 0.951 . S
C953 C951 1.388 . S
C953 C954 1.366 . S
C954 C953 1.366 . S
C954 C955 1.414 . S
C954 C957 1.499 . S
C955 H929 0.950 . S
C955 C954 1.414 . S
C955 C956 1.374 . S
C956 H930 0.950 . S
C956 C952 1.385 . S
C956 C955 1.374 . S
C957 C954 1.499 . S
C957 C958 1.373 . S
C957 C959 1.389 . S
C958 H931 0.950 . S
C958 C944 1.377 . S
C958 C957 1.373 . S
C959 C943 1.377 . S
C959 C957 1.389 . S
C959 C960 1.524 . S
C960 C959 1.524 . S
C960 C961 1.397 . S
C960 C965 1.363 . S
C961 H932 0.950 . S
C961 C960 1.397 . S
C961 C962 1.334 . S
C962 H933 0.950 . S
C962 C961 1.334 . S
C962 C963 1.287 . S
C963 C962 1.287 . S
C963 C964 1.524 . S
C963 H966 0.999 . S
C964 H934 0.950 . S
C964 C963 1.524 . S
C964 C965 1.415 . S
C965 H935 0.950 . S
C965 C960 1.363 . S
C965 C964 1.415 . S
H966 C963 0.999 . S
H967 C948 0.913 . S
H968 C986 0.951 . S
H969 C988 0.951 . S
H970 C990 0.950 . S
H971 C991 0.950 . S
H972 C993 0.950 . S
H973 C996 0.950 . S
H974 C997 0.950 . S
H975 C999 0.944 1_655 S
H976 C1000 0.950 . S
H977 C1001 0.951 . S
H978 C1003 0.951 . S
H979 C1005 0.950 . S
H980 C1006 0.950 . S
H981 C1008 0.950 . S
H982 C1011 0.950 . S
H983 C1012 0.950 . S
H984 C1014 0.944 1_455 S
H985 C1015 0.950 . S
C986 H968 0.951 . S
C986 C987 1.366 . S
C986 C988 1.388 . S
C987 C986 1.366 . S
C987 C991 1.385 . S
C988 H969 0.951 . S
C988 C986 1.388 . S
C988 C989 1.366 . S
C989 C988 1.366 . S
C989 C990 1.414 . S
C989 C992 1.499 . S
C990 H970 0.950 . S
C990 C989 1.414 . S
C990 C991 1.374 . S
C991 H971 0.950 . S
C991 C987 1.385 . S
C991 C990 1.374 . S
C992 C989 1.499 . S
C992 C993 1.373 . S
C992 C994 1.389 . S
C993 H972 0.950 . S
C993 C992 1.373 . S
C993 C1009 1.377 1_455 S
C994 C992 1.389 . S
C994 C995 1.524 . S
C994 C1008 1.377 1_455 S
C995 C994 1.524 . S
C995 C996 1.397 . S
C995 C1000 1.363 1_455 S
C996 H973 0.950 . S
C996 C995 1.397 . S
C996 C997 1.334 . S
C997 H974 0.950 . S
C997 C996 1.334 . S
C997 C998 1.287 . S
C998 C997 1.287 . S
C998 C999 1.547 . S
C998 H1017 0.913 . S
C999 H975 0.944 1_455 S
C999 C998 1.547 . S
C999 C1000 1.398 1_455 S
C1000 H976 0.950 . S
C1000 C995 1.363 1_655 S
C1000 C999 1.398 1_655 S
C1001 H977 0.951 . S
C1001 C1002 1.366 . S
C1001 C1003 1.388 . S
C1002 C1001 1.366 . S
C1002 C1006 1.385 . S
C1003 H978 0.951 . S
C1003 C1001 1.388 . S
C1003 C1004 1.366 . S
C1004 C1003 1.366 . S
C1004 C1005 1.414 . S
C1004 C1007 1.499 . S
C1005 H979 0.950 . S
C1005 C1004 1.414 . S
C1005 C1006 1.374 . S
C1006 H980 0.950 . S
C1006 C1002 1.385 . S
C1006 C1005 1.374 . S
C1007 C1004 1.499 . S
C1007 C1008 1.373 . S
C1007 C1009 1.389 . S
C1008 H981 0.950 . S
C1008 C994 1.377 1_655 S
C1008 C1007 1.373 . S
C1009 C993 1.377 1_655 S
C1009 C1007 1.389 . S
C1009 C1010 1.524 . S
C1010 C1009 1.524 . S
C1010 C1011 1.397 . S
C1010 C1015 1.363 1_655 S
C1011 H982 0.950 . S
C1011 C1010 1.397 . S
C1011 C1012 1.334 . S
C1012 H983 0.950 . S
C1012 C1011 1.334 . S
C1012 C1013 1.287 . S
C1013 C1012 1.287 . S
C1013 C1014 1.548 . S
C1013 H1016 0.999 . S
C1014 H984 0.944 1_655 S
C1014 C1013 1.548 . S
C1014 C1015 1.398 1_655 S
C1015 H985 0.950 . S
C1015 C1010 1.363 1_455 S
C1015 C1014 1.398 1_455 S
H1016 C1013 0.999 . S
H1017 C998 0.913 . S
H1018 C1036 0.951 . S
H1019 C1038 0.951 . S
H1020 C1040 0.950 . S
H1021 C1041 0.950 . S
H1022 C1043 0.950 . S
H1023 C1046 0.950 . S
H1024 C1047 0.950 . S
H1025 C1049 0.950 . S
H1026 C1050 0.950 . S
H1027 C1051 0.951 . S
H1028 C1053 0.951 . S
H1029 C1055 0.950 . S
H1030 C1056 0.950 . S
H1031 C1058 0.950 . S
H1032 C1061 0.950 . S
H1033 C1062 0.950 . S
H1034 C1064 0.950 . S
H1035 C1065 0.950 . S
C1036 H1018 0.951 . S
C1036 C1037 1.366 . S
C1036 C1038 1.388 . S
C1037 C1036 1.366 . S
C1037 C1041 1.385 . S
C1038 H1019 0.951 . S
C1038 C1036 1.388 . S
C1038 C1039 1.366 . S
C1039 C1038 1.366 . S
C1039 C1040 1.414 . S
C1039 C1042 1.499 . S
C1040 H1020 0.950 . S
C1040 C1039 1.414 . S
C1040 C1041 1.374 . S
C1041 H1021 0.950 . S
C1041 C1037 1.385 . S
C1041 C1040 1.374 . S
C1042 C1039 1.499 . S
C1042 C1043 1.373 . S
C1042 C1044 1.389 1_565 S
C1043 H1022 0.950 . S
C1043 C1042 1.373 . S
C1043 C1059 1.377 . S
C1044 C1042 1.389 1_545 S
C1044 C1045 1.524 . S
C1044 C1058 1.377 . S
C1045 C1044 1.524 . S
C1045 C1046 1.397 1_545 S
C1045 C1050 1.363 . S
C1046 H1023 0.950 . S
C1046 C1045 1.397 1_565 S
C1046 C1047 1.334 . S
C1047 H1024 0.950 . S
C1047 C1046 1.334 . S
C1047 C1048 1.287 1_565 S
C1048 C1047 1.287 1_545 S
C1048 C1049 1.524 . S
C1048 H1067 0.913 . S
C1049 H1025 0.950 . S
C1049 C1048 1.524 . S
C1049 C1050 1.415 . S
C1050 H1026 0.950 . S
C1050 C1045 1.363 . S
C1050 C1049 1.415 . S
C1051 H1027 0.951 . S
C1051 C1052 1.366 . S
C1051 C1053 1.388 . S
C1052 C1051 1.366 . S
C1052 C1056 1.385 . S
C1053 H1028 0.951 . S
C1053 C1051 1.388 . S
C1053 C1054 1.366 . S
C1054 C1053 1.366 . S
C1054 C1055 1.414 . S
C1054 C1057 1.499 . S
C1055 H1029 0.950 . S
C1055 C1054 1.414 . S
C1055 C1056 1.374 . S
C1056 H1030 0.950 . S
C1056 C1052 1.385 . S
C1056 C1055 1.374 . S
C1057 C1054 1.499 . S
C1057 C1058 1.373 . S
C1057 C1059 1.389 1_545 S
C1058 H1031 0.950 . S
C1058 C1044 1.377 . S
C1058 C1057 1.373 . S
C1059 C1043 1.377 . S
C1059 C1057 1.389 1_565 S
C1059 C1060 1.524 . S
C1060 C1059 1.524 . S
C1060 C1061 1.397 1_565 S
C1060 C1065 1.363 . S
C1061 H1032 0.950 . S
C1061 C1060 1.397 1_545 S
C1061 C1062 1.334 . S
C1062 H1033 0.950 . S
C1062 C1061 1.334 . S
C1062 C1063 1.287 1_545 S
C1063 C1062 1.287 1_565 S
C1063 C1064 1.524 . S
C1063 H1066 0.999 . S
C1064 H1034 0.950 . S
C1064 C1063 1.524 . S
C1064 C1065 1.415 . S
C1065 H1035 0.950 . S
C1065 C1060 1.363 . S
C1065 C1064 1.415 . S
H1066 C1063 0.999 . S
H1067 C1048 0.913 . S
H1068 C1086 0.951 . S
H1069 C1088 0.951 . S
H1070 C1090 0.950 . S
H1071 C1091 0.950 . S
H1072 C1093 0.950 . S
H1073 C1096 0.950 . S
H1074 C1097 0.950 . S
H1075 C1099 0.950 . S
H1076 C1100 0.950 . S
H1077 C1101 0.951 . S
H1078 C1103 0.951 . S
H1079 C1105 0.950 . S
H1080 C1106 0.950 . S
H1081 C1108 0.950 . S
H1082 C1111 0.950 . S
H1083 C1112 0.950 . S
H1084 C1114 0.950 . S
H1085 C1115 0.950 . S
C1086 H1068 0.951 . S
C1086 C1087 1.366 . S
C1086 C1088 1.388 . S
C1087 C1086 1.366 . S
C1087 C1091 1.385 . S
C1088 H1069 0.951 . S
C1088 C1086 1.388 . S
C1088 C1089 1.366 . S
C1089 C1088 1.366 . S
C1089 C1090 1.414 . S
C1089 C1092 1.499 . S
C1090 H1070 0.950 . S
C1090 C1089 1.414 . S
C1090 C1091 1.374 . S
C1091 H1071 0.950 . S
C1091 C1087 1.385 . S
C1091 C1090 1.374 . S
C1092 C1089 1.499 . S
C1092 C1093 1.373 . S
C1092 C1094 1.389 . S
C1093 H1072 0.950 . S
C1093 C1092 1.373 . S
C1093 C1109 1.377 . S
C1094 C1092 1.389 . S
C1094 C1095 1.524 . S
C1094 C1108 1.377 . S
C1095 C1094 1.524 . S
C1095 C1096 1.397 . S
C1095 C1100 1.363 . S
C1096 H1073 0.950 . S
C1096 C1095 1.397 . S
C1096 C1097 1.334 . S
C1097 H1074 0.950 . S
C1097 C1096 1.334 . S
C1097 C1098 1.287 . S
C1098 C1097 1.287 . S
C1098 C1099 1.524 . S
C1098 H1117 0.913 . S
C1099 H1075 0.950 . S
C1099 C1098 1.524 . S
C1099 C1100 1.415 . S
C1100 H1076 0.950 . S
C1100 C1095 1.363 . S
C1100 C1099 1.415 . S
C1101 H1077 0.951 . S
C1101 C1102 1.366 . S
C1101 C1103 1.388 . S
C1102 C1101 1.366 . S
C1102 C1106 1.385 . S
C1103 H1078 0.951 . S
C1103 C1101 1.388 . S
C1103 C1104 1.366 . S
C1104 C1103 1.366 . S
C1104 C1105 1.414 . S
C1104 C1107 1.499 . S
C1105 H1079 0.950 . S
C1105 C1104 1.414 . S
C1105 C1106 1.374 . S
C1106 H1080 0.950 . S
C1106 C1102 1.385 . S
C1106 C1105 1.374 . S
C1107 C1104 1.499 . S
C1107 C1108 1.373 . S
C1107 C1109 1.389 . S
C1108 H1081 0.950 . S
C1108 C1094 1.377 . S
C1108 C1107 1.373 . S
C1109 C1093 1.377 . S
C1109 C1107 1.389 . S
C1109 C1110 1.524 . S
C1110 C1109 1.524 . S
C1110 C1111 1.397 . S
C1110 C1115 1.363 . S
C1111 H1082 0.950 . S
C1111 C1110 1.397 . S
C1111 C1112 1.334 . S
C1112 H1083 0.950 . S
C1112 C1111 1.334 . S
C1112 C1113 1.287 . S
C1113 C1112 1.287 . S
C1113 C1114 1.524 . S
C1113 H1116 0.999 . S
C1114 H1084 0.950 . S
C1114 C1113 1.524 . S
C1114 C1115 1.415 . S
C1115 H1085 0.950 . S
C1115 C1110 1.363 . S
C1115 C1114 1.415 . S
H1116 C1113 0.999 . S
H1117 C1098 0.913 . S
H1118 C1136 0.951 . S
H1119 C1138 0.951 . S
H1120 C1140 0.950 . S
H1121 C1141 0.950 . S
H1122 C1143 0.950 . S
H1123 C1146 0.950 . S
H1124 C1147 0.950 . S
H1125 C1149 0.950 . S
H1126 C1150 0.950 . S
H1127 C1151 0.951 . S
H1128 C1153 0.951 . S
H1129 C1155 0.950 . S
H1130 C1156 0.950 . S
H1131 C1158 0.950 . S
H1132 C1161 0.950 . S
H1133 C1162 0.950 . S
H1134 C1164 0.950 . S
H1135 C1165 0.950 . S
C1136 H1118 0.951 . S
C1136 C1137 1.366 . S
C1136 C1138 1.388 . S
C1137 C1136 1.366 . S
C1137 C1141 1.385 . S
C1138 H1119 0.951 . S
C1138 C1136 1.388 . S
C1138 C1139 1.366 . S
C1139 C1138 1.366 . S
C1139 C1140 1.414 . S
C1139 C1142 1.499 . S
C1140 H1120 0.950 . S
C1140 C1139 1.414 . S
C1140 C1141 1.374 . S
C1141 H1121 0.950 . S
C1141 C1137 1.385 . S
C1141 C1140 1.374 . S
C1142 C1139 1.499 . S
C1142 C1143 1.373 . S
C1142 C1144 1.389 . S
C1143 H1122 0.950 . S
C1143 C1142 1.373 . S
C1143 C1159 1.377 . S
C1144 C1142 1.389 . S
C1144 C1145 1.524 . S
C1144 C1158 1.377 . S
C1145 C1144 1.524 . S
C1145 C1146 1.397 . S
C1145 C1150 1.363 . S
C1146 H1123 0.950 . S
C1146 C1145 1.397 . S
C1146 C1147 1.334 . S
C1147 H1124 0.950 . S
C1147 C1146 1.334 . S
C1147 C1148 1.287 . S
C1148 C1147 1.287 . S
C1148 C1149 1.524 . S
C1148 H1167 0.913 . S
C1149 H1125 0.950 . S
C1149 C1148 1.524 . S
C1149 C1150 1.415 . S
C1150 H1126 0.950 . S
C1150 C1145 1.363 . S
C1150 C1149 1.415 . S
C1151 H1127 0.951 . S
C1151 C1152 1.366 . S
C1151 C1153 1.388 . S
C1152 C1151 1.366 . S
C1152 C1156 1.385 . S
C1153 H1128 0.951 . S
C1153 C1151 1.388 . S
C1153 C1154 1.366 . S
C1154 C1153 1.366 . S
C1154 C1155 1.414 . S
C1154 C1157 1.499 . S
C1155 H1129 0.950 . S
C1155 C1154 1.414 . S
C1155 C1156 1.374 . S
C1156 H1130 0.950 . S
C1156 C1152 1.385 . S
C1156 C1155 1.374 . S
C1157 C1154 1.499 . S
C1157 C1158 1.373 . S
C1157 C1159 1.389 . S
C1158 H1131 0.950 . S
C1158 C1144 1.377 . S
C1158 C1157 1.373 . S
C1159 C1143 1.377 . S
C1159 C1157 1.389 . S
C1159 C1160 1.524 . S
C1160 C1159 1.524 . S
C1160 C1161 1.397 . S
C1160 C1165 1.363 . S
C1161 H1132 0.950 . S
C1161 C1160 1.397 . S
C1161 C1162 1.334 . S
C1162 H1133 0.950 . S
C1162 C1161 1.334 . S
C1162 C1163 1.287 . S
C1163 C1162 1.287 . S
C1163 C1164 1.524 . S
C1163 H1166 0.999 . S
C1164 H1134 0.950 . S
C1164 C1163 1.524 . S
C1164 C1165 1.415 . S
C1165 H1135 0.950 . S
C1165 C1160 1.363 . S
C1165 C1164 1.415 . S
H1166 C1163 0.999 . S
H1167 C1148 0.913 . S
H1168 C1186 0.951 . S
H1169 C1188 0.951 . S
H1170 C1190 0.950 . S
H1171 C1191 0.950 . S
H1172 C1193 0.950 . S
H1173 C1196 0.950 . S
H1174 C1197 0.950 . S
H1175 C1199 0.950 . S
H1176 C1200 0.950 . S
H1177 C1201 0.951 . S
H1178 C1203 0.951 . S
H1179 C1205 0.950 . S
H1180 C1206 0.950 . S
H1181 C1208 0.950 . S
H1182 C1211 0.950 . S
H1183 C1212 0.950 . S
H1184 C1214 0.950 . S
H1185 C1215 0.950 . S
C1186 H1168 0.951 . S
C1186 C1187 1.366 1_556 S
C1186 C1188 1.388 . S
C1187 C1186 1.366 1_554 S
C1187 C1191 1.385 . S
C1188 H1169 0.951 . S
C1188 C1186 1.388 . S
C1188 C1189 1.366 . S
C1189 C1188 1.366 . S
C1189 C1190 1.414 . S
C1189 C1192 1.499 . S
C1190 H1170 0.950 . S
C1190 C1189 1.414 . S
C1190 C1191 1.374 1_556 S
C1191 H1171 0.950 . S
C1191 C1187 1.385 . S
C1191 C1190 1.374 1_554 S
C1192 C1189 1.499 . S
C1192 C1193 1.373 . S
C1192 C1194 1.389 . S
C1193 H1172 0.950 . S
C1193 C1192 1.373 . S
C1193 C1209 1.377 . S
C1194 C1192 1.389 . S
C1194 C1195 1.524 . S
C1194 C1208 1.377 . S
C1195 C1194 1.524 . S
C1195 C1196 1.397 1_556 S
C1195 C1200 1.363 . S
C1196 H1173 0.950 . S
C1196 C1195 1.397 1_554 S
C1196 C1197 1.334 . S
C1197 H1174 0.950 . S
C1197 C1196 1.334 . S
C1197 C1198 1.287 . S
C1198 C1197 1.287 . S
C1198 C1199 1.524 . S
C1198 H1217 0.913 . S
C1199 H1175 0.950 . S
C1199 C1198 1.524 . S
C1199 C1200 1.415 1_554 S
C1200 H1176 0.950 . S
C1200 C1195 1.363 . S
C1200 C1199 1.415 1_556 S
C1201 H1177 0.951 . S
C1201 C1202 1.366 . S
C1201 C1203 1.388 . S
C1202 C1201 1.366 . S
C1202 C1206 1.385 . S
C1203 H1178 0.951 . S
C1203 C1201 1.388 . S
C1203 C1204 1.366 . S
C1204 C1203 1.366 . S
C1204 C1205 1.414 . S
C1204 C1207 1.499 . S
C1205 H1179 0.950 . S
C1205 C1204 1.414 . S
C1205 C1206 1.374 . S
C1206 H1180 0.950 . S
C1206 C1202 1.385 . S
C1206 C1205 1.374 . S
C1207 C1204 1.499 . S
C1207 C1208 1.373 . S
C1207 C1209 1.389 . S
C1208 H1181 0.950 . S
C1208 C1194 1.377 . S
C1208 C1207 1.373 . S
C1209 C1193 1.377 . S
C1209 C1207 1.389 . S
C1209 C1210 1.524 . S
C1210 C1209 1.524 . S
C1210 C1211 1.397 . S
C1210 C1215 1.363 . S
C1211 H1182 0.950 . S
C1211 C1210 1.397 . S
C1211 C1212 1.334 . S
C1212 H1183 0.950 . S
C1212 C1211 1.334 . S
C1212 C1213 1.287 . S
C1213 C1212 1.287 . S
C1213 C1214 1.524 . S
C1213 H1216 0.999 . S
C1214 H1184 0.950 . S
C1214 C1213 1.524 . S
C1214 C1215 1.415 . S
C1215 H1185 0.950 . S
C1215 C1210 1.363 . S
C1215 C1214 1.415 . S
H1216 C1213 0.999 . S
H1217 C1198 0.913 . S
H1218 C1236 0.951 . S
H1219 C1238 0.951 . S
H1220 C1240 0.950 . S
H1221 C1241 0.950 . S
H1222 C1243 0.950 . S
H1223 C1246 0.950 . S
H1224 C1247 0.950 . S
H1225 C1249 0.950 . S
H1226 C1250 0.950 . S
H1227 C1251 0.951 . S
H1228 C1253 0.951 . S
H1229 C1255 0.950 . S
H1230 C1256 0.950 . S
H1231 C1258 0.950 . S
H1232 C1261 0.950 1_556 S
H1233 C1262 0.950 . S
H1234 C1264 0.950 . S
H1235 C1265 0.950 . S
C1236 H1218 0.951 . S
C1236 C1237 1.366 . S
C1236 C1238 1.388 . S
C1237 C1236 1.366 . S
C1237 C1241 1.385 . S
C1238 H1219 0.951 . S
C1238 C1236 1.388 . S
C1238 C1239 1.366 . S
C1239 C1238 1.366 . S
C1239 C1240 1.414 . S
C1239 C1242 1.499 . S
C1240 H1220 0.950 . S
C1240 C1239 1.414 . S
C1240 C1241 1.374 . S
C1241 H1221 0.950 . S
C1241 C1237 1.385 . S
C1241 C1240 1.374 . S
C1242 C1239 1.499 . S
C1242 C1243 1.373 . S
C1242 C1244 1.389 . S
C1243 H1222 0.950 . S
C1243 C1242 1.373 . S
C1243 C1259 1.377 . S
C1244 C1242 1.389 . S
C1244 C1245 1.524 . S
C1244 C1258 1.377 . S
C1245 C1244 1.524 . S
C1245 C1246 1.397 . S
C1245 C1250 1.363 . S
C1246 H1223 0.950 . S
C1246 C1245 1.397 . S
C1246 C1247 1.334 . S
C1247 H1224 0.950 . S
C1247 C1246 1.334 . S
C1247 C1248 1.287 . S
C1248 C1247 1.287 . S
C1248 C1249 1.524 . S
C1248 H1267 0.913 . S
C1249 H1225 0.950 . S
C1249 C1248 1.524 . S
C1249 C1250 1.415 . S
C1250 H1226 0.950 . S
C1250 C1245 1.363 . S
C1250 C1249 1.415 . S
C1251 H1227 0.951 . S
C1251 C1252 1.366 1_554 S
C1251 C1253 1.388 . S
C1252 C1251 1.366 1_556 S
C1252 C1256 1.385 . S
C1253 H1228 0.951 . S
C1253 C1251 1.388 . S
C1253 C1254 1.366 . S
C1254 C1253 1.366 . S
C1254 C1255 1.414 1_554 S
C1254 C1257 1.499 . S
C1255 H1229 0.950 . S
C1255 C1254 1.414 1_556 S
C1255 C1256 1.374 . S
C1256 H1230 0.950 . S
C1256 C1252 1.385 . S
C1256 C1255 1.374 . S
C1257 C1254 1.499 . S
C1257 C1258 1.373 . S
C1257 C1259 1.389 . S
C1258 H1231 0.950 . S
C1258 C1244 1.377 . S
C1258 C1257 1.373 . S
C1259 C1243 1.377 . S
C1259 C1257 1.389 . S
C1259 C1260 1.524 . S
C1260 C1259 1.524 . S
C1260 C1261 1.397 . S
C1260 C1265 1.363 . S
C1261 H1232 0.950 1_554 S
C1261 C1260 1.397 . S
C1261 C1262 1.334 1_554 S
C1262 H1233 0.950 . S
C1262 C1261 1.334 1_556 S
C1262 C1263 1.287 1_556 S
C1263 C1262 1.287 1_554 S
C1263 C1264 1.524 . S
C1263 H1266 0.999 . S
C1264 H1234 0.950 . S
C1264 C1263 1.524 . S
C1264 C1265 1.415 . S
C1265 H1235 0.950 . S
C1265 C1260 1.363 . S
C1265 C1264 1.415 . S
H1266 C1263 0.999 . S
H1267 C1248 0.913 . S
H1268 C1286 0.951 . S
H1269 C1288 0.951 . S
H1270 C1290 0.950 . S
H1271 C1291 0.950 . S
H1272 C1293 0.950 . S
H1273 C1296 0.950 . S
H1274 C1297 0.950 . S
H1275 C1299 0.950 . S
H1276 C1300 0.950 . S
H1277 C1301 0.951 . S
H1278 C1303 0.951 . S
H1279 C1305 0.950 . S
H1280 C1306 0.950 . S
H1281 C1308 0.950 . S
H1282 C1311 0.950 . S
H1283 C1312 0.950 . S
H1284 C1314 0.950 . S
H1285 C1315 0.950 . S
C1286 H1268 0.951 . S
C1286 C1287 1.366 . S
C1286 C1288 1.388 . S
C1287 C1286 1.366 . S
C1287 C1291 1.385 . S
C1288 H1269 0.951 . S
C1288 C1286 1.388 . S
C1288 C1289 1.366 . S
C1289 C1288 1.366 . S
C1289 C1290 1.414 . S
C1289 C1292 1.499 . S
C1290 H1270 0.950 . S
C1290 C1289 1.414 . S
C1290 C1291 1.374 . S
C1291 H1271 0.950 . S
C1291 C1287 1.385 . S
C1291 C1290 1.374 . S
C1292 C1289 1.499 . S
C1292 C1293 1.373 . S
C1292 C1294 1.389 . S
C1293 H1272 0.950 . S
C1293 C1292 1.373 . S
C1293 C1309 1.377 . S
C1294 C1292 1.389 . S
C1294 C1295 1.524 . S
C1294 C1308 1.377 . S
C1295 C1294 1.524 . S
C1295 C1296 1.397 . S
C1295 C1300 1.363 . S
C1296 H1273 0.950 . S
C1296 C1295 1.397 . S
C1296 C1297 1.334 . S
C1297 H1274 0.950 . S
C1297 C1296 1.334 . S
C1297 C1298 1.287 . S
C1298 C1297 1.287 . S
C1298 C1299 1.524 . S
C1298 H1317 0.913 . S
C1299 H1275 0.950 . S
C1299 C1298 1.524 . S
C1299 C1300 1.415 . S
C1300 H1276 0.950 . S
C1300 C1295 1.363 . S
C1300 C1299 1.415 . S
C1301 H1277 0.951 . S
C1301 C1302 1.366 . S
C1301 C1303 1.388 . S
C1302 C1301 1.366 . S
C1302 C1306 1.385 . S
C1303 H1278 0.951 . S
C1303 C1301 1.388 . S
C1303 C1304 1.366 . S
C1304 C1303 1.366 . S
C1304 C1305 1.414 . S
C1304 C1307 1.499 . S
C1305 H1279 0.950 . S
C1305 C1304 1.414 . S
C1305 C1306 1.374 . S
C1306 H1280 0.950 . S
C1306 C1302 1.385 . S
C1306 C1305 1.374 . S
C1307 C1304 1.499 . S
C1307 C1308 1.373 . S
C1307 C1309 1.389 . S
C1308 H1281 0.950 . S
C1308 C1294 1.377 . S
C1308 C1307 1.373 . S
C1309 C1293 1.377 . S
C1309 C1307 1.389 . S
C1309 C1310 1.524 . S
C1310 C1309 1.524 . S
C1310 C1311 1.397 . S
C1310 C1315 1.363 . S
C1311 H1282 0.950 . S
C1311 C1310 1.397 . S
C1311 C1312 1.334 . S
C1312 H1283 0.950 . S
C1312 C1311 1.334 . S
C1312 C1313 1.287 . S
C1313 C1312 1.287 . S
C1313 C1314 1.524 . S
C1313 H1316 0.999 . S
C1314 H1284 0.950 . S
C1314 C1313 1.524 . S
C1314 C1315 1.415 . S
C1315 H1285 0.950 . S
C1315 C1310 1.363 . S
C1315 C1314 1.415 . S
H1316 C1313 0.999 . S
H1317 C1298 0.913 . S
H1318 C1336 0.951 . S
H1319 C1338 0.951 . S
H1320 C1340 0.950 . S
H1321 C1341 0.950 . S
H1322 C1343 0.950 . S
H1323 C1346 0.950 . S
H1324 C1347 0.950 . S
H1325 C1349 0.950 . S
H1326 C1350 0.950 . S
H1327 C1351 0.951 . S
H1328 C1353 0.951 . S
H1329 C1355 0.950 . S
H1330 C1356 0.950 . S
H1331 C1358 0.950 . S
H1332 C1361 0.950 . S
H1333 C1362 0.950 . S
H1334 C1364 0.950 . S
H1335 C1365 0.950 . S
C1336 H1318 0.951 . S
C1336 C1337 1.366 . S
C1336 C1338 1.388 . S
C1337 C1336 1.366 . S
C1337 C1341 1.385 . S
C1338 H1319 0.951 . S
C1338 C1336 1.388 . S
C1338 C1339 1.366 . S
C1339 C1338 1.366 . S
C1339 C1340 1.414 . S
C1339 C1342 1.499 . S
C1340 H1320 0.950 . S
C1340 C1339 1.414 . S
C1340 C1341 1.374 . S
C1341 H1321 0.950 . S
C1341 C1337 1.385 . S
C1341 C1340 1.374 . S
C1342 C1339 1.499 . S
C1342 C1343 1.373 . S
C1342 C1344 1.389 . S
C1343 H1322 0.950 . S
C1343 C1342 1.373 . S
C1343 C1359 1.377 . S
C1344 C1342 1.389 . S
C1344 C1345 1.524 . S
C1344 C1358 1.377 . S
C1345 C1344 1.524 . S
C1345 C1346 1.397 . S
C1345 C1350 1.363 . S
C1346 H1323 0.950 . S
C1346 C1345 1.397 . S
C1346 C1347 1.334 . S
C1347 H1324 0.950 . S
C1347 C1346 1.334 . S
C1347 C1348 1.287 . S
C1348 C1347 1.287 . S
C1348 C1349 1.524 . S
C1348 H1367 0.913 . S
C1349 H1325 0.950 . S
C1349 C1348 1.524 . S
C1349 C1350 1.415 . S
C1350 H1326 0.950 . S
C1350 C1345 1.363 . S
C1350 C1349 1.415 . S
C1351 H1327 0.951 . S
C1351 C1352 1.366 . S
C1351 C1353 1.388 . S
C1352 C1351 1.366 . S
C1352 C1356 1.385 . S
C1353 H1328 0.951 . S
C1353 C1351 1.388 . S
C1353 C1354 1.366 . S
C1354 C1353 1.366 . S
C1354 C1355 1.414 . S
C1354 C1357 1.499 . S
C1355 H1329 0.950 . S
C1355 C1354 1.414 . S
C1355 C1356 1.374 . S
C1356 H1330 0.950 . S
C1356 C1352 1.385 . S
C1356 C1355 1.374 . S
C1357 C1354 1.499 . S
C1357 C1358 1.373 . S
C1357 C1359 1.389 . S
C1358 H1331 0.950 . S
C1358 C1344 1.377 . S
C1358 C1357 1.373 . S
C1359 C1343 1.377 . S
C1359 C1357 1.389 . S
C1359 C1360 1.524 . S
C1360 C1359 1.524 . S
C1360 C1361 1.397 . S
C1360 C1365 1.363 . S
C1361 H1332 0.950 . S
C1361 C1360 1.397 . S
C1361 C1362 1.334 . S
C1362 H1333 0.950 . S
C1362 C1361 1.334 . S
C1362 C1363 1.287 . S
C1363 C1362 1.287 . S
C1363 C1364 1.524 . S
C1363 H1366 0.999 . S
C1364 H1334 0.950 . S
C1364 C1363 1.524 . S
C1364 C1365 1.415 . S
C1365 H1335 0.950 . S
C1365 C1360 1.363 . S
C1365 C1364 1.415 . S
H1366 C1363 0.999 . S
H1367 C1348 0.913 . S
C187 C131 1.628 1_554 S
C202 C5 1.628 . S
C237 C19 1.628 . S
C252 C145 1.627 . S
C287 C159 1.627 . S
C302 C33 1.628 . S
C337 C89 1.628 . S
C352 C47 1.628 . S
C387 C103 1.627 . S
C402 C61 1.628 1_556 S
C437 C117 1.627 . S
C452 C75 1.627 . S
C487 C84 1.447 . S
C502 C0 1.446 . S
C537 C14 1.447 . S
C552 C98 1.446 . S
C587 C112 1.447 . S
C602 C28 1.446 . S
C637 C42 1.447 . S
C652 C126 1.446 . S
C687 C140 1.447 . S
C702 C56 1.447 . S
C737 C70 1.446 . S
C752 C154 1.447 . S
C787 C135 1.205 . S
C802 C9 1.204 . S
C837 C149 1.205 1_556 S
C852 C23 1.204 . S
C887 C163 1.205 . S
C902 C37 1.204 . S
C937 C51 1.205 1_554 S
C952 C93 1.205 . S
C987 C107 1.205 . S
C1002 C65 1.205 . S
C1037 C79 1.205 . S
C1052 C121 1.204 . S
C1087 C11 1.090 . S
C1102 C123 1.090 . S
C1137 C137 1.090 . S
C1152 C25 1.090 . S
C1187 C151 1.089 . S
C1202 C39 1.089 . S
C1237 C165 1.090 . S
C1252 C53 1.090 . S
C1287 C95 1.090 . S
C1302 C67 1.090 . S
C1337 C109 1.090 . S
C1352 C81 1.090 . S
