# Generated by pormake.
# Topology wiv, (6)-cn, num edge types: 1
# Building blocks:
#     Node 0, Type 0, BuildingBlock: GEDQOX_clean_sbu_0, # of connection points: 6
#     Node 1, Type 0, BuildingBlock: GEDQOX_clean_sbu_0, # of connection points: 6
#     Node 2, Type 0, BuildingBlock: GEDQOX_clean_sbu_0, # of connection points: 6
#     Node 3, Type 0, BuildingBlock: GEDQOX_clean_sbu_0, # of connection points: 6
#     Node 4, Type 0, BuildingBlock: GEDQOX_clean_sbu_0, # of connection points: 6
#     Node 5, Type 0, BuildingBlock: GEDQOX_clean_sbu_0, # of connection points: 6
#     Node 6, Type 0, BuildingBlock: GEDQOX_clean_sbu_0, # of connection points: 6
#     Node 7, Type 0, BuildingBlock: GEDQOX_clean_sbu_0, # of connection points: 6
#     Node 8, Type 0, BuildingBlock: GEDQOX_clean_sbu_0, # of connection points: 6
#     Node 9, Type 0, BuildingBlock: GEDQOX_clean_sbu_0, # of connection points: 6
#     Node 10, Type 0, BuildingBlock: GEDQOX_clean_sbu_0, # of connection points: 6
#     Node 11, Type 0, BuildingBlock: GEDQOX_clean_sbu_0, # of connection points: 6
#     Node 12, Type 0, BuildingBlock: GEDQOX_clean_sbu_0, # of connection points: 6
#     Node 13, Type 0, BuildingBlock: GEDQOX_clean_sbu_0, # of connection points: 6
#     Node 14, Type 0, BuildingBlock: GEDQOX_clean_sbu_0, # of connection points: 6
#     Node 15, Type 0, BuildingBlock: GEDQOX_clean_sbu_0, # of connection points: 6
#     Edge 16, Type (0, 0), BuildingBlock: ZUJKAS_clean_linker_0, # of connection points: 2
#     Edge 17, Type (0, 0), BuildingBlock: ZUJKAS_clean_linker_0, # of connection points: 2
#     Edge 18, Type (0, 0), BuildingBlock: ZUJKAS_clean_linker_0, # of connection points: 2
#     Edge 19, Type (0, 0), BuildingBlock: ZUJKAS_clean_linker_0, # of connection points: 2
#     Edge 20, Type (0, 0), BuildingBlock: ZUJKAS_clean_linker_0, # of connection points: 2
#     Edge 21, Type (0, 0), BuildingBlock: ZUJKAS_clean_linker_0, # of connection points: 2
#     Edge 22, Type (0, 0), BuildingBlock: ZUJKAS_clean_linker_0, # of connection points: 2
#     Edge 23, Type (0, 0), BuildingBlock: ZUJKAS_clean_linker_0, # of connection points: 2
#     Edge 24, Type (0, 0), BuildingBlock: ZUJKAS_clean_linker_0, # of connection points: 2
#     Edge 25, Type (0, 0), BuildingBlock: ZUJKAS_clean_linker_0, # of connection points: 2
#     Edge 26, Type (0, 0), BuildingBlock: ZUJKAS_clean_linker_0, # of connection points: 2
#     Edge 27, Type (0, 0), BuildingBlock: ZUJKAS_clean_linker_0, # of connection points: 2
#     Edge 28, Type (0, 0), BuildingBlock: ZUJKAS_clean_linker_0, # of connection points: 2
#     Edge 29, Type (0, 0), BuildingBlock: ZUJKAS_clean_linker_0, # of connection points: 2
#     Edge 30, Type (0, 0), BuildingBlock: ZUJKAS_clean_linker_0, # of connection points: 2
#     Edge 31, Type (0, 0), BuildingBlock: ZUJKAS_clean_linker_0, # of connection points: 2
#     Edge 32, Type (0, 0), BuildingBlock: ZUJKAS_clean_linker_0, # of connection points: 2
#     Edge 33, Type (0, 0), BuildingBlock: ZUJKAS_clean_linker_0, # of connection points: 2
#     Edge 34, Type (0, 0), BuildingBlock: ZUJKAS_clean_linker_0, # of connection points: 2
#     Edge 35, Type (0, 0), BuildingBlock: ZUJKAS_clean_linker_0, # of connection points: 2
#     Edge 36, Type (0, 0), BuildingBlock: ZUJKAS_clean_linker_0, # of connection points: 2
#     Edge 37, Type (0, 0), BuildingBlock: ZUJKAS_clean_linker_0, # of connection points: 2
#     Edge 38, Type (0, 0), BuildingBlock: ZUJKAS_clean_linker_0, # of connection points: 2
#     Edge 39, Type (0, 0), BuildingBlock: ZUJKAS_clean_linker_0, # of connection points: 2
#     Edge 40, Type (0, 0), BuildingBlock: ZUJKAS_clean_linker_0, # of connection points: 2
#     Edge 41, Type (0, 0), BuildingBlock: ZUJKAS_clean_linker_0, # of connection points: 2
#     Edge 42, Type (0, 0), BuildingBlock: ZUJKAS_clean_linker_0, # of connection points: 2
#     Edge 43, Type (0, 0), BuildingBlock: ZUJKAS_clean_linker_0, # of connection points: 2
#     Edge 44, Type (0, 0), BuildingBlock: ZUJKAS_clean_linker_0, # of connection points: 2
#     Edge 45, Type (0, 0), BuildingBlock: ZUJKAS_clean_linker_0, # of connection points: 2
#     Edge 46, Type (0, 0), BuildingBlock: ZUJKAS_clean_linker_0, # of connection points: 2
#     Edge 47, Type (0, 0), BuildingBlock: ZUJKAS_clean_linker_0, # of connection points: 2
#     Edge 48, Type (0, 0), BuildingBlock: ZUJKAS_clean_linker_0, # of connection points: 2
#     Edge 49, Type (0, 0), BuildingBlock: ZUJKAS_clean_linker_0, # of connection points: 2
#     Edge 50, Type (0, 0), BuildingBlock: ZUJKAS_clean_linker_0, # of connection points: 2
#     Edge 51, Type (0, 0), BuildingBlock: ZUJKAS_clean_linker_0, # of connection points: 2
#     Edge 52, Type (0, 0), BuildingBlock: ZUJKAS_clean_linker_0, # of connection points: 2
#     Edge 53, Type (0, 0), BuildingBlock: ZUJKAS_clean_linker_0, # of connection points: 2
#     Edge 54, Type (0, 0), BuildingBlock: ZUJKAS_clean_linker_0, # of connection points: 2
#     Edge 55, Type (0, 0), BuildingBlock: ZUJKAS_clean_linker_0, # of connection points: 2
#     Edge 56, Type (0, 0), BuildingBlock: ZUJKAS_clean_linker_0, # of connection points: 2
#     Edge 57, Type (0, 0), BuildingBlock: ZUJKAS_clean_linker_0, # of connection points: 2
#     Edge 58, Type (0, 0), BuildingBlock: ZUJKAS_clean_linker_0, # of connection points: 2
#     Edge 59, Type (0, 0), BuildingBlock: ZUJKAS_clean_linker_0, # of connection points: 2
#     Edge 60, Type (0, 0), BuildingBlock: ZUJKAS_clean_linker_0, # of connection points: 2
#     Edge 61, Type (0, 0), BuildingBlock: ZUJKAS_clean_linker_0, # of connection points: 2
#     Edge 62, Type (0, 0), BuildingBlock: ZUJKAS_clean_linker_0, # of connection points: 2
#     Edge 63, Type (0, 0), BuildingBlock: ZUJKAS_clean_linker_0, # of connection points: 2
# Relax obj value: 0.108
# Max RMSD: 0.175
# Mean RMSD: 0.175
data_MOF--net-wiv--node1-GEDQOX_clean_sbu_0--edge1-ZUJKAS_clean_linker_0
_symmetry_space_group_name_H-M    P1
_symmetry_Int_Tables_number       1
_symmetry_cell_setting            triclinic
loop_
_symmetry_equiv_pos_as_xyz
'x, y, z'
_cell_length_a     97.134258
_cell_length_b     97.059255
_cell_length_c     20.258831
_cell_angle_alpha  90.08012
_cell_angle_beta   89.934923
_cell_angle_gamma 89.946873
loop_
_atom_site_label
_atom_site_type_symbol
_atom_site_fract_x
_atom_site_fract_y
_atom_site_fract_z
_atom_type_partial_charge
Nd0 Nd 0.42421 0.1569 0.17624 0.0
Nd1 Nd 0.39089 0.16562 0.17329 0.0
C2 C 0.44783 0.14299 0.1833 0.0
C3 C 0.46231 0.1421 0.20814 0.0
C4 C 0.46626 0.13083 0.24744 0.0
C5 C 0.48009 0.12875 0.26515 0.0
C6 C 0.49049 0.13786 0.24398 0.0
C7 C 0.48647 0.14935 0.20584 0.0
C8 C 0.4726 0.15141 0.18799 0.0
C9 C 0.42016 0.18557 0.17783 0.0
C10 C 0.40745 0.16305 0.3161 0.0
C11 C 0.36707 0.17872 0.15935 0.0
C12 C 0.35351 0.17732 0.12515 0.0
C13 C 0.34953 0.18719 0.07815 0.0
C14 C 0.3366 0.1865 0.04744 0.0
C15 C 0.32718 0.17595 0.06302 0.0
C16 C 0.33125 0.16598 0.10975 0.0
C17 C 0.34422 0.16666 0.1404 0.0
C18 C 0.39439 0.13705 0.17421 0.0
C19 C 0.4076 0.15942 1.03348 0.0
O20 O 0.43764 0.14127 0.22506 0.0
O21 O 0.44491 0.1518 0.13625 0.0
O22 O 0.43221 0.17969 0.17868 0.0
O23 O 0.41133 0.17608 0.17741 0.0
O24 O 0.41809 0.15713 0.28605 0.0
O25 O 0.39685 0.1685 0.28347 0.0
O26 O 0.37789 0.18121 0.12246 0.0
O27 O 0.36977 0.1704 0.20871 0.0
O28 O 0.38254 0.14324 0.17216 0.0
O29 O 0.40364 0.14621 0.17336 0.0
O30 O 0.39695 0.16524 0.06356 0.0
O31 O 0.41822 0.15409 0.06612 0.0
H32 H 0.45864 0.12339 0.26331 0.0
H33 H 0.48263 0.11992 0.29536 0.0
H34 H 0.4941 0.15655 0.18784 0.0
H35 H 0.47002 0.16013 0.1571 0.0
H36 H 0.35641 0.19555 0.0654 0.0
H37 H 0.33403 0.19425 1.01108 0.0
H38 H 0.3243 0.15779 0.1239 0.0
H39 H 0.34687 0.1589 0.17657 0.0
Nd40 Nd 0.16567 0.62892 0.88961 0.0
Nd41 Nd 0.15666 0.59567 0.88662 0.0
C42 C 0.17905 0.65261 0.90333 0.0
C43 C 0.17765 0.6663 0.93594 0.0
C44 C 0.18938 0.67277 0.96183 0.0
C45 C 0.18849 0.68586 0.99109 0.0
C46 C 0.17582 0.6929 0.99528 0.0
C47 C 0.16401 0.68627 0.96996 0.0
C48 C 0.16491 0.67314 0.94068 0.0
C49 C 0.1371 0.62575 0.88601 0.0
C50 C 0.1591 0.61236 1.02939 0.0
C51 C 0.14259 0.57214 0.87961 0.0
C52 C 0.14167 0.55763 0.85486 0.0
C53 C 0.12985 0.55341 0.82028 0.0
C54 C 0.12786 0.53952 0.80288 0.0
C55 C 0.13763 0.52936 0.81961 0.0
C56 C 0.14964 0.53368 0.85294 0.0
C57 C 0.15161 0.54759 0.8705 0.0
C58 C 0.18536 0.59943 0.88583 0.0
C59 C 0.16322 0.61224 0.74693 0.0
O60 O 0.18111 0.64193 0.94167 0.0
O61 O 0.17085 0.64987 0.85359 0.0
O62 O 0.14342 0.63753 0.88732 0.0
O63 O 0.14615 0.61638 0.88902 0.0
O64 O 0.16496 0.623 0.99951 0.0
O65 O 0.15379 0.60174 0.99659 0.0
O66 O 0.14091 0.58232 0.83783 0.0
O67 O 0.15143 0.57502 0.92658 0.0
O68 O 0.17939 0.58743 0.88475 0.0
O69 O 0.17594 0.60835 0.88612 0.0
O70 O 0.1571 0.6017 0.77672 0.0
O71 O 0.1688 0.62275 0.77983 0.0
H72 H 0.19931 0.6677 0.95913 0.0
H73 H 0.19778 0.6904 1.01095 0.0
H74 H 0.15408 0.69134 0.97152 0.0
H75 H 0.15567 0.66841 0.92128 0.0
H76 H 0.12194 0.56084 0.80792 0.0
H77 H 0.11859 0.53676 0.77639 0.0
H78 H 0.15737 0.52623 0.86743 0.0
H79 H 0.16079 0.55041 0.89763 0.0
Nd80 Nd 0.59501 0.86345 0.18007 0.0
Nd81 Nd 0.62831 0.85469 0.17608 0.0
C82 C 0.57147 0.87748 0.18742 0.0
C83 C 0.55707 0.87855 0.21308 0.0
C84 C 0.55297 0.89059 0.24638 0.0
C85 C 0.53918 0.89268 0.26484 0.0
C86 C 0.529 0.88279 0.25051 0.0
C87 C 0.53319 0.87055 0.21844 0.0
C88 C 0.54701 0.86848 0.19976 0.0
C89 C 0.59901 0.83478 0.1818 0.0
C90 C 0.61187 0.8574 0.31939 0.0
C91 C 0.65208 0.84149 0.162 0.0
C92 C 0.66561 0.8428 0.12749 0.0
C93 C 0.66982 0.83249 0.08309 0.0
C94 C 0.68273 0.83311 0.05202 0.0
C95 C 0.69188 0.84406 0.06466 0.0
C96 C 0.68758 0.85448 0.10875 0.0
C97 C 0.67463 0.85386 0.13974 0.0
C98 C 0.62481 0.88327 0.17613 0.0
C99 C 0.61148 0.86074 0.03683 0.0
O100 O 0.58175 0.87933 0.22844 0.0
O101 O 0.57423 0.86842 0.14107 0.0
O102 O 0.58696 0.84068 0.18296 0.0
O103 O 0.60786 0.84425 0.18102 0.0
O104 O 0.60118 0.86328 0.28972 0.0
O105 O 0.62244 0.85194 0.28642 0.0
O106 O 0.64124 0.83897 0.12538 0.0
O107 O 0.64943 0.84993 0.21113 0.0
O108 O 0.63667 0.87709 0.17373 0.0
O109 O 0.61558 0.87409 0.17622 0.0
O110 O 0.62214 0.85489 0.06656 0.0
O111 O 0.60092 0.86615 0.06981 0.0
H112 H 0.56042 0.89859 0.25695 0.0
H113 H 0.5365 0.90213 0.29034 0.0
H114 H 0.52571 0.86272 0.20588 0.0
H115 H 0.54975 0.85913 0.17368 0.0
H116 H 0.66313 0.82383 0.07265 0.0
H117 H 0.68548 0.82501 1.01768 0.0
H118 H 0.69432 0.863 0.12057 0.0
H119 H 0.67177 0.86198 0.1738 0.0
Nd120 Nd 0.85419 0.39199 0.89886 0.0
Nd121 Nd 0.86314 0.42521 0.89612 0.0
C122 C 0.84081 0.36831 0.9121 0.0
C123 C 0.84203 0.35471 0.9457 0.0
C124 C 0.83051 0.34915 0.97797 0.0
C125 C 0.83116 0.33616 1.00819 0.0
C126 C 0.84337 0.3283 1.0069 0.0
C127 C 0.85499 0.334 0.97516 0.0
C128 C 0.85433 0.34704 0.94498 0.0
C129 C 0.88277 0.39522 0.89719 0.0
C130 C 0.86063 0.40849 0.03874 0.0
C131 C 0.87724 0.44872 0.89018 0.0
C132 C 0.87788 0.46354 0.87062 0.0
C133 C 0.87433 0.46814 0.80699 0.0
C134 C 0.87628 0.48202 0.78879 0.0
C135 C 0.88196 0.49164 0.83349 0.0
C136 C 0.88526 0.48698 0.8974 0.0
C137 C 0.88324 0.47317 0.91558 0.0
C138 C 0.83446 0.42151 0.89513 0.0
C139 C 0.85716 0.40846 0.7563 0.0
O140 O 0.83847 0.37909 0.94953 0.0
O141 O 0.84925 0.37094 0.8631 0.0
O142 O 0.8765 0.38341 0.8993 0.0
O143 O 0.87369 0.40456 0.89844 0.0
O144 O 0.85469 0.39791 1.00873 0.0
O145 O 0.86602 0.41908 1.00601 0.0
O146 O 0.8776 0.43923 0.84401 0.0
O147 O 0.86958 0.44523 0.94082 0.0
O148 O 0.84045 0.4335 0.8942 0.0
O149 O 0.84385 0.41256 0.89559 0.0
O150 O 0.86334 0.41891 0.7865 0.0
O151 O 0.85135 0.39805 0.78888 0.0
H152 H 0.82092 0.35485 0.97953 0.0
H153 H 0.82207 0.33234 1.03302 0.0
H154 H 0.86454 0.32829 0.97237 0.0
H155 H 0.86341 0.35104 0.92061 0.0
H156 H 0.87026 0.46098 0.77092 0.0
H157 H 0.87369 0.48512 0.73901 0.0
H158 H 0.88941 0.49403 0.93373 0.0
H159 H 0.88614 0.46995 0.96483 0.0
Nd160 Nd 0.42324 0.3637 0.13876 0.0
Nd161 Nd 0.38996 0.35495 0.14252 0.0
C162 C 0.44684 0.37759 0.13145 0.0
C163 C 0.46132 0.37833 0.10642 0.0
C164 C 0.46571 0.39018 0.07257 0.0
C165 C 0.47958 0.39195 0.05469 0.0
C166 C 0.48957 0.38191 0.07024 0.0
C167 C 0.48507 0.36988 0.10293 0.0
C168 C 0.47117 0.36812 0.12087 0.0
C169 C 0.4193 0.33503 0.13662 0.0
C170 C 0.40641 0.35764 0.99933 0.0
C171 C 0.36626 0.34161 0.1559 0.0
C172 C 0.35272 0.34274 0.19001 0.0
C173 C 0.34635 0.33078 0.21395 0.0
C174 C 0.33341 0.3314 0.24469 0.0
C175 C 0.32643 0.34405 0.25234 0.0
C176 C 0.33295 0.35608 0.22894 0.0
C177 C 0.34593 0.35544 0.19817 0.0
C178 C 0.39339 0.38353 0.14209 0.0
C179 C 0.4067 0.36116 0.28192 0.0
O180 O 0.43668 0.37931 0.08966 0.0
O181 O 0.44391 0.36882 0.17864 0.0
O182 O 0.43133 0.34093 0.13536 0.0
O183 O 0.41043 0.3445 0.13781 0.0
O184 O 0.41705 0.36357 1.02911 0.0
O185 O 0.39587 0.35214 1.03222 0.0
O186 O 0.37707 0.33918 0.19281 0.0
O187 O 0.36882 0.35024 0.10762 0.0
O188 O 0.38155 0.37734 0.14427 0.0
O189 O 0.40266 0.37437 0.14235 0.0
O190 O 0.39603 0.35534 0.25215 0.0
O191 O 0.4173 0.36647 0.249 0.0
H192 H 0.45843 0.39832 0.06148 0.0
H193 H 0.48252 0.40144 1.03053 0.0
H194 H 0.49231 0.36178 0.11496 0.0
H195 H 0.46819 0.35887 0.14706 0.0
H196 H 0.35138 0.32087 0.20861 0.0
H197 H 0.32894 0.32193 0.26298 0.0
H198 H 0.32792 0.366 0.2332 0.0
H199 H 0.35061 0.36486 0.18033 0.0
Nd200 Nd 0.35439 0.62882 0.92668 0.0
Nd201 Nd 0.36354 0.59563 0.9288 0.0
C202 C 0.34086 0.65245 0.91344 0.0
C203 C 0.34206 0.66606 0.88009 0.0
C204 C 0.33022 0.67233 0.85425 0.0
C205 C 0.33091 0.68533 0.82412 0.0
C206 C 0.3435 0.69247 0.81899 0.0
C207 C 0.35542 0.68604 0.84428 0.0
C208 C 0.35471 0.673 0.87442 0.0
C209 C 0.383 0.62572 0.92958 0.0
C210 C 0.36101 0.61243 0.78646 0.0
C211 C 0.37793 0.57226 0.93416 0.0
C212 C 0.37888 0.55745 0.95317 0.0
C213 C 0.38778 0.5488 0.91743 0.0
C214 C 0.38969 0.53499 0.93564 0.0
C215 C 0.38273 0.52933 0.9903 0.0
C216 C 0.3736 0.53799 1.02555 0.0
C217 C 0.37174 0.5519 1.00737 0.0
C218 C 0.33482 0.59923 0.92989 0.0
C219 C 0.35734 0.61227 0.06887 0.0
O220 O 0.33868 0.64168 0.87574 0.0
O221 O 0.34928 0.64984 0.96247 0.0
O222 O 0.37663 0.63749 0.92826 0.0
O223 O 0.37399 0.61634 0.92695 0.0
O224 O 0.3551 0.62303 0.81665 0.0
O225 O 0.36637 0.6018 0.81897 0.0
O226 O 0.37805 0.58164 0.98085 0.0
O227 O 0.37017 0.57568 0.88385 0.0
O228 O 0.34087 0.58726 0.93066 0.0
O229 O 0.34417 0.60822 0.92953 0.0
O230 O 0.36362 0.60187 0.03854 0.0
O231 O 0.35144 0.62265 0.03643 0.0
H232 H 0.32035 0.66718 0.85763 0.0
H233 H 0.32153 0.68972 0.80432 0.0
H234 H 0.36529 0.69119 0.842 0.0
H235 H 0.36404 0.66842 0.89374 0.0
H236 H 0.39343 0.5528 0.87549 0.0
H237 H 0.39662 0.5287 0.90639 0.0
H238 H 0.36811 0.53411 0.06817 0.0
H239 H 0.36485 0.55833 1.03608 0.0
Nd240 Nd 0.59499 0.65654 0.1441 0.0
Nd241 Nd 0.62825 0.6655 0.1475 0.0
C242 C 0.57165 0.64216 0.13882 0.0
C243 C 0.55722 0.64061 0.11498 0.0
C244 C 0.55057 0.62791 0.12389 0.0
C245 C 0.53682 0.62604 0.10475 0.0
C246 C 0.52922 0.63682 0.07562 0.0
C247 C 0.53599 0.64958 0.06634 0.0
C248 C 0.54981 0.65145 0.08587 0.0
C249 C 0.5988 0.68524 0.14189 0.0
C250 C 0.61174 0.66281 1.00456 0.0
C251 C 0.65207 0.67858 0.16181 0.0
C252 C 0.66565 0.67711 0.19609 0.0
C253 C 0.66801 0.68363 0.25714 0.0
C254 C 0.68096 0.68297 0.28785 0.0
C255 C 0.69201 0.67583 0.25837 0.0
C256 C 0.68961 0.66922 0.19743 0.0
C257 C 0.67666 0.66988 0.16669 0.0
C258 C 0.62497 0.63689 0.14648 0.0
C259 C 0.6115 0.65938 0.28708 0.0
O260 O 0.58179 0.64054 0.09669 0.0
O261 O 0.57424 0.65151 0.18388 0.0
O262 O 0.5868 0.67928 0.14054 0.0
O263 O 0.60772 0.67581 0.14317 0.0
O264 O 0.60114 0.65677 1.03432 0.0
O265 O 0.62224 0.66837 0.03744 0.0
O266 O 0.6412 0.68109 0.1984 0.0
O267 O 0.64939 0.67031 0.11214 0.0
O268 O 0.63676 0.64317 0.14815 0.0
O269 O 0.61565 0.646 0.14751 0.0
O270 O 0.62214 0.66522 0.25715 0.0
O271 O 0.60094 0.65397 0.25431 0.0
H272 H 0.55601 0.6194 0.14667 0.0
H273 H 0.53208 0.61615 0.11422 0.0
H274 H 0.53067 0.65813 0.04345 0.0
H275 H 0.55468 0.66137 0.07845 0.0
H276 H 0.65986 0.6894 0.28113 0.0
H277 H 0.68226 0.68805 0.33505 0.0
H278 H 0.69785 0.66378 0.17247 0.0
H279 H 0.67534 0.66488 0.11931 0.0
Nd280 Nd 0.66381 0.39267 0.93481 0.0
Nd281 Nd 0.65627 0.4246 0.93382 0.0
C282 C 0.67377 0.36734 0.91611 0.0
C283 C 0.67243 0.35461 0.87494 0.0
C284 C 0.68342 0.35035 0.83446 0.0
C285 C 0.68296 0.33771 0.80069 0.0
C286 C 0.67152 0.32887 0.80675 0.0
C287 C 0.66041 0.33328 0.84633 0.0
C288 C 0.66086 0.34595 0.87994 0.0
C289 C 0.63644 0.39865 0.95923 0.0
C290 C 0.65802 0.40816 0.79117 0.0
C291 C 0.64224 0.4482 0.93888 0.0
C292 C 0.64061 0.46268 0.9619 0.0
C293 C 0.62911 0.4702 0.94048 0.0
C294 C 0.62711 0.48394 0.95989 0.0
C295 C 0.63657 0.49065 1.00167 0.0
C296 C 0.64817 0.48305 1.02312 0.0
C297 C 0.65016 0.46923 1.00348 0.0
C298 C 0.68497 0.42131 0.93749 0.0
C299 C 0.66359 0.40904 0.07422 0.0
O300 O 0.67919 0.37835 0.88939 0.0
O301 O 0.66382 0.3703 0.95727 0.0
O302 O 0.6433 0.3887 0.98633 0.0
O303 O 0.64389 0.40485 0.91693 0.0
O304 O 0.66172 0.39686 0.82311 0.0
O305 O 0.65464 0.41968 0.82248 0.0
O306 O 0.64053 0.43814 0.98122 0.0
O307 O 0.65161 0.44547 0.89417 0.0
O308 O 0.67877 0.43318 0.93708 0.0
O309 O 0.67584 0.41211 0.93695 0.0
O310 O 0.65623 0.4187 0.04429 0.0
O311 O 0.66991 0.39915 0.04043 0.0
H312 H 0.69257 0.35667 0.83019 0.0
H313 H 0.6918 0.33467 0.77148 0.0
H314 H 0.65132 0.32692 0.8516 0.0
H315 H 0.6522 0.34881 0.91081 0.0
H316 H 0.62162 0.46543 0.90808 0.0
H317 H 0.61821 0.48936 0.941 0.0
H318 H 0.65565 0.48772 0.05577 0.0
H319 H 0.65914 0.46367 1.02074 0.0
Nd320 Nd 0.92494 0.65649 0.67552 0.0
Nd321 Nd 0.89152 0.66517 0.67234 0.0
C322 C 0.94842 0.64231 0.6804 0.0
C323 C 0.96277 0.64071 0.70533 0.0
C324 C 0.96878 0.62755 0.70484 0.0
C325 C 0.98254 0.62559 0.7238 0.0
C326 C 0.99078 0.63675 0.74436 0.0
C327 C 0.98463 0.64997 0.74557 0.0
C328 C 0.97082 0.65193 0.72613 0.0
C329 C 0.92076 0.68513 0.67802 0.0
C330 C 0.90816 0.6625 0.81534 0.0
C331 C 0.8677 0.67835 0.65967 0.0
C332 C 0.85416 0.67716 0.62554 0.0
C333 C 0.84856 0.68875 0.59396 0.0
C334 C 0.83562 0.68814 0.5634 0.0
C335 C 0.82782 0.67589 0.56361 0.0
C336 C 0.83355 0.66421 0.59469 0.0
C337 C 0.84654 0.66483 0.62522 0.0
C338 C 0.89519 0.63664 0.67136 0.0
C339 C 0.90833 0.6593 0.53263 0.0
O340 O 0.93812 0.64021 0.72107 0.0
O341 O 0.94589 0.65197 0.63685 0.0
O342 O 0.93285 0.67931 0.67898 0.0
O343 O 0.91197 0.6756 0.67714 0.0
O344 O 0.9189 0.65674 0.78537 0.0
O345 O 0.89749 0.66783 0.78271 0.0
O346 O 0.8785 0.68097 0.62288 0.0
O347 O 0.87036 0.66971 0.70781 0.0
O348 O 0.88329 0.64272 0.66888 0.0
O349 O 0.90436 0.64587 0.67182 0.0
O350 O 0.89764 0.66505 0.56273 0.0
O351 O 0.91896 0.65394 0.56522 0.0
H352 H 0.96286 0.61872 0.68844 0.0
H353 H 0.98678 0.61529 0.72067 0.0
H354 H 0.99044 0.65885 0.76184 0.0
H355 H 0.96647 0.66221 0.72693 0.0
H356 H 0.85421 0.69838 0.59324 0.0
H357 H 0.83177 0.69729 0.53913 0.0
H358 H 0.82788 0.65462 0.59668 0.0
H359 H 0.85055 0.6557 0.64907 0.0
Nd360 Nd 0.6648 0.12891 0.39198 0.0
Nd361 Nd 0.65621 0.0956 0.38838 0.0
C362 C 0.6776 0.15292 0.40519 0.0
C363 C 0.67588 0.1666 0.43831 0.0
C364 C 0.67723 0.16813 0.50716 0.0
C365 C 0.67637 0.18118 0.53697 0.0
C366 C 0.67415 0.19314 0.49893 0.0
C367 C 0.67266 0.19155 0.43011 0.0
C368 C 0.67356 0.1785 0.40033 0.0
C369 C 0.63625 0.12538 0.39051 0.0
C370 C 0.65865 0.11226 0.53139 0.0
C371 C 0.64224 0.07201 0.38234 0.0
C372 C 0.64158 0.05712 0.36392 0.0
C373 C 0.6346 0.04797 0.40595 0.0
C374 C 0.63264 0.03412 0.38822 0.0
C375 C 0.63762 0.02893 0.32775 0.0
C376 C 0.6449 0.03806 0.28617 0.0
C377 C 0.6468 0.05199 0.30387 0.0
C378 C 0.68486 0.0996 0.38779 0.0
C379 C 0.66201 0.11252 0.24906 0.0
O380 O 0.68015 0.14216 0.44242 0.0
O381 O 0.66943 0.15004 0.35551 0.0
O382 O 0.64241 0.13724 0.39305 0.0
O383 O 0.64541 0.11613 0.3913 0.0
O384 O 0.66453 0.12289 0.50163 0.0
O385 O 0.65327 0.10169 0.4984 0.0
O386 O 0.64217 0.08129 0.33537 0.0
O387 O 0.64965 0.07567 0.4335 0.0
O388 O 0.67899 0.08754 0.38672 0.0
O389 O 0.67538 0.10846 0.38814 0.0
O390 O 0.65587 0.10201 0.27898 0.0
O391 O 0.66778 0.12291 0.28194 0.0
H392 H 0.67915 0.15925 0.53817 0.0
H393 H 0.67777 0.18192 0.58987 0.0
H394 H 0.67073 0.20039 0.39898 0.0
H395 H 0.67255 0.17773 0.3472 0.0
H396 H 0.63041 0.05162 0.4524 0.0
H397 H 0.6272 0.02746 0.42222 0.0
H398 H 0.64882 0.03454 0.23903 0.0
H399 H 0.65215 0.05879 0.27015 0.0
Nd400 Nd 0.09479 0.36344 0.67885 0.0
Nd401 Nd 0.12805 0.35458 0.67552 0.0
C402 C 0.07121 0.37743 0.68599 0.0
C403 C 0.05672 0.37831 0.711 0.0
C404 C 0.0526 0.38992 0.74764 0.0
C405 C 0.03875 0.39191 0.76552 0.0
C406 C 0.02853 0.38234 0.74721 0.0
C407 C 0.03274 0.37052 0.71177 0.0
C408 C 0.04662 0.36856 0.69374 0.0
C409 C 0.09868 0.33475 0.68073 0.0
C410 C 0.11152 0.35742 0.81852 0.0
C411 C 0.15174 0.34112 0.66285 0.0
C412 C 0.16525 0.3423 0.6289 0.0
C413 C 0.17347 0.33052 0.62103 0.0
C414 C 0.18631 0.3313 0.58944 0.0
C415 C 0.1913 0.34392 0.56472 0.0
C416 C 0.18299 0.35574 0.57274 0.0
C417 C 0.1701 0.35493 0.60433 0.0
C418 C 0.1247 0.38317 0.67585 0.0
C419 C 0.11139 0.36073 0.53592 0.0
O420 O 0.08138 0.37916 0.72769 0.0
O421 O 0.07412 0.36858 0.63894 0.0
O422 O 0.08667 0.3407 0.68165 0.0
O423 O 0.10757 0.34419 0.68009 0.0
O424 O 0.10089 0.36334 0.78856 0.0
O425 O 0.12209 0.3519 0.7858 0.0
O426 O 0.14096 0.33875 0.62562 0.0
O427 O 0.14916 0.34984 0.71082 0.0
O428 O 0.13651 0.37692 0.67361 0.0
O429 O 0.11539 0.37406 0.67552 0.0
O430 O 0.12203 0.35488 0.56585 0.0
O431 O 0.10079 0.36613 0.56867 0.0
H432 H 0.06008 0.39769 0.76129 0.0
H433 H 0.03606 0.40102 0.79363 0.0
H434 H 0.02524 0.36296 0.69601 0.0
H435 H 0.04936 0.35955 0.66499 0.0
H436 H 0.16998 0.32067 0.63968 0.0
H437 H 0.19243 0.32201 0.58534 0.0
H438 H 0.18634 0.36561 0.55381 0.0
H439 H 0.16392 0.36417 0.60947 0.0
Nd440 Nd 0.35486 0.89181 0.39953 0.0
Nd441 Nd 0.36355 0.92517 0.39645 0.0
C442 C 0.34195 0.86788 0.41354 0.0
C443 C 0.34347 0.85431 0.44792 0.0
C444 C 0.33857 0.85243 0.51276 0.0
C445 C 0.33924 0.83947 0.54345 0.0
C446 C 0.34478 0.82795 0.51027 0.0
C447 C 0.34978 0.82988 0.44559 0.0
C448 C 0.34908 0.84283 0.41483 0.0
C449 C 0.3834 0.89537 0.39929 0.0
C450 C 0.36086 0.9086 0.53925 0.0
C451 C 0.37743 0.94879 0.38902 0.0
C452 C 0.37828 0.96324 0.36354 0.0
C453 C 0.38959 0.96715 0.3244 0.0
C454 C 0.3916 0.98096 0.30598 0.0
C455 C 0.38237 0.99137 0.32627 0.0
C456 C 0.37085 0.98737 0.36427 0.0
C457 C 0.36886 0.97353 0.38282 0.0
C458 C 0.33492 0.92117 0.39463 0.0
C459 C 0.35753 0.90833 0.2567 0.0
O460 O 0.33929 0.87878 0.44982 0.0
O461 O 0.3503 0.87058 0.36424 0.0
O462 O 0.37727 0.88349 0.40117 0.0
O463 O 0.37421 0.90459 0.39988 0.0
O464 O 0.35507 0.89794 0.50916 0.0
O465 O 0.36624 0.91921 0.50664 0.0
O466 O 0.37924 0.93853 0.34767 0.0
O467 O 0.36857 0.94594 0.43599 0.0
O468 O 0.34079 0.93321 0.39369 0.0
O469 O 0.34439 0.91229 0.39527 0.0
O470 O 0.36341 0.91899 0.28672 0.0
O471 O 0.35206 0.89774 0.28933 0.0
H472 H 0.33407 0.86095 0.53981 0.0
H473 H 0.33544 0.83851 0.5935 0.0
H474 H 0.35393 0.82128 0.41786 0.0
H475 H 0.35277 0.8438 0.36458 0.0
H476 H 0.39711 0.95953 0.30917 0.0
H477 H 0.40046 0.98348 0.2759 0.0
H478 H 0.36357 0.99501 0.38161 0.0
H479 H 0.36011 0.97097 0.41356 0.0
Nd480 Nd 0.92404 0.8632 0.63988 0.0
Nd481 Nd 0.89081 0.85448 0.64307 0.0
C482 C 0.9477 0.87702 0.63358 0.0
C483 C 0.96252 0.87734 0.61307 0.0
C484 C 0.96653 0.87844 0.54643 0.0
C485 C 0.98045 0.88035 0.52909 0.0
C486 C 0.99078 0.88128 0.57783 0.0
C487 C 0.98672 0.87996 0.64437 0.0
C488 C 0.97284 0.87805 0.6616 0.0
C489 C 0.92018 0.83453 0.63815 0.0
C490 C 0.90723 0.8574 0.50022 0.0
C491 C 0.86702 0.84134 0.65678 0.0
C492 C 0.85346 0.8427 0.69121 0.0
C493 C 0.84989 0.83335 0.7413 0.0
C494 C 0.83696 0.83396 0.77219 0.0
C495 C 0.82713 0.84392 0.75368 0.0
C496 C 0.83078 0.85338 0.70386 0.0
C497 C 0.84374 0.85277 0.67302 0.0
C498 C 0.89423 0.88305 0.64248 0.0
C499 C 0.90738 0.86073 0.78275 0.0
O500 O 0.93809 0.87775 0.58827 0.0
O501 O 0.94415 0.86931 0.68391 0.0
O502 O 0.93219 0.84046 0.63711 0.0
O503 O 0.91127 0.84397 0.63906 0.0
O504 O 0.91775 0.86347 0.53036 0.0
O505 O 0.89678 0.85167 0.53286 0.0
O506 O 0.87785 0.8388 0.69344 0.0
O507 O 0.8697 0.84972 0.60762 0.0
O508 O 0.88239 0.87686 0.64482 0.0
O509 O 0.9035 0.87391 0.64285 0.0
O510 O 0.89678 0.85484 0.7528 0.0
O511 O 0.91797 0.8661 0.74994 0.0
H512 H 0.95889 0.87808 0.50756 0.0
H513 H 0.98309 0.88113 0.4773 0.0
H514 H 0.9942 0.88084 0.68368 0.0
H515 H 0.97013 0.87751 0.71343 0.0
H516 H 0.8571 0.82542 0.75634 0.0
H517 H 0.83472 0.82662 0.81092 0.0
H518 H 0.82349 0.86109 0.68743 0.0
H519 H 0.84605 0.86011 0.63437 0.0
Nd520 Nd 0.85427 0.12879 0.42469 0.0
Nd521 Nd 0.86281 0.09546 0.42813 0.0
C522 C 0.84138 0.15276 0.41078 0.0
C523 C 0.8429 0.16633 0.37643 0.0
C524 C 0.83624 0.16876 0.31584 0.0
C525 C 0.83693 0.18171 0.28516 0.0
C526 C 0.84422 0.1927 0.31424 0.0
C527 C 0.85096 0.19022 0.37469 0.0
C528 C 0.85027 0.17726 0.40539 0.0
C529 C 0.88281 0.12517 0.42521 0.0
C530 C 0.86035 0.112 0.28517 0.0
C531 C 0.87647 0.07166 0.43489 0.0
C532 C 0.87684 0.05694 0.45731 0.0
C533 C 0.88336 0.05325 0.51683 0.0
C534 C 0.88536 0.03933 0.53381 0.0
C535 C 0.88103 0.02862 0.49154 0.0
C536 C 0.87425 0.03235 0.43266 0.0
C537 C 0.87223 0.04625 0.41576 0.0
C538 C 0.83417 0.09954 0.43 0.0
C539 C 0.857 0.11242 0.56765 0.0
O540 O 0.83875 0.1419 0.3743 0.0
O541 O 0.84969 0.15001 0.46009 0.0
O542 O 0.87668 0.13705 0.4229 0.0
O543 O 0.87362 0.11595 0.42486 0.0
O544 O 0.85452 0.12268 0.31505 0.0
O545 O 0.86569 0.10141 0.31803 0.0
O546 O 0.87768 0.08154 0.47881 0.0
O547 O 0.8684 0.07506 0.38563 0.0
O548 O 0.84005 0.08749 0.43125 0.0
O549 O 0.84365 0.10839 0.42887 0.0
O550 O 0.86298 0.1018 0.53768 0.0
O551 O 0.85139 0.12292 0.53488 0.0
H552 H 0.83036 0.16067 0.29222 0.0
H553 H 0.83175 0.18308 0.23833 0.0
H554 H 0.85652 0.19841 0.39932 0.0
H555 H 0.85538 0.17589 0.45242 0.0
H556 H 0.8873 0.06114 0.54959 0.0
H557 H 0.89076 0.037 0.57915 0.0
H558 H 0.87054 0.02449 0.39911 0.0
H559 H 0.86732 0.04861 0.36913 0.0
Nd560 Nd 0.09451 0.15653 0.64346 0.0
Nd561 Nd 0.12781 0.1652 0.64662 0.0
C562 C 0.07091 0.14262 0.63677 0.0
C563 C 0.0565 0.14152 0.61128 0.0
C564 C 0.05231 0.1293 0.57991 0.0
C565 C 0.0385 0.12721 0.56183 0.0
C566 C 0.02838 0.13729 0.5746 0.0
C567 C 0.03267 0.14971 0.60463 0.0
C568 C 0.04651 0.15177 0.62296 0.0
C569 C 0.09855 0.18519 0.64091 0.0
C570 C 0.1113 0.16248 0.50371 0.0
C571 C 0.15162 0.17832 0.66045 0.0
C572 C 0.16516 0.17701 0.69483 0.0
C573 C 0.169 0.18687 0.74223 0.0
C574 C 0.18192 0.18629 0.77308 0.0
C575 C 0.19148 0.17585 0.75722 0.0
C576 C 0.18756 0.16589 0.71008 0.0
C577 C 0.1746 0.16647 0.6793 0.0
C578 C 0.12437 0.13663 0.64655 0.0
C579 C 0.11104 0.15925 0.78634 0.0
O580 O 0.0812 0.14061 0.59588 0.0
O581 O 0.07367 0.15177 0.68259 0.0
O582 O 0.0865 0.17934 0.63981 0.0
O583 O 0.10738 0.17569 0.64211 0.0
O584 O 0.10063 0.15663 0.53371 0.0
O585 O 0.12189 0.16793 0.53636 0.0
O586 O 0.14077 0.18088 0.69714 0.0
O587 O 0.14896 0.1699 0.61133 0.0
O588 O 0.1362 0.14283 0.64863 0.0
O589 O 0.11508 0.14578 0.64683 0.0
O590 O 0.12171 0.165 0.75627 0.0
O591 O 0.10042 0.15391 0.75372 0.0
H592 H 0.0597 0.12116 0.57061 0.0
H593 H 0.03576 0.11762 0.53789 0.0
H594 H 0.02524 0.1577 0.61592 0.0
H595 H 0.04932 0.16128 0.64752 0.0
H596 H 0.16201 0.19515 0.75521 0.0
H597 H 0.18438 0.19403 0.80975 0.0
H598 H 0.19462 0.15779 0.69573 0.0
H599 H 0.17206 0.15872 0.64279 0.0
Nd600 Nd 0.16425 0.89198 0.43334 0.0
Nd601 Nd 0.15695 0.92406 0.43271 0.0
C602 C 0.17408 0.86658 0.41566 0.0
C603 C 0.17366 0.85417 0.37233 0.0
C604 C 0.18569 0.84635 0.36336 0.0
C605 C 0.18539 0.83385 0.32847 0.0
C606 C 0.17301 0.82877 0.30154 0.0
C607 C 0.16101 0.83682 0.30934 0.0
C608 C 0.16133 0.84936 0.34427 0.0
C609 C 0.137 0.89826 0.45841 0.0
C610 C 0.15859 0.90765 0.29 0.0
C611 C 0.14347 0.94796 0.44003 0.0
C612 C 0.14246 0.96238 0.46596 0.0
C613 C 0.13057 0.96649 0.50048 0.0
C614 C 0.12847 0.98034 0.51838 0.0
C615 C 0.13818 0.99058 0.50222 0.0
C616 C 0.15028 0.98637 0.46905 0.0
C617 C 0.15237 0.9725 0.45098 0.0
C618 C 0.1856 0.92045 0.43675 0.0
C619 C 0.16395 0.90825 0.57314 0.0
O620 O 0.18037 0.87763 0.39421 0.0
O621 O 0.16305 0.86946 0.45002 0.0
O622 O 0.1438 0.8883 0.4857 0.0
O623 O 0.14445 0.9044 0.41589 0.0
O624 O 0.16229 0.89632 0.32178 0.0
O625 O 0.15522 0.91917 0.32138 0.0
O626 O 0.14113 0.93761 0.48004 0.0
O627 O 0.15272 0.94511 0.39485 0.0
O628 O 0.17955 0.93239 0.43637 0.0
O629 O 0.17636 0.91137 0.43588 0.0
O630 O 0.15685 0.91809 0.54306 0.0
O631 O 0.1701 0.89821 0.53961 0.0
H632 H 0.19531 0.84974 0.38496 0.0
H633 H 0.19482 0.82795 0.32452 0.0
H634 H 0.15132 0.83343 0.28859 0.0
H635 H 0.15188 0.85516 0.35028 0.0
H636 H 0.12268 0.95901 0.51228 0.0
H637 H 0.11913 0.98301 0.54473 0.0
H638 H 0.15797 0.99388 0.45498 0.0
H639 H 0.16159 0.96979 0.42384 0.0
H640 H 0.36348 0.01157 0.29378 0.0
H641 H 0.36773 0.03581 0.26763 0.0
H642 H 0.41128 0.02951 0.29434 0.0
H643 H 0.40713 1.00529 0.32069 0.0
H644 H 0.37897 0.05627 0.34126 0.0
H645 H 0.41125 0.04883 0.11801 0.0
H646 H 0.4015 0.03498 0.15463 0.0
H647 H 0.41765 0.04021 0.19007 0.0
C648 C 0.37398 0.0153 0.29432 0.0
C649 C 0.38494 1.00628 0.30914 0.0
C650 C 0.37641 0.02922 0.27897 0.0
C651 C 0.38987 0.03459 0.27765 0.0
C652 C 0.40082 0.02566 0.29299 0.0
H653 H 0.41741 0.12119 0.20759 0.0
H654 H 0.41767 0.09631 0.23417 0.0
C655 C 0.39841 0.01173 0.30821 0.0
C656 C 0.3923 0.04958 0.26258 0.0
H657 H 0.4089 0.07174 0.15715 0.0
C658 C 0.38554 0.05959 0.30098 0.0
C659 C 0.40096 0.0541 0.21035 0.0
C660 C 0.40817 0.04399 0.16545 0.0
C661 C 0.38707 0.07381 0.28856 0.0
C662 C 0.39546 0.07831 0.23551 0.0
C663 C 0.40252 0.06836 0.19798 0.0
C664 C 0.39595 0.09319 0.21526 0.0
C665 C 0.37964 0.08393 0.3326 0.0
C666 C 0.38386 0.09967 0.19377 0.0
C667 C 0.38373 0.11372 0.17853 0.0
C668 C 0.3957 0.12182 0.18388 0.0
C669 C 0.40802 0.11528 0.20285 0.0
C670 C 0.40815 0.10106 0.21821 0.0
H671 H 0.37699 0.07929 0.38108 0.0
H672 H 0.38597 0.09328 0.34121 0.0
H673 H 0.36991 0.08713 0.30843 0.0
H674 H 0.37437 0.09387 0.18966 0.0
H675 H 0.37405 0.11832 0.16365 0.0
H676 H 0.01303 0.65422 0.7262 0.0
H677 H 0.03719 0.65035 0.75491 0.0
H678 H 0.02699 0.61033 0.83208 0.0
H679 H 1.00274 0.61423 0.80579 0.0
H680 H 0.04877 0.64366 0.88529 0.0
H681 H 0.05933 0.6027 0.69972 0.0
H682 H 0.04493 0.61439 0.6923 0.0
H683 H 0.04434 0.60057 0.75094 0.0
C684 C 0.0158 0.64464 0.75002 0.0
C685 C 1.0057 0.63455 0.76313 0.0
C686 C 0.02972 0.64239 0.76596 0.0
C687 C 0.03404 0.62994 0.79477 0.0
C688 C 0.02404 0.6199 0.80862 0.0
H689 H 0.1196 0.60282 0.89311 0.0
H690 H 0.09437 0.60267 0.87555 0.0
C691 C 0.0101 0.62218 0.79323 0.0
C692 C 0.04892 0.62766 0.81184 0.0
H693 H 0.07757 0.60878 0.77074 0.0
C694 C 0.05503 0.63601 0.86028 0.0
C695 C 0.05714 0.61751 0.78026 0.0
C696 C 0.0512 0.60829 0.72757 0.0
C697 C 0.06904 0.63461 0.87749 0.0
C698 C 0.07747 0.6249 0.84379 0.0
C699 C 0.07125 0.61626 0.79662 0.0
C700 C 0.09285 0.62446 0.85326 0.0
C701 C 0.07458 0.64352 0.93246 0.0
C702 C 0.10057 0.63654 0.84489 0.0
C703 C 0.11478 0.63665 0.85557 0.0
C704 C 0.12195 0.62462 0.87364 0.0
C705 C 0.11441 0.61229 0.87967 0.0
C706 C 0.09998 0.61222 0.86957 0.0
H707 H 0.06633 0.64634 0.96806 0.0
H708 H 0.08297 0.63827 0.9598 0.0
H709 H 0.07867 0.65323 0.91129 0.0
H710 H 0.09557 0.64602 0.83 0.0
H711 H 0.12019 0.64632 0.84932 0.0
H712 H 0.64475 0.90216 0.15691 0.0
H713 H 0.64434 0.92682 0.17893 0.0
H714 H 0.60168 0.92407 0.23615 0.0
H715 H 0.60209 0.89902 0.21432 0.0
H716 H 0.62892 0.94806 0.12665 0.0
H717 H 0.61913 0.94333 0.39607 0.0
H718 H 0.62417 0.92879 0.34585 0.0
H719 H 0.60681 0.93515 0.34275 0.0
C720 C 0.6352 0.90676 0.17377 0.0
C721 C 0.62345 0.89853 0.18394 0.0
C722 C 0.635 0.92094 0.18638 0.0
C723 C 0.62307 0.92743 0.21026 0.0
C724 C 0.61112 0.91934 0.21892 0.0
H725 H 0.6142 0.01337 0.34695 0.0
H726 H 0.61004 0.98933 0.31679 0.0
C727 C 0.6113 0.90502 0.2058 0.0
C728 C 0.62351 0.94257 0.22621 0.0
H729 H 0.62192 0.96573 0.35392 0.0
C730 C 0.6273 0.95191 0.17634 0.0
C731 C 0.62142 0.94773 0.29096 0.0
C732 C 0.61776 0.93827 0.3473 0.0
C733 C 0.62909 0.9661 0.18923 0.0
C734 C 0.62743 0.97121 0.25442 0.0
C735 C 0.6233 0.96192 0.30401 0.0
C736 C 0.63004 0.98606 0.27232 0.0
C737 C 0.63258 0.97549 0.13234 0.0
C738 C 0.64275 0.99242 0.25839 0.0
C739 C 0.64517 1.00627 0.27559 0.0
C740 C 0.63502 0.01415 0.30819 0.0
C741 C 0.62236 1.00769 0.32267 0.0
C742 C 0.61993 0.99388 0.30514 0.0
H743 H 0.62919 0.97104 0.08447 0.0
H744 H 0.62773 0.98577 0.13842 0.0
H745 H 0.64391 0.97686 0.12992 0.0
H746 H 0.65093 0.98662 0.23494 0.0
H747 H 0.65512 0.01071 0.26453 0.0
H748 H 0.90133 0.37465 0.90574 0.0
H749 H 0.92581 0.3749 0.88057 0.0
H750 H 0.9236 0.41839 0.839 0.0
H751 H 0.89873 0.4182 0.86499 0.0
H752 H 0.93768 0.38149 0.76066 0.0
H753 H 0.95788 0.41568 0.95841 0.0
H754 H 0.94096 0.40804 0.96259 0.0
H755 H 0.94404 0.42246 0.90929 0.0
C756 C 0.90601 0.38436 0.892 0.0
C757 C 0.89799 0.39642 0.88753 0.0
C758 C 0.92009 0.38446 0.87739 0.0
C759 C 0.92672 0.39664 0.858 0.0
C760 C 0.91884 0.40886 0.85473 0.0
H761 H 0.01419 0.40695 0.74787 0.0
H762 H 0.98985 0.41093 0.77284 0.0
C763 C 0.9046 0.40876 0.86949 0.0
C764 C 0.94166 0.39604 0.83855 0.0
H765 H 0.97402 0.40669 0.88268 0.0
C766 C 0.9456 0.38706 0.78728 0.0
C767 C 0.9521 0.40332 0.87275 0.0
C768 C 0.94863 0.41286 0.92918 0.0
C769 C 0.95952 0.38507 0.76978 0.0
C770 C 0.97002 0.39198 0.80541 0.0
C771 C 0.96608 0.40127 0.85551 0.0
C772 C 0.98507 0.38954 0.79184 0.0
C773 C 0.96281 0.37568 0.71247 0.0
C774 C 0.99077 0.37621 0.79517 0.0
C775 C 1.00476 0.37388 0.78098 0.0
C776 C 0.01356 0.38484 0.76364 0.0
C777 C 1.00788 0.39823 0.76165 0.0
C778 C 0.99387 0.40054 0.77571 0.0
H779 H 0.9539 0.37465 0.67847 0.0
H780 H 0.97178 0.37951 0.68391 0.0
H781 H 0.9653 0.36526 0.7315 0.0
H782 H 0.98439 0.36755 0.8092 0.0
H783 H 1.0087 0.36347 0.78446 0.0
H784 H 0.41657 0.39954 0.11388 0.0
H785 H 0.41712 0.42467 0.09383 0.0
H786 H 0.37341 0.42681 0.1294 0.0
H787 H 0.37286 0.40217 0.14997 0.0
H788 H 0.40311 0.44035 0.99866 0.0
H789 H 0.38691 0.45758 0.24686 0.0
H790 H 0.39282 0.44025 0.23088 0.0
H791 H 0.3753 0.44508 0.2131 0.0
C792 C 0.40716 0.40544 0.11831 0.0
C793 C 0.3947 0.3988 0.13407 0.0
C794 C 0.40744 0.41981 0.10658 0.0
C795 C 0.39532 0.42781 0.11119 0.0
C796 C 0.38298 0.42109 0.12708 0.0
H797 H 0.36394 0.51025 0.03677 0.0
H798 H 0.36792 0.48608 0.06598 0.0
C799 C 0.38268 0.40688 0.13852 0.0
C800 C 0.39517 0.44303 0.09698 0.0
H801 H 0.38419 0.474 0.15946 0.0
C802 C 0.39918 0.44773 1.03421 0.0
C803 C 0.38997 0.45278 0.14296 0.0
C804 C 0.38613 0.4487 0.21242 0.0
C805 C 0.39757 0.46167 1.01537 0.0
C806 C 0.39201 0.47135 0.06084 0.0
C807 C 0.38834 0.46668 0.12414 0.0
C808 C 0.38971 0.48627 0.04359 0.0
C809 C 0.40132 0.46576 0.94581 0.0
C810 C 0.40062 0.49469 1.02236 0.0
C811 C 0.39837 0.50857 1.00564 0.0
C812 C 0.38514 0.51454 1.01014 0.0
C813 C 0.37428 0.50615 1.03294 0.0
C814 C 0.37655 0.49225 0.04946 0.0
H815 H 0.40182 0.45669 0.91236 0.0
H816 H 0.39377 0.47323 0.92551 0.0
H817 H 0.41161 0.47071 0.94598 0.0
H818 H 0.41096 0.49058 1.01919 0.0
H819 H 0.40709 0.51468 0.98989 0.0
H820 H 0.51665 0.61325 1.02742 0.0
H821 H 0.49242 0.60964 0.99982 0.0
H822 H 0.48351 0.65184 0.05003 0.0
H823 H 0.50764 0.6555 0.07963 0.0
H824 H 0.46812 0.61315 0.08055 0.0
H825 H 0.46738 0.64747 0.862 0.0
H826 H 0.48318 0.64118 0.89795 0.0
H827 H 0.47408 0.65526 0.93576 0.0
C828 C 0.50958 0.62179 1.0334 0.0
C829 C 0.51433 0.63472 0.05609 0.0
C830 C 0.49566 0.61969 1.01713 0.0
C831 C 0.48605 0.63047 1.02212 0.0
C832 C 0.4907 0.64338 0.04458 0.0
H833 H 0.40047 0.6467 0.95283 0.0
H834 H 0.42504 0.64623 0.97389 0.0
C835 C 0.50461 0.64548 0.06129 0.0
C836 C 0.47119 0.62823 1.00429 0.0
H837 H 0.4458 0.63936 0.90016 0.0
C838 C 0.46325 0.61881 0.0408 0.0
C839 C 0.46478 0.63551 0.95218 0.0
C840 C 0.47278 0.64534 0.9092 0.0
C841 C 0.44901 0.61697 1.02873 0.0
C842 C 0.4425 0.62448 0.97737 0.0
C843 C 0.45062 0.63358 0.93964 0.0
C844 C 0.42718 0.62412 0.96523 0.0
C845 C 0.44098 0.60745 0.07316 0.0
C846 C 0.41982 0.61181 0.95296 0.0
C847 C 0.40544 0.61202 0.94143 0.0
C848 C 0.39819 0.62459 0.94099 0.0
C849 C 0.40564 0.6368 0.95256 0.0
C850 C 0.41981 0.63657 0.96459 0.0
H851 H 0.44663 0.60515 0.11952 0.0
H852 H 0.43082 0.61196 0.08615 0.0
H853 H 0.43918 0.59755 0.04708 0.0
H854 H 0.42519 0.60204 0.95151 0.0
H855 H 0.40006 0.60244 0.93241 0.0
H856 H 0.64596 0.61882 0.138 0.0
H857 H 0.64546 0.59419 0.11771 0.0
H858 H 0.60109 0.59513 0.1143 0.0
H859 H 0.60157 0.62028 0.13323 0.0
H860 H 0.63578 0.57342 0.18743 0.0
H861 H 0.60861 0.57407 0.94634 0.0
H862 H 0.61502 0.58958 0.98469 0.0
H863 H 0.59933 0.58183 1.01354 0.0
C864 C 0.63602 0.61388 0.13291 0.0
C865 C 0.62379 0.62164 0.13702 0.0
C866 C 0.63577 0.59968 0.12132 0.0
C867 C 0.62328 0.59262 0.11343 0.0
C868 C 0.61092 0.60027 0.11863 0.0
H869 H 0.61203 0.50401 1.02855 0.0
H870 H 0.60827 0.52821 0.05702 0.0
C871 C 0.61117 0.61466 0.13004 0.0
C872 C 0.62359 0.57732 0.10069 0.0
H873 H 0.61504 0.55233 0.98806 0.0
C874 C 0.63118 0.56885 0.14385 0.0
C875 C 0.61762 0.57117 0.04395 0.0
C876 C 0.60978 0.57961 0.99406 0.0
C877 C 0.6331 0.55466 0.13167 0.0
C878 C 0.62743 0.54859 0.07416 0.0
C879 C 0.61948 0.55692 1.03197 0.0
C880 C 0.62983 0.53371 0.05659 0.0
C881 C 0.64114 0.54626 0.18097 0.0
C882 C 0.64321 0.52858 0.04609 0.0
C883 C 0.64543 0.51468 1.02917 0.0
C884 C 0.6343 0.50547 1.02188 0.0
C885 C 0.6209 0.5107 1.03251 0.0
C886 C 0.6187 0.5246 0.04921 0.0
H887 H 0.64149 0.55135 0.2301 0.0
H888 H 0.63663 0.53582 0.18685 0.0
H889 H 0.65189 0.54507 0.16319 0.0
H890 H 0.652 0.53539 0.05002 0.0
H891 H 0.65588 0.51125 1.02034 0.0
H892 H 0.50106 0.3948 0.96138 0.0
H893 H 0.52542 0.39884 0.93706 0.0
H894 H 0.5367 0.37837 0.1176 0.0
H895 H 0.51243 0.37444 0.14285 0.0
H896 H 0.54587 0.4131 1.00641 0.0
H897 H 0.56021 0.3581 0.98213 0.0
H898 H 0.54252 0.36382 0.98295 0.0
H899 H 0.55189 0.36203 0.05904 0.0
C900 C 0.50867 0.3912 0.99631 0.0
C901 C 0.50459 0.38417 0.0541 0.0
C902 C 0.52267 0.3935 0.98208 0.0
C903 C 0.53304 0.38875 1.02483 0.0
C904 C 0.52901 0.38187 0.08281 0.0
H905 H 0.62134 0.38806 0.05878 0.0
H906 H 0.59642 0.38686 0.07025 0.0
C907 C 0.51503 0.37959 0.09714 0.0
C908 C 0.54801 0.39104 1.00934 0.0
H909 H 0.57867 0.37411 0.98905 0.0
C910 C 0.55302 0.40457 1.00204 0.0
C911 C 0.55744 0.37996 1.00308 0.0
C912 C 0.55275 0.36515 1.00653 0.0
C913 C 0.56717 0.40729 0.99168 0.0
C914 C 0.57665 0.3962 0.9872 0.0
C915 C 0.57154 0.38268 0.99273 0.0
C916 C 0.59196 0.39821 0.98103 0.0
C917 C 0.57193 0.42206 0.98823 0.0
C918 C 0.59804 0.40525 0.92743 0.0
C919 C 0.61252 0.40606 0.92093 0.0
C920 C 0.62118 0.39971 0.96755 0.0
C921 C 0.61503 0.39303 1.02171 0.0
C922 C 0.6007 0.39229 1.02832 0.0
H923 H 0.56404 0.4293 1.00781 0.0
H924 H 0.58162 0.42351 1.01639 0.0
H925 H 0.57395 0.42481 0.93597 0.0
H926 H 0.59163 0.40974 0.88947 0.0
H927 H 0.61689 0.41119 0.87835 0.0
H928 H 0.8659 0.50879 0.75665 0.0
H929 H 0.87013 0.53289 0.72685 0.0
H930 H 0.90805 0.53228 0.83687 0.0
H931 H 0.90406 0.50814 0.86577 0.0
H932 H 0.87315 0.5556 0.812 0.0
H933 H 0.92036 0.54894 0.66056 0.0
H934 H 0.9092 0.53472 0.68142 0.0
H935 H 0.92107 0.54138 0.7414 0.0
C936 C 0.87525 0.51369 0.77385 0.0
C937 C 0.88461 0.50638 0.81378 0.0
C938 C 0.87762 0.52755 0.75699 0.0
C939 C 0.88952 0.53447 0.77873 0.0
C940 C 0.89891 0.5272 0.81833 0.0
H941 H 0.91643 0.62139 0.72793 0.0
H942 H 0.91595 0.59657 0.75501 0.0
C943 C 0.89651 0.51338 0.83555 0.0
C944 C 0.89174 0.54941 0.76239 0.0
H945 H 0.91345 0.57189 0.68328 0.0
C946 C 0.88196 0.55912 0.78371 0.0
C947 C 0.90332 0.55416 0.72621 0.0
C948 C 0.91406 0.54428 0.70051 0.0
C949 C 0.8834 0.57329 0.77013 0.0
C950 C 0.89477 0.57803 0.73234 0.0
C951 C 0.90471 0.56836 0.71203 0.0
C952 C 0.89599 0.59282 0.71095 0.0
C953 C 0.87276 0.5831 0.79757 0.0
C954 C 0.8853 0.59894 0.6747 0.0
C955 C 0.88556 0.613 0.6596 0.0
C956 C 0.89664 0.62141 0.67901 0.0
C957 C 0.9078 0.6152 0.7118 0.0
C958 C 0.90747 0.60102 0.72761 0.0
H959 H 0.86756 0.57874 0.84171 0.0
H960 H 0.87744 0.59313 0.81139 0.0
H961 H 0.86476 0.585 0.75959 0.0
H962 H 0.87651 0.59287 0.65929 0.0
H963 H 0.87683 0.6174 0.63388 0.0
H964 H 0.62044 0.10233 0.35722 0.0
H965 H 0.59553 0.10206 0.33127 0.0
H966 H 0.59306 0.14542 0.37578 0.0
H967 H 0.61752 0.14575 0.40125 0.0
H968 H 0.57104 0.11104 0.40961 0.0
H969 H 0.57826 0.14254 0.18444 0.0
H970 H 0.59228 0.13352 0.22389 0.0
H971 H 0.58628 0.14968 0.25659 0.0
C972 C 0.61451 0.11173 0.3621 0.0
C973 C 0.62104 0.12407 0.38095 0.0
C974 C 0.60028 0.1116 0.3471 0.0
C975 C 0.5924 0.12381 0.35027 0.0
C976 C 0.59888 0.13593 0.37156 0.0
H977 H 0.51087 0.15667 0.27475 0.0
H978 H 0.53512 0.15228 0.29967 0.0
C979 C 0.61293 0.13606 0.38646 0.0
C980 C 0.5775 0.12429 0.33052 0.0
H981 H 0.55533 0.14074 0.2253 0.0
C982 C 0.56761 0.11736 0.36871 0.0
C983 C 0.57292 0.13262 0.27742 0.0
C984 C 0.58298 0.13993 0.23277 0.0
C985 C 0.55333 0.11898 0.35697 0.0
C986 C 0.54875 0.12759 0.3047 0.0
C987 C 0.5587 0.13422 0.26561 0.0
C988 C 0.53375 0.13011 0.29035 0.0
C989 C 0.5433 0.11192 0.40257 0.0
C990 C 0.52473 0.11919 0.27582 0.0
C991 C 0.51079 0.12169 0.26132 0.0
C992 C 0.50542 0.13521 0.26032 0.0
C993 C 0.51453 0.14614 0.27431 0.0
C994 C 0.52846 0.14362 0.28894 0.0
H995 H 0.54822 0.10889 0.44985 0.0
H996 H 0.53436 0.11868 0.41367 0.0
H997 H 0.53941 0.10243 0.37841 0.0
H998 H 0.52851 0.1087 0.27456 0.0
H999 H 0.50427 0.11299 0.24947 0.0
H1000 H 0.11316 0.51485 0.82318 0.0
H1001 H 0.10921 0.49045 0.79916 0.0
H1002 H 0.15233 0.48523 0.75566 0.0
H1003 H 0.15638 0.5096 0.77944 0.0
H1004 H 0.11282 0.47455 0.68896 0.0
H1005 H 0.1464 0.45475 0.88776 0.0
H1006 H 0.14138 0.47261 0.88292 0.0
H1007 H 0.15532 0.46617 0.83295 0.0
C1008 C 0.12183 0.50858 0.80803 0.0
C1009 C 0.13514 0.51435 0.80376 0.0
C1010 C 0.11954 0.49454 0.79451 0.0
C1011 C 0.13048 0.48579 0.77666 0.0
C1012 C 0.14373 0.49157 0.77105 0.0
H1013 H 0.1451 0.40177 0.6633 0.0
H1014 H 0.14492 0.42632 0.68737 0.0
C1015 C 0.14604 0.50559 0.7847 0.0
C1016 C 0.12808 0.47069 0.7637 0.0
H1017 H 0.13909 0.43842 0.80718 0.0
C1018 C 0.11848 0.46665 0.7153 0.0
C1019 C 0.1353 0.46025 0.79826 0.0
C1020 C 0.14507 0.46363 0.85384 0.0
C1021 C 0.1164 0.45263 0.69866 0.0
C1022 C 0.12398 0.44225 0.73177 0.0
C1023 C 0.13329 0.44629 0.78136 0.0
C1024 C 0.12333 0.42726 0.71289 0.0
C1025 C 0.10651 0.44908 0.64398 0.0
C1026 C 0.11116 0.41937 0.71811 0.0
C1027 C 0.11122 0.40509 0.70394 0.0
C1028 C 0.12347 0.39844 0.68459 0.0
C1029 C 0.13546 0.40647 0.67811 0.0
C1030 C 0.1354 0.42059 0.69209 0.0
H1031 H 0.1035 0.45828 0.61483 0.0
H1032 H 0.1111 0.44132 0.61012 0.0
H1033 H 0.09704 0.44455 0.66564 0.0
H1034 H 0.10171 0.42415 0.73496 0.0
H1035 H 0.10184 0.39921 0.71003 0.0
H1036 H 0.51437 0.90714 0.24364 0.0
H1037 H 0.4903 0.9114 0.27324 0.0
H1038 H 0.48542 0.86859 0.32388 0.0
H1039 H 0.50958 0.8643 0.29617 0.0
H1040 H 0.46607 0.90055 0.22332 0.0
H1041 H 0.47061 0.8876 0.48841 0.0
H1042 H 0.48546 0.89038 0.43644 0.0
H1043 H 0.47661 0.8741 0.43498 0.0
C1044 C 0.50827 0.89863 0.26193 0.0
C1045 C 0.51411 0.88536 0.26793 0.0
C1046 C 0.49441 0.90108 0.2784 0.0
C1047 C 0.48598 0.8904 0.30196 0.0
C1048 C 0.4917 0.87711 0.30716 0.0
H1049 H 0.40222 0.87512 0.41152 0.0
H1050 H 0.42681 0.87567 0.38917 0.0
C1051 C 0.50554 0.87463 0.29048 0.0
C1052 C 0.4712 0.89308 0.32016 0.0
H1053 H 0.44784 0.88969 0.44589 0.0
C1054 C 0.46212 0.89831 0.27221 0.0
C1055 C 0.46595 0.89028 0.38408 0.0
C1056 C 0.47518 0.88541 0.43918 0.0
C1057 C 0.44794 0.90019 0.28542 0.0
C1058 C 0.44262 0.897 0.34883 0.0
C1059 C 0.4518 0.89215 0.39725 0.0
C1060 C 0.42747 0.89732 0.36436 0.0
C1061 C 0.43866 0.90498 0.23038 0.0
C1062 C 0.41943 0.9094 0.35935 0.0
C1063 C 0.40512 0.90913 0.37246 0.0
C1064 C 0.39863 0.89675 0.39084 0.0
C1065 C 0.40681 0.88485 0.39736 0.0
C1066 C 0.42096 0.88513 0.38457 0.0
H1067 H 0.44376 0.90426 0.1814 0.0
H1068 H 0.42904 0.8988 0.22904 0.0
H1069 H 0.43579 0.9159 0.23897 0.0
H1070 H 0.42418 0.91904 0.34515 0.0
H1071 H 0.39915 0.91847 0.36695 0.0
H1072 H 0.87427 0.90196 0.66132 0.0
H1073 H 0.87442 0.92645 0.6357 0.0
H1074 H 0.91691 0.92358 0.5759 0.0
H1075 H 0.91686 0.8987 0.60248 0.0
H1076 H 0.91034 0.94823 0.65082 0.0
H1077 H 0.87357 0.94077 0.44542 0.0
H1078 H 0.86759 0.93361 0.52184 0.0
H1079 H 0.88273 0.92662 0.48297 0.0
C1080 C 0.88374 0.90649 0.64325 0.0
C1081 C 0.89554 0.89829 0.63361 0.0
C1082 C 0.88376 0.92056 0.62821 0.0
C1083 C 0.89555 0.92692 0.60234 0.0
C1084 C 0.90762 0.91893 0.59528 0.0
H1085 H 0.88826 1.00751 0.40689 0.0
H1086 H 0.89283 0.98336 0.43281 0.0
C1087 C 0.90761 0.90471 0.61066 0.0
C1088 C 0.89488 0.94176 0.58149 0.0
H1089 H 0.87667 0.96387 0.48283 0.0
C1090 C 0.90307 0.95164 0.61363 0.0
C1091 C 0.88553 0.94631 0.53235 0.0
C1092 C 0.87695 0.93627 0.49314 0.0
C1093 C 0.90182 0.96587 0.59969 0.0
C1094 C 0.89194 0.97047 0.55296 0.0
C1095 C 0.88412 0.96051 0.51924 0.0
C1096 C 0.88951 0.98547 0.53795 0.0
C1097 C 0.91123 0.97582 0.63477 0.0
C1098 C 0.88592 0.9949 0.58798 0.0
C1099 C 0.88322 1.00881 0.57319 0.0
C1100 C 0.88389 0.01371 0.50774 0.0
C1101 C 0.88742 1.00421 0.45774 0.0
C1102 C 0.89014 0.99032 0.4726 0.0
H1103 H 0.92072 0.97062 0.65259 0.0
H1104 H 0.91423 0.98447 0.60202 0.0
H1105 H 0.9058 0.98013 0.67837 0.0
H1106 H 0.88494 0.99146 0.63858 0.0
H1107 H 0.88033 0.01566 0.61308 0.0
H1108 H 1.00908 0.15556 0.52557 0.0
H1109 H 0.98486 0.15125 0.49903 0.0
H1110 H 0.98953 0.10882 0.557 0.0
H1111 H 0.01362 0.1131 0.58527 0.0
H1112 H 0.97335 0.13301 0.40803 0.0
H1113 H 0.95527 0.12003 0.66038 0.0
H1114 H 0.97166 0.12818 0.64517 0.0
H1115 H 0.96962 0.10999 0.63169 0.0
C1116 C 1.00496 0.14533 0.53352 0.0
C1117 C 0.01346 0.13471 0.55789 0.0
C1118 C 0.99106 0.14285 0.51785 0.0
C1119 C 0.98518 0.12974 0.52672 0.0
C1120 C 0.99364 0.1191 0.55068 0.0
H1121 H 0.89854 0.1023 0.46174 0.0
H1122 H 0.92361 0.10183 0.48308 0.0
C1123 C 1.00755 0.12155 0.56611 0.0
C1124 C 0.97034 0.12717 0.50942 0.0
H1125 H 0.93912 0.11755 0.57395 0.0
C1126 C 0.9659 0.12961 0.44444 0.0
C1127 C 0.96052 0.12257 0.5564 0.0
C1128 C 0.96442 0.12014 0.62747 0.0
C1129 C 0.95206 0.1277 0.42538 0.0
C1130 C 0.94215 0.12349 0.47274 0.0
C1131 C 0.94663 0.12071 0.53736 0.0
C1132 C 0.92699 0.12323 0.45754 0.0
C1133 C 0.94822 0.13015 0.35422 0.0
C1134 C 0.92043 0.13534 0.43645 0.0
C1135 C 0.90626 0.13559 0.42434 0.0
C1136 C 0.89806 0.12377 0.43312 0.0
C1137 C 0.90455 0.11154 0.45376 0.0
C1138 C 0.91887 0.1113 0.46631 0.0
H1139 H 0.9572 0.12866 0.32094 0.0
H1140 H 0.93982 0.12315 0.3382 0.0
H1141 H 0.94463 0.14094 0.34848 0.0
H1142 H 0.92626 0.14477 0.43066 0.0
H1143 H 0.90165 0.14524 0.40902 0.0
H1144 H 0.11361 1.00495 0.49822 0.0
H1145 H 0.10945 0.02931 0.52238 0.0
H1146 H 0.15245 0.03474 0.56735 0.0
H1147 H 0.15671 0.0104 0.54343 0.0
H1148 H 0.11274 0.04523 0.63273 0.0
H1149 H 0.14657 0.0652 0.43508 0.0
H1150 H 0.14165 0.04731 0.43973 0.0
H1151 H 0.15546 0.0538 0.49012 0.0
C1152 C 0.12221 0.01125 0.51374 0.0
C1153 C 0.13555 1.00555 0.51835 0.0
C1154 C 0.1198 0.02528 0.52733 0.0
C1155 C 0.13064 0.03408 0.54561 0.0
C1156 C 0.14392 0.02836 0.55162 0.0
H1157 H 0.1447 0.11798 0.66051 0.0
H1158 H 0.14459 0.09344 0.63633 0.0
C1159 C 0.14635 0.01436 0.53789 0.0
C1160 C 0.12812 0.04916 0.55853 0.0
H1161 H 0.13904 0.08148 0.5156 0.0
C1162 C 0.1184 0.05315 0.60662 0.0
C1163 C 0.13535 0.05963 0.52424 0.0
C1164 C 0.14523 0.0563 0.46894 0.0
C1165 C 0.11622 0.06716 0.62326 0.0
C1166 C 0.12382 0.07757 0.59048 0.0
C1167 C 0.13323 0.07358 0.54116 0.0
C1168 C 0.12308 0.09255 0.60957 0.0
C1169 C 0.1062 0.07068 0.67761 0.0
C1170 C 0.11092 0.10046 0.60374 0.0
C1171 C 0.11094 0.11474 0.61796 0.0
C1172 C 0.12313 0.12136 0.63798 0.0
C1173 C 0.1351 0.1133 0.64516 0.0
C1174 C 0.13508 0.09919 0.63112 0.0
H1175 H 0.10311 0.06144 0.70638 0.0
H1176 H 0.11072 0.07838 0.71186 0.0
H1177 H 0.09679 0.07526 0.65567 0.0
H1178 H 0.10153 0.09569 0.58633 0.0
H1179 H 0.10158 0.12063 0.61132 0.0
H1180 H 0.12165 0.88638 0.55378 0.0
H1181 H 0.09674 0.8859 0.56619 0.0
H1182 H 0.09245 0.91234 0.39663 0.0
H1183 H 0.11773 0.91268 0.38323 0.0
H1184 H 0.07793 0.90591 0.58911 0.0
H1185 H 0.06669 0.88076 0.3485 0.0
H1186 H 0.0839 0.88183 0.38155 0.0
H1187 H 0.07609 0.89667 0.34414 0.0
C1188 C 0.11547 0.89216 0.51897 0.0
C1189 C 0.12175 0.89949 0.46712 0.0
C1190 C 0.10114 0.89187 0.52627 0.0
C1191 C 0.09255 0.89886 0.48185 0.0
C1192 C 0.09877 0.90659 0.43088 0.0
H1193 H 1.00133 0.89761 0.47783 0.0
H1194 H 0.02549 0.90256 0.45237 0.0
C1195 C 0.11324 0.9069 0.42357 0.0
C1196 C 0.07719 0.89783 0.49019 0.0
H1197 H 0.04775 0.88551 0.4177 0.0
C1198 C 0.07135 0.90152 0.55132 0.0
C1199 C 0.06846 0.89212 0.44116 0.0
C1200 C 0.07405 0.8875 0.37527 0.0
C1201 C 0.05725 0.89952 0.56505 0.0
C1202 C 0.04862 0.89341 0.51687 0.0
C1203 C 0.05432 0.89012 0.45491 0.0
C1204 C 0.0338 0.88999 0.53083 0.0
C1205 C 0.05172 0.90405 0.63125 0.0
C1206 C 0.03028 0.88098 0.58246 0.0
C1207 C 0.01644 0.87802 0.59692 0.0
C1208 C 1.00564 0.88395 0.56003 0.0
C1209 C 1.00924 0.89271 0.50718 0.0
C1210 C 0.02311 0.89564 0.49267 0.0
H1211 H 0.0584 0.912 0.65433 0.0
H1212 H 0.04114 0.90828 0.62668 0.0
H1213 H 0.05137 0.89505 0.6649 0.0
H1214 H 0.03826 0.87617 0.61172 0.0
H1215 H 0.01423 0.87098 0.63694 0.0
H1216 H 0.39563 0.20043 0.1752 0.0
H1217 H 0.39283 0.22563 0.1651 0.0
H1218 H 0.43694 0.23038 0.1631 0.0
H1219 H 0.43973 0.20547 0.17227 0.0
H1220 H 0.40201 0.24792 0.24471 0.0
H1221 H 0.42586 0.25121 0.99735 0.0
H1222 H 0.42036 0.23507 1.0327 0.0
H1223 H 0.43664 0.24249 0.05573 0.0
C1224 C 0.4047 0.20686 0.17233 0.0
C1225 C 0.41791 0.20085 0.17386 0.0
C1226 C 0.40311 0.2213 0.16674 0.0
C1227 C 0.41467 0.23004 0.16195 0.0
C1228 C 0.42781 0.22398 0.16503 0.0
H1229 H 0.43895 0.31513 0.13691 0.0
H1230 H 0.43627 0.29016 0.14235 0.0
C1231 C 0.4294 0.20966 0.17071 0.0
C1232 C 0.41326 0.24543 0.15397 0.0
H1233 H 0.42387 0.27237 0.05715 0.0
C1234 C 0.40662 0.25325 0.20321 0.0
C1235 C 0.41921 0.25253 0.09981 0.0
C1236 C 0.4258 0.24489 0.04305 0.0
C1237 C 0.40639 0.26785 0.20142 0.0
C1238 C 0.41279 0.27495 0.14838 0.0
C1239 C 0.41901 0.26708 0.09815 0.0
C1240 C 0.41401 0.29045 0.14582 0.0
C1241 C 0.39984 0.27556 0.25798 0.0
C1242 C 0.40241 0.29923 0.14525 0.0
C1243 C 0.40394 0.3137 0.14199 0.0
C1244 C 0.41711 0.31974 0.13913 0.0
C1245 C 0.42863 0.31092 0.13916 0.0
C1246 C 0.42711 0.29655 0.14225 0.0
H1247 H 0.3981 0.26882 0.30147 0.0
H1248 H 0.40634 0.28441 0.27329 0.0
H1249 H 0.38971 0.27966 0.24197 0.0
H1250 H 0.39215 0.2949 0.14649 0.0
H1251 H 0.39484 0.32014 0.14147 0.0
H1252 H 0.3197 0.6236 0.92661 0.0
H1253 H 0.29443 0.62612 0.92184 0.0
H1254 H 0.29015 0.58193 0.92139 0.0
H1255 H 0.31512 0.57941 0.92658 0.0
H1256 H 0.27474 0.61692 0.82958 0.0
H1257 H 0.26459 0.59262 0.07129 0.0
H1258 H 0.28157 0.59816 0.04676 0.0
H1259 H 0.27489 0.58189 1.01861 0.0
C1260 C 0.31335 0.61444 0.92563 0.0
C1261 C 0.31951 0.6013 0.92734 0.0
C1262 C 0.29887 0.61588 0.92283 0.0
C1263 C 0.2902 0.60421 0.92241 0.0
C1264 C 0.29644 0.59113 0.92323 0.0
H1265 H 0.20513 0.5797 0.89302 0.0
H1266 H 0.23005 0.58233 0.9018 0.0
C1267 C 0.31081 0.58971 0.92588 0.0
C1268 C 0.27471 0.60548 0.92045 0.0
H1269 H 0.24534 0.59455 0.99846 0.0
C1270 C 0.26832 0.61219 0.86702 0.0
C1271 C 0.26617 0.59938 0.96918 0.0
C1272 C 0.27214 0.59273 1.03004 0.0
C1273 C 0.25381 0.61236 0.85945 0.0
C1274 C 0.24531 0.60582 0.90708 0.0
C1275 C 0.25171 0.59951 0.96149 0.0
C1276 C 0.22988 0.60461 0.89985 0.0
C1277 C 0.24774 0.61902 0.79889 0.0
C1278 C 0.22116 0.61624 0.89593 0.0
C1279 C 0.20672 0.61473 0.89086 0.0
C1280 C 0.20064 0.60156 0.88979 0.0
C1281 C 0.20939 0.59001 0.8936 0.0
C1282 C 0.22372 0.59151 0.89878 0.0
H1283 H 0.25564 0.62083 0.76013 0.0
H1284 H 0.23942 0.61254 0.7778 0.0
H1285 H 0.24323 0.62912 0.81272 0.0
H1286 H 0.2255 0.6265 0.89784 0.0
H1287 H 0.20033 0.62386 0.88813 0.0
H1288 H 0.5794 0.81493 0.17441 0.0
H1289 H 0.58215 0.79 0.16616 0.0
H1290 H 0.62626 0.79466 0.17122 0.0
H1291 H 0.6235 0.81986 0.18033 0.0
H1292 H 0.59467 0.77463 0.06972 0.0
H1293 H 0.62037 0.76468 0.30982 0.0
H1294 H 0.612 0.78085 0.29154 0.0
H1295 H 0.62866 0.77709 0.25741 0.0
C1296 C 0.58972 0.8107 0.17415 0.0
C1297 C 0.60123 0.81949 0.17808 0.0
C1298 C 0.59128 0.79636 0.16928 0.0
C1299 C 0.6044 0.79023 0.16869 0.0
C1300 C 0.61598 0.79898 0.17273 0.0
H1301 H 0.62322 0.70019 0.14624 0.0
H1302 H 0.62586 0.72548 0.15014 0.0
C1303 C 0.61441 0.81344 0.17745 0.0
C1304 C 0.60568 0.77479 0.16183 0.0
H1305 H 0.6165 0.74544 0.24093 0.0
C1306 C 0.59952 0.7683 0.10717 0.0
C1307 C 0.61207 0.76635 0.21011 0.0
C1308 C 0.61857 0.77252 0.27087 0.0
C1309 C 0.5994 0.75383 0.0999 0.0
C1310 C 0.60533 0.74535 0.14931 0.0
C1311 C 0.6119 0.75182 0.20298 0.0
C1312 C 0.604 0.72985 0.14785 0.0
C1313 C 0.59292 0.74776 0.03877 0.0
C1314 C 0.5909 0.72371 0.14636 0.0
C1315 C 0.58941 0.70933 0.14419 0.0
C1316 C 0.60095 0.70054 0.1439 0.0
C1317 C 0.61411 0.70661 0.14629 0.0
C1318 C 0.61561 0.7211 0.14859 0.0
H1319 H 0.59297 0.75523 0.99724 0.0
H1320 H 0.59835 0.73825 1.02279 0.0
H1321 H 0.58203 0.74511 0.04948 0.0
H1322 H 0.58173 0.73006 0.14732 0.0
H1323 H 0.5791 0.70508 0.14294 0.0
H1324 H 0.81467 0.44127 0.89774 0.0
H1325 H 0.78971 0.43868 0.90386 0.0
H1326 H 0.79426 0.3945 0.90427 0.0
H1327 H 0.81948 0.39711 0.89867 0.0
H1328 H 0.77178 0.42672 0.81866 0.0
H1329 H 0.76839 0.39996 0.06024 0.0
H1330 H 0.78399 0.40818 1.03219 0.0
H1331 H 0.77909 0.39168 0.99963 0.0
C1332 C 0.81042 0.43097 0.89933 0.0
C1333 C 0.81917 0.4194 0.89809 0.0
C1334 C 0.79606 0.4295 0.9028 0.0
C1335 C 0.78991 0.4164 0.90554 0.0
C1336 C 0.79863 0.40476 0.90373 0.0
H1337 H 0.70026 0.39713 0.9332 0.0
H1338 H 0.72549 0.39481 0.92355 0.0
C1339 C 0.81309 0.40624 0.90013 0.0
C1340 C 0.77442 0.41522 0.9085 0.0
H1341 H 0.74747 0.40392 1.00402 0.0
C1342 C 0.76652 0.42167 0.8592 0.0
C1343 C 0.76736 0.40858 0.96097 0.0
C1344 C 0.77509 0.40179 1.01665 0.0
C1345 C 0.75199 0.42182 0.86115 0.0
C1346 C 0.74492 0.41558 0.91467 0.0
C1347 C 0.75277 0.40875 0.96302 0.0
C1348 C 0.72952 0.41675 0.92268 0.0
C1349 C 0.74432 0.42863 0.80526 0.0
C1350 C 0.72324 0.42978 0.92697 0.0
C1351 C 0.70888 0.4311 0.93247 0.0
C1352 C 0.70029 0.41943 0.93428 0.0
C1353 C 0.70654 0.40633 0.93163 0.0
C1354 C 0.72099 0.40501 0.92619 0.0
H1355 H 0.75065 0.42899 0.75958 0.0
H1356 H 0.73456 0.42315 0.79421 0.0
H1357 H 0.7418 0.43939 0.81936 0.0
H1358 H 0.72947 0.43903 0.92603 0.0
H1359 H 0.7045 0.44135 0.93488 0.0
H1360 H 0.94022 0.70511 0.6705 0.0
H1361 H 0.93726 0.73003 0.66241 0.0
H1362 H 0.89319 0.725 0.66834 0.0
H1363 H 0.89616 0.69984 0.67735 0.0
H1364 H 0.92455 0.74518 0.56604 0.0
H1365 H 0.89892 0.75513 0.80677 0.0
H1366 H 0.90742 0.73902 0.78839 0.0
H1367 H 0.89071 0.74261 0.75461 0.0
C1368 C 0.92986 0.70926 0.67049 0.0
C1369 C 0.91843 0.70039 0.67458 0.0
C1370 C 0.92818 0.72359 0.66571 0.0
C1371 C 0.91501 0.7296 0.66536 0.0
C1372 C 0.9035 0.72077 0.66963 0.0
H1373 H 0.89576 0.81955 0.64229 0.0
H1374 H 0.89316 0.79425 0.64633 0.0
C1375 C 0.90519 0.70633 0.67428 0.0
C1376 C 0.91361 0.74502 0.65846 0.0
H1377 H 0.90264 0.77435 0.73776 0.0
C1378 C 0.91968 0.75151 0.6036 0.0
C1379 C 0.90718 0.75345 0.70687 0.0
C1380 C 0.90076 0.74727 0.76782 0.0
C1381 C 0.9197 0.76597 0.59629 0.0
C1382 C 0.91375 0.77444 0.64586 0.0
C1383 C 0.90725 0.76797 0.6997 0.0
C1384 C 0.91503 0.78993 0.64444 0.0
C1385 C 0.92612 0.77205 0.53504 0.0
C1386 C 0.92812 0.79609 0.64315 0.0
C1387 C 0.9296 0.81046 0.64092 0.0
C1388 C 0.91804 0.81923 0.64035 0.0
C1389 C 0.90488 0.81314 0.64256 0.0
C1390 C 0.9034 0.79865 0.64494 0.0
H1391 H 0.92611 0.76455 0.49352 0.0
H1392 H 0.9206 0.7815 0.51915 0.0
H1393 H 0.93698 0.7748 0.54556 0.0
H1394 H 0.9373 0.78975 0.64425 0.0
H1395 H 0.9399 0.81472 0.63981 0.0
H1396 H 0.81926 0.12405 0.4251 0.0
H1397 H 0.79399 0.12675 0.42085 0.0
H1398 H 0.78938 0.0826 0.42416 0.0
H1399 H 0.81432 0.07991 0.42889 0.0
H1400 H 0.7741 0.11728 0.32977 0.0
H1401 H 0.76413 0.09405 0.57403 0.0
H1402 H 0.78111 0.09942 0.54852 0.0
H1403 H 0.77433 0.08304 0.52226 0.0
C1404 C 0.81283 0.11495 0.4251 0.0
C1405 C 0.81889 0.10176 0.42774 0.0
C1406 C 0.79836 0.11648 0.42258 0.0
C1407 C 0.78961 0.10488 0.42336 0.0
C1408 C 0.79573 0.09176 0.42508 0.0
H1409 H 0.70477 0.08003 0.39582 0.0
H1410 H 0.72967 0.08287 0.40447 0.0
C1411 C 0.81009 0.09023 0.42746 0.0
C1412 C 0.77413 0.10623 0.42173 0.0
H1413 H 0.74482 0.09559 0.50116 0.0
C1414 C 0.7677 0.11271 0.36777 0.0
C1415 C 0.76562 0.10034 0.4712 0.0
C1416 C 0.77164 0.09395 0.5326 0.0
C1417 C 0.75319 0.11284 0.3604 0.0
C1418 C 0.74473 0.10647 0.40872 0.0
C1419 C 0.75117 0.1004 0.46368 0.0
C1420 C 0.72932 0.10514 0.40161 0.0
C1421 C 0.74706 0.11924 0.29935 0.0
C1422 C 0.72052 0.11669 0.39727 0.0
C1423 C 0.70609 0.11507 0.39234 0.0
C1424 C 0.70011 0.10185 0.39178 0.0
C1425 C 0.70894 0.09037 0.39601 0.0
C1426 C 0.72326 0.09198 0.4011 0.0
H1427 H 0.75494 0.12104 0.26052 0.0
H1428 H 0.73882 0.1126 0.27868 0.0
H1429 H 0.74241 0.12933 0.31248 0.0
H1430 H 0.72479 0.12699 0.3987 0.0
H1431 H 0.69963 0.12414 0.38927 0.0
H1432 H 0.12312 0.3197 0.67836 0.0
H1433 H 0.12573 0.29447 0.6685 0.0
H1434 H 0.0816 0.29005 0.66623 0.0
H1435 H 0.07898 0.31498 0.67517 0.0
H1436 H 0.11633 0.27231 0.74824 0.0
H1437 H 0.09262 0.26895 0.50082 0.0
H1438 H 0.09822 0.28508 0.53603 0.0
H1439 H 0.08186 0.27782 0.55904 0.0
C1440 C 0.114 0.31333 0.67547 0.0
C1441 C 0.10084 0.31945 0.67686 0.0
C1442 C 0.11549 0.29887 0.67002 0.0
C1443 C 0.10386 0.29022 0.66523 0.0
C1444 C 0.09077 0.29638 0.66817 0.0
H1445 H 0.07901 0.20521 0.64076 0.0
H1446 H 0.08184 0.23017 0.64599 0.0
C1447 C 0.08929 0.31072 0.67371 0.0
C1448 C 0.10516 0.2748 0.65743 0.0
H1449 H 0.09441 0.24784 0.56086 0.0
C1450 C 0.1117 0.26698 0.70678 0.0
C1451 C 0.09919 0.26768 0.60333 0.0
C1452 C 0.0927 0.27531 0.54645 0.0
C1453 C 0.11182 0.25237 0.70514 0.0
C1454 C 0.10541 0.24526 0.65215 0.0
C1455 C 0.09927 0.25313 0.60182 0.0
C1456 C 0.10408 0.22976 0.64969 0.0
C1457 C 0.11828 0.24467 0.76182 0.0
C1458 C 0.11563 0.22092 0.6493 0.0
C1459 C 0.11402 0.20645 0.64616 0.0
C1460 C 0.10082 0.20048 0.64323 0.0
C1461 C 0.08935 0.20937 0.64307 0.0
C1462 C 0.09095 0.22373 0.64603 0.0
H1463 H 0.12001 0.25144 0.80527 0.0
H1464 H 0.11171 0.23588 0.77713 0.0
H1465 H 0.12839 0.2405 0.74593 0.0
H1466 H 0.12592 0.22518 0.65062 0.0
H1467 H 0.12308 0.19996 0.64581 0.0
H1468 H 0.3151 0.94083 0.39969 0.0
H1469 H 0.29021 0.93815 0.40923 0.0
H1470 H 0.29485 0.894 0.40844 0.0
H1471 H 0.32004 0.89667 0.39803 0.0
H1472 H 0.27263 0.90329 0.32846 0.0
H1473 H 0.26938 0.92727 0.5757 0.0
H1474 H 0.27818 0.93796 0.5171 0.0
H1475 H 0.28549 0.92163 0.54031 0.0
C1476 C 0.31089 0.93051 0.40159 0.0
C1477 C 0.31966 0.91897 0.39869 0.0
C1478 C 0.29658 0.92899 0.40747 0.0
C1479 C 0.29051 0.91588 0.41101 0.0
C1480 C 0.2992 0.90426 0.40646 0.0
H1481 H 0.20064 0.89612 0.43222 0.0
H1482 H 0.22586 0.89353 0.4273 0.0
C1483 C 0.31363 0.90578 0.40066 0.0
C1484 C 0.27513 0.91455 0.41916 0.0
H1485 H 0.24824 0.92531 0.51621 0.0
C1486 C 0.26731 0.90794 0.37 0.0
C1487 C 0.26805 0.92056 0.47334 0.0
C1488 C 0.27571 0.92713 0.52996 0.0
C1489 C 0.25272 0.90778 0.37192 0.0
C1490 C 0.24565 0.91422 0.42504 0.0
C1491 C 0.25352 0.92043 0.47516 0.0
C1492 C 0.23017 0.91543 0.42795 0.0
C1493 C 0.24501 0.90126 0.31541 0.0
C1494 C 0.224 0.92852 0.43163 0.0
C1495 C 0.20963 0.92999 0.43475 0.0
C1496 C 0.2009 0.91841 0.43474 0.0
C1497 C 0.20701 0.90526 0.43189 0.0
C1498 C 0.22147 0.90378 0.42861 0.0
H1499 H 0.25173 0.89957 0.27173 0.0
H1500 H 0.24097 0.8911 0.3313 0.0
H1501 H 0.23614 0.90776 0.30044 0.0
H1502 H 0.23034 0.9377 0.43149 0.0
H1503 H 0.20535 0.94028 0.43698 0.0
H1504 H 0.20683 0.15322 0.79541 0.0
H1505 H 0.22959 0.15283 0.84724 0.0
H1506 H 0.2308 0.19719 0.84349 0.0
H1507 H 0.20819 0.19771 0.7909 0.0
H1508 H 0.25492 0.16321 0.80331 0.0
H1509 H 0.23948 0.18886 0.0366 0.0
H1510 H 0.22709 0.18193 0.97912 0.0
H1511 H 0.235 0.19837 0.96375 0.0
C1512 C 0.21194 0.16292 0.80511 0.0
C1513 C 0.20548 0.1755 0.78908 0.0
C1514 C 0.22497 0.16267 0.83517 0.0
C1515 C 0.23189 0.17498 0.85054 0.0
C1516 C 0.22558 0.18754 0.83383 0.0
H1517 H 0.31017 0.19765 1.0302 0.0
H1518 H 0.28757 0.19694 0.97756 0.0
C1519 C 0.21258 0.18781 0.80369 0.0
C1520 C 0.24577 0.17472 0.8829 0.0
H1521 H 0.26347 0.18589 1.0189 0.0
C1522 C 0.25676 0.16809 0.85066 0.0
C1523 C 0.24826 0.1811 0.94471 0.0
C1524 C 0.23682 0.18786 0.98348 0.0
C1525 C 0.27017 0.168 0.87748 0.0
C1526 C 0.27268 0.17444 0.93921 0.0
C1527 C 0.26164 0.18097 0.97162 0.0
C1528 C 0.28667 0.17471 0.97063 0.0
C1529 C 0.28161 0.16135 0.83826 0.0
C1530 C 0.2938 0.16247 0.98529 0.0
C1531 C 0.30687 0.16284 1.01494 0.0
C1532 C 0.31317 0.17548 1.03132 0.0
C1533 C 0.30589 0.18771 1.01735 0.0
C1534 C 0.29284 0.18733 0.98762 0.0
H1535 H 0.27891 0.16043 0.78515 0.0
H1536 H 0.29131 0.16732 0.84258 0.0
H1537 H 0.28348 0.15082 0.8575 0.0
H1538 H 0.28921 0.15257 0.97424 0.0
H1539 H 0.31209 0.15319 1.02436 0.0
H1540 H 0.15522 0.70405 0.07307 0.0
H1541 H 0.15403 0.72716 0.12148 0.0
H1542 H 0.19356 0.73691 0.03698 0.0
H1543 H 0.19461 0.71409 0.98642 0.0
H1544 H 0.17086 0.73985 0.21114 0.0
H1545 H 0.17117 0.7698 0.97872 0.0
H1546 H 0.16829 0.75144 0.98028 0.0
H1547 H 0.18549 0.75822 0.98555 0.0
C1548 C 0.16359 0.71115 0.06381 0.0
C1549 C 0.175 0.70708 1.02531 0.0
C1550 C 0.16293 0.72438 0.09206 0.0
C1551 C 0.17359 0.73396 0.08224 0.0
C1552 C 0.18504 0.7299 0.04435 0.0
H1553 H 0.19247 0.81712 0.2192 0.0
H1554 H 0.19227 0.79427 0.16802 0.0
C1555 C 0.18571 0.71669 1.0161 0.0
C1556 C 0.17294 0.74803 0.11298 0.0
H1557 H 0.17452 0.78253 0.07796 0.0
C1558 C 0.17155 0.74917 0.18189 0.0
C1559 C 0.17386 0.76029 0.07515 0.0
C1560 C 0.17465 0.75993 1.00079 0.0
C1561 C 0.17143 0.7621 0.21392 0.0
C1562 C 0.17247 0.77434 0.17612 0.0
C1563 C 0.17376 0.77321 0.10719 0.0
C1564 C 0.1724 0.7884 0.20713 0.0
C1565 C 0.17061 0.76248 0.28827 0.0
C1566 C 0.1612 0.79294 0.2455 0.0
C1567 C 0.16131 0.80603 0.2753 0.0
C1568 C 0.17261 0.81499 0.26733 0.0
C1569 C 0.18368 0.8105 0.22763 0.0
C1570 C 0.18355 0.79742 0.19782 0.0
H1571 H 0.1736 0.75245 0.31049 0.0
H1572 H 0.17736 0.77065 0.30879 0.0
H1573 H 0.15986 0.76474 0.30337 0.0
H1574 H 0.15233 0.78636 0.2525 0.0
H1575 H 0.15263 0.80899 0.30573 0.0
H1576 H 0.70938 0.82242 0.0368 0.0
H1577 H 0.73199 0.82309 0.98391 0.0
H1578 H 0.72905 0.86724 0.96718 0.0
H1579 H 0.7063 0.86668 1.01916 0.0
H1580 H 0.73951 0.83277 0.85901 0.0
H1581 H 0.7667 0.86218 0.05445 0.0
H1582 H 0.75009 0.85431 0.06782 0.0
H1583 H 0.75138 0.8703 1.02364 0.0
C1584 C 0.71343 0.8323 1.02149 0.0
C1585 C 0.70587 0.8445 1.03263 0.0
C1586 C 0.72646 0.83266 0.99149 0.0
C1587 C 0.7324 0.84522 0.97223 0.0
C1588 C 0.72489 0.85742 0.98283 0.0
H1589 H 0.81123 0.86655 0.78653 0.0
H1590 H 0.78828 0.86694 0.83654 0.0
C1591 C 0.71183 0.85708 1.01273 0.0
C1592 C 0.74627 0.84547 0.93982 0.0
H1593 H 0.77913 0.85781 0.95602 0.0
C1594 C 0.74818 0.83822 0.88038 0.0
C1595 C 0.75762 0.85263 0.96726 0.0
C1596 C 0.75644 0.86021 1.03209 0.0
C1597 C 0.76097 0.83806 0.84742 0.0
C1598 C 0.77238 0.84507 0.87526 0.0
C1599 C 0.77045 0.85241 0.93447 0.0
C1600 C 0.78641 0.84479 0.84418 0.0
C1601 C 0.76203 0.83061 0.78217 0.0
C1602 C 0.79322 0.83223 0.83228 0.0
C1603 C 0.80632 0.83196 0.80305 0.0
C1604 C 0.81311 0.84426 0.78538 0.0
C1605 C 0.80633 0.85684 0.79825 0.0
C1606 C 0.79319 0.85709 0.82744 0.0
H1607 H 0.75178 0.82947 0.75841 0.0
H1608 H 0.76897 0.83613 0.74759 0.0
H1609 H 0.76624 0.82013 0.79053 0.0
H1610 H 0.78841 0.82258 0.84591 0.0
H1611 H 0.81105 0.82205 0.79357 0.0
H1612 H 0.86477 0.31603 0.07493 0.0
H1613 H 0.8655 0.29304 0.12442 0.0
H1614 H 0.82377 0.28575 0.06163 0.0
H1615 H 0.82311 0.30843 1.00985 0.0
H1616 H 0.85006 0.28166 0.22313 0.0
H1617 H 0.8425 0.25136 0.99426 0.0
H1618 H 0.84657 0.2695 0.99307 0.0
H1619 H 0.82918 0.26387 1.00778 0.0
C1620 C 0.8558 0.30949 0.07065 0.0
C1621 C 0.8439 0.31421 0.03783 0.0
C1622 C 0.8562 0.29633 0.09955 0.0
C1623 C 0.84478 0.28747 0.09605 0.0
C1624 C 0.83285 0.29219 0.06398 0.0
H1625 H 0.82349 0.20615 0.24729 0.0
H1626 H 0.82408 0.2289 0.19568 0.0
C1627 C 0.83243 0.30532 1.03505 0.0
C1628 C 0.8452 0.27345 0.12722 0.0
H1629 H 0.84051 0.23909 0.0955 0.0
C1630 C 0.84807 0.27235 0.19504 0.0
C1631 C 0.8426 0.26122 0.0909 0.0
C1632 C 0.84017 0.26149 1.01737 0.0
C1633 C 0.84806 0.25951 0.22764 0.0
C1634 C 0.84533 0.2473 0.19143 0.0
C1635 C 0.84255 0.24839 0.12354 0.0
C1636 C 0.84513 0.23333 0.22304 0.0
C1637 C 0.85058 0.25919 0.30109 0.0
C1638 C 0.85683 0.22802 0.25508 0.0
C1639 C 0.85655 0.21492 0.28449 0.0
C1640 C 0.8446 0.20669 0.28232 0.0
C1641 C 0.83296 0.21201 0.24947 0.0
C1642 C 0.83325 0.22511 0.22011 0.0
H1643 H 0.84888 0.26944 0.32414 0.0
H1644 H 0.84377 0.25158 0.32565 0.0
H1645 H 0.86142 0.25614 0.3104 0.0
H1646 H 0.86625 0.23395 0.25676 0.0
H1647 H 0.86581 0.21115 0.30808 0.0
H1648 H 0.31563 0.36395 0.33543 0.0
H1649 H 0.2929 0.36446 0.38802 0.0
H1650 H 0.28261 0.32596 0.2943 0.0
H1651 H 0.30516 0.32542 0.241 0.0
H1652 H 0.26639 0.36446 0.33439 0.0
H1653 H 0.27415 0.31782 0.48745 0.0
H1654 H 0.28818 0.32647 0.44635 0.0
H1655 H 0.27713 0.31501 0.40101 0.0
C1656 C 0.30852 0.35562 0.32549 0.0
C1657 C 0.31241 0.34458 0.28412 0.0
C1658 C 0.29551 0.3559 0.35598 0.0
C1659 C 0.28605 0.34512 0.34635 0.0
C1660 C 0.28979 0.33423 0.30412 0.0
H1661 H 0.20318 0.32506 0.48022 0.0
H1662 H 0.22586 0.32592 0.42806 0.0
C1663 C 0.30277 0.33395 0.2736 0.0
C1664 C 0.27226 0.3453 0.37966 0.0
H1665 H 0.25142 0.32682 0.48335 0.0
C1666 C 0.26316 0.35627 0.36731 0.0
C1667 C 0.26795 0.33463 0.42271 0.0
C1668 C 0.27739 0.32288 0.44079 0.0
C1669 C 0.24983 0.35668 0.39517 0.0
C1670 C 0.24549 0.34595 0.43784 0.0
C1671 C 0.25465 0.33504 0.45059 0.0
C1672 C 0.23148 0.34571 0.46919 0.0
C1673 C 0.24038 0.3684 0.3769 0.0
C1674 C 0.22697 0.35648 0.51045 0.0
C1675 C 0.21395 0.356 0.5407 0.0
C1676 C 0.2051 0.34467 0.53105 0.0
C1677 C 0.20969 0.33389 0.48976 0.0
C1678 C 0.22269 0.33439 0.4595 0.0
H1679 H 0.24372 0.37355 0.33063 0.0
H1680 H 0.22963 0.36475 0.37051 0.0
H1681 H 0.24048 0.37621 0.41696 0.0
H1682 H 0.23363 0.36518 0.5203 0.0
H1683 H 0.21095 0.36439 0.57294 0.0
H1684 H 0.36383 0.70353 0.73961 0.0
H1685 H 0.36468 0.72649 0.68969 0.0
H1686 H 0.3252 0.73617 0.77526 0.0
H1687 H 0.32449 0.71351 0.82728 0.0
H1688 H 0.34748 0.73879 0.59997 0.0
H1689 H 0.34745 0.76937 0.83095 0.0
H1690 H 0.35052 0.75104 0.8301 0.0
H1691 H 0.33324 0.75764 0.82547 0.0
C1692 C 0.3554 0.71059 0.74876 0.0
C1693 C 0.34411 0.70655 0.788 0.0
C1694 C 0.35586 0.72373 0.71964 0.0
C1695 C 0.34512 0.73325 0.72933 0.0
C1696 C 0.33378 0.7292 0.76794 0.0
H1697 H 0.3253 0.81602 0.59104 0.0
H1698 H 0.32578 0.79325 0.64258 0.0
C1699 C 0.33331 0.7161 0.79705 0.0
C1700 C 0.34557 0.74723 0.69784 0.0
H1701 H 0.34377 0.7818 0.73132 0.0
C1702 C 0.34677 0.74819 0.62881 0.0
C1703 C 0.34463 0.75957 0.73512 0.0
C1704 C 0.34402 0.75941 0.80954 0.0
C1705 C 0.3467 0.76103 0.59615 0.0
C1706 C 0.34564 0.77337 0.63341 0.0
C1707 C 0.34454 0.7724 0.70247 0.0
C1708 C 0.34552 0.78735 0.60184 0.0
C1709 C 0.34732 0.76121 0.52174 0.0
C1710 C 0.35654 0.79185 0.5623 0.0
C1711 C 0.35632 0.80495 0.53279 0.0
C1712 C 0.34512 0.81398 0.54244 0.0
C1713 C 0.33419 0.8095 0.58288 0.0
C1714 C 0.33441 0.7964 0.61225 0.0
H1715 H 0.34431 0.75112 0.5002 0.0
H1716 H 0.34049 0.76932 0.50121 0.0
H1717 H 0.35803 0.76344 0.50589 0.0
H1718 H 0.36542 0.78528 0.55471 0.0
H1719 H 0.36506 0.80806 0.50316 0.0
H1720 H 0.71073 0.65439 0.26264 0.0
H1721 H 0.73348 0.65398 0.31456 0.0
H1722 H 0.72793 0.69596 0.37866 0.0
H1723 H 0.70527 0.69652 0.32655 0.0
H1724 H 0.75664 0.66986 0.29225 0.0
H1725 H 0.73892 0.67728 0.54992 0.0
H1726 H 0.7273 0.67285 0.48378 0.0
H1727 H 0.73293 0.69037 0.49443 0.0
C1728 C 0.71434 0.66358 0.28746 0.0
C1729 C 0.70598 0.67546 0.2905 0.0
C1730 C 0.72738 0.6633 0.31749 0.0
C1731 C 0.73242 0.67485 0.35178 0.0
C1732 C 0.7242 0.68677 0.35418 0.0
H1733 H 0.80782 0.69607 0.5617 0.0
H1734 H 0.78522 0.69548 0.50893 0.0
C1735 C 0.71117 0.68707 0.32422 0.0
C1736 C 0.74635 0.67453 0.38369 0.0
H1737 H 0.763 0.67909 0.53108 0.0
C1738 C 0.75801 0.67179 0.34457 0.0
C1739 C 0.74824 0.67706 0.45204 0.0
C1740 C 0.73619 0.67943 0.4977 0.0
C1741 C 0.77143 0.67186 0.37132 0.0
C1742 C 0.77332 0.67447 0.43962 0.0
C1743 C 0.76165 0.67712 0.47879 0.0
C1744 C 0.78729 0.67472 0.47128 0.0
C1745 C 0.78348 0.66955 0.32556 0.0
C1746 C 0.79608 0.6632 0.46877 0.0
C1747 C 0.80915 0.66354 0.49853 0.0
C1748 C 0.81378 0.6754 0.53211 0.0
C1749 C 0.80483 0.68684 0.53535 0.0
C1750 C 0.79179 0.68648 0.50555 0.0
H1751 H 0.78068 0.67153 0.27326 0.0
H1752 H 0.79228 0.67629 0.33894 0.0
H1753 H 0.7869 0.65867 0.32941 0.0
H1754 H 0.79282 0.65386 0.44405 0.0
H1755 H 0.81569 0.65454 0.49442 0.0
H1756 H 0.68399 0.21784 0.45068 0.0
H1757 H 0.68319 0.24059 0.50252 0.0
H1758 H 0.66241 0.2233 0.6711 0.0
H1759 H 0.66298 0.20053 0.61937 0.0
H1760 H 0.661 0.25658 0.54353 0.0
H1761 H 0.69423 0.24388 0.75742 0.0
H1762 H 0.69293 0.23284 0.68594 0.0
H1763 H 0.67967 0.23267 0.74798 0.0
C1764 C 0.67913 0.21883 0.49855 0.0
C1765 C 0.67359 0.20718 0.53063 0.0
C1766 C 0.67875 0.2319 0.52838 0.0
C1767 C 0.67294 0.23372 0.59137 0.0
C1768 C 0.66726 0.22218 0.62324 0.0
H1769 H 0.66151 0.3043 0.85493 0.0
H1770 H 0.66145 0.28168 0.80154 0.0
C1771 C 0.6676 0.2091 0.59343 0.0
C1772 C 0.67266 0.24769 0.62308 0.0
H1773 H 0.68319 0.26568 0.75958 0.0
C1774 C 0.66591 0.25857 0.59064 0.0
C1775 C 0.67903 0.25038 0.6847 0.0
C1776 C 0.68699 0.23938 0.72089 0.0
C1777 C 0.66514 0.27189 0.61847 0.0
C1778 C 0.67152 0.27458 0.68006 0.0
C1779 C 0.67827 0.26369 0.7125 0.0
C1780 C 0.67133 0.28856 0.71174 0.0
C1781 C 0.65716 0.28288 0.58232 0.0
C1782 C 0.677 0.30008 0.67963 0.0
C1783 C 0.67698 0.31311 0.70999 0.0
C1784 C 0.67133 0.31499 0.77352 0.0
C1785 C 0.66573 0.30339 0.80564 0.0
C1786 C 0.66579 0.29037 0.77529 0.0
H1787 H 0.64982 0.27835 0.54634 0.0
H1788 H 0.65134 0.2895 0.61732 0.0
H1789 H 0.66445 0.28949 0.55458 0.0
H1790 H 0.68159 0.29899 0.63118 0.0
H1791 H 0.68132 0.32174 0.68335 0.0
H1792 H 0.38738 0.17276 0.40127 0.0
H1793 H 0.38752 0.17236 0.52242 0.0
H1794 H 0.42749 0.15308 0.51986 0.0
H1795 H 0.42755 0.15357 0.39962 0.0
H1796 H 0.38926 0.15002 0.60804 0.0
H1797 H 0.43377 0.1847 0.64766 0.0
H1798 H 0.42517 0.18328 0.56903 0.0
H1799 H 0.43751 0.17047 0.5939 0.0
C1800 C 0.39626 0.16854 0.42639 0.0
C1801 C 0.40748 0.16328 0.39006 0.0
C1802 C 0.39631 0.16829 0.49584 0.0
C1803 C 0.40762 0.16289 0.53071 0.0
C1804 C 0.41878 0.15759 0.49455 0.0
H1805 H 0.4277 0.14979 0.94827 0.0
H1806 H 0.42753 0.15016 0.82712 0.0
C1807 C 0.41874 0.15782 0.42536 0.0
C1808 C 0.40762 0.16237 0.60465 0.0
H1809 H 0.42573 0.1724 0.74152 0.0
C1810 C 0.39719 0.155 0.63718 0.0
C1811 C 0.41801 0.16878 0.64308 0.0
C1812 C 0.42918 0.17736 0.61178 0.0
C1813 C 0.39699 0.15364 0.70649 0.0
C1814 C 0.40737 0.16005 0.74492 0.0
C1815 C 0.4178 0.16742 0.71239 0.0
C1816 C 0.40738 0.15953 0.81887 0.0
C1817 C 0.38582 0.14504 0.73777 0.0
C1818 C 0.3962 0.16477 0.85507 0.0
C1819 C 0.39626 0.16456 0.92426 0.0
C1820 C 0.40755 0.15916 0.95952 0.0
C1821 C 0.41879 0.15395 0.92317 0.0
C1822 C 0.41872 0.15419 0.85372 0.0
H1823 H 0.38126 0.13768 0.7019 0.0
H1824 H 0.38982 0.13915 0.78059 0.0
H1825 H 0.37746 0.15192 0.75551 0.0
H1826 H 0.38746 0.16925 0.82979 0.0
H1827 H 0.38743 0.16876 0.95003 0.0
H1828 H 0.15387 0.59217 0.66254 0.0
H1829 H 0.15348 0.59235 0.54216 0.0
H1830 H 0.1723 0.63255 0.54174 0.0
H1831 H 0.17294 0.63239 0.66266 0.0
H1832 H 0.14034 0.60977 0.4578 0.0
H1833 H 0.19656 0.61211 0.41151 0.0
H1834 H 0.18948 0.60816 0.49166 0.0
H1835 H 0.19026 0.62571 0.46356 0.0
C1836 C 0.15805 0.60105 0.63717 0.0
C1837 C 0.16351 0.61225 0.67297 0.0
C1838 C 0.15778 0.60113 0.56796 0.0
C1839 C 0.16301 0.61237 0.53229 0.0
C1840 C 0.16846 0.6236 0.56772 0.0
H1841 H 0.16828 0.63254 0.11366 0.0
H1842 H 0.1687 0.63237 0.23406 0.0
C1843 C 0.16876 0.62352 0.63715 0.0
C1844 C 0.16234 0.61243 0.45833 0.0
H1845 H 0.18202 0.6149 0.31848 0.0
C1846 C 0.14948 0.61083 0.42741 0.0
C1847 C 0.17423 0.61382 0.41822 0.0
C1848 C 0.18843 0.61492 0.44777 0.0
C1849 C 0.14814 0.61084 0.35808 0.0
C1850 C 0.16002 0.61223 0.31798 0.0
C1851 C 0.17289 0.61383 0.34889 0.0
C1852 C 0.15935 0.61228 0.24403 0.0
C1853 C 0.13394 0.60972 0.32849 0.0
C1854 C 0.15399 0.601 0.20867 0.0
C1855 C 0.15368 0.60106 0.13925 0.0
C1856 C 0.15882 0.61237 0.10335 0.0
C1857 C 0.16418 0.62363 0.13909 0.0
C1858 C 0.16447 0.62355 0.2083 0.0
H1859 H 0.1258 0.61247 0.36477 0.0
H1860 H 0.13288 0.61651 0.28471 0.0
H1861 H 0.13215 0.59893 0.31249 0.0
H1862 H 0.15023 0.59202 0.23472 0.0
H1863 H 0.14958 0.59215 0.11379 0.0
H1864 H 0.59199 0.86715 0.40384 0.0
H1865 H 0.59226 0.86772 0.52418 0.0
H1866 H 0.63191 0.84775 0.52457 0.0
H1867 H 0.63184 0.8473 0.40357 0.0
H1868 H 0.59348 0.84689 0.61544 0.0
H1869 H 0.63896 0.88095 0.64257 0.0
H1870 H 0.63028 0.87854 0.56469 0.0
H1871 H 0.64211 0.86572 0.59445 0.0
C1872 C 0.60082 0.86287 0.42916 0.0
C1873 C 0.61194 0.85723 0.39333 0.0
C1874 C 0.60093 0.8632 0.49834 0.0
C1875 C 0.61219 0.858 0.53391 0.0
C1876 C 0.62322 0.85213 0.49851 0.0
H1877 H 0.63141 0.85108 0.95247 0.0
H1878 H 0.63116 0.85051 0.83212 0.0
C1879 C 0.62312 0.85178 0.4291 0.0
C1880 C 0.61221 0.85861 0.60783 0.0
H1881 H 0.62992 0.87127 0.74078 0.0
C1882 C 0.60143 0.85227 0.64278 0.0
C1883 C 0.62256 0.86563 0.64389 0.0
C1884 C 0.63407 0.87322 0.60962 0.0
C1885 C 0.60084 0.85253 0.71234 0.0
C1886 C 0.61118 0.85956 0.7484 0.0
C1887 C 0.62197 0.86589 0.71344 0.0
C1888 C 0.6112 0.86017 0.82233 0.0
C1889 C 0.58933 0.84494 0.74659 0.0
C1890 C 0.60015 0.86601 0.85769 0.0
C1891 C 0.60023 0.86635 0.9271 0.0
C1892 C 0.61142 0.86093 0.96291 0.0
C1893 C 0.62257 0.85533 0.92711 0.0
C1894 C 0.62247 0.855 0.85793 0.0
H1895 H 0.58446 0.83718 0.71366 0.0
H1896 H 0.59311 0.83963 0.79159 0.0
H1897 H 0.58127 0.85242 0.76164 0.0
H1898 H 0.59145 0.87036 0.83161 0.0
H1899 H 0.59149 0.8708 0.95262 0.0
H1900 H 0.87064 0.42842 0.12369 0.0
H1901 H 0.87035 0.42827 0.24483 0.0
H1902 H 0.85062 0.38852 0.24273 0.0
H1903 H 0.85103 0.38847 0.12246 0.0
H1904 H 0.84825 0.42696 0.33104 0.0
H1905 H 0.88204 0.38169 0.36992 0.0
H1906 H 0.88067 0.39025 0.29117 0.0
H1907 H 0.86769 0.37817 0.31684 0.0
C1908 C 0.86635 0.41958 0.14891 0.0
C1909 C 0.86094 0.40843 0.11269 0.0
C1910 C 0.86616 0.41952 0.21836 0.0
C1911 C 0.86067 0.40828 0.25338 0.0
C1912 C 0.85522 0.39719 0.21732 0.0
H1913 H 0.84705 0.38862 0.67109 0.0
H1914 H 0.84749 0.38877 0.54995 0.0
C1915 C 0.8554 0.39723 0.14812 0.0
C1916 C 0.8602 0.40829 0.32736 0.0
H1917 H 0.8699 0.38996 0.46406 0.0
C1918 C 0.85307 0.41891 0.36006 0.0
C1919 C 0.8664 0.39777 0.36568 0.0
C1920 C 0.87474 0.38639 0.33424 0.0
C1921 C 0.85176 0.41916 0.42941 0.0
C1922 C 0.85795 0.40863 0.46771 0.0
C1923 C 0.86508 0.39801 0.43502 0.0
C1924 C 0.85744 0.40862 0.54166 0.0
C1925 C 0.84345 0.43055 0.46091 0.0
C1926 C 0.863 0.41965 0.57784 0.0
C1927 C 0.86276 0.4196 0.64704 0.0
C1928 C 0.85701 0.40849 0.68233 0.0
C1929 C 0.8515 0.3974 0.64598 0.0
C1930 C 0.85177 0.39745 0.57653 0.0
H1931 H 0.83623 0.43534 0.42516 0.0
H1932 H 0.83745 0.42667 0.50369 0.0
H1933 H 0.85053 0.4387 0.4788 0.0
H1934 H 0.86772 0.42825 0.55253 0.0
H1935 H 0.8672 0.42831 0.67281 0.0
H1936 H 0.38656 0.35197 0.36613 0.0
H1937 H 0.38667 0.35167 0.4865 0.0
H1938 H 0.42697 0.3702 0.48726 0.0
H1939 H 0.42691 0.37072 0.36629 0.0
H1940 H 0.4041 0.33848 0.57155 0.0
H1941 H 0.40635 0.39482 0.61608 0.0
H1942 H 0.40239 0.38761 0.53619 0.0
H1943 H 0.41993 0.38841 0.56423 0.0
C1944 C 0.39545 0.35609 0.39156 0.0
C1945 C 0.40672 0.36144 0.35585 0.0
C1946 C 0.39549 0.35588 0.46075 0.0
C1947 C 0.40673 0.36107 0.49649 0.0
C1948 C 0.41802 0.3664 0.46117 0.0
H1949 H 0.42646 0.36702 0.91507 0.0
H1950 H 0.42633 0.36734 0.7947 0.0
C1951 C 0.418 0.36663 0.39174 0.0
C1952 C 0.40671 0.3605 0.57043 0.0
H1953 H 0.40894 0.38041 0.70966 0.0
C1954 C 0.40511 0.34767 0.60169 0.0
C1955 C 0.40802 0.37246 0.61016 0.0
C1956 C 0.40914 0.38663 0.58012 0.0
C1957 C 0.40503 0.34643 0.67105 0.0
C1958 C 0.40634 0.35839 0.71079 0.0
C1959 C 0.40794 0.37122 0.67952 0.0
C1960 C 0.40632 0.35782 0.78474 0.0
C1961 C 0.40393 0.33225 0.70106 0.0
C1962 C 0.39507 0.35242 0.82009 0.0
C1963 C 0.39512 0.35216 0.88951 0.0
C1964 C 0.40637 0.35741 0.92539 0.0
C1965 C 0.41759 0.36285 0.88966 0.0
C1966 C 0.41754 0.36308 0.82046 0.0
H1967 H 0.40676 0.32407 0.66512 0.0
H1968 H 0.41066 0.33128 0.74508 0.0
H1969 H 0.39314 0.33044 0.71677 0.0
H1970 H 0.38614 0.34856 0.79403 0.0
H1971 H 0.38624 0.348 0.91499 0.0
H1972 H 0.34737 0.63219 0.15419 0.0
H1973 H 0.34826 0.63227 0.27524 0.0
H1974 H 0.36775 0.59237 0.27251 0.0
H1975 H 0.3671 0.59226 0.15223 0.0
H1976 H 0.33714 0.61459 0.36787 0.0
H1977 H 0.39401 0.61393 0.38837 0.0
H1978 H 0.38528 0.61753 0.31171 0.0
H1979 H 0.3873 0.60004 0.33952 0.0
C1980 C 0.35186 0.62342 0.17924 0.0
C1981 C 0.35725 0.61227 0.14283 0.0
C1982 C 0.35236 0.62349 0.24865 0.0
C1983 C 0.35834 0.61245 0.2834 0.0
C1984 C 0.36342 0.60118 0.24721 0.0
H1985 H 0.37077 0.59238 0.70129 0.0
H1986 H 0.36999 0.59233 0.58021 0.0
C1987 C 0.36294 0.60111 0.17804 0.0
C1988 C 0.35909 0.61258 0.35731 0.0
H1989 H 0.38145 0.61017 0.48752 0.0
C1990 C 0.34684 0.61371 0.39395 0.0
C1991 C 0.37174 0.61138 0.39181 0.0
C1992 C 0.38534 0.61078 0.35593 0.0
C1993 C 0.34686 0.6134 0.46356 0.0
C1994 C 0.3595 0.61218 0.49803 0.0
C1995 C 0.37175 0.61105 0.46142 0.0
C1996 C 0.36024 0.61231 0.57193 0.0
C1997 C 0.33326 0.61404 0.49951 0.0
C1998 C 0.35532 0.62366 0.60802 0.0
C1999 C 0.35576 0.62373 0.6772 0.0
C2000 C 0.36123 0.61247 0.7125 0.0
C2001 C 0.36646 0.60123 0.67617 0.0
C2002 C 0.36601 0.60118 0.60675 0.0
H2003 H 0.32456 0.61101 0.46701 0.0
H2004 H 0.33328 0.60722 0.54349 0.0
H2005 H 0.33139 0.62476 0.51636 0.0
H2006 H 0.35113 0.63253 0.58264 0.0
H2007 H 0.35171 0.63264 0.70294 0.0
H2008 H 0.5919 0.65304 0.92019 0.0
H2009 H 0.5922 0.65251 0.79982 0.0
H2010 H 0.63174 0.67261 0.79929 0.0
H2011 H 0.63165 0.67304 0.9203 0.0
H2012 H 0.59336 0.67335 0.70848 0.0
H2013 H 0.639 0.63942 0.68136 0.0
H2014 H 0.63028 0.6418 0.75924 0.0
H2015 H 0.64206 0.65466 0.72947 0.0
C2016 C 0.60071 0.65736 0.89483 0.0
C2017 C 0.6118 0.66303 0.93062 0.0
C2018 C 0.60084 0.65705 0.82563 0.0
C2019 C 0.61208 0.6623 0.79002 0.0
C2020 C 0.62306 0.6682 0.82538 0.0
H2021 H 0.6314 0.66911 0.37116 0.0
H2022 H 0.63113 0.66974 0.49153 0.0
C2023 C 0.62295 0.66853 0.8948 0.0
C2024 C 0.61214 0.66169 0.7161 0.0
H2025 H 0.62994 0.64905 0.58314 0.0
C2026 C 0.60134 0.66799 0.68114 0.0
C2027 C 0.62252 0.65468 0.68003 0.0
C2028 C 0.63406 0.64714 0.7143 0.0
C2029 C 0.60078 0.66773 0.61158 0.0
C2030 C 0.61116 0.66072 0.57552 0.0
C2031 C 0.62196 0.65441 0.61048 0.0
C2032 C 0.6112 0.66006 0.50159 0.0
C2033 C 0.58925 0.67529 0.57733 0.0
C2034 C 0.60017 0.65419 0.46638 0.0
C2035 C 0.60027 0.65382 0.39697 0.0
C2036 C 0.61144 0.65923 0.36101 0.0
C2037 C 0.62257 0.66486 0.39665 0.0
C2038 C 0.62246 0.66523 0.46584 0.0
H2039 H 0.58436 0.68305 0.61022 0.0
H2040 H 0.59302 0.68058 0.53225 0.0
H2041 H 0.58122 0.66779 0.56243 0.0
H2042 H 0.59149 0.64984 0.49258 0.0
H2043 H 0.59154 0.64934 0.37159 0.0
H2044 H 0.65019 0.42871 0.70504 0.0
H2045 H 0.65116 0.42846 0.5842 0.0
H2046 H 0.66739 0.38713 0.58847 0.0
H2047 H 0.66618 0.38716 0.70881 0.0
H2048 H 0.67292 0.42585 0.50169 0.0
H2049 H 0.63711 0.38254 0.45524 0.0
H2050 H 0.63864 0.39064 0.5351 0.0
H2051 H 0.65104 0.37796 0.50898 0.0
C2052 C 0.65383 0.41949 0.68037 0.0
C2053 C 0.65799 0.40791 0.71723 0.0
C2054 C 0.65442 0.41938 0.61104 0.0
C2055 C 0.65914 0.40769 0.57658 0.0
C2056 C 0.66336 0.39616 0.61329 0.0
H2057 H 0.67402 0.38915 0.15772 0.0
H2058 H 0.67353 0.38893 0.27888 0.0
C2059 C 0.66272 0.39623 0.68252 0.0
C2060 C 0.66012 0.40775 0.50264 0.0
H2061 H 0.65015 0.3904 0.36322 0.0
C2062 C 0.66786 0.41813 0.47153 0.0
C2063 C 0.65359 0.39767 0.46271 0.0
C2064 C 0.64452 0.38666 0.49209 0.0
C2065 C 0.66942 0.41858 0.40233 0.0
C2066 C 0.66292 0.4085 0.36252 0.0
C2067 C 0.65522 0.39809 0.39351 0.0
C2068 C 0.66363 0.40881 0.28866 0.0
C2069 C 0.67824 0.42974 0.37247 0.0
C2070 C 0.65819 0.42 0.25337 0.0
C2071 C 0.65843 0.42015 0.18415 0.0
C2072 C 0.66411 0.40909 0.14807 0.0
C2073 C 0.66965 0.3979 0.18354 0.0
C2074 C 0.66933 0.39773 0.25297 0.0
H2075 H 0.68537 0.43429 0.40936 0.0
H2076 H 0.68438 0.42569 0.3304 0.0
H2077 H 0.67151 0.4381 0.35374 0.0
H2078 H 0.65352 0.42857 0.2794 0.0
H2079 H 0.65401 0.42893 0.15893 0.0
H2080 H 0.888 0.67209 0.90031 0.0
H2081 H 0.88815 0.6718 1.02145 0.0
H2082 H 0.92828 0.65283 1.01927 0.0
H2083 H 0.92833 0.65322 0.89902 0.0
H2084 H 0.89006 0.64957 0.10752 0.0
H2085 H 0.93431 0.68464 0.14633 0.0
H2086 H 0.92572 0.68306 0.06773 0.0
H2087 H 0.93816 0.67038 0.0929 0.0
C2088 C 0.89692 0.66796 0.92551 0.0
C2089 C 0.90818 0.66276 0.88928 0.0
C2090 C 0.89698 0.66777 0.99495 0.0
C2091 C 0.90833 0.6625 1.02992 0.0
C2092 C 0.91953 0.65725 0.99386 0.0
H2093 H 0.92848 0.64977 0.44749 0.0
H2094 H 0.92831 0.65011 0.32635 0.0
C2095 C 0.91948 0.65742 0.92468 0.0
C2096 C 0.90834 0.66206 0.10385 0.0
H2097 H 0.92637 0.67236 0.24047 0.0
C2098 C 0.89795 0.65464 0.13654 0.0
C2099 C 0.91867 0.66858 0.14212 0.0
C2100 C 0.92978 0.67722 0.11062 0.0
C2101 C 0.89776 0.65335 0.20587 0.0
C2102 C 0.9081 0.65987 0.24414 0.0
C2103 C 0.91848 0.66729 0.21145 0.0
C2104 C 0.90813 0.6594 0.31807 0.0
C2105 C 0.88665 0.64471 0.23737 0.0
C2106 C 0.89693 0.66463 0.35422 0.0
C2107 C 0.89699 0.66444 0.42341 0.0
C2108 C 0.9083 0.65908 0.45869 0.0
C2109 C 0.91956 0.6539 0.42237 0.0
C2110 C 0.91949 0.65412 0.35293 0.0
H2111 H 0.88211 0.6373 0.20165 0.0
H2112 H 0.89072 0.63886 0.28023 0.0
H2113 H 0.87828 0.65155 0.25515 0.0
H2114 H 0.88817 0.66906 0.32891 0.0
H2115 H 0.88815 0.66862 0.44917 0.0
H2116 H 0.66832 0.13217 0.6158 0.0
H2117 H 0.66885 0.1319 0.73616 0.0
H2118 H 0.64885 0.09228 0.73664 0.0
H2119 H 0.64845 0.09234 0.61564 0.0
H2120 H 0.64823 0.13083 0.82785 0.0
H2121 H 0.68185 0.08495 0.85427 0.0
H2122 H 0.67944 0.09361 0.77637 0.0
H2123 H 0.66658 0.08189 0.80664 0.0
C2124 C 0.66402 0.12334 0.64116 0.0
C2125 C 0.6584 0.11222 0.60535 0.0
C2126 C 0.66433 0.12323 0.71036 0.0
C2127 C 0.65912 0.11198 0.74597 0.0
C2128 C 0.65324 0.10096 0.71058 0.0
H2129 H 0.65193 0.09279 0.16476 0.0
H2130 H 0.65131 0.09308 0.04439 0.0
C2131 C 0.65292 0.10106 0.64116 0.0
C2132 C 0.65973 0.11193 0.81993 0.0
H2133 H 0.67218 0.09402 0.95267 0.0
C2134 C 0.65351 0.1228 0.85506 0.0
C2135 C 0.66664 0.10149 0.85587 0.0
C2136 C 0.67412 0.08989 0.82148 0.0
C2137 C 0.65377 0.12336 0.92463 0.0
C2138 C 0.66067 0.11292 0.96056 0.0
C2139 C 0.66689 0.10205 0.92544 0.0
C2140 C 0.6613 0.11288 1.0345 0.0
C2141 C 0.64633 0.13498 0.95907 0.0
C2142 C 0.66732 0.12382 0.06981 0.0
C2143 C 0.6677 0.1237 0.13922 0.0
C2144 C 0.66211 0.1126 0.1751 0.0
C2145 C 0.65631 0.10157 0.13935 0.0
C2146 C 0.65595 0.10169 0.07016 0.0
H2147 H 0.63867 0.13999 0.92623 0.0
H2148 H 0.64096 0.13125 1.00402 0.0
H2149 H 0.65391 0.14292 0.97425 0.0
H2150 H 0.6718 0.13245 0.04368 0.0
H2151 H 0.67231 0.13236 0.16468 0.0
H2152 H 0.09128 0.37033 0.45108 0.0
H2153 H 0.09127 0.36957 0.32998 0.0
H2154 H 0.13156 0.35096 0.33187 0.0
H2155 H 0.13163 0.3515 0.45215 0.0
H2156 H 0.10907 0.38123 0.23776 0.0
H2157 H 0.11032 0.32433 0.21542 0.0
H2158 H 0.10644 0.33296 0.29218 0.0
H2159 H 0.12399 0.3312 0.265 0.0
C2160 C 0.10015 0.36607 0.42583 0.0
C2161 C 0.11141 0.36089 0.46198 0.0
C2162 C 0.10013 0.36564 0.35641 0.0
C2163 C 0.1113 0.35994 0.32144 0.0
C2164 C 0.12266 0.35508 0.35738 0.0
H2165 H 0.1316 0.34774 0.90333 0.0
H2166 H 0.13164 0.34854 1.02442 0.0
C2167 C 0.1227 0.35549 0.42654 0.0
C2168 C 0.11123 0.35927 0.24756 0.0
H2169 H 0.11393 0.33702 0.11671 0.0
C2170 C 0.11004 0.37155 0.21135 0.0
C2171 C 0.11257 0.34665 0.2127 0.0
C2172 C 0.11328 0.33302 0.2482 0.0
C2173 C 0.11043 0.3716 0.14176 0.0
C2174 C 0.11177 0.35899 0.10689 0.0
C2175 C 0.11295 0.3467 0.1431 0.0
C2176 C 0.11168 0.35831 1.033 0.0
C2177 C 0.10975 0.38525 0.10628 0.0
C2178 C 0.10035 0.36324 0.99708 0.0
C2179 C 0.10029 0.36281 0.92792 0.0
C2180 C 0.11153 0.35731 0.89245 0.0
C2181 C 0.12276 0.35208 0.92859 0.0
C2182 C 0.12281 0.35253 0.99801 0.0
H2183 H 0.11276 0.39392 0.13904 0.0
H2184 H 0.11655 0.38528 0.06219 0.0
H2185 H 0.09903 0.38711 0.0897 0.0
H2186 H 0.09148 0.36742 1.02259 0.0
H2187 H 0.09138 0.36685 0.90233 0.0
H2188 H 0.34792 0.88822 0.17161 0.0
H2189 H 0.34871 0.88819 0.0505 0.0
H2190 H 0.36742 0.92842 0.05288 0.0
H2191 H 0.36686 0.92851 0.17313 0.0
H2192 H 0.33713 0.90592 0.9584 0.0
H2193 H 0.39398 0.90716 0.93619 0.0
H2194 H 0.38536 0.90335 1.01296 0.0
H2195 H 0.38713 0.92089 0.98575 0.0
C2196 C 0.35221 0.89707 0.14646 0.0
C2197 C 0.3574 0.90832 0.18275 0.0
C2198 C 0.35266 0.89703 0.07704 0.0
C2199 C 0.35839 0.90818 0.04219 0.0
C2200 C 0.36328 0.91953 0.07827 0.0
H2201 H 0.37039 0.92872 0.62448 0.0
H2202 H 0.36962 0.9287 0.7456 0.0
C2203 C 0.36285 0.91958 0.14743 0.0
C2204 C 0.35907 0.90811 0.96829 0.0
H2205 H 0.38129 0.91088 0.83751 0.0
C2206 C 0.3468 0.90692 0.93204 0.0
C2207 C 0.37167 0.90947 0.93347 0.0
C2208 C 0.3853 0.91016 0.96898 0.0
C2209 C 0.34675 0.90733 0.86245 0.0
C2210 C 0.35935 0.9087 0.82763 0.0
C2211 C 0.37162 0.90989 0.86388 0.0
C2212 C 0.36003 0.90865 0.75373 0.0
C2213 C 0.33313 0.90662 0.82691 0.0
C2214 C 0.35519 0.8973 0.71757 0.0
C2215 C 0.35562 0.89728 0.64841 0.0
C2216 C 0.361 0.90858 0.61319 0.0
C2217 C 0.36614 0.91984 0.64956 0.0
C2218 C 0.3657 0.91985 0.71899 0.0
H2219 H 0.32444 0.90957 0.85974 0.0
H2220 H 0.33305 0.91347 0.78305 0.0
H2221 H 0.33134 0.8959 0.80994 0.0
H2222 H 0.35109 0.88838 0.7429 0.0
H2223 H 0.35165 0.88834 0.62263 0.0
H2224 H 0.88737 0.84737 0.41514 0.0
H2225 H 0.88752 0.8478 0.294 0.0
H2226 H 0.92706 0.86789 0.29636 0.0
H2227 H 0.9271 0.86738 0.41663 0.0
H2228 H 0.88883 0.8702 0.2082 0.0
H2229 H 0.93403 0.83628 0.16885 0.0
H2230 H 0.92535 0.83757 0.24743 0.0
H2231 H 0.93744 0.8506 0.22254 0.0
C2232 C 0.89616 0.85179 0.38998 0.0
C2233 C 0.90725 0.85726 0.42626 0.0
C2234 C 0.89621 0.85206 0.32053 0.0
C2235 C 0.90741 0.85768 0.28561 0.0
C2236 C 0.91843 0.8632 0.32172 0.0
H2237 H 0.92733 0.87069 0.86758 0.0
H2238 H 0.92715 0.87043 0.98873 0.0
C2239 C 0.91839 0.86297 0.39091 0.0
C2240 C 0.90742 0.85816 0.21166 0.0
H2241 H 0.92573 0.84832 0.07483 0.0
C2242 C 0.89685 0.86534 0.17909 0.0
C2243 C 0.91793 0.8519 0.17327 0.0
C2244 C 0.92927 0.84354 0.20466 0.0
C2245 C 0.89664 0.86663 0.10975 0.0
C2246 C 0.90713 0.86036 0.07134 0.0
C2247 C 0.91771 0.85319 0.10394 0.0
C2248 C 0.90714 0.86081 0.99737 0.0
C2249 C 0.88531 0.87502 0.07842 0.0
C2250 C 0.89605 0.85538 0.96138 0.0
C2251 C 0.8961 0.85554 0.89218 0.0
C2252 C 0.90732 0.86105 0.8567 0.0
C2253 C 0.91848 0.86643 0.89285 0.0
C2254 C 0.91841 0.86626 0.96231 0.0
H2255 H 0.88064 0.88235 0.11417 0.0
H2256 H 0.88921 0.88092 1.03537 0.0
H2257 H 0.87707 0.86799 0.06102 0.0
H2258 H 0.88737 0.85082 0.98683 0.0
H2259 H 0.88734 0.85119 0.86657 0.0
H2260 H 0.85075 0.13197 0.2011 0.0
H2261 H 0.85021 0.13172 0.08076 0.0
H2262 H 0.87002 0.09197 0.0796 0.0
H2263 H 0.87043 0.092 0.20061 0.0
H2264 H 0.87089 0.1305 0.98917 0.0
H2265 H 0.83694 0.08494 0.96182 0.0
H2266 H 0.83938 0.09358 0.03986 0.0
H2267 H 0.85218 0.08175 1.00949 0.0
C2268 C 0.855 0.12312 0.17561 0.0
C2269 C 0.86057 0.11195 0.21123 0.0
C2270 C 0.85468 0.12302 0.10642 0.0
C2271 C 0.85985 0.11174 0.07062 0.0
C2272 C 0.86567 0.10068 0.10582 0.0
H2273 H 0.86689 0.09259 0.65165 0.0
H2274 H 0.86749 0.09285 0.772 0.0
C2275 C 0.86599 0.10076 0.17524 0.0
C2276 C 0.85924 0.11172 0.99669 0.0
H2277 H 0.84664 0.09398 0.86361 0.0
C2278 C 0.86554 0.12253 0.96179 0.0
C2279 C 0.85224 0.10135 0.96055 0.0
C2280 C 0.84468 0.08981 0.99472 0.0
C2281 C 0.86527 0.12313 0.89224 0.0
C2282 C 0.85829 0.11276 0.85611 0.0
C2283 C 0.85199 0.10195 0.891 0.0
C2284 C 0.85767 0.11274 0.78219 0.0
C2285 C 0.87281 0.13468 0.85803 0.0
C2286 C 0.85175 0.12376 0.74704 0.0
C2287 C 0.85138 0.12366 0.67763 0.0
C2288 C 0.85687 0.1125 0.6416 0.0
C2289 C 0.86258 0.1014 0.67718 0.0
C2290 C 0.86292 0.10151 0.74636 0.0
H2291 H 0.88051 0.13961 0.89097 0.0
H2292 H 0.87815 0.13091 0.813 0.0
H2293 H 0.86529 0.1427 0.84303 0.0
H2294 H 0.84734 0.13243 0.7733 0.0
H2295 H 0.84685 0.13237 0.6523 0.0
H2296 H 0.09091 0.14975 0.87146 0.0
H2297 H 0.09092 0.15051 0.99257 0.0
H2298 H 0.13124 0.16897 0.99007 0.0
H2299 H 0.13129 0.16843 0.8698 0.0
H2300 H 0.10869 0.13877 0.08443 0.0
H2301 H 0.11011 0.19567 0.107 0.0
H2302 H 0.1062 0.18706 1.03026 0.0
H2303 H 0.12376 0.18874 0.05719 0.0
C2304 C 0.09978 0.15398 0.89658 0.0
C2305 C 0.11105 0.15911 0.86027 0.0
C2306 C 0.09977 0.15442 0.966 0.0
C2307 C 0.11096 0.16006 1.0008 0.0
C2308 C 0.12232 0.16489 0.9647 0.0
H2309 H 0.13141 0.17205 0.41869 0.0
H2310 H 0.13144 0.17128 0.29759 0.0
C2311 C 0.12235 0.16447 0.89555 0.0
C2312 C 0.11092 0.16073 0.07469 0.0
H2313 H 0.11373 0.18293 0.20559 0.0
C2314 C 0.10971 0.14844 0.11086 0.0
C2315 C 0.11231 0.17333 0.10958 0.0
C2316 C 0.11304 0.18697 0.07413 0.0
C2317 C 0.11012 0.14837 0.18044 0.0
C2318 C 0.11151 0.16098 0.21534 0.0
C2319 C 0.11272 0.17326 0.17917 0.0
C2320 C 0.11144 0.16164 0.28923 0.0
C2321 C 0.10941 0.13473 0.21588 0.0
C2322 C 0.10009 0.15677 0.32527 0.0
C2323 C 0.10004 0.15719 0.39443 0.0
C2324 C 0.11131 0.16261 0.42978 0.0
C2325 C 0.12256 0.16778 0.39352 0.0
C2326 C 0.1226 0.16734 0.3241 0.0
H2327 H 0.11238 0.12604 0.18303 0.0
H2328 H 0.11622 0.13465 0.25984 0.0
H2329 H 0.09868 0.13292 0.23265 0.0
H2330 H 0.09119 0.15265 0.29986 0.0
H2331 H 0.09112 0.1532 0.42011 0.0
H2332 H 0.17375 0.88811 0.65705 0.0
H2333 H 0.17271 0.88775 0.77806 0.0
H2334 H 0.15418 0.92812 0.77774 0.0
H2335 H 0.15491 0.92845 0.6574 0.0
H2336 H 0.18381 0.9042 0.8733 0.0
H2337 H 0.12699 0.90732 0.88975 0.0
H2338 H 0.13583 0.90388 0.8131 0.0
H2339 H 0.13433 0.92125 0.84356 0.0
C2340 C 0.16948 0.89693 0.68267 0.0
C2341 C 0.16431 0.90826 0.64698 0.0
C2342 C 0.16887 0.89671 0.75205 0.0
C2343 C 0.16306 0.90777 0.78744 0.0
C2344 C 0.15833 0.91926 0.75194 0.0
H2345 H 0.15104 0.92832 0.20395 0.0
H2346 H 0.15225 0.92814 0.08307 0.0
C2347 C 0.15887 0.91948 0.68278 0.0
C2348 C 0.16203 0.90739 0.86129 0.0
H2349 H 0.13933 0.91054 0.99008 0.0
C2350 C 0.17406 0.90549 0.89872 0.0
C2351 C 0.14932 0.90907 0.89499 0.0
C2352 C 0.13586 0.91036 0.85833 0.0
C2353 C 0.17379 0.90555 0.96835 0.0
C2354 C 0.1611 0.90737 1.00193 0.0
C2355 C 0.14907 0.90921 0.96459 0.0
C2356 C 0.16011 0.90734 0.0757 0.0
C2357 C 0.18716 0.90399 1.00542 0.0
C2358 C 0.16384 0.89562 0.11219 0.0
C2359 C 0.16311 0.89566 0.18137 0.0
C2360 C 0.15859 0.90743 0.21609 0.0
C2361 C 0.15459 0.91907 0.17927 0.0
C2362 C 0.15528 0.91899 0.10996 0.0
H2363 H 0.1962 0.90617 0.97351 0.0
H2364 H 0.18747 0.91098 0.04883 0.0
H2365 H 0.18808 0.89324 1.02347 0.0
H2366 H 0.16732 0.88639 0.08711 0.0
H2367 H 0.16624 0.88646 0.2076 0.0
loop_
_geom_bond_atom_site_label_1
_geom_bond_atom_site_label_2
_geom_bond_distance
_geom_bond_site_symmetry_2
_ccdc_geom_bond_type
Nd0 C2 2.836 . S
Nd0 O20 2.500 . S
Nd0 O21 2.492 . S
Nd0 O22 2.487 . S
Nd0 O23 2.682 . S
Nd0 O24 2.410 . S
Nd0 O29 2.414 . S
Nd0 O31 2.424 . S
Nd1 C11 2.836 . S
Nd1 O23 2.414 . S
Nd1 O25 2.424 . S
Nd1 O26 2.500 . S
Nd1 O27 2.492 . S
Nd1 O28 2.487 . S
Nd1 O29 2.682 . S
Nd1 O30 2.410 . S
C2 Nd0 2.836 . S
C2 C3 1.498 . S
C2 O20 1.258 . S
C2 O21 1.239 . S
C3 C2 1.498 . S
C3 C4 1.366 . S
C3 C8 1.407 . S
C4 C3 1.366 . S
C4 C5 1.392 . S
C4 H32 0.930 . S
C5 C4 1.392 . S
C5 C6 1.398 . S
C5 H33 0.929 . S
C6 C5 1.398 . S
C6 C7 1.352 . S
C7 C6 1.352 . S
C7 C8 1.384 . S
C7 H34 0.930 . S
C8 C3 1.407 . S
C8 C7 1.384 . S
C8 H35 0.929 . S
C9 O22 1.241 . S
C9 O23 1.273 . S
C10 O24 1.251 . S
C10 O25 1.268 . S
C11 Nd1 2.836 . S
C11 C12 1.498 . S
C11 O26 1.258 . S
C11 O27 1.239 . S
C12 C11 1.498 . S
C12 C13 1.366 1_554 S
C12 C17 1.407 . S
C13 C12 1.366 1_556 S
C13 C14 1.392 . S
C13 H36 0.930 . S
C14 C13 1.392 . S
C14 C15 1.398 . S
C14 H37 0.929 . S
C15 C14 1.398 . S
C15 C16 1.352 . S
C16 C15 1.352 . S
C16 C17 1.384 1_556 S
C16 H38 0.930 . S
C17 C12 1.407 . S
C17 C16 1.384 1_554 S
C17 H39 0.929 . S
C18 O28 1.241 . S
C18 O29 1.273 . S
C19 O30 1.251 . S
C19 O31 1.268 . S
O20 Nd0 2.500 . S
O20 C2 1.258 . S
O21 Nd0 2.492 . S
O21 C2 1.239 . S
O22 Nd0 2.487 . S
O22 C9 1.241 . S
O23 Nd0 2.682 . S
O23 Nd1 2.414 . S
O23 C9 1.273 . S
O24 Nd0 2.410 . S
O24 C10 1.251 . S
O25 Nd1 2.424 . S
O25 C10 1.268 . S
O26 Nd1 2.500 . S
O26 C11 1.258 . S
O27 Nd1 2.492 . S
O27 C11 1.239 . S
O28 Nd1 2.487 . S
O28 C18 1.241 . S
O29 Nd0 2.414 . S
O29 Nd1 2.682 . S
O29 C18 1.273 . S
O30 Nd1 2.410 . S
O30 C19 1.251 . S
O31 Nd0 2.424 . S
O31 C19 1.268 . S
H32 C4 0.930 . S
H33 C5 0.929 . S
H34 C7 0.930 . S
H35 C8 0.929 . S
H36 C13 0.930 . S
H37 C14 0.929 . S
H38 C16 0.930 . S
H39 C17 0.929 . S
Nd40 C42 2.836 . S
Nd40 O60 2.500 . S
Nd40 O61 2.492 . S
Nd40 O62 2.487 . S
Nd40 O63 2.682 . S
Nd40 O64 2.410 . S
Nd40 O69 2.414 . S
Nd40 O71 2.424 . S
Nd41 C51 2.836 . S
Nd41 O63 2.414 . S
Nd41 O65 2.424 . S
Nd41 O66 2.500 . S
Nd41 O67 2.492 . S
Nd41 O68 2.487 . S
Nd41 O69 2.682 . S
Nd41 O70 2.410 . S
C42 Nd40 2.836 . S
C42 C43 1.498 . S
C42 O60 1.258 . S
C42 O61 1.239 . S
C43 C42 1.498 . S
C43 C44 1.366 1_556 S
C43 C48 1.407 . S
C44 C43 1.366 1_554 S
C44 C45 1.392 . S
C44 H72 0.930 . S
C45 C44 1.392 . S
C45 C46 1.398 . S
C45 H73 0.929 . S
C46 C45 1.398 . S
C46 C47 1.352 . S
C47 C46 1.352 . S
C47 C48 1.384 1_554 S
C47 H74 0.930 . S
C48 C43 1.407 . S
C48 C47 1.384 1_556 S
C48 H75 0.929 . S
C49 O62 1.241 . S
C49 O63 1.273 . S
C50 O64 1.251 . S
C50 O65 1.268 . S
C51 Nd41 2.836 . S
C51 C52 1.498 . S
C51 O66 1.258 . S
C51 O67 1.239 . S
C52 C51 1.498 . S
C52 C53 1.366 . S
C52 C57 1.407 . S
C53 C52 1.366 . S
C53 C54 1.392 . S
C53 H76 0.930 . S
C54 C53 1.392 . S
C54 C55 1.398 . S
C54 H77 0.929 . S
C55 C54 1.398 . S
C55 C56 1.352 . S
C56 C55 1.352 . S
C56 C57 1.384 . S
C56 H78 0.930 . S
C57 C52 1.407 . S
C57 C56 1.384 . S
C57 H79 0.929 . S
C58 O68 1.241 . S
C58 O69 1.273 . S
C59 O70 1.251 . S
C59 O71 1.268 . S
O60 Nd40 2.500 . S
O60 C42 1.258 . S
O61 Nd40 2.492 . S
O61 C42 1.239 . S
O62 Nd40 2.487 . S
O62 C49 1.241 . S
O63 Nd40 2.682 . S
O63 Nd41 2.414 . S
O63 C49 1.273 . S
O64 Nd40 2.410 . S
O64 C50 1.251 . S
O65 Nd41 2.424 . S
O65 C50 1.268 . S
O66 Nd41 2.500 . S
O66 C51 1.258 . S
O67 Nd41 2.492 . S
O67 C51 1.239 . S
O68 Nd41 2.487 . S
O68 C58 1.241 . S
O69 Nd40 2.414 . S
O69 Nd41 2.682 . S
O69 C58 1.273 . S
O70 Nd41 2.410 . S
O70 C59 1.251 . S
O71 Nd40 2.424 . S
O71 C59 1.268 . S
H72 C44 0.930 . S
H73 C45 0.929 . S
H74 C47 0.930 . S
H75 C48 0.929 . S
H76 C53 0.930 . S
H77 C54 0.929 . S
H78 C56 0.930 . S
H79 C57 0.929 . S
Nd80 C82 2.836 . S
Nd80 O100 2.500 . S
Nd80 O101 2.492 . S
Nd80 O102 2.487 . S
Nd80 O103 2.682 . S
Nd80 O104 2.410 . S
Nd80 O109 2.414 . S
Nd80 O111 2.424 . S
Nd81 C91 2.836 . S
Nd81 O103 2.414 . S
Nd81 O105 2.424 . S
Nd81 O106 2.500 . S
Nd81 O107 2.492 . S
Nd81 O108 2.487 . S
Nd81 O109 2.682 . S
Nd81 O110 2.410 . S
C82 Nd80 2.836 . S
C82 C83 1.498 . S
C82 O100 1.258 . S
C82 O101 1.239 . S
C83 C82 1.498 . S
C83 C84 1.366 . S
C83 C88 1.407 . S
C84 C83 1.366 . S
C84 C85 1.392 . S
C84 H112 0.930 . S
C85 C84 1.392 . S
C85 C86 1.398 . S
C85 H113 0.929 . S
C86 C85 1.398 . S
C86 C87 1.352 . S
C87 C86 1.352 . S
C87 C88 1.384 . S
C87 H114 0.930 . S
C88 C83 1.407 . S
C88 C87 1.384 . S
C88 H115 0.929 . S
C89 O102 1.241 . S
C89 O103 1.273 . S
C90 O104 1.251 . S
C90 O105 1.268 . S
C91 Nd81 2.836 . S
C91 C92 1.498 . S
C91 O106 1.258 . S
C91 O107 1.239 . S
C92 C91 1.498 . S
C92 C93 1.366 1_554 S
C92 C97 1.407 . S
C93 C92 1.366 1_556 S
C93 C94 1.392 . S
C93 H116 0.930 . S
C94 C93 1.392 . S
C94 C95 1.398 . S
C94 H117 0.929 . S
C95 C94 1.398 . S
C95 C96 1.352 . S
C96 C95 1.352 . S
C96 C97 1.384 1_556 S
C96 H118 0.930 . S
C97 C92 1.407 . S
C97 C96 1.384 1_554 S
C97 H119 0.929 . S
C98 O108 1.241 . S
C98 O109 1.273 . S
C99 O110 1.251 . S
C99 O111 1.268 . S
O100 Nd80 2.500 . S
O100 C82 1.258 . S
O101 Nd80 2.492 . S
O101 C82 1.239 . S
O102 Nd80 2.487 . S
O102 C89 1.241 . S
O103 Nd80 2.682 . S
O103 Nd81 2.414 . S
O103 C89 1.273 . S
O104 Nd80 2.410 . S
O104 C90 1.251 . S
O105 Nd81 2.424 . S
O105 C90 1.268 . S
O106 Nd81 2.500 . S
O106 C91 1.258 . S
O107 Nd81 2.492 . S
O107 C91 1.239 . S
O108 Nd81 2.487 . S
O108 C98 1.241 . S
O109 Nd80 2.414 . S
O109 Nd81 2.682 . S
O109 C98 1.273 . S
O110 Nd81 2.410 . S
O110 C99 1.251 . S
O111 Nd80 2.424 . S
O111 C99 1.268 . S
H112 C84 0.930 . S
H113 C85 0.929 . S
H114 C87 0.930 . S
H115 C88 0.929 . S
H116 C93 0.930 . S
H117 C94 0.929 . S
H118 C96 0.930 . S
H119 C97 0.929 . S
Nd120 C122 2.836 . S
Nd120 O140 2.500 . S
Nd120 O141 2.492 . S
Nd120 O142 2.487 . S
Nd120 O143 2.682 . S
Nd120 O144 2.410 . S
Nd120 O149 2.414 . S
Nd120 O151 2.424 . S
Nd121 C131 2.836 . S
Nd121 O143 2.414 . S
Nd121 O145 2.424 . S
Nd121 O146 2.500 . S
Nd121 O147 2.492 . S
Nd121 O148 2.487 . S
Nd121 O149 2.682 . S
Nd121 O150 2.410 . S
C122 Nd120 2.836 . S
C122 C123 1.498 . S
C122 O140 1.258 . S
C122 O141 1.239 . S
C123 C122 1.498 . S
C123 C124 1.366 1_556 S
C123 C128 1.407 . S
C124 C123 1.366 1_554 S
C124 C125 1.392 . S
C124 H152 0.930 . S
C125 C124 1.392 . S
C125 C126 1.398 . S
C125 H153 0.929 . S
C126 C125 1.398 . S
C126 C127 1.352 . S
C127 C126 1.352 . S
C127 C128 1.384 1_554 S
C127 H154 0.930 . S
C128 C123 1.407 . S
C128 C127 1.384 1_556 S
C128 H155 0.929 . S
C129 O142 1.241 . S
C129 O143 1.273 . S
C130 O144 1.251 . S
C130 O145 1.268 . S
C131 Nd121 2.836 . S
C131 C132 1.498 . S
C131 O146 1.258 . S
C131 O147 1.239 . S
C132 C131 1.498 . S
C132 C133 1.366 . S
C132 C137 1.407 . S
C133 C132 1.366 . S
C133 C134 1.392 . S
C133 H156 0.930 . S
C134 C133 1.392 . S
C134 C135 1.398 . S
C134 H157 0.929 . S
C135 C134 1.398 . S
C135 C136 1.352 . S
C136 C135 1.352 . S
C136 C137 1.384 . S
C136 H158 0.930 . S
C137 C132 1.407 . S
C137 C136 1.384 . S
C137 H159 0.929 . S
C138 O148 1.241 . S
C138 O149 1.273 . S
C139 O150 1.251 . S
C139 O151 1.268 . S
O140 Nd120 2.500 . S
O140 C122 1.258 . S
O141 Nd120 2.492 . S
O141 C122 1.239 . S
O142 Nd120 2.487 . S
O142 C129 1.241 . S
O143 Nd120 2.682 . S
O143 Nd121 2.414 . S
O143 C129 1.273 . S
O144 Nd120 2.410 . S
O144 C130 1.251 . S
O145 Nd121 2.424 . S
O145 C130 1.268 . S
O146 Nd121 2.500 . S
O146 C131 1.258 . S
O147 Nd121 2.492 . S
O147 C131 1.239 . S
O148 Nd121 2.487 . S
O148 C138 1.241 . S
O149 Nd120 2.414 . S
O149 Nd121 2.682 . S
O149 C138 1.273 . S
O150 Nd121 2.410 . S
O150 C139 1.251 . S
O151 Nd120 2.424 . S
O151 C139 1.268 . S
H152 C124 0.930 . S
H153 C125 0.929 . S
H154 C127 0.930 . S
H155 C128 0.929 . S
H156 C133 0.930 . S
H157 C134 0.929 . S
H158 C136 0.930 . S
H159 C137 0.929 . S
Nd160 C162 2.836 . S
Nd160 O180 2.500 . S
Nd160 O181 2.492 . S
Nd160 O182 2.487 . S
Nd160 O183 2.682 . S
Nd160 O184 2.410 . S
Nd160 O189 2.414 . S
Nd160 O191 2.424 . S
Nd161 C171 2.836 . S
Nd161 O183 2.414 . S
Nd161 O185 2.424 1_554 S
Nd161 O186 2.500 . S
Nd161 O187 2.492 . S
Nd161 O188 2.487 . S
Nd161 O189 2.682 . S
Nd161 O190 2.410 . S
C162 Nd160 2.836 . S
C162 C163 1.498 . S
C162 O180 1.258 . S
C162 O181 1.239 . S
C163 C162 1.498 . S
C163 C164 1.366 1_554 S
C163 C168 1.407 . S
C164 C163 1.366 1_556 S
C164 C165 1.392 . S
C164 H192 0.930 . S
C165 C164 1.392 . S
C165 C166 1.398 . S
C165 H193 0.929 . S
C166 C165 1.398 . S
C166 C167 1.352 . S
C167 C166 1.352 . S
C167 C168 1.384 1_556 S
C167 H194 0.930 . S
C168 C163 1.407 . S
C168 C167 1.384 1_554 S
C168 H195 0.929 . S
C169 O182 1.241 . S
C169 O183 1.273 . S
C170 O184 1.251 1_556 S
C170 O185 1.268 . S
C171 Nd161 2.836 . S
C171 C172 1.498 . S
C171 O186 1.258 . S
C171 O187 1.239 . S
C172 C171 1.498 . S
C172 C173 1.366 . S
C172 C177 1.407 . S
C173 C172 1.366 . S
C173 C174 1.392 . S
C173 H196 0.930 . S
C174 C173 1.392 . S
C174 C175 1.398 . S
C174 H197 0.929 . S
C175 C174 1.398 . S
C175 C176 1.352 . S
C176 C175 1.352 . S
C176 C177 1.384 . S
C176 H198 0.930 . S
C177 C172 1.407 . S
C177 C176 1.384 . S
C177 H199 0.929 . S
C178 O188 1.241 . S
C178 O189 1.273 . S
C179 O190 1.251 . S
C179 O191 1.268 . S
O180 Nd160 2.500 . S
O180 C162 1.258 . S
O181 Nd160 2.492 . S
O181 C162 1.239 . S
O182 Nd160 2.487 . S
O182 C169 1.241 . S
O183 Nd160 2.682 . S
O183 Nd161 2.414 . S
O183 C169 1.273 . S
O184 Nd160 2.410 . S
O184 C170 1.251 1_554 S
O185 Nd161 2.424 1_556 S
O185 C170 1.268 . S
O186 Nd161 2.500 . S
O186 C171 1.258 . S
O187 Nd161 2.492 . S
O187 C171 1.239 . S
O188 Nd161 2.487 . S
O188 C178 1.241 . S
O189 Nd160 2.414 . S
O189 Nd161 2.682 . S
O189 C178 1.273 . S
O190 Nd161 2.410 . S
O190 C179 1.251 . S
O191 Nd160 2.424 . S
O191 C179 1.268 . S
H192 C164 0.930 . S
H193 C165 0.929 . S
H194 C167 0.930 . S
H195 C168 0.929 . S
H196 C173 0.930 . S
H197 C174 0.929 . S
H198 C176 0.930 . S
H199 C177 0.929 . S
Nd200 C202 2.836 . S
Nd200 O220 2.500 . S
Nd200 O221 2.492 . S
Nd200 O222 2.487 . S
Nd200 O223 2.682 . S
Nd200 O224 2.410 . S
Nd200 O229 2.414 . S
Nd200 O231 2.424 1_556 S
Nd201 C211 2.836 . S
Nd201 O223 2.414 . S
Nd201 O225 2.424 . S
Nd201 O226 2.500 . S
Nd201 O227 2.492 . S
Nd201 O228 2.487 . S
Nd201 O229 2.682 . S
Nd201 O230 2.410 . S
C202 Nd200 2.836 . S
C202 C203 1.498 . S
C202 O220 1.258 . S
C202 O221 1.239 . S
C203 C202 1.498 . S
C203 C204 1.366 . S
C203 C208 1.407 . S
C204 C203 1.366 . S
C204 C205 1.392 . S
C204 H232 0.930 . S
C205 C204 1.392 . S
C205 C206 1.398 . S
C205 H233 0.929 . S
C206 C205 1.398 . S
C206 C207 1.352 . S
C207 C206 1.352 . S
C207 C208 1.384 . S
C207 H234 0.930 . S
C208 C203 1.407 . S
C208 C207 1.384 . S
C208 H235 0.929 . S
C209 O222 1.241 . S
C209 O223 1.273 . S
C210 O224 1.251 . S
C210 O225 1.268 . S
C211 Nd201 2.836 . S
C211 C212 1.498 . S
C211 O226 1.258 . S
C211 O227 1.239 . S
C212 C211 1.498 . S
C212 C213 1.366 1_556 S
C212 C217 1.407 . S
C213 C212 1.366 1_554 S
C213 C214 1.392 . S
C213 H236 0.930 . S
C214 C213 1.392 . S
C214 C215 1.398 . S
C214 H237 0.929 . S
C215 C214 1.398 . S
C215 C216 1.352 . S
C216 C215 1.352 . S
C216 C217 1.384 1_554 S
C216 H238 0.930 . S
C217 C212 1.407 . S
C217 C216 1.384 1_556 S
C217 H239 0.929 . S
C218 O228 1.241 . S
C218 O229 1.273 . S
C219 O230 1.251 1_554 S
C219 O231 1.268 . S
O220 Nd200 2.500 . S
O220 C202 1.258 . S
O221 Nd200 2.492 . S
O221 C202 1.239 . S
O222 Nd200 2.487 . S
O222 C209 1.241 . S
O223 Nd200 2.682 . S
O223 Nd201 2.414 . S
O223 C209 1.273 . S
O224 Nd200 2.410 . S
O224 C210 1.251 . S
O225 Nd201 2.424 . S
O225 C210 1.268 . S
O226 Nd201 2.500 . S
O226 C211 1.258 . S
O227 Nd201 2.492 . S
O227 C211 1.239 . S
O228 Nd201 2.487 . S
O228 C218 1.241 . S
O229 Nd200 2.414 . S
O229 Nd201 2.682 . S
O229 C218 1.273 . S
O230 Nd201 2.410 . S
O230 C219 1.251 1_556 S
O231 Nd200 2.424 1_554 S
O231 C219 1.268 . S
H232 C204 0.930 . S
H233 C205 0.929 . S
H234 C207 0.930 . S
H235 C208 0.929 . S
H236 C213 0.930 . S
H237 C214 0.929 . S
H238 C216 0.930 . S
H239 C217 0.929 . S
Nd240 C242 2.836 . S
Nd240 O260 2.500 . S
Nd240 O261 2.492 . S
Nd240 O262 2.487 . S
Nd240 O263 2.682 . S
Nd240 O264 2.410 . S
Nd240 O269 2.414 . S
Nd240 O271 2.424 . S
Nd241 C251 2.836 . S
Nd241 O263 2.414 . S
Nd241 O265 2.424 1_554 S
Nd241 O266 2.500 . S
Nd241 O267 2.492 . S
Nd241 O268 2.487 . S
Nd241 O269 2.682 . S
Nd241 O270 2.410 . S
C242 Nd240 2.836 . S
C242 C243 1.498 . S
C242 O260 1.258 . S
C242 O261 1.239 . S
C243 C242 1.498 . S
C243 C244 1.366 1_554 S
C243 C248 1.407 . S
C244 C243 1.366 1_556 S
C244 C245 1.392 . S
C244 H272 0.930 . S
C245 C244 1.392 . S
C245 C246 1.398 . S
C245 H273 0.929 . S
C246 C245 1.398 . S
C246 C247 1.352 . S
C247 C246 1.352 . S
C247 C248 1.384 1_556 S
C247 H274 0.930 . S
C248 C243 1.407 . S
C248 C247 1.384 1_554 S
C248 H275 0.929 . S
C249 O262 1.241 . S
C249 O263 1.273 . S
C250 O264 1.251 1_556 S
C250 O265 1.268 . S
C251 Nd241 2.836 . S
C251 C252 1.498 . S
C251 O266 1.258 . S
C251 O267 1.239 . S
C252 C251 1.498 . S
C252 C253 1.366 . S
C252 C257 1.407 . S
C253 C252 1.366 . S
C253 C254 1.392 . S
C253 H276 0.930 . S
C254 C253 1.392 . S
C254 C255 1.398 . S
C254 H277 0.929 . S
C255 C254 1.398 . S
C255 C256 1.352 . S
C256 C255 1.352 . S
C256 C257 1.384 . S
C256 H278 0.930 . S
C257 C252 1.407 . S
C257 C256 1.384 . S
C257 H279 0.929 . S
C258 O268 1.241 . S
C258 O269 1.273 . S
C259 O270 1.251 . S
C259 O271 1.268 . S
O260 Nd240 2.500 . S
O260 C242 1.258 . S
O261 Nd240 2.492 . S
O261 C242 1.239 . S
O262 Nd240 2.487 . S
O262 C249 1.241 . S
O263 Nd240 2.682 . S
O263 Nd241 2.414 . S
O263 C249 1.273 . S
O264 Nd240 2.410 . S
O264 C250 1.251 1_554 S
O265 Nd241 2.424 1_556 S
O265 C250 1.268 . S
O266 Nd241 2.500 . S
O266 C251 1.258 . S
O267 Nd241 2.492 . S
O267 C251 1.239 . S
O268 Nd241 2.487 . S
O268 C258 1.241 . S
O269 Nd240 2.414 . S
O269 Nd241 2.682 . S
O269 C258 1.273 . S
O270 Nd241 2.410 . S
O270 C259 1.251 . S
O271 Nd240 2.424 . S
O271 C259 1.268 . S
H272 C244 0.930 . S
H273 C245 0.929 . S
H274 C247 0.930 . S
H275 C248 0.929 . S
H276 C253 0.930 . S
H277 C254 0.929 . S
H278 C256 0.930 . S
H279 C257 0.929 . S
Nd280 C282 2.836 . S
Nd280 O300 2.500 . S
Nd280 O301 2.492 . S
Nd280 O302 2.487 . S
Nd280 O303 2.682 . S
Nd280 O304 2.410 . S
Nd280 O309 2.414 . S
Nd280 O311 2.424 1_556 S
Nd281 C291 2.836 . S
Nd281 O303 2.414 . S
Nd281 O305 2.424 . S
Nd281 O306 2.500 . S
Nd281 O307 2.492 . S
Nd281 O308 2.487 . S
Nd281 O309 2.682 . S
Nd281 O310 2.410 . S
C282 Nd280 2.836 . S
C282 C283 1.498 . S
C282 O300 1.258 . S
C282 O301 1.239 . S
C283 C282 1.498 . S
C283 C284 1.366 . S
C283 C288 1.407 . S
C284 C283 1.366 . S
C284 C285 1.392 . S
C284 H312 0.930 . S
C285 C284 1.392 . S
C285 C286 1.398 . S
C285 H313 0.929 . S
C286 C285 1.398 . S
C286 C287 1.352 . S
C287 C286 1.352 . S
C287 C288 1.384 . S
C287 H314 0.930 . S
C288 C283 1.407 . S
C288 C287 1.384 . S
C288 H315 0.929 . S
C289 O302 1.241 . S
C289 O303 1.273 . S
C290 O304 1.251 . S
C290 O305 1.268 . S
C291 Nd281 2.836 . S
C291 C292 1.498 . S
C291 O306 1.258 . S
C291 O307 1.239 . S
C292 C291 1.498 . S
C292 C293 1.366 1_556 S
C292 C297 1.407 . S
C293 C292 1.366 1_554 S
C293 C294 1.392 . S
C293 H316 0.930 . S
C294 C293 1.392 . S
C294 C295 1.398 . S
C294 H317 0.929 . S
C295 C294 1.398 . S
C295 C296 1.352 . S
C296 C295 1.352 . S
C296 C297 1.384 1_554 S
C296 H318 0.930 . S
C297 C292 1.407 . S
C297 C296 1.384 1_556 S
C297 H319 0.929 . S
C298 O308 1.241 . S
C298 O309 1.273 . S
C299 O310 1.251 1_554 S
C299 O311 1.268 . S
O300 Nd280 2.500 . S
O300 C282 1.258 . S
O301 Nd280 2.492 . S
O301 C282 1.239 . S
O302 Nd280 2.487 . S
O302 C289 1.241 . S
O303 Nd280 2.682 . S
O303 Nd281 2.414 . S
O303 C289 1.273 . S
O304 Nd280 2.410 . S
O304 C290 1.251 . S
O305 Nd281 2.424 . S
O305 C290 1.268 . S
O306 Nd281 2.500 . S
O306 C291 1.258 . S
O307 Nd281 2.492 . S
O307 C291 1.239 . S
O308 Nd281 2.487 . S
O308 C298 1.241 . S
O309 Nd280 2.414 . S
O309 Nd281 2.682 . S
O309 C298 1.273 . S
O310 Nd281 2.410 . S
O310 C299 1.251 1_556 S
O311 Nd280 2.424 1_554 S
O311 C299 1.268 . S
H312 C284 0.930 . S
H313 C285 0.929 . S
H314 C287 0.930 . S
H315 C288 0.929 . S
H316 C293 0.930 . S
H317 C294 0.929 . S
H318 C296 0.930 . S
H319 C297 0.929 . S
Nd320 C322 2.836 . S
Nd320 O340 2.500 . S
Nd320 O341 2.492 . S
Nd320 O342 2.487 . S
Nd320 O343 2.682 . S
Nd320 O344 2.410 . S
Nd320 O349 2.414 . S
Nd320 O351 2.424 . S
Nd321 C331 2.836 . S
Nd321 O343 2.414 . S
Nd321 O345 2.424 . S
Nd321 O346 2.500 . S
Nd321 O347 2.492 . S
Nd321 O348 2.487 . S
Nd321 O349 2.682 . S
Nd321 O350 2.410 . S
C322 Nd320 2.836 . S
C322 C323 1.498 . S
C322 O340 1.258 . S
C322 O341 1.239 . S
C323 C322 1.498 . S
C323 C324 1.366 . S
C323 C328 1.407 . S
C324 C323 1.366 . S
C324 C325 1.392 . S
C324 H352 0.930 . S
C325 C324 1.392 . S
C325 C326 1.398 . S
C325 H353 0.929 . S
C326 C325 1.398 . S
C326 C327 1.352 . S
C327 C326 1.352 . S
C327 C328 1.384 . S
C327 H354 0.930 . S
C328 C323 1.407 . S
C328 C327 1.384 . S
C328 H355 0.929 . S
C329 O342 1.241 . S
C329 O343 1.273 . S
C330 O344 1.251 . S
C330 O345 1.268 . S
C331 Nd321 2.836 . S
C331 C332 1.498 . S
C331 O346 1.258 . S
C331 O347 1.239 . S
C332 C331 1.498 . S
C332 C333 1.366 . S
C332 C337 1.407 . S
C333 C332 1.366 . S
C333 C334 1.392 . S
C333 H356 0.930 . S
C334 C333 1.392 . S
C334 C335 1.398 . S
C334 H357 0.929 . S
C335 C334 1.398 . S
C335 C336 1.352 . S
C336 C335 1.352 . S
C336 C337 1.384 . S
C336 H358 0.930 . S
C337 C332 1.407 . S
C337 C336 1.384 . S
C337 H359 0.929 . S
C338 O348 1.241 . S
C338 O349 1.273 . S
C339 O350 1.251 . S
C339 O351 1.268 . S
O340 Nd320 2.500 . S
O340 C322 1.258 . S
O341 Nd320 2.492 . S
O341 C322 1.239 . S
O342 Nd320 2.487 . S
O342 C329 1.241 . S
O343 Nd320 2.682 . S
O343 Nd321 2.414 . S
O343 C329 1.273 . S
O344 Nd320 2.410 . S
O344 C330 1.251 . S
O345 Nd321 2.424 . S
O345 C330 1.268 . S
O346 Nd321 2.500 . S
O346 C331 1.258 . S
O347 Nd321 2.492 . S
O347 C331 1.239 . S
O348 Nd321 2.487 . S
O348 C338 1.241 . S
O349 Nd320 2.414 . S
O349 Nd321 2.682 . S
O349 C338 1.273 . S
O350 Nd321 2.410 . S
O350 C339 1.251 . S
O351 Nd320 2.424 . S
O351 C339 1.268 . S
H352 C324 0.930 . S
H353 C325 0.929 . S
H354 C327 0.930 . S
H355 C328 0.929 . S
H356 C333 0.930 . S
H357 C334 0.929 . S
H358 C336 0.930 . S
H359 C337 0.929 . S
Nd360 C362 2.836 . S
Nd360 O380 2.500 . S
Nd360 O381 2.492 . S
Nd360 O382 2.487 . S
Nd360 O383 2.682 . S
Nd360 O384 2.410 . S
Nd360 O389 2.414 . S
Nd360 O391 2.424 . S
Nd361 C371 2.836 . S
Nd361 O383 2.414 . S
Nd361 O385 2.424 . S
Nd361 O386 2.500 . S
Nd361 O387 2.492 . S
Nd361 O388 2.487 . S
Nd361 O389 2.682 . S
Nd361 O390 2.410 . S
C362 Nd360 2.836 . S
C362 C363 1.498 . S
C362 O380 1.258 . S
C362 O381 1.239 . S
C363 C362 1.498 . S
C363 C364 1.366 . S
C363 C368 1.407 . S
C364 C363 1.366 . S
C364 C365 1.392 . S
C364 H392 0.930 . S
C365 C364 1.392 . S
C365 C366 1.398 . S
C365 H393 0.929 . S
C366 C365 1.398 . S
C366 C367 1.352 . S
C367 C366 1.352 . S
C367 C368 1.384 . S
C367 H394 0.930 . S
C368 C363 1.407 . S
C368 C367 1.384 . S
C368 H395 0.929 . S
C369 O382 1.241 . S
C369 O383 1.273 . S
C370 O384 1.251 . S
C370 O385 1.268 . S
C371 Nd361 2.836 . S
C371 C372 1.498 . S
C371 O386 1.258 . S
C371 O387 1.239 . S
C372 C371 1.498 . S
C372 C373 1.366 . S
C372 C377 1.407 . S
C373 C372 1.366 . S
C373 C374 1.392 . S
C373 H396 0.930 . S
C374 C373 1.392 . S
C374 C375 1.398 . S
C374 H397 0.929 . S
C375 C374 1.398 . S
C375 C376 1.352 . S
C376 C375 1.352 . S
C376 C377 1.384 . S
C376 H398 0.930 . S
C377 C372 1.407 . S
C377 C376 1.384 . S
C377 H399 0.929 . S
C378 O388 1.241 . S
C378 O389 1.273 . S
C379 O390 1.251 . S
C379 O391 1.268 . S
O380 Nd360 2.500 . S
O380 C362 1.258 . S
O381 Nd360 2.492 . S
O381 C362 1.239 . S
O382 Nd360 2.487 . S
O382 C369 1.241 . S
O383 Nd360 2.682 . S
O383 Nd361 2.414 . S
O383 C369 1.273 . S
O384 Nd360 2.410 . S
O384 C370 1.251 . S
O385 Nd361 2.424 . S
O385 C370 1.268 . S
O386 Nd361 2.500 . S
O386 C371 1.258 . S
O387 Nd361 2.492 . S
O387 C371 1.239 . S
O388 Nd361 2.487 . S
O388 C378 1.241 . S
O389 Nd360 2.414 . S
O389 Nd361 2.682 . S
O389 C378 1.273 . S
O390 Nd361 2.410 . S
O390 C379 1.251 . S
O391 Nd360 2.424 . S
O391 C379 1.268 . S
H392 C364 0.930 . S
H393 C365 0.929 . S
H394 C367 0.930 . S
H395 C368 0.929 . S
H396 C373 0.930 . S
H397 C374 0.929 . S
H398 C376 0.930 . S
H399 C377 0.929 . S
Nd400 C402 2.836 . S
Nd400 O420 2.500 . S
Nd400 O421 2.492 . S
Nd400 O422 2.487 . S
Nd400 O423 2.682 . S
Nd400 O424 2.410 . S
Nd400 O429 2.414 . S
Nd400 O431 2.424 . S
Nd401 C411 2.836 . S
Nd401 O423 2.414 . S
Nd401 O425 2.424 . S
Nd401 O426 2.500 . S
Nd401 O427 2.492 . S
Nd401 O428 2.487 . S
Nd401 O429 2.682 . S
Nd401 O430 2.410 . S
C402 Nd400 2.836 . S
C402 C403 1.498 . S
C402 O420 1.258 . S
C402 O421 1.239 . S
C403 C402 1.498 . S
C403 C404 1.366 . S
C403 C408 1.407 . S
C404 C403 1.366 . S
C404 C405 1.392 . S
C404 H432 0.930 . S
C405 C404 1.392 . S
C405 C406 1.398 . S
C405 H433 0.929 . S
C406 C405 1.398 . S
C406 C407 1.352 . S
C407 C406 1.352 . S
C407 C408 1.384 . S
C407 H434 0.930 . S
C408 C403 1.407 . S
C408 C407 1.384 . S
C408 H435 0.929 . S
C409 O422 1.241 . S
C409 O423 1.273 . S
C410 O424 1.251 . S
C410 O425 1.268 . S
C411 Nd401 2.836 . S
C411 C412 1.498 . S
C411 O426 1.258 . S
C411 O427 1.239 . S
C412 C411 1.498 . S
C412 C413 1.366 . S
C412 C417 1.407 . S
C413 C412 1.366 . S
C413 C414 1.392 . S
C413 H436 0.930 . S
C414 C413 1.392 . S
C414 C415 1.398 . S
C414 H437 0.929 . S
C415 C414 1.398 . S
C415 C416 1.352 . S
C416 C415 1.352 . S
C416 C417 1.384 . S
C416 H438 0.930 . S
C417 C412 1.407 . S
C417 C416 1.384 . S
C417 H439 0.929 . S
C418 O428 1.241 . S
C418 O429 1.273 . S
C419 O430 1.251 . S
C419 O431 1.268 . S
O420 Nd400 2.500 . S
O420 C402 1.258 . S
O421 Nd400 2.492 . S
O421 C402 1.239 . S
O422 Nd400 2.487 . S
O422 C409 1.241 . S
O423 Nd400 2.682 . S
O423 Nd401 2.414 . S
O423 C409 1.273 . S
O424 Nd400 2.410 . S
O424 C410 1.251 . S
O425 Nd401 2.424 . S
O425 C410 1.268 . S
O426 Nd401 2.500 . S
O426 C411 1.258 . S
O427 Nd401 2.492 . S
O427 C411 1.239 . S
O428 Nd401 2.487 . S
O428 C418 1.241 . S
O429 Nd400 2.414 . S
O429 Nd401 2.682 . S
O429 C418 1.273 . S
O430 Nd401 2.410 . S
O430 C419 1.251 . S
O431 Nd400 2.424 . S
O431 C419 1.268 . S
H432 C404 0.930 . S
H433 C405 0.929 . S
H434 C407 0.930 . S
H435 C408 0.929 . S
H436 C413 0.930 . S
H437 C414 0.929 . S
H438 C416 0.930 . S
H439 C417 0.929 . S
Nd440 C442 2.836 . S
Nd440 O460 2.500 . S
Nd440 O461 2.492 . S
Nd440 O462 2.487 . S
Nd440 O463 2.682 . S
Nd440 O464 2.410 . S
Nd440 O469 2.414 . S
Nd440 O471 2.424 . S
Nd441 C451 2.836 . S
Nd441 O463 2.414 . S
Nd441 O465 2.424 . S
Nd441 O466 2.500 . S
Nd441 O467 2.492 . S
Nd441 O468 2.487 . S
Nd441 O469 2.682 . S
Nd441 O470 2.410 . S
C442 Nd440 2.836 . S
C442 C443 1.498 . S
C442 O460 1.258 . S
C442 O461 1.239 . S
C443 C442 1.498 . S
C443 C444 1.366 . S
C443 C448 1.407 . S
C444 C443 1.366 . S
C444 C445 1.392 . S
C444 H472 0.930 . S
C445 C444 1.392 . S
C445 C446 1.398 . S
C445 H473 0.929 . S
C446 C445 1.398 . S
C446 C447 1.352 . S
C447 C446 1.352 . S
C447 C448 1.384 . S
C447 H474 0.930 . S
C448 C443 1.407 . S
C448 C447 1.384 . S
C448 H475 0.929 . S
C449 O462 1.241 . S
C449 O463 1.273 . S
C450 O464 1.251 . S
C450 O465 1.268 . S
C451 Nd441 2.836 . S
C451 C452 1.498 . S
C451 O466 1.258 . S
C451 O467 1.239 . S
C452 C451 1.498 . S
C452 C453 1.366 . S
C452 C457 1.407 . S
C453 C452 1.366 . S
C453 C454 1.392 . S
C453 H476 0.930 . S
C454 C453 1.392 . S
C454 C455 1.398 . S
C454 H477 0.929 . S
C455 C454 1.398 . S
C455 C456 1.352 . S
C456 C455 1.352 . S
C456 C457 1.384 . S
C456 H478 0.930 . S
C457 C452 1.407 . S
C457 C456 1.384 . S
C457 H479 0.929 . S
C458 O468 1.241 . S
C458 O469 1.273 . S
C459 O470 1.251 . S
C459 O471 1.268 . S
O460 Nd440 2.500 . S
O460 C442 1.258 . S
O461 Nd440 2.492 . S
O461 C442 1.239 . S
O462 Nd440 2.487 . S
O462 C449 1.241 . S
O463 Nd440 2.682 . S
O463 Nd441 2.414 . S
O463 C449 1.273 . S
O464 Nd440 2.410 . S
O464 C450 1.251 . S
O465 Nd441 2.424 . S
O465 C450 1.268 . S
O466 Nd441 2.500 . S
O466 C451 1.258 . S
O467 Nd441 2.492 . S
O467 C451 1.239 . S
O468 Nd441 2.487 . S
O468 C458 1.241 . S
O469 Nd440 2.414 . S
O469 Nd441 2.682 . S
O469 C458 1.273 . S
O470 Nd441 2.410 . S
O470 C459 1.251 . S
O471 Nd440 2.424 . S
O471 C459 1.268 . S
H472 C444 0.930 . S
H473 C445 0.929 . S
H474 C447 0.930 . S
H475 C448 0.929 . S
H476 C453 0.930 . S
H477 C454 0.929 . S
H478 C456 0.930 . S
H479 C457 0.929 . S
Nd480 C482 2.836 . S
Nd480 O500 2.500 . S
Nd480 O501 2.492 . S
Nd480 O502 2.487 . S
Nd480 O503 2.682 . S
Nd480 O504 2.410 . S
Nd480 O509 2.414 . S
Nd480 O511 2.424 . S
Nd481 C491 2.836 . S
Nd481 O503 2.414 . S
Nd481 O505 2.424 . S
Nd481 O506 2.500 . S
Nd481 O507 2.492 . S
Nd481 O508 2.487 . S
Nd481 O509 2.682 . S
Nd481 O510 2.410 . S
C482 Nd480 2.836 . S
C482 C483 1.498 . S
C482 O500 1.258 . S
C482 O501 1.239 . S
C483 C482 1.498 . S
C483 C484 1.366 . S
C483 C488 1.407 . S
C484 C483 1.366 . S
C484 C485 1.392 . S
C484 H512 0.930 . S
C485 C484 1.392 . S
C485 C486 1.398 . S
C485 H513 0.929 . S
C486 C485 1.398 . S
C486 C487 1.352 . S
C487 C486 1.352 . S
C487 C488 1.384 . S
C487 H514 0.930 . S
C488 C483 1.407 . S
C488 C487 1.384 . S
C488 H515 0.929 . S
C489 O502 1.241 . S
C489 O503 1.273 . S
C490 O504 1.251 . S
C490 O505 1.268 . S
C491 Nd481 2.836 . S
C491 C492 1.498 . S
C491 O506 1.258 . S
C491 O507 1.239 . S
C492 C491 1.498 . S
C492 C493 1.366 . S
C492 C497 1.407 . S
C493 C492 1.366 . S
C493 C494 1.392 . S
C493 H516 0.930 . S
C494 C493 1.392 . S
C494 C495 1.398 . S
C494 H517 0.929 . S
C495 C494 1.398 . S
C495 C496 1.352 . S
C496 C495 1.352 . S
C496 C497 1.384 . S
C496 H518 0.930 . S
C497 C492 1.407 . S
C497 C496 1.384 . S
C497 H519 0.929 . S
C498 O508 1.241 . S
C498 O509 1.273 . S
C499 O510 1.251 . S
C499 O511 1.268 . S
O500 Nd480 2.500 . S
O500 C482 1.258 . S
O501 Nd480 2.492 . S
O501 C482 1.239 . S
O502 Nd480 2.487 . S
O502 C489 1.241 . S
O503 Nd480 2.682 . S
O503 Nd481 2.414 . S
O503 C489 1.273 . S
O504 Nd480 2.410 . S
O504 C490 1.251 . S
O505 Nd481 2.424 . S
O505 C490 1.268 . S
O506 Nd481 2.500 . S
O506 C491 1.258 . S
O507 Nd481 2.492 . S
O507 C491 1.239 . S
O508 Nd481 2.487 . S
O508 C498 1.241 . S
O509 Nd480 2.414 . S
O509 Nd481 2.682 . S
O509 C498 1.273 . S
O510 Nd481 2.410 . S
O510 C499 1.251 . S
O511 Nd480 2.424 . S
O511 C499 1.268 . S
H512 C484 0.930 . S
H513 C485 0.929 . S
H514 C487 0.930 . S
H515 C488 0.929 . S
H516 C493 0.930 . S
H517 C494 0.929 . S
H518 C496 0.930 . S
H519 C497 0.929 . S
Nd520 C522 2.836 . S
Nd520 O540 2.500 . S
Nd520 O541 2.492 . S
Nd520 O542 2.487 . S
Nd520 O543 2.682 . S
Nd520 O544 2.410 . S
Nd520 O549 2.414 . S
Nd520 O551 2.424 . S
Nd521 C531 2.836 . S
Nd521 O543 2.414 . S
Nd521 O545 2.424 . S
Nd521 O546 2.500 . S
Nd521 O547 2.492 . S
Nd521 O548 2.487 . S
Nd521 O549 2.682 . S
Nd521 O550 2.410 . S
C522 Nd520 2.836 . S
C522 C523 1.498 . S
C522 O540 1.258 . S
C522 O541 1.239 . S
C523 C522 1.498 . S
C523 C524 1.366 . S
C523 C528 1.407 . S
C524 C523 1.366 . S
C524 C525 1.392 . S
C524 H552 0.930 . S
C525 C524 1.392 . S
C525 C526 1.398 . S
C525 H553 0.929 . S
C526 C525 1.398 . S
C526 C527 1.352 . S
C527 C526 1.352 . S
C527 C528 1.384 . S
C527 H554 0.930 . S
C528 C523 1.407 . S
C528 C527 1.384 . S
C528 H555 0.929 . S
C529 O542 1.241 . S
C529 O543 1.273 . S
C530 O544 1.251 . S
C530 O545 1.268 . S
C531 Nd521 2.836 . S
C531 C532 1.498 . S
C531 O546 1.258 . S
C531 O547 1.239 . S
C532 C531 1.498 . S
C532 C533 1.366 . S
C532 C537 1.407 . S
C533 C532 1.366 . S
C533 C534 1.392 . S
C533 H556 0.930 . S
C534 C533 1.392 . S
C534 C535 1.398 . S
C534 H557 0.929 . S
C535 C534 1.398 . S
C535 C536 1.352 . S
C536 C535 1.352 . S
C536 C537 1.384 . S
C536 H558 0.930 . S
C537 C532 1.407 . S
C537 C536 1.384 . S
C537 H559 0.929 . S
C538 O548 1.241 . S
C538 O549 1.273 . S
C539 O550 1.251 . S
C539 O551 1.268 . S
O540 Nd520 2.500 . S
O540 C522 1.258 . S
O541 Nd520 2.492 . S
O541 C522 1.239 . S
O542 Nd520 2.487 . S
O542 C529 1.241 . S
O543 Nd520 2.682 . S
O543 Nd521 2.414 . S
O543 C529 1.273 . S
O544 Nd520 2.410 . S
O544 C530 1.251 . S
O545 Nd521 2.424 . S
O545 C530 1.268 . S
O546 Nd521 2.500 . S
O546 C531 1.258 . S
O547 Nd521 2.492 . S
O547 C531 1.239 . S
O548 Nd521 2.487 . S
O548 C538 1.241 . S
O549 Nd520 2.414 . S
O549 Nd521 2.682 . S
O549 C538 1.273 . S
O550 Nd521 2.410 . S
O550 C539 1.251 . S
O551 Nd520 2.424 . S
O551 C539 1.268 . S
H552 C524 0.930 . S
H553 C525 0.929 . S
H554 C527 0.930 . S
H555 C528 0.929 . S
H556 C533 0.930 . S
H557 C534 0.929 . S
H558 C536 0.930 . S
H559 C537 0.929 . S
Nd560 C562 2.836 . S
Nd560 O580 2.500 . S
Nd560 O581 2.492 . S
Nd560 O582 2.487 . S
Nd560 O583 2.682 . S
Nd560 O584 2.410 . S
Nd560 O589 2.414 . S
Nd560 O591 2.424 . S
Nd561 C571 2.836 . S
Nd561 O583 2.414 . S
Nd561 O585 2.424 . S
Nd561 O586 2.500 . S
Nd561 O587 2.492 . S
Nd561 O588 2.487 . S
Nd561 O589 2.682 . S
Nd561 O590 2.410 . S
C562 Nd560 2.836 . S
C562 C563 1.498 . S
C562 O580 1.258 . S
C562 O581 1.239 . S
C563 C562 1.498 . S
C563 C564 1.366 . S
C563 C568 1.407 . S
C564 C563 1.366 . S
C564 C565 1.392 . S
C564 H592 0.930 . S
C565 C564 1.392 . S
C565 C566 1.398 . S
C565 H593 0.929 . S
C566 C565 1.398 . S
C566 C567 1.352 . S
C567 C566 1.352 . S
C567 C568 1.384 . S
C567 H594 0.930 . S
C568 C563 1.407 . S
C568 C567 1.384 . S
C568 H595 0.929 . S
C569 O582 1.241 . S
C569 O583 1.273 . S
C570 O584 1.251 . S
C570 O585 1.268 . S
C571 Nd561 2.836 . S
C571 C572 1.498 . S
C571 O586 1.258 . S
C571 O587 1.239 . S
C572 C571 1.498 . S
C572 C573 1.366 . S
C572 C577 1.407 . S
C573 C572 1.366 . S
C573 C574 1.392 . S
C573 H596 0.930 . S
C574 C573 1.392 . S
C574 C575 1.398 . S
C574 H597 0.929 . S
C575 C574 1.398 . S
C575 C576 1.352 . S
C576 C575 1.352 . S
C576 C577 1.384 . S
C576 H598 0.930 . S
C577 C572 1.407 . S
C577 C576 1.384 . S
C577 H599 0.929 . S
C578 O588 1.241 . S
C578 O589 1.273 . S
C579 O590 1.251 . S
C579 O591 1.268 . S
O580 Nd560 2.500 . S
O580 C562 1.258 . S
O581 Nd560 2.492 . S
O581 C562 1.239 . S
O582 Nd560 2.487 . S
O582 C569 1.241 . S
O583 Nd560 2.682 . S
O583 Nd561 2.414 . S
O583 C569 1.273 . S
O584 Nd560 2.410 . S
O584 C570 1.251 . S
O585 Nd561 2.424 . S
O585 C570 1.268 . S
O586 Nd561 2.500 . S
O586 C571 1.258 . S
O587 Nd561 2.492 . S
O587 C571 1.239 . S
O588 Nd561 2.487 . S
O588 C578 1.241 . S
O589 Nd560 2.414 . S
O589 Nd561 2.682 . S
O589 C578 1.273 . S
O590 Nd561 2.410 . S
O590 C579 1.251 . S
O591 Nd560 2.424 . S
O591 C579 1.268 . S
H592 C564 0.930 . S
H593 C565 0.929 . S
H594 C567 0.930 . S
H595 C568 0.929 . S
H596 C573 0.930 . S
H597 C574 0.929 . S
H598 C576 0.930 . S
H599 C577 0.929 . S
Nd600 C602 2.836 . S
Nd600 O620 2.500 . S
Nd600 O621 2.492 . S
Nd600 O622 2.487 . S
Nd600 O623 2.682 . S
Nd600 O624 2.410 . S
Nd600 O629 2.414 . S
Nd600 O631 2.424 . S
Nd601 C611 2.836 . S
Nd601 O623 2.414 . S
Nd601 O625 2.424 . S
Nd601 O626 2.500 . S
Nd601 O627 2.492 . S
Nd601 O628 2.487 . S
Nd601 O629 2.682 . S
Nd601 O630 2.410 . S
C602 Nd600 2.836 . S
C602 C603 1.498 . S
C602 O620 1.258 . S
C602 O621 1.239 . S
C603 C602 1.498 . S
C603 C604 1.366 . S
C603 C608 1.407 . S
C604 C603 1.366 . S
C604 C605 1.392 . S
C604 H632 0.930 . S
C605 C604 1.392 . S
C605 C606 1.398 . S
C605 H633 0.929 . S
C606 C605 1.398 . S
C606 C607 1.352 . S
C607 C606 1.352 . S
C607 C608 1.384 . S
C607 H634 0.930 . S
C608 C603 1.407 . S
C608 C607 1.384 . S
C608 H635 0.929 . S
C609 O622 1.241 . S
C609 O623 1.273 . S
C610 O624 1.251 . S
C610 O625 1.268 . S
C611 Nd601 2.836 . S
C611 C612 1.498 . S
C611 O626 1.258 . S
C611 O627 1.239 . S
C612 C611 1.498 . S
C612 C613 1.366 . S
C612 C617 1.407 . S
C613 C612 1.366 . S
C613 C614 1.392 . S
C613 H636 0.930 . S
C614 C613 1.392 . S
C614 C615 1.398 . S
C614 H637 0.929 . S
C615 C614 1.398 . S
C615 C616 1.352 . S
C616 C615 1.352 . S
C616 C617 1.384 . S
C616 H638 0.930 . S
C617 C612 1.407 . S
C617 C616 1.384 . S
C617 H639 0.929 . S
C618 O628 1.241 . S
C618 O629 1.273 . S
C619 O630 1.251 . S
C619 O631 1.268 . S
O620 Nd600 2.500 . S
O620 C602 1.258 . S
O621 Nd600 2.492 . S
O621 C602 1.239 . S
O622 Nd600 2.487 . S
O622 C609 1.241 . S
O623 Nd600 2.682 . S
O623 Nd601 2.414 . S
O623 C609 1.273 . S
O624 Nd600 2.410 . S
O624 C610 1.251 . S
O625 Nd601 2.424 . S
O625 C610 1.268 . S
O626 Nd601 2.500 . S
O626 C611 1.258 . S
O627 Nd601 2.492 . S
O627 C611 1.239 . S
O628 Nd601 2.487 . S
O628 C618 1.241 . S
O629 Nd600 2.414 . S
O629 Nd601 2.682 . S
O629 C618 1.273 . S
O630 Nd601 2.410 . S
O630 C619 1.251 . S
O631 Nd600 2.424 . S
O631 C619 1.268 . S
H632 C604 0.930 . S
H633 C605 0.929 . S
H634 C607 0.930 . S
H635 C608 0.929 . S
H636 C613 0.930 . S
H637 C614 0.929 . S
H638 C616 0.930 . S
H639 C617 0.929 . S
H640 C648 0.929 . S
H641 C650 0.930 . S
H642 C652 0.930 . S
H643 C655 0.929 . S
H644 C658 0.930 . S
H645 C660 0.960 . S
H646 C660 0.960 . S
H647 C660 0.960 . S
C648 H640 0.929 . S
C648 C649 1.377 . S
C648 C650 1.384 1_565 S
C649 C648 1.377 . S
C649 C655 1.390 . S
C650 H641 0.930 . S
C650 C648 1.384 1_545 S
C650 C651 1.372 . S
C651 C650 1.372 . S
C651 C652 1.400 . S
C651 C656 1.490 . S
C652 H642 0.930 . S
C652 C651 1.400 . S
C652 C655 1.386 1_545 S
H653 C669 0.930 . S
H654 C670 0.931 . S
C655 H643 0.929 . S
C655 C649 1.390 . S
C655 C652 1.386 1_565 S
C656 C651 1.490 . S
C656 C658 1.395 . S
C656 C659 1.403 . S
H657 C663 0.930 . S
C658 H644 0.930 . S
C658 C656 1.395 . S
C658 C661 1.403 . S
C659 C656 1.403 . S
C659 C660 1.524 . S
C659 C663 1.400 . S
C660 H645 0.960 . S
C660 H646 0.960 . S
C660 H647 0.960 . S
C660 C659 1.524 . S
C661 C658 1.403 . S
C661 C662 1.392 . S
C661 C665 1.495 . S
C662 C661 1.392 . S
C662 C663 1.385 . S
C662 C664 1.478 . S
C663 H657 0.930 . S
C663 C659 1.400 . S
C663 C662 1.385 . S
C664 C662 1.478 . S
C664 C666 1.381 . S
C664 C670 1.383 . S
C665 C661 1.495 . S
C665 H671 0.959 . S
C665 H672 0.961 . S
C665 H673 0.960 . S
C666 C664 1.381 . S
C666 C667 1.394 . S
C666 H674 0.930 . S
C667 C666 1.394 . S
C667 C668 1.383 . S
C667 H675 0.929 . S
C668 C667 1.383 . S
C668 C669 1.377 . S
C669 H653 0.930 . S
C669 C668 1.377 . S
C669 C670 1.379 . S
C670 H654 0.931 . S
C670 C664 1.383 . S
C670 C669 1.379 . S
H671 C665 0.959 . S
H672 C665 0.961 . S
H673 C665 0.960 . S
H674 C666 0.930 . S
H675 C667 0.929 . S
H676 C684 0.929 . S
H677 C686 0.930 . S
H678 C688 0.930 . S
H679 C691 0.929 . S
H680 C694 0.930 . S
H681 C696 0.960 . S
H682 C696 0.960 . S
H683 C696 0.960 . S
C684 H676 0.929 . S
C684 C685 1.377 . S
C684 C686 1.384 1_655 S
C685 C684 1.377 . S
C685 C691 1.390 . S
C686 H677 0.930 . S
C686 C684 1.384 1_455 S
C686 C687 1.372 . S
C687 C686 1.372 . S
C687 C688 1.400 . S
C687 C692 1.490 . S
C688 H678 0.930 . S
C688 C687 1.400 . S
C688 C691 1.386 1_455 S
H689 C705 0.930 . S
H690 C706 0.931 . S
C691 H679 0.929 . S
C691 C685 1.390 . S
C691 C688 1.386 1_655 S
C692 C687 1.490 . S
C692 C694 1.395 . S
C692 C695 1.403 . S
H693 C699 0.930 . S
C694 H680 0.930 . S
C694 C692 1.395 . S
C694 C697 1.403 . S
C695 C692 1.403 . S
C695 C696 1.524 . S
C695 C699 1.400 . S
C696 H681 0.960 . S
C696 H682 0.960 . S
C696 H683 0.960 . S
C696 C695 1.524 . S
C697 C694 1.403 . S
C697 C698 1.392 . S
C697 C701 1.495 . S
C698 C697 1.392 . S
C698 C699 1.385 . S
C698 C700 1.478 . S
C699 H693 0.930 . S
C699 C695 1.400 . S
C699 C698 1.385 . S
C700 C698 1.478 . S
C700 C702 1.381 . S
C700 C706 1.383 . S
C701 C697 1.495 . S
C701 H707 0.959 . S
C701 H708 0.961 . S
C701 H709 0.960 . S
C702 C700 1.381 . S
C702 C703 1.394 . S
C702 H710 0.930 . S
C703 C702 1.394 . S
C703 C704 1.383 . S
C703 H711 0.929 . S
C704 C703 1.383 . S
C704 C705 1.377 . S
C705 H689 0.930 . S
C705 C704 1.377 . S
C705 C706 1.379 . S
C706 H690 0.931 . S
C706 C700 1.383 . S
C706 C705 1.379 . S
H707 C701 0.959 . S
H708 C701 0.961 . S
H709 C701 0.960 . S
H710 C702 0.930 . S
H711 C703 0.929 . S
H712 C720 0.929 . S
H713 C722 0.930 . S
H714 C724 0.930 . S
H715 C727 0.929 . S
H716 C730 0.930 . S
H717 C732 0.960 . S
H718 C732 0.960 . S
H719 C732 0.960 . S
C720 H712 0.929 . S
C720 C721 1.377 . S
C720 C722 1.384 . S
C721 C720 1.377 . S
C721 C727 1.390 . S
C722 H713 0.930 . S
C722 C720 1.384 . S
C722 C723 1.372 . S
C723 C722 1.372 . S
C723 C724 1.400 . S
C723 C728 1.490 . S
C724 H714 0.930 . S
C724 C723 1.400 . S
C724 C727 1.386 . S
H725 C741 0.930 . S
H726 C742 0.931 . S
C727 H715 0.929 . S
C727 C721 1.390 . S
C727 C724 1.386 . S
C728 C723 1.490 . S
C728 C730 1.395 . S
C728 C731 1.403 . S
H729 C735 0.930 . S
C730 H716 0.930 . S
C730 C728 1.395 . S
C730 C733 1.403 . S
C731 C728 1.403 . S
C731 C732 1.524 . S
C731 C735 1.400 . S
C732 H717 0.960 . S
C732 H718 0.960 . S
C732 H719 0.960 . S
C732 C731 1.524 . S
C733 C730 1.403 . S
C733 C734 1.392 . S
C733 C737 1.495 . S
C734 C733 1.392 . S
C734 C735 1.385 . S
C734 C736 1.478 . S
C735 H729 0.930 . S
C735 C731 1.400 . S
C735 C734 1.385 . S
C736 C734 1.478 . S
C736 C738 1.381 . S
C736 C742 1.383 . S
C737 C733 1.495 . S
C737 H743 0.959 . S
C737 H744 0.961 . S
C737 H745 0.960 . S
C738 C736 1.381 . S
C738 C739 1.385 1_565 S
C738 H746 0.930 . S
C739 C738 1.385 1_545 S
C739 C740 1.389 . S
C739 H747 0.932 . S
C740 C739 1.389 . S
C740 C741 1.377 . S
C741 H725 0.930 . S
C741 C740 1.377 . S
C741 C742 1.379 1_545 S
C742 H726 0.931 . S
C742 C736 1.383 . S
C742 C741 1.379 1_565 S
H743 C737 0.959 . S
H744 C737 0.961 . S
H745 C737 0.960 . S
H746 C738 0.930 . S
H747 C739 0.932 . S
H748 C756 0.929 . S
H749 C758 0.930 . S
H750 C760 0.930 . S
H751 C763 0.929 . S
H752 C766 0.930 . S
H753 C768 0.960 . S
H754 C768 0.960 . S
H755 C768 0.960 . S
C756 H748 0.929 . S
C756 C757 1.377 . S
C756 C758 1.384 . S
C757 C756 1.377 . S
C757 C763 1.390 . S
C758 H749 0.930 . S
C758 C756 1.384 . S
C758 C759 1.372 . S
C759 C758 1.372 . S
C759 C760 1.400 . S
C759 C764 1.490 . S
C760 H750 0.930 . S
C760 C759 1.400 . S
C760 C763 1.386 . S
H761 C777 0.930 . S
H762 C778 0.931 . S
C763 H751 0.929 . S
C763 C757 1.390 . S
C763 C760 1.386 . S
C764 C759 1.490 . S
C764 C766 1.395 . S
C764 C767 1.403 . S
H765 C771 0.930 . S
C766 H752 0.930 . S
C766 C764 1.395 . S
C766 C769 1.403 . S
C767 C764 1.403 . S
C767 C768 1.524 . S
C767 C771 1.400 . S
C768 H753 0.960 . S
C768 H754 0.960 . S
C768 H755 0.960 . S
C768 C767 1.524 . S
C769 C766 1.403 . S
C769 C770 1.392 . S
C769 C773 1.495 . S
C770 C769 1.392 . S
C770 C771 1.385 . S
C770 C772 1.478 . S
C771 H765 0.930 . S
C771 C767 1.400 . S
C771 C770 1.385 . S
C772 C770 1.478 . S
C772 C774 1.381 . S
C772 C778 1.383 . S
C773 C769 1.495 . S
C773 H779 0.959 . S
C773 H780 0.961 . S
C773 H781 0.960 . S
C774 C772 1.381 . S
C774 C775 1.392 1_655 S
C774 H782 0.930 . S
C775 C774 1.392 1_455 S
C775 C776 1.385 . S
C775 H783 0.930 . S
C776 C775 1.385 . S
C776 C777 1.377 . S
C777 H761 0.930 . S
C777 C776 1.377 . S
C777 C778 1.379 1_455 S
C778 H762 0.931 . S
C778 C772 1.383 . S
C778 C777 1.379 1_655 S
H779 C773 0.959 . S
H780 C773 0.961 . S
H781 C773 0.960 . S
H782 C774 0.930 . S
H783 C775 0.930 . S
H784 C792 0.929 . S
H785 C794 0.930 . S
H786 C796 0.930 . S
H787 C799 0.929 . S
H788 C802 0.930 . S
H789 C804 0.960 . S
H790 C804 0.960 . S
H791 C804 0.960 . S
C792 H784 0.929 . S
C792 C793 1.377 . S
C792 C794 1.384 . S
C793 C792 1.377 . S
C793 C799 1.390 . S
C794 H785 0.930 . S
C794 C792 1.384 . S
C794 C795 1.372 . S
C795 C794 1.372 . S
C795 C796 1.400 . S
C795 C800 1.490 . S
C796 H786 0.930 . S
C796 C795 1.400 . S
C796 C799 1.386 . S
H797 C813 0.930 . S
H798 C814 0.931 . S
C799 H787 0.929 . S
C799 C793 1.390 . S
C799 C796 1.386 . S
C800 C795 1.490 . S
C800 C802 1.395 . S
C800 C803 1.403 . S
H801 C807 0.930 . S
C802 H788 0.930 . S
C802 C800 1.395 . S
C802 C805 1.403 . S
C803 C800 1.403 . S
C803 C804 1.524 . S
C803 C807 1.400 . S
C804 H789 0.960 . S
C804 H790 0.960 . S
C804 H791 0.960 . S
C804 C803 1.524 . S
C805 C802 1.403 . S
C805 C806 1.392 . S
C805 C809 1.495 . S
C806 C805 1.392 . S
C806 C807 1.385 . S
C806 C808 1.478 . S
C807 H801 0.930 . S
C807 C803 1.400 . S
C807 C806 1.385 . S
C808 C806 1.478 . S
C808 C810 1.381 . S
C808 C814 1.383 . S
C809 C805 1.495 . S
C809 H815 0.959 . S
C809 H816 0.961 . S
C809 H817 0.960 . S
C810 C808 1.381 . S
C810 C811 1.394 . S
C810 H818 0.930 . S
C811 C810 1.394 . S
C811 C812 1.383 . S
C811 H819 0.929 . S
C812 C811 1.383 . S
C812 C813 1.377 . S
C813 H797 0.930 . S
C813 C812 1.377 . S
C813 C814 1.379 . S
C814 H798 0.931 . S
C814 C808 1.383 . S
C814 C813 1.379 . S
H815 C809 0.959 . S
H816 C809 0.961 . S
H817 C809 0.960 . S
H818 C810 0.930 . S
H819 C811 0.929 . S
H820 C828 0.929 . S
H821 C830 0.930 . S
H822 C832 0.930 . S
H823 C835 0.929 . S
H824 C838 0.930 . S
H825 C840 0.960 . S
H826 C840 0.960 . S
H827 C840 0.960 . S
C828 H820 0.929 . S
C828 C829 1.377 . S
C828 C830 1.384 . S
C829 C828 1.377 . S
C829 C835 1.390 . S
C830 H821 0.930 . S
C830 C828 1.384 . S
C830 C831 1.372 . S
C831 C830 1.372 . S
C831 C832 1.400 . S
C831 C836 1.490 . S
C832 H822 0.930 . S
C832 C831 1.400 . S
C832 C835 1.386 . S
H833 C849 0.930 . S
H834 C850 0.931 . S
C835 H823 0.929 . S
C835 C829 1.390 . S
C835 C832 1.386 . S
C836 C831 1.490 . S
C836 C838 1.395 . S
C836 C839 1.403 . S
H837 C843 0.930 . S
C838 H824 0.930 . S
C838 C836 1.395 . S
C838 C841 1.403 . S
C839 C836 1.403 . S
C839 C840 1.524 . S
C839 C843 1.400 . S
C840 H825 0.960 . S
C840 H826 0.960 . S
C840 H827 0.960 . S
C840 C839 1.524 . S
C841 C838 1.403 . S
C841 C842 1.392 . S
C841 C845 1.495 . S
C842 C841 1.392 . S
C842 C843 1.385 . S
C842 C844 1.478 . S
C843 H837 0.930 . S
C843 C839 1.400 . S
C843 C842 1.385 . S
C844 C842 1.478 . S
C844 C846 1.381 . S
C844 C850 1.383 . S
C845 C841 1.495 . S
C845 H851 0.959 . S
C845 H852 0.961 . S
C845 H853 0.960 . S
C846 C844 1.381 . S
C846 C847 1.394 . S
C846 H854 0.930 . S
C847 C846 1.394 . S
C847 C848 1.383 . S
C847 H855 0.929 . S
C848 C847 1.383 . S
C848 C849 1.377 . S
C849 H833 0.930 . S
C849 C848 1.377 . S
C849 C850 1.379 . S
C850 H834 0.931 . S
C850 C844 1.383 . S
C850 C849 1.379 . S
H851 C845 0.959 . S
H852 C845 0.961 . S
H853 C845 0.960 . S
H854 C846 0.930 . S
H855 C847 0.929 . S
H856 C864 0.929 . S
H857 C866 0.930 . S
H858 C868 0.930 . S
H859 C871 0.929 . S
H860 C874 0.930 . S
H861 C876 0.960 . S
H862 C876 0.947 1_556 S
H863 C876 0.960 . S
C864 H856 0.929 . S
C864 C865 1.377 . S
C864 C866 1.384 . S
C865 C864 1.377 . S
C865 C871 1.390 . S
C866 H857 0.930 . S
C866 C864 1.384 . S
C866 C867 1.372 . S
C867 C866 1.372 . S
C867 C868 1.400 . S
C867 C872 1.490 . S
C868 H858 0.930 . S
C868 C867 1.400 . S
C868 C871 1.386 . S
H869 C885 0.930 . S
H870 C886 0.931 . S
C871 H859 0.929 . S
C871 C865 1.390 . S
C871 C868 1.386 . S
C872 C867 1.490 . S
C872 C874 1.395 . S
C872 C875 1.403 . S
H873 C879 0.930 . S
C874 H860 0.930 . S
C874 C872 1.395 . S
C874 C877 1.403 . S
C875 C872 1.403 . S
C875 C876 1.524 . S
C875 C879 1.400 . S
C876 H861 0.960 . S
C876 H862 0.947 1_554 S
C876 H863 0.960 . S
C876 C875 1.524 . S
C877 C874 1.403 . S
C877 C878 1.392 . S
C877 C881 1.495 . S
C878 C877 1.392 . S
C878 C879 1.385 . S
C878 C880 1.478 . S
C879 H873 0.930 . S
C879 C875 1.400 . S
C879 C878 1.385 . S
C880 C878 1.478 . S
C880 C882 1.381 . S
C880 C886 1.383 . S
C881 C877 1.495 . S
C881 H887 0.959 . S
C881 H888 0.961 . S
C881 H889 0.960 . S
C882 C880 1.381 . S
C882 C883 1.394 . S
C882 H890 0.930 . S
C883 C882 1.394 . S
C883 C884 1.383 . S
C883 H891 0.929 . S
C884 C883 1.383 . S
C884 C885 1.377 . S
C885 H869 0.930 . S
C885 C884 1.377 . S
C885 C886 1.379 . S
C886 H870 0.931 . S
C886 C880 1.383 . S
C886 C885 1.379 . S
H887 C881 0.959 . S
H888 C881 0.961 . S
H889 C881 0.960 . S
H890 C882 0.930 . S
H891 C883 0.929 . S
H892 C900 0.929 . S
H893 C902 0.930 . S
H894 C904 0.930 . S
H895 C907 0.929 1_554 S
H896 C910 0.930 . S
H897 C912 0.960 . S
H898 C912 0.960 . S
H899 C912 0.960 . S
C900 H892 0.929 . S
C900 C901 1.377 . S
C900 C902 1.384 . S
C901 C900 1.377 . S
C901 C907 1.390 . S
C902 H893 0.930 . S
C902 C900 1.384 . S
C902 C903 1.372 . S
C903 C902 1.372 . S
C903 C904 1.400 . S
C903 C908 1.490 . S
C904 H894 0.930 . S
C904 C903 1.400 . S
C904 C907 1.386 . S
H905 C921 0.930 . S
H906 C922 0.931 . S
C907 H895 0.929 1_556 S
C907 C901 1.390 . S
C907 C904 1.386 . S
C908 C903 1.490 . S
C908 C910 1.395 . S
C908 C911 1.403 . S
H909 C915 0.930 . S
C910 H896 0.930 . S
C910 C908 1.395 . S
C910 C913 1.403 . S
C911 C908 1.403 . S
C911 C912 1.524 . S
C911 C915 1.400 . S
C912 H897 0.960 . S
C912 H898 0.960 . S
C912 H899 0.960 . S
C912 C911 1.524 . S
C913 C910 1.403 . S
C913 C914 1.392 . S
C913 C917 1.495 . S
C914 C913 1.392 . S
C914 C915 1.385 . S
C914 C916 1.478 . S
C915 H909 0.930 . S
C915 C911 1.400 . S
C915 C914 1.385 . S
C916 C914 1.478 . S
C916 C918 1.381 . S
C916 C922 1.383 . S
C917 C913 1.495 . S
C917 H923 0.959 . S
C917 H924 0.961 . S
C917 H925 0.960 . S
C918 C916 1.381 . S
C918 C919 1.394 . S
C918 H926 0.930 . S
C919 C918 1.394 . S
C919 C920 1.383 . S
C919 H927 0.929 . S
C920 C919 1.383 . S
C920 C921 1.377 . S
C921 H905 0.930 . S
C921 C920 1.377 . S
C921 C922 1.379 . S
C922 H906 0.931 . S
C922 C916 1.383 . S
C922 C921 1.379 . S
H923 C917 0.959 . S
H924 C917 0.961 . S
H925 C917 0.960 . S
H926 C918 0.930 . S
H927 C919 0.929 . S
H928 C936 0.929 . S
H929 C938 0.930 . S
H930 C940 0.930 . S
H931 C943 0.929 . S
H932 C946 0.930 . S
H933 C948 0.960 . S
H934 C948 0.960 . S
H935 C948 0.960 . S
C936 H928 0.929 . S
C936 C937 1.377 . S
C936 C938 1.384 . S
C937 C936 1.377 . S
C937 C943 1.390 . S
C938 H929 0.930 . S
C938 C936 1.384 . S
C938 C939 1.372 . S
C939 C938 1.372 . S
C939 C940 1.400 . S
C939 C944 1.490 . S
C940 H930 0.930 . S
C940 C939 1.400 . S
C940 C943 1.386 . S
H941 C957 0.930 . S
H942 C958 0.931 . S
C943 H931 0.929 . S
C943 C937 1.390 . S
C943 C940 1.386 . S
C944 C939 1.490 . S
C944 C946 1.395 . S
C944 C947 1.403 . S
H945 C951 0.930 . S
C946 H932 0.930 . S
C946 C944 1.395 . S
C946 C949 1.403 . S
C947 C944 1.403 . S
C947 C948 1.524 . S
C947 C951 1.400 . S
C948 H933 0.960 . S
C948 H934 0.960 . S
C948 H935 0.960 . S
C948 C947 1.524 . S
C949 C946 1.403 . S
C949 C950 1.392 . S
C949 C953 1.495 . S
C950 C949 1.392 . S
C950 C951 1.385 . S
C950 C952 1.478 . S
C951 H945 0.930 . S
C951 C947 1.400 . S
C951 C950 1.385 . S
C952 C950 1.478 . S
C952 C954 1.381 . S
C952 C958 1.383 . S
C953 C949 1.495 . S
C953 H959 0.959 . S
C953 H960 0.961 . S
C953 H961 0.960 . S
C954 C952 1.381 . S
C954 C955 1.394 . S
C954 H962 0.930 . S
C955 C954 1.394 . S
C955 C956 1.383 . S
C955 H963 0.929 . S
C956 C955 1.383 . S
C956 C957 1.377 . S
C957 H941 0.930 . S
C957 C956 1.377 . S
C957 C958 1.379 . S
C958 H942 0.931 . S
C958 C952 1.383 . S
C958 C957 1.379 . S
H959 C953 0.959 . S
H960 C953 0.961 . S
H961 C953 0.960 . S
H962 C954 0.930 . S
H963 C955 0.929 . S
H964 C972 0.929 . S
H965 C974 0.930 . S
H966 C976 0.930 . S
H967 C979 0.929 . S
H968 C982 0.930 . S
H969 C984 0.960 . S
H970 C984 0.960 . S
H971 C984 0.960 . S
C972 H964 0.929 . S
C972 C973 1.377 . S
C972 C974 1.384 . S
C973 C972 1.377 . S
C973 C979 1.390 . S
C974 H965 0.930 . S
C974 C972 1.384 . S
C974 C975 1.372 . S
C975 C974 1.372 . S
C975 C976 1.400 . S
C975 C980 1.490 . S
C976 H966 0.930 . S
C976 C975 1.400 . S
C976 C979 1.386 . S
H977 C993 0.930 . S
H978 C994 0.931 . S
C979 H967 0.929 . S
C979 C973 1.390 . S
C979 C976 1.386 . S
C980 C975 1.490 . S
C980 C982 1.395 . S
C980 C983 1.403 . S
H981 C987 0.930 . S
C982 H968 0.930 . S
C982 C980 1.395 . S
C982 C985 1.403 . S
C983 C980 1.403 . S
C983 C984 1.524 . S
C983 C987 1.400 . S
C984 H969 0.960 . S
C984 H970 0.960 . S
C984 H971 0.960 . S
C984 C983 1.524 . S
C985 C982 1.403 . S
C985 C986 1.392 . S
C985 C989 1.495 . S
C986 C985 1.392 . S
C986 C987 1.385 . S
C986 C988 1.478 . S
C987 H981 0.930 . S
C987 C983 1.400 . S
C987 C986 1.385 . S
C988 C986 1.478 . S
C988 C990 1.381 . S
C988 C994 1.383 . S
C989 C985 1.495 . S
C989 H995 0.959 . S
C989 H996 0.961 . S
C989 H997 0.960 . S
C990 C988 1.381 . S
C990 C991 1.394 . S
C990 H998 0.930 . S
C991 C990 1.394 . S
C991 C992 1.383 . S
C991 H999 0.929 . S
C992 C991 1.383 . S
C992 C993 1.377 . S
C993 H977 0.930 . S
C993 C992 1.377 . S
C993 C994 1.379 . S
C994 H978 0.931 . S
C994 C988 1.383 . S
C994 C993 1.379 . S
H995 C989 0.959 . S
H996 C989 0.961 . S
H997 C989 0.960 . S
H998 C990 0.930 . S
H999 C991 0.929 . S
H1000 C1008 0.929 . S
H1001 C1010 0.930 . S
H1002 C1012 0.930 . S
H1003 C1015 0.929 . S
H1004 C1018 0.930 . S
H1005 C1020 0.960 . S
H1006 C1020 0.960 . S
H1007 C1020 0.960 . S
C1008 H1000 0.929 . S
C1008 C1009 1.377 . S
C1008 C1010 1.384 . S
C1009 C1008 1.377 . S
C1009 C1015 1.390 . S
C1010 H1001 0.930 . S
C1010 C1008 1.384 . S
C1010 C1011 1.372 . S
C1011 C1010 1.372 . S
C1011 C1012 1.400 . S
C1011 C1016 1.490 . S
C1012 H1002 0.930 . S
C1012 C1011 1.400 . S
C1012 C1015 1.386 . S
H1013 C1029 0.930 . S
H1014 C1030 0.931 . S
C1015 H1003 0.929 . S
C1015 C1009 1.390 . S
C1015 C1012 1.386 . S
C1016 C1011 1.490 . S
C1016 C1018 1.395 . S
C1016 C1019 1.403 . S
H1017 C1023 0.930 . S
C1018 H1004 0.930 . S
C1018 C1016 1.395 . S
C1018 C1021 1.403 . S
C1019 C1016 1.403 . S
C1019 C1020 1.524 . S
C1019 C1023 1.400 . S
C1020 H1005 0.960 . S
C1020 H1006 0.960 . S
C1020 H1007 0.960 . S
C1020 C1019 1.524 . S
C1021 C1018 1.403 . S
C1021 C1022 1.392 . S
C1021 C1025 1.495 . S
C1022 C1021 1.392 . S
C1022 C1023 1.385 . S
C1022 C1024 1.478 . S
C1023 H1017 0.930 . S
C1023 C1019 1.400 . S
C1023 C1022 1.385 . S
C1024 C1022 1.478 . S
C1024 C1026 1.381 . S
C1024 C1030 1.383 . S
C1025 C1021 1.495 . S
C1025 H1031 0.959 . S
C1025 H1032 0.961 . S
C1025 H1033 0.960 . S
C1026 C1024 1.381 . S
C1026 C1027 1.394 . S
C1026 H1034 0.930 . S
C1027 C1026 1.394 . S
C1027 C1028 1.383 . S
C1027 H1035 0.929 . S
C1028 C1027 1.383 . S
C1028 C1029 1.377 . S
C1029 H1013 0.930 . S
C1029 C1028 1.377 . S
C1029 C1030 1.379 . S
C1030 H1014 0.931 . S
C1030 C1024 1.383 . S
C1030 C1029 1.379 . S
H1031 C1025 0.959 . S
H1032 C1025 0.961 . S
H1033 C1025 0.960 . S
H1034 C1026 0.930 . S
H1035 C1027 0.929 . S
H1036 C1044 0.929 . S
H1037 C1046 0.930 . S
H1038 C1048 0.930 . S
H1039 C1051 0.929 . S
H1040 C1054 0.930 . S
H1041 C1056 0.960 . S
H1042 C1056 0.960 . S
H1043 C1056 0.960 . S
C1044 H1036 0.929 . S
C1044 C1045 1.377 . S
C1044 C1046 1.384 . S
C1045 C1044 1.377 . S
C1045 C1051 1.390 . S
C1046 H1037 0.930 . S
C1046 C1044 1.384 . S
C1046 C1047 1.372 . S
C1047 C1046 1.372 . S
C1047 C1048 1.400 . S
C1047 C1052 1.490 . S
C1048 H1038 0.930 . S
C1048 C1047 1.400 . S
C1048 C1051 1.386 . S
H1049 C1065 0.930 . S
H1050 C1066 0.931 . S
C1051 H1039 0.929 . S
C1051 C1045 1.390 . S
C1051 C1048 1.386 . S
C1052 C1047 1.490 . S
C1052 C1054 1.395 . S
C1052 C1055 1.403 . S
H1053 C1059 0.930 . S
C1054 H1040 0.930 . S
C1054 C1052 1.395 . S
C1054 C1057 1.403 . S
C1055 C1052 1.403 . S
C1055 C1056 1.524 . S
C1055 C1059 1.400 . S
C1056 H1041 0.960 . S
C1056 H1042 0.960 . S
C1056 H1043 0.960 . S
C1056 C1055 1.524 . S
C1057 C1054 1.403 . S
C1057 C1058 1.392 . S
C1057 C1061 1.495 . S
C1058 C1057 1.392 . S
C1058 C1059 1.385 . S
C1058 C1060 1.478 . S
C1059 H1053 0.930 . S
C1059 C1055 1.400 . S
C1059 C1058 1.385 . S
C1060 C1058 1.478 . S
C1060 C1062 1.381 . S
C1060 C1066 1.383 . S
C1061 C1057 1.495 . S
C1061 H1067 0.959 . S
C1061 H1068 0.961 . S
C1061 H1069 0.960 . S
C1062 C1060 1.381 . S
C1062 C1063 1.394 . S
C1062 H1070 0.930 . S
C1063 C1062 1.394 . S
C1063 C1064 1.383 . S
C1063 H1071 0.929 . S
C1064 C1063 1.383 . S
C1064 C1065 1.377 . S
C1065 H1049 0.930 . S
C1065 C1064 1.377 . S
C1065 C1066 1.379 . S
C1066 H1050 0.931 . S
C1066 C1060 1.383 . S
C1066 C1065 1.379 . S
H1067 C1061 0.959 . S
H1068 C1061 0.961 . S
H1069 C1061 0.960 . S
H1070 C1062 0.930 . S
H1071 C1063 0.929 . S
H1072 C1080 0.929 . S
H1073 C1082 0.930 . S
H1074 C1084 0.930 . S
H1075 C1087 0.929 . S
H1076 C1090 0.930 . S
H1077 C1092 0.960 . S
H1078 C1092 0.960 . S
H1079 C1092 0.960 . S
C1080 H1072 0.929 . S
C1080 C1081 1.377 . S
C1080 C1082 1.384 . S
C1081 C1080 1.377 . S
C1081 C1087 1.390 . S
C1082 H1073 0.930 . S
C1082 C1080 1.384 . S
C1082 C1083 1.372 . S
C1083 C1082 1.372 . S
C1083 C1084 1.400 . S
C1083 C1088 1.490 . S
C1084 H1074 0.930 . S
C1084 C1083 1.400 . S
C1084 C1087 1.386 . S
H1085 C1101 0.930 . S
H1086 C1102 0.931 . S
C1087 H1075 0.929 . S
C1087 C1081 1.390 . S
C1087 C1084 1.386 . S
C1088 C1083 1.490 . S
C1088 C1090 1.395 . S
C1088 C1091 1.403 . S
H1089 C1095 0.930 . S
C1090 H1076 0.930 . S
C1090 C1088 1.395 . S
C1090 C1093 1.403 . S
C1091 C1088 1.403 . S
C1091 C1092 1.524 . S
C1091 C1095 1.400 . S
C1092 H1077 0.960 . S
C1092 H1078 0.960 . S
C1092 H1079 0.960 . S
C1092 C1091 1.524 . S
C1093 C1090 1.403 . S
C1093 C1094 1.392 . S
C1093 C1097 1.495 . S
C1094 C1093 1.392 . S
C1094 C1095 1.385 . S
C1094 C1096 1.478 . S
C1095 H1089 0.930 . S
C1095 C1091 1.400 . S
C1095 C1094 1.385 . S
C1096 C1094 1.478 . S
C1096 C1098 1.381 . S
C1096 C1102 1.383 . S
C1097 C1093 1.495 . S
C1097 H1103 0.959 . S
C1097 H1104 0.961 . S
C1097 H1105 0.960 . S
C1098 C1096 1.381 . S
C1098 C1099 1.394 1_565 S
C1098 H1106 0.930 . S
C1099 C1098 1.394 1_545 S
C1099 C1100 1.383 . S
C1099 H1107 0.929 . S
C1100 C1099 1.383 . S
C1100 C1101 1.377 . S
C1101 H1085 0.930 . S
C1101 C1100 1.377 . S
C1101 C1102 1.379 1_545 S
C1102 H1086 0.931 . S
C1102 C1096 1.383 . S
C1102 C1101 1.379 1_565 S
H1103 C1097 0.959 . S
H1104 C1097 0.961 . S
H1105 C1097 0.960 . S
H1106 C1098 0.930 . S
H1107 C1099 0.929 . S
H1108 C1116 0.929 . S
H1109 C1118 0.930 . S
H1110 C1120 0.930 . S
H1111 C1123 0.929 . S
H1112 C1126 0.930 . S
H1113 C1128 0.960 . S
H1114 C1128 0.960 . S
H1115 C1128 0.960 . S
C1116 H1108 0.929 . S
C1116 C1117 1.377 . S
C1116 C1118 1.384 1_455 S
C1117 C1116 1.377 . S
C1117 C1123 1.390 . S
C1118 H1109 0.930 . S
C1118 C1116 1.384 1_655 S
C1118 C1119 1.372 . S
C1119 C1118 1.372 . S
C1119 C1120 1.400 . S
C1119 C1124 1.490 . S
C1120 H1110 0.930 . S
C1120 C1119 1.400 . S
C1120 C1123 1.386 1_655 S
H1121 C1137 0.930 . S
H1122 C1138 0.931 . S
C1123 H1111 0.929 . S
C1123 C1117 1.390 . S
C1123 C1120 1.386 1_455 S
C1124 C1119 1.490 . S
C1124 C1126 1.395 . S
C1124 C1127 1.403 . S
H1125 C1131 0.930 . S
C1126 H1112 0.930 . S
C1126 C1124 1.395 . S
C1126 C1129 1.403 . S
C1127 C1124 1.403 . S
C1127 C1128 1.524 . S
C1127 C1131 1.400 . S
C1128 H1113 0.960 . S
C1128 H1114 0.960 . S
C1128 H1115 0.960 . S
C1128 C1127 1.524 . S
C1129 C1126 1.403 . S
C1129 C1130 1.392 . S
C1129 C1133 1.495 . S
C1130 C1129 1.392 . S
C1130 C1131 1.385 . S
C1130 C1132 1.478 . S
C1131 H1125 0.930 . S
C1131 C1127 1.400 . S
C1131 C1130 1.385 . S
C1132 C1130 1.478 . S
C1132 C1134 1.381 . S
C1132 C1138 1.383 . S
C1133 C1129 1.495 . S
C1133 H1139 0.959 . S
C1133 H1140 0.961 . S
C1133 H1141 0.960 . S
C1134 C1132 1.381 . S
C1134 C1135 1.394 . S
C1134 H1142 0.930 . S
C1135 C1134 1.394 . S
C1135 C1136 1.383 . S
C1135 H1143 0.929 . S
C1136 C1135 1.383 . S
C1136 C1137 1.377 . S
C1137 H1121 0.930 . S
C1137 C1136 1.377 . S
C1137 C1138 1.379 . S
C1138 H1122 0.931 . S
C1138 C1132 1.383 . S
C1138 C1137 1.379 . S
H1139 C1133 0.959 . S
H1140 C1133 0.961 . S
H1141 C1133 0.960 . S
H1142 C1134 0.930 . S
H1143 C1135 0.929 . S
H1144 C1152 0.929 . S
H1145 C1154 0.930 . S
H1146 C1156 0.930 . S
H1147 C1159 0.929 . S
H1148 C1162 0.930 . S
H1149 C1164 0.960 . S
H1150 C1164 0.960 . S
H1151 C1164 0.960 . S
C1152 H1144 0.929 . S
C1152 C1153 1.377 . S
C1152 C1154 1.384 1_565 S
C1153 C1152 1.377 . S
C1153 C1159 1.390 . S
C1154 H1145 0.930 . S
C1154 C1152 1.384 1_545 S
C1154 C1155 1.372 . S
C1155 C1154 1.372 . S
C1155 C1156 1.400 . S
C1155 C1160 1.490 . S
C1156 H1146 0.930 . S
C1156 C1155 1.400 . S
C1156 C1159 1.386 1_545 S
H1157 C1173 0.930 . S
H1158 C1174 0.931 . S
C1159 H1147 0.929 . S
C1159 C1153 1.390 . S
C1159 C1156 1.386 1_565 S
C1160 C1155 1.490 . S
C1160 C1162 1.395 . S
C1160 C1163 1.403 . S
H1161 C1167 0.930 . S
C1162 H1148 0.930 . S
C1162 C1160 1.395 . S
C1162 C1165 1.403 . S
C1163 C1160 1.403 . S
C1163 C1164 1.524 . S
C1163 C1167 1.400 . S
C1164 H1149 0.960 . S
C1164 H1150 0.960 . S
C1164 H1151 0.960 . S
C1164 C1163 1.524 . S
C1165 C1162 1.403 . S
C1165 C1166 1.392 . S
C1165 C1169 1.495 . S
C1166 C1165 1.392 . S
C1166 C1167 1.385 . S
C1166 C1168 1.478 . S
C1167 H1161 0.930 . S
C1167 C1163 1.400 . S
C1167 C1166 1.385 . S
C1168 C1166 1.478 . S
C1168 C1170 1.381 . S
C1168 C1174 1.383 . S
C1169 C1165 1.495 . S
C1169 H1175 0.959 . S
C1169 H1176 0.961 . S
C1169 H1177 0.960 . S
C1170 C1168 1.381 . S
C1170 C1171 1.394 . S
C1170 H1178 0.930 . S
C1171 C1170 1.394 . S
C1171 C1172 1.383 . S
C1171 H1179 0.929 . S
C1172 C1171 1.383 . S
C1172 C1173 1.377 . S
C1173 H1157 0.930 . S
C1173 C1172 1.377 . S
C1173 C1174 1.379 . S
C1174 H1158 0.931 . S
C1174 C1168 1.383 . S
C1174 C1173 1.379 . S
H1175 C1169 0.959 . S
H1176 C1169 0.961 . S
H1177 C1169 0.960 . S
H1178 C1170 0.930 . S
H1179 C1171 0.929 . S
H1180 C1188 0.929 . S
H1181 C1190 0.930 . S
H1182 C1192 0.930 . S
H1183 C1195 0.929 . S
H1184 C1198 0.930 . S
H1185 C1200 0.960 . S
H1186 C1200 0.960 . S
H1187 C1200 0.960 . S
C1188 H1180 0.929 . S
C1188 C1189 1.377 . S
C1188 C1190 1.384 . S
C1189 C1188 1.377 . S
C1189 C1195 1.390 . S
C1190 H1181 0.930 . S
C1190 C1188 1.384 . S
C1190 C1191 1.372 . S
C1191 C1190 1.372 . S
C1191 C1192 1.400 . S
C1191 C1196 1.490 . S
C1192 H1182 0.930 . S
C1192 C1191 1.400 . S
C1192 C1195 1.386 . S
H1193 C1209 0.930 . S
H1194 C1210 0.931 . S
C1195 H1183 0.929 . S
C1195 C1189 1.390 . S
C1195 C1192 1.386 . S
C1196 C1191 1.490 . S
C1196 C1198 1.395 . S
C1196 C1199 1.403 . S
H1197 C1203 0.930 . S
C1198 H1184 0.930 . S
C1198 C1196 1.395 . S
C1198 C1201 1.403 . S
C1199 C1196 1.403 . S
C1199 C1200 1.524 . S
C1199 C1203 1.400 . S
C1200 H1185 0.960 . S
C1200 H1186 0.960 . S
C1200 H1187 0.960 . S
C1200 C1199 1.524 . S
C1201 C1198 1.403 . S
C1201 C1202 1.392 . S
C1201 C1205 1.495 . S
C1202 C1201 1.392 . S
C1202 C1203 1.385 . S
C1202 C1204 1.478 . S
C1203 H1197 0.930 . S
C1203 C1199 1.400 . S
C1203 C1202 1.385 . S
C1204 C1202 1.478 . S
C1204 C1206 1.381 . S
C1204 C1210 1.383 . S
C1205 C1201 1.495 . S
C1205 H1211 0.959 . S
C1205 H1212 0.961 . S
C1205 H1213 0.960 . S
C1206 C1204 1.381 . S
C1206 C1207 1.388 1_455 S
C1206 H1214 0.930 . S
C1207 C1206 1.388 1_655 S
C1207 C1208 1.387 . S
C1207 H1215 0.931 . S
C1208 C1207 1.387 . S
C1208 C1209 1.377 . S
C1209 H1193 0.930 . S
C1209 C1208 1.377 . S
C1209 C1210 1.379 1_655 S
C1210 H1194 0.931 . S
C1210 C1204 1.383 . S
C1210 C1209 1.379 1_455 S
H1211 C1205 0.959 . S
H1212 C1205 0.961 . S
H1213 C1205 0.960 . S
H1214 C1206 0.930 . S
H1215 C1207 0.931 . S
H1216 C1224 0.929 . S
H1217 C1226 0.930 . S
H1218 C1228 0.930 . S
H1219 C1231 0.929 . S
H1220 C1234 0.930 . S
H1221 C1236 0.960 . S
H1222 C1236 0.960 . S
H1223 C1236 0.960 . S
C1224 H1216 0.929 . S
C1224 C1225 1.377 . S
C1224 C1226 1.384 . S
C1225 C1224 1.377 . S
C1225 C1231 1.390 . S
C1226 H1217 0.930 . S
C1226 C1224 1.384 . S
C1226 C1227 1.372 . S
C1227 C1226 1.372 . S
C1227 C1228 1.400 . S
C1227 C1232 1.490 . S
C1228 H1218 0.930 . S
C1228 C1227 1.400 . S
C1228 C1231 1.386 . S
H1229 C1245 0.930 . S
H1230 C1246 0.931 . S
C1231 H1219 0.929 . S
C1231 C1225 1.390 . S
C1231 C1228 1.386 . S
C1232 C1227 1.490 . S
C1232 C1234 1.395 . S
C1232 C1235 1.403 . S
H1233 C1239 0.930 . S
C1234 H1220 0.930 . S
C1234 C1232 1.395 . S
C1234 C1237 1.403 . S
C1235 C1232 1.403 . S
C1235 C1236 1.524 . S
C1235 C1239 1.400 . S
C1236 H1221 0.960 . S
C1236 H1222 0.960 . S
C1236 H1223 0.960 . S
C1236 C1235 1.524 . S
C1237 C1234 1.403 . S
C1237 C1238 1.392 . S
C1237 C1241 1.495 . S
C1238 C1237 1.392 . S
C1238 C1239 1.385 . S
C1238 C1240 1.478 . S
C1239 H1233 0.930 . S
C1239 C1235 1.400 . S
C1239 C1238 1.385 . S
C1240 C1238 1.478 . S
C1240 C1242 1.381 . S
C1240 C1246 1.383 . S
C1241 C1237 1.495 . S
C1241 H1247 0.959 . S
C1241 H1248 0.961 . S
C1241 H1249 0.960 . S
C1242 C1240 1.381 . S
C1242 C1243 1.394 . S
C1242 H1250 0.930 . S
C1243 C1242 1.394 . S
C1243 C1244 1.383 . S
C1243 H1251 0.929 . S
C1244 C1243 1.383 . S
C1244 C1245 1.377 . S
C1245 H1229 0.930 . S
C1245 C1244 1.377 . S
C1245 C1246 1.379 . S
C1246 H1230 0.931 . S
C1246 C1240 1.383 . S
C1246 C1245 1.379 . S
H1247 C1241 0.959 . S
H1248 C1241 0.961 . S
H1249 C1241 0.960 . S
H1250 C1242 0.930 . S
H1251 C1243 0.929 . S
H1252 C1260 0.929 . S
H1253 C1262 0.930 . S
H1254 C1264 0.930 . S
H1255 C1267 0.929 . S
H1256 C1270 0.930 . S
H1257 C1272 0.960 1_554 S
H1258 C1272 0.961 1_554 S
H1259 C1272 0.960 . S
C1260 H1252 0.929 . S
C1260 C1261 1.377 . S
C1260 C1262 1.384 . S
C1261 C1260 1.377 . S
C1261 C1267 1.390 . S
C1262 H1253 0.930 . S
C1262 C1260 1.384 . S
C1262 C1263 1.372 . S
C1263 C1262 1.372 . S
C1263 C1264 1.400 . S
C1263 C1268 1.490 . S
C1264 H1254 0.930 . S
C1264 C1263 1.400 . S
C1264 C1267 1.386 . S
H1265 C1281 0.930 . S
H1266 C1282 0.931 . S
C1267 H1255 0.929 . S
C1267 C1261 1.390 . S
C1267 C1264 1.386 . S
C1268 C1263 1.490 . S
C1268 C1270 1.395 . S
C1268 C1271 1.403 . S
H1269 C1275 0.930 . S
C1270 H1256 0.930 . S
C1270 C1268 1.395 . S
C1270 C1273 1.403 . S
C1271 C1268 1.403 . S
C1271 C1272 1.524 . S
C1271 C1275 1.400 . S
C1272 H1257 0.960 1_556 S
C1272 H1258 0.961 1_556 S
C1272 H1259 0.960 . S
C1272 C1271 1.524 . S
C1273 C1270 1.403 . S
C1273 C1274 1.392 . S
C1273 C1277 1.495 . S
C1274 C1273 1.392 . S
C1274 C1275 1.385 . S
C1274 C1276 1.478 . S
C1275 H1269 0.930 . S
C1275 C1271 1.400 . S
C1275 C1274 1.385 . S
C1276 C1274 1.478 . S
C1276 C1278 1.381 . S
C1276 C1282 1.383 . S
C1277 C1273 1.495 . S
C1277 H1283 0.959 . S
C1277 H1284 0.961 . S
C1277 H1285 0.960 . S
C1278 C1276 1.381 . S
C1278 C1279 1.394 . S
C1278 H1286 0.930 . S
C1279 C1278 1.394 . S
C1279 C1280 1.383 . S
C1279 H1287 0.929 . S
C1280 C1279 1.383 . S
C1280 C1281 1.377 . S
C1281 H1265 0.930 . S
C1281 C1280 1.377 . S
C1281 C1282 1.379 . S
C1282 H1266 0.931 . S
C1282 C1276 1.383 . S
C1282 C1281 1.379 . S
H1283 C1277 0.959 . S
H1284 C1277 0.961 . S
H1285 C1277 0.960 . S
H1286 C1278 0.930 . S
H1287 C1279 0.929 . S
H1288 C1296 0.929 . S
H1289 C1298 0.930 . S
H1290 C1300 0.930 . S
H1291 C1303 0.929 . S
H1292 C1306 0.930 . S
H1293 C1308 0.960 . S
H1294 C1308 0.960 . S
H1295 C1308 0.960 . S
C1296 H1288 0.929 . S
C1296 C1297 1.377 . S
C1296 C1298 1.384 . S
C1297 C1296 1.377 . S
C1297 C1303 1.390 . S
C1298 H1289 0.930 . S
C1298 C1296 1.384 . S
C1298 C1299 1.372 . S
C1299 C1298 1.372 . S
C1299 C1300 1.400 . S
C1299 C1304 1.490 . S
C1300 H1290 0.930 . S
C1300 C1299 1.400 . S
C1300 C1303 1.386 . S
H1301 C1317 0.930 . S
H1302 C1318 0.931 . S
C1303 H1291 0.929 . S
C1303 C1297 1.390 . S
C1303 C1300 1.386 . S
C1304 C1299 1.490 . S
C1304 C1306 1.395 . S
C1304 C1307 1.403 . S
H1305 C1311 0.930 . S
C1306 H1292 0.930 . S
C1306 C1304 1.395 . S
C1306 C1309 1.403 . S
C1307 C1304 1.403 . S
C1307 C1308 1.524 . S
C1307 C1311 1.400 . S
C1308 H1293 0.960 . S
C1308 H1294 0.960 . S
C1308 H1295 0.960 . S
C1308 C1307 1.524 . S
C1309 C1306 1.403 . S
C1309 C1310 1.392 . S
C1309 C1313 1.495 . S
C1310 C1309 1.392 . S
C1310 C1311 1.385 . S
C1310 C1312 1.478 . S
C1311 H1305 0.930 . S
C1311 C1307 1.400 . S
C1311 C1310 1.385 . S
C1312 C1310 1.478 . S
C1312 C1314 1.381 . S
C1312 C1318 1.383 . S
C1313 C1309 1.495 . S
C1313 H1319 0.959 . S
C1313 H1320 0.961 . S
C1313 H1321 0.960 . S
C1314 C1312 1.381 . S
C1314 C1315 1.394 . S
C1314 H1322 0.930 . S
C1315 C1314 1.394 . S
C1315 C1316 1.383 . S
C1315 H1323 0.929 . S
C1316 C1315 1.383 . S
C1316 C1317 1.377 . S
C1317 H1301 0.930 . S
C1317 C1316 1.377 . S
C1317 C1318 1.379 . S
C1318 H1302 0.931 . S
C1318 C1312 1.383 . S
C1318 C1317 1.379 . S
H1319 C1313 0.959 . S
H1320 C1313 0.961 . S
H1321 C1313 0.960 . S
H1322 C1314 0.930 . S
H1323 C1315 0.929 . S
H1324 C1332 0.929 . S
H1325 C1334 0.930 . S
H1326 C1336 0.930 . S
H1327 C1339 0.929 . S
H1328 C1342 0.930 . S
H1329 C1344 0.960 . S
H1330 C1344 0.960 . S
H1331 C1344 0.960 . S
C1332 H1324 0.929 . S
C1332 C1333 1.377 . S
C1332 C1334 1.384 . S
C1333 C1332 1.377 . S
C1333 C1339 1.390 . S
C1334 H1325 0.930 . S
C1334 C1332 1.384 . S
C1334 C1335 1.372 . S
C1335 C1334 1.372 . S
C1335 C1336 1.400 . S
C1335 C1340 1.490 . S
C1336 H1326 0.930 . S
C1336 C1335 1.400 . S
C1336 C1339 1.386 . S
H1337 C1353 0.930 . S
H1338 C1354 0.931 . S
C1339 H1327 0.929 . S
C1339 C1333 1.390 . S
C1339 C1336 1.386 . S
C1340 C1335 1.490 . S
C1340 C1342 1.395 . S
C1340 C1343 1.403 . S
H1341 C1347 0.930 . S
C1342 H1328 0.930 . S
C1342 C1340 1.395 . S
C1342 C1345 1.403 . S
C1343 C1340 1.403 . S
C1343 C1344 1.524 . S
C1343 C1347 1.400 . S
C1344 H1329 0.960 . S
C1344 H1330 0.960 . S
C1344 H1331 0.960 . S
C1344 C1343 1.524 . S
C1345 C1342 1.403 . S
C1345 C1346 1.392 . S
C1345 C1349 1.495 . S
C1346 C1345 1.392 . S
C1346 C1347 1.385 . S
C1346 C1348 1.478 . S
C1347 H1341 0.930 . S
C1347 C1343 1.400 . S
C1347 C1346 1.385 . S
C1348 C1346 1.478 . S
C1348 C1350 1.381 . S
C1348 C1354 1.383 . S
C1349 C1345 1.495 . S
C1349 H1355 0.959 . S
C1349 H1356 0.961 . S
C1349 H1357 0.960 . S
C1350 C1348 1.381 . S
C1350 C1351 1.394 . S
C1350 H1358 0.930 . S
C1351 C1350 1.394 . S
C1351 C1352 1.383 . S
C1351 H1359 0.929 . S
C1352 C1351 1.383 . S
C1352 C1353 1.377 . S
C1353 H1337 0.930 . S
C1353 C1352 1.377 . S
C1353 C1354 1.379 . S
C1354 H1338 0.931 . S
C1354 C1348 1.383 . S
C1354 C1353 1.379 . S
H1355 C1349 0.959 . S
H1356 C1349 0.961 . S
H1357 C1349 0.960 . S
H1358 C1350 0.930 . S
H1359 C1351 0.929 . S
H1360 C1368 0.929 . S
H1361 C1370 0.930 . S
H1362 C1372 0.930 . S
H1363 C1375 0.929 . S
H1364 C1378 0.930 . S
H1365 C1380 0.960 . S
H1366 C1380 0.960 . S
H1367 C1380 0.960 . S
C1368 H1360 0.929 . S
C1368 C1369 1.377 . S
C1368 C1370 1.384 . S
C1369 C1368 1.377 . S
C1369 C1375 1.390 . S
C1370 H1361 0.930 . S
C1370 C1368 1.384 . S
C1370 C1371 1.372 . S
C1371 C1370 1.372 . S
C1371 C1372 1.400 . S
C1371 C1376 1.490 . S
C1372 H1362 0.930 . S
C1372 C1371 1.400 . S
C1372 C1375 1.386 . S
H1373 C1389 0.930 . S
H1374 C1390 0.931 . S
C1375 H1363 0.929 . S
C1375 C1369 1.390 . S
C1375 C1372 1.386 . S
C1376 C1371 1.490 . S
C1376 C1378 1.395 . S
C1376 C1379 1.403 . S
H1377 C1383 0.930 . S
C1378 H1364 0.930 . S
C1378 C1376 1.395 . S
C1378 C1381 1.403 . S
C1379 C1376 1.403 . S
C1379 C1380 1.524 . S
C1379 C1383 1.400 . S
C1380 H1365 0.960 . S
C1380 H1366 0.960 . S
C1380 H1367 0.960 . S
C1380 C1379 1.524 . S
C1381 C1378 1.403 . S
C1381 C1382 1.392 . S
C1381 C1385 1.495 . S
C1382 C1381 1.392 . S
C1382 C1383 1.385 . S
C1382 C1384 1.478 . S
C1383 H1377 0.930 . S
C1383 C1379 1.400 . S
C1383 C1382 1.385 . S
C1384 C1382 1.478 . S
C1384 C1386 1.381 . S
C1384 C1390 1.383 . S
C1385 C1381 1.495 . S
C1385 H1391 0.959 . S
C1385 H1392 0.961 . S
C1385 H1393 0.960 . S
C1386 C1384 1.381 . S
C1386 C1387 1.394 . S
C1386 H1394 0.930 . S
C1387 C1386 1.394 . S
C1387 C1388 1.383 . S
C1387 H1395 0.929 . S
C1388 C1387 1.383 . S
C1388 C1389 1.377 . S
C1389 H1373 0.930 . S
C1389 C1388 1.377 . S
C1389 C1390 1.379 . S
C1390 H1374 0.931 . S
C1390 C1384 1.383 . S
C1390 C1389 1.379 . S
H1391 C1385 0.959 . S
H1392 C1385 0.961 . S
H1393 C1385 0.960 . S
H1394 C1386 0.930 . S
H1395 C1387 0.929 . S
H1396 C1404 0.929 . S
H1397 C1406 0.930 . S
H1398 C1408 0.930 . S
H1399 C1411 0.929 . S
H1400 C1414 0.930 . S
H1401 C1416 0.960 . S
H1402 C1416 0.960 . S
H1403 C1416 0.960 . S
C1404 H1396 0.929 . S
C1404 C1405 1.377 . S
C1404 C1406 1.384 . S
C1405 C1404 1.377 . S
C1405 C1411 1.390 . S
C1406 H1397 0.930 . S
C1406 C1404 1.384 . S
C1406 C1407 1.372 . S
C1407 C1406 1.372 . S
C1407 C1408 1.400 . S
C1407 C1412 1.490 . S
C1408 H1398 0.930 . S
C1408 C1407 1.400 . S
C1408 C1411 1.386 . S
H1409 C1425 0.930 . S
H1410 C1426 0.931 . S
C1411 H1399 0.929 . S
C1411 C1405 1.390 . S
C1411 C1408 1.386 . S
C1412 C1407 1.490 . S
C1412 C1414 1.395 . S
C1412 C1415 1.403 . S
H1413 C1419 0.930 . S
C1414 H1400 0.930 . S
C1414 C1412 1.395 . S
C1414 C1417 1.403 . S
C1415 C1412 1.403 . S
C1415 C1416 1.524 . S
C1415 C1419 1.400 . S
C1416 H1401 0.960 . S
C1416 H1402 0.960 . S
C1416 H1403 0.960 . S
C1416 C1415 1.524 . S
C1417 C1414 1.403 . S
C1417 C1418 1.392 . S
C1417 C1421 1.495 . S
C1418 C1417 1.392 . S
C1418 C1419 1.385 . S
C1418 C1420 1.478 . S
C1419 H1413 0.930 . S
C1419 C1415 1.400 . S
C1419 C1418 1.385 . S
C1420 C1418 1.478 . S
C1420 C1422 1.381 . S
C1420 C1426 1.383 . S
C1421 C1417 1.495 . S
C1421 H1427 0.959 . S
C1421 H1428 0.961 . S
C1421 H1429 0.960 . S
C1422 C1420 1.381 . S
C1422 C1423 1.394 . S
C1422 H1430 0.930 . S
C1423 C1422 1.394 . S
C1423 C1424 1.383 . S
C1423 H1431 0.929 . S
C1424 C1423 1.383 . S
C1424 C1425 1.377 . S
C1425 H1409 0.930 . S
C1425 C1424 1.377 . S
C1425 C1426 1.379 . S
C1426 H1410 0.931 . S
C1426 C1420 1.383 . S
C1426 C1425 1.379 . S
H1427 C1421 0.959 . S
H1428 C1421 0.961 . S
H1429 C1421 0.960 . S
H1430 C1422 0.930 . S
H1431 C1423 0.929 . S
H1432 C1440 0.929 . S
H1433 C1442 0.930 . S
H1434 C1444 0.930 . S
H1435 C1447 0.929 . S
H1436 C1450 0.930 . S
H1437 C1452 0.960 . S
H1438 C1452 0.960 . S
H1439 C1452 0.960 . S
C1440 H1432 0.929 . S
C1440 C1441 1.377 . S
C1440 C1442 1.384 . S
C1441 C1440 1.377 . S
C1441 C1447 1.390 . S
C1442 H1433 0.930 . S
C1442 C1440 1.384 . S
C1442 C1443 1.372 . S
C1443 C1442 1.372 . S
C1443 C1444 1.400 . S
C1443 C1448 1.490 . S
C1444 H1434 0.930 . S
C1444 C1443 1.400 . S
C1444 C1447 1.386 . S
H1445 C1461 0.930 . S
H1446 C1462 0.931 . S
C1447 H1435 0.929 . S
C1447 C1441 1.390 . S
C1447 C1444 1.386 . S
C1448 C1443 1.490 . S
C1448 C1450 1.395 . S
C1448 C1451 1.403 . S
H1449 C1455 0.930 . S
C1450 H1436 0.930 . S
C1450 C1448 1.395 . S
C1450 C1453 1.403 . S
C1451 C1448 1.403 . S
C1451 C1452 1.524 . S
C1451 C1455 1.400 . S
C1452 H1437 0.960 . S
C1452 H1438 0.960 . S
C1452 H1439 0.960 . S
C1452 C1451 1.524 . S
C1453 C1450 1.403 . S
C1453 C1454 1.392 . S
C1453 C1457 1.495 . S
C1454 C1453 1.392 . S
C1454 C1455 1.385 . S
C1454 C1456 1.478 . S
C1455 H1449 0.930 . S
C1455 C1451 1.400 . S
C1455 C1454 1.385 . S
C1456 C1454 1.478 . S
C1456 C1458 1.381 . S
C1456 C1462 1.383 . S
C1457 C1453 1.495 . S
C1457 H1463 0.959 . S
C1457 H1464 0.961 . S
C1457 H1465 0.960 . S
C1458 C1456 1.381 . S
C1458 C1459 1.394 . S
C1458 H1466 0.930 . S
C1459 C1458 1.394 . S
C1459 C1460 1.383 . S
C1459 H1467 0.929 . S
C1460 C1459 1.383 . S
C1460 C1461 1.377 . S
C1461 H1445 0.930 . S
C1461 C1460 1.377 . S
C1461 C1462 1.379 . S
C1462 H1446 0.931 . S
C1462 C1456 1.383 . S
C1462 C1461 1.379 . S
H1463 C1457 0.959 . S
H1464 C1457 0.961 . S
H1465 C1457 0.960 . S
H1466 C1458 0.930 . S
H1467 C1459 0.929 . S
H1468 C1476 0.929 . S
H1469 C1478 0.930 . S
H1470 C1480 0.930 . S
H1471 C1483 0.929 . S
H1472 C1486 0.930 . S
H1473 C1488 0.960 . S
H1474 C1488 0.960 . S
H1475 C1488 0.960 . S
C1476 H1468 0.929 . S
C1476 C1477 1.377 . S
C1476 C1478 1.384 . S
C1477 C1476 1.377 . S
C1477 C1483 1.390 . S
C1478 H1469 0.930 . S
C1478 C1476 1.384 . S
C1478 C1479 1.372 . S
C1479 C1478 1.372 . S
C1479 C1480 1.400 . S
C1479 C1484 1.490 . S
C1480 H1470 0.930 . S
C1480 C1479 1.400 . S
C1480 C1483 1.386 . S
H1481 C1497 0.930 . S
H1482 C1498 0.931 . S
C1483 H1471 0.929 . S
C1483 C1477 1.390 . S
C1483 C1480 1.386 . S
C1484 C1479 1.490 . S
C1484 C1486 1.395 . S
C1484 C1487 1.403 . S
H1485 C1491 0.930 . S
C1486 H1472 0.930 . S
C1486 C1484 1.395 . S
C1486 C1489 1.403 . S
C1487 C1484 1.403 . S
C1487 C1488 1.524 . S
C1487 C1491 1.400 . S
C1488 H1473 0.960 . S
C1488 H1474 0.960 . S
C1488 H1475 0.960 . S
C1488 C1487 1.524 . S
C1489 C1486 1.403 . S
C1489 C1490 1.392 . S
C1489 C1493 1.495 . S
C1490 C1489 1.392 . S
C1490 C1491 1.385 . S
C1490 C1492 1.478 . S
C1491 H1485 0.930 . S
C1491 C1487 1.400 . S
C1491 C1490 1.385 . S
C1492 C1490 1.478 . S
C1492 C1494 1.381 . S
C1492 C1498 1.383 . S
C1493 C1489 1.495 . S
C1493 H1499 0.959 . S
C1493 H1500 0.961 . S
C1493 H1501 0.960 . S
C1494 C1492 1.381 . S
C1494 C1495 1.394 . S
C1494 H1502 0.930 . S
C1495 C1494 1.394 . S
C1495 C1496 1.383 . S
C1495 H1503 0.929 . S
C1496 C1495 1.383 . S
C1496 C1497 1.377 . S
C1497 H1481 0.930 . S
C1497 C1496 1.377 . S
C1497 C1498 1.379 . S
C1498 H1482 0.931 . S
C1498 C1492 1.383 . S
C1498 C1497 1.379 . S
H1499 C1493 0.959 . S
H1500 C1493 0.961 . S
H1501 C1493 0.960 . S
H1502 C1494 0.930 . S
H1503 C1495 0.929 . S
H1504 C1512 0.929 . S
H1505 C1514 0.930 . S
H1506 C1516 0.930 . S
H1507 C1519 0.929 . S
H1508 C1522 0.930 . S
H1509 C1524 0.960 . S
H1510 C1524 0.960 . S
H1511 C1524 0.960 . S
C1512 H1504 0.929 . S
C1512 C1513 1.377 . S
C1512 C1514 1.384 . S
C1513 C1512 1.377 . S
C1513 C1519 1.390 . S
C1514 H1505 0.930 . S
C1514 C1512 1.384 . S
C1514 C1515 1.372 . S
C1515 C1514 1.372 . S
C1515 C1516 1.400 . S
C1515 C1520 1.490 . S
C1516 H1506 0.930 . S
C1516 C1515 1.400 . S
C1516 C1519 1.386 . S
H1517 C1533 0.930 . S
H1518 C1534 0.931 . S
C1519 H1507 0.929 . S
C1519 C1513 1.390 . S
C1519 C1516 1.386 . S
C1520 C1515 1.490 . S
C1520 C1522 1.395 . S
C1520 C1523 1.403 . S
H1521 C1527 0.930 . S
C1522 H1508 0.930 . S
C1522 C1520 1.395 . S
C1522 C1525 1.403 . S
C1523 C1520 1.403 . S
C1523 C1524 1.524 . S
C1523 C1527 1.400 . S
C1524 H1509 0.960 . S
C1524 H1510 0.960 . S
C1524 H1511 0.960 . S
C1524 C1523 1.524 . S
C1525 C1522 1.403 . S
C1525 C1526 1.392 . S
C1525 C1529 1.495 . S
C1526 C1525 1.392 . S
C1526 C1527 1.385 . S
C1526 C1528 1.478 . S
C1527 H1521 0.930 . S
C1527 C1523 1.400 . S
C1527 C1526 1.385 . S
C1528 C1526 1.478 . S
C1528 C1530 1.381 . S
C1528 C1534 1.383 . S
C1529 C1525 1.495 . S
C1529 H1535 0.959 . S
C1529 H1536 0.961 . S
C1529 H1537 0.960 . S
C1530 C1528 1.381 . S
C1530 C1531 1.394 . S
C1530 H1538 0.930 . S
C1531 C1530 1.394 . S
C1531 C1532 1.383 . S
C1531 H1539 0.929 . S
C1532 C1531 1.383 . S
C1532 C1533 1.377 . S
C1533 H1517 0.930 . S
C1533 C1532 1.377 . S
C1533 C1534 1.379 . S
C1534 H1518 0.931 . S
C1534 C1528 1.383 . S
C1534 C1533 1.379 . S
H1535 C1529 0.959 . S
H1536 C1529 0.961 . S
H1537 C1529 0.960 . S
H1538 C1530 0.930 . S
H1539 C1531 0.929 . S
H1540 C1548 0.929 . S
H1541 C1550 0.930 . S
H1542 C1552 0.930 . S
H1543 C1555 0.929 . S
H1544 C1558 0.930 . S
H1545 C1560 0.960 1_556 S
H1546 C1560 0.960 . S
H1547 C1560 0.960 1_556 S
C1548 H1540 0.929 . S
C1548 C1549 1.377 . S
C1548 C1550 1.384 . S
C1549 C1548 1.377 . S
C1549 C1555 1.390 . S
C1550 H1541 0.930 . S
C1550 C1548 1.384 . S
C1550 C1551 1.372 . S
C1551 C1550 1.372 . S
C1551 C1552 1.400 . S
C1551 C1556 1.490 . S
C1552 H1542 0.930 . S
C1552 C1551 1.400 . S
C1552 C1555 1.386 . S
H1553 C1569 0.930 . S
H1554 C1570 0.931 . S
C1555 H1543 0.929 . S
C1555 C1549 1.390 . S
C1555 C1552 1.386 . S
C1556 C1551 1.490 . S
C1556 C1558 1.395 . S
C1556 C1559 1.403 . S
H1557 C1563 0.930 . S
C1558 H1544 0.930 . S
C1558 C1556 1.395 . S
C1558 C1561 1.403 . S
C1559 C1556 1.403 . S
C1559 C1560 1.524 . S
C1559 C1563 1.400 . S
C1560 H1545 0.960 1_554 S
C1560 H1546 0.960 . S
C1560 H1547 0.960 1_554 S
C1560 C1559 1.524 . S
C1561 C1558 1.403 . S
C1561 C1562 1.392 . S
C1561 C1565 1.495 . S
C1562 C1561 1.392 . S
C1562 C1563 1.385 . S
C1562 C1564 1.478 . S
C1563 H1557 0.930 . S
C1563 C1559 1.400 . S
C1563 C1562 1.385 . S
C1564 C1562 1.478 . S
C1564 C1566 1.381 . S
C1564 C1570 1.383 . S
C1565 C1561 1.495 . S
C1565 H1571 0.959 . S
C1565 H1572 0.961 . S
C1565 H1573 0.960 . S
C1566 C1564 1.381 . S
C1566 C1567 1.394 . S
C1566 H1574 0.930 . S
C1567 C1566 1.394 . S
C1567 C1568 1.383 . S
C1567 H1575 0.929 . S
C1568 C1567 1.383 . S
C1568 C1569 1.377 . S
C1569 H1553 0.930 . S
C1569 C1568 1.377 . S
C1569 C1570 1.379 . S
C1570 H1554 0.931 . S
C1570 C1564 1.383 . S
C1570 C1569 1.379 . S
H1571 C1565 0.959 . S
H1572 C1565 0.961 . S
H1573 C1565 0.960 . S
H1574 C1566 0.930 . S
H1575 C1567 0.929 . S
H1576 C1584 0.929 . S
H1577 C1586 0.930 . S
H1578 C1588 0.930 . S
H1579 C1591 0.929 . S
H1580 C1594 0.930 . S
H1581 C1596 0.960 1_554 S
H1582 C1596 0.960 1_554 S
H1583 C1596 0.960 . S
C1584 H1576 0.929 . S
C1584 C1585 1.377 . S
C1584 C1586 1.384 . S
C1585 C1584 1.377 . S
C1585 C1591 1.390 . S
C1586 H1577 0.930 . S
C1586 C1584 1.384 . S
C1586 C1587 1.372 . S
C1587 C1586 1.372 . S
C1587 C1588 1.400 . S
C1587 C1592 1.490 . S
C1588 H1578 0.930 . S
C1588 C1587 1.400 . S
C1588 C1591 1.386 . S
H1589 C1605 0.930 . S
H1590 C1606 0.931 . S
C1591 H1579 0.929 . S
C1591 C1585 1.390 . S
C1591 C1588 1.386 . S
C1592 C1587 1.490 . S
C1592 C1594 1.395 . S
C1592 C1595 1.403 . S
H1593 C1599 0.930 . S
C1594 H1580 0.930 . S
C1594 C1592 1.395 . S
C1594 C1597 1.403 . S
C1595 C1592 1.403 . S
C1595 C1596 1.524 . S
C1595 C1599 1.400 . S
C1596 H1581 0.960 1_556 S
C1596 H1582 0.960 1_556 S
C1596 H1583 0.960 . S
C1596 C1595 1.524 . S
C1597 C1594 1.403 . S
C1597 C1598 1.392 . S
C1597 C1601 1.495 . S
C1598 C1597 1.392 . S
C1598 C1599 1.385 . S
C1598 C1600 1.478 . S
C1599 H1593 0.930 . S
C1599 C1595 1.400 . S
C1599 C1598 1.385 . S
C1600 C1598 1.478 . S
C1600 C1602 1.381 . S
C1600 C1606 1.383 . S
C1601 C1597 1.495 . S
C1601 H1607 0.959 . S
C1601 H1608 0.961 . S
C1601 H1609 0.960 . S
C1602 C1600 1.381 . S
C1602 C1603 1.394 . S
C1602 H1610 0.930 . S
C1603 C1602 1.394 . S
C1603 C1604 1.383 . S
C1603 H1611 0.929 . S
C1604 C1603 1.383 . S
C1604 C1605 1.377 . S
C1605 H1589 0.930 . S
C1605 C1604 1.377 . S
C1605 C1606 1.379 . S
C1606 H1590 0.931 . S
C1606 C1600 1.383 . S
C1606 C1605 1.379 . S
H1607 C1601 0.959 . S
H1608 C1601 0.961 . S
H1609 C1601 0.960 . S
H1610 C1602 0.930 . S
H1611 C1603 0.929 . S
H1612 C1620 0.929 . S
H1613 C1622 0.930 . S
H1614 C1624 0.930 . S
H1615 C1627 0.929 . S
H1616 C1630 0.930 . S
H1617 C1632 0.957 1_556 S
H1618 C1632 0.957 1_556 S
H1619 C1632 0.959 1_556 S
C1620 H1612 0.929 . S
C1620 C1621 1.377 . S
C1620 C1622 1.384 . S
C1621 C1620 1.377 . S
C1621 C1627 1.390 . S
C1622 H1613 0.930 . S
C1622 C1620 1.384 . S
C1622 C1623 1.372 . S
C1623 C1622 1.372 . S
C1623 C1624 1.400 . S
C1623 C1628 1.490 . S
C1624 H1614 0.930 . S
C1624 C1623 1.400 . S
C1624 C1627 1.386 . S
H1625 C1641 0.930 . S
H1626 C1642 0.931 . S
C1627 H1615 0.929 . S
C1627 C1621 1.390 . S
C1627 C1624 1.386 . S
C1628 C1623 1.490 . S
C1628 C1630 1.395 . S
C1628 C1631 1.403 . S
H1629 C1635 0.930 . S
C1630 H1616 0.930 . S
C1630 C1628 1.395 . S
C1630 C1633 1.403 . S
C1631 C1628 1.403 . S
C1631 C1632 1.530 . S
C1631 C1635 1.400 . S
C1632 H1617 0.957 1_554 S
C1632 H1618 0.957 1_554 S
C1632 H1619 0.959 1_554 S
C1632 C1631 1.530 . S
C1633 C1630 1.403 . S
C1633 C1634 1.392 . S
C1633 C1637 1.495 . S
C1634 C1633 1.392 . S
C1634 C1635 1.385 . S
C1634 C1636 1.478 . S
C1635 H1629 0.930 . S
C1635 C1631 1.400 . S
C1635 C1634 1.385 . S
C1636 C1634 1.478 . S
C1636 C1638 1.381 . S
C1636 C1642 1.383 . S
C1637 C1633 1.495 . S
C1637 H1643 0.959 . S
C1637 H1644 0.961 . S
C1637 H1645 0.960 . S
C1638 C1636 1.381 . S
C1638 C1639 1.394 . S
C1638 H1646 0.930 . S
C1639 C1638 1.394 . S
C1639 C1640 1.383 . S
C1639 H1647 0.929 . S
C1640 C1639 1.383 . S
C1640 C1641 1.377 . S
C1641 H1625 0.930 . S
C1641 C1640 1.377 . S
C1641 C1642 1.379 . S
C1642 H1626 0.931 . S
C1642 C1636 1.383 . S
C1642 C1641 1.379 . S
H1643 C1637 0.959 . S
H1644 C1637 0.961 . S
H1645 C1637 0.960 . S
H1646 C1638 0.930 . S
H1647 C1639 0.929 . S
H1648 C1656 0.929 . S
H1649 C1658 0.930 . S
H1650 C1660 0.930 . S
H1651 C1663 0.929 . S
H1652 C1666 0.930 . S
H1653 C1668 0.960 . S
H1654 C1668 0.960 . S
H1655 C1668 0.960 . S
C1656 H1648 0.929 . S
C1656 C1657 1.377 . S
C1656 C1658 1.384 . S
C1657 C1656 1.377 . S
C1657 C1663 1.390 . S
C1658 H1649 0.930 . S
C1658 C1656 1.384 . S
C1658 C1659 1.372 . S
C1659 C1658 1.372 . S
C1659 C1660 1.400 . S
C1659 C1664 1.490 . S
C1660 H1650 0.930 . S
C1660 C1659 1.400 . S
C1660 C1663 1.386 . S
H1661 C1677 0.930 . S
H1662 C1678 0.931 . S
C1663 H1651 0.929 . S
C1663 C1657 1.390 . S
C1663 C1660 1.386 . S
C1664 C1659 1.490 . S
C1664 C1666 1.395 . S
C1664 C1667 1.403 . S
H1665 C1671 0.930 . S
C1666 H1652 0.930 . S
C1666 C1664 1.395 . S
C1666 C1669 1.403 . S
C1667 C1664 1.403 . S
C1667 C1668 1.524 . S
C1667 C1671 1.400 . S
C1668 H1653 0.960 . S
C1668 H1654 0.960 . S
C1668 H1655 0.960 . S
C1668 C1667 1.524 . S
C1669 C1666 1.403 . S
C1669 C1670 1.392 . S
C1669 C1673 1.495 . S
C1670 C1669 1.392 . S
C1670 C1671 1.385 . S
C1670 C1672 1.478 . S
C1671 H1665 0.930 . S
C1671 C1667 1.400 . S
C1671 C1670 1.385 . S
C1672 C1670 1.478 . S
C1672 C1674 1.381 . S
C1672 C1678 1.383 . S
C1673 C1669 1.495 . S
C1673 H1679 0.959 . S
C1673 H1680 0.961 . S
C1673 H1681 0.960 . S
C1674 C1672 1.381 . S
C1674 C1675 1.394 . S
C1674 H1682 0.930 . S
C1675 C1674 1.394 . S
C1675 C1676 1.383 . S
C1675 H1683 0.929 . S
C1676 C1675 1.383 . S
C1676 C1677 1.377 . S
C1677 H1661 0.930 . S
C1677 C1676 1.377 . S
C1677 C1678 1.379 . S
C1678 H1662 0.931 . S
C1678 C1672 1.383 . S
C1678 C1677 1.379 . S
H1679 C1673 0.959 . S
H1680 C1673 0.961 . S
H1681 C1673 0.960 . S
H1682 C1674 0.930 . S
H1683 C1675 0.929 . S
H1684 C1692 0.929 . S
H1685 C1694 0.930 . S
H1686 C1696 0.930 . S
H1687 C1699 0.929 . S
H1688 C1702 0.930 . S
H1689 C1704 0.960 . S
H1690 C1704 0.960 . S
H1691 C1704 0.960 . S
C1692 H1684 0.929 . S
C1692 C1693 1.377 . S
C1692 C1694 1.384 . S
C1693 C1692 1.377 . S
C1693 C1699 1.390 . S
C1694 H1685 0.930 . S
C1694 C1692 1.384 . S
C1694 C1695 1.372 . S
C1695 C1694 1.372 . S
C1695 C1696 1.400 . S
C1695 C1700 1.490 . S
C1696 H1686 0.930 . S
C1696 C1695 1.400 . S
C1696 C1699 1.386 . S
H1697 C1713 0.930 . S
H1698 C1714 0.931 . S
C1699 H1687 0.929 . S
C1699 C1693 1.390 . S
C1699 C1696 1.386 . S
C1700 C1695 1.490 . S
C1700 C1702 1.395 . S
C1700 C1703 1.403 . S
H1701 C1707 0.930 . S
C1702 H1688 0.930 . S
C1702 C1700 1.395 . S
C1702 C1705 1.403 . S
C1703 C1700 1.403 . S
C1703 C1704 1.524 . S
C1703 C1707 1.400 . S
C1704 H1689 0.960 . S
C1704 H1690 0.960 . S
C1704 H1691 0.960 . S
C1704 C1703 1.524 . S
C1705 C1702 1.403 . S
C1705 C1706 1.392 . S
C1705 C1709 1.495 . S
C1706 C1705 1.392 . S
C1706 C1707 1.385 . S
C1706 C1708 1.478 . S
C1707 H1701 0.930 . S
C1707 C1703 1.400 . S
C1707 C1706 1.385 . S
C1708 C1706 1.478 . S
C1708 C1710 1.381 . S
C1708 C1714 1.383 . S
C1709 C1705 1.495 . S
C1709 H1715 0.959 . S
C1709 H1716 0.961 . S
C1709 H1717 0.960 . S
C1710 C1708 1.381 . S
C1710 C1711 1.394 . S
C1710 H1718 0.930 . S
C1711 C1710 1.394 . S
C1711 C1712 1.383 . S
C1711 H1719 0.929 . S
C1712 C1711 1.383 . S
C1712 C1713 1.377 . S
C1713 H1697 0.930 . S
C1713 C1712 1.377 . S
C1713 C1714 1.379 . S
C1714 H1698 0.931 . S
C1714 C1708 1.383 . S
C1714 C1713 1.379 . S
H1715 C1709 0.959 . S
H1716 C1709 0.961 . S
H1717 C1709 0.960 . S
H1718 C1710 0.930 . S
H1719 C1711 0.929 . S
H1720 C1728 0.929 . S
H1721 C1730 0.930 . S
H1722 C1732 0.930 . S
H1723 C1735 0.929 . S
H1724 C1738 0.930 . S
H1725 C1740 0.960 . S
H1726 C1740 0.960 . S
H1727 C1740 0.960 . S
C1728 H1720 0.929 . S
C1728 C1729 1.377 . S
C1728 C1730 1.384 . S
C1729 C1728 1.377 . S
C1729 C1735 1.390 . S
C1730 H1721 0.930 . S
C1730 C1728 1.384 . S
C1730 C1731 1.372 . S
C1731 C1730 1.372 . S
C1731 C1732 1.400 . S
C1731 C1736 1.490 . S
C1732 H1722 0.930 . S
C1732 C1731 1.400 . S
C1732 C1735 1.386 . S
H1733 C1749 0.930 . S
H1734 C1750 0.931 . S
C1735 H1723 0.929 . S
C1735 C1729 1.390 . S
C1735 C1732 1.386 . S
C1736 C1731 1.490 . S
C1736 C1738 1.395 . S
C1736 C1739 1.403 . S
H1737 C1743 0.930 . S
C1738 H1724 0.930 . S
C1738 C1736 1.395 . S
C1738 C1741 1.403 . S
C1739 C1736 1.403 . S
C1739 C1740 1.524 . S
C1739 C1743 1.400 . S
C1740 H1725 0.960 . S
C1740 H1726 0.960 . S
C1740 H1727 0.960 . S
C1740 C1739 1.524 . S
C1741 C1738 1.403 . S
C1741 C1742 1.392 . S
C1741 C1745 1.495 . S
C1742 C1741 1.392 . S
C1742 C1743 1.385 . S
C1742 C1744 1.478 . S
C1743 H1737 0.930 . S
C1743 C1739 1.400 . S
C1743 C1742 1.385 . S
C1744 C1742 1.478 . S
C1744 C1746 1.381 . S
C1744 C1750 1.383 . S
C1745 C1741 1.495 . S
C1745 H1751 0.959 . S
C1745 H1752 0.961 . S
C1745 H1753 0.960 . S
C1746 C1744 1.381 . S
C1746 C1747 1.394 . S
C1746 H1754 0.930 . S
C1747 C1746 1.394 . S
C1747 C1748 1.383 . S
C1747 H1755 0.929 . S
C1748 C1747 1.383 . S
C1748 C1749 1.377 . S
C1749 H1733 0.930 . S
C1749 C1748 1.377 . S
C1749 C1750 1.379 . S
C1750 H1734 0.931 . S
C1750 C1744 1.383 . S
C1750 C1749 1.379 . S
H1751 C1745 0.959 . S
H1752 C1745 0.961 . S
H1753 C1745 0.960 . S
H1754 C1746 0.930 . S
H1755 C1747 0.929 . S
H1756 C1764 0.929 . S
H1757 C1766 0.930 . S
H1758 C1768 0.930 . S
H1759 C1771 0.929 . S
H1760 C1774 0.930 . S
H1761 C1776 0.960 . S
H1762 C1776 0.960 . S
H1763 C1776 0.960 . S
C1764 H1756 0.929 . S
C1764 C1765 1.377 . S
C1764 C1766 1.384 . S
C1765 C1764 1.377 . S
C1765 C1771 1.390 . S
C1766 H1757 0.930 . S
C1766 C1764 1.384 . S
C1766 C1767 1.372 . S
C1767 C1766 1.372 . S
C1767 C1768 1.400 . S
C1767 C1772 1.490 . S
C1768 H1758 0.930 . S
C1768 C1767 1.400 . S
C1768 C1771 1.386 . S
H1769 C1785 0.930 . S
H1770 C1786 0.931 . S
C1771 H1759 0.929 . S
C1771 C1765 1.390 . S
C1771 C1768 1.386 . S
C1772 C1767 1.490 . S
C1772 C1774 1.395 . S
C1772 C1775 1.403 . S
H1773 C1779 0.930 . S
C1774 H1760 0.930 . S
C1774 C1772 1.395 . S
C1774 C1777 1.403 . S
C1775 C1772 1.403 . S
C1775 C1776 1.524 . S
C1775 C1779 1.400 . S
C1776 H1761 0.960 . S
C1776 H1762 0.960 . S
C1776 H1763 0.960 . S
C1776 C1775 1.524 . S
C1777 C1774 1.403 . S
C1777 C1778 1.392 . S
C1777 C1781 1.495 . S
C1778 C1777 1.392 . S
C1778 C1779 1.385 . S
C1778 C1780 1.478 . S
C1779 H1773 0.930 . S
C1779 C1775 1.400 . S
C1779 C1778 1.385 . S
C1780 C1778 1.478 . S
C1780 C1782 1.381 . S
C1780 C1786 1.383 . S
C1781 C1777 1.495 . S
C1781 H1787 0.959 . S
C1781 H1788 0.961 . S
C1781 H1789 0.960 . S
C1782 C1780 1.381 . S
C1782 C1783 1.394 . S
C1782 H1790 0.930 . S
C1783 C1782 1.394 . S
C1783 C1784 1.383 . S
C1783 H1791 0.929 . S
C1784 C1783 1.383 . S
C1784 C1785 1.377 . S
C1785 H1769 0.930 . S
C1785 C1784 1.377 . S
C1785 C1786 1.379 . S
C1786 H1770 0.931 . S
C1786 C1780 1.383 . S
C1786 C1785 1.379 . S
H1787 C1781 0.959 . S
H1788 C1781 0.961 . S
H1789 C1781 0.960 . S
H1790 C1782 0.930 . S
H1791 C1783 0.929 . S
H1792 C1800 0.929 . S
H1793 C1802 0.930 . S
H1794 C1804 0.930 . S
H1795 C1807 0.929 . S
H1796 C1810 0.930 . S
H1797 C1812 0.960 . S
H1798 C1812 0.960 . S
H1799 C1812 0.960 . S
C1800 H1792 0.929 . S
C1800 C1801 1.377 . S
C1800 C1802 1.384 . S
C1801 C1800 1.377 . S
C1801 C1807 1.390 . S
C1802 H1793 0.930 . S
C1802 C1800 1.384 . S
C1802 C1803 1.372 . S
C1803 C1802 1.372 . S
C1803 C1804 1.400 . S
C1803 C1808 1.490 . S
C1804 H1794 0.930 . S
C1804 C1803 1.400 . S
C1804 C1807 1.386 . S
H1805 C1821 0.930 . S
H1806 C1822 0.931 . S
C1807 H1795 0.929 . S
C1807 C1801 1.390 . S
C1807 C1804 1.386 . S
C1808 C1803 1.490 . S
C1808 C1810 1.395 . S
C1808 C1811 1.403 . S
H1809 C1815 0.930 . S
C1810 H1796 0.930 . S
C1810 C1808 1.395 . S
C1810 C1813 1.403 . S
C1811 C1808 1.403 . S
C1811 C1812 1.524 . S
C1811 C1815 1.400 . S
C1812 H1797 0.960 . S
C1812 H1798 0.960 . S
C1812 H1799 0.960 . S
C1812 C1811 1.524 . S
C1813 C1810 1.403 . S
C1813 C1814 1.392 . S
C1813 C1817 1.495 . S
C1814 C1813 1.392 . S
C1814 C1815 1.385 . S
C1814 C1816 1.478 . S
C1815 H1809 0.930 . S
C1815 C1811 1.400 . S
C1815 C1814 1.385 . S
C1816 C1814 1.478 . S
C1816 C1818 1.381 . S
C1816 C1822 1.383 . S
C1817 C1813 1.495 . S
C1817 H1823 0.959 . S
C1817 H1824 0.961 . S
C1817 H1825 0.960 . S
C1818 C1816 1.381 . S
C1818 C1819 1.394 . S
C1818 H1826 0.930 . S
C1819 C1818 1.394 . S
C1819 C1820 1.383 . S
C1819 H1827 0.929 . S
C1820 C1819 1.383 . S
C1820 C1821 1.377 . S
C1821 H1805 0.930 . S
C1821 C1820 1.377 . S
C1821 C1822 1.379 . S
C1822 H1806 0.931 . S
C1822 C1816 1.383 . S
C1822 C1821 1.379 . S
H1823 C1817 0.959 . S
H1824 C1817 0.961 . S
H1825 C1817 0.960 . S
H1826 C1818 0.930 . S
H1827 C1819 0.929 . S
H1828 C1836 0.929 . S
H1829 C1838 0.930 . S
H1830 C1840 0.930 . S
H1831 C1843 0.929 . S
H1832 C1846 0.930 . S
H1833 C1848 0.960 . S
H1834 C1848 0.960 . S
H1835 C1848 0.960 . S
C1836 H1828 0.929 . S
C1836 C1837 1.377 . S
C1836 C1838 1.384 . S
C1837 C1836 1.377 . S
C1837 C1843 1.390 . S
C1838 H1829 0.930 . S
C1838 C1836 1.384 . S
C1838 C1839 1.372 . S
C1839 C1838 1.372 . S
C1839 C1840 1.400 . S
C1839 C1844 1.490 . S
C1840 H1830 0.930 . S
C1840 C1839 1.400 . S
C1840 C1843 1.386 . S
H1841 C1857 0.930 . S
H1842 C1858 0.931 . S
C1843 H1831 0.929 . S
C1843 C1837 1.390 . S
C1843 C1840 1.386 . S
C1844 C1839 1.490 . S
C1844 C1846 1.395 . S
C1844 C1847 1.403 . S
H1845 C1851 0.930 . S
C1846 H1832 0.930 . S
C1846 C1844 1.395 . S
C1846 C1849 1.403 . S
C1847 C1844 1.403 . S
C1847 C1848 1.524 . S
C1847 C1851 1.400 . S
C1848 H1833 0.960 . S
C1848 H1834 0.960 . S
C1848 H1835 0.960 . S
C1848 C1847 1.524 . S
C1849 C1846 1.403 . S
C1849 C1850 1.392 . S
C1849 C1853 1.495 . S
C1850 C1849 1.392 . S
C1850 C1851 1.385 . S
C1850 C1852 1.478 . S
C1851 H1845 0.930 . S
C1851 C1847 1.400 . S
C1851 C1850 1.385 . S
C1852 C1850 1.478 . S
C1852 C1854 1.381 . S
C1852 C1858 1.383 . S
C1853 C1849 1.495 . S
C1853 H1859 0.959 . S
C1853 H1860 0.961 . S
C1853 H1861 0.960 . S
C1854 C1852 1.381 . S
C1854 C1855 1.394 . S
C1854 H1862 0.930 . S
C1855 C1854 1.394 . S
C1855 C1856 1.383 . S
C1855 H1863 0.929 . S
C1856 C1855 1.383 . S
C1856 C1857 1.377 . S
C1857 H1841 0.930 . S
C1857 C1856 1.377 . S
C1857 C1858 1.379 . S
C1858 H1842 0.931 . S
C1858 C1852 1.383 . S
C1858 C1857 1.379 . S
H1859 C1853 0.959 . S
H1860 C1853 0.961 . S
H1861 C1853 0.960 . S
H1862 C1854 0.930 . S
H1863 C1855 0.929 . S
H1864 C1872 0.929 . S
H1865 C1874 0.930 . S
H1866 C1876 0.930 . S
H1867 C1879 0.929 . S
H1868 C1882 0.930 . S
H1869 C1884 0.960 . S
H1870 C1884 0.960 . S
H1871 C1884 0.960 . S
C1872 H1864 0.929 . S
C1872 C1873 1.377 . S
C1872 C1874 1.384 . S
C1873 C1872 1.377 . S
C1873 C1879 1.390 . S
C1874 H1865 0.930 . S
C1874 C1872 1.384 . S
C1874 C1875 1.372 . S
C1875 C1874 1.372 . S
C1875 C1876 1.400 . S
C1875 C1880 1.490 . S
C1876 H1866 0.930 . S
C1876 C1875 1.400 . S
C1876 C1879 1.386 . S
H1877 C1893 0.930 . S
H1878 C1894 0.931 . S
C1879 H1867 0.929 . S
C1879 C1873 1.390 . S
C1879 C1876 1.386 . S
C1880 C1875 1.490 . S
C1880 C1882 1.395 . S
C1880 C1883 1.403 . S
H1881 C1887 0.930 . S
C1882 H1868 0.930 . S
C1882 C1880 1.395 . S
C1882 C1885 1.403 . S
C1883 C1880 1.403 . S
C1883 C1884 1.524 . S
C1883 C1887 1.400 . S
C1884 H1869 0.960 . S
C1884 H1870 0.960 . S
C1884 H1871 0.960 . S
C1884 C1883 1.524 . S
C1885 C1882 1.403 . S
C1885 C1886 1.392 . S
C1885 C1889 1.495 . S
C1886 C1885 1.392 . S
C1886 C1887 1.385 . S
C1886 C1888 1.478 . S
C1887 H1881 0.930 . S
C1887 C1883 1.400 . S
C1887 C1886 1.385 . S
C1888 C1886 1.478 . S
C1888 C1890 1.381 . S
C1888 C1894 1.383 . S
C1889 C1885 1.495 . S
C1889 H1895 0.959 . S
C1889 H1896 0.961 . S
C1889 H1897 0.960 . S
C1890 C1888 1.381 . S
C1890 C1891 1.394 . S
C1890 H1898 0.930 . S
C1891 C1890 1.394 . S
C1891 C1892 1.383 . S
C1891 H1899 0.929 . S
C1892 C1891 1.383 . S
C1892 C1893 1.377 . S
C1893 H1877 0.930 . S
C1893 C1892 1.377 . S
C1893 C1894 1.379 . S
C1894 H1878 0.931 . S
C1894 C1888 1.383 . S
C1894 C1893 1.379 . S
H1895 C1889 0.959 . S
H1896 C1889 0.961 . S
H1897 C1889 0.960 . S
H1898 C1890 0.930 . S
H1899 C1891 0.929 . S
H1900 C1908 0.929 . S
H1901 C1910 0.930 . S
H1902 C1912 0.930 . S
H1903 C1915 0.929 . S
H1904 C1918 0.930 . S
H1905 C1920 0.960 . S
H1906 C1920 0.960 . S
H1907 C1920 0.960 . S
C1908 H1900 0.929 . S
C1908 C1909 1.377 . S
C1908 C1910 1.384 . S
C1909 C1908 1.377 . S
C1909 C1915 1.390 . S
C1910 H1901 0.930 . S
C1910 C1908 1.384 . S
C1910 C1911 1.372 . S
C1911 C1910 1.372 . S
C1911 C1912 1.400 . S
C1911 C1916 1.490 . S
C1912 H1902 0.930 . S
C1912 C1911 1.400 . S
C1912 C1915 1.386 . S
H1913 C1929 0.930 . S
H1914 C1930 0.931 . S
C1915 H1903 0.929 . S
C1915 C1909 1.390 . S
C1915 C1912 1.386 . S
C1916 C1911 1.490 . S
C1916 C1918 1.395 . S
C1916 C1919 1.403 . S
H1917 C1923 0.930 . S
C1918 H1904 0.930 . S
C1918 C1916 1.395 . S
C1918 C1921 1.403 . S
C1919 C1916 1.403 . S
C1919 C1920 1.524 . S
C1919 C1923 1.400 . S
C1920 H1905 0.960 . S
C1920 H1906 0.960 . S
C1920 H1907 0.960 . S
C1920 C1919 1.524 . S
C1921 C1918 1.403 . S
C1921 C1922 1.392 . S
C1921 C1925 1.495 . S
C1922 C1921 1.392 . S
C1922 C1923 1.385 . S
C1922 C1924 1.478 . S
C1923 H1917 0.930 . S
C1923 C1919 1.400 . S
C1923 C1922 1.385 . S
C1924 C1922 1.478 . S
C1924 C1926 1.381 . S
C1924 C1930 1.383 . S
C1925 C1921 1.495 . S
C1925 H1931 0.959 . S
C1925 H1932 0.961 . S
C1925 H1933 0.960 . S
C1926 C1924 1.381 . S
C1926 C1927 1.394 . S
C1926 H1934 0.930 . S
C1927 C1926 1.394 . S
C1927 C1928 1.383 . S
C1927 H1935 0.929 . S
C1928 C1927 1.383 . S
C1928 C1929 1.377 . S
C1929 H1913 0.930 . S
C1929 C1928 1.377 . S
C1929 C1930 1.379 . S
C1930 H1914 0.931 . S
C1930 C1924 1.383 . S
C1930 C1929 1.379 . S
H1931 C1925 0.959 . S
H1932 C1925 0.961 . S
H1933 C1925 0.960 . S
H1934 C1926 0.930 . S
H1935 C1927 0.929 . S
H1936 C1944 0.929 . S
H1937 C1946 0.930 . S
H1938 C1948 0.930 . S
H1939 C1951 0.929 . S
H1940 C1954 0.930 . S
H1941 C1956 0.960 . S
H1942 C1956 0.960 . S
H1943 C1956 0.960 . S
C1944 H1936 0.929 . S
C1944 C1945 1.377 . S
C1944 C1946 1.384 . S
C1945 C1944 1.377 . S
C1945 C1951 1.390 . S
C1946 H1937 0.930 . S
C1946 C1944 1.384 . S
C1946 C1947 1.372 . S
C1947 C1946 1.372 . S
C1947 C1948 1.400 . S
C1947 C1952 1.490 . S
C1948 H1938 0.930 . S
C1948 C1947 1.400 . S
C1948 C1951 1.386 . S
H1949 C1965 0.930 . S
H1950 C1966 0.931 . S
C1951 H1939 0.929 . S
C1951 C1945 1.390 . S
C1951 C1948 1.386 . S
C1952 C1947 1.490 . S
C1952 C1954 1.395 . S
C1952 C1955 1.403 . S
H1953 C1959 0.930 . S
C1954 H1940 0.930 . S
C1954 C1952 1.395 . S
C1954 C1957 1.403 . S
C1955 C1952 1.403 . S
C1955 C1956 1.524 . S
C1955 C1959 1.400 . S
C1956 H1941 0.960 . S
C1956 H1942 0.960 . S
C1956 H1943 0.960 . S
C1956 C1955 1.524 . S
C1957 C1954 1.403 . S
C1957 C1958 1.392 . S
C1957 C1961 1.495 . S
C1958 C1957 1.392 . S
C1958 C1959 1.385 . S
C1958 C1960 1.478 . S
C1959 H1953 0.930 . S
C1959 C1955 1.400 . S
C1959 C1958 1.385 . S
C1960 C1958 1.478 . S
C1960 C1962 1.381 . S
C1960 C1966 1.383 . S
C1961 C1957 1.495 . S
C1961 H1967 0.959 . S
C1961 H1968 0.961 . S
C1961 H1969 0.960 . S
C1962 C1960 1.381 . S
C1962 C1963 1.394 . S
C1962 H1970 0.930 . S
C1963 C1962 1.394 . S
C1963 C1964 1.383 . S
C1963 H1971 0.929 . S
C1964 C1963 1.383 . S
C1964 C1965 1.377 . S
C1965 H1949 0.930 . S
C1965 C1964 1.377 . S
C1965 C1966 1.379 . S
C1966 H1950 0.931 . S
C1966 C1960 1.383 . S
C1966 C1965 1.379 . S
H1967 C1961 0.959 . S
H1968 C1961 0.961 . S
H1969 C1961 0.960 . S
H1970 C1962 0.930 . S
H1971 C1963 0.929 . S
H1972 C1980 0.929 . S
H1973 C1982 0.930 . S
H1974 C1984 0.930 . S
H1975 C1987 0.929 . S
H1976 C1990 0.930 . S
H1977 C1992 0.960 . S
H1978 C1992 0.960 . S
H1979 C1992 0.960 . S
C1980 H1972 0.929 . S
C1980 C1981 1.377 . S
C1980 C1982 1.384 . S
C1981 C1980 1.377 . S
C1981 C1987 1.390 . S
C1982 H1973 0.930 . S
C1982 C1980 1.384 . S
C1982 C1983 1.372 . S
C1983 C1982 1.372 . S
C1983 C1984 1.400 . S
C1983 C1988 1.490 . S
C1984 H1974 0.930 . S
C1984 C1983 1.400 . S
C1984 C1987 1.386 . S
H1985 C2001 0.930 . S
H1986 C2002 0.931 . S
C1987 H1975 0.929 . S
C1987 C1981 1.390 . S
C1987 C1984 1.386 . S
C1988 C1983 1.490 . S
C1988 C1990 1.395 . S
C1988 C1991 1.403 . S
H1989 C1995 0.930 . S
C1990 H1976 0.930 . S
C1990 C1988 1.395 . S
C1990 C1993 1.403 . S
C1991 C1988 1.403 . S
C1991 C1992 1.524 . S
C1991 C1995 1.400 . S
C1992 H1977 0.960 . S
C1992 H1978 0.960 . S
C1992 H1979 0.960 . S
C1992 C1991 1.524 . S
C1993 C1990 1.403 . S
C1993 C1994 1.392 . S
C1993 C1997 1.495 . S
C1994 C1993 1.392 . S
C1994 C1995 1.385 . S
C1994 C1996 1.478 . S
C1995 H1989 0.930 . S
C1995 C1991 1.400 . S
C1995 C1994 1.385 . S
C1996 C1994 1.478 . S
C1996 C1998 1.381 . S
C1996 C2002 1.383 . S
C1997 C1993 1.495 . S
C1997 H2003 0.959 . S
C1997 H2004 0.961 . S
C1997 H2005 0.960 . S
C1998 C1996 1.381 . S
C1998 C1999 1.394 . S
C1998 H2006 0.930 . S
C1999 C1998 1.394 . S
C1999 C2000 1.383 . S
C1999 H2007 0.929 . S
C2000 C1999 1.383 . S
C2000 C2001 1.377 . S
C2001 H1985 0.930 . S
C2001 C2000 1.377 . S
C2001 C2002 1.379 . S
C2002 H1986 0.931 . S
C2002 C1996 1.383 . S
C2002 C2001 1.379 . S
H2003 C1997 0.959 . S
H2004 C1997 0.961 . S
H2005 C1997 0.960 . S
H2006 C1998 0.930 . S
H2007 C1999 0.929 . S
H2008 C2016 0.929 . S
H2009 C2018 0.930 . S
H2010 C2020 0.930 . S
H2011 C2023 0.929 . S
H2012 C2026 0.930 . S
H2013 C2028 0.960 . S
H2014 C2028 0.960 . S
H2015 C2028 0.960 . S
C2016 H2008 0.929 . S
C2016 C2017 1.377 . S
C2016 C2018 1.384 . S
C2017 C2016 1.377 . S
C2017 C2023 1.390 . S
C2018 H2009 0.930 . S
C2018 C2016 1.384 . S
C2018 C2019 1.372 . S
C2019 C2018 1.372 . S
C2019 C2020 1.400 . S
C2019 C2024 1.490 . S
C2020 H2010 0.930 . S
C2020 C2019 1.400 . S
C2020 C2023 1.386 . S
H2021 C2037 0.930 . S
H2022 C2038 0.931 . S
C2023 H2011 0.929 . S
C2023 C2017 1.390 . S
C2023 C2020 1.386 . S
C2024 C2019 1.490 . S
C2024 C2026 1.395 . S
C2024 C2027 1.403 . S
H2025 C2031 0.930 . S
C2026 H2012 0.930 . S
C2026 C2024 1.395 . S
C2026 C2029 1.403 . S
C2027 C2024 1.403 . S
C2027 C2028 1.524 . S
C2027 C2031 1.400 . S
C2028 H2013 0.960 . S
C2028 H2014 0.960 . S
C2028 H2015 0.960 . S
C2028 C2027 1.524 . S
C2029 C2026 1.403 . S
C2029 C2030 1.392 . S
C2029 C2033 1.495 . S
C2030 C2029 1.392 . S
C2030 C2031 1.385 . S
C2030 C2032 1.478 . S
C2031 H2025 0.930 . S
C2031 C2027 1.400 . S
C2031 C2030 1.385 . S
C2032 C2030 1.478 . S
C2032 C2034 1.381 . S
C2032 C2038 1.383 . S
C2033 C2029 1.495 . S
C2033 H2039 0.959 . S
C2033 H2040 0.961 . S
C2033 H2041 0.960 . S
C2034 C2032 1.381 . S
C2034 C2035 1.394 . S
C2034 H2042 0.930 . S
C2035 C2034 1.394 . S
C2035 C2036 1.383 . S
C2035 H2043 0.929 . S
C2036 C2035 1.383 . S
C2036 C2037 1.377 . S
C2037 H2021 0.930 . S
C2037 C2036 1.377 . S
C2037 C2038 1.379 . S
C2038 H2022 0.931 . S
C2038 C2032 1.383 . S
C2038 C2037 1.379 . S
H2039 C2033 0.959 . S
H2040 C2033 0.961 . S
H2041 C2033 0.960 . S
H2042 C2034 0.930 . S
H2043 C2035 0.929 . S
H2044 C2052 0.929 . S
H2045 C2054 0.930 . S
H2046 C2056 0.930 . S
H2047 C2059 0.929 . S
H2048 C2062 0.930 . S
H2049 C2064 0.960 . S
H2050 C2064 0.960 . S
H2051 C2064 0.960 . S
C2052 H2044 0.929 . S
C2052 C2053 1.377 . S
C2052 C2054 1.384 . S
C2053 C2052 1.377 . S
C2053 C2059 1.390 . S
C2054 H2045 0.930 . S
C2054 C2052 1.384 . S
C2054 C2055 1.372 . S
C2055 C2054 1.372 . S
C2055 C2056 1.400 . S
C2055 C2060 1.490 . S
C2056 H2046 0.930 . S
C2056 C2055 1.400 . S
C2056 C2059 1.386 . S
H2057 C2073 0.930 . S
H2058 C2074 0.931 . S
C2059 H2047 0.929 . S
C2059 C2053 1.390 . S
C2059 C2056 1.386 . S
C2060 C2055 1.490 . S
C2060 C2062 1.395 . S
C2060 C2063 1.403 . S
H2061 C2067 0.930 . S
C2062 H2048 0.930 . S
C2062 C2060 1.395 . S
C2062 C2065 1.403 . S
C2063 C2060 1.403 . S
C2063 C2064 1.524 . S
C2063 C2067 1.400 . S
C2064 H2049 0.960 . S
C2064 H2050 0.960 . S
C2064 H2051 0.960 . S
C2064 C2063 1.524 . S
C2065 C2062 1.403 . S
C2065 C2066 1.392 . S
C2065 C2069 1.495 . S
C2066 C2065 1.392 . S
C2066 C2067 1.385 . S
C2066 C2068 1.478 . S
C2067 H2061 0.930 . S
C2067 C2063 1.400 . S
C2067 C2066 1.385 . S
C2068 C2066 1.478 . S
C2068 C2070 1.381 . S
C2068 C2074 1.383 . S
C2069 C2065 1.495 . S
C2069 H2075 0.959 . S
C2069 H2076 0.961 . S
C2069 H2077 0.960 . S
C2070 C2068 1.381 . S
C2070 C2071 1.394 . S
C2070 H2078 0.930 . S
C2071 C2070 1.394 . S
C2071 C2072 1.383 . S
C2071 H2079 0.929 . S
C2072 C2071 1.383 . S
C2072 C2073 1.377 . S
C2073 H2057 0.930 . S
C2073 C2072 1.377 . S
C2073 C2074 1.379 . S
C2074 H2058 0.931 . S
C2074 C2068 1.383 . S
C2074 C2073 1.379 . S
H2075 C2069 0.959 . S
H2076 C2069 0.961 . S
H2077 C2069 0.960 . S
H2078 C2070 0.930 . S
H2079 C2071 0.929 . S
H2080 C2088 0.929 . S
H2081 C2090 0.930 . S
H2082 C2092 0.930 1_554 S
H2083 C2095 0.929 . S
H2084 C2098 0.930 . S
H2085 C2100 0.960 . S
H2086 C2100 0.960 . S
H2087 C2100 0.960 . S
C2088 H2080 0.929 . S
C2088 C2089 1.377 . S
C2088 C2090 1.384 . S
C2089 C2088 1.377 . S
C2089 C2095 1.390 . S
C2090 H2081 0.930 . S
C2090 C2088 1.384 . S
C2090 C2091 1.372 1_556 S
C2091 C2090 1.372 1_554 S
C2091 C2092 1.400 1_554 S
C2091 C2096 1.490 . S
C2092 H2082 0.930 1_556 S
C2092 C2091 1.400 1_556 S
C2092 C2095 1.386 . S
H2093 C2109 0.930 . S
H2094 C2110 0.931 . S
C2095 H2083 0.929 . S
C2095 C2089 1.390 . S
C2095 C2092 1.386 . S
C2096 C2091 1.490 . S
C2096 C2098 1.395 . S
C2096 C2099 1.403 . S
H2097 C2103 0.930 . S
C2098 H2084 0.930 . S
C2098 C2096 1.395 . S
C2098 C2101 1.403 . S
C2099 C2096 1.403 . S
C2099 C2100 1.524 . S
C2099 C2103 1.400 . S
C2100 H2085 0.960 . S
C2100 H2086 0.960 . S
C2100 H2087 0.960 . S
C2100 C2099 1.524 . S
C2101 C2098 1.403 . S
C2101 C2102 1.392 . S
C2101 C2105 1.495 . S
C2102 C2101 1.392 . S
C2102 C2103 1.385 . S
C2102 C2104 1.478 . S
C2103 H2097 0.930 . S
C2103 C2099 1.400 . S
C2103 C2102 1.385 . S
C2104 C2102 1.478 . S
C2104 C2106 1.381 . S
C2104 C2110 1.383 . S
C2105 C2101 1.495 . S
C2105 H2111 0.959 . S
C2105 H2112 0.961 . S
C2105 H2113 0.960 . S
C2106 C2104 1.381 . S
C2106 C2107 1.394 . S
C2106 H2114 0.930 . S
C2107 C2106 1.394 . S
C2107 C2108 1.383 . S
C2107 H2115 0.929 . S
C2108 C2107 1.383 . S
C2108 C2109 1.377 . S
C2109 H2093 0.930 . S
C2109 C2108 1.377 . S
C2109 C2110 1.379 . S
C2110 H2094 0.931 . S
C2110 C2104 1.383 . S
C2110 C2109 1.379 . S
H2111 C2105 0.959 . S
H2112 C2105 0.961 . S
H2113 C2105 0.960 . S
H2114 C2106 0.930 . S
H2115 C2107 0.929 . S
H2116 C2124 0.929 . S
H2117 C2126 0.930 . S
H2118 C2128 0.930 . S
H2119 C2131 0.929 . S
H2120 C2134 0.930 . S
H2121 C2136 0.960 . S
H2122 C2136 0.960 . S
H2123 C2136 0.960 . S
C2124 H2116 0.929 . S
C2124 C2125 1.377 . S
C2124 C2126 1.384 . S
C2125 C2124 1.377 . S
C2125 C2131 1.390 . S
C2126 H2117 0.930 . S
C2126 C2124 1.384 . S
C2126 C2127 1.372 . S
C2127 C2126 1.372 . S
C2127 C2128 1.400 . S
C2127 C2132 1.490 . S
C2128 H2118 0.930 . S
C2128 C2127 1.400 . S
C2128 C2131 1.386 . S
H2129 C2145 0.930 . S
H2130 C2146 0.931 1_556 S
C2131 H2119 0.929 . S
C2131 C2125 1.390 . S
C2131 C2128 1.386 . S
C2132 C2127 1.490 . S
C2132 C2134 1.395 . S
C2132 C2135 1.403 . S
H2133 C2139 0.930 . S
C2134 H2120 0.930 . S
C2134 C2132 1.395 . S
C2134 C2137 1.403 . S
C2135 C2132 1.403 . S
C2135 C2136 1.524 . S
C2135 C2139 1.400 . S
C2136 H2121 0.960 . S
C2136 H2122 0.960 . S
C2136 H2123 0.960 . S
C2136 C2135 1.524 . S
C2137 C2134 1.403 . S
C2137 C2138 1.392 . S
C2137 C2141 1.495 . S
C2138 C2137 1.392 . S
C2138 C2139 1.385 . S
C2138 C2140 1.478 . S
C2139 H2133 0.930 . S
C2139 C2135 1.400 . S
C2139 C2138 1.385 . S
C2140 C2138 1.478 . S
C2140 C2142 1.381 1_556 S
C2140 C2146 1.383 1_556 S
C2141 C2137 1.495 . S
C2141 H2147 0.959 . S
C2141 H2148 0.961 . S
C2141 H2149 0.960 . S
C2142 C2140 1.381 1_554 S
C2142 C2143 1.394 . S
C2142 H2150 0.930 . S
C2143 C2142 1.394 . S
C2143 C2144 1.383 . S
C2143 H2151 0.929 . S
C2144 C2143 1.383 . S
C2144 C2145 1.377 . S
C2145 H2129 0.930 . S
C2145 C2144 1.377 . S
C2145 C2146 1.379 . S
C2146 H2130 0.931 1_554 S
C2146 C2140 1.383 1_554 S
C2146 C2145 1.379 . S
H2147 C2141 0.959 . S
H2148 C2141 0.961 . S
H2149 C2141 0.960 . S
H2150 C2142 0.930 . S
H2151 C2143 0.929 . S
H2152 C2160 0.929 . S
H2153 C2162 0.930 . S
H2154 C2164 0.930 . S
H2155 C2167 0.929 . S
H2156 C2170 0.930 . S
H2157 C2172 0.960 . S
H2158 C2172 0.960 . S
H2159 C2172 0.960 . S
C2160 H2152 0.929 . S
C2160 C2161 1.377 . S
C2160 C2162 1.384 . S
C2161 C2160 1.377 . S
C2161 C2167 1.390 . S
C2162 H2153 0.930 . S
C2162 C2160 1.384 . S
C2162 C2163 1.372 . S
C2163 C2162 1.372 . S
C2163 C2164 1.400 . S
C2163 C2168 1.490 . S
C2164 H2154 0.930 . S
C2164 C2163 1.400 . S
C2164 C2167 1.386 . S
H2165 C2181 0.930 . S
H2166 C2182 0.931 . S
C2167 H2155 0.929 . S
C2167 C2161 1.390 . S
C2167 C2164 1.386 . S
C2168 C2163 1.490 . S
C2168 C2170 1.395 . S
C2168 C2171 1.403 . S
H2169 C2175 0.930 . S
C2170 H2156 0.930 . S
C2170 C2168 1.395 . S
C2170 C2173 1.403 . S
C2171 C2168 1.403 . S
C2171 C2172 1.524 . S
C2171 C2175 1.400 . S
C2172 H2157 0.960 . S
C2172 H2158 0.960 . S
C2172 H2159 0.960 . S
C2172 C2171 1.524 . S
C2173 C2170 1.403 . S
C2173 C2174 1.392 . S
C2173 C2177 1.495 . S
C2174 C2173 1.392 . S
C2174 C2175 1.385 . S
C2174 C2176 1.478 . S
C2175 H2169 0.930 . S
C2175 C2171 1.400 . S
C2175 C2174 1.385 . S
C2176 C2174 1.478 . S
C2176 C2178 1.381 1_554 S
C2176 C2182 1.383 1_554 S
C2177 C2173 1.495 . S
C2177 H2183 0.959 . S
C2177 H2184 0.961 . S
C2177 H2185 0.960 . S
C2178 C2176 1.381 1_556 S
C2178 C2179 1.394 . S
C2178 H2186 0.927 1_556 S
C2179 C2178 1.394 . S
C2179 C2180 1.383 . S
C2179 H2187 0.929 . S
C2180 C2179 1.383 . S
C2180 C2181 1.377 . S
C2181 H2165 0.930 . S
C2181 C2180 1.377 . S
C2181 C2182 1.379 . S
C2182 H2166 0.931 . S
C2182 C2176 1.383 1_556 S
C2182 C2181 1.379 . S
H2183 C2177 0.959 . S
H2184 C2177 0.961 . S
H2185 C2177 0.960 . S
H2186 C2178 0.927 1_554 S
H2187 C2179 0.929 . S
H2188 C2196 0.929 . S
H2189 C2198 0.930 . S
H2190 C2200 0.930 1_556 S
H2191 C2203 0.929 . S
H2192 C2206 0.930 . S
H2193 C2208 0.960 . S
H2194 C2208 0.960 . S
H2195 C2208 0.960 . S
C2196 H2188 0.929 . S
C2196 C2197 1.377 . S
C2196 C2198 1.384 . S
C2197 C2196 1.377 . S
C2197 C2203 1.390 . S
C2198 H2189 0.930 . S
C2198 C2196 1.384 . S
C2198 C2199 1.372 1_554 S
C2199 C2198 1.372 1_556 S
C2199 C2200 1.400 1_556 S
C2199 C2204 1.490 . S
C2200 H2190 0.930 1_554 S
C2200 C2199 1.400 1_554 S
C2200 C2203 1.386 . S
H2201 C2217 0.930 . S
H2202 C2218 0.931 . S
C2203 H2191 0.929 . S
C2203 C2197 1.390 . S
C2203 C2200 1.386 . S
C2204 C2199 1.490 . S
C2204 C2206 1.395 . S
C2204 C2207 1.403 . S
H2205 C2211 0.930 . S
C2206 H2192 0.930 . S
C2206 C2204 1.395 . S
C2206 C2209 1.403 . S
C2207 C2204 1.403 . S
C2207 C2208 1.524 . S
C2207 C2211 1.400 . S
C2208 H2193 0.960 . S
C2208 H2194 0.960 . S
C2208 H2195 0.960 . S
C2208 C2207 1.524 . S
C2209 C2206 1.403 . S
C2209 C2210 1.392 . S
C2209 C2213 1.495 . S
C2210 C2209 1.392 . S
C2210 C2211 1.385 . S
C2210 C2212 1.478 . S
C2211 H2205 0.930 . S
C2211 C2207 1.400 . S
C2211 C2210 1.385 . S
C2212 C2210 1.478 . S
C2212 C2214 1.381 . S
C2212 C2218 1.383 . S
C2213 C2209 1.495 . S
C2213 H2219 0.959 . S
C2213 H2220 0.961 . S
C2213 H2221 0.960 . S
C2214 C2212 1.381 . S
C2214 C2215 1.394 . S
C2214 H2222 0.930 . S
C2215 C2214 1.394 . S
C2215 C2216 1.383 . S
C2215 H2223 0.929 . S
C2216 C2215 1.383 . S
C2216 C2217 1.377 . S
C2217 H2201 0.930 . S
C2217 C2216 1.377 . S
C2217 C2218 1.379 . S
C2218 H2202 0.931 . S
C2218 C2212 1.383 . S
C2218 C2217 1.379 . S
H2219 C2213 0.959 . S
H2220 C2213 0.961 . S
H2221 C2213 0.960 . S
H2222 C2214 0.930 . S
H2223 C2215 0.929 . S
H2224 C2232 0.929 . S
H2225 C2234 0.930 . S
H2226 C2236 0.930 . S
H2227 C2239 0.929 . S
H2228 C2242 0.930 . S
H2229 C2244 0.960 . S
H2230 C2244 0.960 . S
H2231 C2244 0.960 . S
C2232 H2224 0.929 . S
C2232 C2233 1.377 . S
C2232 C2234 1.384 . S
C2233 C2232 1.377 . S
C2233 C2239 1.390 . S
C2234 H2225 0.930 . S
C2234 C2232 1.384 . S
C2234 C2235 1.372 . S
C2235 C2234 1.372 . S
C2235 C2236 1.400 . S
C2235 C2240 1.490 . S
C2236 H2226 0.930 . S
C2236 C2235 1.400 . S
C2236 C2239 1.386 . S
H2237 C2253 0.930 . S
H2238 C2254 0.931 . S
C2239 H2227 0.929 . S
C2239 C2233 1.390 . S
C2239 C2236 1.386 . S
C2240 C2235 1.490 . S
C2240 C2242 1.395 . S
C2240 C2243 1.403 . S
H2241 C2247 0.930 . S
C2242 H2228 0.930 . S
C2242 C2240 1.395 . S
C2242 C2245 1.403 . S
C2243 C2240 1.403 . S
C2243 C2244 1.524 . S
C2243 C2247 1.400 . S
C2244 H2229 0.960 . S
C2244 H2230 0.960 . S
C2244 H2231 0.960 . S
C2244 C2243 1.524 . S
C2245 C2242 1.403 . S
C2245 C2246 1.392 . S
C2245 C2249 1.495 . S
C2246 C2245 1.392 . S
C2246 C2247 1.385 . S
C2246 C2248 1.478 1_554 S
C2247 H2241 0.930 . S
C2247 C2243 1.400 . S
C2247 C2246 1.385 . S
C2248 C2246 1.478 1_556 S
C2248 C2250 1.381 . S
C2248 C2254 1.383 . S
C2249 C2245 1.495 . S
C2249 H2255 0.959 . S
C2249 H2256 0.961 . S
C2249 H2257 0.960 . S
C2250 C2248 1.381 . S
C2250 C2251 1.394 . S
C2250 H2258 0.930 . S
C2251 C2250 1.394 . S
C2251 C2252 1.383 . S
C2251 H2259 0.929 . S
C2252 C2251 1.383 . S
C2252 C2253 1.377 . S
C2253 H2237 0.930 . S
C2253 C2252 1.377 . S
C2253 C2254 1.379 . S
C2254 H2238 0.931 . S
C2254 C2248 1.383 . S
C2254 C2253 1.379 . S
H2255 C2249 0.959 . S
H2256 C2249 0.961 . S
H2257 C2249 0.960 . S
H2258 C2250 0.930 . S
H2259 C2251 0.929 . S
H2260 C2268 0.929 . S
H2261 C2270 0.930 . S
H2262 C2272 0.930 . S
H2263 C2275 0.929 . S
H2264 C2278 0.930 . S
H2265 C2280 0.960 . S
H2266 C2280 0.960 . S
H2267 C2280 0.960 . S
C2268 H2260 0.929 . S
C2268 C2269 1.377 . S
C2268 C2270 1.384 . S
C2269 C2268 1.377 . S
C2269 C2275 1.390 . S
C2270 H2261 0.930 . S
C2270 C2268 1.384 . S
C2270 C2271 1.372 . S
C2271 C2270 1.372 . S
C2271 C2272 1.400 . S
C2271 C2276 1.490 1_554 S
C2272 H2262 0.930 . S
C2272 C2271 1.400 . S
C2272 C2275 1.386 . S
H2273 C2289 0.930 . S
H2274 C2290 0.931 . S
C2275 H2263 0.929 . S
C2275 C2269 1.390 . S
C2275 C2272 1.386 . S
C2276 C2271 1.490 1_556 S
C2276 C2278 1.395 . S
C2276 C2279 1.403 . S
H2277 C2283 0.930 . S
C2278 H2264 0.930 . S
C2278 C2276 1.395 . S
C2278 C2281 1.403 . S
C2279 C2276 1.403 . S
C2279 C2280 1.524 . S
C2279 C2283 1.400 . S
C2280 H2265 0.960 . S
C2280 H2266 0.960 . S
C2280 H2267 0.960 . S
C2280 C2279 1.524 . S
C2281 C2278 1.403 . S
C2281 C2282 1.392 . S
C2281 C2285 1.495 . S
C2282 C2281 1.392 . S
C2282 C2283 1.385 . S
C2282 C2284 1.478 . S
C2283 H2277 0.930 . S
C2283 C2279 1.400 . S
C2283 C2282 1.385 . S
C2284 C2282 1.478 . S
C2284 C2286 1.381 . S
C2284 C2290 1.383 . S
C2285 C2281 1.495 . S
C2285 H2291 0.959 . S
C2285 H2292 0.961 . S
C2285 H2293 0.960 . S
C2286 C2284 1.381 . S
C2286 C2287 1.394 . S
C2286 H2294 0.930 . S
C2287 C2286 1.394 . S
C2287 C2288 1.383 . S
C2287 H2295 0.929 . S
C2288 C2287 1.383 . S
C2288 C2289 1.377 . S
C2289 H2273 0.930 . S
C2289 C2288 1.377 . S
C2289 C2290 1.379 . S
C2290 H2274 0.931 . S
C2290 C2284 1.383 . S
C2290 C2289 1.379 . S
H2291 C2285 0.959 . S
H2292 C2285 0.961 . S
H2293 C2285 0.960 . S
H2294 C2286 0.930 . S
H2295 C2287 0.929 . S
H2296 C2304 0.929 . S
H2297 C2306 0.930 . S
H2298 C2308 0.930 . S
H2299 C2311 0.929 . S
H2300 C2314 0.930 . S
H2301 C2316 0.960 . S
H2302 C2316 0.960 . S
H2303 C2316 0.960 . S
C2304 H2296 0.929 . S
C2304 C2305 1.377 . S
C2304 C2306 1.384 . S
C2305 C2304 1.377 . S
C2305 C2311 1.390 . S
C2306 H2297 0.930 . S
C2306 C2304 1.384 . S
C2306 C2307 1.372 . S
C2307 C2306 1.372 . S
C2307 C2308 1.400 . S
C2307 C2312 1.490 1_556 S
C2308 H2298 0.930 . S
C2308 C2307 1.400 . S
C2308 C2311 1.386 . S
H2309 C2325 0.930 . S
H2310 C2326 0.931 . S
C2311 H2299 0.929 . S
C2311 C2305 1.390 . S
C2311 C2308 1.386 . S
C2312 C2307 1.490 1_554 S
C2312 C2314 1.395 . S
C2312 C2315 1.403 . S
H2313 C2319 0.930 . S
C2314 H2300 0.930 . S
C2314 C2312 1.395 . S
C2314 C2317 1.403 . S
C2315 C2312 1.403 . S
C2315 C2316 1.524 . S
C2315 C2319 1.400 . S
C2316 H2301 0.960 . S
C2316 H2302 0.960 . S
C2316 H2303 0.960 . S
C2316 C2315 1.524 . S
C2317 C2314 1.403 . S
C2317 C2318 1.392 . S
C2317 C2321 1.495 . S
C2318 C2317 1.392 . S
C2318 C2319 1.385 . S
C2318 C2320 1.478 . S
C2319 H2313 0.930 . S
C2319 C2315 1.400 . S
C2319 C2318 1.385 . S
C2320 C2318 1.478 . S
C2320 C2322 1.381 . S
C2320 C2326 1.383 . S
C2321 C2317 1.495 . S
C2321 H2327 0.959 . S
C2321 H2328 0.961 . S
C2321 H2329 0.960 . S
C2322 C2320 1.381 . S
C2322 C2323 1.394 . S
C2322 H2330 0.930 . S
C2323 C2322 1.394 . S
C2323 C2324 1.383 . S
C2323 H2331 0.929 . S
C2324 C2323 1.383 . S
C2324 C2325 1.377 . S
C2325 H2309 0.930 . S
C2325 C2324 1.377 . S
C2325 C2326 1.379 . S
C2326 H2310 0.931 . S
C2326 C2320 1.383 . S
C2326 C2325 1.379 . S
H2327 C2321 0.959 . S
H2328 C2321 0.961 . S
H2329 C2321 0.960 . S
H2330 C2322 0.930 . S
H2331 C2323 0.929 . S
H2332 C2340 0.929 . S
H2333 C2342 0.930 . S
H2334 C2344 0.930 . S
H2335 C2347 0.929 . S
H2336 C2350 0.930 . S
H2337 C2352 0.960 . S
H2338 C2352 0.960 . S
H2339 C2352 0.960 . S
C2340 H2332 0.929 . S
C2340 C2341 1.377 . S
C2340 C2342 1.384 . S
C2341 C2340 1.377 . S
C2341 C2347 1.390 . S
C2342 H2333 0.930 . S
C2342 C2340 1.384 . S
C2342 C2343 1.372 . S
C2343 C2342 1.372 . S
C2343 C2344 1.400 . S
C2343 C2348 1.490 . S
C2344 H2334 0.930 . S
C2344 C2343 1.400 . S
C2344 C2347 1.386 . S
H2345 C2361 0.930 . S
H2346 C2362 0.931 . S
C2347 H2335 0.929 . S
C2347 C2341 1.390 . S
C2347 C2344 1.386 . S
C2348 C2343 1.490 . S
C2348 C2350 1.395 . S
C2348 C2351 1.403 . S
H2349 C2355 0.930 . S
C2350 H2336 0.930 . S
C2350 C2348 1.395 . S
C2350 C2353 1.403 . S
C2351 C2348 1.403 . S
C2351 C2352 1.524 . S
C2351 C2355 1.400 . S
C2352 H2337 0.960 . S
C2352 H2338 0.960 . S
C2352 H2339 0.960 . S
C2352 C2351 1.524 . S
C2353 C2350 1.403 . S
C2353 C2354 1.392 . S
C2353 C2357 1.495 . S
C2354 C2353 1.392 . S
C2354 C2355 1.385 . S
C2354 C2356 1.478 1_556 S
C2355 H2349 0.930 . S
C2355 C2351 1.400 . S
C2355 C2354 1.385 . S
C2356 C2354 1.478 1_554 S
C2356 C2358 1.381 . S
C2356 C2362 1.383 . S
C2357 C2353 1.495 . S
C2357 H2363 0.959 . S
C2357 H2364 0.961 . S
C2357 H2365 0.960 . S
C2358 C2356 1.381 . S
C2358 C2359 1.394 . S
C2358 H2366 0.930 . S
C2359 C2358 1.394 . S
C2359 C2360 1.383 . S
C2359 H2367 0.929 . S
C2360 C2359 1.383 . S
C2360 C2361 1.377 . S
C2361 H2345 0.930 . S
C2361 C2360 1.377 . S
C2361 C2362 1.379 . S
C2362 H2346 0.931 . S
C2362 C2356 1.383 . S
C2362 C2361 1.379 . S
H2363 C2357 0.959 . S
H2364 C2357 0.961 . S
H2365 C2357 0.960 . S
H2366 C2358 0.930 . S
H2367 C2359 0.929 . S
C649 C455 1.812 . S
C668 C18 1.747 . S
C685 C326 1.804 . S
C704 C49 1.746 . S
C721 C98 1.775 . S
C740 C375 1.822 . S
C757 C129 1.771 . S
C776 C406 1.783 . S
C793 C178 1.775 . S
C812 C215 1.793 . S
C829 C246 1.812 . S
C848 C209 1.799 . S
C865 C258 1.776 . S
C884 C295 1.818 . S
C901 C166 1.812 . S
C920 C289 1.798 . S
C937 C135 1.810 . S
C956 C338 1.748 . S
C973 C369 1.774 . S
C992 C6 1.803 . S
C1009 C55 1.804 . S
C1028 C418 1.794 . S
C1045 C86 1.807 . S
C1064 C449 1.760 . S
C1081 C498 1.771 . S
C1100 C535 1.809 . S
C1117 C566 1.809 . S
C1136 C529 1.786 . S
C1153 C615 1.804 . S
C1172 C578 1.798 . S
C1189 C609 1.773 . S
C1208 C486 1.788 . S
C1225 C9 2.056 . S
C1244 C169 2.068 . S
C1261 C218 2.057 . S
C1280 C58 2.055 . S
C1297 C89 2.055 . S
C1316 C249 2.037 . S
C1333 C138 2.057 . S
C1352 C298 2.039 . S
C1369 C329 2.053 . S
C1388 C489 2.051 . S
C1405 C538 2.058 . S
C1424 C378 2.050 . S
C1441 C409 2.059 . S
C1460 C569 2.058 . S
C1477 C458 2.053 . S
C1496 C618 2.067 . S
C1513 C575 1.316 . S
C1532 C15 1.324 . S
C1549 C46 1.312 . S
C1568 C606 1.297 . S
C1585 C95 1.312 . S
C1604 C495 1.297 . S
C1621 C126 1.311 . S
C1640 C526 1.292 . S
C1657 C175 1.317 . S
C1676 C415 1.319 . S
C1693 C206 1.311 . S
C1712 C446 1.294 . S
C1729 C255 1.315 . S
C1748 C335 1.329 . S
C1765 C366 1.313 . S
C1784 C286 1.312 . S
C1801 C10 2.479 . S
C1820 C19 2.473 1_556 S
C1837 C59 2.484 . S
C1856 C50 2.480 1_554 S
C1873 C90 2.483 . S
C1892 C99 2.470 1_556 S
C1909 C130 2.482 1_554 S
C1928 C139 2.487 . S
C1945 C179 2.484 . S
C1964 C170 2.474 . S
C1981 C219 2.483 . S
C2000 C210 2.489 . S
C2017 C250 2.484 . S
C2036 C259 2.478 . S
C2053 C290 2.483 . S
C2072 C299 2.489 . S
C2089 C330 2.480 . S
C2108 C339 2.483 . S
C2125 C370 2.484 . S
C2144 C379 2.474 . S
C2161 C419 2.482 . S
C2180 C410 2.488 . S
C2197 C459 2.482 . S
C2216 C450 2.489 . S
C2233 C490 2.482 . S
C2252 C499 2.487 . S
C2269 C530 2.484 . S
C2288 C539 2.473 . S
C2305 C579 2.483 . S
C2324 C570 2.489 . S
C2341 C619 2.483 . S
C2360 C610 2.489 . S
