# Generated by pormake.
# Topology tfs, (6)-cn, num edge types: 1
# Building blocks:
#     Node 0, Type 0, BuildingBlock: VOLQOD_clean_sbu_1, # of connection points: 6
#     Node 1, Type 0, BuildingBlock: VOLQOD_clean_sbu_1, # of connection points: 6
#     Node 2, Type 0, BuildingBlock: VOLQOD_clean_sbu_1, # of connection points: 6
#     Node 3, Type 0, BuildingBlock: VOLQOD_clean_sbu_1, # of connection points: 6
#     Node 4, Type 0, BuildingBlock: VOLQOD_clean_sbu_1, # of connection points: 6
#     Node 5, Type 0, BuildingBlock: VOLQOD_clean_sbu_1, # of connection points: 6
#     Edge 6, Type (0, 0), BuildingBlock: EZIPEK_clean_linker_0, # of connection points: 2
#     Edge 7, Type (0, 0), BuildingBlock: EZIPEK_clean_linker_0, # of connection points: 2
#     Edge 8, Type (0, 0), BuildingBlock: EZIPEK_clean_linker_0, # of connection points: 2
#     Edge 9, Type (0, 0), BuildingBlock: EZIPEK_clean_linker_0, # of connection points: 2
#     Edge 10, Type (0, 0), BuildingBlock: EZIPEK_clean_linker_0, # of connection points: 2
#     Edge 11, Type (0, 0), BuildingBlock: EZIPEK_clean_linker_0, # of connection points: 2
#     Edge 12, Type (0, 0), BuildingBlock: EZIPEK_clean_linker_0, # of connection points: 2
#     Edge 13, Type (0, 0), BuildingBlock: EZIPEK_clean_linker_0, # of connection points: 2
#     Edge 14, Type (0, 0), BuildingBlock: EZIPEK_clean_linker_0, # of connection points: 2
#     Edge 15, Type (0, 0), BuildingBlock: EZIPEK_clean_linker_0, # of connection points: 2
#     Edge 16, Type (0, 0), BuildingBlock: EZIPEK_clean_linker_0, # of connection points: 2
#     Edge 17, Type (0, 0), BuildingBlock: EZIPEK_clean_linker_0, # of connection points: 2
#     Edge 18, Type (0, 0), BuildingBlock: EZIPEK_clean_linker_0, # of connection points: 2
#     Edge 19, Type (0, 0), BuildingBlock: EZIPEK_clean_linker_0, # of connection points: 2
#     Edge 20, Type (0, 0), BuildingBlock: EZIPEK_clean_linker_0, # of connection points: 2
#     Edge 21, Type (0, 0), BuildingBlock: EZIPEK_clean_linker_0, # of connection points: 2
#     Edge 22, Type (0, 0), BuildingBlock: EZIPEK_clean_linker_0, # of connection points: 2
#     Edge 23, Type (0, 0), BuildingBlock: EZIPEK_clean_linker_0, # of connection points: 2
# Relax obj value: 0.115
# Max RMSD: 0.091
# Mean RMSD: 0.091
data_MOF--net-tfs--node1-VOLQOD_clean_sbu_1--edge1-EZIPEK_clean_linker_0
_symmetry_space_group_name_H-M    P1
_symmetry_Int_Tables_number       1
_symmetry_cell_setting            triclinic
loop_
_symmetry_equiv_pos_as_xyz
'x, y, z'
_cell_length_a     35.242544
_cell_length_b     35.247984
_cell_length_c     13.095188
_cell_angle_alpha  89.918085
_cell_angle_beta   90.188887
_cell_angle_gamma 120.03077
loop_
_atom_site_label
_atom_site_type_symbol
_atom_site_fract_x
_atom_site_fract_y
_atom_site_fract_z
_atom_type_partial_charge
O0 O 0.27786 0.48431 0.89039 0.0
Zn1 Zn 0.21263 0.45867 0.88038 0.0
O2 O 0.1823 0.4119 0.97668 0.0
Zn3 Zn 0.15575 0.35683 0.9034 0.0
Zn4 Zn 0.22719 0.41834 0.07129 0.0
Zn5 Zn 0.1382 0.4176 0.05103 0.0
O6 O 0.09227 0.31988 0.94173 0.0
O7 O 0.07846 0.36986 0.00927 0.0
O8 O 0.1949 0.43899 0.73661 0.0
O9 O 0.15596 0.36654 0.75079 0.0
O10 O 0.1899 0.32616 0.93166 0.0
O11 O 0.24183 0.37134 0.04078 0.0
O12 O 0.20672 0.41144 0.21609 0.0
O13 O 0.19966 0.5067 0.91281 0.0
O14 O 0.14294 0.40951 0.20241 0.0
O15 O 0.14604 0.47778 0.02826 0.0
C16 C 0.29969 0.49643 0.97311 0.0
C17 C 0.06566 0.33157 0.97456 0.0
C18 C 0.22396 0.33687 -0.01423 0.0
C19 C 0.17283 0.4012 0.69659 0.0
C20 C 0.17241 0.4082 0.2563 0.0
C21 C 0.17251 0.50953 0.97185 0.0
O22 O 0.2819 0.47778 0.05691 0.0
O23 O 0.78148 0.28061 0.88777 0.0
Zn24 Zn 0.74224 0.21509 0.88101 0.0
O25 O 0.76092 0.18573 0.97448 0.0
Zn26 Zn 0.78991 0.16038 0.89815 0.0
Zn27 Zn 0.80068 0.23138 0.06505 0.0
Zn28 Zn 0.71202 0.14185 0.05284 0.0
O29 O 0.76239 0.09606 0.93105 0.0
O30 O 0.70219 0.0822 0.01754 0.0
O31 O 0.74228 0.19689 0.73768 0.0
O32 O 0.78297 0.16507 0.74584 0.0
O33 O 0.85465 0.19325 0.92803 0.0
O34 O 0.86206 0.24694 0.03121 0.0
O35 O 0.78969 0.21173 0.20963 0.0
O36 O 0.68164 0.20162 0.91725 0.0
O37 O 0.72494 0.15053 0.20395 0.0
O38 O 0.65792 0.14654 0.02865 0.0
C39 C 0.79249 0.30286 0.96978 0.0
C40 C 0.72629 0.06955 0.97427 0.0
C41 C 0.87834 0.22821 0.97867 0.0
C42 C 0.76167 0.17904 0.69462 0.0
C43 C 0.75771 0.17955 0.25381 0.0
C44 C 0.6519 0.17319 0.97467 0.0
O45 O 0.79482 0.28546 0.05299 0.0
O46 O 0.48292 0.7796 0.92153 0.0
Zn47 Zn 0.51487 0.74662 0.89963 0.0
O48 O 0.56521 0.76545 -0.01166 0.0
Zn49 Zn 0.6186 0.7926 0.90718 0.0
Zn50 Zn 0.56483 0.80763 0.08273 0.0
Zn51 Zn 0.56161 0.71533 0.06154 0.0
O52 O 0.65819 0.76859 0.94152 0.0
O53 O 0.61335 0.70816 0.02827 0.0
O54 O 0.53157 0.7505 0.75177 0.0
O55 O 0.60395 0.7797 0.7585 0.0
O56 O 0.65076 0.85806 0.92493 0.0
O57 O 0.61492 0.86751 0.05329 0.0
O58 O 0.56816 0.79085 0.22628 0.0
O59 O 0.4712 0.68461 0.93161 0.0
O60 O 0.56397 0.72584 0.21419 0.0
O61 O 0.50545 0.65892 0.02661 0.0
C62 C 0.48279 0.80187 -0.00242 0.0
C63 C 0.64986 0.73289 -0.01523 0.0
C64 C 0.64542 0.88266 -0.01267 0.0
C65 C 0.5683 0.76372 0.70803 0.0
C66 C 0.56683 0.75747 0.26734 0.0
C67 C 0.47151 0.65309 0.97823 0.0
O68 O 0.51046 0.81251 0.06986 0.0
O69 O 0.69482 0.48807 0.92111 0.0
Zn70 Zn 0.75976 0.52008 0.89986 0.0
O71 O 0.79131 0.5699 -0.01027 0.0
Zn72 Zn 0.81839 0.62401 0.91021 0.0
Zn73 Zn 0.74843 0.56913 0.08357 0.0
Zn74 Zn 0.83713 0.56513 0.06349 0.0
O75 O 0.88246 0.6622 0.94456 0.0
O76 O 0.89654 0.61595 0.03012 0.0
O77 O 0.77297 0.53768 0.75273 0.0
O78 O 0.81622 0.61003 0.76054 0.0
O79 O 0.78618 0.65737 0.93097 0.0
O80 O 0.73861 0.61921 0.05389 0.0
O81 O 0.76862 0.57276 0.22739 0.0
O82 O 0.77747 0.47578 0.93029 0.0
O83 O 0.82916 0.56803 0.21603 0.0
O84 O 0.83643 0.50851 0.02881 0.0
C85 C 0.67241 0.48722 -0.00225 0.0
C86 C 0.90923 0.65276 -0.01287 0.0
C87 C 0.7551 0.65094 -0.00906 0.0
C88 C 0.79651 0.57457 0.70951 0.0
C89 C 0.80061 0.57138 0.26882 0.0
C90 C 0.80862 0.4752 0.97824 0.0
O91 O 0.68936 0.51447 0.0707 0.0
O92 O 0.21226 0.70597 0.91493 0.0
Zn93 Zn 0.23985 0.77074 0.89583 0.0
O94 O 0.21573 0.79635 -0.01196 0.0
Zn95 Zn 0.18648 0.82184 0.91037 0.0
Zn96 Zn 0.1742 0.75022 0.07788 0.0
Zn97 Zn 0.26297 0.84239 0.06814 0.0
O98 O 0.21155 0.88597 0.94302 0.0
O99 O 0.27192 0.90144 0.03059 0.0
O100 O 0.23249 0.78264 0.75036 0.0
O101 O 0.19621 0.81911 0.7598 0.0
O102 O 0.12113 0.78838 0.93489 0.0
O103 O 0.1132 0.73788 0.04874 0.0
O104 O 0.18812 0.76803 0.22445 0.0
O105 O 0.30335 0.79352 0.92558 0.0
O106 O 0.24798 0.83391 0.21702 0.0
O107 O 0.3196 0.84176 0.05115 0.0
C108 C 0.18905 0.68052 -0.01376 0.0
C109 C 0.2475 0.91334 -0.0143 0.0
C110 C 0.09714 0.75542 -0.00892 0.0
C111 C 0.21461 0.80229 0.70802 0.0
C112 C 0.21799 0.80242 0.26775 0.0
C113 C 0.33021 0.82045 -0.0096 0.0
O114 O 0.17422 0.69352 0.0583 0.0
O115 O 0.49693 0.21409 0.91845 0.0
Zn116 Zn 0.46067 0.24257 0.89765 0.0
O117 O 0.41076 0.21903 -0.01068 0.0
Zn118 Zn 0.35615 0.19063 0.9111 0.0
Zn119 Zn 0.41401 0.17685 0.07968 0.0
Zn120 Zn 0.41276 0.26658 0.069 0.0
O121 O 0.31775 0.21625 0.9438 0.0
O122 O 0.36338 0.27644 0.03076 0.0
O123 O 0.44167 0.23531 0.75184 0.0
O124 O 0.3689 0.20071 0.76087 0.0
O125 O 0.32342 0.12523 0.93426 0.0
O126 O 0.36481 0.1163 0.04992 0.0
O127 O 0.41031 0.1909 0.22602 0.0
O128 O 0.50199 0.30605 0.92662 0.0
O129 O 0.40614 0.25176 0.21803 0.0
O130 O 0.47025 0.32276 0.05156 0.0
C131 C 0.49816 0.19021 -0.01032 0.0
C132 C 0.32695 0.25241 -0.01406 0.0
C133 C 0.33162 0.10079 -0.00901 0.0
C134 C 0.40419 0.21833 0.70928 0.0
C135 C 0.40677 0.22133 0.26902 0.0
C136 C 0.50211 0.33309 -0.00908 0.0
O137 O 0.47 0.1756 0.06105 0.0
C138 C 0.28847 0.28442 0.88902 0.0
C139 C 0.29497 0.26775 0.98206 0.0
C140 C 0.24671 0.28807 0.07119 0.0
C141 C 0.24492 0.30971 0.98156 0.0
N142 N 0.26685 0.33248 0.80737 0.0
N143 N 0.2818 0.25392 0.16253 0.0
C144 C 0.26595 0.30842 0.89043 0.0
C145 C 0.27432 0.26945 0.07341 0.0
N146 N 0.30438 0.2779 0.79963 0.0
N147 N 0.22107 0.28445 0.15304 0.0
H148 H 0.29947 0.23744 0.16578 0.0
H149 H 0.27233 0.25905 0.23401 0.0
H150 H 0.20018 0.29744 0.15317 0.0
H151 H 0.21755 0.2656 0.21735 0.0
H152 H 0.29638 0.28472 0.72796 0.0
H153 H 0.32314 0.26262 0.79593 0.0
H154 H 0.28597 0.33719 0.74302 0.0
H155 H 0.251 0.35074 0.80519 0.0
C156 C -0.00502 0.29126 0.87939 0.0
C157 C 0.01833 0.29992 0.97281 0.0
C158 C 0.95015 0.2529 0.06452 0.0
C159 C 0.92642 0.24906 0.97384 0.0
N160 N 0.92503 0.26746 0.79664 0.0
N161 N 0.01947 0.29098 0.15521 0.0
C162 C 0.94846 0.26844 0.88116 0.0
C163 C -0.0037 0.28112 0.06572 0.0
N164 N 0.01729 0.30525 0.78924 0.0
N165 N 0.92853 0.22864 0.14848 0.0
H166 H 0.0536 0.30952 0.15826 0.0
H167 H 0.00492 0.2828 0.22696 0.0
H168 H 0.89471 0.20728 0.14942 0.0
H169 H 0.94423 0.22663 0.21399 0.0
H170 H 0.00233 0.29579 0.7179 0.0
H171 H 0.05138 0.32377 0.78521 0.0
H172 H 0.93929 0.28545 0.73066 0.0
H173 H 0.89088 0.25119 0.79449 0.0
C174 C 0.68399 -0.00279 0.88796 0.0
C175 C 0.71068 0.02225 0.97085 0.0
C176 C 0.70235 0.9559 0.05219 0.0
C177 C 0.6716 0.93056 0.97552 0.0
N178 N 0.62972 0.9257 0.82471 0.0
N179 N 0.74465 0.02695 0.13389 0.0
C180 C 0.66192 0.9508 0.89358 0.0
C181 C 0.72002 0.00206 0.05332 0.0
N182 N 0.67971 0.01794 0.80407 0.0
N183 N 0.71502 0.93571 0.12263 0.0
H184 H 0.75953 0.06105 0.13502 0.0
H185 H 0.74858 0.01393 0.20183 0.0
H186 H 0.70253 0.90189 0.12322 0.0
H187 H 0.74021 0.95243 0.17518 0.0
H188 H 0.66492 0.00197 0.73618 0.0
H189 H 0.69383 0.05189 0.79958 0.0
H190 H 0.61732 0.93847 0.77097 0.0
H191 H 0.613 0.89153 0.82516 0.0
C192 C 0.71124 0.67698 0.89302 0.0
C193 C 0.73473 0.67866 0.98289 0.0
C194 C 0.70562 0.71978 0.07168 0.0
C195 C 0.68266 0.71857 0.98146 0.0
N196 N 0.67037 0.70458 0.80056 0.0
N197 N 0.76222 0.70905 0.14943 0.0
C198 C 0.68803 0.70029 0.88999 0.0
C199 C 0.73436 0.70243 0.06979 0.0
N200 N 0.70837 0.65056 0.81337 0.0
N201 N 0.69918 0.7367 0.15955 0.0
H202 H 0.78403 0.69715 0.14939 0.0
H203 H 0.7666 0.72939 0.21124 0.0
H204 H 0.68026 0.75188 0.16222 0.0
H205 H 0.71067 0.73382 0.23081 0.0
H206 H 0.6874 0.64377 0.75129 0.0
H207 H 0.72426 0.63235 0.81242 0.0
H208 H 0.67742 0.69643 0.72949 0.0
H209 H 0.6513 0.71952 0.79591 0.0
C210 C 0.0253 0.73353 0.07399 0.0
C211 C 0.04893 0.73482 -0.01463 0.0
C212 C 0.98007 0.69069 0.89199 0.0
C213 C 0.9567 0.68465 -0.01576 0.0
N214 N 0.95591 0.69858 0.16418 0.0
N215 N 0.04975 0.71102 0.81298 0.0
C216 C 0.979 0.70577 0.0756 0.0
C217 C 0.02661 0.71301 0.89451 0.0
N218 N 0.04718 0.75972 0.15551 0.0
N219 N 0.95779 0.6745 0.80222 0.0
H220 H 0.08384 0.72636 0.81192 0.0
H221 H 0.03525 0.69131 0.74926 0.0
H222 H 0.92371 0.65596 0.79773 0.0
H223 H 0.97283 0.68219 0.73095 0.0
H224 H 0.03171 0.76354 0.21896 0.0
H225 H 0.08106 0.78074 0.15599 0.0
H226 H 0.97049 0.70851 0.23577 0.0
H227 H 0.92175 0.6806 0.16691 0.0
C228 C 0.26209 0.98247 0.07293 0.0
C229 C 0.26218 0.96057 0.98218 0.0
C230 C 0.30427 0.03073 0.89359 0.0
C231 C 0.30378 0.05268 -0.01598 0.0
N232 N 0.2752 0.0503 0.15211 0.0
N233 N 0.27507 0.96219 0.80095 0.0
C234 C 0.28046 0.02873 0.07149 0.0
C235 C 0.28025 0.9842 0.89053 0.0
N236 N 0.24524 0.95906 0.16086 0.0
N237 N 0.33017 0.05419 0.81324 0.0
H238 H 0.2595 0.92812 0.79632 0.0
H239 H 0.28314 0.97742 0.72983 0.0
H240 H 0.34883 0.08828 0.81267 0.0
H241 H 0.33607 0.03996 0.75017 0.0
H242 H 0.24893 0.97337 0.23238 0.0
H243 H 0.22916 0.9249 0.16323 0.0
H244 H 0.25522 0.03458 0.21452 0.0
H245 H 0.288 0.08416 0.15264 0.0
C246 C 0.14269 0.59949 0.95942 0.0
C247 C 0.18311 0.63604 -0.00989 0.0
C248 C 0.21362 0.58819 0.02321 0.0
C249 C 0.17496 0.55244 0.98196 0.0
N250 N 0.10417 0.52384 0.90183 0.0
N251 N 0.25834 0.66683 0.04487 0.0
C252 C 0.13964 0.55787 0.94848 0.0
C253 C 0.21897 0.63085 0.02025 0.0
N254 N 0.10734 0.60467 0.9408 0.0
N255 N 0.24445 0.58098 0.06889 0.0
H256 H 0.26292 0.69839 0.05008 0.0
H257 H 0.28723 0.66598 0.05456 0.0
H258 H 0.24148 0.55006 0.07386 0.0
H259 H 0.27114 0.60474 0.10986 0.0
H260 H 0.07574 0.57867 0.92861 0.0
H261 H 0.10893 0.635 0.94464 0.0
H262 H 0.07951 0.52688 0.86556 0.0
H263 H 0.10083 0.49292 0.89274 0.0
C264 C 0.53243 0.14401 0.9576 0.0
C265 C 0.53612 0.18347 -0.00514 0.0
C266 C 0.61356 0.21198 0.03544 0.0
C267 C 0.61117 0.17483 -0.01282 0.0
N268 N 0.57012 0.10673 0.89583 0.0
N269 N 0.5798 0.25641 0.0636 0.0
C270 C 0.57096 0.14086 0.94737 0.0
C271 C 0.57657 0.21783 0.03252 0.0
N272 N 0.49212 0.10968 0.93228 0.0
N273 N 0.65081 0.24088 0.08697 0.0
H274 H 0.55294 0.26121 0.06793 0.0
H275 H 0.60945 0.28465 0.07951 0.0
H276 H 0.6785 0.23744 0.09167 0.0
H277 H 0.65314 0.2661 0.13267 0.0
H278 H 0.48644 0.07851 0.91428 0.0
H279 H 0.46349 0.11146 0.93634 0.0
H280 H 0.54306 0.08339 0.85514 0.0
H281 H 0.59766 0.10322 0.88802 0.0
C282 C 0.40312 0.59912 0.88724 0.0
C283 C 0.43086 0.6092 0.97379 0.0
C284 C 0.37697 0.5382 0.04561 0.0
C285 C 0.34544 0.53436 0.97189 0.0
N286 N 0.32825 0.57251 0.84049 0.0
N287 N 0.43767 0.58976 0.1488 0.0
C288 C 0.35829 0.56786 0.89716 0.0
C289 C 0.41629 0.57913 0.05706 0.0
N290 N 0.41924 0.61884 0.79526 0.0
N291 N 0.37054 0.50297 0.10241 0.0
H292 H 0.46437 0.62038 0.16548 0.0
H293 H 0.42532 0.5695 0.21265 0.0
H294 H 0.34438 0.47142 0.09008 0.0
H295 H 0.39441 0.50422 0.15184 0.0
H296 H 0.39982 0.61017 0.72957 0.0
H297 H 0.4527 0.63913 0.78219 0.0
H298 H 0.33745 0.59851 0.78974 0.0
H299 H 0.2947 0.55509 0.8548 0.0
C300 C 0.82666 0.41915 0.05567 0.0
C301 C 0.81139 0.43429 0.97291 0.0
C302 C 0.78007 0.3621 0.89455 0.0
C303 C 0.8006 0.34876 0.96882 0.0
N304 N 0.85753 0.37357 0.09849 0.0
N305 N 0.79067 0.42369 0.79394 0.0
C306 C 0.82841 0.38001 0.04284 0.0
C307 C 0.79386 0.40703 0.88566 0.0
N308 N 0.83712 0.43981 0.14816 0.0
N309 N 0.74537 0.33248 0.83731 0.0
H310 H 0.80416 0.45724 0.78148 0.0
H311 H 0.78 0.40461 0.72784 0.0
H312 H 0.72892 0.29888 0.85104 0.0
H313 H 0.72879 0.34208 0.78675 0.0
H314 H 0.84498 0.42702 0.21142 0.0
H315 H 0.83288 0.46617 0.16605 0.0
H316 H 0.88009 0.39726 0.14829 0.0
H317 H 0.86337 0.34784 0.08455 0.0
C318 C 0.40601 0.84413 0.9282 0.0
C319 C 0.37285 0.8225 0.00264 0.0
C320 C 0.41354 0.78996 0.07892 0.0
C321 C 0.44711 0.81219 0.00552 0.0
N322 N 0.48024 0.86684 0.87391 0.0
N323 N 0.34801 0.78152 0.15985 0.0
C324 C 0.44485 0.84132 0.93421 0.0
C325 C 0.37782 0.79789 0.08211 0.0
N326 N 0.39977 0.86641 0.85048 0.0
N327 N 0.41425 0.75905 0.14102 0.0
H328 H 0.3201 0.78458 0.16242 0.0
H329 H 0.3525 0.76776 0.22592 0.0
H330 H 0.43972 0.75208 0.1414 0.0
H331 H 0.38808 0.73777 0.18686 0.0
H332 H 0.4201 0.87853 0.78702 0.0
H333 H 0.37272 0.87095 0.84697 0.0
H334 H 0.48246 0.89171 0.82696 0.0
H335 H 0.5092 0.8656 0.87719 0.0
C336 C 0.59505 0.44819 0.93395 0.0
C337 C 0.62663 0.45102 0.00561 0.0
C338 C 0.57236 0.38121 0.08193 0.0
C339 C 0.54266 0.37581 0.00227 0.0
N340 N 0.52522 0.40221 0.84957 0.0
N341 N 0.64765 0.41855 0.14096 0.0
C342 C 0.55377 0.4089 0.92766 0.0
C343 C 0.61577 0.41741 0.07889 0.0
N344 N 0.60436 0.48349 0.87365 0.0
N345 N 0.55926 0.35136 0.15975 0.0
H346 H 0.67997 0.44431 0.14131 0.0
H347 H 0.64313 0.39244 0.18671 0.0
H348 H 0.52852 0.32313 0.16218 0.0
H349 H 0.57756 0.35613 0.22594 0.0
H350 H 0.58147 0.48524 0.82646 0.0
H351 H 0.63426 0.51279 0.8772 0.0
H352 H 0.53324 0.42255 0.78604 0.0
H353 H 0.49387 0.37476 0.8457 0.0
C354 C 0.15273 0.42474 0.5347 0.0
C355 C 0.167 0.3982 0.58413 0.0
C356 C 0.17338 0.37038 0.41766 0.0
C357 C 0.16706 0.40276 0.3686 0.0
N358 N 0.15772 0.46607 0.38313 0.0
N359 N 0.1977 0.35044 0.57074 0.0
C360 C 0.15824 0.43122 0.42762 0.0
C361 C 0.17884 0.37192 0.5253 0.0
N362 N 0.13307 0.44306 0.58971 0.0
N363 N 0.17312 0.33752 0.36181 0.0
H364 H 0.20389 0.35173 0.64886 0.0
H365 H 0.21113 0.33478 0.52941 0.0
H366 H 0.16755 0.33434 0.28318 0.0
H367 H 0.17357 0.31086 0.39502 0.0
H368 H 0.11844 0.45935 0.55585 0.0
H369 H 0.12708 0.43778 0.66789 0.0
H370 H 0.15598 0.49025 0.4251 0.0
H371 H 0.16351 0.4735 0.30569 0.0
C372 C 0.74915 0.13887 0.52726 0.0
C373 C 0.76228 0.17839 0.58169 0.0
C374 C 0.76567 0.21583 0.42208 0.0
C375 C 0.7577 0.17802 0.36657 0.0
N376 N 0.75017 0.106 0.36573 0.0
N377 N 0.79486 0.25724 0.57726 0.0
C378 C 0.75172 0.14009 0.41886 0.0
C379 C 0.77404 0.21772 0.52804 0.0
N380 N 0.73262 0.09998 0.57829 0.0
N381 N 0.76344 0.24927 0.37476 0.0
H382 H 0.80393 0.26051 0.65406 0.0
H383 H 0.80763 0.28709 0.53901 0.0
H384 H 0.75509 0.24836 0.29795 0.0
H385 H 0.76493 0.27559 0.4145 0.0
H386 H 0.71827 0.06971 0.54154 0.0
H387 H 0.72959 0.09762 0.65742 0.0
H388 H 0.75033 0.07956 0.40096 0.0
H389 H 0.75293 0.10603 0.28649 0.0
C390 C 0.59914 0.79822 0.53791 0.0
C391 C 0.56967 0.76084 0.59541 0.0
C392 C 0.53737 0.72041 0.43695 0.0
C393 C 0.56953 0.7565 0.38009 0.0
N394 N 0.63859 0.82458 0.3792 0.0
N395 N 0.51896 0.68282 0.59955 0.0
C396 C 0.60283 0.79382 0.43148 0.0
C397 C 0.54122 0.72078 0.54496 0.0
N398 N 0.6219 0.83848 0.58326 0.0
N399 N 0.50196 0.68686 0.38911 0.0
H400 H 0.52244 0.68137 0.67835 0.0
H401 H 0.50093 0.65213 0.56531 0.0
H402 H 0.49683 0.6858 0.31052 0.0
H403 H 0.47546 0.6622 0.42871 0.0
H404 H 0.64042 0.86729 0.54203 0.0
H405 H 0.61859 0.84392 0.6601 0.0
H406 H 0.66564 0.85032 0.41516 0.0
H407 H 0.64342 0.82161 0.30171 0.0
C408 C 0.7934 0.60546 0.53837 0.0
C409 C 0.80117 0.57608 0.59692 0.0
C410 C 0.80861 0.54283 0.43961 0.0
C411 C 0.80458 0.57469 0.38153 0.0
N412 N 0.80601 0.64393 0.37802 0.0
N413 N 0.82839 0.52534 0.60279 0.0
C414 C 0.80102 0.60843 0.43171 0.0
C415 C 0.81252 0.54732 0.54743 0.0
N416 N 0.77647 0.62879 0.58298 0.0
N417 N 0.80638 0.50706 0.39316 0.0
H418 H 0.8337 0.52933 0.68142 0.0
H419 H 0.84085 0.50707 0.56917 0.0
H420 H 0.80194 0.50142 0.31479 0.0
H421 H 0.80459 0.48077 0.4338 0.0
H422 H 0.76618 0.64721 0.54115 0.0
H423 H 0.76826 0.62617 0.66004 0.0
H424 H 0.80765 0.67128 0.4129 0.0
H425 H 0.81346 0.64823 0.30032 0.0
C426 C 0.25624 0.81565 0.43707 0.0
C427 C 0.21793 0.80553 0.38025 0.0
C428 C 0.17656 0.79172 0.53883 0.0
C429 C 0.2158 0.80579 0.59546 0.0
N430 N 0.29493 0.84258 0.59702 0.0
N431 N 0.14483 0.79533 0.37769 0.0
C432 C 0.2563 0.82131 0.54414 0.0
C433 C 0.179 0.79704 0.4313 0.0
N434 N 0.29177 0.81756 0.39026 0.0
N435 N 0.13675 0.77119 0.58642 0.0
H436 H 0.14595 0.80071 0.29913 0.0
H437 H 0.11738 0.79334 0.41275 0.0
H438 H 0.13313 0.76498 0.66461 0.0
H439 H 0.1071 0.75636 0.54673 0.0
H440 H 0.31864 0.82042 0.43054 0.0
H441 H 0.29265 0.81167 0.31259 0.0
H442 H 0.32543 0.85809 0.56139 0.0
H443 H 0.29648 0.84895 0.67516 0.0
C444 C 0.37578 0.18046 0.54052 0.0
C445 C 0.40196 0.21954 0.59671 0.0
C446 C 0.43302 0.25951 0.43784 0.0
C447 C 0.40387 0.22148 0.3815 0.0
N448 N 0.33961 0.14926 0.37988 0.0
N449 N 0.44629 0.29854 0.59746 0.0
C450 C 0.37278 0.18296 0.43301 0.0
C451 C 0.42779 0.25983 0.54496 0.0
N452 N 0.35564 0.14069 0.58848 0.0
N453 N 0.46717 0.29447 0.39049 0.0
H454 H 0.44179 0.30034 0.67563 0.0
H455 H 0.46198 0.32901 0.56152 0.0
H456 H 0.47364 0.29509 0.31274 0.0
H457 H 0.49178 0.321 0.43038 0.0
H458 H 0.34 0.11103 0.54907 0.0
H459 H 0.35828 0.13696 0.66664 0.0
H460 H 0.31374 0.12224 0.41533 0.0
H461 H 0.3353 0.15046 0.30133 0.0
loop_
_geom_bond_atom_site_label_1
_geom_bond_atom_site_label_2
_geom_bond_distance
_geom_bond_site_symmetry_2
_ccdc_geom_bond_type
O0 Zn1 1.953 . S
O0 C16 1.225 . S
Zn1 O0 1.953 . S
Zn1 O2 1.949 1_556 S
Zn1 O8 1.919 . S
Zn1 O13 1.924 . S
O2 Zn1 1.949 1_554 S
O2 Zn3 1.923 1_554 S
O2 Zn4 1.950 . S
O2 Zn5 1.945 . S
Zn3 O2 1.923 1_556 S
Zn3 O6 1.933 . S
Zn3 O9 1.941 . S
Zn3 O10 1.965 . S
Zn4 O2 1.950 . S
Zn4 O11 1.938 . S
Zn4 O12 1.906 . S
Zn4 O22 1.953 . S
Zn5 O2 1.945 . S
Zn5 O7 1.932 . S
Zn5 O14 1.977 . S
Zn5 O15 1.910 . S
O6 Zn3 1.933 . S
O6 C17 1.230 . S
O7 Zn5 1.932 . S
O7 C17 1.303 1_554 S
O8 Zn1 1.919 . S
O8 C19 1.253 . S
O9 Zn3 1.941 . S
O9 C19 1.283 . S
O10 Zn3 1.965 . S
O10 C18 1.303 1_556 S
O11 Zn4 1.938 . S
O11 C18 1.247 . S
O12 Zn4 1.906 . S
O12 C20 1.304 . S
O13 Zn1 1.924 . S
O13 C21 1.311 . S
O14 Zn5 1.977 . S
O14 C20 1.272 . S
O15 Zn5 1.910 . S
O15 C21 1.231 1_554 S
C16 O0 1.225 . S
C16 O22 1.298 1_556 S
C17 O6 1.230 . S
C17 O7 1.303 1_556 S
C18 O10 1.303 1_554 S
C18 O11 1.247 . S
C19 O8 1.253 . S
C19 O9 1.283 . S
C20 O12 1.304 . S
C20 O14 1.272 . S
C21 O13 1.311 . S
C21 O15 1.231 1_556 S
O22 Zn4 1.953 . S
O22 C16 1.298 1_554 S
O23 Zn24 1.953 . S
O23 C39 1.225 . S
Zn24 O23 1.953 . S
Zn24 O25 1.949 1_556 S
Zn24 O31 1.919 . S
Zn24 O36 1.924 . S
O25 Zn24 1.949 1_554 S
O25 Zn26 1.923 1_554 S
O25 Zn27 1.950 . S
O25 Zn28 1.945 . S
Zn26 O25 1.923 1_556 S
Zn26 O29 1.933 . S
Zn26 O32 1.941 . S
Zn26 O33 1.965 . S
Zn27 O25 1.950 . S
Zn27 O34 1.938 . S
Zn27 O35 1.906 . S
Zn27 O45 1.953 . S
Zn28 O25 1.945 . S
Zn28 O30 1.932 . S
Zn28 O37 1.977 . S
Zn28 O38 1.910 . S
O29 Zn26 1.933 . S
O29 C40 1.230 . S
O30 Zn28 1.932 . S
O30 C40 1.303 1_554 S
O31 Zn24 1.919 . S
O31 C42 1.253 . S
O32 Zn26 1.941 . S
O32 C42 1.283 . S
O33 Zn26 1.965 . S
O33 C41 1.303 1_556 S
O34 Zn27 1.938 . S
O34 C41 1.247 . S
O35 Zn27 1.906 . S
O35 C43 1.304 . S
O36 Zn24 1.924 . S
O36 C44 1.311 . S
O37 Zn28 1.977 . S
O37 C43 1.272 . S
O38 Zn28 1.910 . S
O38 C44 1.231 1_554 S
C39 O23 1.225 . S
C39 O45 1.298 1_556 S
C40 O29 1.230 . S
C40 O30 1.303 1_556 S
C41 O33 1.303 1_554 S
C41 O34 1.247 . S
C42 O31 1.253 . S
C42 O32 1.283 . S
C43 O35 1.304 . S
C43 O37 1.272 . S
C44 O36 1.311 . S
C44 O38 1.231 1_556 S
O45 Zn27 1.953 . S
O45 C39 1.298 1_554 S
O46 Zn47 1.953 . S
O46 C62 1.225 . S
Zn47 O46 1.953 . S
Zn47 O48 1.949 1_556 S
Zn47 O54 1.919 . S
Zn47 O59 1.924 . S
O48 Zn47 1.949 1_554 S
O48 Zn49 1.923 1_554 S
O48 Zn50 1.950 . S
O48 Zn51 1.945 . S
Zn49 O48 1.923 1_556 S
Zn49 O52 1.933 . S
Zn49 O55 1.941 . S
Zn49 O56 1.965 . S
Zn50 O48 1.950 . S
Zn50 O57 1.938 . S
Zn50 O58 1.906 . S
Zn50 O68 1.953 . S
Zn51 O48 1.945 . S
Zn51 O53 1.932 . S
Zn51 O60 1.977 . S
Zn51 O61 1.910 . S
O52 Zn49 1.933 . S
O52 C63 1.230 . S
O53 Zn51 1.932 . S
O53 C63 1.303 1_554 S
O54 Zn47 1.919 . S
O54 C65 1.253 . S
O55 Zn49 1.941 . S
O55 C65 1.283 . S
O56 Zn49 1.965 . S
O56 C64 1.303 1_556 S
O57 Zn50 1.938 . S
O57 C64 1.247 . S
O58 Zn50 1.906 . S
O58 C66 1.304 . S
O59 Zn47 1.924 . S
O59 C67 1.311 . S
O60 Zn51 1.977 . S
O60 C66 1.272 . S
O61 Zn51 1.910 . S
O61 C67 1.231 1_554 S
C62 O46 1.225 . S
C62 O68 1.298 1_556 S
C63 O52 1.230 . S
C63 O53 1.303 1_556 S
C64 O56 1.303 1_554 S
C64 O57 1.247 . S
C65 O54 1.253 . S
C65 O55 1.283 . S
C66 O58 1.304 . S
C66 O60 1.272 . S
C67 O59 1.311 . S
C67 O61 1.231 1_556 S
O68 Zn50 1.953 . S
O68 C62 1.298 1_554 S
O69 Zn70 1.953 . S
O69 C85 1.225 . S
Zn70 O69 1.953 . S
Zn70 O71 1.949 1_556 S
Zn70 O77 1.919 . S
Zn70 O82 1.924 . S
O71 Zn70 1.949 1_554 S
O71 Zn72 1.923 1_554 S
O71 Zn73 1.950 . S
O71 Zn74 1.945 . S
Zn72 O71 1.923 1_556 S
Zn72 O75 1.933 . S
Zn72 O78 1.941 . S
Zn72 O79 1.965 . S
Zn73 O71 1.950 . S
Zn73 O80 1.938 . S
Zn73 O81 1.906 . S
Zn73 O91 1.953 . S
Zn74 O71 1.945 . S
Zn74 O76 1.932 . S
Zn74 O83 1.977 . S
Zn74 O84 1.910 . S
O75 Zn72 1.933 . S
O75 C86 1.230 . S
O76 Zn74 1.932 . S
O76 C86 1.303 1_554 S
O77 Zn70 1.919 . S
O77 C88 1.253 . S
O78 Zn72 1.941 . S
O78 C88 1.283 . S
O79 Zn72 1.965 . S
O79 C87 1.303 1_556 S
O80 Zn73 1.938 . S
O80 C87 1.247 . S
O81 Zn73 1.906 . S
O81 C89 1.304 . S
O82 Zn70 1.924 . S
O82 C90 1.311 . S
O83 Zn74 1.977 . S
O83 C89 1.272 . S
O84 Zn74 1.910 . S
O84 C90 1.231 1_554 S
C85 O69 1.225 . S
C85 O91 1.298 1_556 S
C86 O75 1.230 . S
C86 O76 1.303 1_556 S
C87 O79 1.303 1_554 S
C87 O80 1.247 . S
C88 O77 1.253 . S
C88 O78 1.283 . S
C89 O81 1.304 . S
C89 O83 1.272 . S
C90 O82 1.311 . S
C90 O84 1.231 1_556 S
O91 Zn73 1.953 . S
O91 C85 1.298 1_554 S
O92 Zn93 1.953 . S
O92 C108 1.225 . S
Zn93 O92 1.953 . S
Zn93 O94 1.949 1_556 S
Zn93 O100 1.919 . S
Zn93 O105 1.924 . S
O94 Zn93 1.949 1_554 S
O94 Zn95 1.923 1_554 S
O94 Zn96 1.950 . S
O94 Zn97 1.945 . S
Zn95 O94 1.923 1_556 S
Zn95 O98 1.933 . S
Zn95 O101 1.941 . S
Zn95 O102 1.965 . S
Zn96 O94 1.950 . S
Zn96 O103 1.938 . S
Zn96 O104 1.906 . S
Zn96 O114 1.953 . S
Zn97 O94 1.945 . S
Zn97 O99 1.932 . S
Zn97 O106 1.977 . S
Zn97 O107 1.910 . S
O98 Zn95 1.933 . S
O98 C109 1.230 . S
O99 Zn97 1.932 . S
O99 C109 1.303 1_554 S
O100 Zn93 1.919 . S
O100 C111 1.253 . S
O101 Zn95 1.941 . S
O101 C111 1.283 . S
O102 Zn95 1.965 . S
O102 C110 1.303 1_556 S
O103 Zn96 1.938 . S
O103 C110 1.247 . S
O104 Zn96 1.906 . S
O104 C112 1.304 . S
O105 Zn93 1.924 . S
O105 C113 1.311 . S
O106 Zn97 1.977 . S
O106 C112 1.272 . S
O107 Zn97 1.910 . S
O107 C113 1.231 1_554 S
C108 O92 1.225 . S
C108 O114 1.298 1_556 S
C109 O98 1.230 . S
C109 O99 1.303 1_556 S
C110 O102 1.303 1_554 S
C110 O103 1.247 . S
C111 O100 1.253 . S
C111 O101 1.283 . S
C112 O104 1.304 . S
C112 O106 1.272 . S
C113 O105 1.311 . S
C113 O107 1.231 1_556 S
O114 Zn96 1.953 . S
O114 C108 1.298 1_554 S
O115 Zn116 1.953 . S
O115 C131 1.225 . S
Zn116 O115 1.953 . S
Zn116 O117 1.949 1_556 S
Zn116 O123 1.919 . S
Zn116 O128 1.924 . S
O117 Zn116 1.949 1_554 S
O117 Zn118 1.923 1_554 S
O117 Zn119 1.950 . S
O117 Zn120 1.945 . S
Zn118 O117 1.923 1_556 S
Zn118 O121 1.933 . S
Zn118 O124 1.941 . S
Zn118 O125 1.965 . S
Zn119 O117 1.950 . S
Zn119 O126 1.938 . S
Zn119 O127 1.906 . S
Zn119 O137 1.953 . S
Zn120 O117 1.945 . S
Zn120 O122 1.932 . S
Zn120 O129 1.977 . S
Zn120 O130 1.910 . S
O121 Zn118 1.933 . S
O121 C132 1.230 . S
O122 Zn120 1.932 . S
O122 C132 1.303 1_554 S
O123 Zn116 1.919 . S
O123 C134 1.253 . S
O124 Zn118 1.941 . S
O124 C134 1.283 . S
O125 Zn118 1.965 . S
O125 C133 1.303 1_556 S
O126 Zn119 1.938 . S
O126 C133 1.247 . S
O127 Zn119 1.906 . S
O127 C135 1.304 . S
O128 Zn116 1.924 . S
O128 C136 1.311 . S
O129 Zn120 1.977 . S
O129 C135 1.272 . S
O130 Zn120 1.910 . S
O130 C136 1.231 1_554 S
C131 O115 1.225 . S
C131 O137 1.298 1_556 S
C132 O121 1.230 . S
C132 O122 1.303 1_556 S
C133 O125 1.303 1_554 S
C133 O126 1.247 . S
C134 O123 1.253 . S
C134 O124 1.283 . S
C135 O127 1.304 . S
C135 O129 1.272 . S
C136 O128 1.311 . S
C136 O130 1.231 1_556 S
O137 Zn119 1.953 . S
O137 C131 1.298 1_554 S
C138 C139 1.363 . S
C138 C144 1.379 . S
C138 N146 1.356 . S
C139 C138 1.363 . S
C139 C145 1.363 1_556 S
C140 C141 1.363 1_554 S
C140 C145 1.379 . S
C140 N147 1.356 . S
C141 C140 1.363 1_556 S
C141 C144 1.363 . S
N142 C144 1.356 . S
N142 H154 0.984 . S
N142 H155 0.985 . S
N143 C145 1.356 . S
N143 H148 0.984 . S
N143 H149 0.985 . S
C144 C138 1.379 . S
C144 C141 1.363 . S
C144 N142 1.356 . S
C145 C139 1.363 1_554 S
C145 C140 1.379 . S
C145 N143 1.356 . S
N146 C138 1.356 . S
N146 H152 0.984 . S
N146 H153 0.984 . S
N147 C140 1.356 . S
N147 H150 0.984 . S
N147 H151 0.985 . S
H148 N143 0.984 . S
H149 N143 0.985 . S
H150 N147 0.984 . S
H151 N147 0.985 . S
H152 N146 0.984 . S
H153 N146 0.984 . S
H154 N142 0.984 . S
H155 N142 0.985 . S
C156 C157 1.363 . S
C156 C162 1.379 1_455 S
C156 N164 1.356 . S
C157 C156 1.363 . S
C157 C163 1.363 1_556 S
C158 C159 1.363 1_554 S
C158 C163 1.379 1_655 S
C158 N165 1.356 . S
C159 C158 1.363 1_556 S
C159 C162 1.363 . S
N160 C162 1.356 . S
N160 H172 0.984 . S
N160 H173 0.985 . S
N161 C163 1.356 . S
N161 H166 0.984 . S
N161 H167 0.985 . S
C162 C156 1.379 1_655 S
C162 C159 1.363 . S
C162 N160 1.356 . S
C163 C157 1.363 1_554 S
C163 C158 1.379 1_455 S
C163 N161 1.356 . S
N164 C156 1.356 . S
N164 H170 0.984 . S
N164 H171 0.984 . S
N165 C158 1.356 . S
N165 H168 0.984 . S
N165 H169 0.985 . S
H166 N161 0.984 . S
H167 N161 0.985 . S
H168 N165 0.984 . S
H169 N165 0.985 . S
H170 N164 0.984 . S
H171 N164 0.984 . S
H172 N160 0.984 . S
H173 N160 0.985 . S
C174 C175 1.363 . S
C174 C180 1.379 1_545 S
C174 N182 1.356 . S
C175 C174 1.363 . S
C175 C181 1.363 1_556 S
C176 C177 1.363 1_554 S
C176 C181 1.379 1_565 S
C176 N183 1.356 . S
C177 C176 1.363 1_556 S
C177 C180 1.363 . S
N178 C180 1.356 . S
N178 H190 0.984 . S
N178 H191 0.985 . S
N179 C181 1.356 . S
N179 H184 0.984 . S
N179 H185 0.985 . S
C180 C174 1.379 1_565 S
C180 C177 1.363 . S
C180 N178 1.356 . S
C181 C175 1.363 1_554 S
C181 C176 1.379 1_545 S
C181 N179 1.356 . S
N182 C174 1.356 . S
N182 H188 0.984 . S
N182 H189 0.984 . S
N183 C176 1.356 . S
N183 H186 0.984 . S
N183 H187 0.985 . S
H184 N179 0.984 . S
H185 N179 0.985 . S
H186 N183 0.984 . S
H187 N183 0.985 . S
H188 N182 0.984 . S
H189 N182 0.984 . S
H190 N178 0.984 . S
H191 N178 0.985 . S
C192 C193 1.363 . S
C192 C198 1.379 . S
C192 N200 1.356 . S
C193 C192 1.363 . S
C193 C199 1.363 1_556 S
C194 C195 1.363 1_554 S
C194 C199 1.379 . S
C194 N201 1.356 . S
C195 C194 1.363 1_556 S
C195 C198 1.363 . S
N196 C198 1.356 . S
N196 H208 0.984 . S
N196 H209 0.985 . S
N197 C199 1.356 . S
N197 H202 0.984 . S
N197 H203 0.985 . S
C198 C192 1.379 . S
C198 C195 1.363 . S
C198 N196 1.356 . S
C199 C193 1.363 1_554 S
C199 C194 1.379 . S
C199 N197 1.356 . S
N200 C192 1.356 . S
N200 H206 0.984 . S
N200 H207 0.984 . S
N201 C194 1.356 . S
N201 H204 0.984 . S
N201 H205 0.985 . S
H202 N197 0.984 . S
H203 N197 0.985 . S
H204 N201 0.984 . S
H205 N201 0.985 . S
H206 N200 0.984 . S
H207 N200 0.984 . S
H208 N196 0.984 . S
H209 N196 0.985 . S
C210 C211 1.363 1_554 S
C210 C216 1.379 1_455 S
C210 N218 1.356 . S
C211 C210 1.363 1_556 S
C211 C217 1.363 . S
C212 C213 1.363 . S
C212 C217 1.379 1_655 S
C212 N219 1.356 . S
C213 C212 1.363 . S
C213 C216 1.363 1_556 S
N214 C216 1.356 . S
N214 H226 0.984 . S
N214 H227 0.985 . S
N215 C217 1.356 . S
N215 H220 0.984 . S
N215 H221 0.985 . S
C216 C210 1.379 1_655 S
C216 C213 1.363 1_554 S
C216 N214 1.356 . S
C217 C211 1.363 . S
C217 C212 1.379 1_455 S
C217 N215 1.356 . S
N218 C210 1.356 . S
N218 H224 0.984 . S
N218 H225 0.984 . S
N219 C212 1.356 . S
N219 H222 0.984 . S
N219 H223 0.985 . S
H220 N215 0.984 . S
H221 N215 0.985 . S
H222 N219 0.984 . S
H223 N219 0.985 . S
H224 N218 0.984 . S
H225 N218 0.984 . S
H226 N214 0.984 . S
H227 N214 0.985 . S
C228 C229 1.363 1_554 S
C228 C234 1.379 1_565 S
C228 N236 1.356 . S
C229 C228 1.363 1_556 S
C229 C235 1.363 . S
C230 C231 1.363 . S
C230 C235 1.379 1_545 S
C230 N237 1.356 . S
C231 C230 1.363 . S
C231 C234 1.363 1_556 S
N232 C234 1.356 . S
N232 H244 0.984 . S
N232 H245 0.985 . S
N233 C235 1.356 . S
N233 H238 0.984 . S
N233 H239 0.985 . S
C234 C228 1.379 1_545 S
C234 C231 1.363 1_554 S
C234 N232 1.356 . S
C235 C229 1.363 . S
C235 C230 1.379 1_565 S
C235 N233 1.356 . S
N236 C228 1.356 . S
N236 H242 0.984 . S
N236 H243 0.984 . S
N237 C230 1.356 . S
N237 H240 0.984 . S
N237 H241 0.985 . S
H238 N233 0.984 . S
H239 N233 0.985 . S
H240 N237 0.984 . S
H241 N237 0.985 . S
H242 N236 0.984 . S
H243 N236 0.984 . S
H244 N232 0.984 . S
H245 N232 0.985 . S
C246 C247 1.363 . S
C246 C252 1.379 . S
C246 N254 1.356 . S
C247 C246 1.363 . S
C247 C253 1.363 1_556 S
C248 C249 1.363 . S
C248 C253 1.379 . S
C248 N255 1.356 . S
C249 C248 1.363 . S
C249 C252 1.363 1_554 S
N250 C252 1.356 . S
N250 H262 0.984 . S
N250 H263 0.985 . S
N251 C253 1.356 . S
N251 H256 0.984 . S
N251 H257 0.985 . S
C252 C246 1.379 . S
C252 C249 1.363 1_556 S
C252 N250 1.356 . S
C253 C247 1.363 1_554 S
C253 C248 1.379 . S
C253 N251 1.356 . S
N254 C246 1.356 . S
N254 H260 0.984 . S
N254 H261 0.984 . S
N255 C248 1.356 . S
N255 H258 0.984 . S
N255 H259 0.985 . S
H256 N251 0.984 . S
H257 N251 0.985 . S
H258 N255 0.984 . S
H259 N255 0.985 . S
H260 N254 0.984 . S
H261 N254 0.984 . S
H262 N250 0.984 . S
H263 N250 0.985 . S
C264 C265 1.363 . S
C264 C270 1.379 . S
C264 N272 1.356 . S
C265 C264 1.363 . S
C265 C271 1.363 1_556 S
C266 C267 1.363 . S
C266 C271 1.379 . S
C266 N273 1.356 . S
C267 C266 1.363 . S
C267 C270 1.363 1_554 S
N268 C270 1.356 . S
N268 H280 0.984 . S
N268 H281 0.985 . S
N269 C271 1.356 . S
N269 H274 0.984 . S
N269 H275 0.985 . S
C270 C264 1.379 . S
C270 C267 1.363 1_556 S
C270 N268 1.356 . S
C271 C265 1.363 1_554 S
C271 C266 1.379 . S
C271 N269 1.356 . S
N272 C264 1.356 . S
N272 H278 0.984 . S
N272 H279 0.984 . S
N273 C266 1.356 . S
N273 H276 0.984 . S
N273 H277 0.985 . S
H274 N269 0.984 . S
H275 N269 0.985 . S
H276 N273 0.984 . S
H277 N273 0.985 . S
H278 N272 0.984 . S
H279 N272 0.984 . S
H280 N268 0.984 . S
H281 N268 0.985 . S
C282 C283 1.363 1_556 S
C282 C288 1.379 . S
C282 N290 1.356 . S
C283 C282 1.363 1_554 S
C283 C289 1.363 . S
C284 C285 1.363 1_554 S
C284 C289 1.379 . S
C284 N291 1.356 . S
C285 C284 1.363 1_556 S
C285 C288 1.363 . S
N286 C288 1.356 . S
N286 H298 0.984 . S
N286 H299 0.985 . S
N287 C289 1.356 . S
N287 H292 0.984 . S
N287 H293 0.985 . S
C288 C282 1.379 . S
C288 C285 1.363 . S
C288 N286 1.356 . S
C289 C283 1.363 . S
C289 C284 1.379 . S
C289 N287 1.356 . S
N290 C282 1.356 . S
N290 H296 0.984 . S
N290 H297 0.984 . S
N291 C284 1.356 . S
N291 H294 0.984 . S
N291 H295 0.985 . S
H292 N287 0.984 . S
H293 N287 0.985 . S
H294 N291 0.984 . S
H295 N291 0.985 . S
H296 N290 0.984 . S
H297 N290 0.984 . S
H298 N286 0.984 . S
H299 N286 0.985 . S
C300 C301 1.363 . S
C300 C306 1.379 . S
C300 N308 1.356 . S
C301 C300 1.363 . S
C301 C307 1.363 1_554 S
C302 C303 1.363 . S
C302 C307 1.379 . S
C302 N309 1.356 . S
C303 C302 1.363 . S
C303 C306 1.363 1_556 S
N304 C306 1.356 . S
N304 H316 0.984 . S
N304 H317 0.985 . S
N305 C307 1.356 . S
N305 H310 0.984 . S
N305 H311 0.985 . S
C306 C300 1.379 . S
C306 C303 1.363 1_554 S
C306 N304 1.356 . S
C307 C301 1.363 1_556 S
C307 C302 1.379 . S
C307 N305 1.356 . S
N308 C300 1.356 . S
N308 H314 0.984 . S
N308 H315 0.984 . S
N309 C302 1.356 . S
N309 H312 0.984 . S
N309 H313 0.985 . S
H310 N305 0.984 . S
H311 N305 0.985 . S
H312 N309 0.984 . S
H313 N309 0.985 . S
H314 N308 0.984 . S
H315 N308 0.984 . S
H316 N304 0.984 . S
H317 N304 0.985 . S
C318 C319 1.363 1_556 S
C318 C324 1.379 . S
C318 N326 1.356 . S
C319 C318 1.363 1_554 S
C319 C325 1.363 . S
C320 C321 1.363 1_554 S
C320 C325 1.379 . S
C320 N327 1.356 . S
C321 C320 1.363 1_556 S
C321 C324 1.363 . S
N322 C324 1.356 . S
N322 H334 0.984 . S
N322 H335 0.985 . S
N323 C325 1.356 . S
N323 H328 0.984 . S
N323 H329 0.985 . S
C324 C318 1.379 . S
C324 C321 1.363 . S
C324 N322 1.356 . S
C325 C319 1.363 . S
C325 C320 1.379 . S
C325 N323 1.356 . S
N326 C318 1.356 . S
N326 H332 0.984 . S
N326 H333 0.984 . S
N327 C320 1.356 . S
N327 H330 0.984 . S
N327 H331 0.985 . S
H328 N323 0.984 . S
H329 N323 0.985 . S
H330 N327 0.984 . S
H331 N327 0.985 . S
H332 N326 0.984 . S
H333 N326 0.984 . S
H334 N322 0.984 . S
H335 N322 0.985 . S
C336 C337 1.363 . S
C336 C342 1.379 . S
C336 N344 1.356 . S
C337 C336 1.363 . S
C337 C343 1.363 1_556 S
C338 C339 1.363 . S
C338 C343 1.379 . S
C338 N345 1.356 . S
C339 C338 1.363 . S
C339 C342 1.363 1_554 S
N340 C342 1.356 . S
N340 H352 0.984 . S
N340 H353 0.985 . S
N341 C343 1.356 . S
N341 H346 0.984 . S
N341 H347 0.985 . S
C342 C336 1.379 . S
C342 C339 1.363 1_556 S
C342 N340 1.356 . S
C343 C337 1.363 1_554 S
C343 C338 1.379 . S
C343 N341 1.356 . S
N344 C336 1.356 . S
N344 H350 0.984 . S
N344 H351 0.984 . S
N345 C338 1.356 . S
N345 H348 0.984 . S
N345 H349 0.985 . S
H346 N341 0.984 . S
H347 N341 0.985 . S
H348 N345 0.984 . S
H349 N345 0.985 . S
H350 N344 0.984 . S
H351 N344 0.984 . S
H352 N340 0.984 . S
H353 N340 0.985 . S
C354 C355 1.363 . S
C354 C360 1.379 . S
C354 N362 1.356 . S
C355 C354 1.363 . S
C355 C361 1.363 . S
C356 C357 1.363 . S
C356 C361 1.379 . S
C356 N363 1.356 . S
C357 C356 1.363 . S
C357 C360 1.363 . S
N358 C360 1.356 . S
N358 H370 0.984 . S
N358 H371 0.985 . S
N359 C361 1.356 . S
N359 H364 0.984 . S
N359 H365 0.985 . S
C360 C354 1.379 . S
C360 C357 1.363 . S
C360 N358 1.356 . S
C361 C355 1.363 . S
C361 C356 1.379 . S
C361 N359 1.356 . S
N362 C354 1.356 . S
N362 H368 0.984 . S
N362 H369 0.984 . S
N363 C356 1.356 . S
N363 H366 0.984 . S
N363 H367 0.985 . S
H364 N359 0.984 . S
H365 N359 0.985 . S
H366 N363 0.984 . S
H367 N363 0.985 . S
H368 N362 0.984 . S
H369 N362 0.984 . S
H370 N358 0.984 . S
H371 N358 0.985 . S
C372 C373 1.363 . S
C372 C378 1.379 . S
C372 N380 1.356 . S
C373 C372 1.363 . S
C373 C379 1.363 . S
C374 C375 1.363 . S
C374 C379 1.379 . S
C374 N381 1.356 . S
C375 C374 1.363 . S
C375 C378 1.363 . S
N376 C378 1.356 . S
N376 H388 0.984 . S
N376 H389 0.985 . S
N377 C379 1.356 . S
N377 H382 0.984 . S
N377 H383 0.985 . S
C378 C372 1.379 . S
C378 C375 1.363 . S
C378 N376 1.356 . S
C379 C373 1.363 . S
C379 C374 1.379 . S
C379 N377 1.356 . S
N380 C372 1.356 . S
N380 H386 0.984 . S
N380 H387 0.984 . S
N381 C374 1.356 . S
N381 H384 0.984 . S
N381 H385 0.985 . S
H382 N377 0.984 . S
H383 N377 0.985 . S
H384 N381 0.984 . S
H385 N381 0.985 . S
H386 N380 0.984 . S
H387 N380 0.984 . S
H388 N376 0.984 . S
H389 N376 0.985 . S
C390 C391 1.363 . S
C390 C396 1.379 . S
C390 N398 1.356 . S
C391 C390 1.363 . S
C391 C397 1.363 . S
C392 C393 1.363 . S
C392 C397 1.379 . S
C392 N399 1.356 . S
C393 C392 1.363 . S
C393 C396 1.363 . S
N394 C396 1.356 . S
N394 H406 0.984 . S
N394 H407 0.985 . S
N395 C397 1.356 . S
N395 H400 0.984 . S
N395 H401 0.985 . S
C396 C390 1.379 . S
C396 C393 1.363 . S
C396 N394 1.356 . S
C397 C391 1.363 . S
C397 C392 1.379 . S
C397 N395 1.356 . S
N398 C390 1.356 . S
N398 H404 0.984 . S
N398 H405 0.984 . S
N399 C392 1.356 . S
N399 H402 0.984 . S
N399 H403 0.985 . S
H400 N395 0.984 . S
H401 N395 0.985 . S
H402 N399 0.984 . S
H403 N399 0.985 . S
H404 N398 0.984 . S
H405 N398 0.984 . S
H406 N394 0.984 . S
H407 N394 0.985 . S
C408 C409 1.363 . S
C408 C414 1.379 . S
C408 N416 1.356 . S
C409 C408 1.363 . S
C409 C415 1.363 . S
C410 C411 1.363 . S
C410 C415 1.379 . S
C410 N417 1.356 . S
C411 C410 1.363 . S
C411 C414 1.363 . S
N412 C414 1.356 . S
N412 H424 0.984 . S
N412 H425 0.985 . S
N413 C415 1.356 . S
N413 H418 0.984 . S
N413 H419 0.985 . S
C414 C408 1.379 . S
C414 C411 1.363 . S
C414 N412 1.356 . S
C415 C409 1.363 . S
C415 C410 1.379 . S
C415 N413 1.356 . S
N416 C408 1.356 . S
N416 H422 0.984 . S
N416 H423 0.984 . S
N417 C410 1.356 . S
N417 H420 0.984 . S
N417 H421 0.985 . S
H418 N413 0.984 . S
H419 N413 0.985 . S
H420 N417 0.984 . S
H421 N417 0.985 . S
H422 N416 0.984 . S
H423 N416 0.984 . S
H424 N412 0.984 . S
H425 N412 0.985 . S
C426 C427 1.363 . S
C426 C432 1.379 . S
C426 N434 1.356 . S
C427 C426 1.363 . S
C427 C433 1.363 . S
C428 C429 1.363 . S
C428 C433 1.379 . S
C428 N435 1.356 . S
C429 C428 1.363 . S
C429 C432 1.363 . S
N430 C432 1.356 . S
N430 H442 0.984 . S
N430 H443 0.985 . S
N431 C433 1.356 . S
N431 H436 0.984 . S
N431 H437 0.985 . S
C432 C426 1.379 . S
C432 C429 1.363 . S
C432 N430 1.356 . S
C433 C427 1.363 . S
C433 C428 1.379 . S
C433 N431 1.356 . S
N434 C426 1.356 . S
N434 H440 0.984 . S
N434 H441 0.984 . S
N435 C428 1.356 . S
N435 H438 0.984 . S
N435 H439 0.985 . S
H436 N431 0.984 . S
H437 N431 0.985 . S
H438 N435 0.984 . S
H439 N435 0.985 . S
H440 N434 0.984 . S
H441 N434 0.984 . S
H442 N430 0.984 . S
H443 N430 0.985 . S
C444 C445 1.363 . S
C444 C450 1.379 . S
C444 N452 1.356 . S
C445 C444 1.363 . S
C445 C451 1.363 . S
C446 C447 1.363 . S
C446 C451 1.379 . S
C446 N453 1.356 . S
C447 C446 1.363 . S
C447 C450 1.363 . S
N448 C450 1.356 . S
N448 H460 0.984 . S
N448 H461 0.985 . S
N449 C451 1.356 . S
N449 H454 0.984 . S
N449 H455 0.985 . S
C450 C444 1.379 . S
C450 C447 1.363 . S
C450 N448 1.356 . S
C451 C445 1.363 . S
C451 C446 1.379 . S
C451 N449 1.356 . S
N452 C444 1.356 . S
N452 H458 0.984 . S
N452 H459 0.984 . S
N453 C446 1.356 . S
N453 H456 0.984 . S
N453 H457 0.985 . S
H454 N449 0.984 . S
H455 N449 0.985 . S
H456 N453 0.984 . S
H457 N453 0.985 . S
H458 N452 0.984 . S
H459 N452 0.984 . S
H460 N448 0.984 . S
H461 N448 0.985 . S
C139 C132 1.498 . S
C141 C18 1.481 1_556 S
C157 C17 1.498 . S
C159 C41 1.481 1_556 S
C175 C40 1.498 . S
C177 C64 1.481 1_556 S
C193 C87 1.481 1_556 S
C195 C63 1.498 . S
C211 C110 1.481 1_556 S
C213 C86 1.498 . S
C229 C109 1.498 . S
C231 C133 1.481 1_556 S
C247 C108 1.482 . S
C249 C21 1.485 1_554 S
C265 C131 1.482 . S
C267 C44 1.485 1_554 S
C283 C67 1.485 1_554 S
C285 C16 1.482 . S
C301 C90 1.485 1_554 S
C303 C39 1.482 . S
C319 C113 1.485 1_554 S
C321 C62 1.482 . S
C337 C85 1.482 . S
C339 C136 1.485 1_554 S
C355 C19 1.461 . S
C357 C20 1.471 . S
C373 C42 1.461 . S
C375 C43 1.471 . S
C391 C65 1.461 . S
C393 C66 1.471 . S
C409 C88 1.461 . S
C411 C89 1.471 . S
C427 C112 1.471 . S
C429 C111 1.461 . S
C445 C134 1.461 . S
C447 C135 1.471 . S
