# Generated by pormake.
# Topology soe, (5)-cn, num edge types: 1
# Building blocks:
#     Node 0, Type 0, BuildingBlock: XOMCOT_clean_sbu_1, # of connection points: 5
#     Node 1, Type 0, BuildingBlock: XOMCOT_clean_sbu_1, # of connection points: 5
#     Node 2, Type 0, BuildingBlock: XOMCOT_clean_sbu_1, # of connection points: 5
#     Node 3, Type 0, BuildingBlock: XOMCOT_clean_sbu_1, # of connection points: 5
#     Node 4, Type 0, BuildingBlock: XOMCOT_clean_sbu_1, # of connection points: 5
#     Node 5, Type 0, BuildingBlock: XOMCOT_clean_sbu_1, # of connection points: 5
#     Node 6, Type 0, BuildingBlock: XOMCOT_clean_sbu_1, # of connection points: 5
#     Node 7, Type 0, BuildingBlock: XOMCOT_clean_sbu_1, # of connection points: 5
#     Edge 8, Type (0, 0), BuildingBlock: OJICUG_clean_linker_0, # of connection points: 2
#     Edge 9, Type (0, 0), BuildingBlock: OJICUG_clean_linker_0, # of connection points: 2
#     Edge 10, Type (0, 0), BuildingBlock: OJICUG_clean_linker_0, # of connection points: 2
#     Edge 11, Type (0, 0), BuildingBlock: OJICUG_clean_linker_0, # of connection points: 2
#     Edge 12, Type (0, 0), BuildingBlock: OJICUG_clean_linker_0, # of connection points: 2
#     Edge 13, Type (0, 0), BuildingBlock: OJICUG_clean_linker_0, # of connection points: 2
#     Edge 14, Type (0, 0), BuildingBlock: OJICUG_clean_linker_0, # of connection points: 2
#     Edge 15, Type (0, 0), BuildingBlock: OJICUG_clean_linker_0, # of connection points: 2
#     Edge 16, Type (0, 0), BuildingBlock: OJICUG_clean_linker_0, # of connection points: 2
#     Edge 17, Type (0, 0), BuildingBlock: OJICUG_clean_linker_0, # of connection points: 2
#     Edge 18, Type (0, 0), BuildingBlock: OJICUG_clean_linker_0, # of connection points: 2
#     Edge 19, Type (0, 0), BuildingBlock: OJICUG_clean_linker_0, # of connection points: 2
#     Edge 20, Type (0, 0), BuildingBlock: OJICUG_clean_linker_0, # of connection points: 2
#     Edge 21, Type (0, 0), BuildingBlock: OJICUG_clean_linker_0, # of connection points: 2
#     Edge 22, Type (0, 0), BuildingBlock: OJICUG_clean_linker_0, # of connection points: 2
#     Edge 23, Type (0, 0), BuildingBlock: OJICUG_clean_linker_0, # of connection points: 2
#     Edge 24, Type (0, 0), BuildingBlock: OJICUG_clean_linker_0, # of connection points: 2
#     Edge 25, Type (0, 0), BuildingBlock: OJICUG_clean_linker_0, # of connection points: 2
#     Edge 26, Type (0, 0), BuildingBlock: OJICUG_clean_linker_0, # of connection points: 2
#     Edge 27, Type (0, 0), BuildingBlock: OJICUG_clean_linker_0, # of connection points: 2
# Relax obj value: 0.055
# Max RMSD: 0.084
# Mean RMSD: 0.084
data_MOF--net-soe--node1-XOMCOT_clean_sbu_1--edge1-OJICUG_clean_linker_0
_symmetry_space_group_name_H-M    P1
_symmetry_Int_Tables_number       1
_symmetry_cell_setting            triclinic
loop_
_symmetry_equiv_pos_as_xyz
'x, y, z'
_cell_length_a     41.6951
_cell_length_b     34.376669
_cell_length_c     13.441552
_cell_angle_alpha  89.62558
_cell_angle_beta   89.958848
_cell_angle_gamma 89.939
loop_
_atom_site_label
_atom_site_type_symbol
_atom_site_fract_x
_atom_site_fract_y
_atom_site_fract_z
_atom_type_partial_charge
C0 C 0.14952 0.16282 1.00724 0.0
C1 C 0.15133 0.16538 0.90494 0.0
N2 N 0.12504 0.14837 0.86652 0.0
N3 N 0.1224 0.14396 0.03295 0.0
C4 C 0.10786 0.13598 0.94566 0.0
H5 H 0.16733 0.17291 0.05953 0.0
Co6 Co 0.1108 0.12864 0.1612 0.0
C7 C 0.07205 0.05635 0.11931 0.0
O8 O 0.08755 0.03577 0.18659 0.0
N9 N 0.09868 0.11417 0.29253 0.0
C10 C 0.06756 0.10206 0.42405 0.0
C11 C 0.06931 0.10211 0.32205 0.0
C12 C 0.11386 0.12254 0.37894 0.0
N13 N 0.09559 0.11527 0.46006 0.0
O14 O 0.07904 0.1689 0.16505 0.0
H15 H 0.04934 0.09647 0.27314 0.0
H16 H 0.13669 0.1371 0.38278 0.0
O17 O 0.07946 0.09205 0.1051 0.0
C18 C 0.09207 0.19692 0.21159 0.0
O19 O 0.12205 0.19334 0.24014 0.0
N20 N 0.14492 0.0927 0.15999 0.0
C21 C 0.20485 0.05602 0.15445 0.0
C22 C 0.17967 0.04324 0.09332 0.0
C23 C 0.14981 0.06234 0.0964 0.0
C24 C 0.16981 0.1065 0.21496 0.0
C25 C 0.19952 0.08816 0.21544 0.0
H26 H 0.13144 0.05396 0.04424 0.0
H27 H 0.16738 0.13368 0.25361 0.0
H28 H 0.08574 0.11988 0.93946 0.0
H29 H 0.17066 0.17827 0.86229 0.0
H30 H 0.04665 0.09449 0.46768 0.0
H31 H 0.18317 1.01921 0.04277 0.0
H32 H 0.2187 0.10025 0.25989 0.0
C33 C 0.38935 0.88189 0.0228 0.0
C34 C 0.38717 0.88081 0.92041 0.0
N35 N 0.41239 0.90025 0.88168 0.0
N36 N 0.41577 0.90197 0.04851 0.0
C37 C 0.4295 0.91212 0.96108 0.0
H38 H 0.37203 0.87038 0.07515 0.0
Co39 Co 0.42687 0.9179 0.1763 0.0
C40 C 0.46741 0.98897 0.13123 0.0
O41 O 0.45291 1.01053 0.19801 0.0
N42 N 0.43839 0.9335 0.3066 0.0
C43 C 0.46905 0.94489 0.43908 0.0
C44 C 0.46822 0.94322 0.33699 0.0
C45 C 0.42181 0.92855 0.39251 0.0
N46 N 0.43988 0.93521 0.47387 0.0
O47 O 0.45847 0.87734 0.18379 0.0
H48 H 0.48889 0.94584 0.28887 0.0
H49 H 0.39763 0.91757 0.39655 0.0
O50 O 0.45871 0.95369 0.11909 0.0
C51 C 0.44851 0.85071 0.24261 0.0
O52 O 0.42015 0.8546 0.28389 0.0
N53 N 0.39298 0.95388 0.17105 0.0
C54 C 0.33289 0.98991 0.16008 0.0
C55 C 0.35885 1.00406 0.10362 0.0
C56 C 0.38881 0.98526 0.10933 0.0
C57 C 0.36747 0.93885 0.22151 0.0
C58 C 0.3376 0.95678 0.21914 0.0
H59 H 0.40785 0.99477 0.06056 0.0
H60 H 0.36979 0.9112 0.25927 0.0
H61 H 0.45138 0.92865 0.9553 0.0
H62 H 0.36771 0.86821 0.8783 0.0
H63 H 0.49013 0.94975 0.48429 0.0
H64 H 0.3559 0.02896 0.05471 0.0
H65 H 0.31791 0.94374 0.26005 0.0
C66 C 0.14955 0.38525 0.50542 0.0
C67 C 0.15001 0.38158 0.60753 0.0
N68 N 0.12196 0.39508 0.64392 0.0
N69 N 0.12148 0.40129 0.47728 0.0
C70 C 0.10495 0.40604 0.5628 0.0
H71 H 0.16913 0.3788 0.4553 0.0
Co72 Co 0.11096 0.41872 0.34927 0.0
C73 C 0.07555 0.49134 0.42119 0.0
O74 O 0.09654 0.5162 0.38524 0.0
N75 N 0.10012 0.43515 0.21868 0.0
C76 C 0.08203 0.46531 0.08284 0.0
C77 C 0.08387 0.46654 0.18475 0.0
C78 C 0.10732 0.41504 0.13523 0.0
N79 N 0.09684 0.43282 0.05129 0.0
O80 O 0.07873 0.37929 0.34035 0.0
H81 H 0.0736 0.48917 0.22932 0.0
H82 H 0.1203 0.38785 0.13631 0.0
O83 O 0.07938 0.45481 0.40744 0.0
C84 C 0.0928 0.34846 0.31152 0.0
O85 O 0.12407 0.34897 0.29975 0.0
N86 N 0.14558 0.45427 0.3545 0.0
C87 C 0.20615 0.48953 0.36254 0.0
C88 C 0.18383 0.49466 0.43981 0.0
C89 C 0.15376 0.47637 0.43492 0.0
C90 C 0.1674 0.44847 0.28042 0.0
C91 C 0.19739 0.46614 0.28215 0.0
H92 H 0.1377 0.47852 0.49783 0.0
H93 H 0.16257 0.42796 0.22212 0.0
H94 H 0.08122 0.41854 0.56562 0.0
H95 H 0.17027 0.37185 0.65134 0.0
H96 H 0.07104 0.48727 0.03598 0.0
H97 H 0.18972 0.51202 0.50418 0.0
H98 H 0.21418 0.45987 0.22285 0.0
C99 C 0.39084 0.66231 0.50948 0.0
C100 C 0.38857 0.66329 0.61186 0.0
N101 N 0.41373 0.64368 0.65056 0.0
N102 N 0.41724 0.64211 0.48372 0.0
C103 C 0.43087 0.63178 0.57111 0.0
H104 H 0.37365 0.67414 0.45717 0.0
Co105 Co 0.42871 0.6267 0.35575 0.0
C106 C 0.46949 0.55558 0.39826 0.0
O107 O 0.45578 0.53478 0.32849 0.0
N108 N 0.44056 0.61165 0.2255 0.0
C109 C 0.47138 0.60123 0.09277 0.0
C110 C 0.4706 0.60295 0.19486 0.0
C111 C 0.42376 0.61596 0.13988 0.0
N112 N 0.44194 0.60986 0.05834 0.0
O113 O 0.46021 0.66736 0.35008 0.0
H114 H 0.49131 0.60092 0.24292 0.0
H115 H 0.39927 0.626 0.13626 0.0
O116 O 0.46038 0.59059 0.4127 0.0
C117 C 0.45011 0.69407 0.29166 0.0
O118 O 0.42191 0.68994 0.24964 0.0
N119 N 0.39489 0.59079 0.35903 0.0
C120 C 0.33477 0.55473 0.36495 0.0
C121 C 0.36085 0.53911 0.41842 0.0
C122 C 0.39077 0.55801 0.41575 0.0
C123 C 0.36939 0.60708 0.31126 0.0
C124 C 0.33945 0.58941 0.31181 0.0
H125 H 0.40983 0.54723 0.46263 0.0
H126 H 0.37189 0.63534 0.2766 0.0
H127 H 0.45276 0.61525 0.57679 0.0
H128 H 0.36915 0.67607 0.65395 0.0
H129 H 0.49252 0.597 0.04728 0.0
H130 H 0.35807 0.51292 0.46277 0.0
H131 H 0.31979 0.60374 0.27375 0.0
C132 C 0.88933 0.88106 1.01287 0.0
C133 C 0.88741 0.87978 0.11527 0.0
N134 N 0.91344 0.89775 0.15284 0.0
N135 N 0.91635 0.89986 0.98607 0.0
C136 C 0.93072 0.909 0.07277 0.0
H137 H 0.87153 0.87045 0.96125 0.0
Co138 Co 0.92795 0.91476 0.85776 0.0
C139 C 0.96771 0.98654 0.89561 0.0
O140 O 0.95291 1.00666 0.82595 0.0
N141 N 0.94011 0.92918 0.72675 0.0
C142 C 0.97142 0.93947 0.59463 0.0
C143 C 0.97019 0.93815 0.69676 0.0
C144 C 0.92379 0.92418 0.64066 0.0
N145 N 0.94224 0.93026 0.55956 0.0
O146 O 0.95954 0.87413 0.85517 0.0
H147 H 0.99068 0.94069 0.74548 0.0
H148 H 0.89947 0.91377 0.6364 0.0
O149 O 0.9595 0.9513 0.91274 0.0
C150 C 0.94875 0.84686 0.8008 0.0
O151 O 0.92022 0.85086 0.76066 0.0
N152 N 0.89399 0.95076 0.85856 0.0
C153 C 0.83392 0.98698 0.86471 0.0
C154 C 0.85956 1.00119 0.9218 0.0
C155 C 0.88951 0.98232 0.9185 0.0
C156 C 0.86871 0.93562 0.80779 0.0
C157 C 0.83888 0.9537 0.80756 0.0
H158 H 0.90829 0.99189 0.96781 0.0
H159 H 0.87111 0.90776 0.77207 0.0
H160 H 0.95328 0.9242 0.07741 0.0
H161 H 0.86768 0.86801 0.15822 0.0
H162 H 0.9927 0.9439 0.54977 0.0
H163 H 0.85635 0.02618 0.96942 0.0
H164 H 0.81938 0.94063 0.76634 0.0
C165 C 0.64981 0.15937 1.00083 0.0
C166 C 0.65189 0.16046 0.10323 0.0
N167 N 0.62621 0.14183 0.14172 0.0
N168 N 0.62302 0.14008 0.97486 0.0
C169 C 0.60895 0.13045 0.06215 0.0
H170 H 0.66745 0.1703 0.94868 0.0
Co171 Co 0.61171 0.12435 0.84707 0.0
C172 C 0.57124 0.05319 0.892 0.0
O173 O 0.5856 0.03174 0.82469 0.0
N174 N 0.59993 0.10892 0.71681 0.0
C175 C 0.56903 0.09789 0.58466 0.0
C176 C 0.57 0.0995 0.68676 0.0
C177 C 0.61645 0.11369 0.63071 0.0
N178 N 0.59822 0.10729 0.54953 0.0
O179 O 0.58003 0.16489 0.84093 0.0
H180 H 0.5494 0.09701 0.73518 0.0
H181 H 0.6407 0.12439 0.62639 0.0
O182 O 0.58001 0.08843 0.90447 0.0
C183 C 0.58916 0.19164 0.78116 0.0
O184 O 0.61698 0.18792 0.73637 0.0
N185 N 0.64563 0.08841 0.85126 0.0
C186 C 0.70572 0.05239 0.86109 0.0
C187 C 0.67989 0.03824 0.91806 0.0
C188 C 0.64991 0.057 0.91284 0.0
C189 C 0.67105 0.10346 0.80039 0.0
C190 C 0.70091 0.08549 0.80207 0.0
H191 H 0.63096 0.04748 0.96193 0.0
H192 H 0.66867 0.13116 0.76291 0.0
H193 H 0.58671 0.11465 0.0677 0.0
H194 H 0.67156 0.17246 0.14554 0.0
H195 H 0.54786 0.09325 0.5397 0.0
H196 H 0.68297 1.01336 0.96698 0.0
H197 H 0.72053 0.09849 0.76075 0.0
C198 C 0.88968 0.65385 0.55267 0.0
C199 C 0.889 0.65722 0.45049 0.0
N200 N 0.91711 0.64399 0.4138 0.0
N201 N 0.91794 0.63825 0.58052 0.0
C202 C 0.93437 0.63353 0.49483 0.0
H203 H 0.87014 0.66017 0.60305 0.0
Co204 Co 0.9289 0.621 0.70811 0.0
C205 C 0.96451 0.5484 0.63803 0.0
O206 O 0.94433 0.52363 0.67873 0.0
N207 N 0.94026 0.60475 0.83868 0.0
C208 C 0.96097 0.57658 0.9738 0.0
C209 C 0.95931 0.57562 0.87181 0.0
C210 C 0.93138 0.62345 0.92275 0.0
N211 N 0.94334 0.6068 1.00628 0.0
O212 O 0.96098 0.66064 0.7152 0.0
H213 H 0.97205 0.5551 0.82654 0.0
H214 H 0.91638 0.64904 0.92236 0.0
O215 O 0.96034 0.585 0.64916 0.0
C216 C 0.94738 0.69091 0.74945 0.0
O217 O 0.9164 0.68993 0.767 0.0
N218 N 0.89445 0.58518 0.70378 0.0
C219 C 0.83379 0.55024 0.69347 0.0
C220 C 0.85654 0.54455 0.6177 0.0
C221 C 0.88667 0.56264 0.62375 0.0
C222 C 0.87226 0.59137 0.77657 0.0
C223 C 0.84223 0.57383 0.77378 0.0
H224 H 0.90301 0.56017 0.56166 0.0
H225 H 0.87673 0.61224 0.83419 0.0
H226 H 0.95822 0.6214 0.49193 0.0
H227 H 0.86857 0.66658 0.40696 0.0
H228 H 0.97413 0.55621 0.01988 0.0
H229 H 0.8509 0.52701 0.55343 0.0
H230 H 0.82511 0.58048 0.83191 0.0
C231 C 0.64826 0.38144 0.53447 0.0
C232 C 0.65043 0.38046 0.43207 0.0
N233 N 0.62501 0.39966 0.3936 0.0
N234 N 0.62169 0.40126 0.56048 0.0
C235 C 0.60784 0.4113 0.47321 0.0
H236 H 0.66561 0.36984 0.58659 0.0
Co237 Co 0.61002 0.41644 0.68848 0.0
C238 C 0.56965 0.48801 0.64613 0.0
O239 O 0.58315 0.50862 0.71665 0.0
N240 N 0.59794 0.43132 0.81868 0.0
C241 C 0.56697 0.44168 0.95111 0.0
C242 C 0.56787 0.43998 0.849 0.0
C243 C 0.61466 0.42709 0.90446 0.0
N244 N 0.59639 0.4331 0.98583 0.0
O245 O 0.57821 0.3761 0.69234 0.0
H246 H 0.54722 0.44206 0.80064 0.0
H247 H 0.63918 0.41718 0.90831 0.0
O248 O 0.57877 0.45302 0.63141 0.0
C249 C 0.58737 0.34914 0.75153 0.0
O250 O 0.61502 0.35292 0.79714 0.0
N251 N 0.64411 0.45193 0.68685 0.0
C252 C 0.70456 0.48717 0.68407 0.0
C253 C 0.67878 0.5035 0.63054 0.0
C254 C 0.64867 0.48502 0.63168 0.0
C255 C 0.66933 0.43497 0.73454 0.0
C256 C 0.69942 0.45223 0.73558 0.0
H257 H 0.6298 0.49639 0.58495 0.0
H258 H 0.66645 0.40655 0.76805 0.0
H259 H 0.58573 0.42741 0.46774 0.0
H260 H 0.66992 0.36795 0.3898 0.0
H261 H 0.54578 0.44587 0.99639 0.0
H262 H 0.68194 0.52993 0.58739 0.0
H263 H 0.71884 0.43742 0.77365 0.0
C264 C 0.28529 1.01664 0.06567 0.0
C265 C 0.30052 1.00809 0.1566 0.0
H266 H 0.2426 0.03774 0.99336 0.0
C267 C 0.28372 1.01451 0.24566 0.0
H268 H 0.29754 1.01152 0.99588 0.0
C269 C 0.25252 0.0292 0.24421 0.0
C270 C 0.23713 0.03763 0.15365 0.0
H271 H 0.29481 1.00822 0.31685 0.0
H272 H 0.24035 0.034 0.31432 0.0
C273 C 0.25375 0.03103 0.06419 0.0
C274 C 0.25714 0.50712 0.45375 0.0
C275 C 0.2389 0.50686 0.36561 0.0
H276 H 0.30189 0.52205 0.52288 0.0
C277 C 0.25282 0.52157 0.27787 0.0
H278 H 0.2473 0.49553 0.52237 0.0
C279 C 0.28408 0.53595 0.27779 0.0
C280 C 0.30236 0.53648 0.36564 0.0
H281 H 0.23947 0.52215 0.20879 0.0
H282 H 0.29396 0.54676 0.20838 0.0
C283 C 0.2886 0.52169 0.4537 0.0
C284 C 0.75439 0.02694 0.77467 0.0
C285 C 0.73809 0.03429 0.86411 0.0
H286 H 0.79745 1.00677 0.7052 0.0
C287 C 0.75385 0.02688 0.95478 0.0
H288 H 0.74287 0.03242 0.70371 0.0
C289 C 0.78546 1.01271 0.95563 0.0
C290 C 0.80158 1.00516 0.86582 0.0
H291 H 0.74197 0.03277 0.02478 0.0
H292 H 0.79706 1.00692 0.02628 0.0
C293 C 0.78564 1.01238 0.77552 0.0
C294 C 0.78312 0.53361 0.5996 0.0
C295 C 0.8009 0.53342 0.68864 0.0
H296 H 0.73853 0.5196 0.52817 0.0
C297 C 0.78636 0.51889 0.77557 0.0
H298 H 0.79345 0.54511 0.53158 0.0
C299 C 0.75494 0.50504 0.77396 0.0
C300 C 0.73712 0.50496 0.6852 0.0
H301 H 0.79935 0.51804 0.84531 0.0
H302 H 0.74458 0.49426 0.84272 0.0
C303 C 0.75148 0.51963 0.59796 0.0
C304 C 1.01208 0.98233 0.02228 0.0
C305 C 0.99432 1.00445 0.95316 0.0
H306 H 0.0504 0.98114 0.12836 0.0
C307 C 1.00242 0.04382 0.93915 0.0
H308 H 1.00671 0.95188 0.03472 0.0
C309 C 0.02757 0.06064 0.99293 0.0
C310 C 0.04537 0.0385 0.06192 0.0
H311 H 0.98928 0.06179 0.88671 0.0
H312 H 0.03293 0.09109 0.98051 0.0
C313 C 0.03726 0.99913 0.07593 0.0
C314 C 0.50249 0.04486 0.07754 0.0
C315 C 0.49401 1.0054 0.07011 0.0
H316 H 0.53305 0.09092 0.02703 0.0
C317 C 0.51125 0.9818 1.00357 0.0
H318 H 0.48975 0.06395 0.12776 0.0
C319 C 0.53622 0.99727 0.94581 0.0
C320 C 0.54469 0.03673 0.95324 0.0
H321 H 0.50563 0.95122 0.99628 0.0
H322 H 0.54895 0.97818 0.89557 0.0
C323 C 0.52745 0.06033 0.01978 0.0
C324 C 0.04207 0.54602 0.48892 0.0
C325 C 0.04696 0.50585 0.47595 0.0
H326 H 1.01248 0.59091 0.54983 0.0
C327 C 0.02439 0.47984 0.51661 0.0
H328 H 0.05892 0.56695 0.45872 0.0
C329 C 0.9977 0.49363 0.56914 0.0
C330 C 0.99286 0.53379 0.58225 0.0
H331 H 0.02731 0.44873 0.50811 0.0
H332 H 0.98086 0.47271 0.59944 0.0
C333 C 1.01538 0.5598 0.54129 0.0
C334 C 0.51188 0.56121 0.53078 0.0
C335 C 0.49523 0.53835 0.46136 0.0
H336 H 0.54822 0.56343 0.64325 0.0
C337 C 0.50334 0.49878 0.45334 0.0
H338 H 0.50653 0.59186 0.53855 0.0
C339 C 0.52735 0.48247 0.5134 0.0
C340 C 0.544 0.50532 0.58283 0.0
H341 H 0.49101 0.48023 0.40098 0.0
H342 H 0.53265 0.4518 0.50571 0.0
C343 C 0.5359 0.5449 0.59084 0.0
C344 C 0.14238 0.13659 0.693 0.0
C345 C 0.11774 0.14157 0.76319 0.0
H346 H 0.15476 0.12332 0.54252 0.0
C347 C 0.08575 0.13825 0.73171 0.0
H348 H 0.16727 0.13839 0.71516 0.0
C349 C 0.07852 0.12981 0.63272 0.0
C350 C 0.10311 0.12422 0.56244 0.0
H351 H 0.0662 0.14248 0.78358 0.0
H352 H 0.05356 0.1281 0.6115 0.0
C353 C 0.13516 0.12787 0.59391 0.0
C354 C 0.44538 0.94943 0.65249 0.0
C355 C 0.43166 0.92737 0.5762 0.0
H356 H 0.44949 0.95909 0.8082 0.0
C357 C 0.411 0.89657 0.60165 0.0
H358 H 0.46111 0.97356 0.63491 0.0
C359 C 0.40464 0.88765 0.70153 0.0
C360 C 0.41863 0.9095 0.77827 0.0
H361 H 0.40049 0.8786 0.54448 0.0
H362 H 0.38924 0.86318 0.7184 0.0
C363 C 0.43882 0.94081 0.7521 0.0
C364 C 0.08931 0.42818 0.77281 0.0
C365 C 0.1139 0.40197 0.74721 0.0
H366 H 0.06412 0.45768 0.88783 0.0
C367 C 0.13152 0.38431 0.82459 0.0
H368 H 0.07514 0.44276 0.71653 0.0
C369 C 0.12558 0.39373 0.92412 0.0
C370 C 0.10166 0.42089 0.94924 0.0
H371 H 0.15029 0.36353 0.80862 0.0
H372 H 0.14042 0.3804 0.98078 0.0
C373 C 0.0832 0.43731 0.87211 0.0
C374 C 0.41228 0.6476 0.9306 0.0
C375 C 0.43346 0.61728 0.95609 0.0
H376 H 0.38999 0.68042 0.81386 0.0
C377 C 0.44747 0.59539 0.87991 0.0
H378 H 0.40152 0.66541 0.98776 0.0
C379 C 0.44071 0.60371 0.7803 0.0
C380 C 0.42005 0.6346 0.75402 0.0
H381 H 0.46359 0.57162 0.89758 0.0
H382 H 0.45165 0.58556 0.72433 0.0
C383 C 0.40575 0.65626 0.83072 0.0
C384 C 0.90588 0.88455 0.33305 0.0
C385 C 0.9203 0.90617 0.2559 0.0
H386 H 0.90167 0.87512 0.49016 0.0
C387 C 0.94142 0.9365 0.28125 0.0
H388 H 0.8898 0.86077 0.31672 0.0
C389 C 0.94834 0.94452 0.38064 0.0
C390 C 0.93406 0.92279 0.45737 0.0
H391 H 0.95248 0.95453 0.22467 0.0
H392 H 0.96468 0.968 0.39768 0.0
C393 C 0.91261 0.89285 0.43264 0.0
C394 C 0.59228 0.09347 0.37075 0.0
C395 C 0.60642 0.11509 0.44713 0.0
H396 H 0.58797 0.08404 0.21495 0.0
C397 C 0.62757 0.14541 0.42173 0.0
H398 H 0.57616 0.0697 0.38823 0.0
C399 C 0.63407 0.15423 0.32189 0.0
C400 C 0.61971 0.13278 0.24509 0.0
H401 H 0.63842 0.16307 0.47891 0.0
H402 H 0.64989 0.17831 0.3051 0.0
C403 C 0.59895 0.10199 0.27114 0.0
C404 C 0.90676 0.65336 0.23304 0.0
C405 C 0.92515 0.63698 0.31049 0.0
H406 H 0.89751 0.65641 0.07716 0.0
C407 C 0.95061 0.61199 0.28497 0.0
H408 H 0.88727 0.67316 0.24877 0.0
C409 C 0.95695 0.60295 0.18576 0.0
C410 C 0.93787 0.6182 0.10852 0.0
H411 H 0.96541 0.59837 0.34121 0.0
H412 H 0.97677 0.58362 0.17036 0.0
C413 C 0.91291 0.64397 0.13365 0.0
C414 C 0.59748 0.43914 0.26398 0.0
C415 C 0.61848 0.40857 0.29018 0.0
H416 H 0.57427 0.47092 0.14676 0.0
C417 C 0.63295 0.38711 0.21344 0.0
H418 H 0.58639 0.45712 0.32 0.0
C419 C 0.6263 0.39568 0.11359 0.0
C420 C 0.60484 0.42571 0.08813 0.0
H421 H 0.64897 0.36319 0.23023 0.0
H422 H 0.63723 0.37802 0.05643 0.0
C423 C 0.59062 0.44738 0.16437 0.0
C424 C 0.0734 0.24433 0.33486 0.0
C425 C 0.0756 0.23352 0.23446 0.0
H426 H 0.07582 0.29117 0.43902 0.0
C427 C 0.07354 0.26232 0.16046 0.0
H428 H 0.07567 0.22253 0.39309 0.0
C429 C 0.07381 0.30166 0.1869 0.0
C430 C 0.07584 0.3124 0.2874 0.0
H431 H 0.07606 0.25467 0.08275 0.0
H432 H 0.07649 0.32343 0.12878 0.0
C433 C 0.07343 0.28361 0.36123 0.0
C434 C 0.46663 0.79678 0.35092 0.0
C435 C 0.46477 0.81307 0.25484 0.0
H436 H 0.46503 0.74446 0.43848 0.0
C437 C 0.46814 0.78884 0.17211 0.0
H438 H 0.46368 0.81505 0.41572 0.0
C439 C 0.46831 0.74844 0.18522 0.0
C440 C 0.46582 0.73206 0.28108 0.0
H441 H 0.4662 0.80071 0.09746 0.0
H442 H 0.4666 0.73008 0.12017 0.0
C443 C 0.46752 0.7564 0.36405 0.0
C444 C 0.96569 0.78394 0.87365 0.0
C445 C 0.96456 0.8089 0.79087 0.0
H446 H 0.96161 0.72487 0.92429 0.0
C447 C 0.96759 0.7932 0.69504 0.0
H448 H 0.96263 0.79538 0.948 0.0
C449 C 0.96756 0.7529 0.68149 0.0
C450 C 0.964 0.72802 0.76366 0.0
H451 H 0.96618 0.81201 0.63013 0.0
H452 H 0.96598 0.74157 0.6066 0.0
C453 C 0.96507 0.74361 0.86 0.0
C454 C 0.5694 0.25214 0.85892 0.0
C455 C 0.57304 0.22955 0.7733 0.0
H456 H 0.57066 0.30981 0.9182 0.0
C457 C 0.57125 0.24764 0.67929 0.0
H458 H 0.5712 0.23887 0.93207 0.0
C459 C 0.57026 0.2882 0.67121 0.0
C460 C 0.57179 0.31091 0.75719 0.0
H461 H 0.57431 0.23065 0.61229 0.0
H462 H 0.57281 0.30155 0.59836 0.0
C463 C 0.56914 0.29273 0.85087 0.0
loop_
_geom_bond_atom_site_label_1
_geom_bond_atom_site_label_2
_geom_bond_distance
_geom_bond_site_symmetry_2
_ccdc_geom_bond_type
C0 C1 1.351 . S
C0 N3 1.368 . S
C0 H5 0.931 . S
C1 C0 1.351 . S
C1 N2 1.373 . S
C1 H29 0.930 . S
N2 C1 1.373 . S
N2 C4 1.340 . S
N3 C0 1.368 . S
N3 C4 1.321 . S
N3 Co6 2.135 1_556 S
C4 N2 1.340 . S
C4 N3 1.321 . S
C4 H28 0.930 . S
H5 C0 0.931 . S
Co6 N3 2.135 1_554 S
Co6 N9 2.121 . S
Co6 O14 2.055 . S
Co6 O17 2.039 . S
Co6 N20 2.140 . S
C7 O8 1.227 . S
C7 O17 1.265 . S
O8 C7 1.227 . S
N9 Co6 2.121 . S
N9 C11 1.375 . S
N9 C12 1.313 . S
C10 C11 1.338 . S
C10 N13 1.377 . S
C10 H30 0.930 . S
C11 N9 1.375 . S
C11 C10 1.338 . S
C11 H15 0.931 . S
C12 N9 1.313 . S
C12 N13 1.344 . S
C12 H16 0.930 . S
N13 C10 1.377 . S
N13 C12 1.344 . S
O14 Co6 2.055 . S
O14 C18 1.253 . S
H15 C11 0.931 . S
H16 C12 0.930 . S
O17 Co6 2.039 . S
O17 C7 1.265 . S
C18 O14 1.253 . S
C18 O19 1.227 . S
O19 C18 1.227 . S
N20 Co6 2.140 . S
N20 C23 1.346 . S
N20 C24 1.345 . S
C21 C22 1.387 . S
C21 C25 1.391 . S
C22 C21 1.387 . S
C22 C23 1.369 . S
C22 H31 0.929 1_554 S
C23 N20 1.346 . S
C23 C22 1.369 . S
C23 H26 0.928 1_554 S
C24 N20 1.345 . S
C24 C25 1.371 . S
C24 H27 0.931 . S
C25 C21 1.391 . S
C25 C24 1.371 . S
C25 H32 0.930 . S
H26 C23 0.928 1_556 S
H27 C24 0.931 . S
H28 C4 0.930 . S
H29 C1 0.930 . S
H30 C10 0.930 . S
H31 C22 0.929 1_556 S
H32 C25 0.930 . S
C33 C34 1.351 . S
C33 N36 1.368 . S
C33 H38 0.931 . S
C34 C33 1.351 . S
C34 N35 1.373 . S
C34 H62 0.930 . S
N35 C34 1.373 . S
N35 C37 1.340 . S
N36 C33 1.368 . S
N36 C37 1.321 . S
N36 Co39 2.135 1_556 S
C37 N35 1.340 . S
C37 N36 1.321 . S
C37 H61 0.930 . S
H38 C33 0.931 . S
Co39 N36 2.135 1_554 S
Co39 N42 2.121 . S
Co39 O47 2.055 . S
Co39 O50 2.039 . S
Co39 N53 2.140 . S
C40 O41 1.227 . S
C40 O50 1.265 . S
O41 C40 1.227 . S
N42 Co39 2.121 . S
N42 C44 1.375 . S
N42 C45 1.313 . S
C43 C44 1.338 . S
C43 N46 1.377 . S
C43 H63 0.930 . S
C44 N42 1.375 . S
C44 C43 1.338 . S
C44 H48 0.931 . S
C45 N42 1.313 . S
C45 N46 1.344 . S
C45 H49 0.930 . S
N46 C43 1.377 . S
N46 C45 1.344 . S
O47 Co39 2.055 . S
O47 C51 1.253 . S
H48 C44 0.931 . S
H49 C45 0.930 . S
O50 Co39 2.039 . S
O50 C40 1.265 . S
C51 O47 1.253 . S
C51 O52 1.227 . S
O52 C51 1.227 . S
N53 Co39 2.140 . S
N53 C56 1.346 . S
N53 C57 1.345 . S
C54 C55 1.387 . S
C54 C58 1.391 . S
C55 C54 1.387 . S
C55 C56 1.369 . S
C55 H64 0.929 1_554 S
C56 N53 1.346 . S
C56 C55 1.369 . S
C56 H59 0.928 1_554 S
C57 N53 1.345 . S
C57 C58 1.371 . S
C57 H60 0.931 . S
C58 C54 1.391 . S
C58 C57 1.371 . S
C58 H65 0.930 . S
H59 C56 0.928 1_556 S
H60 C57 0.931 . S
H61 C37 0.930 . S
H62 C34 0.930 . S
H63 C43 0.930 . S
H64 C55 0.929 1_556 S
H65 C58 0.930 . S
C66 C67 1.351 . S
C66 N69 1.368 . S
C66 H71 0.931 . S
C67 C66 1.351 . S
C67 N68 1.373 . S
C67 H95 0.930 . S
N68 C67 1.373 . S
N68 C70 1.340 . S
N69 C66 1.368 . S
N69 C70 1.321 . S
N69 Co72 2.135 . S
C70 N68 1.340 . S
C70 N69 1.321 . S
C70 H94 0.930 . S
H71 C66 0.931 . S
Co72 N69 2.135 . S
Co72 N75 2.121 . S
Co72 O80 2.055 . S
Co72 O83 2.039 . S
Co72 N86 2.140 . S
C73 O74 1.227 . S
C73 O83 1.265 . S
O74 C73 1.227 . S
N75 Co72 2.121 . S
N75 C77 1.375 . S
N75 C78 1.313 . S
C76 C77 1.338 . S
C76 N79 1.377 . S
C76 H96 0.930 . S
C77 N75 1.375 . S
C77 C76 1.338 . S
C77 H81 0.931 . S
C78 N75 1.313 . S
C78 N79 1.344 . S
C78 H82 0.930 . S
N79 C76 1.377 . S
N79 C78 1.344 . S
O80 Co72 2.055 . S
O80 C84 1.253 . S
H81 C77 0.931 . S
H82 C78 0.930 . S
O83 Co72 2.039 . S
O83 C73 1.265 . S
C84 O80 1.253 . S
C84 O85 1.227 . S
O85 C84 1.227 . S
N86 Co72 2.140 . S
N86 C89 1.346 . S
N86 C90 1.345 . S
C87 C88 1.387 . S
C87 C91 1.391 . S
C88 C87 1.387 . S
C88 C89 1.369 . S
C88 H97 0.929 . S
C89 N86 1.346 . S
C89 C88 1.369 . S
C89 H92 0.928 . S
C90 N86 1.345 . S
C90 C91 1.371 . S
C90 H93 0.931 . S
C91 C87 1.391 . S
C91 C90 1.371 . S
C91 H98 0.930 . S
H92 C89 0.928 . S
H93 C90 0.931 . S
H94 C70 0.930 . S
H95 C67 0.930 . S
H96 C76 0.930 . S
H97 C88 0.929 . S
H98 C91 0.930 . S
C99 C100 1.351 . S
C99 N102 1.368 . S
C99 H104 0.931 . S
C100 C99 1.351 . S
C100 N101 1.373 . S
C100 H128 0.930 . S
N101 C100 1.373 . S
N101 C103 1.340 . S
N102 C99 1.368 . S
N102 C103 1.321 . S
N102 Co105 2.135 . S
C103 N101 1.340 . S
C103 N102 1.321 . S
C103 H127 0.930 . S
H104 C99 0.931 . S
Co105 N102 2.135 . S
Co105 N108 2.121 . S
Co105 O113 2.055 . S
Co105 O116 2.039 . S
Co105 N119 2.140 . S
C106 O107 1.227 . S
C106 O116 1.265 . S
O107 C106 1.227 . S
N108 Co105 2.121 . S
N108 C110 1.375 . S
N108 C111 1.313 . S
C109 C110 1.338 . S
C109 N112 1.377 . S
C109 H129 0.930 . S
C110 N108 1.375 . S
C110 C109 1.338 . S
C110 H114 0.931 . S
C111 N108 1.313 . S
C111 N112 1.344 . S
C111 H115 0.930 . S
N112 C109 1.377 . S
N112 C111 1.344 . S
O113 Co105 2.055 . S
O113 C117 1.253 . S
H114 C110 0.931 . S
H115 C111 0.930 . S
O116 Co105 2.039 . S
O116 C106 1.265 . S
C117 O113 1.253 . S
C117 O118 1.227 . S
O118 C117 1.227 . S
N119 Co105 2.140 . S
N119 C122 1.346 . S
N119 C123 1.345 . S
C120 C121 1.387 . S
C120 C124 1.391 . S
C121 C120 1.387 . S
C121 C122 1.369 . S
C121 H130 0.929 . S
C122 N119 1.346 . S
C122 C121 1.369 . S
C122 H125 0.928 . S
C123 N119 1.345 . S
C123 C124 1.371 . S
C123 H126 0.931 . S
C124 C120 1.391 . S
C124 C123 1.371 . S
C124 H131 0.930 . S
H125 C122 0.928 . S
H126 C123 0.931 . S
H127 C103 0.930 . S
H128 C100 0.930 . S
H129 C109 0.930 . S
H130 C121 0.929 . S
H131 C124 0.930 . S
C132 C133 1.351 . S
C132 N135 1.368 . S
C132 H137 0.931 . S
C133 C132 1.351 . S
C133 N134 1.373 . S
C133 H161 0.930 . S
N134 C133 1.373 . S
N134 C136 1.340 . S
N135 C132 1.368 . S
N135 C136 1.321 . S
N135 Co138 2.135 1_554 S
C136 N134 1.340 . S
C136 N135 1.321 . S
C136 H160 0.930 . S
H137 C132 0.931 . S
Co138 N135 2.135 1_556 S
Co138 N141 2.121 . S
Co138 O146 2.055 . S
Co138 O149 2.039 . S
Co138 N152 2.140 . S
C139 O140 1.227 . S
C139 O149 1.265 . S
O140 C139 1.227 . S
N141 Co138 2.121 . S
N141 C143 1.375 . S
N141 C144 1.313 . S
C142 C143 1.338 . S
C142 N145 1.377 . S
C142 H162 0.930 . S
C143 N141 1.375 . S
C143 C142 1.338 . S
C143 H147 0.931 . S
C144 N141 1.313 . S
C144 N145 1.344 . S
C144 H148 0.930 . S
N145 C142 1.377 . S
N145 C144 1.344 . S
O146 Co138 2.055 . S
O146 C150 1.253 . S
H147 C143 0.931 . S
H148 C144 0.930 . S
O149 Co138 2.039 . S
O149 C139 1.265 . S
C150 O146 1.253 . S
C150 O151 1.227 . S
O151 C150 1.227 . S
N152 Co138 2.140 . S
N152 C155 1.346 . S
N152 C156 1.345 . S
C153 C154 1.387 . S
C153 C157 1.391 . S
C154 C153 1.387 . S
C154 C155 1.369 . S
C154 H163 0.929 1_556 S
C155 N152 1.346 . S
C155 C154 1.369 . S
C155 H158 0.928 1_556 S
C156 N152 1.345 . S
C156 C157 1.371 . S
C156 H159 0.931 . S
C157 C153 1.391 . S
C157 C156 1.371 . S
C157 H164 0.930 . S
H158 C155 0.928 1_554 S
H159 C156 0.931 . S
H160 C136 0.930 . S
H161 C133 0.930 . S
H162 C142 0.930 . S
H163 C154 0.929 1_554 S
H164 C157 0.930 . S
C165 C166 1.351 . S
C165 N168 1.368 . S
C165 H170 0.931 . S
C166 C165 1.351 . S
C166 N167 1.373 . S
C166 H194 0.930 . S
N167 C166 1.373 . S
N167 C169 1.340 . S
N168 C165 1.368 . S
N168 C169 1.321 . S
N168 Co171 2.135 1_554 S
C169 N167 1.340 . S
C169 N168 1.321 . S
C169 H193 0.930 . S
H170 C165 0.931 . S
Co171 N168 2.135 1_556 S
Co171 N174 2.121 . S
Co171 O179 2.055 . S
Co171 O182 2.039 . S
Co171 N185 2.140 . S
C172 O173 1.227 . S
C172 O182 1.265 . S
O173 C172 1.227 . S
N174 Co171 2.121 . S
N174 C176 1.375 . S
N174 C177 1.313 . S
C175 C176 1.338 . S
C175 N178 1.377 . S
C175 H195 0.930 . S
C176 N174 1.375 . S
C176 C175 1.338 . S
C176 H180 0.931 . S
C177 N174 1.313 . S
C177 N178 1.344 . S
C177 H181 0.930 . S
N178 C175 1.377 . S
N178 C177 1.344 . S
O179 Co171 2.055 . S
O179 C183 1.253 . S
H180 C176 0.931 . S
H181 C177 0.930 . S
O182 Co171 2.039 . S
O182 C172 1.265 . S
C183 O179 1.253 . S
C183 O184 1.227 . S
O184 C183 1.227 . S
N185 Co171 2.140 . S
N185 C188 1.346 . S
N185 C189 1.345 . S
C186 C187 1.387 . S
C186 C190 1.391 . S
C187 C186 1.387 . S
C187 C188 1.369 . S
C187 H196 0.929 1_556 S
C188 N185 1.346 . S
C188 C187 1.369 . S
C188 H191 0.928 1_556 S
C189 N185 1.345 . S
C189 C190 1.371 . S
C189 H192 0.931 . S
C190 C186 1.391 . S
C190 C189 1.371 . S
C190 H197 0.930 . S
H191 C188 0.928 1_554 S
H192 C189 0.931 . S
H193 C169 0.930 . S
H194 C166 0.930 . S
H195 C175 0.930 . S
H196 C187 0.929 1_554 S
H197 C190 0.930 . S
C198 C199 1.351 . S
C198 N201 1.368 . S
C198 H203 0.931 . S
C199 C198 1.351 . S
C199 N200 1.373 . S
C199 H227 0.930 . S
N200 C199 1.373 . S
N200 C202 1.340 . S
N201 C198 1.368 . S
N201 C202 1.321 . S
N201 Co204 2.135 . S
C202 N200 1.340 . S
C202 N201 1.321 . S
C202 H226 0.930 . S
H203 C198 0.931 . S
Co204 N201 2.135 . S
Co204 N207 2.121 . S
Co204 O212 2.055 . S
Co204 O215 2.039 . S
Co204 N218 2.140 . S
C205 O206 1.227 . S
C205 O215 1.265 . S
O206 C205 1.227 . S
N207 Co204 2.121 . S
N207 C209 1.375 . S
N207 C210 1.313 . S
C208 C209 1.338 . S
C208 N211 1.377 . S
C208 H228 0.930 . S
C209 N207 1.375 . S
C209 C208 1.338 . S
C209 H213 0.931 . S
C210 N207 1.313 . S
C210 N211 1.344 . S
C210 H214 0.930 . S
N211 C208 1.377 . S
N211 C210 1.344 . S
O212 Co204 2.055 . S
O212 C216 1.253 . S
H213 C209 0.931 . S
H214 C210 0.930 . S
O215 Co204 2.039 . S
O215 C205 1.265 . S
C216 O212 1.253 . S
C216 O217 1.227 . S
O217 C216 1.227 . S
N218 Co204 2.140 . S
N218 C221 1.346 . S
N218 C222 1.345 . S
C219 C220 1.387 . S
C219 C223 1.391 . S
C220 C219 1.387 . S
C220 C221 1.369 . S
C220 H229 0.929 . S
C221 N218 1.346 . S
C221 C220 1.369 . S
C221 H224 0.928 . S
C222 N218 1.345 . S
C222 C223 1.371 . S
C222 H225 0.931 . S
C223 C219 1.391 . S
C223 C222 1.371 . S
C223 H230 0.930 . S
H224 C221 0.928 . S
H225 C222 0.931 . S
H226 C202 0.930 . S
H227 C199 0.930 . S
H228 C208 0.930 . S
H229 C220 0.929 . S
H230 C223 0.930 . S
C231 C232 1.351 . S
C231 N234 1.368 . S
C231 H236 0.931 . S
C232 C231 1.351 . S
C232 N233 1.373 . S
C232 H260 0.930 . S
N233 C232 1.373 . S
N233 C235 1.340 . S
N234 C231 1.368 . S
N234 C235 1.321 . S
N234 Co237 2.135 . S
C235 N233 1.340 . S
C235 N234 1.321 . S
C235 H259 0.930 . S
H236 C231 0.931 . S
Co237 N234 2.135 . S
Co237 N240 2.121 . S
Co237 O245 2.055 . S
Co237 O248 2.039 . S
Co237 N251 2.140 . S
C238 O239 1.227 . S
C238 O248 1.265 . S
O239 C238 1.227 . S
N240 Co237 2.121 . S
N240 C242 1.375 . S
N240 C243 1.313 . S
C241 C242 1.338 . S
C241 N244 1.377 . S
C241 H261 0.930 . S
C242 N240 1.375 . S
C242 C241 1.338 . S
C242 H246 0.931 . S
C243 N240 1.313 . S
C243 N244 1.344 . S
C243 H247 0.930 . S
N244 C241 1.377 . S
N244 C243 1.344 . S
O245 Co237 2.055 . S
O245 C249 1.253 . S
H246 C242 0.931 . S
H247 C243 0.930 . S
O248 Co237 2.039 . S
O248 C238 1.265 . S
C249 O245 1.253 . S
C249 O250 1.227 . S
O250 C249 1.227 . S
N251 Co237 2.140 . S
N251 C254 1.346 . S
N251 C255 1.345 . S
C252 C253 1.387 . S
C252 C256 1.391 . S
C253 C252 1.387 . S
C253 C254 1.369 . S
C253 H262 0.929 . S
C254 N251 1.346 . S
C254 C253 1.369 . S
C254 H257 0.928 . S
C255 N251 1.345 . S
C255 C256 1.371 . S
C255 H258 0.931 . S
C256 C252 1.391 . S
C256 C255 1.371 . S
C256 H263 0.930 . S
H257 C254 0.928 . S
H258 C255 0.931 . S
H259 C235 0.930 . S
H260 C232 0.930 . S
H261 C241 0.930 . S
H262 C253 0.929 . S
H263 C256 0.930 . S
C264 C265 1.387 . S
C264 H268 0.950 1_554 S
C264 C273 1.390 1_565 S
C265 C264 1.387 . S
C265 C267 1.387 . S
H266 C273 0.950 1_556 S
C267 C265 1.387 . S
C267 C269 1.390 1_565 S
C267 H271 0.950 . S
H268 C264 0.950 1_556 S
C269 C267 1.390 1_545 S
C269 C270 1.387 . S
C269 H272 0.950 . S
C270 C269 1.387 . S
C270 C273 1.387 . S
H271 C267 0.950 . S
H272 C269 0.950 . S
C273 C264 1.390 1_545 S
C273 H266 0.950 1_554 S
C273 C270 1.387 . S
C274 C275 1.387 . S
C274 H278 0.950 . S
C274 C283 1.390 . S
C275 C274 1.387 . S
C275 C277 1.387 . S
H276 C283 0.950 . S
C277 C275 1.387 . S
C277 C279 1.390 . S
C277 H281 0.950 . S
H278 C274 0.950 . S
C279 C277 1.390 . S
C279 C280 1.387 . S
C279 H282 0.950 . S
C280 C279 1.387 . S
C280 C283 1.387 . S
H281 C277 0.950 . S
H282 C279 0.950 . S
C283 C274 1.390 . S
C283 H276 0.950 . S
C283 C280 1.387 . S
C284 C285 1.387 . S
C284 H288 0.950 . S
C284 C293 1.390 1_545 S
C285 C284 1.387 . S
C285 C287 1.387 . S
H286 C293 0.950 . S
C287 C285 1.387 . S
C287 C289 1.390 1_545 S
C287 H291 0.950 1_556 S
H288 C284 0.950 . S
C289 C287 1.390 1_565 S
C289 C290 1.387 . S
C289 H292 0.950 1_556 S
C290 C289 1.387 . S
C290 C293 1.387 . S
H291 C287 0.950 1_554 S
H292 C289 0.950 1_554 S
C293 C284 1.390 1_565 S
C293 H286 0.950 . S
C293 C290 1.387 . S
C294 C295 1.387 . S
C294 H298 0.950 . S
C294 C303 1.390 . S
C295 C294 1.387 . S
C295 C297 1.387 . S
H296 C303 0.950 . S
C297 C295 1.387 . S
C297 C299 1.390 . S
C297 H301 0.950 . S
H298 C294 0.950 . S
C299 C297 1.390 . S
C299 C300 1.387 . S
C299 H302 0.950 . S
C300 C299 1.387 . S
C300 C303 1.387 . S
H301 C297 0.950 . S
H302 C299 0.950 . S
C303 C294 1.390 . S
C303 H296 0.950 . S
C303 C300 1.387 . S
C304 C305 1.387 . S
C304 H308 0.950 . S
C304 C313 1.390 1_665 S
C305 C304 1.387 . S
C305 C307 1.387 1_556 S
H306 C313 0.950 . S
C307 C305 1.387 1_554 S
C307 C309 1.390 1_665 S
C307 H311 0.950 . S
H308 C304 0.950 . S
C309 C307 1.390 1_445 S
C309 C310 1.387 . S
C309 H312 0.950 . S
C310 C309 1.387 . S
C310 C313 1.387 1_554 S
H311 C307 0.950 . S
H312 C309 0.950 . S
C313 C304 1.390 1_445 S
C313 H306 0.950 . S
C313 C310 1.387 1_556 S
C314 C315 1.387 . S
C314 H318 0.950 . S
C314 C323 1.390 1_565 S
C315 C314 1.387 . S
C315 C317 1.387 1_554 S
H316 C323 0.950 . S
C317 C315 1.387 1_556 S
C317 C319 1.390 1_565 S
C317 H321 0.950 . S
H318 C314 0.950 . S
C319 C317 1.390 1_545 S
C319 C320 1.387 . S
C319 H322 0.950 . S
C320 C319 1.387 . S
C320 C323 1.387 1_556 S
H321 C317 0.950 . S
H322 C319 0.950 . S
C323 C314 1.390 1_545 S
C323 H316 0.950 . S
C323 C320 1.387 1_554 S
C324 C325 1.387 . S
C324 H328 0.950 . S
C324 C333 1.390 . S
C325 C324 1.387 . S
C325 C327 1.387 1_455 S
H326 C333 0.950 . S
C327 C325 1.387 1_655 S
C327 C329 1.390 . S
C327 H331 0.950 . S
H328 C324 0.950 . S
C329 C327 1.390 . S
C329 C330 1.387 . S
C329 H332 0.950 . S
C330 C329 1.387 . S
C330 C333 1.387 1_655 S
H331 C327 0.950 . S
H332 C329 0.950 . S
C333 C324 1.390 . S
C333 H326 0.950 . S
C333 C330 1.387 1_455 S
C334 C335 1.387 . S
C334 H338 0.950 . S
C334 C343 1.390 . S
C335 C334 1.387 . S
C335 C337 1.387 . S
H336 C343 0.950 . S
C337 C335 1.387 . S
C337 C339 1.390 . S
C337 H341 0.950 . S
H338 C334 0.950 . S
C339 C337 1.390 . S
C339 C340 1.387 . S
C339 H342 0.950 . S
C340 C339 1.387 . S
C340 C343 1.387 . S
H341 C337 0.950 . S
H342 C339 0.950 . S
C343 C334 1.390 . S
C343 H336 0.950 . S
C343 C340 1.387 . S
C344 C345 1.387 . S
C344 H348 0.950 . S
C344 C353 1.390 . S
C345 C344 1.387 . S
C345 C347 1.387 . S
H346 C353 0.950 . S
C347 C345 1.387 . S
C347 C349 1.390 . S
C347 H351 0.950 . S
H348 C344 0.950 . S
C349 C347 1.390 . S
C349 C350 1.387 . S
C349 H352 0.950 . S
C350 C349 1.387 . S
C350 C353 1.387 . S
H351 C347 0.950 . S
H352 C349 0.950 . S
C353 C344 1.390 . S
C353 H346 0.950 . S
C353 C350 1.387 . S
C354 C355 1.387 . S
C354 H358 0.950 . S
C354 C363 1.390 . S
C355 C354 1.387 . S
C355 C357 1.387 . S
H356 C363 0.950 . S
C357 C355 1.387 . S
C357 C359 1.390 . S
C357 H361 0.950 . S
H358 C354 0.950 . S
C359 C357 1.390 . S
C359 C360 1.387 . S
C359 H362 0.950 . S
C360 C359 1.387 . S
C360 C363 1.387 . S
H361 C357 0.950 . S
H362 C359 0.950 . S
C363 C354 1.390 . S
C363 H356 0.950 . S
C363 C360 1.387 . S
C364 C365 1.387 . S
C364 H368 0.950 . S
C364 C373 1.390 . S
C365 C364 1.387 . S
C365 C367 1.387 . S
H366 C373 0.950 . S
C367 C365 1.387 . S
C367 C369 1.390 . S
C367 H371 0.950 . S
H368 C364 0.950 . S
C369 C367 1.390 . S
C369 C370 1.387 . S
C369 H372 0.950 . S
C370 C369 1.387 . S
C370 C373 1.387 . S
H371 C367 0.950 . S
H372 C369 0.950 . S
C373 C364 1.390 . S
C373 H366 0.950 . S
C373 C370 1.387 . S
C374 C375 1.387 . S
C374 H378 0.950 . S
C374 C383 1.390 . S
C375 C374 1.387 . S
C375 C377 1.387 . S
H376 C383 0.950 . S
C377 C375 1.387 . S
C377 C379 1.390 . S
C377 H381 0.950 . S
H378 C374 0.950 . S
C379 C377 1.390 . S
C379 C380 1.387 . S
C379 H382 0.950 . S
C380 C379 1.387 . S
C380 C383 1.387 . S
H381 C377 0.950 . S
H382 C379 0.950 . S
C383 C374 1.390 . S
C383 H376 0.950 . S
C383 C380 1.387 . S
C384 C385 1.387 . S
C384 H388 0.950 . S
C384 C393 1.390 . S
C385 C384 1.387 . S
C385 C387 1.387 . S
H386 C393 0.950 . S
C387 C385 1.387 . S
C387 C389 1.390 . S
C387 H391 0.950 . S
H388 C384 0.950 . S
C389 C387 1.390 . S
C389 C390 1.387 . S
C389 H392 0.950 . S
C390 C389 1.387 . S
C390 C393 1.387 . S
H391 C387 0.950 . S
H392 C389 0.950 . S
C393 C384 1.390 . S
C393 H386 0.950 . S
C393 C390 1.387 . S
C394 C395 1.387 . S
C394 H398 0.950 . S
C394 C403 1.390 . S
C395 C394 1.387 . S
C395 C397 1.387 . S
H396 C403 0.950 . S
C397 C395 1.387 . S
C397 C399 1.390 . S
C397 H401 0.950 . S
H398 C394 0.950 . S
C399 C397 1.390 . S
C399 C400 1.387 . S
C399 H402 0.950 . S
C400 C399 1.387 . S
C400 C403 1.387 . S
H401 C397 0.950 . S
H402 C399 0.950 . S
C403 C394 1.390 . S
C403 H396 0.950 . S
C403 C400 1.387 . S
C404 C405 1.387 . S
C404 H408 0.950 . S
C404 C413 1.390 . S
C405 C404 1.387 . S
C405 C407 1.387 . S
H406 C413 0.950 . S
C407 C405 1.387 . S
C407 C409 1.390 . S
C407 H411 0.950 . S
H408 C404 0.950 . S
C409 C407 1.390 . S
C409 C410 1.387 . S
C409 H412 0.950 . S
C410 C409 1.387 . S
C410 C413 1.387 . S
H411 C407 0.950 . S
H412 C409 0.950 . S
C413 C404 1.390 . S
C413 H406 0.950 . S
C413 C410 1.387 . S
C414 C415 1.387 . S
C414 H418 0.950 . S
C414 C423 1.390 . S
C415 C414 1.387 . S
C415 C417 1.387 . S
H416 C423 0.950 . S
C417 C415 1.387 . S
C417 C419 1.390 . S
C417 H421 0.950 . S
H418 C414 0.950 . S
C419 C417 1.390 . S
C419 C420 1.387 . S
C419 H422 0.950 . S
C420 C419 1.387 . S
C420 C423 1.387 . S
H421 C417 0.950 . S
H422 C419 0.950 . S
C423 C414 1.390 . S
C423 H416 0.950 . S
C423 C420 1.387 . S
C424 C425 1.387 . S
C424 H428 0.950 . S
C424 C433 1.390 . S
C425 C424 1.387 . S
C425 C427 1.387 . S
H426 C433 0.950 . S
C427 C425 1.387 . S
C427 C429 1.390 . S
C427 H431 0.950 . S
H428 C424 0.950 . S
C429 C427 1.390 . S
C429 C430 1.387 . S
C429 H432 0.950 . S
C430 C429 1.387 . S
C430 C433 1.387 . S
H431 C427 0.950 . S
H432 C429 0.950 . S
C433 C424 1.390 . S
C433 H426 0.950 . S
C433 C430 1.387 . S
C434 C435 1.387 . S
C434 H438 0.950 . S
C434 C443 1.390 . S
C435 C434 1.387 . S
C435 C437 1.387 . S
H436 C443 0.950 . S
C437 C435 1.387 . S
C437 C439 1.390 . S
C437 H441 0.950 . S
H438 C434 0.950 . S
C439 C437 1.390 . S
C439 C440 1.387 . S
C439 H442 0.950 . S
C440 C439 1.387 . S
C440 C443 1.387 . S
H441 C437 0.950 . S
H442 C439 0.950 . S
C443 C434 1.390 . S
C443 H436 0.950 . S
C443 C440 1.387 . S
C444 C445 1.387 . S
C444 H448 0.950 . S
C444 C453 1.390 . S
C445 C444 1.387 . S
C445 C447 1.387 . S
H446 C453 0.950 . S
C447 C445 1.387 . S
C447 C449 1.390 . S
C447 H451 0.950 . S
H448 C444 0.950 . S
C449 C447 1.390 . S
C449 C450 1.387 . S
C449 H452 0.950 . S
C450 C449 1.387 . S
C450 C453 1.387 . S
H451 C447 0.950 . S
H452 C449 0.950 . S
C453 C444 1.390 . S
C453 H446 0.950 . S
C453 C450 1.387 . S
C454 C455 1.387 . S
C454 H458 0.950 . S
C454 C463 1.390 . S
C455 C454 1.387 . S
C455 C457 1.387 . S
H456 C463 0.950 . S
C457 C455 1.387 . S
C457 C459 1.390 . S
C457 H461 0.950 . S
H458 C454 0.950 . S
C459 C457 1.390 . S
C459 C460 1.387 . S
C459 H462 0.950 . S
C460 C459 1.387 . S
C460 C463 1.387 . S
H461 C457 0.950 . S
H462 C459 0.950 . S
C463 C454 1.390 . S
C463 H456 0.950 . S
C463 C460 1.387 . S
C265 C54 1.511 . S
C270 C21 1.511 . S
C275 C87 1.511 . S
C280 C120 1.511 . S
C285 C186 1.511 . S
C290 C153 1.511 . S
C295 C219 1.511 . S
C300 C252 1.511 . S
C305 C139 1.517 . S
C310 C7 1.517 . S
C315 C40 1.516 . S
C320 C172 1.516 . S
C325 C73 1.516 . S
C330 C205 1.516 . S
C335 C106 1.517 . S
C340 C238 1.517 . S
C345 N2 1.395 . S
C350 N13 1.396 . S
C355 N46 1.396 . S
C360 N35 1.395 . S
C365 N68 1.395 . S
C370 N79 1.396 1_556 S
C375 N112 1.396 1_556 S
C380 N101 1.395 . S
C385 N134 1.395 . S
C390 N145 1.396 . S
C395 N178 1.396 . S
C400 N167 1.395 . S
C405 N200 1.395 . S
C410 N211 1.396 1_554 S
C415 N233 1.395 . S
C420 N244 1.396 1_554 S
C425 C18 1.541 . S
C430 C84 1.541 . S
C435 C51 1.541 . S
C440 C117 1.541 . S
C445 C150 1.541 . S
C450 C216 1.541 . S
C455 C183 1.541 . S
C460 C249 1.541 . S
