# Generated by pormake.
# Topology fst, (5)-cn, num edge types: 1
# Building blocks:
#     Node 0, Type 0, BuildingBlock: XOMCOT_clean_sbu_1, # of connection points: 5
#     Node 1, Type 0, BuildingBlock: XOMCOT_clean_sbu_1, # of connection points: 5
#     Node 2, Type 0, BuildingBlock: XOMCOT_clean_sbu_1, # of connection points: 5
#     Node 3, Type 0, BuildingBlock: XOMCOT_clean_sbu_1, # of connection points: 5
#     Node 4, Type 0, BuildingBlock: XOMCOT_clean_sbu_1, # of connection points: 5
#     Node 5, Type 0, BuildingBlock: XOMCOT_clean_sbu_1, # of connection points: 5
#     Node 6, Type 0, BuildingBlock: XOMCOT_clean_sbu_1, # of connection points: 5
#     Node 7, Type 0, BuildingBlock: XOMCOT_clean_sbu_1, # of connection points: 5
#     Node 8, Type 0, BuildingBlock: XOMCOT_clean_sbu_1, # of connection points: 5
#     Node 9, Type 0, BuildingBlock: XOMCOT_clean_sbu_1, # of connection points: 5
#     Node 10, Type 0, BuildingBlock: XOMCOT_clean_sbu_1, # of connection points: 5
#     Node 11, Type 0, BuildingBlock: XOMCOT_clean_sbu_1, # of connection points: 5
#     Edge 12, Type (0, 0), BuildingBlock: TEMPAE_clean_linker_10, # of connection points: 2
#     Edge 13, Type (0, 0), BuildingBlock: TEMPAE_clean_linker_10, # of connection points: 2
#     Edge 14, Type (0, 0), BuildingBlock: TEMPAE_clean_linker_10, # of connection points: 2
#     Edge 15, Type (0, 0), BuildingBlock: TEMPAE_clean_linker_10, # of connection points: 2
#     Edge 16, Type (0, 0), BuildingBlock: TEMPAE_clean_linker_10, # of connection points: 2
#     Edge 17, Type (0, 0), BuildingBlock: TEMPAE_clean_linker_10, # of connection points: 2
#     Edge 18, Type (0, 0), BuildingBlock: TEMPAE_clean_linker_10, # of connection points: 2
#     Edge 19, Type (0, 0), BuildingBlock: TEMPAE_clean_linker_10, # of connection points: 2
#     Edge 20, Type (0, 0), BuildingBlock: TEMPAE_clean_linker_10, # of connection points: 2
#     Edge 21, Type (0, 0), BuildingBlock: TEMPAE_clean_linker_10, # of connection points: 2
#     Edge 22, Type (0, 0), BuildingBlock: TEMPAE_clean_linker_10, # of connection points: 2
#     Edge 23, Type (0, 0), BuildingBlock: TEMPAE_clean_linker_10, # of connection points: 2
#     Edge 24, Type (0, 0), BuildingBlock: TEMPAE_clean_linker_10, # of connection points: 2
#     Edge 25, Type (0, 0), BuildingBlock: TEMPAE_clean_linker_10, # of connection points: 2
#     Edge 26, Type (0, 0), BuildingBlock: TEMPAE_clean_linker_10, # of connection points: 2
#     Edge 27, Type (0, 0), BuildingBlock: TEMPAE_clean_linker_10, # of connection points: 2
#     Edge 28, Type (0, 0), BuildingBlock: TEMPAE_clean_linker_10, # of connection points: 2
#     Edge 29, Type (0, 0), BuildingBlock: TEMPAE_clean_linker_10, # of connection points: 2
#     Edge 30, Type (0, 0), BuildingBlock: TEMPAE_clean_linker_10, # of connection points: 2
#     Edge 31, Type (0, 0), BuildingBlock: TEMPAE_clean_linker_10, # of connection points: 2
#     Edge 32, Type (0, 0), BuildingBlock: TEMPAE_clean_linker_10, # of connection points: 2
#     Edge 33, Type (0, 0), BuildingBlock: TEMPAE_clean_linker_10, # of connection points: 2
#     Edge 34, Type (0, 0), BuildingBlock: TEMPAE_clean_linker_10, # of connection points: 2
#     Edge 35, Type (0, 0), BuildingBlock: TEMPAE_clean_linker_10, # of connection points: 2
#     Edge 36, Type (0, 0), BuildingBlock: TEMPAE_clean_linker_10, # of connection points: 2
#     Edge 37, Type (0, 0), BuildingBlock: TEMPAE_clean_linker_10, # of connection points: 2
#     Edge 38, Type (0, 0), BuildingBlock: TEMPAE_clean_linker_10, # of connection points: 2
#     Edge 39, Type (0, 0), BuildingBlock: TEMPAE_clean_linker_10, # of connection points: 2
#     Edge 40, Type (0, 0), BuildingBlock: TEMPAE_clean_linker_10, # of connection points: 2
#     Edge 41, Type (0, 0), BuildingBlock: TEMPAE_clean_linker_10, # of connection points: 2
# Relax obj value: 0.139
# Max RMSD: 0.123
# Mean RMSD: 0.123
data_MOF--net-fst--node1-XOMCOT_clean_sbu_1--edge1-TEMPAE_clean_linker_10
_symmetry_space_group_name_H-M    P1
_symmetry_Int_Tables_number       1
_symmetry_cell_setting            triclinic
loop_
_symmetry_equiv_pos_as_xyz
'x, y, z'
_cell_length_a     74.975394
_cell_length_b     74.948329
_cell_length_c     17.855778
_cell_angle_alpha  90.039136
_cell_angle_beta   90.014781
_cell_angle_gamma 120.01294
loop_
_atom_site_label
_atom_site_type_symbol
_atom_site_fract_x
_atom_site_fract_y
_atom_site_fract_z
_atom_type_partial_charge
C0 C 0.13397 0.46139 0.92029 0.0
C1 C 0.13741 0.46329 0.84449 0.0
N2 N 0.12988 0.44434 0.81503 0.0
N3 N 0.12376 0.44126 0.93928 0.0
C4 C 0.12231 0.43126 0.87406 0.0
H5 H 0.13821 0.47399 0.95891 0.0
Co6 Co 0.11464 0.43218 0.0383 0.0
C7 C 0.07474 0.40225 0.95039 0.0
O8 O 0.0796 0.41152 0.88509 0.0
N9 N 0.10591 0.42357 0.13821 0.0
C10 C 0.08528 0.41271 0.23761 0.0
C11 C 0.08624 0.41549 0.16159 0.0
C12 C 0.11668 0.42574 0.20209 0.0
N13 N 0.10442 0.41912 0.26377 0.0
O14 O 0.12684 0.41479 0.03287 0.0
H15 H 0.07338 0.41269 0.12629 0.0
H16 H 0.13324 0.43253 0.20356 0.0
O17 O 0.08747 0.40946 1.00508 0.0
C18 C 0.14568 0.4256 0.05271 0.0
O19 O 0.15239 0.44475 0.07353 0.0
N20 N 0.10476 0.45095 0.04587 0.0
C21 C 0.09966 0.48549 0.04927 0.0
C22 C 0.08733 0.46862 1.00284 0.0
C23 C 0.09018 0.45153 1.0017 0.0
C24 C 0.11616 0.46677 0.09402 0.0
C25 C 0.11384 0.48413 0.09679 0.0
H26 H 0.08145 0.43955 0.96206 0.0
H27 H 0.12796 0.4664 0.12774 0.0
H28 H 0.11494 0.41467 0.86926 0.0
H29 H 0.14447 0.47755 0.81302 0.0
H30 H 0.07155 0.40735 0.27126 0.0
H31 H 0.07637 0.46906 0.9645 0.0
H32 H 0.12353 0.49665 0.13426 0.0
C33 C 0.69682 0.14793 0.92478 0.0
C34 C 0.69986 0.1516 0.84927 0.0
N35 N 0.69781 0.13458 0.81546 0.0
N36 N 0.69292 0.1287 0.93954 0.0
C37 C 0.69401 0.12101 0.87193 0.0
H38 H 0.69681 0.15844 0.96628 0.0
Co39 Co 0.68633 0.11758 0.03666 0.0
C40 C 0.66367 0.07265 0.98435 0.0
O41 O 0.64588 0.07196 0.98732 0.0
N42 N 0.68036 0.10682 0.13671 0.0
C43 C 0.66515 0.08615 0.23436 0.0
C44 C 0.66538 0.08786 0.15796 0.0
C45 C 0.68897 0.11636 0.20269 0.0
N46 N 0.6799 0.10412 0.26298 0.0
O47 O 0.71519 0.12611 0.05005 0.0
H48 H 0.65453 0.07601 0.12149 0.0
H49 H 0.70111 0.13221 0.20707 0.0
O50 O 0.68029 0.0895 1.00074 0.0
C51 C 0.72463 0.14476 0.0734 0.0
O52 O 0.71356 0.15334 0.09017 0.0
N53 N 0.65856 0.11228 0.02358 0.0
C54 C 0.62048 0.11077 1.00588 0.0
C55 C 0.62958 0.10606 0.94626 0.0
C56 C 0.64875 0.10749 0.95555 0.0
C57 C 0.65029 0.11778 0.08127 0.0
C58 C 0.63123 0.11684 0.07405 0.0
H59 H 0.6552 0.10385 0.90804 0.0
H60 H 0.65871 0.12368 0.13293 0.0
H61 H 0.69079 0.10538 0.86378 0.0
H62 H 0.70295 0.16568 0.82146 0.0
H63 H 0.65466 0.07267 0.26632 0.0
H64 H 0.62198 0.1012 0.89245 0.0
H65 H 0.62536 0.12152 0.12094 0.0
C66 C 0.54368 0.67604 0.92621 0.0
C67 C 0.54219 0.67892 0.85114 0.0
N68 N 0.56131 0.69048 0.82306 0.0
N69 N 0.56367 0.68528 0.94641 0.0
C70 C 0.57405 0.69459 0.88271 0.0
H71 H 0.53085 0.66737 0.96356 0.0
Co72 Co 0.57199 0.68438 0.04581 0.0
C73 C 0.60247 0.67501 0.95923 0.0
O74 O 0.59405 0.67182 0.89252 0.0
N75 N 0.57974 0.68341 0.14618 0.0
C76 C 0.5884 0.67183 0.24667 0.0
C77 C 0.58698 0.67111 0.17003 0.0
C78 C 0.57692 0.69152 0.21016 0.0
N79 N 0.58203 0.6846 0.27213 0.0
O80 O 0.58968 0.714 0.04351 0.0
H81 H 0.58998 0.66123 0.13444 0.0
H82 H 0.57011 0.70127 0.21185 0.0
O83 O 0.59474 0.67986 1.01411 0.0
C84 C 0.57904 0.72229 0.06258 0.0
O85 O 0.5597 0.71004 0.08146 0.0
N86 N 0.55298 0.65571 0.04995 0.0
C87 C 0.51859 0.61591 0.04952 0.0
C88 C 0.53557 0.62093 1.00315 0.0
C89 C 0.55257 0.64094 1.00388 0.0
C90 C 0.53697 0.65086 0.09756 0.0
C91 C 0.5197 0.63109 0.09847 0.0
H92 H 0.56467 0.64461 0.96428 0.0
H93 H 0.53716 0.66273 0.13262 0.0
H94 H 0.59065 0.70401 0.88 0.0
H95 H 0.52801 0.67222 0.81933 0.0
H96 H 0.59314 0.66309 0.28135 0.0
H97 H 0.53531 0.60983 0.96365 0.0
H98 H 0.50708 0.62791 0.13588 0.0
C99 C 0.86388 0.5446 0.95037 0.0
C100 C 0.8615 0.54233 0.87397 0.0
N101 N 0.87548 0.56013 0.84173 0.0
N102 N 0.87953 0.56362 0.9663 0.0
C103 C 0.88611 0.5729 0.89893 0.0
H104 H 0.85517 0.53294 0.99189 0.0
Co105 Co 0.88903 0.57247 0.06351 0.0
C106 C 0.93411 0.5952 0.04926 0.0
O107 O 0.93384 0.58321 0.10345 0.0
N108 N 0.89778 0.58186 0.16387 0.0
C109 C 0.91386 0.60331 0.25933 0.0
C110 C 0.91241 0.60126 0.18289 0.0
C111 C 0.88941 0.57305 0.23087 0.0
N112 N 0.89938 0.58553 0.2895 0.0
O113 O 0.87869 0.59142 0.05662 0.0
H114 H 0.92108 0.61365 0.14391 0.0
H115 H 0.87571 0.55818 0.23721 0.0
O116 O 0.91707 0.59344 0.02564 0.0
C117 C 0.86049 0.58259 0.08383 0.0
O118 O 0.85348 0.56432 0.1143 0.0
N119 N 0.89706 0.55175 0.06854 0.0
C120 C 0.90283 0.51727 0.06154 0.0
C121 C 0.91012 0.53223 1.00457 0.0
C122 C 0.90725 0.54924 1.00939 0.0
C123 C 0.88934 0.53709 0.12318 0.0
C124 C 0.89272 0.52034 0.12239 0.0
H125 H 0.91255 0.56002 0.96334 0.0
H126 H 0.87955 0.5375 0.16597 0.0
H127 H 0.89892 0.58839 0.89174 0.0
H128 H 0.85044 0.52861 0.84427 0.0
H129 H 0.92417 0.61709 0.29039 0.0
H130 H 0.9173 0.53063 0.95452 0.0
H131 H 0.8868 0.50967 0.16874 0.0
C132 C 0.33161 0.86576 0.95052 0.0
C133 C 0.33129 0.86338 0.87423 0.0
N134 N 0.32411 0.87486 0.84293 0.0
N135 N 0.32526 0.87923 0.96828 0.0
C136 C 0.31991 0.88376 0.90116 0.0
H137 H 0.33597 0.85774 0.98992 0.0
Co138 Co 0.32324 0.8879 0.06668 0.0
C139 C 0.34188 0.92809 0.98077 0.0
O140 O 0.35292 0.92266 0.93962 0.0
N141 N 0.32064 0.89583 0.16434 0.0
C142 C 0.31552 0.91179 0.25997 0.0
C143 C 0.31586 0.91038 0.18329 0.0
C144 C 0.32266 0.88826 0.23078 0.0
N145 N 0.31975 0.89785 0.28987 0.0
O146 O 0.29405 0.87658 0.05017 0.0
H147 H 0.31249 0.91927 0.14414 0.0
H148 H 0.32636 0.87608 0.23575 0.0
O149 O 0.32957 0.91554 0.03004 0.0
C150 C 0.28456 0.85849 0.07829 0.0
O151 O 0.29554 0.85199 0.11429 0.0
N152 N 0.35143 0.8968 0.08624 0.0
C153 C 0.39114 0.90218 0.095 0.0
C154 C 0.38819 0.91917 0.0857 0.0
C155 C 0.36819 0.91622 0.08409 0.0
C156 C 0.35407 0.88073 0.10615 0.0
C157 C 0.37368 0.88297 0.11001 0.0
H158 H 0.36646 0.92959 0.07993 0.0
H159 H 0.3407 0.86573 0.11558 0.0
H160 H 0.31369 0.89397 0.89481 0.0
H161 H 0.33589 0.85381 0.84399 0.0
H162 H 0.31199 0.92199 0.29145 0.0
H163 H 0.40108 0.93454 0.07714 0.0
H164 H 0.37503 0.86958 0.12279 0.0
C165 C 0.45543 0.31224 0.9245 0.0
C166 C 0.45555 0.30903 0.8489 0.0
N167 N 0.43909 0.30888 0.81739 0.0
N168 N 0.43911 0.31433 0.94165 0.0
C169 C 0.42922 0.31191 0.87559 0.0
H170 H 0.467 0.31381 0.96433 0.0
Co171 Co 0.43477 0.32074 0.03914 0.0
C172 C 0.41332 0.34433 0.99023 0.0
O173 O 0.43055 0.36196 0.995 0.0
N174 N 0.43017 0.32659 0.1396 0.0
C175 C 0.42766 0.34315 0.23949 0.0
C176 C 0.42888 0.3431 0.16285 0.0
C177 C 0.42938 0.31666 0.20438 0.0
N178 N 0.42795 0.32652 0.26562 0.0
O179 O 0.41413 0.29204 0.05138 0.0
H180 H 0.43004 0.35524 0.12759 0.0
H181 H 0.43084 0.30306 0.20751 0.0
O182 O 0.41315 0.32741 1.00442 0.0
C183 C 0.42326 0.28243 0.07336 0.0
O184 O 0.443 0.2933 0.0894 0.0
N185 N 0.45752 0.34837 0.02681 0.0
C186 C 0.49394 0.38651 1.0108 0.0
C187 C 0.48038 0.3775 0.95045 0.0
C188 C 0.46259 0.35833 0.95908 0.0
C189 C 0.47131 0.3564 0.08459 0.0
C190 C 0.48927 0.37559 0.07842 0.0
H191 H 0.45249 0.35192 0.91142 0.0
H192 H 0.46878 0.34777 0.13574 0.0
H193 H 0.41545 0.31303 0.87028 0.0
H194 H 0.46755 0.30788 0.81952 0.0
H195 H 0.4272 0.35485 0.27368 0.0
H196 H 0.48338 0.38526 0.8969 0.0
H197 H 0.49974 0.38151 0.12559 0.0
C198 C 0.54915 0.86668 0.12806 0.0
C199 C 0.54747 0.86219 0.20302 0.0
N200 N 0.5665 0.86934 0.23148 0.0
N201 N 0.56918 0.87718 0.10832 0.0
C202 C 0.57937 0.8778 0.17207 0.0
H203 H 0.53646 0.863 0.09045 0.0
Co204 Co 0.57723 0.88669 1.00896 0.0
C205 C 0.61045 0.92586 0.09391 0.0
O206 O 0.60392 0.92062 0.16293 0.0
N207 N 0.58463 0.89556 0.90848 0.0
C208 C 0.59334 0.91591 0.8083 0.0
C209 C 0.59198 0.91514 0.885 0.0
C210 C 0.58173 0.88467 0.8443 0.0
N211 N 0.58685 0.89675 0.7825 0.0
O212 O 0.59369 0.8734 1.00729 0.0
H213 H 0.59519 0.92802 0.92101 0.0
H214 H 0.57493 0.86811 0.84236 0.0
O215 O 0.60098 0.91344 0.03989 0.0
C216 C 0.58222 0.85456 0.9883 0.0
O217 O 0.56291 0.84829 0.97124 0.0
N218 N 0.55953 0.89801 1.00973 0.0
C219 C 0.52714 0.90627 0.02133 0.0
C220 C 0.54362 0.91495 0.07201 0.0
C221 C 0.55972 0.91071 0.06506 0.0
C222 C 0.5439 0.88995 0.95853 0.0
C223 C 0.5277 0.89412 0.96268 0.0
H224 H 0.57138 0.91641 0.10772 0.0
H225 H 0.54341 0.87933 0.91645 0.0
H226 H 0.59589 0.88441 0.17496 0.0
H227 H 0.53325 0.855 0.23455 0.0
H228 H 0.59823 0.92946 0.77388 0.0
H229 H 0.54368 0.92431 0.11836 0.0
H230 H 0.5151 0.88688 0.92306 0.0
C231 C 0.68887 0.54742 0.09979 0.0
C232 C 0.69044 0.54599 0.17587 0.0
N233 N 0.69876 0.56499 0.20531 0.0
N234 N 0.69553 0.56721 0.08053 0.0
C235 C 0.70231 0.57768 0.14627 0.0
H236 H 0.68311 0.53458 0.06161 0.0
Co237 Co 0.69519 0.57689 0.98194 0.0
C238 C 0.67825 0.59919 0.07382 0.0
O239 O 0.66876 0.58359 0.12018 0.0
N240 N 0.69501 0.58629 0.88354 0.0
C241 C 0.68661 0.59913 0.78639 0.0
C242 C 0.68536 0.5966 0.86249 0.0
C243 C 0.7019 0.58262 0.81819 0.0
N244 N 0.69706 0.59039 0.75759 0.0
O245 O 0.7246 0.59527 0.98987 0.0
H246 H 0.67698 0.60124 0.89922 0.0
H247 H 0.70981 0.57393 0.81521 0.0
O248 O 0.68939 0.59825 0.02128 0.0
C249 C 0.73312 0.585 0.96877 0.0
O250 O 0.72108 0.56607 0.94484 0.0
N251 N 0.66692 0.55702 0.97035 0.0
C252 C 0.62803 0.52167 0.96201 0.0
C253 C 0.63004 0.54095 0.97788 0.0
C254 C 0.64965 0.55857 0.98011 0.0
C255 C 0.66498 0.53894 0.94557 0.0
C256 C 0.64579 0.52102 0.94231 0.0
H257 H 0.65061 0.57317 0.98965 0.0
H258 H 0.67865 0.53821 0.93179 0.0
H259 H 0.70877 0.59417 0.15138 0.0
H260 H 0.68558 0.53197 0.20747 0.0
H261 H 0.67939 0.60615 0.75506 0.0
H262 H 0.61668 0.54237 0.99062 0.0
H263 H 0.64495 0.50671 0.92589 0.0
C264 C 0.14209 0.68265 0.10821 0.0
C265 C 0.14685 0.68596 0.18289 0.0
N266 N 0.14068 0.69882 0.20946 0.0
N267 N 0.13238 0.69287 0.08674 0.0
C268 C 0.13254 0.7033 0.14927 0.0
H269 H 0.14525 0.67301 0.07198 0.0
Co270 Co 0.1233 0.69162 0.98652 0.0
C271 C 0.08435 0.68598 0.07084 0.0
O272 O 0.09038 0.68557 0.13943 0.0
N273 N 0.1149 0.69026 0.88546 0.0
C274 C 0.09509 0.67776 0.78423 0.0
C275 C 0.09569 0.67697 0.86084 0.0
C276 C 0.12577 0.69899 0.82191 0.0
N277 N 0.11401 0.69152 0.75943 0.0
O278 O 0.1364 0.72134 0.98585 0.0
H279 H 0.08309 0.66639 0.89605 0.0
H280 H 0.14219 0.70967 0.82092 0.0
O281 O 0.09628 0.68842 0.01569 0.0
C282 C 0.15538 0.72879 0.96909 0.0
O283 O 0.16172 0.71577 0.95261 0.0
N284 N 0.11222 0.66271 0.98613 0.0
C285 C 0.10327 0.6217 0.99215 0.0
C286 C 0.09293 0.62871 0.03857 0.0
C287 C 0.0977 0.64929 0.03504 0.0
C288 C 0.12198 0.65604 0.93898 0.0
C289 C 0.1177 0.63563 0.94081 0.0
H290 H 0.09047 0.6545 0.07453 0.0
H291 H 0.1339 0.66691 0.90201 0.0
H292 H 0.12669 0.71388 0.15084 0.0
H293 H 0.1536 0.67869 0.21569 0.0
H294 H 0.08184 0.6684 0.74915 0.0
H295 H 0.08159 0.61853 0.0788 0.0
H296 H 0.12638 0.6311 0.90477 0.0
C297 C 0.46178 0.14263 0.0814 0.0
C298 C 0.46403 0.14387 0.15778 0.0
N299 N 0.44574 0.13063 0.18895 0.0
N300 N 0.44222 0.12851 0.06395 0.0
C301 C 0.43273 0.12143 0.13066 0.0
H302 H 0.47356 0.15186 0.04102 0.0
Co303 Co 0.4323 0.12393 0.96629 0.0
C304 C 0.40281 0.07962 0.94906 0.0
O305 O 0.41114 0.08126 0.8829 0.0
N306 N 0.42222 0.12025 0.8664 0.0
C307 C 0.39964 0.11399 0.77467 0.0
C308 C 0.40253 0.11496 0.85073 0.0
C309 C 0.43103 0.12258 0.79803 0.0
N310 N 0.41758 0.11878 0.7414 0.0
O311 O 0.41577 0.13637 0.99154 0.0
H312 H 0.39081 0.11171 0.89232 0.0
H313 H 0.44699 0.12723 0.78911 0.0
O314 O 0.40974 0.09548 0.99214 0.0
C315 C 0.42639 0.15538 0.97355 0.0
O316 O 0.44455 0.16172 0.94311 0.0
N317 N 0.45073 0.11435 0.94339 0.0
C318 C 0.48592 0.11036 0.94098 0.0
C319 C 0.46775 0.09534 0.97526 0.0
C320 C 0.45048 0.09786 0.97746 0.0
C321 C 0.46821 0.12886 0.90869 0.0
C322 C 0.48586 0.12706 0.90604 0.0
H323 H 0.43772 0.08748 1.01218 0.0
H324 H 0.46903 0.14282 0.88813 0.0
H325 H 0.41646 0.11046 0.1364 0.0
H326 H 0.47804 0.15398 0.18803 0.0
H327 H 0.38533 0.10977 0.74615 0.0
H328 H 0.46738 0.08259 1.00516 0.0
H329 H 0.49967 0.13918 0.87996 0.0
C330 C 0.32325 0.45975 0.11408 0.0
C331 C 0.3204 0.46146 0.18902 0.0
N332 N 0.30777 0.4425 0.21672 0.0
N333 N 0.31294 0.43975 0.09355 0.0
C334 C 0.30296 0.42968 0.1569 0.0
H335 H 0.33268 0.47243 0.07709 0.0
Co336 Co 0.31373 0.43129 0.99399 0.0
C337 C 0.32032 0.39903 0.0811 0.0
O338 O 0.32238 0.40672 0.14865 0.0
N339 N 0.31461 0.42352 0.89352 0.0
C340 C 0.32579 0.41444 0.79298 0.0
C341 C 0.3265 0.41581 0.86966 0.0
C342 C 0.30676 0.42668 0.82953 0.0
N343 N 0.31344 0.42133 0.7675 0.0
O344 O 0.28402 0.41465 0.9949 0.0
H345 H 0.33608 0.41241 0.90534 0.0
H346 H 0.29735 0.43387 0.8279 0.0
O347 O 0.31691 0.40768 0.0255 0.0
C348 C 0.27639 0.42588 0.97597 0.0
O349 O 0.28921 0.44518 0.95804 0.0
N350 N 0.34265 0.44919 0.99144 0.0
C351 C 0.38346 0.48179 0.99457 0.0
C352 C 0.377 0.46456 0.04126 0.0
C353 C 0.35653 0.4485 0.03917 0.0
C354 C 0.34881 0.46542 0.94369 0.0
C355 C 0.36911 0.48182 0.94412 0.0
H356 H 0.35182 0.43621 0.07891 0.0
H357 H 0.33762 0.46617 0.90759 0.0
H358 H 0.29257 0.4132 0.15932 0.0
H359 H 0.32789 0.4756 0.22108 0.0
H360 H 0.33424 0.40933 0.75832 0.0
H361 H 0.38754 0.46373 0.08073 0.0
H362 H 0.3732 0.49488 0.90784 0.0
C363 C 0.86319 0.31905 0.12265 0.0
C364 C 0.85892 0.31642 0.19789 0.0
N365 N 0.86744 0.30586 0.22745 0.0
N366 N 0.87489 0.31074 0.10392 0.0
C367 C 0.8765 0.30206 0.16841 0.0
H368 H 0.8586 0.32715 0.08415 0.0
Co369 Co 0.88471 0.31201 1.00514 0.0
C370 C 0.92475 0.32214 0.093 0.0
O371 O 0.91948 0.32486 0.16027 0.0
N372 N 0.89391 0.31299 0.90514 0.0
C373 C 0.91434 0.32427 0.80507 0.0
C374 C 0.91356 0.32497 0.88174 0.0
C375 C 0.88305 0.30501 0.8409 0.0
N376 N 0.89517 0.3118 0.77916 0.0
O377 O 0.87274 0.28235 1.00697 0.0
H378 H 0.92645 0.33469 0.91756 0.0
H379 H 0.86645 0.29554 0.83887 0.0
O380 O 0.912 0.31692 0.03847 0.0
C381 C 0.85378 0.27423 0.98859 0.0
O382 O 0.84692 0.28668 0.96973 0.0
N383 N 0.89474 0.34099 1.00212 0.0
C384 C 0.90256 0.38194 1.0029 0.0
C385 C 0.90887 0.37406 0.06247 0.0
C386 C 0.90516 0.35383 0.06034 0.0
C387 C 0.88857 0.34828 0.94347 0.0
C388 C 0.89289 0.36872 0.94156 0.0
H389 H 0.90921 0.34814 0.10874 0.0
H390 H 0.87965 0.33807 0.8984 0.0
H391 H 0.88434 0.29328 0.17202 0.0
H392 H 0.85088 0.3227 0.22868 0.0
H393 H 0.92791 0.33288 0.77067 0.0
H394 H 0.91574 0.38289 0.11275 0.0
H395 H 0.88811 0.37374 0.89266 0.0
C396 C 0.1 0.58916 0.93782 0.0
C397 C 0.10018 0.60052 1.00068 0.0
C398 C 0.09869 0.56987 0.94566 0.0
C399 C 0.09749 0.56165 0.01813 0.0
C400 C 0.09708 0.57275 0.08169 0.0
C401 C 0.09847 0.59203 0.07224 0.0
C402 C 0.09913 0.55852 0.87642 0.0
C403 C 0.09583 0.56457 0.15992 0.0
C404 C 0.07999 0.50451 0.03691 0.0
C405 C 0.09885 0.50494 0.04403 0.0
C406 C 0.07926 0.52282 0.02891 0.0
C407 C 0.09783 0.54203 0.02764 0.0
C408 C 0.1169 0.54256 0.03514 0.0
C409 C 0.11717 0.52407 0.04322 0.0
C410 C 0.05863 0.52161 0.02153 0.0
C411 C 0.13707 0.56269 0.0337 0.0
H412 H 0.10103 0.59544 0.8823 0.0
H413 H 0.09892 0.60076 0.12129 0.0
H414 H 0.11314 0.55706 0.87698 0.0
H415 H 0.08563 0.5427 0.87577 0.0
H416 H 0.09909 0.5665 0.82405 0.0
H417 H 0.09425 0.57436 0.20312 0.0
H418 H 0.08253 0.54869 0.16458 0.0
H419 H 0.10994 0.56378 0.17213 0.0
H420 H 0.06576 0.48983 0.03801 0.0
H421 H 0.13184 0.52457 0.04718 0.0
H422 H 0.05782 0.52849 0.96756 0.0
H423 H 0.05672 0.53065 0.06686 0.0
H424 H 0.04559 0.5055 0.02415 0.0
H425 H 0.13872 0.57066 0.97963 0.0
H426 H 0.15056 0.56049 0.0411 0.0
H427 H 0.13732 0.57301 0.07876 0.0
C428 C 0.58596 0.1036 0.05503 0.0
C429 C 0.60027 0.10997 0.99612 0.0
C430 C 0.56704 0.10307 0.04669 0.0
C431 C 0.56211 0.10875 0.97742 0.0
C432 C 0.57631 0.11491 0.91745 0.0
C433 C 0.59523 0.11564 0.9277 0.0
C434 C 0.55242 0.09663 0.11231 0.0
C435 C 0.57161 0.12098 0.84254 0.0
C436 C 0.50596 0.0917 0.9349 0.0
C437 C 0.5054 0.10983 0.94883 0.0
C438 C 0.52431 0.0911 0.94373 0.0
C439 C 0.54243 0.10897 0.9683 0.0
C440 C 0.54185 0.12723 0.98327 0.0
C441 C 0.52341 0.12747 0.97294 0.0
C442 C 0.52436 0.07142 0.92622 0.0
C443 C 0.5607 0.14651 1.01074 0.0
H444 H 0.58946 0.09888 0.10776 0.0
H445 H 0.60624 0.12099 0.88214 0.0
H446 H 0.5495 0.1093 0.12755 0.0
H447 H 0.53738 0.08312 0.0968 0.0
H448 H 0.55849 0.0926 0.16233 0.0
H449 H 0.58378 0.12435 0.80037 0.0
H450 H 0.55671 0.10845 0.82073 0.0
H451 H 0.57006 0.13486 0.8491 0.0
H452 H 0.49208 0.07805 0.91621 0.0
H453 H 0.52296 0.14141 0.98522 0.0
H454 H 0.5291 0.06611 0.9764 0.0
H455 H 0.53576 0.07427 0.88152 0.0
H456 H 0.50902 0.0589 0.90761 0.0
H457 H 0.56638 0.1432 0.06336 0.0
H458 H 0.55758 0.1593 0.0213 0.0
H459 H 0.57325 0.15171 0.96886 0.0
C460 C 0.41326 0.5072 0.07324 0.0
C461 C 0.4045 0.50021 1.0021 0.0
C462 C 0.43238 0.52533 0.08187 0.0
C463 C 0.44306 0.5369 0.01789 0.0
C464 C 0.43457 0.52971 0.94582 0.0
C465 C 0.41544 0.51148 0.93879 0.0
C466 C 0.44085 0.53244 0.15973 0.0
C467 C 0.44547 0.54155 0.87614 0.0
C468 C 0.48004 0.59436 0.04316 0.0
C469 C 0.49931 0.59551 0.04322 0.0
C470 C 0.4617 0.57543 0.035 0.0
C471 C 0.46254 0.55707 0.02668 0.0
C472 C 0.48191 0.55807 0.02692 0.0
C473 C 0.50006 0.57726 0.03499 0.0
C474 C 0.44139 0.57512 0.03465 0.0
C475 C 0.48347 0.53884 0.01867 0.0
H476 H 0.40485 0.49886 0.12267 0.0
H477 H 0.40896 0.5061 0.88355 0.0
H478 H 0.45683 0.53528 0.16347 0.0
H479 H 0.44145 0.54724 0.17221 0.0
H480 H 0.43136 0.52105 0.20331 0.0
H481 H 0.43732 0.53342 0.8241 0.0
H482 H 0.44667 0.55691 0.8771 0.0
H483 H 0.46138 0.54414 0.87442 0.0
H484 H 0.47929 0.60839 0.048 0.0
H485 H 0.51485 0.57796 0.0355 0.0
H486 H 0.43136 0.56501 0.08016 0.0
H487 H 0.43324 0.56862 0.98096 0.0
H488 H 0.44336 0.59072 0.04212 0.0
H489 H 0.47482 0.52788 0.0644 0.0
H490 H 0.49967 0.5422 0.01997 0.0
H491 H 0.47635 0.53103 0.96504 0.0
C492 C 0.89169 0.40785 0.96581 0.0
C493 C 0.90478 0.40308 1.00717 0.0
C494 C 0.89292 0.42713 0.97186 0.0
C495 C 0.90672 0.4418 0.02384 0.0
C496 C 0.91997 0.43729 0.06588 0.0
C497 C 0.91931 0.41836 0.05534 0.0
C498 C 0.8791 0.43161 0.92343 0.0
C499 C 0.93435 0.45215 0.12416 0.0
C500 C 0.91986 0.49785 1.00969 0.0
C501 C 0.90465 0.49817 0.05511 0.0
C502 C 0.92057 0.47964 0.99817 0.0
C503 C 0.90655 0.46143 0.03644 0.0
C504 C 0.89185 0.46176 0.08517 0.0
C505 C 0.89068 0.47982 0.09218 0.0
C506 C 0.93594 0.47976 0.94319 0.0
C507 C 0.87708 0.4429 0.1294 0.0
H508 H 0.87999 0.39645 0.92955 0.0
H509 H 0.93012 0.41562 0.0861 0.0
H510 H 0.86695 0.43175 0.95838 0.0
H511 H 0.88806 0.44704 0.89718 0.0
H512 H 0.8715 0.41994 0.87847 0.0
H513 H 0.9433 0.44614 0.15369 0.0
H514 H 0.9453 0.46707 0.09785 0.0
H515 H 0.92536 0.45529 0.16622 0.0
H516 H 0.93126 0.51176 0.98214 0.0
H517 H 0.87842 0.47921 0.12593 0.0
H518 H 0.92775 0.46788 0.89941 0.0
H519 H 0.94658 0.47579 0.97203 0.0
H520 H 0.9452 0.49495 0.91545 0.0
H521 H 0.86581 0.43094 0.09102 0.0
H522 H 0.86845 0.4464 0.17193 0.0
H523 H 0.88554 0.43626 0.15829 0.0
C524 C 0.43008 0.92219 0.1068 0.0
C525 C 0.41192 0.90409 0.08637 0.0
C526 C 0.44959 0.92412 0.09615 0.0
C527 C 0.45106 0.90744 0.06577 0.0
C528 C 0.43286 0.88912 0.04558 0.0
C529 C 0.41364 0.88778 0.05513 0.0
C530 C 0.46864 0.94404 0.11731 0.0
C531 C 0.43366 0.87083 1.0139 0.0
C532 C 0.50021 0.91428 0.97574 0.0
C533 C 0.50857 0.90818 0.03381 0.0
C534 C 0.48195 0.91497 0.98632 0.0
C535 C 0.47153 0.90886 0.05599 0.0
C536 C 0.48007 0.90289 0.11498 0.0
C537 C 0.49857 0.90283 0.1034 0.0
C538 C 0.47362 0.92186 0.92251 0.0
C539 C 0.46924 0.89577 0.18945 0.0
H540 H 0.42911 0.93485 0.13172 0.0
H541 H 0.39993 0.87391 0.03696 0.0
H542 H 0.47715 0.94119 0.16218 0.0
H543 H 0.47912 0.95029 0.06841 0.0
H544 H 0.46497 0.95589 0.13724 0.0
H545 H 0.41808 0.85746 1.00314 0.0
H546 H 0.44241 0.87516 0.96058 0.0
H547 H 0.44186 0.86596 0.05333 0.0
H548 H 0.50796 0.9185 0.92201 0.0
H549 H 0.50487 0.89784 0.14809 0.0
H550 H 0.47053 0.93413 0.94174 0.0
H551 H 0.45878 0.90876 0.90293 0.0
H552 H 0.48442 0.92777 0.87431 0.0
H553 H 0.46628 0.90768 0.21361 0.0
H554 H 0.47828 0.89236 0.23046 0.0
H555 H 0.45406 0.88164 0.18129 0.0
C556 C 0.60686 0.4847 1.00075 0.0
C557 C 0.60782 0.50222 0.96828 0.0
C558 C 0.5881 0.46617 1.0076 0.0
C559 C 0.56973 0.46505 0.98169 0.0
C560 C 0.57051 0.4827 0.94944 0.0
C561 C 0.58954 0.50108 0.94313 0.0
C562 C 0.58796 0.44775 0.0426 0.0
C563 C 0.55124 0.48211 0.92117 0.0
C564 C 0.52508 0.41157 0.93745 0.0
C565 C 0.51309 0.40687 1.0026 0.0
C566 C 0.54333 0.43057 0.92938 0.0
C567 C 0.5498 0.4453 0.98783 0.0
C568 C 0.53765 0.44076 0.05339 0.0
C569 C 0.51948 0.4216 0.06003 0.0
C570 C 0.55592 0.43474 0.85884 0.0
C571 C 0.54398 0.45606 0.11688 0.0
H572 H 0.62081 0.48553 0.0218 0.0
H573 H 0.59014 0.51447 0.91751 0.0
H574 H 0.57778 0.44257 0.09245 0.0
H575 H 0.58167 0.43473 1.0023 0.0
H576 H 0.60359 0.45116 0.05998 0.0
H577 H 0.55437 0.49724 0.8989 0.0
H578 H 0.54414 0.4704 0.87614 0.0
H579 H 0.53978 0.47745 0.96702 0.0
H580 H 0.52042 0.40018 0.89322 0.0
H581 H 0.51017 0.4182 0.11012 0.0
H582 H 0.57126 0.43682 0.87286 0.0
H583 H 0.55851 0.44924 0.83238 0.0
H584 H 0.54836 0.42204 0.81739 0.0
H585 H 0.55902 0.4592 0.13996 0.0
H586 H 0.53249 0.45047 0.16298 0.0
H587 H 0.54603 0.47092 0.09601 0.0
C588 C 0.24041 0.40279 0.02623 0.0
C589 C 0.25396 0.4187 0.97852 0.0
C590 C 0.22011 0.39888 0.03777 0.0
C591 C 0.21329 0.41117 1.00081 0.0
C592 C 0.22649 0.42616 0.94847 0.0
C593 C 0.24655 0.4297 0.93809 0.0
C594 C 0.20646 0.38251 0.09306 0.0
C595 C 0.22003 0.43963 0.90733 0.0
C596 C 0.15882 0.40334 0.99638 0.0
C597 C 0.16072 0.41818 0.04866 0.0
C598 C 0.17528 0.39958 0.98377 0.0
C599 C 0.19397 0.41095 0.02431 0.0
C600 C 0.19522 0.42474 0.08104 0.0
C601 C 0.17865 0.42815 0.09236 0.0
C602 C 0.17314 0.38449 0.92369 0.0
C603 C 0.21468 0.43718 0.12611 0.0
H604 H 0.24599 0.39419 0.05763 0.0
H605 H 0.2568 0.44182 0.9002 0.0
H606 H 0.20604 0.38993 0.14629 0.0
H607 H 0.19044 0.3736 0.07171 0.0
H608 H 0.21217 0.3717 0.10534 0.0
H609 H 0.23123 0.44909 0.86322 0.0
H610 H 0.20472 0.43009 0.88092 0.0
H611 H 0.21868 0.45017 0.94769 0.0
H612 H 0.14502 0.39556 0.96238 0.0
H613 H 0.18014 0.43943 0.13367 0.0
H614 H 0.18002 0.37512 0.94213 0.0
H615 H 0.18152 0.39307 0.8728 0.0
H616 H 0.15676 0.37401 0.90835 0.0
H617 H 0.22013 0.42704 0.14946 0.0
H618 H 0.21246 0.44563 0.173 0.0
H619 H 0.22701 0.44857 0.0891 0.0
C620 C 0.84227 0.23831 0.03798 0.0
C621 C 0.83872 0.25172 0.99379 0.0
C622 C 0.82633 0.21787 0.05165 0.0
C623 C 0.80641 0.2108 0.021 0.0
C624 C 0.80328 0.22393 0.97246 0.0
C625 C 0.81941 0.24404 0.95933 0.0
C626 C 0.83054 0.20428 0.10215 0.0
C627 C 0.78243 0.21727 0.93823 0.0
C628 C 0.75957 0.15661 0.01591 0.0
C629 C 0.74741 0.15821 0.07229 0.0
C630 C 0.77986 0.17289 1.00279 0.0
C631 C 0.78801 0.19113 0.04668 0.0
C632 C 0.77641 0.19179 0.10814 0.0
C633 C 0.75636 0.17537 0.12012 0.0
C634 C 0.79186 0.17123 0.93808 0.0
C635 C 0.78429 0.21073 0.15689 0.0
H636 H 0.85713 0.24403 0.06469 0.0
H637 H 0.81655 0.25412 0.92408 0.0
H638 H 0.8244 0.20405 0.15888 0.0
H639 H 0.82273 0.18819 0.08106 0.0
H640 H 0.84731 0.20997 0.10727 0.0
H641 H 0.7829 0.22874 0.89769 0.0
H642 H 0.77651 0.20231 0.90894 0.0
H643 H 0.77129 0.2151 0.98314 0.0
H644 H 0.75277 0.14344 0.97854 0.0
H645 H 0.74712 0.1766 0.16433 0.0
H646 H 0.80842 0.17823 0.95252 0.0
H647 H 0.79065 0.17973 0.8893 0.0
H648 H 0.78584 0.15494 0.92112 0.0
H649 H 0.80032 0.2161 0.17513 0.0
H650 H 0.77458 0.2079 0.2074 0.0
H651 H 0.78439 0.22338 0.12418 0.0
C652 C 0.57691 0.75299 0.10197 0.0
C653 C 0.58689 0.74486 0.05924 0.0
C654 C 0.58081 0.77316 0.09104 0.0
C655 C 0.59511 0.78574 0.03568 0.0
C656 C 0.60642 0.77819 0.99614 0.0
C657 C 0.60218 0.75779 1.00837 0.0
C658 C 0.5684 0.78041 0.13504 0.0
C659 C 0.62202 0.79114 0.93749 0.0
C660 C 0.57802 0.82085 0.94863 0.0
C661 C 0.58909 0.83905 0.99032 0.0
C662 C 0.58105 0.80399 0.95887 0.0
C663 C 0.59554 0.80519 1.01245 0.0
C664 C 0.60793 0.8241 0.05071 0.0
C665 C 0.60456 0.84085 0.03923 0.0
C666 C 0.56752 0.78432 0.91627 0.0
C667 C 0.62378 0.8262 0.10738 0.0
H668 H 0.56527 0.7432 0.14219 0.0
H669 H 0.60996 0.75163 0.97508 0.0
H670 H 0.57864 0.79586 0.15947 0.0
H671 H 0.55744 0.78179 0.09702 0.0
H672 H 0.55948 0.76965 0.18104 0.0
H673 H 0.63229 0.78495 0.92289 0.0
H674 H 0.61388 0.79138 0.88594 0.0
H675 H 0.63157 0.80729 0.95695 0.0
H676 H 0.56623 0.81942 0.9099 0.0
H677 H 0.61318 0.85485 0.07168 0.0
H678 H 0.55652 0.77242 0.9555 0.0
H679 H 0.57693 0.7783 0.89072 0.0
H680 H 0.55856 0.78654 0.8713 0.0
H681 H 0.61591 0.81823 0.15984 0.0
H682 H 0.63478 0.8426 0.12086 0.0
H683 H 0.63252 0.81884 0.08665 0.0
C684 C 0.76808 0.60789 0.02809 0.0
C685 C 0.75553 0.59242 0.97696 0.0
C686 C 0.78812 0.61169 0.04502 0.0
C687 C 0.79559 0.5996 1.01069 0.0
C688 C 0.78349 0.58511 0.95498 0.0
C689 C 0.76378 0.58184 0.93864 0.0
C690 C 0.80072 0.62774 0.10301 0.0
C691 C 0.79059 0.57175 0.91676 0.0
C692 C 0.84931 0.60578 0.02134 0.0
C693 C 0.84607 0.59068 0.07461 0.0
C694 C 0.83359 0.61032 1.00412 0.0
C695 C 0.81417 0.59931 0.04028 0.0
C696 C 0.81149 0.58522 0.09794 0.0
C697 C 0.82744 0.58123 0.11456 0.0
C698 C 0.83736 0.62593 0.94398 0.0
C699 C 0.79115 0.57301 0.13812 0.0
H700 H 0.76189 0.61622 0.05776 0.0
H701 H 0.75437 0.5701 0.89803 0.0
H702 H 0.79952 0.62008 0.15741 0.0
H703 H 0.81723 0.63629 0.08698 0.0
H704 H 0.79522 0.63889 0.11107 0.0
H705 H 0.78015 0.56245 0.87047 0.0
H706 H 0.80631 0.58135 0.89372 0.0
H707 H 0.79124 0.56106 0.95825 0.0
H708 H 0.86367 0.61328 0.99044 0.0
H709 H 0.82486 0.56979 0.15677 0.0
H710 H 0.83023 0.63533 0.95917 0.0
H711 H 0.83022 0.61781 0.89083 0.0
H712 H 0.85407 0.63635 0.93394 0.0
H713 H 0.78579 0.5834 0.15972 0.0
H714 H 0.7921 0.56399 0.18573 0.0
H715 H 0.77932 0.56215 0.09824 0.0
C716 C 0.19039 0.75819 0.9418 0.0
C717 C 0.17091 0.75115 0.97396 0.0
C718 C 0.20681 0.77813 0.9554 0.0
C719 C 0.20381 0.79167 1.00213 0.0
C720 C 0.18376 0.78526 0.03015 0.0
C721 C 0.16753 0.76502 0.01598 0.0
C722 C 0.22779 0.78409 0.92412 0.0
C723 C 0.17973 0.79933 0.07873 0.0
C724 C 0.25247 0.82609 0.11133 0.0
C725 C 0.26224 0.84374 0.06611 0.0
C726 C 0.23278 0.80971 0.09407 0.0
C727 C 0.22232 0.81091 0.02995 0.0
C728 C 0.23135 0.8294 0.98741 0.0
C729 C 0.25128 0.84561 1.00581 0.0
C730 C 0.22393 0.79044 0.14138 0.0
C731 C 0.22055 0.83156 0.91971 0.0
H732 H 0.19312 0.74773 0.90822 0.0
H733 H 0.15252 0.75978 0.04084 0.0
H734 H 0.23458 0.79924 0.89565 0.0
H735 H 0.23829 0.7856 0.97062 0.0
H736 H 0.22719 0.77255 0.88363 0.0
H737 H 0.16302 0.79399 0.08273 0.0
H738 H 0.18564 0.79973 0.13603 0.0
H739 H 0.18789 0.81531 0.05667 0.0
H740 H 0.26065 0.8246 0.15879 0.0
H741 H 0.25865 0.85921 0.97066 0.0
H742 H 0.22365 0.77775 0.10835 0.0
H743 H 0.20784 0.78548 0.15758 0.0
H744 H 0.23305 0.79265 0.1931 0.0
H745 H 0.22206 0.82286 0.87219 0.0
H746 H 0.22726 0.84792 0.9025 0.0
H747 H 0.20387 0.82503 0.9309 0.0
C748 C 0.43215 0.191 0.96168 0.0
C749 C 0.41959 0.17073 0.98724 0.0
C750 C 0.42766 0.20663 0.97793 0.0
C751 C 0.40995 0.20205 0.02057 0.0
C752 C 0.39658 0.18141 0.04372 0.0
C753 C 0.40161 0.16598 0.02713 0.0
C754 C 0.4425 0.22833 0.95202 0.0
C755 C 0.37737 0.17577 0.08811 0.0
C756 C 0.42068 0.25041 0.12357 0.0
C757 C 0.41368 0.25967 0.07211 0.0
C758 C 0.4175 0.23051 0.11168 0.0
C759 C 0.40712 0.21953 0.04625 0.0
C760 C 0.39803 0.2279 0.99833 0.0
C761 C 0.40144 0.24796 1.01177 0.0
C762 C 0.42737 0.22233 0.16485 0.0
C763 C 0.38646 0.21659 0.92886 0.0
H764 H 0.44597 0.19493 0.9301 0.0
H765 H 0.39174 0.15036 0.04678 0.0
H766 H 0.43421 0.23453 0.91947 0.0
H767 H 0.44954 0.23851 1.00132 0.0
H768 H 0.45507 0.22915 0.9166 0.0
H769 H 0.36674 0.15884 0.08951 0.0
H770 H 0.38166 0.18133 0.14652 0.0
H771 H 0.36911 0.18328 0.06428 0.0
H772 H 0.43004 0.25938 0.17061 0.0
H773 H 0.39609 0.25506 0.97152 0.0
H774 H 0.44134 0.22359 0.1383 0.0
H775 H 0.41674 0.20583 0.17735 0.0
H776 H 0.43199 0.23105 0.21842 0.0
H777 H 0.39764 0.21858 0.88434 0.0
H778 H 0.37655 0.22259 0.90751 0.0
H779 H 0.37675 0.19984 0.93991 0.0
C780 C 0.13007 0.43433 0.36743 0.0
C781 C 0.11009 0.42028 0.34224 0.0
C782 C 0.13484 0.43704 0.4446 0.0
C783 C 0.11924 0.42568 0.49818 0.0
C784 C 0.09936 0.41083 0.47299 0.0
C785 C 0.09514 0.40814 0.39581 0.0
C786 C 0.15637 0.45273 0.46884 0.0
C787 C 0.08213 0.39849 0.52764 0.0
C788 C 0.13062 0.4239 0.70664 0.0
C789 C 0.12746 0.43946 0.73598 0.0
C790 C 0.12867 0.41962 0.62903 0.0
C791 C 0.1229 0.43079 0.58003 0.0
C792 C 0.11951 0.44636 0.60991 0.0
C793 C 0.12201 0.4506 0.68702 0.0
C794 C 0.13285 0.40321 0.5994 0.0
C795 C 0.11281 0.45832 0.56061 0.0
H796 H 0.14183 0.44379 0.32722 0.0
H797 H 0.07983 0.39677 0.37763 0.0
H798 H 0.15629 0.46625 0.49379 0.0
H799 H 0.16195 0.44616 0.51248 0.0
H800 H 0.16738 0.45814 0.42124 0.0
H801 H 0.06792 0.38661 0.49931 0.0
H802 H 0.08697 0.39077 0.56923 0.0
H803 H 0.07839 0.409 0.55899 0.0
H804 H 0.13496 0.41538 0.74426 0.0
H805 H 0.11925 0.46242 0.70956 0.0
H806 H 0.1447 0.40972 0.55471 0.0
H807 H 0.11866 0.39053 0.57387 0.0
H808 H 0.13821 0.39666 0.64396 0.0
H809 H 0.1243 0.46631 0.51566 0.0
H810 H 0.11088 0.46998 0.5925 0.0
H811 H 0.09795 0.4476 0.53309 0.0
C812 C 0.66803 0.09904 0.39457 0.0
C813 C 0.68388 0.10918 0.34183 0.0
C814 C 0.67148 0.10328 0.47147 0.0
C815 C 0.6913 0.11816 0.49709 0.0
C816 C 0.70743 0.12853 0.44439 0.0
C817 C 0.70352 0.12396 0.36741 0.0
C818 C 0.65375 0.09199 0.5253 0.0
C819 C 0.72877 0.14453 0.46935 0.0
C820 C 0.69223 0.14235 0.68552 0.0
C821 C 0.69731 0.13105 0.73538 0.0
C822 C 0.69093 0.13878 0.60796 0.0
C823 C 0.69469 0.12341 0.5787 0.0
C824 C 0.70017 0.11216 0.62827 0.0
C825 C 0.70139 0.11608 0.70591 0.0
C826 C 0.68487 0.15105 0.55751 0.0
C827 C 0.70432 0.09565 0.59939 0.0
H828 H 0.65269 0.08791 0.37566 0.0
H829 H 0.7159 0.13176 0.32736 0.0
H830 H 0.65783 0.08404 0.56864 0.0
H831 H 0.65056 0.10316 0.55464 0.0
H832 H 0.63943 0.0804 0.4967 0.0
H833 H 0.73977 0.15084 0.42181 0.0
H834 H 0.72822 0.15742 0.49767 0.0
H835 H 0.73472 0.13772 0.51068 0.0
H836 H 0.68863 0.15367 0.70711 0.0
H837 H 0.70553 0.10741 0.74352 0.0
H838 H 0.66971 0.14064 0.53132 0.0
H839 H 0.69622 0.15825 0.51156 0.0
H840 H 0.68378 0.16336 0.58828 0.0
H841 H 0.69007 0.08295 0.57421 0.0
H842 H 0.70963 0.08916 0.64433 0.0
H843 H 0.71616 0.10198 0.55466 0.0
C844 C 0.57117 0.67114 0.39987 0.0
C845 C 0.5791 0.6878 0.34994 0.0
C846 C 0.56914 0.67383 0.47662 0.0
C847 C 0.57558 0.6938 0.50504 0.0
C848 C 0.58354 0.71074 0.4548 0.0
C849 C 0.58498 0.70749 0.37762 0.0
C850 C 0.56007 0.65521 0.52732 0.0
C851 C 0.59088 0.73231 0.48281 0.0
C852 C 0.5518 0.69402 0.69317 0.0
C853 C 0.56645 0.69477 0.74424 0.0
C854 C 0.55498 0.69469 0.61537 0.0
C855 C 0.57349 0.69657 0.58716 0.0
C856 C 0.58898 0.69883 0.63826 0.0
C857 C 0.58525 0.69779 0.71603 0.0
C858 C 0.53794 0.69208 0.5634 0.0
C859 C 0.6091 0.70125 0.61077 0.0
H860 H 0.56637 0.65586 0.37848 0.0
H861 H 0.59127 0.7204 0.3392 0.0
H862 H 0.57147 0.65706 0.57072 0.0
H863 H 0.54638 0.65377 0.55676 0.0
H864 H 0.55539 0.64068 0.49617 0.0
H865 H 0.59656 0.7438 0.43673 0.0
H866 H 0.57822 0.733 0.51232 0.0
H867 H 0.60351 0.73671 0.52393 0.0
H868 H 0.53744 0.69226 0.7139 0.0
H869 H 0.59672 0.69838 0.7544 0.0
H870 H 0.53142 0.67701 0.53426 0.0
H871 H 0.54404 0.70423 0.51978 0.0
H872 H 0.52529 0.69265 0.5937 0.0
H873 H 0.60636 0.68651 0.58594 0.0
H874 H 0.62057 0.70558 0.65663 0.0
H875 H 0.61573 0.71314 0.56626 0.0
C876 C 0.91208 0.58775 0.4181 0.0
C877 C 0.89551 0.58127 0.36833 0.0
C878 C 0.90884 0.58422 0.49542 0.0
C879 C 0.88851 0.57443 0.52409 0.0
C880 C 0.87168 0.56795 0.474 0.0
C881 C 0.87538 0.57121 0.39651 0.0
C882 C 0.92719 0.59084 0.54634 0.0
C883 C 0.84982 0.55785 0.50238 0.0
C884 C 0.87826 0.54865 0.71518 0.0
C885 C 0.87901 0.56394 0.76252 0.0
C886 C 0.88142 0.55189 0.63769 0.0
C887 C 0.88493 0.57073 0.60635 0.0
C888 C 0.88551 0.58618 0.65393 0.0
C889 C 0.88283 0.5827 0.73164 0.0
C890 C 0.88129 0.53526 0.58952 0.0
C891 C 0.88878 0.60631 0.62264 0.0
H892 H 0.92763 0.59536 0.39608 0.0
H893 H 0.8626 0.5664 0.35805 0.0
H894 H 0.928 0.60229 0.58761 0.0
H895 H 0.92549 0.5774 0.57839 0.0
H896 H 0.94194 0.59776 0.51492 0.0
H897 H 0.83851 0.55424 0.45645 0.0
H898 H 0.8459 0.54336 0.53213 0.0
H899 H 0.84824 0.56813 0.5433 0.0
H900 H 0.87554 0.53423 0.73923 0.0
H901 H 0.88322 0.59443 0.76824 0.0
H902 H 0.89619 0.54144 0.5596 0.0
H903 H 0.86904 0.53015 0.54638 0.0
H904 H 0.87868 0.52163 0.62275 0.0
H905 H 0.90402 0.61472 0.5948 0.0
H906 H 0.88803 0.61639 0.66666 0.0
H907 H 0.87694 0.60329 0.5795 0.0
C908 C 0.33832 0.87903 0.71541 0.0
C909 C 0.32309 0.87811 0.76362 0.0
C910 C 0.33773 0.88204 0.638 0.0
C911 C 0.32129 0.88385 0.6073 0.0
C912 C 0.30577 0.88283 0.65562 0.0
C913 C 0.30698 0.88021 0.73333 0.0
C914 C 0.35488 0.88355 0.5892 0.0
C915 C 0.28782 0.88436 0.62511 0.0
C916 C 0.32958 0.91082 0.41895 0.0
C917 C 0.32066 0.89419 0.36879 0.0
C918 C 0.32996 0.90768 0.49641 0.0
C919 C 0.32073 0.88734 0.52495 0.0
C920 C 0.31158 0.87045 0.47448 0.0
C921 C 0.31189 0.87409 0.39691 0.0
C922 C 0.34042 0.92615 0.54763 0.0
C923 C 0.30125 0.84854 0.50253 0.0
H924 H 0.35098 0.87776 0.73866 0.0
H925 H 0.29513 0.87937 0.77029 0.0
H926 H 0.34851 0.87135 0.54567 0.0
H927 H 0.36257 0.8986 0.55977 0.0
H928 H 0.36665 0.882 0.62184 0.0
H929 H 0.27667 0.88258 0.66953 0.0
H930 H 0.29345 0.8995 0.59752 0.0
H931 H 0.27963 0.87231 0.58191 0.0
H932 H 0.33652 0.92637 0.3972 0.0
H933 H 0.30476 0.86123 0.3583 0.0
H934 H 0.35291 0.9257 0.57939 0.0
H935 H 0.32924 0.92578 0.58914 0.0
H936 H 0.34712 0.94094 0.51649 0.0
H937 H 0.31261 0.84572 0.53214 0.0
H938 H 0.29423 0.83713 0.45645 0.0
H939 H 0.28905 0.84594 0.5435 0.0
C940 C 0.44229 0.33766 0.39204 0.0
C941 C 0.42892 0.32194 0.34341 0.0
C942 C 0.44288 0.33397 0.46883 0.0
C943 C 0.42934 0.31416 0.49844 0.0
C944 C 0.41575 0.29818 0.44944 0.0
C945 C 0.41592 0.3022 0.3722 0.0
C946 C 0.45806 0.35131 0.51825 0.0
C947 C 0.40075 0.277 0.47886 0.0
C948 C 0.44504 0.30209 0.68605 0.0
C949 C 0.43474 0.30801 0.73762 0.0
C950 C 0.44298 0.30346 0.60834 0.0
C951 C 0.42978 0.31033 0.58053 0.0
C952 C 0.41834 0.31513 0.63174 0.0
C953 C 0.42108 0.31411 0.70941 0.0
C954 C 0.45571 0.29844 0.55605 0.0
C955 C 0.40373 0.32207 0.60447 0.0
H956 H 0.45244 0.35287 0.3695 0.0
H957 H 0.40545 0.29014 0.33455 0.0
H958 H 0.4497 0.35487 0.56159 0.0
H959 H 0.46805 0.34658 0.54781 0.0
H960 H 0.46801 0.36558 0.48605 0.0
H961 H 0.39118 0.26629 0.43363 0.0
H962 H 0.40915 0.27033 0.50785 0.0
H963 H 0.39041 0.27812 0.52073 0.0
H964 H 0.45516 0.29674 0.706 0.0
H965 H 0.41292 0.31869 0.74763 0.0
H966 H 0.46682 0.31256 0.52541 0.0
H967 H 0.44571 0.28696 0.51363 0.0
H968 H 0.46445 0.2923 0.58621 0.0
H969 H 0.41261 0.33756 0.57869 0.0
H970 H 0.3942 0.32288 0.65054 0.0
H971 H 0.39335 0.31141 0.5607 0.0
C972 C 0.55659 0.85672 0.36167 0.0
C973 C 0.57152 0.87021 0.31049 0.0
C974 C 0.5597 0.85943 0.43948 0.0
C975 C 0.57842 0.8758 0.46765 0.0
C976 C 0.59415 0.88857 0.41654 0.0
C977 C 0.59049 0.88571 0.33875 0.0
C978 C 0.5424 0.84549 0.49143 0.0
C979 C 0.6145 0.90597 0.44398 0.0
C980 C 0.57672 0.89978 0.65384 0.0
C981 C 0.58408 0.89068 0.70458 0.0
C982 C 0.57471 0.89493 0.57717 0.0
C983 C 0.58057 0.88087 0.54964 0.0
C984 C 0.58799 0.87156 0.60064 0.0
C985 C 0.58943 0.87639 0.67769 0.0
C986 C 0.56621 0.90486 0.52561 0.0
C987 C 0.59474 0.85678 0.57362 0.0
H988 H 0.54208 0.84433 0.34098 0.0
H989 H 0.60218 0.89627 0.30033 0.0
H990 H 0.54811 0.83922 0.53566 0.0
H991 H 0.53629 0.85451 0.5198 0.0
H992 H 0.52952 0.83242 0.46127 0.0
H993 H 0.62605 0.9127 0.39828 0.0
H994 H 0.61219 0.91833 0.46795 0.0
H995 H 0.62078 0.90052 0.48914 0.0
H996 H 0.57232 0.91062 0.67454 0.0
H997 H 0.59528 0.86947 0.71669 0.0
H998 H 0.55235 0.89281 0.49623 0.0
H999 H 0.57777 0.91405 0.48219 0.0
H1000 H 0.56197 0.91514 0.55606 0.0
H1001 H 0.58182 0.84352 0.54457 0.0
H1002 H 0.60015 0.85084 0.62016 0.0
H1003 H 0.60739 0.86459 0.53233 0.0
C1004 C 0.69617 0.59955 0.62416 0.0
C1005 C 0.70051 0.58856 0.67829 0.0
C1006 C 0.69745 0.59663 0.54703 0.0
C1007 C 0.70388 0.58282 0.52211 0.0
C1008 C 0.70942 0.57252 0.57582 0.0
C1009 C 0.7075 0.57533 0.65299 0.0
C1010 C 0.69105 0.60774 0.49214 0.0
C1011 C 0.71683 0.55802 0.55172 0.0
C1012 C 0.68393 0.55742 0.33211 0.0
C1013 C 0.70034 0.56979 0.28421 0.0
C1014 C 0.68497 0.56145 0.40929 0.0
C1015 C 0.70312 0.57802 0.44022 0.0
C1016 C 0.71992 0.59043 0.39219 0.0
C1017 C 0.71821 0.58636 0.31449 0.0
C1018 C 0.66643 0.54818 0.45752 0.0
C1019 C 0.73972 0.60792 0.42297 0.0
H1020 H 0.69139 0.61033 0.64144 0.0
H1021 H 0.71109 0.56678 0.69308 0.0
H1022 H 0.70359 0.61658 0.45144 0.0
H1023 H 0.67745 0.59633 0.45976 0.0
H1024 H 0.68705 0.6185 0.5203 0.0
H1025 H 0.72286 0.55311 0.5995 0.0
H1026 H 0.70394 0.54409 0.52567 0.0
H1027 H 0.72913 0.56546 0.50892 0.0
H1028 H 0.67003 0.54473 0.30859 0.0
H1029 H 0.73096 0.59581 0.27754 0.0
H1030 H 0.66102 0.55789 0.48509 0.0
H1031 H 0.67066 0.54077 0.50246 0.0
H1032 H 0.65346 0.53594 0.42478 0.0
H1033 H 0.73681 0.61972 0.44846 0.0
H1034 H 0.75171 0.61541 0.37906 0.0
H1035 H 0.74576 0.60216 0.46789 0.0
C1036 C 0.12454 0.70678 0.31628 0.0
C1037 C 0.14025 0.70367 0.28789 0.0
C1038 C 0.12188 0.70776 0.39411 0.0
C1039 C 0.13512 0.70545 0.44501 0.0
C1040 C 0.15179 0.70367 0.41651 0.0
C1041 C 0.15421 0.70296 0.33867 0.0
C1042 C 0.10409 0.70999 0.42185 0.0
C1043 C 0.16629 0.7011 0.46819 0.0
C1044 C 0.13389 0.71517 0.65548 0.0
C1045 C 0.12025 0.69526 0.68172 0.0
C1046 C 0.13875 0.71888 0.57853 0.0
C1047 C 0.13008 0.70222 0.52695 0.0
C1048 C 0.11669 0.68204 0.55384 0.0
C1049 C 0.11187 0.67887 0.63042 0.0
C1050 C 0.15287 0.74064 0.55221 0.0
C1051 C 0.10742 0.6637 0.50166 0.0
H1052 H 0.11363 0.70733 0.27796 0.0
H1053 H 0.16669 0.70105 0.31754 0.0
H1054 H 0.09206 0.69511 0.44558 0.0
H1055 H 0.10921 0.72166 0.46723 0.0
H1056 H 0.09704 0.71452 0.37633 0.0
H1057 H 0.17972 0.70215 0.43786 0.0
H1058 H 0.17202 0.71297 0.51292 0.0
H1059 H 0.15791 0.68583 0.4959 0.0
H1060 H 0.14026 0.72788 0.69486 0.0
H1061 H 0.10157 0.66341 0.65053 0.0
H1062 H 0.14463 0.74514 0.51154 0.0
H1063 H 0.16634 0.74163 0.52265 0.0
H1064 H 0.15848 0.75188 0.59919 0.0
H1065 H 0.09798 0.66572 0.45825 0.0
H1066 H 0.09753 0.64899 0.53159 0.0
H1067 H 0.11983 0.66252 0.47231 0.0
C1068 C 0.42602 0.1092 0.29723 0.0
C1069 C 0.44109 0.12818 0.26801 0.0
C1070 C 0.42187 0.10668 0.37459 0.0
C1071 C 0.43293 0.1236 0.42367 0.0
C1072 C 0.44803 0.14282 0.3943 0.0
C1073 C 0.45192 0.14486 0.31706 0.0
C1074 C 0.4057 0.08593 0.40386 0.0
C1075 C 0.46001 0.16133 0.44443 0.0
C1076 C 0.41009 0.12487 0.61225 0.0
C1077 C 0.4214 0.11978 0.66181 0.0
C1078 C 0.41344 0.1258 0.53466 0.0
C1079 C 0.42845 0.1215 0.50558 0.0
C1080 C 0.43983 0.1162 0.55515 0.0
C1081 C 0.43621 0.11546 0.63268 0.0
C1082 C 0.40114 0.13175 0.48392 0.0
C1083 C 0.45592 0.11145 0.52629 0.0
H1084 H 0.41774 0.09624 0.25972 0.0
H1085 H 0.46332 0.15968 0.29486 0.0
H1086 H 0.41261 0.0803 0.44603 0.0
H1087 H 0.39332 0.08733 0.4324 0.0
H1088 H 0.39868 0.07425 0.3586 0.0
H1089 H 0.47139 0.17513 0.41284 0.0
H1090 H 0.44928 0.16512 0.47372 0.0
H1091 H 0.46832 0.15777 0.48802 0.0
H1092 H 0.39884 0.12851 0.63429 0.0
H1093 H 0.4448 0.11125 0.67047 0.0
H1094 H 0.39305 0.11972 0.44063 0.0
H1095 H 0.41165 0.1463 0.45427 0.0
H1096 H 0.38956 0.13394 0.51513 0.0
H1097 H 0.449 0.09885 0.48432 0.0
H1098 H 0.46289 0.10683 0.57181 0.0
H1099 H 0.46836 0.12518 0.49768 0.0
C1100 C 0.2908 0.41936 0.66256 0.0
C1101 C 0.3103 0.42432 0.68965 0.0
C1102 C 0.28754 0.42094 0.58548 0.0
C1103 C 0.3043 0.4281 0.53466 0.0
C1104 C 0.3241 0.43359 0.56243 0.0
C1105 C 0.32679 0.43145 0.63911 0.0
C1106 C 0.26614 0.41461 0.55821 0.0
C1107 C 0.34255 0.44178 0.51111 0.0
C1108 C 0.29933 0.41828 0.32362 0.0
C1109 C 0.30332 0.43744 0.29554 0.0
C1110 C 0.2983 0.41454 0.40139 0.0
C1111 C 0.30154 0.43037 0.45264 0.0
C1112 C 0.30438 0.44928 0.42458 0.0
C1113 C 0.30503 0.45248 0.34679 0.0
C1114 C 0.29486 0.39401 0.42869 0.0
C1115 C 0.30804 0.46668 0.47666 0.0
H1116 H 0.27801 0.41368 0.70139 0.0
H1117 H 0.34194 0.43556 0.65996 0.0
H1118 H 0.26613 0.42767 0.52909 0.0
H1119 H 0.26108 0.40191 0.51693 0.0
H1120 H 0.25477 0.40941 0.60463 0.0
H1121 H 0.35697 0.44573 0.54172 0.0
H1122 H 0.33997 0.43016 0.46758 0.0
H1123 H 0.3447 0.45578 0.48185 0.0
H1124 H 0.298 0.40652 0.28509 0.0
H1125 H 0.30758 0.46715 0.32614 0.0
H1126 H 0.28307 0.38791 0.47365 0.0
H1127 H 0.30937 0.39598 0.45286 0.0
H1128 H 0.28985 0.38245 0.38286 0.0
H1129 H 0.29603 0.46114 0.52075 0.0
H1130 H 0.30813 0.4797 0.44656 0.0
H1131 H 0.3231 0.47253 0.50519 0.0
C1132 C 0.87497 0.28934 0.67305 0.0
C1133 C 0.8891 0.30888 0.70123 0.0
C1134 C 0.87021 0.28634 0.59585 0.0
C1135 C 0.87943 0.30338 0.54606 0.0
C1136 C 0.8933 0.3232 0.57498 0.0
C1137 C 0.89809 0.32563 0.65173 0.0
C1138 C 0.85564 0.26491 0.56734 0.0
C1139 C 0.90312 0.34192 0.52481 0.0
C1140 C 0.88451 0.29909 0.33469 0.0
C1141 C 0.86873 0.30219 0.30674 0.0
C1142 C 0.88744 0.29825 0.4124 0.0
C1143 C 0.8745 0.30083 0.4639 0.0
C1144 C 0.85799 0.30298 0.43612 0.0
C1145 C 0.85518 0.30339 0.35835 0.0
C1146 C 0.90502 0.29553 0.43938 0.0
C1147 C 0.84389 0.30598 0.48853 0.0
H1148 H 0.86813 0.27636 0.7111 0.0
H1149 H 0.90883 0.34079 0.67347 0.0
H1150 H 0.84236 0.26457 0.53855 0.0
H1151 H 0.86362 0.26042 0.5255 0.0
H1152 H 0.84974 0.25331 0.61304 0.0
H1153 H 0.91317 0.35631 0.55632 0.0
H1154 H 0.9125 0.33995 0.48109 0.0
H1155 H 0.89101 0.34368 0.49574 0.0
H1156 H 0.89515 0.29816 0.29615 0.0
H1157 H 0.84259 0.30522 0.33815 0.0
H1158 H 0.89964 0.28355 0.48361 0.0
H1159 H 0.91714 0.31016 0.46446 0.0
H1160 H 0.91201 0.29114 0.39325 0.0
H1161 H 0.83756 0.29372 0.53174 0.0
H1162 H 0.83087 0.3059 0.45856 0.0
H1163 H 0.85279 0.32093 0.51817 0.0
C1164 C 0.04729 0.37221 0.0226 0.0
C1165 C 0.05279 0.38711 0.96635 0.0
C1166 C 0.02649 0.35916 0.0424 0.0
C1167 C 0.01089 0.36164 1.00731 0.0
C1168 C 0.0164 0.37652 0.94984 0.0
C1169 C 0.03719 0.38878 0.92926 0.0
C1170 C 0.02127 0.34304 0.10207 0.0
C1171 C 1.00048 0.38028 0.91267 0.0
C1172 C 0.95327 0.32256 0.01717 0.0
C1173 C 0.94694 0.33047 0.07614 0.0
C1174 C 0.97421 0.33182 0.99679 0.0
C1175 C 0.98905 0.34993 0.03419 0.0
C1176 C 0.98269 0.3578 0.09435 0.0
C1177 C 0.96184 0.34778 0.11535 0.0
C1178 C 0.98038 0.3225 0.93412 0.0
C1179 C 0.99774 0.37744 0.13416 0.0
H1180 H 0.05929 0.37086 0.05147 0.0
H1181 H 0.04131 0.40047 0.88652 0.0
H1182 H 0.01607 0.34741 0.15349 0.0
H1183 H 0.00842 0.32794 0.08309 0.0
H1184 H 0.03468 0.34122 0.11666 0.0
H1185 H 0.0072 0.39215 0.86798 0.0
H1186 H 0.98807 0.36581 0.88777 0.0
H1187 H 0.99322 0.38544 0.95517 0.0
H1188 H 0.94182 0.3092 0.98665 0.0
H1189 H 0.95704 0.35419 0.16022 0.0
H1190 H 0.99385 0.32108 0.95114 0.0
H1191 H 0.98503 0.33272 0.88441 0.0
H1192 H 0.96762 0.30706 0.91753 0.0
H1193 H 0.01074 0.37609 0.15729 0.0
H1194 H 0.99043 0.38134 0.18061 0.0
H1195 H 0.00432 0.39042 0.09369 0.0
C1196 C 0.63592 0.954 1.00917 0.0
C1197 C 0.62486 0.94796 0.07667 0.0
C1198 C 0.64717 0.97493 0.98817 0.0
C1199 C 0.64668 0.9901 0.0343 0.0
C1200 C 0.63633 0.98412 0.10412 0.0
C1201 C 0.62587 0.96324 0.12486 0.0
C1202 C 0.65867 0.98058 0.9148 0.0
C1203 C 0.63488 0.99954 0.15454 0.0
C1204 C 0.67734 0.04872 1.01522 0.0
C1205 C 0.6628 0.0524 0.97962 0.0
C1206 C 0.6732 0.02836 0.02763 0.0
C1207 C 0.65392 0.01143 1.00562 0.0
C1208 C 0.64005 0.0152 0.96417 0.0
C1209 C 0.64483 0.03554 0.95071 0.0
C1210 C 0.68889 0.02503 0.06851 0.0
C1211 C 0.61924 0.99782 0.93989 0.0
H1212 H 0.63538 0.94232 0.97187 0.0
H1213 H 0.61732 0.95877 0.17697 0.0
H1214 H 0.64894 0.98185 0.8707 0.0
H1215 H 0.67313 0.99567 0.91884 0.0
H1216 H 0.66247 0.96868 0.89682 0.0
H1217 H 0.62723 0.99265 0.20866 0.0
H1218 H 0.65043 0.01273 0.16636 0.0
H1219 H 0.62596 0.00572 0.12591 0.0
H1220 H 0.69131 0.0616 0.03753 0.0
H1221 H 0.63364 0.03821 0.92192 0.0
H1222 H 0.68955 0.01168 0.04474 0.0
H1223 H 0.68443 0.02163 0.12825 0.0
H1224 H 0.70449 0.0389 0.06587 0.0
H1225 H 0.62099 0.98619 0.9074 0.0
H1226 H 0.61065 0.00329 0.90505 0.0
H1227 H 0.60982 0.98997 0.99006 0.0
C1228 C 0.68144 0.63214 0.02362 0.0
C1229 C 0.67096 0.61436 0.0679 0.0
C1230 C 0.67289 0.6448 1.00894 0.0
C1231 C 0.65313 0.63928 0.03745 0.0
C1232 C 0.64287 0.6218 0.08444 0.0
C1233 C 0.65201 0.60977 0.09984 0.0
C1234 C 0.68465 0.66364 0.96049 0.0
C1235 C 0.62162 0.615 0.11483 0.0
C1236 C 0.62997 0.67457 0.03917 0.0
C1237 C 0.61752 0.668 0.97486 0.0
C1238 C 0.64256 0.66623 0.05817 0.0
C1239 C 0.64225 0.65049 1.01307 0.0
C1240 C 0.63009 0.6442 0.94712 0.0
C1241 C 0.61814 0.65321 0.92837 0.0
C1242 C 0.65572 0.67382 0.1277 0.0
C1243 C 0.62884 0.62715 0.89823 0.0
H1244 H 0.6961 0.63587 0.99883 0.0
H1245 H 0.64365 0.59603 0.13372 0.0
H1246 H 0.67712 0.6609 0.9049 0.0
H1247 H 0.68454 0.6771 0.98595 0.0
H1248 H 0.70088 0.66752 0.95197 0.0
H1249 H 0.61612 0.60165 0.15341 0.0
H1250 H 0.62148 0.62784 0.14517 0.0
H1251 H 0.61053 0.61059 0.06771 0.0
H1252 H 0.62965 0.68605 0.07524 0.0
H1253 H 0.60846 0.64787 0.87892 0.0
H1254 H 0.67164 0.67728 0.11526 0.0
H1255 H 0.64942 0.66164 0.17119 0.0
H1256 H 0.65635 0.68787 0.15109 0.0
H1257 H 0.64446 0.63081 0.8802 0.0
H1258 H 0.61922 0.62451 0.84757 0.0
H1259 H 0.62215 0.61259 0.93074 0.0
C1260 C 0.05437 0.67695 0.98398 0.0
C1261 C 0.06206 0.67845 0.05692 0.0
C1262 C 0.03301 0.66626 0.96958 0.0
C1263 C 0.01897 0.65698 0.02956 0.0
C1264 C 0.02663 0.65998 0.10383 0.0
C1265 C 0.04799 0.67066 0.11654 0.0
C1266 C 0.02557 0.66379 0.88971 0.0
C1267 C 0.0123 0.65058 0.16979 0.0
C1268 C 0.96038 0.63208 0.02174 0.0
C1269 C 0.95459 0.61117 0.02218 0.0
C1270 C 0.98139 0.64746 0.01829 0.0
C1271 C 0.99676 0.64168 1.01521 0.0
C1272 C 0.99068 0.62056 1.00885 0.0
C1273 C 0.96974 0.60563 1.01272 0.0
C1274 C 0.98712 0.66978 0.02415 0.0
C1275 C 0.00637 0.61355 1.0047 0.0
H1276 H 0.06502 0.68345 0.93765 0.0
H1277 H 0.05362 0.67194 0.17332 0.0
H1278 H 0.02045 0.64786 0.87049 0.0
H1279 H 0.01216 0.66619 0.88552 0.0
H1280 H 0.03786 0.67469 0.85134 0.0
H1281 H 0.02044 0.65612 0.2242 0.0
H1282 H 0.99967 0.6542 0.16733 0.0
H1283 H 0.00517 0.63356 0.1678 0.0
H1284 H 0.94872 0.6364 0.02999 0.0
H1285 H 0.96526 0.58944 1.0131 0.0
H1286 H 1.00025 0.67955 0.98676 0.0
H1287 H 0.99198 0.6752 0.0824 0.0
H1288 H 0.97393 0.67199 1.00989 0.0
H1289 H 0.01811 0.62236 0.96136 0.0
H1290 H 0.99917 0.59685 0.99172 0.0
H1291 H 0.01449 0.61649 0.05923 0.0
C1292 C 0.33569 0.95685 0.02218 0.0
C1293 C 0.34735 0.95017 0.98173 0.0
C1294 C 0.34187 0.97796 0.02713 0.0
C1295 C 0.36021 0.99278 0.99124 0.0
C1296 C 0.37196 0.98608 0.95017 0.0
C1297 C 0.36534 0.96497 0.94555 0.0
C1298 C 0.32876 0.98441 0.07054 0.0
C1299 C 0.39167 1.00126 0.91109 0.0
C1300 C 0.37229 0.04555 0.92384 0.0
C1301 C 0.38771 0.05856 0.97411 0.0
C1302 C 0.3617 0.02407 0.93299 0.0
C1303 C 0.36701 0.01529 0.99309 0.0
C1304 C 0.38137 0.02847 0.04762 0.0
C1305 C 0.3915 0.05003 0.03771 0.0
C1306 C 0.34628 0.01077 0.87416 0.0
C1307 C 0.38755 0.01984 0.11247 0.0
H1308 H 0.32172 0.94559 0.04998 0.0
H1309 H 0.37461 0.96012 0.91454 0.0
H1310 H 0.33804 0.99542 0.11538 0.0
H1311 H 0.32335 0.99251 0.0329 0.0
H1312 H 0.31513 0.97108 0.09637 0.0
H1313 H 0.3994 0.99363 0.88365 0.0
H1314 H 0.38835 0.00983 0.86782 0.0
H1315 H 0.40253 0.01273 0.95189 0.0
H1316 H 0.36943 0.05214 0.87435 0.0
H1317 H 0.40363 0.06004 0.07607 0.0
H1318 H 0.33248 0.9978 0.90043 0.0
H1319 H 0.35332 0.00407 0.83719 0.0
H1320 H 0.34132 0.01972 0.83888 0.0
H1321 H 0.37385 0.00662 0.13819 0.0
H1322 H 0.39599 0.03166 0.15625 0.0
H1323 H 0.39773 0.0141 0.0918 0.0
C1324 C 0.32309 0.37308 0.99919 0.0
C1325 C 0.32768 0.38421 0.06655 0.0
C1326 C 0.33269 0.3616 0.98057 0.0
C1327 C 0.34775 0.36182 0.02923 0.0
C1328 C 0.35153 0.37208 0.09913 0.0
C1329 C 0.34125 0.38285 0.11728 0.0
C1330 C 0.32752 0.35022 0.90691 0.0
C1331 C 0.3677 0.37316 0.15238 0.0
C1332 C 0.37548 0.33086 1.01557 0.0
C1333 C 0.39415 0.34549 0.98286 0.0
C1334 C 0.35925 0.33511 0.02519 0.0
C1335 C 0.36202 0.35454 1.00312 0.0
C1336 C 0.38018 0.36851 0.96444 0.0
C1337 C 0.39579 0.36367 0.95391 0.0
C1338 C 0.33974 0.31936 0.06336 0.0
C1339 C 0.38404 0.38947 0.94016 0.0
H1340 H 0.31242 0.37381 0.96001 0.0
H1341 H 0.34495 0.39137 0.16946 0.0
H1342 H 0.33924 0.35979 0.86453 0.0
H1343 H 0.32758 0.3355 0.91226 0.0
H1344 H 0.31221 0.34691 0.88582 0.0
H1345 H 0.36785 0.38056 0.20646 0.0
H1346 H 0.36509 0.3575 0.164 0.0
H1347 H 0.38315 0.38214 0.12625 0.0
H1348 H 0.374 0.31673 0.03784 0.0
H1349 H 0.41002 0.37492 0.92727 0.0
H1350 H 0.32606 0.31895 0.03764 0.0
H1351 H 0.34022 0.32356 0.1232 0.0
H1352 H 0.33786 0.3037 0.06054 0.0
H1353 H 0.37104 0.38794 0.9058 0.0
H1354 H 0.39845 0.39807 0.90715 0.0
H1355 H 0.38521 0.39877 0.99029 0.0
loop_
_geom_bond_atom_site_label_1
_geom_bond_atom_site_label_2
_geom_bond_distance
_geom_bond_site_symmetry_2
_ccdc_geom_bond_type
C0 C1 1.351 . S
C0 N3 1.368 . S
C0 H5 0.931 . S
C1 C0 1.351 . S
C1 N2 1.373 . S
C1 H29 0.930 . S
N2 C1 1.373 . S
N2 C4 1.340 . S
N3 C0 1.368 . S
N3 C4 1.321 . S
N3 Co6 2.135 1_556 S
C4 N2 1.340 . S
C4 N3 1.321 . S
C4 H28 0.930 . S
H5 C0 0.931 . S
Co6 N3 2.135 1_554 S
Co6 N9 2.121 . S
Co6 O14 2.055 . S
Co6 O17 2.039 1_554 S
Co6 N20 2.140 . S
C7 O8 1.227 . S
C7 O17 1.265 . S
O8 C7 1.227 . S
N9 Co6 2.121 . S
N9 C11 1.375 . S
N9 C12 1.313 . S
C10 C11 1.338 . S
C10 N13 1.377 . S
C10 H30 0.930 . S
C11 N9 1.375 . S
C11 C10 1.338 . S
C11 H15 0.931 . S
C12 N9 1.313 . S
C12 N13 1.344 . S
C12 H16 0.930 . S
N13 C10 1.377 . S
N13 C12 1.344 . S
O14 Co6 2.055 . S
O14 C18 1.253 . S
H15 C11 0.931 . S
H16 C12 0.930 . S
O17 Co6 2.039 1_556 S
O17 C7 1.265 . S
C18 O14 1.253 . S
C18 O19 1.227 . S
O19 C18 1.227 . S
N20 Co6 2.140 . S
N20 C23 1.346 1_554 S
N20 C24 1.345 . S
C21 C22 1.386 . S
C21 C25 1.392 1_556 S
C22 C21 1.386 . S
C22 C23 1.369 . S
C22 H31 0.929 . S
C23 N20 1.346 1_556 S
C23 C22 1.369 . S
C23 H26 0.928 . S
C24 N20 1.345 . S
C24 C25 1.371 . S
C24 H27 0.931 . S
C25 C21 1.392 1_554 S
C25 C24 1.371 . S
C25 H32 0.930 . S
H26 C23 0.928 . S
H27 C24 0.931 . S
H28 C4 0.930 . S
H29 C1 0.930 . S
H30 C10 0.930 . S
H31 C22 0.929 . S
H32 C25 0.930 . S
C33 C34 1.351 . S
C33 N36 1.368 . S
C33 H38 0.931 . S
C34 C33 1.351 . S
C34 N35 1.373 . S
C34 H62 0.930 . S
N35 C34 1.373 . S
N35 C37 1.340 . S
N36 C33 1.368 . S
N36 C37 1.321 . S
N36 Co39 2.135 1_556 S
C37 N35 1.340 . S
C37 N36 1.321 . S
C37 H61 0.930 . S
H38 C33 0.931 . S
Co39 N36 2.135 1_554 S
Co39 N42 2.121 . S
Co39 O47 2.055 . S
Co39 O50 2.039 1_554 S
Co39 N53 2.140 . S
C40 O41 1.227 . S
C40 O50 1.265 . S
O41 C40 1.227 . S
N42 Co39 2.121 . S
N42 C44 1.375 . S
N42 C45 1.313 . S
C43 C44 1.338 . S
C43 N46 1.377 . S
C43 H63 0.930 . S
C44 N42 1.375 . S
C44 C43 1.338 . S
C44 H48 0.931 . S
C45 N42 1.313 . S
C45 N46 1.344 . S
C45 H49 0.930 . S
N46 C43 1.377 . S
N46 C45 1.344 . S
O47 Co39 2.055 . S
O47 C51 1.253 . S
H48 C44 0.931 . S
H49 C45 0.930 . S
O50 Co39 2.039 1_556 S
O50 C40 1.265 . S
C51 O47 1.253 . S
C51 O52 1.227 . S
O52 C51 1.227 . S
N53 Co39 2.140 . S
N53 C56 1.346 1_554 S
N53 C57 1.345 . S
C54 C55 1.386 . S
C54 C58 1.391 1_556 S
C55 C54 1.386 . S
C55 C56 1.369 . S
C55 H64 0.929 . S
C56 N53 1.346 1_556 S
C56 C55 1.369 . S
C56 H59 0.928 . S
C57 N53 1.345 . S
C57 C58 1.371 . S
C57 H60 0.931 . S
C58 C54 1.391 1_554 S
C58 C57 1.371 . S
C58 H65 0.930 . S
H59 C56 0.928 . S
H60 C57 0.931 . S
H61 C37 0.930 . S
H62 C34 0.930 . S
H63 C43 0.930 . S
H64 C55 0.929 . S
H65 C58 0.930 . S
C66 C67 1.351 . S
C66 N69 1.368 . S
C66 H71 0.931 . S
C67 C66 1.351 . S
C67 N68 1.373 . S
C67 H95 0.930 . S
N68 C67 1.373 . S
N68 C70 1.340 . S
N69 C66 1.368 . S
N69 C70 1.321 . S
N69 Co72 2.135 1_556 S
C70 N68 1.340 . S
C70 N69 1.321 . S
C70 H94 0.930 . S
H71 C66 0.931 . S
Co72 N69 2.135 1_554 S
Co72 N75 2.121 . S
Co72 O80 2.055 . S
Co72 O83 2.039 1_554 S
Co72 N86 2.140 . S
C73 O74 1.227 . S
C73 O83 1.265 . S
O74 C73 1.227 . S
N75 Co72 2.121 . S
N75 C77 1.375 . S
N75 C78 1.313 . S
C76 C77 1.338 . S
C76 N79 1.377 . S
C76 H96 0.930 . S
C77 N75 1.375 . S
C77 C76 1.338 . S
C77 H81 0.931 . S
C78 N75 1.313 . S
C78 N79 1.344 . S
C78 H82 0.930 . S
N79 C76 1.377 . S
N79 C78 1.344 . S
O80 Co72 2.055 . S
O80 C84 1.253 . S
H81 C77 0.931 . S
H82 C78 0.930 . S
O83 Co72 2.039 1_556 S
O83 C73 1.265 . S
C84 O80 1.253 . S
C84 O85 1.227 . S
O85 C84 1.227 . S
N86 Co72 2.140 . S
N86 C89 1.346 1_554 S
N86 C90 1.345 . S
C87 C88 1.388 . S
C87 C91 1.390 1_556 S
C88 C87 1.388 . S
C88 C89 1.369 . S
C88 H97 0.929 . S
C89 N86 1.346 1_556 S
C89 C88 1.369 . S
C89 H92 0.928 . S
C90 N86 1.345 . S
C90 C91 1.371 . S
C90 H93 0.931 . S
C91 C87 1.390 1_554 S
C91 C90 1.371 . S
C91 H98 0.930 . S
H92 C89 0.928 . S
H93 C90 0.931 . S
H94 C70 0.930 . S
H95 C67 0.930 . S
H96 C76 0.930 . S
H97 C88 0.929 . S
H98 C91 0.930 . S
C99 C100 1.351 . S
C99 N102 1.368 . S
C99 H104 0.931 . S
C100 C99 1.351 . S
C100 N101 1.373 . S
C100 H128 0.930 . S
N101 C100 1.373 . S
N101 C103 1.340 . S
N102 C99 1.368 . S
N102 C103 1.321 . S
N102 Co105 2.135 1_556 S
C103 N101 1.340 . S
C103 N102 1.321 . S
C103 H127 0.930 . S
H104 C99 0.931 . S
Co105 N102 2.135 1_554 S
Co105 N108 2.121 . S
Co105 O113 2.055 . S
Co105 O116 2.039 1_554 S
Co105 N119 2.140 . S
C106 O107 1.227 . S
C106 O116 1.265 . S
O107 C106 1.227 . S
N108 Co105 2.121 . S
N108 C110 1.375 . S
N108 C111 1.313 . S
C109 C110 1.338 . S
C109 N112 1.377 . S
C109 H129 0.930 . S
C110 N108 1.375 . S
C110 C109 1.338 . S
C110 H114 0.931 . S
C111 N108 1.313 . S
C111 N112 1.344 . S
C111 H115 0.930 . S
N112 C109 1.377 . S
N112 C111 1.344 . S
O113 Co105 2.055 . S
O113 C117 1.253 . S
H114 C110 0.931 . S
H115 C111 0.930 . S
O116 Co105 2.039 1_556 S
O116 C106 1.265 . S
C117 O113 1.253 . S
C117 O118 1.227 . S
O118 C117 1.227 . S
N119 Co105 2.140 . S
N119 C122 1.346 1_554 S
N119 C123 1.345 . S
C120 C121 1.386 . S
C120 C124 1.392 1_556 S
C121 C120 1.386 . S
C121 C122 1.369 . S
C121 H130 0.929 . S
C122 N119 1.346 1_556 S
C122 C121 1.369 . S
C122 H125 0.928 . S
C123 N119 1.345 . S
C123 C124 1.371 . S
C123 H126 0.931 . S
C124 C120 1.392 1_554 S
C124 C123 1.371 . S
C124 H131 0.930 . S
H125 C122 0.928 . S
H126 C123 0.931 . S
H127 C103 0.930 . S
H128 C100 0.930 . S
H129 C109 0.930 . S
H130 C121 0.929 . S
H131 C124 0.930 . S
C132 C133 1.351 . S
C132 N135 1.368 . S
C132 H137 0.931 . S
C133 C132 1.351 . S
C133 N134 1.373 . S
C133 H161 0.930 . S
N134 C133 1.373 . S
N134 C136 1.340 . S
N135 C132 1.368 . S
N135 C136 1.321 . S
N135 Co138 2.135 1_556 S
C136 N134 1.340 . S
C136 N135 1.321 . S
C136 H160 0.930 . S
H137 C132 0.931 . S
Co138 N135 2.135 1_554 S
Co138 N141 2.121 . S
Co138 O146 2.055 . S
Co138 O149 2.039 1_554 S
Co138 N152 2.140 . S
C139 O140 1.227 . S
C139 O149 1.265 . S
O140 C139 1.227 . S
N141 Co138 2.121 . S
N141 C143 1.375 . S
N141 C144 1.313 . S
C142 C143 1.338 . S
C142 N145 1.377 . S
C142 H162 0.930 . S
C143 N141 1.375 . S
C143 C142 1.338 . S
C143 H147 0.931 . S
C144 N141 1.313 . S
C144 N145 1.344 . S
C144 H148 0.930 . S
N145 C142 1.377 . S
N145 C144 1.344 . S
O146 Co138 2.055 . S
O146 C150 1.253 . S
H147 C143 0.931 . S
H148 C144 0.930 . S
O149 Co138 2.039 1_556 S
O149 C139 1.265 . S
C150 O146 1.253 . S
C150 O151 1.227 . S
O151 C150 1.227 . S
N152 Co138 2.140 . S
N152 C155 1.346 1_554 S
N152 C156 1.345 . S
C153 C154 1.386 . S
C153 C157 1.392 1_556 S
C154 C153 1.386 . S
C154 C155 1.369 . S
C154 H163 0.929 . S
C155 N152 1.346 1_556 S
C155 C154 1.369 . S
C155 H158 0.928 . S
C156 N152 1.345 . S
C156 C157 1.371 . S
C156 H159 0.931 . S
C157 C153 1.392 1_554 S
C157 C156 1.371 . S
C157 H164 0.930 . S
H158 C155 0.928 . S
H159 C156 0.931 . S
H160 C136 0.930 . S
H161 C133 0.930 . S
H162 C142 0.930 . S
H163 C154 0.929 . S
H164 C157 0.930 . S
C165 C166 1.351 . S
C165 N168 1.368 . S
C165 H170 0.931 . S
C166 C165 1.351 . S
C166 N167 1.373 . S
C166 H194 0.930 . S
N167 C166 1.373 . S
N167 C169 1.340 . S
N168 C165 1.368 . S
N168 C169 1.321 . S
N168 Co171 2.135 1_556 S
C169 N167 1.340 . S
C169 N168 1.321 . S
C169 H193 0.930 . S
H170 C165 0.931 . S
Co171 N168 2.135 1_554 S
Co171 N174 2.121 . S
Co171 O179 2.055 . S
Co171 O182 2.039 1_554 S
Co171 N185 2.140 . S
C172 O173 1.227 . S
C172 O182 1.265 . S
O173 C172 1.227 . S
N174 Co171 2.121 . S
N174 C176 1.375 . S
N174 C177 1.313 . S
C175 C176 1.338 . S
C175 N178 1.377 . S
C175 H195 0.930 . S
C176 N174 1.375 . S
C176 C175 1.338 . S
C176 H180 0.931 . S
C177 N174 1.313 . S
C177 N178 1.344 . S
C177 H181 0.930 . S
N178 C175 1.377 . S
N178 C177 1.344 . S
O179 Co171 2.055 . S
O179 C183 1.253 . S
H180 C176 0.931 . S
H181 C177 0.930 . S
O182 Co171 2.039 1_556 S
O182 C172 1.265 . S
C183 O179 1.253 . S
C183 O184 1.227 . S
O184 C183 1.227 . S
N185 Co171 2.140 . S
N185 C188 1.346 1_554 S
N185 C189 1.345 . S
C186 C187 1.388 . S
C186 C190 1.390 1_556 S
C187 C186 1.388 . S
C187 C188 1.369 . S
C187 H196 0.929 . S
C188 N185 1.346 1_556 S
C188 C187 1.369 . S
C188 H191 0.928 . S
C189 N185 1.345 . S
C189 C190 1.371 . S
C189 H192 0.931 . S
C190 C186 1.390 1_554 S
C190 C189 1.371 . S
C190 H197 0.930 . S
H191 C188 0.928 . S
H192 C189 0.931 . S
H193 C169 0.930 . S
H194 C166 0.930 . S
H195 C175 0.930 . S
H196 C187 0.929 . S
H197 C190 0.930 . S
C198 C199 1.351 . S
C198 N201 1.368 . S
C198 H203 0.931 . S
C199 C198 1.351 . S
C199 N200 1.373 . S
C199 H227 0.930 . S
N200 C199 1.373 . S
N200 C202 1.340 . S
N201 C198 1.368 . S
N201 C202 1.321 . S
N201 Co204 2.135 . S
C202 N200 1.340 . S
C202 N201 1.321 . S
C202 H226 0.930 . S
H203 C198 0.931 . S
Co204 N201 2.135 . S
Co204 N207 2.121 1_554 S
Co204 O212 2.055 1_554 S
Co204 O215 2.039 . S
Co204 N218 2.140 . S
C205 O206 1.227 . S
C205 O215 1.265 . S
O206 C205 1.227 . S
N207 Co204 2.121 1_556 S
N207 C209 1.375 . S
N207 C210 1.313 . S
C208 C209 1.338 . S
C208 N211 1.377 . S
C208 H228 0.930 . S
C209 N207 1.375 . S
C209 C208 1.338 . S
C209 H213 0.931 . S
C210 N207 1.313 . S
C210 N211 1.344 . S
C210 H214 0.930 . S
N211 C208 1.377 . S
N211 C210 1.344 . S
O212 Co204 2.055 1_556 S
O212 C216 1.253 . S
H213 C209 0.931 . S
H214 C210 0.930 . S
O215 Co204 2.039 . S
O215 C205 1.265 . S
C216 O212 1.253 . S
C216 O217 1.227 . S
O217 C216 1.227 . S
N218 Co204 2.140 . S
N218 C221 1.346 . S
N218 C222 1.345 1_554 S
C219 C220 1.387 . S
C219 C223 1.391 1_554 S
C220 C219 1.387 . S
C220 C221 1.369 . S
C220 H229 0.929 . S
C221 N218 1.346 . S
C221 C220 1.369 . S
C221 H224 0.928 . S
C222 N218 1.345 1_556 S
C222 C223 1.371 . S
C222 H225 0.931 . S
C223 C219 1.391 1_556 S
C223 C222 1.371 . S
C223 H230 0.930 . S
H224 C221 0.928 . S
H225 C222 0.931 . S
H226 C202 0.930 . S
H227 C199 0.930 . S
H228 C208 0.930 . S
H229 C220 0.929 . S
H230 C223 0.930 . S
C231 C232 1.351 . S
C231 N234 1.368 . S
C231 H236 0.931 . S
C232 C231 1.351 . S
C232 N233 1.373 . S
C232 H260 0.930 . S
N233 C232 1.373 . S
N233 C235 1.340 . S
N234 C231 1.368 . S
N234 C235 1.321 . S
N234 Co237 2.135 . S
C235 N233 1.340 . S
C235 N234 1.321 . S
C235 H259 0.930 . S
H236 C231 0.931 . S
Co237 N234 2.135 . S
Co237 N240 2.121 1_554 S
Co237 O245 2.055 1_554 S
Co237 O248 2.039 . S
Co237 N251 2.140 . S
C238 O239 1.227 . S
C238 O248 1.265 . S
O239 C238 1.227 . S
N240 Co237 2.121 1_556 S
N240 C242 1.375 . S
N240 C243 1.313 . S
C241 C242 1.338 . S
C241 N244 1.377 . S
C241 H261 0.930 . S
C242 N240 1.375 . S
C242 C241 1.338 . S
C242 H246 0.931 . S
C243 N240 1.313 . S
C243 N244 1.344 . S
C243 H247 0.930 . S
N244 C241 1.377 . S
N244 C243 1.344 . S
O245 Co237 2.055 1_556 S
O245 C249 1.253 . S
H246 C242 0.931 . S
H247 C243 0.930 . S
O248 Co237 2.039 . S
O248 C238 1.265 . S
C249 O245 1.253 . S
C249 O250 1.227 . S
O250 C249 1.227 . S
N251 Co237 2.140 . S
N251 C254 1.346 . S
N251 C255 1.345 1_554 S
C252 C253 1.387 . S
C252 C256 1.391 1_554 S
C253 C252 1.387 . S
C253 C254 1.369 . S
C253 H262 0.929 . S
C254 N251 1.346 . S
C254 C253 1.369 . S
C254 H257 0.928 . S
C255 N251 1.345 1_556 S
C255 C256 1.371 . S
C255 H258 0.931 . S
C256 C252 1.391 1_556 S
C256 C255 1.371 . S
C256 H263 0.930 . S
H257 C254 0.928 . S
H258 C255 0.931 . S
H259 C235 0.930 . S
H260 C232 0.930 . S
H261 C241 0.930 . S
H262 C253 0.929 . S
H263 C256 0.930 . S
C264 C265 1.351 . S
C264 N267 1.368 . S
C264 H269 0.931 . S
C265 C264 1.351 . S
C265 N266 1.373 . S
C265 H293 0.930 . S
N266 C265 1.373 . S
N266 C268 1.340 . S
N267 C264 1.368 . S
N267 C268 1.321 . S
N267 Co270 2.135 . S
C268 N266 1.340 . S
C268 N267 1.321 . S
C268 H292 0.930 . S
H269 C264 0.931 . S
Co270 N267 2.135 . S
Co270 N273 2.121 1_554 S
Co270 O278 2.055 1_554 S
Co270 O281 2.039 . S
Co270 N284 2.140 . S
C271 O272 1.227 . S
C271 O281 1.265 . S
O272 C271 1.227 . S
N273 Co270 2.121 1_556 S
N273 C275 1.375 . S
N273 C276 1.313 . S
C274 C275 1.338 . S
C274 N277 1.377 . S
C274 H294 0.930 . S
C275 N273 1.375 . S
C275 C274 1.338 . S
C275 H279 0.931 . S
C276 N273 1.313 . S
C276 N277 1.344 . S
C276 H280 0.930 . S
N277 C274 1.377 . S
N277 C276 1.344 . S
O278 Co270 2.055 1_556 S
O278 C282 1.253 . S
H279 C275 0.931 . S
H280 C276 0.930 . S
O281 Co270 2.039 . S
O281 C271 1.265 . S
C282 O278 1.253 . S
C282 O283 1.227 . S
O283 C282 1.227 . S
N284 Co270 2.140 . S
N284 C287 1.346 . S
N284 C288 1.345 1_554 S
C285 C286 1.387 . S
C285 C289 1.391 1_554 S
C286 C285 1.387 . S
C286 C287 1.369 . S
C286 H295 0.929 . S
C287 N284 1.346 . S
C287 C286 1.369 . S
C287 H290 0.928 . S
C288 N284 1.345 1_556 S
C288 C289 1.371 . S
C288 H291 0.931 . S
C289 C285 1.391 1_556 S
C289 C288 1.371 . S
C289 H296 0.930 . S
H290 C287 0.928 . S
H291 C288 0.931 . S
H292 C268 0.930 . S
H293 C265 0.930 . S
H294 C274 0.930 . S
H295 C286 0.929 . S
H296 C289 0.930 . S
C297 C298 1.351 . S
C297 N300 1.368 . S
C297 H302 0.931 . S
C298 C297 1.351 . S
C298 N299 1.373 . S
C298 H326 0.930 . S
N299 C298 1.373 . S
N299 C301 1.340 . S
N300 C297 1.368 . S
N300 C301 1.321 . S
N300 Co303 2.135 . S
C301 N299 1.340 . S
C301 N300 1.321 . S
C301 H325 0.930 . S
H302 C297 0.931 . S
Co303 N300 2.135 . S
Co303 N306 2.121 1_554 S
Co303 O311 2.055 1_554 S
Co303 O314 2.039 . S
Co303 N317 2.140 . S
C304 O305 1.227 . S
C304 O314 1.265 . S
O305 C304 1.227 . S
N306 Co303 2.121 1_556 S
N306 C308 1.375 . S
N306 C309 1.313 . S
C307 C308 1.338 . S
C307 N310 1.377 . S
C307 H327 0.930 . S
C308 N306 1.375 . S
C308 C307 1.338 . S
C308 H312 0.931 . S
C309 N306 1.313 . S
C309 N310 1.344 . S
C309 H313 0.930 . S
N310 C307 1.377 . S
N310 C309 1.344 . S
O311 Co303 2.055 1_556 S
O311 C315 1.253 . S
H312 C308 0.931 . S
H313 C309 0.930 . S
O314 Co303 2.039 . S
O314 C304 1.265 . S
C315 O311 1.253 . S
C315 O316 1.227 . S
O316 C315 1.227 . S
N317 Co303 2.140 . S
N317 C320 1.346 . S
N317 C321 1.345 1_554 S
C318 C319 1.387 . S
C318 C322 1.391 1_554 S
C319 C318 1.387 . S
C319 C320 1.369 . S
C319 H328 0.929 . S
C320 N317 1.346 . S
C320 C319 1.369 . S
C320 H323 0.928 . S
C321 N317 1.345 1_556 S
C321 C322 1.371 . S
C321 H324 0.931 . S
C322 C318 1.391 1_556 S
C322 C321 1.371 . S
C322 H329 0.930 . S
H323 C320 0.928 . S
H324 C321 0.931 . S
H325 C301 0.930 . S
H326 C298 0.930 . S
H327 C307 0.930 . S
H328 C319 0.929 . S
H329 C322 0.930 . S
C330 C331 1.351 . S
C330 N333 1.368 . S
C330 H335 0.931 . S
C331 C330 1.351 . S
C331 N332 1.373 . S
C331 H359 0.930 . S
N332 C331 1.373 . S
N332 C334 1.340 . S
N333 C330 1.368 . S
N333 C334 1.321 . S
N333 Co336 2.135 . S
C334 N332 1.340 . S
C334 N333 1.321 . S
C334 H358 0.930 . S
H335 C330 0.931 . S
Co336 N333 2.135 . S
Co336 N339 2.121 1_554 S
Co336 O344 2.055 1_554 S
Co336 O347 2.039 . S
Co336 N350 2.140 . S
C337 O338 1.227 . S
C337 O347 1.265 . S
O338 C337 1.227 . S
N339 Co336 2.121 1_556 S
N339 C341 1.375 . S
N339 C342 1.313 . S
C340 C341 1.338 . S
C340 N343 1.377 . S
C340 H360 0.930 . S
C341 N339 1.375 . S
C341 C340 1.338 . S
C341 H345 0.931 . S
C342 N339 1.313 . S
C342 N343 1.344 . S
C342 H346 0.930 . S
N343 C340 1.377 . S
N343 C342 1.344 . S
O344 Co336 2.055 1_556 S
O344 C348 1.253 . S
H345 C341 0.931 . S
H346 C342 0.930 . S
O347 Co336 2.039 . S
O347 C337 1.265 . S
C348 O344 1.253 . S
C348 O349 1.227 . S
O349 C348 1.227 . S
N350 Co336 2.140 . S
N350 C353 1.346 . S
N350 C354 1.345 1_554 S
C351 C352 1.387 . S
C351 C355 1.391 1_554 S
C352 C351 1.387 . S
C352 C353 1.369 . S
C352 H361 0.929 . S
C353 N350 1.346 . S
C353 C352 1.369 . S
C353 H356 0.928 . S
C354 N350 1.345 1_556 S
C354 C355 1.371 . S
C354 H357 0.931 . S
C355 C351 1.391 1_556 S
C355 C354 1.371 . S
C355 H362 0.930 . S
H356 C353 0.928 . S
H357 C354 0.931 . S
H358 C334 0.930 . S
H359 C331 0.930 . S
H360 C340 0.930 . S
H361 C352 0.929 . S
H362 C355 0.930 . S
C363 C364 1.351 . S
C363 N366 1.368 . S
C363 H368 0.931 . S
C364 C363 1.351 . S
C364 N365 1.373 . S
C364 H392 0.930 . S
N365 C364 1.373 . S
N365 C367 1.340 . S
N366 C363 1.368 . S
N366 C367 1.321 . S
N366 Co369 2.135 . S
C367 N365 1.340 . S
C367 N366 1.321 . S
C367 H391 0.930 . S
H368 C363 0.931 . S
Co369 N366 2.135 . S
Co369 N372 2.121 1_554 S
Co369 O377 2.055 1_554 S
Co369 O380 2.039 . S
Co369 N383 2.140 . S
C370 O371 1.227 . S
C370 O380 1.265 . S
O371 C370 1.227 . S
N372 Co369 2.121 1_556 S
N372 C374 1.375 . S
N372 C375 1.313 . S
C373 C374 1.338 . S
C373 N376 1.377 . S
C373 H393 0.930 . S
C374 N372 1.375 . S
C374 C373 1.338 . S
C374 H378 0.931 . S
C375 N372 1.313 . S
C375 N376 1.344 . S
C375 H379 0.930 . S
N376 C373 1.377 . S
N376 C375 1.344 . S
O377 Co369 2.055 1_556 S
O377 C381 1.253 . S
H378 C374 0.931 . S
H379 C375 0.930 . S
O380 Co369 2.039 . S
O380 C370 1.265 . S
C381 O377 1.253 . S
C381 O382 1.227 . S
O382 C381 1.227 . S
N383 Co369 2.140 . S
N383 C386 1.346 . S
N383 C387 1.345 1_554 S
C384 C385 1.387 . S
C384 C388 1.391 1_554 S
C385 C384 1.387 . S
C385 C386 1.369 . S
C385 H394 0.929 . S
C386 N383 1.346 . S
C386 C385 1.369 . S
C386 H389 0.928 . S
C387 N383 1.345 1_556 S
C387 C388 1.371 . S
C387 H390 0.931 . S
C388 C384 1.391 1_556 S
C388 C387 1.371 . S
C388 H395 0.930 . S
H389 C386 0.928 . S
H390 C387 0.931 . S
H391 C367 0.930 . S
H392 C364 0.930 . S
H393 C373 0.930 . S
H394 C385 0.929 . S
H395 C388 0.930 . S
C396 C397 1.391 1_556 S
C396 C398 1.394 . S
C396 H412 0.931 . S
C397 C396 1.391 1_554 S
C397 C401 1.376 . S
C398 C396 1.394 . S
C398 C399 1.369 . S
C398 C402 1.531 . S
C399 C398 1.369 . S
C399 C400 1.410 1_556 S
C399 C407 1.503 . S
C400 C399 1.410 1_554 S
C400 C401 1.392 . S
C400 C403 1.511 . S
C401 C397 1.376 . S
C401 C400 1.392 . S
C401 H413 0.929 . S
C402 C398 1.531 . S
C402 H414 0.960 . S
C402 H415 0.962 . S
C402 H416 0.960 . S
C403 C400 1.511 . S
C403 H417 0.961 . S
C403 H418 0.961 . S
C403 H419 0.961 . S
C404 C405 1.370 1_554 S
C404 C406 1.363 . S
C404 H420 0.931 . S
C405 C404 1.370 1_556 S
C405 C409 1.408 . S
C406 C404 1.363 . S
C406 C407 1.370 1_554 S
C406 C410 1.524 . S
C407 C399 1.503 . S
C407 C406 1.370 1_556 S
C407 C408 1.403 . S
C408 C407 1.403 . S
C408 C409 1.404 . S
C408 C411 1.539 . S
C409 C405 1.408 . S
C409 C408 1.404 . S
C409 H421 0.930 . S
C410 C406 1.524 . S
C410 H422 0.956 . S
C410 H423 0.961 . S
C410 H424 0.961 . S
C411 C408 1.539 . S
C411 H425 0.958 . S
C411 H426 0.961 . S
C411 H427 0.960 . S
H412 C396 0.931 . S
H413 C401 0.929 . S
H414 C402 0.960 . S
H415 C402 0.962 . S
H416 C402 0.960 . S
H417 C403 0.961 . S
H418 C403 0.961 . S
H419 C403 0.961 . S
H420 C404 0.931 . S
H421 C409 0.930 . S
H422 C410 0.956 . S
H423 C410 0.961 . S
H424 C410 0.961 . S
H425 C411 0.958 . S
H426 C411 0.961 . S
H427 C411 0.960 . S
C428 C429 1.387 1_554 S
C428 C430 1.394 . S
C428 H444 0.931 . S
C429 C428 1.387 1_556 S
C429 C433 1.379 . S
C430 C428 1.394 . S
C430 C431 1.369 . S
C430 C434 1.531 . S
C431 C430 1.369 . S
C431 C432 1.410 1_554 S
C431 C439 1.503 . S
C432 C431 1.410 1_556 S
C432 C433 1.392 . S
C432 C435 1.511 . S
C433 C429 1.379 . S
C433 C432 1.392 . S
C433 H445 0.929 . S
C434 C430 1.531 . S
C434 H446 0.960 . S
C434 H447 0.962 . S
C434 H448 0.960 . S
C435 C432 1.511 . S
C435 H449 0.961 . S
C435 H450 0.961 . S
C435 H451 0.961 . S
C436 C437 1.370 . S
C436 C438 1.363 . S
C436 H452 0.931 . S
C437 C436 1.370 . S
C437 C441 1.409 . S
C438 C436 1.363 . S
C438 C439 1.370 . S
C438 C442 1.524 . S
C439 C431 1.503 . S
C439 C438 1.370 . S
C439 C440 1.403 1_554 S
C440 C439 1.403 1_556 S
C440 C441 1.404 1_556 S
C440 C443 1.539 . S
C441 C437 1.409 . S
C441 C440 1.404 1_554 S
C441 H453 0.929 1_554 S
C442 C438 1.524 . S
C442 H454 0.956 . S
C442 H455 0.961 1_554 S
C442 H456 0.961 . S
C443 C440 1.539 . S
C443 H457 0.958 1_556 S
C443 H458 0.961 . S
C443 H459 0.960 . S
H444 C428 0.931 . S
H445 C433 0.929 . S
H446 C434 0.960 . S
H447 C434 0.962 . S
H448 C434 0.960 . S
H449 C435 0.961 . S
H450 C435 0.961 . S
H451 C435 0.961 . S
H452 C436 0.931 . S
H453 C441 0.929 1_556 S
H454 C442 0.956 . S
H455 C442 0.961 1_556 S
H456 C442 0.961 . S
H457 C443 0.958 1_554 S
H458 C443 0.961 . S
H459 C443 0.960 . S
C460 C461 1.391 . S
C460 C462 1.394 . S
C460 H476 0.931 . S
C461 C460 1.391 . S
C461 C465 1.376 1_554 S
C462 C460 1.394 . S
C462 C463 1.369 . S
C462 C466 1.531 . S
C463 C462 1.369 . S
C463 C464 1.410 1_554 S
C463 C471 1.503 . S
C464 C463 1.410 1_556 S
C464 C465 1.392 . S
C464 C467 1.511 . S
C465 C461 1.376 1_556 S
C465 C464 1.392 . S
C465 H477 0.929 . S
C466 C462 1.531 . S
C466 H478 0.960 . S
C466 H479 0.962 . S
C466 H480 0.960 . S
C467 C464 1.511 . S
C467 H481 0.961 . S
C467 H482 0.961 . S
C467 H483 0.961 . S
C468 C469 1.370 1_556 S
C468 C470 1.363 . S
C468 H484 0.931 . S
C469 C468 1.370 1_554 S
C469 C473 1.408 . S
C470 C468 1.363 . S
C470 C471 1.370 1_556 S
C470 C474 1.524 . S
C471 C463 1.503 . S
C471 C470 1.370 1_554 S
C471 C472 1.403 . S
C472 C471 1.403 . S
C472 C473 1.404 . S
C472 C475 1.539 . S
C473 C469 1.408 . S
C473 C472 1.404 . S
C473 H485 0.930 . S
C474 C470 1.524 . S
C474 H486 0.956 . S
C474 H487 0.961 . S
C474 H488 0.961 . S
C475 C472 1.539 . S
C475 H489 0.958 . S
C475 H490 0.961 . S
C475 H491 0.960 . S
H476 C460 0.931 . S
H477 C465 0.929 . S
H478 C466 0.960 . S
H479 C466 0.962 . S
H480 C466 0.960 . S
H481 C467 0.961 . S
H482 C467 0.961 . S
H483 C467 0.961 . S
H484 C468 0.931 . S
H485 C473 0.930 . S
H486 C474 0.956 . S
H487 C474 0.961 . S
H488 C474 0.961 . S
H489 C475 0.958 . S
H490 C475 0.961 . S
H491 C475 0.960 . S
C492 C493 1.391 1_556 S
C492 C494 1.394 . S
C492 H508 0.931 . S
C493 C492 1.391 1_554 S
C493 C497 1.376 . S
C494 C492 1.394 . S
C494 C495 1.369 1_556 S
C494 C498 1.531 . S
C495 C494 1.369 1_554 S
C495 C496 1.410 . S
C495 C503 1.503 . S
C496 C495 1.410 . S
C496 C497 1.392 . S
C496 C499 1.511 . S
C497 C493 1.376 . S
C497 C496 1.392 . S
C497 H509 0.929 . S
C498 C494 1.531 . S
C498 H510 0.960 . S
C498 H511 0.962 . S
C498 H512 0.960 . S
C499 C496 1.511 . S
C499 H513 0.961 . S
C499 H514 0.961 . S
C499 H515 0.961 . S
C500 C501 1.370 1_556 S
C500 C502 1.363 . S
C500 H516 0.931 . S
C501 C500 1.370 1_554 S
C501 C505 1.408 . S
C502 C500 1.363 . S
C502 C503 1.370 1_556 S
C502 C506 1.524 . S
C503 C495 1.503 . S
C503 C502 1.370 1_554 S
C503 C504 1.403 . S
C504 C503 1.403 . S
C504 C505 1.404 . S
C504 C507 1.539 . S
C505 C501 1.408 . S
C505 C504 1.404 . S
C505 H517 0.930 . S
C506 C502 1.524 . S
C506 H518 0.956 . S
C506 H519 0.961 . S
C506 H520 0.961 . S
C507 C504 1.539 . S
C507 H521 0.958 . S
C507 H522 0.961 . S
C507 H523 0.960 . S
H508 C492 0.931 . S
H509 C497 0.929 . S
H510 C498 0.960 . S
H511 C498 0.962 . S
H512 C498 0.960 . S
H513 C499 0.961 . S
H514 C499 0.961 . S
H515 C499 0.961 . S
H516 C500 0.931 . S
H517 C505 0.930 . S
H518 C506 0.956 . S
H519 C506 0.961 . S
H520 C506 0.961 . S
H521 C507 0.958 . S
H522 C507 0.961 . S
H523 C507 0.960 . S
C524 C525 1.391 . S
C524 C526 1.394 . S
C524 H540 0.931 . S
C525 C524 1.391 . S
C525 C529 1.376 1_554 S
C526 C524 1.394 . S
C526 C527 1.369 . S
C526 C530 1.531 . S
C527 C526 1.369 . S
C527 C528 1.410 1_554 S
C527 C535 1.503 . S
C528 C527 1.410 1_556 S
C528 C529 1.392 . S
C528 C531 1.511 . S
C529 C525 1.376 1_556 S
C529 C528 1.392 . S
C529 H541 0.929 . S
C530 C526 1.531 . S
C530 H542 0.960 . S
C530 H543 0.962 . S
C530 H544 0.960 . S
C531 C528 1.511 . S
C531 H545 0.961 . S
C531 H546 0.961 . S
C531 H547 0.961 . S
C532 C533 1.370 1_556 S
C532 C534 1.363 . S
C532 H548 0.931 . S
C533 C532 1.370 1_554 S
C533 C537 1.408 . S
C534 C532 1.363 . S
C534 C535 1.370 1_556 S
C534 C538 1.524 . S
C535 C527 1.503 . S
C535 C534 1.370 1_554 S
C535 C536 1.403 . S
C536 C535 1.403 . S
C536 C537 1.404 . S
C536 C539 1.539 . S
C537 C533 1.408 . S
C537 C536 1.404 . S
C537 H549 0.930 . S
C538 C534 1.524 . S
C538 H550 0.956 . S
C538 H551 0.961 . S
C538 H552 0.961 . S
C539 C536 1.539 . S
C539 H553 0.958 . S
C539 H554 0.961 . S
C539 H555 0.960 . S
H540 C524 0.931 . S
H541 C529 0.929 . S
H542 C530 0.960 . S
H543 C530 0.962 . S
H544 C530 0.960 . S
H545 C531 0.961 . S
H546 C531 0.961 . S
H547 C531 0.961 . S
H548 C532 0.931 . S
H549 C537 0.930 . S
H550 C538 0.956 . S
H551 C538 0.961 . S
H552 C538 0.961 . S
H553 C539 0.958 . S
H554 C539 0.961 . S
H555 C539 0.960 . S
C556 C557 1.391 . S
C556 C558 1.394 . S
C556 H572 0.931 . S
C557 C556 1.391 . S
C557 C561 1.376 1_554 S
C558 C556 1.394 . S
C558 C559 1.369 . S
C558 C562 1.531 . S
C559 C558 1.369 . S
C559 C560 1.410 1_554 S
C559 C567 1.503 . S
C560 C559 1.410 1_556 S
C560 C561 1.392 . S
C560 C563 1.511 . S
C561 C557 1.376 1_556 S
C561 C560 1.392 . S
C561 H573 0.929 . S
C562 C558 1.531 . S
C562 H574 0.960 . S
C562 H575 0.962 . S
C562 H576 0.960 . S
C563 C560 1.511 . S
C563 H577 0.961 . S
C563 H578 0.961 . S
C563 H579 0.961 . S
C564 C565 1.370 1_556 S
C564 C566 1.363 . S
C564 H580 0.931 . S
C565 C564 1.370 1_554 S
C565 C569 1.408 . S
C566 C564 1.363 . S
C566 C567 1.370 1_556 S
C566 C570 1.524 . S
C567 C559 1.503 . S
C567 C566 1.370 1_554 S
C567 C568 1.403 . S
C568 C567 1.403 . S
C568 C569 1.404 . S
C568 C571 1.539 . S
C569 C565 1.408 . S
C569 C568 1.404 . S
C569 H581 0.930 . S
C570 C566 1.524 . S
C570 H582 0.956 . S
C570 H583 0.961 . S
C570 H584 0.961 . S
C571 C568 1.539 . S
C571 H585 0.958 . S
C571 H586 0.961 . S
C571 H587 0.960 . S
H572 C556 0.931 . S
H573 C561 0.929 . S
H574 C562 0.960 . S
H575 C562 0.962 . S
H576 C562 0.960 . S
H577 C563 0.961 . S
H578 C563 0.961 . S
H579 C563 0.961 . S
H580 C564 0.931 . S
H581 C569 0.930 . S
H582 C570 0.956 . S
H583 C570 0.961 . S
H584 C570 0.961 . S
H585 C571 0.958 . S
H586 C571 0.961 . S
H587 C571 0.960 . S
C588 C589 1.391 1_554 S
C588 C590 1.394 . S
C588 H604 0.931 . S
C589 C588 1.391 1_556 S
C589 C593 1.376 . S
C590 C588 1.394 . S
C590 C591 1.369 . S
C590 C594 1.531 . S
C591 C590 1.369 . S
C591 C592 1.410 1_554 S
C591 C599 1.503 . S
C592 C591 1.410 1_556 S
C592 C593 1.392 . S
C592 C595 1.511 . S
C593 C589 1.376 . S
C593 C592 1.392 . S
C593 H605 0.929 . S
C594 C590 1.531 . S
C594 H606 0.960 . S
C594 H607 0.962 . S
C594 H608 0.960 . S
C595 C592 1.511 . S
C595 H609 0.961 . S
C595 H610 0.961 . S
C595 H611 0.961 . S
C596 C597 1.370 . S
C596 C598 1.363 . S
C596 H612 0.931 . S
C597 C596 1.370 . S
C597 C601 1.408 . S
C598 C596 1.363 . S
C598 C599 1.370 . S
C598 C602 1.524 1_554 S
C599 C591 1.503 . S
C599 C598 1.370 . S
C599 C600 1.403 . S
C600 C599 1.403 . S
C600 C601 1.404 . S
C600 C603 1.539 . S
C601 C597 1.408 . S
C601 C600 1.404 . S
C601 H613 0.930 . S
C602 C598 1.524 1_556 S
C602 H614 0.953 1_556 S
C602 H615 0.963 . S
C602 H616 0.961 . S
C603 C600 1.539 . S
C603 H617 0.958 . S
C603 H618 0.961 1_554 S
C603 H619 0.960 1_554 S
H604 C588 0.931 . S
H605 C593 0.929 . S
H606 C594 0.960 . S
H607 C594 0.962 . S
H608 C594 0.960 . S
H609 C595 0.961 . S
H610 C595 0.961 . S
H611 C595 0.961 . S
H612 C596 0.931 . S
H613 C601 0.930 . S
H614 C602 0.953 1_554 S
H615 C602 0.963 . S
H616 C602 0.961 . S
H617 C603 0.958 . S
H618 C603 0.961 1_556 S
H619 C603 0.960 1_556 S
C620 C621 1.391 1_554 S
C620 C622 1.394 . S
C620 H636 0.931 . S
C621 C620 1.391 1_556 S
C621 C625 1.376 . S
C622 C620 1.394 . S
C622 C623 1.369 . S
C622 C626 1.531 . S
C623 C622 1.369 . S
C623 C624 1.410 1_554 S
C623 C631 1.503 . S
C624 C623 1.410 1_556 S
C624 C625 1.392 . S
C624 C627 1.511 . S
C625 C621 1.376 . S
C625 C624 1.392 . S
C625 H637 0.929 . S
C626 C622 1.531 . S
C626 H638 0.960 . S
C626 H639 0.962 . S
C626 H640 0.960 . S
C627 C624 1.511 . S
C627 H641 0.961 . S
C627 H642 0.961 . S
C627 H643 0.961 1_556 S
C628 C629 1.370 1_556 S
C628 C630 1.363 . S
C628 H644 0.931 . S
C629 C628 1.370 1_554 S
C629 C633 1.408 . S
C630 C628 1.363 . S
C630 C631 1.370 1_556 S
C630 C634 1.524 . S
C631 C623 1.503 . S
C631 C630 1.370 1_554 S
C631 C632 1.403 . S
C632 C631 1.403 . S
C632 C633 1.404 . S
C632 C635 1.539 . S
C633 C629 1.408 . S
C633 C632 1.404 . S
C633 H645 0.930 . S
C634 C630 1.524 . S
C634 H646 0.956 . S
C634 H647 0.961 . S
C634 H648 0.961 . S
C635 C632 1.539 . S
C635 H649 0.958 . S
C635 H650 0.961 . S
C635 H651 0.960 . S
H636 C620 0.931 . S
H637 C625 0.929 . S
H638 C626 0.960 . S
H639 C626 0.962 . S
H640 C626 0.960 . S
H641 C627 0.961 . S
H642 C627 0.961 . S
H643 C627 0.961 1_554 S
H644 C628 0.931 . S
H645 C633 0.930 . S
H646 C634 0.956 . S
H647 C634 0.961 . S
H648 C634 0.961 . S
H649 C635 0.958 . S
H650 C635 0.961 . S
H651 C635 0.960 . S
C652 C653 1.391 . S
C652 C654 1.394 . S
C652 H668 0.931 . S
C653 C652 1.391 . S
C653 C657 1.376 1_554 S
C654 C652 1.394 . S
C654 C655 1.369 . S
C654 C658 1.531 . S
C655 C654 1.369 . S
C655 C656 1.410 1_554 S
C655 C663 1.503 . S
C656 C655 1.410 1_556 S
C656 C657 1.392 . S
C656 C659 1.511 . S
C657 C653 1.376 1_556 S
C657 C656 1.392 . S
C657 H669 0.929 . S
C658 C654 1.531 . S
C658 H670 0.960 . S
C658 H671 0.962 . S
C658 H672 0.960 . S
C659 C656 1.511 . S
C659 H673 0.961 . S
C659 H674 0.961 . S
C659 H675 0.961 . S
C660 C661 1.370 . S
C660 C662 1.363 . S
C660 H676 0.931 . S
C661 C660 1.370 . S
C661 C665 1.408 1_556 S
C662 C660 1.363 . S
C662 C663 1.370 1_556 S
C662 C666 1.524 . S
C663 C655 1.503 . S
C663 C662 1.370 1_554 S
C663 C664 1.403 . S
C664 C663 1.403 . S
C664 C665 1.404 . S
C664 C667 1.539 . S
C665 C661 1.408 1_554 S
C665 C664 1.404 . S
C665 H677 0.930 . S
C666 C662 1.524 . S
C666 H678 0.956 . S
C666 H679 0.961 . S
C666 H680 0.961 . S
C667 C664 1.539 . S
C667 H681 0.958 . S
C667 H682 0.961 . S
C667 H683 0.960 . S
H668 C652 0.931 . S
H669 C657 0.929 . S
H670 C658 0.960 . S
H671 C658 0.962 . S
H672 C658 0.960 . S
H673 C659 0.961 . S
H674 C659 0.961 . S
H675 C659 0.961 . S
H676 C660 0.931 . S
H677 C665 0.930 . S
H678 C666 0.956 . S
H679 C666 0.961 . S
H680 C666 0.961 . S
H681 C667 0.958 . S
H682 C667 0.961 . S
H683 C667 0.960 . S
C684 C685 1.391 1_554 S
C684 C686 1.394 . S
C684 H700 0.931 . S
C685 C684 1.391 1_556 S
C685 C689 1.376 . S
C686 C684 1.394 . S
C686 C687 1.369 . S
C686 C690 1.531 . S
C687 C686 1.369 . S
C687 C688 1.410 1_554 S
C687 C695 1.503 . S
C688 C687 1.410 1_556 S
C688 C689 1.392 . S
C688 C691 1.511 . S
C689 C685 1.376 . S
C689 C688 1.392 . S
C689 H701 0.929 . S
C690 C686 1.531 . S
C690 H702 0.960 . S
C690 H703 0.962 . S
C690 H704 0.960 . S
C691 C688 1.511 . S
C691 H705 0.961 . S
C691 H706 0.961 . S
C691 H707 0.961 . S
C692 C693 1.370 1_556 S
C692 C694 1.363 . S
C692 H708 0.931 . S
C693 C692 1.370 1_554 S
C693 C697 1.408 . S
C694 C692 1.363 . S
C694 C695 1.370 1_556 S
C694 C698 1.524 . S
C695 C687 1.503 . S
C695 C694 1.370 1_554 S
C695 C696 1.403 . S
C696 C695 1.403 . S
C696 C697 1.404 . S
C696 C699 1.539 . S
C697 C693 1.408 . S
C697 C696 1.404 . S
C697 H709 0.930 . S
C698 C694 1.524 . S
C698 H710 0.956 . S
C698 H711 0.961 . S
C698 H712 0.961 . S
C699 C696 1.539 . S
C699 H713 0.958 . S
C699 H714 0.961 . S
C699 H715 0.960 . S
H700 C684 0.931 . S
H701 C689 0.929 . S
H702 C690 0.960 . S
H703 C690 0.962 . S
H704 C690 0.960 . S
H705 C691 0.961 . S
H706 C691 0.961 . S
H707 C691 0.961 . S
H708 C692 0.931 . S
H709 C697 0.930 . S
H710 C698 0.956 . S
H711 C698 0.961 . S
H712 C698 0.961 . S
H713 C699 0.958 . S
H714 C699 0.961 . S
H715 C699 0.960 . S
C716 C717 1.391 . S
C716 C718 1.394 . S
C716 H732 0.931 . S
C717 C716 1.391 . S
C717 C721 1.380 . S
C718 C716 1.394 . S
C718 C719 1.369 . S
C718 C722 1.531 . S
C719 C718 1.369 . S
C719 C720 1.407 1_556 S
C719 C727 1.503 . S
C720 C719 1.407 1_554 S
C720 C721 1.392 1_554 S
C720 C723 1.515 . S
C721 C717 1.380 . S
C721 C720 1.392 1_556 S
C721 H733 0.925 1_556 S
C722 C718 1.531 . S
C722 H734 0.960 . S
C722 H735 0.962 . S
C722 H736 0.960 . S
C723 C720 1.515 . S
C723 H737 0.961 . S
C723 H738 0.961 . S
C723 H739 0.961 1_554 S
C724 C725 1.370 . S
C724 C726 1.363 . S
C724 H740 0.931 . S
C725 C724 1.370 . S
C725 C729 1.408 1_554 S
C726 C724 1.363 . S
C726 C727 1.370 1_554 S
C726 C730 1.524 . S
C727 C719 1.503 . S
C727 C726 1.370 1_556 S
C727 C728 1.403 . S
C728 C727 1.403 . S
C728 C729 1.404 . S
C728 C731 1.539 . S
C729 C725 1.408 1_556 S
C729 C728 1.404 . S
C729 H741 0.930 . S
C730 C726 1.524 . S
C730 H742 0.956 . S
C730 H743 0.961 . S
C730 H744 0.961 . S
C731 C728 1.539 . S
C731 H745 0.958 . S
C731 H746 0.961 . S
C731 H747 0.960 . S
H732 C716 0.931 . S
H733 C721 0.925 1_554 S
H734 C722 0.960 . S
H735 C722 0.962 . S
H736 C722 0.960 . S
H737 C723 0.961 . S
H738 C723 0.961 . S
H739 C723 0.961 1_556 S
H740 C724 0.931 . S
H741 C729 0.930 . S
H742 C730 0.956 . S
H743 C730 0.961 . S
H744 C730 0.961 . S
H745 C731 0.958 . S
H746 C731 0.961 . S
H747 C731 0.960 . S
C748 C749 1.391 1_554 S
C748 C750 1.394 . S
C748 H764 0.931 . S
C749 C748 1.391 1_556 S
C749 C753 1.376 . S
C750 C748 1.394 . S
C750 C751 1.369 1_554 S
C750 C754 1.531 . S
C751 C750 1.369 1_556 S
C751 C752 1.410 . S
C751 C759 1.503 . S
C752 C751 1.410 . S
C752 C753 1.392 . S
C752 C755 1.511 . S
C753 C749 1.376 . S
C753 C752 1.392 . S
C753 H765 0.929 . S
C754 C750 1.531 . S
C754 H766 0.960 . S
C754 H767 0.962 . S
C754 H768 0.960 . S
C755 C752 1.511 . S
C755 H769 0.961 . S
C755 H770 0.961 . S
C755 H771 0.961 . S
C756 C757 1.370 . S
C756 C758 1.363 . S
C756 H772 0.931 . S
C757 C756 1.370 . S
C757 C761 1.408 1_554 S
C758 C756 1.363 . S
C758 C759 1.370 1_554 S
C758 C762 1.524 . S
C759 C751 1.503 . S
C759 C758 1.370 1_556 S
C759 C760 1.403 . S
C760 C759 1.403 . S
C760 C761 1.404 . S
C760 C763 1.539 . S
C761 C757 1.408 1_556 S
C761 C760 1.404 . S
C761 H773 0.930 . S
C762 C758 1.524 . S
C762 H774 0.956 . S
C762 H775 0.961 . S
C762 H776 0.961 . S
C763 C760 1.539 . S
C763 H777 0.958 . S
C763 H778 0.961 . S
C763 H779 0.960 . S
H764 C748 0.931 . S
H765 C753 0.929 . S
H766 C754 0.960 . S
H767 C754 0.962 . S
H768 C754 0.960 . S
H769 C755 0.961 . S
H770 C755 0.961 . S
H771 C755 0.961 . S
H772 C756 0.931 . S
H773 C761 0.930 . S
H774 C762 0.956 . S
H775 C762 0.961 . S
H776 C762 0.961 . S
H777 C763 0.958 . S
H778 C763 0.961 . S
H779 C763 0.960 . S
C780 C781 1.391 . S
C780 C782 1.394 . S
C780 H796 0.931 . S
C781 C780 1.391 . S
C781 C785 1.376 . S
C782 C780 1.394 . S
C782 C783 1.369 . S
C782 C786 1.531 . S
C783 C782 1.369 . S
C783 C784 1.410 . S
C783 C791 1.503 . S
C784 C783 1.410 . S
C784 C785 1.392 . S
C784 C787 1.511 . S
C785 C781 1.376 . S
C785 C784 1.392 . S
C785 H797 0.929 . S
C786 C782 1.531 . S
C786 H798 0.960 . S
C786 H799 0.962 . S
C786 H800 0.960 . S
C787 C784 1.511 . S
C787 H801 0.961 . S
C787 H802 0.961 . S
C787 H803 0.961 . S
C788 C789 1.370 . S
C788 C790 1.363 . S
C788 H804 0.931 . S
C789 C788 1.370 . S
C789 C793 1.408 . S
C790 C788 1.363 . S
C790 C791 1.370 . S
C790 C794 1.524 . S
C791 C783 1.503 . S
C791 C790 1.370 . S
C791 C792 1.403 . S
C792 C791 1.403 . S
C792 C793 1.404 . S
C792 C795 1.539 . S
C793 C789 1.408 . S
C793 C792 1.404 . S
C793 H805 0.930 . S
C794 C790 1.524 . S
C794 H806 0.956 . S
C794 H807 0.961 . S
C794 H808 0.961 . S
C795 C792 1.539 . S
C795 H809 0.958 . S
C795 H810 0.961 . S
C795 H811 0.960 . S
H796 C780 0.931 . S
H797 C785 0.929 . S
H798 C786 0.960 . S
H799 C786 0.962 . S
H800 C786 0.960 . S
H801 C787 0.961 . S
H802 C787 0.961 . S
H803 C787 0.961 . S
H804 C788 0.931 . S
H805 C793 0.930 . S
H806 C794 0.956 . S
H807 C794 0.961 . S
H808 C794 0.961 . S
H809 C795 0.958 . S
H810 C795 0.961 . S
H811 C795 0.960 . S
C812 C813 1.391 . S
C812 C814 1.394 . S
C812 H828 0.931 . S
C813 C812 1.391 . S
C813 C817 1.376 . S
C814 C812 1.394 . S
C814 C815 1.369 . S
C814 C818 1.531 . S
C815 C814 1.369 . S
C815 C816 1.410 . S
C815 C823 1.503 . S
C816 C815 1.410 . S
C816 C817 1.392 . S
C816 C819 1.511 . S
C817 C813 1.376 . S
C817 C816 1.392 . S
C817 H829 0.929 . S
C818 C814 1.531 . S
C818 H830 0.960 . S
C818 H831 0.962 . S
C818 H832 0.960 . S
C819 C816 1.511 . S
C819 H833 0.961 . S
C819 H834 0.961 . S
C819 H835 0.961 . S
C820 C821 1.370 . S
C820 C822 1.363 . S
C820 H836 0.931 . S
C821 C820 1.370 . S
C821 C825 1.408 . S
C822 C820 1.363 . S
C822 C823 1.370 . S
C822 C826 1.524 . S
C823 C815 1.503 . S
C823 C822 1.370 . S
C823 C824 1.403 . S
C824 C823 1.403 . S
C824 C825 1.404 . S
C824 C827 1.539 . S
C825 C821 1.408 . S
C825 C824 1.404 . S
C825 H837 0.930 . S
C826 C822 1.524 . S
C826 H838 0.956 . S
C826 H839 0.961 . S
C826 H840 0.961 . S
C827 C824 1.539 . S
C827 H841 0.958 . S
C827 H842 0.961 . S
C827 H843 0.960 . S
H828 C812 0.931 . S
H829 C817 0.929 . S
H830 C818 0.960 . S
H831 C818 0.962 . S
H832 C818 0.960 . S
H833 C819 0.961 . S
H834 C819 0.961 . S
H835 C819 0.961 . S
H836 C820 0.931 . S
H837 C825 0.930 . S
H838 C826 0.956 . S
H839 C826 0.961 . S
H840 C826 0.961 . S
H841 C827 0.958 . S
H842 C827 0.961 . S
H843 C827 0.960 . S
C844 C845 1.391 . S
C844 C846 1.394 . S
C844 H860 0.931 . S
C845 C844 1.391 . S
C845 C849 1.376 . S
C846 C844 1.394 . S
C846 C847 1.369 . S
C846 C850 1.531 . S
C847 C846 1.369 . S
C847 C848 1.410 . S
C847 C855 1.503 . S
C848 C847 1.410 . S
C848 C849 1.392 . S
C848 C851 1.511 . S
C849 C845 1.376 . S
C849 C848 1.392 . S
C849 H861 0.929 . S
C850 C846 1.531 . S
C850 H862 0.960 . S
C850 H863 0.962 . S
C850 H864 0.960 . S
C851 C848 1.511 . S
C851 H865 0.961 . S
C851 H866 0.961 . S
C851 H867 0.961 . S
C852 C853 1.370 . S
C852 C854 1.363 . S
C852 H868 0.931 . S
C853 C852 1.370 . S
C853 C857 1.408 . S
C854 C852 1.363 . S
C854 C855 1.370 . S
C854 C858 1.524 . S
C855 C847 1.503 . S
C855 C854 1.370 . S
C855 C856 1.403 . S
C856 C855 1.403 . S
C856 C857 1.404 . S
C856 C859 1.539 . S
C857 C853 1.408 . S
C857 C856 1.404 . S
C857 H869 0.930 . S
C858 C854 1.524 . S
C858 H870 0.956 . S
C858 H871 0.961 . S
C858 H872 0.961 . S
C859 C856 1.539 . S
C859 H873 0.958 . S
C859 H874 0.961 . S
C859 H875 0.960 . S
H860 C844 0.931 . S
H861 C849 0.929 . S
H862 C850 0.960 . S
H863 C850 0.962 . S
H864 C850 0.960 . S
H865 C851 0.961 . S
H866 C851 0.961 . S
H867 C851 0.961 . S
H868 C852 0.931 . S
H869 C857 0.930 . S
H870 C858 0.956 . S
H871 C858 0.961 . S
H872 C858 0.961 . S
H873 C859 0.958 . S
H874 C859 0.961 . S
H875 C859 0.960 . S
C876 C877 1.391 . S
C876 C878 1.394 . S
C876 H892 0.931 . S
C877 C876 1.391 . S
C877 C881 1.376 . S
C878 C876 1.394 . S
C878 C879 1.369 . S
C878 C882 1.531 . S
C879 C878 1.369 . S
C879 C880 1.410 . S
C879 C887 1.503 . S
C880 C879 1.410 . S
C880 C881 1.392 . S
C880 C883 1.511 . S
C881 C877 1.376 . S
C881 C880 1.392 . S
C881 H893 0.929 . S
C882 C878 1.531 . S
C882 H894 0.960 . S
C882 H895 0.962 . S
C882 H896 0.960 . S
C883 C880 1.511 . S
C883 H897 0.961 . S
C883 H898 0.961 . S
C883 H899 0.961 . S
C884 C885 1.370 . S
C884 C886 1.363 . S
C884 H900 0.931 . S
C885 C884 1.370 . S
C885 C889 1.408 . S
C886 C884 1.363 . S
C886 C887 1.370 . S
C886 C890 1.524 . S
C887 C879 1.503 . S
C887 C886 1.370 . S
C887 C888 1.403 . S
C888 C887 1.403 . S
C888 C889 1.404 . S
C888 C891 1.539 . S
C889 C885 1.408 . S
C889 C888 1.404 . S
C889 H901 0.930 . S
C890 C886 1.524 . S
C890 H902 0.956 . S
C890 H903 0.961 . S
C890 H904 0.961 . S
C891 C888 1.539 . S
C891 H905 0.958 . S
C891 H906 0.961 . S
C891 H907 0.960 . S
H892 C876 0.931 . S
H893 C881 0.929 . S
H894 C882 0.960 . S
H895 C882 0.962 . S
H896 C882 0.960 . S
H897 C883 0.961 . S
H898 C883 0.961 . S
H899 C883 0.961 . S
H900 C884 0.931 . S
H901 C889 0.930 . S
H902 C890 0.956 . S
H903 C890 0.961 . S
H904 C890 0.961 . S
H905 C891 0.958 . S
H906 C891 0.961 . S
H907 C891 0.960 . S
C908 C909 1.391 . S
C908 C910 1.394 . S
C908 H924 0.931 . S
C909 C908 1.391 . S
C909 C913 1.376 . S
C910 C908 1.394 . S
C910 C911 1.369 . S
C910 C914 1.531 . S
C911 C910 1.369 . S
C911 C912 1.410 . S
C911 C919 1.503 . S
C912 C911 1.410 . S
C912 C913 1.392 . S
C912 C915 1.511 . S
C913 C909 1.376 . S
C913 C912 1.392 . S
C913 H925 0.929 . S
C914 C910 1.531 . S
C914 H926 0.960 . S
C914 H927 0.962 . S
C914 H928 0.960 . S
C915 C912 1.511 . S
C915 H929 0.961 . S
C915 H930 0.961 . S
C915 H931 0.961 . S
C916 C917 1.370 . S
C916 C918 1.363 . S
C916 H932 0.931 . S
C917 C916 1.370 . S
C917 C921 1.408 . S
C918 C916 1.363 . S
C918 C919 1.370 . S
C918 C922 1.524 . S
C919 C911 1.503 . S
C919 C918 1.370 . S
C919 C920 1.403 . S
C920 C919 1.403 . S
C920 C921 1.404 . S
C920 C923 1.539 . S
C921 C917 1.408 . S
C921 C920 1.404 . S
C921 H933 0.930 . S
C922 C918 1.524 . S
C922 H934 0.956 . S
C922 H935 0.961 . S
C922 H936 0.961 . S
C923 C920 1.539 . S
C923 H937 0.958 . S
C923 H938 0.961 . S
C923 H939 0.960 . S
H924 C908 0.931 . S
H925 C913 0.929 . S
H926 C914 0.960 . S
H927 C914 0.962 . S
H928 C914 0.960 . S
H929 C915 0.961 . S
H930 C915 0.961 . S
H931 C915 0.961 . S
H932 C916 0.931 . S
H933 C921 0.930 . S
H934 C922 0.956 . S
H935 C922 0.961 . S
H936 C922 0.961 . S
H937 C923 0.958 . S
H938 C923 0.961 . S
H939 C923 0.960 . S
C940 C941 1.391 . S
C940 C942 1.394 . S
C940 H956 0.931 . S
C941 C940 1.391 . S
C941 C945 1.376 . S
C942 C940 1.394 . S
C942 C943 1.369 . S
C942 C946 1.531 . S
C943 C942 1.369 . S
C943 C944 1.410 . S
C943 C951 1.503 . S
C944 C943 1.410 . S
C944 C945 1.392 . S
C944 C947 1.511 . S
C945 C941 1.376 . S
C945 C944 1.392 . S
C945 H957 0.929 . S
C946 C942 1.531 . S
C946 H958 0.960 . S
C946 H959 0.962 . S
C946 H960 0.960 . S
C947 C944 1.511 . S
C947 H961 0.961 . S
C947 H962 0.961 . S
C947 H963 0.961 . S
C948 C949 1.370 . S
C948 C950 1.363 . S
C948 H964 0.931 . S
C949 C948 1.370 . S
C949 C953 1.408 . S
C950 C948 1.363 . S
C950 C951 1.370 . S
C950 C954 1.524 . S
C951 C943 1.503 . S
C951 C950 1.370 . S
C951 C952 1.403 . S
C952 C951 1.403 . S
C952 C953 1.404 . S
C952 C955 1.539 . S
C953 C949 1.408 . S
C953 C952 1.404 . S
C953 H965 0.930 . S
C954 C950 1.524 . S
C954 H966 0.956 . S
C954 H967 0.961 . S
C954 H968 0.961 . S
C955 C952 1.539 . S
C955 H969 0.958 . S
C955 H970 0.961 . S
C955 H971 0.960 . S
H956 C940 0.931 . S
H957 C945 0.929 . S
H958 C946 0.960 . S
H959 C946 0.962 . S
H960 C946 0.960 . S
H961 C947 0.961 . S
H962 C947 0.961 . S
H963 C947 0.961 . S
H964 C948 0.931 . S
H965 C953 0.930 . S
H966 C954 0.956 . S
H967 C954 0.961 . S
H968 C954 0.961 . S
H969 C955 0.958 . S
H970 C955 0.961 . S
H971 C955 0.960 . S
C972 C973 1.391 . S
C972 C974 1.394 . S
C972 H988 0.931 . S
C973 C972 1.391 . S
C973 C977 1.376 . S
C974 C972 1.394 . S
C974 C975 1.369 . S
C974 C978 1.531 . S
C975 C974 1.369 . S
C975 C976 1.410 . S
C975 C983 1.503 . S
C976 C975 1.410 . S
C976 C977 1.392 . S
C976 C979 1.511 . S
C977 C973 1.376 . S
C977 C976 1.392 . S
C977 H989 0.929 . S
C978 C974 1.531 . S
C978 H990 0.960 . S
C978 H991 0.962 . S
C978 H992 0.960 . S
C979 C976 1.511 . S
C979 H993 0.961 . S
C979 H994 0.961 . S
C979 H995 0.961 . S
C980 C981 1.370 . S
C980 C982 1.363 . S
C980 H996 0.931 . S
C981 C980 1.370 . S
C981 C985 1.408 . S
C982 C980 1.363 . S
C982 C983 1.370 . S
C982 C986 1.524 . S
C983 C975 1.503 . S
C983 C982 1.370 . S
C983 C984 1.403 . S
C984 C983 1.403 . S
C984 C985 1.404 . S
C984 C987 1.539 . S
C985 C981 1.408 . S
C985 C984 1.404 . S
C985 H997 0.930 . S
C986 C982 1.524 . S
C986 H998 0.956 . S
C986 H999 0.961 . S
C986 H1000 0.961 . S
C987 C984 1.539 . S
C987 H1001 0.958 . S
C987 H1002 0.961 . S
C987 H1003 0.960 . S
H988 C972 0.931 . S
H989 C977 0.929 . S
H990 C978 0.960 . S
H991 C978 0.962 . S
H992 C978 0.960 . S
H993 C979 0.961 . S
H994 C979 0.961 . S
H995 C979 0.961 . S
H996 C980 0.931 . S
H997 C985 0.930 . S
H998 C986 0.956 . S
H999 C986 0.961 . S
H1000 C986 0.961 . S
H1001 C987 0.958 . S
H1002 C987 0.961 . S
H1003 C987 0.960 . S
C1004 C1005 1.391 . S
C1004 C1006 1.394 . S
C1004 H1020 0.931 . S
C1005 C1004 1.391 . S
C1005 C1009 1.376 . S
C1006 C1004 1.394 . S
C1006 C1007 1.369 . S
C1006 C1010 1.531 . S
C1007 C1006 1.369 . S
C1007 C1008 1.410 . S
C1007 C1015 1.503 . S
C1008 C1007 1.410 . S
C1008 C1009 1.392 . S
C1008 C1011 1.511 . S
C1009 C1005 1.376 . S
C1009 C1008 1.392 . S
C1009 H1021 0.929 . S
C1010 C1006 1.531 . S
C1010 H1022 0.960 . S
C1010 H1023 0.962 . S
C1010 H1024 0.960 . S
C1011 C1008 1.511 . S
C1011 H1025 0.961 . S
C1011 H1026 0.961 . S
C1011 H1027 0.961 . S
C1012 C1013 1.370 . S
C1012 C1014 1.363 . S
C1012 H1028 0.931 . S
C1013 C1012 1.370 . S
C1013 C1017 1.408 . S
C1014 C1012 1.363 . S
C1014 C1015 1.370 . S
C1014 C1018 1.524 . S
C1015 C1007 1.503 . S
C1015 C1014 1.370 . S
C1015 C1016 1.403 . S
C1016 C1015 1.403 . S
C1016 C1017 1.404 . S
C1016 C1019 1.539 . S
C1017 C1013 1.408 . S
C1017 C1016 1.404 . S
C1017 H1029 0.930 . S
C1018 C1014 1.524 . S
C1018 H1030 0.956 . S
C1018 H1031 0.961 . S
C1018 H1032 0.961 . S
C1019 C1016 1.539 . S
C1019 H1033 0.958 . S
C1019 H1034 0.961 . S
C1019 H1035 0.960 . S
H1020 C1004 0.931 . S
H1021 C1009 0.929 . S
H1022 C1010 0.960 . S
H1023 C1010 0.962 . S
H1024 C1010 0.960 . S
H1025 C1011 0.961 . S
H1026 C1011 0.961 . S
H1027 C1011 0.961 . S
H1028 C1012 0.931 . S
H1029 C1017 0.930 . S
H1030 C1018 0.956 . S
H1031 C1018 0.961 . S
H1032 C1018 0.961 . S
H1033 C1019 0.958 . S
H1034 C1019 0.961 . S
H1035 C1019 0.960 . S
C1036 C1037 1.391 . S
C1036 C1038 1.394 . S
C1036 H1052 0.931 . S
C1037 C1036 1.391 . S
C1037 C1041 1.376 . S
C1038 C1036 1.394 . S
C1038 C1039 1.369 . S
C1038 C1042 1.531 . S
C1039 C1038 1.369 . S
C1039 C1040 1.410 . S
C1039 C1047 1.503 . S
C1040 C1039 1.410 . S
C1040 C1041 1.392 . S
C1040 C1043 1.511 . S
C1041 C1037 1.376 . S
C1041 C1040 1.392 . S
C1041 H1053 0.929 . S
C1042 C1038 1.531 . S
C1042 H1054 0.960 . S
C1042 H1055 0.962 . S
C1042 H1056 0.960 . S
C1043 C1040 1.511 . S
C1043 H1057 0.961 . S
C1043 H1058 0.961 . S
C1043 H1059 0.961 . S
C1044 C1045 1.370 . S
C1044 C1046 1.363 . S
C1044 H1060 0.931 . S
C1045 C1044 1.370 . S
C1045 C1049 1.408 . S
C1046 C1044 1.363 . S
C1046 C1047 1.370 . S
C1046 C1050 1.524 . S
C1047 C1039 1.503 . S
C1047 C1046 1.370 . S
C1047 C1048 1.403 . S
C1048 C1047 1.403 . S
C1048 C1049 1.404 . S
C1048 C1051 1.539 . S
C1049 C1045 1.408 . S
C1049 C1048 1.404 . S
C1049 H1061 0.930 . S
C1050 C1046 1.524 . S
C1050 H1062 0.956 . S
C1050 H1063 0.961 . S
C1050 H1064 0.961 . S
C1051 C1048 1.539 . S
C1051 H1065 0.958 . S
C1051 H1066 0.961 . S
C1051 H1067 0.960 . S
H1052 C1036 0.931 . S
H1053 C1041 0.929 . S
H1054 C1042 0.960 . S
H1055 C1042 0.962 . S
H1056 C1042 0.960 . S
H1057 C1043 0.961 . S
H1058 C1043 0.961 . S
H1059 C1043 0.961 . S
H1060 C1044 0.931 . S
H1061 C1049 0.930 . S
H1062 C1050 0.956 . S
H1063 C1050 0.961 . S
H1064 C1050 0.961 . S
H1065 C1051 0.958 . S
H1066 C1051 0.961 . S
H1067 C1051 0.960 . S
C1068 C1069 1.391 . S
C1068 C1070 1.394 . S
C1068 H1084 0.931 . S
C1069 C1068 1.391 . S
C1069 C1073 1.376 . S
C1070 C1068 1.394 . S
C1070 C1071 1.369 . S
C1070 C1074 1.531 . S
C1071 C1070 1.369 . S
C1071 C1072 1.410 . S
C1071 C1079 1.503 . S
C1072 C1071 1.410 . S
C1072 C1073 1.392 . S
C1072 C1075 1.511 . S
C1073 C1069 1.376 . S
C1073 C1072 1.392 . S
C1073 H1085 0.929 . S
C1074 C1070 1.531 . S
C1074 H1086 0.960 . S
C1074 H1087 0.962 . S
C1074 H1088 0.960 . S
C1075 C1072 1.511 . S
C1075 H1089 0.961 . S
C1075 H1090 0.961 . S
C1075 H1091 0.961 . S
C1076 C1077 1.370 . S
C1076 C1078 1.363 . S
C1076 H1092 0.931 . S
C1077 C1076 1.370 . S
C1077 C1081 1.408 . S
C1078 C1076 1.363 . S
C1078 C1079 1.370 . S
C1078 C1082 1.524 . S
C1079 C1071 1.503 . S
C1079 C1078 1.370 . S
C1079 C1080 1.403 . S
C1080 C1079 1.403 . S
C1080 C1081 1.404 . S
C1080 C1083 1.539 . S
C1081 C1077 1.408 . S
C1081 C1080 1.404 . S
C1081 H1093 0.930 . S
C1082 C1078 1.524 . S
C1082 H1094 0.956 . S
C1082 H1095 0.961 . S
C1082 H1096 0.961 . S
C1083 C1080 1.539 . S
C1083 H1097 0.958 . S
C1083 H1098 0.961 . S
C1083 H1099 0.960 . S
H1084 C1068 0.931 . S
H1085 C1073 0.929 . S
H1086 C1074 0.960 . S
H1087 C1074 0.962 . S
H1088 C1074 0.960 . S
H1089 C1075 0.961 . S
H1090 C1075 0.961 . S
H1091 C1075 0.961 . S
H1092 C1076 0.931 . S
H1093 C1081 0.930 . S
H1094 C1082 0.956 . S
H1095 C1082 0.961 . S
H1096 C1082 0.961 . S
H1097 C1083 0.958 . S
H1098 C1083 0.961 . S
H1099 C1083 0.960 . S
C1100 C1101 1.391 . S
C1100 C1102 1.394 . S
C1100 H1116 0.931 . S
C1101 C1100 1.391 . S
C1101 C1105 1.376 . S
C1102 C1100 1.394 . S
C1102 C1103 1.369 . S
C1102 C1106 1.531 . S
C1103 C1102 1.369 . S
C1103 C1104 1.410 . S
C1103 C1111 1.503 . S
C1104 C1103 1.410 . S
C1104 C1105 1.392 . S
C1104 C1107 1.511 . S
C1105 C1101 1.376 . S
C1105 C1104 1.392 . S
C1105 H1117 0.929 . S
C1106 C1102 1.531 . S
C1106 H1118 0.960 . S
C1106 H1119 0.962 . S
C1106 H1120 0.960 . S
C1107 C1104 1.511 . S
C1107 H1121 0.961 . S
C1107 H1122 0.961 . S
C1107 H1123 0.961 . S
C1108 C1109 1.370 . S
C1108 C1110 1.363 . S
C1108 H1124 0.931 . S
C1109 C1108 1.370 . S
C1109 C1113 1.408 . S
C1110 C1108 1.363 . S
C1110 C1111 1.370 . S
C1110 C1114 1.524 . S
C1111 C1103 1.503 . S
C1111 C1110 1.370 . S
C1111 C1112 1.403 . S
C1112 C1111 1.403 . S
C1112 C1113 1.404 . S
C1112 C1115 1.539 . S
C1113 C1109 1.408 . S
C1113 C1112 1.404 . S
C1113 H1125 0.930 . S
C1114 C1110 1.524 . S
C1114 H1126 0.956 . S
C1114 H1127 0.961 . S
C1114 H1128 0.961 . S
C1115 C1112 1.539 . S
C1115 H1129 0.958 . S
C1115 H1130 0.961 . S
C1115 H1131 0.960 . S
H1116 C1100 0.931 . S
H1117 C1105 0.929 . S
H1118 C1106 0.960 . S
H1119 C1106 0.962 . S
H1120 C1106 0.960 . S
H1121 C1107 0.961 . S
H1122 C1107 0.961 . S
H1123 C1107 0.961 . S
H1124 C1108 0.931 . S
H1125 C1113 0.930 . S
H1126 C1114 0.956 . S
H1127 C1114 0.961 . S
H1128 C1114 0.961 . S
H1129 C1115 0.958 . S
H1130 C1115 0.961 . S
H1131 C1115 0.960 . S
C1132 C1133 1.391 . S
C1132 C1134 1.394 . S
C1132 H1148 0.931 . S
C1133 C1132 1.391 . S
C1133 C1137 1.376 . S
C1134 C1132 1.394 . S
C1134 C1135 1.369 . S
C1134 C1138 1.531 . S
C1135 C1134 1.369 . S
C1135 C1136 1.410 . S
C1135 C1143 1.503 . S
C1136 C1135 1.410 . S
C1136 C1137 1.392 . S
C1136 C1139 1.511 . S
C1137 C1133 1.376 . S
C1137 C1136 1.392 . S
C1137 H1149 0.929 . S
C1138 C1134 1.531 . S
C1138 H1150 0.960 . S
C1138 H1151 0.962 . S
C1138 H1152 0.960 . S
C1139 C1136 1.511 . S
C1139 H1153 0.961 . S
C1139 H1154 0.961 . S
C1139 H1155 0.961 . S
C1140 C1141 1.370 . S
C1140 C1142 1.363 . S
C1140 H1156 0.931 . S
C1141 C1140 1.370 . S
C1141 C1145 1.408 . S
C1142 C1140 1.363 . S
C1142 C1143 1.370 . S
C1142 C1146 1.524 . S
C1143 C1135 1.503 . S
C1143 C1142 1.370 . S
C1143 C1144 1.403 . S
C1144 C1143 1.403 . S
C1144 C1145 1.404 . S
C1144 C1147 1.539 . S
C1145 C1141 1.408 . S
C1145 C1144 1.404 . S
C1145 H1157 0.930 . S
C1146 C1142 1.524 . S
C1146 H1158 0.956 . S
C1146 H1159 0.961 . S
C1146 H1160 0.961 . S
C1147 C1144 1.539 . S
C1147 H1161 0.958 . S
C1147 H1162 0.961 . S
C1147 H1163 0.960 . S
H1148 C1132 0.931 . S
H1149 C1137 0.929 . S
H1150 C1138 0.960 . S
H1151 C1138 0.962 . S
H1152 C1138 0.960 . S
H1153 C1139 0.961 . S
H1154 C1139 0.961 . S
H1155 C1139 0.961 . S
H1156 C1140 0.931 . S
H1157 C1145 0.930 . S
H1158 C1146 0.956 . S
H1159 C1146 0.961 . S
H1160 C1146 0.961 . S
H1161 C1147 0.958 . S
H1162 C1147 0.961 . S
H1163 C1147 0.960 . S
C1164 C1165 1.391 1_554 S
C1164 C1166 1.394 . S
C1164 H1180 0.931 . S
C1165 C1164 1.391 1_556 S
C1165 C1169 1.376 . S
C1166 C1164 1.394 . S
C1166 C1167 1.361 1_554 S
C1166 C1170 1.531 . S
C1167 C1166 1.361 1_556 S
C1167 C1168 1.418 . S
C1167 C1175 1.503 1_456 S
C1168 C1167 1.418 . S
C1168 C1169 1.392 . S
C1168 C1171 1.511 . S
C1169 C1165 1.376 . S
C1169 C1168 1.392 . S
C1169 H1181 0.929 . S
C1170 C1166 1.531 . S
C1170 H1182 0.992 . S
C1170 H1183 0.962 . S
C1170 H1184 0.960 . S
C1171 C1168 1.511 . S
C1171 H1185 0.961 . S
C1171 H1186 0.961 1_455 S
C1171 H1187 0.961 . S
C1172 C1173 1.370 . S
C1172 C1174 1.363 . S
C1172 H1188 0.931 . S
C1173 C1172 1.370 . S
C1173 C1177 1.408 . S
C1174 C1172 1.363 . S
C1174 C1175 1.370 . S
C1174 C1178 1.524 . S
C1175 C1167 1.503 1_654 S
C1175 C1174 1.370 . S
C1175 C1176 1.403 . S
C1176 C1175 1.403 . S
C1176 C1177 1.404 . S
C1176 C1179 1.539 1_554 S
C1177 C1173 1.408 . S
C1177 C1176 1.404 . S
C1177 H1189 0.930 . S
C1178 C1174 1.524 . S
C1178 H1190 0.952 1_655 S
C1178 H1191 0.936 1_654 S
C1178 H1192 0.961 . S
C1179 C1176 1.539 1_556 S
C1179 H1193 0.958 1_556 S
C1179 H1194 0.961 . S
C1179 H1195 0.960 . S
H1180 C1164 0.931 . S
H1181 C1169 0.929 . S
H1182 C1170 0.992 . S
H1183 C1170 0.962 . S
H1184 C1170 0.960 . S
H1185 C1171 0.961 . S
H1186 C1171 0.961 1_655 S
H1187 C1171 0.961 . S
H1188 C1172 0.931 . S
H1189 C1177 0.930 . S
H1190 C1178 0.952 1_455 S
H1191 C1178 0.936 1_456 S
H1192 C1178 0.961 . S
H1193 C1179 0.958 1_554 S
H1194 C1179 0.961 . S
H1195 C1179 0.960 . S
C1196 C1197 1.391 1_556 S
C1196 C1198 1.394 . S
C1196 H1212 0.931 . S
C1197 C1196 1.391 1_554 S
C1197 C1201 1.376 . S
C1198 C1196 1.394 . S
C1198 C1199 1.369 . S
C1198 C1202 1.531 . S
C1199 C1198 1.369 . S
C1199 C1200 1.410 1_556 S
C1199 C1207 1.503 1_565 S
C1200 C1199 1.410 1_554 S
C1200 C1201 1.392 . S
C1200 C1203 1.511 . S
C1201 C1197 1.376 . S
C1201 C1200 1.392 . S
C1201 H1213 0.929 . S
C1202 C1198 1.531 . S
C1202 H1214 0.964 . S
C1202 H1215 0.962 . S
C1202 H1216 0.960 . S
C1203 C1200 1.511 . S
C1203 H1217 0.961 . S
C1203 H1218 0.961 1_565 S
C1203 H1219 0.961 . S
C1204 C1205 1.370 1_554 S
C1204 C1206 1.363 . S
C1204 H1220 0.931 . S
C1205 C1204 1.370 1_556 S
C1205 C1209 1.408 . S
C1206 C1204 1.363 . S
C1206 C1207 1.370 1_554 S
C1206 C1210 1.524 . S
C1207 C1199 1.503 1_545 S
C1207 C1206 1.370 1_556 S
C1207 C1208 1.403 . S
C1208 C1207 1.403 . S
C1208 C1209 1.404 . S
C1208 C1211 1.539 . S
C1209 C1205 1.408 . S
C1209 C1208 1.404 . S
C1209 H1221 0.930 . S
C1210 C1206 1.524 . S
C1210 H1222 0.956 . S
C1210 H1223 0.961 . S
C1210 H1224 0.961 . S
C1211 C1208 1.539 . S
C1211 H1225 0.958 . S
C1211 H1226 0.961 . S
C1211 H1227 0.960 1_545 S
H1212 C1196 0.931 . S
H1213 C1201 0.929 . S
H1214 C1202 0.964 . S
H1215 C1202 0.962 . S
H1216 C1202 0.960 . S
H1217 C1203 0.961 . S
H1218 C1203 0.961 1_545 S
H1219 C1203 0.961 . S
H1220 C1204 0.931 . S
H1221 C1209 0.930 . S
H1222 C1210 0.956 . S
H1223 C1210 0.961 . S
H1224 C1210 0.961 . S
H1225 C1211 0.958 . S
H1226 C1211 0.961 . S
H1227 C1211 0.960 1_565 S
C1228 C1229 1.391 . S
C1228 C1230 1.394 . S
C1228 H1244 0.931 . S
C1229 C1228 1.391 . S
C1229 C1233 1.376 1_554 S
C1230 C1228 1.394 . S
C1230 C1231 1.369 1_554 S
C1230 C1234 1.531 . S
C1231 C1230 1.369 1_556 S
C1231 C1232 1.410 . S
C1231 C1239 1.503 . S
C1232 C1231 1.410 . S
C1232 C1233 1.392 . S
C1232 C1235 1.511 . S
C1233 C1229 1.376 1_556 S
C1233 C1232 1.392 . S
C1233 H1245 0.929 . S
C1234 C1230 1.531 . S
C1234 H1246 0.960 1_554 S
C1234 H1247 0.962 . S
C1234 H1248 0.960 . S
C1235 C1232 1.511 . S
C1235 H1249 0.961 . S
C1235 H1250 0.961 . S
C1235 H1251 0.961 . S
C1236 C1237 1.370 1_554 S
C1236 C1238 1.363 . S
C1236 H1252 0.931 . S
C1237 C1236 1.370 1_556 S
C1237 C1241 1.408 . S
C1238 C1236 1.363 . S
C1238 C1239 1.370 1_554 S
C1238 C1242 1.524 . S
C1239 C1231 1.503 . S
C1239 C1238 1.370 1_556 S
C1239 C1240 1.403 . S
C1240 C1239 1.403 . S
C1240 C1241 1.404 . S
C1240 C1243 1.539 . S
C1241 C1237 1.408 . S
C1241 C1240 1.404 . S
C1241 H1253 0.930 . S
C1242 C1238 1.524 . S
C1242 H1254 0.956 . S
C1242 H1255 0.961 . S
C1242 H1256 0.961 . S
C1243 C1240 1.539 . S
C1243 H1257 0.958 . S
C1243 H1258 0.961 . S
C1243 H1259 0.960 . S
H1244 C1228 0.931 . S
H1245 C1233 0.929 . S
H1246 C1234 0.960 1_556 S
H1247 C1234 0.962 . S
H1248 C1234 0.960 . S
H1249 C1235 0.961 . S
H1250 C1235 0.961 . S
H1251 C1235 0.961 . S
H1252 C1236 0.931 . S
H1253 C1241 0.930 . S
H1254 C1242 0.956 . S
H1255 C1242 0.961 . S
H1256 C1242 0.961 . S
H1257 C1243 0.958 . S
H1258 C1243 0.961 . S
H1259 C1243 0.960 . S
C1260 C1261 1.391 1_556 S
C1260 C1262 1.394 . S
C1260 H1276 0.931 . S
C1261 C1260 1.391 1_554 S
C1261 C1265 1.376 . S
C1262 C1260 1.394 . S
C1262 C1263 1.381 . S
C1262 C1266 1.531 . S
C1263 C1262 1.381 . S
C1263 C1264 1.396 1_556 S
C1263 C1271 1.504 1_455 S
C1264 C1263 1.396 1_554 S
C1264 C1265 1.392 . S
C1264 C1267 1.511 . S
C1265 C1261 1.376 . S
C1265 C1264 1.392 . S
C1265 H1277 0.929 . S
C1266 C1262 1.531 . S
C1266 H1278 0.986 . S
C1266 H1279 0.962 . S
C1266 H1280 0.960 . S
C1267 C1264 1.511 . S
C1267 H1281 0.961 . S
C1267 H1282 0.961 1_455 S
C1267 H1283 0.961 . S
C1268 C1269 1.370 1_554 S
C1268 C1270 1.363 . S
C1268 H1284 0.931 . S
C1269 C1268 1.370 1_556 S
C1269 C1273 1.408 . S
C1270 C1268 1.363 . S
C1270 C1271 1.370 1_554 S
C1270 C1274 1.524 . S
C1271 C1263 1.504 1_655 S
C1271 C1270 1.370 1_556 S
C1271 C1272 1.403 . S
C1272 C1271 1.403 . S
C1272 C1273 1.404 . S
C1272 C1275 1.539 . S
C1273 C1269 1.408 . S
C1273 C1272 1.404 . S
C1273 H1285 0.930 . S
C1274 C1270 1.524 . S
C1274 H1286 0.977 . S
C1274 H1287 0.972 . S
C1274 H1288 0.961 . S
C1275 C1272 1.539 . S
C1275 H1289 0.958 . S
C1275 H1290 0.961 . S
C1275 H1291 0.953 1_655 S
H1276 C1260 0.931 . S
H1277 C1265 0.929 . S
H1278 C1266 0.986 . S
H1279 C1266 0.962 . S
H1280 C1266 0.960 . S
H1281 C1267 0.961 . S
H1282 C1267 0.961 1_655 S
H1283 C1267 0.961 . S
H1284 C1268 0.931 . S
H1285 C1273 0.930 . S
H1286 C1274 0.977 . S
H1287 C1274 0.972 . S
H1288 C1274 0.961 . S
H1289 C1275 0.958 . S
H1290 C1275 0.961 . S
H1291 C1275 0.953 1_455 S
C1292 C1293 1.391 . S
C1292 C1294 1.394 1_556 S
C1292 H1308 0.931 . S
C1293 C1292 1.391 . S
C1293 C1297 1.376 1_556 S
C1294 C1292 1.394 1_554 S
C1294 C1295 1.369 . S
C1294 C1298 1.531 . S
C1295 C1294 1.369 . S
C1295 C1296 1.410 . S
C1295 C1303 1.503 1_565 S
C1296 C1295 1.410 . S
C1296 C1297 1.392 . S
C1296 C1299 1.511 . S
C1297 C1293 1.376 1_554 S
C1297 C1296 1.392 . S
C1297 H1309 0.929 . S
C1298 C1294 1.531 . S
C1298 H1310 0.960 1_565 S
C1298 H1311 0.962 1_554 S
C1298 H1312 0.960 . S
C1299 C1296 1.511 . S
C1299 H1313 0.961 . S
C1299 H1314 0.961 1_565 S
C1299 H1315 0.961 . S
C1300 C1301 1.370 1_556 S
C1300 C1302 1.363 . S
C1300 H1316 0.931 . S
C1301 C1300 1.370 1_554 S
C1301 C1305 1.408 . S
C1302 C1300 1.363 . S
C1302 C1303 1.370 1_556 S
C1302 C1306 1.524 . S
C1303 C1295 1.503 1_545 S
C1303 C1302 1.370 1_554 S
C1303 C1304 1.403 . S
C1304 C1303 1.403 . S
C1304 C1305 1.404 . S
C1304 C1307 1.539 . S
C1305 C1301 1.408 . S
C1305 C1304 1.404 . S
C1305 H1317 0.930 . S
C1306 C1302 1.524 . S
C1306 H1318 0.956 . S
C1306 H1319 0.961 . S
C1306 H1320 0.961 . S
C1307 C1304 1.539 . S
C1307 H1321 0.958 . S
C1307 H1322 0.961 . S
C1307 H1323 0.960 1_545 S
H1308 C1292 0.931 . S
H1309 C1297 0.929 . S
H1310 C1298 0.960 1_545 S
H1311 C1298 0.962 1_556 S
H1312 C1298 0.960 . S
H1313 C1299 0.961 . S
H1314 C1299 0.961 1_545 S
H1315 C1299 0.961 . S
H1316 C1300 0.931 . S
H1317 C1305 0.930 . S
H1318 C1306 0.956 . S
H1319 C1306 0.961 . S
H1320 C1306 0.961 . S
H1321 C1307 0.958 . S
H1322 C1307 0.961 . S
H1323 C1307 0.960 1_565 S
C1324 C1325 1.391 1_556 S
C1324 C1326 1.394 . S
C1324 H1340 0.931 . S
C1325 C1324 1.391 1_554 S
C1325 C1329 1.376 . S
C1326 C1324 1.394 . S
C1326 C1327 1.376 . S
C1326 C1330 1.531 . S
C1327 C1326 1.376 . S
C1327 C1328 1.401 1_556 S
C1327 C1335 1.504 . S
C1328 C1327 1.401 1_554 S
C1328 C1329 1.392 . S
C1328 C1331 1.511 . S
C1329 C1325 1.376 . S
C1329 C1328 1.392 . S
C1329 H1341 0.929 . S
C1330 C1326 1.531 . S
C1330 H1342 0.960 . S
C1330 H1343 0.962 . S
C1330 H1344 0.960 . S
C1331 C1328 1.511 . S
C1331 H1345 0.961 . S
C1331 H1346 0.961 . S
C1331 H1347 0.961 . S
C1332 C1333 1.370 1_554 S
C1332 C1334 1.363 . S
C1332 H1348 0.931 . S
C1333 C1332 1.370 1_556 S
C1333 C1337 1.408 . S
C1334 C1332 1.363 . S
C1334 C1335 1.370 1_554 S
C1334 C1338 1.524 . S
C1335 C1327 1.504 . S
C1335 C1334 1.370 1_556 S
C1335 C1336 1.403 . S
C1336 C1335 1.403 . S
C1336 C1337 1.404 . S
C1336 C1339 1.539 . S
C1337 C1333 1.408 . S
C1337 C1336 1.404 . S
C1337 H1349 0.930 . S
C1338 C1334 1.524 . S
C1338 H1350 0.956 . S
C1338 H1351 0.961 . S
C1338 H1352 0.961 . S
C1339 C1336 1.539 . S
C1339 H1353 0.958 . S
C1339 H1354 0.961 . S
C1339 H1355 0.960 . S
H1340 C1324 0.931 . S
H1341 C1329 0.929 . S
H1342 C1330 0.960 . S
H1343 C1330 0.962 . S
H1344 C1330 0.960 . S
H1345 C1331 0.961 . S
H1346 C1331 0.961 . S
H1347 C1331 0.961 . S
H1348 C1332 0.931 . S
H1349 C1337 0.930 . S
H1350 C1338 0.956 . S
H1351 C1338 0.961 . S
H1352 C1338 0.961 . S
H1353 C1339 0.958 . S
H1354 C1339 0.961 . S
H1355 C1339 0.960 . S
C397 C285 1.578 . S
C405 C21 1.580 . S
C429 C54 1.581 . S
C437 C318 1.580 . S
C461 C351 1.568 . S
C469 C87 1.574 1_554 S
C493 C384 1.580 . S
C501 C120 1.579 1_554 S
C525 C153 1.578 1_554 S
C533 C219 1.580 . S
C557 C252 1.571 . S
C565 C186 1.575 1_554 S
C589 C348 1.207 . S
C597 C18 1.217 . S
C621 C381 1.207 . S
C629 C51 1.224 . S
C653 C84 1.234 . S
C661 C216 1.223 . S
C685 C249 1.205 . S
C693 C117 1.223 . S
C717 C282 1.233 . S
C725 C150 1.221 . S
C749 C315 1.218 . S
C757 C183 1.216 . S
C781 N13 1.455 . S
C789 N2 1.456 . S
C813 N46 1.425 . S
C821 N35 1.465 . S
C845 N79 1.420 . S
C853 N68 1.469 . S
C877 N112 1.436 . S
C885 N101 1.460 . S
C909 N134 1.415 . S
C917 N145 1.472 . S
C941 N178 1.422 . S
C949 N167 1.467 . S
C973 N200 1.416 . S
C981 N211 1.471 . S
C1005 N244 1.460 . S
C1013 N233 1.450 . S
C1037 N266 1.461 . S
C1045 N277 1.456 . S
C1069 N299 1.440 . S
C1077 N310 1.464 . S
C1101 N343 1.457 . S
C1109 N332 1.456 . S
C1133 N376 1.459 . S
C1141 N365 1.455 . S
C1165 C7 1.204 . S
C1173 C370 1.224 . S
C1197 C205 1.220 . S
C1205 C40 1.227 . S
C1229 C238 1.240 . S
C1237 C73 1.235 . S
C1261 C271 1.206 . S
C1269 C106 1.223 . S
C1293 C139 1.237 . S
C1301 C304 1.234 . S
C1325 C337 1.206 . S
C1333 C172 1.223 . S
