# Generated by pormake.
# Topology ato, (4)-cn, num edge types: 1
# Building blocks:
#     Node 0, Type 0, BuildingBlock: TATPOV_clean_sbu_0, # of connection points: 4
#     Node 1, Type 0, BuildingBlock: TATPOV_clean_sbu_0, # of connection points: 4
#     Node 2, Type 0, BuildingBlock: TATPOV_clean_sbu_0, # of connection points: 4
#     Node 3, Type 0, BuildingBlock: TATPOV_clean_sbu_0, # of connection points: 4
#     Node 4, Type 0, BuildingBlock: TATPOV_clean_sbu_0, # of connection points: 4
#     Node 5, Type 0, BuildingBlock: TATPOV_clean_sbu_0, # of connection points: 4
#     Node 6, Type 0, BuildingBlock: TATPOV_clean_sbu_0, # of connection points: 4
#     Node 7, Type 0, BuildingBlock: TATPOV_clean_sbu_0, # of connection points: 4
#     Node 8, Type 0, BuildingBlock: TATPOV_clean_sbu_0, # of connection points: 4
#     Node 9, Type 0, BuildingBlock: TATPOV_clean_sbu_0, # of connection points: 4
#     Node 10, Type 0, BuildingBlock: TATPOV_clean_sbu_0, # of connection points: 4
#     Node 11, Type 0, BuildingBlock: TATPOV_clean_sbu_0, # of connection points: 4
#     Node 12, Type 0, BuildingBlock: TATPOV_clean_sbu_0, # of connection points: 4
#     Node 13, Type 0, BuildingBlock: TATPOV_clean_sbu_0, # of connection points: 4
#     Node 14, Type 0, BuildingBlock: TATPOV_clean_sbu_0, # of connection points: 4
#     Node 15, Type 0, BuildingBlock: TATPOV_clean_sbu_0, # of connection points: 4
#     Node 16, Type 0, BuildingBlock: TATPOV_clean_sbu_0, # of connection points: 4
#     Node 17, Type 0, BuildingBlock: TATPOV_clean_sbu_0, # of connection points: 4
#     Node 18, Type 0, BuildingBlock: TATPOV_clean_sbu_0, # of connection points: 4
#     Node 19, Type 0, BuildingBlock: TATPOV_clean_sbu_0, # of connection points: 4
#     Node 20, Type 0, BuildingBlock: TATPOV_clean_sbu_0, # of connection points: 4
#     Node 21, Type 0, BuildingBlock: TATPOV_clean_sbu_0, # of connection points: 4
#     Node 22, Type 0, BuildingBlock: TATPOV_clean_sbu_0, # of connection points: 4
#     Node 23, Type 0, BuildingBlock: TATPOV_clean_sbu_0, # of connection points: 4
#     Node 24, Type 0, BuildingBlock: TATPOV_clean_sbu_0, # of connection points: 4
#     Node 25, Type 0, BuildingBlock: TATPOV_clean_sbu_0, # of connection points: 4
#     Node 26, Type 0, BuildingBlock: TATPOV_clean_sbu_0, # of connection points: 4
#     Node 27, Type 0, BuildingBlock: TATPOV_clean_sbu_0, # of connection points: 4
#     Node 28, Type 0, BuildingBlock: TATPOV_clean_sbu_0, # of connection points: 4
#     Node 29, Type 0, BuildingBlock: TATPOV_clean_sbu_0, # of connection points: 4
#     Node 30, Type 0, BuildingBlock: TATPOV_clean_sbu_0, # of connection points: 4
#     Node 31, Type 0, BuildingBlock: TATPOV_clean_sbu_0, # of connection points: 4
#     Node 32, Type 0, BuildingBlock: TATPOV_clean_sbu_0, # of connection points: 4
#     Node 33, Type 0, BuildingBlock: TATPOV_clean_sbu_0, # of connection points: 4
#     Node 34, Type 0, BuildingBlock: TATPOV_clean_sbu_0, # of connection points: 4
#     Node 35, Type 0, BuildingBlock: TATPOV_clean_sbu_0, # of connection points: 4
#     Edge 36, Type (0, 0), BuildingBlock: ZUJKAS_clean_linker_0, # of connection points: 2
#     Edge 37, Type (0, 0), BuildingBlock: ZUJKAS_clean_linker_0, # of connection points: 2
#     Edge 38, Type (0, 0), BuildingBlock: ZUJKAS_clean_linker_0, # of connection points: 2
#     Edge 39, Type (0, 0), BuildingBlock: ZUJKAS_clean_linker_0, # of connection points: 2
#     Edge 40, Type (0, 0), BuildingBlock: ZUJKAS_clean_linker_0, # of connection points: 2
#     Edge 41, Type (0, 0), BuildingBlock: ZUJKAS_clean_linker_0, # of connection points: 2
#     Edge 42, Type (0, 0), BuildingBlock: ZUJKAS_clean_linker_0, # of connection points: 2
#     Edge 43, Type (0, 0), BuildingBlock: ZUJKAS_clean_linker_0, # of connection points: 2
#     Edge 44, Type (0, 0), BuildingBlock: ZUJKAS_clean_linker_0, # of connection points: 2
#     Edge 45, Type (0, 0), BuildingBlock: ZUJKAS_clean_linker_0, # of connection points: 2
#     Edge 46, Type (0, 0), BuildingBlock: ZUJKAS_clean_linker_0, # of connection points: 2
#     Edge 47, Type (0, 0), BuildingBlock: ZUJKAS_clean_linker_0, # of connection points: 2
#     Edge 48, Type (0, 0), BuildingBlock: ZUJKAS_clean_linker_0, # of connection points: 2
#     Edge 49, Type (0, 0), BuildingBlock: ZUJKAS_clean_linker_0, # of connection points: 2
#     Edge 50, Type (0, 0), BuildingBlock: ZUJKAS_clean_linker_0, # of connection points: 2
#     Edge 51, Type (0, 0), BuildingBlock: ZUJKAS_clean_linker_0, # of connection points: 2
#     Edge 52, Type (0, 0), BuildingBlock: ZUJKAS_clean_linker_0, # of connection points: 2
#     Edge 53, Type (0, 0), BuildingBlock: ZUJKAS_clean_linker_0, # of connection points: 2
#     Edge 54, Type (0, 0), BuildingBlock: ZUJKAS_clean_linker_0, # of connection points: 2
#     Edge 55, Type (0, 0), BuildingBlock: ZUJKAS_clean_linker_0, # of connection points: 2
#     Edge 56, Type (0, 0), BuildingBlock: ZUJKAS_clean_linker_0, # of connection points: 2
#     Edge 57, Type (0, 0), BuildingBlock: ZUJKAS_clean_linker_0, # of connection points: 2
#     Edge 58, Type (0, 0), BuildingBlock: ZUJKAS_clean_linker_0, # of connection points: 2
#     Edge 59, Type (0, 0), BuildingBlock: ZUJKAS_clean_linker_0, # of connection points: 2
#     Edge 60, Type (0, 0), BuildingBlock: ZUJKAS_clean_linker_0, # of connection points: 2
#     Edge 61, Type (0, 0), BuildingBlock: ZUJKAS_clean_linker_0, # of connection points: 2
#     Edge 62, Type (0, 0), BuildingBlock: ZUJKAS_clean_linker_0, # of connection points: 2
#     Edge 63, Type (0, 0), BuildingBlock: ZUJKAS_clean_linker_0, # of connection points: 2
#     Edge 64, Type (0, 0), BuildingBlock: ZUJKAS_clean_linker_0, # of connection points: 2
#     Edge 65, Type (0, 0), BuildingBlock: ZUJKAS_clean_linker_0, # of connection points: 2
#     Edge 66, Type (0, 0), BuildingBlock: ZUJKAS_clean_linker_0, # of connection points: 2
#     Edge 67, Type (0, 0), BuildingBlock: ZUJKAS_clean_linker_0, # of connection points: 2
#     Edge 68, Type (0, 0), BuildingBlock: ZUJKAS_clean_linker_0, # of connection points: 2
#     Edge 69, Type (0, 0), BuildingBlock: ZUJKAS_clean_linker_0, # of connection points: 2
#     Edge 70, Type (0, 0), BuildingBlock: ZUJKAS_clean_linker_0, # of connection points: 2
#     Edge 71, Type (0, 0), BuildingBlock: ZUJKAS_clean_linker_0, # of connection points: 2
#     Edge 72, Type (0, 0), BuildingBlock: ZUJKAS_clean_linker_0, # of connection points: 2
#     Edge 73, Type (0, 0), BuildingBlock: ZUJKAS_clean_linker_0, # of connection points: 2
#     Edge 74, Type (0, 0), BuildingBlock: ZUJKAS_clean_linker_0, # of connection points: 2
#     Edge 75, Type (0, 0), BuildingBlock: ZUJKAS_clean_linker_0, # of connection points: 2
#     Edge 76, Type (0, 0), BuildingBlock: ZUJKAS_clean_linker_0, # of connection points: 2
#     Edge 77, Type (0, 0), BuildingBlock: ZUJKAS_clean_linker_0, # of connection points: 2
#     Edge 78, Type (0, 0), BuildingBlock: ZUJKAS_clean_linker_0, # of connection points: 2
#     Edge 79, Type (0, 0), BuildingBlock: ZUJKAS_clean_linker_0, # of connection points: 2
#     Edge 80, Type (0, 0), BuildingBlock: ZUJKAS_clean_linker_0, # of connection points: 2
#     Edge 81, Type (0, 0), BuildingBlock: ZUJKAS_clean_linker_0, # of connection points: 2
#     Edge 82, Type (0, 0), BuildingBlock: ZUJKAS_clean_linker_0, # of connection points: 2
#     Edge 83, Type (0, 0), BuildingBlock: ZUJKAS_clean_linker_0, # of connection points: 2
#     Edge 84, Type (0, 0), BuildingBlock: ZUJKAS_clean_linker_0, # of connection points: 2
#     Edge 85, Type (0, 0), BuildingBlock: ZUJKAS_clean_linker_0, # of connection points: 2
#     Edge 86, Type (0, 0), BuildingBlock: ZUJKAS_clean_linker_0, # of connection points: 2
#     Edge 87, Type (0, 0), BuildingBlock: ZUJKAS_clean_linker_0, # of connection points: 2
#     Edge 88, Type (0, 0), BuildingBlock: ZUJKAS_clean_linker_0, # of connection points: 2
#     Edge 89, Type (0, 0), BuildingBlock: ZUJKAS_clean_linker_0, # of connection points: 2
#     Edge 90, Type (0, 0), BuildingBlock: ZUJKAS_clean_linker_0, # of connection points: 2
#     Edge 91, Type (0, 0), BuildingBlock: ZUJKAS_clean_linker_0, # of connection points: 2
#     Edge 92, Type (0, 0), BuildingBlock: ZUJKAS_clean_linker_0, # of connection points: 2
#     Edge 93, Type (0, 0), BuildingBlock: ZUJKAS_clean_linker_0, # of connection points: 2
#     Edge 94, Type (0, 0), BuildingBlock: ZUJKAS_clean_linker_0, # of connection points: 2
#     Edge 95, Type (0, 0), BuildingBlock: ZUJKAS_clean_linker_0, # of connection points: 2
#     Edge 96, Type (0, 0), BuildingBlock: ZUJKAS_clean_linker_0, # of connection points: 2
#     Edge 97, Type (0, 0), BuildingBlock: ZUJKAS_clean_linker_0, # of connection points: 2
#     Edge 98, Type (0, 0), BuildingBlock: ZUJKAS_clean_linker_0, # of connection points: 2
#     Edge 99, Type (0, 0), BuildingBlock: ZUJKAS_clean_linker_0, # of connection points: 2
#     Edge 100, Type (0, 0), BuildingBlock: ZUJKAS_clean_linker_0, # of connection points: 2
#     Edge 101, Type (0, 0), BuildingBlock: ZUJKAS_clean_linker_0, # of connection points: 2
#     Edge 102, Type (0, 0), BuildingBlock: ZUJKAS_clean_linker_0, # of connection points: 2
#     Edge 103, Type (0, 0), BuildingBlock: ZUJKAS_clean_linker_0, # of connection points: 2
#     Edge 104, Type (0, 0), BuildingBlock: ZUJKAS_clean_linker_0, # of connection points: 2
#     Edge 105, Type (0, 0), BuildingBlock: ZUJKAS_clean_linker_0, # of connection points: 2
#     Edge 106, Type (0, 0), BuildingBlock: ZUJKAS_clean_linker_0, # of connection points: 2
#     Edge 107, Type (0, 0), BuildingBlock: ZUJKAS_clean_linker_0, # of connection points: 2
# Relax obj value: 0.035
# Max RMSD: 0.047
# Mean RMSD: 0.047
data_MOF--net-ato--node1-TATPOV_clean_sbu_0--edge1-ZUJKAS_clean_linker_0
_symmetry_space_group_name_H-M    P1
_symmetry_Int_Tables_number       1
_symmetry_cell_setting            triclinic
loop_
_symmetry_equiv_pos_as_xyz
'x, y, z'
_cell_length_a     129.87272
_cell_length_b     129.89289
_cell_length_c     31.879235
_cell_angle_alpha  89.983571
_cell_angle_beta   90.004451
_cell_angle_gamma 119.98392
loop_
_atom_site_label
_atom_site_type_symbol
_atom_site_fract_x
_atom_site_fract_y
_atom_site_fract_z
_atom_type_partial_charge
Zn0 Zn 0.24841 0.06799 0.18653 0.0
Zn1 Zn 0.24691 0.05307 0.24583 0.0
O2 O 0.24139 0.06395 0.27499 0.0
O3 O 0.24222 0.07582 0.22418 0.0
O4 O 0.24425 0.04101 0.29121 0.0
O5 O 0.23706 0.05495 0.14921 0.0
O6 O 0.23656 0.04237 0.19665 0.0
C7 C 0.23986 0.07238 0.26183 0.0
C8 C 0.27092 0.06941 0.20463 0.0
O9 O 0.26484 0.06131 0.23144 0.0
O10 O 0.26595 0.07376 0.18238 0.0
C11 C 0.24687 0.04397 0.32945 0.0
O12 O 0.25192 0.05526 0.3397 0.0
C13 C 0.23342 0.0444 0.16106 0.0
Zn14 Zn 0.93185 0.18164 0.19276 0.0
Zn15 Zn 0.94597 0.19473 0.25383 0.0
O16 O 0.93476 0.17821 0.28149 0.0
O17 O 0.92385 0.16723 0.22877 0.0
O18 O 0.95718 0.20385 0.30182 0.0
O19 O 0.94533 0.184 0.15679 0.0
O20 O 0.95744 0.19541 0.20643 0.0
C21 C 0.92671 0.16823 0.26707 0.0
C22 C 0.92967 0.20223 0.21063 0.0
O23 O 0.93758 0.20426 0.23832 0.0
O24 O 0.92568 0.19303 0.18786 0.0
C25 C 0.96267 0.19921 0.3195 0.0
O26 O 0.96096 0.18895 0.30551 0.0
C27 C 0.95577 0.19066 0.17012 0.0
Zn28 Zn 0.81699 0.75033 0.18948 0.0
Zn29 Zn 0.80388 0.75203 0.24926 0.0
O30 O 0.82029 0.75725 0.27764 0.0
O31 O 0.83138 0.75711 0.22566 0.0
O32 O 0.79478 0.75475 0.29574 0.0
O33 O 0.8146 0.76107 0.1513 0.0
O34 O 0.8036 0.76263 0.20061 0.0
C35 C 0.83029 0.7591 0.26373 0.0
C36 C 0.79616 0.72787 0.20907 0.0
O37 O 0.79401 0.73408 0.23485 0.0
O38 O 0.80556 0.73273 0.18724 0.0
C39 C 0.79514 0.75173 0.33347 0.0
O40 O 0.80108 0.74624 0.34197 0.0
C41 C 0.8082 0.76524 0.16398 0.0
Zn42 Zn 0.06601 0.24776 0.81465 0.0
Zn43 Zn 0.05053 0.24443 0.75515 0.0
O44 O 0.06193 0.23927 0.72814 0.0
O45 O 0.0737 0.24069 0.78024 0.0
O46 O 0.03845 0.24067 0.70859 0.0
O47 O 0.05329 0.23751 0.85498 0.0
O48 O 0.04014 0.23451 0.80592 0.0
C49 C 0.07038 0.23799 0.74261 0.0
C50 C 0.06667 0.26942 0.78998 0.0
O51 O 0.05818 0.26253 0.76571 0.0
O52 O 0.07171 0.26527 0.81289 0.0
C53 C 0.04133 0.2465 0.67437 0.0
O54 O 0.05222 0.25542 0.66993 0.0
C55 C 0.04258 0.23278 0.84321 0.0
Zn56 Zn 0.75029 0.81753 0.80921 0.0
Zn57 Zn 0.75245 0.80443 0.75061 0.0
O58 O 0.75776 0.8208 0.72165 0.0
O59 O 0.75728 0.83191 0.77294 0.0
O60 O 0.75536 0.79524 0.70497 0.0
O61 O 0.76079 0.81518 0.84872 0.0
O62 O 0.7628 0.80423 0.80033 0.0
C63 C 0.75949 0.8308 0.73515 0.0
C64 C 0.72803 0.79662 0.7889 0.0
O65 O 0.73445 0.79449 0.76409 0.0
O66 O 0.73268 0.80609 0.81036 0.0
C67 C 0.75247 0.79552 0.667 0.0
O68 O 0.74708 0.8015 0.65762 0.0
C69 C 0.76511 0.80883 0.83698 0.0
Zn70 Zn 0.18395 0.9367 0.81231 0.0
Zn71 Zn 0.19629 0.94961 0.74768 0.0
O72 O 0.17981 0.93739 0.72208 0.0
O73 O 0.16999 0.92644 0.77653 0.0
O74 O 0.20502 0.9606 0.69887 0.0
O75 O 0.18434 0.95034 0.84203 0.0
O76 O 0.19673 0.9615 0.79254 0.0
C77 C 0.1704 0.92879 0.73787 0.0
C78 C 0.20573 0.93622 0.79816 0.0
O79 O 0.20662 0.94235 0.76565 0.0
O80 O 0.19703 0.93296 0.82298 0.0
C81 C 0.20411 0.95707 0.66111 0.0
O82 O 0.19758 0.94566 0.65292 0.0
C83 C 0.19135 0.9605 0.82712 0.0
Zn84 Zn 0.74888 0.93118 0.81748 0.0
Zn85 Zn 0.75071 0.94581 0.75705 0.0
O86 O 0.75612 0.93468 0.72941 0.0
O87 O 0.75512 0.92304 0.78134 0.0
O88 O 0.75364 0.95773 0.71064 0.0
O89 O 0.75996 0.94419 0.85513 0.0
O90 O 0.76104 0.95669 0.80637 0.0
C91 C 0.75751 0.92626 0.74348 0.0
C92 C 0.72648 0.92966 0.79733 0.0
O93 O 0.73263 0.93754 0.76992 0.0
O94 O 0.73141 0.92553 0.82089 0.0
C95 C 0.75123 0.95459 0.67243 0.0
O96 O 0.74622 0.94325 0.66294 0.0
C97 C 0.76387 0.95474 0.84272 0.0
Zn98 Zn 0.06546 0.81831 0.81394 0.0
Zn99 Zn 0.05223 0.80513 0.75075 0.0
O100 O 0.06379 0.82173 0.72453 0.0
O101 O 0.07422 0.83268 0.77805 0.0
O102 O 0.04157 0.79641 0.70122 0.0
O103 O 0.05145 0.81617 0.84648 0.0
O104 O 0.04024 0.80388 0.79682 0.0
C105 C 0.07178 0.83166 0.73935 0.0
C106 C 0.06775 0.7975 0.79715 0.0
O107 O 0.06049 0.79567 0.76728 0.0
O108 O 0.07112 0.80646 0.82085 0.0
C109 C 0.03643 0.80143 0.68358 0.0
O110 O 0.03814 0.81156 0.69892 0.0
C111 C 0.04127 0.80891 0.83224 0.0
Zn112 Zn 0.18254 0.24667 0.8176 0.0
Zn113 Zn 0.19483 0.24493 0.75497 0.0
O114 O 0.1781 0.23993 0.72942 0.0
O115 O 0.16773 0.24006 0.7838 0.0
O116 O 0.20364 0.24273 0.70599 0.0
O117 O 0.18532 0.2358 0.85367 0.0
O118 O 0.1956 0.2341 0.80192 0.0
C119 C 0.16831 0.23814 0.74525 0.0
C120 C 0.20297 0.26911 0.79641 0.0
O121 O 0.20481 0.26285 0.76981 0.0
O122 O 0.19386 0.26428 0.81972 0.0
C123 C 0.19817 0.23387 0.6815 0.0
O124 O 0.18692 0.22622 0.68876 0.0
C125 C 0.19142 0.23149 0.83916 0.0
Zn126 Zn 0.93245 0.74934 0.18684 0.0
Zn127 Zn 0.94679 0.75146 0.2495 0.0
O128 O 0.9351 0.75646 0.27504 0.0
O129 O 0.92375 0.75521 0.22177 0.0
O130 O 0.95801 0.75433 0.29814 0.0
O131 O 0.94593 0.7609 0.15138 0.0
O132 O 0.95809 0.76186 0.20139 0.0
C133 C 0.92665 0.75762 0.25988 0.0
C134 C 0.9314 0.7272 0.20869 0.0
O135 O 0.93905 0.73354 0.23641 0.0
O136 O 0.92722 0.73188 0.18417 0.0
C137 C 0.96312 0.76459 0.31494 0.0
O138 O 0.96103 0.77276 0.29962 0.0
C139 C 0.95638 0.76482 0.16496 0.0
Zn140 Zn 0.25427 0.18501 0.19065 0.0
Zn141 Zn 0.24993 0.19596 0.25011 0.0
O142 O 0.24687 0.17998 0.27739 0.0
O143 O 0.25131 0.17138 0.2267 0.0
O144 O 0.24481 0.20303 0.29704 0.0
O145 O 0.24171 0.18424 0.15273 0.0
O146 O 0.23907 0.195 0.20015 0.0
C147 C 0.2481 0.17138 0.26412 0.0
C148 C 0.27466 0.20758 0.21049 0.0
O149 O 0.2678 0.20806 0.2382 0.0
O150 O 0.2708 0.19871 0.18623 0.0
C151 C 0.25144 0.2091 0.32739 0.0
O152 O 0.26254 0.21151 0.32829 0.0
C153 C 0.23668 0.18996 0.16423 0.0
Zn154 Zn 0.81519 0.06532 0.19446 0.0
Zn155 Zn 0.80341 0.05025 0.25549 0.0
O156 O 0.82001 0.0619 0.28171 0.0
O157 O 0.82992 0.07358 0.22883 0.0
O158 O 0.79506 0.03827 0.30229 0.0
O159 O 0.81307 0.05245 0.15554 0.0
O160 O 0.80301 0.03965 0.20559 0.0
C161 C 0.82956 0.07047 0.26662 0.0
C162 C 0.79414 0.0659 0.21892 0.0
O163 O 0.79285 0.05778 0.24453 0.0
O164 O 0.8031 0.07067 0.19491 0.0
C165 C 0.79535 0.04156 0.34009 0.0
O166 O 0.80089 0.05298 0.34868 0.0
C167 C 0.80719 0.04183 0.16831 0.0
Zn168 Zn 0.91323 0.39746 0.52623 0.0
Zn169 Zn 0.91277 0.38444 0.59008 0.0
O170 O 0.90805 0.39635 0.61586 0.0
O171 O 0.90833 0.40688 0.56133 0.0
O172 O 0.91108 0.37382 0.63965 0.0
O173 O 0.90081 0.38367 0.49486 0.0
O174 O 0.90143 0.37235 0.54513 0.0
C175 C 0.9066 0.40456 0.60005 0.0
C176 C 0.93595 0.39923 0.54171 0.0
O177 O 0.93049 0.39235 0.57249 0.0
O178 O 0.93047 0.40257 0.51737 0.0
C179 C 0.90169 0.36963 0.66183 0.0
O180 O 0.8935 0.37231 0.65175 0.0
C181 C 0.89743 0.37347 0.50981 0.0
Zn182 Zn 0.6026 0.5156 0.51886 0.0
Zn183 Zn 0.61638 0.52599 0.5844 0.0
O184 O 0.60335 0.50937 0.60634 0.0
O185 O 0.59219 0.50084 0.55094 0.0
O186 O 0.62711 0.5327 0.6355 0.0
O187 O 0.61592 0.51655 0.48522 0.0
O188 O 0.62784 0.52641 0.53762 0.0
C189 C 0.59451 0.50045 0.58923 0.0
C190 C 0.60351 0.53752 0.54207 0.0
O191 O 0.6102 0.5376 0.57159 0.0
O192 O 0.59918 0.52907 0.51581 0.0
C193 C 0.6327 0.54358 0.64642 0.0
O194 O 0.6317 0.55144 0.62351 0.0
C195 C 0.62627 0.52217 0.5005 0.0
Zn196 Zn 0.48062 0.08253 0.51296 0.0
Zn197 Zn 0.46947 0.08504 0.5779 0.0
O198 O 0.48619 0.08939 0.60159 0.0
O199 O 0.49532 0.08753 0.54641 0.0
O200 O 0.46138 0.08781 0.62788 0.0
O201 O 0.47917 0.09461 0.47941 0.0
O202 O 0.46895 0.09619 0.53162 0.0
C203 C 0.49542 0.09005 0.58477 0.0
C204 C 0.45935 0.06083 0.53406 0.0
O205 O 0.45873 0.06716 0.56354 0.0
O206 O 0.46791 0.06538 0.50829 0.0
C207 C 0.46695 0.09741 0.64876 0.0
O208 O 0.4778 0.10531 0.63722 0.0
C209 C 0.4733 0.09908 0.49469 0.0
Zn210 Zn 0.73568 0.58291 0.14411 0.0
Zn211 Zn 0.72019 0.57974 0.08599 0.0
O212 O 0.73147 0.5745 0.05813 0.0
O213 O 0.7433 0.57583 0.1098 0.0
O214 O 0.7081 0.57623 0.03973 0.0
O215 O 0.72317 0.57272 0.18498 0.0
O216 O 0.70984 0.56957 0.13651 0.0
C217 C 0.73991 0.57314 0.07224 0.0
C218 C 0.73659 0.60469 0.1211 0.0
O219 O 0.72791 0.59787 0.09738 0.0
O220 O 0.74171 0.60044 0.14307 0.0
C221 C 0.71154 0.58063 0.00329 0.0
O222 O 0.72294 0.58782 0.9967 0.0
C223 C 0.71242 0.56786 0.1736 0.0
Zn224 Zn 0.41625 0.15202 0.13865 0.0
Zn225 Zn 0.41889 0.13916 0.08103 0.0
O226 O 0.42428 0.1556 0.0524 0.0
O227 O 0.42358 0.1666 0.10359 0.0
O228 O 0.42249 0.13049 0.03531 0.0
O229 O 0.42628 0.14956 0.17988 0.0
O230 O 0.42884 0.13883 0.13207 0.0
C231 C 0.42598 0.16557 0.06597 0.0
C232 C 0.39414 0.13121 0.11626 0.0
O233 O 0.40075 0.12904 0.09248 0.0
O234 O 0.39865 0.14067 0.13776 0.0
C235 C 0.418 0.12912 0.99882 0.0
O236 O 0.41042 0.13283 0.99163 0.0
C237 C 0.43076 0.1433 0.16892 0.0
Zn238 Zn 0.84658 0.26669 0.15623 0.0
Zn239 Zn 0.8587 0.28023 0.09309 0.0
O240 O 0.84212 0.26801 0.06799 0.0
O241 O 0.83225 0.25678 0.12175 0.0
O242 O 0.86629 0.29146 0.04369 0.0
O243 O 0.84729 0.27991 0.18952 0.0
O244 O 0.85932 0.2917 0.14038 0.0
C245 C 0.83266 0.25938 0.08335 0.0
C246 C 0.86824 0.26618 0.13845 0.0
O247 O 0.86928 0.27292 0.10764 0.0
O248 O 0.85949 0.26256 0.16327 0.0
C249 C 0.87457 0.29243 0.01976 0.0
O250 O 0.87942 0.28582 0.0268 0.0
C251 C 0.85415 0.29026 0.17576 0.0
Zn252 Zn 0.41879 0.26809 0.15587 0.0
Zn253 Zn 0.42157 0.28324 0.09502 0.0
O254 O 0.42555 0.27106 0.06724 0.0
O255 O 0.424 0.25918 0.1191 0.0
O256 O 0.42525 0.29504 0.04777 0.0
O257 O 0.43082 0.28105 0.19219 0.0
O258 O 0.43255 0.2938 0.14325 0.0
C259 C 0.42633 0.26226 0.0811 0.0
C260 C 0.39727 0.26867 0.13635 0.0
O261 O 0.40384 0.27655 0.10962 0.0
O262 O 0.40154 0.26367 0.15892 0.0
C263 C 0.41815 0.29338 0.01766 0.0
O264 O 0.40762 0.28374 0.0174 0.0
C265 C 0.43533 0.29163 0.17927 0.0
Zn266 Zn 0.73001 0.14557 0.15549 0.0
Zn267 Zn 0.71636 0.13428 0.09304 0.0
O268 O 0.72971 0.14994 0.06599 0.0
O269 O 0.74249 0.15762 0.11791 0.0
O270 O 0.70485 0.12611 0.04493 0.0
O271 O 0.71814 0.14887 0.18314 0.0
O272 O 0.70558 0.13586 0.13794 0.0
C273 C 0.7398 0.15789 0.07996 0.0
C274 C 0.72698 0.12233 0.14558 0.0
O275 O 0.72196 0.12252 0.11139 0.0
O276 O 0.73052 0.13086 0.1713 0.0
C277 C 0.70827 0.12665 0.00717 0.0
O278 O 0.71972 0.13235 0.99892 0.0
C279 C 0.70761 0.14235 0.1704 0.0
Zn280 Zn 0.85244 0.5819 0.14878 0.0
Zn281 Zn 0.86397 0.58033 0.08498 0.0
O282 O 0.84805 0.57771 0.05897 0.0
O283 O 0.83975 0.58147 0.11244 0.0
O284 O 0.87238 0.57797 0.03525 0.0
O285 O 0.85031 0.56709 0.17574 0.0
O286 O 0.86303 0.56789 0.12846 0.0
C287 C 0.83969 0.57904 0.074 0.0
C288 C 0.87511 0.60287 0.13829 0.0
O289 O 0.87521 0.5977 0.10435 0.0
O290 O 0.8666 0.59762 0.16397 0.0
C291 C 0.86646 0.56939 0.01007 0.0
O292 O 0.85507 0.56229 0.01708 0.0
C293 C 0.8569 0.56331 0.16161 0.0
Zn294 Zn 0.60322 0.08337 0.5157 0.0
Zn295 Zn 0.61653 0.08643 0.58013 0.0
O296 O 0.6025 0.08803 0.60495 0.0
O297 O 0.59014 0.08233 0.55156 0.0
O298 O 0.62772 0.09011 0.62949 0.0
O299 O 0.6149 0.09873 0.4886 0.0
O300 O 0.62736 0.09891 0.53574 0.0
C301 C 0.5924 0.0854 0.58959 0.0
C302 C 0.60749 0.06399 0.52773 0.0
O303 O 0.61197 0.06933 0.56226 0.0
O304 O 0.60375 0.06858 0.50107 0.0
C305 C 0.62405 0.08651 0.66656 0.0
O306 O 0.61257 0.07997 0.67335 0.0
C307 C 0.62538 0.10313 0.50249 0.0
Zn308 Zn 0.91733 0.51885 0.51054 0.0
Zn309 Zn 0.91403 0.52953 0.57324 0.0
O310 O 0.91189 0.51383 0.59927 0.0
O311 O 0.91694 0.50621 0.54707 0.0
O312 O 0.90957 0.53658 0.62205 0.0
O313 O 0.9028 0.51611 0.47973 0.0
O314 O 0.90214 0.5282 0.52657 0.0
C315 C 0.91391 0.50583 0.58497 0.0
C316 C 0.93737 0.54208 0.52521 0.0
O317 O 0.93154 0.54171 0.55797 0.0
O318 O 0.93288 0.53366 0.49893 0.0
C319 C 0.91664 0.54295 0.65098 0.0
O320 O 0.92783 0.54569 0.64935 0.0
C321 C 0.89836 0.52224 0.49264 0.0
Zn322 Zn 0.47659 0.39762 0.52073 0.0
Zn323 Zn 0.4658 0.38455 0.58566 0.0
O324 O 0.48176 0.39812 0.60997 0.0
O325 O 0.48918 0.41031 0.55632 0.0
O326 O 0.45787 0.37389 0.63609 0.0
O327 O 0.47922 0.38514 0.49456 0.0
O328 O 0.46688 0.37311 0.54251 0.0
C329 C 0.48973 0.40796 0.59448 0.0
C330 C 0.45362 0.39498 0.53269 0.0
O331 O 0.45407 0.39015 0.567 0.0
O332 O 0.4619 0.39829 0.50603 0.0
C333 C 0.46409 0.37189 0.66215 0.0
O334 O 0.47559 0.37679 0.65579 0.0
C335 C 0.47297 0.37477 0.50919 0.0
Zn336 Zn 0.58296 0.73429 0.85396 0.0
Zn337 Zn 0.58014 0.71918 0.91348 0.0
O338 O 0.57519 0.73072 0.9408 0.0
O339 O 0.57617 0.74219 0.88832 0.0
O340 O 0.57627 0.70712 0.96015 0.0
O341 O 0.5725 0.7216 0.81406 0.0
O342 O 0.56987 0.70867 0.86344 0.0
C343 C 0.57377 0.73909 0.92625 0.0
C344 C 0.60489 0.73525 0.87693 0.0
O345 O 0.59824 0.72677 0.9017 0.0
O346 O 0.60047 0.7401 0.85445 0.0
C347 C 0.58294 0.70879 0.99169 0.0
O348 O 0.59325 0.71866 0.99402 0.0
C349 C 0.56784 0.71095 0.82634 0.0
Zn350 Zn 0.26602 0.85416 0.85927 0.0
Zn351 Zn 0.28049 0.86356 0.92148 0.0
O352 O 0.26695 0.84765 0.9464 0.0
O353 O 0.25395 0.84113 0.89493 0.0
O354 O 0.29212 0.87043 0.97009 0.0
O355 O 0.27736 0.85162 0.82515 0.0
O356 O 0.29065 0.8622 0.8731 0.0
C357 C 0.25678 0.84003 0.93192 0.0
C358 C 0.26984 0.87717 0.87815 0.0
O359 O 0.27544 0.87617 0.90938 0.0
O360 O 0.26541 0.86908 0.85067 0.0
C361 C 0.28907 0.87325 0.00423 0.0
O362 O 0.27836 0.87187 0.00719 0.0
C363 C 0.28802 0.85689 0.83765 0.0
Zn364 Zn 0.14465 0.41282 0.85305 0.0
Zn365 Zn 0.13414 0.41567 0.91659 0.0
O366 O 0.15017 0.41815 0.94092 0.0
O367 O 0.15763 0.41333 0.88764 0.0
O368 O 0.12742 0.4202 0.96626 0.0
O369 O 0.14715 0.42729 0.82271 0.0
O370 O 0.1348 0.42728 0.86992 0.0
C371 C 0.15823 0.41637 0.92562 0.0
C372 C 0.12155 0.39256 0.86807 0.0
O373 O 0.12202 0.39811 0.90169 0.0
O374 O 0.12985 0.39728 0.84135 0.0
C375 C 0.11978 0.41313 0.99256 0.0
O376 O 0.11529 0.40162 0.9879 0.0
C377 C 0.14066 0.43129 0.83588 0.0
Zn378 Zn 0.39606 0.91509 0.49332 0.0
Zn379 Zn 0.38287 0.91212 0.42752 0.0
O380 O 0.39589 0.90845 0.40614 0.0
O381 O 0.40723 0.91174 0.46149 0.0
O382 O 0.37271 0.90881 0.37528 0.0
O383 O 0.38284 0.90199 0.52465 0.0
O384 O 0.371 0.90059 0.47281 0.0
C385 C 0.40492 0.90878 0.42339 0.0
C386 C 0.39513 0.9361 0.47286 0.0
O387 O 0.38916 0.92994 0.44136 0.0
O388 O 0.39886 0.93165 0.50006 0.0
C389 C 0.36278 0.90853 0.3745 0.0
O390 O 0.35872 0.91068 0.40919 0.0
C391 C 0.37252 0.8974 0.50918 0.0
Zn392 Zn 0.08446 0.4827 0.4849 0.0
Zn393 Zn 0.08465 0.46966 0.42164 0.0
O394 O 0.08955 0.48619 0.3949 0.0
O395 O 0.08957 0.49687 0.44853 0.0
O396 O 0.08614 0.46046 0.37263 0.0
O397 O 0.09678 0.4811 0.51646 0.0
O398 O 0.09587 0.46886 0.46684 0.0
C399 C 0.09118 0.496 0.40989 0.0
C400 C 0.06154 0.46188 0.4696 0.0
O401 O 0.06697 0.46019 0.43935 0.0
O402 O 0.0671 0.47078 0.4935 0.0
C403 C 0.0954 0.46557 0.34977 0.0
O404 O 0.10361 0.47651 0.35892 0.0
C405 C 0.09997 0.47407 0.50192 0.0
Zn406 Zn 0.52607 0.60265 0.48498 0.0
Zn407 Zn 0.5358 0.61605 0.42049 0.0
O408 O 0.51972 0.60231 0.39724 0.0
O409 O 0.51312 0.58997 0.45071 0.0
O410 O 0.54319 0.62704 0.37022 0.0
O411 O 0.5235 0.61461 0.51484 0.0
O412 O 0.53471 0.62709 0.46579 0.0
C413 C 0.51204 0.59236 0.41307 0.0
C414 C 0.54897 0.60581 0.46936 0.0
O415 O 0.54807 0.61077 0.43604 0.0
O416 O 0.54091 0.60212 0.49696 0.0
C417 C 0.53674 0.62869 0.34409 0.0
O418 O 0.52519 0.6232 0.34999 0.0
C419 C 0.52916 0.62508 0.50063 0.0
Zn420 Zn 0.08374 0.5991 0.4815 0.0
Zn421 Zn 0.08611 0.61391 0.42016 0.0
O422 O 0.09054 0.60194 0.39357 0.0
O423 O 0.08921 0.59022 0.44571 0.0
O424 O 0.09009 0.62558 0.37207 0.0
O425 O 0.09552 0.61212 0.51776 0.0
O426 O 0.09664 0.62469 0.4691 0.0
C427 C 0.09153 0.59329 0.40772 0.0
C428 C 0.06187 0.59904 0.46101 0.0
O429 O 0.06821 0.60669 0.43326 0.0
O430 O 0.06646 0.59455 0.48459 0.0
C431 C 0.08304 0.62784 0.35155 0.0
O432 O 0.07175 0.6225 0.36193 0.0
C433 C 0.09959 0.62267 0.5051 0.0
Zn434 Zn 0.39633 0.48178 0.48775 0.0
Zn435 Zn 0.38356 0.47258 0.41981 0.0
O436 O 0.39716 0.48933 0.40104 0.0
O437 O 0.4081 0.4964 0.45782 0.0
O438 O 0.37346 0.46669 0.36707 0.0
O439 O 0.38307 0.48189 0.51844 0.0
O440 O 0.37162 0.47183 0.46526 0.0
C441 C 0.40622 0.4976 0.4197 0.0
C442 C 0.3948 0.45968 0.46334 0.0
O443 O 0.38925 0.46054 0.43171 0.0
O444 O 0.39844 0.46747 0.49199 0.0
C445 C 0.3672 0.45584 0.35626 0.0
O446 O 0.36707 0.44756 0.38028 0.0
C447 C 0.37288 0.47626 0.50194 0.0
Zn448 Zn 0.52273 0.92437 0.48103 0.0
Zn449 Zn 0.53155 0.91769 0.42062 0.0
O450 O 0.51588 0.91579 0.3954 0.0
O451 O 0.50995 0.92362 0.44426 0.0
O452 O 0.53755 0.9116 0.3732 0.0
O453 O 0.51979 0.9107 0.51757 0.0
O454 O 0.52972 0.90663 0.47089 0.0
C455 C 0.50863 0.91904 0.40826 0.0
C456 C 0.54625 0.9424 0.46004 0.0
O457 O 0.54493 0.93518 0.43058 0.0
O458 O 0.53812 0.93959 0.48694 0.0
C459 C 0.54385 0.91817 0.34309 0.0
O460 O 0.54696 0.92947 0.34298 0.0
C461 C 0.52456 0.9047 0.50651 0.0
Zn462 Zn 0.26547 0.4158 0.85398 0.0
Zn463 Zn 0.27956 0.41745 0.91611 0.0
O464 O 0.26774 0.42213 0.94284 0.0
O465 O 0.25657 0.42121 0.88948 0.0
O466 O 0.29051 0.41969 0.96502 0.0
O467 O 0.27893 0.42777 0.81968 0.0
O468 O 0.29106 0.4286 0.86964 0.0
C469 C 0.25929 0.42334 0.92781 0.0
C470 C 0.2643 0.39353 0.87218 0.0
O471 O 0.27197 0.39964 0.9002 0.0
O472 O 0.2601 0.3984 0.84869 0.0
C473 C 0.29662 0.43002 0.98081 0.0
O474 O 0.29578 0.43884 0.96424 0.0
C475 C 0.28936 0.43184 0.83368 0.0
Zn476 Zn 0.57766 0.84812 0.84851 0.0
Zn477 Zn 0.57764 0.86125 0.91209 0.0
O478 O 0.57303 0.84484 0.93883 0.0
O479 O 0.57232 0.83387 0.88507 0.0
O480 O 0.57624 0.87039 0.96152 0.0
O481 O 0.56558 0.85011 0.81691 0.0
O482 O 0.56605 0.86179 0.86781 0.0
C483 C 0.5711 0.83492 0.92391 0.0
C484 C 0.60061 0.869 0.86315 0.0
O485 O 0.59526 0.87081 0.89335 0.0
O486 O 0.59503 0.85995 0.83988 0.0
C487 C 0.56721 0.86506 0.98539 0.0
O488 O 0.55919 0.854 0.97682 0.0
C489 C 0.56215 0.85687 0.83216 0.0
Zn490 Zn 0.14917 0.73039 0.85306 0.0
Zn491 Zn 0.13676 0.71775 0.91765 0.0
O492 O 0.15345 0.72957 0.9429 0.0
O493 O 0.16348 0.74006 0.88805 0.0
O494 O 0.12789 0.70741 0.96769 0.0
O495 O 0.14776 0.71639 0.82281 0.0
O496 O 0.13573 0.7054 0.87342 0.0
C497 C 0.16304 0.73783 0.92682 0.0
C498 C 0.12845 0.73251 0.86864 0.0
O499 O 0.12714 0.72585 0.9 0.0
O500 O 0.13707 0.73551 0.84361 0.0
C501 C 0.13288 0.70279 0.9887 0.0
O502 O 0.14346 0.70487 0.97702 0.0
C503 C 0.14082 0.70629 0.83826 0.0
H504 H 0.20302 0.9526 0.57679 0.0
H505 H 0.21144 0.96704 0.51961 0.0
H506 H 0.22607 0.99568 0.60945 0.0
H507 H 0.2178 0.98131 0.66686 0.0
H508 H 0.20642 0.98502 0.50127 0.0
H509 H 0.25452 0.00398 0.53337 0.0
H510 H 0.24329 0.99019 0.55635 0.0
H511 H 0.2461 0.00417 0.57774 0.0
C512 C 0.20814 0.96196 0.58447 0.0
C513 C 0.20975 0.96578 0.62649 0.0
C514 C 0.21293 0.97021 0.55171 0.0
C515 C 0.21952 0.98244 0.56023 0.0
C516 C 0.22123 0.98628 0.60212 0.0
H517 H 0.25018 0.04728 0.41425 0.0
H518 H 0.24367 0.03208 0.46891 0.0
C519 C 0.21643 0.97804 0.63492 0.0
C520 C 0.22404 0.99119 0.52528 0.0
H521 H 0.24929 0.01423 0.48345 0.0
C522 C 0.2158 0.99134 0.49714 0.0
C523 C 0.23628 0.99946 0.52003 0.0
C524 C 0.24559 0.99941 0.54821 0.0
C525 C 0.21943 -0.00027 0.46456 0.0
C526 C 0.23167 0.00806 0.45944 0.0
C527 C 0.23992 0.00785 0.48739 0.0
C528 C 0.23604 0.01722 0.42585 0.0
C529 C 0.21008 -0.00016 0.43671 0.0
C530 C 0.23414 0.01394 0.38336 0.0
C531 C 0.23783 0.02262 0.35197 0.0
C532 C 0.24357 0.03476 0.36245 0.0
C533 C 0.24576 0.03802 0.40501 0.0
C534 C 0.24205 0.02934 0.43635 0.0
H535 H 0.2011 0.99496 0.4511 0.0
H536 H 0.2122 0.00908 0.42993 0.0
H537 H 0.20978 0.99546 0.40649 0.0
H538 H 0.22974 0.00466 0.37446 0.0
H539 H 0.23607 0.01979 0.31953 0.0
H540 H 0.04438 0.25763 0.59873 0.0
H541 H 0.03075 0.25109 0.53902 0.0
H542 H 0.00546 0.22041 0.60927 0.0
H543 H 0.01894 0.22701 0.66946 0.0
H544 H 0.02277 0.23098 0.49407 0.0
H545 H 0.98436 0.2324 0.563 0.0
H546 H 0.99879 0.23936 0.58775 0.0
H547 H 0.9888 0.22363 0.59336 0.0
C548 C 0.03586 0.24956 0.60171 0.0
C549 C 0.03275 0.24286 0.63899 0.0
C550 C 0.02807 0.24582 0.56748 0.0
C551 C 0.01699 0.23534 0.56973 0.0
C552 C 0.01382 0.22868 0.60702 0.0
H553 H 0.97504 0.19104 0.3643 0.0
H554 H 0.98826 0.20042 0.42386 0.0
C555 C 0.02159 0.23243 0.64137 0.0
C556 C 0.0091 0.23101 0.53225 0.0
H557 H 0.98086 0.22188 0.49816 0.0
C558 C 0.01363 0.22908 0.49492 0.0
C559 C 0.99722 0.22869 0.53305 0.0
C560 C 0.99203 0.23124 0.57131 0.0
C561 C 0.00654 0.22458 0.45886 0.0
C562 C 0.99449 0.22169 0.46031 0.0
C563 C 0.99005 0.22396 0.49719 0.0
C564 C 0.98631 0.21601 0.42422 0.0
C565 C 0.01206 0.22303 0.41944 0.0
C566 C 0.98052 0.22149 0.40519 0.0
C567 C 0.97285 0.21609 0.37109 0.0
C568 C 0.97078 0.20507 0.35557 0.0
C569 C 0.97649 0.19956 0.37513 0.0
C570 C 0.98412 0.20495 0.40913 0.0
H571 H 0.02188 0.22881 0.41962 0.0
H572 H 0.01 0.21367 0.41725 0.0
H573 H 0.00847 0.2251 0.39105 0.0
H574 H 0.98201 0.22999 0.41649 0.0
H575 H 0.96856 0.22055 0.3569 0.0
H576 H 0.78253 0.76346 0.32751 0.0
H577 H 0.77453 0.7699 0.38498 0.0
H578 H 0.7872 0.75393 0.47457 0.0
H579 H 0.79529 0.74753 0.41752 0.0
H580 H 0.75781 0.75638 0.44927 0.0
H581 H 0.80204 0.78863 0.51485 0.0
H582 H 0.80022 0.7824 0.46295 0.0
H583 H 0.79946 0.7738 0.5082 0.0
C584 C 0.78358 0.76128 0.35942 0.0
C585 C 0.78963 0.75504 0.36787 0.0
C586 C 0.779 0.76496 0.39223 0.0
C587 C 0.78044 0.76256 0.43408 0.0
C588 C 0.78619 0.75607 0.44255 0.0
H589 H 0.76375 0.78251 0.67495 0.0
H590 H 0.76982 0.77381 0.61881 0.0
C591 C 0.79075 0.75237 0.40982 0.0
C592 C 0.77604 0.76694 0.46892 0.0
H593 H 0.78521 0.78543 0.55394 0.0
C594 C 0.76379 0.76275 0.47213 0.0
C595 C 0.78386 0.77523 0.49876 0.0
C596 C 0.79714 0.78038 0.49599 0.0
C597 C 0.75914 0.7665 0.50475 0.0
C598 C 0.76697 0.77485 0.53445 0.0
C599 C 0.77921 0.779 0.53127 0.0
C600 C 0.76272 0.77962 0.56858 0.0
C601 C 0.74585 0.7613 0.50755 0.0
C602 C 0.75674 0.78584 0.55907 0.0
C603 C 0.75323 0.79079 0.59108 0.0
C604 C 0.75571 0.78974 0.63333 0.0
C605 C 0.76166 0.78347 0.64279 0.0
C606 C 0.76516 0.7785 0.61073 0.0
H607 H 0.741 0.7527 0.49056 0.0
H608 H 0.74282 0.75987 0.5407 0.0
H609 H 0.74341 0.76754 0.493 0.0
H610 H 0.75501 0.78707 0.52677 0.0
H611 H 0.74873 0.79562 0.58257 0.0
H612 H 0.76211 0.97883 0.68055 0.0
H613 H 0.76858 0.99367 0.62445 0.0
H614 H 0.755 0.96571 0.53198 0.0
H615 H 0.74836 0.95084 0.58772 0.0
H616 H 0.78469 0.99768 0.5615 0.0
H617 H 0.74093 0.98583 0.49267 0.0
H618 H 0.74238 0.98051 0.54342 0.0
H619 H 0.74349 0.9735 0.49634 0.0
C620 C 0.76038 0.97583 0.64829 0.0
C621 C 0.75467 0.96362 0.6387 0.0
C622 C 0.7641 0.98433 0.61625 0.0
C623 C 0.76213 0.98081 0.57398 0.0
C624 C 0.75639 0.96864 0.56433 0.0
H625 H 0.78327 0.01722 0.33375 0.0
H626 H 0.77519 0.00268 0.39088 0.0
C627 C 0.75265 0.96014 0.59631 0.0
C628 C 0.7666 0.98987 0.53996 0.0
H629 H 0.75803 0.99917 0.45317 0.0
C630 C 0.77884 0.99807 0.53802 0.0
C631 C 0.75899 0.99035 0.5092 0.0
C632 C 0.7457 0.98215 0.51061 0.0
C633 C 0.7837 0.00654 0.50572 0.0
C634 C 0.7761 0.00697 0.47483 0.0
C635 C 0.76385 0.99881 0.47682 0.0
C636 C 0.78071 0.01582 0.44021 0.0
C637 C 0.79699 0.01477 0.50432 0.0
C638 C 0.78629 0.02803 0.44889 0.0
C639 C 0.79091 0.03637 0.41635 0.0
C640 C 0.79 0.03266 0.37436 0.0
C641 C 0.78416 0.0204 0.3657 0.0
C642 C 0.77953 0.01207 0.39831 0.0
H643 H 0.80178 0.01142 0.52381 0.0
H644 H 0.80035 0.01597 0.47163 0.0
H645 H 0.79912 0.02361 0.51664 0.0
H646 H 0.7871 0.03113 0.48092 0.0
H647 H 0.79528 0.04573 0.42421 0.0
H648 H 0.02599 0.81117 0.63623 0.0
H649 H 0.01403 0.80313 0.57296 0.0
H650 H 0.01792 0.77212 0.58096 0.0
H651 H 0.02997 0.78012 0.64471 0.0
H652 H 0.02154 0.79654 0.49629 0.0
H653 H 0.98123 0.75891 0.56861 0.0
H654 H 0.99203 0.77139 0.59904 0.0
H655 H 0.9954 0.76032 0.58107 0.0
C656 C 0.02428 0.80261 0.62479 0.0
C657 C 0.02894 0.79628 0.64566 0.0
C658 C 0.01745 0.79804 0.58853 0.0
C659 C 0.01501 0.787 0.57246 0.0
C660 C 0.01958 0.7806 0.59317 0.0
H661 H 0.96981 0.75003 0.3546 0.0
H662 H 0.98302 0.75485 0.41547 0.0
C663 C 0.0265 0.7852 0.62948 0.0
C664 C 0.00794 0.78247 0.53337 0.0
H665 H 0.98073 0.76167 0.49581 0.0
C666 C 0.01265 0.78886 0.49609 0.0
C667 C 0.99639 0.7724 0.53314 0.0
C668 C 0.99087 0.76534 0.57255 0.0
C669 C 0.00605 0.7856 0.45871 0.0
C670 C 0.99429 0.77583 0.45883 0.0
C671 C 0.98972 0.76918 0.49579 0.0
C672 C 0.98638 0.77286 0.42165 0.0
C673 C 0.01175 0.79265 0.41943 0.0
C674 C 0.98375 0.78131 0.40529 0.0
C675 C 0.97627 0.77861 0.37057 0.0
C676 C 0.97113 0.76734 0.3516 0.0
C677 C 0.97366 0.75881 0.36834 0.0
C678 C 0.98119 0.76154 0.40315 0.0
H679 H 0.0216 0.79712 0.42109 0.0
H680 H 0.0087 0.78689 0.39114 0.0
H681 H 0.00929 0.79965 0.41582 0.0
H682 H 0.9874 0.79 0.41965 0.0
H683 H 0.97445 0.78537 0.35881 0.0
H684 H 0.26342 0.22359 0.39378 0.0
H685 H 0.255 0.22863 0.4539 0.0
H686 H 0.2199 0.2078 0.4015 0.0
H687 H 0.22819 0.20275 0.34121 0.0
H688 H 0.23903 0.23946 0.45293 0.0
H689 H 0.21889 0.19437 0.52384 0.0
H690 H 0.23093 0.19977 0.4864 0.0
H691 H 0.21609 0.19504 0.46891 0.0
C692 C 0.25391 0.22012 0.3949 0.0
C693 C 0.24648 0.21272 0.3627 0.0
C694 C 0.24913 0.22303 0.42926 0.0
C695 C 0.23683 0.21849 0.4323 0.0
C696 C 0.22941 0.2113 0.3999 0.0
H697 H 0.18813 0.21777 0.61803 0.0
H698 H 0.19797 0.21476 0.55795 0.0
C699 C 0.23418 0.20846 0.36539 0.0
C700 C 0.23169 0.22107 0.46968 0.0
H701 H 0.21431 0.208 0.55564 0.0
C702 C 0.23367 0.23262 0.47558 0.0
C703 C 0.22469 0.21211 0.49901 0.0
C704 C 0.22255 0.19963 0.49463 0.0
C705 C 0.22854 0.23539 0.50952 0.0
C706 C 0.22151 0.22641 0.53894 0.0
C707 C 0.21968 0.21488 0.53316 0.0
C708 C 0.21565 0.22861 0.57527 0.0
C709 C 0.23039 0.24779 0.51265 0.0
C710 C 0.22229 0.23736 0.60536 0.0
C711 C 0.21665 0.23918 0.63972 0.0
C712 C 0.20427 0.23216 0.645 0.0
C713 C 0.19768 0.22333 0.61503 0.0
C714 C 0.2033 0.2216 0.5806 0.0
H715 H 0.23308 0.25251 0.48207 0.0
H716 H 0.22218 0.24762 0.52354 0.0
H717 H 0.23757 0.25298 0.53558 0.0
H718 H 0.23187 0.24269 0.6026 0.0
H719 H 0.22201 0.24599 0.66239 0.0
H720 H 0.88368 0.36129 0.7191 0.0
H721 H 0.88042 0.34835 0.77911 0.0
H722 H 0.91199 0.34698 0.7473 0.0
H723 H 0.91548 0.36021 0.68749 0.0
H724 H 0.87646 0.32582 0.78037 0.0
H725 H 0.91736 0.35519 0.87088 0.0
H726 H 0.91255 0.36049 0.82696 0.0
H727 H 0.92002 0.35218 0.81825 0.0
C728 C 0.88999 0.35831 0.7249 0.0
C729 C 0.89988 0.36183 0.69849 0.0
C730 C 0.8881 0.35089 0.75928 0.0
C731 C 0.89604 0.3468 0.76817 0.0
C732 C 0.90589 0.35023 0.74172 0.0
H733 H 0.89261 0.29759 0.9638 0.0
H734 H 0.89816 0.31057 0.90206 0.0
C735 C 0.90783 0.35773 0.70735 0.0
C736 C 0.89368 0.33866 0.80435 0.0
H737 H 0.90503 0.33578 0.89762 0.0
C738 C 0.88272 0.32801 0.80597 0.0
C739 C 0.90186 0.34149 0.83776 0.0
C740 C 0.91357 0.353 0.83873 0.0
C741 C 0.8797 0.32016 0.84004 0.0
C742 C 0.88779 0.32307 0.87367 0.0
C743 C 0.89885 0.33358 0.87176 0.0
C744 C 0.88469 0.31549 0.91172 0.0
C745 C 0.86787 0.30877 0.83973 0.0
C746 C 0.87543 0.31413 0.93802 0.0
C747 C 0.87227 0.30677 0.97333 0.0
C748 C 0.87831 0.30061 0.98315 0.0
C749 C 0.88774 0.30216 0.95712 0.0
C750 C 0.89094 0.30959 0.92185 0.0
H751 H 0.86399 0.30648 0.80771 0.0
H752 H 0.86877 0.30126 0.85203 0.0
H753 H 0.86155 0.30982 0.86024 0.0
H754 H 0.87061 0.31874 0.93113 0.0
H755 H 0.865 0.30584 0.99269 0.0
H756 H 0.63727 0.52971 0.69934 0.0
H757 H 0.64993 0.53593 0.76172 0.0
H758 H 0.65818 0.57211 0.74204 0.0
H759 H 0.64545 0.56596 0.67982 0.0
H760 H 0.67406 0.55221 0.76712 0.0
H761 H 0.64812 0.56637 0.8656 0.0
H762 H 0.64208 0.55741 0.81904 0.0
H763 H 0.65188 0.57319 0.81467 0.0
C764 C 0.64172 0.53898 0.70835 0.0
C765 C 0.6403 0.54732 0.68455 0.0
C766 C 0.64896 0.54253 0.74404 0.0
C767 C 0.65488 0.55446 0.75693 0.0
C768 C 0.65352 0.56282 0.73321 0.0
H769 H 0.7161 0.58858 0.92224 0.0
H770 H 0.70223 0.58223 0.86333 0.0
C771 C 0.64629 0.55929 0.69745 0.0
C772 C 0.6628 0.5582 0.79428 0.0
H773 H 0.66732 0.57132 0.89065 0.0
C774 C 0.67256 0.55635 0.79418 0.0
C775 C 0.66075 0.56347 0.82982 0.0
C776 C 0.65008 0.56514 0.83265 0.0
C777 C 0.68046 0.55983 0.82826 0.0
C778 C 0.67867 0.56548 0.86319 0.0
C779 C 0.66876 0.56711 0.86369 0.0
C780 C 0.68697 0.56971 0.8995 0.0
C781 C 0.69058 0.55725 0.8268 0.0
C782 C 0.68293 0.56509 0.93982 0.0
C783 C 0.69084 0.56876 0.97375 0.0
C784 C 0.70295 0.57718 0.96803 0.0
C785 C 0.70687 0.58202 0.92778 0.0
C786 C 0.69896 0.57835 0.89395 0.0
H787 H 0.68889 0.55018 0.80366 0.0
H788 H 0.69884 0.56543 0.81734 0.0
H789 H 0.69208 0.55446 0.85805 0.0
H790 H 0.67369 0.55846 0.94489 0.0
H791 H 0.6875 0.56487 0.00431 0.0
H792 H 0.47714 0.11644 0.70189 0.0
H793 H 0.46813 0.12054 0.76205 0.0
H794 H 0.43514 0.08815 0.73882 0.0
H795 H 0.44418 0.08383 0.67884 0.0
H796 H 0.44926 0.12408 0.76417 0.0
H797 H 0.44011 0.08529 0.86325 0.0
H798 H 0.44965 0.08954 0.81779 0.0
H799 H 0.43377 0.08143 0.81164 0.0
C800 C 0.46798 0.11013 0.70962 0.0
C801 C 0.4614 0.09977 0.68553 0.0
C802 C 0.46283 0.1125 0.74408 0.0
C803 C 0.451 0.10459 0.75541 0.0
C804 C 0.44436 0.09426 0.73132 0.0
H805 H 0.40969 0.12451 0.91817 0.0
H806 H 0.41715 0.11799 0.8595 0.0
C807 C 0.44952 0.09185 0.69684 0.0
C808 C 0.44557 0.10743 0.79152 0.0
H809 H 0.43226 0.09731 0.88695 0.0
C810 C 0.44554 0.11822 0.791 0.0
C811 C 0.44086 0.09986 0.82682 0.0
C812 C 0.44117 0.08843 0.83027 0.0
C813 C 0.44088 0.12163 0.82456 0.0
C814 C 0.43587 0.11391 0.85935 0.0
C815 C 0.43598 0.10316 0.86009 0.0
C816 C 0.43075 0.11703 0.89568 0.0
C817 C 0.44164 0.1336 0.82285 0.0
C818 C 0.43557 0.1182 0.936 0.0
C819 C 0.43124 0.12182 0.9698 0.0
C820 C 0.42198 0.12434 0.96394 0.0
C821 C 0.4169 0.12276 0.92379 0.0
C822 C 0.4212 0.11909 0.89009 0.0
H823 H 0.44843 0.13964 0.79991 0.0
H824 H 0.43292 0.13241 0.81297 0.0
H825 H 0.44386 0.13796 0.8541 0.0
H826 H 0.44289 0.11659 0.94113 0.0
H827 H 0.43534 0.12291 1.00028 0.0
H828 H 0.44033 0.35756 0.67935 0.0
H829 H 0.4314 0.34451 0.74031 0.0
H830 H 0.46633 0.3556 0.78941 0.0
H831 H 0.47533 0.36856 0.72875 0.0
H832 H 0.43654 0.32549 0.7679 0.0
H833 H 0.44743 0.36062 0.88738 0.0
H834 H 0.44679 0.36312 0.8319 0.0
H835 H 0.45942 0.36282 0.85338 0.0
C836 C 0.44611 0.35726 0.70321 0.0
C837 C 0.45855 0.36412 0.69918 0.0
C838 C 0.44099 0.34979 0.73796 0.0
C839 C 0.44821 0.34919 0.76951 0.0
C840 C 0.46061 0.35605 0.76564 0.0
H841 H 0.44029 0.31241 0.00283 0.0
H842 H 0.44686 0.32571 0.9422 0.0
C843 C 0.46573 0.36341 0.73082 0.0
C844 C 0.44288 0.34116 0.80601 0.0
H845 H 0.44015 0.34102 0.91257 0.0
C846 C 0.43721 0.32885 0.79953 0.0
C847 C 0.44385 0.3456 0.84716 0.0
C848 C 0.44962 0.35876 0.8556 0.0
C849 C 0.43281 0.32083 0.83335 0.0
C850 C 0.43384 0.32527 0.87468 0.0
C851 C 0.43935 0.33761 0.88096 0.0
C852 C 0.42963 0.31731 0.91194 0.0
C853 C 0.42755 0.30774 0.82458 0.0
C854 C 0.4177 0.30828 0.91563 0.0
C855 C 0.41394 0.30059 0.95016 0.0
C856 C 0.42199 0.30187 0.98203 0.0
C857 C 0.43385 0.31115 0.97886 0.0
C858 C 0.43762 0.31877 0.94419 0.0
H859 H 0.43034 0.30613 0.79346 0.0
H860 H 0.4302 0.30341 0.849 0.0
H861 H 0.41771 0.30341 0.82458 0.0
H862 H 0.4113 0.30716 0.89175 0.0
H863 H 0.40472 0.29361 0.95177 0.0
H864 H 0.68396 0.11386 0.01309 0.0
H865 H 0.66952 0.106 0.9557 0.0
H866 H 0.69816 0.12017 0.86576 0.0
H867 H 0.71264 0.12785 0.92282 0.0
H868 H 0.66614 0.11833 0.89282 0.0
H869 H 0.67792 0.08633 0.82449 0.0
H870 H 0.68303 0.09292 0.87557 0.0
H871 H 0.69037 0.10112 0.82892 0.0
C872 C 0.6872 0.11521 0.98111 0.0
C873 C 0.69947 0.12145 0.97261 0.0
C874 C 0.67893 0.11072 0.94833 0.0
C875 C 0.68274 0.11233 0.9064 0.0
C876 C 0.69499 0.11855 0.89784 0.0
H877 H 0.64841 0.09917 0.66323 0.0
H878 H 0.6624 0.10522 0.72195 0.0
C879 C 0.70326 0.12301 0.93057 0.0
C880 C 0.67393 0.108 0.87163 0.0
H881 H 0.66511 0.09059 0.78374 0.0
C882 C 0.66585 0.11219 0.86918 0.0
C883 C 0.67357 0.10001 0.84069 0.0
C884 C 0.68161 0.09473 0.84266 0.0
C885 C 0.65761 0.10881 0.83619 0.0
C886 C 0.65733 0.10091 0.80508 0.0
C887 C 0.66536 0.09668 0.80758 0.0
C888 C 0.6488 0.097 0.76957 0.0
C889 C 0.64945 0.11395 0.83431 0.0
C890 C 0.63652 0.09021 0.77681 0.0
C891 C 0.62849 0.08672 0.74334 0.0
C892 C 0.6326 0.08993 0.70191 0.0
C893 C 0.64493 0.09658 0.69473 0.0
C894 C 0.65295 0.10003 0.72823 0.0
H895 H 0.65259 0.12187 0.85482 0.0
H896 H 0.64869 0.11649 0.80169 0.0
H897 H 0.64045 0.10714 0.845 0.0
H898 H 0.63314 0.08761 0.80841 0.0
H899 H 0.61907 0.08156 0.75003 0.0
H900 H 0.89356 0.53641 0.66908 0.0
H901 H 0.88603 0.54186 0.73051 0.0
H902 H 0.9218 0.56329 0.77675 0.0
H903 H 0.92945 0.55788 0.71541 0.0
H904 H 0.89031 0.53782 0.81798 0.0
H905 H 0.90681 0.58543 0.78112 0.0
H906 H 0.90507 0.57476 0.74139 0.0
H907 H 0.91736 0.58033 0.77717 0.0
C908 C 0.89986 0.54236 0.6921 0.0
C909 C 0.91212 0.54671 0.68725 0.0
C910 C 0.89553 0.54545 0.72723 0.0
C911 C 0.90336 0.55305 0.75797 0.0
C912 C 0.91561 0.55753 0.7531 0.0
H913 H 0.89024 0.58059 0.99042 0.0
H914 H 0.89958 0.57661 0.93048 0.0
C915 C 0.91996 0.55438 0.71809 0.0
C916 C 0.89863 0.55587 0.79594 0.0
H917 H 0.89709 0.57831 0.84608 0.0
C918 C 0.89178 0.54667 0.82417 0.0
C919 C 0.90068 0.56745 0.80409 0.0
C920 C 0.90781 0.57759 0.77432 0.0
C921 C 0.88693 0.54871 0.86045 0.0
C922 C 0.88869 0.56023 0.86811 0.0
C923 C 0.89571 0.56949 0.84016 0.0
C924 C 0.88305 0.56274 0.90432 0.0
C925 C 0.88013 0.53855 0.89055 0.0
C926 C 0.87065 0.55644 0.90918 0.0
C927 C 0.86531 0.55862 0.94347 0.0
C928 C 0.87224 0.5673 0.97343 0.0
C929 C 0.88465 0.57382 0.96801 0.0
C930 C 0.89 0.57157 0.93375 0.0
H931 H 0.88274 0.53164 0.8873 0.0
H932 H 0.8816 0.54168 0.92357 0.0
H933 H 0.87049 0.5343 0.88359 0.0
H934 H 0.86507 0.54982 0.88631 0.0
H935 H 0.85572 0.55352 0.94635 0.0
H936 H 0.52518 0.6317 0.27779 0.0
H937 H 0.53382 0.64495 0.21771 0.0
H938 H 0.56896 0.65745 0.26772 0.0
H939 H 0.56038 0.64393 0.32751 0.0
H940 H 0.54674 0.6687 0.21537 0.0
H941 H 0.57343 0.65007 0.14869 0.0
H942 H 0.56237 0.64252 0.18886 0.0
H943 H 0.57688 0.65455 0.20247 0.0
C944 C 0.53476 0.6372 0.27595 0.0
C945 C 0.54209 0.6367 0.30744 0.0
C946 C 0.53969 0.64479 0.24152 0.0
C947 C 0.55206 0.65209 0.23773 0.0
C948 C 0.55941 0.65169 0.2693 0.0
H949 H 0.5955 0.70867 0.06061 0.0
H950 H 0.58823 0.69488 0.12015 0.0
C951 C 0.55449 0.64401 0.30365 0.0
C952 C 0.55713 0.66039 0.20149 0.0
H953 H 0.57639 0.66812 0.11872 0.0
C954 C 0.55319 0.66852 0.19419 0.0
C955 C 0.56557 0.66019 0.17376 0.0
C956 C 0.56974 0.65129 0.17851 0.0
C957 C 0.55747 0.67648 0.16024 0.0
C958 C 0.56588 0.67628 0.13265 0.0
C959 C 0.56994 0.66825 0.14003 0.0
C960 C 0.57042 0.68426 0.09566 0.0
C961 C 0.55306 0.68515 0.15429 0.0
C962 C 0.56287 0.68271 0.06182 0.0
C963 C 0.567 0.69052 0.02764 0.0
C964 C 0.57877 0.70007 0.02671 0.0
C965 C 0.58638 0.70145 0.06035 0.0
C966 C 0.58226 0.69357 0.09439 0.0
H967 H 0.54837 0.68574 0.18256 0.0
H968 H 0.56056 0.69415 0.14686 0.0
H969 H 0.54676 0.68221 0.12752 0.0
H970 H 0.55374 0.67551 0.06203 0.0
H971 H 0.5609 0.68918 1.0023 0.0
H972 H 0.34125 0.90715 0.36181 0.0
H973 H 0.32942 0.90161 0.29739 0.0
H974 H 0.35649 0.89765 0.23346 0.0
H975 H 0.36833 0.90305 0.29779 0.0
H976 H 0.3352 0.91232 0.21772 0.0
H977 H 0.32626 0.86583 0.21088 0.0
H978 H 0.3319 0.87489 0.25738 0.0
H979 H 0.34171 0.87692 0.21445 0.0
C980 C 0.3447 0.90509 0.33409 0.0
C981 C 0.35572 0.90548 0.33512 0.0
C982 C 0.33792 0.90194 0.29726 0.0
C983 C 0.34197 0.89903 0.26077 0.0
C984 C 0.35306 0.89962 0.26145 0.0
H985 H 0.31133 0.87584 0.01098 0.0
H986 H 0.32455 0.88266 0.07207 0.0
C987 C 0.35985 0.90278 0.29825 0.0
C988 C 0.33464 0.8955 0.22196 0.0
H989 H 0.31996 0.87261 0.15269 0.0
C990 C 0.33185 0.90363 0.20354 0.0
C991 C 0.33029 0.88417 0.2034 0.0
C992 C 0.33259 0.87489 0.22266 0.0
C993 C 0.32494 0.90078 0.16687 0.0
C994 C 0.32051 0.88942 0.14851 0.0
C995 C 0.32338 0.88133 0.16673 0.0
C996 C 0.31264 0.88563 0.11104 0.0
C997 C 0.32259 0.91003 0.14771 0.0
C998 C 0.30151 0.88493 0.11273 0.0
C999 C 0.29393 0.88103 0.07793 0.0
C1000 C 0.2973 0.87768 0.04068 0.0
C1001 C 0.30846 0.87839 0.03907 0.0
C1002 C 0.31603 0.88227 0.07399 0.0
H1003 H 0.32915 0.91913 0.15848 0.0
H1004 H 0.32286 0.90978 0.11293 0.0
H1005 H 0.31361 0.90821 0.15724 0.0
H1006 H 0.29859 0.88724 0.14124 0.0
H1007 H 0.28538 0.88055 0.08041 0.0
H1008 H 0.11284 0.47509 0.2904 0.0
H1009 H 0.11574 0.46515 0.23044 0.0
H1010 H 0.08488 0.43216 0.26679 0.0
H1011 H 0.08173 0.44215 0.32652 0.0
H1012 H 0.12017 0.44696 0.2291 0.0
H1013 H 0.07809 0.43387 0.14402 0.0
H1014 H 0.08315 0.44426 0.1871 0.0
H1015 H 0.07605 0.42855 0.19706 0.0
C1016 C 0.10661 0.46573 0.28561 0.0
C1017 C 0.09702 0.45943 0.31324 0.0
C1018 C 0.10829 0.46005 0.25125 0.0
C1019 C 0.10044 0.44794 0.24366 0.0
C1020 C 0.0909 0.44157 0.27136 0.0
H1021 H 0.10282 0.40071 0.05233 0.0
H1022 H 0.09784 0.40871 0.11386 0.0
C1023 C 0.08915 0.44728 0.30568 0.0
C1024 C 0.10258 0.442 0.20746 0.0
H1025 H 0.09034 0.42677 0.11653 0.0
C1026 C 0.11364 0.44256 0.20451 0.0
C1027 C 0.09405 0.43622 0.17534 0.0
C1028 C 0.08221 0.43576 0.17569 0.0
C1029 C 0.11641 0.43754 0.17041 0.0
C1030 C 0.10795 0.43188 0.13816 0.0
C1031 C 0.09681 0.43111 0.14136 0.0
C1032 C 0.11069 0.42705 0.10027 0.0
C1033 C 0.12838 0.43827 0.1692 0.0
C1034 C 0.11941 0.43474 0.0719 0.0
C1035 C 0.12224 0.43023 0.03667 0.0
C1036 C 0.11641 0.41791 0.0291 0.0
C1037 C 0.10752 0.41024 0.05727 0.0
C1038 C 0.10465 0.41478 0.09242 0.0
H1039 H 0.13274 0.44043 0.20045 0.0
H1040 H 0.1275 0.42976 0.15812 0.0
H1041 H 0.13426 0.44536 0.14694 0.0
H1042 H 0.12407 0.44425 0.07709 0.0
H1043 H 0.1291 0.4364 0.01563 0.0
H1044 H 0.10548 0.63891 0.31841 0.0
H1045 H 0.11268 0.65171 0.25659 0.0
H1046 H 0.07807 0.64801 0.23932 0.0
H1047 H 0.07074 0.63518 0.30137 0.0
H1048 H 0.10307 0.64524 0.1733 0.0
H1049 H 0.10138 0.68451 0.23428 0.0
H1050 H 0.10125 0.67334 0.26845 0.0
H1051 H 0.08808 0.67031 0.24018 0.0
C1052 C 0.09939 0.64087 0.30174 0.0
C1053 C 0.08752 0.63601 0.31496 0.0
C1054 C 0.10354 0.64818 0.26634 0.0
C1055 C 0.09595 0.6509 0.24359 0.0
C1056 C 0.08412 0.64617 0.25679 0.0
H1057 H 0.11042 0.6953 0.01923 0.0
H1058 H 0.10077 0.68233 0.07977 0.0
C1059 C 0.07994 0.63879 0.29217 0.0
C1060 C 0.10038 0.65832 0.20515 0.0
H1061 H 0.10716 0.68524 0.16365 0.0
C1062 C 0.10395 0.65398 0.17114 0.0
C1063 C 0.10141 0.66966 0.20229 0.0
C1064 C 0.09792 0.67482 0.23827 0.0
C1065 C 0.10858 0.6607 0.13438 0.0
C1066 C 0.10996 0.67221 0.13193 0.0
C1067 C 0.10614 0.67644 0.1656 0.0
C1068 C 0.11578 0.68015 0.09537 0.0
C1069 C 0.11184 0.65535 0.09835 0.0
C1070 C 0.12749 0.6834 0.08447 0.0
C1071 C 0.13299 0.69074 0.0499 0.0
C1072 C 0.12696 0.69512 0.02565 0.0
C1073 C 0.1153 0.69205 0.03712 0.0
C1074 C 0.10978 0.68465 0.07173 0.0
H1075 H 0.10694 0.64548 0.09994 0.0
H1076 H 0.10993 0.6581 0.06768 0.0
H1077 H 0.12148 0.65841 0.09983 0.0
H1078 H 0.13242 0.6803 0.10284 0.0
H1079 H 0.14201 0.693 0.04229 0.0
H1080 H 0.36455 0.47067 0.30179 0.0
H1081 H 0.35263 0.46531 0.23773 0.0
H1082 H 0.34199 0.42846 0.2571 0.0
H1083 H 0.35373 0.4337 0.32167 0.0
H1084 H 0.35436 0.45448 0.16582 0.0
H1085 H 0.31017 0.42687 0.24024 0.0
H1086 H 0.32332 0.43653 0.27013 0.0
H1087 H 0.32082 0.42234 0.25231 0.0
C1088 C 0.35965 0.46141 0.29257 0.0
C1089 C 0.36005 0.45261 0.31708 0.0
C1090 C 0.35284 0.45837 0.25587 0.0
C1091 C 0.34626 0.44647 0.24291 0.0
C1092 C 0.34677 0.43767 0.26695 0.0
H1093 H 0.29953 0.41367 0.02632 0.0
H1094 H 0.31195 0.41732 0.0887 0.0
C1095 C 0.35355 0.4407 0.30376 0.0
C1096 C 0.33905 0.44335 0.20382 0.0
H1097 H 0.31069 0.4273 0.16601 0.0
C1098 C 0.34481 0.44854 0.16588 0.0
C1099 C 0.32659 0.43556 0.20387 0.0
C1100 C 0.31982 0.43007 0.24383 0.0
C1101 C 0.33847 0.44614 0.12803 0.0
C1102 C 0.326 0.43849 0.12818 0.0
C1103 C 0.32025 0.43314 0.16596 0.0
C1104 C 0.31869 0.43629 0.08977 0.0
C1105 C 0.3452 0.45175 0.08812 0.0
C1106 C 0.31827 0.44571 0.06991 0.0
C1107 C 0.31119 0.44366 0.03438 0.0
C1108 C 0.30432 0.43212 0.01798 0.0
C1109 C 0.30474 0.42268 0.038 0.0
C1110 C 0.31182 0.42474 0.07368 0.0
H1111 H 0.35477 0.45458 0.09115 0.0
H1112 H 0.34142 0.44551 0.06127 0.0
H1113 H 0.34452 0.45975 0.08091 0.0
H1114 H 0.32331 0.45466 0.08225 0.0
H1115 H 0.31105 0.45114 0.01996 0.0
H1116 H 0.55888 0.93 0.27784 0.0
H1117 H 0.56359 0.92144 0.21743 0.0
H1118 H 0.54103 0.88625 0.26687 0.0
H1119 H 0.53629 0.8947 0.32751 0.0
H1120 H 0.57327 0.90469 0.21771 0.0
H1121 H 0.52868 0.88652 0.14421 0.0
H1122 H 0.53425 0.89828 0.18277 0.0
H1123 H 0.52891 0.88321 0.19889 0.0
C1124 C 0.55494 0.92044 0.276 0.0
C1125 C 0.54715 0.91304 0.30747 0.0
C1126 C 0.55767 0.91558 0.24147 0.0
C1127 C 0.55257 0.90323 0.23752 0.0
C1128 C 0.54497 0.89581 0.26917 0.0
H1129 H 0.55081 0.85497 0.04791 0.0
H1130 H 0.54801 0.86464 0.10889 0.0
C1131 C 0.5423 0.90066 0.30386 0.0
C1132 C 0.55505 0.89806 0.2 0.0
H1133 H 0.542 0.88151 0.11241 0.0
C1134 C 0.56648 0.89966 0.19452 0.0
C1135 C 0.54614 0.89151 0.16994 0.0
C1136 C 0.53381 0.88981 0.17385 0.0
C1137 C 0.56916 0.89458 0.16024 0.0
C1138 C 0.56023 0.888 0.13007 0.0
C1139 C 0.54884 0.88654 0.13547 0.0
C1140 C 0.56235 0.88223 0.0933 0.0
C1141 C 0.58139 0.89599 0.15748 0.0
C1142 C 0.57133 0.88889 0.06391 0.0
C1143 C 0.57304 0.88334 0.02902 0.0
C1144 C 0.56567 0.87105 0.02253 0.0
C1145 C 0.55664 0.86445 0.05184 0.0
C1146 C 0.55502 0.86997 0.08679 0.0
H1147 H 0.58597 0.89831 0.18837 0.0
H1148 H 0.58096 0.88772 0.14588 0.0
H1149 H 0.58688 0.90329 0.13528 0.0
H1150 H 0.57692 0.89841 0.0676 0.0
H1151 H 0.58001 0.8887 0.00688 0.0
H1152 H 0.21292 0.9806 0.8355 0.0
H1153 H 0.21885 0.99526 0.89202 0.0
H1154 H 0.18245 0.97866 0.93423 0.0
H1155 H 0.17662 0.96365 0.87919 0.0
H1156 H 0.21391 0.01151 0.9189 0.0
H1157 H 0.1982 0.97559 0.03739 0.0
H1158 H 0.1988 0.97291 0.98223 0.0
H1159 H 0.18648 0.97393 0.00335 0.0
C1160 C 0.20616 0.98026 0.85629 0.0
C1161 C 0.19435 0.97095 0.8534 0.0
C1162 C 0.20956 0.98859 0.88871 0.0
C1163 C 0.20116 0.98779 0.91826 0.0
C1164 C 0.18916 0.97917 0.9128 0.0
H1165 H 0.21787 0.04347 0.10223 0.0
H1166 H 0.2091 0.0292 0.04487 0.0
C1167 C 0.18581 0.9707 0.88105 0.0
C1168 C 0.20504 0.99554 0.95591 0.0
H1169 H 0.20418 0.99493 0.06304 0.0
C1170 C 0.2118 0.00789 0.95042 0.0
C1171 C 0.20253 0.99079 0.99711 0.0
C1172 C 0.19622 0.97758 0.00546 0.0
C1173 C 0.21601 0.01563 0.98489 0.0
C1174 C 0.21298 0.01091 0.02604 0.0
C1175 C 0.20633 0.99855 0.03153 0.0
C1176 C 0.21695 0.01862 0.06378 0.0
C1177 C 0.224 0.02875 0.97673 0.0
C1178 C 0.22349 0.01688 0.09535 0.0
C1179 C 0.22819 0.02482 0.12899 0.0
C1180 C 0.22652 0.03469 0.13118 0.0
C1181 C 0.21939 0.03601 0.10095 0.0
C1182 C 0.2145 0.02794 0.06791 0.0
H1183 H 0.22835 0.03039 0.94552 0.0
H1184 H 0.21859 0.0332 0.97708 0.0
H1185 H 0.23102 0.03292 1.00104 0.0
H1186 H 0.22538 0.00967 0.09307 0.0
H1187 H 0.23369 0.02364 0.1518 0.0
H1188 H 0.97892 0.209 0.17548 0.0
H1189 H 0.99437 0.21507 0.12142 0.0
H1190 H 0.97054 0.18501 0.04556 0.0
H1191 H 0.95523 0.17883 0.09916 0.0
H1192 H 0.99374 0.18913 0.04555 0.0
H1193 H 0.99186 0.23011 0.0107 0.0
H1194 H 0.99515 0.22849 0.06425 0.0
H1195 H 0.98086 0.21822 0.04261 0.0
C1196 C 0.97707 0.20358 0.14761 0.0
C1197 C 0.96581 0.19352 0.14139 0.0
C1198 C 0.98585 0.20711 0.11663 0.0
C1199 C 0.98349 0.20061 0.07915 0.0
C1200 C 0.97251 0.1902 0.07409 0.0
H1201 H 0.01877 0.22553 0.83777 0.0
H1202 H 0.0039 0.21662 0.89382 0.0
C1203 C 0.96376 0.1867 0.1048 0.0
C1204 C 0.99212 0.20483 0.04404 0.0
H1205 H 0.00569 0.22716 0.97215 0.0
C1206 C 0.9964 0.19746 0.02957 0.0
C1207 C 0.99533 0.21557 0.02269 0.0
C1208 C 0.9905 0.22354 0.03549 0.0
C1209 C 0.00394 0.20062 0.99457 0.0
C1210 C 0.0074 0.21151 0.9739 0.0
C1211 C 0.00301 0.21881 0.98809 0.0
C1212 C 0.01597 0.21577 0.93864 0.0
C1213 C 0.00798 0.19219 0.97962 0.0
C1214 C 0.02761 0.21811 0.94519 0.0
C1215 C 0.03606 0.22314 0.91341 0.0
C1216 C 0.0331 0.22604 0.87437 0.0
C1217 C 0.02132 0.22335 0.86736 0.0
C1218 C 0.01284 0.21832 0.89938 0.0
H1219 H 0.00196 0.18297 0.99075 0.0
H1220 H 0.00843 0.19212 0.94485 0.0
H1221 H 0.01699 0.19511 0.99219 0.0
H1222 H 0.03027 0.21641 0.97543 0.0
H1223 H 0.04505 0.22509 0.91994 0.0
H1224 H 0.77145 0.79158 0.83243 0.0
H1225 H 0.78042 0.78565 0.88839 0.0
H1226 H 0.78295 0.81385 0.9669 0.0
H1227 H 0.7742 0.81991 0.91142 0.0
H1228 H 0.80309 0.81127 0.97073 0.0
H1229 H 0.76116 0.76841 0.99429 0.0
H1230 H 0.76701 0.77102 0.94184 0.0
H1231 H 0.76183 0.78039 0.96346 0.0
C1232 C 0.77409 0.79662 0.86136 0.0
C1233 C 0.77199 0.80613 0.86764 0.0
C1234 C 0.77912 0.79317 0.89338 0.0
C1235 C 0.78211 0.79918 0.93203 0.0
C1236 C 0.78062 0.80905 0.93744 0.0
H1237 H 0.79078 0.77131 0.17018 0.0
H1238 H 0.78494 0.78085 0.11604 0.0
C1239 C 0.77559 0.81248 0.90565 0.0
C1240 C 0.7863 0.79495 0.96773 0.0
H1241 H 0.7777 0.77164 0.03516 0.0
C1242 C 0.79756 0.8026 0.98482 0.0
C1243 C 0.77894 0.78375 0.9866 0.0
C1244 C 0.76651 0.77543 0.97096 0.0
C1245 C 0.80175 0.79925 0.01985 0.0
C1246 C 0.79454 0.7879 0.03786 0.0
C1247 C 0.78321 0.78034 0.02124 0.0
C1248 C 0.79881 0.78339 0.07249 0.0
C1249 C 0.81381 0.80793 0.03755 0.0
C1250 C 0.80859 0.7818 0.06605 0.0
C1251 C 0.81193 0.77639 0.09673 0.0
C1252 C 0.8055 0.77238 0.13448 0.0
C1253 C 0.79594 0.77435 0.14156 0.0
C1254 C 0.79257 0.77975 0.11063 0.0
H1255 H 0.8166 0.81722 0.02844 0.0
H1256 H 0.81384 0.80737 0.07231 0.0
H1257 H 0.82049 0.80579 0.02508 0.0
H1258 H 0.81339 0.78435 0.0366 0.0
H1259 H 0.81935 0.77503 0.09023 0.0
H1260 H 0.77422 0.95357 0.91535 0.0
H1261 H 0.78307 0.96863 0.96993 0.0
H1262 H 0.77828 0.99322 0.89293 0.0
H1263 H 0.76919 0.97804 0.8379 0.0
H1264 H 0.80255 0.99174 0.97167 0.0
H1265 H 0.75983 0.99065 1.00161 0.0
H1266 H 0.76076 0.97958 0.97018 0.0
H1267 H 0.76513 0.99396 0.94849 0.0
C1268 C 0.77513 0.96221 0.90969 0.0
C1269 C 0.77085 0.96456 0.87244 0.0
C1270 C 0.78023 0.97082 0.94096 0.0
C1271 C 0.78112 0.98194 0.93579 0.0
C1272 C 0.77746 0.98459 0.89778 0.0
H1273 H 0.81776 0.04374 0.09281 0.0
H1274 H 0.81187 0.0286 0.03874 0.0
C1275 C 0.77236 0.97595 0.86626 0.0
C1276 C 0.78536 0.99046 0.9712 0.0
H1277 H 0.77649 0.00444 0.04089 0.0
C1278 C 0.79687 0.99455 0.98679 0.0
C1279 C 0.77783 0.99386 0.99143 0.0
C1280 C 0.76516 0.98922 0.97743 0.0
C1281 C 0.80113 0.00215 0.02166 0.0
C1282 C 0.79372 0.00584 0.04106 0.0
C1283 C 0.78215 0.00159 0.0259 0.0
C1284 C 0.79797 0.01459 0.07575 0.0
C1285 C 0.81347 0.00605 0.03774 0.0
C1286 C 0.79211 0.01174 0.11466 0.0
C1287 C 0.79544 0.02043 0.14586 0.0
C1288 C 0.80459 0.03213 0.1383 0.0
C1289 C 0.81066 0.03482 0.0997 0.0
C1290 C 0.80736 0.02615 0.06876 0.0
H1291 H 0.81659 -0.00013 0.02764 0.0
H1292 H 0.81975 0.01499 0.025 0.0
H1293 H 0.8138 0.00661 0.07252 0.0
H1294 H 0.78478 0.00286 0.12053 0.0
H1295 H 0.79056 0.0181 0.17514 0.0
H1296 H 0.0379 0.82285 0.88741 0.0
H1297 H 0.02299 0.81631 0.94304 0.0
H1298 H 0.00699 0.78029 0.89731 0.0
H1299 H 0.02158 0.78694 0.84021 0.0
H1300 H 0.99045 0.78461 0.92514 0.0
H1301 H 0.026 0.80007 0.04476 0.0
H1302 H 0.02763 0.81199 0.01188 0.0
H1303 H 0.02891 0.79994 0.98956 0.0
C1304 C 0.03103 0.81358 0.88872 0.0
C1305 C 0.03092 0.80537 0.85976 0.0
C1306 C 0.02261 0.80983 0.92082 0.0
C1307 C 0.01416 0.79774 0.92536 0.0
C1308 C 0.01353 0.78964 0.89475 0.0
H1309 H 0.97724 0.7646 0.15803 0.0
H1310 H 0.99157 0.77292 0.1002 0.0
C1311 C 0.02181 0.79345 0.862 0.0
C1312 C 0.0063 0.79349 0.96277 0.0
H1313 H 0.00654 0.79406 0.06996 0.0
C1314 C 0.99397 0.78665 0.9568 0.0
C1315 C 0.0109 0.79588 0.00417 0.0
C1316 C 0.02409 0.80226 0.01304 0.0
C1317 C 0.98611 0.78232 0.99096 0.0
C1318 C 0.99068 0.78531 0.03232 0.0
C1319 C 0.00302 0.79196 0.03831 0.0
C1320 C 0.98281 0.78138 0.06972 0.0
C1321 C 0.97303 0.7743 0.98224 0.0
C1322 C 0.9735 0.78387 0.07298 0.0
C1323 C 0.96524 0.77898 0.10549 0.0
C1324 C 0.96635 0.77182 0.13611 0.0
C1325 C 0.97622 0.77014 0.13491 0.0
C1326 C 0.98436 0.77484 0.10177 0.0
H1327 H 0.97153 0.76993 0.95111 0.0
H1328 H 0.96877 0.7673 0.00657 0.0
H1329 H 0.96856 0.77969 0.98199 0.0
H1330 H 0.97238 0.78928 0.04959 0.0
H1331 H 0.95777 0.78051 0.10599 0.0
H1332 H 0.22763 0.17805 0.09089 0.0
H1333 H 0.21837 0.18326 0.03446 0.0
H1334 H 0.21952 0.21121 0.11075 0.0
H1335 H 0.22896 0.20615 0.16756 0.0
H1336 H 0.1977 0.18515 0.02847 0.0
H1337 H 0.23909 0.22848 0.00514 0.0
H1338 H 0.23862 0.21671 0.03669 0.0
H1339 H 0.23313 0.22592 0.05741 0.0
C1340 C 0.22578 0.18522 0.09601 0.0
C1341 C 0.22917 0.19179 0.13358 0.0
C1342 C 0.22047 0.18816 0.06367 0.0
C1343 C 0.2185 0.19776 0.06812 0.0
C1344 C 0.22118 0.2039 0.10648 0.0
H1345 H 0.18033 0.22091 0.91205 0.0
H1346 H 0.18656 0.21141 0.96407 0.0
C1347 C 0.22648 0.20094 0.13901 0.0
C1348 C 0.21425 0.20171 0.03172 0.0
H1349 H 0.22241 0.22495 0.96433 0.0
C1350 C 0.20309 0.19384 0.01438 0.0
C1351 C 0.22144 0.21294 0.0128 0.0
C1352 C 0.23379 0.22148 0.02862 0.0
C1353 C 0.19878 0.19706 0.9793 0.0
C1354 C 0.20577 0.20848 0.96145 0.0
C1355 C 0.21706 0.21621 0.97811 0.0
C1356 C 0.20127 0.21294 0.92738 0.0
C1357 C 0.18681 0.1882 0.96153 0.0
C1358 C 0.20747 0.21695 0.88926 0.0
C1359 C 0.20393 0.22244 0.85923 0.0
C1360 C 0.19425 0.22416 0.86726 0.0
C1361 C 0.18785 0.21975 0.90488 0.0
C1362 C 0.19134 0.21423 0.93461 0.0
H1363 H 0.18429 0.17894 0.97012 0.0
H1364 H 0.17995 0.19003 0.97448 0.0
H1365 H 0.18672 0.18888 0.92682 0.0
H1366 H 0.21521 0.21609 0.88323 0.0
H1367 H 0.20907 0.2258 0.83068 0.0
H1368 H 0.87982 0.37095 0.45804 0.0
H1369 H 0.87017 0.35608 0.40299 0.0
H1370 H 0.88912 0.33845 0.44389 0.0
H1371 H 0.8984 0.35307 0.50031 0.0
H1372 H 0.88159 0.35357 0.33992 0.0
H1373 H 0.85707 0.31034 0.42203 0.0
H1374 H 0.86284 0.32434 0.4492 0.0
H1375 H 0.87243 0.31844 0.43693 0.0
C1376 C 0.88162 0.36366 0.45609 0.0
C1377 C 0.8898 0.3631 0.48343 0.0
C1378 C 0.87616 0.35522 0.42449 0.0
C1379 C 0.8789 0.34613 0.41922 0.0
C1380 C 0.88666 0.34522 0.44781 0.0
H1381 H 0.8753 0.31098 0.18347 0.0
H1382 H 0.88109 0.32534 0.24093 0.0
C1383 C 0.89197 0.35357 0.48006 0.0
C1384 C 0.87456 0.33844 0.38143 0.0
H1385 H 0.86037 0.3096 0.34858 0.0
C1386 C 0.87683 0.34394 0.34186 0.0
C1387 C 0.86828 0.32589 0.38389 0.0
C1388 C 0.8649 0.31941 0.42532 0.0
C1389 C 0.87312 0.33727 0.30472 0.0
C1390 C 0.86729 0.32473 0.30711 0.0
C1391 C 0.8649 0.31922 0.34669 0.0
C1392 C 0.86357 0.31707 0.2692 0.0
C1393 C 0.8753 0.34373 0.26346 0.0
C1394 C 0.85181 0.30771 0.26568 0.0
C1395 C 0.84857 0.29942 0.2334 0.0
C1396 C 0.857 0.30038 0.20368 0.0
C1397 C 0.86859 0.31015 0.20558 0.0
C1398 C 0.8719 0.31835 0.23842 0.0
H1399 H 0.87623 0.35265 0.26773 0.0
H1400 H 0.88371 0.34504 0.24962 0.0
H1401 H 0.86798 0.33861 0.24088 0.0
H1402 H 0.84522 0.30656 0.28889 0.0
H1403 H 0.83956 0.29196 0.23264 0.0
H1404 H 0.68839 0.55975 0.16889 0.0
H1405 H 0.67368 0.55022 0.22521 0.0
H1406 H 0.70078 0.55094 0.30537 0.0
H1407 H 0.71538 0.56021 0.24964 0.0
H1408 H 0.67921 0.52964 0.3102 0.0
H1409 H 0.67352 0.56908 0.329 0.0
H1410 H 0.67072 0.5628 0.27718 0.0
H1411 H 0.68546 0.56951 0.29867 0.0
C1412 C 0.69115 0.55772 0.19832 0.0
C1413 C 0.70308 0.56086 0.20491 0.0
C1414 C 0.68278 0.55237 0.23053 0.0
C1415 C 0.68622 0.55009 0.26967 0.0
C1416 C 0.69796 0.55269 0.27551 0.0
H1417 H 0.64942 0.54016 0.50748 0.0
H1418 H 0.66497 0.54642 0.45376 0.0
C1419 C 0.7063 0.55802 0.24356 0.0
C1420 C 0.67783 0.54545 0.3054 0.0
H1421 H 0.6616 0.55243 0.37175 0.0
C1422 C 0.67533 0.5346 0.32364 0.0
C1423 C 0.67301 0.55208 0.32339 0.0
C1424 C 0.67586 0.56406 0.30639 0.0
C1425 C 0.66797 0.5301 0.35905 0.0
C1426 C 0.66291 0.53658 0.37632 0.0
C1427 C 0.66553 0.5475 0.35844 0.0
C1428 C 0.6543 0.53192 0.4114 0.0
C1429 C 0.66578 0.51854 0.37798 0.0
C1430 C 0.64329 0.52157 0.40568 0.0
C1431 C 0.63445 0.51801 0.43611 0.0
C1432 C 0.63642 0.52474 0.47287 0.0
C1433 C 0.64767 0.53475 0.47964 0.0
C1434 C 0.65652 0.53837 0.44891 0.0
H1435 H 0.67279 0.51644 0.36879 0.0
H1436 H 0.66542 0.51879 0.41275 0.0
H1437 H 0.65712 0.51122 0.36663 0.0
H1438 H 0.64132 0.51657 0.37674 0.0
H1439 H 0.62587 0.51024 0.42999 0.0
H1440 H 0.43752 0.12632 0.16567 0.0
H1441 H 0.44626 0.1205 0.22281 0.0
H1442 H 0.44744 0.14816 0.30097 0.0
H1443 H 0.43895 0.15412 0.24435 0.0
H1444 H 0.46782 0.1463 0.30726 0.0
H1445 H 0.42665 0.10258 0.32689 0.0
H1446 H 0.43291 0.10546 0.27504 0.0
H1447 H 0.42712 0.11442 0.29577 0.0
C1448 C 0.43981 0.13126 0.19481 0.0
C1449 C 0.43742 0.14059 0.20059 0.0
C1450 C 0.4447 0.12787 0.22751 0.0
C1451 C 0.44726 0.13376 0.26636 0.0
C1452 C 0.44545 0.14345 0.27137 0.0
H1453 H 0.4556 0.10468 0.50287 0.0
H1454 H 0.4497 0.11463 0.45045 0.0
C1455 C 0.44057 0.14682 0.23891 0.0
C1456 C 0.45141 0.12964 0.30255 0.0
H1457 H 0.44316 0.10614 0.36878 0.0
C1458 C 0.46244 0.13753 0.32075 0.0
C1459 C 0.44423 0.1183 0.32069 0.0
C1460 C 0.43202 0.10972 0.30393 0.0
C1461 C 0.46662 0.13425 0.35603 0.0
C1462 C 0.45963 0.12274 0.37317 0.0
C1463 C 0.44849 0.11496 0.35556 0.0
C1464 C 0.46403 0.11825 0.40747 0.0
C1465 C 0.47843 0.14316 0.37482 0.0
C1466 C 0.47413 0.11719 0.40095 0.0
C1467 C 0.47749 0.11155 0.43063 0.0
C1468 C 0.47078 0.10678 0.46745 0.0
C1469 C 0.46098 0.10833 0.47495 0.0
C1470 C 0.45757 0.11395 0.44497 0.0
H1471 H 0.48084 0.15242 0.36669 0.0
H1472 H 0.47832 0.14231 0.4095 0.0
H1473 H 0.48546 0.14155 0.36219 0.0
H1474 H 0.47911 0.12025 0.37197 0.0
H1475 H 0.48511 0.11053 0.42391 0.0
H1476 H 0.43668 0.31316 0.18766 0.0
H1477 H 0.44609 0.32733 0.24501 0.0
H1478 H 0.46055 0.30616 0.29354 0.0
H1479 H 0.45057 0.29165 0.2376 0.0
H1480 H 0.45055 0.31078 0.35348 0.0
H1481 H 0.47855 0.35312 0.27082 0.0
H1482 H 0.46348 0.34659 0.2533 0.0
H1483 H 0.47173 0.33903 0.24387 0.0
C1484 C 0.44212 0.31171 0.20997 0.0
C1485 C 0.44292 0.30134 0.20825 0.0
C1486 C 0.44755 0.31984 0.24271 0.0
C1487 C 0.45418 0.31792 0.27348 0.0
C1488 C 0.45548 0.30785 0.27031 0.0
H1489 H 0.48963 0.37394 0.46001 0.0
H1490 H 0.48627 0.359 0.40692 0.0
C1491 C 0.44983 0.29959 0.23824 0.0
C1492 C 0.45873 0.32571 0.31106 0.0
H1493 H 0.47331 0.3547 0.3422 0.0
C1494 C 0.45571 0.32039 0.35096 0.0
C1495 C 0.46564 0.33824 0.3081 0.0
C1496 C 0.47014 0.34455 0.26668 0.0
C1497 C 0.45902 0.32723 0.38777 0.0
C1498 C 0.46511 0.33977 0.38464 0.0
C1499 C 0.46851 0.34508 0.34481 0.0
C1500 C 0.46763 0.34762 0.42175 0.0
C1501 C 0.45602 0.32089 0.42948 0.0
C1502 C 0.45841 0.346 0.44895 0.0
C1503 C 0.46042 0.35436 0.48018 0.0
C1504 C 0.47159 0.36467 0.48384 0.0
C1505 C 0.48093 0.36605 0.45786 0.0
C1506 C 0.479 0.35755 0.42736 0.0
H1507 H 0.45569 0.3122 0.427 0.0
H1508 H 0.46258 0.32627 0.45403 0.0
H1509 H 0.44708 0.31907 0.43957 0.0
H1510 H 0.44947 0.33863 0.44464 0.0
H1511 H 0.45302 0.3532 0.49931 0.0
H1512 H 0.70704 0.15929 0.2191 0.0
H1513 H 0.69266 0.15607 0.2744 0.0
H1514 H 0.67232 0.119 0.2404 0.0
H1515 H 0.68627 0.12236 0.18349 0.0
H1516 H 0.65797 0.12625 0.2646 0.0
H1517 H 0.69421 0.14159 0.38205 0.0
H1518 H 0.6964 0.15292 0.34514 0.0
H1519 H 0.69648 0.13978 0.32746 0.0
C1520 C 0.69932 0.15053 0.22285 0.0
C1521 C 0.69779 0.14105 0.1973 0.0
C1522 C 0.6912 0.14866 0.25478 0.0
C1523 C 0.68166 0.1372 0.26268 0.0
C1524 C 0.67968 0.12791 0.23525 0.0
H1525 H 0.64706 0.10499 0.4931 0.0
H1526 H 0.66109 0.11501 0.43591 0.0
C1527 C 0.68762 0.12984 0.20259 0.0
C1528 C 0.67413 0.13465 0.30069 0.0
H1529 H 0.67517 0.13623 0.40775 0.0
C1530 C 0.66173 0.12847 0.29591 0.0
C1531 C 0.67904 0.13738 0.34165 0.0
C1532 C 0.69225 0.14317 0.34952 0.0
C1533 C 0.6541 0.12467 0.33076 0.0
C1534 C 0.65901 0.12765 0.37169 0.0
C1535 C 0.67141 0.13409 0.37643 0.0
C1536 C 0.65149 0.12321 0.40995 0.0
C1537 C 0.64091 0.11696 0.32318 0.0
C1538 C 0.64179 0.12501 0.41591 0.0
C1539 C 0.63363 0.11907 0.44807 0.0
C1540 C 0.63527 0.11158 0.47571 0.0
C1541 C 0.64561 0.11076 0.47237 0.0
C1542 C 0.65361 0.11645 0.43954 0.0
H1543 H 0.639 0.11288 0.29143 0.0
H1544 H 0.63678 0.10971 0.34673 0.0
H1545 H 0.63662 0.12249 0.32544 0.0
H1546 H 0.64023 0.13056 0.39455 0.0
H1547 H 0.62577 0.11993 0.45025 0.0
H1548 H 0.89594 0.54178 0.48322 0.0
H1549 H 0.88561 0.54551 0.42638 0.0
H1550 H 0.87165 0.50952 0.38238 0.0
H1551 H 0.88251 0.506 0.43789 0.0
H1552 H 0.88108 0.52371 0.32049 0.0
H1553 H 0.85268 0.53774 0.40204 0.0
H1554 H 0.86781 0.54674 0.41853 0.0
H1555 H 0.85996 0.53101 0.42962 0.0
C1556 C 0.89038 0.53457 0.46215 0.0
C1557 C 0.89001 0.5236 0.46494 0.0
C1558 C 0.88443 0.53669 0.42967 0.0
C1559 C 0.87772 0.52776 0.40017 0.0
C1560 C 0.87678 0.51657 0.4046 0.0
H1561 H 0.8406 0.5458 0.21169 0.0
H1562 H 0.84445 0.53479 0.26569 0.0
C1563 C 0.88293 0.51454 0.43647 0.0
C1564 C 0.87279 0.53047 0.36234 0.0
H1565 H 0.85756 0.54412 0.32998 0.0
C1566 C 0.87575 0.52799 0.32263 0.0
C1567 C 0.86567 0.53587 0.36482 0.0
C1568 C 0.86124 0.53786 0.4061 0.0
C1569 C 0.8722 0.53116 0.28554 0.0
C1570 C 0.86589 0.53741 0.28811 0.0
C1571 C 0.86252 0.53946 0.32778 0.0
C1572 C 0.86311 0.54238 0.25056 0.0
C1573 C 0.87521 0.52769 0.2441 0.0
C1574 C 0.87219 0.54999 0.22289 0.0
C1575 C 0.86991 0.55603 0.19119 0.0
C1576 C 0.85859 0.55485 0.18745 0.0
C1577 C 0.8494 0.54686 0.21388 0.0
C1578 C 0.85161 0.54062 0.24489 0.0
H1579 H 0.87579 0.51947 0.24725 0.0
H1580 H 0.86851 0.5262 0.21966 0.0
H1581 H 0.88403 0.53489 0.23344 0.0
H1582 H 0.88121 0.5518 0.22719 0.0
H1583 H 0.8772 0.5623 0.17173 0.0
H1584 H 0.54593 0.64877 0.49556 0.0
H1585 H 0.55052 0.66386 0.5498 0.0
H1586 H 0.52035 0.63854 0.62207 0.0
H1587 H 0.51562 0.62353 0.5681 0.0
H1588 H 0.52384 0.66176 0.62472 0.0
H1589 H 0.56501 0.66035 0.6607 0.0
H1590 H 0.56371 0.66403 0.60736 0.0
H1591 H 0.55341 0.64953 0.62741 0.0
C1592 C 0.54011 0.64652 0.52247 0.0
C1593 C 0.53052 0.63491 0.52783 0.0
C1594 C 0.54279 0.65511 0.55358 0.0
C1595 C 0.53593 0.6522 0.59034 0.0
C1596 C 0.52582 0.64092 0.59412 0.0
H1597 H 0.56067 0.68718 0.8325 0.0
H1598 H 0.55143 0.67212 0.77723 0.0
C1599 C 0.52315 0.63235 0.56321 0.0
C1600 C 0.53973 0.66047 0.62644 0.0
H1601 H 0.56175 0.67396 0.69939 0.0
C1602 C 0.53214 0.66447 0.64103 0.0
C1603 C 0.55041 0.6637 0.64828 0.0
C1604 C 0.55858 0.65912 0.6355 0.0
C1605 C 0.53508 0.67185 0.67643 0.0
C1606 C 0.54596 0.67541 0.69739 0.0
C1607 C 0.55343 0.67122 0.68324 0.0
C1608 C 0.55012 0.68399 0.73262 0.0
C1609 C 0.52647 0.67566 0.69137 0.0
C1610 C 0.5523 0.69557 0.72599 0.0
C1611 C 0.55755 0.70413 0.75732 0.0
C1612 C 0.56081 0.70133 0.79595 0.0
C1613 C 0.55822 0.6896 0.80319 0.0
C1614 C 0.55298 0.68101 0.77162 0.0
H1615 H 0.51728 0.66948 0.68032 0.0
H1616 H 0.52641 0.67614 0.72614 0.0
H1617 H 0.52919 0.68461 0.67865 0.0
H1618 H 0.55039 0.69812 0.69592 0.0
H1619 H 0.5594 0.71308 0.75067 0.0
H1620 H 0.28492 0.84412 0.76641 0.0
H1621 H 0.29927 0.8485 0.71046 0.0
H1622 H 0.32653 0.87663 0.78497 0.0
H1623 H 0.31207 0.87243 0.84123 0.0
H1624 H 0.32404 0.88405 0.70701 0.0
H1625 H 0.32715 0.84321 0.69198 0.0
H1626 H 0.31212 0.84032 0.69134 0.0
H1627 H 0.32101 0.84634 0.73781 0.0
C1628 C 0.29403 0.85108 0.77142 0.0
C1629 C 0.29733 0.858 0.80821 0.0
C1630 C 0.30225 0.85351 0.7394 0.0
C1631 C 0.31398 0.86284 0.7436 0.0
C1632 C 0.3175 0.86936 0.78119 0.0
H1633 H 0.37307 0.88508 0.57705 0.0
H1634 H 0.35782 0.87552 0.63065 0.0
C1635 C 0.30926 0.86692 0.81339 0.0
C1636 C 0.32211 0.86659 0.707 0.0
H1637 H 0.33462 0.85682 0.63445 0.0
C1638 C 0.32642 0.87812 0.69129 0.0
C1639 C 0.32516 0.85883 0.68651 0.0
C1640 C 0.32122 0.84652 0.70298 0.0
C1641 C 0.33367 0.88211 0.65553 0.0
C1642 C 0.33647 0.87425 0.63434 0.0
C1643 C 0.33225 0.86274 0.65024 0.0
C1644 C 0.34476 0.87827 0.59823 0.0
C1645 C 0.33851 0.8948 0.64143 0.0
C1646 C 0.34227 0.88248 0.56114 0.0
C1647 C 0.35103 0.888 0.53021 0.0
C1648 C 0.36237 0.88938 0.53612 0.0
C1649 C 0.36446 0.8843 0.57179 0.0
C1650 C 0.35574 0.87879 0.60247 0.0
H1651 H 0.33758 0.90033 0.66609 0.0
H1652 H 0.34805 0.89893 0.63285 0.0
H1653 H 0.33355 0.89495 0.61332 0.0
H1654 H 0.33374 0.88193 0.55695 0.0
H1655 H 0.34915 0.8918 0.50303 0.0
H1656 H 0.12035 0.43242 0.82768 0.0
H1657 H 0.11538 0.44147 0.76958 0.0
H1658 H 0.15126 0.4569 0.72285 0.0
H1659 H 0.15609 0.44738 0.7797 0.0
H1660 H 0.12242 0.46277 0.73913 0.0
H1661 H 0.13315 0.43773 0.62327 0.0
H1662 H 0.13279 0.43511 0.6789 0.0
H1663 H 0.14566 0.4474 0.65519 0.0
C1664 C 0.12724 0.43795 0.80552 0.0
C1665 C 0.13856 0.4391 0.80786 0.0
C1666 C 0.12438 0.44307 0.77218 0.0
C1667 C 0.13284 0.44952 0.741 0.0
C1668 C 0.14446 0.45158 0.74558 0.0
H1669 H 0.11806 0.48905 0.55256 0.0
H1670 H 0.12742 0.48357 0.60806 0.0
C1671 C 0.14726 0.44627 0.77837 0.0
C1672 C 0.12931 0.45358 0.70288 0.0
H1673 H 0.12853 0.45191 0.59581 0.0
C1674 C 0.12376 0.4604 0.7078 0.0
C1675 C 0.13082 0.45025 0.66196 0.0
C1676 C 0.13581 0.44212 0.65444 0.0
C1677 C 0.11971 0.46402 0.67308 0.0
C1678 C 0.1217 0.46114 0.63208 0.0
C1679 C 0.1272 0.45428 0.62715 0.0
C1680 C 0.11765 0.46474 0.59413 0.0
C1681 C 0.11296 0.47051 0.68095 0.0
C1682 C 0.10984 0.45613 0.56553 0.0
C1683 C 0.10479 0.45931 0.53282 0.0
C1684 C 0.10738 0.47113 0.52868 0.0
C1685 C 0.11584 0.47985 0.55541 0.0
C1686 C 0.12108 0.47671 0.58742 0.0
H1687 H 0.10918 0.46885 0.71314 0.0
H1688 H 0.11911 0.48021 0.67772 0.0
H1689 H 0.10558 0.46779 0.65815 0.0
H1690 H 0.10717 0.44685 0.5698 0.0
H1691 H 0.09824 0.45242 0.51274 0.0
H1692 H 0.1192 0.68626 0.82866 0.0
H1693 H 0.11366 0.67136 0.77317 0.0
H1694 H 0.15034 0.68783 0.73417 0.0
H1695 H 0.15577 0.70303 0.78815 0.0
H1696 H 0.1371 0.68551 0.67011 0.0
H1697 H 0.11623 0.64248 0.75395 0.0
H1698 H 0.10933 0.65103 0.76722 0.0
H1699 H 0.12466 0.65648 0.78091 0.0
C1700 C 0.12611 0.68644 0.80904 0.0
C1701 C 0.1379 0.69575 0.81258 0.0
C1702 C 0.12294 0.67793 0.77733 0.0
C1703 C 0.13159 0.67842 0.74953 0.0
C1704 C 0.14351 0.68729 0.75505 0.0
H1705 H 0.11451 0.62299 0.5652 0.0
H1706 H 0.12367 0.63737 0.62198 0.0
C1707 C 0.14661 0.69592 0.78604 0.0
C1708 C 0.12815 0.67057 0.71211 0.0
H1709 H 0.1123 0.64169 0.68022 0.0
C1710 C 0.13179 0.67591 0.67241 0.0
C1711 C 0.12131 0.65805 0.71498 0.0
C1712 C 0.11776 0.65167 0.75661 0.0
C1713 C 0.12868 0.66911 0.63555 0.0
C1714 C 0.12135 0.65663 0.63828 0.0
C1715 C 0.11784 0.65127 0.67801 0.0
C1716 C 0.11715 0.64889 0.60058 0.0
C1717 C 0.13346 0.67538 0.59424 0.0
C1718 C 0.11073 0.65075 0.56882 0.0
C1719 C 0.10572 0.64266 0.53568 0.0
C1720 C 0.1068 0.63244 0.53446 0.0
C1721 C 0.11355 0.63081 0.56543 0.0
C1722 C 0.11873 0.63898 0.59799 0.0
H1723 H 0.14181 0.684 0.59864 0.0
H1724 H 0.13526 0.66985 0.57219 0.0
H1725 H 0.12683 0.67729 0.57971 0.0
H1726 H 0.10913 0.65815 0.5706 0.0
H1727 H 0.1004 0.64402 0.51258 0.0
H1728 H 0.31033 0.43204 0.82319 0.0
H1729 H 0.32468 0.44179 0.76633 0.0
H1730 H 0.30515 0.45879 0.72499 0.0
H1731 H 0.29051 0.44858 0.78031 0.0
H1732 H 0.30879 0.44864 0.66188 0.0
H1733 H 0.35159 0.47429 0.74527 0.0
H1734 H 0.34429 0.45889 0.75946 0.0
H1735 H 0.33751 0.46768 0.77231 0.0
C1736 C 0.30932 0.43812 0.80262 0.0
C1737 C 0.29936 0.43959 0.80604 0.0
C1738 C 0.31753 0.44372 0.77016 0.0
C1739 C 0.31607 0.45112 0.74145 0.0
C1740 C 0.30646 0.4531 0.74656 0.0
H1741 H 0.37121 0.49111 0.55761 0.0
H1742 H 0.35624 0.48571 0.61247 0.0
C1743 C 0.29814 0.44732 0.77831 0.0
C1744 C 0.32382 0.45592 0.70389 0.0
H1745 H 0.35274 0.4709 0.67194 0.0
C1746 C 0.31841 0.45365 0.66415 0.0
C1747 C 0.33636 0.46257 0.70669 0.0
C1748 C 0.34276 0.46611 0.74827 0.0
C1749 C 0.32516 0.45764 0.62722 0.0
C1750 C 0.33771 0.46371 0.62993 0.0
C1751 C 0.34312 0.46617 0.6697 0.0
C1752 C 0.34548 0.46743 0.59224 0.0
C1753 C 0.31875 0.45546 0.58586 0.0
C1754 C 0.34418 0.45911 0.56144 0.0
C1755 C 0.35257 0.4623 0.52927 0.0
C1756 C 0.36255 0.47376 0.52817 0.0
C1757 C 0.36355 0.48222 0.55775 0.0
C1758 C 0.35505 0.47911 0.58925 0.0
H1759 H 0.30988 0.45465 0.59001 0.0
H1760 H 0.32393 0.46271 0.5631 0.0
H1761 H 0.31731 0.44697 0.57236 0.0
H1762 H 0.33707 0.44996 0.56356 0.0
H1763 H 0.35173 0.45556 0.50729 0.0
H1764 H 0.55822 0.87569 0.84019 0.0
H1765 H 0.54854 0.88215 0.78876 0.0
H1766 H 0.53974 0.85135 0.71288 0.0
H1767 H 0.54917 0.84479 0.76396 0.0
H1768 H 0.55654 0.88767 0.70742 0.0
H1769 H 0.50913 0.85258 0.70778 0.0
H1770 H 0.51916 0.85437 0.75006 0.0
H1771 H 0.51896 0.84668 0.70286 0.0
C1772 C 0.55392 0.87013 0.81315 0.0
C1773 C 0.55452 0.85977 0.80602 0.0
C1774 C 0.54843 0.87385 0.78374 0.0
C1775 C 0.54334 0.86718 0.74715 0.0
C1776 C 0.5434 0.85652 0.7412 0.0
H1777 H 0.53871 0.89455 0.50403 0.0
H1778 H 0.54249 0.88442 0.56183 0.0
C1779 C 0.54889 0.85284 0.77036 0.0
C1780 C 0.5393 0.87198 0.71272 0.0
H1781 H 0.51599 0.86515 0.64687 0.0
C1782 C 0.54764 0.88281 0.69447 0.0
C1783 C 0.52767 0.86563 0.69591 0.0
C1784 C 0.51818 0.85422 0.71543 0.0
C1785 C 0.54477 0.88734 0.65922 0.0
C1786 C 0.53331 0.88073 0.64126 0.0
C1787 C 0.52485 0.87006 0.6602 0.0
C1788 C 0.52984 0.88515 0.60414 0.0
C1789 C 0.554 0.89922 0.64175 0.0
C1790 C 0.52102 0.88829 0.60808 0.0
C1791 C 0.51879 0.89399 0.57515 0.0
C1792 C 0.52532 0.89662 0.53756 0.0
C1793 C 0.53356 0.89269 0.53259 0.0
C1794 C 0.5358 0.88699 0.56569 0.0
H1795 H 0.56124 0.90434 0.66464 0.0
H1796 H 0.55803 0.89777 0.61328 0.0
H1797 H 0.54991 0.90464 0.63273 0.0
H1798 H 0.51625 0.88686 0.63737 0.0
H1799 H 0.5123 0.89679 0.5799 0.0
H1800 H 0.37769 0.13496 0.15506 0.0
H1801 H 0.35702 0.12063 0.16988 0.0
H1802 H 0.36054 0.09342 0.1051 0.0
H1803 H 0.38148 0.10789 0.08957 0.0
H1804 H 0.33959 0.09357 0.08558 0.0
H1805 H 0.34535 0.09416 0.25731 0.0
H1806 H 0.35145 0.10893 0.23678 0.0
H1807 H 0.35775 0.09991 0.22133 0.0
C1808 C 0.37413 0.12595 0.14381 0.0
C1809 C 0.3813 0.12255 0.12143 0.0
C1810 C 0.36231 0.11773 0.15265 0.0
C1811 C 0.35735 0.10588 0.13972 0.0
C1812 C 0.36428 0.1025 0.11592 0.0
H1813 H 0.28445 0.06033 0.23705 0.0
H1814 H 0.30529 0.06675 0.22053 0.0
C1815 C 0.3762 0.11078 0.10691 0.0
C1816 C 0.3448 0.09732 0.1504 0.0
H1817 H 0.32546 0.08824 0.23293 0.0
C1818 C 0.33651 0.09217 0.11782 0.0
C1819 C 0.34079 0.09525 0.19251 0.0
C1820 C 0.34933 0.09975 0.22898 0.0
C1821 C 0.32425 0.08586 0.12614 0.0
C1822 C 0.32022 0.0849 0.16802 0.0
C1823 C 0.32853 0.08916 0.20078 0.0
C1824 C 0.30757 0.08072 0.17797 0.0
C1825 C 0.31573 0.08058 0.08984 0.0
C1826 C 0.30208 0.08667 0.16056 0.0
C1827 C 0.29028 0.08308 0.16994 0.0
C1828 C 0.28368 0.07351 0.19737 0.0
C1829 C 0.28928 0.06773 0.21579 0.0
C1830 C 0.30115 0.07134 0.20624 0.0
H1831 H 0.31984 0.0783 0.06351 0.0
H1832 H 0.30742 0.07245 0.0994 0.0
H1833 H 0.31341 0.0872 0.07804 0.0
H1834 H 0.30696 0.09418 0.1398 0.0
H1835 H 0.28633 0.08783 0.15546 0.0
H1836 H 0.87229 0.25837 0.212 0.0
H1837 H 0.8852 0.25015 0.22508 0.0
H1838 H 0.89693 0.25671 0.09628 0.0
H1839 H 0.88411 0.2653 0.08307 0.0
H1840 H 0.88231 0.23042 0.18675 0.0
H1841 H 0.92813 0.2678 0.15989 0.0
H1842 H 0.91558 0.27002 0.16748 0.0
H1843 H 0.91795 0.26512 0.11756 0.0
C1844 C 0.87772 0.25822 0.18646 0.0
C1845 C 0.87709 0.26238 0.14633 0.0
C1846 C 0.88513 0.25355 0.19408 0.0
C1847 C 0.89207 0.25285 0.16178 0.0
C1848 C 0.89181 0.25736 0.1219 0.0
H1849 H 0.91446 0.20101 0.14959 0.0
H1850 H 0.9063 0.21405 0.13861 0.0
C1851 C 0.88444 0.26219 0.1143 0.0
C1852 C 0.89851 0.24627 0.16933 0.0
H1853 H 0.9259 0.24854 0.16846 0.0
C1854 C 0.89185 0.23443 0.18293 0.0
C1855 C 0.91098 0.25152 0.16476 0.0
C1856 C 0.91862 0.26435 0.15199 0.0
C1857 C 0.89726 0.22765 0.19157 0.0
C1858 C 0.90965 0.23276 0.18568 0.0
C1859 C 0.91639 0.24466 0.17277 0.0
C1860 C 0.91552 0.22557 0.19099 0.0
C1861 C 0.88965 0.21507 0.20712 0.0
C1862 C 0.92369 0.22793 0.22355 0.0
C1863 C 0.92845 0.22044 0.23003 0.0
C1864 C 0.92509 0.21052 0.20394 0.0
C1865 C 0.91716 0.20847 0.17068 0.0
C1866 C 0.91247 0.21592 0.16423 0.0
H1867 H 0.88108 0.21355 0.22025 0.0
H1868 H 0.88763 0.20882 0.18055 0.0
H1869 H 0.89436 0.21291 0.2316 0.0
H1870 H 0.92616 0.23537 0.24448 0.0
H1871 H 0.93459 0.22232 0.25573 0.0
H1872 H 0.72502 0.61664 0.09639 0.0
H1873 H 0.73113 0.63753 0.11085 0.0
H1874 H 0.76309 0.64237 0.1702 0.0
H1875 H 0.75707 0.62171 0.15654 0.0
H1876 H 0.75048 0.65054 0.21849 0.0
H1877 H 0.75798 0.66775 0.05458 0.0
H1878 H 0.74378 0.65505 0.06692 0.0
H1879 H 0.75686 0.6537 0.06752 0.0
C1880 C 0.73341 0.62222 0.11205 0.0
C1881 C 0.74054 0.6175 0.12541 0.0
C1882 C 0.73688 0.63414 0.12032 0.0
C1883 C 0.74756 0.64148 0.14167 0.0
C1884 C 0.75477 0.63683 0.154 0.0
H1885 H 0.79978 0.71215 0.16434 0.0
H1886 H 0.78574 0.6914 0.14964 0.0
C1887 C 0.75132 0.62501 0.146 0.0
C1888 C 0.75142 0.65402 0.15217 0.0
H1889 H 0.76375 0.68171 0.10894 0.0
C1890 C 0.75318 0.65737 0.19462 0.0
C1891 C 0.75492 0.66285 0.1209 0.0
C1892 C 0.75338 0.65975 0.07486 0.0
C1893 C 0.75905 0.66938 0.2066 0.0
C1894 C 0.76307 0.67825 0.17523 0.0
C1895 C 0.76063 0.67486 0.13289 0.0
C1896 C 0.77131 0.69095 0.18501 0.0
C1897 C 0.76161 0.67249 0.25246 0.0
C1898 C 0.7679 0.69761 0.21023 0.0
C1899 C 0.77601 0.70958 0.21911 0.0
C1900 C 0.78761 0.71505 0.20259 0.0
C1901 C 0.79093 0.70827 0.17757 0.0
C1902 C 0.78289 0.69639 0.16891 0.0
H1903 H 0.75939 0.66458 0.27212 0.0
H1904 H 0.77113 0.67917 0.25714 0.0
H1905 H 0.75624 0.67643 0.26368 0.0
H1906 H 0.75895 0.69361 0.22262 0.0
H1907 H 0.77314 0.71458 0.2382 0.0
H1908 H 0.05621 0.28147 0.75582 0.0
H1909 H 0.06256 0.30264 0.76479 0.0
H1910 H 0.09197 0.30727 0.84119 0.0
H1911 H 0.08582 0.28637 0.83248 0.0
H1912 H 0.06679 0.31602 0.84638 0.0
H1913 H 0.10665 0.33251 0.74474 0.0
H1914 H 0.09431 0.31747 0.74181 0.0
H1915 H 0.10516 0.32167 0.78291 0.0
C1916 C 0.06407 0.28703 0.77429 0.0
C1917 C 0.07053 0.28223 0.79325 0.0
C1918 C 0.06763 0.29908 0.77958 0.0
C1919 C 0.07776 0.30648 0.80348 0.0
C1920 C 0.08418 0.30171 0.82236 0.0
H1921 H 0.1092 0.37452 0.92442 0.0
H1922 H 0.09627 0.35341 0.90734 0.0
C1923 C 0.08063 0.28974 0.8173 0.0
C1924 C 0.08189 0.31927 0.80873 0.0
H1925 H 0.10595 0.34658 0.79066 0.0
C1926 C 0.07526 0.32276 0.83373 0.0
C1927 C 0.09289 0.328 0.79193 0.0
C1928 C 0.10014 0.32477 0.76352 0.0
C1929 C 0.07961 0.33479 0.84371 0.0
C1930 C 0.09092 0.34346 0.82869 0.0
C1931 C 0.0973 0.33995 0.8024 0.0
C1932 C 0.09663 0.35622 0.84021 0.0
C1933 C 0.07209 0.33809 0.87028 0.0
C1934 C 0.10095 0.36483 0.80838 0.0
C1935 C 0.10848 0.37677 0.81802 0.0
C1936 C 0.11175 0.38039 0.85977 0.0
C1937 C 0.10673 0.37195 0.89204 0.0
C1938 C 0.0993 0.3599 0.88227 0.0
H1939 H 0.06252 0.33124 0.86837 0.0
H1940 H 0.07488 0.33878 0.90354 0.0
H1941 H 0.07318 0.34679 0.86057 0.0
H1942 H 0.09899 0.36222 0.77576 0.0
H1943 H 0.11216 0.38312 0.79256 0.0
H1944 H 0.71535 0.77331 0.76251 0.0
H1945 H 0.69447 0.75883 0.77833 0.0
H1946 H 0.69111 0.7859 0.84495 0.0
H1947 H 0.71178 0.80024 0.83001 0.0
H1948 H 0.68213 0.76454 0.88944 0.0
H1949 H 0.66485 0.75738 0.7257 0.0
H1950 H 0.67708 0.75493 0.73605 0.0
H1951 H 0.67924 0.76967 0.73958 0.0
C1952 C 0.71011 0.77618 0.78017 0.0
C1953 C 0.71524 0.78793 0.79495 0.0
C1954 C 0.69819 0.7679 0.78921 0.0
C1955 C 0.69124 0.77131 0.8128 0.0
C1956 C 0.69633 0.78306 0.82697 0.0
H1957 H 0.62149 0.75528 0.83792 0.0
H1958 H 0.6422 0.76156 0.82447 0.0
C1959 C 0.70816 0.79127 0.81819 0.0
C1960 C 0.67863 0.76285 0.82305 0.0
H1961 H 0.65089 0.74878 0.77978 0.0
C1962 C 0.67528 0.76087 0.86551 0.0
C1963 C 0.66975 0.75811 0.7917 0.0
C1964 C 0.67282 0.76014 0.74566 0.0
C1965 C 0.66326 0.75493 0.87751 0.0
C1966 C 0.65439 0.75071 0.84615 0.0
C1967 C 0.65774 0.75202 0.80372 0.0
C1968 C 0.64179 0.74664 0.85621 0.0
C1969 C 0.66016 0.75391 0.92351 0.0
C1970 C 0.63467 0.73621 0.87923 0.0
C1971 C 0.62271 0.73259 0.88737 0.0
C1972 C 0.61771 0.73931 0.87225 0.0
C1973 C 0.62499 0.74983 0.84987 0.0
C1974 C 0.63685 0.75344 0.84197 0.0
H1975 H 0.66814 0.75896 0.94358 0.0
H1976 H 0.65389 0.75722 0.92946 0.0
H1977 H 0.65569 0.74443 0.93303 0.0
H1978 H 0.6383 0.73079 0.89021 0.0
H1979 H 0.61732 0.72441 0.90447 0.0
H1980 H 0.22095 0.93379 0.74439 0.0
H1981 H 0.23472 0.92663 0.76215 0.0
H1982 H 0.22525 0.92487 0.8927 0.0
H1983 H 0.21125 0.93151 0.87511 0.0
H1984 H 0.25413 0.93436 0.81399 0.0
H1985 H 0.21735 0.89122 0.87098 0.0
H1986 H 0.21473 0.90171 0.84272 0.0
H1987 H 0.2181 0.90368 0.89793 0.0
C1988 C 0.22186 0.9319 0.77684 0.0
C1989 C 0.21486 0.93297 0.80823 0.0
C1990 C 0.22973 0.92784 0.78697 0.0
C1991 C 0.23078 0.92493 0.82864 0.0
C1992 C 0.22432 0.9267 0.86021 0.0
H1993 H 0.26671 0.88983 0.94069 0.0
H1994 H 0.25922 0.90377 0.93197 0.0
C1995 C 0.21633 0.93053 0.85008 0.0
C1996 C 0.2382 0.91955 0.83913 0.0
H1997 H 0.23688 0.89495 0.88327 0.0
C1998 C 0.25037 0.92575 0.82916 0.0
C1999 C 0.23327 0.90828 0.85882 0.0
C2000 C 0.22013 0.90078 0.86786 0.0
C2001 C 0.25772 0.92097 0.83847 0.0
C2002 C 0.25276 0.90976 0.8583 0.0
C2003 C 0.24067 0.90366 0.86877 0.0
C2004 C 0.25951 0.90347 0.86412 0.0
C2005 C 0.2707 0.92786 0.8269 0.0
C2006 C 0.26233 0.89892 0.8289 0.0
C2007 C 0.26639 0.89088 0.83379 0.0
C2008 C 0.2678 0.88732 0.87402 0.0
C2009 C 0.26576 0.8925 0.90938 0.0
C2010 C 0.26149 0.90043 0.90443 0.0
H2011 H 0.27373 0.93737 0.82084 0.0
H2012 H 0.27625 0.92723 0.85219 0.0
H2013 H 0.27216 0.924 0.79798 0.0
H2014 H 0.26069 0.90101 0.79757 0.0
H2015 H 0.26793 0.88704 0.80599 0.0
H2016 H 0.71131 0.93315 0.74631 0.0
H2017 H 0.68979 0.92478 0.75578 0.0
H2018 H 0.69129 0.90819 0.87104 0.0
H2019 H 0.7125 0.91621 0.86158 0.0
H2020 H 0.6742 0.89268 0.81795 0.0
H2021 H 0.67077 0.93339 0.83764 0.0
H2022 H 0.67849 0.933 0.79136 0.0
H2023 H 0.6847 0.93351 0.84217 0.0
C2024 C 0.70704 0.92779 0.77379 0.0
C2025 C 0.71362 0.92528 0.80297 0.0
C2026 C 0.69477 0.92309 0.77932 0.0
C2027 C 0.68896 0.91594 0.81434 0.0
C2028 C 0.69558 0.91368 0.84381 0.0
H2029 H 0.61727 0.88646 0.91438 0.0
H2030 H 0.63875 0.89869 0.9013 0.0
C2031 C 0.70773 0.91826 0.83822 0.0
C2032 C 0.67586 0.91002 0.81938 0.0
H2033 H 0.65265 0.91498 0.83492 0.0
C2034 C 0.66949 0.89757 0.82159 0.0
C2035 C 0.66977 0.91642 0.82464 0.0
C2036 C 0.67626 0.92982 0.82421 0.0
C2037 C 0.65722 0.89132 0.829 0.0
C2038 C 0.65106 0.89768 0.83335 0.0
C2039 C 0.6574 0.91014 0.83131 0.0
C2040 C 0.63801 0.89137 0.83967 0.0
C2041 C 0.651 0.87795 0.83298 0.0
C2042 C 0.6305 0.88351 0.8089 0.0
C2043 C 0.61835 0.87647 0.81641 0.0
C2044 C 0.61339 0.87725 0.85471 0.0
C2045 C 0.62083 0.88561 0.8847 0.0
C2046 C 0.63308 0.89261 0.87723 0.0
H2047 H 0.65736 0.8748 0.83988 0.0
H2048 H 0.64419 0.87475 0.85816 0.0
H2049 H 0.64649 0.87387 0.80296 0.0
H2050 H 0.6341 0.88258 0.77939 0.0
H2051 H 0.61285 0.87028 0.7923 0.0
H2052 H 0.06504 0.77875 0.74863 0.0
H2053 H 0.07348 0.76584 0.76181 0.0
H2054 H 0.08892 0.78457 0.8772 0.0
H2055 H 0.08079 0.79756 0.86407 0.0
H2056 H 0.10495 0.78275 0.82792 0.0
H2057 H 0.06418 0.73866 0.84563 0.0
H2058 H 0.06485 0.74642 0.79811 0.0
H2059 H 0.06396 0.75244 0.84782 0.0
C2060 C 0.07016 0.78005 0.77694 0.0
C2061 C 0.0723 0.78924 0.80513 0.0
C2062 C 0.07489 0.7726 0.7846 0.0
C2063 C 0.08171 0.77416 0.82075 0.0
C2064 C 0.08366 0.78319 0.84916 0.0
H2065 H 0.11138 0.73187 0.92161 0.0
H2066 H 0.09921 0.74127 0.91018 0.0
C2067 C 0.07902 0.79064 0.84148 0.0
C2068 C 0.08762 0.76705 0.82789 0.0
H2069 H 0.08261 0.73885 0.84296 0.0
C2070 C 0.10005 0.77316 0.83132 0.0
C2071 C 0.0812 0.75455 0.83281 0.0
C2072 C 0.0678 0.74761 0.8313 0.0
C2073 C 0.10627 0.76711 0.83905 0.0
C2074 C 0.0999 0.75459 0.84265 0.0
C2075 C 0.08745 0.74845 0.83989 0.0
C2076 C 0.1062 0.74782 0.84818 0.0
C2077 C 0.11962 0.77422 0.8437 0.0
C2078 C 0.11385 0.74812 0.81667 0.0
C2079 C 0.12082 0.74288 0.82315 0.0
C2080 C 0.12022 0.73711 0.86122 0.0
C2081 C 0.11209 0.7363 0.89205 0.0
C2082 C 0.10513 0.74163 0.88555 0.0
H2083 H 0.12276 0.78371 0.85083 0.0
H2084 H 0.1227 0.77051 0.86898 0.0
H2085 H 0.12382 0.77385 0.81387 0.0
H2086 H 0.11465 0.75269 0.78735 0.0
H2087 H 0.12685 0.74354 0.79844 0.0
H2088 H 0.1991 0.28521 0.83726 0.0
H2089 H 0.21298 0.30619 0.84902 0.0
H2090 H 0.24008 0.3033 0.78061 0.0
H2091 H 0.22602 0.28215 0.76766 0.0
H2092 H 0.23406 0.3165 0.89083 0.0
H2093 H 0.24068 0.33172 0.72469 0.0
H2094 H 0.229 0.31717 0.74023 0.0
H2095 H 0.24408 0.32024 0.7369 0.0
C2096 C 0.20799 0.289 0.82442 0.0
C2097 C 0.21144 0.28199 0.8014 0.0
C2098 C 0.21593 0.30102 0.83133 0.0
C2099 C 0.22756 0.30635 0.81561 0.0
C2100 C 0.23109 0.29942 0.7925 0.0
H2101 H 0.27402 0.38049 0.90363 0.0
H2102 H 0.26732 0.35944 0.8902 0.0
C2103 C 0.22306 0.28734 0.78518 0.0
C2104 C 0.23576 0.31916 0.82398 0.0
H2105 H 0.24992 0.34634 0.7765 0.0
C2106 C 0.23768 0.32304 0.86587 0.0
C2107 C 0.24045 0.32765 0.79132 0.0
C2108 C 0.23842 0.32405 0.74572 0.0
C2109 C 0.24356 0.33518 0.87602 0.0
C2110 C 0.24791 0.34368 0.84332 0.0
C2111 C 0.24659 0.3398 0.80149 0.0
C2112 C 0.25242 0.3565 0.85129 0.0
C2113 C 0.24439 0.33877 0.92147 0.0
C2114 C 0.24642 0.36187 0.83335 0.0
C2115 C 0.25027 0.37383 0.84054 0.0
C2116 C 0.26023 0.38075 0.86605 0.0
C2117 C 0.26626 0.37538 0.88417 0.0
C2118 C 0.26243 0.36335 0.87659 0.0
H2119 H 0.23861 0.33111 0.94198 0.0
H2120 H 0.2537 0.34252 0.93237 0.0
H2121 H 0.24184 0.3457 0.92539 0.0
H2122 H 0.23864 0.35676 0.81391 0.0
H2123 H 0.24538 0.37764 0.82613 0.0
H2124 H 0.91471 0.71149 0.15461 0.0
H2125 H 0.90783 0.6904 0.14658 0.0
H2126 H 0.93196 0.69254 0.24352 0.0
H2127 H 0.93903 0.71387 0.25191 0.0
H2128 H 0.9307 0.67907 0.16416 0.0
H2129 H 0.8871 0.66541 0.23898 0.0
H2130 H 0.89141 0.67653 0.19881 0.0
H2131 H 0.89995 0.67998 0.24632 0.0
C2132 C 0.9186 0.70754 0.17433 0.0
C2133 C 0.92738 0.71438 0.20418 0.0
C2134 C 0.91465 0.69547 0.16961 0.0
C2135 C 0.91933 0.68993 0.19463 0.0
C2136 C 0.92825 0.6967 0.22396 0.0
H2137 H 0.88146 0.61332 0.21479 0.0
H2138 H 0.89421 0.63437 0.23029 0.0
C2139 C 0.93222 0.70884 0.22883 0.0
C2140 C 0.91452 0.67698 0.19066 0.0
H2141 H 0.88881 0.65053 0.20173 0.0
C2142 C 0.92159 0.67277 0.17278 0.0
C2143 C 0.90267 0.66884 0.20224 0.0
C2144 C 0.89484 0.67287 0.223 0.0
C2145 C 0.91696 0.66058 0.16495 0.0
C2146 C 0.90493 0.65249 0.17488 0.0
C2147 C 0.89802 0.65673 0.19392 0.0
C2148 C 0.89912 0.63959 0.16565 0.0
C2149 C 0.92495 0.65646 0.14624 0.0
C2150 C 0.89793 0.63545 0.12419 0.0
C2151 C 0.89069 0.62333 0.11521 0.0
C2152 C 0.88439 0.61524 0.14753 0.0
C2153 C 0.88611 0.61935 0.18915 0.0
C2154 C 0.89341 0.63139 0.1981 0.0
H2155 H 0.93448 0.66304 0.15155 0.0
H2156 H 0.923 0.64778 0.15965 0.0
H2157 H 0.92343 0.65535 0.11188 0.0
H2158 H 0.90207 0.64165 0.09854 0.0
H2159 H 0.88948 0.62041 0.08285 0.0
H2160 H 0.3801 0.24915 0.17627 0.0
H2161 H 0.35963 0.2439 0.18986 0.0
H2162 H 0.36543 0.2757 0.12631 0.0
H2163 H 0.38604 0.28089 0.11135 0.0
H2164 H 0.3509 0.25568 0.23454 0.0
H2165 H 0.33586 0.25034 0.06825 0.0
H2166 H 0.34994 0.25175 0.08268 0.0
H2167 H 0.34811 0.26458 0.08285 0.0
C2168 C 0.37705 0.25503 0.1649 0.0
C2169 C 0.3847 0.26542 0.14255 0.0
C2170 C 0.36534 0.25204 0.17291 0.0
C2171 C 0.36096 0.25937 0.15904 0.0
C2172 C 0.36856 0.2698 0.13677 0.0
H2173 H 0.28613 0.23006 0.24593 0.0
H2174 H 0.30697 0.24566 0.23481 0.0
C2175 C 0.38032 0.27276 0.12827 0.0
C2176 C 0.34837 0.25573 0.16782 0.0
H2177 H 0.32132 0.24441 0.12027 0.0
C2178 C 0.34442 0.25341 0.20965 0.0
C2179 C 0.33996 0.25286 0.13526 0.0
C2180 C 0.3436 0.25492 0.08969 0.0
C2181 C 0.33226 0.24741 0.21957 0.0
C2182 C 0.32384 0.24389 0.18679 0.0
C2183 C 0.32782 0.24712 0.14531 0.0
C2184 C 0.31112 0.23499 0.19352 0.0
C2185 C 0.32851 0.24406 0.26463 0.0
C2186 C 0.30654 0.22394 0.17373 0.0
C2187 C 0.29477 0.21516 0.17968 0.0
C2188 C 0.2872 0.21715 0.20578 0.0
C2189 C 0.29176 0.22823 0.22585 0.0
C2190 C 0.30365 0.23713 0.21957 0.0
H2191 H 0.33618 0.24619 0.28551 0.0
H2192 H 0.32413 0.24898 0.2761 0.0
H2193 H 0.32202 0.23441 0.26719 0.0
H2194 H 0.31215 0.22203 0.15381 0.0
H2195 H 0.29164 0.20674 0.16381 0.0
H2196 H 0.73111 0.10852 0.09066 0.0
H2197 H 0.73905 0.09544 0.10828 0.0
H2198 H 0.73627 0.10124 0.24004 0.0
H2199 H 0.72873 0.11455 0.22261 0.0
H2200 H 0.75818 0.10681 0.2199 0.0
H2201 H 0.72713 0.06237 0.15459 0.0
H2202 H 0.7316 0.07402 0.11653 0.0
H2203 H 0.72305 0.07368 0.16148 0.0
C2204 C 0.73189 0.10672 0.12333 0.0
C2205 C 0.72943 0.11263 0.15526 0.0
C2206 C 0.73638 0.0992 0.13341 0.0
C2207 C 0.73821 0.0973 0.17555 0.0
C2208 C 0.73495 0.10258 0.20735 0.0
H2209 H 0.77247 0.05662 0.25895 0.0
H2210 H 0.75782 0.06327 0.25188 0.0
C2211 C 0.73066 0.1102 0.19733 0.0
C2212 C 0.74507 0.09134 0.18653 0.0
H2213 H 0.74687 0.06624 0.17126 0.0
C2214 C 0.75557 0.09786 0.20979 0.0
C2215 C 0.74166 0.07964 0.17364 0.0
C2216 C 0.73018 0.07197 0.15054 0.0
C2217 C 0.76297 0.09321 0.2191 0.0
C2218 C 0.75992 0.0818 0.20422 0.0
C2219 C 0.7492 0.07503 0.18243 0.0
C2220 C 0.76835 0.07733 0.20785 0.0
C2221 C 0.77417 0.10065 0.24407 0.0
C2222 C 0.77901 0.08298 0.18522 0.0
C2223 C 0.78733 0.07927 0.18919 0.0
C2224 C 0.78519 0.06977 0.21589 0.0
C2225 C 0.77442 0.064 0.23834 0.0
C2226 C 0.76603 0.06774 0.23419 0.0
H2227 H 0.77372 0.10774 0.26208 0.0
H2228 H 0.77584 0.09505 0.26624 0.0
H2229 H 0.78185 0.10498 0.22229 0.0
H2230 H 0.78091 0.09034 0.1645 0.0
H2231 H 0.79549 0.0839 0.17125 0.0
H2232 H 0.04555 0.44322 0.4206 0.0
H2233 H 0.02406 0.43066 0.43243 0.0
H2234 H 0.02719 0.44927 0.54792 0.0
H2235 H 0.04846 0.46185 0.5364 0.0
H2236 H 0.01047 0.41572 0.50423 0.0
H2237 H 0.00312 0.45374 0.47565 0.0
H2238 H 0.01664 0.45399 0.46054 0.0
H2239 H 0.01431 0.45655 0.51422 0.0
C2240 C 0.04166 0.44458 0.44862 0.0
C2241 C 0.04871 0.45365 0.47723 0.0
C2242 C 0.02941 0.43738 0.45537 0.0
C2243 C 0.02405 0.43917 0.49076 0.0
C2244 C 0.03114 0.44787 0.52011 0.0
H2245 H 0.95237 0.3983 0.59394 0.0
H2246 H 0.97377 0.40694 0.581 0.0
C2247 C 0.04331 0.45506 0.51338 0.0
C2248 C 0.01099 0.43244 0.49633 0.0
H2249 H 0.98688 0.43621 0.50324 0.0
C2250 C 0.00526 0.42015 0.50379 0.0
C2251 C 0.00425 0.43825 0.49538 0.0
C2252 C 0.00985 0.45134 0.48565 0.0
C2253 C 0.99293 0.41354 0.5111 0.0
C2254 C 0.98627 0.41945 0.51141 0.0
C2255 C 0.99202 0.43171 0.50333 0.0
C2256 C 0.97323 0.41316 0.51843 0.0
C2257 C 0.98713 0.40031 0.51779 0.0
C2258 C 0.96586 0.41383 0.48775 0.0
C2259 C 0.95376 0.40908 0.49524 0.0
C2260 C 0.94869 0.40351 0.53366 0.0
C2261 C 0.956 0.4025 0.56402 0.0
C2262 C 0.96821 0.40737 0.55655 0.0
H2263 H 0.99285 0.39676 0.50659 0.0
H2264 H 0.9855 0.39835 0.5518 0.0
H2265 H 0.97844 0.39556 0.50133 0.0
H2266 H 0.96954 0.41825 0.45814 0.0
H2267 H 0.94839 0.40992 0.47097 0.0
H2268 H 0.60759 0.55532 0.59809 0.0
H2269 H 0.60218 0.57086 0.5895 0.0
H2270 H 0.58825 0.55737 0.4664 0.0
H2271 H 0.59348 0.5419 0.47457 0.0
H2272 H 0.60401 0.58436 0.47745 0.0
H2273 H 0.56536 0.56117 0.58594 0.0
H2274 H 0.57964 0.56352 0.60254 0.0
H2275 H 0.57192 0.5534 0.56048 0.0
C2276 C 0.60344 0.55572 0.56913 0.0
C2277 C 0.60085 0.54729 0.53722 0.0
C2278 C 0.60039 0.5646 0.56427 0.0
C2279 C 0.59483 0.56521 0.52731 0.0
C2280 C 0.59258 0.55705 0.49505 0.0
H2281 H 0.56013 0.59917 0.41155 0.0
H2282 H 0.57346 0.59137 0.42683 0.0
C2283 C 0.5955 0.54816 0.49998 0.0
C2284 C 0.59054 0.57377 0.52277 0.0
H2285 H 0.56736 0.57769 0.54962 0.0
C2286 C 0.5961 0.58306 0.49364 0.0
C2287 C 0.58023 0.57198 0.54388 0.0
C2288 C 0.57384 0.56197 0.5749 0.0
C2289 C 0.59148 0.59057 0.48461 0.0
C2290 C 0.58084 0.58846 0.50441 0.0
C2291 C 0.57552 0.57935 0.53445 0.0
C2292 C 0.57464 0.59511 0.4935 0.0
C2293 C 0.59805 0.60065 0.45405 0.0
C2294 C 0.57094 0.59991 0.52563 0.0
C2295 C 0.56312 0.60406 0.51705 0.0
C2296 C 0.55899 0.60368 0.47606 0.0
C2297 C 0.56332 0.59969 0.44331 0.0
C2298 C 0.57098 0.59528 0.45205 0.0
H2299 H 0.60768 0.60358 0.45337 0.0
H2300 H 0.59447 0.59757 0.42205 0.0
H2301 H 0.597 0.60839 0.46203 0.0
H2302 H 0.57364 0.5999 0.55778 0.0
H2303 H 0.55993 0.60715 0.54285 0.0
H2304 H 0.44242 0.04607 0.59096 0.0
H2305 H 0.42825 0.0247 0.58279 0.0
H2306 H 0.44134 0.02574 0.45774 0.0
H2307 H 0.45549 0.0469 0.46553 0.0
H2308 H 0.4137 0.01196 0.47509 0.0
H2309 H 0.44237 0.0006 0.57211 0.0
H2310 H 0.43917 0.0118 0.59069 0.0
H2311 H 0.44835 0.01469 0.5453 0.0
C2312 C 0.44219 0.04176 0.56162 0.0
C2313 C 0.45017 0.04816 0.52908 0.0
C2314 C 0.4341 0.02959 0.55699 0.0
C2315 C 0.4338 0.02371 0.51965 0.0
C2316 C 0.44143 0.03015 0.4867 0.0
H2317 H 0.40004 0.95305 0.41257 0.0
H2318 H 0.40794 0.97438 0.42438 0.0
C2319 C 0.44957 0.04223 0.49139 0.0
C2320 C 0.42625 0.01068 0.51566 0.0
H2321 H 0.42565 0.98488 0.54053 0.0
C2322 C 0.41618 0.00598 0.48972 0.0
C2323 C 0.42959 0.00298 0.53467 0.0
C2324 C 0.44048 0.00768 0.56219 0.0
C2325 C 0.40932 0.99368 0.48228 0.0
C2326 C 0.41288 0.98598 0.50032 0.0
C2327 C 0.42288 0.99075 0.52673 0.0
C2328 C 0.40659 0.97296 0.49217 0.0
C2329 C 0.3983 0.98908 0.45559 0.0
C2330 C 0.4032 0.96506 0.52613 0.0
C2331 C 0.39902 0.953 0.51943 0.0
C2332 C 0.39796 0.94853 0.47857 0.0
C2333 C 0.40069 0.95627 0.44434 0.0
C2334 C 0.40513 0.96844 0.45111 0.0
H2335 H 0.39475 0.99529 0.45588 0.0
H2336 H 0.40056 0.98825 0.42266 0.0
H2337 H 0.39122 0.98022 0.46647 0.0
H2338 H 0.4042 0.96829 0.55804 0.0
H2339 H 0.39689 0.9472 0.5464 0.0
H2340 H 0.60404 0.04636 0.58293 0.0
H2341 H 0.59847 0.02586 0.56529 0.0
H2342 H 0.60267 0.03484 0.43366 0.0
H2343 H 0.60771 0.05512 0.45108 0.0
H2344 H 0.58178 0.01675 0.44755 0.0
H2345 H 0.61437 0.00792 0.5271 0.0
H2346 H 0.60778 0.01356 0.56307 0.0
H2347 H 0.61679 0.02277 0.52044 0.0
C2348 C 0.60403 0.044 0.55035 0.0
C2349 C 0.60618 0.05227 0.51836 0.0
C2350 C 0.60094 0.0323 0.54025 0.0
C2351 C 0.60025 0.0288 0.49809 0.0
C2352 C 0.60313 0.03731 0.46637 0.0
H2353 H 0.5618 0.95566 0.39724 0.0
H2354 H 0.57741 0.9767 0.40152 0.0
C2355 C 0.60599 0.04888 0.47637 0.0
C2356 C 0.59495 0.01606 0.48671 0.0
H2357 H 0.5955 0.99061 0.50897 0.0
C2358 C 0.58497 0.0111 0.4602 0.0
C2359 C 0.59909 0.00867 0.5032 0.0
C2360 C 0.61017 0.01354 0.52967 0.0
C2361 C 0.57864 0.9989 0.45159 0.0
C2362 C 0.58243 0.99142 0.46974 0.0
C2363 C 0.59267 0.9964 0.49493 0.0
C2364 C 0.57485 0.97835 0.46775 0.0
C2365 C 0.56753 0.99397 0.42516 0.0
C2366 C 0.56864 0.97227 0.50383 0.0
C2367 C 0.55976 0.96039 0.50142 0.0
C2368 C 0.55695 0.95431 0.46289 0.0
C2369 C 0.56376 0.96015 0.42727 0.0
C2370 C 0.57264 0.97214 0.42967 0.0
H2371 H 0.56505 0.0008 0.41759 0.0
H2372 H 0.56896 0.9905 0.39525 0.0
H2373 H 0.55995 0.98648 0.44165 0.0
H2374 H 0.57022 0.97691 0.53348 0.0
H2375 H 0.55477 0.95609 0.52955 0.0
H2376 H 0.94878 0.54941 0.45064 0.0
H2377 H 0.97005 0.56232 0.43908 0.0
H2378 H 0.97535 0.56932 0.57182 0.0
H2379 H 0.95388 0.55643 0.58375 0.0
H2380 H 0.99058 0.58983 0.51069 0.0
H2381 H 0.99045 0.54742 0.48423 0.0
H2382 H 0.97985 0.54937 0.45407 0.0
H2383 H 0.97838 0.54799 0.51011 0.0
C2384 C 0.95442 0.5539 0.47735 0.0
C2385 C 0.94971 0.55177 0.51822 0.0
C2386 C 0.96656 0.56129 0.47063 0.0
C2387 C 0.97425 0.56661 0.50463 0.0
C2388 C 0.96951 0.56527 0.54519 0.0
H2389 H 0.04695 0.58429 0.52118 0.0
H2390 H 0.02604 0.57777 0.53142 0.0
C2391 C 0.95728 0.55791 0.55196 0.0
C2392 C 0.98722 0.57214 0.49814 0.0
H2393 H 0.00847 0.56515 0.47219 0.0
C2394 C 0.99454 0.58448 0.50231 0.0
C2395 C 0.99231 0.56508 0.48748 0.0
C2396 C 0.98489 0.55172 0.48398 0.0
C2397 C 0.00689 0.58996 0.49577 0.0
C2398 C 0.01193 0.58289 0.48452 0.0
C2399 C 0.00457 0.57056 0.48049 0.0
C2400 C 0.0249 0.58784 0.4794 0.0
C2401 C 0.0145 0.60321 0.50182 0.0
C2402 C 0.03125 0.59573 0.44664 0.0
C2403 C 0.04333 0.59951 0.44055 0.0
C2404 C 0.04918 0.59539 0.467 0.0
C2405 C 0.04276 0.58761 0.5 0.0
C2406 C 0.03078 0.58389 0.50606 0.0
H2407 H 0.0096 0.60703 0.51799 0.0
H2408 H 0.02258 0.60534 0.52029 0.0
H2409 H 0.01743 0.60756 0.47073 0.0
H2410 H 0.02681 0.59872 0.42526 0.0
H2411 H 0.04802 0.60551 0.41488 0.0
H2412 H 0.3954 0.44537 0.40101 0.0
H2413 H 0.40166 0.43043 0.40805 0.0
H2414 H 0.40596 0.43678 0.54133 0.0
H2415 H 0.39989 0.45169 0.53465 0.0
H2416 H 0.42497 0.43713 0.44473 0.0
H2417 H 0.38777 0.3997 0.5295 0.0
H2418 H 0.38586 0.41034 0.49879 0.0
H2419 H 0.39231 0.41422 0.55025 0.0
C2420 C 0.39748 0.44342 0.43185 0.0
C2421 C 0.39725 0.44976 0.46721 0.0
C2422 C 0.40103 0.43489 0.43583 0.0
C2423 C 0.40411 0.43242 0.47529 0.0
C2424 C 0.40342 0.43841 0.51074 0.0
H2425 H 0.44077 0.4 0.58892 0.0
H2426 H 0.42738 0.40769 0.57235 0.0
C2427 C 0.40005 0.44701 0.50675 0.0
C2428 C 0.40946 0.42474 0.4793 0.0
H2429 H 0.40636 0.4001 0.52934 0.0
C2430 C 0.42084 0.42891 0.46254 0.0
C2431 C 0.40409 0.41416 0.50321 0.0
C2432 C 0.39179 0.40925 0.52126 0.0
C2433 C 0.42724 0.42306 0.47049 0.0
C2434 C 0.42193 0.41249 0.49475 0.0
C2435 C 0.4104 0.40816 0.51068 0.0
C2436 C 0.42846 0.40616 0.50504 0.0
C2437 C 0.43986 0.42862 0.45461 0.0
C2438 C 0.43303 0.40224 0.47287 0.0
C2439 C 0.4408 0.39807 0.48222 0.0
C2440 C 0.4439 0.39745 0.524 0.0
C2441 C 0.43853 0.40041 0.55646 0.0
C2442 C 0.4309 0.4048 0.54701 0.0
H2443 H 0.44359 0.43817 0.44683 0.0
H2444 H 0.44574 0.42784 0.47817 0.0
H2445 H 0.44002 0.42398 0.4256 0.0
H2446 H 0.43097 0.40285 0.44036 0.0
H2447 H 0.44466 0.39566 0.45661 0.0
H2448 H 0.24321 0.07609 0.34713 0.0
H2449 H 0.24012 0.09034 0.38843 0.0
H2450 H 0.2249 0.09746 0.2795 0.0
H2451 H 0.2277 0.08329 0.23923 0.0
H2452 H 0.25153 0.11284 0.37317 0.0
H2453 H 0.20492 0.10077 0.36534 0.0
H2454 H 0.20946 0.08987 0.35624 0.0
H2455 H 0.20867 0.0986 0.31342 0.0
C2456 C 0.23879 0.0804 0.33271 0.0
C2457 C 0.23581 0.0787 0.28989 0.0
C2458 C 0.23704 0.08853 0.35627 0.0
C2459 C 0.2321 0.0949 0.33743 0.0
C2460 C 0.22837 0.09247 0.29547 0.0
H2461 H 0.25738 0.15705 0.25384 0.0
H2462 H 0.25325 0.13952 0.29342 0.0
C2463 C 0.23016 0.08446 0.2721 0.0
C2464 C 0.23303 0.10571 0.35718 0.0
H2465 H 0.21962 0.12237 0.34589 0.0
C2466 C 0.24439 0.1148 0.36912 0.0
C2467 C 0.22372 0.10835 0.35392 0.0
C2468 C 0.21099 0.09878 0.34702 0.0
C2469 C 0.24708 0.12668 0.37022 0.0
C2470 C 0.2383 0.1295 0.35804 0.0
C2471 C 0.2265 0.12028 0.35371 0.0
C2472 C 0.24172 0.14116 0.33869 0.0
C2473 C 0.25962 0.13621 0.38026 0.0
C2474 C 0.23645 0.14792 0.35038 0.0
C2475 C 0.2388 0.15811 0.32732 0.0
C2476 C 0.2462 0.16142 0.29175 0.0
C2477 C 0.25158 0.15473 0.28089 0.0
C2478 C 0.24936 0.14475 0.30395 0.0
H2479 H 0.26342 0.13314 0.40527 0.0
H2480 H 0.26526 0.13808 0.35195 0.0
H2481 H 0.26002 0.14457 0.39057 0.0
H2482 H 0.23036 0.14519 0.37667 0.0
H2483 H 0.23451 0.16309 0.33629 0.0
H2484 H 0.83097 0.07589 0.35071 0.0
H2485 H 0.84886 0.09081 0.38823 0.0
H2486 H 0.86994 0.09551 0.27774 0.0
H2487 H 0.85233 0.08083 0.2406 0.0
H2488 H 0.88158 0.0964 0.35736 0.0
H2489 H 0.86195 0.12605 0.35088 0.0
H2490 H 0.85395 0.11173 0.37596 0.0
H2491 H 0.85568 0.11262 0.32002 0.0
C2492 C 0.8395 0.0799 0.33501 0.0
C2493 C 0.84027 0.07734 0.29264 0.0
C2494 C 0.84968 0.08844 0.35635 0.0
C2495 C 0.86069 0.09435 0.33556 0.0
C2496 C 0.86155 0.09106 0.2944 0.0
H2497 H 0.91916 0.14548 0.2461 0.0
H2498 H 0.90487 0.12771 0.28335 0.0
C2499 C 0.85146 0.08271 0.27312 0.0
C2500 C 0.87112 0.10503 0.35313 0.0
H2501 H 0.88264 0.13507 0.35221 0.0
C2502 C 0.88177 0.10485 0.35794 0.0
C2503 C 0.87137 0.11605 0.35451 0.0
C2504 C 0.86017 0.11675 0.35009 0.0
C2505 C 0.89277 0.11544 0.35902 0.0
C2506 C 0.89309 0.12643 0.35436 0.0
C2507 C 0.88239 0.12663 0.35534 0.0
C2508 C 0.90379 0.1371 0.33783 0.0
C2509 C 0.90399 0.11474 0.36177 0.0
C2510 C 0.90812 0.14837 0.35616 0.0
C2511 C 0.91643 0.15864 0.33471 0.0
C2512 C 0.92023 0.15773 0.29429 0.0
C2513 C 0.91637 0.14642 0.27721 0.0
C2514 C 0.90827 0.13624 0.29875 0.0
H2515 H 0.90261 0.10719 0.38206 0.0
H2516 H 0.90639 0.11312 0.33001 0.0
H2517 H 0.91152 0.12309 0.37435 0.0
H2518 H 0.90465 0.14925 0.386 0.0
H2519 H 0.91921 0.16728 0.34834 0.0
H2520 H 0.92148 0.75373 0.34421 0.0
H2521 H 0.90687 0.75699 0.38267 0.0
H2522 H 0.9017 0.7731 0.27232 0.0
H2523 H 0.91605 0.76986 0.23419 0.0
H2524 H 0.90183 0.78436 0.35309 0.0
H2525 H 0.87114 0.73528 0.3475 0.0
H2526 H 0.88566 0.74133 0.37082 0.0
H2527 H 0.88428 0.7421 0.31508 0.0
C2528 C 0.91741 0.75823 0.32868 0.0
C2529 C 0.91975 0.76141 0.2861 0.0
C2530 C 0.90906 0.76004 0.35057 0.0
C2531 C 0.90314 0.76519 0.33017 0.0
C2532 C 0.90617 0.76913 0.28868 0.0
H2533 H 0.8531 0.77434 0.24363 0.0
H2534 H 0.87073 0.77747 0.28103 0.0
C2535 C 0.91433 0.76721 0.26683 0.0
C2536 C 0.89272 0.76527 0.34868 0.0
H2537 H 0.8626 0.7474 0.34903 0.0
C2538 C 0.89326 0.77626 0.35394 0.0
C2539 C 0.88156 0.75469 0.35047 0.0
C2540 C 0.88051 0.74264 0.34571 0.0
C2541 C 0.88285 0.777 0.35577 0.0
C2542 C 0.8717 0.76652 0.35132 0.0
C2543 C 0.87116 0.75546 0.35196 0.0
C2544 C 0.86117 0.76689 0.3351 0.0
C2545 C 0.88393 0.78907 0.35905 0.0
C2546 C 0.84985 0.76003 0.35319 0.0
C2547 C 0.83966 0.75826 0.33163 0.0
C2548 C 0.84071 0.7631 0.29137 0.0
C2549 C 0.85206 0.77051 0.27464 0.0
C2550 C 0.86217 0.77241 0.29628 0.0
H2551 H 0.89153 0.79501 0.37951 0.0
H2552 H 0.88569 0.79321 0.32746 0.0
H2553 H 0.87569 0.78848 0.37172 0.0
H2554 H 0.84885 0.75554 0.38283 0.0
H2555 H 0.83097 0.75241 0.34497 0.0
H2556 H 0.07756 0.24383 0.66081 0.0
H2557 H 0.0923 0.2404 0.6242 0.0
H2558 H 0.09268 0.2197 0.72943 0.0
H2559 H 0.07824 0.22318 0.76573 0.0
H2560 H 0.11447 0.24889 0.65906 0.0
H2561 H 0.09516 0.20096 0.63219 0.0
H2562 H 0.08607 0.20781 0.63848 0.0
H2563 H 0.09127 0.20338 0.68372 0.0
C2564 C 0.0805 0.23819 0.67524 0.0
C2565 C 0.07684 0.23379 0.71607 0.0
C2566 C 0.08891 0.23626 0.65439 0.0
C2567 C 0.09347 0.22964 0.67377 0.0
C2568 C 0.0891 0.22456 0.71329 0.0
H2569 H 0.14552 0.22533 0.77105 0.0
H2570 H 0.12781 0.22225 0.73427 0.0
C2571 C 0.08092 0.22665 0.73424 0.0
C2572 C 0.10427 0.22978 0.65773 0.0
H2573 H 0.11621 0.21163 0.65593 0.0
C2574 C 0.11487 0.24077 0.65643 0.0
C2575 C 0.10477 0.2192 0.65378 0.0
C2576 C 0.09366 0.20719 0.65166 0.0
C2577 C 0.12598 0.24139 0.65749 0.0
C2578 C 0.12643 0.23074 0.65935 0.0
C2579 C 0.11586 0.2198 0.65496 0.0
C2580 C 0.137 0.23071 0.67674 0.0
C2581 C 0.13706 0.2534 0.66158 0.0
C2582 C 0.14804 0.23609 0.65601 0.0
C2583 C 0.15828 0.23784 0.67718 0.0
C2584 C 0.15757 0.23434 0.71934 0.0
C2585 C 0.14637 0.22825 0.73875 0.0
C2586 C 0.13622 0.22642 0.71764 0.0
H2587 H 0.1351 0.26081 0.66111 0.0
H2588 H 0.14171 0.25387 0.69136 0.0
H2589 H 0.14321 0.25473 0.63533 0.0
H2590 H 0.1488 0.23937 0.62428 0.0
H2591 H 0.16681 0.24255 0.6615 0.0
H2592 H 0.75279 0.83147 0.65397 0.0
H2593 H 0.75594 0.84937 0.6162 0.0
H2594 H 0.77812 0.87121 0.71756 0.0
H2595 H 0.77497 0.85356 0.75486 0.0
H2596 H 0.74785 0.86301 0.65057 0.0
H2597 H 0.79536 0.89216 0.61913 0.0
H2598 H 0.78893 0.87632 0.62677 0.0
H2599 H 0.79371 0.8863 0.67109 0.0
C2600 C 0.75871 0.84015 0.66718 0.0
C2601 C 0.76361 0.84119 0.70732 0.0
C2602 C 0.76049 0.85035 0.64567 0.0
C2603 C 0.76741 0.86167 0.66371 0.0
C2604 C 0.77302 0.86266 0.70234 0.0
H2605 H 0.77039 0.91616 0.76703 0.0
H2606 H 0.77381 0.90214 0.72753 0.0
C2607 C 0.77111 0.85254 0.72392 0.0
C2608 C 0.76697 0.87219 0.64784 0.0
H2609 H 0.78469 0.90234 0.64656 0.0
C2610 C 0.75587 0.8716 0.64765 0.0
C2611 C 0.7774 0.88338 0.6434 0.0
C2612 C 0.7895 0.88453 0.63964 0.0
C2613 C 0.75504 0.88196 0.64965 0.0
C2614 C 0.76559 0.89315 0.65148 0.0
C2615 C 0.7766 0.89375 0.6457 0.0
C2616 C 0.7655 0.9035 0.67058 0.0
C2617 C 0.74296 0.88082 0.65496 0.0
C2618 C 0.76008 0.90929 0.6511 0.0
C2619 C 0.75816 0.91745 0.6738 0.0
C2620 C 0.7615 0.91973 0.71625 0.0
C2621 C 0.76761 0.91449 0.73451 0.0
C2622 C 0.76963 0.90652 0.71186 0.0
H2623 H 0.73565 0.87143 0.65338 0.0
H2624 H 0.74248 0.88459 0.68566 0.0
H2625 H 0.74153 0.88592 0.62997 0.0
H2626 H 0.75688 0.90712 0.61915 0.0
H2627 H 0.75342 0.92138 0.65905 0.0
H2628 H 0.14762 0.91783 0.76382 0.0
H2629 H 0.13013 0.90296 0.72676 0.0
H2630 H 0.1514 0.90755 0.61689 0.0
H2631 H 0.16919 0.92271 0.65434 0.0
H2632 H 0.119 0.90265 0.64561 0.0
H2633 H 0.13736 0.87197 0.65495 0.0
H2634 H 0.1437 0.88526 0.68656 0.0
H2635 H 0.14582 0.88638 0.6308 0.0
C2636 C 0.14858 0.91585 0.73153 0.0
C2637 C 0.15978 0.9213 0.71212 0.0
C2638 C 0.13855 0.90739 0.71027 0.0
C2639 C 0.13948 0.90409 0.66922 0.0
C2640 C 0.15053 0.90996 0.64867 0.0
H2641 H 0.07927 0.83204 0.65848 0.0
H2642 H 0.09437 0.84964 0.62031 0.0
C2643 C 0.16065 0.91861 0.66997 0.0
C2644 C 0.12898 0.89355 0.65133 0.0
H2645 H 0.11667 0.86343 0.65441 0.0
C2646 C 0.11853 0.89407 0.64574 0.0
C2647 C 0.12838 0.88237 0.65091 0.0
C2648 C 0.13937 0.88134 0.65608 0.0
C2649 C 0.10737 0.88367 0.64503 0.0
C2650 C 0.10668 0.87256 0.65079 0.0
C2651 C 0.11719 0.87198 0.65045 0.0
C2652 C 0.09581 0.8622 0.66783 0.0
C2653 C 0.09636 0.88475 0.64166 0.0
C2654 C 0.09151 0.86343 0.70677 0.0
C2655 C 0.08311 0.85348 0.72864 0.0
C2656 C 0.07876 0.84204 0.71202 0.0
C2657 C 0.08243 0.84079 0.67178 0.0
C2658 C 0.09104 0.85081 0.65002 0.0
H2659 H 0.09799 0.8923 0.621 0.0
H2660 H 0.08871 0.87647 0.6292 0.0
H2661 H 0.094 0.88655 0.67321 0.0
H2662 H 0.09525 0.87205 0.72174 0.0
H2663 H 0.08043 0.8547 0.75958 0.0
H2664 H 0.9121 0.41117 0.6828 0.0
H2665 H 0.91024 0.42693 0.71885 0.0
H2666 H 0.89241 0.4305 0.61022 0.0
H2667 H 0.89408 0.41489 0.57504 0.0
H2668 H 0.92134 0.44891 0.69226 0.0
H2669 H 0.87447 0.43636 0.69846 0.0
H2670 H 0.87899 0.42534 0.69235 0.0
H2671 H 0.877 0.43256 0.64708 0.0
C2672 C 0.9074 0.41505 0.66746 0.0
C2673 C 0.90333 0.41191 0.62602 0.0
C2674 C 0.90635 0.42405 0.68801 0.0
C2675 C 0.90102 0.42983 0.6676 0.0
C2676 C 0.89623 0.42601 0.62736 0.0
H2677 H 0.92302 0.4915 0.5692 0.0
H2678 H 0.92023 0.47436 0.60862 0.0
C2679 C 0.89735 0.41716 0.60691 0.0
C2680 C 0.90243 0.44124 0.68332 0.0
H2681 H 0.88836 0.4573 0.6728 0.0
C2682 C 0.91404 0.45068 0.68984 0.0
C2683 C 0.89295 0.44366 0.6818 0.0
C2684 C 0.88016 0.43386 0.68005 0.0
C2685 C 0.91658 0.46251 0.68796 0.0
C2686 C 0.90733 0.46489 0.67841 0.0
C2687 C 0.89553 0.4555 0.67877 0.0
C2688 C 0.90993 0.47624 0.65833 0.0
C2689 C 0.9293 0.47234 0.69258 0.0
C2690 C 0.90487 0.48297 0.67264 0.0
C2691 C 0.90643 0.4929 0.64973 0.0
C2692 C 0.91284 0.49603 0.61181 0.0
C2693 C 0.918 0.48934 0.59816 0.0
C2694 C 0.91654 0.47959 0.62104 0.0
H2695 H 0.93403 0.46988 0.71601 0.0
H2696 H 0.93396 0.47374 0.66213 0.0
H2697 H 0.92986 0.48082 0.70233 0.0
H2698 H 0.89957 0.48043 0.70101 0.0
H2699 H 0.90232 0.49787 0.66094 0.0
H2700 H 0.49942 0.40415 0.66569 0.0
H2701 H 0.518 0.41864 0.70071 0.0
H2702 H 0.52143 0.44576 0.61433 0.0
H2703 H 0.50313 0.43155 0.57985 0.0
H2704 H 0.53966 0.42985 0.6621 0.0
H2705 H 0.53075 0.46414 0.72286 0.0
H2706 H 0.51892 0.44924 0.71116 0.0
H2707 H 0.52496 0.46044 0.67064 0.0
C2708 C 0.50402 0.41329 0.655 0.0
C2709 C 0.49988 0.41671 0.61989 0.0
C2710 C 0.51461 0.42154 0.67499 0.0
C2711 C 0.52099 0.43335 0.66069 0.0
C2712 C 0.51652 0.43681 0.62678 0.0
H2713 H 0.58099 0.47822 0.55876 0.0
H2714 H 0.56518 0.46111 0.59423 0.0
C2715 C 0.50611 0.42861 0.60669 0.0
C2716 C 0.53313 0.44181 0.67607 0.0
H2717 H 0.55066 0.47167 0.68991 0.0
C2718 C 0.54208 0.43891 0.66987 0.0
C2719 C 0.53636 0.45356 0.68763 0.0
C2720 C 0.52719 0.45696 0.69893 0.0
C2721 C 0.5541 0.44781 0.6687 0.0
C2722 C 0.55714 0.45985 0.67295 0.0
C2723 C 0.54835 0.46249 0.68552 0.0
C2724 C 0.56832 0.46962 0.65503 0.0
C2725 C 0.56333 0.4443 0.65973 0.0
C2726 C 0.57545 0.48021 0.67725 0.0
C2727 C 0.58458 0.49015 0.6567 0.0
C2728 C 0.5865 0.48967 0.61349 0.0
C2729 C 0.57971 0.47889 0.59201 0.0
C2730 C 0.57073 0.46902 0.61248 0.0
H2731 H 0.56093 0.43574 0.6753 0.0
H2732 H 0.56366 0.44299 0.62546 0.0
H2733 H 0.5723 0.45119 0.67052 0.0
H2734 H 0.57364 0.48093 0.70996 0.0
H2735 H 0.58965 0.49837 0.67394 0.0
H2736 H 0.59521 0.09858 0.66099 0.0
H2737 H 0.57977 0.10125 0.69603 0.0
H2738 H 0.55364 0.07649 0.60922 0.0
H2739 H 0.56876 0.07379 0.5748 0.0
H2740 H 0.56728 0.11037 0.65827 0.0
H2741 H 0.53514 0.06604 0.71712 0.0
H2742 H 0.55035 0.0702 0.70529 0.0
H2743 H 0.53915 0.0645 0.66473 0.0
C2744 C 0.5861 0.09352 0.65019 0.0
C2745 C 0.5832 0.08604 0.61498 0.0
C2746 C 0.57731 0.09504 0.6702 0.0
C2747 C 0.56549 0.08889 0.6558 0.0
C2748 C 0.56259 0.08108 0.62177 0.0
H2749 H 0.51784 0.1003 0.55492 0.0
H2750 H 0.53541 0.10269 0.59034 0.0
C2751 C 0.57131 0.07966 0.60169 0.0
C2752 C 0.55636 0.09165 0.67131 0.0
H2753 H 0.52632 0.07735 0.6846 0.0
C2754 C 0.5584 0.10324 0.6657 0.0
C2755 C 0.54483 0.0825 0.68246 0.0
C2756 C 0.54231 0.07015 0.69322 0.0
C2757 C 0.5489 0.1055 0.66477 0.0
C2758 C 0.53712 0.09589 0.66857 0.0
C2759 C 0.5353 0.0847 0.68052 0.0
C2760 C 0.52688 0.09653 0.6508 0.0
C2761 C 0.55152 0.11801 0.65655 0.0
C2762 C 0.51612 0.09225 0.67284 0.0
C2763 C 0.50591 0.09082 0.65229 0.0
C2764 C 0.50632 0.0934 0.60927 0.0
C2765 C 0.51723 0.09818 0.58803 0.0
C2766 C 0.52736 0.09971 0.60848 0.0
H2767 H 0.55987 0.12453 0.6725 0.0
H2768 H 0.55282 0.11986 0.62238 0.0
H2769 H 0.54417 0.11938 0.66744 0.0
H2770 H 0.51551 0.08959 0.70536 0.0
H2771 H 0.4976 0.08707 0.66934 0.0
H2772 H 0.74469 0.57692 0.98773 0.0
H2773 H 0.75951 0.5741 0.94908 0.0
H2774 H 0.76489 0.55793 0.05896 0.0
H2775 H 0.75019 0.56054 0.09674 0.0
H2776 H 0.78188 0.58546 0.97043 0.0
H2777 H 0.76914 0.53853 0.97231 0.0
H2778 H 0.75828 0.5432 0.97968 0.0
H2779 H 0.76628 0.54191 0.02389 0.0
C2780 C 0.74872 0.57234 0.00285 0.0
C2781 C 0.7464 0.56904 0.04529 0.0
C2782 C 0.75719 0.57075 0.98082 0.0
C2783 C 0.76325 0.56565 1.0008 0.0
C2784 C 0.76017 0.56156 0.04219 0.0
H2785 H 0.82573 0.58855 0.08929 0.0
H2786 H 0.80824 0.58539 0.05127 0.0
C2787 C 0.75184 0.56321 0.06409 0.0
C2788 C 0.77433 0.56673 0.98305 0.0
H2789 H 0.79051 0.55276 0.99322 0.0
C2790 C 0.78367 0.57818 0.97356 0.0
C2791 C 0.77676 0.55726 0.98548 0.0
C2792 C 0.76699 0.54453 0.9904 0.0
C2793 C 0.7955 0.58071 0.97346 0.0
C2794 C 0.79802 0.57161 0.98397 0.0
C2795 C 0.78863 0.55984 0.98647 0.0
C2796 C 0.80962 0.57451 0.00263 0.0
C2797 C 0.80526 0.59332 0.96593 0.0
C2798 C 0.81622 0.56931 0.98834 0.0
C2799 C 0.82637 0.57112 0.01037 0.0
C2800 C 0.82983 0.5779 0.04746 0.0
C2801 C 0.8233 0.58324 0.06097 0.0
C2802 C 0.81334 0.58156 0.03889 0.0
H2803 H 0.80244 0.59771 0.9423 0.0
H2804 H 0.80716 0.59844 0.99555 0.0
H2805 H 0.81356 0.5937 0.95498 0.0
H2806 H 0.81339 0.56368 0.96078 0.0
H2807 H 0.83122 0.56686 0.99937 0.0
H2808 H 0.41928 0.16658 0.9851 0.0
H2809 H 0.42267 0.18469 0.94825 0.0
H2810 H 0.44522 0.20602 0.04978 0.0
H2811 H 0.44183 0.18817 0.08616 0.0
H2812 H 0.41492 0.19843 0.9838 0.0
H2813 H 0.46245 0.22723 0.95204 0.0
H2814 H 0.45587 0.21134 0.95892 0.0
H2815 H 0.46083 0.22117 0.00367 0.0
C2816 C 0.42534 0.17519 0.9985 0.0
C2817 C 0.43028 0.17604 0.03844 0.0
C2818 C 0.42725 0.18551 0.97752 0.0
C2819 C 0.43434 0.19676 0.9959 0.0
C2820 C 0.43999 0.19753 0.03427 0.0
H2821 H 0.43796 0.25082 0.10421 0.0
H2822 H 0.44079 0.23659 0.06363 0.0
C2823 C 0.43795 0.1873 0.05533 0.0
C2824 C 0.43403 0.20741 0.98082 0.0
H2825 H 0.45206 0.23752 0.98131 0.0
C2826 C 0.423 0.20697 0.98117 0.0
C2827 C 0.44454 0.21855 0.97675 0.0
C2828 C 0.45657 0.21956 0.97235 0.0
C2829 C 0.42234 0.21741 0.98411 0.0
C2830 C 0.43297 0.2285 0.98644 0.0
C2831 C 0.4439 0.22899 0.98008 0.0
C2832 C 0.43304 0.2388 0.00668 0.0
C2833 C 0.41035 0.21643 0.98992 0.0
C2834 C 0.42807 0.24508 0.98766 0.0
C2835 C 0.42649 0.25336 0.01098 0.0
C2836 C 0.42971 0.25527 0.05361 0.0
C2837 C 0.43527 0.24944 0.07157 0.0
C2838 C 0.43697 0.24135 0.04832 0.0
H2839 H 0.40292 0.20712 0.98704 0.0
H2840 H 0.40987 0.21986 0.02133 0.0
H2841 H 0.4091 0.22193 0.96603 0.0
H2842 H 0.42501 0.24324 0.95548 0.0
H2843 H 0.42217 0.25775 0.99643 0.0
H2844 H 0.73582 0.16695 0.0073 0.0
H2845 H 0.75043 0.18487 0.96921 0.0
H2846 H 0.7778 0.18859 0.05496 0.0
H2847 H 0.76351 0.17096 0.09231 0.0
H2848 H 0.76229 0.20692 0.00291 0.0
H2849 H 0.79572 0.19634 0.94625 0.0
H2850 H 0.78079 0.18486 0.95942 0.0
H2851 H 0.7922 0.19115 0.9992 0.0
C2852 C 0.74503 0.17147 0.01722 0.0
C2853 C 0.74851 0.16761 0.05296 0.0
C2854 C 0.75335 0.18168 0.99546 0.0
C2855 C 0.76528 0.18796 0.00865 0.0
C2856 C 0.76876 0.18375 0.04327 0.0
H2857 H 0.80987 0.24699 0.1094 0.0
H2858 H 0.7929 0.23185 0.07143 0.0
C2859 C 0.76051 0.17372 0.06505 0.0
C2860 C 0.77389 0.19981 0.99143 0.0
H2861 H 0.80388 0.21654 0.97864 0.0
C2862 C 0.7713 0.20903 0.99583 0.0
C2863 C 0.78558 0.20266 0.98048 0.0
C2864 C 0.78866 0.19317 0.97058 0.0
C2865 C 0.78044 0.22095 0.99637 0.0
C2866 C 0.7924 0.22361 0.99355 0.0
C2867 C 0.79475 0.21455 0.98216 0.0
C2868 C 0.80223 0.23459 0.01245 0.0
C2869 C 0.77726 0.2305 0.00343 0.0
C2870 C 0.81326 0.24129 0.99217 0.0
C2871 C 0.82313 0.25002 0.01427 0.0
C2872 C 0.82212 0.25195 0.05709 0.0
C2873 C 0.81095 0.24567 0.07649 0.0
C2874 C 0.80116 0.23709 0.05452 0.0
H2875 H 0.76901 0.22837 0.98607 0.0
H2876 H 0.77547 0.23088 0.03727 0.0
H2877 H 0.7845 0.23937 0.99328 0.0
H2878 H 0.81435 0.2394 0.9599 0.0
H2879 H 0.83167 0.25471 0.99862 0.0
H2880 H 0.56038 0.74853 0.90208 0.0
H2881 H 0.55717 0.76295 0.93971 0.0
H2882 H 0.5751 0.75946 0.04807 0.0
H2883 H 0.57839 0.74483 0.00996 0.0
H2884 H 0.54701 0.764 0.01934 0.0
H2885 H 0.59609 0.79453 0.00942 0.0
H2886 H 0.58906 0.7809 0.9797 0.0
H2887 H 0.59023 0.78043 0.03566 0.0
C2888 C 0.56341 0.75061 0.93426 0.0
C2889 C 0.56977 0.7457 0.95294 0.0
C2890 C 0.56151 0.75881 0.95585 0.0
C2891 C 0.56601 0.76239 0.99649 0.0
C2892 C 0.57163 0.75687 0.01658 0.0
H2893 H 0.5781 0.8346 0.00505 0.0
H2894 H 0.57548 0.81702 0.04376 0.0
C2895 C 0.57345 0.74849 0.99492 0.0
C2896 C 0.56609 0.773 0.01394 0.0
H2897 H 0.58402 0.8031 0.01052 0.0
C2898 C 0.55514 0.77256 0.01917 0.0
C2899 C 0.5767 0.78416 0.01434 0.0
C2900 C 0.58873 0.78515 0.00949 0.0
C2901 C 0.55444 0.78299 0.0194 0.0
C2902 C 0.56492 0.79407 0.01366 0.0
C2903 C 0.57597 0.79458 0.01445 0.0
C2904 C 0.56451 0.80443 0.99608 0.0
C2905 C 0.54239 0.782 0.02223 0.0
C2906 C 0.55912 0.80316 0.95683 0.0
C2907 C 0.56076 0.8131 0.93463 0.0
C2908 C 0.56778 0.82455 0.95124 0.0
C2909 C 0.57258 0.82584 0.99171 0.0
C2910 C 0.57109 0.81583 0.0138 0.0
H2911 H 0.53638 0.77447 0.04282 0.0
H2912 H 0.54304 0.79031 0.03448 0.0
H2913 H 0.53832 0.78022 0.99053 0.0
H2914 H 0.55427 0.79453 0.94195 0.0
H2915 H 0.55693 0.81185 0.90355 0.0
H2916 H 0.16461 0.7413 0.01271 0.0
H2917 H 0.18192 0.75655 0.05164 0.0
H2918 H 0.20244 0.76674 0.93723 0.0
H2919 H 0.18556 0.75155 0.89907 0.0
H2920 H 0.216 0.76815 0.00536 0.0
H2921 H 0.18997 0.79084 0.03801 0.0
H2922 H 0.18491 0.7762 0.05873 0.0
H2923 H 0.18418 0.77822 0.00328 0.0
C2924 C 0.17292 0.74664 0.99626 0.0
C2925 C 0.17366 0.74539 0.95267 0.0
C2926 C 0.18277 0.75539 0.01844 0.0
C2927 C 0.19342 0.76296 0.9972 0.0
C2928 C 0.19434 0.76105 0.95441 0.0
H2929 H 0.23368 0.82494 0.91316 0.0
H2930 H 0.21967 0.80695 0.94932 0.0
C2931 C 0.18461 0.75239 0.93247 0.0
C2932 C 0.20327 0.77384 0.0165 0.0
H2933 H 0.21048 0.80267 0.03171 0.0
C2934 C 0.21485 0.77566 0.01284 0.0
C2935 C 0.20174 0.78359 0.02691 0.0
C2936 C 0.18956 0.78222 0.03199 0.0
C2937 C 0.2248 0.78717 0.01267 0.0
C2938 C 0.22307 0.79703 0.01729 0.0
C2939 C 0.21172 0.79506 0.02768 0.0
C2940 C 0.23171 0.80878 0.99949 0.0
C2941 C 0.23684 0.78875 1.00237 0.0
C2942 C 0.24318 0.81597 0.01596 0.0
C2943 C 0.25137 0.8264 0.99488 0.0
C2944 C 0.24817 0.82969 0.9571 0.0
C2945 C 0.23653 0.82265 0.94188 0.0
C2946 C 0.22844 0.81236 0.96276 0.0
H2947 H 0.23661 0.78012 0.99898 0.0
H2948 H 0.24021 0.79381 0.97265 0.0
H2949 H 0.24324 0.79392 0.02761 0.0
H2950 H 0.24584 0.81342 0.04451 0.0
H2951 H 0.26026 0.83167 0.00749 0.0
H2952 H 0.16524 0.42615 0.00487 0.0
H2953 H 0.18307 0.42938 0.04354 0.0
H2954 H 0.19189 0.41323 0.94198 0.0
H2955 H 0.17436 0.40989 0.90397 0.0
H2956 H 0.19423 0.40566 0.02459 0.0
H2957 H 0.21743 0.45493 0.00706 0.0
H2958 H 0.20291 0.44697 0.03081 0.0
H2959 H 0.20452 0.44566 0.97552 0.0
C2960 C 0.17096 0.42321 0.99112 0.0
C2961 C 0.16843 0.41786 0.95116 0.0
C2962 C 0.18113 0.42509 0.01317 0.0
C2963 C 0.18882 0.42158 0.99552 0.0
C2964 C 0.18606 0.41595 0.95631 0.0
H2965 H 0.24686 0.43371 0.90204 0.0
H2966 H 0.2316 0.43532 0.94018 0.0
C2967 C 0.17603 0.41412 0.93444 0.0
C2968 C 0.20021 0.42419 0.01522 0.0
H2969 H 0.22927 0.44602 0.011 0.0
C2970 C 0.20192 0.41453 0.02346 0.0
C2971 C 0.21016 0.43579 0.01432 0.0
C2972 C 0.20877 0.44649 0.00652 0.0
C2973 C 0.21336 0.41594 0.02414 0.0
C2974 C 0.22332 0.42738 0.01727 0.0
C2975 C 0.22162 0.43725 0.01581 0.0
C2976 C 0.23443 0.42872 0.99892 0.0
C2977 C 0.21457 0.40498 0.02674 0.0
C2978 C 0.24156 0.42496 0.01966 0.0
C2979 C 0.25035 0.42393 0.99746 0.0
C2980 C 0.25206 0.42664 0.9544 0.0
C2981 C 0.24562 0.43136 0.935 0.0
C2982 C 0.23693 0.43238 0.95696 0.0
H2983 H 0.20583 0.39672 0.03025 0.0
H2984 H 0.21896 0.40417 0.99804 0.0
H2985 H 0.22016 0.4057 0.05411 0.0
H2986 H 0.23994 0.4223 0.05227 0.0
H2987 H 0.25526 0.42034 0.01325 0.0
H2988 H 0.40818 0.90901 0.33776 0.0
H2989 H 0.42348 0.9065 0.3011 0.0
H2990 H 0.43509 0.89986 0.41973 0.0
H2991 H 0.42001 0.90222 0.4559 0.0
H2992 H 0.44717 0.92063 0.31226 0.0
H2993 H 0.43636 0.87506 0.34833 0.0
H2994 H 0.42538 0.87971 0.35193 0.0
H2995 H 0.435 0.88166 0.39577 0.0
C2996 C 0.41384 0.90673 0.35572 0.0
C2997 C 0.41295 0.90589 0.39972 0.0
C2998 C 0.42255 0.90529 0.33478 0.0
C2999 C 0.43029 0.90274 0.35754 0.0
C3000 C 0.42903 0.90146 0.40123 0.0
H3001 H 0.49668 0.93105 0.4147 0.0
H3002 H 0.47805 0.92642 0.38173 0.0
C3003 C 0.42048 0.90298 0.42202 0.0
C3004 C 0.44082 0.90311 0.33787 0.0
H3005 H 0.45795 0.89035 0.3527 0.0
C3006 C 0.44939 0.91382 0.3195 0.0
C3007 C 0.44369 0.89411 0.34571 0.0
C3008 C 0.43452 0.88194 0.36106 0.0
C3009 C 0.4612 0.91641 0.31495 0.0
C3010 C 0.46449 0.90822 0.33009 0.0
C3011 C 0.45555 0.89682 0.34217 0.0
C3012 C 0.47688 0.91214 0.34315 0.0
C3013 C 0.47022 0.92829 0.29704 0.0
C3014 C 0.48252 0.90563 0.33273 0.0
C3015 C 0.49329 0.90826 0.35201 0.0
C3016 C 0.49839 0.91725 0.38257 0.0
C3017 C 0.49296 0.92402 0.39146 0.0
C3018 C 0.48235 0.92149 0.37209 0.0
H3019 H 0.46621 0.93091 0.27131 0.0
H3020 H 0.47307 0.93518 0.32185 0.0
H3021 H 0.47816 0.92817 0.2848 0.0
H3022 H 0.47838 0.89827 0.31094 0.0
H3023 H 0.49726 0.90287 0.34469 0.0
H3024 H 0.1058 0.58462 0.42905 0.0
H3025 H 0.10884 0.57015 0.39094 0.0
H3026 H 0.08802 0.57144 0.28772 0.0
H3027 H 0.08507 0.58625 0.32609 0.0
H3028 H 0.07944 0.5489 0.3218 0.0
H3029 H 0.12719 0.56822 0.29064 0.0
H3030 H 0.12507 0.57215 0.3425 0.0
H3031 H 0.12035 0.57728 0.29784 0.0
C3032 C 0.10217 0.58211 0.39768 0.0
C3033 C 0.09518 0.5865 0.38051 0.0
C3034 C 0.10402 0.57392 0.37568 0.0
C3035 C 0.09882 0.56983 0.33614 0.0
C3036 C 0.09227 0.57462 0.31789 0.0
H3037 H 0.08612 0.49671 0.32626 0.0
H3038 H 0.08891 0.51433 0.28727 0.0
C3039 C 0.0906 0.58306 0.33977 0.0
C3040 C 0.09854 0.5591 0.31885 0.0
H3041 H 0.11669 0.54719 0.31474 0.0
C3042 C 0.08754 0.54851 0.31823 0.0
C3043 C 0.10909 0.5586 0.31359 0.0
C3044 C 0.12108 0.56972 0.31071 0.0
C3045 C 0.08694 0.5374 0.31905 0.0
C3046 C 0.09761 0.53698 0.32002 0.0
C3047 C 0.10851 0.54753 0.3145 0.0
C3048 C 0.09781 0.52659 0.33836 0.0
C3049 C 0.07497 0.52632 0.32413 0.0
C3050 C 0.10233 0.52776 0.37908 0.0
C3051 C 0.10071 0.51783 0.40118 0.0
C3052 C 0.09461 0.50648 0.38297 0.0
C3053 C 0.09084 0.50537 0.341 0.0
C3054 C 0.09238 0.51539 0.31883 0.0
H3055 H 0.06754 0.52824 0.3235 0.0
H3056 H 0.07358 0.51999 0.29846 0.0
H3057 H 0.07464 0.5219 0.35433 0.0
H3058 H 0.10653 0.53631 0.3948 0.0
H3059 H 0.10383 0.51899 0.43329 0.0
H3060 H 0.50218 0.59579 0.34133 0.0
H3061 H 0.48324 0.58128 0.30827 0.0
H3062 H 0.47949 0.55481 0.39828 0.0
H3063 H 0.49818 0.56898 0.43062 0.0
H3064 H 0.47266 0.54585 0.31589 0.0
H3065 H 0.45166 0.57202 0.36908 0.0
H3066 H 0.46452 0.57886 0.33546 0.0
H3067 H 0.46602 0.57534 0.38873 0.0
C3068 C 0.49738 0.58681 0.35345 0.0
C3069 C 0.50158 0.58357 0.38895 0.0
C3070 C 0.48656 0.57856 0.33469 0.0
C3071 C 0.4799 0.567 0.35113 0.0
C3072 C 0.48447 0.56366 0.385 0.0
H3073 H 0.42245 0.51836 0.45526 0.0
H3074 H 0.43845 0.53568 0.42132 0.0
C3075 C 0.49514 0.57182 0.40369 0.0
C3076 C 0.46766 0.55847 0.33693 0.0
H3077 H 0.43924 0.55163 0.35904 0.0
C3078 C 0.46528 0.54718 0.32366 0.0
C3079 C 0.45807 0.56028 0.34683 0.0
C3080 C 0.46009 0.57225 0.36089 0.0
C3081 C 0.45372 0.53733 0.32537 0.0
C3082 C 0.44433 0.53891 0.34011 0.0
C3083 C 0.44649 0.55046 0.34796 0.0
C3084 C 0.43344 0.52882 0.35822 0.0
C3085 C 0.4519 0.52514 0.31607 0.0
C3086 C 0.42507 0.51925 0.33393 0.0
C3087 C 0.41581 0.50918 0.35351 0.0
C3088 C 0.41489 0.50857 0.39756 0.0
C3089 C 0.42297 0.51844 0.42133 0.0
C3090 C 0.43209 0.52842 0.40191 0.0
H3091 H 0.46026 0.52543 0.3065 0.0
H3092 H 0.44831 0.51937 0.34419 0.0
H3093 H 0.44533 0.52098 0.29037 0.0
H3094 H 0.42588 0.51944 0.3001 0.0
H3095 H 0.40968 0.50172 0.33439 0.0
loop_
_geom_bond_atom_site_label_1
_geom_bond_atom_site_label_2
_geom_bond_distance
_geom_bond_site_symmetry_2
_ccdc_geom_bond_type
Zn0 O3 2.031 . S
Zn0 O5 2.049 . S
Zn0 O10 2.067 . S
Zn1 O2 1.962 . S
Zn1 O4 1.986 . S
Zn1 O6 1.996 . S
Zn1 O9 1.943 . S
O2 Zn1 1.962 . S
O2 C7 1.254 . S
O3 Zn0 2.031 . S
O3 C7 1.269 . S
O4 Zn1 1.986 . S
O4 C11 1.262 . S
O5 Zn0 2.049 . S
O5 C13 1.260 . S
O6 Zn1 1.996 . S
O6 C13 1.257 . S
C7 O2 1.254 . S
C7 O3 1.269 . S
C8 O9 1.249 . S
C8 O10 1.270 . S
O9 Zn1 1.943 . S
O9 C8 1.249 . S
O10 Zn0 2.067 . S
O10 C8 1.270 . S
C11 O4 1.262 . S
C11 O12 1.232 . S
O12 C11 1.232 . S
C13 O5 1.260 . S
C13 O6 1.257 . S
Zn14 O17 2.031 . S
Zn14 O19 2.049 . S
Zn14 O24 2.067 . S
Zn15 O16 1.962 . S
Zn15 O18 1.986 . S
Zn15 O20 1.996 . S
Zn15 O23 1.943 . S
O16 Zn15 1.962 . S
O16 C21 1.254 . S
O17 Zn14 2.031 . S
O17 C21 1.269 . S
O18 Zn15 1.986 . S
O18 C25 1.262 . S
O19 Zn14 2.049 . S
O19 C27 1.260 . S
O20 Zn15 1.996 . S
O20 C27 1.257 . S
C21 O16 1.254 . S
C21 O17 1.269 . S
C22 O23 1.249 . S
C22 O24 1.270 . S
O23 Zn15 1.943 . S
O23 C22 1.249 . S
O24 Zn14 2.067 . S
O24 C22 1.270 . S
C25 O18 1.262 . S
C25 O26 1.232 . S
O26 C25 1.232 . S
C27 O19 1.260 . S
C27 O20 1.257 . S
Zn28 O31 2.031 . S
Zn28 O33 2.049 . S
Zn28 O38 2.067 . S
Zn29 O30 1.962 . S
Zn29 O32 1.986 . S
Zn29 O34 1.996 . S
Zn29 O37 1.943 . S
O30 Zn29 1.962 . S
O30 C35 1.254 . S
O31 Zn28 2.031 . S
O31 C35 1.269 . S
O32 Zn29 1.986 . S
O32 C39 1.262 . S
O33 Zn28 2.049 . S
O33 C41 1.260 . S
O34 Zn29 1.996 . S
O34 C41 1.257 . S
C35 O30 1.254 . S
C35 O31 1.269 . S
C36 O37 1.249 . S
C36 O38 1.270 . S
O37 Zn29 1.943 . S
O37 C36 1.249 . S
O38 Zn28 2.067 . S
O38 C36 1.270 . S
C39 O32 1.262 . S
C39 O40 1.232 . S
O40 C39 1.232 . S
C41 O33 1.260 . S
C41 O34 1.257 . S
Zn42 O45 2.031 . S
Zn42 O47 2.049 . S
Zn42 O52 2.067 . S
Zn43 O44 1.962 . S
Zn43 O46 1.986 . S
Zn43 O48 1.996 . S
Zn43 O51 1.943 . S
O44 Zn43 1.962 . S
O44 C49 1.254 . S
O45 Zn42 2.031 . S
O45 C49 1.269 . S
O46 Zn43 1.986 . S
O46 C53 1.262 . S
O47 Zn42 2.049 . S
O47 C55 1.260 . S
O48 Zn43 1.996 . S
O48 C55 1.257 . S
C49 O44 1.254 . S
C49 O45 1.269 . S
C50 O51 1.249 . S
C50 O52 1.270 . S
O51 Zn43 1.943 . S
O51 C50 1.249 . S
O52 Zn42 2.067 . S
O52 C50 1.270 . S
C53 O46 1.262 . S
C53 O54 1.232 . S
O54 C53 1.232 . S
C55 O47 1.260 . S
C55 O48 1.257 . S
Zn56 O59 2.031 . S
Zn56 O61 2.049 . S
Zn56 O66 2.067 . S
Zn57 O58 1.962 . S
Zn57 O60 1.986 . S
Zn57 O62 1.996 . S
Zn57 O65 1.943 . S
O58 Zn57 1.962 . S
O58 C63 1.254 . S
O59 Zn56 2.031 . S
O59 C63 1.269 . S
O60 Zn57 1.986 . S
O60 C67 1.262 . S
O61 Zn56 2.049 . S
O61 C69 1.260 . S
O62 Zn57 1.996 . S
O62 C69 1.257 . S
C63 O58 1.254 . S
C63 O59 1.269 . S
C64 O65 1.249 . S
C64 O66 1.270 . S
O65 Zn57 1.943 . S
O65 C64 1.249 . S
O66 Zn56 2.067 . S
O66 C64 1.270 . S
C67 O60 1.262 . S
C67 O68 1.232 . S
O68 C67 1.232 . S
C69 O61 1.260 . S
C69 O62 1.257 . S
Zn70 O73 2.031 . S
Zn70 O75 2.049 . S
Zn70 O80 2.067 . S
Zn71 O72 1.962 . S
Zn71 O74 1.986 . S
Zn71 O76 1.996 . S
Zn71 O79 1.943 . S
O72 Zn71 1.962 . S
O72 C77 1.254 . S
O73 Zn70 2.031 . S
O73 C77 1.269 . S
O74 Zn71 1.986 . S
O74 C81 1.262 . S
O75 Zn70 2.049 . S
O75 C83 1.260 . S
O76 Zn71 1.996 . S
O76 C83 1.257 . S
C77 O72 1.254 . S
C77 O73 1.269 . S
C78 O79 1.249 . S
C78 O80 1.270 . S
O79 Zn71 1.943 . S
O79 C78 1.249 . S
O80 Zn70 2.067 . S
O80 C78 1.270 . S
C81 O74 1.262 . S
C81 O82 1.232 . S
O82 C81 1.232 . S
C83 O75 1.260 . S
C83 O76 1.257 . S
Zn84 O87 2.031 . S
Zn84 O89 2.049 . S
Zn84 O94 2.067 . S
Zn85 O86 1.962 . S
Zn85 O88 1.986 . S
Zn85 O90 1.996 . S
Zn85 O93 1.943 . S
O86 Zn85 1.962 . S
O86 C91 1.254 . S
O87 Zn84 2.031 . S
O87 C91 1.269 . S
O88 Zn85 1.986 . S
O88 C95 1.262 . S
O89 Zn84 2.049 . S
O89 C97 1.260 . S
O90 Zn85 1.996 . S
O90 C97 1.257 . S
C91 O86 1.254 . S
C91 O87 1.269 . S
C92 O93 1.249 . S
C92 O94 1.270 . S
O93 Zn85 1.943 . S
O93 C92 1.249 . S
O94 Zn84 2.067 . S
O94 C92 1.270 . S
C95 O88 1.262 . S
C95 O96 1.232 . S
O96 C95 1.232 . S
C97 O89 1.260 . S
C97 O90 1.257 . S
Zn98 O101 2.031 . S
Zn98 O103 2.049 . S
Zn98 O108 2.067 . S
Zn99 O100 1.962 . S
Zn99 O102 1.986 . S
Zn99 O104 1.996 . S
Zn99 O107 1.943 . S
O100 Zn99 1.962 . S
O100 C105 1.254 . S
O101 Zn98 2.031 . S
O101 C105 1.269 . S
O102 Zn99 1.986 . S
O102 C109 1.262 . S
O103 Zn98 2.049 . S
O103 C111 1.260 . S
O104 Zn99 1.996 . S
O104 C111 1.257 . S
C105 O100 1.254 . S
C105 O101 1.269 . S
C106 O107 1.249 . S
C106 O108 1.270 . S
O107 Zn99 1.943 . S
O107 C106 1.249 . S
O108 Zn98 2.067 . S
O108 C106 1.270 . S
C109 O102 1.262 . S
C109 O110 1.232 . S
O110 C109 1.232 . S
C111 O103 1.260 . S
C111 O104 1.257 . S
Zn112 O115 2.031 . S
Zn112 O117 2.049 . S
Zn112 O122 2.067 . S
Zn113 O114 1.962 . S
Zn113 O116 1.986 . S
Zn113 O118 1.996 . S
Zn113 O121 1.943 . S
O114 Zn113 1.962 . S
O114 C119 1.254 . S
O115 Zn112 2.031 . S
O115 C119 1.269 . S
O116 Zn113 1.986 . S
O116 C123 1.262 . S
O117 Zn112 2.049 . S
O117 C125 1.260 . S
O118 Zn113 1.996 . S
O118 C125 1.257 . S
C119 O114 1.254 . S
C119 O115 1.269 . S
C120 O121 1.249 . S
C120 O122 1.270 . S
O121 Zn113 1.943 . S
O121 C120 1.249 . S
O122 Zn112 2.067 . S
O122 C120 1.270 . S
C123 O116 1.262 . S
C123 O124 1.232 . S
O124 C123 1.232 . S
C125 O117 1.260 . S
C125 O118 1.257 . S
Zn126 O129 2.031 . S
Zn126 O131 2.049 . S
Zn126 O136 2.067 . S
Zn127 O128 1.962 . S
Zn127 O130 1.986 . S
Zn127 O132 1.996 . S
Zn127 O135 1.943 . S
O128 Zn127 1.962 . S
O128 C133 1.254 . S
O129 Zn126 2.031 . S
O129 C133 1.269 . S
O130 Zn127 1.986 . S
O130 C137 1.262 . S
O131 Zn126 2.049 . S
O131 C139 1.260 . S
O132 Zn127 1.996 . S
O132 C139 1.257 . S
C133 O128 1.254 . S
C133 O129 1.269 . S
C134 O135 1.249 . S
C134 O136 1.270 . S
O135 Zn127 1.943 . S
O135 C134 1.249 . S
O136 Zn126 2.067 . S
O136 C134 1.270 . S
C137 O130 1.262 . S
C137 O138 1.232 . S
O138 C137 1.232 . S
C139 O131 1.260 . S
C139 O132 1.257 . S
Zn140 O143 2.031 . S
Zn140 O145 2.049 . S
Zn140 O150 2.067 . S
Zn141 O142 1.962 . S
Zn141 O144 1.986 . S
Zn141 O146 1.996 . S
Zn141 O149 1.943 . S
O142 Zn141 1.962 . S
O142 C147 1.254 . S
O143 Zn140 2.031 . S
O143 C147 1.269 . S
O144 Zn141 1.986 . S
O144 C151 1.262 . S
O145 Zn140 2.049 . S
O145 C153 1.260 . S
O146 Zn141 1.996 . S
O146 C153 1.257 . S
C147 O142 1.254 . S
C147 O143 1.269 . S
C148 O149 1.249 . S
C148 O150 1.270 . S
O149 Zn141 1.943 . S
O149 C148 1.249 . S
O150 Zn140 2.067 . S
O150 C148 1.270 . S
C151 O144 1.262 . S
C151 O152 1.232 . S
O152 C151 1.232 . S
C153 O145 1.260 . S
C153 O146 1.257 . S
Zn154 O157 2.031 . S
Zn154 O159 2.049 . S
Zn154 O164 2.067 . S
Zn155 O156 1.962 . S
Zn155 O158 1.986 . S
Zn155 O160 1.996 . S
Zn155 O163 1.943 . S
O156 Zn155 1.962 . S
O156 C161 1.254 . S
O157 Zn154 2.031 . S
O157 C161 1.269 . S
O158 Zn155 1.986 . S
O158 C165 1.262 . S
O159 Zn154 2.049 . S
O159 C167 1.260 . S
O160 Zn155 1.996 . S
O160 C167 1.257 . S
C161 O156 1.254 . S
C161 O157 1.269 . S
C162 O163 1.249 . S
C162 O164 1.270 . S
O163 Zn155 1.943 . S
O163 C162 1.249 . S
O164 Zn154 2.067 . S
O164 C162 1.270 . S
C165 O158 1.262 . S
C165 O166 1.232 . S
O166 C165 1.232 . S
C167 O159 1.260 . S
C167 O160 1.257 . S
Zn168 O171 2.031 . S
Zn168 O173 2.049 . S
Zn168 O178 2.067 . S
Zn169 O170 1.962 . S
Zn169 O172 1.986 . S
Zn169 O174 1.996 . S
Zn169 O177 1.943 . S
O170 Zn169 1.962 . S
O170 C175 1.254 . S
O171 Zn168 2.031 . S
O171 C175 1.269 . S
O172 Zn169 1.986 . S
O172 C179 1.262 . S
O173 Zn168 2.049 . S
O173 C181 1.260 . S
O174 Zn169 1.996 . S
O174 C181 1.257 . S
C175 O170 1.254 . S
C175 O171 1.269 . S
C176 O177 1.249 . S
C176 O178 1.270 . S
O177 Zn169 1.943 . S
O177 C176 1.249 . S
O178 Zn168 2.067 . S
O178 C176 1.270 . S
C179 O172 1.262 . S
C179 O180 1.232 . S
O180 C179 1.232 . S
C181 O173 1.260 . S
C181 O174 1.257 . S
Zn182 O185 2.031 . S
Zn182 O187 2.049 . S
Zn182 O192 2.067 . S
Zn183 O184 1.962 . S
Zn183 O186 1.986 . S
Zn183 O188 1.996 . S
Zn183 O191 1.943 . S
O184 Zn183 1.962 . S
O184 C189 1.254 . S
O185 Zn182 2.031 . S
O185 C189 1.269 . S
O186 Zn183 1.986 . S
O186 C193 1.262 . S
O187 Zn182 2.049 . S
O187 C195 1.260 . S
O188 Zn183 1.996 . S
O188 C195 1.257 . S
C189 O184 1.254 . S
C189 O185 1.269 . S
C190 O191 1.249 . S
C190 O192 1.270 . S
O191 Zn183 1.943 . S
O191 C190 1.249 . S
O192 Zn182 2.067 . S
O192 C190 1.270 . S
C193 O186 1.262 . S
C193 O194 1.232 . S
O194 C193 1.232 . S
C195 O187 1.260 . S
C195 O188 1.257 . S
Zn196 O199 2.031 . S
Zn196 O201 2.049 . S
Zn196 O206 2.067 . S
Zn197 O198 1.962 . S
Zn197 O200 1.986 . S
Zn197 O202 1.996 . S
Zn197 O205 1.943 . S
O198 Zn197 1.962 . S
O198 C203 1.254 . S
O199 Zn196 2.031 . S
O199 C203 1.269 . S
O200 Zn197 1.986 . S
O200 C207 1.262 . S
O201 Zn196 2.049 . S
O201 C209 1.260 . S
O202 Zn197 1.996 . S
O202 C209 1.257 . S
C203 O198 1.254 . S
C203 O199 1.269 . S
C204 O205 1.249 . S
C204 O206 1.270 . S
O205 Zn197 1.943 . S
O205 C204 1.249 . S
O206 Zn196 2.067 . S
O206 C204 1.270 . S
C207 O200 1.262 . S
C207 O208 1.232 . S
O208 C207 1.232 . S
C209 O201 1.260 . S
C209 O202 1.257 . S
Zn210 O213 2.031 . S
Zn210 O215 2.049 . S
Zn210 O220 2.067 . S
Zn211 O212 1.962 . S
Zn211 O214 1.986 . S
Zn211 O216 1.996 . S
Zn211 O219 1.943 . S
O212 Zn211 1.962 . S
O212 C217 1.254 . S
O213 Zn210 2.031 . S
O213 C217 1.269 . S
O214 Zn211 1.986 . S
O214 C221 1.262 . S
O215 Zn210 2.049 . S
O215 C223 1.260 . S
O216 Zn211 1.996 . S
O216 C223 1.257 . S
C217 O212 1.254 . S
C217 O213 1.269 . S
C218 O219 1.249 . S
C218 O220 1.270 . S
O219 Zn211 1.943 . S
O219 C218 1.249 . S
O220 Zn210 2.067 . S
O220 C218 1.270 . S
C221 O214 1.262 . S
C221 O222 1.232 . S
O222 C221 1.232 . S
C223 O215 1.260 . S
C223 O216 1.257 . S
Zn224 O227 2.031 . S
Zn224 O229 2.049 . S
Zn224 O234 2.067 . S
Zn225 O226 1.962 . S
Zn225 O228 1.986 . S
Zn225 O230 1.996 . S
Zn225 O233 1.943 . S
O226 Zn225 1.962 . S
O226 C231 1.254 . S
O227 Zn224 2.031 . S
O227 C231 1.269 . S
O228 Zn225 1.986 . S
O228 C235 1.262 . S
O229 Zn224 2.049 . S
O229 C237 1.260 . S
O230 Zn225 1.996 . S
O230 C237 1.257 . S
C231 O226 1.254 . S
C231 O227 1.269 . S
C232 O233 1.249 . S
C232 O234 1.270 . S
O233 Zn225 1.943 . S
O233 C232 1.249 . S
O234 Zn224 2.067 . S
O234 C232 1.270 . S
C235 O228 1.262 . S
C235 O236 1.232 . S
O236 C235 1.232 . S
C237 O229 1.260 . S
C237 O230 1.257 . S
Zn238 O241 2.031 . S
Zn238 O243 2.049 . S
Zn238 O248 2.067 . S
Zn239 O240 1.962 . S
Zn239 O242 1.986 . S
Zn239 O244 1.996 . S
Zn239 O247 1.943 . S
O240 Zn239 1.962 . S
O240 C245 1.254 . S
O241 Zn238 2.031 . S
O241 C245 1.269 . S
O242 Zn239 1.986 . S
O242 C249 1.262 . S
O243 Zn238 2.049 . S
O243 C251 1.260 . S
O244 Zn239 1.996 . S
O244 C251 1.257 . S
C245 O240 1.254 . S
C245 O241 1.269 . S
C246 O247 1.249 . S
C246 O248 1.270 . S
O247 Zn239 1.943 . S
O247 C246 1.249 . S
O248 Zn238 2.067 . S
O248 C246 1.270 . S
C249 O242 1.262 . S
C249 O250 1.232 . S
O250 C249 1.232 . S
C251 O243 1.260 . S
C251 O244 1.257 . S
Zn252 O255 2.031 . S
Zn252 O257 2.049 . S
Zn252 O262 2.067 . S
Zn253 O254 1.962 . S
Zn253 O256 1.986 . S
Zn253 O258 1.996 . S
Zn253 O261 1.943 . S
O254 Zn253 1.962 . S
O254 C259 1.254 . S
O255 Zn252 2.031 . S
O255 C259 1.269 . S
O256 Zn253 1.986 . S
O256 C263 1.262 . S
O257 Zn252 2.049 . S
O257 C265 1.260 . S
O258 Zn253 1.996 . S
O258 C265 1.257 . S
C259 O254 1.254 . S
C259 O255 1.269 . S
C260 O261 1.249 . S
C260 O262 1.270 . S
O261 Zn253 1.943 . S
O261 C260 1.249 . S
O262 Zn252 2.067 . S
O262 C260 1.270 . S
C263 O256 1.262 . S
C263 O264 1.232 . S
O264 C263 1.232 . S
C265 O257 1.260 . S
C265 O258 1.257 . S
Zn266 O269 2.031 . S
Zn266 O271 2.049 . S
Zn266 O276 2.067 . S
Zn267 O268 1.962 . S
Zn267 O270 1.986 . S
Zn267 O272 1.996 . S
Zn267 O275 1.943 . S
O268 Zn267 1.962 . S
O268 C273 1.254 . S
O269 Zn266 2.031 . S
O269 C273 1.269 . S
O270 Zn267 1.986 . S
O270 C277 1.262 . S
O271 Zn266 2.049 . S
O271 C279 1.260 . S
O272 Zn267 1.996 . S
O272 C279 1.257 . S
C273 O268 1.254 . S
C273 O269 1.269 . S
C274 O275 1.249 . S
C274 O276 1.270 . S
O275 Zn267 1.943 . S
O275 C274 1.249 . S
O276 Zn266 2.067 . S
O276 C274 1.270 . S
C277 O270 1.262 . S
C277 O278 1.232 . S
O278 C277 1.232 . S
C279 O271 1.260 . S
C279 O272 1.257 . S
Zn280 O283 2.031 . S
Zn280 O285 2.049 . S
Zn280 O290 2.067 . S
Zn281 O282 1.962 . S
Zn281 O284 1.986 . S
Zn281 O286 1.996 . S
Zn281 O289 1.943 . S
O282 Zn281 1.962 . S
O282 C287 1.254 . S
O283 Zn280 2.031 . S
O283 C287 1.269 . S
O284 Zn281 1.986 . S
O284 C291 1.262 . S
O285 Zn280 2.049 . S
O285 C293 1.260 . S
O286 Zn281 1.996 . S
O286 C293 1.257 . S
C287 O282 1.254 . S
C287 O283 1.269 . S
C288 O289 1.249 . S
C288 O290 1.270 . S
O289 Zn281 1.943 . S
O289 C288 1.249 . S
O290 Zn280 2.067 . S
O290 C288 1.270 . S
C291 O284 1.262 . S
C291 O292 1.232 . S
O292 C291 1.232 . S
C293 O285 1.260 . S
C293 O286 1.257 . S
Zn294 O297 2.031 . S
Zn294 O299 2.049 . S
Zn294 O304 2.067 . S
Zn295 O296 1.962 . S
Zn295 O298 1.986 . S
Zn295 O300 1.996 . S
Zn295 O303 1.943 . S
O296 Zn295 1.962 . S
O296 C301 1.254 . S
O297 Zn294 2.031 . S
O297 C301 1.269 . S
O298 Zn295 1.986 . S
O298 C305 1.262 . S
O299 Zn294 2.049 . S
O299 C307 1.260 . S
O300 Zn295 1.996 . S
O300 C307 1.257 . S
C301 O296 1.254 . S
C301 O297 1.269 . S
C302 O303 1.249 . S
C302 O304 1.270 . S
O303 Zn295 1.943 . S
O303 C302 1.249 . S
O304 Zn294 2.067 . S
O304 C302 1.270 . S
C305 O298 1.262 . S
C305 O306 1.232 . S
O306 C305 1.232 . S
C307 O299 1.260 . S
C307 O300 1.257 . S
Zn308 O311 2.031 . S
Zn308 O313 2.049 . S
Zn308 O318 2.067 . S
Zn309 O310 1.962 . S
Zn309 O312 1.986 . S
Zn309 O314 1.996 . S
Zn309 O317 1.943 . S
O310 Zn309 1.962 . S
O310 C315 1.254 . S
O311 Zn308 2.031 . S
O311 C315 1.269 . S
O312 Zn309 1.986 . S
O312 C319 1.262 . S
O313 Zn308 2.049 . S
O313 C321 1.260 . S
O314 Zn309 1.996 . S
O314 C321 1.257 . S
C315 O310 1.254 . S
C315 O311 1.269 . S
C316 O317 1.249 . S
C316 O318 1.270 . S
O317 Zn309 1.943 . S
O317 C316 1.249 . S
O318 Zn308 2.067 . S
O318 C316 1.270 . S
C319 O312 1.262 . S
C319 O320 1.232 . S
O320 C319 1.232 . S
C321 O313 1.260 . S
C321 O314 1.257 . S
Zn322 O325 2.031 . S
Zn322 O327 2.049 . S
Zn322 O332 2.067 . S
Zn323 O324 1.962 . S
Zn323 O326 1.986 . S
Zn323 O328 1.996 . S
Zn323 O331 1.943 . S
O324 Zn323 1.962 . S
O324 C329 1.254 . S
O325 Zn322 2.031 . S
O325 C329 1.269 . S
O326 Zn323 1.986 . S
O326 C333 1.262 . S
O327 Zn322 2.049 . S
O327 C335 1.260 . S
O328 Zn323 1.996 . S
O328 C335 1.257 . S
C329 O324 1.254 . S
C329 O325 1.269 . S
C330 O331 1.249 . S
C330 O332 1.270 . S
O331 Zn323 1.943 . S
O331 C330 1.249 . S
O332 Zn322 2.067 . S
O332 C330 1.270 . S
C333 O326 1.262 . S
C333 O334 1.232 . S
O334 C333 1.232 . S
C335 O327 1.260 . S
C335 O328 1.257 . S
Zn336 O339 2.031 . S
Zn336 O341 2.049 . S
Zn336 O346 2.067 . S
Zn337 O338 1.962 . S
Zn337 O340 1.986 . S
Zn337 O342 1.996 . S
Zn337 O345 1.943 . S
O338 Zn337 1.962 . S
O338 C343 1.254 . S
O339 Zn336 2.031 . S
O339 C343 1.269 . S
O340 Zn337 1.986 . S
O340 C347 1.262 . S
O341 Zn336 2.049 . S
O341 C349 1.260 . S
O342 Zn337 1.996 . S
O342 C349 1.257 . S
C343 O338 1.254 . S
C343 O339 1.269 . S
C344 O345 1.249 . S
C344 O346 1.270 . S
O345 Zn337 1.943 . S
O345 C344 1.249 . S
O346 Zn336 2.067 . S
O346 C344 1.270 . S
C347 O340 1.262 . S
C347 O348 1.232 . S
O348 C347 1.232 . S
C349 O341 1.260 . S
C349 O342 1.257 . S
Zn350 O353 2.031 . S
Zn350 O355 2.049 . S
Zn350 O360 2.067 . S
Zn351 O352 1.962 . S
Zn351 O354 1.986 . S
Zn351 O356 1.996 . S
Zn351 O359 1.943 . S
O352 Zn351 1.962 . S
O352 C357 1.254 . S
O353 Zn350 2.031 . S
O353 C357 1.269 . S
O354 Zn351 1.986 . S
O354 C361 1.262 . S
O355 Zn350 2.049 . S
O355 C363 1.260 . S
O356 Zn351 1.996 . S
O356 C363 1.257 . S
C357 O352 1.254 . S
C357 O353 1.269 . S
C358 O359 1.249 . S
C358 O360 1.270 . S
O359 Zn351 1.943 . S
O359 C358 1.249 . S
O360 Zn350 2.067 . S
O360 C358 1.270 . S
C361 O354 1.262 . S
C361 O362 1.232 . S
O362 C361 1.232 . S
C363 O355 1.260 . S
C363 O356 1.257 . S
Zn364 O367 2.031 . S
Zn364 O369 2.049 . S
Zn364 O374 2.067 . S
Zn365 O366 1.962 . S
Zn365 O368 1.986 . S
Zn365 O370 1.996 . S
Zn365 O373 1.943 . S
O366 Zn365 1.962 . S
O366 C371 1.254 . S
O367 Zn364 2.031 . S
O367 C371 1.269 . S
O368 Zn365 1.986 . S
O368 C375 1.262 . S
O369 Zn364 2.049 . S
O369 C377 1.260 . S
O370 Zn365 1.996 . S
O370 C377 1.257 . S
C371 O366 1.254 . S
C371 O367 1.269 . S
C372 O373 1.249 . S
C372 O374 1.270 . S
O373 Zn365 1.943 . S
O373 C372 1.249 . S
O374 Zn364 2.067 . S
O374 C372 1.270 . S
C375 O368 1.262 . S
C375 O376 1.232 . S
O376 C375 1.232 . S
C377 O369 1.260 . S
C377 O370 1.257 . S
Zn378 O381 2.031 . S
Zn378 O383 2.049 . S
Zn378 O388 2.067 . S
Zn379 O380 1.962 . S
Zn379 O382 1.986 . S
Zn379 O384 1.996 . S
Zn379 O387 1.943 . S
O380 Zn379 1.962 . S
O380 C385 1.254 . S
O381 Zn378 2.031 . S
O381 C385 1.269 . S
O382 Zn379 1.986 . S
O382 C389 1.262 . S
O383 Zn378 2.049 . S
O383 C391 1.260 . S
O384 Zn379 1.996 . S
O384 C391 1.257 . S
C385 O380 1.254 . S
C385 O381 1.269 . S
C386 O387 1.249 . S
C386 O388 1.270 . S
O387 Zn379 1.943 . S
O387 C386 1.249 . S
O388 Zn378 2.067 . S
O388 C386 1.270 . S
C389 O382 1.262 . S
C389 O390 1.232 . S
O390 C389 1.232 . S
C391 O383 1.260 . S
C391 O384 1.257 . S
Zn392 O395 2.031 . S
Zn392 O397 2.049 . S
Zn392 O402 2.067 . S
Zn393 O394 1.962 . S
Zn393 O396 1.986 . S
Zn393 O398 1.996 . S
Zn393 O401 1.943 . S
O394 Zn393 1.962 . S
O394 C399 1.254 . S
O395 Zn392 2.031 . S
O395 C399 1.269 . S
O396 Zn393 1.986 . S
O396 C403 1.262 . S
O397 Zn392 2.049 . S
O397 C405 1.260 . S
O398 Zn393 1.996 . S
O398 C405 1.257 . S
C399 O394 1.254 . S
C399 O395 1.269 . S
C400 O401 1.249 . S
C400 O402 1.270 . S
O401 Zn393 1.943 . S
O401 C400 1.249 . S
O402 Zn392 2.067 . S
O402 C400 1.270 . S
C403 O396 1.262 . S
C403 O404 1.232 . S
O404 C403 1.232 . S
C405 O397 1.260 . S
C405 O398 1.257 . S
Zn406 O409 2.031 . S
Zn406 O411 2.049 . S
Zn406 O416 2.067 . S
Zn407 O408 1.962 . S
Zn407 O410 1.986 . S
Zn407 O412 1.996 . S
Zn407 O415 1.943 . S
O408 Zn407 1.962 . S
O408 C413 1.254 . S
O409 Zn406 2.031 . S
O409 C413 1.269 . S
O410 Zn407 1.986 . S
O410 C417 1.262 . S
O411 Zn406 2.049 . S
O411 C419 1.260 . S
O412 Zn407 1.996 . S
O412 C419 1.257 . S
C413 O408 1.254 . S
C413 O409 1.269 . S
C414 O415 1.249 . S
C414 O416 1.270 . S
O415 Zn407 1.943 . S
O415 C414 1.249 . S
O416 Zn406 2.067 . S
O416 C414 1.270 . S
C417 O410 1.262 . S
C417 O418 1.232 . S
O418 C417 1.232 . S
C419 O411 1.260 . S
C419 O412 1.257 . S
Zn420 O423 2.031 . S
Zn420 O425 2.049 . S
Zn420 O430 2.067 . S
Zn421 O422 1.962 . S
Zn421 O424 1.986 . S
Zn421 O426 1.996 . S
Zn421 O429 1.943 . S
O422 Zn421 1.962 . S
O422 C427 1.254 . S
O423 Zn420 2.031 . S
O423 C427 1.269 . S
O424 Zn421 1.986 . S
O424 C431 1.262 . S
O425 Zn420 2.049 . S
O425 C433 1.260 . S
O426 Zn421 1.996 . S
O426 C433 1.257 . S
C427 O422 1.254 . S
C427 O423 1.269 . S
C428 O429 1.249 . S
C428 O430 1.270 . S
O429 Zn421 1.943 . S
O429 C428 1.249 . S
O430 Zn420 2.067 . S
O430 C428 1.270 . S
C431 O424 1.262 . S
C431 O432 1.232 . S
O432 C431 1.232 . S
C433 O425 1.260 . S
C433 O426 1.257 . S
Zn434 O437 2.031 . S
Zn434 O439 2.049 . S
Zn434 O444 2.067 . S
Zn435 O436 1.962 . S
Zn435 O438 1.986 . S
Zn435 O440 1.996 . S
Zn435 O443 1.943 . S
O436 Zn435 1.962 . S
O436 C441 1.254 . S
O437 Zn434 2.031 . S
O437 C441 1.269 . S
O438 Zn435 1.986 . S
O438 C445 1.262 . S
O439 Zn434 2.049 . S
O439 C447 1.260 . S
O440 Zn435 1.996 . S
O440 C447 1.257 . S
C441 O436 1.254 . S
C441 O437 1.269 . S
C442 O443 1.249 . S
C442 O444 1.270 . S
O443 Zn435 1.943 . S
O443 C442 1.249 . S
O444 Zn434 2.067 . S
O444 C442 1.270 . S
C445 O438 1.262 . S
C445 O446 1.232 . S
O446 C445 1.232 . S
C447 O439 1.260 . S
C447 O440 1.257 . S
Zn448 O451 2.031 . S
Zn448 O453 2.049 . S
Zn448 O458 2.067 . S
Zn449 O450 1.962 . S
Zn449 O452 1.986 . S
Zn449 O454 1.996 . S
Zn449 O457 1.943 . S
O450 Zn449 1.962 . S
O450 C455 1.254 . S
O451 Zn448 2.031 . S
O451 C455 1.269 . S
O452 Zn449 1.986 . S
O452 C459 1.262 . S
O453 Zn448 2.049 . S
O453 C461 1.260 . S
O454 Zn449 1.996 . S
O454 C461 1.257 . S
C455 O450 1.254 . S
C455 O451 1.269 . S
C456 O457 1.249 . S
C456 O458 1.270 . S
O457 Zn449 1.943 . S
O457 C456 1.249 . S
O458 Zn448 2.067 . S
O458 C456 1.270 . S
C459 O452 1.262 . S
C459 O460 1.232 . S
O460 C459 1.232 . S
C461 O453 1.260 . S
C461 O454 1.257 . S
Zn462 O465 2.031 . S
Zn462 O467 2.049 . S
Zn462 O472 2.067 . S
Zn463 O464 1.962 . S
Zn463 O466 1.986 . S
Zn463 O468 1.996 . S
Zn463 O471 1.943 . S
O464 Zn463 1.962 . S
O464 C469 1.254 . S
O465 Zn462 2.031 . S
O465 C469 1.269 . S
O466 Zn463 1.986 . S
O466 C473 1.262 . S
O467 Zn462 2.049 . S
O467 C475 1.260 . S
O468 Zn463 1.996 . S
O468 C475 1.257 . S
C469 O464 1.254 . S
C469 O465 1.269 . S
C470 O471 1.249 . S
C470 O472 1.270 . S
O471 Zn463 1.943 . S
O471 C470 1.249 . S
O472 Zn462 2.067 . S
O472 C470 1.270 . S
C473 O466 1.262 . S
C473 O474 1.232 . S
O474 C473 1.232 . S
C475 O467 1.260 . S
C475 O468 1.257 . S
Zn476 O479 2.031 . S
Zn476 O481 2.049 . S
Zn476 O486 2.067 . S
Zn477 O478 1.962 . S
Zn477 O480 1.986 . S
Zn477 O482 1.996 . S
Zn477 O485 1.943 . S
O478 Zn477 1.962 . S
O478 C483 1.254 . S
O479 Zn476 2.031 . S
O479 C483 1.269 . S
O480 Zn477 1.986 . S
O480 C487 1.262 . S
O481 Zn476 2.049 . S
O481 C489 1.260 . S
O482 Zn477 1.996 . S
O482 C489 1.257 . S
C483 O478 1.254 . S
C483 O479 1.269 . S
C484 O485 1.249 . S
C484 O486 1.270 . S
O485 Zn477 1.943 . S
O485 C484 1.249 . S
O486 Zn476 2.067 . S
O486 C484 1.270 . S
C487 O480 1.262 . S
C487 O488 1.232 . S
O488 C487 1.232 . S
C489 O481 1.260 . S
C489 O482 1.257 . S
Zn490 O493 2.031 . S
Zn490 O495 2.049 . S
Zn490 O500 2.067 . S
Zn491 O492 1.962 . S
Zn491 O494 1.986 . S
Zn491 O496 1.996 . S
Zn491 O499 1.943 . S
O492 Zn491 1.962 . S
O492 C497 1.254 . S
O493 Zn490 2.031 . S
O493 C497 1.269 . S
O494 Zn491 1.986 . S
O494 C501 1.262 . S
O495 Zn490 2.049 . S
O495 C503 1.260 . S
O496 Zn491 1.996 . S
O496 C503 1.257 . S
C497 O492 1.254 . S
C497 O493 1.269 . S
C498 O499 1.249 . S
C498 O500 1.270 . S
O499 Zn491 1.943 . S
O499 C498 1.249 . S
O500 Zn490 2.067 . S
O500 C498 1.270 . S
C501 O494 1.262 . S
C501 O502 1.232 . S
O502 C501 1.232 . S
C503 O495 1.260 . S
C503 O496 1.257 . S
H504 C512 0.929 . S
H505 C514 0.930 . S
H506 C516 0.930 . S
H507 C519 0.929 . S
H508 C522 0.930 . S
H509 C524 0.960 . S
H510 C524 0.960 . S
H511 C524 0.960 . S
C512 H504 0.929 . S
C512 C513 1.377 . S
C512 C514 1.384 . S
C513 C512 1.377 . S
C513 C519 1.390 . S
C514 H505 0.930 . S
C514 C512 1.384 . S
C514 C515 1.372 . S
C515 C514 1.372 . S
C515 C516 1.400 . S
C515 C520 1.490 . S
C516 H506 0.930 . S
C516 C515 1.400 . S
C516 C519 1.386 . S
H517 C533 0.930 . S
H518 C534 0.931 . S
C519 H507 0.929 . S
C519 C513 1.390 . S
C519 C516 1.386 . S
C520 C515 1.490 . S
C520 C522 1.395 . S
C520 C523 1.403 . S
H521 C527 0.930 . S
C522 H508 0.930 . S
C522 C520 1.395 . S
C522 C525 1.403 1_565 S
C523 C520 1.403 . S
C523 C524 1.524 . S
C523 C527 1.400 1_565 S
C524 H509 0.960 . S
C524 H510 0.960 . S
C524 H511 0.960 . S
C524 C523 1.524 . S
C525 C522 1.403 1_545 S
C525 C526 1.392 . S
C525 C529 1.495 . S
C526 C525 1.392 . S
C526 C527 1.385 . S
C526 C528 1.478 . S
C527 H521 0.930 . S
C527 C523 1.400 1_545 S
C527 C526 1.385 . S
C528 C526 1.478 . S
C528 C530 1.381 . S
C528 C534 1.383 . S
C529 C525 1.495 . S
C529 H535 0.968 . S
C529 H536 0.961 . S
C529 H537 0.960 . S
C530 C528 1.381 . S
C530 C531 1.394 . S
C530 H538 0.930 . S
C531 C530 1.394 . S
C531 C532 1.383 . S
C531 H539 0.929 . S
C532 C531 1.383 . S
C532 C533 1.377 . S
C533 H517 0.930 . S
C533 C532 1.377 . S
C533 C534 1.379 . S
C534 H518 0.931 . S
C534 C528 1.383 . S
C534 C533 1.379 . S
H535 C529 0.968 . S
H536 C529 0.961 . S
H537 C529 0.960 . S
H538 C530 0.930 . S
H539 C531 0.929 . S
H540 C548 0.929 . S
H541 C550 0.930 . S
H542 C552 0.930 . S
H543 C555 0.929 . S
H544 C558 0.930 . S
H545 C560 0.960 . S
H546 C560 0.960 . S
H547 C560 0.960 . S
C548 H540 0.929 . S
C548 C549 1.377 . S
C548 C550 1.384 . S
C549 C548 1.377 . S
C549 C555 1.390 . S
C550 H541 0.930 . S
C550 C548 1.384 . S
C550 C551 1.372 . S
C551 C550 1.372 . S
C551 C552 1.400 . S
C551 C556 1.490 . S
C552 H542 0.930 . S
C552 C551 1.400 . S
C552 C555 1.386 . S
H553 C569 0.930 . S
H554 C570 0.931 . S
C555 H543 0.929 . S
C555 C549 1.390 . S
C555 C552 1.386 . S
C556 C551 1.490 . S
C556 C558 1.395 . S
C556 C559 1.403 1_455 S
H557 C563 0.930 . S
C558 H544 0.930 . S
C558 C556 1.395 . S
C558 C561 1.403 . S
C559 C556 1.403 1_655 S
C559 C560 1.524 . S
C559 C563 1.400 . S
C560 H545 0.960 . S
C560 H546 0.960 . S
C560 H547 0.960 . S
C560 C559 1.524 . S
C561 C558 1.403 . S
C561 C562 1.392 1_455 S
C561 C565 1.495 . S
C562 C561 1.392 1_655 S
C562 C563 1.385 . S
C562 C564 1.478 . S
C563 H557 0.930 . S
C563 C559 1.400 . S
C563 C562 1.385 . S
C564 C562 1.478 . S
C564 C566 1.381 . S
C564 C570 1.383 . S
C565 C561 1.495 . S
C565 H571 0.959 . S
C565 H572 0.961 . S
C565 H573 0.960 . S
C566 C564 1.381 . S
C566 C567 1.394 . S
C566 H574 0.930 . S
C567 C566 1.394 . S
C567 C568 1.383 . S
C567 H575 0.929 . S
C568 C567 1.383 . S
C568 C569 1.377 . S
C569 H553 0.930 . S
C569 C568 1.377 . S
C569 C570 1.379 . S
C570 H554 0.931 . S
C570 C564 1.383 . S
C570 C569 1.379 . S
H571 C565 0.959 . S
H572 C565 0.961 . S
H573 C565 0.960 . S
H574 C566 0.930 . S
H575 C567 0.929 . S
H576 C584 0.929 . S
H577 C586 0.930 . S
H578 C588 0.930 . S
H579 C591 0.929 . S
H580 C594 0.930 . S
H581 C596 0.960 . S
H582 C596 0.960 . S
H583 C596 0.960 . S
C584 H576 0.929 . S
C584 C585 1.377 . S
C584 C586 1.384 . S
C585 C584 1.377 . S
C585 C591 1.390 . S
C586 H577 0.930 . S
C586 C584 1.384 . S
C586 C587 1.372 . S
C587 C586 1.372 . S
C587 C588 1.400 . S
C587 C592 1.490 . S
C588 H578 0.930 . S
C588 C587 1.400 . S
C588 C591 1.386 . S
H589 C605 0.930 . S
H590 C606 0.931 . S
C591 H579 0.929 . S
C591 C585 1.390 . S
C591 C588 1.386 . S
C592 C587 1.490 . S
C592 C594 1.395 . S
C592 C595 1.403 . S
H593 C599 0.930 . S
C594 H580 0.930 . S
C594 C592 1.395 . S
C594 C597 1.403 . S
C595 C592 1.403 . S
C595 C596 1.524 . S
C595 C599 1.400 . S
C596 H581 0.960 . S
C596 H582 0.960 . S
C596 H583 0.960 . S
C596 C595 1.524 . S
C597 C594 1.403 . S
C597 C598 1.392 . S
C597 C601 1.495 . S
C598 C597 1.392 . S
C598 C599 1.385 . S
C598 C600 1.478 . S
C599 H593 0.930 . S
C599 C595 1.400 . S
C599 C598 1.385 . S
C600 C598 1.478 . S
C600 C602 1.381 . S
C600 C606 1.383 . S
C601 C597 1.495 . S
C601 H607 0.959 . S
C601 H608 0.961 . S
C601 H609 0.960 . S
C602 C600 1.381 . S
C602 C603 1.394 . S
C602 H610 0.930 . S
C603 C602 1.394 . S
C603 C604 1.383 . S
C603 H611 0.929 . S
C604 C603 1.383 . S
C604 C605 1.377 . S
C605 H589 0.930 . S
C605 C604 1.377 . S
C605 C606 1.379 . S
C606 H590 0.931 . S
C606 C600 1.383 . S
C606 C605 1.379 . S
H607 C601 0.959 . S
H608 C601 0.961 . S
H609 C601 0.960 . S
H610 C602 0.930 . S
H611 C603 0.929 . S
H612 C620 0.929 . S
H613 C622 0.930 . S
H614 C624 0.930 . S
H615 C627 0.929 . S
H616 C630 0.918 1_565 S
H617 C632 0.960 . S
H618 C632 0.960 . S
H619 C632 0.960 . S
C620 H612 0.929 . S
C620 C621 1.377 . S
C620 C622 1.384 . S
C621 C620 1.377 . S
C621 C627 1.390 . S
C622 H613 0.930 . S
C622 C620 1.384 . S
C622 C623 1.372 . S
C623 C622 1.372 . S
C623 C624 1.400 . S
C623 C628 1.490 . S
C624 H614 0.930 . S
C624 C623 1.400 . S
C624 C627 1.386 . S
H625 C641 0.930 . S
H626 C642 0.931 . S
C627 H615 0.929 . S
C627 C621 1.390 . S
C627 C624 1.386 . S
C628 C623 1.490 . S
C628 C630 1.393 1_565 S
C628 C631 1.403 . S
H629 C635 0.930 . S
C630 H616 0.918 1_545 S
C630 C628 1.393 1_545 S
C630 C633 1.417 . S
C631 C628 1.403 . S
C631 C632 1.524 . S
C631 C635 1.400 1_565 S
C632 H617 0.960 . S
C632 H618 0.960 . S
C632 H619 0.960 . S
C632 C631 1.524 . S
C633 C630 1.417 . S
C633 C634 1.392 . S
C633 C637 1.495 . S
C634 C633 1.392 . S
C634 C635 1.385 . S
C634 C636 1.478 . S
C635 H629 0.930 . S
C635 C631 1.400 1_545 S
C635 C634 1.385 . S
C636 C634 1.478 . S
C636 C638 1.381 . S
C636 C642 1.383 . S
C637 C633 1.495 . S
C637 H643 0.959 . S
C637 H644 0.961 . S
C637 H645 0.960 . S
C638 C636 1.381 . S
C638 C639 1.394 . S
C638 H646 0.930 . S
C639 C638 1.394 . S
C639 C640 1.383 . S
C639 H647 0.929 . S
C640 C639 1.383 . S
C640 C641 1.377 . S
C641 H625 0.930 . S
C641 C640 1.377 . S
C641 C642 1.379 . S
C642 H626 0.931 . S
C642 C636 1.383 . S
C642 C641 1.379 . S
H643 C637 0.959 . S
H644 C637 0.961 . S
H645 C637 0.960 . S
H646 C638 0.930 . S
H647 C639 0.929 . S
H648 C656 0.929 . S
H649 C658 0.930 . S
H650 C660 0.930 . S
H651 C663 0.929 . S
H652 C666 0.930 . S
H653 C668 0.960 . S
H654 C668 0.960 . S
H655 C668 0.960 . S
C656 H648 0.929 . S
C656 C657 1.377 . S
C656 C658 1.384 . S
C657 C656 1.377 . S
C657 C663 1.390 . S
C658 H649 0.930 . S
C658 C656 1.384 . S
C658 C659 1.372 . S
C659 C658 1.372 . S
C659 C660 1.400 . S
C659 C664 1.490 . S
C660 H650 0.930 . S
C660 C659 1.400 . S
C660 C663 1.386 . S
H661 C677 0.930 . S
H662 C678 0.931 . S
C663 H651 0.929 . S
C663 C657 1.390 . S
C663 C660 1.386 . S
C664 C659 1.490 . S
C664 C666 1.395 . S
C664 C667 1.403 1_455 S
H665 C671 0.930 . S
C666 H652 0.930 . S
C666 C664 1.395 . S
C666 C669 1.403 . S
C667 C664 1.403 1_655 S
C667 C668 1.524 . S
C667 C671 1.400 . S
C668 H653 0.960 . S
C668 H654 0.960 . S
C668 H655 0.960 . S
C668 C667 1.524 . S
C669 C666 1.403 . S
C669 C670 1.392 1_455 S
C669 C673 1.495 . S
C670 C669 1.392 1_655 S
C670 C671 1.385 . S
C670 C672 1.478 . S
C671 H665 0.930 . S
C671 C667 1.400 . S
C671 C670 1.385 . S
C672 C670 1.478 . S
C672 C674 1.381 . S
C672 C678 1.383 . S
C673 C669 1.495 . S
C673 H679 0.959 . S
C673 H680 0.961 . S
C673 H681 0.960 . S
C674 C672 1.381 . S
C674 C675 1.394 . S
C674 H682 0.930 . S
C675 C674 1.394 . S
C675 C676 1.383 . S
C675 H683 0.929 . S
C676 C675 1.383 . S
C676 C677 1.377 . S
C677 H661 0.930 . S
C677 C676 1.377 . S
C677 C678 1.379 . S
C678 H662 0.931 . S
C678 C672 1.383 . S
C678 C677 1.379 . S
H679 C673 0.959 . S
H680 C673 0.961 . S
H681 C673 0.960 . S
H682 C674 0.930 . S
H683 C675 0.929 . S
H684 C692 0.929 . S
H685 C694 0.930 . S
H686 C696 0.930 . S
H687 C699 0.929 . S
H688 C702 0.930 . S
H689 C704 0.960 . S
H690 C704 0.960 . S
H691 C704 0.960 . S
C692 H684 0.929 . S
C692 C693 1.377 . S
C692 C694 1.384 . S
C693 C692 1.377 . S
C693 C699 1.390 . S
C694 H685 0.930 . S
C694 C692 1.384 . S
C694 C695 1.372 . S
C695 C694 1.372 . S
C695 C696 1.400 . S
C695 C700 1.490 . S
C696 H686 0.930 . S
C696 C695 1.400 . S
C696 C699 1.386 . S
H697 C713 0.930 . S
H698 C714 0.931 . S
C699 H687 0.929 . S
C699 C693 1.390 . S
C699 C696 1.386 . S
C700 C695 1.490 . S
C700 C702 1.395 . S
C700 C703 1.403 . S
H701 C707 0.930 . S
C702 H688 0.930 . S
C702 C700 1.395 . S
C702 C705 1.403 . S
C703 C700 1.403 . S
C703 C704 1.524 . S
C703 C707 1.400 . S
C704 H689 0.960 . S
C704 H690 0.960 . S
C704 H691 0.960 . S
C704 C703 1.524 . S
C705 C702 1.403 . S
C705 C706 1.392 . S
C705 C709 1.495 . S
C706 C705 1.392 . S
C706 C707 1.385 . S
C706 C708 1.478 . S
C707 H701 0.930 . S
C707 C703 1.400 . S
C707 C706 1.385 . S
C708 C706 1.478 . S
C708 C710 1.381 . S
C708 C714 1.383 . S
C709 C705 1.495 . S
C709 H715 0.959 . S
C709 H716 0.961 . S
C709 H717 0.960 . S
C710 C708 1.381 . S
C710 C711 1.394 . S
C710 H718 0.930 . S
C711 C710 1.394 . S
C711 C712 1.383 . S
C711 H719 0.929 . S
C712 C711 1.383 . S
C712 C713 1.377 . S
C713 H697 0.930 . S
C713 C712 1.377 . S
C713 C714 1.379 . S
C714 H698 0.931 . S
C714 C708 1.383 . S
C714 C713 1.379 . S
H715 C709 0.959 . S
H716 C709 0.961 . S
H717 C709 0.960 . S
H718 C710 0.930 . S
H719 C711 0.929 . S
H720 C728 0.929 . S
H721 C730 0.930 . S
H722 C732 0.930 . S
H723 C735 0.929 . S
H724 C738 0.930 . S
H725 C740 0.960 . S
H726 C740 0.960 . S
H727 C740 0.960 . S
C728 H720 0.929 . S
C728 C729 1.377 . S
C728 C730 1.384 . S
C729 C728 1.377 . S
C729 C735 1.390 . S
C730 H721 0.930 . S
C730 C728 1.384 . S
C730 C731 1.372 . S
C731 C730 1.372 . S
C731 C732 1.400 . S
C731 C736 1.490 . S
C732 H722 0.930 . S
C732 C731 1.400 . S
C732 C735 1.386 . S
H733 C749 0.930 . S
H734 C750 0.931 . S
C735 H723 0.929 . S
C735 C729 1.390 . S
C735 C732 1.386 . S
C736 C731 1.490 . S
C736 C738 1.395 . S
C736 C739 1.403 . S
H737 C743 0.930 . S
C738 H724 0.930 . S
C738 C736 1.395 . S
C738 C741 1.403 . S
C739 C736 1.403 . S
C739 C740 1.524 . S
C739 C743 1.400 . S
C740 H725 0.960 . S
C740 H726 0.960 . S
C740 H727 0.960 . S
C740 C739 1.524 . S
C741 C738 1.403 . S
C741 C742 1.392 . S
C741 C745 1.495 . S
C742 C741 1.392 . S
C742 C743 1.385 . S
C742 C744 1.478 . S
C743 H737 0.930 . S
C743 C739 1.400 . S
C743 C742 1.385 . S
C744 C742 1.478 . S
C744 C746 1.381 . S
C744 C750 1.383 . S
C745 C741 1.495 . S
C745 H751 0.959 . S
C745 H752 0.961 . S
C745 H753 0.960 . S
C746 C744 1.381 . S
C746 C747 1.394 . S
C746 H754 0.930 . S
C747 C746 1.394 . S
C747 C748 1.383 . S
C747 H755 0.929 . S
C748 C747 1.383 . S
C748 C749 1.377 . S
C749 H733 0.930 . S
C749 C748 1.377 . S
C749 C750 1.379 . S
C750 H734 0.931 . S
C750 C744 1.383 . S
C750 C749 1.379 . S
H751 C745 0.959 . S
H752 C745 0.961 . S
H753 C745 0.960 . S
H754 C746 0.930 . S
H755 C747 0.929 . S
H756 C764 0.929 . S
H757 C766 0.930 . S
H758 C768 0.930 . S
H759 C771 0.929 . S
H760 C774 0.930 . S
H761 C776 0.960 . S
H762 C776 0.960 . S
H763 C776 0.960 . S
C764 H756 0.929 . S
C764 C765 1.377 . S
C764 C766 1.384 . S
C765 C764 1.377 . S
C765 C771 1.390 . S
C766 H757 0.930 . S
C766 C764 1.384 . S
C766 C767 1.372 . S
C767 C766 1.372 . S
C767 C768 1.400 . S
C767 C772 1.490 . S
C768 H758 0.930 . S
C768 C767 1.400 . S
C768 C771 1.386 . S
H769 C785 0.930 . S
H770 C786 0.931 . S
C771 H759 0.929 . S
C771 C765 1.390 . S
C771 C768 1.386 . S
C772 C767 1.490 . S
C772 C774 1.395 . S
C772 C775 1.403 . S
H773 C779 0.930 . S
C774 H760 0.930 . S
C774 C772 1.395 . S
C774 C777 1.403 . S
C775 C772 1.403 . S
C775 C776 1.524 . S
C775 C779 1.400 . S
C776 H761 0.960 . S
C776 H762 0.960 . S
C776 H763 0.960 . S
C776 C775 1.524 . S
C777 C774 1.403 . S
C777 C778 1.392 . S
C777 C781 1.495 . S
C778 C777 1.392 . S
C778 C779 1.385 . S
C778 C780 1.478 . S
C779 H773 0.930 . S
C779 C775 1.400 . S
C779 C778 1.385 . S
C780 C778 1.478 . S
C780 C782 1.381 . S
C780 C786 1.383 . S
C781 C777 1.495 . S
C781 H787 0.959 . S
C781 H788 0.961 . S
C781 H789 0.960 . S
C782 C780 1.381 . S
C782 C783 1.394 . S
C782 H790 0.930 . S
C783 C782 1.394 . S
C783 C784 1.383 . S
C783 H791 0.929 . S
C784 C783 1.383 . S
C784 C785 1.377 . S
C785 H769 0.930 . S
C785 C784 1.377 . S
C785 C786 1.379 . S
C786 H770 0.931 . S
C786 C780 1.383 . S
C786 C785 1.379 . S
H787 C781 0.959 . S
H788 C781 0.961 . S
H789 C781 0.960 . S
H790 C782 0.930 . S
H791 C783 0.929 . S
H792 C800 0.929 . S
H793 C802 0.930 . S
H794 C804 0.930 . S
H795 C807 0.929 . S
H796 C810 0.930 . S
H797 C812 0.960 . S
H798 C812 0.960 . S
H799 C812 0.960 . S
C800 H792 0.929 . S
C800 C801 1.377 . S
C800 C802 1.384 . S
C801 C800 1.377 . S
C801 C807 1.390 . S
C802 H793 0.930 . S
C802 C800 1.384 . S
C802 C803 1.372 . S
C803 C802 1.372 . S
C803 C804 1.400 . S
C803 C808 1.490 . S
C804 H794 0.930 . S
C804 C803 1.400 . S
C804 C807 1.386 . S
H805 C821 0.930 . S
H806 C822 0.931 . S
C807 H795 0.929 . S
C807 C801 1.390 . S
C807 C804 1.386 . S
C808 C803 1.490 . S
C808 C810 1.395 . S
C808 C811 1.403 . S
H809 C815 0.930 . S
C810 H796 0.930 . S
C810 C808 1.395 . S
C810 C813 1.403 . S
C811 C808 1.403 . S
C811 C812 1.524 . S
C811 C815 1.400 . S
C812 H797 0.960 . S
C812 H798 0.960 . S
C812 H799 0.960 . S
C812 C811 1.524 . S
C813 C810 1.403 . S
C813 C814 1.392 . S
C813 C817 1.495 . S
C814 C813 1.392 . S
C814 C815 1.385 . S
C814 C816 1.478 . S
C815 H809 0.930 . S
C815 C811 1.400 . S
C815 C814 1.385 . S
C816 C814 1.478 . S
C816 C818 1.381 . S
C816 C822 1.383 . S
C817 C813 1.495 . S
C817 H823 0.959 . S
C817 H824 0.961 . S
C817 H825 0.960 . S
C818 C816 1.381 . S
C818 C819 1.394 . S
C818 H826 0.930 . S
C819 C818 1.394 . S
C819 C820 1.383 . S
C819 H827 0.929 . S
C820 C819 1.383 . S
C820 C821 1.377 . S
C821 H805 0.930 . S
C821 C820 1.377 . S
C821 C822 1.379 . S
C822 H806 0.931 . S
C822 C816 1.383 . S
C822 C821 1.379 . S
H823 C817 0.959 . S
H824 C817 0.961 . S
H825 C817 0.960 . S
H826 C818 0.930 . S
H827 C819 0.929 . S
H828 C836 0.929 . S
H829 C838 0.930 . S
H830 C840 0.930 . S
H831 C843 0.929 . S
H832 C846 0.930 . S
H833 C848 0.960 . S
H834 C848 0.960 . S
H835 C848 0.960 . S
C836 H828 0.929 . S
C836 C837 1.377 . S
C836 C838 1.384 . S
C837 C836 1.377 . S
C837 C843 1.390 . S
C838 H829 0.930 . S
C838 C836 1.384 . S
C838 C839 1.372 . S
C839 C838 1.372 . S
C839 C840 1.400 . S
C839 C844 1.490 . S
C840 H830 0.930 . S
C840 C839 1.400 . S
C840 C843 1.386 . S
H841 C857 0.930 . S
H842 C858 0.931 . S
C843 H831 0.929 . S
C843 C837 1.390 . S
C843 C840 1.386 . S
C844 C839 1.490 . S
C844 C846 1.395 . S
C844 C847 1.403 . S
H845 C851 0.930 . S
C846 H832 0.930 . S
C846 C844 1.395 . S
C846 C849 1.403 . S
C847 C844 1.403 . S
C847 C848 1.524 . S
C847 C851 1.400 . S
C848 H833 0.960 . S
C848 H834 0.960 . S
C848 H835 0.960 . S
C848 C847 1.524 . S
C849 C846 1.403 . S
C849 C850 1.392 . S
C849 C853 1.495 . S
C850 C849 1.392 . S
C850 C851 1.385 . S
C850 C852 1.478 . S
C851 H845 0.930 . S
C851 C847 1.400 . S
C851 C850 1.385 . S
C852 C850 1.478 . S
C852 C854 1.381 . S
C852 C858 1.383 . S
C853 C849 1.495 . S
C853 H859 0.959 . S
C853 H860 0.961 . S
C853 H861 0.960 . S
C854 C852 1.381 . S
C854 C855 1.394 . S
C854 H862 0.930 . S
C855 C854 1.394 . S
C855 C856 1.383 . S
C855 H863 0.929 . S
C856 C855 1.383 . S
C856 C857 1.377 . S
C857 H841 0.930 . S
C857 C856 1.377 . S
C857 C858 1.379 . S
C858 H842 0.931 . S
C858 C852 1.383 . S
C858 C857 1.379 . S
H859 C853 0.959 . S
H860 C853 0.961 . S
H861 C853 0.960 . S
H862 C854 0.930 . S
H863 C855 0.929 . S
H864 C872 0.929 1_554 S
H865 C874 0.930 . S
H866 C876 0.930 . S
H867 C879 0.929 . S
H868 C882 0.930 . S
H869 C884 0.960 . S
H870 C884 0.960 . S
H871 C884 0.960 . S
C872 H864 0.929 1_556 S
C872 C873 1.377 . S
C872 C874 1.384 . S
C873 C872 1.377 . S
C873 C879 1.390 . S
C874 H865 0.930 . S
C874 C872 1.384 . S
C874 C875 1.372 . S
C875 C874 1.372 . S
C875 C876 1.400 . S
C875 C880 1.490 . S
C876 H866 0.930 . S
C876 C875 1.400 . S
C876 C879 1.386 . S
H877 C893 0.930 . S
H878 C894 0.931 . S
C879 H867 0.929 . S
C879 C873 1.390 . S
C879 C876 1.386 . S
C880 C875 1.490 . S
C880 C882 1.395 . S
C880 C883 1.403 . S
H881 C887 0.930 . S
C882 H868 0.930 . S
C882 C880 1.395 . S
C882 C885 1.403 . S
C883 C880 1.403 . S
C883 C884 1.524 . S
C883 C887 1.400 . S
C884 H869 0.960 . S
C884 H870 0.960 . S
C884 H871 0.960 . S
C884 C883 1.524 . S
C885 C882 1.403 . S
C885 C886 1.392 . S
C885 C889 1.495 . S
C886 C885 1.392 . S
C886 C887 1.385 . S
C886 C888 1.478 . S
C887 H881 0.930 . S
C887 C883 1.400 . S
C887 C886 1.385 . S
C888 C886 1.478 . S
C888 C890 1.381 . S
C888 C894 1.383 . S
C889 C885 1.495 . S
C889 H895 0.959 . S
C889 H896 0.961 . S
C889 H897 0.960 . S
C890 C888 1.381 . S
C890 C891 1.394 . S
C890 H898 0.930 . S
C891 C890 1.394 . S
C891 C892 1.383 . S
C891 H899 0.929 . S
C892 C891 1.383 . S
C892 C893 1.377 . S
C893 H877 0.930 . S
C893 C892 1.377 . S
C893 C894 1.379 . S
C894 H878 0.931 . S
C894 C888 1.383 . S
C894 C893 1.379 . S
H895 C889 0.959 . S
H896 C889 0.961 . S
H897 C889 0.960 . S
H898 C890 0.930 . S
H899 C891 0.929 . S
H900 C908 0.929 . S
H901 C910 0.930 . S
H902 C912 0.930 . S
H903 C915 0.929 . S
H904 C918 0.930 . S
H905 C920 0.960 . S
H906 C920 0.960 . S
H907 C920 0.960 . S
C908 H900 0.929 . S
C908 C909 1.377 . S
C908 C910 1.384 . S
C909 C908 1.377 . S
C909 C915 1.390 . S
C910 H901 0.930 . S
C910 C908 1.384 . S
C910 C911 1.372 . S
C911 C910 1.372 . S
C911 C912 1.400 . S
C911 C916 1.490 . S
C912 H902 0.930 . S
C912 C911 1.400 . S
C912 C915 1.386 . S
H913 C929 0.930 . S
H914 C930 0.931 . S
C915 H903 0.929 . S
C915 C909 1.390 . S
C915 C912 1.386 . S
C916 C911 1.490 . S
C916 C918 1.395 . S
C916 C919 1.403 . S
H917 C923 0.930 . S
C918 H904 0.930 . S
C918 C916 1.395 . S
C918 C921 1.403 . S
C919 C916 1.403 . S
C919 C920 1.524 . S
C919 C923 1.400 . S
C920 H905 0.960 . S
C920 H906 0.960 . S
C920 H907 0.960 . S
C920 C919 1.524 . S
C921 C918 1.403 . S
C921 C922 1.392 . S
C921 C925 1.495 . S
C922 C921 1.392 . S
C922 C923 1.385 . S
C922 C924 1.478 . S
C923 H917 0.930 . S
C923 C919 1.400 . S
C923 C922 1.385 . S
C924 C922 1.478 . S
C924 C926 1.381 . S
C924 C930 1.383 . S
C925 C921 1.495 . S
C925 H931 0.959 . S
C925 H932 0.961 . S
C925 H933 0.960 . S
C926 C924 1.381 . S
C926 C927 1.394 . S
C926 H934 0.930 . S
C927 C926 1.394 . S
C927 C928 1.383 . S
C927 H935 0.929 . S
C928 C927 1.383 . S
C928 C929 1.377 . S
C929 H913 0.930 . S
C929 C928 1.377 . S
C929 C930 1.379 . S
C930 H914 0.931 . S
C930 C924 1.383 . S
C930 C929 1.379 . S
H931 C925 0.959 . S
H932 C925 0.961 . S
H933 C925 0.960 . S
H934 C926 0.930 . S
H935 C927 0.929 . S
H936 C944 0.929 . S
H937 C946 0.930 . S
H938 C948 0.930 . S
H939 C951 0.929 . S
H940 C954 0.930 . S
H941 C956 0.960 . S
H942 C956 0.960 . S
H943 C956 0.960 . S
C944 H936 0.929 . S
C944 C945 1.377 . S
C944 C946 1.384 . S
C945 C944 1.377 . S
C945 C951 1.390 . S
C946 H937 0.930 . S
C946 C944 1.384 . S
C946 C947 1.372 . S
C947 C946 1.372 . S
C947 C948 1.400 . S
C947 C952 1.490 . S
C948 H938 0.930 . S
C948 C947 1.400 . S
C948 C951 1.386 . S
H949 C965 0.930 . S
H950 C966 0.931 . S
C951 H939 0.929 . S
C951 C945 1.390 . S
C951 C948 1.386 . S
C952 C947 1.490 . S
C952 C954 1.395 . S
C952 C955 1.403 . S
H953 C959 0.930 . S
C954 H940 0.930 . S
C954 C952 1.395 . S
C954 C957 1.403 . S
C955 C952 1.403 . S
C955 C956 1.524 . S
C955 C959 1.400 . S
C956 H941 0.960 . S
C956 H942 0.960 . S
C956 H943 0.960 . S
C956 C955 1.524 . S
C957 C954 1.403 . S
C957 C958 1.392 . S
C957 C961 1.495 . S
C958 C957 1.392 . S
C958 C959 1.385 . S
C958 C960 1.478 . S
C959 H953 0.930 . S
C959 C955 1.400 . S
C959 C958 1.385 . S
C960 C958 1.478 . S
C960 C962 1.381 . S
C960 C966 1.383 . S
C961 C957 1.495 . S
C961 H967 0.959 . S
C961 H968 0.961 . S
C961 H969 0.960 . S
C962 C960 1.381 . S
C962 C963 1.394 . S
C962 H970 0.930 . S
C963 C962 1.394 . S
C963 C964 1.383 . S
C963 H971 0.922 1_554 S
C964 C963 1.383 . S
C964 C965 1.377 . S
C965 H949 0.930 . S
C965 C964 1.377 . S
C965 C966 1.379 . S
C966 H950 0.931 . S
C966 C960 1.383 . S
C966 C965 1.379 . S
H967 C961 0.959 . S
H968 C961 0.961 . S
H969 C961 0.960 . S
H970 C962 0.930 . S
H971 C963 0.922 1_556 S
H972 C980 0.929 . S
H973 C982 0.930 . S
H974 C984 0.930 . S
H975 C987 0.929 . S
H976 C990 0.930 . S
H977 C992 0.960 . S
H978 C992 0.960 . S
H979 C992 0.960 . S
C980 H972 0.929 . S
C980 C981 1.377 . S
C980 C982 1.384 . S
C981 C980 1.377 . S
C981 C987 1.390 . S
C982 H973 0.930 . S
C982 C980 1.384 . S
C982 C983 1.372 . S
C983 C982 1.372 . S
C983 C984 1.400 . S
C983 C988 1.490 . S
C984 H974 0.930 . S
C984 C983 1.400 . S
C984 C987 1.386 . S
H985 C1001 0.930 . S
H986 C1002 0.931 . S
C987 H975 0.929 . S
C987 C981 1.390 . S
C987 C984 1.386 . S
C988 C983 1.490 . S
C988 C990 1.395 . S
C988 C991 1.403 . S
H989 C995 0.930 . S
C990 H976 0.930 . S
C990 C988 1.395 . S
C990 C993 1.403 . S
C991 C988 1.403 . S
C991 C992 1.524 . S
C991 C995 1.400 . S
C992 H977 0.960 . S
C992 H978 0.960 . S
C992 H979 0.960 . S
C992 C991 1.524 . S
C993 C990 1.403 . S
C993 C994 1.392 . S
C993 C997 1.495 . S
C994 C993 1.392 . S
C994 C995 1.385 . S
C994 C996 1.478 . S
C995 H989 0.930 . S
C995 C991 1.400 . S
C995 C994 1.385 . S
C996 C994 1.478 . S
C996 C998 1.381 . S
C996 C1002 1.383 . S
C997 C993 1.495 . S
C997 H1003 0.959 . S
C997 H1004 0.961 . S
C997 H1005 0.960 . S
C998 C996 1.381 . S
C998 C999 1.394 . S
C998 H1006 0.930 . S
C999 C998 1.394 . S
C999 C1000 1.383 . S
C999 H1007 0.929 . S
C1000 C999 1.383 . S
C1000 C1001 1.377 . S
C1001 H985 0.930 . S
C1001 C1000 1.377 . S
C1001 C1002 1.379 . S
C1002 H986 0.931 . S
C1002 C996 1.383 . S
C1002 C1001 1.379 . S
H1003 C997 0.959 . S
H1004 C997 0.961 . S
H1005 C997 0.960 . S
H1006 C998 0.930 . S
H1007 C999 0.929 . S
H1008 C1016 0.929 . S
H1009 C1018 0.930 . S
H1010 C1020 0.930 . S
H1011 C1023 0.929 . S
H1012 C1026 0.930 . S
H1013 C1028 0.960 . S
H1014 C1028 0.960 . S
H1015 C1028 0.960 . S
C1016 H1008 0.929 . S
C1016 C1017 1.377 . S
C1016 C1018 1.384 . S
C1017 C1016 1.377 . S
C1017 C1023 1.390 . S
C1018 H1009 0.930 . S
C1018 C1016 1.384 . S
C1018 C1019 1.372 . S
C1019 C1018 1.372 . S
C1019 C1020 1.400 . S
C1019 C1024 1.490 . S
C1020 H1010 0.930 . S
C1020 C1019 1.400 . S
C1020 C1023 1.386 . S
H1021 C1037 0.930 . S
H1022 C1038 0.931 . S
C1023 H1011 0.929 . S
C1023 C1017 1.390 . S
C1023 C1020 1.386 . S
C1024 C1019 1.490 . S
C1024 C1026 1.395 . S
C1024 C1027 1.403 . S
H1025 C1031 0.930 . S
C1026 H1012 0.930 . S
C1026 C1024 1.395 . S
C1026 C1029 1.403 . S
C1027 C1024 1.403 . S
C1027 C1028 1.524 . S
C1027 C1031 1.400 . S
C1028 H1013 0.960 . S
C1028 H1014 0.960 . S
C1028 H1015 0.960 . S
C1028 C1027 1.524 . S
C1029 C1026 1.403 . S
C1029 C1030 1.392 . S
C1029 C1033 1.495 . S
C1030 C1029 1.392 . S
C1030 C1031 1.385 . S
C1030 C1032 1.478 . S
C1031 H1025 0.930 . S
C1031 C1027 1.400 . S
C1031 C1030 1.385 . S
C1032 C1030 1.478 . S
C1032 C1034 1.381 . S
C1032 C1038 1.383 . S
C1033 C1029 1.495 . S
C1033 H1039 0.959 . S
C1033 H1040 0.961 . S
C1033 H1041 0.960 . S
C1034 C1032 1.381 . S
C1034 C1035 1.394 . S
C1034 H1042 0.930 . S
C1035 C1034 1.394 . S
C1035 C1036 1.383 . S
C1035 H1043 0.929 . S
C1036 C1035 1.383 . S
C1036 C1037 1.377 . S
C1037 H1021 0.930 . S
C1037 C1036 1.377 . S
C1037 C1038 1.379 . S
C1038 H1022 0.931 . S
C1038 C1032 1.383 . S
C1038 C1037 1.379 . S
H1039 C1033 0.959 . S
H1040 C1033 0.961 . S
H1041 C1033 0.960 . S
H1042 C1034 0.930 . S
H1043 C1035 0.929 . S
H1044 C1052 0.929 . S
H1045 C1054 0.930 . S
H1046 C1056 0.930 . S
H1047 C1059 0.929 . S
H1048 C1062 0.930 . S
H1049 C1064 0.960 . S
H1050 C1064 0.960 . S
H1051 C1064 0.960 . S
C1052 H1044 0.929 . S
C1052 C1053 1.377 . S
C1052 C1054 1.384 . S
C1053 C1052 1.377 . S
C1053 C1059 1.390 . S
C1054 H1045 0.930 . S
C1054 C1052 1.384 . S
C1054 C1055 1.372 . S
C1055 C1054 1.372 . S
C1055 C1056 1.400 . S
C1055 C1060 1.490 . S
C1056 H1046 0.930 . S
C1056 C1055 1.400 . S
C1056 C1059 1.386 . S
H1057 C1073 0.930 . S
H1058 C1074 0.931 . S
C1059 H1047 0.929 . S
C1059 C1053 1.390 . S
C1059 C1056 1.386 . S
C1060 C1055 1.490 . S
C1060 C1062 1.395 . S
C1060 C1063 1.403 . S
H1061 C1067 0.930 . S
C1062 H1048 0.930 . S
C1062 C1060 1.395 . S
C1062 C1065 1.403 . S
C1063 C1060 1.403 . S
C1063 C1064 1.524 . S
C1063 C1067 1.400 . S
C1064 H1049 0.960 . S
C1064 H1050 0.960 . S
C1064 H1051 0.960 . S
C1064 C1063 1.524 . S
C1065 C1062 1.403 . S
C1065 C1066 1.392 . S
C1065 C1069 1.495 . S
C1066 C1065 1.392 . S
C1066 C1067 1.385 . S
C1066 C1068 1.478 . S
C1067 H1061 0.930 . S
C1067 C1063 1.400 . S
C1067 C1066 1.385 . S
C1068 C1066 1.478 . S
C1068 C1070 1.381 . S
C1068 C1074 1.383 . S
C1069 C1065 1.495 . S
C1069 H1075 0.959 . S
C1069 H1076 0.961 . S
C1069 H1077 0.960 . S
C1070 C1068 1.381 . S
C1070 C1071 1.394 . S
C1070 H1078 0.930 . S
C1071 C1070 1.394 . S
C1071 C1072 1.383 . S
C1071 H1079 0.929 . S
C1072 C1071 1.383 . S
C1072 C1073 1.377 . S
C1073 H1057 0.930 . S
C1073 C1072 1.377 . S
C1073 C1074 1.379 . S
C1074 H1058 0.931 . S
C1074 C1068 1.383 . S
C1074 C1073 1.379 . S
H1075 C1069 0.959 . S
H1076 C1069 0.961 . S
H1077 C1069 0.960 . S
H1078 C1070 0.930 . S
H1079 C1071 0.929 . S
H1080 C1088 0.929 . S
H1081 C1090 0.930 . S
H1082 C1092 0.930 . S
H1083 C1095 0.929 . S
H1084 C1098 0.930 . S
H1085 C1100 0.960 . S
H1086 C1100 0.960 . S
H1087 C1100 0.960 . S
C1088 H1080 0.929 . S
C1088 C1089 1.377 . S
C1088 C1090 1.384 . S
C1089 C1088 1.377 . S
C1089 C1095 1.390 . S
C1090 H1081 0.930 . S
C1090 C1088 1.384 . S
C1090 C1091 1.372 . S
C1091 C1090 1.372 . S
C1091 C1092 1.400 . S
C1091 C1096 1.490 . S
C1092 H1082 0.930 . S
C1092 C1091 1.400 . S
C1092 C1095 1.386 . S
H1093 C1109 0.930 . S
H1094 C1110 0.931 . S
C1095 H1083 0.929 . S
C1095 C1089 1.390 . S
C1095 C1092 1.386 . S
C1096 C1091 1.490 . S
C1096 C1098 1.395 . S
C1096 C1099 1.403 . S
H1097 C1103 0.930 . S
C1098 H1084 0.930 . S
C1098 C1096 1.395 . S
C1098 C1101 1.403 . S
C1099 C1096 1.403 . S
C1099 C1100 1.524 . S
C1099 C1103 1.400 . S
C1100 H1085 0.960 . S
C1100 H1086 0.960 . S
C1100 H1087 0.960 . S
C1100 C1099 1.524 . S
C1101 C1098 1.403 . S
C1101 C1102 1.392 . S
C1101 C1105 1.495 . S
C1102 C1101 1.392 . S
C1102 C1103 1.385 . S
C1102 C1104 1.478 . S
C1103 H1097 0.930 . S
C1103 C1099 1.400 . S
C1103 C1102 1.385 . S
C1104 C1102 1.478 . S
C1104 C1106 1.381 . S
C1104 C1110 1.383 . S
C1105 C1101 1.495 . S
C1105 H1111 0.959 . S
C1105 H1112 0.961 . S
C1105 H1113 0.960 . S
C1106 C1104 1.381 . S
C1106 C1107 1.394 . S
C1106 H1114 0.930 . S
C1107 C1106 1.394 . S
C1107 C1108 1.383 . S
C1107 H1115 0.929 . S
C1108 C1107 1.383 . S
C1108 C1109 1.377 . S
C1109 H1093 0.930 . S
C1109 C1108 1.377 . S
C1109 C1110 1.379 . S
C1110 H1094 0.931 . S
C1110 C1104 1.383 . S
C1110 C1109 1.379 . S
H1111 C1105 0.959 . S
H1112 C1105 0.961 . S
H1113 C1105 0.960 . S
H1114 C1106 0.930 . S
H1115 C1107 0.929 . S
H1116 C1124 0.929 . S
H1117 C1126 0.930 . S
H1118 C1128 0.930 . S
H1119 C1131 0.929 . S
H1120 C1134 0.930 . S
H1121 C1136 0.960 . S
H1122 C1136 0.960 . S
H1123 C1136 0.960 . S
C1124 H1116 0.929 . S
C1124 C1125 1.377 . S
C1124 C1126 1.384 . S
C1125 C1124 1.377 . S
C1125 C1131 1.390 . S
C1126 H1117 0.930 . S
C1126 C1124 1.384 . S
C1126 C1127 1.372 . S
C1127 C1126 1.372 . S
C1127 C1128 1.400 . S
C1127 C1132 1.490 . S
C1128 H1118 0.930 . S
C1128 C1127 1.400 . S
C1128 C1131 1.386 . S
H1129 C1145 0.930 . S
H1130 C1146 0.931 . S
C1131 H1119 0.929 . S
C1131 C1125 1.390 . S
C1131 C1128 1.386 . S
C1132 C1127 1.490 . S
C1132 C1134 1.395 . S
C1132 C1135 1.403 . S
H1133 C1139 0.930 . S
C1134 H1120 0.930 . S
C1134 C1132 1.395 . S
C1134 C1137 1.403 . S
C1135 C1132 1.403 . S
C1135 C1136 1.524 . S
C1135 C1139 1.400 . S
C1136 H1121 0.960 . S
C1136 H1122 0.960 . S
C1136 H1123 0.960 . S
C1136 C1135 1.524 . S
C1137 C1134 1.403 . S
C1137 C1138 1.392 . S
C1137 C1141 1.495 . S
C1138 C1137 1.392 . S
C1138 C1139 1.385 . S
C1138 C1140 1.478 . S
C1139 H1133 0.930 . S
C1139 C1135 1.400 . S
C1139 C1138 1.385 . S
C1140 C1138 1.478 . S
C1140 C1142 1.381 . S
C1140 C1146 1.383 . S
C1141 C1137 1.495 . S
C1141 H1147 0.959 . S
C1141 H1148 0.961 . S
C1141 H1149 0.960 . S
C1142 C1140 1.381 . S
C1142 C1143 1.394 . S
C1142 H1150 0.930 . S
C1143 C1142 1.394 . S
C1143 C1144 1.383 . S
C1143 H1151 0.929 . S
C1144 C1143 1.383 . S
C1144 C1145 1.377 . S
C1145 H1129 0.930 . S
C1145 C1144 1.377 . S
C1145 C1146 1.379 . S
C1146 H1130 0.931 . S
C1146 C1140 1.383 . S
C1146 C1145 1.379 . S
H1147 C1141 0.959 . S
H1148 C1141 0.961 . S
H1149 C1141 0.960 . S
H1150 C1142 0.930 . S
H1151 C1143 0.929 . S
H1152 C1160 0.929 . S
H1153 C1162 0.930 . S
H1154 C1164 0.930 . S
H1155 C1167 0.929 . S
H1156 C1170 0.905 . S
H1157 C1172 0.960 1_554 S
H1158 C1172 0.960 . S
H1159 C1172 0.960 . S
C1160 H1152 0.929 . S
C1160 C1161 1.377 . S
C1160 C1162 1.384 . S
C1161 C1160 1.377 . S
C1161 C1167 1.390 . S
C1162 H1153 0.930 . S
C1162 C1160 1.384 . S
C1162 C1163 1.372 . S
C1163 C1162 1.372 . S
C1163 C1164 1.400 . S
C1163 C1168 1.490 . S
C1164 H1154 0.930 . S
C1164 C1163 1.400 . S
C1164 C1167 1.386 . S
H1165 C1181 0.930 . S
H1166 C1182 0.931 . S
C1167 H1155 0.929 . S
C1167 C1161 1.390 . S
C1167 C1164 1.386 . S
C1168 C1163 1.490 . S
C1168 C1170 1.399 . S
C1168 C1171 1.403 . S
H1169 C1175 0.977 . S
C1170 H1156 0.905 . S
C1170 C1168 1.399 . S
C1170 C1173 1.384 1_566 S
C1171 C1168 1.403 . S
C1171 C1172 1.524 . S
C1171 C1175 1.351 1_566 S
C1172 H1157 0.960 1_556 S
C1172 H1158 0.960 . S
C1172 H1159 0.960 . S
C1172 C1171 1.524 . S
C1173 C1170 1.384 1_544 S
C1173 C1174 1.392 . S
C1173 C1177 1.495 . S
C1174 C1173 1.392 . S
C1174 C1175 1.399 . S
C1174 C1176 1.478 . S
C1175 H1169 0.977 . S
C1175 C1171 1.351 1_544 S
C1175 C1174 1.399 . S
C1176 C1174 1.478 . S
C1176 C1178 1.381 . S
C1176 C1182 1.383 . S
C1177 C1173 1.495 . S
C1177 H1183 0.959 1_554 S
C1177 H1184 0.961 . S
C1177 H1185 0.960 . S
C1178 C1176 1.381 . S
C1178 C1179 1.394 . S
C1178 H1186 0.930 . S
C1179 C1178 1.394 . S
C1179 C1180 1.383 . S
C1179 H1187 0.929 . S
C1180 C1179 1.383 . S
C1180 C1181 1.377 . S
C1181 H1165 0.930 . S
C1181 C1180 1.377 . S
C1181 C1182 1.379 . S
C1182 H1166 0.931 . S
C1182 C1176 1.383 . S
C1182 C1181 1.379 . S
H1183 C1177 0.959 1_556 S
H1184 C1177 0.961 . S
H1185 C1177 0.960 . S
H1186 C1178 0.930 . S
H1187 C1179 0.929 . S
H1188 C1196 0.929 . S
H1189 C1198 0.930 . S
H1190 C1200 0.930 . S
H1191 C1203 0.929 . S
H1192 C1206 0.930 . S
H1193 C1208 0.960 . S
H1194 C1208 0.960 1_554 S
H1195 C1208 0.960 1_554 S
C1196 H1188 0.929 . S
C1196 C1197 1.377 . S
C1196 C1198 1.384 . S
C1197 C1196 1.377 . S
C1197 C1203 1.390 . S
C1198 H1189 0.930 . S
C1198 C1196 1.384 . S
C1198 C1199 1.372 . S
C1199 C1198 1.372 . S
C1199 C1200 1.400 . S
C1199 C1204 1.490 . S
C1200 H1190 0.930 . S
C1200 C1199 1.400 . S
C1200 C1203 1.386 . S
H1201 C1217 0.930 . S
H1202 C1218 0.931 . S
C1203 H1191 0.929 . S
C1203 C1197 1.390 . S
C1203 C1200 1.386 . S
C1204 C1199 1.490 . S
C1204 C1206 1.395 1_655 S
C1204 C1207 1.408 . S
H1205 C1211 0.930 . S
C1206 H1192 0.930 . S
C1206 C1204 1.395 1_455 S
C1206 C1209 1.403 . S
C1207 C1204 1.408 . S
C1207 C1208 1.523 1_554 S
C1207 C1211 1.395 1_554 S
C1208 H1193 0.960 . S
C1208 H1194 0.960 1_556 S
C1208 H1195 0.960 1_556 S
C1208 C1207 1.523 1_556 S
C1209 C1206 1.403 . S
C1209 C1210 1.392 1_554 S
C1209 C1213 1.495 . S
C1210 C1209 1.392 1_556 S
C1210 C1211 1.385 1_455 S
C1210 C1212 1.478 . S
C1211 H1205 0.930 . S
C1211 C1207 1.395 1_556 S
C1211 C1210 1.385 1_655 S
C1212 C1210 1.478 . S
C1212 C1214 1.381 . S
C1212 C1218 1.383 . S
C1213 C1209 1.495 . S
C1213 H1219 0.959 . S
C1213 H1220 0.961 1_554 S
C1213 H1221 0.960 . S
C1214 C1212 1.381 . S
C1214 C1215 1.394 . S
C1214 H1222 0.930 . S
C1215 C1214 1.394 . S
C1215 C1216 1.383 . S
C1215 H1223 0.929 . S
C1216 C1215 1.383 . S
C1216 C1217 1.377 . S
C1217 H1201 0.930 . S
C1217 C1216 1.377 . S
C1217 C1218 1.379 . S
C1218 H1202 0.931 . S
C1218 C1212 1.383 . S
C1218 C1217 1.379 . S
H1219 C1213 0.959 . S
H1220 C1213 0.961 1_556 S
H1221 C1213 0.960 . S
H1222 C1214 0.930 . S
H1223 C1215 0.929 . S
H1224 C1232 0.929 . S
H1225 C1234 0.930 . S
H1226 C1236 0.930 . S
H1227 C1239 0.929 . S
H1228 C1242 0.930 . S
H1229 C1244 0.960 1_554 S
H1230 C1244 0.960 . S
H1231 C1244 0.960 . S
C1232 H1224 0.929 . S
C1232 C1233 1.377 . S
C1232 C1234 1.384 . S
C1233 C1232 1.377 . S
C1233 C1239 1.390 . S
C1234 H1225 0.930 . S
C1234 C1232 1.384 . S
C1234 C1235 1.372 . S
C1235 C1234 1.372 . S
C1235 C1236 1.400 . S
C1235 C1240 1.490 . S
C1236 H1226 0.930 . S
C1236 C1235 1.400 . S
C1236 C1239 1.386 . S
H1237 C1253 0.930 . S
H1238 C1254 0.931 . S
C1239 H1227 0.929 . S
C1239 C1233 1.390 . S
C1239 C1236 1.386 . S
C1240 C1235 1.490 . S
C1240 C1242 1.395 . S
C1240 C1243 1.403 . S
H1241 C1247 0.930 . S
C1242 H1228 0.930 . S
C1242 C1240 1.395 . S
C1242 C1245 1.403 . S
C1243 C1240 1.403 . S
C1243 C1244 1.524 . S
C1243 C1247 1.400 1_556 S
C1244 H1229 0.960 1_556 S
C1244 H1230 0.960 . S
C1244 H1231 0.960 . S
C1244 C1243 1.524 . S
C1245 C1242 1.403 . S
C1245 C1246 1.392 1_556 S
C1245 C1249 1.496 . S
C1246 C1245 1.392 1_554 S
C1246 C1247 1.385 . S
C1246 C1248 1.478 . S
C1247 H1241 0.930 . S
C1247 C1243 1.400 1_554 S
C1247 C1246 1.385 . S
C1248 C1246 1.478 . S
C1248 C1250 1.381 . S
C1248 C1254 1.383 . S
C1249 C1245 1.496 . S
C1249 H1255 0.977 . S
C1249 H1256 0.944 1_556 S
C1249 H1257 0.958 1_556 S
C1250 C1248 1.381 . S
C1250 C1251 1.394 . S
C1250 H1258 0.930 . S
C1251 C1250 1.394 . S
C1251 C1252 1.383 . S
C1251 H1259 0.929 . S
C1252 C1251 1.383 . S
C1252 C1253 1.377 . S
C1253 H1237 0.930 . S
C1253 C1252 1.377 . S
C1253 C1254 1.379 . S
C1254 H1238 0.931 . S
C1254 C1248 1.383 . S
C1254 C1253 1.379 . S
H1255 C1249 0.977 . S
H1256 C1249 0.944 1_554 S
H1257 C1249 0.958 1_554 S
H1258 C1250 0.930 . S
H1259 C1251 0.929 . S
H1260 C1268 0.929 . S
H1261 C1270 0.930 . S
H1262 C1272 0.930 . S
H1263 C1275 0.929 . S
H1264 C1278 0.930 . S
H1265 C1280 0.971 . S
H1266 C1280 0.953 1_565 S
H1267 C1280 0.962 . S
C1268 H1260 0.929 . S
C1268 C1269 1.377 . S
C1268 C1270 1.384 . S
C1269 C1268 1.377 . S
C1269 C1275 1.390 . S
C1270 H1261 0.930 . S
C1270 C1268 1.384 . S
C1270 C1271 1.372 . S
C1271 C1270 1.372 . S
C1271 C1272 1.400 . S
C1271 C1276 1.490 . S
C1272 H1262 0.930 . S
C1272 C1271 1.400 . S
C1272 C1275 1.386 . S
H1273 C1289 0.930 . S
H1274 C1290 0.931 . S
C1275 H1263 0.929 . S
C1275 C1269 1.390 . S
C1275 C1272 1.386 . S
C1276 C1271 1.490 . S
C1276 C1278 1.395 . S
C1276 C1279 1.436 . S
H1277 C1283 0.930 . S
C1278 H1264 0.930 . S
C1278 C1276 1.395 . S
C1278 C1281 1.403 1_556 S
C1279 C1276 1.436 . S
C1279 C1280 1.502 1_565 S
C1279 C1283 1.384 1_566 S
C1280 H1265 0.971 . S
C1280 H1266 0.953 1_545 S
C1280 H1267 0.962 . S
C1280 C1279 1.502 1_545 S
C1281 C1278 1.403 1_554 S
C1281 C1282 1.392 1_565 S
C1281 C1285 1.495 . S
C1282 C1281 1.392 1_545 S
C1282 C1283 1.385 . S
C1282 C1284 1.478 . S
C1283 H1277 0.930 . S
C1283 C1279 1.384 1_544 S
C1283 C1282 1.385 . S
C1284 C1282 1.478 . S
C1284 C1286 1.381 . S
C1284 C1290 1.383 . S
C1285 C1281 1.495 . S
C1285 H1291 0.959 . S
C1285 H1292 0.961 1_565 S
C1285 H1293 0.960 . S
C1286 C1284 1.381 . S
C1286 C1287 1.394 . S
C1286 H1294 0.930 . S
C1287 C1286 1.394 . S
C1287 C1288 1.383 . S
C1287 H1295 0.929 . S
C1288 C1287 1.383 . S
C1288 C1289 1.377 . S
C1289 H1273 0.930 . S
C1289 C1288 1.377 . S
C1289 C1290 1.379 . S
C1290 H1274 0.931 . S
C1290 C1284 1.383 . S
C1290 C1289 1.379 . S
H1291 C1285 0.959 . S
H1292 C1285 0.961 1_545 S
H1293 C1285 0.960 . S
H1294 C1286 0.930 . S
H1295 C1287 0.929 . S
H1296 C1304 0.929 . S
H1297 C1306 0.930 . S
H1298 C1308 0.930 . S
H1299 C1311 0.929 . S
H1300 C1314 0.930 . S
H1301 C1316 0.976 . S
H1302 C1316 0.960 . S
H1303 C1316 0.945 1_556 S
C1304 H1296 0.929 . S
C1304 C1305 1.377 . S
C1304 C1306 1.384 . S
C1305 C1304 1.377 . S
C1305 C1311 1.390 . S
C1306 H1297 0.930 . S
C1306 C1304 1.384 . S
C1306 C1307 1.372 . S
C1307 C1306 1.372 . S
C1307 C1308 1.400 . S
C1307 C1312 1.490 . S
C1308 H1298 0.930 . S
C1308 C1307 1.400 . S
C1308 C1311 1.386 . S
H1309 C1325 0.930 . S
H1310 C1326 0.931 . S
C1311 H1299 0.929 . S
C1311 C1305 1.390 . S
C1311 C1308 1.386 . S
C1312 C1307 1.490 . S
C1312 C1314 1.395 1_455 S
C1312 C1315 1.403 . S
H1313 C1319 0.950 . S
C1314 H1300 0.930 . S
C1314 C1312 1.395 1_655 S
C1314 C1317 1.398 1_556 S
C1315 C1312 1.403 . S
C1315 C1316 1.523 1_556 S
C1315 C1319 1.429 1_556 S
C1316 H1301 0.976 . S
C1316 H1302 0.960 . S
C1316 H1303 0.945 1_554 S
C1316 C1315 1.523 1_554 S
C1317 C1314 1.398 1_554 S
C1317 C1318 1.398 . S
C1317 C1321 1.495 1_554 S
C1318 C1317 1.398 . S
C1318 C1319 1.339 1_655 S
C1318 C1320 1.478 . S
C1319 H1313 0.950 . S
C1319 C1315 1.429 1_554 S
C1319 C1318 1.339 1_455 S
C1320 C1318 1.478 . S
C1320 C1322 1.381 . S
C1320 C1326 1.383 . S
C1321 C1317 1.495 1_556 S
C1321 H1327 0.966 . S
C1321 H1328 0.961 1_556 S
C1321 H1329 0.953 1_556 S
C1322 C1320 1.381 . S
C1322 C1323 1.394 . S
C1322 H1330 0.930 . S
C1323 C1322 1.394 . S
C1323 C1324 1.383 . S
C1323 H1331 0.929 . S
C1324 C1323 1.383 . S
C1324 C1325 1.377 . S
C1325 H1309 0.930 . S
C1325 C1324 1.377 . S
C1325 C1326 1.379 . S
C1326 H1310 0.931 . S
C1326 C1320 1.383 . S
C1326 C1325 1.379 . S
H1327 C1321 0.966 . S
H1328 C1321 0.961 1_554 S
H1329 C1321 0.953 1_554 S
H1330 C1322 0.930 . S
H1331 C1323 0.929 . S
H1332 C1340 0.929 . S
H1333 C1342 0.930 . S
H1334 C1344 0.930 . S
H1335 C1347 0.929 . S
H1336 C1350 0.930 . S
H1337 C1352 0.960 . S
H1338 C1352 0.960 . S
H1339 C1352 0.960 . S
C1340 H1332 0.929 . S
C1340 C1341 1.377 . S
C1340 C1342 1.384 . S
C1341 C1340 1.377 . S
C1341 C1347 1.390 . S
C1342 H1333 0.930 . S
C1342 C1340 1.384 . S
C1342 C1343 1.372 . S
C1343 C1342 1.372 . S
C1343 C1344 1.400 . S
C1343 C1348 1.490 . S
C1344 H1334 0.930 . S
C1344 C1343 1.400 . S
C1344 C1347 1.386 . S
H1345 C1361 0.930 . S
H1346 C1362 0.931 . S
C1347 H1335 0.929 . S
C1347 C1341 1.390 . S
C1347 C1344 1.386 . S
C1348 C1343 1.490 . S
C1348 C1350 1.395 . S
C1348 C1351 1.403 . S
H1349 C1355 0.930 . S
C1350 H1336 0.930 . S
C1350 C1348 1.395 . S
C1350 C1353 1.403 1_554 S
C1351 C1348 1.403 . S
C1351 C1352 1.524 . S
C1351 C1355 1.400 1_554 S
C1352 H1337 0.960 . S
C1352 H1338 0.960 . S
C1352 H1339 0.960 . S
C1352 C1351 1.524 . S
C1353 C1350 1.403 1_556 S
C1353 C1354 1.392 . S
C1353 C1357 1.495 . S
C1354 C1353 1.392 . S
C1354 C1355 1.385 . S
C1354 C1356 1.478 . S
C1355 H1349 0.930 . S
C1355 C1351 1.400 1_556 S
C1355 C1354 1.385 . S
C1356 C1354 1.478 . S
C1356 C1358 1.381 . S
C1356 C1362 1.383 . S
C1357 C1353 1.495 . S
C1357 H1363 0.959 . S
C1357 H1364 0.961 . S
C1357 H1365 0.960 . S
C1358 C1356 1.381 . S
C1358 C1359 1.394 . S
C1358 H1366 0.930 . S
C1359 C1358 1.394 . S
C1359 C1360 1.383 . S
C1359 H1367 0.929 . S
C1360 C1359 1.383 . S
C1360 C1361 1.377 . S
C1361 H1345 0.930 . S
C1361 C1360 1.377 . S
C1361 C1362 1.379 . S
C1362 H1346 0.931 . S
C1362 C1356 1.383 . S
C1362 C1361 1.379 . S
H1363 C1357 0.959 . S
H1364 C1357 0.961 . S
H1365 C1357 0.960 . S
H1366 C1358 0.930 . S
H1367 C1359 0.929 . S
H1368 C1376 0.929 . S
H1369 C1378 0.930 . S
H1370 C1380 0.930 . S
H1371 C1383 0.929 . S
H1372 C1386 0.930 . S
H1373 C1388 0.960 . S
H1374 C1388 0.960 . S
H1375 C1388 0.960 . S
C1376 H1368 0.929 . S
C1376 C1377 1.377 . S
C1376 C1378 1.384 . S
C1377 C1376 1.377 . S
C1377 C1383 1.390 . S
C1378 H1369 0.930 . S
C1378 C1376 1.384 . S
C1378 C1379 1.372 . S
C1379 C1378 1.372 . S
C1379 C1380 1.400 . S
C1379 C1384 1.490 . S
C1380 H1370 0.930 . S
C1380 C1379 1.400 . S
C1380 C1383 1.386 . S
H1381 C1397 0.930 . S
H1382 C1398 0.931 . S
C1383 H1371 0.929 . S
C1383 C1377 1.390 . S
C1383 C1380 1.386 . S
C1384 C1379 1.490 . S
C1384 C1386 1.395 . S
C1384 C1387 1.403 . S
H1385 C1391 0.930 . S
C1386 H1372 0.930 . S
C1386 C1384 1.395 . S
C1386 C1389 1.403 . S
C1387 C1384 1.403 . S
C1387 C1388 1.524 . S
C1387 C1391 1.400 . S
C1388 H1373 0.960 . S
C1388 H1374 0.960 . S
C1388 H1375 0.960 . S
C1388 C1387 1.524 . S
C1389 C1386 1.403 . S
C1389 C1390 1.392 . S
C1389 C1393 1.495 . S
C1390 C1389 1.392 . S
C1390 C1391 1.385 . S
C1390 C1392 1.478 . S
C1391 H1385 0.930 . S
C1391 C1387 1.400 . S
C1391 C1390 1.385 . S
C1392 C1390 1.478 . S
C1392 C1394 1.381 . S
C1392 C1398 1.383 . S
C1393 C1389 1.495 . S
C1393 H1399 0.959 . S
C1393 H1400 0.961 . S
C1393 H1401 0.960 . S
C1394 C1392 1.381 . S
C1394 C1395 1.394 . S
C1394 H1402 0.930 . S
C1395 C1394 1.394 . S
C1395 C1396 1.383 . S
C1395 H1403 0.929 . S
C1396 C1395 1.383 . S
C1396 C1397 1.377 . S
C1397 H1381 0.930 . S
C1397 C1396 1.377 . S
C1397 C1398 1.379 . S
C1398 H1382 0.931 . S
C1398 C1392 1.383 . S
C1398 C1397 1.379 . S
H1399 C1393 0.959 . S
H1400 C1393 0.961 . S
H1401 C1393 0.960 . S
H1402 C1394 0.930 . S
H1403 C1395 0.929 . S
H1404 C1412 0.929 . S
H1405 C1414 0.930 . S
H1406 C1416 0.930 . S
H1407 C1419 0.929 . S
H1408 C1422 0.930 . S
H1409 C1424 0.960 . S
H1410 C1424 0.960 . S
H1411 C1424 0.960 . S
C1412 H1404 0.929 . S
C1412 C1413 1.377 . S
C1412 C1414 1.384 . S
C1413 C1412 1.377 . S
C1413 C1419 1.390 . S
C1414 H1405 0.930 . S
C1414 C1412 1.384 . S
C1414 C1415 1.372 . S
C1415 C1414 1.372 . S
C1415 C1416 1.400 . S
C1415 C1420 1.490 . S
C1416 H1406 0.930 . S
C1416 C1415 1.400 . S
C1416 C1419 1.386 . S
H1417 C1433 0.930 . S
H1418 C1434 0.931 . S
C1419 H1407 0.929 . S
C1419 C1413 1.390 . S
C1419 C1416 1.386 . S
C1420 C1415 1.490 . S
C1420 C1422 1.395 . S
C1420 C1423 1.403 . S
H1421 C1427 0.930 . S
C1422 H1408 0.930 . S
C1422 C1420 1.395 . S
C1422 C1425 1.403 . S
C1423 C1420 1.403 . S
C1423 C1424 1.524 . S
C1423 C1427 1.400 . S
C1424 H1409 0.960 . S
C1424 H1410 0.960 . S
C1424 H1411 0.960 . S
C1424 C1423 1.524 . S
C1425 C1422 1.403 . S
C1425 C1426 1.392 . S
C1425 C1429 1.495 . S
C1426 C1425 1.392 . S
C1426 C1427 1.385 . S
C1426 C1428 1.478 . S
C1427 H1421 0.930 . S
C1427 C1423 1.400 . S
C1427 C1426 1.385 . S
C1428 C1426 1.478 . S
C1428 C1430 1.381 . S
C1428 C1434 1.383 . S
C1429 C1425 1.495 . S
C1429 H1435 0.959 . S
C1429 H1436 0.961 . S
C1429 H1437 0.960 . S
C1430 C1428 1.381 . S
C1430 C1431 1.394 . S
C1430 H1438 0.930 . S
C1431 C1430 1.394 . S
C1431 C1432 1.383 . S
C1431 H1439 0.929 . S
C1432 C1431 1.383 . S
C1432 C1433 1.377 . S
C1433 H1417 0.930 . S
C1433 C1432 1.377 . S
C1433 C1434 1.379 . S
C1434 H1418 0.931 . S
C1434 C1428 1.383 . S
C1434 C1433 1.379 . S
H1435 C1429 0.959 . S
H1436 C1429 0.961 . S
H1437 C1429 0.960 . S
H1438 C1430 0.930 . S
H1439 C1431 0.929 . S
H1440 C1448 0.929 . S
H1441 C1450 0.930 . S
H1442 C1452 0.930 . S
H1443 C1455 0.929 . S
H1444 C1458 0.930 . S
H1445 C1460 0.960 . S
H1446 C1460 0.960 . S
H1447 C1460 0.960 . S
C1448 H1440 0.929 . S
C1448 C1449 1.377 . S
C1448 C1450 1.384 . S
C1449 C1448 1.377 . S
C1449 C1455 1.390 . S
C1450 H1441 0.930 . S
C1450 C1448 1.384 . S
C1450 C1451 1.372 . S
C1451 C1450 1.372 . S
C1451 C1452 1.400 . S
C1451 C1456 1.490 . S
C1452 H1442 0.930 . S
C1452 C1451 1.400 . S
C1452 C1455 1.386 . S
H1453 C1469 0.930 . S
H1454 C1470 0.931 . S
C1455 H1443 0.929 . S
C1455 C1449 1.390 . S
C1455 C1452 1.386 . S
C1456 C1451 1.490 . S
C1456 C1458 1.395 . S
C1456 C1459 1.403 . S
H1457 C1463 0.930 . S
C1458 H1444 0.930 . S
C1458 C1456 1.395 . S
C1458 C1461 1.403 . S
C1459 C1456 1.403 . S
C1459 C1460 1.524 . S
C1459 C1463 1.400 . S
C1460 H1445 0.960 . S
C1460 H1446 0.960 . S
C1460 H1447 0.960 . S
C1460 C1459 1.524 . S
C1461 C1458 1.403 . S
C1461 C1462 1.392 . S
C1461 C1465 1.495 . S
C1462 C1461 1.392 . S
C1462 C1463 1.385 . S
C1462 C1464 1.478 . S
C1463 H1457 0.930 . S
C1463 C1459 1.400 . S
C1463 C1462 1.385 . S
C1464 C1462 1.478 . S
C1464 C1466 1.381 . S
C1464 C1470 1.383 . S
C1465 C1461 1.495 . S
C1465 H1471 0.959 . S
C1465 H1472 0.961 . S
C1465 H1473 0.960 . S
C1466 C1464 1.381 . S
C1466 C1467 1.394 . S
C1466 H1474 0.930 . S
C1467 C1466 1.394 . S
C1467 C1468 1.383 . S
C1467 H1475 0.929 . S
C1468 C1467 1.383 . S
C1468 C1469 1.377 . S
C1469 H1453 0.930 . S
C1469 C1468 1.377 . S
C1469 C1470 1.379 . S
C1470 H1454 0.931 . S
C1470 C1464 1.383 . S
C1470 C1469 1.379 . S
H1471 C1465 0.959 . S
H1472 C1465 0.961 . S
H1473 C1465 0.960 . S
H1474 C1466 0.930 . S
H1475 C1467 0.929 . S
H1476 C1484 0.929 . S
H1477 C1486 0.930 . S
H1478 C1488 0.930 . S
H1479 C1491 0.929 . S
H1480 C1494 0.930 . S
H1481 C1496 0.960 . S
H1482 C1496 0.960 . S
H1483 C1496 0.960 . S
C1484 H1476 0.929 . S
C1484 C1485 1.377 . S
C1484 C1486 1.384 . S
C1485 C1484 1.377 . S
C1485 C1491 1.390 . S
C1486 H1477 0.930 . S
C1486 C1484 1.384 . S
C1486 C1487 1.372 . S
C1487 C1486 1.372 . S
C1487 C1488 1.400 . S
C1487 C1492 1.490 . S
C1488 H1478 0.930 . S
C1488 C1487 1.400 . S
C1488 C1491 1.386 . S
H1489 C1505 0.930 . S
H1490 C1506 0.931 . S
C1491 H1479 0.929 . S
C1491 C1485 1.390 . S
C1491 C1488 1.386 . S
C1492 C1487 1.490 . S
C1492 C1494 1.395 . S
C1492 C1495 1.403 . S
H1493 C1499 0.930 . S
C1494 H1480 0.930 . S
C1494 C1492 1.395 . S
C1494 C1497 1.403 . S
C1495 C1492 1.403 . S
C1495 C1496 1.524 . S
C1495 C1499 1.400 . S
C1496 H1481 0.960 . S
C1496 H1482 0.960 . S
C1496 H1483 0.960 . S
C1496 C1495 1.524 . S
C1497 C1494 1.403 . S
C1497 C1498 1.392 . S
C1497 C1501 1.495 . S
C1498 C1497 1.392 . S
C1498 C1499 1.385 . S
C1498 C1500 1.478 . S
C1499 H1493 0.930 . S
C1499 C1495 1.400 . S
C1499 C1498 1.385 . S
C1500 C1498 1.478 . S
C1500 C1502 1.381 . S
C1500 C1506 1.383 . S
C1501 C1497 1.495 . S
C1501 H1507 0.959 . S
C1501 H1508 0.961 . S
C1501 H1509 0.960 . S
C1502 C1500 1.381 . S
C1502 C1503 1.394 . S
C1502 H1510 0.930 . S
C1503 C1502 1.394 . S
C1503 C1504 1.383 . S
C1503 H1511 0.929 . S
C1504 C1503 1.383 . S
C1504 C1505 1.377 . S
C1505 H1489 0.930 . S
C1505 C1504 1.377 . S
C1505 C1506 1.379 . S
C1506 H1490 0.931 . S
C1506 C1500 1.383 . S
C1506 C1505 1.379 . S
H1507 C1501 0.959 . S
H1508 C1501 0.961 . S
H1509 C1501 0.960 . S
H1510 C1502 0.930 . S
H1511 C1503 0.929 . S
H1512 C1520 0.929 . S
H1513 C1522 0.930 . S
H1514 C1524 0.930 . S
H1515 C1527 0.929 . S
H1516 C1530 0.930 . S
H1517 C1532 0.960 . S
H1518 C1532 0.960 . S
H1519 C1532 0.960 . S
C1520 H1512 0.929 . S
C1520 C1521 1.377 . S
C1520 C1522 1.384 . S
C1521 C1520 1.377 . S
C1521 C1527 1.390 . S
C1522 H1513 0.930 . S
C1522 C1520 1.384 . S
C1522 C1523 1.372 . S
C1523 C1522 1.372 . S
C1523 C1524 1.400 . S
C1523 C1528 1.490 . S
C1524 H1514 0.930 . S
C1524 C1523 1.400 . S
C1524 C1527 1.386 . S
H1525 C1541 0.930 . S
H1526 C1542 0.931 . S
C1527 H1515 0.929 . S
C1527 C1521 1.390 . S
C1527 C1524 1.386 . S
C1528 C1523 1.490 . S
C1528 C1530 1.395 . S
C1528 C1531 1.403 . S
H1529 C1535 0.930 . S
C1530 H1516 0.930 . S
C1530 C1528 1.395 . S
C1530 C1533 1.403 . S
C1531 C1528 1.403 . S
C1531 C1532 1.524 . S
C1531 C1535 1.400 . S
C1532 H1517 0.960 . S
C1532 H1518 0.960 . S
C1532 H1519 0.960 . S
C1532 C1531 1.524 . S
C1533 C1530 1.403 . S
C1533 C1534 1.392 . S
C1533 C1537 1.495 . S
C1534 C1533 1.392 . S
C1534 C1535 1.385 . S
C1534 C1536 1.478 . S
C1535 H1529 0.930 . S
C1535 C1531 1.400 . S
C1535 C1534 1.385 . S
C1536 C1534 1.478 . S
C1536 C1538 1.381 . S
C1536 C1542 1.383 . S
C1537 C1533 1.495 . S
C1537 H1543 0.959 . S
C1537 H1544 0.961 . S
C1537 H1545 0.960 . S
C1538 C1536 1.381 . S
C1538 C1539 1.394 . S
C1538 H1546 0.930 . S
C1539 C1538 1.394 . S
C1539 C1540 1.383 . S
C1539 H1547 0.929 . S
C1540 C1539 1.383 . S
C1540 C1541 1.377 . S
C1541 H1525 0.930 . S
C1541 C1540 1.377 . S
C1541 C1542 1.379 . S
C1542 H1526 0.931 . S
C1542 C1536 1.383 . S
C1542 C1541 1.379 . S
H1543 C1537 0.959 . S
H1544 C1537 0.961 . S
H1545 C1537 0.960 . S
H1546 C1538 0.930 . S
H1547 C1539 0.929 . S
H1548 C1556 0.929 . S
H1549 C1558 0.930 . S
H1550 C1560 0.930 . S
H1551 C1563 0.929 . S
H1552 C1566 0.930 . S
H1553 C1568 0.960 . S
H1554 C1568 0.960 . S
H1555 C1568 0.960 . S
C1556 H1548 0.929 . S
C1556 C1557 1.377 . S
C1556 C1558 1.384 . S
C1557 C1556 1.377 . S
C1557 C1563 1.390 . S
C1558 H1549 0.930 . S
C1558 C1556 1.384 . S
C1558 C1559 1.372 . S
C1559 C1558 1.372 . S
C1559 C1560 1.400 . S
C1559 C1564 1.490 . S
C1560 H1550 0.930 . S
C1560 C1559 1.400 . S
C1560 C1563 1.386 . S
H1561 C1577 0.930 . S
H1562 C1578 0.931 . S
C1563 H1551 0.929 . S
C1563 C1557 1.390 . S
C1563 C1560 1.386 . S
C1564 C1559 1.490 . S
C1564 C1566 1.395 . S
C1564 C1567 1.403 . S
H1565 C1571 0.930 . S
C1566 H1552 0.930 . S
C1566 C1564 1.395 . S
C1566 C1569 1.403 . S
C1567 C1564 1.403 . S
C1567 C1568 1.524 . S
C1567 C1571 1.400 . S
C1568 H1553 0.960 . S
C1568 H1554 0.960 . S
C1568 H1555 0.960 . S
C1568 C1567 1.524 . S
C1569 C1566 1.403 . S
C1569 C1570 1.392 . S
C1569 C1573 1.495 . S
C1570 C1569 1.392 . S
C1570 C1571 1.385 . S
C1570 C1572 1.478 . S
C1571 H1565 0.930 . S
C1571 C1567 1.400 . S
C1571 C1570 1.385 . S
C1572 C1570 1.478 . S
C1572 C1574 1.381 . S
C1572 C1578 1.383 . S
C1573 C1569 1.495 . S
C1573 H1579 0.959 . S
C1573 H1580 0.961 . S
C1573 H1581 0.960 . S
C1574 C1572 1.381 . S
C1574 C1575 1.394 . S
C1574 H1582 0.930 . S
C1575 C1574 1.394 . S
C1575 C1576 1.383 . S
C1575 H1583 0.929 . S
C1576 C1575 1.383 . S
C1576 C1577 1.377 . S
C1577 H1561 0.930 . S
C1577 C1576 1.377 . S
C1577 C1578 1.379 . S
C1578 H1562 0.931 . S
C1578 C1572 1.383 . S
C1578 C1577 1.379 . S
H1579 C1573 0.959 . S
H1580 C1573 0.961 . S
H1581 C1573 0.960 . S
H1582 C1574 0.930 . S
H1583 C1575 0.929 . S
H1584 C1592 0.929 . S
H1585 C1594 0.930 . S
H1586 C1596 0.930 . S
H1587 C1599 0.929 . S
H1588 C1602 0.930 . S
H1589 C1604 0.960 . S
H1590 C1604 0.960 . S
H1591 C1604 0.960 . S
C1592 H1584 0.929 . S
C1592 C1593 1.377 . S
C1592 C1594 1.384 . S
C1593 C1592 1.377 . S
C1593 C1599 1.390 . S
C1594 H1585 0.930 . S
C1594 C1592 1.384 . S
C1594 C1595 1.372 . S
C1595 C1594 1.372 . S
C1595 C1596 1.400 . S
C1595 C1600 1.490 . S
C1596 H1586 0.930 . S
C1596 C1595 1.400 . S
C1596 C1599 1.386 . S
H1597 C1613 0.930 . S
H1598 C1614 0.931 . S
C1599 H1587 0.929 . S
C1599 C1593 1.390 . S
C1599 C1596 1.386 . S
C1600 C1595 1.490 . S
C1600 C1602 1.395 . S
C1600 C1603 1.403 . S
H1601 C1607 0.930 . S
C1602 H1588 0.930 . S
C1602 C1600 1.395 . S
C1602 C1605 1.403 . S
C1603 C1600 1.403 . S
C1603 C1604 1.524 . S
C1603 C1607 1.400 . S
C1604 H1589 0.960 . S
C1604 H1590 0.960 . S
C1604 H1591 0.960 . S
C1604 C1603 1.524 . S
C1605 C1602 1.403 . S
C1605 C1606 1.392 . S
C1605 C1609 1.495 . S
C1606 C1605 1.392 . S
C1606 C1607 1.385 . S
C1606 C1608 1.478 . S
C1607 H1601 0.930 . S
C1607 C1603 1.400 . S
C1607 C1606 1.385 . S
C1608 C1606 1.478 . S
C1608 C1610 1.381 . S
C1608 C1614 1.383 . S
C1609 C1605 1.495 . S
C1609 H1615 0.959 . S
C1609 H1616 0.961 . S
C1609 H1617 0.960 . S
C1610 C1608 1.381 . S
C1610 C1611 1.394 . S
C1610 H1618 0.930 . S
C1611 C1610 1.394 . S
C1611 C1612 1.383 . S
C1611 H1619 0.929 . S
C1612 C1611 1.383 . S
C1612 C1613 1.377 . S
C1613 H1597 0.930 . S
C1613 C1612 1.377 . S
C1613 C1614 1.379 . S
C1614 H1598 0.931 . S
C1614 C1608 1.383 . S
C1614 C1613 1.379 . S
H1615 C1609 0.959 . S
H1616 C1609 0.961 . S
H1617 C1609 0.960 . S
H1618 C1610 0.930 . S
H1619 C1611 0.929 . S
H1620 C1628 0.929 . S
H1621 C1630 0.930 . S
H1622 C1632 0.930 . S
H1623 C1635 0.929 . S
H1624 C1638 0.930 . S
H1625 C1640 0.960 . S
H1626 C1640 0.960 . S
H1627 C1640 0.960 . S
C1628 H1620 0.929 . S
C1628 C1629 1.377 . S
C1628 C1630 1.384 . S
C1629 C1628 1.377 . S
C1629 C1635 1.390 . S
C1630 H1621 0.930 . S
C1630 C1628 1.384 . S
C1630 C1631 1.372 . S
C1631 C1630 1.372 . S
C1631 C1632 1.400 . S
C1631 C1636 1.490 . S
C1632 H1622 0.930 . S
C1632 C1631 1.400 . S
C1632 C1635 1.386 . S
H1633 C1649 0.930 . S
H1634 C1650 0.931 . S
C1635 H1623 0.929 . S
C1635 C1629 1.390 . S
C1635 C1632 1.386 . S
C1636 C1631 1.490 . S
C1636 C1638 1.395 . S
C1636 C1639 1.403 . S
H1637 C1643 0.930 . S
C1638 H1624 0.930 . S
C1638 C1636 1.395 . S
C1638 C1641 1.403 . S
C1639 C1636 1.403 . S
C1639 C1640 1.524 . S
C1639 C1643 1.400 . S
C1640 H1625 0.960 . S
C1640 H1626 0.960 . S
C1640 H1627 0.960 . S
C1640 C1639 1.524 . S
C1641 C1638 1.403 . S
C1641 C1642 1.392 . S
C1641 C1645 1.495 . S
C1642 C1641 1.392 . S
C1642 C1643 1.385 . S
C1642 C1644 1.478 . S
C1643 H1637 0.930 . S
C1643 C1639 1.400 . S
C1643 C1642 1.385 . S
C1644 C1642 1.478 . S
C1644 C1646 1.381 . S
C1644 C1650 1.383 . S
C1645 C1641 1.495 . S
C1645 H1651 0.959 . S
C1645 H1652 0.961 . S
C1645 H1653 0.960 . S
C1646 C1644 1.381 . S
C1646 C1647 1.394 . S
C1646 H1654 0.930 . S
C1647 C1646 1.394 . S
C1647 C1648 1.383 . S
C1647 H1655 0.929 . S
C1648 C1647 1.383 . S
C1648 C1649 1.377 . S
C1649 H1633 0.930 . S
C1649 C1648 1.377 . S
C1649 C1650 1.379 . S
C1650 H1634 0.931 . S
C1650 C1644 1.383 . S
C1650 C1649 1.379 . S
H1651 C1645 0.959 . S
H1652 C1645 0.961 . S
H1653 C1645 0.960 . S
H1654 C1646 0.930 . S
H1655 C1647 0.929 . S
H1656 C1664 0.929 . S
H1657 C1666 0.930 . S
H1658 C1668 0.930 . S
H1659 C1671 0.929 . S
H1660 C1674 0.930 . S
H1661 C1676 0.960 . S
H1662 C1676 0.960 . S
H1663 C1676 0.960 . S
C1664 H1656 0.929 . S
C1664 C1665 1.377 . S
C1664 C1666 1.384 . S
C1665 C1664 1.377 . S
C1665 C1671 1.390 . S
C1666 H1657 0.930 . S
C1666 C1664 1.384 . S
C1666 C1667 1.372 . S
C1667 C1666 1.372 . S
C1667 C1668 1.400 . S
C1667 C1672 1.490 . S
C1668 H1658 0.930 . S
C1668 C1667 1.400 . S
C1668 C1671 1.386 . S
H1669 C1685 0.930 . S
H1670 C1686 0.931 . S
C1671 H1659 0.929 . S
C1671 C1665 1.390 . S
C1671 C1668 1.386 . S
C1672 C1667 1.490 . S
C1672 C1674 1.395 . S
C1672 C1675 1.403 . S
H1673 C1679 0.930 . S
C1674 H1660 0.930 . S
C1674 C1672 1.395 . S
C1674 C1677 1.403 . S
C1675 C1672 1.403 . S
C1675 C1676 1.524 . S
C1675 C1679 1.400 . S
C1676 H1661 0.960 . S
C1676 H1662 0.960 . S
C1676 H1663 0.960 . S
C1676 C1675 1.524 . S
C1677 C1674 1.403 . S
C1677 C1678 1.392 . S
C1677 C1681 1.495 . S
C1678 C1677 1.392 . S
C1678 C1679 1.385 . S
C1678 C1680 1.478 . S
C1679 H1673 0.930 . S
C1679 C1675 1.400 . S
C1679 C1678 1.385 . S
C1680 C1678 1.478 . S
C1680 C1682 1.381 . S
C1680 C1686 1.383 . S
C1681 C1677 1.495 . S
C1681 H1687 0.959 . S
C1681 H1688 0.961 . S
C1681 H1689 0.960 . S
C1682 C1680 1.381 . S
C1682 C1683 1.394 . S
C1682 H1690 0.930 . S
C1683 C1682 1.394 . S
C1683 C1684 1.383 . S
C1683 H1691 0.929 . S
C1684 C1683 1.383 . S
C1684 C1685 1.377 . S
C1685 H1669 0.930 . S
C1685 C1684 1.377 . S
C1685 C1686 1.379 . S
C1686 H1670 0.931 . S
C1686 C1680 1.383 . S
C1686 C1685 1.379 . S
H1687 C1681 0.959 . S
H1688 C1681 0.961 . S
H1689 C1681 0.960 . S
H1690 C1682 0.930 . S
H1691 C1683 0.929 . S
H1692 C1700 0.929 . S
H1693 C1702 0.930 . S
H1694 C1704 0.930 . S
H1695 C1707 0.929 . S
H1696 C1710 0.930 . S
H1697 C1712 0.960 . S
H1698 C1712 0.960 . S
H1699 C1712 0.960 . S
C1700 H1692 0.929 . S
C1700 C1701 1.377 . S
C1700 C1702 1.384 . S
C1701 C1700 1.377 . S
C1701 C1707 1.390 . S
C1702 H1693 0.930 . S
C1702 C1700 1.384 . S
C1702 C1703 1.372 . S
C1703 C1702 1.372 . S
C1703 C1704 1.400 . S
C1703 C1708 1.490 . S
C1704 H1694 0.930 . S
C1704 C1703 1.400 . S
C1704 C1707 1.386 . S
H1705 C1721 0.930 . S
H1706 C1722 0.931 . S
C1707 H1695 0.929 . S
C1707 C1701 1.390 . S
C1707 C1704 1.386 . S
C1708 C1703 1.490 . S
C1708 C1710 1.395 . S
C1708 C1711 1.403 . S
H1709 C1715 0.930 . S
C1710 H1696 0.930 . S
C1710 C1708 1.395 . S
C1710 C1713 1.403 . S
C1711 C1708 1.403 . S
C1711 C1712 1.524 . S
C1711 C1715 1.400 . S
C1712 H1697 0.960 . S
C1712 H1698 0.960 . S
C1712 H1699 0.960 . S
C1712 C1711 1.524 . S
C1713 C1710 1.403 . S
C1713 C1714 1.392 . S
C1713 C1717 1.495 . S
C1714 C1713 1.392 . S
C1714 C1715 1.385 . S
C1714 C1716 1.478 . S
C1715 H1709 0.930 . S
C1715 C1711 1.400 . S
C1715 C1714 1.385 . S
C1716 C1714 1.478 . S
C1716 C1718 1.381 . S
C1716 C1722 1.383 . S
C1717 C1713 1.495 . S
C1717 H1723 0.959 . S
C1717 H1724 0.961 . S
C1717 H1725 0.960 . S
C1718 C1716 1.381 . S
C1718 C1719 1.394 . S
C1718 H1726 0.930 . S
C1719 C1718 1.394 . S
C1719 C1720 1.383 . S
C1719 H1727 0.929 . S
C1720 C1719 1.383 . S
C1720 C1721 1.377 . S
C1721 H1705 0.930 . S
C1721 C1720 1.377 . S
C1721 C1722 1.379 . S
C1722 H1706 0.931 . S
C1722 C1716 1.383 . S
C1722 C1721 1.379 . S
H1723 C1717 0.959 . S
H1724 C1717 0.961 . S
H1725 C1717 0.960 . S
H1726 C1718 0.930 . S
H1727 C1719 0.929 . S
H1728 C1736 0.929 . S
H1729 C1738 0.930 . S
H1730 C1740 0.930 . S
H1731 C1743 0.929 . S
H1732 C1746 0.930 . S
H1733 C1748 0.960 . S
H1734 C1748 0.960 . S
H1735 C1748 0.960 . S
C1736 H1728 0.929 . S
C1736 C1737 1.377 . S
C1736 C1738 1.384 . S
C1737 C1736 1.377 . S
C1737 C1743 1.390 . S
C1738 H1729 0.930 . S
C1738 C1736 1.384 . S
C1738 C1739 1.372 . S
C1739 C1738 1.372 . S
C1739 C1740 1.400 . S
C1739 C1744 1.490 . S
C1740 H1730 0.930 . S
C1740 C1739 1.400 . S
C1740 C1743 1.386 . S
H1741 C1757 0.930 . S
H1742 C1758 0.931 . S
C1743 H1731 0.929 . S
C1743 C1737 1.390 . S
C1743 C1740 1.386 . S
C1744 C1739 1.490 . S
C1744 C1746 1.395 . S
C1744 C1747 1.403 . S
H1745 C1751 0.930 . S
C1746 H1732 0.930 . S
C1746 C1744 1.395 . S
C1746 C1749 1.403 . S
C1747 C1744 1.403 . S
C1747 C1748 1.524 . S
C1747 C1751 1.400 . S
C1748 H1733 0.960 . S
C1748 H1734 0.960 . S
C1748 H1735 0.960 . S
C1748 C1747 1.524 . S
C1749 C1746 1.403 . S
C1749 C1750 1.392 . S
C1749 C1753 1.495 . S
C1750 C1749 1.392 . S
C1750 C1751 1.385 . S
C1750 C1752 1.478 . S
C1751 H1745 0.930 . S
C1751 C1747 1.400 . S
C1751 C1750 1.385 . S
C1752 C1750 1.478 . S
C1752 C1754 1.381 . S
C1752 C1758 1.383 . S
C1753 C1749 1.495 . S
C1753 H1759 0.959 . S
C1753 H1760 0.961 . S
C1753 H1761 0.960 . S
C1754 C1752 1.381 . S
C1754 C1755 1.394 . S
C1754 H1762 0.930 . S
C1755 C1754 1.394 . S
C1755 C1756 1.383 . S
C1755 H1763 0.929 . S
C1756 C1755 1.383 . S
C1756 C1757 1.377 . S
C1757 H1741 0.930 . S
C1757 C1756 1.377 . S
C1757 C1758 1.379 . S
C1758 H1742 0.931 . S
C1758 C1752 1.383 . S
C1758 C1757 1.379 . S
H1759 C1753 0.959 . S
H1760 C1753 0.961 . S
H1761 C1753 0.960 . S
H1762 C1754 0.930 . S
H1763 C1755 0.929 . S
H1764 C1772 0.929 . S
H1765 C1774 0.930 . S
H1766 C1776 0.930 . S
H1767 C1779 0.929 . S
H1768 C1782 0.930 . S
H1769 C1784 0.960 . S
H1770 C1784 0.960 . S
H1771 C1784 0.960 . S
C1772 H1764 0.929 . S
C1772 C1773 1.377 . S
C1772 C1774 1.384 . S
C1773 C1772 1.377 . S
C1773 C1779 1.390 . S
C1774 H1765 0.930 . S
C1774 C1772 1.384 . S
C1774 C1775 1.372 . S
C1775 C1774 1.372 . S
C1775 C1776 1.400 . S
C1775 C1780 1.490 . S
C1776 H1766 0.930 . S
C1776 C1775 1.400 . S
C1776 C1779 1.386 . S
H1777 C1793 0.930 . S
H1778 C1794 0.931 . S
C1779 H1767 0.929 . S
C1779 C1773 1.390 . S
C1779 C1776 1.386 . S
C1780 C1775 1.490 . S
C1780 C1782 1.395 . S
C1780 C1783 1.403 . S
H1781 C1787 0.930 . S
C1782 H1768 0.930 . S
C1782 C1780 1.395 . S
C1782 C1785 1.403 . S
C1783 C1780 1.403 . S
C1783 C1784 1.524 . S
C1783 C1787 1.400 . S
C1784 H1769 0.960 . S
C1784 H1770 0.960 . S
C1784 H1771 0.960 . S
C1784 C1783 1.524 . S
C1785 C1782 1.403 . S
C1785 C1786 1.392 . S
C1785 C1789 1.495 . S
C1786 C1785 1.392 . S
C1786 C1787 1.385 . S
C1786 C1788 1.478 . S
C1787 H1781 0.930 . S
C1787 C1783 1.400 . S
C1787 C1786 1.385 . S
C1788 C1786 1.478 . S
C1788 C1790 1.381 . S
C1788 C1794 1.383 . S
C1789 C1785 1.495 . S
C1789 H1795 0.959 . S
C1789 H1796 0.961 . S
C1789 H1797 0.960 . S
C1790 C1788 1.381 . S
C1790 C1791 1.394 . S
C1790 H1798 0.930 . S
C1791 C1790 1.394 . S
C1791 C1792 1.383 . S
C1791 H1799 0.929 . S
C1792 C1791 1.383 . S
C1792 C1793 1.377 . S
C1793 H1777 0.930 . S
C1793 C1792 1.377 . S
C1793 C1794 1.379 . S
C1794 H1778 0.931 . S
C1794 C1788 1.383 . S
C1794 C1793 1.379 . S
H1795 C1789 0.959 . S
H1796 C1789 0.961 . S
H1797 C1789 0.960 . S
H1798 C1790 0.930 . S
H1799 C1791 0.929 . S
H1800 C1808 0.929 . S
H1801 C1810 0.930 . S
H1802 C1812 0.930 . S
H1803 C1815 0.929 . S
H1804 C1818 0.930 . S
H1805 C1820 0.960 . S
H1806 C1820 0.960 . S
H1807 C1820 0.960 . S
C1808 H1800 0.929 . S
C1808 C1809 1.377 . S
C1808 C1810 1.384 . S
C1809 C1808 1.377 . S
C1809 C1815 1.390 . S
C1810 H1801 0.930 . S
C1810 C1808 1.384 . S
C1810 C1811 1.372 . S
C1811 C1810 1.372 . S
C1811 C1812 1.400 . S
C1811 C1816 1.490 . S
C1812 H1802 0.930 . S
C1812 C1811 1.400 . S
C1812 C1815 1.386 . S
H1813 C1829 0.930 . S
H1814 C1830 0.931 . S
C1815 H1803 0.929 . S
C1815 C1809 1.390 . S
C1815 C1812 1.386 . S
C1816 C1811 1.490 . S
C1816 C1818 1.395 . S
C1816 C1819 1.403 . S
H1817 C1823 0.930 . S
C1818 H1804 0.930 . S
C1818 C1816 1.395 . S
C1818 C1821 1.403 . S
C1819 C1816 1.403 . S
C1819 C1820 1.524 . S
C1819 C1823 1.400 . S
C1820 H1805 0.960 . S
C1820 H1806 0.960 . S
C1820 H1807 0.960 . S
C1820 C1819 1.524 . S
C1821 C1818 1.403 . S
C1821 C1822 1.392 . S
C1821 C1825 1.495 . S
C1822 C1821 1.392 . S
C1822 C1823 1.385 . S
C1822 C1824 1.478 . S
C1823 H1817 0.930 . S
C1823 C1819 1.400 . S
C1823 C1822 1.385 . S
C1824 C1822 1.478 . S
C1824 C1826 1.381 . S
C1824 C1830 1.383 . S
C1825 C1821 1.495 . S
C1825 H1831 0.959 . S
C1825 H1832 0.961 . S
C1825 H1833 0.960 . S
C1826 C1824 1.381 . S
C1826 C1827 1.394 . S
C1826 H1834 0.930 . S
C1827 C1826 1.394 . S
C1827 C1828 1.383 . S
C1827 H1835 0.929 . S
C1828 C1827 1.383 . S
C1828 C1829 1.377 . S
C1829 H1813 0.930 . S
C1829 C1828 1.377 . S
C1829 C1830 1.379 . S
C1830 H1814 0.931 . S
C1830 C1824 1.383 . S
C1830 C1829 1.379 . S
H1831 C1825 0.959 . S
H1832 C1825 0.961 . S
H1833 C1825 0.960 . S
H1834 C1826 0.930 . S
H1835 C1827 0.929 . S
H1836 C1844 0.929 . S
H1837 C1846 0.930 . S
H1838 C1848 0.930 . S
H1839 C1851 0.929 . S
H1840 C1854 0.930 . S
H1841 C1856 0.960 . S
H1842 C1856 0.960 . S
H1843 C1856 0.960 . S
C1844 H1836 0.929 . S
C1844 C1845 1.377 . S
C1844 C1846 1.384 . S
C1845 C1844 1.377 . S
C1845 C1851 1.390 . S
C1846 H1837 0.930 . S
C1846 C1844 1.384 . S
C1846 C1847 1.372 . S
C1847 C1846 1.372 . S
C1847 C1848 1.400 . S
C1847 C1852 1.490 . S
C1848 H1838 0.930 . S
C1848 C1847 1.400 . S
C1848 C1851 1.386 . S
H1849 C1865 0.930 . S
H1850 C1866 0.931 . S
C1851 H1839 0.929 . S
C1851 C1845 1.390 . S
C1851 C1848 1.386 . S
C1852 C1847 1.490 . S
C1852 C1854 1.395 . S
C1852 C1855 1.403 . S
H1853 C1859 0.930 . S
C1854 H1840 0.930 . S
C1854 C1852 1.395 . S
C1854 C1857 1.403 . S
C1855 C1852 1.403 . S
C1855 C1856 1.524 . S
C1855 C1859 1.400 . S
C1856 H1841 0.960 . S
C1856 H1842 0.960 . S
C1856 H1843 0.960 . S
C1856 C1855 1.524 . S
C1857 C1854 1.403 . S
C1857 C1858 1.392 . S
C1857 C1861 1.495 . S
C1858 C1857 1.392 . S
C1858 C1859 1.385 . S
C1858 C1860 1.478 . S
C1859 H1853 0.930 . S
C1859 C1855 1.400 . S
C1859 C1858 1.385 . S
C1860 C1858 1.478 . S
C1860 C1862 1.381 . S
C1860 C1866 1.383 . S
C1861 C1857 1.495 . S
C1861 H1867 0.959 . S
C1861 H1868 0.961 . S
C1861 H1869 0.960 . S
C1862 C1860 1.381 . S
C1862 C1863 1.394 . S
C1862 H1870 0.930 . S
C1863 C1862 1.394 . S
C1863 C1864 1.383 . S
C1863 H1871 0.929 . S
C1864 C1863 1.383 . S
C1864 C1865 1.377 . S
C1865 H1849 0.930 . S
C1865 C1864 1.377 . S
C1865 C1866 1.379 . S
C1866 H1850 0.931 . S
C1866 C1860 1.383 . S
C1866 C1865 1.379 . S
H1867 C1861 0.959 . S
H1868 C1861 0.961 . S
H1869 C1861 0.960 . S
H1870 C1862 0.930 . S
H1871 C1863 0.929 . S
H1872 C1880 0.929 . S
H1873 C1882 0.930 . S
H1874 C1884 0.930 . S
H1875 C1887 0.929 . S
H1876 C1890 0.930 . S
H1877 C1892 0.960 . S
H1878 C1892 0.960 . S
H1879 C1892 0.960 . S
C1880 H1872 0.929 . S
C1880 C1881 1.377 . S
C1880 C1882 1.384 . S
C1881 C1880 1.377 . S
C1881 C1887 1.390 . S
C1882 H1873 0.930 . S
C1882 C1880 1.384 . S
C1882 C1883 1.372 . S
C1883 C1882 1.372 . S
C1883 C1884 1.400 . S
C1883 C1888 1.490 . S
C1884 H1874 0.930 . S
C1884 C1883 1.400 . S
C1884 C1887 1.386 . S
H1885 C1901 0.930 . S
H1886 C1902 0.931 . S
C1887 H1875 0.929 . S
C1887 C1881 1.390 . S
C1887 C1884 1.386 . S
C1888 C1883 1.490 . S
C1888 C1890 1.395 . S
C1888 C1891 1.403 . S
H1889 C1895 0.930 . S
C1890 H1876 0.930 . S
C1890 C1888 1.395 . S
C1890 C1893 1.403 . S
C1891 C1888 1.403 . S
C1891 C1892 1.524 . S
C1891 C1895 1.400 . S
C1892 H1877 0.960 . S
C1892 H1878 0.960 . S
C1892 H1879 0.960 . S
C1892 C1891 1.524 . S
C1893 C1890 1.403 . S
C1893 C1894 1.392 . S
C1893 C1897 1.495 . S
C1894 C1893 1.392 . S
C1894 C1895 1.385 . S
C1894 C1896 1.478 . S
C1895 H1889 0.930 . S
C1895 C1891 1.400 . S
C1895 C1894 1.385 . S
C1896 C1894 1.478 . S
C1896 C1898 1.381 . S
C1896 C1902 1.383 . S
C1897 C1893 1.495 . S
C1897 H1903 0.959 . S
C1897 H1904 0.961 . S
C1897 H1905 0.960 . S
C1898 C1896 1.381 . S
C1898 C1899 1.394 . S
C1898 H1906 0.930 . S
C1899 C1898 1.394 . S
C1899 C1900 1.383 . S
C1899 H1907 0.929 . S
C1900 C1899 1.383 . S
C1900 C1901 1.377 . S
C1901 H1885 0.930 . S
C1901 C1900 1.377 . S
C1901 C1902 1.379 . S
C1902 H1886 0.931 . S
C1902 C1896 1.383 . S
C1902 C1901 1.379 . S
H1903 C1897 0.959 . S
H1904 C1897 0.961 . S
H1905 C1897 0.960 . S
H1906 C1898 0.930 . S
H1907 C1899 0.929 . S
H1908 C1916 0.929 . S
H1909 C1918 0.930 . S
H1910 C1920 0.930 . S
H1911 C1923 0.929 . S
H1912 C1926 0.930 . S
H1913 C1928 0.960 . S
H1914 C1928 0.960 . S
H1915 C1928 0.960 . S
C1916 H1908 0.929 . S
C1916 C1917 1.377 . S
C1916 C1918 1.384 . S
C1917 C1916 1.377 . S
C1917 C1923 1.390 . S
C1918 H1909 0.930 . S
C1918 C1916 1.384 . S
C1918 C1919 1.372 . S
C1919 C1918 1.372 . S
C1919 C1920 1.400 . S
C1919 C1924 1.490 . S
C1920 H1910 0.930 . S
C1920 C1919 1.400 . S
C1920 C1923 1.386 . S
H1921 C1937 0.930 . S
H1922 C1938 0.931 . S
C1923 H1911 0.929 . S
C1923 C1917 1.390 . S
C1923 C1920 1.386 . S
C1924 C1919 1.490 . S
C1924 C1926 1.395 . S
C1924 C1927 1.403 . S
H1925 C1931 0.930 . S
C1926 H1912 0.930 . S
C1926 C1924 1.395 . S
C1926 C1929 1.403 . S
C1927 C1924 1.403 . S
C1927 C1928 1.524 . S
C1927 C1931 1.400 . S
C1928 H1913 0.960 . S
C1928 H1914 0.960 . S
C1928 H1915 0.960 . S
C1928 C1927 1.524 . S
C1929 C1926 1.403 . S
C1929 C1930 1.392 . S
C1929 C1933 1.495 . S
C1930 C1929 1.392 . S
C1930 C1931 1.385 . S
C1930 C1932 1.478 . S
C1931 H1925 0.930 . S
C1931 C1927 1.400 . S
C1931 C1930 1.385 . S
C1932 C1930 1.478 . S
C1932 C1934 1.381 . S
C1932 C1938 1.383 . S
C1933 C1929 1.495 . S
C1933 H1939 0.959 . S
C1933 H1940 0.961 . S
C1933 H1941 0.960 . S
C1934 C1932 1.381 . S
C1934 C1935 1.394 . S
C1934 H1942 0.930 . S
C1935 C1934 1.394 . S
C1935 C1936 1.383 . S
C1935 H1943 0.929 . S
C1936 C1935 1.383 . S
C1936 C1937 1.377 . S
C1937 H1921 0.930 . S
C1937 C1936 1.377 . S
C1937 C1938 1.379 . S
C1938 H1922 0.931 . S
C1938 C1932 1.383 . S
C1938 C1937 1.379 . S
H1939 C1933 0.959 . S
H1940 C1933 0.961 . S
H1941 C1933 0.960 . S
H1942 C1934 0.930 . S
H1943 C1935 0.929 . S
H1944 C1952 0.929 . S
H1945 C1954 0.930 . S
H1946 C1956 0.930 . S
H1947 C1959 0.929 . S
H1948 C1962 0.930 . S
H1949 C1964 0.960 . S
H1950 C1964 0.960 . S
H1951 C1964 0.960 . S
C1952 H1944 0.929 . S
C1952 C1953 1.377 . S
C1952 C1954 1.384 . S
C1953 C1952 1.377 . S
C1953 C1959 1.390 . S
C1954 H1945 0.930 . S
C1954 C1952 1.384 . S
C1954 C1955 1.372 . S
C1955 C1954 1.372 . S
C1955 C1956 1.400 . S
C1955 C1960 1.490 . S
C1956 H1946 0.930 . S
C1956 C1955 1.400 . S
C1956 C1959 1.386 . S
H1957 C1973 0.930 . S
H1958 C1974 0.931 . S
C1959 H1947 0.929 . S
C1959 C1953 1.390 . S
C1959 C1956 1.386 . S
C1960 C1955 1.490 . S
C1960 C1962 1.395 . S
C1960 C1963 1.403 . S
H1961 C1967 0.930 . S
C1962 H1948 0.930 . S
C1962 C1960 1.395 . S
C1962 C1965 1.403 . S
C1963 C1960 1.403 . S
C1963 C1964 1.524 . S
C1963 C1967 1.400 . S
C1964 H1949 0.960 . S
C1964 H1950 0.960 . S
C1964 H1951 0.960 . S
C1964 C1963 1.524 . S
C1965 C1962 1.403 . S
C1965 C1966 1.392 . S
C1965 C1969 1.495 . S
C1966 C1965 1.392 . S
C1966 C1967 1.385 . S
C1966 C1968 1.478 . S
C1967 H1961 0.930 . S
C1967 C1963 1.400 . S
C1967 C1966 1.385 . S
C1968 C1966 1.478 . S
C1968 C1970 1.381 . S
C1968 C1974 1.383 . S
C1969 C1965 1.495 . S
C1969 H1975 0.959 . S
C1969 H1976 0.961 . S
C1969 H1977 0.960 . S
C1970 C1968 1.381 . S
C1970 C1971 1.394 . S
C1970 H1978 0.930 . S
C1971 C1970 1.394 . S
C1971 C1972 1.383 . S
C1971 H1979 0.929 . S
C1972 C1971 1.383 . S
C1972 C1973 1.377 . S
C1973 H1957 0.930 . S
C1973 C1972 1.377 . S
C1973 C1974 1.379 . S
C1974 H1958 0.931 . S
C1974 C1968 1.383 . S
C1974 C1973 1.379 . S
H1975 C1969 0.959 . S
H1976 C1969 0.961 . S
H1977 C1969 0.960 . S
H1978 C1970 0.930 . S
H1979 C1971 0.929 . S
H1980 C1988 0.929 . S
H1981 C1990 0.930 . S
H1982 C1992 0.930 . S
H1983 C1995 0.929 . S
H1984 C1998 0.930 . S
H1985 C2000 0.960 . S
H1986 C2000 0.960 . S
H1987 C2000 0.960 . S
C1988 H1980 0.929 . S
C1988 C1989 1.377 . S
C1988 C1990 1.384 . S
C1989 C1988 1.377 . S
C1989 C1995 1.390 . S
C1990 H1981 0.930 . S
C1990 C1988 1.384 . S
C1990 C1991 1.372 . S
C1991 C1990 1.372 . S
C1991 C1992 1.400 . S
C1991 C1996 1.490 . S
C1992 H1982 0.930 . S
C1992 C1991 1.400 . S
C1992 C1995 1.386 . S
H1993 C2009 0.930 . S
H1994 C2010 0.931 . S
C1995 H1983 0.929 . S
C1995 C1989 1.390 . S
C1995 C1992 1.386 . S
C1996 C1991 1.490 . S
C1996 C1998 1.395 . S
C1996 C1999 1.403 . S
H1997 C2003 0.930 . S
C1998 H1984 0.930 . S
C1998 C1996 1.395 . S
C1998 C2001 1.403 . S
C1999 C1996 1.403 . S
C1999 C2000 1.524 . S
C1999 C2003 1.400 . S
C2000 H1985 0.960 . S
C2000 H1986 0.960 . S
C2000 H1987 0.960 . S
C2000 C1999 1.524 . S
C2001 C1998 1.403 . S
C2001 C2002 1.392 . S
C2001 C2005 1.495 . S
C2002 C2001 1.392 . S
C2002 C2003 1.385 . S
C2002 C2004 1.478 . S
C2003 H1997 0.930 . S
C2003 C1999 1.400 . S
C2003 C2002 1.385 . S
C2004 C2002 1.478 . S
C2004 C2006 1.381 . S
C2004 C2010 1.383 . S
C2005 C2001 1.495 . S
C2005 H2011 0.959 . S
C2005 H2012 0.961 . S
C2005 H2013 0.960 . S
C2006 C2004 1.381 . S
C2006 C2007 1.394 . S
C2006 H2014 0.930 . S
C2007 C2006 1.394 . S
C2007 C2008 1.383 . S
C2007 H2015 0.929 . S
C2008 C2007 1.383 . S
C2008 C2009 1.377 . S
C2009 H1993 0.930 . S
C2009 C2008 1.377 . S
C2009 C2010 1.379 . S
C2010 H1994 0.931 . S
C2010 C2004 1.383 . S
C2010 C2009 1.379 . S
H2011 C2005 0.959 . S
H2012 C2005 0.961 . S
H2013 C2005 0.960 . S
H2014 C2006 0.930 . S
H2015 C2007 0.929 . S
H2016 C2024 0.929 . S
H2017 C2026 0.930 . S
H2018 C2028 0.930 . S
H2019 C2031 0.929 . S
H2020 C2034 0.930 . S
H2021 C2036 0.960 . S
H2022 C2036 0.960 . S
H2023 C2036 0.960 . S
C2024 H2016 0.929 . S
C2024 C2025 1.377 . S
C2024 C2026 1.384 . S
C2025 C2024 1.377 . S
C2025 C2031 1.390 . S
C2026 H2017 0.930 . S
C2026 C2024 1.384 . S
C2026 C2027 1.372 . S
C2027 C2026 1.372 . S
C2027 C2028 1.400 . S
C2027 C2032 1.490 . S
C2028 H2018 0.930 . S
C2028 C2027 1.400 . S
C2028 C2031 1.386 . S
H2029 C2045 0.930 . S
H2030 C2046 0.931 . S
C2031 H2019 0.929 . S
C2031 C2025 1.390 . S
C2031 C2028 1.386 . S
C2032 C2027 1.490 . S
C2032 C2034 1.395 . S
C2032 C2035 1.403 . S
H2033 C2039 0.930 . S
C2034 H2020 0.930 . S
C2034 C2032 1.395 . S
C2034 C2037 1.403 . S
C2035 C2032 1.403 . S
C2035 C2036 1.524 . S
C2035 C2039 1.400 . S
C2036 H2021 0.960 . S
C2036 H2022 0.960 . S
C2036 H2023 0.960 . S
C2036 C2035 1.524 . S
C2037 C2034 1.403 . S
C2037 C2038 1.392 . S
C2037 C2041 1.495 . S
C2038 C2037 1.392 . S
C2038 C2039 1.385 . S
C2038 C2040 1.478 . S
C2039 H2033 0.930 . S
C2039 C2035 1.400 . S
C2039 C2038 1.385 . S
C2040 C2038 1.478 . S
C2040 C2042 1.381 . S
C2040 C2046 1.383 . S
C2041 C2037 1.495 . S
C2041 H2047 0.959 . S
C2041 H2048 0.961 . S
C2041 H2049 0.960 . S
C2042 C2040 1.381 . S
C2042 C2043 1.394 . S
C2042 H2050 0.930 . S
C2043 C2042 1.394 . S
C2043 C2044 1.383 . S
C2043 H2051 0.929 . S
C2044 C2043 1.383 . S
C2044 C2045 1.377 . S
C2045 H2029 0.930 . S
C2045 C2044 1.377 . S
C2045 C2046 1.379 . S
C2046 H2030 0.931 . S
C2046 C2040 1.383 . S
C2046 C2045 1.379 . S
H2047 C2041 0.959 . S
H2048 C2041 0.961 . S
H2049 C2041 0.960 . S
H2050 C2042 0.930 . S
H2051 C2043 0.929 . S
H2052 C2060 0.929 . S
H2053 C2062 0.930 . S
H2054 C2064 0.930 . S
H2055 C2067 0.929 . S
H2056 C2070 0.930 . S
H2057 C2072 0.960 . S
H2058 C2072 0.960 . S
H2059 C2072 0.960 . S
C2060 H2052 0.929 . S
C2060 C2061 1.377 . S
C2060 C2062 1.384 . S
C2061 C2060 1.377 . S
C2061 C2067 1.390 . S
C2062 H2053 0.930 . S
C2062 C2060 1.384 . S
C2062 C2063 1.372 . S
C2063 C2062 1.372 . S
C2063 C2064 1.400 . S
C2063 C2068 1.490 . S
C2064 H2054 0.930 . S
C2064 C2063 1.400 . S
C2064 C2067 1.386 . S
H2065 C2081 0.930 . S
H2066 C2082 0.931 . S
C2067 H2055 0.929 . S
C2067 C2061 1.390 . S
C2067 C2064 1.386 . S
C2068 C2063 1.490 . S
C2068 C2070 1.395 . S
C2068 C2071 1.403 . S
H2069 C2075 0.930 . S
C2070 H2056 0.930 . S
C2070 C2068 1.395 . S
C2070 C2073 1.403 . S
C2071 C2068 1.403 . S
C2071 C2072 1.524 . S
C2071 C2075 1.400 . S
C2072 H2057 0.960 . S
C2072 H2058 0.960 . S
C2072 H2059 0.960 . S
C2072 C2071 1.524 . S
C2073 C2070 1.403 . S
C2073 C2074 1.392 . S
C2073 C2077 1.495 . S
C2074 C2073 1.392 . S
C2074 C2075 1.385 . S
C2074 C2076 1.478 . S
C2075 H2069 0.930 . S
C2075 C2071 1.400 . S
C2075 C2074 1.385 . S
C2076 C2074 1.478 . S
C2076 C2078 1.381 . S
C2076 C2082 1.383 . S
C2077 C2073 1.495 . S
C2077 H2083 0.959 . S
C2077 H2084 0.961 . S
C2077 H2085 0.960 . S
C2078 C2076 1.381 . S
C2078 C2079 1.394 . S
C2078 H2086 0.930 . S
C2079 C2078 1.394 . S
C2079 C2080 1.383 . S
C2079 H2087 0.929 . S
C2080 C2079 1.383 . S
C2080 C2081 1.377 . S
C2081 H2065 0.930 . S
C2081 C2080 1.377 . S
C2081 C2082 1.379 . S
C2082 H2066 0.931 . S
C2082 C2076 1.383 . S
C2082 C2081 1.379 . S
H2083 C2077 0.959 . S
H2084 C2077 0.961 . S
H2085 C2077 0.960 . S
H2086 C2078 0.930 . S
H2087 C2079 0.929 . S
H2088 C2096 0.929 . S
H2089 C2098 0.930 . S
H2090 C2100 0.930 . S
H2091 C2103 0.929 . S
H2092 C2106 0.930 . S
H2093 C2108 0.960 . S
H2094 C2108 0.960 . S
H2095 C2108 0.960 . S
C2096 H2088 0.929 . S
C2096 C2097 1.377 . S
C2096 C2098 1.384 . S
C2097 C2096 1.377 . S
C2097 C2103 1.390 . S
C2098 H2089 0.930 . S
C2098 C2096 1.384 . S
C2098 C2099 1.372 . S
C2099 C2098 1.372 . S
C2099 C2100 1.400 . S
C2099 C2104 1.490 . S
C2100 H2090 0.930 . S
C2100 C2099 1.400 . S
C2100 C2103 1.386 . S
H2101 C2117 0.930 . S
H2102 C2118 0.931 . S
C2103 H2091 0.929 . S
C2103 C2097 1.390 . S
C2103 C2100 1.386 . S
C2104 C2099 1.490 . S
C2104 C2106 1.395 . S
C2104 C2107 1.403 . S
H2105 C2111 0.930 . S
C2106 H2092 0.930 . S
C2106 C2104 1.395 . S
C2106 C2109 1.403 . S
C2107 C2104 1.403 . S
C2107 C2108 1.524 . S
C2107 C2111 1.400 . S
C2108 H2093 0.960 . S
C2108 H2094 0.960 . S
C2108 H2095 0.960 . S
C2108 C2107 1.524 . S
C2109 C2106 1.403 . S
C2109 C2110 1.392 . S
C2109 C2113 1.495 . S
C2110 C2109 1.392 . S
C2110 C2111 1.385 . S
C2110 C2112 1.478 . S
C2111 H2105 0.930 . S
C2111 C2107 1.400 . S
C2111 C2110 1.385 . S
C2112 C2110 1.478 . S
C2112 C2114 1.381 . S
C2112 C2118 1.383 . S
C2113 C2109 1.495 . S
C2113 H2119 0.959 . S
C2113 H2120 0.961 . S
C2113 H2121 0.960 . S
C2114 C2112 1.381 . S
C2114 C2115 1.394 . S
C2114 H2122 0.930 . S
C2115 C2114 1.394 . S
C2115 C2116 1.383 . S
C2115 H2123 0.929 . S
C2116 C2115 1.383 . S
C2116 C2117 1.377 . S
C2117 H2101 0.930 . S
C2117 C2116 1.377 . S
C2117 C2118 1.379 . S
C2118 H2102 0.931 . S
C2118 C2112 1.383 . S
C2118 C2117 1.379 . S
H2119 C2113 0.959 . S
H2120 C2113 0.961 . S
H2121 C2113 0.960 . S
H2122 C2114 0.930 . S
H2123 C2115 0.929 . S
H2124 C2132 0.929 . S
H2125 C2134 0.930 . S
H2126 C2136 0.930 . S
H2127 C2139 0.929 . S
H2128 C2142 0.930 . S
H2129 C2144 0.960 . S
H2130 C2144 0.960 . S
H2131 C2144 0.960 . S
C2132 H2124 0.929 . S
C2132 C2133 1.377 . S
C2132 C2134 1.384 . S
C2133 C2132 1.377 . S
C2133 C2139 1.390 . S
C2134 H2125 0.930 . S
C2134 C2132 1.384 . S
C2134 C2135 1.372 . S
C2135 C2134 1.372 . S
C2135 C2136 1.400 . S
C2135 C2140 1.490 . S
C2136 H2126 0.930 . S
C2136 C2135 1.400 . S
C2136 C2139 1.386 . S
H2137 C2153 0.930 . S
H2138 C2154 0.931 . S
C2139 H2127 0.929 . S
C2139 C2133 1.390 . S
C2139 C2136 1.386 . S
C2140 C2135 1.490 . S
C2140 C2142 1.395 . S
C2140 C2143 1.403 . S
H2141 C2147 0.930 . S
C2142 H2128 0.930 . S
C2142 C2140 1.395 . S
C2142 C2145 1.403 . S
C2143 C2140 1.403 . S
C2143 C2144 1.524 . S
C2143 C2147 1.400 . S
C2144 H2129 0.960 . S
C2144 H2130 0.960 . S
C2144 H2131 0.960 . S
C2144 C2143 1.524 . S
C2145 C2142 1.403 . S
C2145 C2146 1.392 . S
C2145 C2149 1.495 . S
C2146 C2145 1.392 . S
C2146 C2147 1.385 . S
C2146 C2148 1.478 . S
C2147 H2141 0.930 . S
C2147 C2143 1.400 . S
C2147 C2146 1.385 . S
C2148 C2146 1.478 . S
C2148 C2150 1.381 . S
C2148 C2154 1.383 . S
C2149 C2145 1.495 . S
C2149 H2155 0.959 . S
C2149 H2156 0.961 . S
C2149 H2157 0.960 . S
C2150 C2148 1.381 . S
C2150 C2151 1.394 . S
C2150 H2158 0.930 . S
C2151 C2150 1.394 . S
C2151 C2152 1.383 . S
C2151 H2159 0.929 . S
C2152 C2151 1.383 . S
C2152 C2153 1.377 . S
C2153 H2137 0.930 . S
C2153 C2152 1.377 . S
C2153 C2154 1.379 . S
C2154 H2138 0.931 . S
C2154 C2148 1.383 . S
C2154 C2153 1.379 . S
H2155 C2149 0.959 . S
H2156 C2149 0.961 . S
H2157 C2149 0.960 . S
H2158 C2150 0.930 . S
H2159 C2151 0.929 . S
H2160 C2168 0.929 . S
H2161 C2170 0.930 . S
H2162 C2172 0.930 . S
H2163 C2175 0.929 . S
H2164 C2178 0.930 . S
H2165 C2180 0.960 . S
H2166 C2180 0.960 . S
H2167 C2180 0.960 . S
C2168 H2160 0.929 . S
C2168 C2169 1.377 . S
C2168 C2170 1.384 . S
C2169 C2168 1.377 . S
C2169 C2175 1.390 . S
C2170 H2161 0.930 . S
C2170 C2168 1.384 . S
C2170 C2171 1.372 . S
C2171 C2170 1.372 . S
C2171 C2172 1.400 . S
C2171 C2176 1.490 . S
C2172 H2162 0.930 . S
C2172 C2171 1.400 . S
C2172 C2175 1.386 . S
H2173 C2189 0.930 . S
H2174 C2190 0.931 . S
C2175 H2163 0.929 . S
C2175 C2169 1.390 . S
C2175 C2172 1.386 . S
C2176 C2171 1.490 . S
C2176 C2178 1.395 . S
C2176 C2179 1.403 . S
H2177 C2183 0.930 . S
C2178 H2164 0.930 . S
C2178 C2176 1.395 . S
C2178 C2181 1.403 . S
C2179 C2176 1.403 . S
C2179 C2180 1.524 . S
C2179 C2183 1.400 . S
C2180 H2165 0.960 . S
C2180 H2166 0.960 . S
C2180 H2167 0.960 . S
C2180 C2179 1.524 . S
C2181 C2178 1.403 . S
C2181 C2182 1.392 . S
C2181 C2185 1.495 . S
C2182 C2181 1.392 . S
C2182 C2183 1.385 . S
C2182 C2184 1.478 . S
C2183 H2177 0.930 . S
C2183 C2179 1.400 . S
C2183 C2182 1.385 . S
C2184 C2182 1.478 . S
C2184 C2186 1.381 . S
C2184 C2190 1.383 . S
C2185 C2181 1.495 . S
C2185 H2191 0.959 . S
C2185 H2192 0.961 . S
C2185 H2193 0.960 . S
C2186 C2184 1.381 . S
C2186 C2187 1.394 . S
C2186 H2194 0.930 . S
C2187 C2186 1.394 . S
C2187 C2188 1.383 . S
C2187 H2195 0.929 . S
C2188 C2187 1.383 . S
C2188 C2189 1.377 . S
C2189 H2173 0.930 . S
C2189 C2188 1.377 . S
C2189 C2190 1.379 . S
C2190 H2174 0.931 . S
C2190 C2184 1.383 . S
C2190 C2189 1.379 . S
H2191 C2185 0.959 . S
H2192 C2185 0.961 . S
H2193 C2185 0.960 . S
H2194 C2186 0.930 . S
H2195 C2187 0.929 . S
H2196 C2204 0.929 . S
H2197 C2206 0.930 . S
H2198 C2208 0.930 . S
H2199 C2211 0.929 . S
H2200 C2214 0.930 . S
H2201 C2216 0.960 . S
H2202 C2216 0.960 . S
H2203 C2216 0.960 . S
C2204 H2196 0.929 . S
C2204 C2205 1.377 . S
C2204 C2206 1.384 . S
C2205 C2204 1.377 . S
C2205 C2211 1.390 . S
C2206 H2197 0.930 . S
C2206 C2204 1.384 . S
C2206 C2207 1.372 . S
C2207 C2206 1.372 . S
C2207 C2208 1.400 . S
C2207 C2212 1.490 . S
C2208 H2198 0.930 . S
C2208 C2207 1.400 . S
C2208 C2211 1.386 . S
H2209 C2225 0.930 . S
H2210 C2226 0.931 . S
C2211 H2199 0.929 . S
C2211 C2205 1.390 . S
C2211 C2208 1.386 . S
C2212 C2207 1.490 . S
C2212 C2214 1.395 . S
C2212 C2215 1.403 . S
H2213 C2219 0.930 . S
C2214 H2200 0.930 . S
C2214 C2212 1.395 . S
C2214 C2217 1.403 . S
C2215 C2212 1.403 . S
C2215 C2216 1.524 . S
C2215 C2219 1.400 . S
C2216 H2201 0.960 . S
C2216 H2202 0.960 . S
C2216 H2203 0.960 . S
C2216 C2215 1.524 . S
C2217 C2214 1.403 . S
C2217 C2218 1.392 . S
C2217 C2221 1.495 . S
C2218 C2217 1.392 . S
C2218 C2219 1.385 . S
C2218 C2220 1.478 . S
C2219 H2213 0.930 . S
C2219 C2215 1.400 . S
C2219 C2218 1.385 . S
C2220 C2218 1.478 . S
C2220 C2222 1.381 . S
C2220 C2226 1.383 . S
C2221 C2217 1.495 . S
C2221 H2227 0.959 . S
C2221 H2228 0.961 . S
C2221 H2229 0.960 . S
C2222 C2220 1.381 . S
C2222 C2223 1.394 . S
C2222 H2230 0.930 . S
C2223 C2222 1.394 . S
C2223 C2224 1.383 . S
C2223 H2231 0.929 . S
C2224 C2223 1.383 . S
C2224 C2225 1.377 . S
C2225 H2209 0.930 . S
C2225 C2224 1.377 . S
C2225 C2226 1.379 . S
C2226 H2210 0.931 . S
C2226 C2220 1.383 . S
C2226 C2225 1.379 . S
H2227 C2221 0.959 . S
H2228 C2221 0.961 . S
H2229 C2221 0.960 . S
H2230 C2222 0.930 . S
H2231 C2223 0.929 . S
H2232 C2240 0.929 . S
H2233 C2242 0.930 . S
H2234 C2244 0.930 . S
H2235 C2247 0.929 . S
H2236 C2250 0.930 . S
H2237 C2252 0.960 . S
H2238 C2252 0.960 . S
H2239 C2252 0.960 . S
C2240 H2232 0.929 . S
C2240 C2241 1.377 . S
C2240 C2242 1.384 . S
C2241 C2240 1.377 . S
C2241 C2247 1.390 . S
C2242 H2233 0.930 . S
C2242 C2240 1.384 . S
C2242 C2243 1.372 . S
C2243 C2242 1.372 . S
C2243 C2244 1.400 . S
C2243 C2248 1.490 . S
C2244 H2234 0.930 . S
C2244 C2243 1.400 . S
C2244 C2247 1.386 . S
H2245 C2261 0.930 . S
H2246 C2262 0.931 . S
C2247 H2235 0.929 . S
C2247 C2241 1.390 . S
C2247 C2244 1.386 . S
C2248 C2243 1.490 . S
C2248 C2250 1.395 . S
C2248 C2251 1.403 . S
H2249 C2255 0.930 . S
C2250 H2236 0.930 . S
C2250 C2248 1.395 . S
C2250 C2253 1.403 1_455 S
C2251 C2248 1.403 . S
C2251 C2252 1.524 . S
C2251 C2255 1.400 1_455 S
C2252 H2237 0.960 . S
C2252 H2238 0.960 . S
C2252 H2239 0.960 . S
C2252 C2251 1.524 . S
C2253 C2250 1.403 1_655 S
C2253 C2254 1.392 . S
C2253 C2257 1.495 . S
C2254 C2253 1.392 . S
C2254 C2255 1.385 . S
C2254 C2256 1.478 . S
C2255 H2249 0.930 . S
C2255 C2251 1.400 1_655 S
C2255 C2254 1.385 . S
C2256 C2254 1.478 . S
C2256 C2258 1.381 . S
C2256 C2262 1.383 . S
C2257 C2253 1.495 . S
C2257 H2263 0.959 . S
C2257 H2264 0.961 . S
C2257 H2265 0.960 . S
C2258 C2256 1.381 . S
C2258 C2259 1.394 . S
C2258 H2266 0.930 . S
C2259 C2258 1.394 . S
C2259 C2260 1.383 . S
C2259 H2267 0.929 . S
C2260 C2259 1.383 . S
C2260 C2261 1.377 . S
C2261 H2245 0.930 . S
C2261 C2260 1.377 . S
C2261 C2262 1.379 . S
C2262 H2246 0.931 . S
C2262 C2256 1.383 . S
C2262 C2261 1.379 . S
H2263 C2257 0.959 . S
H2264 C2257 0.961 . S
H2265 C2257 0.960 . S
H2266 C2258 0.930 . S
H2267 C2259 0.929 . S
H2268 C2276 0.929 . S
H2269 C2278 0.930 . S
H2270 C2280 0.930 . S
H2271 C2283 0.929 . S
H2272 C2286 0.930 . S
H2273 C2288 0.960 . S
H2274 C2288 0.960 . S
H2275 C2288 0.960 . S
C2276 H2268 0.929 . S
C2276 C2277 1.377 . S
C2276 C2278 1.384 . S
C2277 C2276 1.377 . S
C2277 C2283 1.390 . S
C2278 H2269 0.930 . S
C2278 C2276 1.384 . S
C2278 C2279 1.372 . S
C2279 C2278 1.372 . S
C2279 C2280 1.400 . S
C2279 C2284 1.490 . S
C2280 H2270 0.930 . S
C2280 C2279 1.400 . S
C2280 C2283 1.386 . S
H2281 C2297 0.930 . S
H2282 C2298 0.931 . S
C2283 H2271 0.929 . S
C2283 C2277 1.390 . S
C2283 C2280 1.386 . S
C2284 C2279 1.490 . S
C2284 C2286 1.395 . S
C2284 C2287 1.403 . S
H2285 C2291 0.930 . S
C2286 H2272 0.930 . S
C2286 C2284 1.395 . S
C2286 C2289 1.403 . S
C2287 C2284 1.403 . S
C2287 C2288 1.524 . S
C2287 C2291 1.400 . S
C2288 H2273 0.960 . S
C2288 H2274 0.960 . S
C2288 H2275 0.960 . S
C2288 C2287 1.524 . S
C2289 C2286 1.403 . S
C2289 C2290 1.392 . S
C2289 C2293 1.495 . S
C2290 C2289 1.392 . S
C2290 C2291 1.385 . S
C2290 C2292 1.478 . S
C2291 H2285 0.930 . S
C2291 C2287 1.400 . S
C2291 C2290 1.385 . S
C2292 C2290 1.478 . S
C2292 C2294 1.381 . S
C2292 C2298 1.383 . S
C2293 C2289 1.495 . S
C2293 H2299 0.959 . S
C2293 H2300 0.961 . S
C2293 H2301 0.960 . S
C2294 C2292 1.381 . S
C2294 C2295 1.394 . S
C2294 H2302 0.930 . S
C2295 C2294 1.394 . S
C2295 C2296 1.383 . S
C2295 H2303 0.929 . S
C2296 C2295 1.383 . S
C2296 C2297 1.377 . S
C2297 H2281 0.930 . S
C2297 C2296 1.377 . S
C2297 C2298 1.379 . S
C2298 H2282 0.931 . S
C2298 C2292 1.383 . S
C2298 C2297 1.379 . S
H2299 C2293 0.959 . S
H2300 C2293 0.961 . S
H2301 C2293 0.960 . S
H2302 C2294 0.930 . S
H2303 C2295 0.929 . S
H2304 C2312 0.929 . S
H2305 C2314 0.930 . S
H2306 C2316 0.930 . S
H2307 C2319 0.929 . S
H2308 C2322 0.930 . S
H2309 C2324 1.051 . S
H2310 C2324 0.960 . S
H2311 C2324 0.960 . S
C2312 H2304 0.929 . S
C2312 C2313 1.377 . S
C2312 C2314 1.384 . S
C2313 C2312 1.377 . S
C2313 C2319 1.390 . S
C2314 H2305 0.930 . S
C2314 C2312 1.384 . S
C2314 C2315 1.372 . S
C2315 C2314 1.372 . S
C2315 C2316 1.400 . S
C2315 C2320 1.490 . S
C2316 H2306 0.930 . S
C2316 C2315 1.400 . S
C2316 C2319 1.386 . S
H2317 C2333 0.930 . S
H2318 C2334 0.931 . S
C2319 H2307 0.929 . S
C2319 C2313 1.390 . S
C2319 C2316 1.386 . S
C2320 C2315 1.490 . S
C2320 C2322 1.395 . S
C2320 C2323 1.403 . S
H2321 C2327 0.930 . S
C2322 H2308 0.930 . S
C2322 C2320 1.395 . S
C2322 C2325 1.403 1_545 S
C2323 C2320 1.403 . S
C2323 C2324 1.524 . S
C2323 C2327 1.400 1_545 S
C2324 H2309 1.051 . S
C2324 H2310 0.960 . S
C2324 H2311 0.960 . S
C2324 C2323 1.524 . S
C2325 C2322 1.403 1_565 S
C2325 C2326 1.392 . S
C2325 C2329 1.495 . S
C2326 C2325 1.392 . S
C2326 C2327 1.385 . S
C2326 C2328 1.478 . S
C2327 H2321 0.930 . S
C2327 C2323 1.400 1_565 S
C2327 C2326 1.385 . S
C2328 C2326 1.478 . S
C2328 C2330 1.381 . S
C2328 C2334 1.383 . S
C2329 C2325 1.495 . S
C2329 H2335 0.959 . S
C2329 H2336 0.961 . S
C2329 H2337 0.960 . S
C2330 C2328 1.381 . S
C2330 C2331 1.394 . S
C2330 H2338 0.930 . S
C2331 C2330 1.394 . S
C2331 C2332 1.383 . S
C2331 H2339 0.929 . S
C2332 C2331 1.383 . S
C2332 C2333 1.377 . S
C2333 H2317 0.930 . S
C2333 C2332 1.377 . S
C2333 C2334 1.379 . S
C2334 H2318 0.931 . S
C2334 C2328 1.383 . S
C2334 C2333 1.379 . S
H2335 C2329 0.959 . S
H2336 C2329 0.961 . S
H2337 C2329 0.960 . S
H2338 C2330 0.930 . S
H2339 C2331 0.929 . S
H2340 C2348 0.929 . S
H2341 C2350 0.930 . S
H2342 C2352 0.930 . S
H2343 C2355 0.929 . S
H2344 C2358 0.930 . S
H2345 C2360 0.920 1_565 S
H2346 C2360 0.960 . S
H2347 C2360 0.960 . S
C2348 H2340 0.929 . S
C2348 C2349 1.377 . S
C2348 C2350 1.384 . S
C2349 C2348 1.377 . S
C2349 C2355 1.390 . S
C2350 H2341 0.930 . S
C2350 C2348 1.384 . S
C2350 C2351 1.372 . S
C2351 C2350 1.372 . S
C2351 C2352 1.400 . S
C2351 C2356 1.490 . S
C2352 H2342 0.930 . S
C2352 C2351 1.400 . S
C2352 C2355 1.386 . S
H2353 C2369 0.930 . S
H2354 C2370 0.931 . S
C2355 H2343 0.929 . S
C2355 C2349 1.390 . S
C2355 C2352 1.386 . S
C2356 C2351 1.490 . S
C2356 C2358 1.395 . S
C2356 C2359 1.403 . S
H2357 C2363 0.930 . S
C2358 H2344 0.930 . S
C2358 C2356 1.395 . S
C2358 C2361 1.403 1_545 S
C2359 C2356 1.403 . S
C2359 C2360 1.524 . S
C2359 C2363 1.400 1_545 S
C2360 H2345 0.920 1_545 S
C2360 H2346 0.960 . S
C2360 H2347 0.960 . S
C2360 C2359 1.524 . S
C2361 C2358 1.403 1_565 S
C2361 C2362 1.392 . S
C2361 C2365 1.495 . S
C2362 C2361 1.392 . S
C2362 C2363 1.385 . S
C2362 C2364 1.478 . S
C2363 H2357 0.930 . S
C2363 C2359 1.400 1_565 S
C2363 C2362 1.385 . S
C2364 C2362 1.478 . S
C2364 C2366 1.381 . S
C2364 C2370 1.383 . S
C2365 C2361 1.495 . S
C2365 H2371 0.969 1_565 S
C2365 H2372 0.961 . S
C2365 H2373 0.960 . S
C2366 C2364 1.381 . S
C2366 C2367 1.394 . S
C2366 H2374 0.930 . S
C2367 C2366 1.394 . S
C2367 C2368 1.383 . S
C2367 H2375 0.929 . S
C2368 C2367 1.383 . S
C2368 C2369 1.377 . S
C2369 H2353 0.930 . S
C2369 C2368 1.377 . S
C2369 C2370 1.379 . S
C2370 H2354 0.931 . S
C2370 C2364 1.383 . S
C2370 C2369 1.379 . S
H2371 C2365 0.969 1_545 S
H2372 C2365 0.961 . S
H2373 C2365 0.960 . S
H2374 C2366 0.930 . S
H2375 C2367 0.929 . S
H2376 C2384 0.929 . S
H2377 C2386 0.930 . S
H2378 C2388 0.930 . S
H2379 C2391 0.929 . S
H2380 C2394 0.930 . S
H2381 C2396 0.960 . S
H2382 C2396 0.960 . S
H2383 C2396 0.960 . S
C2384 H2376 0.929 . S
C2384 C2385 1.377 . S
C2384 C2386 1.384 . S
C2385 C2384 1.377 . S
C2385 C2391 1.390 . S
C2386 H2377 0.930 . S
C2386 C2384 1.384 . S
C2386 C2387 1.372 . S
C2387 C2386 1.372 . S
C2387 C2388 1.400 . S
C2387 C2392 1.490 . S
C2388 H2378 0.930 . S
C2388 C2387 1.400 . S
C2388 C2391 1.386 . S
H2389 C2405 0.930 . S
H2390 C2406 0.931 . S
C2391 H2379 0.929 . S
C2391 C2385 1.390 . S
C2391 C2388 1.386 . S
C2392 C2387 1.490 . S
C2392 C2394 1.395 . S
C2392 C2395 1.403 . S
H2393 C2399 0.930 . S
C2394 H2380 0.930 . S
C2394 C2392 1.395 . S
C2394 C2397 1.403 1_655 S
C2395 C2392 1.403 . S
C2395 C2396 1.524 . S
C2395 C2399 1.400 1_655 S
C2396 H2381 0.960 . S
C2396 H2382 0.960 . S
C2396 H2383 0.960 . S
C2396 C2395 1.524 . S
C2397 C2394 1.403 1_455 S
C2397 C2398 1.392 . S
C2397 C2401 1.495 . S
C2398 C2397 1.392 . S
C2398 C2399 1.385 . S
C2398 C2400 1.478 . S
C2399 H2393 0.930 . S
C2399 C2395 1.400 1_455 S
C2399 C2398 1.385 . S
C2400 C2398 1.478 . S
C2400 C2402 1.381 . S
C2400 C2406 1.383 . S
C2401 C2397 1.495 . S
C2401 H2407 0.959 . S
C2401 H2408 0.961 . S
C2401 H2409 0.960 . S
C2402 C2400 1.381 . S
C2402 C2403 1.394 . S
C2402 H2410 0.930 . S
C2403 C2402 1.394 . S
C2403 C2404 1.383 . S
C2403 H2411 0.929 . S
C2404 C2403 1.383 . S
C2404 C2405 1.377 . S
C2405 H2389 0.930 . S
C2405 C2404 1.377 . S
C2405 C2406 1.379 . S
C2406 H2390 0.931 . S
C2406 C2400 1.383 . S
C2406 C2405 1.379 . S
H2407 C2401 0.959 . S
H2408 C2401 0.961 . S
H2409 C2401 0.960 . S
H2410 C2402 0.930 . S
H2411 C2403 0.929 . S
H2412 C2420 0.929 . S
H2413 C2422 0.930 . S
H2414 C2424 0.930 . S
H2415 C2427 0.929 . S
H2416 C2430 0.930 . S
H2417 C2432 0.960 . S
H2418 C2432 0.960 . S
H2419 C2432 0.960 . S
C2420 H2412 0.929 . S
C2420 C2421 1.377 . S
C2420 C2422 1.384 . S
C2421 C2420 1.377 . S
C2421 C2427 1.390 . S
C2422 H2413 0.930 . S
C2422 C2420 1.384 . S
C2422 C2423 1.372 . S
C2423 C2422 1.372 . S
C2423 C2424 1.400 . S
C2423 C2428 1.490 . S
C2424 H2414 0.930 . S
C2424 C2423 1.400 . S
C2424 C2427 1.386 . S
H2425 C2441 0.930 . S
H2426 C2442 0.931 . S
C2427 H2415 0.929 . S
C2427 C2421 1.390 . S
C2427 C2424 1.386 . S
C2428 C2423 1.490 . S
C2428 C2430 1.395 . S
C2428 C2431 1.403 . S
H2429 C2435 0.930 . S
C2430 H2416 0.930 . S
C2430 C2428 1.395 . S
C2430 C2433 1.403 . S
C2431 C2428 1.403 . S
C2431 C2432 1.524 . S
C2431 C2435 1.400 . S
C2432 H2417 0.960 . S
C2432 H2418 0.960 . S
C2432 H2419 0.960 . S
C2432 C2431 1.524 . S
C2433 C2430 1.403 . S
C2433 C2434 1.392 . S
C2433 C2437 1.495 . S
C2434 C2433 1.392 . S
C2434 C2435 1.385 . S
C2434 C2436 1.478 . S
C2435 H2429 0.930 . S
C2435 C2431 1.400 . S
C2435 C2434 1.385 . S
C2436 C2434 1.478 . S
C2436 C2438 1.381 . S
C2436 C2442 1.383 . S
C2437 C2433 1.495 . S
C2437 H2443 0.959 . S
C2437 H2444 0.961 . S
C2437 H2445 0.960 . S
C2438 C2436 1.381 . S
C2438 C2439 1.394 . S
C2438 H2446 0.930 . S
C2439 C2438 1.394 . S
C2439 C2440 1.383 . S
C2439 H2447 0.929 . S
C2440 C2439 1.383 . S
C2440 C2441 1.377 . S
C2441 H2425 0.930 . S
C2441 C2440 1.377 . S
C2441 C2442 1.379 . S
C2442 H2426 0.931 . S
C2442 C2436 1.383 . S
C2442 C2441 1.379 . S
H2443 C2437 0.959 . S
H2444 C2437 0.961 . S
H2445 C2437 0.960 . S
H2446 C2438 0.930 . S
H2447 C2439 0.929 . S
H2448 C2456 0.929 . S
H2449 C2458 0.930 . S
H2450 C2460 0.930 . S
H2451 C2463 0.929 . S
H2452 C2466 0.930 . S
H2453 C2468 0.960 . S
H2454 C2468 0.960 . S
H2455 C2468 0.960 . S
C2456 H2448 0.929 . S
C2456 C2457 1.377 . S
C2456 C2458 1.384 . S
C2457 C2456 1.377 . S
C2457 C2463 1.390 . S
C2458 H2449 0.930 . S
C2458 C2456 1.384 . S
C2458 C2459 1.372 . S
C2459 C2458 1.372 . S
C2459 C2460 1.400 . S
C2459 C2464 1.490 . S
C2460 H2450 0.930 . S
C2460 C2459 1.400 . S
C2460 C2463 1.386 . S
H2461 C2477 0.930 . S
H2462 C2478 0.931 . S
C2463 H2451 0.929 . S
C2463 C2457 1.390 . S
C2463 C2460 1.386 . S
C2464 C2459 1.490 . S
C2464 C2466 1.395 . S
C2464 C2467 1.403 . S
H2465 C2471 0.930 . S
C2466 H2452 0.930 . S
C2466 C2464 1.395 . S
C2466 C2469 1.403 . S
C2467 C2464 1.403 . S
C2467 C2468 1.524 . S
C2467 C2471 1.400 . S
C2468 H2453 0.960 . S
C2468 H2454 0.960 . S
C2468 H2455 0.960 . S
C2468 C2467 1.524 . S
C2469 C2466 1.403 . S
C2469 C2470 1.392 . S
C2469 C2473 1.495 . S
C2470 C2469 1.392 . S
C2470 C2471 1.385 . S
C2470 C2472 1.478 . S
C2471 H2465 0.930 . S
C2471 C2467 1.400 . S
C2471 C2470 1.385 . S
C2472 C2470 1.478 . S
C2472 C2474 1.381 . S
C2472 C2478 1.383 . S
C2473 C2469 1.495 . S
C2473 H2479 0.959 . S
C2473 H2480 0.961 . S
C2473 H2481 0.960 . S
C2474 C2472 1.381 . S
C2474 C2475 1.394 . S
C2474 H2482 0.930 . S
C2475 C2474 1.394 . S
C2475 C2476 1.383 . S
C2475 H2483 0.929 . S
C2476 C2475 1.383 . S
C2476 C2477 1.377 . S
C2477 H2461 0.930 . S
C2477 C2476 1.377 . S
C2477 C2478 1.379 . S
C2478 H2462 0.931 . S
C2478 C2472 1.383 . S
C2478 C2477 1.379 . S
H2479 C2473 0.959 . S
H2480 C2473 0.961 . S
H2481 C2473 0.960 . S
H2482 C2474 0.930 . S
H2483 C2475 0.929 . S
H2484 C2492 0.929 . S
H2485 C2494 0.930 . S
H2486 C2496 0.930 . S
H2487 C2499 0.929 . S
H2488 C2502 0.930 . S
H2489 C2504 0.960 . S
H2490 C2504 0.960 . S
H2491 C2504 0.960 . S
C2492 H2484 0.929 . S
C2492 C2493 1.377 . S
C2492 C2494 1.384 . S
C2493 C2492 1.377 . S
C2493 C2499 1.390 . S
C2494 H2485 0.930 . S
C2494 C2492 1.384 . S
C2494 C2495 1.372 . S
C2495 C2494 1.372 . S
C2495 C2496 1.400 . S
C2495 C2500 1.490 . S
C2496 H2486 0.930 . S
C2496 C2495 1.400 . S
C2496 C2499 1.386 . S
H2497 C2513 0.930 . S
H2498 C2514 0.931 . S
C2499 H2487 0.929 . S
C2499 C2493 1.390 . S
C2499 C2496 1.386 . S
C2500 C2495 1.490 . S
C2500 C2502 1.395 . S
C2500 C2503 1.403 . S
H2501 C2507 0.930 . S
C2502 H2488 0.930 . S
C2502 C2500 1.395 . S
C2502 C2505 1.403 . S
C2503 C2500 1.403 . S
C2503 C2504 1.524 . S
C2503 C2507 1.400 . S
C2504 H2489 0.960 . S
C2504 H2490 0.960 . S
C2504 H2491 0.960 . S
C2504 C2503 1.524 . S
C2505 C2502 1.403 . S
C2505 C2506 1.392 . S
C2505 C2509 1.495 . S
C2506 C2505 1.392 . S
C2506 C2507 1.385 . S
C2506 C2508 1.478 . S
C2507 H2501 0.930 . S
C2507 C2503 1.400 . S
C2507 C2506 1.385 . S
C2508 C2506 1.478 . S
C2508 C2510 1.381 . S
C2508 C2514 1.383 . S
C2509 C2505 1.495 . S
C2509 H2515 0.959 . S
C2509 H2516 0.961 . S
C2509 H2517 0.960 . S
C2510 C2508 1.381 . S
C2510 C2511 1.394 . S
C2510 H2518 0.930 . S
C2511 C2510 1.394 . S
C2511 C2512 1.383 . S
C2511 H2519 0.929 . S
C2512 C2511 1.383 . S
C2512 C2513 1.377 . S
C2513 H2497 0.930 . S
C2513 C2512 1.377 . S
C2513 C2514 1.379 . S
C2514 H2498 0.931 . S
C2514 C2508 1.383 . S
C2514 C2513 1.379 . S
H2515 C2509 0.959 . S
H2516 C2509 0.961 . S
H2517 C2509 0.960 . S
H2518 C2510 0.930 . S
H2519 C2511 0.929 . S
H2520 C2528 0.929 . S
H2521 C2530 0.930 . S
H2522 C2532 0.930 . S
H2523 C2535 0.929 . S
H2524 C2538 0.930 . S
H2525 C2540 0.960 . S
H2526 C2540 0.960 . S
H2527 C2540 0.960 . S
C2528 H2520 0.929 . S
C2528 C2529 1.377 . S
C2528 C2530 1.384 . S
C2529 C2528 1.377 . S
C2529 C2535 1.390 . S
C2530 H2521 0.930 . S
C2530 C2528 1.384 . S
C2530 C2531 1.372 . S
C2531 C2530 1.372 . S
C2531 C2532 1.400 . S
C2531 C2536 1.490 . S
C2532 H2522 0.930 . S
C2532 C2531 1.400 . S
C2532 C2535 1.386 . S
H2533 C2549 0.930 . S
H2534 C2550 0.931 . S
C2535 H2523 0.929 . S
C2535 C2529 1.390 . S
C2535 C2532 1.386 . S
C2536 C2531 1.490 . S
C2536 C2538 1.395 . S
C2536 C2539 1.403 . S
H2537 C2543 0.930 . S
C2538 H2524 0.930 . S
C2538 C2536 1.395 . S
C2538 C2541 1.403 . S
C2539 C2536 1.403 . S
C2539 C2540 1.524 . S
C2539 C2543 1.400 . S
C2540 H2525 0.960 . S
C2540 H2526 0.960 . S
C2540 H2527 0.960 . S
C2540 C2539 1.524 . S
C2541 C2538 1.403 . S
C2541 C2542 1.392 . S
C2541 C2545 1.495 . S
C2542 C2541 1.392 . S
C2542 C2543 1.385 . S
C2542 C2544 1.478 . S
C2543 H2537 0.930 . S
C2543 C2539 1.400 . S
C2543 C2542 1.385 . S
C2544 C2542 1.478 . S
C2544 C2546 1.381 . S
C2544 C2550 1.383 . S
C2545 C2541 1.495 . S
C2545 H2551 0.959 . S
C2545 H2552 0.961 . S
C2545 H2553 0.960 . S
C2546 C2544 1.381 . S
C2546 C2547 1.394 . S
C2546 H2554 0.930 . S
C2547 C2546 1.394 . S
C2547 C2548 1.383 . S
C2547 H2555 0.929 . S
C2548 C2547 1.383 . S
C2548 C2549 1.377 . S
C2549 H2533 0.930 . S
C2549 C2548 1.377 . S
C2549 C2550 1.379 . S
C2550 H2534 0.931 . S
C2550 C2544 1.383 . S
C2550 C2549 1.379 . S
H2551 C2545 0.959 . S
H2552 C2545 0.961 . S
H2553 C2545 0.960 . S
H2554 C2546 0.930 . S
H2555 C2547 0.929 . S
H2556 C2564 0.929 . S
H2557 C2566 0.930 . S
H2558 C2568 0.930 . S
H2559 C2571 0.929 . S
H2560 C2574 0.930 . S
H2561 C2576 0.960 . S
H2562 C2576 0.960 . S
H2563 C2576 0.960 . S
C2564 H2556 0.929 . S
C2564 C2565 1.377 . S
C2564 C2566 1.384 . S
C2565 C2564 1.377 . S
C2565 C2571 1.390 . S
C2566 H2557 0.930 . S
C2566 C2564 1.384 . S
C2566 C2567 1.372 . S
C2567 C2566 1.372 . S
C2567 C2568 1.400 . S
C2567 C2572 1.490 . S
C2568 H2558 0.930 . S
C2568 C2567 1.400 . S
C2568 C2571 1.386 . S
H2569 C2585 0.930 . S
H2570 C2586 0.931 . S
C2571 H2559 0.929 . S
C2571 C2565 1.390 . S
C2571 C2568 1.386 . S
C2572 C2567 1.490 . S
C2572 C2574 1.395 . S
C2572 C2575 1.403 . S
H2573 C2579 0.930 . S
C2574 H2560 0.930 . S
C2574 C2572 1.395 . S
C2574 C2577 1.403 . S
C2575 C2572 1.403 . S
C2575 C2576 1.524 . S
C2575 C2579 1.400 . S
C2576 H2561 0.960 . S
C2576 H2562 0.960 . S
C2576 H2563 0.960 . S
C2576 C2575 1.524 . S
C2577 C2574 1.403 . S
C2577 C2578 1.392 . S
C2577 C2581 1.495 . S
C2578 C2577 1.392 . S
C2578 C2579 1.385 . S
C2578 C2580 1.478 . S
C2579 H2573 0.930 . S
C2579 C2575 1.400 . S
C2579 C2578 1.385 . S
C2580 C2578 1.478 . S
C2580 C2582 1.381 . S
C2580 C2586 1.383 . S
C2581 C2577 1.495 . S
C2581 H2587 0.959 . S
C2581 H2588 0.961 . S
C2581 H2589 0.960 . S
C2582 C2580 1.381 . S
C2582 C2583 1.394 . S
C2582 H2590 0.930 . S
C2583 C2582 1.394 . S
C2583 C2584 1.383 . S
C2583 H2591 0.929 . S
C2584 C2583 1.383 . S
C2584 C2585 1.377 . S
C2585 H2569 0.930 . S
C2585 C2584 1.377 . S
C2585 C2586 1.379 . S
C2586 H2570 0.931 . S
C2586 C2580 1.383 . S
C2586 C2585 1.379 . S
H2587 C2581 0.959 . S
H2588 C2581 0.961 . S
H2589 C2581 0.960 . S
H2590 C2582 0.930 . S
H2591 C2583 0.929 . S
H2592 C2600 0.929 . S
H2593 C2602 0.930 . S
H2594 C2604 0.930 . S
H2595 C2607 0.929 . S
H2596 C2610 0.930 . S
H2597 C2612 0.960 . S
H2598 C2612 0.960 . S
H2599 C2612 0.960 . S
C2600 H2592 0.929 . S
C2600 C2601 1.377 . S
C2600 C2602 1.384 . S
C2601 C2600 1.377 . S
C2601 C2607 1.390 . S
C2602 H2593 0.930 . S
C2602 C2600 1.384 . S
C2602 C2603 1.372 . S
C2603 C2602 1.372 . S
C2603 C2604 1.400 . S
C2603 C2608 1.490 . S
C2604 H2594 0.930 . S
C2604 C2603 1.400 . S
C2604 C2607 1.386 . S
H2605 C2621 0.930 . S
H2606 C2622 0.931 . S
C2607 H2595 0.929 . S
C2607 C2601 1.390 . S
C2607 C2604 1.386 . S
C2608 C2603 1.490 . S
C2608 C2610 1.395 . S
C2608 C2611 1.403 . S
H2609 C2615 0.930 . S
C2610 H2596 0.930 . S
C2610 C2608 1.395 . S
C2610 C2613 1.403 . S
C2611 C2608 1.403 . S
C2611 C2612 1.524 . S
C2611 C2615 1.400 . S
C2612 H2597 0.960 . S
C2612 H2598 0.960 . S
C2612 H2599 0.960 . S
C2612 C2611 1.524 . S
C2613 C2610 1.403 . S
C2613 C2614 1.392 . S
C2613 C2617 1.495 . S
C2614 C2613 1.392 . S
C2614 C2615 1.385 . S
C2614 C2616 1.478 . S
C2615 H2609 0.930 . S
C2615 C2611 1.400 . S
C2615 C2614 1.385 . S
C2616 C2614 1.478 . S
C2616 C2618 1.381 . S
C2616 C2622 1.383 . S
C2617 C2613 1.495 . S
C2617 H2623 0.959 . S
C2617 H2624 0.961 . S
C2617 H2625 0.960 . S
C2618 C2616 1.381 . S
C2618 C2619 1.394 . S
C2618 H2626 0.930 . S
C2619 C2618 1.394 . S
C2619 C2620 1.383 . S
C2619 H2627 0.929 . S
C2620 C2619 1.383 . S
C2620 C2621 1.377 . S
C2621 H2605 0.930 . S
C2621 C2620 1.377 . S
C2621 C2622 1.379 . S
C2622 H2606 0.931 . S
C2622 C2616 1.383 . S
C2622 C2621 1.379 . S
H2623 C2617 0.959 . S
H2624 C2617 0.961 . S
H2625 C2617 0.960 . S
H2626 C2618 0.930 . S
H2627 C2619 0.929 . S
H2628 C2636 0.929 . S
H2629 C2638 0.930 . S
H2630 C2640 0.930 . S
H2631 C2643 0.929 . S
H2632 C2646 0.930 . S
H2633 C2648 0.960 . S
H2634 C2648 0.960 . S
H2635 C2648 0.960 . S
C2636 H2628 0.929 . S
C2636 C2637 1.377 . S
C2636 C2638 1.384 . S
C2637 C2636 1.377 . S
C2637 C2643 1.390 . S
C2638 H2629 0.930 . S
C2638 C2636 1.384 . S
C2638 C2639 1.372 . S
C2639 C2638 1.372 . S
C2639 C2640 1.400 . S
C2639 C2644 1.490 . S
C2640 H2630 0.930 . S
C2640 C2639 1.400 . S
C2640 C2643 1.386 . S
H2641 C2657 0.930 . S
H2642 C2658 0.931 . S
C2643 H2631 0.929 . S
C2643 C2637 1.390 . S
C2643 C2640 1.386 . S
C2644 C2639 1.490 . S
C2644 C2646 1.395 . S
C2644 C2647 1.403 . S
H2645 C2651 0.930 . S
C2646 H2632 0.930 . S
C2646 C2644 1.395 . S
C2646 C2649 1.403 . S
C2647 C2644 1.403 . S
C2647 C2648 1.524 . S
C2647 C2651 1.400 . S
C2648 H2633 0.960 . S
C2648 H2634 0.960 . S
C2648 H2635 0.960 . S
C2648 C2647 1.524 . S
C2649 C2646 1.403 . S
C2649 C2650 1.392 . S
C2649 C2653 1.495 . S
C2650 C2649 1.392 . S
C2650 C2651 1.385 . S
C2650 C2652 1.478 . S
C2651 H2645 0.930 . S
C2651 C2647 1.400 . S
C2651 C2650 1.385 . S
C2652 C2650 1.478 . S
C2652 C2654 1.381 . S
C2652 C2658 1.383 . S
C2653 C2649 1.495 . S
C2653 H2659 0.959 . S
C2653 H2660 0.961 . S
C2653 H2661 0.960 . S
C2654 C2652 1.381 . S
C2654 C2655 1.394 . S
C2654 H2662 0.930 . S
C2655 C2654 1.394 . S
C2655 C2656 1.383 . S
C2655 H2663 0.929 . S
C2656 C2655 1.383 . S
C2656 C2657 1.377 . S
C2657 H2641 0.930 . S
C2657 C2656 1.377 . S
C2657 C2658 1.379 . S
C2658 H2642 0.931 . S
C2658 C2652 1.383 . S
C2658 C2657 1.379 . S
H2659 C2653 0.959 . S
H2660 C2653 0.961 . S
H2661 C2653 0.960 . S
H2662 C2654 0.930 . S
H2663 C2655 0.929 . S
H2664 C2672 0.929 . S
H2665 C2674 0.930 . S
H2666 C2676 0.930 . S
H2667 C2679 0.929 . S
H2668 C2682 0.930 . S
H2669 C2684 0.960 . S
H2670 C2684 0.960 . S
H2671 C2684 0.960 . S
C2672 H2664 0.929 . S
C2672 C2673 1.377 . S
C2672 C2674 1.384 . S
C2673 C2672 1.377 . S
C2673 C2679 1.390 . S
C2674 H2665 0.930 . S
C2674 C2672 1.384 . S
C2674 C2675 1.372 . S
C2675 C2674 1.372 . S
C2675 C2676 1.400 . S
C2675 C2680 1.490 . S
C2676 H2666 0.930 . S
C2676 C2675 1.400 . S
C2676 C2679 1.386 . S
H2677 C2693 0.930 . S
H2678 C2694 0.931 . S
C2679 H2667 0.929 . S
C2679 C2673 1.390 . S
C2679 C2676 1.386 . S
C2680 C2675 1.490 . S
C2680 C2682 1.395 . S
C2680 C2683 1.403 . S
H2681 C2687 0.930 . S
C2682 H2668 0.930 . S
C2682 C2680 1.395 . S
C2682 C2685 1.403 . S
C2683 C2680 1.403 . S
C2683 C2684 1.524 . S
C2683 C2687 1.400 . S
C2684 H2669 0.960 . S
C2684 H2670 0.960 . S
C2684 H2671 0.960 . S
C2684 C2683 1.524 . S
C2685 C2682 1.403 . S
C2685 C2686 1.392 . S
C2685 C2689 1.495 . S
C2686 C2685 1.392 . S
C2686 C2687 1.385 . S
C2686 C2688 1.478 . S
C2687 H2681 0.930 . S
C2687 C2683 1.400 . S
C2687 C2686 1.385 . S
C2688 C2686 1.478 . S
C2688 C2690 1.381 . S
C2688 C2694 1.383 . S
C2689 C2685 1.495 . S
C2689 H2695 0.959 . S
C2689 H2696 0.961 . S
C2689 H2697 0.960 . S
C2690 C2688 1.381 . S
C2690 C2691 1.394 . S
C2690 H2698 0.930 . S
C2691 C2690 1.394 . S
C2691 C2692 1.383 . S
C2691 H2699 0.929 . S
C2692 C2691 1.383 . S
C2692 C2693 1.377 . S
C2693 H2677 0.930 . S
C2693 C2692 1.377 . S
C2693 C2694 1.379 . S
C2694 H2678 0.931 . S
C2694 C2688 1.383 . S
C2694 C2693 1.379 . S
H2695 C2689 0.959 . S
H2696 C2689 0.961 . S
H2697 C2689 0.960 . S
H2698 C2690 0.930 . S
H2699 C2691 0.929 . S
H2700 C2708 0.929 . S
H2701 C2710 0.930 . S
H2702 C2712 0.930 . S
H2703 C2715 0.929 . S
H2704 C2718 0.930 . S
H2705 C2720 0.960 . S
H2706 C2720 0.960 . S
H2707 C2720 0.960 . S
C2708 H2700 0.929 . S
C2708 C2709 1.377 . S
C2708 C2710 1.384 . S
C2709 C2708 1.377 . S
C2709 C2715 1.390 . S
C2710 H2701 0.930 . S
C2710 C2708 1.384 . S
C2710 C2711 1.372 . S
C2711 C2710 1.372 . S
C2711 C2712 1.400 . S
C2711 C2716 1.490 . S
C2712 H2702 0.930 . S
C2712 C2711 1.400 . S
C2712 C2715 1.386 . S
H2713 C2729 0.930 . S
H2714 C2730 0.931 . S
C2715 H2703 0.929 . S
C2715 C2709 1.390 . S
C2715 C2712 1.386 . S
C2716 C2711 1.490 . S
C2716 C2718 1.395 . S
C2716 C2719 1.403 . S
H2717 C2723 0.930 . S
C2718 H2704 0.930 . S
C2718 C2716 1.395 . S
C2718 C2721 1.403 . S
C2719 C2716 1.403 . S
C2719 C2720 1.524 . S
C2719 C2723 1.400 . S
C2720 H2705 0.960 . S
C2720 H2706 0.960 . S
C2720 H2707 0.960 . S
C2720 C2719 1.524 . S
C2721 C2718 1.403 . S
C2721 C2722 1.392 . S
C2721 C2725 1.495 . S
C2722 C2721 1.392 . S
C2722 C2723 1.385 . S
C2722 C2724 1.478 . S
C2723 H2717 0.930 . S
C2723 C2719 1.400 . S
C2723 C2722 1.385 . S
C2724 C2722 1.478 . S
C2724 C2726 1.381 . S
C2724 C2730 1.383 . S
C2725 C2721 1.495 . S
C2725 H2731 0.959 . S
C2725 H2732 0.961 . S
C2725 H2733 0.960 . S
C2726 C2724 1.381 . S
C2726 C2727 1.394 . S
C2726 H2734 0.930 . S
C2727 C2726 1.394 . S
C2727 C2728 1.383 . S
C2727 H2735 0.929 . S
C2728 C2727 1.383 . S
C2728 C2729 1.377 . S
C2729 H2713 0.930 . S
C2729 C2728 1.377 . S
C2729 C2730 1.379 . S
C2730 H2714 0.931 . S
C2730 C2724 1.383 . S
C2730 C2729 1.379 . S
H2731 C2725 0.959 . S
H2732 C2725 0.961 . S
H2733 C2725 0.960 . S
H2734 C2726 0.930 . S
H2735 C2727 0.929 . S
H2736 C2744 0.929 . S
H2737 C2746 0.930 . S
H2738 C2748 0.930 . S
H2739 C2751 0.929 . S
H2740 C2754 0.930 . S
H2741 C2756 0.960 . S
H2742 C2756 0.960 . S
H2743 C2756 0.960 . S
C2744 H2736 0.929 . S
C2744 C2745 1.377 . S
C2744 C2746 1.384 . S
C2745 C2744 1.377 . S
C2745 C2751 1.390 . S
C2746 H2737 0.930 . S
C2746 C2744 1.384 . S
C2746 C2747 1.372 . S
C2747 C2746 1.372 . S
C2747 C2748 1.400 . S
C2747 C2752 1.490 . S
C2748 H2738 0.930 . S
C2748 C2747 1.400 . S
C2748 C2751 1.386 . S
H2749 C2765 0.930 . S
H2750 C2766 0.931 . S
C2751 H2739 0.929 . S
C2751 C2745 1.390 . S
C2751 C2748 1.386 . S
C2752 C2747 1.490 . S
C2752 C2754 1.395 . S
C2752 C2755 1.403 . S
H2753 C2759 0.930 . S
C2754 H2740 0.930 . S
C2754 C2752 1.395 . S
C2754 C2757 1.403 . S
C2755 C2752 1.403 . S
C2755 C2756 1.524 . S
C2755 C2759 1.400 . S
C2756 H2741 0.960 . S
C2756 H2742 0.960 . S
C2756 H2743 0.960 . S
C2756 C2755 1.524 . S
C2757 C2754 1.403 . S
C2757 C2758 1.392 . S
C2757 C2761 1.495 . S
C2758 C2757 1.392 . S
C2758 C2759 1.385 . S
C2758 C2760 1.478 . S
C2759 H2753 0.930 . S
C2759 C2755 1.400 . S
C2759 C2758 1.385 . S
C2760 C2758 1.478 . S
C2760 C2762 1.381 . S
C2760 C2766 1.383 . S
C2761 C2757 1.495 . S
C2761 H2767 0.959 . S
C2761 H2768 0.961 . S
C2761 H2769 0.960 . S
C2762 C2760 1.381 . S
C2762 C2763 1.394 . S
C2762 H2770 0.930 . S
C2763 C2762 1.394 . S
C2763 C2764 1.383 . S
C2763 H2771 0.929 . S
C2764 C2763 1.383 . S
C2764 C2765 1.377 . S
C2765 H2749 0.930 . S
C2765 C2764 1.377 . S
C2765 C2766 1.379 . S
C2766 H2750 0.931 . S
C2766 C2760 1.383 . S
C2766 C2765 1.379 . S
H2767 C2761 0.959 . S
H2768 C2761 0.961 . S
H2769 C2761 0.960 . S
H2770 C2762 0.930 . S
H2771 C2763 0.929 . S
H2772 C2780 0.929 . S
H2773 C2782 0.930 . S
H2774 C2784 0.930 . S
H2775 C2787 0.929 . S
H2776 C2790 0.930 . S
H2777 C2792 0.960 . S
H2778 C2792 0.960 . S
H2779 C2792 0.960 . S
C2780 H2772 0.929 . S
C2780 C2781 1.377 . S
C2780 C2782 1.384 . S
C2781 C2780 1.377 . S
C2781 C2787 1.390 . S
C2782 H2773 0.930 . S
C2782 C2780 1.384 . S
C2782 C2783 1.372 . S
C2783 C2782 1.372 . S
C2783 C2784 1.400 . S
C2783 C2788 1.490 . S
C2784 H2774 0.930 . S
C2784 C2783 1.400 . S
C2784 C2787 1.386 . S
H2785 C2801 0.930 . S
H2786 C2802 0.931 . S
C2787 H2775 0.929 . S
C2787 C2781 1.390 . S
C2787 C2784 1.386 . S
C2788 C2783 1.490 . S
C2788 C2790 1.395 . S
C2788 C2791 1.403 . S
H2789 C2795 0.930 . S
C2790 H2776 0.930 . S
C2790 C2788 1.395 . S
C2790 C2793 1.403 . S
C2791 C2788 1.403 . S
C2791 C2792 1.524 . S
C2791 C2795 1.400 . S
C2792 H2777 0.960 . S
C2792 H2778 0.960 . S
C2792 H2779 0.960 . S
C2792 C2791 1.524 . S
C2793 C2790 1.403 . S
C2793 C2794 1.392 . S
C2793 C2797 1.495 . S
C2794 C2793 1.392 . S
C2794 C2795 1.385 . S
C2794 C2796 1.478 . S
C2795 H2789 0.930 . S
C2795 C2791 1.400 . S
C2795 C2794 1.385 . S
C2796 C2794 1.478 . S
C2796 C2798 1.381 . S
C2796 C2802 1.383 . S
C2797 C2793 1.495 . S
C2797 H2803 0.959 . S
C2797 H2804 0.961 . S
C2797 H2805 0.960 . S
C2798 C2796 1.381 . S
C2798 C2799 1.394 . S
C2798 H2806 0.930 . S
C2799 C2798 1.394 . S
C2799 C2800 1.383 . S
C2799 H2807 0.929 . S
C2800 C2799 1.383 . S
C2800 C2801 1.377 . S
C2801 H2785 0.930 . S
C2801 C2800 1.377 . S
C2801 C2802 1.379 . S
C2802 H2786 0.931 . S
C2802 C2796 1.383 . S
C2802 C2801 1.379 . S
H2803 C2797 0.959 . S
H2804 C2797 0.961 . S
H2805 C2797 0.960 . S
H2806 C2798 0.930 . S
H2807 C2799 0.929 . S
H2808 C2816 0.929 . S
H2809 C2818 0.930 . S
H2810 C2820 0.930 . S
H2811 C2823 0.929 . S
H2812 C2826 0.930 . S
H2813 C2828 0.960 . S
H2814 C2828 0.960 . S
H2815 C2828 0.960 . S
C2816 H2808 0.929 . S
C2816 C2817 1.377 . S
C2816 C2818 1.384 . S
C2817 C2816 1.377 . S
C2817 C2823 1.390 . S
C2818 H2809 0.930 . S
C2818 C2816 1.384 . S
C2818 C2819 1.372 . S
C2819 C2818 1.372 . S
C2819 C2820 1.400 . S
C2819 C2824 1.490 . S
C2820 H2810 0.930 . S
C2820 C2819 1.400 . S
C2820 C2823 1.386 . S
H2821 C2837 0.930 . S
H2822 C2838 0.931 . S
C2823 H2811 0.929 . S
C2823 C2817 1.390 . S
C2823 C2820 1.386 . S
C2824 C2819 1.490 . S
C2824 C2826 1.395 . S
C2824 C2827 1.403 . S
H2825 C2831 0.930 . S
C2826 H2812 0.930 . S
C2826 C2824 1.395 . S
C2826 C2829 1.403 . S
C2827 C2824 1.403 . S
C2827 C2828 1.524 . S
C2827 C2831 1.400 . S
C2828 H2813 0.960 . S
C2828 H2814 0.960 . S
C2828 H2815 0.960 . S
C2828 C2827 1.524 . S
C2829 C2826 1.403 . S
C2829 C2830 1.392 . S
C2829 C2833 1.495 . S
C2830 C2829 1.392 . S
C2830 C2831 1.385 . S
C2830 C2832 1.478 . S
C2831 H2825 0.930 . S
C2831 C2827 1.400 . S
C2831 C2830 1.385 . S
C2832 C2830 1.478 . S
C2832 C2834 1.381 . S
C2832 C2838 1.383 . S
C2833 C2829 1.495 . S
C2833 H2839 0.959 . S
C2833 H2840 0.961 . S
C2833 H2841 0.960 . S
C2834 C2832 1.381 . S
C2834 C2835 1.394 . S
C2834 H2842 0.930 . S
C2835 C2834 1.394 . S
C2835 C2836 1.383 . S
C2835 H2843 0.929 . S
C2836 C2835 1.383 . S
C2836 C2837 1.377 . S
C2837 H2821 0.930 . S
C2837 C2836 1.377 . S
C2837 C2838 1.379 . S
C2838 H2822 0.931 . S
C2838 C2832 1.383 . S
C2838 C2837 1.379 . S
H2839 C2833 0.959 . S
H2840 C2833 0.961 . S
H2841 C2833 0.960 . S
H2842 C2834 0.930 . S
H2843 C2835 0.929 . S
H2844 C2852 0.929 . S
H2845 C2854 0.930 . S
H2846 C2856 0.930 . S
H2847 C2859 0.929 . S
H2848 C2862 0.930 . S
H2849 C2864 0.960 . S
H2850 C2864 0.960 . S
H2851 C2864 0.960 . S
C2852 H2844 0.929 . S
C2852 C2853 1.377 . S
C2852 C2854 1.384 . S
C2853 C2852 1.377 . S
C2853 C2859 1.390 . S
C2854 H2845 0.930 . S
C2854 C2852 1.384 . S
C2854 C2855 1.372 . S
C2855 C2854 1.372 . S
C2855 C2856 1.400 . S
C2855 C2860 1.490 . S
C2856 H2846 0.930 . S
C2856 C2855 1.400 . S
C2856 C2859 1.386 . S
H2857 C2873 0.930 . S
H2858 C2874 0.931 . S
C2859 H2847 0.929 . S
C2859 C2853 1.390 . S
C2859 C2856 1.386 . S
C2860 C2855 1.490 . S
C2860 C2862 1.395 . S
C2860 C2863 1.403 . S
H2861 C2867 0.930 . S
C2862 H2848 0.930 . S
C2862 C2860 1.395 . S
C2862 C2865 1.403 . S
C2863 C2860 1.403 . S
C2863 C2864 1.524 . S
C2863 C2867 1.400 . S
C2864 H2849 0.960 . S
C2864 H2850 0.960 . S
C2864 H2851 0.960 . S
C2864 C2863 1.524 . S
C2865 C2862 1.403 . S
C2865 C2866 1.392 . S
C2865 C2869 1.495 . S
C2866 C2865 1.392 . S
C2866 C2867 1.385 . S
C2866 C2868 1.478 . S
C2867 H2861 0.930 . S
C2867 C2863 1.400 . S
C2867 C2866 1.385 . S
C2868 C2866 1.478 . S
C2868 C2870 1.381 . S
C2868 C2874 1.383 . S
C2869 C2865 1.495 . S
C2869 H2875 0.959 . S
C2869 H2876 0.961 . S
C2869 H2877 0.960 . S
C2870 C2868 1.381 . S
C2870 C2871 1.394 . S
C2870 H2878 0.930 . S
C2871 C2870 1.394 . S
C2871 C2872 1.383 . S
C2871 H2879 0.929 . S
C2872 C2871 1.383 . S
C2872 C2873 1.377 . S
C2873 H2857 0.930 . S
C2873 C2872 1.377 . S
C2873 C2874 1.379 . S
C2874 H2858 0.931 . S
C2874 C2868 1.383 . S
C2874 C2873 1.379 . S
H2875 C2869 0.959 . S
H2876 C2869 0.961 . S
H2877 C2869 0.960 . S
H2878 C2870 0.930 . S
H2879 C2871 0.929 . S
H2880 C2888 0.929 . S
H2881 C2890 0.930 . S
H2882 C2892 0.930 . S
H2883 C2895 0.929 . S
H2884 C2898 0.930 . S
H2885 C2900 0.960 . S
H2886 C2900 0.960 . S
H2887 C2900 0.960 . S
C2888 H2880 0.929 . S
C2888 C2889 1.377 . S
C2888 C2890 1.384 . S
C2889 C2888 1.377 . S
C2889 C2895 1.390 . S
C2890 H2881 0.930 . S
C2890 C2888 1.384 . S
C2890 C2891 1.372 . S
C2891 C2890 1.372 . S
C2891 C2892 1.400 . S
C2891 C2896 1.490 . S
C2892 H2882 0.930 . S
C2892 C2891 1.400 . S
C2892 C2895 1.386 . S
H2893 C2909 0.930 . S
H2894 C2910 0.931 . S
C2895 H2883 0.929 . S
C2895 C2889 1.390 . S
C2895 C2892 1.386 . S
C2896 C2891 1.490 . S
C2896 C2898 1.395 . S
C2896 C2899 1.403 . S
H2897 C2903 0.930 . S
C2898 H2884 0.930 . S
C2898 C2896 1.395 . S
C2898 C2901 1.403 . S
C2899 C2896 1.403 . S
C2899 C2900 1.524 . S
C2899 C2903 1.400 . S
C2900 H2885 0.960 . S
C2900 H2886 0.960 . S
C2900 H2887 0.960 . S
C2900 C2899 1.524 . S
C2901 C2898 1.403 . S
C2901 C2902 1.392 . S
C2901 C2905 1.495 . S
C2902 C2901 1.392 . S
C2902 C2903 1.385 . S
C2902 C2904 1.478 . S
C2903 H2897 0.930 . S
C2903 C2899 1.400 . S
C2903 C2902 1.385 . S
C2904 C2902 1.478 . S
C2904 C2906 1.381 . S
C2904 C2910 1.383 . S
C2905 C2901 1.495 . S
C2905 H2911 0.959 . S
C2905 H2912 0.961 . S
C2905 H2913 0.960 . S
C2906 C2904 1.381 . S
C2906 C2907 1.394 . S
C2906 H2914 0.930 . S
C2907 C2906 1.394 . S
C2907 C2908 1.383 . S
C2907 H2915 0.929 . S
C2908 C2907 1.383 . S
C2908 C2909 1.377 . S
C2909 H2893 0.930 . S
C2909 C2908 1.377 . S
C2909 C2910 1.379 . S
C2910 H2894 0.931 . S
C2910 C2904 1.383 . S
C2910 C2909 1.379 . S
H2911 C2905 0.959 . S
H2912 C2905 0.961 . S
H2913 C2905 0.960 . S
H2914 C2906 0.930 . S
H2915 C2907 0.929 . S
H2916 C2924 0.929 . S
H2917 C2926 0.930 . S
H2918 C2928 0.930 . S
H2919 C2931 0.929 . S
H2920 C2934 0.930 . S
H2921 C2936 0.960 . S
H2922 C2936 0.960 . S
H2923 C2936 0.960 . S
C2924 H2916 0.929 . S
C2924 C2925 1.377 . S
C2924 C2926 1.384 . S
C2925 C2924 1.377 . S
C2925 C2931 1.390 . S
C2926 H2917 0.930 . S
C2926 C2924 1.384 . S
C2926 C2927 1.372 . S
C2927 C2926 1.372 . S
C2927 C2928 1.400 . S
C2927 C2932 1.490 . S
C2928 H2918 0.930 . S
C2928 C2927 1.400 . S
C2928 C2931 1.386 . S
H2929 C2945 0.930 . S
H2930 C2946 0.931 . S
C2931 H2919 0.929 . S
C2931 C2925 1.390 . S
C2931 C2928 1.386 . S
C2932 C2927 1.490 . S
C2932 C2934 1.395 . S
C2932 C2935 1.403 . S
H2933 C2939 0.930 . S
C2934 H2920 0.930 . S
C2934 C2932 1.395 . S
C2934 C2937 1.403 . S
C2935 C2932 1.403 . S
C2935 C2936 1.524 . S
C2935 C2939 1.400 . S
C2936 H2921 0.960 . S
C2936 H2922 0.960 . S
C2936 H2923 0.960 . S
C2936 C2935 1.524 . S
C2937 C2934 1.403 . S
C2937 C2938 1.392 . S
C2937 C2941 1.495 . S
C2938 C2937 1.392 . S
C2938 C2939 1.385 . S
C2938 C2940 1.478 . S
C2939 H2933 0.930 . S
C2939 C2935 1.400 . S
C2939 C2938 1.385 . S
C2940 C2938 1.478 . S
C2940 C2942 1.381 . S
C2940 C2946 1.383 . S
C2941 C2937 1.495 . S
C2941 H2947 0.959 . S
C2941 H2948 0.961 . S
C2941 H2949 0.960 . S
C2942 C2940 1.381 . S
C2942 C2943 1.394 . S
C2942 H2950 0.930 . S
C2943 C2942 1.394 . S
C2943 C2944 1.383 . S
C2943 H2951 0.929 . S
C2944 C2943 1.383 . S
C2944 C2945 1.377 . S
C2945 H2929 0.930 . S
C2945 C2944 1.377 . S
C2945 C2946 1.379 . S
C2946 H2930 0.931 . S
C2946 C2940 1.383 . S
C2946 C2945 1.379 . S
H2947 C2941 0.959 . S
H2948 C2941 0.961 . S
H2949 C2941 0.960 . S
H2950 C2942 0.930 . S
H2951 C2943 0.929 . S
H2952 C2960 0.929 . S
H2953 C2962 0.930 . S
H2954 C2964 0.930 . S
H2955 C2967 0.929 . S
H2956 C2970 0.930 . S
H2957 C2972 0.960 . S
H2958 C2972 0.960 . S
H2959 C2972 0.960 . S
C2960 H2952 0.929 . S
C2960 C2961 1.377 . S
C2960 C2962 1.384 . S
C2961 C2960 1.377 . S
C2961 C2967 1.390 . S
C2962 H2953 0.930 . S
C2962 C2960 1.384 . S
C2962 C2963 1.372 . S
C2963 C2962 1.372 . S
C2963 C2964 1.400 . S
C2963 C2968 1.490 . S
C2964 H2954 0.930 . S
C2964 C2963 1.400 . S
C2964 C2967 1.386 . S
H2965 C2981 0.930 . S
H2966 C2982 0.931 . S
C2967 H2955 0.929 . S
C2967 C2961 1.390 . S
C2967 C2964 1.386 . S
C2968 C2963 1.490 . S
C2968 C2970 1.395 . S
C2968 C2971 1.403 . S
H2969 C2975 0.930 . S
C2970 H2956 0.930 . S
C2970 C2968 1.395 . S
C2970 C2973 1.403 . S
C2971 C2968 1.403 . S
C2971 C2972 1.524 . S
C2971 C2975 1.400 . S
C2972 H2957 0.960 . S
C2972 H2958 0.960 . S
C2972 H2959 0.960 . S
C2972 C2971 1.524 . S
C2973 C2970 1.403 . S
C2973 C2974 1.392 . S
C2973 C2977 1.495 . S
C2974 C2973 1.392 . S
C2974 C2975 1.385 . S
C2974 C2976 1.478 . S
C2975 H2969 0.930 . S
C2975 C2971 1.400 . S
C2975 C2974 1.385 . S
C2976 C2974 1.478 . S
C2976 C2978 1.381 . S
C2976 C2982 1.383 . S
C2977 C2973 1.495 . S
C2977 H2983 0.959 1_556 S
C2977 H2984 0.961 . S
C2977 H2985 0.960 . S
C2978 C2976 1.381 . S
C2978 C2979 1.394 . S
C2978 H2986 0.930 . S
C2979 C2978 1.394 . S
C2979 C2980 1.383 . S
C2979 H2987 0.929 . S
C2980 C2979 1.383 . S
C2980 C2981 1.377 . S
C2981 H2965 0.930 . S
C2981 C2980 1.377 . S
C2981 C2982 1.379 . S
C2982 H2966 0.931 . S
C2982 C2976 1.383 . S
C2982 C2981 1.379 . S
H2983 C2977 0.959 1_554 S
H2984 C2977 0.961 . S
H2985 C2977 0.960 . S
H2986 C2978 0.930 . S
H2987 C2979 0.929 . S
H2988 C2996 0.929 . S
H2989 C2998 0.930 . S
H2990 C3000 0.930 . S
H2991 C3003 0.929 . S
H2992 C3006 0.930 . S
H2993 C3008 0.960 . S
H2994 C3008 0.960 . S
H2995 C3008 0.960 . S
C2996 H2988 0.929 . S
C2996 C2997 1.377 . S
C2996 C2998 1.384 . S
C2997 C2996 1.377 . S
C2997 C3003 1.390 . S
C2998 H2989 0.930 . S
C2998 C2996 1.384 . S
C2998 C2999 1.372 . S
C2999 C2998 1.372 . S
C2999 C3000 1.400 . S
C2999 C3004 1.490 . S
C3000 H2990 0.930 . S
C3000 C2999 1.400 . S
C3000 C3003 1.386 . S
H3001 C3017 0.930 . S
H3002 C3018 0.931 . S
C3003 H2991 0.929 . S
C3003 C2997 1.390 . S
C3003 C3000 1.386 . S
C3004 C2999 1.490 . S
C3004 C3006 1.395 . S
C3004 C3007 1.403 . S
H3005 C3011 0.930 . S
C3006 H2992 0.930 . S
C3006 C3004 1.395 . S
C3006 C3009 1.403 . S
C3007 C3004 1.403 . S
C3007 C3008 1.524 . S
C3007 C3011 1.400 . S
C3008 H2993 0.960 . S
C3008 H2994 0.960 . S
C3008 H2995 0.960 . S
C3008 C3007 1.524 . S
C3009 C3006 1.403 . S
C3009 C3010 1.392 . S
C3009 C3013 1.495 . S
C3010 C3009 1.392 . S
C3010 C3011 1.385 . S
C3010 C3012 1.478 . S
C3011 H3005 0.930 . S
C3011 C3007 1.400 . S
C3011 C3010 1.385 . S
C3012 C3010 1.478 . S
C3012 C3014 1.381 . S
C3012 C3018 1.383 . S
C3013 C3009 1.495 . S
C3013 H3019 0.959 . S
C3013 H3020 0.961 . S
C3013 H3021 0.960 . S
C3014 C3012 1.381 . S
C3014 C3015 1.394 . S
C3014 H3022 0.930 . S
C3015 C3014 1.394 . S
C3015 C3016 1.383 . S
C3015 H3023 0.929 . S
C3016 C3015 1.383 . S
C3016 C3017 1.377 . S
C3017 H3001 0.930 . S
C3017 C3016 1.377 . S
C3017 C3018 1.379 . S
C3018 H3002 0.931 . S
C3018 C3012 1.383 . S
C3018 C3017 1.379 . S
H3019 C3013 0.959 . S
H3020 C3013 0.961 . S
H3021 C3013 0.960 . S
H3022 C3014 0.930 . S
H3023 C3015 0.929 . S
H3024 C3032 0.929 . S
H3025 C3034 0.930 . S
H3026 C3036 0.930 . S
H3027 C3039 0.929 . S
H3028 C3042 0.930 . S
H3029 C3044 0.960 . S
H3030 C3044 0.960 . S
H3031 C3044 0.960 . S
C3032 H3024 0.929 . S
C3032 C3033 1.377 . S
C3032 C3034 1.384 . S
C3033 C3032 1.377 . S
C3033 C3039 1.390 . S
C3034 H3025 0.930 . S
C3034 C3032 1.384 . S
C3034 C3035 1.372 . S
C3035 C3034 1.372 . S
C3035 C3036 1.400 . S
C3035 C3040 1.490 . S
C3036 H3026 0.930 . S
C3036 C3035 1.400 . S
C3036 C3039 1.386 . S
H3037 C3053 0.930 . S
H3038 C3054 0.931 . S
C3039 H3027 0.929 . S
C3039 C3033 1.390 . S
C3039 C3036 1.386 . S
C3040 C3035 1.490 . S
C3040 C3042 1.395 . S
C3040 C3043 1.403 . S
H3041 C3047 0.930 . S
C3042 H3028 0.930 . S
C3042 C3040 1.395 . S
C3042 C3045 1.403 . S
C3043 C3040 1.403 . S
C3043 C3044 1.524 . S
C3043 C3047 1.400 . S
C3044 H3029 0.960 . S
C3044 H3030 0.960 . S
C3044 H3031 0.960 . S
C3044 C3043 1.524 . S
C3045 C3042 1.403 . S
C3045 C3046 1.392 . S
C3045 C3049 1.495 . S
C3046 C3045 1.392 . S
C3046 C3047 1.385 . S
C3046 C3048 1.478 . S
C3047 H3041 0.930 . S
C3047 C3043 1.400 . S
C3047 C3046 1.385 . S
C3048 C3046 1.478 . S
C3048 C3050 1.381 . S
C3048 C3054 1.383 . S
C3049 C3045 1.495 . S
C3049 H3055 0.959 . S
C3049 H3056 0.961 . S
C3049 H3057 0.960 . S
C3050 C3048 1.381 . S
C3050 C3051 1.394 . S
C3050 H3058 0.930 . S
C3051 C3050 1.394 . S
C3051 C3052 1.383 . S
C3051 H3059 0.929 . S
C3052 C3051 1.383 . S
C3052 C3053 1.377 . S
C3053 H3037 0.930 . S
C3053 C3052 1.377 . S
C3053 C3054 1.379 . S
C3054 H3038 0.931 . S
C3054 C3048 1.383 . S
C3054 C3053 1.379 . S
H3055 C3049 0.959 . S
H3056 C3049 0.961 . S
H3057 C3049 0.960 . S
H3058 C3050 0.930 . S
H3059 C3051 0.929 . S
H3060 C3068 0.929 . S
H3061 C3070 0.930 . S
H3062 C3072 0.930 . S
H3063 C3075 0.929 . S
H3064 C3078 0.930 . S
H3065 C3080 0.960 . S
H3066 C3080 0.960 . S
H3067 C3080 0.960 . S
C3068 H3060 0.929 . S
C3068 C3069 1.377 . S
C3068 C3070 1.384 . S
C3069 C3068 1.377 . S
C3069 C3075 1.390 . S
C3070 H3061 0.930 . S
C3070 C3068 1.384 . S
C3070 C3071 1.372 . S
C3071 C3070 1.372 . S
C3071 C3072 1.400 . S
C3071 C3076 1.490 . S
C3072 H3062 0.930 . S
C3072 C3071 1.400 . S
C3072 C3075 1.386 . S
H3073 C3089 0.930 . S
H3074 C3090 0.931 . S
C3075 H3063 0.929 . S
C3075 C3069 1.390 . S
C3075 C3072 1.386 . S
C3076 C3071 1.490 . S
C3076 C3078 1.395 . S
C3076 C3079 1.403 . S
H3077 C3083 0.930 . S
C3078 H3064 0.930 . S
C3078 C3076 1.395 . S
C3078 C3081 1.403 . S
C3079 C3076 1.403 . S
C3079 C3080 1.524 . S
C3079 C3083 1.400 . S
C3080 H3065 0.960 . S
C3080 H3066 0.960 . S
C3080 H3067 0.960 . S
C3080 C3079 1.524 . S
C3081 C3078 1.403 . S
C3081 C3082 1.392 . S
C3081 C3085 1.495 . S
C3082 C3081 1.392 . S
C3082 C3083 1.385 . S
C3082 C3084 1.478 . S
C3083 H3077 0.930 . S
C3083 C3079 1.400 . S
C3083 C3082 1.385 . S
C3084 C3082 1.478 . S
C3084 C3086 1.381 . S
C3084 C3090 1.383 . S
C3085 C3081 1.495 . S
C3085 H3091 0.959 . S
C3085 H3092 0.961 . S
C3085 H3093 0.960 . S
C3086 C3084 1.381 . S
C3086 C3087 1.394 . S
C3086 H3094 0.930 . S
C3087 C3086 1.394 . S
C3087 C3088 1.383 . S
C3087 H3095 0.929 . S
C3088 C3087 1.383 . S
C3088 C3089 1.377 . S
C3089 H3073 0.930 . S
C3089 C3088 1.377 . S
C3089 C3090 1.379 . S
C3090 H3074 0.931 . S
C3090 C3084 1.383 . S
C3090 C3089 1.379 . S
H3091 C3085 0.959 . S
H3092 C3085 0.961 . S
H3093 C3085 0.960 . S
H3094 C3086 0.930 . S
H3095 C3087 0.929 . S
C513 C81 1.636 . S
C532 C11 1.630 . S
C549 C53 1.637 . S
C568 C25 1.637 . S
C585 C39 1.637 . S
C604 C67 1.632 . S
C621 C95 1.638 . S
C640 C165 1.629 . S
C657 C109 1.637 . S
C676 C137 1.636 . S
C693 C151 1.636 . S
C712 C123 1.631 . S
C729 C179 1.636 . S
C748 C249 1.628 1_556 S
C765 C193 1.635 . S
C784 C221 1.628 1_556 S
C801 C207 1.635 . S
C820 C235 1.628 1_556 S
C837 C333 1.637 . S
C856 C263 1.628 1_556 S
C873 C277 1.638 1_556 S
C892 C305 1.629 . S
C909 C319 1.637 . S
C928 C291 1.633 1_556 S
C945 C417 1.635 . S
C964 C347 1.628 1_554 S
C981 C389 1.638 . S
C1000 C361 1.638 1_554 S
C1017 C403 1.635 . S
C1036 C375 1.628 1_554 S
C1053 C431 1.637 . S
C1072 C501 1.635 1_554 S
C1089 C445 1.637 . S
C1108 C473 1.635 1_554 S
C1125 C459 1.636 . S
C1144 C487 1.631 1_554 S
C1161 C83 0.995 . S
C1180 C13 0.977 . S
C1197 C27 1.008 . S
C1216 C55 0.968 . S
C1233 C69 1.011 . S
C1252 C41 0.977 . S
C1269 C97 0.998 . S
C1288 C167 1.024 . S
C1305 C111 0.995 . S
C1324 C139 0.969 . S
C1341 C153 0.996 . S
C1360 C125 1.002 . S
C1377 C181 1.013 . S
C1396 C251 1.054 . S
C1413 C223 1.016 . S
C1432 C195 1.040 . S
C1449 C237 1.012 . S
C1468 C209 0.984 . S
C1485 C265 1.015 . S
C1504 C335 1.045 . S
C1521 C279 1.000 . S
C1540 C307 0.952 . S
C1557 C321 1.015 . S
C1576 C293 1.043 . S
C1593 C419 1.002 . S
C1612 C349 0.953 . S
C1629 C363 1.004 . S
C1648 C391 1.044 . S
C1665 C377 0.994 . S
C1684 C405 0.972 . S
C1701 C503 1.014 . S
C1720 C433 1.050 . S
C1737 C475 1.011 . S
C1756 C447 1.055 . S
C1773 C489 1.016 . S
C1792 C461 1.014 . S
C1809 C232 1.550 . S
C1828 C8 1.524 . S
C1845 C246 1.547 . S
C1864 C22 1.549 . S
C1881 C218 1.556 . S
C1900 C36 1.568 . S
C1917 C50 1.557 . S
C1936 C372 1.544 . S
C1953 C64 1.552 . S
C1972 C344 1.573 . S
C1989 C78 1.555 . S
C2008 C358 1.533 . S
C2025 C92 1.553 . S
C2044 C484 1.535 . S
C2061 C106 1.552 . S
C2080 C498 1.531 . S
C2097 C120 1.556 . S
C2116 C470 1.572 . S
C2133 C134 1.550 . S
C2152 C288 1.561 . S
C2169 C260 1.557 . S
C2188 C148 1.570 . S
C2205 C274 1.557 . S
C2224 C162 1.564 . S
C2241 C400 1.557 . S
C2260 C176 1.550 . S
C2277 C190 1.558 . S
C2296 C414 1.557 . S
C2313 C204 1.557 . S
C2332 C386 1.560 . S
C2349 C302 1.557 . S
C2368 C456 1.568 . S
C2385 C316 1.547 . S
C2404 C428 1.534 . S
C2421 C442 1.556 . S
C2440 C330 1.557 . S
C2457 C7 1.319 . S
C2476 C147 1.318 . S
C2493 C161 1.318 . S
C2512 C21 1.321 . S
C2529 C133 1.314 . S
C2548 C35 1.329 . S
C2565 C49 1.320 . S
C2584 C119 1.308 . S
C2601 C63 1.320 . S
C2620 C91 1.307 . S
C2637 C77 1.315 . S
C2656 C105 1.329 . S
C2673 C175 1.318 . S
C2692 C315 1.319 . S
C2709 C329 1.320 . S
C2728 C189 1.311 . S
C2745 C301 1.318 . S
C2764 C203 1.323 . S
C2781 C217 1.319 . S
C2800 C287 1.318 . S
C2817 C231 1.319 . S
C2836 C259 1.300 . S
C2853 C273 1.317 . S
C2872 C245 1.326 . S
C2889 C343 1.314 . S
C2908 C483 1.320 . S
C2925 C497 1.319 . S
C2944 C357 1.315 . S
C2961 C371 1.318 . S
C2980 C469 1.322 . S
C2997 C385 1.316 . S
C3016 C455 1.328 . S
C3033 C427 1.318 . S
C3052 C399 1.298 . S
C3069 C413 1.318 . S
C3088 C441 1.323 . S
