# Generated by pormake.
# Topology dia, (4)-cn, num edge types: 1
# Building blocks:
#     Node 0, Type 0, BuildingBlock: CEKHIL_clean_sbu_0, # of connection points: 4
#     Node 1, Type 0, BuildingBlock: CEKHIL_clean_sbu_0, # of connection points: 4
#     Node 2, Type 0, BuildingBlock: CEKHIL_clean_sbu_0, # of connection points: 4
#     Node 3, Type 0, BuildingBlock: CEKHIL_clean_sbu_0, # of connection points: 4
#     Node 4, Type 0, BuildingBlock: CEKHIL_clean_sbu_0, # of connection points: 4
#     Node 5, Type 0, BuildingBlock: CEKHIL_clean_sbu_0, # of connection points: 4
#     Node 6, Type 0, BuildingBlock: CEKHIL_clean_sbu_0, # of connection points: 4
#     Node 7, Type 0, BuildingBlock: CEKHIL_clean_sbu_0, # of connection points: 4
#     Edge 8, Type (0, 0), BuildingBlock: XUDNAN_clean_linker_2, # of connection points: 2
#     Edge 9, Type (0, 0), BuildingBlock: XUDNAN_clean_linker_2, # of connection points: 2
#     Edge 10, Type (0, 0), BuildingBlock: XUDNAN_clean_linker_2, # of connection points: 2
#     Edge 11, Type (0, 0), BuildingBlock: XUDNAN_clean_linker_2, # of connection points: 2
#     Edge 12, Type (0, 0), BuildingBlock: XUDNAN_clean_linker_2, # of connection points: 2
#     Edge 13, Type (0, 0), BuildingBlock: XUDNAN_clean_linker_2, # of connection points: 2
#     Edge 14, Type (0, 0), BuildingBlock: XUDNAN_clean_linker_2, # of connection points: 2
#     Edge 15, Type (0, 0), BuildingBlock: XUDNAN_clean_linker_2, # of connection points: 2
#     Edge 16, Type (0, 0), BuildingBlock: XUDNAN_clean_linker_2, # of connection points: 2
#     Edge 17, Type (0, 0), BuildingBlock: XUDNAN_clean_linker_2, # of connection points: 2
#     Edge 18, Type (0, 0), BuildingBlock: XUDNAN_clean_linker_2, # of connection points: 2
#     Edge 19, Type (0, 0), BuildingBlock: XUDNAN_clean_linker_2, # of connection points: 2
#     Edge 20, Type (0, 0), BuildingBlock: XUDNAN_clean_linker_2, # of connection points: 2
#     Edge 21, Type (0, 0), BuildingBlock: XUDNAN_clean_linker_2, # of connection points: 2
#     Edge 22, Type (0, 0), BuildingBlock: XUDNAN_clean_linker_2, # of connection points: 2
#     Edge 23, Type (0, 0), BuildingBlock: XUDNAN_clean_linker_2, # of connection points: 2
# Relax obj value: 0.001
# Max RMSD: 0.018
# Mean RMSD: 0.018
data_MOF--net-dia--node1-CEKHIL_clean_sbu_0--edge1-XUDNAN_clean_linker_2
_symmetry_space_group_name_H-M    P1
_symmetry_Int_Tables_number       1
_symmetry_cell_setting            triclinic
loop_
_symmetry_equiv_pos_as_xyz
'x, y, z'
_cell_length_a     38.163174
_cell_length_b     38.243661
_cell_length_c     24.973912
_cell_angle_alpha  90.03886
_cell_angle_beta   90.348576
_cell_angle_gamma 91.822389
loop_
_atom_site_label
_atom_site_type_symbol
_atom_site_fract_x
_atom_site_fract_y
_atom_site_fract_z
_atom_type_partial_charge
Co0 Co 0.13436 0.15166 0.62463 0.0
O1 O 0.10075 0.18756 0.61224 0.0
O2 O 0.10223 0.15514 0.6851 0.0
C3 C 0.18142 0.18487 0.59906 0.0
O4 O 0.16638 0.11326 0.65298 0.0
Co5 Co 0.17911 0.12257 0.5325 0.0
O6 O 0.20508 0.09843 0.58993 0.0
C7 C 0.10326 0.10542 0.53736 0.0
C8 C 0.0878 0.18045 0.65899 0.0
C9 C 0.19345 0.0964 0.63758 0.0
O10 O 0.10234 0.1163 0.58627 0.0
O11 O 0.13041 0.10915 0.50778 0.0
O12 O 0.16941 0.18711 0.6475 0.0
O13 O 0.1636 0.16451 0.56721 0.0
Co14 Co 0.86799 0.38355 0.87209 0.0
O15 O 0.83115 0.41817 0.87538 0.0
O16 O 0.86086 0.4048 0.80316 0.0
C17 C 0.83887 0.34119 0.91921 0.0
O18 O 0.90546 0.34943 0.84815 0.0
Co19 Co 0.9068 0.35027 0.96772 0.0
O20 O 0.9286 0.31867 0.9152 0.0
C21 C 0.91712 0.42539 0.94223 0.0
C22 C 0.83626 0.42281 0.82434 0.0
C23 C 0.92549 0.32524 0.86547 0.0
O24 O 0.90438 0.42065 0.89463 0.0
O25 O 0.91663 0.40162 0.97827 0.0
O26 O 0.83195 0.34541 0.86853 0.0
O27 O 0.86152 0.36313 0.9394 0.0
Co28 Co 0.63898 0.14292 0.14603 0.0
O29 O 0.60512 0.17967 0.14968 0.0
O30 O 0.6133 0.14103 0.21351 0.0
C31 C 0.68332 0.17812 0.11551 0.0
O32 O 0.67325 0.10212 0.15721 0.0
Co33 Co 0.6708 0.12316 0.0363 0.0
O34 O 0.70426 0.09776 0.08132 0.0
C35 C 0.59976 0.09677 0.06367 0.0
C36 C 0.59659 0.16817 0.1967 0.0
C37 C 0.69846 0.089 0.12978 0.0
O38 O 0.60258 0.11052 0.11071 0.0
O39 O 0.6233 0.10006 0.02763 0.0
O40 O 0.67665 0.17632 0.16644 0.0
O41 O 0.6616 0.16093 0.08491 0.0
Co42 Co 0.87706 0.87965 0.37009 0.0
O43 O 0.84181 0.91538 0.36705 0.0
O44 O 0.87176 0.89754 0.29764 0.0
C45 C 0.84484 0.8413 0.42052 0.0
O46 O 0.91442 0.84218 0.35674 0.0
Co47 Co 0.90897 0.85708 0.47937 0.0
O48 O 0.92834 0.81879 0.43643 0.0
C49 C 0.92845 0.926 0.43355 0.0
C50 C 0.84782 0.91778 0.31613 0.0
C51 C 0.93014 0.81909 0.38545 0.0
O52 O 0.9144 0.91699 0.38817 0.0
O53 O 0.92595 0.90701 0.47561 0.0
O54 O 0.83994 0.84251 0.36897 0.0
O55 O 0.8666 0.8646 0.43938 0.0
Co56 Co 0.13779 0.64356 0.14032 0.0
O57 O 0.10151 0.67834 0.14316 0.0
O58 O 0.11684 0.64534 0.21106 0.0
C59 C 0.17793 0.67776 0.09641 0.0
O60 O 0.17536 0.60626 0.15442 0.0
Co61 Co 0.16615 0.61613 0.03173 0.0
O62 O 0.20401 0.59796 0.07718 0.0
C63 C 0.09557 0.5935 0.06787 0.0
C64 C 0.09705 0.66987 0.193 0.0
C65 C 0.20104 0.59358 0.12756 0.0
O66 O 0.10146 0.60682 0.11486 0.0
O67 O 0.11696 0.59722 0.02892 0.0
O68 O 0.17459 0.68094 0.148 0.0
O69 O 0.15557 0.65661 0.07382 0.0
Co70 Co 0.37864 0.38354 0.36559 0.0
O71 O 0.3432 0.41903 0.36347 0.0
O72 O 0.37493 0.40379 0.29432 0.0
C73 C 0.34592 0.34388 0.4127 0.0
O74 O 0.41616 0.3464 0.35147 0.0
Co75 Co 0.40917 0.35801 0.47446 0.0
O76 O 0.4272 0.31976 0.42992 0.0
C77 C 0.42581 0.42918 0.43541 0.0
C78 C 0.35063 0.42342 0.3133 0.0
C79 C 0.42994 0.32158 0.37912 0.0
O80 O 0.41523 0.42068 0.38781 0.0
O81 O 0.42214 0.40908 0.47603 0.0
O82 O 0.34162 0.34627 0.36108 0.0
O83 O 0.36743 0.3667 0.43334 0.0
Co84 Co 0.36951 0.88433 0.87276 0.0
O85 O 0.3343 0.91829 0.88516 0.0
O86 O 0.36215 0.9132 0.80877 0.0
C87 C 0.33802 0.83903 0.90783 0.0
O88 O 0.40654 0.84987 0.84567 0.0
Co89 Co 0.40301 0.84775 0.97028 0.0
O90 O 0.41611 0.81366 0.91501 0.0
C91 C 0.4253 0.92004 0.94436 0.0
C92 C 0.33846 0.92899 0.83645 0.0
C93 C 0.41872 0.82133 0.86553 0.0
O94 O 0.40657 0.91877 0.90128 0.0
O95 O 0.42634 0.89512 0.97838 0.0
O96 O 0.33336 0.84844 0.85842 0.0
O97 O 0.35924 0.85889 0.93566 0.0
Co98 Co 0.63494 0.65022 0.63939 0.0
O99 O 0.60204 0.68788 0.63983 0.0
O100 O 0.60637 0.64839 0.70372 0.0
C101 C 0.68153 0.68398 0.61317 0.0
O102 O 0.66701 0.60853 0.65438 0.0
Co103 Co 0.67051 0.62894 0.53334 0.0
O104 O 0.69982 0.60052 0.58108 0.0
C105 C 0.59712 0.60656 0.55234 0.0
C106 C 0.59099 0.67591 0.68542 0.0
C107 C 0.69191 0.59322 0.62942 0.0
O108 O 0.59937 0.61883 0.60041 0.0
O109 O 0.62187 0.60998 0.51819 0.0
O110 O 0.67267 0.68263 0.66337 0.0
O111 O 0.66065 0.66727 0.58071 0.0
H112 H 0.29392 0.29472 0.38489 0.0
H113 H 0.35628 0.33432 0.51913 0.0
H114 H 0.32376 0.29497 0.57999 0.0
H115 H 0.21359 0.28833 0.45339 0.0
H116 H 0.19819 0.24827 0.42184 0.0
H117 H 0.22831 0.27734 0.38719 0.0
H118 H 0.27132 0.22687 0.37542 0.0
H119 H 0.24123 0.19758 0.40996 0.0
H120 H 0.2858 0.20318 0.43346 0.0
H121 H 0.28121 0.25616 0.62826 0.0
H122 H 0.23234 0.21765 0.65988 0.0
H123 H 0.19841 0.20088 0.49546 0.0
C124 C 0.30107 0.29461 0.42691 0.0
C125 C 0.32771 0.31761 0.4471 0.0
C126 C 0.33604 0.31696 0.50251 0.0
C127 C 0.31774 0.29464 0.53759 0.0
C128 C 0.29124 0.27278 0.51679 0.0
C129 C 0.28304 0.27225 0.46275 0.0
C130 C 0.25228 0.24714 0.45157 0.0
C131 C 0.22126 0.26643 0.42706 0.0
C132 C 0.26333 0.21689 0.41547 0.0
C133 C 0.24412 0.23444 0.50785 0.0
C134 C 0.267 0.24954 0.54482 0.0
C135 C 0.26343 0.24369 0.59967 0.0
C136 C 0.23558 0.22189 0.6173 0.0
C137 C 0.2119 0.20607 0.58015 0.0
C138 C 0.21653 0.21216 0.52472 0.0
H139 H 0.70994 0.58072 0.73747 0.0
H140 H 0.71735 0.53817 0.57668 0.0
H141 H 0.75273 0.4907 0.61057 0.0
H142 H 0.79825 0.56186 0.77697 0.0
H143 H 0.78787 0.5495 0.84481 0.0
H144 H 0.761 0.58002 0.80976 0.0
H145 H 0.70601 0.54052 0.82752 0.0
H146 H 0.73271 0.50996 0.86287 0.0
H147 H 0.7057 0.49524 0.8073 0.0
H148 H 0.79014 0.45029 0.65749 0.0
H149 H 0.82612 0.41566 0.71795 0.0
H150 H 0.79579 0.48016 0.85211 0.0
C151 C 0.71863 0.56109 0.70972 0.0
C152 C 0.71085 0.56354 0.6541 0.0
C153 C 0.72313 0.53739 0.61918 0.0
C154 C 0.74325 0.51008 0.63806 0.0
C155 C 0.75118 0.50879 0.69235 0.0
C156 C 0.73923 0.53325 0.72808 0.0
C157 C 0.75296 0.5255 0.78433 0.0
C158 C 0.77641 0.55604 0.8052 0.0
C159 C 0.72252 0.51731 0.82278 0.0
C160 C 0.77438 0.49308 0.77406 0.0
C161 C 0.77288 0.48432 0.72044 0.0
C162 C 0.79133 0.45664 0.69971 0.0
C163 C 0.8119 0.43718 0.73449 0.0
C164 C 0.81386 0.44497 0.7899 0.0
C165 C 0.79459 0.47331 0.81006 0.0
H166 H 0.59786 0.0303 0.02578 0.0
H167 H 0.53122 0.11503 0.0704 0.0
H168 H 0.47895 0.0802 0.03903 0.0
H169 H 0.55152 1.00112 0.90864 0.0
H170 H 0.55735 0.95529 0.92151 0.0
H171 H 0.58929 0.98728 0.94576 0.0
H172 H 0.58144 0.96397 0.04253 0.0
H173 H 0.54987 0.9316 0.01846 0.0
H174 H 0.53819 0.96121 0.07115 0.0
H175 H 0.43461 0.03678 0.99715 0.0
H176 H 0.40063 0.98479 0.96335 0.0
H177 H 0.49612 0.92683 0.95534 0.0
C178 C 0.57218 0.04137 0.02908 0.0
C179 C 0.56829 0.07527 0.05005 0.0
C180 C 0.53446 0.08897 0.05452 0.0
C181 C 0.5048 0.06951 0.03646 0.0
C182 C 0.50955 0.03622 0.01517 0.0
C183 C 0.54235 0.02197 0.01268 0.0
C184 C 0.54032 0.98494 0.99122 0.0
C185 C 0.56084 0.98201 0.93866 0.0
C186 C 0.5532 0.9589 0.03336 0.0
C187 C 0.50126 0.98053 0.98158 0.0
C188 C 0.48399 0.01062 0.99454 0.0
C189 C 0.44785 0.01301 0.98738 0.0
C190 C 0.42882 0.98357 0.96785 0.0
C191 C 0.44595 0.95215 0.95686 0.0
C192 C 0.48257 0.95071 0.96347 0.0
H193 H 0.958 0.81496 0.2812 0.0
H194 H 0.95319 0.76042 0.43379 0.0
H195 H 0.99327 0.71701 0.4002 0.0
H196 H 0.96269 0.73459 0.19849 0.0
H197 H 0.99287 0.75417 0.15115 0.0
H198 H 0.96214 0.78094 0.18559 0.0
H199 H 0.01339 0.82101 0.2199 0.0
H200 H 0.04426 0.79429 0.18579 0.0
H201 H 0.04891 0.80213 0.2567 0.0
H202 H 0.03642 0.68082 0.35405 0.0
H203 H 0.07852 0.65234 0.29511 0.0
H204 H 0.05654 0.72734 0.16984 0.0
C205 C 0.96501 0.79363 0.30722 0.0
C206 C 0.95223 0.79162 0.36055 0.0
C207 C 0.9625 0.76317 0.39308 0.0
C208 C 0.98537 0.73808 0.37434 0.0
C209 C 0.99801 0.74115 0.32246 0.0
C210 C 0.98809 0.7679 0.28894 0.0
C211 C 1.00638 0.76481 0.23503 0.0
C212 C 0.97941 0.75824 0.18989 0.0
C213 C 0.02962 0.79751 0.22371 0.0
C214 C 0.02844 0.73271 0.24428 0.0
C215 C 0.02296 0.71955 0.29508 0.0
C216 C 0.04074 0.69068 0.31395 0.0
C217 C 0.06473 0.67467 0.28012 0.0
C218 C 0.07093 0.68733 0.22765 0.0
C219 C 0.05231 0.71679 0.20958 0.0
H220 H 0.33242 0.95389 0.73167 0.0
H221 H 0.29277 0.96744 0.89274 0.0
H222 H 0.25229 0.01134 0.85989 0.0
H223 H 0.3276 0.04583 0.69229 0.0
H224 H 0.31376 0.03589 0.62469 0.0
H225 H 0.34067 1.00591 0.66077 0.0
H226 H 0.29436 0.95609 0.64387 0.0
H227 H 0.26725 0.98597 0.60797 0.0
H228 H 0.24965 0.96184 0.6642 0.0
H229 H 0.21416 0.0525 0.80997 0.0
H230 H 0.18273 0.08973 0.74606 0.0
H231 H 0.24665 0.05093 0.61692 0.0
C232 C 0.31546 0.96635 0.76002 0.0
C233 C 0.31596 0.95702 0.81493 0.0
C234 C 0.29305 0.9739 0.85053 0.0
C235 C 0.26982 0.99899 0.83228 0.0
C236 C 0.26959 1.00728 0.77808 0.0
C237 C 0.29188 0.99169 0.74238 0.0
C238 C 0.28579 1.00533 0.68603 0.0
C239 C 0.31893 0.02437 0.6647 0.0
C240 C 0.27353 0.97553 0.6483 0.0
C241 C 0.25661 0.03075 0.69583 0.0
C242 C 0.24764 0.03139 0.74923 0.0
C243 C 0.22106 0.05236 0.76801 0.0
C244 C 0.20325 0.07341 0.73131 0.0
C245 C 0.21206 0.07354 0.67628 0.0
C246 C 0.2392 0.05174 0.65865 0.0
H247 H 0.97552 0.45814 0.9004 0.0
H248 H 0.89735 0.46588 0.02434 0.0
H249 H 0.93259 0.51327 0.06806 0.0
H250 H 0.04653 0.46548 0.98464 0.0
H251 H 0.07466 0.49076 0.94057 0.0
H252 H 0.04063 0.4624 0.91309 0.0
H253 H 0.01448 0.51436 0.86154 0.0
H254 H 0.04896 0.54282 0.88794 0.0
H255 H 1.00375 0.55347 0.89745 0.0
H256 H 0.98048 0.5538 0.10535 0.0
H257 H 0.0351 0.58756 0.12844 0.0
H258 H 0.08191 0.55196 0.9808 0.0
C259 C 0.96515 0.47109 0.9352 0.0
C260 C 0.93338 0.45922 0.95832 0.0
C261 C 0.92132 0.47537 0.0055 0.0
C262 C 0.94124 0.50212 0.03075 0.0
C263 C 0.97329 0.51232 0.00841 0.0
C264 C 0.98496 0.49765 0.96124 0.0
C265 C 0.02175 0.51084 0.94838 0.0
C266 C 0.04738 0.48057 0.94659 0.0
C267 C 0.02225 0.53162 0.89571 0.0
C268 C 0.02914 0.53448 0.99609 0.0
C269 C 1.00092 0.5352 0.03026 0.0
C270 C 1.00259 0.55388 0.07841 0.0
C271 C 0.03377 0.57276 0.09146 0.0
C272 C 0.06281 0.5727 0.05646 0.0
C273 C 0.06018 0.55308 0.00835 0.0
H274 H 0.46997 0.32326 0.28502 0.0
H275 H 0.43591 0.25527 0.41509 0.0
H276 H 0.47303 0.20892 0.38141 0.0
H277 H 0.47583 0.25337 0.18286 0.0
H278 H 0.51472 0.27252 0.15274 0.0
H279 H 0.48362 0.30011 0.18468 0.0
H280 H 0.53312 0.32626 0.24526 0.0
H281 H 0.56429 0.29857 0.21379 0.0
H282 H 0.55893 0.29744 0.28543 0.0
H283 H 0.51702 0.17093 0.33877 0.0
H284 H 0.56267 0.14263 0.28561 0.0
H285 H 0.56856 0.23316 0.181 0.0
C286 C 0.46985 0.29839 0.30571 0.0
C287 C 0.44989 0.29317 0.35299 0.0
C288 C 0.45103 0.26025 0.37917 0.0
C289 C 0.47206 0.23358 0.36028 0.0
C290 C 0.4921 0.23977 0.31477 0.0
C291 C 0.49105 0.27117 0.28736 0.0
C292 C 0.5163 0.27101 0.24035 0.0
C293 C 0.49642 0.27445 0.18699 0.0
C294 C 0.54485 0.30005 0.2466 0.0
C295 C 0.53167 0.23487 0.24611 0.0
C296 C 0.51734 0.21739 0.28947 0.0
C297 C 0.52821 0.18422 0.30436 0.0
C298 C 0.55429 0.16836 0.27404 0.0
C299 C 0.56918 0.18543 0.22895 0.0
C300 C 0.55751 0.21918 0.21493 0.0
H301 H 0.79247 0.79223 0.39542 0.0
H302 H 0.85598 0.83327 0.52736 0.0
H303 H 0.82384 0.79455 0.58992 0.0
H304 H 0.71264 0.78693 0.46551 0.0
H305 H 0.69693 0.74666 0.43492 0.0
H306 H 0.72685 0.77539 0.39926 0.0
H307 H 0.76963 0.72469 0.38767 0.0
H308 H 0.73975 0.69575 0.42326 0.0
H309 H 0.78451 0.70144 0.44589 0.0
H310 H 0.78192 0.75519 0.63976 0.0
H311 H 0.73347 0.71661 0.67269 0.0
H312 H 0.69761 0.69993 0.50914 0.0
C313 C 0.79994 0.79261 0.43732 0.0
C314 C 0.82682 0.81574 0.45638 0.0
C315 C 0.83555 0.81576 0.51166 0.0
C316 C 0.81748 0.79379 0.54764 0.0
C317 C 0.79077 0.77172 0.52785 0.0
C318 C 0.78211 0.77073 0.47398 0.0
C319 C 0.75123 0.74563 0.46378 0.0
C320 C 0.72008 0.76481 0.43945 0.0
C321 C 0.76193 0.71506 0.42803 0.0
C322 C 0.74347 0.7334 0.52039 0.0
C323 C 0.76673 0.74862 0.55671 0.0
C324 C 0.76379 0.74273 0.61165 0.0
C325 C 0.73618 0.72086 0.63003 0.0
C326 C 0.71194 0.70513 0.59354 0.0
C327 C 0.71599 0.71125 0.538 0.0
H328 H 0.1991 0.55543 0.22413 0.0
H329 H 0.26623 0.58293 0.08969 0.0
H330 H 0.31078 0.54368 0.12323 0.0
H331 H 0.27135 0.54816 0.32316 0.0
H332 H 0.25098 0.51127 0.35702 0.0
H333 H 0.22424 0.54298 0.32432 0.0
H334 H 0.19377 0.49348 0.26877 0.0
H335 H 0.22062 0.46168 0.30096 0.0
H336 H 0.22 0.46506 0.22898 0.0
H337 H 0.34662 0.4982 0.16549 0.0
H338 H 0.37415 0.45271 0.22013 0.0
H339 H 0.28717 0.45484 0.3311 0.0
C340 C 0.2234 0.5536 0.20234 0.0
C341 C 0.22872 0.57234 0.15378 0.0
C342 C 0.26099 0.56879 0.12649 0.0
C343 C 0.2867 0.54648 0.14526 0.0
C344 C 0.28034 0.5277 0.19198 0.0
C345 C 0.24981 0.53124 0.22079 0.0
C346 C 0.24995 0.50727 0.26958 0.0
C347 C 0.24908 0.52871 0.32161 0.0
C348 C 0.21926 0.48027 0.26689 0.0
C349 C 0.28505 0.48974 0.26307 0.0
C350 C 0.30192 0.50187 0.2177 0.0
C351 C 0.33388 0.48874 0.20151 0.0
C352 C 0.34928 0.46274 0.23268 0.0
C353 C 0.33307 0.45024 0.28006 0.0
C354 C 0.30046 0.46408 0.29537 0.0
H355 H 0.78477 0.29333 0.89446 0.0
H356 H 0.85519 0.32766 0.02271 0.0
H357 H 0.82564 0.28683 0.08458 0.0
H358 H 0.70859 0.28556 0.9724 0.0
H359 H 0.69094 0.24653 0.94037 0.0
H360 H 0.71951 0.27616 0.90384 0.0
H361 H 0.76093 0.22554 0.88332 0.0
H362 H 0.73236 0.19568 0.91968 0.0
H363 H 0.77809 0.20014 0.93774 0.0
H364 H 0.78564 0.24705 0.13537 0.0
H365 H 0.73833 0.20822 0.17085 0.0
H366 H 0.69418 0.19736 0.0109 0.0
C367 C 0.79431 0.29172 0.93527 0.0
C368 C 0.82236 0.31375 0.95354 0.0
C369 C 0.83382 0.31113 0.00751 0.0
C370 C 0.81723 0.28792 0.04316 0.0
C371 C 0.78929 0.26711 0.0244 0.0
C372 C 0.77803 0.2684 0.97169 0.0
C373 C 0.74637 0.24399 0.96293 0.0
C374 C 0.71447 0.26428 0.94377 0.0
C375 C 0.75496 0.21459 0.92358 0.0
C376 C 0.74109 0.22982 0.01923 0.0
C377 C 0.76634 0.24338 0.05391 0.0
C378 C 0.76598 0.23579 0.10851 0.0
C379 C 0.73898 0.21381 0.12835 0.0
C380 C 0.71278 0.19961 0.09365 0.0
C381 C 0.71415 0.20748 0.03829 0.0
H382 H 0.8003 0.9682 0.34482 0.0
H383 H 0.84953 0.92133 0.2071 0.0
H384 H 0.81576 0.95896 0.14718 0.0
H385 H 0.71432 0.9777 0.28517 0.0
H386 H 0.70678 0.01961 0.3153 0.0
H387 H 0.73457 0.98905 0.34851 0.0
H388 H 0.78507 0.03579 0.35155 0.0
H389 H 0.7574 0.06654 0.31853 0.0
H390 H 0.79929 0.05659 0.29032 0.0
H391 H 0.77719 1.00017 0.10186 0.0
H392 H 0.73741 0.04486 0.07171 0.0
H393 H 0.71147 0.0684 0.23694 0.0
C394 C 0.80396 0.9659 0.30202 0.0
C395 C 0.82771 0.94158 0.28074 0.0
C396 C 0.83173 0.93961 0.22453 0.0
C397 C 0.81254 0.96089 0.19009 0.0
C398 C 0.78938 0.98434 0.21219 0.0
C399 C 0.78504 0.98728 0.26678 0.0
C400 C 0.75865 0.01534 0.27941 0.0
C401 C 0.72668 0.99947 0.30885 0.0
C402 C 0.77615 0.04534 0.31188 0.0
C403 C 0.74872 0.02747 0.22328 0.0
C404 C 0.76695 0.00896 0.18551 0.0
C405 C 0.76292 0.01495 0.13106 0.0
C406 C 0.7401 0.04072 0.11441 0.0
C407 C 0.72113 0.06083 0.15169 0.0
C408 C 0.72535 0.05369 0.20721 0.0
H409 H 0.95391 0.95667 0.52547 0.0
H410 H 0.95183 0.97002 0.35279 0.0
H411 H 0.99177 0.02199 0.36205 0.0
H412 H 0.9588 0.05045 0.56085 0.0
H413 H 0.98782 0.04311 0.61665 0.0
H414 H 0.95611 0.00958 0.59674 0.0
H415 H 1.00581 0.96545 0.58697 0.0
H416 H 0.03762 0.99876 0.60671 0.0
H417 H 0.04242 0.97608 0.54402 0.0
H418 H 0.03716 0.06789 0.38955 0.0
H419 H 0.08346 0.10479 0.43256 0.0
H420 H 0.05472 0.06224 0.58771 0.0
C421 C 0.96134 0.97071 0.48945 0.0
C422 C 0.94972 0.95909 0.43825 0.0
C423 C 0.96024 0.97839 0.3924 0.0
C424 C 0.98289 1.00797 0.39732 0.0
C425 C 0.99438 0.01814 0.44838 0.0
C426 C 0.98368 1.00023 0.49367 0.0
C427 C 1.0014 0.01503 0.54364 0.0
C428 C 0.97441 0.03047 0.58171 0.0
C429 C 0.0231 0.98717 0.57197 0.0
C430 C 0.02471 0.04347 0.51933 0.0
C431 C 0.02005 0.04501 0.46436 0.0
C432 C 0.04057 0.0673 0.43258 0.0
C433 C 0.06689 0.08807 0.45741 0.0
C434 C 0.07247 0.08656 0.51354 0.0
C435 C 0.05054 0.0645 0.54494 0.0
H436 H 0.97225 0.27238 0.88495 0.0
H437 H 0.92562 0.33175 0.75608 0.0
H438 H 0.95992 0.29932 0.69042 0.0
H439 H 0.05832 0.26951 0.82894 0.0
H440 H 0.06618 0.22555 0.85092 0.0
H441 H 0.0371 0.2525 0.88819 0.0
H442 H 0.98764 0.20494 0.87869 0.0
H443 H 0.01656 0.17786 0.84126 0.0
H444 H 0.97495 0.18945 0.81297 0.0
H445 H 1.00064 0.26235 0.63848 0.0
H446 H 0.04527 0.22335 0.60355 0.0
H447 H 0.06585 0.18637 0.76461 0.0
C448 C 0.96906 0.27848 0.84291 0.0
C449 C 0.946 0.30482 0.82599 0.0
C450 C 0.94292 0.31185 0.77043 0.0
C451 C 0.96232 0.29348 0.73265 0.0
C452 C 0.98478 0.2679 0.75067 0.0
C453 C 0.98827 0.26028 0.80444 0.0
C454 C 0.01489 0.23195 0.81295 0.0
C455 C 0.04596 0.24571 0.84728 0.0
C456 C 0.99746 0.1991 0.83795 0.0
C457 C 0.02604 0.2251 0.7556 0.0
C458 C 1.0082 0.24615 0.72044 0.0
C459 C 0.01459 0.24559 0.66561 0.0
C460 C 0.04008 0.2233 0.64614 0.0
C461 C 0.05904 0.20155 0.68114 0.0
C462 C 0.05154 0.20227 0.73667 0.0
H463 H 0.57139 0.74477 0.68239 0.0
H464 H 0.54391 0.64395 0.75257 0.0
H465 H 0.49328 0.6699 0.79726 0.0
H466 H 0.5516 0.79469 0.80004 0.0
H467 H 0.53506 0.8314 0.76357 0.0
H468 H 0.5675 0.80445 0.73371 0.0
H469 H 0.5265 0.79344 0.65207 0.0
H470 H 0.49374 0.82005 0.68202 0.0
H471 H 0.48275 0.77566 0.6624 0.0
H472 H 0.44625 0.70602 0.83442 0.0
H473 H 0.41003 0.75151 0.87314 0.0
H474 H 0.46864 0.83124 0.78457 0.0
C475 C 0.55452 0.72817 0.70694 0.0
C476 C 0.56142 0.69218 0.71372 0.0
C477 C 0.53918 0.67148 0.74688 0.0
C478 C 0.51021 0.68598 0.77207 0.0
C479 C 0.504 0.72141 0.76441 0.0
C480 C 0.52582 0.74247 0.73347 0.0
C481 C 0.51463 0.78038 0.73551 0.0
C482 C 0.54394 0.80413 0.75965 0.0
C483 C 0.50376 0.79312 0.67967 0.0
C484 C 0.48319 0.77733 0.77266 0.0
C485 C 0.47736 0.74285 0.78789 0.0
C486 C 0.4506 0.73306 0.82284 0.0
C487 C 0.43009 0.75918 0.84453 0.0
C488 C 0.43633 0.79499 0.83188 0.0
C489 C 0.46276 0.8041 0.79427 0.0
H490 H 0.22295 0.73356 0.12436 0.0
H491 H 0.19573 0.66174 0.99473 0.0
H492 H 0.23831 0.69174 0.93663 0.0
H493 H 0.23005 0.80867 0.04379 0.0
H494 H 0.26688 0.82883 0.07877 0.0
H495 H 0.23733 0.79929 0.11365 0.0
H496 H 0.28943 0.76126 0.14119 0.0
H497 H 0.31919 0.79078 0.10638 0.0
H498 H 0.31788 0.7448 0.09028 0.0
H499 H 0.27798 0.73216 0.8887 0.0
H500 H 0.31426 0.78149 0.8539 0.0
H501 H 0.31835 0.828 0.0124 0.0
C502 C 0.22661 0.72378 0.08416 0.0
C503 C 0.20611 0.69503 0.06444 0.0
C504 C 0.21112 0.68347 0.01116 0.0
C505 C 0.2354 0.70032 0.97762 0.0
C506 C 0.25468 0.72885 0.99767 0.0
C507 C 0.25084 0.74057 0.04964 0.0
C508 C 0.2733 0.77354 0.05923 0.0
C509 C 0.25052 0.8044 0.07477 0.0
C510 C 0.30163 0.7672 0.1018 0.0
C511 C 0.28938 0.77882 0.00415 0.0
C512 C 0.27837 0.75247 0.96954 0.0
C513 C 0.28733 0.75268 0.91554 0.0
C514 C 0.3078 0.78083 0.89608 0.0
C515 C 0.31928 0.80824 0.93056 0.0
C516 C 0.31046 0.80693 0.98549 0.0
H517 H 0.48738 0.45735 0.39544 0.0
H518 H 0.40203 0.47714 0.50371 0.0
H519 H 0.43446 0.52901 0.53942 0.0
H520 H 0.55336 0.47501 0.48612 0.0
H521 H 0.58388 0.49593 0.44059 0.0
H522 H 0.55171 0.4645 0.41574 0.0
H523 H 0.52866 0.51004 0.34853 0.0
H524 H 0.5612 0.54155 0.3726 0.0
H525 H 0.51549 0.55205 0.37263 0.0
H526 H 0.47924 0.57236 0.57337 0.0
H527 H 0.53228 0.60725 0.59907 0.0
H528 H 0.58918 0.56005 0.46897 0.0
C529 C 0.47503 0.47365 0.42486 0.0
C530 C 0.44195 0.46396 0.44607 0.0
C531 C 0.4271 0.48474 0.48638 0.0
C532 C 0.44535 0.51415 0.50697 0.0
C533 C 0.47853 0.5224 0.48687 0.0
C534 C 0.49314 0.5031 0.44623 0.0
C535 C 0.5306 0.51556 0.43576 0.0
C536 C 0.55639 0.48599 0.44513 0.0
C537 C 0.53419 0.53071 0.37901 0.0
C538 C 0.535 0.54398 0.47791 0.0
C539 C 0.50458 0.54765 0.50671 0.0
C540 C 0.50303 0.57029 0.5504 0.0
C541 C 0.53336 0.58983 0.56494 0.0
C542 C 0.56482 0.58668 0.53582 0.0
C543 C 0.56539 0.56359 0.49148 0.0
loop_
_geom_bond_atom_site_label_1
_geom_bond_atom_site_label_2
_geom_bond_distance
_geom_bond_site_symmetry_2
_ccdc_geom_bond_type
Co0 O1 2.216 . S
Co0 O2 2.091 . S
Co0 O4 2.004 . S
Co0 O10 2.021 . S
Co0 O12 2.137 . S
Co0 O13 2.244 . S
O1 Co0 2.216 . S
O1 C8 1.247 . S
O2 Co0 2.091 . S
O2 C8 1.261 . S
C3 O12 1.247 . S
C3 O13 1.272 . S
O4 Co0 2.004 . S
O4 C9 1.259 . S
Co5 O6 2.061 . S
Co5 O11 2.052 . S
Co5 O13 2.135 . S
O6 Co5 2.061 . S
O6 C9 1.235 . S
C7 O10 1.238 . S
C7 O11 1.241 . S
C8 O1 1.247 . S
C8 O2 1.261 . S
C9 O4 1.259 . S
C9 O6 1.235 . S
O10 Co0 2.021 . S
O10 C7 1.238 . S
O11 Co5 2.052 . S
O11 C7 1.241 . S
O12 Co0 2.137 . S
O12 C3 1.247 . S
O13 Co0 2.244 . S
O13 C3 1.272 . S
O13 Co5 2.135 . S
Co14 O15 2.216 . S
Co14 O16 2.091 . S
Co14 O18 2.004 . S
Co14 O24 2.021 . S
Co14 O26 2.137 . S
Co14 O27 2.244 . S
O15 Co14 2.216 . S
O15 C22 1.247 . S
O16 Co14 2.091 . S
O16 C22 1.261 . S
C17 O26 1.247 . S
C17 O27 1.272 . S
O18 Co14 2.004 . S
O18 C23 1.259 . S
Co19 O20 2.061 . S
Co19 O25 2.052 . S
Co19 O27 2.135 . S
O20 Co19 2.061 . S
O20 C23 1.235 . S
C21 O24 1.238 . S
C21 O25 1.241 . S
C22 O15 1.247 . S
C22 O16 1.261 . S
C23 O18 1.259 . S
C23 O20 1.235 . S
O24 Co14 2.021 . S
O24 C21 1.238 . S
O25 Co19 2.052 . S
O25 C21 1.241 . S
O26 Co14 2.137 . S
O26 C17 1.247 . S
O27 Co14 2.244 . S
O27 C17 1.272 . S
O27 Co19 2.135 . S
Co28 O29 2.216 . S
Co28 O30 2.091 . S
Co28 O32 2.004 . S
Co28 O38 2.021 . S
Co28 O40 2.137 . S
Co28 O41 2.244 . S
O29 Co28 2.216 . S
O29 C36 1.247 . S
O30 Co28 2.091 . S
O30 C36 1.261 . S
C31 O40 1.247 . S
C31 O41 1.272 . S
O32 Co28 2.004 . S
O32 C37 1.259 . S
Co33 O34 2.061 . S
Co33 O39 2.052 . S
Co33 O41 2.135 . S
O34 Co33 2.061 . S
O34 C37 1.235 . S
C35 O38 1.238 . S
C35 O39 1.241 . S
C36 O29 1.247 . S
C36 O30 1.261 . S
C37 O32 1.259 . S
C37 O34 1.235 . S
O38 Co28 2.021 . S
O38 C35 1.238 . S
O39 Co33 2.052 . S
O39 C35 1.241 . S
O40 Co28 2.137 . S
O40 C31 1.247 . S
O41 Co28 2.244 . S
O41 C31 1.272 . S
O41 Co33 2.135 . S
Co42 O43 2.216 . S
Co42 O44 2.091 . S
Co42 O46 2.004 . S
Co42 O52 2.021 . S
Co42 O54 2.137 . S
Co42 O55 2.244 . S
O43 Co42 2.216 . S
O43 C50 1.247 . S
O44 Co42 2.091 . S
O44 C50 1.261 . S
C45 O54 1.247 . S
C45 O55 1.272 . S
O46 Co42 2.004 . S
O46 C51 1.259 . S
Co47 O48 2.061 . S
Co47 O53 2.052 . S
Co47 O55 2.135 . S
O48 Co47 2.061 . S
O48 C51 1.235 . S
C49 O52 1.238 . S
C49 O53 1.241 . S
C50 O43 1.247 . S
C50 O44 1.261 . S
C51 O46 1.259 . S
C51 O48 1.235 . S
O52 Co42 2.021 . S
O52 C49 1.238 . S
O53 Co47 2.052 . S
O53 C49 1.241 . S
O54 Co42 2.137 . S
O54 C45 1.247 . S
O55 Co42 2.244 . S
O55 C45 1.272 . S
O55 Co47 2.135 . S
Co56 O57 2.216 . S
Co56 O58 2.091 . S
Co56 O60 2.004 . S
Co56 O66 2.021 . S
Co56 O68 2.137 . S
Co56 O69 2.244 . S
O57 Co56 2.216 . S
O57 C64 1.247 . S
O58 Co56 2.091 . S
O58 C64 1.261 . S
C59 O68 1.247 . S
C59 O69 1.272 . S
O60 Co56 2.004 . S
O60 C65 1.259 . S
Co61 O62 2.061 . S
Co61 O67 2.052 . S
Co61 O69 2.135 . S
O62 Co61 2.061 . S
O62 C65 1.235 . S
C63 O66 1.238 . S
C63 O67 1.241 . S
C64 O57 1.247 . S
C64 O58 1.261 . S
C65 O60 1.259 . S
C65 O62 1.235 . S
O66 Co56 2.021 . S
O66 C63 1.238 . S
O67 Co61 2.052 . S
O67 C63 1.241 . S
O68 Co56 2.137 . S
O68 C59 1.247 . S
O69 Co56 2.244 . S
O69 C59 1.272 . S
O69 Co61 2.135 . S
Co70 O71 2.216 . S
Co70 O72 2.091 . S
Co70 O74 2.004 . S
Co70 O80 2.021 . S
Co70 O82 2.137 . S
Co70 O83 2.244 . S
O71 Co70 2.216 . S
O71 C78 1.247 . S
O72 Co70 2.091 . S
O72 C78 1.261 . S
C73 O82 1.247 . S
C73 O83 1.272 . S
O74 Co70 2.004 . S
O74 C79 1.259 . S
Co75 O76 2.061 . S
Co75 O81 2.052 . S
Co75 O83 2.135 . S
O76 Co75 2.061 . S
O76 C79 1.235 . S
C77 O80 1.238 . S
C77 O81 1.241 . S
C78 O71 1.247 . S
C78 O72 1.261 . S
C79 O74 1.259 . S
C79 O76 1.235 . S
O80 Co70 2.021 . S
O80 C77 1.238 . S
O81 Co75 2.052 . S
O81 C77 1.241 . S
O82 Co70 2.137 . S
O82 C73 1.247 . S
O83 Co70 2.244 . S
O83 C73 1.272 . S
O83 Co75 2.135 . S
Co84 O85 2.216 . S
Co84 O86 2.091 . S
Co84 O88 2.004 . S
Co84 O94 2.021 . S
Co84 O96 2.137 . S
Co84 O97 2.244 . S
O85 Co84 2.216 . S
O85 C92 1.247 . S
O86 Co84 2.091 . S
O86 C92 1.261 . S
C87 O96 1.247 . S
C87 O97 1.272 . S
O88 Co84 2.004 . S
O88 C93 1.259 . S
Co89 O90 2.061 . S
Co89 O95 2.052 . S
Co89 O97 2.135 . S
O90 Co89 2.061 . S
O90 C93 1.235 . S
C91 O94 1.238 . S
C91 O95 1.241 . S
C92 O85 1.247 . S
C92 O86 1.261 . S
C93 O88 1.259 . S
C93 O90 1.235 . S
O94 Co84 2.021 . S
O94 C91 1.238 . S
O95 Co89 2.052 . S
O95 C91 1.241 . S
O96 Co84 2.137 . S
O96 C87 1.247 . S
O97 Co84 2.244 . S
O97 C87 1.272 . S
O97 Co89 2.135 . S
Co98 O99 2.216 . S
Co98 O100 2.091 . S
Co98 O102 2.004 . S
Co98 O108 2.021 . S
Co98 O110 2.137 . S
Co98 O111 2.244 . S
O99 Co98 2.216 . S
O99 C106 1.247 . S
O100 Co98 2.091 . S
O100 C106 1.261 . S
C101 O110 1.247 . S
C101 O111 1.272 . S
O102 Co98 2.004 . S
O102 C107 1.259 . S
Co103 O104 2.061 . S
Co103 O109 2.052 . S
Co103 O111 2.135 . S
O104 Co103 2.061 . S
O104 C107 1.235 . S
C105 O108 1.238 . S
C105 O109 1.241 . S
C106 O99 1.247 . S
C106 O100 1.261 . S
C107 O102 1.259 . S
C107 O104 1.235 . S
O108 Co98 2.021 . S
O108 C105 1.238 . S
O109 Co103 2.052 . S
O109 C105 1.241 . S
O110 Co98 2.137 . S
O110 C101 1.247 . S
O111 Co98 2.244 . S
O111 C101 1.272 . S
O111 Co103 2.135 . S
H112 C124 0.930 . S
H113 C126 0.930 . S
H114 C127 0.930 . S
H115 C131 0.959 . S
H116 C131 0.959 . S
H117 C131 0.961 . S
H118 C132 0.960 . S
H119 C132 0.961 . S
H120 C132 0.959 . S
H121 C135 0.929 . S
H122 C136 0.931 . S
H123 C138 0.930 . S
C124 H112 0.930 . S
C124 C125 1.399 . S
C124 C129 1.399 . S
C125 C124 1.399 . S
C125 C126 1.376 . S
C126 H113 0.930 . S
C126 C125 1.376 . S
C126 C127 1.388 . S
C127 H114 0.930 . S
C127 C126 1.388 . S
C127 C128 1.390 . S
C128 C127 1.390 . S
C128 C129 1.394 . S
C128 C134 1.465 . S
C129 C124 1.399 . S
C129 C128 1.394 . S
C129 C130 1.516 . S
C130 C129 1.516 . S
C130 C131 1.502 . S
C130 C132 1.561 . S
C130 C133 1.526 . S
C131 H115 0.959 . S
C131 H116 0.959 . S
C131 H117 0.961 . S
C131 C130 1.502 . S
C132 H118 0.960 . S
C132 H119 0.961 . S
C132 H120 0.959 . S
C132 C130 1.561 . S
C133 C130 1.526 . S
C133 C134 1.396 . S
C133 C138 1.390 . S
C134 C128 1.465 . S
C134 C133 1.396 . S
C134 C135 1.399 . S
C135 H121 0.929 . S
C135 C134 1.399 . S
C135 C136 1.385 . S
C136 H122 0.931 . S
C136 C135 1.385 . S
C136 C137 1.389 . S
C137 C136 1.389 . S
C137 C138 1.387 . S
C138 H123 0.930 . S
C138 C133 1.390 . S
C138 C137 1.387 . S
H139 C151 0.930 . S
H140 C153 0.930 . S
H141 C154 0.930 . S
H142 C158 0.959 . S
H143 C158 0.959 . S
H144 C158 0.961 . S
H145 C159 0.960 . S
H146 C159 0.961 . S
H147 C159 0.959 . S
H148 C162 0.929 . S
H149 C163 0.931 . S
H150 C165 0.930 . S
C151 H139 0.930 . S
C151 C152 1.399 . S
C151 C156 1.399 . S
C152 C151 1.399 . S
C152 C153 1.376 . S
C153 H140 0.930 . S
C153 C152 1.376 . S
C153 C154 1.388 . S
C154 H141 0.930 . S
C154 C153 1.388 . S
C154 C155 1.390 . S
C155 C154 1.390 . S
C155 C156 1.394 . S
C155 C161 1.465 . S
C156 C151 1.399 . S
C156 C155 1.394 . S
C156 C157 1.516 . S
C157 C156 1.516 . S
C157 C158 1.502 . S
C157 C159 1.561 . S
C157 C160 1.526 . S
C158 H142 0.959 . S
C158 H143 0.959 . S
C158 H144 0.961 . S
C158 C157 1.502 . S
C159 H145 0.960 . S
C159 H146 0.961 . S
C159 H147 0.959 . S
C159 C157 1.561 . S
C160 C157 1.526 . S
C160 C161 1.396 . S
C160 C165 1.390 . S
C161 C155 1.465 . S
C161 C160 1.396 . S
C161 C162 1.399 . S
C162 H148 0.929 . S
C162 C161 1.399 . S
C162 C163 1.385 . S
C163 H149 0.931 . S
C163 C162 1.385 . S
C163 C164 1.389 . S
C164 C163 1.389 . S
C164 C165 1.387 . S
C165 H150 0.930 . S
C165 C160 1.390 . S
C165 C164 1.387 . S
H166 C178 0.930 . S
H167 C180 0.930 . S
H168 C181 0.930 . S
H169 C185 0.959 . S
H170 C185 0.959 . S
H171 C185 0.961 . S
H172 C186 0.960 . S
H173 C186 0.961 . S
H174 C186 0.959 . S
H175 C189 0.929 1_544 S
H176 C190 0.931 . S
H177 C192 0.930 . S
C178 H166 0.930 . S
C178 C179 1.399 . S
C178 C183 1.399 . S
C179 C178 1.399 . S
C179 C180 1.376 . S
C180 H167 0.930 . S
C180 C179 1.376 . S
C180 C181 1.388 . S
C181 H168 0.930 . S
C181 C180 1.388 . S
C181 C182 1.390 . S
C182 C181 1.390 . S
C182 C183 1.394 . S
C182 C188 1.465 1_544 S
C183 C178 1.399 . S
C183 C182 1.394 . S
C183 C184 1.516 1_544 S
C184 C183 1.516 1_566 S
C184 C185 1.502 . S
C184 C186 1.561 1_556 S
C184 C187 1.526 . S
C185 H169 0.959 . S
C185 H170 0.959 . S
C185 H171 0.961 . S
C185 C184 1.502 . S
C186 H172 0.960 . S
C186 H173 0.961 . S
C186 H174 0.959 . S
C186 C184 1.561 1_554 S
C187 C184 1.526 . S
C187 C188 1.396 . S
C187 C192 1.390 . S
C188 C182 1.465 1_566 S
C188 C187 1.396 . S
C188 C189 1.399 . S
C189 H175 0.929 1_566 S
C189 C188 1.399 . S
C189 C190 1.385 . S
C190 H176 0.931 . S
C190 C189 1.385 . S
C190 C191 1.389 . S
C191 C190 1.389 . S
C191 C192 1.387 . S
C192 H177 0.930 . S
C192 C187 1.390 . S
C192 C191 1.387 . S
H193 C205 0.930 . S
H194 C207 0.930 . S
H195 C208 0.955 . S
H196 C212 0.959 . S
H197 C212 0.959 . S
H198 C212 0.961 . S
H199 C213 0.960 . S
H200 C213 0.961 . S
H201 C213 0.959 1_455 S
H202 C216 0.929 . S
H203 C217 0.931 . S
H204 C219 0.930 . S
C205 H193 0.930 . S
C205 C206 1.399 . S
C205 C210 1.399 . S
C206 C205 1.399 . S
C206 C207 1.376 . S
C207 H194 0.930 . S
C207 C206 1.376 . S
C207 C208 1.364 1_655 S
C208 H195 0.955 . S
C208 C207 1.364 1_455 S
C208 C209 1.390 1_455 S
C209 C208 1.390 1_655 S
C209 C210 1.419 . S
C209 C215 1.444 1_655 S
C210 C205 1.399 . S
C210 C209 1.419 . S
C210 C211 1.516 . S
C211 C210 1.516 . S
C211 C212 1.502 . S
C211 C213 1.561 . S
C211 C214 1.526 1_655 S
C212 H196 0.959 . S
C212 H197 0.959 . S
C212 H198 0.961 . S
C212 C211 1.502 . S
C213 H199 0.960 . S
C213 H200 0.961 . S
C213 H201 0.959 1_655 S
C213 C211 1.561 . S
C214 C211 1.526 1_455 S
C214 C215 1.396 . S
C214 C219 1.390 . S
C215 C209 1.444 1_455 S
C215 C214 1.396 . S
C215 C216 1.399 . S
C216 H202 0.929 . S
C216 C215 1.399 . S
C216 C217 1.385 . S
C217 H203 0.931 . S
C217 C216 1.385 . S
C217 C218 1.389 . S
C218 C217 1.389 . S
C218 C219 1.387 . S
C219 H204 0.930 . S
C219 C214 1.390 . S
C219 C218 1.387 . S
H220 C232 0.930 . S
H221 C234 0.930 . S
H222 C235 0.930 . S
H223 C239 0.959 1_545 S
H224 C239 0.959 1_545 S
H225 C239 0.961 . S
H226 C240 0.960 . S
H227 C240 0.961 . S
H228 C240 0.959 . S
H229 C243 0.929 . S
H230 C244 0.931 . S
H231 C246 0.930 . S
C232 H220 0.930 . S
C232 C233 1.399 . S
C232 C237 1.399 . S
C233 C232 1.399 . S
C233 C234 1.376 . S
C234 H221 0.930 . S
C234 C233 1.376 . S
C234 C235 1.388 . S
C235 H222 0.930 . S
C235 C234 1.388 . S
C235 C236 1.390 . S
C236 C235 1.390 . S
C236 C237 1.394 . S
C236 C242 1.465 1_565 S
C237 C232 1.399 . S
C237 C236 1.394 . S
C237 C238 1.516 . S
C238 C237 1.516 . S
C238 C239 1.502 . S
C238 C240 1.561 . S
C238 C241 1.526 1_565 S
C239 H223 0.959 1_565 S
C239 H224 0.959 1_565 S
C239 H225 0.961 . S
C239 C238 1.502 . S
C240 H226 0.960 . S
C240 H227 0.961 . S
C240 H228 0.959 . S
C240 C238 1.561 . S
C241 C238 1.526 1_545 S
C241 C242 1.396 . S
C241 C246 1.390 . S
C242 C236 1.465 1_545 S
C242 C241 1.396 . S
C242 C243 1.399 . S
C243 H229 0.929 . S
C243 C242 1.399 . S
C243 C244 1.385 . S
C244 H230 0.931 . S
C244 C243 1.385 . S
C244 C245 1.389 . S
C245 C244 1.389 . S
C245 C246 1.387 . S
C246 H231 0.930 . S
C246 C241 1.390 . S
C246 C245 1.387 . S
H247 C259 0.930 . S
H248 C261 0.930 . S
H249 C262 0.930 . S
H250 C266 0.959 . S
H251 C266 0.959 . S
H252 C266 0.961 . S
H253 C267 0.960 . S
H254 C267 0.961 . S
H255 C267 0.959 . S
H256 C270 0.929 . S
H257 C271 0.931 . S
H258 C273 0.930 1_556 S
C259 H247 0.930 . S
C259 C260 1.399 . S
C259 C264 1.399 . S
C260 C259 1.399 . S
C260 C261 1.376 . S
C261 H248 0.930 . S
C261 C260 1.376 . S
C261 C262 1.388 1_556 S
C262 H249 0.930 . S
C262 C261 1.388 1_554 S
C262 C263 1.390 . S
C263 C262 1.390 . S
C263 C264 1.394 1_554 S
C263 C269 1.469 . S
C264 C259 1.399 . S
C264 C263 1.394 1_556 S
C264 C265 1.516 1_655 S
C265 C264 1.516 1_455 S
C265 C266 1.502 . S
C265 C267 1.561 . S
C265 C268 1.542 . S
C266 H250 0.959 . S
C266 H251 0.959 . S
C266 H252 0.961 . S
C266 C265 1.502 . S
C267 H253 0.960 . S
C267 H254 0.961 . S
C267 H255 0.959 . S
C267 C265 1.561 . S
C268 C265 1.542 . S
C268 C269 1.381 1_456 S
C268 C273 1.384 1_556 S
C269 C263 1.469 . S
C269 C268 1.381 1_654 S
C269 C270 1.399 . S
C270 H256 0.929 . S
C270 C269 1.399 . S
C270 C271 1.385 1_655 S
C271 H257 0.931 . S
C271 C270 1.385 1_455 S
C271 C272 1.389 . S
C272 C271 1.389 . S
C272 C273 1.387 . S
C273 H258 0.930 1_554 S
C273 C268 1.384 1_554 S
C273 C272 1.387 . S
H274 C286 0.930 . S
H275 C288 0.930 . S
H276 C289 0.930 . S
H277 C293 0.959 . S
H278 C293 0.959 . S
H279 C293 0.961 . S
H280 C294 0.960 . S
H281 C294 0.961 . S
H282 C294 0.959 . S
H283 C297 0.929 . S
H284 C298 0.931 . S
H285 C300 0.930 . S
C286 H274 0.930 . S
C286 C287 1.399 . S
C286 C291 1.399 . S
C287 C286 1.399 . S
C287 C288 1.376 . S
C288 H275 0.930 . S
C288 C287 1.376 . S
C288 C289 1.388 . S
C289 H276 0.930 . S
C289 C288 1.388 . S
C289 C290 1.390 . S
C290 C289 1.390 . S
C290 C291 1.394 . S
C290 C296 1.465 . S
C291 C286 1.399 . S
C291 C290 1.394 . S
C291 C292 1.516 . S
C292 C291 1.516 . S
C292 C293 1.502 . S
C292 C294 1.561 . S
C292 C295 1.526 . S
C293 H277 0.959 . S
C293 H278 0.959 . S
C293 H279 0.961 . S
C293 C292 1.502 . S
C294 H280 0.960 . S
C294 H281 0.961 . S
C294 H282 0.959 . S
C294 C292 1.561 . S
C295 C292 1.526 . S
C295 C296 1.396 . S
C295 C300 1.390 . S
C296 C290 1.465 . S
C296 C295 1.396 . S
C296 C297 1.399 . S
C297 H283 0.929 . S
C297 C296 1.399 . S
C297 C298 1.385 . S
C298 H284 0.931 . S
C298 C297 1.385 . S
C298 C299 1.389 . S
C299 C298 1.389 . S
C299 C300 1.387 . S
C300 H285 0.930 . S
C300 C295 1.390 . S
C300 C299 1.387 . S
H301 C313 0.930 . S
H302 C315 0.930 . S
H303 C316 0.930 . S
H304 C320 0.959 . S
H305 C320 0.959 . S
H306 C320 0.961 . S
H307 C321 0.960 . S
H308 C321 0.961 . S
H309 C321 0.959 . S
H310 C324 0.929 . S
H311 C325 0.931 . S
H312 C327 0.930 . S
C313 H301 0.930 . S
C313 C314 1.399 . S
C313 C318 1.399 . S
C314 C313 1.399 . S
C314 C315 1.376 . S
C315 H302 0.930 . S
C315 C314 1.376 . S
C315 C316 1.388 . S
C316 H303 0.930 . S
C316 C315 1.388 . S
C316 C317 1.390 . S
C317 C316 1.390 . S
C317 C318 1.394 . S
C317 C323 1.465 . S
C318 C313 1.399 . S
C318 C317 1.394 . S
C318 C319 1.516 . S
C319 C318 1.516 . S
C319 C320 1.502 . S
C319 C321 1.561 . S
C319 C322 1.526 . S
C320 H304 0.959 . S
C320 H305 0.959 . S
C320 H306 0.961 . S
C320 C319 1.502 . S
C321 H307 0.960 . S
C321 H308 0.961 . S
C321 H309 0.959 . S
C321 C319 1.561 . S
C322 C319 1.526 . S
C322 C323 1.396 . S
C322 C327 1.390 . S
C323 C317 1.465 . S
C323 C322 1.396 . S
C323 C324 1.399 . S
C324 H310 0.929 . S
C324 C323 1.399 . S
C324 C325 1.385 . S
C325 H311 0.931 . S
C325 C324 1.385 . S
C325 C326 1.389 . S
C326 C325 1.389 . S
C326 C327 1.387 . S
C327 H312 0.930 . S
C327 C322 1.390 . S
C327 C326 1.387 . S
H328 C340 0.930 . S
H329 C342 0.930 . S
H330 C343 0.930 . S
H331 C347 0.959 . S
H332 C347 0.959 . S
H333 C347 0.961 . S
H334 C348 0.960 . S
H335 C348 0.961 . S
H336 C348 0.959 . S
H337 C351 0.929 . S
H338 C352 0.931 . S
H339 C354 0.930 . S
C340 H328 0.930 . S
C340 C341 1.399 . S
C340 C345 1.399 . S
C341 C340 1.399 . S
C341 C342 1.376 . S
C342 H329 0.930 . S
C342 C341 1.376 . S
C342 C343 1.388 . S
C343 H330 0.930 . S
C343 C342 1.388 . S
C343 C344 1.390 . S
C344 C343 1.390 . S
C344 C345 1.394 . S
C344 C350 1.465 . S
C345 C340 1.399 . S
C345 C344 1.394 . S
C345 C346 1.516 . S
C346 C345 1.516 . S
C346 C347 1.502 . S
C346 C348 1.561 . S
C346 C349 1.526 . S
C347 H331 0.959 . S
C347 H332 0.959 . S
C347 H333 0.961 . S
C347 C346 1.502 . S
C348 H334 0.960 . S
C348 H335 0.961 . S
C348 H336 0.959 . S
C348 C346 1.561 . S
C349 C346 1.526 . S
C349 C350 1.396 . S
C349 C354 1.390 . S
C350 C344 1.465 . S
C350 C349 1.396 . S
C350 C351 1.399 . S
C351 H337 0.929 . S
C351 C350 1.399 . S
C351 C352 1.385 . S
C352 H338 0.931 . S
C352 C351 1.385 . S
C352 C353 1.389 . S
C353 C352 1.389 . S
C353 C354 1.387 . S
C354 H339 0.930 . S
C354 C349 1.390 . S
C354 C353 1.387 . S
H355 C367 0.930 . S
H356 C369 0.930 . S
H357 C370 0.930 . S
H358 C374 0.959 . S
H359 C374 0.959 . S
H360 C374 0.961 . S
H361 C375 0.960 1_556 S
H362 C375 0.961 . S
H363 C375 0.959 . S
H364 C378 0.929 . S
H365 C379 0.931 . S
H366 C381 0.930 . S
C367 H355 0.930 . S
C367 C368 1.399 . S
C367 C372 1.399 . S
C368 C367 1.399 . S
C368 C369 1.376 . S
C369 H356 0.930 . S
C369 C368 1.376 . S
C369 C370 1.388 1_556 S
C370 H357 0.930 . S
C370 C369 1.388 1_554 S
C370 C371 1.390 . S
C371 C370 1.390 . S
C371 C372 1.394 1_554 S
C371 C377 1.465 . S
C372 C367 1.399 . S
C372 C371 1.394 1_556 S
C372 C373 1.516 . S
C373 C372 1.516 . S
C373 C374 1.502 . S
C373 C375 1.561 1_556 S
C373 C376 1.526 1_556 S
C374 H358 0.959 . S
C374 H359 0.959 . S
C374 H360 0.961 . S
C374 C373 1.502 . S
C375 H361 0.960 1_554 S
C375 H362 0.961 . S
C375 H363 0.959 . S
C375 C373 1.561 1_554 S
C376 C373 1.526 1_554 S
C376 C377 1.396 . S
C376 C381 1.390 . S
C377 C371 1.465 . S
C377 C376 1.396 . S
C377 C378 1.399 . S
C378 H364 0.929 . S
C378 C377 1.399 . S
C378 C379 1.385 . S
C379 H365 0.931 . S
C379 C378 1.385 . S
C379 C380 1.389 . S
C380 C379 1.389 . S
C380 C381 1.387 . S
C381 H366 0.930 . S
C381 C376 1.390 . S
C381 C380 1.387 . S
H382 C394 0.930 . S
H383 C396 0.930 . S
H384 C397 0.930 . S
H385 C401 0.945 1_565 S
H386 C401 0.959 . S
H387 C401 0.961 . S
H388 C402 0.960 . S
H389 C402 0.961 . S
H390 C402 0.959 . S
H391 C405 0.929 1_565 S
H392 C406 0.931 . S
H393 C408 0.930 . S
C394 H382 0.930 . S
C394 C395 1.399 . S
C394 C399 1.399 . S
C395 C394 1.399 . S
C395 C396 1.376 . S
C396 H383 0.930 . S
C396 C395 1.376 . S
C396 C397 1.388 . S
C397 H384 0.930 . S
C397 C396 1.388 . S
C397 C398 1.390 . S
C398 C397 1.390 . S
C398 C399 1.394 . S
C398 C404 1.465 1_565 S
C399 C394 1.399 . S
C399 C398 1.394 . S
C399 C400 1.516 1_565 S
C400 C399 1.516 1_545 S
C400 C401 1.502 . S
C400 C402 1.561 . S
C400 C403 1.526 . S
C401 H385 0.945 1_545 S
C401 H386 0.959 . S
C401 H387 0.961 . S
C401 C400 1.502 . S
C402 H388 0.960 . S
C402 H389 0.961 . S
C402 H390 0.959 . S
C402 C400 1.561 . S
C403 C400 1.526 . S
C403 C404 1.396 . S
C403 C408 1.390 . S
C404 C398 1.465 1_545 S
C404 C403 1.396 . S
C404 C405 1.399 . S
C405 H391 0.929 1_545 S
C405 C404 1.399 . S
C405 C406 1.385 . S
C406 H392 0.931 . S
C406 C405 1.385 . S
C406 C407 1.389 . S
C407 C406 1.389 . S
C407 C408 1.387 . S
C408 H393 0.930 . S
C408 C403 1.390 . S
C408 C407 1.387 . S
H409 C421 0.930 . S
H410 C423 0.930 . S
H411 C424 0.930 1_455 S
H412 C428 0.959 . S
H413 C428 0.959 . S
H414 C428 0.961 1_565 S
H415 C429 0.978 . S
H416 C429 0.955 1_455 S
H417 C429 0.937 1_455 S
H418 C432 0.929 . S
H419 C433 0.931 . S
H420 C435 0.930 . S
C421 H409 0.930 . S
C421 C422 1.399 . S
C421 C426 1.399 . S
C422 C421 1.399 . S
C422 C423 1.376 . S
C423 H410 0.930 . S
C423 C422 1.376 . S
C423 C424 1.388 . S
C424 H411 0.930 1_655 S
C424 C423 1.388 . S
C424 C425 1.390 . S
C425 C424 1.390 . S
C425 C426 1.394 . S
C425 C431 1.465 1_665 S
C426 C421 1.399 . S
C426 C425 1.394 . S
C426 C427 1.516 . S
C427 C426 1.516 . S
C427 C428 1.502 1_565 S
C427 C429 1.572 . S
C427 C430 1.526 1_665 S
C428 H412 0.959 . S
C428 H413 0.959 . S
C428 H414 0.961 1_545 S
C428 C427 1.502 1_545 S
C429 H415 0.978 . S
C429 H416 0.955 1_655 S
C429 H417 0.937 1_655 S
C429 C427 1.572 . S
C430 C427 1.526 1_445 S
C430 C431 1.396 . S
C430 C435 1.390 . S
C431 C425 1.465 1_445 S
C431 C430 1.396 . S
C431 C432 1.399 . S
C432 H418 0.929 . S
C432 C431 1.399 . S
C432 C433 1.385 . S
C433 H419 0.931 . S
C433 C432 1.385 . S
C433 C434 1.389 . S
C434 C433 1.389 . S
C434 C435 1.387 . S
C435 H420 0.930 . S
C435 C430 1.390 . S
C435 C434 1.387 . S
H436 C448 0.930 . S
H437 C450 0.930 . S
H438 C451 0.930 . S
H439 C455 0.959 . S
H440 C455 0.959 . S
H441 C455 0.961 . S
H442 C456 0.960 . S
H443 C456 0.961 1_455 S
H444 C456 0.959 . S
H445 C459 0.929 1_655 S
H446 C460 0.931 . S
H447 C462 0.930 . S
C448 H436 0.930 . S
C448 C449 1.399 . S
C448 C453 1.399 . S
C449 C448 1.399 . S
C449 C450 1.376 . S
C450 H437 0.930 . S
C450 C449 1.376 . S
C450 C451 1.388 . S
C451 H438 0.930 . S
C451 C450 1.388 . S
C451 C452 1.390 . S
C452 C451 1.390 . S
C452 C453 1.394 . S
C452 C458 1.442 1_655 S
C453 C448 1.399 . S
C453 C452 1.394 . S
C453 C454 1.516 1_655 S
C454 C453 1.516 1_455 S
C454 C455 1.502 . S
C454 C456 1.561 1_455 S
C454 C457 1.526 . S
C455 H439 0.959 . S
C455 H440 0.959 . S
C455 H441 0.961 . S
C455 C454 1.502 . S
C456 H442 0.960 . S
C456 H443 0.961 1_655 S
C456 H444 0.959 . S
C456 C454 1.561 1_655 S
C457 C454 1.526 . S
C457 C458 1.418 . S
C457 C462 1.390 . S
C458 C452 1.442 1_455 S
C458 C457 1.418 . S
C458 C459 1.404 . S
C459 H445 0.929 1_455 S
C459 C458 1.404 . S
C459 C460 1.385 . S
C460 H446 0.931 . S
C460 C459 1.385 . S
C460 C461 1.389 . S
C461 C460 1.389 . S
C461 C462 1.387 . S
C462 H447 0.930 . S
C462 C457 1.390 . S
C462 C461 1.387 . S
H463 C475 0.930 . S
H464 C477 0.930 . S
H465 C478 0.930 . S
H466 C482 0.959 . S
H467 C482 0.959 . S
H468 C482 0.961 . S
H469 C483 0.960 . S
H470 C483 0.961 . S
H471 C483 0.959 . S
H472 C486 0.929 . S
H473 C487 0.931 . S
H474 C489 0.930 . S
C475 H463 0.930 . S
C475 C476 1.399 . S
C475 C480 1.399 . S
C476 C475 1.399 . S
C476 C477 1.376 . S
C477 H464 0.930 . S
C477 C476 1.376 . S
C477 C478 1.388 . S
C478 H465 0.930 . S
C478 C477 1.388 . S
C478 C479 1.390 . S
C479 C478 1.390 . S
C479 C480 1.394 . S
C479 C485 1.465 . S
C480 C475 1.399 . S
C480 C479 1.394 . S
C480 C481 1.516 . S
C481 C480 1.516 . S
C481 C482 1.502 . S
C481 C483 1.561 . S
C481 C484 1.526 . S
C482 H466 0.959 . S
C482 H467 0.959 . S
C482 H468 0.961 . S
C482 C481 1.502 . S
C483 H469 0.960 . S
C483 H470 0.961 . S
C483 H471 0.959 . S
C483 C481 1.561 . S
C484 C481 1.526 . S
C484 C485 1.396 . S
C484 C489 1.390 . S
C485 C479 1.465 . S
C485 C484 1.396 . S
C485 C486 1.399 . S
C486 H472 0.929 . S
C486 C485 1.399 . S
C486 C487 1.385 . S
C487 H473 0.931 . S
C487 C486 1.385 . S
C487 C488 1.389 . S
C488 C487 1.389 . S
C488 C489 1.387 . S
C489 H474 0.930 . S
C489 C484 1.390 . S
C489 C488 1.387 . S
H490 C502 0.930 . S
H491 C504 0.930 . S
H492 C505 0.930 . S
H493 C509 0.959 . S
H494 C509 0.959 . S
H495 C509 0.961 . S
H496 C510 0.960 . S
H497 C510 0.961 . S
H498 C510 0.959 . S
H499 C513 0.929 . S
H500 C514 0.931 . S
H501 C516 0.930 1_554 S
C502 H490 0.930 . S
C502 C503 1.399 . S
C502 C507 1.399 . S
C503 C502 1.399 . S
C503 C504 1.376 . S
C504 H491 0.930 . S
C504 C503 1.376 . S
C504 C505 1.388 1_554 S
C505 H492 0.930 . S
C505 C504 1.388 1_556 S
C505 C506 1.390 . S
C506 C505 1.390 . S
C506 C507 1.394 1_556 S
C506 C512 1.465 . S
C507 C502 1.399 . S
C507 C506 1.394 1_554 S
C507 C508 1.516 . S
C508 C507 1.516 . S
C508 C509 1.502 . S
C508 C510 1.561 . S
C508 C511 1.539 . S
C509 H493 0.959 . S
C509 H494 0.959 . S
C509 H495 0.961 . S
C509 C508 1.502 . S
C510 H496 0.960 . S
C510 H497 0.961 . S
C510 H498 0.959 . S
C510 C508 1.561 . S
C511 C508 1.539 . S
C511 C512 1.387 1_554 S
C511 C516 1.385 1_554 S
C512 C506 1.465 . S
C512 C511 1.387 1_556 S
C512 C513 1.399 . S
C513 H499 0.929 . S
C513 C512 1.399 . S
C513 C514 1.385 . S
C514 H500 0.931 . S
C514 C513 1.385 . S
C514 C515 1.389 . S
C515 C514 1.389 . S
C515 C516 1.387 . S
C516 H501 0.930 1_556 S
C516 C511 1.385 1_556 S
C516 C515 1.387 . S
H517 C529 0.930 . S
H518 C531 0.930 . S
H519 C532 0.930 . S
H520 C536 0.959 . S
H521 C536 0.959 . S
H522 C536 0.961 . S
H523 C537 0.960 . S
H524 C537 0.961 . S
H525 C537 0.959 . S
H526 C540 0.929 . S
H527 C541 0.931 . S
H528 C543 0.930 . S
C529 H517 0.930 . S
C529 C530 1.399 . S
C529 C534 1.399 . S
C530 C529 1.399 . S
C530 C531 1.376 . S
C531 H518 0.930 . S
C531 C530 1.376 . S
C531 C532 1.388 . S
C532 H519 0.930 . S
C532 C531 1.388 . S
C532 C533 1.390 . S
C533 C532 1.390 . S
C533 C534 1.394 . S
C533 C539 1.465 . S
C534 C529 1.399 . S
C534 C533 1.394 . S
C534 C535 1.516 . S
C535 C534 1.516 . S
C535 C536 1.502 . S
C535 C537 1.561 . S
C535 C538 1.526 . S
C536 H520 0.959 . S
C536 H521 0.959 . S
C536 H522 0.961 . S
C536 C535 1.502 . S
C537 H523 0.960 . S
C537 H524 0.961 . S
C537 H525 0.959 . S
C537 C535 1.561 . S
C538 C535 1.526 . S
C538 C539 1.396 . S
C538 C543 1.390 . S
C539 C533 1.465 . S
C539 C538 1.396 . S
C539 C540 1.399 . S
C540 H526 0.929 . S
C540 C539 1.399 . S
C540 C541 1.385 . S
C541 H527 0.931 . S
C541 C540 1.385 . S
C541 C542 1.389 . S
C542 C541 1.389 . S
C542 C543 1.387 . S
C543 H528 0.930 . S
C543 C538 1.390 . S
C543 C542 1.387 . S
C125 C73 1.500 . S
C137 C3 1.483 . S
C152 C107 1.477 . S
C164 C22 1.485 . S
C179 C35 1.493 . S
C191 C91 1.479 . S
C206 C51 1.470 . S
C218 C64 1.486 . S
C233 C92 1.493 . S
C245 C9 1.499 . S
C260 C21 1.476 . S
C272 C63 1.493 . S
C287 C79 1.463 . S
C299 C36 1.495 . S
C314 C45 1.497 . S
C326 C101 1.482 . S
C341 C65 1.460 . S
C353 C78 1.493 . S
C368 C17 1.494 . S
C380 C31 1.483 . S
C395 C50 1.489 . S
C407 C37 1.459 . S
C422 C49 1.467 . S
C434 C7 1.443 . S
C449 C23 1.493 . S
C461 C8 1.497 . S
C476 C106 1.496 . S
C488 C93 1.468 . S
C503 C59 1.499 . S
C515 C87 1.488 . S
C530 C77 1.469 . S
C542 C105 1.490 . S
