# Generated by pormake.
# Topology qtz-a, (4)-cn, num edge types: 1
# Building blocks:
#     Node 0, Type 0, BuildingBlock: UXUYUI_clean_sbu_0, # of connection points: 4
#     Node 1, Type 0, BuildingBlock: UXUYUI_clean_sbu_0, # of connection points: 4
#     Node 2, Type 0, BuildingBlock: UXUYUI_clean_sbu_0, # of connection points: 4
#     Node 3, Type 0, BuildingBlock: UXUYUI_clean_sbu_0, # of connection points: 4
#     Node 4, Type 0, BuildingBlock: UXUYUI_clean_sbu_0, # of connection points: 4
#     Node 5, Type 0, BuildingBlock: UXUYUI_clean_sbu_0, # of connection points: 4
#     Node 6, Type 0, BuildingBlock: UXUYUI_clean_sbu_0, # of connection points: 4
#     Node 7, Type 0, BuildingBlock: UXUYUI_clean_sbu_0, # of connection points: 4
#     Node 8, Type 0, BuildingBlock: UXUYUI_clean_sbu_0, # of connection points: 4
#     Node 9, Type 0, BuildingBlock: UXUYUI_clean_sbu_0, # of connection points: 4
#     Node 10, Type 0, BuildingBlock: UXUYUI_clean_sbu_0, # of connection points: 4
#     Node 11, Type 0, BuildingBlock: UXUYUI_clean_sbu_0, # of connection points: 4
#     Edge 12, Type (0, 0), BuildingBlock: XIVTED_clean_linker_0, # of connection points: 2
#     Edge 13, Type (0, 0), BuildingBlock: XIVTED_clean_linker_0, # of connection points: 2
#     Edge 14, Type (0, 0), BuildingBlock: XIVTED_clean_linker_0, # of connection points: 2
#     Edge 15, Type (0, 0), BuildingBlock: XIVTED_clean_linker_0, # of connection points: 2
#     Edge 16, Type (0, 0), BuildingBlock: XIVTED_clean_linker_0, # of connection points: 2
#     Edge 17, Type (0, 0), BuildingBlock: XIVTED_clean_linker_0, # of connection points: 2
#     Edge 18, Type (0, 0), BuildingBlock: XIVTED_clean_linker_0, # of connection points: 2
#     Edge 19, Type (0, 0), BuildingBlock: XIVTED_clean_linker_0, # of connection points: 2
#     Edge 20, Type (0, 0), BuildingBlock: XIVTED_clean_linker_0, # of connection points: 2
#     Edge 21, Type (0, 0), BuildingBlock: XIVTED_clean_linker_0, # of connection points: 2
#     Edge 22, Type (0, 0), BuildingBlock: XIVTED_clean_linker_0, # of connection points: 2
#     Edge 23, Type (0, 0), BuildingBlock: XIVTED_clean_linker_0, # of connection points: 2
#     Edge 24, Type (0, 0), BuildingBlock: XIVTED_clean_linker_0, # of connection points: 2
#     Edge 25, Type (0, 0), BuildingBlock: XIVTED_clean_linker_0, # of connection points: 2
#     Edge 26, Type (0, 0), BuildingBlock: XIVTED_clean_linker_0, # of connection points: 2
#     Edge 27, Type (0, 0), BuildingBlock: XIVTED_clean_linker_0, # of connection points: 2
#     Edge 28, Type (0, 0), BuildingBlock: XIVTED_clean_linker_0, # of connection points: 2
#     Edge 29, Type (0, 0), BuildingBlock: XIVTED_clean_linker_0, # of connection points: 2
#     Edge 30, Type (0, 0), BuildingBlock: XIVTED_clean_linker_0, # of connection points: 2
#     Edge 31, Type (0, 0), BuildingBlock: XIVTED_clean_linker_0, # of connection points: 2
#     Edge 32, Type (0, 0), BuildingBlock: XIVTED_clean_linker_0, # of connection points: 2
#     Edge 33, Type (0, 0), BuildingBlock: XIVTED_clean_linker_0, # of connection points: 2
#     Edge 34, Type (0, 0), BuildingBlock: XIVTED_clean_linker_0, # of connection points: 2
#     Edge 35, Type (0, 0), BuildingBlock: XIVTED_clean_linker_0, # of connection points: 2
# Relax obj value: 0.910
# Max RMSD: 0.301
# Mean RMSD: 0.301
data_MOF--net-qtz-a--node1-UXUYUI_clean_sbu_0--edge1-XIVTED_clean_linker_0
_symmetry_space_group_name_H-M    P1
_symmetry_Int_Tables_number       1
_symmetry_cell_setting            triclinic
loop_
_symmetry_equiv_pos_as_xyz
'x, y, z'
_cell_length_a     74.459815
_cell_length_b     74.4782
_cell_length_c     42.349868
_cell_angle_alpha  90.009311
_cell_angle_beta   89.994097
_cell_angle_gamma 119.99334
loop_
_atom_site_label
_atom_site_type_symbol
_atom_site_fract_x
_atom_site_fract_y
_atom_site_fract_z
_atom_type_partial_charge
Li0 Li 0.43113 0.06407 0.18686 0.0
Li1 Li 0.44425 0.09734 0.2141 0.0
Li2 Li 0.46835 0.09008 0.18153 0.0
Li3 Li 0.45548 0.0739 0.23377 0.0
C4 C 0.43468 0.09247 0.14072 0.0
N5 N 0.41503 0.09224 0.08517 0.0
C6 C 0.42159 0.10089 0.13988 0.0
C7 C 0.438 0.08423 0.11312 0.0
C8 C 0.41176 0.10057 0.11162 0.0
C9 C 0.42785 0.08415 0.08534 0.0
C10 C 0.41185 0.06857 0.25159 0.0
C11 C 0.40201 0.07545 0.30244 0.0
N12 N 0.3823 0.06792 0.29176 0.0
C13 C 0.39144 0.06063 0.24123 0.0
C14 C 0.41715 0.0758 0.28254 0.0
C15 C 0.37675 0.06053 0.26185 0.0
C16 C 0.4113 0.02736 0.15174 0.0
N17 N 0.40909 0.04336 0.16226 0.0
C18 C 0.38451 0.0375 0.12163 0.0
C19 C 0.39487 0.04755 0.14932 0.0
C20 C 0.38875 0.0229 0.10772 0.0
C21 C 0.40118 0.01681 0.12431 0.0
H22 H 0.42234 0.02401 0.16293 0.0
H23 H 0.39319 0.06017 0.15846 0.0
C24 C 0.45588 0.13842 0.22032 0.0
N25 N 0.43892 0.11921 0.22242 0.0
C26 C 0.45364 0.15586 0.21868 0.0
C27 C 0.41649 0.13352 0.22263 0.0
C28 C 0.41947 0.11646 0.22433 0.0
C29 C 0.4337 0.15348 0.21876 0.0
H30 H 0.47109 0.14012 0.21776 0.0
H31 H 0.40619 0.10104 0.22479 0.0
C32 C 0.46582 0.05174 0.17797 0.0
N33 N 0.48683 0.03497 0.14724 0.0
C34 C 0.47784 0.04554 0.19513 0.0
C35 C 0.46427 0.04909 0.1452 0.0
C36 C 0.48839 0.03717 0.17917 0.0
C37 C 0.47506 0.04068 0.13009 0.0
C38 C 0.48616 0.11509 0.24695 0.0
C39 C 0.50752 0.12327 0.24362 0.0
C40 C 0.4783 0.11881 0.27459 0.0
C41 C 0.52068 0.13474 0.26838 0.0
C42 C 0.49197 0.13037 0.29879 0.0
N43 N 0.5127 0.13801 0.29523 0.0
C44 C 0.49007 0.1136 0.1289 0.0
C45 C 0.50575 0.09608 0.15275 0.0
C46 C 0.5036 0.11929 0.10331 0.0
N47 N 0.49076 0.10142 0.1522 0.0
C48 C 0.5196 0.10138 0.12753 0.0
C49 C 0.5181 0.1125 0.10181 0.0
H50 H 0.47844 0.11823 0.12954 0.0
H51 H 0.50633 0.08685 0.17198 0.0
C52 C 0.44959 0.04956 0.2892 0.0
N53 N 0.46363 0.06423 0.26939 0.0
C54 C 0.45614 0.04047 0.31203 0.0
C55 C 0.49144 0.06257 0.29452 0.0
C56 C 0.48423 0.07111 0.2721 0.0
C57 C 0.47729 0.04656 0.31426 0.0
H58 H 0.43325 0.04423 0.28629 0.0
H59 H 0.49496 0.08219 0.25532 0.0
O60 O 0.44414 0.09231 0.16839 0.0
O61 O 0.42637 0.06861 0.23179 0.0
O62 O 0.45551 0.06014 0.19323 0.0
O63 O 0.47308 0.10379 0.22296 0.0
H64 H 0.41889 0.10744 0.16086 0.0
H65 H 0.44828 0.07795 0.1131 0.0
H66 H 0.40149 0.10691 0.11073 0.0
H67 H 0.43017 0.07766 0.06391 0.0
H68 H 0.40592 0.08108 0.32643 0.0
H69 H 0.38703 0.05471 0.21747 0.0
H70 H 0.43272 0.08144 0.2912 0.0
H71 H 0.36092 0.05458 0.25409 0.0
H72 H 0.37496 0.04259 0.10975 0.0
H73 H 0.40435 0.00516 0.11485 0.0
H74 H 0.46732 0.17088 0.21507 0.0
H75 H 0.40086 0.13103 0.22282 0.0
H76 H 0.47896 0.04706 0.22049 0.0
H77 H 0.45484 0.05347 0.13155 0.0
H78 H 0.4978 0.03239 0.19218 0.0
H79 H 0.47406 0.03868 0.10473 0.0
H80 H 0.51383 0.12063 0.22223 0.0
H81 H 0.46187 0.11297 0.27721 0.0
H82 H 0.53724 0.14105 0.26624 0.0
H83 H 0.4861 0.13333 0.32037 0.0
H84 H 0.50228 0.12835 0.0844 0.0
H85 H 0.53055 0.09583 0.1274 0.0
H86 H 0.4447 0.02822 0.3268 0.0
H87 H 0.50778 0.06741 0.29461 0.0
Li88 Li 0.37726 0.45596 0.56525 0.0
Li89 Li 0.37358 0.46871 0.51323 0.0
Li90 Li 0.34252 0.4442 0.54631 0.0
Li91 Li 0.36275 0.43152 0.51852 0.0
C92 C 0.36967 0.48826 0.57726 0.0
N93 N 0.38031 0.5187 0.62243 0.0
C94 C 0.3839 0.50893 0.5701 0.0
C95 C 0.3606 0.48311 0.6072 0.0
C96 C 0.38915 0.52408 0.59331 0.0
C97 C 0.36625 0.49871 0.62976 0.0
C98 C 0.40972 0.46616 0.50925 0.0
C99 C 0.43004 0.47495 0.4614 0.0
N100 N 0.44756 0.48662 0.47851 0.0
C101 C 0.428 0.47803 0.52636 0.0
C102 C 0.41082 0.46443 0.47652 0.0
C103 C 0.44694 0.48832 0.5104 0.0
C104 C 0.39459 0.44924 0.62091 0.0
N105 N 0.39513 0.46377 0.60091 0.0
C106 C 0.42581 0.49025 0.62554 0.0
C107 C 0.40996 0.48404 0.60345 0.0
C108 C 0.42654 0.47544 0.64525 0.0
C109 C 0.4102 0.45478 0.64351 0.0
H110 H 0.38267 0.43318 0.61823 0.0
H111 H 0.41049 0.49516 0.5866 0.0
C112 C 0.37139 0.49043 0.46072 0.0
N113 N 0.38442 0.49102 0.48368 0.0
C114 C 0.37914 0.50368 0.43479 0.0
C115 C 0.41331 0.51932 0.4581 0.0
C116 C 0.40486 0.50571 0.48361 0.0
C117 C 0.4005 0.51783 0.43268 0.0
H118 H 0.35508 0.47901 0.4618 0.0
H119 H 0.41482 0.50623 0.50255 0.0
C120 C 0.33884 0.41245 0.58306 0.0
N121 N 0.30866 0.38363 0.62252 0.0
C122 C 0.32694 0.3918 0.5735 0.0
C123 C 0.33565 0.41839 0.61287 0.0
C124 C 0.31168 0.37747 0.59374 0.0
C125 C 0.32024 0.40361 0.63243 0.0
C126 C 0.33819 0.43517 0.47201 0.0
C127 C 0.31677 0.4218 0.46995 0.0
C128 C 0.35039 0.43922 0.44496 0.0
C129 C 0.30802 0.41235 0.44111 0.0
C130 C 0.34109 0.42945 0.41657 0.0
N131 N 0.32027 0.41629 0.41526 0.0
C132 C 0.31203 0.45418 0.55966 0.0
C133 C 0.29897 0.41815 0.55275 0.0
C134 C 0.29203 0.45123 0.55885 0.0
N135 N 0.31513 0.43783 0.55573 0.0
C136 C 0.27868 0.41449 0.55168 0.0
C137 C 0.27511 0.43128 0.55356 0.0
H138 H 0.32517 0.46971 0.56115 0.0
H139 H 0.30184 0.40552 0.54856 0.0
C140 C 0.37945 0.41173 0.48284 0.0
N141 N 0.36134 0.40946 0.49397 0.0
C142 C 0.37957 0.40161 0.45524 0.0
C143 C 0.34215 0.38468 0.45383 0.0
C144 C 0.34278 0.39512 0.48158 0.0
C145 C 0.36084 0.38903 0.43928 0.0
H146 H 0.39395 0.42283 0.49365 0.0
H147 H 0.32857 0.39343 0.49122 0.0
O148 O 0.36439 0.47324 0.55483 0.0
O149 O 0.39097 0.45615 0.52454 0.0
O150 O 0.35384 0.42667 0.56356 0.0
O151 O 0.3471 0.44421 0.50031 0.0
H152 H 0.39093 0.51318 0.54693 0.0
H153 H 0.34926 0.46726 0.6129 0.0
H154 H 0.40025 0.54012 0.58819 0.0
H155 H 0.35942 0.49494 0.65309 0.0
H156 H 0.43103 0.4738 0.43606 0.0
H157 H 0.42766 0.47921 0.55169 0.0
H158 H 0.39704 0.455 0.46289 0.0
H159 H 0.46116 0.49761 0.52341 0.0
H160 H 0.43823 0.50623 0.62526 0.0
H161 H 0.41002 0.44286 0.65836 0.0
H162 H 0.36865 0.50237 0.41605 0.0
H163 H 0.42986 0.53001 0.45748 0.0
H164 H 0.32939 0.38691 0.55062 0.0
H165 H 0.34503 0.43421 0.62086 0.0
H166 H 0.30226 0.36146 0.58658 0.0
H167 H 0.31753 0.40801 0.65552 0.0
H168 H 0.30698 0.4186 0.49037 0.0
H169 H 0.36685 0.44986 0.44577 0.0
H170 H 0.29149 0.40185 0.43931 0.0
H171 H 0.35043 0.43234 0.39558 0.0
H172 H 0.29003 0.46466 0.55991 0.0
H173 H 0.26604 0.39887 0.54768 0.0
H174 H 0.39428 0.40492 0.44512 0.0
H175 H 0.32738 0.37501 0.44234 0.0
Li176 Li 0.90647 0.37493 0.84293 0.0
Li177 Li 0.92161 0.37953 0.8962 0.0
Li178 Li 0.93221 0.36366 0.85387 0.0
Li179 Li 0.89806 0.34552 0.87918 0.0
C180 C 0.95395 0.40643 0.84307 0.0
N181 N 0.99167 0.43532 0.81769 0.0
C182 C 0.97023 0.4197 0.86289 0.0
C183 C 0.95678 0.40796 0.81034 0.0
C184 C 0.9892 0.4342 0.84959 0.0
C185 C 0.976 0.42262 0.79798 0.0
C186 C 0.88531 0.37787 0.90437 0.0
C187 C 0.87591 0.3827 0.95686 0.0
N188 N 0.87332 0.39845 0.94603 0.0
C189 C 0.88237 0.39396 0.89367 0.0
C190 C 0.88189 0.37203 0.93614 0.0
C191 C 0.87637 0.40422 0.91513 0.0
C192 C 0.88016 0.37461 0.7934 0.0
N193 N 0.89742 0.38657 0.81091 0.0
C194 C 0.90551 0.41621 0.77927 0.0
C195 C 0.90965 0.40715 0.80498 0.0
C196 C 0.88861 0.40394 0.75949 0.0
C197 C 0.87558 0.38297 0.76715 0.0
H198 H 0.87024 0.35847 0.79925 0.0
H199 H 0.92299 0.41643 0.81972 0.0
C200 C 0.93936 0.39682 0.95691 0.0
N201 N 0.93168 0.39934 0.92916 0.0
C202 C 0.9481 0.41307 0.97884 0.0
C203 C 0.94002 0.43358 0.94354 0.0
C204 C 0.93189 0.41722 0.92219 0.0
C205 C 0.94854 0.43176 0.97209 0.0
H206 H 0.93921 0.38247 0.96158 0.0
H207 H 0.92623 0.41896 0.89954 0.0
C208 C 0.89643 0.34093 0.80485 0.0
N209 N 0.87892 0.32681 0.74603 0.0
C210 C 0.87605 0.3245 0.80225 0.0
C211 C 0.90791 0.35013 0.77751 0.0
C212 C 0.86748 0.31759 0.77231 0.0
C213 C 0.89877 0.34279 0.74801 0.0
C214 C 0.92246 0.3383 0.91572 0.0
C215 C 0.93036 0.32587 0.905 0.0
C216 C 0.91069 0.33298 0.9434 0.0
C217 C 0.92606 0.30808 0.92198 0.0
C218 C 0.90671 0.31505 0.95969 0.0
N219 N 0.9144 0.30307 0.94871 0.0
C220 C 0.9733 0.37544 0.8327 0.0
C221 C 0.94566 0.34448 0.81163 0.0
C222 C 0.9865 0.37613 0.80869 0.0
N223 N 0.95295 0.36056 0.83231 0.0
C224 C 0.95822 0.34459 0.78717 0.0
C225 C 0.97856 0.3613 0.78432 0.0
H226 H 0.97892 0.38769 0.85007 0.0
H227 H 0.92954 0.3325 0.81242 0.0
C228 C 0.85733 0.31643 0.89541 0.0
N229 N 0.87603 0.31866 0.88759 0.0
C230 C 0.83938 0.29719 0.89217 0.0
C231 C 0.86054 0.2827 0.87526 0.0
C232 C 0.87805 0.30227 0.87841 0.0
C233 C 0.84087 0.28026 0.88085 0.0
H234 H 0.85618 0.32988 0.90172 0.0
H235 H 0.89298 0.30473 0.87088 0.0
O236 O 0.93534 0.39203 0.85569 0.0
O237 O 0.89149 0.36785 0.88383 0.0
O238 O 0.90507 0.34797 0.83398 0.0
O239 O 0.92641 0.3557 0.89934 0.0
H240 H 0.96831 0.4187 0.88828 0.0
H241 H 0.94432 0.39789 0.79468 0.0
H242 H 0.00197 0.44452 0.86464 0.0
H243 H 0.97845 0.42388 0.77271 0.0
H244 H 0.87335 0.37846 0.98156 0.0
H245 H 0.8849 0.3986 0.86911 0.0
H246 H 0.88398 0.35952 0.94471 0.0
H247 H 0.87417 0.41681 0.90725 0.0
H248 H 0.91595 0.43245 0.77417 0.0
H249 H 0.86217 0.3731 0.7528 0.0
H250 H 0.95475 0.41121 0.00048 0.0
H251 H 0.94058 0.44792 0.93702 0.0
H252 H 0.86684 0.31728 0.82307 0.0
H253 H 0.92369 0.36282 0.77905 0.0
H254 H 0.85171 0.30494 0.76996 0.0
H255 H 0.90747 0.3498 0.72668 0.0
H256 H 0.93958 0.32985 0.88367 0.0
H257 H 0.90462 0.34255 0.95211 0.0
H258 H 0.93196 0.29823 0.91387 0.0
H259 H 0.89752 0.31066 0.98105 0.0
H260 H 0.00228 0.38897 0.80796 0.0
H261 H 0.95136 0.33274 0.76912 0.0
H262 H 0.82442 0.29582 0.89668 0.0
H263 H 0.86224 0.27009 0.86594 0.0
Li264 Li 0.53023 0.91335 0.17421 0.0
Li265 Li 0.54537 0.9253 0.22852 0.0
Li266 Li 0.56836 0.93092 0.18067 0.0
Li267 Li 0.54655 0.89689 0.20349 0.0
C268 C 0.54358 0.95554 0.1775 0.0
N269 N 0.53069 0.98182 0.15379 0.0
C270 C 0.53435 0.96358 0.19743 0.0
C271 C 0.54641 0.96102 0.14556 0.0
C272 C 0.52791 0.97681 0.18498 0.0
C273 C 0.53973 0.97427 0.13401 0.0
C274 C 0.50816 0.87904 0.22578 0.0
C275 C 0.49787 0.85254 0.26556 0.0
N276 N 0.48211 0.83908 0.2466 0.0
C277 C 0.49177 0.86503 0.20678 0.0
C278 C 0.51116 0.87284 0.2555 0.0
C279 C 0.47881 0.84486 0.21769 0.0
C280 C 0.50478 0.89337 0.1228 0.0
N281 N 0.50885 0.90826 0.1447 0.0
C282 C 0.48485 0.91628 0.12 0.0
C283 C 0.49866 0.91916 0.14441 0.0
C284 C 0.48122 0.90178 0.09602 0.0
C285 C 0.49102 0.88988 0.09813 0.0
H286 H 0.51254 0.88441 0.12416 0.0
H287 H 0.50158 0.93042 0.16265 0.0
C288 C 0.55714 0.95244 0.28188 0.0
N289 N 0.54129 0.93686 0.26561 0.0
C290 C 0.55295 0.96309 0.30532 0.0
C291 C 0.51632 0.94071 0.29554 0.0
C292 C 0.5212 0.93039 0.27271 0.0
C293 C 0.53229 0.95784 0.31149 0.0
H294 H 0.573 0.95726 0.27559 0.0
H295 H 0.50895 0.9181 0.25905 0.0
C296 C 0.55693 0.90345 0.13038 0.0
N297 N 0.57236 0.90097 0.0722 0.0
C298 C 0.56585 0.89094 0.12642 0.0
C299 C 0.55583 0.91466 0.10472 0.0
C300 C 0.57357 0.88991 0.09683 0.0
C301 C 0.56373 0.91322 0.07551 0.0
C302 C 0.58009 0.91672 0.24644 0.0
C303 C 0.5987 0.91739 0.23899 0.0
C304 C 0.57203 0.91138 0.27699 0.0
C305 C 0.60881 0.91237 0.26218 0.0
C306 C 0.58261 0.90647 0.29951 0.0
N307 N 0.60061 0.90704 0.29169 0.0
C308 C 0.59734 0.96615 0.14614 0.0
C309 C 0.60373 0.93802 0.14743 0.0
C310 C 0.61087 0.97493 0.12064 0.0
N311 N 0.59323 0.94748 0.15774 0.0
C312 C 0.61705 0.94601 0.12157 0.0
C313 C 0.61993 0.96416 0.10701 0.0
H314 H 0.58888 0.9734 0.15493 0.0
H315 H 0.60023 0.92323 0.15726 0.0
C316 C 0.53123 0.85726 0.18338 0.0
N317 N 0.54423 0.87032 0.20583 0.0
C318 C 0.53068 0.83869 0.17686 0.0
C319 C 0.5562 0.84674 0.2178 0.0
C320 C 0.55611 0.86514 0.22376 0.0
C321 C 0.54389 0.83361 0.19328 0.0
H322 H 0.52215 0.86188 0.16919 0.0
H323 H 0.56628 0.8756 0.24155 0.0
O324 O 0.54992 0.9425 0.18928 0.0
O325 O 0.52121 0.89874 0.21529 0.0
O326 O 0.54932 0.9047 0.15924 0.0
O327 O 0.57015 0.92184 0.22417 0.0
H328 H 0.53216 0.95966 0.22223 0.0
H329 H 0.55358 0.95503 0.1298 0.0
H330 H 0.52069 0.9831 0.20013 0.0
H331 H 0.54173 0.97855 0.10931 0.0
H332 H 0.50009 0.84748 0.28844 0.0
H333 H 0.48919 0.86962 0.18375 0.0
H334 H 0.52369 0.88355 0.27055 0.0
H335 H 0.46613 0.8338 0.20317 0.0
H336 H 0.47764 0.9258 0.11942 0.0
H337 H 0.48825 0.8781 0.08075 0.0
H338 H 0.5658 0.97592 0.31731 0.0
H339 H 0.50018 0.9362 0.29875 0.0
H340 H 0.56707 0.88234 0.14607 0.0
H341 H 0.5489 0.92432 0.10729 0.0
H342 H 0.5806 0.88037 0.09347 0.0
H343 H 0.56302 0.92185 0.05548 0.0
H344 H 0.60523 0.92169 0.21553 0.0
H345 H 0.55782 0.91109 0.28328 0.0
H346 H 0.62317 0.91273 0.25672 0.0
H347 H 0.57652 0.90224 0.32323 0.0
H348 H 0.61266 0.98894 0.10991 0.0
H349 H 0.62385 0.93734 0.11171 0.0
H350 H 0.52059 0.82883 0.15825 0.0
H351 H 0.56669 0.84347 0.23103 0.0
Li352 Li 0.63552 0.56893 0.51428 0.0
Li353 Li 0.64989 0.54981 0.54069 0.0
Li354 Li 0.61683 0.53114 0.51037 0.0
Li355 Li 0.61807 0.54705 0.56082 0.0
C356 C 0.6549 0.55775 0.46746 0.0
N357 N 0.67538 0.5725 0.41064 0.0
C358 C 0.67646 0.56674 0.46591 0.0
C359 C 0.64375 0.55595 0.43994 0.0
C360 C 0.68653 0.57419 0.43702 0.0
C361 C 0.65438 0.56357 0.41149 0.0
C362 C 0.6543 0.57735 0.58847 0.0
C363 C 0.66189 0.56692 0.63831 0.0
N364 N 0.67013 0.5867 0.64904 0.0
C365 C 0.66284 0.59757 0.59998 0.0
C366 C 0.65382 0.56188 0.60775 0.0
C367 C 0.67077 0.60199 0.63067 0.0
C368 C 0.62908 0.59712 0.47747 0.0
N369 N 0.64361 0.59321 0.48986 0.0
C370 C 0.66917 0.61672 0.45377 0.0
C371 C 0.66368 0.60376 0.48008 0.0
C372 C 0.65395 0.61932 0.43838 0.0
C373 C 0.634 0.61034 0.45154 0.0
H374 H 0.61332 0.58879 0.48608 0.0
H375 H 0.67499 0.60067 0.49091 0.0
C376 C 0.67604 0.53321 0.54238 0.0
N377 N 0.67525 0.55077 0.5477 0.0
C378 C 0.69514 0.53412 0.53994 0.0
C379 C 0.71214 0.57104 0.54986 0.0
C380 C 0.69269 0.56939 0.55224 0.0
C381 C 0.7135 0.55335 0.54265 0.0
H382 H 0.66186 0.51877 0.53805 0.0
H383 H 0.69153 0.58317 0.55564 0.0
C384 C 0.58733 0.54335 0.50495 0.0
N385 N 0.55061 0.53016 0.47241 0.0
C386 C 0.56837 0.53377 0.52103 0.0
C387 C 0.58755 0.54642 0.47236 0.0
C388 C 0.55 0.52716 0.50415 0.0
C389 C 0.56885 0.53959 0.45632 0.0
C390 C 0.60887 0.5047 0.56191 0.0
C391 C 0.58798 0.49912 0.56048 0.0
C392 C 0.61438 0.49049 0.57322 0.0
C393 C 0.57288 0.47938 0.5704 0.0
C394 C 0.59883 0.47087 0.58292 0.0
N395 N 0.57857 0.46577 0.58132 0.0
C396 C 0.61382 0.50534 0.46042 0.0
C397 C 0.5809 0.49802 0.47929 0.0
C398 C 0.60469 0.49188 0.43499 0.0
N399 N 0.60196 0.50881 0.48119 0.0
C400 C 0.57108 0.48427 0.45432 0.0
C401 C 0.58308 0.4816 0.43121 0.0
H402 H 0.63049 0.51362 0.46292 0.0
H403 H 0.57168 0.50057 0.4964 0.0
C404 C 0.59126 0.55435 0.59755 0.0
N405 N 0.60225 0.5443 0.59758 0.0
C406 C 0.57577 0.54943 0.61997 0.0
C407 C 0.58463 0.52541 0.6439 0.0
C408 C 0.59999 0.53083 0.62099 0.0
C409 C 0.57165 0.53406 0.64268 0.0
H410 H 0.59348 0.56505 0.57866 0.0
H411 H 0.60919 0.5233 0.62076 0.0
O412 O 0.64479 0.55059 0.4957 0.0
O413 O 0.64641 0.57285 0.55849 0.0
O414 O 0.60552 0.54983 0.52108 0.0
O415 O 0.62394 0.52398 0.55246 0.0
H416 H 0.68538 0.56815 0.48681 0.0
H417 H 0.62707 0.54861 0.44043 0.0
H418 H 0.70322 0.58133 0.43557 0.0
H419 H 0.64592 0.56237 0.39008 0.0
H420 H 0.66161 0.5551 0.65349 0.0
H421 H 0.66332 0.60972 0.58533 0.0
H422 H 0.64732 0.54615 0.59929 0.0
H423 H 0.67742 0.61758 0.6399 0.0
H424 H 0.68475 0.62354 0.44433 0.0
H425 H 0.62186 0.61199 0.4402 0.0
H426 H 0.69552 0.52018 0.53392 0.0
H427 H 0.72594 0.58611 0.55227 0.0
H428 H 0.56776 0.53127 0.54622 0.0
H429 H 0.602 0.55405 0.45955 0.0
H430 H 0.53524 0.51962 0.5163 0.0
H431 H 0.56885 0.54181 0.43108 0.0
H432 H 0.58351 0.50998 0.55203 0.0
H433 H 0.63051 0.4946 0.57456 0.0
H434 H 0.55665 0.47489 0.56947 0.0
H435 H 0.60286 0.45972 0.59174 0.0
H436 H 0.61447 0.4899 0.41807 0.0
H437 H 0.55436 0.47662 0.4523 0.0
H438 H 0.56605 0.55637 0.61784 0.0
H439 H 0.58218 0.51372 0.66127 0.0
Li440 Li 0.06485 0.63864 0.85636 0.0
Li441 Li 0.09945 0.65117 0.88071 0.0
Li442 Li 0.08406 0.61875 0.85031 0.0
Li443 Li 0.07048 0.62256 0.90167 0.0
C444 C 0.1005 0.66086 0.81205 0.0
N445 N 0.1189 0.69019 0.76484 0.0
C446 C 0.10899 0.68196 0.81886 0.0
C447 C 0.1011 0.65472 0.78104 0.0
C448 C 0.11832 0.69654 0.79474 0.0
C449 C 0.11051 0.66977 0.75755 0.0
C450 C 0.06504 0.65097 0.92585 0.0
C451 C 0.06504 0.65431 0.98247 0.0
N452 N 0.04459 0.64854 0.98148 0.0
C453 C 0.04408 0.64523 0.92534 0.0
C454 C 0.07568 0.65569 0.95457 0.0
C455 C 0.034 0.64404 0.95374 0.0
C456 C 0.02571 0.6301 0.834 0.0
N457 N 0.04626 0.64444 0.83295 0.0
C458 C 0.04134 0.65931 0.78613 0.0
C459 C 0.05386 0.65977 0.81096 0.0
C460 C 0.02078 0.64295 0.78416 0.0
C461 C 0.0126 0.62901 0.80959 0.0
H462 H 0.0199 0.61827 0.85209 0.0
H463 H 0.06999 0.67143 0.81108 0.0
C464 C 0.14093 0.67593 0.86689 0.0
N465 N 0.12564 0.67531 0.88518 0.0
C466 C 0.15922 0.69456 0.8621 0.0
C467 C 0.146 0.71151 0.89596 0.0
C468 C 0.12799 0.69239 0.90048 0.0
C469 C 0.16158 0.71278 0.87577 0.0
H470 H 0.13825 0.66226 0.85407 0.0
H471 H 0.11531 0.69147 0.91422 0.0
C472 C 0.04152 0.59692 0.83872 0.0
N473 N 0.01516 0.57372 0.79038 0.0
C474 C 0.02333 0.57837 0.8454 0.0
C475 C 0.04633 0.60364 0.80742 0.0
C476 C 0.0102 0.56686 0.82063 0.0
C477 C 0.03279 0.59171 0.78333 0.0
C478 C 0.1167 0.63024 0.90343 0.0
C479 C 0.12969 0.62512 0.88667 0.0
C480 C 0.12377 0.64169 0.93135 0.0
C481 C 0.14971 0.63186 0.89788 0.0
C482 C 0.14391 0.64816 0.94176 0.0
N483 N 0.15636 0.64316 0.92494 0.0
C484 C 0.10642 0.61243 0.80266 0.0
C485 C 0.07543 0.58199 0.81726 0.0
C486 C 0.1091 0.60223 0.777 0.0
N487 N 0.08938 0.60245 0.82135 0.0
C488 C 0.07743 0.57121 0.79181 0.0
C489 C 0.09408 0.58155 0.77069 0.0
H490 H 0.11741 0.62864 0.80677 0.0
H491 H 0.06223 0.57429 0.83287 0.0
C492 C 0.03572 0.5961 0.937 0.0
N493 N 0.05675 0.60655 0.93787 0.0
C494 C 0.02441 0.58048 0.95888 0.0
C495 C 0.05662 0.58758 0.98343 0.0
C496 C 0.06733 0.6031 0.96099 0.0
C497 C 0.03489 0.57544 0.98172 0.0
H498 H 0.02777 0.59898 0.91802 0.0
H499 H 0.08408 0.61148 0.96088 0.0
O500 O 0.0917 0.64631 0.83551 0.0
O501 O 0.07503 0.65175 0.89837 0.0
O502 O 0.05436 0.60845 0.86286 0.0
O503 O 0.0971 0.62391 0.89267 0.0
H504 H 0.10795 0.68703 0.84233 0.0
H505 H 0.09425 0.6385 0.77503 0.0
H506 H 0.12498 0.71289 0.79977 0.0
H507 H 0.1111 0.6652 0.7335 0.0
H508 H 0.07304 0.65781 0.0049 0.0
H509 H 0.03565 0.64154 0.90327 0.0
H510 H 0.09194 0.66028 0.95531 0.0
H511 H 0.01774 0.63949 0.95374 0.0
H512 H 0.04832 0.67049 0.76721 0.0
H513 H 0.99669 0.61642 0.80936 0.0
H514 H 0.17066 0.69495 0.8459 0.0
H515 H 0.14733 0.72528 0.90687 0.0
H516 H 0.01938 0.57295 0.86949 0.0
H517 H 0.06025 0.61797 0.80177 0.0
H518 H 0.99606 0.55248 0.82547 0.0
H519 H 0.03627 0.59679 0.75904 0.0
H520 H 0.12439 0.61609 0.8652 0.0
H521 H 0.11391 0.64574 0.94463 0.0
H522 H 0.15997 0.6281 0.88506 0.0
H523 H 0.14964 0.65717 0.9632 0.0
H524 H 0.12215 0.61081 0.76132 0.0
H525 H 0.06575 0.55513 0.78817 0.0
H526 H 0.00774 0.57138 0.95617 0.0
H527 H 0.06532 0.58434 0.00077 0.0
Li528 Li 0.90069 0.55026 0.45675 0.0
Li529 Li 0.93508 0.56698 0.4811 0.0
Li530 Li 0.92786 0.54602 0.43285 0.0
Li531 Li 0.91366 0.52903 0.48307 0.0
C532 C 0.9232 0.57829 0.40963 0.0
N533 N 0.91509 0.58952 0.35148 0.0
C534 C 0.93487 0.59876 0.39915 0.0
C535 C 0.90737 0.56352 0.39055 0.0
C536 C 0.93054 0.60413 0.36967 0.0
C537 C 0.90352 0.56951 0.36122 0.0
C538 C 0.9064 0.55561 0.53099 0.0
C539 C 0.91456 0.55772 0.58648 0.0
N540 N 0.90414 0.5681 0.59162 0.0
C541 C 0.89552 0.56606 0.53691 0.0
C542 C 0.91577 0.55117 0.55604 0.0
C543 C 0.89464 0.57233 0.56769 0.0
C544 C 0.85837 0.53387 0.45623 0.0
N545 N 0.87652 0.55202 0.45349 0.0
C546 C 0.85933 0.57147 0.46083 0.0
C547 C 0.87732 0.57063 0.45466 0.0
C548 C 0.84051 0.55295 0.46586 0.0
C549 C 0.84004 0.53396 0.46217 0.0
H550 H 0.85838 0.51935 0.45579 0.0
H551 H 0.89214 0.5848 0.45316 0.0
C552 C 0.97204 0.59158 0.51486 0.0
N553 N 0.95364 0.58987 0.50654 0.0
C554 C 0.98225 0.60254 0.54199 0.0
C555 C 0.95601 0.61229 0.54863 0.0
C556 C 0.9463 0.60111 0.52133 0.0
C557 C 0.97348 0.61194 0.56027 0.0
H558 H 0.97787 0.58301 0.50207 0.0
H559 H 0.93185 0.59983 0.51369 0.0
C560 C 0.89341 0.50504 0.42929 0.0
N561 N 0.883 0.46716 0.40276 0.0
C562 C 0.90673 0.49702 0.43228 0.0
C563 C 0.87477 0.4938 0.41282 0.0
C564 C 0.90122 0.47786 0.4187 0.0
C565 C 0.86978 0.47467 0.39958 0.0
C566 C 0.95499 0.53848 0.48425 0.0
C567 C 0.96232 0.528 0.46556 0.0
C568 C 0.95965 0.54106 0.5165 0.0
C569 C 0.974 0.52016 0.47948 0.0
C570 C 0.97137 0.533 0.52954 0.0
N571 N 0.97823 0.52279 0.51092 0.0
C572 C 0.96072 0.55254 0.39429 0.0
C573 C 0.92797 0.53027 0.37119 0.0
C574 C 0.9706 0.5471 0.37141 0.0
N575 N 0.93973 0.54325 0.39473 0.0
C576 C 0.93721 0.52435 0.34779 0.0
C577 C 0.9587 0.53199 0.3487 0.0
H578 H 0.96965 0.56286 0.41331 0.0
H579 H 0.91131 0.52343 0.37167 0.0
C580 C 0.88812 0.50207 0.52909 0.0
N581 N 0.90465 0.50583 0.51083 0.0
C582 C 0.88206 0.48805 0.55407 0.0
C583 C 0.90901 0.48057 0.53938 0.0
C584 C 0.9146 0.49484 0.5147 0.0
C585 C 0.89298 0.47757 0.56008 0.0
H586 H 0.88017 0.51067 0.52509 0.0
H587 H 0.92736 0.49761 0.49951 0.0
O588 O 0.92737 0.57288 0.43844 0.0
O589 O 0.90773 0.54968 0.50085 0.0
O590 O 0.89861 0.52391 0.44198 0.0
O591 O 0.94352 0.5463 0.47097 0.0
H592 H 0.94717 0.61037 0.41366 0.0
H593 H 0.89811 0.54762 0.3982 0.0
H594 H 0.93946 0.61992 0.36126 0.0
H595 H 0.89133 0.55824 0.34621 0.0
H596 H 0.92187 0.55449 0.60603 0.0
H597 H 0.88804 0.56952 0.51792 0.0
H598 H 0.92377 0.54264 0.55212 0.0
H599 H 0.88643 0.58059 0.57253 0.0
H600 H 0.86043 0.58643 0.46377 0.0
H601 H 0.82581 0.51933 0.46531 0.0
H602 H 0.996 0.60236 0.54986 0.0
H603 H 0.94882 0.61944 0.56197 0.0
H604 H 0.92122 0.50557 0.44474 0.0
H605 H 0.86432 0.49985 0.41013 0.0
H606 H 0.91144 0.47151 0.42078 0.0
H607 H 0.85541 0.46581 0.38673 0.0
H608 H 0.95889 0.52572 0.44061 0.0
H609 H 0.95437 0.54926 0.53135 0.0
H610 H 0.97966 0.51195 0.46528 0.0
H611 H 0.97503 0.53488 0.55446 0.0
H612 H 0.98717 0.5533 0.37335 0.0
H613 H 0.92749 0.51297 0.33038 0.0
H614 H 0.86933 0.48586 0.56905 0.0
H615 H 0.91783 0.4728 0.54315 0.0
Li616 Li 0.3719 0.92451 0.76899 0.0
Li617 Li 0.36521 0.90817 0.82071 0.0
Li618 Li 0.33777 0.9012 0.78207 0.0
Li619 Li 0.35417 0.9338 0.80958 0.0
C620 C 0.37 0.889 0.75688 0.0
N621 N 0.39044 0.87889 0.71203 0.0
C622 C 0.38528 0.8844 0.76605 0.0
C623 C 0.36484 0.88808 0.72496 0.0
C624 C 0.39551 0.87942 0.74301 0.0
C625 C 0.37544 0.88305 0.70262 0.0
C626 C 0.3935 0.94863 0.8366 0.0
C627 C 0.39501 0.95623 0.89224 0.0
N628 N 0.41536 0.97085 0.88909 0.0
C629 C 0.41444 0.96367 0.83393 0.0
C630 C 0.38371 0.9448 0.86602 0.0
C631 C 0.42522 0.97476 0.86074 0.0
C632 C 0.39117 0.94187 0.70893 0.0
N633 N 0.39312 0.93543 0.73813 0.0
C634 C 0.42826 0.945 0.72796 0.0
C635 C 0.4111 0.93675 0.74781 0.0
C636 C 0.42703 0.95223 0.69783 0.0
C637 C 0.40812 0.95047 0.68824 0.0
H638 H 0.37662 0.94061 0.70193 0.0
H639 H 0.41215 0.93162 0.77128 0.0
C640 C 0.36689 0.89219 0.88186 0.0
N641 N 0.37708 0.90003 0.85414 0.0
C642 C 0.37709 0.88962 0.90755 0.0
C643 C 0.40823 0.90338 0.87607 0.0
C644 C 0.39735 0.9055 0.85083 0.0
C645 C 0.39817 0.89565 0.90513 0.0
H646 H 0.35116 0.88883 0.88486 0.0
H647 H 0.40538 0.91253 0.82904 0.0
C648 C 0.33097 0.92601 0.74732 0.0
N649 N 0.29556 0.91827 0.71508 0.0
C650 C 0.31769 0.93232 0.76001 0.0
C651 C 0.32641 0.91601 0.71806 0.0
C652 C 0.29982 0.9282 0.74338 0.0
C653 C 0.30838 0.91216 0.70218 0.0
C654 C 0.32424 0.88778 0.84337 0.0
C655 C 0.32423 0.86946 0.8358 0.0
C656 C 0.30987 0.8871 0.86531 0.0
C657 C 0.30978 0.85086 0.85003 0.0
C658 C 0.29571 0.86819 0.8791 0.0
N659 N 0.29593 0.85061 0.8712 0.0
C660 C 0.30935 0.86175 0.75814 0.0
C661 C 0.29475 0.88002 0.78305 0.0
C662 C 0.29076 0.84309 0.76151 0.0
N663 N 0.3112 0.87948 0.77023 0.0
C664 C 0.27592 0.86173 0.78705 0.0
C665 C 0.27418 0.84281 0.77785 0.0
H666 H 0.32283 0.86166 0.7489 0.0
H667 H 0.29692 0.89419 0.79361 0.0
C668 C 0.36855 0.97445 0.8321 0.0
N669 N 0.35194 0.95495 0.83106 0.0
C670 C 0.37075 0.98753 0.85725 0.0
C671 C 0.33752 0.9611 0.87726 0.0
C672 C 0.33594 0.94862 0.85166 0.0
C673 C 0.35575 0.98028 0.88139 0.0
H674 H 0.38111 0.97902 0.81543 0.0
H675 H 0.32288 0.9331 0.84992 0.0
O676 O 0.36009 0.89431 0.77904 0.0
O677 O 0.38276 0.93771 0.81049 0.0
O678 O 0.34842 0.92973 0.76341 0.0
O679 O 0.33761 0.90605 0.8285 0.0
H680 H 0.38921 0.88467 0.79067 0.0
H681 H 0.35295 0.89143 0.7175 0.0
H682 H 0.40746 0.87596 0.74976 0.0
H683 H 0.37174 0.88249 0.67781 0.0
H684 H 0.3876 0.95351 0.9151 0.0
H685 H 0.42225 0.96677 0.81135 0.0
H686 H 0.36752 0.9332 0.86857 0.0
H687 H 0.44142 0.98647 0.85901 0.0
H688 H 0.44261 0.9465 0.73672 0.0
H689 H 0.40656 0.9559 0.66525 0.0
H690 H 0.36862 0.88345 0.92937 0.0
H691 H 0.42458 0.90866 0.87326 0.0
H692 H 0.32105 0.94016 0.78257 0.0
H693 H 0.33664 0.91123 0.70775 0.0
H694 H 0.28932 0.93288 0.75301 0.0
H695 H 0.30458 0.90433 0.67959 0.0
H696 H 0.33516 0.8695 0.81902 0.0
H697 H 0.30953 0.90097 0.87164 0.0
H698 H 0.30954 0.8366 0.84419 0.0
H699 H 0.2845 0.86749 0.89604 0.0
H700 H 0.28992 0.82884 0.7537 0.0
H701 H 0.26369 0.86223 0.80013 0.0
H702 H 0.38486 0.00239 0.85916 0.0
H703 H 0.32554 0.95483 0.89516 0.0
Li704 Li 0.45988 0.37655 0.15216 0.0
Li705 Li 0.44648 0.3749 0.09932 0.0
Li706 Li 0.4221 0.3606 0.14461 0.0
Li707 Li 0.44117 0.34369 0.12399 0.0
C708 C 0.44623 0.40705 0.1507 0.0
N709 N 0.45138 0.44266 0.1795 0.0
C710 C 0.45576 0.42593 0.13444 0.0
C711 C 0.43939 0.40636 0.18165 0.0
C712 C 0.45823 0.44375 0.14941 0.0
C713 C 0.44209 0.42449 0.19578 0.0
C714 C 0.48769 0.38368 0.10406 0.0
C715 C 0.52172 0.39489 0.08272 0.0
N716 N 0.52656 0.41497 0.08616 0.0
C717 C 0.49303 0.40443 0.10742 0.0
C718 C 0.50215 0.37885 0.09163 0.0
C719 C 0.51274 0.42003 0.09822 0.0
C720 C 0.48884 0.38075 0.19876 0.0
N721 N 0.4816 0.39159 0.18252 0.0
C722 C 0.50256 0.42178 0.21365 0.0
C723 C 0.48879 0.41199 0.18876 0.0
C724 C 0.50905 0.41049 0.23228 0.0
C725 C 0.50238 0.38983 0.22418 0.0
H726 H 0.48373 0.36487 0.19246 0.0
H727 H 0.48366 0.42069 0.17488 0.0
C728 C 0.44123 0.40114 0.05897 0.0
N729 N 0.45137 0.39031 0.06141 0.0
C730 C 0.44752 0.41696 0.03675 0.0
C731 C 0.47317 0.40871 0.01775 0.0
C732 C 0.46632 0.39298 0.04037 0.0
C733 C 0.46441 0.42162 0.01681 0.0
H734 H 0.42936 0.39861 0.07601 0.0
H735 H 0.47389 0.38388 0.04246 0.0
C736 C 0.44 0.34468 0.19769 0.0
N737 N 0.44565 0.33478 0.25844 0.0
C738 C 0.4459 0.32979 0.20276 0.0
C739 C 0.43676 0.35435 0.22361 0.0
C740 C 0.44873 0.32505 0.23362 0.0
C741 C 0.43976 0.34919 0.2541 0.0
C742 C 0.41572 0.33848 0.07273 0.0
C743 C 0.39577 0.32924 0.05994 0.0
C744 C 0.43167 0.33821 0.0557 0.0
C745 C 0.39209 0.31989 0.03023 0.0
C746 C 0.42738 0.32871 0.02606 0.0
N747 N 0.40784 0.31982 0.01405 0.0
C748 C 0.39183 0.37055 0.16528 0.0
C749 C 0.39035 0.34073 0.1879 0.0
C750 C 0.37937 0.37117 0.18943 0.0
N751 N 0.398 0.35621 0.16617 0.0
C752 C 0.37798 0.34081 0.21253 0.0
C753 C 0.37345 0.35696 0.21458 0.0
H754 H 0.39819 0.38269 0.14765 0.0
H755 H 0.39551 0.3295 0.1879 0.0
C756 C 0.45602 0.31588 0.11893 0.0
N757 N 0.43866 0.31744 0.12093 0.0
C758 C 0.45499 0.29703 0.12549 0.0
C759 C 0.41802 0.28162 0.13389 0.0
C760 C 0.41979 0.30077 0.12724 0.0
C761 C 0.43593 0.27984 0.13429 0.0
H762 H 0.47086 0.32957 0.11452 0.0
H763 H 0.40639 0.30275 0.12937 0.0
O764 O 0.44375 0.38946 0.13636 0.0
O765 O 0.46842 0.36806 0.11262 0.0
O766 O 0.43724 0.3496 0.16755 0.0
O767 O 0.41951 0.34774 0.10175 0.0
H768 H 0.46142 0.42691 0.11063 0.0
H769 H 0.43201 0.392 0.19462 0.0
H770 H 0.46562 0.45844 0.13711 0.0
H771 H 0.43679 0.42411 0.21969 0.0
H772 H 0.53305 0.39137 0.07303 0.0
H773 H 0.48207 0.4085 0.11678 0.0
H774 H 0.49827 0.36286 0.08877 0.0
H775 H 0.51702 0.43614 0.10062 0.0
H776 H 0.50745 0.4378 0.21899 0.0
H777 H 0.50743 0.38074 0.23753 0.0
H778 H 0.4404 0.42656 0.03723 0.0
H779 H 0.486 0.41154 0.00251 0.0
H780 H 0.4485 0.32211 0.18317 0.0
H781 H 0.43197 0.36569 0.22034 0.0
H782 H 0.45341 0.31364 0.23782 0.0
H783 H 0.43737 0.35662 0.27433 0.0
H784 H 0.38326 0.32933 0.07284 0.0
H785 H 0.44721 0.34523 0.06517 0.0
H786 H 0.37672 0.31269 0.02003 0.0
H787 H 0.43957 0.3284 0.01262 0.0
H788 H 0.37587 0.38364 0.18976 0.0
H789 H 0.37389 0.32958 0.23134 0.0
H790 H 0.46909 0.29619 0.12524 0.0
H791 H 0.4031 0.26881 0.14088 0.0
Li792 Li 0.07127 0.4534 0.4332 0.0
Li793 Li 0.08402 0.467 0.48678 0.0
Li794 Li 0.09555 0.44483 0.458 0.0
Li795 Li 0.06056 0.42927 0.48034 0.0
C796 C 0.11314 0.48545 0.42404 0.0
N797 N 0.13941 0.51091 0.37732 0.0
C798 C 0.12059 0.50678 0.42501 0.0
C799 C 0.11931 0.4771 0.39963 0.0
C800 C 0.13377 0.51939 0.40107 0.0
C801 C 0.13254 0.49022 0.37615 0.0
C802 C 0.04449 0.46165 0.48321 0.0
C803 C 0.0296 0.4704 0.5271 0.0
N804 N 0.02412 0.48118 0.50722 0.0
C805 C 0.03851 0.47266 0.46318 0.0
C806 C 0.03981 0.46036 0.5154 0.0
C807 C 0.02829 0.48247 0.47577 0.0
C808 C 0.04679 0.44485 0.37772 0.0
N809 N 0.06196 0.46001 0.39558 0.0
C810 C 0.05923 0.48615 0.36701 0.0
C811 C 0.0687 0.48036 0.39004 0.0
C812 C 0.0425 0.47084 0.34957 0.0
C813 C 0.03687 0.44996 0.35427 0.0
H814 H 0.04155 0.42876 0.38294 0.0
H815 H 0.08018 0.49204 0.40533 0.0
C816 C 0.10384 0.48947 0.5412 0.0
N817 N 0.09228 0.48917 0.51616 0.0
C818 C 0.10725 0.50268 0.56665 0.0
C819 C 0.08829 0.51632 0.53894 0.0
C820 C 0.08537 0.50292 0.51388 0.0
C821 C 0.09878 0.5158 0.56621 0.0
H822 H 0.10966 0.47878 0.54206 0.0
H823 H 0.0768 0.50287 0.49327 0.0
C824 C 0.07011 0.41233 0.41601 0.0
N825 N 0.07284 0.38582 0.37317 0.0
C826 C 0.06336 0.39176 0.42436 0.0
C827 C 0.07784 0.41929 0.38567 0.0
C828 C 0.06499 0.37864 0.40242 0.0
C829 C 0.0792 0.40568 0.36441 0.0
C830 C 0.08665 0.43507 0.53104 0.0
C831 C 0.09636 0.4233 0.53508 0.0
C832 C 0.07596 0.43745 0.55635 0.0
C833 C 0.09491 0.41383 0.56419 0.0
C834 C 0.07482 0.42772 0.58506 0.0
N835 N 0.08422 0.41618 0.58835 0.0
C836 C 0.13724 0.45833 0.4618 0.0
C837 C 0.11696 0.42205 0.45366 0.0
C838 C 0.15458 0.4566 0.46887 0.0
N839 N 0.11882 0.44114 0.45519 0.0
C840 C 0.13394 0.41959 0.46064 0.0
C841 C 0.15281 0.43693 0.46958 0.0
H842 H 0.13813 0.47323 0.46368 0.0
H843 H 0.102 0.40853 0.44967 0.0
C844 C 0.02338 0.40735 0.51361 0.0
N845 N 0.04003 0.4062 0.50329 0.0
C846 C 0.0132 0.39707 0.54114 0.0
C847 C 0.03549 0.38217 0.54408 0.0
C848 C 0.04521 0.39272 0.51634 0.0
C849 C 0.02031 0.38556 0.55792 0.0
H850 H 0.01933 0.41786 0.50237 0.0
H851 H 0.05851 0.39208 0.50752 0.0
O852 O 0.10025 0.47294 0.44735 0.0
O853 O 0.05467 0.45207 0.47127 0.0
O854 O 0.06841 0.4253 0.4371 0.0
O855 O 0.08758 0.44414 0.50246 0.0
H856 H 0.11608 0.51348 0.44395 0.0
H857 H 0.11415 0.46073 0.39902 0.0
H858 H 0.13954 0.53591 0.40137 0.0
H859 H 0.13741 0.48396 0.35707 0.0
H860 H 0.02604 0.46962 0.552 0.0
H861 H 0.0416 0.47357 0.43817 0.0
H862 H 0.04405 0.45176 0.53125 0.0
H863 H 0.02365 0.49109 0.46052 0.0
H864 H 0.06385 0.50238 0.36496 0.0
H865 H 0.02418 0.43764 0.34124 0.0
H866 H 0.11545 0.50176 0.58716 0.0
H867 H 0.08189 0.52654 0.53738 0.0
H868 H 0.05706 0.38606 0.44761 0.0
H869 H 0.08251 0.43495 0.37849 0.0
H870 H 0.05999 0.36273 0.40865 0.0
H871 H 0.08523 0.41088 0.34088 0.0
H872 H 0.10479 0.42133 0.51593 0.0
H873 H 0.06859 0.44669 0.55387 0.0
H874 H 0.10224 0.40457 0.56754 0.0
H875 H 0.06644 0.42931 0.60472 0.0
H876 H 0.16894 0.4704 0.47523 0.0
H877 H 0.13186 0.40412 0.46131 0.0
H878 H 0.00116 0.39961 0.55071 0.0
H879 H 0.04139 0.37338 0.55624 0.0
Li880 Li 0.65223 0.09475 0.79659 0.0
Li881 Li 0.63424 0.06091 0.82289 0.0
Li882 Li 0.61868 0.06996 0.77832 0.0
Li883 Li 0.62164 0.08557 0.83035 0.0
C884 C 0.66037 0.06979 0.76132 0.0
N885 N 0.69513 0.07676 0.72793 0.0
C886 C 0.67262 0.06174 0.77224 0.0
C887 C 0.66561 0.08114 0.73324 0.0
C888 C 0.69019 0.06549 0.75506 0.0
C889 C 0.6833 0.08457 0.71676 0.0
C890 C 0.65342 0.09785 0.87092 0.0
C891 C 0.64726 0.0968 0.92698 0.0
N892 N 0.66242 0.11701 0.92925 0.0
C893 C 0.669 0.11858 0.87381 0.0
C894 C 0.64253 0.08682 0.89771 0.0
C895 C 0.67331 0.12799 0.90352 0.0
C896 C 0.68169 0.13596 0.78305 0.0
N897 N 0.67915 0.11696 0.78935 0.0
C898 C 0.715 0.13167 0.80187 0.0
C899 C 0.69533 0.11446 0.79799 0.0
C900 C 0.71785 0.15168 0.79802 0.0
C901 C 0.70104 0.15367 0.78727 0.0
H902 H 0.66835 0.13748 0.77731 0.0
H903 H 0.69268 0.09927 0.80424 0.0
C904 C 0.62722 0.0206 0.84355 0.0
N905 N 0.63893 0.04157 0.84591 0.0
C906 C 0.62935 0.00794 0.86591 0.0
C907 C 0.65665 0.03866 0.89082 0.0
C908 C 0.65422 0.05058 0.86781 0.0
C909 C 0.64359 0.01702 0.89095 0.0
H910 H 0.61565 0.0137 0.82522 0.0
H911 H 0.66394 0.06721 0.86848 0.0
C912 C 0.61995 0.10619 0.76746 0.0
N913 N 0.60057 0.11802 0.72332 0.0
C914 C 0.60319 0.10858 0.77632 0.0
C915 C 0.62707 0.1101 0.73631 0.0
C916 C 0.59355 0.1145 0.75361 0.0
C917 C 0.617 0.11598 0.7143 0.0
C918 C 0.59256 0.03618 0.82797 0.0
C919 C 0.58302 0.02054 0.80532 0.0
C920 C 0.589 0.03119 0.86004 0.0
C921 C 0.57007 0.00011 0.81518 0.0
C922 C 0.57601 0.01057 0.86893 0.0
N923 N 0.56688 0.99559 0.84651 0.0
C924 C 0.60303 0.05159 0.71698 0.0
C925 C 0.5818 0.05919 0.74966 0.0
C926 C 0.58726 0.04267 0.69426 0.0
N927 N 0.59986 0.05943 0.74409 0.0
C928 C 0.56596 0.05095 0.72746 0.0
C929 C 0.56845 0.0423 0.69953 0.0
H930 H 0.61749 0.05173 0.71345 0.0
H931 H 0.57952 0.06493 0.77187 0.0
C932 C 0.61954 0.11432 0.87262 0.0
N933 N 0.60901 0.0949 0.86017 0.0
C934 C 0.61082 0.12004 0.89709 0.0
C935 C 0.58003 0.08623 0.89371 0.0
C936 C 0.58944 0.08108 0.86967 0.0
C937 C 0.59091 0.10578 0.90816 0.0
H938 H 0.6349 0.12518 0.8641 0.0
H939 H 0.58128 0.06589 0.85899 0.0
O940 O 0.64316 0.0663 0.77783 0.0
O941 O 0.64882 0.08839 0.842 0.0
O942 O 0.6294 0.10012 0.78925 0.0
O943 O 0.60525 0.05628 0.81883 0.0
H944 H 0.66868 0.05281 0.79386 0.0
H945 H 0.65614 0.08727 0.72434 0.0
H946 H 0.69989 0.05947 0.7633 0.0
H947 H 0.68762 0.09343 0.69507 0.0
H948 H 0.63887 0.08849 0.94788 0.0
H949 H 0.67759 0.12736 0.85336 0.0
H950 H 0.63045 0.07076 0.89586 0.0
H951 H 0.68527 0.14405 0.9061 0.0
H952 H 0.72754 0.12933 0.80962 0.0
H953 H 0.70234 0.16872 0.78446 0.0
H954 H 0.61938 0.99131 0.86421 0.0
H955 H 0.66782 0.04666 0.90939 0.0
H956 H 0.59756 0.10568 0.8004 0.0
H957 H 0.64015 0.10851 0.72919 0.0
H958 H 0.58045 0.11626 0.76005 0.0
H959 H 0.62224 0.11892 0.69004 0.0
H960 H 0.58565 0.02409 0.78041 0.0
H961 H 0.59628 0.0431 0.87787 0.0
H962 H 0.56261 0.98784 0.79791 0.0
H963 H 0.57319 0.00647 0.89366 0.0
H964 H 0.58957 0.03584 0.67317 0.0
H965 H 0.55147 0.05041 0.73286 0.0
H966 H 0.61958 0.13537 0.90736 0.0
H967 H 0.56468 0.07475 0.90165 0.0
Li968 Li 0.56971 0.6316 0.1556 0.0
Li969 Li 0.55356 0.64863 0.12798 0.0
Li970 Li 0.53221 0.61802 0.1614 0.0
Li971 Li 0.54608 0.61543 0.11025 0.0
C972 C 0.54969 0.64976 0.20181 0.0
N973 N 0.53682 0.65795 0.25849 0.0
C974 C 0.54288 0.66417 0.20312 0.0
C975 C 0.55005 0.6396 0.22936 0.0
C976 C 0.53644 0.66809 0.23201 0.0
C977 C 0.54343 0.64391 0.25776 0.0
C978 C 0.58716 0.65843 0.0952 0.0
C979 C 0.59527 0.68172 0.05114 0.0
N980 N 0.61385 0.69498 0.06465 0.0
C981 C 0.60639 0.67217 0.10855 0.0
C982 C 0.58159 0.66312 0.06616 0.0
C983 C 0.61965 0.69061 0.09277 0.0
C984 C 0.60403 0.62633 0.17648 0.0
N985 N 0.5937 0.637 0.17937 0.0
C986 C 0.61379 0.65495 0.22459 0.0
C987 C 0.59908 0.65185 0.2018 0.0
C988 C 0.62361 0.64301 0.224 0.0
C989 C 0.61915 0.62911 0.19868 0.0
H990 H 0.60001 0.61511 0.15775 0.0
H991 H 0.59131 0.66077 0.20291 0.0
C992 C 0.54297 0.67818 0.10668 0.0
N993 N 0.55794 0.67536 0.12012 0.0
C994 C 0.54385 0.69729 0.10949 0.0
C995 C 0.57611 0.71033 0.13819 0.0
C996 C 0.5746 0.69104 0.13488 0.0
C997 C 0.56015 0.71334 0.1266 0.0
H998 H 0.52961 0.66521 0.09595 0.0
H999 H 0.58584 0.68807 0.14629 0.0
C1000 C 0.55415 0.59039 0.16135 0.0
N1001 N 0.5706 0.56642 0.18194 0.0
C1002 C 0.56082 0.58089 0.1395 0.0
C1003 C 0.55578 0.58764 0.19367 0.0
C1004 C 0.56907 0.56881 0.15039 0.0
C1005 C 0.56419 0.5755 0.20361 0.0
C1006 C 0.51077 0.61547 0.09729 0.0
C1007 C 0.49154 0.59866 0.10577 0.0
C1008 C 0.51454 0.62213 0.06591 0.0
C1009 C 0.47649 0.58854 0.08249 0.0
C1010 C 0.49909 0.61157 0.04333 0.0
N1011 N 0.48055 0.59513 0.05201 0.0
C1012 C 0.49968 0.61497 0.20057 0.0
C1013 C 0.50505 0.58618 0.20193 0.0
C1014 C 0.48502 0.60644 0.22478 0.0
N1015 N 0.50979 0.60507 0.19044 0.0
C1016 C 0.49028 0.57692 0.22575 0.0
C1017 C 0.4804 0.58729 0.23792 0.0
H1018 H 0.50341 0.62976 0.19046 0.0
H1019 H 0.51305 0.57848 0.19307 0.0
C1020 C 0.55041 0.59982 0.04975 0.0
N1021 N 0.53883 0.5965 0.07626 0.0
C1022 C 0.54423 0.58408 0.0271 0.0
C1023 C 0.51414 0.56243 0.05917 0.0
C1024 C 0.52111 0.57825 0.08136 0.0
C1025 C 0.52584 0.56513 0.0318 0.0
H1026 H 0.56462 0.61442 0.0466 0.0
H1027 H 0.51262 0.57586 0.10313 0.0
O1028 O 0.55587 0.64552 0.1737 0.0
O1029 O 0.57389 0.64042 0.11044 0.0
O1030 O 0.54601 0.60226 0.15119 0.0
O1031 O 0.52578 0.62539 0.11967 0.0
H1032 H 0.54233 0.67206 0.18205 0.0
H1033 H 0.55524 0.62839 0.22874 0.0
H1034 H 0.53106 0.67914 0.23335 0.0
H1035 H 0.54351 0.63608 0.27922 0.0
H1036 H 0.59112 0.68562 0.02873 0.0
H1037 H 0.61096 0.66871 0.13097 0.0
H1038 H 0.56682 0.65255 0.05544 0.0
H1039 H 0.63454 0.70147 0.10289 0.0
H1040 H 0.61638 0.66576 0.24348 0.0
H1041 H 0.6267 0.61997 0.19656 0.0
H1042 H 0.53114 0.69895 0.10053 0.0
H1043 H 0.58899 0.72237 0.15132 0.0
H1044 H 0.55975 0.58289 0.11441 0.0
H1045 H 0.55074 0.59492 0.21089 0.0
H1046 H 0.57433 0.5614 0.13376 0.0
H1047 H 0.56564 0.57333 0.22854 0.0
H1048 H 0.48837 0.59338 0.13001 0.0
H1049 H 0.52929 0.6352 0.05904 0.0
H1050 H 0.46159 0.57541 0.08865 0.0
H1051 H 0.50184 0.61645 0.0189 0.0
H1052 H 0.47751 0.61476 0.23328 0.0
H1053 H 0.48719 0.56216 0.23533 0.0
H1054 H 0.55376 0.58655 0.00644 0.0
H1055 H 0.5002 0.54784 0.0641 0.0
H1056 H 0.50454 0.10839 0.04092 0.0
H1057 H 0.60953 0.1238 0.96421 0.0
H1058 H 0.55893 0.12255 0.09574 0.0
H1059 H 0.55135 0.09875 0.91445 0.0
H1060 H 0.59305 0.12868 0.01097 0.0
H1061 H 0.52336 0.11018 0.99291 0.0
C1062 C 0.52057 0.11221 0.04285 0.0
C1063 C 0.53017 0.11533 0.07247 0.0
C1064 C 0.58395 0.12227 0.98973 0.0
C1065 C 0.55174 0.11702 0.01741 0.0
C1066 C 0.59337 0.11962 0.963 0.0
C1067 C 0.58173 0.11074 0.93551 0.0
C1068 C 0.56278 0.11612 0.98885 0.0
C1069 C 0.5608 0.10539 0.9353 0.0
C1070 C 0.53126 0.11305 0.01539 0.0
C1071 C 0.55086 0.11982 0.07345 0.0
N1072 N 0.55199 0.1081 0.96159 0.0
N1073 N 0.56095 0.12046 0.04631 0.0
H1074 H 0.4796 0.60711 0.29184 0.0
H1075 H 0.39065 0.50337 0.3723 0.0
H1076 H 0.44894 0.5474 0.246 0.0
H1077 H 0.43138 0.55846 0.42531 0.0
H1078 H 0.40775 0.52133 0.32371 0.0
H1079 H 0.45801 0.5914 0.33872 0.0
C1080 C 0.4681 0.59076 0.2915 0.0
C1081 C 0.46609 0.57848 0.26512 0.0
C1082 C 0.41285 0.52956 0.34593 0.0
C1083 C 0.4415 0.56046 0.31854 0.0
C1084 C 0.40297 0.51938 0.37369 0.0
C1085 C 0.4096 0.52943 0.40297 0.0
C1086 C 0.42949 0.54999 0.34732 0.0
C1087 C 0.42592 0.55007 0.40329 0.0
C1088 C 0.45591 0.5818 0.3183 0.0
C1089 C 0.45113 0.55735 0.266 0.0
N1090 N 0.43536 0.55966 0.37588 0.0
N1091 N 0.43945 0.549 0.2923 0.0
H1092 H 0.88609 0.48694 0.61955 0.0
H1093 H 0.8802 0.38702 0.70028 0.0
H1094 H 0.89082 0.43981 0.56704 0.0
H1095 H 0.8901 0.44117 0.75189 0.0
H1096 H 0.87831 0.40339 0.6512 0.0
H1097 H 0.88177 0.46752 0.66804 0.0
C1098 C 0.88591 0.47234 0.61814 0.0
C1099 C 0.88882 0.46498 0.58917 0.0
C1100 C 0.88074 0.41161 0.6733 0.0
C1101 C 0.88416 0.44279 0.64476 0.0
C1102 C 0.88166 0.40223 0.70132 0.0
C1103 C 0.8854 0.41281 0.73015 0.0
C1104 C 0.88342 0.43165 0.67417 0.0
C1105 C 0.88743 0.43258 0.73011 0.0
C1106 C 0.88362 0.46134 0.6459 0.0
C1107 C 0.88883 0.44614 0.58891 0.0
N1108 N 0.88647 0.44138 0.70255 0.0
N1109 N 0.88658 0.4357 0.61632 0.0
H1110 H 0.445 0.90319 0.09486 0.0
H1111 H 0.42902 0.88558 0.90807 0.0
H1112 H 0.48721 0.89547 0.03402 0.0
H1113 H 0.39413 0.90483 0.96652 0.0
H1114 H 0.44872 0.88615 0.95463 0.0
H1115 H 0.42427 0.9008 0.04866 0.0
C1116 C 0.44995 0.90104 0.07182 0.0
C1117 C 0.46792 0.89956 0.06841 0.0
C1118 C 0.43669 0.89017 0.95724 0.0
C1119 C 0.4441 0.89657 0.0154 0.0
C1120 C 0.42549 0.88993 0.93063 0.0
C1121 C 0.40982 0.89511 0.93329 0.0
C1122 C 0.43218 0.89558 0.98677 0.0
C1123 C 0.40577 0.90035 0.96331 0.0
C1124 C 0.43805 0.89958 0.04546 0.0
C1125 C 0.47333 0.8964 0.03794 0.0
N1126 N 0.41688 0.90046 0.98881 0.0
N1127 N 0.4615 0.89504 0.01266 0.0
H1128 H 0.54753 0.44369 0.42601 0.0
H1129 H 0.54343 0.44898 0.23823 0.0
H1130 H 0.59619 0.49207 0.37032 0.0
H1131 H 0.50353 0.3937 0.29132 0.0
H1132 H 0.5626 0.46532 0.28665 0.0
H1133 H 0.53063 0.42528 0.37722 0.0
C1134 C 0.55469 0.45037 0.40353 0.0
C1135 C 0.57329 0.46942 0.40221 0.0
C1136 C 0.54977 0.44955 0.28768 0.0
C1137 C 0.55404 0.44855 0.34639 0.0
C1138 C 0.53879 0.44027 0.26009 0.0
C1139 C 0.52187 0.41999 0.26081 0.0
C1140 C 0.54361 0.43858 0.31632 0.0
C1141 C 0.5166 0.40931 0.2897 0.0
C1142 C 0.54511 0.43983 0.37572 0.0
C1143 C 0.58199 0.47731 0.37246 0.0
N1144 N 0.52731 0.4188 0.31638 0.0
N1145 N 0.57221 0.46694 0.34575 0.0
H1146 H 0.13128 0.53746 0.60715 0.0
H1147 H 0.06204 0.55757 0.73095 0.0
H1148 H 0.06733 0.52002 0.59138 0.0
H1149 H 0.12796 0.58286 0.74228 0.0
H1150 H 0.06363 0.54245 0.68072 0.0
H1151 H 0.1305 0.55354 0.65721 0.0
C1152 C 0.11712 0.53712 0.61414 0.0
C1153 C 0.09935 0.52742 0.59503 0.0
C1154 C 0.07777 0.55127 0.69417 0.0
C1155 C 0.09831 0.54564 0.65229 0.0
C1156 C 0.07683 0.55974 0.72305 0.0
C1157 C 0.09488 0.5714 0.74097 0.0
C1158 C 0.09689 0.5544 0.68304 0.0
C1159 C 0.11369 0.57408 0.72914 0.0
C1160 C 0.1167 0.54632 0.64267 0.0
C1161 C 0.08148 0.52757 0.60512 0.0
N1162 N 0.11421 0.5656 0.70093 0.0
N1163 N 0.08138 0.5364 0.63312 0.0
H1164 H 0.41331 0.02059 0.06235 0.0
H1165 H 0.32984 0.98492 0.92323 0.0
H1166 H 0.35214 0.01217 0.0764 0.0
H1167 H 0.39285 0.99781 0.91218 0.0
H1168 H 0.33746 0.99607 0.9785 0.0
H1169 H 0.40558 0.01264 0.00678 0.0
C1170 C 0.39807 0.01671 0.05383 0.0
C1171 C 0.38321 0.01667 0.07425 0.0
C1172 C 0.34965 0.9967 0.96377 0.0
C1173 C 0.37438 0.00804 0.00999 0.0
C1174 C 0.34533 0.99037 0.93223 0.0
C1175 C 0.36071 0.99043 0.9129 0.0
C1176 C 0.36945 0.00299 0.97607 0.0
C1177 C 0.38055 0.99778 0.92583 0.0
C1178 C 0.39375 0.01243 0.0219 0.0
C1179 C 0.364 0.01227 0.0615 0.0
N1180 N 0.38425 0.00357 0.95656 0.0
N1181 N 0.36009 0.00803 0.03015 0.0
H1182 H 0.3448 0.32916 0.257 0.0
H1183 H 0.38557 0.4145 0.39303 0.0
H1184 H 0.38715 0.39451 0.24274 0.0
H1185 H 0.33613 0.3518 0.4088 0.0
H1186 H 0.38546 0.40679 0.33733 0.0
H1187 H 0.33974 0.33657 0.31169 0.0
C1188 C 0.35274 0.34507 0.26514 0.0
C1189 C 0.3665 0.36121 0.24517 0.0
C1190 C 0.37461 0.39463 0.35283 0.0
C1191 C 0.36093 0.36972 0.30765 0.0
C1192 C 0.37486 0.39896 0.38479 0.0
C1193 C 0.36113 0.38363 0.40569 0.0
C1194 C 0.36058 0.37475 0.34145 0.0
C1195 C 0.34709 0.36399 0.39345 0.0
C1196 C 0.34985 0.34927 0.29634 0.0
C1197 C 0.37621 0.38155 0.25694 0.0
N1198 N 0.34728 0.36003 0.36208 0.0
N1199 N 0.37341 0.38515 0.28741 0.0
H1200 H 0.01017 0.34957 0.59055 0.0
H1201 H 0.00163 0.39836 0.75434 0.0
H1202 H 0.01945 0.41118 0.60251 0.0
H1203 H 0.98016 0.33302 0.74371 0.0
H1204 H 0.01399 0.404 0.70031 0.0
H1205 H 0.00343 0.34364 0.64762 0.0
C1206 C 0.01065 0.36175 0.60513 0.0
C1207 C 0.0149 0.38072 0.59171 0.0
C1208 C 0.00677 0.38843 0.70981 0.0
C1209 C 0.00775 0.37427 0.65667 0.0
C1210 C -4e-05 0.38522 0.74097 0.0
C1211 C 0.98971 0.36513 0.75373 0.0
C1212 C 0.00323 0.37146 0.69097 0.0
C1213 C 0.98767 0.34872 0.73472 0.0
C1214 C 0.00688 0.3584 0.63761 0.0
C1215 C 0.01562 0.3961 0.61166 0.0
N1216 N 0.99417 0.3522 0.70414 0.0
N1217 N 0.0121 0.39254 0.64302 0.0
H1218 H 0.65024 0.00206 0.08533 0.0
H1219 H 0.61043 0.98185 0.91584 0.0
H1220 H 0.60905 0.93911 0.05566 0.0
H1221 H 0.67589 0.02394 0.93101 0.0
H1222 H 0.60865 0.96627 0.96702 0.0
H1223 H 0.65957 0.01191 0.02976 0.0
C1224 C 0.64354 0.99027 0.06716 0.0
C1225 C 0.62889 0.96977 0.07494 0.0
C1226 C 0.62346 0.97871 0.95879 0.0
C1227 C 0.63893 0.98095 0.01182 0.0
C1228 C 0.62458 0.98759 0.92935 0.0
C1229 C 0.64328 0.00467 0.91897 0.0
C1230 C 0.64095 0.98726 0.97842 0.0
C1231 C 0.66091 0.01141 0.93831 0.0
C1232 C 0.64887 0.99585 0.0356 0.0
C1233 C 0.62049 0.95505 0.0506 0.0
N1234 N 0.6592 0.00306 0.96746 0.0
N1235 N 0.62525 0.96101 0.02001 0.0
H1236 H 0.64844 0.67596 0.26323 0.0
H1237 H 0.66775 0.60741 0.38775 0.0
H1238 H 0.62782 0.61104 0.24848 0.0
H1239 H 0.64744 0.65009 0.41567 0.0
H1240 H 0.66693 0.61654 0.33236 0.0
H1241 H 0.66169 0.67382 0.31506 0.0
C1242 C 0.64687 0.66132 0.27052 0.0
C1243 C 0.63632 0.64347 0.25157 0.0
C1244 C 0.66317 0.62425 0.35072 0.0
C1245 C 0.65237 0.64136 0.31027 0.0
C1246 C 0.66374 0.61917 0.38224 0.0
C1247 C 0.65759 0.62801 0.40615 0.0
C1248 C 0.6568 0.63854 0.34322 0.0
C1249 C 0.65222 0.64293 0.39781 0.0
C1250 C 0.65461 0.66023 0.30003 0.0
C1251 C 0.63572 0.62524 0.26197 0.0
N1252 N 0.65186 0.6477 0.3669 0.0
N1253 N 0.64344 0.62462 0.29075 0.0
H1254 H -0.00174 0.60525 0.75608 0.0
H1255 H 0.98065 0.6473 0.59207 0.0
H1256 H 0.01861 0.67007 0.74185 0.0
H1257 H 0.98066 0.58978 0.60405 0.0
H1258 H 0.98952 0.65506 0.64838 0.0
H1259 H 0.98521 0.59813 0.70231 0.0
C1260 C -0.00047 0.61795 0.74193 0.0
C1261 C 0.00956 0.63832 0.7536 0.0
C1262 C 0.98766 0.64082 0.6385 0.0
C1263 C 0.99516 0.63028 0.69135 0.0
C1264 C 0.98266 0.63642 0.60649 0.0
C1265 C 0.98028 0.61804 0.59333 0.0
C1266 C 0.98982 0.62651 0.65741 0.0
C1267 C 0.98284 0.60435 0.61302 0.0
C1268 C 0.99233 0.6139 0.71099 0.0
C1269 C 0.01115 0.65417 0.73371 0.0
N1270 N 0.98737 0.60882 0.64401 0.0
N1271 N 0.00414 0.64985 0.70341 0.0
H1272 H 0.55509 0.0003 0.31631 0.0
H1273 H 0.51349 0.06066 0.34807 0.0
H1274 H 0.49789 0.94767 0.34853 0.0
H1275 H 0.45757 0.00442 0.32227 0.0
H1276 H 0.52915 0.0399 0.36361 0.0
H1277 H 0.54264 0.02306 0.33359 0.0
C1278 C 0.54021 0.99346 0.32808 0.0
C1279 C 0.52734 0.97184 0.33008 0.0
C1280 C 0.51335 0.03213 0.35498 0.0
C1281 C 0.51274 0.99813 0.34959 0.0
C1282 C 0.50436 0.04394 0.34621 0.0
C1283 C 0.48444 0.03434 0.33277 0.0
C1284 C 0.50233 0.0106 0.35012 0.0
C1285 C 0.47306 0.01258 0.33206 0.0
C1286 C 0.53305 0.00661 0.33802 0.0
C1287 C 0.50808 0.96416 0.34531 0.0
N1288 N 0.48233 0.00147 0.33997 0.0
N1289 N 0.50108 0.97724 0.35352 0.0
H1290 H 0.553 0.55379 0.67129 0.0
H1291 H 0.44547 0.45225 0.65349 0.0
H1292 H 0.54495 0.49303 0.65452 0.0
H1293 H 0.45222 0.51173 0.67706 0.0
H1294 H 0.48128 0.46515 0.66878 0.0
H1295 H 0.51668 0.53756 0.68744 0.0
C1296 C 0.54374 0.53703 0.67169 0.0
C1297 C 0.55193 0.52479 0.66081 0.0
C1298 C 0.47486 0.4753 0.67128 0.0
C1299 C 0.51032 0.50611 0.67901 0.0
C1300 C 0.45423 0.46785 0.66279 0.0
C1301 C 0.4459 0.48111 0.66305 0.0
C1302 C 0.48738 0.49626 0.67955 0.0
C1303 C 0.4582 0.50118 0.67534 0.0
C1304 C 0.52299 0.52775 0.68099 0.0
C1305 C 0.53934 0.50314 0.66253 0.0
N1306 N 0.47848 0.50832 0.68233 0.0
N1307 N 0.51907 0.49452 0.67072 0.0
H1308 H 0.99591 0.5577 0.00822 0.0
H1309 H 0.98754 0.44781 0.99655 0.0
H1310 H 0.04755 0.54743 0.99463 0.0
H1311 H 0.93563 0.45829 0.99254 0.0
H1312 H 0.00937 0.48326 0.01576 0.0
H1313 H 0.97415 0.52112 0.02207 0.0
C1314 C 0.00281 0.54789 0.00885 0.0
C1315 C 0.02345 0.55556 0.99931 0.0
C1316 C 0.99307 0.47764 0.01149 0.0
C1317 C -0.00135 0.51372 0.01511 0.0
C1318 C 0.98057 0.45735 0.00075 0.0
C1319 C 0.9599 0.45034 0.99229 0.0
C1320 C 0.98481 0.49094 0.01359 0.0
C1321 C 0.95166 0.46333 0.99813 0.0
C1322 C 0.99039 0.52702 0.01683 0.0
C1323 C 0.03171 0.54227 0.0015 0.0
N1324 N 0.96423 0.48316 0.00781 0.0
N1325 N 0.01916 0.5219 0.00848 0.0
H1326 H 0.94203 0.49064 0.33613 0.0
H1327 H 0.05396 0.50552 0.31282 0.0
H1328 H 0.99727 0.54979 0.32063 0.0
H1329 H 9e-05 0.44953 0.3453 0.0
H1330 H 0.03142 0.51913 0.29729 0.0
H1331 H 0.96089 0.4733 0.32017 0.0
C1332 C 0.95794 0.50005 0.32839 0.0
C1333 C 0.9682 0.52178 0.33049 0.0
C1334 C 0.02452 0.50365 0.30709 0.0
C1335 C 0.99009 0.50187 0.31308 0.0
C1336 C 0.03737 0.49588 0.31605 0.0
C1337 C 0.02903 0.47658 0.33132 0.0
C1338 C 0.00317 0.49204 0.31339 0.0
C1339 C 0.00735 0.46454 0.33391 0.0
C1340 C 0.96878 0.49007 0.31954 0.0
C1341 C 0.98891 0.53301 0.32027 0.0
N1342 N 0.99524 0.47264 0.32568 0.0
N1343 N -0.00069 0.52294 0.31268 0.0
H1344 H 0.44061 0.98813 0.66387 0.0
H1345 H 0.54301 0.05543 0.67536 0.0
H1346 H 0.45717 0.94198 0.68777 0.0
H1347 H 0.5521 0.00269 0.67768 0.0
H1348 H 0.50772 0.03323 0.65749 0.0
H1349 H 0.47574 0.01073 0.64501 0.0
C1350 C 0.45155 0.98259 0.66462 0.0
C1351 C 0.44616 0.96346 0.67857 0.0
C1352 C 0.5174 0.02637 0.66067 0.0
C1353 C 0.48692 0.98978 0.65873 0.0
C1354 C 0.53769 0.0392 0.67098 0.0
C1355 C 0.55027 0.03077 0.67867 0.0
C1356 C 0.50954 0.00485 0.65847 0.0
C1357 C 0.5428 0.00975 0.67229 0.0
C1358 C 0.47185 0.99571 0.65433 0.0
C1359 C 0.46091 0.95698 0.67837 0.0
N1360 N 0.52274 0.9974 0.66337 0.0
N1361 N 0.48072 0.97029 0.66938 0.0
H1362 H 0.44674 0.44119 0.98495 0.0
H1363 H 0.54936 0.5486 0.01185 0.0
H1364 H 0.50611 0.4485 0.01086 0.0
H1365 H 0.48793 0.54039 0.00503 0.0
H1366 H 0.536 0.51342 0.9914 0.0
H1367 H 0.4639 0.47815 0.97238 0.0
C1368 C 0.46344 0.45044 0.98727 0.0
C1369 C 0.47489 0.44181 0.99987 0.0
C1370 C 0.52555 0.51952 0.99352 0.0
C1371 C 0.4946 0.48409 0.9856 0.0
C1372 C 0.53321 0.53965 0.00495 0.0
C1373 C 0.5196 0.54716 0.01067 0.0
C1374 C 0.50417 0.50692 0.98794 0.0
C1375 C 0.49882 0.53494 0.00147 0.0
C1376 C 0.47323 0.47153 0.98004 0.0
C1377 C 0.49656 0.45442 0.00151 0.0
N1378 N 0.49163 0.51526 0.99114 0.0
N1379 N 0.50564 0.47502 0.99519 0.0
H1380 H 0.46271 0.27784 0.17605 0.0
H1381 H 0.40502 0.15424 0.17917 0.0
H1382 H 0.40691 0.23905 0.12313 0.0
H1383 H 0.45673 0.19363 0.23938 0.0
H1384 H 0.40432 0.18479 0.16001 0.0
H1385 H 0.46045 0.24694 0.19962 0.0
C1386 C 0.45011 0.26277 0.16908 0.0
C1387 C 0.43511 0.26099 0.14729 0.0
C1388 C 0.41568 0.18673 0.17767 0.0
C1389 C 0.43217 0.22551 0.17475 0.0
C1390 C 0.41595 0.16926 0.18889 0.0
C1391 C 0.43104 0.17139 0.21083 0.0
C1392 C 0.43066 0.20647 0.18833 0.0
C1393 C 0.44504 0.19131 0.22211 0.0
C1394 C 0.44869 0.24514 0.18285 0.0
C1395 C 0.4188 0.2411 0.13983 0.0
N1396 N 0.44462 0.20808 0.21053 0.0
N1397 N 0.41781 0.2241 0.15345 0.0
H1398 H 0.1675 0.41177 0.44836 0.0
H1399 H 0.25499 0.44932 0.58212 0.0
H1400 H 0.17636 0.45578 0.52158 0.0
H1401 H 0.24874 0.40776 0.50642 0.0
H1402 H 0.22382 0.44899 0.56325 0.0
H1403 H 0.19523 0.40754 0.47184 0.0
C1404 C 0.17527 0.42052 0.46935 0.0
C1405 C 0.16982 0.43437 0.48276 0.0
C1406 C 0.22914 0.43977 0.55095 0.0
C1407 C 0.20141 0.42955 0.50982 0.0
C1408 C 0.24692 0.43994 0.56174 0.0
C1409 C 0.25453 0.42864 0.54575 0.0
C1410 C 0.21897 0.4283 0.52383 0.0
C1411 C 0.24332 0.41655 0.51968 0.0
C1412 C 0.19108 0.41811 0.48274 0.0
C1413 C 0.18038 0.44532 0.50999 0.0
N1414 N 0.22622 0.41687 0.50934 0.0
N1415 N 0.19567 0.44271 0.52255 0.0
H1416 H 0.74225 0.15464 0.84856 0.0
H1417 H 0.80971 0.27735 0.84386 0.0
H1418 H 0.7376 0.19115 0.77304 0.0
H1419 H 0.83001 0.23993 0.89306 0.0
H1420 H 0.78034 0.24582 0.82256 0.0
H1421 H 0.77239 0.18562 0.86881 0.0
C1422 C 0.74773 0.16904 0.8358 0.0
C1423 C 0.73731 0.17016 0.80882 0.0
C1424 C 0.79119 0.24451 0.8381 0.0
C1425 C 0.77146 0.20588 0.83284 0.0
C1426 C 0.80777 0.26244 0.85057 0.0
C1427 C 0.82213 0.26115 0.87047 0.0
C1428 C 0.78884 0.22515 0.84585 0.0
C1429 C 0.81921 0.24151 0.87783 0.0
C1430 C 0.76486 0.18678 0.84766 0.0
C1431 C 0.74489 0.18952 0.7941 0.0
N1432 N 0.8028 0.22422 0.86562 0.0
N1433 N 0.76141 0.20665 0.80645 0.0
H1434 H 0.56757 0.73134 0.18471 0.0
H1435 H 0.54401 0.82052 0.13294 0.0
H1436 H 0.54985 0.7373 0.08995 0.0
H1437 H 0.54917 0.80618 0.23017 0.0
H1438 H 0.54839 0.79165 0.1162 0.0
H1439 H 0.56394 0.76076 0.20094 0.0
C1440 C 0.5632 0.73905 0.16719 0.0
C1441 C 0.55918 0.73199 0.13584 0.0
C1442 C 0.54847 0.79476 0.1412 0.0
C1443 C 0.5546 0.76545 0.15446 0.0
C1444 C 0.54579 0.81115 0.15084 0.0
C1445 C 0.546 0.81569 0.1831 0.0
C1446 C 0.55157 0.78289 0.16391 0.0
C1447 C 0.54904 0.80336 0.20508 0.0
C1448 C 0.56091 0.75571 0.17657 0.0
C1449 C 0.55304 0.74223 0.11435 0.0
N1450 N 0.55172 0.78753 0.19507 0.0
N1451 N 0.55097 0.7585 0.12406 0.0
H1452 H 0.81348 0.52837 0.51153 0.0
H1453 H 0.74439 0.58288 0.5061 0.0
H1454 H 0.82577 0.57885 0.44855 0.0
H1455 H 0.72829 0.52768 0.56003 0.0
H1456 H 0.77605 0.58374 0.48854 0.0
H1457 H 0.78357 0.52949 0.53224 0.0
C1458 C 0.80975 0.53955 0.50174 0.0
C1459 C 0.82202 0.55336 0.47791 0.0
C1460 C 0.76567 0.57151 0.50437 0.0
C1461 C 0.78797 0.55504 0.50217 0.0
C1462 C 0.74769 0.57113 0.51468 0.0
C1463 C 0.7337 0.55518 0.5346 0.0
C1464 C 0.76969 0.55585 0.51408 0.0
C1465 C 0.73857 0.54014 0.54445 0.0
C1466 C 0.79275 0.5403 0.51383 0.0
C1467 C 0.81678 0.56794 0.46694 0.0
N1468 N 0.75614 0.54081 0.53402 0.0
N1469 N 0.8001 0.56837 0.47913 0.0
H1470 H 0.20253 0.72427 0.86999 0.0
H1471 H 0.23283 0.83099 0.78237 0.0
H1472 H 0.15987 0.74696 0.85704 0.0
H1473 H 0.27626 0.81008 0.80253 0.0
H1474 H 0.20562 0.80005 0.80873 0.0
H1475 H 0.22985 0.75586 0.84546 0.0
C1476 C 0.19901 0.73605 0.86229 0.0
C1477 C 0.17896 0.73305 0.86557 0.0
C1478 C 0.22109 0.8022 0.80718 0.0
C1479 C 0.20999 0.76908 0.83709 0.0
C1480 C 0.2366 0.81981 0.79207 0.0
C1481 C 0.25682 0.82306 0.78997 0.0
C1482 C 0.22586 0.78778 0.82036 0.0
C1483 C 0.26081 0.80804 0.80291 0.0
C1484 C 0.21457 0.75404 0.84822 0.0
C1485 C 0.17521 0.74879 0.85532 0.0
N1486 N 0.2455 0.79111 0.8176 0.0
N1487 N 0.19055 0.76608 0.8413 0.0
loop_
_geom_bond_atom_site_label_1
_geom_bond_atom_site_label_2
_geom_bond_distance
_geom_bond_site_symmetry_2
_ccdc_geom_bond_type
Li0 N17 1.990 . S
Li0 O60 1.956 . S
Li0 O61 1.970 . S
Li0 O62 1.961 . S
Li1 N25 1.990 . S
Li1 O60 1.970 . S
Li1 O61 1.956 . S
Li1 O63 1.961 . S
Li2 N47 1.990 . S
Li2 O60 1.961 . S
Li2 O62 1.956 . S
Li2 O63 1.970 . S
Li3 N53 1.990 . S
Li3 O61 1.961 . S
Li3 O62 1.970 . S
Li3 O63 1.956 . S
C4 C6 1.348 . S
C4 C7 1.356 . S
C4 O60 1.325 . S
N5 C8 1.314 . S
N5 C9 1.279 . S
C6 C4 1.348 . S
C6 C8 1.353 . S
C6 H64 0.929 . S
C7 C4 1.356 . S
C7 C9 1.358 . S
C7 H65 0.930 . S
C8 N5 1.314 . S
C8 C6 1.353 . S
C8 H66 0.930 . S
C9 N5 1.279 . S
C9 C7 1.358 . S
C9 H67 0.930 . S
C10 C13 1.348 . S
C10 C14 1.356 . S
C10 O61 1.325 . S
C11 N12 1.279 . S
C11 C14 1.358 . S
C11 H68 0.930 . S
N12 C11 1.279 . S
N12 C15 1.314 . S
C13 C10 1.348 . S
C13 C15 1.353 . S
C13 H69 0.929 . S
C14 C10 1.356 . S
C14 C11 1.358 . S
C14 H70 0.930 . S
C15 N12 1.314 . S
C15 C13 1.353 . S
C15 H71 0.930 . S
C16 N17 1.314 . S
C16 C21 1.353 . S
C16 H22 0.930 . S
N17 Li0 1.990 . S
N17 C16 1.314 . S
N17 C19 1.279 . S
C18 C19 1.358 . S
C18 C20 1.356 . S
C18 H72 0.930 . S
C19 N17 1.279 . S
C19 C18 1.358 . S
C19 H23 0.930 . S
C20 C18 1.356 . S
C20 C21 1.348 . S
C21 C16 1.353 . S
C21 C20 1.348 . S
C21 H73 0.929 1_545 S
H22 C16 0.930 . S
H23 C19 0.930 . S
C24 N25 1.314 . S
C24 C26 1.353 . S
C24 H30 0.930 . S
N25 Li1 1.990 . S
N25 C24 1.314 . S
N25 C28 1.279 . S
C26 C24 1.353 . S
C26 C29 1.348 . S
C26 H74 0.929 . S
C27 C28 1.358 . S
C27 C29 1.356 . S
C27 H75 0.930 . S
C28 N25 1.279 . S
C28 C27 1.358 . S
C28 H31 0.930 . S
C29 C26 1.348 . S
C29 C27 1.356 . S
H30 C24 0.930 . S
H31 C28 0.930 . S
C32 C34 1.348 . S
C32 C35 1.356 . S
C32 O62 1.325 . S
N33 C36 1.314 . S
N33 C37 1.279 . S
C34 C32 1.348 . S
C34 C36 1.353 . S
C34 H76 0.929 . S
C35 C32 1.356 . S
C35 C37 1.358 . S
C35 H77 0.930 . S
C36 N33 1.314 . S
C36 C34 1.353 . S
C36 H78 0.930 . S
C37 N33 1.279 . S
C37 C35 1.358 . S
C37 H79 0.930 . S
C38 C39 1.348 . S
C38 C40 1.356 . S
C38 O63 1.325 . S
C39 C38 1.348 . S
C39 C41 1.353 . S
C39 H80 0.929 . S
C40 C38 1.356 . S
C40 C42 1.358 . S
C40 H81 0.930 . S
C41 C39 1.353 . S
C41 N43 1.314 . S
C41 H82 0.930 . S
C42 C40 1.358 . S
C42 N43 1.279 . S
C42 H83 0.930 . S
N43 C41 1.314 . S
N43 C42 1.279 . S
C44 C46 1.353 . S
C44 N47 1.314 . S
C44 H50 0.930 . S
C45 N47 1.279 . S
C45 C48 1.358 . S
C45 H51 0.930 . S
C46 C44 1.353 . S
C46 C49 1.348 . S
C46 H84 0.929 . S
N47 Li2 1.990 . S
N47 C44 1.314 . S
N47 C45 1.279 . S
C48 C45 1.358 . S
C48 C49 1.356 . S
C48 H85 0.930 . S
C49 C46 1.348 . S
C49 C48 1.356 . S
H50 C44 0.930 . S
H51 C45 0.930 . S
C52 N53 1.314 . S
C52 C54 1.353 . S
C52 H58 0.930 . S
N53 Li3 1.990 . S
N53 C52 1.314 . S
N53 C56 1.279 . S
C54 C52 1.353 . S
C54 C57 1.348 . S
C54 H86 0.929 . S
C55 C56 1.358 . S
C55 C57 1.356 . S
C55 H87 0.930 . S
C56 N53 1.279 . S
C56 C55 1.358 . S
C56 H59 0.930 . S
C57 C54 1.348 . S
C57 C55 1.356 . S
H58 C52 0.930 . S
H59 C56 0.930 . S
O60 Li0 1.956 . S
O60 Li1 1.970 . S
O60 Li2 1.961 . S
O60 C4 1.325 . S
O61 Li0 1.970 . S
O61 Li1 1.956 . S
O61 Li3 1.961 . S
O61 C10 1.325 . S
O62 Li0 1.961 . S
O62 Li2 1.956 . S
O62 Li3 1.970 . S
O62 C32 1.325 . S
O63 Li1 1.961 . S
O63 Li2 1.970 . S
O63 Li3 1.956 . S
O63 C38 1.325 . S
H64 C6 0.929 . S
H65 C7 0.930 . S
H66 C8 0.930 . S
H67 C9 0.930 . S
H68 C11 0.930 . S
H69 C13 0.929 . S
H70 C14 0.930 . S
H71 C15 0.930 . S
H72 C18 0.930 . S
H73 C21 0.929 1_565 S
H74 C26 0.929 . S
H75 C27 0.930 . S
H76 C34 0.929 . S
H77 C35 0.930 . S
H78 C36 0.930 . S
H79 C37 0.930 . S
H80 C39 0.929 . S
H81 C40 0.930 . S
H82 C41 0.930 . S
H83 C42 0.930 . S
H84 C46 0.929 . S
H85 C48 0.930 . S
H86 C54 0.929 . S
H87 C55 0.930 . S
Li88 N105 1.990 . S
Li88 O148 1.956 . S
Li88 O149 1.970 . S
Li88 O150 1.961 . S
Li89 N113 1.990 . S
Li89 O148 1.970 . S
Li89 O149 1.956 . S
Li89 O151 1.961 . S
Li90 N135 1.990 . S
Li90 O148 1.961 . S
Li90 O150 1.956 . S
Li90 O151 1.970 . S
Li91 N141 1.990 . S
Li91 O149 1.961 . S
Li91 O150 1.970 . S
Li91 O151 1.956 . S
C92 C94 1.348 . S
C92 C95 1.356 . S
C92 O148 1.325 . S
N93 C96 1.314 . S
N93 C97 1.279 . S
C94 C92 1.348 . S
C94 C96 1.353 . S
C94 H152 0.929 . S
C95 C92 1.356 . S
C95 C97 1.358 . S
C95 H153 0.930 . S
C96 N93 1.314 . S
C96 C94 1.353 . S
C96 H154 0.930 . S
C97 N93 1.279 . S
C97 C95 1.358 . S
C97 H155 0.930 . S
C98 C101 1.348 . S
C98 C102 1.356 . S
C98 O149 1.325 . S
C99 N100 1.279 . S
C99 C102 1.358 . S
C99 H156 0.930 . S
N100 C99 1.279 . S
N100 C103 1.314 . S
C101 C98 1.348 . S
C101 C103 1.353 . S
C101 H157 0.929 . S
C102 C98 1.356 . S
C102 C99 1.358 . S
C102 H158 0.930 . S
C103 N100 1.314 . S
C103 C101 1.353 . S
C103 H159 0.930 . S
C104 N105 1.314 . S
C104 C109 1.353 . S
C104 H110 0.930 . S
N105 Li88 1.990 . S
N105 C104 1.314 . S
N105 C107 1.279 . S
C106 C107 1.358 . S
C106 C108 1.356 . S
C106 H160 0.930 . S
C107 N105 1.279 . S
C107 C106 1.358 . S
C107 H111 0.930 . S
C108 C106 1.356 . S
C108 C109 1.348 . S
C109 C104 1.353 . S
C109 C108 1.348 . S
C109 H161 0.929 . S
H110 C104 0.930 . S
H111 C107 0.930 . S
C112 N113 1.314 . S
C112 C114 1.353 . S
C112 H118 0.930 . S
N113 Li89 1.990 . S
N113 C112 1.314 . S
N113 C116 1.279 . S
C114 C112 1.353 . S
C114 C117 1.348 . S
C114 H162 0.929 . S
C115 C116 1.358 . S
C115 C117 1.356 . S
C115 H163 0.930 . S
C116 N113 1.279 . S
C116 C115 1.358 . S
C116 H119 0.930 . S
C117 C114 1.348 . S
C117 C115 1.356 . S
H118 C112 0.930 . S
H119 C116 0.930 . S
C120 C122 1.348 . S
C120 C123 1.356 . S
C120 O150 1.325 . S
N121 C124 1.314 . S
N121 C125 1.279 . S
C122 C120 1.348 . S
C122 C124 1.353 . S
C122 H164 0.929 . S
C123 C120 1.356 . S
C123 C125 1.358 . S
C123 H165 0.930 . S
C124 N121 1.314 . S
C124 C122 1.353 . S
C124 H166 0.930 . S
C125 N121 1.279 . S
C125 C123 1.358 . S
C125 H167 0.930 . S
C126 C127 1.348 . S
C126 C128 1.356 . S
C126 O151 1.325 . S
C127 C126 1.348 . S
C127 C129 1.353 . S
C127 H168 0.929 . S
C128 C126 1.356 . S
C128 C130 1.358 . S
C128 H169 0.930 . S
C129 C127 1.353 . S
C129 N131 1.314 . S
C129 H170 0.930 . S
C130 C128 1.358 . S
C130 N131 1.279 . S
C130 H171 0.930 . S
N131 C129 1.314 . S
N131 C130 1.279 . S
C132 C134 1.353 . S
C132 N135 1.314 . S
C132 H138 0.930 . S
C133 N135 1.279 . S
C133 C136 1.358 . S
C133 H139 0.930 . S
C134 C132 1.353 . S
C134 C137 1.348 . S
C134 H172 0.929 . S
N135 Li90 1.990 . S
N135 C132 1.314 . S
N135 C133 1.279 . S
C136 C133 1.358 . S
C136 C137 1.356 . S
C136 H173 0.930 . S
C137 C134 1.348 . S
C137 C136 1.356 . S
H138 C132 0.930 . S
H139 C133 0.930 . S
C140 N141 1.314 . S
C140 C142 1.353 . S
C140 H146 0.930 . S
N141 Li91 1.990 . S
N141 C140 1.314 . S
N141 C144 1.279 . S
C142 C140 1.353 . S
C142 C145 1.348 . S
C142 H174 0.929 . S
C143 C144 1.358 . S
C143 C145 1.356 . S
C143 H175 0.930 . S
C144 N141 1.279 . S
C144 C143 1.358 . S
C144 H147 0.930 . S
C145 C142 1.348 . S
C145 C143 1.356 . S
H146 C140 0.930 . S
H147 C144 0.930 . S
O148 Li88 1.956 . S
O148 Li89 1.970 . S
O148 Li90 1.961 . S
O148 C92 1.325 . S
O149 Li88 1.970 . S
O149 Li89 1.956 . S
O149 Li91 1.961 . S
O149 C98 1.325 . S
O150 Li88 1.961 . S
O150 Li90 1.956 . S
O150 Li91 1.970 . S
O150 C120 1.325 . S
O151 Li89 1.961 . S
O151 Li90 1.970 . S
O151 Li91 1.956 . S
O151 C126 1.325 . S
H152 C94 0.929 . S
H153 C95 0.930 . S
H154 C96 0.930 . S
H155 C97 0.930 . S
H156 C99 0.930 . S
H157 C101 0.929 . S
H158 C102 0.930 . S
H159 C103 0.930 . S
H160 C106 0.930 . S
H161 C109 0.929 . S
H162 C114 0.929 . S
H163 C115 0.930 . S
H164 C122 0.929 . S
H165 C123 0.930 . S
H166 C124 0.930 . S
H167 C125 0.930 . S
H168 C127 0.929 . S
H169 C128 0.930 . S
H170 C129 0.930 . S
H171 C130 0.930 . S
H172 C134 0.929 . S
H173 C136 0.930 . S
H174 C142 0.929 . S
H175 C143 0.930 . S
Li176 N193 1.990 . S
Li176 O236 1.956 . S
Li176 O237 1.970 . S
Li176 O238 1.961 . S
Li177 N201 1.990 . S
Li177 O236 1.970 . S
Li177 O237 1.956 . S
Li177 O239 1.961 . S
Li178 N223 1.990 . S
Li178 O236 1.961 . S
Li178 O238 1.956 . S
Li178 O239 1.970 . S
Li179 N229 1.990 . S
Li179 O237 1.961 . S
Li179 O238 1.970 . S
Li179 O239 1.956 . S
C180 C182 1.348 . S
C180 C183 1.356 . S
C180 O236 1.325 . S
N181 C184 1.314 . S
N181 C185 1.279 . S
C182 C180 1.348 . S
C182 C184 1.353 . S
C182 H240 0.929 . S
C183 C180 1.356 . S
C183 C185 1.358 . S
C183 H241 0.930 . S
C184 N181 1.314 . S
C184 C182 1.353 . S
C184 H242 0.930 . S
C185 N181 1.279 . S
C185 C183 1.358 . S
C185 H243 0.930 . S
C186 C189 1.348 . S
C186 C190 1.356 . S
C186 O237 1.325 . S
C187 N188 1.279 . S
C187 C190 1.358 . S
C187 H244 0.930 . S
N188 C187 1.279 . S
N188 C191 1.314 . S
C189 C186 1.348 . S
C189 C191 1.353 . S
C189 H245 0.929 . S
C190 C186 1.356 . S
C190 C187 1.358 . S
C190 H246 0.930 . S
C191 N188 1.314 . S
C191 C189 1.353 . S
C191 H247 0.930 . S
C192 N193 1.314 . S
C192 C197 1.353 . S
C192 H198 0.930 . S
N193 Li176 1.990 . S
N193 C192 1.314 . S
N193 C195 1.279 . S
C194 C195 1.358 . S
C194 C196 1.356 . S
C194 H248 0.930 . S
C195 N193 1.279 . S
C195 C194 1.358 . S
C195 H199 0.930 . S
C196 C194 1.356 . S
C196 C197 1.348 . S
C197 C192 1.353 . S
C197 C196 1.348 . S
C197 H249 0.929 . S
H198 C192 0.930 . S
H199 C195 0.930 . S
C200 N201 1.314 . S
C200 C202 1.353 . S
C200 H206 0.930 . S
N201 Li177 1.990 . S
N201 C200 1.314 . S
N201 C204 1.279 . S
C202 C200 1.353 . S
C202 C205 1.348 . S
C202 H250 0.929 . S
C203 C204 1.358 . S
C203 C205 1.356 . S
C203 H251 0.930 . S
C204 N201 1.279 . S
C204 C203 1.358 . S
C204 H207 0.930 . S
C205 C202 1.348 . S
C205 C203 1.356 . S
H206 C200 0.930 . S
H207 C204 0.930 . S
C208 C210 1.348 . S
C208 C211 1.356 . S
C208 O238 1.325 . S
N209 C212 1.314 . S
N209 C213 1.279 . S
C210 C208 1.348 . S
C210 C212 1.353 . S
C210 H252 0.929 . S
C211 C208 1.356 . S
C211 C213 1.358 . S
C211 H253 0.930 . S
C212 N209 1.314 . S
C212 C210 1.353 . S
C212 H254 0.930 . S
C213 N209 1.279 . S
C213 C211 1.358 . S
C213 H255 0.930 . S
C214 C215 1.348 . S
C214 C216 1.356 . S
C214 O239 1.325 . S
C215 C214 1.348 . S
C215 C217 1.353 . S
C215 H256 0.929 . S
C216 C214 1.356 . S
C216 C218 1.358 . S
C216 H257 0.930 . S
C217 C215 1.353 . S
C217 N219 1.314 . S
C217 H258 0.930 . S
C218 C216 1.358 . S
C218 N219 1.279 . S
C218 H259 0.930 . S
N219 C217 1.314 . S
N219 C218 1.279 . S
C220 C222 1.353 . S
C220 N223 1.314 . S
C220 H226 0.930 . S
C221 N223 1.279 . S
C221 C224 1.358 . S
C221 H227 0.930 . S
C222 C220 1.353 . S
C222 C225 1.348 . S
C222 H260 0.929 1_655 S
N223 Li178 1.990 . S
N223 C220 1.314 . S
N223 C221 1.279 . S
C224 C221 1.358 . S
C224 C225 1.356 . S
C224 H261 0.930 . S
C225 C222 1.348 . S
C225 C224 1.356 . S
H226 C220 0.930 . S
H227 C221 0.930 . S
C228 N229 1.314 . S
C228 C230 1.353 . S
C228 H234 0.930 . S
N229 Li179 1.990 . S
N229 C228 1.314 . S
N229 C232 1.279 . S
C230 C228 1.353 . S
C230 C233 1.348 . S
C230 H262 0.929 . S
C231 C232 1.358 . S
C231 C233 1.356 . S
C231 H263 0.930 . S
C232 N229 1.279 . S
C232 C231 1.358 . S
C232 H235 0.930 . S
C233 C230 1.348 . S
C233 C231 1.356 . S
H234 C228 0.930 . S
H235 C232 0.930 . S
O236 Li176 1.956 . S
O236 Li177 1.970 . S
O236 Li178 1.961 . S
O236 C180 1.325 . S
O237 Li176 1.970 . S
O237 Li177 1.956 . S
O237 Li179 1.961 . S
O237 C186 1.325 . S
O238 Li176 1.961 . S
O238 Li178 1.956 . S
O238 Li179 1.970 . S
O238 C208 1.325 . S
O239 Li177 1.961 . S
O239 Li178 1.970 . S
O239 Li179 1.956 . S
O239 C214 1.325 . S
H240 C182 0.929 . S
H241 C183 0.930 . S
H242 C184 0.930 . S
H243 C185 0.930 . S
H244 C187 0.930 . S
H245 C189 0.929 . S
H246 C190 0.930 . S
H247 C191 0.930 . S
H248 C194 0.930 . S
H249 C197 0.929 . S
H250 C202 0.929 . S
H251 C203 0.930 . S
H252 C210 0.929 . S
H253 C211 0.930 . S
H254 C212 0.930 . S
H255 C213 0.930 . S
H256 C215 0.929 . S
H257 C216 0.930 . S
H258 C217 0.930 . S
H259 C218 0.930 . S
H260 C222 0.929 1_455 S
H261 C224 0.930 . S
H262 C230 0.929 . S
H263 C231 0.930 . S
Li264 N281 1.990 . S
Li264 O324 1.956 . S
Li264 O325 1.970 . S
Li264 O326 1.961 . S
Li265 N289 1.990 . S
Li265 O324 1.970 . S
Li265 O325 1.956 . S
Li265 O327 1.961 . S
Li266 N311 1.990 . S
Li266 O324 1.961 . S
Li266 O326 1.956 . S
Li266 O327 1.970 . S
Li267 N317 1.990 . S
Li267 O325 1.961 . S
Li267 O326 1.970 . S
Li267 O327 1.956 . S
C268 C270 1.348 . S
C268 C271 1.356 . S
C268 O324 1.325 . S
N269 C272 1.314 . S
N269 C273 1.279 . S
C270 C268 1.348 . S
C270 C272 1.353 . S
C270 H328 0.929 . S
C271 C268 1.356 . S
C271 C273 1.358 . S
C271 H329 0.930 . S
C272 N269 1.314 . S
C272 C270 1.353 . S
C272 H330 0.930 . S
C273 N269 1.279 . S
C273 C271 1.358 . S
C273 H331 0.930 . S
C274 C277 1.348 . S
C274 C278 1.356 . S
C274 O325 1.325 . S
C275 N276 1.279 . S
C275 C278 1.358 . S
C275 H332 0.930 . S
N276 C275 1.279 . S
N276 C279 1.314 . S
C277 C274 1.348 . S
C277 C279 1.353 . S
C277 H333 0.929 . S
C278 C274 1.356 . S
C278 C275 1.358 . S
C278 H334 0.930 . S
C279 N276 1.314 . S
C279 C277 1.353 . S
C279 H335 0.930 . S
C280 N281 1.314 . S
C280 C285 1.353 . S
C280 H286 0.930 . S
N281 Li264 1.990 . S
N281 C280 1.314 . S
N281 C283 1.279 . S
C282 C283 1.358 . S
C282 C284 1.356 . S
C282 H336 0.930 . S
C283 N281 1.279 . S
C283 C282 1.358 . S
C283 H287 0.930 . S
C284 C282 1.356 . S
C284 C285 1.348 . S
C285 C280 1.353 . S
C285 C284 1.348 . S
C285 H337 0.929 . S
H286 C280 0.930 . S
H287 C283 0.930 . S
C288 N289 1.314 . S
C288 C290 1.353 . S
C288 H294 0.930 . S
N289 Li265 1.990 . S
N289 C288 1.314 . S
N289 C292 1.279 . S
C290 C288 1.353 . S
C290 C293 1.348 . S
C290 H338 0.929 . S
C291 C292 1.358 . S
C291 C293 1.356 . S
C291 H339 0.930 . S
C292 N289 1.279 . S
C292 C291 1.358 . S
C292 H295 0.930 . S
C293 C290 1.348 . S
C293 C291 1.356 . S
H294 C288 0.930 . S
H295 C292 0.930 . S
C296 C298 1.348 . S
C296 C299 1.356 . S
C296 O326 1.325 . S
N297 C300 1.314 . S
N297 C301 1.279 . S
C298 C296 1.348 . S
C298 C300 1.353 . S
C298 H340 0.929 . S
C299 C296 1.356 . S
C299 C301 1.358 . S
C299 H341 0.930 . S
C300 N297 1.314 . S
C300 C298 1.353 . S
C300 H342 0.930 . S
C301 N297 1.279 . S
C301 C299 1.358 . S
C301 H343 0.930 . S
C302 C303 1.348 . S
C302 C304 1.356 . S
C302 O327 1.325 . S
C303 C302 1.348 . S
C303 C305 1.353 . S
C303 H344 0.929 . S
C304 C302 1.356 . S
C304 C306 1.358 . S
C304 H345 0.930 . S
C305 C303 1.353 . S
C305 N307 1.314 . S
C305 H346 0.930 . S
C306 C304 1.358 . S
C306 N307 1.279 . S
C306 H347 0.930 . S
N307 C305 1.314 . S
N307 C306 1.279 . S
C308 C310 1.353 . S
C308 N311 1.314 . S
C308 H314 0.930 . S
C309 N311 1.279 . S
C309 C312 1.358 . S
C309 H315 0.930 . S
C310 C308 1.353 . S
C310 C313 1.348 . S
C310 H348 0.929 1_565 S
N311 Li266 1.990 . S
N311 C308 1.314 . S
N311 C309 1.279 . S
C312 C309 1.358 . S
C312 C313 1.356 . S
C312 H349 0.930 . S
C313 C310 1.348 . S
C313 C312 1.356 . S
H314 C308 0.930 . S
H315 C309 0.930 . S
C316 N317 1.314 . S
C316 C318 1.353 . S
C316 H322 0.930 . S
N317 Li267 1.990 . S
N317 C316 1.314 . S
N317 C320 1.279 . S
C318 C316 1.353 . S
C318 C321 1.348 . S
C318 H350 0.929 . S
C319 C320 1.358 . S
C319 C321 1.356 . S
C319 H351 0.930 . S
C320 N317 1.279 . S
C320 C319 1.358 . S
C320 H323 0.930 . S
C321 C318 1.348 . S
C321 C319 1.356 . S
H322 C316 0.930 . S
H323 C320 0.930 . S
O324 Li264 1.956 . S
O324 Li265 1.970 . S
O324 Li266 1.961 . S
O324 C268 1.325 . S
O325 Li264 1.970 . S
O325 Li265 1.956 . S
O325 Li267 1.961 . S
O325 C274 1.325 . S
O326 Li264 1.961 . S
O326 Li266 1.956 . S
O326 Li267 1.970 . S
O326 C296 1.325 . S
O327 Li265 1.961 . S
O327 Li266 1.970 . S
O327 Li267 1.956 . S
O327 C302 1.325 . S
H328 C270 0.929 . S
H329 C271 0.930 . S
H330 C272 0.930 . S
H331 C273 0.930 . S
H332 C275 0.930 . S
H333 C277 0.929 . S
H334 C278 0.930 . S
H335 C279 0.930 . S
H336 C282 0.930 . S
H337 C285 0.929 . S
H338 C290 0.929 . S
H339 C291 0.930 . S
H340 C298 0.929 . S
H341 C299 0.930 . S
H342 C300 0.930 . S
H343 C301 0.930 . S
H344 C303 0.929 . S
H345 C304 0.930 . S
H346 C305 0.930 . S
H347 C306 0.930 . S
H348 C310 0.929 1_545 S
H349 C312 0.930 . S
H350 C318 0.929 . S
H351 C319 0.930 . S
Li352 N369 1.990 . S
Li352 O412 1.956 . S
Li352 O413 1.970 . S
Li352 O414 1.961 . S
Li353 N377 1.990 . S
Li353 O412 1.970 . S
Li353 O413 1.956 . S
Li353 O415 1.961 . S
Li354 N399 1.990 . S
Li354 O412 1.961 . S
Li354 O414 1.956 . S
Li354 O415 1.970 . S
Li355 N405 1.990 . S
Li355 O413 1.961 . S
Li355 O414 1.970 . S
Li355 O415 1.956 . S
C356 C358 1.348 . S
C356 C359 1.356 . S
C356 O412 1.325 . S
N357 C360 1.314 . S
N357 C361 1.279 . S
C358 C356 1.348 . S
C358 C360 1.353 . S
C358 H416 0.929 . S
C359 C356 1.356 . S
C359 C361 1.358 . S
C359 H417 0.930 . S
C360 N357 1.314 . S
C360 C358 1.353 . S
C360 H418 0.930 . S
C361 N357 1.279 . S
C361 C359 1.358 . S
C361 H419 0.930 . S
C362 C365 1.348 . S
C362 C366 1.356 . S
C362 O413 1.325 . S
C363 N364 1.279 . S
C363 C366 1.358 . S
C363 H420 0.930 . S
N364 C363 1.279 . S
N364 C367 1.314 . S
C365 C362 1.348 . S
C365 C367 1.353 . S
C365 H421 0.929 . S
C366 C362 1.356 . S
C366 C363 1.358 . S
C366 H422 0.930 . S
C367 N364 1.314 . S
C367 C365 1.353 . S
C367 H423 0.930 . S
C368 N369 1.314 . S
C368 C373 1.353 . S
C368 H374 0.930 . S
N369 Li352 1.990 . S
N369 C368 1.314 . S
N369 C371 1.279 . S
C370 C371 1.358 . S
C370 C372 1.356 . S
C370 H424 0.930 . S
C371 N369 1.279 . S
C371 C370 1.358 . S
C371 H375 0.930 . S
C372 C370 1.356 . S
C372 C373 1.348 . S
C373 C368 1.353 . S
C373 C372 1.348 . S
C373 H425 0.929 . S
H374 C368 0.930 . S
H375 C371 0.930 . S
C376 N377 1.314 . S
C376 C378 1.353 . S
C376 H382 0.930 . S
N377 Li353 1.990 . S
N377 C376 1.314 . S
N377 C380 1.279 . S
C378 C376 1.353 . S
C378 C381 1.348 . S
C378 H426 0.929 . S
C379 C380 1.358 . S
C379 C381 1.356 . S
C379 H427 0.930 . S
C380 N377 1.279 . S
C380 C379 1.358 . S
C380 H383 0.930 . S
C381 C378 1.348 . S
C381 C379 1.356 . S
H382 C376 0.930 . S
H383 C380 0.930 . S
C384 C386 1.348 . S
C384 C387 1.356 . S
C384 O414 1.325 . S
N385 C388 1.314 . S
N385 C389 1.279 . S
C386 C384 1.348 . S
C386 C388 1.353 . S
C386 H428 0.929 . S
C387 C384 1.356 . S
C387 C389 1.358 . S
C387 H429 0.930 . S
C388 N385 1.314 . S
C388 C386 1.353 . S
C388 H430 0.930 . S
C389 N385 1.279 . S
C389 C387 1.358 . S
C389 H431 0.930 . S
C390 C391 1.348 . S
C390 C392 1.356 . S
C390 O415 1.325 . S
C391 C390 1.348 . S
C391 C393 1.353 . S
C391 H432 0.929 . S
C392 C390 1.356 . S
C392 C394 1.358 . S
C392 H433 0.930 . S
C393 C391 1.353 . S
C393 N395 1.314 . S
C393 H434 0.930 . S
C394 C392 1.358 . S
C394 N395 1.279 . S
C394 H435 0.930 . S
N395 C393 1.314 . S
N395 C394 1.279 . S
C396 C398 1.353 . S
C396 N399 1.314 . S
C396 H402 0.930 . S
C397 N399 1.279 . S
C397 C400 1.358 . S
C397 H403 0.930 . S
C398 C396 1.353 . S
C398 C401 1.348 . S
C398 H436 0.929 . S
N399 Li354 1.990 . S
N399 C396 1.314 . S
N399 C397 1.279 . S
C400 C397 1.358 . S
C400 C401 1.356 . S
C400 H437 0.930 . S
C401 C398 1.348 . S
C401 C400 1.356 . S
H402 C396 0.930 . S
H403 C397 0.930 . S
C404 N405 1.314 . S
C404 C406 1.353 . S
C404 H410 0.930 . S
N405 Li355 1.990 . S
N405 C404 1.314 . S
N405 C408 1.279 . S
C406 C404 1.353 . S
C406 C409 1.348 . S
C406 H438 0.929 . S
C407 C408 1.358 . S
C407 C409 1.356 . S
C407 H439 0.930 . S
C408 N405 1.279 . S
C408 C407 1.358 . S
C408 H411 0.930 . S
C409 C406 1.348 . S
C409 C407 1.356 . S
H410 C404 0.930 . S
H411 C408 0.930 . S
O412 Li352 1.956 . S
O412 Li353 1.970 . S
O412 Li354 1.961 . S
O412 C356 1.325 . S
O413 Li352 1.970 . S
O413 Li353 1.956 . S
O413 Li355 1.961 . S
O413 C362 1.325 . S
O414 Li352 1.961 . S
O414 Li354 1.956 . S
O414 Li355 1.970 . S
O414 C384 1.325 . S
O415 Li353 1.961 . S
O415 Li354 1.970 . S
O415 Li355 1.956 . S
O415 C390 1.325 . S
H416 C358 0.929 . S
H417 C359 0.930 . S
H418 C360 0.930 . S
H419 C361 0.930 . S
H420 C363 0.930 . S
H421 C365 0.929 . S
H422 C366 0.930 . S
H423 C367 0.930 . S
H424 C370 0.930 . S
H425 C373 0.929 . S
H426 C378 0.929 . S
H427 C379 0.930 . S
H428 C386 0.929 . S
H429 C387 0.930 . S
H430 C388 0.930 . S
H431 C389 0.930 . S
H432 C391 0.929 . S
H433 C392 0.930 . S
H434 C393 0.930 . S
H435 C394 0.930 . S
H436 C398 0.929 . S
H437 C400 0.930 . S
H438 C406 0.929 . S
H439 C407 0.930 . S
Li440 N457 1.990 . S
Li440 O500 1.956 . S
Li440 O501 1.970 . S
Li440 O502 1.961 . S
Li441 N465 1.990 . S
Li441 O500 1.970 . S
Li441 O501 1.956 . S
Li441 O503 1.961 . S
Li442 N487 1.990 . S
Li442 O500 1.961 . S
Li442 O502 1.956 . S
Li442 O503 1.970 . S
Li443 N493 1.990 . S
Li443 O501 1.961 . S
Li443 O502 1.970 . S
Li443 O503 1.956 . S
C444 C446 1.348 . S
C444 C447 1.356 . S
C444 O500 1.325 . S
N445 C448 1.314 . S
N445 C449 1.279 . S
C446 C444 1.348 . S
C446 C448 1.353 . S
C446 H504 0.929 . S
C447 C444 1.356 . S
C447 C449 1.358 . S
C447 H505 0.930 . S
C448 N445 1.314 . S
C448 C446 1.353 . S
C448 H506 0.930 . S
C449 N445 1.279 . S
C449 C447 1.358 . S
C449 H507 0.930 . S
C450 C453 1.348 . S
C450 C454 1.356 . S
C450 O501 1.325 . S
C451 N452 1.279 . S
C451 C454 1.358 . S
C451 H508 0.930 . S
N452 C451 1.279 . S
N452 C455 1.314 . S
C453 C450 1.348 . S
C453 C455 1.353 . S
C453 H509 0.929 . S
C454 C450 1.356 . S
C454 C451 1.358 . S
C454 H510 0.930 . S
C455 N452 1.314 . S
C455 C453 1.353 . S
C455 H511 0.930 . S
C456 N457 1.314 . S
C456 C461 1.353 . S
C456 H462 0.930 . S
N457 Li440 1.990 . S
N457 C456 1.314 . S
N457 C459 1.279 . S
C458 C459 1.358 . S
C458 C460 1.356 . S
C458 H512 0.930 . S
C459 N457 1.279 . S
C459 C458 1.358 . S
C459 H463 0.930 . S
C460 C458 1.356 . S
C460 C461 1.348 . S
C461 C456 1.353 . S
C461 C460 1.348 . S
C461 H513 0.929 1_455 S
H462 C456 0.930 . S
H463 C459 0.930 . S
C464 N465 1.314 . S
C464 C466 1.353 . S
C464 H470 0.930 . S
N465 Li441 1.990 . S
N465 C464 1.314 . S
N465 C468 1.279 . S
C466 C464 1.353 . S
C466 C469 1.348 . S
C466 H514 0.929 . S
C467 C468 1.358 . S
C467 C469 1.356 . S
C467 H515 0.930 . S
C468 N465 1.279 . S
C468 C467 1.358 . S
C468 H471 0.930 . S
C469 C466 1.348 . S
C469 C467 1.356 . S
H470 C464 0.930 . S
H471 C468 0.930 . S
C472 C474 1.348 . S
C472 C475 1.356 . S
C472 O502 1.325 . S
N473 C476 1.314 . S
N473 C477 1.279 . S
C474 C472 1.348 . S
C474 C476 1.353 . S
C474 H516 0.929 . S
C475 C472 1.356 . S
C475 C477 1.358 . S
C475 H517 0.930 . S
C476 N473 1.314 . S
C476 C474 1.353 . S
C476 H518 0.930 . S
C477 N473 1.279 . S
C477 C475 1.358 . S
C477 H519 0.930 . S
C478 C479 1.348 . S
C478 C480 1.356 . S
C478 O503 1.325 . S
C479 C478 1.348 . S
C479 C481 1.353 . S
C479 H520 0.929 . S
C480 C478 1.356 . S
C480 C482 1.358 . S
C480 H521 0.930 . S
C481 C479 1.353 . S
C481 N483 1.314 . S
C481 H522 0.930 . S
C482 C480 1.358 . S
C482 N483 1.279 . S
C482 H523 0.930 . S
N483 C481 1.314 . S
N483 C482 1.279 . S
C484 C486 1.353 . S
C484 N487 1.314 . S
C484 H490 0.930 . S
C485 N487 1.279 . S
C485 C488 1.358 . S
C485 H491 0.930 . S
C486 C484 1.353 . S
C486 C489 1.348 . S
C486 H524 0.929 . S
N487 Li442 1.990 . S
N487 C484 1.314 . S
N487 C485 1.279 . S
C488 C485 1.358 . S
C488 C489 1.356 . S
C488 H525 0.930 . S
C489 C486 1.348 . S
C489 C488 1.356 . S
H490 C484 0.930 . S
H491 C485 0.930 . S
C492 N493 1.314 . S
C492 C494 1.353 . S
C492 H498 0.930 . S
N493 Li443 1.990 . S
N493 C492 1.314 . S
N493 C496 1.279 . S
C494 C492 1.353 . S
C494 C497 1.348 . S
C494 H526 0.929 . S
C495 C496 1.358 . S
C495 C497 1.356 . S
C495 H527 0.930 . S
C496 N493 1.279 . S
C496 C495 1.358 . S
C496 H499 0.930 . S
C497 C494 1.348 . S
C497 C495 1.356 . S
H498 C492 0.930 . S
H499 C496 0.930 . S
O500 Li440 1.956 . S
O500 Li441 1.970 . S
O500 Li442 1.961 . S
O500 C444 1.325 . S
O501 Li440 1.970 . S
O501 Li441 1.956 . S
O501 Li443 1.961 . S
O501 C450 1.325 . S
O502 Li440 1.961 . S
O502 Li442 1.956 . S
O502 Li443 1.970 . S
O502 C472 1.325 . S
O503 Li441 1.961 . S
O503 Li442 1.970 . S
O503 Li443 1.956 . S
O503 C478 1.325 . S
H504 C446 0.929 . S
H505 C447 0.930 . S
H506 C448 0.930 . S
H507 C449 0.930 . S
H508 C451 0.930 . S
H509 C453 0.929 . S
H510 C454 0.930 . S
H511 C455 0.930 . S
H512 C458 0.930 . S
H513 C461 0.929 1_655 S
H514 C466 0.929 . S
H515 C467 0.930 . S
H516 C474 0.929 . S
H517 C475 0.930 . S
H518 C476 0.930 . S
H519 C477 0.930 . S
H520 C479 0.929 . S
H521 C480 0.930 . S
H522 C481 0.930 . S
H523 C482 0.930 . S
H524 C486 0.929 . S
H525 C488 0.930 . S
H526 C494 0.929 . S
H527 C495 0.930 . S
Li528 N545 1.990 . S
Li528 O588 1.956 . S
Li528 O589 1.970 . S
Li528 O590 1.961 . S
Li529 N553 1.990 . S
Li529 O588 1.970 . S
Li529 O589 1.956 . S
Li529 O591 1.961 . S
Li530 N575 1.990 . S
Li530 O588 1.961 . S
Li530 O590 1.956 . S
Li530 O591 1.970 . S
Li531 N581 1.990 . S
Li531 O589 1.961 . S
Li531 O590 1.970 . S
Li531 O591 1.956 . S
C532 C534 1.348 . S
C532 C535 1.356 . S
C532 O588 1.325 . S
N533 C536 1.314 . S
N533 C537 1.279 . S
C534 C532 1.348 . S
C534 C536 1.353 . S
C534 H592 0.929 . S
C535 C532 1.356 . S
C535 C537 1.358 . S
C535 H593 0.930 . S
C536 N533 1.314 . S
C536 C534 1.353 . S
C536 H594 0.930 . S
C537 N533 1.279 . S
C537 C535 1.358 . S
C537 H595 0.930 . S
C538 C541 1.348 . S
C538 C542 1.356 . S
C538 O589 1.325 . S
C539 N540 1.279 . S
C539 C542 1.358 . S
C539 H596 0.930 . S
N540 C539 1.279 . S
N540 C543 1.314 . S
C541 C538 1.348 . S
C541 C543 1.353 . S
C541 H597 0.929 . S
C542 C538 1.356 . S
C542 C539 1.358 . S
C542 H598 0.930 . S
C543 N540 1.314 . S
C543 C541 1.353 . S
C543 H599 0.930 . S
C544 N545 1.314 . S
C544 C549 1.353 . S
C544 H550 0.930 . S
N545 Li528 1.990 . S
N545 C544 1.314 . S
N545 C547 1.279 . S
C546 C547 1.358 . S
C546 C548 1.356 . S
C546 H600 0.930 . S
C547 N545 1.279 . S
C547 C546 1.358 . S
C547 H551 0.930 . S
C548 C546 1.356 . S
C548 C549 1.348 . S
C549 C544 1.353 . S
C549 C548 1.348 . S
C549 H601 0.929 . S
H550 C544 0.930 . S
H551 C547 0.930 . S
C552 N553 1.314 . S
C552 C554 1.353 . S
C552 H558 0.930 . S
N553 Li529 1.990 . S
N553 C552 1.314 . S
N553 C556 1.279 . S
C554 C552 1.353 . S
C554 C557 1.348 . S
C554 H602 0.929 1_655 S
C555 C556 1.358 . S
C555 C557 1.356 . S
C555 H603 0.930 . S
C556 N553 1.279 . S
C556 C555 1.358 . S
C556 H559 0.930 . S
C557 C554 1.348 . S
C557 C555 1.356 . S
H558 C552 0.930 . S
H559 C556 0.930 . S
C560 C562 1.348 . S
C560 C563 1.356 . S
C560 O590 1.325 . S
N561 C564 1.314 . S
N561 C565 1.279 . S
C562 C560 1.348 . S
C562 C564 1.353 . S
C562 H604 0.929 . S
C563 C560 1.356 . S
C563 C565 1.358 . S
C563 H605 0.930 . S
C564 N561 1.314 . S
C564 C562 1.353 . S
C564 H606 0.930 . S
C565 N561 1.279 . S
C565 C563 1.358 . S
C565 H607 0.930 . S
C566 C567 1.348 . S
C566 C568 1.356 . S
C566 O591 1.325 . S
C567 C566 1.348 . S
C567 C569 1.353 . S
C567 H608 0.929 . S
C568 C566 1.356 . S
C568 C570 1.358 . S
C568 H609 0.930 . S
C569 C567 1.353 . S
C569 N571 1.314 . S
C569 H610 0.930 . S
C570 C568 1.358 . S
C570 N571 1.279 . S
C570 H611 0.930 . S
N571 C569 1.314 . S
N571 C570 1.279 . S
C572 C574 1.353 . S
C572 N575 1.314 . S
C572 H578 0.930 . S
C573 N575 1.279 . S
C573 C576 1.358 . S
C573 H579 0.930 . S
C574 C572 1.353 . S
C574 C577 1.348 . S
C574 H612 0.929 . S
N575 Li530 1.990 . S
N575 C572 1.314 . S
N575 C573 1.279 . S
C576 C573 1.358 . S
C576 C577 1.356 . S
C576 H613 0.930 . S
C577 C574 1.348 . S
C577 C576 1.356 . S
H578 C572 0.930 . S
H579 C573 0.930 . S
C580 N581 1.314 . S
C580 C582 1.353 . S
C580 H586 0.930 . S
N581 Li531 1.990 . S
N581 C580 1.314 . S
N581 C584 1.279 . S
C582 C580 1.353 . S
C582 C585 1.348 . S
C582 H614 0.929 . S
C583 C584 1.358 . S
C583 C585 1.356 . S
C583 H615 0.930 . S
C584 N581 1.279 . S
C584 C583 1.358 . S
C584 H587 0.930 . S
C585 C582 1.348 . S
C585 C583 1.356 . S
H586 C580 0.930 . S
H587 C584 0.930 . S
O588 Li528 1.956 . S
O588 Li529 1.970 . S
O588 Li530 1.961 . S
O588 C532 1.325 . S
O589 Li528 1.970 . S
O589 Li529 1.956 . S
O589 Li531 1.961 . S
O589 C538 1.325 . S
O590 Li528 1.961 . S
O590 Li530 1.956 . S
O590 Li531 1.970 . S
O590 C560 1.325 . S
O591 Li529 1.961 . S
O591 Li530 1.970 . S
O591 Li531 1.956 . S
O591 C566 1.325 . S
H592 C534 0.929 . S
H593 C535 0.930 . S
H594 C536 0.930 . S
H595 C537 0.930 . S
H596 C539 0.930 . S
H597 C541 0.929 . S
H598 C542 0.930 . S
H599 C543 0.930 . S
H600 C546 0.930 . S
H601 C549 0.929 . S
H602 C554 0.929 1_455 S
H603 C555 0.930 . S
H604 C562 0.929 . S
H605 C563 0.930 . S
H606 C564 0.930 . S
H607 C565 0.930 . S
H608 C567 0.929 . S
H609 C568 0.930 . S
H610 C569 0.930 . S
H611 C570 0.930 . S
H612 C574 0.929 . S
H613 C576 0.930 . S
H614 C582 0.929 . S
H615 C583 0.930 . S
Li616 N633 1.990 . S
Li616 O676 1.956 . S
Li616 O677 1.970 . S
Li616 O678 1.961 . S
Li617 N641 1.990 . S
Li617 O676 1.970 . S
Li617 O677 1.956 . S
Li617 O679 1.961 . S
Li618 N663 1.990 . S
Li618 O676 1.961 . S
Li618 O678 1.956 . S
Li618 O679 1.970 . S
Li619 N669 1.990 . S
Li619 O677 1.961 . S
Li619 O678 1.970 . S
Li619 O679 1.956 . S
C620 C622 1.348 . S
C620 C623 1.356 . S
C620 O676 1.325 . S
N621 C624 1.314 . S
N621 C625 1.279 . S
C622 C620 1.348 . S
C622 C624 1.353 . S
C622 H680 0.929 . S
C623 C620 1.356 . S
C623 C625 1.358 . S
C623 H681 0.930 . S
C624 N621 1.314 . S
C624 C622 1.353 . S
C624 H682 0.930 . S
C625 N621 1.279 . S
C625 C623 1.358 . S
C625 H683 0.930 . S
C626 C629 1.348 . S
C626 C630 1.356 . S
C626 O677 1.325 . S
C627 N628 1.279 . S
C627 C630 1.358 . S
C627 H684 0.930 . S
N628 C627 1.279 . S
N628 C631 1.314 . S
C629 C626 1.348 . S
C629 C631 1.353 . S
C629 H685 0.929 . S
C630 C626 1.356 . S
C630 C627 1.358 . S
C630 H686 0.930 . S
C631 N628 1.314 . S
C631 C629 1.353 . S
C631 H687 0.930 . S
C632 N633 1.314 . S
C632 C637 1.353 . S
C632 H638 0.930 . S
N633 Li616 1.990 . S
N633 C632 1.314 . S
N633 C635 1.279 . S
C634 C635 1.358 . S
C634 C636 1.356 . S
C634 H688 0.930 . S
C635 N633 1.279 . S
C635 C634 1.358 . S
C635 H639 0.930 . S
C636 C634 1.356 . S
C636 C637 1.348 . S
C637 C632 1.353 . S
C637 C636 1.348 . S
C637 H689 0.929 . S
H638 C632 0.930 . S
H639 C635 0.930 . S
C640 N641 1.314 . S
C640 C642 1.353 . S
C640 H646 0.930 . S
N641 Li617 1.990 . S
N641 C640 1.314 . S
N641 C644 1.279 . S
C642 C640 1.353 . S
C642 C645 1.348 . S
C642 H690 0.929 . S
C643 C644 1.358 . S
C643 C645 1.356 . S
C643 H691 0.930 . S
C644 N641 1.279 . S
C644 C643 1.358 . S
C644 H647 0.930 . S
C645 C642 1.348 . S
C645 C643 1.356 . S
H646 C640 0.930 . S
H647 C644 0.930 . S
C648 C650 1.348 . S
C648 C651 1.356 . S
C648 O678 1.325 . S
N649 C652 1.314 . S
N649 C653 1.279 . S
C650 C648 1.348 . S
C650 C652 1.353 . S
C650 H692 0.929 . S
C651 C648 1.356 . S
C651 C653 1.358 . S
C651 H693 0.930 . S
C652 N649 1.314 . S
C652 C650 1.353 . S
C652 H694 0.930 . S
C653 N649 1.279 . S
C653 C651 1.358 . S
C653 H695 0.930 . S
C654 C655 1.348 . S
C654 C656 1.356 . S
C654 O679 1.325 . S
C655 C654 1.348 . S
C655 C657 1.353 . S
C655 H696 0.929 . S
C656 C654 1.356 . S
C656 C658 1.358 . S
C656 H697 0.930 . S
C657 C655 1.353 . S
C657 N659 1.314 . S
C657 H698 0.930 . S
C658 C656 1.358 . S
C658 N659 1.279 . S
C658 H699 0.930 . S
N659 C657 1.314 . S
N659 C658 1.279 . S
C660 C662 1.353 . S
C660 N663 1.314 . S
C660 H666 0.930 . S
C661 N663 1.279 . S
C661 C664 1.358 . S
C661 H667 0.930 . S
C662 C660 1.353 . S
C662 C665 1.348 . S
C662 H700 0.929 . S
N663 Li618 1.990 . S
N663 C660 1.314 . S
N663 C661 1.279 . S
C664 C661 1.358 . S
C664 C665 1.356 . S
C664 H701 0.930 . S
C665 C662 1.348 . S
C665 C664 1.356 . S
H666 C660 0.930 . S
H667 C661 0.930 . S
C668 N669 1.314 . S
C668 C670 1.353 . S
C668 H674 0.930 . S
N669 Li619 1.990 . S
N669 C668 1.314 . S
N669 C672 1.279 . S
C670 C668 1.353 . S
C670 C673 1.348 . S
C670 H702 0.929 1_565 S
C671 C672 1.358 . S
C671 C673 1.356 . S
C671 H703 0.930 . S
C672 N669 1.279 . S
C672 C671 1.358 . S
C672 H675 0.930 . S
C673 C670 1.348 . S
C673 C671 1.356 . S
H674 C668 0.930 . S
H675 C672 0.930 . S
O676 Li616 1.956 . S
O676 Li617 1.970 . S
O676 Li618 1.961 . S
O676 C620 1.325 . S
O677 Li616 1.970 . S
O677 Li617 1.956 . S
O677 Li619 1.961 . S
O677 C626 1.325 . S
O678 Li616 1.961 . S
O678 Li618 1.956 . S
O678 Li619 1.970 . S
O678 C648 1.325 . S
O679 Li617 1.961 . S
O679 Li618 1.970 . S
O679 Li619 1.956 . S
O679 C654 1.325 . S
H680 C622 0.929 . S
H681 C623 0.930 . S
H682 C624 0.930 . S
H683 C625 0.930 . S
H684 C627 0.930 . S
H685 C629 0.929 . S
H686 C630 0.930 . S
H687 C631 0.930 . S
H688 C634 0.930 . S
H689 C637 0.929 . S
H690 C642 0.929 . S
H691 C643 0.930 . S
H692 C650 0.929 . S
H693 C651 0.930 . S
H694 C652 0.930 . S
H695 C653 0.930 . S
H696 C655 0.929 . S
H697 C656 0.930 . S
H698 C657 0.930 . S
H699 C658 0.930 . S
H700 C662 0.929 . S
H701 C664 0.930 . S
H702 C670 0.929 1_545 S
H703 C671 0.930 . S
Li704 N721 1.990 . S
Li704 O764 1.956 . S
Li704 O765 1.970 . S
Li704 O766 1.961 . S
Li705 N729 1.990 . S
Li705 O764 1.970 . S
Li705 O765 1.956 . S
Li705 O767 1.961 . S
Li706 N751 1.990 . S
Li706 O764 1.961 . S
Li706 O766 1.956 . S
Li706 O767 1.970 . S
Li707 N757 1.990 . S
Li707 O765 1.961 . S
Li707 O766 1.970 . S
Li707 O767 1.956 . S
C708 C710 1.348 . S
C708 C711 1.356 . S
C708 O764 1.325 . S
N709 C712 1.314 . S
N709 C713 1.279 . S
C710 C708 1.348 . S
C710 C712 1.353 . S
C710 H768 0.929 . S
C711 C708 1.356 . S
C711 C713 1.358 . S
C711 H769 0.930 . S
C712 N709 1.314 . S
C712 C710 1.353 . S
C712 H770 0.930 . S
C713 N709 1.279 . S
C713 C711 1.358 . S
C713 H771 0.930 . S
C714 C717 1.348 . S
C714 C718 1.356 . S
C714 O765 1.325 . S
C715 N716 1.279 . S
C715 C718 1.358 . S
C715 H772 0.930 . S
N716 C715 1.279 . S
N716 C719 1.314 . S
C717 C714 1.348 . S
C717 C719 1.353 . S
C717 H773 0.929 . S
C718 C714 1.356 . S
C718 C715 1.358 . S
C718 H774 0.930 . S
C719 N716 1.314 . S
C719 C717 1.353 . S
C719 H775 0.930 . S
C720 N721 1.314 . S
C720 C725 1.353 . S
C720 H726 0.930 . S
N721 Li704 1.990 . S
N721 C720 1.314 . S
N721 C723 1.279 . S
C722 C723 1.358 . S
C722 C724 1.356 . S
C722 H776 0.930 . S
C723 N721 1.279 . S
C723 C722 1.358 . S
C723 H727 0.930 . S
C724 C722 1.356 . S
C724 C725 1.348 . S
C725 C720 1.353 . S
C725 C724 1.348 . S
C725 H777 0.929 . S
H726 C720 0.930 . S
H727 C723 0.930 . S
C728 N729 1.314 . S
C728 C730 1.353 . S
C728 H734 0.930 . S
N729 Li705 1.990 . S
N729 C728 1.314 . S
N729 C732 1.279 . S
C730 C728 1.353 . S
C730 C733 1.348 . S
C730 H778 0.929 . S
C731 C732 1.358 . S
C731 C733 1.356 . S
C731 H779 0.930 . S
C732 N729 1.279 . S
C732 C731 1.358 . S
C732 H735 0.930 . S
C733 C730 1.348 . S
C733 C731 1.356 . S
H734 C728 0.930 . S
H735 C732 0.930 . S
C736 C738 1.348 . S
C736 C739 1.356 . S
C736 O766 1.325 . S
N737 C740 1.314 . S
N737 C741 1.279 . S
C738 C736 1.348 . S
C738 C740 1.353 . S
C738 H780 0.929 . S
C739 C736 1.356 . S
C739 C741 1.358 . S
C739 H781 0.930 . S
C740 N737 1.314 . S
C740 C738 1.353 . S
C740 H782 0.930 . S
C741 N737 1.279 . S
C741 C739 1.358 . S
C741 H783 0.930 . S
C742 C743 1.348 . S
C742 C744 1.356 . S
C742 O767 1.325 . S
C743 C742 1.348 . S
C743 C745 1.353 . S
C743 H784 0.929 . S
C744 C742 1.356 . S
C744 C746 1.358 . S
C744 H785 0.930 . S
C745 C743 1.353 . S
C745 N747 1.314 . S
C745 H786 0.930 . S
C746 C744 1.358 . S
C746 N747 1.279 . S
C746 H787 0.930 . S
N747 C745 1.314 . S
N747 C746 1.279 . S
C748 C750 1.353 . S
C748 N751 1.314 . S
C748 H754 0.930 . S
C749 N751 1.279 . S
C749 C752 1.358 . S
C749 H755 0.930 . S
C750 C748 1.353 . S
C750 C753 1.348 . S
C750 H788 0.929 . S
N751 Li706 1.990 . S
N751 C748 1.314 . S
N751 C749 1.279 . S
C752 C749 1.358 . S
C752 C753 1.356 . S
C752 H789 0.930 . S
C753 C750 1.348 . S
C753 C752 1.356 . S
H754 C748 0.930 . S
H755 C749 0.930 . S
C756 N757 1.314 . S
C756 C758 1.353 . S
C756 H762 0.930 . S
N757 Li707 1.990 . S
N757 C756 1.314 . S
N757 C760 1.279 . S
C758 C756 1.353 . S
C758 C761 1.348 . S
C758 H790 0.929 . S
C759 C760 1.358 . S
C759 C761 1.356 . S
C759 H791 0.930 . S
C760 N757 1.279 . S
C760 C759 1.358 . S
C760 H763 0.930 . S
C761 C758 1.348 . S
C761 C759 1.356 . S
H762 C756 0.930 . S
H763 C760 0.930 . S
O764 Li704 1.956 . S
O764 Li705 1.970 . S
O764 Li706 1.961 . S
O764 C708 1.325 . S
O765 Li704 1.970 . S
O765 Li705 1.956 . S
O765 Li707 1.961 . S
O765 C714 1.325 . S
O766 Li704 1.961 . S
O766 Li706 1.956 . S
O766 Li707 1.970 . S
O766 C736 1.325 . S
O767 Li705 1.961 . S
O767 Li706 1.970 . S
O767 Li707 1.956 . S
O767 C742 1.325 . S
H768 C710 0.929 . S
H769 C711 0.930 . S
H770 C712 0.930 . S
H771 C713 0.930 . S
H772 C715 0.930 . S
H773 C717 0.929 . S
H774 C718 0.930 . S
H775 C719 0.930 . S
H776 C722 0.930 . S
H777 C725 0.929 . S
H778 C730 0.929 . S
H779 C731 0.930 . S
H780 C738 0.929 . S
H781 C739 0.930 . S
H782 C740 0.930 . S
H783 C741 0.930 . S
H784 C743 0.929 . S
H785 C744 0.930 . S
H786 C745 0.930 . S
H787 C746 0.930 . S
H788 C750 0.929 . S
H789 C752 0.930 . S
H790 C758 0.929 . S
H791 C759 0.930 . S
Li792 N809 1.990 . S
Li792 O852 1.956 . S
Li792 O853 1.970 . S
Li792 O854 1.961 . S
Li793 N817 1.990 . S
Li793 O852 1.970 . S
Li793 O853 1.956 . S
Li793 O855 1.961 . S
Li794 N839 1.990 . S
Li794 O852 1.961 . S
Li794 O854 1.956 . S
Li794 O855 1.970 . S
Li795 N845 1.990 . S
Li795 O853 1.961 . S
Li795 O854 1.970 . S
Li795 O855 1.956 . S
C796 C798 1.348 . S
C796 C799 1.356 . S
C796 O852 1.325 . S
N797 C800 1.314 . S
N797 C801 1.279 . S
C798 C796 1.348 . S
C798 C800 1.353 . S
C798 H856 0.929 . S
C799 C796 1.356 . S
C799 C801 1.358 . S
C799 H857 0.930 . S
C800 N797 1.314 . S
C800 C798 1.353 . S
C800 H858 0.930 . S
C801 N797 1.279 . S
C801 C799 1.358 . S
C801 H859 0.930 . S
C802 C805 1.348 . S
C802 C806 1.356 . S
C802 O853 1.325 . S
C803 N804 1.279 . S
C803 C806 1.358 . S
C803 H860 0.930 . S
N804 C803 1.279 . S
N804 C807 1.314 . S
C805 C802 1.348 . S
C805 C807 1.353 . S
C805 H861 0.929 . S
C806 C802 1.356 . S
C806 C803 1.358 . S
C806 H862 0.930 . S
C807 N804 1.314 . S
C807 C805 1.353 . S
C807 H863 0.930 . S
C808 N809 1.314 . S
C808 C813 1.353 . S
C808 H814 0.930 . S
N809 Li792 1.990 . S
N809 C808 1.314 . S
N809 C811 1.279 . S
C810 C811 1.358 . S
C810 C812 1.356 . S
C810 H864 0.930 . S
C811 N809 1.279 . S
C811 C810 1.358 . S
C811 H815 0.930 . S
C812 C810 1.356 . S
C812 C813 1.348 . S
C813 C808 1.353 . S
C813 C812 1.348 . S
C813 H865 0.929 . S
H814 C808 0.930 . S
H815 C811 0.930 . S
C816 N817 1.314 . S
C816 C818 1.353 . S
C816 H822 0.930 . S
N817 Li793 1.990 . S
N817 C816 1.314 . S
N817 C820 1.279 . S
C818 C816 1.353 . S
C818 C821 1.348 . S
C818 H866 0.929 . S
C819 C820 1.358 . S
C819 C821 1.356 . S
C819 H867 0.930 . S
C820 N817 1.279 . S
C820 C819 1.358 . S
C820 H823 0.930 . S
C821 C818 1.348 . S
C821 C819 1.356 . S
H822 C816 0.930 . S
H823 C820 0.930 . S
C824 C826 1.348 . S
C824 C827 1.356 . S
C824 O854 1.325 . S
N825 C828 1.314 . S
N825 C829 1.279 . S
C826 C824 1.348 . S
C826 C828 1.353 . S
C826 H868 0.929 . S
C827 C824 1.356 . S
C827 C829 1.358 . S
C827 H869 0.930 . S
C828 N825 1.314 . S
C828 C826 1.353 . S
C828 H870 0.930 . S
C829 N825 1.279 . S
C829 C827 1.358 . S
C829 H871 0.930 . S
C830 C831 1.348 . S
C830 C832 1.356 . S
C830 O855 1.325 . S
C831 C830 1.348 . S
C831 C833 1.353 . S
C831 H872 0.929 . S
C832 C830 1.356 . S
C832 C834 1.358 . S
C832 H873 0.930 . S
C833 C831 1.353 . S
C833 N835 1.314 . S
C833 H874 0.930 . S
C834 C832 1.358 . S
C834 N835 1.279 . S
C834 H875 0.930 . S
N835 C833 1.314 . S
N835 C834 1.279 . S
C836 C838 1.353 . S
C836 N839 1.314 . S
C836 H842 0.930 . S
C837 N839 1.279 . S
C837 C840 1.358 . S
C837 H843 0.930 . S
C838 C836 1.353 . S
C838 C841 1.348 . S
C838 H876 0.929 . S
N839 Li794 1.990 . S
N839 C836 1.314 . S
N839 C837 1.279 . S
C840 C837 1.358 . S
C840 C841 1.356 . S
C840 H877 0.930 . S
C841 C838 1.348 . S
C841 C840 1.356 . S
H842 C836 0.930 . S
H843 C837 0.930 . S
C844 N845 1.314 . S
C844 C846 1.353 . S
C844 H850 0.930 . S
N845 Li795 1.990 . S
N845 C844 1.314 . S
N845 C848 1.279 . S
C846 C844 1.353 . S
C846 C849 1.348 . S
C846 H878 0.929 1_455 S
C847 C848 1.358 . S
C847 C849 1.356 . S
C847 H879 0.930 . S
C848 N845 1.279 . S
C848 C847 1.358 . S
C848 H851 0.930 . S
C849 C846 1.348 . S
C849 C847 1.356 . S
H850 C844 0.930 . S
H851 C848 0.930 . S
O852 Li792 1.956 . S
O852 Li793 1.970 . S
O852 Li794 1.961 . S
O852 C796 1.325 . S
O853 Li792 1.970 . S
O853 Li793 1.956 . S
O853 Li795 1.961 . S
O853 C802 1.325 . S
O854 Li792 1.961 . S
O854 Li794 1.956 . S
O854 Li795 1.970 . S
O854 C824 1.325 . S
O855 Li793 1.961 . S
O855 Li794 1.970 . S
O855 Li795 1.956 . S
O855 C830 1.325 . S
H856 C798 0.929 . S
H857 C799 0.930 . S
H858 C800 0.930 . S
H859 C801 0.930 . S
H860 C803 0.930 . S
H861 C805 0.929 . S
H862 C806 0.930 . S
H863 C807 0.930 . S
H864 C810 0.930 . S
H865 C813 0.929 . S
H866 C818 0.929 . S
H867 C819 0.930 . S
H868 C826 0.929 . S
H869 C827 0.930 . S
H870 C828 0.930 . S
H871 C829 0.930 . S
H872 C831 0.929 . S
H873 C832 0.930 . S
H874 C833 0.930 . S
H875 C834 0.930 . S
H876 C838 0.929 . S
H877 C840 0.930 . S
H878 C846 0.929 1_655 S
H879 C847 0.930 . S
Li880 N897 1.990 . S
Li880 O940 1.956 . S
Li880 O941 1.970 . S
Li880 O942 1.961 . S
Li881 N905 1.990 . S
Li881 O940 1.970 . S
Li881 O941 1.956 . S
Li881 O943 1.961 . S
Li882 N927 1.990 . S
Li882 O940 1.961 . S
Li882 O942 1.956 . S
Li882 O943 1.970 . S
Li883 N933 1.990 . S
Li883 O941 1.961 . S
Li883 O942 1.970 . S
Li883 O943 1.956 . S
C884 C886 1.348 . S
C884 C887 1.356 . S
C884 O940 1.325 . S
N885 C888 1.314 . S
N885 C889 1.279 . S
C886 C884 1.348 . S
C886 C888 1.353 . S
C886 H944 0.929 . S
C887 C884 1.356 . S
C887 C889 1.358 . S
C887 H945 0.930 . S
C888 N885 1.314 . S
C888 C886 1.353 . S
C888 H946 0.930 . S
C889 N885 1.279 . S
C889 C887 1.358 . S
C889 H947 0.930 . S
C890 C893 1.348 . S
C890 C894 1.356 . S
C890 O941 1.325 . S
C891 N892 1.279 . S
C891 C894 1.358 . S
C891 H948 0.930 . S
N892 C891 1.279 . S
N892 C895 1.314 . S
C893 C890 1.348 . S
C893 C895 1.353 . S
C893 H949 0.929 . S
C894 C890 1.356 . S
C894 C891 1.358 . S
C894 H950 0.930 . S
C895 N892 1.314 . S
C895 C893 1.353 . S
C895 H951 0.930 . S
C896 N897 1.314 . S
C896 C901 1.353 . S
C896 H902 0.930 . S
N897 Li880 1.990 . S
N897 C896 1.314 . S
N897 C899 1.279 . S
C898 C899 1.358 . S
C898 C900 1.356 . S
C898 H952 0.930 . S
C899 N897 1.279 . S
C899 C898 1.358 . S
C899 H903 0.930 . S
C900 C898 1.356 . S
C900 C901 1.348 . S
C901 C896 1.353 . S
C901 C900 1.348 . S
C901 H953 0.929 . S
H902 C896 0.930 . S
H903 C899 0.930 . S
C904 N905 1.314 . S
C904 C906 1.353 . S
C904 H910 0.930 . S
N905 Li881 1.990 . S
N905 C904 1.314 . S
N905 C908 1.279 . S
C906 C904 1.353 . S
C906 C909 1.348 . S
C906 H954 0.929 1_545 S
C907 C908 1.358 . S
C907 C909 1.356 . S
C907 H955 0.930 . S
C908 N905 1.279 . S
C908 C907 1.358 . S
C908 H911 0.930 . S
C909 C906 1.348 . S
C909 C907 1.356 . S
H910 C904 0.930 . S
H911 C908 0.930 . S
C912 C914 1.348 . S
C912 C915 1.356 . S
C912 O942 1.325 . S
N913 C916 1.314 . S
N913 C917 1.279 . S
C914 C912 1.348 . S
C914 C916 1.353 . S
C914 H956 0.929 . S
C915 C912 1.356 . S
C915 C917 1.358 . S
C915 H957 0.930 . S
C916 N913 1.314 . S
C916 C914 1.353 . S
C916 H958 0.930 . S
C917 N913 1.279 . S
C917 C915 1.358 . S
C917 H959 0.930 . S
C918 C919 1.348 . S
C918 C920 1.356 . S
C918 O943 1.325 . S
C919 C918 1.348 . S
C919 C921 1.353 . S
C919 H960 0.929 . S
C920 C918 1.356 . S
C920 C922 1.358 . S
C920 H961 0.930 . S
C921 C919 1.353 . S
C921 N923 1.314 . S
C921 H962 0.930 . S
C922 C920 1.358 . S
C922 N923 1.279 . S
C922 H963 0.930 . S
N923 C921 1.314 . S
N923 C922 1.279 . S
C924 C926 1.353 . S
C924 N927 1.314 . S
C924 H930 0.930 . S
C925 N927 1.279 . S
C925 C928 1.358 . S
C925 H931 0.930 . S
C926 C924 1.353 . S
C926 C929 1.348 . S
C926 H964 0.929 . S
N927 Li882 1.990 . S
N927 C924 1.314 . S
N927 C925 1.279 . S
C928 C925 1.358 . S
C928 C929 1.356 . S
C928 H965 0.930 . S
C929 C926 1.348 . S
C929 C928 1.356 . S
H930 C924 0.930 . S
H931 C925 0.930 . S
C932 N933 1.314 . S
C932 C934 1.353 . S
C932 H938 0.930 . S
N933 Li883 1.990 . S
N933 C932 1.314 . S
N933 C936 1.279 . S
C934 C932 1.353 . S
C934 C937 1.348 . S
C934 H966 0.929 . S
C935 C936 1.358 . S
C935 C937 1.356 . S
C935 H967 0.930 . S
C936 N933 1.279 . S
C936 C935 1.358 . S
C936 H939 0.930 . S
C937 C934 1.348 . S
C937 C935 1.356 . S
H938 C932 0.930 . S
H939 C936 0.930 . S
O940 Li880 1.956 . S
O940 Li881 1.970 . S
O940 Li882 1.961 . S
O940 C884 1.325 . S
O941 Li880 1.970 . S
O941 Li881 1.956 . S
O941 Li883 1.961 . S
O941 C890 1.325 . S
O942 Li880 1.961 . S
O942 Li882 1.956 . S
O942 Li883 1.970 . S
O942 C912 1.325 . S
O943 Li881 1.961 . S
O943 Li882 1.970 . S
O943 Li883 1.956 . S
O943 C918 1.325 . S
H944 C886 0.929 . S
H945 C887 0.930 . S
H946 C888 0.930 . S
H947 C889 0.930 . S
H948 C891 0.930 . S
H949 C893 0.929 . S
H950 C894 0.930 . S
H951 C895 0.930 . S
H952 C898 0.930 . S
H953 C901 0.929 . S
H954 C906 0.929 1_565 S
H955 C907 0.930 . S
H956 C914 0.929 . S
H957 C915 0.930 . S
H958 C916 0.930 . S
H959 C917 0.930 . S
H960 C919 0.929 . S
H961 C920 0.930 . S
H962 C921 0.930 . S
H963 C922 0.930 . S
H964 C926 0.929 . S
H965 C928 0.930 . S
H966 C934 0.929 . S
H967 C935 0.930 . S
Li968 N985 1.990 . S
Li968 O1028 1.956 . S
Li968 O1029 1.970 . S
Li968 O1030 1.961 . S
Li969 N993 1.990 . S
Li969 O1028 1.970 . S
Li969 O1029 1.956 . S
Li969 O1031 1.961 . S
Li970 N1015 1.990 . S
Li970 O1028 1.961 . S
Li970 O1030 1.956 . S
Li970 O1031 1.970 . S
Li971 N1021 1.990 . S
Li971 O1029 1.961 . S
Li971 O1030 1.970 . S
Li971 O1031 1.956 . S
C972 C974 1.348 . S
C972 C975 1.356 . S
C972 O1028 1.325 . S
N973 C976 1.314 . S
N973 C977 1.279 . S
C974 C972 1.348 . S
C974 C976 1.353 . S
C974 H1032 0.929 . S
C975 C972 1.356 . S
C975 C977 1.358 . S
C975 H1033 0.930 . S
C976 N973 1.314 . S
C976 C974 1.353 . S
C976 H1034 0.930 . S
C977 N973 1.279 . S
C977 C975 1.358 . S
C977 H1035 0.930 . S
C978 C981 1.348 . S
C978 C982 1.356 . S
C978 O1029 1.325 . S
C979 N980 1.279 . S
C979 C982 1.358 . S
C979 H1036 0.930 . S
N980 C979 1.279 . S
N980 C983 1.314 . S
C981 C978 1.348 . S
C981 C983 1.353 . S
C981 H1037 0.929 . S
C982 C978 1.356 . S
C982 C979 1.358 . S
C982 H1038 0.930 . S
C983 N980 1.314 . S
C983 C981 1.353 . S
C983 H1039 0.930 . S
C984 N985 1.314 . S
C984 C989 1.353 . S
C984 H990 0.930 . S
N985 Li968 1.990 . S
N985 C984 1.314 . S
N985 C987 1.279 . S
C986 C987 1.358 . S
C986 C988 1.356 . S
C986 H1040 0.930 . S
C987 N985 1.279 . S
C987 C986 1.358 . S
C987 H991 0.930 . S
C988 C986 1.356 . S
C988 C989 1.348 . S
C989 C984 1.353 . S
C989 C988 1.348 . S
C989 H1041 0.929 . S
H990 C984 0.930 . S
H991 C987 0.930 . S
C992 N993 1.314 . S
C992 C994 1.353 . S
C992 H998 0.930 . S
N993 Li969 1.990 . S
N993 C992 1.314 . S
N993 C996 1.279 . S
C994 C992 1.353 . S
C994 C997 1.348 . S
C994 H1042 0.929 . S
C995 C996 1.358 . S
C995 C997 1.356 . S
C995 H1043 0.930 . S
C996 N993 1.279 . S
C996 C995 1.358 . S
C996 H999 0.930 . S
C997 C994 1.348 . S
C997 C995 1.356 . S
H998 C992 0.930 . S
H999 C996 0.930 . S
C1000 C1002 1.348 . S
C1000 C1003 1.356 . S
C1000 O1030 1.325 . S
N1001 C1004 1.314 . S
N1001 C1005 1.279 . S
C1002 C1000 1.348 . S
C1002 C1004 1.353 . S
C1002 H1044 0.929 . S
C1003 C1000 1.356 . S
C1003 C1005 1.358 . S
C1003 H1045 0.930 . S
C1004 N1001 1.314 . S
C1004 C1002 1.353 . S
C1004 H1046 0.930 . S
C1005 N1001 1.279 . S
C1005 C1003 1.358 . S
C1005 H1047 0.930 . S
C1006 C1007 1.348 . S
C1006 C1008 1.356 . S
C1006 O1031 1.325 . S
C1007 C1006 1.348 . S
C1007 C1009 1.353 . S
C1007 H1048 0.929 . S
C1008 C1006 1.356 . S
C1008 C1010 1.358 . S
C1008 H1049 0.930 . S
C1009 C1007 1.353 . S
C1009 N1011 1.314 . S
C1009 H1050 0.930 . S
C1010 C1008 1.358 . S
C1010 N1011 1.279 . S
C1010 H1051 0.930 . S
N1011 C1009 1.314 . S
N1011 C1010 1.279 . S
C1012 C1014 1.353 . S
C1012 N1015 1.314 . S
C1012 H1018 0.930 . S
C1013 N1015 1.279 . S
C1013 C1016 1.358 . S
C1013 H1019 0.930 . S
C1014 C1012 1.353 . S
C1014 C1017 1.348 . S
C1014 H1052 0.929 . S
N1015 Li970 1.990 . S
N1015 C1012 1.314 . S
N1015 C1013 1.279 . S
C1016 C1013 1.358 . S
C1016 C1017 1.356 . S
C1016 H1053 0.930 . S
C1017 C1014 1.348 . S
C1017 C1016 1.356 . S
H1018 C1012 0.930 . S
H1019 C1013 0.930 . S
C1020 N1021 1.314 . S
C1020 C1022 1.353 . S
C1020 H1026 0.930 . S
N1021 Li971 1.990 . S
N1021 C1020 1.314 . S
N1021 C1024 1.279 . S
C1022 C1020 1.353 . S
C1022 C1025 1.348 . S
C1022 H1054 0.929 . S
C1023 C1024 1.358 . S
C1023 C1025 1.356 . S
C1023 H1055 0.930 . S
C1024 N1021 1.279 . S
C1024 C1023 1.358 . S
C1024 H1027 0.930 . S
C1025 C1022 1.348 . S
C1025 C1023 1.356 . S
H1026 C1020 0.930 . S
H1027 C1024 0.930 . S
O1028 Li968 1.956 . S
O1028 Li969 1.970 . S
O1028 Li970 1.961 . S
O1028 C972 1.325 . S
O1029 Li968 1.970 . S
O1029 Li969 1.956 . S
O1029 Li971 1.961 . S
O1029 C978 1.325 . S
O1030 Li968 1.961 . S
O1030 Li970 1.956 . S
O1030 Li971 1.970 . S
O1030 C1000 1.325 . S
O1031 Li969 1.961 . S
O1031 Li970 1.970 . S
O1031 Li971 1.956 . S
O1031 C1006 1.325 . S
H1032 C974 0.929 . S
H1033 C975 0.930 . S
H1034 C976 0.930 . S
H1035 C977 0.930 . S
H1036 C979 0.930 . S
H1037 C981 0.929 . S
H1038 C982 0.930 . S
H1039 C983 0.930 . S
H1040 C986 0.930 . S
H1041 C989 0.929 . S
H1042 C994 0.929 . S
H1043 C995 0.930 . S
H1044 C1002 0.929 . S
H1045 C1003 0.930 . S
H1046 C1004 0.930 . S
H1047 C1005 0.930 . S
H1048 C1007 0.929 . S
H1049 C1008 0.930 . S
H1050 C1009 0.930 . S
H1051 C1010 0.930 . S
H1052 C1014 0.929 . S
H1053 C1016 0.930 . S
H1054 C1022 0.929 . S
H1055 C1023 0.930 . S
H1056 C1062 0.930 . S
H1057 C1066 0.930 . S
H1058 C1071 0.929 . S
H1059 C1069 0.929 . S
H1060 C1064 0.929 . S
H1061 C1070 0.929 . S
C1062 H1056 0.930 . S
C1062 C1063 1.367 . S
C1062 C1070 1.378 . S
C1063 C1062 1.367 . S
C1063 C1071 1.433 . S
C1064 H1060 0.929 . S
C1064 C1066 1.378 . S
C1064 C1068 1.350 . S
C1065 C1068 1.463 1_554 S
C1065 C1070 1.350 . S
C1065 N1073 1.427 . S
C1066 H1057 0.930 . S
C1066 C1064 1.378 . S
C1066 C1067 1.367 . S
C1067 C1066 1.367 . S
C1067 C1069 1.433 . S
C1068 C1064 1.350 . S
C1068 C1065 1.463 1_556 S
C1068 N1072 1.427 . S
C1069 H1059 0.929 . S
C1069 C1067 1.433 . S
C1069 N1072 1.384 . S
C1070 H1061 0.929 . S
C1070 C1062 1.378 . S
C1070 C1065 1.350 . S
C1071 H1058 0.929 . S
C1071 C1063 1.433 . S
C1071 N1073 1.384 . S
N1072 C1068 1.427 . S
N1072 C1069 1.384 . S
N1073 C1065 1.427 . S
N1073 C1071 1.384 . S
H1074 C1080 0.930 . S
H1075 C1084 0.930 . S
H1076 C1089 0.929 . S
H1077 C1087 0.929 . S
H1078 C1082 0.929 . S
H1079 C1088 0.929 . S
C1080 H1074 0.930 . S
C1080 C1081 1.367 . S
C1080 C1088 1.378 . S
C1081 C1080 1.367 . S
C1081 C1089 1.433 . S
C1082 H1078 0.929 . S
C1082 C1084 1.378 . S
C1082 C1086 1.350 . S
C1083 C1086 1.463 . S
C1083 C1088 1.350 . S
C1083 N1091 1.427 . S
C1084 H1075 0.930 . S
C1084 C1082 1.378 . S
C1084 C1085 1.367 . S
C1085 C1084 1.367 . S
C1085 C1087 1.433 . S
C1086 C1082 1.350 . S
C1086 C1083 1.463 . S
C1086 N1090 1.427 . S
C1087 H1077 0.929 . S
C1087 C1085 1.433 . S
C1087 N1090 1.384 . S
C1088 H1079 0.929 . S
C1088 C1080 1.378 . S
C1088 C1083 1.350 . S
C1089 H1076 0.929 . S
C1089 C1081 1.433 . S
C1089 N1091 1.384 . S
N1090 C1086 1.427 . S
N1090 C1087 1.384 . S
N1091 C1083 1.427 . S
N1091 C1089 1.384 . S
H1092 C1098 0.930 . S
H1093 C1102 0.930 . S
H1094 C1107 0.929 . S
H1095 C1105 0.929 . S
H1096 C1100 0.929 . S
H1097 C1106 0.929 . S
C1098 H1092 0.930 . S
C1098 C1099 1.367 . S
C1098 C1106 1.378 . S
C1099 C1098 1.367 . S
C1099 C1107 1.433 . S
C1100 H1096 0.929 . S
C1100 C1102 1.378 . S
C1100 C1104 1.350 . S
C1101 C1104 1.463 . S
C1101 C1106 1.350 . S
C1101 N1109 1.427 . S
C1102 H1093 0.930 . S
C1102 C1100 1.378 . S
C1102 C1103 1.367 . S
C1103 C1102 1.367 . S
C1103 C1105 1.433 . S
C1104 C1100 1.350 . S
C1104 C1101 1.463 . S
C1104 N1108 1.427 . S
C1105 H1095 0.929 . S
C1105 C1103 1.433 . S
C1105 N1108 1.384 . S
C1106 H1097 0.929 . S
C1106 C1098 1.378 . S
C1106 C1101 1.350 . S
C1107 H1094 0.929 . S
C1107 C1099 1.433 . S
C1107 N1109 1.384 . S
N1108 C1104 1.427 . S
N1108 C1105 1.384 . S
N1109 C1101 1.427 . S
N1109 C1107 1.384 . S
H1110 C1116 0.930 . S
H1111 C1120 0.930 . S
H1112 C1125 0.929 . S
H1113 C1123 0.929 . S
H1114 C1118 0.929 . S
H1115 C1124 0.929 . S
C1116 H1110 0.930 . S
C1116 C1117 1.367 . S
C1116 C1124 1.378 . S
C1117 C1116 1.367 . S
C1117 C1125 1.433 . S
C1118 H1114 0.929 . S
C1118 C1120 1.378 . S
C1118 C1122 1.350 . S
C1119 C1122 1.463 1_554 S
C1119 C1124 1.350 . S
C1119 N1127 1.427 . S
C1120 H1111 0.930 . S
C1120 C1118 1.378 . S
C1120 C1121 1.367 . S
C1121 C1120 1.367 . S
C1121 C1123 1.433 . S
C1122 C1118 1.350 . S
C1122 C1119 1.463 1_556 S
C1122 N1126 1.427 . S
C1123 H1113 0.929 . S
C1123 C1121 1.433 . S
C1123 N1126 1.384 . S
C1124 H1115 0.929 . S
C1124 C1116 1.378 . S
C1124 C1119 1.350 . S
C1125 H1112 0.929 . S
C1125 C1117 1.433 . S
C1125 N1127 1.384 . S
N1126 C1122 1.427 . S
N1126 C1123 1.384 . S
N1127 C1119 1.427 . S
N1127 C1125 1.384 . S
H1128 C1134 0.930 . S
H1129 C1138 0.930 . S
H1130 C1143 0.929 . S
H1131 C1141 0.929 . S
H1132 C1136 0.929 . S
H1133 C1142 0.929 . S
C1134 H1128 0.930 . S
C1134 C1135 1.367 . S
C1134 C1142 1.378 . S
C1135 C1134 1.367 . S
C1135 C1143 1.433 . S
C1136 H1132 0.929 . S
C1136 C1138 1.378 . S
C1136 C1140 1.350 . S
C1137 C1140 1.463 . S
C1137 C1142 1.350 . S
C1137 N1145 1.427 . S
C1138 H1129 0.930 . S
C1138 C1136 1.378 . S
C1138 C1139 1.367 . S
C1139 C1138 1.367 . S
C1139 C1141 1.433 . S
C1140 C1136 1.350 . S
C1140 C1137 1.463 . S
C1140 N1144 1.427 . S
C1141 H1131 0.929 . S
C1141 C1139 1.433 . S
C1141 N1144 1.384 . S
C1142 H1133 0.929 . S
C1142 C1134 1.378 . S
C1142 C1137 1.350 . S
C1143 H1130 0.929 . S
C1143 C1135 1.433 . S
C1143 N1145 1.384 . S
N1144 C1140 1.427 . S
N1144 C1141 1.384 . S
N1145 C1137 1.427 . S
N1145 C1143 1.384 . S
H1146 C1152 0.930 . S
H1147 C1156 0.930 . S
H1148 C1161 0.929 . S
H1149 C1159 0.929 . S
H1150 C1154 0.929 . S
H1151 C1160 0.929 . S
C1152 H1146 0.930 . S
C1152 C1153 1.367 . S
C1152 C1160 1.378 . S
C1153 C1152 1.367 . S
C1153 C1161 1.433 . S
C1154 H1150 0.929 . S
C1154 C1156 1.378 . S
C1154 C1158 1.350 . S
C1155 C1158 1.463 . S
C1155 C1160 1.350 . S
C1155 N1163 1.427 . S
C1156 H1147 0.930 . S
C1156 C1154 1.378 . S
C1156 C1157 1.367 . S
C1157 C1156 1.367 . S
C1157 C1159 1.433 . S
C1158 C1154 1.350 . S
C1158 C1155 1.463 . S
C1158 N1162 1.427 . S
C1159 H1149 0.929 . S
C1159 C1157 1.433 . S
C1159 N1162 1.384 . S
C1160 H1151 0.929 . S
C1160 C1152 1.378 . S
C1160 C1155 1.350 . S
C1161 H1148 0.929 . S
C1161 C1153 1.433 . S
C1161 N1163 1.384 . S
N1162 C1158 1.427 . S
N1162 C1159 1.384 . S
N1163 C1155 1.427 . S
N1163 C1161 1.384 . S
H1164 C1170 0.930 . S
H1165 C1174 0.930 . S
H1166 C1179 0.929 . S
H1167 C1177 0.929 . S
H1168 C1172 0.929 . S
H1169 C1178 0.929 . S
C1170 H1164 0.930 . S
C1170 C1171 1.367 . S
C1170 C1178 1.378 . S
C1171 C1170 1.367 . S
C1171 C1179 1.433 1_545 S
C1172 H1168 0.929 . S
C1172 C1174 1.378 . S
C1172 C1176 1.350 . S
C1173 C1176 1.463 1_544 S
C1173 C1178 1.350 . S
C1173 N1181 1.427 1_545 S
C1174 H1165 0.930 . S
C1174 C1172 1.378 . S
C1174 C1175 1.367 . S
C1175 C1174 1.367 . S
C1175 C1177 1.433 1_565 S
C1176 C1172 1.350 . S
C1176 C1173 1.463 1_566 S
C1176 N1180 1.427 1_565 S
C1177 H1167 0.929 . S
C1177 C1175 1.433 1_545 S
C1177 N1180 1.384 . S
C1178 H1169 0.929 . S
C1178 C1170 1.378 . S
C1178 C1173 1.350 . S
C1179 H1166 0.929 . S
C1179 C1171 1.433 1_565 S
C1179 N1181 1.384 . S
N1180 C1176 1.427 1_545 S
N1180 C1177 1.384 . S
N1181 C1173 1.427 1_565 S
N1181 C1179 1.384 . S
H1182 C1188 0.930 . S
H1183 C1192 0.930 . S
H1184 C1197 0.929 . S
H1185 C1195 0.929 . S
H1186 C1190 0.929 . S
H1187 C1196 0.929 . S
C1188 H1182 0.930 . S
C1188 C1189 1.367 . S
C1188 C1196 1.378 . S
C1189 C1188 1.367 . S
C1189 C1197 1.433 . S
C1190 H1186 0.929 . S
C1190 C1192 1.378 . S
C1190 C1194 1.350 . S
C1191 C1194 1.463 . S
C1191 C1196 1.350 . S
C1191 N1199 1.427 . S
C1192 H1183 0.930 . S
C1192 C1190 1.378 . S
C1192 C1193 1.367 . S
C1193 C1192 1.367 . S
C1193 C1195 1.433 . S
C1194 C1190 1.350 . S
C1194 C1191 1.463 . S
C1194 N1198 1.427 . S
C1195 H1185 0.929 . S
C1195 C1193 1.433 . S
C1195 N1198 1.384 . S
C1196 H1187 0.929 . S
C1196 C1188 1.378 . S
C1196 C1191 1.350 . S
C1197 H1184 0.929 . S
C1197 C1189 1.433 . S
C1197 N1199 1.384 . S
N1198 C1194 1.427 . S
N1198 C1195 1.384 . S
N1199 C1191 1.427 . S
N1199 C1197 1.384 . S
H1200 C1206 0.930 . S
H1201 C1210 0.930 . S
H1202 C1215 0.929 . S
H1203 C1213 0.929 . S
H1204 C1208 0.929 1_455 S
H1205 C1214 0.929 1_655 S
C1206 H1200 0.930 . S
C1206 C1207 1.367 . S
C1206 C1214 1.378 . S
C1207 C1206 1.367 . S
C1207 C1215 1.433 . S
C1208 H1204 0.929 1_655 S
C1208 C1210 1.378 . S
C1208 C1212 1.350 . S
C1209 C1212 1.463 1_455 S
C1209 C1214 1.350 . S
C1209 N1217 1.427 . S
C1210 H1201 0.930 . S
C1210 C1208 1.378 . S
C1210 C1211 1.367 . S
C1211 C1210 1.367 . S
C1211 C1213 1.433 . S
C1212 C1208 1.350 . S
C1212 C1209 1.463 1_655 S
C1212 N1216 1.427 . S
C1213 H1203 0.929 . S
C1213 C1211 1.433 . S
C1213 N1216 1.384 . S
C1214 H1205 0.929 1_455 S
C1214 C1206 1.378 . S
C1214 C1209 1.350 . S
C1215 H1202 0.929 . S
C1215 C1207 1.433 . S
C1215 N1217 1.384 . S
N1216 C1212 1.427 . S
N1216 C1213 1.384 . S
N1217 C1209 1.427 . S
N1217 C1215 1.384 . S
H1218 C1224 0.930 . S
H1219 C1228 0.930 . S
H1220 C1233 0.929 . S
H1221 C1231 0.929 . S
H1222 C1226 0.929 . S
H1223 C1232 0.929 . S
C1224 H1218 0.930 . S
C1224 C1225 1.367 1_545 S
C1224 C1232 1.378 . S
C1225 C1224 1.367 1_565 S
C1225 C1233 1.433 . S
C1226 H1222 0.929 . S
C1226 C1228 1.378 . S
C1226 C1230 1.350 1_565 S
C1227 C1230 1.463 1_564 S
C1227 C1232 1.350 1_565 S
C1227 N1235 1.427 . S
C1228 H1219 0.930 . S
C1228 C1226 1.378 . S
C1228 C1229 1.367 1_565 S
C1229 C1228 1.367 1_545 S
C1229 C1231 1.433 . S
C1230 C1226 1.350 1_545 S
C1230 C1227 1.463 1_546 S
C1230 N1234 1.427 . S
C1231 H1221 0.929 . S
C1231 C1229 1.433 . S
C1231 N1234 1.384 . S
C1232 H1223 0.929 . S
C1232 C1224 1.378 . S
C1232 C1227 1.350 1_545 S
C1233 H1220 0.929 . S
C1233 C1225 1.433 . S
C1233 N1235 1.384 . S
N1234 C1230 1.427 . S
N1234 C1231 1.384 . S
N1235 C1227 1.427 . S
N1235 C1233 1.384 . S
H1236 C1242 0.930 . S
H1237 C1246 0.930 . S
H1238 C1251 0.929 . S
H1239 C1249 0.929 . S
H1240 C1244 0.929 . S
H1241 C1250 0.929 . S
C1242 H1236 0.930 . S
C1242 C1243 1.367 . S
C1242 C1250 1.378 . S
C1243 C1242 1.367 . S
C1243 C1251 1.433 . S
C1244 H1240 0.929 . S
C1244 C1246 1.378 . S
C1244 C1248 1.350 . S
C1245 C1248 1.463 . S
C1245 C1250 1.350 . S
C1245 N1253 1.427 . S
C1246 H1237 0.930 . S
C1246 C1244 1.378 . S
C1246 C1247 1.367 . S
C1247 C1246 1.367 . S
C1247 C1249 1.433 . S
C1248 C1244 1.350 . S
C1248 C1245 1.463 . S
C1248 N1252 1.427 . S
C1249 H1239 0.929 . S
C1249 C1247 1.433 . S
C1249 N1252 1.384 . S
C1250 H1241 0.929 . S
C1250 C1242 1.378 . S
C1250 C1245 1.350 . S
C1251 H1238 0.929 . S
C1251 C1243 1.433 . S
C1251 N1253 1.384 . S
N1252 C1248 1.427 . S
N1252 C1249 1.384 . S
N1253 C1245 1.427 . S
N1253 C1251 1.384 . S
H1254 C1260 0.930 . S
H1255 C1264 0.930 . S
H1256 C1269 0.929 . S
H1257 C1267 0.929 . S
H1258 C1262 0.929 . S
H1259 C1268 0.929 . S
C1260 H1254 0.930 . S
C1260 C1261 1.367 . S
C1260 C1268 1.378 . S
C1261 C1260 1.367 . S
C1261 C1269 1.433 . S
C1262 H1258 0.929 . S
C1262 C1264 1.378 . S
C1262 C1266 1.350 . S
C1263 C1266 1.463 1_455 S
C1263 C1268 1.350 . S
C1263 N1271 1.427 . S
C1264 H1255 0.930 . S
C1264 C1262 1.378 . S
C1264 C1265 1.367 . S
C1265 C1264 1.367 . S
C1265 C1267 1.433 . S
C1266 C1262 1.350 . S
C1266 C1263 1.463 1_655 S
C1266 N1270 1.427 . S
C1267 H1257 0.929 . S
C1267 C1265 1.433 . S
C1267 N1270 1.384 . S
C1268 H1259 0.929 . S
C1268 C1260 1.378 . S
C1268 C1263 1.350 . S
C1269 H1256 0.929 . S
C1269 C1261 1.433 . S
C1269 N1271 1.384 . S
N1270 C1266 1.427 . S
N1270 C1267 1.384 . S
N1271 C1263 1.427 . S
N1271 C1269 1.384 . S
H1272 C1278 0.930 . S
H1273 C1282 0.930 . S
H1274 C1287 0.929 . S
H1275 C1285 0.929 . S
H1276 C1280 0.929 . S
H1277 C1286 0.929 . S
C1278 H1272 0.930 . S
C1278 C1279 1.367 . S
C1278 C1286 1.378 . S
C1279 C1278 1.367 . S
C1279 C1287 1.433 . S
C1280 H1276 0.929 . S
C1280 C1282 1.378 . S
C1280 C1284 1.350 . S
C1281 C1284 1.463 1_565 S
C1281 C1286 1.350 . S
C1281 N1289 1.427 . S
C1282 H1273 0.930 . S
C1282 C1280 1.378 . S
C1282 C1283 1.367 . S
C1283 C1282 1.367 . S
C1283 C1285 1.433 . S
C1284 C1280 1.350 . S
C1284 C1281 1.463 1_545 S
C1284 N1288 1.427 . S
C1285 H1275 0.929 . S
C1285 C1283 1.433 . S
C1285 N1288 1.384 . S
C1286 H1277 0.929 . S
C1286 C1278 1.378 . S
C1286 C1281 1.350 . S
C1287 H1274 0.929 . S
C1287 C1279 1.433 . S
C1287 N1289 1.384 . S
N1288 C1284 1.427 . S
N1288 C1285 1.384 . S
N1289 C1281 1.427 . S
N1289 C1287 1.384 . S
H1290 C1296 0.930 . S
H1291 C1300 0.930 . S
H1292 C1305 0.929 . S
H1293 C1303 0.929 . S
H1294 C1298 0.929 . S
H1295 C1304 0.929 . S
C1296 H1290 0.930 . S
C1296 C1297 1.367 . S
C1296 C1304 1.378 . S
C1297 C1296 1.367 . S
C1297 C1305 1.433 . S
C1298 H1294 0.929 . S
C1298 C1300 1.378 . S
C1298 C1302 1.350 . S
C1299 C1302 1.463 . S
C1299 C1304 1.350 . S
C1299 N1307 1.427 . S
C1300 H1291 0.930 . S
C1300 C1298 1.378 . S
C1300 C1301 1.367 . S
C1301 C1300 1.367 . S
C1301 C1303 1.433 . S
C1302 C1298 1.350 . S
C1302 C1299 1.463 . S
C1302 N1306 1.427 . S
C1303 H1293 0.929 . S
C1303 C1301 1.433 . S
C1303 N1306 1.384 . S
C1304 H1295 0.929 . S
C1304 C1296 1.378 . S
C1304 C1299 1.350 . S
C1305 H1292 0.929 . S
C1305 C1297 1.433 . S
C1305 N1307 1.384 . S
N1306 C1302 1.427 . S
N1306 C1303 1.384 . S
N1307 C1299 1.427 . S
N1307 C1305 1.384 . S
H1308 C1314 0.958 . S
H1309 C1318 0.930 . S
H1310 C1323 0.929 . S
H1311 C1321 0.945 . S
H1312 C1316 0.929 1_455 S
H1313 C1322 0.929 1_655 S
C1314 H1308 0.958 . S
C1314 C1315 1.367 . S
C1314 C1322 1.378 . S
C1315 C1314 1.367 . S
C1315 C1323 1.433 . S
C1316 H1312 0.929 1_655 S
C1316 C1318 1.378 . S
C1316 C1320 1.350 . S
C1317 C1320 1.463 1_455 S
C1317 C1322 1.350 . S
C1317 N1325 1.427 . S
C1318 H1309 0.930 . S
C1318 C1316 1.378 . S
C1318 C1319 1.367 . S
C1319 C1318 1.367 . S
C1319 C1321 1.433 . S
C1320 C1316 1.350 . S
C1320 C1317 1.463 1_655 S
C1320 N1324 1.427 . S
C1321 H1311 0.945 . S
C1321 C1319 1.433 . S
C1321 N1324 1.384 . S
C1322 H1313 0.929 1_455 S
C1322 C1314 1.378 . S
C1322 C1317 1.350 . S
C1323 H1310 0.929 . S
C1323 C1315 1.433 . S
C1323 N1325 1.384 . S
N1324 C1320 1.427 . S
N1324 C1321 1.384 . S
N1325 C1317 1.427 . S
N1325 C1323 1.384 . S
H1326 C1332 0.930 . S
H1327 C1336 0.930 . S
H1328 C1341 0.929 . S
H1329 C1339 0.929 . S
H1330 C1334 0.929 . S
H1331 C1340 0.929 . S
C1332 H1326 0.930 . S
C1332 C1333 1.367 . S
C1332 C1340 1.378 . S
C1333 C1332 1.367 . S
C1333 C1341 1.433 . S
C1334 H1330 0.929 . S
C1334 C1336 1.378 . S
C1334 C1338 1.350 . S
C1335 C1338 1.463 1_655 S
C1335 C1340 1.350 . S
C1335 N1343 1.427 1_655 S
C1336 H1327 0.930 . S
C1336 C1334 1.378 . S
C1336 C1337 1.367 . S
C1337 C1336 1.367 . S
C1337 C1339 1.433 . S
C1338 C1334 1.350 . S
C1338 C1335 1.463 1_455 S
C1338 N1342 1.427 1_455 S
C1339 H1329 0.929 . S
C1339 C1337 1.433 . S
C1339 N1342 1.384 1_455 S
C1340 H1331 0.929 . S
C1340 C1332 1.378 . S
C1340 C1335 1.350 . S
C1341 H1328 0.929 . S
C1341 C1333 1.433 . S
C1341 N1343 1.384 1_655 S
N1342 C1338 1.427 1_655 S
N1342 C1339 1.384 1_655 S
N1343 C1335 1.427 1_455 S
N1343 C1341 1.384 1_455 S
H1344 C1350 0.930 . S
H1345 C1354 0.930 . S
H1346 C1359 0.929 . S
H1347 C1357 0.929 . S
H1348 C1352 0.929 . S
H1349 C1358 0.929 . S
C1350 H1344 0.930 . S
C1350 C1351 1.367 . S
C1350 C1358 1.378 . S
C1351 C1350 1.367 . S
C1351 C1359 1.433 . S
C1352 H1348 0.929 . S
C1352 C1354 1.378 . S
C1352 C1356 1.350 . S
C1353 C1356 1.463 1_565 S
C1353 C1358 1.350 . S
C1353 N1361 1.427 . S
C1354 H1345 0.930 . S
C1354 C1352 1.378 . S
C1354 C1355 1.367 . S
C1355 C1354 1.367 . S
C1355 C1357 1.433 . S
C1356 C1352 1.350 . S
C1356 C1353 1.463 1_545 S
C1356 N1360 1.427 . S
C1357 H1347 0.929 . S
C1357 C1355 1.433 . S
C1357 N1360 1.384 . S
C1358 H1349 0.929 . S
C1358 C1350 1.378 . S
C1358 C1353 1.350 . S
C1359 H1346 0.929 . S
C1359 C1351 1.433 . S
C1359 N1361 1.384 . S
N1360 C1356 1.427 . S
N1360 C1357 1.384 . S
N1361 C1353 1.427 . S
N1361 C1359 1.384 . S
H1362 C1368 0.930 1_556 S
H1363 C1372 0.930 . S
H1364 C1377 0.929 . S
H1365 C1375 0.929 1_556 S
H1366 C1370 0.929 . S
H1367 C1376 0.929 1_556 S
C1368 H1362 0.930 1_554 S
C1368 C1369 1.367 . S
C1368 C1376 1.378 . S
C1369 C1368 1.367 . S
C1369 C1377 1.433 . S
C1370 H1366 0.929 . S
C1370 C1372 1.378 . S
C1370 C1374 1.350 . S
C1371 C1374 1.463 . S
C1371 C1376 1.350 . S
C1371 N1379 1.427 . S
C1372 H1363 0.930 . S
C1372 C1370 1.378 . S
C1372 C1373 1.367 . S
C1373 C1372 1.367 . S
C1373 C1375 1.433 . S
C1374 C1370 1.350 . S
C1374 C1371 1.463 . S
C1374 N1378 1.427 . S
C1375 H1365 0.929 1_554 S
C1375 C1373 1.433 . S
C1375 N1378 1.384 . S
C1376 H1367 0.929 1_554 S
C1376 C1368 1.378 . S
C1376 C1371 1.350 . S
C1377 H1364 0.929 . S
C1377 C1369 1.433 . S
C1377 N1379 1.384 . S
N1378 C1374 1.427 . S
N1378 C1375 1.384 . S
N1379 C1371 1.427 . S
N1379 C1377 1.384 . S
H1380 C1386 0.930 . S
H1381 C1390 0.930 . S
H1382 C1395 0.929 . S
H1383 C1393 0.929 . S
H1384 C1388 0.929 . S
H1385 C1394 0.929 . S
C1386 H1380 0.930 . S
C1386 C1387 1.367 . S
C1386 C1394 1.378 . S
C1387 C1386 1.367 . S
C1387 C1395 1.433 . S
C1388 H1384 0.929 . S
C1388 C1390 1.378 . S
C1388 C1392 1.350 . S
C1389 C1392 1.463 . S
C1389 C1394 1.350 . S
C1389 N1397 1.427 . S
C1390 H1381 0.930 . S
C1390 C1388 1.378 . S
C1390 C1391 1.367 . S
C1391 C1390 1.367 . S
C1391 C1393 1.433 . S
C1392 C1388 1.350 . S
C1392 C1389 1.463 . S
C1392 N1396 1.427 . S
C1393 H1383 0.929 . S
C1393 C1391 1.433 . S
C1393 N1396 1.384 . S
C1394 H1385 0.929 . S
C1394 C1386 1.378 . S
C1394 C1389 1.350 . S
C1395 H1382 0.929 . S
C1395 C1387 1.433 . S
C1395 N1397 1.384 . S
N1396 C1392 1.427 . S
N1396 C1393 1.384 . S
N1397 C1389 1.427 . S
N1397 C1395 1.384 . S
H1398 C1404 0.930 . S
H1399 C1408 0.930 . S
H1400 C1413 0.929 . S
H1401 C1411 0.929 . S
H1402 C1406 0.929 . S
H1403 C1412 0.929 . S
C1404 H1398 0.930 . S
C1404 C1405 1.367 . S
C1404 C1412 1.378 . S
C1405 C1404 1.367 . S
C1405 C1413 1.433 . S
C1406 H1402 0.929 . S
C1406 C1408 1.378 . S
C1406 C1410 1.350 . S
C1407 C1410 1.463 . S
C1407 C1412 1.350 . S
C1407 N1415 1.427 . S
C1408 H1399 0.930 . S
C1408 C1406 1.378 . S
C1408 C1409 1.367 . S
C1409 C1408 1.367 . S
C1409 C1411 1.433 . S
C1410 C1406 1.350 . S
C1410 C1407 1.463 . S
C1410 N1414 1.427 . S
C1411 H1401 0.929 . S
C1411 C1409 1.433 . S
C1411 N1414 1.384 . S
C1412 H1403 0.929 . S
C1412 C1404 1.378 . S
C1412 C1407 1.350 . S
C1413 H1400 0.929 . S
C1413 C1405 1.433 . S
C1413 N1415 1.384 . S
N1414 C1410 1.427 . S
N1414 C1411 1.384 . S
N1415 C1407 1.427 . S
N1415 C1413 1.384 . S
H1416 C1422 0.930 . S
H1417 C1426 0.930 . S
H1418 C1431 0.929 . S
H1419 C1429 0.929 . S
H1420 C1424 0.929 . S
H1421 C1430 0.929 . S
C1422 H1416 0.930 . S
C1422 C1423 1.367 . S
C1422 C1430 1.378 . S
C1423 C1422 1.367 . S
C1423 C1431 1.433 . S
C1424 H1420 0.929 . S
C1424 C1426 1.378 . S
C1424 C1428 1.350 . S
C1425 C1428 1.463 . S
C1425 C1430 1.350 . S
C1425 N1433 1.427 . S
C1426 H1417 0.930 . S
C1426 C1424 1.378 . S
C1426 C1427 1.367 . S
C1427 C1426 1.367 . S
C1427 C1429 1.433 . S
C1428 C1424 1.350 . S
C1428 C1425 1.463 . S
C1428 N1432 1.427 . S
C1429 H1419 0.929 . S
C1429 C1427 1.433 . S
C1429 N1432 1.384 . S
C1430 H1421 0.929 . S
C1430 C1422 1.378 . S
C1430 C1425 1.350 . S
C1431 H1418 0.929 . S
C1431 C1423 1.433 . S
C1431 N1433 1.384 . S
N1432 C1428 1.427 . S
N1432 C1429 1.384 . S
N1433 C1425 1.427 . S
N1433 C1431 1.384 . S
H1434 C1440 0.930 . S
H1435 C1444 0.930 . S
H1436 C1449 0.929 . S
H1437 C1447 0.929 . S
H1438 C1442 0.929 . S
H1439 C1448 0.929 . S
C1440 H1434 0.930 . S
C1440 C1441 1.367 . S
C1440 C1448 1.378 . S
C1441 C1440 1.367 . S
C1441 C1449 1.433 . S
C1442 H1438 0.929 . S
C1442 C1444 1.378 . S
C1442 C1446 1.350 . S
C1443 C1446 1.463 . S
C1443 C1448 1.350 . S
C1443 N1451 1.427 . S
C1444 H1435 0.930 . S
C1444 C1442 1.378 . S
C1444 C1445 1.367 . S
C1445 C1444 1.367 . S
C1445 C1447 1.433 . S
C1446 C1442 1.350 . S
C1446 C1443 1.463 . S
C1446 N1450 1.427 . S
C1447 H1437 0.929 . S
C1447 C1445 1.433 . S
C1447 N1450 1.384 . S
C1448 H1439 0.929 . S
C1448 C1440 1.378 . S
C1448 C1443 1.350 . S
C1449 H1436 0.929 . S
C1449 C1441 1.433 . S
C1449 N1451 1.384 . S
N1450 C1446 1.427 . S
N1450 C1447 1.384 . S
N1451 C1443 1.427 . S
N1451 C1449 1.384 . S
H1452 C1458 0.930 . S
H1453 C1462 0.930 . S
H1454 C1467 0.929 . S
H1455 C1465 0.929 . S
H1456 C1460 0.929 . S
H1457 C1466 0.929 . S
C1458 H1452 0.930 . S
C1458 C1459 1.367 . S
C1458 C1466 1.378 . S
C1459 C1458 1.367 . S
C1459 C1467 1.433 . S
C1460 H1456 0.929 . S
C1460 C1462 1.378 . S
C1460 C1464 1.350 . S
C1461 C1464 1.463 . S
C1461 C1466 1.350 . S
C1461 N1469 1.427 . S
C1462 H1453 0.930 . S
C1462 C1460 1.378 . S
C1462 C1463 1.367 . S
C1463 C1462 1.367 . S
C1463 C1465 1.433 . S
C1464 C1460 1.350 . S
C1464 C1461 1.463 . S
C1464 N1468 1.427 . S
C1465 H1455 0.929 . S
C1465 C1463 1.433 . S
C1465 N1468 1.384 . S
C1466 H1457 0.929 . S
C1466 C1458 1.378 . S
C1466 C1461 1.350 . S
C1467 H1454 0.929 . S
C1467 C1459 1.433 . S
C1467 N1469 1.384 . S
N1468 C1464 1.427 . S
N1468 C1465 1.384 . S
N1469 C1461 1.427 . S
N1469 C1467 1.384 . S
H1470 C1476 0.930 . S
H1471 C1480 0.930 . S
H1472 C1485 0.929 . S
H1473 C1483 0.929 . S
H1474 C1478 0.929 . S
H1475 C1484 0.929 . S
C1476 H1470 0.930 . S
C1476 C1477 1.367 . S
C1476 C1484 1.378 . S
C1477 C1476 1.367 . S
C1477 C1485 1.433 . S
C1478 H1474 0.929 . S
C1478 C1480 1.378 . S
C1478 C1482 1.350 . S
C1479 C1482 1.463 . S
C1479 C1484 1.350 . S
C1479 N1487 1.427 . S
C1480 H1471 0.930 . S
C1480 C1478 1.378 . S
C1480 C1481 1.367 . S
C1481 C1480 1.367 . S
C1481 C1483 1.433 . S
C1482 C1478 1.350 . S
C1482 C1479 1.463 . S
C1482 N1486 1.427 . S
C1483 H1473 0.929 . S
C1483 C1481 1.433 . S
C1483 N1486 1.384 . S
C1484 H1475 0.929 . S
C1484 C1476 1.378 . S
C1484 C1479 1.350 . S
C1485 H1472 0.929 . S
C1485 C1477 1.433 . S
C1485 N1487 1.384 . S
N1486 C1482 1.427 . S
N1486 C1483 1.384 . S
N1487 C1479 1.427 . S
N1487 C1485 1.384 . S
C1063 C49 0.397 . S
C1067 C937 0.436 . S
C1081 C1017 0.437 . S
C1085 C117 0.398 . S
C1099 C585 0.405 . S
C1103 C196 0.404 . S
C1117 C284 0.447 . S
C1121 C645 0.421 . S
C1135 C401 0.442 . S
C1139 C724 0.435 . S
C1153 C821 0.439 . S
C1157 C489 0.399 . S
C1171 C20 0.698 . S
C1175 C673 0.721 . S
C1189 C753 0.718 . S
C1193 C145 0.698 . S
C1207 C849 0.742 . S
C1211 C225 0.708 . S
C1225 C313 0.744 . S
C1229 C909 0.728 . S
C1243 C988 0.712 . S
C1247 C372 0.701 . S
C1261 C460 0.704 . S
C1265 C557 0.739 . S
C1279 C293 1.024 . S
C1283 C57 1.054 . S
C1297 C409 1.051 . S
C1301 C108 1.029 . S
C1315 C497 1.054 . S
C1319 C205 1.029 . S
C1333 C577 1.025 . S
C1337 C812 1.045 . S
C1351 C636 1.024 . S
C1355 C929 1.054 . S
C1369 C733 1.054 . S
C1373 C1025 1.026 . S
C1387 C761 1.781 . S
C1391 C29 1.782 . S
C1405 C841 1.796 . S
C1409 C137 1.795 . S
C1423 C900 1.782 . S
C1427 C233 1.781 . S
C1441 C997 1.780 . S
C1445 C321 1.780 . S
C1459 C548 1.780 . S
C1463 C381 1.781 . S
C1477 C469 1.798 . S
C1481 C665 1.799 . S
