# Generated by pormake.
# Topology qtz-e, (6)-cn, num edge types: 1
# Building blocks:
#     Node 0, Type 0, BuildingBlock: PAMTUU_clean_sbu_0, # of connection points: 6
#     Node 1, Type 0, BuildingBlock: PAMTUU_clean_sbu_0, # of connection points: 6
#     Node 2, Type 0, BuildingBlock: PAMTUU_clean_sbu_0, # of connection points: 6
#     Node 3, Type 0, BuildingBlock: PAMTUU_clean_sbu_0, # of connection points: 6
#     Node 4, Type 0, BuildingBlock: PAMTUU_clean_sbu_0, # of connection points: 6
#     Node 5, Type 0, BuildingBlock: PAMTUU_clean_sbu_0, # of connection points: 6
#     Edge 6, Type (0, 0), BuildingBlock: AJUNOK_clean_linker_0, # of connection points: 2
#     Edge 7, Type (0, 0), BuildingBlock: AJUNOK_clean_linker_0, # of connection points: 2
#     Edge 8, Type (0, 0), BuildingBlock: AJUNOK_clean_linker_0, # of connection points: 2
#     Edge 9, Type (0, 0), BuildingBlock: AJUNOK_clean_linker_0, # of connection points: 2
#     Edge 10, Type (0, 0), BuildingBlock: AJUNOK_clean_linker_0, # of connection points: 2
#     Edge 11, Type (0, 0), BuildingBlock: AJUNOK_clean_linker_0, # of connection points: 2
#     Edge 12, Type (0, 0), BuildingBlock: AJUNOK_clean_linker_0, # of connection points: 2
#     Edge 13, Type (0, 0), BuildingBlock: AJUNOK_clean_linker_0, # of connection points: 2
#     Edge 14, Type (0, 0), BuildingBlock: AJUNOK_clean_linker_0, # of connection points: 2
#     Edge 15, Type (0, 0), BuildingBlock: AJUNOK_clean_linker_0, # of connection points: 2
#     Edge 16, Type (0, 0), BuildingBlock: AJUNOK_clean_linker_0, # of connection points: 2
#     Edge 17, Type (0, 0), BuildingBlock: AJUNOK_clean_linker_0, # of connection points: 2
#     Edge 18, Type (0, 0), BuildingBlock: AJUNOK_clean_linker_0, # of connection points: 2
#     Edge 19, Type (0, 0), BuildingBlock: AJUNOK_clean_linker_0, # of connection points: 2
#     Edge 20, Type (0, 0), BuildingBlock: AJUNOK_clean_linker_0, # of connection points: 2
#     Edge 21, Type (0, 0), BuildingBlock: AJUNOK_clean_linker_0, # of connection points: 2
#     Edge 22, Type (0, 0), BuildingBlock: AJUNOK_clean_linker_0, # of connection points: 2
#     Edge 23, Type (0, 0), BuildingBlock: AJUNOK_clean_linker_0, # of connection points: 2
# Relax obj value: 0.250
# Max RMSD: 0.232
# Mean RMSD: 0.232
data_MOF--net-qtz-e--node1-PAMTUU_clean_sbu_0--edge1-AJUNOK_clean_linker_0
_symmetry_space_group_name_H-M    P1
_symmetry_Int_Tables_number       1
_symmetry_cell_setting            triclinic
loop_
_symmetry_equiv_pos_as_xyz
'x, y, z'
_cell_length_a     20.471972
_cell_length_b     20.312339
_cell_length_c     39.625409
_cell_angle_alpha  90.289373
_cell_angle_beta   89.970338
_cell_angle_gamma 120.04569
loop_
_atom_site_label
_atom_site_type_symbol
_atom_site_fract_x
_atom_site_fract_y
_atom_site_fract_z
_atom_type_partial_charge
Tb0 Tb 0.26122 0.32913 0.15264 0.0
Tb1 Tb 0.3236 0.50442 0.12506 0.0
C2 C 0.43401 0.45019 0.15324 0.0
C3 C 0.15402 0.17601 0.21269 0.0
C4 C 0.07754 0.14232 0.27582 0.0
C5 C 0.15189 0.15586 0.27359 0.0
C6 C 0.18953 0.17236 0.24248 0.0
C7 C 0.07892 0.16063 0.21484 0.0
C8 C 0.04122 0.14387 0.24595 0.0
C9 C 0.19676 0.20028 0.18019 0.0
O10 O 0.30157 0.40331 0.19655 0.0
O11 O 0.29835 0.50889 0.1777 0.0
O12 O 0.20317 0.43631 0.11695 0.0
O13 O 0.17898 0.36413 0.16311 0.0
O14 O 0.4103 0.61657 0.11742 0.0
O15 O 0.2953 0.582 0.10454 0.0
O16 O 0.34403 0.44704 0.08369 0.0
O17 O 0.26412 0.32078 0.09698 0.0
O18 O 0.38329 0.3775 0.14938 0.0
O19 O 0.41794 0.50479 0.14977 0.0
C20 C 0.30412 0.46841 0.20196 0.0
O21 O 0.1666 0.21897 0.15567 0.0
O22 O 0.26912 0.24794 0.18254 0.0
C23 C 0.15966 0.40153 0.14259 0.0
C24 C 0.38924 0.66995 0.06921 0.0
C25 C 0.42807 0.73156 1.00451 0.0
C26 C 0.38325 0.74903 1.02523 0.0
C27 C 0.36413 0.71849 0.05755 0.0
C28 C 0.43364 0.65203 0.04831 0.0
C29 C 0.45347 0.68326 1.01621 0.0
C30 C 0.36551 0.63537 0.10244 0.0
C31 C 0.30852 0.37444 0.07547 0.0
H32 H 0.18099 0.1534 0.29594 0.0
H33 H 0.24705 0.18336 0.24184 0.0
H34 H 0.04944 0.1628 0.19256 0.0
H35 H 0.98398 0.13364 0.24674 0.0
H36 H 0.36362 0.7866 1.01649 0.0
H37 H 0.32925 0.73216 0.07334 0.0
H38 H 0.45254 0.61359 0.05667 0.0
H39 H 0.48777 0.66899 1.00032 0.0
Tb40 Tb 0.70444 0.05088 0.52607 0.0
Tb41 Tb 0.59314 0.1077 0.55897 0.0
C42 C 0.52978 0.95638 0.52235 0.0
C43 C 0.83502 0.03156 0.46689 0.0
C44 C 0.91689 0.07126 0.40532 0.0
C45 C 0.8829 0.99647 0.4177 0.0
C46 C 0.84268 0.97697 0.44816 0.0
C47 C 0.86847 0.10632 0.45455 0.0
C48 C 0.90916 0.12598 0.42416 0.0
C49 C 0.78888 0.00861 0.49815 0.0
O50 O 0.69519 0.12305 0.48872 0.0
O51 O 0.58107 0.10995 0.50457 0.0
O52 O 0.69591 0.21467 0.55228 0.0
O53 O 0.77754 0.17353 0.53473 0.0
O54 O 0.50826 0.08187 0.5946 0.0
O55 O 0.53953 0.17264 0.55878 0.0
O56 O 0.6653 0.10824 0.59926 0.0
O57 O 0.67635 0.00937 0.57853 0.0
O58 O 0.59146 0.97799 0.50491 0.0
O59 O 0.53529 0.98583 0.55221 0.0
C60 C 0.63603 0.13027 0.48272 0.0
O61 O 0.81065 0.05825 0.52271 0.0
O62 O 0.71617 0.97493 0.4937 0.0
C63 C 0.76247 0.22825 0.54209 0.0
C64 C 0.50729 0.18962 0.61328 0.0
C65 C 0.5181 0.26746 0.67308 0.0
C66 C 0.58381 0.2785 0.65695 0.0
C67 C 0.57839 0.23943 0.62719 0.0
C68 C 0.44198 0.18198 0.62818 0.0
C69 C 0.44735 0.22095 0.65798 0.0
C70 C 0.50067 0.13934 0.58569 0.0
C71 C 0.67509 0.05002 0.60443 0.0
H72 H 0.88778 0.95301 0.40385 0.0
H73 H 0.81689 0.91886 0.45696 0.0
H74 H 0.86241 0.14933 0.46818 0.0
H75 H 0.9333 0.1837 0.41505 0.0
H76 H 0.63883 0.31458 0.66817 0.0
H77 H 0.62926 0.24534 0.61585 0.0
H78 H 0.38684 0.14318 0.61769 0.0
H79 H 0.39598 0.21119 0.67029 0.0
Tb80 Tb 0.6619 0.93979 0.8231 0.0
Tb81 Tb 0.4869 0.83315 0.79165 0.0
C82 C 0.54739 1.00043 0.82098 0.0
C83 C 0.81087 0.97204 0.88356 0.0
C84 C 0.84642 0.92759 0.94588 0.0
C85 C 0.87895 0.00499 0.93726 0.0
C86 C 0.8612 0.02688 0.90654 0.0
C87 C 0.77905 0.89469 0.89193 0.0
C88 C 0.79676 0.87278 0.92259 0.0
C89 C 0.78875 0.99566 0.85197 0.0
O90 O 0.58767 0.90694 0.86628 0.0
O91 O 0.47707 0.80718 0.84494 0.0
O92 O 0.55016 0.77581 0.78429 0.0
O93 O 0.61819 0.81917 0.83182 0.0
O94 O 0.3883 0.82266 0.77096 0.0
O95 O 0.39569 0.72305 0.78345 0.0
O96 O 0.55142 0.89561 0.74791 0.0
O97 O 0.67492 0.95954 0.76808 0.0
O98 O 0.61913 0.019 0.82042 0.0
O99 O 0.49146 0.9312 0.81538 0.0
C100 C 0.51971 0.84818 0.8702 0.0
O101 O 0.76862 0.94861 0.82634 0.0
O102 O 0.74323 0.02266 0.85572 0.0
C103 C 0.57824 0.76267 0.81119 0.0
C104 C 0.32385 0.71682 0.73639 0.0
C105 C 0.26184 0.67948 0.67169 0.0
C106 C 0.34031 0.71532 0.67601 0.0
C107 C 0.37128 0.73408 0.70831 0.0
C108 C 0.24549 0.67635 0.73231 0.0
C109 C 0.21449 0.65738 0.70003 0.0
C110 C 0.35553 0.74875 0.76927 0.0
C111 C 0.62447 0.93987 0.74349 0.0
H112 H 0.9186 0.0488 0.95419 0.0
H113 H 0.88647 0.08683 0.90084 0.0
H114 H 0.73983 0.85097 0.87488 0.0
H115 H 0.77047 0.81276 0.92834 0.0
H116 H 0.37765 0.73291 0.6544 0.0
H117 H 0.43209 0.76554 0.71128 0.0
H118 H 0.20849 0.66273 0.7539 0.0
H119 H 0.15372 0.62874 0.69708 0.0
Tb120 Tb 0.90763 0.62438 0.19503 0.0
Tb121 Tb 0.79638 0.44945 0.22521 0.0
C122 C 0.95937 0.50233 0.19597 0.0
C123 C 0.9522 0.78066 0.13509 0.0
C124 C 0.91714 0.83018 0.07393 0.0
C125 C 0.98151 0.8223 0.0764 0.0
C126 C 0.99894 0.79822 0.10657 0.0
C127 C 0.88762 0.78831 0.13258 0.0
C128 C 0.87028 0.81247 0.10244 0.0
C129 C 0.97024 0.75297 0.16678 0.0
O130 O 0.87379 0.54884 0.15168 0.0
O131 O 0.77043 0.43958 0.17185 0.0
O132 O 0.74347 0.51741 0.23304 0.0
O133 O 0.78954 0.58621 0.18571 0.0
O134 O 0.78166 0.3495 0.24732 0.0
O135 O 0.68577 0.36119 0.23416 0.0
O136 O 0.86982 0.51206 0.26697 0.0
O137 O 0.9233 0.63762 0.25038 0.0
O138 O 0.98098 0.57526 0.19919 0.0
O139 O 0.88906 0.44775 0.19981 0.0
C140 C 0.81425 0.48121 0.1472 0.0
O141 O 0.9228 0.7346 0.19184 0.0
O142 O 0.9932 0.70387 0.1632 0.0
C143 C 0.73393 0.55059 0.20689 0.0
C144 C 0.67874 0.29557 0.28359 0.0
C145 C 0.6399 0.24754 0.35036 0.0
C146 C 0.68006 0.32545 0.34288 0.0
C147 C 0.69925 0.34937 0.30964 0.0
C148 C 0.63522 0.21793 0.29069 0.0
C149 C 0.61569 0.19391 0.32397 0.0
C150 C 0.70887 0.32027 0.24974 0.0
C151 C 0.91054 0.58534 0.27334 0.0
H152 H 0.01899 0.83555 0.05503 0.0
H153 H 0.04906 0.79304 0.10755 0.0
H154 H 0.84989 0.7751 0.15384 0.0
H155 H 0.81936 0.81617 0.10134 0.0
H156 H 0.69955 0.36762 0.36292 0.0
H157 H 0.73302 0.40964 0.30442 0.0
H158 H 0.61941 0.17592 0.27074 0.0
H159 H 0.58593 0.13354 0.32928 0.0
Tb160 Tb 0.05446 0.7064 0.48661 0.0
Tb161 Tb 0.14527 0.61865 0.4604 0.0
C162 C 0.98701 0.53027 0.49466 0.0
C163 C 0.02607 0.83224 0.54436 0.0
C164 C 0.07035 0.91751 0.6057 0.0
C165 C 0.99359 0.86809 0.59807 0.0
C166 C 0.97178 0.8262 0.56775 0.0
C167 C 0.10279 0.88126 0.55202 0.0
C168 C 0.12464 0.92347 0.5822 0.0
C169 C 0.00257 0.78403 0.51326 0.0
O170 O 0.09226 0.67649 0.53193 0.0
O171 O 0.18393 0.65254 0.51178 0.0
O172 O 0.20882 0.73547 0.44443 0.0
O173 O 0.17633 0.78186 0.48931 0.0
O174 O 0.14133 0.52184 0.43935 0.0
O175 O 0.24711 0.61886 0.45517 0.0
O176 O 0.07037 0.60774 0.41907 0.0
O177 O 0.03784 0.69888 0.43156 0.0
O178 O 0.97181 0.58393 0.48587 0.0
O179 O 0.05557 0.54116 0.49288 0.0
C180 C 0.14979 0.66602 0.53663 0.0
O181 O 0.04981 0.80762 0.48798 0.0
O182 O 0.97362 0.71119 0.51796 0.0
C183 C 0.22688 0.78874 0.46709 0.0
C184 C 0.24738 0.55247 0.40675 0.0
C185 C 0.29252 0.54179 0.34127 0.0
C186 C 0.29707 0.60967 0.3524 0.0
C187 C 0.27429 0.61489 0.38494 0.0
C188 C 0.24533 0.4857 0.39616 0.0
C189 C 0.26752 0.48025 0.36354 0.0
C190 C 0.21467 0.55379 0.43925 0.0
C191 C 0.04074 0.64981 0.41044 0.0
H192 H 0.95025 0.86201 0.61556 0.0
H193 H 0.91232 0.78834 0.56274 0.0
H194 H 0.14611 0.88601 0.53493 0.0
H195 H 0.18426 0.95924 0.58752 0.0
H196 H 0.31601 0.65772 0.3356 0.0
H197 H 0.2754 0.66671 0.39266 0.0
H198 H 0.22374 0.43685 0.41265 0.0
H199 H 0.26171 0.42671 0.35523 0.0
Tb200 Tb 0.34131 0.27821 0.85925 0.0
Tb201 Tb 0.51792 0.35529 0.88811 0.0
C202 C 0.45214 0.45457 0.85947 0.0
C203 C 0.19066 0.16067 0.79855 0.0
C204 C 0.1537 0.08256 0.73531 0.0
C205 C 0.15076 0.14988 0.73962 0.0
C206 C 0.16882 0.18825 0.77081 0.0
C207 C 0.19276 0.09276 0.79433 0.0
C208 C 0.1742 0.05413 0.76319 0.0
C209 C 0.21385 0.20453 0.83103 0.0
O210 O 0.41285 0.32033 0.81508 0.0
O211 O 0.52578 0.33599 0.83497 0.0
O212 O 0.46053 0.23434 0.89672 0.0
O213 O 0.38748 0.2039 0.85031 0.0
O214 O 0.61235 0.44547 0.91146 0.0
O215 O 0.61519 0.34656 0.89297 0.0
O216 O 0.45325 0.35849 0.93085 0.0
O217 O 0.3292 0.27871 0.91461 0.0
O218 O 0.3815 0.40002 0.86367 0.0
O219 O 0.50984 0.44369 0.86201 0.0
C220 C 0.48083 0.33074 0.81026 0.0
O221 O 0.23618 0.17736 0.85545 0.0
O222 O 0.25711 0.27811 0.82859 0.0
C223 C 0.42902 0.1897 0.87073 0.0
C224 C 0.6824 0.40534 0.94247 0.0
C225 C 0.73478 0.40764 1.00793 0.0
C226 C 0.67021 0.34252 0.99581 0.0
C227 C 0.6439 0.34148 0.96327 0.0
C228 C 0.74846 0.46905 0.95397 0.0
C229 C 0.77436 0.47043 0.98657 0.0
C230 C 0.65021 0.4096 0.91032 0.0
C231 C 0.38054 0.32046 0.93759 0.0
H232 H 0.13383 0.17263 0.71889 0.0
H233 H 0.16628 0.24009 0.77315 0.0
H234 H 0.20951 0.06963 0.81497 0.0
H235 H 0.17713 1.00253 0.76075 0.0
H236 H 0.63866 0.29365 1.01191 0.0
H237 H 0.59214 0.29204 0.95484 0.0
H238 H 0.77803 0.51906 0.93828 0.0
H239 H 0.82297 0.5222 0.99561 0.0
C240 C 0.26908 0.55098 0.28041 0.0
C241 C 0.30525 0.53184 0.30548 0.0
C242 C 0.27145 0.53284 0.24658 0.0
C243 C 0.30942 0.49433 0.23688 0.0
H244 H 0.23586 0.57709 0.28714 0.0
H245 H 0.24051 0.54593 0.22819 0.0
S246 S 0.42159 0.44104 0.29206 0.0
N247 N 0.38681 0.47986 0.31787 0.0
N248 N 0.39003 0.44421 0.25411 0.0
C249 C 0.34876 0.47807 0.26138 0.0
C250 C 0.34699 0.49721 0.29578 0.0
C251 C 0.47344 0.34978 0.74896 0.0
C252 C 0.50316 0.3271 0.77549 0.0
C253 C 0.48259 0.33454 0.71544 0.0
C254 C 0.52158 0.29602 0.70754 0.0
H255 H 0.44047 0.37697 0.75419 0.0
H256 H 0.45645 0.35013 0.69567 0.0
S257 S 0.6106 0.2252 0.7678 0.0
N258 N 0.57483 0.2661 0.7917 0.0
N259 N 0.59107 0.23644 0.72856 0.0
C260 C 0.55431 0.27586 0.73372 0.0
C261 C 0.54539 0.29173 0.76782 0.0
C262 C 0.52593 0.80916 0.96257 0.0
C263 C 0.44933 0.76413 0.97067 0.0
C264 C 0.548 0.83837 0.93016 0.0
C265 C 0.49406 0.82237 0.90472 0.0
H266 H 0.56901 0.82136 0.98138 0.0
H267 H 0.60783 0.87159 0.92479 0.0
S268 S 0.28608 0.70733 0.91375 0.0
N269 N 0.31936 0.70533 0.95146 0.0
N270 N 0.36066 0.75967 0.89003 0.0
C271 C 0.4171 0.77787 0.91268 0.0
C272 C 0.39472 0.74892 0.94587 0.0
C273 C 0.70059 0.22023 0.43622 0.0
C274 C 0.63298 0.16339 0.45042 0.0
C275 C 0.70129 0.24957 0.40441 0.0
C276 C 0.63449 0.22237 0.38555 0.0
H277 H 0.75365 0.24159 0.44962 0.0
H278 H 0.75499 0.29169 0.39394 0.0
S279 S 0.44226 0.0765 0.41224 0.0
N280 N 0.49709 0.08322 0.44421 0.0
N281 N 0.49856 0.13792 0.38374 0.0
C282 C 0.56612 0.16703 0.39981 0.0
C283 C 0.56525 0.13778 0.43253 0.0
C284 C 0.24818 0.63876 0.61148 0.0
C285 C 0.23027 0.67342 0.63779 0.0
C286 C 0.22168 0.6364 0.57874 0.0
C287 C 0.1767 0.66893 0.57133 0.0
H288 H 0.28287 0.61337 0.61628 0.0
H289 H 0.23637 0.60866 0.55918 0.0
S290 S 0.11969 0.77198 0.63139 0.0
N291 N 0.16887 0.74452 0.65436 0.0
N292 N 0.11856 0.7401 0.59289 0.0
C293 C 0.1592 0.70455 0.59751 0.0
C294 C 0.18615 0.70681 0.63076 0.0
C295 C 0.71857 0.41574 0.10241 0.0
C296 C 0.79436 0.4527 0.11264 0.0
C297 C 0.6993 0.39732 0.06848 0.0
C298 C 0.75526 0.41455 0.04394 0.0
H299 H 0.67435 0.4048 0.12037 0.0
H300 H 0.64068 0.37326 0.06122 0.0
S301 S 0.96048 0.49869 0.05937 0.0
N302 N 0.9247 0.49792 0.09682 0.0
N303 N 0.88827 0.4614 1.03293 0.0
C304 C 0.83071 0.4465 0.05438 0.0
C305 C 0.85036 0.46611 0.08883 0.0
C306 C 0.52203 0.43292 0.19131 0.0
C307 C 0.51085 0.47341 0.16543 0.0
C308 C 0.59363 0.46027 0.20604 0.0
C309 C 0.6567 0.52842 0.19505 0.0
H310 H 0.47488 0.38089 0.2008 0.0
H311 H 0.59966 0.42679 0.22567 0.0
S312 S 0.65635 0.65552 0.12805 0.0
N313 N 0.56815 0.58516 0.12966 0.0
N314 N 0.70223 0.636 0.15689 0.0
C315 C 0.64574 0.56939 0.16925 0.0
C316 C 0.57302 0.54191 0.15455 0.0
C317 C 0.94568 0.39686 0.51196 0.0
C318 C 0.92795 0.45526 0.50792 0.0
C319 C 0.89308 0.32527 0.52443 0.0
C320 C 0.82008 0.3082 0.53366 0.0
H321 H 0.00062 0.40576 0.50499 0.0
H322 H 0.90976 0.28244 0.52615 0.0
S323 S 0.74524 0.44158 0.5293 0.0
N324 N 0.83249 0.49169 0.51516 0.0
N325 N 0.73308 0.35704 0.53864 0.0
C326 C 0.80173 0.36654 0.53052 0.0
C327 C 0.85566 0.43977 0.51757 0.0
C328 C 0.52088 0.14129 0.87399 0.0
C329 C 0.45864 0.1404 0.85816 0.0
C330 C 0.55344 0.09997 0.86064 0.0
C331 C 0.52478 0.05626 0.83107 0.0
H332 H 0.54481 0.17415 0.89684 0.0
H333 H 0.59929 0.09987 0.87424 0.0
S334 S 0.36657 0.03792 0.77854 0.0
N335 N 0.37219 0.09365 0.81017 0.0
N336 N 0.43366 0.01713 0.78543 0.0
C337 C 0.46405 0.05623 0.8146 0.0
C338 C 0.43087 0.09785 0.82806 0.0
C339 C 0.49478 0.62106 0.8038 0.0
C340 C 0.54381 0.68356 0.82428 0.0
C341 C 0.45919 0.54628 0.81623 0.0
C342 C 0.47082 0.53161 0.84962 0.0
H343 H 0.48472 0.62972 0.7778 0.0
H344 H 0.42534 0.49949 0.79918 0.0
S345 S 0.58836 0.67331 0.91458 0.0
N346 N 0.59792 0.7242 0.88068 0.0
N347 N 0.53145 0.58401 0.90332 0.0
C348 C 0.51744 0.59303 0.87063 0.0
C349 C 0.55381 0.6689 0.85817 0.0
C350 C 0.10925 0.49187 0.14355 0.0
C351 C 0.10469 0.42382 0.15469 0.0
C352 C 0.06464 0.51916 0.1581 0.0
C353 C 0.01312 0.47886 0.18394 0.0
H354 H 0.14854 0.52524 0.12391 0.0
H355 H 0.06917 0.57112 0.14844 0.0
S356 S 0.97858 0.29767 0.22205 0.0
N357 N 0.04387 0.31691 0.19322 0.0
N358 N 0.95983 0.3677 0.2201 0.0
C359 C 0.00749 0.4106 0.19511 0.0
C360 C 0.05321 0.38321 0.18057 0.0
C361 C 0.36312 0.82167 0.46684 0.0
C362 C 0.30762 0.84063 0.47559 0.0
C363 C 0.43577 0.86024 0.48137 0.0
C364 C 0.45492 0.91823 0.50542 0.0
H365 H 0.34944 0.77441 0.44997 0.0
H366 H 0.47606 0.84255 0.47476 0.0
S367 S 0.33524 0.99943 0.53157 0.0
N368 N 0.28122 0.92898 0.50574 0.0
N369 N 0.41601 0.99999 0.53336 0.0
C370 C 0.40163 0.94105 0.51244 0.0
C371 C 0.32856 0.9027 0.49739 0.0
C372 C 0.40854 0.39384 0.99184 0.0
C373 C 0.35788 0.32966 0.97267 0.0
C374 C 0.39163 0.40636 1.02472 0.0
C375 C 0.32345 0.35508 0.04072 0.0
H376 H 0.46205 0.43601 0.98127 0.0
H377 H 0.43323 0.45726 1.03777 0.0
S378 S 0.1707 0.17707 1.00231 0.0
N379 N 0.23566 0.21342 0.97249 0.0
N380 N 0.20442 0.23654 1.0347 0.0
C381 C 0.27214 0.28991 1.0222 0.0
C382 C 0.28907 0.27755 0.98816 0.0
C383 C 0.92587 0.04593 0.34359 0.0
C384 C 0.95886 0.09125 0.37253 0.0
C385 C 0.96415 0.06322 0.3125 0.0
C386 C 0.0376 0.12598 0.30909 0.0
H387 H 0.86958 0.99692 0.34489 0.0
H388 H 0.93635 0.02642 0.29105 0.0
S389 S 0.14936 0.2628 0.37711 0.0
N390 N 0.0696 0.20171 0.39567 0.0
N391 N 0.14124 0.2344 0.33743 0.0
C392 C 0.07121 0.17183 0.33783 0.0
C393 C 0.03196 0.15456 0.36941 0.0
C394 C 0.62821 0.91966 0.68097 0.0
C395 C 0.64929 0.97005 0.7087 0.0
C396 C 0.64107 0.94624 0.64741 0.0
C397 C 0.67322 0.02424 0.64007 0.0
H398 H 0.59985 0.85891 0.68526 0.0
H399 H 0.62202 0.90485 0.62706 0.0
S400 S 0.73832 0.17971 0.70374 0.0
N401 N 0.70561 0.10169 0.72658 0.0
N402 N 0.72733 0.15166 0.6639 0.0
C403 C 0.69567 0.07528 0.6677 0.0
C404 C 0.6843 0.04821 0.70184 0.0
C405 C 0.88346 0.84617 0.97986 0.0
C406 C 0.86418 0.90377 0.97889 0.0
C407 C 0.90085 0.82321 1.01047 0.0
C408 C 0.89879 0.85605 0.04162 0.0
H409 H 0.88602 0.81909 0.95667 0.0
H410 H 0.91521 0.77864 1.00976 0.0
S411 S 0.8503 0.00812 0.05323 0.0
N412 N 0.84271 0.99201 1.01214 0.0
N413 N 0.87605 0.94972 0.06933 0.0
C414 C 0.87913 0.91336 0.04102 0.0
C415 C 0.86187 0.93704 1.00984 0.0
C416 C 0.98653 0.56848 0.35877 0.0
C417 C 0.00721 0.63745 0.37563 0.0
C418 C 0.95608 0.55348 0.32609 0.0
C419 C 0.94524 0.60686 0.30797 0.0
H420 H 0.99324 0.52467 0.37103 0.0
H421 H 0.94141 0.49905 0.31484 0.0
S422 S 0.99065 0.79735 0.33995 0.0
N423 N 0.01465 0.76049 0.37139 0.0
N424 N 0.9583 0.73257 0.30955 0.0
C425 C 0.96618 0.67667 0.32421 0.0
C426 C 0.99656 0.69171 0.35804 0.0
C427 C 0.08199 0.96306 0.70022 0.0
C428 C 0.13452 0.04157 0.70201 0.0
C429 C 0.06152 0.92375 0.66914 0.0
C430 C 0.09341 0.96091 0.63846 0.0
H431 H 0.05552 0.93188 0.72303 0.0
H432 H 0.02077 0.86344 0.66919 0.0
S433 S 0.23602 0.16559 0.62934 0.0
N434 N 0.21979 0.15451 0.67033 0.0
N435 N 0.18127 0.08114 0.61212 0.0
C436 C 0.14692 0.03921 0.63997 0.0
C437 C 0.16731 0.07933 0.67159 0.0
loop_
_geom_bond_atom_site_label_1
_geom_bond_atom_site_label_2
_geom_bond_distance
_geom_bond_site_symmetry_2
_ccdc_geom_bond_type
Tb0 C9 2.764 . S
Tb0 O10 2.325 . S
Tb0 O13 2.303 . S
Tb0 O17 2.322 . S
Tb0 O18 2.349 . S
Tb0 O21 2.415 . S
Tb0 O22 2.399 . S
Tb1 O11 2.322 . S
Tb1 O12 2.349 . S
Tb1 O14 2.415 . S
Tb1 O15 2.399 . S
Tb1 O16 2.325 . S
Tb1 O19 2.303 . S
Tb1 C30 2.764 . S
C2 O18 1.261 . S
C2 O19 1.257 . S
C3 C6 1.358 . S
C3 C7 1.332 . S
C3 C9 1.504 . S
C4 C5 1.373 . S
C4 C8 1.308 . S
C5 C4 1.373 . S
C5 C6 1.429 . S
C5 H32 0.932 . S
C6 C3 1.358 . S
C6 C5 1.429 . S
C6 H33 0.930 . S
C7 C3 1.332 . S
C7 C8 1.394 . S
C7 H34 0.932 . S
C8 C4 1.308 . S
C8 C7 1.394 . S
C8 H35 0.929 . S
C9 Tb0 2.764 . S
C9 C3 1.504 . S
C9 O21 1.239 . S
C9 O22 1.263 . S
O10 Tb0 2.325 . S
O10 C20 1.236 . S
O11 Tb1 2.322 . S
O11 C20 1.257 . S
O12 Tb1 2.349 . S
O12 C23 1.261 . S
O13 Tb0 2.303 . S
O13 C23 1.257 . S
O14 Tb1 2.415 . S
O14 C30 1.239 . S
O15 Tb1 2.399 . S
O15 C30 1.263 . S
O16 Tb1 2.325 . S
O16 C31 1.236 . S
O17 Tb0 2.322 . S
O17 C31 1.257 . S
O18 Tb0 2.349 . S
O18 C2 1.261 . S
O19 Tb1 2.303 . S
O19 C2 1.257 . S
C20 O10 1.236 . S
C20 O11 1.257 . S
O21 Tb0 2.415 . S
O21 C9 1.239 . S
O22 Tb0 2.399 . S
O22 C9 1.263 . S
C23 O12 1.261 . S
C23 O13 1.257 . S
C24 C27 1.358 . S
C24 C28 1.332 . S
C24 C30 1.504 1_556 S
C25 C26 1.373 . S
C25 C29 1.308 . S
C26 C25 1.373 . S
C26 C27 1.429 . S
C26 H36 0.932 . S
C27 C24 1.358 . S
C27 C26 1.429 . S
C27 H37 0.930 . S
C28 C24 1.332 . S
C28 C29 1.394 . S
C28 H38 0.932 . S
C29 C25 1.308 . S
C29 C28 1.394 . S
C29 H39 0.929 . S
C30 Tb1 2.764 . S
C30 O14 1.239 . S
C30 O15 1.263 . S
C30 C24 1.504 1_554 S
C31 O16 1.236 . S
C31 O17 1.257 . S
H32 C5 0.932 . S
H33 C6 0.930 . S
H34 C7 0.932 . S
H35 C8 0.929 . S
H36 C26 0.932 . S
H37 C27 0.930 . S
H38 C28 0.932 . S
H39 C29 0.929 . S
Tb40 C49 2.764 . S
Tb40 O50 2.325 . S
Tb40 O53 2.303 . S
Tb40 O57 2.322 1_545 S
Tb40 O58 2.349 1_545 S
Tb40 O61 2.415 . S
Tb40 O62 2.399 1_545 S
Tb41 O51 2.322 . S
Tb41 O52 2.349 . S
Tb41 O54 2.415 . S
Tb41 O55 2.399 . S
Tb41 O56 2.325 . S
Tb41 O59 2.303 . S
Tb41 C70 2.764 . S
C42 O58 1.261 . S
C42 O59 1.257 1_565 S
C43 C46 1.358 1_545 S
C43 C47 1.332 . S
C43 C49 1.504 . S
C44 C45 1.373 1_545 S
C44 C48 1.308 . S
C45 C44 1.373 1_565 S
C45 C46 1.429 . S
C45 H72 0.932 . S
C46 C43 1.358 1_565 S
C46 C45 1.429 . S
C46 H73 0.930 . S
C47 C43 1.332 . S
C47 C48 1.394 . S
C47 H74 0.932 . S
C48 C44 1.308 . S
C48 C47 1.394 . S
C48 H75 0.929 . S
C49 Tb40 2.764 . S
C49 C43 1.504 . S
C49 O61 1.239 . S
C49 O62 1.263 1_545 S
O50 Tb40 2.325 . S
O50 C60 1.236 . S
O51 Tb41 2.322 . S
O51 C60 1.257 . S
O52 Tb41 2.349 . S
O52 C63 1.261 . S
O53 Tb40 2.303 . S
O53 C63 1.257 . S
O54 Tb41 2.415 . S
O54 C70 1.239 . S
O55 Tb41 2.399 . S
O55 C70 1.263 . S
O56 Tb41 2.325 . S
O56 C71 1.236 . S
O57 Tb40 2.322 1_565 S
O57 C71 1.257 1_565 S
O58 Tb40 2.349 1_565 S
O58 C42 1.261 . S
O59 Tb41 2.303 . S
O59 C42 1.257 1_545 S
C60 O50 1.236 . S
C60 O51 1.257 . S
O61 Tb40 2.415 . S
O61 C49 1.239 . S
O62 Tb40 2.399 1_565 S
O62 C49 1.263 1_565 S
C63 O52 1.261 . S
C63 O53 1.257 . S
C64 C67 1.358 . S
C64 C68 1.332 . S
C64 C70 1.504 . S
C65 C66 1.373 . S
C65 C69 1.308 . S
C66 C65 1.373 . S
C66 C67 1.429 . S
C66 H76 0.932 . S
C67 C64 1.358 . S
C67 C66 1.429 . S
C67 H77 0.930 . S
C68 C64 1.332 . S
C68 C69 1.394 . S
C68 H78 0.932 . S
C69 C65 1.308 . S
C69 C68 1.394 . S
C69 H79 0.929 . S
C70 Tb41 2.764 . S
C70 O54 1.239 . S
C70 O55 1.263 . S
C70 C64 1.504 . S
C71 O56 1.236 . S
C71 O57 1.257 1_545 S
H72 C45 0.932 . S
H73 C46 0.930 . S
H74 C47 0.932 . S
H75 C48 0.929 . S
H76 C66 0.932 . S
H77 C67 0.930 . S
H78 C68 0.932 . S
H79 C69 0.929 . S
Tb80 C89 2.764 . S
Tb80 O90 2.325 . S
Tb80 O93 2.303 . S
Tb80 O97 2.322 . S
Tb80 O98 2.349 1_565 S
Tb80 O101 2.415 . S
Tb80 O102 2.399 . S
Tb81 O91 2.322 . S
Tb81 O92 2.349 . S
Tb81 O94 2.415 . S
Tb81 O95 2.399 . S
Tb81 O96 2.325 . S
Tb81 O99 2.303 . S
Tb81 C110 2.764 . S
C82 O98 1.261 . S
C82 O99 1.257 1_545 S
C83 C86 1.357 . S
C83 C87 1.332 . S
C83 C89 1.504 . S
C84 C85 1.373 . S
C84 C88 1.308 . S
C85 C84 1.373 . S
C85 C86 1.429 . S
C85 H112 0.932 1_565 S
C86 C83 1.357 . S
C86 C85 1.429 . S
C86 H113 0.931 1_565 S
C87 C83 1.332 . S
C87 C88 1.394 . S
C87 H114 0.932 . S
C88 C84 1.308 . S
C88 C87 1.394 . S
C88 H115 0.929 . S
C89 Tb80 2.764 . S
C89 C83 1.504 . S
C89 O101 1.239 . S
C89 O102 1.263 . S
O90 Tb80 2.325 . S
O90 C100 1.236 . S
O91 Tb81 2.322 . S
O91 C100 1.257 . S
O92 Tb81 2.349 . S
O92 C103 1.261 . S
O93 Tb80 2.303 . S
O93 C103 1.257 . S
O94 Tb81 2.415 . S
O94 C110 1.239 . S
O95 Tb81 2.399 . S
O95 C110 1.263 . S
O96 Tb81 2.325 . S
O96 C111 1.236 . S
O97 Tb80 2.322 . S
O97 C111 1.257 . S
O98 Tb80 2.349 1_545 S
O98 C82 1.261 . S
O99 Tb81 2.303 . S
O99 C82 1.257 1_565 S
C100 O90 1.236 . S
C100 O91 1.257 . S
O101 Tb80 2.415 . S
O101 C89 1.239 . S
O102 Tb80 2.399 . S
O102 C89 1.263 . S
C103 O92 1.261 . S
C103 O93 1.257 . S
C104 C107 1.358 . S
C104 C108 1.332 . S
C104 C110 1.504 . S
C105 C106 1.373 . S
C105 C109 1.308 . S
C106 C105 1.373 . S
C106 C107 1.429 . S
C106 H116 0.932 . S
C107 C104 1.358 . S
C107 C106 1.429 . S
C107 H117 0.930 . S
C108 C104 1.332 . S
C108 C109 1.394 . S
C108 H118 0.932 . S
C109 C105 1.308 . S
C109 C108 1.394 . S
C109 H119 0.929 . S
C110 Tb81 2.764 . S
C110 O94 1.239 . S
C110 O95 1.263 . S
C110 C104 1.504 . S
C111 O96 1.236 . S
C111 O97 1.257 . S
H112 C85 0.932 1_545 S
H113 C86 0.931 1_545 S
H114 C87 0.932 . S
H115 C88 0.929 . S
H116 C106 0.932 . S
H117 C107 0.930 . S
H118 C108 0.932 . S
H119 C109 0.929 . S
Tb120 C129 2.764 . S
Tb120 O130 2.325 . S
Tb120 O133 2.303 . S
Tb120 O137 2.322 . S
Tb120 O138 2.349 1_655 S
Tb120 O141 2.415 . S
Tb120 O142 2.399 . S
Tb121 O131 2.322 . S
Tb121 O132 2.349 . S
Tb121 O134 2.415 . S
Tb121 O135 2.399 . S
Tb121 O136 2.325 . S
Tb121 O139 2.303 . S
Tb121 C150 2.764 . S
C122 O138 1.261 . S
C122 O139 1.257 1_455 S
C123 C126 1.358 . S
C123 C127 1.332 . S
C123 C129 1.504 . S
C124 C125 1.373 . S
C124 C128 1.308 . S
C125 C124 1.373 . S
C125 C126 1.430 . S
C125 H152 0.932 1_655 S
C126 C123 1.358 . S
C126 C125 1.430 . S
C126 H153 0.929 1_655 S
C127 C123 1.332 . S
C127 C128 1.394 . S
C127 H154 0.932 . S
C128 C124 1.308 . S
C128 C127 1.394 . S
C128 H155 0.929 . S
C129 Tb120 2.764 . S
C129 C123 1.504 . S
C129 O141 1.239 . S
C129 O142 1.263 . S
O130 Tb120 2.325 . S
O130 C140 1.236 . S
O131 Tb121 2.322 . S
O131 C140 1.257 . S
O132 Tb121 2.349 . S
O132 C143 1.261 . S
O133 Tb120 2.303 . S
O133 C143 1.257 . S
O134 Tb121 2.415 . S
O134 C150 1.239 . S
O135 Tb121 2.399 . S
O135 C150 1.263 . S
O136 Tb121 2.325 . S
O136 C151 1.236 . S
O137 Tb120 2.322 . S
O137 C151 1.257 . S
O138 Tb120 2.349 1_455 S
O138 C122 1.261 . S
O139 Tb121 2.303 . S
O139 C122 1.257 1_655 S
C140 O130 1.236 . S
C140 O131 1.257 . S
O141 Tb120 2.415 . S
O141 C129 1.239 . S
O142 Tb120 2.399 . S
O142 C129 1.263 . S
C143 O132 1.261 . S
C143 O133 1.257 . S
C144 C147 1.358 . S
C144 C148 1.332 . S
C144 C150 1.504 . S
C145 C146 1.373 . S
C145 C149 1.308 . S
C146 C145 1.373 . S
C146 C147 1.429 . S
C146 H156 0.932 . S
C147 C144 1.358 . S
C147 C146 1.429 . S
C147 H157 0.930 . S
C148 C144 1.332 . S
C148 C149 1.394 . S
C148 H158 0.932 . S
C149 C145 1.308 . S
C149 C148 1.394 . S
C149 H159 0.929 . S
C150 Tb121 2.764 . S
C150 O134 1.239 . S
C150 O135 1.263 . S
C150 C144 1.504 . S
C151 O136 1.236 . S
C151 O137 1.257 . S
H152 C125 0.932 1_455 S
H153 C126 0.929 1_455 S
H154 C127 0.932 . S
H155 C128 0.929 . S
H156 C146 0.932 . S
H157 C147 0.930 . S
H158 C148 0.932 . S
H159 C149 0.929 . S
Tb160 C169 2.764 . S
Tb160 O170 2.325 . S
Tb160 O173 2.303 . S
Tb160 O177 2.322 1_455 S
Tb160 O178 2.349 1_455 S
Tb160 O181 2.415 . S
Tb160 O182 2.399 1_455 S
Tb161 O171 2.322 . S
Tb161 O172 2.349 . S
Tb161 O174 2.415 . S
Tb161 O175 2.399 . S
Tb161 O176 2.325 . S
Tb161 O179 2.303 . S
Tb161 C190 2.764 . S
C162 O178 1.261 . S
C162 O179 1.257 1_655 S
C163 C166 1.358 1_455 S
C163 C167 1.332 . S
C163 C169 1.504 . S
C164 C165 1.373 1_455 S
C164 C168 1.308 . S
C165 C164 1.373 1_655 S
C165 C166 1.429 . S
C165 H192 0.932 . S
C166 C163 1.358 1_655 S
C166 C165 1.429 . S
C166 H193 0.930 . S
C167 C163 1.332 . S
C167 C168 1.394 . S
C167 H194 0.932 . S
C168 C164 1.308 . S
C168 C167 1.394 . S
C168 H195 0.929 . S
C169 Tb160 2.764 . S
C169 C163 1.504 . S
C169 O181 1.239 . S
C169 O182 1.263 1_455 S
O170 Tb160 2.325 . S
O170 C180 1.236 . S
O171 Tb161 2.322 . S
O171 C180 1.257 . S
O172 Tb161 2.349 . S
O172 C183 1.261 . S
O173 Tb160 2.303 . S
O173 C183 1.257 . S
O174 Tb161 2.415 . S
O174 C190 1.239 . S
O175 Tb161 2.399 . S
O175 C190 1.263 . S
O176 Tb161 2.325 . S
O176 C191 1.236 . S
O177 Tb160 2.322 1_655 S
O177 C191 1.257 1_655 S
O178 Tb160 2.349 1_655 S
O178 C162 1.261 . S
O179 Tb161 2.303 . S
O179 C162 1.257 1_455 S
C180 O170 1.236 . S
C180 O171 1.257 . S
O181 Tb160 2.415 . S
O181 C169 1.239 . S
O182 Tb160 2.399 1_655 S
O182 C169 1.263 1_655 S
C183 O172 1.261 . S
C183 O173 1.257 . S
C184 C187 1.358 . S
C184 C188 1.332 . S
C184 C190 1.504 . S
C185 C186 1.373 . S
C185 C189 1.308 . S
C186 C185 1.373 . S
C186 C187 1.429 . S
C186 H196 0.932 . S
C187 C184 1.358 . S
C187 C186 1.429 . S
C187 H197 0.930 . S
C188 C184 1.332 . S
C188 C189 1.394 . S
C188 H198 0.932 . S
C189 C185 1.308 . S
C189 C188 1.394 . S
C189 H199 0.929 . S
C190 Tb161 2.764 . S
C190 O174 1.239 . S
C190 O175 1.263 . S
C190 C184 1.504 . S
C191 O176 1.236 . S
C191 O177 1.257 1_455 S
H192 C165 0.932 . S
H193 C166 0.930 . S
H194 C167 0.932 . S
H195 C168 0.929 . S
H196 C186 0.932 . S
H197 C187 0.930 . S
H198 C188 0.932 . S
H199 C189 0.929 . S
Tb200 C209 2.764 . S
Tb200 O210 2.325 . S
Tb200 O213 2.303 . S
Tb200 O217 2.322 . S
Tb200 O218 2.349 . S
Tb200 O221 2.415 . S
Tb200 O222 2.399 . S
Tb201 O211 2.322 . S
Tb201 O212 2.349 . S
Tb201 O214 2.415 . S
Tb201 O215 2.399 . S
Tb201 O216 2.325 . S
Tb201 O219 2.303 . S
Tb201 C230 2.764 . S
C202 O218 1.261 . S
C202 O219 1.257 . S
C203 C206 1.358 . S
C203 C207 1.332 . S
C203 C209 1.504 . S
C204 C205 1.373 . S
C204 C208 1.308 . S
C205 C204 1.373 . S
C205 C206 1.429 . S
C205 H232 0.932 . S
C206 C203 1.358 . S
C206 C205 1.429 . S
C206 H233 0.930 . S
C207 C203 1.332 . S
C207 C208 1.394 . S
C207 H234 0.932 . S
C208 C204 1.308 . S
C208 C207 1.394 . S
C208 H235 0.929 . S
C209 Tb200 2.764 . S
C209 C203 1.504 . S
C209 O221 1.239 . S
C209 O222 1.263 . S
O210 Tb200 2.325 . S
O210 C220 1.236 . S
O211 Tb201 2.322 . S
O211 C220 1.257 . S
O212 Tb201 2.349 . S
O212 C223 1.261 . S
O213 Tb200 2.303 . S
O213 C223 1.257 . S
O214 Tb201 2.415 . S
O214 C230 1.239 . S
O215 Tb201 2.399 . S
O215 C230 1.263 . S
O216 Tb201 2.325 . S
O216 C231 1.236 . S
O217 Tb200 2.322 . S
O217 C231 1.257 . S
O218 Tb200 2.349 . S
O218 C202 1.261 . S
O219 Tb201 2.303 . S
O219 C202 1.257 . S
C220 O210 1.236 . S
C220 O211 1.257 . S
O221 Tb200 2.415 . S
O221 C209 1.239 . S
O222 Tb200 2.399 . S
O222 C209 1.263 . S
C223 O212 1.261 . S
C223 O213 1.257 . S
C224 C227 1.358 . S
C224 C228 1.332 . S
C224 C230 1.504 . S
C225 C226 1.373 1_554 S
C225 C229 1.308 1_554 S
C226 C225 1.373 1_556 S
C226 C227 1.429 . S
C226 H236 0.932 1_556 S
C227 C224 1.358 . S
C227 C226 1.429 . S
C227 H237 0.930 . S
C228 C224 1.332 . S
C228 C229 1.394 . S
C228 H238 0.932 . S
C229 C225 1.308 1_556 S
C229 C228 1.394 . S
C229 H239 0.929 . S
C230 Tb201 2.764 . S
C230 O214 1.239 . S
C230 O215 1.263 . S
C230 C224 1.504 . S
C231 O216 1.236 . S
C231 O217 1.257 . S
H232 C205 0.932 . S
H233 C206 0.930 . S
H234 C207 0.932 . S
H235 C208 0.929 . S
H236 C226 0.932 1_554 S
H237 C227 0.930 . S
H238 C228 0.932 . S
H239 C229 0.929 . S
C240 C241 1.369 . S
C240 C242 1.419 . S
C240 H244 0.930 . S
C241 C240 1.369 . S
C241 C250 1.429 . S
C242 C240 1.419 . S
C242 C243 1.363 . S
C242 H245 0.929 . S
C243 C242 1.363 . S
C243 C249 1.428 . S
H244 C240 0.930 . S
H245 C242 0.929 . S
S246 N247 1.613 . S
S246 N248 1.610 . S
N247 S246 1.613 . S
N247 C250 1.350 . S
N248 S246 1.610 . S
N248 C249 1.351 . S
C249 C243 1.428 . S
C249 N248 1.351 . S
C249 C250 1.434 . S
C250 C241 1.429 . S
C250 N247 1.350 . S
C250 C249 1.434 . S
C251 C252 1.369 . S
C251 C253 1.419 . S
C251 H255 0.930 . S
C252 C251 1.369 . S
C252 C261 1.429 . S
C253 C251 1.419 . S
C253 C254 1.363 . S
C253 H256 0.929 . S
C254 C253 1.363 . S
C254 C260 1.428 . S
H255 C251 0.930 . S
H256 C253 0.929 . S
S257 N258 1.613 . S
S257 N259 1.610 . S
N258 S257 1.613 . S
N258 C261 1.350 . S
N259 S257 1.610 . S
N259 C260 1.351 . S
C260 C254 1.428 . S
C260 N259 1.351 . S
C260 C261 1.434 . S
C261 C252 1.429 . S
C261 N258 1.350 . S
C261 C260 1.434 . S
C262 C263 1.369 . S
C262 C264 1.419 . S
C262 H266 0.930 . S
C263 C262 1.369 . S
C263 C272 1.429 . S
C264 C262 1.419 . S
C264 C265 1.363 . S
C264 H267 0.929 . S
C265 C264 1.363 . S
C265 C271 1.428 . S
H266 C262 0.930 . S
H267 C264 0.929 . S
S268 N269 1.613 . S
S268 N270 1.610 . S
N269 S268 1.613 . S
N269 C272 1.350 . S
N270 S268 1.610 . S
N270 C271 1.351 . S
C271 C265 1.428 . S
C271 N270 1.351 . S
C271 C272 1.434 . S
C272 C263 1.429 . S
C272 N269 1.350 . S
C272 C271 1.434 . S
C273 C274 1.369 . S
C273 C275 1.419 . S
C273 H277 0.930 . S
C274 C273 1.369 . S
C274 C283 1.429 . S
C275 C273 1.419 . S
C275 C276 1.363 . S
C275 H278 0.929 . S
C276 C275 1.363 . S
C276 C282 1.428 . S
H277 C273 0.930 . S
H278 C275 0.929 . S
S279 N280 1.613 . S
S279 N281 1.610 . S
N280 S279 1.613 . S
N280 C283 1.350 . S
N281 S279 1.610 . S
N281 C282 1.351 . S
C282 C276 1.428 . S
C282 N281 1.351 . S
C282 C283 1.434 . S
C283 C274 1.429 . S
C283 N280 1.350 . S
C283 C282 1.434 . S
C284 C285 1.369 . S
C284 C286 1.419 . S
C284 H288 0.930 . S
C285 C284 1.369 . S
C285 C294 1.429 . S
C286 C284 1.419 . S
C286 C287 1.363 . S
C286 H289 0.929 . S
C287 C286 1.363 . S
C287 C293 1.428 . S
H288 C284 0.930 . S
H289 C286 0.929 . S
S290 N291 1.613 . S
S290 N292 1.610 . S
N291 S290 1.613 . S
N291 C294 1.350 . S
N292 S290 1.610 . S
N292 C293 1.351 . S
C293 C287 1.428 . S
C293 N292 1.351 . S
C293 C294 1.434 . S
C294 C285 1.429 . S
C294 N291 1.350 . S
C294 C293 1.434 . S
C295 C296 1.369 . S
C295 C297 1.419 . S
C295 H299 0.930 . S
C296 C295 1.369 . S
C296 C305 1.429 . S
C297 C295 1.419 . S
C297 C298 1.363 . S
C297 H300 0.929 . S
C298 C297 1.363 . S
C298 C304 1.428 . S
H299 C295 0.930 . S
H300 C297 0.929 . S
S301 N302 1.613 . S
S301 N303 1.610 . S
N302 S301 1.613 . S
N302 C305 1.350 . S
N303 S301 1.610 . S
N303 C304 1.351 . S
C304 C298 1.428 . S
C304 N303 1.351 . S
C304 C305 1.434 . S
C305 C296 1.429 . S
C305 N302 1.350 . S
C305 C304 1.434 . S
C306 C307 1.369 . S
C306 C308 1.419 . S
C306 H310 0.930 . S
C307 C306 1.369 . S
C307 C316 1.429 . S
C308 C306 1.419 . S
C308 C309 1.363 . S
C308 H311 0.929 . S
C309 C308 1.363 . S
C309 C315 1.428 . S
H310 C306 0.930 . S
H311 C308 0.929 . S
S312 N313 1.613 . S
S312 N314 1.610 . S
N313 S312 1.613 . S
N313 C316 1.350 . S
N314 S312 1.610 . S
N314 C315 1.351 . S
C315 C309 1.428 . S
C315 N314 1.351 . S
C315 C316 1.434 . S
C316 C307 1.429 . S
C316 N313 1.350 . S
C316 C315 1.434 . S
C317 C318 1.369 . S
C317 C319 1.419 . S
C317 H321 0.930 . S
C318 C317 1.369 . S
C318 C327 1.429 . S
C319 C317 1.419 . S
C319 C320 1.363 . S
C319 H322 0.929 . S
C320 C319 1.363 . S
C320 C326 1.428 . S
H321 C317 0.930 . S
H322 C319 0.929 . S
S323 N324 1.613 . S
S323 N325 1.610 . S
N324 S323 1.613 . S
N324 C327 1.350 . S
N325 S323 1.610 . S
N325 C326 1.351 . S
C326 C320 1.428 . S
C326 N325 1.351 . S
C326 C327 1.434 . S
C327 C318 1.429 . S
C327 N324 1.350 . S
C327 C326 1.434 . S
C328 C329 1.369 . S
C328 C330 1.419 . S
C328 H332 0.930 . S
C329 C328 1.369 . S
C329 C338 1.429 . S
C330 C328 1.419 . S
C330 C331 1.363 . S
C330 H333 0.929 . S
C331 C330 1.363 . S
C331 C337 1.428 . S
H332 C328 0.930 . S
H333 C330 0.929 . S
S334 N335 1.624 . S
S334 N336 1.610 . S
N335 S334 1.624 . S
N335 C338 1.347 1_565 S
N336 S334 1.610 . S
N336 C337 1.351 1_565 S
C337 C331 1.428 . S
C337 N336 1.351 1_545 S
C337 C338 1.434 . S
C338 C329 1.429 . S
C338 N335 1.347 1_545 S
C338 C337 1.434 . S
C339 C340 1.369 . S
C339 C341 1.419 . S
C339 H343 0.930 . S
C340 C339 1.369 . S
C340 C349 1.429 . S
C341 C339 1.419 . S
C341 C342 1.363 . S
C341 H344 0.929 . S
C342 C341 1.363 . S
C342 C348 1.428 . S
H343 C339 0.930 . S
H344 C341 0.929 . S
S345 N346 1.613 . S
S345 N347 1.610 . S
N346 S345 1.613 . S
N346 C349 1.350 . S
N347 S345 1.610 . S
N347 C348 1.351 . S
C348 C342 1.428 . S
C348 N347 1.351 . S
C348 C349 1.434 . S
C349 C340 1.429 . S
C349 N346 1.350 . S
C349 C348 1.434 . S
C350 C351 1.369 . S
C350 C352 1.419 . S
C350 H354 0.930 . S
C351 C350 1.369 . S
C351 C360 1.429 . S
C352 C350 1.419 . S
C352 C353 1.363 . S
C352 H355 0.929 . S
C353 C352 1.363 . S
C353 C359 1.428 . S
H354 C350 0.930 . S
H355 C352 0.929 . S
S356 N357 1.613 . S
S356 N358 1.610 . S
N357 S356 1.613 . S
N357 C360 1.350 . S
N358 S356 1.610 . S
N358 C359 1.351 . S
C359 C353 1.428 . S
C359 N358 1.351 . S
C359 C360 1.434 . S
C360 C351 1.429 . S
C360 N357 1.350 . S
C360 C359 1.434 . S
C361 C362 1.369 . S
C361 C363 1.419 . S
C361 H365 0.930 . S
C362 C361 1.369 . S
C362 C371 1.429 . S
C363 C361 1.419 . S
C363 C364 1.363 . S
C363 H366 0.929 . S
C364 C363 1.363 . S
C364 C370 1.428 . S
H365 C361 0.930 . S
H366 C363 0.929 . S
S367 N368 1.613 1_545 S
S367 N369 1.610 . S
N368 S367 1.613 1_565 S
N368 C371 1.350 . S
N369 S367 1.610 . S
N369 C370 1.351 1_545 S
C370 C364 1.428 . S
C370 N369 1.351 1_565 S
C370 C371 1.434 . S
C371 C362 1.429 . S
C371 N368 1.350 . S
C371 C370 1.434 . S
C372 C373 1.369 . S
C372 C374 1.419 . S
C372 H376 0.930 . S
C373 C372 1.369 . S
C373 C382 1.429 . S
C374 C372 1.419 . S
C374 C375 1.363 1_556 S
C374 H377 0.929 . S
C375 C374 1.363 1_554 S
C375 C381 1.428 1_554 S
H376 C372 0.930 . S
H377 C374 0.929 . S
S378 N379 1.613 . S
S378 N380 1.610 1_556 S
N379 S378 1.613 . S
N379 C382 1.350 . S
N380 S378 1.610 1_554 S
N380 C381 1.351 1_554 S
C381 C375 1.428 1_556 S
C381 N380 1.351 1_556 S
C381 C382 1.434 . S
C382 C373 1.429 . S
C382 N379 1.350 . S
C382 C381 1.434 . S
C383 C384 1.369 . S
C383 C385 1.419 . S
C383 H387 0.930 . S
C384 C383 1.369 . S
C384 C393 1.429 1_655 S
C385 C383 1.419 . S
C385 C386 1.363 1_655 S
C385 H388 0.929 . S
C386 C385 1.363 1_455 S
C386 C392 1.428 . S
H387 C383 0.930 . S
H388 C385 0.929 . S
S389 N390 1.613 . S
S389 N391 1.610 . S
N390 S389 1.613 . S
N390 C393 1.350 . S
N391 S389 1.610 . S
N391 C392 1.351 . S
C392 C386 1.428 . S
C392 N391 1.351 . S
C392 C393 1.434 . S
C393 C384 1.429 1_455 S
C393 N390 1.350 . S
C393 C392 1.434 . S
C394 C395 1.369 . S
C394 C396 1.419 . S
C394 H398 0.930 . S
C395 C394 1.369 . S
C395 C404 1.429 1_565 S
C396 C394 1.419 . S
C396 C397 1.363 . S
C396 H399 0.929 . S
C397 C396 1.363 . S
C397 C403 1.428 1_565 S
H398 C394 0.930 . S
H399 C396 0.929 . S
S400 N401 1.613 . S
S400 N402 1.610 . S
N401 S400 1.613 . S
N401 C404 1.350 . S
N402 S400 1.610 . S
N402 C403 1.351 . S
C403 C397 1.428 1_545 S
C403 N402 1.351 . S
C403 C404 1.434 . S
C404 C395 1.429 1_545 S
C404 N401 1.350 . S
C404 C403 1.434 . S
C405 C406 1.369 . S
C405 C407 1.419 . S
C405 H409 0.930 . S
C406 C405 1.369 . S
C406 C415 1.429 . S
C407 C405 1.419 . S
C407 C408 1.363 . S
C407 H410 0.929 . S
C408 C407 1.363 . S
C408 C414 1.428 . S
H409 C405 0.930 . S
H410 C407 0.929 . S
S411 N412 1.613 1_554 S
S411 N413 1.610 1_545 S
N412 S411 1.613 1_556 S
N412 C415 1.350 1_545 S
N413 S411 1.610 1_565 S
N413 C414 1.351 1_554 S
C414 C408 1.428 . S
C414 N413 1.351 1_556 S
C414 C415 1.434 . S
C415 C406 1.429 . S
C415 N412 1.350 1_565 S
C415 C414 1.434 . S
C416 C417 1.369 . S
C416 C418 1.419 . S
C416 H420 0.930 . S
C417 C416 1.369 . S
C417 C426 1.429 1_655 S
C418 C416 1.419 . S
C418 C419 1.363 . S
C418 H421 0.929 . S
C419 C418 1.363 . S
C419 C425 1.428 1_655 S
H420 C416 0.930 . S
H421 C418 0.929 . S
S422 N423 1.613 . S
S422 N424 1.610 . S
N423 S422 1.613 . S
N423 C426 1.350 . S
N424 S422 1.610 . S
N424 C425 1.351 . S
C425 C419 1.428 1_455 S
C425 N424 1.351 . S
C425 C426 1.434 . S
C426 C417 1.429 1_455 S
C426 N423 1.350 . S
C426 C425 1.434 . S
C427 C428 1.369 1_565 S
C427 C429 1.419 . S
C427 H431 0.930 . S
C428 C427 1.369 1_545 S
C428 C437 1.429 . S
C429 C427 1.419 . S
C429 C430 1.363 . S
C429 H432 0.929 1_455 S
C430 C429 1.363 . S
C430 C436 1.428 1_565 S
H431 C427 0.930 . S
H432 C429 0.929 1_655 S
S433 N434 1.613 . S
S433 N435 1.610 . S
N434 S433 1.613 . S
N434 C437 1.350 . S
N435 S433 1.610 . S
N435 C436 1.351 . S
C436 C430 1.428 1_545 S
C436 N435 1.351 . S
C436 C437 1.434 . S
C437 C428 1.429 . S
C437 N434 1.350 . S
C437 C436 1.434 . S
C241 C185 1.685 . S
C243 C20 1.694 . S
C252 C220 1.695 . S
C254 C65 1.683 . S
C263 C25 1.680 . S
C265 C100 1.697 . S
C274 C60 1.697 . S
C276 C145 1.682 . S
C285 C105 1.689 . S
C287 C180 1.691 . S
C296 C140 1.692 . S
C298 C225 1.687 . S
C307 C2 2.144 . S
C309 C143 2.044 . S
C318 C162 2.147 . S
C320 C63 2.038 . S
C329 C223 2.047 . S
C331 C82 2.142 . S
C340 C103 2.043 . S
C342 C202 2.146 . S
C351 C23 2.045 . S
C353 C122 2.144 . S
C362 C183 2.045 . S
C364 C42 2.140 . S
C373 C231 1.716 . S
C375 C31 1.719 . S
C384 C44 0.916 . S
C386 C4 0.917 . S
C395 C111 1.718 . S
C397 C71 1.714 1_565 S
C406 C84 0.921 . S
C408 C124 0.919 1_556 S
C417 C191 1.716 1_655 S
C419 C151 1.720 . S
C428 C204 0.917 . S
C430 C164 0.916 . S
