# Generated by pormake.
# Topology mer, (4)-cn, num edge types: 1
# Building blocks:
#     Node 0, Type 0, BuildingBlock: ICAMEG_clean_sbu_1, # of connection points: 4
#     Node 1, Type 0, BuildingBlock: ICAMEG_clean_sbu_1, # of connection points: 4
#     Node 2, Type 0, BuildingBlock: ICAMEG_clean_sbu_1, # of connection points: 4
#     Node 3, Type 0, BuildingBlock: ICAMEG_clean_sbu_1, # of connection points: 4
#     Node 4, Type 0, BuildingBlock: ICAMEG_clean_sbu_1, # of connection points: 4
#     Node 5, Type 0, BuildingBlock: ICAMEG_clean_sbu_1, # of connection points: 4
#     Node 6, Type 0, BuildingBlock: ICAMEG_clean_sbu_1, # of connection points: 4
#     Node 7, Type 0, BuildingBlock: ICAMEG_clean_sbu_1, # of connection points: 4
#     Node 8, Type 0, BuildingBlock: ICAMEG_clean_sbu_1, # of connection points: 4
#     Node 9, Type 0, BuildingBlock: ICAMEG_clean_sbu_1, # of connection points: 4
#     Node 10, Type 0, BuildingBlock: ICAMEG_clean_sbu_1, # of connection points: 4
#     Node 11, Type 0, BuildingBlock: ICAMEG_clean_sbu_1, # of connection points: 4
#     Node 12, Type 0, BuildingBlock: ICAMEG_clean_sbu_1, # of connection points: 4
#     Node 13, Type 0, BuildingBlock: ICAMEG_clean_sbu_1, # of connection points: 4
#     Node 14, Type 0, BuildingBlock: ICAMEG_clean_sbu_1, # of connection points: 4
#     Node 15, Type 0, BuildingBlock: ICAMEG_clean_sbu_1, # of connection points: 4
#     Node 16, Type 0, BuildingBlock: ICAMEG_clean_sbu_1, # of connection points: 4
#     Node 17, Type 0, BuildingBlock: ICAMEG_clean_sbu_1, # of connection points: 4
#     Node 18, Type 0, BuildingBlock: ICAMEG_clean_sbu_1, # of connection points: 4
#     Node 19, Type 0, BuildingBlock: ICAMEG_clean_sbu_1, # of connection points: 4
#     Node 20, Type 0, BuildingBlock: ICAMEG_clean_sbu_1, # of connection points: 4
#     Node 21, Type 0, BuildingBlock: ICAMEG_clean_sbu_1, # of connection points: 4
#     Node 22, Type 0, BuildingBlock: ICAMEG_clean_sbu_1, # of connection points: 4
#     Node 23, Type 0, BuildingBlock: ICAMEG_clean_sbu_1, # of connection points: 4
#     Node 24, Type 0, BuildingBlock: ICAMEG_clean_sbu_1, # of connection points: 4
#     Node 25, Type 0, BuildingBlock: ICAMEG_clean_sbu_1, # of connection points: 4
#     Node 26, Type 0, BuildingBlock: ICAMEG_clean_sbu_1, # of connection points: 4
#     Node 27, Type 0, BuildingBlock: ICAMEG_clean_sbu_1, # of connection points: 4
#     Node 28, Type 0, BuildingBlock: ICAMEG_clean_sbu_1, # of connection points: 4
#     Node 29, Type 0, BuildingBlock: ICAMEG_clean_sbu_1, # of connection points: 4
#     Node 30, Type 0, BuildingBlock: ICAMEG_clean_sbu_1, # of connection points: 4
#     Node 31, Type 0, BuildingBlock: ICAMEG_clean_sbu_1, # of connection points: 4
#     Edge 32, Type (0, 0), BuildingBlock: XIVTED_clean_linker_0, # of connection points: 2
#     Edge 33, Type (0, 0), BuildingBlock: XIVTED_clean_linker_0, # of connection points: 2
#     Edge 34, Type (0, 0), BuildingBlock: XIVTED_clean_linker_0, # of connection points: 2
#     Edge 35, Type (0, 0), BuildingBlock: XIVTED_clean_linker_0, # of connection points: 2
#     Edge 36, Type (0, 0), BuildingBlock: XIVTED_clean_linker_0, # of connection points: 2
#     Edge 37, Type (0, 0), BuildingBlock: XIVTED_clean_linker_0, # of connection points: 2
#     Edge 38, Type (0, 0), BuildingBlock: XIVTED_clean_linker_0, # of connection points: 2
#     Edge 39, Type (0, 0), BuildingBlock: XIVTED_clean_linker_0, # of connection points: 2
#     Edge 40, Type (0, 0), BuildingBlock: XIVTED_clean_linker_0, # of connection points: 2
#     Edge 41, Type (0, 0), BuildingBlock: XIVTED_clean_linker_0, # of connection points: 2
#     Edge 42, Type (0, 0), BuildingBlock: XIVTED_clean_linker_0, # of connection points: 2
#     Edge 43, Type (0, 0), BuildingBlock: XIVTED_clean_linker_0, # of connection points: 2
#     Edge 44, Type (0, 0), BuildingBlock: XIVTED_clean_linker_0, # of connection points: 2
#     Edge 45, Type (0, 0), BuildingBlock: XIVTED_clean_linker_0, # of connection points: 2
#     Edge 46, Type (0, 0), BuildingBlock: XIVTED_clean_linker_0, # of connection points: 2
#     Edge 47, Type (0, 0), BuildingBlock: XIVTED_clean_linker_0, # of connection points: 2
#     Edge 48, Type (0, 0), BuildingBlock: XIVTED_clean_linker_0, # of connection points: 2
#     Edge 49, Type (0, 0), BuildingBlock: XIVTED_clean_linker_0, # of connection points: 2
#     Edge 50, Type (0, 0), BuildingBlock: XIVTED_clean_linker_0, # of connection points: 2
#     Edge 51, Type (0, 0), BuildingBlock: XIVTED_clean_linker_0, # of connection points: 2
#     Edge 52, Type (0, 0), BuildingBlock: XIVTED_clean_linker_0, # of connection points: 2
#     Edge 53, Type (0, 0), BuildingBlock: XIVTED_clean_linker_0, # of connection points: 2
#     Edge 54, Type (0, 0), BuildingBlock: XIVTED_clean_linker_0, # of connection points: 2
#     Edge 55, Type (0, 0), BuildingBlock: XIVTED_clean_linker_0, # of connection points: 2
#     Edge 56, Type (0, 0), BuildingBlock: XIVTED_clean_linker_0, # of connection points: 2
#     Edge 57, Type (0, 0), BuildingBlock: XIVTED_clean_linker_0, # of connection points: 2
#     Edge 58, Type (0, 0), BuildingBlock: XIVTED_clean_linker_0, # of connection points: 2
#     Edge 59, Type (0, 0), BuildingBlock: XIVTED_clean_linker_0, # of connection points: 2
#     Edge 60, Type (0, 0), BuildingBlock: XIVTED_clean_linker_0, # of connection points: 2
#     Edge 61, Type (0, 0), BuildingBlock: XIVTED_clean_linker_0, # of connection points: 2
#     Edge 62, Type (0, 0), BuildingBlock: XIVTED_clean_linker_0, # of connection points: 2
#     Edge 63, Type (0, 0), BuildingBlock: XIVTED_clean_linker_0, # of connection points: 2
#     Edge 64, Type (0, 0), BuildingBlock: XIVTED_clean_linker_0, # of connection points: 2
#     Edge 65, Type (0, 0), BuildingBlock: XIVTED_clean_linker_0, # of connection points: 2
#     Edge 66, Type (0, 0), BuildingBlock: XIVTED_clean_linker_0, # of connection points: 2
#     Edge 67, Type (0, 0), BuildingBlock: XIVTED_clean_linker_0, # of connection points: 2
#     Edge 68, Type (0, 0), BuildingBlock: XIVTED_clean_linker_0, # of connection points: 2
#     Edge 69, Type (0, 0), BuildingBlock: XIVTED_clean_linker_0, # of connection points: 2
#     Edge 70, Type (0, 0), BuildingBlock: XIVTED_clean_linker_0, # of connection points: 2
#     Edge 71, Type (0, 0), BuildingBlock: XIVTED_clean_linker_0, # of connection points: 2
#     Edge 72, Type (0, 0), BuildingBlock: XIVTED_clean_linker_0, # of connection points: 2
#     Edge 73, Type (0, 0), BuildingBlock: XIVTED_clean_linker_0, # of connection points: 2
#     Edge 74, Type (0, 0), BuildingBlock: XIVTED_clean_linker_0, # of connection points: 2
#     Edge 75, Type (0, 0), BuildingBlock: XIVTED_clean_linker_0, # of connection points: 2
#     Edge 76, Type (0, 0), BuildingBlock: XIVTED_clean_linker_0, # of connection points: 2
#     Edge 77, Type (0, 0), BuildingBlock: XIVTED_clean_linker_0, # of connection points: 2
#     Edge 78, Type (0, 0), BuildingBlock: XIVTED_clean_linker_0, # of connection points: 2
#     Edge 79, Type (0, 0), BuildingBlock: XIVTED_clean_linker_0, # of connection points: 2
#     Edge 80, Type (0, 0), BuildingBlock: XIVTED_clean_linker_0, # of connection points: 2
#     Edge 81, Type (0, 0), BuildingBlock: XIVTED_clean_linker_0, # of connection points: 2
#     Edge 82, Type (0, 0), BuildingBlock: XIVTED_clean_linker_0, # of connection points: 2
#     Edge 83, Type (0, 0), BuildingBlock: XIVTED_clean_linker_0, # of connection points: 2
#     Edge 84, Type (0, 0), BuildingBlock: XIVTED_clean_linker_0, # of connection points: 2
#     Edge 85, Type (0, 0), BuildingBlock: XIVTED_clean_linker_0, # of connection points: 2
#     Edge 86, Type (0, 0), BuildingBlock: XIVTED_clean_linker_0, # of connection points: 2
#     Edge 87, Type (0, 0), BuildingBlock: XIVTED_clean_linker_0, # of connection points: 2
#     Edge 88, Type (0, 0), BuildingBlock: XIVTED_clean_linker_0, # of connection points: 2
#     Edge 89, Type (0, 0), BuildingBlock: XIVTED_clean_linker_0, # of connection points: 2
#     Edge 90, Type (0, 0), BuildingBlock: XIVTED_clean_linker_0, # of connection points: 2
#     Edge 91, Type (0, 0), BuildingBlock: XIVTED_clean_linker_0, # of connection points: 2
#     Edge 92, Type (0, 0), BuildingBlock: XIVTED_clean_linker_0, # of connection points: 2
#     Edge 93, Type (0, 0), BuildingBlock: XIVTED_clean_linker_0, # of connection points: 2
#     Edge 94, Type (0, 0), BuildingBlock: XIVTED_clean_linker_0, # of connection points: 2
#     Edge 95, Type (0, 0), BuildingBlock: XIVTED_clean_linker_0, # of connection points: 2
# Relax obj value: 0.031
# Max RMSD: 0.078
# Mean RMSD: 0.078
data_MOF--net-mer--node1-ICAMEG_clean_sbu_1--edge1-XIVTED_clean_linker_0
_symmetry_space_group_name_H-M    P1
_symmetry_Int_Tables_number       1
_symmetry_cell_setting            triclinic
loop_
_symmetry_equiv_pos_as_xyz
'x, y, z'
_cell_length_a     65.27716
_cell_length_b     65.276305
_cell_length_c     59.842576
_cell_angle_alpha  90.000773
_cell_angle_beta   90.001246
_cell_angle_gamma 90.001535
loop_
_atom_site_label
_atom_site_type_symbol
_atom_site_fract_x
_atom_site_fract_y
_atom_site_fract_z
_atom_type_partial_charge
Co0 Co 0.14654 0.31126 0.37436 0.0
Co1 Co 0.11117 0.27194 0.37492 0.0
O2 O 0.12205 0.29752 0.3631 0.0
C3 C 0.15465 0.30368 0.3269 0.0
O4 O 0.148 0.28501 0.33058 0.0
C5 C 0.07567 0.3001 0.37838 0.0
O6 O 0.08749 0.31333 0.38872 0.0
O7 O 0.11261 0.28262 0.40599 0.0
O8 O 0.13801 0.30594 0.40591 0.0
H9 H 0.10844 0.212 0.42753 0.0
H10 H 0.11957 0.33234 0.34178 0.0
O11 O 0.15543 0.3166 0.34284 0.0
H12 H 0.11993 0.37644 0.40869 0.0
H13 H 0.19995 0.36686 0.37436 0.0
H14 H 0.17651 0.30316 0.41055 0.0
H15 H 0.14018 0.34455 0.40777 0.0
H16 H 0.1689 0.34912 0.36101 0.0
O17 O 0.08281 0.28297 0.37183 0.0
H18 H 0.12248 0.24412 0.41211 0.0
H19 H 0.07542 0.24563 0.36311 0.0
H20 H 0.20754 0.32049 0.42457 0.0
H21 H 0.09922 0.36418 0.34192 0.0
H22 H 0.21944 0.35258 0.40643 0.0
H23 H 0.09928 0.38645 0.37558 0.0
O24 O 0.16257 0.28527 0.3742 0.0
H25 H 0.09414 0.27562 0.29313 0.0
H26 H 0.12454 0.23322 0.35273 0.0
H27 H 0.12389 0.22019 0.31406 0.0
H28 H 0.10859 0.24145 0.28394 0.0
H29 H 0.09528 0.28815 0.332 0.0
H30 H 0.06078 0.21361 0.37811 0.0
H31 H 0.07737 0.19654 0.41049 0.0
O32 O 0.13921 0.26029 0.37812 0.0
C33 C 0.12449 0.29519 0.41594 0.0
C34 C 0.10112 0.21926 0.41336 0.0
C35 C 0.07435 0.22018 0.38564 0.0
N36 N 0.09989 0.24663 0.38661 0.0
C37 C 0.10903 0.23741 0.40452 0.0
C38 C 0.08269 0.23832 0.37725 0.0
C39 C 0.08367 0.2106 0.40381 0.0
C40 C 0.11981 0.34204 0.35642 0.0
N41 N 0.13113 0.33665 0.37469 0.0
C42 C 0.10819 0.36001 0.35643 0.0
C43 C 0.10822 0.37249 0.37533 0.0
C44 C 0.11979 0.36687 0.39392 0.0
C45 C 0.13119 0.34878 0.39332 0.0
C46 C 0.1949 0.35291 0.38243 0.0
C47 C 0.18153 0.31719 0.40267 0.0
C48 C 0.17736 0.34278 0.37491 0.0
N49 N 0.17083 0.32522 0.38511 0.0
C50 C 0.19914 0.3269 0.41063 0.0
C51 C 0.20582 0.3449 0.40043 0.0
C52 C 0.15768 0.26651 0.37683 0.0
C53 C 0.10079 0.26619 0.30612 0.0
C54 C 0.1179 0.24259 0.33972 0.0
C55 C 0.11753 0.2351 0.31785 0.0
C56 C 0.10893 0.24703 0.30097 0.0
N57 N 0.10989 0.2614 0.34464 0.0
C58 C 0.10139 0.27316 0.32818 0.0
Co59 Co 0.68748 0.14681 0.37357 0.0
Co60 Co 0.72725 0.11193 0.37398 0.0
O61 O 0.7015 0.1225 0.36225 0.0
C62 C 0.69507 0.15507 0.32615 0.0
O63 O 0.71377 0.14856 0.32987 0.0
C64 C 0.69942 0.0762 0.37769 0.0
O65 O 0.68611 0.08797 0.38797 0.0
O66 O 0.7167 0.11334 0.40509 0.0
O67 O 0.69287 0.13827 0.4051 0.0
H68 H 0.78744 0.10995 0.42628 0.0
H69 H 0.66673 0.1197 0.34087 0.0
O70 O 0.68209 0.15572 0.34205 0.0
H71 H 0.62258 0.11936 0.40773 0.0
H72 H 0.63129 0.19959 0.37361 0.0
H73 H 0.6952 0.17679 0.40985 0.0
H74 H 0.65424 0.13998 0.40691 0.0
H75 H 0.6494 0.16877 0.36021 0.0
O76 O 0.71649 0.08343 0.37105 0.0
H77 H 0.75512 0.12362 0.41097 0.0
H78 H 0.75386 0.07641 0.36214 0.0
H79 H 0.6775 0.2076 0.42392 0.0
H80 H 0.63512 0.09898 0.3409 0.0
H81 H 0.64531 0.21918 0.40575 0.0
H82 H 0.61283 0.0987 0.37454 0.0
O83 O 0.71328 0.16314 0.3735 0.0
H84 H 0.72336 0.0946 0.29227 0.0
H85 H 0.76571 0.12564 0.35153 0.0
H86 H 0.77857 0.125 0.31278 0.0
H87 H 0.75734 0.10938 0.28284 0.0
H88 H 0.71101 0.09573 0.3312 0.0
H89 H 0.78609 0.06214 0.37702 0.0
H90 H 0.80313 0.07899 0.40927 0.0
O91 O 0.73861 0.1401 0.37703 0.0
C92 C 0.70392 0.12496 0.41508 0.0
C93 C 0.78019 0.10251 0.41217 0.0
C94 C 0.77942 0.07566 0.38455 0.0
N95 N 0.75272 0.10094 0.38557 0.0
C96 C 0.76193 0.11022 0.4034 0.0
C97 C 0.76116 0.0838 0.37622 0.0
C98 C 0.78898 0.08513 0.40264 0.0
C99 C 0.65702 0.11978 0.35549 0.0
N100 N 0.66226 0.13112 0.37381 0.0
C101 C 0.63918 0.10797 0.35545 0.0
C102 C 0.62669 0.1078 0.37434 0.0
C103 C 0.63216 0.11938 0.39297 0.0
C104 C 0.65012 0.13099 0.39242 0.0
C105 C 0.64528 0.19468 0.38169 0.0
C106 C 0.68112 0.18167 0.40195 0.0
C107 C 0.65562 0.17727 0.37415 0.0
N108 N 0.67324 0.17092 0.38436 0.0
C109 C 0.67121 0.19915 0.40995 0.0
C110 C 0.65315 0.20566 0.39973 0.0
C111 C 0.73212 0.15849 0.37594 0.0
C112 C 0.73278 0.10139 0.30518 0.0
C113 C 0.75636 0.11886 0.33859 0.0
C114 C 0.76375 0.1185 0.31669 0.0
C115 C 0.75183 0.10971 0.2999 0.0
N116 N 0.73766 0.11066 0.34364 0.0
C117 C 0.72591 0.10199 0.32727 0.0
Co118 Co 0.85328 0.68796 0.37341 0.0
Co119 Co 0.8882 0.72769 0.37382 0.0
O120 O 0.87758 0.70198 0.36208 0.0
C121 C 0.84493 0.69578 0.32608 0.0
O122 O 0.85143 0.71446 0.32997 0.0
C123 C 0.92401 0.69991 0.37727 0.0
O124 O 0.91243 0.68665 0.38788 0.0
O125 O 0.88691 0.71703 0.4049 0.0
O126 O 0.8619 0.69327 0.40497 0.0
H127 H 0.89048 0.78768 0.42638 0.0
H128 H 0.88031 0.66727 0.34058 0.0
O129 O 0.84431 0.68269 0.34188 0.0
H130 H 0.88074 0.62295 0.40732 0.0
H131 H 0.80044 0.63182 0.37337 0.0
H132 H 0.82338 0.69561 0.40978 0.0
H133 H 0.86016 0.65464 0.40665 0.0
H134 H 0.83127 0.64994 0.35998 0.0
O135 O 0.91666 0.71692 0.37065 0.0
H136 H 0.8767 0.75544 0.41099 0.0
H137 H 0.92368 0.75432 0.36191 0.0
H138 H 0.79257 0.67791 0.42385 0.0
H139 H 0.90098 0.63563 0.34047 0.0
H140 H 0.78092 0.64578 0.40559 0.0
H141 H 0.90131 0.61325 0.37404 0.0
O142 O 0.83698 0.71377 0.37347 0.0
H143 H 0.90512 0.72406 0.292 0.0
H144 H 0.87443 0.76625 0.3516 0.0
H145 H 0.8749 0.77924 0.31291 0.0
H146 H 0.89034 0.75809 0.28279 0.0
H147 H 0.90416 0.71157 0.33089 0.0
H148 H 0.93806 0.78647 0.37686 0.0
H149 H 0.92138 0.80341 0.40927 0.0
O150 O 0.86004 0.73906 0.37707 0.0
C151 C 0.87528 0.70427 0.41492 0.0
C152 C 0.89784 0.78049 0.4122 0.0
C153 C 0.92456 0.77979 0.38442 0.0
N154 N 0.89926 0.75312 0.38545 0.0
C155 C 0.89007 0.76226 0.40338 0.0
C156 C 0.91637 0.76157 0.37605 0.0
C157 C 0.91519 0.78929 0.4026 0.0
C158 C 0.88024 0.65752 0.35518 0.0
N159 N 0.86895 0.66273 0.37355 0.0
C160 C 0.89203 0.63966 0.35505 0.0
C161 C 0.89223 0.62712 0.3739 0.0
C162 C 0.8807 0.63256 0.39258 0.0
C163 C 0.86911 0.65054 0.39212 0.0
C164 C 0.80539 0.64579 0.38149 0.0
C165 C 0.81847 0.68156 0.40185 0.0
C166 C 0.8228 0.65613 0.37395 0.0
N167 N 0.82919 0.67371 0.38421 0.0
C168 C 0.80098 0.67164 0.40984 0.0
C169 C 0.79444 0.65362 0.39958 0.0
C170 C 0.84165 0.73259 0.37597 0.0
C171 C 0.89841 0.73344 0.30499 0.0
C172 C 0.88113 0.75693 0.33859 0.0
C173 C 0.8814 0.76439 0.31671 0.0
C174 C 0.89008 0.75252 0.29983 0.0
N175 N 0.88933 0.7382 0.34352 0.0
C176 C 0.8979 0.72649 0.32705 0.0
Co177 Co 0.31201 0.85268 0.37433 0.0
Co178 Co 0.27223 0.88756 0.37476 0.0
O179 O 0.29799 0.877 0.36302 0.0
C180 C 0.30439 0.84436 0.32694 0.0
O181 O 0.2857 0.85089 0.33067 0.0
C182 C 0.29999 0.92338 0.37842 0.0
O183 O 0.31335 0.91167 0.38872 0.0
O184 O 0.2828 0.88616 0.40587 0.0
O185 O 0.30663 0.86123 0.40586 0.0
H186 H 0.21207 0.88949 0.42709 0.0
H187 H 0.33275 0.87979 0.34162 0.0
O188 O 0.31739 0.84376 0.34283 0.0
H189 H 0.37693 0.88012 0.40847 0.0
H190 H 0.36819 0.79989 0.37436 0.0
H191 H 0.3043 0.82271 0.41061 0.0
H192 H 0.34527 0.85952 0.40767 0.0
H193 H 0.35009 0.83072 0.36097 0.0
O194 O 0.28295 0.91606 0.37181 0.0
H195 H 0.24439 0.87585 0.41177 0.0
H196 H 0.24557 0.92304 0.36293 0.0
H197 H 0.32199 0.79189 0.42468 0.0
H198 H 0.36437 0.90049 0.34164 0.0
H199 H 0.35417 0.7803 0.4065 0.0
H200 H 0.38668 0.90077 0.37526 0.0
O201 O 0.28621 0.83635 0.37427 0.0
H202 H 0.2761 0.90484 0.29304 0.0
H203 H 0.23375 0.87384 0.35232 0.0
H204 H 0.22089 0.87446 0.31358 0.0
H205 H 0.24212 0.89005 0.28363 0.0
H206 H 0.28846 0.90373 0.33197 0.0
H207 H 0.21334 0.93729 0.37782 0.0
H208 H 0.19633 0.92043 0.41008 0.0
O209 O 0.26089 0.85938 0.37781 0.0
C210 C 0.29559 0.87454 0.41585 0.0
C211 C 0.2193 0.89693 0.41298 0.0
C212 C 0.22002 0.92377 0.38535 0.0
N213 N 0.24675 0.89853 0.38636 0.0
C214 C 0.23757 0.88924 0.40419 0.0
C215 C 0.23829 0.91566 0.37701 0.0
C216 C 0.21048 0.9143 0.40344 0.0
C217 C 0.34247 0.8797 0.35624 0.0
N218 N 0.33723 0.86837 0.37457 0.0
C219 C 0.36032 0.89151 0.35619 0.0
C220 C 0.37281 0.89168 0.37507 0.0
C221 C 0.36735 0.8801 0.39371 0.0
C222 C 0.34938 0.8685 0.39318 0.0
C223 C 0.3542 0.80481 0.38245 0.0
C224 C 0.31837 0.81783 0.40272 0.0
C225 C 0.34387 0.82222 0.37491 0.0
N226 N 0.32625 0.82858 0.38512 0.0
C227 C 0.32828 0.80034 0.41071 0.0
C228 C 0.34633 0.79383 0.40049 0.0
C229 C 0.26737 0.841 0.37669 0.0
C230 C 0.26668 0.89806 0.30596 0.0
C231 C 0.2431 0.88061 0.33938 0.0
C232 C 0.23572 0.88096 0.31748 0.0
C233 C 0.24763 0.88973 0.30068 0.0
N234 N 0.26181 0.88881 0.34442 0.0
C235 C 0.27356 0.89747 0.32805 0.0
Co236 Co 0.14623 0.68755 0.62405 0.0
Co237 Co 0.11177 0.72768 0.62347 0.0
O238 O 0.12206 0.70185 0.63532 0.0
C239 C 0.15461 0.69506 0.67144 0.0
O240 O 0.14829 0.71383 0.66773 0.0
C241 C 0.07558 0.70038 0.62003 0.0
O242 O 0.08705 0.68688 0.60964 0.0
O243 O 0.11295 0.71693 0.59242 0.0
O244 O 0.13779 0.69301 0.59251 0.0
H245 H 0.11045 0.7876 0.5708 0.0
H246 H 0.11884 0.66714 0.65672 0.0
O247 O 0.15505 0.68207 0.65556 0.0
H248 H 0.11803 0.62296 0.58989 0.0
H249 H 0.19831 0.63069 0.62407 0.0
H250 H 0.17634 0.69489 0.58781 0.0
H251 H 0.13903 0.65436 0.59071 0.0
H252 H 0.1677 0.6492 0.63744 0.0
O253 O 0.08315 0.71732 0.6266 0.0
H254 H 0.12371 0.75517 0.58625 0.0
H255 H 0.07666 0.75484 0.63527 0.0
H256 H 0.20693 0.6768 0.57377 0.0
H257 H 0.09774 0.63579 0.65668 0.0
H258 H 0.21809 0.64446 0.59195 0.0
H259 H 0.09721 0.61348 0.62306 0.0
O260 O 0.16287 0.71316 0.62413 0.0
H261 H 0.09469 0.72446 0.70528 0.0
H262 H 0.12606 0.76608 0.64562 0.0
H263 H 0.12574 0.77916 0.68428 0.0
H264 H 0.10996 0.75829 0.71442 0.0
H265 H 0.09552 0.71188 0.66642 0.0
H266 H 0.0628 0.78719 0.62026 0.0
H267 H 0.07977 0.80383 0.58784 0.0
O268 O 0.14008 0.73865 0.62025 0.0
C269 C 0.12452 0.70407 0.58248 0.0
C270 C 0.10296 0.78054 0.58498 0.0
C271 C 0.0762 0.78029 0.61272 0.0
N272 N 0.10108 0.75323 0.61176 0.0
C273 C 0.11043 0.76221 0.59383 0.0
C274 C 0.0841 0.76196 0.62112 0.0
C275 C 0.08573 0.78962 0.59453 0.0
C276 C 0.11882 0.65742 0.64211 0.0
N277 N 0.13024 0.66251 0.62379 0.0
C278 C 0.10679 0.63973 0.64215 0.0
C279 C 0.10648 0.62723 0.62327 0.0
C280 C 0.11814 0.63254 0.60464 0.0
C281 C 0.12997 0.65036 0.60519 0.0
C282 C 0.19357 0.64475 0.61598 0.0
C283 C 0.18104 0.68075 0.59571 0.0
C284 C 0.17629 0.65531 0.62351 0.0
N285 N 0.17017 0.67301 0.61329 0.0
C286 C 0.1984 0.67061 0.58773 0.0
C287 C 0.20467 0.65248 0.59795 0.0
C288 C 0.1584 0.73202 0.62151 0.0
C289 C 0.10156 0.73372 0.69228 0.0
C290 C 0.11921 0.75689 0.65865 0.0
C291 C 0.11903 0.7644 0.6805 0.0
C292 C 0.11016 0.75269 0.6974 0.0
N293 N 0.11075 0.73827 0.65375 0.0
C294 C 0.10199 0.72672 0.67023 0.0
Co295 Co 0.31124 0.14634 0.62389 0.0
Co296 Co 0.27123 0.11175 0.62402 0.0
O297 O 0.2971 0.12222 0.63552 0.0
C298 C 0.30401 0.155 0.67129 0.0
O299 O 0.28521 0.14872 0.6677 0.0
C300 C 0.29866 0.07568 0.62074 0.0
O301 O 0.31202 0.08713 0.6101 0.0
O302 O 0.28173 0.1127 0.59286 0.0
O303 O 0.30556 0.13764 0.59245 0.0
H304 H 0.21094 0.1097 0.57186 0.0
H305 H 0.33199 0.11926 0.65663 0.0
O306 O 0.31692 0.15539 0.65531 0.0
H307 H 0.37568 0.11813 0.58941 0.0
H308 H 0.36787 0.19864 0.623 0.0
H309 H 0.30352 0.17615 0.58746 0.0
H310 H 0.34419 0.13901 0.59033 0.0
H311 H 0.3496 0.16805 0.63678 0.0
O312 O 0.28172 0.0832 0.62736 0.0
H313 H 0.24341 0.12325 0.58691 0.0
H314 H 0.24429 0.07664 0.63642 0.0
H315 H 0.32137 0.20673 0.57303 0.0
H316 H 0.36343 0.09829 0.65649 0.0
H317 H 0.35379 0.21816 0.59084 0.0
H318 H 0.38549 0.09761 0.62268 0.0
O319 O 0.28558 0.16287 0.62404 0.0
H320 H 0.27511 0.09539 0.70596 0.0
H321 H 0.23293 0.12608 0.64635 0.0
H322 H 0.22013 0.12603 0.68512 0.0
H323 H 0.24128 0.11059 0.71524 0.0
H324 H 0.2874 0.09594 0.66699 0.0
H325 H 0.21191 0.06249 0.62181 0.0
H326 H 0.19497 0.0791 0.58936 0.0
O327 O 0.26011 0.13999 0.62059 0.0
C328 C 0.29446 0.12423 0.58267 0.0
C329 C 0.21813 0.10237 0.58606 0.0
C330 C 0.21869 0.07586 0.61408 0.0
N331 N 0.24563 0.10086 0.61264 0.0
C332 C 0.23648 0.11001 0.59469 0.0
C333 C 0.23704 0.08392 0.62225 0.0
C334 C 0.20919 0.08519 0.59587 0.0
C335 C 0.3416 0.11917 0.64192 0.0
N336 N 0.33633 0.13043 0.62356 0.0
C337 C 0.35934 0.10721 0.64191 0.0
C338 C 0.3717 0.10681 0.62293 0.0
C339 C 0.3662 0.11832 0.60425 0.0
C340 C 0.34834 0.13008 0.60485 0.0
C341 C 0.35378 0.1938 0.61507 0.0
C342 C 0.31769 0.18097 0.5952 0.0
C343 C 0.34335 0.17652 0.62283 0.0
N344 N 0.32561 0.17025 0.61281 0.0
C345 C 0.3277 0.19832 0.587 0.0
C346 C 0.34588 0.20473 0.59702 0.0
C347 C 0.26672 0.15834 0.62162 0.0
C348 C 0.26573 0.10211 0.69297 0.0
C349 C 0.24224 0.11937 0.65936 0.0
C350 C 0.23489 0.11935 0.68128 0.0
C351 C 0.24676 0.11067 0.69817 0.0
N352 N 0.26086 0.11095 0.65439 0.0
C353 C 0.27257 0.10238 0.67086 0.0
Co354 Co 0.85325 0.31228 0.62429 0.0
Co355 Co 0.88816 0.27254 0.62421 0.0
O356 O 0.87748 0.29827 0.63581 0.0
C357 C 0.84463 0.30417 0.67146 0.0
O358 O 0.85109 0.28551 0.66739 0.0
C359 C 0.92378 0.30052 0.62086 0.0
O360 O 0.91199 0.31381 0.61057 0.0
O361 O 0.88692 0.28307 0.5931 0.0
O362 O 0.86215 0.30709 0.59281 0.0
H363 H 0.89063 0.21233 0.57198 0.0
H364 H 0.87995 0.33291 0.65751 0.0
O365 O 0.84405 0.31739 0.65579 0.0
H366 H 0.88092 0.37745 0.59096 0.0
H367 H 0.80037 0.36837 0.6241 0.0
H368 H 0.82369 0.3048 0.58755 0.0
H369 H 0.8604 0.34573 0.59128 0.0
H370 H 0.83107 0.3502 0.63774 0.0
O371 O 0.9166 0.28338 0.62735 0.0
H372 H 0.87679 0.24463 0.58714 0.0
H373 H 0.92365 0.24601 0.63636 0.0
H374 H 0.79301 0.32256 0.57324 0.0
H375 H 0.90056 0.36458 0.65798 0.0
H376 H 0.78117 0.35459 0.59157 0.0
H377 H 0.90117 0.38707 0.62451 0.0
O378 O 0.83697 0.28647 0.62392 0.0
H379 H 0.90485 0.27659 0.70607 0.0
H380 H 0.8744 0.23406 0.64661 0.0
H381 H 0.87475 0.22128 0.68538 0.0
H382 H 0.89007 0.2426 0.71543 0.0
H383 H 0.90402 0.28887 0.6671 0.0
H384 H 0.93809 0.2138 0.62163 0.0
H385 H 0.9215 0.1967 0.58926 0.0
O386 O 0.86003 0.26111 0.62095 0.0
C387 C 0.87549 0.29595 0.58298 0.0
C388 C 0.89795 0.21959 0.58614 0.0
C389 C 0.9246 0.22044 0.61399 0.0
N390 N 0.89928 0.24708 0.61274 0.0
C391 C 0.89015 0.23785 0.59484 0.0
C392 C 0.91638 0.23869 0.62223 0.0
C393 C 0.91529 0.21085 0.59583 0.0
C394 C 0.88 0.34271 0.64296 0.0
N395 N 0.86889 0.33754 0.62444 0.0
C396 C 0.89176 0.36058 0.64329 0.0
C397 C 0.89211 0.37318 0.62449 0.0
C398 C 0.88076 0.36779 0.60566 0.0
C399 C 0.8692 0.34979 0.60592 0.0
C400 C 0.80539 0.35445 0.61595 0.0
C401 C 0.81869 0.3188 0.59552 0.0
C402 C 0.82274 0.34408 0.62363 0.0
N403 N 0.82923 0.32656 0.61333 0.0
C404 C 0.80128 0.32875 0.58739 0.0
C405 C 0.79463 0.34671 0.59769 0.0
C406 C 0.84164 0.26762 0.62167 0.0
C407 C 0.8982 0.26713 0.69311 0.0
C408 C 0.88106 0.24345 0.65959 0.0
C409 C 0.88126 0.23611 0.68151 0.0
C410 C 0.88987 0.24807 0.69835 0.0
N411 N 0.88926 0.26216 0.65457 0.0
C412 C 0.89776 0.27396 0.671 0.0
Co413 Co 0.68855 0.85328 0.62398 0.0
Co414 Co 0.72839 0.88808 0.62437 0.0
O415 O 0.70252 0.87747 0.63571 0.0
C416 C 0.69565 0.84458 0.67137 0.0
O417 O 0.71442 0.85099 0.66787 0.0
C418 C 0.70084 0.92406 0.62091 0.0
O419 O 0.6876 0.91257 0.61015 0.0
O420 O 0.71805 0.8871 0.59315 0.0
O421 O 0.69433 0.86207 0.59259 0.0
H422 H 0.78897 0.89041 0.57264 0.0
H423 H 0.66753 0.88021 0.65666 0.0
O424 O 0.68279 0.84415 0.65535 0.0
H425 H 0.62415 0.88128 0.5892 0.0
H426 H 0.63213 0.80076 0.62269 0.0
H427 H 0.69654 0.82357 0.58751 0.0
H428 H 0.65571 0.86053 0.59025 0.0
H429 H 0.65024 0.83138 0.63664 0.0
O430 O 0.71775 0.91658 0.62768 0.0
H431 H 0.75645 0.87674 0.58742 0.0
H432 H 0.75511 0.92329 0.637 0.0
H433 H 0.67885 0.79296 0.5729 0.0
H434 H 0.63601 0.90105 0.65639 0.0
H435 H 0.6464 0.78138 0.59053 0.0
H436 H 0.6141 0.90171 0.62246 0.0
O437 O 0.7143 0.83686 0.62422 0.0
H438 H 0.72401 0.90434 0.70631 0.0
H439 H 0.76662 0.87386 0.64694 0.0
H440 H 0.7792 0.87391 0.6858 0.0
H441 H 0.75783 0.88924 0.7158 0.0
H442 H 0.71193 0.9038 0.66726 0.0
H443 H 0.78754 0.93756 0.62265 0.0
H444 H 0.80473 0.92104 0.5903 0.0
O445 O 0.73964 0.8599 0.62098 0.0
C446 C 0.70542 0.87552 0.58288 0.0
C447 C 0.78166 0.8977 0.5868 0.0
C448 C 0.78084 0.92418 0.61485 0.0
N449 N 0.754 0.89909 0.61317 0.0
C450 C 0.76328 0.89 0.59528 0.0
C451 C 0.76247 0.91605 0.62287 0.0
C452 C 0.79049 0.9149 0.5967 0.0
C453 C 0.65798 0.88028 0.6419 0.0
N454 N 0.66339 0.86908 0.62355 0.0
C455 C 0.64019 0.89217 0.64182 0.0
C456 C 0.62793 0.89255 0.62277 0.0
C457 C 0.63356 0.8811 0.60409 0.0
C458 C 0.65147 0.86941 0.60477 0.0
C459 C 0.64624 0.80568 0.61484 0.0
C460 C 0.68236 0.81869 0.59517 0.0
C461 C 0.65658 0.82297 0.62269 0.0
N462 N 0.67433 0.82932 0.61278 0.0
C463 C 0.67245 0.80132 0.58688 0.0
C464 C 0.65425 0.79482 0.59679 0.0
C465 C 0.73315 0.84151 0.6219 0.0
C466 C 0.73348 0.89767 0.69337 0.0
C467 C 0.75721 0.88052 0.6599 0.0
C468 C 0.76444 0.88055 0.68187 0.0
C469 C 0.75245 0.88917 0.69869 0.0
N470 N 0.73859 0.88889 0.65482 0.0
C471 C 0.72677 0.8974 0.67122 0.0
Co472 Co 0.85259 0.68702 0.62406 0.0
Co473 Co 0.88729 0.72696 0.62332 0.0
O474 O 0.87692 0.70118 0.63517 0.0
C475 C 0.84461 0.69469 0.6715 0.0
O476 O 0.85093 0.71343 0.66759 0.0
C477 C 0.92331 0.69946 0.61965 0.0
O478 O 0.91167 0.68596 0.60948 0.0
O479 O 0.88587 0.71625 0.59227 0.0
O480 O 0.86093 0.69242 0.59243 0.0
H481 H 0.88864 0.78695 0.57074 0.0
H482 H 0.88003 0.66645 0.65659 0.0
O483 O 0.84394 0.68164 0.65567 0.0
H484 H 0.8802 0.62224 0.58977 0.0
H485 H 0.80015 0.63052 0.62451 0.0
H486 H 0.82236 0.6945 0.58798 0.0
H487 H 0.85941 0.65378 0.5907 0.0
H488 H 0.83094 0.64884 0.63766 0.0
O489 O 0.91588 0.71646 0.62622 0.0
H490 H 0.87531 0.75455 0.5862 0.0
H491 H 0.92258 0.75394 0.63497 0.0
H492 H 0.79158 0.67659 0.57415 0.0
H493 H 0.90091 0.63496 0.65643 0.0
H494 H 0.7803 0.64435 0.59247 0.0
H495 H 0.90111 0.61263 0.62282 0.0
O496 O 0.83611 0.71273 0.6242 0.0
H497 H 0.90473 0.72345 0.70501 0.0
H498 H 0.87333 0.7654 0.64566 0.0
H499 H 0.87388 0.77836 0.68436 0.0
H500 H 0.88967 0.75733 0.71435 0.0
H501 H 0.90369 0.71099 0.66612 0.0
H502 H 0.93651 0.78626 0.61994 0.0
H503 H 0.91946 0.80302 0.58766 0.0
O504 O 0.85904 0.7381 0.6203 0.0
C505 C 0.87421 0.70344 0.58236 0.0
C506 C 0.89617 0.77983 0.58487 0.0
C507 C 0.92305 0.77943 0.61246 0.0
N508 N 0.89804 0.75247 0.61159 0.0
C509 C 0.88865 0.76152 0.59373 0.0
C510 C 0.91511 0.76111 0.62087 0.0
C511 C 0.91347 0.78883 0.59435 0.0
C512 C 0.8799 0.65672 0.64197 0.0
N513 N 0.86843 0.66189 0.62373 0.0
C514 C 0.89182 0.63895 0.64195 0.0
C515 C 0.89194 0.62644 0.62308 0.0
C516 C 0.88022 0.63183 0.60452 0.0
C517 C 0.86851 0.64973 0.60513 0.0
C518 C 0.80493 0.64453 0.61636 0.0
C519 C 0.81761 0.68041 0.59594 0.0
C520 C 0.82232 0.65499 0.62377 0.0
N521 N 0.82851 0.67263 0.61348 0.0
C522 C 0.80014 0.67037 0.58808 0.0
C523 C 0.79381 0.65229 0.59838 0.0
C524 C 0.84068 0.73157 0.6216 0.0
C525 C 0.89787 0.73279 0.69208 0.0
C526 C 0.88019 0.75614 0.65861 0.0
C527 C 0.8805 0.76358 0.68049 0.0
C528 C 0.88938 0.75178 0.69731 0.0
N529 N 0.88854 0.73749 0.65361 0.0
C530 C 0.89731 0.72585 0.67001 0.0
Co531 Co 0.31128 0.85278 0.62446 0.0
Co532 Co 0.27164 0.88781 0.62456 0.0
O533 O 0.29741 0.87708 0.63606 0.0
C534 C 0.30398 0.84425 0.67186 0.0
O535 O 0.28525 0.85074 0.6683 0.0
C536 C 0.29945 0.92357 0.62112 0.0
O537 O 0.31275 0.91187 0.61072 0.0
O538 O 0.28211 0.88668 0.59341 0.0
O539 O 0.3057 0.86153 0.59302 0.0
H540 H 0.21133 0.89035 0.57248 0.0
H541 H 0.33232 0.87965 0.65718 0.0
O542 O 0.31686 0.8437 0.65587 0.0
H543 H 0.37601 0.88029 0.58995 0.0
H544 H 0.36738 0.79991 0.6236 0.0
H545 H 0.30326 0.82303 0.58803 0.0
H546 H 0.34431 0.85974 0.59089 0.0
H547 H 0.3494 0.83067 0.63737 0.0
O548 O 0.28243 0.91627 0.62777 0.0
H549 H 0.24369 0.87653 0.5875 0.0
H550 H 0.24507 0.9232 0.63693 0.0
H551 H 0.32082 0.79228 0.5736 0.0
H552 H 0.36398 0.90029 0.65703 0.0
H553 H 0.35312 0.78054 0.59142 0.0
H554 H 0.38604 0.90073 0.62321 0.0
O555 O 0.28543 0.83651 0.62462 0.0
H556 H 0.2758 0.90429 0.70646 0.0
H557 H 0.23324 0.87389 0.64699 0.0
H558 H 0.22051 0.87412 0.68579 0.0
H559 H 0.24185 0.88942 0.71584 0.0
H560 H 0.28802 0.90357 0.66746 0.0
H561 H 0.21279 0.93762 0.62234 0.0
H562 H 0.19566 0.92112 0.58994 0.0
O563 O 0.26024 0.85969 0.62121 0.0
C564 C 0.29473 0.87502 0.58323 0.0
C565 C 0.2186 0.89764 0.58665 0.0
C566 C 0.21944 0.92418 0.61462 0.0
N567 N 0.24615 0.89893 0.61319 0.0
C568 C 0.2369 0.88985 0.59527 0.0
C569 C 0.23773 0.91597 0.62278 0.0
C570 C 0.20984 0.91491 0.59645 0.0
C571 C 0.34194 0.87963 0.64248 0.0
N572 N 0.33654 0.86842 0.62412 0.0
C573 C 0.3598 0.89141 0.64246 0.0
C574 C 0.37216 0.89167 0.62347 0.0
C575 C 0.36653 0.88021 0.60479 0.0
C576 C 0.34855 0.86864 0.60541 0.0
C577 C 0.35334 0.80489 0.61566 0.0
C578 C 0.31738 0.81808 0.59578 0.0
C579 C 0.34307 0.82227 0.62342 0.0
N580 N 0.3254 0.82871 0.61339 0.0
C581 C 0.32722 0.80063 0.58758 0.0
C582 C 0.34533 0.79404 0.5976 0.0
C583 C 0.26662 0.84127 0.6222 0.0
C584 C 0.26633 0.89764 0.6935 0.0
C585 C 0.24263 0.88054 0.65997 0.0
C586 C 0.23532 0.88067 0.68191 0.0
C587 C 0.2473 0.88926 0.69876 0.0
N588 N 0.26132 0.88878 0.65495 0.0
C589 C 0.27313 0.89727 0.67137 0.0
Co590 Co 0.14656 0.31153 0.6244 0.0
Co591 Co 0.11125 0.27216 0.62475 0.0
O592 O 0.12225 0.29784 0.63617 0.0
C593 C 0.15532 0.30414 0.67172 0.0
O594 O 0.14869 0.28545 0.66815 0.0
C595 C 0.07564 0.3002 0.62158 0.0
O596 O 0.08721 0.31331 0.61074 0.0
O597 O 0.11225 0.28262 0.59358 0.0
O598 O 0.13759 0.306 0.59302 0.0
H599 H 0.10782 0.21187 0.57268 0.0
H600 H 0.12003 0.33277 0.65729 0.0
O601 O 0.15587 0.31704 0.65575 0.0
H602 H 0.11936 0.37647 0.59007 0.0
H603 H 0.19986 0.36722 0.62318 0.0
H604 H 0.17603 0.30329 0.58777 0.0
H605 H 0.13966 0.34461 0.59087 0.0
H606 H 0.16903 0.34949 0.63715 0.0
O607 O 0.08293 0.28318 0.62826 0.0
H608 H 0.12205 0.2441 0.5876 0.0
H609 H 0.07571 0.2459 0.63739 0.0
H610 H 0.20684 0.3206 0.57313 0.0
H611 H 0.09964 0.36459 0.65728 0.0
H612 H 0.21894 0.35281 0.59088 0.0
H613 H 0.09919 0.38666 0.62347 0.0
O614 O 0.16263 0.28557 0.62444 0.0
H615 H 0.09536 0.27638 0.70679 0.0
H616 H 0.12501 0.23362 0.64703 0.0
H617 H 0.12491 0.22085 0.68582 0.0
H618 H 0.10999 0.24229 0.71601 0.0
H619 H 0.09595 0.28864 0.66781 0.0
H620 H 0.06089 0.21377 0.62291 0.0
H621 H 0.07702 0.1965 0.59037 0.0
O622 O 0.13926 0.26053 0.62116 0.0
C623 C 0.12396 0.29514 0.58332 0.0
C624 C 0.1007 0.21921 0.58691 0.0
C625 C 0.07434 0.22029 0.61509 0.0
N626 N 0.09983 0.24676 0.61347 0.0
C627 C 0.10872 0.23743 0.59547 0.0
C628 C 0.08278 0.2385 0.62319 0.0
C629 C 0.0834 0.21061 0.59683 0.0
C630 C 0.12004 0.34239 0.64259 0.0
N631 N 0.13111 0.3369 0.62415 0.0
C632 C 0.10841 0.36034 0.64265 0.0
C633 C 0.10814 0.37271 0.62366 0.0
C634 C 0.11945 0.36699 0.60491 0.0
C635 C 0.13088 0.34892 0.60545 0.0
C636 C 0.19472 0.35322 0.61528 0.0
C637 C 0.18114 0.31737 0.59548 0.0
C638 C 0.17731 0.34309 0.62314 0.0
N639 N 0.17067 0.32547 0.61316 0.0
C640 C 0.19862 0.32707 0.58717 0.0
C641 C 0.20541 0.34513 0.59715 0.0
C642 C 0.15773 0.26679 0.62204 0.0
C643 C 0.10185 0.26687 0.69377 0.0
C644 C 0.11853 0.24306 0.66008 0.0
C645 C 0.11848 0.23573 0.68201 0.0
C646 C 0.11009 0.24776 0.69893 0.0
N647 N 0.11042 0.26183 0.65514 0.0
C648 C 0.10214 0.2737 0.67165 0.0
Co649 Co 0.68879 0.14701 0.62362 0.0
Co650 Co 0.72826 0.11179 0.62379 0.0
O651 O 0.70255 0.12267 0.63528 0.0
C652 C 0.69622 0.15568 0.67096 0.0
O653 O 0.71491 0.14908 0.66739 0.0
C654 C 0.70029 0.07613 0.62043 0.0
O655 O 0.68705 0.08784 0.60995 0.0
O656 O 0.71779 0.11291 0.59262 0.0
O657 O 0.69427 0.13813 0.59222 0.0
H658 H 0.78857 0.10885 0.57171 0.0
H659 H 0.66766 0.12035 0.65648 0.0
O660 O 0.68331 0.15622 0.655 0.0
H661 H 0.62382 0.11978 0.58937 0.0
H662 H 0.633 0.20021 0.62267 0.0
H663 H 0.69691 0.17659 0.58706 0.0
H664 H 0.65565 0.14013 0.59015 0.0
H665 H 0.65081 0.16937 0.63652 0.0
O666 O 0.71734 0.08339 0.62707 0.0
H667 H 0.75627 0.12286 0.5867 0.0
H668 H 0.75466 0.07628 0.63622 0.0
H669 H 0.67952 0.2074 0.57255 0.0
H670 H 0.63587 0.09991 0.65649 0.0
H671 H 0.64732 0.21939 0.5904 0.0
H672 H 0.61373 0.09951 0.62273 0.0
O673 O 0.71471 0.16314 0.62367 0.0
H674 H 0.72402 0.09553 0.70573 0.0
H675 H 0.76676 0.12553 0.64618 0.0
H676 H 0.77948 0.12532 0.68498 0.0
H677 H 0.75805 0.11023 0.71507 0.0
H678 H 0.7118 0.09622 0.66673 0.0
H679 H 0.78685 0.06167 0.62167 0.0
H680 H 0.80407 0.07803 0.58923 0.0
O681 O 0.73982 0.13984 0.62038 0.0
C682 C 0.70518 0.12458 0.58244 0.0
C683 C 0.78125 0.10162 0.5859 0.0
C684 C 0.78027 0.07513 0.61392 0.0
N685 N 0.7537 0.10051 0.61243 0.0
C686 C 0.763 0.10952 0.59449 0.0
C687 C 0.76203 0.08345 0.62206 0.0
C688 C 0.78993 0.08432 0.59572 0.0
C689 C 0.65802 0.12038 0.6418 0.0
N690 N 0.66344 0.1315 0.62339 0.0
C691 C 0.64007 0.10872 0.64187 0.0
C692 C 0.62767 0.10849 0.62292 0.0
C693 C 0.63333 0.11985 0.60419 0.0
C694 C 0.65139 0.1313 0.60471 0.0
C695 C 0.64699 0.19511 0.61473 0.0
C696 C 0.68283 0.18165 0.59482 0.0
C697 C 0.65716 0.1777 0.62252 0.0
N698 N 0.67478 0.17112 0.61249 0.0
C699 C 0.67309 0.19913 0.58658 0.0
C700 C 0.65503 0.20586 0.59662 0.0
C701 C 0.73351 0.15829 0.6213 0.0
C702 C 0.73352 0.10209 0.69275 0.0
C703 C 0.75732 0.11897 0.65918 0.0
C704 C 0.76463 0.11886 0.68111 0.0
C705 C 0.75261 0.11037 0.69799 0.0
N706 N 0.73859 0.11082 0.65418 0.0
C707 C 0.72673 0.10244 0.67062 0.0
Co708 Co 0.85287 0.31121 0.37393 0.0
Co709 Co 0.88805 0.27173 0.37489 0.0
O710 O 0.87729 0.29725 0.3628 0.0
C711 C 0.84471 0.30305 0.32664 0.0
O712 O 0.85124 0.28441 0.33067 0.0
C713 C 0.92375 0.2997 0.378 0.0
O714 O 0.91214 0.31301 0.3885 0.0
O715 O 0.88671 0.28274 0.40583 0.0
O716 O 0.86144 0.30621 0.40553 0.0
H717 H 0.89061 0.2123 0.42818 0.0
H718 H 0.8799 0.33181 0.34102 0.0
O719 O 0.84398 0.31622 0.34234 0.0
H720 H 0.87984 0.37666 0.40734 0.0
H721 H 0.79972 0.36705 0.37326 0.0
H722 H 0.82294 0.30367 0.41029 0.0
H723 H 0.85944 0.34485 0.40688 0.0
H724 H 0.83067 0.349 0.36009 0.0
O725 O 0.91646 0.28261 0.37156 0.0
H726 H 0.8767 0.24433 0.41242 0.0
H727 H 0.92366 0.24516 0.36331 0.0
H728 H 0.79202 0.32131 0.42414 0.0
H729 H 0.90039 0.36356 0.3407 0.0
H730 H 0.78023 0.35324 0.40557 0.0
H731 H 0.90047 0.38621 0.37406 0.0
O732 O 0.83673 0.2853 0.37415 0.0
H733 H 0.9049 0.27454 0.29301 0.0
H734 H 0.87446 0.23286 0.35319 0.0
H735 H 0.87495 0.21945 0.31467 0.0
H736 H 0.89027 0.24035 0.28426 0.0
H737 H 0.90392 0.28745 0.33173 0.0
H738 H 0.93818 0.21322 0.37864 0.0
H739 H 0.92158 0.19653 0.41125 0.0
O740 O 0.85996 0.26025 0.37829 0.0
C741 C 0.87492 0.29548 0.41565 0.0
C742 C 0.89794 0.21939 0.41392 0.0
C743 C 0.92466 0.21992 0.38613 0.0
N744 N 0.89925 0.24649 0.38685 0.0
C745 C 0.8901 0.23749 0.40488 0.0
C746 C 0.91639 0.23802 0.37755 0.0
C747 C 0.91533 0.21056 0.40442 0.0
C748 C 0.87973 0.34167 0.35553 0.0
N749 N 0.8684 0.33654 0.37389 0.0
C750 C 0.89142 0.35959 0.35528 0.0
C751 C 0.89148 0.37228 0.37401 0.0
C752 C 0.87991 0.36693 0.39269 0.0
C753 C 0.86842 0.34888 0.39235 0.0
C754 C 0.80473 0.35317 0.38152 0.0
C755 C 0.81797 0.31763 0.40222 0.0
C756 C 0.8222 0.34287 0.3741 0.0
N757 N 0.82867 0.3254 0.38453 0.0
C758 C 0.80042 0.32752 0.41009 0.0
C759 C 0.7938 0.34542 0.39965 0.0
C760 C 0.84153 0.26655 0.37698 0.0
C761 C 0.89825 0.26527 0.30613 0.0
C762 C 0.88111 0.24206 0.34005 0.0
C763 C 0.88139 0.23437 0.31827 0.0
C764 C 0.89 0.24609 0.30122 0.0
N765 N 0.88923 0.26089 0.34473 0.0
C766 C 0.89773 0.27245 0.3281 0.0
Co767 Co 0.68888 0.85329 0.3739 0.0
Co768 Co 0.72832 0.88852 0.37432 0.0
O769 O 0.70265 0.87774 0.36259 0.0
C770 C 0.69609 0.84524 0.32635 0.0
O771 O 0.71482 0.85177 0.32988 0.0
C772 C 0.70039 0.92422 0.37782 0.0
O773 O 0.68722 0.91262 0.38854 0.0
O774 O 0.71771 0.88718 0.40543 0.0
O775 O 0.69445 0.86172 0.40543 0.0
H776 H 0.78841 0.89109 0.42672 0.0
H777 H 0.66771 0.88045 0.34157 0.0
O778 O 0.68328 0.8445 0.3424 0.0
H779 H 0.62403 0.88007 0.40881 0.0
H780 H 0.63307 0.8001 0.37418 0.0
H781 H 0.69711 0.8232 0.40993 0.0
H782 H 0.65583 0.85969 0.40757 0.0
H783 H 0.65084 0.83112 0.36079 0.0
O784 O 0.71741 0.91692 0.37114 0.0
H785 H 0.75619 0.87716 0.41144 0.0
H786 H 0.75474 0.92413 0.36234 0.0
H787 H 0.67975 0.79219 0.42399 0.0
H788 H 0.63596 0.90093 0.34202 0.0
H789 H 0.6475 0.78046 0.40606 0.0
H790 H 0.6139 0.90086 0.37584 0.0
O791 O 0.7148 0.83716 0.37349 0.0
H792 H 0.72453 0.90542 0.2925 0.0
H793 H 0.76692 0.87492 0.35205 0.0
H794 H 0.77987 0.87546 0.31335 0.0
H795 H 0.75863 0.89081 0.28326 0.0
H796 H 0.71208 0.90439 0.33139 0.0
H797 H 0.78687 0.93866 0.3772 0.0
H798 H 0.80396 0.92205 0.40956 0.0
O799 O 0.73984 0.86043 0.37756 0.0
C800 C 0.70521 0.87526 0.41543 0.0
C801 C 0.78115 0.89842 0.41256 0.0
C802 C 0.78026 0.92513 0.38478 0.0
N803 N 0.7537 0.89972 0.3859 0.0
C804 C 0.76293 0.89057 0.4038 0.0
C805 C 0.76206 0.91686 0.37647 0.0
C806 C 0.78985 0.9158 0.40294 0.0
C807 C 0.6581 0.88021 0.35628 0.0
N808 N 0.66355 0.86881 0.37448 0.0
C809 C 0.64018 0.8919 0.35647 0.0
C810 C 0.62782 0.89187 0.37546 0.0
C811 C 0.6335 0.88022 0.39397 0.0
C812 C 0.65155 0.86874 0.39319 0.0
C813 C 0.64709 0.80508 0.38215 0.0
C814 C 0.683 0.81825 0.40214 0.0
C815 C 0.65724 0.8226 0.37461 0.0
N816 N 0.6749 0.82903 0.38469 0.0
C817 C 0.67328 0.80066 0.41013 0.0
C818 C 0.65519 0.79407 0.40005 0.0
C819 C 0.73357 0.84199 0.37617 0.0
C820 C 0.73396 0.89875 0.30547 0.0
C821 C 0.75756 0.88158 0.33905 0.0
C822 C 0.765 0.88189 0.31717 0.0
C823 C 0.75308 0.89052 0.30029 0.0
N824 N 0.73879 0.88969 0.344 0.0
C825 C 0.72703 0.89821 0.32755 0.0
Co826 Co 0.14675 0.6882 0.37398 0.0
Co827 Co 0.11142 0.72758 0.37367 0.0
O828 O 0.12237 0.70186 0.3623 0.0
C829 C 0.15532 0.69559 0.32661 0.0
O830 O 0.14867 0.71427 0.33019 0.0
C831 C 0.07594 0.69943 0.37727 0.0
O832 O 0.08774 0.68631 0.38779 0.0
O833 O 0.11267 0.71727 0.40488 0.0
O834 O 0.13786 0.69372 0.40538 0.0
H835 H 0.10834 0.78811 0.42543 0.0
H836 H 0.12014 0.66692 0.34118 0.0
O837 O 0.15595 0.6827 0.34259 0.0
H838 H 0.11977 0.62321 0.40839 0.0
H839 H 0.20016 0.63262 0.37497 0.0
H840 H 0.17631 0.69649 0.4105 0.0
H841 H 0.14 0.65511 0.40752 0.0
H842 H 0.16924 0.65029 0.36113 0.0
O843 O 0.08308 0.7165 0.37053 0.0
H844 H 0.12248 0.75583 0.41055 0.0
H845 H 0.07575 0.75374 0.36122 0.0
H846 H 0.20721 0.67924 0.425 0.0
H847 H 0.09982 0.63506 0.34125 0.0
H848 H 0.21932 0.64707 0.40719 0.0
H849 H 0.09952 0.61298 0.37506 0.0
O850 O 0.16279 0.71418 0.37387 0.0
H851 H 0.09492 0.7229 0.29181 0.0
H852 H 0.12493 0.76603 0.35103 0.0
H853 H 0.12452 0.77859 0.31217 0.0
H854 H 0.10942 0.75697 0.28225 0.0
H855 H 0.09581 0.71085 0.33087 0.0
H856 H 0.061 0.78592 0.37567 0.0
H857 H 0.07738 0.80336 0.40795 0.0
O858 O 0.13944 0.73927 0.37693 0.0
C859 C 0.12433 0.70469 0.41511 0.0
C860 C 0.10111 0.78069 0.41131 0.0
C861 C 0.07453 0.77945 0.38339 0.0
N862 N 0.10006 0.75302 0.38492 0.0
C863 C 0.10908 0.76245 0.40277 0.0
C864 C 0.08292 0.76122 0.37531 0.0
C865 C 0.08372 0.78923 0.4015 0.0
C866 C 0.12022 0.65731 0.35588 0.0
N867 N 0.13133 0.66281 0.37427 0.0
C868 C 0.10862 0.63932 0.35586 0.0
C869 C 0.10844 0.62695 0.37484 0.0
C870 C 0.11979 0.63269 0.39355 0.0
C871 C 0.13118 0.65079 0.39298 0.0
C872 C 0.19502 0.64661 0.3829 0.0
C873 C 0.18142 0.68242 0.40276 0.0
C874 C 0.17755 0.65669 0.37511 0.0
N875 N 0.17091 0.6743 0.38512 0.0
C876 C 0.19896 0.67276 0.411 0.0
C877 C 0.20575 0.65472 0.40099 0.0
C878 C 0.15791 0.73298 0.37609 0.0
C879 C 0.10148 0.73249 0.30472 0.0
C880 C 0.11837 0.75651 0.3381 0.0
C881 C 0.11814 0.76373 0.31613 0.0
C882 C 0.10965 0.75159 0.29935 0.0
N883 N 0.11033 0.73776 0.34323 0.0
C884 C 0.10194 0.72579 0.32687 0.0
Co885 Co 0.31118 0.1461 0.37351 0.0
Co886 Co 0.27128 0.11138 0.37434 0.0
O887 O 0.297 0.1218 0.36239 0.0
C888 C 0.30336 0.15421 0.32611 0.0
O889 O 0.28465 0.14779 0.33001 0.0
C890 C 0.29891 0.07546 0.37787 0.0
O891 O 0.31229 0.08706 0.38827 0.0
O892 O 0.28206 0.11278 0.40537 0.0
O893 O 0.30592 0.13769 0.40512 0.0
H894 H 0.21146 0.10974 0.42715 0.0
H895 H 0.33163 0.11876 0.34081 0.0
O896 O 0.31644 0.15486 0.34191 0.0
H897 H 0.37615 0.11849 0.40739 0.0
H898 H 0.36761 0.19863 0.37295 0.0
H899 H 0.30379 0.17624 0.40969 0.0
H900 H 0.34457 0.13924 0.40668 0.0
H901 H 0.34929 0.16783 0.35981 0.0
O902 O 0.28188 0.08284 0.37131 0.0
H903 H 0.24373 0.12325 0.41155 0.0
H904 H 0.24442 0.07598 0.36278 0.0
H905 H 0.3217 0.20703 0.42351 0.0
H906 H 0.36315 0.09791 0.34074 0.0
H907 H 0.35385 0.2184 0.40508 0.0
H908 H 0.38563 0.09766 0.37423 0.0
O909 O 0.28546 0.16253 0.37352 0.0
H910 H 0.27449 0.09399 0.29261 0.0
H911 H 0.23272 0.12525 0.3522 0.0
H912 H 0.21957 0.12465 0.31357 0.0
H913 H 0.24052 0.10892 0.28346 0.0
H914 H 0.28713 0.09508 0.33143 0.0
H915 H 0.21223 0.06187 0.37795 0.0
H916 H 0.1955 0.07884 0.41031 0.0
O917 O 0.26008 0.13962 0.37745 0.0
C918 C 0.29491 0.12442 0.41523 0.0
C919 C 0.21857 0.10226 0.41299 0.0
C920 C 0.21901 0.07537 0.38539 0.0
N921 N 0.24584 0.10053 0.38616 0.0
C922 C 0.2368 0.10987 0.40405 0.0
C923 C 0.23725 0.08341 0.3769 0.0
C924 C 0.20963 0.0849 0.40355 0.0
C925 C 0.34143 0.11886 0.35537 0.0
N926 N 0.33634 0.13029 0.37367 0.0
C927 C 0.35922 0.10697 0.35527 0.0
C928 C 0.37181 0.10681 0.37407 0.0
C929 C 0.36649 0.11849 0.39269 0.0
C930 C 0.34857 0.13018 0.3922 0.0
C931 C 0.35364 0.19381 0.38114 0.0
C932 C 0.31785 0.18103 0.40169 0.0
C933 C 0.34318 0.17641 0.37375 0.0
N934 N 0.32559 0.17018 0.3841 0.0
C935 C 0.32788 0.19851 0.40954 0.0
C936 C 0.34591 0.20489 0.39918 0.0
C937 C 0.26663 0.15797 0.37617 0.0
C938 C 0.2652 0.10083 0.3056 0.0
C939 C 0.24194 0.11842 0.33919 0.0
C940 C 0.2344 0.11808 0.31735 0.0
C941 C 0.24615 0.10924 0.30047 0.0
N942 N 0.26065 0.11014 0.34409 0.0
C943 C 0.27224 0.10141 0.32763 0.0
Co944 Co 0.64688 0.81022 0.87376 0.0
Co945 Co 0.61139 0.77102 0.87352 0.0
O946 O 0.62242 0.7967 0.86214 0.0
C947 C 0.65522 0.80312 0.82627 0.0
O948 O 0.64852 0.78443 0.8297 0.0
C949 C 0.57596 0.79924 0.87717 0.0
O950 O 0.58766 0.81219 0.88807 0.0
O951 O 0.61266 0.78133 0.90475 0.0
O952 O 0.63813 0.80458 0.90518 0.0
H953 H 0.60806 0.71046 0.92522 0.0
H954 H 0.62016 0.83176 0.84128 0.0
O955 O 0.65597 0.81588 0.84237 0.0
H956 H 0.62031 0.87512 0.90876 0.0
H957 H 0.70051 0.8656 0.87485 0.0
H958 H 0.6766 0.80161 0.91005 0.0
H959 H 0.64045 0.84317 0.90755 0.0
H960 H 0.66946 0.84814 0.86106 0.0
O961 O 0.5831 0.78222 0.87031 0.0
H962 H 0.62233 0.7427 0.91039 0.0
H963 H 0.5756 0.74502 0.86105 0.0
H964 H 0.70763 0.81864 0.92449 0.0
H965 H 0.59992 0.86367 0.84171 0.0
H966 H 0.71978 0.85088 0.90685 0.0
H967 H 0.59988 0.88557 0.87565 0.0
O968 O 0.66281 0.78419 0.87338 0.0
H969 H 0.59489 0.77571 0.79165 0.0
H970 H 0.62476 0.73252 0.85089 0.0
H971 H 0.62429 0.71993 0.81204 0.0
H972 H 0.60926 0.74159 0.78211 0.0
H973 H 0.59585 0.78779 0.83069 0.0
H974 H 0.56073 0.71289 0.87546 0.0
H975 H 0.57704 0.69534 0.90772 0.0
O976 O 0.63936 0.75923 0.87679 0.0
C977 C 0.62451 0.79376 0.91496 0.0
C978 C 0.60086 0.71792 0.91111 0.0
C979 C 0.57428 0.7193 0.8832 0.0
N980 N 0.59992 0.74562 0.88475 0.0
C981 C 0.6089 0.73615 0.9026 0.0
C982 C 0.58275 0.73751 0.87514 0.0
C983 C 0.58344 0.70946 0.9013 0.0
C984 C 0.62035 0.84129 0.85604 0.0
N985 N 0.63156 0.83567 0.87432 0.0
C986 C 0.6088 0.85931 0.85622 0.0
C987 C 0.60877 0.87158 0.87528 0.0
C988 C 0.62022 0.86572 0.89387 0.0
C989 C 0.63156 0.84759 0.8931 0.0
C990 C 0.69535 0.85158 0.8827 0.0
C991 C 0.68172 0.8157 0.90238 0.0
C992 C 0.67781 0.84161 0.87494 0.0
N993 N 0.67115 0.82397 0.88487 0.0
C994 C 0.69933 0.82524 0.91059 0.0
C995 C 0.70615 0.84332 0.90066 0.0
C996 C 0.65785 0.76542 0.87573 0.0
C997 C 0.60142 0.76611 0.80456 0.0
C998 C 0.61824 0.74205 0.83796 0.0
C999 C 0.61797 0.73482 0.81599 0.0
C1000 C 0.60952 0.74697 0.79921 0.0
N1001 N 0.61027 0.76084 0.84307 0.0
C1002 C 0.60192 0.77283 0.82671 0.0
Co1003 Co 0.18846 0.64642 0.87391 0.0
Co1004 Co 0.22829 0.6116 0.87369 0.0
O1005 O 0.20243 0.62219 0.86228 0.0
C1006 C 0.19569 0.65501 0.82652 0.0
O1007 O 0.21444 0.64854 0.83005 0.0
C1008 C 0.20056 0.5758 0.87735 0.0
O1009 O 0.18726 0.58751 0.88773 0.0
O1010 O 0.21797 0.61279 0.90491 0.0
O1011 O 0.19409 0.63767 0.90532 0.0
H1012 H 0.28887 0.60943 0.92545 0.0
H1013 H 0.16751 0.61948 0.84118 0.0
O1014 O 0.18282 0.65551 0.84252 0.0
H1015 H 0.12384 0.61863 0.90842 0.0
H1016 H 0.13218 0.6991 0.87486 0.0
H1017 H 0.19639 0.67616 0.91035 0.0
H1018 H 0.15546 0.6393 0.90749 0.0
H1019 H 0.15023 0.66839 0.86106 0.0
O1020 O 0.21758 0.5831 0.87066 0.0
H1021 H 0.2564 0.62312 0.91053 0.0
H1022 H 0.25491 0.57624 0.86134 0.0
H1023 H 0.17876 0.70686 0.92481 0.0
H1024 H 0.13593 0.59872 0.84132 0.0
H1025 H 0.14641 0.71851 0.90702 0.0
H1026 H 0.11388 0.59818 0.87514 0.0
O1027 O 0.21422 0.66279 0.87375 0.0
H1028 H 0.22379 0.59482 0.79189 0.0
H1029 H 0.26656 0.62552 0.85099 0.0
H1030 H 0.27911 0.62517 0.81213 0.0
H1031 H 0.25767 0.60973 0.78226 0.0
H1032 H 0.21175 0.59566 0.83095 0.0
H1033 H 0.28728 0.56195 0.87582 0.0
H1034 H 0.30452 0.57863 0.90805 0.0
O1035 O 0.23961 0.63977 0.87685 0.0
C1036 C 0.20523 0.62431 0.9151 0.0
C1037 C 0.28154 0.60207 0.91135 0.0
C1038 C 0.28064 0.57541 0.88351 0.0
N1039 N 0.25388 0.6006 0.88497 0.0
C1040 C 0.26319 0.60979 0.90279 0.0
C1041 C 0.26229 0.58354 0.87541 0.0
C1042 C 0.2903 0.58478 0.90159 0.0
C1043 C 0.1579 0.61946 0.85588 0.0
N1044 N 0.16326 0.63067 0.87425 0.0
C1045 C 0.14008 0.60762 0.8559 0.0
C1046 C 0.12773 0.6073 0.87489 0.0
C1047 C 0.13332 0.61876 0.89357 0.0
C1048 C 0.15126 0.6304 0.89296 0.0
C1049 C 0.14624 0.69416 0.88278 0.0
C1050 C 0.18225 0.68107 0.90262 0.0
C1051 C 0.15655 0.67681 0.87501 0.0
N1052 N 0.17425 0.67042 0.88501 0.0
C1053 C 0.17237 0.69849 0.91083 0.0
C1054 C 0.15423 0.70503 0.90083 0.0
C1055 C 0.23309 0.65815 0.87595 0.0
C1056 C 0.2333 0.60153 0.80477 0.0
C1057 C 0.25712 0.61881 0.83809 0.0
C1058 C 0.26433 0.61862 0.81612 0.0
C1059 C 0.2523 0.60993 0.79937 0.0
N1060 N 0.23847 0.61055 0.84325 0.0
C1061 C 0.2266 0.60197 0.82693 0.0
Co1062 Co 0.35289 0.1875 0.87406 0.0
Co1063 Co 0.38841 0.22669 0.87432 0.0
O1064 O 0.37745 0.20106 0.86271 0.0
C1065 C 0.34482 0.19492 0.82656 0.0
O1066 O 0.35158 0.21355 0.83018 0.0
C1067 C 0.42384 0.19845 0.87811 0.0
O1068 O 0.41201 0.18535 0.88864 0.0
O1069 O 0.38688 0.21626 0.90548 0.0
O1070 O 0.36145 0.19295 0.90558 0.0
H1071 H 0.39131 0.28703 0.92636 0.0
H1072 H 0.37976 0.16613 0.84159 0.0
O1073 O 0.34398 0.18205 0.84255 0.0
H1074 H 0.37925 0.12239 0.90877 0.0
H1075 H 0.29925 0.13212 0.87437 0.0
H1076 H 0.32297 0.19589 0.91021 0.0
H1077 H 0.35914 0.15435 0.90766 0.0
H1078 H 0.33038 0.14967 0.86091 0.0
O1079 O 0.41674 0.21552 0.87136 0.0
H1080 H 0.37718 0.25484 0.91123 0.0
H1081 H 0.42428 0.25276 0.86232 0.0
H1082 H 0.29187 0.17875 0.92433 0.0
H1083 H 0.39998 0.1342 0.84191 0.0
H1084 H 0.27982 0.14662 0.90636 0.0
H1085 H 0.39984 0.11211 0.87571 0.0
O1086 O 0.33697 0.21355 0.87376 0.0
H1087 H 0.40555 0.2223 0.7926 0.0
H1088 H 0.37522 0.26528 0.85175 0.0
H1089 H 0.37599 0.27801 0.81296 0.0
H1090 H 0.39125 0.25646 0.78307 0.0
H1091 H 0.4043 0.21009 0.83157 0.0
H1092 H 0.43902 0.28484 0.87703 0.0
H1093 H 0.42246 0.30224 0.90922 0.0
O1094 O 0.36042 0.23847 0.87738 0.0
C1095 C 0.37497 0.20377 0.91553 0.0
C1096 C 0.39863 0.27963 0.91228 0.0
C1097 C 0.42542 0.27839 0.88461 0.0
N1098 N 0.39979 0.25204 0.88579 0.0
C1099 C 0.39066 0.26144 0.9036 0.0
C1100 C 0.41703 0.26021 0.87638 0.0
C1101 C 0.41612 0.28815 0.90267 0.0
C1102 C 0.37949 0.15651 0.85628 0.0
N1103 N 0.3682 0.16204 0.87453 0.0
C1104 C 0.39103 0.13849 0.8564 0.0
C1105 C 0.39096 0.12611 0.87538 0.0
C1106 C 0.37942 0.13187 0.89394 0.0
C1107 C 0.3681 0.15001 0.89323 0.0
C1108 C 0.30437 0.14608 0.88236 0.0
C1109 C 0.31789 0.18184 0.9024 0.0
C1110 C 0.32195 0.15611 0.87479 0.0
N1111 N 0.32855 0.17369 0.88489 0.0
C1112 C 0.30024 0.17224 0.91042 0.0
C1113 C 0.29348 0.15423 0.90032 0.0
C1114 C 0.34193 0.2323 0.87621 0.0
C1115 C 0.39892 0.23186 0.80548 0.0
C1116 C 0.38185 0.25579 0.83883 0.0
C1117 C 0.38228 0.26311 0.8169 0.0
C1118 C 0.39086 0.25102 0.80014 0.0
N1119 N 0.38978 0.23699 0.84394 0.0
C1120 C 0.39825 0.22506 0.8276 0.0
Co1121 Co 0.81181 0.35225 0.87395 0.0
Co1122 Co 0.77216 0.38727 0.87431 0.0
O1123 O 0.79786 0.3766 0.86263 0.0
C1124 C 0.80376 0.34403 0.82666 0.0
O1125 O 0.78511 0.35053 0.83069 0.0
C1126 C 0.8002 0.42282 0.87804 0.0
O1127 O 0.81345 0.41096 0.88829 0.0
O1128 O 0.7827 0.38578 0.90541 0.0
O1129 O 0.80664 0.36094 0.90551 0.0
H1130 H 0.71198 0.38953 0.9266 0.0
H1131 H 0.83252 0.37916 0.841 0.0
O1132 O 0.81692 0.34328 0.84238 0.0
H1133 H 0.87707 0.37942 0.90756 0.0
H1134 H 0.86769 0.29915 0.87367 0.0
H1135 H 0.80419 0.32243 0.9104 0.0
H1136 H 0.84527 0.35901 0.90704 0.0
H1137 H 0.84966 0.33005 0.86034 0.0
O1138 O 0.78308 0.4157 0.87142 0.0
H1139 H 0.74422 0.3757 0.91128 0.0
H1140 H 0.74573 0.42292 0.86249 0.0
H1141 H 0.82181 0.29155 0.92441 0.0
H1142 H 0.86426 0.39967 0.84074 0.0
H1143 H 0.8538 0.27973 0.90599 0.0
H1144 H 0.88676 0.39991 0.87422 0.0
O1145 O 0.78594 0.33605 0.87413 0.0
H1146 H 0.77624 0.40458 0.79262 0.0
H1147 H 0.73363 0.37379 0.85181 0.0
H1148 H 0.72083 0.3745 0.81304 0.0
H1149 H 0.74219 0.38999 0.78313 0.0
H1150 H 0.78853 0.40339 0.83157 0.0
H1151 H 0.71359 0.43736 0.87737 0.0
H1152 H 0.69645 0.42059 0.9096 0.0
O1153 O 0.76065 0.35915 0.87732 0.0
C1154 C 0.79555 0.37426 0.91543 0.0
C1155 C 0.71926 0.39694 0.9125 0.0
C1156 C 0.72018 0.4238 0.88489 0.0
N1157 N 0.74674 0.39838 0.88589 0.0
C1158 C 0.73748 0.38914 0.90371 0.0
C1159 C 0.73839 0.41557 0.87656 0.0
C1160 C 0.71057 0.41437 0.90297 0.0
C1161 C 0.84232 0.37906 0.85556 0.0
N1162 N 0.83711 0.36782 0.87396 0.0
C1163 C 0.86023 0.39076 0.85535 0.0
C1164 C 0.87284 0.39091 0.87415 0.0
C1165 C 0.8674 0.37942 0.89287 0.0
C1166 C 0.84936 0.36793 0.89249 0.0
C1167 C 0.85379 0.30417 0.88186 0.0
C1168 C 0.81818 0.31745 0.9024 0.0
C1169 C 0.8435 0.32162 0.87436 0.0
N1170 N 0.826 0.32811 0.8847 0.0
C1171 C 0.82805 0.29992 0.91036 0.0
C1172 C 0.84599 0.29329 0.90001 0.0
C1173 C 0.7671 0.34075 0.87641 0.0
C1174 C 0.76676 0.39785 0.80551 0.0
C1175 C 0.74304 0.38053 0.83888 0.0
C1176 C 0.73569 0.38092 0.81697 0.0
C1177 C 0.74767 0.38963 0.8002 0.0
N1178 N 0.76178 0.38862 0.84396 0.0
C1179 C 0.7736 0.39722 0.82762 0.0
Co1180 Co 0.64672 0.18842 0.12343 0.0
Co1181 Co 0.61201 0.22834 0.12362 0.0
O1182 O 0.62254 0.20248 0.13508 0.0
C1183 C 0.65538 0.19569 0.1708 0.0
O1184 O 0.64904 0.21447 0.16719 0.0
C1185 C 0.57598 0.20086 0.12021 0.0
O1186 O 0.58755 0.18744 0.10981 0.0
O1187 O 0.613 0.21788 0.09246 0.0
O1188 O 0.63796 0.19407 0.09201 0.0
H1189 H 0.60993 0.28873 0.07161 0.0
H1190 H 0.61974 0.16757 0.1562 0.0
O1191 O 0.65581 0.18277 0.15483 0.0
H1192 H 0.61866 0.12391 0.08896 0.0
H1193 H 0.69917 0.13192 0.12247 0.0
H1194 H 0.67646 0.1962 0.08694 0.0
H1195 H 0.63945 0.15545 0.08987 0.0
H1196 H 0.66856 0.15013 0.1363 0.0
O1197 O 0.58346 0.21781 0.12687 0.0
H1198 H 0.62346 0.25621 0.08654 0.0
H1199 H 0.57689 0.25523 0.13609 0.0
H1200 H 0.70705 0.17841 0.07244 0.0
H1201 H 0.59886 0.13607 0.15608 0.0
H1202 H 0.71858 0.14602 0.09025 0.0
H1203 H 0.5982 0.11403 0.12226 0.0
O1204 O 0.66321 0.21413 0.12356 0.0
H1205 H 0.59562 0.22425 0.20554 0.0
H1206 H 0.62631 0.2666 0.14607 0.0
H1207 H 0.62626 0.27929 0.18489 0.0
H1208 H 0.61082 0.25805 0.21493 0.0
H1209 H 0.59617 0.21207 0.16652 0.0
H1210 H 0.56275 0.28766 0.12159 0.0
H1211 H 0.57936 0.30467 0.08918 0.0
O1212 O 0.64021 0.2395 0.12023 0.0
C1213 C 0.62453 0.20515 0.08225 0.0
C1214 C 0.6026 0.2815 0.08579 0.0
C1215 C 0.57611 0.28089 0.11383 0.0
N1216 N 0.60109 0.25394 0.11229 0.0
C1217 C 0.61023 0.26312 0.09436 0.0
C1218 C 0.58416 0.26251 0.12194 0.0
C1219 C 0.58543 0.29043 0.09564 0.0
C1220 C 0.61966 0.15797 0.14149 0.0
N1221 N 0.63088 0.16328 0.12311 0.0
C1222 C 0.60776 0.14019 0.14149 0.0
C1223 C 0.60737 0.12784 0.1225 0.0
C1224 C 0.61884 0.13338 0.10381 0.0
C1225 C 0.63055 0.15128 0.1044 0.0
C1226 C 0.69427 0.146 0.11454 0.0
C1227 C 0.68132 0.18205 0.09468 0.0
C1228 C 0.67699 0.15639 0.12233 0.0
N1229 N 0.67066 0.17411 0.11232 0.0
C1230 C 0.69868 0.17207 0.08644 0.0
C1231 C 0.70515 0.15392 0.09646 0.0
C1232 C 0.65858 0.23298 0.12117 0.0
C1233 C 0.60233 0.23367 0.19258 0.0
C1234 C 0.6196 0.25725 0.15905 0.0
C1235 C 0.61957 0.26454 0.181 0.0
C1236 C 0.61089 0.25262 0.19784 0.0
N1237 N 0.61117 0.23864 0.15402 0.0
C1238 C 0.6026 0.22689 0.17044 0.0
Co1239 Co 0.80969 0.64656 0.12435 0.0
Co1240 Co 0.77009 0.61148 0.1242 0.0
O1241 O 0.79584 0.62219 0.13577 0.0
C1242 C 0.80215 0.65485 0.17176 0.0
O1243 O 0.78346 0.64831 0.16802 0.0
C1244 C 0.79808 0.57587 0.12053 0.0
O1245 O 0.81135 0.58774 0.11033 0.0
O1246 O 0.78054 0.61285 0.09305 0.0
O1247 O 0.80426 0.6379 0.09283 0.0
H1248 H 0.70972 0.60916 0.07218 0.0
H1249 H 0.83068 0.61963 0.15705 0.0
O1250 O 0.81511 0.65554 0.15585 0.0
H1251 H 0.87464 0.61937 0.09004 0.0
H1252 H 0.86562 0.69962 0.12401 0.0
H1253 H 0.80175 0.6764 0.088 0.0
H1254 H 0.84288 0.63981 0.09091 0.0
H1255 H 0.84769 0.66874 0.13754 0.0
O1256 O 0.78097 0.58302 0.12715 0.0
H1257 H 0.74206 0.62296 0.08728 0.0
H1258 H 0.74364 0.57591 0.13628 0.0
H1259 H 0.81925 0.70727 0.0738 0.0
H1260 H 0.8624 0.59909 0.15697 0.0
H1261 H 0.85143 0.71906 0.09185 0.0
H1262 H 0.8846 0.59885 0.12327 0.0
O1263 O 0.78382 0.66276 0.12445 0.0
H1264 H 0.7744 0.59448 0.20596 0.0
H1265 H 0.73165 0.62509 0.14679 0.0
H1266 H 0.71898 0.62458 0.18561 0.0
H1267 H 0.74042 0.60919 0.21551 0.0
H1268 H 0.78656 0.59548 0.16695 0.0
H1269 H 0.71139 0.56151 0.12161 0.0
H1270 H 0.69417 0.57821 0.08939 0.0
O1271 O 0.7586 0.63959 0.12112 0.0
C1272 C 0.79325 0.62449 0.08295 0.0
C1273 C 0.71704 0.60178 0.08628 0.0
C1274 C 0.71799 0.57502 0.114 0.0
N1275 N 0.74462 0.60036 0.11276 0.0
C1276 C 0.73532 0.60956 0.09493 0.0
C1277 C 0.73626 0.58323 0.12221 0.0
C1278 C 0.70833 0.58441 0.09592 0.0
C1279 C 0.84035 0.61973 0.1424 0.0
N1280 N 0.83499 0.63099 0.12406 0.0
C1281 C 0.85826 0.60802 0.14242 0.0
C1282 C 0.87069 0.60786 0.12349 0.0
C1283 C 0.86511 0.61937 0.10484 0.0
C1284 C 0.84708 0.63088 0.10541 0.0
C1285 C 0.85163 0.69462 0.11598 0.0
C1286 C 0.81581 0.68138 0.09584 0.0
C1287 C 0.8414 0.67717 0.1236 0.0
N1288 N 0.82379 0.67071 0.11345 0.0
C1289 C 0.82562 0.69889 0.08778 0.0
C1290 C 0.84367 0.70551 0.09793 0.0
C1291 C 0.76499 0.65801 0.12212 0.0
C1292 C 0.76489 0.60117 0.19307 0.0
C1293 C 0.74109 0.6184 0.15971 0.0
C1294 C 0.73381 0.61811 0.18165 0.0
C1295 C 0.74584 0.60946 0.19842 0.0
N1296 N 0.7598 0.61025 0.15459 0.0
C1297 C 0.77166 0.60169 0.17093 0.0
Co1298 Co 0.3524 0.81095 0.12425 0.0
Co1299 Co 0.38785 0.7717 0.12412 0.0
O1300 O 0.37688 0.79734 0.13571 0.0
C1301 C 0.34407 0.80349 0.17166 0.0
O1302 O 0.35077 0.78483 0.16806 0.0
C1303 C 0.42339 0.79985 0.12049 0.0
O1304 O 0.41169 0.81291 0.10972 0.0
O1305 O 0.38649 0.78218 0.09296 0.0
O1306 O 0.36111 0.80554 0.09279 0.0
H1307 H 0.39094 0.71141 0.07203 0.0
H1308 H 0.37916 0.83223 0.1569 0.0
O1309 O 0.34335 0.81638 0.15569 0.0
H1310 H 0.37897 0.87611 0.08982 0.0
H1311 H 0.29882 0.8664 0.1237 0.0
H1312 H 0.32265 0.80265 0.08791 0.0
H1313 H 0.35883 0.84415 0.09075 0.0
H1314 H 0.32986 0.84879 0.13732 0.0
O1315 O 0.41618 0.78284 0.12729 0.0
H1316 H 0.37676 0.7436 0.08712 0.0
H1317 H 0.42364 0.74559 0.1363 0.0
H1318 H 0.29164 0.81984 0.07362 0.0
H1319 H 0.3994 0.86415 0.15675 0.0
H1320 H 0.27954 0.85195 0.09156 0.0
H1321 H 0.39941 0.88631 0.12301 0.0
O1322 O 0.33644 0.78493 0.12442 0.0
H1323 H 0.40455 0.77599 0.20596 0.0
H1324 H 0.37451 0.7331 0.14656 0.0
H1325 H 0.37504 0.72033 0.18534 0.0
H1326 H 0.39016 0.74183 0.21536 0.0
H1327 H 0.40353 0.78824 0.16699 0.0
H1328 H 0.43841 0.71351 0.12164 0.0
H1329 H 0.42198 0.69616 0.08933 0.0
O1330 O 0.35985 0.75996 0.12088 0.0
C1331 C 0.37466 0.79473 0.08289 0.0
C1332 C 0.39819 0.71879 0.08617 0.0
C1333 C 0.42485 0.71998 0.11399 0.0
N1334 N 0.39925 0.74635 0.11269 0.0
C1335 C 0.3902 0.73698 0.09482 0.0
C1336 C 0.41644 0.73816 0.12219 0.0
C1337 C 0.41562 0.71025 0.09587 0.0
C1338 C 0.37896 0.84188 0.14222 0.0
N1339 N 0.36774 0.8364 0.1239 0.0
C1340 C 0.39051 0.8599 0.14221 0.0
C1341 C 0.39053 0.87231 0.12326 0.0
C1342 C 0.37907 0.86659 0.10462 0.0
C1343 C 0.36773 0.84846 0.10523 0.0
C1344 C 0.30397 0.85243 0.11571 0.0
C1345 C 0.31755 0.81669 0.0957 0.0
C1346 C 0.3215 0.84238 0.12338 0.0
N1347 N 0.32813 0.82481 0.1133 0.0
C1348 C 0.29995 0.82632 0.08759 0.0
C1349 C 0.29316 0.84432 0.09768 0.0
C1350 C 0.34137 0.76616 0.12198 0.0
C1351 C 0.39798 0.76645 0.19302 0.0
C1352 C 0.38107 0.74256 0.15953 0.0
C1353 C 0.38137 0.73523 0.18146 0.0
C1354 C 0.38987 0.7473 0.19829 0.0
N1355 N 0.38905 0.76137 0.1545 0.0
C1356 C 0.39744 0.77327 0.17091 0.0
Co1357 Co 0.18691 0.35275 0.12416 0.0
Co1358 Co 0.22618 0.38817 0.12416 0.0
O1359 O 0.20054 0.3772 0.1357 0.0
C1360 C 0.19439 0.34429 0.17153 0.0
O1361 O 0.21305 0.35095 0.16789 0.0
C1362 C 0.19821 0.42388 0.12067 0.0
O1363 O 0.18511 0.41235 0.10975 0.0
O1364 O 0.21568 0.38695 0.093 0.0
O1365 O 0.19238 0.36151 0.09272 0.0
H1366 H 0.28642 0.39135 0.072 0.0
H1367 H 0.16563 0.37945 0.15686 0.0
O1368 O 0.18145 0.34363 0.15559 0.0
H1369 H 0.12185 0.37951 0.0897 0.0
H1370 H 0.13136 0.29928 0.12342 0.0
H1371 H 0.19518 0.32306 0.08774 0.0
H1372 H 0.15377 0.35931 0.09062 0.0
H1373 H 0.14903 0.33024 0.13715 0.0
O1374 O 0.21515 0.41651 0.12749 0.0
H1375 H 0.25421 0.37719 0.08705 0.0
H1376 H 0.25242 0.42382 0.13651 0.0
H1377 H 0.17793 0.29212 0.07335 0.0
H1378 H 0.13375 0.39974 0.15672 0.0
H1379 H 0.14578 0.28005 0.09124 0.0
H1380 H 0.11163 0.39988 0.12294 0.0
O1381 O 0.21292 0.33674 0.12431 0.0
H1382 H 0.22201 0.40452 0.20609 0.0
H1383 H 0.26477 0.37462 0.1465 0.0
H1384 H 0.27757 0.37495 0.18527 0.0
H1385 H 0.25613 0.39 0.21538 0.0
H1386 H 0.20972 0.40371 0.16712 0.0
H1387 H 0.28452 0.43858 0.12189 0.0
H1388 H 0.30179 0.42226 0.08946 0.0
O1389 O 0.23785 0.36018 0.12075 0.0
C1390 C 0.20319 0.37511 0.08287 0.0
C1391 C 0.27908 0.39855 0.08619 0.0
C1392 C 0.278 0.42508 0.11417 0.0
N1393 N 0.25155 0.39956 0.11275 0.0
C1394 C 0.26088 0.39057 0.09482 0.0
C1395 C 0.25981 0.41667 0.12235 0.0
C1396 C 0.28768 0.41591 0.09598 0.0
C1397 C 0.156 0.37931 0.14216 0.0
N1398 N 0.16149 0.36813 0.12382 0.0
C1399 C 0.138 0.39088 0.14215 0.0
C1400 C 0.12562 0.39097 0.12318 0.0
C1401 C 0.13134 0.37955 0.10452 0.0
C1402 C 0.14946 0.36818 0.10513 0.0
C1403 C 0.14534 0.30441 0.11546 0.0
C1404 C 0.18113 0.31797 0.09552 0.0
C1405 C 0.15543 0.3219 0.12319 0.0
N1406 N 0.17303 0.32852 0.11314 0.0
C1407 C 0.17146 0.30041 0.08734 0.0
C1408 C 0.15343 0.29363 0.0974 0.0
C1409 C 0.23167 0.34169 0.12182 0.0
C1410 C 0.23152 0.39799 0.1931 0.0
C1411 C 0.25533 0.38116 0.15951 0.0
C1412 C 0.26268 0.38134 0.18142 0.0
C1413 C 0.25065 0.3898 0.19831 0.0
N1414 N 0.23654 0.38921 0.15453 0.0
C1415 C 0.22468 0.39756 0.17099 0.0
Co1416 Co 0.35321 0.18898 0.1244 0.0
Co1417 Co 0.38751 0.22926 0.12415 0.0
O1418 O 0.3773 0.20334 0.1358 0.0
C1419 C 0.34473 0.19648 0.17177 0.0
O1420 O 0.35093 0.21527 0.16797 0.0
C1421 C 0.42373 0.20204 0.12065 0.0
O1422 O 0.41226 0.18856 0.11023 0.0
O1423 O 0.38641 0.21867 0.09303 0.0
O1424 O 0.36176 0.19454 0.09288 0.0
H1425 H 0.38875 0.28947 0.07186 0.0
H1426 H 0.38055 0.1686 0.15716 0.0
O1427 O 0.34432 0.18345 0.15591 0.0
H1428 H 0.38172 0.12454 0.09023 0.0
H1429 H 0.30129 0.132 0.12415 0.0
H1430 H 0.32321 0.19628 0.08804 0.0
H1431 H 0.36063 0.15589 0.09103 0.0
H1432 H 0.3318 0.15056 0.13766 0.0
O1433 O 0.41616 0.21897 0.12726 0.0
H1434 H 0.37556 0.25691 0.08707 0.0
H1435 H 0.42251 0.25646 0.1362 0.0
H1436 H 0.29271 0.17813 0.07387 0.0
H1437 H 0.40173 0.1373 0.15714 0.0
H1438 H 0.28157 0.14574 0.09197 0.0
H1439 H 0.40244 0.11506 0.12347 0.0
O1440 O 0.3365 0.21453 0.12444 0.0
H1441 H 0.40444 0.22562 0.20597 0.0
H1442 H 0.37307 0.2675 0.14653 0.0
H1443 H 0.37326 0.28034 0.18529 0.0
H1444 H 0.38904 0.25934 0.21532 0.0
H1445 H 0.40375 0.21328 0.16702 0.0
H1446 H 0.4363 0.28894 0.12143 0.0
H1447 H 0.41934 0.3057 0.08909 0.0
O1448 O 0.35917 0.24017 0.12093 0.0
C1449 C 0.37499 0.20575 0.08297 0.0
C1450 C 0.39624 0.28235 0.08601 0.0
C1451 C 0.42294 0.28204 0.11382 0.0
N1452 N 0.39814 0.25491 0.11262 0.0
C1453 C 0.3888 0.26395 0.09473 0.0
C1454 C 0.41508 0.26364 0.12208 0.0
C1455 C 0.41341 0.29144 0.09567 0.0
C1456 C 0.38065 0.1589 0.14252 0.0
N1457 N 0.36928 0.164 0.12417 0.0
C1458 C 0.39273 0.14124 0.14257 0.0
C1459 C 0.39314 0.12878 0.12367 0.0
C1460 C 0.38152 0.1341 0.105 0.0
C1461 C 0.36965 0.15189 0.10554 0.0
C1462 C 0.30601 0.14607 0.1161 0.0
C1463 C 0.31853 0.18212 0.09591 0.0
C1464 C 0.32324 0.15667 0.1237 0.0
N1465 N 0.32935 0.17439 0.11353 0.0
C1466 C 0.30121 0.17195 0.08785 0.0
C1467 C 0.29496 0.15379 0.09803 0.0
C1468 C 0.34088 0.23343 0.122 0.0
C1469 C 0.39758 0.23494 0.19301 0.0
C1470 C 0.37993 0.25825 0.15951 0.0
C1471 C 0.38003 0.26562 0.18142 0.0
C1472 C 0.3889 0.25384 0.19826 0.0
N1473 N 0.38846 0.23969 0.1545 0.0
C1474 C 0.39722 0.22807 0.17091 0.0
Co1475 Co 0.81269 0.3529 0.12455 0.0
Co1476 Co 0.77256 0.38733 0.12342 0.0
O1477 O 0.79823 0.37706 0.13562 0.0
C1478 C 0.80445 0.34452 0.17176 0.0
O1479 O 0.78572 0.35075 0.16761 0.0
C1480 C 0.79973 0.42369 0.12047 0.0
O1481 O 0.81337 0.41239 0.11007 0.0
O1482 O 0.78373 0.38624 0.09255 0.0
O1483 O 0.80762 0.36136 0.09292 0.0
H1484 H 0.71337 0.38873 0.06976 0.0
H1485 H 0.83266 0.38028 0.15757 0.0
O1486 O 0.81773 0.34408 0.15616 0.0
H1487 H 0.87769 0.38119 0.09141 0.0
H1488 H 0.86959 0.30089 0.12546 0.0
H1489 H 0.80588 0.32281 0.08816 0.0
H1490 H 0.84629 0.36017 0.09173 0.0
H1491 H 0.85086 0.33145 0.13856 0.0
O1492 O 0.7828 0.41597 0.12684 0.0
H1493 H 0.74561 0.37548 0.08569 0.0
H1494 H 0.74516 0.42235 0.13492 0.0
H1495 H 0.8242 0.29225 0.07439 0.0
H1496 H 0.86399 0.4014 0.15803 0.0
H1497 H 0.8563 0.28112 0.09309 0.0
H1498 H 0.88673 0.40197 0.12476 0.0
O1499 O 0.7871 0.33624 0.1242 0.0
H1500 H 0.77466 0.40414 0.20533 0.0
H1501 H 0.73388 0.37291 0.1449 0.0
H1502 H 0.72031 0.37307 0.18336 0.0
H1503 H 0.74075 0.38878 0.21389 0.0
H1504 H 0.78775 0.40348 0.16667 0.0
H1505 H 0.71299 0.4362 0.11943 0.0
H1506 H 0.69685 0.41931 0.08667 0.0
O1507 O 0.76167 0.35903 0.11991 0.0
C1508 C 0.79669 0.37466 0.08277 0.0
C1509 C 0.72022 0.39618 0.08409 0.0
C1510 C 0.72002 0.42284 0.11195 0.0
N1511 N 0.74715 0.39801 0.11133 0.0
C1512 C 0.73844 0.38871 0.09322 0.0
C1513 C 0.73825 0.41495 0.12062 0.0
C1514 C 0.71097 0.41335 0.09357 0.0
C1515 C 0.84257 0.38032 0.1431 0.0
N1516 N 0.83771 0.36892 0.1247 0.0
C1517 C 0.86025 0.39236 0.14343 0.0
C1518 C 0.87299 0.3927 0.12474 0.0
C1519 C 0.86792 0.38105 0.10602 0.0
C1520 C 0.8501 0.36921 0.10629 0.0
C1521 C 0.85564 0.30561 0.11715 0.0
C1522 C 0.81991 0.31812 0.09629 0.0
C1523 C 0.84495 0.32287 0.12452 0.0
N1524 N 0.8274 0.32898 0.11402 0.0
C1525 C 0.83018 0.30078 0.08846 0.0
C1526 C 0.84818 0.29453 0.09898 0.0
C1527 C 0.76828 0.34071 0.12125 0.0
C1528 C 0.76559 0.39731 0.19216 0.0
C1529 C 0.74289 0.37974 0.1581 0.0
C1530 C 0.7351 0.37983 0.17984 0.0
C1531 C 0.74657 0.38866 0.19696 0.0
N1532 N 0.76156 0.38825 0.15353 0.0
C1533 C 0.77287 0.39697 0.17022 0.0
Co1534 Co 0.64616 0.81285 0.12378 0.0
Co1535 Co 0.61106 0.77326 0.12377 0.0
O1536 O 0.62175 0.79907 0.13521 0.0
C1537 C 0.6544 0.80563 0.17126 0.0
O1538 O 0.64778 0.78694 0.1677 0.0
C1539 C 0.57535 0.80113 0.11973 0.0
O1540 O 0.58708 0.81431 0.10919 0.0
O1541 O 0.61254 0.78351 0.09252 0.0
O1542 O 0.63761 0.80719 0.09231 0.0
H1543 H 0.60884 0.71256 0.07219 0.0
H1544 H 0.61913 0.83406 0.15621 0.0
O1545 O 0.65507 0.81849 0.15525 0.0
H1546 H 0.61905 0.87754 0.08883 0.0
H1547 H 0.6992 0.86879 0.12312 0.0
H1548 H 0.67612 0.80463 0.08762 0.0
H1549 H 0.63951 0.8458 0.09004 0.0
H1550 H 0.66829 0.85095 0.13672 0.0
O1551 O 0.58261 0.78415 0.12658 0.0
H1552 H 0.62264 0.74498 0.0871 0.0
H1553 H 0.57544 0.7469 0.13591 0.0
H1554 H 0.70701 0.82205 0.07336 0.0
H1555 H 0.59858 0.86577 0.15578 0.0
H1556 H 0.71873 0.85437 0.09116 0.0
H1557 H 0.59842 0.88773 0.12189 0.0
O1558 O 0.66235 0.78696 0.12416 0.0
H1559 H 0.59378 0.77805 0.20543 0.0
H1560 H 0.62459 0.73495 0.14668 0.0
H1561 H 0.62391 0.72249 0.18557 0.0
H1562 H 0.60841 0.7441 0.21526 0.0
H1563 H 0.59495 0.79 0.16635 0.0
H1564 H 0.56105 0.71458 0.12143 0.0
H1565 H 0.57783 0.69715 0.08939 0.0
O1566 O 0.63918 0.76174 0.12086 0.0
C1567 C 0.62427 0.79612 0.08241 0.0
C1568 C 0.60144 0.71997 0.0862 0.0
C1569 C 0.57459 0.72112 0.11382 0.0
N1570 N 0.59996 0.74772 0.11247 0.0
C1571 C 0.60921 0.7383 0.09475 0.0
C1572 C 0.58279 0.73944 0.12192 0.0
C1573 C 0.58402 0.71134 0.09585 0.0
C1574 C 0.61927 0.84363 0.14147 0.0
N1575 N 0.63059 0.83815 0.12322 0.0
C1576 C 0.60755 0.86152 0.1413 0.0
C1577 C 0.60745 0.87382 0.12226 0.0
C1578 C 0.61901 0.86811 0.1037 0.0
C1579 C 0.63053 0.8501 0.10447 0.0
C1580 C 0.69423 0.85474 0.1152 0.0
C1581 C 0.68106 0.81876 0.09535 0.0
C1582 C 0.67677 0.84455 0.12286 0.0
N1583 N 0.67034 0.82686 0.11285 0.0
C1584 C 0.69859 0.82852 0.08725 0.0
C1585 C 0.70517 0.84665 0.09726 0.0
C1586 C 0.6576 0.76813 0.12192 0.0
C1587 C 0.60052 0.76847 0.19263 0.0
C1588 C 0.61785 0.74446 0.1595 0.0
C1589 C 0.61747 0.73731 0.18149 0.0
C1590 C 0.60876 0.74943 0.19814 0.0
N1591 N 0.60974 0.76315 0.15423 0.0
C1592 C 0.60114 0.77511 0.17045 0.0
Co1593 Co 0.18736 0.64643 0.12393 0.0
Co1594 Co 0.227 0.61139 0.1237 0.0
O1595 O 0.20124 0.62206 0.13529 0.0
C1596 C 0.19494 0.65473 0.17133 0.0
O1597 O 0.2136 0.6481 0.16763 0.0
C1598 C 0.19896 0.57584 0.11979 0.0
O1599 O 0.18576 0.58772 0.10948 0.0
O1600 O 0.21663 0.61293 0.09251 0.0
O1601 O 0.19277 0.63783 0.09243 0.0
H1602 H 0.28749 0.60924 0.07183 0.0
H1603 H 0.16642 0.61946 0.15663 0.0
O1604 O 0.18197 0.6554 0.15542 0.0
H1605 H 0.12238 0.61926 0.08967 0.0
H1606 H 0.13142 0.69949 0.1237 0.0
H1607 H 0.19528 0.67632 0.08762 0.0
H1608 H 0.15414 0.63972 0.09053 0.0
H1609 H 0.14936 0.66859 0.13719 0.0
O1610 O 0.21606 0.58294 0.12648 0.0
H1611 H 0.25515 0.62304 0.08695 0.0
H1612 H 0.25335 0.5757 0.13561 0.0
H1613 H 0.17776 0.7072 0.07347 0.0
H1614 H 0.1347 0.59891 0.15656 0.0
H1615 H 0.14559 0.71896 0.09156 0.0
H1616 H 0.11246 0.5987 0.12288 0.0
O1617 O 0.21323 0.66263 0.12403 0.0
H1618 H 0.22253 0.59394 0.20534 0.0
H1619 H 0.26541 0.62483 0.14646 0.0
H1620 H 0.27804 0.62405 0.18529 0.0
H1621 H 0.25653 0.60851 0.21504 0.0
H1622 H 0.21042 0.59521 0.16633 0.0
H1623 H 0.28559 0.5613 0.12092 0.0
H1624 H 0.30292 0.57815 0.08886 0.0
O1625 O 0.23852 0.63952 0.12082 0.0
C1626 C 0.20387 0.62455 0.08248 0.0
C1627 C 0.28012 0.6018 0.08586 0.0
C1628 C 0.27904 0.57488 0.11339 0.0
N1629 N 0.25248 0.6003 0.11226 0.0
C1630 C 0.26184 0.60958 0.09453 0.0
C1631 C 0.26077 0.58308 0.12161 0.0
C1632 C 0.28876 0.58434 0.0954 0.0
C1633 C 0.15673 0.61958 0.14198 0.0
N1634 N 0.16206 0.63086 0.12365 0.0
C1635 C 0.13883 0.60786 0.14201 0.0
C1636 C 0.12637 0.60772 0.1231 0.0
C1637 C 0.13193 0.61925 0.10446 0.0
C1638 C 0.14995 0.63077 0.10502 0.0
C1639 C 0.14541 0.69449 0.11565 0.0
C1640 C 0.18122 0.68128 0.09548 0.0
C1641 C 0.15565 0.67704 0.12324 0.0
N1642 N 0.17325 0.67059 0.11308 0.0
C1643 C 0.1714 0.6988 0.08744 0.0
C1644 C 0.15336 0.70541 0.09761 0.0
C1645 C 0.23208 0.65793 0.1218 0.0
C1646 C 0.23207 0.6007 0.19251 0.0
C1647 C 0.25595 0.61808 0.15931 0.0
C1648 C 0.2632 0.61764 0.18127 0.0
C1649 C 0.25113 0.6089 0.19795 0.0
N1650 N 0.23723 0.61 0.15411 0.0
C1651 C 0.22533 0.60137 0.17037 0.0
Co1652 Co 0.3534 0.8112 0.87435 0.0
Co1653 Co 0.3888 0.7719 0.87399 0.0
O1654 O 0.37782 0.79763 0.86269 0.0
C1655 C 0.34494 0.80396 0.82694 0.0
O1656 O 0.35166 0.78529 0.83046 0.0
C1657 C 0.4242 0.80012 0.87777 0.0
O1658 O 0.41238 0.81315 0.88841 0.0
O1659 O 0.38746 0.78209 0.90525 0.0
O1660 O 0.36221 0.80559 0.90575 0.0
H1661 H 0.3919 0.71117 0.92547 0.0
H1662 H 0.38004 0.83266 0.84172 0.0
O1663 O 0.34424 0.8168 0.84296 0.0
H1664 H 0.38022 0.87609 0.90915 0.0
H1665 H 0.2999 0.86671 0.87548 0.0
H1666 H 0.32376 0.80273 0.91075 0.0
H1667 H 0.36002 0.84418 0.90807 0.0
H1668 H 0.33087 0.84913 0.86162 0.0
O1669 O 0.41712 0.78306 0.87095 0.0
H1670 H 0.37772 0.74348 0.91071 0.0
H1671 H 0.42456 0.74588 0.86152 0.0
H1672 H 0.29282 0.81988 0.92527 0.0
H1673 H 0.40033 0.86454 0.84201 0.0
H1674 H 0.28071 0.85211 0.90759 0.0
H1675 H 0.40054 0.88647 0.87593 0.0
O1676 O 0.33741 0.7852 0.87408 0.0
H1677 H 0.40547 0.7769 0.79219 0.0
H1678 H 0.37542 0.73351 0.85115 0.0
H1679 H 0.37595 0.72108 0.81224 0.0
H1680 H 0.39107 0.74284 0.78244 0.0
H1681 H 0.40447 0.78882 0.83129 0.0
H1682 H 0.43935 0.71367 0.87585 0.0
H1683 H 0.42294 0.69606 0.908 0.0
O1684 O 0.3608 0.76015 0.87712 0.0
C1685 C 0.37573 0.79461 0.91549 0.0
C1686 C 0.39915 0.71866 0.9114 0.0
C1687 C 0.42579 0.72008 0.88357 0.0
N1688 N 0.40019 0.74645 0.88515 0.0
C1689 C 0.39115 0.73693 0.90293 0.0
C1690 C 0.41737 0.73833 0.87555 0.0
C1691 C 0.41657 0.7102 0.9016 0.0
C1692 C 0.37992 0.84221 0.85647 0.0
N1693 N 0.36877 0.83663 0.87481 0.0
C1694 C 0.3915 0.86021 0.85657 0.0
C1695 C 0.39163 0.87249 0.87561 0.0
C1696 C 0.38024 0.86667 0.89426 0.0
C1697 C 0.36886 0.84857 0.89357 0.0
C1698 C 0.30505 0.8527 0.88335 0.0
C1699 C 0.31865 0.81682 0.90307 0.0
C1700 C 0.32254 0.84266 0.87555 0.0
N1701 N 0.32918 0.82502 0.88549 0.0
C1702 C 0.30109 0.82643 0.91132 0.0
C1703 C 0.29429 0.8445 0.90137 0.0
C1704 C 0.34232 0.7664 0.87625 0.0
C1705 C 0.3989 0.76725 0.80504 0.0
C1706 C 0.38199 0.74308 0.83828 0.0
C1707 C 0.38228 0.73595 0.81628 0.0
C1708 C 0.39079 0.74815 0.79957 0.0
N1709 N 0.38998 0.76184 0.8435 0.0
C1710 C 0.39837 0.77388 0.82722 0.0
Co1711 Co 0.18873 0.35314 0.87419 0.0
Co1712 Co 0.22877 0.3877 0.87422 0.0
O1713 O 0.20291 0.37726 0.86264 0.0
C1714 C 0.19608 0.34451 0.82682 0.0
O1715 O 0.21486 0.35084 0.83044 0.0
C1716 C 0.2013 0.42373 0.87754 0.0
O1717 O 0.18794 0.41225 0.88812 0.0
O1718 O 0.21822 0.38668 0.90536 0.0
O1719 O 0.1943 0.36184 0.90564 0.0
H1720 H 0.28901 0.38961 0.92645 0.0
H1721 H 0.1681 0.38026 0.8414 0.0
O1722 O 0.18314 0.34411 0.84276 0.0
H1723 H 0.12419 0.38136 0.90844 0.0
H1724 H 0.13207 0.30086 0.87485 0.0
H1725 H 0.19632 0.32331 0.91063 0.0
H1726 H 0.15566 0.36046 0.90763 0.0
H1727 H 0.15039 0.33145 0.86116 0.0
O1728 O 0.21827 0.41625 0.87095 0.0
H1729 H 0.25655 0.3761 0.91133 0.0
H1730 H 0.2557 0.42285 0.86197 0.0
H1731 H 0.17842 0.29273 0.92499 0.0
H1732 H 0.13667 0.40124 0.84143 0.0
H1733 H 0.14605 0.28133 0.90705 0.0
H1734 H 0.1145 0.40191 0.87515 0.0
O1735 O 0.21438 0.3366 0.87411 0.0
H1736 H 0.22499 0.40427 0.79232 0.0
H1737 H 0.2671 0.37344 0.8519 0.0
H1738 H 0.27994 0.37359 0.81314 0.0
H1739 H 0.25883 0.38911 0.78304 0.0
H1740 H 0.21265 0.40362 0.83127 0.0
H1741 H 0.28807 0.43697 0.87667 0.0
H1742 H 0.30498 0.42026 0.90908 0.0
O1743 O 0.23988 0.35945 0.87757 0.0
C1744 C 0.20541 0.37519 0.91548 0.0
C1745 C 0.28183 0.39698 0.91227 0.0
C1746 C 0.28129 0.42358 0.88435 0.0
N1747 N 0.25435 0.39856 0.88567 0.0
C1748 C 0.26348 0.38937 0.90359 0.0
C1749 C 0.26294 0.41554 0.87612 0.0
C1750 C 0.29077 0.41419 0.90253 0.0
C1751 C 0.15843 0.38034 0.85606 0.0
N1752 N 0.16364 0.36906 0.87444 0.0
C1753 C 0.1407 0.39231 0.85601 0.0
C1754 C 0.12828 0.3927 0.87495 0.0
C1755 C 0.13371 0.38117 0.89364 0.0
C1756 C 0.15157 0.36941 0.8931 0.0
C1757 C 0.14614 0.3057 0.88283 0.0
C1758 C 0.18217 0.31851 0.90284 0.0
C1759 C 0.1566 0.32298 0.87513 0.0
N1760 N 0.17431 0.32923 0.88521 0.0
C1761 C 0.17214 0.30115 0.91099 0.0
C1762 C 0.15399 0.29475 0.90091 0.0
C1763 C 0.23325 0.34111 0.87653 0.0
C1764 C 0.23436 0.39753 0.8053 0.0
C1765 C 0.2578 0.38017 0.83889 0.0
C1766 C 0.26518 0.38026 0.81698 0.0
C1767 C 0.25333 0.38898 0.8001 0.0
N1768 N 0.23917 0.38858 0.84386 0.0
C1769 C 0.22749 0.39719 0.8274 0.0
Co1770 Co 0.64666 0.18786 0.87345 0.0
Co1771 Co 0.61126 0.22717 0.87373 0.0
O1772 O 0.6222 0.20156 0.86204 0.0
C1773 C 0.65505 0.19555 0.82609 0.0
O1774 O 0.64831 0.21418 0.82978 0.0
C1775 C 0.57571 0.19903 0.87728 0.0
O1776 O 0.58739 0.18594 0.88803 0.0
O1777 O 0.61264 0.2166 0.90486 0.0
O1778 O 0.63793 0.19315 0.90493 0.0
H1779 H 0.60826 0.2873 0.92605 0.0
H1780 H 0.61991 0.16677 0.84065 0.0
O1781 O 0.65574 0.18258 0.84199 0.0
H1782 H 0.61994 0.1226 0.90751 0.0
H1783 H 0.70015 0.13234 0.87374 0.0
H1784 H 0.67639 0.19596 0.90986 0.0
H1785 H 0.64013 0.15453 0.90677 0.0
H1786 H 0.66914 0.15006 0.8602 0.0
O1787 O 0.58292 0.21606 0.87054 0.0
H1788 H 0.6224 0.25515 0.91083 0.0
H1789 H 0.57548 0.25335 0.86169 0.0
H1790 H 0.70737 0.17866 0.92408 0.0
H1791 H 0.59962 0.13489 0.8406 0.0
H1792 H 0.71943 0.14661 0.90597 0.0
H1793 H 0.59952 0.11258 0.87423 0.0
O1794 O 0.66265 0.21387 0.87345 0.0
H1795 H 0.59449 0.22318 0.79189 0.0
H1796 H 0.62463 0.26583 0.85144 0.0
H1797 H 0.62406 0.27874 0.81271 0.0
H1798 H 0.6089 0.25735 0.78262 0.0
H1799 H 0.59554 0.21078 0.83081 0.0
H1800 H 0.56074 0.28539 0.87649 0.0
H1801 H 0.57721 0.30263 0.90885 0.0
O1802 O 0.63927 0.23887 0.877 0.0
C1803 C 0.62443 0.20399 0.91488 0.0
C1804 C 0.60099 0.27997 0.9119 0.0
C1805 C 0.5743 0.27889 0.8841 0.0
N1806 N 0.59989 0.25249 0.88528 0.0
C1807 C 0.60896 0.2618 0.90317 0.0
C1808 C 0.5827 0.26073 0.87582 0.0
C1809 C 0.58355 0.28855 0.90225 0.0
C1810 C 0.62007 0.15705 0.85528 0.0
N1811 N 0.63128 0.16244 0.87364 0.0
C1812 C 0.6085 0.13906 0.85518 0.0
C1813 C 0.60843 0.12656 0.87406 0.0
C1814 C 0.61988 0.13218 0.89275 0.0
C1815 C 0.63125 0.1503 0.89225 0.0
C1816 C 0.69502 0.14627 0.8818 0.0
C1817 C 0.68148 0.18195 0.902 0.0
C1818 C 0.67751 0.15639 0.87418 0.0
N1819 N 0.6709 0.17393 0.88435 0.0
C1820 C 0.69906 0.17226 0.91007 0.0
C1821 C 0.70583 0.15429 0.89989 0.0
C1822 C 0.65774 0.23263 0.87593 0.0
C1823 C 0.60108 0.23266 0.80486 0.0
C1824 C 0.61804 0.25641 0.83844 0.0
C1825 C 0.61772 0.26382 0.81654 0.0
C1826 C 0.6092 0.25183 0.79967 0.0
N1827 N 0.61005 0.2376 0.8434 0.0
C1828 C 0.60163 0.22576 0.82695 0.0
Co1829 Co 0.81161 0.64539 0.87376 0.0
Co1830 Co 0.77186 0.61051 0.87453 0.0
O1831 O 0.79759 0.621 0.86269 0.0
C1832 C 0.80389 0.65325 0.82631 0.0
O1833 O 0.78519 0.64682 0.83025 0.0
C1834 C 0.79963 0.57472 0.87831 0.0
O1835 O 0.81288 0.58634 0.88888 0.0
O1836 O 0.78249 0.61208 0.90561 0.0
O1837 O 0.80623 0.6371 0.9054 0.0
H1838 H 0.7118 0.60875 0.92701 0.0
H1839 H 0.83233 0.618 0.84131 0.0
O1840 O 0.81695 0.65403 0.84213 0.0
H1841 H 0.87653 0.61822 0.90815 0.0
H1842 H 0.8678 0.69817 0.87322 0.0
H1843 H 0.80393 0.67565 0.90976 0.0
H1844 H 0.84487 0.63882 0.90715 0.0
H1845 H 0.84967 0.66724 0.86014 0.0
O1846 O 0.78261 0.58203 0.87165 0.0
H1847 H 0.74407 0.62238 0.91153 0.0
H1848 H 0.74523 0.57493 0.86297 0.0
H1849 H 0.82164 0.70658 0.92351 0.0
H1850 H 0.86394 0.59729 0.84153 0.0
H1851 H 0.85382 0.71802 0.90519 0.0
H1852 H 0.88626 0.59729 0.87515 0.0
O1853 O 0.78582 0.6617 0.87357 0.0
H1854 H 0.77554 0.59284 0.7929 0.0
H1855 H 0.73333 0.6241 0.85212 0.0
H1856 H 0.72036 0.62327 0.81342 0.0
H1857 H 0.74153 0.60754 0.7835 0.0
H1858 H 0.788 0.59415 0.83178 0.0
H1859 H 0.71306 0.5607 0.87803 0.0
H1860 H 0.69608 0.5777 0.91022 0.0
O1861 O 0.76051 0.6387 0.87746 0.0
C1862 C 0.79522 0.62383 0.9155 0.0
C1863 C 0.71901 0.60126 0.91292 0.0
C1864 C 0.71973 0.57427 0.88545 0.0
N1865 N 0.74641 0.59957 0.88625 0.0
C1866 C 0.73725 0.60893 0.90405 0.0
C1867 C 0.73796 0.58238 0.87703 0.0
C1868 C 0.71021 0.58382 0.90351 0.0
C1869 C 0.84206 0.61821 0.85593 0.0
N1870 N 0.83683 0.6297 0.87414 0.0
C1871 C 0.8599 0.60639 0.85599 0.0
C1872 C 0.8724 0.60638 0.87487 0.0
C1873 C 0.86694 0.61811 0.89339 0.0
C1874 C 0.84898 0.62972 0.89274 0.0
C1875 C 0.85381 0.69332 0.88137 0.0
C1876 C 0.818 0.68047 0.90181 0.0
C1877 C 0.84347 0.67585 0.87401 0.0
N1878 N 0.82586 0.66958 0.8843 0.0
C1879 C 0.82792 0.69802 0.90962 0.0
C1880 C 0.84596 0.70444 0.89931 0.0
C1881 C 0.76699 0.65708 0.87614 0.0
C1882 C 0.76615 0.59967 0.8058 0.0
C1883 C 0.74265 0.61727 0.83919 0.0
C1884 C 0.7352 0.6168 0.81731 0.0
C1885 C 0.74708 0.60796 0.80054 0.0
N1886 N 0.76137 0.60911 0.84422 0.0
C1887 C 0.77309 0.60038 0.82787 0.0
H1888 H 0.27285 0.19959 0.37222 0.0
H1889 H 0.15344 0.22534 0.38377 0.0
H1890 H 0.22534 0.15453 0.38285 0.0
H1891 H 0.19939 0.27187 0.37248 0.0
H1892 H 0.18018 0.19955 0.38457 0.0
H1893 H 0.24676 0.22656 0.37332 0.0
C1894 C 0.25699 0.19534 0.37482 0.0
C1895 C 0.25132 0.1747 0.37734 0.0
C1896 C 0.18449 0.21538 0.38194 0.0
C1897 C 0.22145 0.20548 0.37862 0.0
C1898 C 0.16917 0.2302 0.38147 0.0
C1899 C 0.1741 0.25088 0.37794 0.0
C1900 C 0.205 0.22116 0.37883 0.0
C1901 C 0.19484 0.25612 0.37518 0.0
C1902 C 0.24212 0.21076 0.37545 0.0
C1903 C 0.23051 0.17016 0.38072 0.0
N1904 N 0.20954 0.24133 0.37563 0.0
N1905 N 0.2164 0.18539 0.38121 0.0
H1906 H 0.72605 0.20015 0.3723 0.0
H1907 H 0.84554 0.2254 0.38426 0.0
H1908 H 0.77342 0.15484 0.38242 0.0
H1909 H 0.79985 0.27208 0.37248 0.0
H1910 H 0.81869 0.19972 0.38498 0.0
H1911 H 0.75225 0.22702 0.37358 0.0
C1912 C 0.7419 0.19582 0.37482 0.0
C1913 C 0.7475 0.17514 0.37714 0.0
C1914 C 0.81447 0.21557 0.38226 0.0
C1915 C 0.77748 0.2058 0.37866 0.0
C1916 C 0.82985 0.23031 0.38184 0.0
C1917 C 0.82502 0.25101 0.37817 0.0
C1918 C 0.79399 0.22142 0.37899 0.0
C1919 C 0.80432 0.25632 0.37529 0.0
C1920 C 0.75684 0.21118 0.37555 0.0
C1921 C 0.76829 0.1705 0.38043 0.0
N1922 N 0.78956 0.2416 0.37569 0.0
N1923 N 0.78246 0.18568 0.38105 0.0
H1924 H 0.8 0.72653 0.3722 0.0
H1925 H 0.77477 0.8461 0.38297 0.0
H1926 H 0.8453 0.7739 0.38239 0.0
H1927 H 0.72806 0.80028 0.37199 0.0
H1928 H 0.80047 0.81927 0.38387 0.0
H1929 H 0.77316 0.75274 0.37315 0.0
C1930 C 0.80433 0.74239 0.37468 0.0
C1931 C 0.825 0.74798 0.37711 0.0
C1932 C 0.78461 0.81502 0.38129 0.0
C1933 C 0.79436 0.77799 0.37822 0.0
C1934 C 0.76986 0.83039 0.38075 0.0
C1935 C 0.74915 0.82551 0.37728 0.0
C1936 C 0.77875 0.79451 0.37832 0.0
C1937 C 0.74383 0.80478 0.37464 0.0
C1938 C 0.78898 0.75733 0.37521 0.0
C1939 C 0.82964 0.76878 0.38033 0.0
N1940 N 0.75856 0.79003 0.37516 0.0
N1941 N 0.81447 0.78297 0.38074 0.0
H1942 H 0.15372 0.77427 0.38222 0.0
H1943 H 0.27344 0.79933 0.37303 0.0
H1944 H 0.19966 0.72739 0.37277 0.0
H1945 H 0.22602 0.84467 0.38271 0.0
H1946 H 0.2472 0.77251 0.37378 0.0
H1947 H 0.18056 0.79995 0.38331 0.0
C1948 C 0.16946 0.76931 0.38038 0.0
C1949 C 0.17437 0.74856 0.37729 0.0
C1950 C 0.2426 0.78834 0.37578 0.0
C1951 C 0.20539 0.77815 0.37853 0.0
C1952 C 0.25757 0.80367 0.37536 0.0
C1953 C 0.25197 0.82435 0.3777 0.0
C1954 C 0.22193 0.79374 0.37857 0.0
C1955 C 0.23115 0.82901 0.38072 0.0
C1956 C 0.18484 0.78406 0.38102 0.0
C1957 C 0.19513 0.7432 0.37512 0.0
N1958 N 0.21695 0.81385 0.38102 0.0
N1959 N 0.20989 0.75792 0.37572 0.0
H1960 H 0.2 0.72578 0.62592 0.0
H1961 H 0.22547 0.84531 0.61515 0.0
H1962 H 0.15505 0.77325 0.61457 0.0
H1963 H 0.27221 0.79953 0.62625 0.0
H1964 H 0.19984 0.81846 0.61396 0.0
H1965 H 0.22698 0.75191 0.62513 0.0
C1966 C 0.19578 0.74163 0.62321 0.0
C1967 C 0.17516 0.74729 0.62043 0.0
C1968 C 0.21569 0.8142 0.61663 0.0
C1969 C 0.20593 0.77718 0.61951 0.0
C1970 C 0.23041 0.82959 0.61734 0.0
C1971 C 0.25111 0.82474 0.62092 0.0
C1972 C 0.22155 0.79369 0.61956 0.0
C1973 C 0.25644 0.80401 0.62351 0.0
C1974 C 0.2112 0.75653 0.62277 0.0
C1975 C 0.17065 0.76808 0.61693 0.0
N1976 N 0.24173 0.78923 0.62284 0.0
N1977 N 0.18587 0.7822 0.61663 0.0
H1978 H 0.273 0.19997 0.62534 0.0
H1979 H 0.15346 0.22561 0.61531 0.0
H1980 H 0.2254 0.1549 0.61523 0.0
H1981 H 0.19949 0.27223 0.6257 0.0
H1982 H 0.18022 0.19985 0.61415 0.0
H1983 H 0.2469 0.22694 0.62444 0.0
C1984 C 0.25712 0.19572 0.62289 0.0
C1985 C 0.25142 0.17507 0.62048 0.0
C1986 C 0.18453 0.2157 0.61666 0.0
C1987 C 0.22155 0.20585 0.61942 0.0
C1988 C 0.16921 0.23049 0.61734 0.0
C1989 C 0.17416 0.25119 0.62072 0.0
C1990 C 0.20508 0.22151 0.61941 0.0
C1991 C 0.19493 0.25646 0.62311 0.0
C1992 C 0.24224 0.21113 0.62238 0.0
C1993 C 0.23059 0.17053 0.61728 0.0
N1994 N 0.20964 0.24169 0.62248 0.0
N1995 N 0.21648 0.18576 0.6169 0.0
H1996 H 0.77475 0.15412 0.61483 0.0
H1997 H 0.79996 0.27376 0.62476 0.0
H1998 H 0.72795 0.20004 0.62489 0.0
H1999 H 0.84531 0.22626 0.61565 0.0
H2000 H 0.77309 0.24757 0.62364 0.0
H2001 H 0.80045 0.18094 0.61386 0.0
C2002 C 0.76981 0.16986 0.61683 0.0
C2003 C 0.74908 0.17476 0.62007 0.0
C2004 C 0.78893 0.24295 0.62185 0.0
C2005 C 0.7787 0.20576 0.61897 0.0
C2006 C 0.80429 0.25788 0.62248 0.0
C2007 C 0.82498 0.25224 0.62041 0.0
C2008 C 0.79432 0.22226 0.61911 0.0
C2009 C 0.82963 0.23141 0.61743 0.0
C2010 C 0.78457 0.18522 0.61626 0.0
C2011 C 0.74375 0.19552 0.62242 0.0
N2012 N 0.81445 0.21724 0.61692 0.0
N2013 N 0.75848 0.21026 0.62189 0.0
H2014 H 0.79902 0.72559 0.62589 0.0
H2015 H 0.77436 0.8453 0.61513 0.0
H2016 H 0.84431 0.7728 0.61485 0.0
H2017 H 0.72727 0.79981 0.62587 0.0
H2018 H 0.79982 0.81828 0.61411 0.0
H2019 H 0.77221 0.7519 0.62505 0.0
C2020 C 0.80335 0.74142 0.62324 0.0
C2021 C 0.82401 0.74695 0.62055 0.0
C2022 C 0.78394 0.81413 0.61666 0.0
C2023 C 0.79344 0.77705 0.61957 0.0
C2024 C 0.76931 0.82961 0.61727 0.0
C2025 C 0.74856 0.82489 0.6207 0.0
C2026 C 0.77792 0.79365 0.61954 0.0
C2027 C 0.74308 0.80419 0.62324 0.0
C2028 C 0.78803 0.75642 0.62278 0.0
C2029 C 0.82867 0.76772 0.61713 0.0
N2030 N 0.7577 0.78932 0.62267 0.0
N2031 N 0.81354 0.78194 0.61679 0.0
H2032 H 0.65351 0.72414 0.88187 0.0
H2033 H 0.77313 0.6987 0.87233 0.0
H2034 H 0.69961 0.77083 0.87219 0.0
H2035 H 0.72563 0.65348 0.8822 0.0
H2036 H 0.74695 0.72558 0.87306 0.0
H2037 H 0.68026 0.69835 0.88284 0.0
C2038 C 0.66927 0.72903 0.87995 0.0
C2039 C 0.67425 0.74976 0.87684 0.0
C2040 C 0.74232 0.70976 0.8751 0.0
C2041 C 0.70515 0.72006 0.87796 0.0
C2042 C 0.75725 0.6944 0.87469 0.0
C2043 C 0.75161 0.67374 0.8771 0.0
C2044 C 0.72164 0.70442 0.87796 0.0
C2045 C 0.73078 0.66913 0.88016 0.0
C2046 C 0.68459 0.71422 0.88053 0.0
C2047 C 0.69502 0.75504 0.87457 0.0
N2048 N 0.71661 0.68432 0.88045 0.0
N2049 N 0.70972 0.74026 0.87512 0.0
H2050 H 0.22692 0.69984 0.87279 0.0
H2051 H 0.3466 0.72509 0.88209 0.0
H2052 H 0.27448 0.6545 0.88165 0.0
H2053 H 0.30056 0.77192 0.8729 0.0
H2054 H 0.31981 0.69934 0.88292 0.0
H2055 H 0.25311 0.72671 0.87374 0.0
C2056 C 0.24281 0.69551 0.87497 0.0
C2057 C 0.24846 0.67482 0.87703 0.0
C2058 C 0.3155 0.71523 0.88075 0.0
C2059 C 0.27844 0.70549 0.87814 0.0
C2060 C 0.33084 0.73002 0.88025 0.0
C2061 C 0.32589 0.75078 0.87731 0.0
C2062 C 0.29494 0.72112 0.87826 0.0
C2063 C 0.30512 0.75611 0.87514 0.0
C2064 C 0.25774 0.71087 0.87551 0.0
C2065 C 0.26931 0.67018 0.87988 0.0
N2066 N 0.29039 0.74135 0.8756 0.0
N2067 N 0.28348 0.68536 0.8803 0.0
H2068 H 0.34635 0.27352 0.88263 0.0
H2069 H 0.22687 0.2995 0.87281 0.0
H2070 H 0.30016 0.22702 0.87244 0.0
H2071 H 0.2746 0.34446 0.88276 0.0
H2072 H 0.25291 0.27247 0.8736 0.0
H2073 H 0.31969 0.29938 0.88366 0.0
C2074 C 0.33059 0.26869 0.88061 0.0
C2075 C 0.32556 0.24799 0.87734 0.0
C2076 C 0.25761 0.28826 0.87565 0.0
C2077 C 0.29474 0.27779 0.87852 0.0
C2078 C 0.24277 0.30371 0.8752 0.0
C2079 C 0.24852 0.32434 0.87761 0.0
C2080 C 0.27832 0.2935 0.87853 0.0
C2081 C 0.26937 0.32884 0.88072 0.0
C2082 C 0.31531 0.28354 0.88122 0.0
C2083 C 0.30478 0.24279 0.87494 0.0
N2084 N 0.28345 0.31357 0.88104 0.0
N2085 N 0.29012 0.25761 0.87552 0.0
H2086 H 0.65349 0.27389 0.88232 0.0
H2087 H 0.77318 0.29908 0.87304 0.0
H2088 H 0.69949 0.22714 0.87243 0.0
H2089 H 0.72572 0.34446 0.88226 0.0
H2090 H 0.74695 0.27225 0.87386 0.0
H2091 H 0.6803 0.29962 0.88341 0.0
C2092 C 0.66924 0.26898 0.88038 0.0
C2093 C 0.67417 0.24824 0.87716 0.0
C2094 C 0.74234 0.28809 0.87573 0.0
C2095 C 0.70514 0.27788 0.87842 0.0
C2096 C 0.7573 0.30343 0.87528 0.0
C2097 C 0.75169 0.32412 0.87748 0.0
C2098 C 0.72166 0.29349 0.87842 0.0
C2099 C 0.73085 0.32878 0.88039 0.0
C2100 C 0.68459 0.28375 0.88102 0.0
C2101 C 0.69494 0.24293 0.87488 0.0
N2102 N 0.71666 0.31362 0.88072 0.0
N2103 N 0.70967 0.25767 0.87549 0.0
H2104 H 0.65485 0.2741 0.11381 0.0
H2105 H 0.77435 0.2991 0.12597 0.0
H2106 H 0.70027 0.22715 0.12553 0.0
H2107 H 0.7272 0.34412 0.11343 0.0
H2108 H 0.74814 0.27219 0.12491 0.0
H2109 H 0.68184 0.29957 0.1127 0.0
C2110 C 0.67052 0.26908 0.11614 0.0
C2111 C 0.67522 0.24838 0.11988 0.0
C2112 C 0.74361 0.28798 0.12234 0.0
C2113 C 0.70645 0.27774 0.11863 0.0
C2114 C 0.75855 0.30335 0.12294 0.0
C2115 C 0.75301 0.32397 0.11992 0.0
C2116 C 0.72303 0.29329 0.11869 0.0
C2117 C 0.73229 0.32852 0.11599 0.0
C2118 C 0.68599 0.28371 0.11548 0.0
C2119 C 0.6959 0.24293 0.12265 0.0
N2120 N 0.71812 0.31334 0.11555 0.0
N2121 N 0.71077 0.25755 0.12205 0.0
H2122 H 0.72368 0.6541 0.11601 0.0
H2123 H 0.69932 0.77398 0.12539 0.0
H2124 H 0.77083 0.69973 0.12567 0.0
H2125 H 0.65367 0.72676 0.11624 0.0
H2126 H 0.726 0.74757 0.12461 0.0
H2127 H 0.69815 0.6811 0.11511 0.0
C2128 C 0.72872 0.66981 0.11793 0.0
C2129 C 0.74951 0.67458 0.12103 0.0
C2130 C 0.71013 0.74306 0.12274 0.0
C2131 C 0.7201 0.70578 0.12 0.0
C2132 C 0.69488 0.75812 0.12319 0.0
C2133 C 0.67416 0.75263 0.12098 0.0
C2134 C 0.7046 0.7224 0.12006 0.0
C2135 C 0.66937 0.73181 0.11811 0.0
C2136 C 0.71407 0.68527 0.1174 0.0
C2137 C 0.75499 0.6953 0.12331 0.0
N2138 N 0.68444 0.71753 0.11778 0.0
N2139 N 0.74036 0.71015 0.12281 0.0
H2140 H 0.22598 0.6996 0.12506 0.0
H2141 H 0.34567 0.72488 0.11585 0.0
H2142 H 0.2735 0.65422 0.11624 0.0
H2143 H 0.29961 0.77161 0.12546 0.0
H2144 H 0.31889 0.6991 0.11493 0.0
H2145 H 0.2522 0.72644 0.12424 0.0
C2146 C 0.24187 0.69525 0.12292 0.0
C2147 C 0.2475 0.67456 0.12082 0.0
C2148 C 0.31458 0.71498 0.11722 0.0
C2149 C 0.27752 0.7052 0.11985 0.0
C2150 C 0.32992 0.72978 0.11776 0.0
C2151 C 0.32496 0.75052 0.12085 0.0
C2152 C 0.29402 0.72083 0.11979 0.0
C2153 C 0.30418 0.75582 0.12311 0.0
C2154 C 0.25682 0.71059 0.12245 0.0
C2155 C 0.26835 0.6699 0.11802 0.0
N2156 N 0.28947 0.74105 0.12259 0.0
N2157 N 0.28254 0.68506 0.11767 0.0
H2158 H 0.27281 0.34614 0.11497 0.0
H2159 H 0.29929 0.22684 0.12577 0.0
H2160 H 0.22648 0.29991 0.12586 0.0
H2161 H 0.344 0.27476 0.11555 0.0
H2162 H 0.27212 0.25273 0.12477 0.0
H2163 H 0.29873 0.31955 0.11403 0.0
C2164 C 0.26802 0.33038 0.11715 0.0
C2165 C 0.24736 0.32532 0.12062 0.0
C2166 C 0.28789 0.25751 0.12271 0.0
C2167 C 0.27723 0.29458 0.11955 0.0
C2168 C 0.30342 0.24275 0.12327 0.0
C2169 C 0.32402 0.24859 0.12085 0.0
C2170 C 0.29302 0.27823 0.11968 0.0
C2171 C 0.32841 0.26945 0.11761 0.0
C2172 C 0.28291 0.31514 0.1166 0.0
C2173 C 0.24222 0.30454 0.12321 0.0
N2174 N 0.31307 0.28344 0.11716 0.0
N2175 N 0.25708 0.28992 0.12269 0.0
H2176 H 0.94919 0.28035 0.34897 0.0
H2177 H 0.05164 0.32931 0.39884 0.0
H2178 H 0.94851 0.3279 0.3991 0.0
H2179 H 0.04942 0.28004 0.35077 0.0
H2180 H 0.01424 0.33267 0.39596 0.0
H2181 H 0.98612 0.28384 0.34603 0.0
C2182 C 0.95683 0.29165 0.3593 0.0
C2183 C 0.9458 0.30365 0.37455 0.0
C2184 C 0.02202 0.32129 0.3859 0.0
C2185 C 0.98832 0.30762 0.37142 0.0
C2186 C 0.04334 0.3194 0.3875 0.0
C2187 C 0.05361 0.30418 0.37526 0.0
C2188 C 0.01104 0.30794 0.3719 0.0
C2189 C 0.04214 0.29178 0.36078 0.0
C2190 C 0.97797 0.29366 0.3576 0.0
C2191 C 0.95648 0.31826 0.38723 0.0
N2192 N 0.02152 0.29385 0.35963 0.0
N2193 N 0.97725 0.31967 0.3856 0.0
H2194 H 0.67035 0.05211 0.39828 0.0
H2195 H 0.71952 0.94965 0.34861 0.0
H2196 H 0.7197 0.0499 0.35031 0.0
H2197 H 0.67231 0.94897 0.39912 0.0
H2198 H 0.71593 0.98657 0.34561 0.0
H2199 H 0.66717 0.01468 0.3956 0.0
C2200 C 0.68032 0.0438 0.387 0.0
C2201 C 0.6955 0.05408 0.37473 0.0
C2202 C 0.70622 0.97842 0.35728 0.0
C2203 C 0.69194 0.01148 0.37159 0.0
C2204 C 0.70828 0.95729 0.35901 0.0
C2205 C 0.6964 0.94626 0.37438 0.0
C2206 C 0.69232 0.98877 0.37118 0.0
C2207 C 0.68186 0.95694 0.38716 0.0
C2208 C 0.67853 0.02247 0.38553 0.0
C2209 C 0.70798 0.04261 0.36034 0.0
N2210 N 0.6804 0.9777 0.38549 0.0
N2211 N 0.706 0.02197 0.3593 0.0
H2212 H 0.05192 0.67043 0.39808 0.0
H2213 H 0.94941 0.71913 0.3481 0.0
H2214 H 0.04966 0.71926 0.34948 0.0
H2215 H 0.9488 0.67186 0.39853 0.0
H2216 H 0.98633 0.71561 0.34509 0.0
H2217 H 0.01451 0.66709 0.39534 0.0
C2218 C 0.04361 0.68025 0.38665 0.0
C2219 C 0.05387 0.69534 0.37422 0.0
C2220 C 0.9782 0.70586 0.35674 0.0
C2221 C 0.01128 0.69161 0.37102 0.0
C2222 C 0.95706 0.70789 0.35848 0.0
C2223 C 0.94605 0.69597 0.37383 0.0
C2224 C 0.98857 0.69196 0.37062 0.0
C2225 C 0.95676 0.68144 0.38658 0.0
C2226 C 0.02228 0.67837 0.38514 0.0
C2227 C 0.04238 0.70762 0.35964 0.0
N2228 N 0.97752 0.68 0.38491 0.0
N2229 N 0.02175 0.70557 0.35857 0.0
H2230 H 0.32908 0.94763 0.39877 0.0
H2231 H 0.27911 0.04982 0.3494 0.0
H2232 H 0.27946 0.94954 0.35112 0.0
H2233 H 0.32728 0.0508 0.3988 0.0
H2234 H 0.28261 0.01288 0.34662 0.0
H2235 H 0.3321 0.98507 0.39598 0.0
C2236 C 0.31901 0.95587 0.38755 0.0
C2237 C 0.30381 0.9455 0.3754 0.0
C2238 C 0.29255 0.0211 0.358 0.0
C2239 C 0.30717 0.98812 0.37213 0.0
C2240 C 0.29053 0.04224 0.35961 0.0
C2241 C 0.30273 0.05337 0.37459 0.0
C2242 C 0.30673 0.01083 0.37164 0.0
C2243 C 0.31749 0.04276 0.38714 0.0
C2244 C 0.32071 0.97721 0.386 0.0
C2245 C 0.2912 0.95691 0.36106 0.0
N2246 N 0.31892 0.02198 0.38559 0.0
N2247 N 0.29309 0.97755 0.35996 0.0
H2248 H 0.04991 0.72098 0.64782 0.0
H2249 H 0.94759 0.67011 0.59977 0.0
H2250 H 0.0508 0.67178 0.59962 0.0
H2251 H 0.94958 0.7207 0.6462 0.0
H2252 H 0.98505 0.66726 0.60243 0.0
H2253 H 0.01295 0.71775 0.65052 0.0
C2254 C 0.04232 0.70939 0.63786 0.0
C2255 C 0.05343 0.69681 0.62324 0.0
C2256 C 0.97721 0.67884 0.61216 0.0
C2257 C 0.01086 0.69311 0.62612 0.0
C2258 C 0.95585 0.68044 0.61069 0.0
C2259 C 0.94549 0.69583 0.62255 0.0
C2260 C 0.98814 0.69267 0.62566 0.0
C2261 C 0.95693 0.70878 0.6365 0.0
C2262 C 0.02115 0.70753 0.63942 0.0
C2263 C 0.04277 0.68186 0.611 0.0
N2264 N 0.97758 0.70697 0.63754 0.0
N2265 N 0.02199 0.68057 0.61251 0.0
H2266 H 0.32869 0.94769 0.60085 0.0
H2267 H 0.27863 0.05023 0.64925 0.0
H2268 H 0.27881 0.9499 0.64816 0.0
H2269 H 0.32706 0.05082 0.60012 0.0
H2270 H 0.28202 0.0133 0.65228 0.0
H2271 H 0.33174 0.98513 0.60343 0.0
C2272 C 0.31857 0.956 0.61196 0.0
C2273 C 0.30329 0.94571 0.62407 0.0
C2274 C 0.29204 0.02143 0.64091 0.0
C2275 C 0.30668 0.98833 0.6271 0.0
C2276 C 0.29009 0.04257 0.63915 0.0
C2277 C 0.30239 0.05359 0.62417 0.0
C2278 C 0.30626 0.01105 0.62743 0.0
C2279 C 0.31718 0.04286 0.61178 0.0
C2280 C 0.32028 0.97734 0.61338 0.0
C2281 C 0.29062 0.9572 0.63825 0.0
N2282 N 0.31855 0.0221 0.61348 0.0
N2283 N 0.29252 0.97784 0.63924 0.0
H2284 H 0.05023 0.28121 0.65094 0.0
H2285 H 0.9478 0.32983 0.60059 0.0
H2286 H 0.0509 0.3282 0.60019 0.0
H2287 H 0.95001 0.28034 0.64839 0.0
H2288 H 0.98519 0.33326 0.60361 0.0
H2289 H 0.0133 0.28471 0.65382 0.0
C2290 C 0.04259 0.29239 0.64047 0.0
C2291 C 0.05362 0.30422 0.62505 0.0
C2292 C 0.9774 0.32181 0.61357 0.0
C2293 C 0.01109 0.30819 0.62811 0.0
C2294 C 0.9561 0.31987 0.6119 0.0
C2295 C 0.94584 0.30458 0.62402 0.0
C2296 C 0.98838 0.30843 0.62755 0.0
C2297 C 0.9573 0.29214 0.63847 0.0
C2298 C 0.02145 0.2944 0.64213 0.0
C2299 C 0.04293 0.31869 0.61219 0.0
N2300 N 0.97791 0.29426 0.6397 0.0
N2301 N 0.02216 0.3201 0.61379 0.0
H2302 H 0.67112 0.05198 0.60007 0.0
H2303 H 0.72057 0.94959 0.64959 0.0
H2304 H 0.72066 0.0499 0.64782 0.0
H2305 H 0.67264 0.94885 0.59988 0.0
H2306 H 0.71719 0.98654 0.6524 0.0
H2307 H 0.66796 0.01456 0.60287 0.0
C2308 C 0.68114 0.04371 0.61132 0.0
C2309 C 0.69636 0.05403 0.6235 0.0
C2310 C 0.70727 0.97837 0.64095 0.0
C2311 C 0.69284 0.01142 0.62677 0.0
C2312 C 0.70921 0.95722 0.63932 0.0
C2313 C 0.69706 0.94615 0.62424 0.0
C2314 C 0.6932 0.9887 0.62724 0.0
C2315 C 0.6824 0.95684 0.61163 0.0
C2316 C 0.67936 0.02238 0.61287 0.0
C2317 C 0.7089 0.04258 0.63786 0.0
N2318 N 0.68104 0.97761 0.6132 0.0
N2319 N 0.70694 0.02195 0.63897 0.0
H2320 H 0.5505 0.78103 0.8473 0.0
H2321 H 0.44829 0.82882 0.89899 0.0
H2322 H 0.55137 0.82697 0.89917 0.0
H2323 H 0.45031 0.78087 0.84935 0.0
H2324 H 0.48568 0.83226 0.89605 0.0
H2325 H 0.5136 0.78485 0.84439 0.0
C2326 C 0.54291 0.79205 0.85802 0.0
C2327 C 0.55398 0.80349 0.87374 0.0
C2328 C 0.47786 0.82116 0.88566 0.0
C2329 C 0.5115 0.80782 0.87067 0.0
C2330 C 0.45654 0.81922 0.88729 0.0
C2331 C 0.44624 0.80433 0.87463 0.0
C2332 C 0.48878 0.80818 0.87119 0.0
C2333 C 0.45764 0.79234 0.85969 0.0
C2334 C 0.52179 0.79425 0.85634 0.0
C2335 C 0.54336 0.81777 0.88693 0.0
N2336 N 0.47826 0.79444 0.85852 0.0
N2337 N 0.52261 0.81935 0.88531 0.0
H2338 H 0.22119 0.44919 0.84893 0.0
H2339 H 0.17137 0.55169 0.89769 0.0
H2340 H 0.17297 0.44856 0.89828 0.0
H2341 H 0.22112 0.54949 0.85021 0.0
H2342 H 0.16827 0.51425 0.89505 0.0
H2343 H 0.21779 0.48612 0.84594 0.0
C2344 C 0.20978 0.45684 0.85909 0.0
C2345 C 0.19754 0.44581 0.87412 0.0
C2346 C 0.17971 0.52204 0.88507 0.0
C2347 C 0.19365 0.48834 0.87092 0.0
C2348 C 0.18145 0.54338 0.88653 0.0
C2349 C 0.19671 0.55367 0.87439 0.0
C2350 C 0.19326 0.51106 0.87129 0.0
C2351 C 0.20933 0.54219 0.86014 0.0
C2352 C 0.20782 0.47798 0.85735 0.0
C2353 C 0.18279 0.45652 0.88658 0.0
N2354 N 0.2074 0.52155 0.85912 0.0
N2355 N 0.18141 0.47729 0.88491 0.0
H2356 H 0.44793 0.1696 0.8991 0.0
H2357 H 0.5502 0.21769 0.8478 0.0
H2358 H 0.44999 0.21797 0.84995 0.0
H2359 H 0.55107 0.17118 0.89907 0.0
H2360 H 0.51328 0.21405 0.84501 0.0
H2361 H 0.48533 0.16619 0.89615 0.0
C2362 C 0.4562 0.1793 0.88751 0.0
C2363 C 0.44589 0.19429 0.87499 0.0
C2364 C 0.52147 0.2045 0.8568 0.0
C2365 C 0.48845 0.19048 0.87154 0.0
C2366 C 0.5426 0.20659 0.85841 0.0
C2367 C 0.55369 0.19493 0.87393 0.0
C2368 C 0.51117 0.1908 0.87098 0.0
C2369 C 0.54306 0.18056 0.88698 0.0
C2370 C 0.47751 0.17738 0.88588 0.0
C2371 C 0.45731 0.20642 0.86019 0.0
N2372 N 0.52229 0.17907 0.88543 0.0
N2373 N 0.47793 0.20433 0.85901 0.0
H2374 H 0.82926 0.44677 0.89883 0.0
H2375 H 0.7806 0.54936 0.84897 0.0
H2376 H 0.78026 0.44916 0.85045 0.0
H2377 H 0.82759 0.54992 0.89973 0.0
H2378 H 0.78417 0.51246 0.84591 0.0
H2379 H 0.8326 0.4842 0.89618 0.0
C2380 C 0.8194 0.45512 0.88747 0.0
C2381 C 0.80426 0.4449 0.87508 0.0
C2382 C 0.79384 0.52057 0.85765 0.0
C2383 C 0.808 0.48748 0.87197 0.0
C2384 C 0.79178 0.5417 0.85942 0.0
C2385 C 0.80361 0.55269 0.87487 0.0
C2386 C 0.80767 0.51019 0.8716 0.0
C2387 C 0.81808 0.54198 0.8877 0.0
C2388 C 0.82128 0.47645 0.88601 0.0
C2389 C 0.79193 0.45642 0.86058 0.0
N2390 N 0.81954 0.52122 0.88599 0.0
N2391 N 0.79399 0.47704 0.85955 0.0
H2392 H 0.44944 0.22264 0.14841 0.0
H2393 H 0.55162 0.17164 0.10024 0.0
H2394 H 0.44847 0.17341 0.10024 0.0
H2395 H 0.5498 0.22198 0.14699 0.0
H2396 H 0.51417 0.16886 0.10291 0.0
H2397 H 0.4864 0.21932 0.15113 0.0
C2398 C 0.45702 0.21102 0.13846 0.0
C2399 C 0.44588 0.19846 0.12385 0.0
C2400 C 0.52205 0.18036 0.11272 0.0
C2401 C 0.48844 0.19466 0.12675 0.0
C2402 C 0.5434 0.18193 0.11124 0.0
C2403 C 0.55381 0.19723 0.12318 0.0
C2404 C 0.51116 0.19416 0.1263 0.0
C2405 C 0.54242 0.21013 0.13723 0.0
C2406 C 0.47818 0.20912 0.14003 0.0
C2407 C 0.45651 0.18349 0.11162 0.0
N2408 N 0.52176 0.20837 0.13827 0.0
N2409 N 0.47729 0.18215 0.11314 0.0
H2410 H 0.82788 0.55217 0.10065 0.0
H2411 H 0.77905 0.44887 0.1487 0.0
H2412 H 0.77733 0.54918 0.14707 0.0
H2413 H 0.82788 0.44898 0.10005 0.0
H2414 H 0.78172 0.48587 0.15157 0.0
H2415 H 0.83146 0.51478 0.10328 0.0
C2416 C 0.81771 0.5437 0.11156 0.0
C2417 C 0.80211 0.55376 0.12342 0.0
C2418 C 0.79199 0.47788 0.14034 0.0
C2419 C 0.80612 0.51119 0.12652 0.0
C2420 C 0.79045 0.4567 0.13868 0.0
C2421 C 0.80308 0.44585 0.12387 0.0
C2422 C 0.80612 0.48846 0.12694 0.0
C2423 C 0.81777 0.45679 0.11157 0.0
C2424 C 0.81973 0.52239 0.11302 0.0
C2425 C 0.78939 0.54207 0.13736 0.0
N2426 N 0.81874 0.47759 0.11318 0.0
N2427 N 0.79161 0.52145 0.1384 0.0
H2428 H 0.44901 0.7811 0.1498 0.0
H2429 H 0.5511 0.82987 0.09878 0.0
H2430 H 0.44794 0.82782 0.09877 0.0
H2431 H 0.54925 0.78128 0.14768 0.0
H2432 H 0.51367 0.83302 0.10165 0.0
H2433 H 0.48593 0.78481 0.15254 0.0
C2434 C 0.45656 0.79226 0.13923 0.0
C2435 C 0.44542 0.80397 0.1238 0.0
C2436 C 0.52154 0.82183 0.11189 0.0
C2437 C 0.48794 0.80819 0.12669 0.0
C2438 C 0.54287 0.82006 0.11029 0.0
C2439 C 0.55325 0.80509 0.12278 0.0
C2440 C 0.51066 0.80862 0.12614 0.0
C2441 C 0.54187 0.79282 0.13748 0.0
C2442 C 0.4777 0.7944 0.14081 0.0
C2443 C 0.456 0.81841 0.1108 0.0
N2444 N 0.52124 0.79478 0.13863 0.0
N2445 N 0.47677 0.81995 0.11232 0.0
H2446 H 0.2171 0.4492 0.15017 0.0
H2447 H 0.16965 0.55199 0.09926 0.0
H2448 H 0.17062 0.44881 0.09886 0.0
H2449 H 0.21893 0.54941 0.1473 0.0
H2450 H 0.16597 0.51461 0.10219 0.0
H2451 H 0.21392 0.48617 0.15288 0.0
C2452 C 0.20609 0.45691 0.13954 0.0
C2453 C 0.19432 0.44594 0.12403 0.0
C2454 C 0.17744 0.52231 0.11222 0.0
C2455 C 0.19071 0.48852 0.12688 0.0
C2456 C 0.17952 0.54361 0.11059 0.0
C2457 C 0.19481 0.55377 0.12282 0.0
C2458 C 0.19067 0.51124 0.12627 0.0
C2459 C 0.20713 0.54221 0.13729 0.0
C2460 C 0.20427 0.47808 0.1411 0.0
C2461 C 0.18008 0.45673 0.11095 0.0
N2462 N 0.20486 0.52161 0.1385 0.0
N2463 N 0.17885 0.47752 0.11246 0.0
H2464 H 0.14632 0.32048 0.44376 0.0
H2465 H 0.09797 0.27397 0.55561 0.0
H2466 H 0.09908 0.2741 0.44437 0.0
H2467 H 0.14573 0.31981 0.55478 0.0
H2468 H 0.0966 0.2754 0.5149 0.0
H2469 H 0.14473 0.32198 0.48441 0.0
C2470 C 0.13553 0.31068 0.45239 0.0
C2471 C 0.12288 0.29707 0.44054 0.0
C2472 C 0.1073 0.28522 0.52364 0.0
C2473 C 0.12105 0.29869 0.48723 0.0
C2474 C 0.10809 0.28443 0.54692 0.0
C2475 C 0.12207 0.29672 0.55872 0.0
C2476 C 0.12059 0.29835 0.51201 0.0
C2477 C 0.13476 0.30999 0.54647 0.0
C2478 C 0.13464 0.31154 0.47565 0.0
C2479 C 0.10917 0.28479 0.45273 0.0
N2480 N 0.13378 0.31037 0.5238 0.0
N2481 N 0.1087 0.28583 0.4754 0.0
H2482 H 0.72642 0.0988 0.55457 0.0
H2483 H 0.67848 0.14646 0.44307 0.0
H2484 H 0.68018 0.14618 0.55409 0.0
H2485 H 0.72552 0.09987 0.44336 0.0
H2486 H 0.67731 0.14491 0.48374 0.0
H2487 H 0.72469 0.09737 0.51388 0.0
C2488 C 0.71581 0.10883 0.54596 0.0
C2489 C 0.70349 0.12271 0.55785 0.0
C2490 C 0.68782 0.13495 0.4749 0.0
C2491 C 0.70151 0.12117 0.51116 0.0
C2492 C 0.6885 0.13581 0.45163 0.0
C2493 C 0.7022 0.12334 0.43969 0.0
C2494 C 0.70096 0.12157 0.4864 0.0
C2495 C 0.71475 0.10982 0.4518 0.0
C2496 C 0.71485 0.10801 0.52269 0.0
C2497 C 0.69003 0.13528 0.5457 0.0
N2498 N 0.71389 0.10938 0.47448 0.0
N2499 N 0.68947 0.13427 0.52305 0.0
H2500 H 0.90101 0.72536 0.44296 0.0
H2501 H 0.85246 0.67815 0.5544 0.0
H2502 H 0.85335 0.6794 0.44317 0.0
H2503 H 0.8995 0.72475 0.55403 0.0
H2504 H 0.85408 0.67685 0.5137 0.0
H2505 H 0.90215 0.72373 0.48364 0.0
C2506 C 0.89085 0.71483 0.45151 0.0
C2507 C 0.87698 0.70257 0.43954 0.0
C2508 C 0.86411 0.68729 0.52254 0.0
C2509 C 0.8782 0.70071 0.48625 0.0
C2510 C 0.86321 0.68804 0.54582 0.0
C2511 C 0.8758 0.70166 0.55774 0.0
C2512 C 0.87766 0.70025 0.51103 0.0
C2513 C 0.88945 0.71405 0.54562 0.0
C2514 C 0.89151 0.71393 0.47478 0.0
C2515 C 0.86425 0.68921 0.45163 0.0
N2516 N 0.88994 0.7131 0.52295 0.0
N2517 N 0.8651 0.68871 0.4743 0.0
H2518 H 0.27343 0.90077 0.55538 0.0
H2519 H 0.32107 0.85304 0.44378 0.0
H2520 H 0.31966 0.85338 0.55483 0.0
H2521 H 0.27403 0.89963 0.44419 0.0
H2522 H 0.32233 0.85459 0.48445 0.0
H2523 H 0.27504 0.90215 0.51469 0.0
C2524 C 0.28401 0.89073 0.54676 0.0
C2525 C 0.29636 0.87686 0.55863 0.0
C2526 C 0.3118 0.86454 0.47564 0.0
C2527 C 0.29821 0.87835 0.51193 0.0
C2528 C 0.31107 0.86368 0.45237 0.0
C2529 C 0.29735 0.87616 0.44046 0.0
C2530 C 0.29869 0.87793 0.48717 0.0
C2531 C 0.28482 0.88967 0.4526 0.0
C2532 C 0.2849 0.89152 0.52349 0.0
C2533 C 0.30978 0.86427 0.54646 0.0
N2534 N 0.28574 0.89012 0.47527 0.0
N2535 N 0.31028 0.86526 0.52379 0.0
H2536 H 0.09853 0.72603 0.44286 0.0
H2537 H 0.14594 0.67844 0.55464 0.0
H2538 H 0.14592 0.6798 0.44361 0.0
H2539 H 0.09955 0.72568 0.55406 0.0
H2540 H 0.14444 0.67712 0.51398 0.0
H2541 H 0.09705 0.72447 0.48354 0.0
C2542 C 0.10855 0.71546 0.45152 0.0
C2543 C 0.12245 0.7031 0.43971 0.0
C2544 C 0.13452 0.6877 0.52275 0.0
C2545 C 0.12084 0.70131 0.48641 0.0
C2546 C 0.13534 0.68847 0.54602 0.0
C2547 C 0.12291 0.70227 0.55788 0.0
C2548 C 0.12121 0.70085 0.51117 0.0
C2549 C 0.10947 0.71483 0.54569 0.0
C2550 C 0.1077 0.7146 0.47479 0.0
C2551 C 0.13501 0.68969 0.45194 0.0
N2552 N 0.10905 0.71388 0.52301 0.0
N2553 N 0.13396 0.68922 0.4746 0.0
H2554 H 0.32045 0.14604 0.44303 0.0
H2555 H 0.27304 0.09852 0.55489 0.0
H2556 H 0.27349 0.09937 0.44372 0.0
H2557 H 0.3194 0.14578 0.55417 0.0
H2558 H 0.27457 0.0971 0.5142 0.0
H2559 H 0.3218 0.14459 0.48372 0.0
C2560 C 0.31049 0.1354 0.45168 0.0
C2561 C 0.29676 0.12287 0.43985 0.0
C2562 C 0.28448 0.10771 0.52295 0.0
C2563 C 0.29822 0.12122 0.48657 0.0
C2564 C 0.28364 0.10853 0.54623 0.0
C2565 C 0.29605 0.12237 0.55806 0.0
C2566 C 0.29779 0.12083 0.51135 0.0
C2567 C 0.30948 0.13492 0.54583 0.0
C2568 C 0.31128 0.1346 0.47496 0.0
C2569 C 0.28429 0.10937 0.45207 0.0
N2570 N 0.30992 0.1339 0.52316 0.0
N2571 N 0.28526 0.10898 0.47474 0.0
H2572 H 0.85319 0.32105 0.44329 0.0
H2573 H 0.90138 0.27472 0.55527 0.0
H2574 H 0.90033 0.27457 0.44421 0.0
H2575 H 0.85385 0.3208 0.55445 0.0
H2576 H 0.90277 0.27614 0.5146 0.0
H2577 H 0.85481 0.32278 0.48395 0.0
C2578 C 0.86397 0.31128 0.45198 0.0
C2579 C 0.87658 0.29756 0.44023 0.0
C2580 C 0.89211 0.28602 0.52332 0.0
C2581 C 0.87843 0.29946 0.48691 0.0
C2582 C 0.89131 0.28524 0.54659 0.0
C2583 C 0.87739 0.29759 0.55839 0.0
C2584 C 0.87889 0.2992 0.51168 0.0
C2585 C 0.86477 0.31093 0.54613 0.0
C2586 C 0.86487 0.31228 0.47524 0.0
C2587 C 0.89027 0.28534 0.4525 0.0
N2588 N 0.86576 0.3113 0.52346 0.0
N2589 N 0.89075 0.28651 0.47516 0.0
H2590 H 0.72698 0.9012 0.55517 0.0
H2591 H 0.67993 0.85344 0.44328 0.0
H2592 H 0.68058 0.85398 0.55429 0.0
H2593 H 0.72656 0.90045 0.44388 0.0
H2594 H 0.67858 0.85491 0.48393 0.0
H2595 H 0.72561 0.90258 0.51446 0.0
C2596 C 0.71641 0.8912 0.54648 0.0
C2597 C 0.70394 0.87738 0.55826 0.0
C2598 C 0.68904 0.86497 0.47517 0.0
C2599 C 0.70238 0.87887 0.51154 0.0
C2600 C 0.68983 0.86416 0.4519 0.0
C2601 C 0.70345 0.87679 0.44005 0.0
C2602 C 0.702 0.87846 0.48676 0.0
C2603 C 0.71584 0.89038 0.45225 0.0
C2604 C 0.71566 0.89199 0.52319 0.0
C2605 C 0.69055 0.86483 0.54599 0.0
N2606 N 0.71488 0.89078 0.47493 0.0
N2607 N 0.69019 0.86582 0.52332 0.0
H2608 H 0.64592 0.82125 0.05426 0.0
H2609 H 0.59868 0.77259 0.94288 0.0
H2610 H 0.59932 0.77422 0.0542 0.0
H2611 H 0.64625 0.81864 0.9433 0.0
H2612 H 0.59717 0.77447 0.98358 0.0
H2613 H 0.64463 0.822 0.01357 0.0
C2614 C 0.63532 0.81115 0.04574 0.0
C2615 C 0.62277 0.79758 0.05776 0.0
C2616 C 0.60787 0.78422 0.97474 0.0
C2617 C 0.6213 0.79833 0.01102 0.0
C2618 C 0.60874 0.78318 0.95147 0.0
C2619 C 0.62268 0.79542 0.93956 0.0
C2620 C 0.62103 0.79758 0.98625 0.0
C2621 C 0.6353 0.80885 0.9517 0.0
C2622 C 0.63462 0.81158 0.02246 0.0
C2623 C 0.60933 0.7849 0.0457 0.0
N2624 N 0.63421 0.80951 0.97435 0.0
N2625 N 0.60903 0.78553 0.02301 0.0
H2626 H 0.22682 0.59881 0.94297 0.0
H2627 H 0.17835 0.64591 0.05447 0.0
H2628 H 0.18004 0.64566 0.94347 0.0
H2629 H 0.22572 0.59965 0.05421 0.0
H2630 H 0.17728 0.64442 0.0138 0.0
H2631 H 0.22512 0.59736 0.98366 0.0
C2632 C 0.2161 0.60872 0.95158 0.0
C2633 C 0.20361 0.62245 0.9397 0.0
C2634 C 0.18784 0.63452 0.02264 0.0
C2635 C 0.20167 0.62088 0.98639 0.0
C2636 C 0.18846 0.63535 0.04592 0.0
C2637 C 0.20223 0.62295 0.05787 0.0
C2638 C 0.20109 0.62125 0.01115 0.0
C2639 C 0.2149 0.60955 0.04576 0.0
C2640 C 0.21516 0.60788 0.97485 0.0
C2641 C 0.19002 0.63488 0.95185 0.0
N2642 N 0.21408 0.60913 0.02308 0.0
N2643 N 0.18949 0.63385 0.97451 0.0
H2644 H 0.40052 0.22715 0.05498 0.0
H2645 H 0.35311 0.17872 0.9436 0.0
H2646 H 0.35353 0.18051 0.05471 0.0
H2647 H 0.40015 0.2253 0.9438 0.0
H2648 H 0.35446 0.1778 0.9843 0.0
H2649 H 0.40196 0.22529 0.0143 0.0
C2650 C 0.39057 0.21643 0.04642 0.0
C2651 C 0.37681 0.20403 0.05837 0.0
C2652 C 0.36456 0.18815 0.97544 0.0
C2653 C 0.37836 0.2019 0.01168 0.0
C2654 C 0.36381 0.18869 0.95215 0.0
C2655 C 0.37648 0.20218 0.94017 0.0
C2656 C 0.37802 0.20123 0.98691 0.0
C2657 C 0.39006 0.21468 0.95226 0.0
C2658 C 0.3914 0.2154 0.02315 0.0
C2659 C 0.36433 0.19043 0.04628 0.0
N2660 N 0.39039 0.21396 0.97495 0.0
N2661 N 0.36536 0.1898 0.02361 0.0
H2662 H 0.82221 0.35293 0.05505 0.0
H2663 H 0.77464 0.4003 0.94325 0.0
H2664 H 0.77552 0.39986 0.05424 0.0
H2665 H 0.82048 0.35252 0.94382 0.0
H2666 H 0.77651 0.40193 0.98388 0.0
H2667 H 0.82352 0.35423 0.01435 0.0
C2668 C 0.81232 0.36361 0.04637 0.0
C2669 C 0.79865 0.37623 0.05817 0.0
C2670 C 0.78623 0.39116 0.97511 0.0
C2671 C 0.80005 0.37771 0.01145 0.0
C2672 C 0.78519 0.39021 0.95187 0.0
C2673 C 0.79735 0.37616 0.94002 0.0
C2674 C 0.79949 0.37796 0.98669 0.0
C2675 C 0.81074 0.36354 0.95219 0.0
C2676 C 0.81307 0.36432 0.02309 0.0
C2677 C 0.78625 0.38978 0.04592 0.0
N2678 N 0.81138 0.36468 0.97485 0.0
N2679 N 0.78719 0.39008 0.02325 0.0
H2680 H 0.59884 0.22661 0.05447 0.0
H2681 H 0.64601 0.17858 0.9428 0.0
H2682 H 0.64591 0.18005 0.0538 0.0
H2683 H 0.59934 0.22554 0.94323 0.0
H2684 H 0.64459 0.17742 0.98347 0.0
H2685 H 0.59729 0.22492 0.01379 0.0
C2686 C 0.60878 0.21594 0.04583 0.0
C2687 C 0.6226 0.20352 0.05766 0.0
C2688 C 0.63458 0.18791 0.97466 0.0
C2689 C 0.62091 0.20158 0.01097 0.0
C2690 C 0.63536 0.18858 0.95139 0.0
C2691 C 0.62283 0.20226 0.93949 0.0
C2692 C 0.62122 0.20103 0.98621 0.0
C2693 C 0.60933 0.21478 0.95164 0.0
C2694 C 0.60788 0.21501 0.02256 0.0
C2695 C 0.63506 0.18999 0.04546 0.0
N2696 N 0.60896 0.21393 0.97432 0.0
N2697 N 0.63397 0.18945 0.0228 0.0
H2698 H 0.7722 0.59859 0.05506 0.0
H2699 H 0.82036 0.6458 0.94342 0.0
H2700 H 0.81816 0.64625 0.0546 0.0
H2701 H 0.77374 0.59879 0.94394 0.0
H2702 H 0.8213 0.64466 0.98414 0.0
H2703 H 0.7741 0.59701 0.0144 0.0
C2704 C 0.78278 0.60866 0.04646 0.0
C2705 C 0.79498 0.62264 0.05835 0.0
C2706 C 0.81093 0.63453 0.97533 0.0
C2707 C 0.79716 0.62092 0.01167 0.0
C2708 C 0.81039 0.63515 0.95204 0.0
C2709 C 0.79687 0.62243 0.94015 0.0
C2710 C 0.79785 0.62114 0.98689 0.0
C2711 C 0.78438 0.60893 0.95233 0.0
C2712 C 0.78384 0.60775 0.0232 0.0
C2713 C 0.8084 0.63526 0.0462 0.0
N2714 N 0.78511 0.60871 0.97502 0.0
N2715 N 0.80906 0.63415 0.02355 0.0
H2716 H 0.4014 0.77314 0.9433 0.0
H2717 H 0.35307 0.82008 0.05494 0.0
H2718 H 0.35399 0.81935 0.94398 0.0
H2719 H 0.39997 0.77335 0.05459 0.0
H2720 H 0.35477 0.82147 0.0143 0.0
H2721 H 0.40263 0.77451 0.98402 0.0
C2722 C 0.39133 0.78367 0.95195 0.0
C2723 C 0.3775 0.79609 0.94011 0.0
C2724 C 0.36476 0.81098 0.02311 0.0
C2725 C 0.37881 0.79765 0.98683 0.0
C2726 C 0.36382 0.81017 0.04637 0.0
C2727 C 0.37634 0.79651 0.05829 0.0
C2728 C 0.37828 0.79801 0.0116 0.0
C2729 C 0.38998 0.7841 0.04617 0.0
C2730 C 0.39203 0.78442 0.97524 0.0
C2731 C 0.36485 0.80943 0.95232 0.0
N2732 N 0.39051 0.78509 0.02349 0.0
N2733 N 0.36576 0.80978 0.97499 0.0
H2734 H 0.22678 0.40078 0.94346 0.0
H2735 H 0.178 0.35352 0.05472 0.0
H2736 H 0.18011 0.35382 0.94373 0.0
H2737 H 0.22484 0.40031 0.05472 0.0
H2738 H 0.17712 0.35498 0.01404 0.0
H2739 H 0.22483 0.40231 0.98414 0.0
C2740 C 0.21603 0.39086 0.95202 0.0
C2741 C 0.20365 0.37708 0.94007 0.0
C2742 C 0.18751 0.365 0.02294 0.0
C2743 C 0.20142 0.37874 0.98675 0.0
C2744 C 0.18803 0.3642 0.04622 0.0
C2745 C 0.20159 0.37675 0.05825 0.0
C2746 C 0.20069 0.37841 0.01152 0.0
C2747 C 0.21416 0.3903 0.04621 0.0
C2748 C 0.21495 0.39174 0.97528 0.0
C2749 C 0.19002 0.36464 0.95216 0.0
N2750 N 0.21347 0.39069 0.02352 0.0
N2751 N 0.18934 0.36571 0.97481 0.0
H2752 H 0.16155 0.32081 0.18386 0.0
H2753 H 0.17809 0.33649 0.31454 0.0
H2754 H 0.21327 0.35376 0.21089 0.0
H2755 H 0.14487 0.28494 0.28751 0.0
H2756 H 0.18781 0.34643 0.27652 0.0
H2757 H 0.15179 0.3108 0.22187 0.0
C2758 C 0.17082 0.32595 0.19779 0.0
C2759 C 0.18828 0.33805 0.19426 0.0
C2760 C 0.17844 0.33292 0.27897 0.0
C2761 C 0.17711 0.32688 0.23761 0.0
C2762 C 0.17283 0.32729 0.30061 0.0
C2763 C 0.16073 0.30983 0.30414 0.0
C2764 C 0.17158 0.32122 0.26076 0.0
C2765 C 0.15435 0.29843 0.28552 0.0
C2766 C 0.1653 0.32018 0.21942 0.0
C2767 C 0.19978 0.34428 0.21288 0.0
N2768 N 0.15975 0.3044 0.26458 0.0
N2769 N 0.19391 0.33872 0.23379 0.0
H2770 H 0.6784 0.16252 0.18308 0.0
H2771 H 0.66228 0.17854 0.31375 0.0
H2772 H 0.64597 0.21453 0.21019 0.0
H2773 H 0.71389 0.14536 0.28681 0.0
H2774 H 0.65252 0.18844 0.27572 0.0
H2775 H 0.68811 0.15248 0.22109 0.0
C2776 C 0.67331 0.17179 0.19703 0.0
C2777 C 0.66144 0.18942 0.19352 0.0
C2778 C 0.666 0.17903 0.27819 0.0
C2779 C 0.67227 0.17792 0.23687 0.0
C2780 C 0.67153 0.17332 0.29983 0.0
C2781 C 0.68896 0.1612 0.3034 0.0
C2782 C 0.67778 0.17224 0.26001 0.0
C2783 C 0.70042 0.15486 0.2848 0.0
C2784 C 0.67891 0.16611 0.21866 0.0
C2785 C 0.65527 0.20091 0.21216 0.0
N2786 N 0.69455 0.16036 0.26386 0.0
N2787 N 0.66065 0.19489 0.23307 0.0
H2788 H 0.78319 0.64504 0.21098 0.0
H2789 H 0.8545 0.71505 0.28698 0.0
H2790 H 0.835 0.67816 0.18441 0.0
H2791 H 0.82139 0.66313 0.31329 0.0
H2792 H 0.84419 0.70505 0.24921 0.0
H2793 H 0.79369 0.65488 0.24875 0.0
C2794 C 0.79673 0.65445 0.21309 0.0
C2795 C 0.80826 0.66083 0.19456 0.0
C2796 C 0.83923 0.69585 0.26327 0.0
C2797 C 0.8202 0.6722 0.23762 0.0
C2798 C 0.84501 0.70159 0.28481 0.0
C2799 C 0.83876 0.68989 0.30327 0.0
C2800 C 0.82684 0.67851 0.26021 0.0
C2801 C 0.82658 0.67252 0.29949 0.0
C2802 C 0.80275 0.65995 0.23463 0.0
C2803 C 0.82573 0.67288 0.19826 0.0
N2804 N 0.82088 0.66742 0.27837 0.0
N2805 N 0.83111 0.6783 0.21938 0.0
H2806 H 0.32055 0.8363 0.1839 0.0
H2807 H 0.33724 0.82096 0.31458 0.0
H2808 H 0.3538 0.78485 0.2111 0.0
H2809 H 0.28539 0.85374 0.28761 0.0
H2810 H 0.34694 0.81089 0.27658 0.0
H2811 H 0.3108 0.84632 0.22189 0.0
C2812 C 0.32581 0.82714 0.19787 0.0
C2813 C 0.33793 0.80968 0.19439 0.0
C2814 C 0.33342 0.82025 0.27904 0.0
C2815 C 0.32705 0.82116 0.23773 0.0
C2816 C 0.32793 0.82605 0.30066 0.0
C2817 C 0.31046 0.83813 0.30421 0.0
C2818 C 0.32155 0.82688 0.26086 0.0
C2819 C 0.2989 0.8443 0.28561 0.0
C2820 C 0.32018 0.83281 0.21949 0.0
C2821 C 0.34431 0.79833 0.21305 0.0
N2822 N 0.30473 0.8387 0.26469 0.0
N2823 N 0.3389 0.80435 0.23396 0.0
H2824 H 0.16271 0.67836 0.81444 0.0
H2825 H 0.17782 0.66206 0.6837 0.0
H2826 H 0.21429 0.64546 0.78702 0.0
H2827 H 0.14532 0.71402 0.71083 0.0
H2828 H 0.18788 0.65224 0.72166 0.0
H2829 H 0.15258 0.68819 0.7765 0.0
C2830 C 0.17188 0.6732 0.80044 0.0
C2831 C 0.1894 0.66116 0.80384 0.0
C2832 C 0.17859 0.66581 0.71925 0.0
C2833 C 0.17779 0.67211 0.76056 0.0
C2834 C 0.17278 0.67137 0.69765 0.0
C2835 C 0.1608 0.68891 0.69416 0.0
C2836 C 0.17203 0.67767 0.73746 0.0
C2837 C 0.1547 0.70045 0.7128 0.0
C2838 C 0.16614 0.67886 0.77885 0.0
C2839 C 0.20075 0.65489 0.78513 0.0
N2840 N 0.16029 0.69455 0.73369 0.0
N2841 N 0.19467 0.66034 0.76425 0.0
H2842 H 0.3373 0.17788 0.68353 0.0
H2843 H 0.32103 0.16231 0.81428 0.0
H2844 H 0.28512 0.14577 0.71071 0.0
H2845 H 0.35475 0.21347 0.78713 0.0
H2846 H 0.31108 0.15249 0.77629 0.0
H2847 H 0.34737 0.18763 0.72152 0.0
C2848 C 0.32799 0.17287 0.69749 0.0
C2849 C 0.31031 0.16108 0.694 0.0
C2850 C 0.32062 0.16588 0.7787 0.0
C2851 C 0.32184 0.17196 0.73734 0.0
C2852 C 0.32636 0.17144 0.80033 0.0
C2853 C 0.33866 0.18877 0.80382 0.0
C2854 C 0.32754 0.17751 0.76047 0.0
C2855 C 0.34512 0.20009 0.78517 0.0
C2856 C 0.3337 0.1785 0.71911 0.0
C2857 C 0.29878 0.15501 0.71266 0.0
N2858 N 0.33958 0.19419 0.76426 0.0
N2859 N 0.30482 0.16042 0.73356 0.0
H2860 H 0.85439 0.28449 0.71023 0.0
H2861 H 0.78437 0.3542 0.78783 0.0
H2862 H 0.82141 0.33687 0.68481 0.0
H2863 H 0.83643 0.32077 0.81333 0.0
H2864 H 0.79438 0.34466 0.74982 0.0
H2865 H 0.84455 0.29427 0.7482 0.0
C2866 C 0.84501 0.29801 0.71264 0.0
C2867 C 0.83866 0.3099 0.69437 0.0
C2868 C 0.8036 0.33946 0.76376 0.0
C2869 C 0.8273 0.32102 0.73767 0.0
C2870 C 0.79786 0.34479 0.78543 0.0
C2871 C 0.8096 0.33823 0.80372 0.0
C2872 C 0.82098 0.3272 0.7604 0.0
C2873 C 0.827 0.32618 0.79967 0.0
C2874 C 0.83951 0.30362 0.7343 0.0
C2875 C 0.82666 0.32733 0.69845 0.0
N2876 N 0.8321 0.32092 0.77841 0.0
N2877 N 0.82123 0.3323 0.71969 0.0
H2878 H 0.66248 0.82144 0.68341 0.0
H2879 H 0.67879 0.83598 0.81431 0.0
H2880 H 0.71444 0.8537 0.71089 0.0
H2881 H 0.64539 0.78482 0.78666 0.0
H2882 H 0.6886 0.84622 0.7764 0.0
H2883 H 0.65249 0.81131 0.72131 0.0
C2884 C 0.67175 0.82641 0.69741 0.0
C2885 C 0.68935 0.83834 0.69404 0.0
C2886 C 0.67916 0.83274 0.77869 0.0
C2887 C 0.67791 0.82703 0.73727 0.0
C2888 C 0.67351 0.82693 0.80026 0.0
C2889 C 0.66134 0.80948 0.80359 0.0
C2890 C 0.67229 0.82123 0.76034 0.0
C2891 C 0.65492 0.79829 0.78483 0.0
C2892 C 0.66609 0.82057 0.71898 0.0
C2893 C 0.70083 0.84436 0.71275 0.0
N2894 N 0.66038 0.80443 0.76397 0.0
N2895 N 0.69484 0.83874 0.7336 0.0
H2896 H 0.85448 0.71394 0.71053 0.0
H2897 H 0.78471 0.64318 0.78731 0.0
H2898 H 0.82158 0.66176 0.68451 0.0
H2899 H 0.83656 0.67663 0.81327 0.0
H2900 H 0.79477 0.65307 0.74942 0.0
H2901 H 0.84478 0.70369 0.74841 0.0
C2902 C 0.84516 0.70037 0.71279 0.0
C2903 C 0.83879 0.68868 0.69438 0.0
C2904 C 0.80394 0.65819 0.76343 0.0
C2905 C 0.82757 0.67701 0.73757 0.0
C2906 C 0.79817 0.65266 0.78504 0.0
C2907 C 0.80982 0.65914 0.80343 0.0
C2908 C 0.82127 0.67057 0.76024 0.0
C2909 C 0.8272 0.67128 0.79953 0.0
C2910 C 0.83973 0.69449 0.7344 0.0
C2911 C 0.82685 0.67116 0.69827 0.0
N2912 N 0.83232 0.67674 0.77834 0.0
N2913 N 0.82149 0.66592 0.71946 0.0
H2914 H 0.32131 0.83674 0.81482 0.0
H2915 H 0.33707 0.82108 0.68402 0.0
H2916 H 0.35458 0.78537 0.78746 0.0
H2917 H 0.28524 0.85365 0.71134 0.0
H2918 H 0.34715 0.81126 0.72197 0.0
H2919 H 0.31129 0.84667 0.77687 0.0
C2920 C 0.32652 0.82758 0.80083 0.0
C2921 C 0.33871 0.81017 0.80425 0.0
C2922 C 0.33355 0.82051 0.7196 0.0
C2923 C 0.32752 0.82155 0.76096 0.0
C2924 C 0.32784 0.82618 0.698 0.0
C2925 C 0.31026 0.83812 0.69456 0.0
C2926 C 0.32181 0.82715 0.73786 0.0
C2927 C 0.29883 0.8443 0.71325 0.0
C2928 C 0.32074 0.83321 0.77923 0.0
C2929 C 0.34503 0.79883 0.78556 0.0
N2930 N 0.30487 0.83885 0.73414 0.0
N2931 N 0.33946 0.80479 0.76468 0.0
H2932 H 0.17887 0.33697 0.68386 0.0
H2933 H 0.16296 0.32141 0.81462 0.0
H2934 H 0.14579 0.28546 0.71118 0.0
H2935 H 0.21493 0.35383 0.78738 0.0
H2936 H 0.15296 0.31153 0.77666 0.0
H2937 H 0.18886 0.34691 0.72182 0.0
C2938 C 0.1737 0.32778 0.69784 0.0
C2939 C 0.16156 0.31033 0.69441 0.0
C2940 C 0.16657 0.32077 0.77905 0.0
C2941 C 0.17271 0.32172 0.7377 0.0
C2942 C 0.17223 0.32646 0.80065 0.0
C2943 C 0.18983 0.33838 0.80411 0.0
C2944 C 0.17838 0.32735 0.76081 0.0
C2945 C 0.20133 0.3445 0.78545 0.0
C2946 C 0.17946 0.33341 0.71944 0.0
C2947 C 0.15529 0.29894 0.71309 0.0
N2948 N 0.19532 0.33902 0.76455 0.0
N2949 N 0.16083 0.30491 0.73397 0.0
H2950 H 0.66324 0.17901 0.68311 0.0
H2951 H 0.6788 0.16292 0.81383 0.0
H2952 H 0.71499 0.14631 0.71043 0.0
H2953 H 0.64554 0.2144 0.78671 0.0
H2954 H 0.68895 0.15323 0.77587 0.0
H2955 H 0.65318 0.18886 0.72106 0.0
C2956 C 0.67246 0.1739 0.69709 0.0
C2957 C 0.69 0.1619 0.69366 0.0
C2958 C 0.67948 0.16666 0.77828 0.0
C2959 C 0.67848 0.17289 0.73695 0.0
C2960 C 0.67362 0.17215 0.79989 0.0
C2961 C 0.66138 0.18952 0.80338 0.0
C2962 C 0.67273 0.17842 0.76007 0.0
C2963 C 0.65511 0.20097 0.78474 0.0
C2964 C 0.66676 0.17958 0.71869 0.0
C2965 C 0.70143 0.1557 0.71234 0.0
N2966 N 0.66076 0.19514 0.76384 0.0
N2967 N 0.69539 0.16116 0.73322 0.0
H2968 H 0.78467 0.35395 0.21059 0.0
H2969 H 0.85476 0.28376 0.28768 0.0
H2970 H 0.83722 0.32138 0.18497 0.0
H2971 H 0.82122 0.3356 0.31355 0.0
H2972 H 0.84503 0.29388 0.24976 0.0
H2973 H 0.79445 0.34388 0.24851 0.0
C2974 C 0.79822 0.34462 0.21295 0.0
C2975 C 0.81016 0.33846 0.19465 0.0
C2976 C 0.83984 0.30302 0.26376 0.0
C2977 C 0.82129 0.32681 0.23785 0.0
C2978 C 0.84528 0.29722 0.28538 0.0
C2979 C 0.83876 0.30888 0.30375 0.0
C2980 C 0.8275 0.32038 0.26054 0.0
C2981 C 0.82662 0.32624 0.29982 0.0
C2982 C 0.80383 0.33898 0.23457 0.0
C2983 C 0.82764 0.3265 0.19865 0.0
N2984 N 0.82125 0.3314 0.27862 0.0
N2985 N 0.83261 0.32093 0.21984 0.0
H2986 H 0.67796 0.83847 0.18341 0.0
H2987 H 0.66305 0.82201 0.31423 0.0
H2988 H 0.64496 0.78691 0.21072 0.0
H2989 H 0.71456 0.855 0.2868 0.0
H2990 H 0.65276 0.8124 0.27629 0.0
H2991 H 0.68817 0.84825 0.22134 0.0
C2992 C 0.67284 0.82924 0.19738 0.0
C2993 C 0.66067 0.81181 0.19395 0.0
C2994 C 0.66634 0.8217 0.27863 0.0
C2995 C 0.67209 0.82302 0.23722 0.0
C2996 C 0.67217 0.82724 0.30022 0.0
C2997 C 0.68972 0.83924 0.30363 0.0
C2998 C 0.67794 0.82851 0.26033 0.0
C2999 C 0.701 0.8456 0.28491 0.0
C3000 C 0.67873 0.83478 0.21897 0.0
C3001 C 0.65448 0.80038 0.21262 0.0
N3002 N 0.69485 0.84025 0.26402 0.0
N3003 N 0.66016 0.80625 0.2335 0.0
H3004 H 0.17869 0.66267 0.31438 0.0
H3005 H 0.16218 0.67825 0.18369 0.0
H3006 H 0.1457 0.7143 0.28719 0.0
H3007 H 0.21385 0.64518 0.21066 0.0
H3008 H 0.15249 0.68829 0.2217 0.0
H3009 H 0.18842 0.65263 0.27638 0.0
C3010 C 0.17349 0.67187 0.30041 0.0
C3011 C 0.16145 0.68938 0.3039 0.0
C3012 C 0.16597 0.67888 0.21924 0.0
C3013 C 0.1723 0.67788 0.26055 0.0
C3014 C 0.17145 0.67309 0.19761 0.0
C3015 C 0.18887 0.66094 0.19406 0.0
C3016 C 0.17778 0.67216 0.23742 0.0
C3017 C 0.20038 0.65469 0.21266 0.0
C3018 C 0.1791 0.66618 0.27879 0.0
C3019 C 0.15513 0.70077 0.28524 0.0
N3020 N 0.19455 0.66027 0.23358 0.0
N3021 N 0.16053 0.69475 0.26433 0.0
H3022 H 0.28423 0.1444 0.28697 0.0
H3023 H 0.35421 0.21565 0.21095 0.0
H3024 H 0.33601 0.17772 0.31332 0.0
H3025 H 0.32171 0.16342 0.18445 0.0
H3026 H 0.34427 0.20524 0.2487 0.0
H3027 H 0.29439 0.15452 0.24917 0.0
C3028 C 0.2977 0.1539 0.2848 0.0
C3029 C 0.30931 0.16026 0.30327 0.0
C3030 C 0.33936 0.19606 0.23461 0.0
C3031 C 0.32085 0.17197 0.2602 0.0
C3032 C 0.34492 0.20203 0.21307 0.0
C3033 C 0.33874 0.19037 0.19457 0.0
C3034 C 0.32725 0.17852 0.23761 0.0
C3035 C 0.32684 0.1728 0.19828 0.0
C3036 C 0.30352 0.15957 0.26325 0.0
C3037 C 0.32668 0.17244 0.29951 0.0
N3038 N 0.32134 0.16747 0.2194 0.0
N3039 N 0.33186 0.17804 0.27838 0.0
loop_
_geom_bond_atom_site_label_1
_geom_bond_atom_site_label_2
_geom_bond_distance
_geom_bond_site_symmetry_2
_ccdc_geom_bond_type
Co0 O2 2.143 . S
Co0 O8 2.074 . S
Co0 O11 2.093 . S
Co0 O24 2.097 . S
Co0 N41 2.151 . S
Co0 N49 2.214 . S
Co1 O2 2.160 . S
Co1 O7 2.058 . S
Co1 O17 2.057 . S
Co1 O32 2.037 . S
Co1 N36 2.145 . S
Co1 N57 2.257 . S
O2 Co0 2.143 . S
O2 Co1 2.160 . S
C3 O4 1.278 . S
C3 O11 1.224 . S
O4 C3 1.278 . S
C5 O6 1.245 . S
C5 O17 1.232 . S
O6 C5 1.245 . S
O7 Co1 2.058 . S
O7 C33 1.269 . S
O8 Co0 2.074 . S
O8 C33 1.257 . S
H9 C34 0.930 . S
H10 C40 0.930 . S
O11 Co0 2.093 . S
O11 C3 1.224 . S
H12 C44 0.929 . S
H13 C46 0.930 . S
H14 C47 0.930 . S
H15 C45 0.929 . S
H16 C48 0.928 . S
O17 Co1 2.057 . S
O17 C5 1.232 . S
H18 C37 0.929 . S
H19 C38 0.929 . S
H20 C50 0.931 . S
H21 C42 0.929 . S
H22 C51 0.930 . S
H23 C43 0.931 . S
O24 Co0 2.097 . S
O24 C52 1.214 . S
H25 C53 0.929 . S
H26 C54 0.929 . S
H27 C55 0.930 . S
H28 C56 0.929 . S
H29 C58 0.930 . S
H30 C35 0.930 . S
H31 C39 0.930 . S
O32 Co1 2.037 . S
O32 C52 1.234 . S
C33 O7 1.269 . S
C33 O8 1.257 . S
C34 H9 0.930 . S
C34 C37 1.388 . S
C34 C39 1.418 . S
C35 H30 0.930 . S
C35 C38 1.404 . S
C35 C39 1.353 . S
N36 Co1 2.145 . S
N36 C37 1.397 . S
N36 C38 1.334 . S
C37 H18 0.929 . S
C37 C34 1.388 . S
C37 N36 1.397 . S
C38 H19 0.929 . S
C38 C35 1.404 . S
C38 N36 1.334 . S
C39 H31 0.930 . S
C39 C34 1.418 . S
C39 C35 1.353 . S
C40 H10 0.930 . S
C40 N41 1.330 . S
C40 C42 1.446 . S
N41 Co0 2.151 . S
N41 C40 1.330 . S
N41 C45 1.418 . S
C42 H21 0.929 . S
C42 C40 1.446 . S
C42 C43 1.332 . S
C43 H23 0.931 . S
C43 C42 1.332 . S
C43 C44 1.267 . S
C44 H12 0.929 . S
C44 C43 1.267 . S
C44 C45 1.251 . S
C45 H15 0.929 . S
C45 N41 1.418 . S
C45 C44 1.251 . S
C46 H13 0.930 . S
C46 C48 1.406 . S
C46 C51 1.261 . S
C47 H14 0.930 . S
C47 N49 1.325 . S
C47 C50 1.357 . S
C48 H16 0.928 . S
C48 C46 1.406 . S
C48 N49 1.261 . S
N49 Co0 2.214 . S
N49 C47 1.325 . S
N49 C48 1.261 . S
C50 H20 0.931 . S
C50 C47 1.357 . S
C50 C51 1.312 . S
C51 H22 0.930 . S
C51 C46 1.261 . S
C51 C50 1.312 . S
C52 O24 1.214 . S
C52 O32 1.234 . S
C53 H25 0.929 . S
C53 C56 1.391 . S
C53 C58 1.391 . S
C54 H26 0.929 . S
C54 C55 1.390 . S
C54 N57 1.391 . S
C55 H27 0.930 . S
C55 C54 1.390 . S
C55 C56 1.392 . S
C56 H28 0.929 . S
C56 C53 1.391 . S
C56 C55 1.392 . S
N57 Co1 2.257 . S
N57 C54 1.391 . S
N57 C58 1.388 . S
C58 H29 0.930 . S
C58 C53 1.391 . S
C58 N57 1.388 . S
Co59 O61 2.143 . S
Co59 O67 2.074 . S
Co59 O70 2.093 . S
Co59 O83 2.097 . S
Co59 N100 2.151 . S
Co59 N108 2.214 . S
Co60 O61 2.160 . S
Co60 O66 2.058 . S
Co60 O76 2.057 . S
Co60 O91 2.037 . S
Co60 N95 2.145 . S
Co60 N116 2.257 . S
O61 Co59 2.143 . S
O61 Co60 2.160 . S
C62 O63 1.278 . S
C62 O70 1.224 . S
O63 C62 1.278 . S
C64 O65 1.245 . S
C64 O76 1.232 . S
O65 C64 1.245 . S
O66 Co60 2.058 . S
O66 C92 1.269 . S
O67 Co59 2.074 . S
O67 C92 1.257 . S
H68 C93 0.930 . S
H69 C99 0.930 . S
O70 Co59 2.093 . S
O70 C62 1.224 . S
H71 C103 0.929 . S
H72 C105 0.930 . S
H73 C106 0.930 . S
H74 C104 0.929 . S
H75 C107 0.928 . S
O76 Co60 2.057 . S
O76 C64 1.232 . S
H77 C96 0.929 . S
H78 C97 0.929 . S
H79 C109 0.931 . S
H80 C101 0.929 . S
H81 C110 0.930 . S
H82 C102 0.931 . S
O83 Co59 2.097 . S
O83 C111 1.214 . S
H84 C112 0.929 . S
H85 C113 0.929 . S
H86 C114 0.930 . S
H87 C115 0.929 . S
H88 C117 0.930 . S
H89 C94 0.930 . S
H90 C98 0.930 . S
O91 Co60 2.037 . S
O91 C111 1.234 . S
C92 O66 1.269 . S
C92 O67 1.257 . S
C93 H68 0.930 . S
C93 C96 1.388 . S
C93 C98 1.418 . S
C94 H89 0.930 . S
C94 C97 1.404 . S
C94 C98 1.353 . S
N95 Co60 2.145 . S
N95 C96 1.397 . S
N95 C97 1.334 . S
C96 H77 0.929 . S
C96 C93 1.388 . S
C96 N95 1.397 . S
C97 H78 0.929 . S
C97 C94 1.404 . S
C97 N95 1.334 . S
C98 H90 0.930 . S
C98 C93 1.418 . S
C98 C94 1.353 . S
C99 H69 0.930 . S
C99 N100 1.330 . S
C99 C101 1.446 . S
N100 Co59 2.151 . S
N100 C99 1.330 . S
N100 C104 1.418 . S
C101 H80 0.929 . S
C101 C99 1.446 . S
C101 C102 1.332 . S
C102 H82 0.931 . S
C102 C101 1.332 . S
C102 C103 1.267 . S
C103 H71 0.929 . S
C103 C102 1.267 . S
C103 C104 1.251 . S
C104 H74 0.929 . S
C104 N100 1.418 . S
C104 C103 1.251 . S
C105 H72 0.930 . S
C105 C107 1.406 . S
C105 C110 1.261 . S
C106 H73 0.930 . S
C106 N108 1.325 . S
C106 C109 1.357 . S
C107 H75 0.928 . S
C107 C105 1.406 . S
C107 N108 1.261 . S
N108 Co59 2.214 . S
N108 C106 1.325 . S
N108 C107 1.261 . S
C109 H79 0.931 . S
C109 C106 1.357 . S
C109 C110 1.312 . S
C110 H81 0.930 . S
C110 C105 1.261 . S
C110 C109 1.312 . S
C111 O83 1.214 . S
C111 O91 1.234 . S
C112 H84 0.929 . S
C112 C115 1.391 . S
C112 C117 1.391 . S
C113 H85 0.929 . S
C113 C114 1.390 . S
C113 N116 1.391 . S
C114 H86 0.930 . S
C114 C113 1.390 . S
C114 C115 1.392 . S
C115 H87 0.929 . S
C115 C112 1.391 . S
C115 C114 1.392 . S
N116 Co60 2.257 . S
N116 C113 1.391 . S
N116 C117 1.388 . S
C117 H88 0.930 . S
C117 C112 1.391 . S
C117 N116 1.388 . S
Co118 O120 2.143 . S
Co118 O126 2.074 . S
Co118 O129 2.093 . S
Co118 O142 2.097 . S
Co118 N159 2.151 . S
Co118 N167 2.214 . S
Co119 O120 2.160 . S
Co119 O125 2.058 . S
Co119 O135 2.057 . S
Co119 O150 2.037 . S
Co119 N154 2.145 . S
Co119 N175 2.257 . S
O120 Co118 2.143 . S
O120 Co119 2.160 . S
C121 O122 1.278 . S
C121 O129 1.224 . S
O122 C121 1.278 . S
C123 O124 1.245 . S
C123 O135 1.232 . S
O124 C123 1.245 . S
O125 Co119 2.058 . S
O125 C151 1.269 . S
O126 Co118 2.074 . S
O126 C151 1.257 . S
H127 C152 0.930 . S
H128 C158 0.930 . S
O129 Co118 2.093 . S
O129 C121 1.224 . S
H130 C162 0.929 . S
H131 C164 0.930 . S
H132 C165 0.930 . S
H133 C163 0.929 . S
H134 C166 0.928 . S
O135 Co119 2.057 . S
O135 C123 1.232 . S
H136 C155 0.929 . S
H137 C156 0.929 . S
H138 C168 0.931 . S
H139 C160 0.929 . S
H140 C169 0.930 . S
H141 C161 0.931 . S
O142 Co118 2.097 . S
O142 C170 1.214 . S
H143 C171 0.929 . S
H144 C172 0.929 . S
H145 C173 0.930 . S
H146 C174 0.929 . S
H147 C176 0.930 . S
H148 C153 0.930 . S
H149 C157 0.930 . S
O150 Co119 2.037 . S
O150 C170 1.234 . S
C151 O125 1.269 . S
C151 O126 1.257 . S
C152 H127 0.930 . S
C152 C155 1.388 . S
C152 C157 1.418 . S
C153 H148 0.930 . S
C153 C156 1.404 . S
C153 C157 1.353 . S
N154 Co119 2.145 . S
N154 C155 1.397 . S
N154 C156 1.334 . S
C155 H136 0.929 . S
C155 C152 1.388 . S
C155 N154 1.397 . S
C156 H137 0.929 . S
C156 C153 1.404 . S
C156 N154 1.334 . S
C157 H149 0.930 . S
C157 C152 1.418 . S
C157 C153 1.353 . S
C158 H128 0.930 . S
C158 N159 1.330 . S
C158 C160 1.446 . S
N159 Co118 2.151 . S
N159 C158 1.330 . S
N159 C163 1.418 . S
C160 H139 0.929 . S
C160 C158 1.446 . S
C160 C161 1.332 . S
C161 H141 0.931 . S
C161 C160 1.332 . S
C161 C162 1.267 . S
C162 H130 0.929 . S
C162 C161 1.267 . S
C162 C163 1.251 . S
C163 H133 0.929 . S
C163 N159 1.418 . S
C163 C162 1.251 . S
C164 H131 0.930 . S
C164 C166 1.406 . S
C164 C169 1.261 . S
C165 H132 0.930 . S
C165 N167 1.325 . S
C165 C168 1.357 . S
C166 H134 0.928 . S
C166 C164 1.406 . S
C166 N167 1.261 . S
N167 Co118 2.214 . S
N167 C165 1.325 . S
N167 C166 1.261 . S
C168 H138 0.931 . S
C168 C165 1.357 . S
C168 C169 1.312 . S
C169 H140 0.930 . S
C169 C164 1.261 . S
C169 C168 1.312 . S
C170 O142 1.214 . S
C170 O150 1.234 . S
C171 H143 0.929 . S
C171 C174 1.391 . S
C171 C176 1.391 . S
C172 H144 0.929 . S
C172 C173 1.390 . S
C172 N175 1.391 . S
C173 H145 0.930 . S
C173 C172 1.390 . S
C173 C174 1.392 . S
C174 H146 0.929 . S
C174 C171 1.391 . S
C174 C173 1.392 . S
N175 Co119 2.257 . S
N175 C172 1.391 . S
N175 C176 1.388 . S
C176 H147 0.930 . S
C176 C171 1.391 . S
C176 N175 1.388 . S
Co177 O179 2.143 . S
Co177 O185 2.074 . S
Co177 O188 2.093 . S
Co177 O201 2.097 . S
Co177 N218 2.151 . S
Co177 N226 2.214 . S
Co178 O179 2.160 . S
Co178 O184 2.058 . S
Co178 O194 2.057 . S
Co178 O209 2.037 . S
Co178 N213 2.145 . S
Co178 N234 2.257 . S
O179 Co177 2.143 . S
O179 Co178 2.160 . S
C180 O181 1.278 . S
C180 O188 1.224 . S
O181 C180 1.278 . S
C182 O183 1.245 . S
C182 O194 1.232 . S
O183 C182 1.245 . S
O184 Co178 2.058 . S
O184 C210 1.269 . S
O185 Co177 2.074 . S
O185 C210 1.257 . S
H186 C211 0.930 . S
H187 C217 0.930 . S
O188 Co177 2.093 . S
O188 C180 1.224 . S
H189 C221 0.929 . S
H190 C223 0.930 . S
H191 C224 0.930 . S
H192 C222 0.929 . S
H193 C225 0.928 . S
O194 Co178 2.057 . S
O194 C182 1.232 . S
H195 C214 0.929 . S
H196 C215 0.929 . S
H197 C227 0.931 . S
H198 C219 0.929 . S
H199 C228 0.930 . S
H200 C220 0.931 . S
O201 Co177 2.097 . S
O201 C229 1.214 . S
H202 C230 0.929 . S
H203 C231 0.929 . S
H204 C232 0.930 . S
H205 C233 0.929 . S
H206 C235 0.930 . S
H207 C212 0.930 . S
H208 C216 0.930 . S
O209 Co178 2.037 . S
O209 C229 1.234 . S
C210 O184 1.269 . S
C210 O185 1.257 . S
C211 H186 0.930 . S
C211 C214 1.388 . S
C211 C216 1.418 . S
C212 H207 0.930 . S
C212 C215 1.404 . S
C212 C216 1.353 . S
N213 Co178 2.145 . S
N213 C214 1.397 . S
N213 C215 1.334 . S
C214 H195 0.929 . S
C214 C211 1.388 . S
C214 N213 1.397 . S
C215 H196 0.929 . S
C215 C212 1.404 . S
C215 N213 1.334 . S
C216 H208 0.930 . S
C216 C211 1.418 . S
C216 C212 1.353 . S
C217 H187 0.930 . S
C217 N218 1.330 . S
C217 C219 1.446 . S
N218 Co177 2.151 . S
N218 C217 1.330 . S
N218 C222 1.418 . S
C219 H198 0.929 . S
C219 C217 1.446 . S
C219 C220 1.332 . S
C220 H200 0.931 . S
C220 C219 1.332 . S
C220 C221 1.267 . S
C221 H189 0.929 . S
C221 C220 1.267 . S
C221 C222 1.251 . S
C222 H192 0.929 . S
C222 N218 1.418 . S
C222 C221 1.251 . S
C223 H190 0.930 . S
C223 C225 1.406 . S
C223 C228 1.261 . S
C224 H191 0.930 . S
C224 N226 1.325 . S
C224 C227 1.357 . S
C225 H193 0.928 . S
C225 C223 1.406 . S
C225 N226 1.261 . S
N226 Co177 2.214 . S
N226 C224 1.325 . S
N226 C225 1.261 . S
C227 H197 0.931 . S
C227 C224 1.357 . S
C227 C228 1.312 . S
C228 H199 0.930 . S
C228 C223 1.261 . S
C228 C227 1.312 . S
C229 O201 1.214 . S
C229 O209 1.234 . S
C230 H202 0.929 . S
C230 C233 1.391 . S
C230 C235 1.391 . S
C231 H203 0.929 . S
C231 C232 1.390 . S
C231 N234 1.391 . S
C232 H204 0.930 . S
C232 C231 1.390 . S
C232 C233 1.392 . S
C233 H205 0.929 . S
C233 C230 1.391 . S
C233 C232 1.392 . S
N234 Co178 2.257 . S
N234 C231 1.391 . S
N234 C235 1.388 . S
C235 H206 0.930 . S
C235 C230 1.391 . S
C235 N234 1.388 . S
Co236 O238 2.143 . S
Co236 O244 2.074 . S
Co236 O247 2.093 . S
Co236 O260 2.097 . S
Co236 N277 2.151 . S
Co236 N285 2.214 . S
Co237 O238 2.160 . S
Co237 O243 2.058 . S
Co237 O253 2.057 . S
Co237 O268 2.037 . S
Co237 N272 2.145 . S
Co237 N293 2.257 . S
O238 Co236 2.143 . S
O238 Co237 2.160 . S
C239 O240 1.278 . S
C239 O247 1.224 . S
O240 C239 1.278 . S
C241 O242 1.245 . S
C241 O253 1.232 . S
O242 C241 1.245 . S
O243 Co237 2.058 . S
O243 C269 1.269 . S
O244 Co236 2.074 . S
O244 C269 1.257 . S
H245 C270 0.930 . S
H246 C276 0.930 . S
O247 Co236 2.093 . S
O247 C239 1.224 . S
H248 C280 0.929 . S
H249 C282 0.930 . S
H250 C283 0.930 . S
H251 C281 0.929 . S
H252 C284 0.928 . S
O253 Co237 2.057 . S
O253 C241 1.232 . S
H254 C273 0.929 . S
H255 C274 0.929 . S
H256 C286 0.931 . S
H257 C278 0.929 . S
H258 C287 0.930 . S
H259 C279 0.931 . S
O260 Co236 2.097 . S
O260 C288 1.214 . S
H261 C289 0.929 . S
H262 C290 0.929 . S
H263 C291 0.930 . S
H264 C292 0.929 . S
H265 C294 0.930 . S
H266 C271 0.930 . S
H267 C275 0.930 . S
O268 Co237 2.037 . S
O268 C288 1.234 . S
C269 O243 1.269 . S
C269 O244 1.257 . S
C270 H245 0.930 . S
C270 C273 1.388 . S
C270 C275 1.418 . S
C271 H266 0.930 . S
C271 C274 1.404 . S
C271 C275 1.353 . S
N272 Co237 2.145 . S
N272 C273 1.397 . S
N272 C274 1.334 . S
C273 H254 0.929 . S
C273 C270 1.388 . S
C273 N272 1.397 . S
C274 H255 0.929 . S
C274 C271 1.404 . S
C274 N272 1.334 . S
C275 H267 0.930 . S
C275 C270 1.418 . S
C275 C271 1.353 . S
C276 H246 0.930 . S
C276 N277 1.330 . S
C276 C278 1.446 . S
N277 Co236 2.151 . S
N277 C276 1.330 . S
N277 C281 1.418 . S
C278 H257 0.929 . S
C278 C276 1.446 . S
C278 C279 1.332 . S
C279 H259 0.931 . S
C279 C278 1.332 . S
C279 C280 1.267 . S
C280 H248 0.929 . S
C280 C279 1.267 . S
C280 C281 1.251 . S
C281 H251 0.929 . S
C281 N277 1.418 . S
C281 C280 1.251 . S
C282 H249 0.930 . S
C282 C284 1.406 . S
C282 C287 1.261 . S
C283 H250 0.930 . S
C283 N285 1.325 . S
C283 C286 1.357 . S
C284 H252 0.928 . S
C284 C282 1.406 . S
C284 N285 1.261 . S
N285 Co236 2.214 . S
N285 C283 1.325 . S
N285 C284 1.261 . S
C286 H256 0.931 . S
C286 C283 1.357 . S
C286 C287 1.312 . S
C287 H258 0.930 . S
C287 C282 1.261 . S
C287 C286 1.312 . S
C288 O260 1.214 . S
C288 O268 1.234 . S
C289 H261 0.929 . S
C289 C292 1.391 . S
C289 C294 1.391 . S
C290 H262 0.929 . S
C290 C291 1.390 . S
C290 N293 1.391 . S
C291 H263 0.930 . S
C291 C290 1.390 . S
C291 C292 1.392 . S
C292 H264 0.929 . S
C292 C289 1.391 . S
C292 C291 1.392 . S
N293 Co237 2.257 . S
N293 C290 1.391 . S
N293 C294 1.388 . S
C294 H265 0.930 . S
C294 C289 1.391 . S
C294 N293 1.388 . S
Co295 O297 2.143 . S
Co295 O303 2.074 . S
Co295 O306 2.093 . S
Co295 O319 2.097 . S
Co295 N336 2.151 . S
Co295 N344 2.214 . S
Co296 O297 2.160 . S
Co296 O302 2.058 . S
Co296 O312 2.057 . S
Co296 O327 2.037 . S
Co296 N331 2.145 . S
Co296 N352 2.257 . S
O297 Co295 2.143 . S
O297 Co296 2.160 . S
C298 O299 1.278 . S
C298 O306 1.224 . S
O299 C298 1.278 . S
C300 O301 1.245 . S
C300 O312 1.232 . S
O301 C300 1.245 . S
O302 Co296 2.058 . S
O302 C328 1.269 . S
O303 Co295 2.074 . S
O303 C328 1.257 . S
H304 C329 0.930 . S
H305 C335 0.930 . S
O306 Co295 2.093 . S
O306 C298 1.224 . S
H307 C339 0.929 . S
H308 C341 0.930 . S
H309 C342 0.930 . S
H310 C340 0.929 . S
H311 C343 0.928 . S
O312 Co296 2.057 . S
O312 C300 1.232 . S
H313 C332 0.929 . S
H314 C333 0.929 . S
H315 C345 0.931 . S
H316 C337 0.929 . S
H317 C346 0.930 . S
H318 C338 0.931 . S
O319 Co295 2.097 . S
O319 C347 1.214 . S
H320 C348 0.929 . S
H321 C349 0.929 . S
H322 C350 0.930 . S
H323 C351 0.929 . S
H324 C353 0.930 . S
H325 C330 0.930 . S
H326 C334 0.930 . S
O327 Co296 2.037 . S
O327 C347 1.234 . S
C328 O302 1.269 . S
C328 O303 1.257 . S
C329 H304 0.930 . S
C329 C332 1.388 . S
C329 C334 1.418 . S
C330 H325 0.930 . S
C330 C333 1.404 . S
C330 C334 1.353 . S
N331 Co296 2.145 . S
N331 C332 1.397 . S
N331 C333 1.334 . S
C332 H313 0.929 . S
C332 C329 1.388 . S
C332 N331 1.397 . S
C333 H314 0.929 . S
C333 C330 1.404 . S
C333 N331 1.334 . S
C334 H326 0.930 . S
C334 C329 1.418 . S
C334 C330 1.353 . S
C335 H305 0.930 . S
C335 N336 1.330 . S
C335 C337 1.446 . S
N336 Co295 2.151 . S
N336 C335 1.330 . S
N336 C340 1.418 . S
C337 H316 0.929 . S
C337 C335 1.446 . S
C337 C338 1.332 . S
C338 H318 0.931 . S
C338 C337 1.332 . S
C338 C339 1.267 . S
C339 H307 0.929 . S
C339 C338 1.267 . S
C339 C340 1.251 . S
C340 H310 0.929 . S
C340 N336 1.418 . S
C340 C339 1.251 . S
C341 H308 0.930 . S
C341 C343 1.406 . S
C341 C346 1.261 . S
C342 H309 0.930 . S
C342 N344 1.325 . S
C342 C345 1.357 . S
C343 H311 0.928 . S
C343 C341 1.406 . S
C343 N344 1.261 . S
N344 Co295 2.214 . S
N344 C342 1.325 . S
N344 C343 1.261 . S
C345 H315 0.931 . S
C345 C342 1.357 . S
C345 C346 1.312 . S
C346 H317 0.930 . S
C346 C341 1.261 . S
C346 C345 1.312 . S
C347 O319 1.214 . S
C347 O327 1.234 . S
C348 H320 0.929 . S
C348 C351 1.391 . S
C348 C353 1.391 . S
C349 H321 0.929 . S
C349 C350 1.390 . S
C349 N352 1.391 . S
C350 H322 0.930 . S
C350 C349 1.390 . S
C350 C351 1.392 . S
C351 H323 0.929 . S
C351 C348 1.391 . S
C351 C350 1.392 . S
N352 Co296 2.257 . S
N352 C349 1.391 . S
N352 C353 1.388 . S
C353 H324 0.930 . S
C353 C348 1.391 . S
C353 N352 1.388 . S
Co354 O356 2.143 . S
Co354 O362 2.074 . S
Co354 O365 2.093 . S
Co354 O378 2.097 . S
Co354 N395 2.151 . S
Co354 N403 2.214 . S
Co355 O356 2.160 . S
Co355 O361 2.058 . S
Co355 O371 2.057 . S
Co355 O386 2.037 . S
Co355 N390 2.145 . S
Co355 N411 2.257 . S
O356 Co354 2.143 . S
O356 Co355 2.160 . S
C357 O358 1.278 . S
C357 O365 1.224 . S
O358 C357 1.278 . S
C359 O360 1.245 . S
C359 O371 1.232 . S
O360 C359 1.245 . S
O361 Co355 2.058 . S
O361 C387 1.269 . S
O362 Co354 2.074 . S
O362 C387 1.257 . S
H363 C388 0.930 . S
H364 C394 0.930 . S
O365 Co354 2.093 . S
O365 C357 1.224 . S
H366 C398 0.929 . S
H367 C400 0.930 . S
H368 C401 0.930 . S
H369 C399 0.929 . S
H370 C402 0.928 . S
O371 Co355 2.057 . S
O371 C359 1.232 . S
H372 C391 0.929 . S
H373 C392 0.929 . S
H374 C404 0.931 . S
H375 C396 0.929 . S
H376 C405 0.930 . S
H377 C397 0.931 . S
O378 Co354 2.097 . S
O378 C406 1.214 . S
H379 C407 0.929 . S
H380 C408 0.929 . S
H381 C409 0.930 . S
H382 C410 0.929 . S
H383 C412 0.930 . S
H384 C389 0.930 . S
H385 C393 0.930 . S
O386 Co355 2.037 . S
O386 C406 1.234 . S
C387 O361 1.269 . S
C387 O362 1.257 . S
C388 H363 0.930 . S
C388 C391 1.388 . S
C388 C393 1.418 . S
C389 H384 0.930 . S
C389 C392 1.404 . S
C389 C393 1.353 . S
N390 Co355 2.145 . S
N390 C391 1.397 . S
N390 C392 1.334 . S
C391 H372 0.929 . S
C391 C388 1.388 . S
C391 N390 1.397 . S
C392 H373 0.929 . S
C392 C389 1.404 . S
C392 N390 1.334 . S
C393 H385 0.930 . S
C393 C388 1.418 . S
C393 C389 1.353 . S
C394 H364 0.930 . S
C394 N395 1.330 . S
C394 C396 1.446 . S
N395 Co354 2.151 . S
N395 C394 1.330 . S
N395 C399 1.418 . S
C396 H375 0.929 . S
C396 C394 1.446 . S
C396 C397 1.332 . S
C397 H377 0.931 . S
C397 C396 1.332 . S
C397 C398 1.267 . S
C398 H366 0.929 . S
C398 C397 1.267 . S
C398 C399 1.251 . S
C399 H369 0.929 . S
C399 N395 1.418 . S
C399 C398 1.251 . S
C400 H367 0.930 . S
C400 C402 1.406 . S
C400 C405 1.261 . S
C401 H368 0.930 . S
C401 N403 1.325 . S
C401 C404 1.357 . S
C402 H370 0.928 . S
C402 C400 1.406 . S
C402 N403 1.261 . S
N403 Co354 2.214 . S
N403 C401 1.325 . S
N403 C402 1.261 . S
C404 H374 0.931 . S
C404 C401 1.357 . S
C404 C405 1.312 . S
C405 H376 0.930 . S
C405 C400 1.261 . S
C405 C404 1.312 . S
C406 O378 1.214 . S
C406 O386 1.234 . S
C407 H379 0.929 . S
C407 C410 1.391 . S
C407 C412 1.391 . S
C408 H380 0.929 . S
C408 C409 1.390 . S
C408 N411 1.391 . S
C409 H381 0.930 . S
C409 C408 1.390 . S
C409 C410 1.392 . S
C410 H382 0.929 . S
C410 C407 1.391 . S
C410 C409 1.392 . S
N411 Co355 2.257 . S
N411 C408 1.391 . S
N411 C412 1.388 . S
C412 H383 0.930 . S
C412 C407 1.391 . S
C412 N411 1.388 . S
Co413 O415 2.143 . S
Co413 O421 2.074 . S
Co413 O424 2.093 . S
Co413 O437 2.097 . S
Co413 N454 2.151 . S
Co413 N462 2.214 . S
Co414 O415 2.160 . S
Co414 O420 2.058 . S
Co414 O430 2.057 . S
Co414 O445 2.037 . S
Co414 N449 2.145 . S
Co414 N470 2.257 . S
O415 Co413 2.143 . S
O415 Co414 2.160 . S
C416 O417 1.278 . S
C416 O424 1.224 . S
O417 C416 1.278 . S
C418 O419 1.245 . S
C418 O430 1.232 . S
O419 C418 1.245 . S
O420 Co414 2.058 . S
O420 C446 1.269 . S
O421 Co413 2.074 . S
O421 C446 1.257 . S
H422 C447 0.930 . S
H423 C453 0.930 . S
O424 Co413 2.093 . S
O424 C416 1.224 . S
H425 C457 0.929 . S
H426 C459 0.930 . S
H427 C460 0.930 . S
H428 C458 0.929 . S
H429 C461 0.928 . S
O430 Co414 2.057 . S
O430 C418 1.232 . S
H431 C450 0.929 . S
H432 C451 0.929 . S
H433 C463 0.931 . S
H434 C455 0.929 . S
H435 C464 0.930 . S
H436 C456 0.931 . S
O437 Co413 2.097 . S
O437 C465 1.214 . S
H438 C466 0.929 . S
H439 C467 0.929 . S
H440 C468 0.930 . S
H441 C469 0.929 . S
H442 C471 0.930 . S
H443 C448 0.930 . S
H444 C452 0.930 . S
O445 Co414 2.037 . S
O445 C465 1.234 . S
C446 O420 1.269 . S
C446 O421 1.257 . S
C447 H422 0.930 . S
C447 C450 1.388 . S
C447 C452 1.418 . S
C448 H443 0.930 . S
C448 C451 1.404 . S
C448 C452 1.353 . S
N449 Co414 2.145 . S
N449 C450 1.397 . S
N449 C451 1.334 . S
C450 H431 0.929 . S
C450 C447 1.388 . S
C450 N449 1.397 . S
C451 H432 0.929 . S
C451 C448 1.404 . S
C451 N449 1.334 . S
C452 H444 0.930 . S
C452 C447 1.418 . S
C452 C448 1.353 . S
C453 H423 0.930 . S
C453 N454 1.330 . S
C453 C455 1.446 . S
N454 Co413 2.151 . S
N454 C453 1.330 . S
N454 C458 1.418 . S
C455 H434 0.929 . S
C455 C453 1.446 . S
C455 C456 1.332 . S
C456 H436 0.931 . S
C456 C455 1.332 . S
C456 C457 1.267 . S
C457 H425 0.929 . S
C457 C456 1.267 . S
C457 C458 1.251 . S
C458 H428 0.929 . S
C458 N454 1.418 . S
C458 C457 1.251 . S
C459 H426 0.930 . S
C459 C461 1.406 . S
C459 C464 1.261 . S
C460 H427 0.930 . S
C460 N462 1.325 . S
C460 C463 1.357 . S
C461 H429 0.928 . S
C461 C459 1.406 . S
C461 N462 1.261 . S
N462 Co413 2.214 . S
N462 C460 1.325 . S
N462 C461 1.261 . S
C463 H433 0.931 . S
C463 C460 1.357 . S
C463 C464 1.312 . S
C464 H435 0.930 . S
C464 C459 1.261 . S
C464 C463 1.312 . S
C465 O437 1.214 . S
C465 O445 1.234 . S
C466 H438 0.929 . S
C466 C469 1.391 . S
C466 C471 1.391 . S
C467 H439 0.929 . S
C467 C468 1.390 . S
C467 N470 1.391 . S
C468 H440 0.930 . S
C468 C467 1.390 . S
C468 C469 1.392 . S
C469 H441 0.929 . S
C469 C466 1.391 . S
C469 C468 1.392 . S
N470 Co414 2.257 . S
N470 C467 1.391 . S
N470 C471 1.388 . S
C471 H442 0.930 . S
C471 C466 1.391 . S
C471 N470 1.388 . S
Co472 O474 2.143 . S
Co472 O480 2.074 . S
Co472 O483 2.093 . S
Co472 O496 2.097 . S
Co472 N513 2.151 . S
Co472 N521 2.214 . S
Co473 O474 2.160 . S
Co473 O479 2.058 . S
Co473 O489 2.057 . S
Co473 O504 2.037 . S
Co473 N508 2.145 . S
Co473 N529 2.257 . S
O474 Co472 2.143 . S
O474 Co473 2.160 . S
C475 O476 1.278 . S
C475 O483 1.224 . S
O476 C475 1.278 . S
C477 O478 1.245 . S
C477 O489 1.232 . S
O478 C477 1.245 . S
O479 Co473 2.058 . S
O479 C505 1.269 . S
O480 Co472 2.074 . S
O480 C505 1.257 . S
H481 C506 0.930 . S
H482 C512 0.930 . S
O483 Co472 2.093 . S
O483 C475 1.224 . S
H484 C516 0.929 . S
H485 C518 0.930 . S
H486 C519 0.930 . S
H487 C517 0.929 . S
H488 C520 0.928 . S
O489 Co473 2.057 . S
O489 C477 1.232 . S
H490 C509 0.929 . S
H491 C510 0.929 . S
H492 C522 0.931 . S
H493 C514 0.929 . S
H494 C523 0.930 . S
H495 C515 0.931 . S
O496 Co472 2.097 . S
O496 C524 1.214 . S
H497 C525 0.929 . S
H498 C526 0.929 . S
H499 C527 0.930 . S
H500 C528 0.929 . S
H501 C530 0.930 . S
H502 C507 0.930 . S
H503 C511 0.930 . S
O504 Co473 2.037 . S
O504 C524 1.234 . S
C505 O479 1.269 . S
C505 O480 1.257 . S
C506 H481 0.930 . S
C506 C509 1.388 . S
C506 C511 1.418 . S
C507 H502 0.930 . S
C507 C510 1.404 . S
C507 C511 1.353 . S
N508 Co473 2.145 . S
N508 C509 1.397 . S
N508 C510 1.334 . S
C509 H490 0.929 . S
C509 C506 1.388 . S
C509 N508 1.397 . S
C510 H491 0.929 . S
C510 C507 1.404 . S
C510 N508 1.334 . S
C511 H503 0.930 . S
C511 C506 1.418 . S
C511 C507 1.353 . S
C512 H482 0.930 . S
C512 N513 1.330 . S
C512 C514 1.446 . S
N513 Co472 2.151 . S
N513 C512 1.330 . S
N513 C517 1.418 . S
C514 H493 0.929 . S
C514 C512 1.446 . S
C514 C515 1.332 . S
C515 H495 0.931 . S
C515 C514 1.332 . S
C515 C516 1.267 . S
C516 H484 0.929 . S
C516 C515 1.267 . S
C516 C517 1.251 . S
C517 H487 0.929 . S
C517 N513 1.418 . S
C517 C516 1.251 . S
C518 H485 0.930 . S
C518 C520 1.406 . S
C518 C523 1.261 . S
C519 H486 0.930 . S
C519 N521 1.325 . S
C519 C522 1.357 . S
C520 H488 0.928 . S
C520 C518 1.406 . S
C520 N521 1.261 . S
N521 Co472 2.214 . S
N521 C519 1.325 . S
N521 C520 1.261 . S
C522 H492 0.931 . S
C522 C519 1.357 . S
C522 C523 1.312 . S
C523 H494 0.930 . S
C523 C518 1.261 . S
C523 C522 1.312 . S
C524 O496 1.214 . S
C524 O504 1.234 . S
C525 H497 0.929 . S
C525 C528 1.391 . S
C525 C530 1.391 . S
C526 H498 0.929 . S
C526 C527 1.390 . S
C526 N529 1.391 . S
C527 H499 0.930 . S
C527 C526 1.390 . S
C527 C528 1.392 . S
C528 H500 0.929 . S
C528 C525 1.391 . S
C528 C527 1.392 . S
N529 Co473 2.257 . S
N529 C526 1.391 . S
N529 C530 1.388 . S
C530 H501 0.930 . S
C530 C525 1.391 . S
C530 N529 1.388 . S
Co531 O533 2.143 . S
Co531 O539 2.074 . S
Co531 O542 2.093 . S
Co531 O555 2.097 . S
Co531 N572 2.151 . S
Co531 N580 2.214 . S
Co532 O533 2.160 . S
Co532 O538 2.058 . S
Co532 O548 2.057 . S
Co532 O563 2.037 . S
Co532 N567 2.145 . S
Co532 N588 2.257 . S
O533 Co531 2.143 . S
O533 Co532 2.160 . S
C534 O535 1.278 . S
C534 O542 1.224 . S
O535 C534 1.278 . S
C536 O537 1.245 . S
C536 O548 1.232 . S
O537 C536 1.245 . S
O538 Co532 2.058 . S
O538 C564 1.269 . S
O539 Co531 2.074 . S
O539 C564 1.257 . S
H540 C565 0.930 . S
H541 C571 0.930 . S
O542 Co531 2.093 . S
O542 C534 1.224 . S
H543 C575 0.929 . S
H544 C577 0.930 . S
H545 C578 0.930 . S
H546 C576 0.929 . S
H547 C579 0.928 . S
O548 Co532 2.057 . S
O548 C536 1.232 . S
H549 C568 0.929 . S
H550 C569 0.929 . S
H551 C581 0.931 . S
H552 C573 0.929 . S
H553 C582 0.930 . S
H554 C574 0.931 . S
O555 Co531 2.097 . S
O555 C583 1.214 . S
H556 C584 0.929 . S
H557 C585 0.929 . S
H558 C586 0.930 . S
H559 C587 0.929 . S
H560 C589 0.930 . S
H561 C566 0.930 . S
H562 C570 0.930 . S
O563 Co532 2.037 . S
O563 C583 1.234 . S
C564 O538 1.269 . S
C564 O539 1.257 . S
C565 H540 0.930 . S
C565 C568 1.388 . S
C565 C570 1.418 . S
C566 H561 0.930 . S
C566 C569 1.404 . S
C566 C570 1.353 . S
N567 Co532 2.145 . S
N567 C568 1.397 . S
N567 C569 1.334 . S
C568 H549 0.929 . S
C568 C565 1.388 . S
C568 N567 1.397 . S
C569 H550 0.929 . S
C569 C566 1.404 . S
C569 N567 1.334 . S
C570 H562 0.930 . S
C570 C565 1.418 . S
C570 C566 1.353 . S
C571 H541 0.930 . S
C571 N572 1.330 . S
C571 C573 1.446 . S
N572 Co531 2.151 . S
N572 C571 1.330 . S
N572 C576 1.418 . S
C573 H552 0.929 . S
C573 C571 1.446 . S
C573 C574 1.332 . S
C574 H554 0.931 . S
C574 C573 1.332 . S
C574 C575 1.267 . S
C575 H543 0.929 . S
C575 C574 1.267 . S
C575 C576 1.251 . S
C576 H546 0.929 . S
C576 N572 1.418 . S
C576 C575 1.251 . S
C577 H544 0.930 . S
C577 C579 1.406 . S
C577 C582 1.261 . S
C578 H545 0.930 . S
C578 N580 1.325 . S
C578 C581 1.357 . S
C579 H547 0.928 . S
C579 C577 1.406 . S
C579 N580 1.261 . S
N580 Co531 2.214 . S
N580 C578 1.325 . S
N580 C579 1.261 . S
C581 H551 0.931 . S
C581 C578 1.357 . S
C581 C582 1.312 . S
C582 H553 0.930 . S
C582 C577 1.261 . S
C582 C581 1.312 . S
C583 O555 1.214 . S
C583 O563 1.234 . S
C584 H556 0.929 . S
C584 C587 1.391 . S
C584 C589 1.391 . S
C585 H557 0.929 . S
C585 C586 1.390 . S
C585 N588 1.391 . S
C586 H558 0.930 . S
C586 C585 1.390 . S
C586 C587 1.392 . S
C587 H559 0.929 . S
C587 C584 1.391 . S
C587 C586 1.392 . S
N588 Co532 2.257 . S
N588 C585 1.391 . S
N588 C589 1.388 . S
C589 H560 0.930 . S
C589 C584 1.391 . S
C589 N588 1.388 . S
Co590 O592 2.143 . S
Co590 O598 2.074 . S
Co590 O601 2.093 . S
Co590 O614 2.097 . S
Co590 N631 2.151 . S
Co590 N639 2.214 . S
Co591 O592 2.160 . S
Co591 O597 2.058 . S
Co591 O607 2.057 . S
Co591 O622 2.037 . S
Co591 N626 2.145 . S
Co591 N647 2.257 . S
O592 Co590 2.143 . S
O592 Co591 2.160 . S
C593 O594 1.278 . S
C593 O601 1.224 . S
O594 C593 1.278 . S
C595 O596 1.245 . S
C595 O607 1.232 . S
O596 C595 1.245 . S
O597 Co591 2.058 . S
O597 C623 1.269 . S
O598 Co590 2.074 . S
O598 C623 1.257 . S
H599 C624 0.930 . S
H600 C630 0.930 . S
O601 Co590 2.093 . S
O601 C593 1.224 . S
H602 C634 0.929 . S
H603 C636 0.930 . S
H604 C637 0.930 . S
H605 C635 0.929 . S
H606 C638 0.928 . S
O607 Co591 2.057 . S
O607 C595 1.232 . S
H608 C627 0.929 . S
H609 C628 0.929 . S
H610 C640 0.931 . S
H611 C632 0.929 . S
H612 C641 0.930 . S
H613 C633 0.931 . S
O614 Co590 2.097 . S
O614 C642 1.214 . S
H615 C643 0.929 . S
H616 C644 0.929 . S
H617 C645 0.930 . S
H618 C646 0.929 . S
H619 C648 0.930 . S
H620 C625 0.930 . S
H621 C629 0.930 . S
O622 Co591 2.037 . S
O622 C642 1.234 . S
C623 O597 1.269 . S
C623 O598 1.257 . S
C624 H599 0.930 . S
C624 C627 1.388 . S
C624 C629 1.418 . S
C625 H620 0.930 . S
C625 C628 1.404 . S
C625 C629 1.353 . S
N626 Co591 2.145 . S
N626 C627 1.397 . S
N626 C628 1.334 . S
C627 H608 0.929 . S
C627 C624 1.388 . S
C627 N626 1.397 . S
C628 H609 0.929 . S
C628 C625 1.404 . S
C628 N626 1.334 . S
C629 H621 0.930 . S
C629 C624 1.418 . S
C629 C625 1.353 . S
C630 H600 0.930 . S
C630 N631 1.330 . S
C630 C632 1.446 . S
N631 Co590 2.151 . S
N631 C630 1.330 . S
N631 C635 1.418 . S
C632 H611 0.929 . S
C632 C630 1.446 . S
C632 C633 1.332 . S
C633 H613 0.931 . S
C633 C632 1.332 . S
C633 C634 1.267 . S
C634 H602 0.929 . S
C634 C633 1.267 . S
C634 C635 1.251 . S
C635 H605 0.929 . S
C635 N631 1.418 . S
C635 C634 1.251 . S
C636 H603 0.930 . S
C636 C638 1.406 . S
C636 C641 1.261 . S
C637 H604 0.930 . S
C637 N639 1.325 . S
C637 C640 1.357 . S
C638 H606 0.928 . S
C638 C636 1.406 . S
C638 N639 1.261 . S
N639 Co590 2.214 . S
N639 C637 1.325 . S
N639 C638 1.261 . S
C640 H610 0.931 . S
C640 C637 1.357 . S
C640 C641 1.312 . S
C641 H612 0.930 . S
C641 C636 1.261 . S
C641 C640 1.312 . S
C642 O614 1.214 . S
C642 O622 1.234 . S
C643 H615 0.929 . S
C643 C646 1.391 . S
C643 C648 1.391 . S
C644 H616 0.929 . S
C644 C645 1.390 . S
C644 N647 1.391 . S
C645 H617 0.930 . S
C645 C644 1.390 . S
C645 C646 1.392 . S
C646 H618 0.929 . S
C646 C643 1.391 . S
C646 C645 1.392 . S
N647 Co591 2.257 . S
N647 C644 1.391 . S
N647 C648 1.388 . S
C648 H619 0.930 . S
C648 C643 1.391 . S
C648 N647 1.388 . S
Co649 O651 2.143 . S
Co649 O657 2.074 . S
Co649 O660 2.093 . S
Co649 O673 2.097 . S
Co649 N690 2.151 . S
Co649 N698 2.214 . S
Co650 O651 2.160 . S
Co650 O656 2.058 . S
Co650 O666 2.057 . S
Co650 O681 2.037 . S
Co650 N685 2.145 . S
Co650 N706 2.257 . S
O651 Co649 2.143 . S
O651 Co650 2.160 . S
C652 O653 1.278 . S
C652 O660 1.224 . S
O653 C652 1.278 . S
C654 O655 1.245 . S
C654 O666 1.232 . S
O655 C654 1.245 . S
O656 Co650 2.058 . S
O656 C682 1.269 . S
O657 Co649 2.074 . S
O657 C682 1.257 . S
H658 C683 0.930 . S
H659 C689 0.930 . S
O660 Co649 2.093 . S
O660 C652 1.224 . S
H661 C693 0.929 . S
H662 C695 0.930 . S
H663 C696 0.930 . S
H664 C694 0.929 . S
H665 C697 0.928 . S
O666 Co650 2.057 . S
O666 C654 1.232 . S
H667 C686 0.929 . S
H668 C687 0.929 . S
H669 C699 0.931 . S
H670 C691 0.929 . S
H671 C700 0.930 . S
H672 C692 0.931 . S
O673 Co649 2.097 . S
O673 C701 1.214 . S
H674 C702 0.929 . S
H675 C703 0.929 . S
H676 C704 0.930 . S
H677 C705 0.929 . S
H678 C707 0.930 . S
H679 C684 0.930 . S
H680 C688 0.930 . S
O681 Co650 2.037 . S
O681 C701 1.234 . S
C682 O656 1.269 . S
C682 O657 1.257 . S
C683 H658 0.930 . S
C683 C686 1.388 . S
C683 C688 1.418 . S
C684 H679 0.930 . S
C684 C687 1.404 . S
C684 C688 1.353 . S
N685 Co650 2.145 . S
N685 C686 1.397 . S
N685 C687 1.334 . S
C686 H667 0.929 . S
C686 C683 1.388 . S
C686 N685 1.397 . S
C687 H668 0.929 . S
C687 C684 1.404 . S
C687 N685 1.334 . S
C688 H680 0.930 . S
C688 C683 1.418 . S
C688 C684 1.353 . S
C689 H659 0.930 . S
C689 N690 1.330 . S
C689 C691 1.446 . S
N690 Co649 2.151 . S
N690 C689 1.330 . S
N690 C694 1.418 . S
C691 H670 0.929 . S
C691 C689 1.446 . S
C691 C692 1.332 . S
C692 H672 0.931 . S
C692 C691 1.332 . S
C692 C693 1.267 . S
C693 H661 0.929 . S
C693 C692 1.267 . S
C693 C694 1.251 . S
C694 H664 0.929 . S
C694 N690 1.418 . S
C694 C693 1.251 . S
C695 H662 0.930 . S
C695 C697 1.406 . S
C695 C700 1.261 . S
C696 H663 0.930 . S
C696 N698 1.325 . S
C696 C699 1.357 . S
C697 H665 0.928 . S
C697 C695 1.406 . S
C697 N698 1.261 . S
N698 Co649 2.214 . S
N698 C696 1.325 . S
N698 C697 1.261 . S
C699 H669 0.931 . S
C699 C696 1.357 . S
C699 C700 1.312 . S
C700 H671 0.930 . S
C700 C695 1.261 . S
C700 C699 1.312 . S
C701 O673 1.214 . S
C701 O681 1.234 . S
C702 H674 0.929 . S
C702 C705 1.391 . S
C702 C707 1.391 . S
C703 H675 0.929 . S
C703 C704 1.390 . S
C703 N706 1.391 . S
C704 H676 0.930 . S
C704 C703 1.390 . S
C704 C705 1.392 . S
C705 H677 0.929 . S
C705 C702 1.391 . S
C705 C704 1.392 . S
N706 Co650 2.257 . S
N706 C703 1.391 . S
N706 C707 1.388 . S
C707 H678 0.930 . S
C707 C702 1.391 . S
C707 N706 1.388 . S
Co708 O710 2.143 . S
Co708 O716 2.074 . S
Co708 O719 2.093 . S
Co708 O732 2.097 . S
Co708 N749 2.151 . S
Co708 N757 2.214 . S
Co709 O710 2.160 . S
Co709 O715 2.058 . S
Co709 O725 2.057 . S
Co709 O740 2.037 . S
Co709 N744 2.145 . S
Co709 N765 2.257 . S
O710 Co708 2.143 . S
O710 Co709 2.160 . S
C711 O712 1.278 . S
C711 O719 1.224 . S
O712 C711 1.278 . S
C713 O714 1.245 . S
C713 O725 1.232 . S
O714 C713 1.245 . S
O715 Co709 2.058 . S
O715 C741 1.269 . S
O716 Co708 2.074 . S
O716 C741 1.257 . S
H717 C742 0.930 . S
H718 C748 0.930 . S
O719 Co708 2.093 . S
O719 C711 1.224 . S
H720 C752 0.929 . S
H721 C754 0.930 . S
H722 C755 0.930 . S
H723 C753 0.929 . S
H724 C756 0.928 . S
O725 Co709 2.057 . S
O725 C713 1.232 . S
H726 C745 0.929 . S
H727 C746 0.929 . S
H728 C758 0.931 . S
H729 C750 0.929 . S
H730 C759 0.930 . S
H731 C751 0.931 . S
O732 Co708 2.097 . S
O732 C760 1.214 . S
H733 C761 0.929 . S
H734 C762 0.929 . S
H735 C763 0.930 . S
H736 C764 0.929 . S
H737 C766 0.930 . S
H738 C743 0.930 . S
H739 C747 0.930 . S
O740 Co709 2.037 . S
O740 C760 1.234 . S
C741 O715 1.269 . S
C741 O716 1.257 . S
C742 H717 0.930 . S
C742 C745 1.388 . S
C742 C747 1.418 . S
C743 H738 0.930 . S
C743 C746 1.404 . S
C743 C747 1.353 . S
N744 Co709 2.145 . S
N744 C745 1.397 . S
N744 C746 1.334 . S
C745 H726 0.929 . S
C745 C742 1.388 . S
C745 N744 1.397 . S
C746 H727 0.929 . S
C746 C743 1.404 . S
C746 N744 1.334 . S
C747 H739 0.930 . S
C747 C742 1.418 . S
C747 C743 1.353 . S
C748 H718 0.930 . S
C748 N749 1.330 . S
C748 C750 1.446 . S
N749 Co708 2.151 . S
N749 C748 1.330 . S
N749 C753 1.418 . S
C750 H729 0.929 . S
C750 C748 1.446 . S
C750 C751 1.332 . S
C751 H731 0.931 . S
C751 C750 1.332 . S
C751 C752 1.267 . S
C752 H720 0.929 . S
C752 C751 1.267 . S
C752 C753 1.251 . S
C753 H723 0.929 . S
C753 N749 1.418 . S
C753 C752 1.251 . S
C754 H721 0.930 . S
C754 C756 1.406 . S
C754 C759 1.261 . S
C755 H722 0.930 . S
C755 N757 1.325 . S
C755 C758 1.357 . S
C756 H724 0.928 . S
C756 C754 1.406 . S
C756 N757 1.261 . S
N757 Co708 2.214 . S
N757 C755 1.325 . S
N757 C756 1.261 . S
C758 H728 0.931 . S
C758 C755 1.357 . S
C758 C759 1.312 . S
C759 H730 0.930 . S
C759 C754 1.261 . S
C759 C758 1.312 . S
C760 O732 1.214 . S
C760 O740 1.234 . S
C761 H733 0.929 . S
C761 C764 1.391 . S
C761 C766 1.391 . S
C762 H734 0.929 . S
C762 C763 1.390 . S
C762 N765 1.391 . S
C763 H735 0.930 . S
C763 C762 1.390 . S
C763 C764 1.392 . S
C764 H736 0.929 . S
C764 C761 1.391 . S
C764 C763 1.392 . S
N765 Co709 2.257 . S
N765 C762 1.391 . S
N765 C766 1.388 . S
C766 H737 0.930 . S
C766 C761 1.391 . S
C766 N765 1.388 . S
Co767 O769 2.143 . S
Co767 O775 2.074 . S
Co767 O778 2.093 . S
Co767 O791 2.097 . S
Co767 N808 2.151 . S
Co767 N816 2.214 . S
Co768 O769 2.160 . S
Co768 O774 2.058 . S
Co768 O784 2.057 . S
Co768 O799 2.037 . S
Co768 N803 2.145 . S
Co768 N824 2.257 . S
O769 Co767 2.143 . S
O769 Co768 2.160 . S
C770 O771 1.278 . S
C770 O778 1.224 . S
O771 C770 1.278 . S
C772 O773 1.245 . S
C772 O784 1.232 . S
O773 C772 1.245 . S
O774 Co768 2.058 . S
O774 C800 1.269 . S
O775 Co767 2.074 . S
O775 C800 1.257 . S
H776 C801 0.930 . S
H777 C807 0.930 . S
O778 Co767 2.093 . S
O778 C770 1.224 . S
H779 C811 0.929 . S
H780 C813 0.930 . S
H781 C814 0.930 . S
H782 C812 0.929 . S
H783 C815 0.928 . S
O784 Co768 2.057 . S
O784 C772 1.232 . S
H785 C804 0.929 . S
H786 C805 0.929 . S
H787 C817 0.931 . S
H788 C809 0.929 . S
H789 C818 0.930 . S
H790 C810 0.931 . S
O791 Co767 2.097 . S
O791 C819 1.214 . S
H792 C820 0.929 . S
H793 C821 0.929 . S
H794 C822 0.930 . S
H795 C823 0.929 . S
H796 C825 0.930 . S
H797 C802 0.930 . S
H798 C806 0.930 . S
O799 Co768 2.037 . S
O799 C819 1.234 . S
C800 O774 1.269 . S
C800 O775 1.257 . S
C801 H776 0.930 . S
C801 C804 1.388 . S
C801 C806 1.418 . S
C802 H797 0.930 . S
C802 C805 1.404 . S
C802 C806 1.353 . S
N803 Co768 2.145 . S
N803 C804 1.397 . S
N803 C805 1.334 . S
C804 H785 0.929 . S
C804 C801 1.388 . S
C804 N803 1.397 . S
C805 H786 0.929 . S
C805 C802 1.404 . S
C805 N803 1.334 . S
C806 H798 0.930 . S
C806 C801 1.418 . S
C806 C802 1.353 . S
C807 H777 0.930 . S
C807 N808 1.330 . S
C807 C809 1.446 . S
N808 Co767 2.151 . S
N808 C807 1.330 . S
N808 C812 1.418 . S
C809 H788 0.929 . S
C809 C807 1.446 . S
C809 C810 1.332 . S
C810 H790 0.931 . S
C810 C809 1.332 . S
C810 C811 1.267 . S
C811 H779 0.929 . S
C811 C810 1.267 . S
C811 C812 1.251 . S
C812 H782 0.929 . S
C812 N808 1.418 . S
C812 C811 1.251 . S
C813 H780 0.930 . S
C813 C815 1.406 . S
C813 C818 1.261 . S
C814 H781 0.930 . S
C814 N816 1.325 . S
C814 C817 1.357 . S
C815 H783 0.928 . S
C815 C813 1.406 . S
C815 N816 1.261 . S
N816 Co767 2.214 . S
N816 C814 1.325 . S
N816 C815 1.261 . S
C817 H787 0.931 . S
C817 C814 1.357 . S
C817 C818 1.312 . S
C818 H789 0.930 . S
C818 C813 1.261 . S
C818 C817 1.312 . S
C819 O791 1.214 . S
C819 O799 1.234 . S
C820 H792 0.929 . S
C820 C823 1.391 . S
C820 C825 1.391 . S
C821 H793 0.929 . S
C821 C822 1.390 . S
C821 N824 1.391 . S
C822 H794 0.930 . S
C822 C821 1.390 . S
C822 C823 1.392 . S
C823 H795 0.929 . S
C823 C820 1.391 . S
C823 C822 1.392 . S
N824 Co768 2.257 . S
N824 C821 1.391 . S
N824 C825 1.388 . S
C825 H796 0.930 . S
C825 C820 1.391 . S
C825 N824 1.388 . S
Co826 O828 2.143 . S
Co826 O834 2.074 . S
Co826 O837 2.093 . S
Co826 O850 2.097 . S
Co826 N867 2.151 . S
Co826 N875 2.214 . S
Co827 O828 2.160 . S
Co827 O833 2.058 . S
Co827 O843 2.057 . S
Co827 O858 2.037 . S
Co827 N862 2.145 . S
Co827 N883 2.257 . S
O828 Co826 2.143 . S
O828 Co827 2.160 . S
C829 O830 1.278 . S
C829 O837 1.224 . S
O830 C829 1.278 . S
C831 O832 1.245 . S
C831 O843 1.232 . S
O832 C831 1.245 . S
O833 Co827 2.058 . S
O833 C859 1.269 . S
O834 Co826 2.074 . S
O834 C859 1.257 . S
H835 C860 0.930 . S
H836 C866 0.930 . S
O837 Co826 2.093 . S
O837 C829 1.224 . S
H838 C870 0.929 . S
H839 C872 0.930 . S
H840 C873 0.930 . S
H841 C871 0.929 . S
H842 C874 0.928 . S
O843 Co827 2.057 . S
O843 C831 1.232 . S
H844 C863 0.929 . S
H845 C864 0.929 . S
H846 C876 0.931 . S
H847 C868 0.929 . S
H848 C877 0.930 . S
H849 C869 0.931 . S
O850 Co826 2.097 . S
O850 C878 1.214 . S
H851 C879 0.929 . S
H852 C880 0.929 . S
H853 C881 0.930 . S
H854 C882 0.929 . S
H855 C884 0.930 . S
H856 C861 0.930 . S
H857 C865 0.930 . S
O858 Co827 2.037 . S
O858 C878 1.234 . S
C859 O833 1.269 . S
C859 O834 1.257 . S
C860 H835 0.930 . S
C860 C863 1.388 . S
C860 C865 1.418 . S
C861 H856 0.930 . S
C861 C864 1.404 . S
C861 C865 1.353 . S
N862 Co827 2.145 . S
N862 C863 1.397 . S
N862 C864 1.334 . S
C863 H844 0.929 . S
C863 C860 1.388 . S
C863 N862 1.397 . S
C864 H845 0.929 . S
C864 C861 1.404 . S
C864 N862 1.334 . S
C865 H857 0.930 . S
C865 C860 1.418 . S
C865 C861 1.353 . S
C866 H836 0.930 . S
C866 N867 1.330 . S
C866 C868 1.446 . S
N867 Co826 2.151 . S
N867 C866 1.330 . S
N867 C871 1.418 . S
C868 H847 0.929 . S
C868 C866 1.446 . S
C868 C869 1.332 . S
C869 H849 0.931 . S
C869 C868 1.332 . S
C869 C870 1.267 . S
C870 H838 0.929 . S
C870 C869 1.267 . S
C870 C871 1.251 . S
C871 H841 0.929 . S
C871 N867 1.418 . S
C871 C870 1.251 . S
C872 H839 0.930 . S
C872 C874 1.406 . S
C872 C877 1.261 . S
C873 H840 0.930 . S
C873 N875 1.325 . S
C873 C876 1.357 . S
C874 H842 0.928 . S
C874 C872 1.406 . S
C874 N875 1.261 . S
N875 Co826 2.214 . S
N875 C873 1.325 . S
N875 C874 1.261 . S
C876 H846 0.931 . S
C876 C873 1.357 . S
C876 C877 1.312 . S
C877 H848 0.930 . S
C877 C872 1.261 . S
C877 C876 1.312 . S
C878 O850 1.214 . S
C878 O858 1.234 . S
C879 H851 0.929 . S
C879 C882 1.391 . S
C879 C884 1.391 . S
C880 H852 0.929 . S
C880 C881 1.390 . S
C880 N883 1.391 . S
C881 H853 0.930 . S
C881 C880 1.390 . S
C881 C882 1.392 . S
C882 H854 0.929 . S
C882 C879 1.391 . S
C882 C881 1.392 . S
N883 Co827 2.257 . S
N883 C880 1.391 . S
N883 C884 1.388 . S
C884 H855 0.930 . S
C884 C879 1.391 . S
C884 N883 1.388 . S
Co885 O887 2.143 . S
Co885 O893 2.074 . S
Co885 O896 2.093 . S
Co885 O909 2.097 . S
Co885 N926 2.151 . S
Co885 N934 2.214 . S
Co886 O887 2.160 . S
Co886 O892 2.058 . S
Co886 O902 2.057 . S
Co886 O917 2.037 . S
Co886 N921 2.145 . S
Co886 N942 2.257 . S
O887 Co885 2.143 . S
O887 Co886 2.160 . S
C888 O889 1.278 . S
C888 O896 1.224 . S
O889 C888 1.278 . S
C890 O891 1.245 . S
C890 O902 1.232 . S
O891 C890 1.245 . S
O892 Co886 2.058 . S
O892 C918 1.269 . S
O893 Co885 2.074 . S
O893 C918 1.257 . S
H894 C919 0.930 . S
H895 C925 0.930 . S
O896 Co885 2.093 . S
O896 C888 1.224 . S
H897 C929 0.929 . S
H898 C931 0.930 . S
H899 C932 0.930 . S
H900 C930 0.929 . S
H901 C933 0.928 . S
O902 Co886 2.057 . S
O902 C890 1.232 . S
H903 C922 0.929 . S
H904 C923 0.929 . S
H905 C935 0.931 . S
H906 C927 0.929 . S
H907 C936 0.930 . S
H908 C928 0.931 . S
O909 Co885 2.097 . S
O909 C937 1.214 . S
H910 C938 0.929 . S
H911 C939 0.929 . S
H912 C940 0.930 . S
H913 C941 0.929 . S
H914 C943 0.930 . S
H915 C920 0.930 . S
H916 C924 0.930 . S
O917 Co886 2.037 . S
O917 C937 1.234 . S
C918 O892 1.269 . S
C918 O893 1.257 . S
C919 H894 0.930 . S
C919 C922 1.388 . S
C919 C924 1.418 . S
C920 H915 0.930 . S
C920 C923 1.404 . S
C920 C924 1.353 . S
N921 Co886 2.145 . S
N921 C922 1.397 . S
N921 C923 1.334 . S
C922 H903 0.929 . S
C922 C919 1.388 . S
C922 N921 1.397 . S
C923 H904 0.929 . S
C923 C920 1.404 . S
C923 N921 1.334 . S
C924 H916 0.930 . S
C924 C919 1.418 . S
C924 C920 1.353 . S
C925 H895 0.930 . S
C925 N926 1.330 . S
C925 C927 1.446 . S
N926 Co885 2.151 . S
N926 C925 1.330 . S
N926 C930 1.418 . S
C927 H906 0.929 . S
C927 C925 1.446 . S
C927 C928 1.332 . S
C928 H908 0.931 . S
C928 C927 1.332 . S
C928 C929 1.267 . S
C929 H897 0.929 . S
C929 C928 1.267 . S
C929 C930 1.251 . S
C930 H900 0.929 . S
C930 N926 1.418 . S
C930 C929 1.251 . S
C931 H898 0.930 . S
C931 C933 1.406 . S
C931 C936 1.261 . S
C932 H899 0.930 . S
C932 N934 1.325 . S
C932 C935 1.357 . S
C933 H901 0.928 . S
C933 C931 1.406 . S
C933 N934 1.261 . S
N934 Co885 2.214 . S
N934 C932 1.325 . S
N934 C933 1.261 . S
C935 H905 0.931 . S
C935 C932 1.357 . S
C935 C936 1.312 . S
C936 H907 0.930 . S
C936 C931 1.261 . S
C936 C935 1.312 . S
C937 O909 1.214 . S
C937 O917 1.234 . S
C938 H910 0.929 . S
C938 C941 1.391 . S
C938 C943 1.391 . S
C939 H911 0.929 . S
C939 C940 1.390 . S
C939 N942 1.391 . S
C940 H912 0.930 . S
C940 C939 1.390 . S
C940 C941 1.392 . S
C941 H913 0.929 . S
C941 C938 1.391 . S
C941 C940 1.392 . S
N942 Co886 2.257 . S
N942 C939 1.391 . S
N942 C943 1.388 . S
C943 H914 0.930 . S
C943 C938 1.391 . S
C943 N942 1.388 . S
Co944 O946 2.143 . S
Co944 O952 2.074 . S
Co944 O955 2.093 . S
Co944 O968 2.097 . S
Co944 N985 2.151 . S
Co944 N993 2.214 . S
Co945 O946 2.160 . S
Co945 O951 2.058 . S
Co945 O961 2.057 . S
Co945 O976 2.037 . S
Co945 N980 2.145 . S
Co945 N1001 2.257 . S
O946 Co944 2.143 . S
O946 Co945 2.160 . S
C947 O948 1.278 . S
C947 O955 1.224 . S
O948 C947 1.278 . S
C949 O950 1.245 . S
C949 O961 1.232 . S
O950 C949 1.245 . S
O951 Co945 2.058 . S
O951 C977 1.269 . S
O952 Co944 2.074 . S
O952 C977 1.257 . S
H953 C978 0.930 . S
H954 C984 0.930 . S
O955 Co944 2.093 . S
O955 C947 1.224 . S
H956 C988 0.929 . S
H957 C990 0.930 . S
H958 C991 0.930 . S
H959 C989 0.929 . S
H960 C992 0.928 . S
O961 Co945 2.057 . S
O961 C949 1.232 . S
H962 C981 0.929 . S
H963 C982 0.929 . S
H964 C994 0.931 . S
H965 C986 0.929 . S
H966 C995 0.930 . S
H967 C987 0.931 . S
O968 Co944 2.097 . S
O968 C996 1.214 . S
H969 C997 0.929 . S
H970 C998 0.929 . S
H971 C999 0.930 . S
H972 C1000 0.929 . S
H973 C1002 0.930 . S
H974 C979 0.930 . S
H975 C983 0.930 . S
O976 Co945 2.037 . S
O976 C996 1.234 . S
C977 O951 1.269 . S
C977 O952 1.257 . S
C978 H953 0.930 . S
C978 C981 1.388 . S
C978 C983 1.418 . S
C979 H974 0.930 . S
C979 C982 1.404 . S
C979 C983 1.353 . S
N980 Co945 2.145 . S
N980 C981 1.397 . S
N980 C982 1.334 . S
C981 H962 0.929 . S
C981 C978 1.388 . S
C981 N980 1.397 . S
C982 H963 0.929 . S
C982 C979 1.404 . S
C982 N980 1.334 . S
C983 H975 0.930 . S
C983 C978 1.418 . S
C983 C979 1.353 . S
C984 H954 0.930 . S
C984 N985 1.330 . S
C984 C986 1.446 . S
N985 Co944 2.151 . S
N985 C984 1.330 . S
N985 C989 1.418 . S
C986 H965 0.929 . S
C986 C984 1.446 . S
C986 C987 1.332 . S
C987 H967 0.931 . S
C987 C986 1.332 . S
C987 C988 1.267 . S
C988 H956 0.929 . S
C988 C987 1.267 . S
C988 C989 1.251 . S
C989 H959 0.929 . S
C989 N985 1.418 . S
C989 C988 1.251 . S
C990 H957 0.930 . S
C990 C992 1.406 . S
C990 C995 1.261 . S
C991 H958 0.930 . S
C991 N993 1.325 . S
C991 C994 1.357 . S
C992 H960 0.928 . S
C992 C990 1.406 . S
C992 N993 1.261 . S
N993 Co944 2.214 . S
N993 C991 1.325 . S
N993 C992 1.261 . S
C994 H964 0.931 . S
C994 C991 1.357 . S
C994 C995 1.312 . S
C995 H966 0.930 . S
C995 C990 1.261 . S
C995 C994 1.312 . S
C996 O968 1.214 . S
C996 O976 1.234 . S
C997 H969 0.929 . S
C997 C1000 1.391 . S
C997 C1002 1.391 . S
C998 H970 0.929 . S
C998 C999 1.390 . S
C998 N1001 1.391 . S
C999 H971 0.930 . S
C999 C998 1.390 . S
C999 C1000 1.392 . S
C1000 H972 0.929 . S
C1000 C997 1.391 . S
C1000 C999 1.392 . S
N1001 Co945 2.257 . S
N1001 C998 1.391 . S
N1001 C1002 1.388 . S
C1002 H973 0.930 . S
C1002 C997 1.391 . S
C1002 N1001 1.388 . S
Co1003 O1005 2.143 . S
Co1003 O1011 2.074 . S
Co1003 O1014 2.093 . S
Co1003 O1027 2.097 . S
Co1003 N1044 2.151 . S
Co1003 N1052 2.214 . S
Co1004 O1005 2.160 . S
Co1004 O1010 2.058 . S
Co1004 O1020 2.057 . S
Co1004 O1035 2.037 . S
Co1004 N1039 2.145 . S
Co1004 N1060 2.257 . S
O1005 Co1003 2.143 . S
O1005 Co1004 2.160 . S
C1006 O1007 1.278 . S
C1006 O1014 1.224 . S
O1007 C1006 1.278 . S
C1008 O1009 1.245 . S
C1008 O1020 1.232 . S
O1009 C1008 1.245 . S
O1010 Co1004 2.058 . S
O1010 C1036 1.269 . S
O1011 Co1003 2.074 . S
O1011 C1036 1.257 . S
H1012 C1037 0.930 . S
H1013 C1043 0.930 . S
O1014 Co1003 2.093 . S
O1014 C1006 1.224 . S
H1015 C1047 0.929 . S
H1016 C1049 0.930 . S
H1017 C1050 0.930 . S
H1018 C1048 0.929 . S
H1019 C1051 0.928 . S
O1020 Co1004 2.057 . S
O1020 C1008 1.232 . S
H1021 C1040 0.929 . S
H1022 C1041 0.929 . S
H1023 C1053 0.931 . S
H1024 C1045 0.929 . S
H1025 C1054 0.930 . S
H1026 C1046 0.931 . S
O1027 Co1003 2.097 . S
O1027 C1055 1.214 . S
H1028 C1056 0.929 . S
H1029 C1057 0.929 . S
H1030 C1058 0.930 . S
H1031 C1059 0.929 . S
H1032 C1061 0.930 . S
H1033 C1038 0.930 . S
H1034 C1042 0.930 . S
O1035 Co1004 2.037 . S
O1035 C1055 1.234 . S
C1036 O1010 1.269 . S
C1036 O1011 1.257 . S
C1037 H1012 0.930 . S
C1037 C1040 1.388 . S
C1037 C1042 1.418 . S
C1038 H1033 0.930 . S
C1038 C1041 1.404 . S
C1038 C1042 1.353 . S
N1039 Co1004 2.145 . S
N1039 C1040 1.397 . S
N1039 C1041 1.334 . S
C1040 H1021 0.929 . S
C1040 C1037 1.388 . S
C1040 N1039 1.397 . S
C1041 H1022 0.929 . S
C1041 C1038 1.404 . S
C1041 N1039 1.334 . S
C1042 H1034 0.930 . S
C1042 C1037 1.418 . S
C1042 C1038 1.353 . S
C1043 H1013 0.930 . S
C1043 N1044 1.330 . S
C1043 C1045 1.446 . S
N1044 Co1003 2.151 . S
N1044 C1043 1.330 . S
N1044 C1048 1.418 . S
C1045 H1024 0.929 . S
C1045 C1043 1.446 . S
C1045 C1046 1.332 . S
C1046 H1026 0.931 . S
C1046 C1045 1.332 . S
C1046 C1047 1.267 . S
C1047 H1015 0.929 . S
C1047 C1046 1.267 . S
C1047 C1048 1.251 . S
C1048 H1018 0.929 . S
C1048 N1044 1.418 . S
C1048 C1047 1.251 . S
C1049 H1016 0.930 . S
C1049 C1051 1.406 . S
C1049 C1054 1.261 . S
C1050 H1017 0.930 . S
C1050 N1052 1.325 . S
C1050 C1053 1.357 . S
C1051 H1019 0.928 . S
C1051 C1049 1.406 . S
C1051 N1052 1.261 . S
N1052 Co1003 2.214 . S
N1052 C1050 1.325 . S
N1052 C1051 1.261 . S
C1053 H1023 0.931 . S
C1053 C1050 1.357 . S
C1053 C1054 1.312 . S
C1054 H1025 0.930 . S
C1054 C1049 1.261 . S
C1054 C1053 1.312 . S
C1055 O1027 1.214 . S
C1055 O1035 1.234 . S
C1056 H1028 0.929 . S
C1056 C1059 1.391 . S
C1056 C1061 1.391 . S
C1057 H1029 0.929 . S
C1057 C1058 1.390 . S
C1057 N1060 1.391 . S
C1058 H1030 0.930 . S
C1058 C1057 1.390 . S
C1058 C1059 1.392 . S
C1059 H1031 0.929 . S
C1059 C1056 1.391 . S
C1059 C1058 1.392 . S
N1060 Co1004 2.257 . S
N1060 C1057 1.391 . S
N1060 C1061 1.388 . S
C1061 H1032 0.930 . S
C1061 C1056 1.391 . S
C1061 N1060 1.388 . S
Co1062 O1064 2.143 . S
Co1062 O1070 2.074 . S
Co1062 O1073 2.093 . S
Co1062 O1086 2.097 . S
Co1062 N1103 2.151 . S
Co1062 N1111 2.214 . S
Co1063 O1064 2.160 . S
Co1063 O1069 2.058 . S
Co1063 O1079 2.057 . S
Co1063 O1094 2.037 . S
Co1063 N1098 2.145 . S
Co1063 N1119 2.257 . S
O1064 Co1062 2.143 . S
O1064 Co1063 2.160 . S
C1065 O1066 1.278 . S
C1065 O1073 1.224 . S
O1066 C1065 1.278 . S
C1067 O1068 1.245 . S
C1067 O1079 1.232 . S
O1068 C1067 1.245 . S
O1069 Co1063 2.058 . S
O1069 C1095 1.269 . S
O1070 Co1062 2.074 . S
O1070 C1095 1.257 . S
H1071 C1096 0.930 . S
H1072 C1102 0.930 . S
O1073 Co1062 2.093 . S
O1073 C1065 1.224 . S
H1074 C1106 0.929 . S
H1075 C1108 0.930 . S
H1076 C1109 0.930 . S
H1077 C1107 0.929 . S
H1078 C1110 0.928 . S
O1079 Co1063 2.057 . S
O1079 C1067 1.232 . S
H1080 C1099 0.929 . S
H1081 C1100 0.929 . S
H1082 C1112 0.931 . S
H1083 C1104 0.929 . S
H1084 C1113 0.930 . S
H1085 C1105 0.931 . S
O1086 Co1062 2.097 . S
O1086 C1114 1.214 . S
H1087 C1115 0.929 . S
H1088 C1116 0.929 . S
H1089 C1117 0.930 . S
H1090 C1118 0.929 . S
H1091 C1120 0.930 . S
H1092 C1097 0.930 . S
H1093 C1101 0.930 . S
O1094 Co1063 2.037 . S
O1094 C1114 1.234 . S
C1095 O1069 1.269 . S
C1095 O1070 1.257 . S
C1096 H1071 0.930 . S
C1096 C1099 1.388 . S
C1096 C1101 1.418 . S
C1097 H1092 0.930 . S
C1097 C1100 1.404 . S
C1097 C1101 1.353 . S
N1098 Co1063 2.145 . S
N1098 C1099 1.397 . S
N1098 C1100 1.334 . S
C1099 H1080 0.929 . S
C1099 C1096 1.388 . S
C1099 N1098 1.397 . S
C1100 H1081 0.929 . S
C1100 C1097 1.404 . S
C1100 N1098 1.334 . S
C1101 H1093 0.930 . S
C1101 C1096 1.418 . S
C1101 C1097 1.353 . S
C1102 H1072 0.930 . S
C1102 N1103 1.330 . S
C1102 C1104 1.446 . S
N1103 Co1062 2.151 . S
N1103 C1102 1.330 . S
N1103 C1107 1.418 . S
C1104 H1083 0.929 . S
C1104 C1102 1.446 . S
C1104 C1105 1.332 . S
C1105 H1085 0.931 . S
C1105 C1104 1.332 . S
C1105 C1106 1.267 . S
C1106 H1074 0.929 . S
C1106 C1105 1.267 . S
C1106 C1107 1.251 . S
C1107 H1077 0.929 . S
C1107 N1103 1.418 . S
C1107 C1106 1.251 . S
C1108 H1075 0.930 . S
C1108 C1110 1.406 . S
C1108 C1113 1.261 . S
C1109 H1076 0.930 . S
C1109 N1111 1.325 . S
C1109 C1112 1.357 . S
C1110 H1078 0.928 . S
C1110 C1108 1.406 . S
C1110 N1111 1.261 . S
N1111 Co1062 2.214 . S
N1111 C1109 1.325 . S
N1111 C1110 1.261 . S
C1112 H1082 0.931 . S
C1112 C1109 1.357 . S
C1112 C1113 1.312 . S
C1113 H1084 0.930 . S
C1113 C1108 1.261 . S
C1113 C1112 1.312 . S
C1114 O1086 1.214 . S
C1114 O1094 1.234 . S
C1115 H1087 0.929 . S
C1115 C1118 1.391 . S
C1115 C1120 1.391 . S
C1116 H1088 0.929 . S
C1116 C1117 1.390 . S
C1116 N1119 1.391 . S
C1117 H1089 0.930 . S
C1117 C1116 1.390 . S
C1117 C1118 1.392 . S
C1118 H1090 0.929 . S
C1118 C1115 1.391 . S
C1118 C1117 1.392 . S
N1119 Co1063 2.257 . S
N1119 C1116 1.391 . S
N1119 C1120 1.388 . S
C1120 H1091 0.930 . S
C1120 C1115 1.391 . S
C1120 N1119 1.388 . S
Co1121 O1123 2.143 . S
Co1121 O1129 2.074 . S
Co1121 O1132 2.093 . S
Co1121 O1145 2.097 . S
Co1121 N1162 2.151 . S
Co1121 N1170 2.214 . S
Co1122 O1123 2.160 . S
Co1122 O1128 2.058 . S
Co1122 O1138 2.057 . S
Co1122 O1153 2.037 . S
Co1122 N1157 2.145 . S
Co1122 N1178 2.257 . S
O1123 Co1121 2.143 . S
O1123 Co1122 2.160 . S
C1124 O1125 1.278 . S
C1124 O1132 1.224 . S
O1125 C1124 1.278 . S
C1126 O1127 1.245 . S
C1126 O1138 1.232 . S
O1127 C1126 1.245 . S
O1128 Co1122 2.058 . S
O1128 C1154 1.269 . S
O1129 Co1121 2.074 . S
O1129 C1154 1.257 . S
H1130 C1155 0.930 . S
H1131 C1161 0.930 . S
O1132 Co1121 2.093 . S
O1132 C1124 1.224 . S
H1133 C1165 0.929 . S
H1134 C1167 0.930 . S
H1135 C1168 0.930 . S
H1136 C1166 0.929 . S
H1137 C1169 0.928 . S
O1138 Co1122 2.057 . S
O1138 C1126 1.232 . S
H1139 C1158 0.929 . S
H1140 C1159 0.929 . S
H1141 C1171 0.931 . S
H1142 C1163 0.929 . S
H1143 C1172 0.930 . S
H1144 C1164 0.931 . S
O1145 Co1121 2.097 . S
O1145 C1173 1.214 . S
H1146 C1174 0.929 . S
H1147 C1175 0.929 . S
H1148 C1176 0.930 . S
H1149 C1177 0.929 . S
H1150 C1179 0.930 . S
H1151 C1156 0.930 . S
H1152 C1160 0.930 . S
O1153 Co1122 2.037 . S
O1153 C1173 1.234 . S
C1154 O1128 1.269 . S
C1154 O1129 1.257 . S
C1155 H1130 0.930 . S
C1155 C1158 1.388 . S
C1155 C1160 1.418 . S
C1156 H1151 0.930 . S
C1156 C1159 1.404 . S
C1156 C1160 1.353 . S
N1157 Co1122 2.145 . S
N1157 C1158 1.397 . S
N1157 C1159 1.334 . S
C1158 H1139 0.929 . S
C1158 C1155 1.388 . S
C1158 N1157 1.397 . S
C1159 H1140 0.929 . S
C1159 C1156 1.404 . S
C1159 N1157 1.334 . S
C1160 H1152 0.930 . S
C1160 C1155 1.418 . S
C1160 C1156 1.353 . S
C1161 H1131 0.930 . S
C1161 N1162 1.330 . S
C1161 C1163 1.446 . S
N1162 Co1121 2.151 . S
N1162 C1161 1.330 . S
N1162 C1166 1.418 . S
C1163 H1142 0.929 . S
C1163 C1161 1.446 . S
C1163 C1164 1.332 . S
C1164 H1144 0.931 . S
C1164 C1163 1.332 . S
C1164 C1165 1.267 . S
C1165 H1133 0.929 . S
C1165 C1164 1.267 . S
C1165 C1166 1.251 . S
C1166 H1136 0.929 . S
C1166 N1162 1.418 . S
C1166 C1165 1.251 . S
C1167 H1134 0.930 . S
C1167 C1169 1.406 . S
C1167 C1172 1.261 . S
C1168 H1135 0.930 . S
C1168 N1170 1.325 . S
C1168 C1171 1.357 . S
C1169 H1137 0.928 . S
C1169 C1167 1.406 . S
C1169 N1170 1.261 . S
N1170 Co1121 2.214 . S
N1170 C1168 1.325 . S
N1170 C1169 1.261 . S
C1171 H1141 0.931 . S
C1171 C1168 1.357 . S
C1171 C1172 1.312 . S
C1172 H1143 0.930 . S
C1172 C1167 1.261 . S
C1172 C1171 1.312 . S
C1173 O1145 1.214 . S
C1173 O1153 1.234 . S
C1174 H1146 0.929 . S
C1174 C1177 1.391 . S
C1174 C1179 1.391 . S
C1175 H1147 0.929 . S
C1175 C1176 1.390 . S
C1175 N1178 1.391 . S
C1176 H1148 0.930 . S
C1176 C1175 1.390 . S
C1176 C1177 1.392 . S
C1177 H1149 0.929 . S
C1177 C1174 1.391 . S
C1177 C1176 1.392 . S
N1178 Co1122 2.257 . S
N1178 C1175 1.391 . S
N1178 C1179 1.388 . S
C1179 H1150 0.930 . S
C1179 C1174 1.391 . S
C1179 N1178 1.388 . S
Co1180 O1182 2.143 . S
Co1180 O1188 2.074 . S
Co1180 O1191 2.093 . S
Co1180 O1204 2.097 . S
Co1180 N1221 2.151 . S
Co1180 N1229 2.214 . S
Co1181 O1182 2.160 . S
Co1181 O1187 2.058 . S
Co1181 O1197 2.057 . S
Co1181 O1212 2.037 . S
Co1181 N1216 2.145 . S
Co1181 N1237 2.257 . S
O1182 Co1180 2.143 . S
O1182 Co1181 2.160 . S
C1183 O1184 1.278 . S
C1183 O1191 1.224 . S
O1184 C1183 1.278 . S
C1185 O1186 1.245 . S
C1185 O1197 1.232 . S
O1186 C1185 1.245 . S
O1187 Co1181 2.058 . S
O1187 C1213 1.269 . S
O1188 Co1180 2.074 . S
O1188 C1213 1.257 . S
H1189 C1214 0.930 . S
H1190 C1220 0.930 . S
O1191 Co1180 2.093 . S
O1191 C1183 1.224 . S
H1192 C1224 0.929 . S
H1193 C1226 0.930 . S
H1194 C1227 0.930 . S
H1195 C1225 0.929 . S
H1196 C1228 0.928 . S
O1197 Co1181 2.057 . S
O1197 C1185 1.232 . S
H1198 C1217 0.929 . S
H1199 C1218 0.929 . S
H1200 C1230 0.931 . S
H1201 C1222 0.929 . S
H1202 C1231 0.930 . S
H1203 C1223 0.931 . S
O1204 Co1180 2.097 . S
O1204 C1232 1.214 . S
H1205 C1233 0.929 . S
H1206 C1234 0.929 . S
H1207 C1235 0.930 . S
H1208 C1236 0.929 . S
H1209 C1238 0.930 . S
H1210 C1215 0.930 . S
H1211 C1219 0.930 . S
O1212 Co1181 2.037 . S
O1212 C1232 1.234 . S
C1213 O1187 1.269 . S
C1213 O1188 1.257 . S
C1214 H1189 0.930 . S
C1214 C1217 1.388 . S
C1214 C1219 1.418 . S
C1215 H1210 0.930 . S
C1215 C1218 1.404 . S
C1215 C1219 1.353 . S
N1216 Co1181 2.145 . S
N1216 C1217 1.397 . S
N1216 C1218 1.334 . S
C1217 H1198 0.929 . S
C1217 C1214 1.388 . S
C1217 N1216 1.397 . S
C1218 H1199 0.929 . S
C1218 C1215 1.404 . S
C1218 N1216 1.334 . S
C1219 H1211 0.930 . S
C1219 C1214 1.418 . S
C1219 C1215 1.353 . S
C1220 H1190 0.930 . S
C1220 N1221 1.330 . S
C1220 C1222 1.446 . S
N1221 Co1180 2.151 . S
N1221 C1220 1.330 . S
N1221 C1225 1.418 . S
C1222 H1201 0.929 . S
C1222 C1220 1.446 . S
C1222 C1223 1.332 . S
C1223 H1203 0.931 . S
C1223 C1222 1.332 . S
C1223 C1224 1.267 . S
C1224 H1192 0.929 . S
C1224 C1223 1.267 . S
C1224 C1225 1.251 . S
C1225 H1195 0.929 . S
C1225 N1221 1.418 . S
C1225 C1224 1.251 . S
C1226 H1193 0.930 . S
C1226 C1228 1.406 . S
C1226 C1231 1.261 . S
C1227 H1194 0.930 . S
C1227 N1229 1.325 . S
C1227 C1230 1.357 . S
C1228 H1196 0.928 . S
C1228 C1226 1.406 . S
C1228 N1229 1.261 . S
N1229 Co1180 2.214 . S
N1229 C1227 1.325 . S
N1229 C1228 1.261 . S
C1230 H1200 0.931 . S
C1230 C1227 1.357 . S
C1230 C1231 1.312 . S
C1231 H1202 0.930 . S
C1231 C1226 1.261 . S
C1231 C1230 1.312 . S
C1232 O1204 1.214 . S
C1232 O1212 1.234 . S
C1233 H1205 0.929 . S
C1233 C1236 1.391 . S
C1233 C1238 1.391 . S
C1234 H1206 0.929 . S
C1234 C1235 1.390 . S
C1234 N1237 1.391 . S
C1235 H1207 0.930 . S
C1235 C1234 1.390 . S
C1235 C1236 1.392 . S
C1236 H1208 0.929 . S
C1236 C1233 1.391 . S
C1236 C1235 1.392 . S
N1237 Co1181 2.257 . S
N1237 C1234 1.391 . S
N1237 C1238 1.388 . S
C1238 H1209 0.930 . S
C1238 C1233 1.391 . S
C1238 N1237 1.388 . S
Co1239 O1241 2.143 . S
Co1239 O1247 2.074 . S
Co1239 O1250 2.093 . S
Co1239 O1263 2.097 . S
Co1239 N1280 2.151 . S
Co1239 N1288 2.214 . S
Co1240 O1241 2.160 . S
Co1240 O1246 2.058 . S
Co1240 O1256 2.057 . S
Co1240 O1271 2.037 . S
Co1240 N1275 2.145 . S
Co1240 N1296 2.257 . S
O1241 Co1239 2.143 . S
O1241 Co1240 2.160 . S
C1242 O1243 1.278 . S
C1242 O1250 1.224 . S
O1243 C1242 1.278 . S
C1244 O1245 1.245 . S
C1244 O1256 1.232 . S
O1245 C1244 1.245 . S
O1246 Co1240 2.058 . S
O1246 C1272 1.269 . S
O1247 Co1239 2.074 . S
O1247 C1272 1.257 . S
H1248 C1273 0.930 . S
H1249 C1279 0.930 . S
O1250 Co1239 2.093 . S
O1250 C1242 1.224 . S
H1251 C1283 0.929 . S
H1252 C1285 0.930 . S
H1253 C1286 0.930 . S
H1254 C1284 0.929 . S
H1255 C1287 0.928 . S
O1256 Co1240 2.057 . S
O1256 C1244 1.232 . S
H1257 C1276 0.929 . S
H1258 C1277 0.929 . S
H1259 C1289 0.931 . S
H1260 C1281 0.929 . S
H1261 C1290 0.930 . S
H1262 C1282 0.931 . S
O1263 Co1239 2.097 . S
O1263 C1291 1.214 . S
H1264 C1292 0.929 . S
H1265 C1293 0.929 . S
H1266 C1294 0.930 . S
H1267 C1295 0.929 . S
H1268 C1297 0.930 . S
H1269 C1274 0.930 . S
H1270 C1278 0.930 . S
O1271 Co1240 2.037 . S
O1271 C1291 1.234 . S
C1272 O1246 1.269 . S
C1272 O1247 1.257 . S
C1273 H1248 0.930 . S
C1273 C1276 1.388 . S
C1273 C1278 1.418 . S
C1274 H1269 0.930 . S
C1274 C1277 1.404 . S
C1274 C1278 1.353 . S
N1275 Co1240 2.145 . S
N1275 C1276 1.397 . S
N1275 C1277 1.334 . S
C1276 H1257 0.929 . S
C1276 C1273 1.388 . S
C1276 N1275 1.397 . S
C1277 H1258 0.929 . S
C1277 C1274 1.404 . S
C1277 N1275 1.334 . S
C1278 H1270 0.930 . S
C1278 C1273 1.418 . S
C1278 C1274 1.353 . S
C1279 H1249 0.930 . S
C1279 N1280 1.330 . S
C1279 C1281 1.446 . S
N1280 Co1239 2.151 . S
N1280 C1279 1.330 . S
N1280 C1284 1.418 . S
C1281 H1260 0.929 . S
C1281 C1279 1.446 . S
C1281 C1282 1.332 . S
C1282 H1262 0.931 . S
C1282 C1281 1.332 . S
C1282 C1283 1.267 . S
C1283 H1251 0.929 . S
C1283 C1282 1.267 . S
C1283 C1284 1.251 . S
C1284 H1254 0.929 . S
C1284 N1280 1.418 . S
C1284 C1283 1.251 . S
C1285 H1252 0.930 . S
C1285 C1287 1.406 . S
C1285 C1290 1.261 . S
C1286 H1253 0.930 . S
C1286 N1288 1.325 . S
C1286 C1289 1.357 . S
C1287 H1255 0.928 . S
C1287 C1285 1.406 . S
C1287 N1288 1.261 . S
N1288 Co1239 2.214 . S
N1288 C1286 1.325 . S
N1288 C1287 1.261 . S
C1289 H1259 0.931 . S
C1289 C1286 1.357 . S
C1289 C1290 1.312 . S
C1290 H1261 0.930 . S
C1290 C1285 1.261 . S
C1290 C1289 1.312 . S
C1291 O1263 1.214 . S
C1291 O1271 1.234 . S
C1292 H1264 0.929 . S
C1292 C1295 1.391 . S
C1292 C1297 1.391 . S
C1293 H1265 0.929 . S
C1293 C1294 1.390 . S
C1293 N1296 1.391 . S
C1294 H1266 0.930 . S
C1294 C1293 1.390 . S
C1294 C1295 1.392 . S
C1295 H1267 0.929 . S
C1295 C1292 1.391 . S
C1295 C1294 1.392 . S
N1296 Co1240 2.257 . S
N1296 C1293 1.391 . S
N1296 C1297 1.388 . S
C1297 H1268 0.930 . S
C1297 C1292 1.391 . S
C1297 N1296 1.388 . S
Co1298 O1300 2.143 . S
Co1298 O1306 2.074 . S
Co1298 O1309 2.093 . S
Co1298 O1322 2.097 . S
Co1298 N1339 2.151 . S
Co1298 N1347 2.214 . S
Co1299 O1300 2.160 . S
Co1299 O1305 2.058 . S
Co1299 O1315 2.057 . S
Co1299 O1330 2.037 . S
Co1299 N1334 2.145 . S
Co1299 N1355 2.257 . S
O1300 Co1298 2.143 . S
O1300 Co1299 2.160 . S
C1301 O1302 1.278 . S
C1301 O1309 1.224 . S
O1302 C1301 1.278 . S
C1303 O1304 1.245 . S
C1303 O1315 1.232 . S
O1304 C1303 1.245 . S
O1305 Co1299 2.058 . S
O1305 C1331 1.269 . S
O1306 Co1298 2.074 . S
O1306 C1331 1.257 . S
H1307 C1332 0.930 . S
H1308 C1338 0.930 . S
O1309 Co1298 2.093 . S
O1309 C1301 1.224 . S
H1310 C1342 0.929 . S
H1311 C1344 0.930 . S
H1312 C1345 0.930 . S
H1313 C1343 0.929 . S
H1314 C1346 0.928 . S
O1315 Co1299 2.057 . S
O1315 C1303 1.232 . S
H1316 C1335 0.929 . S
H1317 C1336 0.929 . S
H1318 C1348 0.931 . S
H1319 C1340 0.929 . S
H1320 C1349 0.930 . S
H1321 C1341 0.931 . S
O1322 Co1298 2.097 . S
O1322 C1350 1.214 . S
H1323 C1351 0.929 . S
H1324 C1352 0.929 . S
H1325 C1353 0.930 . S
H1326 C1354 0.929 . S
H1327 C1356 0.930 . S
H1328 C1333 0.930 . S
H1329 C1337 0.930 . S
O1330 Co1299 2.037 . S
O1330 C1350 1.234 . S
C1331 O1305 1.269 . S
C1331 O1306 1.257 . S
C1332 H1307 0.930 . S
C1332 C1335 1.388 . S
C1332 C1337 1.418 . S
C1333 H1328 0.930 . S
C1333 C1336 1.404 . S
C1333 C1337 1.353 . S
N1334 Co1299 2.145 . S
N1334 C1335 1.397 . S
N1334 C1336 1.334 . S
C1335 H1316 0.929 . S
C1335 C1332 1.388 . S
C1335 N1334 1.397 . S
C1336 H1317 0.929 . S
C1336 C1333 1.404 . S
C1336 N1334 1.334 . S
C1337 H1329 0.930 . S
C1337 C1332 1.418 . S
C1337 C1333 1.353 . S
C1338 H1308 0.930 . S
C1338 N1339 1.330 . S
C1338 C1340 1.446 . S
N1339 Co1298 2.151 . S
N1339 C1338 1.330 . S
N1339 C1343 1.418 . S
C1340 H1319 0.929 . S
C1340 C1338 1.446 . S
C1340 C1341 1.332 . S
C1341 H1321 0.931 . S
C1341 C1340 1.332 . S
C1341 C1342 1.267 . S
C1342 H1310 0.929 . S
C1342 C1341 1.267 . S
C1342 C1343 1.251 . S
C1343 H1313 0.929 . S
C1343 N1339 1.418 . S
C1343 C1342 1.251 . S
C1344 H1311 0.930 . S
C1344 C1346 1.406 . S
C1344 C1349 1.261 . S
C1345 H1312 0.930 . S
C1345 N1347 1.325 . S
C1345 C1348 1.357 . S
C1346 H1314 0.928 . S
C1346 C1344 1.406 . S
C1346 N1347 1.261 . S
N1347 Co1298 2.214 . S
N1347 C1345 1.325 . S
N1347 C1346 1.261 . S
C1348 H1318 0.931 . S
C1348 C1345 1.357 . S
C1348 C1349 1.312 . S
C1349 H1320 0.930 . S
C1349 C1344 1.261 . S
C1349 C1348 1.312 . S
C1350 O1322 1.214 . S
C1350 O1330 1.234 . S
C1351 H1323 0.929 . S
C1351 C1354 1.391 . S
C1351 C1356 1.391 . S
C1352 H1324 0.929 . S
C1352 C1353 1.390 . S
C1352 N1355 1.391 . S
C1353 H1325 0.930 . S
C1353 C1352 1.390 . S
C1353 C1354 1.392 . S
C1354 H1326 0.929 . S
C1354 C1351 1.391 . S
C1354 C1353 1.392 . S
N1355 Co1299 2.257 . S
N1355 C1352 1.391 . S
N1355 C1356 1.388 . S
C1356 H1327 0.930 . S
C1356 C1351 1.391 . S
C1356 N1355 1.388 . S
Co1357 O1359 2.143 . S
Co1357 O1365 2.074 . S
Co1357 O1368 2.093 . S
Co1357 O1381 2.097 . S
Co1357 N1398 2.151 . S
Co1357 N1406 2.214 . S
Co1358 O1359 2.160 . S
Co1358 O1364 2.058 . S
Co1358 O1374 2.057 . S
Co1358 O1389 2.037 . S
Co1358 N1393 2.145 . S
Co1358 N1414 2.257 . S
O1359 Co1357 2.143 . S
O1359 Co1358 2.160 . S
C1360 O1361 1.278 . S
C1360 O1368 1.224 . S
O1361 C1360 1.278 . S
C1362 O1363 1.245 . S
C1362 O1374 1.232 . S
O1363 C1362 1.245 . S
O1364 Co1358 2.058 . S
O1364 C1390 1.269 . S
O1365 Co1357 2.074 . S
O1365 C1390 1.257 . S
H1366 C1391 0.930 . S
H1367 C1397 0.930 . S
O1368 Co1357 2.093 . S
O1368 C1360 1.224 . S
H1369 C1401 0.929 . S
H1370 C1403 0.930 . S
H1371 C1404 0.930 . S
H1372 C1402 0.929 . S
H1373 C1405 0.928 . S
O1374 Co1358 2.057 . S
O1374 C1362 1.232 . S
H1375 C1394 0.929 . S
H1376 C1395 0.929 . S
H1377 C1407 0.931 . S
H1378 C1399 0.929 . S
H1379 C1408 0.930 . S
H1380 C1400 0.931 . S
O1381 Co1357 2.097 . S
O1381 C1409 1.214 . S
H1382 C1410 0.929 . S
H1383 C1411 0.929 . S
H1384 C1412 0.930 . S
H1385 C1413 0.929 . S
H1386 C1415 0.930 . S
H1387 C1392 0.930 . S
H1388 C1396 0.930 . S
O1389 Co1358 2.037 . S
O1389 C1409 1.234 . S
C1390 O1364 1.269 . S
C1390 O1365 1.257 . S
C1391 H1366 0.930 . S
C1391 C1394 1.388 . S
C1391 C1396 1.418 . S
C1392 H1387 0.930 . S
C1392 C1395 1.404 . S
C1392 C1396 1.353 . S
N1393 Co1358 2.145 . S
N1393 C1394 1.397 . S
N1393 C1395 1.334 . S
C1394 H1375 0.929 . S
C1394 C1391 1.388 . S
C1394 N1393 1.397 . S
C1395 H1376 0.929 . S
C1395 C1392 1.404 . S
C1395 N1393 1.334 . S
C1396 H1388 0.930 . S
C1396 C1391 1.418 . S
C1396 C1392 1.353 . S
C1397 H1367 0.930 . S
C1397 N1398 1.330 . S
C1397 C1399 1.446 . S
N1398 Co1357 2.151 . S
N1398 C1397 1.330 . S
N1398 C1402 1.418 . S
C1399 H1378 0.929 . S
C1399 C1397 1.446 . S
C1399 C1400 1.332 . S
C1400 H1380 0.931 . S
C1400 C1399 1.332 . S
C1400 C1401 1.267 . S
C1401 H1369 0.929 . S
C1401 C1400 1.267 . S
C1401 C1402 1.251 . S
C1402 H1372 0.929 . S
C1402 N1398 1.418 . S
C1402 C1401 1.251 . S
C1403 H1370 0.930 . S
C1403 C1405 1.406 . S
C1403 C1408 1.261 . S
C1404 H1371 0.930 . S
C1404 N1406 1.325 . S
C1404 C1407 1.357 . S
C1405 H1373 0.928 . S
C1405 C1403 1.406 . S
C1405 N1406 1.261 . S
N1406 Co1357 2.214 . S
N1406 C1404 1.325 . S
N1406 C1405 1.261 . S
C1407 H1377 0.931 . S
C1407 C1404 1.357 . S
C1407 C1408 1.312 . S
C1408 H1379 0.930 . S
C1408 C1403 1.261 . S
C1408 C1407 1.312 . S
C1409 O1381 1.214 . S
C1409 O1389 1.234 . S
C1410 H1382 0.929 . S
C1410 C1413 1.391 . S
C1410 C1415 1.391 . S
C1411 H1383 0.929 . S
C1411 C1412 1.390 . S
C1411 N1414 1.391 . S
C1412 H1384 0.930 . S
C1412 C1411 1.390 . S
C1412 C1413 1.392 . S
C1413 H1385 0.929 . S
C1413 C1410 1.391 . S
C1413 C1412 1.392 . S
N1414 Co1358 2.257 . S
N1414 C1411 1.391 . S
N1414 C1415 1.388 . S
C1415 H1386 0.930 . S
C1415 C1410 1.391 . S
C1415 N1414 1.388 . S
Co1416 O1418 2.143 . S
Co1416 O1424 2.074 . S
Co1416 O1427 2.093 . S
Co1416 O1440 2.097 . S
Co1416 N1457 2.151 . S
Co1416 N1465 2.214 . S
Co1417 O1418 2.160 . S
Co1417 O1423 2.058 . S
Co1417 O1433 2.057 . S
Co1417 O1448 2.037 . S
Co1417 N1452 2.145 . S
Co1417 N1473 2.257 . S
O1418 Co1416 2.143 . S
O1418 Co1417 2.160 . S
C1419 O1420 1.278 . S
C1419 O1427 1.224 . S
O1420 C1419 1.278 . S
C1421 O1422 1.245 . S
C1421 O1433 1.232 . S
O1422 C1421 1.245 . S
O1423 Co1417 2.058 . S
O1423 C1449 1.269 . S
O1424 Co1416 2.074 . S
O1424 C1449 1.257 . S
H1425 C1450 0.930 . S
H1426 C1456 0.930 . S
O1427 Co1416 2.093 . S
O1427 C1419 1.224 . S
H1428 C1460 0.929 . S
H1429 C1462 0.930 . S
H1430 C1463 0.930 . S
H1431 C1461 0.929 . S
H1432 C1464 0.928 . S
O1433 Co1417 2.057 . S
O1433 C1421 1.232 . S
H1434 C1453 0.929 . S
H1435 C1454 0.929 . S
H1436 C1466 0.931 . S
H1437 C1458 0.929 . S
H1438 C1467 0.930 . S
H1439 C1459 0.931 . S
O1440 Co1416 2.097 . S
O1440 C1468 1.214 . S
H1441 C1469 0.929 . S
H1442 C1470 0.929 . S
H1443 C1471 0.930 . S
H1444 C1472 0.929 . S
H1445 C1474 0.930 . S
H1446 C1451 0.930 . S
H1447 C1455 0.930 . S
O1448 Co1417 2.037 . S
O1448 C1468 1.234 . S
C1449 O1423 1.269 . S
C1449 O1424 1.257 . S
C1450 H1425 0.930 . S
C1450 C1453 1.388 . S
C1450 C1455 1.418 . S
C1451 H1446 0.930 . S
C1451 C1454 1.404 . S
C1451 C1455 1.353 . S
N1452 Co1417 2.145 . S
N1452 C1453 1.397 . S
N1452 C1454 1.334 . S
C1453 H1434 0.929 . S
C1453 C1450 1.388 . S
C1453 N1452 1.397 . S
C1454 H1435 0.929 . S
C1454 C1451 1.404 . S
C1454 N1452 1.334 . S
C1455 H1447 0.930 . S
C1455 C1450 1.418 . S
C1455 C1451 1.353 . S
C1456 H1426 0.930 . S
C1456 N1457 1.330 . S
C1456 C1458 1.446 . S
N1457 Co1416 2.151 . S
N1457 C1456 1.330 . S
N1457 C1461 1.418 . S
C1458 H1437 0.929 . S
C1458 C1456 1.446 . S
C1458 C1459 1.332 . S
C1459 H1439 0.931 . S
C1459 C1458 1.332 . S
C1459 C1460 1.267 . S
C1460 H1428 0.929 . S
C1460 C1459 1.267 . S
C1460 C1461 1.251 . S
C1461 H1431 0.929 . S
C1461 N1457 1.418 . S
C1461 C1460 1.251 . S
C1462 H1429 0.930 . S
C1462 C1464 1.406 . S
C1462 C1467 1.261 . S
C1463 H1430 0.930 . S
C1463 N1465 1.325 . S
C1463 C1466 1.357 . S
C1464 H1432 0.928 . S
C1464 C1462 1.406 . S
C1464 N1465 1.261 . S
N1465 Co1416 2.214 . S
N1465 C1463 1.325 . S
N1465 C1464 1.261 . S
C1466 H1436 0.931 . S
C1466 C1463 1.357 . S
C1466 C1467 1.312 . S
C1467 H1438 0.930 . S
C1467 C1462 1.261 . S
C1467 C1466 1.312 . S
C1468 O1440 1.214 . S
C1468 O1448 1.234 . S
C1469 H1441 0.929 . S
C1469 C1472 1.391 . S
C1469 C1474 1.391 . S
C1470 H1442 0.929 . S
C1470 C1471 1.390 . S
C1470 N1473 1.391 . S
C1471 H1443 0.930 . S
C1471 C1470 1.390 . S
C1471 C1472 1.392 . S
C1472 H1444 0.929 . S
C1472 C1469 1.391 . S
C1472 C1471 1.392 . S
N1473 Co1417 2.257 . S
N1473 C1470 1.391 . S
N1473 C1474 1.388 . S
C1474 H1445 0.930 . S
C1474 C1469 1.391 . S
C1474 N1473 1.388 . S
Co1475 O1477 2.143 . S
Co1475 O1483 2.074 . S
Co1475 O1486 2.093 . S
Co1475 O1499 2.097 . S
Co1475 N1516 2.151 . S
Co1475 N1524 2.214 . S
Co1476 O1477 2.160 . S
Co1476 O1482 2.058 . S
Co1476 O1492 2.057 . S
Co1476 O1507 2.037 . S
Co1476 N1511 2.145 . S
Co1476 N1532 2.257 . S
O1477 Co1475 2.143 . S
O1477 Co1476 2.160 . S
C1478 O1479 1.278 . S
C1478 O1486 1.224 . S
O1479 C1478 1.278 . S
C1480 O1481 1.245 . S
C1480 O1492 1.232 . S
O1481 C1480 1.245 . S
O1482 Co1476 2.058 . S
O1482 C1508 1.269 . S
O1483 Co1475 2.074 . S
O1483 C1508 1.257 . S
H1484 C1509 0.930 . S
H1485 C1515 0.930 . S
O1486 Co1475 2.093 . S
O1486 C1478 1.224 . S
H1487 C1519 0.929 . S
H1488 C1521 0.930 . S
H1489 C1522 0.930 . S
H1490 C1520 0.929 . S
H1491 C1523 0.928 . S
O1492 Co1476 2.057 . S
O1492 C1480 1.232 . S
H1493 C1512 0.929 . S
H1494 C1513 0.929 . S
H1495 C1525 0.931 . S
H1496 C1517 0.929 . S
H1497 C1526 0.930 . S
H1498 C1518 0.931 . S
O1499 Co1475 2.097 . S
O1499 C1527 1.214 . S
H1500 C1528 0.929 . S
H1501 C1529 0.929 . S
H1502 C1530 0.930 . S
H1503 C1531 0.929 . S
H1504 C1533 0.930 . S
H1505 C1510 0.930 . S
H1506 C1514 0.930 . S
O1507 Co1476 2.037 . S
O1507 C1527 1.234 . S
C1508 O1482 1.269 . S
C1508 O1483 1.257 . S
C1509 H1484 0.930 . S
C1509 C1512 1.388 . S
C1509 C1514 1.418 . S
C1510 H1505 0.930 . S
C1510 C1513 1.404 . S
C1510 C1514 1.353 . S
N1511 Co1476 2.145 . S
N1511 C1512 1.397 . S
N1511 C1513 1.334 . S
C1512 H1493 0.929 . S
C1512 C1509 1.388 . S
C1512 N1511 1.397 . S
C1513 H1494 0.929 . S
C1513 C1510 1.404 . S
C1513 N1511 1.334 . S
C1514 H1506 0.930 . S
C1514 C1509 1.418 . S
C1514 C1510 1.353 . S
C1515 H1485 0.930 . S
C1515 N1516 1.330 . S
C1515 C1517 1.446 . S
N1516 Co1475 2.151 . S
N1516 C1515 1.330 . S
N1516 C1520 1.418 . S
C1517 H1496 0.929 . S
C1517 C1515 1.446 . S
C1517 C1518 1.332 . S
C1518 H1498 0.931 . S
C1518 C1517 1.332 . S
C1518 C1519 1.267 . S
C1519 H1487 0.929 . S
C1519 C1518 1.267 . S
C1519 C1520 1.251 . S
C1520 H1490 0.929 . S
C1520 N1516 1.418 . S
C1520 C1519 1.251 . S
C1521 H1488 0.930 . S
C1521 C1523 1.406 . S
C1521 C1526 1.261 . S
C1522 H1489 0.930 . S
C1522 N1524 1.325 . S
C1522 C1525 1.357 . S
C1523 H1491 0.928 . S
C1523 C1521 1.406 . S
C1523 N1524 1.261 . S
N1524 Co1475 2.214 . S
N1524 C1522 1.325 . S
N1524 C1523 1.261 . S
C1525 H1495 0.931 . S
C1525 C1522 1.357 . S
C1525 C1526 1.312 . S
C1526 H1497 0.930 . S
C1526 C1521 1.261 . S
C1526 C1525 1.312 . S
C1527 O1499 1.214 . S
C1527 O1507 1.234 . S
C1528 H1500 0.929 . S
C1528 C1531 1.391 . S
C1528 C1533 1.391 . S
C1529 H1501 0.929 . S
C1529 C1530 1.390 . S
C1529 N1532 1.391 . S
C1530 H1502 0.930 . S
C1530 C1529 1.390 . S
C1530 C1531 1.392 . S
C1531 H1503 0.929 . S
C1531 C1528 1.391 . S
C1531 C1530 1.392 . S
N1532 Co1476 2.257 . S
N1532 C1529 1.391 . S
N1532 C1533 1.388 . S
C1533 H1504 0.930 . S
C1533 C1528 1.391 . S
C1533 N1532 1.388 . S
Co1534 O1536 2.143 . S
Co1534 O1542 2.074 . S
Co1534 O1545 2.093 . S
Co1534 O1558 2.097 . S
Co1534 N1575 2.151 . S
Co1534 N1583 2.214 . S
Co1535 O1536 2.160 . S
Co1535 O1541 2.058 . S
Co1535 O1551 2.057 . S
Co1535 O1566 2.037 . S
Co1535 N1570 2.145 . S
Co1535 N1591 2.257 . S
O1536 Co1534 2.143 . S
O1536 Co1535 2.160 . S
C1537 O1538 1.278 . S
C1537 O1545 1.224 . S
O1538 C1537 1.278 . S
C1539 O1540 1.245 . S
C1539 O1551 1.232 . S
O1540 C1539 1.245 . S
O1541 Co1535 2.058 . S
O1541 C1567 1.269 . S
O1542 Co1534 2.074 . S
O1542 C1567 1.257 . S
H1543 C1568 0.930 . S
H1544 C1574 0.930 . S
O1545 Co1534 2.093 . S
O1545 C1537 1.224 . S
H1546 C1578 0.929 . S
H1547 C1580 0.930 . S
H1548 C1581 0.930 . S
H1549 C1579 0.929 . S
H1550 C1582 0.928 . S
O1551 Co1535 2.057 . S
O1551 C1539 1.232 . S
H1552 C1571 0.929 . S
H1553 C1572 0.929 . S
H1554 C1584 0.931 . S
H1555 C1576 0.929 . S
H1556 C1585 0.930 . S
H1557 C1577 0.931 . S
O1558 Co1534 2.097 . S
O1558 C1586 1.214 . S
H1559 C1587 0.929 . S
H1560 C1588 0.929 . S
H1561 C1589 0.930 . S
H1562 C1590 0.929 . S
H1563 C1592 0.930 . S
H1564 C1569 0.930 . S
H1565 C1573 0.930 . S
O1566 Co1535 2.037 . S
O1566 C1586 1.234 . S
C1567 O1541 1.269 . S
C1567 O1542 1.257 . S
C1568 H1543 0.930 . S
C1568 C1571 1.388 . S
C1568 C1573 1.418 . S
C1569 H1564 0.930 . S
C1569 C1572 1.404 . S
C1569 C1573 1.353 . S
N1570 Co1535 2.145 . S
N1570 C1571 1.397 . S
N1570 C1572 1.334 . S
C1571 H1552 0.929 . S
C1571 C1568 1.388 . S
C1571 N1570 1.397 . S
C1572 H1553 0.929 . S
C1572 C1569 1.404 . S
C1572 N1570 1.334 . S
C1573 H1565 0.930 . S
C1573 C1568 1.418 . S
C1573 C1569 1.353 . S
C1574 H1544 0.930 . S
C1574 N1575 1.330 . S
C1574 C1576 1.446 . S
N1575 Co1534 2.151 . S
N1575 C1574 1.330 . S
N1575 C1579 1.418 . S
C1576 H1555 0.929 . S
C1576 C1574 1.446 . S
C1576 C1577 1.332 . S
C1577 H1557 0.931 . S
C1577 C1576 1.332 . S
C1577 C1578 1.267 . S
C1578 H1546 0.929 . S
C1578 C1577 1.267 . S
C1578 C1579 1.251 . S
C1579 H1549 0.929 . S
C1579 N1575 1.418 . S
C1579 C1578 1.251 . S
C1580 H1547 0.930 . S
C1580 C1582 1.406 . S
C1580 C1585 1.261 . S
C1581 H1548 0.930 . S
C1581 N1583 1.325 . S
C1581 C1584 1.357 . S
C1582 H1550 0.928 . S
C1582 C1580 1.406 . S
C1582 N1583 1.261 . S
N1583 Co1534 2.214 . S
N1583 C1581 1.325 . S
N1583 C1582 1.261 . S
C1584 H1554 0.931 . S
C1584 C1581 1.357 . S
C1584 C1585 1.312 . S
C1585 H1556 0.930 . S
C1585 C1580 1.261 . S
C1585 C1584 1.312 . S
C1586 O1558 1.214 . S
C1586 O1566 1.234 . S
C1587 H1559 0.929 . S
C1587 C1590 1.391 . S
C1587 C1592 1.391 . S
C1588 H1560 0.929 . S
C1588 C1589 1.390 . S
C1588 N1591 1.391 . S
C1589 H1561 0.930 . S
C1589 C1588 1.390 . S
C1589 C1590 1.392 . S
C1590 H1562 0.929 . S
C1590 C1587 1.391 . S
C1590 C1589 1.392 . S
N1591 Co1535 2.257 . S
N1591 C1588 1.391 . S
N1591 C1592 1.388 . S
C1592 H1563 0.930 . S
C1592 C1587 1.391 . S
C1592 N1591 1.388 . S
Co1593 O1595 2.143 . S
Co1593 O1601 2.074 . S
Co1593 O1604 2.093 . S
Co1593 O1617 2.097 . S
Co1593 N1634 2.151 . S
Co1593 N1642 2.214 . S
Co1594 O1595 2.160 . S
Co1594 O1600 2.058 . S
Co1594 O1610 2.057 . S
Co1594 O1625 2.037 . S
Co1594 N1629 2.145 . S
Co1594 N1650 2.257 . S
O1595 Co1593 2.143 . S
O1595 Co1594 2.160 . S
C1596 O1597 1.278 . S
C1596 O1604 1.224 . S
O1597 C1596 1.278 . S
C1598 O1599 1.245 . S
C1598 O1610 1.232 . S
O1599 C1598 1.245 . S
O1600 Co1594 2.058 . S
O1600 C1626 1.269 . S
O1601 Co1593 2.074 . S
O1601 C1626 1.257 . S
H1602 C1627 0.930 . S
H1603 C1633 0.930 . S
O1604 Co1593 2.093 . S
O1604 C1596 1.224 . S
H1605 C1637 0.929 . S
H1606 C1639 0.930 . S
H1607 C1640 0.930 . S
H1608 C1638 0.929 . S
H1609 C1641 0.928 . S
O1610 Co1594 2.057 . S
O1610 C1598 1.232 . S
H1611 C1630 0.929 . S
H1612 C1631 0.929 . S
H1613 C1643 0.931 . S
H1614 C1635 0.929 . S
H1615 C1644 0.930 . S
H1616 C1636 0.931 . S
O1617 Co1593 2.097 . S
O1617 C1645 1.214 . S
H1618 C1646 0.929 . S
H1619 C1647 0.929 . S
H1620 C1648 0.930 . S
H1621 C1649 0.929 . S
H1622 C1651 0.930 . S
H1623 C1628 0.930 . S
H1624 C1632 0.930 . S
O1625 Co1594 2.037 . S
O1625 C1645 1.234 . S
C1626 O1600 1.269 . S
C1626 O1601 1.257 . S
C1627 H1602 0.930 . S
C1627 C1630 1.388 . S
C1627 C1632 1.418 . S
C1628 H1623 0.930 . S
C1628 C1631 1.404 . S
C1628 C1632 1.353 . S
N1629 Co1594 2.145 . S
N1629 C1630 1.397 . S
N1629 C1631 1.334 . S
C1630 H1611 0.929 . S
C1630 C1627 1.388 . S
C1630 N1629 1.397 . S
C1631 H1612 0.929 . S
C1631 C1628 1.404 . S
C1631 N1629 1.334 . S
C1632 H1624 0.930 . S
C1632 C1627 1.418 . S
C1632 C1628 1.353 . S
C1633 H1603 0.930 . S
C1633 N1634 1.330 . S
C1633 C1635 1.446 . S
N1634 Co1593 2.151 . S
N1634 C1633 1.330 . S
N1634 C1638 1.418 . S
C1635 H1614 0.929 . S
C1635 C1633 1.446 . S
C1635 C1636 1.332 . S
C1636 H1616 0.931 . S
C1636 C1635 1.332 . S
C1636 C1637 1.267 . S
C1637 H1605 0.929 . S
C1637 C1636 1.267 . S
C1637 C1638 1.251 . S
C1638 H1608 0.929 . S
C1638 N1634 1.418 . S
C1638 C1637 1.251 . S
C1639 H1606 0.930 . S
C1639 C1641 1.406 . S
C1639 C1644 1.261 . S
C1640 H1607 0.930 . S
C1640 N1642 1.325 . S
C1640 C1643 1.357 . S
C1641 H1609 0.928 . S
C1641 C1639 1.406 . S
C1641 N1642 1.261 . S
N1642 Co1593 2.214 . S
N1642 C1640 1.325 . S
N1642 C1641 1.261 . S
C1643 H1613 0.931 . S
C1643 C1640 1.357 . S
C1643 C1644 1.312 . S
C1644 H1615 0.930 . S
C1644 C1639 1.261 . S
C1644 C1643 1.312 . S
C1645 O1617 1.214 . S
C1645 O1625 1.234 . S
C1646 H1618 0.929 . S
C1646 C1649 1.391 . S
C1646 C1651 1.391 . S
C1647 H1619 0.929 . S
C1647 C1648 1.390 . S
C1647 N1650 1.391 . S
C1648 H1620 0.930 . S
C1648 C1647 1.390 . S
C1648 C1649 1.392 . S
C1649 H1621 0.929 . S
C1649 C1646 1.391 . S
C1649 C1648 1.392 . S
N1650 Co1594 2.257 . S
N1650 C1647 1.391 . S
N1650 C1651 1.388 . S
C1651 H1622 0.930 . S
C1651 C1646 1.391 . S
C1651 N1650 1.388 . S
Co1652 O1654 2.143 . S
Co1652 O1660 2.074 . S
Co1652 O1663 2.093 . S
Co1652 O1676 2.097 . S
Co1652 N1693 2.151 . S
Co1652 N1701 2.214 . S
Co1653 O1654 2.160 . S
Co1653 O1659 2.058 . S
Co1653 O1669 2.057 . S
Co1653 O1684 2.037 . S
Co1653 N1688 2.145 . S
Co1653 N1709 2.257 . S
O1654 Co1652 2.143 . S
O1654 Co1653 2.160 . S
C1655 O1656 1.278 . S
C1655 O1663 1.224 . S
O1656 C1655 1.278 . S
C1657 O1658 1.245 . S
C1657 O1669 1.232 . S
O1658 C1657 1.245 . S
O1659 Co1653 2.058 . S
O1659 C1685 1.269 . S
O1660 Co1652 2.074 . S
O1660 C1685 1.257 . S
H1661 C1686 0.930 . S
H1662 C1692 0.930 . S
O1663 Co1652 2.093 . S
O1663 C1655 1.224 . S
H1664 C1696 0.929 . S
H1665 C1698 0.930 . S
H1666 C1699 0.930 . S
H1667 C1697 0.929 . S
H1668 C1700 0.928 . S
O1669 Co1653 2.057 . S
O1669 C1657 1.232 . S
H1670 C1689 0.929 . S
H1671 C1690 0.929 . S
H1672 C1702 0.931 . S
H1673 C1694 0.929 . S
H1674 C1703 0.930 . S
H1675 C1695 0.931 . S
O1676 Co1652 2.097 . S
O1676 C1704 1.214 . S
H1677 C1705 0.929 . S
H1678 C1706 0.929 . S
H1679 C1707 0.930 . S
H1680 C1708 0.929 . S
H1681 C1710 0.930 . S
H1682 C1687 0.930 . S
H1683 C1691 0.930 . S
O1684 Co1653 2.037 . S
O1684 C1704 1.234 . S
C1685 O1659 1.269 . S
C1685 O1660 1.257 . S
C1686 H1661 0.930 . S
C1686 C1689 1.388 . S
C1686 C1691 1.418 . S
C1687 H1682 0.930 . S
C1687 C1690 1.404 . S
C1687 C1691 1.353 . S
N1688 Co1653 2.145 . S
N1688 C1689 1.397 . S
N1688 C1690 1.334 . S
C1689 H1670 0.929 . S
C1689 C1686 1.388 . S
C1689 N1688 1.397 . S
C1690 H1671 0.929 . S
C1690 C1687 1.404 . S
C1690 N1688 1.334 . S
C1691 H1683 0.930 . S
C1691 C1686 1.418 . S
C1691 C1687 1.353 . S
C1692 H1662 0.930 . S
C1692 N1693 1.330 . S
C1692 C1694 1.446 . S
N1693 Co1652 2.151 . S
N1693 C1692 1.330 . S
N1693 C1697 1.418 . S
C1694 H1673 0.929 . S
C1694 C1692 1.446 . S
C1694 C1695 1.332 . S
C1695 H1675 0.931 . S
C1695 C1694 1.332 . S
C1695 C1696 1.267 . S
C1696 H1664 0.929 . S
C1696 C1695 1.267 . S
C1696 C1697 1.251 . S
C1697 H1667 0.929 . S
C1697 N1693 1.418 . S
C1697 C1696 1.251 . S
C1698 H1665 0.930 . S
C1698 C1700 1.406 . S
C1698 C1703 1.261 . S
C1699 H1666 0.930 . S
C1699 N1701 1.325 . S
C1699 C1702 1.357 . S
C1700 H1668 0.928 . S
C1700 C1698 1.406 . S
C1700 N1701 1.261 . S
N1701 Co1652 2.214 . S
N1701 C1699 1.325 . S
N1701 C1700 1.261 . S
C1702 H1672 0.931 . S
C1702 C1699 1.357 . S
C1702 C1703 1.312 . S
C1703 H1674 0.930 . S
C1703 C1698 1.261 . S
C1703 C1702 1.312 . S
C1704 O1676 1.214 . S
C1704 O1684 1.234 . S
C1705 H1677 0.929 . S
C1705 C1708 1.391 . S
C1705 C1710 1.391 . S
C1706 H1678 0.929 . S
C1706 C1707 1.390 . S
C1706 N1709 1.391 . S
C1707 H1679 0.930 . S
C1707 C1706 1.390 . S
C1707 C1708 1.392 . S
C1708 H1680 0.929 . S
C1708 C1705 1.391 . S
C1708 C1707 1.392 . S
N1709 Co1653 2.257 . S
N1709 C1706 1.391 . S
N1709 C1710 1.388 . S
C1710 H1681 0.930 . S
C1710 C1705 1.391 . S
C1710 N1709 1.388 . S
Co1711 O1713 2.143 . S
Co1711 O1719 2.074 . S
Co1711 O1722 2.093 . S
Co1711 O1735 2.097 . S
Co1711 N1752 2.151 . S
Co1711 N1760 2.214 . S
Co1712 O1713 2.160 . S
Co1712 O1718 2.058 . S
Co1712 O1728 2.057 . S
Co1712 O1743 2.037 . S
Co1712 N1747 2.145 . S
Co1712 N1768 2.257 . S
O1713 Co1711 2.143 . S
O1713 Co1712 2.160 . S
C1714 O1715 1.278 . S
C1714 O1722 1.224 . S
O1715 C1714 1.278 . S
C1716 O1717 1.245 . S
C1716 O1728 1.232 . S
O1717 C1716 1.245 . S
O1718 Co1712 2.058 . S
O1718 C1744 1.269 . S
O1719 Co1711 2.074 . S
O1719 C1744 1.257 . S
H1720 C1745 0.930 . S
H1721 C1751 0.930 . S
O1722 Co1711 2.093 . S
O1722 C1714 1.224 . S
H1723 C1755 0.929 . S
H1724 C1757 0.930 . S
H1725 C1758 0.930 . S
H1726 C1756 0.929 . S
H1727 C1759 0.928 . S
O1728 Co1712 2.057 . S
O1728 C1716 1.232 . S
H1729 C1748 0.929 . S
H1730 C1749 0.929 . S
H1731 C1761 0.931 . S
H1732 C1753 0.929 . S
H1733 C1762 0.930 . S
H1734 C1754 0.931 . S
O1735 Co1711 2.097 . S
O1735 C1763 1.214 . S
H1736 C1764 0.929 . S
H1737 C1765 0.929 . S
H1738 C1766 0.930 . S
H1739 C1767 0.929 . S
H1740 C1769 0.930 . S
H1741 C1746 0.930 . S
H1742 C1750 0.930 . S
O1743 Co1712 2.037 . S
O1743 C1763 1.234 . S
C1744 O1718 1.269 . S
C1744 O1719 1.257 . S
C1745 H1720 0.930 . S
C1745 C1748 1.388 . S
C1745 C1750 1.418 . S
C1746 H1741 0.930 . S
C1746 C1749 1.404 . S
C1746 C1750 1.353 . S
N1747 Co1712 2.145 . S
N1747 C1748 1.397 . S
N1747 C1749 1.334 . S
C1748 H1729 0.929 . S
C1748 C1745 1.388 . S
C1748 N1747 1.397 . S
C1749 H1730 0.929 . S
C1749 C1746 1.404 . S
C1749 N1747 1.334 . S
C1750 H1742 0.930 . S
C1750 C1745 1.418 . S
C1750 C1746 1.353 . S
C1751 H1721 0.930 . S
C1751 N1752 1.330 . S
C1751 C1753 1.446 . S
N1752 Co1711 2.151 . S
N1752 C1751 1.330 . S
N1752 C1756 1.418 . S
C1753 H1732 0.929 . S
C1753 C1751 1.446 . S
C1753 C1754 1.332 . S
C1754 H1734 0.931 . S
C1754 C1753 1.332 . S
C1754 C1755 1.267 . S
C1755 H1723 0.929 . S
C1755 C1754 1.267 . S
C1755 C1756 1.251 . S
C1756 H1726 0.929 . S
C1756 N1752 1.418 . S
C1756 C1755 1.251 . S
C1757 H1724 0.930 . S
C1757 C1759 1.406 . S
C1757 C1762 1.261 . S
C1758 H1725 0.930 . S
C1758 N1760 1.325 . S
C1758 C1761 1.357 . S
C1759 H1727 0.928 . S
C1759 C1757 1.406 . S
C1759 N1760 1.261 . S
N1760 Co1711 2.214 . S
N1760 C1758 1.325 . S
N1760 C1759 1.261 . S
C1761 H1731 0.931 . S
C1761 C1758 1.357 . S
C1761 C1762 1.312 . S
C1762 H1733 0.930 . S
C1762 C1757 1.261 . S
C1762 C1761 1.312 . S
C1763 O1735 1.214 . S
C1763 O1743 1.234 . S
C1764 H1736 0.929 . S
C1764 C1767 1.391 . S
C1764 C1769 1.391 . S
C1765 H1737 0.929 . S
C1765 C1766 1.390 . S
C1765 N1768 1.391 . S
C1766 H1738 0.930 . S
C1766 C1765 1.390 . S
C1766 C1767 1.392 . S
C1767 H1739 0.929 . S
C1767 C1764 1.391 . S
C1767 C1766 1.392 . S
N1768 Co1712 2.257 . S
N1768 C1765 1.391 . S
N1768 C1769 1.388 . S
C1769 H1740 0.930 . S
C1769 C1764 1.391 . S
C1769 N1768 1.388 . S
Co1770 O1772 2.143 . S
Co1770 O1778 2.074 . S
Co1770 O1781 2.093 . S
Co1770 O1794 2.097 . S
Co1770 N1811 2.151 . S
Co1770 N1819 2.214 . S
Co1771 O1772 2.160 . S
Co1771 O1777 2.058 . S
Co1771 O1787 2.057 . S
Co1771 O1802 2.037 . S
Co1771 N1806 2.145 . S
Co1771 N1827 2.257 . S
O1772 Co1770 2.143 . S
O1772 Co1771 2.160 . S
C1773 O1774 1.278 . S
C1773 O1781 1.224 . S
O1774 C1773 1.278 . S
C1775 O1776 1.245 . S
C1775 O1787 1.232 . S
O1776 C1775 1.245 . S
O1777 Co1771 2.058 . S
O1777 C1803 1.269 . S
O1778 Co1770 2.074 . S
O1778 C1803 1.257 . S
H1779 C1804 0.930 . S
H1780 C1810 0.930 . S
O1781 Co1770 2.093 . S
O1781 C1773 1.224 . S
H1782 C1814 0.929 . S
H1783 C1816 0.930 . S
H1784 C1817 0.930 . S
H1785 C1815 0.929 . S
H1786 C1818 0.928 . S
O1787 Co1771 2.057 . S
O1787 C1775 1.232 . S
H1788 C1807 0.929 . S
H1789 C1808 0.929 . S
H1790 C1820 0.931 . S
H1791 C1812 0.929 . S
H1792 C1821 0.930 . S
H1793 C1813 0.931 . S
O1794 Co1770 2.097 . S
O1794 C1822 1.214 . S
H1795 C1823 0.929 . S
H1796 C1824 0.929 . S
H1797 C1825 0.930 . S
H1798 C1826 0.929 . S
H1799 C1828 0.930 . S
H1800 C1805 0.930 . S
H1801 C1809 0.930 . S
O1802 Co1771 2.037 . S
O1802 C1822 1.234 . S
C1803 O1777 1.269 . S
C1803 O1778 1.257 . S
C1804 H1779 0.930 . S
C1804 C1807 1.388 . S
C1804 C1809 1.418 . S
C1805 H1800 0.930 . S
C1805 C1808 1.404 . S
C1805 C1809 1.353 . S
N1806 Co1771 2.145 . S
N1806 C1807 1.397 . S
N1806 C1808 1.334 . S
C1807 H1788 0.929 . S
C1807 C1804 1.388 . S
C1807 N1806 1.397 . S
C1808 H1789 0.929 . S
C1808 C1805 1.404 . S
C1808 N1806 1.334 . S
C1809 H1801 0.930 . S
C1809 C1804 1.418 . S
C1809 C1805 1.353 . S
C1810 H1780 0.930 . S
C1810 N1811 1.330 . S
C1810 C1812 1.446 . S
N1811 Co1770 2.151 . S
N1811 C1810 1.330 . S
N1811 C1815 1.418 . S
C1812 H1791 0.929 . S
C1812 C1810 1.446 . S
C1812 C1813 1.332 . S
C1813 H1793 0.931 . S
C1813 C1812 1.332 . S
C1813 C1814 1.267 . S
C1814 H1782 0.929 . S
C1814 C1813 1.267 . S
C1814 C1815 1.251 . S
C1815 H1785 0.929 . S
C1815 N1811 1.418 . S
C1815 C1814 1.251 . S
C1816 H1783 0.930 . S
C1816 C1818 1.406 . S
C1816 C1821 1.261 . S
C1817 H1784 0.930 . S
C1817 N1819 1.325 . S
C1817 C1820 1.357 . S
C1818 H1786 0.928 . S
C1818 C1816 1.406 . S
C1818 N1819 1.261 . S
N1819 Co1770 2.214 . S
N1819 C1817 1.325 . S
N1819 C1818 1.261 . S
C1820 H1790 0.931 . S
C1820 C1817 1.357 . S
C1820 C1821 1.312 . S
C1821 H1792 0.930 . S
C1821 C1816 1.261 . S
C1821 C1820 1.312 . S
C1822 O1794 1.214 . S
C1822 O1802 1.234 . S
C1823 H1795 0.929 . S
C1823 C1826 1.391 . S
C1823 C1828 1.391 . S
C1824 H1796 0.929 . S
C1824 C1825 1.390 . S
C1824 N1827 1.391 . S
C1825 H1797 0.930 . S
C1825 C1824 1.390 . S
C1825 C1826 1.392 . S
C1826 H1798 0.929 . S
C1826 C1823 1.391 . S
C1826 C1825 1.392 . S
N1827 Co1771 2.257 . S
N1827 C1824 1.391 . S
N1827 C1828 1.388 . S
C1828 H1799 0.930 . S
C1828 C1823 1.391 . S
C1828 N1827 1.388 . S
Co1829 O1831 2.143 . S
Co1829 O1837 2.074 . S
Co1829 O1840 2.093 . S
Co1829 O1853 2.097 . S
Co1829 N1870 2.151 . S
Co1829 N1878 2.214 . S
Co1830 O1831 2.160 . S
Co1830 O1836 2.058 . S
Co1830 O1846 2.057 . S
Co1830 O1861 2.037 . S
Co1830 N1865 2.145 . S
Co1830 N1886 2.257 . S
O1831 Co1829 2.143 . S
O1831 Co1830 2.160 . S
C1832 O1833 1.278 . S
C1832 O1840 1.224 . S
O1833 C1832 1.278 . S
C1834 O1835 1.245 . S
C1834 O1846 1.232 . S
O1835 C1834 1.245 . S
O1836 Co1830 2.058 . S
O1836 C1862 1.269 . S
O1837 Co1829 2.074 . S
O1837 C1862 1.257 . S
H1838 C1863 0.930 . S
H1839 C1869 0.930 . S
O1840 Co1829 2.093 . S
O1840 C1832 1.224 . S
H1841 C1873 0.929 . S
H1842 C1875 0.930 . S
H1843 C1876 0.930 . S
H1844 C1874 0.929 . S
H1845 C1877 0.928 . S
O1846 Co1830 2.057 . S
O1846 C1834 1.232 . S
H1847 C1866 0.929 . S
H1848 C1867 0.929 . S
H1849 C1879 0.931 . S
H1850 C1871 0.929 . S
H1851 C1880 0.930 . S
H1852 C1872 0.931 . S
O1853 Co1829 2.097 . S
O1853 C1881 1.214 . S
H1854 C1882 0.929 . S
H1855 C1883 0.929 . S
H1856 C1884 0.930 . S
H1857 C1885 0.929 . S
H1858 C1887 0.930 . S
H1859 C1864 0.930 . S
H1860 C1868 0.930 . S
O1861 Co1830 2.037 . S
O1861 C1881 1.234 . S
C1862 O1836 1.269 . S
C1862 O1837 1.257 . S
C1863 H1838 0.930 . S
C1863 C1866 1.388 . S
C1863 C1868 1.418 . S
C1864 H1859 0.930 . S
C1864 C1867 1.404 . S
C1864 C1868 1.353 . S
N1865 Co1830 2.145 . S
N1865 C1866 1.397 . S
N1865 C1867 1.334 . S
C1866 H1847 0.929 . S
C1866 C1863 1.388 . S
C1866 N1865 1.397 . S
C1867 H1848 0.929 . S
C1867 C1864 1.404 . S
C1867 N1865 1.334 . S
C1868 H1860 0.930 . S
C1868 C1863 1.418 . S
C1868 C1864 1.353 . S
C1869 H1839 0.930 . S
C1869 N1870 1.330 . S
C1869 C1871 1.446 . S
N1870 Co1829 2.151 . S
N1870 C1869 1.330 . S
N1870 C1874 1.418 . S
C1871 H1850 0.929 . S
C1871 C1869 1.446 . S
C1871 C1872 1.332 . S
C1872 H1852 0.931 . S
C1872 C1871 1.332 . S
C1872 C1873 1.267 . S
C1873 H1841 0.929 . S
C1873 C1872 1.267 . S
C1873 C1874 1.251 . S
C1874 H1844 0.929 . S
C1874 N1870 1.418 . S
C1874 C1873 1.251 . S
C1875 H1842 0.930 . S
C1875 C1877 1.406 . S
C1875 C1880 1.261 . S
C1876 H1843 0.930 . S
C1876 N1878 1.325 . S
C1876 C1879 1.357 . S
C1877 H1845 0.928 . S
C1877 C1875 1.406 . S
C1877 N1878 1.261 . S
N1878 Co1829 2.214 . S
N1878 C1876 1.325 . S
N1878 C1877 1.261 . S
C1879 H1849 0.931 . S
C1879 C1876 1.357 . S
C1879 C1880 1.312 . S
C1880 H1851 0.930 . S
C1880 C1875 1.261 . S
C1880 C1879 1.312 . S
C1881 O1853 1.214 . S
C1881 O1861 1.234 . S
C1882 H1854 0.929 . S
C1882 C1885 1.391 . S
C1882 C1887 1.391 . S
C1883 H1855 0.929 . S
C1883 C1884 1.390 . S
C1883 N1886 1.391 . S
C1884 H1856 0.930 . S
C1884 C1883 1.390 . S
C1884 C1885 1.392 . S
C1885 H1857 0.929 . S
C1885 C1882 1.391 . S
C1885 C1884 1.392 . S
N1886 Co1830 2.257 . S
N1886 C1883 1.391 . S
N1886 C1887 1.388 . S
C1887 H1858 0.930 . S
C1887 C1882 1.391 . S
C1887 N1886 1.388 . S
H1888 C1894 0.930 . S
H1889 C1898 0.930 . S
H1890 C1903 0.929 . S
H1891 C1901 0.929 . S
H1892 C1896 0.929 . S
H1893 C1902 0.929 . S
C1894 H1888 0.930 . S
C1894 C1895 1.367 . S
C1894 C1902 1.378 . S
C1895 C1894 1.367 . S
C1895 C1903 1.433 . S
C1896 H1892 0.929 . S
C1896 C1898 1.378 . S
C1896 C1900 1.350 . S
C1897 C1900 1.463 . S
C1897 C1902 1.350 . S
C1897 N1905 1.427 . S
C1898 H1889 0.930 . S
C1898 C1896 1.378 . S
C1898 C1899 1.367 . S
C1899 C1898 1.367 . S
C1899 C1901 1.433 . S
C1900 C1896 1.350 . S
C1900 C1897 1.463 . S
C1900 N1904 1.427 . S
C1901 H1891 0.929 . S
C1901 C1899 1.433 . S
C1901 N1904 1.384 . S
C1902 H1893 0.929 . S
C1902 C1894 1.378 . S
C1902 C1897 1.350 . S
C1903 H1890 0.929 . S
C1903 C1895 1.433 . S
C1903 N1905 1.384 . S
N1904 C1900 1.427 . S
N1904 C1901 1.384 . S
N1905 C1897 1.427 . S
N1905 C1903 1.384 . S
H1906 C1912 0.930 . S
H1907 C1916 0.930 . S
H1908 C1921 0.929 . S
H1909 C1919 0.929 . S
H1910 C1914 0.929 . S
H1911 C1920 0.929 . S
C1912 H1906 0.930 . S
C1912 C1913 1.367 . S
C1912 C1920 1.378 . S
C1913 C1912 1.367 . S
C1913 C1921 1.433 . S
C1914 H1910 0.929 . S
C1914 C1916 1.378 . S
C1914 C1918 1.350 . S
C1915 C1918 1.463 . S
C1915 C1920 1.350 . S
C1915 N1923 1.427 . S
C1916 H1907 0.930 . S
C1916 C1914 1.378 . S
C1916 C1917 1.367 . S
C1917 C1916 1.367 . S
C1917 C1919 1.433 . S
C1918 C1914 1.350 . S
C1918 C1915 1.463 . S
C1918 N1922 1.427 . S
C1919 H1909 0.929 . S
C1919 C1917 1.433 . S
C1919 N1922 1.384 . S
C1920 H1911 0.929 . S
C1920 C1912 1.378 . S
C1920 C1915 1.350 . S
C1921 H1908 0.929 . S
C1921 C1913 1.433 . S
C1921 N1923 1.384 . S
N1922 C1918 1.427 . S
N1922 C1919 1.384 . S
N1923 C1915 1.427 . S
N1923 C1921 1.384 . S
H1924 C1930 0.930 . S
H1925 C1934 0.930 . S
H1926 C1939 0.929 . S
H1927 C1937 0.929 . S
H1928 C1932 0.929 . S
H1929 C1938 0.929 . S
C1930 H1924 0.930 . S
C1930 C1931 1.367 . S
C1930 C1938 1.378 . S
C1931 C1930 1.367 . S
C1931 C1939 1.433 . S
C1932 H1928 0.929 . S
C1932 C1934 1.378 . S
C1932 C1936 1.350 . S
C1933 C1936 1.463 . S
C1933 C1938 1.350 . S
C1933 N1941 1.427 . S
C1934 H1925 0.930 . S
C1934 C1932 1.378 . S
C1934 C1935 1.367 . S
C1935 C1934 1.367 . S
C1935 C1937 1.433 . S
C1936 C1932 1.350 . S
C1936 C1933 1.463 . S
C1936 N1940 1.427 . S
C1937 H1927 0.929 . S
C1937 C1935 1.433 . S
C1937 N1940 1.384 . S
C1938 H1929 0.929 . S
C1938 C1930 1.378 . S
C1938 C1933 1.350 . S
C1939 H1926 0.929 . S
C1939 C1931 1.433 . S
C1939 N1941 1.384 . S
N1940 C1936 1.427 . S
N1940 C1937 1.384 . S
N1941 C1933 1.427 . S
N1941 C1939 1.384 . S
H1942 C1948 0.930 . S
H1943 C1952 0.930 . S
H1944 C1957 0.929 . S
H1945 C1955 0.929 . S
H1946 C1950 0.929 . S
H1947 C1956 0.929 . S
C1948 H1942 0.930 . S
C1948 C1949 1.367 . S
C1948 C1956 1.378 . S
C1949 C1948 1.367 . S
C1949 C1957 1.433 . S
C1950 H1946 0.929 . S
C1950 C1952 1.378 . S
C1950 C1954 1.350 . S
C1951 C1954 1.463 . S
C1951 C1956 1.350 . S
C1951 N1959 1.427 . S
C1952 H1943 0.930 . S
C1952 C1950 1.378 . S
C1952 C1953 1.367 . S
C1953 C1952 1.367 . S
C1953 C1955 1.433 . S
C1954 C1950 1.350 . S
C1954 C1951 1.463 . S
C1954 N1958 1.427 . S
C1955 H1945 0.929 . S
C1955 C1953 1.433 . S
C1955 N1958 1.384 . S
C1956 H1947 0.929 . S
C1956 C1948 1.378 . S
C1956 C1951 1.350 . S
C1957 H1944 0.929 . S
C1957 C1949 1.433 . S
C1957 N1959 1.384 . S
N1958 C1954 1.427 . S
N1958 C1955 1.384 . S
N1959 C1951 1.427 . S
N1959 C1957 1.384 . S
H1960 C1966 0.930 . S
H1961 C1970 0.930 . S
H1962 C1975 0.929 . S
H1963 C1973 0.929 . S
H1964 C1968 0.929 . S
H1965 C1974 0.929 . S
C1966 H1960 0.930 . S
C1966 C1967 1.367 . S
C1966 C1974 1.378 . S
C1967 C1966 1.367 . S
C1967 C1975 1.433 . S
C1968 H1964 0.929 . S
C1968 C1970 1.378 . S
C1968 C1972 1.350 . S
C1969 C1972 1.463 . S
C1969 C1974 1.350 . S
C1969 N1977 1.427 . S
C1970 H1961 0.930 . S
C1970 C1968 1.378 . S
C1970 C1971 1.367 . S
C1971 C1970 1.367 . S
C1971 C1973 1.433 . S
C1972 C1968 1.350 . S
C1972 C1969 1.463 . S
C1972 N1976 1.427 . S
C1973 H1963 0.929 . S
C1973 C1971 1.433 . S
C1973 N1976 1.384 . S
C1974 H1965 0.929 . S
C1974 C1966 1.378 . S
C1974 C1969 1.350 . S
C1975 H1962 0.929 . S
C1975 C1967 1.433 . S
C1975 N1977 1.384 . S
N1976 C1972 1.427 . S
N1976 C1973 1.384 . S
N1977 C1969 1.427 . S
N1977 C1975 1.384 . S
H1978 C1984 0.930 . S
H1979 C1988 0.930 . S
H1980 C1993 0.929 . S
H1981 C1991 0.929 . S
H1982 C1986 0.929 . S
H1983 C1992 0.929 . S
C1984 H1978 0.930 . S
C1984 C1985 1.367 . S
C1984 C1992 1.378 . S
C1985 C1984 1.367 . S
C1985 C1993 1.433 . S
C1986 H1982 0.929 . S
C1986 C1988 1.378 . S
C1986 C1990 1.350 . S
C1987 C1990 1.463 . S
C1987 C1992 1.350 . S
C1987 N1995 1.427 . S
C1988 H1979 0.930 . S
C1988 C1986 1.378 . S
C1988 C1989 1.367 . S
C1989 C1988 1.367 . S
C1989 C1991 1.433 . S
C1990 C1986 1.350 . S
C1990 C1987 1.463 . S
C1990 N1994 1.427 . S
C1991 H1981 0.929 . S
C1991 C1989 1.433 . S
C1991 N1994 1.384 . S
C1992 H1983 0.929 . S
C1992 C1984 1.378 . S
C1992 C1987 1.350 . S
C1993 H1980 0.929 . S
C1993 C1985 1.433 . S
C1993 N1995 1.384 . S
N1994 C1990 1.427 . S
N1994 C1991 1.384 . S
N1995 C1987 1.427 . S
N1995 C1993 1.384 . S
H1996 C2002 0.930 . S
H1997 C2006 0.930 . S
H1998 C2011 0.929 . S
H1999 C2009 0.929 . S
H2000 C2004 0.929 . S
H2001 C2010 0.929 . S
C2002 H1996 0.930 . S
C2002 C2003 1.367 . S
C2002 C2010 1.378 . S
C2003 C2002 1.367 . S
C2003 C2011 1.433 . S
C2004 H2000 0.929 . S
C2004 C2006 1.378 . S
C2004 C2008 1.350 . S
C2005 C2008 1.463 . S
C2005 C2010 1.350 . S
C2005 N2013 1.427 . S
C2006 H1997 0.930 . S
C2006 C2004 1.378 . S
C2006 C2007 1.367 . S
C2007 C2006 1.367 . S
C2007 C2009 1.433 . S
C2008 C2004 1.350 . S
C2008 C2005 1.463 . S
C2008 N2012 1.427 . S
C2009 H1999 0.929 . S
C2009 C2007 1.433 . S
C2009 N2012 1.384 . S
C2010 H2001 0.929 . S
C2010 C2002 1.378 . S
C2010 C2005 1.350 . S
C2011 H1998 0.929 . S
C2011 C2003 1.433 . S
C2011 N2013 1.384 . S
N2012 C2008 1.427 . S
N2012 C2009 1.384 . S
N2013 C2005 1.427 . S
N2013 C2011 1.384 . S
H2014 C2020 0.930 . S
H2015 C2024 0.930 . S
H2016 C2029 0.929 . S
H2017 C2027 0.929 . S
H2018 C2022 0.929 . S
H2019 C2028 0.929 . S
C2020 H2014 0.930 . S
C2020 C2021 1.367 . S
C2020 C2028 1.378 . S
C2021 C2020 1.367 . S
C2021 C2029 1.433 . S
C2022 H2018 0.929 . S
C2022 C2024 1.378 . S
C2022 C2026 1.350 . S
C2023 C2026 1.463 . S
C2023 C2028 1.350 . S
C2023 N2031 1.427 . S
C2024 H2015 0.930 . S
C2024 C2022 1.378 . S
C2024 C2025 1.367 . S
C2025 C2024 1.367 . S
C2025 C2027 1.433 . S
C2026 C2022 1.350 . S
C2026 C2023 1.463 . S
C2026 N2030 1.427 . S
C2027 H2017 0.929 . S
C2027 C2025 1.433 . S
C2027 N2030 1.384 . S
C2028 H2019 0.929 . S
C2028 C2020 1.378 . S
C2028 C2023 1.350 . S
C2029 H2016 0.929 . S
C2029 C2021 1.433 . S
C2029 N2031 1.384 . S
N2030 C2026 1.427 . S
N2030 C2027 1.384 . S
N2031 C2023 1.427 . S
N2031 C2029 1.384 . S
H2032 C2038 0.930 . S
H2033 C2042 0.930 . S
H2034 C2047 0.929 . S
H2035 C2045 0.929 . S
H2036 C2040 0.929 . S
H2037 C2046 0.929 . S
C2038 H2032 0.930 . S
C2038 C2039 1.367 . S
C2038 C2046 1.378 . S
C2039 C2038 1.367 . S
C2039 C2047 1.433 . S
C2040 H2036 0.929 . S
C2040 C2042 1.378 . S
C2040 C2044 1.350 . S
C2041 C2044 1.463 . S
C2041 C2046 1.350 . S
C2041 N2049 1.427 . S
C2042 H2033 0.930 . S
C2042 C2040 1.378 . S
C2042 C2043 1.367 . S
C2043 C2042 1.367 . S
C2043 C2045 1.433 . S
C2044 C2040 1.350 . S
C2044 C2041 1.463 . S
C2044 N2048 1.427 . S
C2045 H2035 0.929 . S
C2045 C2043 1.433 . S
C2045 N2048 1.384 . S
C2046 H2037 0.929 . S
C2046 C2038 1.378 . S
C2046 C2041 1.350 . S
C2047 H2034 0.929 . S
C2047 C2039 1.433 . S
C2047 N2049 1.384 . S
N2048 C2044 1.427 . S
N2048 C2045 1.384 . S
N2049 C2041 1.427 . S
N2049 C2047 1.384 . S
H2050 C2056 0.930 . S
H2051 C2060 0.930 . S
H2052 C2065 0.929 . S
H2053 C2063 0.929 . S
H2054 C2058 0.929 . S
H2055 C2064 0.929 . S
C2056 H2050 0.930 . S
C2056 C2057 1.367 . S
C2056 C2064 1.378 . S
C2057 C2056 1.367 . S
C2057 C2065 1.433 . S
C2058 H2054 0.929 . S
C2058 C2060 1.378 . S
C2058 C2062 1.350 . S
C2059 C2062 1.463 . S
C2059 C2064 1.350 . S
C2059 N2067 1.427 . S
C2060 H2051 0.930 . S
C2060 C2058 1.378 . S
C2060 C2061 1.367 . S
C2061 C2060 1.367 . S
C2061 C2063 1.433 . S
C2062 C2058 1.350 . S
C2062 C2059 1.463 . S
C2062 N2066 1.427 . S
C2063 H2053 0.929 . S
C2063 C2061 1.433 . S
C2063 N2066 1.384 . S
C2064 H2055 0.929 . S
C2064 C2056 1.378 . S
C2064 C2059 1.350 . S
C2065 H2052 0.929 . S
C2065 C2057 1.433 . S
C2065 N2067 1.384 . S
N2066 C2062 1.427 . S
N2066 C2063 1.384 . S
N2067 C2059 1.427 . S
N2067 C2065 1.384 . S
H2068 C2074 0.930 . S
H2069 C2078 0.930 . S
H2070 C2083 0.929 . S
H2071 C2081 0.929 . S
H2072 C2076 0.929 . S
H2073 C2082 0.929 . S
C2074 H2068 0.930 . S
C2074 C2075 1.367 . S
C2074 C2082 1.378 . S
C2075 C2074 1.367 . S
C2075 C2083 1.433 . S
C2076 H2072 0.929 . S
C2076 C2078 1.378 . S
C2076 C2080 1.350 . S
C2077 C2080 1.463 . S
C2077 C2082 1.350 . S
C2077 N2085 1.427 . S
C2078 H2069 0.930 . S
C2078 C2076 1.378 . S
C2078 C2079 1.367 . S
C2079 C2078 1.367 . S
C2079 C2081 1.433 . S
C2080 C2076 1.350 . S
C2080 C2077 1.463 . S
C2080 N2084 1.427 . S
C2081 H2071 0.929 . S
C2081 C2079 1.433 . S
C2081 N2084 1.384 . S
C2082 H2073 0.929 . S
C2082 C2074 1.378 . S
C2082 C2077 1.350 . S
C2083 H2070 0.929 . S
C2083 C2075 1.433 . S
C2083 N2085 1.384 . S
N2084 C2080 1.427 . S
N2084 C2081 1.384 . S
N2085 C2077 1.427 . S
N2085 C2083 1.384 . S
H2086 C2092 0.930 . S
H2087 C2096 0.930 . S
H2088 C2101 0.929 . S
H2089 C2099 0.929 . S
H2090 C2094 0.929 . S
H2091 C2100 0.929 . S
C2092 H2086 0.930 . S
C2092 C2093 1.367 . S
C2092 C2100 1.378 . S
C2093 C2092 1.367 . S
C2093 C2101 1.433 . S
C2094 H2090 0.929 . S
C2094 C2096 1.378 . S
C2094 C2098 1.350 . S
C2095 C2098 1.463 . S
C2095 C2100 1.350 . S
C2095 N2103 1.427 . S
C2096 H2087 0.930 . S
C2096 C2094 1.378 . S
C2096 C2097 1.367 . S
C2097 C2096 1.367 . S
C2097 C2099 1.433 . S
C2098 C2094 1.350 . S
C2098 C2095 1.463 . S
C2098 N2102 1.427 . S
C2099 H2089 0.929 . S
C2099 C2097 1.433 . S
C2099 N2102 1.384 . S
C2100 H2091 0.929 . S
C2100 C2092 1.378 . S
C2100 C2095 1.350 . S
C2101 H2088 0.929 . S
C2101 C2093 1.433 . S
C2101 N2103 1.384 . S
N2102 C2098 1.427 . S
N2102 C2099 1.384 . S
N2103 C2095 1.427 . S
N2103 C2101 1.384 . S
H2104 C2110 0.930 . S
H2105 C2114 0.930 . S
H2106 C2119 0.929 . S
H2107 C2117 0.929 . S
H2108 C2112 0.929 . S
H2109 C2118 0.929 . S
C2110 H2104 0.930 . S
C2110 C2111 1.367 . S
C2110 C2118 1.378 . S
C2111 C2110 1.367 . S
C2111 C2119 1.433 . S
C2112 H2108 0.929 . S
C2112 C2114 1.378 . S
C2112 C2116 1.350 . S
C2113 C2116 1.463 . S
C2113 C2118 1.350 . S
C2113 N2121 1.427 . S
C2114 H2105 0.930 . S
C2114 C2112 1.378 . S
C2114 C2115 1.367 . S
C2115 C2114 1.367 . S
C2115 C2117 1.433 . S
C2116 C2112 1.350 . S
C2116 C2113 1.463 . S
C2116 N2120 1.427 . S
C2117 H2107 0.929 . S
C2117 C2115 1.433 . S
C2117 N2120 1.384 . S
C2118 H2109 0.929 . S
C2118 C2110 1.378 . S
C2118 C2113 1.350 . S
C2119 H2106 0.929 . S
C2119 C2111 1.433 . S
C2119 N2121 1.384 . S
N2120 C2116 1.427 . S
N2120 C2117 1.384 . S
N2121 C2113 1.427 . S
N2121 C2119 1.384 . S
H2122 C2128 0.930 . S
H2123 C2132 0.930 . S
H2124 C2137 0.929 . S
H2125 C2135 0.929 . S
H2126 C2130 0.929 . S
H2127 C2136 0.929 . S
C2128 H2122 0.930 . S
C2128 C2129 1.367 . S
C2128 C2136 1.378 . S
C2129 C2128 1.367 . S
C2129 C2137 1.433 . S
C2130 H2126 0.929 . S
C2130 C2132 1.378 . S
C2130 C2134 1.350 . S
C2131 C2134 1.463 . S
C2131 C2136 1.350 . S
C2131 N2139 1.427 . S
C2132 H2123 0.930 . S
C2132 C2130 1.378 . S
C2132 C2133 1.367 . S
C2133 C2132 1.367 . S
C2133 C2135 1.433 . S
C2134 C2130 1.350 . S
C2134 C2131 1.463 . S
C2134 N2138 1.427 . S
C2135 H2125 0.929 . S
C2135 C2133 1.433 . S
C2135 N2138 1.384 . S
C2136 H2127 0.929 . S
C2136 C2128 1.378 . S
C2136 C2131 1.350 . S
C2137 H2124 0.929 . S
C2137 C2129 1.433 . S
C2137 N2139 1.384 . S
N2138 C2134 1.427 . S
N2138 C2135 1.384 . S
N2139 C2131 1.427 . S
N2139 C2137 1.384 . S
H2140 C2146 0.930 . S
H2141 C2150 0.930 . S
H2142 C2155 0.929 . S
H2143 C2153 0.929 . S
H2144 C2148 0.929 . S
H2145 C2154 0.929 . S
C2146 H2140 0.930 . S
C2146 C2147 1.367 . S
C2146 C2154 1.378 . S
C2147 C2146 1.367 . S
C2147 C2155 1.433 . S
C2148 H2144 0.929 . S
C2148 C2150 1.378 . S
C2148 C2152 1.350 . S
C2149 C2152 1.463 . S
C2149 C2154 1.350 . S
C2149 N2157 1.427 . S
C2150 H2141 0.930 . S
C2150 C2148 1.378 . S
C2150 C2151 1.367 . S
C2151 C2150 1.367 . S
C2151 C2153 1.433 . S
C2152 C2148 1.350 . S
C2152 C2149 1.463 . S
C2152 N2156 1.427 . S
C2153 H2143 0.929 . S
C2153 C2151 1.433 . S
C2153 N2156 1.384 . S
C2154 H2145 0.929 . S
C2154 C2146 1.378 . S
C2154 C2149 1.350 . S
C2155 H2142 0.929 . S
C2155 C2147 1.433 . S
C2155 N2157 1.384 . S
N2156 C2152 1.427 . S
N2156 C2153 1.384 . S
N2157 C2149 1.427 . S
N2157 C2155 1.384 . S
H2158 C2164 0.930 . S
H2159 C2168 0.930 . S
H2160 C2173 0.929 . S
H2161 C2171 0.929 . S
H2162 C2166 0.929 . S
H2163 C2172 0.929 . S
C2164 H2158 0.930 . S
C2164 C2165 1.367 . S
C2164 C2172 1.378 . S
C2165 C2164 1.367 . S
C2165 C2173 1.433 . S
C2166 H2162 0.929 . S
C2166 C2168 1.378 . S
C2166 C2170 1.350 . S
C2167 C2170 1.463 . S
C2167 C2172 1.350 . S
C2167 N2175 1.427 . S
C2168 H2159 0.930 . S
C2168 C2166 1.378 . S
C2168 C2169 1.367 . S
C2169 C2168 1.367 . S
C2169 C2171 1.433 . S
C2170 C2166 1.350 . S
C2170 C2167 1.463 . S
C2170 N2174 1.427 . S
C2171 H2161 0.929 . S
C2171 C2169 1.433 . S
C2171 N2174 1.384 . S
C2172 H2163 0.929 . S
C2172 C2164 1.378 . S
C2172 C2167 1.350 . S
C2173 H2160 0.929 . S
C2173 C2165 1.433 . S
C2173 N2175 1.384 . S
N2174 C2170 1.427 . S
N2174 C2171 1.384 . S
N2175 C2167 1.427 . S
N2175 C2173 1.384 . S
H2176 C2182 0.930 . S
H2177 C2186 0.930 . S
H2178 C2191 0.929 . S
H2179 C2189 0.929 . S
H2180 C2184 0.929 . S
H2181 C2190 0.929 . S
C2182 H2176 0.930 . S
C2182 C2183 1.367 . S
C2182 C2190 1.378 . S
C2183 C2182 1.367 . S
C2183 C2191 1.433 . S
C2184 H2180 0.929 . S
C2184 C2186 1.378 . S
C2184 C2188 1.350 . S
C2185 C2188 1.463 1_655 S
C2185 C2190 1.350 . S
C2185 N2193 1.427 . S
C2186 H2177 0.930 . S
C2186 C2184 1.378 . S
C2186 C2187 1.367 . S
C2187 C2186 1.367 . S
C2187 C2189 1.433 . S
C2188 C2184 1.350 . S
C2188 C2185 1.463 1_455 S
C2188 N2192 1.427 . S
C2189 H2179 0.929 . S
C2189 C2187 1.433 . S
C2189 N2192 1.384 . S
C2190 H2181 0.929 . S
C2190 C2182 1.378 . S
C2190 C2185 1.350 . S
C2191 H2178 0.929 . S
C2191 C2183 1.433 . S
C2191 N2193 1.384 . S
N2192 C2188 1.427 . S
N2192 C2189 1.384 . S
N2193 C2185 1.427 . S
N2193 C2191 1.384 . S
H2194 C2200 0.930 . S
H2195 C2204 0.930 . S
H2196 C2209 0.929 . S
H2197 C2207 0.929 . S
H2198 C2202 0.929 . S
H2199 C2208 0.929 . S
C2200 H2194 0.930 . S
C2200 C2201 1.367 . S
C2200 C2208 1.378 . S
C2201 C2200 1.367 . S
C2201 C2209 1.433 . S
C2202 H2198 0.929 . S
C2202 C2204 1.378 . S
C2202 C2206 1.350 . S
C2203 C2206 1.463 1_545 S
C2203 C2208 1.350 . S
C2203 N2211 1.427 . S
C2204 H2195 0.930 . S
C2204 C2202 1.378 . S
C2204 C2205 1.367 . S
C2205 C2204 1.367 . S
C2205 C2207 1.433 . S
C2206 C2202 1.350 . S
C2206 C2203 1.463 1_565 S
C2206 N2210 1.427 . S
C2207 H2197 0.929 . S
C2207 C2205 1.433 . S
C2207 N2210 1.384 . S
C2208 H2199 0.929 . S
C2208 C2200 1.378 . S
C2208 C2203 1.350 . S
C2209 H2196 0.929 . S
C2209 C2201 1.433 . S
C2209 N2211 1.384 . S
N2210 C2206 1.427 . S
N2210 C2207 1.384 . S
N2211 C2203 1.427 . S
N2211 C2209 1.384 . S
H2212 C2218 0.930 . S
H2213 C2222 0.930 . S
H2214 C2227 0.929 . S
H2215 C2225 0.929 . S
H2216 C2220 0.929 . S
H2217 C2226 0.929 . S
C2218 H2212 0.930 . S
C2218 C2219 1.367 . S
C2218 C2226 1.378 . S
C2219 C2218 1.367 . S
C2219 C2227 1.433 . S
C2220 H2216 0.929 . S
C2220 C2222 1.378 . S
C2220 C2224 1.350 . S
C2221 C2224 1.463 1_455 S
C2221 C2226 1.350 . S
C2221 N2229 1.427 . S
C2222 H2213 0.930 . S
C2222 C2220 1.378 . S
C2222 C2223 1.367 . S
C2223 C2222 1.367 . S
C2223 C2225 1.433 . S
C2224 C2220 1.350 . S
C2224 C2221 1.463 1_655 S
C2224 N2228 1.427 . S
C2225 H2215 0.929 . S
C2225 C2223 1.433 . S
C2225 N2228 1.384 . S
C2226 H2217 0.929 . S
C2226 C2218 1.378 . S
C2226 C2221 1.350 . S
C2227 H2214 0.929 . S
C2227 C2219 1.433 . S
C2227 N2229 1.384 . S
N2228 C2224 1.427 . S
N2228 C2225 1.384 . S
N2229 C2221 1.427 . S
N2229 C2227 1.384 . S
H2230 C2236 0.930 . S
H2231 C2240 0.930 . S
H2232 C2245 0.929 . S
H2233 C2243 0.929 . S
H2234 C2238 0.929 . S
H2235 C2244 0.929 . S
C2236 H2230 0.930 . S
C2236 C2237 1.367 . S
C2236 C2244 1.378 . S
C2237 C2236 1.367 . S
C2237 C2245 1.433 . S
C2238 H2234 0.929 . S
C2238 C2240 1.378 . S
C2238 C2242 1.350 . S
C2239 C2242 1.463 1_565 S
C2239 C2244 1.350 . S
C2239 N2247 1.427 . S
C2240 H2231 0.930 . S
C2240 C2238 1.378 . S
C2240 C2241 1.367 . S
C2241 C2240 1.367 . S
C2241 C2243 1.433 . S
C2242 C2238 1.350 . S
C2242 C2239 1.463 1_545 S
C2242 N2246 1.427 . S
C2243 H2233 0.929 . S
C2243 C2241 1.433 . S
C2243 N2246 1.384 . S
C2244 H2235 0.929 . S
C2244 C2236 1.378 . S
C2244 C2239 1.350 . S
C2245 H2232 0.929 . S
C2245 C2237 1.433 . S
C2245 N2247 1.384 . S
N2246 C2242 1.427 . S
N2246 C2243 1.384 . S
N2247 C2239 1.427 . S
N2247 C2245 1.384 . S
H2248 C2254 0.930 . S
H2249 C2258 0.930 . S
H2250 C2263 0.929 . S
H2251 C2261 0.929 . S
H2252 C2256 0.929 . S
H2253 C2262 0.929 . S
C2254 H2248 0.930 . S
C2254 C2255 1.367 . S
C2254 C2262 1.378 . S
C2255 C2254 1.367 . S
C2255 C2263 1.433 . S
C2256 H2252 0.929 . S
C2256 C2258 1.378 . S
C2256 C2260 1.350 . S
C2257 C2260 1.463 1_455 S
C2257 C2262 1.350 . S
C2257 N2265 1.427 . S
C2258 H2249 0.930 . S
C2258 C2256 1.378 . S
C2258 C2259 1.367 . S
C2259 C2258 1.367 . S
C2259 C2261 1.433 . S
C2260 C2256 1.350 . S
C2260 C2257 1.463 1_655 S
C2260 N2264 1.427 . S
C2261 H2251 0.929 . S
C2261 C2259 1.433 . S
C2261 N2264 1.384 . S
C2262 H2253 0.929 . S
C2262 C2254 1.378 . S
C2262 C2257 1.350 . S
C2263 H2250 0.929 . S
C2263 C2255 1.433 . S
C2263 N2265 1.384 . S
N2264 C2260 1.427 . S
N2264 C2261 1.384 . S
N2265 C2257 1.427 . S
N2265 C2263 1.384 . S
H2266 C2272 0.930 . S
H2267 C2276 0.930 . S
H2268 C2281 0.929 . S
H2269 C2279 0.929 . S
H2270 C2274 0.929 . S
H2271 C2280 0.929 . S
C2272 H2266 0.930 . S
C2272 C2273 1.367 . S
C2272 C2280 1.378 . S
C2273 C2272 1.367 . S
C2273 C2281 1.433 . S
C2274 H2270 0.929 . S
C2274 C2276 1.378 . S
C2274 C2278 1.350 . S
C2275 C2278 1.463 1_565 S
C2275 C2280 1.350 . S
C2275 N2283 1.427 . S
C2276 H2267 0.930 . S
C2276 C2274 1.378 . S
C2276 C2277 1.367 . S
C2277 C2276 1.367 . S
C2277 C2279 1.433 . S
C2278 C2274 1.350 . S
C2278 C2275 1.463 1_545 S
C2278 N2282 1.427 . S
C2279 H2269 0.929 . S
C2279 C2277 1.433 . S
C2279 N2282 1.384 . S
C2280 H2271 0.929 . S
C2280 C2272 1.378 . S
C2280 C2275 1.350 . S
C2281 H2268 0.929 . S
C2281 C2273 1.433 . S
C2281 N2283 1.384 . S
N2282 C2278 1.427 . S
N2282 C2279 1.384 . S
N2283 C2275 1.427 . S
N2283 C2281 1.384 . S
H2284 C2290 0.930 . S
H2285 C2294 0.930 . S
H2286 C2299 0.929 . S
H2287 C2297 0.929 . S
H2288 C2292 0.929 . S
H2289 C2298 0.929 . S
C2290 H2284 0.930 . S
C2290 C2291 1.367 . S
C2290 C2298 1.378 . S
C2291 C2290 1.367 . S
C2291 C2299 1.433 . S
C2292 H2288 0.929 . S
C2292 C2294 1.378 . S
C2292 C2296 1.350 . S
C2293 C2296 1.463 1_455 S
C2293 C2298 1.350 . S
C2293 N2301 1.427 . S
C2294 H2285 0.930 . S
C2294 C2292 1.378 . S
C2294 C2295 1.367 . S
C2295 C2294 1.367 . S
C2295 C2297 1.433 . S
C2296 C2292 1.350 . S
C2296 C2293 1.463 1_655 S
C2296 N2300 1.427 . S
C2297 H2287 0.929 . S
C2297 C2295 1.433 . S
C2297 N2300 1.384 . S
C2298 H2289 0.929 . S
C2298 C2290 1.378 . S
C2298 C2293 1.350 . S
C2299 H2286 0.929 . S
C2299 C2291 1.433 . S
C2299 N2301 1.384 . S
N2300 C2296 1.427 . S
N2300 C2297 1.384 . S
N2301 C2293 1.427 . S
N2301 C2299 1.384 . S
H2302 C2308 0.930 . S
H2303 C2312 0.930 . S
H2304 C2317 0.929 . S
H2305 C2315 0.929 . S
H2306 C2310 0.929 . S
H2307 C2316 0.929 . S
C2308 H2302 0.930 . S
C2308 C2309 1.367 . S
C2308 C2316 1.378 . S
C2309 C2308 1.367 . S
C2309 C2317 1.433 . S
C2310 H2306 0.929 . S
C2310 C2312 1.378 . S
C2310 C2314 1.350 . S
C2311 C2314 1.463 1_545 S
C2311 C2316 1.350 . S
C2311 N2319 1.427 . S
C2312 H2303 0.930 . S
C2312 C2310 1.378 . S
C2312 C2313 1.367 . S
C2313 C2312 1.367 . S
C2313 C2315 1.433 . S
C2314 C2310 1.350 . S
C2314 C2311 1.463 1_565 S
C2314 N2318 1.427 . S
C2315 H2305 0.929 . S
C2315 C2313 1.433 . S
C2315 N2318 1.384 . S
C2316 H2307 0.929 . S
C2316 C2308 1.378 . S
C2316 C2311 1.350 . S
C2317 H2304 0.929 . S
C2317 C2309 1.433 . S
C2317 N2319 1.384 . S
N2318 C2314 1.427 . S
N2318 C2315 1.384 . S
N2319 C2311 1.427 . S
N2319 C2317 1.384 . S
H2320 C2326 0.930 . S
H2321 C2330 0.930 . S
H2322 C2335 0.929 . S
H2323 C2333 0.929 . S
H2324 C2328 0.929 . S
H2325 C2334 0.929 . S
C2326 H2320 0.930 . S
C2326 C2327 1.367 . S
C2326 C2334 1.378 . S
C2327 C2326 1.367 . S
C2327 C2335 1.433 . S
C2328 H2324 0.929 . S
C2328 C2330 1.378 . S
C2328 C2332 1.350 . S
C2329 C2332 1.463 . S
C2329 C2334 1.350 . S
C2329 N2337 1.427 . S
C2330 H2321 0.930 . S
C2330 C2328 1.378 . S
C2330 C2331 1.367 . S
C2331 C2330 1.367 . S
C2331 C2333 1.433 . S
C2332 C2328 1.350 . S
C2332 C2329 1.463 . S
C2332 N2336 1.427 . S
C2333 H2323 0.929 . S
C2333 C2331 1.433 . S
C2333 N2336 1.384 . S
C2334 H2325 0.929 . S
C2334 C2326 1.378 . S
C2334 C2329 1.350 . S
C2335 H2322 0.929 . S
C2335 C2327 1.433 . S
C2335 N2337 1.384 . S
N2336 C2332 1.427 . S
N2336 C2333 1.384 . S
N2337 C2329 1.427 . S
N2337 C2335 1.384 . S
H2338 C2344 0.930 . S
H2339 C2348 0.930 . S
H2340 C2353 0.929 . S
H2341 C2351 0.929 . S
H2342 C2346 0.929 . S
H2343 C2352 0.929 . S
C2344 H2338 0.930 . S
C2344 C2345 1.367 . S
C2344 C2352 1.378 . S
C2345 C2344 1.367 . S
C2345 C2353 1.433 . S
C2346 H2342 0.929 . S
C2346 C2348 1.378 . S
C2346 C2350 1.350 . S
C2347 C2350 1.463 . S
C2347 C2352 1.350 . S
C2347 N2355 1.427 . S
C2348 H2339 0.930 . S
C2348 C2346 1.378 . S
C2348 C2349 1.367 . S
C2349 C2348 1.367 . S
C2349 C2351 1.433 . S
C2350 C2346 1.350 . S
C2350 C2347 1.463 . S
C2350 N2354 1.427 . S
C2351 H2341 0.929 . S
C2351 C2349 1.433 . S
C2351 N2354 1.384 . S
C2352 H2343 0.929 . S
C2352 C2344 1.378 . S
C2352 C2347 1.350 . S
C2353 H2340 0.929 . S
C2353 C2345 1.433 . S
C2353 N2355 1.384 . S
N2354 C2350 1.427 . S
N2354 C2351 1.384 . S
N2355 C2347 1.427 . S
N2355 C2353 1.384 . S
H2356 C2362 0.930 . S
H2357 C2366 0.930 . S
H2358 C2371 0.929 . S
H2359 C2369 0.929 . S
H2360 C2364 0.929 . S
H2361 C2370 0.929 . S
C2362 H2356 0.930 . S
C2362 C2363 1.367 . S
C2362 C2370 1.378 . S
C2363 C2362 1.367 . S
C2363 C2371 1.433 . S
C2364 H2360 0.929 . S
C2364 C2366 1.378 . S
C2364 C2368 1.350 . S
C2365 C2368 1.463 . S
C2365 C2370 1.350 . S
C2365 N2373 1.427 . S
C2366 H2357 0.930 . S
C2366 C2364 1.378 . S
C2366 C2367 1.367 . S
C2367 C2366 1.367 . S
C2367 C2369 1.433 . S
C2368 C2364 1.350 . S
C2368 C2365 1.463 . S
C2368 N2372 1.427 . S
C2369 H2359 0.929 . S
C2369 C2367 1.433 . S
C2369 N2372 1.384 . S
C2370 H2361 0.929 . S
C2370 C2362 1.378 . S
C2370 C2365 1.350 . S
C2371 H2358 0.929 . S
C2371 C2363 1.433 . S
C2371 N2373 1.384 . S
N2372 C2368 1.427 . S
N2372 C2369 1.384 . S
N2373 C2365 1.427 . S
N2373 C2371 1.384 . S
H2374 C2380 0.930 . S
H2375 C2384 0.930 . S
H2376 C2389 0.929 . S
H2377 C2387 0.929 . S
H2378 C2382 0.929 . S
H2379 C2388 0.929 . S
C2380 H2374 0.930 . S
C2380 C2381 1.367 . S
C2380 C2388 1.378 . S
C2381 C2380 1.367 . S
C2381 C2389 1.433 . S
C2382 H2378 0.929 . S
C2382 C2384 1.378 . S
C2382 C2386 1.350 . S
C2383 C2386 1.463 . S
C2383 C2388 1.350 . S
C2383 N2391 1.427 . S
C2384 H2375 0.930 . S
C2384 C2382 1.378 . S
C2384 C2385 1.367 . S
C2385 C2384 1.367 . S
C2385 C2387 1.433 . S
C2386 C2382 1.350 . S
C2386 C2383 1.463 . S
C2386 N2390 1.427 . S
C2387 H2377 0.929 . S
C2387 C2385 1.433 . S
C2387 N2390 1.384 . S
C2388 H2379 0.929 . S
C2388 C2380 1.378 . S
C2388 C2383 1.350 . S
C2389 H2376 0.929 . S
C2389 C2381 1.433 . S
C2389 N2391 1.384 . S
N2390 C2386 1.427 . S
N2390 C2387 1.384 . S
N2391 C2383 1.427 . S
N2391 C2389 1.384 . S
H2392 C2398 0.930 . S
H2393 C2402 0.930 . S
H2394 C2407 0.929 . S
H2395 C2405 0.929 . S
H2396 C2400 0.929 . S
H2397 C2406 0.929 . S
C2398 H2392 0.930 . S
C2398 C2399 1.367 . S
C2398 C2406 1.378 . S
C2399 C2398 1.367 . S
C2399 C2407 1.433 . S
C2400 H2396 0.929 . S
C2400 C2402 1.378 . S
C2400 C2404 1.350 . S
C2401 C2404 1.463 . S
C2401 C2406 1.350 . S
C2401 N2409 1.427 . S
C2402 H2393 0.930 . S
C2402 C2400 1.378 . S
C2402 C2403 1.367 . S
C2403 C2402 1.367 . S
C2403 C2405 1.433 . S
C2404 C2400 1.350 . S
C2404 C2401 1.463 . S
C2404 N2408 1.427 . S
C2405 H2395 0.929 . S
C2405 C2403 1.433 . S
C2405 N2408 1.384 . S
C2406 H2397 0.929 . S
C2406 C2398 1.378 . S
C2406 C2401 1.350 . S
C2407 H2394 0.929 . S
C2407 C2399 1.433 . S
C2407 N2409 1.384 . S
N2408 C2404 1.427 . S
N2408 C2405 1.384 . S
N2409 C2401 1.427 . S
N2409 C2407 1.384 . S
H2410 C2416 0.930 . S
H2411 C2420 0.930 . S
H2412 C2425 0.929 . S
H2413 C2423 0.929 . S
H2414 C2418 0.929 . S
H2415 C2424 0.929 . S
C2416 H2410 0.930 . S
C2416 C2417 1.367 . S
C2416 C2424 1.378 . S
C2417 C2416 1.367 . S
C2417 C2425 1.433 . S
C2418 H2414 0.929 . S
C2418 C2420 1.378 . S
C2418 C2422 1.350 . S
C2419 C2422 1.463 . S
C2419 C2424 1.350 . S
C2419 N2427 1.427 . S
C2420 H2411 0.930 . S
C2420 C2418 1.378 . S
C2420 C2421 1.367 . S
C2421 C2420 1.367 . S
C2421 C2423 1.433 . S
C2422 C2418 1.350 . S
C2422 C2419 1.463 . S
C2422 N2426 1.427 . S
C2423 H2413 0.929 . S
C2423 C2421 1.433 . S
C2423 N2426 1.384 . S
C2424 H2415 0.929 . S
C2424 C2416 1.378 . S
C2424 C2419 1.350 . S
C2425 H2412 0.929 . S
C2425 C2417 1.433 . S
C2425 N2427 1.384 . S
N2426 C2422 1.427 . S
N2426 C2423 1.384 . S
N2427 C2419 1.427 . S
N2427 C2425 1.384 . S
H2428 C2434 0.930 . S
H2429 C2438 0.930 . S
H2430 C2443 0.929 . S
H2431 C2441 0.929 . S
H2432 C2436 0.929 . S
H2433 C2442 0.929 . S
C2434 H2428 0.930 . S
C2434 C2435 1.367 . S
C2434 C2442 1.378 . S
C2435 C2434 1.367 . S
C2435 C2443 1.433 . S
C2436 H2432 0.929 . S
C2436 C2438 1.378 . S
C2436 C2440 1.350 . S
C2437 C2440 1.463 . S
C2437 C2442 1.350 . S
C2437 N2445 1.427 . S
C2438 H2429 0.930 . S
C2438 C2436 1.378 . S
C2438 C2439 1.367 . S
C2439 C2438 1.367 . S
C2439 C2441 1.433 . S
C2440 C2436 1.350 . S
C2440 C2437 1.463 . S
C2440 N2444 1.427 . S
C2441 H2431 0.929 . S
C2441 C2439 1.433 . S
C2441 N2444 1.384 . S
C2442 H2433 0.929 . S
C2442 C2434 1.378 . S
C2442 C2437 1.350 . S
C2443 H2430 0.929 . S
C2443 C2435 1.433 . S
C2443 N2445 1.384 . S
N2444 C2440 1.427 . S
N2444 C2441 1.384 . S
N2445 C2437 1.427 . S
N2445 C2443 1.384 . S
H2446 C2452 0.930 . S
H2447 C2456 0.930 . S
H2448 C2461 0.929 . S
H2449 C2459 0.929 . S
H2450 C2454 0.929 . S
H2451 C2460 0.929 . S
C2452 H2446 0.930 . S
C2452 C2453 1.367 . S
C2452 C2460 1.378 . S
C2453 C2452 1.367 . S
C2453 C2461 1.433 . S
C2454 H2450 0.929 . S
C2454 C2456 1.378 . S
C2454 C2458 1.350 . S
C2455 C2458 1.463 . S
C2455 C2460 1.350 . S
C2455 N2463 1.427 . S
C2456 H2447 0.930 . S
C2456 C2454 1.378 . S
C2456 C2457 1.367 . S
C2457 C2456 1.367 . S
C2457 C2459 1.433 . S
C2458 C2454 1.350 . S
C2458 C2455 1.463 . S
C2458 N2462 1.427 . S
C2459 H2449 0.929 . S
C2459 C2457 1.433 . S
C2459 N2462 1.384 . S
C2460 H2451 0.929 . S
C2460 C2452 1.378 . S
C2460 C2455 1.350 . S
C2461 H2448 0.929 . S
C2461 C2453 1.433 . S
C2461 N2463 1.384 . S
N2462 C2458 1.427 . S
N2462 C2459 1.384 . S
N2463 C2455 1.427 . S
N2463 C2461 1.384 . S
H2464 C2470 0.930 . S
H2465 C2474 0.930 . S
H2466 C2479 0.929 . S
H2467 C2477 0.929 . S
H2468 C2472 0.929 . S
H2469 C2478 0.929 . S
C2470 H2464 0.930 . S
C2470 C2471 1.367 . S
C2470 C2478 1.378 . S
C2471 C2470 1.367 . S
C2471 C2479 1.433 . S
C2472 H2468 0.929 . S
C2472 C2474 1.378 . S
C2472 C2476 1.350 . S
C2473 C2476 1.463 . S
C2473 C2478 1.350 . S
C2473 N2481 1.427 . S
C2474 H2465 0.930 . S
C2474 C2472 1.378 . S
C2474 C2475 1.367 . S
C2475 C2474 1.367 . S
C2475 C2477 1.433 . S
C2476 C2472 1.350 . S
C2476 C2473 1.463 . S
C2476 N2480 1.427 . S
C2477 H2467 0.929 . S
C2477 C2475 1.433 . S
C2477 N2480 1.384 . S
C2478 H2469 0.929 . S
C2478 C2470 1.378 . S
C2478 C2473 1.350 . S
C2479 H2466 0.929 . S
C2479 C2471 1.433 . S
C2479 N2481 1.384 . S
N2480 C2476 1.427 . S
N2480 C2477 1.384 . S
N2481 C2473 1.427 . S
N2481 C2479 1.384 . S
H2482 C2488 0.930 . S
H2483 C2492 0.930 . S
H2484 C2497 0.929 . S
H2485 C2495 0.929 . S
H2486 C2490 0.929 . S
H2487 C2496 0.929 . S
C2488 H2482 0.930 . S
C2488 C2489 1.367 . S
C2488 C2496 1.378 . S
C2489 C2488 1.367 . S
C2489 C2497 1.433 . S
C2490 H2486 0.929 . S
C2490 C2492 1.378 . S
C2490 C2494 1.350 . S
C2491 C2494 1.463 . S
C2491 C2496 1.350 . S
C2491 N2499 1.427 . S
C2492 H2483 0.930 . S
C2492 C2490 1.378 . S
C2492 C2493 1.367 . S
C2493 C2492 1.367 . S
C2493 C2495 1.433 . S
C2494 C2490 1.350 . S
C2494 C2491 1.463 . S
C2494 N2498 1.427 . S
C2495 H2485 0.929 . S
C2495 C2493 1.433 . S
C2495 N2498 1.384 . S
C2496 H2487 0.929 . S
C2496 C2488 1.378 . S
C2496 C2491 1.350 . S
C2497 H2484 0.929 . S
C2497 C2489 1.433 . S
C2497 N2499 1.384 . S
N2498 C2494 1.427 . S
N2498 C2495 1.384 . S
N2499 C2491 1.427 . S
N2499 C2497 1.384 . S
H2500 C2506 0.930 . S
H2501 C2510 0.930 . S
H2502 C2515 0.929 . S
H2503 C2513 0.929 . S
H2504 C2508 0.929 . S
H2505 C2514 0.929 . S
C2506 H2500 0.930 . S
C2506 C2507 1.367 . S
C2506 C2514 1.378 . S
C2507 C2506 1.367 . S
C2507 C2515 1.433 . S
C2508 H2504 0.929 . S
C2508 C2510 1.378 . S
C2508 C2512 1.350 . S
C2509 C2512 1.463 . S
C2509 C2514 1.350 . S
C2509 N2517 1.427 . S
C2510 H2501 0.930 . S
C2510 C2508 1.378 . S
C2510 C2511 1.367 . S
C2511 C2510 1.367 . S
C2511 C2513 1.433 . S
C2512 C2508 1.350 . S
C2512 C2509 1.463 . S
C2512 N2516 1.427 . S
C2513 H2503 0.929 . S
C2513 C2511 1.433 . S
C2513 N2516 1.384 . S
C2514 H2505 0.929 . S
C2514 C2506 1.378 . S
C2514 C2509 1.350 . S
C2515 H2502 0.929 . S
C2515 C2507 1.433 . S
C2515 N2517 1.384 . S
N2516 C2512 1.427 . S
N2516 C2513 1.384 . S
N2517 C2509 1.427 . S
N2517 C2515 1.384 . S
H2518 C2524 0.930 . S
H2519 C2528 0.930 . S
H2520 C2533 0.929 . S
H2521 C2531 0.929 . S
H2522 C2526 0.929 . S
H2523 C2532 0.929 . S
C2524 H2518 0.930 . S
C2524 C2525 1.367 . S
C2524 C2532 1.378 . S
C2525 C2524 1.367 . S
C2525 C2533 1.433 . S
C2526 H2522 0.929 . S
C2526 C2528 1.378 . S
C2526 C2530 1.350 . S
C2527 C2530 1.463 . S
C2527 C2532 1.350 . S
C2527 N2535 1.427 . S
C2528 H2519 0.930 . S
C2528 C2526 1.378 . S
C2528 C2529 1.367 . S
C2529 C2528 1.367 . S
C2529 C2531 1.433 . S
C2530 C2526 1.350 . S
C2530 C2527 1.463 . S
C2530 N2534 1.427 . S
C2531 H2521 0.929 . S
C2531 C2529 1.433 . S
C2531 N2534 1.384 . S
C2532 H2523 0.929 . S
C2532 C2524 1.378 . S
C2532 C2527 1.350 . S
C2533 H2520 0.929 . S
C2533 C2525 1.433 . S
C2533 N2535 1.384 . S
N2534 C2530 1.427 . S
N2534 C2531 1.384 . S
N2535 C2527 1.427 . S
N2535 C2533 1.384 . S
H2536 C2542 0.930 . S
H2537 C2546 0.930 . S
H2538 C2551 0.929 . S
H2539 C2549 0.929 . S
H2540 C2544 0.929 . S
H2541 C2550 0.929 . S
C2542 H2536 0.930 . S
C2542 C2543 1.367 . S
C2542 C2550 1.378 . S
C2543 C2542 1.367 . S
C2543 C2551 1.433 . S
C2544 H2540 0.929 . S
C2544 C2546 1.378 . S
C2544 C2548 1.350 . S
C2545 C2548 1.463 . S
C2545 C2550 1.350 . S
C2545 N2553 1.427 . S
C2546 H2537 0.930 . S
C2546 C2544 1.378 . S
C2546 C2547 1.367 . S
C2547 C2546 1.367 . S
C2547 C2549 1.433 . S
C2548 C2544 1.350 . S
C2548 C2545 1.463 . S
C2548 N2552 1.427 . S
C2549 H2539 0.929 . S
C2549 C2547 1.433 . S
C2549 N2552 1.384 . S
C2550 H2541 0.929 . S
C2550 C2542 1.378 . S
C2550 C2545 1.350 . S
C2551 H2538 0.929 . S
C2551 C2543 1.433 . S
C2551 N2553 1.384 . S
N2552 C2548 1.427 . S
N2552 C2549 1.384 . S
N2553 C2545 1.427 . S
N2553 C2551 1.384 . S
H2554 C2560 0.930 . S
H2555 C2564 0.930 . S
H2556 C2569 0.929 . S
H2557 C2567 0.929 . S
H2558 C2562 0.929 . S
H2559 C2568 0.929 . S
C2560 H2554 0.930 . S
C2560 C2561 1.367 . S
C2560 C2568 1.378 . S
C2561 C2560 1.367 . S
C2561 C2569 1.433 . S
C2562 H2558 0.929 . S
C2562 C2564 1.378 . S
C2562 C2566 1.350 . S
C2563 C2566 1.463 . S
C2563 C2568 1.350 . S
C2563 N2571 1.427 . S
C2564 H2555 0.930 . S
C2564 C2562 1.378 . S
C2564 C2565 1.367 . S
C2565 C2564 1.367 . S
C2565 C2567 1.433 . S
C2566 C2562 1.350 . S
C2566 C2563 1.463 . S
C2566 N2570 1.427 . S
C2567 H2557 0.929 . S
C2567 C2565 1.433 . S
C2567 N2570 1.384 . S
C2568 H2559 0.929 . S
C2568 C2560 1.378 . S
C2568 C2563 1.350 . S
C2569 H2556 0.929 . S
C2569 C2561 1.433 . S
C2569 N2571 1.384 . S
N2570 C2566 1.427 . S
N2570 C2567 1.384 . S
N2571 C2563 1.427 . S
N2571 C2569 1.384 . S
H2572 C2578 0.930 . S
H2573 C2582 0.930 . S
H2574 C2587 0.929 . S
H2575 C2585 0.929 . S
H2576 C2580 0.929 . S
H2577 C2586 0.929 . S
C2578 H2572 0.930 . S
C2578 C2579 1.367 . S
C2578 C2586 1.378 . S
C2579 C2578 1.367 . S
C2579 C2587 1.433 . S
C2580 H2576 0.929 . S
C2580 C2582 1.378 . S
C2580 C2584 1.350 . S
C2581 C2584 1.463 . S
C2581 C2586 1.350 . S
C2581 N2589 1.427 . S
C2582 H2573 0.930 . S
C2582 C2580 1.378 . S
C2582 C2583 1.367 . S
C2583 C2582 1.367 . S
C2583 C2585 1.433 . S
C2584 C2580 1.350 . S
C2584 C2581 1.463 . S
C2584 N2588 1.427 . S
C2585 H2575 0.929 . S
C2585 C2583 1.433 . S
C2585 N2588 1.384 . S
C2586 H2577 0.929 . S
C2586 C2578 1.378 . S
C2586 C2581 1.350 . S
C2587 H2574 0.929 . S
C2587 C2579 1.433 . S
C2587 N2589 1.384 . S
N2588 C2584 1.427 . S
N2588 C2585 1.384 . S
N2589 C2581 1.427 . S
N2589 C2587 1.384 . S
H2590 C2596 0.930 . S
H2591 C2600 0.930 . S
H2592 C2605 0.929 . S
H2593 C2603 0.929 . S
H2594 C2598 0.929 . S
H2595 C2604 0.929 . S
C2596 H2590 0.930 . S
C2596 C2597 1.367 . S
C2596 C2604 1.378 . S
C2597 C2596 1.367 . S
C2597 C2605 1.433 . S
C2598 H2594 0.929 . S
C2598 C2600 1.378 . S
C2598 C2602 1.350 . S
C2599 C2602 1.463 . S
C2599 C2604 1.350 . S
C2599 N2607 1.427 . S
C2600 H2591 0.930 . S
C2600 C2598 1.378 . S
C2600 C2601 1.367 . S
C2601 C2600 1.367 . S
C2601 C2603 1.433 . S
C2602 C2598 1.350 . S
C2602 C2599 1.463 . S
C2602 N2606 1.427 . S
C2603 H2593 0.929 . S
C2603 C2601 1.433 . S
C2603 N2606 1.384 . S
C2604 H2595 0.929 . S
C2604 C2596 1.378 . S
C2604 C2599 1.350 . S
C2605 H2592 0.929 . S
C2605 C2597 1.433 . S
C2605 N2607 1.384 . S
N2606 C2602 1.427 . S
N2606 C2603 1.384 . S
N2607 C2599 1.427 . S
N2607 C2605 1.384 . S
H2608 C2614 0.930 . S
H2609 C2618 0.930 . S
H2610 C2623 0.929 . S
H2611 C2621 0.929 . S
H2612 C2616 0.929 . S
H2613 C2622 0.929 . S
C2614 H2608 0.930 . S
C2614 C2615 1.367 . S
C2614 C2622 1.378 . S
C2615 C2614 1.367 . S
C2615 C2623 1.433 . S
C2616 H2612 0.929 . S
C2616 C2618 1.378 . S
C2616 C2620 1.350 . S
C2617 C2620 1.463 1_554 S
C2617 C2622 1.350 . S
C2617 N2625 1.427 . S
C2618 H2609 0.930 . S
C2618 C2616 1.378 . S
C2618 C2619 1.367 . S
C2619 C2618 1.367 . S
C2619 C2621 1.433 . S
C2620 C2616 1.350 . S
C2620 C2617 1.463 1_556 S
C2620 N2624 1.427 . S
C2621 H2611 0.929 . S
C2621 C2619 1.433 . S
C2621 N2624 1.384 . S
C2622 H2613 0.929 . S
C2622 C2614 1.378 . S
C2622 C2617 1.350 . S
C2623 H2610 0.929 . S
C2623 C2615 1.433 . S
C2623 N2625 1.384 . S
N2624 C2620 1.427 . S
N2624 C2621 1.384 . S
N2625 C2617 1.427 . S
N2625 C2623 1.384 . S
H2626 C2632 0.930 . S
H2627 C2636 0.930 . S
H2628 C2641 0.929 . S
H2629 C2639 0.929 . S
H2630 C2634 0.929 . S
H2631 C2640 0.929 . S
C2632 H2626 0.930 . S
C2632 C2633 1.367 . S
C2632 C2640 1.378 . S
C2633 C2632 1.367 . S
C2633 C2641 1.433 . S
C2634 H2630 0.929 . S
C2634 C2636 1.378 . S
C2634 C2638 1.350 . S
C2635 C2638 1.463 1_556 S
C2635 C2640 1.350 . S
C2635 N2643 1.427 . S
C2636 H2627 0.930 . S
C2636 C2634 1.378 . S
C2636 C2637 1.367 . S
C2637 C2636 1.367 . S
C2637 C2639 1.433 . S
C2638 C2634 1.350 . S
C2638 C2635 1.463 1_554 S
C2638 N2642 1.427 . S
C2639 H2629 0.929 . S
C2639 C2637 1.433 . S
C2639 N2642 1.384 . S
C2640 H2631 0.929 . S
C2640 C2632 1.378 . S
C2640 C2635 1.350 . S
C2641 H2628 0.929 . S
C2641 C2633 1.433 . S
C2641 N2643 1.384 . S
N2642 C2638 1.427 . S
N2642 C2639 1.384 . S
N2643 C2635 1.427 . S
N2643 C2641 1.384 . S
H2644 C2650 0.930 . S
H2645 C2654 0.930 . S
H2646 C2659 0.929 . S
H2647 C2657 0.929 . S
H2648 C2652 0.929 . S
H2649 C2658 0.929 . S
C2650 H2644 0.930 . S
C2650 C2651 1.367 . S
C2650 C2658 1.378 . S
C2651 C2650 1.367 . S
C2651 C2659 1.433 . S
C2652 H2648 0.929 . S
C2652 C2654 1.378 . S
C2652 C2656 1.350 . S
C2653 C2656 1.463 1_554 S
C2653 C2658 1.350 . S
C2653 N2661 1.427 . S
C2654 H2645 0.930 . S
C2654 C2652 1.378 . S
C2654 C2655 1.367 . S
C2655 C2654 1.367 . S
C2655 C2657 1.433 . S
C2656 C2652 1.350 . S
C2656 C2653 1.463 1_556 S
C2656 N2660 1.427 . S
C2657 H2647 0.929 . S
C2657 C2655 1.433 . S
C2657 N2660 1.384 . S
C2658 H2649 0.929 . S
C2658 C2650 1.378 . S
C2658 C2653 1.350 . S
C2659 H2646 0.929 . S
C2659 C2651 1.433 . S
C2659 N2661 1.384 . S
N2660 C2656 1.427 . S
N2660 C2657 1.384 . S
N2661 C2653 1.427 . S
N2661 C2659 1.384 . S
H2662 C2668 0.930 . S
H2663 C2672 0.930 . S
H2664 C2677 0.929 . S
H2665 C2675 0.929 . S
H2666 C2670 0.929 . S
H2667 C2676 0.929 . S
C2668 H2662 0.930 . S
C2668 C2669 1.367 . S
C2668 C2676 1.378 . S
C2669 C2668 1.367 . S
C2669 C2677 1.433 . S
C2670 H2666 0.929 . S
C2670 C2672 1.378 . S
C2670 C2674 1.350 . S
C2671 C2674 1.463 1_554 S
C2671 C2676 1.350 . S
C2671 N2679 1.427 . S
C2672 H2663 0.930 . S
C2672 C2670 1.378 . S
C2672 C2673 1.367 . S
C2673 C2672 1.367 . S
C2673 C2675 1.433 . S
C2674 C2670 1.350 . S
C2674 C2671 1.463 1_556 S
C2674 N2678 1.427 . S
C2675 H2665 0.929 . S
C2675 C2673 1.433 . S
C2675 N2678 1.384 . S
C2676 H2667 0.929 . S
C2676 C2668 1.378 . S
C2676 C2671 1.350 . S
C2677 H2664 0.929 . S
C2677 C2669 1.433 . S
C2677 N2679 1.384 . S
N2678 C2674 1.427 . S
N2678 C2675 1.384 . S
N2679 C2671 1.427 . S
N2679 C2677 1.384 . S
H2680 C2686 0.930 . S
H2681 C2690 0.930 . S
H2682 C2695 0.929 . S
H2683 C2693 0.929 . S
H2684 C2688 0.929 . S
H2685 C2694 0.929 . S
C2686 H2680 0.930 . S
C2686 C2687 1.367 . S
C2686 C2694 1.378 . S
C2687 C2686 1.367 . S
C2687 C2695 1.433 . S
C2688 H2684 0.929 . S
C2688 C2690 1.378 . S
C2688 C2692 1.350 . S
C2689 C2692 1.463 1_554 S
C2689 C2694 1.350 . S
C2689 N2697 1.427 . S
C2690 H2681 0.930 . S
C2690 C2688 1.378 . S
C2690 C2691 1.367 . S
C2691 C2690 1.367 . S
C2691 C2693 1.433 . S
C2692 C2688 1.350 . S
C2692 C2689 1.463 1_556 S
C2692 N2696 1.427 . S
C2693 H2683 0.929 . S
C2693 C2691 1.433 . S
C2693 N2696 1.384 . S
C2694 H2685 0.929 . S
C2694 C2686 1.378 . S
C2694 C2689 1.350 . S
C2695 H2682 0.929 . S
C2695 C2687 1.433 . S
C2695 N2697 1.384 . S
N2696 C2692 1.427 . S
N2696 C2693 1.384 . S
N2697 C2689 1.427 . S
N2697 C2695 1.384 . S
H2698 C2704 0.930 . S
H2699 C2708 0.930 . S
H2700 C2713 0.929 . S
H2701 C2711 0.929 . S
H2702 C2706 0.929 . S
H2703 C2712 0.929 . S
C2704 H2698 0.930 . S
C2704 C2705 1.367 . S
C2704 C2712 1.378 . S
C2705 C2704 1.367 . S
C2705 C2713 1.433 . S
C2706 H2702 0.929 . S
C2706 C2708 1.378 . S
C2706 C2710 1.350 . S
C2707 C2710 1.463 1_554 S
C2707 C2712 1.350 . S
C2707 N2715 1.427 . S
C2708 H2699 0.930 . S
C2708 C2706 1.378 . S
C2708 C2709 1.367 . S
C2709 C2708 1.367 . S
C2709 C2711 1.433 . S
C2710 C2706 1.350 . S
C2710 C2707 1.463 1_556 S
C2710 N2714 1.427 . S
C2711 H2701 0.929 . S
C2711 C2709 1.433 . S
C2711 N2714 1.384 . S
C2712 H2703 0.929 . S
C2712 C2704 1.378 . S
C2712 C2707 1.350 . S
C2713 H2700 0.929 . S
C2713 C2705 1.433 . S
C2713 N2715 1.384 . S
N2714 C2710 1.427 . S
N2714 C2711 1.384 . S
N2715 C2707 1.427 . S
N2715 C2713 1.384 . S
H2716 C2722 0.930 . S
H2717 C2726 0.930 . S
H2718 C2731 0.929 . S
H2719 C2729 0.929 . S
H2720 C2724 0.929 . S
H2721 C2730 0.929 . S
C2722 H2716 0.930 . S
C2722 C2723 1.367 . S
C2722 C2730 1.378 . S
C2723 C2722 1.367 . S
C2723 C2731 1.433 . S
C2724 H2720 0.929 . S
C2724 C2726 1.378 . S
C2724 C2728 1.350 . S
C2725 C2728 1.463 1_556 S
C2725 C2730 1.350 . S
C2725 N2733 1.427 . S
C2726 H2717 0.930 . S
C2726 C2724 1.378 . S
C2726 C2727 1.367 . S
C2727 C2726 1.367 . S
C2727 C2729 1.433 . S
C2728 C2724 1.350 . S
C2728 C2725 1.463 1_554 S
C2728 N2732 1.427 . S
C2729 H2719 0.929 . S
C2729 C2727 1.433 . S
C2729 N2732 1.384 . S
C2730 H2721 0.929 . S
C2730 C2722 1.378 . S
C2730 C2725 1.350 . S
C2731 H2718 0.929 . S
C2731 C2723 1.433 . S
C2731 N2733 1.384 . S
N2732 C2728 1.427 . S
N2732 C2729 1.384 . S
N2733 C2725 1.427 . S
N2733 C2731 1.384 . S
H2734 C2740 0.930 . S
H2735 C2744 0.930 . S
H2736 C2749 0.929 . S
H2737 C2747 0.929 . S
H2738 C2742 0.929 . S
H2739 C2748 0.929 . S
C2740 H2734 0.930 . S
C2740 C2741 1.367 . S
C2740 C2748 1.378 . S
C2741 C2740 1.367 . S
C2741 C2749 1.433 . S
C2742 H2738 0.929 . S
C2742 C2744 1.378 . S
C2742 C2746 1.350 . S
C2743 C2746 1.463 1_556 S
C2743 C2748 1.350 . S
C2743 N2751 1.427 . S
C2744 H2735 0.930 . S
C2744 C2742 1.378 . S
C2744 C2745 1.367 . S
C2745 C2744 1.367 . S
C2745 C2747 1.433 . S
C2746 C2742 1.350 . S
C2746 C2743 1.463 1_554 S
C2746 N2750 1.427 . S
C2747 H2737 0.929 . S
C2747 C2745 1.433 . S
C2747 N2750 1.384 . S
C2748 H2739 0.929 . S
C2748 C2740 1.378 . S
C2748 C2743 1.350 . S
C2749 H2736 0.929 . S
C2749 C2741 1.433 . S
C2749 N2751 1.384 . S
N2750 C2746 1.427 . S
N2750 C2747 1.384 . S
N2751 C2743 1.427 . S
N2751 C2749 1.384 . S
H2752 C2758 0.930 . S
H2753 C2762 0.930 . S
H2754 C2767 0.929 . S
H2755 C2765 0.929 . S
H2756 C2760 0.929 . S
H2757 C2766 0.929 . S
C2758 H2752 0.930 . S
C2758 C2759 1.367 . S
C2758 C2766 1.378 . S
C2759 C2758 1.367 . S
C2759 C2767 1.433 . S
C2760 H2756 0.929 . S
C2760 C2762 1.378 . S
C2760 C2764 1.350 . S
C2761 C2764 1.463 . S
C2761 C2766 1.350 . S
C2761 N2769 1.427 . S
C2762 H2753 0.930 . S
C2762 C2760 1.378 . S
C2762 C2763 1.367 . S
C2763 C2762 1.367 . S
C2763 C2765 1.433 . S
C2764 C2760 1.350 . S
C2764 C2761 1.463 . S
C2764 N2768 1.427 . S
C2765 H2755 0.929 . S
C2765 C2763 1.433 . S
C2765 N2768 1.384 . S
C2766 H2757 0.929 . S
C2766 C2758 1.378 . S
C2766 C2761 1.350 . S
C2767 H2754 0.929 . S
C2767 C2759 1.433 . S
C2767 N2769 1.384 . S
N2768 C2764 1.427 . S
N2768 C2765 1.384 . S
N2769 C2761 1.427 . S
N2769 C2767 1.384 . S
H2770 C2776 0.930 . S
H2771 C2780 0.930 . S
H2772 C2785 0.929 . S
H2773 C2783 0.929 . S
H2774 C2778 0.929 . S
H2775 C2784 0.929 . S
C2776 H2770 0.930 . S
C2776 C2777 1.367 . S
C2776 C2784 1.378 . S
C2777 C2776 1.367 . S
C2777 C2785 1.433 . S
C2778 H2774 0.929 . S
C2778 C2780 1.378 . S
C2778 C2782 1.350 . S
C2779 C2782 1.463 . S
C2779 C2784 1.350 . S
C2779 N2787 1.427 . S
C2780 H2771 0.930 . S
C2780 C2778 1.378 . S
C2780 C2781 1.367 . S
C2781 C2780 1.367 . S
C2781 C2783 1.433 . S
C2782 C2778 1.350 . S
C2782 C2779 1.463 . S
C2782 N2786 1.427 . S
C2783 H2773 0.929 . S
C2783 C2781 1.433 . S
C2783 N2786 1.384 . S
C2784 H2775 0.929 . S
C2784 C2776 1.378 . S
C2784 C2779 1.350 . S
C2785 H2772 0.929 . S
C2785 C2777 1.433 . S
C2785 N2787 1.384 . S
N2786 C2782 1.427 . S
N2786 C2783 1.384 . S
N2787 C2779 1.427 . S
N2787 C2785 1.384 . S
H2788 C2794 0.930 . S
H2789 C2798 0.930 . S
H2790 C2803 0.929 . S
H2791 C2801 0.929 . S
H2792 C2796 0.929 . S
H2793 C2802 0.929 . S
C2794 H2788 0.930 . S
C2794 C2795 1.367 . S
C2794 C2802 1.378 . S
C2795 C2794 1.367 . S
C2795 C2803 1.433 . S
C2796 H2792 0.929 . S
C2796 C2798 1.378 . S
C2796 C2800 1.350 . S
C2797 C2800 1.463 . S
C2797 C2802 1.350 . S
C2797 N2805 1.427 . S
C2798 H2789 0.930 . S
C2798 C2796 1.378 . S
C2798 C2799 1.367 . S
C2799 C2798 1.367 . S
C2799 C2801 1.433 . S
C2800 C2796 1.350 . S
C2800 C2797 1.463 . S
C2800 N2804 1.427 . S
C2801 H2791 0.929 . S
C2801 C2799 1.433 . S
C2801 N2804 1.384 . S
C2802 H2793 0.929 . S
C2802 C2794 1.378 . S
C2802 C2797 1.350 . S
C2803 H2790 0.929 . S
C2803 C2795 1.433 . S
C2803 N2805 1.384 . S
N2804 C2800 1.427 . S
N2804 C2801 1.384 . S
N2805 C2797 1.427 . S
N2805 C2803 1.384 . S
H2806 C2812 0.930 . S
H2807 C2816 0.930 . S
H2808 C2821 0.929 . S
H2809 C2819 0.929 . S
H2810 C2814 0.929 . S
H2811 C2820 0.929 . S
C2812 H2806 0.930 . S
C2812 C2813 1.367 . S
C2812 C2820 1.378 . S
C2813 C2812 1.367 . S
C2813 C2821 1.433 . S
C2814 H2810 0.929 . S
C2814 C2816 1.378 . S
C2814 C2818 1.350 . S
C2815 C2818 1.463 . S
C2815 C2820 1.350 . S
C2815 N2823 1.427 . S
C2816 H2807 0.930 . S
C2816 C2814 1.378 . S
C2816 C2817 1.367 . S
C2817 C2816 1.367 . S
C2817 C2819 1.433 . S
C2818 C2814 1.350 . S
C2818 C2815 1.463 . S
C2818 N2822 1.427 . S
C2819 H2809 0.929 . S
C2819 C2817 1.433 . S
C2819 N2822 1.384 . S
C2820 H2811 0.929 . S
C2820 C2812 1.378 . S
C2820 C2815 1.350 . S
C2821 H2808 0.929 . S
C2821 C2813 1.433 . S
C2821 N2823 1.384 . S
N2822 C2818 1.427 . S
N2822 C2819 1.384 . S
N2823 C2815 1.427 . S
N2823 C2821 1.384 . S
H2824 C2830 0.930 . S
H2825 C2834 0.930 . S
H2826 C2839 0.929 . S
H2827 C2837 0.929 . S
H2828 C2832 0.929 . S
H2829 C2838 0.929 . S
C2830 H2824 0.930 . S
C2830 C2831 1.367 . S
C2830 C2838 1.378 . S
C2831 C2830 1.367 . S
C2831 C2839 1.433 . S
C2832 H2828 0.929 . S
C2832 C2834 1.378 . S
C2832 C2836 1.350 . S
C2833 C2836 1.463 . S
C2833 C2838 1.350 . S
C2833 N2841 1.427 . S
C2834 H2825 0.930 . S
C2834 C2832 1.378 . S
C2834 C2835 1.367 . S
C2835 C2834 1.367 . S
C2835 C2837 1.433 . S
C2836 C2832 1.350 . S
C2836 C2833 1.463 . S
C2836 N2840 1.427 . S
C2837 H2827 0.929 . S
C2837 C2835 1.433 . S
C2837 N2840 1.384 . S
C2838 H2829 0.929 . S
C2838 C2830 1.378 . S
C2838 C2833 1.350 . S
C2839 H2826 0.929 . S
C2839 C2831 1.433 . S
C2839 N2841 1.384 . S
N2840 C2836 1.427 . S
N2840 C2837 1.384 . S
N2841 C2833 1.427 . S
N2841 C2839 1.384 . S
H2842 C2848 0.930 . S
H2843 C2852 0.930 . S
H2844 C2857 0.929 . S
H2845 C2855 0.929 . S
H2846 C2850 0.929 . S
H2847 C2856 0.929 . S
C2848 H2842 0.930 . S
C2848 C2849 1.367 . S
C2848 C2856 1.378 . S
C2849 C2848 1.367 . S
C2849 C2857 1.433 . S
C2850 H2846 0.929 . S
C2850 C2852 1.378 . S
C2850 C2854 1.350 . S
C2851 C2854 1.463 . S
C2851 C2856 1.350 . S
C2851 N2859 1.427 . S
C2852 H2843 0.930 . S
C2852 C2850 1.378 . S
C2852 C2853 1.367 . S
C2853 C2852 1.367 . S
C2853 C2855 1.433 . S
C2854 C2850 1.350 . S
C2854 C2851 1.463 . S
C2854 N2858 1.427 . S
C2855 H2845 0.929 . S
C2855 C2853 1.433 . S
C2855 N2858 1.384 . S
C2856 H2847 0.929 . S
C2856 C2848 1.378 . S
C2856 C2851 1.350 . S
C2857 H2844 0.929 . S
C2857 C2849 1.433 . S
C2857 N2859 1.384 . S
N2858 C2854 1.427 . S
N2858 C2855 1.384 . S
N2859 C2851 1.427 . S
N2859 C2857 1.384 . S
H2860 C2866 0.930 . S
H2861 C2870 0.930 . S
H2862 C2875 0.929 . S
H2863 C2873 0.929 . S
H2864 C2868 0.929 . S
H2865 C2874 0.929 . S
C2866 H2860 0.930 . S
C2866 C2867 1.367 . S
C2866 C2874 1.378 . S
C2867 C2866 1.367 . S
C2867 C2875 1.433 . S
C2868 H2864 0.929 . S
C2868 C2870 1.378 . S
C2868 C2872 1.350 . S
C2869 C2872 1.463 . S
C2869 C2874 1.350 . S
C2869 N2877 1.427 . S
C2870 H2861 0.930 . S
C2870 C2868 1.378 . S
C2870 C2871 1.367 . S
C2871 C2870 1.367 . S
C2871 C2873 1.433 . S
C2872 C2868 1.350 . S
C2872 C2869 1.463 . S
C2872 N2876 1.427 . S
C2873 H2863 0.929 . S
C2873 C2871 1.433 . S
C2873 N2876 1.384 . S
C2874 H2865 0.929 . S
C2874 C2866 1.378 . S
C2874 C2869 1.350 . S
C2875 H2862 0.929 . S
C2875 C2867 1.433 . S
C2875 N2877 1.384 . S
N2876 C2872 1.427 . S
N2876 C2873 1.384 . S
N2877 C2869 1.427 . S
N2877 C2875 1.384 . S
H2878 C2884 0.930 . S
H2879 C2888 0.930 . S
H2880 C2893 0.929 . S
H2881 C2891 0.929 . S
H2882 C2886 0.929 . S
H2883 C2892 0.929 . S
C2884 H2878 0.930 . S
C2884 C2885 1.367 . S
C2884 C2892 1.378 . S
C2885 C2884 1.367 . S
C2885 C2893 1.433 . S
C2886 H2882 0.929 . S
C2886 C2888 1.378 . S
C2886 C2890 1.350 . S
C2887 C2890 1.463 . S
C2887 C2892 1.350 . S
C2887 N2895 1.427 . S
C2888 H2879 0.930 . S
C2888 C2886 1.378 . S
C2888 C2889 1.367 . S
C2889 C2888 1.367 . S
C2889 C2891 1.433 . S
C2890 C2886 1.350 . S
C2890 C2887 1.463 . S
C2890 N2894 1.427 . S
C2891 H2881 0.929 . S
C2891 C2889 1.433 . S
C2891 N2894 1.384 . S
C2892 H2883 0.929 . S
C2892 C2884 1.378 . S
C2892 C2887 1.350 . S
C2893 H2880 0.929 . S
C2893 C2885 1.433 . S
C2893 N2895 1.384 . S
N2894 C2890 1.427 . S
N2894 C2891 1.384 . S
N2895 C2887 1.427 . S
N2895 C2893 1.384 . S
H2896 C2902 0.930 . S
H2897 C2906 0.930 . S
H2898 C2911 0.929 . S
H2899 C2909 0.929 . S
H2900 C2904 0.929 . S
H2901 C2910 0.929 . S
C2902 H2896 0.930 . S
C2902 C2903 1.367 . S
C2902 C2910 1.378 . S
C2903 C2902 1.367 . S
C2903 C2911 1.433 . S
C2904 H2900 0.929 . S
C2904 C2906 1.378 . S
C2904 C2908 1.350 . S
C2905 C2908 1.463 . S
C2905 C2910 1.350 . S
C2905 N2913 1.427 . S
C2906 H2897 0.930 . S
C2906 C2904 1.378 . S
C2906 C2907 1.367 . S
C2907 C2906 1.367 . S
C2907 C2909 1.433 . S
C2908 C2904 1.350 . S
C2908 C2905 1.463 . S
C2908 N2912 1.427 . S
C2909 H2899 0.929 . S
C2909 C2907 1.433 . S
C2909 N2912 1.384 . S
C2910 H2901 0.929 . S
C2910 C2902 1.378 . S
C2910 C2905 1.350 . S
C2911 H2898 0.929 . S
C2911 C2903 1.433 . S
C2911 N2913 1.384 . S
N2912 C2908 1.427 . S
N2912 C2909 1.384 . S
N2913 C2905 1.427 . S
N2913 C2911 1.384 . S
H2914 C2920 0.930 . S
H2915 C2924 0.930 . S
H2916 C2929 0.929 . S
H2917 C2927 0.929 . S
H2918 C2922 0.929 . S
H2919 C2928 0.929 . S
C2920 H2914 0.930 . S
C2920 C2921 1.367 . S
C2920 C2928 1.378 . S
C2921 C2920 1.367 . S
C2921 C2929 1.433 . S
C2922 H2918 0.929 . S
C2922 C2924 1.378 . S
C2922 C2926 1.350 . S
C2923 C2926 1.463 . S
C2923 C2928 1.350 . S
C2923 N2931 1.427 . S
C2924 H2915 0.930 . S
C2924 C2922 1.378 . S
C2924 C2925 1.367 . S
C2925 C2924 1.367 . S
C2925 C2927 1.433 . S
C2926 C2922 1.350 . S
C2926 C2923 1.463 . S
C2926 N2930 1.427 . S
C2927 H2917 0.929 . S
C2927 C2925 1.433 . S
C2927 N2930 1.384 . S
C2928 H2919 0.929 . S
C2928 C2920 1.378 . S
C2928 C2923 1.350 . S
C2929 H2916 0.929 . S
C2929 C2921 1.433 . S
C2929 N2931 1.384 . S
N2930 C2926 1.427 . S
N2930 C2927 1.384 . S
N2931 C2923 1.427 . S
N2931 C2929 1.384 . S
H2932 C2938 0.930 . S
H2933 C2942 0.930 . S
H2934 C2947 0.929 . S
H2935 C2945 0.929 . S
H2936 C2940 0.929 . S
H2937 C2946 0.929 . S
C2938 H2932 0.930 . S
C2938 C2939 1.367 . S
C2938 C2946 1.378 . S
C2939 C2938 1.367 . S
C2939 C2947 1.433 . S
C2940 H2936 0.929 . S
C2940 C2942 1.378 . S
C2940 C2944 1.350 . S
C2941 C2944 1.463 . S
C2941 C2946 1.350 . S
C2941 N2949 1.427 . S
C2942 H2933 0.930 . S
C2942 C2940 1.378 . S
C2942 C2943 1.367 . S
C2943 C2942 1.367 . S
C2943 C2945 1.433 . S
C2944 C2940 1.350 . S
C2944 C2941 1.463 . S
C2944 N2948 1.427 . S
C2945 H2935 0.929 . S
C2945 C2943 1.433 . S
C2945 N2948 1.384 . S
C2946 H2937 0.929 . S
C2946 C2938 1.378 . S
C2946 C2941 1.350 . S
C2947 H2934 0.929 . S
C2947 C2939 1.433 . S
C2947 N2949 1.384 . S
N2948 C2944 1.427 . S
N2948 C2945 1.384 . S
N2949 C2941 1.427 . S
N2949 C2947 1.384 . S
H2950 C2956 0.930 . S
H2951 C2960 0.930 . S
H2952 C2965 0.929 . S
H2953 C2963 0.929 . S
H2954 C2958 0.929 . S
H2955 C2964 0.929 . S
C2956 H2950 0.930 . S
C2956 C2957 1.367 . S
C2956 C2964 1.378 . S
C2957 C2956 1.367 . S
C2957 C2965 1.433 . S
C2958 H2954 0.929 . S
C2958 C2960 1.378 . S
C2958 C2962 1.350 . S
C2959 C2962 1.463 . S
C2959 C2964 1.350 . S
C2959 N2967 1.427 . S
C2960 H2951 0.930 . S
C2960 C2958 1.378 . S
C2960 C2961 1.367 . S
C2961 C2960 1.367 . S
C2961 C2963 1.433 . S
C2962 C2958 1.350 . S
C2962 C2959 1.463 . S
C2962 N2966 1.427 . S
C2963 H2953 0.929 . S
C2963 C2961 1.433 . S
C2963 N2966 1.384 . S
C2964 H2955 0.929 . S
C2964 C2956 1.378 . S
C2964 C2959 1.350 . S
C2965 H2952 0.929 . S
C2965 C2957 1.433 . S
C2965 N2967 1.384 . S
N2966 C2962 1.427 . S
N2966 C2963 1.384 . S
N2967 C2959 1.427 . S
N2967 C2965 1.384 . S
H2968 C2974 0.930 . S
H2969 C2978 0.930 . S
H2970 C2983 0.929 . S
H2971 C2981 0.929 . S
H2972 C2976 0.929 . S
H2973 C2982 0.929 . S
C2974 H2968 0.930 . S
C2974 C2975 1.367 . S
C2974 C2982 1.378 . S
C2975 C2974 1.367 . S
C2975 C2983 1.433 . S
C2976 H2972 0.929 . S
C2976 C2978 1.378 . S
C2976 C2980 1.350 . S
C2977 C2980 1.463 . S
C2977 C2982 1.350 . S
C2977 N2985 1.427 . S
C2978 H2969 0.930 . S
C2978 C2976 1.378 . S
C2978 C2979 1.367 . S
C2979 C2978 1.367 . S
C2979 C2981 1.433 . S
C2980 C2976 1.350 . S
C2980 C2977 1.463 . S
C2980 N2984 1.427 . S
C2981 H2971 0.929 . S
C2981 C2979 1.433 . S
C2981 N2984 1.384 . S
C2982 H2973 0.929 . S
C2982 C2974 1.378 . S
C2982 C2977 1.350 . S
C2983 H2970 0.929 . S
C2983 C2975 1.433 . S
C2983 N2985 1.384 . S
N2984 C2980 1.427 . S
N2984 C2981 1.384 . S
N2985 C2977 1.427 . S
N2985 C2983 1.384 . S
H2986 C2992 0.930 . S
H2987 C2996 0.930 . S
H2988 C3001 0.929 . S
H2989 C2999 0.929 . S
H2990 C2994 0.929 . S
H2991 C3000 0.929 . S
C2992 H2986 0.930 . S
C2992 C2993 1.367 . S
C2992 C3000 1.378 . S
C2993 C2992 1.367 . S
C2993 C3001 1.433 . S
C2994 H2990 0.929 . S
C2994 C2996 1.378 . S
C2994 C2998 1.350 . S
C2995 C2998 1.463 . S
C2995 C3000 1.350 . S
C2995 N3003 1.427 . S
C2996 H2987 0.930 . S
C2996 C2994 1.378 . S
C2996 C2997 1.367 . S
C2997 C2996 1.367 . S
C2997 C2999 1.433 . S
C2998 C2994 1.350 . S
C2998 C2995 1.463 . S
C2998 N3002 1.427 . S
C2999 H2989 0.929 . S
C2999 C2997 1.433 . S
C2999 N3002 1.384 . S
C3000 H2991 0.929 . S
C3000 C2992 1.378 . S
C3000 C2995 1.350 . S
C3001 H2988 0.929 . S
C3001 C2993 1.433 . S
C3001 N3003 1.384 . S
N3002 C2998 1.427 . S
N3002 C2999 1.384 . S
N3003 C2995 1.427 . S
N3003 C3001 1.384 . S
H3004 C3010 0.930 . S
H3005 C3014 0.930 . S
H3006 C3019 0.929 . S
H3007 C3017 0.929 . S
H3008 C3012 0.929 . S
H3009 C3018 0.929 . S
C3010 H3004 0.930 . S
C3010 C3011 1.367 . S
C3010 C3018 1.378 . S
C3011 C3010 1.367 . S
C3011 C3019 1.433 . S
C3012 H3008 0.929 . S
C3012 C3014 1.378 . S
C3012 C3016 1.350 . S
C3013 C3016 1.463 . S
C3013 C3018 1.350 . S
C3013 N3021 1.427 . S
C3014 H3005 0.930 . S
C3014 C3012 1.378 . S
C3014 C3015 1.367 . S
C3015 C3014 1.367 . S
C3015 C3017 1.433 . S
C3016 C3012 1.350 . S
C3016 C3013 1.463 . S
C3016 N3020 1.427 . S
C3017 H3007 0.929 . S
C3017 C3015 1.433 . S
C3017 N3020 1.384 . S
C3018 H3009 0.929 . S
C3018 C3010 1.378 . S
C3018 C3013 1.350 . S
C3019 H3006 0.929 . S
C3019 C3011 1.433 . S
C3019 N3021 1.384 . S
N3020 C3016 1.427 . S
N3020 C3017 1.384 . S
N3021 C3013 1.427 . S
N3021 C3019 1.384 . S
H3022 C3028 0.930 . S
H3023 C3032 0.930 . S
H3024 C3037 0.929 . S
H3025 C3035 0.929 . S
H3026 C3030 0.929 . S
H3027 C3036 0.929 . S
C3028 H3022 0.930 . S
C3028 C3029 1.367 . S
C3028 C3036 1.378 . S
C3029 C3028 1.367 . S
C3029 C3037 1.433 . S
C3030 H3026 0.929 . S
C3030 C3032 1.378 . S
C3030 C3034 1.350 . S
C3031 C3034 1.463 . S
C3031 C3036 1.350 . S
C3031 N3039 1.427 . S
C3032 H3023 0.930 . S
C3032 C3030 1.378 . S
C3032 C3033 1.367 . S
C3033 C3032 1.367 . S
C3033 C3035 1.433 . S
C3034 C3030 1.350 . S
C3034 C3031 1.463 . S
C3034 N3038 1.427 . S
C3035 H3025 0.929 . S
C3035 C3033 1.433 . S
C3035 N3038 1.384 . S
C3036 H3027 0.929 . S
C3036 C3028 1.378 . S
C3036 C3031 1.350 . S
C3037 H3024 0.929 . S
C3037 C3029 1.433 . S
C3037 N3039 1.384 . S
N3038 C3034 1.427 . S
N3038 C3035 1.384 . S
N3039 C3031 1.427 . S
N3039 C3037 1.384 . S
C1895 C937 1.591 . S
C1899 C52 1.594 . S
C1913 C111 1.591 . S
C1917 C760 1.594 . S
C1931 C170 1.591 . S
C1935 C819 1.594 . S
C1949 C878 1.592 . S
C1953 C229 1.593 . S
C1967 C288 1.594 . S
C1971 C583 1.591 . S
C1985 C347 1.591 . S
C1989 C642 1.593 . S
C2003 C701 1.591 . S
C2007 C406 1.594 . S
C2021 C524 1.594 . S
C2025 C465 1.591 . S
C2039 C996 1.594 . S
C2043 C1881 1.591 . S
C2057 C1055 1.591 . S
C2061 C1704 1.594 . S
C2075 C1114 1.594 . S
C2079 C1763 1.591 . S
C2093 C1822 1.591 . S
C2097 C1173 1.594 . S
C2111 C1232 1.594 . S
C2115 C1527 1.591 . S
C2129 C1291 1.593 . S
C2133 C1586 1.592 . S
C2147 C1645 1.594 . S
C2151 C1350 1.591 . S
C2165 C1409 1.592 . S
C2169 C1468 1.593 . S
C2183 C713 1.541 . S
C2187 C5 1.540 . S
C2201 C64 1.540 . S
C2205 C772 1.541 . S
C2219 C831 1.539 . S
C2223 C123 1.542 . S
C2237 C182 1.539 . S
C2241 C890 1.541 . S
C2255 C241 1.539 . S
C2259 C477 1.542 . S
C2273 C536 1.542 . S
C2277 C300 1.539 . S
C2291 C595 1.542 . S
C2295 C359 1.539 . S
C2309 C654 1.542 . S
C2313 C418 1.539 . S
C2327 C949 1.542 . S
C2331 C1657 1.539 . S
C2345 C1716 1.539 . S
C2349 C1008 1.542 . S
C2363 C1067 1.539 . S
C2367 C1775 1.542 . S
C2381 C1126 1.540 . S
C2385 C1834 1.541 . S
C2399 C1421 1.539 . S
C2403 C1185 1.542 . S
C2417 C1244 1.542 . S
C2421 C1480 1.539 . S
C2435 C1303 1.542 . S
C2439 C1539 1.539 . S
C2453 C1362 1.541 . S
C2457 C1598 1.540 . S
C2471 C33 1.327 . S
C2475 C623 1.330 . S
C2489 C682 1.329 . S
C2493 C92 1.328 . S
C2507 C151 1.330 . S
C2511 C505 1.327 . S
C2525 C564 1.330 . S
C2529 C210 1.327 . S
C2543 C859 1.329 . S
C2547 C269 1.328 . S
C2561 C918 1.328 . S
C2565 C328 1.329 . S
C2579 C741 1.332 . S
C2583 C387 1.325 . S
C2597 C446 1.325 . S
C2601 C800 1.332 . S
C2615 C1567 1.332 . S
C2619 C977 1.325 . S
C2633 C1036 1.326 . S
C2637 C1626 1.331 . S
C2651 C1449 1.325 . S
C2655 C1095 1.332 . S
C2669 C1508 1.330 . S
C2673 C1154 1.327 . S
C2687 C1213 1.327 . S
C2691 C1803 1.331 . S
C2705 C1272 1.327 . S
C2709 C1862 1.331 . S
C2723 C1685 1.325 . S
C2727 C1331 1.332 . S
C2741 C1744 1.328 . S
C2745 C1390 1.330 . S
C2759 C1360 1.352 . S
C2763 C3 1.359 . S
C2777 C1183 1.357 . S
C2781 C62 1.356 . S
C2795 C1242 1.349 . S
C2799 C121 1.359 . S
C2813 C1301 1.358 . S
C2817 C180 1.354 . S
C2831 C1006 1.351 . S
C2835 C239 1.360 . S
C2849 C298 1.349 . S
C2853 C1065 1.359 . S
C2867 C357 1.355 . S
C2871 C1124 1.349 . S
C2885 C416 1.359 . S
C2889 C947 1.349 . S
C2903 C475 1.349 . S
C2907 C1832 1.359 . S
C2921 C1655 1.350 . S
C2925 C534 1.360 . S
C2939 C593 1.359 . S
C2943 C1714 1.349 . S
C2957 C652 1.353 . S
C2961 C1773 1.359 . S
C2975 C1478 1.357 . S
C2979 C711 1.349 . S
C2993 C1537 1.350 . S
C2997 C770 1.360 . S
C3011 C829 1.360 . S
C3015 C1596 1.351 . S
C3029 C888 1.349 . S
C3033 C1419 1.359 . S
