# Generated by pormake.
# Topology hbo, (4)-cn, num edge types: 1
# Building blocks:
#     Node 0, Type 0, BuildingBlock: KUFVIS_clean_sbu_0, # of connection points: 4
#     Node 1, Type 0, BuildingBlock: KUFVIS_clean_sbu_0, # of connection points: 4
#     Node 2, Type 0, BuildingBlock: KUFVIS_clean_sbu_0, # of connection points: 4
#     Node 3, Type 0, BuildingBlock: KUFVIS_clean_sbu_0, # of connection points: 4
#     Node 4, Type 0, BuildingBlock: KUFVIS_clean_sbu_0, # of connection points: 4
#     Node 5, Type 0, BuildingBlock: KUFVIS_clean_sbu_0, # of connection points: 4
#     Node 6, Type 0, BuildingBlock: KUFVIS_clean_sbu_0, # of connection points: 4
#     Node 7, Type 0, BuildingBlock: KUFVIS_clean_sbu_0, # of connection points: 4
#     Node 8, Type 0, BuildingBlock: KUFVIS_clean_sbu_0, # of connection points: 4
#     Node 9, Type 0, BuildingBlock: KUFVIS_clean_sbu_0, # of connection points: 4
#     Node 10, Type 0, BuildingBlock: KUFVIS_clean_sbu_0, # of connection points: 4
#     Node 11, Type 0, BuildingBlock: KUFVIS_clean_sbu_0, # of connection points: 4
#     Node 12, Type 0, BuildingBlock: KUFVIS_clean_sbu_0, # of connection points: 4
#     Node 13, Type 0, BuildingBlock: KUFVIS_clean_sbu_0, # of connection points: 4
#     Node 14, Type 0, BuildingBlock: KUFVIS_clean_sbu_0, # of connection points: 4
#     Node 15, Type 0, BuildingBlock: KUFVIS_clean_sbu_0, # of connection points: 4
#     Node 16, Type 0, BuildingBlock: KUFVIS_clean_sbu_0, # of connection points: 4
#     Node 17, Type 0, BuildingBlock: KUFVIS_clean_sbu_0, # of connection points: 4
#     Node 18, Type 0, BuildingBlock: KUFVIS_clean_sbu_0, # of connection points: 4
#     Node 19, Type 0, BuildingBlock: KUFVIS_clean_sbu_0, # of connection points: 4
#     Node 20, Type 0, BuildingBlock: KUFVIS_clean_sbu_0, # of connection points: 4
#     Node 21, Type 0, BuildingBlock: KUFVIS_clean_sbu_0, # of connection points: 4
#     Node 22, Type 0, BuildingBlock: KUFVIS_clean_sbu_0, # of connection points: 4
#     Node 23, Type 0, BuildingBlock: KUFVIS_clean_sbu_0, # of connection points: 4
#     Edge 24, Type (0, 0), BuildingBlock: UVAHIK_clean_linker_0, # of connection points: 2
#     Edge 25, Type (0, 0), BuildingBlock: UVAHIK_clean_linker_0, # of connection points: 2
#     Edge 26, Type (0, 0), BuildingBlock: UVAHIK_clean_linker_0, # of connection points: 2
#     Edge 27, Type (0, 0), BuildingBlock: UVAHIK_clean_linker_0, # of connection points: 2
#     Edge 28, Type (0, 0), BuildingBlock: UVAHIK_clean_linker_0, # of connection points: 2
#     Edge 29, Type (0, 0), BuildingBlock: UVAHIK_clean_linker_0, # of connection points: 2
#     Edge 30, Type (0, 0), BuildingBlock: UVAHIK_clean_linker_0, # of connection points: 2
#     Edge 31, Type (0, 0), BuildingBlock: UVAHIK_clean_linker_0, # of connection points: 2
#     Edge 32, Type (0, 0), BuildingBlock: UVAHIK_clean_linker_0, # of connection points: 2
#     Edge 33, Type (0, 0), BuildingBlock: UVAHIK_clean_linker_0, # of connection points: 2
#     Edge 34, Type (0, 0), BuildingBlock: UVAHIK_clean_linker_0, # of connection points: 2
#     Edge 35, Type (0, 0), BuildingBlock: UVAHIK_clean_linker_0, # of connection points: 2
#     Edge 36, Type (0, 0), BuildingBlock: UVAHIK_clean_linker_0, # of connection points: 2
#     Edge 37, Type (0, 0), BuildingBlock: UVAHIK_clean_linker_0, # of connection points: 2
#     Edge 38, Type (0, 0), BuildingBlock: UVAHIK_clean_linker_0, # of connection points: 2
#     Edge 39, Type (0, 0), BuildingBlock: UVAHIK_clean_linker_0, # of connection points: 2
#     Edge 40, Type (0, 0), BuildingBlock: UVAHIK_clean_linker_0, # of connection points: 2
#     Edge 41, Type (0, 0), BuildingBlock: UVAHIK_clean_linker_0, # of connection points: 2
#     Edge 42, Type (0, 0), BuildingBlock: UVAHIK_clean_linker_0, # of connection points: 2
#     Edge 43, Type (0, 0), BuildingBlock: UVAHIK_clean_linker_0, # of connection points: 2
#     Edge 44, Type (0, 0), BuildingBlock: UVAHIK_clean_linker_0, # of connection points: 2
#     Edge 45, Type (0, 0), BuildingBlock: UVAHIK_clean_linker_0, # of connection points: 2
#     Edge 46, Type (0, 0), BuildingBlock: UVAHIK_clean_linker_0, # of connection points: 2
#     Edge 47, Type (0, 0), BuildingBlock: UVAHIK_clean_linker_0, # of connection points: 2
#     Edge 48, Type (0, 0), BuildingBlock: UVAHIK_clean_linker_0, # of connection points: 2
#     Edge 49, Type (0, 0), BuildingBlock: UVAHIK_clean_linker_0, # of connection points: 2
#     Edge 50, Type (0, 0), BuildingBlock: UVAHIK_clean_linker_0, # of connection points: 2
#     Edge 51, Type (0, 0), BuildingBlock: UVAHIK_clean_linker_0, # of connection points: 2
#     Edge 52, Type (0, 0), BuildingBlock: UVAHIK_clean_linker_0, # of connection points: 2
#     Edge 53, Type (0, 0), BuildingBlock: UVAHIK_clean_linker_0, # of connection points: 2
#     Edge 54, Type (0, 0), BuildingBlock: UVAHIK_clean_linker_0, # of connection points: 2
#     Edge 55, Type (0, 0), BuildingBlock: UVAHIK_clean_linker_0, # of connection points: 2
#     Edge 56, Type (0, 0), BuildingBlock: UVAHIK_clean_linker_0, # of connection points: 2
#     Edge 57, Type (0, 0), BuildingBlock: UVAHIK_clean_linker_0, # of connection points: 2
#     Edge 58, Type (0, 0), BuildingBlock: UVAHIK_clean_linker_0, # of connection points: 2
#     Edge 59, Type (0, 0), BuildingBlock: UVAHIK_clean_linker_0, # of connection points: 2
#     Edge 60, Type (0, 0), BuildingBlock: UVAHIK_clean_linker_0, # of connection points: 2
#     Edge 61, Type (0, 0), BuildingBlock: UVAHIK_clean_linker_0, # of connection points: 2
#     Edge 62, Type (0, 0), BuildingBlock: UVAHIK_clean_linker_0, # of connection points: 2
#     Edge 63, Type (0, 0), BuildingBlock: UVAHIK_clean_linker_0, # of connection points: 2
#     Edge 64, Type (0, 0), BuildingBlock: UVAHIK_clean_linker_0, # of connection points: 2
#     Edge 65, Type (0, 0), BuildingBlock: UVAHIK_clean_linker_0, # of connection points: 2
#     Edge 66, Type (0, 0), BuildingBlock: UVAHIK_clean_linker_0, # of connection points: 2
#     Edge 67, Type (0, 0), BuildingBlock: UVAHIK_clean_linker_0, # of connection points: 2
#     Edge 68, Type (0, 0), BuildingBlock: UVAHIK_clean_linker_0, # of connection points: 2
#     Edge 69, Type (0, 0), BuildingBlock: UVAHIK_clean_linker_0, # of connection points: 2
#     Edge 70, Type (0, 0), BuildingBlock: UVAHIK_clean_linker_0, # of connection points: 2
#     Edge 71, Type (0, 0), BuildingBlock: UVAHIK_clean_linker_0, # of connection points: 2
# Relax obj value: 0.251
# Max RMSD: 0.307
# Mean RMSD: 0.266
data_MOF--net-hbo--node1-KUFVIS_clean_sbu_0--edge1-UVAHIK_clean_linker_0
_symmetry_space_group_name_H-M    P1
_symmetry_Int_Tables_number       1
_symmetry_cell_setting            triclinic
loop_
_symmetry_equiv_pos_as_xyz
'x, y, z'
_cell_length_a     65.787792
_cell_length_b     67.36764
_cell_length_c     67.303266
_cell_angle_alpha  91.776171
_cell_angle_beta   89.973777
_cell_angle_gamma 96.24332
loop_
_atom_site_label
_atom_site_type_symbol
_atom_site_fract_x
_atom_site_fract_y
_atom_site_fract_z
_atom_type_partial_charge
Mn0 Mn 0.12734 0.33409 0.24434 0.0
Mn1 Mn 0.12806 0.3571 0.2004 0.0
C2 C 0.15788 0.34072 0.22794 0.0
C3 C 0.12091 0.30501 0.26203 0.0
C4 C 0.12543 0.37868 0.24039 0.0
O5 O 0.09751 0.33248 0.2365 0.0
O6 O 0.09983 0.34502 0.20593 0.0
C7 C 0.11902 0.32143 0.17383 0.0
N8 N 0.13132 0.33834 0.17911 0.0
C9 C 0.15355 0.33396 0.15131 0.0
C10 C 0.14107 0.31655 0.14549 0.0
C11 C 0.12378 0.31021 0.15686 0.0
C12 C 0.1481 0.34446 0.16842 0.0
H13 H 0.10567 0.3166 0.1825 0.0
C14 C 0.08949 0.33707 0.2203 0.0
O15 O 0.1194 0.32244 0.27033 0.0
O16 O 0.12635 0.30448 0.24348 0.0
N17 N 0.15417 0.36979 0.19267 0.0
C18 C 0.16503 0.38647 0.20076 0.0
C19 C 0.18306 0.39451 0.19146 0.0
C20 C 0.18951 0.38557 0.17375 0.0
C21 C 0.17785 0.36865 0.16549 0.0
C22 C 0.16007 0.36127 0.17546 0.0
H23 H 0.16001 0.39354 0.21423 0.0
O24 O 0.15766 0.33668 0.24669 0.0
O25 O 0.14019 0.33974 0.21905 0.0
O26 O 0.12727 0.36383 0.25127 0.0
O27 O 0.12498 0.37761 0.2214 0.0
C28 C 0.1833 0.35868 0.14789 0.0
C29 C 0.17125 0.34126 0.14089 0.0
H30 H 0.14466 0.30788 0.13238 0.0
H31 H 0.1141 0.29675 0.1525 0.0
H32 H 0.19194 0.4076 0.19789 0.0
H33 H 0.20347 0.39176 0.16666 0.0
H34 H 0.19684 0.36416 0.13972 0.0
H35 H 0.17579 0.33355 0.12752 0.0
Mn36 Mn 0.16151 0.62551 0.70312 0.0
Mn37 Mn 0.16122 0.62734 0.75325 0.0
C38 C 0.19057 0.6378 0.72046 0.0
C39 C 0.15651 0.64063 0.67337 0.0
C40 C 0.1624 0.58905 0.72843 0.0
O41 O 0.13124 0.62248 0.70974 0.0
O42 O 0.13279 0.62674 0.74315 0.0
C43 C 0.14756 0.66736 0.76046 0.0
N44 N 0.16168 0.65431 0.76306 0.0
C45 C 0.18266 0.67838 0.78342 0.0
C46 C 0.16829 0.69205 0.78106 0.0
C47 C 0.15068 0.68653 0.76949 0.0
C48 C 0.17867 0.65946 0.77416 0.0
H49 H 0.13403 0.66317 0.75154 0.0
C50 C 0.12281 0.62417 0.72673 0.0
O51 O 0.15633 0.62136 0.67397 0.0
O52 O 0.15882 0.65085 0.68998 0.0
N53 N 0.18791 0.62815 0.76479 0.0
C54 C 0.20088 0.61369 0.76449 0.0
C55 C 0.21958 0.61713 0.77476 0.0
C56 C 0.22467 0.6353 0.78532 0.0
C57 C 0.211 0.64989 0.78553 0.0
C58 C 0.19254 0.64558 0.77512 0.0
H59 H 0.19704 0.5997 0.7564 0.0
O60 O 0.19193 0.63127 0.70224 0.0
O61 O 0.17231 0.63687 0.72792 0.0
O62 O 0.16365 0.59693 0.71143 0.0
O63 O 0.16108 0.59908 0.74471 0.0
C64 C 0.21517 0.6687 0.79529 0.0
C65 C 0.20101 0.68294 0.79423 0.0
H66 H 0.1707 0.70689 0.78789 0.0
H67 H 0.13957 0.69703 0.76752 0.0
H68 H 0.23006 0.60581 0.7745 0.0
H69 H 0.23918 0.63796 0.79307 0.0
H70 H 0.22936 0.67249 0.80338 0.0
H71 H 0.20454 0.69746 0.80153 0.0
Mn72 Mn 0.86213 0.66188 0.25954 0.0
Mn73 Mn 0.87843 0.66173 0.30718 0.0
C74 C 0.8655 0.69112 0.27824 0.0
C75 C 0.83569 0.65578 0.23651 0.0
C76 C 0.9068 0.6614 0.27181 0.0
O77 O 0.85914 0.63275 0.26578 0.0
O78 O 0.86918 0.63378 0.29774 0.0
C79 C 0.83844 0.64904 0.32558 0.0
N80 N 0.85547 0.66238 0.32448 0.0
C81 C 0.84401 0.68235 0.35165 0.0
C82 C 0.82641 0.66874 0.35318 0.0
C83 C 0.82358 0.65205 0.34003 0.0
C84 C 0.85828 0.67856 0.33696 0.0
H85 H 0.83621 0.63619 0.3155 0.0
C86 C 0.86241 0.62427 0.2819 0.0
O87 O 0.85461 0.65495 0.23133 0.0
O88 O 0.83225 0.66068 0.25492 0.0
N89 N 0.88777 0.68742 0.31874 0.0
C90 C 0.90493 0.69975 0.31451 0.0
C91 C 0.90971 0.71745 0.32593 0.0
C92 C 0.89693 0.72217 0.34171 0.0
C93 C 0.87947 0.70915 0.34593 0.0
C94 C 0.87551 0.69171 0.33406 0.0
H95 H 0.91474 0.69624 0.30236 0.0
O96 O 0.86495 0.6915 0.25897 0.0
O97 O 0.86335 0.67356 0.28608 0.0
O98 O 0.89315 0.66165 0.25839 0.0
O99 O 0.90306 0.66152 0.29044 0.0
C100 C 0.86561 0.71298 0.36117 0.0
C101 C 0.84784 0.69965 0.36396 0.0
H102 H 0.8149 0.67104 0.36428 0.0
H103 H 0.80999 0.64154 0.34105 0.0
H104 H 0.92317 0.72745 0.32253 0.0
H105 H 0.90057 0.73592 0.35038 0.0
H106 H 0.86832 0.72628 0.37067 0.0
H107 H 0.83713 0.70294 0.37552 0.0
Mn108 Mn 0.84109 0.36806 0.7287 0.0
Mn109 Mn 0.85594 0.35899 0.68163 0.0
C110 C 0.8365 0.33622 0.71514 0.0
C111 C 0.81689 0.37569 0.75193 0.0
C112 C 0.88536 0.3654 0.71634 0.0
O113 O 0.8439 0.39546 0.71713 0.0
O114 O 0.85331 0.38809 0.68572 0.0
C115 C 0.81885 0.36852 0.66059 0.0
N116 N 0.83239 0.35528 0.66472 0.0
C117 C 0.81413 0.32984 0.64365 0.0
C118 C 0.80008 0.34326 0.63906 0.0
C119 C 0.80245 0.36267 0.64759 0.0
C120 C 0.8303 0.33657 0.65654 0.0
H121 H 0.8205 0.38341 0.66721 0.0
C122 C 0.84862 0.40044 0.69944 0.0
O123 O 0.83631 0.37874 0.75594 0.0
O124 O 0.81168 0.36945 0.73402 0.0
N125 N 0.85856 0.33138 0.67572 0.0
C126 C 0.87254 0.31982 0.68277 0.0
C127 C 0.87184 0.29976 0.67624 0.0
C128 C 0.85679 0.29179 0.66254 0.0
C129 C 0.84262 0.30399 0.65543 0.0
C130 C 0.84419 0.32394 0.66231 0.0
H131 H 0.88399 0.32578 0.69347 0.0
O132 O 0.83747 0.3391 0.73428 0.0
O133 O 0.8384 0.35211 0.7045 0.0
O134 O 0.87195 0.36818 0.72945 0.0
O135 O 0.88115 0.36194 0.69795 0.0
C136 C 0.82669 0.29701 0.64216 0.0
C137 C 0.81245 0.30991 0.63629 0.0
H138 H 0.7873 0.33875 0.62918 0.0
H139 H 0.7916 0.37308 0.64421 0.0
H140 H 0.88277 0.29041 0.68188 0.0
H141 H 0.85615 0.27624 0.65773 0.0
H142 H 0.82507 0.28164 0.63663 0.0
H143 H 0.80009 0.30428 0.62632 0.0
Mn144 Mn 0.21117 0.14233 0.36793 0.0
Mn145 Mn 0.26096 0.14604 0.3812 0.0
C146 C 0.23596 0.15216 0.34516 0.0
C147 C 0.18114 0.15752 0.36656 0.0
C148 C 0.23581 0.10666 0.37047 0.0
O149 O 0.20992 0.14128 0.39791 0.0
O150 O 0.24348 0.14652 0.40526 0.0
C151 C 0.26444 0.18736 0.39811 0.0
N152 N 0.27088 0.17363 0.38494 0.0
C153 C 0.29625 0.19806 0.3716 0.0
C154 C 0.29 0.21242 0.38513 0.0
C155 C 0.27399 0.20705 0.39841 0.0
C156 C 0.2862 0.17866 0.37203 0.0
H157 H 0.25207 0.18333 0.40826 0.0
C158 C 0.22462 0.14406 0.41033 0.0
O159 O 0.18062 0.13815 0.36568 0.0
O160 O 0.19888 0.16772 0.36874 0.0
N161 N 0.27983 0.14597 0.35953 0.0
C162 C 0.28382 0.13043 0.34722 0.0
C163 C 0.29929 0.13338 0.33288 0.0
C164 C 0.31064 0.15219 0.3315 0.0
C165 C 0.30657 0.16782 0.34463 0.0
C166 C 0.2911 0.16395 0.35874 0.0
H167 H 0.27517 0.11594 0.34819 0.0
O168 O 0.21761 0.14566 0.33929 0.0
O169 O 0.23909 0.15348 0.36424 0.0
O170 O 0.21915 0.11377 0.3662 0.0
O171 O 0.25188 0.11736 0.37686 0.0
C172 C 0.31706 0.18718 0.34409 0.0
C173 C 0.31187 0.2023 0.35753 0.0
H174 H 0.29727 0.22765 0.38537 0.0
H175 H 0.269 0.21808 0.40882 0.0
H176 H 0.30239 0.12121 0.32285 0.0
H177 H 0.3224 0.15446 0.32028 0.0
H178 H 0.32901 0.19065 0.33327 0.0
H179 H 0.3199 0.21717 0.35684 0.0
Mn180 Mn 0.37459 0.77799 0.84286 0.0
Mn181 Mn 0.36661 0.72978 0.85595 0.0
C182 C 0.34697 0.75744 0.83027 0.0
C183 C 0.38782 0.80282 0.82172 0.0
C184 C 0.35581 0.76411 0.88239 0.0
O185 O 0.4023 0.77339 0.85405 0.0
O186 O 0.39495 0.74131 0.86249 0.0
C187 C 0.39489 0.71317 0.82722 0.0
N188 N 0.37581 0.71309 0.8351 0.0
C189 C 0.36308 0.68474 0.81435 0.0
C190 C 0.38262 0.68445 0.80608 0.0
C191 C 0.39857 0.69878 0.81249 0.0
C192 C 0.36032 0.69947 0.82893 0.0
H193 H 0.40722 0.72411 0.83216 0.0
C194 C 0.40725 0.75736 0.86141 0.0
O195 O 0.38278 0.80707 0.8399 0.0
O196 O 0.38656 0.78405 0.8164 0.0
N197 N 0.33994 0.71645 0.85037 0.0
C198 C 0.32176 0.71951 0.85899 0.0
C199 C 0.30408 0.70687 0.85367 0.0
C200 C 0.30534 0.69102 0.83982 0.0
C201 C 0.32428 0.688 0.83135 0.0
C202 C 0.34135 0.70114 0.83714 0.0
H203 H 0.32074 0.7316 0.86974 0.0
O204 O 0.34675 0.77666 0.831 0.0
O205 O 0.36336 0.75066 0.83693 0.0
O206 O 0.36252 0.77805 0.87093 0.0
O207 O 0.35632 0.7456 0.87806 0.0
C208 C 0.32686 0.67263 0.81719 0.0
C209 C 0.34621 0.67109 0.80859 0.0
H210 H 0.38552 0.67336 0.79473 0.0
H211 H 0.41368 0.6987 0.80614 0.0
H212 H 0.28951 0.70931 0.86026 0.0
H213 H 0.29166 0.68134 0.8357 0.0
H214 H 0.31402 0.66203 0.81264 0.0
H215 H 0.3479 0.65942 0.79746 0.0
Mn216 Mn 0.74405 0.8591 0.35297 0.0
Mn217 Mn 0.69397 0.85711 0.36418 0.0
C218 C 0.71986 0.84763 0.3295 0.0
C219 C 0.77411 0.84411 0.35346 0.0
C220 C 0.72082 0.89555 0.35599 0.0
O221 O 0.74387 0.86155 0.38298 0.0
O222 O 0.71004 0.85613 0.38911 0.0
C223 C 0.68715 0.8162 0.37948 0.0
N224 N 0.68246 0.82995 0.3663 0.0
C225 C 0.65718 0.80625 0.35031 0.0
C226 C 0.66163 0.79188 0.36382 0.0
C227 C 0.6767 0.79688 0.37845 0.0
C228 C 0.66796 0.82532 0.35218 0.0
H229 H 0.69884 0.81992 0.39065 0.0
C230 C 0.72878 0.85859 0.39481 0.0
O231 O 0.77452 0.86337 0.35235 0.0
O232 O 0.75634 0.83375 0.35431 0.0
N233 N 0.67696 0.85748 0.34113 0.0
C234 C 0.67549 0.87261 0.32841 0.0
C235 C 0.66161 0.86979 0.31247 0.0
C236 C 0.64938 0.85147 0.30978 0.0
C237 C 0.65108 0.83616 0.32312 0.0
C238 C 0.66501 0.83991 0.33888 0.0
H239 H 0.68493 0.88668 0.33031 0.0
O240 O 0.73831 0.85392 0.32404 0.0
O241 O 0.71634 0.84808 0.34845 0.0
O242 O 0.73687 0.88755 0.35118 0.0
O243 O 0.70432 0.88563 0.36179 0.0
C244 C 0.63983 0.81717 0.32115 0.0
C245 C 0.64287 0.80223 0.33474 0.0
H246 H 0.65374 0.7769 0.36296 0.0
H247 H 0.68032 0.78583 0.38885 0.0
H248 H 0.66043 0.88165 0.3022 0.0
H249 H 0.63887 0.84926 0.29732 0.0
H250 H 0.62901 0.81381 0.30906 0.0
H251 H 0.63435 0.7876 0.33289 0.0
Mn252 Mn 0.64029 0.23399 0.85386 0.0
Mn253 Mn 0.63823 0.28042 0.87335 0.0
C254 C 0.66759 0.25817 0.84986 0.0
C255 C 0.63205 0.21014 0.82875 0.0
C256 C 0.6446 0.24446 0.89771 0.0
O257 O 0.61003 0.23501 0.86004 0.0
O258 O 0.61024 0.26785 0.86768 0.0
C259 C 0.62184 0.30013 0.83905 0.0
N260 N 0.63668 0.29936 0.85302 0.0
C261 C 0.65494 0.3299 0.84197 0.0
C262 C 0.6398 0.3311 0.82753 0.0
C263 C 0.62323 0.31609 0.826 0.0
C264 C 0.6528 0.31358 0.85447 0.0
H265 H 0.60903 0.28867 0.8379 0.0
C266 C 0.60089 0.2505 0.86372 0.0
O267 O 0.63547 0.20512 0.8468 0.0
O268 O 0.63353 0.22909 0.82519 0.0
N269 N 0.66456 0.29435 0.87927 0.0
C270 C 0.67832 0.2905 0.89339 0.0
C271 C 0.69611 0.30378 0.89641 0.0
C272 C 0.69943 0.321 0.8851 0.0
C273 C 0.68493 0.32477 0.87083 0.0
C274 C 0.66752 0.31099 0.86845 0.0
H275 H 0.67577 0.27741 0.90228 0.0
O276 O 0.67013 0.2394 0.84747 0.0
O277 O 0.64917 0.26213 0.85394 0.0
O278 O 0.64688 0.23241 0.88319 0.0
O279 O 0.64009 0.26225 0.89567 0.0
C280 C 0.68715 0.34158 0.85875 0.0
C281 C 0.67218 0.34413 0.84432 0.0
H282 H 0.64081 0.34339 0.81745 0.0
H283 H 0.61153 0.31687 0.81484 0.0
H284 H 0.70721 0.30078 0.90748 0.0
H285 H 0.71319 0.33118 0.88743 0.0
H286 H 0.70046 0.3525 0.86025 0.0
H287 H 0.67421 0.35696 0.83493 0.0
Mn288 Mn 0.26972 0.8498 0.63016 0.0
Mn289 Mn 0.22067 0.84684 0.61461 0.0
C290 C 0.25156 0.81892 0.62414 0.0
C291 C 0.29306 0.85394 0.65619 0.0
C292 C 0.25717 0.85767 0.58791 0.0
O293 O 0.26182 0.87781 0.63558 0.0
O294 O 0.22817 0.87297 0.62845 0.0
C295 C 0.20031 0.84627 0.65384 0.0
N296 N 0.20276 0.83768 0.63553 0.0
C297 C 0.17646 0.81097 0.64194 0.0
C298 C 0.17357 0.81958 0.66083 0.0
C299 C 0.18562 0.83726 0.66683 0.0
C300 C 0.19147 0.82052 0.62972 0.0
H301 H 0.20951 0.85989 0.65846 0.0
C302 C 0.24411 0.8838 0.63495 0.0
O303 O 0.29854 0.85842 0.6382 0.0
O304 O 0.27417 0.84686 0.65902 0.0
N305 N 0.21102 0.82233 0.60088 0.0
C306 C 0.21588 0.81584 0.58227 0.0
C307 C 0.20529 0.79826 0.57406 0.0
C308 C 0.18961 0.78774 0.58491 0.0
C309 C 0.1846 0.79493 0.60385 0.0
C310 C 0.19567 0.81253 0.61126 0.0
H311 H 0.22773 0.824 0.57374 0.0
O312 O 0.27138 0.82059 0.62501 0.0
O313 O 0.24302 0.83517 0.62756 0.0
O314 O 0.27106 0.85478 0.60038 0.0
O315 O 0.2381 0.85592 0.59204 0.0
C316 C 0.16909 0.78531 0.6157 0.0
C317 C 0.16512 0.79324 0.63479 0.0
H318 H 0.1622 0.81271 0.67087 0.0
H319 H 0.18353 0.84395 0.68141 0.0
H320 H 0.20918 0.79287 0.55938 0.0
H321 H 0.18153 0.77415 0.57856 0.0
H322 H 0.16027 0.77167 0.61036 0.0
H323 H 0.15336 0.78554 0.64387 0.0
Mn324 Mn 0.65255 0.71158 0.13489 0.0
Mn325 Mn 0.65702 0.76187 0.13385 0.0
C326 C 0.64903 0.73006 0.16371 0.0
C327 C 0.66889 0.683 0.13717 0.0
C328 C 0.61904 0.73537 0.12 0.0
O329 O 0.6656 0.71746 0.10825 0.0
O330 O 0.67027 0.75108 0.10986 0.0
C331 C 0.70191 0.76948 0.13893 0.0
N332 N 0.68273 0.77232 0.14523 0.0
C333 C 0.69612 0.79352 0.17267 0.0
C334 C 0.71602 0.79093 0.1664 0.0
C335 C 0.71891 0.77882 0.14949 0.0
C336 C 0.67977 0.78385 0.16154 0.0
H337 H 0.7042 0.76012 0.12598 0.0
C338 C 0.67228 0.73422 0.10115 0.0
O339 O 0.65094 0.6821 0.12892 0.0
O340 O 0.67715 0.7002 0.14387 0.0
N341 N 0.64507 0.77441 0.15623 0.0
C342 C 0.62491 0.77481 0.1607 0.0
C343 C 0.61937 0.78616 0.17729 0.0
C344 C 0.63459 0.79706 0.18904 0.0
C345 C 0.65523 0.79651 0.1841 0.0
C346 C 0.65982 0.78511 0.16726 0.0
H347 H 0.61313 0.7665 0.15171 0.0
O348 O 0.64188 0.71134 0.16268 0.0
O349 O 0.65829 0.73716 0.148 0.0
O350 O 0.62518 0.71865 0.1243 0.0
O351 O 0.62993 0.75219 0.12251 0.0
C352 C 0.67144 0.80666 0.19533 0.0
C353 C 0.69187 0.80509 0.18967 0.0
H354 H 0.72918 0.79806 0.17453 0.0
H355 H 0.73422 0.77666 0.14461 0.0
H356 H 0.60341 0.78649 0.18103 0.0
H357 H 0.63025 0.80574 0.20186 0.0
H358 H 0.66837 0.81552 0.20847 0.0
H359 H 0.7042 0.81274 0.19857 0.0
Mn360 Mn 0.70313 0.12268 0.64531 0.0
Mn361 Mn 0.75241 0.13248 0.63096 0.0
C362 C 0.72114 0.15298 0.65376 0.0
C363 C 0.67864 0.1103 0.66789 0.0
C364 C 0.71631 0.13465 0.60348 0.0
O365 O 0.71085 0.09523 0.63752 0.0
O366 O 0.74395 0.10326 0.62972 0.0
C367 C 0.77178 0.11407 0.66447 0.0
N368 N 0.77009 0.13018 0.65309 0.0
C369 C 0.79721 0.14972 0.67118 0.0
C370 C 0.79933 0.1333 0.68302 0.0
C371 C 0.7865 0.11543 0.67969 0.0
C372 C 0.78223 0.1475 0.65627 0.0
H373 H 0.76197 0.1003 0.66193 0.0
C374 C 0.72829 0.0905 0.63203 0.0
O375 O 0.67404 0.11219 0.64934 0.0
O376 O 0.69767 0.11458 0.67302 0.0
N377 N 0.76314 0.16007 0.63142 0.0
C378 C 0.75857 0.17477 0.61924 0.0
C379 C 0.76995 0.19365 0.62071 0.0
C380 C 0.78603 0.19716 0.63453 0.0
C381 C 0.79051 0.1818 0.64683 0.0
C382 C 0.77876 0.16324 0.64457 0.0
H383 H 0.74627 0.17216 0.60858 0.0
O384 O 0.70132 0.15102 0.65364 0.0
O385 O 0.72999 0.13708 0.64925 0.0
O386 O 0.70235 0.12986 0.61611 0.0
O387 O 0.73541 0.13577 0.60742 0.0
C388 C 0.80594 0.18427 0.66149 0.0
C389 C 0.80922 0.16827 0.67372 0.0
H390 H 0.81066 0.13429 0.69478 0.0
H391 H 0.78799 0.10271 0.68882 0.0
H392 H 0.76633 0.20547 0.61122 0.0
H393 H 0.79472 0.21176 0.63567 0.0
H394 H 0.81516 0.1985 0.66368 0.0
H395 H 0.82094 0.17043 0.68512 0.0
Mn396 Mn 0.34195 0.25532 0.15005 0.0
Mn397 Mn 0.33728 0.20512 0.14464 0.0
C398 C 0.33792 0.23615 0.17754 0.0
C399 C 0.32599 0.28424 0.14984 0.0
C400 C 0.37758 0.23129 0.1412 0.0
O401 O 0.33604 0.25025 0.12085 0.0
O402 O 0.33022 0.21659 0.11892 0.0
C403 C 0.29243 0.19795 0.13925 0.0
N404 N 0.30956 0.19484 0.14952 0.0
C405 C 0.28988 0.17419 0.17272 0.0
C406 C 0.27203 0.17704 0.16229 0.0
C407 C 0.27331 0.18899 0.1455 0.0
C408 C 0.30851 0.18337 0.1657 0.0
H409 H 0.29334 0.20728 0.12644 0.0
C410 C 0.33097 0.23385 0.11128 0.0
O411 O 0.34554 0.2849 0.14665 0.0
O412 O 0.31602 0.26704 0.15321 0.0
N413 N 0.34361 0.19216 0.16843 0.0
C414 C 0.36214 0.19167 0.17733 0.0
C415 C 0.36346 0.18071 0.19461 0.0
C416 C 0.34575 0.17033 0.20251 0.0
C417 C 0.3269 0.17089 0.19296 0.0
C418 C 0.32656 0.18185 0.17564 0.0
H419 H 0.37578 0.19968 0.17136 0.0
O420 O 0.34523 0.25479 0.17939 0.0
O421 O 0.33278 0.22953 0.15969 0.0
O422 O 0.37098 0.24793 0.14593 0.0
O423 O 0.36625 0.21462 0.13983 0.0
C424 C 0.30837 0.1613 0.20015 0.0
C425 C 0.28987 0.16296 0.19005 0.0
H426 H 0.25724 0.17028 0.16715 0.0
H427 H 0.25959 0.19136 0.13745 0.0
H428 H 0.37807 0.18036 0.2019 0.0
H429 H 0.34679 0.16211 0.21598 0.0
H430 H 0.30813 0.15282 0.21358 0.0
H431 H 0.27569 0.15573 0.19586 0.0
Mn432 Mn 0.86948 0.64841 0.71723 0.0
Mn433 Mn 0.86672 0.62366 0.76027 0.0
C434 C 0.84083 0.64878 0.73672 0.0
C435 C 0.8807 0.67689 0.70008 0.0
C436 C 0.85852 0.60331 0.71981 0.0
O437 O 0.89849 0.64254 0.7215 0.0
O438 O 0.89559 0.62758 0.75091 0.0
C439 C 0.88948 0.65532 0.78551 0.0
N440 N 0.87236 0.64242 0.78195 0.0
C441 C 0.85693 0.65282 0.81241 0.0
C442 C 0.87445 0.66612 0.81648 0.0
C443 C 0.89076 0.66742 0.80293 0.0
C444 C 0.85651 0.64118 0.79479 0.0
H445 H 0.90205 0.65634 0.77514 0.0
C446 C 0.90611 0.63432 0.73608 0.0
O447 O 0.87683 0.65967 0.69086 0.0
O448 O 0.87815 0.67751 0.71919 0.0
N449 N 0.84005 0.61856 0.77164 0.0
C450 C 0.82392 0.60561 0.76512 0.0
C451 C 0.80621 0.60278 0.77681 0.0
C452 C 0.80538 0.61308 0.79521 0.0
C453 C 0.82226 0.62615 0.80174 0.0
C454 C 0.83952 0.62831 0.78948 0.0
H455 H 0.82444 0.59771 0.75098 0.0
O456 O 0.84033 0.65335 0.71817 0.0
O457 O 0.85844 0.64497 0.74372 0.0
O458 O 0.86139 0.61895 0.70949 0.0
O459 O 0.86022 0.60345 0.73875 0.0
C460 C 0.82252 0.63739 0.81976 0.0
C461 C 0.83979 0.65079 0.82504 0.0
H462 H 0.8755 0.67548 0.8299 0.0
H463 H 0.9043 0.67771 0.80592 0.0
H464 H 0.79322 0.59272 0.77163 0.0
H465 H 0.79164 0.61097 0.80411 0.0
H466 H 0.80942 0.63601 0.82957 0.0
H467 H 0.8397 0.65954 0.83881 0.0
Mn468 Mn 0.84483 0.3694 0.26297 0.0
Mn469 Mn 0.84273 0.38296 0.21536 0.0
C470 C 0.81482 0.36274 0.24519 0.0
C471 C 0.85169 0.34559 0.28544 0.0
C472 C 0.84331 0.41214 0.25081 0.0
O473 O 0.87461 0.37442 0.25514 0.0
O474 O 0.87156 0.37978 0.22239 0.0
C475 C 0.85473 0.3467 0.19451 0.0
N476 N 0.84087 0.36007 0.19768 0.0
C477 C 0.81779 0.34302 0.17344 0.0
C478 C 0.83187 0.32914 0.16984 0.0
C479 C 0.85041 0.33098 0.18044 0.0
C480 C 0.82302 0.3585 0.1875 0.0
H481 H 0.86895 0.34799 0.20269 0.0
C482 C 0.88222 0.37706 0.23785 0.0
O483 O 0.85185 0.36423 0.29109 0.0
O484 O 0.84801 0.34103 0.26686 0.0
N485 N 0.81545 0.38591 0.20694 0.0
C486 C 0.80283 0.39952 0.21334 0.0
C487 C 0.78327 0.39913 0.2049 0.0
C488 C 0.7769 0.38479 0.18995 0.0
C489 C 0.79016 0.37095 0.18358 0.0
C490 C 0.80953 0.37215 0.19244 0.0
H491 H 0.80757 0.41049 0.22492 0.0
O492 O 0.81445 0.36337 0.26447 0.0
O493 O 0.8327 0.3661 0.23707 0.0
O494 O 0.8426 0.39935 0.26441 0.0
O495 O 0.84413 0.40753 0.23229 0.0
C496 C 0.78475 0.35576 0.16909 0.0
C497 C 0.79856 0.34181 0.16401 0.0
H498 H 0.82852 0.31688 0.15913 0.0
H499 H 0.8613 0.32025 0.17782 0.0
H500 H 0.77308 0.40979 0.20997 0.0
H501 H 0.76173 0.38442 0.18361 0.0
H502 H 0.76986 0.35445 0.162 0.0
H503 H 0.79408 0.32999 0.1531 0.0
Mn504 Mn 0.12844 0.33799 0.7637 0.0
Mn505 Mn 0.12298 0.36049 0.80871 0.0
C506 C 0.1562 0.3436 0.78434 0.0
C507 C 0.12338 0.30918 0.74368 0.0
C508 C 0.12814 0.38302 0.77041 0.0
O509 O 0.09807 0.33731 0.767 0.0
O510 O 0.09545 0.35017 0.79794 0.0
C511 C 0.10803 0.32425 0.83038 0.0
N512 N 0.12178 0.34071 0.82853 0.0
C513 C 0.13977 0.33312 0.85798 0.0
C514 C 0.12571 0.31615 0.8603 0.0
C515 C 0.10981 0.31167 0.8464 0.0
C516 C 0.13723 0.34507 0.84171 0.0
H517 H 0.09584 0.32074 0.81967 0.0
C518 C 0.08756 0.34232 0.78177 0.0
O519 O 0.12418 0.32679 0.73619 0.0
O520 O 0.12605 0.30837 0.76274 0.0
N521 N 0.14782 0.37159 0.82146 0.0
C522 C 0.16017 0.38844 0.81701 0.0
C523 C 0.17693 0.39493 0.82937 0.0
C524 C 0.1806 0.38427 0.84638 0.0
C525 C 0.16734 0.36731 0.85097 0.0
C526 C 0.15083 0.36162 0.83815 0.0
H527 H 0.15735 0.39678 0.80404 0.0
O528 O 0.15854 0.33944 0.76557 0.0
O529 O 0.13744 0.34303 0.79085 0.0
O530 O 0.13041 0.36801 0.75887 0.0
O531 O 0.12476 0.3817 0.78907 0.0
C532 C 0.17006 0.35564 0.86758 0.0
C533 C 0.15632 0.33851 0.87104 0.0
H534 H 0.12705 0.3064 0.87262 0.0
H535 H 0.09896 0.29855 0.84803 0.0
H536 H 0.18701 0.4081 0.82579 0.0
H537 H 0.19365 0.38921 0.85577 0.0
H538 H 0.18277 0.35959 0.87768 0.0
H539 H 0.15868 0.32955 0.88376 0.0
Mn540 Mn 0.15536 0.62518 0.25261 0.0
Mn541 Mn 0.14507 0.60543 0.20686 0.0
C542 C 0.18133 0.62452 0.22974 0.0
C543 C 0.15704 0.65319 0.27367 0.0
C544 C 0.14633 0.58101 0.24414 0.0
O545 O 0.12448 0.6234 0.25045 0.0
O546 O 0.11977 0.61544 0.21774 0.0
C547 C 0.13718 0.64125 0.18497 0.0
N548 N 0.14813 0.62544 0.18723 0.0
C549 C 0.16928 0.63479 0.15913 0.0
C550 C 0.15809 0.65105 0.15638 0.0
C551 C 0.14198 0.6543 0.16937 0.0
C552 C 0.1636 0.6221 0.17475 0.0
H553 H 0.12498 0.64396 0.19509 0.0
C554 C 0.11326 0.62059 0.23492 0.0
O555 O 0.15525 0.63537 0.28082 0.0
O556 O 0.15722 0.65453 0.25452 0.0
N557 N 0.16871 0.59571 0.19502 0.0
C558 C 0.17911 0.58042 0.20077 0.0
C559 C 0.19632 0.57583 0.18993 0.0
C560 C 0.20268 0.587 0.17334 0.0
C561 C 0.19173 0.60266 0.1677 0.0
C562 C 0.17455 0.6064 0.17892 0.0
H563 H 0.17441 0.57188 0.21361 0.0
O564 O 0.18554 0.62659 0.24857 0.0
O565 O 0.16208 0.62307 0.22507 0.0
O566 O 0.15349 0.59514 0.256 0.0
O567 O 0.14185 0.58354 0.22596 0.0
C568 C 0.19751 0.61502 0.15169 0.0
C569 C 0.18628 0.63105 0.14739 0.0
H570 H 0.16191 0.66131 0.14452 0.0
H571 H 0.13338 0.66693 0.16745 0.0
H572 H 0.20475 0.56379 0.19444 0.0
H573 H 0.21611 0.58356 0.16516 0.0
H574 H 0.21077 0.61252 0.14278 0.0
H575 H 0.19108 0.64066 0.13525 0.0
Mn576 Mn 0.77396 0.84722 0.6404 0.0
Mn577 Mn 0.72259 0.84119 0.63547 0.0
C578 C 0.75382 0.84314 0.66823 0.0
C579 C 0.80426 0.83265 0.63888 0.0
C580 C 0.74837 0.88128 0.63312 0.0
O581 O 0.76957 0.84176 0.61091 0.0
O582 O 0.73543 0.83428 0.60985 0.0
C583 C 0.71708 0.79723 0.62954 0.0
N584 N 0.71267 0.81397 0.63979 0.0
C585 C 0.68927 0.79468 0.66107 0.0
C586 C 0.69347 0.77723 0.65068 0.0
C587 C 0.70751 0.77851 0.6349 0.0
C588 C 0.69943 0.81288 0.65517 0.0
H589 H 0.72782 0.79818 0.61737 0.0
C590 C 0.75305 0.83592 0.60162 0.0
O591 O 0.80419 0.85171 0.63648 0.0
O592 O 0.78693 0.8223 0.64241 0.0
N593 N 0.7077 0.84727 0.65891 0.0
C594 C 0.70533 0.86551 0.66738 0.0
C595 C 0.69178 0.86687 0.68337 0.0
C596 C 0.68053 0.84952 0.69025 0.0
C597 C 0.68285 0.83098 0.68099 0.0
C598 C 0.69657 0.83056 0.66511 0.0
H599 H 0.71375 0.87893 0.66203 0.0
O600 O 0.77287 0.85028 0.66995 0.0
O601 O 0.7474 0.83774 0.65041 0.0
O602 O 0.76558 0.8753 0.63736 0.0
O603 O 0.73169 0.86967 0.63139 0.0
C604 C 0.6721 0.8129 0.68689 0.0
C605 C 0.67545 0.79474 0.67706 0.0
H606 H 0.68605 0.76278 0.65472 0.0
H607 H 0.71088 0.7651 0.62685 0.0
H608 H 0.68998 0.88126 0.69036 0.0
H609 H 0.67016 0.85061 0.70265 0.0
H610 H 0.66136 0.81277 0.6991 0.0
H611 H 0.66729 0.78091 0.68192 0.0
Mn612 Mn 0.62938 0.20814 0.14195 0.0
Mn613 Mn 0.63235 0.25661 0.12947 0.0
C614 C 0.65648 0.23023 0.15286 0.0
C615 C 0.61814 0.18265 0.16305 0.0
C616 C 0.64273 0.22335 0.10122 0.0
O617 O 0.60064 0.21106 0.13287 0.0
O618 O 0.60376 0.24386 0.12625 0.0
C619 C 0.60736 0.27148 0.16216 0.0
N620 N 0.62522 0.2726 0.15181 0.0
C621 C 0.63952 0.30083 0.17196 0.0
C622 C 0.62123 0.30006 0.18275 0.0
C623 C 0.60511 0.28528 0.17787 0.0
C624 C 0.64087 0.28669 0.15646 0.0
H625 H 0.59494 0.26013 0.15845 0.0
C626 C 0.59324 0.22678 0.12754 0.0
O627 O 0.62288 0.17882 0.1447 0.0
O628 O 0.61936 0.20128 0.16888 0.0
N629 N 0.65899 0.27105 0.13196 0.0
C630 C 0.67603 0.269 0.12089 0.0
C631 C 0.69368 0.28241 0.12415 0.0
C632 C 0.69359 0.29786 0.13864 0.0
C633 C 0.67587 0.29971 0.14981 0.0
C634 C 0.65868 0.28601 0.14578 0.0
H635 H 0.67621 0.25714 0.10978 0.0
O636 O 0.65805 0.21119 0.15203 0.0
O637 O 0.63909 0.23582 0.14739 0.0
O638 O 0.6393 0.20909 0.1132 0.0
O639 O 0.64044 0.24151 0.10576 0.0
C640 C 0.67472 0.31434 0.16506 0.0
C641 C 0.65658 0.31486 0.17618 0.0
H642 H 0.61945 0.31064 0.19491 0.0
H643 H 0.59098 0.28453 0.18619 0.0
H644 H 0.70734 0.28081 0.11554 0.0
H645 H 0.70728 0.30809 0.14119 0.0
H646 H 0.68781 0.32505 0.1686 0.0
H647 H 0.65599 0.32598 0.18807 0.0
Mn648 Mn 0.1969 0.1261 0.66064 0.0
Mn649 Mn 0.24776 0.13166 0.65279 0.0
C650 C 0.21873 0.13739 0.68627 0.0
C651 C 0.1663 0.13995 0.65866 0.0
C652 C 0.22265 0.09151 0.65768 0.0
O653 O 0.19934 0.12491 0.63056 0.0
O654 O 0.23322 0.13345 0.62721 0.0
C655 C 0.25313 0.17371 0.6405 0.0
N656 N 0.25797 0.15932 0.65289 0.0
C657 C 0.28217 0.18268 0.67073 0.0
C658 C 0.27755 0.19772 0.65807 0.0
C659 C 0.26292 0.19323 0.64293 0.0
C660 C 0.27196 0.1635 0.66756 0.0
H661 H 0.24186 0.17032 0.62887 0.0
C662 C 0.21512 0.12975 0.62002 0.0
O663 O 0.16639 0.12069 0.65919 0.0
O664 O 0.18372 0.15089 0.65917 0.0
N665 N 0.26367 0.1305 0.67645 0.0
C666 C 0.26558 0.11456 0.68804 0.0
C667 C 0.27925 0.1167 0.70418 0.0
C668 C 0.29091 0.13512 0.70816 0.0
C669 C 0.28882 0.15125 0.69593 0.0
C670 C 0.27508 0.1482 0.67996 0.0
H671 H 0.25673 0.10034 0.68502 0.0
O672 O 0.20009 0.13019 0.69006 0.0
O673 O 0.22377 0.13822 0.66765 0.0
O674 O 0.20567 0.09802 0.66218 0.0
O675 O 0.23872 0.10275 0.65293 0.0
C676 C 0.29957 0.17034 0.69917 0.0
C677 C 0.29621 0.18605 0.6866 0.0
H678 H 0.28499 0.21282 0.65995 0.0
H679 H 0.25919 0.20478 0.63316 0.0
H680 H 0.28076 0.10418 0.71356 0.0
H681 H 0.30133 0.13674 0.7207 0.0
H682 H 0.31021 0.17317 0.71147 0.0
H683 H 0.30432 0.20073 0.68943 0.0
Mn684 Mn 0.37031 0.76267 0.12578 0.0
Mn685 Mn 0.36354 0.71547 0.10639 0.0
C686 C 0.34201 0.7414 0.1343 0.0
C687 C 0.38321 0.78621 0.1499 0.0
C688 C 0.35542 0.75182 0.08347 0.0
O689 O 0.39856 0.75849 0.11533 0.0
O690 O 0.39274 0.72636 0.10452 0.0
C691 C 0.38719 0.69579 0.136 0.0
N692 N 0.36937 0.69701 0.12605 0.0
C693 C 0.35296 0.66825 0.1423 0.0
C694 C 0.37117 0.66662 0.15265 0.0
C695 C 0.38834 0.68048 0.14952 0.0
C696 C 0.35274 0.6838 0.129 0.0
H697 H 0.40041 0.70642 0.13364 0.0
C698 C 0.40459 0.74253 0.10777 0.0
O699 O 0.37875 0.79134 0.13213 0.0
O700 O 0.381 0.76725 0.1534 0.0
N701 N 0.33603 0.7029 0.10735 0.0
C702 C 0.31935 0.70717 0.09696 0.0
C703 C 0.30078 0.69495 0.09874 0.0
C704 C 0.29959 0.67838 0.11102 0.0
C705 C 0.317 0.67418 0.12142 0.0
C706 C 0.33513 0.68681 0.11895 0.0
H707 H 0.32017 0.71985 0.08747 0.0
O708 O 0.34178 0.76059 0.13627 0.0
O709 O 0.35877 0.73518 0.12751 0.0
O710 O 0.35987 0.76469 0.09747 0.0
O711 O 0.35663 0.73316 0.08515 0.0
C712 C 0.31697 0.6582 0.13444 0.0
C713 C 0.33493 0.65527 0.14491 0.0
H714 H 0.37211 0.65487 0.16314 0.0
H715 H 0.40242 0.67937 0.15751 0.0
H716 H 0.28739 0.69831 0.09069 0.0
H717 H 0.2852 0.66908 0.11247 0.0
H718 H 0.30315 0.64826 0.13674 0.0
H719 H 0.33464 0.64311 0.1551 0.0
Mn720 Mn 0.72109 0.14821 0.35723 0.0
Mn721 Mn 0.76763 0.14592 0.37702 0.0
C722 C 0.74529 0.17539 0.35524 0.0
C723 C 0.69881 0.13961 0.33098 0.0
C724 C 0.72916 0.15017 0.40113 0.0
O725 O 0.72233 0.11886 0.3624 0.0
O726 O 0.75589 0.11847 0.36886 0.0
C727 C 0.79053 0.13267 0.34208 0.0
N728 N 0.78837 0.14626 0.35713 0.0
C729 C 0.81928 0.16616 0.34773 0.0
C730 C 0.8219 0.15232 0.3322 0.0
C731 C 0.80743 0.13553 0.32934 0.0
C732 C 0.80218 0.16247 0.36001 0.0
H733 H 0.77941 0.11977 0.33983 0.0
C734 C 0.73799 0.10964 0.36511 0.0
O735 O 0.69204 0.14275 0.3488 0.0
O736 O 0.71846 0.14189 0.32833 0.0
N737 N 0.78066 0.17163 0.38535 0.0
C738 C 0.77522 0.18419 0.40021 0.0
C739 C 0.78769 0.20207 0.40453 0.0
C740 C 0.8057 0.20679 0.39364 0.0
C741 C 0.8111 0.19355 0.37855 0.0
C742 C 0.79813 0.17589 0.375 0.0
H743 H 0.76144 0.18064 0.40867 0.0
O744 O 0.72612 0.17742 0.35232 0.0
O745 O 0.74967 0.15741 0.35837 0.0
O746 O 0.71768 0.15388 0.38681 0.0
O747 O 0.74744 0.14575 0.39885 0.0
C748 C 0.82861 0.19738 0.36663 0.0
C749 C 0.83269 0.1837 0.35122 0.0
H750 H 0.83485 0.15453 0.32226 0.0
H751 H 0.80929 0.12483 0.31732 0.0
H752 H 0.78341 0.21222 0.41619 0.0
H753 H 0.81517 0.22069 0.39688 0.0
H754 H 0.83886 0.21096 0.36897 0.0
H755 H 0.84603 0.18697 0.34195 0.0
Mn756 Mn 0.34674 0.27116 0.86295 0.0
Mn757 Mn 0.37022 0.31476 0.88159 0.0
C758 C 0.32875 0.29835 0.86654 0.0
C759 C 0.33838 0.24918 0.83636 0.0
C760 C 0.35498 0.27999 0.90705 0.0
O761 O 0.37658 0.26708 0.86111 0.0
O762 O 0.39103 0.29721 0.87221 0.0
C763 C 0.38851 0.33067 0.84435 0.0
N764 N 0.37621 0.3327 0.86041 0.0
C765 C 0.36795 0.36465 0.84979 0.0
C766 C 0.38066 0.36297 0.83322 0.0
C767 C 0.39096 0.34589 0.83049 0.0
C768 C 0.36626 0.34908 0.86321 0.0
H769 H 0.39635 0.31751 0.84211 0.0
C770 C 0.39214 0.27946 0.86514 0.0
O771 O 0.33863 0.24297 0.85442 0.0
O772 O 0.34359 0.26806 0.83375 0.0
N773 N 0.35194 0.33322 0.89094 0.0
C774 C 0.33941 0.33202 0.90708 0.0
C775 C 0.32746 0.34761 0.91154 0.0
C776 C 0.32863 0.36432 0.89945 0.0
C777 C 0.34182 0.36533 0.88305 0.0
C778 C 0.35347 0.3494 0.87943 0.0
H779 H 0.33838 0.31917 0.91638 0.0
O780 O 0.31931 0.28043 0.86501 0.0
O781 O 0.34862 0.29994 0.86524 0.0
O782 O 0.34753 0.26847 0.89291 0.0
O783 O 0.36416 0.29744 0.9045 0.0
C784 C 0.34353 0.38131 0.86992 0.0
C785 C 0.35658 0.38097 0.8533 0.0
H786 H 0.38247 0.37462 0.82242 0.0
H787 H 0.4007 0.34443 0.81768 0.0
H788 H 0.31731 0.34672 0.92421 0.0
H789 H 0.31925 0.37624 0.90283 0.0
H790 H 0.33468 0.39381 0.87232 0.0
H791 H 0.35758 0.39322 0.84318 0.0
Mn792 Mn 0.28701 0.86608 0.33812 0.0
Mn793 Mn 0.2365 0.86155 0.3482 0.0
C794 C 0.26845 0.83499 0.33656 0.0
C795 C 0.31304 0.87224 0.31513 0.0
C796 C 0.26976 0.86868 0.37981 0.0
O797 O 0.27964 0.89462 0.33731 0.0
O798 O 0.2453 0.88908 0.33977 0.0
C799 C 0.22023 0.86607 0.30779 0.0
N800 N 0.2209 0.85523 0.32448 0.0
C801 C 0.19587 0.82959 0.31109 0.0
C802 C 0.19482 0.84054 0.29381 0.0
C803 C 0.20711 0.85883 0.29213 0.0
C804 C 0.20923 0.83757 0.32621 0.0
H805 H 0.22967 0.88012 0.30646 0.0
C806 C 0.26185 0.90056 0.33712 0.0
O807 O 0.31666 0.87479 0.33406 0.0
O808 O 0.29439 0.86656 0.30962 0.0
N809 N 0.22582 0.83556 0.35649 0.0
C810 C 0.22933 0.82644 0.37376 0.0
C811 C 0.21854 0.8078 0.37759 0.0
C812 C 0.20413 0.79885 0.36375 0.0
C813 C 0.20062 0.80861 0.34619 0.0
C814 C 0.21172 0.82723 0.34324 0.0
H815 H 0.24029 0.8333 0.38452 0.0
O816 O 0.28821 0.83654 0.33806 0.0
O817 O 0.26026 0.85161 0.33545 0.0
O818 O 0.28505 0.86715 0.36841 0.0
O819 O 0.25131 0.86763 0.37356 0.0
C820 C 0.18679 0.80047 0.33134 0.0
C821 C 0.18446 0.81092 0.31378 0.0
H822 H 0.18477 0.83498 0.28166 0.0
H823 H 0.20645 0.86731 0.2788 0.0
H824 H 0.22133 0.80036 0.39119 0.0
H825 H 0.19592 0.78443 0.36672 0.0
H826 H 0.17809 0.78604 0.33315 0.0
H827 H 0.17402 0.80437 0.30234 0.0
Mn828 Mn 0.6589 0.73742 0.85641 0.0
Mn829 Mn 0.64406 0.68932 0.86684 0.0
C830 C 0.67839 0.71302 0.84572 0.0
C831 C 0.65757 0.76454 0.83641 0.0
C832 C 0.6656 0.71915 0.89651 0.0
O833 O 0.62968 0.73812 0.86508 0.0
O834 O 0.62055 0.70554 0.87027 0.0
C835 C 0.61542 0.67984 0.8331 0.0
N836 N 0.63223 0.67593 0.84347 0.0
C837 C 0.63783 0.64865 0.82092 0.0
C838 C 0.62048 0.65229 0.81009 0.0
C839 C 0.60926 0.66798 0.81619 0.0
C840 C 0.64318 0.66091 0.8377 0.0
H841 H 0.60681 0.69195 0.83768 0.0
C842 C 0.61655 0.72373 0.86966 0.0
O843 O 0.66308 0.76698 0.85492 0.0
O844 O 0.65223 0.74645 0.82974 0.0
N845 N 0.66492 0.67173 0.86404 0.0
C846 C 0.68153 0.67047 0.87585 0.0
C847 C 0.6946 0.65577 0.87152 0.0
C848 C 0.69033 0.64237 0.85528 0.0
C849 C 0.67291 0.64367 0.84361 0.0
C850 C 0.66037 0.65855 0.84871 0.0
H851 H 0.68492 0.68074 0.88833 0.0
O852 O 0.68611 0.73156 0.84693 0.0
O853 O 0.65906 0.70926 0.85006 0.0
O854 O 0.66761 0.7339 0.885 0.0
O855 O 0.65667 0.70194 0.89139 0.0
C856 C 0.66768 0.63101 0.82692 0.0
C857 C 0.65017 0.63351 0.81556 0.0
H858 H 0.61573 0.64323 0.79698 0.0
H859 H 0.59591 0.67095 0.80785 0.0
H860 H 0.70799 0.65482 0.88064 0.0
H861 H 0.70056 0.63117 0.85188 0.0
H862 H 0.67714 0.61942 0.82257 0.0
H863 H 0.64642 0.62381 0.80265 0.0
C864 C 0.1518 0.55532 0.26933 0.0
C865 C 0.14233 0.56067 0.25183 0.0
C866 C 0.14796 0.5359 0.27626 0.0
C867 C 0.1114 0.4904 0.27162 0.0
H868 H 0.15878 0.4611 0.27515 0.0
C869 C 0.11304 0.41217 0.24049 0.0
C870 C 0.12388 0.39837 0.25002 0.0
C871 C 0.11279 0.43143 0.24846 0.0
C872 C 0.14537 0.46911 0.27485 0.0
H873 H 0.12099 0.55008 0.22825 0.0
H874 H 0.11431 0.51645 0.24032 0.0
H875 H 0.16343 0.49756 0.275 0.0
H876 H 0.14242 0.39356 0.27569 0.0
H877 H 0.14249 0.42778 0.28944 0.0
H878 H 0.09346 0.46194 0.27 0.0
C879 C 0.12461 0.52721 0.24874 0.0
C880 C 0.14804 0.48997 0.27473 0.0
C881 C 0.12865 0.54642 0.24169 0.0
C882 C 0.13392 0.40396 0.26809 0.0
C883 C 0.13398 0.42347 0.27593 0.0
C884 C 0.10874 0.4696 0.27174 0.0
C885 C 0.13428 0.52171 0.26601 0.0
C886 C 0.13115 0.50068 0.27197 0.0
C887 C 0.1236 0.43741 0.26601 0.0
C888 C 0.12579 0.45877 0.2722 0.0
H889 H 0.16243 0.56601 0.27746 0.0
H890 H 0.15568 0.53194 0.28954 0.0
H891 H 0.09811 0.49838 0.26985 0.0
H892 H 0.10504 0.4082 0.22662 0.0
H893 H 0.10494 0.44196 0.24032 0.0
C894 C 0.93935 0.6354 0.71794 0.0
C895 C 0.92825 0.63228 0.73564 0.0
C896 C 0.96018 0.63328 0.71731 0.0
C897 C 0.00564 0.63544 0.74854 0.0
H898 H 0.0278 0.60632 0.70441 0.0
C899 C 0.09023 0.62136 0.74606 0.0
C900 C 0.1003 0.62344 0.72769 0.0
C901 C 0.06906 0.62125 0.7472 0.0
C902 C 0.02189 0.61468 0.71671 0.0
H903 H 0.93038 0.62462 0.76661 0.0
H904 H 0.96694 0.62107 0.76548 0.0
H905 H 0.99106 0.60844 0.70625 0.0
H906 H 0.09598 0.62694 0.69608 0.0
H907 H 0.05903 0.62719 0.69815 0.0
H908 H 0.03642 0.64211 0.75881 0.0
C909 C 0.9594 0.62514 0.75213 0.0
C910 C 0.00086 0.61583 0.71779 0.0
C911 C 0.93848 0.62708 0.75273 0.0
C912 C 0.08868 0.6252 0.71044 0.0
C913 C 0.06749 0.62525 0.71162 0.0
C914 C 0.02668 0.63442 0.7474 0.0
C915 C 0.9704 0.62816 0.73439 0.0
C916 C 0.99257 0.62629 0.73366 0.0
C917 C 0.05747 0.62339 0.73004 0.0
C918 C 0.03505 0.62408 0.73143 0.0
H919 H 0.93195 0.63937 0.70448 0.0
H920 H 0.96836 0.63593 0.7035 0.0
H921 H -0.00034 0.64382 0.7608 0.0
H922 H 0.09868 0.61977 0.75963 0.0
H923 H 0.06178 0.61942 0.76156 0.0
C924 C 0.84063 0.44748 0.24208 0.0
C925 C 0.84362 0.43352 0.25658 0.0
C926 C 0.84222 0.4678 0.24702 0.0
C927 C 0.84205 0.50481 0.2884 0.0
H928 H 0.87117 0.53916 0.25016 0.0
C929 C 0.86316 0.59135 0.29853 0.0
C930 C 0.85876 0.6022 0.2818 0.0
C931 C 0.86105 0.57043 0.29754 0.0
C932 C 0.86295 0.52975 0.26094 0.0
H933 H 0.84993 0.42994 0.28785 0.0
H934 H 0.85299 0.46569 0.29642 0.0
H935 H 0.86802 0.50314 0.24455 0.0
H936 H 0.84769 0.59946 0.25128 0.0
H937 H 0.84415 0.5633 0.24967 0.0
H938 H 0.83706 0.53176 0.30473 0.0
C939 C 0.84927 0.46077 0.28126 0.0
C940 C 0.86108 0.50915 0.25771 0.0
C941 C 0.84758 0.44033 0.27632 0.0
C942 C 0.85149 0.59169 0.2644 0.0
C943 C 0.8495 0.57093 0.26341 0.0
C944 C 0.84402 0.52556 0.29169 0.0
C945 C 0.84699 0.47471 0.26654 0.0
C946 C 0.8502 0.49647 0.27112 0.0
C947 C 0.85465 0.56011 0.27979 0.0
C948 C 0.85409 0.53817 0.27771 0.0
H949 H 0.83724 0.44276 0.22679 0.0
H950 H 0.83987 0.47815 0.23545 0.0
H951 H 0.83357 0.49538 0.29898 0.0
H952 H 0.86867 0.59898 0.3122 0.0
H953 H 0.86507 0.56235 0.31038 0.0
C954 C 0.05625 0.33018 0.76225 0.0
C955 C 0.06515 0.34072 0.779 0.0
C956 C 0.03606 0.33184 0.75706 0.0
C957 C 0.98693 0.34689 0.77346 0.0
H958 H 0.98253 0.36266 0.71877 0.0
C959 C 0.91249 0.37178 0.74247 0.0
C960 C 0.90661 0.36479 0.72319 0.0
C961 C 0.93189 0.36942 0.74977 0.0
C962 C 0.9834 0.35802 0.73398 0.0
H963 H 0.05925 0.35987 0.80441 0.0
H964 H 0.02366 0.36262 0.79531 0.0
H965 H 0.01542 0.3555 0.73164 0.0
H966 H 0.91672 0.35029 0.69627 0.0
H967 H 0.95036 0.34573 0.70915 0.0
H968 H 0.95481 0.349 0.77572 0.0
C969 C 0.03253 0.35322 0.78619 0.0
C970 C 0.00224 0.35396 0.74135 0.0
C971 C 0.05287 0.35163 0.79138 0.0
C972 C 0.92077 0.35592 0.71116 0.0
C973 C 0.94011 0.35336 0.71854 0.0
C974 C 0.96797 0.35075 0.76602 0.0
C975 C 0.02427 0.34397 0.76855 0.0
C976 C 0.00415 0.34825 0.7611 0.0
C977 C 0.9458 0.35986 0.73802 0.0
C978 C 0.96599 0.35629 0.74615 0.0
H979 H 0.06516 0.32135 0.75256 0.0
H980 H 0.02986 0.32422 0.74361 0.0
H981 H 0.98805 0.34246 0.78872 0.0
H982 H 0.902 0.37887 0.75207 0.0
H983 H 0.93594 0.37499 0.76467 0.0
C984 C 0.12609 0.4197 0.77418 0.0
C985 C 0.12997 0.40318 0.76206 0.0
C986 C 0.12847 0.43887 0.76682 0.0
C987 C 0.15585 0.46945 0.72952 0.0
H988 H 0.1181 0.50696 0.74657 0.0
C989 C 0.16231 0.55486 0.71222 0.0
C990 C 0.16082 0.56703 0.72944 0.0
C991 C 0.15853 0.53405 0.71314 0.0
C992 C 0.1287 0.49661 0.74163 0.0
H993 H 0.13928 0.39392 0.73253 0.0
H994 H 0.14341 0.42769 0.71964 0.0
H995 H 0.1101 0.47158 0.75301 0.0
H996 H 0.15512 0.56675 0.76127 0.0
H997 H 0.14837 0.5307 0.76269 0.0
H998 H 0.17459 0.49481 0.71844 0.0
C999 C 0.13858 0.42563 0.73489 0.0
C1000 C 0.12417 0.47641 0.74534 0.0
C1001 C 0.13612 0.40632 0.74226 0.0
C1002 C 0.15628 0.55792 0.74767 0.0
C1003 C 0.15229 0.53727 0.74851 0.0
C1004 C 0.16032 0.48975 0.72566 0.0
C1005 C 0.13478 0.44208 0.74714 0.0
C1006 C 0.13803 0.46273 0.74 0.0
C1007 C 0.15296 0.5252 0.73122 0.0
C1008 C 0.14709 0.50352 0.73233 0.0
H1009 H 0.12139 0.41792 0.78951 0.0
H1010 H 0.12582 0.45128 0.77676 0.0
H1011 H 0.16684 0.45924 0.7253 0.0
H1012 H 0.16589 0.56139 0.69797 0.0
H1013 H 0.15921 0.52496 0.69965 0.0
C1014 C 0.94437 0.66922 0.27684 0.0
C1015 C 0.92799 0.65978 0.26555 0.0
C1016 C 0.96443 0.66632 0.2719 0.0
C1017 C -0.00361 0.64394 0.2328 0.0
H1018 H 0.0336 0.64331 0.2773 0.0
C1019 C 0.08167 0.63303 0.22182 0.0
C1020 C 0.09163 0.62391 0.23691 0.0
C1021 C 0.0616 0.63754 0.22447 0.0
C1022 C 0.02338 0.64304 0.26468 0.0
H1023 H 0.91958 0.64007 0.24017 0.0
H1024 H 0.95448 0.63391 0.23221 0.0
H1025 H -0.0009 0.65083 0.28321 0.0
H1026 H 0.08832 0.61129 0.26608 0.0
H1027 H 0.05295 0.61786 0.27026 0.0
H1028 H 0.02033 0.63464 0.21448 0.0
C1029 C 0.95207 0.64426 0.24439 0.0
C1030 C 0.00359 0.64787 0.26803 0.0
C1031 C 0.93201 0.64767 0.24899 0.0
C1032 C 0.08101 0.61862 0.25434 0.0
C1033 C 0.06078 0.62258 0.25678 0.0
C1034 C 0.01607 0.63859 0.22951 0.0
C1035 C 0.96856 0.65332 0.25597 0.0
C1036 C 0.98981 0.6485 0.25215 0.0
C1037 C 0.05092 0.63253 0.24208 0.0
C1038 C 0.02986 0.63807 0.24542 0.0
H1039 H 0.94169 0.67876 0.2896 0.0
H1040 H 0.97666 0.67411 0.2808 0.0
H1041 H 0.98639 0.64452 0.22012 0.0
H1042 H 0.08961 0.63733 0.20826 0.0
H1043 H 0.05473 0.64546 0.21292 0.0
C1044 C 0.84284 0.56801 0.71989 0.0
C1045 C 0.85321 0.58379 0.70952 0.0
C1046 C 0.83904 0.54909 0.71098 0.0
C1047 C 0.86189 0.51592 0.67812 0.0
H1048 H 0.81122 0.48231 0.6871 0.0
C1049 C 0.85604 0.42915 0.67655 0.0
C1050 C 0.84755 0.42148 0.69431 0.0
C1051 C 0.8546 0.44905 0.67184 0.0
C1052 C 0.82539 0.49153 0.68423 0.0
H1053 H 0.86745 0.59219 0.68148 0.0
H1054 H 0.86139 0.55852 0.66604 0.0
H1055 H 0.81182 0.51857 0.68999 0.0
H1056 H 0.83058 0.4286 0.72082 0.0
H1057 H 0.82815 0.46303 0.71263 0.0
H1058 H 0.8758 0.48878 0.67388 0.0
C1059 C 0.85589 0.56113 0.68097 0.0
C1060 C 0.82571 0.51222 0.6858 0.0
C1061 C 0.85931 0.58031 0.68979 0.0
C1062 C 0.83741 0.43401 0.70708 0.0
C1063 C 0.83577 0.4537 0.70227 0.0
C1064 C 0.86158 0.49514 0.67659 0.0
C1065 C 0.84583 0.54536 0.6916 0.0
C1066 C 0.84418 0.52452 0.68383 0.0
C1067 C 0.84434 0.46144 0.68464 0.0
C1068 C 0.84356 0.48281 0.68073 0.0
H1069 H 0.83799 0.57013 0.73511 0.0
H1070 H 0.83159 0.53711 0.71964 0.0
H1071 H 0.87634 0.52512 0.67663 0.0
H1072 H 0.86392 0.41986 0.66639 0.0
H1073 H 0.86142 0.45474 0.65822 0.0
C1074 C 0.91565 0.36844 0.25092 0.0
C1075 C 0.90413 0.37463 0.2351 0.0
C1076 C 0.93535 0.36324 0.2477 0.0
C1077 C 0.97907 0.36871 0.2139 0.0
H1078 H 0.99177 0.31929 0.23669 0.0
C1079 C 0.05734 0.34066 0.20147 0.0
C1080 C 0.06693 0.33532 0.21889 0.0
C1081 C 0.03646 0.34274 0.20137 0.0
C1082 C 0.98848 0.33315 0.2303 0.0
H1083 H 0.90476 0.38114 0.20367 0.0
H1084 H 0.93929 0.3722 0.19818 0.0
H1085 H 0.95783 0.33009 0.24132 0.0
H1086 H 0.06175 0.32646 0.24939 0.0
H1087 H 0.02552 0.33033 0.24926 0.0
H1088 H 0.00984 0.37211 0.20333 0.0
C1089 C 0.93295 0.37132 0.21302 0.0
C1090 C 0.96909 0.33935 0.23299 0.0
C1091 C 0.91317 0.37643 0.2162 0.0
C1092 C 0.0549 0.33068 0.23573 0.0
C1093 C 0.03406 0.33282 0.23564 0.0
C1094 C -0.00149 0.36257 0.21129 0.0
C1095 C 0.94401 0.36422 0.22865 0.0
C1096 C 0.96431 0.35733 0.22505 0.0
C1097 C 0.02476 0.33953 0.21867 0.0
C1098 C 0.00351 0.34485 0.21969 0.0
H1099 H 0.90923 0.36693 0.26569 0.0
H1100 H 0.94372 0.35818 0.26009 0.0
H1101 H 0.97581 0.38269 0.20772 0.0
H1102 H 0.06609 0.34411 0.18814 0.0
H1103 H 0.02961 0.3475 0.18793 0.0
C1104 C 0.22896 0.14042 0.58704 0.0
C1105 C 0.21245 0.13208 0.59843 0.0
C1106 C 0.22654 0.14332 0.56684 0.0
C1107 C 0.1965 0.12524 0.52338 0.0
H1108 H 0.22253 0.17392 0.50093 0.0
C1109 C 0.20003 0.13813 0.4386 0.0
C1110 C 0.21979 0.1446 0.43176 0.0
C1111 C 0.1958 0.1382 0.45896 0.0
C1112 C 0.21516 0.16027 0.507 0.0
H1113 H 0.18044 0.12011 0.59741 0.0
H1114 H 0.17634 0.12506 0.56183 0.0
H1115 H 0.22101 0.17091 0.53692 0.0
H1116 H 0.25044 0.15665 0.44092 0.0
H1117 H 0.24305 0.15669 0.47625 0.0
H1118 H 0.19128 0.11437 0.49337 0.0
C1119 C 0.1911 0.12935 0.56872 0.0
C1120 C 0.21429 0.15854 0.52755 0.0
C1121 C 0.19347 0.12656 0.58906 0.0
C1122 C 0.23508 0.15147 0.44565 0.0
C1123 C 0.23081 0.15168 0.46592 0.0
C1124 C 0.19737 0.12697 0.50275 0.0
C1125 C 0.20761 0.1379 0.55749 0.0
C1126 C 0.20556 0.14078 0.53592 0.0
C1127 C 0.21118 0.14496 0.47278 0.0
C1128 C 0.2073 0.14427 0.4944 0.0
H1129 H 0.24379 0.14489 0.59372 0.0
H1130 H 0.23964 0.1496 0.55846 0.0
H1131 H 0.18975 0.11135 0.52947 0.0
H1132 H 0.1879 0.13275 0.42827 0.0
H1133 H 0.18052 0.133 0.46389 0.0
C1134 C 0.35218 0.78883 0.91056 0.0
C1135 C 0.34786 0.76944 0.90218 0.0
C1136 C 0.34703 0.7929 0.93033 0.0
C1137 C 0.31828 0.77125 0.97383 0.0
H1138 H 0.36591 0.79434 0.0037 0.0
C1139 C 0.33959 0.74508 0.04984 0.0
C1140 C 0.34882 0.75882 0.06414 0.0
C1141 C 0.33451 0.75137 0.03113 0.0
C1142 C 0.35225 0.78831 -0.00436 0.0
H1143 H 0.33327 0.73959 0.90746 0.0
H1144 H 0.32461 0.74658 0.94173 0.0
H1145 H 0.36533 0.79704 0.96777 0.0
H1146 H 0.35924 0.79011 0.07022 0.0
H1147 H 0.35066 0.80102 0.03724 0.0
H1148 H 0.30585 0.76133 0.00168 0.0
C1149 C 0.33185 0.75872 0.93315 0.0
C1150 C 0.3519 0.7899 0.97502 0.0
C1151 C 0.33706 0.75463 0.91351 0.0
C1152 C 0.35221 0.77913 0.05951 0.0
C1153 C 0.34733 0.7854 0.04066 0.0
C1154 C 0.31869 0.76958 0.99444 0.0
C1155 C 0.33732 0.77771 0.94199 0.0
C1156 C 0.33531 0.78056 0.96381 0.0
C1157 C 0.33869 0.77152 0.02621 0.0
C1158 C 0.33607 0.77732 0.00541 0.0
H1159 H 0.36037 0.80061 0.90218 0.0
H1160 H 0.35127 0.80774 0.9367 0.0
H1161 H 0.3051 0.76427 0.96562 0.0
H1162 H 0.33662 0.72935 0.05295 0.0
H1163 H 0.32816 0.74027 0.0202 0.0
C1164 C 0.7535 0.85936 0.4232 0.0
C1165 C 0.73327 0.85617 0.41605 0.0
C1166 C 0.75798 0.85515 0.44278 0.0
C1167 C 0.73796 0.82469 0.48414 0.0
H1168 H 0.77234 0.86277 0.51717 0.0
C1169 C 0.73602 0.82594 0.56911 0.0
C1170 C 0.75395 0.83242 0.57987 0.0
C1171 C 0.7361 0.82559 0.54841 0.0
C1172 C 0.76309 0.85176 0.50803 0.0
H1173 H 0.70184 0.8465 0.4241 0.0
H1174 H 0.70971 0.83935 0.45828 0.0
H1175 H 0.76715 0.86967 0.48232 0.0
H1176 H 0.78641 0.8421 0.57727 0.0
H1177 H 0.78651 0.8413 0.54103 0.0
H1178 H 0.73356 0.80696 0.50992 0.0
C1179 C 0.7221 0.84484 0.4486 0.0
C1180 C 0.76004 0.85578 0.48811 0.0
C1181 C 0.71758 0.84915 0.42908 0.0
C1182 C 0.77228 0.83723 0.56945 0.0
C1183 C 0.77234 0.83688 0.5487 0.0
C1184 C 0.74106 0.82064 0.50403 0.0
C1185 C 0.74236 0.84755 0.45555 0.0
C1186 C 0.74706 0.8425 0.47613 0.0
C1187 C 0.75411 0.83164 0.538 0.0
C1188 C 0.75327 0.83436 0.5163 0.0
H1189 H 0.76597 0.86475 0.41357 0.0
H1190 H 0.77374 0.85735 0.44778 0.0
H1191 H 0.7282 0.81402 0.47508 0.0
H1192 H 0.72167 0.82195 0.57664 0.0
H1193 H 0.72176 0.82163 0.54061 0.0
C1194 C 0.64209 0.20003 0.07152 0.0
C1195 C 0.64866 0.21867 0.08064 0.0
C1196 C 0.64503 0.19681 0.05115 0.0
C1197 C 0.63594 0.20641 0.00793 0.0
H1198 H 0.68492 0.22435 0.97849 0.0
C1199 C 0.636 0.24527 0.93374 0.0
C1200 C 0.64682 0.23732 0.91796 0.0
C1201 C 0.63751 0.2381 0.95282 0.0
C1202 C 0.67124 0.21896 0.98652 0.0
H1203 H 0.66481 0.24799 0.076 0.0
H1204 H 0.67034 0.2422 0.04066 0.0
H1205 H 0.68715 0.21945 0.01437 0.0
H1206 H 0.66799 0.21593 0.90972 0.0
H1207 H 0.6712 0.2039 0.94351 0.0
H1208 H 0.6198 0.20742 0.9804 0.0
C1209 C 0.66282 0.23014 0.04918 0.0
C1210 C 0.6725 0.2162 0.00694 0.0
C1211 C 0.6595 0.2335 0.06938 0.0
C1212 C 0.65942 0.22224 0.92165 0.0
C1213 C 0.66128 0.21537 0.94087 0.0
C1214 C 0.63463 0.20952 0.98761 0.0
C1215 C 0.65503 0.21203 0.03978 0.0
C1216 C 0.65475 0.21049 0.01788 0.0
C1217 C 0.65017 0.22315 0.95651 0.0
C1218 C 0.65217 0.2164 0.97692 0.0
H1219 H 0.63365 0.18835 0.07986 0.0
H1220 H 0.63885 0.18276 0.04414 0.0
H1221 H 0.62201 0.20222 0.01609 0.0
H1222 H 0.62611 0.25682 0.93129 0.0
H1223 H 0.62901 0.24444 0.96478 0.0
C1224 C 0.2574 0.87683 0.41385 0.0
C1225 C 0.27331 0.87165 0.40145 0.0
C1226 C 0.26026 0.87902 0.43433 0.0
C1227 C 0.27292 0.89191 0.47616 0.0
H1228 H 0.29367 0.84782 0.50249 0.0
C1229 C 0.2832 0.86128 0.56054 0.0
C1230 C 0.26326 0.86304 0.56744 0.0
C1231 C 0.28844 0.86547 0.54084 0.0
C1232 C 0.28826 0.86047 0.49538 0.0
H1233 H 0.30488 0.86501 0.40087 0.0
H1234 H 0.30979 0.8687 0.43689 0.0
H1235 H 0.29589 0.84966 0.46637 0.0
H1236 H 0.2334 0.87114 0.55918 0.0
H1237 H 0.24252 0.87833 0.52503 0.0
H1238 H 0.26453 0.90228 0.50506 0.0
C1239 C 0.29512 0.87106 0.43061 0.0
C1240 C 0.28953 0.86152 0.47471 0.0
C1241 C 0.2923 0.86901 0.41001 0.0
C1242 C 0.24887 0.86956 0.55439 0.0
C1243 C 0.25415 0.87387 0.53483 0.0
C1244 C 0.27165 0.89086 0.49678 0.0
C1245 C 0.27907 0.87601 0.44295 0.0
C1246 C 0.2812 0.87687 0.46487 0.0
C1247 C 0.27391 0.8717 0.52779 0.0
C1248 C 0.27865 0.87475 0.50652 0.0
H1249 H 0.24259 0.87903 0.4078 0.0
H1250 H 0.2475 0.88251 0.44348 0.0
H1251 H 0.26675 0.90412 0.46897 0.0
H1252 H 0.29465 0.8563 0.57021 0.0
H1253 H 0.3038 0.86372 0.53579 0.0
C1254 C 0.68938 0.75225 0.07258 0.0
C1255 C 0.68168 0.73422 0.08119 0.0
C1256 C 0.69557 0.75246 0.05274 0.0
C1257 C 0.70515 0.71977 0.00874 0.0
H1258 H 0.67818 0.75871 0.98025 0.0
C1259 C 0.67338 0.70609 0.92977 0.0
C1260 C 0.67406 0.72215 0.91685 0.0
C1261 C 0.68056 0.70912 0.94924 0.0
C1262 C 0.68623 0.74801 0.98792 0.0
H1263 H 0.67604 0.70208 0.07616 0.0
H1264 H 0.68631 0.70253 0.0416 0.0
H1265 H 0.68064 0.7615 0.01619 0.0
H1266 H 0.68367 0.75384 0.91406 0.0
H1267 H 0.69608 0.75905 0.9481 0.0
H1268 H 0.70965 0.70567 0.98035 0.0
C1269 C 0.6878 0.7165 0.05015 0.0
C1270 C 0.6877 0.74963 0.00857 0.0
C1271 C 0.68169 0.71627 0.06997 0.0
C1272 C 0.68272 0.74116 0.92365 0.0
C1273 C 0.68985 0.74418 0.94314 0.0
C1274 C 0.7036 0.7181 0.98806 0.0
C1275 C 0.69415 0.73466 0.04113 0.0
C1276 C 0.69653 0.73514 0.01926 0.0
C1277 C 0.68853 0.72825 0.95621 0.0
C1278 C 0.69351 0.73184 0.97754 0.0
H1279 H 0.6899 0.76632 0.0809 0.0
H1280 H 0.70074 0.76665 0.04628 0.0
H1281 H 0.71235 0.70857 0.01656 0.0
H1282 H 0.66696 0.69122 0.925 0.0
H1283 H 0.67908 0.69661 0.95906 0.0
C1284 C 0.69054 0.13268 0.57585 0.0
C1285 C 0.71019 0.13933 0.58321 0.0
C1286 C 0.68531 0.13628 0.55625 0.0
C1287 C 0.69005 0.13114 0.51088 0.0
H1288 H 0.70667 0.18131 0.48558 0.0
C1289 C 0.72773 0.13732 0.43533 0.0
C1290 C 0.72069 0.15004 0.42136 0.0
C1291 C 0.71972 0.13677 0.45445 0.0
C1292 C 0.70149 0.16733 0.49246 0.0
H1293 H 0.73944 0.15568 0.57607 0.0
H1294 H 0.73019 0.16218 0.54215 0.0
H1295 H 0.70448 0.18044 0.52187 0.0
H1296 H 0.69978 0.17215 0.41633 0.0
H1297 H 0.68629 0.17176 0.45042 0.0
H1298 H 0.68874 0.11776 0.48156 0.0
C1299 C 0.71884 0.15422 0.5515 0.0
C1300 C 0.70033 0.16682 0.51314 0.0
C1301 C 0.72419 0.15031 0.57088 0.0
C1302 C 0.70543 0.16221 0.42686 0.0
C1303 C 0.69771 0.16197 0.44624 0.0
C1304 C 0.69149 0.13162 0.49022 0.0
C1305 C 0.6995 0.14696 0.54391 0.0
C1306 C 0.69546 0.14857 0.52251 0.0
C1307 C 0.70477 0.14916 0.4601 0.0
C1308 C 0.69806 0.14956 0.48096 0.0
H1309 H 0.67942 0.12418 0.585 0.0
H1310 H 0.67036 0.13043 0.55061 0.0
H1311 H 0.68638 0.11688 0.51777 0.0
H1312 H 0.73935 0.12766 0.43143 0.0
H1313 H 0.72561 0.12701 0.46503 0.0
C1314 C 0.31919 0.25175 0.08244 0.0
C1315 C 0.32729 0.23503 0.08985 0.0
C1316 C 0.31895 0.25476 0.06206 0.0
C1317 C 0.32864 0.23157 0.0124 0.0
H1318 H 0.34491 0.28675 -0.00038 0.0
C1319 C 0.33632 0.25782 0.93165 0.0
C1320 C 0.35185 0.27315 0.92754 0.0
C1321 C 0.33236 0.2522 0.95116 0.0
C1322 C 0.34061 0.27123 0.00292 0.0
H1323 H 0.34047 0.20778 0.08192 0.0
H1324 H 0.34086 0.21339 0.04632 0.0
H1325 H 0.33842 0.2782 0.03387 0.0
H1326 H 0.37591 0.29412 0.94052 0.0
H1327 H 0.36951 0.28383 0.97451 0.0
H1328 H 0.33197 0.22453 0.98145 0.0
C1329 C 0.33421 0.22397 0.05612 0.0
C1330 C 0.33646 0.26635 0.02256 0.0
C1331 C 0.33405 0.22075 0.07651 0.0
C1332 C 0.36371 0.28238 0.94325 0.0
C1333 C 0.35994 0.27656 0.96274 0.0
C1334 C 0.33305 0.23642 0.99272 0.0
C1335 C 0.32728 0.24137 0.04873 0.0
C1336 C 0.33045 0.24647 0.02758 0.0
C1337 C 0.344 0.26162 0.96695 0.0
C1338 C 0.33919 0.25631 0.98779 0.0
H1339 H 0.31362 0.26283 0.09246 0.0
H1340 H 0.31291 0.26799 0.05684 0.0
H1341 H 0.32388 0.21613 0.01571 0.0
H1342 H 0.32678 0.25052 0.91987 0.0
H1343 H 0.31979 0.24085 0.95387 0.0
C1344 C 0.56278 0.24023 0.11299 0.0
C1345 C 0.57104 0.22562 0.12398 0.0
C1346 C 0.54164 0.24019 0.11128 0.0
C1347 C 0.49215 0.20943 0.12076 0.0
H1348 H 0.47177 0.26124 0.12545 0.0
C1349 C 0.40596 0.21645 0.12372 0.0
C1350 C 0.39946 0.23116 0.13675 0.0
C1351 C 0.42666 0.21611 0.11952 0.0
C1352 C 0.4772 0.24664 0.12431 0.0
H1353 H 0.5637 0.19926 0.14141 0.0
H1354 H 0.52695 0.1996 0.13909 0.0
H1355 H 0.5083 0.25933 0.12286 0.0
H1356 H 0.40941 0.25703 0.15561 0.0
H1357 H 0.44568 0.25594 0.14905 0.0
H1358 H 0.46121 0.19671 0.12362 0.0
C1359 C 0.53667 0.21078 0.13127 0.0
C1360 C 0.49816 0.24554 0.12245 0.0
C1361 C 0.55779 0.21063 0.13271 0.0
C1362 C 0.41402 0.2456 0.14543 0.0
C1363 C 0.43479 0.24503 0.14152 0.0
C1364 C 0.47123 0.21053 0.12295 0.0
C1365 C 0.52833 0.22574 0.1208 0.0
C1366 C 0.50593 0.22691 0.12092 0.0
C1367 C 0.44137 0.23024 0.12855 0.0
C1368 C 0.4635 0.22914 0.125 0.0
H1369 H 0.57265 0.25186 0.10593 0.0
H1370 H 0.53575 0.25167 0.10273 0.0
H1371 H 0.49754 0.19483 0.11926 0.0
H1372 H 0.395 0.2053 0.11659 0.0
H1373 H 0.4311 0.20477 0.10913 0.0
C1374 C 0.58956 0.74719 0.86957 0.0
C1375 C 0.59539 0.72825 0.87364 0.0
C1376 C 0.56932 0.75117 0.872 0.0
C1377 C 0.51734 0.72504 0.87304 0.0
H1378 H 0.50251 0.77724 0.8896 0.0
C1379 C 0.43366 0.73967 0.87808 0.0
C1380 C 0.42857 0.75646 0.86803 0.0
C1381 C 0.45398 0.73731 0.88217 0.0
C1382 C 0.50647 0.76262 0.88492 0.0
H1383 H 0.58462 0.69889 0.88428 0.0
H1384 H 0.54936 0.70597 0.88891 0.0
H1385 H 0.53831 0.77064 0.89095 0.0
H1386 H 0.44084 0.78455 0.85549 0.0
H1387 H 0.47652 0.7803 0.8626 0.0
H1388 H 0.48562 0.71706 0.86684 0.0
C1389 C 0.56039 0.71762 0.8834 0.0
C1390 C 0.52693 0.75883 0.88565 0.0
C1391 C 0.58063 0.71358 0.88083 0.0
C1392 C 0.44423 0.77142 0.8632 0.0
C1393 C 0.46466 0.76903 0.86732 0.0
C1394 C 0.49693 0.72879 0.87244 0.0
C1395 C 0.55444 0.73635 0.87869 0.0
C1396 C 0.53261 0.74005 0.8795 0.0
C1397 C 0.46972 0.75166 0.87634 0.0
C1398 C 0.49131 0.74765 0.87819 0.0
H1399 H 0.60049 0.75886 0.86395 0.0
H1400 H 0.56524 0.76566 0.86794 0.0
H1401 H 0.52118 0.71056 0.86779 0.0
H1402 H 0.42198 0.72798 0.88231 0.0
H1403 H 0.45743 0.72396 0.88948 0.0
C1404 C 0.7035 0.92689 0.35705 0.0
C1405 C 0.72148 0.91748 0.35509 0.0
C1406 C 0.70431 0.94767 0.35673 0.0
C1407 C 0.73758 0.99286 0.34244 0.0
H1408 H 0.70521 0.01963 0.38095 0.0
C1409 C 0.75255 0.07687 0.36224 0.0
C1410 C 0.73539 0.0876 0.36339 0.0
C1411 C 0.75008 0.05609 0.36024 0.0
C1412 C 0.71415 0.01233 0.36998 0.0
H1413 H 0.75439 0.92253 0.35113 0.0
H1414 H 0.7558 0.95869 0.351 0.0
H1415 H 0.70215 0.98323 0.37893 0.0
H1416 H 0.70218 0.08488 0.36345 0.0
H1417 H 0.69796 0.04853 0.3601 0.0
H1418 H 0.74993 0.02204 0.33385 0.0
C1419 C 0.74103 0.95002 0.35238 0.0
C1420 C 0.71237 0.99151 0.36877 0.0
C1421 C 0.74023 0.92928 0.35258 0.0
C1422 C 0.71572 0.07707 0.3626 0.0
C1423 C 0.71328 0.05627 0.36077 0.0
C1424 C 0.73946 0.01368 0.34375 0.0
C1425 C 0.72311 0.95946 0.35455 0.0
C1426 C 0.72419 0.98155 0.35509 0.0
C1427 C 0.73043 0.04561 0.35951 0.0
C1428 C 0.72788 0.02358 0.35763 0.0
H1429 H 0.68879 0.91824 0.35883 0.0
H1430 H 0.69019 0.9545 0.35814 0.0
H1431 H 0.74662 0.98563 0.3315 0.0
H1432 H 0.76791 0.08451 0.36273 0.0
H1433 H 0.76356 0.04818 0.3595 0.0
C1434 C 0.41497 0.25261 0.85825 0.0
C1435 C 0.41256 0.27298 0.8614 0.0
C1436 C 0.43436 0.24649 0.85507 0.0
C1437 C 0.48632 0.26508 0.83959 0.0
H1438 H 0.50455 0.22519 0.87385 0.0
C1439 C 0.56865 0.26665 0.86305 0.0
C1440 C 0.57836 0.24906 0.86199 0.0
C1441 C 0.54773 0.266 0.85995 0.0
C1442 C 0.49953 0.236 0.86386 0.0
H1443 H 0.42857 0.3029 0.86333 0.0
H1444 H 0.46231 0.29222 0.85776 0.0
H1445 H 0.4684 0.23092 0.87354 0.0
H1446 H 0.57347 0.21684 0.85736 0.0
H1447 H 0.53635 0.21577 0.85233 0.0
H1448 H 0.5175 0.27084 0.8306 0.0
C1449 C 0.44919 0.28101 0.85765 0.0
C1450 C 0.47891 0.2393 0.8637 0.0
C1451 C 0.42989 0.2871 0.86102 0.0
C1452 C 0.56645 0.23066 0.85826 0.0
C1453 C 0.54529 0.23001 0.85536 0.0
C1454 C 0.50683 0.26178 0.83974 0.0
C1455 C 0.45162 0.26066 0.85472 0.0
C1456 C 0.47234 0.25445 0.85216 0.0
C1457 C 0.53589 0.24777 0.85584 0.0
C1458 C 0.51374 0.24782 0.85249 0.0
H1459 H 0.40191 0.24134 0.85849 0.0
H1460 H 0.43586 0.23072 0.85283 0.0
H1461 H 0.48153 0.27654 0.83025 0.0
H1462 H 0.57721 0.28111 0.86592 0.0
H1463 H 0.54077 0.27986 0.86084 0.0
C1464 C 0.24096 0.92837 0.33025 0.0
C1465 C 0.25997 0.92205 0.33511 0.0
C1466 C 0.23818 0.94859 0.33114 0.0
C1467 C 0.2653 -0.00025 0.33548 0.0
H1468 H 0.21569 0.01152 0.36255 0.0
C1469 C 0.25591 0.07721 0.36983 0.0
C1470 C 0.2373 0.08512 0.36655 0.0
C1471 C 0.25811 0.0574 0.36455 0.0
C1472 C 0.22947 0.00848 0.35474 0.0
H1473 H 0.29128 0.93207 0.34364 0.0
H1474 H 0.28634 0.96743 0.34554 0.0
H1475 H 0.22104 0.97696 0.35464 0.0
H1476 H 0.20624 0.07812 0.35558 0.0
H1477 H 0.21012 0.04336 0.34649 0.0
H1478 H 0.27391 0.03133 0.33607 0.0
C1479 C 0.27363 0.95674 0.34082 0.0
C1480 C 0.23254 0.98869 0.35014 0.0
C1481 C 0.27646 0.93647 0.33978 0.0
C1482 C 0.22077 0.07253 0.35835 0.0
C1483 C 0.22297 0.05263 0.35315 0.0
C1484 C 0.26227 0.01955 0.34016 0.0
C1485 C 0.2543 0.96295 0.33705 0.0
C1486 C 0.25057 0.98409 0.34063 0.0
C1487 C 0.24176 0.04497 0.35596 0.0
C1488 C 0.24443 0.02408 0.35003 0.0
H1489 H 0.22801 0.91763 0.32628 0.0
H1490 H 0.22324 0.95294 0.32767 0.0
H1491 H 0.2792 -0.00329 0.3279 0.0
H1492 H 0.26899 0.08639 0.37617 0.0
H1493 H 0.27266 0.05179 0.36724 0.0
C1494 C 0.58917 0.75372 0.11185 0.0
C1495 C 0.59778 0.73555 0.11287 0.0
C1496 C 0.56857 0.75391 0.10711 0.0
C1497 C 0.51997 0.72145 0.10894 0.0
H1498 H 0.49915 0.76488 0.08151 0.0
C1499 C 0.43402 0.72406 0.09733 0.0
C1500 C 0.42662 0.7421 0.10347 0.0
C1501 C 0.45493 0.72301 0.09501 0.0
C1502 C 0.50479 0.75269 0.08921 0.0
H1503 H 0.5917 0.7034 0.10851 0.0
H1504 H 0.55581 0.70379 0.09975 0.0
H1505 H 0.536 0.76294 0.08295 0.0
H1506 H 0.43545 0.77341 0.11106 0.0
H1507 H 0.47208 0.77149 0.10699 0.0
H1508 H 0.48881 0.7113 0.11531 0.0
C1509 C 0.56491 0.71786 0.10317 0.0
C1510 C 0.52586 0.75157 0.09008 0.0
C1511 C 0.58551 0.71764 0.1081 0.0
C1512 C 0.44061 0.75926 0.1064 0.0
C1513 C 0.46158 0.75821 0.10395 0.0
C1514 C 0.49895 0.72248 0.10791 0.0
C1515 C 0.55608 0.73596 0.10307 0.0
C1516 C 0.53371 0.73611 0.10025 0.0
C1517 C 0.46893 0.73997 0.09865 0.0
C1518 C 0.49117 0.73825 0.0983 0.0
H1519 H 0.59814 0.76783 0.11542 0.0
H1520 H 0.56227 0.76811 0.10745 0.0
H1521 H 0.52544 0.70957 0.11724 0.0
H1522 H 0.42373 0.71054 0.09483 0.0
H1523 H 0.46019 0.70881 0.09067 0.0
C1524 C 0.7654 0.91616 0.62958 0.0
C1525 C 0.74744 0.90284 0.63031 0.0
C1526 C 0.76433 0.93656 0.6273 0.0
C1527 C 0.72918 0.9729 0.6122 0.0
H1528 H 0.76445 0.01008 0.64536 0.0
C1529 C 0.71401 0.05447 0.62897 0.0
C1530 C 0.73094 0.06913 0.62884 0.0
C1531 C 0.71677 0.03426 0.62689 0.0
C1532 C 0.75469 -0.00011 0.63581 0.0
H1533 H 0.71425 0.90056 0.62909 0.0
H1534 H 0.71243 0.93603 0.62559 0.0
H1535 H 0.76816 0.97453 0.64586 0.0
H1536 H 0.76401 0.07401 0.62602 0.0
H1537 H 0.76871 0.03876 0.62247 0.0
H1538 H 0.71533 -0.00168 0.60263 0.0
C1539 C 0.72736 0.93071 0.62635 0.0
C1540 C 0.75684 0.97954 0.63606 0.0
C1541 C 0.72842 0.91035 0.62851 0.0
C1542 C 0.75062 0.06314 0.62621 0.0
C1543 C 0.75336 0.04295 0.62427 0.0
C1544 C 0.72694 0.99325 0.61206 0.0
C1545 C 0.74528 0.94406 0.6258 0.0
C1546 C 0.74396 0.96579 0.62442 0.0
C1547 C 0.7365 0.02832 0.62479 0.0
C1548 C 0.73954 0.0069 0.62401 0.0
H1549 H 0.78031 0.91087 0.63076 0.0
H1550 H 0.77842 0.94645 0.62667 0.0
H1551 H 0.71926 0.96271 0.6028 0.0
H1552 H 0.69865 0.05857 0.63091 0.0
H1553 H 0.70352 0.02324 0.62751 0.0
C1554 C 0.23944 0.06149 0.64726 0.0
C1555 C 0.22424 0.06987 0.65832 0.0
C1556 C 0.24158 0.04121 0.64818 0.0
C1557 C 0.21376 0.993 0.66196 0.0
H1558 H 0.26763 0.97543 0.65538 0.0
C1559 C 0.22449 0.91344 0.63544 0.0
C1560 C 0.24166 0.9045 0.64159 0.0
C1561 C 0.22227 0.93317 0.64094 0.0
C1562 C 0.2525 0.97999 0.65763 0.0
H1563 H 0.19947 0.06366 0.67924 0.0
H1564 H 0.20355 0.0282 0.68133 0.0
H1565 H 0.26421 0.01082 0.65926 0.0
H1566 H 0.26965 0.90904 0.65892 0.0
H1567 H 0.26549 0.94348 0.66906 0.0
H1568 H 0.20211 0.96213 0.6609 0.0
C1569 C 0.21354 0.03723 0.67155 0.0
C1570 C 0.2505 0.00037 0.65951 0.0
C1571 C 0.21119 0.05754 0.67038 0.0
C1572 C 0.25635 0.9156 0.65378 0.0
C1573 C 0.25399 0.93534 0.65954 0.0
C1574 C 0.2158 0.9726 0.6604 0.0
C1575 C 0.22879 0.02882 0.66046 0.0
C1576 C 0.23105 0.00715 0.66104 0.0
C1577 C 0.23701 0.94443 0.65299 0.0
C1578 C 0.23513 0.96587 0.65757 0.0
H1579 H 0.24962 0.07059 0.63768 0.0
H1580 H 0.25312 0.03521 0.639 0.0
H1581 H 0.19854 -0.00238 0.66308 0.0
H1582 H 0.21294 0.90536 0.62591 0.0
H1583 H 0.20926 0.93975 0.6352 0.0
C1584 C 0.10538 0.28634 0.29082 0.0
C1585 C 0.11704 0.28659 0.27334 0.0
C1586 C 0.10283 0.26923 0.3022 0.0
C1587 C 0.11426 0.21564 0.30261 0.0
H1588 H 0.12024 0.22714 0.35918 0.0
C1589 C 0.14638 0.15901 0.35174 0.0
C1590 C 0.16305 0.16805 0.36296 0.0
C1591 C 0.13204 0.17071 0.34404 0.0
C1592 C 0.11849 0.2236 0.34342 0.0
H1593 H 0.13463 0.26907 0.25366 0.0
H1594 H 0.1313 0.23973 0.2739 0.0
H1595 H 0.11245 0.25326 0.33747 0.0
H1596 H 0.1766 0.19581 0.37684 0.0
H1597 H 0.15221 0.21607 0.36337 0.0
H1598 H 0.12254 0.1866 0.30838 0.0
C1599 C 0.12339 0.25232 0.27864 0.0
C1600 C 0.11371 0.23858 0.3309 0.0
C1601 C 0.12554 0.26927 0.26708 0.0
C1602 C 0.16401 0.18847 0.36804 0.0
C1603 C 0.1498 0.2001 0.36041 0.0
C1604 C 0.1195 0.20079 0.31509 0.0
C1605 C 0.11229 0.25215 0.29657 0.0
C1606 C 0.11257 0.2351 0.31018 0.0
C1607 C 0.13418 0.19158 0.34753 0.0
C1608 C 0.12277 0.20494 0.33552 0.0
H1609 H 0.09838 0.29944 0.29581 0.0
H1610 H 0.09378 0.26959 0.31561 0.0
H1611 H 0.11272 0.21213 0.28684 0.0
H1612 H 0.14525 0.14324 0.34768 0.0
H1613 H 0.11998 0.16359 0.33449 0.0
C1614 C 0.31074 0.74804 0.82029 0.0
C1615 C 0.33143 0.74504 0.81849 0.0
C1616 C 0.29607 0.73683 0.80838 0.0
C1617 C 0.28471 0.68961 0.78277 0.0
H1618 H 0.24922 0.71582 0.74857 0.0
C1619 C 0.22715 0.64377 0.73064 0.0
C1620 C 0.20777 0.65042 0.72955 0.0
C1621 C 0.24327 0.65593 0.73973 0.0
C1622 C 0.25882 0.70824 0.75822 0.0
H1623 H 0.35339 0.72959 0.8018 0.0
H1624 H 0.32755 0.7092 0.78156 0.0
H1625 H 0.27478 0.73589 0.76913 0.0
H1626 H 0.19029 0.67546 0.73476 0.0
H1627 H 0.21798 0.69642 0.75137 0.0
H1628 H 0.26834 0.66202 0.77281 0.0
C1629 C 0.32271 0.71993 0.79239 0.0
C1630 C 0.27347 0.71975 0.76988 0.0
C1631 C 0.33738 0.73138 0.80406 0.0
C1632 C 0.20501 0.66982 0.73622 0.0
C1633 C 0.22101 0.68194 0.74539 0.0
C1634 C 0.26982 0.67808 0.77144 0.0
C1635 C 0.30196 0.72258 0.79451 0.0
C1636 C 0.2865 0.71049 0.7822 0.0
C1637 C 0.24024 0.67499 0.74765 0.0
C1638 C 0.25668 0.68725 0.759 0.0
H1639 H 0.30595 0.7589 0.83102 0.0
H1640 H 0.28011 0.73911 0.81014 0.0
H1641 H 0.29454 0.68224 0.79232 0.0
H1642 H 0.22966 0.62901 0.72495 0.0
H1643 H 0.25804 0.65032 0.7407 0.0
C1644 C 0.84908 0.71102 0.30394 0.0
C1645 C 0.86463 0.70971 0.28992 0.0
C1646 C 0.84746 0.72891 0.31445 0.0
C1647 C 0.85479 0.78172 0.30936 0.0
H1648 H 0.8421 0.78205 0.36564 0.0
C1649 C 0.81076 0.84276 0.34389 0.0
C1650 C 0.7928 0.83395 0.35277 0.0
C1651 C 0.82711 0.83148 0.34022 0.0
C1652 C 0.84588 0.78233 0.34998 0.0
H1653 H 0.88976 0.72612 0.27463 0.0
H1654 H 0.88667 0.75785 0.29288 0.0
H1655 H 0.85671 0.75353 0.35035 0.0
H1656 H 0.77845 0.80726 0.36638 0.0
H1657 H 0.80669 0.78771 0.36005 0.0
H1658 H 0.84229 0.80967 0.30852 0.0
C1659 C 0.87626 0.74481 0.29622 0.0
C1660 C 0.85424 0.76603 0.34127 0.0
C1661 C 0.878 0.72677 0.28583 0.0
C1662 C 0.79205 0.81434 0.35933 0.0
C1663 C 0.80838 0.80321 0.35589 0.0
C1664 C 0.84623 0.79798 0.31803 0.0
C1665 C 0.86104 0.74595 0.31072 0.0
C1666 C 0.85774 0.76514 0.32071 0.0
C1667 C 0.82579 0.81139 0.34567 0.0
C1668 C 0.84061 0.79788 0.3382 0.0
H1669 H 0.83804 0.69825 0.3066 0.0
H1670 H 0.83519 0.72956 0.32512 0.0
H1671 H 0.85735 0.78136 0.29345 0.0
H1672 H 0.8117 0.8579 0.33875 0.0
H1673 H 0.8404 0.83818 0.3324 0.0
C1674 C 0.80734 0.37302 0.78765 0.0
C1675 C 0.80146 0.37514 0.76782 0.0
C1676 C 0.79284 0.36606 0.80168 0.0
C1677 C 0.73745 0.35258 0.81053 0.0
H1678 H 0.7549 0.30353 0.82995 0.0
C1679 C 0.67946 0.28613 0.82839 0.0
C1680 C 0.68351 0.27369 0.84383 0.0
C1681 C 0.69423 0.30122 0.82256 0.0
C1682 C 0.74979 0.31734 0.82512 0.0
H1683 H 0.77563 0.37421 0.74771 0.0
H1684 H 0.75034 0.36233 0.77219 0.0
H1685 H 0.77978 0.32808 0.81537 0.0
H1686 H 0.7062 0.26623 0.86473 0.0
H1687 H 0.73201 0.29321 0.85517 0.0
H1688 H 0.70736 0.3416 0.81953 0.0
C1689 C 0.7661 0.3658 0.77692 0.0
C1690 C 0.76412 0.33148 0.81678 0.0
C1691 C 0.7806 0.37255 0.76286 0.0
C1692 C 0.70279 0.27593 0.85293 0.0
C1693 C 0.71752 0.2913 0.84736 0.0
C1694 C 0.72314 0.33851 0.81897 0.0
C1695 C 0.77225 0.3614 0.79614 0.0
C1696 C 0.75797 0.34893 0.80882 0.0
C1697 C 0.71335 0.30425 0.83218 0.0
C1698 C 0.729 0.3204 0.82578 0.0
H1699 H 0.82332 0.37499 0.79193 0.0
H1700 H 0.79792 0.36304 0.81649 0.0
H1701 H 0.73233 0.36598 0.80464 0.0
H1702 H 0.66479 0.28422 0.82084 0.0
H1703 H 0.69063 0.31039 0.81039 0.0
C1704 C 0.2276 0.79308 0.63949 0.0
C1705 C 0.23986 0.79914 0.62334 0.0
C1706 C 0.21618 0.77441 0.63899 0.0
C1707 C 0.20946 0.72509 0.61128 0.0
H1708 H 0.16036 0.72034 0.64324 0.0
C1709 C 0.17764 0.65224 0.64516 0.0
C1710 C 0.15871 0.65128 0.65477 0.0
C1711 C 0.18407 0.66848 0.63346 0.0
C1712 C 0.17361 0.72122 0.63366 0.0
H1713 H 0.25108 0.79038 0.59456 0.0
H1714 H 0.23004 0.75813 0.59289 0.0
H1715 H 0.17884 0.75252 0.63929 0.0
H1716 H 0.13037 0.66455 0.65768 0.0
H1717 H 0.14055 0.6918 0.63553 0.0
H1718 H 0.2037 0.69366 0.60518 0.0
C1719 C 0.22941 0.76747 0.60619 0.0
C1720 C 0.18464 0.73989 0.6318 0.0
C1721 C 0.24134 0.78599 0.60701 0.0
C1722 C 0.14506 0.66507 0.65032 0.0
C1723 C 0.15115 0.6809 0.63797 0.0
C1724 C 0.19811 0.70638 0.61276 0.0
C1725 C 0.21642 0.76152 0.62209 0.0
C1726 C 0.20325 0.74201 0.62139 0.0
C1727 C 0.17141 0.68381 0.63087 0.0
C1728 C 0.18053 0.704 0.62478 0.0
H1729 H 0.22683 0.80285 0.65251 0.0
H1730 H 0.20719 0.77019 0.65195 0.0
H1731 H 0.22362 0.72597 0.60301 0.0
H1732 H 0.18848 0.64184 0.64867 0.0
H1733 H 0.19974 0.6699 0.62837 0.0
C1734 C 0.68005 0.65746 0.15866 0.0
C1735 C 0.67984 0.66551 0.13975 0.0
C1736 C 0.69611 0.64692 0.16431 0.0
C1737 C 0.73275 0.62615 0.17479 0.0
H1738 H 0.78176 0.66014 0.16088 0.0
C1739 C 0.82242 0.64747 0.20198 0.0
C1740 C 0.81867 0.65063 0.22233 0.0
C1741 C 0.80614 0.64285 0.18865 0.0
C1742 C 0.76838 0.65015 0.16463 0.0
H1743 H 0.69494 0.66762 0.11126 0.0
H1744 H 0.72283 0.64856 0.12081 0.0
H1745 H 0.75065 0.66141 0.1419 0.0
H1746 H 0.79501 0.65083 0.24478 0.0
H1747 H 0.76671 0.64292 0.22159 0.0
H1748 H 0.75035 0.61604 0.1985 0.0
C1749 C 0.71077 0.65054 0.13142 0.0
C1750 C 0.75047 0.65078 0.15365 0.0
C1751 C 0.6947 0.66119 0.12583 0.0
C1752 C 0.7984 0.6486 0.22917 0.0
C1753 C 0.78219 0.64381 0.21591 0.0
C1754 C 0.75065 0.62563 0.18586 0.0
C1755 C 0.71234 0.64443 0.15113 0.0
C1756 C 0.73219 0.63946 0.15916 0.0
C1757 C 0.78585 0.64109 0.19549 0.0
C1758 C 0.76838 0.63828 0.1814 0.0
H1759 H 0.66892 0.66104 0.16972 0.0
H1760 H 0.69681 0.64263 0.17964 0.0
H1761 H 0.71906 0.61694 0.17918 0.0
H1762 H 0.8379 0.64882 0.1963 0.0
H1763 H 0.8094 0.64081 0.17299 0.0
C1764 C 0.72801 0.18988 0.65394 0.0
C1765 C 0.73232 0.1716 0.66133 0.0
C1766 C 0.73933 0.20757 0.66049 0.0
C1767 C 0.77564 0.22955 0.69956 0.0
H1768 H 0.79173 0.26729 0.65855 0.0
C1769 C 0.83392 0.2991 0.71349 0.0
C1770 C 0.82726 0.31691 0.70711 0.0
C1771 C 0.82349 0.28073 0.70745 0.0
C1772 C 0.78734 0.25687 0.67013 0.0
H1773 H 0.74956 0.15731 0.68305 0.0
H1774 H 0.76991 0.18812 0.6942 0.0
H1775 H 0.76991 0.23672 0.64997 0.0
H1776 H 0.80397 0.32986 0.69066 0.0
H1777 H 0.786 0.29784 0.67968 0.0
H1778 H 0.79325 0.24985 0.71967 0.0
C1779 C 0.75806 0.18896 0.68319 0.0
C1780 C 0.77471 0.23944 0.66529 0.0
C1781 C 0.7467 0.17129 0.67662 0.0
C1782 C 0.80988 0.31623 0.69499 0.0
C1783 C 0.79956 0.29795 0.68883 0.0
C1784 C 0.78841 0.24696 0.70437 0.0
C1785 C 0.75495 0.20723 0.67472 0.0
C1786 C 0.76851 0.22567 0.67999 0.0
C1787 C 0.80616 0.28004 0.69514 0.0
C1788 C 0.79416 0.26085 0.68973 0.0
H1789 H 0.71642 0.19039 0.6426 0.0
H1790 H 0.73605 0.22146 0.65417 0.0
H1791 H 0.77099 0.21939 0.71129 0.0
H1792 H 0.84704 0.29942 0.72326 0.0
H1793 H 0.82883 0.2671 0.71252 0.0
C1794 C 0.18096 0.33191 0.20068 0.0
C1795 C 0.17746 0.3438 0.21749 0.0
C1796 C 0.1998 0.33433 0.19105 0.0
C1797 C 0.25338 0.3473 0.20016 0.0
H1798 H 0.25606 0.34555 0.14257 0.0
C1799 C 0.32208 0.31894 0.16215 0.0
C1800 C 0.31503 0.30205 0.15038 0.0
C1801 C 0.30874 0.33313 0.16726 0.0
C1802 C 0.25568 0.34636 0.15867 0.0
H1803 H 0.19101 0.36641 0.23848 0.0
H1804 H 0.22435 0.37048 0.22174 0.0
H1805 H 0.22438 0.35219 0.15905 0.0
H1806 H 0.28972 0.2876 0.13293 0.0
H1807 H 0.26666 0.3122 0.14145 0.0
H1808 H 0.28404 0.33962 0.19986 0.0
C1809 C 0.2123 0.3598 0.21565 0.0
C1810 C 0.23753 0.35012 0.16807 0.0
C1811 C 0.19334 0.35746 0.22519 0.0
C1812 C 0.2954 0.30055 0.14208 0.0
C1813 C 0.28225 0.31477 0.14688 0.0
C1814 C 0.27149 0.3433 0.19075 0.0
C1815 C 0.21561 0.34836 0.19839 0.0
C1816 C 0.23592 0.34957 0.18884 0.0
C1817 C 0.28838 0.33064 0.16038 0.0
C1818 C 0.27241 0.34163 0.16989 0.0
H1819 H 0.16915 0.32068 0.19506 0.0
H1820 H 0.20215 0.32489 0.17812 0.0
H1821 H 0.25252 0.34682 0.21621 0.0
H1822 H 0.33719 0.32025 0.16878 0.0
H1823 H 0.3139 0.34528 0.17759 0.0
C1824 C 0.30949 0.2201 0.19717 0.0
C1825 C 0.3305 0.2257 0.19522 0.0
C1826 C 0.30175 0.21207 0.21477 0.0
C1827 C 0.2906 0.21153 0.25864 0.0
H1828 H 0.30862 0.16408 0.2812 0.0
C1829 C 0.25833 0.18066 0.33204 0.0
C1830 C 0.25077 0.16041 0.33065 0.0
C1831 C 0.27091 0.18907 0.31714 0.0
C1832 C 0.30361 0.17742 0.27508 0.0
H1833 H 0.35995 0.22817 0.20992 0.0
H1834 H 0.34637 0.21341 0.24088 0.0
H1835 H 0.32522 0.17785 0.25113 0.0
H1836 H 0.24935 0.13315 0.31263 0.0
H1837 H 0.27166 0.14778 0.28652 0.0
H1838 H 0.26877 0.21101 0.28218 0.0
C1839 C 0.33602 0.21506 0.22868 0.0
C1840 C 0.31311 0.18529 0.25804 0.0
C1841 C 0.34373 0.22344 0.21111 0.0
C1842 C 0.25555 0.1487 0.31411 0.0
C1843 C 0.26833 0.15702 0.29932 0.0
C1844 C 0.28131 0.20385 0.27576 0.0
C1845 C 0.31493 0.2096 0.23067 0.0
C1846 C 0.30635 0.20216 0.24953 0.0
C1847 C 0.27594 0.17732 0.30063 0.0
C1848 C 0.28747 0.18654 0.28391 0.0
H1849 H 0.29902 0.22232 0.18522 0.0
H1850 H 0.28543 0.20789 0.21603 0.0
H1851 H 0.28528 0.22465 0.25233 0.0
H1852 H 0.2542 0.19002 0.34446 0.0
H1853 H 0.27652 0.20478 0.31839 0.0
C1854 C 0.38224 0.83659 0.81016 0.0
C1855 C 0.39012 0.81826 0.80654 0.0
C1856 C 0.37754 0.8482 0.79428 0.0
C1857 C 0.34869 0.84975 0.75931 0.0
H1858 H 0.37629 0.86252 0.70971 0.0
C1859 C 0.3275 0.85153 0.67086 0.0
C1860 C 0.30757 0.85683 0.67289 0.0
C1861 C 0.34051 0.8524 0.68738 0.0
C1862 C 0.36827 0.85885 0.72338 0.0
H1863 H 0.40208 0.79916 0.78386 0.0
H1864 H 0.39418 0.81961 0.75621 0.0
H1865 H 0.39615 0.85474 0.73863 0.0
H1866 H 0.28601 0.86873 0.69306 0.0
H1867 H 0.30904 0.87175 0.72151 0.0
H1868 H 0.32075 0.85179 0.74415 0.0
C1869 C 0.39138 0.82489 0.77123 0.0
C1870 C 0.37974 0.85467 0.73999 0.0
C1871 C 0.39583 0.81313 0.78707 0.0
C1872 C 0.30124 0.8642 0.69129 0.0
C1873 C 0.31444 0.86575 0.70762 0.0
C1874 C 0.33722 0.85342 0.74269 0.0
C1875 C 0.38099 0.8418 0.77462 0.0
C1876 C 0.36997 0.84979 0.758 0.0
C1877 C 0.33402 0.85916 0.70614 0.0
C1878 C 0.34674 0.85767 0.72433 0.0
H1879 H 0.37776 0.841 0.825 0.0
H1880 H 0.36967 0.86129 0.79725 0.0
H1881 H 0.3407 0.84558 0.77289 0.0
H1882 H 0.33266 0.84579 0.65673 0.0
H1883 H 0.35527 0.84691 0.68552 0.0
C1884 C 0.70051 0.81527 0.32025 0.0
C1885 C 0.70647 0.83521 0.31569 0.0
C1886 C 0.68941 0.80254 0.30654 0.0
C1887 C 0.65951 0.80022 0.26009 0.0
H1888 H 0.685 0.7517 0.24937 0.0
C1889 C 0.67184 0.74627 0.18975 0.0
C1890 C 0.65191 0.74023 0.18313 0.0
C1891 C 0.67516 0.75576 0.20826 0.0
C1892 C 0.67757 0.76506 0.25238 0.0
H1893 H 0.70626 0.85759 0.29338 0.0
H1894 H 0.68677 0.83518 0.26907 0.0
H1895 H 0.69626 0.77326 0.27785 0.0
H1896 H 0.6198 0.73797 0.19071 0.0
H1897 H 0.62557 0.75537 0.22332 0.0
H1898 H 0.64135 0.79219 0.23405 0.0
C1899 C 0.69013 0.82958 0.28348 0.0
C1900 C 0.6839 0.77733 0.26871 0.0
C1901 C 0.70137 0.84231 0.29722 0.0
C1902 C 0.63527 0.74296 0.19554 0.0
C1903 C 0.63856 0.75283 0.21405 0.0
C1904 C 0.653 0.78776 0.24382 0.0
C1905 C 0.68438 0.80949 0.28793 0.0
C1906 C 0.67536 0.7953 0.27238 0.0
C1907 C 0.65856 0.75932 0.22048 0.0
C1908 C 0.66249 0.77046 0.2395 0.0
H1909 H 0.70484 0.80942 0.33426 0.0
H1910 H 0.68516 0.78712 0.31031 0.0
H1911 H 0.6526 0.81393 0.26276 0.0
H1912 H 0.68488 0.7438 0.18049 0.0
H1913 H 0.69071 0.7608 0.21282 0.0
C1914 C 0.64294 0.11269 0.67927 0.0
C1915 C 0.66265 0.10758 0.68322 0.0
C1916 C 0.63002 0.11698 0.69494 0.0
C1917 C 0.62367 0.11899 0.74965 0.0
H1918 H 0.62172 0.17557 0.74221 0.0
C1919 C 0.63388 0.17587 0.81447 0.0
C1920 C 0.62715 0.1948 0.81292 0.0
C1921 C 0.6307 0.16173 0.79888 0.0
C1922 C 0.62141 0.15973 0.74461 0.0
H1923 H 0.68314 0.09999 0.70632 0.0
H1924 H 0.66049 0.10717 0.73362 0.0
H1925 H 0.6277 0.15403 0.71399 0.0
H1926 H 0.61049 0.21342 0.79463 0.0
H1927 H 0.6039 0.18842 0.76777 0.0
H1928 H 0.61774 0.12475 0.7804 0.0
C1929 C 0.65507 0.10811 0.71852 0.0
C1930 C 0.62489 0.14733 0.7283 0.0
C1931 C 0.6681 0.10411 0.70288 0.0
C1932 C 0.61616 0.19902 0.796 0.0
C1933 C 0.61247 0.18468 0.7806 0.0
C1934 C 0.61971 0.13134 0.76597 0.0
C1935 C 0.63654 0.11588 0.71471 0.0
C1936 C 0.627 0.12705 0.7308 0.0
C1937 C 0.62025 0.16604 0.78154 0.0
C1938 C 0.6196 0.15209 0.76383 0.0
H1939 H 0.63828 0.11537 0.66424 0.0
H1940 H 0.61572 0.12281 0.69166 0.0
H1941 H 0.62514 0.10336 0.75191 0.0
H1942 H 0.64241 0.17226 0.82739 0.0
H1943 H 0.63732 0.14781 0.80016 0.0
C1944 C 0.84123 0.83159 0.6469 0.0
C1945 C 0.82307 0.82276 0.63793 0.0
C1946 C 0.85769 0.82032 0.64934 0.0
C1947 C 0.87797 0.77255 0.63564 0.0
H1948 H 0.88212 0.76632 0.69245 0.0
C1949 C 0.89595 0.7124 0.69924 0.0
C1950 C 0.88618 0.69538 0.68928 0.0
C1951 C 0.89805 0.73083 0.69009 0.0
C1952 C 0.8819 0.76806 0.67653 0.0
H1953 H 0.80834 0.79621 0.62279 0.0
H1954 H 0.83713 0.77678 0.62652 0.0
H1955 H 0.86849 0.79544 0.68002 0.0
H1956 H 0.87227 0.68385 0.66153 0.0
H1957 H 0.87478 0.71601 0.64594 0.0
H1958 H 0.89067 0.74475 0.6321 0.0
C1959 C 0.83874 0.79222 0.63184 0.0
C1960 C 0.87402 0.78488 0.66941 0.0
C1961 C 0.82219 0.80325 0.62988 0.0
C1962 C 0.87984 0.69678 0.66954 0.0
C1963 C 0.88148 0.71529 0.66055 0.0
C1964 C 0.88623 0.75586 0.64275 0.0
C1965 C 0.85631 0.80034 0.64231 0.0
C1966 C 0.87087 0.78666 0.64897 0.0
C1967 C 0.88989 0.73272 0.67099 0.0
C1968 C 0.88708 0.75278 0.66332 0.0
H1969 H 0.84215 0.84664 0.65326 0.0
H1970 H 0.87105 0.82684 0.65757 0.0
H1971 H 0.87585 0.77373 0.61977 0.0
H1972 H 0.90132 0.71161 0.71438 0.0
H1973 H 0.90517 0.74376 0.69839 0.0
C1974 C 0.69278 0.24374 0.15804 0.0
C1975 C 0.67218 0.2438 0.16314 0.0
C1976 C 0.70755 0.25733 0.16734 0.0
C1977 C 0.71656 0.29275 0.21076 0.0
H1978 H 0.76003 0.3163 0.17716 0.0
C1979 C 0.77751 0.35677 0.23749 0.0
C1980 C 0.79751 0.35207 0.23429 0.0
C1981 C 0.76105 0.34515 0.22825 0.0
C1982 C 0.74789 0.30992 0.18665 0.0
H1983 H 0.65084 0.25594 0.18341 0.0
H1984 H 0.67643 0.28021 0.19931 0.0
H1985 H 0.7337 0.29185 0.16287 0.0
H1986 H 0.81612 0.33099 0.22034 0.0
H1987 H 0.78757 0.31113 0.20369 0.0
H1988 H 0.73091 0.31108 0.23449 0.0
C1989 C 0.68136 0.26997 0.18804 0.0
C1990 C 0.73293 0.29575 0.17856 0.0
C1991 C 0.66665 0.25633 0.17876 0.0
C1992 C 0.80087 0.33541 0.22223 0.0
C1993 C 0.78456 0.32401 0.21283 0.0
C1994 C 0.73142 0.30714 0.21878 0.0
C1995 C 0.70192 0.27102 0.18205 0.0
C1996 C 0.71731 0.28669 0.19059 0.0
C1997 C 0.76452 0.3287 0.21583 0.0
C1998 C 0.74739 0.31554 0.20686 0.0
H1999 H 0.69735 0.23365 0.14643 0.0
H2000 H 0.72335 0.25724 0.16285 0.0
H2001 H 0.70489 0.28595 0.22051 0.0
H2002 H 0.77465 0.3693 0.24718 0.0
H2003 H 0.74566 0.34891 0.23086 0.0
C2004 C 0.11721 0.29186 0.71044 0.0
C2005 C 0.11914 0.29082 0.73116 0.0
C2006 C 0.11387 0.2744 0.6986 0.0
C2007 C 0.09945 0.21955 0.69992 0.0
H2008 H 0.13951 0.2178 0.65792 0.0
C2009 C 0.13681 0.15003 0.67758 0.0
C2010 C 0.14754 0.14975 0.65962 0.0
C2011 C 0.12472 0.16541 0.68194 0.0
C2012 C 0.12769 0.21796 0.66909 0.0
H2013 H 0.11823 0.27074 0.75581 0.0
H2014 H 0.11271 0.24031 0.73514 0.0
H2015 H 0.13501 0.24931 0.67444 0.0
H2016 H 0.15224 0.16339 0.6311 0.0
H2017 H 0.12997 0.18944 0.63803 0.0
H2018 H 0.0927 0.18795 0.69503 0.0
C2019 C 0.11354 0.25459 0.72804 0.0
C2020 C 0.1252 0.23616 0.67868 0.0
C2021 C 0.11695 0.27202 0.73987 0.0
C2022 C 0.14399 0.16337 0.64505 0.0
C2023 C 0.13148 0.17843 0.64917 0.0
C2024 C 0.10179 0.20128 0.69018 0.0
C2025 C 0.1123 0.25557 0.70726 0.0
C2026 C 0.11167 0.23703 0.69471 0.0
C2027 C 0.12305 0.18057 0.66825 0.0
C2028 C 0.11658 0.20013 0.6752 0.0
H2029 H 0.11862 0.30614 0.70332 0.0
H2030 H 0.11286 0.27561 0.68263 0.0
H2031 H 0.08863 0.21986 0.71204 0.0
H2032 H 0.13964 0.13978 0.68911 0.0
H2033 H 0.11855 0.16648 0.6968 0.0
C2034 C 0.19482 0.64663 0.20313 0.0
C2035 C 0.19738 0.63067 0.21543 0.0
C2036 C 0.21099 0.65496 0.19168 0.0
C2037 C 0.26516 0.66623 0.19513 0.0
H2038 H 0.26133 0.68253 0.14063 0.0
C2039 C 0.33109 0.71404 0.15697 0.0
C2040 C 0.32588 0.72791 0.14329 0.0
C2041 C 0.316 0.70055 0.16506 0.0
C2042 C 0.26256 0.67827 0.15592 0.0
H2043 H 0.21878 0.61119 0.22606 0.0
H2044 H 0.24755 0.62619 0.20625 0.0
H2045 H 0.23384 0.65985 0.15456 0.0
H2046 H 0.30099 0.74024 0.1288 0.0
H2047 H 0.27431 0.71686 0.1432 0.0
H2048 H 0.29321 0.68534 0.19702 0.0
C2049 C 0.23277 0.63175 0.205 0.0
C2050 C 0.24694 0.66513 0.16378 0.0
C2051 C 0.21642 0.62318 0.21625 0.0
C2052 C 0.30528 0.7292 0.13892 0.0
C2053 C 0.29011 0.71572 0.14703 0.0
C2054 C 0.28065 0.67954 0.18737 0.0
C2055 C 0.23024 0.64793 0.1929 0.0
C2056 C 0.24799 0.65926 0.18354 0.0
C2057 C 0.29535 0.70094 0.15987 0.0
C2058 C 0.27938 0.68599 0.16778 0.0
H2059 H 0.18054 0.65325 0.20302 0.0
H2060 H 0.20876 0.6677 0.18281 0.0
H2061 H 0.26614 0.66218 0.21052 0.0
H2062 H 0.34693 0.71334 0.16105 0.0
H2063 H 0.32065 0.68941 0.17486 0.0
C2064 C 0.85998 0.3117 0.293 0.0
C2065 C 0.85262 0.32953 0.29955 0.0
C2066 C 0.85499 0.29419 0.30324 0.0
C2067 C 0.82695 0.27165 0.34661 0.0
H2068 H 0.80321 0.23427 0.3058 0.0
C2069 C 0.76063 0.21042 0.36148 0.0
C2070 C 0.76095 0.19194 0.35143 0.0
C2071 C 0.7754 0.22627 0.35736 0.0
C2072 C 0.81007 0.24425 0.31746 0.0
H2073 H 0.8363 0.34376 0.32298 0.0
H2074 H 0.82696 0.31297 0.34064 0.0
H2075 H 0.82527 0.26343 0.29632 0.0
H2076 H 0.77562 0.17562 0.32837 0.0
H2077 H 0.8017 0.20307 0.32134 0.0
H2078 H 0.81107 0.25244 0.36772 0.0
C2079 C 0.83686 0.3125 0.3278 0.0
C2080 C 0.82282 0.26101 0.31201 0.0
C2081 C 0.84219 0.33014 0.3177 0.0
C2082 C 0.77556 0.18966 0.33667 0.0
C2083 C 0.79031 0.20543 0.33254 0.0
C2084 C 0.8142 0.2547 0.3521 0.0
C2085 C 0.84213 0.29416 0.31992 0.0
C2086 C 0.83117 0.27508 0.32646 0.0
C2087 C 0.79042 0.22393 0.34284 0.0
C2088 C 0.80534 0.24102 0.33751 0.0
H2089 H 0.86827 0.31097 0.27912 0.0
H2090 H 0.85974 0.28037 0.29713 0.0
H2091 H 0.83321 0.28222 0.35806 0.0
H2092 H 0.74909 0.21252 0.37261 0.0
H2093 H 0.77476 0.24046 0.36522 0.0
C2094 C 0.19009 0.36219 0.79108 0.0
C2095 C 0.17439 0.34778 0.79688 0.0
C2096 C 0.20845 0.36501 0.80166 0.0
C2097 C 0.23365 0.35565 0.84838 0.0
H2098 H 0.27961 0.34497 0.81522 0.0
C2099 C 0.29849 0.3151 0.87605 0.0
C2100 C 0.31662 0.31524 0.86513 0.0
C2101 C 0.28374 0.32742 0.87095 0.0
C2102 C 0.26732 0.34871 0.82485 0.0
H2103 H 0.16572 0.32413 0.81722 0.0
H2104 H 0.19788 0.32921 0.83608 0.0
H2105 H 0.24763 0.35056 0.79988 0.0
H2106 H 0.33408 0.32875 0.84089 0.0
H2107 H 0.30924 0.35165 0.83303 0.0
H2108 H 0.25321 0.35358 0.87342 0.0
C2109 C 0.1957 0.33878 0.82379 0.0
C2110 C 0.24886 0.35175 0.81594 0.0
C2111 C 0.17738 0.33587 0.81309 0.0
C2112 C 0.32049 0.32888 0.84996 0.0
C2113 C 0.306 0.34167 0.8452 0.0
C2114 C 0.2523 0.35306 0.85735 0.0
C2115 C 0.21142 0.35328 0.81805 0.0
C2116 C 0.23167 0.35434 0.82763 0.0
C2117 C 0.28687 0.34016 0.85477 0.0
C2118 C 0.26909 0.3485 0.8457 0.0
H2119 H 0.18819 0.37116 0.77826 0.0
H2120 H 0.22048 0.37606 0.79683 0.0
H2121 H 0.22058 0.35792 0.85765 0.0
H2122 H 0.2951 0.3044 0.88762 0.0
H2123 H 0.26924 0.32553 0.87863 0.0
C2124 C 0.25789 0.79953 0.3447 0.0
C2125 C 0.257 0.81554 0.33205 0.0
C2126 C 0.24639 0.7812 0.34035 0.0
C2127 C 0.21014 0.74924 0.33363 0.0
H2128 H 0.20494 0.72975 0.27888 0.0
C2129 C 0.15834 0.68986 0.27834 0.0
C2130 C 0.16156 0.6714 0.28619 0.0
C2131 C 0.16772 0.70754 0.28696 0.0
C2132 C 0.20607 0.73513 0.29422 0.0
H2133 H 0.24538 0.82483 0.30417 0.0
H2134 H 0.22504 0.79313 0.29663 0.0
H2135 H 0.22806 0.75944 0.28702 0.0
H2136 H 0.17527 0.65695 0.31035 0.0
H2137 H 0.19189 0.68814 0.3255 0.0
H2138 H 0.18828 0.72437 0.34068 0.0
C2139 C 0.23432 0.79451 0.30999 0.0
C2140 C 0.21933 0.75214 0.2989 0.0
C2141 C 0.24571 0.81275 0.31439 0.0
C2142 C 0.17254 0.67102 0.30405 0.0
C2143 C 0.18207 0.68883 0.31268 0.0
C2144 C 0.19693 0.732 0.32894 0.0
C2145 C 0.23426 0.77861 0.32305 0.0
C2146 C 0.22129 0.7596 0.31858 0.0
C2147 C 0.18058 0.70708 0.30352 0.0
C2148 C 0.19456 0.72505 0.30912 0.0
H2149 H 0.26699 0.80137 0.35817 0.0
H2150 H 0.24697 0.76911 0.3505 0.0
H2151 H 0.21123 0.7547 0.34894 0.0
H2152 H 0.14971 0.69056 0.26472 0.0
H2153 H 0.16602 0.7215 0.27989 0.0
C2154 C 0.80357 0.64094 0.74205 0.0
C2155 C 0.82256 0.65008 0.74891 0.0
C2156 C 0.78587 0.64293 0.75303 0.0
C2157 C 0.76751 0.65407 0.80283 0.0
H2158 H 0.72269 0.6755 0.77642 0.0
C2159 C 0.71083 0.69786 0.84463 0.0
C2160 C 0.69099 0.69827 0.83728 0.0
C2161 C 0.72453 0.68676 0.83466 0.0
C2162 C 0.73474 0.66897 0.784 0.0
H2163 H 0.83794 0.66987 0.77141 0.0
H2164 H 0.80696 0.67305 0.79101 0.0
H2165 H 0.75164 0.66627 0.75702 0.0
H2166 H 0.66981 0.68796 0.81365 0.0
H2167 H 0.69352 0.66773 0.79644 0.0
H2168 H 0.7508 0.6568 0.82983 0.0
C2169 C 0.80587 0.66384 0.77748 0.0
C2170 C 0.75139 0.66383 0.77285 0.0
C2171 C 0.82354 0.66198 0.76639 0.0
C2172 C 0.68488 0.68725 0.81991 0.0
C2173 C 0.69855 0.67595 0.80995 0.0
C2174 C 0.75072 0.65888 0.81394 0.0
C2175 C 0.78692 0.65425 0.77092 0.0
C2176 C 0.76819 0.65698 0.78229 0.0
C2177 C 0.71874 0.67602 0.81693 0.0
C2178 C 0.73448 0.66711 0.80477 0.0
H2179 H 0.80249 0.63212 0.72827 0.0
H2180 H 0.77138 0.63558 0.74761 0.0
H2181 H 0.78019 0.64853 0.81035 0.0
H2182 H 0.71595 0.70672 0.85777 0.0
H2183 H 0.74003 0.6876 0.84028 0.0
C2184 C 0.73786 0.85407 0.69959 0.0
C2185 C 0.74163 0.83874 0.68602 0.0
C2186 C 0.72585 0.84977 0.71636 0.0
C2187 C 0.68992 0.80859 0.73698 0.0
H2188 H 0.69865 0.83996 0.78604 0.0
C2189 C 0.64805 0.78069 0.8056 0.0
C2190 C 0.66041 0.78099 0.82256 0.0
C2191 C 0.65392 0.79304 0.78986 0.0
C2192 C 0.69601 0.83099 0.77247 0.0
H2193 H 0.73811 0.80687 0.68 0.0
H2194 H 0.71838 0.79899 0.70982 0.0
H2195 H 0.71887 0.84938 0.757 0.0
H2196 H 0.68756 0.79538 0.83733 0.0
H2197 H 0.69859 0.81595 0.80957 0.0
H2198 H 0.6685 0.78917 0.75271 0.0
C2199 C 0.72321 0.81453 0.70707 0.0
C2200 C 0.70747 0.83657 0.75565 0.0
C2201 C 0.73467 0.81894 0.69004 0.0
C2202 C 0.67775 0.79497 0.82436 0.0
C2203 C 0.68401 0.80685 0.80838 0.0
C2204 C 0.67882 0.8028 0.75382 0.0
C2205 C 0.71815 0.82993 0.72022 0.0
C2206 C 0.7049 0.82515 0.73778 0.0
C2207 C 0.67271 0.80526 0.79052 0.0
C2208 C 0.68201 0.81363 0.77196 0.0
H2209 H 0.74354 0.86944 0.6968 0.0
H2210 H 0.72223 0.86208 0.72594 0.0
H2211 H 0.68704 0.79962 0.72348 0.0
H2212 H 0.63443 0.77016 0.80406 0.0
H2213 H 0.64436 0.792 0.77671 0.0
C2214 C 0.69116 0.12203 0.29834 0.0
C2215 C 0.6848 0.13368 0.31431 0.0
C2216 C 0.6785 0.11759 0.2818 0.0
C2217 C 0.65869 0.12574 0.24339 0.0
H2218 H 0.60031 0.12952 0.24387 0.0
C2219 C 0.60753 0.17125 0.19668 0.0
C2220 C 0.61459 0.16672 0.17757 0.0
C2221 C 0.60957 0.1583 0.21215 0.0
C2222 C 0.61654 0.12805 0.24349 0.0
H2223 H 0.66003 0.1491 0.32612 0.0
H2224 H 0.63847 0.14266 0.29677 0.0
H2225 H 0.61768 0.1227 0.27461 0.0
H2226 H 0.62693 0.14405 0.159 0.0
H2227 H 0.63083 0.12154 0.18619 0.0
H2228 H 0.6577 0.13169 0.2125 0.0
C2229 C 0.65282 0.13619 0.29712 0.0
C2230 C 0.62657 0.12439 0.26111 0.0
C2231 C 0.66526 0.14013 0.3139 0.0
C2232 C 0.62152 0.148 0.17365 0.0
C2233 C 0.62377 0.13511 0.18919 0.0
C2234 C 0.64863 0.12904 0.22579 0.0
C2235 C 0.65949 0.12528 0.28061 0.0
C2236 C 0.64797 0.12424 0.26147 0.0
C2237 C 0.6189 0.14072 0.20877 0.0
C2238 C 0.62766 0.13122 0.22585 0.0
H2239 H 0.70602 0.11652 0.29854 0.0
H2240 H 0.68395 0.10864 0.2697 0.0
H2241 H 0.67516 0.12601 0.24291 0.0
H2242 H 0.60188 0.1855 0.20004 0.0
H2243 H 0.60573 0.16307 0.22708 0.0
C2244 C 0.23571 0.1384 0.71934 0.0
C2245 C 0.23129 0.14798 0.70195 0.0
C2246 C 0.24796 0.14872 0.73407 0.0
C2247 C 0.26718 0.19976 0.75189 0.0
H2248 H 0.30993 0.17339 0.77637 0.0
C2249 C 0.32819 0.24358 0.80082 0.0
C2250 C 0.33049 0.23583 0.81972 0.0
C2251 C 0.31778 0.2319 0.78583 0.0
C2252 C 0.298 0.18086 0.76968 0.0
H2253 H 0.23416 0.176 0.68681 0.0
H2254 H 0.25585 0.19402 0.71225 0.0
H2255 H 0.28692 0.15497 0.75202 0.0
H2256 H 0.32494 0.20939 0.83738 0.0
H2257 H 0.30672 0.18893 0.81105 0.0
H2258 H 0.2783 0.22566 0.76938 0.0
C2259 C 0.25018 0.17857 0.7146 0.0
C2260 C 0.28478 0.17033 0.75585 0.0
C2261 C 0.23802 0.16824 0.69993 0.0
C2262 C 0.32332 0.21578 0.82297 0.0
C2263 C 0.31296 0.20404 0.80791 0.0
C2264 C 0.28045 0.21029 0.76556 0.0
C2265 C 0.25555 0.16885 0.7317 0.0
C2266 C 0.26925 0.17971 0.74679 0.0
C2267 C 0.30955 0.21224 0.78943 0.0
C2268 C 0.296 0.20097 0.77454 0.0
H2269 H 0.23011 0.12286 0.72129 0.0
H2270 H 0.25148 0.14096 0.74728 0.0
H2271 H 0.25514 0.2073 0.74546 0.0
H2272 H 0.33368 0.25894 0.79783 0.0
H2273 H 0.31562 0.23844 0.77158 0.0
C2274 C 0.32719 0.88353 0.28272 0.0
C2275 C 0.32948 0.87349 0.30035 0.0
C2276 C 0.34023 0.881 0.26669 0.0
C2277 C 0.38464 0.85357 0.24965 0.0
H2278 H 0.35299 0.84836 0.20085 0.0
C2279 C 0.39104 0.79555 0.18559 0.0
C2280 C 0.38766 0.80138 0.1661 0.0
C2281 C 0.39068 0.80929 0.20156 0.0
C2282 C 0.36226 0.85011 0.21422 0.0
H2283 H 0.34759 0.85382 0.31569 0.0
H2284 H 0.3695 0.84817 0.2874 0.0
H2285 H 0.33936 0.86403 0.22986 0.0
H2286 H 0.38328 0.82659 0.14786 0.0
H2287 H 0.38238 0.85044 0.17578 0.0
H2288 H 0.40672 0.83781 0.23393 0.0
C2289 C 0.35834 0.85871 0.28594 0.0
C2290 C 0.35449 0.85926 0.23099 0.0
C2291 C 0.34573 0.86186 0.30222 0.0
C2292 C 0.38574 0.82158 0.16272 0.0
C2293 C 0.38521 0.83525 0.17869 0.0
C2294 C 0.39224 0.84399 0.23289 0.0
C2295 C 0.3552 0.86758 0.26764 0.0
C2296 C 0.3653 0.86075 0.24913 0.0
C2297 C 0.38679 0.82903 0.1983 0.0
C2298 C 0.38089 0.84185 0.21514 0.0
H2299 H 0.31478 0.89269 0.28107 0.0
H2300 H 0.33779 0.88876 0.2532 0.0
H2301 H 0.39368 0.85477 0.26316 0.0
H2302 H 0.39269 0.78012 0.18865 0.0
H2303 H 0.39184 0.80408 0.21654 0.0
loop_
_geom_bond_atom_site_label_1
_geom_bond_atom_site_label_2
_geom_bond_distance
_geom_bond_site_symmetry_2
_ccdc_geom_bond_type
Mn0 O5 2.095 . S
Mn0 O15 2.162 . S
Mn0 O16 2.297 . S
Mn0 O24 2.385 . S
Mn0 O25 2.209 . S
Mn0 O26 2.094 . S
Mn1 O6 2.121 . S
Mn1 N8 2.257 . S
Mn1 N17 2.282 . S
Mn1 O25 2.215 . S
Mn1 O27 2.117 . S
C2 O24 1.234 . S
C2 O25 1.283 . S
C3 O15 1.281 . S
C3 O16 1.236 . S
C4 O26 1.240 . S
C4 O27 1.264 . S
O5 Mn0 2.095 . S
O5 C14 1.250 . S
O6 Mn1 2.121 . S
O6 C14 1.258 . S
C7 N8 1.326 . S
C7 C11 1.460 . S
C7 H13 0.929 . S
N8 Mn1 2.257 . S
N8 C7 1.326 . S
N8 C12 1.362 . S
C9 C10 1.258 . S
C9 C12 1.431 . S
C9 C29 1.449 . S
C10 C9 1.258 . S
C10 C11 1.477 . S
C10 H30 0.931 . S
C11 C7 1.460 . S
C11 C10 1.477 . S
C11 H31 0.930 . S
C12 N8 1.362 . S
C12 C9 1.431 . S
C12 C22 1.476 . S
H13 C7 0.929 . S
C14 O5 1.250 . S
C14 O6 1.258 . S
O15 Mn0 2.162 . S
O15 C3 1.281 . S
O16 Mn0 2.297 . S
O16 C3 1.236 . S
N17 Mn1 2.282 . S
N17 C18 1.328 . S
N17 C22 1.318 . S
C18 N17 1.328 . S
C18 C19 1.457 . S
C18 H23 0.929 . S
C19 C18 1.457 . S
C19 C20 1.291 . S
C19 H32 0.931 . S
C20 C19 1.291 . S
C20 C21 1.373 . S
C20 H33 0.929 . S
C21 C20 1.373 . S
C21 C22 1.396 . S
C21 C28 1.403 . S
C22 C12 1.476 . S
C22 N17 1.318 . S
C22 C21 1.396 . S
H23 C18 0.929 . S
O24 Mn0 2.385 . S
O24 C2 1.234 . S
O25 Mn0 2.209 . S
O25 Mn1 2.215 . S
O25 C2 1.283 . S
O26 Mn0 2.094 . S
O26 C4 1.240 . S
O27 Mn1 2.117 . S
O27 C4 1.264 . S
C28 C21 1.403 . S
C28 C29 1.399 . S
C28 H34 0.929 . S
C29 C9 1.449 . S
C29 C28 1.399 . S
C29 H35 0.930 . S
H30 C10 0.931 . S
H31 C11 0.930 . S
H32 C19 0.931 . S
H33 C20 0.929 . S
H34 C28 0.929 . S
H35 C29 0.930 . S
Mn36 O41 2.095 . S
Mn36 O51 2.162 . S
Mn36 O52 2.297 . S
Mn36 O60 2.385 . S
Mn36 O61 2.209 . S
Mn36 O62 2.094 . S
Mn37 O42 2.121 . S
Mn37 N44 2.257 . S
Mn37 N53 2.282 . S
Mn37 O61 2.215 . S
Mn37 O63 2.117 . S
C38 O60 1.234 . S
C38 O61 1.283 . S
C39 O51 1.281 . S
C39 O52 1.236 . S
C40 O62 1.240 . S
C40 O63 1.264 . S
O41 Mn36 2.095 . S
O41 C50 1.250 . S
O42 Mn37 2.121 . S
O42 C50 1.258 . S
C43 N44 1.326 . S
C43 C47 1.460 . S
C43 H49 0.929 . S
N44 Mn37 2.257 . S
N44 C43 1.326 . S
N44 C48 1.362 . S
C45 C46 1.258 . S
C45 C48 1.431 . S
C45 C65 1.449 . S
C46 C45 1.258 . S
C46 C47 1.477 . S
C46 H66 0.931 . S
C47 C43 1.460 . S
C47 C46 1.477 . S
C47 H67 0.930 . S
C48 N44 1.362 . S
C48 C45 1.431 . S
C48 C58 1.476 . S
H49 C43 0.929 . S
C50 O41 1.250 . S
C50 O42 1.258 . S
O51 Mn36 2.162 . S
O51 C39 1.281 . S
O52 Mn36 2.297 . S
O52 C39 1.236 . S
N53 Mn37 2.282 . S
N53 C54 1.328 . S
N53 C58 1.318 . S
C54 N53 1.328 . S
C54 C55 1.457 . S
C54 H59 0.929 . S
C55 C54 1.457 . S
C55 C56 1.291 . S
C55 H68 0.931 . S
C56 C55 1.291 . S
C56 C57 1.373 . S
C56 H69 0.929 . S
C57 C56 1.373 . S
C57 C58 1.396 . S
C57 C64 1.403 . S
C58 C48 1.476 . S
C58 N53 1.318 . S
C58 C57 1.396 . S
H59 C54 0.929 . S
O60 Mn36 2.385 . S
O60 C38 1.234 . S
O61 Mn36 2.209 . S
O61 Mn37 2.215 . S
O61 C38 1.283 . S
O62 Mn36 2.094 . S
O62 C40 1.240 . S
O63 Mn37 2.117 . S
O63 C40 1.264 . S
C64 C57 1.403 . S
C64 C65 1.399 . S
C64 H70 0.929 . S
C65 C45 1.449 . S
C65 C64 1.399 . S
C65 H71 0.930 . S
H66 C46 0.931 . S
H67 C47 0.930 . S
H68 C55 0.931 . S
H69 C56 0.929 . S
H70 C64 0.929 . S
H71 C65 0.930 . S
Mn72 O77 2.095 . S
Mn72 O87 2.162 . S
Mn72 O88 2.297 . S
Mn72 O96 2.385 . S
Mn72 O97 2.209 . S
Mn72 O98 2.094 . S
Mn73 O78 2.121 . S
Mn73 N80 2.257 . S
Mn73 N89 2.282 . S
Mn73 O97 2.215 . S
Mn73 O99 2.117 . S
C74 O96 1.234 . S
C74 O97 1.283 . S
C75 O87 1.281 . S
C75 O88 1.236 . S
C76 O98 1.240 . S
C76 O99 1.264 . S
O77 Mn72 2.095 . S
O77 C86 1.250 . S
O78 Mn73 2.121 . S
O78 C86 1.258 . S
C79 N80 1.326 . S
C79 C83 1.460 . S
C79 H85 0.929 . S
N80 Mn73 2.257 . S
N80 C79 1.326 . S
N80 C84 1.362 . S
C81 C82 1.258 . S
C81 C84 1.431 . S
C81 C101 1.449 . S
C82 C81 1.258 . S
C82 C83 1.477 . S
C82 H102 0.931 . S
C83 C79 1.460 . S
C83 C82 1.477 . S
C83 H103 0.930 . S
C84 N80 1.362 . S
C84 C81 1.431 . S
C84 C94 1.476 . S
H85 C79 0.929 . S
C86 O77 1.250 . S
C86 O78 1.258 . S
O87 Mn72 2.162 . S
O87 C75 1.281 . S
O88 Mn72 2.297 . S
O88 C75 1.236 . S
N89 Mn73 2.282 . S
N89 C90 1.328 . S
N89 C94 1.318 . S
C90 N89 1.328 . S
C90 C91 1.457 . S
C90 H95 0.929 . S
C91 C90 1.457 . S
C91 C92 1.291 . S
C91 H104 0.931 . S
C92 C91 1.291 . S
C92 C93 1.373 . S
C92 H105 0.929 . S
C93 C92 1.373 . S
C93 C94 1.396 . S
C93 C100 1.403 . S
C94 C84 1.476 . S
C94 N89 1.318 . S
C94 C93 1.396 . S
H95 C90 0.929 . S
O96 Mn72 2.385 . S
O96 C74 1.234 . S
O97 Mn72 2.209 . S
O97 Mn73 2.215 . S
O97 C74 1.283 . S
O98 Mn72 2.094 . S
O98 C76 1.240 . S
O99 Mn73 2.117 . S
O99 C76 1.264 . S
C100 C93 1.403 . S
C100 C101 1.399 . S
C100 H106 0.929 . S
C101 C81 1.449 . S
C101 C100 1.399 . S
C101 H107 0.930 . S
H102 C82 0.931 . S
H103 C83 0.930 . S
H104 C91 0.931 . S
H105 C92 0.929 . S
H106 C100 0.929 . S
H107 C101 0.930 . S
Mn108 O113 2.095 . S
Mn108 O123 2.162 . S
Mn108 O124 2.297 . S
Mn108 O132 2.385 . S
Mn108 O133 2.209 . S
Mn108 O134 2.094 . S
Mn109 O114 2.121 . S
Mn109 N116 2.257 . S
Mn109 N125 2.282 . S
Mn109 O133 2.215 . S
Mn109 O135 2.117 . S
C110 O132 1.234 . S
C110 O133 1.283 . S
C111 O123 1.281 . S
C111 O124 1.236 . S
C112 O134 1.240 . S
C112 O135 1.264 . S
O113 Mn108 2.095 . S
O113 C122 1.250 . S
O114 Mn109 2.121 . S
O114 C122 1.258 . S
C115 N116 1.326 . S
C115 C119 1.460 . S
C115 H121 0.929 . S
N116 Mn109 2.257 . S
N116 C115 1.326 . S
N116 C120 1.362 . S
C117 C118 1.258 . S
C117 C120 1.431 . S
C117 C137 1.449 . S
C118 C117 1.258 . S
C118 C119 1.477 . S
C118 H138 0.931 . S
C119 C115 1.460 . S
C119 C118 1.477 . S
C119 H139 0.930 . S
C120 N116 1.362 . S
C120 C117 1.431 . S
C120 C130 1.476 . S
H121 C115 0.929 . S
C122 O113 1.250 . S
C122 O114 1.258 . S
O123 Mn108 2.162 . S
O123 C111 1.281 . S
O124 Mn108 2.297 . S
O124 C111 1.236 . S
N125 Mn109 2.282 . S
N125 C126 1.328 . S
N125 C130 1.318 . S
C126 N125 1.328 . S
C126 C127 1.457 . S
C126 H131 0.929 . S
C127 C126 1.457 . S
C127 C128 1.291 . S
C127 H140 0.931 . S
C128 C127 1.291 . S
C128 C129 1.373 . S
C128 H141 0.929 . S
C129 C128 1.373 . S
C129 C130 1.396 . S
C129 C136 1.403 . S
C130 C120 1.476 . S
C130 N125 1.318 . S
C130 C129 1.396 . S
H131 C126 0.929 . S
O132 Mn108 2.385 . S
O132 C110 1.234 . S
O133 Mn108 2.209 . S
O133 Mn109 2.215 . S
O133 C110 1.283 . S
O134 Mn108 2.094 . S
O134 C112 1.240 . S
O135 Mn109 2.117 . S
O135 C112 1.264 . S
C136 C129 1.403 . S
C136 C137 1.399 . S
C136 H142 0.929 . S
C137 C117 1.449 . S
C137 C136 1.399 . S
C137 H143 0.930 . S
H138 C118 0.931 . S
H139 C119 0.930 . S
H140 C127 0.931 . S
H141 C128 0.929 . S
H142 C136 0.929 . S
H143 C137 0.930 . S
Mn144 O149 2.095 . S
Mn144 O159 2.162 . S
Mn144 O160 2.297 . S
Mn144 O168 2.385 . S
Mn144 O169 2.209 . S
Mn144 O170 2.094 . S
Mn145 O150 2.121 . S
Mn145 N152 2.257 . S
Mn145 N161 2.282 . S
Mn145 O169 2.215 . S
Mn145 O171 2.117 . S
C146 O168 1.234 . S
C146 O169 1.283 . S
C147 O159 1.281 . S
C147 O160 1.236 . S
C148 O170 1.240 . S
C148 O171 1.264 . S
O149 Mn144 2.095 . S
O149 C158 1.250 . S
O150 Mn145 2.121 . S
O150 C158 1.258 . S
C151 N152 1.326 . S
C151 C155 1.460 . S
C151 H157 0.929 . S
N152 Mn145 2.257 . S
N152 C151 1.326 . S
N152 C156 1.362 . S
C153 C154 1.258 . S
C153 C156 1.431 . S
C153 C173 1.449 . S
C154 C153 1.258 . S
C154 C155 1.477 . S
C154 H174 0.931 . S
C155 C151 1.460 . S
C155 C154 1.477 . S
C155 H175 0.930 . S
C156 N152 1.362 . S
C156 C153 1.431 . S
C156 C166 1.476 . S
H157 C151 0.929 . S
C158 O149 1.250 . S
C158 O150 1.258 . S
O159 Mn144 2.162 . S
O159 C147 1.281 . S
O160 Mn144 2.297 . S
O160 C147 1.236 . S
N161 Mn145 2.282 . S
N161 C162 1.328 . S
N161 C166 1.318 . S
C162 N161 1.328 . S
C162 C163 1.457 . S
C162 H167 0.929 . S
C163 C162 1.457 . S
C163 C164 1.291 . S
C163 H176 0.931 . S
C164 C163 1.291 . S
C164 C165 1.373 . S
C164 H177 0.929 . S
C165 C164 1.373 . S
C165 C166 1.396 . S
C165 C172 1.403 . S
C166 C156 1.476 . S
C166 N161 1.318 . S
C166 C165 1.396 . S
H167 C162 0.929 . S
O168 Mn144 2.385 . S
O168 C146 1.234 . S
O169 Mn144 2.209 . S
O169 Mn145 2.215 . S
O169 C146 1.283 . S
O170 Mn144 2.094 . S
O170 C148 1.240 . S
O171 Mn145 2.117 . S
O171 C148 1.264 . S
C172 C165 1.403 . S
C172 C173 1.399 . S
C172 H178 0.929 . S
C173 C153 1.449 . S
C173 C172 1.399 . S
C173 H179 0.930 . S
H174 C154 0.931 . S
H175 C155 0.930 . S
H176 C163 0.931 . S
H177 C164 0.929 . S
H178 C172 0.929 . S
H179 C173 0.930 . S
Mn180 O185 2.095 . S
Mn180 O195 2.162 . S
Mn180 O196 2.297 . S
Mn180 O204 2.385 . S
Mn180 O205 2.209 . S
Mn180 O206 2.094 . S
Mn181 O186 2.121 . S
Mn181 N188 2.257 . S
Mn181 N197 2.282 . S
Mn181 O205 2.215 . S
Mn181 O207 2.117 . S
C182 O204 1.234 . S
C182 O205 1.283 . S
C183 O195 1.281 . S
C183 O196 1.236 . S
C184 O206 1.240 . S
C184 O207 1.264 . S
O185 Mn180 2.095 . S
O185 C194 1.250 . S
O186 Mn181 2.121 . S
O186 C194 1.258 . S
C187 N188 1.326 . S
C187 C191 1.460 . S
C187 H193 0.929 . S
N188 Mn181 2.257 . S
N188 C187 1.326 . S
N188 C192 1.362 . S
C189 C190 1.258 . S
C189 C192 1.431 . S
C189 C209 1.449 . S
C190 C189 1.258 . S
C190 C191 1.477 . S
C190 H210 0.931 . S
C191 C187 1.460 . S
C191 C190 1.477 . S
C191 H211 0.930 . S
C192 N188 1.362 . S
C192 C189 1.431 . S
C192 C202 1.476 . S
H193 C187 0.929 . S
C194 O185 1.250 . S
C194 O186 1.258 . S
O195 Mn180 2.162 . S
O195 C183 1.281 . S
O196 Mn180 2.297 . S
O196 C183 1.236 . S
N197 Mn181 2.282 . S
N197 C198 1.328 . S
N197 C202 1.318 . S
C198 N197 1.328 . S
C198 C199 1.457 . S
C198 H203 0.929 . S
C199 C198 1.457 . S
C199 C200 1.291 . S
C199 H212 0.931 . S
C200 C199 1.291 . S
C200 C201 1.373 . S
C200 H213 0.929 . S
C201 C200 1.373 . S
C201 C202 1.396 . S
C201 C208 1.403 . S
C202 C192 1.476 . S
C202 N197 1.318 . S
C202 C201 1.396 . S
H203 C198 0.929 . S
O204 Mn180 2.385 . S
O204 C182 1.234 . S
O205 Mn180 2.209 . S
O205 Mn181 2.215 . S
O205 C182 1.283 . S
O206 Mn180 2.094 . S
O206 C184 1.240 . S
O207 Mn181 2.117 . S
O207 C184 1.264 . S
C208 C201 1.403 . S
C208 C209 1.399 . S
C208 H214 0.929 . S
C209 C189 1.449 . S
C209 C208 1.399 . S
C209 H215 0.930 . S
H210 C190 0.931 . S
H211 C191 0.930 . S
H212 C199 0.931 . S
H213 C200 0.929 . S
H214 C208 0.929 . S
H215 C209 0.930 . S
Mn216 O221 2.095 . S
Mn216 O231 2.162 . S
Mn216 O232 2.297 . S
Mn216 O240 2.385 . S
Mn216 O241 2.209 . S
Mn216 O242 2.094 . S
Mn217 O222 2.121 . S
Mn217 N224 2.257 . S
Mn217 N233 2.282 . S
Mn217 O241 2.215 . S
Mn217 O243 2.117 . S
C218 O240 1.234 . S
C218 O241 1.283 . S
C219 O231 1.281 . S
C219 O232 1.236 . S
C220 O242 1.240 . S
C220 O243 1.264 . S
O221 Mn216 2.095 . S
O221 C230 1.250 . S
O222 Mn217 2.121 . S
O222 C230 1.258 . S
C223 N224 1.326 . S
C223 C227 1.460 . S
C223 H229 0.929 . S
N224 Mn217 2.257 . S
N224 C223 1.326 . S
N224 C228 1.362 . S
C225 C226 1.258 . S
C225 C228 1.431 . S
C225 C245 1.449 . S
C226 C225 1.258 . S
C226 C227 1.477 . S
C226 H246 0.931 . S
C227 C223 1.460 . S
C227 C226 1.477 . S
C227 H247 0.930 . S
C228 N224 1.362 . S
C228 C225 1.431 . S
C228 C238 1.476 . S
H229 C223 0.929 . S
C230 O221 1.250 . S
C230 O222 1.258 . S
O231 Mn216 2.162 . S
O231 C219 1.281 . S
O232 Mn216 2.297 . S
O232 C219 1.236 . S
N233 Mn217 2.282 . S
N233 C234 1.328 . S
N233 C238 1.318 . S
C234 N233 1.328 . S
C234 C235 1.457 . S
C234 H239 0.929 . S
C235 C234 1.457 . S
C235 C236 1.291 . S
C235 H248 0.931 . S
C236 C235 1.291 . S
C236 C237 1.373 . S
C236 H249 0.929 . S
C237 C236 1.373 . S
C237 C238 1.396 . S
C237 C244 1.403 . S
C238 C228 1.476 . S
C238 N233 1.318 . S
C238 C237 1.396 . S
H239 C234 0.929 . S
O240 Mn216 2.385 . S
O240 C218 1.234 . S
O241 Mn216 2.209 . S
O241 Mn217 2.215 . S
O241 C218 1.283 . S
O242 Mn216 2.094 . S
O242 C220 1.240 . S
O243 Mn217 2.117 . S
O243 C220 1.264 . S
C244 C237 1.403 . S
C244 C245 1.399 . S
C244 H250 0.929 . S
C245 C225 1.449 . S
C245 C244 1.399 . S
C245 H251 0.930 . S
H246 C226 0.931 . S
H247 C227 0.930 . S
H248 C235 0.931 . S
H249 C236 0.929 . S
H250 C244 0.929 . S
H251 C245 0.930 . S
Mn252 O257 2.095 . S
Mn252 O267 2.162 . S
Mn252 O268 2.297 . S
Mn252 O276 2.385 . S
Mn252 O277 2.209 . S
Mn252 O278 2.094 . S
Mn253 O258 2.121 . S
Mn253 N260 2.257 . S
Mn253 N269 2.282 . S
Mn253 O277 2.215 . S
Mn253 O279 2.117 . S
C254 O276 1.234 . S
C254 O277 1.283 . S
C255 O267 1.281 . S
C255 O268 1.236 . S
C256 O278 1.240 . S
C256 O279 1.264 . S
O257 Mn252 2.095 . S
O257 C266 1.250 . S
O258 Mn253 2.121 . S
O258 C266 1.258 . S
C259 N260 1.326 . S
C259 C263 1.460 . S
C259 H265 0.929 . S
N260 Mn253 2.257 . S
N260 C259 1.326 . S
N260 C264 1.362 . S
C261 C262 1.258 . S
C261 C264 1.431 . S
C261 C281 1.449 . S
C262 C261 1.258 . S
C262 C263 1.477 . S
C262 H282 0.931 . S
C263 C259 1.460 . S
C263 C262 1.477 . S
C263 H283 0.930 . S
C264 N260 1.362 . S
C264 C261 1.431 . S
C264 C274 1.476 . S
H265 C259 0.929 . S
C266 O257 1.250 . S
C266 O258 1.258 . S
O267 Mn252 2.162 . S
O267 C255 1.281 . S
O268 Mn252 2.297 . S
O268 C255 1.236 . S
N269 Mn253 2.282 . S
N269 C270 1.328 . S
N269 C274 1.318 . S
C270 N269 1.328 . S
C270 C271 1.457 . S
C270 H275 0.929 . S
C271 C270 1.457 . S
C271 C272 1.291 . S
C271 H284 0.931 . S
C272 C271 1.291 . S
C272 C273 1.373 . S
C272 H285 0.929 . S
C273 C272 1.373 . S
C273 C274 1.396 . S
C273 C280 1.403 . S
C274 C264 1.476 . S
C274 N269 1.318 . S
C274 C273 1.396 . S
H275 C270 0.929 . S
O276 Mn252 2.385 . S
O276 C254 1.234 . S
O277 Mn252 2.209 . S
O277 Mn253 2.215 . S
O277 C254 1.283 . S
O278 Mn252 2.094 . S
O278 C256 1.240 . S
O279 Mn253 2.117 . S
O279 C256 1.264 . S
C280 C273 1.403 . S
C280 C281 1.399 . S
C280 H286 0.929 . S
C281 C261 1.449 . S
C281 C280 1.399 . S
C281 H287 0.930 . S
H282 C262 0.931 . S
H283 C263 0.930 . S
H284 C271 0.931 . S
H285 C272 0.929 . S
H286 C280 0.929 . S
H287 C281 0.930 . S
Mn288 O293 2.095 . S
Mn288 O303 2.162 . S
Mn288 O304 2.297 . S
Mn288 O312 2.385 . S
Mn288 O313 2.209 . S
Mn288 O314 2.094 . S
Mn289 O294 2.121 . S
Mn289 N296 2.257 . S
Mn289 N305 2.282 . S
Mn289 O313 2.215 . S
Mn289 O315 2.117 . S
C290 O312 1.234 . S
C290 O313 1.283 . S
C291 O303 1.281 . S
C291 O304 1.236 . S
C292 O314 1.240 . S
C292 O315 1.264 . S
O293 Mn288 2.095 . S
O293 C302 1.250 . S
O294 Mn289 2.121 . S
O294 C302 1.258 . S
C295 N296 1.326 . S
C295 C299 1.460 . S
C295 H301 0.929 . S
N296 Mn289 2.257 . S
N296 C295 1.326 . S
N296 C300 1.362 . S
C297 C298 1.258 . S
C297 C300 1.431 . S
C297 C317 1.449 . S
C298 C297 1.258 . S
C298 C299 1.477 . S
C298 H318 0.931 . S
C299 C295 1.460 . S
C299 C298 1.477 . S
C299 H319 0.930 . S
C300 N296 1.362 . S
C300 C297 1.431 . S
C300 C310 1.476 . S
H301 C295 0.929 . S
C302 O293 1.250 . S
C302 O294 1.258 . S
O303 Mn288 2.162 . S
O303 C291 1.281 . S
O304 Mn288 2.297 . S
O304 C291 1.236 . S
N305 Mn289 2.282 . S
N305 C306 1.328 . S
N305 C310 1.318 . S
C306 N305 1.328 . S
C306 C307 1.457 . S
C306 H311 0.929 . S
C307 C306 1.457 . S
C307 C308 1.291 . S
C307 H320 0.931 . S
C308 C307 1.291 . S
C308 C309 1.373 . S
C308 H321 0.929 . S
C309 C308 1.373 . S
C309 C310 1.396 . S
C309 C316 1.403 . S
C310 C300 1.476 . S
C310 N305 1.318 . S
C310 C309 1.396 . S
H311 C306 0.929 . S
O312 Mn288 2.385 . S
O312 C290 1.234 . S
O313 Mn288 2.209 . S
O313 Mn289 2.215 . S
O313 C290 1.283 . S
O314 Mn288 2.094 . S
O314 C292 1.240 . S
O315 Mn289 2.117 . S
O315 C292 1.264 . S
C316 C309 1.403 . S
C316 C317 1.399 . S
C316 H322 0.929 . S
C317 C297 1.449 . S
C317 C316 1.399 . S
C317 H323 0.930 . S
H318 C298 0.931 . S
H319 C299 0.930 . S
H320 C307 0.931 . S
H321 C308 0.929 . S
H322 C316 0.929 . S
H323 C317 0.930 . S
Mn324 O329 2.095 . S
Mn324 O339 2.162 . S
Mn324 O340 2.297 . S
Mn324 O348 2.385 . S
Mn324 O349 2.209 . S
Mn324 O350 2.094 . S
Mn325 O330 2.121 . S
Mn325 N332 2.257 . S
Mn325 N341 2.282 . S
Mn325 O349 2.215 . S
Mn325 O351 2.117 . S
C326 O348 1.234 . S
C326 O349 1.283 . S
C327 O339 1.281 . S
C327 O340 1.236 . S
C328 O350 1.240 . S
C328 O351 1.264 . S
O329 Mn324 2.095 . S
O329 C338 1.250 . S
O330 Mn325 2.121 . S
O330 C338 1.258 . S
C331 N332 1.326 . S
C331 C335 1.460 . S
C331 H337 0.929 . S
N332 Mn325 2.257 . S
N332 C331 1.326 . S
N332 C336 1.362 . S
C333 C334 1.258 . S
C333 C336 1.431 . S
C333 C353 1.449 . S
C334 C333 1.258 . S
C334 C335 1.477 . S
C334 H354 0.931 . S
C335 C331 1.460 . S
C335 C334 1.477 . S
C335 H355 0.930 . S
C336 N332 1.362 . S
C336 C333 1.431 . S
C336 C346 1.476 . S
H337 C331 0.929 . S
C338 O329 1.250 . S
C338 O330 1.258 . S
O339 Mn324 2.162 . S
O339 C327 1.281 . S
O340 Mn324 2.297 . S
O340 C327 1.236 . S
N341 Mn325 2.282 . S
N341 C342 1.328 . S
N341 C346 1.318 . S
C342 N341 1.328 . S
C342 C343 1.457 . S
C342 H347 0.929 . S
C343 C342 1.457 . S
C343 C344 1.291 . S
C343 H356 0.931 . S
C344 C343 1.291 . S
C344 C345 1.373 . S
C344 H357 0.929 . S
C345 C344 1.373 . S
C345 C346 1.396 . S
C345 C352 1.403 . S
C346 C336 1.476 . S
C346 N341 1.318 . S
C346 C345 1.396 . S
H347 C342 0.929 . S
O348 Mn324 2.385 . S
O348 C326 1.234 . S
O349 Mn324 2.209 . S
O349 Mn325 2.215 . S
O349 C326 1.283 . S
O350 Mn324 2.094 . S
O350 C328 1.240 . S
O351 Mn325 2.117 . S
O351 C328 1.264 . S
C352 C345 1.403 . S
C352 C353 1.399 . S
C352 H358 0.929 . S
C353 C333 1.449 . S
C353 C352 1.399 . S
C353 H359 0.930 . S
H354 C334 0.931 . S
H355 C335 0.930 . S
H356 C343 0.931 . S
H357 C344 0.929 . S
H358 C352 0.929 . S
H359 C353 0.930 . S
Mn360 O365 2.095 . S
Mn360 O375 2.162 . S
Mn360 O376 2.297 . S
Mn360 O384 2.385 . S
Mn360 O385 2.209 . S
Mn360 O386 2.094 . S
Mn361 O366 2.121 . S
Mn361 N368 2.257 . S
Mn361 N377 2.282 . S
Mn361 O385 2.215 . S
Mn361 O387 2.117 . S
C362 O384 1.234 . S
C362 O385 1.283 . S
C363 O375 1.281 . S
C363 O376 1.236 . S
C364 O386 1.240 . S
C364 O387 1.264 . S
O365 Mn360 2.095 . S
O365 C374 1.250 . S
O366 Mn361 2.121 . S
O366 C374 1.258 . S
C367 N368 1.326 . S
C367 C371 1.460 . S
C367 H373 0.929 . S
N368 Mn361 2.257 . S
N368 C367 1.326 . S
N368 C372 1.362 . S
C369 C370 1.258 . S
C369 C372 1.431 . S
C369 C389 1.449 . S
C370 C369 1.258 . S
C370 C371 1.477 . S
C370 H390 0.931 . S
C371 C367 1.460 . S
C371 C370 1.477 . S
C371 H391 0.930 . S
C372 N368 1.362 . S
C372 C369 1.431 . S
C372 C382 1.476 . S
H373 C367 0.929 . S
C374 O365 1.250 . S
C374 O366 1.258 . S
O375 Mn360 2.162 . S
O375 C363 1.281 . S
O376 Mn360 2.297 . S
O376 C363 1.236 . S
N377 Mn361 2.282 . S
N377 C378 1.328 . S
N377 C382 1.318 . S
C378 N377 1.328 . S
C378 C379 1.457 . S
C378 H383 0.929 . S
C379 C378 1.457 . S
C379 C380 1.291 . S
C379 H392 0.931 . S
C380 C379 1.291 . S
C380 C381 1.373 . S
C380 H393 0.929 . S
C381 C380 1.373 . S
C381 C382 1.396 . S
C381 C388 1.403 . S
C382 C372 1.476 . S
C382 N377 1.318 . S
C382 C381 1.396 . S
H383 C378 0.929 . S
O384 Mn360 2.385 . S
O384 C362 1.234 . S
O385 Mn360 2.209 . S
O385 Mn361 2.215 . S
O385 C362 1.283 . S
O386 Mn360 2.094 . S
O386 C364 1.240 . S
O387 Mn361 2.117 . S
O387 C364 1.264 . S
C388 C381 1.403 . S
C388 C389 1.399 . S
C388 H394 0.929 . S
C389 C369 1.449 . S
C389 C388 1.399 . S
C389 H395 0.930 . S
H390 C370 0.931 . S
H391 C371 0.930 . S
H392 C379 0.931 . S
H393 C380 0.929 . S
H394 C388 0.929 . S
H395 C389 0.930 . S
Mn396 O401 2.095 . S
Mn396 O411 2.162 . S
Mn396 O412 2.297 . S
Mn396 O420 2.385 . S
Mn396 O421 2.209 . S
Mn396 O422 2.094 . S
Mn397 O402 2.121 . S
Mn397 N404 2.257 . S
Mn397 N413 2.282 . S
Mn397 O421 2.215 . S
Mn397 O423 2.117 . S
C398 O420 1.234 . S
C398 O421 1.283 . S
C399 O411 1.281 . S
C399 O412 1.236 . S
C400 O422 1.240 . S
C400 O423 1.264 . S
O401 Mn396 2.095 . S
O401 C410 1.250 . S
O402 Mn397 2.121 . S
O402 C410 1.258 . S
C403 N404 1.326 . S
C403 C407 1.460 . S
C403 H409 0.929 . S
N404 Mn397 2.257 . S
N404 C403 1.326 . S
N404 C408 1.362 . S
C405 C406 1.258 . S
C405 C408 1.431 . S
C405 C425 1.449 . S
C406 C405 1.258 . S
C406 C407 1.477 . S
C406 H426 0.931 . S
C407 C403 1.460 . S
C407 C406 1.477 . S
C407 H427 0.930 . S
C408 N404 1.362 . S
C408 C405 1.431 . S
C408 C418 1.476 . S
H409 C403 0.929 . S
C410 O401 1.250 . S
C410 O402 1.258 . S
O411 Mn396 2.162 . S
O411 C399 1.281 . S
O412 Mn396 2.297 . S
O412 C399 1.236 . S
N413 Mn397 2.282 . S
N413 C414 1.328 . S
N413 C418 1.318 . S
C414 N413 1.328 . S
C414 C415 1.457 . S
C414 H419 0.929 . S
C415 C414 1.457 . S
C415 C416 1.291 . S
C415 H428 0.931 . S
C416 C415 1.291 . S
C416 C417 1.373 . S
C416 H429 0.929 . S
C417 C416 1.373 . S
C417 C418 1.396 . S
C417 C424 1.403 . S
C418 C408 1.476 . S
C418 N413 1.318 . S
C418 C417 1.396 . S
H419 C414 0.929 . S
O420 Mn396 2.385 . S
O420 C398 1.234 . S
O421 Mn396 2.209 . S
O421 Mn397 2.215 . S
O421 C398 1.283 . S
O422 Mn396 2.094 . S
O422 C400 1.240 . S
O423 Mn397 2.117 . S
O423 C400 1.264 . S
C424 C417 1.403 . S
C424 C425 1.399 . S
C424 H430 0.929 . S
C425 C405 1.449 . S
C425 C424 1.399 . S
C425 H431 0.930 . S
H426 C406 0.931 . S
H427 C407 0.930 . S
H428 C415 0.931 . S
H429 C416 0.929 . S
H430 C424 0.929 . S
H431 C425 0.930 . S
Mn432 O437 2.095 . S
Mn432 O447 2.162 . S
Mn432 O448 2.297 . S
Mn432 O456 2.385 . S
Mn432 O457 2.209 . S
Mn432 O458 2.094 . S
Mn433 O438 2.121 . S
Mn433 N440 2.257 . S
Mn433 N449 2.282 . S
Mn433 O457 2.215 . S
Mn433 O459 2.117 . S
C434 O456 1.234 . S
C434 O457 1.283 . S
C435 O447 1.281 . S
C435 O448 1.236 . S
C436 O458 1.240 . S
C436 O459 1.264 . S
O437 Mn432 2.095 . S
O437 C446 1.250 . S
O438 Mn433 2.121 . S
O438 C446 1.258 . S
C439 N440 1.326 . S
C439 C443 1.460 . S
C439 H445 0.929 . S
N440 Mn433 2.257 . S
N440 C439 1.326 . S
N440 C444 1.362 . S
C441 C442 1.258 . S
C441 C444 1.431 . S
C441 C461 1.449 . S
C442 C441 1.258 . S
C442 C443 1.477 . S
C442 H462 0.931 . S
C443 C439 1.460 . S
C443 C442 1.477 . S
C443 H463 0.930 . S
C444 N440 1.362 . S
C444 C441 1.431 . S
C444 C454 1.476 . S
H445 C439 0.929 . S
C446 O437 1.250 . S
C446 O438 1.258 . S
O447 Mn432 2.162 . S
O447 C435 1.281 . S
O448 Mn432 2.297 . S
O448 C435 1.236 . S
N449 Mn433 2.282 . S
N449 C450 1.328 . S
N449 C454 1.318 . S
C450 N449 1.328 . S
C450 C451 1.457 . S
C450 H455 0.929 . S
C451 C450 1.457 . S
C451 C452 1.291 . S
C451 H464 0.931 . S
C452 C451 1.291 . S
C452 C453 1.373 . S
C452 H465 0.929 . S
C453 C452 1.373 . S
C453 C454 1.396 . S
C453 C460 1.403 . S
C454 C444 1.476 . S
C454 N449 1.318 . S
C454 C453 1.396 . S
H455 C450 0.929 . S
O456 Mn432 2.385 . S
O456 C434 1.234 . S
O457 Mn432 2.209 . S
O457 Mn433 2.215 . S
O457 C434 1.283 . S
O458 Mn432 2.094 . S
O458 C436 1.240 . S
O459 Mn433 2.117 . S
O459 C436 1.264 . S
C460 C453 1.403 . S
C460 C461 1.399 . S
C460 H466 0.929 . S
C461 C441 1.449 . S
C461 C460 1.399 . S
C461 H467 0.930 . S
H462 C442 0.931 . S
H463 C443 0.930 . S
H464 C451 0.931 . S
H465 C452 0.929 . S
H466 C460 0.929 . S
H467 C461 0.930 . S
Mn468 O473 2.095 . S
Mn468 O483 2.162 . S
Mn468 O484 2.297 . S
Mn468 O492 2.385 . S
Mn468 O493 2.209 . S
Mn468 O494 2.094 . S
Mn469 O474 2.121 . S
Mn469 N476 2.257 . S
Mn469 N485 2.282 . S
Mn469 O493 2.215 . S
Mn469 O495 2.117 . S
C470 O492 1.234 . S
C470 O493 1.283 . S
C471 O483 1.281 . S
C471 O484 1.236 . S
C472 O494 1.240 . S
C472 O495 1.264 . S
O473 Mn468 2.095 . S
O473 C482 1.250 . S
O474 Mn469 2.121 . S
O474 C482 1.258 . S
C475 N476 1.326 . S
C475 C479 1.460 . S
C475 H481 0.929 . S
N476 Mn469 2.257 . S
N476 C475 1.326 . S
N476 C480 1.362 . S
C477 C478 1.258 . S
C477 C480 1.431 . S
C477 C497 1.449 . S
C478 C477 1.258 . S
C478 C479 1.477 . S
C478 H498 0.931 . S
C479 C475 1.460 . S
C479 C478 1.477 . S
C479 H499 0.930 . S
C480 N476 1.362 . S
C480 C477 1.431 . S
C480 C490 1.476 . S
H481 C475 0.929 . S
C482 O473 1.250 . S
C482 O474 1.258 . S
O483 Mn468 2.162 . S
O483 C471 1.281 . S
O484 Mn468 2.297 . S
O484 C471 1.236 . S
N485 Mn469 2.282 . S
N485 C486 1.328 . S
N485 C490 1.318 . S
C486 N485 1.328 . S
C486 C487 1.457 . S
C486 H491 0.929 . S
C487 C486 1.457 . S
C487 C488 1.291 . S
C487 H500 0.931 . S
C488 C487 1.291 . S
C488 C489 1.373 . S
C488 H501 0.929 . S
C489 C488 1.373 . S
C489 C490 1.396 . S
C489 C496 1.403 . S
C490 C480 1.476 . S
C490 N485 1.318 . S
C490 C489 1.396 . S
H491 C486 0.929 . S
O492 Mn468 2.385 . S
O492 C470 1.234 . S
O493 Mn468 2.209 . S
O493 Mn469 2.215 . S
O493 C470 1.283 . S
O494 Mn468 2.094 . S
O494 C472 1.240 . S
O495 Mn469 2.117 . S
O495 C472 1.264 . S
C496 C489 1.403 . S
C496 C497 1.399 . S
C496 H502 0.929 . S
C497 C477 1.449 . S
C497 C496 1.399 . S
C497 H503 0.930 . S
H498 C478 0.931 . S
H499 C479 0.930 . S
H500 C487 0.931 . S
H501 C488 0.929 . S
H502 C496 0.929 . S
H503 C497 0.930 . S
Mn504 O509 2.095 . S
Mn504 O519 2.162 . S
Mn504 O520 2.297 . S
Mn504 O528 2.385 . S
Mn504 O529 2.209 . S
Mn504 O530 2.094 . S
Mn505 O510 2.121 . S
Mn505 N512 2.257 . S
Mn505 N521 2.282 . S
Mn505 O529 2.215 . S
Mn505 O531 2.117 . S
C506 O528 1.234 . S
C506 O529 1.283 . S
C507 O519 1.281 . S
C507 O520 1.236 . S
C508 O530 1.240 . S
C508 O531 1.264 . S
O509 Mn504 2.095 . S
O509 C518 1.250 . S
O510 Mn505 2.121 . S
O510 C518 1.258 . S
C511 N512 1.326 . S
C511 C515 1.460 . S
C511 H517 0.929 . S
N512 Mn505 2.257 . S
N512 C511 1.326 . S
N512 C516 1.362 . S
C513 C514 1.258 . S
C513 C516 1.431 . S
C513 C533 1.449 . S
C514 C513 1.258 . S
C514 C515 1.477 . S
C514 H534 0.931 . S
C515 C511 1.460 . S
C515 C514 1.477 . S
C515 H535 0.930 . S
C516 N512 1.362 . S
C516 C513 1.431 . S
C516 C526 1.476 . S
H517 C511 0.929 . S
C518 O509 1.250 . S
C518 O510 1.258 . S
O519 Mn504 2.162 . S
O519 C507 1.281 . S
O520 Mn504 2.297 . S
O520 C507 1.236 . S
N521 Mn505 2.282 . S
N521 C522 1.328 . S
N521 C526 1.318 . S
C522 N521 1.328 . S
C522 C523 1.457 . S
C522 H527 0.929 . S
C523 C522 1.457 . S
C523 C524 1.291 . S
C523 H536 0.931 . S
C524 C523 1.291 . S
C524 C525 1.373 . S
C524 H537 0.929 . S
C525 C524 1.373 . S
C525 C526 1.396 . S
C525 C532 1.403 . S
C526 C516 1.476 . S
C526 N521 1.318 . S
C526 C525 1.396 . S
H527 C522 0.929 . S
O528 Mn504 2.385 . S
O528 C506 1.234 . S
O529 Mn504 2.209 . S
O529 Mn505 2.215 . S
O529 C506 1.283 . S
O530 Mn504 2.094 . S
O530 C508 1.240 . S
O531 Mn505 2.117 . S
O531 C508 1.264 . S
C532 C525 1.403 . S
C532 C533 1.399 . S
C532 H538 0.929 . S
C533 C513 1.449 . S
C533 C532 1.399 . S
C533 H539 0.930 . S
H534 C514 0.931 . S
H535 C515 0.930 . S
H536 C523 0.931 . S
H537 C524 0.929 . S
H538 C532 0.929 . S
H539 C533 0.930 . S
Mn540 O545 2.095 . S
Mn540 O555 2.162 . S
Mn540 O556 2.297 . S
Mn540 O564 2.385 . S
Mn540 O565 2.209 . S
Mn540 O566 2.094 . S
Mn541 O546 2.121 . S
Mn541 N548 2.257 . S
Mn541 N557 2.282 . S
Mn541 O565 2.215 . S
Mn541 O567 2.117 . S
C542 O564 1.234 . S
C542 O565 1.283 . S
C543 O555 1.281 . S
C543 O556 1.236 . S
C544 O566 1.240 . S
C544 O567 1.264 . S
O545 Mn540 2.095 . S
O545 C554 1.250 . S
O546 Mn541 2.121 . S
O546 C554 1.258 . S
C547 N548 1.326 . S
C547 C551 1.460 . S
C547 H553 0.929 . S
N548 Mn541 2.257 . S
N548 C547 1.326 . S
N548 C552 1.362 . S
C549 C550 1.258 . S
C549 C552 1.431 . S
C549 C569 1.449 . S
C550 C549 1.258 . S
C550 C551 1.477 . S
C550 H570 0.931 . S
C551 C547 1.460 . S
C551 C550 1.477 . S
C551 H571 0.930 . S
C552 N548 1.362 . S
C552 C549 1.431 . S
C552 C562 1.476 . S
H553 C547 0.929 . S
C554 O545 1.250 . S
C554 O546 1.258 . S
O555 Mn540 2.162 . S
O555 C543 1.281 . S
O556 Mn540 2.297 . S
O556 C543 1.236 . S
N557 Mn541 2.282 . S
N557 C558 1.328 . S
N557 C562 1.318 . S
C558 N557 1.328 . S
C558 C559 1.457 . S
C558 H563 0.929 . S
C559 C558 1.457 . S
C559 C560 1.291 . S
C559 H572 0.931 . S
C560 C559 1.291 . S
C560 C561 1.373 . S
C560 H573 0.929 . S
C561 C560 1.373 . S
C561 C562 1.396 . S
C561 C568 1.403 . S
C562 C552 1.476 . S
C562 N557 1.318 . S
C562 C561 1.396 . S
H563 C558 0.929 . S
O564 Mn540 2.385 . S
O564 C542 1.234 . S
O565 Mn540 2.209 . S
O565 Mn541 2.215 . S
O565 C542 1.283 . S
O566 Mn540 2.094 . S
O566 C544 1.240 . S
O567 Mn541 2.117 . S
O567 C544 1.264 . S
C568 C561 1.403 . S
C568 C569 1.399 . S
C568 H574 0.929 . S
C569 C549 1.449 . S
C569 C568 1.399 . S
C569 H575 0.930 . S
H570 C550 0.931 . S
H571 C551 0.930 . S
H572 C559 0.931 . S
H573 C560 0.929 . S
H574 C568 0.929 . S
H575 C569 0.930 . S
Mn576 O581 2.095 . S
Mn576 O591 2.162 . S
Mn576 O592 2.297 . S
Mn576 O600 2.385 . S
Mn576 O601 2.209 . S
Mn576 O602 2.094 . S
Mn577 O582 2.121 . S
Mn577 N584 2.257 . S
Mn577 N593 2.282 . S
Mn577 O601 2.215 . S
Mn577 O603 2.117 . S
C578 O600 1.234 . S
C578 O601 1.283 . S
C579 O591 1.281 . S
C579 O592 1.236 . S
C580 O602 1.240 . S
C580 O603 1.264 . S
O581 Mn576 2.095 . S
O581 C590 1.250 . S
O582 Mn577 2.121 . S
O582 C590 1.258 . S
C583 N584 1.326 . S
C583 C587 1.460 . S
C583 H589 0.929 . S
N584 Mn577 2.257 . S
N584 C583 1.326 . S
N584 C588 1.362 . S
C585 C586 1.258 . S
C585 C588 1.431 . S
C585 C605 1.449 . S
C586 C585 1.258 . S
C586 C587 1.477 . S
C586 H606 0.931 . S
C587 C583 1.460 . S
C587 C586 1.477 . S
C587 H607 0.930 . S
C588 N584 1.362 . S
C588 C585 1.431 . S
C588 C598 1.476 . S
H589 C583 0.929 . S
C590 O581 1.250 . S
C590 O582 1.258 . S
O591 Mn576 2.162 . S
O591 C579 1.281 . S
O592 Mn576 2.297 . S
O592 C579 1.236 . S
N593 Mn577 2.282 . S
N593 C594 1.328 . S
N593 C598 1.318 . S
C594 N593 1.328 . S
C594 C595 1.457 . S
C594 H599 0.929 . S
C595 C594 1.457 . S
C595 C596 1.291 . S
C595 H608 0.931 . S
C596 C595 1.291 . S
C596 C597 1.373 . S
C596 H609 0.929 . S
C597 C596 1.373 . S
C597 C598 1.396 . S
C597 C604 1.403 . S
C598 C588 1.476 . S
C598 N593 1.318 . S
C598 C597 1.396 . S
H599 C594 0.929 . S
O600 Mn576 2.385 . S
O600 C578 1.234 . S
O601 Mn576 2.209 . S
O601 Mn577 2.215 . S
O601 C578 1.283 . S
O602 Mn576 2.094 . S
O602 C580 1.240 . S
O603 Mn577 2.117 . S
O603 C580 1.264 . S
C604 C597 1.403 . S
C604 C605 1.399 . S
C604 H610 0.929 . S
C605 C585 1.449 . S
C605 C604 1.399 . S
C605 H611 0.930 . S
H606 C586 0.931 . S
H607 C587 0.930 . S
H608 C595 0.931 . S
H609 C596 0.929 . S
H610 C604 0.929 . S
H611 C605 0.930 . S
Mn612 O617 2.095 . S
Mn612 O627 2.162 . S
Mn612 O628 2.297 . S
Mn612 O636 2.385 . S
Mn612 O637 2.209 . S
Mn612 O638 2.094 . S
Mn613 O618 2.121 . S
Mn613 N620 2.257 . S
Mn613 N629 2.282 . S
Mn613 O637 2.215 . S
Mn613 O639 2.117 . S
C614 O636 1.234 . S
C614 O637 1.283 . S
C615 O627 1.281 . S
C615 O628 1.236 . S
C616 O638 1.240 . S
C616 O639 1.264 . S
O617 Mn612 2.095 . S
O617 C626 1.250 . S
O618 Mn613 2.121 . S
O618 C626 1.258 . S
C619 N620 1.326 . S
C619 C623 1.460 . S
C619 H625 0.929 . S
N620 Mn613 2.257 . S
N620 C619 1.326 . S
N620 C624 1.362 . S
C621 C622 1.258 . S
C621 C624 1.431 . S
C621 C641 1.449 . S
C622 C621 1.258 . S
C622 C623 1.477 . S
C622 H642 0.931 . S
C623 C619 1.460 . S
C623 C622 1.477 . S
C623 H643 0.930 . S
C624 N620 1.362 . S
C624 C621 1.431 . S
C624 C634 1.476 . S
H625 C619 0.929 . S
C626 O617 1.250 . S
C626 O618 1.258 . S
O627 Mn612 2.162 . S
O627 C615 1.281 . S
O628 Mn612 2.297 . S
O628 C615 1.236 . S
N629 Mn613 2.282 . S
N629 C630 1.328 . S
N629 C634 1.318 . S
C630 N629 1.328 . S
C630 C631 1.457 . S
C630 H635 0.929 . S
C631 C630 1.457 . S
C631 C632 1.291 . S
C631 H644 0.931 . S
C632 C631 1.291 . S
C632 C633 1.373 . S
C632 H645 0.929 . S
C633 C632 1.373 . S
C633 C634 1.396 . S
C633 C640 1.403 . S
C634 C624 1.476 . S
C634 N629 1.318 . S
C634 C633 1.396 . S
H635 C630 0.929 . S
O636 Mn612 2.385 . S
O636 C614 1.234 . S
O637 Mn612 2.209 . S
O637 Mn613 2.215 . S
O637 C614 1.283 . S
O638 Mn612 2.094 . S
O638 C616 1.240 . S
O639 Mn613 2.117 . S
O639 C616 1.264 . S
C640 C633 1.403 . S
C640 C641 1.399 . S
C640 H646 0.929 . S
C641 C621 1.449 . S
C641 C640 1.399 . S
C641 H647 0.930 . S
H642 C622 0.931 . S
H643 C623 0.930 . S
H644 C631 0.931 . S
H645 C632 0.929 . S
H646 C640 0.929 . S
H647 C641 0.930 . S
Mn648 O653 2.095 . S
Mn648 O663 2.162 . S
Mn648 O664 2.297 . S
Mn648 O672 2.385 . S
Mn648 O673 2.209 . S
Mn648 O674 2.094 . S
Mn649 O654 2.121 . S
Mn649 N656 2.257 . S
Mn649 N665 2.282 . S
Mn649 O673 2.215 . S
Mn649 O675 2.117 . S
C650 O672 1.234 . S
C650 O673 1.283 . S
C651 O663 1.281 . S
C651 O664 1.236 . S
C652 O674 1.240 . S
C652 O675 1.264 . S
O653 Mn648 2.095 . S
O653 C662 1.250 . S
O654 Mn649 2.121 . S
O654 C662 1.258 . S
C655 N656 1.326 . S
C655 C659 1.460 . S
C655 H661 0.929 . S
N656 Mn649 2.257 . S
N656 C655 1.326 . S
N656 C660 1.362 . S
C657 C658 1.258 . S
C657 C660 1.431 . S
C657 C677 1.449 . S
C658 C657 1.258 . S
C658 C659 1.477 . S
C658 H678 0.931 . S
C659 C655 1.460 . S
C659 C658 1.477 . S
C659 H679 0.930 . S
C660 N656 1.362 . S
C660 C657 1.431 . S
C660 C670 1.476 . S
H661 C655 0.929 . S
C662 O653 1.250 . S
C662 O654 1.258 . S
O663 Mn648 2.162 . S
O663 C651 1.281 . S
O664 Mn648 2.297 . S
O664 C651 1.236 . S
N665 Mn649 2.282 . S
N665 C666 1.328 . S
N665 C670 1.318 . S
C666 N665 1.328 . S
C666 C667 1.457 . S
C666 H671 0.929 . S
C667 C666 1.457 . S
C667 C668 1.291 . S
C667 H680 0.931 . S
C668 C667 1.291 . S
C668 C669 1.373 . S
C668 H681 0.929 . S
C669 C668 1.373 . S
C669 C670 1.396 . S
C669 C676 1.403 . S
C670 C660 1.476 . S
C670 N665 1.318 . S
C670 C669 1.396 . S
H671 C666 0.929 . S
O672 Mn648 2.385 . S
O672 C650 1.234 . S
O673 Mn648 2.209 . S
O673 Mn649 2.215 . S
O673 C650 1.283 . S
O674 Mn648 2.094 . S
O674 C652 1.240 . S
O675 Mn649 2.117 . S
O675 C652 1.264 . S
C676 C669 1.403 . S
C676 C677 1.399 . S
C676 H682 0.929 . S
C677 C657 1.449 . S
C677 C676 1.399 . S
C677 H683 0.930 . S
H678 C658 0.931 . S
H679 C659 0.930 . S
H680 C667 0.931 . S
H681 C668 0.929 . S
H682 C676 0.929 . S
H683 C677 0.930 . S
Mn684 O689 2.095 . S
Mn684 O699 2.162 . S
Mn684 O700 2.297 . S
Mn684 O708 2.385 . S
Mn684 O709 2.209 . S
Mn684 O710 2.094 . S
Mn685 O690 2.121 . S
Mn685 N692 2.257 . S
Mn685 N701 2.282 . S
Mn685 O709 2.215 . S
Mn685 O711 2.117 . S
C686 O708 1.234 . S
C686 O709 1.283 . S
C687 O699 1.281 . S
C687 O700 1.236 . S
C688 O710 1.240 . S
C688 O711 1.264 . S
O689 Mn684 2.095 . S
O689 C698 1.250 . S
O690 Mn685 2.121 . S
O690 C698 1.258 . S
C691 N692 1.326 . S
C691 C695 1.460 . S
C691 H697 0.929 . S
N692 Mn685 2.257 . S
N692 C691 1.326 . S
N692 C696 1.362 . S
C693 C694 1.258 . S
C693 C696 1.431 . S
C693 C713 1.449 . S
C694 C693 1.258 . S
C694 C695 1.477 . S
C694 H714 0.931 . S
C695 C691 1.460 . S
C695 C694 1.477 . S
C695 H715 0.930 . S
C696 N692 1.362 . S
C696 C693 1.431 . S
C696 C706 1.476 . S
H697 C691 0.929 . S
C698 O689 1.250 . S
C698 O690 1.258 . S
O699 Mn684 2.162 . S
O699 C687 1.281 . S
O700 Mn684 2.297 . S
O700 C687 1.236 . S
N701 Mn685 2.282 . S
N701 C702 1.328 . S
N701 C706 1.318 . S
C702 N701 1.328 . S
C702 C703 1.457 . S
C702 H707 0.929 . S
C703 C702 1.457 . S
C703 C704 1.291 . S
C703 H716 0.931 . S
C704 C703 1.291 . S
C704 C705 1.373 . S
C704 H717 0.929 . S
C705 C704 1.373 . S
C705 C706 1.396 . S
C705 C712 1.403 . S
C706 C696 1.476 . S
C706 N701 1.318 . S
C706 C705 1.396 . S
H707 C702 0.929 . S
O708 Mn684 2.385 . S
O708 C686 1.234 . S
O709 Mn684 2.209 . S
O709 Mn685 2.215 . S
O709 C686 1.283 . S
O710 Mn684 2.094 . S
O710 C688 1.240 . S
O711 Mn685 2.117 . S
O711 C688 1.264 . S
C712 C705 1.403 . S
C712 C713 1.399 . S
C712 H718 0.929 . S
C713 C693 1.449 . S
C713 C712 1.399 . S
C713 H719 0.930 . S
H714 C694 0.931 . S
H715 C695 0.930 . S
H716 C703 0.931 . S
H717 C704 0.929 . S
H718 C712 0.929 . S
H719 C713 0.930 . S
Mn720 O725 2.095 . S
Mn720 O735 2.162 . S
Mn720 O736 2.297 . S
Mn720 O744 2.385 . S
Mn720 O745 2.209 . S
Mn720 O746 2.094 . S
Mn721 O726 2.121 . S
Mn721 N728 2.257 . S
Mn721 N737 2.282 . S
Mn721 O745 2.215 . S
Mn721 O747 2.117 . S
C722 O744 1.234 . S
C722 O745 1.283 . S
C723 O735 1.281 . S
C723 O736 1.236 . S
C724 O746 1.240 . S
C724 O747 1.264 . S
O725 Mn720 2.095 . S
O725 C734 1.250 . S
O726 Mn721 2.121 . S
O726 C734 1.258 . S
C727 N728 1.326 . S
C727 C731 1.460 . S
C727 H733 0.929 . S
N728 Mn721 2.257 . S
N728 C727 1.326 . S
N728 C732 1.362 . S
C729 C730 1.258 . S
C729 C732 1.431 . S
C729 C749 1.449 . S
C730 C729 1.258 . S
C730 C731 1.477 . S
C730 H750 0.931 . S
C731 C727 1.460 . S
C731 C730 1.477 . S
C731 H751 0.930 . S
C732 N728 1.362 . S
C732 C729 1.431 . S
C732 C742 1.476 . S
H733 C727 0.929 . S
C734 O725 1.250 . S
C734 O726 1.258 . S
O735 Mn720 2.162 . S
O735 C723 1.281 . S
O736 Mn720 2.297 . S
O736 C723 1.236 . S
N737 Mn721 2.282 . S
N737 C738 1.328 . S
N737 C742 1.318 . S
C738 N737 1.328 . S
C738 C739 1.457 . S
C738 H743 0.929 . S
C739 C738 1.457 . S
C739 C740 1.291 . S
C739 H752 0.931 . S
C740 C739 1.291 . S
C740 C741 1.373 . S
C740 H753 0.929 . S
C741 C740 1.373 . S
C741 C742 1.396 . S
C741 C748 1.403 . S
C742 C732 1.476 . S
C742 N737 1.318 . S
C742 C741 1.396 . S
H743 C738 0.929 . S
O744 Mn720 2.385 . S
O744 C722 1.234 . S
O745 Mn720 2.209 . S
O745 Mn721 2.215 . S
O745 C722 1.283 . S
O746 Mn720 2.094 . S
O746 C724 1.240 . S
O747 Mn721 2.117 . S
O747 C724 1.264 . S
C748 C741 1.403 . S
C748 C749 1.399 . S
C748 H754 0.929 . S
C749 C729 1.449 . S
C749 C748 1.399 . S
C749 H755 0.930 . S
H750 C730 0.931 . S
H751 C731 0.930 . S
H752 C739 0.931 . S
H753 C740 0.929 . S
H754 C748 0.929 . S
H755 C749 0.930 . S
Mn756 O761 2.095 . S
Mn756 O771 2.162 . S
Mn756 O772 2.297 . S
Mn756 O780 2.385 . S
Mn756 O781 2.209 . S
Mn756 O782 2.094 . S
Mn757 O762 2.121 . S
Mn757 N764 2.257 . S
Mn757 N773 2.282 . S
Mn757 O781 2.215 . S
Mn757 O783 2.117 . S
C758 O780 1.234 . S
C758 O781 1.283 . S
C759 O771 1.281 . S
C759 O772 1.236 . S
C760 O782 1.240 . S
C760 O783 1.264 . S
O761 Mn756 2.095 . S
O761 C770 1.250 . S
O762 Mn757 2.121 . S
O762 C770 1.258 . S
C763 N764 1.326 . S
C763 C767 1.460 . S
C763 H769 0.929 . S
N764 Mn757 2.257 . S
N764 C763 1.326 . S
N764 C768 1.362 . S
C765 C766 1.258 . S
C765 C768 1.431 . S
C765 C785 1.449 . S
C766 C765 1.258 . S
C766 C767 1.477 . S
C766 H786 0.931 . S
C767 C763 1.460 . S
C767 C766 1.477 . S
C767 H787 0.930 . S
C768 N764 1.362 . S
C768 C765 1.431 . S
C768 C778 1.476 . S
H769 C763 0.929 . S
C770 O761 1.250 . S
C770 O762 1.258 . S
O771 Mn756 2.162 . S
O771 C759 1.281 . S
O772 Mn756 2.297 . S
O772 C759 1.236 . S
N773 Mn757 2.282 . S
N773 C774 1.328 . S
N773 C778 1.318 . S
C774 N773 1.328 . S
C774 C775 1.457 . S
C774 H779 0.929 . S
C775 C774 1.457 . S
C775 C776 1.291 . S
C775 H788 0.931 . S
C776 C775 1.291 . S
C776 C777 1.373 . S
C776 H789 0.929 . S
C777 C776 1.373 . S
C777 C778 1.396 . S
C777 C784 1.403 . S
C778 C768 1.476 . S
C778 N773 1.318 . S
C778 C777 1.396 . S
H779 C774 0.929 . S
O780 Mn756 2.385 . S
O780 C758 1.234 . S
O781 Mn756 2.209 . S
O781 Mn757 2.215 . S
O781 C758 1.283 . S
O782 Mn756 2.094 . S
O782 C760 1.240 . S
O783 Mn757 2.117 . S
O783 C760 1.264 . S
C784 C777 1.403 . S
C784 C785 1.399 . S
C784 H790 0.929 . S
C785 C765 1.449 . S
C785 C784 1.399 . S
C785 H791 0.930 . S
H786 C766 0.931 . S
H787 C767 0.930 . S
H788 C775 0.931 . S
H789 C776 0.929 . S
H790 C784 0.929 . S
H791 C785 0.930 . S
Mn792 O797 2.095 . S
Mn792 O807 2.162 . S
Mn792 O808 2.297 . S
Mn792 O816 2.385 . S
Mn792 O817 2.209 . S
Mn792 O818 2.094 . S
Mn793 O798 2.121 . S
Mn793 N800 2.257 . S
Mn793 N809 2.282 . S
Mn793 O817 2.215 . S
Mn793 O819 2.117 . S
C794 O816 1.234 . S
C794 O817 1.283 . S
C795 O807 1.281 . S
C795 O808 1.236 . S
C796 O818 1.240 . S
C796 O819 1.264 . S
O797 Mn792 2.095 . S
O797 C806 1.250 . S
O798 Mn793 2.121 . S
O798 C806 1.258 . S
C799 N800 1.326 . S
C799 C803 1.460 . S
C799 H805 0.929 . S
N800 Mn793 2.257 . S
N800 C799 1.326 . S
N800 C804 1.362 . S
C801 C802 1.258 . S
C801 C804 1.431 . S
C801 C821 1.449 . S
C802 C801 1.258 . S
C802 C803 1.477 . S
C802 H822 0.931 . S
C803 C799 1.460 . S
C803 C802 1.477 . S
C803 H823 0.930 . S
C804 N800 1.362 . S
C804 C801 1.431 . S
C804 C814 1.476 . S
H805 C799 0.929 . S
C806 O797 1.250 . S
C806 O798 1.258 . S
O807 Mn792 2.162 . S
O807 C795 1.281 . S
O808 Mn792 2.297 . S
O808 C795 1.236 . S
N809 Mn793 2.282 . S
N809 C810 1.328 . S
N809 C814 1.318 . S
C810 N809 1.328 . S
C810 C811 1.457 . S
C810 H815 0.929 . S
C811 C810 1.457 . S
C811 C812 1.291 . S
C811 H824 0.931 . S
C812 C811 1.291 . S
C812 C813 1.373 . S
C812 H825 0.929 . S
C813 C812 1.373 . S
C813 C814 1.396 . S
C813 C820 1.403 . S
C814 C804 1.476 . S
C814 N809 1.318 . S
C814 C813 1.396 . S
H815 C810 0.929 . S
O816 Mn792 2.385 . S
O816 C794 1.234 . S
O817 Mn792 2.209 . S
O817 Mn793 2.215 . S
O817 C794 1.283 . S
O818 Mn792 2.094 . S
O818 C796 1.240 . S
O819 Mn793 2.117 . S
O819 C796 1.264 . S
C820 C813 1.403 . S
C820 C821 1.399 . S
C820 H826 0.929 . S
C821 C801 1.449 . S
C821 C820 1.399 . S
C821 H827 0.930 . S
H822 C802 0.931 . S
H823 C803 0.930 . S
H824 C811 0.931 . S
H825 C812 0.929 . S
H826 C820 0.929 . S
H827 C821 0.930 . S
Mn828 O833 2.095 . S
Mn828 O843 2.162 . S
Mn828 O844 2.297 . S
Mn828 O852 2.385 . S
Mn828 O853 2.209 . S
Mn828 O854 2.094 . S
Mn829 O834 2.121 . S
Mn829 N836 2.257 . S
Mn829 N845 2.282 . S
Mn829 O853 2.215 . S
Mn829 O855 2.117 . S
C830 O852 1.234 . S
C830 O853 1.283 . S
C831 O843 1.281 . S
C831 O844 1.236 . S
C832 O854 1.240 . S
C832 O855 1.264 . S
O833 Mn828 2.095 . S
O833 C842 1.250 . S
O834 Mn829 2.121 . S
O834 C842 1.258 . S
C835 N836 1.326 . S
C835 C839 1.460 . S
C835 H841 0.929 . S
N836 Mn829 2.257 . S
N836 C835 1.326 . S
N836 C840 1.362 . S
C837 C838 1.258 . S
C837 C840 1.431 . S
C837 C857 1.449 . S
C838 C837 1.258 . S
C838 C839 1.477 . S
C838 H858 0.931 . S
C839 C835 1.460 . S
C839 C838 1.477 . S
C839 H859 0.930 . S
C840 N836 1.362 . S
C840 C837 1.431 . S
C840 C850 1.476 . S
H841 C835 0.929 . S
C842 O833 1.250 . S
C842 O834 1.258 . S
O843 Mn828 2.162 . S
O843 C831 1.281 . S
O844 Mn828 2.297 . S
O844 C831 1.236 . S
N845 Mn829 2.282 . S
N845 C846 1.328 . S
N845 C850 1.318 . S
C846 N845 1.328 . S
C846 C847 1.457 . S
C846 H851 0.929 . S
C847 C846 1.457 . S
C847 C848 1.291 . S
C847 H860 0.931 . S
C848 C847 1.291 . S
C848 C849 1.373 . S
C848 H861 0.929 . S
C849 C848 1.373 . S
C849 C850 1.396 . S
C849 C856 1.403 . S
C850 C840 1.476 . S
C850 N845 1.318 . S
C850 C849 1.396 . S
H851 C846 0.929 . S
O852 Mn828 2.385 . S
O852 C830 1.234 . S
O853 Mn828 2.209 . S
O853 Mn829 2.215 . S
O853 C830 1.283 . S
O854 Mn828 2.094 . S
O854 C832 1.240 . S
O855 Mn829 2.117 . S
O855 C832 1.264 . S
C856 C849 1.403 . S
C856 C857 1.399 . S
C856 H862 0.929 . S
C857 C837 1.449 . S
C857 C856 1.399 . S
C857 H863 0.930 . S
H858 C838 0.931 . S
H859 C839 0.930 . S
H860 C847 0.931 . S
H861 C848 0.929 . S
H862 C856 0.929 . S
H863 C857 0.930 . S
C864 C865 1.349 . S
C864 C866 1.327 . S
C864 H889 0.950 . S
C865 C864 1.349 . S
C865 C881 1.349 . S
C866 C864 1.327 . S
C866 C885 1.429 . S
C866 H890 0.950 . S
C867 C884 1.574 . S
C867 C886 1.368 . S
C867 H891 0.949 . S
H868 C872 0.949 . S
C869 C870 1.349 . S
C869 C871 1.327 . S
C869 H892 0.950 . S
C870 C869 1.349 . S
C870 C882 1.349 . S
C871 C869 1.327 . S
C871 C887 1.429 . S
C871 H893 0.950 . S
C872 H868 0.949 . S
C872 C880 1.574 . S
C872 C888 1.368 . S
H873 C881 0.950 . S
H874 C879 0.950 . S
H875 C880 0.949 . S
H876 C882 0.950 . S
H877 C883 0.950 . S
H878 C884 0.949 . S
C879 H874 0.950 . S
C879 C881 1.327 . S
C879 C885 1.429 . S
C880 C872 1.574 . S
C880 H875 0.949 . S
C880 C886 1.368 . S
C881 C865 1.349 . S
C881 H873 0.950 . S
C881 C879 1.327 . S
C882 C870 1.349 . S
C882 H876 0.950 . S
C882 C883 1.327 . S
C883 H877 0.950 . S
C883 C882 1.327 . S
C883 C887 1.429 . S
C884 C867 1.574 . S
C884 H878 0.949 . S
C884 C888 1.368 . S
C885 C866 1.429 . S
C885 C879 1.429 . S
C885 C886 1.523 . S
C886 C867 1.368 . S
C886 C880 1.368 . S
C886 C885 1.523 . S
C887 C871 1.429 . S
C887 C883 1.429 . S
C887 C888 1.523 . S
C888 C872 1.368 . S
C888 C884 1.368 . S
C888 C887 1.523 . S
H889 C864 0.950 . S
H890 C866 0.950 . S
H891 C867 0.949 . S
H892 C869 0.950 . S
H893 C871 0.950 . S
C894 C895 1.349 . S
C894 C896 1.327 . S
C894 H919 0.950 . S
C895 C894 1.349 . S
C895 C911 1.349 . S
C896 C894 1.327 . S
C896 C915 1.429 . S
C896 H920 0.950 . S
C897 C914 1.574 1_655 S
C897 C916 1.368 . S
C897 H921 0.949 . S
H898 C902 0.949 . S
C899 C900 1.349 . S
C899 C901 1.327 . S
C899 H922 0.950 . S
C900 C899 1.349 . S
C900 C912 1.349 . S
C901 C899 1.327 . S
C901 C917 1.429 . S
C901 H923 0.950 . S
C902 H898 0.949 . S
C902 C910 1.574 1_455 S
C902 C918 1.368 . S
H903 C911 0.950 . S
H904 C909 0.950 . S
H905 C910 0.949 . S
H906 C912 0.950 . S
H907 C913 0.950 . S
H908 C914 0.949 . S
C909 H904 0.950 . S
C909 C911 1.327 . S
C909 C915 1.429 . S
C910 C902 1.574 1_655 S
C910 H905 0.949 . S
C910 C916 1.368 . S
C911 C895 1.349 . S
C911 H903 0.950 . S
C911 C909 1.327 . S
C912 C900 1.349 . S
C912 H906 0.950 . S
C912 C913 1.327 . S
C913 H907 0.950 . S
C913 C912 1.327 . S
C913 C917 1.429 . S
C914 C897 1.574 1_455 S
C914 H908 0.949 . S
C914 C918 1.368 . S
C915 C896 1.429 . S
C915 C909 1.429 . S
C915 C916 1.523 . S
C916 C897 1.368 . S
C916 C910 1.368 . S
C916 C915 1.523 . S
C917 C901 1.429 . S
C917 C913 1.429 . S
C917 C918 1.523 . S
C918 C902 1.368 . S
C918 C914 1.368 . S
C918 C917 1.523 . S
H919 C894 0.950 . S
H920 C896 0.950 . S
H921 C897 0.949 . S
H922 C899 0.950 . S
H923 C901 0.950 . S
C924 C925 1.349 . S
C924 C926 1.327 . S
C924 H949 0.950 . S
C925 C924 1.349 . S
C925 C941 1.349 . S
C926 C924 1.327 . S
C926 C945 1.429 . S
C926 H950 0.950 . S
C927 C944 1.574 . S
C927 C946 1.368 . S
C927 H951 0.949 . S
H928 C932 0.949 . S
C929 C930 1.349 . S
C929 C931 1.327 . S
C929 H952 0.950 . S
C930 C929 1.349 . S
C930 C942 1.349 . S
C931 C929 1.327 . S
C931 C947 1.429 . S
C931 H953 0.950 . S
C932 H928 0.949 . S
C932 C940 1.574 . S
C932 C948 1.368 . S
H933 C941 0.950 . S
H934 C939 0.950 . S
H935 C940 0.949 . S
H936 C942 0.950 . S
H937 C943 0.950 . S
H938 C944 0.949 . S
C939 H934 0.950 . S
C939 C941 1.327 . S
C939 C945 1.429 . S
C940 C932 1.574 . S
C940 H935 0.949 . S
C940 C946 1.368 . S
C941 C925 1.349 . S
C941 H933 0.950 . S
C941 C939 1.327 . S
C942 C930 1.349 . S
C942 H936 0.950 . S
C942 C943 1.327 . S
C943 H937 0.950 . S
C943 C942 1.327 . S
C943 C947 1.429 . S
C944 C927 1.574 . S
C944 H938 0.949 . S
C944 C948 1.368 . S
C945 C926 1.429 . S
C945 C939 1.429 . S
C945 C946 1.523 . S
C946 C927 1.368 . S
C946 C940 1.368 . S
C946 C945 1.523 . S
C947 C931 1.429 . S
C947 C943 1.429 . S
C947 C948 1.523 . S
C948 C932 1.368 . S
C948 C944 1.368 . S
C948 C947 1.523 . S
H949 C924 0.950 . S
H950 C926 0.950 . S
H951 C927 0.949 . S
H952 C929 0.950 . S
H953 C931 0.950 . S
C954 C955 1.349 . S
C954 C956 1.327 . S
C954 H979 0.950 . S
C955 C954 1.349 . S
C955 C971 1.349 . S
C956 C954 1.327 . S
C956 C975 1.429 . S
C956 H980 0.950 . S
C957 C974 1.574 1_455 S
C957 C976 1.368 . S
C957 H981 0.949 . S
H958 C962 0.949 . S
C959 C960 1.349 . S
C959 C961 1.327 . S
C959 H982 0.950 . S
C960 C959 1.349 . S
C960 C972 1.349 . S
C961 C959 1.327 . S
C961 C977 1.429 . S
C961 H983 0.950 . S
C962 H958 0.949 . S
C962 C970 1.574 1_655 S
C962 C978 1.368 . S
H963 C971 0.950 . S
H964 C969 0.950 . S
H965 C970 0.949 . S
H966 C972 0.950 . S
H967 C973 0.950 . S
H968 C974 0.949 . S
C969 H964 0.950 . S
C969 C971 1.327 . S
C969 C975 1.429 . S
C970 C962 1.574 1_455 S
C970 H965 0.949 . S
C970 C976 1.368 . S
C971 C955 1.349 . S
C971 H963 0.950 . S
C971 C969 1.327 . S
C972 C960 1.349 . S
C972 H966 0.950 . S
C972 C973 1.327 . S
C973 H967 0.950 . S
C973 C972 1.327 . S
C973 C977 1.429 . S
C974 C957 1.574 1_655 S
C974 H968 0.949 . S
C974 C978 1.368 . S
C975 C956 1.429 . S
C975 C969 1.429 . S
C975 C976 1.523 . S
C976 C957 1.368 . S
C976 C970 1.368 . S
C976 C975 1.523 . S
C977 C961 1.429 . S
C977 C973 1.429 . S
C977 C978 1.523 . S
C978 C962 1.368 . S
C978 C974 1.368 . S
C978 C977 1.523 . S
H979 C954 0.950 . S
H980 C956 0.950 . S
H981 C957 0.949 . S
H982 C959 0.950 . S
H983 C961 0.950 . S
C984 C985 1.349 . S
C984 C986 1.327 . S
C984 H1009 0.950 . S
C985 C984 1.349 . S
C985 C1001 1.349 . S
C986 C984 1.327 . S
C986 C1005 1.429 . S
C986 H1010 0.950 . S
C987 C1004 1.574 . S
C987 C1006 1.368 . S
C987 H1011 0.949 . S
H988 C992 0.949 . S
C989 C990 1.349 . S
C989 C991 1.327 . S
C989 H1012 0.950 . S
C990 C989 1.349 . S
C990 C1002 1.349 . S
C991 C989 1.327 . S
C991 C1007 1.429 . S
C991 H1013 0.950 . S
C992 H988 0.949 . S
C992 C1000 1.574 . S
C992 C1008 1.368 . S
H993 C1001 0.950 . S
H994 C999 0.950 . S
H995 C1000 0.949 . S
H996 C1002 0.950 . S
H997 C1003 0.950 . S
H998 C1004 0.949 . S
C999 H994 0.950 . S
C999 C1001 1.327 . S
C999 C1005 1.429 . S
C1000 C992 1.574 . S
C1000 H995 0.949 . S
C1000 C1006 1.368 . S
C1001 C985 1.349 . S
C1001 H993 0.950 . S
C1001 C999 1.327 . S
C1002 C990 1.349 . S
C1002 H996 0.950 . S
C1002 C1003 1.327 . S
C1003 H997 0.950 . S
C1003 C1002 1.327 . S
C1003 C1007 1.429 . S
C1004 C987 1.574 . S
C1004 H998 0.949 . S
C1004 C1008 1.368 . S
C1005 C986 1.429 . S
C1005 C999 1.429 . S
C1005 C1006 1.523 . S
C1006 C987 1.368 . S
C1006 C1000 1.368 . S
C1006 C1005 1.523 . S
C1007 C991 1.429 . S
C1007 C1003 1.429 . S
C1007 C1008 1.523 . S
C1008 C992 1.368 . S
C1008 C1004 1.368 . S
C1008 C1007 1.523 . S
H1009 C984 0.950 . S
H1010 C986 0.950 . S
H1011 C987 0.949 . S
H1012 C989 0.950 . S
H1013 C991 0.950 . S
C1014 C1015 1.349 . S
C1014 C1016 1.327 . S
C1014 H1039 0.950 . S
C1015 C1014 1.349 . S
C1015 C1031 1.349 . S
C1016 C1014 1.327 . S
C1016 C1035 1.429 . S
C1016 H1040 0.950 . S
C1017 C1034 1.574 . S
C1017 C1036 1.368 1_455 S
C1017 H1041 0.949 1_455 S
H1018 C1022 0.949 . S
C1019 C1020 1.349 . S
C1019 C1021 1.327 . S
C1019 H1042 0.950 . S
C1020 C1019 1.349 . S
C1020 C1032 1.349 . S
C1021 C1019 1.327 . S
C1021 C1037 1.429 . S
C1021 H1043 0.950 . S
C1022 H1018 0.949 . S
C1022 C1030 1.574 . S
C1022 C1038 1.368 . S
H1023 C1031 0.950 . S
H1024 C1029 0.950 . S
H1025 C1030 0.949 1_655 S
H1026 C1032 0.950 . S
H1027 C1033 0.950 . S
H1028 C1034 0.949 . S
C1029 H1024 0.950 . S
C1029 C1031 1.327 . S
C1029 C1035 1.429 . S
C1030 C1022 1.574 . S
C1030 H1025 0.949 1_455 S
C1030 C1036 1.368 1_455 S
C1031 C1015 1.349 . S
C1031 H1023 0.950 . S
C1031 C1029 1.327 . S
C1032 C1020 1.349 . S
C1032 H1026 0.950 . S
C1032 C1033 1.327 . S
C1033 H1027 0.950 . S
C1033 C1032 1.327 . S
C1033 C1037 1.429 . S
C1034 C1017 1.574 . S
C1034 H1028 0.949 . S
C1034 C1038 1.368 . S
C1035 C1016 1.429 . S
C1035 C1029 1.429 . S
C1035 C1036 1.523 . S
C1036 C1017 1.368 1_655 S
C1036 C1030 1.368 1_655 S
C1036 C1035 1.523 . S
C1037 C1021 1.429 . S
C1037 C1033 1.429 . S
C1037 C1038 1.523 . S
C1038 C1022 1.368 . S
C1038 C1034 1.368 . S
C1038 C1037 1.523 . S
H1039 C1014 0.950 . S
H1040 C1016 0.950 . S
H1041 C1017 0.949 1_655 S
H1042 C1019 0.950 . S
H1043 C1021 0.950 . S
C1044 C1045 1.349 . S
C1044 C1046 1.327 . S
C1044 H1069 0.950 . S
C1045 C1044 1.349 . S
C1045 C1061 1.349 . S
C1046 C1044 1.327 . S
C1046 C1065 1.429 . S
C1046 H1070 0.950 . S
C1047 C1064 1.574 . S
C1047 C1066 1.368 . S
C1047 H1071 0.949 . S
H1048 C1052 0.949 . S
C1049 C1050 1.349 . S
C1049 C1051 1.327 . S
C1049 H1072 0.950 . S
C1050 C1049 1.349 . S
C1050 C1062 1.349 . S
C1051 C1049 1.327 . S
C1051 C1067 1.429 . S
C1051 H1073 0.950 . S
C1052 H1048 0.949 . S
C1052 C1060 1.574 . S
C1052 C1068 1.368 . S
H1053 C1061 0.950 . S
H1054 C1059 0.950 . S
H1055 C1060 0.949 . S
H1056 C1062 0.950 . S
H1057 C1063 0.950 . S
H1058 C1064 0.949 . S
C1059 H1054 0.950 . S
C1059 C1061 1.327 . S
C1059 C1065 1.429 . S
C1060 C1052 1.574 . S
C1060 H1055 0.949 . S
C1060 C1066 1.368 . S
C1061 C1045 1.349 . S
C1061 H1053 0.950 . S
C1061 C1059 1.327 . S
C1062 C1050 1.349 . S
C1062 H1056 0.950 . S
C1062 C1063 1.327 . S
C1063 H1057 0.950 . S
C1063 C1062 1.327 . S
C1063 C1067 1.429 . S
C1064 C1047 1.574 . S
C1064 H1058 0.949 . S
C1064 C1068 1.368 . S
C1065 C1046 1.429 . S
C1065 C1059 1.429 . S
C1065 C1066 1.523 . S
C1066 C1047 1.368 . S
C1066 C1060 1.368 . S
C1066 C1065 1.523 . S
C1067 C1051 1.429 . S
C1067 C1063 1.429 . S
C1067 C1068 1.523 . S
C1068 C1052 1.368 . S
C1068 C1064 1.368 . S
C1068 C1067 1.523 . S
H1069 C1044 0.950 . S
H1070 C1046 0.950 . S
H1071 C1047 0.949 . S
H1072 C1049 0.950 . S
H1073 C1051 0.950 . S
C1074 C1075 1.349 . S
C1074 C1076 1.327 . S
C1074 H1099 0.950 . S
C1075 C1074 1.349 . S
C1075 C1091 1.349 . S
C1076 C1074 1.327 . S
C1076 C1095 1.429 . S
C1076 H1100 0.950 . S
C1077 C1094 1.522 1_655 S
C1077 C1096 1.368 . S
C1077 H1101 0.949 . S
H1078 C1082 0.922 1_455 S
C1079 C1080 1.349 . S
C1079 C1081 1.327 . S
C1079 H1102 0.950 . S
C1080 C1079 1.349 . S
C1080 C1092 1.349 . S
C1081 C1079 1.327 . S
C1081 C1097 1.429 . S
C1081 H1103 0.950 . S
C1082 H1078 0.922 1_655 S
C1082 C1090 1.625 . S
C1082 C1098 1.350 1_655 S
H1083 C1091 0.950 . S
H1084 C1089 0.950 . S
H1085 C1090 0.949 . S
H1086 C1092 0.950 . S
H1087 C1093 0.950 . S
H1088 C1094 0.978 . S
C1089 H1084 0.950 . S
C1089 C1091 1.327 . S
C1089 C1095 1.429 . S
C1090 C1082 1.625 . S
C1090 H1085 0.949 . S
C1090 C1096 1.368 . S
C1091 C1075 1.349 . S
C1091 H1083 0.950 . S
C1091 C1089 1.327 . S
C1092 C1080 1.349 . S
C1092 H1086 0.950 . S
C1092 C1093 1.327 . S
C1093 H1087 0.950 . S
C1093 C1092 1.327 . S
C1093 C1097 1.429 . S
C1094 C1077 1.522 1_455 S
C1094 H1088 0.978 . S
C1094 C1098 1.389 . S
C1095 C1076 1.429 . S
C1095 C1089 1.429 . S
C1095 C1096 1.523 . S
C1096 C1077 1.368 . S
C1096 C1090 1.368 . S
C1096 C1095 1.523 . S
C1097 C1081 1.429 . S
C1097 C1093 1.429 . S
C1097 C1098 1.523 . S
C1098 C1082 1.350 1_455 S
C1098 C1094 1.389 . S
C1098 C1097 1.523 . S
H1099 C1074 0.950 . S
H1100 C1076 0.950 . S
H1101 C1077 0.949 . S
H1102 C1079 0.950 . S
H1103 C1081 0.950 . S
C1104 C1105 1.349 . S
C1104 C1106 1.327 . S
C1104 H1129 0.950 . S
C1105 C1104 1.349 . S
C1105 C1121 1.349 . S
C1106 C1104 1.327 . S
C1106 C1125 1.429 . S
C1106 H1130 0.950 . S
C1107 C1124 1.574 . S
C1107 C1126 1.368 . S
C1107 H1131 0.949 . S
H1108 C1112 0.949 . S
C1109 C1110 1.349 . S
C1109 C1111 1.327 . S
C1109 H1132 0.950 . S
C1110 C1109 1.349 . S
C1110 C1122 1.349 . S
C1111 C1109 1.327 . S
C1111 C1127 1.429 . S
C1111 H1133 0.950 . S
C1112 H1108 0.949 . S
C1112 C1120 1.574 . S
C1112 C1128 1.368 . S
H1113 C1121 0.950 . S
H1114 C1119 0.950 . S
H1115 C1120 0.949 . S
H1116 C1122 0.950 . S
H1117 C1123 0.950 . S
H1118 C1124 0.949 . S
C1119 H1114 0.950 . S
C1119 C1121 1.327 . S
C1119 C1125 1.429 . S
C1120 C1112 1.574 . S
C1120 H1115 0.949 . S
C1120 C1126 1.368 . S
C1121 C1105 1.349 . S
C1121 H1113 0.950 . S
C1121 C1119 1.327 . S
C1122 C1110 1.349 . S
C1122 H1116 0.950 . S
C1122 C1123 1.327 . S
C1123 H1117 0.950 . S
C1123 C1122 1.327 . S
C1123 C1127 1.429 . S
C1124 C1107 1.574 . S
C1124 H1118 0.949 . S
C1124 C1128 1.368 . S
C1125 C1106 1.429 . S
C1125 C1119 1.429 . S
C1125 C1126 1.523 . S
C1126 C1107 1.368 . S
C1126 C1120 1.368 . S
C1126 C1125 1.523 . S
C1127 C1111 1.429 . S
C1127 C1123 1.429 . S
C1127 C1128 1.523 . S
C1128 C1112 1.368 . S
C1128 C1124 1.368 . S
C1128 C1127 1.523 . S
H1129 C1104 0.950 . S
H1130 C1106 0.950 . S
H1131 C1107 0.949 . S
H1132 C1109 0.950 . S
H1133 C1111 0.950 . S
C1134 C1135 1.349 . S
C1134 C1136 1.327 . S
C1134 H1159 0.950 . S
C1135 C1134 1.349 . S
C1135 C1151 1.349 . S
C1136 C1134 1.327 . S
C1136 C1155 1.429 . S
C1136 H1160 0.950 . S
C1137 C1154 1.574 1_556 S
C1137 C1156 1.368 . S
C1137 H1161 0.949 . S
H1138 C1142 0.949 . S
C1139 C1140 1.349 . S
C1139 C1141 1.327 . S
C1139 H1162 0.950 . S
C1140 C1139 1.349 . S
C1140 C1152 1.349 . S
C1141 C1139 1.327 . S
C1141 C1157 1.429 . S
C1141 H1163 0.950 . S
C1142 H1138 0.949 . S
C1142 C1150 1.574 1_554 S
C1142 C1158 1.368 . S
H1143 C1151 0.950 . S
H1144 C1149 0.950 . S
H1145 C1150 0.949 . S
H1146 C1152 0.950 . S
H1147 C1153 0.950 . S
H1148 C1154 0.949 . S
C1149 H1144 0.950 . S
C1149 C1151 1.327 . S
C1149 C1155 1.429 . S
C1150 C1142 1.574 1_556 S
C1150 H1145 0.949 . S
C1150 C1156 1.368 . S
C1151 C1135 1.349 . S
C1151 H1143 0.950 . S
C1151 C1149 1.327 . S
C1152 C1140 1.349 . S
C1152 H1146 0.950 . S
C1152 C1153 1.327 . S
C1153 H1147 0.950 . S
C1153 C1152 1.327 . S
C1153 C1157 1.429 . S
C1154 C1137 1.574 1_554 S
C1154 H1148 0.949 . S
C1154 C1158 1.368 . S
C1155 C1136 1.429 . S
C1155 C1149 1.429 . S
C1155 C1156 1.523 . S
C1156 C1137 1.368 . S
C1156 C1150 1.368 . S
C1156 C1155 1.523 . S
C1157 C1141 1.429 . S
C1157 C1153 1.429 . S
C1157 C1158 1.523 . S
C1158 C1142 1.368 . S
C1158 C1154 1.368 . S
C1158 C1157 1.523 . S
H1159 C1134 0.950 . S
H1160 C1136 0.950 . S
H1161 C1137 0.949 . S
H1162 C1139 0.950 . S
H1163 C1141 0.950 . S
C1164 C1165 1.349 . S
C1164 C1166 1.327 . S
C1164 H1189 0.950 . S
C1165 C1164 1.349 . S
C1165 C1181 1.349 . S
C1166 C1164 1.327 . S
C1166 C1185 1.429 . S
C1166 H1190 0.950 . S
C1167 C1184 1.574 . S
C1167 C1186 1.368 . S
C1167 H1191 0.949 . S
H1168 C1172 0.949 . S
C1169 C1170 1.349 . S
C1169 C1171 1.327 . S
C1169 H1192 0.950 . S
C1170 C1169 1.349 . S
C1170 C1182 1.349 . S
C1171 C1169 1.327 . S
C1171 C1187 1.429 . S
C1171 H1193 0.950 . S
C1172 H1168 0.949 . S
C1172 C1180 1.574 . S
C1172 C1188 1.368 . S
H1173 C1181 0.950 . S
H1174 C1179 0.950 . S
H1175 C1180 0.949 . S
H1176 C1182 0.950 . S
H1177 C1183 0.950 . S
H1178 C1184 0.949 . S
C1179 H1174 0.950 . S
C1179 C1181 1.327 . S
C1179 C1185 1.429 . S
C1180 C1172 1.574 . S
C1180 H1175 0.949 . S
C1180 C1186 1.368 . S
C1181 C1165 1.349 . S
C1181 H1173 0.950 . S
C1181 C1179 1.327 . S
C1182 C1170 1.349 . S
C1182 H1176 0.950 . S
C1182 C1183 1.327 . S
C1183 H1177 0.950 . S
C1183 C1182 1.327 . S
C1183 C1187 1.429 . S
C1184 C1167 1.574 . S
C1184 H1178 0.949 . S
C1184 C1188 1.368 . S
C1185 C1166 1.429 . S
C1185 C1179 1.429 . S
C1185 C1186 1.523 . S
C1186 C1167 1.368 . S
C1186 C1180 1.368 . S
C1186 C1185 1.523 . S
C1187 C1171 1.429 . S
C1187 C1183 1.429 . S
C1187 C1188 1.523 . S
C1188 C1172 1.368 . S
C1188 C1184 1.368 . S
C1188 C1187 1.523 . S
H1189 C1164 0.950 . S
H1190 C1166 0.950 . S
H1191 C1167 0.949 . S
H1192 C1169 0.950 . S
H1193 C1171 0.950 . S
C1194 C1195 1.349 . S
C1194 C1196 1.327 . S
C1194 H1219 0.950 . S
C1195 C1194 1.349 . S
C1195 C1211 1.349 . S
C1196 C1194 1.327 . S
C1196 C1215 1.429 . S
C1196 H1220 0.950 . S
C1197 C1214 1.574 1_554 S
C1197 C1216 1.368 . S
C1197 H1221 0.949 . S
H1198 C1202 0.949 . S
C1199 C1200 1.349 . S
C1199 C1201 1.327 . S
C1199 H1222 0.950 . S
C1200 C1199 1.349 . S
C1200 C1212 1.349 . S
C1201 C1199 1.327 . S
C1201 C1217 1.429 . S
C1201 H1223 0.950 . S
C1202 H1198 0.949 . S
C1202 C1210 1.574 1_556 S
C1202 C1218 1.368 . S
H1203 C1211 0.950 . S
H1204 C1209 0.950 . S
H1205 C1210 0.949 . S
H1206 C1212 0.950 . S
H1207 C1213 0.950 . S
H1208 C1214 0.949 . S
C1209 H1204 0.950 . S
C1209 C1211 1.327 . S
C1209 C1215 1.429 . S
C1210 C1202 1.574 1_554 S
C1210 H1205 0.949 . S
C1210 C1216 1.368 . S
C1211 C1195 1.349 . S
C1211 H1203 0.950 . S
C1211 C1209 1.327 . S
C1212 C1200 1.349 . S
C1212 H1206 0.950 . S
C1212 C1213 1.327 . S
C1213 H1207 0.950 . S
C1213 C1212 1.327 . S
C1213 C1217 1.429 . S
C1214 C1197 1.574 1_556 S
C1214 H1208 0.949 . S
C1214 C1218 1.368 . S
C1215 C1196 1.429 . S
C1215 C1209 1.429 . S
C1215 C1216 1.523 . S
C1216 C1197 1.368 . S
C1216 C1210 1.368 . S
C1216 C1215 1.523 . S
C1217 C1201 1.429 . S
C1217 C1213 1.429 . S
C1217 C1218 1.523 . S
C1218 C1202 1.368 . S
C1218 C1214 1.368 . S
C1218 C1217 1.523 . S
H1219 C1194 0.950 . S
H1220 C1196 0.950 . S
H1221 C1197 0.949 . S
H1222 C1199 0.950 . S
H1223 C1201 0.950 . S
C1224 C1225 1.349 . S
C1224 C1226 1.327 . S
C1224 H1249 0.950 . S
C1225 C1224 1.349 . S
C1225 C1241 1.349 . S
C1226 C1224 1.327 . S
C1226 C1245 1.429 . S
C1226 H1250 0.950 . S
C1227 C1244 1.574 . S
C1227 C1246 1.368 . S
C1227 H1251 0.949 . S
H1228 C1232 0.949 . S
C1229 C1230 1.349 . S
C1229 C1231 1.327 . S
C1229 H1252 0.950 . S
C1230 C1229 1.349 . S
C1230 C1242 1.349 . S
C1231 C1229 1.327 . S
C1231 C1247 1.429 . S
C1231 H1253 0.950 . S
C1232 H1228 0.949 . S
C1232 C1240 1.574 . S
C1232 C1248 1.368 . S
H1233 C1241 0.950 . S
H1234 C1239 0.950 . S
H1235 C1240 0.949 . S
H1236 C1242 0.950 . S
H1237 C1243 0.950 . S
H1238 C1244 0.949 . S
C1239 H1234 0.950 . S
C1239 C1241 1.327 . S
C1239 C1245 1.429 . S
C1240 C1232 1.574 . S
C1240 H1235 0.949 . S
C1240 C1246 1.368 . S
C1241 C1225 1.349 . S
C1241 H1233 0.950 . S
C1241 C1239 1.327 . S
C1242 C1230 1.349 . S
C1242 H1236 0.950 . S
C1242 C1243 1.327 . S
C1243 H1237 0.950 . S
C1243 C1242 1.327 . S
C1243 C1247 1.429 . S
C1244 C1227 1.574 . S
C1244 H1238 0.949 . S
C1244 C1248 1.368 . S
C1245 C1226 1.429 . S
C1245 C1239 1.429 . S
C1245 C1246 1.523 . S
C1246 C1227 1.368 . S
C1246 C1240 1.368 . S
C1246 C1245 1.523 . S
C1247 C1231 1.429 . S
C1247 C1243 1.429 . S
C1247 C1248 1.523 . S
C1248 C1232 1.368 . S
C1248 C1244 1.368 . S
C1248 C1247 1.523 . S
H1249 C1224 0.950 . S
H1250 C1226 0.950 . S
H1251 C1227 0.949 . S
H1252 C1229 0.950 . S
H1253 C1231 0.950 . S
C1254 C1255 1.349 . S
C1254 C1256 1.327 . S
C1254 H1279 0.950 . S
C1255 C1254 1.349 . S
C1255 C1271 1.349 . S
C1256 C1254 1.327 . S
C1256 C1275 1.429 . S
C1256 H1280 0.950 . S
C1257 C1274 1.574 1_554 S
C1257 C1276 1.368 . S
C1257 H1281 0.949 . S
H1258 C1262 0.949 . S
C1259 C1260 1.349 . S
C1259 C1261 1.327 . S
C1259 H1282 0.950 . S
C1260 C1259 1.349 . S
C1260 C1272 1.349 . S
C1261 C1259 1.327 . S
C1261 C1277 1.429 . S
C1261 H1283 0.950 . S
C1262 H1258 0.949 . S
C1262 C1270 1.574 1_556 S
C1262 C1278 1.368 . S
H1263 C1271 0.950 . S
H1264 C1269 0.950 . S
H1265 C1270 0.949 . S
H1266 C1272 0.950 . S
H1267 C1273 0.950 . S
H1268 C1274 0.949 . S
C1269 H1264 0.950 . S
C1269 C1271 1.327 . S
C1269 C1275 1.429 . S
C1270 C1262 1.574 1_554 S
C1270 H1265 0.949 . S
C1270 C1276 1.368 . S
C1271 C1255 1.349 . S
C1271 H1263 0.950 . S
C1271 C1269 1.327 . S
C1272 C1260 1.349 . S
C1272 H1266 0.950 . S
C1272 C1273 1.327 . S
C1273 H1267 0.950 . S
C1273 C1272 1.327 . S
C1273 C1277 1.429 . S
C1274 C1257 1.574 1_556 S
C1274 H1268 0.949 . S
C1274 C1278 1.368 . S
C1275 C1256 1.429 . S
C1275 C1269 1.429 . S
C1275 C1276 1.523 . S
C1276 C1257 1.368 . S
C1276 C1270 1.368 . S
C1276 C1275 1.523 . S
C1277 C1261 1.429 . S
C1277 C1273 1.429 . S
C1277 C1278 1.523 . S
C1278 C1262 1.368 . S
C1278 C1274 1.368 . S
C1278 C1277 1.523 . S
H1279 C1254 0.950 . S
H1280 C1256 0.950 . S
H1281 C1257 0.949 . S
H1282 C1259 0.950 . S
H1283 C1261 0.950 . S
C1284 C1285 1.349 . S
C1284 C1286 1.327 . S
C1284 H1309 0.950 . S
C1285 C1284 1.349 . S
C1285 C1301 1.349 . S
C1286 C1284 1.327 . S
C1286 C1305 1.429 . S
C1286 H1310 0.950 . S
C1287 C1304 1.574 . S
C1287 C1306 1.368 . S
C1287 H1311 0.949 . S
H1288 C1292 0.949 . S
C1289 C1290 1.349 . S
C1289 C1291 1.327 . S
C1289 H1312 0.950 . S
C1290 C1289 1.349 . S
C1290 C1302 1.349 . S
C1291 C1289 1.327 . S
C1291 C1307 1.429 . S
C1291 H1313 0.950 . S
C1292 H1288 0.949 . S
C1292 C1300 1.574 . S
C1292 C1308 1.368 . S
H1293 C1301 0.950 . S
H1294 C1299 0.950 . S
H1295 C1300 0.949 . S
H1296 C1302 0.950 . S
H1297 C1303 0.950 . S
H1298 C1304 0.949 . S
C1299 H1294 0.950 . S
C1299 C1301 1.327 . S
C1299 C1305 1.429 . S
C1300 C1292 1.574 . S
C1300 H1295 0.949 . S
C1300 C1306 1.368 . S
C1301 C1285 1.349 . S
C1301 H1293 0.950 . S
C1301 C1299 1.327 . S
C1302 C1290 1.349 . S
C1302 H1296 0.950 . S
C1302 C1303 1.327 . S
C1303 H1297 0.950 . S
C1303 C1302 1.327 . S
C1303 C1307 1.429 . S
C1304 C1287 1.574 . S
C1304 H1298 0.949 . S
C1304 C1308 1.368 . S
C1305 C1286 1.429 . S
C1305 C1299 1.429 . S
C1305 C1306 1.523 . S
C1306 C1287 1.368 . S
C1306 C1300 1.368 . S
C1306 C1305 1.523 . S
C1307 C1291 1.429 . S
C1307 C1303 1.429 . S
C1307 C1308 1.523 . S
C1308 C1292 1.368 . S
C1308 C1304 1.368 . S
C1308 C1307 1.523 . S
H1309 C1284 0.950 . S
H1310 C1286 0.950 . S
H1311 C1287 0.949 . S
H1312 C1289 0.950 . S
H1313 C1291 0.950 . S
C1314 C1315 1.349 . S
C1314 C1316 1.327 . S
C1314 H1339 0.950 . S
C1315 C1314 1.349 . S
C1315 C1331 1.349 . S
C1316 C1314 1.327 . S
C1316 C1335 1.429 . S
C1316 H1340 0.950 . S
C1317 C1334 1.574 1_554 S
C1317 C1336 1.368 . S
C1317 H1341 0.949 . S
H1318 C1322 0.976 . S
C1319 C1320 1.349 . S
C1319 C1321 1.327 . S
C1319 H1342 0.950 . S
C1320 C1319 1.349 . S
C1320 C1332 1.349 . S
C1321 C1319 1.327 . S
C1321 C1337 1.429 . S
C1321 H1343 0.950 . S
C1322 H1318 0.976 . S
C1322 C1330 1.528 1_556 S
C1322 C1338 1.386 . S
H1323 C1331 0.950 . S
H1324 C1329 0.950 . S
H1325 C1330 0.949 . S
H1326 C1332 0.950 . S
H1327 C1333 0.950 . S
H1328 C1334 0.949 . S
C1329 H1324 0.950 . S
C1329 C1331 1.327 . S
C1329 C1335 1.429 . S
C1330 C1322 1.528 1_554 S
C1330 H1325 0.949 . S
C1330 C1336 1.368 . S
C1331 C1315 1.349 . S
C1331 H1323 0.950 . S
C1331 C1329 1.327 . S
C1332 C1320 1.349 . S
C1332 H1326 0.950 . S
C1332 C1333 1.327 . S
C1333 H1327 0.950 . S
C1333 C1332 1.327 . S
C1333 C1337 1.429 . S
C1334 C1317 1.574 1_556 S
C1334 H1328 0.949 . S
C1334 C1338 1.368 . S
C1335 C1316 1.429 . S
C1335 C1329 1.429 . S
C1335 C1336 1.523 . S
C1336 C1317 1.368 . S
C1336 C1330 1.368 . S
C1336 C1335 1.523 . S
C1337 C1321 1.429 . S
C1337 C1333 1.429 . S
C1337 C1338 1.523 . S
C1338 C1322 1.386 . S
C1338 C1334 1.368 . S
C1338 C1337 1.523 . S
H1339 C1314 0.950 . S
H1340 C1316 0.950 . S
H1341 C1317 0.949 . S
H1342 C1319 0.950 . S
H1343 C1321 0.950 . S
C1344 C1345 1.349 . S
C1344 C1346 1.327 . S
C1344 H1369 0.950 . S
C1345 C1344 1.349 . S
C1345 C1361 1.349 . S
C1346 C1344 1.327 . S
C1346 C1365 1.429 . S
C1346 H1370 0.950 . S
C1347 C1364 1.574 . S
C1347 C1366 1.368 . S
C1347 H1371 0.949 . S
H1348 C1352 0.949 . S
C1349 C1350 1.349 . S
C1349 C1351 1.327 . S
C1349 H1372 0.950 . S
C1350 C1349 1.349 . S
C1350 C1362 1.349 . S
C1351 C1349 1.327 . S
C1351 C1367 1.429 . S
C1351 H1373 0.950 . S
C1352 H1348 0.949 . S
C1352 C1360 1.574 . S
C1352 C1368 1.368 . S
H1353 C1361 0.950 . S
H1354 C1359 0.950 . S
H1355 C1360 0.949 . S
H1356 C1362 0.950 . S
H1357 C1363 0.950 . S
H1358 C1364 0.949 . S
C1359 H1354 0.950 . S
C1359 C1361 1.327 . S
C1359 C1365 1.429 . S
C1360 C1352 1.574 . S
C1360 H1355 0.949 . S
C1360 C1366 1.368 . S
C1361 C1345 1.349 . S
C1361 H1353 0.950 . S
C1361 C1359 1.327 . S
C1362 C1350 1.349 . S
C1362 H1356 0.950 . S
C1362 C1363 1.327 . S
C1363 H1357 0.950 . S
C1363 C1362 1.327 . S
C1363 C1367 1.429 . S
C1364 C1347 1.574 . S
C1364 H1358 0.949 . S
C1364 C1368 1.368 . S
C1365 C1346 1.429 . S
C1365 C1359 1.429 . S
C1365 C1366 1.523 . S
C1366 C1347 1.368 . S
C1366 C1360 1.368 . S
C1366 C1365 1.523 . S
C1367 C1351 1.429 . S
C1367 C1363 1.429 . S
C1367 C1368 1.523 . S
C1368 C1352 1.368 . S
C1368 C1364 1.368 . S
C1368 C1367 1.523 . S
H1369 C1344 0.950 . S
H1370 C1346 0.950 . S
H1371 C1347 0.949 . S
H1372 C1349 0.950 . S
H1373 C1351 0.950 . S
C1374 C1375 1.349 . S
C1374 C1376 1.327 . S
C1374 H1399 0.950 . S
C1375 C1374 1.349 . S
C1375 C1391 1.349 . S
C1376 C1374 1.327 . S
C1376 C1395 1.429 . S
C1376 H1400 0.950 . S
C1377 C1394 1.574 . S
C1377 C1396 1.368 . S
C1377 H1401 0.949 . S
H1378 C1382 0.949 . S
C1379 C1380 1.349 . S
C1379 C1381 1.327 . S
C1379 H1402 0.950 . S
C1380 C1379 1.349 . S
C1380 C1392 1.349 . S
C1381 C1379 1.327 . S
C1381 C1397 1.429 . S
C1381 H1403 0.950 . S
C1382 H1378 0.949 . S
C1382 C1390 1.574 . S
C1382 C1398 1.368 . S
H1383 C1391 0.950 . S
H1384 C1389 0.950 . S
H1385 C1390 0.949 . S
H1386 C1392 0.950 . S
H1387 C1393 0.950 . S
H1388 C1394 0.949 . S
C1389 H1384 0.950 . S
C1389 C1391 1.327 . S
C1389 C1395 1.429 . S
C1390 C1382 1.574 . S
C1390 H1385 0.949 . S
C1390 C1396 1.368 . S
C1391 C1375 1.349 . S
C1391 H1383 0.950 . S
C1391 C1389 1.327 . S
C1392 C1380 1.349 . S
C1392 H1386 0.950 . S
C1392 C1393 1.327 . S
C1393 H1387 0.950 . S
C1393 C1392 1.327 . S
C1393 C1397 1.429 . S
C1394 C1377 1.574 . S
C1394 H1388 0.949 . S
C1394 C1398 1.368 . S
C1395 C1376 1.429 . S
C1395 C1389 1.429 . S
C1395 C1396 1.523 . S
C1396 C1377 1.368 . S
C1396 C1390 1.368 . S
C1396 C1395 1.523 . S
C1397 C1381 1.429 . S
C1397 C1393 1.429 . S
C1397 C1398 1.523 . S
C1398 C1382 1.368 . S
C1398 C1394 1.368 . S
C1398 C1397 1.523 . S
H1399 C1374 0.950 . S
H1400 C1376 0.950 . S
H1401 C1377 0.949 . S
H1402 C1379 0.950 . S
H1403 C1381 0.950 . S
C1404 C1405 1.349 . S
C1404 C1406 1.327 . S
C1404 H1429 0.950 . S
C1405 C1404 1.349 . S
C1405 C1421 1.349 . S
C1406 C1404 1.327 . S
C1406 C1425 1.429 . S
C1406 H1430 0.950 . S
C1407 C1424 1.574 1_565 S
C1407 C1426 1.368 . S
C1407 H1431 0.949 . S
H1408 C1412 0.949 . S
C1409 C1410 1.349 . S
C1409 C1411 1.327 . S
C1409 H1432 0.950 . S
C1410 C1409 1.349 . S
C1410 C1422 1.349 . S
C1411 C1409 1.327 . S
C1411 C1427 1.429 . S
C1411 H1433 0.950 . S
C1412 H1408 0.949 . S
C1412 C1420 1.574 1_545 S
C1412 C1428 1.368 . S
H1413 C1421 0.950 . S
H1414 C1419 0.950 . S
H1415 C1420 0.949 . S
H1416 C1422 0.950 . S
H1417 C1423 0.950 . S
H1418 C1424 0.949 . S
C1419 H1414 0.950 . S
C1419 C1421 1.327 . S
C1419 C1425 1.429 . S
C1420 C1412 1.574 1_565 S
C1420 H1415 0.949 . S
C1420 C1426 1.368 . S
C1421 C1405 1.349 . S
C1421 H1413 0.950 . S
C1421 C1419 1.327 . S
C1422 C1410 1.349 . S
C1422 H1416 0.950 . S
C1422 C1423 1.327 . S
C1423 H1417 0.950 . S
C1423 C1422 1.327 . S
C1423 C1427 1.429 . S
C1424 C1407 1.574 1_545 S
C1424 H1418 0.949 . S
C1424 C1428 1.368 . S
C1425 C1406 1.429 . S
C1425 C1419 1.429 . S
C1425 C1426 1.523 . S
C1426 C1407 1.368 . S
C1426 C1420 1.368 . S
C1426 C1425 1.523 . S
C1427 C1411 1.429 . S
C1427 C1423 1.429 . S
C1427 C1428 1.523 . S
C1428 C1412 1.368 . S
C1428 C1424 1.368 . S
C1428 C1427 1.523 . S
H1429 C1404 0.950 . S
H1430 C1406 0.950 . S
H1431 C1407 0.949 . S
H1432 C1409 0.950 . S
H1433 C1411 0.950 . S
C1434 C1435 1.349 . S
C1434 C1436 1.327 . S
C1434 H1459 0.950 . S
C1435 C1434 1.349 . S
C1435 C1451 1.349 . S
C1436 C1434 1.327 . S
C1436 C1455 1.429 . S
C1436 H1460 0.950 . S
C1437 C1454 1.574 . S
C1437 C1456 1.368 . S
C1437 H1461 0.949 . S
H1438 C1442 0.949 . S
C1439 C1440 1.349 . S
C1439 C1441 1.327 . S
C1439 H1462 0.950 . S
C1440 C1439 1.349 . S
C1440 C1452 1.349 . S
C1441 C1439 1.327 . S
C1441 C1457 1.429 . S
C1441 H1463 0.950 . S
C1442 H1438 0.949 . S
C1442 C1450 1.574 . S
C1442 C1458 1.368 . S
H1443 C1451 0.950 . S
H1444 C1449 0.950 . S
H1445 C1450 0.949 . S
H1446 C1452 0.950 . S
H1447 C1453 0.950 . S
H1448 C1454 0.949 . S
C1449 H1444 0.950 . S
C1449 C1451 1.327 . S
C1449 C1455 1.429 . S
C1450 C1442 1.574 . S
C1450 H1445 0.949 . S
C1450 C1456 1.368 . S
C1451 C1435 1.349 . S
C1451 H1443 0.950 . S
C1451 C1449 1.327 . S
C1452 C1440 1.349 . S
C1452 H1446 0.950 . S
C1452 C1453 1.327 . S
C1453 H1447 0.950 . S
C1453 C1452 1.327 . S
C1453 C1457 1.429 . S
C1454 C1437 1.574 . S
C1454 H1448 0.949 . S
C1454 C1458 1.368 . S
C1455 C1436 1.429 . S
C1455 C1449 1.429 . S
C1455 C1456 1.523 . S
C1456 C1437 1.368 . S
C1456 C1450 1.368 . S
C1456 C1455 1.523 . S
C1457 C1441 1.429 . S
C1457 C1453 1.429 . S
C1457 C1458 1.523 . S
C1458 C1442 1.368 . S
C1458 C1454 1.368 . S
C1458 C1457 1.523 . S
H1459 C1434 0.950 . S
H1460 C1436 0.950 . S
H1461 C1437 0.949 . S
H1462 C1439 0.950 . S
H1463 C1441 0.950 . S
C1464 C1465 1.349 . S
C1464 C1466 1.327 . S
C1464 H1489 0.950 . S
C1465 C1464 1.349 . S
C1465 C1481 1.349 . S
C1466 C1464 1.327 . S
C1466 C1485 1.429 . S
C1466 H1490 0.950 . S
C1467 C1484 1.574 1_565 S
C1467 C1486 1.368 . S
C1467 H1491 0.949 . S
H1468 C1472 0.949 . S
C1469 C1470 1.349 . S
C1469 C1471 1.327 . S
C1469 H1492 0.950 . S
C1470 C1469 1.349 . S
C1470 C1482 1.349 . S
C1471 C1469 1.327 . S
C1471 C1487 1.429 . S
C1471 H1493 0.950 . S
C1472 H1468 0.949 . S
C1472 C1480 1.574 1_545 S
C1472 C1488 1.368 . S
H1473 C1481 0.950 . S
H1474 C1479 0.950 . S
H1475 C1480 0.949 . S
H1476 C1482 0.950 . S
H1477 C1483 0.950 . S
H1478 C1484 0.949 . S
C1479 H1474 0.950 . S
C1479 C1481 1.327 . S
C1479 C1485 1.429 . S
C1480 C1472 1.574 1_565 S
C1480 H1475 0.949 . S
C1480 C1486 1.368 . S
C1481 C1465 1.349 . S
C1481 H1473 0.950 . S
C1481 C1479 1.327 . S
C1482 C1470 1.349 . S
C1482 H1476 0.950 . S
C1482 C1483 1.327 . S
C1483 H1477 0.950 . S
C1483 C1482 1.327 . S
C1483 C1487 1.429 . S
C1484 C1467 1.574 1_545 S
C1484 H1478 0.949 . S
C1484 C1488 1.368 . S
C1485 C1466 1.429 . S
C1485 C1479 1.429 . S
C1485 C1486 1.523 . S
C1486 C1467 1.368 . S
C1486 C1480 1.368 . S
C1486 C1485 1.523 . S
C1487 C1471 1.429 . S
C1487 C1483 1.429 . S
C1487 C1488 1.523 . S
C1488 C1472 1.368 . S
C1488 C1484 1.368 . S
C1488 C1487 1.523 . S
H1489 C1464 0.950 . S
H1490 C1466 0.950 . S
H1491 C1467 0.949 . S
H1492 C1469 0.950 . S
H1493 C1471 0.950 . S
C1494 C1495 1.349 . S
C1494 C1496 1.327 . S
C1494 H1519 0.950 . S
C1495 C1494 1.349 . S
C1495 C1511 1.349 . S
C1496 C1494 1.327 . S
C1496 C1515 1.429 . S
C1496 H1520 0.950 . S
C1497 C1514 1.574 . S
C1497 C1516 1.368 . S
C1497 H1521 0.949 . S
H1498 C1502 0.949 . S
C1499 C1500 1.349 . S
C1499 C1501 1.327 . S
C1499 H1522 0.950 . S
C1500 C1499 1.349 . S
C1500 C1512 1.349 . S
C1501 C1499 1.327 . S
C1501 C1517 1.429 . S
C1501 H1523 0.950 . S
C1502 H1498 0.949 . S
C1502 C1510 1.574 . S
C1502 C1518 1.368 . S
H1503 C1511 0.950 . S
H1504 C1509 0.950 . S
H1505 C1510 0.949 . S
H1506 C1512 0.950 . S
H1507 C1513 0.950 . S
H1508 C1514 0.949 . S
C1509 H1504 0.950 . S
C1509 C1511 1.327 . S
C1509 C1515 1.429 . S
C1510 C1502 1.574 . S
C1510 H1505 0.949 . S
C1510 C1516 1.368 . S
C1511 C1495 1.349 . S
C1511 H1503 0.950 . S
C1511 C1509 1.327 . S
C1512 C1500 1.349 . S
C1512 H1506 0.950 . S
C1512 C1513 1.327 . S
C1513 H1507 0.950 . S
C1513 C1512 1.327 . S
C1513 C1517 1.429 . S
C1514 C1497 1.574 . S
C1514 H1508 0.949 . S
C1514 C1518 1.368 . S
C1515 C1496 1.429 . S
C1515 C1509 1.429 . S
C1515 C1516 1.523 . S
C1516 C1497 1.368 . S
C1516 C1510 1.368 . S
C1516 C1515 1.523 . S
C1517 C1501 1.429 . S
C1517 C1513 1.429 . S
C1517 C1518 1.523 . S
C1518 C1502 1.368 . S
C1518 C1514 1.368 . S
C1518 C1517 1.523 . S
H1519 C1494 0.950 . S
H1520 C1496 0.950 . S
H1521 C1497 0.949 . S
H1522 C1499 0.950 . S
H1523 C1501 0.950 . S
C1524 C1525 1.349 . S
C1524 C1526 1.327 . S
C1524 H1549 0.950 . S
C1525 C1524 1.349 . S
C1525 C1541 1.349 . S
C1526 C1524 1.327 . S
C1526 C1545 1.429 . S
C1526 H1550 0.950 . S
C1527 C1544 1.574 1_565 S
C1527 C1546 1.368 . S
C1527 H1551 0.949 . S
H1528 C1532 0.949 . S
C1529 C1530 1.349 . S
C1529 C1531 1.327 . S
C1529 H1552 0.950 . S
C1530 C1529 1.349 . S
C1530 C1542 1.349 . S
C1531 C1529 1.327 . S
C1531 C1547 1.429 . S
C1531 H1553 0.950 . S
C1532 H1528 0.949 . S
C1532 C1540 1.574 1_545 S
C1532 C1548 1.368 . S
H1533 C1541 0.950 . S
H1534 C1539 0.950 . S
H1535 C1540 0.949 . S
H1536 C1542 0.950 . S
H1537 C1543 0.950 . S
H1538 C1544 0.949 . S
C1539 H1534 0.950 . S
C1539 C1541 1.327 . S
C1539 C1545 1.429 . S
C1540 C1532 1.574 1_565 S
C1540 H1535 0.949 . S
C1540 C1546 1.368 . S
C1541 C1525 1.349 . S
C1541 H1533 0.950 . S
C1541 C1539 1.327 . S
C1542 C1530 1.349 . S
C1542 H1536 0.950 . S
C1542 C1543 1.327 . S
C1543 H1537 0.950 . S
C1543 C1542 1.327 . S
C1543 C1547 1.429 . S
C1544 C1527 1.574 1_545 S
C1544 H1538 0.949 . S
C1544 C1548 1.368 . S
C1545 C1526 1.429 . S
C1545 C1539 1.429 . S
C1545 C1546 1.523 . S
C1546 C1527 1.368 . S
C1546 C1540 1.368 . S
C1546 C1545 1.523 . S
C1547 C1531 1.429 . S
C1547 C1543 1.429 . S
C1547 C1548 1.523 . S
C1548 C1532 1.368 . S
C1548 C1544 1.368 . S
C1548 C1547 1.523 . S
H1549 C1524 0.950 . S
H1550 C1526 0.950 . S
H1551 C1527 0.949 . S
H1552 C1529 0.950 . S
H1553 C1531 0.950 . S
C1554 C1555 1.349 . S
C1554 C1556 1.327 . S
C1554 H1579 0.950 . S
C1555 C1554 1.349 . S
C1555 C1571 1.349 . S
C1556 C1554 1.327 . S
C1556 C1575 1.429 . S
C1556 H1580 0.950 . S
C1557 C1574 1.574 1_545 S
C1557 C1576 1.368 . S
C1557 H1581 0.949 . S
H1558 C1562 0.949 . S
C1559 C1560 1.349 . S
C1559 C1561 1.327 . S
C1559 H1582 0.950 . S
C1560 C1559 1.349 . S
C1560 C1572 1.349 . S
C1561 C1559 1.327 . S
C1561 C1577 1.429 . S
C1561 H1583 0.950 . S
C1562 H1558 0.949 . S
C1562 C1570 1.574 1_565 S
C1562 C1578 1.368 . S
H1563 C1571 0.950 . S
H1564 C1569 0.950 . S
H1565 C1570 0.949 . S
H1566 C1572 0.950 . S
H1567 C1573 0.950 . S
H1568 C1574 0.949 . S
C1569 H1564 0.950 . S
C1569 C1571 1.327 . S
C1569 C1575 1.429 . S
C1570 C1562 1.574 1_545 S
C1570 H1565 0.949 . S
C1570 C1576 1.368 . S
C1571 C1555 1.349 . S
C1571 H1563 0.950 . S
C1571 C1569 1.327 . S
C1572 C1560 1.349 . S
C1572 H1566 0.950 . S
C1572 C1573 1.327 . S
C1573 H1567 0.950 . S
C1573 C1572 1.327 . S
C1573 C1577 1.429 . S
C1574 C1557 1.574 1_565 S
C1574 H1568 0.949 . S
C1574 C1578 1.368 . S
C1575 C1556 1.429 . S
C1575 C1569 1.429 . S
C1575 C1576 1.523 . S
C1576 C1557 1.368 . S
C1576 C1570 1.368 . S
C1576 C1575 1.523 . S
C1577 C1561 1.429 . S
C1577 C1573 1.429 . S
C1577 C1578 1.523 . S
C1578 C1562 1.368 . S
C1578 C1574 1.368 . S
C1578 C1577 1.523 . S
H1579 C1554 0.950 . S
H1580 C1556 0.950 . S
H1581 C1557 0.949 . S
H1582 C1559 0.950 . S
H1583 C1561 0.950 . S
C1584 C1585 1.349 . S
C1584 C1586 1.327 . S
C1584 H1609 0.950 . S
C1585 C1584 1.349 . S
C1585 C1601 1.349 . S
C1586 C1584 1.327 . S
C1586 C1605 1.429 . S
C1586 H1610 0.950 . S
C1587 C1604 1.574 . S
C1587 C1606 1.368 . S
C1587 H1611 0.949 . S
H1588 C1592 0.949 . S
C1589 C1590 1.349 . S
C1589 C1591 1.327 . S
C1589 H1612 0.950 . S
C1590 C1589 1.349 . S
C1590 C1602 1.349 . S
C1591 C1589 1.327 . S
C1591 C1607 1.429 . S
C1591 H1613 0.950 . S
C1592 H1588 0.949 . S
C1592 C1600 1.574 . S
C1592 C1608 1.368 . S
H1593 C1601 0.950 . S
H1594 C1599 0.950 . S
H1595 C1600 0.949 . S
H1596 C1602 0.950 . S
H1597 C1603 0.950 . S
H1598 C1604 0.949 . S
C1599 H1594 0.950 . S
C1599 C1601 1.327 . S
C1599 C1605 1.429 . S
C1600 C1592 1.574 . S
C1600 H1595 0.949 . S
C1600 C1606 1.368 . S
C1601 C1585 1.349 . S
C1601 H1593 0.950 . S
C1601 C1599 1.327 . S
C1602 C1590 1.349 . S
C1602 H1596 0.950 . S
C1602 C1603 1.327 . S
C1603 H1597 0.950 . S
C1603 C1602 1.327 . S
C1603 C1607 1.429 . S
C1604 C1587 1.574 . S
C1604 H1598 0.949 . S
C1604 C1608 1.368 . S
C1605 C1586 1.429 . S
C1605 C1599 1.429 . S
C1605 C1606 1.523 . S
C1606 C1587 1.368 . S
C1606 C1600 1.368 . S
C1606 C1605 1.523 . S
C1607 C1591 1.429 . S
C1607 C1603 1.429 . S
C1607 C1608 1.523 . S
C1608 C1592 1.368 . S
C1608 C1604 1.368 . S
C1608 C1607 1.523 . S
H1609 C1584 0.950 . S
H1610 C1586 0.950 . S
H1611 C1587 0.949 . S
H1612 C1589 0.950 . S
H1613 C1591 0.950 . S
C1614 C1615 1.349 . S
C1614 C1616 1.327 . S
C1614 H1639 0.950 . S
C1615 C1614 1.349 . S
C1615 C1631 1.349 . S
C1616 C1614 1.327 . S
C1616 C1635 1.429 . S
C1616 H1640 0.950 . S
C1617 C1634 1.574 . S
C1617 C1636 1.368 . S
C1617 H1641 0.949 . S
H1618 C1622 0.949 . S
C1619 C1620 1.349 . S
C1619 C1621 1.327 . S
C1619 H1642 0.950 . S
C1620 C1619 1.349 . S
C1620 C1632 1.349 . S
C1621 C1619 1.327 . S
C1621 C1637 1.429 . S
C1621 H1643 0.950 . S
C1622 H1618 0.949 . S
C1622 C1630 1.574 . S
C1622 C1638 1.368 . S
H1623 C1631 0.950 . S
H1624 C1629 0.950 . S
H1625 C1630 0.949 . S
H1626 C1632 0.950 . S
H1627 C1633 0.950 . S
H1628 C1634 0.949 . S
C1629 H1624 0.950 . S
C1629 C1631 1.327 . S
C1629 C1635 1.429 . S
C1630 C1622 1.574 . S
C1630 H1625 0.949 . S
C1630 C1636 1.368 . S
C1631 C1615 1.349 . S
C1631 H1623 0.950 . S
C1631 C1629 1.327 . S
C1632 C1620 1.349 . S
C1632 H1626 0.950 . S
C1632 C1633 1.327 . S
C1633 H1627 0.950 . S
C1633 C1632 1.327 . S
C1633 C1637 1.429 . S
C1634 C1617 1.574 . S
C1634 H1628 0.949 . S
C1634 C1638 1.368 . S
C1635 C1616 1.429 . S
C1635 C1629 1.429 . S
C1635 C1636 1.523 . S
C1636 C1617 1.368 . S
C1636 C1630 1.368 . S
C1636 C1635 1.523 . S
C1637 C1621 1.429 . S
C1637 C1633 1.429 . S
C1637 C1638 1.523 . S
C1638 C1622 1.368 . S
C1638 C1634 1.368 . S
C1638 C1637 1.523 . S
H1639 C1614 0.950 . S
H1640 C1616 0.950 . S
H1641 C1617 0.949 . S
H1642 C1619 0.950 . S
H1643 C1621 0.950 . S
C1644 C1645 1.349 . S
C1644 C1646 1.327 . S
C1644 H1669 0.950 . S
C1645 C1644 1.349 . S
C1645 C1661 1.349 . S
C1646 C1644 1.327 . S
C1646 C1665 1.429 . S
C1646 H1670 0.950 . S
C1647 C1664 1.574 . S
C1647 C1666 1.368 . S
C1647 H1671 0.949 . S
H1648 C1652 0.949 . S
C1649 C1650 1.349 . S
C1649 C1651 1.327 . S
C1649 H1672 0.950 . S
C1650 C1649 1.349 . S
C1650 C1662 1.349 . S
C1651 C1649 1.327 . S
C1651 C1667 1.429 . S
C1651 H1673 0.950 . S
C1652 H1648 0.949 . S
C1652 C1660 1.574 . S
C1652 C1668 1.368 . S
H1653 C1661 0.950 . S
H1654 C1659 0.950 . S
H1655 C1660 0.949 . S
H1656 C1662 0.950 . S
H1657 C1663 0.950 . S
H1658 C1664 0.949 . S
C1659 H1654 0.950 . S
C1659 C1661 1.327 . S
C1659 C1665 1.429 . S
C1660 C1652 1.574 . S
C1660 H1655 0.949 . S
C1660 C1666 1.368 . S
C1661 C1645 1.349 . S
C1661 H1653 0.950 . S
C1661 C1659 1.327 . S
C1662 C1650 1.349 . S
C1662 H1656 0.950 . S
C1662 C1663 1.327 . S
C1663 H1657 0.950 . S
C1663 C1662 1.327 . S
C1663 C1667 1.429 . S
C1664 C1647 1.574 . S
C1664 H1658 0.949 . S
C1664 C1668 1.368 . S
C1665 C1646 1.429 . S
C1665 C1659 1.429 . S
C1665 C1666 1.523 . S
C1666 C1647 1.368 . S
C1666 C1660 1.368 . S
C1666 C1665 1.523 . S
C1667 C1651 1.429 . S
C1667 C1663 1.429 . S
C1667 C1668 1.523 . S
C1668 C1652 1.368 . S
C1668 C1664 1.368 . S
C1668 C1667 1.523 . S
H1669 C1644 0.950 . S
H1670 C1646 0.950 . S
H1671 C1647 0.949 . S
H1672 C1649 0.950 . S
H1673 C1651 0.950 . S
C1674 C1675 1.349 . S
C1674 C1676 1.327 . S
C1674 H1699 0.950 . S
C1675 C1674 1.349 . S
C1675 C1691 1.349 . S
C1676 C1674 1.327 . S
C1676 C1695 1.429 . S
C1676 H1700 0.950 . S
C1677 C1694 1.574 . S
C1677 C1696 1.368 . S
C1677 H1701 0.949 . S
H1678 C1682 0.949 . S
C1679 C1680 1.349 . S
C1679 C1681 1.327 . S
C1679 H1702 0.950 . S
C1680 C1679 1.349 . S
C1680 C1692 1.349 . S
C1681 C1679 1.327 . S
C1681 C1697 1.429 . S
C1681 H1703 0.950 . S
C1682 H1678 0.949 . S
C1682 C1690 1.574 . S
C1682 C1698 1.368 . S
H1683 C1691 0.950 . S
H1684 C1689 0.950 . S
H1685 C1690 0.949 . S
H1686 C1692 0.950 . S
H1687 C1693 0.950 . S
H1688 C1694 0.949 . S
C1689 H1684 0.950 . S
C1689 C1691 1.327 . S
C1689 C1695 1.429 . S
C1690 C1682 1.574 . S
C1690 H1685 0.949 . S
C1690 C1696 1.368 . S
C1691 C1675 1.349 . S
C1691 H1683 0.950 . S
C1691 C1689 1.327 . S
C1692 C1680 1.349 . S
C1692 H1686 0.950 . S
C1692 C1693 1.327 . S
C1693 H1687 0.950 . S
C1693 C1692 1.327 . S
C1693 C1697 1.429 . S
C1694 C1677 1.574 . S
C1694 H1688 0.949 . S
C1694 C1698 1.368 . S
C1695 C1676 1.429 . S
C1695 C1689 1.429 . S
C1695 C1696 1.523 . S
C1696 C1677 1.368 . S
C1696 C1690 1.368 . S
C1696 C1695 1.523 . S
C1697 C1681 1.429 . S
C1697 C1693 1.429 . S
C1697 C1698 1.523 . S
C1698 C1682 1.368 . S
C1698 C1694 1.368 . S
C1698 C1697 1.523 . S
H1699 C1674 0.950 . S
H1700 C1676 0.950 . S
H1701 C1677 0.949 . S
H1702 C1679 0.950 . S
H1703 C1681 0.950 . S
C1704 C1705 1.349 . S
C1704 C1706 1.327 . S
C1704 H1729 0.950 . S
C1705 C1704 1.349 . S
C1705 C1721 1.349 . S
C1706 C1704 1.327 . S
C1706 C1725 1.429 . S
C1706 H1730 0.950 . S
C1707 C1724 1.574 . S
C1707 C1726 1.368 . S
C1707 H1731 0.949 . S
H1708 C1712 0.949 . S
C1709 C1710 1.349 . S
C1709 C1711 1.327 . S
C1709 H1732 0.950 . S
C1710 C1709 1.349 . S
C1710 C1722 1.349 . S
C1711 C1709 1.327 . S
C1711 C1727 1.429 . S
C1711 H1733 0.950 . S
C1712 H1708 0.949 . S
C1712 C1720 1.574 . S
C1712 C1728 1.368 . S
H1713 C1721 0.950 . S
H1714 C1719 0.950 . S
H1715 C1720 0.949 . S
H1716 C1722 0.950 . S
H1717 C1723 0.950 . S
H1718 C1724 0.949 . S
C1719 H1714 0.950 . S
C1719 C1721 1.327 . S
C1719 C1725 1.429 . S
C1720 C1712 1.574 . S
C1720 H1715 0.949 . S
C1720 C1726 1.368 . S
C1721 C1705 1.349 . S
C1721 H1713 0.950 . S
C1721 C1719 1.327 . S
C1722 C1710 1.349 . S
C1722 H1716 0.950 . S
C1722 C1723 1.327 . S
C1723 H1717 0.950 . S
C1723 C1722 1.327 . S
C1723 C1727 1.429 . S
C1724 C1707 1.574 . S
C1724 H1718 0.949 . S
C1724 C1728 1.368 . S
C1725 C1706 1.429 . S
C1725 C1719 1.429 . S
C1725 C1726 1.523 . S
C1726 C1707 1.368 . S
C1726 C1720 1.368 . S
C1726 C1725 1.523 . S
C1727 C1711 1.429 . S
C1727 C1723 1.429 . S
C1727 C1728 1.523 . S
C1728 C1712 1.368 . S
C1728 C1724 1.368 . S
C1728 C1727 1.523 . S
H1729 C1704 0.950 . S
H1730 C1706 0.950 . S
H1731 C1707 0.949 . S
H1732 C1709 0.950 . S
H1733 C1711 0.950 . S
C1734 C1735 1.349 . S
C1734 C1736 1.327 . S
C1734 H1759 0.950 . S
C1735 C1734 1.349 . S
C1735 C1751 1.349 . S
C1736 C1734 1.327 . S
C1736 C1755 1.429 . S
C1736 H1760 0.950 . S
C1737 C1754 1.574 . S
C1737 C1756 1.368 . S
C1737 H1761 0.949 . S
H1738 C1742 0.949 . S
C1739 C1740 1.349 . S
C1739 C1741 1.327 . S
C1739 H1762 0.950 . S
C1740 C1739 1.349 . S
C1740 C1752 1.349 . S
C1741 C1739 1.327 . S
C1741 C1757 1.429 . S
C1741 H1763 0.950 . S
C1742 H1738 0.949 . S
C1742 C1750 1.574 . S
C1742 C1758 1.368 . S
H1743 C1751 0.950 . S
H1744 C1749 0.950 . S
H1745 C1750 0.949 . S
H1746 C1752 0.950 . S
H1747 C1753 0.950 . S
H1748 C1754 0.949 . S
C1749 H1744 0.950 . S
C1749 C1751 1.327 . S
C1749 C1755 1.429 . S
C1750 C1742 1.574 . S
C1750 H1745 0.949 . S
C1750 C1756 1.368 . S
C1751 C1735 1.349 . S
C1751 H1743 0.950 . S
C1751 C1749 1.327 . S
C1752 C1740 1.349 . S
C1752 H1746 0.950 . S
C1752 C1753 1.327 . S
C1753 H1747 0.950 . S
C1753 C1752 1.327 . S
C1753 C1757 1.429 . S
C1754 C1737 1.574 . S
C1754 H1748 0.949 . S
C1754 C1758 1.368 . S
C1755 C1736 1.429 . S
C1755 C1749 1.429 . S
C1755 C1756 1.523 . S
C1756 C1737 1.368 . S
C1756 C1750 1.368 . S
C1756 C1755 1.523 . S
C1757 C1741 1.429 . S
C1757 C1753 1.429 . S
C1757 C1758 1.523 . S
C1758 C1742 1.368 . S
C1758 C1754 1.368 . S
C1758 C1757 1.523 . S
H1759 C1734 0.950 . S
H1760 C1736 0.950 . S
H1761 C1737 0.949 . S
H1762 C1739 0.950 . S
H1763 C1741 0.950 . S
C1764 C1765 1.349 . S
C1764 C1766 1.327 . S
C1764 H1789 0.950 . S
C1765 C1764 1.349 . S
C1765 C1781 1.349 . S
C1766 C1764 1.327 . S
C1766 C1785 1.429 . S
C1766 H1790 0.950 . S
C1767 C1784 1.574 . S
C1767 C1786 1.368 . S
C1767 H1791 0.949 . S
H1768 C1772 0.949 . S
C1769 C1770 1.349 . S
C1769 C1771 1.327 . S
C1769 H1792 0.950 . S
C1770 C1769 1.349 . S
C1770 C1782 1.349 . S
C1771 C1769 1.327 . S
C1771 C1787 1.429 . S
C1771 H1793 0.950 . S
C1772 H1768 0.949 . S
C1772 C1780 1.574 . S
C1772 C1788 1.368 . S
H1773 C1781 0.950 . S
H1774 C1779 0.950 . S
H1775 C1780 0.949 . S
H1776 C1782 0.950 . S
H1777 C1783 0.950 . S
H1778 C1784 0.949 . S
C1779 H1774 0.950 . S
C1779 C1781 1.327 . S
C1779 C1785 1.429 . S
C1780 C1772 1.574 . S
C1780 H1775 0.949 . S
C1780 C1786 1.368 . S
C1781 C1765 1.349 . S
C1781 H1773 0.950 . S
C1781 C1779 1.327 . S
C1782 C1770 1.349 . S
C1782 H1776 0.950 . S
C1782 C1783 1.327 . S
C1783 H1777 0.950 . S
C1783 C1782 1.327 . S
C1783 C1787 1.429 . S
C1784 C1767 1.574 . S
C1784 H1778 0.949 . S
C1784 C1788 1.368 . S
C1785 C1766 1.429 . S
C1785 C1779 1.429 . S
C1785 C1786 1.523 . S
C1786 C1767 1.368 . S
C1786 C1780 1.368 . S
C1786 C1785 1.523 . S
C1787 C1771 1.429 . S
C1787 C1783 1.429 . S
C1787 C1788 1.523 . S
C1788 C1772 1.368 . S
C1788 C1784 1.368 . S
C1788 C1787 1.523 . S
H1789 C1764 0.950 . S
H1790 C1766 0.950 . S
H1791 C1767 0.949 . S
H1792 C1769 0.950 . S
H1793 C1771 0.950 . S
C1794 C1795 1.349 . S
C1794 C1796 1.327 . S
C1794 H1819 0.950 . S
C1795 C1794 1.349 . S
C1795 C1811 1.349 . S
C1796 C1794 1.327 . S
C1796 C1815 1.429 . S
C1796 H1820 0.950 . S
C1797 C1814 1.574 . S
C1797 C1816 1.368 . S
C1797 H1821 0.949 . S
H1798 C1802 0.949 . S
C1799 C1800 1.349 . S
C1799 C1801 1.327 . S
C1799 H1822 0.950 . S
C1800 C1799 1.349 . S
C1800 C1812 1.349 . S
C1801 C1799 1.327 . S
C1801 C1817 1.429 . S
C1801 H1823 0.950 . S
C1802 H1798 0.949 . S
C1802 C1810 1.574 . S
C1802 C1818 1.368 . S
H1803 C1811 0.950 . S
H1804 C1809 0.950 . S
H1805 C1810 0.949 . S
H1806 C1812 0.950 . S
H1807 C1813 0.950 . S
H1808 C1814 0.949 . S
C1809 H1804 0.950 . S
C1809 C1811 1.327 . S
C1809 C1815 1.429 . S
C1810 C1802 1.574 . S
C1810 H1805 0.949 . S
C1810 C1816 1.368 . S
C1811 C1795 1.349 . S
C1811 H1803 0.950 . S
C1811 C1809 1.327 . S
C1812 C1800 1.349 . S
C1812 H1806 0.950 . S
C1812 C1813 1.327 . S
C1813 H1807 0.950 . S
C1813 C1812 1.327 . S
C1813 C1817 1.429 . S
C1814 C1797 1.574 . S
C1814 H1808 0.949 . S
C1814 C1818 1.368 . S
C1815 C1796 1.429 . S
C1815 C1809 1.429 . S
C1815 C1816 1.523 . S
C1816 C1797 1.368 . S
C1816 C1810 1.368 . S
C1816 C1815 1.523 . S
C1817 C1801 1.429 . S
C1817 C1813 1.429 . S
C1817 C1818 1.523 . S
C1818 C1802 1.368 . S
C1818 C1814 1.368 . S
C1818 C1817 1.523 . S
H1819 C1794 0.950 . S
H1820 C1796 0.950 . S
H1821 C1797 0.949 . S
H1822 C1799 0.950 . S
H1823 C1801 0.950 . S
C1824 C1825 1.349 . S
C1824 C1826 1.327 . S
C1824 H1849 0.950 . S
C1825 C1824 1.349 . S
C1825 C1841 1.349 . S
C1826 C1824 1.327 . S
C1826 C1845 1.429 . S
C1826 H1850 0.950 . S
C1827 C1844 1.574 . S
C1827 C1846 1.368 . S
C1827 H1851 0.949 . S
H1828 C1832 0.949 . S
C1829 C1830 1.349 . S
C1829 C1831 1.327 . S
C1829 H1852 0.950 . S
C1830 C1829 1.349 . S
C1830 C1842 1.349 . S
C1831 C1829 1.327 . S
C1831 C1847 1.429 . S
C1831 H1853 0.950 . S
C1832 H1828 0.949 . S
C1832 C1840 1.574 . S
C1832 C1848 1.368 . S
H1833 C1841 0.950 . S
H1834 C1839 0.950 . S
H1835 C1840 0.949 . S
H1836 C1842 0.950 . S
H1837 C1843 0.950 . S
H1838 C1844 0.949 . S
C1839 H1834 0.950 . S
C1839 C1841 1.327 . S
C1839 C1845 1.429 . S
C1840 C1832 1.574 . S
C1840 H1835 0.949 . S
C1840 C1846 1.368 . S
C1841 C1825 1.349 . S
C1841 H1833 0.950 . S
C1841 C1839 1.327 . S
C1842 C1830 1.349 . S
C1842 H1836 0.950 . S
C1842 C1843 1.327 . S
C1843 H1837 0.950 . S
C1843 C1842 1.327 . S
C1843 C1847 1.429 . S
C1844 C1827 1.574 . S
C1844 H1838 0.949 . S
C1844 C1848 1.368 . S
C1845 C1826 1.429 . S
C1845 C1839 1.429 . S
C1845 C1846 1.523 . S
C1846 C1827 1.368 . S
C1846 C1840 1.368 . S
C1846 C1845 1.523 . S
C1847 C1831 1.429 . S
C1847 C1843 1.429 . S
C1847 C1848 1.523 . S
C1848 C1832 1.368 . S
C1848 C1844 1.368 . S
C1848 C1847 1.523 . S
H1849 C1824 0.950 . S
H1850 C1826 0.950 . S
H1851 C1827 0.949 . S
H1852 C1829 0.950 . S
H1853 C1831 0.950 . S
C1854 C1855 1.349 . S
C1854 C1856 1.327 . S
C1854 H1879 0.950 . S
C1855 C1854 1.349 . S
C1855 C1871 1.349 . S
C1856 C1854 1.327 . S
C1856 C1875 1.429 . S
C1856 H1880 0.950 . S
C1857 C1874 1.574 . S
C1857 C1876 1.368 . S
C1857 H1881 0.949 . S
H1858 C1862 0.949 . S
C1859 C1860 1.349 . S
C1859 C1861 1.327 . S
C1859 H1882 0.950 . S
C1860 C1859 1.349 . S
C1860 C1872 1.349 . S
C1861 C1859 1.327 . S
C1861 C1877 1.429 . S
C1861 H1883 0.950 . S
C1862 H1858 0.949 . S
C1862 C1870 1.574 . S
C1862 C1878 1.368 . S
H1863 C1871 0.950 . S
H1864 C1869 0.950 . S
H1865 C1870 0.949 . S
H1866 C1872 0.950 . S
H1867 C1873 0.950 . S
H1868 C1874 0.949 . S
C1869 H1864 0.950 . S
C1869 C1871 1.327 . S
C1869 C1875 1.429 . S
C1870 C1862 1.574 . S
C1870 H1865 0.949 . S
C1870 C1876 1.368 . S
C1871 C1855 1.349 . S
C1871 H1863 0.950 . S
C1871 C1869 1.327 . S
C1872 C1860 1.349 . S
C1872 H1866 0.950 . S
C1872 C1873 1.327 . S
C1873 H1867 0.950 . S
C1873 C1872 1.327 . S
C1873 C1877 1.429 . S
C1874 C1857 1.574 . S
C1874 H1868 0.949 . S
C1874 C1878 1.368 . S
C1875 C1856 1.429 . S
C1875 C1869 1.429 . S
C1875 C1876 1.523 . S
C1876 C1857 1.368 . S
C1876 C1870 1.368 . S
C1876 C1875 1.523 . S
C1877 C1861 1.429 . S
C1877 C1873 1.429 . S
C1877 C1878 1.523 . S
C1878 C1862 1.368 . S
C1878 C1874 1.368 . S
C1878 C1877 1.523 . S
H1879 C1854 0.950 . S
H1880 C1856 0.950 . S
H1881 C1857 0.949 . S
H1882 C1859 0.950 . S
H1883 C1861 0.950 . S
C1884 C1885 1.349 . S
C1884 C1886 1.327 . S
C1884 H1909 0.950 . S
C1885 C1884 1.349 . S
C1885 C1901 1.349 . S
C1886 C1884 1.327 . S
C1886 C1905 1.429 . S
C1886 H1910 0.950 . S
C1887 C1904 1.574 . S
C1887 C1906 1.368 . S
C1887 H1911 0.949 . S
H1888 C1892 0.949 . S
C1889 C1890 1.349 . S
C1889 C1891 1.327 . S
C1889 H1912 0.950 . S
C1890 C1889 1.349 . S
C1890 C1902 1.349 . S
C1891 C1889 1.327 . S
C1891 C1907 1.429 . S
C1891 H1913 0.950 . S
C1892 H1888 0.949 . S
C1892 C1900 1.574 . S
C1892 C1908 1.368 . S
H1893 C1901 0.950 . S
H1894 C1899 0.950 . S
H1895 C1900 0.949 . S
H1896 C1902 0.950 . S
H1897 C1903 0.950 . S
H1898 C1904 0.949 . S
C1899 H1894 0.950 . S
C1899 C1901 1.327 . S
C1899 C1905 1.429 . S
C1900 C1892 1.574 . S
C1900 H1895 0.949 . S
C1900 C1906 1.368 . S
C1901 C1885 1.349 . S
C1901 H1893 0.950 . S
C1901 C1899 1.327 . S
C1902 C1890 1.349 . S
C1902 H1896 0.950 . S
C1902 C1903 1.327 . S
C1903 H1897 0.950 . S
C1903 C1902 1.327 . S
C1903 C1907 1.429 . S
C1904 C1887 1.574 . S
C1904 H1898 0.949 . S
C1904 C1908 1.368 . S
C1905 C1886 1.429 . S
C1905 C1899 1.429 . S
C1905 C1906 1.523 . S
C1906 C1887 1.368 . S
C1906 C1900 1.368 . S
C1906 C1905 1.523 . S
C1907 C1891 1.429 . S
C1907 C1903 1.429 . S
C1907 C1908 1.523 . S
C1908 C1892 1.368 . S
C1908 C1904 1.368 . S
C1908 C1907 1.523 . S
H1909 C1884 0.950 . S
H1910 C1886 0.950 . S
H1911 C1887 0.949 . S
H1912 C1889 0.950 . S
H1913 C1891 0.950 . S
C1914 C1915 1.349 . S
C1914 C1916 1.327 . S
C1914 H1939 0.950 . S
C1915 C1914 1.349 . S
C1915 C1931 1.349 . S
C1916 C1914 1.327 . S
C1916 C1935 1.429 . S
C1916 H1940 0.950 . S
C1917 C1934 1.574 . S
C1917 C1936 1.368 . S
C1917 H1941 0.949 . S
H1918 C1922 0.949 . S
C1919 C1920 1.349 . S
C1919 C1921 1.327 . S
C1919 H1942 0.950 . S
C1920 C1919 1.349 . S
C1920 C1932 1.349 . S
C1921 C1919 1.327 . S
C1921 C1937 1.429 . S
C1921 H1943 0.950 . S
C1922 H1918 0.949 . S
C1922 C1930 1.574 . S
C1922 C1938 1.368 . S
H1923 C1931 0.950 . S
H1924 C1929 0.950 . S
H1925 C1930 0.949 . S
H1926 C1932 0.950 . S
H1927 C1933 0.950 . S
H1928 C1934 0.949 . S
C1929 H1924 0.950 . S
C1929 C1931 1.327 . S
C1929 C1935 1.429 . S
C1930 C1922 1.574 . S
C1930 H1925 0.949 . S
C1930 C1936 1.368 . S
C1931 C1915 1.349 . S
C1931 H1923 0.950 . S
C1931 C1929 1.327 . S
C1932 C1920 1.349 . S
C1932 H1926 0.950 . S
C1932 C1933 1.327 . S
C1933 H1927 0.950 . S
C1933 C1932 1.327 . S
C1933 C1937 1.429 . S
C1934 C1917 1.574 . S
C1934 H1928 0.949 . S
C1934 C1938 1.368 . S
C1935 C1916 1.429 . S
C1935 C1929 1.429 . S
C1935 C1936 1.523 . S
C1936 C1917 1.368 . S
C1936 C1930 1.368 . S
C1936 C1935 1.523 . S
C1937 C1921 1.429 . S
C1937 C1933 1.429 . S
C1937 C1938 1.523 . S
C1938 C1922 1.368 . S
C1938 C1934 1.368 . S
C1938 C1937 1.523 . S
H1939 C1914 0.950 . S
H1940 C1916 0.950 . S
H1941 C1917 0.949 . S
H1942 C1919 0.950 . S
H1943 C1921 0.950 . S
C1944 C1945 1.349 . S
C1944 C1946 1.327 . S
C1944 H1969 0.950 . S
C1945 C1944 1.349 . S
C1945 C1961 1.349 . S
C1946 C1944 1.327 . S
C1946 C1965 1.429 . S
C1946 H1970 0.950 . S
C1947 C1964 1.574 . S
C1947 C1966 1.368 . S
C1947 H1971 0.949 . S
H1948 C1952 0.949 . S
C1949 C1950 1.349 . S
C1949 C1951 1.327 . S
C1949 H1972 0.950 . S
C1950 C1949 1.349 . S
C1950 C1962 1.349 . S
C1951 C1949 1.327 . S
C1951 C1967 1.429 . S
C1951 H1973 0.950 . S
C1952 H1948 0.949 . S
C1952 C1960 1.574 . S
C1952 C1968 1.368 . S
H1953 C1961 0.950 . S
H1954 C1959 0.950 . S
H1955 C1960 0.949 . S
H1956 C1962 0.950 . S
H1957 C1963 0.950 . S
H1958 C1964 0.949 . S
C1959 H1954 0.950 . S
C1959 C1961 1.327 . S
C1959 C1965 1.429 . S
C1960 C1952 1.574 . S
C1960 H1955 0.949 . S
C1960 C1966 1.368 . S
C1961 C1945 1.349 . S
C1961 H1953 0.950 . S
C1961 C1959 1.327 . S
C1962 C1950 1.349 . S
C1962 H1956 0.950 . S
C1962 C1963 1.327 . S
C1963 H1957 0.950 . S
C1963 C1962 1.327 . S
C1963 C1967 1.429 . S
C1964 C1947 1.574 . S
C1964 H1958 0.949 . S
C1964 C1968 1.368 . S
C1965 C1946 1.429 . S
C1965 C1959 1.429 . S
C1965 C1966 1.523 . S
C1966 C1947 1.368 . S
C1966 C1960 1.368 . S
C1966 C1965 1.523 . S
C1967 C1951 1.429 . S
C1967 C1963 1.429 . S
C1967 C1968 1.523 . S
C1968 C1952 1.368 . S
C1968 C1964 1.368 . S
C1968 C1967 1.523 . S
H1969 C1944 0.950 . S
H1970 C1946 0.950 . S
H1971 C1947 0.949 . S
H1972 C1949 0.950 . S
H1973 C1951 0.950 . S
C1974 C1975 1.349 . S
C1974 C1976 1.327 . S
C1974 H1999 0.950 . S
C1975 C1974 1.349 . S
C1975 C1991 1.349 . S
C1976 C1974 1.327 . S
C1976 C1995 1.429 . S
C1976 H2000 0.950 . S
C1977 C1994 1.574 . S
C1977 C1996 1.368 . S
C1977 H2001 0.949 . S
H1978 C1982 0.949 . S
C1979 C1980 1.349 . S
C1979 C1981 1.327 . S
C1979 H2002 0.950 . S
C1980 C1979 1.349 . S
C1980 C1992 1.349 . S
C1981 C1979 1.327 . S
C1981 C1997 1.429 . S
C1981 H2003 0.950 . S
C1982 H1978 0.949 . S
C1982 C1990 1.574 . S
C1982 C1998 1.368 . S
H1983 C1991 0.950 . S
H1984 C1989 0.950 . S
H1985 C1990 0.949 . S
H1986 C1992 0.950 . S
H1987 C1993 0.950 . S
H1988 C1994 0.949 . S
C1989 H1984 0.950 . S
C1989 C1991 1.327 . S
C1989 C1995 1.429 . S
C1990 C1982 1.574 . S
C1990 H1985 0.949 . S
C1990 C1996 1.368 . S
C1991 C1975 1.349 . S
C1991 H1983 0.950 . S
C1991 C1989 1.327 . S
C1992 C1980 1.349 . S
C1992 H1986 0.950 . S
C1992 C1993 1.327 . S
C1993 H1987 0.950 . S
C1993 C1992 1.327 . S
C1993 C1997 1.429 . S
C1994 C1977 1.574 . S
C1994 H1988 0.949 . S
C1994 C1998 1.368 . S
C1995 C1976 1.429 . S
C1995 C1989 1.429 . S
C1995 C1996 1.523 . S
C1996 C1977 1.368 . S
C1996 C1990 1.368 . S
C1996 C1995 1.523 . S
C1997 C1981 1.429 . S
C1997 C1993 1.429 . S
C1997 C1998 1.523 . S
C1998 C1982 1.368 . S
C1998 C1994 1.368 . S
C1998 C1997 1.523 . S
H1999 C1974 0.950 . S
H2000 C1976 0.950 . S
H2001 C1977 0.949 . S
H2002 C1979 0.950 . S
H2003 C1981 0.950 . S
C2004 C2005 1.349 . S
C2004 C2006 1.327 . S
C2004 H2029 0.950 . S
C2005 C2004 1.349 . S
C2005 C2021 1.349 . S
C2006 C2004 1.327 . S
C2006 C2025 1.429 . S
C2006 H2030 0.950 . S
C2007 C2024 1.574 . S
C2007 C2026 1.368 . S
C2007 H2031 0.949 . S
H2008 C2012 0.949 . S
C2009 C2010 1.349 . S
C2009 C2011 1.327 . S
C2009 H2032 0.950 . S
C2010 C2009 1.349 . S
C2010 C2022 1.349 . S
C2011 C2009 1.327 . S
C2011 C2027 1.429 . S
C2011 H2033 0.950 . S
C2012 H2008 0.949 . S
C2012 C2020 1.574 . S
C2012 C2028 1.368 . S
H2013 C2021 0.950 . S
H2014 C2019 0.950 . S
H2015 C2020 0.949 . S
H2016 C2022 0.950 . S
H2017 C2023 0.950 . S
H2018 C2024 0.949 . S
C2019 H2014 0.950 . S
C2019 C2021 1.327 . S
C2019 C2025 1.429 . S
C2020 C2012 1.574 . S
C2020 H2015 0.949 . S
C2020 C2026 1.368 . S
C2021 C2005 1.349 . S
C2021 H2013 0.950 . S
C2021 C2019 1.327 . S
C2022 C2010 1.349 . S
C2022 H2016 0.950 . S
C2022 C2023 1.327 . S
C2023 H2017 0.950 . S
C2023 C2022 1.327 . S
C2023 C2027 1.429 . S
C2024 C2007 1.574 . S
C2024 H2018 0.949 . S
C2024 C2028 1.368 . S
C2025 C2006 1.429 . S
C2025 C2019 1.429 . S
C2025 C2026 1.523 . S
C2026 C2007 1.368 . S
C2026 C2020 1.368 . S
C2026 C2025 1.523 . S
C2027 C2011 1.429 . S
C2027 C2023 1.429 . S
C2027 C2028 1.523 . S
C2028 C2012 1.368 . S
C2028 C2024 1.368 . S
C2028 C2027 1.523 . S
H2029 C2004 0.950 . S
H2030 C2006 0.950 . S
H2031 C2007 0.949 . S
H2032 C2009 0.950 . S
H2033 C2011 0.950 . S
C2034 C2035 1.349 . S
C2034 C2036 1.327 . S
C2034 H2059 0.950 . S
C2035 C2034 1.349 . S
C2035 C2051 1.349 . S
C2036 C2034 1.327 . S
C2036 C2055 1.429 . S
C2036 H2060 0.950 . S
C2037 C2054 1.574 . S
C2037 C2056 1.368 . S
C2037 H2061 0.949 . S
H2038 C2042 0.949 . S
C2039 C2040 1.349 . S
C2039 C2041 1.327 . S
C2039 H2062 0.950 . S
C2040 C2039 1.349 . S
C2040 C2052 1.349 . S
C2041 C2039 1.327 . S
C2041 C2057 1.429 . S
C2041 H2063 0.950 . S
C2042 H2038 0.949 . S
C2042 C2050 1.574 . S
C2042 C2058 1.368 . S
H2043 C2051 0.950 . S
H2044 C2049 0.950 . S
H2045 C2050 0.949 . S
H2046 C2052 0.950 . S
H2047 C2053 0.950 . S
H2048 C2054 0.949 . S
C2049 H2044 0.950 . S
C2049 C2051 1.327 . S
C2049 C2055 1.429 . S
C2050 C2042 1.574 . S
C2050 H2045 0.949 . S
C2050 C2056 1.368 . S
C2051 C2035 1.349 . S
C2051 H2043 0.950 . S
C2051 C2049 1.327 . S
C2052 C2040 1.349 . S
C2052 H2046 0.950 . S
C2052 C2053 1.327 . S
C2053 H2047 0.950 . S
C2053 C2052 1.327 . S
C2053 C2057 1.429 . S
C2054 C2037 1.574 . S
C2054 H2048 0.949 . S
C2054 C2058 1.368 . S
C2055 C2036 1.429 . S
C2055 C2049 1.429 . S
C2055 C2056 1.523 . S
C2056 C2037 1.368 . S
C2056 C2050 1.368 . S
C2056 C2055 1.523 . S
C2057 C2041 1.429 . S
C2057 C2053 1.429 . S
C2057 C2058 1.523 . S
C2058 C2042 1.368 . S
C2058 C2054 1.368 . S
C2058 C2057 1.523 . S
H2059 C2034 0.950 . S
H2060 C2036 0.950 . S
H2061 C2037 0.949 . S
H2062 C2039 0.950 . S
H2063 C2041 0.950 . S
C2064 C2065 1.349 . S
C2064 C2066 1.327 . S
C2064 H2089 0.950 . S
C2065 C2064 1.349 . S
C2065 C2081 1.349 . S
C2066 C2064 1.327 . S
C2066 C2085 1.429 . S
C2066 H2090 0.950 . S
C2067 C2084 1.574 . S
C2067 C2086 1.368 . S
C2067 H2091 0.949 . S
H2068 C2072 0.949 . S
C2069 C2070 1.349 . S
C2069 C2071 1.327 . S
C2069 H2092 0.950 . S
C2070 C2069 1.349 . S
C2070 C2082 1.349 . S
C2071 C2069 1.327 . S
C2071 C2087 1.429 . S
C2071 H2093 0.950 . S
C2072 H2068 0.949 . S
C2072 C2080 1.574 . S
C2072 C2088 1.368 . S
H2073 C2081 0.950 . S
H2074 C2079 0.950 . S
H2075 C2080 0.949 . S
H2076 C2082 0.950 . S
H2077 C2083 0.950 . S
H2078 C2084 0.949 . S
C2079 H2074 0.950 . S
C2079 C2081 1.327 . S
C2079 C2085 1.429 . S
C2080 C2072 1.574 . S
C2080 H2075 0.949 . S
C2080 C2086 1.368 . S
C2081 C2065 1.349 . S
C2081 H2073 0.950 . S
C2081 C2079 1.327 . S
C2082 C2070 1.349 . S
C2082 H2076 0.950 . S
C2082 C2083 1.327 . S
C2083 H2077 0.950 . S
C2083 C2082 1.327 . S
C2083 C2087 1.429 . S
C2084 C2067 1.574 . S
C2084 H2078 0.949 . S
C2084 C2088 1.368 . S
C2085 C2066 1.429 . S
C2085 C2079 1.429 . S
C2085 C2086 1.523 . S
C2086 C2067 1.368 . S
C2086 C2080 1.368 . S
C2086 C2085 1.523 . S
C2087 C2071 1.429 . S
C2087 C2083 1.429 . S
C2087 C2088 1.523 . S
C2088 C2072 1.368 . S
C2088 C2084 1.368 . S
C2088 C2087 1.523 . S
H2089 C2064 0.950 . S
H2090 C2066 0.950 . S
H2091 C2067 0.949 . S
H2092 C2069 0.950 . S
H2093 C2071 0.950 . S
C2094 C2095 1.349 . S
C2094 C2096 1.327 . S
C2094 H2119 0.950 . S
C2095 C2094 1.349 . S
C2095 C2111 1.349 . S
C2096 C2094 1.327 . S
C2096 C2115 1.429 . S
C2096 H2120 0.950 . S
C2097 C2114 1.574 . S
C2097 C2116 1.368 . S
C2097 H2121 0.949 . S
H2098 C2102 0.949 . S
C2099 C2100 1.349 . S
C2099 C2101 1.327 . S
C2099 H2122 0.950 . S
C2100 C2099 1.349 . S
C2100 C2112 1.349 . S
C2101 C2099 1.327 . S
C2101 C2117 1.429 . S
C2101 H2123 0.950 . S
C2102 H2098 0.949 . S
C2102 C2110 1.574 . S
C2102 C2118 1.368 . S
H2103 C2111 0.950 . S
H2104 C2109 0.950 . S
H2105 C2110 0.949 . S
H2106 C2112 0.950 . S
H2107 C2113 0.950 . S
H2108 C2114 0.949 . S
C2109 H2104 0.950 . S
C2109 C2111 1.327 . S
C2109 C2115 1.429 . S
C2110 C2102 1.574 . S
C2110 H2105 0.949 . S
C2110 C2116 1.368 . S
C2111 C2095 1.349 . S
C2111 H2103 0.950 . S
C2111 C2109 1.327 . S
C2112 C2100 1.349 . S
C2112 H2106 0.950 . S
C2112 C2113 1.327 . S
C2113 H2107 0.950 . S
C2113 C2112 1.327 . S
C2113 C2117 1.429 . S
C2114 C2097 1.574 . S
C2114 H2108 0.949 . S
C2114 C2118 1.368 . S
C2115 C2096 1.429 . S
C2115 C2109 1.429 . S
C2115 C2116 1.523 . S
C2116 C2097 1.368 . S
C2116 C2110 1.368 . S
C2116 C2115 1.523 . S
C2117 C2101 1.429 . S
C2117 C2113 1.429 . S
C2117 C2118 1.523 . S
C2118 C2102 1.368 . S
C2118 C2114 1.368 . S
C2118 C2117 1.523 . S
H2119 C2094 0.950 . S
H2120 C2096 0.950 . S
H2121 C2097 0.949 . S
H2122 C2099 0.950 . S
H2123 C2101 0.950 . S
C2124 C2125 1.349 . S
C2124 C2126 1.327 . S
C2124 H2149 0.950 . S
C2125 C2124 1.349 . S
C2125 C2141 1.349 . S
C2126 C2124 1.327 . S
C2126 C2145 1.429 . S
C2126 H2150 0.950 . S
C2127 C2144 1.574 . S
C2127 C2146 1.368 . S
C2127 H2151 0.949 . S
H2128 C2132 0.949 . S
C2129 C2130 1.349 . S
C2129 C2131 1.327 . S
C2129 H2152 0.950 . S
C2130 C2129 1.349 . S
C2130 C2142 1.349 . S
C2131 C2129 1.327 . S
C2131 C2147 1.429 . S
C2131 H2153 0.950 . S
C2132 H2128 0.949 . S
C2132 C2140 1.574 . S
C2132 C2148 1.368 . S
H2133 C2141 0.950 . S
H2134 C2139 0.950 . S
H2135 C2140 0.949 . S
H2136 C2142 0.950 . S
H2137 C2143 0.950 . S
H2138 C2144 0.949 . S
C2139 H2134 0.950 . S
C2139 C2141 1.327 . S
C2139 C2145 1.429 . S
C2140 C2132 1.574 . S
C2140 H2135 0.949 . S
C2140 C2146 1.368 . S
C2141 C2125 1.349 . S
C2141 H2133 0.950 . S
C2141 C2139 1.327 . S
C2142 C2130 1.349 . S
C2142 H2136 0.950 . S
C2142 C2143 1.327 . S
C2143 H2137 0.950 . S
C2143 C2142 1.327 . S
C2143 C2147 1.429 . S
C2144 C2127 1.574 . S
C2144 H2138 0.949 . S
C2144 C2148 1.368 . S
C2145 C2126 1.429 . S
C2145 C2139 1.429 . S
C2145 C2146 1.523 . S
C2146 C2127 1.368 . S
C2146 C2140 1.368 . S
C2146 C2145 1.523 . S
C2147 C2131 1.429 . S
C2147 C2143 1.429 . S
C2147 C2148 1.523 . S
C2148 C2132 1.368 . S
C2148 C2144 1.368 . S
C2148 C2147 1.523 . S
H2149 C2124 0.950 . S
H2150 C2126 0.950 . S
H2151 C2127 0.949 . S
H2152 C2129 0.950 . S
H2153 C2131 0.950 . S
C2154 C2155 1.349 . S
C2154 C2156 1.327 . S
C2154 H2179 0.950 . S
C2155 C2154 1.349 . S
C2155 C2171 1.349 . S
C2156 C2154 1.327 . S
C2156 C2175 1.429 . S
C2156 H2180 0.950 . S
C2157 C2174 1.574 . S
C2157 C2176 1.368 . S
C2157 H2181 0.949 . S
H2158 C2162 0.949 . S
C2159 C2160 1.349 . S
C2159 C2161 1.327 . S
C2159 H2182 0.950 . S
C2160 C2159 1.349 . S
C2160 C2172 1.349 . S
C2161 C2159 1.327 . S
C2161 C2177 1.429 . S
C2161 H2183 0.950 . S
C2162 H2158 0.949 . S
C2162 C2170 1.574 . S
C2162 C2178 1.368 . S
H2163 C2171 0.950 . S
H2164 C2169 0.950 . S
H2165 C2170 0.949 . S
H2166 C2172 0.950 . S
H2167 C2173 0.950 . S
H2168 C2174 0.949 . S
C2169 H2164 0.950 . S
C2169 C2171 1.327 . S
C2169 C2175 1.429 . S
C2170 C2162 1.574 . S
C2170 H2165 0.949 . S
C2170 C2176 1.368 . S
C2171 C2155 1.349 . S
C2171 H2163 0.950 . S
C2171 C2169 1.327 . S
C2172 C2160 1.349 . S
C2172 H2166 0.950 . S
C2172 C2173 1.327 . S
C2173 H2167 0.950 . S
C2173 C2172 1.327 . S
C2173 C2177 1.429 . S
C2174 C2157 1.574 . S
C2174 H2168 0.949 . S
C2174 C2178 1.368 . S
C2175 C2156 1.429 . S
C2175 C2169 1.429 . S
C2175 C2176 1.523 . S
C2176 C2157 1.368 . S
C2176 C2170 1.368 . S
C2176 C2175 1.523 . S
C2177 C2161 1.429 . S
C2177 C2173 1.429 . S
C2177 C2178 1.523 . S
C2178 C2162 1.368 . S
C2178 C2174 1.368 . S
C2178 C2177 1.523 . S
H2179 C2154 0.950 . S
H2180 C2156 0.950 . S
H2181 C2157 0.949 . S
H2182 C2159 0.950 . S
H2183 C2161 0.950 . S
C2184 C2185 1.349 . S
C2184 C2186 1.327 . S
C2184 H2209 0.950 . S
C2185 C2184 1.349 . S
C2185 C2201 1.349 . S
C2186 C2184 1.327 . S
C2186 C2205 1.429 . S
C2186 H2210 0.950 . S
C2187 C2204 1.574 . S
C2187 C2206 1.368 . S
C2187 H2211 0.949 . S
H2188 C2192 0.949 . S
C2189 C2190 1.349 . S
C2189 C2191 1.327 . S
C2189 H2212 0.950 . S
C2190 C2189 1.349 . S
C2190 C2202 1.349 . S
C2191 C2189 1.327 . S
C2191 C2207 1.429 . S
C2191 H2213 0.950 . S
C2192 H2188 0.949 . S
C2192 C2200 1.574 . S
C2192 C2208 1.368 . S
H2193 C2201 0.950 . S
H2194 C2199 0.950 . S
H2195 C2200 0.949 . S
H2196 C2202 0.950 . S
H2197 C2203 0.950 . S
H2198 C2204 0.949 . S
C2199 H2194 0.950 . S
C2199 C2201 1.327 . S
C2199 C2205 1.429 . S
C2200 C2192 1.574 . S
C2200 H2195 0.949 . S
C2200 C2206 1.368 . S
C2201 C2185 1.349 . S
C2201 H2193 0.950 . S
C2201 C2199 1.327 . S
C2202 C2190 1.349 . S
C2202 H2196 0.950 . S
C2202 C2203 1.327 . S
C2203 H2197 0.950 . S
C2203 C2202 1.327 . S
C2203 C2207 1.429 . S
C2204 C2187 1.574 . S
C2204 H2198 0.949 . S
C2204 C2208 1.368 . S
C2205 C2186 1.429 . S
C2205 C2199 1.429 . S
C2205 C2206 1.523 . S
C2206 C2187 1.368 . S
C2206 C2200 1.368 . S
C2206 C2205 1.523 . S
C2207 C2191 1.429 . S
C2207 C2203 1.429 . S
C2207 C2208 1.523 . S
C2208 C2192 1.368 . S
C2208 C2204 1.368 . S
C2208 C2207 1.523 . S
H2209 C2184 0.950 . S
H2210 C2186 0.950 . S
H2211 C2187 0.949 . S
H2212 C2189 0.950 . S
H2213 C2191 0.950 . S
C2214 C2215 1.349 . S
C2214 C2216 1.327 . S
C2214 H2239 0.950 . S
C2215 C2214 1.349 . S
C2215 C2231 1.349 . S
C2216 C2214 1.327 . S
C2216 C2235 1.429 . S
C2216 H2240 0.950 . S
C2217 C2234 1.574 . S
C2217 C2236 1.368 . S
C2217 H2241 0.949 . S
H2218 C2222 0.949 . S
C2219 C2220 1.349 . S
C2219 C2221 1.327 . S
C2219 H2242 0.950 . S
C2220 C2219 1.349 . S
C2220 C2232 1.349 . S
C2221 C2219 1.327 . S
C2221 C2237 1.429 . S
C2221 H2243 0.950 . S
C2222 H2218 0.949 . S
C2222 C2230 1.574 . S
C2222 C2238 1.368 . S
H2223 C2231 0.950 . S
H2224 C2229 0.950 . S
H2225 C2230 0.949 . S
H2226 C2232 0.950 . S
H2227 C2233 0.950 . S
H2228 C2234 0.949 . S
C2229 H2224 0.950 . S
C2229 C2231 1.327 . S
C2229 C2235 1.429 . S
C2230 C2222 1.574 . S
C2230 H2225 0.949 . S
C2230 C2236 1.368 . S
C2231 C2215 1.349 . S
C2231 H2223 0.950 . S
C2231 C2229 1.327 . S
C2232 C2220 1.349 . S
C2232 H2226 0.950 . S
C2232 C2233 1.327 . S
C2233 H2227 0.950 . S
C2233 C2232 1.327 . S
C2233 C2237 1.429 . S
C2234 C2217 1.574 . S
C2234 H2228 0.949 . S
C2234 C2238 1.368 . S
C2235 C2216 1.429 . S
C2235 C2229 1.429 . S
C2235 C2236 1.523 . S
C2236 C2217 1.368 . S
C2236 C2230 1.368 . S
C2236 C2235 1.523 . S
C2237 C2221 1.429 . S
C2237 C2233 1.429 . S
C2237 C2238 1.523 . S
C2238 C2222 1.368 . S
C2238 C2234 1.368 . S
C2238 C2237 1.523 . S
H2239 C2214 0.950 . S
H2240 C2216 0.950 . S
H2241 C2217 0.949 . S
H2242 C2219 0.950 . S
H2243 C2221 0.950 . S
C2244 C2245 1.349 . S
C2244 C2246 1.327 . S
C2244 H2269 0.950 . S
C2245 C2244 1.349 . S
C2245 C2261 1.349 . S
C2246 C2244 1.327 . S
C2246 C2265 1.429 . S
C2246 H2270 0.950 . S
C2247 C2264 1.574 . S
C2247 C2266 1.368 . S
C2247 H2271 0.949 . S
H2248 C2252 0.949 . S
C2249 C2250 1.349 . S
C2249 C2251 1.327 . S
C2249 H2272 0.950 . S
C2250 C2249 1.349 . S
C2250 C2262 1.349 . S
C2251 C2249 1.327 . S
C2251 C2267 1.429 . S
C2251 H2273 0.950 . S
C2252 H2248 0.949 . S
C2252 C2260 1.574 . S
C2252 C2268 1.368 . S
H2253 C2261 0.950 . S
H2254 C2259 0.950 . S
H2255 C2260 0.949 . S
H2256 C2262 0.950 . S
H2257 C2263 0.950 . S
H2258 C2264 0.949 . S
C2259 H2254 0.950 . S
C2259 C2261 1.327 . S
C2259 C2265 1.429 . S
C2260 C2252 1.574 . S
C2260 H2255 0.949 . S
C2260 C2266 1.368 . S
C2261 C2245 1.349 . S
C2261 H2253 0.950 . S
C2261 C2259 1.327 . S
C2262 C2250 1.349 . S
C2262 H2256 0.950 . S
C2262 C2263 1.327 . S
C2263 H2257 0.950 . S
C2263 C2262 1.327 . S
C2263 C2267 1.429 . S
C2264 C2247 1.574 . S
C2264 H2258 0.949 . S
C2264 C2268 1.368 . S
C2265 C2246 1.429 . S
C2265 C2259 1.429 . S
C2265 C2266 1.523 . S
C2266 C2247 1.368 . S
C2266 C2260 1.368 . S
C2266 C2265 1.523 . S
C2267 C2251 1.429 . S
C2267 C2263 1.429 . S
C2267 C2268 1.523 . S
C2268 C2252 1.368 . S
C2268 C2264 1.368 . S
C2268 C2267 1.523 . S
H2269 C2244 0.950 . S
H2270 C2246 0.950 . S
H2271 C2247 0.949 . S
H2272 C2249 0.950 . S
H2273 C2251 0.950 . S
C2274 C2275 1.349 . S
C2274 C2276 1.327 . S
C2274 H2299 0.950 . S
C2275 C2274 1.349 . S
C2275 C2291 1.349 . S
C2276 C2274 1.327 . S
C2276 C2295 1.429 . S
C2276 H2300 0.950 . S
C2277 C2294 1.574 . S
C2277 C2296 1.368 . S
C2277 H2301 0.949 . S
H2278 C2282 0.949 . S
C2279 C2280 1.349 . S
C2279 C2281 1.327 . S
C2279 H2302 0.950 . S
C2280 C2279 1.349 . S
C2280 C2292 1.349 . S
C2281 C2279 1.327 . S
C2281 C2297 1.429 . S
C2281 H2303 0.950 . S
C2282 H2278 0.949 . S
C2282 C2290 1.574 . S
C2282 C2298 1.368 . S
H2283 C2291 0.950 . S
H2284 C2289 0.950 . S
H2285 C2290 0.949 . S
H2286 C2292 0.950 . S
H2287 C2293 0.950 . S
H2288 C2294 0.949 . S
C2289 H2284 0.950 . S
C2289 C2291 1.327 . S
C2289 C2295 1.429 . S
C2290 C2282 1.574 . S
C2290 H2285 0.949 . S
C2290 C2296 1.368 . S
C2291 C2275 1.349 . S
C2291 H2283 0.950 . S
C2291 C2289 1.327 . S
C2292 C2280 1.349 . S
C2292 H2286 0.950 . S
C2292 C2293 1.327 . S
C2293 H2287 0.950 . S
C2293 C2292 1.327 . S
C2293 C2297 1.429 . S
C2294 C2277 1.574 . S
C2294 H2288 0.949 . S
C2294 C2298 1.368 . S
C2295 C2276 1.429 . S
C2295 C2289 1.429 . S
C2295 C2296 1.523 . S
C2296 C2277 1.368 . S
C2296 C2290 1.368 . S
C2296 C2295 1.523 . S
C2297 C2281 1.429 . S
C2297 C2293 1.429 . S
C2297 C2298 1.523 . S
C2298 C2282 1.368 . S
C2298 C2294 1.368 . S
C2298 C2297 1.523 . S
H2299 C2274 0.950 . S
H2300 C2276 0.950 . S
H2301 C2277 0.949 . S
H2302 C2279 0.950 . S
H2303 C2281 0.950 . S
C865 C544 1.165 . S
C870 C4 1.157 . S
C895 C446 1.339 . S
C900 C50 1.333 . S
C925 C472 1.263 . S
C930 C86 1.240 . S
C955 C518 1.194 . S
C960 C112 1.217 . S
C985 C508 1.181 . S
C990 C40 1.172 . S
C1015 C76 1.080 . S
C1020 C554 1.059 . S
C1045 C436 1.274 . S
C1050 C122 1.247 . S
C1075 C482 1.177 . S
C1080 C14 1.175 . S
C1105 C662 1.396 . S
C1110 C158 1.396 . S
C1135 C184 1.042 . S
C1140 C688 1.044 . S
C1165 C230 1.385 . S
C1170 C590 1.388 . S
C1195 C616 1.061 . S
C1200 C256 1.061 . S
C1225 C796 1.008 . S
C1230 C292 1.010 . S
C1255 C338 1.346 . S
C1260 C832 1.377 . S
C1285 C364 1.033 . S
C1290 C724 1.030 . S
C1315 C410 1.401 . S
C1320 C760 1.439 . S
C1345 C626 1.192 . S
C1350 C400 1.216 . S
C1375 C842 1.302 . S
C1380 C194 1.295 . S
C1405 C220 1.291 . S
C1410 C734 1.265 . S
C1435 C770 1.209 . S
C1440 C266 1.195 . S
C1465 C806 1.133 . S
C1470 C148 1.155 . S
C1495 C328 1.120 . S
C1500 C698 1.104 . S
C1525 C580 1.276 . S
C1530 C374 1.252 . S
C1555 C652 1.150 . S
C1560 C302 1.129 . S
C1585 C3 0.648 . S
C1590 C147 0.652 . S
C1615 C182 0.706 . S
C1620 C38 0.706 . S
C1645 C74 0.730 . S
C1650 C219 0.729 . S
C1675 C111 0.611 . S
C1680 C254 0.625 . S
C1705 C290 0.668 . S
C1710 C39 0.664 . S
C1735 C327 0.491 . S
C1740 C75 0.484 . S
C1765 C362 0.732 . S
C1770 C110 0.732 . S
C1795 C2 0.608 . S
C1800 C399 0.584 . S
C1825 C398 0.822 . S
C1830 C146 0.820 . S
C1855 C183 0.475 . S
C1860 C291 0.488 . S
C1885 C218 0.834 . S
C1890 C326 0.835 . S
C1915 C363 0.519 . S
C1920 C255 0.521 . S
C1945 C579 0.710 . S
C1950 C435 0.707 . S
C1975 C614 0.721 . S
C1980 C470 0.722 . S
C2005 C507 0.606 . S
C2010 C651 0.624 . S
C2035 C542 0.618 . S
C2040 C686 0.616 . S
C2065 C471 0.677 . S
C2070 C722 0.682 . S
C2095 C506 0.672 . S
C2100 C758 0.676 . S
C2125 C794 0.602 . S
C2130 C543 0.588 . S
C2155 C434 0.764 . S
C2160 C830 0.763 . S
C2185 C578 0.745 . S
C2190 C831 0.744 . S
C2215 C723 0.469 . S
C2220 C615 0.456 . S
C2245 C650 0.776 . S
C2250 C759 0.780 . S
C2275 C795 0.482 . S
C2280 C687 0.456 . S
