# Generated by pormake.
# Topology uml, (4)-cn, num edge types: 1
# Building blocks:
#     Node 0, Type 0, BuildingBlock: MUDLON_clean_sbu_0, # of connection points: 4
#     Node 1, Type 0, BuildingBlock: MUDLON_clean_sbu_0, # of connection points: 4
#     Node 2, Type 0, BuildingBlock: MUDLON_clean_sbu_0, # of connection points: 4
#     Node 3, Type 0, BuildingBlock: MUDLON_clean_sbu_0, # of connection points: 4
#     Node 4, Type 0, BuildingBlock: MUDLON_clean_sbu_0, # of connection points: 4
#     Node 5, Type 0, BuildingBlock: MUDLON_clean_sbu_0, # of connection points: 4
#     Node 6, Type 0, BuildingBlock: MUDLON_clean_sbu_0, # of connection points: 4
#     Node 7, Type 0, BuildingBlock: MUDLON_clean_sbu_0, # of connection points: 4
#     Node 8, Type 0, BuildingBlock: MUDLON_clean_sbu_0, # of connection points: 4
#     Node 9, Type 0, BuildingBlock: MUDLON_clean_sbu_0, # of connection points: 4
#     Node 10, Type 0, BuildingBlock: MUDLON_clean_sbu_0, # of connection points: 4
#     Node 11, Type 0, BuildingBlock: MUDLON_clean_sbu_0, # of connection points: 4
#     Node 12, Type 0, BuildingBlock: MUDLON_clean_sbu_0, # of connection points: 4
#     Node 13, Type 0, BuildingBlock: MUDLON_clean_sbu_0, # of connection points: 4
#     Node 14, Type 0, BuildingBlock: MUDLON_clean_sbu_0, # of connection points: 4
#     Node 15, Type 0, BuildingBlock: MUDLON_clean_sbu_0, # of connection points: 4
#     Node 16, Type 0, BuildingBlock: MUDLON_clean_sbu_0, # of connection points: 4
#     Node 17, Type 0, BuildingBlock: MUDLON_clean_sbu_0, # of connection points: 4
#     Node 18, Type 0, BuildingBlock: MUDLON_clean_sbu_0, # of connection points: 4
#     Node 19, Type 0, BuildingBlock: MUDLON_clean_sbu_0, # of connection points: 4
#     Node 20, Type 0, BuildingBlock: MUDLON_clean_sbu_0, # of connection points: 4
#     Node 21, Type 0, BuildingBlock: MUDLON_clean_sbu_0, # of connection points: 4
#     Node 22, Type 0, BuildingBlock: MUDLON_clean_sbu_0, # of connection points: 4
#     Node 23, Type 0, BuildingBlock: MUDLON_clean_sbu_0, # of connection points: 4
#     Node 24, Type 0, BuildingBlock: MUDLON_clean_sbu_0, # of connection points: 4
#     Node 25, Type 0, BuildingBlock: MUDLON_clean_sbu_0, # of connection points: 4
#     Node 26, Type 0, BuildingBlock: MUDLON_clean_sbu_0, # of connection points: 4
#     Node 27, Type 0, BuildingBlock: MUDLON_clean_sbu_0, # of connection points: 4
#     Node 28, Type 0, BuildingBlock: MUDLON_clean_sbu_0, # of connection points: 4
#     Node 29, Type 0, BuildingBlock: MUDLON_clean_sbu_0, # of connection points: 4
#     Node 30, Type 0, BuildingBlock: MUDLON_clean_sbu_0, # of connection points: 4
#     Node 31, Type 0, BuildingBlock: MUDLON_clean_sbu_0, # of connection points: 4
#     Node 32, Type 0, BuildingBlock: MUDLON_clean_sbu_0, # of connection points: 4
#     Node 33, Type 0, BuildingBlock: MUDLON_clean_sbu_0, # of connection points: 4
#     Node 34, Type 0, BuildingBlock: MUDLON_clean_sbu_0, # of connection points: 4
#     Node 35, Type 0, BuildingBlock: MUDLON_clean_sbu_0, # of connection points: 4
#     Edge 36, Type (0, 0), BuildingBlock: KIFKEQ_clean_linker_1, # of connection points: 2
#     Edge 37, Type (0, 0), BuildingBlock: KIFKEQ_clean_linker_1, # of connection points: 2
#     Edge 38, Type (0, 0), BuildingBlock: KIFKEQ_clean_linker_1, # of connection points: 2
#     Edge 39, Type (0, 0), BuildingBlock: KIFKEQ_clean_linker_1, # of connection points: 2
#     Edge 40, Type (0, 0), BuildingBlock: KIFKEQ_clean_linker_1, # of connection points: 2
#     Edge 41, Type (0, 0), BuildingBlock: KIFKEQ_clean_linker_1, # of connection points: 2
#     Edge 42, Type (0, 0), BuildingBlock: KIFKEQ_clean_linker_1, # of connection points: 2
#     Edge 43, Type (0, 0), BuildingBlock: KIFKEQ_clean_linker_1, # of connection points: 2
#     Edge 44, Type (0, 0), BuildingBlock: KIFKEQ_clean_linker_1, # of connection points: 2
#     Edge 45, Type (0, 0), BuildingBlock: KIFKEQ_clean_linker_1, # of connection points: 2
#     Edge 46, Type (0, 0), BuildingBlock: KIFKEQ_clean_linker_1, # of connection points: 2
#     Edge 47, Type (0, 0), BuildingBlock: KIFKEQ_clean_linker_1, # of connection points: 2
#     Edge 48, Type (0, 0), BuildingBlock: KIFKEQ_clean_linker_1, # of connection points: 2
#     Edge 49, Type (0, 0), BuildingBlock: KIFKEQ_clean_linker_1, # of connection points: 2
#     Edge 50, Type (0, 0), BuildingBlock: KIFKEQ_clean_linker_1, # of connection points: 2
#     Edge 51, Type (0, 0), BuildingBlock: KIFKEQ_clean_linker_1, # of connection points: 2
#     Edge 52, Type (0, 0), BuildingBlock: KIFKEQ_clean_linker_1, # of connection points: 2
#     Edge 53, Type (0, 0), BuildingBlock: KIFKEQ_clean_linker_1, # of connection points: 2
#     Edge 54, Type (0, 0), BuildingBlock: KIFKEQ_clean_linker_1, # of connection points: 2
#     Edge 55, Type (0, 0), BuildingBlock: KIFKEQ_clean_linker_1, # of connection points: 2
#     Edge 56, Type (0, 0), BuildingBlock: KIFKEQ_clean_linker_1, # of connection points: 2
#     Edge 57, Type (0, 0), BuildingBlock: KIFKEQ_clean_linker_1, # of connection points: 2
#     Edge 58, Type (0, 0), BuildingBlock: KIFKEQ_clean_linker_1, # of connection points: 2
#     Edge 59, Type (0, 0), BuildingBlock: KIFKEQ_clean_linker_1, # of connection points: 2
#     Edge 60, Type (0, 0), BuildingBlock: KIFKEQ_clean_linker_1, # of connection points: 2
#     Edge 61, Type (0, 0), BuildingBlock: KIFKEQ_clean_linker_1, # of connection points: 2
#     Edge 62, Type (0, 0), BuildingBlock: KIFKEQ_clean_linker_1, # of connection points: 2
#     Edge 63, Type (0, 0), BuildingBlock: KIFKEQ_clean_linker_1, # of connection points: 2
#     Edge 64, Type (0, 0), BuildingBlock: KIFKEQ_clean_linker_1, # of connection points: 2
#     Edge 65, Type (0, 0), BuildingBlock: KIFKEQ_clean_linker_1, # of connection points: 2
#     Edge 66, Type (0, 0), BuildingBlock: KIFKEQ_clean_linker_1, # of connection points: 2
#     Edge 67, Type (0, 0), BuildingBlock: KIFKEQ_clean_linker_1, # of connection points: 2
#     Edge 68, Type (0, 0), BuildingBlock: KIFKEQ_clean_linker_1, # of connection points: 2
#     Edge 69, Type (0, 0), BuildingBlock: KIFKEQ_clean_linker_1, # of connection points: 2
#     Edge 70, Type (0, 0), BuildingBlock: KIFKEQ_clean_linker_1, # of connection points: 2
#     Edge 71, Type (0, 0), BuildingBlock: KIFKEQ_clean_linker_1, # of connection points: 2
#     Edge 72, Type (0, 0), BuildingBlock: KIFKEQ_clean_linker_1, # of connection points: 2
#     Edge 73, Type (0, 0), BuildingBlock: KIFKEQ_clean_linker_1, # of connection points: 2
#     Edge 74, Type (0, 0), BuildingBlock: KIFKEQ_clean_linker_1, # of connection points: 2
#     Edge 75, Type (0, 0), BuildingBlock: KIFKEQ_clean_linker_1, # of connection points: 2
#     Edge 76, Type (0, 0), BuildingBlock: KIFKEQ_clean_linker_1, # of connection points: 2
#     Edge 77, Type (0, 0), BuildingBlock: KIFKEQ_clean_linker_1, # of connection points: 2
#     Edge 78, Type (0, 0), BuildingBlock: KIFKEQ_clean_linker_1, # of connection points: 2
#     Edge 79, Type (0, 0), BuildingBlock: KIFKEQ_clean_linker_1, # of connection points: 2
#     Edge 80, Type (0, 0), BuildingBlock: KIFKEQ_clean_linker_1, # of connection points: 2
#     Edge 81, Type (0, 0), BuildingBlock: KIFKEQ_clean_linker_1, # of connection points: 2
#     Edge 82, Type (0, 0), BuildingBlock: KIFKEQ_clean_linker_1, # of connection points: 2
#     Edge 83, Type (0, 0), BuildingBlock: KIFKEQ_clean_linker_1, # of connection points: 2
#     Edge 84, Type (0, 0), BuildingBlock: KIFKEQ_clean_linker_1, # of connection points: 2
#     Edge 85, Type (0, 0), BuildingBlock: KIFKEQ_clean_linker_1, # of connection points: 2
#     Edge 86, Type (0, 0), BuildingBlock: KIFKEQ_clean_linker_1, # of connection points: 2
#     Edge 87, Type (0, 0), BuildingBlock: KIFKEQ_clean_linker_1, # of connection points: 2
#     Edge 88, Type (0, 0), BuildingBlock: KIFKEQ_clean_linker_1, # of connection points: 2
#     Edge 89, Type (0, 0), BuildingBlock: KIFKEQ_clean_linker_1, # of connection points: 2
#     Edge 90, Type (0, 0), BuildingBlock: KIFKEQ_clean_linker_1, # of connection points: 2
#     Edge 91, Type (0, 0), BuildingBlock: KIFKEQ_clean_linker_1, # of connection points: 2
#     Edge 92, Type (0, 0), BuildingBlock: KIFKEQ_clean_linker_1, # of connection points: 2
#     Edge 93, Type (0, 0), BuildingBlock: KIFKEQ_clean_linker_1, # of connection points: 2
#     Edge 94, Type (0, 0), BuildingBlock: KIFKEQ_clean_linker_1, # of connection points: 2
#     Edge 95, Type (0, 0), BuildingBlock: KIFKEQ_clean_linker_1, # of connection points: 2
#     Edge 96, Type (0, 0), BuildingBlock: KIFKEQ_clean_linker_1, # of connection points: 2
#     Edge 97, Type (0, 0), BuildingBlock: KIFKEQ_clean_linker_1, # of connection points: 2
#     Edge 98, Type (0, 0), BuildingBlock: KIFKEQ_clean_linker_1, # of connection points: 2
#     Edge 99, Type (0, 0), BuildingBlock: KIFKEQ_clean_linker_1, # of connection points: 2
#     Edge 100, Type (0, 0), BuildingBlock: KIFKEQ_clean_linker_1, # of connection points: 2
#     Edge 101, Type (0, 0), BuildingBlock: KIFKEQ_clean_linker_1, # of connection points: 2
#     Edge 102, Type (0, 0), BuildingBlock: KIFKEQ_clean_linker_1, # of connection points: 2
#     Edge 103, Type (0, 0), BuildingBlock: KIFKEQ_clean_linker_1, # of connection points: 2
#     Edge 104, Type (0, 0), BuildingBlock: KIFKEQ_clean_linker_1, # of connection points: 2
#     Edge 105, Type (0, 0), BuildingBlock: KIFKEQ_clean_linker_1, # of connection points: 2
#     Edge 106, Type (0, 0), BuildingBlock: KIFKEQ_clean_linker_1, # of connection points: 2
#     Edge 107, Type (0, 0), BuildingBlock: KIFKEQ_clean_linker_1, # of connection points: 2
# Relax obj value: 0.068
# Max RMSD: 0.179
# Mean RMSD: 0.174
data_MOF--net-uml--node1-MUDLON_clean_sbu_0--edge1-KIFKEQ_clean_linker_1
_symmetry_space_group_name_H-M    P1
_symmetry_Int_Tables_number       1
_symmetry_cell_setting            triclinic
loop_
_symmetry_equiv_pos_as_xyz
'x, y, z'
_cell_length_a     103.00566
_cell_length_b     102.72401
_cell_length_c     30.069161
_cell_angle_alpha  89.916516
_cell_angle_beta   89.886946
_cell_angle_gamma 120.03349
loop_
_atom_site_label
_atom_site_type_symbol
_atom_site_fract_x
_atom_site_fract_y
_atom_site_fract_z
_atom_type_partial_charge
Mg0 Mg 0.37367 0.11696 0.18115 0.0
C1 C 0.35956 0.13601 0.16708 0.0
O2 O 0.34996 0.12332 0.14783 0.0
C3 C 0.39974 0.11135 0.18257 0.0
O4 O 0.39116 0.10182 0.21339 0.0
C5 C 0.35465 0.10491 0.26517 0.0
O6 O 0.34691 0.11003 0.24426 0.0
O7 O 0.3659 0.1055 0.24561 0.0
O8 O 0.37145 0.13714 0.18384 0.0
O9 O 0.3617 0.10468 0.12155 0.0
C10 C 0.36875 0.1116 0.08642 0.0
O11 O 0.38133 0.12444 0.09085 0.0
O12 O 0.39604 0.12049 0.1664 0.0
Mg13 Mg 0.91193 0.26286 0.18001 0.0
C14 C 0.89229 0.23046 0.20502 0.0
O15 O 0.90348 0.23488 0.23303 0.0
C16 C 0.91475 0.29365 0.17835 0.0
O17 O 0.92246 0.29485 0.2144 0.0
C18 C 0.93132 0.26715 0.26612 0.0
O19 O 0.94091 0.26603 0.23979 0.0
O20 O 0.91972 0.26664 0.24946 0.0
O21 O 0.89229 0.24007 0.17814 0.0
O22 O 0.92644 0.26266 0.12682 0.0
C23 C 0.93244 0.27364 0.09951 0.0
O24 O 0.93243 0.28609 0.1093 0.0
O25 O 0.90771 0.28091 0.15922 0.0
Mg26 Mg 0.76439 0.65606 0.17761 0.0
C27 C 0.79345 0.65767 0.14694 0.0
O28 O 0.7885 0.65908 0.10807 0.0
C29 C 0.73149 0.63688 0.17793 0.0
O30 O 0.73383 0.65021 0.18958 0.0
C31 C 0.75797 0.66028 0.2726 0.0
O32 O 0.75035 0.64555 0.26973 0.0
O33 O 0.76467 0.66795 0.23812 0.0
O34 O 0.78513 0.65498 0.18108 0.0
O35 O 0.76564 0.66797 0.11626 0.0
C36 C 0.76006 0.65958 0.08233 0.0
O37 O 0.7538 0.64495 0.08744 0.0
O38 O 0.74278 0.63512 0.17245 0.0
Mg39 Mg 0.12021 0.36653 0.36272 0.0
C40 C 0.14879 0.36629 0.33852 0.0
O41 O 0.14578 0.36982 0.29936 0.0
C42 C 0.11502 0.39279 0.35312 0.0
O43 O 0.10846 0.3852 0.31696 0.0
C44 C 0.10099 0.35355 0.27444 0.0
O45 O 0.08885 0.34947 0.29831 0.0
O46 O 0.11376 0.35999 0.29326 0.0
O47 O 0.14063 0.36531 0.37164 0.0
O48 O 0.1056 0.35187 0.4158 0.0
C49 C 0.0999 0.35704 0.44336 0.0
O50 O 0.10043 0.36979 0.43413 0.0
O51 O 0.12247 0.38851 0.37661 0.0
Mg52 Mg 0.66057 0.7569 0.36211 0.0
C53 C 0.66507 0.78728 0.33059 0.0
O54 O 0.66351 0.78103 0.29141 0.0
C55 C 0.63335 0.7258 0.36166 0.0
O56 O 0.6413 0.72462 0.32934 0.0
C57 C 0.67907 0.75968 0.27648 0.0
O58 O 0.69076 0.76795 0.30165 0.0
O59 O 0.66601 0.75356 0.29366 0.0
O60 O 0.66348 0.77953 0.36538 0.0
O61 O 0.67456 0.75699 0.41735 0.0
C62 C 0.66889 0.74668 0.4469 0.0
O63 O 0.65583 0.73471 0.4392 0.0
O64 O 0.63799 0.73864 0.37934 0.0
Mg65 Mg 0.27036 0.91058 0.34954 0.0
C66 C 0.23722 0.89225 0.34603 0.0
O67 O 0.23981 0.90614 0.34672 0.0
C68 C 0.30191 0.91585 0.35245 0.0
O69 O 0.30311 0.92448 0.31856 0.0
C70 C 0.26926 0.92815 0.26551 0.0
O71 O 0.26152 0.93221 0.29097 0.0
O72 O 0.27451 0.92034 0.28219 0.0
O73 O 0.24837 0.89011 0.34703 0.0
O74 O 0.26946 0.92303 0.40743 0.0
C75 C 0.26444 0.91428 0.44106 0.0
O76 O 0.25991 0.89996 0.43526 0.0
O77 O 0.28901 0.90742 0.36942 0.0
Mg78 Mg 0.65854 0.9058 0.84383 0.0
C79 C 0.66403 0.90687 0.93724 0.0
O80 O 0.65189 0.89399 0.92858 0.0
C81 C 0.66054 0.9141 0.74717 0.0
O82 O 0.64624 0.90404 0.75106 0.0
C83 C 0.63518 0.91519 0.84732 0.0
O84 O 0.64547 0.92598 0.82255 0.0
O85 O 0.63693 0.90417 0.85814 0.0
O86 O 0.67066 0.91589 0.90507 0.0
O87 O 0.65902 0.88477 0.84057 0.0
C88 C 0.67223 0.88682 0.84476 0.0
O89 O 0.6834 0.90067 0.84923 0.0
O90 O 0.66874 0.91784 0.78178 0.0
Mg91 Mg 0.12177 0.76012 0.84197 0.0
C92 C 0.15065 0.78827 0.87499 0.0
O93 O 0.14653 0.78158 0.91393 0.0
C94 C 0.1233 0.73544 0.89284 0.0
O95 O 0.12632 0.74514 0.92516 0.0
C96 C 0.12121 0.76127 0.74411 0.0
O97 O 0.13481 0.76415 0.75421 0.0
O98 O 0.11199 0.75867 0.77585 0.0
O99 O 0.14311 0.78142 0.84068 0.0
O100 O 0.10925 0.76069 0.90001 0.0
C101 C 0.11135 0.77287 0.91742 0.0
O102 O 0.11956 0.78558 0.89599 0.0
O103 O 0.12235 0.73935 0.85327 0.0
Mg104 Mg 0.26874 0.37056 0.84426 0.0
C105 C 0.24002 0.3705 0.87207 0.0
O106 O 0.24631 0.37326 0.91151 0.0
C107 C 0.30136 0.39386 0.84063 0.0
O108 O 0.3011 0.38295 0.81715 0.0
C109 C 0.2719 0.36757 0.74728 0.0
O110 O 0.27284 0.38076 0.75058 0.0
O111 O 0.27056 0.36022 0.78282 0.0
O112 O 0.24729 0.36996 0.83854 0.0
O113 O 0.26701 0.35809 0.90513 0.0
C114 C 0.27376 0.36589 0.93924 0.0
O115 O 0.28182 0.38056 0.93517 0.0
O116 O 0.28895 0.39255 0.85319 0.0
Mg117 Mg 0.91344 0.65627 0.68681 0.0
C118 C 0.8848 0.65548 0.65449 0.0
O119 O 0.88901 0.65275 0.616 0.0
C120 C 0.91116 0.62947 0.63852 0.0
O121 O 0.90746 0.63563 0.60627 0.0
C122 C 0.91891 0.6584 0.78448 0.0
O123 O 0.90726 0.64483 0.78007 0.0
O124 O 0.9247 0.66628 0.74959 0.0
O125 O 0.89217 0.65619 0.68921 0.0
O126 O 0.92526 0.66881 0.62754 0.0
C127 C 0.92363 0.67934 0.61147 0.0
O128 O 0.91614 0.68431 0.63445 0.0
O129 O 0.91282 0.63487 0.67758 0.0
Mg130 Mg 0.37215 0.26444 0.68144 0.0
C131 C 0.36749 0.23499 0.7209 0.0
O132 O 0.36249 0.23945 0.75437 0.0
C133 C 0.39944 0.28839 0.63189 0.0
O134 O 0.39468 0.27743 0.60278 0.0
C135 C 0.37175 0.27312 0.77552 0.0
O136 O 0.3861 0.27911 0.76637 0.0
O137 O 0.36236 0.26655 0.74427 0.0
O138 O 0.37338 0.24374 0.68765 0.0
O139 O 0.36003 0.2621 0.61908 0.0
C140 C 0.36038 0.25305 0.59077 0.0
O141 O 0.36605 0.24466 0.60296 0.0
O142 O 0.39306 0.28567 0.66982 0.0
Mg143 Mg 0.76544 0.1191 0.67822 0.0
C144 C 0.76351 0.09656 0.60148 0.0
O145 O 0.75759 0.08523 0.62959 0.0
C146 C 0.77327 0.10502 0.75682 0.0
O147 O 0.78481 0.10799 0.73138 0.0
C148 C 0.73409 0.10627 0.6572 0.0
O149 O 0.73681 0.09511 0.66076 0.0
O150 O 0.74465 0.11948 0.66625 0.0
O151 O 0.76747 0.10975 0.61496 0.0
O152 O 0.78658 0.14058 0.68241 0.0
C153 C 0.7979 0.14008 0.6672 0.0
O154 O 0.79575 0.1274 0.65008 0.0
O155 O 0.76313 0.10744 0.74168 0.0
Mg156 Mg 0.03888 0.44779 0.52145 0.0
C157 C 0.02572 0.46704 0.5179 0.0
O158 O 1.01448 0.45315 0.51601 0.0
C159 C 0.0563 0.43386 0.5001 0.0
O160 O 0.04226 0.42315 0.50473 0.0
C161 C 0.03644 0.44222 0.61889 0.0
O162 O 0.05011 0.45369 0.61457 0.0
O163 O 0.02864 0.43659 0.58401 0.0
O164 O 0.03897 0.46912 0.52112 0.0
O165 O 0.02608 0.43658 0.46236 0.0
C166 C 0.03347 0.44304 0.42731 0.0
O167 O 0.04683 0.45498 0.43163 0.0
O168 O 0.05959 0.44729 0.50898 0.0
Mg169 Mg 0.57272 0.59654 0.52047 0.0
C170 C 0.5541 0.56413 0.53387 0.0
O171 O 0.56756 0.56768 0.54775 0.0
C172 C 0.57848 0.62868 0.52524 0.0
O173 O 0.58596 0.62881 0.56071 0.0
C174 C 0.59361 0.60513 0.60702 0.0
O175 O 0.6047 0.61615 0.58498 0.0
O176 O 0.58112 0.59689 0.58777 0.0
O177 O 0.55207 0.5746 0.51888 0.0
O178 O 0.58542 0.59513 0.46418 0.0
C179 C 0.59158 0.60601 0.4366 0.0
O180 O 0.59265 0.61892 0.44706 0.0
O181 O 0.5705 0.61626 0.50516 0.0
Mg182 Mg 0.43068 0.9886 0.51894 0.0
C183 C 0.46316 1.00165 0.52992 0.0
O184 O 0.46058 0.01253 0.54094 0.0
C185 C 0.39789 0.96647 0.51683 0.0
O186 O 0.39825 0.97802 0.53673 0.0
C187 C 0.42399 0.99131 0.61537 0.0
O188 O 0.41775 0.97662 0.61233 0.0
O189 O 0.42977 0.9993 0.58071 0.0
O190 O 0.45205 0.98893 0.51929 0.0
O191 O 0.43184 1.00079 0.45867 0.0
C192 C 0.43047 0.99305 0.42412 0.0
O193 O 0.4286 0.97951 0.42936 0.0
O194 O 0.41025 0.96699 0.50818 0.0
Mg195 Mg 0.79179 0.70599 0.67661 0.0
C196 C 0.80891 0.69081 0.66043 0.0
O197 O 0.79499 0.68101 0.64996 0.0
C198 C 0.78279 0.72933 0.68083 0.0
O199 O 0.77182 0.71857 0.65797 0.0
C200 C 0.78327 0.70485 0.58034 0.0
O201 O 0.79338 0.71916 0.58408 0.0
O202 O 0.77967 0.69649 0.61471 0.0
O203 O 0.81187 0.70383 0.67329 0.0
O204 O 0.78035 0.69367 0.73627 0.0
C205 C 0.78807 0.70014 0.77067 0.0
O206 O 0.8012 0.71234 0.76525 0.0
O207 O 0.79407 0.72795 0.69065 0.0
Mg208 Mg 0.32225 0.09254 0.68456 0.0
C209 C 0.33633 0.12478 0.71016 0.0
O210 O 0.34629 0.12115 0.72291 0.0
C211 C 0.29786 0.0602 0.68111 0.0
O212 O 0.30805 0.06012 0.65497 0.0
C213 C 0.33615 0.08671 0.59674 0.0
O214 O 0.3395 0.07795 0.61994 0.0
O215 O 0.32983 0.09315 0.61587 0.0
O216 O 0.3241 0.11464 0.69305 0.0
O217 O 0.33473 0.09079 0.74088 0.0
C218 C 0.32724 0.08863 0.77667 0.0
O219 O 0.31394 0.08741 0.7739 0.0
O220 O 0.29999 0.07278 0.6954 0.0
Mg221 Mg 0.93883 0.24303 0.68544 0.0
C222 C 0.90553 0.22523 0.68761 0.0
O223 O 0.90837 0.23912 0.69273 0.0
C224 C 0.97031 0.24868 0.68749 0.0
O225 O 0.97141 0.25847 0.6574 0.0
C226 C 0.93626 0.25962 0.60143 0.0
O227 O 0.92719 0.26205 0.62627 0.0
O228 O 0.94282 0.25309 0.61849 0.0
O229 O 0.91653 0.22291 0.68373 0.0
O230 O 0.93865 0.25544 0.74436 0.0
C231 C 0.93407 0.24662 0.77788 0.0
O232 O 0.92969 0.23236 0.77148 0.0
O233 O 0.95737 0.23936 0.70274 0.0
Mg234 Mg 0.324 0.24071 0.18294 0.0
C235 C 0.34745 0.25321 0.25875 0.0
O236 O 0.35459 0.24811 0.23461 0.0
C237 C 0.3434 0.25187 0.10006 0.0
O238 O 0.34986 0.24539 0.12095 0.0
C239 C 0.29822 0.24656 0.17669 0.0
O240 O 0.30726 0.25581 0.14608 0.0
O241 O 0.30169 0.23762 0.19555 0.0
O242 O 0.33574 0.25268 0.24307 0.0
O243 O 0.32531 0.22008 0.17814 0.0
C244 C 0.3275 0.2137 0.21133 0.0
O245 O 0.32735 0.21858 0.25157 0.0
O246 O 0.33268 0.25246 0.11928 0.0
Mg247 Mg 0.78773 0.09007 0.1818 0.0
C248 C 0.81005 0.1215 0.20591 0.0
O249 O 0.79758 0.11942 0.22429 0.0
C250 C 0.79379 0.06296 0.20125 0.0
O251 O 0.80794 0.07272 0.20911 0.0
C252 C 0.78846 0.095 0.08521 0.0
O253 O 0.80207 0.09806 0.09582 0.0
O254 O 0.77874 0.09106 0.11625 0.0
O255 O 0.80994 0.11053 0.1857 0.0
O256 O 0.77603 0.09026 0.24274 0.0
C257 C 0.78152 0.08714 0.27635 0.0
O258 O 0.79273 0.0847 0.26979 0.0
O259 O 0.78505 0.06756 0.18789 0.0
Mg260 Mg 0.93585 0.70533 0.18901 0.0
C261 C 0.9037 0.69041 0.16849 0.0
O262 O 0.90782 0.68065 0.15726 0.0
C263 C 0.96807 0.72998 0.18445 0.0
O264 O 0.96845 0.71968 0.1595 0.0
C265 C 0.93951 0.70243 0.09297 0.0
O266 O 0.9396 0.71522 0.09676 0.0
O267 O 0.93862 0.69517 0.12833 0.0
O268 O 0.91363 0.70315 0.18347 0.0
O269 O 0.93533 0.69509 0.25313 0.0
C270 C 0.93656 0.70407 0.28421 0.0
O271 O 0.93746 0.71689 0.27328 0.0
O272 O 0.95539 0.72781 0.19781 0.0
Mg273 Mg 0.57724 0.98519 1.01472 0.0
C274 C 0.55921 0.99997 1.01093 0.0
O275 O 0.57316 1.01089 1.00658 0.0
C276 C 0.58554 0.96094 0.01666 0.0
O277 O 0.59576 0.97087 0.04342 0.0
C278 C 0.58173 0.98765 0.11272 0.0
O279 O 0.56904 0.9749 0.10844 0.0
O280 O 0.58853 0.9948 0.07767 0.0
O281 O 0.55672 0.98657 1.01539 0.0
O282 O 0.58907 0.99775 0.95526 0.0
C283 C 0.58506 0.98986 0.91998 0.0
O284 O 0.57501 0.97551 0.92313 0.0
O285 O 0.57507 0.96313 1.00323 0.0
Mg286 Mg 0.04277 0.59681 1.01417 0.0
C287 C 0.03973 0.56775 0.05015 0.0
O288 O 0.0369 0.57285 0.08676 0.0
C289 C 0.05991 0.62862 0.9915 0.0
O290 O 0.04568 0.62475 0.9894 0.0
C291 C 0.03898 0.60533 0.10725 0.0
O292 O 0.05355 0.61388 0.10213 0.0
O293 O 0.03123 0.59729 0.0747 0.0
O294 O 0.04397 0.57609 1.01562 0.0
O295 O 0.0303 0.59421 0.95327 0.0
C296 C 0.03842 0.59812 0.91835 0.0
O297 O 0.05285 0.60309 0.92229 0.0
O298 O 0.06318 0.61879 1.00446 0.0
Mg299 Mg 0.42947 0.44828 1.00478 0.0
C300 C 0.41894 0.42696 0.92602 0.0
O301 O 0.4058 0.42381 0.94195 0.0
C302 C 0.43236 0.4316 0.08669 0.0
O303 O 0.44046 0.42866 0.05914 0.0
C304 C 0.39791 0.44351 1.00373 0.0
O305 O 0.3968 0.43534 0.03875 0.0
O306 O 0.41071 0.45138 0.98546 0.0
O307 O 0.43066 0.43541 0.9485 0.0
O308 O 0.45138 0.46892 1.00537 0.0
C309 C 0.46272 0.46725 0.99942 0.0
O310 O 0.46044 0.45363 0.99275 0.0
O311 O 0.42603 0.43869 0.07219 0.0
Mg312 Mg 0.71001 0.78343 0.8551 0.0
C313 C 0.69523 0.8018 0.86157 0.0
O314 O 0.68447 0.78825 0.87244 0.0
C315 C 0.73577 0.77747 0.85082 0.0
O316 O 0.72772 0.76821 0.88289 0.0
C317 C 0.69254 0.76516 0.94092 0.0
O318 O 0.68102 0.75741 0.91463 0.0
O319 O 0.70489 0.77529 0.92429 0.0
O320 O 0.70818 0.80374 0.85276 0.0
O321 O 0.69641 0.76992 0.79911 0.0
C322 C 0.70033 0.77815 0.7643 0.0
O323 O 0.71045 0.79245 0.7684 0.0
O324 O 0.73182 0.7865 0.83531 0.0
Mg325 Mg 0.24435 0.93218 0.84512 0.0
C326 C 0.22767 0.89947 0.86112 0.0
O327 O 0.24136 0.90385 0.87478 0.0
C328 C 0.24745 0.96301 0.84363 0.0
O329 O 0.25545 0.9642 0.87894 0.0
C330 C 0.26369 0.93528 0.93027 0.0
O331 O 0.27224 0.9326 0.90382 0.0
O332 O 0.25271 0.93608 0.91393 0.0
O333 O 0.22485 0.90938 0.84588 0.0
O334 O 0.25821 0.93159 0.79045 0.0
C335 C 0.2639 0.94238 0.76242 0.0
O336 O 0.26399 0.95489 0.77197 0.0
O337 O 0.24004 0.95022 0.825 0.0
Mg338 Mg 0.09654 0.321 0.85658 0.0
C339 C 0.12982 0.33763 0.85028 0.0
O340 O 0.12623 0.34787 0.84022 0.0
C341 C 0.0653 0.29477 0.85598 0.0
O342 O 0.06427 0.3034 0.88632 0.0
C343 C 0.1011 0.34 0.94081 0.0
O344 O 0.11285 0.35004 0.91854 0.0
O345 O 0.09213 0.32757 0.92211 0.0
O346 O 0.11932 0.32424 0.85819 0.0
O347 O 0.09587 0.33291 0.79724 0.0
C348 C 0.09994 0.32832 0.76352 0.0
O349 O 0.10441 0.31851 0.76993 0.0
O350 O 0.07821 0.29849 0.84035 0.0
Mg351 Mg 0.45735 0.03951 0.01822 0.0
C352 C 0.47615 0.02578 1.00671 0.0
O353 O 0.46246 0.015 0.99772 0.0
C354 C 0.44703 0.06197 0.02059 0.0
O355 O 0.43599 0.05068 0.99946 0.0
C356 C 0.44807 0.03709 0.92198 0.0
O357 O 0.45703 0.0517 0.92496 0.0
O358 O 0.44551 0.02902 0.95664 0.0
O359 O 0.47819 0.03874 0.01652 0.0
O360 O 0.44624 0.02728 0.07841 0.0
C361 C 0.45275 0.03483 0.11304 0.0
O362 O 0.46466 0.0482 0.10796 0.0
O363 O 0.45867 0.06119 0.02994 0.0
Mg364 Mg 0.98836 0.42368 0.02359 0.0
C365 C 1.00409 0.45634 0.03902 0.0
O366 O 1.01374 0.45212 0.05051 0.0
C367 C 0.96459 0.39147 0.01935 0.0
O368 O 0.97549 0.39176 0.99579 0.0
C369 C 0.99104 0.42138 0.92606 0.0
O370 O 0.97809 0.42086 0.93025 0.0
O371 O 0.99832 0.42219 0.9611 0.0
O372 O 0.99117 0.44634 0.02548 0.0
O373 O 0.99953 0.42245 0.08334 0.0
C374 C 0.99173 0.42079 0.11801 0.0
O375 O 0.97856 0.41974 0.11325 0.0
O376 O 0.96602 0.40392 0.03244 0.0
Mg377 Mg 0.60103 0.57635 0.02469 0.0
C378 C 0.56911 0.55551 1.00644 0.0
O379 O 0.57121 0.5689 0.99654 0.0
C380 C 0.62498 0.57477 0.07811 0.0
O381 O 0.6143 0.57041 0.10808 0.0
C382 C 0.6017 0.57909 0.9271 0.0
O383 O 0.59969 0.5656 0.93474 0.0
O384 O 0.60313 0.58737 0.96037 0.0
O385 O 0.58035 0.5545 0.01954 0.0
O386 O 0.59848 0.58747 0.08348 0.0
C387 C 0.58959 0.57891 0.11365 0.0
O388 O 0.5814 0.56446 0.10548 0.0
O389 O 0.62209 0.57662 0.03818 0.0
Mg390 Mg 0.99211 0.57313 0.51194 0.0
C391 C 0.99686 0.57875 0.60751 0.0
O392 O 0.9824 0.56932 0.60388 0.0
C393 C 0.99506 0.58362 0.41719 0.0
O394 O 0.98042 0.57633 0.42213 0.0
C395 C 0.97493 0.58754 0.53505 0.0
O396 O 0.98915 0.59803 0.53642 0.0
O397 O 0.97168 0.57442 0.52232 0.0
O398 O 1.00488 0.583 0.57238 0.0
O399 O 0.99096 0.55131 0.50963 0.0
C400 C 1.00359 0.55262 0.49956 0.0
O401 O 1.01481 0.56608 0.49013 0.0
O402 O 1.00319 0.58483 0.45052 0.0
Mg403 Mg 0.44847 0.42431 0.51408 0.0
C404 C 0.47437 0.45398 0.54727 0.0
O405 O 0.46776 0.44831 0.58556 0.0
C406 C 0.44216 0.39233 0.50833 0.0
O407 O 0.43352 0.39244 0.47639 0.0
C408 C 0.44766 0.42372 0.41617 0.0
O409 O 0.46092 0.42578 0.42686 0.0
O410 O 0.43869 0.42227 0.44759 0.0
O411 O 0.46936 0.446 0.51237 0.0
O412 O 0.43638 0.42564 0.57236 0.0
C413 C 0.42867 0.41409 0.59665 0.0
O414 O 0.42579 0.40087 0.58202 0.0
O415 O 0.45082 0.40461 0.5282 0.0
Mg416 Mg 0.60344 0.03829 0.5147 0.0
C417 C 0.57107 0.02502 0.51396 0.0
O418 O 0.57373 0.01378 0.51589 0.0
C419 C 0.62904 0.06762 0.55365 0.0
O420 O 0.61925 0.06481 0.58553 0.0
C421 C 0.60591 0.03425 0.41815 0.0
O422 O 0.60849 0.04811 0.42094 0.0
O423 O 0.6037 0.02678 0.45395 0.0
O424 O 0.58225 0.03836 0.51231 0.0
O425 O 0.60244 0.02659 0.57632 0.0
C426 C 0.5968 0.02985 0.60921 0.0
O427 O 0.59136 0.03885 0.60258 0.0
O428 O 0.62486 0.05944 0.51893 0.0
Mg429 Mg 0.24322 0.31784 0.34579 0.0
C430 C 0.22592 0.33287 0.35148 0.0
O431 O 0.24013 0.34334 0.34944 0.0
C432 C 0.23733 0.28868 0.30144 0.0
O433 O 0.23025 0.29263 0.27303 0.0
C434 C 0.24961 0.32102 0.44223 0.0
O435 O 0.23747 0.30774 0.43898 0.0
O436 O 0.25554 0.32838 0.40665 0.0
O437 O 0.2227 0.31916 0.35147 0.0
O438 O 0.25382 0.32984 0.28425 0.0
C439 C 0.24476 0.32785 0.25273 0.0
O440 O 0.23029 0.31993 0.26069 0.0
O441 O 0.24228 0.29618 0.33722 0.0
Mg442 Mg 0.71048 0.93012 0.34579 0.0
C443 C 0.6967 0.89771 0.34638 0.0
O444 O 0.68593 0.90093 0.3416 0.0
C445 C 0.74048 0.95536 0.30753 0.0
O446 O 0.73851 0.94507 0.27824 0.0
C447 C 0.70546 0.93853 0.4382 0.0
O448 O 0.71998 0.94764 0.43423 0.0
O449 O 0.69824 0.93037 0.40516 0.0
O450 O 0.71012 0.90859 0.35056 0.0
O451 O 0.69933 0.92865 0.28264 0.0
C452 C 0.70249 0.92222 0.25173 0.0
O453 O 0.71145 0.91691 0.26065 0.0
O454 O 0.73153 0.95167 0.34055 0.0
Mg455 Mg 0.09713 0.78622 0.33959 0.0
C456 C 0.09643 0.78342 0.24443 0.0
O457 O 0.09562 0.79545 0.25437 0.0
C458 C 0.10392 0.77078 0.41715 0.0
O459 O 0.11457 0.77211 0.39014 0.0
C460 C 0.06482 0.77856 0.34402 0.0
O461 O 0.06444 0.76832 0.37107 0.0
O462 O 0.07746 0.78876 0.32932 0.0
O463 O 0.09752 0.7758 0.27629 0.0
O464 O 0.11879 0.80709 0.34236 0.0
C465 C 0.12994 0.80621 0.32766 0.0
O466 O 0.12753 0.79336 0.31113 0.0
O467 O 0.0947 0.77472 0.40345 0.0
H468 H 0.33186 0.10521 0.54087 0.0
H469 H 0.34722 0.07303 0.54192 0.0
H470 H 0.33611 0.10847 0.46119 0.0
H471 H 0.35118 0.07606 0.46142 0.0
H472 H 0.37114 0.09853 0.32407 0.0
H473 H 0.36675 0.09357 0.40384 0.0
H474 H 0.32592 0.09548 0.3931 0.0
H475 H 0.3305 0.10079 0.31399 0.0
C476 C 0.33609 0.09876 0.5241 0.0
C477 C 0.33915 0.08881 0.548 0.0
C478 C 0.33843 0.10055 0.47815 0.0
C479 C 0.34385 0.09241 0.45452 0.0
C480 C 0.34709 0.08259 0.47846 0.0
C481 C 0.34477 0.08081 0.52465 0.0
C482 C 0.36115 0.09774 0.33869 0.0
C483 C 0.35124 0.10019 0.31258 0.0
C484 C 0.35861 0.09485 0.38448 0.0
C485 C 0.34608 0.09431 0.40523 0.0
C486 C 0.33588 0.09617 0.37863 0.0
C487 C 0.33845 0.0991 0.33305 0.0
H488 H 0.94957 0.25115 0.53738 0.0
H489 H 0.92553 0.27521 0.55492 0.0
H490 H 0.94921 0.2541 0.4571 0.0
H491 H 0.92564 0.27867 0.47473 0.0
H492 H 0.91155 0.26537 0.33011 0.0
H493 H 0.91389 0.26479 0.41038 0.0
H494 H 0.95806 0.27025 0.39457 0.0
H495 H 0.95545 0.27028 0.31391 0.0
C496 C 0.94442 0.25731 0.52418 0.0
C497 C 0.93749 0.26286 0.55278 0.0
C498 C 0.94427 0.25907 0.47796 0.0
C499 C 0.93729 0.26654 0.45896 0.0
C500 C 0.93084 0.27256 0.4878 0.0
C501 C 0.93088 0.27069 0.53399 0.0
C502 C 0.92182 0.26654 0.34367 0.0
C503 C 0.93329 0.26783 0.31533 0.0
C504 C 0.92321 0.26631 0.38995 0.0
C505 C 0.93618 0.26748 0.40943 0.0
C506 C 0.94779 0.26907 0.38102 0.0
C507 C 0.94635 0.2692 0.33463 0.0
H508 H 0.76895 0.67525 0.55579 0.0
H509 H 0.78447 0.7199 0.50411 0.0
H510 H 0.76178 0.66498 0.48121 0.0
H511 H 0.77669 0.70962 0.42969 0.0
H512 H 0.7793 0.68872 0.2973 0.0
H513 H 0.78408 0.69952 0.37159 0.0
H514 H 0.74533 0.65926 0.42127 0.0
H515 H 0.74103 0.64825 0.34733 0.0
C516 C 0.77055 0.68284 0.5286 0.0
C517 C 0.77735 0.69839 0.53588 0.0
C518 C 0.76636 0.67695 0.4857 0.0
C519 C 0.76869 0.68645 0.44902 0.0
C520 C 0.775 0.70196 0.45676 0.0
C521 C 0.77936 0.70786 0.49957 0.0
C522 C 0.77172 0.68225 0.32401 0.0
C523 C 0.75986 0.66759 0.31646 0.0
C524 C 0.77441 0.68847 0.36673 0.0
C525 C 0.76517 0.68026 0.40285 0.0
C526 C 0.75292 0.66582 0.39469 0.0
C527 C 0.75037 0.65953 0.35214 0.0
H528 H 0.11871 0.36499 0.99033 0.0
H529 H 0.07987 0.32052 1.00031 0.0
H530 H 0.11778 0.36826 0.07014 0.0
H531 H 0.07909 0.32374 0.08067 0.0
H532 H 0.07588 0.34063 0.22126 0.0
H533 H 0.07485 0.33766 0.14033 0.0
H534 H 0.12307 0.3582 0.13604 0.0
H535 H 0.12414 0.36134 0.21623 0.0
C536 C 0.10989 0.35593 1.00946 0.0
C537 C 0.09943 0.34244 0.98878 0.0
C538 C 0.10943 0.35777 0.05541 0.0
C539 C 0.09849 0.34619 0.08207 0.0
C540 C 0.08763 0.33292 0.06119 0.0
C541 C 0.08811 0.33106 1.01509 0.0
C542 C 0.08626 0.3445 0.20301 0.0
C543 C 0.1001 0.35127 0.22539 0.0
C544 C 0.08566 0.34274 0.15661 0.0
C545 C 0.09889 0.3478 0.13151 0.0
C546 C 0.11268 0.35444 0.15407 0.0
C547 C 0.11327 0.35614 0.20026 0.0
H548 H 0.705 0.76778 0.23028 0.0
H549 H 0.65748 0.74963 0.21181 0.0
H550 H 0.70837 0.76772 0.15007 0.0
H551 H 0.66086 0.75018 0.13157 0.0
H552 H 0.6691 0.74278 0.98818 0.0
H553 H 0.66601 0.74008 0.06873 0.0
H554 H 0.70887 0.78058 0.08556 0.0
H555 H 0.71218 0.78286 1.00537 0.0
C556 C 0.69525 0.76377 0.20909 0.0
C557 C 0.68097 0.75873 0.22764 0.0
C558 C 0.69719 0.76385 0.16289 0.0
C559 C 0.68493 0.75907 0.13377 0.0
C560 C 0.67059 0.75375 0.15255 0.0
C561 C 0.66863 0.75351 0.19878 0.0
C562 C 0.67792 0.75104 1.00913 0.0
C563 C 0.6909 0.76304 0.99011 0.0
C564 C 0.6761 0.74956 0.05548 0.0
C565 C 0.68715 0.76013 0.0842 0.0
C566 C 0.7002 0.77203 0.06497 0.0
C567 C 0.70208 0.77341 0.01871 0.0
H568 H 0.2611 0.94596 0.21925 0.0
H569 H 0.27992 0.91705 0.20096 0.0
H570 H 0.2612 0.94934 0.13899 0.0
H571 H 0.27952 0.91995 0.12071 0.0
H572 H 0.28674 0.93564 0.97723 0.0
H573 H 0.28961 0.93567 0.05778 0.0
H574 H 0.24817 0.93611 0.07509 0.0
H575 H 0.24563 0.93663 0.99488 0.0
C576 C 0.2653 0.94035 0.19814 0.0
C577 C 0.27046 0.9312 0.21674 0.0
C578 C 0.26525 0.94219 0.15192 0.0
C579 C 0.27024 0.93482 0.1229 0.0
C580 C 0.27576 0.92598 0.1417 0.0
C581 C 0.27592 0.92425 0.18792 0.0
C582 C 0.27831 0.93588 0.99825 0.0
C583 C 0.26595 0.93612 0.97939 0.0
C584 C 0.2799 0.93579 0.04459 0.0
C585 C 0.2691 0.93583 0.07339 0.0
C586 C 0.25687 0.93632 0.05434 0.0
C587 C 0.25535 0.93652 1.0081 0.0
H588 H 0.64561 0.91169 0.66995 0.0
H589 H 0.69022 0.92921 0.72275 0.0
H590 H 0.65595 0.91905 0.59531 0.0
H591 H 0.70059 0.93608 0.64784 0.0
H592 H 0.71674 0.95633 0.5117 0.0
H593 H 0.70572 0.95205 0.58579 0.0
H594 H 0.66678 0.9116 0.53904 0.0
H595 H 0.67759 0.91623 0.46463 0.0
C596 C 0.65765 0.91715 0.66564 0.0
C597 C 0.66708 0.91981 0.70239 0.0
C598 C 0.66359 0.92128 0.62267 0.0
C599 C 0.67913 0.92805 0.61513 0.0
C600 C 0.68859 0.93107 0.65216 0.0
C601 C 0.68264 0.92707 0.69525 0.0
C602 C 0.70574 0.94661 0.51712 0.0
C603 C 0.69807 0.93661 0.48216 0.0
C604 C 0.69946 0.94408 0.55981 0.0
C605 C 0.68538 0.93139 0.56885 0.0
C606 C 0.67754 0.92161 0.53347 0.0
C607 C 0.68377 0.92422 0.49067 0.0
H608 H 0.08874 0.77407 0.48759 0.0
H609 H 0.11946 0.75845 0.45465 0.0
H610 H 0.09171 0.77063 0.56656 0.0
H611 H 0.122 0.75448 0.53317 0.0
H612 H 0.1398 0.76905 0.67253 0.0
H613 H 0.13414 0.76978 0.59487 0.0
H614 H 0.08785 0.75422 0.62865 0.0
H615 H 0.09372 0.75392 0.70756 0.0
C616 C 0.0959 0.76961 0.49711 0.0
C617 C 0.10399 0.7667 0.46468 0.0
C618 C 0.09756 0.76758 0.54251 0.0
C619 C 0.1073 0.76249 0.55662 0.0
C620 C 0.11473 0.75882 0.52387 0.0
C621 C 0.11318 0.76098 0.47865 0.0
C622 C 0.12837 0.76572 0.66365 0.0
C623 C 0.11722 0.76139 0.69654 0.0
C624 C 0.12508 0.76602 0.61876 0.0
C625 C 0.11047 0.76188 0.605 0.0
C626 C 0.09925 0.75757 0.63788 0.0
C627 C 0.10259 0.75733 0.68315 0.0
H628 H 0.27295 0.34917 0.46266 0.0
H629 H 0.23893 0.30784 0.52303 0.0
H630 H 0.28056 0.36046 0.53638 0.0
H631 H 0.24624 0.31916 0.59619 0.0
H632 H 0.26818 0.33981 0.72684 0.0
H633 H 0.26507 0.32863 0.65313 0.0
H634 H 0.2705 0.36934 0.59327 0.0
H635 H 0.27397 0.38057 0.66645 0.0
C636 C 0.26717 0.34246 0.49161 0.0
C637 C 0.25527 0.32763 0.48683 0.0
C638 C 0.27147 0.34895 0.53389 0.0
C639 C 0.26397 0.34077 0.57238 0.0
C640 C 0.25242 0.32577 0.56752 0.0
C641 C 0.24814 0.3193 0.52537 0.0
C642 C 0.26889 0.34642 0.69789 0.0
C643 C 0.27123 0.36105 0.70266 0.0
C644 C 0.26702 0.33999 0.65561 0.0
C645 C 0.26744 0.34803 0.61711 0.0
C646 C 0.27029 0.36284 0.62196 0.0
C647 C 0.27216 0.36926 0.66412 0.0
H648 H 0.94186 0.68649 0.80723 0.0
H649 H 0.90799 0.64442 0.86432 0.0
H650 H 0.94912 0.6971 0.88179 0.0
H651 H 0.91493 0.65509 0.93841 0.0
H652 H 0.93618 0.6749 0.07086 0.0
H653 H 0.93343 0.66428 0.99637 0.0
H654 H 0.93875 0.7053 0.9392 0.0
H655 H 0.94186 0.71596 1.01301 0.0
C656 C 0.93602 0.67948 0.83563 0.0
C657 C 0.92427 0.66464 0.82966 0.0
C658 C 0.94012 0.68558 0.87843 0.0
C659 C 0.93256 0.677 0.9163 0.0
C660 C 0.92115 0.662 0.91025 0.0
C661 C 0.91708 0.65591 0.86756 0.0
C662 C 0.93696 0.6817 0.04232 0.0
C663 C 0.93915 0.69625 0.04802 0.0
C664 C 0.93529 0.67559 0.99958 0.0
C665 C 0.93579 0.68389 0.96159 0.0
C666 C 0.93849 0.69862 0.96743 0.0
C667 C 0.94016 0.7047 1.00999 0.0
H668 H 0.3285 0.25969 0.03919 0.0
H669 H 0.3679 0.25546 0.0546 0.0
H670 H 0.33486 0.26628 0.96061 0.0
H671 H 0.37417 0.26194 0.97664 0.0
H672 H 0.38948 0.28682 0.84724 0.0
H673 H 0.38252 0.28327 0.92545 0.0
H674 H 0.3362 0.25384 0.88992 0.0
H675 H 0.34318 0.25748 0.81097 0.0
C676 C 0.33859 0.26031 0.026 0.0
C677 C 0.3477 0.25707 0.05331 0.0
C678 C 0.34216 0.26397 0.98089 0.0
C679 C 0.35504 0.26466 0.96226 0.0
C680 C 0.36428 0.26171 0.98991 0.0
C681 C 0.36064 0.25792 0.03469 0.0
C682 C 0.37776 0.2797 0.85587 0.0
C683 C 0.36691 0.27233 0.82264 0.0
C684 C 0.37379 0.27761 0.90087 0.0
C685 C 0.35884 0.26811 0.9141 0.0
C686 C 0.34782 0.26129 0.8809 0.0
C687 C 0.35182 0.26335 0.83563 0.0
H688 H 0.75551 0.10525 0.82501 0.0
H689 H 0.79116 0.09591 0.79685 0.0
H690 H 0.75809 0.1021 0.90451 0.0
H691 H 0.79341 0.09227 0.87578 0.0
H692 H 0.80819 0.10699 0.01663 0.0
H693 H 0.80315 0.10801 0.93854 0.0
H694 H 0.75563 0.08584 0.96641 0.0
H695 H 0.7608 0.08518 0.04582 0.0
C696 C 0.7637 0.10224 0.83566 0.0
C697 C 0.77324 0.101 0.80446 0.0
C698 C 0.76516 0.10039 0.88135 0.0
C699 C 0.77615 0.09718 0.89692 0.0
C700 C 0.7851 0.09515 0.86535 0.0
C701 C 0.78373 0.09712 0.81988 0.0
C702 C 0.79663 0.1023 1.00636 0.0
C703 C 0.7849 0.09592 0.03769 0.0
C704 C 0.79372 0.10278 0.96124 0.0
C705 C 0.77895 0.09678 0.94568 0.0
C706 C 0.76716 0.09061 0.97708 0.0
C707 C 0.7701 0.0902 0.02262 0.0
H708 H 0.0182 0.42405 0.9042 0.0
H709 H 0.97819 0.42038 0.84599 0.0
H710 H 0.02906 0.42696 0.82999 0.0
H711 H 0.98912 0.42364 0.7723 0.0
H712 H 1.00803 0.41979 0.64092 0.0
H713 H 0.99699 0.41267 0.71517 0.0
H714 H 0.03903 0.44596 0.77274 0.0
H715 H 0.05013 0.45279 0.69893 0.0
C716 C 1.01169 0.42378 0.87562 0.0
C717 C 0.99736 0.42207 0.88112 0.0
C718 C 0.01794 0.42553 0.83307 0.0
C719 C 1.01001 0.4256 0.79506 0.0
C720 C 0.9955 0.42344 0.80063 0.0
C721 C 0.98926 0.42169 0.84306 0.0
C722 C 1.01496 0.42546 0.66947 0.0
C723 C 0.02994 0.43693 0.6639 0.0
C724 C 1.0086 0.42144 0.71205 0.0
C725 C 0.01708 0.4288 0.75004 0.0
C726 C 0.0322 0.43992 0.74441 0.0
C727 C 0.03854 0.44392 0.70193 0.0
H728 H 0.61651 0.62269 0.66477 0.0
H729 H 0.57459 0.5807 0.65683 0.0
H730 H 0.61905 0.61727 0.74278 0.0
H731 H 0.57715 0.57539 0.73411 0.0
H732 H 0.59546 0.56216 0.8523 0.0
H733 H 0.59417 0.5692 0.77602 0.0
H734 H 0.60617 0.61392 0.81886 0.0
H735 H 0.60748 0.60685 0.89614 0.0
C736 C 0.60786 0.61233 0.67957 0.0
C737 C 0.59538 0.60211 0.65439 0.0
C738 C 0.60927 0.60929 0.72431 0.0
C739 C 0.59834 0.59587 0.74457 0.0
C740 C 0.58586 0.58574 0.71939 0.0
C741 C 0.58437 0.58883 0.67504 0.0
C742 C 0.59788 0.57354 0.84572 0.0
C743 C 0.60151 0.58392 0.88055 0.0
C744 C 0.59707 0.57754 0.80186 0.0
C745 C 0.59996 0.59208 0.79136 0.0
C746 C 0.60394 0.60264 0.8259 0.0
C747 C 0.60462 0.59857 0.87014 0.0
H748 H 0.43661 1.00764 0.89823 0.0
H749 H 0.4466 0.05085 0.84594 0.0
H750 H 0.42963 0.99683 0.82416 0.0
H751 H 0.43896 0.03995 0.77214 0.0
H752 H 0.44308 0.02054 0.63901 0.0
H753 H 0.44751 0.0314 0.71313 0.0
H754 H 0.41246 0.98901 0.76557 0.0
H755 H 0.40857 0.97802 0.69167 0.0
C756 C 0.43703 0.01477 0.87104 0.0
C757 C 0.44225 0.03012 0.87796 0.0
C758 C 0.43295 1.00855 0.82844 0.0
C759 C 0.43378 0.0175 0.79173 0.0
C760 C 0.43847 0.03275 0.79918 0.0
C761 C 0.44275 0.039 0.84166 0.0
C762 C 0.43622 0.01359 0.66631 0.0
C763 C 0.42553 0.99839 0.65946 0.0
C764 C 0.4387 0.01984 0.70894 0.0
C765 C 0.43041 1.0111 0.74577 0.0
C766 C 0.41931 0.99603 0.73841 0.0
C767 C 0.41699 0.98974 0.69589 0.0
H768 H 0.60994 0.04763 0.33696 0.0
H769 H 0.59865 1.00522 0.39858 0.0
H770 H 0.60566 0.03611 0.264 0.0
H771 H 0.5947 0.9937 0.32508 0.0
H772 H 0.56908 0.97512 0.19279 0.0
H773 H 0.57653 0.98616 0.26631 0.0
H774 H 0.61441 0.02539 0.20882 0.0
H775 H 0.6067 0.01445 0.13478 0.0
C776 C 0.60673 0.03587 0.33496 0.0
C777 C 0.60454 0.02733 0.37377 0.0
C778 C 0.60438 0.02927 0.29294 0.0
C779 C 0.5998 0.01394 0.28846 0.0
C780 C 0.59803 1.00549 0.32725 0.0
C781 C 0.60038 0.01211 0.36942 0.0
C782 C 0.57908 0.98606 0.19574 0.0
C783 C 0.58722 0.99394 0.15773 0.0
C784 C 0.58342 0.99235 0.2381 0.0
C785 C 0.59605 1.00671 0.24368 0.0
C786 C 0.60449 0.01441 0.20576 0.0
C787 C 0.60012 1.0081 0.16329 0.0
H788 H 0.0243 0.59468 0.39147 0.0
H789 H 0.98094 0.5844 0.34125 0.0
H790 H 0.03462 0.60101 0.3164 0.0
H791 H 0.99133 0.59113 0.26642 0.0
H792 H 1.01033 0.58513 0.13398 0.0
H793 H 0.9999 0.58122 0.20884 0.0
H794 H 0.04155 0.61848 0.25611 0.0
H795 H 0.05209 0.6221 0.1815 0.0
C796 C 0.01702 0.594 0.36454 0.0
C797 C 1.00177 0.58895 0.37241 0.0
C798 C 0.02295 0.59769 0.32141 0.0
C799 C 1.0138 0.59651 0.28511 0.0
C800 C 0.99866 0.59191 0.29333 0.0
C801 C 0.99272 0.58815 0.33638 0.0
C802 C 0.01721 0.59258 0.16024 0.0
C803 C 0.03207 0.60388 0.15171 0.0
C804 C 1.01121 0.59039 0.20324 0.0
C805 C 0.01989 0.59948 0.23877 0.0
C806 C 0.03461 0.61108 0.22984 0.0
C807 C 0.04063 0.61322 0.18691 0.0
H808 H 0.4209 0.44038 0.15572 0.0
H809 H 0.44326 0.41525 0.12748 0.0
H810 H 0.42318 0.43728 0.2354 0.0
H811 H 0.44517 0.4118 0.20678 0.0
H812 H 0.46512 0.42676 0.34454 0.0
H813 H 0.45982 0.42731 0.26642 0.0
H814 H 0.41606 0.42058 0.29971 0.0
H815 H 0.42157 0.42037 0.37901 0.0
C816 C 0.42608 0.43398 0.16644 0.0
C817 C 0.43205 0.42822 0.13504 0.0
C818 C 0.42733 0.43214 0.21224 0.0
C819 C 0.43455 0.42446 0.2278 0.0
C820 C 0.43986 0.4181 0.19623 0.0
C821 C 0.43868 0.41999 0.15059 0.0
C822 C 0.45431 0.42533 0.33548 0.0
C823 C 0.44377 0.42351 0.36833 0.0
C824 C 0.45121 0.42553 0.29037 0.0
C825 C 0.43744 0.42386 0.27638 0.0
C826 C 0.42683 0.422 0.30917 0.0
C827 C 0.42995 0.42179 0.35465 0.0
H828 H 0.3366 0.20056 0.27389 0.0
H829 H 0.32859 0.20066 0.13293 0.0
H830 H 0.34504 0.18247 0.2621 0.0
H831 H 0.33717 0.18267 0.12117 0.0
H832 H 0.33682 0.13771 0.12658 0.0
H833 H 0.32921 0.1564 0.13703 0.0
H834 H 0.36594 0.1806 0.22815 0.0
H835 H 0.37353 0.16168 0.21801 0.0
C836 C 0.33657 0.19669 0.24039 0.0
C837 C 0.33183 0.20203 0.20439 0.0
C838 C 0.34156 0.18641 0.2336 0.0
C839 C 0.34185 0.18115 0.19068 0.0
C840 C 0.33697 0.18639 0.15474 0.0
C841 C 0.33207 0.19673 0.16148 0.0
C842 C 0.34337 0.14705 0.14869 0.0
C843 C 0.35579 0.14816 0.17152 0.0
C844 C 0.33902 0.15783 0.1545 0.0
C845 C 0.34692 0.17 0.1835 0.0
C846 C 0.3595 0.17126 0.20594 0.0
C847 C 0.36392 0.16049 0.19987 0.0
H848 H 0.81724 0.14277 0.26904 0.0
H849 H 0.83266 0.13495 0.1437 0.0
H850 H 0.8374 0.16892 0.26766 0.0
H851 H 0.85284 0.16143 0.14196 0.0
H852 H 0.87251 0.21466 0.13778 0.0
H853 H 0.85358 0.18776 0.13718 0.0
H854 H 0.86629 0.18319 0.27042 0.0
H855 H 0.88522 0.20982 0.27092 0.0
C856 C 0.82505 0.14662 0.24135 0.0
C857 C 0.82342 0.13679 0.20659 0.0
C858 C 0.83659 0.16161 0.24059 0.0
C859 C 0.84664 0.16724 0.20462 0.0
C860 C 0.84517 0.15739 0.16995 0.0
C861 C 0.83375 0.14223 0.17118 0.0
C862 C 0.87121 0.2079 0.16693 0.0
C863 C 0.88032 0.21439 0.20446 0.0
C864 C 0.8605 0.19249 0.16641 0.0
C865 C 0.85851 0.18338 0.20372 0.0
C866 C 0.86754 0.18993 0.24125 0.0
C867 C 0.87839 0.2052 0.24148 0.0
H868 H 0.88202 0.66711 0.12154 0.0
H869 H 0.88898 0.70367 0.2076 0.0
H870 H 0.85541 0.65878 0.11768 0.0
H871 H 0.8621 0.69523 0.2037 0.0
H872 H 0.81041 0.66431 0.22286 0.0
H873 H 0.83718 0.67267 0.22825 0.0
H874 H 0.83911 0.66798 0.08614 0.0
H875 H 0.81248 0.65968 0.08065 0.0
C876 C 0.87788 0.67342 0.13956 0.0
C877 C 0.88766 0.68609 0.16485 0.0
C878 C 0.8626 0.66865 0.13719 0.0
C879 C 0.85662 0.67631 0.16042 0.0
C880 C 0.86636 0.68901 0.18575 0.0
C881 C 0.88176 0.69392 0.18768 0.0
C882 C 0.81651 0.6649 0.19285 0.0
C883 C 0.80927 0.66126 0.15133 0.0
C884 C 0.83188 0.66985 0.1959 0.0
C885 C 0.84029 0.67106 0.1576 0.0
C886 C 0.83295 0.66709 0.1163 0.0
C887 C 0.81767 0.66233 0.11318 0.0
H888 H 0.15273 0.35078 0.4066 0.0
H889 H 0.17098 0.37149 0.27927 0.0
H890 H 0.17094 0.34209 0.41047 0.0
H891 H 0.18916 0.36291 0.28339 0.0
H892 H 0.22996 0.36053 0.33305 0.0
H893 H 0.21139 0.3685 0.33153 0.0
H894 H 0.17686 0.32367 0.36785 0.0
H895 H 0.1956 0.31552 0.36915 0.0
C896 C 0.1607 0.3536 0.37965 0.0
C897 C 0.16045 0.36191 0.3427 0.0
C898 C 0.17101 0.34849 0.3817 0.0
C899 C 0.18144 0.35178 0.3472 0.0
C900 C 0.18132 0.36026 0.31062 0.0
C901 C 0.1709 0.36518 0.30826 0.0
C902 C 0.21843 0.35231 0.34081 0.0
C903 C 0.21427 0.33735 0.35118 0.0
C904 C 0.20777 0.3569 0.3397 0.0
C905 C 0.19267 0.34672 0.34942 0.0
C906 C 0.18845 0.33178 0.36044 0.0
C907 C 0.19915 0.3271 0.36096 0.0
H908 H 0.66453 0.80546 0.26521 0.0
H909 H 0.6766 0.80591 0.40293 0.0
H910 H 0.67305 0.83228 0.26919 0.0
H911 H 0.68527 0.83287 0.40667 0.0
H912 H 0.71338 0.88492 0.37447 0.0
H913 H 0.70604 0.85815 0.37163 0.0
H914 H 0.66415 0.8479 0.31027 0.0
H915 H 0.67128 0.87428 0.31339 0.0
C916 C 0.66897 0.81127 0.29638 0.0
C917 C 0.66977 0.80349 0.33383 0.0
C918 C 0.67386 0.82664 0.29864 0.0
C919 C 0.67987 0.8347 0.33822 0.0
C920 C 0.68082 0.82699 0.37562 0.0
C921 C 0.67571 0.81152 0.37356 0.0
C922 C 0.70263 0.87693 0.36033 0.0
C923 C 0.69292 0.88174 0.34425 0.0
C924 C 0.6984 0.86162 0.35893 0.0
C925 C 0.68452 0.85094 0.34062 0.0
C926 C 0.67495 0.85585 0.32421 0.0
C927 C 0.67904 0.871 0.32625 0.0
H928 H 0.22714 0.86194 0.3512 0.0
H929 H 0.21172 0.89383 0.33645 0.0
H930 H 0.20121 0.8413 0.34825 0.0
H931 H 0.18596 0.8733 0.33224 0.0
H932 H 0.14006 0.83349 0.36895 0.0
H933 H 0.16596 0.85406 0.37505 0.0
H934 H 0.18088 0.8286 0.29743 0.0
H935 H 0.15519 0.80801 0.29244 0.0
C936 C 0.21824 0.86455 0.34712 0.0
C937 C 0.22153 0.87955 0.34406 0.0
C938 C 0.20336 0.85271 0.3452 0.0
C939 C 0.19143 0.85559 0.33997 0.0
C940 C 0.19478 0.87062 0.337 0.0
C941 C 0.20961 0.88242 0.33911 0.0
C942 C 0.14888 0.83232 0.35314 0.0
C943 C 0.14552 0.81909 0.33026 0.0
C944 C 0.16374 0.84413 0.35648 0.0
C945 C 0.17558 0.84301 0.33686 0.0
C946 C 0.17214 0.8298 0.31369 0.0
C947 C 0.15734 0.818 0.31052 0.0
H948 H 0.69879 0.88824 0.86267 0.0
H949 H 0.65269 0.85672 0.82966 0.0
H950 H 0.70422 0.86785 0.86618 0.0
H951 H 0.65825 0.8362 0.83178 0.0
H952 H 0.66968 0.80156 0.88719 0.0
H953 H 0.66398 0.82181 0.88207 0.0
H954 H 0.7074 0.8505 0.82227 0.0
H955 H 0.71327 0.83032 0.82875 0.0
C956 C 0.6898 0.87695 0.85575 0.0
C957 C 0.67528 0.87414 0.84588 0.0
C958 C 0.69297 0.86522 0.85746 0.0
C959 C 0.68172 0.85032 0.84908 0.0
C960 C 0.66717 0.8475 0.83899 0.0
C961 C 0.66398 0.85927 0.83752 0.0
C962 C 0.67804 0.8122 0.873 0.0
C963 C 0.69198 0.81433 0.85855 0.0
C964 C 0.67471 0.8238 0.86972 0.0
C965 C 0.68518 0.83784 0.85166 0.0
C966 C 0.69911 0.83994 0.83699 0.0
C967 C 0.70249 0.82834 0.84054 0.0
H968 H 0.19915 0.88512 0.82581 0.0
H969 H 0.23011 0.87697 0.90093 0.0
H970 H 0.1807 0.85817 0.82856 0.0
H971 H 0.21185 0.85026 0.90333 0.0
H972 H 0.16938 0.80613 0.94086 0.0
H973 H 0.18756 0.83297 0.93748 0.0
H974 H 0.17695 0.83385 0.79907 0.0
H975 H 0.15866 0.80699 0.80244 0.0
C976 C 0.20202 0.87762 0.84294 0.0
C977 C 0.21612 0.88324 0.86316 0.0
C978 C 0.19149 0.86217 0.84427 0.0
C979 C 0.19479 0.85204 0.86621 0.0
C980 C 0.20885 0.85773 0.88661 0.0
C981 C 0.21937 0.87308 0.885 0.0
C982 C 0.17099 0.812 0.90959 0.0
C983 C 0.16257 0.80435 0.87192 0.0
C984 C 0.18144 0.8274 0.90763 0.0
C985 C 0.18369 0.8356 0.86803 0.0
C986 C 0.17536 0.82793 0.83024 0.0
C987 C 0.16498 0.81249 0.83209 0.0
H988 H 0.15334 0.36569 0.86417 0.0
H989 H 0.14266 0.31974 0.84458 0.0
H990 H 0.1799 0.3736 0.86938 0.0
H991 H 0.16949 0.32782 0.84895 0.0
H992 H 0.22057 0.35444 0.80521 0.0
H993 H 0.19374 0.34589 0.80079 0.0
H994 H 0.19642 0.36832 0.92448 0.0
H995 H 0.22317 0.37662 0.92953 0.0
C996 C 0.15667 0.35727 0.86084 0.0
C997 C 0.14588 0.34207 0.85392 0.0
C998 C 0.17188 0.36182 0.86404 0.0
C999 C 0.17675 0.35134 0.85954 0.0
C1000 C 0.16602 0.33614 0.85231 0.0
C1001 C 0.1507 0.33151 0.85004 0.0
C1002 C 0.21547 0.35763 0.83134 0.0
C1003 C 0.22403 0.36627 0.86766 0.0
C1004 C 0.20008 0.35261 0.82897 0.0
C1005 C 0.193 0.35638 0.86238 0.0
C1006 C 0.20161 0.36527 0.89823 0.0
C1007 C 0.21691 0.37002 0.90108 0.0
H1008 H 0.83763 0.70543 0.6943 0.0
H1009 H 0.80626 0.66555 0.6227 0.0
H1010 H 0.85589 0.69672 0.69339 0.0
H1011 H 0.8243 0.65689 0.62212 0.0
H1012 H 0.86629 0.65427 0.58753 0.0
H1013 H 0.84853 0.66339 0.58849 0.0
H1014 H 0.85914 0.67611 0.72615 0.0
H1015 H 0.87702 0.66707 0.7252 0.0
C1016 C 0.83466 0.69488 0.67821 0.0
C1017 C 0.82048 0.68621 0.65857 0.0
C1018 C 0.84505 0.68983 0.67799 0.0
C1019 C 0.84155 0.67609 0.6577 0.0
C1020 C 0.82745 0.66758 0.63762 0.0
C1021 C 0.81706 0.67254 0.63817 0.0
C1022 C 0.86477 0.65889 0.61815 0.0
C1023 C 0.87306 0.65986 0.65632 0.0
C1024 C 0.85456 0.66412 0.6187 0.0
C1025 C 0.85245 0.67055 0.65735 0.0
C1026 C 0.86064 0.67141 0.69567 0.0
C1027 C 0.87078 0.66607 0.69524 0.0
H1028 H 0.36108 0.2158 0.79086 0.0
H1029 H 0.36589 0.21826 0.64788 0.0
H1030 H 0.35305 0.18905 0.78862 0.0
H1031 H 0.35765 0.19137 0.64571 0.0
H1032 H 0.32484 0.13946 0.66182 0.0
H1033 H 0.33297 0.16638 0.66387 0.0
H1034 H 0.36447 0.17285 0.7678 0.0
H1035 H 0.35655 0.14617 0.76547 0.0
C1036 C 0.36055 0.21066 0.75897 0.0
C1037 C 0.3642 0.21919 0.71958 0.0
C1038 C 0.35594 0.19534 0.75772 0.0
C1039 C 0.35461 0.18809 0.71697 0.0
C1040 C 0.35841 0.19663 0.67755 0.0
C1041 C 0.36329 0.21205 0.67886 0.0
C1042 C 0.33339 0.14662 0.68535 0.0
C1043 C 0.34004 0.14069 0.7135 0.0
C1044 C 0.33814 0.16204 0.68623 0.0
C1045 C 0.34941 0.17172 0.71587 0.0
C1046 C 0.35574 0.16567 0.74474 0.0
C1047 C 0.3512 0.15038 0.74332 0.0
H1048 H 0.82278 0.14305 0.62623 0.0
H1049 H 0.80819 0.16645 0.71423 0.0
H1050 H 0.84846 0.1635 0.63195 0.0
H1051 H 0.83417 0.1869 0.72112 0.0
H1052 H 0.88018 0.2274 0.68626 0.0
H1053 H 0.85425 0.20723 0.68162 0.0
H1054 H 0.86898 0.17454 0.68195 0.0
H1055 H 0.89504 0.19483 0.68517 0.0
C1056 C 0.82506 0.15256 0.64702 0.0
C1057 C 0.81339 0.15309 0.66985 0.0
C1058 C 0.83987 0.16427 0.6506 0.0
C1059 C 0.84351 0.17683 0.67738 0.0
C1060 C 0.8318 0.17747 0.69985 0.0
C1061 C 0.8169 0.16574 0.69603 0.0
C1062 C 0.87792 0.21591 0.68538 0.0
C1063 C 0.88973 0.21275 0.68588 0.0
C1064 C 0.86299 0.2043 0.68304 0.0
C1065 C 0.85943 0.1892 0.68133 0.0
C1066 C 0.87127 0.18604 0.68243 0.0
C1067 C 0.88623 0.19767 0.68452 0.0
H1068 H 0.99892 0.46535 0.50192 0.0
H1069 H 0.04543 0.49734 0.52852 0.0
H1070 H 0.99341 0.48568 0.49701 0.0
H1071 H 0.03981 0.5178 0.52497 0.0
H1072 H 0.02806 0.55182 0.46898 0.0
H1073 H 0.0334 0.53136 0.47372 0.0
H1074 H 0.99084 0.50376 0.53947 0.0
H1075 H 0.9853 0.52422 0.53345 0.0
C1076 C 1.00799 0.47675 0.50708 0.0
C1077 C 0.02265 0.4797 0.51558 0.0
C1078 C 1.00478 0.48843 0.50456 0.0
C1079 C 1.01612 0.50343 0.5107 0.0
C1080 C 0.03081 0.50641 0.51943 0.0
C1081 C 0.03405 0.49468 0.52171 0.0
C1082 C 0.01978 0.54137 0.48431 0.0
C1083 C 1.00622 0.53967 0.50082 0.0
C1084 C 0.02293 0.52965 0.48738 0.0
C1085 C 1.01264 0.51589 0.50731 0.0
C1086 C 0.99898 0.51412 0.52345 0.0
C1087 C 0.99579 0.52586 0.52011 0.0
H1088 H 0.49007 0.47269 0.61566 0.0
H1089 H 0.4857 0.47166 0.47267 0.0
H1090 H 0.50874 0.49937 0.61204 0.0
H1091 H 0.50443 0.49848 0.46917 0.0
H1092 H 0.52673 0.55053 0.49114 0.0
H1093 H 0.50741 0.52378 0.49338 0.0
H1094 H 0.53485 0.51508 0.58319 0.0
H1095 H 0.55399 0.54151 0.58097 0.0
C1096 C 0.49315 0.47813 0.58341 0.0
C1097 C 0.48643 0.46999 0.54445 0.0
C1098 C 0.50387 0.49343 0.58135 0.0
C1099 C 0.50804 0.50106 0.54033 0.0
C1100 C 0.50134 0.49295 0.5013 0.0
C1101 C 0.49072 0.47756 0.5033 0.0
C1102 C 0.52857 0.54289 0.51148 0.0
C1103 C 0.5419 0.54817 0.53586 0.0
C1104 C 0.51757 0.52757 0.51252 0.0
C1105 C 0.51961 0.51732 0.5385 0.0
C1106 C 0.53287 0.52269 0.56318 0.0
C1107 C 0.54388 0.53786 0.56171 0.0
H1108 H 0.56056 0.04479 0.50381 0.0
H1109 H 0.54588 0.99793 0.52735 0.0
H1110 H 0.53446 0.03901 0.50624 0.0
H1111 H 0.52005 0.99226 0.53124 0.0
H1112 H 0.47368 0.98403 0.49429 0.0
H1113 H 0.49973 0.98996 0.48834 0.0
H1114 H 0.5141 0.03202 0.5564 0.0
H1115 H 0.48822 0.02631 0.56099 0.0
C1116 C 0.55179 0.03329 0.50967 0.0
C1117 C 0.55533 0.02184 0.51529 0.0
C1118 C 0.53682 0.02996 0.51133 0.0
C1119 C 0.52506 0.01513 0.51892 0.0
C1120 C 0.52869 1.00374 0.52452 0.0
C1121 C 0.54359 1.00704 0.52259 0.0
C1122 C 0.48241 0.99451 0.50809 0.0
C1123 C 0.47884 1.00468 0.52809 0.0
C1124 C 0.49737 0.99792 0.50481 0.0
C1125 C 0.50911 1.01153 0.52177 0.0
C1126 C 0.50546 0.02159 0.54217 0.0
C1127 C 0.49055 0.01823 0.54515 0.0
H1128 H 0.47523 1.00018 0.97814 0.0
H1129 H 0.50517 0.04357 0.03569 0.0
H1130 H 0.49508 0.99395 0.97948 0.0
H1131 H 0.52503 0.03715 0.03829 0.0
H1132 H 0.56144 0.02704 0.99332 0.0
H1133 H 0.54166 0.03335 0.99225 0.0
H1134 H 0.50928 0.98756 0.02803 0.0
H1135 H 0.52914 0.98112 0.02776 0.0
C1136 C 0.48606 1.0084 0.99129 0.0
C1137 C 0.4886 0.0224 1.00677 0.0
C1138 C 0.49744 1.00475 0.9924 0.0
C1139 C 0.51169 0.01497 1.00924 0.0
C1140 C 0.51426 0.02904 0.02457 0.0
C1141 C 0.50286 0.03273 0.02324 0.0
C1142 C 0.5501 0.01828 1.00098 0.0
C1143 C 0.54689 1.00354 1.01057 0.0
C1144 C 0.53874 0.02195 1.00068 0.0
C1145 C 0.52382 1.01102 1.01019 0.0
C1146 C 0.5206 0.99625 0.01993 0.0
C1147 C 0.53199 0.99255 0.02 0.0
H1148 H 0.03565 0.54881 0.11918 0.0
H1149 H 0.03422 0.55026 0.9758 0.0
H1150 H 0.02659 0.52187 0.11626 0.0
H1151 H 0.025 0.52317 0.973 0.0
H1152 H 0.99194 0.47146 0.99575 0.0
H1153 H 1.00109 0.49862 0.99727 0.0
H1154 H 0.03596 0.50484 0.08878 0.0
H1155 H 0.02699 0.47797 0.08707 0.0
C1156 C 0.03354 0.54341 0.08699 0.0
C1157 C 0.03575 0.55173 0.04773 0.0
C1158 C 0.02833 0.52796 0.08534 0.0
C1159 C 0.02498 0.52036 0.04441 0.0
C1160 C 0.02732 0.52868 1.00505 0.0
C1161 C 0.03277 0.54422 1.00666 0.0
C1162 C 1.00149 0.47864 0.01636 0.0
C1163 C 1.00872 0.47254 0.04129 0.0
C1164 C 1.0068 0.49419 0.01695 0.0
C1165 C 0.01927 0.50387 0.0431 0.0
C1166 C 0.02629 0.49769 0.06853 0.0
C1167 C 0.02115 0.48227 0.06741 0.0
H1168 H 0.48865 0.46699 0.98295 0.0
H1169 H 0.47214 0.49684 0.01837 0.0
H1170 H 0.51426 0.48798 0.98436 0.0
H1171 H 0.49787 0.51786 0.0209 0.0
H1172 H 0.54394 0.55455 0.97444 0.0
H1173 H 0.5185 0.53337 0.97284 0.0
H1174 H 0.5337 0.5052 0.03337 0.0
H1175 H 0.55939 0.52647 0.03401 0.0
C1176 C 0.49048 0.47803 0.99126 0.0
C1177 C 0.47829 0.48022 1.00043 0.0
C1178 C 0.50522 0.49008 0.99239 0.0
C1179 C 0.50821 0.50466 1.0028 0.0
C1180 C 0.49601 0.50684 1.01213 0.0
C1181 C 0.48123 0.49477 1.01088 0.0
C1182 C 0.54191 0.54384 0.98734 0.0
C1183 C 0.55375 0.54224 1.00439 0.0
C1184 C 0.52725 0.53169 0.98673 0.0
C1185 C 0.52395 0.51756 1.00328 0.0
C1186 C 0.53582 0.51588 0.01994 0.0
C1187 C 0.55055 0.52808 0.02045 0.0
H1188 H 0.46027 0.07941 0.09411 0.0
H1189 H 0.42761 0.07081 0.9918 0.0
H1190 H 0.45234 0.09514 0.13354 0.0
H1191 H 0.41977 0.08652 0.03088 0.0
H1192 H 0.41207 0.12068 0.09955 0.0
H1193 H 0.42705 0.11234 0.05819 0.0
H1194 H 0.42819 0.08796 0.17378 0.0
H1195 H 0.41322 0.09624 0.21504 0.0
C1196 C 0.4517 0.08121 0.07941 0.0
C1197 C 0.44451 0.07382 0.03992 0.0
C1198 C 0.44708 0.09012 0.10217 0.0
C1199 C 0.43537 0.09203 0.08548 0.0
C1200 C 0.42891 0.08542 0.04449 0.0
C1201 C 0.43335 0.07635 0.02216 0.0
C1202 C 0.41586 0.11388 0.11652 0.0
C1203 C 0.41135 0.10904 0.16055 0.0
C1204 C 0.42435 0.10901 0.09269 0.0
C1205 C 0.42872 0.09939 0.11256 0.0
C1206 C 0.42512 0.09545 0.15755 0.0
C1207 C 0.41647 0.10015 0.18117 0.0
H1208 H 0.90758 0.29672 0.09244 0.0
H1209 H 0.92779 0.32214 0.21182 0.0
H1210 H 0.91591 0.32014 0.05138 0.0
H1211 H 0.93626 0.34547 0.17078 0.0
H1212 H 0.94628 0.38644 0.09175 0.0
H1213 H 0.9304 0.36239 0.12932 0.0
H1214 H 0.94067 0.33955 0.0266 0.0
H1215 H 0.95629 0.36342 0.98904 0.0
C1216 C 0.9135 0.30727 0.1102 0.0
C1217 C 0.91713 0.30753 0.15541 0.0
C1218 C 0.91838 0.32072 0.08655 0.0
C1219 C 0.9269 0.33473 0.10759 0.0
C1220 C 0.92963 0.33492 0.15348 0.0
C1221 C 0.92484 0.32151 0.17703 0.0
C1222 C 0.94481 0.37623 0.0766 0.0
C1223 C 0.95264 0.37687 0.03752 0.0
C1224 C 0.93582 0.36245 0.09835 0.0
C1225 C 0.93434 0.34901 0.08127 0.0
C1226 C 0.9414 0.3496 0.04062 0.0
C1227 C 0.95046 0.36334 0.01913 0.0
H1228 H 0.70557 0.63392 0.21033 0.0
H1229 H 0.72245 0.61315 0.12014 0.0
H1230 H 0.68005 0.61644 0.18666 0.0
H1231 H 0.69668 0.5956 0.09589 0.0
H1232 H 0.65059 0.58612 0.02679 0.0
H1233 H 0.67657 0.59879 0.05301 0.0
H1234 H 0.66084 0.58876 0.18867 0.0
H1235 H 0.63501 0.57609 0.16282 0.0
C1236 C 0.7038 0.62546 0.18585 0.0
C1237 C 0.71602 0.62489 0.16722 0.0
C1238 C 0.68915 0.6154 0.17238 0.0
C1239 C 0.68633 0.60462 0.1394 0.0
C1240 C 0.69852 0.60382 0.12127 0.0
C1241 C 0.71323 0.61376 0.13541 0.0
C1242 C 0.65267 0.58635 0.06214 0.0
C1243 C 0.64067 0.5802 0.09266 0.0
C1244 C 0.66757 0.59357 0.07714 0.0
C1245 C 0.67075 0.59491 0.12294 0.0
C1246 C 0.65875 0.58807 0.15321 0.0
C1247 C 0.64392 0.58075 0.13829 0.0
H1248 H 0.0497 0.40873 0.45398 0.0
H1249 H 0.08737 0.45065 0.49824 0.0
H1250 H 0.06665 0.40233 0.41677 0.0
H1251 H 0.10458 0.44389 0.46108 0.0
H1252 H 0.12191 0.4068 0.43483 0.0
H1253 H 0.10985 0.41958 0.46999 0.0
H1254 H 0.08576 0.41526 0.34872 0.0
H1255 H 0.0978 0.40271 0.31336 0.0
C1256 C 0.06164 0.41658 0.45608 0.0
C1257 C 0.06717 0.43022 0.47921 0.0
C1258 C 0.07134 0.41292 0.43441 0.0
C1259 C 0.08689 0.42267 0.43571 0.0
C1260 C 0.0926 0.43621 0.45952 0.0
C1261 C 0.08278 0.44007 0.48068 0.0
C1262 C 0.11439 0.40898 0.41522 0.0
C1263 C 0.11066 0.40351 0.37142 0.0
C1264 C 0.10752 0.41633 0.43539 0.0
C1265 C 0.09677 0.41824 0.41218 0.0
C1266 C 0.09393 0.41381 0.36744 0.0
C1267 C 0.10085 0.40662 0.34722 0.0
H1268 H 0.62044 0.69705 0.33057 0.0
H1269 H 0.61905 0.72301 0.44145 0.0
H1270 H 0.60413 0.67393 0.37063 0.0
H1271 H 0.60239 0.69975 0.4814 0.0
H1272 H 0.59573 0.6571 0.55797 0.0
H1273 H 0.60589 0.68071 0.51741 0.0
H1274 H 0.57991 0.65688 0.4022 0.0
H1275 H 0.56996 0.63314 0.44261 0.0
C1276 C 0.61637 0.69783 0.36314 0.0
C1277 C 0.62119 0.71192 0.38287 0.0
C1278 C 0.60691 0.68452 0.3861 0.0
C1279 C 0.60199 0.68491 0.42952 0.0
C1280 C 0.60613 0.69901 0.4483 0.0
C1281 C 0.61558 0.71236 0.42521 0.0
C1282 C 0.59193 0.65689 0.52428 0.0
C1283 C 0.58213 0.64316 0.50349 0.0
C1284 C 0.59772 0.67049 0.501 0.0
C1285 C 0.59388 0.67075 0.45625 0.0
C1286 C 0.58333 0.6571 0.43636 0.0
C1287 C 0.57751 0.64348 0.45969 0.0
H1288 H 0.30443 0.90791 0.43781 0.0
H1289 H 0.33063 0.93007 0.32069 0.0
H1290 H 0.32751 0.9166 0.48037 0.0
H1291 H 0.35363 0.93871 0.36319 0.0
H1292 H 0.36965 0.95858 0.54369 0.0
H1293 H 0.34622 0.94263 0.50476 0.0
H1294 H 0.37013 0.93188 0.40694 0.0
H1295 H 0.39368 0.94788 0.44617 0.0
C1296 C 0.31509 0.9143 0.42083 0.0
C1297 C 0.31567 0.9184 0.37589 0.0
C1298 C 0.32832 0.91936 0.44532 0.0
C1299 C 0.34241 0.92845 0.42529 0.0
C1300 C 0.34298 0.93164 0.3796 0.0
C1301 C 0.32977 0.92674 0.35526 0.0
C1302 C 0.36988 0.95255 0.51446 0.0
C1303 C 0.38353 0.95456 0.49793 0.0
C1304 C 0.35642 0.94333 0.49223 0.0
C1305 C 0.35631 0.93604 0.45258 0.0
C1306 C 0.36987 0.93744 0.43724 0.0
C1307 C 0.38334 0.94651 0.45989 0.0
H1308 H 0.57451 0.94661 0.93713 0.0
H1309 H 0.60326 0.94999 0.04616 0.0
H1310 H 0.58322 0.9321 0.89483 0.0
H1311 H 0.61183 0.93539 1.00407 0.0
H1312 H 0.62001 0.90277 0.92512 0.0
H1313 H 0.60454 0.91037 0.96735 0.0
H1314 H 0.60891 0.94071 0.86136 0.0
H1315 H 0.62443 0.93325 0.81946 0.0
C1316 C 0.58237 0.94391 0.95259 0.0
C1317 C 0.58827 0.94955 0.99495 0.0
C1318 C 0.58743 0.93568 0.92821 0.0
C1319 C 0.59829 0.93268 0.94597 0.0
C1320 C 0.60338 0.93741 0.98954 0.0
C1321 C 0.59851 0.94583 1.01361 0.0
C1322 C 0.61735 0.91078 0.91037 0.0
C1323 C 0.62351 0.91746 0.869 0.0
C1324 C 0.60858 0.91521 0.93471 0.0
C1325 C 0.60556 0.92619 0.9178 0.0
C1326 C 0.61092 0.93213 0.87518 0.0
C1327 C 0.61987 0.9279 0.85123 0.0
H1328 H 0.12445 0.72345 0.9732 0.0
H1329 H 0.1096 0.71101 0.83766 0.0
H1330 H 0.11124 0.69692 0.99465 0.0
H1331 H 0.09641 0.68453 0.85927 0.0
H1332 H 0.05544 0.64623 0.93387 0.0
H1333 H 0.0733 0.67125 0.90731 0.0
H1334 H 0.10829 0.67054 0.98419 0.0
H1335 H 0.0902 0.64504 1.01079 0.0
C1336 C 0.11866 0.71506 0.94774 0.0
C1337 C 0.11794 0.7194 0.90378 0.0
C1338 C 0.11114 0.69984 0.96007 0.0
C1339 C 0.10263 0.68864 0.92879 0.0
C1340 C 0.10273 0.69292 0.88425 0.0
C1341 C 0.11036 0.70811 0.87183 0.0
C1342 C 0.06695 0.65131 0.94508 0.0
C1343 C 0.07137 0.64366 0.97472 0.0
C1344 C 0.07724 0.66564 0.92944 0.0
C1345 C 0.09224 0.67287 0.94337 0.0
C1346 C 0.09679 0.66524 0.97285 0.0
C1347 C 0.08647 0.65066 0.98799 0.0
H1348 H 0.36923 0.42929 0.036 0.0
H1349 H 0.39518 0.45136 0.91842 0.0
H1350 H 0.34615 0.42077 0.99408 0.0
H1351 H 0.37203 0.44288 0.87651 0.0
H1352 H 0.32955 0.40207 0.81198 0.0
H1353 H 0.35308 0.41755 0.85083 0.0
H1354 H 0.32955 0.42746 0.95216 0.0
H1355 H 0.30589 0.41188 0.91317 0.0
C1356 C 0.37002 0.43262 1.00146 0.0
C1357 C 0.38408 0.44091 0.98055 0.0
C1358 C 0.35676 0.42779 0.97744 0.0
C1359 C 0.35723 0.43103 0.9318 0.0
C1360 C 0.37129 0.44005 0.91149 0.0
C1361 C 0.38456 0.445 0.93564 0.0
C1362 C 0.32942 0.40781 0.84202 0.0
C1363 C 0.31581 0.40563 0.8596 0.0
C1364 C 0.34295 0.41676 0.86423 0.0
C1365 C 0.34321 0.42367 0.90484 0.0
C1366 C 0.32971 0.42217 0.9212 0.0
C1367 C 0.31617 0.41333 0.89866 0.0
H1368 H 0.90898 0.61553 0.55901 0.0
H1369 H 0.92594 0.61968 0.69265 0.0
H1370 H 0.92235 0.60255 0.5366 0.0
H1371 H 0.93928 0.60671 0.67008 0.0
H1372 H 0.97967 0.61012 0.59082 0.0
H1373 H 0.96172 0.61683 0.619 0.0
H1374 H 0.92621 0.57968 0.54759 0.0
H1375 H 0.9444 0.57274 0.51933 0.0
C1376 C 0.91526 0.61337 0.58389 0.0
C1377 C 0.91655 0.61886 0.62752 0.0
C1378 C 0.92287 0.60586 0.57102 0.0
C1379 C 0.93203 0.60379 0.60141 0.0
C1380 C 0.93246 0.60832 0.64577 0.0
C1381 C 0.92475 0.6157 0.65875 0.0
C1382 C 0.96803 0.60329 0.58112 0.0
C1383 C 0.96348 0.59095 0.55254 0.0
C1384 C 0.9577 0.60707 0.59772 0.0
C1385 C 0.94252 0.59873 0.58583 0.0
C1386 C 0.93785 0.5863 0.55735 0.0
C1387 C 0.94823 0.58232 0.54125 0.0
H1388 H 0.45126 0.38641 0.58809 0.0
H1389 H 0.4272 0.36502 0.46786 0.0
H1390 H 0.44403 0.36171 0.61978 0.0
H1391 H 0.41985 0.34051 0.49949 0.0
H1392 H 0.41467 0.2979 0.55313 0.0
H1393 H 0.42811 0.32344 0.52379 0.0
H1394 H 0.42077 0.34015 0.64743 0.0
H1395 H 0.40754 0.31459 0.67716 0.0
C1396 C 0.44466 0.37648 0.56811 0.0
C1397 C 0.43978 0.37771 0.52544 0.0
C1398 C 0.44041 0.36231 0.58643 0.0
C1399 C 0.4313 0.34907 0.56232 0.0
C1400 C 0.42702 0.35041 0.51892 0.0
C1401 C 0.43117 0.36451 0.5008 0.0
C1402 C 0.41615 0.30703 0.57444 0.0
C1403 C 0.40986 0.30413 0.61738 0.0
C1404 C 0.42379 0.3217 0.55746 0.0
C1405 C 0.42534 0.33387 0.58292 0.0
C1406 C 0.41988 0.33109 0.62691 0.0
C1407 C 0.41223 0.31639 0.64395 0.0
H1408 H 0.65285 0.07238 0.50135 0.0
H1409 H 0.64213 0.08547 0.62651 0.0
H1410 H 0.67914 0.08448 0.52298 0.0
H1411 H 0.6685 0.09754 0.64806 0.0
H1412 H 0.72081 0.12396 0.66094 0.0
H1413 H 0.69608 0.11776 0.63124 0.0
H1414 H 0.68994 0.07554 0.58254 0.0
H1415 H 0.71417 0.08154 0.61205 0.0
C1416 C 0.65612 0.07812 0.53304 0.0
C1417 C 0.6453 0.07772 0.56245 0.0
C1418 C 0.6712 0.085 0.54551 0.0
C1419 C 0.67585 0.09175 0.58753 0.0
C1420 C 0.66527 0.09246 0.61546 0.0
C1421 C 0.65014 0.08548 0.6031 0.0
C1422 C 0.71415 0.11341 0.64372 0.0
C1423 C 0.71942 0.10322 0.63911 0.0
C1424 C 0.70003 0.10986 0.62679 0.0
C1425 C 0.69113 0.09622 0.60413 0.0
C1426 C 0.69659 0.08623 0.5991 0.0
C1427 C 0.71046 0.08963 0.61651 0.0
H1428 H 0.7491 0.76189 0.88065 0.0
H1429 H 0.74798 0.78739 0.76788 0.0
H1430 H 0.76401 0.75395 0.83774 0.0
H1431 H 0.76297 0.77944 0.72489 0.0
H1432 H 0.76393 0.73903 0.65325 0.0
H1433 H 0.7561 0.75434 0.69443 0.0
H1434 H 0.78794 0.76114 0.79773 0.0
H1435 H 0.79582 0.74574 0.75627 0.0
C1436 C 0.75233 0.76609 0.84701 0.0
C1437 C 0.74722 0.77518 0.82763 0.0
C1438 C 0.76096 0.76159 0.82245 0.0
C1439 C 0.76459 0.76596 0.77773 0.0
C1440 C 0.76023 0.77576 0.75913 0.0
C1441 C 0.75172 0.7804 0.78388 0.0
C1442 C 0.76953 0.74408 0.68424 0.0
C1443 C 0.78044 0.7411 0.70157 0.0
C1444 C 0.76508 0.75293 0.70779 0.0
C1445 C 0.77131 0.75889 0.74957 0.0
C1446 C 0.78283 0.7566 0.76581 0.0
C1447 C 0.78743 0.74788 0.74189 0.0
H1448 H 0.23974 0.96598 0.75827 0.0
H1449 H 0.26126 0.99163 0.87624 0.0
H1450 H 0.24827 0.98933 0.71664 0.0
H1451 H 0.26994 0.01488 0.83463 0.0
H1452 H 0.2804 0.05583 0.75512 0.0
H1453 H 0.2644 0.03204 0.79372 0.0
H1454 H 0.27296 1.00823 0.69004 0.0
H1455 H 0.2887 0.03185 0.65138 0.0
C1456 C 0.24599 0.97657 0.77562 0.0
C1457 C 0.24992 0.9769 0.82057 0.0
C1458 C 0.251 0.98998 0.75163 0.0
C1459 C 0.25995 1.00403 0.77207 0.0
C1460 C 0.26298 1.00431 0.81777 0.0
C1461 C 0.25806 0.99094 0.84166 0.0
C1462 C 0.27855 0.04547 0.74002 0.0
C1463 C 0.28593 0.04577 0.70029 0.0
C1464 C 0.26948 0.03184 0.76235 0.0
C1465 C 0.26748 0.0182 0.74527 0.0
C1466 C 0.2741 0.01845 0.70407 0.0
C1467 C 0.28322 0.03205 0.68197 0.0
H1468 H 0.03657 0.28236 0.88637 0.0
H1469 H 0.06254 0.28114 0.77519 0.0
H1470 H 1.0136 0.26753 0.84449 0.0
H1471 H 0.03943 0.26607 0.73327 0.0
H1472 H 0.97287 0.23673 0.76664 0.0
H1473 H 0.99589 0.24398 0.8081 0.0
H1474 H 0.02201 0.27279 0.69937 0.0
H1475 H 0.99913 0.26544 0.65793 0.0
C1476 C 0.03736 0.2786 0.85335 0.0
C1477 C 0.05143 0.28308 0.83402 0.0
C1478 C 0.02414 0.27 0.82935 0.0
C1479 C 0.02464 0.26571 0.78526 0.0
C1480 C 0.03865 0.26935 0.76694 0.0
C1481 C 0.0519 0.27789 0.79112 0.0
C1482 C 0.98355 0.24431 0.75114 0.0
C1483 C 0.98413 0.25062 0.70911 0.0
C1484 C 0.99675 0.24856 0.77506 0.0
C1485 C 1.01083 0.25909 0.75731 0.0
C1486 C 1.01142 0.26457 0.71401 0.0
C1487 C 0.99825 0.26041 0.69029 0.0
H1488 H 0.28303 0.23673 0.25609 0.0
H1489 H 0.28556 0.26127 0.13659 0.0
H1490 H 0.26544 0.24359 0.28844 0.0
H1491 H 0.26815 0.26815 0.16879 0.0
H1492 H 0.23056 0.27255 0.22429 0.0
H1493 H 0.24246 0.25902 0.19456 0.0
H1494 H 0.26779 0.26748 0.31583 0.0
H1495 H 0.25578 0.28091 0.34589 0.0
C1496 C 0.27961 0.24332 0.23637 0.0
C1497 C 0.28575 0.2485 0.19379 0.0
C1498 C 0.26962 0.24735 0.25506 0.0
C1499 C 0.26542 0.25648 0.23133 0.0
C1500 C 0.27099 0.26098 0.18789 0.0
C1501 C 0.28106 0.25709 0.16946 0.0
C1502 C 0.23844 0.27128 0.24507 0.0
C1503 C 0.24234 0.27801 0.28733 0.0
C1504 C 0.24533 0.26358 0.22786 0.0
C1505 C 0.25625 0.26235 0.25249 0.0
C1506 C 0.25938 0.26815 0.29599 0.0
C1507 C 0.25252 0.2759 0.31321 0.0
H1508 H 0.7631 0.9674 0.24547 0.0
H1509 H 0.74121 0.97992 0.34547 0.0
H1510 H 0.77739 0.99364 0.22062 0.0
H1511 H 0.7553 1.00599 0.32007 0.0
H1512 H 0.76425 0.0425 0.21457 0.0
H1513 H 0.75326 0.01704 0.24367 0.0
H1514 H 0.7971 0.02137 0.2494 0.0
H1515 H 0.80833 0.04724 0.22082 0.0
C1516 C 0.76151 0.97576 0.26265 0.0
C1517 C 0.75093 0.97151 0.29733 0.0
C1518 C 0.76972 0.99078 0.24842 0.0
C1519 C 0.76732 1.0018 0.26808 0.0
C1520 C 0.75726 0.99768 0.30401 0.0
C1521 C 0.74926 0.98275 0.31872 0.0
C1522 C 0.77162 0.03807 0.22164 0.0
C1523 C 0.78721 0.04697 0.21525 0.0
C1524 C 0.76529 0.0235 0.23872 0.0
C1525 C 0.77433 0.01728 0.24925 0.0
C1526 C 0.78988 0.02592 0.24164 0.0
C1527 C 0.79628 0.0407 0.22527 0.0
H1528 H 0.06118 0.78987 0.26529 0.0
H1529 H 0.03636 0.76133 0.37599 0.0
H1530 H 0.03769 0.78177 0.22543 0.0
H1531 H 1.01294 0.75329 0.33627 0.0
H1532 H 0.9717 0.74518 0.26258 0.0
H1533 H 0.99521 0.76063 0.30245 0.0
H1534 H 0.01989 0.75664 0.19217 0.0
H1535 H 0.99647 0.7412 0.15252 0.0
C1536 C 0.0507 0.78219 0.28165 0.0
C1537 C 0.05065 0.77617 0.32376 0.0
C1538 C 0.03725 0.77747 0.25864 0.0
C1539 C 0.02345 0.7668 0.27752 0.0
C1540 C 0.02335 0.7616 0.32088 0.0
C1541 C 0.03679 0.76616 0.3436 0.0
C1542 C 0.98217 0.74795 0.24634 0.0
C1543 C 0.98221 0.7419 0.20443 0.0
C1544 C 0.99563 0.75671 0.26935 0.0
C1545 C 1.00942 0.75978 0.25064 0.0
C1546 C 1.0095 0.7546 0.20743 0.0
C1547 C 0.99606 0.74569 0.18474 0.0
H1548 H 0.38182 0.12461 1.00759 0.0
H1549 H 0.34285 0.08579 0.06242 0.0
H1550 H 0.37215 0.11673 0.93312 0.0
H1551 H 0.33329 0.07757 0.98712 0.0
H1552 H 0.31241 0.0819 0.85562 0.0
H1553 H 0.3227 0.0854 0.92982 0.0
H1554 H 0.36642 0.0991 0.87413 0.0
H1555 H 0.35609 0.09603 0.79909 0.0
C1556 C 0.37124 0.11426 1.00376 0.0
C1557 C 0.36303 0.10591 0.04113 0.0
C1558 C 0.36576 0.10964 0.9608 0.0
C1559 C 0.35192 0.0965 0.95386 0.0
C1560 C 0.3439 0.08787 0.9912 0.0
C1561 C 0.34939 0.09253 0.03439 0.0
C1562 C 0.32421 0.08553 0.85901 0.0
C1563 C 0.33347 0.08888 0.8213 0.0
C1564 C 0.3301 0.0874 0.9018 0.0
C1565 C 0.34543 0.09263 0.90821 0.0
C1566 C 0.35459 0.09528 0.87045 0.0
C1567 C 0.34867 0.09342 0.82742 0.0
H1568 H 0.93382 0.24952 0.0659 0.0
H1569 H 0.9389 0.29242 0.02806 0.0
H1570 H 0.9357 0.24412 0.988 0.0
H1571 H 0.94012 0.28678 0.95022 0.0
H1572 H 0.95064 0.27534 0.81164 0.0
H1573 H 0.95269 0.28286 0.88983 0.0
H1574 H 0.91991 0.23719 0.92565 0.0
H1575 H 0.91832 0.22971 0.8486 0.0
C1576 C 0.93549 0.25787 0.04104 0.0
C1577 C 0.93607 0.27133 0.05334 0.0
C1578 C 0.9364 0.25472 0.99621 0.0
C1579 C 0.93772 0.26486 0.96244 0.0
C1580 C 0.93915 0.27869 0.97505 0.0
C1581 C 0.93841 0.28191 0.0199 0.0
C1582 C 0.94382 0.26698 0.83632 0.0
C1583 C 0.93437 0.25193 0.82394 0.0
C1584 C 0.94499 0.27127 0.88118 0.0
C1585 C 0.93666 0.26059 0.91446 0.0
C1586 C 0.92688 0.24566 0.90147 0.0
C1587 C 0.92583 0.24139 0.85701 0.0
H1588 H 0.77357 0.68929 0.05759 0.0
H1589 H 0.75112 0.64422 1.00425 0.0
H1590 H 0.77873 0.69947 0.98206 0.0
H1591 H 0.75668 0.65432 0.92924 0.0
H1592 H 0.76055 0.67677 0.79626 0.0
H1593 H 0.75205 0.66765 0.87189 0.0
H1594 H 0.79511 0.70135 0.92292 0.0
H1595 H 0.80337 0.71067 0.84808 0.0
C1596 C 0.76966 0.68157 0.02981 0.0
C1597 C 0.76205 0.66596 0.03698 0.0
C1598 C 0.77269 0.68738 0.98651 0.0
C1599 C 0.76825 0.67772 0.94948 0.0
C1600 C 0.76014 0.66212 0.95681 0.0
C1601 C 0.75705 0.65632 0.99999 0.0
C1602 C 0.76815 0.68224 0.82371 0.0
C1603 C 0.78264 0.69441 0.81611 0.0
C1604 C 0.7633 0.677 0.86704 0.0
C1605 C 0.77288 0.68379 0.9036 0.0
C1606 C 0.78731 0.69603 0.8958 0.0
C1607 C 0.79211 0.70129 0.85268 0.0
H1608 H 0.08354 0.34084 0.73169 0.0
H1609 H 0.1142 0.32596 0.69091 0.0
H1610 H 0.08073 0.34612 0.65389 0.0
H1611 H 0.11189 0.33167 0.61418 0.0
H1612 H 0.09728 0.33082 0.47558 0.0
H1613 H 0.09546 0.32323 0.55322 0.0
H1614 H 0.09322 0.36247 0.59313 0.0
H1615 H 0.09433 0.36964 0.51559 0.0
C1616 C 0.08982 0.33889 0.70622 0.0
C1617 C 0.09905 0.33294 0.71744 0.0
C1618 C 0.08821 0.34189 0.6616 0.0
C1619 C 0.0959 0.33911 0.6274 0.0
C1620 C 0.10541 0.33353 0.63915 0.0
C1621 C 0.10688 0.33041 0.68341 0.0
C1622 C 0.09608 0.33765 0.50086 0.0
C1623 C 0.09612 0.35091 0.48929 0.0
C1624 C 0.0952 0.3334 0.54552 0.0
C1625 C 0.09455 0.34242 0.57976 0.0
C1626 C 0.09366 0.35519 0.56789 0.0
C1627 C 0.09435 0.35934 0.52322 0.0
H1628 H 0.70128 0.79407 0.69138 0.0
H1629 H 0.68719 0.74881 0.73473 0.0
H1630 H 0.69468 0.78542 0.61552 0.0
H1631 H 0.68091 0.74007 0.65769 0.0
H1632 H 0.65648 0.7292 0.52082 0.0
H1633 H 0.66397 0.73584 0.59786 0.0
H1634 H 0.70295 0.777 0.55445 0.0
H1635 H 0.69511 0.77062 0.47732 0.0
C1636 C 0.69677 0.78221 0.68465 0.0
C1637 C 0.6948 0.77213 0.71916 0.0
C1638 C 0.69314 0.77727 0.64087 0.0
C1639 C 0.68753 0.76208 0.63001 0.0
C1640 C 0.68517 0.75185 0.66473 0.0
C1641 C 0.68873 0.75683 0.70892 0.0
C1642 C 0.66678 0.73959 0.52758 0.0
C1643 C 0.67509 0.74948 0.49275 0.0
C1644 C 0.6711 0.74337 0.57195 0.0
C1645 C 0.68392 0.7571 0.58269 0.0
C1646 C 0.69277 0.76652 0.54762 0.0
C1647 C 0.68837 0.7628 0.50325 0.0
H1648 H 0.26437 0.91778 0.72876 0.0
H1649 H 0.27042 0.96104 0.69062 0.0
H1650 H 0.26576 0.91208 0.65082 0.0
H1651 H 0.2712 0.95513 0.61274 0.0
H1652 H 0.28143 0.94301 0.47437 0.0
H1653 H 0.28354 0.95072 0.55238 0.0
H1654 H 0.24982 0.90544 0.58859 0.0
H1655 H 0.24814 0.89777 0.51167 0.0
C1656 C 0.26615 0.92614 0.70383 0.0
C1657 C 0.26716 0.9398 0.71608 0.0
C1658 C 0.26678 0.92282 0.65898 0.0
C1659 C 0.26828 0.93301 0.62513 0.0
C1660 C 0.2701 0.94701 0.63765 0.0
C1661 C 0.26961 0.95038 0.68251 0.0
C1662 C 0.27439 0.93479 0.49907 0.0
C1663 C 0.26467 0.91977 0.48685 0.0
C1664 C 0.27561 0.93918 0.54383 0.0
C1665 C 0.26705 0.92865 0.57719 0.0
C1666 C 0.25696 0.91378 0.56434 0.0
C1667 C 0.25586 0.9094 0.51996 0.0
H1668 H 0.70051 0.90246 0.18893 0.0
H1669 H 0.69116 0.93851 0.21132 0.0
H1670 H 0.69145 0.89988 0.11301 0.0
H1671 H 0.68216 0.93596 0.13427 0.0
H1672 H 0.685 0.934 0.97362 0.0
H1673 H 0.69405 0.93863 0.05092 0.0
H1674 H 0.66488 0.89167 0.08156 0.0
H1675 H 0.6558 0.88705 1.00551 0.0
C1676 C 0.69653 0.90986 0.17761 0.0
C1677 C 0.69648 0.92065 0.20618 0.0
C1678 C 0.69133 0.90836 0.13413 0.0
C1679 C 0.68613 0.91773 0.11786 0.0
C1680 C 0.68621 0.92867 0.14606 0.0
C1681 C 0.69122 0.93003 0.19011 0.0
C1682 C 0.68053 0.92471 0.99699 0.0
C1683 C 0.66974 0.91016 0.9834 0.0
C1684 C 0.68561 0.92738 0.04116 0.0
C1685 C 0.68016 0.91548 0.07201 0.0
C1686 C 0.66933 0.90101 0.05837 0.0
C1687 C 0.66412 0.8984 1.01475 0.0
H1688 H 0.10519 0.7645 0.20634 0.0
H1689 H 0.08752 0.79367 0.17464 0.0
H1690 H 0.10732 0.76078 0.12653 0.0
H1691 H 0.08934 0.78976 0.09595 0.0
H1692 H 0.11431 0.79686 0.96472 0.0
H1693 H 0.10958 0.79791 0.04346 0.0
H1694 H 0.09365 0.75037 0.05601 0.0
H1695 H 0.09866 0.74935 0.9769 0.0
C1696 C 0.10157 0.76993 0.18246 0.0
C1697 C 0.0964 0.77954 0.19686 0.0
C1698 C 0.10274 0.76777 0.13676 0.0
C1699 C 0.09872 0.77517 0.10475 0.0
C1700 C 0.0929 0.78419 0.11951 0.0
C1701 C 0.0918 0.78638 0.1648 0.0
C1702 C 0.10964 0.78657 0.98402 0.0
C1703 C 0.10682 0.77302 0.9643 0.0
C1704 C 0.10688 0.78716 0.0293 0.0
C1705 C 0.10121 0.77421 0.05621 0.0
C1706 C 0.09815 0.76058 0.03639 0.0
C1707 C 0.10088 0.75998 0.99092 0.0
H1708 H 0.2738 0.34365 0.22166 0.0
H1709 H 0.22765 0.32395 0.17974 0.0
H1710 H 0.28204 0.35158 0.14496 0.0
H1711 H 0.23585 0.33198 0.10389 0.0
H1712 H 0.25348 0.33697 0.96462 0.0
H1713 H 0.24757 0.32703 0.04045 0.0
H1714 H 0.28236 0.36965 0.09102 0.0
H1715 H 0.28844 0.37946 1.01557 0.0
C1716 C 0.26543 0.34106 0.19621 0.0
C1717 C 0.25008 0.33321 0.2069 0.0
C1718 C 0.27014 0.34559 0.1523 0.0
C1719 C 0.25959 0.3423 0.11822 0.0
C1720 C 0.24426 0.33444 0.12908 0.0
C1721 C 0.23958 0.32997 0.17279 0.0
C1722 C 0.26002 0.34412 0.99187 0.0
C1723 C 0.27132 0.35905 0.98408 0.0
C1724 C 0.25658 0.33847 0.03534 0.0
C1725 C 0.2644 0.34761 0.07183 0.0
C1726 C 0.27619 0.36228 0.06373 0.0
C1727 C 0.2796 0.36793 0.0204 0.0
H1728 H 0.93647 0.66902 0.55145 0.0
H1729 H 0.91998 0.70011 0.56485 0.0
H1730 H 0.94107 0.6751 0.47234 0.0
H1731 H 0.92427 0.70591 0.48597 0.0
H1732 H 0.94518 0.72358 0.3531 0.0
H1733 H 0.94392 0.71822 0.43202 0.0
H1734 H 0.92692 0.67123 0.40326 0.0
H1735 H 0.92854 0.67673 0.32337 0.0
C1736 C 0.93396 0.67726 0.53766 0.0
C1737 C 0.9279 0.68412 0.56459 0.0
C1738 C 0.93646 0.68062 0.49221 0.0
C1739 C 0.93301 0.69096 0.4727 0.0
C1740 C 0.92726 0.69805 0.49992 0.0
C1741 C 0.92476 0.69469 0.54525 0.0
C1742 C 0.94122 0.71209 0.36343 0.0
C1743 C 0.93677 0.70053 0.33191 0.0
C1744 C 0.94045 0.70901 0.40882 0.0
C1745 C 0.9351 0.69427 0.42411 0.0
C1746 C 0.93117 0.68274 0.3926 0.0
C1747 C 0.93203 0.68586 0.34686 0.0
H1748 H 0.35829 0.23362 0.52636 0.0
H1749 H 0.35508 0.27355 0.54664 0.0
H1750 H 0.3561 0.23566 0.4467 0.0
H1751 H 0.35291 0.27562 0.46594 0.0
H1752 H 0.33339 0.26176 0.32012 0.0
H1753 H 0.3362 0.26261 0.40088 0.0
H1754 H 0.37201 0.25258 0.38724 0.0
H1755 H 0.36911 0.25153 0.30672 0.0
C1756 C 0.35702 0.24281 0.51386 0.0
C1757 C 0.35694 0.25347 0.543 0.0
C1758 C 0.3559 0.24405 0.46801 0.0
C1759 C 0.35465 0.25598 0.44981 0.0
C1760 C 0.35391 0.26632 0.47893 0.0
C1761 C 0.3551 0.26511 0.52514 0.0
C1762 C 0.34204 0.25998 0.33427 0.0
C1763 C 0.35091 0.2564 0.30683 0.0
C1764 C 0.34365 0.2605 0.38062 0.0
C1765 C 0.35414 0.25739 0.40057 0.0
C1766 C 0.36359 0.25469 0.37297 0.0
C1767 C 0.36201 0.25422 0.32672 0.0
H1768 H 0.77201 0.11721 0.53435 0.0
H1769 H 0.75757 0.07044 0.55906 0.0
H1770 H 0.77405 0.11356 0.45531 0.0
H1771 H 0.75953 0.06678 0.47945 0.0
H1772 H 0.78599 0.07372 0.34763 0.0
H1773 H 0.78004 0.07496 0.42513 0.0
H1774 H 0.75916 0.10083 0.38805 0.0
H1775 H 0.76529 0.09968 0.30969 0.0
C1776 C 0.76922 0.10611 0.52296 0.0
C1777 C 0.76473 0.09413 0.55327 0.0
C1778 C 0.77024 0.104 0.47745 0.0
C1779 C 0.7669 0.08987 0.46095 0.0
C1780 C 0.76228 0.07784 0.49113 0.0
C1781 C 0.76115 0.07993 0.53676 0.0
C1782 C 0.78 0.07957 0.35581 0.0
C1783 C 0.77621 0.08671 0.32249 0.0
C1784 C 0.77648 0.08017 0.40033 0.0
C1785 C 0.76917 0.08803 0.4129 0.0
C1786 C 0.76494 0.0948 0.37945 0.0
C1787 C 0.76834 0.09407 0.33459 0.0
H1788 H 0.0195 0.42554 0.142 0.0
H1789 H 0.9771 0.41706 0.19652 0.0
H1790 H 0.02951 0.42852 0.21728 0.0
H1791 H 0.98717 0.42043 0.27114 0.0
H1792 H 1.00622 0.41883 0.40447 0.0
H1793 H 0.99615 0.4109 0.32954 0.0
H1794 H 0.0369 0.44743 0.27399 0.0
H1795 H 0.04703 0.45506 0.34819 0.0
C1796 C 1.01229 0.4242 0.16999 0.0
C1797 C 0.99756 0.42122 0.16324 0.0
C1798 C 0.01803 0.42598 0.2131 0.0
C1799 C 1.00917 0.42483 0.25029 0.0
C1800 C 0.99426 0.42123 0.24343 0.0
C1801 C 0.98853 0.41943 0.20047 0.0
C1802 C 1.01304 0.42507 0.37618 0.0
C1803 C 0.02737 0.43763 0.38232 0.0
C1804 C 1.00727 0.42056 0.33327 0.0
C1805 C 1.01572 0.42854 0.2957 0.0
C1806 C 0.03018 0.44087 0.30201 0.0
C1807 C 0.03593 0.44534 0.34473 0.0
H1808 H 0.57061 0.56372 0.1819 0.0
H1809 H 0.60998 0.60619 0.14997 0.0
H1810 H 0.57285 0.571 0.25951 0.0
H1811 H 0.61239 0.61343 0.22838 0.0
H1812 H 0.60057 0.62565 0.36648 0.0
H1813 H 0.60066 0.61994 0.28795 0.0
H1814 H 0.58888 0.57446 0.32211 0.0
H1815 H 0.58841 0.58005 0.40067 0.0
C1816 C 0.57973 0.57467 0.19141 0.0
C1817 C 0.59014 0.58435 0.15967 0.0
C1818 C 0.58111 0.57878 0.23611 0.0
C1819 C 0.59296 0.59268 0.25045 0.0
C1820 C 0.60311 0.60263 0.21849 0.0
C1821 C 0.60171 0.5985 0.17354 0.0
C1822 C 0.59823 0.61449 0.35737 0.0
C1823 C 0.59433 0.60327 0.38997 0.0
C1824 C 0.5983 0.61123 0.31222 0.0
C1825 C 0.59452 0.59667 0.29857 0.0
C1826 C 0.59148 0.5857 0.33137 0.0
C1827 C 0.59137 0.58895 0.37649 0.0
H1828 H 0.42781 0.97868 0.34589 0.0
H1829 H 0.43567 0.02104 0.39934 0.0
H1830 H 0.43145 0.9888 0.27107 0.0
H1831 H 0.43895 0.03112 0.32382 0.0
H1832 H 0.46484 0.04876 0.19148 0.0
H1833 H 0.45767 0.03872 0.2662 0.0
H1834 H 0.42151 0.99741 0.21286 0.0
H1835 H 0.42898 1.00739 0.13745 0.0
C1836 C 0.43015 0.99013 0.34167 0.0
C1837 C 0.4316 0.99911 0.37868 0.0
C1838 C 0.4321 0.99589 0.29859 0.0
C1839 C 0.43552 1.01078 0.29133 0.0
C1840 C 0.43652 0.01965 0.32829 0.0
C1841 C 0.43458 0.01387 0.37155 0.0
C1842 C 0.45529 0.03756 0.19555 0.0
C1843 C 0.44756 0.02882 0.15841 0.0
C1844 C 0.45109 0.03185 0.23856 0.0
C1845 C 0.43901 0.01725 0.24564 0.0
C1846 C 0.43099 1.00863 0.20854 0.0
C1847 C 0.43523 0.01436 0.16535 0.0
H1848 H 0.58199 0.97516 0.84221 0.0
H1849 H 0.59957 0.01974 0.8967 0.0
H1850 H 0.58695 0.98554 0.76733 0.0
H1851 H 0.60476 0.03021 0.82131 0.0
H1852 H 0.58818 0.03759 0.68555 0.0
H1853 H 0.58814 0.02893 0.76072 0.0
H1854 H 0.60609 1.00155 0.71226 0.0
H1855 H 0.606 1.01016 0.6363 0.0
C1856 C 0.58714 0.98723 0.83821 0.0
C1857 C 0.59022 0.99663 0.87537 0.0
C1858 C 0.59009 0.99319 0.79522 0.0
C1859 C 0.59613 1.00868 0.78833 0.0
C1860 C 0.59991 0.01818 0.82558 0.0
C1861 C 0.59704 0.01222 0.86873 0.0
C1862 C 0.59216 0.02974 0.69075 0.0
C1863 C 0.59699 0.02448 0.6548 0.0
C1864 C 0.59229 0.02491 0.73403 0.0
C1865 C 0.59721 0.01463 0.74255 0.0
C1866 C 0.60217 1.00943 0.7067 0.0
C1867 C 0.60212 0.01435 0.66324 0.0
H1868 H 0.02577 0.58865 0.63351 0.0
H1869 H 0.98267 0.57987 0.68224 0.0
H1870 H 0.03564 0.59419 0.70904 0.0
H1871 H 0.99263 0.58614 0.75728 0.0
H1872 H 1.00943 0.57979 0.89169 0.0
H1873 H 0.99967 0.57623 0.81617 0.0
H1874 H 0.04319 0.61073 0.76908 0.0
H1875 H 0.05302 0.61365 0.8441 0.0
C1876 C 0.01851 0.5882 0.6603 0.0
C1877 C 1.00345 0.58371 0.65212 0.0
C1878 C 0.02415 0.59144 0.70366 0.0
C1879 C 1.01491 0.59052 0.73962 0.0
C1880 C 0.99999 0.5866 0.73082 0.0
C1881 C 0.9943 0.58312 0.68769 0.0
C1882 C 0.01684 0.58666 0.86516 0.0
C1883 C 0.03199 0.59689 0.87367 0.0
C1884 C 1.01125 0.5847 0.82181 0.0
C1885 C 0.02065 0.59313 0.78617 0.0
C1886 C 0.03569 0.60377 0.79528 0.0
C1887 C 0.04131 0.60552 0.83841 0.0
H1888 H 0.41063 0.39189 0.65515 0.0
H1889 H 0.43996 0.43998 0.64568 0.0
H1890 H 0.40815 0.39415 0.73515 0.0
H1891 H 0.43745 0.4422 0.7257 0.0
H1892 H 0.4443 0.43796 0.87452 0.0
H1893 H 0.44578 0.43467 0.7946 0.0
H1894 H 0.39787 0.40479 0.79051 0.0
H1895 H 0.39635 0.40805 0.87041 0.0
C1896 C 0.41639 0.40297 0.67 0.0
C1897 C 0.4255 0.41575 0.64391 0.0
C1898 C 0.41496 0.40425 0.71589 0.0
C1899 C 0.42275 0.41832 0.7369 0.0
C1900 C 0.4315 0.43116 0.71063 0.0
C1901 C 0.4328 0.42991 0.66466 0.0
C1902 C 0.4341 0.43051 0.85676 0.0
C1903 C 0.4202 0.42328 0.87898 0.0
C1904 C 0.43494 0.42876 0.81084 0.0
C1905 C 0.42192 0.41961 0.78608 0.0
C1906 C 0.40811 0.41189 0.80859 0.0
C1907 C 0.40725 0.41376 0.85443 0.0
loop_
_geom_bond_atom_site_label_1
_geom_bond_atom_site_label_2
_geom_bond_distance
_geom_bond_site_symmetry_2
_ccdc_geom_bond_type
Mg0 O7 2.141 . S
Mg0 O8 2.048 . S
Mg0 O9 2.048 . S
Mg0 O12 2.141 . S
C1 O2 1.313 . S
C1 O8 1.195 . S
O2 C1 1.313 . S
C3 O4 1.245 . S
C3 O12 1.289 . S
O4 C3 1.245 . S
C5 O6 1.245 . S
C5 O7 1.289 . S
O6 C5 1.245 . S
O7 Mg0 2.141 . S
O7 C5 1.289 . S
O8 Mg0 2.048 . S
O8 C1 1.195 . S
O9 Mg0 2.048 . S
O9 C10 1.195 . S
C10 O9 1.195 . S
C10 O11 1.313 . S
O11 C10 1.313 . S
O12 Mg0 2.141 . S
O12 C3 1.289 . S
Mg13 O20 2.141 . S
Mg13 O21 2.048 . S
Mg13 O22 2.048 . S
Mg13 O25 2.141 . S
C14 O15 1.313 . S
C14 O21 1.195 . S
O15 C14 1.313 . S
C16 O17 1.245 . S
C16 O25 1.289 . S
O17 C16 1.245 . S
C18 O19 1.245 . S
C18 O20 1.289 . S
O19 C18 1.245 . S
O20 Mg13 2.141 . S
O20 C18 1.289 . S
O21 Mg13 2.048 . S
O21 C14 1.195 . S
O22 Mg13 2.048 . S
O22 C23 1.195 . S
C23 O22 1.195 . S
C23 O24 1.313 . S
O24 C23 1.313 . S
O25 Mg13 2.141 . S
O25 C16 1.289 . S
Mg26 O33 2.141 . S
Mg26 O34 2.048 . S
Mg26 O35 2.048 . S
Mg26 O38 2.141 . S
C27 O28 1.313 . S
C27 O34 1.195 . S
O28 C27 1.313 . S
C29 O30 1.245 . S
C29 O38 1.289 . S
O30 C29 1.245 . S
C31 O32 1.245 . S
C31 O33 1.289 . S
O32 C31 1.245 . S
O33 Mg26 2.141 . S
O33 C31 1.289 . S
O34 Mg26 2.048 . S
O34 C27 1.195 . S
O35 Mg26 2.048 . S
O35 C36 1.195 . S
C36 O35 1.195 . S
C36 O37 1.313 . S
O37 C36 1.313 . S
O38 Mg26 2.141 . S
O38 C29 1.289 . S
Mg39 O46 2.141 . S
Mg39 O47 2.048 . S
Mg39 O48 2.048 . S
Mg39 O51 2.141 . S
C40 O41 1.313 . S
C40 O47 1.195 . S
O41 C40 1.313 . S
C42 O43 1.245 . S
C42 O51 1.289 . S
O43 C42 1.245 . S
C44 O45 1.245 . S
C44 O46 1.289 . S
O45 C44 1.245 . S
O46 Mg39 2.141 . S
O46 C44 1.289 . S
O47 Mg39 2.048 . S
O47 C40 1.195 . S
O48 Mg39 2.048 . S
O48 C49 1.195 . S
C49 O48 1.195 . S
C49 O50 1.313 . S
O50 C49 1.313 . S
O51 Mg39 2.141 . S
O51 C42 1.289 . S
Mg52 O59 2.141 . S
Mg52 O60 2.048 . S
Mg52 O61 2.048 . S
Mg52 O64 2.141 . S
C53 O54 1.313 . S
C53 O60 1.195 . S
O54 C53 1.313 . S
C55 O56 1.245 . S
C55 O64 1.289 . S
O56 C55 1.245 . S
C57 O58 1.245 . S
C57 O59 1.289 . S
O58 C57 1.245 . S
O59 Mg52 2.141 . S
O59 C57 1.289 . S
O60 Mg52 2.048 . S
O60 C53 1.195 . S
O61 Mg52 2.048 . S
O61 C62 1.195 . S
C62 O61 1.195 . S
C62 O63 1.313 . S
O63 C62 1.313 . S
O64 Mg52 2.141 . S
O64 C55 1.289 . S
Mg65 O72 2.141 . S
Mg65 O73 2.048 . S
Mg65 O74 2.048 . S
Mg65 O77 2.141 . S
C66 O67 1.313 . S
C66 O73 1.195 . S
O67 C66 1.313 . S
C68 O69 1.245 . S
C68 O77 1.289 . S
O69 C68 1.245 . S
C70 O71 1.245 . S
C70 O72 1.289 . S
O71 C70 1.245 . S
O72 Mg65 2.141 . S
O72 C70 1.289 . S
O73 Mg65 2.048 . S
O73 C66 1.195 . S
O74 Mg65 2.048 . S
O74 C75 1.195 . S
C75 O74 1.195 . S
C75 O76 1.313 . S
O76 C75 1.313 . S
O77 Mg65 2.141 . S
O77 C68 1.289 . S
Mg78 O85 2.141 . S
Mg78 O86 2.048 . S
Mg78 O87 2.048 . S
Mg78 O90 2.141 . S
C79 O80 1.313 . S
C79 O86 1.195 . S
O80 C79 1.313 . S
C81 O82 1.245 . S
C81 O90 1.289 . S
O82 C81 1.245 . S
C83 O84 1.245 . S
C83 O85 1.289 . S
O84 C83 1.245 . S
O85 Mg78 2.141 . S
O85 C83 1.289 . S
O86 Mg78 2.048 . S
O86 C79 1.195 . S
O87 Mg78 2.048 . S
O87 C88 1.195 . S
C88 O87 1.195 . S
C88 O89 1.313 . S
O89 C88 1.313 . S
O90 Mg78 2.141 . S
O90 C81 1.289 . S
Mg91 O98 2.141 . S
Mg91 O99 2.048 . S
Mg91 O100 2.048 . S
Mg91 O103 2.141 . S
C92 O93 1.313 . S
C92 O99 1.195 . S
O93 C92 1.313 . S
C94 O95 1.245 . S
C94 O103 1.289 . S
O95 C94 1.245 . S
C96 O97 1.245 . S
C96 O98 1.289 . S
O97 C96 1.245 . S
O98 Mg91 2.141 . S
O98 C96 1.289 . S
O99 Mg91 2.048 . S
O99 C92 1.195 . S
O100 Mg91 2.048 . S
O100 C101 1.195 . S
C101 O100 1.195 . S
C101 O102 1.313 . S
O102 C101 1.313 . S
O103 Mg91 2.141 . S
O103 C94 1.289 . S
Mg104 O111 2.141 . S
Mg104 O112 2.048 . S
Mg104 O113 2.048 . S
Mg104 O116 2.141 . S
C105 O106 1.313 . S
C105 O112 1.195 . S
O106 C105 1.313 . S
C107 O108 1.245 . S
C107 O116 1.289 . S
O108 C107 1.245 . S
C109 O110 1.245 . S
C109 O111 1.289 . S
O110 C109 1.245 . S
O111 Mg104 2.141 . S
O111 C109 1.289 . S
O112 Mg104 2.048 . S
O112 C105 1.195 . S
O113 Mg104 2.048 . S
O113 C114 1.195 . S
C114 O113 1.195 . S
C114 O115 1.313 . S
O115 C114 1.313 . S
O116 Mg104 2.141 . S
O116 C107 1.289 . S
Mg117 O124 2.141 . S
Mg117 O125 2.048 . S
Mg117 O126 2.048 . S
Mg117 O129 2.141 . S
C118 O119 1.313 . S
C118 O125 1.195 . S
O119 C118 1.313 . S
C120 O121 1.245 . S
C120 O129 1.289 . S
O121 C120 1.245 . S
C122 O123 1.245 . S
C122 O124 1.289 . S
O123 C122 1.245 . S
O124 Mg117 2.141 . S
O124 C122 1.289 . S
O125 Mg117 2.048 . S
O125 C118 1.195 . S
O126 Mg117 2.048 . S
O126 C127 1.195 . S
C127 O126 1.195 . S
C127 O128 1.313 . S
O128 C127 1.313 . S
O129 Mg117 2.141 . S
O129 C120 1.289 . S
Mg130 O137 2.141 . S
Mg130 O138 2.048 . S
Mg130 O139 2.048 . S
Mg130 O142 2.141 . S
C131 O132 1.313 . S
C131 O138 1.195 . S
O132 C131 1.313 . S
C133 O134 1.245 . S
C133 O142 1.289 . S
O134 C133 1.245 . S
C135 O136 1.245 . S
C135 O137 1.289 . S
O136 C135 1.245 . S
O137 Mg130 2.141 . S
O137 C135 1.289 . S
O138 Mg130 2.048 . S
O138 C131 1.195 . S
O139 Mg130 2.048 . S
O139 C140 1.195 . S
C140 O139 1.195 . S
C140 O141 1.313 . S
O141 C140 1.313 . S
O142 Mg130 2.141 . S
O142 C133 1.289 . S
Mg143 O150 2.141 . S
Mg143 O151 2.048 . S
Mg143 O152 2.048 . S
Mg143 O155 2.141 . S
C144 O145 1.313 . S
C144 O151 1.195 . S
O145 C144 1.313 . S
C146 O147 1.245 . S
C146 O155 1.289 . S
O147 C146 1.245 . S
C148 O149 1.245 . S
C148 O150 1.289 . S
O149 C148 1.245 . S
O150 Mg143 2.141 . S
O150 C148 1.289 . S
O151 Mg143 2.048 . S
O151 C144 1.195 . S
O152 Mg143 2.048 . S
O152 C153 1.195 . S
C153 O152 1.195 . S
C153 O154 1.313 . S
O154 C153 1.313 . S
O155 Mg143 2.141 . S
O155 C146 1.289 . S
Mg156 O163 2.141 . S
Mg156 O164 2.048 . S
Mg156 O165 2.048 . S
Mg156 O168 2.141 . S
C157 O158 1.313 . S
C157 O164 1.195 1_655 S
O158 C157 1.313 . S
C159 O160 1.245 . S
C159 O168 1.289 . S
O160 C159 1.245 . S
C161 O162 1.245 1_455 S
C161 O163 1.289 . S
O162 C161 1.245 1_655 S
O163 Mg156 2.141 . S
O163 C161 1.289 . S
O164 Mg156 2.048 . S
O164 C157 1.195 1_455 S
O165 Mg156 2.048 . S
O165 C166 1.195 . S
C166 O165 1.195 . S
C166 O167 1.313 1_455 S
O167 C166 1.313 1_655 S
O168 Mg156 2.141 . S
O168 C159 1.289 . S
Mg169 O176 2.141 . S
Mg169 O177 2.048 . S
Mg169 O178 2.048 . S
Mg169 O181 2.141 . S
C170 O171 1.313 . S
C170 O177 1.195 . S
O171 C170 1.313 . S
C172 O173 1.245 . S
C172 O181 1.289 . S
O173 C172 1.245 . S
C174 O175 1.245 . S
C174 O176 1.289 . S
O175 C174 1.245 . S
O176 Mg169 2.141 . S
O176 C174 1.289 . S
O177 Mg169 2.048 . S
O177 C170 1.195 . S
O178 Mg169 2.048 . S
O178 C179 1.195 . S
C179 O178 1.195 . S
C179 O180 1.313 . S
O180 C179 1.313 . S
O181 Mg169 2.141 . S
O181 C172 1.289 . S
Mg182 O189 2.141 . S
Mg182 O190 2.048 . S
Mg182 O191 2.048 . S
Mg182 O194 2.141 . S
C183 O184 1.313 . S
C183 O190 1.195 1_545 S
O184 C183 1.313 . S
C185 O186 1.245 . S
C185 O194 1.289 . S
O186 C185 1.245 . S
C187 O188 1.245 1_565 S
C187 O189 1.289 . S
O188 C187 1.245 1_545 S
O189 Mg182 2.141 . S
O189 C187 1.289 . S
O190 Mg182 2.048 . S
O190 C183 1.195 1_565 S
O191 Mg182 2.048 . S
O191 C192 1.195 . S
C192 O191 1.195 . S
C192 O193 1.313 1_565 S
O193 C192 1.313 1_545 S
O194 Mg182 2.141 . S
O194 C185 1.289 . S
Mg195 O202 2.141 . S
Mg195 O203 2.048 . S
Mg195 O204 2.048 . S
Mg195 O207 2.141 . S
C196 O197 1.313 . S
C196 O203 1.195 . S
O197 C196 1.313 . S
C198 O199 1.245 . S
C198 O207 1.289 . S
O199 C198 1.245 . S
C200 O201 1.245 . S
C200 O202 1.289 . S
O201 C200 1.245 . S
O202 Mg195 2.141 . S
O202 C200 1.289 . S
O203 Mg195 2.048 . S
O203 C196 1.195 . S
O204 Mg195 2.048 . S
O204 C205 1.195 . S
C205 O204 1.195 . S
C205 O206 1.313 . S
O206 C205 1.313 . S
O207 Mg195 2.141 . S
O207 C198 1.289 . S
Mg208 O215 2.141 . S
Mg208 O216 2.048 . S
Mg208 O217 2.048 . S
Mg208 O220 2.141 . S
C209 O210 1.313 . S
C209 O216 1.195 . S
O210 C209 1.313 . S
C211 O212 1.245 . S
C211 O220 1.289 . S
O212 C211 1.245 . S
C213 O214 1.245 . S
C213 O215 1.289 . S
O214 C213 1.245 . S
O215 Mg208 2.141 . S
O215 C213 1.289 . S
O216 Mg208 2.048 . S
O216 C209 1.195 . S
O217 Mg208 2.048 . S
O217 C218 1.195 . S
C218 O217 1.195 . S
C218 O219 1.313 . S
O219 C218 1.313 . S
O220 Mg208 2.141 . S
O220 C211 1.289 . S
Mg221 O228 2.141 . S
Mg221 O229 2.048 . S
Mg221 O230 2.048 . S
Mg221 O233 2.141 . S
C222 O223 1.313 . S
C222 O229 1.195 . S
O223 C222 1.313 . S
C224 O225 1.245 . S
C224 O233 1.289 . S
O225 C224 1.245 . S
C226 O227 1.245 . S
C226 O228 1.289 . S
O227 C226 1.245 . S
O228 Mg221 2.141 . S
O228 C226 1.289 . S
O229 Mg221 2.048 . S
O229 C222 1.195 . S
O230 Mg221 2.048 . S
O230 C231 1.195 . S
C231 O230 1.195 . S
C231 O232 1.313 . S
O232 C231 1.313 . S
O233 Mg221 2.141 . S
O233 C224 1.289 . S
Mg234 O241 2.141 . S
Mg234 O242 2.048 . S
Mg234 O243 2.048 . S
Mg234 O246 2.141 . S
C235 O236 1.313 . S
C235 O242 1.195 . S
O236 C235 1.313 . S
C237 O238 1.245 . S
C237 O246 1.289 . S
O238 C237 1.245 . S
C239 O240 1.245 . S
C239 O241 1.289 . S
O240 C239 1.245 . S
O241 Mg234 2.141 . S
O241 C239 1.289 . S
O242 Mg234 2.048 . S
O242 C235 1.195 . S
O243 Mg234 2.048 . S
O243 C244 1.195 . S
C244 O243 1.195 . S
C244 O245 1.313 . S
O245 C244 1.313 . S
O246 Mg234 2.141 . S
O246 C237 1.289 . S
Mg247 O254 2.141 . S
Mg247 O255 2.048 . S
Mg247 O256 2.048 . S
Mg247 O259 2.141 . S
C248 O249 1.313 . S
C248 O255 1.195 . S
O249 C248 1.313 . S
C250 O251 1.245 . S
C250 O259 1.289 . S
O251 C250 1.245 . S
C252 O253 1.245 . S
C252 O254 1.289 . S
O253 C252 1.245 . S
O254 Mg247 2.141 . S
O254 C252 1.289 . S
O255 Mg247 2.048 . S
O255 C248 1.195 . S
O256 Mg247 2.048 . S
O256 C257 1.195 . S
C257 O256 1.195 . S
C257 O258 1.313 . S
O258 C257 1.313 . S
O259 Mg247 2.141 . S
O259 C250 1.289 . S
Mg260 O267 2.141 . S
Mg260 O268 2.048 . S
Mg260 O269 2.048 . S
Mg260 O272 2.141 . S
C261 O262 1.313 . S
C261 O268 1.195 . S
O262 C261 1.313 . S
C263 O264 1.245 . S
C263 O272 1.289 . S
O264 C263 1.245 . S
C265 O266 1.245 . S
C265 O267 1.289 . S
O266 C265 1.245 . S
O267 Mg260 2.141 . S
O267 C265 1.289 . S
O268 Mg260 2.048 . S
O268 C261 1.195 . S
O269 Mg260 2.048 . S
O269 C270 1.195 . S
C270 O269 1.195 . S
C270 O271 1.313 . S
O271 C270 1.313 . S
O272 Mg260 2.141 . S
O272 C263 1.289 . S
Mg273 O280 2.141 . S
Mg273 O281 2.048 1_565 S
Mg273 O282 2.048 1_554 S
Mg273 O285 2.141 1_554 S
C274 O275 1.313 1_554 S
C274 O281 1.195 1_565 S
O275 C274 1.313 1_556 S
C276 O277 1.245 . S
C276 O285 1.289 . S
O277 C276 1.245 . S
C278 O279 1.245 . S
C278 O280 1.289 . S
O279 C278 1.245 . S
O280 Mg273 2.141 . S
O280 C278 1.289 . S
O281 Mg273 2.048 1_545 S
O281 C274 1.195 1_545 S
O282 Mg273 2.048 1_556 S
O282 C283 1.195 . S
C283 O282 1.195 . S
C283 O284 1.313 . S
O284 C283 1.313 . S
O285 Mg273 2.141 1_556 S
O285 C276 1.289 . S
Mg286 O293 2.141 . S
Mg286 O294 2.048 1_455 S
Mg286 O295 2.048 1_554 S
Mg286 O298 2.141 1_554 S
C287 O288 1.313 1_554 S
C287 O294 1.195 1_455 S
O288 C287 1.313 1_556 S
C289 O290 1.245 . S
C289 O298 1.289 . S
O290 C289 1.245 . S
C291 O292 1.245 . S
C291 O293 1.289 . S
O292 C291 1.245 . S
O293 Mg286 2.141 . S
O293 C291 1.289 . S
O294 Mg286 2.048 1_655 S
O294 C287 1.195 1_655 S
O295 Mg286 2.048 1_556 S
O295 C296 1.195 . S
C296 O295 1.195 . S
C296 O297 1.313 . S
O297 C296 1.313 . S
O298 Mg286 2.141 1_556 S
O298 C289 1.289 . S
Mg299 O306 2.141 1_554 S
Mg299 O307 2.034 1_554 S
Mg299 O308 2.049 . S
Mg299 O311 2.155 . S
C300 O301 1.313 . S
C300 O307 1.195 . S
O301 C300 1.313 . S
C302 O303 1.245 . S
C302 O311 1.289 . S
O303 C302 1.245 . S
C304 O305 1.245 . S
C304 O306 1.289 . S
O305 C304 1.245 . S
O306 Mg299 2.141 1_556 S
O306 C304 1.289 . S
O307 Mg299 2.034 1_556 S
O307 C300 1.195 . S
O308 Mg299 2.049 . S
O308 C309 1.195 . S
C309 O308 1.195 . S
C309 O310 1.313 1_554 S
O310 C309 1.313 1_556 S
O311 Mg299 2.155 . S
O311 C302 1.289 . S
Mg312 O319 2.141 . S
Mg312 O320 2.048 . S
Mg312 O321 2.048 . S
Mg312 O324 2.141 . S
C313 O314 1.313 . S
C313 O320 1.195 . S
O314 C313 1.313 . S
C315 O316 1.245 . S
C315 O324 1.289 . S
O316 C315 1.245 . S
C317 O318 1.245 . S
C317 O319 1.289 . S
O318 C317 1.245 . S
O319 Mg312 2.141 . S
O319 C317 1.289 . S
O320 Mg312 2.048 . S
O320 C313 1.195 . S
O321 Mg312 2.048 . S
O321 C322 1.195 . S
C322 O321 1.195 . S
C322 O323 1.313 . S
O323 C322 1.313 . S
O324 Mg312 2.141 . S
O324 C315 1.289 . S
Mg325 O332 2.141 . S
Mg325 O333 2.048 . S
Mg325 O334 2.048 . S
Mg325 O337 2.141 . S
C326 O327 1.313 . S
C326 O333 1.195 . S
O327 C326 1.313 . S
C328 O329 1.245 . S
C328 O337 1.289 . S
O329 C328 1.245 . S
C330 O331 1.245 . S
C330 O332 1.289 . S
O331 C330 1.245 . S
O332 Mg325 2.141 . S
O332 C330 1.289 . S
O333 Mg325 2.048 . S
O333 C326 1.195 . S
O334 Mg325 2.048 . S
O334 C335 1.195 . S
C335 O334 1.195 . S
C335 O336 1.313 . S
O336 C335 1.313 . S
O337 Mg325 2.141 . S
O337 C328 1.289 . S
Mg338 O345 2.141 . S
Mg338 O346 2.048 . S
Mg338 O347 2.048 . S
Mg338 O350 2.141 . S
C339 O340 1.313 . S
C339 O346 1.195 . S
O340 C339 1.313 . S
C341 O342 1.245 . S
C341 O350 1.289 . S
O342 C341 1.245 . S
C343 O344 1.245 . S
C343 O345 1.289 . S
O344 C343 1.245 . S
O345 Mg338 2.141 . S
O345 C343 1.289 . S
O346 Mg338 2.048 . S
O346 C339 1.195 . S
O347 Mg338 2.048 . S
O347 C348 1.195 . S
C348 O347 1.195 . S
C348 O349 1.313 . S
O349 C348 1.313 . S
O350 Mg338 2.141 . S
O350 C341 1.289 . S
Mg351 O358 2.155 . S
Mg351 O359 2.049 . S
Mg351 O360 2.034 1_556 S
Mg351 O363 2.141 1_556 S
C352 O353 1.313 1_556 S
C352 O359 1.195 1_565 S
O353 C352 1.313 1_554 S
C354 O355 1.245 . S
C354 O363 1.289 . S
O355 C354 1.245 . S
C356 O357 1.245 1_545 S
C356 O358 1.289 . S
O357 C356 1.245 1_565 S
O358 Mg351 2.155 . S
O358 C356 1.289 . S
O359 Mg351 2.049 . S
O359 C352 1.195 1_545 S
O360 Mg351 2.034 1_554 S
O360 C361 1.195 . S
C361 O360 1.195 . S
C361 O362 1.313 1_545 S
O362 C361 1.313 1_565 S
O363 Mg351 2.141 1_554 S
O363 C354 1.289 . S
Mg364 O371 2.155 . S
Mg364 O372 2.049 . S
Mg364 O373 2.034 1_556 S
Mg364 O376 2.141 1_556 S
C365 O366 1.313 1_556 S
C365 O372 1.195 1_455 S
O366 C365 1.313 1_554 S
C367 O368 1.245 . S
C367 O376 1.289 . S
O368 C367 1.245 . S
C369 O370 1.245 1_655 S
C369 O371 1.289 . S
O370 C369 1.245 1_455 S
O371 Mg364 2.155 . S
O371 C369 1.289 . S
O372 Mg364 2.049 . S
O372 C365 1.195 1_655 S
O373 Mg364 2.034 1_554 S
O373 C374 1.195 . S
C374 O373 1.195 . S
C374 O375 1.313 1_655 S
O375 C374 1.313 1_455 S
O376 Mg364 2.141 1_554 S
O376 C367 1.289 . S
Mg377 O384 2.155 . S
Mg377 O385 2.049 . S
Mg377 O386 2.034 1_556 S
Mg377 O389 2.141 1_556 S
C378 O379 1.313 1_556 S
C378 O385 1.195 . S
O379 C378 1.313 1_554 S
C380 O381 1.245 . S
C380 O389 1.289 . S
O381 C380 1.245 . S
C382 O383 1.245 . S
C382 O384 1.289 . S
O383 C382 1.245 . S
O384 Mg377 2.155 . S
O384 C382 1.289 . S
O385 Mg377 2.049 . S
O385 C378 1.195 . S
O386 Mg377 2.034 1_554 S
O386 C387 1.195 . S
C387 O386 1.195 . S
C387 O388 1.313 . S
O388 C387 1.313 . S
O389 Mg377 2.141 1_554 S
O389 C380 1.289 . S
Mg390 O397 2.141 . S
Mg390 O398 2.048 . S
Mg390 O399 2.048 . S
Mg390 O402 2.141 . S
C391 O392 1.313 1_655 S
C391 O398 1.195 . S
O392 C391 1.313 1_455 S
C393 O394 1.245 1_655 S
C393 O402 1.289 . S
O394 C393 1.245 1_455 S
C395 O396 1.245 . S
C395 O397 1.289 . S
O396 C395 1.245 . S
O397 Mg390 2.141 . S
O397 C395 1.289 . S
O398 Mg390 2.048 . S
O398 C391 1.195 . S
O399 Mg390 2.048 . S
O399 C400 1.195 1_655 S
C400 O399 1.195 1_455 S
C400 O401 1.313 . S
O401 C400 1.313 . S
O402 Mg390 2.141 . S
O402 C393 1.289 . S
Mg403 O410 2.141 . S
Mg403 O411 2.048 . S
Mg403 O412 2.048 . S
Mg403 O415 2.141 . S
C404 O405 1.313 . S
C404 O411 1.195 . S
O405 C404 1.313 . S
C406 O407 1.245 . S
C406 O415 1.289 . S
O407 C406 1.245 . S
C408 O409 1.245 . S
C408 O410 1.289 . S
O409 C408 1.245 . S
O410 Mg403 2.141 . S
O410 C408 1.289 . S
O411 Mg403 2.048 . S
O411 C404 1.195 . S
O412 Mg403 2.048 . S
O412 C413 1.195 . S
C413 O412 1.195 . S
C413 O414 1.313 . S
O414 C413 1.313 . S
O415 Mg403 2.141 . S
O415 C406 1.289 . S
Mg416 O423 2.141 . S
Mg416 O424 2.043 . S
Mg416 O425 2.049 . S
Mg416 O428 2.147 1_565 S
C417 O418 1.234 1_565 S
C417 O424 1.270 . S
O418 C417 1.234 1_545 S
C419 O420 1.245 . S
C419 O428 1.289 . S
O420 C419 1.245 . S
C421 O422 1.245 . S
C421 O423 1.266 1_545 S
O422 C421 1.245 . S
O423 Mg416 2.141 . S
O423 C421 1.266 1_565 S
O424 Mg416 2.043 . S
O424 C417 1.270 . S
O425 Mg416 2.049 . S
O425 C426 1.144 1_565 S
C426 O425 1.144 1_545 S
C426 O427 1.313 . S
O427 C426 1.313 . S
O428 Mg416 2.147 1_545 S
O428 C419 1.289 . S
Mg429 O436 2.141 . S
Mg429 O437 2.048 . S
Mg429 O438 2.048 . S
Mg429 O441 2.141 . S
C430 O431 1.313 . S
C430 O437 1.195 . S
O431 C430 1.313 . S
C432 O433 1.245 . S
C432 O441 1.289 . S
O433 C432 1.245 . S
C434 O435 1.245 . S
C434 O436 1.289 . S
O435 C434 1.245 . S
O436 Mg429 2.141 . S
O436 C434 1.289 . S
O437 Mg429 2.048 . S
O437 C430 1.195 . S
O438 Mg429 2.048 . S
O438 C439 1.195 . S
C439 O438 1.195 . S
C439 O440 1.313 . S
O440 C439 1.313 . S
O441 Mg429 2.141 . S
O441 C432 1.289 . S
Mg442 O449 2.141 . S
Mg442 O450 2.048 . S
Mg442 O451 2.048 . S
Mg442 O454 2.141 . S
C443 O444 1.313 . S
C443 O450 1.195 . S
O444 C443 1.313 . S
C445 O446 1.245 . S
C445 O454 1.289 . S
O446 C445 1.245 . S
C447 O448 1.245 . S
C447 O449 1.289 . S
O448 C447 1.245 . S
O449 Mg442 2.141 . S
O449 C447 1.289 . S
O450 Mg442 2.048 . S
O450 C443 1.195 . S
O451 Mg442 2.048 . S
O451 C452 1.195 . S
C452 O451 1.195 . S
C452 O453 1.313 . S
O453 C452 1.313 . S
O454 Mg442 2.141 . S
O454 C445 1.289 . S
Mg455 O462 2.141 . S
Mg455 O463 2.048 . S
Mg455 O464 2.048 . S
Mg455 O467 2.141 . S
C456 O457 1.313 . S
C456 O463 1.195 . S
O457 C456 1.313 . S
C458 O459 1.245 . S
C458 O467 1.289 . S
O459 C458 1.245 . S
C460 O461 1.245 . S
C460 O462 1.289 . S
O461 C460 1.245 . S
O462 Mg455 2.141 . S
O462 C460 1.289 . S
O463 Mg455 2.048 . S
O463 C456 1.195 . S
O464 Mg455 2.048 . S
O464 C465 1.195 . S
C465 O464 1.195 . S
C465 O466 1.313 . S
O466 C465 1.313 . S
O467 Mg455 2.141 . S
O467 C458 1.289 . S
H468 C476 0.950 . S
H469 C481 0.950 . S
H470 C478 0.950 . S
H471 C480 0.950 . S
H472 C482 0.950 . S
H473 C484 0.950 . S
H474 C486 0.950 . S
H475 C487 0.950 . S
C476 H468 0.950 . S
C476 C477 1.386 . S
C476 C478 1.391 . S
C477 C476 1.386 . S
C477 C481 1.393 . S
C478 H470 0.950 . S
C478 C476 1.391 . S
C478 C479 1.400 . S
C479 C478 1.400 . S
C479 C480 1.398 . S
C479 C485 1.491 . S
C480 H471 0.950 . S
C480 C479 1.398 . S
C480 C481 1.391 . S
C481 H469 0.950 . S
C481 C477 1.393 . S
C481 C480 1.391 . S
C482 H472 0.950 . S
C482 C483 1.386 . S
C482 C484 1.391 . S
C483 C482 1.386 . S
C483 C487 1.393 . S
C484 H473 0.950 . S
C484 C482 1.391 . S
C484 C485 1.400 . S
C485 C479 1.491 . S
C485 C484 1.400 . S
C485 C486 1.398 . S
C486 H474 0.950 . S
C486 C485 1.398 . S
C486 C487 1.391 . S
C487 H475 0.950 . S
C487 C483 1.393 . S
C487 C486 1.391 . S
H488 C496 0.950 . S
H489 C501 0.950 . S
H490 C498 0.950 . S
H491 C500 0.950 . S
H492 C502 0.950 . S
H493 C504 0.950 . S
H494 C506 0.950 . S
H495 C507 0.950 . S
C496 H488 0.950 . S
C496 C497 1.386 . S
C496 C498 1.391 . S
C497 C496 1.386 . S
C497 C501 1.393 . S
C498 H490 0.950 . S
C498 C496 1.391 . S
C498 C499 1.400 . S
C499 C498 1.400 . S
C499 C500 1.398 . S
C499 C505 1.491 . S
C500 H491 0.950 . S
C500 C499 1.398 . S
C500 C501 1.391 . S
C501 H489 0.950 . S
C501 C497 1.393 . S
C501 C500 1.391 . S
C502 H492 0.950 . S
C502 C503 1.386 . S
C502 C504 1.391 . S
C503 C502 1.386 . S
C503 C507 1.393 . S
C504 H493 0.950 . S
C504 C502 1.391 . S
C504 C505 1.400 . S
C505 C499 1.491 . S
C505 C504 1.400 . S
C505 C506 1.398 . S
C506 H494 0.950 . S
C506 C505 1.398 . S
C506 C507 1.391 . S
C507 H495 0.950 . S
C507 C503 1.393 . S
C507 C506 1.391 . S
H508 C516 0.950 . S
H509 C521 0.950 . S
H510 C518 0.950 . S
H511 C520 0.950 . S
H512 C522 0.950 . S
H513 C524 0.950 . S
H514 C526 0.950 . S
H515 C527 0.950 . S
C516 H508 0.950 . S
C516 C517 1.386 . S
C516 C518 1.391 . S
C517 C516 1.386 . S
C517 C521 1.393 . S
C518 H510 0.950 . S
C518 C516 1.391 . S
C518 C519 1.400 . S
C519 C518 1.400 . S
C519 C520 1.398 . S
C519 C525 1.491 . S
C520 H511 0.950 . S
C520 C519 1.398 . S
C520 C521 1.391 . S
C521 H509 0.950 . S
C521 C517 1.393 . S
C521 C520 1.391 . S
C522 H512 0.950 . S
C522 C523 1.386 . S
C522 C524 1.391 . S
C523 C522 1.386 . S
C523 C527 1.393 . S
C524 H513 0.950 . S
C524 C522 1.391 . S
C524 C525 1.400 . S
C525 C519 1.491 . S
C525 C524 1.400 . S
C525 C526 1.398 . S
C526 H514 0.950 . S
C526 C525 1.398 . S
C526 C527 1.391 . S
C527 H515 0.950 . S
C527 C523 1.393 . S
C527 C526 1.391 . S
H528 C536 0.950 . S
H529 C541 0.950 . S
H530 C538 0.950 . S
H531 C540 0.950 . S
H532 C542 0.950 . S
H533 C544 0.950 . S
H534 C546 0.950 . S
H535 C547 0.950 . S
C536 H528 0.950 . S
C536 C537 1.386 . S
C536 C538 1.391 1_556 S
C537 C536 1.386 . S
C537 C541 1.393 . S
C538 H530 0.950 . S
C538 C536 1.391 1_554 S
C538 C539 1.400 . S
C539 C538 1.400 . S
C539 C540 1.398 . S
C539 C545 1.491 . S
C540 H531 0.950 . S
C540 C539 1.398 . S
C540 C541 1.391 1_554 S
C541 H529 0.950 . S
C541 C537 1.393 . S
C541 C540 1.391 1_556 S
C542 H532 0.950 . S
C542 C543 1.386 . S
C542 C544 1.391 . S
C543 C542 1.386 . S
C543 C547 1.393 . S
C544 H533 0.950 . S
C544 C542 1.391 . S
C544 C545 1.400 . S
C545 C539 1.491 . S
C545 C544 1.400 . S
C545 C546 1.398 . S
C546 H534 0.950 . S
C546 C545 1.398 . S
C546 C547 1.391 . S
C547 H535 0.950 . S
C547 C543 1.393 . S
C547 C546 1.391 . S
H548 C556 0.950 . S
H549 C561 0.950 . S
H550 C558 0.950 . S
H551 C560 0.950 . S
H552 C562 0.950 . S
H553 C564 0.950 . S
H554 C566 0.950 . S
H555 C567 0.950 . S
C556 H548 0.950 . S
C556 C557 1.386 . S
C556 C558 1.391 . S
C557 C556 1.386 . S
C557 C561 1.393 . S
C558 H550 0.950 . S
C558 C556 1.391 . S
C558 C559 1.400 . S
C559 C558 1.400 . S
C559 C560 1.398 . S
C559 C565 1.491 . S
C560 H551 0.950 . S
C560 C559 1.398 . S
C560 C561 1.391 . S
C561 H549 0.950 . S
C561 C557 1.393 . S
C561 C560 1.391 . S
C562 H552 0.950 . S
C562 C563 1.386 . S
C562 C564 1.391 1_556 S
C563 C562 1.386 . S
C563 C567 1.393 . S
C564 H553 0.950 . S
C564 C562 1.391 1_554 S
C564 C565 1.400 . S
C565 C559 1.491 . S
C565 C564 1.400 . S
C565 C566 1.398 . S
C566 H554 0.950 . S
C566 C565 1.398 . S
C566 C567 1.391 1_554 S
C567 H555 0.950 . S
C567 C563 1.393 . S
C567 C566 1.391 1_556 S
H568 C576 0.950 . S
H569 C581 0.950 . S
H570 C578 0.950 . S
H571 C580 0.950 . S
H572 C582 0.950 . S
H573 C584 0.950 . S
H574 C586 0.950 . S
H575 C587 0.950 . S
C576 H568 0.950 . S
C576 C577 1.386 . S
C576 C578 1.391 . S
C577 C576 1.386 . S
C577 C581 1.393 . S
C578 H570 0.950 . S
C578 C576 1.391 . S
C578 C579 1.400 . S
C579 C578 1.400 . S
C579 C580 1.398 . S
C579 C585 1.491 . S
C580 H571 0.950 . S
C580 C579 1.398 . S
C580 C581 1.391 . S
C581 H569 0.950 . S
C581 C577 1.393 . S
C581 C580 1.391 . S
C582 H572 0.950 . S
C582 C583 1.386 . S
C582 C584 1.391 1_556 S
C583 C582 1.386 . S
C583 C587 1.393 . S
C584 H573 0.950 . S
C584 C582 1.391 1_554 S
C584 C585 1.400 . S
C585 C579 1.491 . S
C585 C584 1.400 . S
C585 C586 1.398 . S
C586 H574 0.950 . S
C586 C585 1.398 . S
C586 C587 1.391 1_554 S
C587 H575 0.950 . S
C587 C583 1.393 . S
C587 C586 1.391 1_556 S
H588 C596 0.950 . S
H589 C601 0.950 . S
H590 C598 0.950 . S
H591 C600 0.950 . S
H592 C602 0.950 . S
H593 C604 0.950 . S
H594 C606 0.950 . S
H595 C607 0.950 . S
C596 H588 0.950 . S
C596 C597 1.386 . S
C596 C598 1.391 . S
C597 C596 1.386 . S
C597 C601 1.393 . S
C598 H590 0.950 . S
C598 C596 1.391 . S
C598 C599 1.400 . S
C599 C598 1.400 . S
C599 C600 1.398 . S
C599 C605 1.491 . S
C600 H591 0.950 . S
C600 C599 1.398 . S
C600 C601 1.391 . S
C601 H589 0.950 . S
C601 C597 1.393 . S
C601 C600 1.391 . S
C602 H592 0.950 . S
C602 C603 1.386 . S
C602 C604 1.391 . S
C603 C602 1.386 . S
C603 C607 1.393 . S
C604 H593 0.950 . S
C604 C602 1.391 . S
C604 C605 1.400 . S
C605 C599 1.491 . S
C605 C604 1.400 . S
C605 C606 1.398 . S
C606 H594 0.950 . S
C606 C605 1.398 . S
C606 C607 1.391 . S
C607 H595 0.950 . S
C607 C603 1.393 . S
C607 C606 1.391 . S
H608 C616 0.950 . S
H609 C621 0.950 . S
H610 C618 0.950 . S
H611 C620 0.950 . S
H612 C622 0.950 . S
H613 C624 0.950 . S
H614 C626 0.950 . S
H615 C627 0.950 . S
C616 H608 0.950 . S
C616 C617 1.386 . S
C616 C618 1.391 . S
C617 C616 1.386 . S
C617 C621 1.393 . S
C618 H610 0.950 . S
C618 C616 1.391 . S
C618 C619 1.400 . S
C619 C618 1.400 . S
C619 C620 1.398 . S
C619 C625 1.491 . S
C620 H611 0.950 . S
C620 C619 1.398 . S
C620 C621 1.391 . S
C621 H609 0.950 . S
C621 C617 1.393 . S
C621 C620 1.391 . S
C622 H612 0.950 . S
C622 C623 1.386 . S
C622 C624 1.391 . S
C623 C622 1.386 . S
C623 C627 1.393 . S
C624 H613 0.950 . S
C624 C622 1.391 . S
C624 C625 1.400 . S
C625 C619 1.491 . S
C625 C624 1.400 . S
C625 C626 1.398 . S
C626 H614 0.950 . S
C626 C625 1.398 . S
C626 C627 1.391 . S
C627 H615 0.950 . S
C627 C623 1.393 . S
C627 C626 1.391 . S
H628 C636 0.950 . S
H629 C641 0.950 . S
H630 C638 0.950 . S
H631 C640 0.950 . S
H632 C642 0.950 . S
H633 C644 0.950 . S
H634 C646 0.950 . S
H635 C647 0.950 . S
C636 H628 0.950 . S
C636 C637 1.386 . S
C636 C638 1.391 . S
C637 C636 1.386 . S
C637 C641 1.393 . S
C638 H630 0.950 . S
C638 C636 1.391 . S
C638 C639 1.400 . S
C639 C638 1.400 . S
C639 C640 1.398 . S
C639 C645 1.491 . S
C640 H631 0.950 . S
C640 C639 1.398 . S
C640 C641 1.391 . S
C641 H629 0.950 . S
C641 C637 1.393 . S
C641 C640 1.391 . S
C642 H632 0.950 . S
C642 C643 1.386 . S
C642 C644 1.391 . S
C643 C642 1.386 . S
C643 C647 1.393 . S
C644 H633 0.950 . S
C644 C642 1.391 . S
C644 C645 1.400 . S
C645 C639 1.491 . S
C645 C644 1.400 . S
C645 C646 1.398 . S
C646 H634 0.950 . S
C646 C645 1.398 . S
C646 C647 1.391 . S
C647 H635 0.950 . S
C647 C643 1.393 . S
C647 C646 1.391 . S
H648 C656 0.950 . S
H649 C661 0.950 . S
H650 C658 0.950 . S
H651 C660 0.950 . S
H652 C662 0.950 . S
H653 C664 0.950 . S
H654 C666 0.950 . S
H655 C667 0.950 . S
C656 H648 0.950 . S
C656 C657 1.386 . S
C656 C658 1.391 . S
C657 C656 1.386 . S
C657 C661 1.393 . S
C658 H650 0.950 . S
C658 C656 1.391 . S
C658 C659 1.400 . S
C659 C658 1.400 . S
C659 C660 1.398 . S
C659 C665 1.491 . S
C660 H651 0.950 . S
C660 C659 1.398 . S
C660 C661 1.391 . S
C661 H649 0.950 . S
C661 C657 1.393 . S
C661 C660 1.391 . S
C662 H652 0.950 . S
C662 C663 1.386 . S
C662 C664 1.391 1_554 S
C663 C662 1.386 . S
C663 C667 1.393 . S
C664 H653 0.950 . S
C664 C662 1.391 1_556 S
C664 C665 1.400 . S
C665 C659 1.491 . S
C665 C664 1.400 . S
C665 C666 1.398 . S
C666 H654 0.950 . S
C666 C665 1.398 . S
C666 C667 1.391 1_556 S
C667 H655 0.950 . S
C667 C663 1.393 . S
C667 C666 1.391 1_554 S
H668 C676 0.950 . S
H669 C681 0.950 . S
H670 C678 0.950 . S
H671 C680 0.950 . S
H672 C682 0.950 . S
H673 C684 0.950 . S
H674 C686 0.950 . S
H675 C687 0.950 . S
C676 H668 0.950 . S
C676 C677 1.386 . S
C676 C678 1.391 1_554 S
C677 C676 1.386 . S
C677 C681 1.393 . S
C678 H670 0.950 . S
C678 C676 1.391 1_556 S
C678 C679 1.400 . S
C679 C678 1.400 . S
C679 C680 1.398 . S
C679 C685 1.491 . S
C680 H671 0.950 . S
C680 C679 1.398 . S
C680 C681 1.391 1_556 S
C681 H669 0.950 . S
C681 C677 1.393 . S
C681 C680 1.391 1_554 S
C682 H672 0.950 . S
C682 C683 1.386 . S
C682 C684 1.391 . S
C683 C682 1.386 . S
C683 C687 1.393 . S
C684 H673 0.950 . S
C684 C682 1.391 . S
C684 C685 1.400 . S
C685 C679 1.491 . S
C685 C684 1.400 . S
C685 C686 1.398 . S
C686 H674 0.950 . S
C686 C685 1.398 . S
C686 C687 1.391 . S
C687 H675 0.950 . S
C687 C683 1.393 . S
C687 C686 1.391 . S
H688 C696 0.950 . S
H689 C701 0.950 . S
H690 C698 0.950 . S
H691 C700 0.950 . S
H692 C702 0.950 . S
H693 C704 0.950 . S
H694 C706 0.950 . S
H695 C707 0.950 . S
C696 H688 0.950 . S
C696 C697 1.386 . S
C696 C698 1.391 . S
C697 C696 1.386 . S
C697 C701 1.393 . S
C698 H690 0.950 . S
C698 C696 1.391 . S
C698 C699 1.400 . S
C699 C698 1.400 . S
C699 C700 1.398 . S
C699 C705 1.491 . S
C700 H691 0.950 . S
C700 C699 1.398 . S
C700 C701 1.391 . S
C701 H689 0.950 . S
C701 C697 1.393 . S
C701 C700 1.391 . S
C702 H692 0.950 . S
C702 C703 1.386 . S
C702 C704 1.391 1_554 S
C703 C702 1.386 . S
C703 C707 1.393 . S
C704 H693 0.950 . S
C704 C702 1.391 1_556 S
C704 C705 1.400 . S
C705 C699 1.491 . S
C705 C704 1.400 . S
C705 C706 1.398 . S
C706 H694 0.950 . S
C706 C705 1.398 . S
C706 C707 1.391 1_556 S
C707 H695 0.950 . S
C707 C703 1.393 . S
C707 C706 1.391 1_554 S
H708 C716 0.950 . S
H709 C721 0.950 . S
H710 C718 0.950 . S
H711 C720 0.950 . S
H712 C722 0.950 . S
H713 C724 0.950 . S
H714 C726 0.950 . S
H715 C727 0.950 . S
C716 H708 0.950 . S
C716 C717 1.386 . S
C716 C718 1.391 . S
C717 C716 1.386 . S
C717 C721 1.393 1_655 S
C718 H710 0.950 . S
C718 C716 1.391 . S
C718 C719 1.400 . S
C719 C718 1.400 . S
C719 C720 1.398 1_655 S
C719 C725 1.489 1_655 S
C720 H711 0.950 . S
C720 C719 1.398 1_455 S
C720 C721 1.391 . S
C721 H709 0.950 . S
C721 C717 1.393 1_455 S
C721 C720 1.391 . S
C722 H712 0.950 . S
C722 C723 1.386 . S
C722 C724 1.391 . S
C723 C722 1.386 . S
C723 C727 1.393 1_455 S
C724 H713 0.950 . S
C724 C722 1.391 . S
C724 C725 1.407 . S
C725 C719 1.489 1_455 S
C725 C724 1.407 . S
C725 C726 1.393 1_455 S
C726 H714 0.950 . S
C726 C725 1.393 1_655 S
C726 C727 1.391 . S
C727 H715 0.950 . S
C727 C723 1.393 1_655 S
C727 C726 1.391 . S
H728 C736 0.950 . S
H729 C741 0.950 . S
H730 C738 0.950 . S
H731 C740 0.950 . S
H732 C742 0.950 . S
H733 C744 0.950 . S
H734 C746 0.950 . S
H735 C747 0.950 . S
C736 H728 0.950 . S
C736 C737 1.386 . S
C736 C738 1.391 . S
C737 C736 1.386 . S
C737 C741 1.393 . S
C738 H730 0.950 . S
C738 C736 1.391 . S
C738 C739 1.400 . S
C739 C738 1.400 . S
C739 C740 1.398 . S
C739 C745 1.491 . S
C740 H731 0.950 . S
C740 C739 1.398 . S
C740 C741 1.391 . S
C741 H729 0.950 . S
C741 C737 1.393 . S
C741 C740 1.391 . S
C742 H732 0.950 . S
C742 C743 1.386 . S
C742 C744 1.391 . S
C743 C742 1.386 . S
C743 C747 1.393 . S
C744 H733 0.950 . S
C744 C742 1.391 . S
C744 C745 1.400 . S
C745 C739 1.491 . S
C745 C744 1.400 . S
C745 C746 1.398 . S
C746 H734 0.950 . S
C746 C745 1.398 . S
C746 C747 1.391 . S
C747 H735 0.950 . S
C747 C743 1.393 . S
C747 C746 1.391 . S
H748 C756 0.950 . S
H749 C761 0.950 . S
H750 C758 0.950 . S
H751 C760 0.971 1_565 S
H752 C762 0.950 . S
H753 C764 0.950 . S
H754 C766 0.939 . S
H755 C767 0.950 . S
C756 H748 0.950 . S
C756 C757 1.386 . S
C756 C758 1.391 . S
C757 C756 1.386 . S
C757 C761 1.393 . S
C758 H750 0.950 . S
C758 C756 1.391 . S
C758 C759 1.400 . S
C759 C758 1.400 . S
C759 C760 1.398 . S
C759 C765 1.491 1_545 S
C760 H751 0.971 1_545 S
C760 C759 1.398 . S
C760 C761 1.391 . S
C761 H749 0.950 . S
C761 C757 1.393 . S
C761 C760 1.391 . S
C762 H752 0.950 . S
C762 C763 1.386 . S
C762 C764 1.391 . S
C763 C762 1.386 . S
C763 C767 1.393 . S
C764 H753 0.950 . S
C764 C762 1.391 . S
C764 C765 1.401 . S
C765 C759 1.491 1_565 S
C765 C764 1.401 . S
C765 C766 1.421 1_565 S
C766 H754 0.939 . S
C766 C765 1.421 1_545 S
C766 C767 1.382 1_545 S
C767 H755 0.950 . S
C767 C763 1.393 . S
C767 C766 1.382 1_565 S
H768 C776 0.950 . S
H769 C781 0.950 . S
H770 C778 0.950 . S
H771 C780 0.950 . S
H772 C782 0.950 . S
H773 C784 0.950 . S
H774 C786 0.950 . S
H775 C787 0.950 . S
C776 H768 0.950 . S
C776 C777 1.386 . S
C776 C778 1.391 . S
C777 C776 1.386 . S
C777 C781 1.393 1_545 S
C778 H770 0.950 . S
C778 C776 1.391 . S
C778 C779 1.399 . S
C779 C778 1.399 . S
C779 C780 1.398 1_545 S
C779 C785 1.491 1_545 S
C780 H771 0.950 . S
C780 C779 1.398 1_565 S
C780 C781 1.391 . S
C781 H769 0.950 . S
C781 C777 1.393 1_565 S
C781 C780 1.391 . S
C782 H772 0.950 . S
C782 C783 1.386 . S
C782 C784 1.391 . S
C783 C782 1.386 . S
C783 C787 1.386 1_565 S
C784 H773 0.950 . S
C784 C782 1.391 . S
C784 C785 1.400 . S
C785 C779 1.491 1_565 S
C785 C784 1.400 . S
C785 C786 1.398 1_565 S
C786 H774 0.950 . S
C786 C785 1.398 1_545 S
C786 C787 1.400 . S
C787 H775 0.950 . S
C787 C783 1.386 1_545 S
C787 C786 1.400 . S
H788 C796 0.950 . S
H789 C801 0.950 . S
H790 C798 0.950 . S
H791 C800 0.950 . S
H792 C802 0.950 . S
H793 C804 0.950 . S
H794 C806 0.950 . S
H795 C807 0.950 . S
C796 H788 0.950 . S
C796 C797 1.386 . S
C796 C798 1.391 . S
C797 C796 1.386 . S
C797 C801 1.393 . S
C798 H790 0.950 . S
C798 C796 1.391 . S
C798 C799 1.384 . S
C799 C798 1.384 . S
C799 C800 1.426 . S
C799 C805 1.482 1_655 S
C800 H791 0.950 . S
C800 C799 1.426 . S
C800 C801 1.391 . S
C801 H789 0.950 . S
C801 C797 1.393 . S
C801 C800 1.391 . S
C802 H792 0.950 . S
C802 C803 1.386 . S
C802 C804 1.391 . S
C803 C802 1.386 . S
C803 C807 1.393 . S
C804 H793 0.950 . S
C804 C802 1.391 . S
C804 C805 1.400 . S
C805 C799 1.482 1_455 S
C805 C804 1.400 . S
C805 C806 1.398 . S
C806 H794 0.950 . S
C806 C805 1.398 . S
C806 C807 1.391 . S
C807 H795 0.950 . S
C807 C803 1.393 . S
C807 C806 1.391 . S
H808 C816 0.950 . S
H809 C821 0.950 . S
H810 C818 0.950 . S
H811 C820 0.950 . S
H812 C822 0.950 . S
H813 C824 0.950 . S
H814 C826 0.950 . S
H815 C827 0.950 . S
C816 H808 0.950 . S
C816 C817 1.386 . S
C816 C818 1.391 . S
C817 C816 1.386 . S
C817 C821 1.393 . S
C818 H810 0.950 . S
C818 C816 1.391 . S
C818 C819 1.400 . S
C819 C818 1.400 . S
C819 C820 1.398 . S
C819 C825 1.491 . S
C820 H811 0.950 . S
C820 C819 1.398 . S
C820 C821 1.391 . S
C821 H809 0.950 . S
C821 C817 1.393 . S
C821 C820 1.391 . S
C822 H812 0.950 . S
C822 C823 1.386 . S
C822 C824 1.391 . S
C823 C822 1.386 . S
C823 C827 1.393 . S
C824 H813 0.950 . S
C824 C822 1.391 . S
C824 C825 1.400 . S
C825 C819 1.491 . S
C825 C824 1.400 . S
C825 C826 1.398 . S
C826 H814 0.950 . S
C826 C825 1.398 . S
C826 C827 1.391 . S
C827 H815 0.950 . S
C827 C823 1.393 . S
C827 C826 1.391 . S
H828 C836 0.950 . S
H829 C841 0.950 . S
H830 C838 0.950 . S
H831 C840 0.950 . S
H832 C842 0.950 . S
H833 C844 0.950 . S
H834 C846 0.950 . S
H835 C847 0.950 . S
C836 H828 0.950 . S
C836 C837 1.386 . S
C836 C838 1.391 . S
C837 C836 1.386 . S
C837 C841 1.393 . S
C838 H830 0.950 . S
C838 C836 1.391 . S
C838 C839 1.400 . S
C839 C838 1.400 . S
C839 C840 1.398 . S
C839 C845 1.491 . S
C840 H831 0.950 . S
C840 C839 1.398 . S
C840 C841 1.391 . S
C841 H829 0.950 . S
C841 C837 1.393 . S
C841 C840 1.391 . S
C842 H832 0.950 . S
C842 C843 1.386 . S
C842 C844 1.391 . S
C843 C842 1.386 . S
C843 C847 1.393 . S
C844 H833 0.950 . S
C844 C842 1.391 . S
C844 C845 1.400 . S
C845 C839 1.491 . S
C845 C844 1.400 . S
C845 C846 1.398 . S
C846 H834 0.950 . S
C846 C845 1.398 . S
C846 C847 1.391 . S
C847 H835 0.950 . S
C847 C843 1.393 . S
C847 C846 1.391 . S
H848 C856 0.950 . S
H849 C861 0.950 . S
H850 C858 0.950 . S
H851 C860 0.950 . S
H852 C862 0.950 . S
H853 C864 0.950 . S
H854 C866 0.950 . S
H855 C867 0.950 . S
C856 H848 0.950 . S
C856 C857 1.386 . S
C856 C858 1.391 . S
C857 C856 1.386 . S
C857 C861 1.393 . S
C858 H850 0.950 . S
C858 C856 1.391 . S
C858 C859 1.400 . S
C859 C858 1.400 . S
C859 C860 1.398 . S
C859 C865 1.491 . S
C860 H851 0.950 . S
C860 C859 1.398 . S
C860 C861 1.391 . S
C861 H849 0.950 . S
C861 C857 1.393 . S
C861 C860 1.391 . S
C862 H852 0.950 . S
C862 C863 1.386 . S
C862 C864 1.391 . S
C863 C862 1.386 . S
C863 C867 1.393 . S
C864 H853 0.950 . S
C864 C862 1.391 . S
C864 C865 1.400 . S
C865 C859 1.491 . S
C865 C864 1.400 . S
C865 C866 1.398 . S
C866 H854 0.950 . S
C866 C865 1.398 . S
C866 C867 1.391 . S
C867 H855 0.950 . S
C867 C863 1.393 . S
C867 C866 1.391 . S
H868 C876 0.950 . S
H869 C881 0.950 . S
H870 C878 0.950 . S
H871 C880 0.950 . S
H872 C882 0.950 . S
H873 C884 0.950 . S
H874 C886 0.950 . S
H875 C887 0.950 . S
C876 H868 0.950 . S
C876 C877 1.386 . S
C876 C878 1.391 . S
C877 C876 1.386 . S
C877 C881 1.393 . S
C878 H870 0.950 . S
C878 C876 1.391 . S
C878 C879 1.400 . S
C879 C878 1.400 . S
C879 C880 1.398 . S
C879 C885 1.491 . S
C880 H871 0.950 . S
C880 C879 1.398 . S
C880 C881 1.391 . S
C881 H869 0.950 . S
C881 C877 1.393 . S
C881 C880 1.391 . S
C882 H872 0.950 . S
C882 C883 1.386 . S
C882 C884 1.391 . S
C883 C882 1.386 . S
C883 C887 1.393 . S
C884 H873 0.950 . S
C884 C882 1.391 . S
C884 C885 1.400 . S
C885 C879 1.491 . S
C885 C884 1.400 . S
C885 C886 1.398 . S
C886 H874 0.950 . S
C886 C885 1.398 . S
C886 C887 1.391 . S
C887 H875 0.950 . S
C887 C883 1.393 . S
C887 C886 1.391 . S
H888 C896 0.950 . S
H889 C901 0.950 . S
H890 C898 0.950 . S
H891 C900 0.950 . S
H892 C902 0.950 . S
H893 C904 0.950 . S
H894 C906 0.950 . S
H895 C907 0.950 . S
C896 H888 0.950 . S
C896 C897 1.386 . S
C896 C898 1.391 . S
C897 C896 1.386 . S
C897 C901 1.393 . S
C898 H890 0.950 . S
C898 C896 1.391 . S
C898 C899 1.400 . S
C899 C898 1.400 . S
C899 C900 1.398 . S
C899 C905 1.491 . S
C900 H891 0.950 . S
C900 C899 1.398 . S
C900 C901 1.391 . S
C901 H889 0.950 . S
C901 C897 1.393 . S
C901 C900 1.391 . S
C902 H892 0.950 . S
C902 C903 1.386 . S
C902 C904 1.391 . S
C903 C902 1.386 . S
C903 C907 1.393 . S
C904 H893 0.950 . S
C904 C902 1.391 . S
C904 C905 1.400 . S
C905 C899 1.491 . S
C905 C904 1.400 . S
C905 C906 1.398 . S
C906 H894 0.950 . S
C906 C905 1.398 . S
C906 C907 1.391 . S
C907 H895 0.950 . S
C907 C903 1.393 . S
C907 C906 1.391 . S
H908 C916 0.950 . S
H909 C921 0.950 . S
H910 C918 0.950 . S
H911 C920 0.950 . S
H912 C922 0.950 . S
H913 C924 0.950 . S
H914 C926 0.950 . S
H915 C927 0.950 . S
C916 H908 0.950 . S
C916 C917 1.386 . S
C916 C918 1.391 . S
C917 C916 1.386 . S
C917 C921 1.393 . S
C918 H910 0.950 . S
C918 C916 1.391 . S
C918 C919 1.400 . S
C919 C918 1.400 . S
C919 C920 1.398 . S
C919 C925 1.491 . S
C920 H911 0.950 . S
C920 C919 1.398 . S
C920 C921 1.391 . S
C921 H909 0.950 . S
C921 C917 1.393 . S
C921 C920 1.391 . S
C922 H912 0.950 . S
C922 C923 1.386 . S
C922 C924 1.391 . S
C923 C922 1.386 . S
C923 C927 1.393 . S
C924 H913 0.950 . S
C924 C922 1.391 . S
C924 C925 1.400 . S
C925 C919 1.491 . S
C925 C924 1.400 . S
C925 C926 1.398 . S
C926 H914 0.950 . S
C926 C925 1.398 . S
C926 C927 1.391 . S
C927 H915 0.950 . S
C927 C923 1.393 . S
C927 C926 1.391 . S
H928 C936 0.950 . S
H929 C941 0.950 . S
H930 C938 0.950 . S
H931 C940 0.950 . S
H932 C942 0.950 . S
H933 C944 0.950 . S
H934 C946 0.950 . S
H935 C947 0.950 . S
C936 H928 0.950 . S
C936 C937 1.386 . S
C936 C938 1.391 . S
C937 C936 1.386 . S
C937 C941 1.393 . S
C938 H930 0.950 . S
C938 C936 1.391 . S
C938 C939 1.400 . S
C939 C938 1.400 . S
C939 C940 1.398 . S
C939 C945 1.491 . S
C940 H931 0.950 . S
C940 C939 1.398 . S
C940 C941 1.391 . S
C941 H929 0.950 . S
C941 C937 1.393 . S
C941 C940 1.391 . S
C942 H932 0.950 . S
C942 C943 1.386 . S
C942 C944 1.391 . S
C943 C942 1.386 . S
C943 C947 1.393 . S
C944 H933 0.950 . S
C944 C942 1.391 . S
C944 C945 1.400 . S
C945 C939 1.491 . S
C945 C944 1.400 . S
C945 C946 1.398 . S
C946 H934 0.950 . S
C946 C945 1.398 . S
C946 C947 1.391 . S
C947 H935 0.950 . S
C947 C943 1.393 . S
C947 C946 1.391 . S
H948 C956 0.950 . S
H949 C961 0.950 . S
H950 C958 0.950 . S
H951 C960 0.950 . S
H952 C962 0.950 . S
H953 C964 0.950 . S
H954 C966 0.950 . S
H955 C967 0.950 . S
C956 H948 0.950 . S
C956 C957 1.386 . S
C956 C958 1.391 . S
C957 C956 1.386 . S
C957 C961 1.393 . S
C958 H950 0.950 . S
C958 C956 1.391 . S
C958 C959 1.400 . S
C959 C958 1.400 . S
C959 C960 1.398 . S
C959 C965 1.491 . S
C960 H951 0.950 . S
C960 C959 1.398 . S
C960 C961 1.391 . S
C961 H949 0.950 . S
C961 C957 1.393 . S
C961 C960 1.391 . S
C962 H952 0.950 . S
C962 C963 1.386 . S
C962 C964 1.391 . S
C963 C962 1.386 . S
C963 C967 1.393 . S
C964 H953 0.950 . S
C964 C962 1.391 . S
C964 C965 1.400 . S
C965 C959 1.491 . S
C965 C964 1.400 . S
C965 C966 1.398 . S
C966 H954 0.950 . S
C966 C965 1.398 . S
C966 C967 1.391 . S
C967 H955 0.950 . S
C967 C963 1.393 . S
C967 C966 1.391 . S
H968 C976 0.950 . S
H969 C981 0.950 . S
H970 C978 0.950 . S
H971 C980 0.950 . S
H972 C982 0.950 . S
H973 C984 0.950 . S
H974 C986 0.950 . S
H975 C987 0.950 . S
C976 H968 0.950 . S
C976 C977 1.386 . S
C976 C978 1.391 . S
C977 C976 1.386 . S
C977 C981 1.393 . S
C978 H970 0.950 . S
C978 C976 1.391 . S
C978 C979 1.400 . S
C979 C978 1.400 . S
C979 C980 1.398 . S
C979 C985 1.491 . S
C980 H971 0.950 . S
C980 C979 1.398 . S
C980 C981 1.391 . S
C981 H969 0.950 . S
C981 C977 1.393 . S
C981 C980 1.391 . S
C982 H972 0.950 . S
C982 C983 1.386 . S
C982 C984 1.391 . S
C983 C982 1.386 . S
C983 C987 1.393 . S
C984 H973 0.950 . S
C984 C982 1.391 . S
C984 C985 1.400 . S
C985 C979 1.491 . S
C985 C984 1.400 . S
C985 C986 1.398 . S
C986 H974 0.950 . S
C986 C985 1.398 . S
C986 C987 1.391 . S
C987 H975 0.950 . S
C987 C983 1.393 . S
C987 C986 1.391 . S
H988 C996 0.950 . S
H989 C1001 0.950 . S
H990 C998 0.950 . S
H991 C1000 0.950 . S
H992 C1002 0.950 . S
H993 C1004 0.950 . S
H994 C1006 0.950 . S
H995 C1007 0.950 . S
C996 H988 0.950 . S
C996 C997 1.386 . S
C996 C998 1.391 . S
C997 C996 1.386 . S
C997 C1001 1.393 . S
C998 H990 0.950 . S
C998 C996 1.391 . S
C998 C999 1.400 . S
C999 C998 1.400 . S
C999 C1000 1.398 . S
C999 C1005 1.491 . S
C1000 H991 0.950 . S
C1000 C999 1.398 . S
C1000 C1001 1.391 . S
C1001 H989 0.950 . S
C1001 C997 1.393 . S
C1001 C1000 1.391 . S
C1002 H992 0.950 . S
C1002 C1003 1.386 . S
C1002 C1004 1.391 . S
C1003 C1002 1.386 . S
C1003 C1007 1.393 . S
C1004 H993 0.950 . S
C1004 C1002 1.391 . S
C1004 C1005 1.400 . S
C1005 C999 1.491 . S
C1005 C1004 1.400 . S
C1005 C1006 1.398 . S
C1006 H994 0.950 . S
C1006 C1005 1.398 . S
C1006 C1007 1.391 . S
C1007 H995 0.950 . S
C1007 C1003 1.393 . S
C1007 C1006 1.391 . S
H1008 C1016 0.950 . S
H1009 C1021 0.950 . S
H1010 C1018 0.950 . S
H1011 C1020 0.950 . S
H1012 C1022 0.950 . S
H1013 C1024 0.950 . S
H1014 C1026 0.950 . S
H1015 C1027 0.950 . S
C1016 H1008 0.950 . S
C1016 C1017 1.386 . S
C1016 C1018 1.391 . S
C1017 C1016 1.386 . S
C1017 C1021 1.393 . S
C1018 H1010 0.950 . S
C1018 C1016 1.391 . S
C1018 C1019 1.400 . S
C1019 C1018 1.400 . S
C1019 C1020 1.398 . S
C1019 C1025 1.491 . S
C1020 H1011 0.950 . S
C1020 C1019 1.398 . S
C1020 C1021 1.391 . S
C1021 H1009 0.950 . S
C1021 C1017 1.393 . S
C1021 C1020 1.391 . S
C1022 H1012 0.950 . S
C1022 C1023 1.386 . S
C1022 C1024 1.391 . S
C1023 C1022 1.386 . S
C1023 C1027 1.393 . S
C1024 H1013 0.950 . S
C1024 C1022 1.391 . S
C1024 C1025 1.400 . S
C1025 C1019 1.491 . S
C1025 C1024 1.400 . S
C1025 C1026 1.398 . S
C1026 H1014 0.950 . S
C1026 C1025 1.398 . S
C1026 C1027 1.391 . S
C1027 H1015 0.950 . S
C1027 C1023 1.393 . S
C1027 C1026 1.391 . S
H1028 C1036 0.950 . S
H1029 C1041 0.950 . S
H1030 C1038 0.950 . S
H1031 C1040 0.950 . S
H1032 C1042 0.950 . S
H1033 C1044 0.950 . S
H1034 C1046 0.950 . S
H1035 C1047 0.950 . S
C1036 H1028 0.950 . S
C1036 C1037 1.386 . S
C1036 C1038 1.391 . S
C1037 C1036 1.386 . S
C1037 C1041 1.393 . S
C1038 H1030 0.950 . S
C1038 C1036 1.391 . S
C1038 C1039 1.400 . S
C1039 C1038 1.400 . S
C1039 C1040 1.398 . S
C1039 C1045 1.491 . S
C1040 H1031 0.950 . S
C1040 C1039 1.398 . S
C1040 C1041 1.391 . S
C1041 H1029 0.950 . S
C1041 C1037 1.393 . S
C1041 C1040 1.391 . S
C1042 H1032 0.950 . S
C1042 C1043 1.386 . S
C1042 C1044 1.391 . S
C1043 C1042 1.386 . S
C1043 C1047 1.393 . S
C1044 H1033 0.950 . S
C1044 C1042 1.391 . S
C1044 C1045 1.400 . S
C1045 C1039 1.491 . S
C1045 C1044 1.400 . S
C1045 C1046 1.398 . S
C1046 H1034 0.950 . S
C1046 C1045 1.398 . S
C1046 C1047 1.391 . S
C1047 H1035 0.950 . S
C1047 C1043 1.393 . S
C1047 C1046 1.391 . S
H1048 C1056 0.950 . S
H1049 C1061 0.950 . S
H1050 C1058 0.950 . S
H1051 C1060 0.950 . S
H1052 C1062 0.950 . S
H1053 C1064 0.950 . S
H1054 C1066 0.950 . S
H1055 C1067 0.950 . S
C1056 H1048 0.950 . S
C1056 C1057 1.386 . S
C1056 C1058 1.391 . S
C1057 C1056 1.386 . S
C1057 C1061 1.393 . S
C1058 H1050 0.950 . S
C1058 C1056 1.391 . S
C1058 C1059 1.400 . S
C1059 C1058 1.400 . S
C1059 C1060 1.398 . S
C1059 C1065 1.491 . S
C1060 H1051 0.950 . S
C1060 C1059 1.398 . S
C1060 C1061 1.391 . S
C1061 H1049 0.950 . S
C1061 C1057 1.393 . S
C1061 C1060 1.391 . S
C1062 H1052 0.950 . S
C1062 C1063 1.386 . S
C1062 C1064 1.391 . S
C1063 C1062 1.386 . S
C1063 C1067 1.393 . S
C1064 H1053 0.950 . S
C1064 C1062 1.391 . S
C1064 C1065 1.400 . S
C1065 C1059 1.491 . S
C1065 C1064 1.400 . S
C1065 C1066 1.398 . S
C1066 H1054 0.950 . S
C1066 C1065 1.398 . S
C1066 C1067 1.391 . S
C1067 H1055 0.950 . S
C1067 C1063 1.393 . S
C1067 C1066 1.391 . S
H1068 C1076 0.950 . S
H1069 C1081 0.950 . S
H1070 C1078 0.950 . S
H1071 C1080 0.950 . S
H1072 C1082 0.950 . S
H1073 C1084 0.950 . S
H1074 C1086 0.950 . S
H1075 C1087 0.950 . S
C1076 H1068 0.950 . S
C1076 C1077 1.386 . S
C1076 C1078 1.391 . S
C1077 C1076 1.386 . S
C1077 C1081 1.393 . S
C1078 H1070 0.950 . S
C1078 C1076 1.391 . S
C1078 C1079 1.400 . S
C1079 C1078 1.400 . S
C1079 C1080 1.398 . S
C1079 C1085 1.491 1_655 S
C1080 H1071 0.950 . S
C1080 C1079 1.398 . S
C1080 C1081 1.391 . S
C1081 H1069 0.950 . S
C1081 C1077 1.393 . S
C1081 C1080 1.391 . S
C1082 H1072 0.950 . S
C1082 C1083 1.386 . S
C1082 C1084 1.391 . S
C1083 C1082 1.386 . S
C1083 C1087 1.393 . S
C1084 H1073 0.950 . S
C1084 C1082 1.391 . S
C1084 C1085 1.400 . S
C1085 C1079 1.491 1_455 S
C1085 C1084 1.400 . S
C1085 C1086 1.398 . S
C1086 H1074 0.950 . S
C1086 C1085 1.398 . S
C1086 C1087 1.391 . S
C1087 H1075 0.950 . S
C1087 C1083 1.393 . S
C1087 C1086 1.391 . S
H1088 C1096 0.950 . S
H1089 C1101 0.950 . S
H1090 C1098 0.950 . S
H1091 C1100 0.950 . S
H1092 C1102 0.950 . S
H1093 C1104 0.950 . S
H1094 C1106 0.950 . S
H1095 C1107 0.950 . S
C1096 H1088 0.950 . S
C1096 C1097 1.386 . S
C1096 C1098 1.391 . S
C1097 C1096 1.386 . S
C1097 C1101 1.393 . S
C1098 H1090 0.950 . S
C1098 C1096 1.391 . S
C1098 C1099 1.400 . S
C1099 C1098 1.400 . S
C1099 C1100 1.398 . S
C1099 C1105 1.491 . S
C1100 H1091 0.950 . S
C1100 C1099 1.398 . S
C1100 C1101 1.391 . S
C1101 H1089 0.950 . S
C1101 C1097 1.393 . S
C1101 C1100 1.391 . S
C1102 H1092 0.950 . S
C1102 C1103 1.386 . S
C1102 C1104 1.391 . S
C1103 C1102 1.386 . S
C1103 C1107 1.393 . S
C1104 H1093 0.950 . S
C1104 C1102 1.391 . S
C1104 C1105 1.400 . S
C1105 C1099 1.491 . S
C1105 C1104 1.400 . S
C1105 C1106 1.398 . S
C1106 H1094 0.950 . S
C1106 C1105 1.398 . S
C1106 C1107 1.391 . S
C1107 H1095 0.950 . S
C1107 C1103 1.393 . S
C1107 C1106 1.391 . S
H1108 C1116 0.945 . S
H1109 C1121 0.950 . S
H1110 C1118 0.950 . S
H1111 C1120 0.950 . S
H1112 C1122 0.950 . S
H1113 C1124 0.950 . S
H1114 C1126 0.950 . S
H1115 C1127 0.950 . S
C1116 H1108 0.945 . S
C1116 C1117 1.345 1_545 S
C1116 C1118 1.444 . S
C1117 C1116 1.345 1_565 S
C1117 C1121 1.393 . S
C1118 H1110 0.950 . S
C1118 C1116 1.444 . S
C1118 C1119 1.400 1_545 S
C1119 C1118 1.400 1_565 S
C1119 C1120 1.398 . S
C1119 C1125 1.436 1_565 S
C1120 H1111 0.950 . S
C1120 C1119 1.398 . S
C1120 C1121 1.391 . S
C1121 H1109 0.950 . S
C1121 C1117 1.393 . S
C1121 C1120 1.391 . S
C1122 H1112 0.950 . S
C1122 C1123 1.386 1_565 S
C1122 C1124 1.391 . S
C1123 C1122 1.386 1_545 S
C1123 C1127 1.393 . S
C1124 H1113 0.950 . S
C1124 C1122 1.391 . S
C1124 C1125 1.413 1_565 S
C1125 C1119 1.436 1_545 S
C1125 C1124 1.413 1_545 S
C1125 C1126 1.450 . S
C1126 H1114 0.950 . S
C1126 C1125 1.450 . S
C1126 C1127 1.391 . S
C1127 H1115 0.950 . S
C1127 C1123 1.393 . S
C1127 C1126 1.391 . S
H1128 C1136 0.950 . S
H1129 C1141 0.933 . S
H1130 C1138 0.950 . S
H1131 C1140 0.963 1_545 S
H1132 C1142 0.950 . S
H1133 C1144 0.950 . S
H1134 C1146 0.963 1_565 S
H1135 C1147 0.933 . S
C1136 H1128 0.950 . S
C1136 C1137 1.386 1_554 S
C1136 C1138 1.391 . S
C1137 C1136 1.386 1_556 S
C1137 C1141 1.380 . S
C1138 H1130 0.950 . S
C1138 C1136 1.391 . S
C1138 C1139 1.390 1_554 S
C1139 C1138 1.390 1_556 S
C1139 C1140 1.387 . S
C1139 C1145 1.546 1_566 S
C1140 H1131 0.963 1_565 S
C1140 C1139 1.387 . S
C1140 C1141 1.422 . S
C1141 H1129 0.933 . S
C1141 C1137 1.380 . S
C1141 C1140 1.422 . S
C1142 H1132 0.950 . S
C1142 C1143 1.386 1_556 S
C1142 C1144 1.391 . S
C1143 C1142 1.386 1_554 S
C1143 C1147 1.381 . S
C1144 H1133 0.950 . S
C1144 C1142 1.391 . S
C1144 C1145 1.391 1_556 S
C1145 C1139 1.546 1_544 S
C1145 C1144 1.391 1_554 S
C1145 C1146 1.387 . S
C1146 H1134 0.963 1_545 S
C1146 C1145 1.387 . S
C1146 C1147 1.422 . S
C1147 H1135 0.933 . S
C1147 C1143 1.381 . S
C1147 C1146 1.422 . S
H1148 C1156 0.950 . S
H1149 C1161 0.950 . S
H1150 C1158 0.950 . S
H1151 C1160 0.950 . S
H1152 C1162 0.950 . S
H1153 C1164 0.950 . S
H1154 C1166 0.950 . S
H1155 C1167 0.950 . S
C1156 H1148 0.950 . S
C1156 C1157 1.386 1_455 S
C1156 C1158 1.391 . S
C1157 C1156 1.386 1_655 S
C1157 C1161 1.393 . S
C1158 H1150 0.950 . S
C1158 C1156 1.391 . S
C1158 C1159 1.386 1_455 S
C1159 C1158 1.386 1_655 S
C1159 C1160 1.432 . S
C1159 C1165 1.455 1_654 S
C1160 H1151 0.950 . S
C1160 C1159 1.432 . S
C1160 C1161 1.391 . S
C1161 H1149 0.950 . S
C1161 C1157 1.393 . S
C1161 C1160 1.391 . S
C1162 H1152 0.950 . S
C1162 C1163 1.386 1_655 S
C1162 C1164 1.391 . S
C1163 C1162 1.386 1_455 S
C1163 C1167 1.393 . S
C1164 H1153 0.950 . S
C1164 C1162 1.391 . S
C1164 C1165 1.386 1_655 S
C1165 C1159 1.455 1_456 S
C1165 C1164 1.386 1_455 S
C1165 C1166 1.432 . S
C1166 H1154 0.950 . S
C1166 C1165 1.432 . S
C1166 C1167 1.391 . S
C1167 H1155 0.950 . S
C1167 C1163 1.393 . S
C1167 C1166 1.391 . S
H1168 C1176 0.950 . S
H1169 C1181 0.950 . S
H1170 C1178 0.950 . S
H1171 C1180 0.950 . S
H1172 C1182 0.950 . S
H1173 C1184 0.950 . S
H1174 C1186 0.950 . S
H1175 C1187 0.950 . S
C1176 H1168 0.950 . S
C1176 C1177 1.386 1_556 S
C1176 C1178 1.391 . S
C1177 C1176 1.386 1_554 S
C1177 C1181 1.393 . S
C1178 H1170 0.950 . S
C1178 C1176 1.391 . S
C1178 C1179 1.396 1_556 S
C1179 C1178 1.396 1_554 S
C1179 C1180 1.403 . S
C1179 C1185 1.490 1_554 S
C1180 H1171 0.950 . S
C1180 C1179 1.403 . S
C1180 C1181 1.391 . S
C1181 H1169 0.950 . S
C1181 C1177 1.393 . S
C1181 C1180 1.391 . S
C1182 H1172 0.950 . S
C1182 C1183 1.386 1_554 S
C1182 C1184 1.391 . S
C1183 C1182 1.386 1_556 S
C1183 C1187 1.393 . S
C1184 H1173 0.950 . S
C1184 C1182 1.391 . S
C1184 C1185 1.398 1_554 S
C1185 C1179 1.490 1_556 S
C1185 C1184 1.398 1_556 S
C1185 C1186 1.401 . S
C1186 H1174 0.950 . S
C1186 C1185 1.401 . S
C1186 C1187 1.391 . S
C1187 H1175 0.950 . S
C1187 C1183 1.393 . S
C1187 C1186 1.391 . S
H1188 C1196 0.950 . S
H1189 C1201 0.950 . S
H1190 C1198 0.950 . S
H1191 C1200 0.950 . S
H1192 C1202 0.950 . S
H1193 C1204 0.950 . S
H1194 C1206 0.950 . S
H1195 C1207 0.950 . S
C1196 H1188 0.950 . S
C1196 C1197 1.386 . S
C1196 C1198 1.391 . S
C1197 C1196 1.386 . S
C1197 C1201 1.393 . S
C1198 H1190 0.950 . S
C1198 C1196 1.391 . S
C1198 C1199 1.400 . S
C1199 C1198 1.400 . S
C1199 C1200 1.398 . S
C1199 C1205 1.491 . S
C1200 H1191 0.950 . S
C1200 C1199 1.398 . S
C1200 C1201 1.391 . S
C1201 H1189 0.950 . S
C1201 C1197 1.393 . S
C1201 C1200 1.391 . S
C1202 H1192 0.950 . S
C1202 C1203 1.386 . S
C1202 C1204 1.391 . S
C1203 C1202 1.386 . S
C1203 C1207 1.393 . S
C1204 H1193 0.950 . S
C1204 C1202 1.391 . S
C1204 C1205 1.400 . S
C1205 C1199 1.491 . S
C1205 C1204 1.400 . S
C1205 C1206 1.398 . S
C1206 H1194 0.950 . S
C1206 C1205 1.398 . S
C1206 C1207 1.391 . S
C1207 H1195 0.950 . S
C1207 C1203 1.393 . S
C1207 C1206 1.391 . S
H1208 C1216 0.950 . S
H1209 C1221 0.950 . S
H1210 C1218 0.950 . S
H1211 C1220 0.950 . S
H1212 C1222 0.950 . S
H1213 C1224 0.950 . S
H1214 C1226 0.950 . S
H1215 C1227 0.950 . S
C1216 H1208 0.950 . S
C1216 C1217 1.386 . S
C1216 C1218 1.391 . S
C1217 C1216 1.386 . S
C1217 C1221 1.393 . S
C1218 H1210 0.950 . S
C1218 C1216 1.391 . S
C1218 C1219 1.400 . S
C1219 C1218 1.400 . S
C1219 C1220 1.398 . S
C1219 C1225 1.491 . S
C1220 H1211 0.950 . S
C1220 C1219 1.398 . S
C1220 C1221 1.391 . S
C1221 H1209 0.950 . S
C1221 C1217 1.393 . S
C1221 C1220 1.391 . S
C1222 H1212 0.950 . S
C1222 C1223 1.386 . S
C1222 C1224 1.391 . S
C1223 C1222 1.386 . S
C1223 C1227 1.393 . S
C1224 H1213 0.950 . S
C1224 C1222 1.391 . S
C1224 C1225 1.400 . S
C1225 C1219 1.491 . S
C1225 C1224 1.400 . S
C1225 C1226 1.398 . S
C1226 H1214 0.950 . S
C1226 C1225 1.398 . S
C1226 C1227 1.391 . S
C1227 H1215 0.950 . S
C1227 C1223 1.393 . S
C1227 C1226 1.391 . S
H1228 C1236 0.950 . S
H1229 C1241 0.950 . S
H1230 C1238 0.950 . S
H1231 C1240 0.950 . S
H1232 C1242 0.950 . S
H1233 C1244 0.950 . S
H1234 C1246 0.950 . S
H1235 C1247 0.950 . S
C1236 H1228 0.950 . S
C1236 C1237 1.386 . S
C1236 C1238 1.391 . S
C1237 C1236 1.386 . S
C1237 C1241 1.393 . S
C1238 H1230 0.950 . S
C1238 C1236 1.391 . S
C1238 C1239 1.400 . S
C1239 C1238 1.400 . S
C1239 C1240 1.398 . S
C1239 C1245 1.491 . S
C1240 H1231 0.950 . S
C1240 C1239 1.398 . S
C1240 C1241 1.391 . S
C1241 H1229 0.950 . S
C1241 C1237 1.393 . S
C1241 C1240 1.391 . S
C1242 H1232 0.950 . S
C1242 C1243 1.386 . S
C1242 C1244 1.391 . S
C1243 C1242 1.386 . S
C1243 C1247 1.393 . S
C1244 H1233 0.950 . S
C1244 C1242 1.391 . S
C1244 C1245 1.400 . S
C1245 C1239 1.491 . S
C1245 C1244 1.400 . S
C1245 C1246 1.398 . S
C1246 H1234 0.950 . S
C1246 C1245 1.398 . S
C1246 C1247 1.391 . S
C1247 H1235 0.950 . S
C1247 C1243 1.393 . S
C1247 C1246 1.391 . S
H1248 C1256 0.950 . S
H1249 C1261 0.950 . S
H1250 C1258 0.950 . S
H1251 C1260 0.950 . S
H1252 C1262 0.950 . S
H1253 C1264 0.950 . S
H1254 C1266 0.950 . S
H1255 C1267 0.950 . S
C1256 H1248 0.950 . S
C1256 C1257 1.386 . S
C1256 C1258 1.391 . S
C1257 C1256 1.386 . S
C1257 C1261 1.393 . S
C1258 H1250 0.950 . S
C1258 C1256 1.391 . S
C1258 C1259 1.400 . S
C1259 C1258 1.400 . S
C1259 C1260 1.398 . S
C1259 C1265 1.491 . S
C1260 H1251 0.950 . S
C1260 C1259 1.398 . S
C1260 C1261 1.391 . S
C1261 H1249 0.950 . S
C1261 C1257 1.393 . S
C1261 C1260 1.391 . S
C1262 H1252 0.950 . S
C1262 C1263 1.386 . S
C1262 C1264 1.391 . S
C1263 C1262 1.386 . S
C1263 C1267 1.393 . S
C1264 H1253 0.950 . S
C1264 C1262 1.391 . S
C1264 C1265 1.400 . S
C1265 C1259 1.491 . S
C1265 C1264 1.400 . S
C1265 C1266 1.398 . S
C1266 H1254 0.950 . S
C1266 C1265 1.398 . S
C1266 C1267 1.391 . S
C1267 H1255 0.950 . S
C1267 C1263 1.393 . S
C1267 C1266 1.391 . S
H1268 C1276 0.950 . S
H1269 C1281 0.950 . S
H1270 C1278 0.950 . S
H1271 C1280 0.950 . S
H1272 C1282 0.950 . S
H1273 C1284 0.950 . S
H1274 C1286 0.950 . S
H1275 C1287 0.950 . S
C1276 H1268 0.950 . S
C1276 C1277 1.386 . S
C1276 C1278 1.391 . S
C1277 C1276 1.386 . S
C1277 C1281 1.393 . S
C1278 H1270 0.950 . S
C1278 C1276 1.391 . S
C1278 C1279 1.400 . S
C1279 C1278 1.400 . S
C1279 C1280 1.398 . S
C1279 C1285 1.491 . S
C1280 H1271 0.950 . S
C1280 C1279 1.398 . S
C1280 C1281 1.391 . S
C1281 H1269 0.950 . S
C1281 C1277 1.393 . S
C1281 C1280 1.391 . S
C1282 H1272 0.950 . S
C1282 C1283 1.386 . S
C1282 C1284 1.391 . S
C1283 C1282 1.386 . S
C1283 C1287 1.393 . S
C1284 H1273 0.950 . S
C1284 C1282 1.391 . S
C1284 C1285 1.400 . S
C1285 C1279 1.491 . S
C1285 C1284 1.400 . S
C1285 C1286 1.398 . S
C1286 H1274 0.950 . S
C1286 C1285 1.398 . S
C1286 C1287 1.391 . S
C1287 H1275 0.950 . S
C1287 C1283 1.393 . S
C1287 C1286 1.391 . S
H1288 C1296 0.950 . S
H1289 C1301 0.950 . S
H1290 C1298 0.950 . S
H1291 C1300 0.950 . S
H1292 C1302 0.950 . S
H1293 C1304 0.950 . S
H1294 C1306 0.950 . S
H1295 C1307 0.950 . S
C1296 H1288 0.950 . S
C1296 C1297 1.386 . S
C1296 C1298 1.391 . S
C1297 C1296 1.386 . S
C1297 C1301 1.393 . S
C1298 H1290 0.950 . S
C1298 C1296 1.391 . S
C1298 C1299 1.400 . S
C1299 C1298 1.400 . S
C1299 C1300 1.398 . S
C1299 C1305 1.491 . S
C1300 H1291 0.950 . S
C1300 C1299 1.398 . S
C1300 C1301 1.391 . S
C1301 H1289 0.950 . S
C1301 C1297 1.393 . S
C1301 C1300 1.391 . S
C1302 H1292 0.950 . S
C1302 C1303 1.386 . S
C1302 C1304 1.391 . S
C1303 C1302 1.386 . S
C1303 C1307 1.393 . S
C1304 H1293 0.950 . S
C1304 C1302 1.391 . S
C1304 C1305 1.400 . S
C1305 C1299 1.491 . S
C1305 C1304 1.400 . S
C1305 C1306 1.398 . S
C1306 H1294 0.950 . S
C1306 C1305 1.398 . S
C1306 C1307 1.391 . S
C1307 H1295 0.950 . S
C1307 C1303 1.393 . S
C1307 C1306 1.391 . S
H1308 C1316 0.950 . S
H1309 C1321 0.950 . S
H1310 C1318 0.950 . S
H1311 C1320 0.950 . S
H1312 C1322 0.950 . S
H1313 C1324 0.950 . S
H1314 C1326 0.950 . S
H1315 C1327 0.950 . S
C1316 H1308 0.950 . S
C1316 C1317 1.386 . S
C1316 C1318 1.391 . S
C1317 C1316 1.386 . S
C1317 C1321 1.393 . S
C1318 H1310 0.950 . S
C1318 C1316 1.391 . S
C1318 C1319 1.400 . S
C1319 C1318 1.400 . S
C1319 C1320 1.398 . S
C1319 C1325 1.491 . S
C1320 H1311 0.950 . S
C1320 C1319 1.398 . S
C1320 C1321 1.391 . S
C1321 H1309 0.950 . S
C1321 C1317 1.393 . S
C1321 C1320 1.391 . S
C1322 H1312 0.950 . S
C1322 C1323 1.386 . S
C1322 C1324 1.391 . S
C1323 C1322 1.386 . S
C1323 C1327 1.393 . S
C1324 H1313 0.950 . S
C1324 C1322 1.391 . S
C1324 C1325 1.400 . S
C1325 C1319 1.491 . S
C1325 C1324 1.400 . S
C1325 C1326 1.398 . S
C1326 H1314 0.950 . S
C1326 C1325 1.398 . S
C1326 C1327 1.391 . S
C1327 H1315 0.950 . S
C1327 C1323 1.393 . S
C1327 C1326 1.391 . S
H1328 C1336 0.950 . S
H1329 C1341 0.950 . S
H1330 C1338 0.950 . S
H1331 C1340 0.950 . S
H1332 C1342 0.950 . S
H1333 C1344 0.950 . S
H1334 C1346 0.950 . S
H1335 C1347 0.950 1_554 S
C1336 H1328 0.950 . S
C1336 C1337 1.386 . S
C1336 C1338 1.391 . S
C1337 C1336 1.386 . S
C1337 C1341 1.393 . S
C1338 H1330 0.950 . S
C1338 C1336 1.391 . S
C1338 C1339 1.400 . S
C1339 C1338 1.400 . S
C1339 C1340 1.398 . S
C1339 C1345 1.491 . S
C1340 H1331 0.950 . S
C1340 C1339 1.398 . S
C1340 C1341 1.391 . S
C1341 H1329 0.950 . S
C1341 C1337 1.393 . S
C1341 C1340 1.391 . S
C1342 H1332 0.950 . S
C1342 C1343 1.386 . S
C1342 C1344 1.391 . S
C1343 C1342 1.386 . S
C1343 C1347 1.393 . S
C1344 H1333 0.950 . S
C1344 C1342 1.391 . S
C1344 C1345 1.400 . S
C1345 C1339 1.491 . S
C1345 C1344 1.400 . S
C1345 C1346 1.398 . S
C1346 H1334 0.950 . S
C1346 C1345 1.398 . S
C1346 C1347 1.391 . S
C1347 H1335 0.950 1_556 S
C1347 C1343 1.393 . S
C1347 C1346 1.391 . S
H1348 C1356 0.950 1_554 S
H1349 C1361 0.950 . S
H1350 C1358 0.950 . S
H1351 C1360 0.950 . S
H1352 C1362 0.950 . S
H1353 C1364 0.950 . S
H1354 C1366 0.950 . S
H1355 C1367 0.950 . S
C1356 H1348 0.950 1_556 S
C1356 C1357 1.386 . S
C1356 C1358 1.391 . S
C1357 C1356 1.386 . S
C1357 C1361 1.393 . S
C1358 H1350 0.950 . S
C1358 C1356 1.391 . S
C1358 C1359 1.400 . S
C1359 C1358 1.400 . S
C1359 C1360 1.398 . S
C1359 C1365 1.491 . S
C1360 H1351 0.950 . S
C1360 C1359 1.398 . S
C1360 C1361 1.391 . S
C1361 H1349 0.950 . S
C1361 C1357 1.393 . S
C1361 C1360 1.391 . S
C1362 H1352 0.950 . S
C1362 C1363 1.386 . S
C1362 C1364 1.391 . S
C1363 C1362 1.386 . S
C1363 C1367 1.393 . S
C1364 H1353 0.950 . S
C1364 C1362 1.391 . S
C1364 C1365 1.400 . S
C1365 C1359 1.491 . S
C1365 C1364 1.400 . S
C1365 C1366 1.398 . S
C1366 H1354 0.950 . S
C1366 C1365 1.398 . S
C1366 C1367 1.391 . S
C1367 H1355 0.950 . S
C1367 C1363 1.393 . S
C1367 C1366 1.391 . S
H1368 C1376 0.950 . S
H1369 C1381 0.950 . S
H1370 C1378 0.950 . S
H1371 C1380 0.950 . S
H1372 C1382 0.950 . S
H1373 C1384 0.950 . S
H1374 C1386 0.950 . S
H1375 C1387 0.950 . S
C1376 H1368 0.950 . S
C1376 C1377 1.386 . S
C1376 C1378 1.391 . S
C1377 C1376 1.386 . S
C1377 C1381 1.393 . S
C1378 H1370 0.950 . S
C1378 C1376 1.391 . S
C1378 C1379 1.400 . S
C1379 C1378 1.400 . S
C1379 C1380 1.398 . S
C1379 C1385 1.491 . S
C1380 H1371 0.950 . S
C1380 C1379 1.398 . S
C1380 C1381 1.391 . S
C1381 H1369 0.950 . S
C1381 C1377 1.393 . S
C1381 C1380 1.391 . S
C1382 H1372 0.950 . S
C1382 C1383 1.386 . S
C1382 C1384 1.391 . S
C1383 C1382 1.386 . S
C1383 C1387 1.393 . S
C1384 H1373 0.950 . S
C1384 C1382 1.391 . S
C1384 C1385 1.400 . S
C1385 C1379 1.491 . S
C1385 C1384 1.400 . S
C1385 C1386 1.398 . S
C1386 H1374 0.950 . S
C1386 C1385 1.398 . S
C1386 C1387 1.391 . S
C1387 H1375 0.950 . S
C1387 C1383 1.393 . S
C1387 C1386 1.391 . S
H1388 C1396 0.950 . S
H1389 C1401 0.950 . S
H1390 C1398 0.950 . S
H1391 C1400 0.950 . S
H1392 C1402 0.950 . S
H1393 C1404 0.950 . S
H1394 C1406 0.950 . S
H1395 C1407 0.950 . S
C1396 H1388 0.950 . S
C1396 C1397 1.386 . S
C1396 C1398 1.391 . S
C1397 C1396 1.386 . S
C1397 C1401 1.393 . S
C1398 H1390 0.950 . S
C1398 C1396 1.391 . S
C1398 C1399 1.400 . S
C1399 C1398 1.400 . S
C1399 C1400 1.398 . S
C1399 C1405 1.491 . S
C1400 H1391 0.950 . S
C1400 C1399 1.398 . S
C1400 C1401 1.391 . S
C1401 H1389 0.950 . S
C1401 C1397 1.393 . S
C1401 C1400 1.391 . S
C1402 H1392 0.950 . S
C1402 C1403 1.386 . S
C1402 C1404 1.391 . S
C1403 C1402 1.386 . S
C1403 C1407 1.393 . S
C1404 H1393 0.950 . S
C1404 C1402 1.391 . S
C1404 C1405 1.400 . S
C1405 C1399 1.491 . S
C1405 C1404 1.400 . S
C1405 C1406 1.398 . S
C1406 H1394 0.950 . S
C1406 C1405 1.398 . S
C1406 C1407 1.391 . S
C1407 H1395 0.950 . S
C1407 C1403 1.393 . S
C1407 C1406 1.391 . S
H1408 C1416 0.950 . S
H1409 C1421 0.950 . S
H1410 C1418 0.950 . S
H1411 C1420 0.950 . S
H1412 C1422 0.950 . S
H1413 C1424 0.950 . S
H1414 C1426 0.950 . S
H1415 C1427 0.950 . S
C1416 H1408 0.950 . S
C1416 C1417 1.386 . S
C1416 C1418 1.391 . S
C1417 C1416 1.386 . S
C1417 C1421 1.393 . S
C1418 H1410 0.950 . S
C1418 C1416 1.391 . S
C1418 C1419 1.400 . S
C1419 C1418 1.400 . S
C1419 C1420 1.398 . S
C1419 C1425 1.491 . S
C1420 H1411 0.950 . S
C1420 C1419 1.398 . S
C1420 C1421 1.391 . S
C1421 H1409 0.950 . S
C1421 C1417 1.393 . S
C1421 C1420 1.391 . S
C1422 H1412 0.950 . S
C1422 C1423 1.386 . S
C1422 C1424 1.391 . S
C1423 C1422 1.386 . S
C1423 C1427 1.393 . S
C1424 H1413 0.950 . S
C1424 C1422 1.391 . S
C1424 C1425 1.400 . S
C1425 C1419 1.491 . S
C1425 C1424 1.400 . S
C1425 C1426 1.398 . S
C1426 H1414 0.950 . S
C1426 C1425 1.398 . S
C1426 C1427 1.391 . S
C1427 H1415 0.950 . S
C1427 C1423 1.393 . S
C1427 C1426 1.391 . S
H1428 C1436 0.950 . S
H1429 C1441 0.950 . S
H1430 C1438 0.950 . S
H1431 C1440 0.950 . S
H1432 C1442 0.950 . S
H1433 C1444 0.950 . S
H1434 C1446 0.950 . S
H1435 C1447 0.950 . S
C1436 H1428 0.950 . S
C1436 C1437 1.386 . S
C1436 C1438 1.391 . S
C1437 C1436 1.386 . S
C1437 C1441 1.393 . S
C1438 H1430 0.950 . S
C1438 C1436 1.391 . S
C1438 C1439 1.400 . S
C1439 C1438 1.400 . S
C1439 C1440 1.398 . S
C1439 C1445 1.491 . S
C1440 H1431 0.950 . S
C1440 C1439 1.398 . S
C1440 C1441 1.391 . S
C1441 H1429 0.950 . S
C1441 C1437 1.393 . S
C1441 C1440 1.391 . S
C1442 H1432 0.950 . S
C1442 C1443 1.386 . S
C1442 C1444 1.391 . S
C1443 C1442 1.386 . S
C1443 C1447 1.393 . S
C1444 H1433 0.950 . S
C1444 C1442 1.391 . S
C1444 C1445 1.400 . S
C1445 C1439 1.491 . S
C1445 C1444 1.400 . S
C1445 C1446 1.398 . S
C1446 H1434 0.950 . S
C1446 C1445 1.398 . S
C1446 C1447 1.391 . S
C1447 H1435 0.950 . S
C1447 C1443 1.393 . S
C1447 C1446 1.391 . S
H1448 C1456 0.950 . S
H1449 C1461 0.950 . S
H1450 C1458 0.950 . S
H1451 C1460 0.950 . S
H1452 C1462 0.950 . S
H1453 C1464 0.950 . S
H1454 C1466 0.950 . S
H1455 C1467 0.950 . S
C1456 H1448 0.950 . S
C1456 C1457 1.386 . S
C1456 C1458 1.391 . S
C1457 C1456 1.386 . S
C1457 C1461 1.393 . S
C1458 H1450 0.950 . S
C1458 C1456 1.391 . S
C1458 C1459 1.400 . S
C1459 C1458 1.400 . S
C1459 C1460 1.398 . S
C1459 C1465 1.491 1_565 S
C1460 H1451 0.950 . S
C1460 C1459 1.398 . S
C1460 C1461 1.391 . S
C1461 H1449 0.950 . S
C1461 C1457 1.393 . S
C1461 C1460 1.391 . S
C1462 H1452 0.950 . S
C1462 C1463 1.386 . S
C1462 C1464 1.391 . S
C1463 C1462 1.386 . S
C1463 C1467 1.393 . S
C1464 H1453 0.950 . S
C1464 C1462 1.391 . S
C1464 C1465 1.400 . S
C1465 C1459 1.491 1_545 S
C1465 C1464 1.400 . S
C1465 C1466 1.398 . S
C1466 H1454 0.950 . S
C1466 C1465 1.398 . S
C1466 C1467 1.391 . S
C1467 H1455 0.950 . S
C1467 C1463 1.393 . S
C1467 C1466 1.391 . S
H1468 C1476 0.950 . S
H1469 C1481 0.950 . S
H1470 C1478 0.950 . S
H1471 C1480 0.950 . S
H1472 C1482 0.950 . S
H1473 C1484 0.950 . S
H1474 C1486 0.950 . S
H1475 C1487 0.950 . S
C1476 H1468 0.950 . S
C1476 C1477 1.386 . S
C1476 C1478 1.391 . S
C1477 C1476 1.386 . S
C1477 C1481 1.393 . S
C1478 H1470 0.950 . S
C1478 C1476 1.391 . S
C1478 C1479 1.400 . S
C1479 C1478 1.400 . S
C1479 C1480 1.398 . S
C1479 C1485 1.491 1_455 S
C1480 H1471 0.950 . S
C1480 C1479 1.398 . S
C1480 C1481 1.391 . S
C1481 H1469 0.950 . S
C1481 C1477 1.393 . S
C1481 C1480 1.391 . S
C1482 H1472 0.950 . S
C1482 C1483 1.386 . S
C1482 C1484 1.391 . S
C1483 C1482 1.386 . S
C1483 C1487 1.393 . S
C1484 H1473 0.950 . S
C1484 C1482 1.391 . S
C1484 C1485 1.400 . S
C1485 C1479 1.491 1_655 S
C1485 C1484 1.400 . S
C1485 C1486 1.398 . S
C1486 H1474 0.950 . S
C1486 C1485 1.398 . S
C1486 C1487 1.391 . S
C1487 H1475 0.950 . S
C1487 C1483 1.393 . S
C1487 C1486 1.391 . S
H1488 C1496 0.950 . S
H1489 C1501 0.950 . S
H1490 C1498 0.950 . S
H1491 C1500 0.950 . S
H1492 C1502 0.950 . S
H1493 C1504 0.950 . S
H1494 C1506 0.950 . S
H1495 C1507 0.950 . S
C1496 H1488 0.950 . S
C1496 C1497 1.386 . S
C1496 C1498 1.391 . S
C1497 C1496 1.386 . S
C1497 C1501 1.393 . S
C1498 H1490 0.950 . S
C1498 C1496 1.391 . S
C1498 C1499 1.400 . S
C1499 C1498 1.400 . S
C1499 C1500 1.398 . S
C1499 C1505 1.491 . S
C1500 H1491 0.950 . S
C1500 C1499 1.398 . S
C1500 C1501 1.391 . S
C1501 H1489 0.950 . S
C1501 C1497 1.393 . S
C1501 C1500 1.391 . S
C1502 H1492 0.950 . S
C1502 C1503 1.386 . S
C1502 C1504 1.391 . S
C1503 C1502 1.386 . S
C1503 C1507 1.393 . S
C1504 H1493 0.950 . S
C1504 C1502 1.391 . S
C1504 C1505 1.400 . S
C1505 C1499 1.491 . S
C1505 C1504 1.400 . S
C1505 C1506 1.398 . S
C1506 H1494 0.950 . S
C1506 C1505 1.398 . S
C1506 C1507 1.391 . S
C1507 H1495 0.950 . S
C1507 C1503 1.393 . S
C1507 C1506 1.391 . S
H1508 C1516 0.950 . S
H1509 C1521 0.950 . S
H1510 C1518 0.950 . S
H1511 C1520 0.950 . S
H1512 C1522 0.950 . S
H1513 C1524 0.950 . S
H1514 C1526 0.950 . S
H1515 C1527 0.950 . S
C1516 H1508 0.950 . S
C1516 C1517 1.386 . S
C1516 C1518 1.391 . S
C1517 C1516 1.386 . S
C1517 C1521 1.393 . S
C1518 H1510 0.950 . S
C1518 C1516 1.391 . S
C1518 C1519 1.400 . S
C1519 C1518 1.400 . S
C1519 C1520 1.398 . S
C1519 C1525 1.491 1_565 S
C1520 H1511 0.950 . S
C1520 C1519 1.398 . S
C1520 C1521 1.391 . S
C1521 H1509 0.950 . S
C1521 C1517 1.393 . S
C1521 C1520 1.391 . S
C1522 H1512 0.950 . S
C1522 C1523 1.386 . S
C1522 C1524 1.391 . S
C1523 C1522 1.386 . S
C1523 C1527 1.393 . S
C1524 H1513 0.950 . S
C1524 C1522 1.391 . S
C1524 C1525 1.400 . S
C1525 C1519 1.491 1_545 S
C1525 C1524 1.400 . S
C1525 C1526 1.398 . S
C1526 H1514 0.950 . S
C1526 C1525 1.398 . S
C1526 C1527 1.391 . S
C1527 H1515 0.950 . S
C1527 C1523 1.393 . S
C1527 C1526 1.391 . S
H1528 C1536 0.950 . S
H1529 C1541 0.950 . S
H1530 C1538 0.950 . S
H1531 C1540 0.950 . S
H1532 C1542 0.950 . S
H1533 C1544 0.950 . S
H1534 C1546 0.950 . S
H1535 C1547 0.950 . S
C1536 H1528 0.950 . S
C1536 C1537 1.386 . S
C1536 C1538 1.391 . S
C1537 C1536 1.386 . S
C1537 C1541 1.393 . S
C1538 H1530 0.950 . S
C1538 C1536 1.391 . S
C1538 C1539 1.400 . S
C1539 C1538 1.400 . S
C1539 C1540 1.398 . S
C1539 C1545 1.491 1_455 S
C1540 H1531 0.950 . S
C1540 C1539 1.398 . S
C1540 C1541 1.391 . S
C1541 H1529 0.950 . S
C1541 C1537 1.393 . S
C1541 C1540 1.391 . S
C1542 H1532 0.950 . S
C1542 C1543 1.386 . S
C1542 C1544 1.391 . S
C1543 C1542 1.386 . S
C1543 C1547 1.393 . S
C1544 H1533 0.950 . S
C1544 C1542 1.391 . S
C1544 C1545 1.400 . S
C1545 C1539 1.491 1_655 S
C1545 C1544 1.400 . S
C1545 C1546 1.398 . S
C1546 H1534 0.950 . S
C1546 C1545 1.398 . S
C1546 C1547 1.391 . S
C1547 H1535 0.950 . S
C1547 C1543 1.393 . S
C1547 C1546 1.391 . S
H1548 C1556 0.950 . S
H1549 C1561 0.950 . S
H1550 C1558 0.950 . S
H1551 C1560 0.950 . S
H1552 C1562 0.950 . S
H1553 C1564 0.950 . S
H1554 C1566 0.950 . S
H1555 C1567 0.950 . S
C1556 H1548 0.950 . S
C1556 C1557 1.386 . S
C1556 C1558 1.391 1_554 S
C1557 C1556 1.386 . S
C1557 C1561 1.393 . S
C1558 H1550 0.950 . S
C1558 C1556 1.391 1_556 S
C1558 C1559 1.400 . S
C1559 C1558 1.400 . S
C1559 C1560 1.398 . S
C1559 C1565 1.491 . S
C1560 H1551 0.950 . S
C1560 C1559 1.398 . S
C1560 C1561 1.391 1_556 S
C1561 H1549 0.950 . S
C1561 C1557 1.393 . S
C1561 C1560 1.391 1_554 S
C1562 H1552 0.950 . S
C1562 C1563 1.386 . S
C1562 C1564 1.391 . S
C1563 C1562 1.386 . S
C1563 C1567 1.393 . S
C1564 H1553 0.950 . S
C1564 C1562 1.391 . S
C1564 C1565 1.400 . S
C1565 C1559 1.491 . S
C1565 C1564 1.400 . S
C1565 C1566 1.398 . S
C1566 H1554 0.950 . S
C1566 C1565 1.398 . S
C1566 C1567 1.391 . S
C1567 H1555 0.950 . S
C1567 C1563 1.393 . S
C1567 C1566 1.391 . S
H1568 C1576 0.954 . S
H1569 C1581 0.950 . S
H1570 C1578 0.950 . S
H1571 C1580 0.950 . S
H1572 C1582 0.950 . S
H1573 C1584 0.950 . S
H1574 C1586 0.950 . S
H1575 C1587 0.950 . S
C1576 H1568 0.954 . S
C1576 C1577 1.392 . S
C1576 C1578 1.380 1_554 S
C1577 C1576 1.392 . S
C1577 C1581 1.393 . S
C1578 H1570 0.950 . S
C1578 C1576 1.380 1_556 S
C1578 C1579 1.400 . S
C1579 C1578 1.400 . S
C1579 C1580 1.398 . S
C1579 C1585 1.491 . S
C1580 H1571 0.950 . S
C1580 C1579 1.398 . S
C1580 C1581 1.391 1_556 S
C1581 H1569 0.950 . S
C1581 C1577 1.393 . S
C1581 C1580 1.391 1_554 S
C1582 H1572 0.950 . S
C1582 C1583 1.386 . S
C1582 C1584 1.391 . S
C1583 C1582 1.386 . S
C1583 C1587 1.393 . S
C1584 H1573 0.950 . S
C1584 C1582 1.391 . S
C1584 C1585 1.400 . S
C1585 C1579 1.491 . S
C1585 C1584 1.400 . S
C1585 C1586 1.398 . S
C1586 H1574 0.950 . S
C1586 C1585 1.398 . S
C1586 C1587 1.391 . S
C1587 H1575 0.950 . S
C1587 C1583 1.393 . S
C1587 C1586 1.391 . S
H1588 C1596 0.950 1_554 S
H1589 C1601 0.950 . S
H1590 C1598 0.950 . S
H1591 C1600 0.950 . S
H1592 C1602 0.950 . S
H1593 C1604 0.950 . S
H1594 C1606 0.950 . S
H1595 C1607 0.950 . S
C1596 H1588 0.950 1_556 S
C1596 C1597 1.386 1_556 S
C1596 C1598 1.391 . S
C1597 C1596 1.386 1_554 S
C1597 C1601 1.393 . S
C1598 H1590 0.950 . S
C1598 C1596 1.391 . S
C1598 C1599 1.400 . S
C1599 C1598 1.400 . S
C1599 C1600 1.398 . S
C1599 C1605 1.491 . S
C1600 H1591 0.950 . S
C1600 C1599 1.398 . S
C1600 C1601 1.391 1_556 S
C1601 H1589 0.950 . S
C1601 C1597 1.393 . S
C1601 C1600 1.391 1_554 S
C1602 H1592 0.950 . S
C1602 C1603 1.386 . S
C1602 C1604 1.391 . S
C1603 C1602 1.386 . S
C1603 C1607 1.393 . S
C1604 H1593 0.950 . S
C1604 C1602 1.391 . S
C1604 C1605 1.400 . S
C1605 C1599 1.491 . S
C1605 C1604 1.400 . S
C1605 C1606 1.398 . S
C1606 H1594 0.950 . S
C1606 C1605 1.398 . S
C1606 C1607 1.391 . S
C1607 H1595 0.950 . S
C1607 C1603 1.393 . S
C1607 C1606 1.391 . S
H1608 C1616 0.950 . S
H1609 C1621 0.950 . S
H1610 C1618 0.950 . S
H1611 C1620 0.950 . S
H1612 C1622 0.950 . S
H1613 C1624 0.950 . S
H1614 C1626 0.950 . S
H1615 C1627 0.950 . S
C1616 H1608 0.950 . S
C1616 C1617 1.386 . S
C1616 C1618 1.391 . S
C1617 C1616 1.386 . S
C1617 C1621 1.393 . S
C1618 H1610 0.950 . S
C1618 C1616 1.391 . S
C1618 C1619 1.400 . S
C1619 C1618 1.400 . S
C1619 C1620 1.398 . S
C1619 C1625 1.491 . S
C1620 H1611 0.950 . S
C1620 C1619 1.398 . S
C1620 C1621 1.391 . S
C1621 H1609 0.950 . S
C1621 C1617 1.393 . S
C1621 C1620 1.391 . S
C1622 H1612 0.950 . S
C1622 C1623 1.386 . S
C1622 C1624 1.391 . S
C1623 C1622 1.386 . S
C1623 C1627 1.393 . S
C1624 H1613 0.950 . S
C1624 C1622 1.391 . S
C1624 C1625 1.400 . S
C1625 C1619 1.491 . S
C1625 C1624 1.400 . S
C1625 C1626 1.398 . S
C1626 H1614 0.950 . S
C1626 C1625 1.398 . S
C1626 C1627 1.391 . S
C1627 H1615 0.950 . S
C1627 C1623 1.393 . S
C1627 C1626 1.391 . S
H1628 C1636 0.950 . S
H1629 C1641 0.950 . S
H1630 C1638 0.950 . S
H1631 C1640 0.950 . S
H1632 C1642 0.950 . S
H1633 C1644 0.950 . S
H1634 C1646 0.950 . S
H1635 C1647 0.950 . S
C1636 H1628 0.950 . S
C1636 C1637 1.386 . S
C1636 C1638 1.391 . S
C1637 C1636 1.386 . S
C1637 C1641 1.393 . S
C1638 H1630 0.950 . S
C1638 C1636 1.391 . S
C1638 C1639 1.400 . S
C1639 C1638 1.400 . S
C1639 C1640 1.398 . S
C1639 C1645 1.491 . S
C1640 H1631 0.950 . S
C1640 C1639 1.398 . S
C1640 C1641 1.391 . S
C1641 H1629 0.950 . S
C1641 C1637 1.393 . S
C1641 C1640 1.391 . S
C1642 H1632 0.950 . S
C1642 C1643 1.386 . S
C1642 C1644 1.391 . S
C1643 C1642 1.386 . S
C1643 C1647 1.393 . S
C1644 H1633 0.950 . S
C1644 C1642 1.391 . S
C1644 C1645 1.400 . S
C1645 C1639 1.491 . S
C1645 C1644 1.400 . S
C1645 C1646 1.398 . S
C1646 H1634 0.950 . S
C1646 C1645 1.398 . S
C1646 C1647 1.391 . S
C1647 H1635 0.950 . S
C1647 C1643 1.393 . S
C1647 C1646 1.391 . S
H1648 C1656 0.950 . S
H1649 C1661 0.950 . S
H1650 C1658 0.950 . S
H1651 C1660 0.950 . S
H1652 C1662 0.950 . S
H1653 C1664 0.950 . S
H1654 C1666 0.950 . S
H1655 C1667 0.950 . S
C1656 H1648 0.950 . S
C1656 C1657 1.386 . S
C1656 C1658 1.391 . S
C1657 C1656 1.386 . S
C1657 C1661 1.393 . S
C1658 H1650 0.950 . S
C1658 C1656 1.391 . S
C1658 C1659 1.400 . S
C1659 C1658 1.400 . S
C1659 C1660 1.398 . S
C1659 C1665 1.491 . S
C1660 H1651 0.950 . S
C1660 C1659 1.398 . S
C1660 C1661 1.391 . S
C1661 H1649 0.950 . S
C1661 C1657 1.393 . S
C1661 C1660 1.391 . S
C1662 H1652 0.950 . S
C1662 C1663 1.386 . S
C1662 C1664 1.391 . S
C1663 C1662 1.386 . S
C1663 C1667 1.393 . S
C1664 H1653 0.950 . S
C1664 C1662 1.391 . S
C1664 C1665 1.400 . S
C1665 C1659 1.491 . S
C1665 C1664 1.400 . S
C1665 C1666 1.398 . S
C1666 H1654 0.950 . S
C1666 C1665 1.398 . S
C1666 C1667 1.391 . S
C1667 H1655 0.950 . S
C1667 C1663 1.393 . S
C1667 C1666 1.391 . S
H1668 C1676 0.950 . S
H1669 C1681 0.950 . S
H1670 C1678 0.950 . S
H1671 C1680 0.950 . S
H1672 C1682 0.950 . S
H1673 C1684 0.950 . S
H1674 C1686 0.950 . S
H1675 C1687 0.950 . S
C1676 H1668 0.950 . S
C1676 C1677 1.386 . S
C1676 C1678 1.391 . S
C1677 C1676 1.386 . S
C1677 C1681 1.393 . S
C1678 H1670 0.950 . S
C1678 C1676 1.391 . S
C1678 C1679 1.400 . S
C1679 C1678 1.400 . S
C1679 C1680 1.398 . S
C1679 C1685 1.491 . S
C1680 H1671 0.950 . S
C1680 C1679 1.398 . S
C1680 C1681 1.391 . S
C1681 H1669 0.950 . S
C1681 C1677 1.393 . S
C1681 C1680 1.391 . S
C1682 H1672 0.950 . S
C1682 C1683 1.386 . S
C1682 C1684 1.391 1_556 S
C1683 C1682 1.386 . S
C1683 C1687 1.393 . S
C1684 H1673 0.950 . S
C1684 C1682 1.391 1_554 S
C1684 C1685 1.400 . S
C1685 C1679 1.491 . S
C1685 C1684 1.400 . S
C1685 C1686 1.398 . S
C1686 H1674 0.950 . S
C1686 C1685 1.398 . S
C1686 C1687 1.391 1_554 S
C1687 H1675 0.950 . S
C1687 C1683 1.393 . S
C1687 C1686 1.391 1_556 S
H1688 C1696 0.950 . S
H1689 C1701 0.950 . S
H1690 C1698 0.950 . S
H1691 C1700 0.950 . S
H1692 C1702 0.945 1_556 S
H1693 C1704 0.950 . S
H1694 C1706 0.950 . S
H1695 C1707 0.950 . S
C1696 H1688 0.950 . S
C1696 C1697 1.386 . S
C1696 C1698 1.391 . S
C1697 C1696 1.386 . S
C1697 C1701 1.393 . S
C1698 H1690 0.950 . S
C1698 C1696 1.391 . S
C1698 C1699 1.400 . S
C1699 C1698 1.400 . S
C1699 C1700 1.398 . S
C1699 C1705 1.491 . S
C1700 H1691 0.950 . S
C1700 C1699 1.398 . S
C1700 C1701 1.391 . S
C1701 H1689 0.950 . S
C1701 C1697 1.393 . S
C1701 C1700 1.391 . S
C1702 H1692 0.945 1_554 S
C1702 C1703 1.379 1_554 S
C1702 C1704 1.403 . S
C1703 C1702 1.379 1_556 S
C1703 C1707 1.393 . S
C1704 H1693 0.950 . S
C1704 C1702 1.403 . S
C1704 C1705 1.400 . S
C1705 C1699 1.491 . S
C1705 C1704 1.400 . S
C1705 C1706 1.398 . S
C1706 H1694 0.950 . S
C1706 C1705 1.398 . S
C1706 C1707 1.391 1_554 S
C1707 H1695 0.950 . S
C1707 C1703 1.393 . S
C1707 C1706 1.391 1_556 S
H1708 C1716 0.950 . S
H1709 C1721 0.950 . S
H1710 C1718 0.950 . S
H1711 C1720 0.950 . S
H1712 C1722 0.950 . S
H1713 C1724 0.950 . S
H1714 C1726 0.950 . S
H1715 C1727 0.947 1_556 S
C1716 H1708 0.950 . S
C1716 C1717 1.386 . S
C1716 C1718 1.391 . S
C1717 C1716 1.386 . S
C1717 C1721 1.393 . S
C1718 H1710 0.950 . S
C1718 C1716 1.391 . S
C1718 C1719 1.400 . S
C1719 C1718 1.400 . S
C1719 C1720 1.398 . S
C1719 C1725 1.491 . S
C1720 H1711 0.950 . S
C1720 C1719 1.398 . S
C1720 C1721 1.391 . S
C1721 H1709 0.950 . S
C1721 C1717 1.393 . S
C1721 C1720 1.391 . S
C1722 H1712 0.950 . S
C1722 C1723 1.386 . S
C1722 C1724 1.391 1_556 S
C1723 C1722 1.386 . S
C1723 C1727 1.388 1_556 S
C1724 H1713 0.950 . S
C1724 C1722 1.391 1_554 S
C1724 C1725 1.400 . S
C1725 C1719 1.491 . S
C1725 C1724 1.400 . S
C1725 C1726 1.398 . S
C1726 H1714 0.950 . S
C1726 C1725 1.398 . S
C1726 C1727 1.398 . S
C1727 H1715 0.947 1_554 S
C1727 C1723 1.388 1_554 S
C1727 C1726 1.398 . S
H1728 C1736 0.950 . S
H1729 C1741 0.950 . S
H1730 C1738 0.950 . S
H1731 C1740 0.950 . S
H1732 C1742 0.950 . S
H1733 C1744 0.950 . S
H1734 C1746 0.950 . S
H1735 C1747 0.950 . S
C1736 H1728 0.950 . S
C1736 C1737 1.386 . S
C1736 C1738 1.391 . S
C1737 C1736 1.386 . S
C1737 C1741 1.393 . S
C1738 H1730 0.950 . S
C1738 C1736 1.391 . S
C1738 C1739 1.400 . S
C1739 C1738 1.400 . S
C1739 C1740 1.398 . S
C1739 C1745 1.491 . S
C1740 H1731 0.950 . S
C1740 C1739 1.398 . S
C1740 C1741 1.391 . S
C1741 H1729 0.950 . S
C1741 C1737 1.393 . S
C1741 C1740 1.391 . S
C1742 H1732 0.950 . S
C1742 C1743 1.386 . S
C1742 C1744 1.391 . S
C1743 C1742 1.386 . S
C1743 C1747 1.393 . S
C1744 H1733 0.950 . S
C1744 C1742 1.391 . S
C1744 C1745 1.400 . S
C1745 C1739 1.491 . S
C1745 C1744 1.400 . S
C1745 C1746 1.398 . S
C1746 H1734 0.950 . S
C1746 C1745 1.398 . S
C1746 C1747 1.391 . S
C1747 H1735 0.950 . S
C1747 C1743 1.393 . S
C1747 C1746 1.391 . S
H1748 C1756 0.950 . S
H1749 C1761 0.950 . S
H1750 C1758 0.950 . S
H1751 C1760 0.950 . S
H1752 C1762 0.950 . S
H1753 C1764 0.950 . S
H1754 C1766 0.950 . S
H1755 C1767 0.950 . S
C1756 H1748 0.950 . S
C1756 C1757 1.386 . S
C1756 C1758 1.391 . S
C1757 C1756 1.386 . S
C1757 C1761 1.393 . S
C1758 H1750 0.950 . S
C1758 C1756 1.391 . S
C1758 C1759 1.400 . S
C1759 C1758 1.400 . S
C1759 C1760 1.398 . S
C1759 C1765 1.491 . S
C1760 H1751 0.950 . S
C1760 C1759 1.398 . S
C1760 C1761 1.391 . S
C1761 H1749 0.950 . S
C1761 C1757 1.393 . S
C1761 C1760 1.391 . S
C1762 H1752 0.950 . S
C1762 C1763 1.386 . S
C1762 C1764 1.391 . S
C1763 C1762 1.386 . S
C1763 C1767 1.393 . S
C1764 H1753 0.950 . S
C1764 C1762 1.391 . S
C1764 C1765 1.400 . S
C1765 C1759 1.491 . S
C1765 C1764 1.400 . S
C1765 C1766 1.398 . S
C1766 H1754 0.950 . S
C1766 C1765 1.398 . S
C1766 C1767 1.391 . S
C1767 H1755 0.950 . S
C1767 C1763 1.393 . S
C1767 C1766 1.391 . S
H1768 C1776 0.950 . S
H1769 C1781 0.950 . S
H1770 C1778 0.950 . S
H1771 C1780 0.950 . S
H1772 C1782 0.950 . S
H1773 C1784 0.950 . S
H1774 C1786 0.950 . S
H1775 C1787 0.950 . S
C1776 H1768 0.950 . S
C1776 C1777 1.386 . S
C1776 C1778 1.391 . S
C1777 C1776 1.386 . S
C1777 C1781 1.393 . S
C1778 H1770 0.950 . S
C1778 C1776 1.391 . S
C1778 C1779 1.400 . S
C1779 C1778 1.400 . S
C1779 C1780 1.398 . S
C1779 C1785 1.491 . S
C1780 H1771 0.950 . S
C1780 C1779 1.398 . S
C1780 C1781 1.391 . S
C1781 H1769 0.950 . S
C1781 C1777 1.393 . S
C1781 C1780 1.391 . S
C1782 H1772 0.950 . S
C1782 C1783 1.386 . S
C1782 C1784 1.391 . S
C1783 C1782 1.386 . S
C1783 C1787 1.393 . S
C1784 H1773 0.950 . S
C1784 C1782 1.391 . S
C1784 C1785 1.400 . S
C1785 C1779 1.491 . S
C1785 C1784 1.400 . S
C1785 C1786 1.398 . S
C1786 H1774 0.950 . S
C1786 C1785 1.398 . S
C1786 C1787 1.391 . S
C1787 H1775 0.950 . S
C1787 C1783 1.393 . S
C1787 C1786 1.391 . S
H1788 C1796 0.950 . S
H1789 C1801 0.950 . S
H1790 C1798 0.950 . S
H1791 C1800 0.950 . S
H1792 C1802 0.950 . S
H1793 C1804 0.950 . S
H1794 C1806 0.950 . S
H1795 C1807 0.950 . S
C1796 H1788 0.950 . S
C1796 C1797 1.386 . S
C1796 C1798 1.391 . S
C1797 C1796 1.386 . S
C1797 C1801 1.393 1_655 S
C1798 H1790 0.950 . S
C1798 C1796 1.391 . S
C1798 C1799 1.400 . S
C1799 C1798 1.400 . S
C1799 C1800 1.398 1_655 S
C1799 C1805 1.491 1_655 S
C1800 H1791 0.950 . S
C1800 C1799 1.398 1_455 S
C1800 C1801 1.391 . S
C1801 H1789 0.950 . S
C1801 C1797 1.393 1_455 S
C1801 C1800 1.391 . S
C1802 H1792 0.950 . S
C1802 C1803 1.386 . S
C1802 C1804 1.391 . S
C1803 C1802 1.386 . S
C1803 C1807 1.393 1_455 S
C1804 H1793 0.950 . S
C1804 C1802 1.391 . S
C1804 C1805 1.397 . S
C1805 C1799 1.491 1_455 S
C1805 C1804 1.397 . S
C1805 C1806 1.401 1_455 S
C1806 H1794 0.950 . S
C1806 C1805 1.401 1_655 S
C1806 C1807 1.391 . S
C1807 H1795 0.950 . S
C1807 C1803 1.393 1_655 S
C1807 C1806 1.391 . S
H1808 C1816 0.950 . S
H1809 C1821 0.950 . S
H1810 C1818 0.950 . S
H1811 C1820 0.950 . S
H1812 C1822 0.950 . S
H1813 C1824 0.950 . S
H1814 C1826 0.950 . S
H1815 C1827 0.950 . S
C1816 H1808 0.950 . S
C1816 C1817 1.386 . S
C1816 C1818 1.391 . S
C1817 C1816 1.386 . S
C1817 C1821 1.393 . S
C1818 H1810 0.950 . S
C1818 C1816 1.391 . S
C1818 C1819 1.400 . S
C1819 C1818 1.400 . S
C1819 C1820 1.398 . S
C1819 C1825 1.491 . S
C1820 H1811 0.950 . S
C1820 C1819 1.398 . S
C1820 C1821 1.391 . S
C1821 H1809 0.950 . S
C1821 C1817 1.393 . S
C1821 C1820 1.391 . S
C1822 H1812 0.950 . S
C1822 C1823 1.386 . S
C1822 C1824 1.391 . S
C1823 C1822 1.386 . S
C1823 C1827 1.393 . S
C1824 H1813 0.950 . S
C1824 C1822 1.391 . S
C1824 C1825 1.400 . S
C1825 C1819 1.491 . S
C1825 C1824 1.400 . S
C1825 C1826 1.398 . S
C1826 H1814 0.950 . S
C1826 C1825 1.398 . S
C1826 C1827 1.391 . S
C1827 H1815 0.950 . S
C1827 C1823 1.393 . S
C1827 C1826 1.391 . S
H1828 C1836 0.950 . S
H1829 C1841 0.950 . S
H1830 C1838 0.950 . S
H1831 C1840 0.950 . S
H1832 C1842 0.950 . S
H1833 C1844 0.950 . S
H1834 C1846 0.950 . S
H1835 C1847 0.950 . S
C1836 H1828 0.950 . S
C1836 C1837 1.386 1_545 S
C1836 C1838 1.391 . S
C1837 C1836 1.386 1_565 S
C1837 C1841 1.393 . S
C1838 H1830 0.950 . S
C1838 C1836 1.391 . S
C1838 C1839 1.394 1_545 S
C1839 C1838 1.394 1_565 S
C1839 C1840 1.409 . S
C1839 C1845 1.487 1_565 S
C1840 H1831 0.950 . S
C1840 C1839 1.409 . S
C1840 C1841 1.391 . S
C1841 H1829 0.950 . S
C1841 C1837 1.393 . S
C1841 C1840 1.391 . S
C1842 H1832 0.950 . S
C1842 C1843 1.386 1_565 S
C1842 C1844 1.391 . S
C1843 C1842 1.386 1_545 S
C1843 C1847 1.393 . S
C1844 H1833 0.950 . S
C1844 C1842 1.391 . S
C1844 C1845 1.400 1_565 S
C1845 C1839 1.487 1_545 S
C1845 C1844 1.400 1_545 S
C1845 C1846 1.398 . S
C1846 H1834 0.950 . S
C1846 C1845 1.398 . S
C1846 C1847 1.391 . S
C1847 H1835 0.950 . S
C1847 C1843 1.393 . S
C1847 C1846 1.391 . S
H1848 C1856 0.950 . S
H1849 C1861 0.950 . S
H1850 C1858 0.950 . S
H1851 C1860 0.950 . S
H1852 C1862 0.950 . S
H1853 C1864 0.950 . S
H1854 C1866 0.950 . S
H1855 C1867 0.950 . S
C1856 H1848 0.950 . S
C1856 C1857 1.386 . S
C1856 C1858 1.391 . S
C1857 C1856 1.386 . S
C1857 C1861 1.393 1_565 S
C1858 H1850 0.950 . S
C1858 C1856 1.391 . S
C1858 C1859 1.400 . S
C1859 C1858 1.400 . S
C1859 C1860 1.398 1_565 S
C1859 C1865 1.490 1_565 S
C1860 H1851 0.950 . S
C1860 C1859 1.398 1_545 S
C1860 C1861 1.391 . S
C1861 H1849 0.950 . S
C1861 C1857 1.393 1_545 S
C1861 C1860 1.391 . S
C1862 H1852 0.950 . S
C1862 C1863 1.386 . S
C1862 C1864 1.391 . S
C1863 C1862 1.386 . S
C1863 C1867 1.393 1_545 S
C1864 H1853 0.950 . S
C1864 C1862 1.391 . S
C1864 C1865 1.403 . S
C1865 C1859 1.490 1_545 S
C1865 C1864 1.403 . S
C1865 C1866 1.396 1_545 S
C1866 H1854 0.950 . S
C1866 C1865 1.396 1_565 S
C1866 C1867 1.391 . S
C1867 H1855 0.950 . S
C1867 C1863 1.393 1_565 S
C1867 C1866 1.391 . S
H1868 C1876 0.950 . S
H1869 C1881 0.934 . S
H1870 C1878 0.950 . S
H1871 C1880 0.950 . S
H1872 C1882 0.950 . S
H1873 C1884 0.950 . S
H1874 C1886 0.950 1_655 S
H1875 C1887 0.950 . S
C1876 H1868 0.950 . S
C1876 C1877 1.386 . S
C1876 C1878 1.391 . S
C1877 C1876 1.386 . S
C1877 C1881 1.393 . S
C1878 H1870 0.950 . S
C1878 C1876 1.391 . S
C1878 C1879 1.403 1_655 S
C1879 C1878 1.403 1_455 S
C1879 C1880 1.394 . S
C1879 C1885 1.492 . S
C1880 H1871 0.950 . S
C1880 C1879 1.394 . S
C1880 C1881 1.391 1_455 S
C1881 H1869 0.934 . S
C1881 C1877 1.393 . S
C1881 C1880 1.391 1_655 S
C1882 H1872 0.950 . S
C1882 C1883 1.386 . S
C1882 C1884 1.391 . S
C1883 C1882 1.386 . S
C1883 C1887 1.393 . S
C1884 H1873 0.950 . S
C1884 C1882 1.391 . S
C1884 C1885 1.400 . S
C1885 C1879 1.492 . S
C1885 C1884 1.400 . S
C1885 C1886 1.398 . S
C1886 H1874 0.950 1_455 S
C1886 C1885 1.398 . S
C1886 C1887 1.391 . S
C1887 H1875 0.950 . S
C1887 C1883 1.393 . S
C1887 C1886 1.391 . S
H1888 C1896 0.950 . S
H1889 C1901 0.950 . S
H1890 C1898 0.950 . S
H1891 C1900 0.950 . S
H1892 C1902 0.950 . S
H1893 C1904 0.950 . S
H1894 C1906 0.950 . S
H1895 C1907 0.950 . S
C1896 H1888 0.950 . S
C1896 C1897 1.386 . S
C1896 C1898 1.391 . S
C1897 C1896 1.386 . S
C1897 C1901 1.393 . S
C1898 H1890 0.950 . S
C1898 C1896 1.391 . S
C1898 C1899 1.400 . S
C1899 C1898 1.400 . S
C1899 C1900 1.398 . S
C1899 C1905 1.491 . S
C1900 H1891 0.950 . S
C1900 C1899 1.398 . S
C1900 C1901 1.391 . S
C1901 H1889 0.950 . S
C1901 C1897 1.393 . S
C1901 C1900 1.391 . S
C1902 H1892 0.950 . S
C1902 C1903 1.386 . S
C1902 C1904 1.391 . S
C1903 C1902 1.386 . S
C1903 C1907 1.393 . S
C1904 H1893 0.950 . S
C1904 C1902 1.391 . S
C1904 C1905 1.400 . S
C1905 C1899 1.491 . S
C1905 C1904 1.400 . S
C1905 C1906 1.398 . S
C1906 H1894 0.950 . S
C1906 C1905 1.398 . S
C1906 C1907 1.391 . S
C1907 H1895 0.950 . S
C1907 C1903 1.393 . S
C1907 C1906 1.391 . S
C477 C213 1.707 . S
C483 C5 1.706 . S
C497 C226 1.718 . S
C503 C18 1.716 . S
C517 C200 1.721 . S
C523 C31 1.720 . S
C537 C343 1.674 . S
C543 C44 1.676 . S
C557 C57 1.688 . S
C563 C317 1.688 . S
C577 C70 1.673 . S
C583 C330 1.675 . S
C597 C81 1.705 . S
C603 C447 1.750 . S
C617 C458 1.704 . S
C623 C96 1.748 . S
C637 C434 1.747 . S
C643 C109 1.749 . S
C657 C122 1.714 . S
C663 C265 1.717 . S
C677 C237 1.671 . S
C683 C135 1.716 . S
C697 C146 1.679 . S
C703 C252 1.714 . S
C717 C369 1.600 . S
C723 C161 1.595 . S
C737 C174 1.613 . S
C743 C382 1.609 . S
C757 C356 1.593 . S
C763 C187 1.591 . S
C777 C421 1.641 . S
C783 C278 1.637 . S
C797 C393 1.613 . S
C803 C291 1.637 . S
C817 C302 1.595 . S
C823 C408 1.635 . S
C837 C244 1.778 . S
C843 C1 1.777 . S
C857 C248 1.709 . S
C863 C14 1.774 . S
C877 C261 1.727 . S
C883 C27 1.781 . S
C897 C40 1.779 . S
C903 C430 1.726 . S
C917 C53 1.775 . S
C923 C443 1.712 . S
C937 C66 1.777 . S
C943 C465 1.777 . S
C957 C88 1.780 . S
C963 C313 1.780 . S
C977 C326 1.776 . S
C983 C92 1.716 . S
C997 C339 1.777 . S
C1003 C105 1.713 . S
C1017 C196 1.776 . S
C1023 C118 1.721 . S
C1037 C131 1.720 . S
C1043 C209 1.778 . S
C1057 C153 1.774 . S
C1063 C222 1.774 . S
C1077 C157 1.784 . S
C1083 C400 1.784 . S
C1097 C404 1.711 . S
C1103 C170 1.777 . S
C1117 C417 1.702 . S
C1123 C183 1.784 . S
C1137 C352 1.774 . S
C1143 C274 1.726 1_545 S
C1157 C287 1.719 1_655 S
C1163 C365 1.773 . S
C1177 C309 1.764 . S
C1183 C378 1.764 . S
C1197 C354 1.817 . S
C1203 C3 1.820 . S
C1217 C16 1.818 . S
C1223 C367 1.818 . S
C1237 C29 1.809 . S
C1243 C380 1.807 . S
C1257 C159 1.775 . S
C1263 C42 1.773 . S
C1277 C55 1.775 . S
C1283 C172 1.776 . S
C1297 C68 1.774 . S
C1303 C185 1.775 . S
C1317 C276 1.778 . S
C1323 C83 1.820 . S
C1337 C94 1.776 . S
C1343 C289 1.764 . S
C1357 C304 1.814 . S
C1363 C107 1.780 . S
C1377 C120 1.734 . S
C1383 C395 1.771 . S
C1397 C406 1.739 . S
C1403 C133 1.728 . S
C1417 C419 1.721 . S
C1423 C148 1.774 . S
C1437 C315 1.788 . S
C1443 C198 1.787 . S
C1457 C328 1.790 . S
C1463 C211 1.789 . S
C1477 C341 1.791 . S
C1483 C224 1.790 . S
C1497 C239 1.797 . S
C1503 C432 1.754 . S
C1517 C445 1.739 . S
C1523 C250 1.751 . S
C1537 C460 1.788 . S
C1543 C263 1.741 . S
C1557 C10 0.918 . S
C1563 C218 0.916 . S
C1577 C23 0.933 . S
C1583 C231 0.937 . S
C1597 C36 0.925 . S
C1603 C205 0.931 . S
C1617 C348 0.950 . S
C1623 C49 0.951 . S
C1637 C322 0.973 . S
C1643 C62 0.973 . S
C1657 C335 0.964 . S
C1663 C75 0.968 . S
C1677 C452 0.936 . S
C1683 C79 0.915 . S
C1697 C456 0.934 . S
C1703 C101 0.935 . S
C1717 C439 0.935 . S
C1723 C114 0.933 . S
C1737 C127 0.969 . S
C1743 C270 0.969 . S
C1757 C140 0.967 . S
C1763 C235 0.967 . S
C1777 C144 0.953 . S
C1783 C257 0.972 . S
C1797 C374 1.047 . S
C1803 C166 1.054 . S
C1817 C387 1.056 . S
C1823 C179 1.055 . S
C1837 C192 1.058 . S
C1843 C361 1.058 . S
C1857 C283 1.058 . S
C1863 C426 1.064 . S
C1877 C391 1.038 . S
C1883 C296 1.064 . S
C1897 C413 1.059 . S
C1903 C300 1.058 . S
