# Generated by pormake.
# Topology wme, (6)-cn, num edge types: 1
# Building blocks:
#     Node 0, Type 0, BuildingBlock: BETGAK_clean_sbu_0, # of connection points: 6
#     Node 1, Type 0, BuildingBlock: BETGAK_clean_sbu_0, # of connection points: 6
#     Node 2, Type 0, BuildingBlock: BETGAK_clean_sbu_0, # of connection points: 6
#     Node 3, Type 0, BuildingBlock: BETGAK_clean_sbu_0, # of connection points: 6
#     Node 4, Type 0, BuildingBlock: BETGAK_clean_sbu_0, # of connection points: 6
#     Node 5, Type 0, BuildingBlock: BETGAK_clean_sbu_0, # of connection points: 6
#     Node 6, Type 0, BuildingBlock: BETGAK_clean_sbu_0, # of connection points: 6
#     Node 7, Type 0, BuildingBlock: BETGAK_clean_sbu_0, # of connection points: 6
#     Node 8, Type 0, BuildingBlock: BETGAK_clean_sbu_0, # of connection points: 6
#     Node 9, Type 0, BuildingBlock: BETGAK_clean_sbu_0, # of connection points: 6
#     Node 10, Type 0, BuildingBlock: BETGAK_clean_sbu_0, # of connection points: 6
#     Node 11, Type 0, BuildingBlock: BETGAK_clean_sbu_0, # of connection points: 6
#     Edge 12, Type (0, 0), BuildingBlock: UVAHIK_clean_linker_0, # of connection points: 2
#     Edge 13, Type (0, 0), BuildingBlock: UVAHIK_clean_linker_0, # of connection points: 2
#     Edge 14, Type (0, 0), BuildingBlock: UVAHIK_clean_linker_0, # of connection points: 2
#     Edge 15, Type (0, 0), BuildingBlock: UVAHIK_clean_linker_0, # of connection points: 2
#     Edge 16, Type (0, 0), BuildingBlock: UVAHIK_clean_linker_0, # of connection points: 2
#     Edge 17, Type (0, 0), BuildingBlock: UVAHIK_clean_linker_0, # of connection points: 2
#     Edge 18, Type (0, 0), BuildingBlock: UVAHIK_clean_linker_0, # of connection points: 2
#     Edge 19, Type (0, 0), BuildingBlock: UVAHIK_clean_linker_0, # of connection points: 2
#     Edge 20, Type (0, 0), BuildingBlock: UVAHIK_clean_linker_0, # of connection points: 2
#     Edge 21, Type (0, 0), BuildingBlock: UVAHIK_clean_linker_0, # of connection points: 2
#     Edge 22, Type (0, 0), BuildingBlock: UVAHIK_clean_linker_0, # of connection points: 2
#     Edge 23, Type (0, 0), BuildingBlock: UVAHIK_clean_linker_0, # of connection points: 2
#     Edge 24, Type (0, 0), BuildingBlock: UVAHIK_clean_linker_0, # of connection points: 2
#     Edge 25, Type (0, 0), BuildingBlock: UVAHIK_clean_linker_0, # of connection points: 2
#     Edge 26, Type (0, 0), BuildingBlock: UVAHIK_clean_linker_0, # of connection points: 2
#     Edge 27, Type (0, 0), BuildingBlock: UVAHIK_clean_linker_0, # of connection points: 2
#     Edge 28, Type (0, 0), BuildingBlock: UVAHIK_clean_linker_0, # of connection points: 2
#     Edge 29, Type (0, 0), BuildingBlock: UVAHIK_clean_linker_0, # of connection points: 2
#     Edge 30, Type (0, 0), BuildingBlock: UVAHIK_clean_linker_0, # of connection points: 2
#     Edge 31, Type (0, 0), BuildingBlock: UVAHIK_clean_linker_0, # of connection points: 2
#     Edge 32, Type (0, 0), BuildingBlock: UVAHIK_clean_linker_0, # of connection points: 2
#     Edge 33, Type (0, 0), BuildingBlock: UVAHIK_clean_linker_0, # of connection points: 2
#     Edge 34, Type (0, 0), BuildingBlock: UVAHIK_clean_linker_0, # of connection points: 2
#     Edge 35, Type (0, 0), BuildingBlock: UVAHIK_clean_linker_0, # of connection points: 2
#     Edge 36, Type (0, 0), BuildingBlock: UVAHIK_clean_linker_0, # of connection points: 2
#     Edge 37, Type (0, 0), BuildingBlock: UVAHIK_clean_linker_0, # of connection points: 2
#     Edge 38, Type (0, 0), BuildingBlock: UVAHIK_clean_linker_0, # of connection points: 2
#     Edge 39, Type (0, 0), BuildingBlock: UVAHIK_clean_linker_0, # of connection points: 2
#     Edge 40, Type (0, 0), BuildingBlock: UVAHIK_clean_linker_0, # of connection points: 2
#     Edge 41, Type (0, 0), BuildingBlock: UVAHIK_clean_linker_0, # of connection points: 2
#     Edge 42, Type (0, 0), BuildingBlock: UVAHIK_clean_linker_0, # of connection points: 2
#     Edge 43, Type (0, 0), BuildingBlock: UVAHIK_clean_linker_0, # of connection points: 2
#     Edge 44, Type (0, 0), BuildingBlock: UVAHIK_clean_linker_0, # of connection points: 2
#     Edge 45, Type (0, 0), BuildingBlock: UVAHIK_clean_linker_0, # of connection points: 2
#     Edge 46, Type (0, 0), BuildingBlock: UVAHIK_clean_linker_0, # of connection points: 2
#     Edge 47, Type (0, 0), BuildingBlock: UVAHIK_clean_linker_0, # of connection points: 2
# Relax obj value: 0.099
# Max RMSD: 0.195
# Mean RMSD: 0.195
data_MOF--net-wme--node1-BETGAK_clean_sbu_0--edge1-UVAHIK_clean_linker_0
_symmetry_space_group_name_H-M    P1
_symmetry_Int_Tables_number       1
_symmetry_cell_setting            triclinic
loop_
_symmetry_equiv_pos_as_xyz
'x, y, z'
_cell_length_a     49.176215
_cell_length_b     49.211257
_cell_length_c     67.245304
_cell_angle_alpha  90.186093
_cell_angle_beta   90.002191
_cell_angle_gamma 120.01454
loop_
_atom_site_label
_atom_site_type_symbol
_atom_site_fract_x
_atom_site_fract_y
_atom_site_fract_z
_atom_type_partial_charge
La0 La 0.22072 0.36668 0.136 0.0
La1 La 0.25321 0.3304 0.14524 0.0
C2 C 0.19732 0.40216 0.13402 0.0
C3 C 0.19858 0.43174 0.14024 0.0
C4 C 0.21917 0.46065 0.13123 0.0
C5 C 0.21585 0.487 0.13462 0.0
C6 C 0.19166 0.48491 0.14688 0.0
C7 C 0.17202 0.45635 0.15652 0.0
C8 C 0.17542 0.43014 0.15321 0.0
C9 C 0.23489 0.34227 0.10509 0.0
C10 C 0.29389 0.40317 0.14377 0.0
C11 C 0.27309 0.29198 0.1442 0.0
C12 C 0.25952 0.25761 0.14464 0.0
C13 C 0.27637 0.24509 0.15382 0.0
C14 C 0.26451 0.21267 0.15404 0.0
C15 C 0.23547 0.19201 0.14503 0.0
C16 C 0.21834 0.20464 0.1361 0.0
C17 C 0.23028 0.23715 0.13588 0.0
C18 C 0.24329 0.35607 0.17662 0.0
C19 C 0.17777 0.29481 0.14106 0.0
O20 O 0.21819 0.40323 0.12146 0.0
O21 O 0.18963 0.38033 0.14744 0.0
O22 O 0.20948 0.34391 0.10628 0.0
O23 O 0.25117 0.35497 0.12023 0.0
O24 O 0.26715 0.40324 0.14593 0.0
O25 O 0.29419 0.37679 0.14008 0.0
O26 O 0.27068 0.30506 0.16055 0.0
O27 O 0.26725 0.30363 0.12839 0.0
O28 O 0.26735 0.35229 0.17424 0.0
O29 O 0.22445 0.34361 0.16216 0.0
O30 O 0.2036 0.2926 0.14156 0.0
O31 O 0.17908 0.32215 0.14053 0.0
H32 H 0.23702 0.46262 0.12095 0.0
H33 H 0.23127 0.50859 0.12687 0.0
H34 H 0.15348 0.45402 0.1663 0.0
H35 H 0.15894 0.40815 0.1602 0.0
H36 H 0.29888 0.26044 0.16075 0.0
H37 H 0.27809 0.20379 0.16135 0.0
H38 H 0.19605 0.18949 0.12889 0.0
H39 H 0.21687 0.24629 0.12865 0.0
La40 La 0.86602 0.21147 0.63357 0.0
La41 La 0.93846 0.24265 0.6424 0.0
C42 C 0.8076 0.19011 0.63165 0.0
C43 C 0.77949 0.19027 0.63947 0.0
C44 C 0.77094 0.21191 0.63256 0.0
C45 C 0.74123 0.20784 0.63686 0.0
C46 C 0.71935 0.18187 0.64799 0.0
C47 C 0.72854 0.16116 0.65568 0.0
C48 C 0.75819 0.16527 0.65144 0.0
C49 C 0.90515 0.22776 0.60295 0.0
C50 C 0.90506 0.28288 0.64695 0.0
C51 C 0.99585 0.26456 0.63532 0.0
C52 C 1.01889 0.25449 0.63919 0.0
C53 C 1.01022 0.22642 0.64932 0.0
C54 C 0.03139 0.21535 0.65102 0.0
C55 C 0.06157 0.23215 0.64258 0.0
C56 C 0.07018 0.26056 0.63275 0.0
C57 C 0.04903 0.27158 0.63108 0.0
C58 C 0.90548 0.2201 0.67538 0.0
C59 C 0.89524 0.16801 0.63787 0.0
O60 O 0.82817 0.21409 0.62115 0.0
O61 O 0.82077 0.17814 0.6429 0.0
O62 O 0.87735 0.20321 0.60302 0.0
O63 O 0.90918 0.24208 0.61904 0.0
O64 O 0.87753 0.25644 0.64697 0.0
O65 O 0.93196 0.2836 0.643 0.0
O66 O 0.98541 0.27298 0.65079 0.0
O67 O 0.9733 0.24634 0.62301 0.0
O68 O 0.93584 0.23322 0.67455 0.0
O69 O 0.8958 0.21991 0.65809 0.0
O70 O 0.92391 0.19297 0.63671 0.0
O71 O 0.86963 0.17029 0.63908 0.0
H72 H 0.78657 0.23118 0.62306 0.0
H73 H 0.73484 0.22412 0.63059 0.0
H74 H 0.71245 0.1412 0.66456 0.0
H75 H 0.76386 0.14795 0.6568 0.0
H76 H 0.98687 0.21276 0.65553 0.0
H77 H 1.02408 0.19358 0.65885 0.0
H78 H 0.09297 0.27386 0.62577 0.0
H79 H 0.05593 0.29304 0.62296 0.0
La80 La 0.68259 0.86209 0.13325 0.0
La81 La 0.71583 0.93024 0.14466 0.0
C82 C 0.64904 0.80323 0.12983 0.0
C83 C 0.61766 0.77495 0.13183 0.0
C84 C 0.60529 0.75468 0.11542 0.0
C85 C 0.57847 0.72518 0.11738 0.0
C86 C 0.56336 0.71514 0.13585 0.0
C87 C 0.57483 0.73604 0.15211 0.0
C88 C 0.60187 0.76565 0.15016 0.0
C89 C 0.70636 0.90287 0.10374 0.0
C90 C 0.64289 0.89594 0.14166 0.0
C91 C 0.75306 0.98876 0.14519 0.0
C92 C 0.78743 1.0097 0.14487 0.0
C93 C 0.80788 1.00086 0.15348 0.0
C94 C 0.84044 0.02126 0.15303 0.0
C95 C 0.85317 0.05089 0.14394 0.0
C96 C 0.83248 0.05931 0.13508 0.0
C97 C 0.80001 0.03895 0.13557 0.0
C98 C 0.69078 0.89184 0.17462 0.0
C99 C 0.75451 0.89378 0.13832 0.0
O100 O 0.65328 0.82287 0.11549 0.0
O101 O 0.66454 0.81748 0.14601 0.0
O102 O 0.70637 0.87657 0.10412 0.0
O103 O 0.69257 0.90467 0.1189 0.0
O104 O 0.64374 0.86944 0.14164 0.0
O105 O 0.66889 0.92368 0.14016 0.0
O106 O 0.74113 0.97182 0.16118 0.0
O107 O 0.74056 0.9726 0.12893 0.0
O108 O 0.69271 0.91903 0.17325 0.0
O109 O 0.70464 0.88771 0.16003 0.0
O110 O 0.75513 0.92094 0.14024 0.0
O111 O 0.72803 0.86687 0.13723 0.0
H112 H 0.61712 0.7612 0.10117 0.0
H113 H 0.56994 0.7099 0.10449 0.0
H114 H 0.56377 0.72898 0.16655 0.0
H115 H 0.61098 0.78071 0.16312 0.0
H116 H 0.79868 0.97829 0.16067 0.0
H117 H 0.85557 1.01405 0.16012 0.0
H118 H 0.84138 0.0816 0.12758 0.0
H119 H 0.78466 0.04608 0.12866 0.0
La120 La 0.83304 0.67009 0.63511 0.0
La121 La 0.79887 0.70838 0.64323 0.0
C122 C 0.85557 0.63416 0.63213 0.0
C123 C 0.85377 0.6037 0.63578 0.0
C124 C 0.86001 0.5893 0.61978 0.0
C125 C 0.86368 0.56327 0.62281 0.0
C126 C 0.8611 0.55088 0.64195 0.0
C127 C 0.85335 0.56434 0.65792 0.0
C128 C 0.84993 0.59074 0.65489 0.0
C129 C 0.81832 0.69399 0.60436 0.0
C130 C 0.75991 0.63458 0.64499 0.0
C131 C 0.7778 0.74424 0.63496 0.0
C132 C 0.78751 0.77726 0.63894 0.0
C133 C 0.81481 0.79661 0.64992 0.0
C134 C 0.82583 0.82886 0.65158 0.0
C135 C 0.80973 0.8423 0.64226 0.0
C136 C 0.78203 0.82255 0.6316 0.0
C137 C 0.77109 0.79038 0.62995 0.0
C138 C 0.81657 0.69524 0.67724 0.0
C139 C 0.87439 0.74202 0.64263 0.0
O140 O 0.83639 0.63518 0.61901 0.0
O141 O 0.86158 0.65363 0.64705 0.0
O142 O 0.84414 0.69309 0.60556 0.0
O143 O 0.80249 0.68176 0.61967 0.0
O144 O 0.78677 0.6343 0.6453 0.0
O145 O 0.75856 0.6606 0.64186 0.0
O146 O 0.76795 0.72495 0.65016 0.0
O147 O 0.79712 0.74022 0.62356 0.0
O148 O 0.80153 0.71061 0.67573 0.0
O149 O 0.82118 0.68875 0.65985 0.0
O150 O 0.84898 0.74492 0.6411 0.0
O151 O 0.87305 0.71456 0.64269 0.0
H152 H 0.86327 0.59897 0.60493 0.0
H153 H 0.86915 0.55316 0.61017 0.0
H154 H 0.85126 0.55531 0.67284 0.0
H155 H 0.84532 0.60153 0.66752 0.0
H156 H 0.82797 0.78688 0.65681 0.0
H157 H 0.84703 0.84327 0.66006 0.0
H158 H 0.7693 0.83208 0.62394 0.0
H159 H 0.75025 0.77588 0.62116 0.0
La160 La 0.18392 0.82452 0.13306 0.0
La161 La 0.11217 0.79257 0.14376 0.0
C162 C 0.24224 0.84606 0.12999 0.0
C163 C 0.27016 0.84486 0.1371 0.0
C164 C 0.27857 0.82398 0.12856 0.0
C165 C 0.30803 0.82719 0.13243 0.0
C166 C 0.32984 0.85151 0.14477 0.0
C167 C 0.32077 0.87138 0.15405 0.0
C168 C 0.29135 0.86815 0.15022 0.0
C169 C 0.14291 0.80715 0.1034 0.0
C170 C 0.14672 0.75324 0.1469 0.0
C171 C 0.05418 0.77029 0.13862 0.0
C172 C 0.03211 0.78148 0.14309 0.0
C173 C 0.99973 0.76113 0.14118 0.0
C174 C 0.97887 0.77257 0.14302 0.0
C175 C 0.99009 0.80472 0.14657 0.0
C176 C 1.02261 0.82476 0.14924 0.0
C177 C 0.04334 0.8132 0.14763 0.0
C178 C 0.14718 0.81644 0.17599 0.0
C179 C 0.15422 0.86733 0.13818 0.0
O180 O 0.22124 0.82271 0.11916 0.0
O181 O 0.22956 0.85758 0.14208 0.0
O182 O 0.17058 0.83187 0.10299 0.0
O183 O 0.13994 0.79304 0.11943 0.0
O184 O 0.17392 0.77994 0.14602 0.0
O185 O 0.11923 0.75189 0.14415 0.0
O186 O 0.06597 0.76299 0.15385 0.0
O187 O 0.07555 0.78695 0.12531 0.0
O188 O 0.11677 0.80275 0.17587 0.0
O189 O 0.15587 0.81647 0.15842 0.0
O190 O 0.1257 0.84201 0.13809 0.0
O191 O 0.18019 0.86565 0.13848 0.0
H192 H 0.26301 0.80605 0.11817 0.0
H193 H 0.31431 0.81162 0.1249 0.0
H194 H 0.33678 0.89004 0.16389 0.0
H195 H 0.28579 0.88487 0.15686 0.0
H196 H 0.9906 0.73654 0.13775 0.0
H197 H 0.95398 0.75626 0.14133 0.0
H198 H 0.03228 0.84966 0.15177 0.0
H199 H 0.06828 0.82928 0.14923 0.0
La200 La 0.37455 0.17556 0.63427 0.0
La201 La 0.3334 0.10375 0.6426 0.0
C202 C 0.41218 0.23379 0.63221 0.0
C203 C 0.44064 0.26177 0.64 0.0
C204 C 0.4706 0.27031 0.63259 0.0
C205 C 0.49635 0.3 0.63673 0.0
C206 C 0.49263 0.32187 0.64821 0.0
C207 C 0.46301 0.31267 0.65646 0.0
C208 C 0.43733 0.28302 0.65236 0.0
C209 C 0.35256 0.13684 0.60326 0.0
C210 C 0.40668 0.13662 0.64801 0.0
C211 C 0.29624 0.04675 0.63554 0.0
C212 C 0.26234 0.02553 0.63928 0.0
C213 C 0.25222 0.99799 0.65031 0.0
C214 C 0.22015 0.97756 0.65359 0.0
C215 C 0.19748 0.98414 0.64576 0.0
C216 C 0.20779 1.01192 0.63485 0.0
C217 C 0.23977 0.0324 0.63172 0.0
C218 C 0.34279 0.13559 0.67609 0.0
C219 C 0.30213 0.1471 0.63811 0.0
O220 O 0.41535 0.21288 0.62188 0.0
O221 O 0.38696 0.22109 0.64339 0.0
O222 O 0.3553 0.16439 0.60364 0.0
O223 O 0.3626 0.13266 0.61938 0.0
O224 O 0.40756 0.16402 0.64804 0.0
O225 O 0.38064 0.1097 0.64385 0.0
O226 O 0.31488 0.05654 0.65114 0.0
O227 O 0.30313 0.06925 0.62268 0.0
O228 O 0.32608 0.10531 0.67462 0.0
O229 O 0.35271 0.14627 0.65897 0.0
O230 O 0.29845 0.11849 0.6368 0.0
O231 O 0.33001 0.17258 0.63954 0.0
H232 H 0.47391 0.2547 0.62278 0.0
H233 H 0.51879 0.3064 0.63003 0.0
H234 H 0.45945 0.32877 0.66561 0.0
H235 H 0.41452 0.27736 0.65811 0.0
H236 H 0.26912 0.99222 0.65636 0.0
H237 H 0.21316 0.95665 0.66233 0.0
H238 H 0.19114 0.01761 0.62831 0.0
H239 H 0.24668 0.05347 0.62316 0.0
La240 La 0.67699 0.82468 0.4174 0.0
La241 La 0.71165 0.79044 0.40797 0.0
C242 C 0.64268 0.84939 0.41966 0.0
C243 C 0.61323 0.84856 0.41366 0.0
C244 C 0.58399 0.82717 0.42199 0.0
C245 C 0.55764 0.83056 0.41871 0.0
C246 C 0.56008 0.85558 0.40724 0.0
C247 C 0.58905 0.8761 0.39829 0.0
C248 C 0.61525 0.87265 0.40149 0.0
C249 C 0.70091 0.80975 0.44808 0.0
C250 C 0.63883 0.75152 0.40922 0.0
C251 C 0.74907 0.76938 0.40941 0.0
C252 C 0.78337 0.78253 0.40939 0.0
C253 C 0.80376 0.81172 0.40071 0.0
C254 C 0.83629 0.82359 0.40087 0.0
C255 C 0.84899 0.80648 0.40975 0.0
C256 C 0.82835 0.77749 0.41869 0.0
C257 C 0.79593 0.76567 0.41848 0.0
C258 C 0.68688 0.80157 0.37673 0.0
C259 C 0.74898 0.86589 0.4116 0.0
O260 O 0.64141 0.82858 0.4323 0.0
O261 O 0.66412 0.85632 0.40601 0.0
O262 O 0.70028 0.83568 0.44694 0.0
O263 O 0.68763 0.79351 0.43303 0.0
O264 O 0.63955 0.77868 0.40739 0.0
O265 O 0.66473 0.75029 0.41282 0.0
O266 O 0.73643 0.77211 0.39296 0.0
O267 O 0.73748 0.77559 0.42514 0.0
O268 O 0.68978 0.77697 0.37892 0.0
O269 O 0.6997 0.82014 0.39125 0.0
O270 O 0.75038 0.83965 0.41119 0.0
O271 O 0.72204 0.86544 0.41246 0.0
H272 H 0.58169 0.80854 0.43162 0.0
H273 H 0.53573 0.81443 0.42592 0.0
H274 H 0.59167 0.89531 0.38911 0.0
H275 H 0.63751 0.88971 0.39504 0.0
H276 H 0.79454 0.82523 0.3937 0.0
H277 H 0.8514 0.84587 0.39375 0.0
H278 H 0.83725 0.76397 0.42605 0.0
H279 H 0.78061 0.74329 0.42546 0.0
La280 La 0.87016 0.66869 0.91641 0.0
La281 La 0.94297 0.70621 0.90862 0.0
C282 C 0.81149 0.6336 0.91864 0.0
C283 C 0.7828 0.60295 0.9153 0.0
C284 C 0.76232 0.58922 0.9314 0.0
C285 C 0.73252 0.56315 0.92858 0.0
C286 C 0.72246 0.55008 0.90955 0.0
C287 C 0.74352 0.56283 0.89351 0.0
C288 C 0.77343 0.58925 0.89633 0.0
C289 C 0.90869 0.69258 0.9473 0.0
C290 C 0.90723 0.63225 0.90735 0.0
C291 C 1.00001 0.74172 0.91698 0.0
C292 C 1.02353 0.77465 0.91307 0.0
C293 C 1.01578 0.79401 0.90206 0.0
C294 C 0.03732 0.82615 0.9003 0.0
C295 C 0.06696 0.83945 0.90956 0.0
C296 C 0.07468 0.81967 0.92027 0.0
C297 C 0.05315 0.78761 0.92202 0.0
C298 C 0.91178 0.69197 0.87461 0.0
C299 C 0.9018 0.7407 0.90881 0.0
O300 O 0.83105 0.63552 0.93255 0.0
O301 O 0.82571 0.65177 0.90336 0.0
O302 O 0.88205 0.69186 0.94599 0.0
O303 O 0.91225 0.68009 0.93204 0.0
O304 O 0.8802 0.63221 0.90697 0.0
O305 O 0.93479 0.65821 0.91036 0.0
O306 O 0.99037 0.72242 0.9017 0.0
O307 O 0.97679 0.73789 0.92842 0.0
O308 O 0.94222 0.70646 0.87598 0.0
O309 O 0.90115 0.68712 0.89207 0.0
O310 O 0.93001 0.74328 0.91031 0.0
O311 O 0.87545 0.7134 0.90881 0.0
H312 H 0.7689 0.59947 0.94614 0.0
H313 H 0.71705 0.55357 0.94127 0.0
H314 H 0.73637 0.55325 0.87867 0.0
H315 H 0.78869 0.59951 0.88362 0.0
H316 H 0.99286 0.7844 0.89517 0.0
H317 H 0.0307 0.84059 0.89179 0.0
H318 H 0.09703 0.82912 0.92788 0.0
H319 H 0.05934 0.77308 0.93081 0.0
La320 La 0.2175 0.85883 0.41959 0.0
La321 La 0.24906 0.93052 0.40986 0.0
C322 C 0.19601 0.8007 0.42333 0.0
C323 C 0.19755 0.77197 0.4194 0.0
C324 C 0.19282 0.752 0.43548 0.0
C325 C 0.18855 0.72207 0.43234 0.0
C326 C 0.18901 0.71139 0.41302 0.0
C327 C 0.19541 0.73197 0.39694 0.0
C328 C 0.19943 0.76201 0.40008 0.0
C329 C 0.23376 0.89908 0.44968 0.0
C330 C 0.28952 0.89708 0.40687 0.0
C331 C 0.26914 0.98787 0.41591 0.0
C332 C 0.25672 1.00921 0.41188 0.0
C333 C 0.27592 0.03847 0.40302 0.0
C334 C 0.2648 0.0594 0.40007 0.0
C335 C 0.23426 0.05157 0.40605 0.0
C336 C 0.21493 0.02195 0.41461 0.0
C337 C 0.22597 1.00102 0.41742 0.0
C338 C 0.22653 0.89699 0.37699 0.0
C339 C 0.17407 0.88759 0.41411 0.0
O340 O 0.21656 0.8217 0.43559 0.0
O341 O 0.18811 0.81317 0.40881 0.0
O342 O 0.20851 0.87179 0.44941 0.0
O343 O 0.24851 0.9024 0.43385 0.0
O344 O 0.26311 0.86959 0.40785 0.0
O345 O 0.29031 0.92435 0.40941 0.0
O346 O 0.27759 0.97738 0.40048 0.0
O347 O 0.25351 0.96588 0.42906 0.0
O348 O 0.2403 0.92735 0.37773 0.0
O349 O 0.22573 0.88729 0.39438 0.0
O350 O 0.19923 0.91617 0.41505 0.0
O351 O 0.17614 0.86187 0.41353 0.0
H352 H 0.19109 0.75907 0.45049 0.0
H353 H 0.18416 0.70695 0.44505 0.0
H354 H 0.19588 0.72434 0.38188 0.0
H355 H 0.20288 0.77691 0.3874 0.0
H356 H 0.29966 0.04528 0.39856 0.0
H357 H 0.28021 0.08176 0.39311 0.0
H358 H 0.19149 1.01517 0.41968 0.0
H359 H 0.21051 0.97863 0.42431 0.0
La360 La 0.37941 0.21077 0.92048 0.0
La361 La 0.33738 0.24013 0.9097 0.0
C362 C 0.41755 0.19118 0.92477 0.0
C363 C 0.44802 0.19368 0.91999 0.0
C364 C 0.46507 0.1905 0.93561 0.0
C365 C 0.49162 0.18798 0.93179 0.0
C366 C 0.50196 0.18872 0.91218 0.0
C367 C 0.48541 0.19301 0.89652 0.0
C368 C 0.4586 0.19538 0.90038 0.0
C369 C 0.3541 0.22646 0.95006 0.0
C370 C 0.411 0.28188 0.90658 0.0
C371 C 0.29978 0.26002 0.91491 0.0
C372 C 0.26615 0.24789 0.91072 0.0
C373 C 0.25616 0.26808 0.90338 0.0
C374 C 0.22413 0.25742 0.90078 0.0
C375 C 0.20138 0.22636 0.90566 0.0
C376 C 0.21161 0.20599 0.91252 0.0
C377 C 0.2436 0.21659 0.91494 0.0
C378 C 0.35016 0.21759 0.87749 0.0
C379 C 0.30731 0.16567 0.91473 0.0
O380 O 0.41753 0.21292 0.93609 0.0
O381 O 0.39569 0.18082 0.91098 0.0
O382 O 0.35763 0.2021 0.95027 0.0
O383 O 0.36519 0.24097 0.93412 0.0
O384 O 0.413 0.256 0.90771 0.0
O385 O 0.38424 0.28197 0.90937 0.0
O386 O 0.31878 0.26804 0.89957 0.0
O387 O 0.30583 0.24445 0.92831 0.0
O388 O 0.33244 0.23017 0.87754 0.0
O389 O 0.35882 0.21783 0.89508 0.0
O390 O 0.30291 0.19024 0.91523 0.0
O391 O 0.33553 0.16861 0.91448 0.0
H392 H 0.45709 0.18867 0.95083 0.0
H393 H 0.50321 0.18412 0.94425 0.0
H394 H 0.49289 0.1941 0.88125 0.0
H395 H 0.44576 0.19772 0.88804 0.0
H396 H 0.27313 0.29226 0.89994 0.0
H397 H 0.2172 0.27363 0.8951 0.0
H398 H 0.19491 0.18208 0.91667 0.0
H399 H 0.25059 0.20043 0.92061 0.0
La400 La 0.17869 0.36435 0.41728 0.0
La401 La 0.10652 0.32416 0.40928 0.0
C402 C 0.23687 0.40145 0.42051 0.0
C403 C 0.2654 0.43195 0.41682 0.0
C404 C 0.28519 0.4472 0.43305 0.0
C405 C 0.31497 0.47317 0.43018 0.0
C406 C 0.32565 0.48463 0.41097 0.0
C407 C 0.30526 0.47041 0.39472 0.0
C408 C 0.27538 0.44404 0.39759 0.0
C409 C 0.14018 0.34082 0.44813 0.0
C410 C 0.13959 0.39776 0.40642 0.0
C411 C 0.04973 0.2872 0.4172 0.0
C412 C 0.02789 0.25397 0.41267 0.0
C413 C 0.03832 0.236 0.40241 0.0
C414 C 1.01846 0.20366 0.39998 0.0
C415 C 0.98776 0.18876 0.40767 0.0
C416 C 0.97724 0.20707 0.41755 0.0
C417 C 0.9972 0.23939 0.42008 0.0
C418 C 0.13717 0.33628 0.37522 0.0
C419 C 0.15004 0.29239 0.41123 0.0
O420 O 0.21618 0.40051 0.43319 0.0
O421 O 0.22407 0.38137 0.4058 0.0
O422 O 0.16716 0.34227 0.44713 0.0
O423 O 0.13624 0.35224 0.43257 0.0
O424 O 0.16713 0.39888 0.40599 0.0
O425 O 0.11273 0.37147 0.41014 0.0
O426 O 0.05898 0.30674 0.40213 0.0
O427 O 0.07305 0.29205 0.42892 0.0
O428 O 0.10682 0.32022 0.37691 0.0
O429 O 0.14849 0.34413 0.3925 0.0
O430 O 0.12139 0.28874 0.41254 0.0
O431 O 0.17569 0.32023 0.41068 0.0
H432 H 0.27811 0.43818 0.44798 0.0
H433 H 0.32998 0.48392 0.443 0.0
H434 H 0.31296 0.47879 0.37975 0.0
H435 H 0.26063 0.43256 0.3848 0.0
H436 H 0.06202 0.2469 0.39664 0.0
H437 H 0.02715 0.1903 0.39211 0.0
H438 H 0.95387 0.19628 0.42384 0.0
H439 H 0.9889 0.25285 0.42823 0.0
La440 La 0.8329 0.1731 0.91669 0.0
La441 La 0.80219 0.10066 0.90899 0.0
C442 C 0.85362 0.23137 0.91793 0.0
C443 C 0.85263 0.25909 0.91035 0.0
C444 C 0.83168 0.26781 0.91837 0.0
C445 C 0.83547 0.29744 0.91443 0.0
C446 C 0.86046 0.31908 0.90253 0.0
C447 C 0.88034 0.30967 0.89368 0.0
C448 C 0.87652 0.28008 0.89758 0.0
C449 C 0.81679 0.1354 0.94792 0.0
C450 C 0.76138 0.13297 0.90347 0.0
C451 C 0.78284 0.04398 0.91645 0.0
C452 C 0.79583 0.02296 0.91288 0.0
C453 C 0.77826 0.99481 0.90232 0.0
C454 C 0.79019 0.97459 0.89914 0.0
C455 C 0.8199 0.98198 0.90663 0.0
C456 C 0.83753 1.01038 0.91707 0.0
C457 C 0.82573 0.03066 0.92007 0.0
C458 C 0.82451 0.13197 0.87545 0.0
C459 C 0.87685 0.14443 0.91372 0.0
O460 O 0.8305 0.21106 0.9291 0.0
O461 O 0.86503 0.21806 0.90627 0.0
O462 O 0.84139 0.16312 0.94744 0.0
O463 O 0.80233 0.13057 0.93181 0.0
O464 O 0.78772 0.16058 0.9032 0.0
O465 O 0.76079 0.10632 0.9079 0.0
O466 O 0.77371 0.05318 0.90075 0.0
O467 O 0.79835 0.06686 0.92922 0.0
O468 O 0.81095 0.10169 0.87691 0.0
O469 O 0.82514 0.14272 0.89252 0.0
O470 O 0.85195 0.11576 0.91465 0.0
O471 O 0.87459 0.16998 0.91229 0.0
H472 H 0.81331 0.25242 0.92851 0.0
H473 H 0.81987 0.30401 0.9216 0.0
H474 H 0.89952 0.32559 0.8842 0.0
H475 H 0.8933 0.27427 0.89136 0.0
H476 H 0.75524 0.98841 0.89653 0.0
H477 H 0.77613 0.95322 0.89074 0.0
H478 H 0.86024 1.01674 0.92334 0.0
H479 H 0.84004 0.05225 0.92822 0.0
C480 C 0.13281 0.90441 0.14211 0.0
C481 C 0.15807 0.89929 0.13842 0.0
C482 C 0.13785 0.93512 0.14354 0.0
C483 C 0.2018 1.01613 0.15401 0.0
H484 H 0.14876 0.04309 0.12832 0.0
C485 C 0.24455 0.14637 0.14128 0.0
C486 C 0.22365 0.15756 0.14463 0.0
C487 C 0.23396 0.11422 0.14134 0.0
C488 C 0.16357 0.03582 0.13579 0.0
H489 H 0.20818 0.92265 0.1324 0.0
H490 H 0.21667 0.97534 0.13468 0.0
H491 H 0.1343 0.98765 0.12699 0.0
H492 H 0.17497 0.14343 0.15047 0.0
H493 H 0.15641 0.08706 0.15049 0.0
H494 H 0.23129 0.06403 0.16262 0.0
C495 C 0.19312 0.95588 0.13699 0.0
C496 C 0.15526 1.00407 0.13504 0.0
C497 C 0.18814 0.92548 0.13558 0.0
C498 C 0.19167 0.13563 0.14769 0.0
C499 C 0.18103 0.10333 0.14771 0.0
C500 C 0.21007 0.04768 0.15474 0.0
C501 C 0.16824 0.96119 0.14133 0.0
C502 C 0.17473 0.99402 0.14375 0.0
C503 C 0.20215 0.09227 0.14473 0.0
C504 C 0.19149 0.0581 0.14527 0.0
H505 H 0.10935 0.88483 0.14434 0.0
H506 H 0.11817 0.93845 0.14688 0.0
H507 H 0.21692 1.00907 0.16132 0.0
H508 H 0.26918 0.16248 0.1384 0.0
H509 H 0.25076 0.10653 0.13853 0.0
C510 C 0.2435 0.12627 0.63619 0.0
C511 C 0.27438 0.15155 0.63821 0.0
C512 C 0.21793 0.13158 0.63611 0.0
C513 C 0.20003 0.19533 0.62717 0.0
H514 H 0.12463 0.14514 0.65804 0.0
C515 C 0.1161 0.24043 0.64603 0.0
C516 C 0.08375 0.21981 0.64336 0.0
C517 C 0.13731 0.22941 0.64522 0.0
C518 C 0.14543 0.15915 0.64919 0.0
H519 H 0.3023 0.20214 0.64223 0.0
H520 H 0.25835 0.21106 0.64228 0.0
H521 H 0.16516 0.13003 0.65626 0.0
H522 H 0.04835 0.17112 0.63827 0.0
H523 H 0.08553 0.15184 0.63712 0.0
H524 H 0.18086 0.22477 0.62038 0.0
C525 C 0.25369 0.18725 0.64033 0.0
C526 C 0.16857 0.15045 0.64812 0.0
C527 C 0.279 0.18202 0.64042 0.0
C528 C 0.07306 0.18763 0.64057 0.0
C529 C 0.09434 0.17656 0.63986 0.0
C530 C 0.17711 0.20405 0.62831 0.0
C531 C 0.22286 0.16225 0.63796 0.0
C532 C 0.19647 0.1689 0.63745 0.0
C533 C 0.12676 0.19745 0.6418 0.0
C534 C 0.14985 0.18649 0.63966 0.0
H535 H 0.23908 0.1025 0.63454 0.0
H536 H 0.19442 0.11182 0.63426 0.0
H537 H 0.22087 0.20963 0.61841 0.0
H538 H 0.12513 0.26521 0.64866 0.0
H539 H 0.16209 0.24601 0.64721 0.0
C540 C 0.89945 0.10557 0.14641 0.0
C541 C 0.88775 0.07322 0.14383 0.0
C542 C 0.93165 0.12685 0.14554 0.0
C543 C 1.01018 0.13532 0.15011 0.0
H544 H 0.03523 0.21164 0.12042 0.0
C545 C 0.14121 0.23582 0.13932 0.0
C546 C 0.14601 0.26637 0.1415 0.0
C547 C 0.11057 0.20975 0.13893 0.0
C548 C 0.02868 0.19055 0.12887 0.0
H549 H 0.90119 0.03796 0.13871 0.0
H550 H 0.9577 0.07532 0.13741 0.0
H551 H 0.98022 0.17106 0.12132 0.0
H552 H 0.12216 0.2931 0.14584 0.0
H553 H 0.06976 0.24834 0.14536 0.0
H554 H 0.0589 0.15541 0.15796 0.0
C555 C 0.94172 0.08406 0.14013 0.0
C556 C 0.9971 0.16728 0.12939 0.0
C557 C 0.90934 0.06267 0.1409 0.0
C558 C 0.11961 0.27009 0.1438 0.0
C559 C 0.08934 0.24432 0.14343 0.0
C560 C 0.04198 0.15881 0.14965 0.0
C561 C 0.95318 0.11645 0.14215 0.0
C562 C 0.98731 0.1397 0.14038 0.0
C563 C 0.08429 0.21385 0.14066 0.0
C564 C 0.05144 0.18705 0.13942 0.0
H565 H 0.88369 0.11455 0.14922 0.0
H566 H 0.93975 0.15159 0.14761 0.0
H567 H 1.00336 0.1143 0.1587 0.0
H568 H 0.16099 0.23208 0.1376 0.0
H569 H 0.10744 0.18653 0.13682 0.0
C570 C 0.85444 0.89834 0.64119 0.0
C571 C 0.82206 0.87683 0.64302 0.0
C572 C 0.86561 0.9307 0.64048 0.0
C573 C 0.83894 0.9862 0.62744 0.0
H574 H 0.91135 0.04794 0.65719 0.0
C575 C 0.86025 0.10989 0.63953 0.0
C576 C 0.89082 0.13582 0.63801 0.0
C577 C 0.85505 0.07937 0.63946 0.0
C578 C 0.8914 0.03102 0.64855 0.0
H579 H 0.77635 0.87279 0.64659 0.0
H580 H 0.79573 0.92895 0.64516 0.0
H581 H 0.89609 0.99229 0.6589 0.0
H582 H 0.94007 0.14969 0.63559 0.0
H583 H 0.93082 0.09575 0.63536 0.0
H584 H 0.83396 0.02448 0.61714 0.0
C585 C 0.81244 0.92079 0.64391 0.0
C586 C 0.88261 0.99917 0.64958 0.0
C587 C 0.80132 0.88856 0.64471 0.0
C588 C 0.91622 0.13029 0.63669 0.0
C589 C 0.91094 0.09943 0.63665 0.0
C590 C 0.84775 0.01785 0.62636 0.0
C591 C 0.84463 0.94224 0.64147 0.0
C592 C 0.85581 0.97634 0.63939 0.0
C593 C 0.88018 0.07363 0.6378 0.0
C594 C 0.87358 0.0406 0.63728 0.0
H595 H 0.87108 0.89015 0.63965 0.0
H596 H 0.89052 0.94661 0.6385 0.0
H597 H 0.81869 0.96933 0.619 0.0
H598 H 0.84001 0.11299 0.64078 0.0
H599 H 0.83114 0.06016 0.64085 0.0
C600 C 0.94297 0.80571 0.13289 0.0
C601 C 0.96831 0.81762 0.14634 0.0
C602 C 0.92337 0.81862 0.13186 0.0
C603 C 0.89844 0.86781 0.15958 0.0
H604 H 0.8653 0.87141 0.10793 0.0
C605 C 0.81129 0.91448 0.14755 0.0
C606 C 0.78394 0.89258 0.13746 0.0
C607 C 0.83767 0.91053 0.14813 0.0
C608 C 0.87448 0.87069 0.12245 0.0
H609 H 0.99228 0.85229 0.16957 0.0
H610 H 0.95862 0.87544 0.16732 0.0
H611 H 0.90364 0.85402 0.11036 0.0
H612 H 0.76328 0.85041 0.11929 0.0
H613 H 0.80909 0.84397 0.11998 0.0
H614 H 0.86883 0.88434 0.17156 0.0
C615 C 0.95373 0.85579 0.15772 0.0
C616 C 0.89627 0.86048 0.12389 0.0
C617 C 0.97326 0.8427 0.15886 0.0
C618 C 0.78393 0.86758 0.1273 0.0
C619 C 0.81027 0.86398 0.12758 0.0
C620 C 0.87676 0.87831 0.1581 0.0
C621 C 0.92866 0.84408 0.14408 0.0
C622 C 0.90789 0.85803 0.14252 0.0
C623 C 0.83727 0.88507 0.13823 0.0
C624 C 0.86394 0.87904 0.13957 0.0
H625 H 0.93857 0.78675 0.12279 0.0
H626 H 0.90395 0.8085 0.12145 0.0
H627 H 0.90672 0.86611 0.17418 0.0
H628 H 0.81188 0.93389 0.15557 0.0
H629 H 0.85826 0.92718 0.1564 0.0
C630 C 0.91049 0.80076 0.64599 0.0
C631 C 0.90604 0.77025 0.64463 0.0
C632 C 0.94084 0.82676 0.6483 0.0
C633 C 1.02097 0.84649 0.66435 0.0
H634 H 0.05007 0.92093 0.63195 0.0
C635 C 0.15146 0.9292 0.64774 0.0
C636 C 0.16323 0.96178 0.64839 0.0
C637 C 0.11928 0.90818 0.64945 0.0
C638 C 0.04215 0.90047 0.64131 0.0
H639 H 0.9303 0.74346 0.64423 0.0
H640 H 0.98227 0.78815 0.64797 0.0
H641 H 0.99456 0.88015 0.63103 0.0
H642 H 0.15007 0.9976 0.65182 0.0
H643 H 0.09374 0.96072 0.65433 0.0
H644 H 0.06857 0.86615 0.67411 0.0
C645 C 0.96254 0.79217 0.64772 0.0
C646 C 1.01036 0.87717 0.64082 0.0
C647 C 0.93254 0.76645 0.64541 0.0
C648 C 0.14187 0.97271 0.65091 0.0
C649 C 0.10959 0.95162 0.65242 0.0
C650 C 0.05262 0.86959 0.66474 0.0
C651 C 0.96715 0.82262 0.64939 0.0
C652 C 0.99962 0.84951 0.65192 0.0
C653 C 0.09797 0.91913 0.65169 0.0
C654 C 0.06373 0.89646 0.65286 0.0
H655 H 0.89061 0.80454 0.64542 0.0
H656 H 0.94367 0.84999 0.64952 0.0
H657 H 1.01332 0.82581 0.67346 0.0
H658 H 0.167 0.91985 0.6454 0.0
H659 H 0.11098 0.88325 0.64851 0.0
C660 C 0.13661 0.90886 0.41575 0.0
C661 C 0.14197 0.88345 0.41363 0.0
C662 C 0.10582 0.90383 0.41579 0.0
C663 C 1.02389 0.84042 0.42465 0.0
H664 H 0.9993 0.8922 0.39507 0.0
C665 C 0.89485 0.7975 0.40682 0.0
C666 C 0.88351 0.81841 0.40962 0.0
C667 C 0.92699 0.80807 0.40764 0.0
C668 C 1.00591 0.87775 0.40358 0.0
H669 H 0.11892 0.83294 0.4092 0.0
H670 H 0.06615 0.82447 0.40908 0.0
H671 H 0.05475 0.90645 0.39624 0.0
H672 H 0.89749 0.8672 0.41499 0.0
H673 H 0.95388 0.88572 0.41619 0.0
H674 H 0.97529 0.81144 0.43173 0.0
C675 C 0.08545 0.84818 0.41118 0.0
C676 C 0.03766 0.88594 0.40429 0.0
C677 C 0.11593 0.85315 0.41115 0.0
C678 C 0.90537 0.85045 0.41264 0.0
C679 C 0.93768 0.86108 0.41336 0.0
C680 C 0.99235 0.83222 0.42388 0.0
C681 C 0.07987 0.87329 0.41377 0.0
C682 C 0.04689 0.86694 0.41449 0.0
C683 C 0.94879 0.83989 0.41118 0.0
C684 C 0.98283 0.85038 0.41302 0.0
H685 H 0.15608 0.93252 0.41761 0.0
H686 H 0.10231 0.9237 0.41781 0.0
H687 H 0.03024 0.82568 0.43307 0.0
H688 H 0.87885 0.77284 0.40394 0.0
H689 H 0.93481 0.79124 0.40544 0.0
C690 C 0.07901 0.89568 0.91053 0.0
C691 C 0.08948 0.87388 0.90869 0.0
C692 C 0.10052 0.92798 0.91112 0.0
C693 C 0.18316 0.98314 0.92368 0.0
H694 H 0.17208 0.0447 0.89439 0.0
C695 C 0.28512 0.10767 0.91269 0.0
C696 C 0.27994 0.13324 0.91425 0.0
C697 C 0.26009 0.07695 0.91246 0.0
C698 C 0.17526 0.02784 0.90289 0.0
H699 H 0.13077 0.8692 0.90498 0.0
H700 H 0.16812 0.92529 0.90616 0.0
H701 H 0.13164 0.98909 0.89262 0.0
H702 H 0.24392 0.14625 0.91645 0.0
H703 H 0.19983 0.09209 0.91621 0.0
H704 H 0.2266 0.02149 0.93396 0.0
C705 C 0.14332 0.91741 0.90753 0.0
C706 C 0.15215 0.996 0.90184 0.0
C707 C 0.12189 0.88523 0.90686 0.0
C708 C 0.2488 0.12716 0.91531 0.0
C709 C 0.22354 0.09614 0.91508 0.0
C710 C 0.20607 1.01481 0.9248 0.0
C711 C 0.13296 0.93917 0.90998 0.0
C712 C 0.1562 0.97324 0.91191 0.0
C713 C 0.22899 0.07068 0.91386 0.0
C714 C 0.2028 0.03751 0.91409 0.0
H715 H 0.05425 0.88779 0.91218 0.0
H716 H 0.09181 0.94414 0.91312 0.0
H717 H 0.18663 0.96633 0.93204 0.0
H718 H 0.30866 0.11122 0.91162 0.0
H719 H 0.26518 0.05801 0.91103 0.0
C720 C 0.12923 0.23413 0.40665 0.0
C721 C 0.15441 0.26466 0.41008 0.0
C722 C 0.13469 0.2088 0.40458 0.0
C723 C 0.19924 0.19288 0.39268 0.0
H724 H 0.14767 0.11285 0.41855 0.0
C725 C 0.24353 0.1067 0.40746 0.0
C726 C 0.22295 0.07451 0.4041 0.0
C727 C 0.23281 0.12814 0.40639 0.0
C728 C 0.16205 0.13495 0.41102 0.0
H729 H 0.20486 0.29208 0.41487 0.0
H730 H 0.21404 0.24849 0.41158 0.0
H731 H 0.13242 0.1532 0.42013 0.0
H732 H 0.17483 0.03991 0.39656 0.0
H733 H 0.15607 0.0774 0.3951 0.0
H734 H 0.2293 0.17513 0.38402 0.0
C735 C 0.19023 0.244 0.4099 0.0
C736 C 0.15328 0.15802 0.4119 0.0
C737 C 0.18486 0.26908 0.41192 0.0
C738 C 0.19131 0.06441 0.39955 0.0
C739 C 0.18051 0.08588 0.39866 0.0
C740 C 0.20805 0.16999 0.39191 0.0
C741 C 0.1654 0.21362 0.40588 0.0
C742 C 0.17223 0.18756 0.40314 0.0
C743 C 0.20116 0.11799 0.40207 0.0
C744 C 0.18996 0.14102 0.40142 0.0
H745 H 0.10548 0.22989 0.40519 0.0
H746 H 0.11502 0.18564 0.40151 0.0
H747 H 0.21396 0.21506 0.38532 0.0
H748 H 0.26785 0.11536 0.41141 0.0
H749 H 0.24921 0.15267 0.40941 0.0
C750 C 0.15612 0.23608 0.9098 0.0
C751 C 0.16717 0.21565 0.90449 0.0
C752 C 0.12404 0.22588 0.90947 0.0
C753 C 0.04607 0.15558 0.91267 0.0
H754 H 1.01841 0.21077 0.89124 0.0
C755 C 0.91442 0.12397 0.90913 0.0
C756 C 0.90893 0.14876 0.9136 0.0
C757 C 0.94527 0.12959 0.90729 0.0
C758 C 0.02574 0.19516 0.89745 0.0
H759 H 0.15278 0.16839 0.89435 0.0
H760 H 0.0966 0.15049 0.89415 0.0
H761 H 0.0735 0.22562 0.88895 0.0
H762 H 0.93152 0.19842 0.92081 0.0
H763 H 0.98461 0.20791 0.918 0.0
H764 H 0.99823 0.12544 0.92158 0.0
C765 C 0.11296 0.1744 0.89865 0.0
C766 C 0.05732 0.20367 0.89609 0.0
C767 C 0.14516 0.18469 0.8988 0.0
C768 C 0.93479 0.17884 0.917 0.0
C769 C 0.96536 0.18437 0.91526 0.0
C770 C 1.01435 0.1471 0.91415 0.0
C771 C 0.10208 0.19492 0.90397 0.0
C772 C 0.06798 0.18431 0.90401 0.0
C773 C 0.97107 0.16006 0.90995 0.0
C774 C 1.00397 0.16716 0.90692 0.0
H775 H 0.17219 0.25983 0.9147 0.0
H776 H 0.11634 0.24212 0.91396 0.0
H777 H 0.05365 0.14023 0.91898 0.0
H778 H 0.89498 0.10052 0.90645 0.0
H779 H 0.94888 0.11033 0.90321 0.0
C780 C 0.93504 0.14146 0.40091 0.0
C781 C 0.96693 0.1542 0.40575 0.0
C782 C 0.91519 0.10899 0.39964 0.0
C783 C 0.90576 0.03397 0.41714 0.0
H784 H 0.84123 0.9998 0.37641 0.0
C785 C 0.80815 0.90115 0.4115 0.0
C786 C 0.7778 0.89704 0.40969 0.0
C787 C 0.83475 0.93117 0.40953 0.0
C788 C 0.85919 1.00896 0.38785 0.0
H789 H 1.00294 0.14271 0.41313 0.0
H790 H 0.9682 0.08586 0.41076 0.0
H791 H 0.88118 0.05518 0.3756 0.0
H792 H 0.75183 0.92136 0.4042 0.0
H793 H 0.79756 0.97277 0.40077 0.0
H794 H 0.88301 0.98763 0.42963 0.0
C795 C 0.9586 0.10109 0.40801 0.0
C796 C 0.88199 0.04071 0.38743 0.0
C797 C 0.97854 0.13365 0.40917 0.0
C798 C 0.77471 0.92344 0.40576 0.0
C799 C 0.80102 0.95304 0.4036 0.0
C800 C 0.88285 1.00205 0.41754 0.0
C801 C 0.92667 0.08838 0.40323 0.0
C802 C 0.90499 0.05384 0.4024 0.0
C803 C 0.83134 0.95735 0.40538 0.0
C804 C 0.85877 0.98948 0.40323 0.0
H805 H 0.9254 0.15661 0.39804 0.0
H806 H 0.89063 0.10002 0.3962 0.0
H807 H 0.92312 0.04337 0.42892 0.0
H808 H 0.81133 0.88131 0.41454 0.0
H809 H 0.85791 0.93387 0.41101 0.0
C810 C 0.92479 0.79952 0.90543 0.0
C811 C 0.89863 0.76907 0.90679 0.0
C812 C 0.92057 0.8256 0.9032 0.0
C813 C 0.86003 0.84532 0.88741 0.0
H814 H 0.90558 0.91995 0.91999 0.0
C815 C 0.81163 0.92722 0.90501 0.0
C816 C 0.83213 0.95984 0.9041 0.0
C817 C 0.82306 0.90643 0.90321 0.0
C818 C 0.89298 0.89943 0.91059 0.0
H819 H 0.84754 0.74249 0.90726 0.0
H820 H 0.84049 0.78722 0.90365 0.0
H821 H 0.92056 0.87934 0.92058 0.0
H822 H 0.88092 0.99596 0.9002 0.0
H823 H 0.90085 0.95948 0.89758 0.0
H824 H 0.83173 0.86469 0.87799 0.0
C825 C 0.86423 0.79118 0.90384 0.0
C826 C 0.90161 0.87623 0.91088 0.0
C827 C 0.86838 0.76541 0.90607 0.0
C828 C 0.86444 0.97104 0.90131 0.0
C829 C 0.87592 0.95018 0.89973 0.0
C830 C 0.85131 0.86828 0.88724 0.0
C831 C 0.89014 0.82157 0.90217 0.0
C832 C 0.8846 0.84849 0.89973 0.0
C833 C 0.85532 0.91765 0.90063 0.0
C834 C 0.86712 0.8952 0.8992 0.0
H835 H 0.94841 0.8032 0.90597 0.0
H836 H 0.94103 0.84878 0.90198 0.0
H837 H 0.84692 0.82459 0.87826 0.0
H838 H 0.78676 0.91764 0.90757 0.0
H839 H 0.80665 0.88147 0.90428 0.0
C840 C 0.17717 0.72606 0.15406 0.0
C841 C 0.14809 0.72401 0.15009 0.0
C842 C 0.17969 0.69911 0.1555 0.0
C843 C 0.14003 0.61566 0.14019 0.0
H844 H 0.20011 0.61312 0.17641 0.0
C845 C 0.1547 0.5063 0.14789 0.0
C846 C 0.18561 0.51167 0.14873 0.0
C847 C 0.14876 0.53126 0.14913 0.0
C848 C 0.18342 0.61356 0.1661 0.0
H849 H 0.09858 0.69156 0.14507 0.0
H850 H 0.10288 0.64423 0.1479 0.0
H851 H 0.19101 0.65745 0.17751 0.0
H852 H 0.2345 0.54764 0.15173 0.0
H853 H 0.22417 0.5913 0.15386 0.0
H854 H 0.13249 0.57167 0.12881 0.0
C855 C 0.12388 0.66693 0.14959 0.0
C856 C 0.17816 0.639 0.16672 0.0
C857 C 0.12134 0.69406 0.14813 0.0
C858 C 0.21045 0.54269 0.15094 0.0
C859 C 0.20448 0.56767 0.15234 0.0
C860 C 0.14517 0.5901 0.13966 0.0
C861 C 0.1532 0.66914 0.15311 0.0
C862 C 0.15673 0.64066 0.15358 0.0
C863 C 0.17356 0.56228 0.15136 0.0
C864 C 0.16721 0.58891 0.15244 0.0
H865 H 0.19839 0.74862 0.15568 0.0
H866 H 0.20274 0.70193 0.1579 0.0
H867 H 0.1237 0.61626 0.12965 0.0
H868 H 0.13501 0.48277 0.14593 0.0
H869 H 0.12467 0.52622 0.14848 0.0
C870 C 0.67987 0.1993 0.65459 0.0
C871 C 0.68642 0.17514 0.65042 0.0
C872 C 0.6488 0.19284 0.65619 0.0
C873 C 0.56799 0.13546 0.64055 0.0
H874 H 0.5442 0.17499 0.68162 0.0
C875 C 0.43995 0.11072 0.64822 0.0
C876 C 0.4368 0.13721 0.65166 0.0
C877 C 0.46941 0.11281 0.64989 0.0
C878 C 0.55046 0.16391 0.66996 0.0
H879 H 0.66528 0.12526 0.64444 0.0
H880 H 0.61122 0.11402 0.64739 0.0
H881 H 0.59775 0.18428 0.68063 0.0
H882 H 0.46218 0.18644 0.66023 0.0
H883 H 0.51294 0.19007 0.66284 0.0
H884 H 0.52094 0.11567 0.62958 0.0
C885 C 0.6301 0.13797 0.6494 0.0
C886 C 0.5812 0.16927 0.6694 0.0
C887 C 0.66113 0.14438 0.64794 0.0
C888 C 0.46355 0.16548 0.65742 0.0
C889 C 0.49281 0.16755 0.65908 0.0
C890 C 0.53726 0.13022 0.64104 0.0
C891 C 0.62352 0.16212 0.65349 0.0
C892 C 0.59045 0.15539 0.65457 0.0
C893 C 0.4963 0.1414 0.65511 0.0
C894 C 0.52818 0.1447 0.65561 0.0
H895 H 0.69879 0.22321 0.65666 0.0
H896 H 0.64455 0.21205 0.65916 0.0
H897 H 0.57441 0.12464 0.6288 0.0
H898 H 0.41987 0.08859 0.64376 0.0
H899 H 0.47115 0.09209 0.64696 0.0
C900 C 0.53851 0.65724 0.12958 0.0
C901 C 0.53681 0.68242 0.1382 0.0
C902 C 0.51366 0.62644 0.13142 0.0
C903 C 0.44125 0.57619 0.16063 0.0
H904 H 0.41997 0.52059 0.11508 0.0
C905 C 0.32347 0.45994 0.15332 0.0
C906 C 0.32365 0.43362 0.14523 0.0
C907 C 0.3508 0.48928 0.15374 0.0
C908 C 0.42588 0.53566 0.12803 0.0
H909 H 0.50762 0.69486 0.15568 0.0
H910 H 0.46388 0.64111 0.15863 0.0
H911 H 0.46438 0.57386 0.11315 0.0
H912 H 0.35298 0.4175 0.13154 0.0
H913 H 0.4009 0.46906 0.13215 0.0
H914 H 0.40213 0.53805 0.17528 0.0
C915 C 0.48471 0.64511 0.15069 0.0
C916 C 0.45139 0.56627 0.12695 0.0
C917 C 0.50974 0.67597 0.14896 0.0
C918 C 0.35205 0.43727 0.13789 0.0
C919 C 0.37943 0.46683 0.13813 0.0
C920 C 0.4156 0.54562 0.16165 0.0
C921 C 0.48627 0.61992 0.14185 0.0
C922 C 0.45937 0.58705 0.1432 0.0
C923 C 0.37904 0.49322 0.14594 0.0
C924 C 0.40749 0.52505 0.14532 0.0
H925 H 0.5593 0.66129 0.12155 0.0
H926 H 0.51611 0.6077 0.12478 0.0
H927 H 0.44698 0.59123 0.17358 0.0
H928 H 0.30205 0.458 0.15918 0.0
H929 H 0.34957 0.50913 0.15968 0.0
C930 C 0.89477 0.52664 0.63632 0.0
C931 C 0.86808 0.52505 0.64512 0.0
C932 C 0.90104 0.50206 0.63841 0.0
C933 C 0.87944 0.42969 0.66773 0.0
H934 H 0.9136 0.40897 0.62193 0.0
C935 C 0.87838 0.31204 0.65866 0.0
C936 C 0.90486 0.31264 0.65021 0.0
C937 C 0.87636 0.33934 0.6599 0.0
C938 C 0.90449 0.41471 0.63496 0.0
H939 H 0.82729 0.49655 0.66331 0.0
H940 H 0.8377 0.45307 0.66659 0.0
H941 H 0.90446 0.45313 0.62028 0.0
H942 H 0.95042 0.34277 0.63694 0.0
H943 H 0.94677 0.39054 0.63898 0.0
H944 H 0.8786 0.39042 0.6821 0.0
C945 C 0.85419 0.47364 0.65835 0.0
C946 C 0.89925 0.44013 0.63405 0.0
C947 C 0.84811 0.4985 0.65643 0.0
C948 C 0.92974 0.34148 0.64358 0.0
C949 C 0.92754 0.36879 0.64461 0.0
C950 C 0.88442 0.40405 0.66856 0.0
C951 C 0.88062 0.47495 0.64919 0.0
C952 C 0.88659 0.448 0.6504 0.0
C953 C 0.90061 0.36793 0.65253 0.0
C954 C 0.89693 0.39621 0.65216 0.0
H955 H 0.91097 0.54707 0.62783 0.0
H956 H 0.92204 0.50442 0.63156 0.0
H957 H 0.87018 0.43525 0.68075 0.0
H958 H 0.85881 0.29026 0.66399 0.0
H959 H 0.85521 0.33778 0.66594 0.0
C960 C 0.58459 0.86431 0.14589 0.0
C961 C 0.61177 0.8938 0.14345 0.0
C962 C 0.55506 0.86163 0.14748 0.0
C963 C 0.51137 0.90241 0.1356 0.0
H964 H 0.45005 0.84148 0.17191 0.0
C965 C 0.38817 0.88838 0.14614 0.0
C966 C 0.36258 0.85752 0.14684 0.0
C967 C 0.41904 0.89416 0.14699 0.0
C968 C 0.4668 0.85841 0.16158 0.0
H969 H 0.62901 0.94371 0.14087 0.0
H970 H 0.57719 0.93903 0.14375 0.0
H971 H 0.50324 0.84979 0.17126 0.0
H972 H 0.34952 0.80858 0.14941 0.0
H973 H 0.40341 0.81862 0.15071 0.0
H974 H 0.4748 0.91083 0.12581 0.0
C975 C 0.57887 0.91793 0.14426 0.0
C976 C 0.49733 0.8632 0.1612 0.0
C977 C 0.60859 0.92064 0.1427 0.0
C978 C 0.36866 0.8326 0.1487 0.0
C979 C 0.39957 0.8384 0.14964 0.0
C980 C 0.48082 0.89764 0.13599 0.0
C981 C 0.55174 0.88835 0.14669 0.0
C982 C 0.51991 0.88497 0.14803 0.0
C983 C 0.42515 0.86924 0.14862 0.0
C984 C 0.45805 0.87533 0.14884 0.0
H985 H 0.58599 0.84305 0.14651 0.0
H986 H 0.5347 0.83844 0.14898 0.0
H987 H 0.52801 0.91906 0.1251 0.0
H988 H 0.3844 0.90813 0.14443 0.0
H989 H 0.43814 0.91821 0.14637 0.0
C990 C 0.70074 0.60095 0.64533 0.0
C991 C 0.73057 0.60403 0.64774 0.0
C992 C 0.67348 0.57148 0.64711 0.0
C993 C 0.64493 0.49101 0.66688 0.0
H994 H 0.57852 0.46611 0.62787 0.0
C995 C 0.5498 0.3615 0.6537 0.0
C996 C 0.51883 0.35482 0.65036 0.0
C997 C 0.57446 0.39259 0.6548 0.0
C998 C 0.59666 0.47282 0.63904 0.0
H999 H 0.7549 0.57839 0.65424 0.0
H1000 H 0.7079 0.52763 0.65707 0.0
H1001 H 0.62319 0.51951 0.62755 0.0
H1002 H 0.48963 0.37571 0.64541 0.0
H1003 H 0.53255 0.42982 0.64757 0.0
H1004 H 0.61871 0.44416 0.67811 0.0
C1005 C 0.70534 0.54785 0.65407 0.0
C1006 C 0.62225 0.50348 0.63888 0.0
C1007 C 0.73242 0.5771 0.65228 0.0
C1008 C 0.51313 0.37999 0.64828 0.0
C1009 C 0.53779 0.41103 0.64927 0.0
C1010 C 0.61943 0.46037 0.66698 0.0
C1011 C 0.6755 0.54454 0.65144 0.0
C1012 C 0.64693 0.51284 0.65263 0.0
C1013 C 0.56878 0.41773 0.65245 0.0
C1014 C 0.59517 0.45078 0.65292 0.0
H1015 H 0.69844 0.62117 0.64183 0.0
H1016 H 0.65083 0.5698 0.64515 0.0
H1017 H 0.6632 0.49756 0.67793 0.0
H1018 H 0.55497 0.34268 0.65545 0.0
H1019 H 0.59811 0.39692 0.65707 0.0
C1020 C 0.31761 0.86763 0.39926 0.0
C1021 C 0.31912 0.89631 0.40376 0.0
C1022 C 0.34486 0.8656 0.39785 0.0
C1023 C 0.42772 0.9052 0.4143 0.0
H1024 H 0.43256 0.84765 0.37685 0.0
C1025 C 0.53819 0.89214 0.40712 0.0
C1026 C 0.53318 0.86144 0.40546 0.0
C1027 C 0.51309 0.89787 0.40585 0.0
C1028 C 0.43148 0.86363 0.38751 0.0
H1029 H 0.35091 0.94564 0.40978 0.0
H1030 H 0.39878 0.94219 0.40706 0.0
H1031 H 0.38788 0.85624 0.3757 0.0
H1032 H 0.49768 0.81271 0.40099 0.0
H1033 H 0.45377 0.82267 0.39884 0.0
H1034 H 0.47137 0.9125 0.42611 0.0
C1035 C 0.37627 0.92112 0.40489 0.0
C1036 C 0.40584 0.8686 0.38685 0.0
C1037 C 0.34883 0.92318 0.40629 0.0
C1038 C 0.50236 0.8366 0.40242 0.0
C1039 C 0.47724 0.84237 0.40101 0.0
C1040 C 0.45346 0.90034 0.41489 0.0
C1041 C 0.37459 0.89219 0.40083 0.0
C1042 C 0.40334 0.8891 0.40043 0.0
C1043 C 0.48228 0.87308 0.40278 0.0
C1044 C 0.45548 0.87919 0.40166 0.0
H1045 H 0.29524 0.84635 0.39716 0.0
H1046 H 0.34245 0.84282 0.39501 0.0
H1047 H 0.42645 0.92081 0.42517 0.0
H1048 H 0.56154 0.9118 0.40972 0.0
H1049 H 0.51788 0.92181 0.40713 0.0
C1050 C 0.68263 0.49734 0.8955 0.0
C1051 C 0.68952 0.52432 0.90655 0.0
C1052 C 0.65156 0.47263 0.89368 0.0
C1053 C 0.57328 0.44044 0.91797 0.0
H1054 H 0.54359 0.38923 0.8703 0.0
C1055 C 0.44417 0.34069 0.90923 0.0
C1056 C 0.4406 0.31179 0.90303 0.0
C1057 C 0.47347 0.36823 0.9079 0.0
C1058 C 0.55157 0.40332 0.88373 0.0
H1059 H 0.66915 0.54725 0.92347 0.0
H1060 H 0.61518 0.5048 0.91993 0.0
H1061 H 0.59692 0.43409 0.87136 0.0
H1062 H 0.46461 0.28941 0.88964 0.0
H1063 H 0.51533 0.33727 0.88716 0.0
H1064 H 0.52788 0.40966 0.93028 0.0
C1065 C 0.63366 0.50203 0.91321 0.0
C1066 C 0.58223 0.42895 0.88439 0.0
C1067 C 0.66465 0.52648 0.91519 0.0
C1068 C 0.46656 0.31126 0.89466 0.0
C1069 C 0.49564 0.33875 0.89311 0.0
C1070 C 0.54258 0.41502 0.91722 0.0
C1071 C 0.62665 0.47451 0.90269 0.0
C1072 C 0.59363 0.44773 0.9016 0.0
C1073 C 0.49964 0.36746 0.90007 0.0
C1074 C 0.53145 0.39596 0.90018 0.0
H1075 H 0.70133 0.49497 0.88875 0.0
H1076 H 0.64722 0.45173 0.88565 0.0
H1077 H 0.58127 0.45387 0.93164 0.0
H1078 H 0.42466 0.34188 0.91578 0.0
H1079 H 0.47577 0.39008 0.91324 0.0
C1080 C 0.19959 0.67077 0.39766 0.0
C1081 C 0.18107 0.67829 0.40984 0.0
C1082 C 0.19259 0.63954 0.39564 0.0
C1083 C 0.14833 0.56197 0.42087 0.0
H1084 H 0.16387 0.53066 0.37173 0.0
C1085 C 0.11551 0.43204 0.41114 0.0
C1086 C 0.13979 0.42776 0.40364 0.0
C1087 C 0.11784 0.46161 0.41034 0.0
C1088 C 0.15944 0.5391 0.38556 0.0
H1089 H 0.1398 0.65887 0.42862 0.0
H1090 H 0.12711 0.60462 0.42474 0.0
H1091 H 0.17334 0.58429 0.37329 0.0
H1092 H 0.18482 0.45081 0.38857 0.0
H1093 H 0.18861 0.50199 0.38699 0.0
H1094 H 0.13433 0.5167 0.43308 0.0
C1095 C 0.14769 0.62273 0.41726 0.0
C1096 C 0.16505 0.56993 0.38651 0.0
C1097 C 0.15489 0.65388 0.41944 0.0
C1098 C 0.16574 0.4533 0.39458 0.0
C1099 C 0.16786 0.48265 0.39355 0.0
C1100 C 0.14245 0.53109 0.41985 0.0
C1101 C 0.16668 0.6151 0.40558 0.0
C1102 C 0.15983 0.58191 0.40424 0.0
C1103 C 0.14425 0.48734 0.40175 0.0
C1104 C 0.14821 0.51938 0.40225 0.0
H1105 H 0.21998 0.68912 0.39015 0.0
H1106 H 0.20801 0.63472 0.3867 0.0
H1107 H 0.14459 0.5704 0.43491 0.0
H1108 H 0.09527 0.41287 0.41825 0.0
H1109 H 0.09913 0.46446 0.41663 0.0
C1110 C 0.70319 0.10969 0.90827 0.0
C1111 C 0.7316 0.13298 0.90002 0.0
C1112 C 0.67622 0.11255 0.9074 0.0
C1113 C 0.64024 0.15366 0.882 0.0
H1114 H 0.59903 0.14568 0.93256 0.0
C1115 C 0.5284 0.16507 0.89201 0.0
C1116 C 0.52885 0.18334 0.90831 0.0
C1117 C 0.55224 0.15762 0.88953 0.0
C1118 C 0.6103 0.148 0.91833 0.0
H1119 H 0.75352 0.17653 0.8834 0.0
H1120 H 0.70655 0.18118 0.88166 0.0
H1121 H 0.64099 0.13296 0.93025 0.0
H1122 H 0.55592 0.20946 0.93414 0.0
H1123 H 0.59688 0.19587 0.93003 0.0
H1124 H 0.60972 0.16911 0.87017 0.0
C1125 C 0.70506 0.16084 0.88888 0.0
C1126 C 0.63409 0.14037 0.91696 0.0
C1127 C 0.73204 0.15823 0.88999 0.0
C1128 C 0.55429 0.19473 0.92168 0.0
C1129 C 0.57784 0.18698 0.91933 0.0
C1130 C 0.61613 0.1609 0.88332 0.0
C1131 C 0.67704 0.13846 0.89799 0.0
C1132 C 0.64966 0.14355 0.89885 0.0
C1133 C 0.57688 0.16798 0.9034 0.0
C1134 C 0.60126 0.15865 0.90158 0.0
H1135 H 0.70212 0.09003 0.91616 0.0
H1136 H 0.65488 0.0948 0.91442 0.0
H1137 H 0.65172 0.15622 0.86782 0.0
H1138 H 0.50907 0.15553 0.88153 0.0
H1139 H 0.55082 0.14285 0.87714 0.0
C1140 C 0.36577 0.5368 0.39671 0.0
C1141 C 0.35861 0.51021 0.40813 0.0
C1142 C 0.39683 0.56163 0.39533 0.0
C1143 C 0.47382 0.59483 0.42156 0.0
H1144 H 0.50576 0.64542 0.37403 0.0
C1145 C 0.60372 0.69335 0.41398 0.0
C1146 C 0.60812 0.72223 0.40713 0.0
C1147 C 0.57405 0.66624 0.41289 0.0
C1148 C 0.49711 0.63153 0.38743 0.0
H1149 H 0.37844 0.48792 0.4261 0.0
H1150 H 0.43244 0.53049 0.42325 0.0
H1151 H 0.4525 0.6004 0.37415 0.0
H1152 H 0.58501 0.74502 0.39315 0.0
H1153 H 0.53361 0.69785 0.39111 0.0
H1154 H 0.51855 0.62589 0.43475 0.0
C1155 C 0.41417 0.53295 0.41593 0.0
C1156 C 0.46651 0.60579 0.38755 0.0
C1157 C 0.3832 0.50842 0.4175 0.0
C1158 C 0.58245 0.72321 0.39867 0.0
C1159 C 0.55299 0.69611 0.39735 0.0
C1160 C 0.50448 0.62033 0.42136 0.0
C1161 C 0.42143 0.56019 0.40514 0.0
C1162 C 0.45434 0.58719 0.40467 0.0
C1163 C 0.54832 0.66739 0.40465 0.0
C1164 C 0.5164 0.63913 0.40436 0.0
H1165 H 0.34725 0.53883 0.38939 0.0
H1166 H 0.40136 0.5823 0.38704 0.0
H1167 H 0.46519 0.58157 0.43519 0.0
H1168 H 0.623 0.69181 0.42057 0.0
H1169 H 0.57121 0.64437 0.41851 0.0
C1170 C 0.8766 0.5745 0.90074 0.0
C1171 C 0.90568 0.60151 0.90476 0.0
C1172 C 0.87421 0.54516 0.89885 0.0
C1173 C 0.91349 0.50089 0.91272 0.0
H1174 H 0.85567 0.44111 0.87413 0.0
C1175 C 0.89825 0.37716 0.90222 0.0
C1176 C 0.86722 0.35202 0.90059 0.0
C1177 C 0.9047 0.40822 0.90145 0.0
C1178 C 0.87174 0.45745 0.88508 0.0
H1179 H 0.95523 0.61866 0.90972 0.0
H1180 H 0.95108 0.56713 0.90626 0.0
H1181 H 0.86474 0.49454 0.8747 0.0
H1182 H 0.81872 0.33993 0.89655 0.0
H1183 H 0.82994 0.39419 0.8953 0.0
H1184 H 0.92029 0.46362 0.92316 0.0
C1185 C 0.93005 0.56883 0.90476 0.0
C1186 C 0.87697 0.48811 0.88541 0.0
C1187 C 0.93247 0.59838 0.90664 0.0
C1188 C 0.84284 0.35873 0.89794 0.0
C1189 C 0.84932 0.38983 0.89705 0.0
C1190 C 0.90833 0.47021 0.91234 0.0
C1191 C 0.90083 0.54185 0.90088 0.0
C1192 C 0.89753 0.5101 0.89944 0.0
C1193 C 0.88031 0.41495 0.89894 0.0
C1194 C 0.88705 0.44801 0.89869 0.0
H1195 H 0.85536 0.57581 0.8992 0.0
H1196 H 0.85124 0.52491 0.89623 0.0
H1197 H 0.92918 0.51706 0.92387 0.0
H1198 H 0.91756 0.37286 0.90457 0.0
H1199 H 0.92884 0.42699 0.90279 0.0
C1200 C 0.13464 0.33819 0.33865 0.0
C1201 C 0.15331 0.34577 0.35584 0.0
C1202 C 0.14821 0.3462 0.31989 0.0
C1203 C 0.21781 0.36155 0.29197 0.0
H1204 H 0.18026 0.38862 0.2515 0.0
C1205 C 0.25936 0.37769 0.21071 0.0
C1206 C 0.23562 0.36407 0.19622 0.0
C1207 C 0.25226 0.38151 0.23024 0.0
C1208 C 0.19091 0.38094 0.26259 0.0
H1209 H 0.20102 0.36787 0.3669 0.0
H1210 H 0.22522 0.38175 0.33361 0.0
H1211 H 0.16396 0.38523 0.28611 0.0
H1212 H 0.18608 0.34528 0.19048 0.0
H1213 H 0.17341 0.35173 0.22482 0.0
H1214 H 0.24411 0.35637 0.2684 0.0
C1215 C 0.19988 0.36961 0.33487 0.0
C1216 C 0.18168 0.37911 0.28244 0.0
C1217 C 0.18613 0.36176 0.35388 0.0
C1218 C 0.2048 0.35586 0.20137 0.0
C1219 C 0.19764 0.35963 0.22103 0.0
C1220 C 0.22707 0.36339 0.27211 0.0
C1221 C 0.18093 0.36195 0.31768 0.0
C1222 C 0.19445 0.36865 0.29729 0.0
C1223 C 0.2212 0.37176 0.2358 0.0
C1224 C 0.21325 0.37249 0.25711 0.0
H1225 H 0.10925 0.32582 0.33962 0.0
H1226 H 0.13289 0.33934 0.30702 0.0
H1227 H 0.22782 0.35306 0.30299 0.0
H1228 H 0.28343 0.38459 0.20709 0.0
H1229 H 0.27108 0.39156 0.2411 0.0
C1230 C 0.89535 0.18949 0.70612 0.0
C1231 C 0.88709 0.20689 0.69358 0.0
C1232 C 0.88272 0.18137 0.72516 0.0
C1233 C 0.85946 0.20991 0.76664 0.0
H1234 H 0.82485 0.125 0.78628 0.0
C1235 C 0.82931 0.17216 0.85055 0.0
C1236 C 0.83592 0.14874 0.85651 0.0
C1237 C 0.83317 0.18162 0.83053 0.0
C1238 C 0.83465 0.14891 0.7811 0.0
H1239 H 0.8592 0.22949 0.69078 0.0
H1240 H 0.83752 0.21596 0.72478 0.0
H1241 H 0.83266 0.1349 0.75071 0.0
H1242 H 0.85396 0.11874 0.84703 0.0
H1243 H 0.86208 0.13608 0.8127 0.0
H1244 H 0.86305 0.22412 0.79725 0.0
C1245 C 0.85329 0.20811 0.71957 0.0
C1246 C 0.83878 0.15445 0.76071 0.0
C1247 C 0.86536 0.21552 0.70016 0.0
C1248 C 0.84857 0.13673 0.84272 0.0
C1249 C 0.85279 0.14637 0.82299 0.0
C1250 C 0.85559 0.20439 0.7872 0.0
C1251 C 0.86222 0.19125 0.73228 0.0
C1252 C 0.85204 0.18506 0.75331 0.0
C1253 C 0.84379 0.16781 0.8164 0.0
C1254 C 0.84419 0.17391 0.79468 0.0
H1255 H 0.91237 0.18295 0.70138 0.0
H1256 H 0.89016 0.16857 0.7347 0.0
H1257 H 0.86997 0.23378 0.76126 0.0
H1258 H 0.81915 0.18143 0.86096 0.0
H1259 H 0.82622 0.19835 0.82594 0.0
C1260 C 0.66269 0.87799 0.20675 0.0
C1261 C 0.68317 0.8749 0.19365 0.0
C1262 C 0.65915 0.86718 0.22625 0.0
C1263 C 0.67672 0.81897 0.26078 0.0
H1264 H 0.67205 0.87394 0.30045 0.0
C1265 C 0.66224 0.78621 0.34343 0.0
C1266 C 0.68011 0.81015 0.35714 0.0
C1267 C 0.65953 0.79334 0.32374 0.0
C1268 C 0.67357 0.85843 0.28961 0.0
H1269 H 0.71499 0.85685 0.19018 0.0
H1270 H 0.70948 0.83845 0.22454 0.0
H1271 H 0.67368 0.88643 0.26538 0.0
H1272 H 0.70808 0.86041 0.3614 0.0
H1273 H 0.70401 0.87311 0.32675 0.0
H1274 H 0.67809 0.79178 0.28505 0.0
C1275 C 0.69569 0.8488 0.2197 0.0
C1276 C 0.67403 0.86532 0.26942 0.0
C1277 C 0.69888 0.85929 0.20001 0.0
C1278 C 0.69402 0.84155 0.3511 0.0
C1279 C 0.69164 0.84874 0.33124 0.0
C1280 C 0.67649 0.81221 0.28098 0.0
C1281 C 0.67644 0.85345 0.23322 0.0
C1282 C 0.67552 0.84565 0.25471 0.0
C1283 C 0.67501 0.82464 0.31719 0.0
C1284 C 0.67484 0.8318 0.29568 0.0
H1285 H 0.65009 0.88972 0.20209 0.0
H1286 H 0.64338 0.8703 0.23599 0.0
H1287 H 0.67767 0.80317 0.24993 0.0
H1288 H 0.65103 0.76179 0.34782 0.0
H1289 H 0.64576 0.77422 0.31354 0.0
C1290 C 0.80717 0.68707 0.71337 0.0
C1291 C 0.82267 0.68481 0.69644 0.0
C1292 C 0.81341 0.67959 0.73213 0.0
C1293 C 0.8759 0.6789 0.76051 0.0
H1294 H 0.81106 0.63892 0.80062 0.0
C1295 C 0.9096 0.67161 0.84075 0.0
C1296 C 0.89479 0.67938 0.85574 0.0
C1297 C 0.89756 0.66502 0.82149 0.0
C1298 C 0.82945 0.65028 0.78964 0.0
H1299 H 0.8564 0.67221 0.68575 0.0
H1300 H 0.86792 0.65939 0.71898 0.0
H1301 H 0.79638 0.63969 0.76598 0.0
H1302 H 0.8549 0.68488 0.86275 0.0
H1303 H 0.83397 0.67421 0.82864 0.0
H1304 H 0.90904 0.6907 0.78407 0.0
C1305 C 0.85074 0.66691 0.71756 0.0
C1306 C 0.82106 0.65059 0.76977 0.0
C1307 C 0.84413 0.6741 0.69857 0.0
C1308 C 0.86658 0.67875 0.85142 0.0
C1309 C 0.85469 0.67263 0.83189 0.0
C1310 C 0.8843 0.67873 0.78035 0.0
C1311 C 0.83557 0.66986 0.73457 0.0
C1312 C 0.84421 0.6654 0.75503 0.0
C1313 C 0.8707 0.66671 0.81654 0.0
C1314 C 0.86123 0.66479 0.79525 0.0
H1315 H 0.7904 0.69517 0.71221 0.0
H1316 H 0.80168 0.68264 0.74486 0.0
H1317 H 0.89432 0.69099 0.74963 0.0
H1318 H 0.93122 0.67157 0.84379 0.0
H1319 H 0.90997 0.65958 0.8103 0.0
C1320 C 0.15906 0.8481 0.2065 0.0
C1321 C 0.16643 0.82998 0.19391 0.0
C1322 C 0.17136 0.85555 0.2257 0.0
C1323 C 0.19429 0.824 0.26662 0.0
H1324 H 0.22212 0.90613 0.28961 0.0
C1325 C 0.22399 0.85854 0.35141 0.0
C1326 C 0.21404 0.87905 0.35845 0.0
C1327 C 0.22006 0.84976 0.3312 0.0
C1328 C 0.21425 0.88298 0.28346 0.0
H1329 H 0.19259 0.80555 0.19119 0.0
H1330 H 0.21396 0.81819 0.22532 0.0
H1331 H 0.21606 0.89912 0.25373 0.0
H1332 H 0.19021 0.90444 0.3507 0.0
H1333 H 0.18221 0.88827 0.31599 0.0
H1334 H 0.19142 0.80774 0.29663 0.0
C1335 C 0.19904 0.82704 0.2201 0.0
C1336 C 0.21102 0.87906 0.26289 0.0
C1337 C 0.1872 0.82017 0.20057 0.0
C1338 C 0.19798 0.88852 0.34558 0.0
C1339 C 0.19382 0.87962 0.32564 0.0
C1340 C 0.19746 0.82793 0.28736 0.0
C1341 C 0.19075 0.84439 0.23294 0.0
C1342 C 0.20005 0.84938 0.25426 0.0
C1343 C 0.20618 0.86147 0.31796 0.0
C1344 C 0.20641 0.85728 0.29602 0.0
H1345 H 0.14266 0.85544 0.20175 0.0
H1346 H 0.16424 0.86864 0.23526 0.0
H1347 H 0.18561 0.80079 0.26036 0.0
H1348 H 0.23695 0.85143 0.36105 0.0
H1349 H 0.22967 0.8356 0.32573 0.0
C1350 C 0.3872 0.21778 0.85195 0.0
C1351 C 0.35665 0.20456 0.85962 0.0
C1352 C 0.39192 0.21106 0.83234 0.0
C1353 C 0.35363 0.15518 0.79092 0.0
H1354 H 0.39552 0.22669 0.75562 0.0
C1355 C 0.32393 0.14 0.70907 0.0
C1356 C 0.34836 0.15239 0.69515 0.0
C1357 C 0.32964 0.1492 0.72893 0.0
C1358 C 0.3842 0.2065 0.76531 0.0
H1359 H 0.30738 0.17339 0.8535 0.0
H1360 H 0.31553 0.16051 0.81981 0.0
H1361 H 0.39849 0.23491 0.7918 0.0
H1362 H 0.39773 0.18543 0.69068 0.0
H1363 H 0.40802 0.20179 0.72591 0.0
H1364 H 0.33865 0.12674 0.76472 0.0
C1365 C 0.33588 0.1761 0.82867 0.0
C1366 C 0.38599 0.21118 0.786 0.0
C1367 C 0.33117 0.18334 0.84797 0.0
C1368 C 0.37843 0.17588 0.70116 0.0
C1369 C 0.38431 0.185 0.72129 0.0
C1370 C 0.35196 0.15052 0.77038 0.0
C1371 C 0.36616 0.19056 0.8204 0.0
C1372 C 0.36979 0.18558 0.79896 0.0
C1373 C 0.36013 0.1707 0.73551 0.0
C1374 C 0.36619 0.17615 0.75728 0.0
H1375 H 0.4071 0.23482 0.86059 0.0
H1376 H 0.41549 0.22249 0.82633 0.0
H1377 H 0.34131 0.13498 0.80053 0.0
H1378 H 0.30051 0.12191 0.70477 0.0
H1379 H 0.31028 0.13847 0.73933 0.0
C1380 C 0.32412 0.21653 0.98208 0.0
C1381 C 0.34006 0.23638 0.96603 0.0
C1382 C 0.31061 0.22607 0.99695 0.0
C1383 C 0.28142 0.28111 1.00682 0.0
H1384 H 0.29531 0.27044 0.06229 0.0
C1385 C 0.22401 0.31199 0.07291 0.0
C1386 C 0.24467 0.32919 0.08845 0.0
C1387 C 0.23367 0.29912 0.05764 0.0
C1388 C 0.29117 0.27354 0.04686 0.0
H1389 H 0.3552 0.28217 0.95333 0.0
H1390 H 0.33121 0.29856 0.97899 0.0
H1391 H 0.31589 0.25071 0.03637 0.0
H1392 H 0.29199 0.3475 0.09971 0.0
H1393 H 0.30848 0.32459 0.07352 0.0
H1394 H 0.25694 0.30423 1.01736 0.0
C1395 C 0.32876 0.27547 0.98 0.0
C1396 C 0.30276 0.26202 0.03201 0.0
C1397 C 0.3426 0.26612 0.96533 0.0
C1398 C 0.27526 0.33377 0.08819 0.0
C1399 C 0.28474 0.32062 0.07318 0.0
C1400 C 0.26945 0.29227 1.02169 0.0
C1401 C 0.31256 0.25559 0.996 0.0
C1402 C 0.29844 0.26605 1.0118 0.0
C1403 C 0.26406 0.30298 0.05775 0.0
C1404 C 0.27461 0.28906 0.04189 0.0
H1405 H 0.32192 0.19355 0.98307 0.0
H1406 H 0.29825 0.21018 1.00906 0.0
H1407 H 0.27743 0.28434 0.99138 0.0
H1408 H 0.20034 0.30822 0.07266 0.0
H1409 H 0.21719 0.28567 0.04594 0.0
C1410 C 0.11942 0.31031 0.48 0.0
C1411 C 0.11721 0.32838 0.46464 0.0
C1412 C 0.09676 0.29836 0.49519 0.0
C1413 C 0.03646 0.31179 0.51923 0.0
H1414 H 1.0024 0.22705 0.53909 0.0
C1415 C 0.95468 0.26862 0.58721 0.0
C1416 C 0.9288 0.238 0.58686 0.0
C1417 C 0.97784 0.2787 0.57257 0.0
C1418 C 1.01152 0.2507 0.5336 0.0
H1419 H 0.08985 0.34837 0.45319 0.0
H1420 H 0.05054 0.32752 0.47929 0.0
H1421 H 0.04287 0.24644 0.51325 0.0
H1422 H 0.90659 0.19397 0.57072 0.0
H1423 H 0.94699 0.21174 0.54474 0.0
H1424 H 1.0049 0.31604 0.53912 0.0
C1425 C 0.06973 0.32268 0.4799 0.0
C1426 C 0.035 0.26194 0.51896 0.0
C1427 C 0.09221 0.3345 0.46483 0.0
C1428 C 0.92633 0.21769 0.57135 0.0
C1429 C 0.94962 0.22781 0.5566 0.0
C1430 C 1.01314 0.30062 0.53381 0.0
C1431 C 0.07167 0.30453 0.49534 0.0
C1432 C 0.04764 0.29261 0.5115 0.0
C1433 C 0.97566 0.25852 0.55701 0.0
C1434 C 1.00029 0.26993 0.54122 0.0
H1435 H 0.13847 0.30526 0.48021 0.0
H1436 H 0.09912 0.28469 0.50694 0.0
H1437 H 0.04586 0.33565 0.51405 0.0
H1438 H 0.9572 0.28485 0.59896 0.0
H1439 H 0.9977 0.30231 0.57359 0.0
C1440 C 0.71128 0.95063 0.08755 0.0
C1441 C 0.71871 0.92654 0.08769 0.0
C1442 C 0.72293 0.97347 0.07271 0.0
C1443 C 0.78458 1.01001 0.03402 0.0
H1444 H 0.72919 0.03809 1.0134 0.0
C1445 C 0.82718 0.11609 0.98007 0.0
C1446 C 0.80669 0.11266 0.96448 0.0
C1447 C 0.81731 0.09366 0.99528 0.0
C1448 C 0.74497 0.03042 1.01886 0.0
H1449 H 0.7439 0.90722 0.07228 0.0
H1450 H 0.76399 0.947 0.04598 0.0
H1451 H 0.71021 0.99766 0.03875 0.0
H1452 H 0.75971 0.08355 0.95274 0.0
H1453 H 0.74266 0.04443 0.97893 0.0
H1454 H 0.81912 0.04243 1.01369 0.0
C1455 C 0.74956 0.94852 0.0576 0.0
C1456 C 0.73417 1.00742 0.03361 0.0
C1457 C 0.73788 0.92559 0.07255 0.0
C1458 C 0.77607 0.08676 0.96455 0.0
C1459 C 0.76624 0.06442 0.97965 0.0
C1460 C 0.79542 0.03309 1.01921 0.0
C1461 C 0.74213 0.97272 0.05747 0.0
C1462 C 0.7538 0.99691 0.04144 0.0
C1463 C 0.78666 0.06751 0.99525 0.0
C1464 C 0.7757 0.04354 1.01139 0.0
H1465 H 0.69638 0.95187 0.09895 0.0
H1466 H 0.71706 0.99193 0.07331 0.0
H1467 H 0.80046 1.0027 0.03983 0.0
H1468 H 0.85089 0.13591 0.98039 0.0
H1469 H 0.83355 0.09699 1.00717 0.0
C1470 C 0.82865 0.72524 0.57275 0.0
C1471 C 0.80803 0.70668 0.58785 0.0
C1472 C 0.81822 0.73749 0.55759 0.0
C1473 C 0.74454 0.72517 0.53354 0.0
H1474 H 0.7974 0.80896 0.51277 0.0
C1475 C 0.7069 0.76818 0.46516 0.0
C1476 C 0.7138 0.79951 0.4645 0.0
C1477 C 0.71942 0.75795 0.48006 0.0
C1478 C 0.78222 0.78561 0.51853 0.0
H1479 H 0.76032 0.68603 0.59877 0.0
H1480 H 0.74246 0.70772 0.57291 0.0
H1481 H 0.81752 0.78913 0.53886 0.0
H1482 H 0.73879 0.84467 0.47923 0.0
H1483 H 0.76023 0.82663 0.50579 0.0
H1484 H 0.70895 0.72179 0.51381 0.0
C1485 C 0.7665 0.71261 0.5724 0.0
C1486 C 0.79393 0.77406 0.53332 0.0
C1487 C 0.77682 0.70032 0.58737 0.0
C1488 C 0.73316 0.82039 0.47934 0.0
C1489 C 0.74564 0.81008 0.49443 0.0
C1490 C 0.73285 0.73671 0.5189 0.0
C1491 C 0.78694 0.73128 0.55721 0.0
C1492 C 0.77518 0.74367 0.54106 0.0
C1493 C 0.73888 0.77865 0.49499 0.0
C1494 C 0.75149 0.76703 0.51109 0.0
H1495 H 0.8528 0.73043 0.57273 0.0
H1496 H 0.83456 0.75147 0.54604 0.0
H1497 H 0.72947 0.70151 0.53886 0.0
H1498 H 0.69187 0.75143 0.45402 0.0
H1499 H 0.71403 0.73376 0.47971 0.0
C1500 C 0.9556 0.69764 0.96492 0.0
C1501 C 0.93136 0.70486 0.96405 0.0
C1502 C 0.97775 0.70932 0.98025 0.0
C1503 C 1.01298 0.77132 1.01891 0.0
H1504 H 0.04138 0.71675 0.04044 0.0
C1505 C 0.12105 0.81619 0.07186 0.0
C1506 C 0.1187 0.79637 0.08756 0.0
C1507 C 0.09766 0.80568 0.05713 0.0
C1508 C 0.0336 0.7323 0.03476 0.0
H1509 H 0.91103 0.72966 0.97878 0.0
H1510 H 0.94972 0.74995 1.00595 0.0
H1511 H 1.00079 0.69696 1.01501 0.0
H1512 H 0.09036 0.74993 0.10001 0.0
H1513 H 0.04954 0.73178 0.07466 0.0
H1514 H 0.04561 0.80654 0.03901 0.0
C1515 C 0.95182 0.73557 0.99451 0.0
C1516 C 1.01049 0.72102 1.01996 0.0
C1517 C 0.92952 0.7238 0.97906 0.0
C1518 C 0.09275 0.76581 0.08813 0.0
C1519 C 0.06943 0.75533 0.07349 0.0
C1520 C 0.0362 0.78266 0.03377 0.0
C1521 C 0.9762 0.72839 0.99531 0.0
C1522 C 0.99996 0.74038 1.01172 0.0
C1523 C 0.07155 0.77504 0.05773 0.0
C1524 C 0.04686 0.76329 0.04188 0.0
H1525 H 0.95763 0.68306 0.95359 0.0
H1526 H 0.99639 0.70367 0.98014 0.0
H1527 H 1.00564 0.78698 1.01282 0.0
H1528 H 0.14087 0.83984 0.07102 0.0
H1529 H 0.10031 0.82139 0.0451 0.0
C1530 C 0.22409 0.91982 0.4816 0.0
C1531 C 0.24414 0.92284 0.46582 0.0
C1532 C 0.23412 0.94301 0.49645 0.0
C1533 C 0.29136 0.02667 0.50603 0.0
H1534 H 0.27883 1.00352 0.56172 0.0
C1535 C 0.32359 0.11728 0.57074 0.0
C1536 C 0.3397 0.11358 0.58681 0.0
C1537 C 0.31059 0.09433 0.55572 0.0
C1538 C 0.28248 1.01036 0.54622 0.0
H1539 H 0.29074 0.95187 0.45363 0.0
H1540 H 0.30797 0.99242 0.47924 0.0
H1541 H 0.25829 0.96253 0.53615 0.0
H1542 H 0.35593 0.08367 0.59935 0.0
H1543 H 0.33292 0.04358 0.57345 0.0
H1544 H 0.31579 0.07451 0.51612 0.0
C1545 C 0.2844 0.97244 0.48006 0.0
C1546 C 0.27049 0.98687 0.53158 0.0
C1547 C 0.27456 0.94912 0.46542 0.0
C1548 C 0.34319 0.08693 0.58731 0.0
C1549 C 0.3299 0.06389 0.57252 0.0
C1550 C 0.30299 0.05017 0.52067 0.0
C1551 C 0.2643 0.96977 0.49572 0.0
C1552 C 0.27518 0.99473 0.51131 0.0
C1553 C 0.31327 0.06716 0.55659 0.0
C1554 C 0.2991 0.0423 0.54096 0.0
H1555 H 0.20059 0.89972 0.48234 0.0
H1556 H 0.21807 0.94028 0.50833 0.0
H1557 H 0.29511 0.03351 0.49053 0.0
H1558 H 0.32068 0.13765 0.56992 0.0
H1559 H 0.29792 0.09754 0.54364 0.0
loop_
_geom_bond_atom_site_label_1
_geom_bond_atom_site_label_2
_geom_bond_distance
_geom_bond_site_symmetry_2
_ccdc_geom_bond_type
La0 C2 2.928 . S
La0 O20 2.521 . S
La0 O21 2.628 . S
La0 O22 2.554 . S
La0 O23 2.757 . S
La0 O24 2.470 . S
La0 O29 2.482 . S
La0 O31 2.503 . S
La1 C11 2.928 . S
La1 O23 2.482 . S
La1 O25 2.503 . S
La1 O26 2.521 . S
La1 O27 2.628 . S
La1 O28 2.554 . S
La1 O29 2.757 . S
La1 O30 2.470 . S
C2 La0 2.928 . S
C2 C3 1.503 . S
C2 O20 1.261 . S
C2 O21 1.243 . S
C3 C2 1.503 . S
C3 C4 1.394 . S
C3 C8 1.373 . S
C4 C3 1.394 . S
C4 C5 1.380 . S
C4 H32 0.930 . S
C5 C4 1.380 . S
C5 C6 1.376 . S
C5 H33 0.930 . S
C6 C5 1.376 . S
C6 C7 1.370 . S
C7 C6 1.370 . S
C7 C8 1.396 . S
C7 H34 0.929 . S
C8 C3 1.373 . S
C8 C7 1.396 . S
C8 H35 0.929 . S
C9 O22 1.240 . S
C9 O23 1.289 . S
C10 O24 1.258 . S
C10 O25 1.256 . S
C11 La1 2.928 . S
C11 C12 1.503 . S
C11 O26 1.261 . S
C11 O27 1.243 . S
C12 C11 1.503 . S
C12 C13 1.394 . S
C12 C17 1.373 . S
C13 C12 1.394 . S
C13 C14 1.380 . S
C13 H36 0.930 . S
C14 C13 1.380 . S
C14 C15 1.376 . S
C14 H37 0.930 . S
C15 C14 1.376 . S
C15 C16 1.370 . S
C16 C15 1.370 . S
C16 C17 1.396 . S
C16 H38 0.929 . S
C17 C12 1.373 . S
C17 C16 1.396 . S
C17 H39 0.929 . S
C18 O28 1.240 . S
C18 O29 1.289 . S
C19 O30 1.258 . S
C19 O31 1.256 . S
O20 La0 2.521 . S
O20 C2 1.261 . S
O21 La0 2.628 . S
O21 C2 1.243 . S
O22 La0 2.554 . S
O22 C9 1.240 . S
O23 La0 2.757 . S
O23 La1 2.482 . S
O23 C9 1.289 . S
O24 La0 2.470 . S
O24 C10 1.258 . S
O25 La1 2.503 . S
O25 C10 1.256 . S
O26 La1 2.521 . S
O26 C11 1.261 . S
O27 La1 2.628 . S
O27 C11 1.243 . S
O28 La1 2.554 . S
O28 C18 1.240 . S
O29 La0 2.482 . S
O29 La1 2.757 . S
O29 C18 1.289 . S
O30 La1 2.470 . S
O30 C19 1.258 . S
O31 La0 2.503 . S
O31 C19 1.256 . S
H32 C4 0.930 . S
H33 C5 0.930 . S
H34 C7 0.929 . S
H35 C8 0.929 . S
H36 C13 0.930 . S
H37 C14 0.930 . S
H38 C16 0.929 . S
H39 C17 0.929 . S
La40 C42 2.928 . S
La40 O60 2.521 . S
La40 O61 2.628 . S
La40 O62 2.554 . S
La40 O63 2.757 . S
La40 O64 2.470 . S
La40 O69 2.482 . S
La40 O71 2.503 . S
La41 C51 2.928 . S
La41 O63 2.482 . S
La41 O65 2.503 . S
La41 O66 2.521 . S
La41 O67 2.628 . S
La41 O68 2.554 . S
La41 O69 2.757 . S
La41 O70 2.470 . S
C42 La40 2.928 . S
C42 C43 1.503 . S
C42 O60 1.261 . S
C42 O61 1.243 . S
C43 C42 1.503 . S
C43 C44 1.394 . S
C43 C48 1.373 . S
C44 C43 1.394 . S
C44 C45 1.380 . S
C44 H72 0.930 . S
C45 C44 1.380 . S
C45 C46 1.376 . S
C45 H73 0.930 . S
C46 C45 1.376 . S
C46 C47 1.370 . S
C47 C46 1.370 . S
C47 C48 1.396 . S
C47 H74 0.929 . S
C48 C43 1.373 . S
C48 C47 1.396 . S
C48 H75 0.929 . S
C49 O62 1.240 . S
C49 O63 1.289 . S
C50 O64 1.258 . S
C50 O65 1.256 . S
C51 La41 2.928 . S
C51 C52 1.503 . S
C51 O66 1.261 . S
C51 O67 1.243 . S
C52 C51 1.503 . S
C52 C53 1.394 . S
C52 C57 1.373 . S
C53 C52 1.394 . S
C53 C54 1.380 1_655 S
C53 H76 0.930 . S
C54 C53 1.380 1_455 S
C54 C55 1.376 . S
C54 H77 0.930 . S
C55 C54 1.376 . S
C55 C56 1.370 . S
C56 C55 1.370 . S
C56 C57 1.396 1_455 S
C56 H78 0.929 . S
C57 C52 1.373 . S
C57 C56 1.396 1_655 S
C57 H79 0.929 . S
C58 O68 1.240 . S
C58 O69 1.289 . S
C59 O70 1.258 . S
C59 O71 1.256 . S
O60 La40 2.521 . S
O60 C42 1.261 . S
O61 La40 2.628 . S
O61 C42 1.243 . S
O62 La40 2.554 . S
O62 C49 1.240 . S
O63 La40 2.757 . S
O63 La41 2.482 . S
O63 C49 1.289 . S
O64 La40 2.470 . S
O64 C50 1.258 . S
O65 La41 2.503 . S
O65 C50 1.256 . S
O66 La41 2.521 . S
O66 C51 1.261 . S
O67 La41 2.628 . S
O67 C51 1.243 . S
O68 La41 2.554 . S
O68 C58 1.240 . S
O69 La40 2.482 . S
O69 La41 2.757 . S
O69 C58 1.289 . S
O70 La41 2.470 . S
O70 C59 1.258 . S
O71 La40 2.503 . S
O71 C59 1.256 . S
H72 C44 0.930 . S
H73 C45 0.930 . S
H74 C47 0.929 . S
H75 C48 0.929 . S
H76 C53 0.930 . S
H77 C54 0.930 . S
H78 C56 0.929 . S
H79 C57 0.929 . S
La80 C82 2.928 . S
La80 O100 2.521 . S
La80 O101 2.628 . S
La80 O102 2.554 . S
La80 O103 2.757 . S
La80 O104 2.470 . S
La80 O109 2.482 . S
La80 O111 2.503 . S
La81 C91 2.928 . S
La81 O103 2.482 . S
La81 O105 2.503 . S
La81 O106 2.521 . S
La81 O107 2.628 . S
La81 O108 2.554 . S
La81 O109 2.757 . S
La81 O110 2.470 . S
C82 La80 2.928 . S
C82 C83 1.503 . S
C82 O100 1.261 . S
C82 O101 1.243 . S
C83 C82 1.503 . S
C83 C84 1.394 . S
C83 C88 1.373 . S
C84 C83 1.394 . S
C84 C85 1.380 . S
C84 H112 0.930 . S
C85 C84 1.380 . S
C85 C86 1.376 . S
C85 H113 0.930 . S
C86 C85 1.376 . S
C86 C87 1.370 . S
C87 C86 1.370 . S
C87 C88 1.396 . S
C87 H114 0.929 . S
C88 C83 1.373 . S
C88 C87 1.396 . S
C88 H115 0.929 . S
C89 O102 1.240 . S
C89 O103 1.289 . S
C90 O104 1.258 . S
C90 O105 1.256 . S
C91 La81 2.928 . S
C91 C92 1.503 . S
C91 O106 1.261 . S
C91 O107 1.243 . S
C92 C91 1.503 . S
C92 C93 1.394 . S
C92 C97 1.373 . S
C93 C92 1.394 . S
C93 C94 1.380 1_565 S
C93 H116 0.930 . S
C94 C93 1.380 1_545 S
C94 C95 1.376 . S
C94 H117 0.930 . S
C95 C94 1.376 . S
C95 C96 1.370 . S
C96 C95 1.370 . S
C96 C97 1.396 1_545 S
C96 H118 0.929 . S
C97 C92 1.373 . S
C97 C96 1.396 1_565 S
C97 H119 0.929 . S
C98 O108 1.240 . S
C98 O109 1.289 . S
C99 O110 1.258 . S
C99 O111 1.256 . S
O100 La80 2.521 . S
O100 C82 1.261 . S
O101 La80 2.628 . S
O101 C82 1.243 . S
O102 La80 2.554 . S
O102 C89 1.240 . S
O103 La80 2.757 . S
O103 La81 2.482 . S
O103 C89 1.289 . S
O104 La80 2.470 . S
O104 C90 1.258 . S
O105 La81 2.503 . S
O105 C90 1.256 . S
O106 La81 2.521 . S
O106 C91 1.261 . S
O107 La81 2.628 . S
O107 C91 1.243 . S
O108 La81 2.554 . S
O108 C98 1.240 . S
O109 La80 2.482 . S
O109 La81 2.757 . S
O109 C98 1.289 . S
O110 La81 2.470 . S
O110 C99 1.258 . S
O111 La80 2.503 . S
O111 C99 1.256 . S
H112 C84 0.930 . S
H113 C85 0.930 . S
H114 C87 0.929 . S
H115 C88 0.929 . S
H116 C93 0.930 . S
H117 C94 0.930 . S
H118 C96 0.929 . S
H119 C97 0.929 . S
La120 C122 2.928 . S
La120 O140 2.521 . S
La120 O141 2.628 . S
La120 O142 2.554 . S
La120 O143 2.757 . S
La120 O144 2.470 . S
La120 O149 2.482 . S
La120 O151 2.503 . S
La121 C131 2.928 . S
La121 O143 2.482 . S
La121 O145 2.503 . S
La121 O146 2.521 . S
La121 O147 2.628 . S
La121 O148 2.554 . S
La121 O149 2.757 . S
La121 O150 2.470 . S
C122 La120 2.928 . S
C122 C123 1.503 . S
C122 O140 1.261 . S
C122 O141 1.243 . S
C123 C122 1.503 . S
C123 C124 1.394 . S
C123 C128 1.373 . S
C124 C123 1.394 . S
C124 C125 1.380 . S
C124 H152 0.930 . S
C125 C124 1.380 . S
C125 C126 1.376 . S
C125 H153 0.930 . S
C126 C125 1.376 . S
C126 C127 1.370 . S
C127 C126 1.370 . S
C127 C128 1.396 . S
C127 H154 0.929 . S
C128 C123 1.373 . S
C128 C127 1.396 . S
C128 H155 0.929 . S
C129 O142 1.240 . S
C129 O143 1.289 . S
C130 O144 1.258 . S
C130 O145 1.256 . S
C131 La121 2.928 . S
C131 C132 1.503 . S
C131 O146 1.261 . S
C131 O147 1.243 . S
C132 C131 1.503 . S
C132 C133 1.394 . S
C132 C137 1.373 . S
C133 C132 1.394 . S
C133 C134 1.380 . S
C133 H156 0.930 . S
C134 C133 1.380 . S
C134 C135 1.376 . S
C134 H157 0.930 . S
C135 C134 1.376 . S
C135 C136 1.370 . S
C136 C135 1.370 . S
C136 C137 1.396 . S
C136 H158 0.929 . S
C137 C132 1.373 . S
C137 C136 1.396 . S
C137 H159 0.929 . S
C138 O148 1.240 . S
C138 O149 1.289 . S
C139 O150 1.258 . S
C139 O151 1.256 . S
O140 La120 2.521 . S
O140 C122 1.261 . S
O141 La120 2.628 . S
O141 C122 1.243 . S
O142 La120 2.554 . S
O142 C129 1.240 . S
O143 La120 2.757 . S
O143 La121 2.482 . S
O143 C129 1.289 . S
O144 La120 2.470 . S
O144 C130 1.258 . S
O145 La121 2.503 . S
O145 C130 1.256 . S
O146 La121 2.521 . S
O146 C131 1.261 . S
O147 La121 2.628 . S
O147 C131 1.243 . S
O148 La121 2.554 . S
O148 C138 1.240 . S
O149 La120 2.482 . S
O149 La121 2.757 . S
O149 C138 1.289 . S
O150 La121 2.470 . S
O150 C139 1.258 . S
O151 La120 2.503 . S
O151 C139 1.256 . S
H152 C124 0.930 . S
H153 C125 0.930 . S
H154 C127 0.929 . S
H155 C128 0.929 . S
H156 C133 0.930 . S
H157 C134 0.930 . S
H158 C136 0.929 . S
H159 C137 0.929 . S
La160 C162 2.928 . S
La160 O180 2.521 . S
La160 O181 2.628 . S
La160 O182 2.554 . S
La160 O183 2.757 . S
La160 O184 2.470 . S
La160 O189 2.482 . S
La160 O191 2.503 . S
La161 C171 2.928 . S
La161 O183 2.482 . S
La161 O185 2.503 . S
La161 O186 2.521 . S
La161 O187 2.628 . S
La161 O188 2.554 . S
La161 O189 2.757 . S
La161 O190 2.470 . S
C162 La160 2.928 . S
C162 C163 1.503 . S
C162 O180 1.261 . S
C162 O181 1.243 . S
C163 C162 1.503 . S
C163 C164 1.394 . S
C163 C168 1.373 . S
C164 C163 1.394 . S
C164 C165 1.380 . S
C164 H192 0.930 . S
C165 C164 1.380 . S
C165 C166 1.376 . S
C165 H193 0.930 . S
C166 C165 1.376 . S
C166 C167 1.370 . S
C167 C166 1.370 . S
C167 C168 1.396 . S
C167 H194 0.929 . S
C168 C163 1.373 . S
C168 C167 1.396 . S
C168 H195 0.929 . S
C169 O182 1.240 . S
C169 O183 1.289 . S
C170 O184 1.258 . S
C170 O185 1.256 . S
C171 La161 2.928 . S
C171 C172 1.503 . S
C171 O186 1.261 . S
C171 O187 1.243 . S
C172 C171 1.503 . S
C172 C173 1.394 . S
C172 C177 1.373 . S
C173 C172 1.394 . S
C173 C174 1.380 1_455 S
C173 H196 0.930 . S
C174 C173 1.380 1_655 S
C174 C175 1.376 . S
C174 H197 0.930 . S
C175 C174 1.376 . S
C175 C176 1.370 . S
C176 C175 1.370 . S
C176 C177 1.396 1_655 S
C176 H198 0.929 . S
C177 C172 1.373 . S
C177 C176 1.396 1_455 S
C177 H199 0.929 . S
C178 O188 1.240 . S
C178 O189 1.289 . S
C179 O190 1.258 . S
C179 O191 1.256 . S
O180 La160 2.521 . S
O180 C162 1.261 . S
O181 La160 2.628 . S
O181 C162 1.243 . S
O182 La160 2.554 . S
O182 C169 1.240 . S
O183 La160 2.757 . S
O183 La161 2.482 . S
O183 C169 1.289 . S
O184 La160 2.470 . S
O184 C170 1.258 . S
O185 La161 2.503 . S
O185 C170 1.256 . S
O186 La161 2.521 . S
O186 C171 1.261 . S
O187 La161 2.628 . S
O187 C171 1.243 . S
O188 La161 2.554 . S
O188 C178 1.240 . S
O189 La160 2.482 . S
O189 La161 2.757 . S
O189 C178 1.289 . S
O190 La161 2.470 . S
O190 C179 1.258 . S
O191 La160 2.503 . S
O191 C179 1.256 . S
H192 C164 0.930 . S
H193 C165 0.930 . S
H194 C167 0.929 . S
H195 C168 0.929 . S
H196 C173 0.930 . S
H197 C174 0.930 . S
H198 C176 0.929 . S
H199 C177 0.929 . S
La200 C202 2.928 . S
La200 O220 2.521 . S
La200 O221 2.628 . S
La200 O222 2.554 . S
La200 O223 2.757 . S
La200 O224 2.470 . S
La200 O229 2.482 . S
La200 O231 2.503 . S
La201 C211 2.928 . S
La201 O223 2.482 . S
La201 O225 2.503 . S
La201 O226 2.521 . S
La201 O227 2.628 . S
La201 O228 2.554 . S
La201 O229 2.757 . S
La201 O230 2.470 . S
C202 La200 2.928 . S
C202 C203 1.503 . S
C202 O220 1.261 . S
C202 O221 1.243 . S
C203 C202 1.503 . S
C203 C204 1.394 . S
C203 C208 1.373 . S
C204 C203 1.394 . S
C204 C205 1.380 . S
C204 H232 0.930 . S
C205 C204 1.380 . S
C205 C206 1.376 . S
C205 H233 0.930 . S
C206 C205 1.376 . S
C206 C207 1.370 . S
C207 C206 1.370 . S
C207 C208 1.396 . S
C207 H234 0.929 . S
C208 C203 1.373 . S
C208 C207 1.396 . S
C208 H235 0.929 . S
C209 O222 1.240 . S
C209 O223 1.289 . S
C210 O224 1.258 . S
C210 O225 1.256 . S
C211 La201 2.928 . S
C211 C212 1.503 . S
C211 O226 1.261 . S
C211 O227 1.243 . S
C212 C211 1.503 . S
C212 C213 1.394 . S
C212 C217 1.373 . S
C213 C212 1.394 . S
C213 C214 1.380 1_545 S
C213 H236 0.930 . S
C214 C213 1.380 1_565 S
C214 C215 1.376 . S
C214 H237 0.930 . S
C215 C214 1.376 . S
C215 C216 1.370 . S
C216 C215 1.370 . S
C216 C217 1.396 1_565 S
C216 H238 0.929 . S
C217 C212 1.373 . S
C217 C216 1.396 1_545 S
C217 H239 0.929 . S
C218 O228 1.240 . S
C218 O229 1.289 . S
C219 O230 1.258 . S
C219 O231 1.256 . S
O220 La200 2.521 . S
O220 C202 1.261 . S
O221 La200 2.628 . S
O221 C202 1.243 . S
O222 La200 2.554 . S
O222 C209 1.240 . S
O223 La200 2.757 . S
O223 La201 2.482 . S
O223 C209 1.289 . S
O224 La200 2.470 . S
O224 C210 1.258 . S
O225 La201 2.503 . S
O225 C210 1.256 . S
O226 La201 2.521 . S
O226 C211 1.261 . S
O227 La201 2.628 . S
O227 C211 1.243 . S
O228 La201 2.554 . S
O228 C218 1.240 . S
O229 La200 2.482 . S
O229 La201 2.757 . S
O229 C218 1.289 . S
O230 La201 2.470 . S
O230 C219 1.258 . S
O231 La200 2.503 . S
O231 C219 1.256 . S
H232 C204 0.930 . S
H233 C205 0.930 . S
H234 C207 0.929 . S
H235 C208 0.929 . S
H236 C213 0.930 . S
H237 C214 0.930 . S
H238 C216 0.929 . S
H239 C217 0.929 . S
La240 C242 2.928 . S
La240 O260 2.521 . S
La240 O261 2.628 . S
La240 O262 2.554 . S
La240 O263 2.757 . S
La240 O264 2.470 . S
La240 O269 2.482 . S
La240 O271 2.503 . S
La241 C251 2.928 . S
La241 O263 2.482 . S
La241 O265 2.503 . S
La241 O266 2.521 . S
La241 O267 2.628 . S
La241 O268 2.554 . S
La241 O269 2.757 . S
La241 O270 2.470 . S
C242 La240 2.928 . S
C242 C243 1.503 . S
C242 O260 1.261 . S
C242 O261 1.243 . S
C243 C242 1.503 . S
C243 C244 1.394 . S
C243 C248 1.373 . S
C244 C243 1.394 . S
C244 C245 1.380 . S
C244 H272 0.930 . S
C245 C244 1.380 . S
C245 C246 1.376 . S
C245 H273 0.930 . S
C246 C245 1.376 . S
C246 C247 1.370 . S
C247 C246 1.370 . S
C247 C248 1.396 . S
C247 H274 0.929 . S
C248 C243 1.373 . S
C248 C247 1.396 . S
C248 H275 0.929 . S
C249 O262 1.240 . S
C249 O263 1.289 . S
C250 O264 1.258 . S
C250 O265 1.256 . S
C251 La241 2.928 . S
C251 C252 1.503 . S
C251 O266 1.261 . S
C251 O267 1.243 . S
C252 C251 1.503 . S
C252 C253 1.394 . S
C252 C257 1.373 . S
C253 C252 1.394 . S
C253 C254 1.380 . S
C253 H276 0.930 . S
C254 C253 1.380 . S
C254 C255 1.376 . S
C254 H277 0.930 . S
C255 C254 1.376 . S
C255 C256 1.370 . S
C256 C255 1.370 . S
C256 C257 1.396 . S
C256 H278 0.929 . S
C257 C252 1.373 . S
C257 C256 1.396 . S
C257 H279 0.929 . S
C258 O268 1.240 . S
C258 O269 1.289 . S
C259 O270 1.258 . S
C259 O271 1.256 . S
O260 La240 2.521 . S
O260 C242 1.261 . S
O261 La240 2.628 . S
O261 C242 1.243 . S
O262 La240 2.554 . S
O262 C249 1.240 . S
O263 La240 2.757 . S
O263 La241 2.482 . S
O263 C249 1.289 . S
O264 La240 2.470 . S
O264 C250 1.258 . S
O265 La241 2.503 . S
O265 C250 1.256 . S
O266 La241 2.521 . S
O266 C251 1.261 . S
O267 La241 2.628 . S
O267 C251 1.243 . S
O268 La241 2.554 . S
O268 C258 1.240 . S
O269 La240 2.482 . S
O269 La241 2.757 . S
O269 C258 1.289 . S
O270 La241 2.470 . S
O270 C259 1.258 . S
O271 La240 2.503 . S
O271 C259 1.256 . S
H272 C244 0.930 . S
H273 C245 0.930 . S
H274 C247 0.929 . S
H275 C248 0.929 . S
H276 C253 0.930 . S
H277 C254 0.930 . S
H278 C256 0.929 . S
H279 C257 0.929 . S
La280 C282 2.928 . S
La280 O300 2.521 . S
La280 O301 2.628 . S
La280 O302 2.554 . S
La280 O303 2.757 . S
La280 O304 2.470 . S
La280 O309 2.482 . S
La280 O311 2.503 . S
La281 C291 2.928 . S
La281 O303 2.482 . S
La281 O305 2.503 . S
La281 O306 2.521 . S
La281 O307 2.628 . S
La281 O308 2.554 . S
La281 O309 2.757 . S
La281 O310 2.470 . S
C282 La280 2.928 . S
C282 C283 1.503 . S
C282 O300 1.261 . S
C282 O301 1.243 . S
C283 C282 1.503 . S
C283 C284 1.394 . S
C283 C288 1.373 . S
C284 C283 1.394 . S
C284 C285 1.380 . S
C284 H312 0.930 . S
C285 C284 1.380 . S
C285 C286 1.376 . S
C285 H313 0.930 . S
C286 C285 1.376 . S
C286 C287 1.370 . S
C287 C286 1.370 . S
C287 C288 1.396 . S
C287 H314 0.929 . S
C288 C283 1.373 . S
C288 C287 1.396 . S
C288 H315 0.929 . S
C289 O302 1.240 . S
C289 O303 1.289 . S
C290 O304 1.258 . S
C290 O305 1.256 . S
C291 La281 2.928 . S
C291 C292 1.503 . S
C291 O306 1.261 . S
C291 O307 1.243 . S
C292 C291 1.503 . S
C292 C293 1.394 . S
C292 C297 1.373 . S
C293 C292 1.394 . S
C293 C294 1.380 1_655 S
C293 H316 0.930 . S
C294 C293 1.380 1_455 S
C294 C295 1.376 . S
C294 H317 0.930 . S
C295 C294 1.376 . S
C295 C296 1.370 . S
C296 C295 1.370 . S
C296 C297 1.396 1_455 S
C296 H318 0.929 . S
C297 C292 1.373 . S
C297 C296 1.396 1_655 S
C297 H319 0.929 . S
C298 O308 1.240 . S
C298 O309 1.289 . S
C299 O310 1.258 . S
C299 O311 1.256 . S
O300 La280 2.521 . S
O300 C282 1.261 . S
O301 La280 2.628 . S
O301 C282 1.243 . S
O302 La280 2.554 . S
O302 C289 1.240 . S
O303 La280 2.757 . S
O303 La281 2.482 . S
O303 C289 1.289 . S
O304 La280 2.470 . S
O304 C290 1.258 . S
O305 La281 2.503 . S
O305 C290 1.256 . S
O306 La281 2.521 . S
O306 C291 1.261 . S
O307 La281 2.628 . S
O307 C291 1.243 . S
O308 La281 2.554 . S
O308 C298 1.240 . S
O309 La280 2.482 . S
O309 La281 2.757 . S
O309 C298 1.289 . S
O310 La281 2.470 . S
O310 C299 1.258 . S
O311 La280 2.503 . S
O311 C299 1.256 . S
H312 C284 0.930 . S
H313 C285 0.930 . S
H314 C287 0.929 . S
H315 C288 0.929 . S
H316 C293 0.930 . S
H317 C294 0.930 . S
H318 C296 0.929 . S
H319 C297 0.929 . S
La320 C322 2.928 . S
La320 O340 2.521 . S
La320 O341 2.628 . S
La320 O342 2.554 . S
La320 O343 2.757 . S
La320 O344 2.470 . S
La320 O349 2.482 . S
La320 O351 2.503 . S
La321 C331 2.928 . S
La321 O343 2.482 . S
La321 O345 2.503 . S
La321 O346 2.521 . S
La321 O347 2.628 . S
La321 O348 2.554 . S
La321 O349 2.757 . S
La321 O350 2.470 . S
C322 La320 2.928 . S
C322 C323 1.503 . S
C322 O340 1.261 . S
C322 O341 1.243 . S
C323 C322 1.503 . S
C323 C324 1.394 . S
C323 C328 1.373 . S
C324 C323 1.394 . S
C324 C325 1.380 . S
C324 H352 0.930 . S
C325 C324 1.380 . S
C325 C326 1.376 . S
C325 H353 0.930 . S
C326 C325 1.376 . S
C326 C327 1.370 . S
C327 C326 1.370 . S
C327 C328 1.396 . S
C327 H354 0.929 . S
C328 C323 1.373 . S
C328 C327 1.396 . S
C328 H355 0.929 . S
C329 O342 1.240 . S
C329 O343 1.289 . S
C330 O344 1.258 . S
C330 O345 1.256 . S
C331 La321 2.928 . S
C331 C332 1.503 . S
C331 O346 1.261 . S
C331 O347 1.243 . S
C332 C331 1.503 . S
C332 C333 1.394 . S
C332 C337 1.373 . S
C333 C332 1.394 . S
C333 C334 1.380 1_565 S
C333 H356 0.930 . S
C334 C333 1.380 1_545 S
C334 C335 1.376 . S
C334 H357 0.930 . S
C335 C334 1.376 . S
C335 C336 1.370 . S
C336 C335 1.370 . S
C336 C337 1.396 1_545 S
C336 H358 0.929 . S
C337 C332 1.373 . S
C337 C336 1.396 1_565 S
C337 H359 0.929 . S
C338 O348 1.240 . S
C338 O349 1.289 . S
C339 O350 1.258 . S
C339 O351 1.256 . S
O340 La320 2.521 . S
O340 C322 1.261 . S
O341 La320 2.628 . S
O341 C322 1.243 . S
O342 La320 2.554 . S
O342 C329 1.240 . S
O343 La320 2.757 . S
O343 La321 2.482 . S
O343 C329 1.289 . S
O344 La320 2.470 . S
O344 C330 1.258 . S
O345 La321 2.503 . S
O345 C330 1.256 . S
O346 La321 2.521 . S
O346 C331 1.261 . S
O347 La321 2.628 . S
O347 C331 1.243 . S
O348 La321 2.554 . S
O348 C338 1.240 . S
O349 La320 2.482 . S
O349 La321 2.757 . S
O349 C338 1.289 . S
O350 La321 2.470 . S
O350 C339 1.258 . S
O351 La320 2.503 . S
O351 C339 1.256 . S
H352 C324 0.930 . S
H353 C325 0.930 . S
H354 C327 0.929 . S
H355 C328 0.929 . S
H356 C333 0.930 . S
H357 C334 0.930 . S
H358 C336 0.929 . S
H359 C337 0.929 . S
La360 C362 2.928 . S
La360 O380 2.521 . S
La360 O381 2.628 . S
La360 O382 2.554 . S
La360 O383 2.757 . S
La360 O384 2.470 . S
La360 O389 2.482 . S
La360 O391 2.503 . S
La361 C371 2.928 . S
La361 O383 2.482 . S
La361 O385 2.503 . S
La361 O386 2.521 . S
La361 O387 2.628 . S
La361 O388 2.554 . S
La361 O389 2.757 . S
La361 O390 2.470 . S
C362 La360 2.928 . S
C362 C363 1.503 . S
C362 O380 1.261 . S
C362 O381 1.243 . S
C363 C362 1.503 . S
C363 C364 1.394 . S
C363 C368 1.373 . S
C364 C363 1.394 . S
C364 C365 1.380 . S
C364 H392 0.930 . S
C365 C364 1.380 . S
C365 C366 1.376 . S
C365 H393 0.930 . S
C366 C365 1.376 . S
C366 C367 1.370 . S
C367 C366 1.370 . S
C367 C368 1.396 . S
C367 H394 0.929 . S
C368 C363 1.373 . S
C368 C367 1.396 . S
C368 H395 0.929 . S
C369 O382 1.240 . S
C369 O383 1.289 . S
C370 O384 1.258 . S
C370 O385 1.256 . S
C371 La361 2.928 . S
C371 C372 1.503 . S
C371 O386 1.261 . S
C371 O387 1.243 . S
C372 C371 1.503 . S
C372 C373 1.394 . S
C372 C377 1.373 . S
C373 C372 1.394 . S
C373 C374 1.380 . S
C373 H396 0.930 . S
C374 C373 1.380 . S
C374 C375 1.376 . S
C374 H397 0.930 . S
C375 C374 1.376 . S
C375 C376 1.370 . S
C376 C375 1.370 . S
C376 C377 1.396 . S
C376 H398 0.929 . S
C377 C372 1.373 . S
C377 C376 1.396 . S
C377 H399 0.929 . S
C378 O388 1.240 . S
C378 O389 1.289 . S
C379 O390 1.258 . S
C379 O391 1.256 . S
O380 La360 2.521 . S
O380 C362 1.261 . S
O381 La360 2.628 . S
O381 C362 1.243 . S
O382 La360 2.554 . S
O382 C369 1.240 . S
O383 La360 2.757 . S
O383 La361 2.482 . S
O383 C369 1.289 . S
O384 La360 2.470 . S
O384 C370 1.258 . S
O385 La361 2.503 . S
O385 C370 1.256 . S
O386 La361 2.521 . S
O386 C371 1.261 . S
O387 La361 2.628 . S
O387 C371 1.243 . S
O388 La361 2.554 . S
O388 C378 1.240 . S
O389 La360 2.482 . S
O389 La361 2.757 . S
O389 C378 1.289 . S
O390 La361 2.470 . S
O390 C379 1.258 . S
O391 La360 2.503 . S
O391 C379 1.256 . S
H392 C364 0.930 . S
H393 C365 0.930 . S
H394 C367 0.929 . S
H395 C368 0.929 . S
H396 C373 0.930 . S
H397 C374 0.930 . S
H398 C376 0.929 . S
H399 C377 0.929 . S
La400 C402 2.928 . S
La400 O420 2.521 . S
La400 O421 2.628 . S
La400 O422 2.554 . S
La400 O423 2.757 . S
La400 O424 2.470 . S
La400 O429 2.482 . S
La400 O431 2.503 . S
La401 C411 2.928 . S
La401 O423 2.482 . S
La401 O425 2.503 . S
La401 O426 2.521 . S
La401 O427 2.628 . S
La401 O428 2.554 . S
La401 O429 2.757 . S
La401 O430 2.470 . S
C402 La400 2.928 . S
C402 C403 1.503 . S
C402 O420 1.261 . S
C402 O421 1.243 . S
C403 C402 1.503 . S
C403 C404 1.394 . S
C403 C408 1.373 . S
C404 C403 1.394 . S
C404 C405 1.380 . S
C404 H432 0.930 . S
C405 C404 1.380 . S
C405 C406 1.376 . S
C405 H433 0.930 . S
C406 C405 1.376 . S
C406 C407 1.370 . S
C407 C406 1.370 . S
C407 C408 1.396 . S
C407 H434 0.929 . S
C408 C403 1.373 . S
C408 C407 1.396 . S
C408 H435 0.929 . S
C409 O422 1.240 . S
C409 O423 1.289 . S
C410 O424 1.258 . S
C410 O425 1.256 . S
C411 La401 2.928 . S
C411 C412 1.503 . S
C411 O426 1.261 . S
C411 O427 1.243 . S
C412 C411 1.503 . S
C412 C413 1.394 . S
C412 C417 1.373 . S
C413 C412 1.394 . S
C413 C414 1.380 1_455 S
C413 H436 0.930 . S
C414 C413 1.380 1_655 S
C414 C415 1.376 . S
C414 H437 0.930 . S
C415 C414 1.376 . S
C415 C416 1.370 . S
C416 C415 1.370 . S
C416 C417 1.396 1_655 S
C416 H438 0.929 . S
C417 C412 1.373 . S
C417 C416 1.396 1_455 S
C417 H439 0.929 . S
C418 O428 1.240 . S
C418 O429 1.289 . S
C419 O430 1.258 . S
C419 O431 1.256 . S
O420 La400 2.521 . S
O420 C402 1.261 . S
O421 La400 2.628 . S
O421 C402 1.243 . S
O422 La400 2.554 . S
O422 C409 1.240 . S
O423 La400 2.757 . S
O423 La401 2.482 . S
O423 C409 1.289 . S
O424 La400 2.470 . S
O424 C410 1.258 . S
O425 La401 2.503 . S
O425 C410 1.256 . S
O426 La401 2.521 . S
O426 C411 1.261 . S
O427 La401 2.628 . S
O427 C411 1.243 . S
O428 La401 2.554 . S
O428 C418 1.240 . S
O429 La400 2.482 . S
O429 La401 2.757 . S
O429 C418 1.289 . S
O430 La401 2.470 . S
O430 C419 1.258 . S
O431 La400 2.503 . S
O431 C419 1.256 . S
H432 C404 0.930 . S
H433 C405 0.930 . S
H434 C407 0.929 . S
H435 C408 0.929 . S
H436 C413 0.930 . S
H437 C414 0.930 . S
H438 C416 0.929 . S
H439 C417 0.929 . S
La440 C442 2.928 . S
La440 O460 2.521 . S
La440 O461 2.628 . S
La440 O462 2.554 . S
La440 O463 2.757 . S
La440 O464 2.470 . S
La440 O469 2.482 . S
La440 O471 2.503 . S
La441 C451 2.928 . S
La441 O463 2.482 . S
La441 O465 2.503 . S
La441 O466 2.521 . S
La441 O467 2.628 . S
La441 O468 2.554 . S
La441 O469 2.757 . S
La441 O470 2.470 . S
C442 La440 2.928 . S
C442 C443 1.503 . S
C442 O460 1.261 . S
C442 O461 1.243 . S
C443 C442 1.503 . S
C443 C444 1.394 . S
C443 C448 1.373 . S
C444 C443 1.394 . S
C444 C445 1.380 . S
C444 H472 0.930 . S
C445 C444 1.380 . S
C445 C446 1.376 . S
C445 H473 0.930 . S
C446 C445 1.376 . S
C446 C447 1.370 . S
C447 C446 1.370 . S
C447 C448 1.396 . S
C447 H474 0.929 . S
C448 C443 1.373 . S
C448 C447 1.396 . S
C448 H475 0.929 . S
C449 O462 1.240 . S
C449 O463 1.289 . S
C450 O464 1.258 . S
C450 O465 1.256 . S
C451 La441 2.928 . S
C451 C452 1.503 . S
C451 O466 1.261 . S
C451 O467 1.243 . S
C452 C451 1.503 . S
C452 C453 1.394 . S
C452 C457 1.373 . S
C453 C452 1.394 . S
C453 C454 1.380 1_545 S
C453 H476 0.930 . S
C454 C453 1.380 1_565 S
C454 C455 1.376 . S
C454 H477 0.930 . S
C455 C454 1.376 . S
C455 C456 1.370 . S
C456 C455 1.370 . S
C456 C457 1.396 1_565 S
C456 H478 0.929 . S
C457 C452 1.373 . S
C457 C456 1.396 1_545 S
C457 H479 0.929 . S
C458 O468 1.240 . S
C458 O469 1.289 . S
C459 O470 1.258 . S
C459 O471 1.256 . S
O460 La440 2.521 . S
O460 C442 1.261 . S
O461 La440 2.628 . S
O461 C442 1.243 . S
O462 La440 2.554 . S
O462 C449 1.240 . S
O463 La440 2.757 . S
O463 La441 2.482 . S
O463 C449 1.289 . S
O464 La440 2.470 . S
O464 C450 1.258 . S
O465 La441 2.503 . S
O465 C450 1.256 . S
O466 La441 2.521 . S
O466 C451 1.261 . S
O467 La441 2.628 . S
O467 C451 1.243 . S
O468 La441 2.554 . S
O468 C458 1.240 . S
O469 La440 2.482 . S
O469 La441 2.757 . S
O469 C458 1.289 . S
O470 La441 2.470 . S
O470 C459 1.258 . S
O471 La440 2.503 . S
O471 C459 1.256 . S
H472 C444 0.930 . S
H473 C445 0.930 . S
H474 C447 0.929 . S
H475 C448 0.929 . S
H476 C453 0.930 . S
H477 C454 0.930 . S
H478 C456 0.929 . S
H479 C457 0.929 . S
C480 C481 1.349 . S
C480 C482 1.327 . S
C480 H505 0.950 . S
C481 C480 1.349 . S
C481 C497 1.349 . S
C482 C480 1.327 . S
C482 C501 1.429 . S
C482 H506 0.950 . S
C483 C500 1.574 1_565 S
C483 C502 1.368 . S
C483 H507 0.949 . S
H484 C488 0.949 . S
C485 C486 1.349 . S
C485 C487 1.327 . S
C485 H508 0.950 . S
C486 C485 1.349 . S
C486 C498 1.349 . S
C487 C485 1.327 . S
C487 C503 1.429 . S
C487 H509 0.950 . S
C488 H484 0.949 . S
C488 C496 1.574 1_545 S
C488 C504 1.368 . S
H489 C497 0.950 . S
H490 C495 0.950 . S
H491 C496 0.949 . S
H492 C498 0.950 . S
H493 C499 0.950 . S
H494 C500 0.949 . S
C495 H490 0.950 . S
C495 C497 1.327 . S
C495 C501 1.429 . S
C496 C488 1.574 1_565 S
C496 H491 0.949 . S
C496 C502 1.368 . S
C497 C481 1.349 . S
C497 H489 0.950 . S
C497 C495 1.327 . S
C498 C486 1.349 . S
C498 H492 0.950 . S
C498 C499 1.327 . S
C499 H493 0.950 . S
C499 C498 1.327 . S
C499 C503 1.429 . S
C500 C483 1.574 1_545 S
C500 H494 0.949 . S
C500 C504 1.368 . S
C501 C482 1.429 . S
C501 C495 1.429 . S
C501 C502 1.523 . S
C502 C483 1.368 . S
C502 C496 1.368 . S
C502 C501 1.523 . S
C503 C487 1.429 . S
C503 C499 1.429 . S
C503 C504 1.523 . S
C504 C488 1.368 . S
C504 C500 1.368 . S
C504 C503 1.523 . S
H505 C480 0.950 . S
H506 C482 0.950 . S
H507 C483 0.949 . S
H508 C485 0.950 . S
H509 C487 0.950 . S
C510 C511 1.349 . S
C510 C512 1.327 . S
C510 H535 0.950 . S
C511 C510 1.349 . S
C511 C527 1.349 . S
C512 C510 1.327 . S
C512 C531 1.429 . S
C512 H536 0.950 . S
C513 C530 1.574 . S
C513 C532 1.368 . S
C513 H537 0.949 . S
H514 C518 0.949 . S
C515 C516 1.349 . S
C515 C517 1.327 . S
C515 H538 0.950 . S
C516 C515 1.349 . S
C516 C528 1.349 . S
C517 C515 1.327 . S
C517 C533 1.429 . S
C517 H539 0.950 . S
C518 H514 0.949 . S
C518 C526 1.574 . S
C518 C534 1.368 . S
H519 C527 0.950 . S
H520 C525 0.950 . S
H521 C526 0.949 . S
H522 C528 0.950 . S
H523 C529 0.950 . S
H524 C530 0.949 . S
C525 H520 0.950 . S
C525 C527 1.327 . S
C525 C531 1.429 . S
C526 C518 1.574 . S
C526 H521 0.949 . S
C526 C532 1.368 . S
C527 C511 1.349 . S
C527 H519 0.950 . S
C527 C525 1.327 . S
C528 C516 1.349 . S
C528 H522 0.950 . S
C528 C529 1.327 . S
C529 H523 0.950 . S
C529 C528 1.327 . S
C529 C533 1.429 . S
C530 C513 1.574 . S
C530 H524 0.949 . S
C530 C534 1.368 . S
C531 C512 1.429 . S
C531 C525 1.429 . S
C531 C532 1.523 . S
C532 C513 1.368 . S
C532 C526 1.368 . S
C532 C531 1.523 . S
C533 C517 1.429 . S
C533 C529 1.429 . S
C533 C534 1.523 . S
C534 C518 1.368 . S
C534 C530 1.368 . S
C534 C533 1.523 . S
H535 C510 0.950 . S
H536 C512 0.950 . S
H537 C513 0.949 . S
H538 C515 0.950 . S
H539 C517 0.950 . S
C540 C541 1.349 . S
C540 C542 1.327 . S
C540 H565 0.950 . S
C541 C540 1.349 . S
C541 C557 1.349 . S
C542 C540 1.327 . S
C542 C561 1.429 . S
C542 H566 0.950 . S
C543 C560 1.574 1_655 S
C543 C562 1.368 . S
C543 H567 0.949 . S
H544 C548 0.946 . S
C545 C546 1.349 . S
C545 C547 1.327 . S
C545 H568 0.950 . S
C546 C545 1.349 . S
C546 C558 1.349 . S
C547 C545 1.327 . S
C547 C563 1.429 . S
C547 H569 0.950 . S
C548 H544 0.946 . S
C548 C556 1.562 1_455 S
C548 C564 1.384 . S
H549 C557 0.950 . S
H550 C555 0.950 . S
H551 C556 0.949 . S
H552 C558 0.950 . S
H553 C559 0.950 . S
H554 C560 0.949 . S
C555 H550 0.950 . S
C555 C557 1.327 . S
C555 C561 1.429 . S
C556 C548 1.562 1_655 S
C556 H551 0.949 . S
C556 C562 1.368 . S
C557 C541 1.349 . S
C557 H549 0.950 . S
C557 C555 1.327 . S
C558 C546 1.349 . S
C558 H552 0.950 . S
C558 C559 1.327 . S
C559 H553 0.950 . S
C559 C558 1.327 . S
C559 C563 1.429 . S
C560 C543 1.574 1_455 S
C560 H554 0.949 . S
C560 C564 1.368 . S
C561 C542 1.429 . S
C561 C555 1.429 . S
C561 C562 1.523 . S
C562 C543 1.368 . S
C562 C556 1.368 . S
C562 C561 1.523 . S
C563 C547 1.429 . S
C563 C559 1.429 . S
C563 C564 1.523 . S
C564 C548 1.384 . S
C564 C560 1.368 . S
C564 C563 1.523 . S
H565 C540 0.950 . S
H566 C542 0.950 . S
H567 C543 0.949 . S
H568 C545 0.950 . S
H569 C547 0.950 . S
C570 C571 1.349 . S
C570 C572 1.327 . S
C570 H595 0.950 . S
C571 C570 1.349 . S
C571 C587 1.349 . S
C572 C570 1.327 . S
C572 C591 1.429 . S
C572 H596 0.950 . S
C573 C590 1.564 1_565 S
C573 C592 1.368 . S
C573 H597 0.949 . S
H574 C578 0.949 . S
C575 C576 1.349 . S
C575 C577 1.327 . S
C575 H598 0.950 . S
C576 C575 1.349 . S
C576 C588 1.349 . S
C577 C575 1.327 . S
C577 C593 1.429 . S
C577 H599 0.950 . S
C578 H574 0.949 . S
C578 C586 1.574 1_545 S
C578 C594 1.368 . S
H579 C587 0.950 . S
H580 C585 0.950 . S
H581 C586 0.949 . S
H582 C588 0.950 . S
H583 C589 0.950 . S
H584 C590 0.955 . S
C585 H580 0.950 . S
C585 C587 1.327 . S
C585 C591 1.429 . S
C586 C578 1.574 1_565 S
C586 H581 0.949 . S
C586 C592 1.368 . S
C587 C571 1.349 . S
C587 H579 0.950 . S
C587 C585 1.327 . S
C588 C576 1.349 . S
C588 H582 0.950 . S
C588 C589 1.327 . S
C589 H583 0.950 . S
C589 C588 1.327 . S
C589 C593 1.429 . S
C590 C573 1.564 1_545 S
C590 H584 0.955 . S
C590 C594 1.372 . S
C591 C572 1.429 . S
C591 C585 1.429 . S
C591 C592 1.523 . S
C592 C573 1.368 . S
C592 C586 1.368 . S
C592 C591 1.523 . S
C593 C577 1.429 . S
C593 C589 1.429 . S
C593 C594 1.523 . S
C594 C578 1.368 . S
C594 C590 1.372 . S
C594 C593 1.523 . S
H595 C570 0.950 . S
H596 C572 0.950 . S
H597 C573 0.949 . S
H598 C575 0.950 . S
H599 C577 0.950 . S
C600 C601 1.349 . S
C600 C602 1.327 . S
C600 H625 0.950 . S
C601 C600 1.349 . S
C601 C617 1.349 . S
C602 C600 1.327 . S
C602 C621 1.429 . S
C602 H626 0.950 . S
C603 C620 1.574 . S
C603 C622 1.368 . S
C603 H627 0.949 . S
H604 C608 0.949 . S
C605 C606 1.349 . S
C605 C607 1.327 . S
C605 H628 0.950 . S
C606 C605 1.349 . S
C606 C618 1.349 . S
C607 C605 1.327 . S
C607 C623 1.429 . S
C607 H629 0.950 . S
C608 H604 0.949 . S
C608 C616 1.574 . S
C608 C624 1.368 . S
H609 C617 0.950 . S
H610 C615 0.950 . S
H611 C616 0.949 . S
H612 C618 0.950 . S
H613 C619 0.950 . S
H614 C620 0.949 . S
C615 H610 0.950 . S
C615 C617 1.327 . S
C615 C621 1.429 . S
C616 C608 1.574 . S
C616 H611 0.949 . S
C616 C622 1.368 . S
C617 C601 1.349 . S
C617 H609 0.950 . S
C617 C615 1.327 . S
C618 C606 1.349 . S
C618 H612 0.950 . S
C618 C619 1.327 . S
C619 H613 0.950 . S
C619 C618 1.327 . S
C619 C623 1.429 . S
C620 C603 1.574 . S
C620 H614 0.949 . S
C620 C624 1.368 . S
C621 C602 1.429 . S
C621 C615 1.429 . S
C621 C622 1.523 . S
C622 C603 1.368 . S
C622 C616 1.368 . S
C622 C621 1.523 . S
C623 C607 1.429 . S
C623 C619 1.429 . S
C623 C624 1.523 . S
C624 C608 1.368 . S
C624 C620 1.368 . S
C624 C623 1.523 . S
H625 C600 0.950 . S
H626 C602 0.950 . S
H627 C603 0.949 . S
H628 C605 0.950 . S
H629 C607 0.950 . S
C630 C631 1.349 . S
C630 C632 1.327 . S
C630 H655 0.950 . S
C631 C630 1.349 . S
C631 C647 1.349 . S
C632 C630 1.327 . S
C632 C651 1.429 . S
C632 H656 0.950 . S
C633 C650 1.574 1_655 S
C633 C652 1.368 . S
C633 H657 0.949 . S
H634 C638 0.949 . S
C635 C636 1.349 . S
C635 C637 1.327 . S
C635 H658 0.950 . S
C636 C635 1.349 . S
C636 C648 1.349 . S
C637 C635 1.327 . S
C637 C653 1.429 . S
C637 H659 0.950 . S
C638 H634 0.949 . S
C638 C646 1.574 1_455 S
C638 C654 1.368 . S
H639 C647 0.950 . S
H640 C645 0.950 . S
H641 C646 0.949 . S
H642 C648 0.950 . S
H643 C649 0.950 . S
H644 C650 0.949 . S
C645 H640 0.950 . S
C645 C647 1.327 . S
C645 C651 1.429 . S
C646 C638 1.574 1_655 S
C646 H641 0.949 . S
C646 C652 1.368 . S
C647 C631 1.349 . S
C647 H639 0.950 . S
C647 C645 1.327 . S
C648 C636 1.349 . S
C648 H642 0.950 . S
C648 C649 1.327 . S
C649 H643 0.950 . S
C649 C648 1.327 . S
C649 C653 1.429 . S
C650 C633 1.574 1_455 S
C650 H644 0.949 . S
C650 C654 1.368 . S
C651 C632 1.429 . S
C651 C645 1.429 . S
C651 C652 1.523 . S
C652 C633 1.368 . S
C652 C646 1.368 . S
C652 C651 1.523 . S
C653 C637 1.429 . S
C653 C649 1.429 . S
C653 C654 1.523 . S
C654 C638 1.368 . S
C654 C650 1.368 . S
C654 C653 1.523 . S
H655 C630 0.950 . S
H656 C632 0.950 . S
H657 C633 0.949 . S
H658 C635 0.950 . S
H659 C637 0.950 . S
C660 C661 1.349 . S
C660 C662 1.327 . S
C660 H685 0.950 . S
C661 C660 1.349 . S
C661 C677 1.349 . S
C662 C660 1.327 . S
C662 C681 1.429 . S
C662 H686 0.950 . S
C663 C680 1.574 1_455 S
C663 C682 1.368 . S
C663 H687 0.949 . S
H664 C668 0.949 . S
C665 C666 1.349 . S
C665 C667 1.327 . S
C665 H688 0.950 . S
C666 C665 1.349 . S
C666 C678 1.349 . S
C667 C665 1.327 . S
C667 C683 1.429 . S
C667 H689 0.950 . S
C668 H664 0.949 . S
C668 C676 1.574 1_655 S
C668 C684 1.368 . S
H669 C677 0.950 . S
H670 C675 0.950 . S
H671 C676 0.949 . S
H672 C678 0.950 . S
H673 C679 0.950 . S
H674 C680 0.949 . S
C675 H670 0.950 . S
C675 C677 1.327 . S
C675 C681 1.429 . S
C676 C668 1.574 1_455 S
C676 H671 0.949 . S
C676 C682 1.368 . S
C677 C661 1.349 . S
C677 H669 0.950 . S
C677 C675 1.327 . S
C678 C666 1.349 . S
C678 H672 0.950 . S
C678 C679 1.327 . S
C679 H673 0.950 . S
C679 C678 1.327 . S
C679 C683 1.429 . S
C680 C663 1.574 1_655 S
C680 H674 0.949 . S
C680 C684 1.368 . S
C681 C662 1.429 . S
C681 C675 1.429 . S
C681 C682 1.523 . S
C682 C663 1.368 . S
C682 C676 1.368 . S
C682 C681 1.523 . S
C683 C667 1.429 . S
C683 C679 1.429 . S
C683 C684 1.523 . S
C684 C668 1.368 . S
C684 C680 1.368 . S
C684 C683 1.523 . S
H685 C660 0.950 . S
H686 C662 0.950 . S
H687 C663 0.949 . S
H688 C665 0.950 . S
H689 C667 0.950 . S
C690 C691 1.349 . S
C690 C692 1.327 . S
C690 H715 0.950 . S
C691 C690 1.349 . S
C691 C707 1.349 . S
C692 C690 1.327 . S
C692 C711 1.429 . S
C692 H716 0.950 . S
C693 C710 1.551 1_565 S
C693 C712 1.368 . S
C693 H717 0.949 . S
H694 C698 0.949 . S
C695 C696 1.349 . S
C695 C697 1.327 . S
C695 H718 0.950 . S
C696 C695 1.349 . S
C696 C708 1.349 . S
C697 C695 1.327 . S
C697 C713 1.429 . S
C697 H719 0.950 . S
C698 H694 0.949 . S
C698 C706 1.574 1_545 S
C698 C714 1.368 . S
H699 C707 0.950 . S
H700 C705 0.950 . S
H701 C706 0.949 . S
H702 C708 0.950 . S
H703 C709 0.950 . S
H704 C710 0.945 . S
C705 H700 0.950 . S
C705 C707 1.327 . S
C705 C711 1.429 . S
C706 C698 1.574 1_565 S
C706 H701 0.949 . S
C706 C712 1.368 . S
C707 C691 1.349 . S
C707 H699 0.950 . S
C707 C705 1.327 . S
C708 C696 1.349 . S
C708 H702 0.950 . S
C708 C709 1.327 . S
C709 H703 0.950 . S
C709 C708 1.327 . S
C709 C713 1.429 . S
C710 C693 1.551 1_545 S
C710 H704 0.945 . S
C710 C714 1.396 . S
C711 C692 1.429 . S
C711 C705 1.429 . S
C711 C712 1.523 . S
C712 C693 1.368 . S
C712 C706 1.368 . S
C712 C711 1.523 . S
C713 C697 1.429 . S
C713 C709 1.429 . S
C713 C714 1.523 . S
C714 C698 1.368 . S
C714 C710 1.396 . S
C714 C713 1.523 . S
H715 C690 0.950 . S
H716 C692 0.950 . S
H717 C693 0.949 . S
H718 C695 0.950 . S
H719 C697 0.950 . S
C720 C721 1.349 . S
C720 C722 1.327 . S
C720 H745 0.950 . S
C721 C720 1.349 . S
C721 C737 1.349 . S
C722 C720 1.327 . S
C722 C741 1.429 . S
C722 H746 0.950 . S
C723 C740 1.574 . S
C723 C742 1.368 . S
C723 H747 0.949 . S
H724 C728 0.949 . S
C725 C726 1.349 . S
C725 C727 1.327 . S
C725 H748 0.950 . S
C726 C725 1.349 . S
C726 C738 1.349 . S
C727 C725 1.327 . S
C727 C743 1.429 . S
C727 H749 0.950 . S
C728 H724 0.949 . S
C728 C736 1.574 . S
C728 C744 1.368 . S
H729 C737 0.950 . S
H730 C735 0.950 . S
H731 C736 0.949 . S
H732 C738 0.950 . S
H733 C739 0.950 . S
H734 C740 0.949 . S
C735 H730 0.950 . S
C735 C737 1.327 . S
C735 C741 1.429 . S
C736 C728 1.574 . S
C736 H731 0.949 . S
C736 C742 1.368 . S
C737 C721 1.349 . S
C737 H729 0.950 . S
C737 C735 1.327 . S
C738 C726 1.349 . S
C738 H732 0.950 . S
C738 C739 1.327 . S
C739 H733 0.950 . S
C739 C738 1.327 . S
C739 C743 1.429 . S
C740 C723 1.574 . S
C740 H734 0.949 . S
C740 C744 1.368 . S
C741 C722 1.429 . S
C741 C735 1.429 . S
C741 C742 1.523 . S
C742 C723 1.368 . S
C742 C736 1.368 . S
C742 C741 1.523 . S
C743 C727 1.429 . S
C743 C739 1.429 . S
C743 C744 1.523 . S
C744 C728 1.368 . S
C744 C740 1.368 . S
C744 C743 1.523 . S
H745 C720 0.950 . S
H746 C722 0.950 . S
H747 C723 0.949 . S
H748 C725 0.950 . S
H749 C727 0.950 . S
C750 C751 1.349 . S
C750 C752 1.327 . S
C750 H775 0.950 . S
C751 C750 1.349 . S
C751 C767 1.349 . S
C752 C750 1.327 . S
C752 C771 1.429 . S
C752 H776 0.950 . S
C753 C770 1.574 1_455 S
C753 C772 1.368 . S
C753 H777 0.949 . S
H754 C758 0.949 . S
C755 C756 1.349 . S
C755 C757 1.327 . S
C755 H778 0.950 . S
C756 C755 1.349 . S
C756 C768 1.349 . S
C757 C755 1.327 . S
C757 C773 1.429 . S
C757 H779 0.950 . S
C758 H754 0.949 . S
C758 C766 1.574 1_655 S
C758 C774 1.368 . S
H759 C767 0.950 . S
H760 C765 0.950 . S
H761 C766 0.949 . S
H762 C768 0.950 . S
H763 C769 0.950 . S
H764 C770 0.949 . S
C765 H760 0.950 . S
C765 C767 1.327 . S
C765 C771 1.429 . S
C766 C758 1.574 1_455 S
C766 H761 0.949 . S
C766 C772 1.368 . S
C767 C751 1.349 . S
C767 H759 0.950 . S
C767 C765 1.327 . S
C768 C756 1.349 . S
C768 H762 0.950 . S
C768 C769 1.327 . S
C769 H763 0.950 . S
C769 C768 1.327 . S
C769 C773 1.429 . S
C770 C753 1.574 1_655 S
C770 H764 0.949 . S
C770 C774 1.368 . S
C771 C752 1.429 . S
C771 C765 1.429 . S
C771 C772 1.523 . S
C772 C753 1.368 . S
C772 C766 1.368 . S
C772 C771 1.523 . S
C773 C757 1.429 . S
C773 C769 1.429 . S
C773 C774 1.523 . S
C774 C758 1.368 . S
C774 C770 1.368 . S
C774 C773 1.523 . S
H775 C750 0.950 . S
H776 C752 0.950 . S
H777 C753 0.949 . S
H778 C755 0.950 . S
H779 C757 0.950 . S
C780 C781 1.349 . S
C780 C782 1.327 . S
C780 H805 0.950 . S
C781 C780 1.349 . S
C781 C797 1.349 . S
C782 C780 1.327 . S
C782 C801 1.429 . S
C782 H806 0.950 . S
C783 C800 1.574 1_545 S
C783 C802 1.368 . S
C783 H807 0.949 . S
H784 C788 0.951 1_565 S
C785 C786 1.349 . S
C785 C787 1.327 . S
C785 H808 0.950 . S
C786 C785 1.349 . S
C786 C798 1.349 . S
C787 C785 1.327 . S
C787 C803 1.429 . S
C787 H809 0.950 . S
C788 H784 0.951 1_545 S
C788 C796 1.579 . S
C788 C804 1.361 1_545 S
H789 C797 0.950 . S
H790 C795 0.950 . S
H791 C796 0.949 . S
H792 C798 0.950 . S
H793 C799 0.950 . S
H794 C800 0.949 . S
C795 H790 0.950 . S
C795 C797 1.327 . S
C795 C801 1.429 . S
C796 C788 1.579 . S
C796 H791 0.949 . S
C796 C802 1.368 . S
C797 C781 1.349 . S
C797 H789 0.950 . S
C797 C795 1.327 . S
C798 C786 1.349 . S
C798 H792 0.950 . S
C798 C799 1.327 . S
C799 H793 0.950 . S
C799 C798 1.327 . S
C799 C803 1.429 . S
C800 C783 1.574 1_565 S
C800 H794 0.949 . S
C800 C804 1.368 . S
C801 C782 1.429 . S
C801 C795 1.429 . S
C801 C802 1.523 . S
C802 C783 1.368 . S
C802 C796 1.368 . S
C802 C801 1.523 . S
C803 C787 1.429 . S
C803 C799 1.429 . S
C803 C804 1.523 . S
C804 C788 1.361 1_565 S
C804 C800 1.368 . S
C804 C803 1.523 . S
H805 C780 0.950 . S
H806 C782 0.950 . S
H807 C783 0.949 . S
H808 C785 0.950 . S
H809 C787 0.950 . S
C810 C811 1.349 . S
C810 C812 1.327 . S
C810 H835 0.950 . S
C811 C810 1.349 . S
C811 C827 1.349 . S
C812 C810 1.327 . S
C812 C831 1.429 . S
C812 H836 0.950 . S
C813 C830 1.574 . S
C813 C832 1.368 . S
C813 H837 0.949 . S
H814 C818 0.949 . S
C815 C816 1.349 . S
C815 C817 1.327 . S
C815 H838 0.950 . S
C816 C815 1.349 . S
C816 C828 1.349 . S
C817 C815 1.327 . S
C817 C833 1.429 . S
C817 H839 0.950 . S
C818 H814 0.949 . S
C818 C826 1.574 . S
C818 C834 1.368 . S
H819 C827 0.950 . S
H820 C825 0.950 . S
H821 C826 0.949 . S
H822 C828 0.950 . S
H823 C829 0.950 . S
H824 C830 0.949 . S
C825 H820 0.950 . S
C825 C827 1.327 . S
C825 C831 1.429 . S
C826 C818 1.574 . S
C826 H821 0.949 . S
C826 C832 1.368 . S
C827 C811 1.349 . S
C827 H819 0.950 . S
C827 C825 1.327 . S
C828 C816 1.349 . S
C828 H822 0.950 . S
C828 C829 1.327 . S
C829 H823 0.950 . S
C829 C828 1.327 . S
C829 C833 1.429 . S
C830 C813 1.574 . S
C830 H824 0.949 . S
C830 C834 1.368 . S
C831 C812 1.429 . S
C831 C825 1.429 . S
C831 C832 1.523 . S
C832 C813 1.368 . S
C832 C826 1.368 . S
C832 C831 1.523 . S
C833 C817 1.429 . S
C833 C829 1.429 . S
C833 C834 1.523 . S
C834 C818 1.368 . S
C834 C830 1.368 . S
C834 C833 1.523 . S
H835 C810 0.950 . S
H836 C812 0.950 . S
H837 C813 0.949 . S
H838 C815 0.950 . S
H839 C817 0.950 . S
C840 C841 1.349 . S
C840 C842 1.327 . S
C840 H865 0.950 . S
C841 C840 1.349 . S
C841 C857 1.349 . S
C842 C840 1.327 . S
C842 C861 1.429 . S
C842 H866 0.950 . S
C843 C860 1.574 . S
C843 C862 1.368 . S
C843 H867 0.949 . S
H844 C848 0.949 . S
C845 C846 1.349 . S
C845 C847 1.327 . S
C845 H868 0.950 . S
C846 C845 1.349 . S
C846 C858 1.349 . S
C847 C845 1.327 . S
C847 C863 1.429 . S
C847 H869 0.950 . S
C848 H844 0.949 . S
C848 C856 1.574 . S
C848 C864 1.368 . S
H849 C857 0.950 . S
H850 C855 0.950 . S
H851 C856 0.949 . S
H852 C858 0.950 . S
H853 C859 0.950 . S
H854 C860 0.949 . S
C855 H850 0.950 . S
C855 C857 1.327 . S
C855 C861 1.429 . S
C856 C848 1.574 . S
C856 H851 0.949 . S
C856 C862 1.368 . S
C857 C841 1.349 . S
C857 H849 0.950 . S
C857 C855 1.327 . S
C858 C846 1.349 . S
C858 H852 0.950 . S
C858 C859 1.327 . S
C859 H853 0.950 . S
C859 C858 1.327 . S
C859 C863 1.429 . S
C860 C843 1.574 . S
C860 H854 0.949 . S
C860 C864 1.368 . S
C861 C842 1.429 . S
C861 C855 1.429 . S
C861 C862 1.523 . S
C862 C843 1.368 . S
C862 C856 1.368 . S
C862 C861 1.523 . S
C863 C847 1.429 . S
C863 C859 1.429 . S
C863 C864 1.523 . S
C864 C848 1.368 . S
C864 C860 1.368 . S
C864 C863 1.523 . S
H865 C840 0.950 . S
H866 C842 0.950 . S
H867 C843 0.949 . S
H868 C845 0.950 . S
H869 C847 0.950 . S
C870 C871 1.349 . S
C870 C872 1.327 . S
C870 H895 0.950 . S
C871 C870 1.349 . S
C871 C887 1.349 . S
C872 C870 1.327 . S
C872 C891 1.429 . S
C872 H896 0.950 . S
C873 C890 1.574 . S
C873 C892 1.368 . S
C873 H897 0.949 . S
H874 C878 0.949 . S
C875 C876 1.349 . S
C875 C877 1.327 . S
C875 H898 0.950 . S
C876 C875 1.349 . S
C876 C888 1.349 . S
C877 C875 1.327 . S
C877 C893 1.429 . S
C877 H899 0.950 . S
C878 H874 0.949 . S
C878 C886 1.574 . S
C878 C894 1.368 . S
H879 C887 0.950 . S
H880 C885 0.950 . S
H881 C886 0.949 . S
H882 C888 0.950 . S
H883 C889 0.950 . S
H884 C890 0.949 . S
C885 H880 0.950 . S
C885 C887 1.327 . S
C885 C891 1.429 . S
C886 C878 1.574 . S
C886 H881 0.949 . S
C886 C892 1.368 . S
C887 C871 1.349 . S
C887 H879 0.950 . S
C887 C885 1.327 . S
C888 C876 1.349 . S
C888 H882 0.950 . S
C888 C889 1.327 . S
C889 H883 0.950 . S
C889 C888 1.327 . S
C889 C893 1.429 . S
C890 C873 1.574 . S
C890 H884 0.949 . S
C890 C894 1.368 . S
C891 C872 1.429 . S
C891 C885 1.429 . S
C891 C892 1.523 . S
C892 C873 1.368 . S
C892 C886 1.368 . S
C892 C891 1.523 . S
C893 C877 1.429 . S
C893 C889 1.429 . S
C893 C894 1.523 . S
C894 C878 1.368 . S
C894 C890 1.368 . S
C894 C893 1.523 . S
H895 C870 0.950 . S
H896 C872 0.950 . S
H897 C873 0.949 . S
H898 C875 0.950 . S
H899 C877 0.950 . S
C900 C901 1.349 . S
C900 C902 1.327 . S
C900 H925 0.950 . S
C901 C900 1.349 . S
C901 C917 1.349 . S
C902 C900 1.327 . S
C902 C921 1.429 . S
C902 H926 0.950 . S
C903 C920 1.574 . S
C903 C922 1.368 . S
C903 H927 0.949 . S
H904 C908 0.949 . S
C905 C906 1.349 . S
C905 C907 1.327 . S
C905 H928 0.950 . S
C906 C905 1.349 . S
C906 C918 1.349 . S
C907 C905 1.327 . S
C907 C923 1.429 . S
C907 H929 0.950 . S
C908 H904 0.949 . S
C908 C916 1.574 . S
C908 C924 1.368 . S
H909 C917 0.950 . S
H910 C915 0.950 . S
H911 C916 0.949 . S
H912 C918 0.950 . S
H913 C919 0.950 . S
H914 C920 0.949 . S
C915 H910 0.950 . S
C915 C917 1.327 . S
C915 C921 1.429 . S
C916 C908 1.574 . S
C916 H911 0.949 . S
C916 C922 1.368 . S
C917 C901 1.349 . S
C917 H909 0.950 . S
C917 C915 1.327 . S
C918 C906 1.349 . S
C918 H912 0.950 . S
C918 C919 1.327 . S
C919 H913 0.950 . S
C919 C918 1.327 . S
C919 C923 1.429 . S
C920 C903 1.574 . S
C920 H914 0.949 . S
C920 C924 1.368 . S
C921 C902 1.429 . S
C921 C915 1.429 . S
C921 C922 1.523 . S
C922 C903 1.368 . S
C922 C916 1.368 . S
C922 C921 1.523 . S
C923 C907 1.429 . S
C923 C919 1.429 . S
C923 C924 1.523 . S
C924 C908 1.368 . S
C924 C920 1.368 . S
C924 C923 1.523 . S
H925 C900 0.950 . S
H926 C902 0.950 . S
H927 C903 0.949 . S
H928 C905 0.950 . S
H929 C907 0.950 . S
C930 C931 1.349 . S
C930 C932 1.327 . S
C930 H955 0.950 . S
C931 C930 1.349 . S
C931 C947 1.349 . S
C932 C930 1.327 . S
C932 C951 1.429 . S
C932 H956 0.950 . S
C933 C950 1.574 . S
C933 C952 1.368 . S
C933 H957 0.949 . S
H934 C938 0.949 . S
C935 C936 1.349 . S
C935 C937 1.327 . S
C935 H958 0.950 . S
C936 C935 1.349 . S
C936 C948 1.349 . S
C937 C935 1.327 . S
C937 C953 1.429 . S
C937 H959 0.950 . S
C938 H934 0.949 . S
C938 C946 1.574 . S
C938 C954 1.368 . S
H939 C947 0.950 . S
H940 C945 0.950 . S
H941 C946 0.949 . S
H942 C948 0.950 . S
H943 C949 0.950 . S
H944 C950 0.949 . S
C945 H940 0.950 . S
C945 C947 1.327 . S
C945 C951 1.429 . S
C946 C938 1.574 . S
C946 H941 0.949 . S
C946 C952 1.368 . S
C947 C931 1.349 . S
C947 H939 0.950 . S
C947 C945 1.327 . S
C948 C936 1.349 . S
C948 H942 0.950 . S
C948 C949 1.327 . S
C949 H943 0.950 . S
C949 C948 1.327 . S
C949 C953 1.429 . S
C950 C933 1.574 . S
C950 H944 0.949 . S
C950 C954 1.368 . S
C951 C932 1.429 . S
C951 C945 1.429 . S
C951 C952 1.523 . S
C952 C933 1.368 . S
C952 C946 1.368 . S
C952 C951 1.523 . S
C953 C937 1.429 . S
C953 C949 1.429 . S
C953 C954 1.523 . S
C954 C938 1.368 . S
C954 C950 1.368 . S
C954 C953 1.523 . S
H955 C930 0.950 . S
H956 C932 0.950 . S
H957 C933 0.949 . S
H958 C935 0.950 . S
H959 C937 0.950 . S
C960 C961 1.349 . S
C960 C962 1.327 . S
C960 H985 0.950 . S
C961 C960 1.349 . S
C961 C977 1.349 . S
C962 C960 1.327 . S
C962 C981 1.429 . S
C962 H986 0.950 . S
C963 C980 1.574 . S
C963 C982 1.368 . S
C963 H987 0.949 . S
H964 C968 0.949 . S
C965 C966 1.349 . S
C965 C967 1.327 . S
C965 H988 0.950 . S
C966 C965 1.349 . S
C966 C978 1.349 . S
C967 C965 1.327 . S
C967 C983 1.429 . S
C967 H989 0.950 . S
C968 H964 0.949 . S
C968 C976 1.574 . S
C968 C984 1.368 . S
H969 C977 0.950 . S
H970 C975 0.950 . S
H971 C976 0.949 . S
H972 C978 0.950 . S
H973 C979 0.950 . S
H974 C980 0.949 . S
C975 H970 0.950 . S
C975 C977 1.327 . S
C975 C981 1.429 . S
C976 C968 1.574 . S
C976 H971 0.949 . S
C976 C982 1.368 . S
C977 C961 1.349 . S
C977 H969 0.950 . S
C977 C975 1.327 . S
C978 C966 1.349 . S
C978 H972 0.950 . S
C978 C979 1.327 . S
C979 H973 0.950 . S
C979 C978 1.327 . S
C979 C983 1.429 . S
C980 C963 1.574 . S
C980 H974 0.949 . S
C980 C984 1.368 . S
C981 C962 1.429 . S
C981 C975 1.429 . S
C981 C982 1.523 . S
C982 C963 1.368 . S
C982 C976 1.368 . S
C982 C981 1.523 . S
C983 C967 1.429 . S
C983 C979 1.429 . S
C983 C984 1.523 . S
C984 C968 1.368 . S
C984 C980 1.368 . S
C984 C983 1.523 . S
H985 C960 0.950 . S
H986 C962 0.950 . S
H987 C963 0.949 . S
H988 C965 0.950 . S
H989 C967 0.950 . S
C990 C991 1.349 . S
C990 C992 1.327 . S
C990 H1015 0.950 . S
C991 C990 1.349 . S
C991 C1007 1.349 . S
C992 C990 1.327 . S
C992 C1011 1.429 . S
C992 H1016 0.950 . S
C993 C1010 1.574 . S
C993 C1012 1.368 . S
C993 H1017 0.949 . S
H994 C998 0.949 . S
C995 C996 1.349 . S
C995 C997 1.327 . S
C995 H1018 0.950 . S
C996 C995 1.349 . S
C996 C1008 1.349 . S
C997 C995 1.327 . S
C997 C1013 1.429 . S
C997 H1019 0.950 . S
C998 H994 0.949 . S
C998 C1006 1.574 . S
C998 C1014 1.368 . S
H999 C1007 0.950 . S
H1000 C1005 0.950 . S
H1001 C1006 0.949 . S
H1002 C1008 0.950 . S
H1003 C1009 0.950 . S
H1004 C1010 0.949 . S
C1005 H1000 0.950 . S
C1005 C1007 1.327 . S
C1005 C1011 1.429 . S
C1006 C998 1.574 . S
C1006 H1001 0.949 . S
C1006 C1012 1.368 . S
C1007 C991 1.349 . S
C1007 H999 0.950 . S
C1007 C1005 1.327 . S
C1008 C996 1.349 . S
C1008 H1002 0.950 . S
C1008 C1009 1.327 . S
C1009 H1003 0.950 . S
C1009 C1008 1.327 . S
C1009 C1013 1.429 . S
C1010 C993 1.574 . S
C1010 H1004 0.949 . S
C1010 C1014 1.368 . S
C1011 C992 1.429 . S
C1011 C1005 1.429 . S
C1011 C1012 1.523 . S
C1012 C993 1.368 . S
C1012 C1006 1.368 . S
C1012 C1011 1.523 . S
C1013 C997 1.429 . S
C1013 C1009 1.429 . S
C1013 C1014 1.523 . S
C1014 C998 1.368 . S
C1014 C1010 1.368 . S
C1014 C1013 1.523 . S
H1015 C990 0.950 . S
H1016 C992 0.950 . S
H1017 C993 0.949 . S
H1018 C995 0.950 . S
H1019 C997 0.950 . S
C1020 C1021 1.349 . S
C1020 C1022 1.327 . S
C1020 H1045 0.950 . S
C1021 C1020 1.349 . S
C1021 C1037 1.349 . S
C1022 C1020 1.327 . S
C1022 C1041 1.429 . S
C1022 H1046 0.950 . S
C1023 C1040 1.574 . S
C1023 C1042 1.368 . S
C1023 H1047 0.949 . S
H1024 C1028 0.949 . S
C1025 C1026 1.349 . S
C1025 C1027 1.327 . S
C1025 H1048 0.950 . S
C1026 C1025 1.349 . S
C1026 C1038 1.349 . S
C1027 C1025 1.327 . S
C1027 C1043 1.429 . S
C1027 H1049 0.950 . S
C1028 H1024 0.949 . S
C1028 C1036 1.574 . S
C1028 C1044 1.368 . S
H1029 C1037 0.950 . S
H1030 C1035 0.950 . S
H1031 C1036 0.949 . S
H1032 C1038 0.950 . S
H1033 C1039 0.950 . S
H1034 C1040 0.949 . S
C1035 H1030 0.950 . S
C1035 C1037 1.327 . S
C1035 C1041 1.429 . S
C1036 C1028 1.574 . S
C1036 H1031 0.949 . S
C1036 C1042 1.368 . S
C1037 C1021 1.349 . S
C1037 H1029 0.950 . S
C1037 C1035 1.327 . S
C1038 C1026 1.349 . S
C1038 H1032 0.950 . S
C1038 C1039 1.327 . S
C1039 H1033 0.950 . S
C1039 C1038 1.327 . S
C1039 C1043 1.429 . S
C1040 C1023 1.574 . S
C1040 H1034 0.949 . S
C1040 C1044 1.368 . S
C1041 C1022 1.429 . S
C1041 C1035 1.429 . S
C1041 C1042 1.523 . S
C1042 C1023 1.368 . S
C1042 C1036 1.368 . S
C1042 C1041 1.523 . S
C1043 C1027 1.429 . S
C1043 C1039 1.429 . S
C1043 C1044 1.523 . S
C1044 C1028 1.368 . S
C1044 C1040 1.368 . S
C1044 C1043 1.523 . S
H1045 C1020 0.950 . S
H1046 C1022 0.950 . S
H1047 C1023 0.949 . S
H1048 C1025 0.950 . S
H1049 C1027 0.950 . S
C1050 C1051 1.349 . S
C1050 C1052 1.327 . S
C1050 H1075 0.950 . S
C1051 C1050 1.349 . S
C1051 C1067 1.349 . S
C1052 C1050 1.327 . S
C1052 C1071 1.429 . S
C1052 H1076 0.950 . S
C1053 C1070 1.574 . S
C1053 C1072 1.368 . S
C1053 H1077 0.949 . S
H1054 C1058 0.949 . S
C1055 C1056 1.349 . S
C1055 C1057 1.327 . S
C1055 H1078 0.950 . S
C1056 C1055 1.349 . S
C1056 C1068 1.349 . S
C1057 C1055 1.327 . S
C1057 C1073 1.429 . S
C1057 H1079 0.950 . S
C1058 H1054 0.949 . S
C1058 C1066 1.574 . S
C1058 C1074 1.368 . S
H1059 C1067 0.950 . S
H1060 C1065 0.950 . S
H1061 C1066 0.949 . S
H1062 C1068 0.950 . S
H1063 C1069 0.950 . S
H1064 C1070 0.949 . S
C1065 H1060 0.950 . S
C1065 C1067 1.327 . S
C1065 C1071 1.429 . S
C1066 C1058 1.574 . S
C1066 H1061 0.949 . S
C1066 C1072 1.368 . S
C1067 C1051 1.349 . S
C1067 H1059 0.950 . S
C1067 C1065 1.327 . S
C1068 C1056 1.349 . S
C1068 H1062 0.950 . S
C1068 C1069 1.327 . S
C1069 H1063 0.950 . S
C1069 C1068 1.327 . S
C1069 C1073 1.429 . S
C1070 C1053 1.574 . S
C1070 H1064 0.949 . S
C1070 C1074 1.368 . S
C1071 C1052 1.429 . S
C1071 C1065 1.429 . S
C1071 C1072 1.523 . S
C1072 C1053 1.368 . S
C1072 C1066 1.368 . S
C1072 C1071 1.523 . S
C1073 C1057 1.429 . S
C1073 C1069 1.429 . S
C1073 C1074 1.523 . S
C1074 C1058 1.368 . S
C1074 C1070 1.368 . S
C1074 C1073 1.523 . S
H1075 C1050 0.950 . S
H1076 C1052 0.950 . S
H1077 C1053 0.949 . S
H1078 C1055 0.950 . S
H1079 C1057 0.950 . S
C1080 C1081 1.349 . S
C1080 C1082 1.327 . S
C1080 H1105 0.950 . S
C1081 C1080 1.349 . S
C1081 C1097 1.349 . S
C1082 C1080 1.327 . S
C1082 C1101 1.429 . S
C1082 H1106 0.950 . S
C1083 C1100 1.574 . S
C1083 C1102 1.368 . S
C1083 H1107 0.949 . S
H1084 C1088 0.949 . S
C1085 C1086 1.349 . S
C1085 C1087 1.327 . S
C1085 H1108 0.950 . S
C1086 C1085 1.349 . S
C1086 C1098 1.349 . S
C1087 C1085 1.327 . S
C1087 C1103 1.429 . S
C1087 H1109 0.950 . S
C1088 H1084 0.949 . S
C1088 C1096 1.574 . S
C1088 C1104 1.368 . S
H1089 C1097 0.950 . S
H1090 C1095 0.950 . S
H1091 C1096 0.949 . S
H1092 C1098 0.950 . S
H1093 C1099 0.950 . S
H1094 C1100 0.949 . S
C1095 H1090 0.950 . S
C1095 C1097 1.327 . S
C1095 C1101 1.429 . S
C1096 C1088 1.574 . S
C1096 H1091 0.949 . S
C1096 C1102 1.368 . S
C1097 C1081 1.349 . S
C1097 H1089 0.950 . S
C1097 C1095 1.327 . S
C1098 C1086 1.349 . S
C1098 H1092 0.950 . S
C1098 C1099 1.327 . S
C1099 H1093 0.950 . S
C1099 C1098 1.327 . S
C1099 C1103 1.429 . S
C1100 C1083 1.574 . S
C1100 H1094 0.949 . S
C1100 C1104 1.368 . S
C1101 C1082 1.429 . S
C1101 C1095 1.429 . S
C1101 C1102 1.523 . S
C1102 C1083 1.368 . S
C1102 C1096 1.368 . S
C1102 C1101 1.523 . S
C1103 C1087 1.429 . S
C1103 C1099 1.429 . S
C1103 C1104 1.523 . S
C1104 C1088 1.368 . S
C1104 C1100 1.368 . S
C1104 C1103 1.523 . S
H1105 C1080 0.950 . S
H1106 C1082 0.950 . S
H1107 C1083 0.949 . S
H1108 C1085 0.950 . S
H1109 C1087 0.950 . S
C1110 C1111 1.349 . S
C1110 C1112 1.327 . S
C1110 H1135 0.950 . S
C1111 C1110 1.349 . S
C1111 C1127 1.349 . S
C1112 C1110 1.327 . S
C1112 C1131 1.429 . S
C1112 H1136 0.950 . S
C1113 C1130 1.574 . S
C1113 C1132 1.368 . S
C1113 H1137 0.949 . S
H1114 C1118 0.949 . S
C1115 C1116 1.349 . S
C1115 C1117 1.327 . S
C1115 H1138 0.950 . S
C1116 C1115 1.349 . S
C1116 C1128 1.349 . S
C1117 C1115 1.327 . S
C1117 C1133 1.429 . S
C1117 H1139 0.950 . S
C1118 H1114 0.949 . S
C1118 C1126 1.574 . S
C1118 C1134 1.368 . S
H1119 C1127 0.950 . S
H1120 C1125 0.950 . S
H1121 C1126 0.949 . S
H1122 C1128 0.950 . S
H1123 C1129 0.950 . S
H1124 C1130 0.949 . S
C1125 H1120 0.950 . S
C1125 C1127 1.327 . S
C1125 C1131 1.429 . S
C1126 C1118 1.574 . S
C1126 H1121 0.949 . S
C1126 C1132 1.368 . S
C1127 C1111 1.349 . S
C1127 H1119 0.950 . S
C1127 C1125 1.327 . S
C1128 C1116 1.349 . S
C1128 H1122 0.950 . S
C1128 C1129 1.327 . S
C1129 H1123 0.950 . S
C1129 C1128 1.327 . S
C1129 C1133 1.429 . S
C1130 C1113 1.574 . S
C1130 H1124 0.949 . S
C1130 C1134 1.368 . S
C1131 C1112 1.429 . S
C1131 C1125 1.429 . S
C1131 C1132 1.523 . S
C1132 C1113 1.368 . S
C1132 C1126 1.368 . S
C1132 C1131 1.523 . S
C1133 C1117 1.429 . S
C1133 C1129 1.429 . S
C1133 C1134 1.523 . S
C1134 C1118 1.368 . S
C1134 C1130 1.368 . S
C1134 C1133 1.523 . S
H1135 C1110 0.950 . S
H1136 C1112 0.950 . S
H1137 C1113 0.949 . S
H1138 C1115 0.950 . S
H1139 C1117 0.950 . S
C1140 C1141 1.349 . S
C1140 C1142 1.327 . S
C1140 H1165 0.950 . S
C1141 C1140 1.349 . S
C1141 C1157 1.349 . S
C1142 C1140 1.327 . S
C1142 C1161 1.429 . S
C1142 H1166 0.950 . S
C1143 C1160 1.574 . S
C1143 C1162 1.368 . S
C1143 H1167 0.949 . S
H1144 C1148 0.949 . S
C1145 C1146 1.349 . S
C1145 C1147 1.327 . S
C1145 H1168 0.950 . S
C1146 C1145 1.349 . S
C1146 C1158 1.349 . S
C1147 C1145 1.327 . S
C1147 C1163 1.429 . S
C1147 H1169 0.950 . S
C1148 H1144 0.949 . S
C1148 C1156 1.574 . S
C1148 C1164 1.368 . S
H1149 C1157 0.950 . S
H1150 C1155 0.950 . S
H1151 C1156 0.949 . S
H1152 C1158 0.950 . S
H1153 C1159 0.950 . S
H1154 C1160 0.949 . S
C1155 H1150 0.950 . S
C1155 C1157 1.327 . S
C1155 C1161 1.429 . S
C1156 C1148 1.574 . S
C1156 H1151 0.949 . S
C1156 C1162 1.368 . S
C1157 C1141 1.349 . S
C1157 H1149 0.950 . S
C1157 C1155 1.327 . S
C1158 C1146 1.349 . S
C1158 H1152 0.950 . S
C1158 C1159 1.327 . S
C1159 H1153 0.950 . S
C1159 C1158 1.327 . S
C1159 C1163 1.429 . S
C1160 C1143 1.574 . S
C1160 H1154 0.949 . S
C1160 C1164 1.368 . S
C1161 C1142 1.429 . S
C1161 C1155 1.429 . S
C1161 C1162 1.523 . S
C1162 C1143 1.368 . S
C1162 C1156 1.368 . S
C1162 C1161 1.523 . S
C1163 C1147 1.429 . S
C1163 C1159 1.429 . S
C1163 C1164 1.523 . S
C1164 C1148 1.368 . S
C1164 C1160 1.368 . S
C1164 C1163 1.523 . S
H1165 C1140 0.950 . S
H1166 C1142 0.950 . S
H1167 C1143 0.949 . S
H1168 C1145 0.950 . S
H1169 C1147 0.950 . S
C1170 C1171 1.349 . S
C1170 C1172 1.327 . S
C1170 H1195 0.950 . S
C1171 C1170 1.349 . S
C1171 C1187 1.349 . S
C1172 C1170 1.327 . S
C1172 C1191 1.429 . S
C1172 H1196 0.950 . S
C1173 C1190 1.574 . S
C1173 C1192 1.368 . S
C1173 H1197 0.949 . S
H1174 C1178 0.949 . S
C1175 C1176 1.349 . S
C1175 C1177 1.327 . S
C1175 H1198 0.950 . S
C1176 C1175 1.349 . S
C1176 C1188 1.349 . S
C1177 C1175 1.327 . S
C1177 C1193 1.429 . S
C1177 H1199 0.950 . S
C1178 H1174 0.949 . S
C1178 C1186 1.574 . S
C1178 C1194 1.368 . S
H1179 C1187 0.950 . S
H1180 C1185 0.950 . S
H1181 C1186 0.949 . S
H1182 C1188 0.950 . S
H1183 C1189 0.950 . S
H1184 C1190 0.949 . S
C1185 H1180 0.950 . S
C1185 C1187 1.327 . S
C1185 C1191 1.429 . S
C1186 C1178 1.574 . S
C1186 H1181 0.949 . S
C1186 C1192 1.368 . S
C1187 C1171 1.349 . S
C1187 H1179 0.950 . S
C1187 C1185 1.327 . S
C1188 C1176 1.349 . S
C1188 H1182 0.950 . S
C1188 C1189 1.327 . S
C1189 H1183 0.950 . S
C1189 C1188 1.327 . S
C1189 C1193 1.429 . S
C1190 C1173 1.574 . S
C1190 H1184 0.949 . S
C1190 C1194 1.368 . S
C1191 C1172 1.429 . S
C1191 C1185 1.429 . S
C1191 C1192 1.523 . S
C1192 C1173 1.368 . S
C1192 C1186 1.368 . S
C1192 C1191 1.523 . S
C1193 C1177 1.429 . S
C1193 C1189 1.429 . S
C1193 C1194 1.523 . S
C1194 C1178 1.368 . S
C1194 C1190 1.368 . S
C1194 C1193 1.523 . S
H1195 C1170 0.950 . S
H1196 C1172 0.950 . S
H1197 C1173 0.949 . S
H1198 C1175 0.950 . S
H1199 C1177 0.950 . S
C1200 C1201 1.349 . S
C1200 C1202 1.327 . S
C1200 H1225 0.950 . S
C1201 C1200 1.349 . S
C1201 C1217 1.349 . S
C1202 C1200 1.327 . S
C1202 C1221 1.429 . S
C1202 H1226 0.950 . S
C1203 C1220 1.574 . S
C1203 C1222 1.368 . S
C1203 H1227 0.949 . S
H1204 C1208 0.949 . S
C1205 C1206 1.349 . S
C1205 C1207 1.327 . S
C1205 H1228 0.950 . S
C1206 C1205 1.349 . S
C1206 C1218 1.349 . S
C1207 C1205 1.327 . S
C1207 C1223 1.429 . S
C1207 H1229 0.950 . S
C1208 H1204 0.949 . S
C1208 C1216 1.574 . S
C1208 C1224 1.368 . S
H1209 C1217 0.950 . S
H1210 C1215 0.950 . S
H1211 C1216 0.949 . S
H1212 C1218 0.950 . S
H1213 C1219 0.950 . S
H1214 C1220 0.949 . S
C1215 H1210 0.950 . S
C1215 C1217 1.327 . S
C1215 C1221 1.429 . S
C1216 C1208 1.574 . S
C1216 H1211 0.949 . S
C1216 C1222 1.368 . S
C1217 C1201 1.349 . S
C1217 H1209 0.950 . S
C1217 C1215 1.327 . S
C1218 C1206 1.349 . S
C1218 H1212 0.950 . S
C1218 C1219 1.327 . S
C1219 H1213 0.950 . S
C1219 C1218 1.327 . S
C1219 C1223 1.429 . S
C1220 C1203 1.574 . S
C1220 H1214 0.949 . S
C1220 C1224 1.368 . S
C1221 C1202 1.429 . S
C1221 C1215 1.429 . S
C1221 C1222 1.523 . S
C1222 C1203 1.368 . S
C1222 C1216 1.368 . S
C1222 C1221 1.523 . S
C1223 C1207 1.429 . S
C1223 C1219 1.429 . S
C1223 C1224 1.523 . S
C1224 C1208 1.368 . S
C1224 C1220 1.368 . S
C1224 C1223 1.523 . S
H1225 C1200 0.950 . S
H1226 C1202 0.950 . S
H1227 C1203 0.949 . S
H1228 C1205 0.950 . S
H1229 C1207 0.950 . S
C1230 C1231 1.349 . S
C1230 C1232 1.327 . S
C1230 H1255 0.950 . S
C1231 C1230 1.349 . S
C1231 C1247 1.349 . S
C1232 C1230 1.327 . S
C1232 C1251 1.429 . S
C1232 H1256 0.950 . S
C1233 C1250 1.574 . S
C1233 C1252 1.368 . S
C1233 H1257 0.949 . S
H1234 C1238 0.949 . S
C1235 C1236 1.349 . S
C1235 C1237 1.327 . S
C1235 H1258 0.950 . S
C1236 C1235 1.349 . S
C1236 C1248 1.349 . S
C1237 C1235 1.327 . S
C1237 C1253 1.429 . S
C1237 H1259 0.950 . S
C1238 H1234 0.949 . S
C1238 C1246 1.574 . S
C1238 C1254 1.368 . S
H1239 C1247 0.950 . S
H1240 C1245 0.950 . S
H1241 C1246 0.949 . S
H1242 C1248 0.950 . S
H1243 C1249 0.950 . S
H1244 C1250 0.949 . S
C1245 H1240 0.950 . S
C1245 C1247 1.327 . S
C1245 C1251 1.429 . S
C1246 C1238 1.574 . S
C1246 H1241 0.949 . S
C1246 C1252 1.368 . S
C1247 C1231 1.349 . S
C1247 H1239 0.950 . S
C1247 C1245 1.327 . S
C1248 C1236 1.349 . S
C1248 H1242 0.950 . S
C1248 C1249 1.327 . S
C1249 H1243 0.950 . S
C1249 C1248 1.327 . S
C1249 C1253 1.429 . S
C1250 C1233 1.574 . S
C1250 H1244 0.949 . S
C1250 C1254 1.368 . S
C1251 C1232 1.429 . S
C1251 C1245 1.429 . S
C1251 C1252 1.523 . S
C1252 C1233 1.368 . S
C1252 C1246 1.368 . S
C1252 C1251 1.523 . S
C1253 C1237 1.429 . S
C1253 C1249 1.429 . S
C1253 C1254 1.523 . S
C1254 C1238 1.368 . S
C1254 C1250 1.368 . S
C1254 C1253 1.523 . S
H1255 C1230 0.950 . S
H1256 C1232 0.950 . S
H1257 C1233 0.949 . S
H1258 C1235 0.950 . S
H1259 C1237 0.950 . S
C1260 C1261 1.349 . S
C1260 C1262 1.327 . S
C1260 H1285 0.950 . S
C1261 C1260 1.349 . S
C1261 C1277 1.349 . S
C1262 C1260 1.327 . S
C1262 C1281 1.429 . S
C1262 H1286 0.950 . S
C1263 C1280 1.574 . S
C1263 C1282 1.368 . S
C1263 H1287 0.949 . S
H1264 C1268 0.949 . S
C1265 C1266 1.349 . S
C1265 C1267 1.327 . S
C1265 H1288 0.950 . S
C1266 C1265 1.349 . S
C1266 C1278 1.349 . S
C1267 C1265 1.327 . S
C1267 C1283 1.429 . S
C1267 H1289 0.950 . S
C1268 H1264 0.949 . S
C1268 C1276 1.574 . S
C1268 C1284 1.368 . S
H1269 C1277 0.950 . S
H1270 C1275 0.950 . S
H1271 C1276 0.949 . S
H1272 C1278 0.950 . S
H1273 C1279 0.950 . S
H1274 C1280 0.949 . S
C1275 H1270 0.950 . S
C1275 C1277 1.327 . S
C1275 C1281 1.429 . S
C1276 C1268 1.574 . S
C1276 H1271 0.949 . S
C1276 C1282 1.368 . S
C1277 C1261 1.349 . S
C1277 H1269 0.950 . S
C1277 C1275 1.327 . S
C1278 C1266 1.349 . S
C1278 H1272 0.950 . S
C1278 C1279 1.327 . S
C1279 H1273 0.950 . S
C1279 C1278 1.327 . S
C1279 C1283 1.429 . S
C1280 C1263 1.574 . S
C1280 H1274 0.949 . S
C1280 C1284 1.368 . S
C1281 C1262 1.429 . S
C1281 C1275 1.429 . S
C1281 C1282 1.523 . S
C1282 C1263 1.368 . S
C1282 C1276 1.368 . S
C1282 C1281 1.523 . S
C1283 C1267 1.429 . S
C1283 C1279 1.429 . S
C1283 C1284 1.523 . S
C1284 C1268 1.368 . S
C1284 C1280 1.368 . S
C1284 C1283 1.523 . S
H1285 C1260 0.950 . S
H1286 C1262 0.950 . S
H1287 C1263 0.949 . S
H1288 C1265 0.950 . S
H1289 C1267 0.950 . S
C1290 C1291 1.349 . S
C1290 C1292 1.327 . S
C1290 H1315 0.950 . S
C1291 C1290 1.349 . S
C1291 C1307 1.349 . S
C1292 C1290 1.327 . S
C1292 C1311 1.429 . S
C1292 H1316 0.950 . S
C1293 C1310 1.574 . S
C1293 C1312 1.368 . S
C1293 H1317 0.949 . S
H1294 C1298 0.949 . S
C1295 C1296 1.349 . S
C1295 C1297 1.327 . S
C1295 H1318 0.950 . S
C1296 C1295 1.349 . S
C1296 C1308 1.349 . S
C1297 C1295 1.327 . S
C1297 C1313 1.429 . S
C1297 H1319 0.950 . S
C1298 H1294 0.949 . S
C1298 C1306 1.574 . S
C1298 C1314 1.368 . S
H1299 C1307 0.950 . S
H1300 C1305 0.950 . S
H1301 C1306 0.949 . S
H1302 C1308 0.950 . S
H1303 C1309 0.950 . S
H1304 C1310 0.949 . S
C1305 H1300 0.950 . S
C1305 C1307 1.327 . S
C1305 C1311 1.429 . S
C1306 C1298 1.574 . S
C1306 H1301 0.949 . S
C1306 C1312 1.368 . S
C1307 C1291 1.349 . S
C1307 H1299 0.950 . S
C1307 C1305 1.327 . S
C1308 C1296 1.349 . S
C1308 H1302 0.950 . S
C1308 C1309 1.327 . S
C1309 H1303 0.950 . S
C1309 C1308 1.327 . S
C1309 C1313 1.429 . S
C1310 C1293 1.574 . S
C1310 H1304 0.949 . S
C1310 C1314 1.368 . S
C1311 C1292 1.429 . S
C1311 C1305 1.429 . S
C1311 C1312 1.523 . S
C1312 C1293 1.368 . S
C1312 C1306 1.368 . S
C1312 C1311 1.523 . S
C1313 C1297 1.429 . S
C1313 C1309 1.429 . S
C1313 C1314 1.523 . S
C1314 C1298 1.368 . S
C1314 C1310 1.368 . S
C1314 C1313 1.523 . S
H1315 C1290 0.950 . S
H1316 C1292 0.950 . S
H1317 C1293 0.949 . S
H1318 C1295 0.950 . S
H1319 C1297 0.950 . S
C1320 C1321 1.349 . S
C1320 C1322 1.327 . S
C1320 H1345 0.950 . S
C1321 C1320 1.349 . S
C1321 C1337 1.349 . S
C1322 C1320 1.327 . S
C1322 C1341 1.429 . S
C1322 H1346 0.950 . S
C1323 C1340 1.574 . S
C1323 C1342 1.368 . S
C1323 H1347 0.949 . S
H1324 C1328 0.949 . S
C1325 C1326 1.349 . S
C1325 C1327 1.327 . S
C1325 H1348 0.950 . S
C1326 C1325 1.349 . S
C1326 C1338 1.349 . S
C1327 C1325 1.327 . S
C1327 C1343 1.429 . S
C1327 H1349 0.950 . S
C1328 H1324 0.949 . S
C1328 C1336 1.574 . S
C1328 C1344 1.368 . S
H1329 C1337 0.950 . S
H1330 C1335 0.950 . S
H1331 C1336 0.949 . S
H1332 C1338 0.950 . S
H1333 C1339 0.950 . S
H1334 C1340 0.949 . S
C1335 H1330 0.950 . S
C1335 C1337 1.327 . S
C1335 C1341 1.429 . S
C1336 C1328 1.574 . S
C1336 H1331 0.949 . S
C1336 C1342 1.368 . S
C1337 C1321 1.349 . S
C1337 H1329 0.950 . S
C1337 C1335 1.327 . S
C1338 C1326 1.349 . S
C1338 H1332 0.950 . S
C1338 C1339 1.327 . S
C1339 H1333 0.950 . S
C1339 C1338 1.327 . S
C1339 C1343 1.429 . S
C1340 C1323 1.574 . S
C1340 H1334 0.949 . S
C1340 C1344 1.368 . S
C1341 C1322 1.429 . S
C1341 C1335 1.429 . S
C1341 C1342 1.523 . S
C1342 C1323 1.368 . S
C1342 C1336 1.368 . S
C1342 C1341 1.523 . S
C1343 C1327 1.429 . S
C1343 C1339 1.429 . S
C1343 C1344 1.523 . S
C1344 C1328 1.368 . S
C1344 C1340 1.368 . S
C1344 C1343 1.523 . S
H1345 C1320 0.950 . S
H1346 C1322 0.950 . S
H1347 C1323 0.949 . S
H1348 C1325 0.950 . S
H1349 C1327 0.950 . S
C1350 C1351 1.349 . S
C1350 C1352 1.327 . S
C1350 H1375 0.950 . S
C1351 C1350 1.349 . S
C1351 C1367 1.349 . S
C1352 C1350 1.327 . S
C1352 C1371 1.429 . S
C1352 H1376 0.950 . S
C1353 C1370 1.574 . S
C1353 C1372 1.368 . S
C1353 H1377 0.949 . S
H1354 C1358 0.949 . S
C1355 C1356 1.349 . S
C1355 C1357 1.327 . S
C1355 H1378 0.950 . S
C1356 C1355 1.349 . S
C1356 C1368 1.349 . S
C1357 C1355 1.327 . S
C1357 C1373 1.429 . S
C1357 H1379 0.950 . S
C1358 H1354 0.949 . S
C1358 C1366 1.574 . S
C1358 C1374 1.368 . S
H1359 C1367 0.950 . S
H1360 C1365 0.950 . S
H1361 C1366 0.949 . S
H1362 C1368 0.950 . S
H1363 C1369 0.950 . S
H1364 C1370 0.949 . S
C1365 H1360 0.950 . S
C1365 C1367 1.327 . S
C1365 C1371 1.429 . S
C1366 C1358 1.574 . S
C1366 H1361 0.949 . S
C1366 C1372 1.368 . S
C1367 C1351 1.349 . S
C1367 H1359 0.950 . S
C1367 C1365 1.327 . S
C1368 C1356 1.349 . S
C1368 H1362 0.950 . S
C1368 C1369 1.327 . S
C1369 H1363 0.950 . S
C1369 C1368 1.327 . S
C1369 C1373 1.429 . S
C1370 C1353 1.574 . S
C1370 H1364 0.949 . S
C1370 C1374 1.368 . S
C1371 C1352 1.429 . S
C1371 C1365 1.429 . S
C1371 C1372 1.523 . S
C1372 C1353 1.368 . S
C1372 C1366 1.368 . S
C1372 C1371 1.523 . S
C1373 C1357 1.429 . S
C1373 C1369 1.429 . S
C1373 C1374 1.523 . S
C1374 C1358 1.368 . S
C1374 C1370 1.368 . S
C1374 C1373 1.523 . S
H1375 C1350 0.950 . S
H1376 C1352 0.950 . S
H1377 C1353 0.949 . S
H1378 C1355 0.950 . S
H1379 C1357 0.950 . S
C1380 C1381 1.349 . S
C1380 C1382 1.327 . S
C1380 H1405 0.950 . S
C1381 C1380 1.349 . S
C1381 C1397 1.349 . S
C1382 C1380 1.327 . S
C1382 C1401 1.429 . S
C1382 H1406 0.950 . S
C1383 C1400 1.574 . S
C1383 C1402 1.368 . S
C1383 H1407 0.949 . S
H1384 C1388 0.949 . S
C1385 C1386 1.349 . S
C1385 C1387 1.327 . S
C1385 H1408 0.950 . S
C1386 C1385 1.349 . S
C1386 C1398 1.349 . S
C1387 C1385 1.327 . S
C1387 C1403 1.429 . S
C1387 H1409 0.950 . S
C1388 H1384 0.949 . S
C1388 C1396 1.574 . S
C1388 C1404 1.368 . S
H1389 C1397 0.950 . S
H1390 C1395 0.950 . S
H1391 C1396 0.949 . S
H1392 C1398 0.950 . S
H1393 C1399 0.950 . S
H1394 C1400 0.949 . S
C1395 H1390 0.950 . S
C1395 C1397 1.327 . S
C1395 C1401 1.429 . S
C1396 C1388 1.574 . S
C1396 H1391 0.949 . S
C1396 C1402 1.368 1_554 S
C1397 C1381 1.349 . S
C1397 H1389 0.950 . S
C1397 C1395 1.327 . S
C1398 C1386 1.349 . S
C1398 H1392 0.950 . S
C1398 C1399 1.327 . S
C1399 H1393 0.950 . S
C1399 C1398 1.327 . S
C1399 C1403 1.429 . S
C1400 C1383 1.574 . S
C1400 H1394 0.949 . S
C1400 C1404 1.368 1_556 S
C1401 C1382 1.429 . S
C1401 C1395 1.429 . S
C1401 C1402 1.523 . S
C1402 C1383 1.368 . S
C1402 C1396 1.368 1_556 S
C1402 C1401 1.523 . S
C1403 C1387 1.429 . S
C1403 C1399 1.429 . S
C1403 C1404 1.523 . S
C1404 C1388 1.368 . S
C1404 C1400 1.368 1_554 S
C1404 C1403 1.523 . S
H1405 C1380 0.950 . S
H1406 C1382 0.950 . S
H1407 C1383 0.949 . S
H1408 C1385 0.950 . S
H1409 C1387 0.950 . S
C1410 C1411 1.349 . S
C1410 C1412 1.327 . S
C1410 H1435 0.950 . S
C1411 C1410 1.349 . S
C1411 C1427 1.349 . S
C1412 C1410 1.327 . S
C1412 C1431 1.429 . S
C1412 H1436 0.950 . S
C1413 C1430 1.574 1_455 S
C1413 C1432 1.368 . S
C1413 H1437 0.949 . S
H1414 C1418 0.949 . S
C1415 C1416 1.349 . S
C1415 C1417 1.327 . S
C1415 H1438 0.950 . S
C1416 C1415 1.349 . S
C1416 C1428 1.349 . S
C1417 C1415 1.327 . S
C1417 C1433 1.429 . S
C1417 H1439 0.950 . S
C1418 H1414 0.949 . S
C1418 C1426 1.574 1_655 S
C1418 C1434 1.368 . S
H1419 C1427 0.950 . S
H1420 C1425 0.950 . S
H1421 C1426 0.949 . S
H1422 C1428 0.950 . S
H1423 C1429 0.950 . S
H1424 C1430 0.949 . S
C1425 H1420 0.950 . S
C1425 C1427 1.327 . S
C1425 C1431 1.429 . S
C1426 C1418 1.574 1_455 S
C1426 H1421 0.949 . S
C1426 C1432 1.368 . S
C1427 C1411 1.349 . S
C1427 H1419 0.950 . S
C1427 C1425 1.327 . S
C1428 C1416 1.349 . S
C1428 H1422 0.950 . S
C1428 C1429 1.327 . S
C1429 H1423 0.950 . S
C1429 C1428 1.327 . S
C1429 C1433 1.429 . S
C1430 C1413 1.574 1_655 S
C1430 H1424 0.949 . S
C1430 C1434 1.368 . S
C1431 C1412 1.429 . S
C1431 C1425 1.429 . S
C1431 C1432 1.523 . S
C1432 C1413 1.368 . S
C1432 C1426 1.368 . S
C1432 C1431 1.523 . S
C1433 C1417 1.429 . S
C1433 C1429 1.429 . S
C1433 C1434 1.523 . S
C1434 C1418 1.368 . S
C1434 C1430 1.368 . S
C1434 C1433 1.523 . S
H1435 C1410 0.950 . S
H1436 C1412 0.950 . S
H1437 C1413 0.949 . S
H1438 C1415 0.950 . S
H1439 C1417 0.950 . S
C1440 C1441 1.349 . S
C1440 C1442 1.327 . S
C1440 H1465 0.950 . S
C1441 C1440 1.349 . S
C1441 C1457 1.349 . S
C1442 C1440 1.327 . S
C1442 C1461 1.429 . S
C1442 H1466 0.950 . S
C1443 C1460 1.574 1_564 S
C1443 C1462 1.368 . S
C1443 H1467 0.949 . S
H1444 C1448 0.949 . S
C1445 C1446 1.349 . S
C1445 C1447 1.327 . S
C1445 H1468 0.950 . S
C1446 C1445 1.349 . S
C1446 C1458 1.349 . S
C1447 C1445 1.327 . S
C1447 C1463 1.429 . S
C1447 H1469 0.950 . S
C1448 H1444 0.949 . S
C1448 C1456 1.574 1_546 S
C1448 C1464 1.368 . S
H1449 C1457 0.950 . S
H1450 C1455 0.950 . S
H1451 C1456 0.949 . S
H1452 C1458 0.950 . S
H1453 C1459 0.950 . S
H1454 C1460 0.949 . S
C1455 H1450 0.950 . S
C1455 C1457 1.327 . S
C1455 C1461 1.429 . S
C1456 C1448 1.574 1_564 S
C1456 H1451 0.949 . S
C1456 C1462 1.368 . S
C1457 C1441 1.349 . S
C1457 H1449 0.950 . S
C1457 C1455 1.327 . S
C1458 C1446 1.349 . S
C1458 H1452 0.950 . S
C1458 C1459 1.327 . S
C1459 H1453 0.950 . S
C1459 C1458 1.327 . S
C1459 C1463 1.429 . S
C1460 C1443 1.574 1_546 S
C1460 H1454 0.949 . S
C1460 C1464 1.368 . S
C1461 C1442 1.429 . S
C1461 C1455 1.429 . S
C1461 C1462 1.523 . S
C1462 C1443 1.368 . S
C1462 C1456 1.368 . S
C1462 C1461 1.523 . S
C1463 C1447 1.429 . S
C1463 C1459 1.429 . S
C1463 C1464 1.523 . S
C1464 C1448 1.368 . S
C1464 C1460 1.368 . S
C1464 C1463 1.523 . S
H1465 C1440 0.950 . S
H1466 C1442 0.950 . S
H1467 C1443 0.949 . S
H1468 C1445 0.950 . S
H1469 C1447 0.950 . S
C1470 C1471 1.349 . S
C1470 C1472 1.327 . S
C1470 H1495 0.950 . S
C1471 C1470 1.349 . S
C1471 C1487 1.349 . S
C1472 C1470 1.327 . S
C1472 C1491 1.429 . S
C1472 H1496 0.950 . S
C1473 C1490 1.574 . S
C1473 C1492 1.368 . S
C1473 H1497 0.949 . S
H1474 C1478 0.949 . S
C1475 C1476 1.349 . S
C1475 C1477 1.327 . S
C1475 H1498 0.950 . S
C1476 C1475 1.349 . S
C1476 C1488 1.349 . S
C1477 C1475 1.327 . S
C1477 C1493 1.429 . S
C1477 H1499 0.950 . S
C1478 H1474 0.949 . S
C1478 C1486 1.574 . S
C1478 C1494 1.368 . S
H1479 C1487 0.950 . S
H1480 C1485 0.950 . S
H1481 C1486 0.949 . S
H1482 C1488 0.950 . S
H1483 C1489 0.950 . S
H1484 C1490 0.949 . S
C1485 H1480 0.950 . S
C1485 C1487 1.327 . S
C1485 C1491 1.429 . S
C1486 C1478 1.574 . S
C1486 H1481 0.949 . S
C1486 C1492 1.368 . S
C1487 C1471 1.349 . S
C1487 H1479 0.950 . S
C1487 C1485 1.327 . S
C1488 C1476 1.349 . S
C1488 H1482 0.950 . S
C1488 C1489 1.327 . S
C1489 H1483 0.950 . S
C1489 C1488 1.327 . S
C1489 C1493 1.429 . S
C1490 C1473 1.574 . S
C1490 H1484 0.949 . S
C1490 C1494 1.368 . S
C1491 C1472 1.429 . S
C1491 C1485 1.429 . S
C1491 C1492 1.523 . S
C1492 C1473 1.368 . S
C1492 C1486 1.368 . S
C1492 C1491 1.523 . S
C1493 C1477 1.429 . S
C1493 C1489 1.429 . S
C1493 C1494 1.523 . S
C1494 C1478 1.368 . S
C1494 C1490 1.368 . S
C1494 C1493 1.523 . S
H1495 C1470 0.950 . S
H1496 C1472 0.950 . S
H1497 C1473 0.949 . S
H1498 C1475 0.950 . S
H1499 C1477 0.950 . S
C1500 C1501 1.349 . S
C1500 C1502 1.327 . S
C1500 H1525 0.950 . S
C1501 C1500 1.349 . S
C1501 C1517 1.349 . S
C1502 C1500 1.327 . S
C1502 C1521 1.429 . S
C1502 H1526 0.950 . S
C1503 C1520 1.574 1_656 S
C1503 C1522 1.368 . S
C1503 H1527 0.949 . S
H1504 C1508 0.949 . S
C1505 C1506 1.349 . S
C1505 C1507 1.327 . S
C1505 H1528 0.950 . S
C1506 C1505 1.349 . S
C1506 C1518 1.349 . S
C1507 C1505 1.327 . S
C1507 C1523 1.429 . S
C1507 H1529 0.950 . S
C1508 H1504 0.949 . S
C1508 C1516 1.574 1_454 S
C1508 C1524 1.368 . S
H1509 C1517 0.950 . S
H1510 C1515 0.950 . S
H1511 C1516 0.949 . S
H1512 C1518 0.950 . S
H1513 C1519 0.950 . S
H1514 C1520 0.949 . S
C1515 H1510 0.950 . S
C1515 C1517 1.327 . S
C1515 C1521 1.429 . S
C1516 C1508 1.574 1_656 S
C1516 H1511 0.949 . S
C1516 C1522 1.368 . S
C1517 C1501 1.349 . S
C1517 H1509 0.950 . S
C1517 C1515 1.327 . S
C1518 C1506 1.349 . S
C1518 H1512 0.950 . S
C1518 C1519 1.327 . S
C1519 H1513 0.950 . S
C1519 C1518 1.327 . S
C1519 C1523 1.429 . S
C1520 C1503 1.574 1_454 S
C1520 H1514 0.949 . S
C1520 C1524 1.368 . S
C1521 C1502 1.429 . S
C1521 C1515 1.429 . S
C1521 C1522 1.523 . S
C1522 C1503 1.368 . S
C1522 C1516 1.368 . S
C1522 C1521 1.523 . S
C1523 C1507 1.429 . S
C1523 C1519 1.429 . S
C1523 C1524 1.523 . S
C1524 C1508 1.368 . S
C1524 C1520 1.368 . S
C1524 C1523 1.523 . S
H1525 C1500 0.950 . S
H1526 C1502 0.950 . S
H1527 C1503 0.949 . S
H1528 C1505 0.950 . S
H1529 C1507 0.950 . S
C1530 C1531 1.349 . S
C1530 C1532 1.327 . S
C1530 H1555 0.950 . S
C1531 C1530 1.349 . S
C1531 C1547 1.349 . S
C1532 C1530 1.327 . S
C1532 C1551 1.429 . S
C1532 H1556 0.950 . S
C1533 C1550 1.574 . S
C1533 C1552 1.368 1_545 S
C1533 H1557 0.949 . S
H1534 C1538 0.949 . S
C1535 C1536 1.349 . S
C1535 C1537 1.327 . S
C1535 H1558 0.950 . S
C1536 C1535 1.349 . S
C1536 C1548 1.349 . S
C1537 C1535 1.327 . S
C1537 C1553 1.429 . S
C1537 H1559 0.950 . S
C1538 H1534 0.949 . S
C1538 C1546 1.574 . S
C1538 C1554 1.368 1_565 S
H1539 C1547 0.950 . S
H1540 C1545 0.950 . S
H1541 C1546 0.949 . S
H1542 C1548 0.950 . S
H1543 C1549 0.950 . S
H1544 C1550 0.949 . S
C1545 H1540 0.950 . S
C1545 C1547 1.327 . S
C1545 C1551 1.429 . S
C1546 C1538 1.574 . S
C1546 H1541 0.949 . S
C1546 C1552 1.368 . S
C1547 C1531 1.349 . S
C1547 H1539 0.950 . S
C1547 C1545 1.327 . S
C1548 C1536 1.349 . S
C1548 H1542 0.950 . S
C1548 C1549 1.327 . S
C1549 H1543 0.950 . S
C1549 C1548 1.327 . S
C1549 C1553 1.429 . S
C1550 C1533 1.574 . S
C1550 H1544 0.949 . S
C1550 C1554 1.368 . S
C1551 C1532 1.429 . S
C1551 C1545 1.429 . S
C1551 C1552 1.523 . S
C1552 C1533 1.368 1_565 S
C1552 C1546 1.368 . S
C1552 C1551 1.523 . S
C1553 C1537 1.429 . S
C1553 C1549 1.429 . S
C1553 C1554 1.523 . S
C1554 C1538 1.368 1_545 S
C1554 C1550 1.368 . S
C1554 C1553 1.523 . S
H1555 C1530 0.950 . S
H1556 C1532 0.950 . S
H1557 C1533 0.949 . S
H1558 C1535 0.950 . S
H1559 C1537 0.950 . S
C481 C179 1.181 . S
C486 C15 1.221 . S
C511 C219 1.181 . S
C516 C55 1.221 . S
C541 C95 1.221 . S
C546 C19 1.181 . S
C571 C135 1.221 . S
C576 C59 1.181 . S
C601 C175 1.221 . S
C606 C99 1.181 . S
C631 C139 1.181 . S
C636 C215 1.221 . S
C661 C339 1.181 . S
C666 C255 1.221 . S
C691 C295 1.221 . S
C696 C379 1.181 . S
C721 C419 1.181 . S
C726 C335 1.220 . S
C751 C375 1.221 . S
C756 C459 1.181 . S
C781 C415 1.221 . S
C786 C259 1.181 . S
C811 C299 1.181 . S
C816 C455 1.221 . S
C841 C170 1.731 . S
C846 C6 1.739 . S
C871 C46 1.739 . S
C876 C210 1.732 . S
C901 C86 1.739 . S
C906 C10 1.731 . S
C931 C126 1.739 . S
C936 C50 1.731 . S
C961 C90 1.732 . S
C966 C166 1.739 . S
C991 C130 1.731 . S
C996 C206 1.739 . S
C1021 C330 1.732 . S
C1026 C246 1.739 . S
C1051 C286 1.739 . S
C1056 C370 1.731 . S
C1081 C326 1.739 . S
C1086 C410 1.732 . S
C1111 C450 1.731 . S
C1116 C366 1.739 . S
C1141 C406 1.739 . S
C1146 C250 1.731 . S
C1171 C290 1.732 . S
C1176 C446 1.739 . S
C1201 C418 1.643 . S
C1206 C18 1.643 . S
C1231 C58 1.643 . S
C1236 C458 1.643 . S
C1261 C98 1.643 . S
C1266 C258 1.643 . S
C1291 C138 1.643 . S
C1296 C298 1.643 . S
C1321 C178 1.643 . S
C1326 C338 1.643 . S
C1351 C378 1.643 . S
C1356 C218 1.643 . S
C1381 C369 2.164 . S
C1386 C9 2.164 . S
C1411 C409 2.163 . S
C1416 C49 2.163 . S
C1441 C89 2.163 . S
C1446 C449 2.163 . S
C1471 C129 2.163 . S
C1476 C249 2.163 . S
C1501 C289 2.163 . S
C1506 C169 2.163 . S
C1531 C329 2.163 . S
C1536 C209 2.163 . S
