# Generated by pormake.
# Topology vbn, (6)-cn, num edge types: 1
# Building blocks:
#     Node 0, Type 0, BuildingBlock: OJICUG_clean_sbu_0, # of connection points: 6
#     Node 1, Type 0, BuildingBlock: OJICUG_clean_sbu_0, # of connection points: 6
#     Node 2, Type 0, BuildingBlock: OJICUG_clean_sbu_0, # of connection points: 6
#     Node 3, Type 0, BuildingBlock: OJICUG_clean_sbu_0, # of connection points: 6
#     Node 4, Type 0, BuildingBlock: OJICUG_clean_sbu_0, # of connection points: 6
#     Node 5, Type 0, BuildingBlock: OJICUG_clean_sbu_0, # of connection points: 6
#     Node 6, Type 0, BuildingBlock: OJICUG_clean_sbu_0, # of connection points: 6
#     Node 7, Type 0, BuildingBlock: OJICUG_clean_sbu_0, # of connection points: 6
#     Edge 8, Type (0, 0), BuildingBlock: XIVTED_clean_linker_0, # of connection points: 2
#     Edge 9, Type (0, 0), BuildingBlock: XIVTED_clean_linker_0, # of connection points: 2
#     Edge 10, Type (0, 0), BuildingBlock: XIVTED_clean_linker_0, # of connection points: 2
#     Edge 11, Type (0, 0), BuildingBlock: XIVTED_clean_linker_0, # of connection points: 2
#     Edge 12, Type (0, 0), BuildingBlock: XIVTED_clean_linker_0, # of connection points: 2
#     Edge 13, Type (0, 0), BuildingBlock: XIVTED_clean_linker_0, # of connection points: 2
#     Edge 14, Type (0, 0), BuildingBlock: XIVTED_clean_linker_0, # of connection points: 2
#     Edge 15, Type (0, 0), BuildingBlock: XIVTED_clean_linker_0, # of connection points: 2
#     Edge 16, Type (0, 0), BuildingBlock: XIVTED_clean_linker_0, # of connection points: 2
#     Edge 17, Type (0, 0), BuildingBlock: XIVTED_clean_linker_0, # of connection points: 2
#     Edge 18, Type (0, 0), BuildingBlock: XIVTED_clean_linker_0, # of connection points: 2
#     Edge 19, Type (0, 0), BuildingBlock: XIVTED_clean_linker_0, # of connection points: 2
#     Edge 20, Type (0, 0), BuildingBlock: XIVTED_clean_linker_0, # of connection points: 2
#     Edge 21, Type (0, 0), BuildingBlock: XIVTED_clean_linker_0, # of connection points: 2
#     Edge 22, Type (0, 0), BuildingBlock: XIVTED_clean_linker_0, # of connection points: 2
#     Edge 23, Type (0, 0), BuildingBlock: XIVTED_clean_linker_0, # of connection points: 2
#     Edge 24, Type (0, 0), BuildingBlock: XIVTED_clean_linker_0, # of connection points: 2
#     Edge 25, Type (0, 0), BuildingBlock: XIVTED_clean_linker_0, # of connection points: 2
#     Edge 26, Type (0, 0), BuildingBlock: XIVTED_clean_linker_0, # of connection points: 2
#     Edge 27, Type (0, 0), BuildingBlock: XIVTED_clean_linker_0, # of connection points: 2
#     Edge 28, Type (0, 0), BuildingBlock: XIVTED_clean_linker_0, # of connection points: 2
#     Edge 29, Type (0, 0), BuildingBlock: XIVTED_clean_linker_0, # of connection points: 2
#     Edge 30, Type (0, 0), BuildingBlock: XIVTED_clean_linker_0, # of connection points: 2
#     Edge 31, Type (0, 0), BuildingBlock: XIVTED_clean_linker_0, # of connection points: 2
# Relax obj value: 0.292
# Max RMSD: 0.267
# Mean RMSD: 0.267
data_MOF--net-vbn--node1-OJICUG_clean_sbu_0--edge1-XIVTED_clean_linker_0
_symmetry_space_group_name_H-M    P1
_symmetry_Int_Tables_number       1
_symmetry_cell_setting            triclinic
loop_
_symmetry_equiv_pos_as_xyz
'x, y, z'
_cell_length_a     26.39717
_cell_length_b     29.5176
_cell_length_c     48.018383
_cell_angle_alpha  90.134163
_cell_angle_beta   89.78975
_cell_angle_gamma 89.490049
loop_
_atom_site_label
_atom_site_type_symbol
_atom_site_fract_x
_atom_site_fract_y
_atom_site_fract_z
_atom_type_partial_charge
Sc0 Sc 0.29871 0.27734 0.37318 0.0
Sc1 Sc 0.36418 0.26315 0.4344 0.0
Sc2 Sc 0.41019 0.33338 0.38373 0.0
O3 O 0.35803 0.29082 0.39703 0.0
C4 C 0.39056 0.28057 0.33012 0.0
C5 C 0.32165 0.18337 0.3957 0.0
C6 C 0.47498 0.25902 0.41777 0.0
C7 C 0.25084 0.28113 0.43438 0.0
C8 C 0.3073 0.38056 0.36716 0.0
C9 C 0.40238 0.36454 0.44407 0.0
O10 O 0.34283 0.2832 0.33453 0.0
O11 O 0.32937 0.19985 0.42 0.0
O12 O 0.47126 0.2974 0.40559 0.0
O13 O 0.24799 0.26828 0.40901 0.0
O14 O 0.35457 0.37564 0.36207 0.0
O15 O 0.39971 0.32357 0.45253 0.0
O16 O 0.27939 0.3474 0.37362 0.0
O17 O 0.29253 0.29074 0.44581 0.0
O18 O 0.39719 0.37528 0.41875 0.0
O19 O 0.31855 0.20766 0.37401 0.0
O20 O 0.42284 0.29161 0.34836 0.0
O21 O 0.43636 0.23569 0.42379 0.0
Sc22 Sc 0.17267 0.20437 0.86706 0.0
Sc23 Sc 0.1342 0.21241 0.93545 0.0
Sc24 Sc 0.06816 0.14649 0.8899 0.0
O25 O 0.12433 0.18874 0.89722 0.0
C26 C 0.06438 0.20288 0.83663 0.0
C27 C 0.16442 0.29578 0.89588 0.0
C28 C 0.02016 0.21883 0.93299 0.0
C29 C 0.24402 0.19334 0.92046 0.0
C30 C 0.15979 0.10137 0.85842 0.0
C31 C 0.09695 0.11122 0.94654 0.0
O32 O 0.11287 0.20299 0.83549 0.0
O33 O 0.16547 0.27626 0.91967 0.0
O34 O 0.01874 0.18079 0.92019 0.0
O35 O 0.23683 0.20893 0.89594 0.0
O36 O 0.1119 0.10655 0.86021 0.0
O37 O 0.10295 0.15161 0.95551 0.0
O38 O 0.19013 0.13406 0.86173 0.0
O39 O 0.20772 0.18224 0.93633 0.0
O40 O 0.09668 0.10222 0.92082 0.0
O41 O 0.15641 0.2744 0.87337 0.0
O42 O 0.04023 0.18968 0.858 0.0
O43 O 0.06037 0.24189 0.93481 0.0
Sc44 Sc 0.79964 0.20767 0.61122 0.0
Sc45 Sc 0.88087 0.23321 0.55597 0.0
Sc46 Sc 0.91067 0.14702 0.60092 0.0
O47 O 0.86278 0.19612 0.58924 0.0
C48 C 0.88866 0.19738 0.65622 0.0
C49 C 0.82937 0.30732 0.59656 0.0
C50 C 0.9868 0.22012 0.5761 0.0
C51 C 0.765 0.21778 0.54699 0.0
C52 C 0.80528 0.103 0.61541 0.0
C53 C 0.91064 0.13015 0.53894 0.0
O54 O 0.84127 0.20112 0.65071 0.0
O55 O 0.85083 0.29645 0.5736 0.0
O56 O 0.97698 0.17953 0.58296 0.0
O57 O 0.75501 0.21617 0.57312 0.0
O58 O 0.85301 0.10389 0.61861 0.0
O59 O 0.91346 0.17292 0.53434 0.0
O60 O 0.77951 0.13809 0.60988 0.0
O61 O 0.80975 0.21984 0.53725 0.0
O62 O 0.89842 0.11429 0.56251 0.0
O63 O 0.81355 0.27815 0.61374 0.0
O64 O 0.92116 0.18158 0.63908 0.0
O65 O 0.95192 0.24948 0.57419 0.0
Sc66 Sc 0.56588 0.34351 0.09394 0.0
Sc67 Sc 0.6346 0.27622 0.04919 0.0
Sc68 Sc 0.67178 0.28705 0.11756 0.0
O69 O 0.62327 0.3011 0.08713 0.0
C70 C 0.65608 0.39049 0.12417 0.0
C71 C 0.59798 0.37752 0.03694 0.0
C72 C 0.74392 0.29614 0.06448 0.0
C73 C 0.5201 0.2704 0.05106 0.0
C74 C 0.5632 0.28875 0.14794 0.0
C75 C 0.66624 0.19428 0.09018 0.0
O76 O 0.60833 0.38488 0.12294 0.0
O77 O 0.60455 0.33692 0.02827 0.0
O78 O 0.73668 0.28154 0.08917 0.0
O79 O 0.51762 0.30828 0.06402 0.0
O80 O 0.61164 0.28923 0.14899 0.0
O81 O 0.66591 0.21267 0.06603 0.0
O82 O 0.53872 0.30131 0.12653 0.0
O83 O 0.56084 0.24734 0.04928 0.0
O84 O 0.65799 0.2166 0.11242 0.0
O85 O 0.59348 0.38694 0.06251 0.0
O86 O 0.68719 0.3577 0.12154 0.0
O87 O 0.70772 0.30589 0.04825 0.0
Sc88 Sc 0.56731 0.64685 0.59445 0.0
Sc89 Sc 0.60135 0.72556 0.54628 0.0
Sc90 Sc 0.66839 0.71682 0.60744 0.0
O91 O 0.61293 0.69646 0.58288 0.0
C92 C 0.57317 0.70366 0.64828 0.0
C93 C 0.49321 0.71608 0.56311 0.0
C94 C 0.63734 0.80886 0.58355 0.0
C95 C 0.57767 0.6211 0.53443 0.0
C96 C 0.67431 0.61283 0.61582 0.0
C97 C 0.71656 0.71612 0.54546 0.0
O98 O 0.5458 0.68464 0.63007 0.0
O99 O 0.52798 0.74493 0.56022 0.0
O100 O 0.64246 0.78527 0.60535 0.0
O101 O 0.59 0.60959 0.55885 0.0
O102 O 0.6969 0.64927 0.60995 0.0
O103 O 0.67514 0.70688 0.53344 0.0
O104 O 0.62616 0.61041 0.61721 0.0
O105 O 0.57192 0.66273 0.52767 0.0
O106 O 0.71946 0.7257 0.5715 0.0
O107 O 0.50265 0.67592 0.57166 0.0
O108 O 0.62073 0.71029 0.64486 0.0
O109 O 0.62976 0.79126 0.55968 0.0
Sc110 Sc 0.79708 0.78575 0.11282 0.0
Sc111 Sc 0.84728 0.77308 0.04684 0.0
Sc112 Sc 0.91104 0.83466 0.09603 0.0
O113 O 0.85233 0.79727 0.08539 0.0
C114 C 0.81659 0.88801 0.12146 0.0
C115 C 0.73751 0.79945 0.05561 0.0
C116 C 0.89658 0.87047 0.03701 0.0
C117 C 0.80475 0.69295 0.08549 0.0
C118 C 0.8969 0.78004 0.14987 0.0
C119 C 0.95993 0.75671 0.05665 0.0
O120 O 0.78471 0.85684 0.11708 0.0
O121 O 0.7774 0.80836 0.04206 0.0
O122 O 0.8971 0.87958 0.06272 0.0
O123 O 0.80929 0.71506 0.10802 0.0
O124 O 0.92626 0.7912 0.13015 0.0
O125 O 0.9178 0.73867 0.05082 0.0
O126 O 0.84881 0.78416 0.14823 0.0
O127 O 0.80874 0.71142 0.06146 0.0
O128 O 0.96316 0.79355 0.07063 0.0
O129 O 0.7388 0.78402 0.08043 0.0
O130 O 0.86444 0.88107 0.12082 0.0
O131 O 0.88626 0.83099 0.02779 0.0
Sc132 Sc 0.06668 0.84165 0.38137 0.0
Sc133 Sc 0.12815 0.77771 0.43054 0.0
Sc134 Sc 0.17778 0.78602 0.36425 0.0
O135 O 0.1236 0.80103 0.39191 0.0
C136 C 0.07628 0.78408 0.32839 0.0
C137 C 0.0145 0.76916 0.4223 0.0
C138 C 0.16779 0.69441 0.39196 0.0
C139 C 0.08696 0.8793 0.4396 0.0
C140 C 0.16243 0.88848 0.3551 0.0
C141 C 0.23932 0.79629 0.421 0.0
O142 O 0.04805 0.79722 0.34829 0.0
O143 O 0.05549 0.74818 0.42753 0.0
O144 O 0.16337 0.71633 0.3694 0.0
O145 O 0.08463 0.88733 0.41379 0.0
O146 O 0.19309 0.85614 0.35994 0.0
O147 O 0.20021 0.8082 0.43453 0.0
O148 O 0.11447 0.88331 0.35494 0.0
O149 O 0.09456 0.83943 0.4492 0.0
O150 O 0.23691 0.78119 0.39611 0.0
O151 O 0.01316 0.80574 0.40809 0.0
O152 O 0.12457 0.78639 0.3294 0.0
O153 O 0.16194 0.71299 0.41597 0.0
Sc154 Sc 0.41636 0.64882 0.88435 0.0
Sc155 Sc 0.3702 0.72564 0.9314 0.0
Sc156 Sc 0.30286 0.70298 0.87114 0.0
O157 O 0.36258 0.69274 0.89549 0.0
C158 C 0.39855 0.7007 0.82966 0.0
C159 C 0.47914 0.72683 0.91478 0.0
C160 C 0.31964 0.8007 0.89201 0.0
C161 C 0.41028 0.62528 0.94503 0.0
C162 C 0.31734 0.599 0.86496 0.0
C163 C 0.25694 0.70141 0.93364 0.0
O164 O 0.42975 0.68703 0.84794 0.0
O165 O 0.44043 0.7521 0.9173 0.0
O166 O 0.3146 0.77423 0.87142 0.0
O167 O 0.40117 0.61132 0.92066 0.0
O168 O 0.28784 0.63207 0.87015 0.0
O169 O 0.29995 0.70025 0.94538 0.0
O170 O 0.3651 0.60358 0.86293 0.0
O171 O 0.40893 0.66746 0.95133 0.0
O172 O 0.2515 0.70723 0.90734 0.0
O173 O 0.47562 0.68611 0.90608 0.0
O174 O 0.3504 0.70064 0.83341 0.0
O175 O 0.3326 0.78701 0.91616 0.0
H176 H 0.11755 0.96487 0.37571 0.0
H177 H 0.35438 0.12437 0.35618 0.0
H178 H 0.25552 0.91571 0.33722 0.0
H179 H 0.25236 0.13698 0.42614 0.0
H180 H 0.31465 0.0524 0.34374 0.0
H181 H 0.16029 0.03565 0.38729 0.0
C182 C 0.15635 0.96953 0.36894 0.0
C183 C 0.18311 0.93456 0.3554 0.0
C184 C 0.30157 0.07057 0.36207 0.0
C185 C 0.23216 0.01473 0.36901 0.0
C186 C 0.32442 0.11124 0.36928 0.0
C187 C 0.30688 0.13598 0.39238 0.0
C188 C 0.26 0.05544 0.37761 0.0
C189 C 0.26743 0.11829 0.40848 0.0
C190 C 0.18091 0.00952 0.376 0.0
C191 C 0.23363 0.94198 0.34762 0.0
N192 N 0.24464 0.07927 0.40052 0.0
N193 N 0.25664 0.98134 0.35456 0.0
H194 H 0.13006 0.35923 0.85931 0.0
H195 H 0.36433 0.52088 0.88116 0.0
H196 H 0.23792 0.33868 0.92546 0.0
H197 H 0.22117 0.57309 0.85147 0.0
H198 H 0.32431 0.44777 0.88995 0.0
H199 H 0.16732 0.43355 0.85008 0.0
C200 C 0.16109 0.37075 0.87215 0.0
C201 C 0.18079 0.34313 0.89331 0.0
C202 C 0.30188 0.47519 0.88129 0.0
C203 C 0.22447 0.42688 0.88222 0.0
C204 C 0.32479 0.51664 0.87587 0.0
C205 C 0.29602 0.55298 0.86543 0.0
C206 C 0.25013 0.46984 0.87575 0.0
C207 C 0.24466 0.54587 0.85949 0.0
C208 C 0.18236 0.41294 0.8668 0.0
C209 C 0.22126 0.3593 0.90921 0.0
N210 N 0.22331 0.505 0.86466 0.0
N211 N 0.24231 0.39995 0.90307 0.0
H212 H 0.76831 0.59703 0.59397 0.0
H213 H 0.78185 0.34043 0.64297 0.0
H214 H 0.64962 0.53283 0.64132 0.0
H215 H 0.84844 0.38394 0.56522 0.0
H216 H 0.75047 0.41692 0.65093 0.0
H217 H 0.81399 0.52462 0.59179 0.0
C218 C 0.75228 0.56794 0.60439 0.0
C219 C 0.70495 0.5709 0.61785 0.0
C220 C 0.77233 0.40977 0.63227 0.0
C221 C 0.75723 0.48838 0.61542 0.0
C222 C 0.79051 0.36609 0.62763 0.0
C223 C 0.81726 0.35533 0.60305 0.0
C224 C 0.7814 0.44337 0.61245 0.0
C225 C 0.82763 0.3905 0.58429 0.0
C226 C 0.77825 0.52667 0.6029 0.0
C227 C 0.68583 0.532 0.63067 0.0
N228 N 0.80936 0.43306 0.58931 0.0
N229 N 0.71211 0.49228 0.62915 0.0
H230 H 0.73613 0.1489 0.05833 0.0
H231 H 0.72568 0.91809 0.14209 0.0
H232 H 0.63898 0.1336 0.1301 0.0
H233 H 0.86189 0.96387 0.1014 0.0
H234 H 0.68712 0.99287 0.13439 0.0
H235 H 0.77508 0.07507 0.06866 0.0
C236 C 0.7223 0.12956 0.0759 0.0
C237 C 0.68417 0.14714 0.09334 0.0
C238 C 0.7257 0.98666 0.12754 0.0
C239 C 0.72876 0.06336 0.10538 0.0
C240 C 0.7478 0.9442 0.13208 0.0
C241 C 0.79716 0.93498 0.12258 0.0
C242 C 0.7527 0.01958 0.11275 0.0
C243 C 0.82401 0.96979 0.10941 0.0
C244 C 0.745 0.08786 0.082 0.0
C245 C 0.66829 0.12113 0.11615 0.0
N246 N 0.80112 0.01039 0.10448 0.0
N247 N 0.69053 0.08041 0.12148 0.0
H248 H 0.84384 0.02374 0.59539 0.0
H249 H 0.61133 0.86827 0.62476 0.0
H250 H 0.70804 0.08332 0.63059 0.0
H251 H 0.69693 0.85679 0.54835 0.0
H252 H 0.6503 0.94227 0.6334 0.0
H253 H 0.79674 0.95444 0.58557 0.0
C254 C 0.80443 0.0218 0.60164 0.0
C255 C 0.77974 0.05901 0.614 0.0
C256 C 0.65971 0.9238 0.61453 0.0
C257 C 0.72596 0.98045 0.6026 0.0
C258 C 0.63743 0.88192 0.60953 0.0
C259 C 0.65082 0.85685 0.58573 0.0
C260 C 0.69675 0.93962 0.59608 0.0
C261 C 0.68522 0.87548 0.56674 0.0
C262 C 0.77751 0.98265 0.59563 0.0
C263 C 0.72834 0.05517 0.62112 0.0
N264 N 0.70789 0.91546 0.57261 0.0
N265 N 0.70306 0.01633 0.61548 0.0
H266 H 0.73363 0.64854 0.05464 0.0
H267 H 0.74862 0.41974 0.14179 0.0
H268 H 0.83626 0.63134 0.12357 0.0
H269 H 0.61103 0.46574 0.10217 0.0
H270 H 0.78767 0.49261 0.13091 0.0
H271 H 0.69588 0.57483 0.06578 0.0
C272 C 0.74896 0.62871 0.07165 0.0
C273 C 0.78813 0.6457 0.08817 0.0
C274 C 0.74873 0.48686 0.12492 0.0
C275 C 0.74506 0.56235 0.10119 0.0
C276 C 0.72635 0.44551 0.1313 0.0
C277 C 0.67638 0.43688 0.12312 0.0
C278 C 0.72137 0.51931 0.10967 0.0
C279 C 0.6494 0.47123 0.10924 0.0
C280 C 0.727 0.58713 0.07825 0.0
C281 C 0.80607 0.61925 0.11035 0.0
N282 N 0.67247 0.51076 0.1026 0.0
N283 N 0.78444 0.57883 0.11621 0.0
H284 H 0.34322 0.45911 0.3441 0.0
H285 H 0.15571 0.62261 0.42823 0.0
H286 H 0.2218 0.40692 0.39494 0.0
H287 H 0.22455 0.65968 0.34989 0.0
H288 H 0.18912 0.54494 0.42178 0.0
H289 H 0.30896 0.53578 0.3511 0.0
C290 C 0.30918 0.46372 0.35649 0.0
C291 C 0.28503 0.42657 0.36866 0.0
C292 C 0.19658 0.57031 0.40607 0.0
C293 C 0.24659 0.51392 0.37736 0.0
C294 C 0.17775 0.61445 0.40979 0.0
C295 C 0.18686 0.6474 0.38945 0.0
C296 C 0.22558 0.55977 0.38223 0.0
C297 C 0.21588 0.63519 0.36594 0.0
C298 C 0.28974 0.50738 0.36054 0.0
C299 C 0.24123 0.43454 0.3848 0.0
N300 N 0.23439 0.59253 0.36307 0.0
N301 N 0.22363 0.4774 0.38889 0.0
H302 H 0.11727 0.02548 0.87991 0.0
H303 H 0.34102 0.8548 0.84787 0.0
H304 H 0.25192 0.07277 0.83822 0.0
H305 H 0.25966 0.85243 0.92588 0.0
H306 H 0.30192 0.92861 0.83734 0.0
H307 H 0.16008 0.95319 0.88887 0.0
C308 C 0.15533 0.02022 0.87195 0.0
C309 C 0.1811 0.05506 0.85818 0.0
C310 C 0.29324 0.91209 0.85688 0.0
C311 C 0.23011 0.97283 0.86863 0.0
C312 C 0.31556 0.8703 0.86295 0.0
C313 C 0.30374 0.848 0.88787 0.0
C314 C 0.25767 0.93073 0.87547 0.0
C315 C 0.27019 0.86899 0.90664 0.0
C316 C 0.1799 0.97928 0.87747 0.0
C317 C 0.23077 0.04668 0.84884 0.0
N318 N 0.24758 0.90898 0.89984 0.0
N319 N 0.25374 0.00623 0.85417 0.0
H320 H 0.471 0.35804 0.48652 0.0
H321 H 0.50665 0.62729 0.49302 0.0
H322 H 0.37761 0.45361 0.44168 0.0
H323 H 0.60229 0.5316 0.53644 0.0
H324 H 0.45984 0.56392 0.47306 0.0
H325 H 0.51698 0.42154 0.50714 0.0
C326 C 0.45924 0.39239 0.48171 0.0
C327 C 0.42068 0.40075 0.4624 0.0
C328 C 0.49142 0.55681 0.48675 0.0
C329 C 0.47385 0.4732 0.48496 0.0
C330 C 0.51859 0.59298 0.49779 0.0
C331 C 0.55806 0.58465 0.51657 0.0
C332 C 0.50401 0.5122 0.49455 0.0
C333 C 0.5717 0.53949 0.52224 0.0
C334 C 0.48598 0.4286 0.49306 0.0
C335 C 0.40741 0.44585 0.45642 0.0
N336 N 0.5444 0.50497 0.51151 0.0
N337 N 0.43427 0.48038 0.46744 0.0
H338 H 0.95889 0.85911 -0.00827 0.0
H339 H 0.03709 0.12106 -0.00718 0.0
H340 H 0.88603 0.96135 0.04263 0.0
H341 H 0.10832 0.02025 0.94014 0.0
H342 H 0.98446 0.06187 0.01324 0.0
H343 H 0.01286 0.91779 0.97149 0.0
C344 C 0.95316 0.89409 -0.00205 0.0
C345 C 0.91804 0.90551 0.0188 0.0
C346 C 0.01212 0.05257 -0.00251 0.0
C347 C 0.98061 0.9723 -0.00329 0.0
C348 C 0.04283 0.08625 0.98623 0.0
C349 C 0.07702 0.07548 0.96479 0.0
C350 C 0.01576 0.00797 0.98717 0.0
C351 C 0.0822 0.02993 0.9566 0.0
C352 C 0.98456 0.92745 0.98682 0.0
C353 C 0.91283 0.95121 0.0266 0.0
N354 N 0.0515 -0.00208 0.96758 0.0
N355 N 0.94412 0.98283 0.01577 0.0
H356 H 0.88114 0.04317 0.53284 0.0
H357 H 0.1087 0.96848 0.43334 0.0
H358 H 0.9886 0.13975 0.50118 0.0
H359 H 0.0267 0.87612 0.48595 0.0
H360 H 0.06413 0.03218 0.45544 0.0
H361 H 0.92913 0.98224 0.51059 0.0
C362 C 0.91432 0.05165 0.52062 0.0
C363 C 0.93106 0.09658 0.51894 0.0
C364 C 0.0565 -0.00192 0.46248 0.0
C365 C 0.987 0.02665 0.49396 0.0
C366 C 0.0822 0.96176 0.45009 0.0
C367 C 0.07136 0.91702 0.45794 0.0
C368 C 0.01905 0.98951 0.4825 0.0
C369 C 0.03654 0.91007 0.47953 0.0
C370 C 0.9421 0.01674 0.50826 0.0
C371 C 0.97422 0.10562 0.50282 0.0
N372 N 0.01102 0.94595 0.49078 0.0
N373 N 0.00109 0.07079 0.49111 0.0
H374 H 0.48523 0.63783 0.98376 0.0
H375 H 0.54123 0.37093 0.98979 0.0
H376 H 0.39065 0.53563 0.94681 0.0
H377 H 0.61803 0.46713 0.04219 0.0
H378 H 0.49448 0.43355 0.96829 0.0
H379 H 0.53888 0.57751 0.00336 0.0
C380 C 0.47494 0.60278 0.98049 0.0
C381 C 0.43363 0.59159 0.96363 0.0
C382 C 0.52217 0.44104 0.9842 0.0
C383 C 0.49548 0.5229 0.98487 0.0
C384 C 0.54955 0.40536 -0.00397 0.0
C385 C 0.58324 0.41401 0.01779 0.0
C386 C 0.52877 0.48543 -0.00576 0.0
C387 C 0.59203 0.45921 0.0255 0.0
C388 C 0.50598 0.56842 -0.00877 0.0
C389 C 0.42237 0.54565 0.95961 0.0
N390 N 0.56446 0.49328 0.01398 0.0
N391 N 0.45343 0.51304 0.96986 0.0
H392 H 0.46019 0.29219 0.15563 0.0
H393 H 0.48226 0.24321 0.31814 0.0
H394 H 0.59946 0.25705 0.19771 0.0
H395 H 0.34443 0.2899 0.2791 0.0
H396 H 0.52118 0.23433 0.27245 0.0
H397 H 0.41365 0.2788 0.19878 0.0
C398 C 0.48102 0.28125 0.17385 0.0
C399 C 0.53406 0.27646 0.17313 0.0
C400 C 0.48226 0.24609 0.27376 0.0
C401 C 0.48076 0.26099 0.22255 0.0
C402 C 0.45999 0.25118 0.29985 0.0
C403 C 0.41037 0.26815 0.30238 0.0
C404 C 0.45499 0.25855 0.24993 0.0
C405 C 0.38292 0.27704 0.27803 0.0
C406 C 0.45431 0.2736 0.19847 0.0
C407 C 0.55876 0.26181 0.19734 0.0
N408 N 0.40593 0.27284 0.25273 0.0
N409 N 0.53194 0.25498 0.2211 0.0
H410 H 0.96121 0.20097 0.83028 0.0
H411 H 0.97972 0.23466 0.66625 0.0
H412 H 0.09929 0.23097 0.78565 0.0
H413 H 0.84296 0.19266 0.70792 0.0
H414 H 0.01917 0.24761 0.71117 0.0
H415 H 0.9136 0.21109 0.7873 0.0
C416 C 0.98158 0.21015 0.81153 0.0
C417 C 0.03464 0.21435 0.81152 0.0
C418 C 0.98039 0.23596 0.71063 0.0
C419 C 0.98 0.22604 0.76225 0.0
C420 C 0.95783 0.22851 0.68499 0.0
C421 C 0.90837 0.21169 0.68347 0.0
C422 C 0.95363 0.226 0.73509 0.0
C423 C 0.88133 0.20529 0.70828 0.0
C424 C 0.95422 0.21593 0.787 0.0
C425 C 0.05863 0.22679 0.78663 0.0
N426 N 0.90468 0.21175 0.73321 0.0
N427 N 0.03117 0.23175 0.76296 0.0
H428 H 0.35165 0.70787 0.77865 0.0
H429 H 0.61627 0.72561 0.69872 0.0
H430 H 0.49559 0.72597 0.81949 0.0
H431 H 0.4718 0.71133 0.65779 0.0
H432 H 0.57144 0.73751 0.74293 0.0
H433 H 0.39339 0.72096 0.73377 0.0
C434 C 0.39178 0.71518 0.77821 0.0
C435 C 0.42037 0.71473 0.80273 0.0
C436 C 0.54962 0.73222 0.72417 0.0
C437 C 0.46837 0.72947 0.7517 0.0
C438 C 0.57525 0.72547 0.69896 0.0
C439 C 0.54786 0.71639 0.67467 0.0
C440 C 0.49637 0.7298 0.72497 0.0
C441 C 0.49462 0.71707 0.67613 0.0
C442 C 0.41567 0.72256 0.75263 0.0
C443 C 0.47225 0.72482 0.80101 0.0
N444 N 0.4707 0.72307 0.70087 0.0
N445 N 0.49466 0.7312 0.77594 0.0
H446 H 0.85237 0.77027 0.20135 0.0
H447 H 0.11935 0.76505 0.27738 0.0
H448 H -0.0041 0.75708 0.15844 0.0
H449 H 0.97546 0.76903 0.32057 0.0
H450 H 0.07451 0.75035 0.2339 0.0
H451 H 0.89607 0.75787 0.24551 0.0
C452 C 0.89289 0.76415 0.20116 0.0
C453 C 0.92065 0.76582 0.17625 0.0
C454 C 0.05284 0.75393 0.25298 0.0
C455 C 0.9709 0.75195 0.22658 0.0
C456 C 0.07846 0.76235 0.2778 0.0
C457 C 0.05111 0.76935 0.30254 0.0
C458 C -0.00043 0.75277 0.25295 0.0
C459 C -0.00186 0.76487 0.30189 0.0
C460 C 0.91787 0.75712 0.22637 0.0
C461 C 0.97306 0.75718 0.17721 0.0
N462 N 0.9741 0.75749 0.27745 0.0
N463 N -0.00344 0.75126 0.20199 0.0
H464 H 0.56752 0.301 0.41424 0.0
H465 H 0.66718 0.18744 0.55274 0.0
H466 H 0.4927 0.18684 0.45209 0.0
H467 H 0.76825 0.25241 0.4946 0.0
H468 H 0.59973 0.19169 0.5177 0.0
H469 H 0.6407 0.28701 0.4443 0.0
C470 C 0.56677 0.27252 0.42841 0.0
C471 C 0.52354 0.24546 0.4308 0.0
C472 C 0.63688 0.20467 0.51265 0.0
C473 C 0.60639 0.23013 0.46569 0.0
C474 C 0.67514 0.20255 0.53267 0.0
C475 C 0.72332 0.21951 0.52657 0.0
C476 C 0.64675 0.22472 0.48667 0.0
C477 C 0.73172 0.23862 0.50016 0.0
C478 C 0.60844 0.2647 0.44566 0.0
C479 C 0.52487 0.20897 0.44962 0.0
N480 N 0.69372 0.24108 0.48129 0.0
N481 N 0.56519 0.2029 0.46668 0.0
H482 H 0.95351 0.16357 0.95945 0.0
H483 H 0.78912 0.3561 0.0298 0.0
H484 H -0.00769 0.30429 0.94907 0.0
H485 H 0.8095 0.22504 0.0678 0.0
H486 H 0.85945 0.33896 -0.0021 0.0
H487 H 0.89241 0.18552 -0.0044 0.0
C488 C 0.94835 0.19916 0.96436 0.0
C489 C 0.97755 0.23228 0.95112 0.0
C490 C 0.84926 0.31441 0.01364 0.0
C491 C 0.90868 0.25737 -0.00735 0.0
C492 C 0.80956 0.32431 0.03193 0.0
C493 C 0.79407 0.29202 0.05148 0.0
C494 C 0.87231 0.27145 0.01445 0.0
C495 C 0.82096 0.25101 0.05323 0.0
C496 C 0.91421 0.21155 0.9853 0.0
C497 C 0.97026 0.27781 0.95874 0.0
N498 N 0.85823 0.24144 0.03449 0.0
N499 N 0.93627 0.28911 0.97894 0.0
H500 H 0.0332 0.30167 0.56906 0.0
H501 H 0.17836 0.21592 0.4339 0.0
H502 H 0.04542 0.16017 0.54688 0.0
H503 H 0.22616 0.33534 0.47823 0.0
H504 H 0.11751 0.20052 0.47139 0.0
H505 H 0.09695 0.31909 0.53351 0.0
C506 C 0.05026 0.27419 0.5572 0.0
C507 C 0.03413 0.22945 0.56092 0.0
C508 C 0.14105 0.23032 0.4727 0.0
C509 C 0.10497 0.24932 0.51965 0.0
C510 C 0.175 0.23951 0.45115 0.0
C511 C 0.20693 0.27703 0.45304 0.0
C512 C 0.13869 0.25927 0.49595 0.0
C513 C 0.202 0.30609 0.47609 0.0
C514 C 0.08617 0.28419 0.5368 0.0
C515 C 0.05705 0.1951 0.54486 0.0
N516 N 0.16845 0.29663 0.4967 0.0
N517 N 0.09066 0.20586 0.52453 0.0
H518 H 0.45156 0.32558 0.02536 0.0
H519 H 0.28989 0.13375 0.95555 0.0
H520 H 0.49443 0.18495 0.0344 0.0
H521 H 0.30817 0.26471 0.91742 0.0
H522 H 0.35992 0.15077 0.98721 0.0
H523 H 0.39021 0.30387 0.98975 0.0
C524 C 0.44731 0.29004 0.02027 0.0
C525 C 0.47772 0.25691 0.03301 0.0
C526 C 0.34928 0.17534 0.97152 0.0
C527 C 0.40836 0.23207 -0.00791 0.0
C528 C 0.30972 0.16554 0.95337 0.0
C529 C 0.29375 0.19777 0.93379 0.0
C530 C 0.37176 0.21818 0.97057 0.0
C531 C 0.31994 0.23876 0.932 0.0
C532 C 0.41295 0.2778 -0.00036 0.0
C533 C 0.47147 0.21146 0.02515 0.0
N534 N 0.3571 0.24822 0.95059 0.0
N535 N 0.4372 0.20029 0.00528 0.0
H536 H 0.44319 0.7965 0.55987 0.0
H537 H 0.30465 0.72431 0.41946 0.0
H538 H 0.44041 0.65887 0.52963 0.0
H539 H 0.27472 0.8507 0.46193 0.0
H540 H 0.36314 0.7028 0.45682 0.0
H541 H 0.38426 0.81852 0.52314 0.0
C542 C 0.42883 0.77069 0.54597 0.0
C543 C 0.44639 0.72585 0.54777 0.0
C544 C 0.34428 0.73551 0.45772 0.0
C545 C 0.38099 0.75103 0.50501 0.0
C546 C 0.31183 0.74817 0.43614 0.0
C547 C 0.28522 0.78941 0.43766 0.0
C548 C 0.3502 0.76452 0.48071 0.0
C549 C 0.29478 0.81867 0.46003 0.0
C550 C 0.39581 0.78334 0.52479 0.0
C551 C 0.4273 0.69372 0.52908 0.0
N552 N 0.32626 0.80554 0.4808 0.0
N553 N 0.39618 0.7071 0.50811 0.0
H554 H 0.05987 0.77424 0.06774 0.0
H555 H 0.15566 0.69497 0.91988 0.0
H556 H 0.96332 0.69886 0.01225 0.0
H557 H 0.25643 0.7058 0.99031 0.0
H558 H 0.08334 0.70047 0.95212 0.0
H559 H 0.13273 0.75333 0.03857 0.0
C560 C 0.0541 0.75277 0.04973 0.0
C561 C 0.00544 0.73847 0.04241 0.0
C562 C 0.12146 0.70107 0.96037 0.0
C563 C 0.08808 0.71545 0.00869 0.0
C564 C 0.16263 0.69808 0.94201 0.0
C565 C 0.21221 0.70024 0.95229 0.0
C566 C 0.13017 0.7071 0.98901 0.0
C567 C 0.21899 0.70415 0.98127 0.0
C568 C 0.09559 0.74089 0.03309 0.0
C569 C 0.00014 0.71067 0.01875 0.0
N570 N 0.1785 0.70806 -0.00148 0.0
N571 N 0.04084 0.70071 0.00246 0.0
H572 H 0.91558 0.79347 0.41247 0.0
H573 H 0.81752 0.71162 0.55986 0.0
H574 H 0.00957 0.71319 0.4673 0.0
H575 H 0.71753 0.72982 0.48964 0.0
H576 H 0.8903 0.72002 0.52818 0.0
H577 H 0.8426 0.77736 0.44238 0.0
C578 C 0.92073 0.77203 0.43053 0.0
C579 C 0.96866 0.75467 0.43735 0.0
C580 C 0.85226 0.7218 0.51985 0.0
C581 C 0.88605 0.73717 0.47188 0.0
C582 C 0.81092 0.71725 0.53788 0.0
C583 C 0.76154 0.71984 0.52737 0.0
C584 C 0.84378 0.72991 0.49139 0.0
C585 C 0.75496 0.72718 0.49867 0.0
C586 C 0.87921 0.76294 0.4476 0.0
C587 C 0.97327 0.72715 0.46112 0.0
N588 N 0.79557 0.73233 0.48175 0.0
N589 N 0.93259 0.71975 0.47775 0.0
H590 H 0.66763 0.73248 0.05734 0.0
H591 H 0.51399 0.81227 0.92436 0.0
H592 H 0.70489 0.85663 0.01502 0.0
H593 H 0.54358 0.67165 0.94332 0.0
H594 H 0.57366 0.83413 0.96096 0.0
H595 H 0.60606 0.71573 0.02074 0.0
C596 C 0.66149 0.75695 0.04087 0.0
C597 C 0.69103 0.79603 0.03911 0.0
C598 C 0.56749 0.79853 0.95676 0.0
C599 C 0.6221 0.77666 -0.00287 0.0
C600 C 0.53399 0.78606 0.93576 0.0
C601 C 0.52405 0.74012 0.93078 0.0
C602 C 0.59001 0.76482 0.97322 0.0
C603 C 0.55048 0.70743 0.9463 0.0
C604 C 0.6272 0.74698 0.01977 0.0
C605 C 0.68258 0.82619 0.01703 0.0
N606 N 0.58164 0.72044 0.9672 0.0
N607 N 0.64892 0.8158 -0.00325 0.0
loop_
_geom_bond_atom_site_label_1
_geom_bond_atom_site_label_2
_geom_bond_distance
_geom_bond_site_symmetry_2
_ccdc_geom_bond_type
Sc0 O3 2.025 . S
Sc0 O10 2.105 . S
Sc0 O13 2.105 . S
Sc0 O16 2.105 . S
Sc0 O19 2.105 . S
Sc1 O3 2.025 . S
Sc1 O11 2.105 . S
Sc1 O15 2.105 . S
Sc1 O17 2.105 . S
Sc1 O21 2.105 . S
Sc2 O3 2.025 . S
Sc2 O12 2.105 . S
Sc2 O14 2.105 . S
Sc2 O18 2.105 . S
Sc2 O20 2.105 . S
O3 Sc0 2.025 . S
O3 Sc1 2.025 . S
O3 Sc2 2.025 . S
C4 O10 1.268 . S
C4 O20 1.268 . S
C5 O11 1.268 . S
C5 O19 1.268 . S
C6 O12 1.268 . S
C6 O21 1.268 . S
C7 O13 1.268 . S
C7 O17 1.268 . S
C8 O14 1.268 . S
C8 O16 1.268 . S
C9 O15 1.268 . S
C9 O18 1.268 . S
O10 Sc0 2.105 . S
O10 C4 1.268 . S
O11 Sc1 2.105 . S
O11 C5 1.268 . S
O12 Sc2 2.105 . S
O12 C6 1.268 . S
O13 Sc0 2.105 . S
O13 C7 1.268 . S
O14 Sc2 2.105 . S
O14 C8 1.268 . S
O15 Sc1 2.105 . S
O15 C9 1.268 . S
O16 Sc0 2.105 . S
O16 C8 1.268 . S
O17 Sc1 2.105 . S
O17 C7 1.268 . S
O18 Sc2 2.105 . S
O18 C9 1.268 . S
O19 Sc0 2.105 . S
O19 C5 1.268 . S
O20 Sc2 2.105 . S
O20 C4 1.268 . S
O21 Sc1 2.105 . S
O21 C6 1.268 . S
Sc22 O25 2.025 . S
Sc22 O32 2.105 . S
Sc22 O35 2.105 . S
Sc22 O38 2.105 . S
Sc22 O41 2.105 . S
Sc23 O25 2.025 . S
Sc23 O33 2.105 . S
Sc23 O37 2.105 . S
Sc23 O39 2.105 . S
Sc23 O43 2.105 . S
Sc24 O25 2.025 . S
Sc24 O34 2.104 . S
Sc24 O36 2.105 . S
Sc24 O40 2.105 . S
Sc24 O42 2.105 . S
O25 Sc22 2.025 . S
O25 Sc23 2.025 . S
O25 Sc24 2.025 . S
C26 O32 1.268 . S
C26 O42 1.268 . S
C27 O33 1.268 . S
C27 O41 1.268 . S
C28 O34 1.268 1_655 S
C28 O43 1.268 1_655 S
C29 O35 1.268 . S
C29 O39 1.268 . S
C30 O36 1.268 . S
C30 O38 1.268 . S
C31 O37 1.268 . S
C31 O40 1.268 . S
O32 Sc22 2.105 . S
O32 C26 1.268 . S
O33 Sc23 2.105 . S
O33 C27 1.268 . S
O34 Sc24 2.104 . S
O34 C28 1.268 1_455 S
O35 Sc22 2.105 . S
O35 C29 1.268 . S
O36 Sc24 2.105 . S
O36 C30 1.268 . S
O37 Sc23 2.105 . S
O37 C31 1.268 . S
O38 Sc22 2.105 . S
O38 C30 1.268 . S
O39 Sc23 2.105 . S
O39 C29 1.268 . S
O40 Sc24 2.105 . S
O40 C31 1.268 . S
O41 Sc22 2.105 . S
O41 C27 1.268 . S
O42 Sc24 2.105 . S
O42 C26 1.268 . S
O43 Sc23 2.105 . S
O43 C28 1.268 1_455 S
Sc44 O47 2.025 . S
Sc44 O54 2.105 . S
Sc44 O57 2.105 . S
Sc44 O60 2.105 . S
Sc44 O63 2.105 . S
Sc45 O47 2.025 . S
Sc45 O55 2.105 . S
Sc45 O59 2.105 . S
Sc45 O61 2.105 . S
Sc45 O65 2.105 . S
Sc46 O47 2.025 . S
Sc46 O56 2.104 . S
Sc46 O58 2.105 . S
Sc46 O62 2.105 . S
Sc46 O64 2.105 . S
O47 Sc44 2.025 . S
O47 Sc45 2.025 . S
O47 Sc46 2.025 . S
C48 O54 1.268 . S
C48 O64 1.268 . S
C49 O55 1.268 . S
C49 O63 1.268 . S
C50 O56 1.268 1_455 S
C50 O65 1.268 1_455 S
C51 O57 1.268 . S
C51 O61 1.268 . S
C52 O58 1.268 . S
C52 O60 1.268 . S
C53 O59 1.268 . S
C53 O62 1.268 . S
O54 Sc44 2.105 . S
O54 C48 1.268 . S
O55 Sc45 2.105 . S
O55 C49 1.268 . S
O56 Sc46 2.104 . S
O56 C50 1.268 1_655 S
O57 Sc44 2.105 . S
O57 C51 1.268 . S
O58 Sc46 2.105 . S
O58 C52 1.268 . S
O59 Sc45 2.105 . S
O59 C53 1.268 . S
O60 Sc44 2.105 . S
O60 C52 1.268 . S
O61 Sc45 2.105 . S
O61 C51 1.268 . S
O62 Sc46 2.105 . S
O62 C53 1.268 . S
O63 Sc44 2.105 . S
O63 C49 1.268 . S
O64 Sc46 2.105 . S
O64 C48 1.268 . S
O65 Sc45 2.105 . S
O65 C50 1.268 1_655 S
Sc66 O69 2.025 . S
Sc66 O76 2.105 . S
Sc66 O79 2.105 . S
Sc66 O82 2.105 . S
Sc66 O85 2.105 . S
Sc67 O69 2.025 . S
Sc67 O77 2.105 . S
Sc67 O81 2.105 . S
Sc67 O83 2.105 . S
Sc67 O87 2.105 . S
Sc68 O69 2.025 . S
Sc68 O78 2.105 . S
Sc68 O80 2.105 . S
Sc68 O84 2.105 . S
Sc68 O86 2.105 . S
O69 Sc66 2.025 . S
O69 Sc67 2.025 . S
O69 Sc68 2.025 . S
C70 O76 1.268 . S
C70 O86 1.268 . S
C71 O77 1.268 . S
C71 O85 1.268 . S
C72 O78 1.268 . S
C72 O87 1.268 . S
C73 O79 1.268 . S
C73 O83 1.268 . S
C74 O80 1.268 . S
C74 O82 1.268 . S
C75 O81 1.268 . S
C75 O84 1.268 . S
O76 Sc66 2.105 . S
O76 C70 1.268 . S
O77 Sc67 2.105 . S
O77 C71 1.268 . S
O78 Sc68 2.105 . S
O78 C72 1.268 . S
O79 Sc66 2.105 . S
O79 C73 1.268 . S
O80 Sc68 2.105 . S
O80 C74 1.268 . S
O81 Sc67 2.105 . S
O81 C75 1.268 . S
O82 Sc66 2.105 . S
O82 C74 1.268 . S
O83 Sc67 2.105 . S
O83 C73 1.268 . S
O84 Sc68 2.105 . S
O84 C75 1.268 . S
O85 Sc66 2.105 . S
O85 C71 1.268 . S
O86 Sc68 2.105 . S
O86 C70 1.268 . S
O87 Sc67 2.105 . S
O87 C72 1.268 . S
Sc88 O91 2.025 . S
Sc88 O98 2.105 . S
Sc88 O101 2.105 . S
Sc88 O104 2.105 . S
Sc88 O107 2.105 . S
Sc89 O91 2.025 . S
Sc89 O99 2.105 . S
Sc89 O103 2.105 . S
Sc89 O105 2.105 . S
Sc89 O109 2.105 . S
Sc90 O91 2.025 . S
Sc90 O100 2.105 . S
Sc90 O102 2.105 . S
Sc90 O106 2.105 . S
Sc90 O108 2.105 . S
O91 Sc88 2.025 . S
O91 Sc89 2.025 . S
O91 Sc90 2.025 . S
C92 O98 1.268 . S
C92 O108 1.268 . S
C93 O99 1.268 . S
C93 O107 1.268 . S
C94 O100 1.268 . S
C94 O109 1.268 . S
C95 O101 1.268 . S
C95 O105 1.268 . S
C96 O102 1.268 . S
C96 O104 1.268 . S
C97 O103 1.268 . S
C97 O106 1.268 . S
O98 Sc88 2.105 . S
O98 C92 1.268 . S
O99 Sc89 2.105 . S
O99 C93 1.268 . S
O100 Sc90 2.105 . S
O100 C94 1.268 . S
O101 Sc88 2.105 . S
O101 C95 1.268 . S
O102 Sc90 2.105 . S
O102 C96 1.268 . S
O103 Sc89 2.105 . S
O103 C97 1.268 . S
O104 Sc88 2.105 . S
O104 C96 1.268 . S
O105 Sc89 2.105 . S
O105 C95 1.268 . S
O106 Sc90 2.105 . S
O106 C97 1.268 . S
O107 Sc88 2.105 . S
O107 C93 1.268 . S
O108 Sc90 2.105 . S
O108 C92 1.268 . S
O109 Sc89 2.105 . S
O109 C94 1.268 . S
Sc110 O113 2.025 . S
Sc110 O120 2.105 . S
Sc110 O123 2.105 . S
Sc110 O126 2.105 . S
Sc110 O129 2.105 . S
Sc111 O113 2.025 . S
Sc111 O121 2.105 . S
Sc111 O125 2.105 . S
Sc111 O127 2.105 . S
Sc111 O131 2.105 . S
Sc112 O113 2.025 . S
Sc112 O122 2.105 . S
Sc112 O124 2.105 . S
Sc112 O128 2.104 . S
Sc112 O130 2.105 . S
O113 Sc110 2.025 . S
O113 Sc111 2.025 . S
O113 Sc112 2.025 . S
C114 O120 1.268 . S
C114 O130 1.268 . S
C115 O121 1.268 . S
C115 O129 1.268 . S
C116 O122 1.268 . S
C116 O131 1.268 . S
C117 O123 1.268 . S
C117 O127 1.268 . S
C118 O124 1.268 . S
C118 O126 1.268 . S
C119 O125 1.268 1_455 S
C119 O128 1.268 1_455 S
O120 Sc110 2.105 . S
O120 C114 1.268 . S
O121 Sc111 2.105 . S
O121 C115 1.268 . S
O122 Sc112 2.105 . S
O122 C116 1.268 . S
O123 Sc110 2.105 . S
O123 C117 1.268 . S
O124 Sc112 2.105 . S
O124 C118 1.268 . S
O125 Sc111 2.105 . S
O125 C119 1.268 1_655 S
O126 Sc110 2.105 . S
O126 C118 1.268 . S
O127 Sc111 2.105 . S
O127 C117 1.268 . S
O128 Sc112 2.104 . S
O128 C119 1.268 1_655 S
O129 Sc110 2.105 . S
O129 C115 1.268 . S
O130 Sc112 2.105 . S
O130 C114 1.268 . S
O131 Sc111 2.105 . S
O131 C116 1.268 . S
Sc132 O135 2.025 . S
Sc132 O142 2.105 . S
Sc132 O145 2.105 . S
Sc132 O148 2.105 . S
Sc132 O151 2.104 . S
Sc133 O135 2.025 . S
Sc133 O143 2.105 . S
Sc133 O147 2.105 . S
Sc133 O149 2.105 . S
Sc133 O153 2.105 . S
Sc134 O135 2.025 . S
Sc134 O144 2.105 . S
Sc134 O146 2.105 . S
Sc134 O150 2.105 . S
Sc134 O152 2.105 . S
O135 Sc132 2.025 . S
O135 Sc133 2.025 . S
O135 Sc134 2.025 . S
C136 O142 1.268 . S
C136 O152 1.268 . S
C137 O143 1.268 1_655 S
C137 O151 1.268 1_655 S
C138 O144 1.268 . S
C138 O153 1.268 . S
C139 O145 1.268 . S
C139 O149 1.268 . S
C140 O146 1.268 . S
C140 O148 1.268 . S
C141 O147 1.268 . S
C141 O150 1.268 . S
O142 Sc132 2.105 . S
O142 C136 1.268 . S
O143 Sc133 2.105 . S
O143 C137 1.268 1_455 S
O144 Sc134 2.105 . S
O144 C138 1.268 . S
O145 Sc132 2.105 . S
O145 C139 1.268 . S
O146 Sc134 2.105 . S
O146 C140 1.268 . S
O147 Sc133 2.105 . S
O147 C141 1.268 . S
O148 Sc132 2.105 . S
O148 C140 1.268 . S
O149 Sc133 2.105 . S
O149 C139 1.268 . S
O150 Sc134 2.105 . S
O150 C141 1.268 . S
O151 Sc132 2.104 . S
O151 C137 1.268 1_455 S
O152 Sc134 2.105 . S
O152 C136 1.268 . S
O153 Sc133 2.105 . S
O153 C138 1.268 . S
Sc154 O157 2.025 . S
Sc154 O164 2.105 . S
Sc154 O167 2.105 . S
Sc154 O170 2.105 . S
Sc154 O173 2.105 . S
Sc155 O157 2.025 . S
Sc155 O165 2.105 . S
Sc155 O169 2.105 . S
Sc155 O171 2.105 . S
Sc155 O175 2.105 . S
Sc156 O157 2.025 . S
Sc156 O166 2.105 . S
Sc156 O168 2.105 . S
Sc156 O172 2.105 . S
Sc156 O174 2.105 . S
O157 Sc154 2.025 . S
O157 Sc155 2.025 . S
O157 Sc156 2.025 . S
C158 O164 1.268 . S
C158 O174 1.268 . S
C159 O165 1.268 . S
C159 O173 1.268 . S
C160 O166 1.268 . S
C160 O175 1.268 . S
C161 O167 1.268 . S
C161 O171 1.268 . S
C162 O168 1.268 . S
C162 O170 1.268 . S
C163 O169 1.268 . S
C163 O172 1.268 . S
O164 Sc154 2.105 . S
O164 C158 1.268 . S
O165 Sc155 2.105 . S
O165 C159 1.268 . S
O166 Sc156 2.105 . S
O166 C160 1.268 . S
O167 Sc154 2.105 . S
O167 C161 1.268 . S
O168 Sc156 2.105 . S
O168 C162 1.268 . S
O169 Sc155 2.105 . S
O169 C163 1.268 . S
O170 Sc154 2.105 . S
O170 C162 1.268 . S
O171 Sc155 2.105 . S
O171 C161 1.268 . S
O172 Sc156 2.105 . S
O172 C163 1.268 . S
O173 Sc154 2.105 . S
O173 C159 1.268 . S
O174 Sc156 2.105 . S
O174 C158 1.268 . S
O175 Sc155 2.105 . S
O175 C160 1.268 . S
H176 C182 0.930 . S
H177 C186 0.930 . S
H178 C191 0.929 . S
H179 C189 0.929 . S
H180 C184 0.929 . S
H181 C190 0.929 . S
C182 H176 0.930 . S
C182 C183 1.367 . S
C182 C190 1.378 1_565 S
C183 C182 1.367 . S
C183 C191 1.433 . S
C184 H180 0.929 . S
C184 C186 1.378 . S
C184 C188 1.350 . S
C185 C188 1.463 . S
C185 C190 1.350 . S
C185 N193 1.427 1_545 S
C186 H177 0.930 . S
C186 C184 1.378 . S
C186 C187 1.367 . S
C187 C186 1.367 . S
C187 C189 1.433 . S
C188 C184 1.350 . S
C188 C185 1.463 . S
C188 N192 1.427 . S
C189 H179 0.929 . S
C189 C187 1.433 . S
C189 N192 1.384 . S
C190 H181 0.929 . S
C190 C182 1.378 1_545 S
C190 C185 1.350 . S
C191 H178 0.929 . S
C191 C183 1.433 . S
C191 N193 1.384 . S
N192 C188 1.427 . S
N192 C189 1.384 . S
N193 C185 1.427 1_565 S
N193 C191 1.384 . S
H194 C200 0.930 . S
H195 C204 0.930 . S
H196 C209 0.929 . S
H197 C207 0.929 . S
H198 C202 0.929 . S
H199 C208 0.929 . S
C200 H194 0.930 . S
C200 C201 1.367 . S
C200 C208 1.378 . S
C201 C200 1.367 . S
C201 C209 1.433 . S
C202 H198 0.929 . S
C202 C204 1.378 . S
C202 C206 1.350 . S
C203 C206 1.463 . S
C203 C208 1.350 . S
C203 N211 1.427 . S
C204 H195 0.930 . S
C204 C202 1.378 . S
C204 C205 1.367 . S
C205 C204 1.367 . S
C205 C207 1.433 . S
C206 C202 1.350 . S
C206 C203 1.463 . S
C206 N210 1.427 . S
C207 H197 0.929 . S
C207 C205 1.433 . S
C207 N210 1.384 . S
C208 H199 0.929 . S
C208 C200 1.378 . S
C208 C203 1.350 . S
C209 H196 0.929 . S
C209 C201 1.433 . S
C209 N211 1.384 . S
N210 C206 1.427 . S
N210 C207 1.384 . S
N211 C203 1.427 . S
N211 C209 1.384 . S
H212 C218 0.930 . S
H213 C222 0.930 . S
H214 C227 0.929 . S
H215 C225 0.929 . S
H216 C220 0.929 . S
H217 C226 0.929 . S
C218 H212 0.930 . S
C218 C219 1.367 . S
C218 C226 1.378 . S
C219 C218 1.367 . S
C219 C227 1.433 . S
C220 H216 0.929 . S
C220 C222 1.378 . S
C220 C224 1.350 . S
C221 C224 1.463 . S
C221 C226 1.350 . S
C221 N229 1.427 . S
C222 H213 0.930 . S
C222 C220 1.378 . S
C222 C223 1.367 . S
C223 C222 1.367 . S
C223 C225 1.433 . S
C224 C220 1.350 . S
C224 C221 1.463 . S
C224 N228 1.427 . S
C225 H215 0.929 . S
C225 C223 1.433 . S
C225 N228 1.384 . S
C226 H217 0.929 . S
C226 C218 1.378 . S
C226 C221 1.350 . S
C227 H214 0.929 . S
C227 C219 1.433 . S
C227 N229 1.384 . S
N228 C224 1.427 . S
N228 C225 1.384 . S
N229 C221 1.427 . S
N229 C227 1.384 . S
H230 C236 0.930 . S
H231 C240 0.930 . S
H232 C245 0.929 . S
H233 C243 0.929 . S
H234 C238 0.929 . S
H235 C244 0.929 . S
C236 H230 0.930 . S
C236 C237 1.367 . S
C236 C244 1.378 . S
C237 C236 1.367 . S
C237 C245 1.433 . S
C238 H234 0.929 . S
C238 C240 1.378 1_545 S
C238 C242 1.350 . S
C239 C242 1.463 . S
C239 C244 1.350 . S
C239 N247 1.427 . S
C240 H231 0.930 . S
C240 C238 1.378 1_565 S
C240 C241 1.367 . S
C241 C240 1.367 . S
C241 C243 1.433 . S
C242 C238 1.350 . S
C242 C239 1.463 . S
C242 N246 1.427 . S
C243 H233 0.929 . S
C243 C241 1.433 . S
C243 N246 1.384 1_565 S
C244 H235 0.929 . S
C244 C236 1.378 . S
C244 C239 1.350 . S
C245 H232 0.929 . S
C245 C237 1.433 . S
C245 N247 1.384 . S
N246 C242 1.427 . S
N246 C243 1.384 1_545 S
N247 C239 1.427 . S
N247 C245 1.384 . S
H248 C254 0.930 . S
H249 C258 0.930 . S
H250 C263 0.929 . S
H251 C261 0.929 . S
H252 C256 0.929 . S
H253 C262 0.929 . S
C254 H248 0.930 . S
C254 C255 1.367 . S
C254 C262 1.378 1_545 S
C255 C254 1.367 . S
C255 C263 1.433 . S
C256 H252 0.929 . S
C256 C258 1.378 . S
C256 C260 1.350 . S
C257 C260 1.463 . S
C257 C262 1.350 . S
C257 N265 1.427 . S
C258 H249 0.930 . S
C258 C256 1.378 . S
C258 C259 1.367 . S
C259 C258 1.367 . S
C259 C261 1.433 . S
C260 C256 1.350 . S
C260 C257 1.463 . S
C260 N264 1.427 . S
C261 H251 0.929 . S
C261 C259 1.433 . S
C261 N264 1.384 . S
C262 H253 0.929 . S
C262 C254 1.378 1_565 S
C262 C257 1.350 . S
C263 H250 0.929 . S
C263 C255 1.433 . S
C263 N265 1.384 1_545 S
N264 C260 1.427 . S
N264 C261 1.384 . S
N265 C257 1.427 . S
N265 C263 1.384 1_565 S
H266 C272 0.930 . S
H267 C276 0.930 . S
H268 C281 0.929 . S
H269 C279 0.929 . S
H270 C274 0.929 . S
H271 C280 0.929 . S
C272 H266 0.930 . S
C272 C273 1.367 . S
C272 C280 1.378 . S
C273 C272 1.367 . S
C273 C281 1.433 . S
C274 H270 0.929 . S
C274 C276 1.378 . S
C274 C278 1.350 . S
C275 C278 1.463 . S
C275 C280 1.350 . S
C275 N283 1.427 . S
C276 H267 0.930 . S
C276 C274 1.378 . S
C276 C277 1.367 . S
C277 C276 1.367 . S
C277 C279 1.433 . S
C278 C274 1.350 . S
C278 C275 1.463 . S
C278 N282 1.427 . S
C279 H269 0.929 . S
C279 C277 1.433 . S
C279 N282 1.384 . S
C280 H271 0.929 . S
C280 C272 1.378 . S
C280 C275 1.350 . S
C281 H268 0.929 . S
C281 C273 1.433 . S
C281 N283 1.384 . S
N282 C278 1.427 . S
N282 C279 1.384 . S
N283 C275 1.427 . S
N283 C281 1.384 . S
H284 C290 0.930 . S
H285 C294 0.930 . S
H286 C299 0.929 . S
H287 C297 0.929 . S
H288 C292 0.929 . S
H289 C298 0.929 . S
C290 H284 0.930 . S
C290 C291 1.367 . S
C290 C298 1.378 . S
C291 C290 1.367 . S
C291 C299 1.433 . S
C292 H288 0.929 . S
C292 C294 1.378 . S
C292 C296 1.350 . S
C293 C296 1.463 . S
C293 C298 1.350 . S
C293 N301 1.427 . S
C294 H285 0.930 . S
C294 C292 1.378 . S
C294 C295 1.367 . S
C295 C294 1.367 . S
C295 C297 1.433 . S
C296 C292 1.350 . S
C296 C293 1.463 . S
C296 N300 1.427 . S
C297 H287 0.929 . S
C297 C295 1.433 . S
C297 N300 1.384 . S
C298 H289 0.929 . S
C298 C290 1.378 . S
C298 C293 1.350 . S
C299 H286 0.929 . S
C299 C291 1.433 . S
C299 N301 1.384 . S
N300 C296 1.427 . S
N300 C297 1.384 . S
N301 C293 1.427 . S
N301 C299 1.384 . S
H302 C308 0.930 . S
H303 C312 0.930 . S
H304 C317 0.929 . S
H305 C315 0.929 . S
H306 C310 0.929 . S
H307 C316 0.929 . S
C308 H302 0.930 . S
C308 C309 1.367 . S
C308 C316 1.378 1_545 S
C309 C308 1.367 . S
C309 C317 1.433 . S
C310 H306 0.929 . S
C310 C312 1.378 . S
C310 C314 1.350 . S
C311 C314 1.463 . S
C311 C316 1.350 . S
C311 N319 1.427 1_565 S
C312 H303 0.930 . S
C312 C310 1.378 . S
C312 C313 1.367 . S
C313 C312 1.367 . S
C313 C315 1.433 . S
C314 C310 1.350 . S
C314 C311 1.463 . S
C314 N318 1.427 . S
C315 H305 0.929 . S
C315 C313 1.433 . S
C315 N318 1.384 . S
C316 H307 0.929 . S
C316 C308 1.378 1_565 S
C316 C311 1.350 . S
C317 H304 0.929 . S
C317 C309 1.433 . S
C317 N319 1.384 . S
N318 C314 1.427 . S
N318 C315 1.384 . S
N319 C311 1.427 1_545 S
N319 C317 1.384 . S
H320 C326 0.930 . S
H321 C330 0.930 . S
H322 C335 0.929 . S
H323 C333 0.929 . S
H324 C328 0.929 . S
H325 C334 0.929 . S
C326 H320 0.930 . S
C326 C327 1.367 . S
C326 C334 1.378 . S
C327 C326 1.367 . S
C327 C335 1.433 . S
C328 H324 0.929 . S
C328 C330 1.378 . S
C328 C332 1.350 . S
C329 C332 1.463 . S
C329 C334 1.350 . S
C329 N337 1.427 . S
C330 H321 0.930 . S
C330 C328 1.378 . S
C330 C331 1.367 . S
C331 C330 1.367 . S
C331 C333 1.433 . S
C332 C328 1.350 . S
C332 C329 1.463 . S
C332 N336 1.427 . S
C333 H323 0.929 . S
C333 C331 1.433 . S
C333 N336 1.384 . S
C334 H325 0.929 . S
C334 C326 1.378 . S
C334 C329 1.350 . S
C335 H322 0.929 . S
C335 C327 1.433 . S
C335 N337 1.384 . S
N336 C332 1.427 . S
N336 C333 1.384 . S
N337 C329 1.427 . S
N337 C335 1.384 . S
H338 C344 0.930 . S
H339 C348 0.930 . S
H340 C353 0.929 . S
H341 C351 0.929 . S
H342 C346 0.929 . S
H343 C352 0.929 . S
C344 H338 0.930 . S
C344 C345 1.367 1_556 S
C344 C352 1.378 . S
C345 C344 1.367 1_554 S
C345 C353 1.433 . S
C346 H342 0.929 . S
C346 C348 1.378 . S
C346 C350 1.350 1_554 S
C347 C350 1.463 1_664 S
C347 C352 1.350 1_554 S
C347 N355 1.427 . S
C348 H339 0.930 . S
C348 C346 1.378 . S
C348 C349 1.367 1_554 S
C349 C348 1.367 1_556 S
C349 C351 1.433 . S
C350 C346 1.350 1_556 S
C350 C347 1.463 1_446 S
C350 N354 1.427 . S
C351 H341 0.929 . S
C351 C349 1.433 . S
C351 N354 1.384 . S
C352 H343 0.929 . S
C352 C344 1.378 . S
C352 C347 1.350 1_556 S
C353 H340 0.929 . S
C353 C345 1.433 . S
C353 N355 1.384 . S
N354 C350 1.427 . S
N354 C351 1.384 . S
N355 C347 1.427 . S
N355 C353 1.384 . S
H356 C362 0.930 . S
H357 C366 0.930 . S
H358 C371 0.929 . S
H359 C369 0.929 . S
H360 C364 0.929 1_545 S
H361 C370 0.929 1_565 S
C362 H356 0.930 . S
C362 C363 1.367 . S
C362 C370 1.378 . S
C363 C362 1.367 . S
C363 C371 1.433 . S
C364 H360 0.929 1_565 S
C364 C366 1.378 . S
C364 C368 1.350 . S
C365 C368 1.463 1_645 S
C365 C370 1.350 . S
C365 N373 1.427 . S
C366 H357 0.930 . S
C366 C364 1.378 . S
C366 C367 1.367 . S
C367 C366 1.367 . S
C367 C369 1.433 . S
C368 C364 1.350 . S
C368 C365 1.463 1_465 S
C368 N372 1.427 . S
C369 H359 0.929 . S
C369 C367 1.433 . S
C369 N372 1.384 . S
C370 H361 0.929 1_545 S
C370 C362 1.378 . S
C370 C365 1.350 . S
C371 H358 0.929 . S
C371 C363 1.433 . S
C371 N373 1.384 . S
N372 C368 1.427 . S
N372 C369 1.384 . S
N373 C365 1.427 . S
N373 C371 1.384 . S
H374 C380 0.930 . S
H375 C384 0.930 . S
H376 C389 0.929 . S
H377 C387 0.929 . S
H378 C382 0.929 . S
H379 C388 0.929 . S
C380 H374 0.930 . S
C380 C381 1.367 . S
C380 C388 1.378 . S
C381 C380 1.367 . S
C381 C389 1.433 . S
C382 H378 0.929 . S
C382 C384 1.378 . S
C382 C386 1.350 . S
C383 C386 1.463 1_556 S
C383 C388 1.350 . S
C383 N391 1.427 . S
C384 H375 0.930 . S
C384 C382 1.378 . S
C384 C385 1.367 . S
C385 C384 1.367 . S
C385 C387 1.433 . S
C386 C382 1.350 . S
C386 C383 1.463 1_554 S
C386 N390 1.427 . S
C387 H377 0.929 . S
C387 C385 1.433 . S
C387 N390 1.384 . S
C388 H379 0.929 . S
C388 C380 1.378 . S
C388 C383 1.350 . S
C389 H376 0.929 . S
C389 C381 1.433 . S
C389 N391 1.384 . S
N390 C386 1.427 . S
N390 C387 1.384 . S
N391 C383 1.427 . S
N391 C389 1.384 . S
H392 C398 0.930 . S
H393 C402 0.930 . S
H394 C407 0.929 . S
H395 C405 0.929 . S
H396 C400 0.929 . S
H397 C406 0.929 . S
C398 H392 0.930 . S
C398 C399 1.367 . S
C398 C406 1.378 . S
C399 C398 1.367 . S
C399 C407 1.433 . S
C400 H396 0.929 . S
C400 C402 1.378 . S
C400 C404 1.350 . S
C401 C404 1.463 . S
C401 C406 1.350 . S
C401 N409 1.427 . S
C402 H393 0.930 . S
C402 C400 1.378 . S
C402 C403 1.367 . S
C403 C402 1.367 . S
C403 C405 1.433 . S
C404 C400 1.350 . S
C404 C401 1.463 . S
C404 N408 1.427 . S
C405 H395 0.929 . S
C405 C403 1.433 . S
C405 N408 1.384 . S
C406 H397 0.929 . S
C406 C398 1.378 . S
C406 C401 1.350 . S
C407 H394 0.929 . S
C407 C399 1.433 . S
C407 N409 1.384 . S
N408 C404 1.427 . S
N408 C405 1.384 . S
N409 C401 1.427 . S
N409 C407 1.384 . S
H410 C416 0.930 . S
H411 C420 0.930 . S
H412 C425 0.929 . S
H413 C423 0.929 . S
H414 C418 0.929 1_455 S
H415 C424 0.929 1_655 S
C416 H410 0.930 . S
C416 C417 1.367 . S
C416 C424 1.378 . S
C417 C416 1.367 . S
C417 C425 1.433 . S
C418 H414 0.929 1_655 S
C418 C420 1.378 . S
C418 C422 1.350 . S
C419 C422 1.463 1_455 S
C419 C424 1.350 . S
C419 N427 1.427 . S
C420 H411 0.930 . S
C420 C418 1.378 . S
C420 C421 1.367 . S
C421 C420 1.367 . S
C421 C423 1.433 . S
C422 C418 1.350 . S
C422 C419 1.463 1_655 S
C422 N426 1.427 . S
C423 H413 0.929 . S
C423 C421 1.433 . S
C423 N426 1.384 . S
C424 H415 0.929 1_455 S
C424 C416 1.378 . S
C424 C419 1.350 . S
C425 H412 0.929 . S
C425 C417 1.433 . S
C425 N427 1.384 . S
N426 C422 1.427 . S
N426 C423 1.384 . S
N427 C419 1.427 . S
N427 C425 1.384 . S
H428 C434 0.930 . S
H429 C438 0.930 . S
H430 C443 0.929 . S
H431 C441 0.929 . S
H432 C436 0.929 . S
H433 C442 0.929 . S
C434 H428 0.930 . S
C434 C435 1.367 . S
C434 C442 1.378 . S
C435 C434 1.367 . S
C435 C443 1.433 . S
C436 H432 0.929 . S
C436 C438 1.378 . S
C436 C440 1.350 . S
C437 C440 1.463 . S
C437 C442 1.350 . S
C437 N445 1.427 . S
C438 H429 0.930 . S
C438 C436 1.378 . S
C438 C439 1.367 . S
C439 C438 1.367 . S
C439 C441 1.433 . S
C440 C436 1.350 . S
C440 C437 1.463 . S
C440 N444 1.427 . S
C441 H431 0.929 . S
C441 C439 1.433 . S
C441 N444 1.384 . S
C442 H433 0.929 . S
C442 C434 1.378 . S
C442 C437 1.350 . S
C443 H430 0.929 . S
C443 C435 1.433 . S
C443 N445 1.384 . S
N444 C440 1.427 . S
N444 C441 1.384 . S
N445 C437 1.427 . S
N445 C443 1.384 . S
H446 C452 0.930 . S
H447 C456 0.930 . S
H448 C461 0.929 . S
H449 C459 0.929 . S
H450 C454 0.929 . S
H451 C460 0.929 . S
C452 H446 0.930 . S
C452 C453 1.367 . S
C452 C460 1.378 . S
C453 C452 1.367 . S
C453 C461 1.433 . S
C454 H450 0.929 . S
C454 C456 1.378 . S
C454 C458 1.350 . S
C455 C458 1.463 1_655 S
C455 C460 1.350 . S
C455 N463 1.427 . S
C456 H447 0.930 . S
C456 C454 1.378 . S
C456 C457 1.367 . S
C457 C456 1.367 . S
C457 C459 1.433 . S
C458 C454 1.350 . S
C458 C455 1.463 1_455 S
C458 N462 1.427 . S
C459 H449 0.929 . S
C459 C457 1.433 . S
C459 N462 1.384 . S
C460 H451 0.929 . S
C460 C452 1.378 . S
C460 C455 1.350 . S
C461 H448 0.929 . S
C461 C453 1.433 . S
C461 N463 1.384 . S
N462 C458 1.427 . S
N462 C459 1.384 . S
N463 C455 1.427 . S
N463 C461 1.384 . S
H464 C470 0.930 . S
H465 C474 0.930 . S
H466 C479 0.929 . S
H467 C477 0.929 . S
H468 C472 0.929 . S
H469 C478 0.929 . S
C470 H464 0.930 . S
C470 C471 1.367 . S
C470 C478 1.378 . S
C471 C470 1.367 . S
C471 C479 1.433 . S
C472 H468 0.929 . S
C472 C474 1.378 . S
C472 C476 1.350 . S
C473 C476 1.463 . S
C473 C478 1.350 . S
C473 N481 1.427 . S
C474 H465 0.930 . S
C474 C472 1.378 . S
C474 C475 1.367 . S
C475 C474 1.367 . S
C475 C477 1.433 . S
C476 C472 1.350 . S
C476 C473 1.463 . S
C476 N480 1.427 . S
C477 H467 0.929 . S
C477 C475 1.433 . S
C477 N480 1.384 . S
C478 H469 0.929 . S
C478 C470 1.378 . S
C478 C473 1.350 . S
C479 H466 0.929 . S
C479 C471 1.433 . S
C479 N481 1.384 . S
N480 C476 1.427 . S
N480 C477 1.384 . S
N481 C473 1.427 . S
N481 C479 1.384 . S
H482 C488 0.930 . S
H483 C492 0.936 . S
H484 C497 0.929 . S
H485 C495 0.929 . S
H486 C490 0.929 . S
H487 C496 0.929 1_554 S
C488 H482 0.930 . S
C488 C489 1.367 . S
C488 C496 1.378 . S
C489 C488 1.367 . S
C489 C497 1.433 . S
C490 H486 0.929 . S
C490 C492 1.378 1_556 S
C490 C494 1.350 . S
C491 C494 1.463 . S
C491 C496 1.350 . S
C491 N499 1.427 . S
C492 H483 0.936 . S
C492 C490 1.378 1_554 S
C492 C493 1.367 . S
C493 C492 1.367 . S
C493 C495 1.433 . S
C494 C490 1.350 . S
C494 C491 1.463 . S
C494 N498 1.427 1_556 S
C495 H485 0.929 . S
C495 C493 1.433 . S
C495 N498 1.384 . S
C496 H487 0.929 1_556 S
C496 C488 1.378 . S
C496 C491 1.350 . S
C497 H484 0.929 . S
C497 C489 1.433 . S
C497 N499 1.384 . S
N498 C494 1.427 1_554 S
N498 C495 1.384 . S
N499 C491 1.427 . S
N499 C497 1.384 . S
H500 C506 0.930 . S
H501 C510 0.930 . S
H502 C515 0.929 . S
H503 C513 0.929 . S
H504 C508 0.929 . S
H505 C514 0.929 . S
C506 H500 0.930 . S
C506 C507 1.367 . S
C506 C514 1.378 . S
C507 C506 1.367 . S
C507 C515 1.433 . S
C508 H504 0.929 . S
C508 C510 1.378 . S
C508 C512 1.350 . S
C509 C512 1.463 . S
C509 C514 1.350 . S
C509 N517 1.427 . S
C510 H501 0.930 . S
C510 C508 1.378 . S
C510 C511 1.367 . S
C511 C510 1.367 . S
C511 C513 1.433 . S
C512 C508 1.350 . S
C512 C509 1.463 . S
C512 N516 1.427 . S
C513 H503 0.929 . S
C513 C511 1.433 . S
C513 N516 1.384 . S
C514 H505 0.929 . S
C514 C506 1.378 . S
C514 C509 1.350 . S
C515 H502 0.929 . S
C515 C507 1.433 . S
C515 N517 1.384 . S
N516 C512 1.427 . S
N516 C513 1.384 . S
N517 C509 1.427 . S
N517 C515 1.384 . S
H518 C524 0.930 . S
H519 C528 0.930 . S
H520 C533 0.929 . S
H521 C531 0.929 . S
H522 C526 0.929 . S
H523 C532 0.929 . S
C524 H518 0.930 . S
C524 C525 1.367 . S
C524 C532 1.378 . S
C525 C524 1.367 . S
C525 C533 1.433 . S
C526 H522 0.929 . S
C526 C528 1.378 1_554 S
C526 C530 1.350 . S
C527 C530 1.463 . S
C527 C532 1.350 . S
C527 N535 1.427 . S
C528 H519 0.930 . S
C528 C526 1.378 1_556 S
C528 C529 1.367 . S
C529 C528 1.367 . S
C529 C531 1.433 . S
C530 C526 1.350 . S
C530 C527 1.463 . S
C530 N534 1.427 1_554 S
C531 H521 0.929 . S
C531 C529 1.433 . S
C531 N534 1.384 . S
C532 H523 0.929 . S
C532 C524 1.378 . S
C532 C527 1.350 . S
C533 H520 0.929 . S
C533 C525 1.433 . S
C533 N535 1.384 . S
N534 C530 1.427 1_556 S
N534 C531 1.384 . S
N535 C527 1.427 . S
N535 C533 1.384 . S
H536 C542 0.930 . S
H537 C546 0.930 . S
H538 C551 0.929 . S
H539 C549 0.929 . S
H540 C544 0.929 . S
H541 C550 0.929 . S
C542 H536 0.930 . S
C542 C543 1.367 . S
C542 C550 1.378 . S
C543 C542 1.367 . S
C543 C551 1.433 . S
C544 H540 0.929 . S
C544 C546 1.378 . S
C544 C548 1.350 . S
C545 C548 1.463 . S
C545 C550 1.350 . S
C545 N553 1.427 . S
C546 H537 0.930 . S
C546 C544 1.378 . S
C546 C547 1.367 . S
C547 C546 1.367 . S
C547 C549 1.433 . S
C548 C544 1.350 . S
C548 C545 1.463 . S
C548 N552 1.427 . S
C549 H539 0.929 . S
C549 C547 1.433 . S
C549 N552 1.384 . S
C550 H541 0.929 . S
C550 C542 1.378 . S
C550 C545 1.350 . S
C551 H538 0.929 . S
C551 C543 1.433 . S
C551 N553 1.384 . S
N552 C548 1.427 . S
N552 C549 1.384 . S
N553 C545 1.427 . S
N553 C551 1.384 . S
H554 C560 0.930 . S
H555 C564 0.930 . S
H556 C569 0.929 1_655 S
H557 C567 0.929 . S
H558 C562 0.929 . S
H559 C568 0.929 . S
C560 H554 0.930 . S
C560 C561 1.367 . S
C560 C568 1.378 . S
C561 C560 1.367 . S
C561 C569 1.433 . S
C562 H558 0.929 . S
C562 C564 1.378 . S
C562 C566 1.350 1_556 S
C563 C566 1.463 . S
C563 C568 1.350 . S
C563 N571 1.427 . S
C564 H555 0.930 . S
C564 C562 1.378 . S
C564 C565 1.367 . S
C565 C564 1.367 . S
C565 C567 1.433 . S
C566 C562 1.350 1_554 S
C566 C563 1.463 . S
C566 N570 1.427 . S
C567 H557 0.929 . S
C567 C565 1.433 . S
C567 N570 1.384 1_556 S
C568 H559 0.929 . S
C568 C560 1.378 . S
C568 C563 1.350 . S
C569 H556 0.929 1_455 S
C569 C561 1.433 . S
C569 N571 1.384 . S
N570 C566 1.427 . S
N570 C567 1.384 1_554 S
N571 C563 1.427 . S
N571 C569 1.384 . S
H572 C578 0.930 . S
H573 C582 0.930 . S
H574 C587 0.929 1_455 S
H575 C585 0.929 . S
H576 C580 0.929 . S
H577 C586 0.929 . S
C578 H572 0.930 . S
C578 C579 1.367 . S
C578 C586 1.378 . S
C579 C578 1.367 . S
C579 C587 1.433 . S
C580 H576 0.929 . S
C580 C582 1.378 . S
C580 C584 1.350 . S
C581 C584 1.463 . S
C581 C586 1.350 . S
C581 N589 1.427 . S
C582 H573 0.930 . S
C582 C580 1.378 . S
C582 C583 1.367 . S
C583 C582 1.367 . S
C583 C585 1.433 . S
C584 C580 1.350 . S
C584 C581 1.463 . S
C584 N588 1.427 . S
C585 H575 0.929 . S
C585 C583 1.433 . S
C585 N588 1.384 . S
C586 H577 0.929 . S
C586 C578 1.378 . S
C586 C581 1.350 . S
C587 H574 0.929 1_655 S
C587 C579 1.433 . S
C587 N589 1.384 . S
N588 C584 1.427 . S
N588 C585 1.384 . S
N589 C581 1.427 . S
N589 C587 1.384 . S
H590 C596 0.930 . S
H591 C600 0.930 . S
H592 C605 0.929 . S
H593 C603 0.929 . S
H594 C598 0.929 . S
H595 C604 0.929 . S
C596 H590 0.930 . S
C596 C597 1.367 . S
C596 C604 1.378 . S
C597 C596 1.367 . S
C597 C605 1.433 . S
C598 H594 0.929 . S
C598 C600 1.378 . S
C598 C602 1.350 . S
C599 C602 1.463 . S
C599 C604 1.350 1_556 S
C599 N607 1.427 . S
C600 H591 0.930 . S
C600 C598 1.378 . S
C600 C601 1.367 . S
C601 C600 1.367 . S
C601 C603 1.433 . S
C602 C598 1.350 . S
C602 C599 1.463 . S
C602 N606 1.427 . S
C603 H593 0.929 . S
C603 C601 1.433 . S
C603 N606 1.384 . S
C604 H595 0.929 . S
C604 C596 1.378 . S
C604 C599 1.350 1_554 S
C605 H592 0.929 . S
C605 C597 1.433 . S
C605 N607 1.384 1_554 S
N606 C602 1.427 . S
N606 C603 1.384 . S
N607 C599 1.427 . S
N607 C605 1.384 1_556 S
C183 C140 1.634 . S
C187 C5 1.553 . S
C201 C27 1.553 . S
C205 C162 1.633 . S
C219 C96 1.632 . S
C223 C49 1.543 . S
C237 C75 1.541 . S
C241 C114 1.635 . S
C255 C52 1.632 . S
C259 C94 1.550 . S
C273 C117 1.539 . S
C277 C70 1.634 . S
C291 C8 1.635 . S
C295 C138 1.549 . S
C309 C30 1.633 . S
C313 C160 1.553 . S
C327 C9 1.108 . S
C331 C95 1.108 . S
C345 C116 1.116 . S
C349 C31 1.116 . S
C363 C53 1.101 . S
C367 C139 1.101 . S
C381 C161 1.097 . S
C385 C71 1.097 . S
C399 C74 1.524 . S
C403 C4 1.532 . S
C417 C26 1.523 . S
C421 C48 1.533 . S
C435 C158 1.526 . S
C439 C92 1.530 . S
C453 C118 1.523 . S
C457 C136 1.533 . S
C471 C6 1.340 . S
C475 C51 1.406 . S
C489 C28 1.317 . S
C493 C72 1.404 . S
C507 C50 1.341 . S
C511 C7 1.403 . S
C525 C73 1.318 . S
C529 C29 1.410 . S
C543 C93 1.332 . S
C547 C141 1.396 . S
C561 C119 1.339 . S
C565 C163 1.407 . S
C579 C137 1.338 . S
C583 C97 1.408 . S
C597 C115 1.403 . S
C601 C159 1.341 . S
