# Generated by pormake.
# Topology lta, (4)-cn, num edge types: 1
# Building blocks:
#     Node 0, Type 0, BuildingBlock: TATPOV_clean_sbu_0, # of connection points: 4
#     Node 1, Type 0, BuildingBlock: TATPOV_clean_sbu_0, # of connection points: 4
#     Node 2, Type 0, BuildingBlock: TATPOV_clean_sbu_0, # of connection points: 4
#     Node 3, Type 0, BuildingBlock: TATPOV_clean_sbu_0, # of connection points: 4
#     Node 4, Type 0, BuildingBlock: TATPOV_clean_sbu_0, # of connection points: 4
#     Node 5, Type 0, BuildingBlock: TATPOV_clean_sbu_0, # of connection points: 4
#     Node 6, Type 0, BuildingBlock: TATPOV_clean_sbu_0, # of connection points: 4
#     Node 7, Type 0, BuildingBlock: TATPOV_clean_sbu_0, # of connection points: 4
#     Node 8, Type 0, BuildingBlock: TATPOV_clean_sbu_0, # of connection points: 4
#     Node 9, Type 0, BuildingBlock: TATPOV_clean_sbu_0, # of connection points: 4
#     Node 10, Type 0, BuildingBlock: TATPOV_clean_sbu_0, # of connection points: 4
#     Node 11, Type 0, BuildingBlock: TATPOV_clean_sbu_0, # of connection points: 4
#     Node 12, Type 0, BuildingBlock: TATPOV_clean_sbu_0, # of connection points: 4
#     Node 13, Type 0, BuildingBlock: TATPOV_clean_sbu_0, # of connection points: 4
#     Node 14, Type 0, BuildingBlock: TATPOV_clean_sbu_0, # of connection points: 4
#     Node 15, Type 0, BuildingBlock: TATPOV_clean_sbu_0, # of connection points: 4
#     Node 16, Type 0, BuildingBlock: TATPOV_clean_sbu_0, # of connection points: 4
#     Node 17, Type 0, BuildingBlock: TATPOV_clean_sbu_0, # of connection points: 4
#     Node 18, Type 0, BuildingBlock: TATPOV_clean_sbu_0, # of connection points: 4
#     Node 19, Type 0, BuildingBlock: TATPOV_clean_sbu_0, # of connection points: 4
#     Node 20, Type 0, BuildingBlock: TATPOV_clean_sbu_0, # of connection points: 4
#     Node 21, Type 0, BuildingBlock: TATPOV_clean_sbu_0, # of connection points: 4
#     Node 22, Type 0, BuildingBlock: TATPOV_clean_sbu_0, # of connection points: 4
#     Node 23, Type 0, BuildingBlock: TATPOV_clean_sbu_0, # of connection points: 4
#     Edge 24, Type (0, 0), BuildingBlock: ZUJKAS_clean_linker_0, # of connection points: 2
#     Edge 25, Type (0, 0), BuildingBlock: ZUJKAS_clean_linker_0, # of connection points: 2
#     Edge 26, Type (0, 0), BuildingBlock: ZUJKAS_clean_linker_0, # of connection points: 2
#     Edge 27, Type (0, 0), BuildingBlock: ZUJKAS_clean_linker_0, # of connection points: 2
#     Edge 28, Type (0, 0), BuildingBlock: ZUJKAS_clean_linker_0, # of connection points: 2
#     Edge 29, Type (0, 0), BuildingBlock: ZUJKAS_clean_linker_0, # of connection points: 2
#     Edge 30, Type (0, 0), BuildingBlock: ZUJKAS_clean_linker_0, # of connection points: 2
#     Edge 31, Type (0, 0), BuildingBlock: ZUJKAS_clean_linker_0, # of connection points: 2
#     Edge 32, Type (0, 0), BuildingBlock: ZUJKAS_clean_linker_0, # of connection points: 2
#     Edge 33, Type (0, 0), BuildingBlock: ZUJKAS_clean_linker_0, # of connection points: 2
#     Edge 34, Type (0, 0), BuildingBlock: ZUJKAS_clean_linker_0, # of connection points: 2
#     Edge 35, Type (0, 0), BuildingBlock: ZUJKAS_clean_linker_0, # of connection points: 2
#     Edge 36, Type (0, 0), BuildingBlock: ZUJKAS_clean_linker_0, # of connection points: 2
#     Edge 37, Type (0, 0), BuildingBlock: ZUJKAS_clean_linker_0, # of connection points: 2
#     Edge 38, Type (0, 0), BuildingBlock: ZUJKAS_clean_linker_0, # of connection points: 2
#     Edge 39, Type (0, 0), BuildingBlock: ZUJKAS_clean_linker_0, # of connection points: 2
#     Edge 40, Type (0, 0), BuildingBlock: ZUJKAS_clean_linker_0, # of connection points: 2
#     Edge 41, Type (0, 0), BuildingBlock: ZUJKAS_clean_linker_0, # of connection points: 2
#     Edge 42, Type (0, 0), BuildingBlock: ZUJKAS_clean_linker_0, # of connection points: 2
#     Edge 43, Type (0, 0), BuildingBlock: ZUJKAS_clean_linker_0, # of connection points: 2
#     Edge 44, Type (0, 0), BuildingBlock: ZUJKAS_clean_linker_0, # of connection points: 2
#     Edge 45, Type (0, 0), BuildingBlock: ZUJKAS_clean_linker_0, # of connection points: 2
#     Edge 46, Type (0, 0), BuildingBlock: ZUJKAS_clean_linker_0, # of connection points: 2
#     Edge 47, Type (0, 0), BuildingBlock: ZUJKAS_clean_linker_0, # of connection points: 2
#     Edge 48, Type (0, 0), BuildingBlock: ZUJKAS_clean_linker_0, # of connection points: 2
#     Edge 49, Type (0, 0), BuildingBlock: ZUJKAS_clean_linker_0, # of connection points: 2
#     Edge 50, Type (0, 0), BuildingBlock: ZUJKAS_clean_linker_0, # of connection points: 2
#     Edge 51, Type (0, 0), BuildingBlock: ZUJKAS_clean_linker_0, # of connection points: 2
#     Edge 52, Type (0, 0), BuildingBlock: ZUJKAS_clean_linker_0, # of connection points: 2
#     Edge 53, Type (0, 0), BuildingBlock: ZUJKAS_clean_linker_0, # of connection points: 2
#     Edge 54, Type (0, 0), BuildingBlock: ZUJKAS_clean_linker_0, # of connection points: 2
#     Edge 55, Type (0, 0), BuildingBlock: ZUJKAS_clean_linker_0, # of connection points: 2
#     Edge 56, Type (0, 0), BuildingBlock: ZUJKAS_clean_linker_0, # of connection points: 2
#     Edge 57, Type (0, 0), BuildingBlock: ZUJKAS_clean_linker_0, # of connection points: 2
#     Edge 58, Type (0, 0), BuildingBlock: ZUJKAS_clean_linker_0, # of connection points: 2
#     Edge 59, Type (0, 0), BuildingBlock: ZUJKAS_clean_linker_0, # of connection points: 2
#     Edge 60, Type (0, 0), BuildingBlock: ZUJKAS_clean_linker_0, # of connection points: 2
#     Edge 61, Type (0, 0), BuildingBlock: ZUJKAS_clean_linker_0, # of connection points: 2
#     Edge 62, Type (0, 0), BuildingBlock: ZUJKAS_clean_linker_0, # of connection points: 2
#     Edge 63, Type (0, 0), BuildingBlock: ZUJKAS_clean_linker_0, # of connection points: 2
#     Edge 64, Type (0, 0), BuildingBlock: ZUJKAS_clean_linker_0, # of connection points: 2
#     Edge 65, Type (0, 0), BuildingBlock: ZUJKAS_clean_linker_0, # of connection points: 2
#     Edge 66, Type (0, 0), BuildingBlock: ZUJKAS_clean_linker_0, # of connection points: 2
#     Edge 67, Type (0, 0), BuildingBlock: ZUJKAS_clean_linker_0, # of connection points: 2
#     Edge 68, Type (0, 0), BuildingBlock: ZUJKAS_clean_linker_0, # of connection points: 2
#     Edge 69, Type (0, 0), BuildingBlock: ZUJKAS_clean_linker_0, # of connection points: 2
#     Edge 70, Type (0, 0), BuildingBlock: ZUJKAS_clean_linker_0, # of connection points: 2
#     Edge 71, Type (0, 0), BuildingBlock: ZUJKAS_clean_linker_0, # of connection points: 2
# Relax obj value: 0.190
# Max RMSD: 0.074
# Mean RMSD: 0.074
data_MOF--net-lta--node1-TATPOV_clean_sbu_0--edge1-ZUJKAS_clean_linker_0
_symmetry_space_group_name_H-M    P1
_symmetry_Int_Tables_number       1
_symmetry_cell_setting            triclinic
loop_
_symmetry_equiv_pos_as_xyz
'x, y, z'
_cell_length_a     72.758782
_cell_length_b     72.776481
_cell_length_c     72.799287
_cell_angle_alpha  90.029984
_cell_angle_beta   89.966517
_cell_angle_gamma 90.022521
loop_
_atom_site_label
_atom_site_type_symbol
_atom_site_fract_x
_atom_site_fract_y
_atom_site_fract_z
_atom_type_partial_charge
Zn0 Zn 0.0952 0.32794 0.52153 0.0
Zn1 Zn 0.11999 0.30176 0.51818 0.0
O2 O 0.12529 0.31773 0.49538 0.0
O3 O 0.10535 0.34019 0.49882 0.0
O4 O 0.139 0.28195 0.51637 0.0
O5 O 0.10487 0.33493 0.54624 0.0
O6 O 0.12674 0.31433 0.54287 0.0
C7 C 0.11836 0.33283 0.48989 0.0
C8 C 0.07874 0.29248 0.51825 0.0
O9 O 0.09544 0.28725 0.5173 0.0
O10 O 0.075 0.30938 0.51993 0.0
C11 C 0.14093 0.2725 0.50182 0.0
O12 O 0.13009 0.27568 0.48774 0.0
C13 C 0.11915 0.32706 0.55223 0.0
Zn14 Zn 0.6495 0.11205 0.50153 0.0
Zn15 Zn 0.67676 0.13441 0.50514 0.0
O16 O 0.667 0.14006 0.47891 0.0
O17 O 0.6471 0.11769 0.47483 0.0
O18 O 0.69783 0.15216 0.50736 0.0
O19 O 0.63455 0.12597 0.51993 0.0
O20 O 0.6597 0.14122 0.52705 0.0
C21 C 0.65583 0.13136 0.46859 0.0
C22 C 0.68248 0.09309 0.51018 0.0
O23 O 0.68932 0.10903 0.50778 0.0
O24 O 0.66524 0.09084 0.50949 0.0
C25 C 0.7125 0.14904 0.4984 0.0
O26 O 0.71354 0.1342 0.48817 0.0
C27 C 0.64289 0.1373 0.53013 0.0
Zn28 Zn 0.89035 0.65875 0.5065 0.0
Zn29 Zn 0.86834 0.68721 0.5062 0.0
O30 O 0.86473 0.67612 0.48032 0.0
O31 O 0.88598 0.65465 0.47958 0.0
O32 O 0.85114 0.70871 0.50568 0.0
O33 O 0.8742 0.64614 0.52492 0.0
O34 O 0.858 0.67153 0.52759 0.0
C35 C 0.87341 0.66364 0.47163 0.0
C36 C 0.90945 0.69199 0.51432 0.0
O37 O 0.89389 0.69899 0.51041 0.0
O38 O 0.91133 0.6747 0.51473 0.0
C39 C 0.85341 0.72307 0.51535 0.0
O40 O 0.86767 0.72418 0.52637 0.0
C41 C 0.8614 0.65509 0.53255 0.0
Zn42 Zn 0.34194 0.89702 0.50602 0.0
Zn43 Zn 0.31502 0.87404 0.51111 0.0
O44 O 0.32894 0.86296 0.48893 0.0
O45 O 0.35384 0.88004 0.48781 0.0
O46 O 0.29424 0.8562 0.51429 0.0
O47 O 0.34871 0.89563 0.53272 0.0
O48 O 0.32908 0.87282 0.53584 0.0
C49 C 0.34461 0.86652 0.48195 0.0
C50 C 0.30727 0.91361 0.49915 0.0
O51 O 0.30141 0.89845 0.50565 0.0
O52 O 0.32433 0.91615 0.49696 0.0
C53 C 0.28268 0.85482 0.50128 0.0
O54 O 0.28474 0.86517 0.48663 0.0
C55 C 0.34167 0.88307 0.54247 0.0
Zn56 Zn 0.10095 0.65687 0.49047 0.0
Zn57 Zn 0.12357 0.68436 0.4882 0.0
O58 O 0.13366 0.66925 0.51004 0.0
O59 O 0.11729 0.64391 0.50848 0.0
O60 O 0.14146 0.7053 0.4871 0.0
O61 O 0.10345 0.65191 0.4635 0.0
O62 O 0.12608 0.67196 0.46264 0.0
C63 C 0.13018 0.65306 0.51572 0.0
C64 C 0.08348 0.69084 0.4989 0.0
O65 O 0.09878 0.69736 0.49341 0.0
O66 O 0.0812 0.67363 0.4999 0.0
C67 C 0.14266 0.71592 0.50091 0.0
O68 O 0.13195 0.713 0.51516 0.0
C69 C 0.11629 0.65975 0.45476 0.0
Zn70 Zn 0.34676 0.0987 0.48608 0.0
Zn71 Zn 0.32085 0.1234 0.48442 0.0
O72 O 0.33177 0.12749 0.51036 0.0
O73 O 0.35088 0.10421 0.51275 0.0
O74 O 0.30063 0.14209 0.48347 0.0
O75 O 0.36135 0.11211 0.46702 0.0
O76 O 0.33783 0.13061 0.46265 0.0
C77 C 0.34309 0.11806 0.51981 0.0
C78 C 0.312 0.08258 0.47866 0.0
O79 O 0.3066 0.099 0.48144 0.0
O80 O 0.32899 0.07889 0.47877 0.0
C81 C 0.28771 0.14076 0.49514 0.0
O82 O 0.28819 0.12737 0.50724 0.0
C83 C 0.35391 0.12516 0.45828 0.0
Zn84 Zn 0.9079 0.33533 0.48351 0.0
Zn85 Zn 0.88011 0.31222 0.48375 0.0
O86 O 0.8775 0.32538 0.5088 0.0
O87 O 0.90141 0.34387 0.50899 0.0
O88 O 0.85915 0.29423 0.48427 0.0
O89 O 0.8977 0.34792 0.46141 0.0
O90 O 0.87438 0.32864 0.46109 0.0
C91 C 0.88728 0.33746 0.51687 0.0
C92 C 0.92007 0.2985 0.47965 0.0
O93 O 0.90295 0.29515 0.4814 0.0
O94 O 0.92578 0.31491 0.47983 0.0
C95 C 0.86007 0.28047 0.49497 0.0
O96 O 0.87468 0.27841 0.50536 0.0
C97 C 0.88295 0.34227 0.45413 0.0
Zn98 Zn 0.65304 0.89856 0.48661 0.0
Zn99 Zn 0.68218 0.87758 0.48527 0.0
O100 O 0.66754 0.86729 0.50729 0.0
O101 O 0.64149 0.88251 0.50591 0.0
O102 O 0.70447 0.86141 0.4854 0.0
O103 O 0.64828 0.89376 0.45986 0.0
O104 O 0.67023 0.87295 0.45987 0.0
C105 C 0.65136 0.87024 0.51329 0.0
C106 C 0.68588 0.91858 0.49397 0.0
O107 O 0.69336 0.90339 0.48954 0.0
O108 O 0.66855 0.91993 0.49456 0.0
C109 C 0.71364 0.8607 0.50023 0.0
O110 O 0.70832 0.8707 0.5143 0.0
C111 C 0.65716 0.88124 0.45167 0.0
Zn112 Zn 0.52046 0.08969 0.32908 0.0
Zn113 Zn 0.51746 0.11399 0.30203 0.0
O114 O 0.49418 0.11904 0.31727 0.0
O115 O 0.49596 0.09825 0.33912 0.0
O116 O 0.51563 0.1321 0.28143 0.0
O117 O 0.5441 0.10144 0.3371 0.0
O118 O 0.5416 0.12174 0.31483 0.0
C119 C 0.48746 0.11139 0.3315 0.0
C120 C 0.51969 0.07255 0.2938 0.0
O121 O 0.51763 0.08905 0.28829 0.0
O122 O 0.5215 0.0692 0.31076 0.0
C123 C 0.5004 0.13548 0.2736 0.0
O124 O 0.4855 0.12688 0.27909 0.0
C125 C 0.55032 0.11523 0.32854 0.0
Zn126 Zn 0.90512 0.5177 0.33463 0.0
Zn127 Zn 0.88007 0.51583 0.30843 0.0
O128 O 0.8737 0.49322 0.32424 0.0
O129 O 0.89406 0.49518 0.34648 0.0
O130 O 0.86099 0.51508 0.28868 0.0
O131 O 0.89666 0.54283 0.34176 0.0
O132 O 0.87497 0.541 0.32078 0.0
C133 C 0.88056 0.48704 0.33911 0.0
C134 C 0.92116 0.51381 0.29896 0.0
O135 O 0.90442 0.51356 0.29383 0.0
O136 O 0.92508 0.51542 0.31582 0.0
C137 C 0.86022 0.50169 0.27752 0.0
O138 O 0.87216 0.48824 0.27905 0.0
C139 C 0.883 0.54982 0.33361 0.0
Zn140 Zn 0.48101 0.89368 0.33816 0.0
Zn141 Zn 0.48245 0.86852 0.31199 0.0
O142 O 0.50679 0.86419 0.32582 0.0
O143 O 0.505 0.88425 0.34837 0.0
O144 O 0.48328 0.84953 0.29208 0.0
O145 O 0.45713 0.88353 0.34717 0.0
O146 O 0.45891 0.8615 0.32651 0.0
C147 C 0.51356 0.87147 0.34022 0.0
C148 C 0.4808 0.9096 0.3023 0.0
O149 O 0.48151 0.89284 0.29728 0.0
O150 O 0.48058 0.91364 0.31921 0.0
C151 C 0.4966 0.84947 0.28079 0.0
O152 O 0.50961 0.86188 0.28247 0.0
C153 C 0.45058 0.86916 0.3399 0.0
Zn154 Zn 0.0936 0.48446 0.34231 0.0
Zn155 Zn 0.12035 0.48253 0.31831 0.0
O156 O 0.1231 0.50871 0.32911 0.0
O157 O 0.09886 0.51116 0.34699 0.0
O158 O 0.14055 0.48189 0.29957 0.0
O159 O 0.10582 0.46519 0.35765 0.0
O160 O 0.12686 0.46137 0.33626 0.0
C161 C 0.11309 0.51822 0.33989 0.0
C162 C 0.08031 0.47611 0.30651 0.0
O163 O 0.09715 0.47853 0.30232 0.0
O164 O 0.07526 0.47713 0.32312 0.0
C165 C 0.14074 0.49449 0.2875 0.0
O166 O 0.12783 0.50711 0.28783 0.0
C167 C 0.11985 0.45682 0.35167 0.0
Zn168 Zn 0.52092 0.90813 0.66263 0.0
Zn169 Zn 0.5183 0.88137 0.68727 0.0
O170 O 0.4941 0.87869 0.67283 0.0
O171 O 0.49649 0.90034 0.65188 0.0
O172 O 0.51686 0.86125 0.70597 0.0
O173 O 0.54432 0.89727 0.65295 0.0
O174 O 0.54157 0.87438 0.6725 0.0
C175 C 0.48757 0.8872 0.65901 0.0
C176 C 0.52151 0.92163 0.6996 0.0
O177 O 0.51998 0.90463 0.70349 0.0
O178 O 0.52213 0.92671 0.68298 0.0
C179 C 0.50195 0.85768 0.71433 0.0
O180 O 0.48716 0.86732 0.71057 0.0
C181 C 0.55021 0.88228 0.65947 0.0
Zn182 Zn 0.10391 0.50132 0.65023 0.0
Zn183 Zn 0.12587 0.50381 0.67893 0.0
O184 O 0.13496 0.48022 0.66605 0.0
O185 O 0.11847 0.47979 0.64075 0.0
O186 O 0.14257 0.50583 0.70065 0.0
O187 O 0.11063 0.52703 0.64267 0.0
O188 O 0.1311 0.52788 0.66489 0.0
C189 C 0.13094 0.47286 0.65069 0.0
C190 C 0.08444 0.49847 0.68428 0.0
O191 O 0.10026 0.5018 0.69099 0.0
O192 O 0.08244 0.49695 0.66707 0.0
C193 C 0.14621 0.49181 0.71037 0.0
O194 O 0.13881 0.47591 0.70606 0.0
C195 C 0.12343 0.53533 0.65104 0.0
Zn196 Zn 0.48178 0.08707 0.67187 0.0
Zn197 Zn 0.48188 0.11516 0.6947 0.0
O198 O 0.50556 0.11951 0.67973 0.0
O199 O 0.50689 0.09456 0.66265 0.0
O200 O 0.48171 0.13634 0.71227 0.0
O201 O 0.45872 0.09641 0.66002 0.0
O202 O 0.45806 0.11928 0.6798 0.0
C203 C 0.51385 0.10963 0.66789 0.0
C204 C 0.4806 0.07537 0.70907 0.0
O205 O 0.4823 0.09254 0.71216 0.0
O206 O 0.47948 0.06952 0.69275 0.0
C207 C 0.49463 0.13828 0.72384 0.0
O208 O 0.50809 0.12625 0.72408 0.0
C209 C 0.45094 0.11062 0.66635 0.0
Zn210 Zn 0.89466 0.49928 0.65264 0.0
Zn211 Zn 0.87182 0.49469 0.6798 0.0
O212 O 0.86083 0.51697 0.66593 0.0
O213 O 0.8781 0.51801 0.64115 0.0
O214 O 0.85438 0.49171 0.70091 0.0
O215 O 0.89227 0.47268 0.64576 0.0
O216 O 0.87004 0.46979 0.66606 0.0
C217 C 0.86457 0.52396 0.65033 0.0
C218 C 0.91204 0.50516 0.68703 0.0
O219 O 0.89659 0.49946 0.69298 0.0
O220 O 0.91451 0.50731 0.66996 0.0
C221 C 0.85269 0.50493 0.71218 0.0
O222 O 0.86241 0.51994 0.7096 0.0
C223 C 0.87986 0.46304 0.65322 0.0
Zn224 Zn 0.33394 0.50253 0.09904 0.0
Zn225 Zn 0.31011 0.5058 0.1257 0.0
O226 O 0.32171 0.48032 0.13045 0.0
O227 O 0.33865 0.47619 0.10577 0.0
O228 O 0.29146 0.50765 0.14589 0.0
O229 O 0.34941 0.52242 0.1102 0.0
O230 O 0.32757 0.52785 0.13042 0.0
C231 C 0.33223 0.47019 0.12078 0.0
C232 C 0.29799 0.50936 0.08552 0.0
O233 O 0.29389 0.50752 0.10243 0.0
O234 O 0.31462 0.50883 0.08046 0.0
C235 C 0.27947 0.49501 0.14703 0.0
O236 O 0.27986 0.48147 0.13509 0.0
C237 C 0.34312 0.53186 0.12338 0.0
Zn238 Zn 0.33027 0.49987 0.90757 0.0
Zn239 Zn 0.30499 0.49627 0.88157 0.0
O240 O 0.31821 0.52029 0.87414 0.0
O241 O 0.33929 0.52304 0.89564 0.0
O242 O 0.28575 0.49357 0.86216 0.0
O243 O 0.34093 0.47525 0.90048 0.0
O244 O 0.32075 0.47303 0.87811 0.0
C245 C 0.33155 0.52908 0.8813 0.0
C246 C 0.29381 0.50077 0.92202 0.0
O247 O 0.2894 0.49789 0.90533 0.0
O248 O 0.31053 0.50222 0.92656 0.0
C249 C 0.27571 0.50722 0.85802 0.0
O250 O 0.27818 0.52291 0.86661 0.0
C251 C 0.33447 0.46658 0.88684 0.0
Zn252 Zn 0.50684 0.34585 0.89546 0.0
Zn253 Zn 0.50693 0.3201 0.87077 0.0
O254 O 0.48453 0.33611 0.86343 0.0
O255 O 0.48762 0.35995 0.88174 0.0
O256 O 0.50692 0.30027 0.85166 0.0
O257 O 0.53355 0.35098 0.89117 0.0
O258 O 0.53255 0.33218 0.86753 0.0
C259 C 0.47927 0.35195 0.86876 0.0
C260 C 0.4991 0.31076 0.91091 0.0
O261 O 0.50315 0.30534 0.89477 0.0
O262 O 0.49882 0.32775 0.91461 0.0
C263 C 0.49311 0.28965 0.85049 0.0
O264 O 0.47914 0.29214 0.86167 0.0
C265 C 0.54129 0.34374 0.87738 0.0
Zn266 Zn 0.6609 0.50868 0.90109 0.0
Zn267 Zn 0.68691 0.51101 0.87645 0.0
O268 O 0.67628 0.48497 0.87224 0.0
O269 O 0.65723 0.48189 0.8955 0.0
O270 O 0.70675 0.5123 0.85741 0.0
O271 O 0.64611 0.52774 0.88775 0.0
O272 O 0.66964 0.53244 0.86933 0.0
C273 C 0.66513 0.47517 0.88153 0.0
C274 C 0.69564 0.51705 0.91716 0.0
O275 O 0.70122 0.51446 0.90077 0.0
O276 O 0.67864 0.5163 0.92078 0.0
C277 C 0.71953 0.50041 0.85761 0.0
O278 O 0.71952 0.48775 0.87048 0.0
C279 C 0.65351 0.53664 0.87477 0.0
Zn280 Zn 0.48663 0.66132 0.89893 0.0
Zn281 Zn 0.48632 0.68712 0.87373 0.0
O282 O 0.51166 0.67482 0.87001 0.0
O283 O 0.51314 0.65576 0.89339 0.0
O284 O 0.48612 0.70693 0.85467 0.0
O285 O 0.46676 0.64775 0.88537 0.0
O286 O 0.46427 0.67094 0.86616 0.0
C287 C 0.52053 0.66305 0.87944 0.0
C288 C 0.48037 0.69681 0.91434 0.0
O289 O 0.48331 0.70185 0.89784 0.0
O290 O 0.48015 0.67988 0.91832 0.0
C291 C 0.50017 0.71699 0.85224 0.0
O292 O 0.51487 0.71424 0.86236 0.0
C293 C 0.45888 0.65527 0.87182 0.0
Zn294 Zn 0.65994 0.47941 0.09769 0.0
Zn295 Zn 0.68644 0.4823 0.12236 0.0
O296 O 0.67046 0.50491 0.12828 0.0
O297 O 0.64761 0.5017 0.10873 0.0
O298 O 0.70654 0.48372 0.14104 0.0
O299 O 0.6537 0.45419 0.10653 0.0
O300 O 0.6745 0.4571 0.12829 0.0
C301 C 0.65521 0.51046 0.12171 0.0
C302 C 0.69533 0.48372 0.08114 0.0
O303 O 0.70066 0.48412 0.09781 0.0
O304 O 0.67842 0.48198 0.07743 0.0
C305 C 0.7176 0.49722 0.14136 0.0
O306 O 0.71563 0.51052 0.12932 0.0
C307 C 0.66196 0.44776 0.12039 0.0
Zn308 Zn 0.51068 0.6611 0.08704 0.0
Zn309 Zn 0.51105 0.68511 0.11432 0.0
O310 O 0.48666 0.67144 0.1188 0.0
O311 O 0.48562 0.65242 0.09532 0.0
O312 O 0.51162 0.70362 0.1347 0.0
O313 O 0.53366 0.64935 0.09661 0.0
O314 O 0.53428 0.6694 0.11926 0.0
C315 C 0.47837 0.65897 0.10973 0.0
C316 C 0.51259 0.69791 0.07403 0.0
O317 O 0.5114 0.70164 0.09109 0.0
O318 O 0.51297 0.68137 0.0687 0.0
C319 C 0.49878 0.71537 0.13598 0.0
O320 O 0.48533 0.71502 0.12394 0.0
C321 C 0.5413 0.6557 0.11088 0.0
Zn322 Zn 0.49231 0.34173 0.10031 0.0
Zn323 Zn 0.48987 0.31346 0.1227 0.0
O324 O 0.51541 0.32419 0.12893 0.0
O325 O 0.51855 0.34573 0.10798 0.0
O326 O 0.48794 0.29191 0.13962 0.0
O327 O 0.47187 0.35443 0.11382 0.0
O328 O 0.46779 0.32953 0.13045 0.0
C329 C 0.52507 0.33662 0.12127 0.0
C330 C 0.48608 0.30806 0.08114 0.0
O331 O 0.48789 0.30128 0.09716 0.0
O332 O 0.48658 0.32529 0.07886 0.0
C333 C 0.50133 0.28081 0.14105 0.0
O334 O 0.51627 0.28371 0.13132 0.0
C335 C 0.46299 0.34577 0.126 0.0
H336 H 0.14359 0.42921 0.34098 0.0
H337 H 0.1541 0.40308 0.35981 0.0
H338 H 0.12408 0.42457 0.40616 0.0
H339 H 0.11362 0.45034 0.38775 0.0
H340 H 0.16286 0.41166 0.41275 0.0
H341 H 0.1165 0.36148 0.3779 0.0
H342 H 0.13134 0.37634 0.36472 0.0
H343 H 0.11186 0.38581 0.37645 0.0
C344 C 0.13943 0.4284 0.35524 0.0
C345 C 0.12765 0.44174 0.36284 0.0
C346 C 0.14539 0.41348 0.36593 0.0
C347 C 0.13977 0.41193 0.38432 0.0
C348 C 0.12857 0.42556 0.392 0.0
H349 H 0.11285 0.36836 0.48006 0.0
H350 H 0.12395 0.38416 0.45278 0.0
C351 C 0.12253 0.44024 0.3814 0.0
C352 C 0.14443 0.39586 0.39583 0.0
H353 H 0.12605 0.35448 0.40797 0.0
C354 C 0.15539 0.39883 0.4114 0.0
C355 C 0.13474 0.37913 0.39397 0.0
C356 C 0.12292 0.37533 0.37739 0.0
C357 C 0.15541 0.38629 0.426 0.0
C358 C 0.14403 0.37059 0.42504 0.0
C359 C 0.1347 0.3666 0.40866 0.0
C360 C 0.13855 0.36067 0.44189 0.0
C361 C 0.16643 0.39064 0.44299 0.0
C362 C 0.14293 0.3421 0.44468 0.0
C363 C 0.13665 0.33297 0.46045 0.0
C364 C 0.1256 0.34222 0.47337 0.0
C365 C 0.12126 0.36079 0.47038 0.0
C366 C 0.1277 0.3699 0.45485 0.0
H367 H 0.17842 0.39952 0.43969 0.0
H368 H 0.15759 0.39816 0.4529 0.0
H369 H 0.17138 0.37788 0.44972 0.0
H370 H 0.15113 0.33473 0.43468 0.0
H371 H 0.14016 0.31863 0.46237 0.0
H372 H 0.66101 0.16536 0.45266 0.0
H373 H 0.65178 0.17461 0.4214 0.0
H374 H 0.63427 0.11908 0.4103 0.0
H375 H 0.64325 0.10987 0.44108 0.0
H376 H 0.65486 0.13837 0.38032 0.0
H377 H 0.59483 0.17662 0.40887 0.0
H378 H 0.61783 0.18116 0.41689 0.0
H379 H 0.60667 0.16006 0.423 0.0
C380 C 0.65546 0.15513 0.44339 0.0
C381 C 0.65261 0.13696 0.44936 0.0
C382 C 0.6502 0.16043 0.4256 0.0
C383 C 0.64229 0.14752 0.41363 0.0
C384 C 0.6404 0.12923 0.41932 0.0
H385 H 0.57827 0.09839 0.34622 0.0
H386 H 0.6045 0.11262 0.36119 0.0
C387 C 0.64542 0.12402 0.43698 0.0
C388 C 0.6341 0.1527 0.3958 0.0
H389 H 0.59164 0.16375 0.37946 0.0
C390 C 0.64134 0.14463 0.37985 0.0
C391 C 0.61659 0.16111 0.39514 0.0
C392 C 0.6084 0.17029 0.41183 0.0
C393 C 0.63056 0.14264 0.36402 0.0
C394 C 0.61207 0.1486 0.36435 0.0
C395 C 0.60577 0.159 0.37932 0.0
C396 C 0.59813 0.14024 0.35212 0.0
C397 C 0.63849 0.1327 0.34767 0.0
C398 C 0.58576 0.15102 0.34197 0.0
C399 C 0.57065 0.1428 0.33325 0.0
C400 C 0.56751 0.12381 0.33505 0.0
C401 C 0.58029 0.11306 0.34466 0.0
C402 C 0.59544 0.12117 0.35305 0.0
H403 H 0.65342 0.13558 0.34631 0.0
H404 H 0.63684 0.11767 0.34964 0.0
H405 H 0.63145 0.13671 0.33475 0.0
H406 H 0.58744 0.16579 0.34134 0.0
H407 H 0.56092 0.1514 0.32599 0.0
H408 H 0.84164 0.67147 0.45263 0.0
H409 H 0.83345 0.66081 0.42156 0.0
H410 H 0.88657 0.63508 0.41645 0.0
H411 H 0.89477 0.64542 0.44715 0.0
H412 H 0.87137 0.65731 0.38359 0.0
H413 H 0.82597 0.60267 0.41243 0.0
H414 H 0.82408 0.62623 0.41994 0.0
H415 H 0.84356 0.61277 0.4267 0.0
C416 C 0.85163 0.66376 0.44474 0.0
C417 C 0.86878 0.65911 0.45238 0.0
C418 C 0.84692 0.6577 0.42705 0.0
C419 C 0.85942 0.64717 0.41682 0.0
C420 C 0.87678 0.64325 0.42415 0.0
H421 H 0.90296 0.57647 0.35004 0.0
H422 H 0.89177 0.60431 0.3646 0.0
C423 C 0.88139 0.64909 0.44175 0.0
C424 C 0.85445 0.63863 0.3991 0.0
H425 H 0.83922 0.59723 0.38347 0.0
C426 C 0.86373 0.64452 0.38327 0.0
C427 C 0.84426 0.62211 0.39865 0.0
C428 C 0.83382 0.61546 0.41528 0.0
C429 C 0.8648 0.63323 0.36769 0.0
C430 C 0.85677 0.61554 0.36822 0.0
C431 C 0.84552 0.61073 0.38313 0.0
C432 C 0.86346 0.60055 0.35618 0.0
C433 C 0.87574 0.63975 0.35135 0.0
C434 C 0.85128 0.58908 0.34654 0.0
C435 C 0.85773 0.57298 0.33813 0.0
C436 C 0.87634 0.56799 0.33967 0.0
C437 C 0.88854 0.5799 0.34869 0.0
C438 C 0.88218 0.59598 0.35683 0.0
H439 H 0.87431 0.65485 0.34959 0.0
H440 H 0.89053 0.6368 0.35368 0.0
H441 H 0.87133 0.6328 0.33851 0.0
H442 H 0.83674 0.59223 0.34613 0.0
H443 H 0.84803 0.56397 0.33132 0.0
H444 H 0.32553 0.84428 0.45807 0.0
H445 H 0.33719 0.83078 0.42938 0.0
H446 H 0.39126 0.85184 0.44163 0.0
H447 H 0.37989 0.86503 0.47004 0.0
H448 H 0.35053 0.85098 0.40157 0.0
H449 H 0.40441 0.80225 0.42143 0.0
H450 H 0.38674 0.80951 0.43733 0.0
H451 H 0.40751 0.82282 0.43456 0.0
C452 C 0.34001 0.84554 0.45484 0.0
C453 C 0.35178 0.85582 0.46623 0.0
C454 C 0.34664 0.83783 0.43846 0.0
C455 C 0.36518 0.84 0.43348 0.0
C456 C 0.37704 0.84948 0.44537 0.0
H457 H 0.42415 0.88733 0.35861 0.0
H458 H 0.39899 0.87433 0.37617 0.0
C459 C 0.37045 0.85725 0.46155 0.0
C460 C 0.37185 0.83525 0.41483 0.0
H461 H 0.41166 0.8218 0.39418 0.0
C462 C 0.36355 0.84396 0.39977 0.0
C463 C 0.38852 0.8256 0.41217 0.0
C464 C 0.39714 0.81435 0.42726 0.0
C465 C 0.37283 0.84558 0.38295 0.0
C466 C 0.39092 0.83864 0.38138 0.0
C467 C 0.39798 0.82756 0.39549 0.0
C468 C 0.40402 0.84622 0.36774 0.0
C469 C 0.36375 0.85596 0.36751 0.0
C470 C 0.41536 0.83477 0.35707 0.0
C471 C 0.42997 0.84227 0.34695 0.0
C472 C 0.43361 0.86124 0.34774 0.0
C473 C 0.42174 0.87266 0.35778 0.0
C474 C 0.40716 0.86524 0.36766 0.0
H475 H 0.34871 0.8533 0.36738 0.0
H476 H 0.36572 0.87093 0.36966 0.0
H477 H 0.36959 0.85213 0.35394 0.0
H478 H 0.41334 0.82003 0.35715 0.0
H479 H 0.43898 0.83315 0.33938 0.0
H480 H 0.15694 0.55198 0.65622 0.0
H481 H 0.16843 0.57966 0.64057 0.0
H482 H 0.11583 0.58627 0.61407 0.0
H483 H 0.10439 0.55894 0.62946 0.0
H484 H 0.17087 0.58229 0.60273 0.0
H485 H 0.12792 0.63884 0.62861 0.0
H486 H 0.1309 0.61762 0.64118 0.0
H487 H 0.11372 0.61939 0.62342 0.0
C488 C 0.14773 0.55964 0.64739 0.0
C489 C 0.1298 0.55326 0.64396 0.0
C490 C 0.15431 0.57542 0.63849 0.0
C491 C 0.14289 0.58519 0.62641 0.0
C492 C 0.12476 0.57924 0.62368 0.0
H493 H 0.13379 0.61702 0.52425 0.0
H494 H 0.14463 0.60399 0.55298 0.0
C495 C 0.11829 0.56346 0.63234 0.0
C496 C 0.15018 0.59996 0.61446 0.0
H497 H 0.13588 0.64031 0.59562 0.0
C498 C 0.16373 0.59531 0.60154 0.0
C499 C 0.14129 0.61718 0.61315 0.0
C500 C 0.1278 0.62361 0.6275 0.0
C501 C 0.16675 0.6063 0.586 0.0
C502 C 0.15574 0.62208 0.58329 0.0
C503 C 0.14408 0.62801 0.59747 0.0
C504 C 0.15298 0.63003 0.56476 0.0
C505 C 0.18073 0.6002 0.57199 0.0
C506 C 0.15415 0.64905 0.5617 0.0
C507 C 0.14787 0.65659 0.54513 0.0
C508 C 0.14 0.64522 0.53163 0.0
C509 C 0.13972 0.62614 0.53442 0.0
C510 C 0.14613 0.61864 0.55079 0.0
H511 H 0.19256 0.59336 0.57879 0.0
H512 H 0.17433 0.59002 0.5626 0.0
H513 H 0.18589 0.61194 0.56372 0.0
H514 H 0.15916 0.6581 0.5724 0.0
H515 H 0.14817 0.67137 0.54336 0.0
H516 H 0.33686 0.15093 0.53762 0.0
H517 H 0.34707 0.15941 0.56877 0.0
H518 H 0.36956 0.10509 0.57604 0.0
H519 H 0.3596 0.09658 0.54533 0.0
H520 H 0.34763 0.12126 0.60747 0.0
H521 H 0.40442 0.16506 0.58024 0.0
H522 H 0.38115 0.168 0.57222 0.0
H523 H 0.39388 0.14793 0.56572 0.0
C524 C 0.3438 0.14077 0.54599 0.0
C525 C 0.3476 0.12315 0.53896 0.0
C526 C 0.34962 0.14564 0.56371 0.0
C527 C 0.3591 0.13286 0.5746 0.0
C528 C 0.36222 0.11512 0.56784 0.0
H529 H 0.42696 0.09027 0.64648 0.0
H530 H 0.40067 0.10096 0.62891 0.0
C531 C 0.3566 0.11032 0.55022 0.0
C532 C 0.36716 0.13777 0.59256 0.0
H533 H 0.40806 0.15273 0.60981 0.0
C534 C 0.36052 0.12874 0.60823 0.0
C535 C 0.38383 0.14769 0.59356 0.0
C536 C 0.39136 0.15779 0.5771 0.0
C537 C 0.3711 0.12772 0.62428 0.0
C538 C 0.38885 0.13564 0.62445 0.0
C539 C 0.39449 0.14655 0.60959 0.0
C540 C 0.40306 0.12933 0.63755 0.0
C541 C 0.36381 0.11699 0.64043 0.0
C542 C 0.41324 0.14177 0.64823 0.0
C543 C 0.42841 0.13563 0.65842 0.0
C544 C 0.43378 0.11707 0.65764 0.0
C545 C 0.42322 0.10466 0.64731 0.0
C546 C 0.40804 0.11072 0.63741 0.0
H547 H 0.34859 0.118 0.64121 0.0
H548 H 0.36738 0.10227 0.63868 0.0
H549 H 0.3698 0.12193 0.65356 0.0
H550 H 0.40977 0.15624 0.64829 0.0
H551 H 0.43637 0.1455 0.66621 0.0
H552 H 0.84794 0.44281 0.65418 0.0
H553 H 0.84208 0.41355 0.63822 0.0
H554 H 0.89857 0.41218 0.62028 0.0
H555 H 0.90443 0.4411 0.63594 0.0
H556 H 0.84671 0.40984 0.60004 0.0
H557 H 0.88977 0.35905 0.63602 0.0
H558 H 0.88246 0.38028 0.64667 0.0
H559 H 0.90237 0.37982 0.63194 0.0
C560 C 0.85917 0.43598 0.64719 0.0
C561 C 0.87662 0.44426 0.64621 0.0
C562 C 0.8558 0.41932 0.63809 0.0
C563 C 0.86996 0.41056 0.62831 0.0
C564 C 0.88755 0.41845 0.62809 0.0
H565 H 0.9081 0.35873 0.53943 0.0
H566 H 0.89945 0.37224 0.56875 0.0
C567 C 0.89083 0.4351 0.6369 0.0
C568 C 0.86629 0.39464 0.61616 0.0
H569 H 0.88631 0.35446 0.60277 0.0
C570 C 0.8548 0.39735 0.60092 0.0
C571 C 0.87676 0.37834 0.61741 0.0
C572 C 0.88838 0.37412 0.63403 0.0
C573 C 0.85516 0.38521 0.58592 0.0
C574 C 0.86719 0.36996 0.58637 0.0
C575 C 0.87721 0.36626 0.60241 0.0
C576 C 0.87232 0.36011 0.56934 0.0
C577 C 0.84406 0.38969 0.56901 0.0
C578 C 0.85997 0.34855 0.56006 0.0
C579 C 0.8649 0.34072 0.54315 0.0
C580 C 0.88219 0.34447 0.53529 0.0
C581 C 0.89462 0.35565 0.54497 0.0
C582 C 0.88975 0.36332 0.56181 0.0
H583 H 0.83601 0.40256 0.57061 0.0
H584 H 0.8533 0.39116 0.55695 0.0
H585 H 0.83438 0.37828 0.56608 0.0
H586 H 0.84648 0.34583 0.56574 0.0
H587 H 0.85504 0.33211 0.53605 0.0
H588 H 0.56098 0.84605 0.66051 0.0
H589 H 0.58552 0.83176 0.64218 0.0
H590 H 0.60022 0.88501 0.62068 0.0
H591 H 0.57618 0.89921 0.63887 0.0
H592 H 0.58592 0.83183 0.60531 0.0
H593 H 0.65033 0.86341 0.62832 0.0
H594 H 0.62991 0.86338 0.64249 0.0
H595 H 0.63363 0.88128 0.62573 0.0
C596 C 0.56982 0.85471 0.65225 0.0
C597 C 0.56659 0.87373 0.65101 0.0
C598 C 0.58382 0.84654 0.6418 0.0
C599 C 0.59494 0.85734 0.63029 0.0
C600 C 0.59222 0.87642 0.62982 0.0
H601 H 0.61617 0.86933 0.52574 0.0
H602 H 0.6053 0.85805 0.55514 0.0
C603 C 0.57827 0.88452 0.64008 0.0
C604 C 0.60738 0.84896 0.6165 0.0
H605 H 0.64729 0.8594 0.5944 0.0
C606 C 0.59964 0.83728 0.60324 0.0
C607 C 0.62552 0.85545 0.61397 0.0
C608 C 0.63535 0.8664 0.62856 0.0
C609 C 0.60852 0.83419 0.5864 0.0
C610 C 0.62526 0.84337 0.58269 0.0
C611 C 0.63419 0.85275 0.59698 0.0
C612 C 0.63154 0.8468 0.56361 0.0
C613 C 0.59925 0.82217 0.57231 0.0
C614 C 0.64999 0.84432 0.55846 0.0
C615 C 0.65634 0.85101 0.54155 0.0
C616 C 0.64438 0.8605 0.52971 0.0
C617 C 0.62577 0.86214 0.53456 0.0
C618 C 0.61946 0.85544 0.55132 0.0
H619 H 0.59213 0.81049 0.57908 0.0
H620 H 0.58865 0.8303 0.56495 0.0
H621 H 0.60921 0.81668 0.56213 0.0
H622 H 0.6596 0.83789 0.56782 0.0
H623 H 0.67078 0.84956 0.53821 0.0
H624 H 0.39073 0.12783 0.45451 0.0
H625 H 0.4079 0.13584 0.427 0.0
H626 H 0.35727 0.14805 0.39872 0.0
H627 H 0.33983 0.14006 0.4266 0.0
H628 H 0.37904 0.12199 0.38109 0.0
H629 H 0.42153 0.18213 0.39864 0.0
H630 H 0.42224 0.16556 0.41684 0.0
H631 H 0.40075 0.17643 0.41104 0.0
C632 C 0.38324 0.13266 0.4426 0.0
C633 C 0.36396 0.13323 0.44264 0.0
C634 C 0.39309 0.13743 0.42692 0.0
C635 C 0.38389 0.14281 0.41087 0.0
C636 C 0.36462 0.14417 0.41105 0.0
H637 H 0.4689 0.14349 0.32429 0.0
H638 H 0.44047 0.15439 0.33898 0.0
C639 C 0.3547 0.13963 0.42695 0.0
C640 C 0.39451 0.14396 0.39355 0.0
H641 H 0.43588 0.15952 0.37791 0.0
C642 C 0.39112 0.13065 0.38001 0.0
C643 C 0.41013 0.15543 0.39194 0.0
C644 C 0.41375 0.17082 0.40532 0.0
C645 C 0.40406 0.12709 0.36618 0.0
C646 C 0.42079 0.13697 0.36605 0.0
C647 C 0.42317 0.15172 0.37822 0.0
C648 C 0.437 0.13016 0.35582 0.0
C649 C 0.40028 0.11194 0.35255 0.0
C650 C 0.44447 0.11306 0.36058 0.0
C651 C 0.4607 0.10693 0.35247 0.0
C652 C 0.46982 0.11777 0.33935 0.0
C653 C 0.46215 0.1348 0.33431 0.0
C654 C 0.44593 0.14104 0.34265 0.0
H655 H 0.38528 0.11012 0.35037 0.0
H656 H 0.40696 0.11478 0.33913 0.0
H657 H 0.40582 0.09881 0.35798 0.0
H658 H 0.43799 0.10462 0.371 0.0
H659 H 0.46618 0.09375 0.35664 0.0
H660 H 0.90263 0.36357 0.43091 0.0
H661 H 0.89136 0.38277 0.40611 0.0
H662 H 0.83634 0.36253 0.41496 0.0
H663 H 0.84765 0.34304 0.44024 0.0
H664 H 0.87089 0.37492 0.37301 0.0
H665 H 0.83338 0.41936 0.42302 0.0
H666 H 0.85036 0.40305 0.43075 0.0
H667 H 0.82865 0.39507 0.42223 0.0
C668 C 0.88814 0.363 0.42754 0.0
C669 C 0.87597 0.35198 0.43771 0.0
C670 C 0.88174 0.37391 0.41324 0.0
C671 C 0.86301 0.37418 0.40879 0.0
C672 C 0.85084 0.36258 0.4183 0.0
H673 H 0.85504 0.46264 0.32534 0.0
H674 H 0.84446 0.43391 0.33968 0.0
C675 C 0.85731 0.35144 0.43266 0.0
C676 C 0.85666 0.38805 0.39535 0.0
H677 H 0.84149 0.43239 0.3948 0.0
C678 C 0.86383 0.38727 0.37746 0.0
C679 C 0.84747 0.40411 0.40128 0.0
C680 C 0.8395 0.40563 0.42036 0.0
C681 C 0.86375 0.40281 0.36602 0.0
C682 C 0.85619 0.41941 0.37268 0.0
C683 C 0.8473 0.4196 0.3898 0.0
C684 C 0.86095 0.43725 0.36418 0.0
C685 C 0.87339 0.4019 0.34769 0.0
C686 C 0.87341 0.44871 0.37335 0.0
C687 C 0.87947 0.46495 0.36528 0.0
C688 C 0.87314 0.47019 0.34781 0.0
C689 C 0.86021 0.45895 0.33879 0.0
C690 C 0.85418 0.44255 0.34692 0.0
H691 H 0.87918 0.38807 0.34485 0.0
H692 H 0.86356 0.40539 0.33658 0.0
H693 H 0.88472 0.41213 0.34724 0.0
H694 H 0.87884 0.44483 0.38666 0.0
H695 H 0.88933 0.47329 0.37269 0.0
H696 H 0.54065 0.85185 0.32256 0.0
H697 H 0.5712 0.84383 0.33467 0.0
H698 H 0.55731 0.8694 0.38629 0.0
H699 H 0.52714 0.8775 0.37442 0.0
H700 H 0.59764 0.87023 0.3485 0.0
H701 H 0.57913 0.81899 0.40123 0.0
H702 H 0.5644 0.82423 0.38192 0.0
H703 H 0.5642 0.83859 0.40208 0.0
C704 C 0.54407 0.85552 0.33657 0.0
C705 C 0.53151 0.86534 0.34754 0.0
C706 C 0.56149 0.85094 0.34343 0.0
C707 C 0.56636 0.85577 0.36146 0.0
C708 C 0.55369 0.86523 0.37246 0.0
H709 H 0.63966 0.90214 0.42641 0.0
H710 H 0.623 0.89153 0.39951 0.0
C711 C 0.53648 0.86998 0.3656 0.0
C712 C 0.58509 0.85258 0.3687 0.0
H713 H 0.60588 0.83808 0.40799 0.0
C714 C 0.59969 0.86269 0.36119 0.0
C715 C 0.58791 0.8424 0.38497 0.0
C716 C 0.5731 0.83027 0.39291 0.0
C717 C 0.61632 0.86467 0.37077 0.0
C718 C 0.61817 0.85654 0.38832 0.0
C719 C 0.60442 0.84457 0.39466 0.0
C720 C 0.63189 0.86322 0.40183 0.0
C721 C 0.63129 0.87638 0.36254 0.0
C722 C 0.64273 0.85091 0.41202 0.0
C723 C 0.65234 0.85703 0.42756 0.0
C724 C 0.65089 0.87543 0.43327 0.0
C725 C 0.64099 0.88787 0.42237 0.0
C726 C 0.6316 0.88184 0.40683 0.0
H727 H 0.6314 0.8751 0.34733 0.0
H728 H 0.62863 0.89102 0.3659 0.0
H729 H 0.64504 0.87255 0.36793 0.0
H730 H 0.64297 0.83645 0.40853 0.0
H731 H 0.65979 0.84713 0.43579 0.0
H732 H 0.14946 0.66009 0.43671 0.0
H733 H 0.15684 0.64379 0.40803 0.0
H734 H 0.09986 0.62838 0.40232 0.0
H735 H 0.0925 0.64447 0.43062 0.0
H736 H 0.15176 0.60662 0.40531 0.0
H737 H 0.11309 0.63992 0.34964 0.0
H738 H 0.11851 0.65165 0.37086 0.0
H739 H 0.0985 0.63709 0.36927 0.0
C740 C 0.13846 0.65371 0.42897 0.0
C741 C 0.12043 0.65342 0.43593 0.0
C742 C 0.14269 0.6444 0.41262 0.0
C743 C 0.12887 0.63508 0.40288 0.0
C744 C 0.1107 0.63583 0.4093 0.0
H745 H 0.09167 0.54347 0.35715 0.0
H746 H 0.10032 0.57397 0.36773 0.0
C747 C 0.10653 0.64489 0.42563 0.0
C748 C 0.13338 0.62197 0.38795 0.0
H749 H 0.11533 0.60604 0.34776 0.0
C750 C 0.14441 0.60677 0.39235 0.0
C751 C 0.12392 0.62224 0.37099 0.0
C752 C 0.11301 0.63874 0.36486 0.0
C753 C 0.14438 0.59093 0.38132 0.0
C754 C 0.13316 0.59045 0.36548 0.0
C755 C 0.12378 0.60638 0.36003 0.0
C756 C 0.12798 0.57277 0.35689 0.0
C757 C 0.15485 0.5742 0.38766 0.0
C758 C 0.1406 0.56209 0.34694 0.0
C759 C 0.13567 0.54449 0.34081 0.0
C760 C 0.1181 0.53735 0.34469 0.0
C761 C 0.10536 0.54844 0.35407 0.0
C762 C 0.11024 0.56595 0.36004 0.0
H763 H 0.16232 0.57664 0.40074 0.0
H764 H 0.14526 0.56249 0.38962 0.0
H765 H 0.16498 0.57016 0.377 0.0
H766 H 0.15433 0.5672 0.3443 0.0
H767 H 0.14576 0.5363 0.33356 0.0
H768 H 0.34309 0.85053 0.56143 0.0
H769 H 0.36177 0.84414 0.58883 0.0
H770 H 0.37688 0.90138 0.59182 0.0
H771 H 0.35847 0.90778 0.56468 0.0
H772 H 0.39937 0.85026 0.58784 0.0
H773 H 0.3693 0.88872 0.64582 0.0
H774 H 0.35614 0.88256 0.62566 0.0
H775 H 0.37046 0.90277 0.62562 0.0
C776 C 0.34994 0.86181 0.56833 0.0
C777 C 0.34945 0.87963 0.56088 0.0
C778 C 0.3606 0.85814 0.58394 0.0
C779 C 0.37054 0.87232 0.5925 0.0
C780 C 0.36903 0.89029 0.58573 0.0
H781 H 0.47366 0.89729 0.62585 0.0
H782 H 0.44408 0.889 0.61254 0.0
C783 C 0.35862 0.89391 0.57008 0.0
C784 C 0.38487 0.86827 0.60636 0.0
H785 H 0.40288 0.8855 0.64609 0.0
C786 C 0.39988 0.85745 0.60088 0.0
C787 C 0.38551 0.87752 0.62344 0.0
C788 C 0.36937 0.88838 0.63056 0.0
C789 C 0.41618 0.85718 0.61113 0.0
C790 C 0.41747 0.86802 0.62717 0.0
C791 C 0.40189 0.87735 0.63364 0.0
C792 C 0.43549 0.87223 0.6355 0.0
C793 C 0.43236 0.8463 0.60412 0.0
C794 C 0.44035 0.86561 0.65293 0.0
C795 C 0.45742 0.87023 0.66059 0.0
C796 C 0.46966 0.88179 0.65103 0.0
C797 C 0.46458 0.88841 0.63362 0.0
C798 C 0.44771 0.88363 0.62594 0.0
H799 H 0.42795 0.83516 0.59465 0.0
H800 H 0.44172 0.85561 0.59647 0.0
H801 H 0.44021 0.84018 0.61568 0.0
H802 H 0.43099 0.85688 0.66053 0.0
H803 H 0.46092 0.86497 0.67405 0.0
H804 H 0.15144 0.44863 0.67121 0.0
H805 H 0.1628 0.41835 0.66144 0.0
H806 H 0.1416 0.42814 0.60698 0.0
H807 H 0.13054 0.45811 0.61646 0.0
H808 H 0.1412 0.3906 0.65008 0.0
H809 H 0.1902 0.40508 0.59471 0.0
H810 H 0.18385 0.42229 0.61147 0.0
H811 H 0.17021 0.41894 0.59103 0.0
C812 C 0.14963 0.44446 0.65705 0.0
C813 C 0.14 0.45571 0.64462 0.0
C814 C 0.15614 0.42718 0.6515 0.0
C815 C 0.15338 0.42111 0.63338 0.0
C816 C 0.14441 0.43269 0.62087 0.0
H817 H 0.10193 0.34537 0.57962 0.0
H818 H 0.11602 0.36265 0.60433 0.0
C819 C 0.13785 0.44979 0.62639 0.0
C820 C 0.15722 0.40188 0.62783 0.0
H821 H 0.16935 0.37841 0.58924 0.0
C822 C 0.14797 0.38773 0.63711 0.0
C823 C 0.1666 0.39783 0.61131 0.0
C824 C 0.17845 0.41186 0.60172 0.0
C825 C 0.14555 0.37046 0.62888 0.0
C826 C 0.15216 0.36755 0.61083 0.0
C827 C 0.16379 0.38073 0.60287 0.0
C828 C 0.1438 0.35357 0.59855 0.0
C829 C 0.13476 0.35599 0.63905 0.0
C830 C 0.15464 0.34249 0.58701 0.0
C831 C 0.14651 0.3326 0.5726 0.0
C832 C 0.1275 0.33395 0.5694 0.0
C833 C 0.11662 0.34411 0.58168 0.0
C834 C 0.12468 0.35383 0.59603 0.0
H835 H 0.13806 0.35639 0.65395 0.0
H836 H 0.11985 0.35886 0.63763 0.0
H837 H 0.13764 0.34198 0.63371 0.0
H838 H 0.16944 0.34224 0.58856 0.0
H839 H 0.15522 0.32492 0.56329 0.0
H840 H 0.54222 0.08856 0.65616 0.0
H841 H 0.56844 0.09818 0.63759 0.0
H842 H 0.54979 0.15441 0.64032 0.0
H843 H 0.52401 0.14488 0.65981 0.0
H844 H 0.56401 0.11103 0.60501 0.0
H845 H 0.60407 0.1625 0.64414 0.0
H846 H 0.58714 0.14786 0.65486 0.0
H847 H 0.58014 0.16828 0.6428 0.0
C848 C 0.54401 0.10304 0.65321 0.0
C849 C 0.53107 0.11598 0.6593 0.0
C850 C 0.559 0.10854 0.64261 0.0
C851 C 0.56117 0.12704 0.63755 0.0
C852 C 0.54871 0.14014 0.64436 0.0
H853 H 0.60833 0.15076 0.53214 0.0
H854 H 0.58929 0.15238 0.55978 0.0
C855 C 0.53389 0.13467 0.65538 0.0
C856 C 0.57473 0.13192 0.62306 0.0
H857 H 0.60971 0.16119 0.61159 0.0
C858 C 0.57409 0.1219 0.6066 0.0
C859 C 0.58796 0.14607 0.62507 0.0
C860 C 0.59002 0.15667 0.64275 0.0
C861 C 0.58615 0.1256 0.59211 0.0
C862 C 0.5988 0.14028 0.59374 0.0
C863 C 0.59974 0.15019 0.61026 0.0
C864 C 0.61127 0.14493 0.57834 0.0
C865 C 0.58538 0.11346 0.57527 0.0
C866 C 0.63026 0.14181 0.57986 0.0
C867 C 0.64129 0.14138 0.56408 0.0
C868 C 0.63333 0.14384 0.54668 0.0
C869 C 0.61473 0.14878 0.54543 0.0
C870 C 0.60385 0.14961 0.56118 0.0
H871 H 0.57859 0.1001 0.57821 0.0
H872 H 0.57732 0.12046 0.5644 0.0
H873 H 0.59937 0.11068 0.56984 0.0
H874 H 0.63625 0.13822 0.593 0.0
H875 H 0.65558 0.1374 0.56533 0.0
H876 H 0.86154 0.53378 0.61464 0.0
H877 H 0.84743 0.56134 0.60213 0.0
H878 H 0.82922 0.5771 0.65628 0.0
H879 H 0.84343 0.54915 0.66908 0.0
H880 H 0.80932 0.57678 0.60521 0.0
H881 H 0.86466 0.61924 0.6371 0.0
H882 H 0.86764 0.59472 0.63494 0.0
H883 H 0.85105 0.60371 0.65079 0.0
C884 C 0.85433 0.54293 0.62391 0.0
C885 C 0.85377 0.53943 0.64287 0.0
C886 C 0.84616 0.55863 0.61672 0.0
C887 C 0.83738 0.57127 0.62829 0.0
C888 C 0.83599 0.56749 0.64715 0.0
H889 H 0.84454 0.67104 0.5624 0.0
H890 H 0.83093 0.65489 0.58888 0.0
C891 C 0.84406 0.55154 0.65441 0.0
C892 C 0.83165 0.58902 0.62028 0.0
H893 H 0.85154 0.63008 0.60974 0.0
C894 C 0.81801 0.58881 0.60667 0.0
C895 C 0.8428 0.6048 0.6224 0.0
C896 C 0.85739 0.60582 0.63709 0.0
C897 C 0.81684 0.60296 0.59366 0.0
C898 C 0.82985 0.61739 0.59416 0.0
C899 C 0.84171 0.61889 0.60927 0.0
C900 C 0.83467 0.62774 0.57733 0.0
C901 C 0.80278 0.6015 0.57853 0.0
C902 C 0.8412 0.61784 0.56213 0.0
C903 C 0.84917 0.62691 0.54732 0.0
C904 C 0.85075 0.64613 0.5473 0.0
C905 C 0.8434 0.65621 0.56207 0.0
C906 C 0.83562 0.64703 0.57715 0.0
H907 H 0.78999 0.59492 0.58365 0.0
H908 H 0.79937 0.61521 0.57275 0.0
H909 H 0.80833 0.59273 0.56735 0.0
H910 H 0.84108 0.60295 0.56214 0.0
H911 H 0.85464 0.6188 0.5361 0.0
H912 H 0.34836 0.44317 0.10077 0.0
H913 H 0.36264 0.41526 0.11204 0.0
H914 H 0.34408 0.4276 0.16698 0.0
H915 H 0.32978 0.45601 0.1557 0.0
H916 H 0.38034 0.42191 0.16596 0.0
H917 H 0.34783 0.36493 0.1288 0.0
H918 H 0.35307 0.3827 0.11263 0.0
H919 H 0.33693 0.38715 0.13094 0.0
C920 C 0.34693 0.43981 0.11519 0.0
C921 C 0.33809 0.4519 0.12737 0.0
C922 C 0.35491 0.42366 0.1216 0.0
C923 C 0.35417 0.41912 0.14032 0.0
C924 C 0.34461 0.43072 0.15244 0.0
H925 H 0.43456 0.32948 0.14493 0.0
H926 H 0.40617 0.34438 0.15569 0.0
C927 C 0.33648 0.44694 0.14598 0.0
C928 C 0.36601 0.40403 0.14716 0.0
H929 H 0.38171 0.3622 0.13314 0.0
C930 C 0.38026 0.40856 0.15933 0.0
C931 C 0.36574 0.38638 0.139 0.0
C932 C 0.3499 0.37998 0.12729 0.0
C933 C 0.39547 0.39695 0.1615 0.0
C934 C 0.39652 0.38064 0.15099 0.0
C935 C 0.38113 0.37493 0.14087 0.0
C936 C 0.41438 0.37166 0.14718 0.0
C937 C 0.41089 0.4029 0.174 0.0
C938 C 0.42832 0.38205 0.13886 0.0
C939 C 0.44431 0.37364 0.1326 0.0
C940 C 0.44675 0.35459 0.13447 0.0
C941 C 0.43308 0.34421 0.14338 0.0
C942 C 0.41689 0.35267 0.14953 0.0
H943 H 0.40544 0.41066 0.18597 0.0
H944 H 0.41892 0.39096 0.17906 0.0
H945 H 0.42026 0.4122 0.16636 0.0
H946 H 0.42651 0.39662 0.13643 0.0
H947 H 0.45458 0.38205 0.12585 0.0
H948 H 0.45124 0.6189 0.87337 0.0
H949 H 0.4242 0.6031 0.86188 0.0
H950 H 0.4039 0.65382 0.83893 0.0
H951 H 0.43131 0.66993 0.85051 0.0
H952 H 0.37889 0.63643 0.86171 0.0
H953 H 0.40557 0.58612 0.81206 0.0
H954 H 0.41988 0.5862 0.83209 0.0
H955 H 0.41816 0.60666 0.81822 0.0
C956 C 0.44121 0.6267 0.86561 0.0
C957 C 0.44334 0.64568 0.86295 0.0
C958 C 0.42584 0.61758 0.85883 0.0
C959 C 0.4122 0.62719 0.84921 0.0
C960 C 0.41443 0.6461 0.84606 0.0
H961 H 0.32793 0.54125 0.84568 0.0
H962 H 0.34219 0.56882 0.83214 0.0
C963 C 0.43004 0.65527 0.85271 0.0
C964 C 0.3947 0.61764 0.84513 0.0
H965 H 0.38032 0.57501 0.83217 0.0
C966 C 0.3789 0.62332 0.85461 0.0
C967 C 0.39446 0.60077 0.83547 0.0
C968 C 0.41041 0.59472 0.82372 0.0
C969 C 0.36395 0.61137 0.8569 0.0
C970 C 0.36505 0.59334 0.84974 0.0
C971 C 0.37963 0.58871 0.838 0.0
C972 C 0.35408 0.5782 0.85772 0.0
C973 C 0.3478 0.61758 0.86829 0.0
C974 C 0.35613 0.57437 0.87648 0.0
C975 C 0.34835 0.55867 0.8841 0.0
C976 C 0.33827 0.54641 0.87314 0.0
C977 C 0.3356 0.55052 0.85444 0.0
C978 C 0.34368 0.56623 0.84672 0.0
H979 H 0.34541 0.63256 0.86659 0.0
H980 H 0.33507 0.61004 0.86452 0.0
H981 H 0.35077 0.61503 0.88303 0.0
H982 H 0.36449 0.58314 0.88515 0.0
H983 H 0.35058 0.55595 0.89856 0.0
H984 H 0.46977 0.38791 0.87064 0.0
H985 H 0.43991 0.40137 0.86407 0.0
H986 H 0.42056 0.34923 0.84355 0.0
H987 H 0.45065 0.33545 0.85035 0.0
H988 H 0.41688 0.40429 0.8328 0.0
H989 H 0.38688 0.36031 0.88798 0.0
H990 H 0.4114 0.3624 0.885 0.0
H991 H 0.3981 0.34936 0.86885 0.0
C992 C 0.4593 0.37933 0.86443 0.0
C993 C 0.46246 0.36055 0.86128 0.0
C994 C 0.44225 0.38708 0.86059 0.0
C995 C 0.42794 0.37624 0.85359 0.0
C996 C 0.43137 0.35776 0.84918 0.0
H997 H 0.32942 0.44777 0.85443 0.0
H998 H 0.34802 0.42216 0.84269 0.0
C999 C 0.44858 0.34995 0.85296 0.0
C1000 C 0.40922 0.38421 0.85307 0.0
H1001 H 0.37038 0.38637 0.87929 0.0
C1002 C 0.40638 0.40008 0.84251 0.0
C1003 C 0.39563 0.37866 0.86583 0.0
C1004 C 0.39804 0.36181 0.87766 0.0
C1005 C 0.39112 0.41149 0.84556 0.0
C1006 C 0.3783 0.40669 0.85938 0.0
C1007 C 0.38026 0.38995 0.86872 0.0
C1008 C 0.36523 0.42039 0.86684 0.0
C1009 C 0.38971 0.42939 0.8352 0.0
C1010 C 0.36833 0.42736 0.88453 0.0
C1011 C 0.3578 0.44186 0.89126 0.0
C1012 C 0.34387 0.4497 0.88045 0.0
C1013 C 0.34011 0.44207 0.86306 0.0
C1014 C 0.35075 0.42751 0.8563 0.0
H1015 H 0.40172 0.43175 0.82606 0.0
H1016 H 0.37711 0.42931 0.82663 0.0
H1017 H 0.38865 0.44107 0.84496 0.0
H1018 H 0.37944 0.42204 0.8929 0.0
H1019 H 0.36098 0.44727 0.90475 0.0
H1020 H 0.65167 0.44795 0.90307 0.0
H1021 H 0.63998 0.41817 0.89347 0.0
H1022 H 0.65601 0.42956 0.83756 0.0
H1023 H 0.66796 0.45969 0.84721 0.0
H1024 H 0.61902 0.42059 0.84181 0.0
H1025 H 0.66135 0.36896 0.87725 0.0
H1026 H 0.65538 0.38719 0.89271 0.0
H1027 H 0.66941 0.39207 0.87287 0.0
C1028 C 0.65309 0.44401 0.88879 0.0
C1029 C 0.66061 0.4562 0.87587 0.0
C1030 C 0.64659 0.42686 0.88334 0.0
C1031 C 0.6474 0.4215 0.86485 0.0
C1032 C 0.6555 0.43335 0.85195 0.0
H1033 H 0.55911 0.3407 0.84411 0.0
H1034 H 0.58859 0.35498 0.83561 0.0
C1035 C 0.66228 0.45053 0.85747 0.0
C1036 C 0.63713 0.40489 0.85909 0.0
H1037 H 0.62841 0.36146 0.87429 0.0
C1038 C 0.62139 0.40736 0.84825 0.0
C1039 C 0.64037 0.38762 0.86735 0.0
C1040 C 0.65768 0.38376 0.87803 0.0
C1041 C 0.60762 0.39386 0.84749 0.0
C1042 C 0.60988 0.37745 0.85766 0.0
C1043 C 0.62662 0.37412 0.86664 0.0
C1044 C 0.59382 0.36604 0.86271 0.0
C1045 C 0.58996 0.39806 0.83747 0.0
C1046 C 0.58744 0.36694 0.88086 0.0
C1047 C 0.57076 0.35892 0.88569 0.0
C1048 C 0.5601 0.34972 0.8725 0.0
C1049 C 0.56702 0.34777 0.85455 0.0
C1050 C 0.58379 0.35596 0.84966 0.0
H1051 H 0.5901 0.41189 0.83103 0.0
H1052 H 0.58771 0.38768 0.82653 0.0
H1053 H 0.57815 0.39731 0.84712 0.0
H1054 H 0.59496 0.37465 0.89114 0.0
H1055 H 0.56594 0.36049 0.89969 0.0
H1056 H 0.61671 0.54217 0.87532 0.0
H1057 H 0.59995 0.56938 0.86567 0.0
H1058 H 0.65038 0.59404 0.84657 0.0
H1059 H 0.66744 0.5665 0.85626 0.0
H1060 H 0.63052 0.61603 0.87108 0.0
H1061 H 0.58457 0.5911 0.81635 0.0
H1062 H 0.5844 0.57551 0.8354 0.0
H1063 H 0.60538 0.57913 0.82273 0.0
C1064 C 0.62424 0.55321 0.86876 0.0
C1065 C 0.64341 0.55224 0.86663 0.0
C1066 C 0.6146 0.5687 0.86306 0.0
C1067 C 0.62387 0.58361 0.85512 0.0
C1068 C 0.64296 0.58255 0.85245 0.0
H1069 H 0.53712 0.66673 0.84571 0.0
H1070 H 0.56614 0.65258 0.83574 0.0
C1071 C 0.65266 0.56685 0.85798 0.0
C1072 C 0.61361 0.6009 0.85204 0.0
H1073 H 0.57189 0.61522 0.83635 0.0
C1074 C 0.61801 0.61616 0.86298 0.0
C1075 C 0.59751 0.60129 0.84118 0.0
C1076 C 0.59281 0.58592 0.8281 0.0
C1077 C 0.6056 0.63076 0.86505 0.0
C1078 C 0.58835 0.62988 0.85614 0.0
C1079 C 0.58498 0.61576 0.84345 0.0
C1080 C 0.57255 0.6411 0.86239 0.0
C1081 C 0.61057 0.64642 0.87767 0.0
C1082 C 0.56663 0.63942 0.88066 0.0
C1083 C 0.55011 0.64726 0.8863 0.0
C1084 C 0.53908 0.65696 0.87379 0.0
C1085 C 0.54537 0.65938 0.85567 0.0
C1086 C 0.56192 0.65132 0.84996 0.0
H1087 H 0.62564 0.64894 0.87753 0.0
H1088 H 0.60337 0.65928 0.87375 0.0
H1089 H 0.60663 0.6428 0.89195 0.0
H1090 H 0.57434 0.63122 0.89039 0.0
H1091 H 0.5457 0.6452 0.90036 0.0
H1092 H 0.67069 0.53813 0.14229 0.0
H1093 H 0.65635 0.56745 0.15105 0.0
H1094 H 0.60579 0.55029 0.12532 0.0
H1095 H 0.61986 0.52126 0.11659 0.0
H1096 H 0.64221 0.59287 0.12584 0.0
H1097 H 0.58787 0.57156 0.17414 0.0
H1098 H 0.60762 0.55732 0.16914 0.0
H1099 H 0.58789 0.55712 0.15417 0.0
C1100 C 0.65642 0.54052 0.13881 0.0
C1101 C 0.64642 0.52742 0.12869 0.0
C1102 C 0.64827 0.55724 0.14383 0.0
C1103 C 0.62992 0.5609 0.13912 0.0
C1104 C 0.61983 0.54759 0.12949 0.0
H1105 H 0.56522 0.635 0.09129 0.0
H1106 H 0.59046 0.61644 0.10281 0.0
C1107 C 0.62797 0.53105 0.12434 0.0
C1108 C 0.62159 0.57921 0.14215 0.0
H1109 H 0.58081 0.59836 0.15498 0.0
C1110 C 0.62907 0.59429 0.13274 0.0
C1111 C 0.60467 0.58123 0.15148 0.0
C1112 C 0.59666 0.56597 0.16297 0.0
C1113 C 0.61901 0.61059 0.13061 0.0
C1114 C 0.60102 0.61167 0.13789 0.0
C1115 C 0.5945 0.59744 0.14915 0.0
C1116 C 0.5876 0.62534 0.13105 0.0
C1117 C 0.62726 0.62608 0.1196 0.0
C1118 C 0.57751 0.63655 0.14311 0.0
C1119 C 0.56295 0.64729 0.13649 0.0
C1120 C 0.55806 0.64658 0.11781 0.0
C1121 C 0.56859 0.63579 0.10576 0.0
C1122 C 0.58318 0.62531 0.1123 0.0
H1123 H 0.64246 0.62634 0.12108 0.0
H1124 H 0.6241 0.62396 0.10484 0.0
H1125 H 0.62163 0.6396 0.12389 0.0
H1126 H 0.58057 0.63656 0.15767 0.0
H1127 H 0.555 0.65543 0.14609 0.0
H1128 H 0.37989 0.53645 0.12036 0.0
H1129 H 0.39791 0.56356 0.12789 0.0
H1130 H 0.34934 0.59045 0.14864 0.0
H1131 H 0.331 0.56298 0.14116 0.0
H1132 H 0.36907 0.61068 0.12174 0.0
H1133 H 0.41599 0.58657 0.17609 0.0
H1134 H 0.41459 0.57019 0.15772 0.0
H1135 H 0.39439 0.57531 0.17111 0.0
C1136 C 0.37304 0.54799 0.12681 0.0
C1137 C 0.35401 0.54763 0.13009 0.0
C1138 C 0.38341 0.56342 0.13128 0.0
C1139 C 0.37502 0.57891 0.13909 0.0
C1140 C 0.35608 0.57852 0.14284 0.0
H1141 H 0.46224 0.6627 0.1437 0.0
H1142 H 0.43388 0.64786 0.15453 0.0
C1143 C 0.34566 0.56287 0.13857 0.0
C1144 C 0.38598 0.59594 0.14103 0.0
H1145 H 0.42848 0.60975 0.15512 0.0
C1146 C 0.38178 0.61081 0.12952 0.0
C1147 C 0.4024 0.59628 0.15141 0.0
C1148 C 0.407 0.58129 0.16493 0.0
C1149 C 0.39454 0.62496 0.12656 0.0
C1150 C 0.41193 0.62403 0.13517 0.0
C1151 C 0.41525 0.61031 0.14828 0.0
C1152 C 0.42775 0.63496 0.12846 0.0
C1153 C 0.38973 0.64019 0.11338 0.0
C1154 C 0.43367 0.63256 0.11029 0.0
C1155 C 0.44985 0.64078 0.10416 0.0
C1156 C 0.4605 0.65161 0.11608 0.0
C1157 C 0.45429 0.65447 0.13418 0.0
C1158 C 0.43811 0.64604 0.14038 0.0
H1159 H 0.37468 0.64278 0.11327 0.0
H1160 H 0.39697 0.65315 0.11696 0.0
H1161 H 0.39385 0.6361 0.09928 0.0
H1162 H 0.42614 0.62371 0.10098 0.0
H1163 H 0.45419 0.63832 0.09014 0.0
H1164 H 0.66255 0.43514 0.15599 0.0
H1165 H 0.64772 0.40699 0.16752 0.0
H1166 H 0.63355 0.39193 0.11196 0.0
H1167 H 0.64812 0.41966 0.10056 0.0
H1168 H 0.61095 0.40144 0.1628 0.0
H1169 H 0.64697 0.34241 0.13277 0.0
H1170 H 0.65792 0.36456 0.13549 0.0
H1171 H 0.64426 0.35961 0.1154 0.0
C1172 C 0.65675 0.42548 0.14627 0.0
C1173 C 0.65632 0.4296 0.12741 0.0
C1174 C 0.64831 0.40943 0.15286 0.0
C1175 C 0.6398 0.39717 0.14059 0.0
C1176 C 0.64044 0.40085 0.12168 0.0
H1177 H 0.55167 0.35498 0.10278 0.0
H1178 H 0.58168 0.36453 0.11398 0.0
C1179 C 0.64858 0.41687 0.11517 0.0
C1180 C 0.62734 0.38244 0.14709 0.0
H1181 H 0.61259 0.34049 0.1324 0.0
C1182 C 0.61163 0.38774 0.15697 0.0
C1183 C 0.62831 0.36448 0.13973 0.0
C1184 C 0.64542 0.35741 0.13044 0.0
C1185 C 0.59588 0.37662 0.1572 0.0
C1186 C 0.59599 0.35989 0.14737 0.0
C1187 C 0.61249 0.35346 0.13974 0.0
C1188 C 0.5786 0.35187 0.14067 0.0
C1189 C 0.57853 0.38379 0.16599 0.0
C1190 C 0.56707 0.34131 0.15195 0.0
C1191 C 0.54978 0.3357 0.14551 0.0
C1192 C 0.54382 0.34084 0.12784 0.0
C1193 C 0.55574 0.35094 0.1165 0.0
C1194 C 0.57295 0.35632 0.12284 0.0
H1195 H 0.58106 0.39633 0.17432 0.0
H1196 H 0.56833 0.38712 0.15515 0.0
H1197 H 0.57241 0.37308 0.17496 0.0
H1198 H 0.57125 0.33781 0.16579 0.0
H1199 H 0.54087 0.32791 0.15453 0.0
H1200 H 0.04383 0.29783 0.52968 0.0
H1201 H 0.0172 0.27903 0.5235 0.0
H1202 H 0.05156 0.23817 0.49761 0.0
H1203 H 0.07871 0.2575 0.50356 0.0
H1204 H 0.02457 0.24668 0.47568 0.0
H1205 H 0.99184 0.23459 0.5418 0.0
H1206 H 0.99857 0.25821 0.54224 0.0
H1207 H 0.01593 0.24053 0.54025 0.0
C1208 C 0.04588 0.28468 0.52301 0.0
C1209 C 0.06336 0.27925 0.51694 0.0
C1210 C 0.03059 0.27371 0.51974 0.0
C1211 C 0.03231 0.25689 0.51045 0.0
C1212 C 0.04991 0.25095 0.50505 0.0
H1213 H 0.9175 0.26298 0.49255 0.0
H1214 H 0.94313 0.24126 0.49624 0.0
C1215 C 0.06538 0.262 0.50843 0.0
C1216 C 0.01528 0.24777 0.50384 0.0
H1217 H 0.97047 0.24751 0.51707 0.0
C1218 C 0.01279 0.24601 0.48479 0.0
C1219 C -0.00013 0.24571 0.51552 0.0
C1220 C 0.00183 0.24463 0.5361 0.0
C1221 C 0.99508 0.24599 0.47718 0.0
C1222 C 0.97974 0.24854 0.48889 0.0
C1223 C 0.98218 0.24645 0.50791 0.0
C1224 C 0.96311 0.25854 0.4825 0.0
C1225 C 0.99309 0.24503 0.4566 0.0
C1226 C 0.9656 0.27522 0.47311 0.0
C1227 C 0.95113 0.2875 0.47106 0.0
C1228 C 0.93378 0.28358 0.47848 0.0
C1229 C 0.93076 0.26634 0.48667 0.0
C1230 C 0.94539 0.25393 0.48878 0.0
H1231 H 0.00235 0.23428 0.45095 0.0
H1232 H 0.97875 0.24193 0.4524 0.0
H1233 H 0.99738 0.25832 0.45045 0.0
H1234 H 0.97912 0.27955 0.46863 0.0
H1235 H 0.95386 0.30062 0.46456 0.0
H1236 H 0.71859 0.08853 0.49983 0.0
H1237 H 0.73592 0.05946 0.49956 0.0
H1238 H 0.69016 0.03213 0.52553 0.0
H1239 H 0.67298 0.06076 0.52588 0.0
H1240 H 0.72663 0.02089 0.53844 0.0
H1241 H 0.71853 0.01938 0.46219 0.0
H1242 H 0.72947 0.03864 0.47324 0.0
H1243 H 0.70518 0.03522 0.47581 0.0
C1244 C 0.71245 0.07637 0.50585 0.0
C1245 C 0.69434 0.07681 0.51265 0.0
C1246 C 0.72233 0.05981 0.50562 0.0
C1247 C 0.71423 0.04365 0.51237 0.0
C1248 C 0.69668 0.04445 0.52028 0.0
H1249 H 0.67643 0.94601 0.51706 0.0
H1250 H 0.6926 0.97469 0.52256 0.0
C1251 C 0.68682 0.06082 0.52036 0.0
C1252 C 0.72248 0.02529 0.50948 0.0
H1253 H 0.72035 0.99117 0.47746 0.0
C1254 C 0.72606 0.01445 0.525 0.0
C1255 C 0.72202 0.01695 0.49192 0.0
C1256 C 0.71861 0.02804 0.47476 0.0
C1257 C 0.72673 0.99524 0.52369 0.0
C1258 C 0.72348 0.9868 0.50652 0.0
C1259 C 0.72263 0.9977 0.49066 0.0
C1260 C 0.71596 0.96794 0.50538 0.0
C1261 C 0.72919 0.98409 0.54096 0.0
C1262 C 0.72369 0.95453 0.49383 0.0
C1263 C 0.71441 0.93791 0.49072 0.0
C1264 C 0.69707 0.93482 0.4987 0.0
C1265 C 0.68971 0.94806 0.51063 0.0
C1266 C 0.69907 0.96438 0.51397 0.0
H1267 H 0.73833 0.99134 0.55081 0.0
H1268 H 0.71564 0.98224 0.54772 0.0
H1269 H 0.73504 0.97033 0.53791 0.0
H1270 H 0.73657 0.95716 0.48684 0.0
H1271 H 0.72033 0.92791 0.48141 0.0
H1272 H 0.91516 0.72754 0.50279 0.0
H1273 H 0.94462 0.74418 0.50271 0.0
H1274 H 0.96999 0.69911 0.53161 0.0
H1275 H 0.94093 0.68263 0.53182 0.0
H1276 H 0.98238 0.73547 0.54284 0.0
H1277 H 0.98452 0.72407 0.467 0.0
H1278 H 0.96557 0.73632 0.47716 0.0
H1279 H 0.96796 0.71209 0.48101 0.0
C1280 C 0.92695 0.72143 0.5095 0.0
C1281 C 0.92585 0.70366 0.51705 0.0
C1282 C 0.94374 0.73092 0.50939 0.0
C1283 C 0.9595 0.72276 0.51696 0.0
C1284 C 0.958 0.70566 0.52569 0.0
H1285 H 0.05708 0.68377 0.52395 0.0
H1286 H 0.02892 0.70083 0.52935 0.0
C1287 C 0.94138 0.69619 0.52569 0.0
C1288 C 0.97816 0.73032 0.51401 0.0
H1289 H 0.01253 0.72647 0.48241 0.0
C1290 C 0.98894 0.73425 0.5295 0.0
C1291 C 0.98667 0.72904 0.49656 0.0
C1292 C 0.97569 0.72514 0.47941 0.0
C1293 C 0.00818 0.73461 0.52835 0.0
C1294 C 0.01673 0.73062 0.51137 0.0
C1295 C 0.00593 0.72932 0.49546 0.0
C1296 C 0.03557 0.72295 0.51059 0.0
C1297 C 0.01919 0.73766 0.54561 0.0
C1298 C 0.04881 0.72971 0.49825 0.0
C1299 C 0.06512 0.71988 0.49515 0.0
C1300 C 0.06806 0.70297 0.504 0.0
C1301 C 0.05513 0.69671 0.51687 0.0
C1302 C 0.03911 0.7066 0.52015 0.0
H1303 H 0.01209 0.74751 0.55486 0.0
H1304 H 0.02053 0.72445 0.5531 0.0
H1305 H 0.03317 0.74295 0.54247 0.0
H1306 H 0.0462 0.74215 0.49051 0.0
H1307 H 0.07487 0.72495 0.48511 0.0
H1308 H 0.27647 0.08067 0.49141 0.0
H1309 H 0.25727 0.05287 0.4932 0.0
H1310 H 0.29876 0.02253 0.46364 0.0
H1311 H 0.31778 0.04995 0.46181 0.0
H1312 H 0.26065 0.01282 0.45463 0.0
H1313 H 0.27596 0.01294 0.52978 0.0
H1314 H 0.26479 0.03232 0.51922 0.0
H1315 H 0.2886 0.02789 0.51459 0.0
C1316 C 0.28121 0.06816 0.48488 0.0
C1317 C 0.29873 0.06735 0.47672 0.0
C1318 C 0.27027 0.05231 0.48597 0.0
C1319 C 0.2767 0.03563 0.47872 0.0
C1320 C 0.29352 0.03528 0.4693 0.0
H1321 H 0.31198 0.93864 0.47227 0.0
H1322 H 0.2943 0.96639 0.46696 0.0
C1323 C 0.30444 0.05093 0.46837 0.0
C1324 C 0.26785 0.0178 0.4829 0.0
H1325 H 0.27218 0.98447 0.51544 0.0
C1326 C 0.26237 0.00671 0.46811 0.0
C1327 C 0.2697 0.00989 0.50055 0.0
C1328 C 0.27506 0.02128 0.51703 0.0
C1329 C 0.26129 0.98756 0.46999 0.0
C1330 C 0.26615 0.97944 0.48694 0.0
C1331 C 0.26874 0.99071 0.50236 0.0
C1332 C 0.27377 0.96058 0.48774 0.0
C1333 C 0.25667 0.97609 0.45338 0.0
C1334 C 0.26812 0.9479 0.50117 0.0
C1335 C 0.27832 0.93182 0.50423 0.0
C1336 C 0.29453 0.92857 0.49422 0.0
C1337 C 0.2996 0.94086 0.48026 0.0
C1338 C 0.28932 0.95663 0.47703 0.0
H1339 H 0.24619 0.98311 0.44479 0.0
H1340 H 0.26919 0.97435 0.44483 0.0
H1341 H 0.25146 0.96231 0.45733 0.0
H1342 H 0.25634 0.95083 0.50979 0.0
H1343 H 0.27419 0.92256 0.51512 0.0
H1344 H 0.46998 0.9447 0.30793 0.0
H1345 H 0.47433 0.97084 0.2879 0.0
H1346 H 0.49622 0.93536 0.2457 0.0
H1347 H 0.4921 0.90875 0.26616 0.0
H1348 H 0.51902 0.96269 0.25208 0.0
H1349 H 0.45158 0.99442 0.24427 0.0
H1350 H 0.45351 0.98847 0.26802 0.0
H1351 H 0.45399 0.97057 0.2508 0.0
C1352 C 0.47536 0.94231 0.29426 0.0
C1353 C 0.48086 0.92468 0.2887 0.0
C1354 C 0.47758 0.9573 0.28264 0.0
C1355 C 0.48523 0.9551 0.26506 0.0
C1356 C 0.49003 0.93736 0.25909 0.0
H1357 H 0.5037 0.07098 0.25955 0.0
H1358 H 0.49783 0.04305 0.24143 0.0
C1359 C 0.4877 0.9222 0.27078 0.0
C1360 C 0.49093 0.97182 0.25488 0.0
H1361 H 0.47722 0.01645 0.25306 0.0
C1362 C 0.50976 0.97435 0.25147 0.0
C1363 C 0.47893 0.987 0.25306 0.0
C1364 C 0.45835 0.98484 0.25402 0.0
C1365 C 0.51715 0.99207 0.24975 0.0
C1366 C 0.50549 0.00744 0.25213 0.0
C1367 C 0.48637 0.00474 0.25198 0.0
C1368 C 0.51254 0.02496 0.25989 0.0
C1369 C 0.5376 0.99415 0.24714 0.0
C1370 C 0.52305 0.02418 0.27605 0.0
C1371 C 0.52629 0.03994 0.28635 0.0
C1372 C 0.519 0.05692 0.28086 0.0
C1373 C 0.50951 0.05806 0.26408 0.0
C1374 C 0.50616 0.04212 0.25372 0.0
H1375 H 0.54268 0.98387 0.23706 0.0
H1376 H 0.54132 0.00813 0.24228 0.0
H1377 H 0.5447 0.99141 0.26034 0.0
H1378 H 0.52765 0.01114 0.28153 0.0
H1379 H 0.53375 0.03862 0.29916 0.0
H1380 H 0.95603 0.52571 0.3031 0.0
H1381 H 0.98251 0.51804 0.28456 0.0
H1382 H 0.94772 0.48923 0.24611 0.0
H1383 H 0.92074 0.49682 0.26511 0.0
H1384 H 0.97461 0.46772 0.25698 0.0
H1385 H 0.00771 0.53221 0.23831 0.0
H1386 H 0.00087 0.53489 0.26176 0.0
H1387 H 0.98359 0.53129 0.24427 0.0
C1388 C 0.95388 0.51811 0.29048 0.0
C1389 C 0.93635 0.51171 0.28566 0.0
C1390 C 0.96906 0.51396 0.27967 0.0
C1391 C 0.96716 0.50336 0.26365 0.0
C1392 C 0.9495 0.49766 0.25825 0.0
H1393 H 0.08205 0.48515 0.26982 0.0
H1394 H 0.05599 0.48683 0.24843 0.0
C1395 C 0.93413 0.50198 0.2691 0.0
C1396 C 0.98407 0.49578 0.25512 0.0
H1397 H 0.02895 0.50865 0.25327 0.0
C1398 C 0.98644 0.47664 0.25531 0.0
C1399 C -0.00047 0.50711 0.25184 0.0
C1400 C 0.99766 0.52751 0.2488 0.0
C1401 C 0.00411 0.46895 0.256 0.0
C1402 C 0.01952 0.48077 0.2572 0.0
C1403 C 0.01717 0.49951 0.25322 0.0
C1404 C 0.03628 0.4753 0.26752 0.0
C1405 C 0.00598 0.44837 0.25724 0.0
C1406 C 0.03405 0.46779 0.28516 0.0
C1407 C 0.04878 0.46687 0.29729 0.0
C1408 C 0.06612 0.47359 0.29219 0.0
C1409 C 0.06881 0.47985 0.27411 0.0
C1410 C 0.05394 0.48081 0.26188 0.0
H1411 H 0.99649 0.44164 0.24736 0.0
H1412 H 0.02024 0.44376 0.25435 0.0
H1413 H 0.00194 0.44373 0.2712 0.0
H1414 H 0.02058 0.46398 0.29021 0.0
H1415 H 0.04628 0.46185 0.31108 0.0
H1416 H 0.53142 0.95729 0.69591 0.0
H1417 H 0.52765 0.98189 0.71783 0.0
H1418 H 0.50857 0.94324 0.75858 0.0
H1419 H 0.51195 0.91819 0.73613 0.0
H1420 H 0.4854 0.97 0.75655 0.0
H1421 H 0.55176 0.00393 0.76105 0.0
H1422 H 0.54881 -0.0006 0.73711 0.0
H1423 H 0.5499 0.98045 0.75315 0.0
C1424 C 0.52677 0.95386 0.70963 0.0
C1425 C 0.52181 0.93579 0.71419 0.0
C1426 C 0.52491 0.96798 0.72235 0.0
C1427 C 0.51824 0.96447 0.74011 0.0
C1428 C 0.51401 0.94627 0.74506 0.0
H1429 H 0.49804 0.07774 0.74257 0.0
H1430 H 0.50484 0.05183 0.76315 0.0
C1431 C 0.51591 0.93199 0.73222 0.0
C1432 C 0.51279 0.98038 0.7517 0.0
H1433 H 0.52482 0.02545 0.75342 0.0
C1434 C 0.49422 0.98202 0.7567 0.0
C1435 C 0.52429 0.99599 0.75323 0.0
C1436 C 0.54485 0.99469 0.75106 0.0
C1437 C 0.48628 -0.00061 0.75931 0.0
C1438 C 0.49702 0.01527 0.75598 0.0
C1439 C 0.51622 0.01339 0.75502 0.0
C1440 C 0.48874 0.03206 0.74775 0.0
C1441 C 0.46608 0.00056 0.76374 0.0
C1442 C 0.47687 0.02984 0.73269 0.0
C1443 C 0.47303 0.04448 0.72108 0.0
C1444 C 0.48109 0.06173 0.72406 0.0
C1445 C 0.49165 0.06455 0.73998 0.0
C1446 C 0.49554 0.04974 0.75172 0.0
H1447 H 0.46263 0.99072 0.77488 0.0
H1448 H 0.46199 0.0146 0.76809 0.0
H1449 H 0.45792 0.99648 0.75151 0.0
H1450 H 0.47184 0.0164 0.72879 0.0
H1451 H 0.46473 0.04194 0.70899 0.0
H1452 H 0.91736 0.49114 0.72172 0.0
H1453 H 0.94618 0.49165 0.73933 0.0
H1454 H 0.97084 0.52583 0.69759 0.0
H1455 H 0.9424 0.52561 0.68038 0.0
H1456 H 0.97626 0.47639 0.72705 0.0
H1457 H 0.99469 0.54768 0.74148 0.0
H1458 H 0.97123 0.54107 0.73661 0.0
H1459 H 0.98679 0.54718 0.71823 0.0
C1460 C 0.92879 0.49925 0.71669 0.0
C1461 C 0.92773 0.50816 0.69957 0.0
C1462 C 0.94522 0.49955 0.72676 0.0
C1463 C 0.96065 0.50901 0.71998 0.0
C1464 C 0.95906 0.51888 0.70349 0.0
H1465 H 0.05174 0.48306 0.67542 0.0
H1466 H 0.02353 0.48326 0.6931 0.0
C1467 C 0.94281 0.51851 0.69345 0.0
C1468 C 0.97931 0.50589 0.7276 0.0
H1469 H 0.02041 0.52828 0.72816 0.0
C1470 C 0.98585 0.48775 0.72812 0.0
C1471 C 0.99193 0.52053 0.72979 0.0
C1472 C 0.98567 0.54017 0.73172 0.0
C1473 C 0.00475 0.48407 0.72755 0.0
C1474 C 0.01724 0.49889 0.72598 0.0
C1475 C 0.01083 0.51687 0.7287 0.0
C1476 C 0.03538 0.49643 0.71704 0.0
C1477 C 0.01108 0.46436 0.72694 0.0
C1478 C 0.05153 0.50396 0.72446 0.0
C1479 C 0.06786 0.50396 0.7142 0.0
C1480 C 0.0681 0.49676 0.69625 0.0
C1481 C 0.05203 0.48878 0.68916 0.0
C1482 C 0.03589 0.48865 0.6994 0.0
H1483 H 0.00235 0.45567 0.73596 0.0
H1484 H 0.00965 0.45903 0.71272 0.0
H1485 H 0.02565 0.46298 0.73127 0.0
H1486 H 0.05136 0.51029 0.73793 0.0
H1487 H 0.08004 0.51026 0.71999 0.0
H1488 H 0.26152 0.4817 0.92706 0.0
H1489 H 0.24147 0.48321 0.95439 0.0
H1490 H 0.27494 0.52711 0.97611 0.0
H1491 H 0.29479 0.52545 0.94939 0.0
H1492 H 0.25575 0.47577 0.98848 0.0
H1493 H 0.22443 0.54406 0.99192 0.0
H1494 H 0.23116 0.53365 0.97035 0.0
H1495 H 0.24751 0.54665 0.98375 0.0
C1496 C 0.26415 0.49199 0.9375 0.0
C1497 C 0.27973 0.50335 0.93632 0.0
C1498 C 0.2527 0.49289 0.95301 0.0
C1499 C 0.25646 0.50553 0.96714 0.0
C1500 C 0.27138 0.51761 0.96521 0.0
H1501 H 0.30091 0.52723 0.05319 0.0
H1502 H 0.28003 0.52567 0.02718 0.0
C1503 C 0.28291 0.51648 0.95004 0.0
C1504 C 0.24778 0.50409 0.98549 0.0
H1505 H 0.24019 0.53353 0.02103 0.0
C1506 C 0.25133 0.48808 0.99562 0.0
C1507 C 0.24154 0.51996 0.99479 0.0
C1508 C 0.23575 0.53696 0.98452 0.0
C1509 C 0.2523 0.48864 0.01486 0.0
C1510 C 0.24955 0.5056 0.02396 0.0
C1511 C 0.24268 0.52061 0.01401 0.0
C1512 C 0.25944 0.50946 0.04128 0.0
C1513 C 0.25892 0.47186 0.02506 0.0
C1514 C 0.25447 0.50141 0.05809 0.0
C1515 C 0.26648 0.50239 0.07315 0.0
C1516 C 0.28361 0.51119 0.07136 0.0
C1517 C 0.28789 0.5202 0.05489 0.0
C1518 C 0.27589 0.51943 0.04005 0.0
H1519 H 0.25952 0.45952 0.01609 0.0
H1520 H 0.27286 0.47445 0.0307 0.0
H1521 H 0.24961 0.4689 0.03677 0.0
H1522 H 0.24181 0.49368 0.05929 0.0
H1523 H 0.26289 0.49532 0.08574 0.0
H1524 H 0.51353 0.27636 0.91688 0.0
H1525 H 0.50915 0.25733 0.94456 0.0
H1526 H 0.47024 0.29696 0.96537 0.0
H1527 H 0.4747 0.31582 0.93825 0.0
H1528 H 0.51807 0.27124 0.97885 0.0
H1529 H 0.44603 0.24905 0.98059 0.0
H1530 H 0.45776 0.25444 0.95933 0.0
H1531 H 0.447 0.27235 0.97271 0.0
C1532 C 0.50369 0.28064 0.92719 0.0
C1533 C 0.49457 0.29759 0.92559 0.0
C1534 C 0.50117 0.26978 0.94292 0.0
C1535 C 0.4891 0.27553 0.95687 0.0
C1536 C 0.47923 0.29194 0.95461 0.0
H1537 H 0.47092 0.31719 0.04848 0.0
H1538 H 0.47136 0.29958 0.0201 0.0
C1539 C 0.48197 0.30286 0.93919 0.0
C1540 C 0.48903 0.26687 0.97527 0.0
H1541 H 0.45836 0.26162 0.01022 0.0
C1542 C 0.5052 0.26816 0.9857 0.0
C1543 C 0.47232 0.26249 0.98416 0.0
C1544 C 0.45486 0.2593 0.9735 0.0
C1545 C 0.50449 0.26837 0.00496 0.0
C1546 C 0.48722 0.26715 0.0138 0.0
C1547 C 0.47156 0.26286 0.0034 0.0
C1548 C 0.48448 0.27571 0.03201 0.0
C1549 C 0.52181 0.27239 0.01562 0.0
C1550 C 0.4913 0.2679 0.04826 0.0
C1551 C 0.491 0.27802 0.06468 0.0
C1552 C 0.48411 0.29609 0.06486 0.0
C1553 C 0.4765 0.30339 0.04874 0.0
C1554 C 0.47662 0.29328 0.03253 0.0
H1555 H 0.53423 0.27224 0.00674 0.0
H1556 H 0.52073 0.2861 0.02224 0.0
H1557 H 0.5236 0.26203 0.02666 0.0
H1558 H 0.49741 0.25433 0.04809 0.0
H1559 H 0.49695 0.27207 0.07694 0.0
H1560 H 0.68841 0.53197 0.95043 0.0
H1561 H 0.70712 0.53025 0.9778 0.0
H1562 H 0.75135 0.50607 0.94647 0.0
H1563 H 0.73219 0.50742 0.91871 0.0
H1564 H 0.7435 0.48496 0.97381 0.0
H1565 H 0.74866 0.55324 0.00403 0.0
H1566 H 0.72527 0.5511 0.99684 0.0
H1567 H 0.74348 0.5502 0.97993 0.0
C1568 C 0.7023 0.52673 0.94919 0.0
C1569 C 0.70873 0.51959 0.93248 0.0
C1570 C 0.71318 0.52603 0.96487 0.0
C1571 C 0.73086 0.51831 0.96426 0.0
C1572 C 0.73784 0.51228 0.94727 0.0
H1573 H 0.72945 0.50016 0.08124 0.0
H1574 H 0.74867 0.5069 0.05419 0.0
C1575 C 0.72689 0.51304 0.93143 0.0
C1576 C 0.7398 0.51328 0.9819 0.0
H1577 H 0.73796 0.52815 0.0262 0.0
C1578 C 0.74315 0.49456 0.9852 0.0
C1579 C 0.74031 0.5257 0.99685 0.0
C1580 C 0.73946 0.5462 0.9941 0.0
C1581 C 0.74345 0.48766 0.00318 0.0
C1582 C 0.7398 0.49971 0.01798 0.0
C1583 C 0.74002 0.51874 0.01482 0.0
C1584 C 0.73076 0.49297 0.03495 0.0
C1585 C 0.7458 0.46729 0.00601 0.0
C1586 C 0.71442 0.48286 0.03314 0.0
C1587 C 0.70347 0.47922 0.04835 0.0
C1588 C 0.7085 0.48563 0.06582 0.0
C1589 C 0.7253 0.495 0.06792 0.0
C1590 C 0.73627 0.49883 0.05251 0.0
H1591 H 0.75626 0.46176 0.99635 0.0
H1592 H 0.75001 0.46403 0.0203 0.0
H1593 H 0.73263 0.4602 0.00299 0.0
H1594 H 0.7095 0.47867 0.01974 0.0
H1595 H 0.69066 0.4719 0.04629 0.0
H1596 H 0.46672 0.6908 0.94843 0.0
H1597 H 0.46896 0.71066 0.97492 0.0
H1598 H 0.49197 0.75372 0.94122 0.0
H1599 H 0.49014 0.73338 0.91432 0.0
H1600 H 0.51345 0.7481 0.9687 0.0
H1601 H 0.44548 0.75287 -0.00054 0.0
H1602 H 0.44791 0.72923 0.99328 0.0
H1603 H 0.44833 0.74666 0.97557 0.0
C1604 C 0.47185 0.70464 0.94647 0.0
C1605 C 0.47847 0.71042 0.92932 0.0
C1606 C 0.47285 0.71618 0.96167 0.0
C1607 C 0.48032 0.73392 0.96013 0.0
C1608 C 0.48595 0.74019 0.94274 0.0
H1609 H 0.49648 0.73209 0.07566 0.0
H1610 H 0.4909 0.75271 0.04945 0.0
C1611 C 0.48492 0.72856 0.92739 0.0
C1612 C 0.48533 0.74383 0.97726 0.0
H1613 H 0.47098 0.74312 0.02171 0.0
C1614 C 0.50398 0.74785 0.98021 0.0
C1615 C 0.47307 0.74467 0.99233 0.0
C1616 C 0.45255 0.74335 0.98985 0.0
C1617 C 0.51107 0.74896 0.99809 0.0
C1618 C 0.49932 0.74529 0.01314 0.0
C1619 C 0.48025 0.74508 0.01021 0.0
C1620 C 0.5064 0.73631 0.03004 0.0
C1621 C 0.53138 0.75218 0.00059 0.0
C1622 C 0.51733 0.72053 0.028 0.0
C1623 C 0.52039 0.70883 0.04277 0.0
C1624 C 0.51253 0.71252 0.05997 0.0
C1625 C 0.50274 0.72898 0.06252 0.0
C1626 C 0.49955 0.74075 0.04757 0.0
H1627 H 0.53615 0.76317 0.99114 0.0
H1628 H 0.53478 0.75614 0.01493 0.0
H1629 H 0.53903 0.73949 0.99695 0.0
H1630 H 0.52233 0.71635 0.01463 0.0
H1631 H 0.52806 0.69629 0.04042 0.0
H1632 H 0.14977 0.25067 0.47247 0.0
H1633 H 0.17438 0.22783 0.47063 0.0
H1634 H 0.18948 0.23944 0.52672 0.0
H1635 H 0.16512 0.26244 0.52865 0.0
H1636 H 0.21923 0.23892 0.50261 0.0
H1637 H 0.17562 0.17675 0.49461 0.0
H1638 H 0.17109 0.19474 0.47834 0.0
H1639 H 0.16655 0.19852 0.50231 0.0
C1640 C 0.15826 0.2483 0.48444 0.0
C1641 C 0.15546 0.25834 0.50072 0.0
C1642 C 0.17225 0.23518 0.48339 0.0
C1643 C 0.18358 0.23181 0.49861 0.0
C1644 C 0.18083 0.24182 0.51485 0.0
H1645 H 0.25842 0.14194 0.51859 0.0
H1646 H 0.23333 0.16426 0.51898 0.0
C1647 C 0.16689 0.25493 0.51591 0.0
C1648 C 0.19867 0.21825 0.49754 0.0
H1649 H 0.20778 0.17266 0.49135 0.0
C1650 C 0.21675 0.22443 0.50014 0.0
C1651 C 0.19532 0.19935 0.49452 0.0
C1652 C 0.1761 0.19185 0.49244 0.0
C1653 C 0.23164 0.21221 0.49971 0.0
C1654 C 0.22833 0.19337 0.49629 0.0
C1655 C 0.21024 0.18715 0.4938 0.0
C1656 C 0.24345 0.1798 0.49575 0.0
C1657 C 0.25073 0.21949 0.50332 0.0
C1658 C 0.25731 0.18104 0.48241 0.0
C1659 C 0.2717 0.16834 0.48217 0.0
C1660 C 0.2724 0.15411 0.49521 0.0
C1661 C 0.25833 0.15276 0.50839 0.0
C1662 C 0.24396 0.16547 0.50862 0.0
H1663 H 0.2504 0.23321 0.51001 0.0
H1664 H 0.25862 0.20992 0.51218 0.0
H1665 H 0.25816 0.22089 0.49008 0.0
H1666 H 0.25697 0.19181 0.47215 0.0
H1667 H 0.28227 0.16969 0.47177 0.0
H1668 H 0.74696 0.14443 0.48429 0.0
H1669 H 0.77246 0.1663 0.4848 0.0
H1670 H 0.73855 0.2053 0.51386 0.0
H1671 H 0.71312 0.18333 0.51383 0.0
H1672 H 0.77438 0.2 0.46969 0.0
H1673 H 0.78453 0.20524 0.54496 0.0
H1674 H 0.77059 0.18753 0.5346 0.0
H1675 H 0.76142 0.21025 0.53798 0.0
C1676 C 0.74496 0.15761 0.49092 0.0
C1677 C 0.72804 0.16212 0.49909 0.0
C1678 C 0.75955 0.17009 0.49119 0.0
C1679 C 0.7575 0.18732 0.4996 0.0
C1680 C 0.74059 0.19191 0.50769 0.0
H1681 H 0.82628 0.28266 0.47865 0.0
H1682 H 0.80145 0.26005 0.47981 0.0
C1683 C 0.72603 0.17938 0.50756 0.0
C1684 C 0.77283 0.20073 0.49923 0.0
H1685 H 0.80013 0.22736 0.52654 0.0
C1686 C 0.78008 0.20592 0.48212 0.0
C1687 C 0.7804 0.20826 0.51548 0.0
C1688 C 0.77397 0.20241 0.5343 0.0
C1689 C 0.79452 0.21862 0.48079 0.0
C1690 C 0.80159 0.22671 0.497 0.0
C1691 C 0.79454 0.22131 0.51412 0.0
C1692 C 0.81649 0.24059 0.49651 0.0
C1693 C 0.80229 0.22298 0.46206 0.0
C1694 C 0.83297 0.23742 0.506 0.0
C1695 C 0.84709 0.25042 0.50557 0.0
C1696 C 0.845 0.26684 0.49561 0.0
C1697 C 0.82839 0.27007 0.48629 0.0
C1698 C 0.81422 0.25712 0.48685 0.0
H1699 H 0.79911 0.21198 0.45196 0.0
H1700 H 0.79608 0.23593 0.45696 0.0
H1701 H 0.81743 0.22483 0.46265 0.0
H1702 H 0.83497 0.22479 0.51362 0.0
H1703 H 0.8597 0.24752 0.51291 0.0
H1704 H 0.82092 0.72347 0.49668 0.0
H1705 H 0.79864 0.74848 0.49483 0.0
H1706 H 0.83305 0.78204 0.52947 0.0
H1707 H 0.85553 0.75703 0.53146 0.0
H1708 H 0.78092 0.76645 0.52664 0.0
H1709 H 0.82144 0.8137 0.48207 0.0
H1710 H 0.8261 0.78934 0.48332 0.0
H1711 H 0.83285 0.80415 0.50182 0.0
C1712 C 0.82382 0.73617 0.50387 0.0
C1713 C 0.84002 0.73828 0.5142 0.0
C1714 C 0.81106 0.75042 0.50281 0.0
C1715 C 0.81432 0.76708 0.51189 0.0
C1716 C 0.83044 0.7693 0.52221 0.0
H1717 H 0.73368 0.85334 0.53107 0.0
H1718 H 0.75885 0.83131 0.53436 0.0
C1719 C 0.8432 0.75499 0.52338 0.0
C1720 C 0.80055 0.78192 0.51083 0.0
H1721 H 0.79241 0.82414 0.49215 0.0
C1722 C 0.78342 0.77912 0.5192 0.0
C1723 C 0.80393 0.79829 0.50097 0.0
C1724 C 0.82201 0.80163 0.4914 0.0
C1725 C 0.76947 0.79233 0.51793 0.0
C1726 C 0.77284 0.80873 0.50811 0.0
C1727 C 0.78998 0.81155 0.49975 0.0
C1728 C 0.75843 0.82281 0.5059 0.0
C1729 C 0.75108 0.78851 0.52673 0.0
C1730 C 0.75021 0.82552 0.48871 0.0
C1731 C 0.73579 0.83803 0.48677 0.0
C1732 C 0.72949 0.84814 0.50199 0.0
C1733 C 0.73816 0.84574 0.51909 0.0
C1734 C 0.75251 0.83315 0.52102 0.0
H1735 H 0.74972 0.77396 0.53113 0.0
H1736 H 0.74943 0.7974 0.53902 0.0
H1737 H 0.73974 0.79179 0.51706 0.0
H1738 H 0.75468 0.81764 0.47689 0.0
H1739 H 0.72946 0.83963 0.4734 0.0
H1740 H 0.16808 0.72448 0.47456 0.0
H1741 H 0.19134 0.74873 0.47566 0.0
H1742 H 0.17164 0.76546 0.52897 0.0
H1743 H 0.14823 0.74134 0.52799 0.0
H1744 H 0.17784 0.79489 0.50375 0.0
H1745 H 0.23756 0.74762 0.50887 0.0
H1746 H 0.22226 0.74295 0.49007 0.0
H1747 H 0.21426 0.74028 0.51327 0.0
C1748 C 0.16866 0.73333 0.48652 0.0
C1749 C 0.15637 0.73092 0.50124 0.0
C1750 C 0.18202 0.74711 0.48715 0.0
C1751 C 0.18334 0.75867 0.50251 0.0
C1752 C 0.17087 0.75658 0.51705 0.0
H1753 H 0.2755 0.83012 0.5287 0.0
H1754 H 0.25071 0.8074 0.52982 0.0
C1755 C 0.15753 0.74278 0.51646 0.0
C1756 C 0.19773 0.77299 0.50339 0.0
H1757 H 0.24421 0.77919 0.50405 0.0
C1758 C 0.19236 0.79149 0.50389 0.0
C1759 C 0.21661 0.76844 0.50381 0.0
C1760 C 0.22309 0.74875 0.50414 0.0
C1761 C 0.20545 0.80565 0.50437 0.0
C1762 C 0.22435 0.80111 0.50416 0.0
C1763 C 0.2297 0.78259 0.50408 0.0
C1764 C 0.23883 0.81536 0.50378 0.0
C1765 C 0.19898 0.82532 0.50526 0.0
C1766 C 0.24038 0.82725 0.48871 0.0
C1767 C 0.25452 0.84021 0.488 0.0
C1768 C 0.26741 0.84145 0.50233 0.0
C1769 C 0.26577 0.82954 0.51746 0.0
C1770 C 0.25164 0.81656 0.51813 0.0
H1771 H 0.1845 0.8263 0.51001 0.0
H1772 H 0.20779 0.83355 0.51462 0.0
H1773 H 0.19981 0.83149 0.49135 0.0
H1774 H 0.23082 0.82631 0.47735 0.0
H1775 H 0.25543 0.84913 0.47613 0.0
H1776 H 0.46969 0.15027 0.2578 0.0
H1777 H 0.46842 0.17393 0.23388 0.0
H1778 H 0.52762 0.17546 0.23201 0.0
H1779 H 0.52909 0.15195 0.25593 0.0
H1780 H 0.48743 0.21068 0.23712 0.0
H1781 H 0.50911 0.16858 0.17709 0.0
H1782 H 0.49906 0.1586 0.19749 0.0
H1783 H 0.52252 0.16618 0.19771 0.0
C1784 C 0.48244 0.15555 0.25221 0.0
C1785 C 0.49949 0.14926 0.25875 0.0
C1786 C 0.48167 0.16905 0.23859 0.0
C1787 C 0.49793 0.17623 0.23115 0.0
C1788 C 0.51495 0.16988 0.23749 0.0
H1789 H 0.52907 0.25784 0.15153 0.0
H1790 H 0.52736 0.23241 0.17341 0.0
C1791 C 0.51574 0.15652 0.2512 0.0
C1792 C 0.49721 0.19101 0.21733 0.0
H1793 H 0.50722 0.20075 0.17263 0.0
C1794 C 0.49159 0.20854 0.22296 0.0
C1795 C 0.5028 0.18807 0.199 0.0
C1796 C 0.50861 0.16933 0.19232 0.0
C1797 C 0.49189 0.22346 0.21078 0.0
C1798 C 0.49751 0.22056 0.19239 0.0
C1799 C 0.50291 0.20292 0.18673 0.0
C1800 C 0.49831 0.23573 0.17891 0.0
C1801 C 0.48684 0.24227 0.21792 0.0
C1802 C 0.48248 0.24581 0.17454 0.0
C1803 C 0.48344 0.26045 0.1622 0.0
C1804 C 0.50022 0.26507 0.15379 0.0
C1805 C 0.51595 0.25464 0.15781 0.0
C1806 C 0.515 0.2401 0.17029 0.0
H1807 H 0.48777 0.243 0.23313 0.0
H1808 H 0.49591 0.25302 0.21198 0.0
H1809 H 0.47246 0.24543 0.21398 0.0
H1810 H 0.46937 0.24236 0.18069 0.0
H1811 H 0.47103 0.26811 0.15922 0.0
H1812 H 0.83377 0.52743 0.27073 0.0
H1813 H 0.80988 0.52652 0.2472 0.0
H1814 H 0.83022 0.47419 0.22826 0.0
H1815 H 0.85436 0.47503 0.25166 0.0
H1816 H 0.82277 0.4997 0.19988 0.0
H1817 H 0.76428 0.49302 0.24848 0.0
H1818 H 0.77929 0.51208 0.25309 0.0
H1819 H 0.78781 0.489 0.25523 0.0
C1820 C 0.83318 0.5157 0.26159 0.0
C1821 C 0.84591 0.50123 0.26313 0.0
C1822 C 0.81946 0.51518 0.24821 0.0
C1823 C 0.81815 0.50017 0.23621 0.0
C1824 C 0.83098 0.48585 0.23749 0.0
H1825 H 0.72559 0.47158 0.16752 0.0
H1826 H 0.75047 0.47232 0.19 0.0
C1827 C 0.84473 0.48635 0.25087 0.0
C1828 C 0.80342 0.49947 0.22226 0.0
H1829 H 0.75682 0.49843 0.21722 0.0
C1830 C 0.80834 0.49937 0.20363 0.0
C1831 C 0.78465 0.49885 0.22727 0.0
C1832 C 0.77863 0.49807 0.2471 0.0
C1833 C 0.79493 0.49893 0.1898 0.0
C1834 C 0.77615 0.49884 0.19481 0.0
C1835 C 0.77125 0.49868 0.21345 0.0
C1836 C 0.76132 0.49847 0.18095 0.0
C1837 C 0.80095 0.49825 0.16998 0.0
C1838 C 0.75909 0.51305 0.16854 0.0
C1839 C 0.74488 0.51268 0.15564 0.0
C1840 C 0.7326 0.49776 0.15503 0.0
C1841 C 0.73481 0.48326 0.1676 0.0
C1842 C 0.74902 0.48365 0.18046 0.0
H1843 H 0.81552 0.4939 0.16861 0.0
H1844 H 0.7922 0.48866 0.16195 0.0
H1845 H 0.7996 0.51215 0.16386 0.0
H1846 H 0.76824 0.52478 0.16895 0.0
H1847 H 0.74349 0.52409 0.1462 0.0
H1848 H 0.47308 0.74185 0.14308 0.0
H1849 H 0.47358 0.76484 0.16757 0.0
H1850 H 0.52551 0.74363 0.18663 0.0
H1851 H 0.52503 0.72041 0.16236 0.0
H1852 H 0.50023 0.74915 0.21463 0.0
H1853 H 0.5059 0.81084 0.17019 0.0
H1854 H 0.48696 0.79606 0.16451 0.0
H1855 H 0.51011 0.78788 0.16178 0.0
C1856 C 0.48464 0.7421 0.15244 0.0
C1857 C 0.49905 0.72934 0.15073 0.0
C1858 C 0.48495 0.75532 0.16635 0.0
C1859 C 0.49972 0.7561 0.17871 0.0
C1860 C 0.51404 0.7433 0.17715 0.0
H1861 H 0.5234 0.84511 0.2548 0.0
H1862 H 0.52465 0.82209 0.23032 0.0
C1863 C 0.51374 0.73006 0.16327 0.0
C1864 C 0.50001 0.76994 0.19359 0.0
H1865 H 0.4997 0.81611 0.20185 0.0
C1866 C 0.5002 0.7638 0.21186 0.0
C1867 C 0.5002 0.78902 0.18989 0.0
C1868 C 0.50096 0.79639 0.17054 0.0
C1869 C 0.5002 0.77624 0.22657 0.0
C1870 C 0.49971 0.79531 0.22287 0.0
C1871 C 0.4999 0.80147 0.20461 0.0
C1872 C 0.49895 0.80911 0.23777 0.0
C1873 C 0.50096 0.76888 0.24593 0.0
C1874 C 0.48398 0.80953 0.24991 0.0
C1875 C 0.48324 0.82262 0.26392 0.0
C1876 C 0.4974 0.83561 0.26595 0.0
C1877 C 0.51229 0.83527 0.25364 0.0
C1878 C 0.51303 0.82215 0.23964 0.0
H1879 H 0.50618 0.75454 0.24631 0.0
H1880 H 0.50988 0.77758 0.25475 0.0
H1881 H 0.48692 0.76892 0.25187 0.0
H1882 H 0.4728 0.79981 0.24846 0.0
H1883 H 0.47152 0.82258 0.2731 0.0
H1884 H 0.16848 0.46972 0.28189 0.0
H1885 H 0.19229 0.47067 0.25818 0.0
H1886 H 0.16982 0.52141 0.23746 0.0
H1887 H 0.14579 0.52045 0.2609 0.0
H1888 H 0.17717 0.49623 0.21014 0.0
H1889 H 0.23721 0.50429 0.2564 0.0
H1890 H 0.22298 0.48487 0.26182 0.0
H1891 H 0.21387 0.50773 0.26408 0.0
C1892 C 0.16864 0.48112 0.27233 0.0
C1893 C 0.15528 0.49504 0.27331 0.0
C1894 C 0.18232 0.48169 0.25887 0.0
C1895 C 0.18298 0.49626 0.24627 0.0
C1896 C 0.1696 0.5101 0.24713 0.0
H1897 H 0.27387 0.52168 0.17294 0.0
H1898 H 0.25008 0.52246 0.19671 0.0
C1899 C 0.15589 0.50952 0.26054 0.0
C1900 C 0.19729 0.49681 0.23182 0.0
H1901 H 0.24369 0.49779 0.22501 0.0
C1902 C 0.19172 0.49665 0.21337 0.0
C1903 C 0.21623 0.49762 0.23611 0.0
C1904 C 0.22297 0.49882 0.25567 0.0
C1905 C 0.20461 0.49691 0.19905 0.0
C1906 C 0.22357 0.49699 0.20335 0.0
C1907 C 0.22914 0.49754 0.22179 0.0
C1908 C 0.23786 0.49651 0.18889 0.0
C1909 C 0.19783 0.49734 0.17947 0.0
C1910 C 0.23896 0.48155 0.17678 0.0
C1911 C 0.25247 0.48109 0.16316 0.0
C1912 C 0.26523 0.49551 0.16151 0.0
C1913 C 0.26422 0.51038 0.17382 0.0
C1914 C 0.25067 0.51084 0.18742 0.0
H1915 H 0.1834 0.50226 0.17862 0.0
H1916 H 0.2066 0.50635 0.17082 0.0
H1917 H 0.19831 0.48324 0.17368 0.0
H1918 H 0.22945 0.47016 0.17795 0.0
H1919 H 0.25295 0.46938 0.15398 0.0
H1920 H 0.52911 0.73771 0.84022 0.0
H1921 H 0.52871 0.76164 0.81657 0.0
H1922 H 0.4706 0.75317 0.80877 0.0
H1923 H 0.47081 0.72915 0.83229 0.0
H1924 H 0.51256 0.75562 0.77712 0.0
H1925 H 0.48076 0.81091 0.81952 0.0
H1926 H 0.4937 0.7923 0.82964 0.0
H1927 H 0.47112 0.78813 0.82075 0.0
C1928 C 0.51623 0.74096 0.83352 0.0
C1929 C 0.49999 0.73156 0.83813 0.0
C1930 C 0.51605 0.75459 0.82002 0.0
C1931 C 0.49962 0.75914 0.8111 0.0
C1932 C 0.48338 0.74986 0.81565 0.0
H1933 H 0.47174 0.84358 0.73168 0.0
H1934 H 0.47093 0.819 0.75459 0.0
C1935 C 0.48355 0.73613 0.82904 0.0
C1936 C 0.49949 0.77342 0.79677 0.0
H1937 H 0.48673 0.8177 0.78845 0.0
C1938 C 0.50695 0.76922 0.77953 0.0
C1939 C 0.49198 0.79099 0.80005 0.0
C1940 C 0.48398 0.79602 0.81849 0.0
C1941 C 0.507 0.78221 0.76531 0.0
C1942 C 0.49984 0.79998 0.76868 0.0
C1943 C 0.49224 0.80408 0.78593 0.0
C1944 C 0.50035 0.81461 0.75459 0.0
C1945 C 0.51438 0.77665 0.74674 0.0
C1946 C 0.51717 0.82041 0.74717 0.0
C1947 C 0.51767 0.83432 0.734 0.0
C1948 C 0.50136 0.84289 0.7282 0.0
C1949 C 0.48454 0.83724 0.73585 0.0
C1950 C 0.48405 0.82321 0.74894 0.0
H1951 H 0.51409 0.76149 0.7449 0.0
H1952 H 0.50638 0.78308 0.73547 0.0
H1953 H 0.52889 0.7812 0.74554 0.0
H1954 H 0.52996 0.81429 0.7517 0.0
H1955 H 0.53087 0.83848 0.72851 0.0
H1956 H 0.25522 0.53464 0.84263 0.0
H1957 H 0.23236 0.53178 0.81812 0.0
H1958 H 0.24152 0.47329 0.81612 0.0
H1959 H 0.26444 0.47596 0.84055 0.0
H1960 H 0.23996 0.51445 0.78143 0.0
H1961 H 0.18398 0.4811 0.82155 0.0
H1962 H 0.20197 0.49444 0.83229 0.0
H1963 H 0.20673 0.47171 0.82403 0.0
C1964 C 0.25231 0.52115 0.83705 0.0
C1965 C 0.26162 0.50552 0.84353 0.0
C1966 C 0.23928 0.51956 0.82307 0.0
C1967 C 0.23521 0.50232 0.81552 0.0
C1968 C 0.24437 0.48668 0.82198 0.0
H1969 H 0.16075 0.46399 0.73096 0.0
H1970 H 0.18259 0.46667 0.75637 0.0
C1971 C 0.2575 0.48825 0.83587 0.0
C1972 C 0.22186 0.50075 0.80037 0.0
H1973 H 0.17938 0.48417 0.78958 0.0
C1974 C 0.22667 0.50791 0.78317 0.0
C1975 C 0.20468 0.49206 0.80278 0.0
C1976 C 0.19887 0.48446 0.82117 0.0
C1977 C 0.21477 0.50637 0.76811 0.0
C1978 C 0.19743 0.49788 0.77054 0.0
C1979 C 0.19266 0.49069 0.78779 0.0
C1980 C 0.18404 0.49636 0.75535 0.0
C1981 C 0.22108 0.51345 0.74966 0.0
C1982 C 0.1774 0.51218 0.7466 0.0
C1983 C 0.16505 0.5107 0.73201 0.0
C1984 C 0.15893 0.49335 0.72608 0.0
C1985 C 0.16524 0.47754 0.73518 0.0
C1986 C 0.17771 0.47904 0.7497 0.0
H1987 H 0.23629 0.51461 0.74896 0.0
H1988 H 0.21637 0.50433 0.73837 0.0
H1989 H 0.21524 0.52734 0.74736 0.0
H1990 H 0.18175 0.52569 0.75107 0.0
H1991 H 0.16029 0.52315 0.72541 0.0
H1992 H 0.52001 0.1465 0.75031 0.0
H1993 H 0.51951 0.17233 0.77183 0.0
H1994 H 0.46835 0.19099 0.74851 0.0
H1995 H 0.4688 0.16536 0.72681 0.0
H1996 H 0.49457 0.21889 0.75305 0.0
H1997 H 0.48555 0.17783 0.81673 0.0
H1998 H 0.50465 0.17097 0.80266 0.0
H1999 H 0.48163 0.16843 0.79411 0.0
C2000 C 0.50862 0.15607 0.74978 0.0
C2001 C 0.49441 0.15384 0.73689 0.0
C2002 C 0.50832 0.17075 0.76215 0.0
C2003 C 0.49377 0.18338 0.7619 0.0
C2004 C 0.47966 0.18131 0.74895 0.0
H2005 H 0.46608 0.26415 0.84498 0.0
H2006 H 0.46607 0.23872 0.823 0.0
C2007 C 0.47994 0.16665 0.73658 0.0
C2008 C 0.49337 0.19899 0.7749 0.0
H2009 H 0.49145 0.20967 0.82051 0.0
C2010 C 0.49386 0.21691 0.76781 0.0
C2011 C 0.49221 0.1963 0.7941 0.0
C2012 C 0.49081 0.17736 0.80241 0.0
C2013 C 0.49347 0.23226 0.77945 0.0
C2014 C 0.49283 0.22957 0.79867 0.0
C2015 C 0.49208 0.21166 0.80576 0.0
C2016 C 0.4928 0.24517 0.81169 0.0
C2017 C 0.49345 0.25123 0.77108 0.0
C2018 C 0.50791 0.2571 0.81266 0.0
C2019 C 0.50797 0.27165 0.82518 0.0
C2020 C 0.49294 0.27444 0.83702 0.0
C2021 C 0.47785 0.2624 0.83603 0.0
C2022 C 0.47782 0.24786 0.82351 0.0
H2023 H 0.48936 0.25092 0.75638 0.0
H2024 H 0.48397 0.26051 0.77862 0.0
H2025 H 0.5075 0.2571 0.77194 0.0
H2026 H 0.51975 0.25504 0.80387 0.0
H2027 H 0.51984 0.28062 0.82565 0.0
H2028 H 0.72338 0.52461 0.82916 0.0
H2029 H 0.74668 0.52425 0.80498 0.0
H2030 H 0.7713 0.4761 0.82911 0.0
H2031 H 0.74818 0.47644 0.85353 0.0
H2032 H 0.79678 0.50334 0.81909 0.0
H2033 H 0.74857 0.48744 0.7622 0.0
H2034 H 0.74212 0.5071 0.77565 0.0
H2035 H 0.74242 0.48471 0.78607 0.0
C2036 C 0.73374 0.51393 0.82935 0.0
C2037 C 0.73387 0.50048 0.84321 0.0
C2038 C 0.74698 0.5137 0.81546 0.0
C2039 C 0.76049 0.49997 0.81512 0.0
C2040 C 0.76089 0.48674 0.82911 0.0
H2041 H 0.83082 0.47582 0.72154 0.0
H2042 H 0.80919 0.47388 0.74721 0.0
C2043 C 0.74766 0.48695 0.84302 0.0
C2044 C 0.77431 0.49954 0.80023 0.0
H2045 H 0.77892 0.49612 0.75371 0.0
C2046 C 0.79292 0.50167 0.80479 0.0
C2047 C 0.76921 0.49709 0.78165 0.0
C2048 C 0.74951 0.49377 0.77606 0.0
C2049 C 0.80657 0.50188 0.79117 0.0
C2050 C 0.80139 0.50018 0.77253 0.0
C2051 C 0.78282 0.49759 0.76802 0.0
C2052 C 0.81497 0.50119 0.75744 0.0
C2053 C 0.82642 0.50375 0.79687 0.0
C2054 C 0.82526 0.51725 0.75464 0.0
C2055 C 0.83763 0.51841 0.74002 0.0
C2056 C 0.83983 0.50356 0.72785 0.0
C2057 C 0.82946 0.4875 0.73068 0.0
C2058 C 0.8171 0.48635 0.74532 0.0
H2059 H 0.82847 0.4999 0.81149 0.0
H2060 H 0.83546 0.49503 0.78819 0.0
H2061 H 0.83078 0.51826 0.79518 0.0
H2062 H 0.82352 0.529 0.76362 0.0
H2063 H 0.84533 0.53101 0.73817 0.0
loop_
_geom_bond_atom_site_label_1
_geom_bond_atom_site_label_2
_geom_bond_distance
_geom_bond_site_symmetry_2
_ccdc_geom_bond_type
Zn0 O3 2.031 . S
Zn0 O5 2.049 . S
Zn0 O10 2.067 . S
Zn1 O2 1.962 . S
Zn1 O4 1.986 . S
Zn1 O6 1.996 . S
Zn1 O9 1.943 . S
O2 Zn1 1.962 . S
O2 C7 1.254 . S
O3 Zn0 2.031 . S
O3 C7 1.269 . S
O4 Zn1 1.986 . S
O4 C11 1.262 . S
O5 Zn0 2.049 . S
O5 C13 1.260 . S
O6 Zn1 1.996 . S
O6 C13 1.257 . S
C7 O2 1.254 . S
C7 O3 1.269 . S
C8 O9 1.249 . S
C8 O10 1.270 . S
O9 Zn1 1.943 . S
O9 C8 1.249 . S
O10 Zn0 2.067 . S
O10 C8 1.270 . S
C11 O4 1.262 . S
C11 O12 1.232 . S
O12 C11 1.232 . S
C13 O5 1.260 . S
C13 O6 1.257 . S
Zn14 O17 2.031 . S
Zn14 O19 2.049 . S
Zn14 O24 2.067 . S
Zn15 O16 1.962 . S
Zn15 O18 1.986 . S
Zn15 O20 1.996 . S
Zn15 O23 1.943 . S
O16 Zn15 1.962 . S
O16 C21 1.254 . S
O17 Zn14 2.031 . S
O17 C21 1.269 . S
O18 Zn15 1.986 . S
O18 C25 1.262 . S
O19 Zn14 2.049 . S
O19 C27 1.260 . S
O20 Zn15 1.996 . S
O20 C27 1.257 . S
C21 O16 1.254 . S
C21 O17 1.269 . S
C22 O23 1.249 . S
C22 O24 1.270 . S
O23 Zn15 1.943 . S
O23 C22 1.249 . S
O24 Zn14 2.067 . S
O24 C22 1.270 . S
C25 O18 1.262 . S
C25 O26 1.232 . S
O26 C25 1.232 . S
C27 O19 1.260 . S
C27 O20 1.257 . S
Zn28 O31 2.031 . S
Zn28 O33 2.049 . S
Zn28 O38 2.067 . S
Zn29 O30 1.962 . S
Zn29 O32 1.986 . S
Zn29 O34 1.996 . S
Zn29 O37 1.943 . S
O30 Zn29 1.962 . S
O30 C35 1.254 . S
O31 Zn28 2.031 . S
O31 C35 1.269 . S
O32 Zn29 1.986 . S
O32 C39 1.262 . S
O33 Zn28 2.049 . S
O33 C41 1.260 . S
O34 Zn29 1.996 . S
O34 C41 1.257 . S
C35 O30 1.254 . S
C35 O31 1.269 . S
C36 O37 1.249 . S
C36 O38 1.270 . S
O37 Zn29 1.943 . S
O37 C36 1.249 . S
O38 Zn28 2.067 . S
O38 C36 1.270 . S
C39 O32 1.262 . S
C39 O40 1.232 . S
O40 C39 1.232 . S
C41 O33 1.260 . S
C41 O34 1.257 . S
Zn42 O45 2.031 . S
Zn42 O47 2.049 . S
Zn42 O52 2.067 . S
Zn43 O44 1.962 . S
Zn43 O46 1.986 . S
Zn43 O48 1.996 . S
Zn43 O51 1.943 . S
O44 Zn43 1.962 . S
O44 C49 1.254 . S
O45 Zn42 2.031 . S
O45 C49 1.269 . S
O46 Zn43 1.986 . S
O46 C53 1.262 . S
O47 Zn42 2.049 . S
O47 C55 1.260 . S
O48 Zn43 1.996 . S
O48 C55 1.257 . S
C49 O44 1.254 . S
C49 O45 1.269 . S
C50 O51 1.249 . S
C50 O52 1.270 . S
O51 Zn43 1.943 . S
O51 C50 1.249 . S
O52 Zn42 2.067 . S
O52 C50 1.270 . S
C53 O46 1.262 . S
C53 O54 1.232 . S
O54 C53 1.232 . S
C55 O47 1.260 . S
C55 O48 1.257 . S
Zn56 O59 2.031 . S
Zn56 O61 2.049 . S
Zn56 O66 2.067 . S
Zn57 O58 1.962 . S
Zn57 O60 1.986 . S
Zn57 O62 1.996 . S
Zn57 O65 1.943 . S
O58 Zn57 1.962 . S
O58 C63 1.254 . S
O59 Zn56 2.031 . S
O59 C63 1.269 . S
O60 Zn57 1.986 . S
O60 C67 1.262 . S
O61 Zn56 2.049 . S
O61 C69 1.260 . S
O62 Zn57 1.996 . S
O62 C69 1.257 . S
C63 O58 1.254 . S
C63 O59 1.269 . S
C64 O65 1.249 . S
C64 O66 1.270 . S
O65 Zn57 1.943 . S
O65 C64 1.249 . S
O66 Zn56 2.067 . S
O66 C64 1.270 . S
C67 O60 1.262 . S
C67 O68 1.232 . S
O68 C67 1.232 . S
C69 O61 1.260 . S
C69 O62 1.257 . S
Zn70 O73 2.031 . S
Zn70 O75 2.049 . S
Zn70 O80 2.067 . S
Zn71 O72 1.962 . S
Zn71 O74 1.986 . S
Zn71 O76 1.996 . S
Zn71 O79 1.943 . S
O72 Zn71 1.962 . S
O72 C77 1.254 . S
O73 Zn70 2.031 . S
O73 C77 1.269 . S
O74 Zn71 1.986 . S
O74 C81 1.262 . S
O75 Zn70 2.049 . S
O75 C83 1.260 . S
O76 Zn71 1.996 . S
O76 C83 1.257 . S
C77 O72 1.254 . S
C77 O73 1.269 . S
C78 O79 1.249 . S
C78 O80 1.270 . S
O79 Zn71 1.943 . S
O79 C78 1.249 . S
O80 Zn70 2.067 . S
O80 C78 1.270 . S
C81 O74 1.262 . S
C81 O82 1.232 . S
O82 C81 1.232 . S
C83 O75 1.260 . S
C83 O76 1.257 . S
Zn84 O87 2.031 . S
Zn84 O89 2.049 . S
Zn84 O94 2.067 . S
Zn85 O86 1.962 . S
Zn85 O88 1.986 . S
Zn85 O90 1.996 . S
Zn85 O93 1.943 . S
O86 Zn85 1.962 . S
O86 C91 1.254 . S
O87 Zn84 2.031 . S
O87 C91 1.269 . S
O88 Zn85 1.986 . S
O88 C95 1.262 . S
O89 Zn84 2.049 . S
O89 C97 1.260 . S
O90 Zn85 1.996 . S
O90 C97 1.257 . S
C91 O86 1.254 . S
C91 O87 1.269 . S
C92 O93 1.249 . S
C92 O94 1.270 . S
O93 Zn85 1.943 . S
O93 C92 1.249 . S
O94 Zn84 2.067 . S
O94 C92 1.270 . S
C95 O88 1.262 . S
C95 O96 1.232 . S
O96 C95 1.232 . S
C97 O89 1.260 . S
C97 O90 1.257 . S
Zn98 O101 2.031 . S
Zn98 O103 2.049 . S
Zn98 O108 2.067 . S
Zn99 O100 1.962 . S
Zn99 O102 1.986 . S
Zn99 O104 1.996 . S
Zn99 O107 1.943 . S
O100 Zn99 1.962 . S
O100 C105 1.254 . S
O101 Zn98 2.031 . S
O101 C105 1.269 . S
O102 Zn99 1.986 . S
O102 C109 1.262 . S
O103 Zn98 2.049 . S
O103 C111 1.260 . S
O104 Zn99 1.996 . S
O104 C111 1.257 . S
C105 O100 1.254 . S
C105 O101 1.269 . S
C106 O107 1.249 . S
C106 O108 1.270 . S
O107 Zn99 1.943 . S
O107 C106 1.249 . S
O108 Zn98 2.067 . S
O108 C106 1.270 . S
C109 O102 1.262 . S
C109 O110 1.232 . S
O110 C109 1.232 . S
C111 O103 1.260 . S
C111 O104 1.257 . S
Zn112 O115 2.031 . S
Zn112 O117 2.049 . S
Zn112 O122 2.067 . S
Zn113 O114 1.962 . S
Zn113 O116 1.986 . S
Zn113 O118 1.996 . S
Zn113 O121 1.943 . S
O114 Zn113 1.962 . S
O114 C119 1.254 . S
O115 Zn112 2.031 . S
O115 C119 1.269 . S
O116 Zn113 1.986 . S
O116 C123 1.262 . S
O117 Zn112 2.049 . S
O117 C125 1.260 . S
O118 Zn113 1.996 . S
O118 C125 1.257 . S
C119 O114 1.254 . S
C119 O115 1.269 . S
C120 O121 1.249 . S
C120 O122 1.270 . S
O121 Zn113 1.943 . S
O121 C120 1.249 . S
O122 Zn112 2.067 . S
O122 C120 1.270 . S
C123 O116 1.262 . S
C123 O124 1.232 . S
O124 C123 1.232 . S
C125 O117 1.260 . S
C125 O118 1.257 . S
Zn126 O129 2.031 . S
Zn126 O131 2.049 . S
Zn126 O136 2.067 . S
Zn127 O128 1.962 . S
Zn127 O130 1.986 . S
Zn127 O132 1.996 . S
Zn127 O135 1.943 . S
O128 Zn127 1.962 . S
O128 C133 1.254 . S
O129 Zn126 2.031 . S
O129 C133 1.269 . S
O130 Zn127 1.986 . S
O130 C137 1.262 . S
O131 Zn126 2.049 . S
O131 C139 1.260 . S
O132 Zn127 1.996 . S
O132 C139 1.257 . S
C133 O128 1.254 . S
C133 O129 1.269 . S
C134 O135 1.249 . S
C134 O136 1.270 . S
O135 Zn127 1.943 . S
O135 C134 1.249 . S
O136 Zn126 2.067 . S
O136 C134 1.270 . S
C137 O130 1.262 . S
C137 O138 1.232 . S
O138 C137 1.232 . S
C139 O131 1.260 . S
C139 O132 1.257 . S
Zn140 O143 2.031 . S
Zn140 O145 2.049 . S
Zn140 O150 2.067 . S
Zn141 O142 1.962 . S
Zn141 O144 1.986 . S
Zn141 O146 1.996 . S
Zn141 O149 1.943 . S
O142 Zn141 1.962 . S
O142 C147 1.254 . S
O143 Zn140 2.031 . S
O143 C147 1.269 . S
O144 Zn141 1.986 . S
O144 C151 1.262 . S
O145 Zn140 2.049 . S
O145 C153 1.260 . S
O146 Zn141 1.996 . S
O146 C153 1.257 . S
C147 O142 1.254 . S
C147 O143 1.269 . S
C148 O149 1.249 . S
C148 O150 1.270 . S
O149 Zn141 1.943 . S
O149 C148 1.249 . S
O150 Zn140 2.067 . S
O150 C148 1.270 . S
C151 O144 1.262 . S
C151 O152 1.232 . S
O152 C151 1.232 . S
C153 O145 1.260 . S
C153 O146 1.257 . S
Zn154 O157 2.031 . S
Zn154 O159 2.049 . S
Zn154 O164 2.067 . S
Zn155 O156 1.962 . S
Zn155 O158 1.986 . S
Zn155 O160 1.996 . S
Zn155 O163 1.943 . S
O156 Zn155 1.962 . S
O156 C161 1.254 . S
O157 Zn154 2.031 . S
O157 C161 1.269 . S
O158 Zn155 1.986 . S
O158 C165 1.262 . S
O159 Zn154 2.049 . S
O159 C167 1.260 . S
O160 Zn155 1.996 . S
O160 C167 1.257 . S
C161 O156 1.254 . S
C161 O157 1.269 . S
C162 O163 1.249 . S
C162 O164 1.270 . S
O163 Zn155 1.943 . S
O163 C162 1.249 . S
O164 Zn154 2.067 . S
O164 C162 1.270 . S
C165 O158 1.262 . S
C165 O166 1.232 . S
O166 C165 1.232 . S
C167 O159 1.260 . S
C167 O160 1.257 . S
Zn168 O171 2.031 . S
Zn168 O173 2.049 . S
Zn168 O178 2.067 . S
Zn169 O170 1.962 . S
Zn169 O172 1.986 . S
Zn169 O174 1.996 . S
Zn169 O177 1.943 . S
O170 Zn169 1.962 . S
O170 C175 1.254 . S
O171 Zn168 2.031 . S
O171 C175 1.269 . S
O172 Zn169 1.986 . S
O172 C179 1.262 . S
O173 Zn168 2.049 . S
O173 C181 1.260 . S
O174 Zn169 1.996 . S
O174 C181 1.257 . S
C175 O170 1.254 . S
C175 O171 1.269 . S
C176 O177 1.249 . S
C176 O178 1.270 . S
O177 Zn169 1.943 . S
O177 C176 1.249 . S
O178 Zn168 2.067 . S
O178 C176 1.270 . S
C179 O172 1.262 . S
C179 O180 1.232 . S
O180 C179 1.232 . S
C181 O173 1.260 . S
C181 O174 1.257 . S
Zn182 O185 2.031 . S
Zn182 O187 2.049 . S
Zn182 O192 2.067 . S
Zn183 O184 1.962 . S
Zn183 O186 1.986 . S
Zn183 O188 1.996 . S
Zn183 O191 1.943 . S
O184 Zn183 1.962 . S
O184 C189 1.254 . S
O185 Zn182 2.031 . S
O185 C189 1.269 . S
O186 Zn183 1.986 . S
O186 C193 1.262 . S
O187 Zn182 2.049 . S
O187 C195 1.260 . S
O188 Zn183 1.996 . S
O188 C195 1.257 . S
C189 O184 1.254 . S
C189 O185 1.269 . S
C190 O191 1.249 . S
C190 O192 1.270 . S
O191 Zn183 1.943 . S
O191 C190 1.249 . S
O192 Zn182 2.067 . S
O192 C190 1.270 . S
C193 O186 1.262 . S
C193 O194 1.232 . S
O194 C193 1.232 . S
C195 O187 1.260 . S
C195 O188 1.257 . S
Zn196 O199 2.031 . S
Zn196 O201 2.049 . S
Zn196 O206 2.067 . S
Zn197 O198 1.962 . S
Zn197 O200 1.986 . S
Zn197 O202 1.996 . S
Zn197 O205 1.943 . S
O198 Zn197 1.962 . S
O198 C203 1.254 . S
O199 Zn196 2.031 . S
O199 C203 1.269 . S
O200 Zn197 1.986 . S
O200 C207 1.262 . S
O201 Zn196 2.049 . S
O201 C209 1.260 . S
O202 Zn197 1.996 . S
O202 C209 1.257 . S
C203 O198 1.254 . S
C203 O199 1.269 . S
C204 O205 1.249 . S
C204 O206 1.270 . S
O205 Zn197 1.943 . S
O205 C204 1.249 . S
O206 Zn196 2.067 . S
O206 C204 1.270 . S
C207 O200 1.262 . S
C207 O208 1.232 . S
O208 C207 1.232 . S
C209 O201 1.260 . S
C209 O202 1.257 . S
Zn210 O213 2.031 . S
Zn210 O215 2.049 . S
Zn210 O220 2.067 . S
Zn211 O212 1.962 . S
Zn211 O214 1.986 . S
Zn211 O216 1.996 . S
Zn211 O219 1.943 . S
O212 Zn211 1.962 . S
O212 C217 1.254 . S
O213 Zn210 2.031 . S
O213 C217 1.269 . S
O214 Zn211 1.986 . S
O214 C221 1.262 . S
O215 Zn210 2.049 . S
O215 C223 1.260 . S
O216 Zn211 1.996 . S
O216 C223 1.257 . S
C217 O212 1.254 . S
C217 O213 1.269 . S
C218 O219 1.249 . S
C218 O220 1.270 . S
O219 Zn211 1.943 . S
O219 C218 1.249 . S
O220 Zn210 2.067 . S
O220 C218 1.270 . S
C221 O214 1.262 . S
C221 O222 1.232 . S
O222 C221 1.232 . S
C223 O215 1.260 . S
C223 O216 1.257 . S
Zn224 O227 2.031 . S
Zn224 O229 2.049 . S
Zn224 O234 2.067 . S
Zn225 O226 1.962 . S
Zn225 O228 1.986 . S
Zn225 O230 1.996 . S
Zn225 O233 1.943 . S
O226 Zn225 1.962 . S
O226 C231 1.254 . S
O227 Zn224 2.031 . S
O227 C231 1.269 . S
O228 Zn225 1.986 . S
O228 C235 1.262 . S
O229 Zn224 2.049 . S
O229 C237 1.260 . S
O230 Zn225 1.996 . S
O230 C237 1.257 . S
C231 O226 1.254 . S
C231 O227 1.269 . S
C232 O233 1.249 . S
C232 O234 1.270 . S
O233 Zn225 1.943 . S
O233 C232 1.249 . S
O234 Zn224 2.067 . S
O234 C232 1.270 . S
C235 O228 1.262 . S
C235 O236 1.232 . S
O236 C235 1.232 . S
C237 O229 1.260 . S
C237 O230 1.257 . S
Zn238 O241 2.031 . S
Zn238 O243 2.049 . S
Zn238 O248 2.067 . S
Zn239 O240 1.962 . S
Zn239 O242 1.986 . S
Zn239 O244 1.996 . S
Zn239 O247 1.943 . S
O240 Zn239 1.962 . S
O240 C245 1.254 . S
O241 Zn238 2.031 . S
O241 C245 1.269 . S
O242 Zn239 1.986 . S
O242 C249 1.262 . S
O243 Zn238 2.049 . S
O243 C251 1.260 . S
O244 Zn239 1.996 . S
O244 C251 1.257 . S
C245 O240 1.254 . S
C245 O241 1.269 . S
C246 O247 1.249 . S
C246 O248 1.270 . S
O247 Zn239 1.943 . S
O247 C246 1.249 . S
O248 Zn238 2.067 . S
O248 C246 1.270 . S
C249 O242 1.262 . S
C249 O250 1.232 . S
O250 C249 1.232 . S
C251 O243 1.260 . S
C251 O244 1.257 . S
Zn252 O255 2.031 . S
Zn252 O257 2.049 . S
Zn252 O262 2.067 . S
Zn253 O254 1.962 . S
Zn253 O256 1.986 . S
Zn253 O258 1.996 . S
Zn253 O261 1.943 . S
O254 Zn253 1.962 . S
O254 C259 1.254 . S
O255 Zn252 2.031 . S
O255 C259 1.269 . S
O256 Zn253 1.986 . S
O256 C263 1.262 . S
O257 Zn252 2.049 . S
O257 C265 1.260 . S
O258 Zn253 1.996 . S
O258 C265 1.257 . S
C259 O254 1.254 . S
C259 O255 1.269 . S
C260 O261 1.249 . S
C260 O262 1.270 . S
O261 Zn253 1.943 . S
O261 C260 1.249 . S
O262 Zn252 2.067 . S
O262 C260 1.270 . S
C263 O256 1.262 . S
C263 O264 1.232 . S
O264 C263 1.232 . S
C265 O257 1.260 . S
C265 O258 1.257 . S
Zn266 O269 2.031 . S
Zn266 O271 2.049 . S
Zn266 O276 2.067 . S
Zn267 O268 1.962 . S
Zn267 O270 1.986 . S
Zn267 O272 1.996 . S
Zn267 O275 1.943 . S
O268 Zn267 1.962 . S
O268 C273 1.254 . S
O269 Zn266 2.031 . S
O269 C273 1.269 . S
O270 Zn267 1.986 . S
O270 C277 1.262 . S
O271 Zn266 2.049 . S
O271 C279 1.260 . S
O272 Zn267 1.996 . S
O272 C279 1.257 . S
C273 O268 1.254 . S
C273 O269 1.269 . S
C274 O275 1.249 . S
C274 O276 1.270 . S
O275 Zn267 1.943 . S
O275 C274 1.249 . S
O276 Zn266 2.067 . S
O276 C274 1.270 . S
C277 O270 1.262 . S
C277 O278 1.232 . S
O278 C277 1.232 . S
C279 O271 1.260 . S
C279 O272 1.257 . S
Zn280 O283 2.031 . S
Zn280 O285 2.049 . S
Zn280 O290 2.067 . S
Zn281 O282 1.962 . S
Zn281 O284 1.986 . S
Zn281 O286 1.996 . S
Zn281 O289 1.943 . S
O282 Zn281 1.962 . S
O282 C287 1.254 . S
O283 Zn280 2.031 . S
O283 C287 1.269 . S
O284 Zn281 1.986 . S
O284 C291 1.262 . S
O285 Zn280 2.049 . S
O285 C293 1.260 . S
O286 Zn281 1.996 . S
O286 C293 1.257 . S
C287 O282 1.254 . S
C287 O283 1.269 . S
C288 O289 1.249 . S
C288 O290 1.270 . S
O289 Zn281 1.943 . S
O289 C288 1.249 . S
O290 Zn280 2.067 . S
O290 C288 1.270 . S
C291 O284 1.262 . S
C291 O292 1.232 . S
O292 C291 1.232 . S
C293 O285 1.260 . S
C293 O286 1.257 . S
Zn294 O297 2.031 . S
Zn294 O299 2.049 . S
Zn294 O304 2.067 . S
Zn295 O296 1.962 . S
Zn295 O298 1.986 . S
Zn295 O300 1.996 . S
Zn295 O303 1.943 . S
O296 Zn295 1.962 . S
O296 C301 1.254 . S
O297 Zn294 2.031 . S
O297 C301 1.269 . S
O298 Zn295 1.986 . S
O298 C305 1.262 . S
O299 Zn294 2.049 . S
O299 C307 1.260 . S
O300 Zn295 1.996 . S
O300 C307 1.257 . S
C301 O296 1.254 . S
C301 O297 1.269 . S
C302 O303 1.249 . S
C302 O304 1.270 . S
O303 Zn295 1.943 . S
O303 C302 1.249 . S
O304 Zn294 2.067 . S
O304 C302 1.270 . S
C305 O298 1.262 . S
C305 O306 1.232 . S
O306 C305 1.232 . S
C307 O299 1.260 . S
C307 O300 1.257 . S
Zn308 O311 2.031 . S
Zn308 O313 2.049 . S
Zn308 O318 2.067 . S
Zn309 O310 1.962 . S
Zn309 O312 1.986 . S
Zn309 O314 1.996 . S
Zn309 O317 1.943 . S
O310 Zn309 1.962 . S
O310 C315 1.254 . S
O311 Zn308 2.031 . S
O311 C315 1.269 . S
O312 Zn309 1.986 . S
O312 C319 1.262 . S
O313 Zn308 2.049 . S
O313 C321 1.260 . S
O314 Zn309 1.996 . S
O314 C321 1.257 . S
C315 O310 1.254 . S
C315 O311 1.269 . S
C316 O317 1.249 . S
C316 O318 1.270 . S
O317 Zn309 1.943 . S
O317 C316 1.249 . S
O318 Zn308 2.067 . S
O318 C316 1.270 . S
C319 O312 1.262 . S
C319 O320 1.232 . S
O320 C319 1.232 . S
C321 O313 1.260 . S
C321 O314 1.257 . S
Zn322 O325 2.031 . S
Zn322 O327 2.049 . S
Zn322 O332 2.067 . S
Zn323 O324 1.962 . S
Zn323 O326 1.986 . S
Zn323 O328 1.996 . S
Zn323 O331 1.943 . S
O324 Zn323 1.962 . S
O324 C329 1.254 . S
O325 Zn322 2.031 . S
O325 C329 1.269 . S
O326 Zn323 1.986 . S
O326 C333 1.262 . S
O327 Zn322 2.049 . S
O327 C335 1.260 . S
O328 Zn323 1.996 . S
O328 C335 1.257 . S
C329 O324 1.254 . S
C329 O325 1.269 . S
C330 O331 1.249 . S
C330 O332 1.270 . S
O331 Zn323 1.943 . S
O331 C330 1.249 . S
O332 Zn322 2.067 . S
O332 C330 1.270 . S
C333 O326 1.262 . S
C333 O334 1.232 . S
O334 C333 1.232 . S
C335 O327 1.260 . S
C335 O328 1.257 . S
H336 C344 0.929 . S
H337 C346 0.930 . S
H338 C348 0.930 . S
H339 C351 0.929 . S
H340 C354 0.930 . S
H341 C356 0.960 . S
H342 C356 0.960 . S
H343 C356 0.960 . S
C344 H336 0.929 . S
C344 C345 1.377 . S
C344 C346 1.384 . S
C345 C344 1.377 . S
C345 C351 1.390 . S
C346 H337 0.930 . S
C346 C344 1.384 . S
C346 C347 1.372 . S
C347 C346 1.372 . S
C347 C348 1.400 . S
C347 C352 1.490 . S
C348 H338 0.930 . S
C348 C347 1.400 . S
C348 C351 1.386 . S
H349 C365 0.930 . S
H350 C366 0.931 . S
C351 H339 0.929 . S
C351 C345 1.390 . S
C351 C348 1.386 . S
C352 C347 1.490 . S
C352 C354 1.395 . S
C352 C355 1.403 . S
H353 C359 0.930 . S
C354 H340 0.930 . S
C354 C352 1.395 . S
C354 C357 1.403 . S
C355 C352 1.403 . S
C355 C356 1.524 . S
C355 C359 1.400 . S
C356 H341 0.960 . S
C356 H342 0.960 . S
C356 H343 0.960 . S
C356 C355 1.524 . S
C357 C354 1.403 . S
C357 C358 1.392 . S
C357 C361 1.495 . S
C358 C357 1.392 . S
C358 C359 1.385 . S
C358 C360 1.478 . S
C359 H353 0.930 . S
C359 C355 1.400 . S
C359 C358 1.385 . S
C360 C358 1.478 . S
C360 C362 1.381 . S
C360 C366 1.383 . S
C361 C357 1.495 . S
C361 H367 0.959 . S
C361 H368 0.961 . S
C361 H369 0.960 . S
C362 C360 1.381 . S
C362 C363 1.394 . S
C362 H370 0.930 . S
C363 C362 1.394 . S
C363 C364 1.383 . S
C363 H371 0.929 . S
C364 C363 1.383 . S
C364 C365 1.377 . S
C365 H349 0.930 . S
C365 C364 1.377 . S
C365 C366 1.379 . S
C366 H350 0.931 . S
C366 C360 1.383 . S
C366 C365 1.379 . S
H367 C361 0.959 . S
H368 C361 0.961 . S
H369 C361 0.960 . S
H370 C362 0.930 . S
H371 C363 0.929 . S
H372 C380 0.929 . S
H373 C382 0.930 . S
H374 C384 0.930 . S
H375 C387 0.929 . S
H376 C390 0.930 . S
H377 C392 0.960 . S
H378 C392 0.960 . S
H379 C392 0.960 . S
C380 H372 0.929 . S
C380 C381 1.377 . S
C380 C382 1.384 . S
C381 C380 1.377 . S
C381 C387 1.390 . S
C382 H373 0.930 . S
C382 C380 1.384 . S
C382 C383 1.372 . S
C383 C382 1.372 . S
C383 C384 1.400 . S
C383 C388 1.490 . S
C384 H374 0.930 . S
C384 C383 1.400 . S
C384 C387 1.386 . S
H385 C401 0.930 . S
H386 C402 0.931 . S
C387 H375 0.929 . S
C387 C381 1.390 . S
C387 C384 1.386 . S
C388 C383 1.490 . S
C388 C390 1.395 . S
C388 C391 1.403 . S
H389 C395 0.930 . S
C390 H376 0.930 . S
C390 C388 1.395 . S
C390 C393 1.403 . S
C391 C388 1.403 . S
C391 C392 1.524 . S
C391 C395 1.400 . S
C392 H377 0.960 . S
C392 H378 0.960 . S
C392 H379 0.960 . S
C392 C391 1.524 . S
C393 C390 1.403 . S
C393 C394 1.392 . S
C393 C397 1.495 . S
C394 C393 1.392 . S
C394 C395 1.385 . S
C394 C396 1.478 . S
C395 H389 0.930 . S
C395 C391 1.400 . S
C395 C394 1.385 . S
C396 C394 1.478 . S
C396 C398 1.381 . S
C396 C402 1.383 . S
C397 C393 1.495 . S
C397 H403 0.959 . S
C397 H404 0.961 . S
C397 H405 0.960 . S
C398 C396 1.381 . S
C398 C399 1.394 . S
C398 H406 0.930 . S
C399 C398 1.394 . S
C399 C400 1.383 . S
C399 H407 0.929 . S
C400 C399 1.383 . S
C400 C401 1.377 . S
C401 H385 0.930 . S
C401 C400 1.377 . S
C401 C402 1.379 . S
C402 H386 0.931 . S
C402 C396 1.383 . S
C402 C401 1.379 . S
H403 C397 0.959 . S
H404 C397 0.961 . S
H405 C397 0.960 . S
H406 C398 0.930 . S
H407 C399 0.929 . S
H408 C416 0.929 . S
H409 C418 0.930 . S
H410 C420 0.930 . S
H411 C423 0.929 . S
H412 C426 0.930 . S
H413 C428 0.960 . S
H414 C428 0.960 . S
H415 C428 0.960 . S
C416 H408 0.929 . S
C416 C417 1.377 . S
C416 C418 1.384 . S
C417 C416 1.377 . S
C417 C423 1.390 . S
C418 H409 0.930 . S
C418 C416 1.384 . S
C418 C419 1.372 . S
C419 C418 1.372 . S
C419 C420 1.400 . S
C419 C424 1.490 . S
C420 H410 0.930 . S
C420 C419 1.400 . S
C420 C423 1.386 . S
H421 C437 0.930 . S
H422 C438 0.931 . S
C423 H411 0.929 . S
C423 C417 1.390 . S
C423 C420 1.386 . S
C424 C419 1.490 . S
C424 C426 1.395 . S
C424 C427 1.403 . S
H425 C431 0.930 . S
C426 H412 0.930 . S
C426 C424 1.395 . S
C426 C429 1.403 . S
C427 C424 1.403 . S
C427 C428 1.524 . S
C427 C431 1.400 . S
C428 H413 0.960 . S
C428 H414 0.960 . S
C428 H415 0.960 . S
C428 C427 1.524 . S
C429 C426 1.403 . S
C429 C430 1.392 . S
C429 C433 1.495 . S
C430 C429 1.392 . S
C430 C431 1.385 . S
C430 C432 1.478 . S
C431 H425 0.930 . S
C431 C427 1.400 . S
C431 C430 1.385 . S
C432 C430 1.478 . S
C432 C434 1.381 . S
C432 C438 1.383 . S
C433 C429 1.495 . S
C433 H439 0.959 . S
C433 H440 0.961 . S
C433 H441 0.960 . S
C434 C432 1.381 . S
C434 C435 1.394 . S
C434 H442 0.930 . S
C435 C434 1.394 . S
C435 C436 1.383 . S
C435 H443 0.929 . S
C436 C435 1.383 . S
C436 C437 1.377 . S
C437 H421 0.930 . S
C437 C436 1.377 . S
C437 C438 1.379 . S
C438 H422 0.931 . S
C438 C432 1.383 . S
C438 C437 1.379 . S
H439 C433 0.959 . S
H440 C433 0.961 . S
H441 C433 0.960 . S
H442 C434 0.930 . S
H443 C435 0.929 . S
H444 C452 0.929 . S
H445 C454 0.930 . S
H446 C456 0.930 . S
H447 C459 0.929 . S
H448 C462 0.930 . S
H449 C464 0.960 . S
H450 C464 0.960 . S
H451 C464 0.960 . S
C452 H444 0.929 . S
C452 C453 1.377 . S
C452 C454 1.384 . S
C453 C452 1.377 . S
C453 C459 1.390 . S
C454 H445 0.930 . S
C454 C452 1.384 . S
C454 C455 1.372 . S
C455 C454 1.372 . S
C455 C456 1.400 . S
C455 C460 1.490 . S
C456 H446 0.930 . S
C456 C455 1.400 . S
C456 C459 1.386 . S
H457 C473 0.930 . S
H458 C474 0.931 . S
C459 H447 0.929 . S
C459 C453 1.390 . S
C459 C456 1.386 . S
C460 C455 1.490 . S
C460 C462 1.395 . S
C460 C463 1.403 . S
H461 C467 0.930 . S
C462 H448 0.930 . S
C462 C460 1.395 . S
C462 C465 1.403 . S
C463 C460 1.403 . S
C463 C464 1.524 . S
C463 C467 1.400 . S
C464 H449 0.960 . S
C464 H450 0.960 . S
C464 H451 0.960 . S
C464 C463 1.524 . S
C465 C462 1.403 . S
C465 C466 1.392 . S
C465 C469 1.495 . S
C466 C465 1.392 . S
C466 C467 1.385 . S
C466 C468 1.478 . S
C467 H461 0.930 . S
C467 C463 1.400 . S
C467 C466 1.385 . S
C468 C466 1.478 . S
C468 C470 1.381 . S
C468 C474 1.383 . S
C469 C465 1.495 . S
C469 H475 0.959 . S
C469 H476 0.961 . S
C469 H477 0.960 . S
C470 C468 1.381 . S
C470 C471 1.394 . S
C470 H478 0.930 . S
C471 C470 1.394 . S
C471 C472 1.383 . S
C471 H479 0.929 . S
C472 C471 1.383 . S
C472 C473 1.377 . S
C473 H457 0.930 . S
C473 C472 1.377 . S
C473 C474 1.379 . S
C474 H458 0.931 . S
C474 C468 1.383 . S
C474 C473 1.379 . S
H475 C469 0.959 . S
H476 C469 0.961 . S
H477 C469 0.960 . S
H478 C470 0.930 . S
H479 C471 0.929 . S
H480 C488 0.929 . S
H481 C490 0.930 . S
H482 C492 0.930 . S
H483 C495 0.929 . S
H484 C498 0.930 . S
H485 C500 0.960 . S
H486 C500 0.960 . S
H487 C500 0.960 . S
C488 H480 0.929 . S
C488 C489 1.377 . S
C488 C490 1.384 . S
C489 C488 1.377 . S
C489 C495 1.390 . S
C490 H481 0.930 . S
C490 C488 1.384 . S
C490 C491 1.372 . S
C491 C490 1.372 . S
C491 C492 1.400 . S
C491 C496 1.490 . S
C492 H482 0.930 . S
C492 C491 1.400 . S
C492 C495 1.386 . S
H493 C509 0.930 . S
H494 C510 0.931 . S
C495 H483 0.929 . S
C495 C489 1.390 . S
C495 C492 1.386 . S
C496 C491 1.490 . S
C496 C498 1.395 . S
C496 C499 1.403 . S
H497 C503 0.930 . S
C498 H484 0.930 . S
C498 C496 1.395 . S
C498 C501 1.403 . S
C499 C496 1.403 . S
C499 C500 1.524 . S
C499 C503 1.400 . S
C500 H485 0.960 . S
C500 H486 0.960 . S
C500 H487 0.960 . S
C500 C499 1.524 . S
C501 C498 1.403 . S
C501 C502 1.392 . S
C501 C505 1.495 . S
C502 C501 1.392 . S
C502 C503 1.385 . S
C502 C504 1.478 . S
C503 H497 0.930 . S
C503 C499 1.400 . S
C503 C502 1.385 . S
C504 C502 1.478 . S
C504 C506 1.381 . S
C504 C510 1.383 . S
C505 C501 1.495 . S
C505 H511 0.959 . S
C505 H512 0.961 . S
C505 H513 0.960 . S
C506 C504 1.381 . S
C506 C507 1.394 . S
C506 H514 0.930 . S
C507 C506 1.394 . S
C507 C508 1.383 . S
C507 H515 0.929 . S
C508 C507 1.383 . S
C508 C509 1.377 . S
C509 H493 0.930 . S
C509 C508 1.377 . S
C509 C510 1.379 . S
C510 H494 0.931 . S
C510 C504 1.383 . S
C510 C509 1.379 . S
H511 C505 0.959 . S
H512 C505 0.961 . S
H513 C505 0.960 . S
H514 C506 0.930 . S
H515 C507 0.929 . S
H516 C524 0.929 . S
H517 C526 0.930 . S
H518 C528 0.930 . S
H519 C531 0.929 . S
H520 C534 0.930 . S
H521 C536 0.960 . S
H522 C536 0.960 . S
H523 C536 0.960 . S
C524 H516 0.929 . S
C524 C525 1.377 . S
C524 C526 1.384 . S
C525 C524 1.377 . S
C525 C531 1.390 . S
C526 H517 0.930 . S
C526 C524 1.384 . S
C526 C527 1.372 . S
C527 C526 1.372 . S
C527 C528 1.400 . S
C527 C532 1.490 . S
C528 H518 0.930 . S
C528 C527 1.400 . S
C528 C531 1.386 . S
H529 C545 0.930 . S
H530 C546 0.931 . S
C531 H519 0.929 . S
C531 C525 1.390 . S
C531 C528 1.386 . S
C532 C527 1.490 . S
C532 C534 1.395 . S
C532 C535 1.403 . S
H533 C539 0.930 . S
C534 H520 0.930 . S
C534 C532 1.395 . S
C534 C537 1.403 . S
C535 C532 1.403 . S
C535 C536 1.524 . S
C535 C539 1.400 . S
C536 H521 0.960 . S
C536 H522 0.960 . S
C536 H523 0.960 . S
C536 C535 1.524 . S
C537 C534 1.403 . S
C537 C538 1.392 . S
C537 C541 1.495 . S
C538 C537 1.392 . S
C538 C539 1.385 . S
C538 C540 1.478 . S
C539 H533 0.930 . S
C539 C535 1.400 . S
C539 C538 1.385 . S
C540 C538 1.478 . S
C540 C542 1.381 . S
C540 C546 1.383 . S
C541 C537 1.495 . S
C541 H547 0.959 . S
C541 H548 0.961 . S
C541 H549 0.960 . S
C542 C540 1.381 . S
C542 C543 1.394 . S
C542 H550 0.930 . S
C543 C542 1.394 . S
C543 C544 1.383 . S
C543 H551 0.929 . S
C544 C543 1.383 . S
C544 C545 1.377 . S
C545 H529 0.930 . S
C545 C544 1.377 . S
C545 C546 1.379 . S
C546 H530 0.931 . S
C546 C540 1.383 . S
C546 C545 1.379 . S
H547 C541 0.959 . S
H548 C541 0.961 . S
H549 C541 0.960 . S
H550 C542 0.930 . S
H551 C543 0.929 . S
H552 C560 0.929 . S
H553 C562 0.930 . S
H554 C564 0.930 . S
H555 C567 0.929 . S
H556 C570 0.930 . S
H557 C572 0.960 . S
H558 C572 0.960 . S
H559 C572 0.960 . S
C560 H552 0.929 . S
C560 C561 1.377 . S
C560 C562 1.384 . S
C561 C560 1.377 . S
C561 C567 1.390 . S
C562 H553 0.930 . S
C562 C560 1.384 . S
C562 C563 1.372 . S
C563 C562 1.372 . S
C563 C564 1.400 . S
C563 C568 1.490 . S
C564 H554 0.930 . S
C564 C563 1.400 . S
C564 C567 1.386 . S
H565 C581 0.930 . S
H566 C582 0.931 . S
C567 H555 0.929 . S
C567 C561 1.390 . S
C567 C564 1.386 . S
C568 C563 1.490 . S
C568 C570 1.395 . S
C568 C571 1.403 . S
H569 C575 0.930 . S
C570 H556 0.930 . S
C570 C568 1.395 . S
C570 C573 1.403 . S
C571 C568 1.403 . S
C571 C572 1.524 . S
C571 C575 1.400 . S
C572 H557 0.960 . S
C572 H558 0.960 . S
C572 H559 0.960 . S
C572 C571 1.524 . S
C573 C570 1.403 . S
C573 C574 1.392 . S
C573 C577 1.495 . S
C574 C573 1.392 . S
C574 C575 1.385 . S
C574 C576 1.478 . S
C575 H569 0.930 . S
C575 C571 1.400 . S
C575 C574 1.385 . S
C576 C574 1.478 . S
C576 C578 1.381 . S
C576 C582 1.383 . S
C577 C573 1.495 . S
C577 H583 0.959 . S
C577 H584 0.961 . S
C577 H585 0.960 . S
C578 C576 1.381 . S
C578 C579 1.394 . S
C578 H586 0.930 . S
C579 C578 1.394 . S
C579 C580 1.383 . S
C579 H587 0.929 . S
C580 C579 1.383 . S
C580 C581 1.377 . S
C581 H565 0.930 . S
C581 C580 1.377 . S
C581 C582 1.379 . S
C582 H566 0.931 . S
C582 C576 1.383 . S
C582 C581 1.379 . S
H583 C577 0.959 . S
H584 C577 0.961 . S
H585 C577 0.960 . S
H586 C578 0.930 . S
H587 C579 0.929 . S
H588 C596 0.929 . S
H589 C598 0.930 . S
H590 C600 0.930 . S
H591 C603 0.929 . S
H592 C606 0.930 . S
H593 C608 0.960 . S
H594 C608 0.960 . S
H595 C608 0.960 . S
C596 H588 0.929 . S
C596 C597 1.377 . S
C596 C598 1.384 . S
C597 C596 1.377 . S
C597 C603 1.390 . S
C598 H589 0.930 . S
C598 C596 1.384 . S
C598 C599 1.372 . S
C599 C598 1.372 . S
C599 C600 1.400 . S
C599 C604 1.490 . S
C600 H590 0.930 . S
C600 C599 1.400 . S
C600 C603 1.386 . S
H601 C617 0.930 . S
H602 C618 0.931 . S
C603 H591 0.929 . S
C603 C597 1.390 . S
C603 C600 1.386 . S
C604 C599 1.490 . S
C604 C606 1.395 . S
C604 C607 1.403 . S
H605 C611 0.930 . S
C606 H592 0.930 . S
C606 C604 1.395 . S
C606 C609 1.403 . S
C607 C604 1.403 . S
C607 C608 1.524 . S
C607 C611 1.400 . S
C608 H593 0.960 . S
C608 H594 0.960 . S
C608 H595 0.960 . S
C608 C607 1.524 . S
C609 C606 1.403 . S
C609 C610 1.392 . S
C609 C613 1.495 . S
C610 C609 1.392 . S
C610 C611 1.385 . S
C610 C612 1.478 . S
C611 H605 0.930 . S
C611 C607 1.400 . S
C611 C610 1.385 . S
C612 C610 1.478 . S
C612 C614 1.381 . S
C612 C618 1.383 . S
C613 C609 1.495 . S
C613 H619 0.959 . S
C613 H620 0.961 . S
C613 H621 0.960 . S
C614 C612 1.381 . S
C614 C615 1.394 . S
C614 H622 0.930 . S
C615 C614 1.394 . S
C615 C616 1.383 . S
C615 H623 0.929 . S
C616 C615 1.383 . S
C616 C617 1.377 . S
C617 H601 0.930 . S
C617 C616 1.377 . S
C617 C618 1.379 . S
C618 H602 0.931 . S
C618 C612 1.383 . S
C618 C617 1.379 . S
H619 C613 0.959 . S
H620 C613 0.961 . S
H621 C613 0.960 . S
H622 C614 0.930 . S
H623 C615 0.929 . S
H624 C632 0.929 . S
H625 C634 0.930 . S
H626 C636 0.930 . S
H627 C639 0.929 . S
H628 C642 0.930 . S
H629 C644 0.960 . S
H630 C644 0.960 . S
H631 C644 0.960 . S
C632 H624 0.929 . S
C632 C633 1.377 . S
C632 C634 1.384 . S
C633 C632 1.377 . S
C633 C639 1.390 . S
C634 H625 0.930 . S
C634 C632 1.384 . S
C634 C635 1.372 . S
C635 C634 1.372 . S
C635 C636 1.400 . S
C635 C640 1.490 . S
C636 H626 0.930 . S
C636 C635 1.400 . S
C636 C639 1.386 . S
H637 C653 0.930 . S
H638 C654 0.931 . S
C639 H627 0.929 . S
C639 C633 1.390 . S
C639 C636 1.386 . S
C640 C635 1.490 . S
C640 C642 1.395 . S
C640 C643 1.403 . S
H641 C647 0.930 . S
C642 H628 0.930 . S
C642 C640 1.395 . S
C642 C645 1.403 . S
C643 C640 1.403 . S
C643 C644 1.524 . S
C643 C647 1.400 . S
C644 H629 0.960 . S
C644 H630 0.960 . S
C644 H631 0.960 . S
C644 C643 1.524 . S
C645 C642 1.403 . S
C645 C646 1.392 . S
C645 C649 1.495 . S
C646 C645 1.392 . S
C646 C647 1.385 . S
C646 C648 1.478 . S
C647 H641 0.930 . S
C647 C643 1.400 . S
C647 C646 1.385 . S
C648 C646 1.478 . S
C648 C650 1.381 . S
C648 C654 1.383 . S
C649 C645 1.495 . S
C649 H655 0.959 . S
C649 H656 0.961 . S
C649 H657 0.960 . S
C650 C648 1.381 . S
C650 C651 1.394 . S
C650 H658 0.930 . S
C651 C650 1.394 . S
C651 C652 1.383 . S
C651 H659 0.929 . S
C652 C651 1.383 . S
C652 C653 1.377 . S
C653 H637 0.930 . S
C653 C652 1.377 . S
C653 C654 1.379 . S
C654 H638 0.931 . S
C654 C648 1.383 . S
C654 C653 1.379 . S
H655 C649 0.959 . S
H656 C649 0.961 . S
H657 C649 0.960 . S
H658 C650 0.930 . S
H659 C651 0.929 . S
H660 C668 0.929 . S
H661 C670 0.930 . S
H662 C672 0.930 . S
H663 C675 0.929 . S
H664 C678 0.930 . S
H665 C680 0.960 . S
H666 C680 0.960 . S
H667 C680 0.960 . S
C668 H660 0.929 . S
C668 C669 1.377 . S
C668 C670 1.384 . S
C669 C668 1.377 . S
C669 C675 1.390 . S
C670 H661 0.930 . S
C670 C668 1.384 . S
C670 C671 1.372 . S
C671 C670 1.372 . S
C671 C672 1.400 . S
C671 C676 1.490 . S
C672 H662 0.930 . S
C672 C671 1.400 . S
C672 C675 1.386 . S
H673 C689 0.930 . S
H674 C690 0.931 . S
C675 H663 0.929 . S
C675 C669 1.390 . S
C675 C672 1.386 . S
C676 C671 1.490 . S
C676 C678 1.395 . S
C676 C679 1.403 . S
H677 C683 0.930 . S
C678 H664 0.930 . S
C678 C676 1.395 . S
C678 C681 1.403 . S
C679 C676 1.403 . S
C679 C680 1.524 . S
C679 C683 1.400 . S
C680 H665 0.960 . S
C680 H666 0.960 . S
C680 H667 0.960 . S
C680 C679 1.524 . S
C681 C678 1.403 . S
C681 C682 1.392 . S
C681 C685 1.495 . S
C682 C681 1.392 . S
C682 C683 1.385 . S
C682 C684 1.478 . S
C683 H677 0.930 . S
C683 C679 1.400 . S
C683 C682 1.385 . S
C684 C682 1.478 . S
C684 C686 1.381 . S
C684 C690 1.383 . S
C685 C681 1.495 . S
C685 H691 0.959 . S
C685 H692 0.961 . S
C685 H693 0.960 . S
C686 C684 1.381 . S
C686 C687 1.394 . S
C686 H694 0.930 . S
C687 C686 1.394 . S
C687 C688 1.383 . S
C687 H695 0.929 . S
C688 C687 1.383 . S
C688 C689 1.377 . S
C689 H673 0.930 . S
C689 C688 1.377 . S
C689 C690 1.379 . S
C690 H674 0.931 . S
C690 C684 1.383 . S
C690 C689 1.379 . S
H691 C685 0.959 . S
H692 C685 0.961 . S
H693 C685 0.960 . S
H694 C686 0.930 . S
H695 C687 0.929 . S
H696 C704 0.929 . S
H697 C706 0.930 . S
H698 C708 0.930 . S
H699 C711 0.929 . S
H700 C714 0.930 . S
H701 C716 0.960 . S
H702 C716 0.960 . S
H703 C716 0.960 . S
C704 H696 0.929 . S
C704 C705 1.377 . S
C704 C706 1.384 . S
C705 C704 1.377 . S
C705 C711 1.390 . S
C706 H697 0.930 . S
C706 C704 1.384 . S
C706 C707 1.372 . S
C707 C706 1.372 . S
C707 C708 1.400 . S
C707 C712 1.490 . S
C708 H698 0.930 . S
C708 C707 1.400 . S
C708 C711 1.386 . S
H709 C725 0.930 . S
H710 C726 0.931 . S
C711 H699 0.929 . S
C711 C705 1.390 . S
C711 C708 1.386 . S
C712 C707 1.490 . S
C712 C714 1.395 . S
C712 C715 1.403 . S
H713 C719 0.930 . S
C714 H700 0.930 . S
C714 C712 1.395 . S
C714 C717 1.403 . S
C715 C712 1.403 . S
C715 C716 1.524 . S
C715 C719 1.400 . S
C716 H701 0.960 . S
C716 H702 0.960 . S
C716 H703 0.960 . S
C716 C715 1.524 . S
C717 C714 1.403 . S
C717 C718 1.392 . S
C717 C721 1.495 . S
C718 C717 1.392 . S
C718 C719 1.385 . S
C718 C720 1.478 . S
C719 H713 0.930 . S
C719 C715 1.400 . S
C719 C718 1.385 . S
C720 C718 1.478 . S
C720 C722 1.381 . S
C720 C726 1.383 . S
C721 C717 1.495 . S
C721 H727 0.959 . S
C721 H728 0.961 . S
C721 H729 0.960 . S
C722 C720 1.381 . S
C722 C723 1.394 . S
C722 H730 0.930 . S
C723 C722 1.394 . S
C723 C724 1.383 . S
C723 H731 0.929 . S
C724 C723 1.383 . S
C724 C725 1.377 . S
C725 H709 0.930 . S
C725 C724 1.377 . S
C725 C726 1.379 . S
C726 H710 0.931 . S
C726 C720 1.383 . S
C726 C725 1.379 . S
H727 C721 0.959 . S
H728 C721 0.961 . S
H729 C721 0.960 . S
H730 C722 0.930 . S
H731 C723 0.929 . S
H732 C740 0.929 . S
H733 C742 0.930 . S
H734 C744 0.930 . S
H735 C747 0.929 . S
H736 C750 0.930 . S
H737 C752 0.960 . S
H738 C752 0.960 . S
H739 C752 0.960 . S
C740 H732 0.929 . S
C740 C741 1.377 . S
C740 C742 1.384 . S
C741 C740 1.377 . S
C741 C747 1.390 . S
C742 H733 0.930 . S
C742 C740 1.384 . S
C742 C743 1.372 . S
C743 C742 1.372 . S
C743 C744 1.400 . S
C743 C748 1.490 . S
C744 H734 0.930 . S
C744 C743 1.400 . S
C744 C747 1.386 . S
H745 C761 0.930 . S
H746 C762 0.931 . S
C747 H735 0.929 . S
C747 C741 1.390 . S
C747 C744 1.386 . S
C748 C743 1.490 . S
C748 C750 1.395 . S
C748 C751 1.403 . S
H749 C755 0.930 . S
C750 H736 0.930 . S
C750 C748 1.395 . S
C750 C753 1.403 . S
C751 C748 1.403 . S
C751 C752 1.524 . S
C751 C755 1.400 . S
C752 H737 0.960 . S
C752 H738 0.960 . S
C752 H739 0.960 . S
C752 C751 1.524 . S
C753 C750 1.403 . S
C753 C754 1.392 . S
C753 C757 1.495 . S
C754 C753 1.392 . S
C754 C755 1.385 . S
C754 C756 1.478 . S
C755 H749 0.930 . S
C755 C751 1.400 . S
C755 C754 1.385 . S
C756 C754 1.478 . S
C756 C758 1.381 . S
C756 C762 1.383 . S
C757 C753 1.495 . S
C757 H763 0.959 . S
C757 H764 0.961 . S
C757 H765 0.960 . S
C758 C756 1.381 . S
C758 C759 1.394 . S
C758 H766 0.930 . S
C759 C758 1.394 . S
C759 C760 1.383 . S
C759 H767 0.929 . S
C760 C759 1.383 . S
C760 C761 1.377 . S
C761 H745 0.930 . S
C761 C760 1.377 . S
C761 C762 1.379 . S
C762 H746 0.931 . S
C762 C756 1.383 . S
C762 C761 1.379 . S
H763 C757 0.959 . S
H764 C757 0.961 . S
H765 C757 0.960 . S
H766 C758 0.930 . S
H767 C759 0.929 . S
H768 C776 0.929 . S
H769 C778 0.930 . S
H770 C780 0.930 . S
H771 C783 0.929 . S
H772 C786 0.930 . S
H773 C788 0.960 . S
H774 C788 0.960 . S
H775 C788 0.960 . S
C776 H768 0.929 . S
C776 C777 1.377 . S
C776 C778 1.384 . S
C777 C776 1.377 . S
C777 C783 1.390 . S
C778 H769 0.930 . S
C778 C776 1.384 . S
C778 C779 1.372 . S
C779 C778 1.372 . S
C779 C780 1.400 . S
C779 C784 1.490 . S
C780 H770 0.930 . S
C780 C779 1.400 . S
C780 C783 1.386 . S
H781 C797 0.930 . S
H782 C798 0.931 . S
C783 H771 0.929 . S
C783 C777 1.390 . S
C783 C780 1.386 . S
C784 C779 1.490 . S
C784 C786 1.395 . S
C784 C787 1.403 . S
H785 C791 0.930 . S
C786 H772 0.930 . S
C786 C784 1.395 . S
C786 C789 1.403 . S
C787 C784 1.403 . S
C787 C788 1.524 . S
C787 C791 1.400 . S
C788 H773 0.960 . S
C788 H774 0.960 . S
C788 H775 0.960 . S
C788 C787 1.524 . S
C789 C786 1.403 . S
C789 C790 1.392 . S
C789 C793 1.495 . S
C790 C789 1.392 . S
C790 C791 1.385 . S
C790 C792 1.478 . S
C791 H785 0.930 . S
C791 C787 1.400 . S
C791 C790 1.385 . S
C792 C790 1.478 . S
C792 C794 1.381 . S
C792 C798 1.383 . S
C793 C789 1.495 . S
C793 H799 0.959 . S
C793 H800 0.961 . S
C793 H801 0.960 . S
C794 C792 1.381 . S
C794 C795 1.394 . S
C794 H802 0.930 . S
C795 C794 1.394 . S
C795 C796 1.383 . S
C795 H803 0.929 . S
C796 C795 1.383 . S
C796 C797 1.377 . S
C797 H781 0.930 . S
C797 C796 1.377 . S
C797 C798 1.379 . S
C798 H782 0.931 . S
C798 C792 1.383 . S
C798 C797 1.379 . S
H799 C793 0.959 . S
H800 C793 0.961 . S
H801 C793 0.960 . S
H802 C794 0.930 . S
H803 C795 0.929 . S
H804 C812 0.929 . S
H805 C814 0.930 . S
H806 C816 0.930 . S
H807 C819 0.929 . S
H808 C822 0.930 . S
H809 C824 0.960 . S
H810 C824 0.960 . S
H811 C824 0.960 . S
C812 H804 0.929 . S
C812 C813 1.377 . S
C812 C814 1.384 . S
C813 C812 1.377 . S
C813 C819 1.390 . S
C814 H805 0.930 . S
C814 C812 1.384 . S
C814 C815 1.372 . S
C815 C814 1.372 . S
C815 C816 1.400 . S
C815 C820 1.490 . S
C816 H806 0.930 . S
C816 C815 1.400 . S
C816 C819 1.386 . S
H817 C833 0.930 . S
H818 C834 0.931 . S
C819 H807 0.929 . S
C819 C813 1.390 . S
C819 C816 1.386 . S
C820 C815 1.490 . S
C820 C822 1.395 . S
C820 C823 1.403 . S
H821 C827 0.930 . S
C822 H808 0.930 . S
C822 C820 1.395 . S
C822 C825 1.403 . S
C823 C820 1.403 . S
C823 C824 1.524 . S
C823 C827 1.400 . S
C824 H809 0.960 . S
C824 H810 0.960 . S
C824 H811 0.960 . S
C824 C823 1.524 . S
C825 C822 1.403 . S
C825 C826 1.392 . S
C825 C829 1.495 . S
C826 C825 1.392 . S
C826 C827 1.385 . S
C826 C828 1.478 . S
C827 H821 0.930 . S
C827 C823 1.400 . S
C827 C826 1.385 . S
C828 C826 1.478 . S
C828 C830 1.381 . S
C828 C834 1.383 . S
C829 C825 1.495 . S
C829 H835 0.959 . S
C829 H836 0.961 . S
C829 H837 0.960 . S
C830 C828 1.381 . S
C830 C831 1.394 . S
C830 H838 0.930 . S
C831 C830 1.394 . S
C831 C832 1.383 . S
C831 H839 0.929 . S
C832 C831 1.383 . S
C832 C833 1.377 . S
C833 H817 0.930 . S
C833 C832 1.377 . S
C833 C834 1.379 . S
C834 H818 0.931 . S
C834 C828 1.383 . S
C834 C833 1.379 . S
H835 C829 0.959 . S
H836 C829 0.961 . S
H837 C829 0.960 . S
H838 C830 0.930 . S
H839 C831 0.929 . S
H840 C848 0.929 . S
H841 C850 0.930 . S
H842 C852 0.930 . S
H843 C855 0.929 . S
H844 C858 0.930 . S
H845 C860 0.960 . S
H846 C860 0.960 . S
H847 C860 0.960 . S
C848 H840 0.929 . S
C848 C849 1.377 . S
C848 C850 1.384 . S
C849 C848 1.377 . S
C849 C855 1.390 . S
C850 H841 0.930 . S
C850 C848 1.384 . S
C850 C851 1.372 . S
C851 C850 1.372 . S
C851 C852 1.400 . S
C851 C856 1.490 . S
C852 H842 0.930 . S
C852 C851 1.400 . S
C852 C855 1.386 . S
H853 C869 0.930 . S
H854 C870 0.931 . S
C855 H843 0.929 . S
C855 C849 1.390 . S
C855 C852 1.386 . S
C856 C851 1.490 . S
C856 C858 1.395 . S
C856 C859 1.403 . S
H857 C863 0.930 . S
C858 H844 0.930 . S
C858 C856 1.395 . S
C858 C861 1.403 . S
C859 C856 1.403 . S
C859 C860 1.524 . S
C859 C863 1.400 . S
C860 H845 0.960 . S
C860 H846 0.960 . S
C860 H847 0.960 . S
C860 C859 1.524 . S
C861 C858 1.403 . S
C861 C862 1.392 . S
C861 C865 1.495 . S
C862 C861 1.392 . S
C862 C863 1.385 . S
C862 C864 1.478 . S
C863 H857 0.930 . S
C863 C859 1.400 . S
C863 C862 1.385 . S
C864 C862 1.478 . S
C864 C866 1.381 . S
C864 C870 1.383 . S
C865 C861 1.495 . S
C865 H871 0.959 . S
C865 H872 0.961 . S
C865 H873 0.960 . S
C866 C864 1.381 . S
C866 C867 1.394 . S
C866 H874 0.930 . S
C867 C866 1.394 . S
C867 C868 1.383 . S
C867 H875 0.929 . S
C868 C867 1.383 . S
C868 C869 1.377 . S
C869 H853 0.930 . S
C869 C868 1.377 . S
C869 C870 1.379 . S
C870 H854 0.931 . S
C870 C864 1.383 . S
C870 C869 1.379 . S
H871 C865 0.959 . S
H872 C865 0.961 . S
H873 C865 0.960 . S
H874 C866 0.930 . S
H875 C867 0.929 . S
H876 C884 0.929 . S
H877 C886 0.930 . S
H878 C888 0.930 . S
H879 C891 0.929 . S
H880 C894 0.930 . S
H881 C896 0.960 . S
H882 C896 0.960 . S
H883 C896 0.960 . S
C884 H876 0.929 . S
C884 C885 1.377 . S
C884 C886 1.384 . S
C885 C884 1.377 . S
C885 C891 1.390 . S
C886 H877 0.930 . S
C886 C884 1.384 . S
C886 C887 1.372 . S
C887 C886 1.372 . S
C887 C888 1.400 . S
C887 C892 1.490 . S
C888 H878 0.930 . S
C888 C887 1.400 . S
C888 C891 1.386 . S
H889 C905 0.930 . S
H890 C906 0.931 . S
C891 H879 0.929 . S
C891 C885 1.390 . S
C891 C888 1.386 . S
C892 C887 1.490 . S
C892 C894 1.395 . S
C892 C895 1.403 . S
H893 C899 0.930 . S
C894 H880 0.930 . S
C894 C892 1.395 . S
C894 C897 1.403 . S
C895 C892 1.403 . S
C895 C896 1.524 . S
C895 C899 1.400 . S
C896 H881 0.960 . S
C896 H882 0.960 . S
C896 H883 0.960 . S
C896 C895 1.524 . S
C897 C894 1.403 . S
C897 C898 1.392 . S
C897 C901 1.495 . S
C898 C897 1.392 . S
C898 C899 1.385 . S
C898 C900 1.478 . S
C899 H893 0.930 . S
C899 C895 1.400 . S
C899 C898 1.385 . S
C900 C898 1.478 . S
C900 C902 1.381 . S
C900 C906 1.383 . S
C901 C897 1.495 . S
C901 H907 0.959 . S
C901 H908 0.961 . S
C901 H909 0.960 . S
C902 C900 1.381 . S
C902 C903 1.394 . S
C902 H910 0.930 . S
C903 C902 1.394 . S
C903 C904 1.383 . S
C903 H911 0.929 . S
C904 C903 1.383 . S
C904 C905 1.377 . S
C905 H889 0.930 . S
C905 C904 1.377 . S
C905 C906 1.379 . S
C906 H890 0.931 . S
C906 C900 1.383 . S
C906 C905 1.379 . S
H907 C901 0.959 . S
H908 C901 0.961 . S
H909 C901 0.960 . S
H910 C902 0.930 . S
H911 C903 0.929 . S
H912 C920 0.929 . S
H913 C922 0.930 . S
H914 C924 0.930 . S
H915 C927 0.929 . S
H916 C930 0.930 . S
H917 C932 0.960 . S
H918 C932 0.960 . S
H919 C932 0.960 . S
C920 H912 0.929 . S
C920 C921 1.377 . S
C920 C922 1.384 . S
C921 C920 1.377 . S
C921 C927 1.390 . S
C922 H913 0.930 . S
C922 C920 1.384 . S
C922 C923 1.372 . S
C923 C922 1.372 . S
C923 C924 1.400 . S
C923 C928 1.490 . S
C924 H914 0.930 . S
C924 C923 1.400 . S
C924 C927 1.386 . S
H925 C941 0.930 . S
H926 C942 0.931 . S
C927 H915 0.929 . S
C927 C921 1.390 . S
C927 C924 1.386 . S
C928 C923 1.490 . S
C928 C930 1.395 . S
C928 C931 1.403 . S
H929 C935 0.930 . S
C930 H916 0.930 . S
C930 C928 1.395 . S
C930 C933 1.403 . S
C931 C928 1.403 . S
C931 C932 1.524 . S
C931 C935 1.400 . S
C932 H917 0.960 . S
C932 H918 0.960 . S
C932 H919 0.960 . S
C932 C931 1.524 . S
C933 C930 1.403 . S
C933 C934 1.392 . S
C933 C937 1.495 . S
C934 C933 1.392 . S
C934 C935 1.385 . S
C934 C936 1.478 . S
C935 H929 0.930 . S
C935 C931 1.400 . S
C935 C934 1.385 . S
C936 C934 1.478 . S
C936 C938 1.381 . S
C936 C942 1.383 . S
C937 C933 1.495 . S
C937 H943 0.959 . S
C937 H944 0.961 . S
C937 H945 0.960 . S
C938 C936 1.381 . S
C938 C939 1.394 . S
C938 H946 0.930 . S
C939 C938 1.394 . S
C939 C940 1.383 . S
C939 H947 0.929 . S
C940 C939 1.383 . S
C940 C941 1.377 . S
C941 H925 0.930 . S
C941 C940 1.377 . S
C941 C942 1.379 . S
C942 H926 0.931 . S
C942 C936 1.383 . S
C942 C941 1.379 . S
H943 C937 0.959 . S
H944 C937 0.961 . S
H945 C937 0.960 . S
H946 C938 0.930 . S
H947 C939 0.929 . S
H948 C956 0.929 . S
H949 C958 0.930 . S
H950 C960 0.930 . S
H951 C963 0.929 . S
H952 C966 0.930 . S
H953 C968 0.960 . S
H954 C968 0.960 . S
H955 C968 0.960 . S
C956 H948 0.929 . S
C956 C957 1.377 . S
C956 C958 1.384 . S
C957 C956 1.377 . S
C957 C963 1.390 . S
C958 H949 0.930 . S
C958 C956 1.384 . S
C958 C959 1.372 . S
C959 C958 1.372 . S
C959 C960 1.400 . S
C959 C964 1.490 . S
C960 H950 0.930 . S
C960 C959 1.400 . S
C960 C963 1.386 . S
H961 C977 0.930 . S
H962 C978 0.931 . S
C963 H951 0.929 . S
C963 C957 1.390 . S
C963 C960 1.386 . S
C964 C959 1.490 . S
C964 C966 1.395 . S
C964 C967 1.403 . S
H965 C971 0.930 . S
C966 H952 0.930 . S
C966 C964 1.395 . S
C966 C969 1.403 . S
C967 C964 1.403 . S
C967 C968 1.524 . S
C967 C971 1.400 . S
C968 H953 0.960 . S
C968 H954 0.960 . S
C968 H955 0.960 . S
C968 C967 1.524 . S
C969 C966 1.403 . S
C969 C970 1.392 . S
C969 C973 1.495 . S
C970 C969 1.392 . S
C970 C971 1.385 . S
C970 C972 1.478 . S
C971 H965 0.930 . S
C971 C967 1.400 . S
C971 C970 1.385 . S
C972 C970 1.478 . S
C972 C974 1.381 . S
C972 C978 1.383 . S
C973 C969 1.495 . S
C973 H979 0.959 . S
C973 H980 0.961 . S
C973 H981 0.960 . S
C974 C972 1.381 . S
C974 C975 1.394 . S
C974 H982 0.930 . S
C975 C974 1.394 . S
C975 C976 1.383 . S
C975 H983 0.929 . S
C976 C975 1.383 . S
C976 C977 1.377 . S
C977 H961 0.930 . S
C977 C976 1.377 . S
C977 C978 1.379 . S
C978 H962 0.931 . S
C978 C972 1.383 . S
C978 C977 1.379 . S
H979 C973 0.959 . S
H980 C973 0.961 . S
H981 C973 0.960 . S
H982 C974 0.930 . S
H983 C975 0.929 . S
H984 C992 0.929 . S
H985 C994 0.930 . S
H986 C996 0.930 . S
H987 C999 0.929 . S
H988 C1002 0.930 . S
H989 C1004 0.960 . S
H990 C1004 0.960 . S
H991 C1004 0.960 . S
C992 H984 0.929 . S
C992 C993 1.377 . S
C992 C994 1.384 . S
C993 C992 1.377 . S
C993 C999 1.390 . S
C994 H985 0.930 . S
C994 C992 1.384 . S
C994 C995 1.372 . S
C995 C994 1.372 . S
C995 C996 1.400 . S
C995 C1000 1.490 . S
C996 H986 0.930 . S
C996 C995 1.400 . S
C996 C999 1.386 . S
H997 C1013 0.930 . S
H998 C1014 0.931 . S
C999 H987 0.929 . S
C999 C993 1.390 . S
C999 C996 1.386 . S
C1000 C995 1.490 . S
C1000 C1002 1.395 . S
C1000 C1003 1.403 . S
H1001 C1007 0.930 . S
C1002 H988 0.930 . S
C1002 C1000 1.395 . S
C1002 C1005 1.403 . S
C1003 C1000 1.403 . S
C1003 C1004 1.524 . S
C1003 C1007 1.400 . S
C1004 H989 0.960 . S
C1004 H990 0.960 . S
C1004 H991 0.960 . S
C1004 C1003 1.524 . S
C1005 C1002 1.403 . S
C1005 C1006 1.392 . S
C1005 C1009 1.495 . S
C1006 C1005 1.392 . S
C1006 C1007 1.385 . S
C1006 C1008 1.478 . S
C1007 H1001 0.930 . S
C1007 C1003 1.400 . S
C1007 C1006 1.385 . S
C1008 C1006 1.478 . S
C1008 C1010 1.381 . S
C1008 C1014 1.383 . S
C1009 C1005 1.495 . S
C1009 H1015 0.959 . S
C1009 H1016 0.961 . S
C1009 H1017 0.960 . S
C1010 C1008 1.381 . S
C1010 C1011 1.394 . S
C1010 H1018 0.930 . S
C1011 C1010 1.394 . S
C1011 C1012 1.383 . S
C1011 H1019 0.929 . S
C1012 C1011 1.383 . S
C1012 C1013 1.377 . S
C1013 H997 0.930 . S
C1013 C1012 1.377 . S
C1013 C1014 1.379 . S
C1014 H998 0.931 . S
C1014 C1008 1.383 . S
C1014 C1013 1.379 . S
H1015 C1009 0.959 . S
H1016 C1009 0.961 . S
H1017 C1009 0.960 . S
H1018 C1010 0.930 . S
H1019 C1011 0.929 . S
H1020 C1028 0.929 . S
H1021 C1030 0.930 . S
H1022 C1032 0.930 . S
H1023 C1035 0.929 . S
H1024 C1038 0.930 . S
H1025 C1040 0.960 . S
H1026 C1040 0.960 . S
H1027 C1040 0.960 . S
C1028 H1020 0.929 . S
C1028 C1029 1.377 . S
C1028 C1030 1.384 . S
C1029 C1028 1.377 . S
C1029 C1035 1.390 . S
C1030 H1021 0.930 . S
C1030 C1028 1.384 . S
C1030 C1031 1.372 . S
C1031 C1030 1.372 . S
C1031 C1032 1.400 . S
C1031 C1036 1.490 . S
C1032 H1022 0.930 . S
C1032 C1031 1.400 . S
C1032 C1035 1.386 . S
H1033 C1049 0.930 . S
H1034 C1050 0.931 . S
C1035 H1023 0.929 . S
C1035 C1029 1.390 . S
C1035 C1032 1.386 . S
C1036 C1031 1.490 . S
C1036 C1038 1.395 . S
C1036 C1039 1.403 . S
H1037 C1043 0.930 . S
C1038 H1024 0.930 . S
C1038 C1036 1.395 . S
C1038 C1041 1.403 . S
C1039 C1036 1.403 . S
C1039 C1040 1.524 . S
C1039 C1043 1.400 . S
C1040 H1025 0.960 . S
C1040 H1026 0.960 . S
C1040 H1027 0.960 . S
C1040 C1039 1.524 . S
C1041 C1038 1.403 . S
C1041 C1042 1.392 . S
C1041 C1045 1.495 . S
C1042 C1041 1.392 . S
C1042 C1043 1.385 . S
C1042 C1044 1.478 . S
C1043 H1037 0.930 . S
C1043 C1039 1.400 . S
C1043 C1042 1.385 . S
C1044 C1042 1.478 . S
C1044 C1046 1.381 . S
C1044 C1050 1.383 . S
C1045 C1041 1.495 . S
C1045 H1051 0.959 . S
C1045 H1052 0.961 . S
C1045 H1053 0.960 . S
C1046 C1044 1.381 . S
C1046 C1047 1.394 . S
C1046 H1054 0.930 . S
C1047 C1046 1.394 . S
C1047 C1048 1.383 . S
C1047 H1055 0.929 . S
C1048 C1047 1.383 . S
C1048 C1049 1.377 . S
C1049 H1033 0.930 . S
C1049 C1048 1.377 . S
C1049 C1050 1.379 . S
C1050 H1034 0.931 . S
C1050 C1044 1.383 . S
C1050 C1049 1.379 . S
H1051 C1045 0.959 . S
H1052 C1045 0.961 . S
H1053 C1045 0.960 . S
H1054 C1046 0.930 . S
H1055 C1047 0.929 . S
H1056 C1064 0.929 . S
H1057 C1066 0.930 . S
H1058 C1068 0.930 . S
H1059 C1071 0.929 . S
H1060 C1074 0.930 . S
H1061 C1076 0.960 . S
H1062 C1076 0.960 . S
H1063 C1076 0.960 . S
C1064 H1056 0.929 . S
C1064 C1065 1.377 . S
C1064 C1066 1.384 . S
C1065 C1064 1.377 . S
C1065 C1071 1.390 . S
C1066 H1057 0.930 . S
C1066 C1064 1.384 . S
C1066 C1067 1.372 . S
C1067 C1066 1.372 . S
C1067 C1068 1.400 . S
C1067 C1072 1.490 . S
C1068 H1058 0.930 . S
C1068 C1067 1.400 . S
C1068 C1071 1.386 . S
H1069 C1085 0.930 . S
H1070 C1086 0.931 . S
C1071 H1059 0.929 . S
C1071 C1065 1.390 . S
C1071 C1068 1.386 . S
C1072 C1067 1.490 . S
C1072 C1074 1.395 . S
C1072 C1075 1.403 . S
H1073 C1079 0.930 . S
C1074 H1060 0.930 . S
C1074 C1072 1.395 . S
C1074 C1077 1.403 . S
C1075 C1072 1.403 . S
C1075 C1076 1.524 . S
C1075 C1079 1.400 . S
C1076 H1061 0.960 . S
C1076 H1062 0.960 . S
C1076 H1063 0.960 . S
C1076 C1075 1.524 . S
C1077 C1074 1.403 . S
C1077 C1078 1.392 . S
C1077 C1081 1.495 . S
C1078 C1077 1.392 . S
C1078 C1079 1.385 . S
C1078 C1080 1.478 . S
C1079 H1073 0.930 . S
C1079 C1075 1.400 . S
C1079 C1078 1.385 . S
C1080 C1078 1.478 . S
C1080 C1082 1.381 . S
C1080 C1086 1.383 . S
C1081 C1077 1.495 . S
C1081 H1087 0.959 . S
C1081 H1088 0.961 . S
C1081 H1089 0.960 . S
C1082 C1080 1.381 . S
C1082 C1083 1.394 . S
C1082 H1090 0.930 . S
C1083 C1082 1.394 . S
C1083 C1084 1.383 . S
C1083 H1091 0.929 . S
C1084 C1083 1.383 . S
C1084 C1085 1.377 . S
C1085 H1069 0.930 . S
C1085 C1084 1.377 . S
C1085 C1086 1.379 . S
C1086 H1070 0.931 . S
C1086 C1080 1.383 . S
C1086 C1085 1.379 . S
H1087 C1081 0.959 . S
H1088 C1081 0.961 . S
H1089 C1081 0.960 . S
H1090 C1082 0.930 . S
H1091 C1083 0.929 . S
H1092 C1100 0.929 . S
H1093 C1102 0.930 . S
H1094 C1104 0.930 . S
H1095 C1107 0.929 . S
H1096 C1110 0.930 . S
H1097 C1112 0.960 . S
H1098 C1112 0.960 . S
H1099 C1112 0.960 . S
C1100 H1092 0.929 . S
C1100 C1101 1.377 . S
C1100 C1102 1.384 . S
C1101 C1100 1.377 . S
C1101 C1107 1.390 . S
C1102 H1093 0.930 . S
C1102 C1100 1.384 . S
C1102 C1103 1.372 . S
C1103 C1102 1.372 . S
C1103 C1104 1.400 . S
C1103 C1108 1.490 . S
C1104 H1094 0.930 . S
C1104 C1103 1.400 . S
C1104 C1107 1.386 . S
H1105 C1121 0.930 . S
H1106 C1122 0.931 . S
C1107 H1095 0.929 . S
C1107 C1101 1.390 . S
C1107 C1104 1.386 . S
C1108 C1103 1.490 . S
C1108 C1110 1.395 . S
C1108 C1111 1.403 . S
H1109 C1115 0.930 . S
C1110 H1096 0.930 . S
C1110 C1108 1.395 . S
C1110 C1113 1.403 . S
C1111 C1108 1.403 . S
C1111 C1112 1.524 . S
C1111 C1115 1.400 . S
C1112 H1097 0.960 . S
C1112 H1098 0.960 . S
C1112 H1099 0.960 . S
C1112 C1111 1.524 . S
C1113 C1110 1.403 . S
C1113 C1114 1.392 . S
C1113 C1117 1.495 . S
C1114 C1113 1.392 . S
C1114 C1115 1.385 . S
C1114 C1116 1.478 . S
C1115 H1109 0.930 . S
C1115 C1111 1.400 . S
C1115 C1114 1.385 . S
C1116 C1114 1.478 . S
C1116 C1118 1.381 . S
C1116 C1122 1.383 . S
C1117 C1113 1.495 . S
C1117 H1123 0.959 . S
C1117 H1124 0.961 . S
C1117 H1125 0.960 . S
C1118 C1116 1.381 . S
C1118 C1119 1.394 . S
C1118 H1126 0.930 . S
C1119 C1118 1.394 . S
C1119 C1120 1.383 . S
C1119 H1127 0.929 . S
C1120 C1119 1.383 . S
C1120 C1121 1.377 . S
C1121 H1105 0.930 . S
C1121 C1120 1.377 . S
C1121 C1122 1.379 . S
C1122 H1106 0.931 . S
C1122 C1116 1.383 . S
C1122 C1121 1.379 . S
H1123 C1117 0.959 . S
H1124 C1117 0.961 . S
H1125 C1117 0.960 . S
H1126 C1118 0.930 . S
H1127 C1119 0.929 . S
H1128 C1136 0.929 . S
H1129 C1138 0.930 . S
H1130 C1140 0.930 . S
H1131 C1143 0.929 . S
H1132 C1146 0.930 . S
H1133 C1148 0.960 . S
H1134 C1148 0.960 . S
H1135 C1148 0.960 . S
C1136 H1128 0.929 . S
C1136 C1137 1.377 . S
C1136 C1138 1.384 . S
C1137 C1136 1.377 . S
C1137 C1143 1.390 . S
C1138 H1129 0.930 . S
C1138 C1136 1.384 . S
C1138 C1139 1.372 . S
C1139 C1138 1.372 . S
C1139 C1140 1.400 . S
C1139 C1144 1.490 . S
C1140 H1130 0.930 . S
C1140 C1139 1.400 . S
C1140 C1143 1.386 . S
H1141 C1157 0.930 . S
H1142 C1158 0.931 . S
C1143 H1131 0.929 . S
C1143 C1137 1.390 . S
C1143 C1140 1.386 . S
C1144 C1139 1.490 . S
C1144 C1146 1.395 . S
C1144 C1147 1.403 . S
H1145 C1151 0.930 . S
C1146 H1132 0.930 . S
C1146 C1144 1.395 . S
C1146 C1149 1.403 . S
C1147 C1144 1.403 . S
C1147 C1148 1.524 . S
C1147 C1151 1.400 . S
C1148 H1133 0.960 . S
C1148 H1134 0.960 . S
C1148 H1135 0.960 . S
C1148 C1147 1.524 . S
C1149 C1146 1.403 . S
C1149 C1150 1.392 . S
C1149 C1153 1.495 . S
C1150 C1149 1.392 . S
C1150 C1151 1.385 . S
C1150 C1152 1.478 . S
C1151 H1145 0.930 . S
C1151 C1147 1.400 . S
C1151 C1150 1.385 . S
C1152 C1150 1.478 . S
C1152 C1154 1.381 . S
C1152 C1158 1.383 . S
C1153 C1149 1.495 . S
C1153 H1159 0.959 . S
C1153 H1160 0.961 . S
C1153 H1161 0.960 . S
C1154 C1152 1.381 . S
C1154 C1155 1.394 . S
C1154 H1162 0.930 . S
C1155 C1154 1.394 . S
C1155 C1156 1.383 . S
C1155 H1163 0.929 . S
C1156 C1155 1.383 . S
C1156 C1157 1.377 . S
C1157 H1141 0.930 . S
C1157 C1156 1.377 . S
C1157 C1158 1.379 . S
C1158 H1142 0.931 . S
C1158 C1152 1.383 . S
C1158 C1157 1.379 . S
H1159 C1153 0.959 . S
H1160 C1153 0.961 . S
H1161 C1153 0.960 . S
H1162 C1154 0.930 . S
H1163 C1155 0.929 . S
H1164 C1172 0.929 . S
H1165 C1174 0.930 . S
H1166 C1176 0.930 . S
H1167 C1179 0.929 . S
H1168 C1182 0.930 . S
H1169 C1184 0.960 . S
H1170 C1184 0.960 . S
H1171 C1184 0.960 . S
C1172 H1164 0.929 . S
C1172 C1173 1.377 . S
C1172 C1174 1.384 . S
C1173 C1172 1.377 . S
C1173 C1179 1.390 . S
C1174 H1165 0.930 . S
C1174 C1172 1.384 . S
C1174 C1175 1.372 . S
C1175 C1174 1.372 . S
C1175 C1176 1.400 . S
C1175 C1180 1.490 . S
C1176 H1166 0.930 . S
C1176 C1175 1.400 . S
C1176 C1179 1.386 . S
H1177 C1193 0.930 . S
H1178 C1194 0.931 . S
C1179 H1167 0.929 . S
C1179 C1173 1.390 . S
C1179 C1176 1.386 . S
C1180 C1175 1.490 . S
C1180 C1182 1.395 . S
C1180 C1183 1.403 . S
H1181 C1187 0.930 . S
C1182 H1168 0.930 . S
C1182 C1180 1.395 . S
C1182 C1185 1.403 . S
C1183 C1180 1.403 . S
C1183 C1184 1.524 . S
C1183 C1187 1.400 . S
C1184 H1169 0.960 . S
C1184 H1170 0.960 . S
C1184 H1171 0.960 . S
C1184 C1183 1.524 . S
C1185 C1182 1.403 . S
C1185 C1186 1.392 . S
C1185 C1189 1.495 . S
C1186 C1185 1.392 . S
C1186 C1187 1.385 . S
C1186 C1188 1.478 . S
C1187 H1181 0.930 . S
C1187 C1183 1.400 . S
C1187 C1186 1.385 . S
C1188 C1186 1.478 . S
C1188 C1190 1.381 . S
C1188 C1194 1.383 . S
C1189 C1185 1.495 . S
C1189 H1195 0.959 . S
C1189 H1196 0.961 . S
C1189 H1197 0.960 . S
C1190 C1188 1.381 . S
C1190 C1191 1.394 . S
C1190 H1198 0.930 . S
C1191 C1190 1.394 . S
C1191 C1192 1.383 . S
C1191 H1199 0.929 . S
C1192 C1191 1.383 . S
C1192 C1193 1.377 . S
C1193 H1177 0.930 . S
C1193 C1192 1.377 . S
C1193 C1194 1.379 . S
C1194 H1178 0.931 . S
C1194 C1188 1.383 . S
C1194 C1193 1.379 . S
H1195 C1189 0.959 . S
H1196 C1189 0.961 . S
H1197 C1189 0.960 . S
H1198 C1190 0.930 . S
H1199 C1191 0.929 . S
H1200 C1208 0.929 . S
H1201 C1210 0.930 . S
H1202 C1212 0.930 . S
H1203 C1215 0.929 . S
H1204 C1218 0.930 . S
H1205 C1220 0.960 . S
H1206 C1220 0.960 . S
H1207 C1220 0.960 . S
C1208 H1200 0.929 . S
C1208 C1209 1.377 . S
C1208 C1210 1.384 . S
C1209 C1208 1.377 . S
C1209 C1215 1.390 . S
C1210 H1201 0.930 . S
C1210 C1208 1.384 . S
C1210 C1211 1.372 . S
C1211 C1210 1.372 . S
C1211 C1212 1.400 . S
C1211 C1216 1.490 . S
C1212 H1202 0.930 . S
C1212 C1211 1.400 . S
C1212 C1215 1.386 . S
H1213 C1229 0.930 . S
H1214 C1230 0.931 . S
C1215 H1203 0.929 . S
C1215 C1209 1.390 . S
C1215 C1212 1.386 . S
C1216 C1211 1.490 . S
C1216 C1218 1.395 . S
C1216 C1219 1.403 . S
H1217 C1223 0.930 . S
C1218 H1204 0.930 . S
C1218 C1216 1.395 . S
C1218 C1221 1.403 1_455 S
C1219 C1216 1.403 . S
C1219 C1220 1.524 . S
C1219 C1223 1.400 1_455 S
C1220 H1205 0.960 . S
C1220 H1206 0.960 . S
C1220 H1207 0.960 . S
C1220 C1219 1.524 . S
C1221 C1218 1.403 1_655 S
C1221 C1222 1.392 . S
C1221 C1225 1.495 . S
C1222 C1221 1.392 . S
C1222 C1223 1.385 . S
C1222 C1224 1.478 . S
C1223 H1217 0.930 . S
C1223 C1219 1.400 1_655 S
C1223 C1222 1.385 . S
C1224 C1222 1.478 . S
C1224 C1226 1.381 . S
C1224 C1230 1.383 . S
C1225 C1221 1.495 . S
C1225 H1231 0.959 . S
C1225 H1232 0.961 . S
C1225 H1233 0.960 . S
C1226 C1224 1.381 . S
C1226 C1227 1.394 . S
C1226 H1234 0.930 . S
C1227 C1226 1.394 . S
C1227 C1228 1.383 . S
C1227 H1235 0.929 . S
C1228 C1227 1.383 . S
C1228 C1229 1.377 . S
C1229 H1213 0.930 . S
C1229 C1228 1.377 . S
C1229 C1230 1.379 . S
C1230 H1214 0.931 . S
C1230 C1224 1.383 . S
C1230 C1229 1.379 . S
H1231 C1225 0.959 . S
H1232 C1225 0.961 . S
H1233 C1225 0.960 . S
H1234 C1226 0.930 . S
H1235 C1227 0.929 . S
H1236 C1244 0.929 . S
H1237 C1246 0.930 . S
H1238 C1248 0.930 . S
H1239 C1251 0.929 . S
H1240 C1254 0.930 . S
H1241 C1256 0.960 . S
H1242 C1256 0.960 . S
H1243 C1256 0.960 . S
C1244 H1236 0.929 . S
C1244 C1245 1.377 . S
C1244 C1246 1.384 . S
C1245 C1244 1.377 . S
C1245 C1251 1.390 . S
C1246 H1237 0.930 . S
C1246 C1244 1.384 . S
C1246 C1247 1.372 . S
C1247 C1246 1.372 . S
C1247 C1248 1.400 . S
C1247 C1252 1.490 . S
C1248 H1238 0.930 . S
C1248 C1247 1.400 . S
C1248 C1251 1.386 . S
H1249 C1265 0.930 . S
H1250 C1266 0.931 . S
C1251 H1239 0.929 . S
C1251 C1245 1.390 . S
C1251 C1248 1.386 . S
C1252 C1247 1.490 . S
C1252 C1254 1.395 . S
C1252 C1255 1.403 . S
H1253 C1259 0.930 . S
C1254 H1240 0.930 . S
C1254 C1252 1.395 . S
C1254 C1257 1.403 1_545 S
C1255 C1252 1.403 . S
C1255 C1256 1.524 . S
C1255 C1259 1.400 1_545 S
C1256 H1241 0.960 . S
C1256 H1242 0.960 . S
C1256 H1243 0.960 . S
C1256 C1255 1.524 . S
C1257 C1254 1.403 1_565 S
C1257 C1258 1.392 . S
C1257 C1261 1.495 . S
C1258 C1257 1.392 . S
C1258 C1259 1.385 . S
C1258 C1260 1.478 . S
C1259 H1253 0.930 . S
C1259 C1255 1.400 1_565 S
C1259 C1258 1.385 . S
C1260 C1258 1.478 . S
C1260 C1262 1.381 . S
C1260 C1266 1.383 . S
C1261 C1257 1.495 . S
C1261 H1267 0.959 . S
C1261 H1268 0.961 . S
C1261 H1269 0.960 . S
C1262 C1260 1.381 . S
C1262 C1263 1.394 . S
C1262 H1270 0.930 . S
C1263 C1262 1.394 . S
C1263 C1264 1.383 . S
C1263 H1271 0.929 . S
C1264 C1263 1.383 . S
C1264 C1265 1.377 . S
C1265 H1249 0.930 . S
C1265 C1264 1.377 . S
C1265 C1266 1.379 . S
C1266 H1250 0.931 . S
C1266 C1260 1.383 . S
C1266 C1265 1.379 . S
H1267 C1261 0.959 . S
H1268 C1261 0.961 . S
H1269 C1261 0.960 . S
H1270 C1262 0.930 . S
H1271 C1263 0.929 . S
H1272 C1280 0.929 . S
H1273 C1282 0.930 . S
H1274 C1284 0.930 . S
H1275 C1287 0.929 . S
H1276 C1290 0.930 . S
H1277 C1292 0.960 . S
H1278 C1292 0.960 . S
H1279 C1292 0.960 . S
C1280 H1272 0.929 . S
C1280 C1281 1.377 . S
C1280 C1282 1.384 . S
C1281 C1280 1.377 . S
C1281 C1287 1.390 . S
C1282 H1273 0.930 . S
C1282 C1280 1.384 . S
C1282 C1283 1.372 . S
C1283 C1282 1.372 . S
C1283 C1284 1.400 . S
C1283 C1288 1.490 . S
C1284 H1274 0.930 . S
C1284 C1283 1.400 . S
C1284 C1287 1.386 . S
H1285 C1301 0.930 . S
H1286 C1302 0.931 . S
C1287 H1275 0.929 . S
C1287 C1281 1.390 . S
C1287 C1284 1.386 . S
C1288 C1283 1.490 . S
C1288 C1290 1.395 . S
C1288 C1291 1.403 . S
H1289 C1295 0.930 . S
C1290 H1276 0.930 . S
C1290 C1288 1.395 . S
C1290 C1293 1.403 1_655 S
C1291 C1288 1.403 . S
C1291 C1292 1.524 . S
C1291 C1295 1.400 1_655 S
C1292 H1277 0.960 . S
C1292 H1278 0.960 . S
C1292 H1279 0.960 . S
C1292 C1291 1.524 . S
C1293 C1290 1.403 1_455 S
C1293 C1294 1.392 . S
C1293 C1297 1.495 . S
C1294 C1293 1.392 . S
C1294 C1295 1.385 . S
C1294 C1296 1.478 . S
C1295 H1289 0.930 . S
C1295 C1291 1.400 1_455 S
C1295 C1294 1.385 . S
C1296 C1294 1.478 . S
C1296 C1298 1.381 . S
C1296 C1302 1.383 . S
C1297 C1293 1.495 . S
C1297 H1303 0.959 . S
C1297 H1304 0.961 . S
C1297 H1305 0.960 . S
C1298 C1296 1.381 . S
C1298 C1299 1.394 . S
C1298 H1306 0.930 . S
C1299 C1298 1.394 . S
C1299 C1300 1.383 . S
C1299 H1307 0.929 . S
C1300 C1299 1.383 . S
C1300 C1301 1.377 . S
C1301 H1285 0.930 . S
C1301 C1300 1.377 . S
C1301 C1302 1.379 . S
C1302 H1286 0.931 . S
C1302 C1296 1.383 . S
C1302 C1301 1.379 . S
H1303 C1297 0.959 . S
H1304 C1297 0.961 . S
H1305 C1297 0.960 . S
H1306 C1298 0.930 . S
H1307 C1299 0.929 . S
H1308 C1316 0.929 . S
H1309 C1318 0.930 . S
H1310 C1320 0.930 . S
H1311 C1323 0.929 . S
H1312 C1326 0.930 . S
H1313 C1328 0.960 . S
H1314 C1328 0.960 . S
H1315 C1328 0.960 . S
C1316 H1308 0.929 . S
C1316 C1317 1.377 . S
C1316 C1318 1.384 . S
C1317 C1316 1.377 . S
C1317 C1323 1.390 . S
C1318 H1309 0.930 . S
C1318 C1316 1.384 . S
C1318 C1319 1.372 . S
C1319 C1318 1.372 . S
C1319 C1320 1.400 . S
C1319 C1324 1.490 . S
C1320 H1310 0.930 . S
C1320 C1319 1.400 . S
C1320 C1323 1.386 . S
H1321 C1337 0.930 . S
H1322 C1338 0.931 . S
C1323 H1311 0.929 . S
C1323 C1317 1.390 . S
C1323 C1320 1.386 . S
C1324 C1319 1.490 . S
C1324 C1326 1.395 . S
C1324 C1327 1.403 . S
H1325 C1331 0.930 . S
C1326 H1312 0.930 . S
C1326 C1324 1.395 . S
C1326 C1329 1.403 1_545 S
C1327 C1324 1.403 . S
C1327 C1328 1.524 . S
C1327 C1331 1.400 1_545 S
C1328 H1313 0.960 . S
C1328 H1314 0.960 . S
C1328 H1315 0.960 . S
C1328 C1327 1.524 . S
C1329 C1326 1.403 1_565 S
C1329 C1330 1.392 . S
C1329 C1333 1.495 . S
C1330 C1329 1.392 . S
C1330 C1331 1.385 . S
C1330 C1332 1.478 . S
C1331 H1325 0.930 . S
C1331 C1327 1.400 1_565 S
C1331 C1330 1.385 . S
C1332 C1330 1.478 . S
C1332 C1334 1.381 . S
C1332 C1338 1.383 . S
C1333 C1329 1.495 . S
C1333 H1339 0.959 . S
C1333 H1340 0.961 . S
C1333 H1341 0.960 . S
C1334 C1332 1.381 . S
C1334 C1335 1.394 . S
C1334 H1342 0.930 . S
C1335 C1334 1.394 . S
C1335 C1336 1.383 . S
C1335 H1343 0.929 . S
C1336 C1335 1.383 . S
C1336 C1337 1.377 . S
C1337 H1321 0.930 . S
C1337 C1336 1.377 . S
C1337 C1338 1.379 . S
C1338 H1322 0.931 . S
C1338 C1332 1.383 . S
C1338 C1337 1.379 . S
H1339 C1333 0.959 . S
H1340 C1333 0.961 . S
H1341 C1333 0.960 . S
H1342 C1334 0.930 . S
H1343 C1335 0.929 . S
H1344 C1352 0.929 . S
H1345 C1354 0.930 . S
H1346 C1356 0.930 . S
H1347 C1359 0.929 . S
H1348 C1362 0.930 . S
H1349 C1364 0.960 . S
H1350 C1364 0.960 . S
H1351 C1364 0.960 . S
C1352 H1344 0.929 . S
C1352 C1353 1.377 . S
C1352 C1354 1.384 . S
C1353 C1352 1.377 . S
C1353 C1359 1.390 . S
C1354 H1345 0.930 . S
C1354 C1352 1.384 . S
C1354 C1355 1.372 . S
C1355 C1354 1.372 . S
C1355 C1356 1.400 . S
C1355 C1360 1.490 . S
C1356 H1346 0.930 . S
C1356 C1355 1.400 . S
C1356 C1359 1.386 . S
H1357 C1373 0.930 . S
H1358 C1374 0.931 . S
C1359 H1347 0.929 . S
C1359 C1353 1.390 . S
C1359 C1356 1.386 . S
C1360 C1355 1.490 . S
C1360 C1362 1.395 . S
C1360 C1363 1.403 . S
H1361 C1367 0.930 . S
C1362 H1348 0.930 . S
C1362 C1360 1.395 . S
C1362 C1365 1.403 1_565 S
C1363 C1360 1.403 . S
C1363 C1364 1.524 . S
C1363 C1367 1.400 1_565 S
C1364 H1349 0.960 . S
C1364 H1350 0.960 . S
C1364 H1351 0.960 . S
C1364 C1363 1.524 . S
C1365 C1362 1.403 1_545 S
C1365 C1366 1.392 . S
C1365 C1369 1.495 . S
C1366 C1365 1.392 . S
C1366 C1367 1.385 . S
C1366 C1368 1.478 . S
C1367 H1361 0.930 . S
C1367 C1363 1.400 1_545 S
C1367 C1366 1.385 . S
C1368 C1366 1.478 . S
C1368 C1370 1.381 . S
C1368 C1374 1.383 . S
C1369 C1365 1.495 . S
C1369 H1375 0.959 . S
C1369 H1376 0.961 . S
C1369 H1377 0.960 . S
C1370 C1368 1.381 . S
C1370 C1371 1.394 . S
C1370 H1378 0.930 . S
C1371 C1370 1.394 . S
C1371 C1372 1.383 . S
C1371 H1379 0.929 . S
C1372 C1371 1.383 . S
C1372 C1373 1.377 . S
C1373 H1357 0.930 . S
C1373 C1372 1.377 . S
C1373 C1374 1.379 . S
C1374 H1358 0.931 . S
C1374 C1368 1.383 . S
C1374 C1373 1.379 . S
H1375 C1369 0.959 . S
H1376 C1369 0.961 . S
H1377 C1369 0.960 . S
H1378 C1370 0.930 . S
H1379 C1371 0.929 . S
H1380 C1388 0.929 . S
H1381 C1390 0.930 . S
H1382 C1392 0.930 . S
H1383 C1395 0.929 . S
H1384 C1398 0.930 . S
H1385 C1400 0.960 . S
H1386 C1400 0.960 . S
H1387 C1400 0.960 . S
C1388 H1380 0.929 . S
C1388 C1389 1.377 . S
C1388 C1390 1.384 . S
C1389 C1388 1.377 . S
C1389 C1395 1.390 . S
C1390 H1381 0.930 . S
C1390 C1388 1.384 . S
C1390 C1391 1.372 . S
C1391 C1390 1.372 . S
C1391 C1392 1.400 . S
C1391 C1396 1.490 . S
C1392 H1382 0.930 . S
C1392 C1391 1.400 . S
C1392 C1395 1.386 . S
H1393 C1409 0.930 . S
H1394 C1410 0.931 . S
C1395 H1383 0.929 . S
C1395 C1389 1.390 . S
C1395 C1392 1.386 . S
C1396 C1391 1.490 . S
C1396 C1398 1.395 . S
C1396 C1399 1.403 . S
H1397 C1403 0.930 . S
C1398 H1384 0.930 . S
C1398 C1396 1.395 . S
C1398 C1401 1.403 1_655 S
C1399 C1396 1.403 . S
C1399 C1400 1.524 . S
C1399 C1403 1.400 1_655 S
C1400 H1385 0.960 . S
C1400 H1386 0.960 . S
C1400 H1387 0.960 . S
C1400 C1399 1.524 . S
C1401 C1398 1.403 1_455 S
C1401 C1402 1.392 . S
C1401 C1405 1.495 . S
C1402 C1401 1.392 . S
C1402 C1403 1.385 . S
C1402 C1404 1.478 . S
C1403 H1397 0.930 . S
C1403 C1399 1.400 1_455 S
C1403 C1402 1.385 . S
C1404 C1402 1.478 . S
C1404 C1406 1.381 . S
C1404 C1410 1.383 . S
C1405 C1401 1.495 . S
C1405 H1411 0.959 . S
C1405 H1412 0.961 . S
C1405 H1413 0.960 . S
C1406 C1404 1.381 . S
C1406 C1407 1.394 . S
C1406 H1414 0.930 . S
C1407 C1406 1.394 . S
C1407 C1408 1.383 . S
C1407 H1415 0.929 . S
C1408 C1407 1.383 . S
C1408 C1409 1.377 . S
C1409 H1393 0.930 . S
C1409 C1408 1.377 . S
C1409 C1410 1.379 . S
C1410 H1394 0.931 . S
C1410 C1404 1.383 . S
C1410 C1409 1.379 . S
H1411 C1405 0.959 . S
H1412 C1405 0.961 . S
H1413 C1405 0.960 . S
H1414 C1406 0.930 . S
H1415 C1407 0.929 . S
H1416 C1424 0.929 . S
H1417 C1426 0.930 . S
H1418 C1428 0.930 . S
H1419 C1431 0.929 . S
H1420 C1434 0.930 . S
H1421 C1436 0.960 . S
H1422 C1436 0.960 . S
H1423 C1436 0.960 . S
C1424 H1416 0.929 . S
C1424 C1425 1.377 . S
C1424 C1426 1.384 . S
C1425 C1424 1.377 . S
C1425 C1431 1.390 . S
C1426 H1417 0.930 . S
C1426 C1424 1.384 . S
C1426 C1427 1.372 . S
C1427 C1426 1.372 . S
C1427 C1428 1.400 . S
C1427 C1432 1.490 . S
C1428 H1418 0.930 . S
C1428 C1427 1.400 . S
C1428 C1431 1.386 . S
H1429 C1445 0.930 . S
H1430 C1446 0.931 . S
C1431 H1419 0.929 . S
C1431 C1425 1.390 . S
C1431 C1428 1.386 . S
C1432 C1427 1.490 . S
C1432 C1434 1.395 . S
C1432 C1435 1.403 . S
H1433 C1439 0.930 . S
C1434 H1420 0.930 . S
C1434 C1432 1.395 . S
C1434 C1437 1.403 1_565 S
C1435 C1432 1.403 . S
C1435 C1436 1.524 . S
C1435 C1439 1.400 1_565 S
C1436 H1421 0.960 . S
C1436 H1422 0.960 . S
C1436 H1423 0.960 . S
C1436 C1435 1.524 . S
C1437 C1434 1.403 1_545 S
C1437 C1438 1.392 . S
C1437 C1441 1.495 . S
C1438 C1437 1.392 . S
C1438 C1439 1.385 . S
C1438 C1440 1.478 . S
C1439 H1433 0.930 . S
C1439 C1435 1.400 1_545 S
C1439 C1438 1.385 . S
C1440 C1438 1.478 . S
C1440 C1442 1.381 . S
C1440 C1446 1.383 . S
C1441 C1437 1.495 . S
C1441 H1447 0.959 . S
C1441 H1448 0.961 . S
C1441 H1449 0.960 . S
C1442 C1440 1.381 . S
C1442 C1443 1.394 . S
C1442 H1450 0.930 . S
C1443 C1442 1.394 . S
C1443 C1444 1.383 . S
C1443 H1451 0.929 . S
C1444 C1443 1.383 . S
C1444 C1445 1.377 . S
C1445 H1429 0.930 . S
C1445 C1444 1.377 . S
C1445 C1446 1.379 . S
C1446 H1430 0.931 . S
C1446 C1440 1.383 . S
C1446 C1445 1.379 . S
H1447 C1441 0.959 . S
H1448 C1441 0.961 . S
H1449 C1441 0.960 . S
H1450 C1442 0.930 . S
H1451 C1443 0.929 . S
H1452 C1460 0.929 . S
H1453 C1462 0.930 . S
H1454 C1464 0.930 . S
H1455 C1467 0.929 . S
H1456 C1470 0.930 . S
H1457 C1472 0.960 . S
H1458 C1472 0.960 . S
H1459 C1472 0.960 . S
C1460 H1452 0.929 . S
C1460 C1461 1.377 . S
C1460 C1462 1.384 . S
C1461 C1460 1.377 . S
C1461 C1467 1.390 . S
C1462 H1453 0.930 . S
C1462 C1460 1.384 . S
C1462 C1463 1.372 . S
C1463 C1462 1.372 . S
C1463 C1464 1.400 . S
C1463 C1468 1.490 . S
C1464 H1454 0.930 . S
C1464 C1463 1.400 . S
C1464 C1467 1.386 . S
H1465 C1481 0.930 . S
H1466 C1482 0.931 . S
C1467 H1455 0.929 . S
C1467 C1461 1.390 . S
C1467 C1464 1.386 . S
C1468 C1463 1.490 . S
C1468 C1470 1.395 . S
C1468 C1471 1.403 . S
H1469 C1475 0.930 . S
C1470 H1456 0.930 . S
C1470 C1468 1.395 . S
C1470 C1473 1.403 1_655 S
C1471 C1468 1.403 . S
C1471 C1472 1.524 . S
C1471 C1475 1.400 1_655 S
C1472 H1457 0.960 . S
C1472 H1458 0.960 . S
C1472 H1459 0.960 . S
C1472 C1471 1.524 . S
C1473 C1470 1.403 1_455 S
C1473 C1474 1.392 . S
C1473 C1477 1.495 . S
C1474 C1473 1.392 . S
C1474 C1475 1.385 . S
C1474 C1476 1.478 . S
C1475 H1469 0.930 . S
C1475 C1471 1.400 1_455 S
C1475 C1474 1.385 . S
C1476 C1474 1.478 . S
C1476 C1478 1.381 . S
C1476 C1482 1.383 . S
C1477 C1473 1.495 . S
C1477 H1483 0.959 . S
C1477 H1484 0.961 . S
C1477 H1485 0.960 . S
C1478 C1476 1.381 . S
C1478 C1479 1.394 . S
C1478 H1486 0.930 . S
C1479 C1478 1.394 . S
C1479 C1480 1.383 . S
C1479 H1487 0.929 . S
C1480 C1479 1.383 . S
C1480 C1481 1.377 . S
C1481 H1465 0.930 . S
C1481 C1480 1.377 . S
C1481 C1482 1.379 . S
C1482 H1466 0.931 . S
C1482 C1476 1.383 . S
C1482 C1481 1.379 . S
H1483 C1477 0.959 . S
H1484 C1477 0.961 . S
H1485 C1477 0.960 . S
H1486 C1478 0.930 . S
H1487 C1479 0.929 . S
H1488 C1496 0.929 . S
H1489 C1498 0.930 . S
H1490 C1500 0.930 . S
H1491 C1503 0.929 . S
H1492 C1506 0.930 . S
H1493 C1508 0.960 . S
H1494 C1508 0.960 . S
H1495 C1508 0.960 . S
C1496 H1488 0.929 . S
C1496 C1497 1.377 . S
C1496 C1498 1.384 . S
C1497 C1496 1.377 . S
C1497 C1503 1.390 . S
C1498 H1489 0.930 . S
C1498 C1496 1.384 . S
C1498 C1499 1.372 . S
C1499 C1498 1.372 . S
C1499 C1500 1.400 . S
C1499 C1504 1.490 . S
C1500 H1490 0.930 . S
C1500 C1499 1.400 . S
C1500 C1503 1.386 . S
H1501 C1517 0.930 . S
H1502 C1518 0.931 . S
C1503 H1491 0.929 . S
C1503 C1497 1.390 . S
C1503 C1500 1.386 . S
C1504 C1499 1.490 . S
C1504 C1506 1.395 . S
C1504 C1507 1.403 . S
H1505 C1511 0.930 . S
C1506 H1492 0.930 . S
C1506 C1504 1.395 . S
C1506 C1509 1.403 1_556 S
C1507 C1504 1.403 . S
C1507 C1508 1.524 . S
C1507 C1511 1.400 1_556 S
C1508 H1493 0.960 . S
C1508 H1494 0.960 . S
C1508 H1495 0.960 . S
C1508 C1507 1.524 . S
C1509 C1506 1.403 1_554 S
C1509 C1510 1.392 . S
C1509 C1513 1.495 . S
C1510 C1509 1.392 . S
C1510 C1511 1.385 . S
C1510 C1512 1.478 . S
C1511 H1505 0.930 . S
C1511 C1507 1.400 1_554 S
C1511 C1510 1.385 . S
C1512 C1510 1.478 . S
C1512 C1514 1.381 . S
C1512 C1518 1.383 . S
C1513 C1509 1.495 . S
C1513 H1519 0.959 . S
C1513 H1520 0.961 . S
C1513 H1521 0.960 . S
C1514 C1512 1.381 . S
C1514 C1515 1.394 . S
C1514 H1522 0.930 . S
C1515 C1514 1.394 . S
C1515 C1516 1.383 . S
C1515 H1523 0.929 . S
C1516 C1515 1.383 . S
C1516 C1517 1.377 . S
C1517 H1501 0.930 . S
C1517 C1516 1.377 . S
C1517 C1518 1.379 . S
C1518 H1502 0.931 . S
C1518 C1512 1.383 . S
C1518 C1517 1.379 . S
H1519 C1513 0.959 . S
H1520 C1513 0.961 . S
H1521 C1513 0.960 . S
H1522 C1514 0.930 . S
H1523 C1515 0.929 . S
H1524 C1532 0.929 . S
H1525 C1534 0.930 . S
H1526 C1536 0.930 . S
H1527 C1539 0.929 . S
H1528 C1542 0.930 . S
H1529 C1544 0.960 . S
H1530 C1544 0.960 . S
H1531 C1544 0.960 . S
C1532 H1524 0.929 . S
C1532 C1533 1.377 . S
C1532 C1534 1.384 . S
C1533 C1532 1.377 . S
C1533 C1539 1.390 . S
C1534 H1525 0.930 . S
C1534 C1532 1.384 . S
C1534 C1535 1.372 . S
C1535 C1534 1.372 . S
C1535 C1536 1.400 . S
C1535 C1540 1.490 . S
C1536 H1526 0.930 . S
C1536 C1535 1.400 . S
C1536 C1539 1.386 . S
H1537 C1553 0.930 . S
H1538 C1554 0.931 . S
C1539 H1527 0.929 . S
C1539 C1533 1.390 . S
C1539 C1536 1.386 . S
C1540 C1535 1.490 . S
C1540 C1542 1.395 . S
C1540 C1543 1.403 . S
H1541 C1547 0.930 . S
C1542 H1528 0.930 . S
C1542 C1540 1.395 . S
C1542 C1545 1.403 1_556 S
C1543 C1540 1.403 . S
C1543 C1544 1.524 . S
C1543 C1547 1.400 1_556 S
C1544 H1529 0.960 . S
C1544 H1530 0.960 . S
C1544 H1531 0.960 . S
C1544 C1543 1.524 . S
C1545 C1542 1.403 1_554 S
C1545 C1546 1.392 . S
C1545 C1549 1.495 . S
C1546 C1545 1.392 . S
C1546 C1547 1.385 . S
C1546 C1548 1.478 . S
C1547 H1541 0.930 . S
C1547 C1543 1.400 1_554 S
C1547 C1546 1.385 . S
C1548 C1546 1.478 . S
C1548 C1550 1.381 . S
C1548 C1554 1.383 . S
C1549 C1545 1.495 . S
C1549 H1555 0.959 . S
C1549 H1556 0.961 . S
C1549 H1557 0.960 . S
C1550 C1548 1.381 . S
C1550 C1551 1.394 . S
C1550 H1558 0.930 . S
C1551 C1550 1.394 . S
C1551 C1552 1.383 . S
C1551 H1559 0.929 . S
C1552 C1551 1.383 . S
C1552 C1553 1.377 . S
C1553 H1537 0.930 . S
C1553 C1552 1.377 . S
C1553 C1554 1.379 . S
C1554 H1538 0.931 . S
C1554 C1548 1.383 . S
C1554 C1553 1.379 . S
H1555 C1549 0.959 . S
H1556 C1549 0.961 . S
H1557 C1549 0.960 . S
H1558 C1550 0.930 . S
H1559 C1551 0.929 . S
H1560 C1568 0.929 . S
H1561 C1570 0.930 . S
H1562 C1572 0.930 . S
H1563 C1575 0.929 . S
H1564 C1578 0.930 . S
H1565 C1580 0.960 . S
H1566 C1580 0.960 . S
H1567 C1580 0.960 . S
C1568 H1560 0.929 . S
C1568 C1569 1.377 . S
C1568 C1570 1.384 . S
C1569 C1568 1.377 . S
C1569 C1575 1.390 . S
C1570 H1561 0.930 . S
C1570 C1568 1.384 . S
C1570 C1571 1.372 . S
C1571 C1570 1.372 . S
C1571 C1572 1.400 . S
C1571 C1576 1.490 . S
C1572 H1562 0.930 . S
C1572 C1571 1.400 . S
C1572 C1575 1.386 . S
H1573 C1589 0.930 . S
H1574 C1590 0.931 . S
C1575 H1563 0.929 . S
C1575 C1569 1.390 . S
C1575 C1572 1.386 . S
C1576 C1571 1.490 . S
C1576 C1578 1.395 . S
C1576 C1579 1.403 . S
H1577 C1583 0.930 . S
C1578 H1564 0.930 . S
C1578 C1576 1.395 . S
C1578 C1581 1.403 1_556 S
C1579 C1576 1.403 . S
C1579 C1580 1.524 . S
C1579 C1583 1.400 1_556 S
C1580 H1565 0.960 . S
C1580 H1566 0.960 . S
C1580 H1567 0.960 . S
C1580 C1579 1.524 . S
C1581 C1578 1.403 1_554 S
C1581 C1582 1.392 . S
C1581 C1585 1.495 . S
C1582 C1581 1.392 . S
C1582 C1583 1.385 . S
C1582 C1584 1.478 . S
C1583 H1577 0.930 . S
C1583 C1579 1.400 1_554 S
C1583 C1582 1.385 . S
C1584 C1582 1.478 . S
C1584 C1586 1.381 . S
C1584 C1590 1.383 . S
C1585 C1581 1.495 . S
C1585 H1591 0.959 . S
C1585 H1592 0.961 . S
C1585 H1593 0.960 . S
C1586 C1584 1.381 . S
C1586 C1587 1.394 . S
C1586 H1594 0.930 . S
C1587 C1586 1.394 . S
C1587 C1588 1.383 . S
C1587 H1595 0.929 . S
C1588 C1587 1.383 . S
C1588 C1589 1.377 . S
C1589 H1573 0.930 . S
C1589 C1588 1.377 . S
C1589 C1590 1.379 . S
C1590 H1574 0.931 . S
C1590 C1584 1.383 . S
C1590 C1589 1.379 . S
H1591 C1585 0.959 . S
H1592 C1585 0.961 . S
H1593 C1585 0.960 . S
H1594 C1586 0.930 . S
H1595 C1587 0.929 . S
H1596 C1604 0.929 . S
H1597 C1606 0.930 . S
H1598 C1608 0.930 . S
H1599 C1611 0.929 . S
H1600 C1614 0.930 . S
H1601 C1616 0.960 . S
H1602 C1616 0.960 . S
H1603 C1616 0.960 . S
C1604 H1596 0.929 . S
C1604 C1605 1.377 . S
C1604 C1606 1.384 . S
C1605 C1604 1.377 . S
C1605 C1611 1.390 . S
C1606 H1597 0.930 . S
C1606 C1604 1.384 . S
C1606 C1607 1.372 . S
C1607 C1606 1.372 . S
C1607 C1608 1.400 . S
C1607 C1612 1.490 . S
C1608 H1598 0.930 . S
C1608 C1607 1.400 . S
C1608 C1611 1.386 . S
H1609 C1625 0.930 . S
H1610 C1626 0.931 . S
C1611 H1599 0.929 . S
C1611 C1605 1.390 . S
C1611 C1608 1.386 . S
C1612 C1607 1.490 . S
C1612 C1614 1.395 . S
C1612 C1615 1.403 . S
H1613 C1619 0.930 . S
C1614 H1600 0.930 . S
C1614 C1612 1.395 . S
C1614 C1617 1.403 1_556 S
C1615 C1612 1.403 . S
C1615 C1616 1.524 . S
C1615 C1619 1.400 1_556 S
C1616 H1601 0.960 . S
C1616 H1602 0.960 . S
C1616 H1603 0.960 . S
C1616 C1615 1.524 . S
C1617 C1614 1.403 1_554 S
C1617 C1618 1.392 . S
C1617 C1621 1.495 . S
C1618 C1617 1.392 . S
C1618 C1619 1.385 . S
C1618 C1620 1.478 . S
C1619 H1613 0.930 . S
C1619 C1615 1.400 1_554 S
C1619 C1618 1.385 . S
C1620 C1618 1.478 . S
C1620 C1622 1.381 . S
C1620 C1626 1.383 . S
C1621 C1617 1.495 . S
C1621 H1627 0.959 . S
C1621 H1628 0.961 . S
C1621 H1629 0.960 . S
C1622 C1620 1.381 . S
C1622 C1623 1.394 . S
C1622 H1630 0.930 . S
C1623 C1622 1.394 . S
C1623 C1624 1.383 . S
C1623 H1631 0.929 . S
C1624 C1623 1.383 . S
C1624 C1625 1.377 . S
C1625 H1609 0.930 . S
C1625 C1624 1.377 . S
C1625 C1626 1.379 . S
C1626 H1610 0.931 . S
C1626 C1620 1.383 . S
C1626 C1625 1.379 . S
H1627 C1621 0.959 . S
H1628 C1621 0.961 . S
H1629 C1621 0.960 . S
H1630 C1622 0.930 . S
H1631 C1623 0.929 . S
H1632 C1640 0.929 . S
H1633 C1642 0.930 . S
H1634 C1644 0.930 . S
H1635 C1647 0.929 . S
H1636 C1650 0.930 . S
H1637 C1652 0.960 . S
H1638 C1652 0.960 . S
H1639 C1652 0.960 . S
C1640 H1632 0.929 . S
C1640 C1641 1.377 . S
C1640 C1642 1.384 . S
C1641 C1640 1.377 . S
C1641 C1647 1.390 . S
C1642 H1633 0.930 . S
C1642 C1640 1.384 . S
C1642 C1643 1.372 . S
C1643 C1642 1.372 . S
C1643 C1644 1.400 . S
C1643 C1648 1.490 . S
C1644 H1634 0.930 . S
C1644 C1643 1.400 . S
C1644 C1647 1.386 . S
H1645 C1661 0.930 . S
H1646 C1662 0.931 . S
C1647 H1635 0.929 . S
C1647 C1641 1.390 . S
C1647 C1644 1.386 . S
C1648 C1643 1.490 . S
C1648 C1650 1.395 . S
C1648 C1651 1.403 . S
H1649 C1655 0.930 . S
C1650 H1636 0.930 . S
C1650 C1648 1.395 . S
C1650 C1653 1.403 . S
C1651 C1648 1.403 . S
C1651 C1652 1.524 . S
C1651 C1655 1.400 . S
C1652 H1637 0.960 . S
C1652 H1638 0.960 . S
C1652 H1639 0.960 . S
C1652 C1651 1.524 . S
C1653 C1650 1.403 . S
C1653 C1654 1.392 . S
C1653 C1657 1.495 . S
C1654 C1653 1.392 . S
C1654 C1655 1.385 . S
C1654 C1656 1.478 . S
C1655 H1649 0.930 . S
C1655 C1651 1.400 . S
C1655 C1654 1.385 . S
C1656 C1654 1.478 . S
C1656 C1658 1.381 . S
C1656 C1662 1.383 . S
C1657 C1653 1.495 . S
C1657 H1663 0.959 . S
C1657 H1664 0.961 . S
C1657 H1665 0.960 . S
C1658 C1656 1.381 . S
C1658 C1659 1.394 . S
C1658 H1666 0.930 . S
C1659 C1658 1.394 . S
C1659 C1660 1.383 . S
C1659 H1667 0.929 . S
C1660 C1659 1.383 . S
C1660 C1661 1.377 . S
C1661 H1645 0.930 . S
C1661 C1660 1.377 . S
C1661 C1662 1.379 . S
C1662 H1646 0.931 . S
C1662 C1656 1.383 . S
C1662 C1661 1.379 . S
H1663 C1657 0.959 . S
H1664 C1657 0.961 . S
H1665 C1657 0.960 . S
H1666 C1658 0.930 . S
H1667 C1659 0.929 . S
H1668 C1676 0.929 . S
H1669 C1678 0.930 . S
H1670 C1680 0.930 . S
H1671 C1683 0.929 . S
H1672 C1686 0.930 . S
H1673 C1688 0.960 . S
H1674 C1688 0.960 . S
H1675 C1688 0.960 . S
C1676 H1668 0.929 . S
C1676 C1677 1.377 . S
C1676 C1678 1.384 . S
C1677 C1676 1.377 . S
C1677 C1683 1.390 . S
C1678 H1669 0.930 . S
C1678 C1676 1.384 . S
C1678 C1679 1.372 . S
C1679 C1678 1.372 . S
C1679 C1680 1.400 . S
C1679 C1684 1.490 . S
C1680 H1670 0.930 . S
C1680 C1679 1.400 . S
C1680 C1683 1.386 . S
H1681 C1697 0.930 . S
H1682 C1698 0.931 . S
C1683 H1671 0.929 . S
C1683 C1677 1.390 . S
C1683 C1680 1.386 . S
C1684 C1679 1.490 . S
C1684 C1686 1.395 . S
C1684 C1687 1.403 . S
H1685 C1691 0.930 . S
C1686 H1672 0.930 . S
C1686 C1684 1.395 . S
C1686 C1689 1.403 . S
C1687 C1684 1.403 . S
C1687 C1688 1.524 . S
C1687 C1691 1.400 . S
C1688 H1673 0.960 . S
C1688 H1674 0.960 . S
C1688 H1675 0.960 . S
C1688 C1687 1.524 . S
C1689 C1686 1.403 . S
C1689 C1690 1.392 . S
C1689 C1693 1.495 . S
C1690 C1689 1.392 . S
C1690 C1691 1.385 . S
C1690 C1692 1.478 . S
C1691 H1685 0.930 . S
C1691 C1687 1.400 . S
C1691 C1690 1.385 . S
C1692 C1690 1.478 . S
C1692 C1694 1.381 . S
C1692 C1698 1.383 . S
C1693 C1689 1.495 . S
C1693 H1699 0.959 . S
C1693 H1700 0.961 . S
C1693 H1701 0.960 . S
C1694 C1692 1.381 . S
C1694 C1695 1.394 . S
C1694 H1702 0.930 . S
C1695 C1694 1.394 . S
C1695 C1696 1.383 . S
C1695 H1703 0.929 . S
C1696 C1695 1.383 . S
C1696 C1697 1.377 . S
C1697 H1681 0.930 . S
C1697 C1696 1.377 . S
C1697 C1698 1.379 . S
C1698 H1682 0.931 . S
C1698 C1692 1.383 . S
C1698 C1697 1.379 . S
H1699 C1693 0.959 . S
H1700 C1693 0.961 . S
H1701 C1693 0.960 . S
H1702 C1694 0.930 . S
H1703 C1695 0.929 . S
H1704 C1712 0.929 . S
H1705 C1714 0.930 . S
H1706 C1716 0.930 . S
H1707 C1719 0.929 . S
H1708 C1722 0.930 . S
H1709 C1724 0.960 . S
H1710 C1724 0.960 . S
H1711 C1724 0.960 . S
C1712 H1704 0.929 . S
C1712 C1713 1.377 . S
C1712 C1714 1.384 . S
C1713 C1712 1.377 . S
C1713 C1719 1.390 . S
C1714 H1705 0.930 . S
C1714 C1712 1.384 . S
C1714 C1715 1.372 . S
C1715 C1714 1.372 . S
C1715 C1716 1.400 . S
C1715 C1720 1.490 . S
C1716 H1706 0.930 . S
C1716 C1715 1.400 . S
C1716 C1719 1.386 . S
H1717 C1733 0.930 . S
H1718 C1734 0.931 . S
C1719 H1707 0.929 . S
C1719 C1713 1.390 . S
C1719 C1716 1.386 . S
C1720 C1715 1.490 . S
C1720 C1722 1.395 . S
C1720 C1723 1.403 . S
H1721 C1727 0.930 . S
C1722 H1708 0.930 . S
C1722 C1720 1.395 . S
C1722 C1725 1.403 . S
C1723 C1720 1.403 . S
C1723 C1724 1.524 . S
C1723 C1727 1.400 . S
C1724 H1709 0.960 . S
C1724 H1710 0.960 . S
C1724 H1711 0.960 . S
C1724 C1723 1.524 . S
C1725 C1722 1.403 . S
C1725 C1726 1.392 . S
C1725 C1729 1.495 . S
C1726 C1725 1.392 . S
C1726 C1727 1.385 . S
C1726 C1728 1.478 . S
C1727 H1721 0.930 . S
C1727 C1723 1.400 . S
C1727 C1726 1.385 . S
C1728 C1726 1.478 . S
C1728 C1730 1.381 . S
C1728 C1734 1.383 . S
C1729 C1725 1.495 . S
C1729 H1735 0.959 . S
C1729 H1736 0.961 . S
C1729 H1737 0.960 . S
C1730 C1728 1.381 . S
C1730 C1731 1.394 . S
C1730 H1738 0.930 . S
C1731 C1730 1.394 . S
C1731 C1732 1.383 . S
C1731 H1739 0.929 . S
C1732 C1731 1.383 . S
C1732 C1733 1.377 . S
C1733 H1717 0.930 . S
C1733 C1732 1.377 . S
C1733 C1734 1.379 . S
C1734 H1718 0.931 . S
C1734 C1728 1.383 . S
C1734 C1733 1.379 . S
H1735 C1729 0.959 . S
H1736 C1729 0.961 . S
H1737 C1729 0.960 . S
H1738 C1730 0.930 . S
H1739 C1731 0.929 . S
H1740 C1748 0.929 . S
H1741 C1750 0.930 . S
H1742 C1752 0.930 . S
H1743 C1755 0.929 . S
H1744 C1758 0.930 . S
H1745 C1760 0.960 . S
H1746 C1760 0.960 . S
H1747 C1760 0.960 . S
C1748 H1740 0.929 . S
C1748 C1749 1.377 . S
C1748 C1750 1.384 . S
C1749 C1748 1.377 . S
C1749 C1755 1.390 . S
C1750 H1741 0.930 . S
C1750 C1748 1.384 . S
C1750 C1751 1.372 . S
C1751 C1750 1.372 . S
C1751 C1752 1.400 . S
C1751 C1756 1.490 . S
C1752 H1742 0.930 . S
C1752 C1751 1.400 . S
C1752 C1755 1.386 . S
H1753 C1769 0.930 . S
H1754 C1770 0.931 . S
C1755 H1743 0.929 . S
C1755 C1749 1.390 . S
C1755 C1752 1.386 . S
C1756 C1751 1.490 . S
C1756 C1758 1.395 . S
C1756 C1759 1.403 . S
H1757 C1763 0.930 . S
C1758 H1744 0.930 . S
C1758 C1756 1.395 . S
C1758 C1761 1.403 . S
C1759 C1756 1.403 . S
C1759 C1760 1.524 . S
C1759 C1763 1.400 . S
C1760 H1745 0.960 . S
C1760 H1746 0.960 . S
C1760 H1747 0.960 . S
C1760 C1759 1.524 . S
C1761 C1758 1.403 . S
C1761 C1762 1.392 . S
C1761 C1765 1.495 . S
C1762 C1761 1.392 . S
C1762 C1763 1.385 . S
C1762 C1764 1.478 . S
C1763 H1757 0.930 . S
C1763 C1759 1.400 . S
C1763 C1762 1.385 . S
C1764 C1762 1.478 . S
C1764 C1766 1.381 . S
C1764 C1770 1.383 . S
C1765 C1761 1.495 . S
C1765 H1771 0.959 . S
C1765 H1772 0.961 . S
C1765 H1773 0.960 . S
C1766 C1764 1.381 . S
C1766 C1767 1.394 . S
C1766 H1774 0.930 . S
C1767 C1766 1.394 . S
C1767 C1768 1.383 . S
C1767 H1775 0.929 . S
C1768 C1767 1.383 . S
C1768 C1769 1.377 . S
C1769 H1753 0.930 . S
C1769 C1768 1.377 . S
C1769 C1770 1.379 . S
C1770 H1754 0.931 . S
C1770 C1764 1.383 . S
C1770 C1769 1.379 . S
H1771 C1765 0.959 . S
H1772 C1765 0.961 . S
H1773 C1765 0.960 . S
H1774 C1766 0.930 . S
H1775 C1767 0.929 . S
H1776 C1784 0.929 . S
H1777 C1786 0.930 . S
H1778 C1788 0.930 . S
H1779 C1791 0.929 . S
H1780 C1794 0.930 . S
H1781 C1796 0.960 . S
H1782 C1796 0.960 . S
H1783 C1796 0.960 . S
C1784 H1776 0.929 . S
C1784 C1785 1.377 . S
C1784 C1786 1.384 . S
C1785 C1784 1.377 . S
C1785 C1791 1.390 . S
C1786 H1777 0.930 . S
C1786 C1784 1.384 . S
C1786 C1787 1.372 . S
C1787 C1786 1.372 . S
C1787 C1788 1.400 . S
C1787 C1792 1.490 . S
C1788 H1778 0.930 . S
C1788 C1787 1.400 . S
C1788 C1791 1.386 . S
H1789 C1805 0.930 . S
H1790 C1806 0.931 . S
C1791 H1779 0.929 . S
C1791 C1785 1.390 . S
C1791 C1788 1.386 . S
C1792 C1787 1.490 . S
C1792 C1794 1.395 . S
C1792 C1795 1.403 . S
H1793 C1799 0.930 . S
C1794 H1780 0.930 . S
C1794 C1792 1.395 . S
C1794 C1797 1.403 . S
C1795 C1792 1.403 . S
C1795 C1796 1.524 . S
C1795 C1799 1.400 . S
C1796 H1781 0.960 . S
C1796 H1782 0.960 . S
C1796 H1783 0.960 . S
C1796 C1795 1.524 . S
C1797 C1794 1.403 . S
C1797 C1798 1.392 . S
C1797 C1801 1.495 . S
C1798 C1797 1.392 . S
C1798 C1799 1.385 . S
C1798 C1800 1.478 . S
C1799 H1793 0.930 . S
C1799 C1795 1.400 . S
C1799 C1798 1.385 . S
C1800 C1798 1.478 . S
C1800 C1802 1.381 . S
C1800 C1806 1.383 . S
C1801 C1797 1.495 . S
C1801 H1807 0.959 . S
C1801 H1808 0.961 . S
C1801 H1809 0.960 . S
C1802 C1800 1.381 . S
C1802 C1803 1.394 . S
C1802 H1810 0.930 . S
C1803 C1802 1.394 . S
C1803 C1804 1.383 . S
C1803 H1811 0.929 . S
C1804 C1803 1.383 . S
C1804 C1805 1.377 . S
C1805 H1789 0.930 . S
C1805 C1804 1.377 . S
C1805 C1806 1.379 . S
C1806 H1790 0.931 . S
C1806 C1800 1.383 . S
C1806 C1805 1.379 . S
H1807 C1801 0.959 . S
H1808 C1801 0.961 . S
H1809 C1801 0.960 . S
H1810 C1802 0.930 . S
H1811 C1803 0.929 . S
H1812 C1820 0.929 . S
H1813 C1822 0.930 . S
H1814 C1824 0.930 . S
H1815 C1827 0.929 . S
H1816 C1830 0.930 . S
H1817 C1832 0.960 . S
H1818 C1832 0.960 . S
H1819 C1832 0.960 . S
C1820 H1812 0.929 . S
C1820 C1821 1.377 . S
C1820 C1822 1.384 . S
C1821 C1820 1.377 . S
C1821 C1827 1.390 . S
C1822 H1813 0.930 . S
C1822 C1820 1.384 . S
C1822 C1823 1.372 . S
C1823 C1822 1.372 . S
C1823 C1824 1.400 . S
C1823 C1828 1.490 . S
C1824 H1814 0.930 . S
C1824 C1823 1.400 . S
C1824 C1827 1.386 . S
H1825 C1841 0.930 . S
H1826 C1842 0.931 . S
C1827 H1815 0.929 . S
C1827 C1821 1.390 . S
C1827 C1824 1.386 . S
C1828 C1823 1.490 . S
C1828 C1830 1.395 . S
C1828 C1831 1.403 . S
H1829 C1835 0.930 . S
C1830 H1816 0.930 . S
C1830 C1828 1.395 . S
C1830 C1833 1.403 . S
C1831 C1828 1.403 . S
C1831 C1832 1.524 . S
C1831 C1835 1.400 . S
C1832 H1817 0.960 . S
C1832 H1818 0.960 . S
C1832 H1819 0.960 . S
C1832 C1831 1.524 . S
C1833 C1830 1.403 . S
C1833 C1834 1.392 . S
C1833 C1837 1.495 . S
C1834 C1833 1.392 . S
C1834 C1835 1.385 . S
C1834 C1836 1.478 . S
C1835 H1829 0.930 . S
C1835 C1831 1.400 . S
C1835 C1834 1.385 . S
C1836 C1834 1.478 . S
C1836 C1838 1.381 . S
C1836 C1842 1.383 . S
C1837 C1833 1.495 . S
C1837 H1843 0.959 . S
C1837 H1844 0.961 . S
C1837 H1845 0.960 . S
C1838 C1836 1.381 . S
C1838 C1839 1.394 . S
C1838 H1846 0.930 . S
C1839 C1838 1.394 . S
C1839 C1840 1.383 . S
C1839 H1847 0.929 . S
C1840 C1839 1.383 . S
C1840 C1841 1.377 . S
C1841 H1825 0.930 . S
C1841 C1840 1.377 . S
C1841 C1842 1.379 . S
C1842 H1826 0.931 . S
C1842 C1836 1.383 . S
C1842 C1841 1.379 . S
H1843 C1837 0.959 . S
H1844 C1837 0.961 . S
H1845 C1837 0.960 . S
H1846 C1838 0.930 . S
H1847 C1839 0.929 . S
H1848 C1856 0.929 . S
H1849 C1858 0.930 . S
H1850 C1860 0.930 . S
H1851 C1863 0.929 . S
H1852 C1866 0.930 . S
H1853 C1868 0.960 . S
H1854 C1868 0.960 . S
H1855 C1868 0.960 . S
C1856 H1848 0.929 . S
C1856 C1857 1.377 . S
C1856 C1858 1.384 . S
C1857 C1856 1.377 . S
C1857 C1863 1.390 . S
C1858 H1849 0.930 . S
C1858 C1856 1.384 . S
C1858 C1859 1.372 . S
C1859 C1858 1.372 . S
C1859 C1860 1.400 . S
C1859 C1864 1.490 . S
C1860 H1850 0.930 . S
C1860 C1859 1.400 . S
C1860 C1863 1.386 . S
H1861 C1877 0.930 . S
H1862 C1878 0.931 . S
C1863 H1851 0.929 . S
C1863 C1857 1.390 . S
C1863 C1860 1.386 . S
C1864 C1859 1.490 . S
C1864 C1866 1.395 . S
C1864 C1867 1.403 . S
H1865 C1871 0.930 . S
C1866 H1852 0.930 . S
C1866 C1864 1.395 . S
C1866 C1869 1.403 . S
C1867 C1864 1.403 . S
C1867 C1868 1.524 . S
C1867 C1871 1.400 . S
C1868 H1853 0.960 . S
C1868 H1854 0.960 . S
C1868 H1855 0.960 . S
C1868 C1867 1.524 . S
C1869 C1866 1.403 . S
C1869 C1870 1.392 . S
C1869 C1873 1.495 . S
C1870 C1869 1.392 . S
C1870 C1871 1.385 . S
C1870 C1872 1.478 . S
C1871 H1865 0.930 . S
C1871 C1867 1.400 . S
C1871 C1870 1.385 . S
C1872 C1870 1.478 . S
C1872 C1874 1.381 . S
C1872 C1878 1.383 . S
C1873 C1869 1.495 . S
C1873 H1879 0.959 . S
C1873 H1880 0.961 . S
C1873 H1881 0.960 . S
C1874 C1872 1.381 . S
C1874 C1875 1.394 . S
C1874 H1882 0.930 . S
C1875 C1874 1.394 . S
C1875 C1876 1.383 . S
C1875 H1883 0.929 . S
C1876 C1875 1.383 . S
C1876 C1877 1.377 . S
C1877 H1861 0.930 . S
C1877 C1876 1.377 . S
C1877 C1878 1.379 . S
C1878 H1862 0.931 . S
C1878 C1872 1.383 . S
C1878 C1877 1.379 . S
H1879 C1873 0.959 . S
H1880 C1873 0.961 . S
H1881 C1873 0.960 . S
H1882 C1874 0.930 . S
H1883 C1875 0.929 . S
H1884 C1892 0.929 . S
H1885 C1894 0.930 . S
H1886 C1896 0.930 . S
H1887 C1899 0.929 . S
H1888 C1902 0.930 . S
H1889 C1904 0.960 . S
H1890 C1904 0.960 . S
H1891 C1904 0.960 . S
C1892 H1884 0.929 . S
C1892 C1893 1.377 . S
C1892 C1894 1.384 . S
C1893 C1892 1.377 . S
C1893 C1899 1.390 . S
C1894 H1885 0.930 . S
C1894 C1892 1.384 . S
C1894 C1895 1.372 . S
C1895 C1894 1.372 . S
C1895 C1896 1.400 . S
C1895 C1900 1.490 . S
C1896 H1886 0.930 . S
C1896 C1895 1.400 . S
C1896 C1899 1.386 . S
H1897 C1913 0.930 . S
H1898 C1914 0.931 . S
C1899 H1887 0.929 . S
C1899 C1893 1.390 . S
C1899 C1896 1.386 . S
C1900 C1895 1.490 . S
C1900 C1902 1.395 . S
C1900 C1903 1.403 . S
H1901 C1907 0.930 . S
C1902 H1888 0.930 . S
C1902 C1900 1.395 . S
C1902 C1905 1.403 . S
C1903 C1900 1.403 . S
C1903 C1904 1.524 . S
C1903 C1907 1.400 . S
C1904 H1889 0.960 . S
C1904 H1890 0.960 . S
C1904 H1891 0.960 . S
C1904 C1903 1.524 . S
C1905 C1902 1.403 . S
C1905 C1906 1.392 . S
C1905 C1909 1.495 . S
C1906 C1905 1.392 . S
C1906 C1907 1.385 . S
C1906 C1908 1.478 . S
C1907 H1901 0.930 . S
C1907 C1903 1.400 . S
C1907 C1906 1.385 . S
C1908 C1906 1.478 . S
C1908 C1910 1.381 . S
C1908 C1914 1.383 . S
C1909 C1905 1.495 . S
C1909 H1915 0.959 . S
C1909 H1916 0.961 . S
C1909 H1917 0.960 . S
C1910 C1908 1.381 . S
C1910 C1911 1.394 . S
C1910 H1918 0.930 . S
C1911 C1910 1.394 . S
C1911 C1912 1.383 . S
C1911 H1919 0.929 . S
C1912 C1911 1.383 . S
C1912 C1913 1.377 . S
C1913 H1897 0.930 . S
C1913 C1912 1.377 . S
C1913 C1914 1.379 . S
C1914 H1898 0.931 . S
C1914 C1908 1.383 . S
C1914 C1913 1.379 . S
H1915 C1909 0.959 . S
H1916 C1909 0.961 . S
H1917 C1909 0.960 . S
H1918 C1910 0.930 . S
H1919 C1911 0.929 . S
H1920 C1928 0.929 . S
H1921 C1930 0.930 . S
H1922 C1932 0.930 . S
H1923 C1935 0.929 . S
H1924 C1938 0.930 . S
H1925 C1940 0.960 . S
H1926 C1940 0.960 . S
H1927 C1940 0.960 . S
C1928 H1920 0.929 . S
C1928 C1929 1.377 . S
C1928 C1930 1.384 . S
C1929 C1928 1.377 . S
C1929 C1935 1.390 . S
C1930 H1921 0.930 . S
C1930 C1928 1.384 . S
C1930 C1931 1.372 . S
C1931 C1930 1.372 . S
C1931 C1932 1.400 . S
C1931 C1936 1.490 . S
C1932 H1922 0.930 . S
C1932 C1931 1.400 . S
C1932 C1935 1.386 . S
H1933 C1949 0.930 . S
H1934 C1950 0.931 . S
C1935 H1923 0.929 . S
C1935 C1929 1.390 . S
C1935 C1932 1.386 . S
C1936 C1931 1.490 . S
C1936 C1938 1.395 . S
C1936 C1939 1.403 . S
H1937 C1943 0.930 . S
C1938 H1924 0.930 . S
C1938 C1936 1.395 . S
C1938 C1941 1.403 . S
C1939 C1936 1.403 . S
C1939 C1940 1.524 . S
C1939 C1943 1.400 . S
C1940 H1925 0.960 . S
C1940 H1926 0.960 . S
C1940 H1927 0.960 . S
C1940 C1939 1.524 . S
C1941 C1938 1.403 . S
C1941 C1942 1.392 . S
C1941 C1945 1.495 . S
C1942 C1941 1.392 . S
C1942 C1943 1.385 . S
C1942 C1944 1.478 . S
C1943 H1937 0.930 . S
C1943 C1939 1.400 . S
C1943 C1942 1.385 . S
C1944 C1942 1.478 . S
C1944 C1946 1.381 . S
C1944 C1950 1.383 . S
C1945 C1941 1.495 . S
C1945 H1951 0.959 . S
C1945 H1952 0.961 . S
C1945 H1953 0.960 . S
C1946 C1944 1.381 . S
C1946 C1947 1.394 . S
C1946 H1954 0.930 . S
C1947 C1946 1.394 . S
C1947 C1948 1.383 . S
C1947 H1955 0.929 . S
C1948 C1947 1.383 . S
C1948 C1949 1.377 . S
C1949 H1933 0.930 . S
C1949 C1948 1.377 . S
C1949 C1950 1.379 . S
C1950 H1934 0.931 . S
C1950 C1944 1.383 . S
C1950 C1949 1.379 . S
H1951 C1945 0.959 . S
H1952 C1945 0.961 . S
H1953 C1945 0.960 . S
H1954 C1946 0.930 . S
H1955 C1947 0.929 . S
H1956 C1964 0.929 . S
H1957 C1966 0.930 . S
H1958 C1968 0.930 . S
H1959 C1971 0.929 . S
H1960 C1974 0.930 . S
H1961 C1976 0.960 . S
H1962 C1976 0.960 . S
H1963 C1976 0.960 . S
C1964 H1956 0.929 . S
C1964 C1965 1.377 . S
C1964 C1966 1.384 . S
C1965 C1964 1.377 . S
C1965 C1971 1.390 . S
C1966 H1957 0.930 . S
C1966 C1964 1.384 . S
C1966 C1967 1.372 . S
C1967 C1966 1.372 . S
C1967 C1968 1.400 . S
C1967 C1972 1.490 . S
C1968 H1958 0.930 . S
C1968 C1967 1.400 . S
C1968 C1971 1.386 . S
H1969 C1985 0.930 . S
H1970 C1986 0.931 . S
C1971 H1959 0.929 . S
C1971 C1965 1.390 . S
C1971 C1968 1.386 . S
C1972 C1967 1.490 . S
C1972 C1974 1.395 . S
C1972 C1975 1.403 . S
H1973 C1979 0.930 . S
C1974 H1960 0.930 . S
C1974 C1972 1.395 . S
C1974 C1977 1.403 . S
C1975 C1972 1.403 . S
C1975 C1976 1.524 . S
C1975 C1979 1.400 . S
C1976 H1961 0.960 . S
C1976 H1962 0.960 . S
C1976 H1963 0.960 . S
C1976 C1975 1.524 . S
C1977 C1974 1.403 . S
C1977 C1978 1.392 . S
C1977 C1981 1.495 . S
C1978 C1977 1.392 . S
C1978 C1979 1.385 . S
C1978 C1980 1.478 . S
C1979 H1973 0.930 . S
C1979 C1975 1.400 . S
C1979 C1978 1.385 . S
C1980 C1978 1.478 . S
C1980 C1982 1.381 . S
C1980 C1986 1.383 . S
C1981 C1977 1.495 . S
C1981 H1987 0.959 . S
C1981 H1988 0.961 . S
C1981 H1989 0.960 . S
C1982 C1980 1.381 . S
C1982 C1983 1.394 . S
C1982 H1990 0.930 . S
C1983 C1982 1.394 . S
C1983 C1984 1.383 . S
C1983 H1991 0.929 . S
C1984 C1983 1.383 . S
C1984 C1985 1.377 . S
C1985 H1969 0.930 . S
C1985 C1984 1.377 . S
C1985 C1986 1.379 . S
C1986 H1970 0.931 . S
C1986 C1980 1.383 . S
C1986 C1985 1.379 . S
H1987 C1981 0.959 . S
H1988 C1981 0.961 . S
H1989 C1981 0.960 . S
H1990 C1982 0.930 . S
H1991 C1983 0.929 . S
H1992 C2000 0.929 . S
H1993 C2002 0.930 . S
H1994 C2004 0.930 . S
H1995 C2007 0.929 . S
H1996 C2010 0.930 . S
H1997 C2012 0.960 . S
H1998 C2012 0.960 . S
H1999 C2012 0.960 . S
C2000 H1992 0.929 . S
C2000 C2001 1.377 . S
C2000 C2002 1.384 . S
C2001 C2000 1.377 . S
C2001 C2007 1.390 . S
C2002 H1993 0.930 . S
C2002 C2000 1.384 . S
C2002 C2003 1.372 . S
C2003 C2002 1.372 . S
C2003 C2004 1.400 . S
C2003 C2008 1.490 . S
C2004 H1994 0.930 . S
C2004 C2003 1.400 . S
C2004 C2007 1.386 . S
H2005 C2021 0.930 . S
H2006 C2022 0.931 . S
C2007 H1995 0.929 . S
C2007 C2001 1.390 . S
C2007 C2004 1.386 . S
C2008 C2003 1.490 . S
C2008 C2010 1.395 . S
C2008 C2011 1.403 . S
H2009 C2015 0.930 . S
C2010 H1996 0.930 . S
C2010 C2008 1.395 . S
C2010 C2013 1.403 . S
C2011 C2008 1.403 . S
C2011 C2012 1.524 . S
C2011 C2015 1.400 . S
C2012 H1997 0.960 . S
C2012 H1998 0.960 . S
C2012 H1999 0.960 . S
C2012 C2011 1.524 . S
C2013 C2010 1.403 . S
C2013 C2014 1.392 . S
C2013 C2017 1.495 . S
C2014 C2013 1.392 . S
C2014 C2015 1.385 . S
C2014 C2016 1.478 . S
C2015 H2009 0.930 . S
C2015 C2011 1.400 . S
C2015 C2014 1.385 . S
C2016 C2014 1.478 . S
C2016 C2018 1.381 . S
C2016 C2022 1.383 . S
C2017 C2013 1.495 . S
C2017 H2023 0.959 . S
C2017 H2024 0.961 . S
C2017 H2025 0.960 . S
C2018 C2016 1.381 . S
C2018 C2019 1.394 . S
C2018 H2026 0.930 . S
C2019 C2018 1.394 . S
C2019 C2020 1.383 . S
C2019 H2027 0.929 . S
C2020 C2019 1.383 . S
C2020 C2021 1.377 . S
C2021 H2005 0.930 . S
C2021 C2020 1.377 . S
C2021 C2022 1.379 . S
C2022 H2006 0.931 . S
C2022 C2016 1.383 . S
C2022 C2021 1.379 . S
H2023 C2017 0.959 . S
H2024 C2017 0.961 . S
H2025 C2017 0.960 . S
H2026 C2018 0.930 . S
H2027 C2019 0.929 . S
H2028 C2036 0.929 . S
H2029 C2038 0.930 . S
H2030 C2040 0.930 . S
H2031 C2043 0.929 . S
H2032 C2046 0.930 . S
H2033 C2048 0.960 . S
H2034 C2048 0.960 . S
H2035 C2048 0.960 . S
C2036 H2028 0.929 . S
C2036 C2037 1.377 . S
C2036 C2038 1.384 . S
C2037 C2036 1.377 . S
C2037 C2043 1.390 . S
C2038 H2029 0.930 . S
C2038 C2036 1.384 . S
C2038 C2039 1.372 . S
C2039 C2038 1.372 . S
C2039 C2040 1.400 . S
C2039 C2044 1.490 . S
C2040 H2030 0.930 . S
C2040 C2039 1.400 . S
C2040 C2043 1.386 . S
H2041 C2057 0.930 . S
H2042 C2058 0.931 . S
C2043 H2031 0.929 . S
C2043 C2037 1.390 . S
C2043 C2040 1.386 . S
C2044 C2039 1.490 . S
C2044 C2046 1.395 . S
C2044 C2047 1.403 . S
H2045 C2051 0.930 . S
C2046 H2032 0.930 . S
C2046 C2044 1.395 . S
C2046 C2049 1.403 . S
C2047 C2044 1.403 . S
C2047 C2048 1.524 . S
C2047 C2051 1.400 . S
C2048 H2033 0.960 . S
C2048 H2034 0.960 . S
C2048 H2035 0.960 . S
C2048 C2047 1.524 . S
C2049 C2046 1.403 . S
C2049 C2050 1.392 . S
C2049 C2053 1.495 . S
C2050 C2049 1.392 . S
C2050 C2051 1.385 . S
C2050 C2052 1.478 . S
C2051 H2045 0.930 . S
C2051 C2047 1.400 . S
C2051 C2050 1.385 . S
C2052 C2050 1.478 . S
C2052 C2054 1.381 . S
C2052 C2058 1.383 . S
C2053 C2049 1.495 . S
C2053 H2059 0.959 . S
C2053 H2060 0.961 . S
C2053 H2061 0.960 . S
C2054 C2052 1.381 . S
C2054 C2055 1.394 . S
C2054 H2062 0.930 . S
C2055 C2054 1.394 . S
C2055 C2056 1.383 . S
C2055 H2063 0.929 . S
C2056 C2055 1.383 . S
C2056 C2057 1.377 . S
C2057 H2041 0.930 . S
C2057 C2056 1.377 . S
C2057 C2058 1.379 . S
C2058 H2042 0.931 . S
C2058 C2052 1.383 . S
C2058 C2057 1.379 . S
H2059 C2053 0.959 . S
H2060 C2053 0.961 . S
H2061 C2053 0.960 . S
H2062 C2054 0.930 . S
H2063 C2055 0.929 . S
C345 C167 1.281 . S
C364 C7 1.446 . S
C381 C21 1.430 . S
C400 C125 1.304 . S
C417 C35 1.426 . S
C436 C139 1.329 . S
C453 C49 1.427 . S
C472 C153 1.323 . S
C489 C195 1.284 . S
C508 C63 1.442 . S
C525 C77 1.427 . S
C544 C209 1.323 . S
C561 C223 1.293 . S
C580 C91 1.403 . S
C597 C181 1.290 . S
C616 C105 1.431 . S
C633 C83 1.274 . S
C652 C119 1.444 . S
C669 C97 1.276 . S
C688 C133 1.448 . S
C705 C147 1.429 . S
C724 C111 1.312 . S
C741 C69 1.295 . S
C760 C161 1.406 . S
C777 C55 1.294 . S
C796 C175 1.416 . S
C813 C189 1.433 . S
C832 C13 1.254 . S
C849 C203 1.432 . S
C868 C27 1.232 . S
C885 C217 1.424 . S
C904 C41 1.314 . S
C921 C231 1.429 . S
C940 C335 1.244 . S
C957 C293 1.275 . S
C976 C245 1.447 . S
C993 C259 1.424 . S
C1012 C251 1.310 . S
C1029 C273 1.429 . S
C1048 C265 1.242 . S
C1065 C279 1.274 . S
C1084 C287 1.438 . S
C1101 C301 1.432 . S
C1120 C321 1.269 . S
C1137 C237 1.275 . S
C1156 C315 1.447 . S
C1173 C307 1.288 . S
C1192 C329 1.405 . S
C1209 C8 1.146 . S
C1228 C92 1.172 . S
C1245 C22 1.156 . S
C1264 C106 1.182 . S
C1281 C36 1.152 . S
C1300 C64 1.187 . S
C1317 C78 1.149 . S
C1336 C50 1.183 . S
C1353 C148 1.140 . S
C1372 C120 1.118 . S
C1389 C134 1.140 . S
C1408 C162 1.121 . S
C1425 C176 1.142 . S
C1444 C204 1.153 . S
C1461 C218 1.157 . S
C1480 C190 1.163 . S
C1497 C246 1.155 . S
C1516 C232 1.140 . S
C1533 C260 1.152 . S
C1552 C330 1.124 . S
C1569 C274 1.144 . S
C1588 C302 1.163 . S
C1605 C288 1.142 . S
C1624 C316 1.106 . S
C1641 C11 0.877 . S
C1660 C81 0.863 . S
C1677 C25 0.884 . S
C1696 C95 0.895 . S
C1713 C39 0.876 . S
C1732 C109 0.859 . S
C1749 C67 0.882 . S
C1768 C53 0.893 . S
C1785 C123 0.882 . S
C1804 C333 0.885 . S
C1821 C137 0.882 . S
C1840 C305 0.891 . S
C1857 C319 0.877 . S
C1876 C151 0.862 . S
C1893 C165 0.878 . S
C1912 C235 0.874 . S
C1929 C291 0.881 . S
C1948 C179 0.881 . S
C1965 C249 0.882 . S
C1984 C193 0.886 . S
C2001 C207 0.877 . S
C2020 C263 0.862 . S
C2037 C277 0.883 . S
C2056 C221 0.896 . S
