# Generated by pormake.
# Topology ukn, (4)-cn, num edge types: 1
# Building blocks:
#     Node 0, Type 0, BuildingBlock: AZAVOO_clean_sbu_0, # of connection points: 4
#     Node 1, Type 0, BuildingBlock: AZAVOO_clean_sbu_0, # of connection points: 4
#     Node 2, Type 0, BuildingBlock: AZAVOO_clean_sbu_0, # of connection points: 4
#     Node 3, Type 0, BuildingBlock: AZAVOO_clean_sbu_0, # of connection points: 4
#     Node 4, Type 0, BuildingBlock: AZAVOO_clean_sbu_0, # of connection points: 4
#     Node 5, Type 0, BuildingBlock: AZAVOO_clean_sbu_0, # of connection points: 4
#     Node 6, Type 0, BuildingBlock: AZAVOO_clean_sbu_0, # of connection points: 4
#     Node 7, Type 0, BuildingBlock: AZAVOO_clean_sbu_0, # of connection points: 4
#     Node 8, Type 0, BuildingBlock: AZAVOO_clean_sbu_0, # of connection points: 4
#     Node 9, Type 0, BuildingBlock: AZAVOO_clean_sbu_0, # of connection points: 4
#     Node 10, Type 0, BuildingBlock: AZAVOO_clean_sbu_0, # of connection points: 4
#     Node 11, Type 0, BuildingBlock: AZAVOO_clean_sbu_0, # of connection points: 4
#     Node 12, Type 0, BuildingBlock: AZAVOO_clean_sbu_0, # of connection points: 4
#     Node 13, Type 0, BuildingBlock: AZAVOO_clean_sbu_0, # of connection points: 4
#     Node 14, Type 0, BuildingBlock: AZAVOO_clean_sbu_0, # of connection points: 4
#     Node 15, Type 0, BuildingBlock: AZAVOO_clean_sbu_0, # of connection points: 4
#     Node 16, Type 0, BuildingBlock: AZAVOO_clean_sbu_0, # of connection points: 4
#     Node 17, Type 0, BuildingBlock: AZAVOO_clean_sbu_0, # of connection points: 4
#     Node 18, Type 0, BuildingBlock: AZAVOO_clean_sbu_0, # of connection points: 4
#     Node 19, Type 0, BuildingBlock: AZAVOO_clean_sbu_0, # of connection points: 4
#     Node 20, Type 0, BuildingBlock: AZAVOO_clean_sbu_0, # of connection points: 4
#     Node 21, Type 0, BuildingBlock: AZAVOO_clean_sbu_0, # of connection points: 4
#     Node 22, Type 0, BuildingBlock: AZAVOO_clean_sbu_0, # of connection points: 4
#     Node 23, Type 0, BuildingBlock: AZAVOO_clean_sbu_0, # of connection points: 4
#     Node 24, Type 0, BuildingBlock: AZAVOO_clean_sbu_0, # of connection points: 4
#     Node 25, Type 0, BuildingBlock: AZAVOO_clean_sbu_0, # of connection points: 4
#     Node 26, Type 0, BuildingBlock: AZAVOO_clean_sbu_0, # of connection points: 4
#     Node 27, Type 0, BuildingBlock: AZAVOO_clean_sbu_0, # of connection points: 4
#     Node 28, Type 0, BuildingBlock: AZAVOO_clean_sbu_0, # of connection points: 4
#     Node 29, Type 0, BuildingBlock: AZAVOO_clean_sbu_0, # of connection points: 4
#     Node 30, Type 0, BuildingBlock: AZAVOO_clean_sbu_0, # of connection points: 4
#     Node 31, Type 0, BuildingBlock: AZAVOO_clean_sbu_0, # of connection points: 4
#     Node 32, Type 0, BuildingBlock: AZAVOO_clean_sbu_0, # of connection points: 4
#     Node 33, Type 0, BuildingBlock: AZAVOO_clean_sbu_0, # of connection points: 4
#     Node 34, Type 0, BuildingBlock: AZAVOO_clean_sbu_0, # of connection points: 4
#     Node 35, Type 0, BuildingBlock: AZAVOO_clean_sbu_0, # of connection points: 4
#     Edge 36, Type (0, 0), BuildingBlock: CIFDUS_clean_linker_0, # of connection points: 2
#     Edge 37, Type (0, 0), BuildingBlock: CIFDUS_clean_linker_0, # of connection points: 2
#     Edge 38, Type (0, 0), BuildingBlock: CIFDUS_clean_linker_0, # of connection points: 2
#     Edge 39, Type (0, 0), BuildingBlock: CIFDUS_clean_linker_0, # of connection points: 2
#     Edge 40, Type (0, 0), BuildingBlock: CIFDUS_clean_linker_0, # of connection points: 2
#     Edge 41, Type (0, 0), BuildingBlock: CIFDUS_clean_linker_0, # of connection points: 2
#     Edge 42, Type (0, 0), BuildingBlock: CIFDUS_clean_linker_0, # of connection points: 2
#     Edge 43, Type (0, 0), BuildingBlock: CIFDUS_clean_linker_0, # of connection points: 2
#     Edge 44, Type (0, 0), BuildingBlock: CIFDUS_clean_linker_0, # of connection points: 2
#     Edge 45, Type (0, 0), BuildingBlock: CIFDUS_clean_linker_0, # of connection points: 2
#     Edge 46, Type (0, 0), BuildingBlock: CIFDUS_clean_linker_0, # of connection points: 2
#     Edge 47, Type (0, 0), BuildingBlock: CIFDUS_clean_linker_0, # of connection points: 2
#     Edge 48, Type (0, 0), BuildingBlock: CIFDUS_clean_linker_0, # of connection points: 2
#     Edge 49, Type (0, 0), BuildingBlock: CIFDUS_clean_linker_0, # of connection points: 2
#     Edge 50, Type (0, 0), BuildingBlock: CIFDUS_clean_linker_0, # of connection points: 2
#     Edge 51, Type (0, 0), BuildingBlock: CIFDUS_clean_linker_0, # of connection points: 2
#     Edge 52, Type (0, 0), BuildingBlock: CIFDUS_clean_linker_0, # of connection points: 2
#     Edge 53, Type (0, 0), BuildingBlock: CIFDUS_clean_linker_0, # of connection points: 2
#     Edge 54, Type (0, 0), BuildingBlock: CIFDUS_clean_linker_0, # of connection points: 2
#     Edge 55, Type (0, 0), BuildingBlock: CIFDUS_clean_linker_0, # of connection points: 2
#     Edge 56, Type (0, 0), BuildingBlock: CIFDUS_clean_linker_0, # of connection points: 2
#     Edge 57, Type (0, 0), BuildingBlock: CIFDUS_clean_linker_0, # of connection points: 2
#     Edge 58, Type (0, 0), BuildingBlock: CIFDUS_clean_linker_0, # of connection points: 2
#     Edge 59, Type (0, 0), BuildingBlock: CIFDUS_clean_linker_0, # of connection points: 2
#     Edge 60, Type (0, 0), BuildingBlock: CIFDUS_clean_linker_0, # of connection points: 2
#     Edge 61, Type (0, 0), BuildingBlock: CIFDUS_clean_linker_0, # of connection points: 2
#     Edge 62, Type (0, 0), BuildingBlock: CIFDUS_clean_linker_0, # of connection points: 2
#     Edge 63, Type (0, 0), BuildingBlock: CIFDUS_clean_linker_0, # of connection points: 2
#     Edge 64, Type (0, 0), BuildingBlock: CIFDUS_clean_linker_0, # of connection points: 2
#     Edge 65, Type (0, 0), BuildingBlock: CIFDUS_clean_linker_0, # of connection points: 2
#     Edge 66, Type (0, 0), BuildingBlock: CIFDUS_clean_linker_0, # of connection points: 2
#     Edge 67, Type (0, 0), BuildingBlock: CIFDUS_clean_linker_0, # of connection points: 2
#     Edge 68, Type (0, 0), BuildingBlock: CIFDUS_clean_linker_0, # of connection points: 2
#     Edge 69, Type (0, 0), BuildingBlock: CIFDUS_clean_linker_0, # of connection points: 2
#     Edge 70, Type (0, 0), BuildingBlock: CIFDUS_clean_linker_0, # of connection points: 2
#     Edge 71, Type (0, 0), BuildingBlock: CIFDUS_clean_linker_0, # of connection points: 2
#     Edge 72, Type (0, 0), BuildingBlock: CIFDUS_clean_linker_0, # of connection points: 2
#     Edge 73, Type (0, 0), BuildingBlock: CIFDUS_clean_linker_0, # of connection points: 2
#     Edge 74, Type (0, 0), BuildingBlock: CIFDUS_clean_linker_0, # of connection points: 2
#     Edge 75, Type (0, 0), BuildingBlock: CIFDUS_clean_linker_0, # of connection points: 2
#     Edge 76, Type (0, 0), BuildingBlock: CIFDUS_clean_linker_0, # of connection points: 2
#     Edge 77, Type (0, 0), BuildingBlock: CIFDUS_clean_linker_0, # of connection points: 2
#     Edge 78, Type (0, 0), BuildingBlock: CIFDUS_clean_linker_0, # of connection points: 2
#     Edge 79, Type (0, 0), BuildingBlock: CIFDUS_clean_linker_0, # of connection points: 2
#     Edge 80, Type (0, 0), BuildingBlock: CIFDUS_clean_linker_0, # of connection points: 2
#     Edge 81, Type (0, 0), BuildingBlock: CIFDUS_clean_linker_0, # of connection points: 2
#     Edge 82, Type (0, 0), BuildingBlock: CIFDUS_clean_linker_0, # of connection points: 2
#     Edge 83, Type (0, 0), BuildingBlock: CIFDUS_clean_linker_0, # of connection points: 2
#     Edge 84, Type (0, 0), BuildingBlock: CIFDUS_clean_linker_0, # of connection points: 2
#     Edge 85, Type (0, 0), BuildingBlock: CIFDUS_clean_linker_0, # of connection points: 2
#     Edge 86, Type (0, 0), BuildingBlock: CIFDUS_clean_linker_0, # of connection points: 2
#     Edge 87, Type (0, 0), BuildingBlock: CIFDUS_clean_linker_0, # of connection points: 2
#     Edge 88, Type (0, 0), BuildingBlock: CIFDUS_clean_linker_0, # of connection points: 2
#     Edge 89, Type (0, 0), BuildingBlock: CIFDUS_clean_linker_0, # of connection points: 2
#     Edge 90, Type (0, 0), BuildingBlock: CIFDUS_clean_linker_0, # of connection points: 2
#     Edge 91, Type (0, 0), BuildingBlock: CIFDUS_clean_linker_0, # of connection points: 2
#     Edge 92, Type (0, 0), BuildingBlock: CIFDUS_clean_linker_0, # of connection points: 2
#     Edge 93, Type (0, 0), BuildingBlock: CIFDUS_clean_linker_0, # of connection points: 2
#     Edge 94, Type (0, 0), BuildingBlock: CIFDUS_clean_linker_0, # of connection points: 2
#     Edge 95, Type (0, 0), BuildingBlock: CIFDUS_clean_linker_0, # of connection points: 2
#     Edge 96, Type (0, 0), BuildingBlock: CIFDUS_clean_linker_0, # of connection points: 2
#     Edge 97, Type (0, 0), BuildingBlock: CIFDUS_clean_linker_0, # of connection points: 2
#     Edge 98, Type (0, 0), BuildingBlock: CIFDUS_clean_linker_0, # of connection points: 2
#     Edge 99, Type (0, 0), BuildingBlock: CIFDUS_clean_linker_0, # of connection points: 2
#     Edge 100, Type (0, 0), BuildingBlock: CIFDUS_clean_linker_0, # of connection points: 2
#     Edge 101, Type (0, 0), BuildingBlock: CIFDUS_clean_linker_0, # of connection points: 2
#     Edge 102, Type (0, 0), BuildingBlock: CIFDUS_clean_linker_0, # of connection points: 2
#     Edge 103, Type (0, 0), BuildingBlock: CIFDUS_clean_linker_0, # of connection points: 2
#     Edge 104, Type (0, 0), BuildingBlock: CIFDUS_clean_linker_0, # of connection points: 2
#     Edge 105, Type (0, 0), BuildingBlock: CIFDUS_clean_linker_0, # of connection points: 2
#     Edge 106, Type (0, 0), BuildingBlock: CIFDUS_clean_linker_0, # of connection points: 2
#     Edge 107, Type (0, 0), BuildingBlock: CIFDUS_clean_linker_0, # of connection points: 2
# Relax obj value: 0.161
# Max RMSD: 0.147
# Mean RMSD: 0.147
data_MOF--net-ukn--node1-AZAVOO_clean_sbu_0--edge1-CIFDUS_clean_linker_0
_symmetry_space_group_name_H-M    P1
_symmetry_Int_Tables_number       1
_symmetry_cell_setting            triclinic
loop_
_symmetry_equiv_pos_as_xyz
'x, y, z'
_cell_length_a     95.937425
_cell_length_b     96.067905
_cell_length_c     20.965015
_cell_angle_alpha  90.014875
_cell_angle_beta   90.044264
_cell_angle_gamma 120.0138
loop_
_atom_site_label
_atom_site_type_symbol
_atom_site_fract_x
_atom_site_fract_y
_atom_site_fract_z
_atom_type_partial_charge
Mg0 Mg 0.08188 0.28382 0.16844 0.0
O1 O 0.09279 0.30422 0.0942 0.0
O2 O 0.11726 0.32267 0.12896 0.0
Mg3 Mg 0.12212 0.31422 0.22293 0.0
C4 C 0.10588 0.31765 0.0882 0.0
C5 C 0.05031 0.25841 0.10891 0.0
O6 O 0.05777 0.2504 0.12146 0.0
O7 O 0.0767 0.29976 0.23388 0.0
O8 O 0.10191 0.31741 0.26384 0.0
O9 O 0.09325 0.27132 0.11932 0.0
O10 O 0.10497 0.28928 0.1958 0.0
C11 C 0.0868 0.31222 0.26463 0.0
C12 C 0.10589 0.28 0.15372 0.0
O13 O 0.05722 0.27328 0.12262 0.0
Mg14 Mg 0.72498 0.79386 0.13212 0.0
O15 O 0.70857 0.78187 0.04556 0.0
O16 O 0.68488 0.78023 0.06466 0.0
Mg17 Mg 0.68635 0.79186 0.16083 0.0
C18 C 0.69419 0.7777 0.0292 0.0
C19 C 0.75056 0.78301 0.13519 0.0
O20 O 0.74988 0.78562 0.19634 0.0
O21 O 0.7112 0.77136 0.19364 0.0
O22 O 0.68843 0.77183 0.21058 0.0
O23 O 0.73356 0.81798 0.08763 0.0
O24 O 0.71276 0.80604 0.15281 0.0
C25 C 0.69727 0.76551 0.21872 0.0
C26 C 0.72164 0.81803 0.11643 0.0
O27 O 0.74179 0.78543 0.0965 0.0
Mg28 Mg 0.19975 0.90899 0.01844 0.0
O29 O 0.20324 0.89589 0.93274 0.0
O30 O 0.1843 0.86998 0.94185 0.0
Mg31 Mg 0.16852 0.86635 0.02886 0.0
C32 C 0.19632 0.88134 0.91286 0.0
C33 C 0.22674 0.94313 0.03987 0.0
O34 O 0.21733 0.9399 0.08977 0.0
O35 O 0.2111 0.89856 0.08661 0.0
O36 O 0.19003 0.87366 0.0952 0.0
O37 O 0.18137 0.913 0.96582 0.0
O38 O 0.17567 0.89159 0.02313 0.0
C39 C 0.20413 0.88457 0.112 0.0
C40 C 0.17077 0.89901 0.98701 0.0
O41 O 0.22348 0.93198 -0.0002 0.0
Mg42 Mg 0.29265 0.06676 0.89478 0.0
O43 O 0.30798 0.07773 0.98492 0.0
O44 O 0.32586 0.10349 0.96436 0.0
Mg45 Mg 0.32168 0.10929 0.8635 0.0
C46 C 0.31972 0.09138 0.00158 0.0
C47 C 0.27716 0.03787 0.99055 0.0
O48 O 0.27723 0.0491 0.02654 0.0
O49 O 0.31339 0.06593 0.84352 0.0
O50 O 0.32971 0.0922 0.82559 0.0
O51 O 0.27553 0.07503 0.92765 0.0
O52 O 0.29679 0.08924 0.86706 0.0
C53 C 0.3264 0.0776 0.82136 0.0
C54 C 0.28474 0.08829 0.89752 0.0
O55 O 0.28293 0.04146 0.93453 0.0
Mg56 Mg 0.92899 0.21707 0.9169 0.0
O57 O 0.91752 0.22477 0.99546 0.0
O58 O 0.89277 0.21839 0.96273 0.0
Mg59 Mg 0.8882 0.20624 0.86618 0.0
C60 C 0.90415 0.22442 0.00352 0.0
C61 C 0.9621 0.2251 0.96608 0.0
O62 O 0.95618 0.21038 0.94425 0.0
O63 O 0.93313 0.23841 0.85483 0.0
O64 O 0.90768 0.23023 0.82657 0.0
O65 O 0.91848 0.19283 0.9625 0.0
O66 O 0.9062 0.19918 0.88861 0.0
C67 C 0.92268 0.24054 0.82563 0.0
C68 C 0.90568 0.18883 0.92902 0.0
O69 O 0.95359 0.23179 0.96238 0.0
Mg70 Mg 0.80309 0.72269 0.86382 0.0
O71 O 0.79063 0.70596 0.94896 0.0
O72 O 0.78875 0.68221 0.92974 0.0
Mg73 Mg 0.80089 0.68413 0.83401 0.0
C74 C 0.78625 0.69154 0.9651 0.0
C75 C 0.79573 0.74367 0.95639 0.0
O76 O 0.80354 0.73943 0.99607 0.0
O77 O 0.78091 0.70914 0.79994 0.0
O78 O 0.78089 0.68617 0.78224 0.0
O79 O 0.82704 0.73114 0.91061 0.0
O80 O 0.81542 0.71058 0.84414 0.0
C81 C 0.7749 0.69529 0.77403 0.0
C82 C 0.82725 0.71933 0.88165 0.0
O83 O 0.79401 0.73906 0.8987 0.0
Mg84 Mg 0.9281 0.70576 0.93457 0.0
O85 O 0.91665 0.68968 0.02292 0.0
O86 O 0.89033 0.67408 0.00241 0.0
Mg87 Mg 0.88537 0.67783 0.90011 0.0
C88 C 0.90243 0.67906 0.03954 0.0
C89 C 0.95701 0.71951 0.03234 0.0
O90 O 0.94568 0.71803 0.07165 0.0
O91 O 0.92869 0.68521 0.88153 0.0
O92 O 0.9023 0.66931 0.86393 0.0
O93 O 0.92006 0.723 0.96904 0.0
O94 O 0.90584 0.7023 0.90593 0.0
C95 C 0.91682 0.67232 0.85952 0.0
C96 C 0.90686 0.71419 0.93772 0.0
O97 O 0.95336 0.71508 0.97467 0.0
Mg98 Mg 0.26064 0.18288 0.91718 0.0
O99 O 0.28039 0.19385 0.99372 0.0
O100 O 0.30164 0.19204 0.96137 0.0
Mg101 Mg 0.2955 0.18012 0.86384 0.0
C102 C 0.29465 0.19633 0.00212 0.0
C103 C 0.23645 0.19487 0.93392 0.0
O104 O 0.231 0.18648 0.88109 0.0
O105 O 0.27469 0.20527 0.85618 0.0
O106 O 0.29578 0.20274 0.82765 0.0
O107 O 0.25096 0.15842 0.96133 0.0
O108 O 0.2696 0.16836 0.88645 0.0
C109 C 0.28816 0.21047 0.82806 0.0
C110 C 0.26115 0.1569 0.92571 0.0
O111 O 0.24805 0.19487 0.96318 0.0
Mg112 Mg 0.79345 0.08285 0.92493 0.0
O113 O 0.78324 0.09122 0.00606 0.0
O114 O 0.78347 0.11347 0.97294 0.0
Mg115 Mg 0.79477 0.11991 0.87423 0.0
C116 C 0.78026 0.10264 0.01478 0.0
C117 C 0.77968 0.04683 0.93191 0.0
O118 O 0.78282 0.05003 0.87094 0.0
O119 O 0.77054 0.07401 0.86614 0.0
O120 O 0.77281 0.09731 0.83502 0.0
O121 O 0.81844 0.09793 0.96349 0.0
O122 O 0.80713 0.10621 0.89266 0.0
C123 C 0.76531 0.08196 0.83579 0.0
C124 C 0.81935 0.10938 0.92788 0.0
O125 O 0.78315 0.05834 0.97032 0.0
Mg126 Mg 0.71823 0.92449 0.09702 0.0
O127 O 0.69834 0.9149 0.02034 0.0
O128 O 0.67894 0.89059 0.0519 0.0
Mg129 Mg 0.68654 0.88441 0.14528 0.0
C130 C 0.68466 0.90222 0.01234 0.0
C131 C 0.73367 0.9525 -0.00174 0.0
O132 O 0.73102 0.94058 0.96001 0.0
O133 O 0.70275 0.92968 0.16463 0.0
O134 O 0.68421 0.90465 0.19213 0.0
O135 O 0.73045 0.91304 0.04682 0.0
O136 O 0.71191 0.90114 0.1213 0.0
C137 C 0.69015 0.91985 0.1953 0.0
C138 C 0.72139 0.90029 0.08002 0.0
O139 O 0.72943 0.94956 0.05629 0.0
Mg140 Mg 0.07398 0.81227 0.13742 0.0
O141 O 0.09161 0.80655 0.08403 0.0
O142 O 0.1159 0.82847 0.0942 0.0
Mg143 Mg 0.11432 0.84705 0.15687 0.0
C144 C 0.1067 0.81439 0.07188 0.0
C145 C 0.04286 0.78128 0.17232 0.0
O146 O 0.04526 0.79039 0.22256 0.0
O147 O 0.08213 0.80758 0.23467 0.0
O148 O 0.10614 0.82991 0.24207 0.0
O149 O 0.07244 0.82344 0.04598 0.0
O150 O 0.08952 0.83688 0.12363 0.0
C151 C 0.09511 0.81666 0.26521 0.0
C152 C 0.08502 0.83644 0.0655 0.0
O153 O 0.05353 0.78637 0.12887 0.0
Mg154 Mg 0.22118 0.29278 0.12937 0.0
O155 O 0.22284 0.30349 0.02732 0.0
O156 O 0.21152 0.31906 0.03021 0.0
Mg157 Mg 0.21668 0.32796 0.13226 0.0
C158 C 0.21721 0.31152 -0.00062 0.0
C159 C 0.22192 0.26522 0.05564 0.0
O160 O 0.20789 0.2631 0.03716 0.0
O161 O 0.24639 0.31264 0.16273 0.0
O162 O 0.23949 0.32749 0.11049 0.0
O163 O 0.19443 0.27852 0.11752 0.0
O164 O 0.20703 0.30262 0.16205 0.0
C165 C 0.24793 0.32644 0.15438 0.0
C166 C 0.19378 0.29046 0.14294 0.0
O167 O 0.2307 0.27697 0.09204 0.0
Mg168 Mg 0.7309 0.61581 0.39432 0.0
O169 O 0.74109 0.63278 0.30819 0.0
O170 O 0.76648 0.6515 0.33009 0.0
Mg171 Mg 0.77296 0.64598 0.42795 0.0
C172 C 0.7543 0.64528 0.29299 0.0
C173 C 0.70216 0.60116 0.29773 0.0
O174 O 0.71378 0.60259 0.26027 0.0
O175 O 0.72892 0.63462 0.45549 0.0
O176 O 0.75498 0.65162 0.47565 0.0
O177 O 0.74044 0.60034 0.35385 0.0
O178 O 0.75379 0.62071 0.41961 0.0
C179 C 0.74012 0.64725 0.48221 0.0
C180 C 0.75345 0.6094 0.38583 0.0
O181 O 0.7054 0.60572 0.35544 0.0
Mg182 Mg 0.39344 0.1374 0.44182 0.0
O183 O 0.37772 0.12714 0.35235 0.0
O184 O 0.35425 0.12624 0.36862 0.0
Mg185 Mg 0.35518 0.13637 0.46766 0.0
C186 C 0.3637 0.12377 0.33385 0.0
C187 C 0.41497 0.13101 0.34845 0.0
O188 O 0.41138 0.13969 0.31074 0.0
O189 O 0.37817 0.11381 0.49574 0.0
O190 O 0.35536 0.11443 0.50923 0.0
O191 O 0.40326 0.16229 0.40261 0.0
O192 O 0.38173 0.14999 0.46392 0.0
C193 C 0.36374 0.10757 0.51605 0.0
C194 C 0.39118 0.16231 0.43 0.0
O195 O 0.40974 0.12838 0.40536 0.0
Mg196 Mg 0.87286 0.26205 0.43641 0.0
O197 O 0.88045 0.25022 0.35951 0.0
O198 O 0.8741 0.22555 0.39215 0.0
Mg199 Mg 0.86235 0.22165 0.48958 0.0
C200 C 0.88014 0.23689 0.35126 0.0
C201 C 0.88541 0.28816 0.32989 0.0
O202 O 0.87433 0.276 0.29701 0.0
O203 O 0.89452 0.26651 0.497 0.0
O204 O 0.88685 0.24125 0.52603 0.0
O205 O 0.84835 0.25122 0.39244 0.0
O206 O 0.85519 0.23958 0.46734 0.0
C207 C 0.89707 0.25628 0.52568 0.0
C208 C 0.84455 0.23876 0.42772 0.0
O209 O 0.88763 0.28613 0.38808 0.0
Mg210 Mg 0.94404 0.40862 0.14984 0.0
O211 O 0.96183 0.41557 0.23371 0.0
O212 O 0.98146 0.44102 0.21841 0.0
Mg213 Mg 0.97584 0.45058 0.12893 0.0
C214 C 0.97504 0.42797 0.25036 0.0
C215 C 0.92315 0.37109 0.14111 0.0
O216 O 0.91924 0.37449 0.08556 0.0
O217 O 0.96197 0.40688 0.08304 0.0
O218 O 0.98045 0.43291 0.07336 0.0
O219 O 0.92991 0.41722 0.20573 0.0
O220 O 0.9503 0.43256 0.14203 0.0
C221 C 0.97525 0.41812 0.06106 0.0
C222 C 0.94001 0.43138 0.18425 0.0
O223 O 0.93305 0.38246 0.17672 0.0
Mg224 Mg 0.57539 0.51837 0.2607 0.0
O225 O 0.55996 0.52054 0.34079 0.0
O226 O 0.53539 0.4989 0.33201 0.0
Mg227 Mg 0.5343 0.48454 0.24389 0.0
C228 C 0.54547 0.51183 0.36046 0.0
C229 C 0.60785 0.54808 0.24146 0.0
O230 O 0.60535 0.53959 0.18919 0.0
O231 O 0.56429 0.52794 0.18692 0.0
O232 O 0.53964 0.50635 0.18312 0.0
O233 O 0.57964 0.50222 0.32615 0.0
O234 O 0.55997 0.49371 0.25541 0.0
C235 C 0.54984 0.52062 0.16565 0.0
C236 C 0.56663 0.49055 0.30193 0.0
O237 O 0.59658 0.54322 0.28228 0.0
Mg238 Mg 0.46248 0.05941 0.15855 0.0
O239 O 0.4511 0.04345 0.24657 0.0
O240 O 0.44832 0.01934 0.22674 0.0
Mg241 Mg 0.4585 0.02008 0.12787 0.0
C242 C 0.4467 0.02906 0.26326 0.0
C243 C 0.4532 0.08618 0.15999 0.0
O244 O 0.45562 0.08576 0.09851 0.0
O245 O 0.4392 0.04617 0.10065 0.0
O246 O 0.43832 0.02283 0.08194 0.0
O247 O 0.48688 0.06727 0.19906 0.0
O248 O 0.47373 0.04645 0.13471 0.0
C249 C 0.43253 0.03217 0.07566 0.0
C250 C 0.48616 0.05506 0.16969 0.0
O251 O 0.45522 0.07688 0.19707 0.0
Mg252 Mg 0.58669 0.04055 0.20514 0.0
O253 O 0.57429 0.02188 0.28496 0.0
O254 O 0.54923 0.00455 0.25197 0.0
Mg255 Mg 0.54528 0.0124 0.15488 0.0
C256 C 0.56053 0.00932 0.29301 0.0
C257 C 0.623 0.061 0.22225 0.0
O258 O 0.6205 0.06603 0.16745 0.0
O259 O 0.58941 0.02198 0.14611 0.0
O260 O 0.56368 0.00599 0.11763 0.0
O261 O 0.57765 0.05602 0.24676 0.0
O262 O 0.56451 0.03701 0.17517 0.0
C263 C 0.57841 0.00961 0.11758 0.0
C264 C 0.56483 0.04777 0.21267 0.0
O265 O 0.6111 0.0497 0.25125 0.0
Mg266 Mg 0.94614 0.53935 0.2399 0.0
O267 O 0.96278 0.54462 0.32783 0.0
O268 O 0.97791 0.53344 0.30665 0.0
Mg269 Mg 0.97271 0.52303 0.2063 0.0
C270 C 0.97348 0.54104 0.34372 0.0
C271 C 0.92787 0.5579 0.24374 0.0
O272 O 0.92349 0.55063 0.18818 0.0
O273 O 0.96655 0.55937 0.18174 0.0
O274 O 0.98147 0.54786 0.16336 0.0
O275 O 0.9282 0.51498 0.27955 0.0
O276 O 0.9486 0.51976 0.21671 0.0
C277 C 0.97881 0.55955 0.15706 0.0
C278 C 0.9367 0.5098 0.25119 0.0
O279 O 0.93789 0.55614 0.27741 0.0
Mg280 Mg 0.46222 0.40111 0.26491 0.0
O281 O 0.45773 0.41414 0.34876 0.0
O282 O 0.4768 0.44003 0.34184 0.0
Mg283 Mg 0.49254 0.44389 0.25464 0.0
C284 C 0.4646 0.4286 0.36964 0.0
C285 C 0.43378 0.36824 0.23477 0.0
O286 O 0.44227 0.37253 0.18192 0.0
O287 O 0.45093 0.41089 0.1939 0.0
O288 O 0.47078 0.43648 0.18956 0.0
O289 O 0.48045 0.39822 0.32399 0.0
O290 O 0.48607 0.41879 0.26093 0.0
C291 C 0.45702 0.42513 0.17151 0.0
C292 C 0.49089 0.4121 0.30129 0.0
O293 O 0.43841 0.37813 0.28102 0.0
Mg294 Mg 0.35682 0.25037 0.44947 0.0
O295 O 0.33996 0.23871 0.3631 0.0
O296 O 0.32207 0.21347 0.39205 0.0
Mg297 Mg 0.32785 0.20853 0.49125 0.0
C298 C 0.32761 0.22498 0.35193 0.0
C299 C 0.37212 0.27982 0.35346 0.0
O300 O 0.3715 0.269 0.31343 0.0
O301 O 0.33707 0.25233 0.50296 0.0
O302 O 0.32073 0.22645 0.5274 0.0
O303 O 0.37329 0.24161 0.41426 0.0
O304 O 0.3527 0.22803 0.47868 0.0
C305 C 0.32427 0.24114 0.52832 0.0
C306 C 0.36432 0.2286 0.44622 0.0
O307 O 0.36663 0.27556 0.40954 0.0
Mg308 Mg 0.73849 0.12651 0.45311 0.0
O309 O 0.74932 0.11738 0.37767 0.0
O310 O 0.77243 0.12021 0.41481 0.0
Mg311 Mg 0.7766 0.13155 0.5134 0.0
C312 C 0.76174 0.11589 0.3714 0.0
C313 C 0.71336 0.11667 0.34194 0.0
O314 O 0.72611 0.12741 0.31075 0.0
O315 O 0.73058 0.10426 0.5152 0.0
O316 O 0.75454 0.10885 0.55023 0.0
O317 O 0.75271 0.15145 0.41265 0.0
O318 O 0.76126 0.14186 0.48949 0.0
C319 C 0.73922 0.10025 0.54801 0.0
C320 C 0.76409 0.15347 0.45149 0.0
O321 O 0.7147 0.11402 0.40033 0.0
Mg322 Mg 0.86033 0.60706 0.45922 0.0
O323 O 0.86926 0.62766 0.38651 0.0
O324 O 0.86285 0.64571 0.42212 0.0
Mg325 Mg 0.85291 0.63826 0.52244 0.0
C326 C 0.86873 0.64059 0.37973 0.0
C327 C 0.87243 0.59401 0.3469 0.0
O328 O 0.86208 0.59624 0.31369 0.0
O329 O 0.8823 0.62198 0.52188 0.0
O330 O 0.87699 0.64097 0.55522 0.0
O331 O 0.83564 0.59587 0.41506 0.0
O332 O 0.84385 0.61307 0.49525 0.0
C333 C 0.88609 0.63482 0.55278 0.0
C334 C 0.83287 0.60466 0.45405 0.0
O335 O 0.87401 0.59711 0.40621 0.0
Mg336 Mg 0.40054 0.95562 0.70294 0.0
O337 O 0.40923 0.97213 0.61547 0.0
O338 O 0.43314 0.99359 0.63712 0.0
Mg339 Mg 0.44028 0.99033 0.73747 0.0
C340 C 0.42132 0.98557 0.59949 0.0
C341 C 0.37371 0.93687 0.60293 0.0
O342 O 0.38655 0.93923 0.57143 0.0
O343 O 0.39469 0.97266 0.7583 0.0
O344 O 0.41958 0.99266 0.7799 0.0
O345 O 0.41347 0.94289 0.66833 0.0
O346 O 0.42421 0.96405 0.73166 0.0
C347 C 0.4043 0.98618 0.78422 0.0
C348 C 0.42582 0.95346 0.70024 0.0
O349 O 0.37537 0.9422 0.65957 0.0
Mg350 Mg 0.05152 0.4695 0.68378 0.0
O351 O 0.03742 0.45961 0.58997 0.0
O352 O 0.01592 0.46294 0.59635 0.0
Mg353 Mg 0.01696 0.47604 0.6878 0.0
C354 C 0.02427 0.45793 0.56747 0.0
C355 C 0.07026 0.45201 0.71494 0.0
O356 O 0.06752 0.45567 0.7722 0.0
O357 O 0.0321 0.44775 0.73809 0.0
O358 O 0.012 0.45319 0.73979 0.0
O359 O 0.06632 0.49415 0.64048 0.0
O360 O 0.04308 0.48555 0.68957 0.0
C361 C 0.01783 0.44419 0.75353 0.0
C362 C 0.05479 0.49666 0.65751 0.0
O363 O 0.0653 0.45629 0.66662 0.0
Mg364 Mg 0.52402 0.57714 0.75197 0.0
O365 O 0.53102 0.56334 0.68071 0.0
O366 O 0.51243 0.53739 0.69205 0.0
Mg367 Mg 0.49452 0.53441 0.76998 0.0
C368 C 0.52497 0.54856 0.66491 0.0
C369 C 0.55282 0.6098 0.78543 0.0
O370 O 0.5455 0.60473 0.84058 0.0
O371 O 0.53424 0.56934 0.83529 0.0
O372 O 0.51452 0.5438 0.84515 0.0
O373 O 0.50764 0.57794 0.67655 0.0
O374 O 0.50025 0.55892 0.74951 0.0
C375 C 0.52778 0.55578 0.86387 0.0
C376 C 0.49681 0.56424 0.69931 0.0
O377 O 0.54757 0.60039 0.73767 0.0
Mg378 Mg 0.61783 0.73351 0.59624 0.0
O379 O 0.63472 0.74024 0.68285 0.0
O380 O 0.65561 0.76491 0.66652 0.0
Mg381 Mg 0.65174 0.77421 0.57221 0.0
C382 C 0.64812 0.75223 0.70029 0.0
C383 C 0.60301 0.70142 0.67943 0.0
O384 O 0.60783 0.7113 0.72831 0.0
O385 O 0.63511 0.72988 0.53331 0.0
O386 O 0.65501 0.75517 0.51903 0.0
O387 O 0.60457 0.74442 0.6439 0.0
O388 O 0.62557 0.75762 0.58078 0.0
C389 C 0.64863 0.74008 0.50929 0.0
C390 C 0.61495 0.75785 0.6175 0.0
O391 O 0.6052 0.70704 0.62319 0.0
Mg392 Mg 0.24913 0.84924 0.52703 0.0
O393 O 0.23187 0.85208 0.59609 0.0
O394 O 0.20772 0.82994 0.58663 0.0
Mg395 Mg 0.20886 0.8143 0.50727 0.0
C396 C 0.2171 0.84351 0.61257 0.0
C397 C 0.28171 0.87905 0.51352 0.0
O398 O 0.28098 0.86962 0.46665 0.0
O399 O 0.23905 0.85699 0.44241 0.0
O400 O 0.21487 0.83481 0.43824 0.0
O401 O 0.25255 0.83492 0.60398 0.0
O402 O 0.23439 0.82434 0.52736 0.0
C403 C 0.22499 0.84883 0.41801 0.0
C404 C 0.24014 0.8225 0.57998 0.0
O405 O 0.26923 0.87471 0.54743 0.0
Mg406 Mg 0.13375 0.38719 0.64639 0.0
O407 O 0.12411 0.36972 0.73212 0.0
O408 O 0.12985 0.35019 0.7112 0.0
Mg409 Mg 0.14374 0.3554 0.6187 0.0
C410 C 0.12358 0.35649 0.74603 0.0
C411 C 0.11817 0.40389 0.72807 0.0
O412 O 0.12564 0.40164 0.77606 0.0
O413 O 0.11277 0.36866 0.5859 0.0
O414 O 0.12022 0.35021 0.5715 0.0
O415 O 0.15792 0.40185 0.69401 0.0
O416 O 0.15103 0.38068 0.63267 0.0
C417 C 0.11029 0.35524 0.56372 0.0
C418 C 0.16139 0.39154 0.67004 0.0
O419 O 0.11919 0.39908 0.67276 0.0
Mg420 Mg 0.26375 0.38829 0.61523 0.0
O421 O 0.24656 0.36551 0.6709 0.0
O422 O 0.22178 0.35634 0.6313 0.0
Mg423 Mg 0.22302 0.37321 0.55157 0.0
C424 C 0.23148 0.35532 0.67026 0.0
C425 C 0.29683 0.38994 0.61572 0.0
O426 O 0.2948 0.39143 0.55463 0.0
O427 O 0.26222 0.37267 0.53077 0.0
O428 O 0.23811 0.36599 0.48973 0.0
O429 O 0.25881 0.40327 0.6845 0.0
O430 O 0.24481 0.39228 0.59666 0.0
C431 C 0.25142 0.36602 0.48795 0.0
C432 C 0.24656 0.40004 0.64872 0.0
O433 O 0.28579 0.38797 0.65451 0.0
Mg434 Mg 0.61548 0.86704 0.57669 0.0
O435 O 0.63472 0.87953 0.65501 0.0
O436 O 0.65683 0.87921 0.62324 0.0
Mg437 Mg 0.65171 0.86592 0.52903 0.0
C438 C 0.64934 0.8831 0.66318 0.0
C439 C 0.59239 0.88039 0.57725 0.0
O440 O 0.59259 0.87681 0.5169 0.0
O441 O 0.62866 0.88876 0.51058 0.0
O442 O 0.64998 0.88651 0.48318 0.0
O443 O 0.60674 0.84298 0.62382 0.0
O444 O 0.62581 0.85331 0.55092 0.0
C445 C 0.64182 0.89368 0.48025 0.0
C446 C 0.61743 0.84183 0.59012 0.0
O447 O 0.60066 0.87754 0.61702 0.0
Mg448 Mg 0.12643 0.7572 0.64253 0.0
O449 O 0.12117 0.7673 0.7343 0.0
O450 O 0.1389 0.79374 0.73323 0.0
Mg451 Mg 0.15443 0.8007 0.64387 0.0
C452 C 0.12742 0.7813 0.7596 0.0
C453 C 0.09819 0.72475 0.60149 0.0
O454 O 0.10444 0.73175 0.54675 0.0
O455 O 0.11368 0.76716 0.58082 0.0
O456 O 0.13217 0.7933 0.58061 0.0
O457 O 0.14553 0.75414 0.69287 0.0
O458 O 0.14983 0.77613 0.64248 0.0
C459 C 0.11867 0.78156 0.56216 0.0
C460 C 0.15531 0.76891 0.67698 0.0
O461 O 0.10382 0.73277 0.65264 0.0
Mg462 Mg 0.05664 0.60065 0.74106 0.0
O463 O 0.03422 0.58859 0.67552 0.0
O464 O 0.02184 0.56237 0.69898 0.0
Mg465 Mg 0.0356 0.55749 0.77629 0.0
C466 C 0.02288 0.57412 0.66657 0.0
C467 C 0.05913 0.63153 0.67045 0.0
O468 O 0.05529 0.62279 0.6183 0.0
O469 O 0.04139 0.59822 0.82869 0.0
O470 O 0.03067 0.57203 0.85036 0.0
O471 O 0.071 0.59605 0.66658 0.0
O472 O 0.05704 0.57933 0.74418 0.0
C473 C 0.0329 0.58597 0.86355 0.0
C474 C 0.06549 0.58215 0.69344 0.0
O475 O 0.06027 0.62558 0.72296 0.0
Mg476 Mg 0.41219 0.46066 0.75861 0.0
O477 O 0.42882 0.45749 0.68749 0.0
O478 O 0.45322 0.47913 0.69924 0.0
Mg479 Mg 0.45261 0.49563 0.77641 0.0
C480 C 0.44368 0.46578 0.67209 0.0
C481 C 0.38106 0.42902 0.78394 0.0
O482 O 0.38383 0.43628 0.83949 0.0
O483 O 0.42256 0.45343 0.84361 0.0
O484 O 0.44607 0.47634 0.85229 0.0
O485 O 0.4079 0.4754 0.68491 0.0
O486 O 0.42703 0.48529 0.75816 0.0
C487 C 0.43589 0.46233 0.87251 0.0
C488 C 0.42035 0.48763 0.70964 0.0
O489 O 0.39178 0.43526 0.74094 0.0
Mg490 Mg 0.5267 0.93891 0.72738 0.0
O491 O 0.53726 0.95822 0.64865 0.0
O492 O 0.5334 0.97846 0.6784 0.0
Mg493 Mg 0.52023 0.97213 0.77296 0.0
C494 C 0.53878 0.97207 0.63948 0.0
C495 C 0.5397 0.92272 0.63053 0.0
O496 O 0.53138 0.92589 0.58911 0.0
O497 O 0.54829 0.95463 0.79129 0.0
O498 O 0.5431 0.97427 0.81559 0.0
O499 O 0.50264 0.92736 0.67845 0.0
O500 O 0.51046 0.94651 0.75076 0.0
C501 C 0.55196 0.96787 0.81873 0.0
C502 C 0.49981 0.93729 0.70983 0.0
O503 O 0.53996 0.92662 0.68859 0.0
H504 H 0.13453 0.29834 0.2131 0.0
H505 H 0.1114 0.26119 0.07095 0.0
H506 H 0.13654 0.26093 0.05488 0.0
H507 H 0.16521 0.27135 0.08198 0.0
H508 H 0.18814 0.30974 0.21972 0.0
H509 H 0.16298 0.30963 0.23577 0.0
C510 C 0.13495 0.29034 0.17788 0.0
C511 C 0.1211 0.27992 0.14296 0.0
C512 C 0.14945 0.2905 0.16802 0.0
C513 C 0.12191 0.2694 0.09839 0.0
C514 C 0.13628 0.26924 0.08916 0.0
C515 C 0.16466 0.27969 0.11537 0.0
C516 C 0.17849 0.29048 0.14979 0.0
C517 C 0.15014 0.27975 0.12381 0.0
C518 C 0.17768 0.30133 0.19251 0.0
C519 C 0.16328 0.30126 0.20191 0.0
H520 H 0.7368 0.84427 0.03861 0.0
H521 H 0.6992 0.822 0.17993 0.0
H522 H 0.69511 0.84497 0.17731 0.0
H523 H 0.70351 0.87209 0.14189 0.0
H524 H 0.74107 0.89501 0.00123 0.0
H525 H 0.74388 0.87107 0.99675 0.0
C526 C 0.72761 0.84439 0.0683 0.0
C527 C 0.71836 0.83143 0.10946 0.0
C528 C 0.72538 0.85779 0.06713 0.0
C529 C 0.70646 0.83175 0.14754 0.0
C530 C 0.70414 0.84493 0.14638 0.0
C531 C 0.71214 0.87182 0.1094 0.0
C532 C 0.72207 0.88534 0.07208 0.0
C533 C 0.71372 0.85812 0.10728 0.0
C534 C 0.73327 0.88476 0.0306 0.0
C535 C 0.73492 0.87109 0.02811 0.0
H536 H 0.10046 0.86887 0.06994 0.0
H537 H 0.09694 0.82901 0.96257 0.0
H538 H 0.12359 0.84634 0.91701 0.0
H539 H 0.14995 0.87119 0.92858 0.0
H540 H 0.15299 0.91143 0.03133 0.0
H541 H 0.12427 0.89584 0.05632 0.0
C542 C 0.10523 0.86423 0.03408 0.0
C543 C 0.09694 0.84774 0.01998 0.0
C544 C 0.12053 0.87431 0.00793 0.0
C545 C 0.10314 0.84172 0.97375 0.0
C546 C 0.11846 0.85159 0.94829 0.0
C547 C 0.14409 0.87673 0.95369 0.0
C548 C 0.15341 0.89232 0.97838 0.0
C549 C 0.1276 0.86767 0.96791 0.0
C550 C 0.1459 0.89946 0.01143 0.0
C551 C 0.12954 0.89049 0.02639 0.0
H552 H 0.2645 0.09344 0.97417 0.0
H553 H 0.29867 0.11416 0.81987 0.0
H554 H 0.29434 0.13694 0.81567 0.0
H555 H 0.28066 0.15077 0.85312 0.0
H556 H 0.24693 0.13135 0.00892 0.0
H557 H 0.25111 0.10819 0.01461 0.0
C558 C 0.27099 0.10298 0.93983 0.0
C559 C 0.28195 0.1021 0.89764 0.0
C560 C 0.26849 0.11624 0.93765 0.0
C561 C 0.2903 0.11456 0.8534 0.0
C562 C 0.28779 0.1276 0.85067 0.0
C563 C 0.27435 0.14164 0.88905 0.0
C564 C 0.26363 0.14291 0.93091 0.0
C565 C 0.27692 0.12855 0.89238 0.0
C566 C 0.25532 0.13071 0.97619 0.0
C567 C 0.2577 0.11746 0.97946 0.0
H568 H 0.84671 0.12066 -0.00021 0.0
H569 H 0.82506 0.13399 0.84851 0.0
H570 H 0.84974 0.15958 0.83624 0.0
H571 H 0.87771 0.17756 0.86403 0.0
H572 H 0.89983 0.16528 0.01652 0.0
H573 H 0.87481 0.13972 0.03181 0.0
C574 C 0.84737 0.12924 0.96459 0.0
C575 C 0.83402 0.12539 0.92527 0.0
C576 C 0.86172 0.14402 0.95739 0.0
C577 C 0.83507 0.13663 0.87979 0.0
C578 C 0.84924 0.15127 0.87238 0.0
C579 C 0.87706 0.16948 0.90137 0.0
C580 C 0.89061 0.17342 0.93935 0.0
C581 C 0.86266 0.155 0.91037 0.0
C582 C 0.88957 0.16255 0.98657 0.0
C583 C 0.87526 0.14795 0.99543 0.0
H584 H 0.85347 0.73443 0.96097 0.0
H585 H 0.83123 0.69682 0.81949 0.0
H586 H 0.85365 0.69193 0.82605 0.0
H587 H 0.8799 0.69898 0.86694 0.0
H588 H 0.90292 0.7361 0.0093 0.0
H589 H 0.87996 0.74074 0.00652 0.0
C590 C 0.8535 0.72509 0.93201 0.0
C591 C 0.84061 0.71597 0.88996 0.0
C592 C 0.86661 0.72235 0.93563 0.0
C593 C 0.84086 0.70394 0.85265 0.0
C594 C 0.85374 0.70117 0.85606 0.0
C595 C 0.87987 0.70791 0.89843 0.0
C596 C 0.89305 0.71705 0.9388 0.0
C597 C 0.86671 0.71038 0.89683 0.0
C598 C 0.89289 0.72886 0.97786 0.0
C599 C 0.87976 0.73149 0.9763 0.0
H600 H 0.80932 0.59261 0.36164 0.0
H601 H 0.82355 0.62016 0.53646 0.0
H602 H 0.80087 0.62456 0.52812 0.0
H603 H 0.77709 0.62074 0.47274 0.0
H604 H 0.76097 0.59204 0.30156 0.0
H605 H 0.78423 0.58788 0.30702 0.0
C606 C 0.8074 0.59953 0.39789 0.0
C607 C 0.81836 0.60631 0.44896 0.0
C608 C 0.79402 0.60183 0.39349 0.0
C609 C 0.8156 0.61511 0.49585 0.0
C610 C 0.80255 0.61758 0.49139 0.0
C611 C 0.77868 0.61366 0.43616 0.0
C612 C 0.76744 0.60687 0.3864 0.0
C613 C 0.79177 0.6111 0.44038 0.0
C614 C 0.76953 0.59746 0.34021 0.0
C615 C 0.7828 0.59508 0.34342 0.0
H616 H 0.36859 0.16618 0.49088 0.0
H617 H 0.40663 0.18874 0.35193 0.0
H618 H 0.40142 0.21118 0.34262 0.0
H619 H 0.3863 0.22464 0.37659 0.0
H620 H 0.34871 0.20149 0.51746 0.0
H621 H 0.35336 0.17894 0.52235 0.0
C622 C 0.37565 0.17587 0.45788 0.0
C623 C 0.38791 0.17572 0.42191 0.0
C624 C 0.37264 0.18865 0.45299 0.0
C625 C 0.39709 0.18856 0.38019 0.0
C626 C 0.39412 0.20139 0.37485 0.0
C627 C 0.37908 0.21461 0.408 0.0
C628 C 0.36705 0.21474 0.44606 0.0
C629 C 0.38196 0.20161 0.41138 0.0
C630 C 0.35787 0.20167 0.48681 0.0
C631 C 0.36058 0.18876 0.49006 0.0
H632 H 0.83293 0.21252 0.50291 0.0
H633 H 0.82082 0.23142 0.33869 0.0
H634 H 0.79482 0.20652 0.33024 0.0
H635 H 0.77542 0.17935 0.37092 0.0
H636 H 0.78834 0.16125 0.53587 0.0
H637 H 0.81423 0.18577 0.54174 0.0
C638 C 0.82473 0.21119 0.46473 0.0
C639 C 0.82887 0.22377 0.42125 0.0
C640 C 0.80993 0.19692 0.46015 0.0
C641 C 0.81792 0.22189 0.37281 0.0
C642 C 0.80306 0.20765 0.36792 0.0
C643 C 0.78394 0.18077 0.40791 0.0
C644 C 0.77995 0.16838 0.4525 0.0
C645 C 0.79891 0.19508 0.4115 0.0
C646 C 0.79111 0.17044 0.50033 0.0
C647 C 0.80594 0.18453 0.50406 0.0
H648 H 0.95829 0.50047 0.27384 0.0
H649 H 0.90768 0.48198 0.24314 0.0
H650 H 0.90366 0.45486 0.22708 0.0
H651 H 0.9156 0.43752 0.20531 0.0
H652 H 0.9668 0.45758 0.22721 0.0
H653 H 0.96971 0.48305 0.26183 0.0
C654 C 0.94639 0.49051 0.26364 0.0
C655 C 0.93339 0.49319 0.25784 0.0
C656 C 0.94439 0.47531 0.25175 0.0
C657 C 0.91787 0.48011 0.24763 0.0
C658 C 0.91563 0.46468 0.23773 0.0
C659 C 0.92731 0.44745 0.21856 0.0
C660 C 0.94106 0.44589 0.21229 0.0
C661 C 0.92894 0.46228 0.23706 0.0
C662 C 0.95617 0.4587 0.22981 0.0
C663 C 0.95782 0.47323 0.25011 0.0
H664 H 0.5609 0.46181 0.25952 0.0
H665 H 0.55038 0.48491 0.41281 0.0
H666 H 0.52587 0.45969 0.43811 0.0
H667 H 0.50447 0.43354 0.39682 0.0
H668 H 0.51497 0.41086 0.24184 0.0
H669 H 0.54271 0.43309 0.23819 0.0
C670 C 0.55368 0.46102 0.30065 0.0
C671 C 0.55727 0.47505 0.33421 0.0
C672 C 0.53949 0.44657 0.31392 0.0
C673 C 0.54782 0.47413 0.38681 0.0
C674 C 0.5337 0.45976 0.40069 0.0
C675 C 0.51315 0.4331 0.36492 0.0
C676 C 0.50787 0.42066 0.31988 0.0
C677 C 0.52894 0.4462 0.36191 0.0
C678 C 0.51896 0.42027 0.27745 0.0
C679 C 0.53473 0.43309 0.27477 0.0
H680 H 0.53722 0.03271 0.14439 0.0
H681 H 0.56127 0.06892 0.28937 0.0
H682 H 0.53871 0.07406 0.29097 0.0
H683 H 0.51253 0.06885 0.24772 0.0
H684 H 0.48893 0.0323 0.10327 0.0
H685 H 0.51084 0.02651 0.10599 0.0
C686 C 0.53748 0.04155 0.17718 0.0
C687 C 0.55089 0.05035 0.21687 0.0
C688 C 0.52453 0.04439 0.17794 0.0
C689 C 0.55107 0.06196 0.25828 0.0
C690 C 0.53818 0.06491 0.2592 0.0
C691 C 0.51215 0.05955 0.21722 0.0
C692 C 0.49909 0.05103 0.17538 0.0
C693 C 0.5249 0.05629 0.21872 0.0
C694 C 0.49876 0.03899 0.13621 0.0
C695 C 0.51134 0.0357 0.13747 0.0
H696 H 0.4342 0.93401 0.63468 0.0
H697 H 0.45172 0.97209 0.77472 0.0
H698 H 0.47596 0.97045 0.78914 0.0
H699 H 0.49154 0.95743 0.767 0.0
H700 H 0.47524 0.91996 0.62516 0.0
H701 H 0.45105 0.92195 0.60732 0.0
C702 C 0.4434 0.94204 0.66785 0.0
C703 C 0.44109 0.95316 0.70348 0.0
C704 C 0.45745 0.94104 0.67621 0.0
C705 C 0.45315 0.96348 0.7463 0.0
C706 C 0.46703 0.96251 0.75495 0.0
C707 C 0.4829 0.94986 0.73135 0.0
C708 C 0.48532 0.93865 0.69724 0.0
C709 C 0.46921 0.95122 0.72079 0.0
C710 C 0.47371 0.92873 0.65213 0.0
C711 C 0.45988 0.92987 0.64185 0.0
H712 H 0.04179 0.55405 0.65004 0.0
H713 H 0.09311 0.58105 0.677 0.0
H714 H 0.09479 0.55668 0.65827 0.0
H715 H 0.08078 0.52688 0.6523 0.0
H716 H 0.02923 0.50035 0.62862 0.0
H717 H 0.02843 0.52527 0.62754 0.0
C718 C 0.05336 0.55463 0.65022 0.0
C719 C 0.06728 0.56915 0.66512 0.0
C720 C 0.05411 0.54058 0.64111 0.0
C721 C 0.08227 0.56993 0.66503 0.0
C722 C 0.08319 0.55598 0.65501 0.0
C723 C 0.06946 0.52663 0.64535 0.0
C724 C 0.05501 0.51179 0.64259 0.0
C725 C 0.06908 0.5411 0.64565 0.0
C726 C 0.04042 0.51158 0.63327 0.0
C727 C 0.03996 0.52584 0.63219 0.0
H728 H 0.44265 0.49871 0.61719 0.0
H729 H 0.41665 0.51244 0.74556 0.0
H730 H 0.43813 0.54048 0.74026 0.0
H731 H 0.46709 0.55878 0.72418 0.0
H732 H 0.49382 0.54465 0.60164 0.0
H733 H 0.46937 0.51919 0.57826 0.0
C734 C 0.44134 0.50804 0.64079 0.0
C735 C 0.42818 0.50369 0.68142 0.0
C736 C 0.45413 0.52399 0.63987 0.0
C737 C 0.42664 0.51568 0.71335 0.0
C738 C 0.43905 0.53165 0.71112 0.0
C739 C 0.4673 0.55046 0.68967 0.0
C740 C 0.48206 0.55342 0.66454 0.0
C741 C 0.45329 0.53569 0.67821 0.0
C742 C 0.48245 0.54256 0.62089 0.0
C743 C 0.46852 0.52794 0.60817 0.0
H744 H 0.60127 0.81499 0.66505 0.0
H745 H 0.63909 0.83699 0.5245 0.0
H746 H 0.64244 0.81364 0.52532 0.0
H747 H 0.63357 0.78634 0.55925 0.0
H748 H 0.59508 0.7631 0.69597 0.0
H749 H 0.59305 0.78749 0.70315 0.0
C750 C 0.61035 0.81472 0.63515 0.0
C751 C 0.61999 0.82787 0.59517 0.0
C752 C 0.61202 0.80096 0.63468 0.0
C753 C 0.63162 0.82724 0.55641 0.0
C754 C 0.63351 0.81379 0.55646 0.0
C755 C 0.62487 0.78662 0.59144 0.0
C756 C 0.61451 0.7729 0.62705 0.0
C757 C 0.62363 0.80052 0.59459 0.0
C758 C 0.60321 0.7735 0.66797 0.0
C759 C 0.60203 0.78743 0.67198 0.0
H760 H 0.17701 0.76154 0.63337 0.0
H761 H 0.17177 0.79532 0.75127 0.0
H762 H 0.20091 0.8137 0.74872 0.0
H763 H 0.22598 0.82285 0.68931 0.0
H764 H 0.22949 0.7912 0.55328 0.0
H765 H 0.20341 0.76911 0.58768 0.0
C766 C 0.18242 0.77264 0.66057 0.0
C767 C 0.17248 0.77713 0.69284 0.0
C768 C 0.19895 0.78363 0.65456 0.0
C769 C 0.17936 0.79167 0.72665 0.0
C770 C 0.19596 0.80221 0.72462 0.0
C771 C 0.22134 0.81088 0.6697 0.0
C772 C 0.22953 0.80853 0.61916 0.0
C773 C 0.20569 0.79875 0.68543 0.0
C774 C 0.22338 0.79314 0.59277 0.0
C775 C 0.20835 0.78061 0.61169 0.0
H776 H 0.21805 0.37749 0.69311 0.0
H777 H 0.24572 0.42797 0.65032 0.0
H778 H 0.22156 0.43043 0.66294 0.0
H779 H 0.19179 0.4171 0.67027 0.0
H780 H 0.16437 0.36607 0.70486 0.0
H781 H 0.1891 0.36481 0.71158 0.0
C782 C 0.21879 0.38905 0.6877 0.0
C783 C 0.23345 0.40251 0.67069 0.0
C784 C 0.20483 0.39017 0.69275 0.0
C785 C 0.23446 0.41751 0.66402 0.0
C786 C 0.22065 0.41885 0.67065 0.0
C787 C 0.19134 0.40582 0.68073 0.0
C788 C 0.17637 0.39164 0.68604 0.0
C789 C 0.20565 0.40513 0.68273 0.0
C790 C 0.17579 0.37705 0.69924 0.0
C791 C 0.18991 0.37633 0.7033 0.0
H792 H 0.0304 0.27053 0.08789 0.0
H793 H 0.03367 0.22756 0.0656 0.0
H794 H 0.00676 0.21357 0.01935 0.0
H795 H 0.98227 0.21341 0.98579 0.0
H796 H 0.97865 0.25616 0.00898 0.0
H797 H 0.00574 0.27033 0.05443 0.0
C798 C 0.02524 0.25812 0.07279 0.0
C799 C 0.03405 0.25012 0.08019 0.0
C800 C 0.00969 0.25008 0.04651 0.0
C801 C 0.02716 0.23401 0.06056 0.0
C802 C 0.01176 0.22598 0.03407 0.0
C803 C 0.98739 0.22584 0.00073 0.0
C804 C 0.97845 0.2337 0.99395 0.0
C805 C 0.00291 0.23389 0.02695 0.0
C806 C 0.98527 0.2498 0.01372 0.0
C807 C 0.00076 0.25792 0.03966 0.0
H808 H 0.7942 0.75252 0.07842 0.0
H809 H 0.77934 0.75469 0.88591 0.0
H810 H 0.76458 0.76758 0.92421 0.0
H811 H 0.7549 0.77711 0.0124 0.0
H812 H 0.76937 0.77473 0.2053 0.0
H813 H 0.78533 0.76309 0.1666 0.0
C814 C 0.78785 0.75592 0.04477 0.0
C815 C 0.78783 0.75257 0.97944 0.0
C816 C 0.77925 0.76322 0.06714 0.0
C817 C 0.77952 0.75707 0.93649 0.0
C818 C 0.77105 0.76443 0.95833 0.0
C819 C 0.76159 0.77411 0.04606 0.0
C820 C 0.76086 0.7767 0.11168 0.0
C821 C 0.77066 0.76737 0.02359 0.0
C822 C 0.76968 0.77282 0.15452 0.0
C823 C 0.7788 0.76615 0.13245 0.0
H824 H 0.23525 0.96941 0.11364 0.0
H825 H 0.24594 0.95481 0.93405 0.0
H826 H 0.26349 0.98297 0.90484 0.0
H827 H 0.27387 0.01168 0.92639 0.0
H828 H 0.26253 0.02606 0.1052 0.0
H829 H 0.24722 -0.00198 0.13856 0.0
C830 C 0.24155 0.97234 0.06838 0.0
C831 C 0.23914 0.95999 0.02586 0.0
C832 C 0.25141 0.98854 0.05146 0.0
C833 C 0.24752 0.96406 0.96763 0.0
C834 C 0.25751 0.98017 0.95075 0.0
C835 C 0.26817 0.0087 0.97291 0.0
C836 C 0.26921 0.02098 0.01289 0.0
C837 C 0.25923 0.99251 0.99165 0.0
C838 C 0.26185 0.01688 0.0732 0.0
C839 C 0.25306 0.00083 0.09236 0.0
H840 H 0.96902 0.73129 0.1503 0.0
H841 H 0.98353 0.72714 0.95961 0.0
H842 H 0.01172 0.74439 0.98868 0.0
H843 H 0.03199 0.76304 0.06449 0.0
H844 H 0.01739 0.76773 0.25431 0.0
H845 H 0.98959 0.74771 0.22952 0.0
C846 C 0.97834 0.73399 0.11527 0.0
C847 C 0.97411 0.72811 0.0526 0.0
C848 C 0.99456 0.74409 0.13204 0.0
C849 C 0.9864 0.7316 0.00807 0.0
C850 C 0.00255 0.74151 0.0246 0.0
C851 C 0.02279 0.75949 0.10085 0.0
C852 C 0.02676 0.76707 0.16088 0.0
C853 C 0.00674 0.74818 0.08591 0.0
C854 C 0.01467 0.76222 0.20748 0.0
C855 C -0.00126 0.7508 0.1933 0.0
H856 H 0.25125 0.22002 0.01546 0.0
H857 H 0.20922 0.19485 0.89576 0.0
H858 H 0.20104 0.2145 0.92259 0.0
H859 H 0.20618 0.23915 0.97821 0.0
H860 H 0.24877 0.26468 0.09497 0.0
H861 H 0.25644 0.24461 0.07047 0.0
C862 C 0.2402 0.21872 0.99573 0.0
C863 C 0.2308 0.20594 0.95397 0.0
C864 C 0.23577 0.23022 0.01025 0.0
C865 C 0.21664 0.20457 0.92815 0.0
C866 C 0.21199 0.21582 0.9433 0.0
C867 C 0.21716 0.24035 -0.00179 0.0
C868 C 0.22688 0.2534 0.03835 0.0
C869 C 0.22154 0.22877 0.98385 0.0
C870 C 0.24108 0.25478 0.06378 0.0
C871 C 0.24546 0.24327 0.05001 0.0
H872 H 0.77013 0.01986 0.86119 0.0
H873 H 0.77071 0.03609 0.05384 0.0
H874 H 0.75635 0.0083 0.09087 0.0
H875 H 0.7435 0.97951 0.06857 0.0
H876 H 0.74298 0.96315 0.87625 0.0
H877 H 0.75744 0.99098 0.83901 0.0
C878 C 0.76716 0.01734 0.91132 0.0
C879 C 0.77149 0.03004 0.95466 0.0
C880 C 0.75887 0.00134 0.93229 0.0
C881 C 0.76754 0.02654 0.01946 0.0
C882 C 0.7593 0.01066 0.04069 0.0
C883 C 0.7465 0.982 0.01843 0.0
C884 C 0.74214 0.96927 0.97522 0.0
C885 C 0.75487 -0.00202 0.99748 0.0
C886 C 0.74619 0.97273 0.91051 0.0
C887 C 0.75447 0.98863 0.88919 0.0
H888 H 0.63449 0.55963 0.16715 0.0
H889 H 0.6184 0.56551 0.35222 0.0
H890 H 0.64628 0.58355 0.38442 0.0
H891 H 0.67527 0.59544 0.36357 0.0
H892 H 0.69116 0.58884 0.17913 0.0
H893 H 0.66329 0.57332 0.14327 0.0
C894 C 0.63703 0.56502 0.21428 0.0
C895 C 0.62436 0.56106 0.25742 0.0
C896 C 0.65308 0.57511 0.2329 0.0
C897 C 0.62791 0.56827 0.3181 0.0
C898 C 0.64386 0.57854 0.33669 0.0
C899 C 0.67266 0.59074 0.31532 0.0
C900 C 0.68531 0.59314 0.27442 0.0
C901 C 0.65656 0.58168 0.29508 0.0
C902 C 0.68168 0.58707 0.21187 0.0
C903 C 0.66573 0.57818 0.19126 0.0
H904 H 0.44742 0.08974 0.28381 0.0
H905 H 0.44589 0.10623 0.09375 0.0
H906 H 0.43477 0.12235 0.13588 0.0
H907 H 0.42421 0.13065 0.22603 0.0
H908 H 0.42541 0.11365 0.41554 0.0
H909 H 0.43803 0.09892 0.3741 0.0
C910 C 0.44474 0.09692 0.25152 0.0
C911 C 0.44738 0.09669 0.18567 0.0
C912 C 0.43825 0.10605 0.27593 0.0
C913 C 0.44391 0.10614 0.14464 0.0
C914 C 0.43754 0.11535 0.16867 0.0
C915 C 0.42736 0.12384 0.25836 0.0
C916 C 0.42379 0.12319 0.32372 0.0
C917 C 0.43448 0.11524 0.23414 0.0
C918 C 0.42795 0.1143 0.36495 0.0
C919 C 0.43516 0.10585 0.34132 0.0
H920 H 0.88167 0.29754 0.21148 0.0
H921 H 0.91027 0.31497 0.38311 0.0
H922 H 0.92492 0.34191 0.3382 0.0
H923 H 0.92885 0.36073 0.25285 0.0
H924 H 0.90012 0.34381 0.08151 0.0
H925 H 0.88635 0.3164 0.12367 0.0
C926 C 0.89117 0.30721 0.2389 0.0
C927 C 0.89478 0.30425 0.30072 0.0
C928 C 0.89949 0.32276 0.213 0.0
C929 C 0.90715 0.31691 0.33556 0.0
C930 C 0.91556 0.33234 0.30996 0.0
C931 C 0.91963 0.35106 0.22445 0.0
C932 C 0.91546 0.35434 0.16429 0.0
C933 C 0.9117 0.33543 0.24912 0.0
C934 C 0.90354 0.34163 0.12809 0.0
C935 C 0.89564 0.32596 0.15219 0.0
H936 H 0.68618 0.09126 0.3887 0.0
H937 H 0.7052 0.12147 0.22227 0.0
H938 H 0.679 0.10654 0.16978 0.0
H939 H 0.6506 0.08533 0.17224 0.0
H940 H 0.63174 0.05507 0.33869 0.0
H941 H 0.65808 0.06959 0.3899 0.0
C942 C 0.68462 0.09461 0.34094 0.0
C943 C 0.6976 0.10753 0.30962 0.0
C944 C 0.66958 0.08595 0.311 0.0
C945 C 0.69539 0.1116 0.24753 0.0
C946 C 0.68042 0.10307 0.21747 0.0
C947 C 0.65225 0.08185 0.21961 0.0
C948 C 0.63919 0.06917 0.25165 0.0
C949 C 0.66742 0.09027 0.2489 0.0
C950 C 0.64157 0.06479 0.31294 0.0
C951 C 0.65663 0.07311 0.34235 0.0
H952 H 0.89725 0.59204 0.39885 0.0
H953 H 0.8694 0.58214 0.22586 0.0
H954 H 0.88475 0.57085 0.17731 0.0
H955 H 0.90524 0.56273 0.18597 0.0
H956 H 0.93296 0.57271 0.35948 0.0
H957 H 0.91854 0.58517 0.40562 0.0
C958 C 0.89453 0.58744 0.35046 0.0
C959 C 0.88209 0.58779 0.31625 0.0
C960 C 0.90338 0.581 0.32293 0.0
C961 C 0.87887 0.58195 0.25335 0.0
C962 C 0.88763 0.57549 0.22557 0.0
C963 C 0.90821 0.56773 0.23371 0.0
C964 C 0.92009 0.56668 0.26934 0.0
C965 C 0.8998 0.5748 0.26019 0.0
C966 C 0.92384 0.57329 0.33103 0.0
C967 C 0.91557 0.5804 0.35757 0.0
H968 H 0.41433 0.35521 0.33818 0.0
H969 H 0.42346 0.34355 0.14959 0.0
H970 H 0.40412 0.31521 0.16766 0.0
H971 H 0.38649 0.29345 0.24048 0.0
H972 H 0.37756 0.30515 0.42938 0.0
H973 H 0.39479 0.3337 0.40733 0.0
C974 C 0.41195 0.34651 0.30074 0.0
C975 C 0.4205 0.35149 0.24298 0.0
C976 C 0.40091 0.33018 0.31159 0.0
C977 C 0.41715 0.34005 0.19475 0.0
C978 C 0.40611 0.32381 0.20505 0.0
C979 C 0.38816 0.30224 0.27658 0.0
C980 C 0.3809 0.29712 0.33674 0.0
C981 C 0.39822 0.31869 0.26385 0.0
C982 C 0.38309 0.30871 0.38277 0.0
C983 C 0.39299 0.32508 0.3703 0.0
H984 H 0.31031 0.89042 0.45282 0.0
H985 H 0.28866 0.89806 0.61977 0.0
H986 H 0.31532 0.91745 0.66065 0.0
H987 H 0.34484 0.93035 0.65335 0.0
H988 H 0.36623 0.92215 0.48677 0.0
H989 H 0.33959 0.90486 0.44157 0.0
C990 C 0.31137 0.89647 0.49779 0.0
C991 C 0.2975 0.89266 0.53343 0.0
C992 C 0.32672 0.90737 0.52151 0.0
C993 C 0.29914 0.90072 0.59138 0.0
C994 C 0.31439 0.91175 0.61499 0.0
C995 C 0.34368 0.92487 0.60696 0.0
C996 C 0.35753 0.9274 0.57392 0.0
C997 C 0.32828 0.91485 0.58122 0.0
C998 C 0.35579 0.92032 0.51356 0.0
C999 C 0.34055 0.91043 0.48758 0.0
H1000 H 0.08338 0.44233 0.80786 0.0
H1001 H 0.07621 0.44099 0.60405 0.0
H1002 H 0.09005 0.4257 0.59071 0.0
H1003 H 0.10432 0.41294 0.63643 0.0
H1004 H 0.11195 0.41451 0.83992 0.0
H1005 H 0.09771 0.42946 0.85378 0.0
C1006 C 0.08483 0.4387 0.76049 0.0
C1007 C 0.07877 0.44283 0.70704 0.0
C1008 C 0.09286 0.42994 0.75309 0.0
C1009 C 0.08078 0.43802 0.64603 0.0
C1010 C 0.08868 0.42925 0.63833 0.0
C1011 C 0.10285 0.41649 0.68393 0.0
C1012 C 0.1092 0.41259 0.73708 0.0
C1013 C 0.09478 0.42517 0.69148 0.0
C1014 C 0.1072 0.41735 0.79817 0.0
C1015 C 0.09906 0.42591 0.80614 0.0
H1016 H 0.56451 0.6257 0.67362 0.0
H1017 H 0.56774 0.63262 0.87771 0.0
H1018 H 0.58427 0.66164 0.86304 0.0
H1019 H 0.59598 0.68517 0.79215 0.0
H1020 H 0.59189 0.67807 0.58805 0.0
H1021 H 0.5775 0.64904 0.60302 0.0
C1022 C 0.56903 0.63352 0.71496 0.0
C1023 C 0.56481 0.627 0.77664 0.0
C1024 C 0.5782 0.65021 0.70622 0.0
C1025 C 0.57075 0.63733 0.82965 0.0
C1026 C 0.58015 0.65394 0.82133 0.0
C1027 C 0.59201 0.67728 0.75094 0.0
C1028 C 0.59488 0.68382 0.68914 0.0
C1029 C 0.58362 0.66054 0.75981 0.0
C1030 C 0.58974 0.6734 0.63625 0.0
C1031 C 0.58152 0.65677 0.64469 0.0
H1032 H 0.37002 0.41587 0.66685 0.0
H1033 H 0.35451 0.41497 0.86082 0.0
H1034 H 0.32645 0.40054 0.82645 0.0
H1035 H 0.30674 0.39228 0.73921 0.0
H1036 H 0.32256 0.39444 0.54483 0.0
H1037 H 0.34999 0.40415 0.58164 0.0
C1038 C 0.36051 0.41221 0.70192 0.0
C1039 C 0.3644 0.41681 0.76611 0.0
C1040 C 0.34442 0.40437 0.68159 0.0
C1041 C 0.35189 0.41178 0.81094 0.0
C1042 C 0.33581 0.4036 0.79128 0.0
C1043 C 0.31613 0.39459 0.70497 0.0
C1044 C 0.31265 0.39296 0.63928 0.0
C1045 C 0.33199 0.40049 0.72634 0.0
C1046 C 0.32493 0.39584 0.59564 0.0
C1047 C 0.34065 0.4014 0.61661 0.0
H1048 H 0.57439 0.88862 0.50301 0.0
H1049 H 0.58946 0.88952 0.69785 0.0
H1050 H 0.57448 0.90265 0.73125 0.0
H1051 H 0.5573 0.91404 0.70513 0.0
H1052 H 0.54227 0.9132 0.51027 0.0
H1053 H 0.55709 0.89988 0.47697 0.0
C1054 C 0.57439 0.89165 0.55284 0.0
C1055 C 0.58305 0.88807 0.59783 0.0
C1056 C 0.56579 0.89923 0.57172 0.0
C1057 C 0.5829 0.89211 0.66218 0.0
C1058 C 0.57434 0.89964 0.68134 0.0
C1059 C 0.55725 0.91095 0.65533 0.0
C1060 C 0.54868 0.91463 0.61027 0.0
C1061 C 0.56578 0.90329 0.6365 0.0
C1062 C 0.54875 0.91051 0.54599 0.0
C1063 C 0.55723 0.90289 0.52688 0.0
H1064 H 0.06257 0.64976 0.56528 0.0
H1065 H 0.0658 0.65193 0.77088 0.0
H1066 H 0.0763 0.68082 0.76791 0.0
H1067 H 0.08723 0.70581 0.70697 0.0
H1068 H 0.0849 0.70398 0.50129 0.0
H1069 H 0.07114 0.67467 0.50449 0.0
C1070 C 0.06538 0.65652 0.60946 0.0
C1071 C 0.06362 0.64869 0.66809 0.0
C1072 C 0.07164 0.67324 0.60749 0.0
C1073 C 0.06722 0.65764 0.72493 0.0
C1074 C 0.07323 0.6742 0.72337 0.0
C1075 C 0.08348 0.69901 0.66283 0.0
C1076 C 0.08729 0.70711 0.60401 0.0
C1077 C 0.07589 0.68218 0.6649 0.0
C1078 C 0.08224 0.69807 0.5473 0.0
C1079 C 0.07443 0.68129 0.54903 0.0
H1080 H 0.12973 0.36837 0.86585 0.0
H1081 H 0.10048 0.32539 0.75675 0.0
H1082 H 0.09064 0.30966 0.85489 0.0
H1083 H 0.09292 0.30763 0.9706 0.0
H1084 H 0.12445 0.35015 0.07885 0.0
H1085 H 0.13082 0.36658 0.98274 0.0
C1086 C 0.12091 0.35564 0.86405 0.0
C1087 C 0.11569 0.34797 0.80487 0.0
C1088 C 0.11593 0.34657 0.92045 0.0
C1089 C 0.10454 0.33144 0.8023 0.0
C1090 C 0.099 0.32246 0.85822 0.0
C1091 C 0.10098 0.32052 0.97321 0.0
C1092 C 0.10829 0.32766 0.03142 0.0
C1093 C 0.105 0.32981 0.91745 0.0
C1094 C 0.11882 0.34436 0.03425 0.0
C1095 C 0.12244 0.35377 0.9794 0.0
H1096 H 0.66362 0.75666 0.99251 0.0
H1097 H 0.71211 0.7845 0.92107 0.0
H1098 H 0.70218 0.77779 0.81155 0.0
H1099 H 0.6794 0.7667 0.73643 0.0
H1100 H 0.631 0.73801 0.80778 0.0
H1101 H 0.64121 0.74215 0.9171 0.0
C1102 C 0.67201 0.76103 0.95291 0.0
C1103 C 0.68852 0.77124 0.9646 0.0
C1104 C 0.66623 0.75706 0.89019 0.0
C1105 C 0.69934 0.77663 0.91315 0.0
C1106 C 0.69366 0.77289 0.85054 0.0
C1107 C 0.67114 0.76115 0.77594 0.0
C1108 C 0.65448 0.75226 0.76435 0.0
C1109 C 0.67709 0.76352 0.83853 0.0
C1110 C 0.64388 0.7449 0.81563 0.0
C1111 C 0.6497 0.74736 0.87814 0.0
H1112 H 0.18097 0.85402 0.84249 0.0
H1113 H 0.2253 0.89952 0.85229 0.0
H1114 H 0.23557 0.89204 0.7594 0.0
H1115 H 0.23224 0.87215 0.67737 0.0
H1116 H 0.18741 0.82702 0.66759 0.0
H1117 H 0.17716 0.83483 0.75848 0.0
C1118 C 0.19289 0.86235 0.82442 0.0
C1119 C 0.20239 0.87727 0.85475 0.0
C1120 C 0.19868 0.85802 0.77095 0.0
C1121 C 0.21772 0.88795 0.82997 0.0
C1122 C 0.22362 0.88367 0.7769 0.0
C1123 C 0.2202 0.86406 0.69488 0.0
C1124 C 0.21071 0.84895 0.66565 0.0
C1125 C 0.21425 0.86867 0.74727 0.0
C1126 C 0.19507 0.83869 0.68895 0.0
C1127 C 0.18916 0.84313 0.74114 0.0
H1128 H 0.35054 0.10981 0.04047 0.0
H1129 H 0.3025 0.07819 0.10985 0.0
H1130 H 0.31202 0.085 0.22001 0.0
H1131 H 0.33367 0.10166 0.29586 0.0
H1132 H 0.38203 0.13189 0.22667 0.0
H1133 H 0.37279 0.12384 0.11692 0.0
C1134 C 0.34223 0.1043 0.07986 0.0
C1135 C 0.32584 0.09369 0.06743 0.0
C1136 C 0.34783 0.10809 0.14282 0.0
C1137 C 0.31518 0.08639 0.11852 0.0
C1138 C 0.32059 0.09035 0.18138 0.0
C1139 C 0.34217 0.10636 0.25665 0.0
C1140 C 0.35843 0.1175 0.26887 0.0
C1141 C 0.33682 0.10145 0.19398 0.0
C1142 C 0.36944 0.12331 0.21814 0.0
C1143 C 0.36416 0.11877 0.15549 0.0
H1144 H 0.88057 0.24897 0.23422 0.0
H1145 H 0.89492 0.21925 0.33683 0.0
H1146 H 0.90548 0.21433 0.23856 0.0
H1147 H 0.90908 0.21712 0.12224 0.0
H1148 H 0.89195 0.24428 0.01811 0.0
H1149 H 0.88421 0.2518 0.11804 0.0
C1150 C 0.88614 0.24154 0.23499 0.0
C1151 C 0.88698 0.23446 0.29235 0.0
C1152 C 0.8917 0.23835 0.17806 0.0
C1153 C 0.89405 0.22471 0.29291 0.0
C1154 C 0.90013 0.22194 0.23688 0.0
C1155 C 0.9039 0.2249 0.12186 0.0
C1156 C 0.9012 0.23032 0.06361 0.0
C1157 C 0.89882 0.22852 0.17906 0.0
C1158 C 0.89416 0.24007 0.06288 0.0
C1159 C 0.8897 0.24431 0.11981 0.0
H1160 H 0.77194 0.67652 0.25725 0.0
H1161 H 0.74104 0.62882 0.18324 0.0
H1162 H 0.74746 0.63908 0.07412 0.0
H1163 H 0.76392 0.66125 9e-05 0.0
H1164 H 0.7935 0.70922 0.07397 0.0
H1165 H 0.78542 0.6993 0.18278 0.0
C1166 C 0.76646 0.66845 0.21713 0.0
C1167 C 0.7562 0.65194 0.22806 0.0
C1168 C 0.77004 0.67446 0.15462 0.0
C1169 C 0.74897 0.64159 0.17591 0.0
C1170 C 0.75271 0.64743 0.11354 0.0
C1171 C 0.76841 0.66953 0.04006 0.0
C1172 C 0.77943 0.68588 0.02927 0.0
C1173 C 0.76354 0.66378 0.10236 0.0
C1174 C 0.785 0.69657 0.08118 0.0
C1175 C 0.78046 0.69089 0.14339 0.0
H1176 H 0.87901 0.67605 0.11742 0.0
H1177 H 0.91927 0.66801 0.10725 0.0
H1178 H 0.9124 0.65516 0.21279 0.0
H1179 H 0.89399 0.64521 0.30575 0.0
H1180 H 0.85518 0.65555 0.31786 0.0
H1181 H 0.86242 0.6686 0.21368 0.0
C1182 C 0.8863 0.67155 0.13865 0.0
C1183 C 0.89946 0.67272 0.10491 0.0
C1184 C 0.8825 0.66459 0.19938 0.0
C1185 C 0.90906 0.66716 0.1328 0.0
C1186 C 0.90509 0.65979 0.19281 0.0
C1187 C 0.88722 0.65041 0.28549 0.0
C1188 C 0.87402 0.64935 0.3189 0.0
C1189 C 0.8917 0.65826 0.22619 0.0
C1190 C 0.86542 0.65629 0.29292 0.0
C1191 C 0.8695 0.66369 0.23335 0.0
H1192 H 0.28181 0.19781 0.11531 0.0
H1193 H 0.32714 0.2129 0.02104 0.0
H1194 H 0.34161 0.22515 0.11989 0.0
H1195 H 0.34125 0.22976 0.2354 0.0
H1196 H 0.29577 0.21228 0.33108 0.0
H1197 H 0.28147 0.20305 0.22944 0.0
C1198 C 0.29486 0.20392 0.11627 0.0
C1199 C 0.30338 0.20438 0.06113 0.0
C1200 C 0.30307 0.21055 0.17358 0.0
C1201 C 0.32029 0.21224 0.06314 0.0
C1202 C 0.32858 0.2193 0.11955 0.0
C1203 C 0.32824 0.22423 0.23342 0.0
C1204 C 0.3195 0.22178 0.28991 0.0
C1205 C 0.32009 0.2183 0.17532 0.0
C1206 C 0.30266 0.2143 0.28767 0.0
C1207 C 0.2945 0.20897 0.22979 0.0
H1208 H 0.78528 0.0938 0.13158 0.0
H1209 H 0.76028 0.11459 0.03531 0.0
H1210 H 0.75084 0.11892 0.13758 0.0
H1211 H 0.75145 0.11874 0.25447 0.0
H1212 H 0.77853 0.1003 0.35126 0.0
H1213 H 0.78531 0.09298 0.24889 0.0
C1214 C 0.77758 0.09906 0.1331 0.0
C1215 C 0.77347 0.10387 0.0762 0.0
C1216 C 0.77266 0.10202 0.19217 0.0
C1217 C 0.76367 0.11088 0.07867 0.0
C1218 C 0.75826 0.11335 0.13705 0.0
C1219 C 0.75863 0.1129 0.25314 0.0
C1220 C 0.76448 0.11004 0.31019 0.0
C1221 C 0.76294 0.10926 0.19414 0.0
C1222 C 0.77396 0.10267 0.30783 0.0
C1223 C 0.77784 0.0985 0.24937 0.0
H1224 H 0.63651 0.87906 0.78135 0.0
H1225 H 0.68118 0.90455 0.67788 0.0
H1226 H 0.69599 0.91473 0.77788 0.0
H1227 H 0.69654 0.91377 0.89486 0.0
H1228 H 0.65214 0.88595 -0.00189 0.0
H1229 H 0.63689 0.87944 0.8985 0.0
C1230 C 0.64943 0.88712 0.78081 0.0
C1231 C 0.65777 0.89105 0.72264 0.0
C1232 C 0.65793 0.89237 0.83856 0.0
C1233 C 0.67455 0.90131 0.72235 0.0
C1234 C 0.68301 0.9071 0.77944 0.0
C1235 C 0.6835 0.90655 0.89551 0.0
C1236 C 0.67546 0.9003 0.95346 0.0
C1237 C 0.67488 0.90233 0.83789 0.0
C1238 C 0.65858 0.8908 0.95382 0.0
C1239 C 0.64987 0.88706 0.89695 0.0
H1240 H 0.144 0.80454 0.84649 0.0
H1241 H 0.09736 0.76298 0.81216 0.0
H1242 H 0.08705 0.76863 0.90998 0.0
H1243 H 0.09084 0.78686 8e-05 0.0
H1244 H 0.1379 0.82823 0.0326 0.0
H1245 H 0.14846 0.82103 0.94104 0.0
C1246 C 0.13158 0.79665 0.8605 0.0
C1247 C 0.12138 0.78351 0.82162 0.0
C1248 C 0.1258 0.79994 0.91653 0.0
C1249 C 0.10543 0.77321 0.84116 0.0
C1250 C 0.09953 0.77647 0.89697 0.0
C1251 C 0.10347 0.79414 0.98789 0.0
C1252 C 0.11347 0.80817 0.0232 0.0
C1253 C 0.10953 0.79 0.93441 0.0
C1254 C 0.12984 0.81742 0.00647 0.0
C1255 C 0.13592 0.81335 0.95378 0.0
H1256 H 0.19821 0.3161 0.91682 0.0
H1257 H 0.2423 0.31457 0.928 0.0
H1258 H 0.2501 0.3267 0.82208 0.0
H1259 H 0.24616 0.34149 0.73418 0.0
H1260 H 0.20167 0.34234 0.7226 0.0
H1261 H 0.19218 0.32659 0.82035 0.0
C1262 C 0.20933 0.31807 0.89529 0.0
C1263 C 0.21977 0.31468 0.93031 0.0
C1264 C 0.21377 0.32513 0.83472 0.0
C1265 C 0.23406 0.31707 0.90183 0.0
C1266 C 0.2386 0.32416 0.84155 0.0
C1267 C 0.23427 0.33795 0.75252 0.0
C1268 C 0.22474 0.34327 0.72183 0.0
C1269 C 0.22884 0.32883 0.80876 0.0
C1270 C 0.20925 0.33842 0.7454 0.0
C1271 C 0.20384 0.32948 0.80152 0.0
H1272 H 0.9942 0.43495 0.53774 0.0
H1273 H 0.04146 0.46439 0.45761 0.0
H1274 H 0.03047 0.45597 0.34982 0.0
H1275 H 0.00675 0.44331 0.27922 0.0
H1276 H 0.95963 0.41319 0.35993 0.0
H1277 H 0.97124 0.41849 0.46712 0.0
C1278 C 0.00209 0.43922 0.49655 0.0
C1279 C 0.0185 0.4504 0.50484 0.0
C1280 C 0.9957 0.43428 0.43523 0.0
C1281 C 0.02877 0.45576 0.45183 0.0
C1282 C 0.02247 0.45104 0.3904 0.0
C1283 C -0.00089 0.43765 0.3203 0.0
C1284 C 0.98237 0.4281 0.31215 0.0
C1285 C 0.00587 0.44077 0.38157 0.0
C1286 C 0.97256 0.4206 0.36527 0.0
C1287 C 0.97917 0.42373 0.42651 0.0
H1288 H 0.56038 0.54067 0.4242 0.0
H1289 H 0.51838 0.49316 0.42925 0.0
H1290 H 0.50896 0.50022 0.52477 0.0
H1291 H 0.51201 0.51973 0.60515 0.0
H1292 H 0.55332 0.56762 0.60085 0.0
H1293 H 0.56361 0.56046 0.50704 0.0
C1294 C 0.54919 0.53185 0.44631 0.0
C1295 C 0.5401 0.51643 0.41911 0.0
C1296 C 0.54368 0.536 0.50142 0.0
C1297 C 0.52559 0.50517 0.44849 0.0
C1298 C 0.52018 0.50915 0.50338 0.0
C1299 C 0.52335 0.52862 0.58425 0.0
C1300 C 0.53189 0.54419 0.61035 0.0
C1301 C 0.52905 0.52452 0.53 0.0
C1302 C 0.54649 0.55553 0.5819 0.0
C1303 C 0.55237 0.55146 0.52814 0.0
H1304 H 0.43704 0.01654 0.5586 0.0
H1305 H 0.40778 0.96771 0.49267 0.0
H1306 H 0.41214 0.97699 0.38218 0.0
H1307 H 0.42625 -0.00126 0.30422 0.0
H1308 H 0.45451 0.04771 0.36991 0.0
H1309 H 0.4484 0.03866 0.48057 0.0
C1310 C 0.4315 0.00797 0.52 0.0
C1311 C 0.42229 0.99146 0.53365 0.0
C1312 C 0.43391 0.01341 0.45661 0.0
C1313 C 0.41494 0.98049 0.48336 0.0
C1314 C 0.41748 0.98577 0.42016 0.0
C1315 C 0.43089 0.00744 0.3428 0.0
C1316 C 0.44096 0.02383 0.32905 0.0
C1317 C 0.42724 0.00216 0.40621 0.0
C1318 C 0.44672 0.03502 0.37932 0.0
C1319 C 0.44331 0.02984 0.44261 0.0
H1320 H 0.53503 0.96004 0.52024 0.0
H1321 H 0.5594 0.00407 0.62819 0.0
H1322 H 0.56997 0.01951 0.52979 0.0
H1323 H 0.57025 0.02067 0.4126 0.0
H1324 H 0.5433 0.97691 0.30475 0.0
H1325 H 0.53582 0.96114 0.4031 0.0
C1326 C 0.54288 0.97298 0.52199 0.0
C1327 C 0.54651 0.98096 0.58087 0.0
C1328 C 0.54831 0.98181 0.4652 0.0
C1329 C 0.55645 0.99775 0.583 0.0
C1330 C 0.56247 0.00656 0.52689 0.0
C1331 C 0.56294 0.00767 0.41084 0.0
C1332 C 0.55731 -9e-05 0.35196 0.0
C1333 C 0.55817 -0.00124 0.46764 0.0
C1334 C 0.54766 0.98309 0.3499 0.0
C1335 C 0.5434 0.97408 0.40598 0.0
H1336 H 0.98522 0.56915 0.41116 0.0
H1337 H 0.97717 0.52083 0.42102 0.0
H1338 H 0.99011 0.52639 0.52534 0.0
H1339 H 0.00539 0.54527 0.60934 0.0
H1340 H 0.0162 0.59453 0.5976 0.0
H1341 H 0.00044 0.58834 0.49884 0.0
C1342 C 0.98617 0.55985 0.43678 0.0
C1343 C 0.98029 0.54461 0.40871 0.0
C1344 C 0.99417 0.56332 0.49613 0.0
C1345 C 0.98172 0.53267 0.44169 0.0
C1346 C 0.98909 0.53583 0.50131 0.0
C1347 C 0.00412 0.55465 0.58599 0.0
C1348 C 0.01191 0.57033 0.61119 0.0
C1349 C 0.9956 0.55116 0.52841 0.0
C1350 C 0.0103 0.58234 0.57936 0.0
C1351 C 0.00133 0.57881 0.52278 0.0
H1352 H 0.47994 0.4555 0.4421 0.0
H1353 H 0.43531 0.41039 0.42858 0.0
H1354 H 0.42495 0.41764 0.52201 0.0
H1355 H 0.42835 0.4373 0.60565 0.0
H1356 H 0.47344 0.48214 0.61784 0.0
H1357 H 0.48373 0.47435 0.52701 0.0
C1358 C 0.46792 0.44721 0.4594 0.0
C1359 C 0.45838 0.43247 0.42786 0.0
C1360 C 0.46209 0.4514 0.51308 0.0
C1361 C 0.44293 0.42182 0.45178 0.0
C1362 C 0.43698 0.42598 0.50517 0.0
C1363 C 0.44046 0.44535 0.58865 0.0
C1364 C 0.45003 0.46033 0.61879 0.0
C1365 C 0.44642 0.44081 0.53596 0.0
C1366 C 0.46573 0.47054 0.59601 0.0
C1367 C 0.47167 0.46613 0.54379 0.0
H1368 H 0.07234 0.30135 0.37715 0.0
H1369 H 0.09093 0.342 0.25081 0.0
H1370 H 0.09557 0.35996 0.34084 0.0
H1371 H 0.10258 0.36453 0.45458 0.0
H1372 H 0.08794 0.324 0.57942 0.0
H1373 H 0.0731 0.30553 0.49253 0.0
C1374 C 0.07649 0.314 0.36934 0.0
C1375 C 0.08139 0.32046 0.30815 0.0
C1376 C 0.08029 0.32434 0.42184 0.0
C1377 C 0.08704 0.33686 0.29791 0.0
C1378 C 0.08993 0.34714 0.34952 0.0
C1379 C 0.09541 0.3517 0.46319 0.0
C1380 C 0.09641 0.34551 0.52249 0.0
C1381 C 0.08787 0.34116 0.41188 0.0
C1382 C 0.08732 0.3289 0.53364 0.0
C1383 C 0.07899 0.31836 0.48383 0.0
H1384 H 0.67998 0.74893 0.49322 0.0
H1385 H 0.63293 0.72066 0.40944 0.0
H1386 H 0.64504 0.72226 0.3054 0.0
H1387 H 0.66835 0.73879 0.23635 0.0
H1388 H 0.71539 0.76704 0.32007 0.0
H1389 H 0.70412 0.75783 0.42625 0.0
C1390 C 0.67246 0.74247 0.45272 0.0
C1391 C 0.65565 0.73505 0.45816 0.0
C1392 C 0.67953 0.74365 0.39291 0.0
C1393 C 0.64592 0.72653 0.40601 0.0
C1394 C 0.65285 0.7276 0.34633 0.0
C1395 C 0.67622 0.74216 0.27763 0.0
C1396 C 0.69254 0.75384 0.27103 0.0
C1397 C 0.66956 0.73715 0.33859 0.0
C1398 C 0.70275 0.7581 0.32428 0.0
C1399 C 0.69625 0.75304 0.38516 0.0
H1400 H 0.18833 0.86275 0.20269 0.0
H1401 H 0.23633 0.89851 0.14641 0.0
H1402 H 0.24741 0.89126 0.23838 0.0
H1403 H 0.24307 0.87367 0.33349 0.0
H1404 H 0.1942 0.83871 0.38566 0.0
H1405 H 0.18395 0.84686 0.29675 0.0
C1406 C 0.20126 0.86895 0.20994 0.0
C1407 C 0.2115 0.88094 0.16704 0.0
C1408 C 0.2074 0.86487 0.26252 0.0
C1409 C 0.22819 0.88913 0.1785 0.0
C1410 C 0.2345 0.88497 0.23106 0.0
C1411 C 0.2302 0.86797 0.3255 0.0
C1412 C 0.21949 0.85539 0.3659 0.0
C1413 C 0.22419 0.87273 0.27332 0.0
C1414 C 0.20281 0.84819 0.35499 0.0
C1415 C 0.19686 0.85285 0.30407 0.0
H1416 H 0.3774 0.10358 0.62132 0.0
H1417 H 0.33457 0.08059 0.50578 0.0
H1418 H 0.31937 0.06335 0.59505 0.0
H1419 H 0.31667 0.06164 0.71115 0.0
H1420 H 0.35849 0.08858 0.82907 0.0
H1421 H 0.37581 0.09682 0.73502 0.0
C1422 C 0.36496 0.09421 0.61506 0.0
C1423 C 0.35701 0.09338 0.55772 0.0
C1424 C 0.35604 0.08522 0.66804 0.0
C1425 C 0.34084 0.08142 0.54988 0.0
C1426 C 0.33213 0.07168 0.60111 0.0
C1427 C 0.32967 0.06851 0.71628 0.0
C1428 C 0.33635 0.07464 0.77642 0.0
C1429 C 0.33931 0.07439 0.66154 0.0
C1430 C 0.35315 0.08373 0.78296 0.0
C1431 C 0.36301 0.08869 0.72902 0.0
H1432 H 0.9375 0.24442 0.71389 0.0
H1433 H 0.91712 0.26538 0.83711 0.0
H1434 H 0.91163 0.27762 0.74552 0.0
H1435 H 0.90443 0.27416 0.63193 0.0
H1436 H 0.92058 0.24891 0.51061 0.0
H1437 H 0.93629 0.24691 0.59814 0.0
C1438 C 0.93275 0.25248 0.72065 0.0
C1439 C 0.92761 0.254 0.78147 0.0
C1440 C 0.92842 0.25828 0.66728 0.0
C1441 C 0.9212 0.26417 0.79035 0.0
C1442 C 0.91782 0.27092 0.73784 0.0
C1443 C 0.91212 0.26903 0.62413 0.0
C1444 C 0.91137 0.2616 0.56568 0.0
C1445 C 0.92012 0.26689 0.67598 0.0
C1446 C 0.92107 0.2547 0.55562 0.0
C1447 C 0.92989 0.25339 0.60586 0.0
H1448 H 0.74731 0.66687 0.75758 0.0
H1449 H 0.77663 0.71355 0.67311 0.0
H1450 H 0.76435 0.70303 0.56913 0.0
H1451 H 0.75135 0.679 0.50024 0.0
H1452 H 0.72164 0.63243 0.5848 0.0
H1453 H 0.7274 0.64448 0.69098 0.0
C1454 C 0.75039 0.67487 0.71694 0.0
C1455 C 0.76301 0.69084 0.72234 0.0
C1456 C 0.74335 0.66869 0.65721 0.0
C1457 C 0.76693 0.7012 0.66983 0.0
C1458 C 0.76004 0.69513 0.61019 0.0
C1459 C 0.74541 0.67167 0.54174 0.0
C1460 C 0.73635 0.65487 0.53515 0.0
C1461 C 0.74908 0.67867 0.60272 0.0
C1462 C 0.72865 0.64541 0.58887 0.0
C1463 C 0.73219 0.65227 0.64976 0.0
H1464 H 0.89043 0.62149 0.65761 0.0
H1465 H 0.91241 0.66442 0.54323 0.0
H1466 H 0.9298 0.67972 0.63238 0.0
H1467 H 0.93213 0.68221 0.74843 0.0
H1468 H 0.90586 0.64024 0.86573 0.0
H1469 H 0.89741 0.62307 0.77113 0.0
C1470 C 0.89962 0.634 0.65164 0.0
C1471 C 0.90025 0.64191 0.59456 0.0
C1472 C 0.90865 0.64292 0.70457 0.0
C1473 C 0.91186 0.65817 0.58702 0.0
C1474 C 0.92167 0.66692 0.63818 0.0
C1475 C 0.92535 0.66922 0.7532 0.0
C1476 C 0.91953 0.66243 0.81344 0.0
C1477 C 0.9193 0.65967 0.6983 0.0
C1478 C 0.91051 0.64565 0.81958 0.0
C1479 C 0.90543 0.63588 0.76535 0.0
H1480 H 0.2741 0.21541 0.72659 0.0
H1481 H 0.31728 0.23725 0.84019 0.0
H1482 H 0.33224 0.25535 0.75264 0.0
H1483 H 0.33463 0.25764 0.63676 0.0
H1484 H 0.2925 0.23156 0.51973 0.0
H1485 H 0.27537 0.22319 0.61425 0.0
C1486 C 0.28657 0.22473 0.73288 0.0
C1487 C 0.29472 0.225 0.7888 0.0
C1488 C 0.29533 0.23419 0.68065 0.0
C1489 C 0.31089 0.23688 0.79698 0.0
C1490 C 0.31946 0.24711 0.74676 0.0
C1491 C 0.32162 0.25098 0.63206 0.0
C1492 C 0.31477 0.24495 0.57211 0.0
C1493 C 0.3121 0.2449 0.68692 0.0
C1494 C 0.29795 0.23625 0.56584 0.0
C1495 C 0.2882 0.23119 0.62004 0.0
H1496 H 0.73902 0.08505 0.81991 0.0
H1497 H 0.76357 0.06152 0.74372 0.0
H1498 H 0.75215 0.06035 0.63851 0.0
H1499 H 0.74359 0.07487 0.56606 0.0
H1500 H 0.7194 0.09874 0.64218 0.0
H1501 H 0.72155 0.09033 0.74972 0.0
C1502 C 0.74106 0.07882 0.78101 0.0
C1503 C 0.75242 0.0738 0.7885 0.0
C1504 C 0.73476 0.07857 0.72037 0.0
C1505 C 0.75494 0.06559 0.73854 0.0
C1506 C 0.74858 0.06512 0.67812 0.0
C1507 C 0.73788 0.0773 0.60581 0.0
C1508 C 0.7318 0.08776 0.59705 0.0
C1509 C 0.73967 0.07287 0.66769 0.0
C1510 C 0.72426 0.09079 0.64821 0.0
C1511 C 0.72576 0.08622 0.70993 0.0
H1512 H 0.65933 0.91264 0.20895 0.0
H1513 H 0.70634 0.93921 0.29443 0.0
H1514 H 0.69418 0.93739 0.39864 0.0
H1515 H 0.6707 0.92047 0.46617 0.0
H1516 H 0.62375 0.89331 0.38077 0.0
H1517 H 0.63516 0.90362 0.2756 0.0
C1518 C 0.66684 0.91879 0.24989 0.0
C1519 C 0.68361 0.92572 0.24494 0.0
C1520 C 0.65974 0.91729 0.30979 0.0
C1521 C 0.69337 0.93376 0.29759 0.0
C1522 C 0.68641 0.93252 0.35733 0.0
C1523 C 0.6629 0.91761 0.42491 0.0
C1524 C 0.64656 0.90592 0.43036 0.0
C1525 C 0.66966 0.92318 0.3645 0.0
C1526 C 0.6364 0.90227 0.37726 0.0
C1527 C 0.64298 0.90796 0.31698 0.0
H1528 H 0.12291 0.81053 0.52753 0.0
H1529 H 0.09415 0.75995 0.48465 0.0
H1530 H 0.08276 0.76616 0.39156 0.0
H1531 H 0.08347 0.78636 0.31528 0.0
H1532 H 0.11349 0.8368 0.35886 0.0
H1533 H 0.12179 0.83021 0.45849 0.0
C1534 C 0.11401 0.8008 0.49838 0.0
C1535 C 0.10958 0.78482 0.51269 0.0
C1536 C 0.10783 0.80446 0.44441 0.0
C1537 C 0.09783 0.77239 0.47474 0.0
C1538 C 0.09139 0.77594 0.4212 0.0
C1539 C 0.09161 0.79585 0.34721 0.0
C1540 C 0.09802 0.81205 0.32917 0.0
C1541 C 0.09666 0.79198 0.40445 0.0
C1542 C 0.10857 0.82424 0.37102 0.0
C1543 C 0.11333 0.8205 0.42816 0.0
H1544 H 0.25714 0.32314 0.27512 0.0
H1545 H 0.24807 0.35469 0.15731 0.0
H1546 H 0.24935 0.37032 0.25047 0.0
H1547 H 0.24981 0.37316 0.3663 0.0
H1548 H 0.26006 0.34291 0.48565 0.0
H1549 H 0.26162 0.32862 0.39101 0.0
C1550 C 0.25571 0.33358 0.26973 0.0
C1551 C 0.25203 0.33743 0.20953 0.0
C1552 C 0.25647 0.34261 0.32377 0.0
C1553 C 0.25055 0.35122 0.20324 0.0
C1554 C 0.25125 0.36018 0.2565 0.0
C1555 C 0.25258 0.36355 0.37127 0.0
C1556 C 0.25457 0.35882 0.43214 0.0
C1557 C 0.25363 0.35565 0.31708 0.0
C1558 C 0.25843 0.34661 0.43875 0.0
C1559 C 0.25926 0.33845 0.38481 0.0
H1560 H 0.02772 0.43724 0.86298 0.0
H1561 H 0.98635 0.42168 0.74131 0.0
H1562 H 0.96846 0.40673 0.82947 0.0
H1563 H 0.96473 0.40525 0.9454 0.0
H1564 H 0.00615 0.42487 0.06875 0.0
H1565 H 0.02386 0.43057 0.97688 0.0
C1566 C 0.01484 0.42993 0.85531 0.0
C1567 C 0.00826 0.43063 0.79645 0.0
C1568 C 0.00461 0.42233 0.90736 0.0
C1569 C 0.99157 0.42132 0.78669 0.0
C1570 C 0.98136 0.41291 0.83721 0.0
C1571 C 0.97755 0.40998 0.95203 0.0
C1572 C 0.98423 0.4147 0.0131 0.0
C1573 C 0.9877 0.41433 0.89866 0.0
C1574 C 0.00084 0.42112 0.02177 0.0
C1575 C 0.01097 0.42457 0.9692 0.0
H1576 H 0.56761 0.54509 0.08007 0.0
H1577 H 0.51914 0.51331 0.14628 0.0
H1578 H 0.5084 0.52235 0.06155 0.0
H1579 H 0.51223 0.53719 0.96373 0.0
H1580 H 0.56003 0.56936 0.89382 0.0
H1581 H 0.57158 0.56245 0.98509 0.0
C1582 C 0.55474 0.54038 0.07639 0.0
C1583 C 0.54421 0.52832 0.11892 0.0
C1584 C 0.54849 0.54557 0.02661 0.0
C1585 C 0.52754 0.52237 0.11364 0.0
C1586 C 0.52134 0.52754 0.06517 0.0
C1587 C 0.5252 0.54279 0.96857 0.0
C1588 C 0.53526 0.55353 0.92173 0.0
C1589 C 0.53164 0.53876 0.02052 0.0
C1590 C 0.55204 0.56097 0.92931 0.0
C1591 C 0.55862 0.55697 0.9813 0.0
H1592 H 0.40528 0.00355 0.05777 0.0
H1593 H 0.43327 0.05108 0.97866 0.0
H1594 H 0.42234 0.04081 0.87289 0.0
H1595 H 0.41219 0.0172 0.80209 0.0
H1596 H 0.38426 0.96968 0.88121 0.0
H1597 H 0.38718 0.98103 0.98774 0.0
C1598 C 0.40826 0.01177 0.01791 0.0
C1599 C 0.42035 0.02791 0.02528 0.0
C1600 C 0.40217 0.00569 0.95697 0.0
C1601 C 0.42406 0.03856 0.97386 0.0
C1602 C 0.41797 0.03264 0.91311 0.0
C1603 C 0.40596 0.00942 0.84222 0.0
C1604 C 0.39842 0.99267 0.83443 0.0
C1605 C 0.40808 0.01604 0.90359 0.0
C1606 C 0.39022 0.98263 0.88626 0.0
C1607 C 0.39213 0.98912 0.94745 0.0
H1608 H 0.55681 0.95637 0.92812 0.0
H1609 H 0.57771 0.99754 0.80398 0.0
H1610 H 0.5938 0.01475 0.89198 0.0
H1611 H 0.59443 0.019 0.00731 0.0
H1612 H 0.56974 0.97835 0.13242 0.0
H1613 H 0.56322 0.95996 0.04246 0.0
C1614 C 0.56556 0.96893 0.91997 0.0
C1615 C 0.56609 0.9758 0.86042 0.0
C1616 C 0.57387 0.97891 0.97187 0.0
C1617 C 0.5772 0.9921 0.84986 0.0
C1618 C 0.58625 0.00196 0.90034 0.0
C1619 C 0.58848 0.00611 0.01502 0.0
C1620 C 0.58244 -6e-05 0.07569 0.0
C1621 C 0.58366 0.9957 0.96235 0.0
C1622 C 0.57451 0.98327 0.08574 0.0
C1623 C 0.57055 0.97277 0.03412 0.0
H1624 H 0.0061 0.58763 0.89228 0.0
H1625 H 0.04737 0.58791 0.97475 0.0
H1626 H 0.03536 0.58348 0.08072 0.0
H1627 H 0.01089 0.57371 0.14417 0.0
H1628 H 0.9689 0.57209 0.06253 0.0
H1629 H 0.98348 0.58342 0.96276 0.0
C1630 C 0.01263 0.58732 0.93401 0.0
C1631 C 0.02751 0.58803 0.92642 0.0
C1632 C 0.00543 0.58438 0.99473 0.0
C1633 C 0.0359 0.58742 0.98013 0.0
C1634 C 0.029 0.5848 0.04053 0.0
C1635 C 0.00518 0.57648 0.10534 0.0
C1636 C 0.98886 0.57193 0.11007 0.0
C1637 C 0.01345 0.58244 0.04777 0.0
C1638 C 0.98151 0.57557 0.05988 0.0
C1639 C 0.98978 0.58181 0.00249 0.0
H1640 H 0.46387 0.45448 0.13167 0.0
H1641 H 0.43187 0.40409 0.09412 0.0
H1642 H 0.42153 0.41098 -0.00079 0.0
H1643 H 0.42343 0.43166 0.92181 0.0
H1644 H 0.45686 0.48174 0.96184 0.0
H1645 H 0.46482 0.47455 0.06023 0.0
C1646 C 0.45455 0.44492 0.10314 0.0
C1647 C 0.44881 0.42879 0.11966 0.0
C1648 C 0.44904 0.44893 0.04833 0.0
C1649 C 0.43653 0.41663 0.08249 0.0
C1650 C 0.43071 0.42057 0.02794 0.0
C1651 C 0.43237 0.44094 0.95235 0.0
C1652 C 0.43969 0.4572 0.93364 0.0
C1653 C 0.43716 0.43672 0.0095 0.0
C1654 C 0.45121 0.46911 0.97406 0.0
C1655 C 0.45576 0.46505 0.03076 0.0
loop_
_geom_bond_atom_site_label_1
_geom_bond_atom_site_label_2
_geom_bond_distance
_geom_bond_site_symmetry_2
_ccdc_geom_bond_type
Mg0 O1 2.028 . S
Mg0 O7 1.986 . S
Mg0 O9 2.114 . S
Mg0 O10 2.251 . S
Mg0 O13 2.010 . S
O1 Mg0 2.028 . S
O1 C4 1.250 1_554 S
O2 Mg3 2.028 . S
O2 C4 1.248 1_554 S
Mg3 O2 2.028 . S
Mg3 O8 2.032 . S
Mg3 O10 2.079 . S
C4 O1 1.250 1_556 S
C4 O2 1.248 1_556 S
C5 O6 1.264 . S
C5 O13 1.249 . S
O6 C5 1.264 . S
O7 Mg0 1.986 . S
O7 C11 1.246 . S
O8 Mg3 2.032 . S
O8 C11 1.259 . S
O9 Mg0 2.114 . S
O9 C12 1.252 . S
O10 Mg0 2.251 . S
O10 Mg3 2.079 . S
O10 C12 1.273 . S
C11 O7 1.246 . S
C11 O8 1.259 . S
C12 O9 1.252 . S
C12 O10 1.273 . S
O13 Mg0 2.010 . S
O13 C5 1.249 . S
Mg14 O15 2.028 . S
Mg14 O21 1.986 . S
Mg14 O23 2.114 . S
Mg14 O24 2.251 . S
Mg14 O27 2.010 . S
O15 Mg14 2.028 . S
O15 C18 1.250 1_554 S
O16 Mg17 2.028 . S
O16 C18 1.248 1_554 S
Mg17 O16 2.028 . S
Mg17 O22 2.032 . S
Mg17 O24 2.079 . S
C18 O15 1.250 1_556 S
C18 O16 1.248 1_556 S
C19 O20 1.264 . S
C19 O27 1.249 . S
O20 C19 1.264 . S
O21 Mg14 1.986 . S
O21 C25 1.246 . S
O22 Mg17 2.032 . S
O22 C25 1.259 . S
O23 Mg14 2.114 . S
O23 C26 1.252 . S
O24 Mg14 2.251 . S
O24 Mg17 2.079 . S
O24 C26 1.273 . S
C25 O21 1.246 . S
C25 O22 1.259 . S
C26 O23 1.252 . S
C26 O24 1.273 . S
O27 Mg14 2.010 . S
O27 C19 1.249 . S
Mg28 O29 2.028 . S
Mg28 O35 1.986 . S
Mg28 O37 2.114 . S
Mg28 O38 2.251 . S
Mg28 O41 2.010 . S
O29 Mg28 2.028 . S
O29 C32 1.250 1_554 S
O30 Mg31 2.028 . S
O30 C32 1.248 1_554 S
Mg31 O30 2.028 . S
Mg31 O36 2.032 . S
Mg31 O38 2.079 . S
C32 O29 1.250 1_556 S
C32 O30 1.248 1_556 S
C33 O34 1.264 . S
C33 O41 1.249 . S
O34 C33 1.264 . S
O35 Mg28 1.986 . S
O35 C39 1.246 . S
O36 Mg31 2.032 . S
O36 C39 1.259 . S
O37 Mg28 2.114 . S
O37 C40 1.252 . S
O38 Mg28 2.251 . S
O38 Mg31 2.079 . S
O38 C40 1.273 . S
C39 O35 1.246 . S
C39 O36 1.259 . S
C40 O37 1.252 . S
C40 O38 1.273 . S
O41 Mg28 2.010 . S
O41 C33 1.249 . S
Mg42 O43 2.028 . S
Mg42 O49 1.986 . S
Mg42 O51 2.114 . S
Mg42 O52 2.251 . S
Mg42 O55 2.010 . S
O43 Mg42 2.028 . S
O43 C46 1.250 1_556 S
O44 Mg45 2.028 . S
O44 C46 1.248 1_556 S
Mg45 O44 2.028 . S
Mg45 O50 2.032 . S
Mg45 O52 2.079 . S
C46 O43 1.250 1_554 S
C46 O44 1.248 1_554 S
C47 O48 1.264 . S
C47 O55 1.249 . S
O48 C47 1.264 . S
O49 Mg42 1.986 . S
O49 C53 1.246 . S
O50 Mg45 2.032 . S
O50 C53 1.259 . S
O51 Mg42 2.114 . S
O51 C54 1.252 . S
O52 Mg42 2.251 . S
O52 Mg45 2.079 . S
O52 C54 1.273 . S
C53 O49 1.246 . S
C53 O50 1.259 . S
C54 O51 1.252 . S
C54 O52 1.273 . S
O55 Mg42 2.010 . S
O55 C47 1.249 . S
Mg56 O57 2.028 . S
Mg56 O63 1.986 . S
Mg56 O65 2.114 . S
Mg56 O66 2.251 . S
Mg56 O69 2.010 . S
O57 Mg56 2.028 . S
O57 C60 1.250 1_556 S
O58 Mg59 2.028 . S
O58 C60 1.248 1_556 S
Mg59 O58 2.028 . S
Mg59 O64 2.032 . S
Mg59 O66 2.079 . S
C60 O57 1.250 1_554 S
C60 O58 1.248 1_554 S
C61 O62 1.264 . S
C61 O69 1.249 . S
O62 C61 1.264 . S
O63 Mg56 1.986 . S
O63 C67 1.246 . S
O64 Mg59 2.032 . S
O64 C67 1.259 . S
O65 Mg56 2.114 . S
O65 C68 1.252 . S
O66 Mg56 2.251 . S
O66 Mg59 2.079 . S
O66 C68 1.273 . S
C67 O63 1.246 . S
C67 O64 1.259 . S
C68 O65 1.252 . S
C68 O66 1.273 . S
O69 Mg56 2.010 . S
O69 C61 1.249 . S
Mg70 O71 2.028 . S
Mg70 O77 1.986 . S
Mg70 O79 2.114 . S
Mg70 O80 2.251 . S
Mg70 O83 2.010 . S
O71 Mg70 2.028 . S
O71 C74 1.250 1_556 S
O72 Mg73 2.028 . S
O72 C74 1.248 1_556 S
Mg73 O72 2.028 . S
Mg73 O78 2.032 . S
Mg73 O80 2.079 . S
C74 O71 1.250 1_554 S
C74 O72 1.248 1_554 S
C75 O76 1.264 . S
C75 O83 1.249 . S
O76 C75 1.264 . S
O77 Mg70 1.986 . S
O77 C81 1.246 . S
O78 Mg73 2.032 . S
O78 C81 1.259 . S
O79 Mg70 2.114 . S
O79 C82 1.252 . S
O80 Mg70 2.251 . S
O80 Mg73 2.079 . S
O80 C82 1.273 . S
C81 O77 1.246 . S
C81 O78 1.259 . S
C82 O79 1.252 . S
C82 O80 1.273 . S
O83 Mg70 2.010 . S
O83 C75 1.249 . S
Mg84 O85 2.028 . S
Mg84 O91 1.986 . S
Mg84 O93 2.114 . S
Mg84 O94 2.251 . S
Mg84 O97 2.010 . S
O85 Mg84 2.028 . S
O85 C88 1.250 1_556 S
O86 Mg87 2.028 . S
O86 C88 1.248 1_556 S
Mg87 O86 2.028 . S
Mg87 O92 2.032 . S
Mg87 O94 2.079 . S
C88 O85 1.250 1_554 S
C88 O86 1.248 1_554 S
C89 O90 1.264 . S
C89 O97 1.249 . S
O90 C89 1.264 . S
O91 Mg84 1.986 . S
O91 C95 1.246 . S
O92 Mg87 2.032 . S
O92 C95 1.259 . S
O93 Mg84 2.114 . S
O93 C96 1.252 . S
O94 Mg84 2.251 . S
O94 Mg87 2.079 . S
O94 C96 1.273 . S
C95 O91 1.246 . S
C95 O92 1.259 . S
C96 O93 1.252 . S
C96 O94 1.273 . S
O97 Mg84 2.010 . S
O97 C89 1.249 . S
Mg98 O99 2.028 . S
Mg98 O105 1.986 . S
Mg98 O107 2.114 . S
Mg98 O108 2.251 . S
Mg98 O111 2.010 . S
O99 Mg98 2.028 . S
O99 C102 1.250 1_556 S
O100 Mg101 2.028 . S
O100 C102 1.248 1_556 S
Mg101 O100 2.028 . S
Mg101 O106 2.032 . S
Mg101 O108 2.079 . S
C102 O99 1.250 1_554 S
C102 O100 1.248 1_554 S
C103 O104 1.264 . S
C103 O111 1.249 . S
O104 C103 1.264 . S
O105 Mg98 1.986 . S
O105 C109 1.246 . S
O106 Mg101 2.032 . S
O106 C109 1.259 . S
O107 Mg98 2.114 . S
O107 C110 1.252 . S
O108 Mg98 2.251 . S
O108 Mg101 2.079 . S
O108 C110 1.273 . S
C109 O105 1.246 . S
C109 O106 1.259 . S
C110 O107 1.252 . S
C110 O108 1.273 . S
O111 Mg98 2.010 . S
O111 C103 1.249 . S
Mg112 O113 2.028 . S
Mg112 O119 1.986 . S
Mg112 O121 2.114 . S
Mg112 O122 2.251 . S
Mg112 O125 2.010 . S
O113 Mg112 2.028 . S
O113 C116 1.250 1_556 S
O114 Mg115 2.028 . S
O114 C116 1.248 1_556 S
Mg115 O114 2.028 . S
Mg115 O120 2.032 . S
Mg115 O122 2.079 . S
C116 O113 1.250 1_554 S
C116 O114 1.248 1_554 S
C117 O118 1.264 . S
C117 O125 1.249 . S
O118 C117 1.264 . S
O119 Mg112 1.986 . S
O119 C123 1.246 . S
O120 Mg115 2.032 . S
O120 C123 1.259 . S
O121 Mg112 2.114 . S
O121 C124 1.252 . S
O122 Mg112 2.251 . S
O122 Mg115 2.079 . S
O122 C124 1.273 . S
C123 O119 1.246 . S
C123 O120 1.259 . S
C124 O121 1.252 . S
C124 O122 1.273 . S
O125 Mg112 2.010 . S
O125 C117 1.249 . S
Mg126 O127 2.028 . S
Mg126 O133 1.986 . S
Mg126 O135 2.114 . S
Mg126 O136 2.251 . S
Mg126 O139 2.010 . S
O127 Mg126 2.028 . S
O127 C130 1.250 1_554 S
O128 Mg129 2.028 . S
O128 C130 1.248 1_554 S
Mg129 O128 2.028 . S
Mg129 O134 2.032 . S
Mg129 O136 2.079 . S
C130 O127 1.250 1_556 S
C130 O128 1.248 1_556 S
C131 O132 1.264 . S
C131 O139 1.249 . S
O132 C131 1.264 . S
O133 Mg126 1.986 . S
O133 C137 1.246 . S
O134 Mg129 2.032 . S
O134 C137 1.259 . S
O135 Mg126 2.114 . S
O135 C138 1.252 . S
O136 Mg126 2.251 . S
O136 Mg129 2.079 . S
O136 C138 1.273 . S
C137 O133 1.246 . S
C137 O134 1.259 . S
C138 O135 1.252 . S
C138 O136 1.273 . S
O139 Mg126 2.010 . S
O139 C131 1.249 . S
Mg140 O141 2.028 . S
Mg140 O147 1.986 . S
Mg140 O149 2.114 . S
Mg140 O150 2.251 . S
Mg140 O153 2.010 . S
O141 Mg140 2.028 . S
O141 C144 1.250 1_554 S
O142 Mg143 2.028 . S
O142 C144 1.248 1_554 S
Mg143 O142 2.028 . S
Mg143 O148 2.032 . S
Mg143 O150 2.079 . S
C144 O141 1.250 1_556 S
C144 O142 1.248 1_556 S
C145 O146 1.264 . S
C145 O153 1.249 . S
O146 C145 1.264 . S
O147 Mg140 1.986 . S
O147 C151 1.246 . S
O148 Mg143 2.032 . S
O148 C151 1.259 . S
O149 Mg140 2.114 . S
O149 C152 1.252 . S
O150 Mg140 2.251 . S
O150 Mg143 2.079 . S
O150 C152 1.273 . S
C151 O147 1.246 . S
C151 O148 1.259 . S
C152 O149 1.252 . S
C152 O150 1.273 . S
O153 Mg140 2.010 . S
O153 C145 1.249 . S
Mg154 O155 2.028 . S
Mg154 O161 1.986 . S
Mg154 O163 2.114 . S
Mg154 O164 2.251 . S
Mg154 O167 2.010 . S
O155 Mg154 2.028 . S
O155 C158 1.250 1_554 S
O156 Mg157 2.028 . S
O156 C158 1.248 1_554 S
Mg157 O156 2.028 . S
Mg157 O162 2.032 . S
Mg157 O164 2.079 . S
C158 O155 1.250 1_556 S
C158 O156 1.248 1_556 S
C159 O160 1.264 . S
C159 O167 1.249 . S
O160 C159 1.264 . S
O161 Mg154 1.986 . S
O161 C165 1.246 . S
O162 Mg157 2.032 . S
O162 C165 1.259 . S
O163 Mg154 2.114 . S
O163 C166 1.252 . S
O164 Mg154 2.251 . S
O164 Mg157 2.079 . S
O164 C166 1.273 . S
C165 O161 1.246 . S
C165 O162 1.259 . S
C166 O163 1.252 . S
C166 O164 1.273 . S
O167 Mg154 2.010 . S
O167 C159 1.249 . S
Mg168 O169 2.028 . S
Mg168 O175 1.986 . S
Mg168 O177 2.114 . S
Mg168 O178 2.251 . S
Mg168 O181 2.010 . S
O169 Mg168 2.028 . S
O169 C172 1.250 . S
O170 Mg171 2.028 . S
O170 C172 1.248 . S
Mg171 O170 2.028 . S
Mg171 O176 2.032 . S
Mg171 O178 2.079 . S
C172 O169 1.250 . S
C172 O170 1.248 . S
C173 O174 1.264 . S
C173 O181 1.249 . S
O174 C173 1.264 . S
O175 Mg168 1.986 . S
O175 C179 1.246 . S
O176 Mg171 2.032 . S
O176 C179 1.259 . S
O177 Mg168 2.114 . S
O177 C180 1.252 . S
O178 Mg168 2.251 . S
O178 Mg171 2.079 . S
O178 C180 1.273 . S
C179 O175 1.246 . S
C179 O176 1.259 . S
C180 O177 1.252 . S
C180 O178 1.273 . S
O181 Mg168 2.010 . S
O181 C173 1.249 . S
Mg182 O183 2.028 . S
Mg182 O189 1.986 . S
Mg182 O191 2.114 . S
Mg182 O192 2.251 . S
Mg182 O195 2.010 . S
O183 Mg182 2.028 . S
O183 C186 1.250 . S
O184 Mg185 2.028 . S
O184 C186 1.248 . S
Mg185 O184 2.028 . S
Mg185 O190 2.032 . S
Mg185 O192 2.079 . S
C186 O183 1.250 . S
C186 O184 1.248 . S
C187 O188 1.264 . S
C187 O195 1.249 . S
O188 C187 1.264 . S
O189 Mg182 1.986 . S
O189 C193 1.246 . S
O190 Mg185 2.032 . S
O190 C193 1.259 . S
O191 Mg182 2.114 . S
O191 C194 1.252 . S
O192 Mg182 2.251 . S
O192 Mg185 2.079 . S
O192 C194 1.273 . S
C193 O189 1.246 . S
C193 O190 1.259 . S
C194 O191 1.252 . S
C194 O192 1.273 . S
O195 Mg182 2.010 . S
O195 C187 1.249 . S
Mg196 O197 2.028 . S
Mg196 O203 1.986 . S
Mg196 O205 2.114 . S
Mg196 O206 2.251 . S
Mg196 O209 2.010 . S
O197 Mg196 2.028 . S
O197 C200 1.250 . S
O198 Mg199 2.028 . S
O198 C200 1.248 . S
Mg199 O198 2.028 . S
Mg199 O204 2.032 . S
Mg199 O206 2.079 . S
C200 O197 1.250 . S
C200 O198 1.248 . S
C201 O202 1.264 . S
C201 O209 1.249 . S
O202 C201 1.264 . S
O203 Mg196 1.986 . S
O203 C207 1.246 . S
O204 Mg199 2.032 . S
O204 C207 1.259 . S
O205 Mg196 2.114 . S
O205 C208 1.252 . S
O206 Mg196 2.251 . S
O206 Mg199 2.079 . S
O206 C208 1.273 . S
C207 O203 1.246 . S
C207 O204 1.259 . S
C208 O205 1.252 . S
C208 O206 1.273 . S
O209 Mg196 2.010 . S
O209 C201 1.249 . S
Mg210 O211 2.028 . S
Mg210 O217 1.986 . S
Mg210 O219 2.114 . S
Mg210 O220 2.251 . S
Mg210 O223 2.010 . S
O211 Mg210 2.028 . S
O211 C214 1.250 . S
O212 Mg213 2.028 . S
O212 C214 1.248 . S
Mg213 O212 2.028 . S
Mg213 O218 2.032 . S
Mg213 O220 2.079 . S
C214 O211 1.250 . S
C214 O212 1.248 . S
C215 O216 1.264 . S
C215 O223 1.249 . S
O216 C215 1.264 . S
O217 Mg210 1.986 . S
O217 C221 1.246 . S
O218 Mg213 2.032 . S
O218 C221 1.259 . S
O219 Mg210 2.114 . S
O219 C222 1.252 . S
O220 Mg210 2.251 . S
O220 Mg213 2.079 . S
O220 C222 1.273 . S
C221 O217 1.246 . S
C221 O218 1.259 . S
C222 O219 1.252 . S
C222 O220 1.273 . S
O223 Mg210 2.010 . S
O223 C215 1.249 . S
Mg224 O225 2.028 . S
Mg224 O231 1.986 . S
Mg224 O233 2.114 . S
Mg224 O234 2.251 . S
Mg224 O237 2.010 . S
O225 Mg224 2.028 . S
O225 C228 1.250 . S
O226 Mg227 2.028 . S
O226 C228 1.248 . S
Mg227 O226 2.028 . S
Mg227 O232 2.032 . S
Mg227 O234 2.079 . S
C228 O225 1.250 . S
C228 O226 1.248 . S
C229 O230 1.264 . S
C229 O237 1.249 . S
O230 C229 1.264 . S
O231 Mg224 1.986 . S
O231 C235 1.246 . S
O232 Mg227 2.032 . S
O232 C235 1.259 . S
O233 Mg224 2.114 . S
O233 C236 1.252 . S
O234 Mg224 2.251 . S
O234 Mg227 2.079 . S
O234 C236 1.273 . S
C235 O231 1.246 . S
C235 O232 1.259 . S
C236 O233 1.252 . S
C236 O234 1.273 . S
O237 Mg224 2.010 . S
O237 C229 1.249 . S
Mg238 O239 2.028 . S
Mg238 O245 1.986 . S
Mg238 O247 2.114 . S
Mg238 O248 2.251 . S
Mg238 O251 2.010 . S
O239 Mg238 2.028 . S
O239 C242 1.250 . S
O240 Mg241 2.028 . S
O240 C242 1.248 . S
Mg241 O240 2.028 . S
Mg241 O246 2.032 . S
Mg241 O248 2.079 . S
C242 O239 1.250 . S
C242 O240 1.248 . S
C243 O244 1.264 . S
C243 O251 1.249 . S
O244 C243 1.264 . S
O245 Mg238 1.986 . S
O245 C249 1.246 . S
O246 Mg241 2.032 . S
O246 C249 1.259 . S
O247 Mg238 2.114 . S
O247 C250 1.252 . S
O248 Mg238 2.251 . S
O248 Mg241 2.079 . S
O248 C250 1.273 . S
C249 O245 1.246 . S
C249 O246 1.259 . S
C250 O247 1.252 . S
C250 O248 1.273 . S
O251 Mg238 2.010 . S
O251 C243 1.249 . S
Mg252 O253 2.028 . S
Mg252 O259 1.986 . S
Mg252 O261 2.114 . S
Mg252 O262 2.251 . S
Mg252 O265 2.010 . S
O253 Mg252 2.028 . S
O253 C256 1.250 . S
O254 Mg255 2.028 . S
O254 C256 1.248 . S
Mg255 O254 2.028 . S
Mg255 O260 2.032 . S
Mg255 O262 2.079 . S
C256 O253 1.250 . S
C256 O254 1.248 . S
C257 O258 1.264 . S
C257 O265 1.249 . S
O258 C257 1.264 . S
O259 Mg252 1.986 . S
O259 C263 1.246 . S
O260 Mg255 2.032 . S
O260 C263 1.259 . S
O261 Mg252 2.114 . S
O261 C264 1.252 . S
O262 Mg252 2.251 . S
O262 Mg255 2.079 . S
O262 C264 1.273 . S
C263 O259 1.246 . S
C263 O260 1.259 . S
C264 O261 1.252 . S
C264 O262 1.273 . S
O265 Mg252 2.010 . S
O265 C257 1.249 . S
Mg266 O267 2.028 . S
Mg266 O273 1.986 . S
Mg266 O275 2.114 . S
Mg266 O276 2.251 . S
Mg266 O279 2.010 . S
O267 Mg266 2.028 . S
O267 C270 1.250 . S
O268 Mg269 2.028 . S
O268 C270 1.248 . S
Mg269 O268 2.028 . S
Mg269 O274 2.032 . S
Mg269 O276 2.079 . S
C270 O267 1.250 . S
C270 O268 1.248 . S
C271 O272 1.264 . S
C271 O279 1.249 . S
O272 C271 1.264 . S
O273 Mg266 1.986 . S
O273 C277 1.246 . S
O274 Mg269 2.032 . S
O274 C277 1.259 . S
O275 Mg266 2.114 . S
O275 C278 1.252 . S
O276 Mg266 2.251 . S
O276 Mg269 2.079 . S
O276 C278 1.273 . S
C277 O273 1.246 . S
C277 O274 1.259 . S
C278 O275 1.252 . S
C278 O276 1.273 . S
O279 Mg266 2.010 . S
O279 C271 1.249 . S
Mg280 O281 2.028 . S
Mg280 O287 1.986 . S
Mg280 O289 2.114 . S
Mg280 O290 2.251 . S
Mg280 O293 2.010 . S
O281 Mg280 2.028 . S
O281 C284 1.250 . S
O282 Mg283 2.028 . S
O282 C284 1.248 . S
Mg283 O282 2.028 . S
Mg283 O288 2.032 . S
Mg283 O290 2.079 . S
C284 O281 1.250 . S
C284 O282 1.248 . S
C285 O286 1.264 . S
C285 O293 1.249 . S
O286 C285 1.264 . S
O287 Mg280 1.986 . S
O287 C291 1.246 . S
O288 Mg283 2.032 . S
O288 C291 1.259 . S
O289 Mg280 2.114 . S
O289 C292 1.252 . S
O290 Mg280 2.251 . S
O290 Mg283 2.079 . S
O290 C292 1.273 . S
C291 O287 1.246 . S
C291 O288 1.259 . S
C292 O289 1.252 . S
C292 O290 1.273 . S
O293 Mg280 2.010 . S
O293 C285 1.249 . S
Mg294 O295 2.028 . S
Mg294 O301 1.986 . S
Mg294 O303 2.114 . S
Mg294 O304 2.251 . S
Mg294 O307 2.010 . S
O295 Mg294 2.028 . S
O295 C298 1.250 . S
O296 Mg297 2.028 . S
O296 C298 1.248 . S
Mg297 O296 2.028 . S
Mg297 O302 2.032 . S
Mg297 O304 2.079 . S
C298 O295 1.250 . S
C298 O296 1.248 . S
C299 O300 1.264 . S
C299 O307 1.249 . S
O300 C299 1.264 . S
O301 Mg294 1.986 . S
O301 C305 1.246 . S
O302 Mg297 2.032 . S
O302 C305 1.259 . S
O303 Mg294 2.114 . S
O303 C306 1.252 . S
O304 Mg294 2.251 . S
O304 Mg297 2.079 . S
O304 C306 1.273 . S
C305 O301 1.246 . S
C305 O302 1.259 . S
C306 O303 1.252 . S
C306 O304 1.273 . S
O307 Mg294 2.010 . S
O307 C299 1.249 . S
Mg308 O309 2.028 . S
Mg308 O315 1.986 . S
Mg308 O317 2.114 . S
Mg308 O318 2.251 . S
Mg308 O321 2.010 . S
O309 Mg308 2.028 . S
O309 C312 1.250 . S
O310 Mg311 2.028 . S
O310 C312 1.248 . S
Mg311 O310 2.028 . S
Mg311 O316 2.032 . S
Mg311 O318 2.079 . S
C312 O309 1.250 . S
C312 O310 1.248 . S
C313 O314 1.264 . S
C313 O321 1.249 . S
O314 C313 1.264 . S
O315 Mg308 1.986 . S
O315 C319 1.246 . S
O316 Mg311 2.032 . S
O316 C319 1.259 . S
O317 Mg308 2.114 . S
O317 C320 1.252 . S
O318 Mg308 2.251 . S
O318 Mg311 2.079 . S
O318 C320 1.273 . S
C319 O315 1.246 . S
C319 O316 1.259 . S
C320 O317 1.252 . S
C320 O318 1.273 . S
O321 Mg308 2.010 . S
O321 C313 1.249 . S
Mg322 O323 2.028 . S
Mg322 O329 1.986 . S
Mg322 O331 2.114 . S
Mg322 O332 2.251 . S
Mg322 O335 2.010 . S
O323 Mg322 2.028 . S
O323 C326 1.250 . S
O324 Mg325 2.028 . S
O324 C326 1.248 . S
Mg325 O324 2.028 . S
Mg325 O330 2.032 . S
Mg325 O332 2.079 . S
C326 O323 1.250 . S
C326 O324 1.248 . S
C327 O328 1.264 . S
C327 O335 1.249 . S
O328 C327 1.264 . S
O329 Mg322 1.986 . S
O329 C333 1.246 . S
O330 Mg325 2.032 . S
O330 C333 1.259 . S
O331 Mg322 2.114 . S
O331 C334 1.252 . S
O332 Mg322 2.251 . S
O332 Mg325 2.079 . S
O332 C334 1.273 . S
C333 O329 1.246 . S
C333 O330 1.259 . S
C334 O331 1.252 . S
C334 O332 1.273 . S
O335 Mg322 2.010 . S
O335 C327 1.249 . S
Mg336 O337 2.028 . S
Mg336 O343 1.986 . S
Mg336 O345 2.114 . S
Mg336 O346 2.251 . S
Mg336 O349 2.010 . S
O337 Mg336 2.028 . S
O337 C340 1.250 . S
O338 Mg339 2.028 . S
O338 C340 1.248 . S
Mg339 O338 2.028 . S
Mg339 O344 2.032 . S
Mg339 O346 2.079 . S
C340 O337 1.250 . S
C340 O338 1.248 . S
C341 O342 1.264 . S
C341 O349 1.249 . S
O342 C341 1.264 . S
O343 Mg336 1.986 . S
O343 C347 1.246 . S
O344 Mg339 2.032 . S
O344 C347 1.259 . S
O345 Mg336 2.114 . S
O345 C348 1.252 . S
O346 Mg336 2.251 . S
O346 Mg339 2.079 . S
O346 C348 1.273 . S
C347 O343 1.246 . S
C347 O344 1.259 . S
C348 O345 1.252 . S
C348 O346 1.273 . S
O349 Mg336 2.010 . S
O349 C341 1.249 . S
Mg350 O351 2.028 . S
Mg350 O357 1.986 . S
Mg350 O359 2.114 . S
Mg350 O360 2.251 . S
Mg350 O363 2.010 . S
O351 Mg350 2.028 . S
O351 C354 1.250 . S
O352 Mg353 2.028 . S
O352 C354 1.248 . S
Mg353 O352 2.028 . S
Mg353 O358 2.032 . S
Mg353 O360 2.079 . S
C354 O351 1.250 . S
C354 O352 1.248 . S
C355 O356 1.264 . S
C355 O363 1.249 . S
O356 C355 1.264 . S
O357 Mg350 1.986 . S
O357 C361 1.246 . S
O358 Mg353 2.032 . S
O358 C361 1.259 . S
O359 Mg350 2.114 . S
O359 C362 1.252 . S
O360 Mg350 2.251 . S
O360 Mg353 2.079 . S
O360 C362 1.273 . S
C361 O357 1.246 . S
C361 O358 1.259 . S
C362 O359 1.252 . S
C362 O360 1.273 . S
O363 Mg350 2.010 . S
O363 C355 1.249 . S
Mg364 O365 2.028 . S
Mg364 O371 1.986 . S
Mg364 O373 2.114 . S
Mg364 O374 2.251 . S
Mg364 O377 2.010 . S
O365 Mg364 2.028 . S
O365 C368 1.250 . S
O366 Mg367 2.028 . S
O366 C368 1.248 . S
Mg367 O366 2.028 . S
Mg367 O372 2.032 . S
Mg367 O374 2.079 . S
C368 O365 1.250 . S
C368 O366 1.248 . S
C369 O370 1.264 . S
C369 O377 1.249 . S
O370 C369 1.264 . S
O371 Mg364 1.986 . S
O371 C375 1.246 . S
O372 Mg367 2.032 . S
O372 C375 1.259 . S
O373 Mg364 2.114 . S
O373 C376 1.252 . S
O374 Mg364 2.251 . S
O374 Mg367 2.079 . S
O374 C376 1.273 . S
C375 O371 1.246 . S
C375 O372 1.259 . S
C376 O373 1.252 . S
C376 O374 1.273 . S
O377 Mg364 2.010 . S
O377 C369 1.249 . S
Mg378 O379 2.028 . S
Mg378 O385 1.986 . S
Mg378 O387 2.114 . S
Mg378 O388 2.251 . S
Mg378 O391 2.010 . S
O379 Mg378 2.028 . S
O379 C382 1.250 . S
O380 Mg381 2.028 . S
O380 C382 1.248 . S
Mg381 O380 2.028 . S
Mg381 O386 2.032 . S
Mg381 O388 2.079 . S
C382 O379 1.250 . S
C382 O380 1.248 . S
C383 O384 1.264 . S
C383 O391 1.249 . S
O384 C383 1.264 . S
O385 Mg378 1.986 . S
O385 C389 1.246 . S
O386 Mg381 2.032 . S
O386 C389 1.259 . S
O387 Mg378 2.114 . S
O387 C390 1.252 . S
O388 Mg378 2.251 . S
O388 Mg381 2.079 . S
O388 C390 1.273 . S
C389 O385 1.246 . S
C389 O386 1.259 . S
C390 O387 1.252 . S
C390 O388 1.273 . S
O391 Mg378 2.010 . S
O391 C383 1.249 . S
Mg392 O393 2.028 . S
Mg392 O399 1.986 . S
Mg392 O401 2.114 . S
Mg392 O402 2.251 . S
Mg392 O405 2.010 . S
O393 Mg392 2.028 . S
O393 C396 1.250 . S
O394 Mg395 2.028 . S
O394 C396 1.248 . S
Mg395 O394 2.028 . S
Mg395 O400 2.032 . S
Mg395 O402 2.079 . S
C396 O393 1.250 . S
C396 O394 1.248 . S
C397 O398 1.264 . S
C397 O405 1.249 . S
O398 C397 1.264 . S
O399 Mg392 1.986 . S
O399 C403 1.246 . S
O400 Mg395 2.032 . S
O400 C403 1.259 . S
O401 Mg392 2.114 . S
O401 C404 1.252 . S
O402 Mg392 2.251 . S
O402 Mg395 2.079 . S
O402 C404 1.273 . S
C403 O399 1.246 . S
C403 O400 1.259 . S
C404 O401 1.252 . S
C404 O402 1.273 . S
O405 Mg392 2.010 . S
O405 C397 1.249 . S
Mg406 O407 2.028 . S
Mg406 O413 1.986 . S
Mg406 O415 2.114 . S
Mg406 O416 2.251 . S
Mg406 O419 2.010 . S
O407 Mg406 2.028 . S
O407 C410 1.250 . S
O408 Mg409 2.028 . S
O408 C410 1.248 . S
Mg409 O408 2.028 . S
Mg409 O414 2.032 . S
Mg409 O416 2.079 . S
C410 O407 1.250 . S
C410 O408 1.248 . S
C411 O412 1.264 . S
C411 O419 1.249 . S
O412 C411 1.264 . S
O413 Mg406 1.986 . S
O413 C417 1.246 . S
O414 Mg409 2.032 . S
O414 C417 1.259 . S
O415 Mg406 2.114 . S
O415 C418 1.252 . S
O416 Mg406 2.251 . S
O416 Mg409 2.079 . S
O416 C418 1.273 . S
C417 O413 1.246 . S
C417 O414 1.259 . S
C418 O415 1.252 . S
C418 O416 1.273 . S
O419 Mg406 2.010 . S
O419 C411 1.249 . S
Mg420 O421 2.028 . S
Mg420 O427 1.986 . S
Mg420 O429 2.114 . S
Mg420 O430 2.251 . S
Mg420 O433 2.010 . S
O421 Mg420 2.028 . S
O421 C424 1.250 . S
O422 Mg423 2.028 . S
O422 C424 1.248 . S
Mg423 O422 2.028 . S
Mg423 O428 2.032 . S
Mg423 O430 2.079 . S
C424 O421 1.250 . S
C424 O422 1.248 . S
C425 O426 1.264 . S
C425 O433 1.249 . S
O426 C425 1.264 . S
O427 Mg420 1.986 . S
O427 C431 1.246 . S
O428 Mg423 2.032 . S
O428 C431 1.259 . S
O429 Mg420 2.114 . S
O429 C432 1.252 . S
O430 Mg420 2.251 . S
O430 Mg423 2.079 . S
O430 C432 1.273 . S
C431 O427 1.246 . S
C431 O428 1.259 . S
C432 O429 1.252 . S
C432 O430 1.273 . S
O433 Mg420 2.010 . S
O433 C425 1.249 . S
Mg434 O435 2.028 . S
Mg434 O441 1.986 . S
Mg434 O443 2.114 . S
Mg434 O444 2.251 . S
Mg434 O447 2.010 . S
O435 Mg434 2.028 . S
O435 C438 1.250 . S
O436 Mg437 2.028 . S
O436 C438 1.248 . S
Mg437 O436 2.028 . S
Mg437 O442 2.032 . S
Mg437 O444 2.079 . S
C438 O435 1.250 . S
C438 O436 1.248 . S
C439 O440 1.264 . S
C439 O447 1.249 . S
O440 C439 1.264 . S
O441 Mg434 1.986 . S
O441 C445 1.246 . S
O442 Mg437 2.032 . S
O442 C445 1.259 . S
O443 Mg434 2.114 . S
O443 C446 1.252 . S
O444 Mg434 2.251 . S
O444 Mg437 2.079 . S
O444 C446 1.273 . S
C445 O441 1.246 . S
C445 O442 1.259 . S
C446 O443 1.252 . S
C446 O444 1.273 . S
O447 Mg434 2.010 . S
O447 C439 1.249 . S
Mg448 O449 2.028 . S
Mg448 O455 1.986 . S
Mg448 O457 2.114 . S
Mg448 O458 2.251 . S
Mg448 O461 2.010 . S
O449 Mg448 2.028 . S
O449 C452 1.250 . S
O450 Mg451 2.028 . S
O450 C452 1.248 . S
Mg451 O450 2.028 . S
Mg451 O456 2.032 . S
Mg451 O458 2.079 . S
C452 O449 1.250 . S
C452 O450 1.248 . S
C453 O454 1.264 . S
C453 O461 1.249 . S
O454 C453 1.264 . S
O455 Mg448 1.986 . S
O455 C459 1.246 . S
O456 Mg451 2.032 . S
O456 C459 1.259 . S
O457 Mg448 2.114 . S
O457 C460 1.252 . S
O458 Mg448 2.251 . S
O458 Mg451 2.079 . S
O458 C460 1.273 . S
C459 O455 1.246 . S
C459 O456 1.259 . S
C460 O457 1.252 . S
C460 O458 1.273 . S
O461 Mg448 2.010 . S
O461 C453 1.249 . S
Mg462 O463 2.028 . S
Mg462 O469 1.986 . S
Mg462 O471 2.114 . S
Mg462 O472 2.251 . S
Mg462 O475 2.010 . S
O463 Mg462 2.028 . S
O463 C466 1.250 . S
O464 Mg465 2.028 . S
O464 C466 1.248 . S
Mg465 O464 2.028 . S
Mg465 O470 2.032 . S
Mg465 O472 2.079 . S
C466 O463 1.250 . S
C466 O464 1.248 . S
C467 O468 1.264 . S
C467 O475 1.249 . S
O468 C467 1.264 . S
O469 Mg462 1.986 . S
O469 C473 1.246 . S
O470 Mg465 2.032 . S
O470 C473 1.259 . S
O471 Mg462 2.114 . S
O471 C474 1.252 . S
O472 Mg462 2.251 . S
O472 Mg465 2.079 . S
O472 C474 1.273 . S
C473 O469 1.246 . S
C473 O470 1.259 . S
C474 O471 1.252 . S
C474 O472 1.273 . S
O475 Mg462 2.010 . S
O475 C467 1.249 . S
Mg476 O477 2.028 . S
Mg476 O483 1.986 . S
Mg476 O485 2.114 . S
Mg476 O486 2.251 . S
Mg476 O489 2.010 . S
O477 Mg476 2.028 . S
O477 C480 1.250 . S
O478 Mg479 2.028 . S
O478 C480 1.248 . S
Mg479 O478 2.028 . S
Mg479 O484 2.032 . S
Mg479 O486 2.079 . S
C480 O477 1.250 . S
C480 O478 1.248 . S
C481 O482 1.264 . S
C481 O489 1.249 . S
O482 C481 1.264 . S
O483 Mg476 1.986 . S
O483 C487 1.246 . S
O484 Mg479 2.032 . S
O484 C487 1.259 . S
O485 Mg476 2.114 . S
O485 C488 1.252 . S
O486 Mg476 2.251 . S
O486 Mg479 2.079 . S
O486 C488 1.273 . S
C487 O483 1.246 . S
C487 O484 1.259 . S
C488 O485 1.252 . S
C488 O486 1.273 . S
O489 Mg476 2.010 . S
O489 C481 1.249 . S
Mg490 O491 2.028 . S
Mg490 O497 1.986 . S
Mg490 O499 2.114 . S
Mg490 O500 2.251 . S
Mg490 O503 2.010 . S
O491 Mg490 2.028 . S
O491 C494 1.250 . S
O492 Mg493 2.028 . S
O492 C494 1.248 . S
Mg493 O492 2.028 . S
Mg493 O498 2.032 . S
Mg493 O500 2.079 . S
C494 O491 1.250 . S
C494 O492 1.248 . S
C495 O496 1.264 . S
C495 O503 1.249 . S
O496 C495 1.264 . S
O497 Mg490 1.986 . S
O497 C501 1.246 . S
O498 Mg493 2.032 . S
O498 C501 1.259 . S
O499 Mg490 2.114 . S
O499 C502 1.252 . S
O500 Mg490 2.251 . S
O500 Mg493 2.079 . S
O500 C502 1.273 . S
C501 O497 1.246 . S
C501 O498 1.259 . S
C502 O499 1.252 . S
C502 O500 1.273 . S
O503 Mg490 2.010 . S
O503 C495 1.249 . S
H504 C510 0.930 . S
H505 C513 0.930 . S
H506 C514 0.930 . S
H507 C515 0.930 . S
H508 C518 0.930 . S
H509 C519 0.930 . S
C510 H504 0.930 . S
C510 C511 1.355 . S
C510 C512 1.415 . S
C511 C510 1.355 . S
C511 C513 1.419 . S
C512 C510 1.415 . S
C512 C517 1.425 . S
C512 C519 1.409 . S
C513 H505 0.930 . S
C513 C511 1.419 . S
C513 C514 1.362 . S
C514 H506 0.930 . S
C514 C513 1.362 . S
C514 C517 1.409 . S
C515 H507 0.930 . S
C515 C516 1.355 . S
C515 C517 1.415 . S
C516 C515 1.355 . S
C516 C518 1.419 . S
C517 C512 1.425 . S
C517 C514 1.409 . S
C517 C515 1.415 . S
C518 H508 0.930 . S
C518 C516 1.419 . S
C518 C519 1.362 . S
C519 H509 0.930 . S
C519 C512 1.409 . S
C519 C518 1.362 . S
H520 C526 0.930 . S
H521 C529 0.930 . S
H522 C530 0.930 . S
H523 C531 0.930 . S
H524 C534 0.930 . S
H525 C535 0.930 . S
C526 H520 0.930 . S
C526 C527 1.355 . S
C526 C528 1.415 . S
C527 C526 1.355 . S
C527 C529 1.419 . S
C528 C526 1.415 . S
C528 C533 1.425 . S
C528 C535 1.409 . S
C529 H521 0.930 . S
C529 C527 1.419 . S
C529 C530 1.362 . S
C530 H522 0.930 . S
C530 C529 1.362 . S
C530 C533 1.409 . S
C531 H523 0.930 . S
C531 C532 1.355 . S
C531 C533 1.415 . S
C532 C531 1.355 . S
C532 C534 1.419 . S
C533 C528 1.425 . S
C533 C530 1.409 . S
C533 C531 1.415 . S
C534 H524 0.930 . S
C534 C532 1.419 . S
C534 C535 1.362 . S
C535 H525 0.930 . S
C535 C528 1.409 . S
C535 C534 1.362 . S
H536 C542 0.930 . S
H537 C545 0.930 1_556 S
H538 C546 0.930 . S
H539 C547 0.930 1_556 S
H540 C550 0.930 . S
H541 C551 0.930 . S
C542 H536 0.930 . S
C542 C543 1.355 . S
C542 C544 1.415 . S
C543 C542 1.355 . S
C543 C545 1.419 . S
C544 C542 1.415 . S
C544 C549 1.425 . S
C544 C551 1.409 . S
C545 H537 0.930 1_554 S
C545 C543 1.419 . S
C545 C546 1.362 1_554 S
C546 H538 0.930 . S
C546 C545 1.362 1_556 S
C546 C549 1.409 1_556 S
C547 H539 0.930 1_554 S
C547 C548 1.355 . S
C547 C549 1.415 . S
C548 C547 1.355 . S
C548 C550 1.419 . S
C549 C544 1.425 . S
C549 C546 1.409 1_554 S
C549 C547 1.415 . S
C550 H540 0.930 . S
C550 C548 1.419 . S
C550 C551 1.362 . S
C551 H541 0.930 . S
C551 C544 1.409 . S
C551 C550 1.362 . S
H552 C558 0.930 . S
H553 C561 0.930 1_554 S
H554 C562 0.930 . S
H555 C563 0.930 1_554 S
H556 C566 0.930 . S
H557 C567 0.930 . S
C558 H552 0.930 . S
C558 C559 1.355 . S
C558 C560 1.415 . S
C559 C558 1.355 . S
C559 C561 1.419 . S
C560 C558 1.415 . S
C560 C565 1.425 . S
C560 C567 1.409 . S
C561 H553 0.930 1_556 S
C561 C559 1.419 . S
C561 C562 1.362 1_556 S
C562 H554 0.930 . S
C562 C561 1.362 1_554 S
C562 C565 1.409 1_554 S
C563 H555 0.930 1_556 S
C563 C564 1.355 . S
C563 C565 1.415 . S
C564 C563 1.355 . S
C564 C566 1.419 . S
C565 C560 1.425 . S
C565 C562 1.409 1_556 S
C565 C563 1.415 . S
C566 H556 0.930 . S
C566 C564 1.419 . S
C566 C567 1.362 . S
C567 H557 0.930 . S
C567 C560 1.409 . S
C567 C566 1.362 . S
H568 C574 0.930 . S
H569 C577 0.930 . S
H570 C578 0.930 . S
H571 C579 0.930 . S
H572 C582 0.930 . S
H573 C583 0.930 . S
C574 H568 0.930 . S
C574 C575 1.355 . S
C574 C576 1.415 . S
C575 C574 1.355 . S
C575 C577 1.419 . S
C576 C574 1.415 . S
C576 C581 1.425 . S
C576 C583 1.409 . S
C577 H569 0.930 . S
C577 C575 1.419 . S
C577 C578 1.362 . S
C578 H570 0.930 . S
C578 C577 1.362 . S
C578 C581 1.409 . S
C579 H571 0.930 . S
C579 C580 1.355 . S
C579 C581 1.415 . S
C580 C579 1.355 . S
C580 C582 1.419 . S
C581 C576 1.425 . S
C581 C578 1.409 . S
C581 C579 1.415 . S
C582 H572 0.930 . S
C582 C580 1.419 . S
C582 C583 1.362 . S
C583 H573 0.930 . S
C583 C576 1.409 . S
C583 C582 1.362 . S
H584 C590 0.930 1_554 S
H585 C593 0.930 . S
H586 C594 0.930 . S
H587 C595 0.930 . S
H588 C598 0.930 . S
H589 C599 0.930 . S
C590 H584 0.930 1_556 S
C590 C591 1.355 . S
C590 C592 1.415 . S
C591 C590 1.355 . S
C591 C593 1.419 . S
C592 C590 1.415 . S
C592 C597 1.425 . S
C592 C599 1.409 1_556 S
C593 H585 0.930 . S
C593 C591 1.419 . S
C593 C594 1.362 . S
C594 H586 0.930 . S
C594 C593 1.362 . S
C594 C597 1.409 . S
C595 H587 0.930 . S
C595 C596 1.355 . S
C595 C597 1.415 . S
C596 C595 1.355 . S
C596 C598 1.419 1_556 S
C597 C592 1.425 . S
C597 C594 1.409 . S
C597 C595 1.415 . S
C598 H588 0.930 . S
C598 C596 1.419 1_554 S
C598 C599 1.362 . S
C599 H589 0.930 . S
C599 C592 1.409 1_554 S
C599 C598 1.362 . S
H600 C606 0.930 . S
H601 C609 0.930 . S
H602 C610 0.930 . S
H603 C611 0.930 . S
H604 C614 0.930 . S
H605 C615 0.930 . S
C606 H600 0.930 . S
C606 C607 1.355 . S
C606 C608 1.415 . S
C607 C606 1.355 . S
C607 C609 1.419 . S
C608 C606 1.415 . S
C608 C613 1.425 . S
C608 C615 1.409 . S
C609 H601 0.930 . S
C609 C607 1.419 . S
C609 C610 1.362 . S
C610 H602 0.930 . S
C610 C609 1.362 . S
C610 C613 1.409 . S
C611 H603 0.930 . S
C611 C612 1.355 . S
C611 C613 1.415 . S
C612 C611 1.355 . S
C612 C614 1.419 . S
C613 C608 1.425 . S
C613 C610 1.409 . S
C613 C611 1.415 . S
C614 H604 0.930 . S
C614 C612 1.419 . S
C614 C615 1.362 . S
C615 H605 0.930 . S
C615 C608 1.409 . S
C615 C614 1.362 . S
H616 C622 0.930 . S
H617 C625 0.930 . S
H618 C626 0.930 . S
H619 C627 0.930 . S
H620 C630 0.930 . S
H621 C631 0.930 . S
C622 H616 0.930 . S
C622 C623 1.355 . S
C622 C624 1.415 . S
C623 C622 1.355 . S
C623 C625 1.419 . S
C624 C622 1.415 . S
C624 C629 1.425 . S
C624 C631 1.409 . S
C625 H617 0.930 . S
C625 C623 1.419 . S
C625 C626 1.362 . S
C626 H618 0.930 . S
C626 C625 1.362 . S
C626 C629 1.409 . S
C627 H619 0.930 . S
C627 C628 1.355 . S
C627 C629 1.415 . S
C628 C627 1.355 . S
C628 C630 1.419 . S
C629 C624 1.425 . S
C629 C626 1.409 . S
C629 C627 1.415 . S
C630 H620 0.930 . S
C630 C628 1.419 . S
C630 C631 1.362 . S
C631 H621 0.930 . S
C631 C624 1.409 . S
C631 C630 1.362 . S
H632 C638 0.930 . S
H633 C641 0.930 . S
H634 C642 0.930 . S
H635 C643 0.930 . S
H636 C646 0.930 . S
H637 C647 0.930 . S
C638 H632 0.930 . S
C638 C639 1.355 . S
C638 C640 1.415 . S
C639 C638 1.355 . S
C639 C641 1.419 . S
C640 C638 1.415 . S
C640 C645 1.425 . S
C640 C647 1.409 . S
C641 H633 0.930 . S
C641 C639 1.419 . S
C641 C642 1.362 . S
C642 H634 0.930 . S
C642 C641 1.362 . S
C642 C645 1.409 . S
C643 H635 0.930 . S
C643 C644 1.355 . S
C643 C645 1.415 . S
C644 C643 1.355 . S
C644 C646 1.419 . S
C645 C640 1.425 . S
C645 C642 1.409 . S
C645 C643 1.415 . S
C646 H636 0.930 . S
C646 C644 1.419 . S
C646 C647 1.362 . S
C647 H637 0.930 . S
C647 C640 1.409 . S
C647 C646 1.362 . S
H648 C654 0.930 . S
H649 C657 0.930 . S
H650 C658 0.930 . S
H651 C659 0.930 . S
H652 C662 0.930 . S
H653 C663 0.930 . S
C654 H648 0.930 . S
C654 C655 1.355 . S
C654 C656 1.415 . S
C655 C654 1.355 . S
C655 C657 1.419 . S
C656 C654 1.415 . S
C656 C661 1.425 . S
C656 C663 1.409 . S
C657 H649 0.930 . S
C657 C655 1.419 . S
C657 C658 1.362 . S
C658 H650 0.930 . S
C658 C657 1.362 . S
C658 C661 1.409 . S
C659 H651 0.930 . S
C659 C660 1.355 . S
C659 C661 1.415 . S
C660 C659 1.355 . S
C660 C662 1.419 . S
C661 C656 1.425 . S
C661 C658 1.409 . S
C661 C659 1.415 . S
C662 H652 0.930 . S
C662 C660 1.419 . S
C662 C663 1.362 . S
C663 H653 0.930 . S
C663 C656 1.409 . S
C663 C662 1.362 . S
H664 C670 0.930 . S
H665 C673 0.930 . S
H666 C674 0.930 . S
H667 C675 0.930 . S
H668 C678 0.930 . S
H669 C679 0.930 . S
C670 H664 0.930 . S
C670 C671 1.355 . S
C670 C672 1.415 . S
C671 C670 1.355 . S
C671 C673 1.419 . S
C672 C670 1.415 . S
C672 C677 1.425 . S
C672 C679 1.409 . S
C673 H665 0.930 . S
C673 C671 1.419 . S
C673 C674 1.362 . S
C674 H666 0.930 . S
C674 C673 1.362 . S
C674 C677 1.409 . S
C675 H667 0.930 . S
C675 C676 1.355 . S
C675 C677 1.415 . S
C676 C675 1.355 . S
C676 C678 1.419 . S
C677 C672 1.425 . S
C677 C674 1.409 . S
C677 C675 1.415 . S
C678 H668 0.930 . S
C678 C676 1.419 . S
C678 C679 1.362 . S
C679 H669 0.930 . S
C679 C672 1.409 . S
C679 C678 1.362 . S
H680 C686 0.930 . S
H681 C689 0.930 . S
H682 C690 0.930 . S
H683 C691 0.930 . S
H684 C694 0.930 . S
H685 C695 0.930 . S
C686 H680 0.930 . S
C686 C687 1.355 . S
C686 C688 1.415 . S
C687 C686 1.355 . S
C687 C689 1.419 . S
C688 C686 1.415 . S
C688 C693 1.425 . S
C688 C695 1.409 . S
C689 H681 0.930 . S
C689 C687 1.419 . S
C689 C690 1.362 . S
C690 H682 0.930 . S
C690 C689 1.362 . S
C690 C693 1.409 . S
C691 H683 0.930 . S
C691 C692 1.355 . S
C691 C693 1.415 . S
C692 C691 1.355 . S
C692 C694 1.419 . S
C693 C688 1.425 . S
C693 C690 1.409 . S
C693 C691 1.415 . S
C694 H684 0.930 . S
C694 C692 1.419 . S
C694 C695 1.362 . S
C695 H685 0.930 . S
C695 C688 1.409 . S
C695 C694 1.362 . S
H696 C702 0.930 . S
H697 C705 0.930 . S
H698 C706 0.930 . S
H699 C707 0.930 . S
H700 C710 0.930 . S
H701 C711 0.930 . S
C702 H696 0.930 . S
C702 C703 1.355 . S
C702 C704 1.415 . S
C703 C702 1.355 . S
C703 C705 1.419 . S
C704 C702 1.415 . S
C704 C709 1.425 . S
C704 C711 1.409 . S
C705 H697 0.930 . S
C705 C703 1.419 . S
C705 C706 1.362 . S
C706 H698 0.930 . S
C706 C705 1.362 . S
C706 C709 1.409 . S
C707 H699 0.930 . S
C707 C708 1.355 . S
C707 C709 1.415 . S
C708 C707 1.355 . S
C708 C710 1.419 . S
C709 C704 1.425 . S
C709 C706 1.409 . S
C709 C707 1.415 . S
C710 H700 0.930 . S
C710 C708 1.419 . S
C710 C711 1.362 . S
C711 H701 0.930 . S
C711 C704 1.409 . S
C711 C710 1.362 . S
H712 C718 0.930 . S
H713 C721 0.930 . S
H714 C722 0.930 . S
H715 C723 0.930 . S
H716 C726 0.930 . S
H717 C727 0.930 . S
C718 H712 0.930 . S
C718 C719 1.355 . S
C718 C720 1.415 . S
C719 C718 1.355 . S
C719 C721 1.419 . S
C720 C718 1.415 . S
C720 C725 1.425 . S
C720 C727 1.409 . S
C721 H713 0.930 . S
C721 C719 1.419 . S
C721 C722 1.362 . S
C722 H714 0.930 . S
C722 C721 1.362 . S
C722 C725 1.409 . S
C723 H715 0.930 . S
C723 C724 1.355 . S
C723 C725 1.415 . S
C724 C723 1.355 . S
C724 C726 1.419 . S
C725 C720 1.425 . S
C725 C722 1.409 . S
C725 C723 1.415 . S
C726 H716 0.930 . S
C726 C724 1.419 . S
C726 C727 1.362 . S
C727 H717 0.930 . S
C727 C720 1.409 . S
C727 C726 1.362 . S
H728 C734 0.930 . S
H729 C737 0.930 . S
H730 C738 0.930 . S
H731 C739 0.930 . S
H732 C742 0.930 . S
H733 C743 0.930 . S
C734 H728 0.930 . S
C734 C735 1.355 . S
C734 C736 1.415 . S
C735 C734 1.355 . S
C735 C737 1.419 . S
C736 C734 1.415 . S
C736 C741 1.425 . S
C736 C743 1.409 . S
C737 H729 0.930 . S
C737 C735 1.419 . S
C737 C738 1.362 . S
C738 H730 0.930 . S
C738 C737 1.362 . S
C738 C741 1.409 . S
C739 H731 0.930 . S
C739 C740 1.355 . S
C739 C741 1.415 . S
C740 C739 1.355 . S
C740 C742 1.419 . S
C741 C736 1.425 . S
C741 C738 1.409 . S
C741 C739 1.415 . S
C742 H732 0.930 . S
C742 C740 1.419 . S
C742 C743 1.362 . S
C743 H733 0.930 . S
C743 C736 1.409 . S
C743 C742 1.362 . S
H744 C750 0.930 . S
H745 C753 0.930 . S
H746 C754 0.930 . S
H747 C755 0.930 . S
H748 C758 0.930 . S
H749 C759 0.930 . S
C750 H744 0.930 . S
C750 C751 1.355 . S
C750 C752 1.415 . S
C751 C750 1.355 . S
C751 C753 1.419 . S
C752 C750 1.415 . S
C752 C757 1.425 . S
C752 C759 1.409 . S
C753 H745 0.930 . S
C753 C751 1.419 . S
C753 C754 1.362 . S
C754 H746 0.930 . S
C754 C753 1.362 . S
C754 C757 1.409 . S
C755 H747 0.930 . S
C755 C756 1.355 . S
C755 C757 1.415 . S
C756 C755 1.355 . S
C756 C758 1.419 . S
C757 C752 1.425 . S
C757 C754 1.409 . S
C757 C755 1.415 . S
C758 H748 0.930 . S
C758 C756 1.419 . S
C758 C759 1.362 . S
C759 H749 0.930 . S
C759 C752 1.409 . S
C759 C758 1.362 . S
H760 C766 0.930 . S
H761 C769 0.930 . S
H762 C770 0.930 . S
H763 C771 0.930 . S
H764 C774 0.930 . S
H765 C775 0.930 . S
C766 H760 0.930 . S
C766 C767 1.355 . S
C766 C768 1.415 . S
C767 C766 1.355 . S
C767 C769 1.419 . S
C768 C766 1.415 . S
C768 C773 1.425 . S
C768 C775 1.409 . S
C769 H761 0.930 . S
C769 C767 1.419 . S
C769 C770 1.362 . S
C770 H762 0.930 . S
C770 C769 1.362 . S
C770 C773 1.409 . S
C771 H763 0.930 . S
C771 C772 1.355 . S
C771 C773 1.415 . S
C772 C771 1.355 . S
C772 C774 1.419 . S
C773 C768 1.425 . S
C773 C770 1.409 . S
C773 C771 1.415 . S
C774 H764 0.930 . S
C774 C772 1.419 . S
C774 C775 1.362 . S
C775 H765 0.930 . S
C775 C768 1.409 . S
C775 C774 1.362 . S
H776 C782 0.930 . S
H777 C785 0.930 . S
H778 C786 0.930 . S
H779 C787 0.930 . S
H780 C790 0.930 . S
H781 C791 0.930 . S
C782 H776 0.930 . S
C782 C783 1.355 . S
C782 C784 1.415 . S
C783 C782 1.355 . S
C783 C785 1.419 . S
C784 C782 1.415 . S
C784 C789 1.425 . S
C784 C791 1.409 . S
C785 H777 0.930 . S
C785 C783 1.419 . S
C785 C786 1.362 . S
C786 H778 0.930 . S
C786 C785 1.362 . S
C786 C789 1.409 . S
C787 H779 0.930 . S
C787 C788 1.355 . S
C787 C789 1.415 . S
C788 C787 1.355 . S
C788 C790 1.419 . S
C789 C784 1.425 . S
C789 C786 1.409 . S
C789 C787 1.415 . S
C790 H780 0.930 . S
C790 C788 1.419 . S
C790 C791 1.362 . S
C791 H781 0.930 . S
C791 C784 1.409 . S
C791 C790 1.362 . S
H792 C798 0.930 . S
H793 C801 0.930 . S
H794 C802 0.930 . S
H795 C803 0.930 . S
H796 C806 0.930 . S
H797 C807 0.930 . S
C798 H792 0.930 . S
C798 C799 1.355 . S
C798 C800 1.415 . S
C799 C798 1.355 . S
C799 C801 1.419 . S
C800 C798 1.415 . S
C800 C805 1.425 1_454 S
C800 C807 1.409 1_454 S
C801 H793 0.930 . S
C801 C799 1.419 . S
C801 C802 1.362 . S
C802 H794 0.930 . S
C802 C801 1.362 . S
C802 C805 1.409 1_454 S
C803 H795 0.930 . S
C803 C804 1.355 . S
C803 C805 1.415 . S
C804 C803 1.355 . S
C804 C806 1.419 . S
C805 C800 1.425 1_656 S
C805 C802 1.409 1_656 S
C805 C803 1.415 . S
C806 H796 0.930 . S
C806 C804 1.419 . S
C806 C807 1.362 . S
C807 H797 0.930 . S
C807 C800 1.409 1_656 S
C807 C806 1.362 . S
H808 C814 0.930 . S
H809 C817 0.930 . S
H810 C818 0.930 . S
H811 C819 0.930 . S
H812 C822 0.930 . S
H813 C823 0.930 . S
C814 H808 0.930 . S
C814 C815 1.355 . S
C814 C816 1.415 . S
C815 C814 1.355 . S
C815 C817 1.419 1_556 S
C816 C814 1.415 . S
C816 C821 1.425 1_556 S
C816 C823 1.409 . S
C817 H809 0.930 . S
C817 C815 1.419 1_554 S
C817 C818 1.362 . S
C818 H810 0.930 . S
C818 C817 1.362 . S
C818 C821 1.409 . S
C819 H811 0.930 . S
C819 C820 1.355 . S
C819 C821 1.415 . S
C820 C819 1.355 . S
C820 C822 1.419 1_554 S
C821 C816 1.425 1_554 S
C821 C818 1.409 . S
C821 C819 1.415 . S
C822 H812 0.930 . S
C822 C820 1.419 1_556 S
C822 C823 1.362 . S
C823 H813 0.930 . S
C823 C816 1.409 . S
C823 C822 1.362 . S
H824 C830 0.930 . S
H825 C833 0.930 . S
H826 C834 0.930 1_545 S
H827 C835 0.930 . S
H828 C838 0.930 . S
H829 C839 0.930 1_565 S
C830 H824 0.930 . S
C830 C831 1.355 1_556 S
C830 C832 1.415 . S
C831 C830 1.355 1_554 S
C831 C833 1.419 . S
C832 C830 1.415 . S
C832 C837 1.425 1_566 S
C832 C839 1.409 1_565 S
C833 H825 0.930 . S
C833 C831 1.419 . S
C833 C834 1.362 . S
C834 H826 0.930 1_565 S
C834 C833 1.362 . S
C834 C837 1.409 1_565 S
C835 H827 0.930 . S
C835 C836 1.355 1_554 S
C835 C837 1.415 . S
C836 C835 1.355 1_556 S
C836 C838 1.419 . S
C837 C832 1.425 1_544 S
C837 C834 1.409 1_545 S
C837 C835 1.415 . S
C838 H828 0.930 . S
C838 C836 1.419 . S
C838 C839 1.362 . S
C839 H829 0.930 1_545 S
C839 C832 1.409 1_545 S
C839 C838 1.362 . S
H840 C846 0.930 . S
H841 C849 0.930 . S
H842 C850 0.930 . S
H843 C851 0.930 . S
H844 C854 0.930 . S
H845 C855 0.930 . S
C846 H840 0.930 . S
C846 C847 1.355 . S
C846 C848 1.415 . S
C847 C846 1.355 . S
C847 C849 1.419 . S
C848 C846 1.415 . S
C848 C853 1.425 1_656 S
C848 C855 1.409 1_655 S
C849 H841 0.930 . S
C849 C847 1.419 . S
C849 C850 1.362 1_556 S
C850 H842 0.930 . S
C850 C849 1.362 1_554 S
C850 C853 1.409 1_655 S
C851 H843 0.930 . S
C851 C852 1.355 . S
C851 C853 1.415 . S
C852 C851 1.355 . S
C852 C854 1.419 . S
C853 C848 1.425 1_454 S
C853 C850 1.409 1_455 S
C853 C851 1.415 . S
C854 H844 0.930 . S
C854 C852 1.419 . S
C854 C855 1.362 1_554 S
C855 H845 0.930 . S
C855 C848 1.409 1_455 S
C855 C854 1.362 1_556 S
H856 C862 0.930 . S
H857 C865 0.930 . S
H858 C866 0.930 . S
H859 C867 0.930 . S
H860 C870 0.930 . S
H861 C871 0.930 . S
C862 H856 0.930 . S
C862 C863 1.355 1_554 S
C862 C864 1.415 . S
C863 C862 1.355 1_556 S
C863 C865 1.419 . S
C864 C862 1.415 . S
C864 C869 1.425 1_554 S
C864 C871 1.409 . S
C865 H857 0.930 . S
C865 C863 1.419 . S
C865 C866 1.362 . S
C866 H858 0.930 . S
C866 C865 1.362 . S
C866 C869 1.409 . S
C867 H859 0.930 . S
C867 C868 1.355 1_556 S
C867 C869 1.415 . S
C868 C867 1.355 1_554 S
C868 C870 1.419 . S
C869 C864 1.425 1_556 S
C869 C866 1.409 . S
C869 C867 1.415 . S
C870 H860 0.930 . S
C870 C868 1.419 . S
C870 C871 1.362 . S
C871 H861 0.930 . S
C871 C864 1.409 . S
C871 C870 1.362 . S
H872 C878 0.930 . S
H873 C881 0.930 . S
H874 C882 0.934 . S
H875 C883 0.930 . S
H876 C886 0.930 . S
H877 C887 0.934 . S
C878 H872 0.930 . S
C878 C879 1.355 . S
C878 C880 1.415 . S
C879 C878 1.355 . S
C879 C881 1.419 . S
C880 C878 1.415 . S
C880 C885 1.425 1_546 S
C880 C887 1.411 1_545 S
C881 H873 0.930 . S
C881 C879 1.419 . S
C881 C882 1.358 1_556 S
C882 H874 0.934 . S
C882 C881 1.358 1_554 S
C882 C885 1.411 1_545 S
C883 H875 0.930 . S
C883 C884 1.355 . S
C883 C885 1.415 . S
C884 C883 1.355 . S
C884 C886 1.419 . S
C885 C880 1.425 1_564 S
C885 C882 1.411 1_565 S
C885 C883 1.415 . S
C886 H876 0.930 . S
C886 C884 1.419 . S
C886 C887 1.358 1_554 S
C887 H877 0.934 . S
C887 C880 1.411 1_565 S
C887 C886 1.358 1_556 S
H888 C894 0.930 . S
H889 C897 0.930 . S
H890 C898 0.930 . S
H891 C899 0.930 . S
H892 C902 0.930 . S
H893 C903 0.930 . S
C894 H888 0.930 . S
C894 C895 1.355 . S
C894 C896 1.415 . S
C895 C894 1.355 . S
C895 C897 1.419 . S
C896 C894 1.415 . S
C896 C901 1.425 . S
C896 C903 1.409 . S
C897 H889 0.930 . S
C897 C895 1.419 . S
C897 C898 1.362 . S
C898 H890 0.930 . S
C898 C897 1.362 . S
C898 C901 1.409 . S
C899 H891 0.930 . S
C899 C900 1.355 . S
C899 C901 1.415 . S
C900 C899 1.355 . S
C900 C902 1.419 . S
C901 C896 1.425 . S
C901 C898 1.409 . S
C901 C899 1.415 . S
C902 H892 0.930 . S
C902 C900 1.419 . S
C902 C903 1.362 . S
C903 H893 0.930 . S
C903 C896 1.409 . S
C903 C902 1.362 . S
H904 C910 0.930 . S
H905 C913 0.930 . S
H906 C914 0.930 . S
H907 C915 0.930 . S
H908 C918 0.930 . S
H909 C919 0.930 . S
C910 H904 0.930 . S
C910 C911 1.355 . S
C910 C912 1.415 . S
C911 C910 1.355 . S
C911 C913 1.419 . S
C912 C910 1.415 . S
C912 C917 1.425 . S
C912 C919 1.409 . S
C913 H905 0.930 . S
C913 C911 1.419 . S
C913 C914 1.362 . S
C914 H906 0.930 . S
C914 C913 1.362 . S
C914 C917 1.409 . S
C915 H907 0.930 . S
C915 C916 1.355 . S
C915 C917 1.415 . S
C916 C915 1.355 . S
C916 C918 1.419 . S
C917 C912 1.425 . S
C917 C914 1.409 . S
C917 C915 1.415 . S
C918 H908 0.930 . S
C918 C916 1.419 . S
C918 C919 1.362 . S
C919 H909 0.930 . S
C919 C912 1.409 . S
C919 C918 1.362 . S
H920 C926 0.930 . S
H921 C929 0.930 . S
H922 C930 0.930 . S
H923 C931 0.930 . S
H924 C934 0.930 . S
H925 C935 0.930 . S
C926 H920 0.930 . S
C926 C927 1.355 . S
C926 C928 1.415 . S
C927 C926 1.355 . S
C927 C929 1.419 . S
C928 C926 1.415 . S
C928 C933 1.425 . S
C928 C935 1.409 . S
C929 H921 0.930 . S
C929 C927 1.419 . S
C929 C930 1.362 . S
C930 H922 0.930 . S
C930 C929 1.362 . S
C930 C933 1.409 . S
C931 H923 0.930 . S
C931 C932 1.355 . S
C931 C933 1.415 . S
C932 C931 1.355 . S
C932 C934 1.419 . S
C933 C928 1.425 . S
C933 C930 1.409 . S
C933 C931 1.415 . S
C934 H924 0.930 . S
C934 C932 1.419 . S
C934 C935 1.362 . S
C935 H925 0.930 . S
C935 C928 1.409 . S
C935 C934 1.362 . S
H936 C942 0.930 . S
H937 C945 0.930 . S
H938 C946 0.930 . S
H939 C947 0.930 . S
H940 C950 0.930 . S
H941 C951 0.930 . S
C942 H936 0.930 . S
C942 C943 1.355 . S
C942 C944 1.415 . S
C943 C942 1.355 . S
C943 C945 1.419 . S
C944 C942 1.415 . S
C944 C949 1.425 . S
C944 C951 1.409 . S
C945 H937 0.930 . S
C945 C943 1.419 . S
C945 C946 1.362 . S
C946 H938 0.930 . S
C946 C945 1.362 . S
C946 C949 1.409 . S
C947 H939 0.930 . S
C947 C948 1.355 . S
C947 C949 1.415 . S
C948 C947 1.355 . S
C948 C950 1.419 . S
C949 C944 1.425 . S
C949 C946 1.409 . S
C949 C947 1.415 . S
C950 H940 0.930 . S
C950 C948 1.419 . S
C950 C951 1.362 . S
C951 H941 0.930 . S
C951 C944 1.409 . S
C951 C950 1.362 . S
H952 C958 0.930 . S
H953 C961 0.930 . S
H954 C962 0.930 . S
H955 C963 0.930 . S
H956 C966 0.930 . S
H957 C967 0.930 . S
C958 H952 0.930 . S
C958 C959 1.355 . S
C958 C960 1.415 . S
C959 C958 1.355 . S
C959 C961 1.419 . S
C960 C958 1.415 . S
C960 C965 1.425 . S
C960 C967 1.409 . S
C961 H953 0.930 . S
C961 C959 1.419 . S
C961 C962 1.362 . S
C962 H954 0.930 . S
C962 C961 1.362 . S
C962 C965 1.409 . S
C963 H955 0.930 . S
C963 C964 1.355 . S
C963 C965 1.415 . S
C964 C963 1.355 . S
C964 C966 1.419 . S
C965 C960 1.425 . S
C965 C962 1.409 . S
C965 C963 1.415 . S
C966 H956 0.930 . S
C966 C964 1.419 . S
C966 C967 1.362 . S
C967 H957 0.930 . S
C967 C960 1.409 . S
C967 C966 1.362 . S
H968 C974 0.930 . S
H969 C977 0.930 . S
H970 C978 0.930 . S
H971 C979 0.930 . S
H972 C982 0.930 . S
H973 C983 0.930 . S
C974 H968 0.930 . S
C974 C975 1.355 . S
C974 C976 1.415 . S
C975 C974 1.355 . S
C975 C977 1.419 . S
C976 C974 1.415 . S
C976 C981 1.425 . S
C976 C983 1.409 . S
C977 H969 0.930 . S
C977 C975 1.419 . S
C977 C978 1.362 . S
C978 H970 0.930 . S
C978 C977 1.362 . S
C978 C981 1.409 . S
C979 H971 0.930 . S
C979 C980 1.355 . S
C979 C981 1.415 . S
C980 C979 1.355 . S
C980 C982 1.419 . S
C981 C976 1.425 . S
C981 C978 1.409 . S
C981 C979 1.415 . S
C982 H972 0.930 . S
C982 C980 1.419 . S
C982 C983 1.362 . S
C983 H973 0.930 . S
C983 C976 1.409 . S
C983 C982 1.362 . S
H984 C990 0.930 . S
H985 C993 0.930 . S
H986 C994 0.930 . S
H987 C995 0.930 . S
H988 C998 0.930 . S
H989 C999 0.930 . S
C990 H984 0.930 . S
C990 C991 1.355 . S
C990 C992 1.415 . S
C991 C990 1.355 . S
C991 C993 1.419 . S
C992 C990 1.415 . S
C992 C997 1.425 . S
C992 C999 1.409 . S
C993 H985 0.930 . S
C993 C991 1.419 . S
C993 C994 1.362 . S
C994 H986 0.930 . S
C994 C993 1.362 . S
C994 C997 1.409 . S
C995 H987 0.930 . S
C995 C996 1.355 . S
C995 C997 1.415 . S
C996 C995 1.355 . S
C996 C998 1.419 . S
C997 C992 1.425 . S
C997 C994 1.409 . S
C997 C995 1.415 . S
C998 H988 0.930 . S
C998 C996 1.419 . S
C998 C999 1.362 . S
C999 H989 0.930 . S
C999 C992 1.409 . S
C999 C998 1.362 . S
H1000 C1006 0.930 . S
H1001 C1009 0.930 . S
H1002 C1010 0.930 . S
H1003 C1011 0.930 . S
H1004 C1014 0.930 . S
H1005 C1015 0.930 . S
C1006 H1000 0.930 . S
C1006 C1007 1.355 . S
C1006 C1008 1.415 . S
C1007 C1006 1.355 . S
C1007 C1009 1.419 . S
C1008 C1006 1.415 . S
C1008 C1013 1.425 . S
C1008 C1015 1.409 . S
C1009 H1001 0.930 . S
C1009 C1007 1.419 . S
C1009 C1010 1.362 . S
C1010 H1002 0.930 . S
C1010 C1009 1.362 . S
C1010 C1013 1.409 . S
C1011 H1003 0.930 . S
C1011 C1012 1.355 . S
C1011 C1013 1.415 . S
C1012 C1011 1.355 . S
C1012 C1014 1.419 . S
C1013 C1008 1.425 . S
C1013 C1010 1.409 . S
C1013 C1011 1.415 . S
C1014 H1004 0.930 . S
C1014 C1012 1.419 . S
C1014 C1015 1.362 . S
C1015 H1005 0.930 . S
C1015 C1008 1.409 . S
C1015 C1014 1.362 . S
H1016 C1022 0.930 . S
H1017 C1025 0.930 . S
H1018 C1026 0.930 . S
H1019 C1027 0.930 . S
H1020 C1030 0.930 . S
H1021 C1031 0.930 . S
C1022 H1016 0.930 . S
C1022 C1023 1.355 . S
C1022 C1024 1.415 . S
C1023 C1022 1.355 . S
C1023 C1025 1.419 . S
C1024 C1022 1.415 . S
C1024 C1029 1.425 . S
C1024 C1031 1.409 . S
C1025 H1017 0.930 . S
C1025 C1023 1.419 . S
C1025 C1026 1.362 . S
C1026 H1018 0.930 . S
C1026 C1025 1.362 . S
C1026 C1029 1.409 . S
C1027 H1019 0.930 . S
C1027 C1028 1.355 . S
C1027 C1029 1.415 . S
C1028 C1027 1.355 . S
C1028 C1030 1.419 . S
C1029 C1024 1.425 . S
C1029 C1026 1.409 . S
C1029 C1027 1.415 . S
C1030 H1020 0.930 . S
C1030 C1028 1.419 . S
C1030 C1031 1.362 . S
C1031 H1021 0.930 . S
C1031 C1024 1.409 . S
C1031 C1030 1.362 . S
H1032 C1038 0.930 . S
H1033 C1041 0.930 . S
H1034 C1042 0.930 . S
H1035 C1043 0.930 . S
H1036 C1046 0.930 . S
H1037 C1047 0.930 . S
C1038 H1032 0.930 . S
C1038 C1039 1.355 . S
C1038 C1040 1.415 . S
C1039 C1038 1.355 . S
C1039 C1041 1.419 . S
C1040 C1038 1.415 . S
C1040 C1045 1.425 . S
C1040 C1047 1.409 . S
C1041 H1033 0.930 . S
C1041 C1039 1.419 . S
C1041 C1042 1.362 . S
C1042 H1034 0.930 . S
C1042 C1041 1.362 . S
C1042 C1045 1.409 . S
C1043 H1035 0.930 . S
C1043 C1044 1.355 . S
C1043 C1045 1.415 . S
C1044 C1043 1.355 . S
C1044 C1046 1.419 . S
C1045 C1040 1.425 . S
C1045 C1042 1.409 . S
C1045 C1043 1.415 . S
C1046 H1036 0.930 . S
C1046 C1044 1.419 . S
C1046 C1047 1.362 . S
C1047 H1037 0.930 . S
C1047 C1040 1.409 . S
C1047 C1046 1.362 . S
H1048 C1054 0.930 . S
H1049 C1057 0.930 . S
H1050 C1058 0.930 . S
H1051 C1059 0.930 . S
H1052 C1062 0.930 . S
H1053 C1063 0.930 . S
C1054 H1048 0.930 . S
C1054 C1055 1.355 . S
C1054 C1056 1.415 . S
C1055 C1054 1.355 . S
C1055 C1057 1.419 . S
C1056 C1054 1.415 . S
C1056 C1061 1.425 . S
C1056 C1063 1.409 . S
C1057 H1049 0.930 . S
C1057 C1055 1.419 . S
C1057 C1058 1.362 . S
C1058 H1050 0.930 . S
C1058 C1057 1.362 . S
C1058 C1061 1.409 . S
C1059 H1051 0.930 . S
C1059 C1060 1.355 . S
C1059 C1061 1.415 . S
C1060 C1059 1.355 . S
C1060 C1062 1.419 . S
C1061 C1056 1.425 . S
C1061 C1058 1.409 . S
C1061 C1059 1.415 . S
C1062 H1052 0.930 . S
C1062 C1060 1.419 . S
C1062 C1063 1.362 . S
C1063 H1053 0.930 . S
C1063 C1056 1.409 . S
C1063 C1062 1.362 . S
H1064 C1070 0.930 . S
H1065 C1073 0.930 . S
H1066 C1074 0.930 . S
H1067 C1075 0.930 . S
H1068 C1078 0.930 . S
H1069 C1079 0.930 . S
C1070 H1064 0.930 . S
C1070 C1071 1.355 . S
C1070 C1072 1.415 . S
C1071 C1070 1.355 . S
C1071 C1073 1.419 . S
C1072 C1070 1.415 . S
C1072 C1077 1.425 . S
C1072 C1079 1.409 . S
C1073 H1065 0.930 . S
C1073 C1071 1.419 . S
C1073 C1074 1.362 . S
C1074 H1066 0.930 . S
C1074 C1073 1.362 . S
C1074 C1077 1.409 . S
C1075 H1067 0.930 . S
C1075 C1076 1.355 . S
C1075 C1077 1.415 . S
C1076 C1075 1.355 . S
C1076 C1078 1.419 . S
C1077 C1072 1.425 . S
C1077 C1074 1.409 . S
C1077 C1075 1.415 . S
C1078 H1068 0.930 . S
C1078 C1076 1.419 . S
C1078 C1079 1.362 . S
C1079 H1069 0.930 . S
C1079 C1072 1.409 . S
C1079 C1078 1.362 . S
H1080 C1086 0.930 . S
H1081 C1089 0.930 . S
H1082 C1090 0.930 . S
H1083 C1091 0.930 . S
H1084 C1094 0.930 . S
H1085 C1095 0.930 . S
C1086 H1080 0.930 . S
C1086 C1087 1.355 . S
C1086 C1088 1.415 . S
C1087 C1086 1.355 . S
C1087 C1089 1.419 . S
C1088 C1086 1.415 . S
C1088 C1093 1.425 . S
C1088 C1095 1.409 . S
C1089 H1081 0.930 . S
C1089 C1087 1.419 . S
C1089 C1090 1.362 . S
C1090 H1082 0.930 . S
C1090 C1089 1.362 . S
C1090 C1093 1.409 . S
C1091 H1083 0.930 . S
C1091 C1092 1.355 . S
C1091 C1093 1.415 . S
C1092 C1091 1.355 . S
C1092 C1094 1.419 . S
C1093 C1088 1.425 . S
C1093 C1090 1.409 . S
C1093 C1091 1.415 . S
C1094 H1084 0.930 . S
C1094 C1092 1.419 . S
C1094 C1095 1.362 . S
C1095 H1085 0.930 . S
C1095 C1088 1.409 . S
C1095 C1094 1.362 . S
H1096 C1102 0.930 . S
H1097 C1105 0.930 . S
H1098 C1106 0.930 . S
H1099 C1107 0.930 . S
H1100 C1110 0.930 . S
H1101 C1111 0.930 . S
C1102 H1096 0.930 . S
C1102 C1103 1.355 . S
C1102 C1104 1.415 . S
C1103 C1102 1.355 . S
C1103 C1105 1.419 . S
C1104 C1102 1.415 . S
C1104 C1109 1.425 . S
C1104 C1111 1.409 . S
C1105 H1097 0.930 . S
C1105 C1103 1.419 . S
C1105 C1106 1.362 . S
C1106 H1098 0.930 . S
C1106 C1105 1.362 . S
C1106 C1109 1.409 . S
C1107 H1099 0.930 . S
C1107 C1108 1.355 . S
C1107 C1109 1.415 . S
C1108 C1107 1.355 . S
C1108 C1110 1.419 . S
C1109 C1104 1.425 . S
C1109 C1106 1.409 . S
C1109 C1107 1.415 . S
C1110 H1100 0.930 . S
C1110 C1108 1.419 . S
C1110 C1111 1.362 . S
C1111 H1101 0.930 . S
C1111 C1104 1.409 . S
C1111 C1110 1.362 . S
H1112 C1118 0.930 . S
H1113 C1121 0.930 . S
H1114 C1122 0.930 . S
H1115 C1123 0.930 . S
H1116 C1126 0.930 . S
H1117 C1127 0.930 . S
C1118 H1112 0.930 . S
C1118 C1119 1.355 . S
C1118 C1120 1.415 . S
C1119 C1118 1.355 . S
C1119 C1121 1.419 . S
C1120 C1118 1.415 . S
C1120 C1125 1.425 . S
C1120 C1127 1.409 . S
C1121 H1113 0.930 . S
C1121 C1119 1.419 . S
C1121 C1122 1.362 . S
C1122 H1114 0.930 . S
C1122 C1121 1.362 . S
C1122 C1125 1.409 . S
C1123 H1115 0.930 . S
C1123 C1124 1.355 . S
C1123 C1125 1.415 . S
C1124 C1123 1.355 . S
C1124 C1126 1.419 . S
C1125 C1120 1.425 . S
C1125 C1122 1.409 . S
C1125 C1123 1.415 . S
C1126 H1116 0.930 . S
C1126 C1124 1.419 . S
C1126 C1127 1.362 . S
C1127 H1117 0.930 . S
C1127 C1120 1.409 . S
C1127 C1126 1.362 . S
H1128 C1134 0.930 . S
H1129 C1137 0.930 . S
H1130 C1138 0.930 . S
H1131 C1139 0.930 . S
H1132 C1142 0.930 . S
H1133 C1143 0.930 . S
C1134 H1128 0.930 . S
C1134 C1135 1.355 . S
C1134 C1136 1.415 . S
C1135 C1134 1.355 . S
C1135 C1137 1.419 . S
C1136 C1134 1.415 . S
C1136 C1141 1.425 . S
C1136 C1143 1.409 . S
C1137 H1129 0.930 . S
C1137 C1135 1.419 . S
C1137 C1138 1.362 . S
C1138 H1130 0.930 . S
C1138 C1137 1.362 . S
C1138 C1141 1.409 . S
C1139 H1131 0.930 . S
C1139 C1140 1.355 . S
C1139 C1141 1.415 . S
C1140 C1139 1.355 . S
C1140 C1142 1.419 . S
C1141 C1136 1.425 . S
C1141 C1138 1.409 . S
C1141 C1139 1.415 . S
C1142 H1132 0.930 . S
C1142 C1140 1.419 . S
C1142 C1143 1.362 . S
C1143 H1133 0.930 . S
C1143 C1136 1.409 . S
C1143 C1142 1.362 . S
H1144 C1150 0.930 . S
H1145 C1153 0.930 . S
H1146 C1154 0.930 . S
H1147 C1155 0.930 . S
H1148 C1158 0.930 . S
H1149 C1159 0.930 . S
C1150 H1144 0.930 . S
C1150 C1151 1.355 . S
C1150 C1152 1.415 . S
C1151 C1150 1.355 . S
C1151 C1153 1.419 . S
C1152 C1150 1.415 . S
C1152 C1157 1.425 . S
C1152 C1159 1.409 . S
C1153 H1145 0.930 . S
C1153 C1151 1.419 . S
C1153 C1154 1.362 . S
C1154 H1146 0.930 . S
C1154 C1153 1.362 . S
C1154 C1157 1.409 . S
C1155 H1147 0.930 . S
C1155 C1156 1.355 . S
C1155 C1157 1.415 . S
C1156 C1155 1.355 . S
C1156 C1158 1.419 . S
C1157 C1152 1.425 . S
C1157 C1154 1.409 . S
C1157 C1155 1.415 . S
C1158 H1148 0.930 . S
C1158 C1156 1.419 . S
C1158 C1159 1.362 . S
C1159 H1149 0.930 . S
C1159 C1152 1.409 . S
C1159 C1158 1.362 . S
H1160 C1166 0.930 . S
H1161 C1169 0.930 . S
H1162 C1170 0.930 . S
H1163 C1171 0.930 . S
H1164 C1174 0.930 . S
H1165 C1175 0.930 . S
C1166 H1160 0.930 . S
C1166 C1167 1.355 . S
C1166 C1168 1.415 . S
C1167 C1166 1.355 . S
C1167 C1169 1.419 . S
C1168 C1166 1.415 . S
C1168 C1173 1.425 . S
C1168 C1175 1.409 . S
C1169 H1161 0.930 . S
C1169 C1167 1.419 . S
C1169 C1170 1.362 . S
C1170 H1162 0.930 . S
C1170 C1169 1.362 . S
C1170 C1173 1.409 . S
C1171 H1163 0.930 . S
C1171 C1172 1.355 . S
C1171 C1173 1.415 . S
C1172 C1171 1.355 . S
C1172 C1174 1.419 . S
C1173 C1168 1.425 . S
C1173 C1170 1.409 . S
C1173 C1171 1.415 . S
C1174 H1164 0.930 . S
C1174 C1172 1.419 . S
C1174 C1175 1.362 . S
C1175 H1165 0.930 . S
C1175 C1168 1.409 . S
C1175 C1174 1.362 . S
H1176 C1182 0.930 . S
H1177 C1185 0.930 . S
H1178 C1186 0.930 . S
H1179 C1187 0.930 . S
H1180 C1190 0.930 . S
H1181 C1191 0.930 . S
C1182 H1176 0.930 . S
C1182 C1183 1.355 . S
C1182 C1184 1.415 . S
C1183 C1182 1.355 . S
C1183 C1185 1.419 . S
C1184 C1182 1.415 . S
C1184 C1189 1.425 . S
C1184 C1191 1.409 . S
C1185 H1177 0.930 . S
C1185 C1183 1.419 . S
C1185 C1186 1.362 . S
C1186 H1178 0.930 . S
C1186 C1185 1.362 . S
C1186 C1189 1.409 . S
C1187 H1179 0.930 . S
C1187 C1188 1.355 . S
C1187 C1189 1.415 . S
C1188 C1187 1.355 . S
C1188 C1190 1.419 . S
C1189 C1184 1.425 . S
C1189 C1186 1.409 . S
C1189 C1187 1.415 . S
C1190 H1180 0.930 . S
C1190 C1188 1.419 . S
C1190 C1191 1.362 . S
C1191 H1181 0.930 . S
C1191 C1184 1.409 . S
C1191 C1190 1.362 . S
H1192 C1198 0.930 . S
H1193 C1201 0.930 . S
H1194 C1202 0.930 . S
H1195 C1203 0.930 . S
H1196 C1206 0.930 . S
H1197 C1207 0.930 . S
C1198 H1192 0.930 . S
C1198 C1199 1.355 . S
C1198 C1200 1.415 . S
C1199 C1198 1.355 . S
C1199 C1201 1.419 . S
C1200 C1198 1.415 . S
C1200 C1205 1.425 . S
C1200 C1207 1.409 . S
C1201 H1193 0.930 . S
C1201 C1199 1.419 . S
C1201 C1202 1.362 . S
C1202 H1194 0.930 . S
C1202 C1201 1.362 . S
C1202 C1205 1.409 . S
C1203 H1195 0.930 . S
C1203 C1204 1.355 . S
C1203 C1205 1.415 . S
C1204 C1203 1.355 . S
C1204 C1206 1.419 . S
C1205 C1200 1.425 . S
C1205 C1202 1.409 . S
C1205 C1203 1.415 . S
C1206 H1196 0.930 . S
C1206 C1204 1.419 . S
C1206 C1207 1.362 . S
C1207 H1197 0.930 . S
C1207 C1200 1.409 . S
C1207 C1206 1.362 . S
H1208 C1214 0.930 . S
H1209 C1217 0.930 . S
H1210 C1218 0.930 . S
H1211 C1219 0.930 . S
H1212 C1222 0.930 . S
H1213 C1223 0.930 . S
C1214 H1208 0.930 . S
C1214 C1215 1.355 . S
C1214 C1216 1.415 . S
C1215 C1214 1.355 . S
C1215 C1217 1.419 . S
C1216 C1214 1.415 . S
C1216 C1221 1.425 . S
C1216 C1223 1.409 . S
C1217 H1209 0.930 . S
C1217 C1215 1.419 . S
C1217 C1218 1.362 . S
C1218 H1210 0.930 . S
C1218 C1217 1.362 . S
C1218 C1221 1.409 . S
C1219 H1211 0.930 . S
C1219 C1220 1.355 . S
C1219 C1221 1.415 . S
C1220 C1219 1.355 . S
C1220 C1222 1.419 . S
C1221 C1216 1.425 . S
C1221 C1218 1.409 . S
C1221 C1219 1.415 . S
C1222 H1212 0.930 . S
C1222 C1220 1.419 . S
C1222 C1223 1.362 . S
C1223 H1213 0.930 . S
C1223 C1216 1.409 . S
C1223 C1222 1.362 . S
H1224 C1230 0.930 . S
H1225 C1233 0.930 . S
H1226 C1234 0.930 . S
H1227 C1235 0.930 . S
H1228 C1238 0.930 . S
H1229 C1239 0.930 . S
C1230 H1224 0.930 . S
C1230 C1231 1.355 . S
C1230 C1232 1.415 . S
C1231 C1230 1.355 . S
C1231 C1233 1.419 . S
C1232 C1230 1.415 . S
C1232 C1237 1.425 . S
C1232 C1239 1.409 . S
C1233 H1225 0.930 . S
C1233 C1231 1.419 . S
C1233 C1234 1.362 . S
C1234 H1226 0.930 . S
C1234 C1233 1.362 . S
C1234 C1237 1.409 . S
C1235 H1227 0.930 . S
C1235 C1236 1.355 . S
C1235 C1237 1.415 . S
C1236 C1235 1.355 . S
C1236 C1238 1.419 . S
C1237 C1232 1.425 . S
C1237 C1234 1.409 . S
C1237 C1235 1.415 . S
C1238 H1228 0.930 . S
C1238 C1236 1.419 . S
C1238 C1239 1.362 . S
C1239 H1229 0.930 . S
C1239 C1232 1.409 . S
C1239 C1238 1.362 . S
H1240 C1246 0.930 . S
H1241 C1249 0.930 . S
H1242 C1250 0.930 . S
H1243 C1251 0.930 . S
H1244 C1254 0.930 . S
H1245 C1255 0.930 . S
C1246 H1240 0.930 . S
C1246 C1247 1.355 . S
C1246 C1248 1.415 . S
C1247 C1246 1.355 . S
C1247 C1249 1.419 . S
C1248 C1246 1.415 . S
C1248 C1253 1.425 . S
C1248 C1255 1.409 . S
C1249 H1241 0.930 . S
C1249 C1247 1.419 . S
C1249 C1250 1.362 . S
C1250 H1242 0.930 . S
C1250 C1249 1.362 . S
C1250 C1253 1.409 . S
C1251 H1243 0.930 . S
C1251 C1252 1.355 . S
C1251 C1253 1.415 . S
C1252 C1251 1.355 . S
C1252 C1254 1.419 . S
C1253 C1248 1.425 . S
C1253 C1250 1.409 . S
C1253 C1251 1.415 . S
C1254 H1244 0.930 . S
C1254 C1252 1.419 . S
C1254 C1255 1.362 . S
C1255 H1245 0.930 . S
C1255 C1248 1.409 . S
C1255 C1254 1.362 . S
H1256 C1262 0.930 . S
H1257 C1265 0.930 . S
H1258 C1266 0.930 . S
H1259 C1267 0.930 . S
H1260 C1270 0.930 . S
H1261 C1271 0.930 . S
C1262 H1256 0.930 . S
C1262 C1263 1.355 . S
C1262 C1264 1.415 . S
C1263 C1262 1.355 . S
C1263 C1265 1.419 . S
C1264 C1262 1.415 . S
C1264 C1269 1.425 . S
C1264 C1271 1.409 . S
C1265 H1257 0.930 . S
C1265 C1263 1.419 . S
C1265 C1266 1.362 . S
C1266 H1258 0.930 . S
C1266 C1265 1.362 . S
C1266 C1269 1.409 . S
C1267 H1259 0.930 . S
C1267 C1268 1.355 . S
C1267 C1269 1.415 . S
C1268 C1267 1.355 . S
C1268 C1270 1.419 . S
C1269 C1264 1.425 . S
C1269 C1266 1.409 . S
C1269 C1267 1.415 . S
C1270 H1260 0.930 . S
C1270 C1268 1.419 . S
C1270 C1271 1.362 . S
C1271 H1261 0.930 . S
C1271 C1264 1.409 . S
C1271 C1270 1.362 . S
H1272 C1278 0.930 . S
H1273 C1281 0.930 . S
H1274 C1282 0.930 . S
H1275 C1283 0.930 . S
H1276 C1286 0.930 . S
H1277 C1287 0.930 . S
C1278 H1272 0.930 . S
C1278 C1279 1.355 . S
C1278 C1280 1.415 1_455 S
C1279 C1278 1.355 . S
C1279 C1281 1.419 . S
C1280 C1278 1.415 1_655 S
C1280 C1285 1.425 1_655 S
C1280 C1287 1.409 . S
C1281 H1273 0.930 . S
C1281 C1279 1.419 . S
C1281 C1282 1.362 . S
C1282 H1274 0.930 . S
C1282 C1281 1.362 . S
C1282 C1285 1.409 . S
C1283 H1275 0.930 . S
C1283 C1284 1.355 . S
C1283 C1285 1.415 1_655 S
C1284 C1283 1.355 . S
C1284 C1286 1.419 . S
C1285 C1280 1.425 1_455 S
C1285 C1282 1.409 . S
C1285 C1283 1.415 1_455 S
C1286 H1276 0.930 . S
C1286 C1284 1.419 . S
C1286 C1287 1.362 . S
C1287 H1277 0.930 . S
C1287 C1280 1.409 . S
C1287 C1286 1.362 . S
H1288 C1294 0.930 . S
H1289 C1297 0.930 . S
H1290 C1298 0.930 . S
H1291 C1299 0.930 . S
H1292 C1302 0.930 . S
H1293 C1303 0.930 . S
C1294 H1288 0.930 . S
C1294 C1295 1.355 . S
C1294 C1296 1.415 . S
C1295 C1294 1.355 . S
C1295 C1297 1.419 . S
C1296 C1294 1.415 . S
C1296 C1301 1.425 . S
C1296 C1303 1.409 . S
C1297 H1289 0.930 . S
C1297 C1295 1.419 . S
C1297 C1298 1.362 . S
C1298 H1290 0.930 . S
C1298 C1297 1.362 . S
C1298 C1301 1.409 . S
C1299 H1291 0.930 . S
C1299 C1300 1.355 . S
C1299 C1301 1.415 . S
C1300 C1299 1.355 . S
C1300 C1302 1.419 . S
C1301 C1296 1.425 . S
C1301 C1298 1.409 . S
C1301 C1299 1.415 . S
C1302 H1292 0.930 . S
C1302 C1300 1.419 . S
C1302 C1303 1.362 . S
C1303 H1293 0.930 . S
C1303 C1296 1.409 . S
C1303 C1302 1.362 . S
H1304 C1310 0.930 . S
H1305 C1313 0.930 . S
H1306 C1314 0.930 . S
H1307 C1315 0.930 . S
H1308 C1318 0.930 . S
H1309 C1319 0.930 . S
C1310 H1304 0.930 . S
C1310 C1311 1.355 . S
C1310 C1312 1.415 . S
C1311 C1310 1.355 . S
C1311 C1313 1.419 . S
C1312 C1310 1.415 . S
C1312 C1317 1.425 1_565 S
C1312 C1319 1.409 1_565 S
C1313 H1305 0.930 . S
C1313 C1311 1.419 . S
C1313 C1314 1.362 . S
C1314 H1306 0.930 . S
C1314 C1313 1.362 . S
C1314 C1317 1.409 1_565 S
C1315 H1307 0.930 . S
C1315 C1316 1.355 . S
C1315 C1317 1.415 . S
C1316 C1315 1.355 . S
C1316 C1318 1.419 . S
C1317 C1312 1.425 1_545 S
C1317 C1314 1.409 1_545 S
C1317 C1315 1.415 . S
C1318 H1308 0.930 . S
C1318 C1316 1.419 . S
C1318 C1319 1.362 . S
C1319 H1309 0.930 . S
C1319 C1312 1.409 1_545 S
C1319 C1318 1.362 . S
H1320 C1326 0.930 . S
H1321 C1329 0.930 . S
H1322 C1330 0.930 . S
H1323 C1331 0.930 . S
H1324 C1334 0.930 . S
H1325 C1335 0.930 . S
C1326 H1320 0.930 . S
C1326 C1327 1.355 . S
C1326 C1328 1.415 . S
C1327 C1326 1.355 . S
C1327 C1329 1.419 . S
C1328 C1326 1.415 . S
C1328 C1333 1.425 1_565 S
C1328 C1335 1.409 . S
C1329 H1321 0.930 . S
C1329 C1327 1.419 . S
C1329 C1330 1.362 1_565 S
C1330 H1322 0.930 . S
C1330 C1329 1.362 1_545 S
C1330 C1333 1.409 . S
C1331 H1323 0.930 . S
C1331 C1332 1.355 . S
C1331 C1333 1.415 . S
C1332 C1331 1.355 . S
C1332 C1334 1.419 . S
C1333 C1328 1.425 1_545 S
C1333 C1330 1.409 . S
C1333 C1331 1.415 . S
C1334 H1324 0.930 . S
C1334 C1332 1.419 . S
C1334 C1335 1.362 1_545 S
C1335 H1325 0.930 . S
C1335 C1328 1.409 . S
C1335 C1334 1.362 1_565 S
H1336 C1342 0.930 . S
H1337 C1345 0.930 . S
H1338 C1346 0.930 . S
H1339 C1347 0.930 . S
H1340 C1350 0.930 . S
H1341 C1351 0.930 . S
C1342 H1336 0.930 . S
C1342 C1343 1.355 . S
C1342 C1344 1.415 1_655 S
C1343 C1342 1.355 . S
C1343 C1345 1.419 . S
C1344 C1342 1.415 1_455 S
C1344 C1349 1.425 1_455 S
C1344 C1351 1.409 . S
C1345 H1337 0.930 . S
C1345 C1343 1.419 . S
C1345 C1346 1.362 . S
C1346 H1338 0.930 . S
C1346 C1345 1.362 . S
C1346 C1349 1.409 . S
C1347 H1339 0.930 . S
C1347 C1348 1.355 . S
C1347 C1349 1.415 1_455 S
C1348 C1347 1.355 . S
C1348 C1350 1.419 . S
C1349 C1344 1.425 1_655 S
C1349 C1346 1.409 . S
C1349 C1347 1.415 1_655 S
C1350 H1340 0.930 . S
C1350 C1348 1.419 . S
C1350 C1351 1.362 . S
C1351 H1341 0.930 . S
C1351 C1344 1.409 . S
C1351 C1350 1.362 . S
H1352 C1358 0.930 . S
H1353 C1361 0.930 . S
H1354 C1362 0.930 . S
H1355 C1363 0.930 . S
H1356 C1366 0.930 . S
H1357 C1367 0.930 . S
C1358 H1352 0.930 . S
C1358 C1359 1.355 . S
C1358 C1360 1.415 . S
C1359 C1358 1.355 . S
C1359 C1361 1.419 . S
C1360 C1358 1.415 . S
C1360 C1365 1.425 . S
C1360 C1367 1.409 . S
C1361 H1353 0.930 . S
C1361 C1359 1.419 . S
C1361 C1362 1.362 . S
C1362 H1354 0.930 . S
C1362 C1361 1.362 . S
C1362 C1365 1.409 . S
C1363 H1355 0.930 . S
C1363 C1364 1.355 . S
C1363 C1365 1.415 . S
C1364 C1363 1.355 . S
C1364 C1366 1.419 . S
C1365 C1360 1.425 . S
C1365 C1362 1.409 . S
C1365 C1363 1.415 . S
C1366 H1356 0.930 . S
C1366 C1364 1.419 . S
C1366 C1367 1.362 . S
C1367 H1357 0.930 . S
C1367 C1360 1.409 . S
C1367 C1366 1.362 . S
H1368 C1374 0.930 . S
H1369 C1377 0.930 . S
H1370 C1378 0.930 . S
H1371 C1379 0.930 . S
H1372 C1382 0.930 . S
H1373 C1383 0.930 . S
C1374 H1368 0.930 . S
C1374 C1375 1.355 . S
C1374 C1376 1.415 . S
C1375 C1374 1.355 . S
C1375 C1377 1.419 . S
C1376 C1374 1.415 . S
C1376 C1381 1.425 . S
C1376 C1383 1.409 . S
C1377 H1369 0.930 . S
C1377 C1375 1.419 . S
C1377 C1378 1.362 . S
C1378 H1370 0.930 . S
C1378 C1377 1.362 . S
C1378 C1381 1.409 . S
C1379 H1371 0.930 . S
C1379 C1380 1.355 . S
C1379 C1381 1.415 . S
C1380 C1379 1.355 . S
C1380 C1382 1.419 . S
C1381 C1376 1.425 . S
C1381 C1378 1.409 . S
C1381 C1379 1.415 . S
C1382 H1372 0.930 . S
C1382 C1380 1.419 . S
C1382 C1383 1.362 . S
C1383 H1373 0.930 . S
C1383 C1376 1.409 . S
C1383 C1382 1.362 . S
H1384 C1390 0.930 . S
H1385 C1393 0.930 . S
H1386 C1394 0.930 . S
H1387 C1395 0.930 . S
H1388 C1398 0.930 . S
H1389 C1399 0.930 . S
C1390 H1384 0.930 . S
C1390 C1391 1.355 . S
C1390 C1392 1.415 . S
C1391 C1390 1.355 . S
C1391 C1393 1.419 . S
C1392 C1390 1.415 . S
C1392 C1397 1.425 . S
C1392 C1399 1.409 . S
C1393 H1385 0.930 . S
C1393 C1391 1.419 . S
C1393 C1394 1.362 . S
C1394 H1386 0.930 . S
C1394 C1393 1.362 . S
C1394 C1397 1.409 . S
C1395 H1387 0.930 . S
C1395 C1396 1.355 . S
C1395 C1397 1.415 . S
C1396 C1395 1.355 . S
C1396 C1398 1.419 . S
C1397 C1392 1.425 . S
C1397 C1394 1.409 . S
C1397 C1395 1.415 . S
C1398 H1388 0.930 . S
C1398 C1396 1.419 . S
C1398 C1399 1.362 . S
C1399 H1389 0.930 . S
C1399 C1392 1.409 . S
C1399 C1398 1.362 . S
H1400 C1406 0.930 . S
H1401 C1409 0.930 . S
H1402 C1410 0.930 . S
H1403 C1411 0.930 . S
H1404 C1414 0.930 . S
H1405 C1415 0.930 . S
C1406 H1400 0.930 . S
C1406 C1407 1.355 . S
C1406 C1408 1.415 . S
C1407 C1406 1.355 . S
C1407 C1409 1.419 . S
C1408 C1406 1.415 . S
C1408 C1413 1.425 . S
C1408 C1415 1.409 . S
C1409 H1401 0.930 . S
C1409 C1407 1.419 . S
C1409 C1410 1.362 . S
C1410 H1402 0.930 . S
C1410 C1409 1.362 . S
C1410 C1413 1.409 . S
C1411 H1403 0.930 . S
C1411 C1412 1.355 . S
C1411 C1413 1.415 . S
C1412 C1411 1.355 . S
C1412 C1414 1.419 . S
C1413 C1408 1.425 . S
C1413 C1410 1.409 . S
C1413 C1411 1.415 . S
C1414 H1404 0.930 . S
C1414 C1412 1.419 . S
C1414 C1415 1.362 . S
C1415 H1405 0.930 . S
C1415 C1408 1.409 . S
C1415 C1414 1.362 . S
H1416 C1422 0.930 . S
H1417 C1425 0.930 . S
H1418 C1426 0.930 . S
H1419 C1427 0.930 . S
H1420 C1430 0.930 . S
H1421 C1431 0.930 . S
C1422 H1416 0.930 . S
C1422 C1423 1.355 . S
C1422 C1424 1.415 . S
C1423 C1422 1.355 . S
C1423 C1425 1.419 . S
C1424 C1422 1.415 . S
C1424 C1429 1.425 . S
C1424 C1431 1.409 . S
C1425 H1417 0.930 . S
C1425 C1423 1.419 . S
C1425 C1426 1.362 . S
C1426 H1418 0.930 . S
C1426 C1425 1.362 . S
C1426 C1429 1.409 . S
C1427 H1419 0.930 . S
C1427 C1428 1.355 . S
C1427 C1429 1.415 . S
C1428 C1427 1.355 . S
C1428 C1430 1.419 . S
C1429 C1424 1.425 . S
C1429 C1426 1.409 . S
C1429 C1427 1.415 . S
C1430 H1420 0.930 . S
C1430 C1428 1.419 . S
C1430 C1431 1.362 . S
C1431 H1421 0.930 . S
C1431 C1424 1.409 . S
C1431 C1430 1.362 . S
H1432 C1438 0.930 . S
H1433 C1441 0.930 . S
H1434 C1442 0.930 . S
H1435 C1443 0.930 . S
H1436 C1446 0.930 . S
H1437 C1447 0.930 . S
C1438 H1432 0.930 . S
C1438 C1439 1.355 . S
C1438 C1440 1.415 . S
C1439 C1438 1.355 . S
C1439 C1441 1.419 . S
C1440 C1438 1.415 . S
C1440 C1445 1.425 . S
C1440 C1447 1.409 . S
C1441 H1433 0.930 . S
C1441 C1439 1.419 . S
C1441 C1442 1.362 . S
C1442 H1434 0.930 . S
C1442 C1441 1.362 . S
C1442 C1445 1.409 . S
C1443 H1435 0.930 . S
C1443 C1444 1.355 . S
C1443 C1445 1.415 . S
C1444 C1443 1.355 . S
C1444 C1446 1.419 . S
C1445 C1440 1.425 . S
C1445 C1442 1.409 . S
C1445 C1443 1.415 . S
C1446 H1436 0.930 . S
C1446 C1444 1.419 . S
C1446 C1447 1.362 . S
C1447 H1437 0.930 . S
C1447 C1440 1.409 . S
C1447 C1446 1.362 . S
H1448 C1454 0.930 . S
H1449 C1457 0.930 . S
H1450 C1458 0.930 . S
H1451 C1459 0.930 . S
H1452 C1462 0.930 . S
H1453 C1463 0.930 . S
C1454 H1448 0.930 . S
C1454 C1455 1.355 . S
C1454 C1456 1.415 . S
C1455 C1454 1.355 . S
C1455 C1457 1.419 . S
C1456 C1454 1.415 . S
C1456 C1461 1.425 . S
C1456 C1463 1.409 . S
C1457 H1449 0.930 . S
C1457 C1455 1.419 . S
C1457 C1458 1.362 . S
C1458 H1450 0.930 . S
C1458 C1457 1.362 . S
C1458 C1461 1.409 . S
C1459 H1451 0.930 . S
C1459 C1460 1.355 . S
C1459 C1461 1.415 . S
C1460 C1459 1.355 . S
C1460 C1462 1.419 . S
C1461 C1456 1.425 . S
C1461 C1458 1.409 . S
C1461 C1459 1.415 . S
C1462 H1452 0.930 . S
C1462 C1460 1.419 . S
C1462 C1463 1.362 . S
C1463 H1453 0.930 . S
C1463 C1456 1.409 . S
C1463 C1462 1.362 . S
H1464 C1470 0.930 . S
H1465 C1473 0.930 . S
H1466 C1474 0.930 . S
H1467 C1475 0.930 . S
H1468 C1478 0.930 . S
H1469 C1479 0.930 . S
C1470 H1464 0.930 . S
C1470 C1471 1.355 . S
C1470 C1472 1.415 . S
C1471 C1470 1.355 . S
C1471 C1473 1.419 . S
C1472 C1470 1.415 . S
C1472 C1477 1.425 . S
C1472 C1479 1.409 . S
C1473 H1465 0.930 . S
C1473 C1471 1.419 . S
C1473 C1474 1.362 . S
C1474 H1466 0.930 . S
C1474 C1473 1.362 . S
C1474 C1477 1.409 . S
C1475 H1467 0.930 . S
C1475 C1476 1.355 . S
C1475 C1477 1.415 . S
C1476 C1475 1.355 . S
C1476 C1478 1.419 . S
C1477 C1472 1.425 . S
C1477 C1474 1.409 . S
C1477 C1475 1.415 . S
C1478 H1468 0.930 . S
C1478 C1476 1.419 . S
C1478 C1479 1.362 . S
C1479 H1469 0.930 . S
C1479 C1472 1.409 . S
C1479 C1478 1.362 . S
H1480 C1486 0.930 . S
H1481 C1489 0.930 . S
H1482 C1490 0.930 . S
H1483 C1491 0.930 . S
H1484 C1494 0.930 . S
H1485 C1495 0.930 . S
C1486 H1480 0.930 . S
C1486 C1487 1.355 . S
C1486 C1488 1.415 . S
C1487 C1486 1.355 . S
C1487 C1489 1.419 . S
C1488 C1486 1.415 . S
C1488 C1493 1.425 . S
C1488 C1495 1.409 . S
C1489 H1481 0.930 . S
C1489 C1487 1.419 . S
C1489 C1490 1.362 . S
C1490 H1482 0.930 . S
C1490 C1489 1.362 . S
C1490 C1493 1.409 . S
C1491 H1483 0.930 . S
C1491 C1492 1.355 . S
C1491 C1493 1.415 . S
C1492 C1491 1.355 . S
C1492 C1494 1.419 . S
C1493 C1488 1.425 . S
C1493 C1490 1.409 . S
C1493 C1491 1.415 . S
C1494 H1484 0.930 . S
C1494 C1492 1.419 . S
C1494 C1495 1.362 . S
C1495 H1485 0.930 . S
C1495 C1488 1.409 . S
C1495 C1494 1.362 . S
H1496 C1502 0.930 . S
H1497 C1505 0.930 . S
H1498 C1506 0.930 . S
H1499 C1507 0.930 . S
H1500 C1510 0.930 . S
H1501 C1511 0.930 . S
C1502 H1496 0.930 . S
C1502 C1503 1.355 . S
C1502 C1504 1.415 . S
C1503 C1502 1.355 . S
C1503 C1505 1.419 . S
C1504 C1502 1.415 . S
C1504 C1509 1.425 . S
C1504 C1511 1.409 . S
C1505 H1497 0.930 . S
C1505 C1503 1.419 . S
C1505 C1506 1.362 . S
C1506 H1498 0.930 . S
C1506 C1505 1.362 . S
C1506 C1509 1.409 . S
C1507 H1499 0.930 . S
C1507 C1508 1.355 . S
C1507 C1509 1.415 . S
C1508 C1507 1.355 . S
C1508 C1510 1.419 . S
C1509 C1504 1.425 . S
C1509 C1506 1.409 . S
C1509 C1507 1.415 . S
C1510 H1500 0.930 . S
C1510 C1508 1.419 . S
C1510 C1511 1.362 . S
C1511 H1501 0.930 . S
C1511 C1504 1.409 . S
C1511 C1510 1.362 . S
H1512 C1518 0.930 . S
H1513 C1521 0.930 . S
H1514 C1522 0.930 . S
H1515 C1523 0.930 . S
H1516 C1526 0.930 . S
H1517 C1527 0.930 . S
C1518 H1512 0.930 . S
C1518 C1519 1.355 . S
C1518 C1520 1.415 . S
C1519 C1518 1.355 . S
C1519 C1521 1.419 . S
C1520 C1518 1.415 . S
C1520 C1525 1.425 . S
C1520 C1527 1.409 . S
C1521 H1513 0.930 . S
C1521 C1519 1.419 . S
C1521 C1522 1.362 . S
C1522 H1514 0.930 . S
C1522 C1521 1.362 . S
C1522 C1525 1.409 . S
C1523 H1515 0.930 . S
C1523 C1524 1.355 . S
C1523 C1525 1.415 . S
C1524 C1523 1.355 . S
C1524 C1526 1.419 . S
C1525 C1520 1.425 . S
C1525 C1522 1.409 . S
C1525 C1523 1.415 . S
C1526 H1516 0.930 . S
C1526 C1524 1.419 . S
C1526 C1527 1.362 . S
C1527 H1517 0.930 . S
C1527 C1520 1.409 . S
C1527 C1526 1.362 . S
H1528 C1534 0.930 . S
H1529 C1537 0.930 . S
H1530 C1538 0.930 . S
H1531 C1539 0.930 . S
H1532 C1542 0.930 . S
H1533 C1543 0.930 . S
C1534 H1528 0.930 . S
C1534 C1535 1.355 . S
C1534 C1536 1.415 . S
C1535 C1534 1.355 . S
C1535 C1537 1.419 . S
C1536 C1534 1.415 . S
C1536 C1541 1.425 . S
C1536 C1543 1.409 . S
C1537 H1529 0.930 . S
C1537 C1535 1.419 . S
C1537 C1538 1.362 . S
C1538 H1530 0.930 . S
C1538 C1537 1.362 . S
C1538 C1541 1.409 . S
C1539 H1531 0.930 . S
C1539 C1540 1.355 . S
C1539 C1541 1.415 . S
C1540 C1539 1.355 . S
C1540 C1542 1.419 . S
C1541 C1536 1.425 . S
C1541 C1538 1.409 . S
C1541 C1539 1.415 . S
C1542 H1532 0.930 . S
C1542 C1540 1.419 . S
C1542 C1543 1.362 . S
C1543 H1533 0.930 . S
C1543 C1536 1.409 . S
C1543 C1542 1.362 . S
H1544 C1550 0.930 . S
H1545 C1553 0.930 . S
H1546 C1554 0.930 . S
H1547 C1555 0.930 . S
H1548 C1558 0.930 . S
H1549 C1559 0.930 . S
C1550 H1544 0.930 . S
C1550 C1551 1.355 . S
C1550 C1552 1.415 . S
C1551 C1550 1.355 . S
C1551 C1553 1.419 . S
C1552 C1550 1.415 . S
C1552 C1557 1.425 . S
C1552 C1559 1.409 . S
C1553 H1545 0.930 . S
C1553 C1551 1.419 . S
C1553 C1554 1.362 . S
C1554 H1546 0.930 . S
C1554 C1553 1.362 . S
C1554 C1557 1.409 . S
C1555 H1547 0.930 . S
C1555 C1556 1.355 . S
C1555 C1557 1.415 . S
C1556 C1555 1.355 . S
C1556 C1558 1.419 . S
C1557 C1552 1.425 . S
C1557 C1554 1.409 . S
C1557 C1555 1.415 . S
C1558 H1548 0.930 . S
C1558 C1556 1.419 . S
C1558 C1559 1.362 . S
C1559 H1549 0.930 . S
C1559 C1552 1.409 . S
C1559 C1558 1.362 . S
H1560 C1566 0.930 . S
H1561 C1569 0.924 1_655 S
H1562 C1570 0.930 . S
H1563 C1571 0.930 . S
H1564 C1574 0.924 1_455 S
H1565 C1575 0.930 . S
C1566 H1560 0.930 . S
C1566 C1567 1.355 . S
C1566 C1568 1.415 1_556 S
C1567 C1566 1.355 . S
C1567 C1569 1.464 . S
C1568 C1566 1.415 1_554 S
C1568 C1573 1.425 1_454 S
C1568 C1575 1.409 . S
C1569 H1561 0.924 1_455 S
C1569 C1567 1.464 . S
C1569 C1570 1.327 1_455 S
C1570 H1562 0.930 . S
C1570 C1569 1.327 1_655 S
C1570 C1573 1.409 . S
C1571 H1563 0.930 . S
C1571 C1572 1.355 . S
C1571 C1573 1.415 1_554 S
C1572 C1571 1.355 . S
C1572 C1574 1.464 . S
C1573 C1568 1.425 1_656 S
C1573 C1570 1.409 . S
C1573 C1571 1.415 1_556 S
C1574 H1564 0.924 1_655 S
C1574 C1572 1.464 . S
C1574 C1575 1.326 1_655 S
C1575 H1565 0.930 . S
C1575 C1568 1.409 . S
C1575 C1574 1.326 1_455 S
H1576 C1582 0.930 . S
H1577 C1585 0.930 . S
H1578 C1586 0.930 . S
H1579 C1587 0.930 . S
H1580 C1590 0.930 . S
H1581 C1591 0.930 . S
C1582 H1576 0.930 . S
C1582 C1583 1.355 . S
C1582 C1584 1.415 . S
C1583 C1582 1.355 . S
C1583 C1585 1.419 . S
C1584 C1582 1.415 . S
C1584 C1589 1.425 1_554 S
C1584 C1591 1.409 1_554 S
C1585 H1577 0.930 . S
C1585 C1583 1.419 . S
C1585 C1586 1.362 . S
C1586 H1578 0.930 . S
C1586 C1585 1.362 . S
C1586 C1589 1.409 1_554 S
C1587 H1579 0.930 . S
C1587 C1588 1.355 . S
C1587 C1589 1.415 . S
C1588 C1587 1.355 . S
C1588 C1590 1.419 . S
C1589 C1584 1.425 1_556 S
C1589 C1586 1.409 1_556 S
C1589 C1587 1.415 . S
C1590 H1580 0.930 . S
C1590 C1588 1.419 . S
C1590 C1591 1.362 . S
C1591 H1581 0.930 . S
C1591 C1584 1.409 1_556 S
C1591 C1590 1.362 . S
H1592 C1598 0.930 . S
H1593 C1601 0.930 . S
H1594 C1602 0.926 1_556 S
H1595 C1603 0.930 . S
H1596 C1606 0.930 . S
H1597 C1607 0.925 1_554 S
C1598 H1592 0.930 . S
C1598 C1599 1.355 . S
C1598 C1600 1.415 . S
C1599 C1598 1.355 . S
C1599 C1601 1.419 . S
C1600 C1598 1.415 . S
C1600 C1605 1.425 1_544 S
C1600 C1607 1.409 1_544 S
C1601 H1593 0.930 . S
C1601 C1599 1.419 . S
C1601 C1602 1.362 . S
C1602 H1594 0.926 1_554 S
C1602 C1601 1.362 . S
C1602 C1605 1.409 1_544 S
C1603 H1595 0.930 . S
C1603 C1604 1.355 . S
C1603 C1605 1.416 . S
C1604 C1603 1.355 . S
C1604 C1606 1.419 . S
C1605 C1600 1.425 1_566 S
C1605 C1602 1.409 1_566 S
C1605 C1603 1.416 . S
C1606 H1596 0.930 . S
C1606 C1604 1.419 . S
C1606 C1607 1.362 . S
C1607 H1597 0.925 1_556 S
C1607 C1600 1.409 1_566 S
C1607 C1606 1.362 . S
H1608 C1614 0.930 . S
H1609 C1617 0.930 . S
H1610 C1618 0.930 . S
H1611 C1619 0.930 . S
H1612 C1622 0.930 . S
H1613 C1623 0.930 . S
C1614 H1608 0.930 . S
C1614 C1615 1.355 . S
C1614 C1616 1.415 1_556 S
C1615 C1614 1.355 . S
C1615 C1617 1.419 . S
C1616 C1614 1.415 1_554 S
C1616 C1621 1.425 1_564 S
C1616 C1623 1.409 . S
C1617 H1609 0.930 . S
C1617 C1615 1.419 . S
C1617 C1618 1.362 1_565 S
C1618 H1610 0.930 . S
C1618 C1617 1.362 1_545 S
C1618 C1621 1.409 . S
C1619 H1611 0.930 . S
C1619 C1620 1.355 . S
C1619 C1621 1.415 1_554 S
C1620 C1619 1.355 . S
C1620 C1622 1.419 . S
C1621 C1616 1.425 1_546 S
C1621 C1618 1.409 . S
C1621 C1619 1.415 1_556 S
C1622 H1612 0.930 . S
C1622 C1620 1.419 . S
C1622 C1623 1.362 1_545 S
C1623 H1613 0.930 . S
C1623 C1616 1.409 . S
C1623 C1622 1.362 1_565 S
H1624 C1630 0.976 . S
H1625 C1633 0.930 . S
H1626 C1634 0.930 . S
H1627 C1635 0.976 . S
H1628 C1638 0.930 . S
H1629 C1639 0.930 . S
C1630 H1624 0.976 . S
C1630 C1631 1.355 . S
C1630 C1632 1.415 1_455 S
C1631 C1630 1.355 . S
C1631 C1633 1.419 . S
C1632 C1630 1.415 1_655 S
C1632 C1637 1.425 1_656 S
C1632 C1639 1.409 . S
C1633 H1625 0.930 . S
C1633 C1631 1.419 . S
C1633 C1634 1.362 1_556 S
C1634 H1626 0.930 . S
C1634 C1633 1.362 1_554 S
C1634 C1637 1.409 . S
C1635 H1627 0.976 . S
C1635 C1636 1.355 . S
C1635 C1637 1.415 1_655 S
C1636 C1635 1.355 . S
C1636 C1638 1.419 . S
C1637 C1632 1.425 1_454 S
C1637 C1634 1.409 . S
C1637 C1635 1.415 1_455 S
C1638 H1628 0.930 . S
C1638 C1636 1.419 . S
C1638 C1639 1.362 1_554 S
C1639 H1629 0.930 . S
C1639 C1632 1.409 . S
C1639 C1638 1.362 1_556 S
H1640 C1646 0.930 . S
H1641 C1649 0.930 . S
H1642 C1650 0.930 1_556 S
H1643 C1651 0.930 . S
H1644 C1654 0.930 . S
H1645 C1655 0.930 1_554 S
C1646 H1640 0.930 . S
C1646 C1647 1.355 . S
C1646 C1648 1.415 . S
C1647 C1646 1.355 . S
C1647 C1649 1.419 . S
C1648 C1646 1.415 . S
C1648 C1653 1.425 1_554 S
C1648 C1655 1.409 1_554 S
C1649 H1641 0.930 . S
C1649 C1647 1.419 . S
C1649 C1650 1.362 . S
C1650 H1642 0.930 1_554 S
C1650 C1649 1.362 . S
C1650 C1653 1.409 1_554 S
C1651 H1643 0.930 . S
C1651 C1652 1.355 . S
C1651 C1653 1.415 . S
C1652 C1651 1.355 . S
C1652 C1654 1.419 . S
C1653 C1648 1.425 1_556 S
C1653 C1650 1.409 1_556 S
C1653 C1651 1.415 . S
C1654 H1644 0.930 . S
C1654 C1652 1.419 . S
C1654 C1655 1.362 . S
C1655 H1645 0.930 1_556 S
C1655 C1648 1.409 1_556 S
C1655 C1654 1.362 . S
C511 C12 1.194 . S
C516 C166 1.141 . S
C527 C26 1.141 . S
C532 C138 1.194 . S
C543 C152 1.160 . S
C548 C40 1.176 . S
C559 C54 1.144 . S
C564 C110 1.192 . S
C575 C124 1.140 . S
C580 C68 1.195 . S
C591 C82 1.170 . S
C596 C96 1.166 . S
C607 C334 1.162 . S
C612 C180 1.174 . S
C623 C194 1.194 . S
C628 C306 1.141 . S
C639 C208 1.191 . S
C644 C320 1.145 . S
C655 C278 1.194 . S
C660 C222 1.141 . S
C671 C236 1.172 . S
C676 C292 1.164 . S
C687 C264 1.194 . S
C692 C250 1.142 . S
C703 C348 1.148 . S
C708 C502 1.188 . S
C719 C474 1.189 . S
C724 C362 1.147 . S
C735 C488 1.173 . S
C740 C376 1.163 . S
C751 C446 1.149 . S
C756 C390 1.187 . S
C767 C460 1.152 . S
C772 C404 1.184 . S
C783 C432 1.194 . S
C788 C418 1.142 . S
C799 C5 1.038 . S
C804 C61 1.114 . S
C815 C75 1.168 . S
C820 C19 1.138 . S
C831 C33 1.106 . S
C836 C47 1.033 . S
C847 C89 1.128 . S
C852 C145 1.050 . S
C863 C103 1.032 . S
C868 C159 1.104 . S
C879 C117 1.121 . S
C884 C131 1.044 . S
C895 C229 1.153 . S
C900 C173 1.081 . S
C911 C243 1.038 . S
C916 C187 1.114 . S
C927 C201 1.069 . S
C932 C215 1.019 . S
C943 C313 1.032 . S
C948 C257 1.105 . S
C959 C327 1.113 . S
C964 C271 1.166 . S
C975 C285 1.103 . S
C980 C299 1.164 . S
C991 C397 1.168 . S
C996 C341 1.128 . S
C1007 C355 1.159 . S
C1012 C411 1.093 . S
C1023 C369 1.063 . S
C1028 C383 1.140 . S
C1039 C481 1.037 . S
C1044 C425 1.112 . S
C1055 C439 1.162 . S
C1060 C495 1.099 . S
C1071 C467 1.162 . S
C1076 C453 1.098 . S
C1087 C410 1.393 . S
C1092 C4 1.422 . S
C1103 C18 1.462 . S
C1108 C382 1.424 . S
C1119 C32 1.411 . S
C1124 C396 1.399 . S
C1135 C46 1.452 . S
C1140 C186 1.395 . S
C1151 C200 1.413 . S
C1156 C60 1.397 . S
C1167 C172 1.462 . S
C1172 C74 1.413 . S
C1183 C88 1.438 . S
C1188 C326 1.390 . S
C1199 C102 1.397 . S
C1204 C298 1.415 . S
C1215 C116 1.391 . S
C1220 C312 1.444 . S
C1231 C438 1.447 . S
C1236 C130 1.392 . S
C1247 C452 1.413 . S
C1252 C144 1.397 . S
C1263 C158 1.423 . S
C1268 C424 1.393 . S
C1279 C354 1.461 . S
C1284 C214 1.409 . S
C1295 C228 1.390 . S
C1300 C368 1.439 . S
C1311 C340 1.407 . S
C1316 C242 1.461 . S
C1327 C494 1.427 . S
C1332 C256 1.392 . S
C1343 C270 1.402 . S
C1348 C466 1.459 . S
C1359 C284 1.455 . S
C1364 C480 1.397 . S
C1375 C11 1.539 . S
C1380 C417 1.504 . S
C1391 C389 1.535 . S
C1396 C25 1.564 . S
C1407 C39 1.557 . S
C1412 C403 1.506 . S
C1423 C193 1.507 . S
C1428 C53 1.531 . S
C1439 C67 1.504 . S
C1444 C207 1.545 . S
C1455 C81 1.512 . S
C1460 C179 1.562 . S
C1471 C333 1.510 . S
C1476 C95 1.561 . S
C1487 C109 1.504 . S
C1492 C305 1.540 . S
C1503 C123 1.565 . S
C1508 C319 1.533 . S
C1519 C137 1.565 . S
C1524 C445 1.518 . S
C1535 C459 1.564 . S
C1540 C151 1.515 . S
C1551 C165 1.505 . S
C1556 C431 1.554 . S
C1567 C361 1.531 . S
C1572 C221 1.507 . S
C1583 C235 1.503 . S
C1588 C375 1.546 . S
C1599 C249 1.508 . S
C1604 C347 1.559 . S
C1615 C501 1.526 . S
C1620 C263 1.510 . S
C1631 C473 1.544 . S
C1636 C277 1.560 . S
C1647 C291 1.530 . S
C1652 C487 1.565 . S
