# Generated by pormake.
# Topology dia, (4)-cn, num edge types: 1
# Building blocks:
#     Node 0, Type 0, BuildingBlock: TATPOV_clean_sbu_0, # of connection points: 4
#     Node 1, Type 0, BuildingBlock: TATPOV_clean_sbu_0, # of connection points: 4
#     Node 2, Type 0, BuildingBlock: TATPOV_clean_sbu_0, # of connection points: 4
#     Node 3, Type 0, BuildingBlock: TATPOV_clean_sbu_0, # of connection points: 4
#     Node 4, Type 0, BuildingBlock: TATPOV_clean_sbu_0, # of connection points: 4
#     Node 5, Type 0, BuildingBlock: TATPOV_clean_sbu_0, # of connection points: 4
#     Node 6, Type 0, BuildingBlock: TATPOV_clean_sbu_0, # of connection points: 4
#     Node 7, Type 0, BuildingBlock: TATPOV_clean_sbu_0, # of connection points: 4
#     Edge 8, Type (0, 0), BuildingBlock: XUDNAN_clean_linker_2, # of connection points: 2
#     Edge 9, Type (0, 0), BuildingBlock: XUDNAN_clean_linker_2, # of connection points: 2
#     Edge 10, Type (0, 0), BuildingBlock: XUDNAN_clean_linker_2, # of connection points: 2
#     Edge 11, Type (0, 0), BuildingBlock: XUDNAN_clean_linker_2, # of connection points: 2
#     Edge 12, Type (0, 0), BuildingBlock: XUDNAN_clean_linker_2, # of connection points: 2
#     Edge 13, Type (0, 0), BuildingBlock: XUDNAN_clean_linker_2, # of connection points: 2
#     Edge 14, Type (0, 0), BuildingBlock: XUDNAN_clean_linker_2, # of connection points: 2
#     Edge 15, Type (0, 0), BuildingBlock: XUDNAN_clean_linker_2, # of connection points: 2
#     Edge 16, Type (0, 0), BuildingBlock: XUDNAN_clean_linker_2, # of connection points: 2
#     Edge 17, Type (0, 0), BuildingBlock: XUDNAN_clean_linker_2, # of connection points: 2
#     Edge 18, Type (0, 0), BuildingBlock: XUDNAN_clean_linker_2, # of connection points: 2
#     Edge 19, Type (0, 0), BuildingBlock: XUDNAN_clean_linker_2, # of connection points: 2
#     Edge 20, Type (0, 0), BuildingBlock: XUDNAN_clean_linker_2, # of connection points: 2
#     Edge 21, Type (0, 0), BuildingBlock: XUDNAN_clean_linker_2, # of connection points: 2
#     Edge 22, Type (0, 0), BuildingBlock: XUDNAN_clean_linker_2, # of connection points: 2
#     Edge 23, Type (0, 0), BuildingBlock: XUDNAN_clean_linker_2, # of connection points: 2
# Relax obj value: 0.006
# Max RMSD: 0.038
# Mean RMSD: 0.038
data_MOF--net-dia--node1-TATPOV_clean_sbu_0--edge1-XUDNAN_clean_linker_2
_symmetry_space_group_name_H-M    P1
_symmetry_Int_Tables_number       1
_symmetry_cell_setting            triclinic
loop_
_symmetry_equiv_pos_as_xyz
'x, y, z'
_cell_length_a     32.029121
_cell_length_b     36.432953
_cell_length_c     36.35258
_cell_angle_alpha  93.806085
_cell_angle_beta   92.992966
_cell_angle_gamma 93.122289
loop_
_atom_site_label
_atom_site_type_symbol
_atom_site_fract_x
_atom_site_fract_y
_atom_site_fract_z
_atom_type_partial_charge
Zn0 Zn 0.22583 0.09515 0.62034 0.0
Zn1 Zn 0.1639 0.12773 0.64665 0.0
O2 O 0.18429 0.0928 0.68686 0.0
O3 O 0.23403 0.06287 0.66075 0.0
O4 O 0.11711 0.15586 0.67135 0.0
O5 O 0.26252 0.13983 0.619 0.0
O6 O 0.20648 0.16949 0.63184 0.0
C7 C 0.21129 0.0682 0.68768 0.0
C8 C 0.15245 0.07917 0.57429 0.0
O9 O 0.13585 0.09737 0.60048 0.0
O10 O 0.19158 0.07595 0.57535 0.0
C11 C 0.09306 0.13898 0.69231 0.0
O12 O 0.09774 0.10377 0.69596 0.0
C13 C 0.24458 0.16971 0.62284 0.0
Zn14 Zn 0.77425 0.38837 0.84368 0.0
Zn15 Zn 0.83736 0.35677 0.82156 0.0
O16 O 0.79388 0.31808 0.8411 0.0
O17 O 0.73568 0.34613 0.84898 0.0
O18 O 0.88283 0.32455 0.80022 0.0
O19 O 0.76483 0.41653 0.80098 0.0
O20 O 0.82029 0.39111 0.77962 0.0
C21 C 0.75556 0.31726 0.84952 0.0
C22 C 0.84785 0.4095 0.88977 0.0
O23 O 0.86535 0.38946 0.86554 0.0
O24 O 0.80857 0.41211 0.88757 0.0
C25 C 0.89383 0.29742 0.81814 0.0
O26 O 0.87719 0.29261 0.84988 0.0
C27 C 0.7908 0.41318 0.77628 0.0
Zn28 Zn 0.70039 0.12813 0.09833 0.0
Zn29 Zn 0.63507 0.15355 0.12327 0.0
O30 O 0.67129 0.13282 0.16574 0.0
O31 O 0.73289 0.12271 0.14463 0.0
O32 O 0.59212 0.18375 0.15 0.0
O33 O 0.71771 0.16737 0.0676 0.0
O34 O 0.65788 0.18831 0.08408 0.0
C35 C 0.70866 0.12298 0.17085 0.0
C36 C 0.62257 0.08408 0.07627 0.0
O37 O 0.60462 0.10931 0.09443 0.0
O38 O 0.66212 0.08576 0.07484 0.0
C39 C 0.58053 0.17783 0.18224 0.0
O40 O 0.59493 0.14978 0.19884 0.0
C41 C 0.69001 0.19043 0.0647 0.0
Zn42 Zn 0.86418 0.9379 0.38134 0.0
Zn43 Zn 0.89312 0.88844 0.34921 0.0
O44 O 0.85263 0.86459 0.38501 0.0
O45 O 0.81106 0.9103 0.3914 0.0
O46 O 0.91852 0.84632 0.31901 0.0
O47 O 0.86543 0.97153 0.34091 0.0
O48 O 0.86055 0.91745 0.31033 0.0
C49 C 0.81887 0.87737 0.39646 0.0
C50 C 0.9434 0.9368 0.40904 0.0
O51 O 0.94413 0.91763 0.37835 0.0
O52 O 0.90865 0.94528 0.42094 0.0
C53 C 0.94541 0.82675 0.33414 0.0
O54 O 0.95563 0.83354 0.36952 0.0
C55 C 0.85646 0.95213 0.31128 0.0
Zn56 Zn 0.1435 0.54034 0.07914 0.0
Zn57 Zn 0.1105 0.5876 0.12121 0.0
O58 O 0.13222 0.54785 0.15536 0.0
O59 O 0.15255 0.50447 0.11645 0.0
O60 O 0.08765 0.6248 0.15894 0.0
O61 O 0.19021 0.57368 0.06662 0.0
O62 O 0.15721 0.61755 0.09536 0.0
C63 C 0.14629 0.51601 0.14908 0.0
C64 C 0.05953 0.54688 0.05569 0.0
O65 O 0.05979 0.56766 0.08548 0.0
O66 O 0.09301 0.53348 0.04568 0.0
C67 C 0.05964 0.6479 0.15421 0.0
O68 O 0.04172 0.6499 0.12113 0.0
C69 C 0.18711 0.60742 0.0757 0.0
Zn70 Zn 0.32084 0.42825 0.43429 0.0
Zn71 Zn 0.36863 0.38446 0.39072 0.0
O72 O 0.35387 0.35114 0.43224 0.0
O73 O 0.30982 0.38406 0.46349 0.0
O74 O 0.40164 0.35497 0.35339 0.0
O75 O 0.28276 0.4375 0.39087 0.0
O76 O 0.31841 0.39836 0.358 0.0
C77 C 0.32912 0.35488 0.45847 0.0
C78 C 0.40654 0.45575 0.43257 0.0
O79 O 0.40922 0.42788 0.40984 0.0
O80 O 0.37236 0.46163 0.44731 0.0
C81 C 0.41886 0.32456 0.35676 0.0
O82 O 0.41677 0.30851 0.38797 0.0
C83 C 0.28817 0.41956 0.36068 0.0
Zn84 Zn 0.32578 0.88496 0.94325 0.0
Zn85 Zn 0.36897 0.84982 0.89216 0.0
O86 O 0.34197 0.80926 0.92293 0.0
O87 O 0.30784 0.83913 0.96548 0.0
O88 O 0.40242 0.82077 0.85416 0.0
O89 O 0.28897 0.90461 0.90479 0.0
O90 O 0.32677 0.87954 0.86183 0.0
C91 C 0.3193 0.80919 0.95083 0.0
C92 C 0.41243 0.90786 0.94891 0.0
O93 O 0.41421 0.88373 0.92202 0.0
O94 O 0.37779 0.91384 0.9627 0.0
C95 C 0.42263 0.79415 0.86555 0.0
O96 O 0.42118 0.78711 0.90046 0.0
C97 C 0.29666 0.89926 0.87118 0.0
Zn98 Zn 0.7096 0.65396 0.58105 0.0
Zn99 Zn 0.65307 0.67445 0.62226 0.0
O100 O 0.69429 0.6432 0.65305 0.0
O101 O 0.74533 0.63106 0.61662 0.0
O102 O 0.61164 0.69297 0.65985 0.0
O103 O 0.72797 0.70243 0.56784 0.0
O104 O 0.67676 0.7229 0.60013 0.0
C105 C 0.72919 0.62883 0.6473 0.0
C106 C 0.62994 0.62203 0.55455 0.0
O107 O 0.61771 0.64057 0.58266 0.0
O108 O 0.66833 0.6232 0.54792 0.0
C109 C 0.59802 0.67145 0.6833 0.0
O110 O 0.61012 0.63752 0.682 0.0
C111 C 0.70723 0.72877 0.57952 0.0
H112 H 0.25954 0.3361 0.49469 0.0
H113 H 0.38896 0.3103 0.48263 0.0
H114 H 0.38345 0.26704 0.53207 0.0
H115 H 0.2565 0.32911 0.59407 0.0
H116 H 0.20462 0.30692 0.59105 0.0
H117 H 0.21953 0.33847 0.55723 0.0
H118 H 0.19989 0.28815 0.5044 0.0
H119 H 0.18406 0.25687 0.538 0.0
H120 H 0.22254 0.24399 0.5058 0.0
H121 H 0.36395 0.22678 0.58167 0.0
H122 H 0.32851 0.18201 0.61901 0.0
H123 H 0.2101 0.23096 0.59647 0.0
C124 C 0.28673 0.3214 0.50264 0.0
C125 C 0.32479 0.32657 0.48522 0.0
C126 C 0.35953 0.30651 0.49567 0.0
C127 C 0.35682 0.28233 0.52399 0.0
C128 C 0.31904 0.27837 0.54113 0.0
C129 C 0.2843 0.29665 0.53029 0.0
C130 C 0.24623 0.28452 0.55042 0.0
C131 C 0.23083 0.31668 0.57463 0.0
C132 C 0.21113 0.26735 0.52303 0.0
C133 C 0.26479 0.25596 0.57383 0.0
C134 C 0.30712 0.2537 0.56875 0.0
C135 C 0.33088 0.2283 0.58594 0.0
C136 C 0.31044 0.20307 0.6072 0.0
C137 C 0.26652 0.20298 0.61053 0.0
C138 C 0.24376 0.2308 0.59495 0.0
H139 H 0.68777 0.58038 0.6883 0.0
H140 H 0.81183 0.61832 0.65983 0.0
H141 H 0.84147 0.56387 0.68601 0.0
H142 H 0.72025 0.53849 0.77473 0.0
H143 H 0.68117 0.50101 0.76584 0.0
H144 H 0.67183 0.54548 0.74928 0.0
H145 H 0.65782 0.51432 0.68322 0.0
H146 H 0.66902 0.47003 0.6993 0.0
H147 H 0.69784 0.48817 0.66259 0.0
H148 H 0.85646 0.50235 0.7105 0.0
H149 H 0.85698 0.4438 0.74156 0.0
H150 H 0.72246 0.44527 0.74985 0.0
C151 C 0.72137 0.578 0.68907 0.0
C152 C 0.74767 0.60363 0.67261 0.0
C153 C 0.79134 0.59903 0.67282 0.0
C154 C 0.80836 0.56805 0.68722 0.0
C155 C 0.78119 0.54195 0.70107 0.0
C156 C 0.73878 0.54698 0.70282 0.0
C157 C 0.71609 0.51419 0.71768 0.0
C158 C 0.69619 0.52546 0.75405 0.0
C159 C 0.68326 0.4956 0.68897 0.0
C160 C 0.7523 0.48998 0.72391 0.0
C161 C 0.7896 0.50626 0.71402 0.0
C162 C 0.82744 0.48928 0.7184 0.0
C163 C 0.8274 0.45578 0.73547 0.0
C164 C 0.78977 0.44006 0.74787 0.0
C165 C 0.75167 0.4566 0.74038 0.0
H166 H 0.53734 0.0696 0.07354 0.0
H167 H 0.65205 0.02901 0.03168 0.0
H168 H 0.61106 0.97904 0.99482 0.0
H169 H 0.48463 0.98013 0.08067 0.0
H170 H 0.434 0.99527 0.06643 0.0
H171 H 0.47259 0.02748 0.09014 0.0
H172 H 0.4664 0.07032 0.03616 0.0
H173 H 0.42793 0.03819 0.01224 0.0
H174 H 0.47448 0.05229 0.98985 0.0
H175 H 0.55732 0.93459 0.96063 0.0
H176 H 0.49449 0.89777 0.93373 0.0
H177 H 0.41594 0.96724 0.99892 0.0
C178 C 0.55387 0.05012 0.05682 0.0
C179 C 0.59786 0.05329 0.05553 0.0
C180 C 0.6183 0.02717 0.0332 0.0
C181 C 0.59536 0.99866 0.01208 0.0
C182 C 0.55202 0.99653 0.01372 0.0
C183 C 0.53151 0.02141 0.03566 0.0
C184 C 0.48468 0.01313 0.03232 0.0
C185 C 0.46801 0.00342 0.0696 0.0
C186 C 0.46206 0.0454 0.0167 0.0
C187 C 0.48212 0.97988 0.00493 0.0
C188 C 0.52122 0.97072 0.99442 0.0
C189 C 0.52649 0.94134 0.96878 0.0
C190 C 0.49069 0.92067 0.9536 0.0
C191 C 0.45037 0.92951 0.96432 0.0
C192 C 0.44631 0.95954 0.9903 0.0
H193 H 0.9342 0.80537 0.25932 0.0
H194 H 0.00385 0.78144 0.3598 0.0
H195 H 0.03985 0.73357 0.3249 0.0
H196 H 0.92063 0.7108 0.22029 0.0
H197 H 0.92706 0.72278 0.17352 0.0
H198 H 0.90615 0.75517 0.20633 0.0
H199 H 0.96416 0.80417 0.1933 0.0
H200 H 0.98529 0.77191 0.16051 0.0
H201 H 0.01834 0.79337 0.19845 0.0
H202 H 0.06935 0.68872 0.27939 0.0
H203 H 0.08966 0.64932 0.22628 0.0
H204 H 1.00131 0.70132 0.15455 0.0
C205 C 0.95692 0.78998 0.27401 0.0
C206 C 0.96607 0.79734 0.31247 0.0
C207 C 0.99613 0.7765 0.33047 0.0
C208 C 0.01685 0.74916 0.31085 0.0
C209 C 0.00729 0.74272 0.27308 0.0
C210 C 0.97799 0.76242 0.25477 0.0
C211 C 0.97383 0.74993 0.21393 0.0
C212 C 0.92927 0.7337 0.20288 0.0
C213 C 0.98615 0.78174 0.19015 0.0
C214 C 0.00545 0.7203 0.21222 0.0
C215 C 0.02434 0.71665 0.24671 0.0
C216 C 0.05471 0.69129 0.25225 0.0
C217 C 0.06608 0.669 0.22181 0.0
C218 C 0.04719 0.67205 0.18607 0.0
C219 C 0.01641 0.69818 0.18142 0.0
H220 H 0.31886 0.91691 0.80225 0.0
H221 H 0.221 0.92845 0.87973 0.0
H222 H 0.18657 0.97148 0.84017 0.0
H223 H 0.32869 0.00874 0.78346 0.0
H224 H 0.33728 0.00087 0.73503 0.0
H225 H 0.35157 0.96714 0.76667 0.0
H226 H 0.30505 0.91672 0.72789 0.0
H227 H 0.2912 0.95018 0.69569 0.0
H228 H 0.25074 0.92431 0.71719 0.0
H229 H 0.16688 0.01858 0.79568 0.0
H230 H 0.16065 0.06211 0.74634 0.0
H231 H 0.27151 0.0196 0.69884 0.0
C232 C 0.28953 0.92759 0.81028 0.0
C233 C 0.27261 0.91928 0.84398 0.0
C234 C 0.23459 0.93448 0.85397 0.0
C235 C 0.21475 0.95897 0.83172 0.0
C236 C 0.23316 0.96787 0.79944 0.0
C237 C 0.26935 0.95225 0.78843 0.0
C238 C 0.284 0.96805 0.75361 0.0
C239 C 0.32798 0.98734 0.76011 0.0
C240 C 0.28264 0.93803 0.7217 0.0
C241 C 0.25102 0.9955 0.74736 0.0
C242 C 0.22182 0.99497 0.77392 0.0
C243 C 0.18928 0.01897 0.77441 0.0
C244 C 0.18614 0.04375 0.7465 0.0
C245 C 0.21546 0.04422 0.71871 0.0
C246 C 0.24835 0.01986 0.71952 0.0
H247 H 0.93258 0.4259 0.89413 0.0
H248 H 0.81944 0.44429 0.95179 0.0
H249 H 0.86014 0.48539 0.99891 0.0
H250 H 1.00189 0.42434 0.97443 0.0
H251 H 0.04485 0.44789 0.95392 0.0
H252 H 0.00631 0.42005 0.92511 0.0
H253 H 0.99246 0.47617 0.88679 0.0
H254 H 0.03051 0.50434 0.9159 0.0
H255 H 0.97769 0.51849 0.9098 0.0
H256 H 0.91414 0.52411 0.04062 0.0
H257 H 0.97769 0.55383 0.07459 0.0
H258 H 0.0534 0.51134 0.98752 0.0
C259 C 0.91641 0.43831 0.9168 0.0
C260 C 0.87291 0.43182 0.91931 0.0
C261 C 0.85283 0.4489 0.94928 0.0
C262 C 0.87561 0.4724 0.97613 0.0
C263 C 0.91836 0.47877 0.97248 0.0
C264 C 0.93854 0.46209 0.94362 0.0
C265 C 0.98473 0.47317 0.94608 0.0
C266 C 0.01098 0.43936 0.95015 0.0
C267 C 0.99705 0.4943 0.91266 0.0
C268 C 0.9875 0.49818 0.98109 0.0
C269 C 0.94898 0.50136 0.99594 0.0
C270 C 0.94448 0.52202 0.02913 0.0
C271 C 0.98062 0.53897 0.04813 0.0
C272 C 0.02045 0.53491 0.03377 0.0
C273 C 0.02344 0.51506 0.99934 0.0
H274 H 0.46047 0.26013 0.3544 0.0
H275 H 0.42694 0.34991 0.28793 0.0
H276 H 0.46297 0.32158 0.23576 0.0
H277 H 0.56302 0.25045 0.32085 0.0
H278 H 0.5604 0.20094 0.32135 0.0
H279 H 0.53133 0.22797 0.35325 0.0
H280 H 0.46287 0.19078 0.3295 0.0
H281 H 0.49173 0.16368 0.29745 0.0
H282 H 0.44768 0.18791 0.28089 0.0
H283 H 0.50349 0.2836 0.19066 0.0
H284 H 0.54621 0.23957 0.15683 0.0
H285 H 0.55332 0.17458 0.2526 0.0
C286 C 0.4606 0.27385 0.32888 0.0
C287 C 0.44074 0.30734 0.3254 0.0
C288 C 0.44185 0.3243 0.29142 0.0
C289 C 0.46223 0.30838 0.26154 0.0
C290 C 0.48143 0.2754 0.26591 0.0
C291 C 0.48084 0.25834 0.29874 0.0
C292 C 0.50433 0.22328 0.29636 0.0
C293 C 0.54201 0.22583 0.32463 0.0
C294 C 0.47489 0.18941 0.30134 0.0
C295 C 0.51837 0.22336 0.25715 0.0
C296 C 0.50475 0.2536 0.24 0.0
C297 C 0.51425 0.25978 0.20382 0.0
C298 C 0.53853 0.23456 0.18478 0.0
C299 C 0.55317 0.20349 0.2019 0.0
C300 C 0.54259 0.19791 0.23856 0.0
H301 H 0.84585 0.83078 0.44656 0.0
H302 H 0.7351 0.88167 0.4054 0.0
H303 H 0.69502 0.85663 0.45555 0.0
H304 H 0.79535 0.74832 0.47422 0.0
H305 H 0.83017 0.74683 0.51461 0.0
H306 H 0.84804 0.76855 0.47489 0.0
H307 H 0.86814 0.82816 0.51669 0.0
H308 H 0.84862 0.8069 0.55625 0.0
H309 H 0.82865 0.84965 0.54284 0.0
H310 H 0.66666 0.82279 0.50886 0.0
H311 H 0.6517 0.77824 0.55586 0.0
H312 H 0.78331 0.75656 0.56527 0.0
C313 C 0.81295 0.83601 0.44767 0.0
C314 C 0.79324 0.8575 0.42191 0.0
C315 C 0.75048 0.86476 0.42479 0.0
C316 C 0.72768 0.85106 0.45336 0.0
C317 C 0.7485 0.83099 0.4792 0.0
C318 C 0.79015 0.82344 0.47645 0.0
C319 C 0.80537 0.80103 0.50731 0.0
C320 C 0.82058 0.76399 0.49183 0.0
C321 C 0.83973 0.82275 0.53224 0.0
C322 C 0.76544 0.79598 0.52719 0.0
C323 C 0.73292 0.81369 0.51093 0.0
C324 C 0.69203 0.80939 0.52232 0.0
C325 C 0.68383 0.78448 0.54937 0.0
C326 C 0.71649 0.76443 0.56428 0.0
C327 C 0.75797 0.77212 0.55469 0.0
H328 H 0.15906 0.53656 0.22325 0.0
H329 H 0.16087 0.44312 0.14282 0.0
H330 H 0.19011 0.40586 0.19072 0.0
H331 H 0.25429 0.52476 0.26703 0.0
H332 H 0.24005 0.53748 0.31328 0.0
H333 H 0.21273 0.5554 0.27454 0.0
H334 H 0.14196 0.52939 0.29628 0.0
H335 H 0.16907 0.51162 0.33541 0.0
H336 H 0.13532 0.48118 0.30434 0.0
H337 H 0.22929 0.38201 0.24344 0.0
H338 H 0.27204 0.37173 0.29995 0.0
H339 H 0.24308 0.47921 0.34741 0.0
C340 C 0.16441 0.50795 0.21606 0.0
C341 C 0.15774 0.49278 0.17934 0.0
C342 C 0.16588 0.4554 0.17077 0.0
C343 C 0.18233 0.4339 0.19781 0.0
C344 C 0.19005 0.45 0.23341 0.0
C345 C 0.18088 0.48598 0.24283 0.0
C346 C 0.19559 0.49742 0.28239 0.0
C347 C 0.22756 0.53072 0.2844 0.0
C348 C 0.15825 0.50536 0.306 0.0
C349 C 0.21594 0.4628 0.29307 0.0
C350 C 0.21207 0.4357 0.26448 0.0
C351 C 0.23171 0.40262 0.26642 0.0
C352 C 0.25611 0.39711 0.29845 0.0
C353 C 0.26039 0.42449 0.32807 0.0
C354 C 0.23953 0.45748 0.32547 0.0
H355 H 0.79706 0.27342 0.89482 0.0
H356 H 0.67296 0.29673 0.85243 0.0
H357 H 0.64193 0.26643 0.90408 0.0
H358 H 0.76566 0.18306 0.93519 0.0
H359 H 0.80287 0.19359 0.97387 0.0
H360 H 0.81367 0.20968 0.92934 0.0
H361 H 0.82443 0.2761 0.95973 0.0
H362 H 0.81158 0.26066 0.00395 0.0
H363 H 0.78243 0.29602 0.98388 0.0
H364 H 0.62578 0.24476 0.96616 0.0
H365 H 0.6243 0.21971 0.02774 0.0
H366 H 0.75917 0.21218 0.0297 0.0
C367 C 0.76326 0.27023 0.89521 0.0
C368 C 0.73734 0.28713 0.86962 0.0
C369 C 0.69326 0.28358 0.8717 0.0
C370 C 0.67539 0.26679 0.90113 0.0
C371 C 0.70209 0.2534 0.92787 0.0
C372 C 0.74497 0.25381 0.92459 0.0
C373 C 0.76694 0.24026 0.9585 0.0
C374 C 0.78854 0.20451 0.94864 0.0
C375 C 0.79817 0.27005 0.97761 0.0
C376 C 0.7299 0.23329 0.98171 0.0
C377 C 0.69277 0.24109 0.96369 0.0
C378 C 0.65459 0.23791 0.98033 0.0
C379 C 0.65412 0.22431 0.01555 0.0
C380 C 0.6916 0.21405 0.03342 0.0
C381 C 0.73 0.21979 0.01667 0.0
H382 H 0.87591 0.01535 0.27923 0.0
H383 H 0.77895 0.92834 0.28366 0.0
H384 H 0.72741 0.96744 0.25478 0.0
H385 H 0.81652 0.08986 0.30048 0.0
H386 H 0.83904 0.12004 0.26852 0.0
H387 H 0.86938 0.08465 0.28704 0.0
H388 H 0.88196 0.05707 0.22117 0.0
H389 H 0.85356 0.09353 0.20253 0.0
H390 H 0.83781 0.04615 0.18874 0.0
H391 H 0.68532 0.01903 0.23299 0.0
H392 H 0.65925 0.07166 0.20096 0.0
H393 H 0.78488 0.12318 0.20733 0.0
C394 C 0.84419 0.00409 0.27265 0.0
C395 C 0.83123 0.96887 0.283 0.0
C396 C 0.78944 0.95502 0.27495 0.0
C397 C 0.75988 0.97728 0.25931 0.0
C398 C 0.77311 0.01286 0.25149 0.0
C399 C 0.81461 0.02559 0.25642 0.0
C400 C 0.82102 0.06437 0.24453 0.0
C401 C 0.83746 0.0913 0.2771 0.0
C402 C 0.85029 0.06533 0.21231 0.0
C403 C 0.77656 0.0716 0.23236 0.0
C404 C 0.74921 0.04196 0.23757 0.0
C405 C 0.70646 0.04229 0.22844 0.0
C406 C 0.6918 0.07258 0.21091 0.0
C407 C 0.72014 0.1014 0.20202 0.0
C408 C 0.7626 0.10167 0.21439 0.0
H409 H 0.9489 0.97261 0.47724 0.0
H410 H 0.02451 0.93782 0.38692 0.0
H411 H 0.08653 0.97173 0.41922 0.0
H412 H 0.99369 0.06292 0.49208 0.0
H413 H 0.99115 0.06477 0.54158 0.0
H414 H 0.95367 0.03574 0.51276 0.0
H415 H 0.97409 0.97886 0.54744 0.0
H416 H 0.01112 0.00781 0.57684 0.0
H417 H 0.02824 0.96776 0.55136 0.0
H418 H 0.13891 0.01193 0.46031 0.0
H419 H 0.17934 0.05147 0.50871 0.0
H420 H 0.06794 0.06069 0.57107 0.0
C421 C 0.97856 0.97167 0.46428 0.0
C422 C 0.98193 0.95261 0.42949 0.0
C423 C 0.02132 0.95209 0.41363 0.0
C424 C 0.05657 0.97142 0.43167 0.0
C425 C 0.05166 0.99089 0.46543 0.0
C426 C 0.0137 0.99078 0.48171 0.0
C427 C 0.01622 0.01431 0.51773 0.0
C428 C 0.98695 0.04633 0.5159 0.0
C429 C 0.00688 0.99077 0.55026 0.0
C430 C 0.06164 0.02805 0.51922 0.0
C431 C 0.08153 0.01422 0.48882 0.0
C432 C 0.12368 0.02279 0.48424 0.0
C433 C 0.1463 0.04536 0.51188 0.0
C434 C 0.12672 0.05921 0.54366 0.0
C435 C 0.08365 0.05086 0.54697 0.0
H436 H 0.94489 0.30134 0.75822 0.0
H437 H 0.90842 0.23094 0.84438 0.0
H438 H 0.95436 0.184 0.82098 0.0
H439 H 0.9521 0.22837 0.68634 0.0
H440 H 0.9978 0.24902 0.66719 0.0
H441 H 0.96162 0.27774 0.69008 0.0
H442 H 0.02212 0.30723 0.73419 0.0
H443 H 0.05849 0.27864 0.71138 0.0
H444 H 0.05409 0.27803 0.76057 0.0
H445 H 1.00208 0.1437 0.78837 0.0
H446 H 0.05262 0.11315 0.75003 0.0
H447 H 0.06271 0.20883 0.68511 0.0
C448 C 0.94662 0.27604 0.7721 0.0
C449 C 0.92277 0.27 0.80325 0.0
C450 C 0.92623 0.23651 0.82065 0.0
C451 C 0.95225 0.20949 0.80749 0.0
C452 C 0.97518 0.21618 0.77691 0.0
C453 C 0.97304 0.24864 0.75948 0.0
C454 C 1.00197 0.24863 0.72746 0.0
C455 C 0.97687 0.25108 0.69058 0.0
C456 C 0.0362 0.28 0.73379 0.0
C457 C 0.02042 0.21109 0.72972 0.0
C458 C 0.00408 0.19292 0.75838 0.0
C459 C 0.01526 0.1577 0.76594 0.0
C460 C 0.04403 0.1405 0.74382 0.0
C461 C 0.06192 0.15844 0.71446 0.0
C462 C 0.04985 0.19438 0.70741 0.0
H463 H 0.55958 0.73808 0.69226 0.0
H464 H 0.57378 0.63372 0.74151 0.0
H465 H 0.52976 0.65367 0.79161 0.0
H466 H 0.56221 0.79472 0.77748 0.0
H467 H 0.52291 0.82464 0.76193 0.0
H468 H 0.55524 0.80238 0.72911 0.0
H469 H 0.48891 0.77407 0.69169 0.0
H470 H 0.45637 0.79624 0.72441 0.0
H471 H 0.45047 0.74705 0.71443 0.0
H472 H 0.48705 0.68483 0.83774 0.0
H473 H 0.44544 0.72496 0.87662 0.0
H474 H 0.45496 0.80937 0.79808 0.0
C475 C 0.5533 0.71941 0.71353 0.0
C476 C 0.57035 0.68422 0.71277 0.0
C477 C 0.56121 0.6607 0.7412 0.0
C478 C 0.53617 0.6718 0.76992 0.0
C479 C 0.52002 0.7065 0.76995 0.0
C480 C 0.52788 0.72998 0.74249 0.0
C481 C 0.50632 0.76585 0.74951 0.0
C482 C 0.5386 0.79885 0.75483 0.0
C483 C 0.47357 0.7711 0.71814 0.0
C484 C 0.48555 0.75885 0.78532 0.0
C485 C 0.49414 0.7244 0.7965 0.0
C486 C 0.47986 0.71177 0.82916 0.0
C487 C 0.45627 0.73489 0.85115 0.0
C488 C 0.44668 0.77032 0.84046 0.0
C489 C 0.46134 0.7823 0.80684 0.0
H490 H 0.18186 0.68265 0.07443 0.0
H491 H 0.25816 0.59262 0.04087 0.0
H492 H 0.3016 0.63472 0.00664 0.0
H493 H 0.17988 0.72433 0.99079 0.0
H494 H 0.18363 0.77115 0.01061 0.0
H495 H 0.16062 0.735 0.03576 0.0
H496 H 0.2135 0.75254 0.09138 0.0
H497 H 0.23632 0.78914 0.0666 0.0
H498 H 0.26885 0.75475 0.08429 0.0
H499 H 0.33227 0.68469 0.97057 0.0
H500 H 0.3523 0.74146 0.94029 0.0
H501 H 0.25742 0.79893 0.99843 0.0
C502 C 0.2083 0.67202 0.06064 0.0
C503 C 0.21645 0.63433 0.06029 0.0
C504 C 0.2511 0.62139 0.04146 0.0
C505 C 0.27606 0.64506 0.02189 0.0
C506 C 0.2663 0.68172 0.02164 0.0
C507 C 0.23372 0.69535 0.04097 0.0
C508 C 0.22908 0.73565 0.03503 0.0
C509 C 0.18574 0.74187 0.01697 0.0
C510 C 0.23745 0.75942 0.0715 0.0
C511 C 0.26346 0.74216 0.00876 0.0
C512 C 0.28458 0.71074 0.00133 0.0
C513 C 0.31639 0.70968 0.97653 0.0
C514 C 0.32736 0.7419 0.95929 0.0
C515 C 0.30663 0.77459 0.96717 0.0
C516 C 0.2742 0.77447 0.99212 0.0
H517 H 0.41505 0.51004 0.48871 0.0
H518 H 0.48236 0.45727 0.40095 0.0
H519 H 0.54546 0.49702 0.42083 0.0
H520 H 0.46393 0.6027 0.48527 0.0
H521 H 0.46557 0.61179 0.53469 0.0
H522 H 0.42473 0.58116 0.5119 0.0
H523 H 0.44532 0.52978 0.55422 0.0
H524 H 0.48624 0.56017 0.57705 0.0
H525 H 0.49857 0.51603 0.55633 0.0
H526 H 0.60145 0.5399 0.45152 0.0
H527 H 0.64829 0.58248 0.49184 0.0
H528 H 0.54518 0.60703 0.56089 0.0
C529 C 0.44286 0.50715 0.4733 0.0
C530 C 0.44374 0.48067 0.44311 0.0
C531 C 0.48095 0.47741 0.42407 0.0
C532 C 0.51688 0.49991 0.43511 0.0
C533 C 0.515 0.52543 0.46519 0.0
C534 C 0.47902 0.52919 0.48406 0.0
C535 C 0.48602 0.55745 0.51664 0.0
C536 C 0.45842 0.59022 0.51182 0.0
C537 C 0.47861 0.53979 0.55321 0.0
C538 C 0.53182 0.5686 0.51345 0.0
C539 C 0.54769 0.54999 0.48336 0.0
C540 C 0.58937 0.55479 0.47505 0.0
C541 C 0.61572 0.57907 0.49825 0.0
C542 C 0.60043 0.59818 0.52963 0.0
C543 C 0.55775 0.59303 0.53707 0.0
loop_
_geom_bond_atom_site_label_1
_geom_bond_atom_site_label_2
_geom_bond_distance
_geom_bond_site_symmetry_2
_ccdc_geom_bond_type
Zn0 O3 2.031 . S
Zn0 O5 2.049 . S
Zn0 O10 2.067 . S
Zn1 O2 1.962 . S
Zn1 O4 1.986 . S
Zn1 O6 1.996 . S
Zn1 O9 1.943 . S
O2 Zn1 1.962 . S
O2 C7 1.254 . S
O3 Zn0 2.031 . S
O3 C7 1.269 . S
O4 Zn1 1.986 . S
O4 C11 1.262 . S
O5 Zn0 2.049 . S
O5 C13 1.260 . S
O6 Zn1 1.996 . S
O6 C13 1.257 . S
C7 O2 1.254 . S
C7 O3 1.269 . S
C8 O9 1.249 . S
C8 O10 1.270 . S
O9 Zn1 1.943 . S
O9 C8 1.249 . S
O10 Zn0 2.067 . S
O10 C8 1.270 . S
C11 O4 1.262 . S
C11 O12 1.232 . S
O12 C11 1.232 . S
C13 O5 1.260 . S
C13 O6 1.257 . S
Zn14 O17 2.031 . S
Zn14 O19 2.049 . S
Zn14 O24 2.067 . S
Zn15 O16 1.962 . S
Zn15 O18 1.986 . S
Zn15 O20 1.996 . S
Zn15 O23 1.943 . S
O16 Zn15 1.962 . S
O16 C21 1.254 . S
O17 Zn14 2.031 . S
O17 C21 1.269 . S
O18 Zn15 1.986 . S
O18 C25 1.262 . S
O19 Zn14 2.049 . S
O19 C27 1.260 . S
O20 Zn15 1.996 . S
O20 C27 1.257 . S
C21 O16 1.254 . S
C21 O17 1.269 . S
C22 O23 1.249 . S
C22 O24 1.270 . S
O23 Zn15 1.943 . S
O23 C22 1.249 . S
O24 Zn14 2.067 . S
O24 C22 1.270 . S
C25 O18 1.262 . S
C25 O26 1.232 . S
O26 C25 1.232 . S
C27 O19 1.260 . S
C27 O20 1.257 . S
Zn28 O31 2.031 . S
Zn28 O33 2.049 . S
Zn28 O38 2.067 . S
Zn29 O30 1.962 . S
Zn29 O32 1.986 . S
Zn29 O34 1.996 . S
Zn29 O37 1.943 . S
O30 Zn29 1.962 . S
O30 C35 1.254 . S
O31 Zn28 2.031 . S
O31 C35 1.269 . S
O32 Zn29 1.986 . S
O32 C39 1.262 . S
O33 Zn28 2.049 . S
O33 C41 1.260 . S
O34 Zn29 1.996 . S
O34 C41 1.257 . S
C35 O30 1.254 . S
C35 O31 1.269 . S
C36 O37 1.249 . S
C36 O38 1.270 . S
O37 Zn29 1.943 . S
O37 C36 1.249 . S
O38 Zn28 2.067 . S
O38 C36 1.270 . S
C39 O32 1.262 . S
C39 O40 1.232 . S
O40 C39 1.232 . S
C41 O33 1.260 . S
C41 O34 1.257 . S
Zn42 O45 2.031 . S
Zn42 O47 2.049 . S
Zn42 O52 2.067 . S
Zn43 O44 1.962 . S
Zn43 O46 1.986 . S
Zn43 O48 1.996 . S
Zn43 O51 1.943 . S
O44 Zn43 1.962 . S
O44 C49 1.254 . S
O45 Zn42 2.031 . S
O45 C49 1.269 . S
O46 Zn43 1.986 . S
O46 C53 1.262 . S
O47 Zn42 2.049 . S
O47 C55 1.260 . S
O48 Zn43 1.996 . S
O48 C55 1.257 . S
C49 O44 1.254 . S
C49 O45 1.269 . S
C50 O51 1.249 . S
C50 O52 1.270 . S
O51 Zn43 1.943 . S
O51 C50 1.249 . S
O52 Zn42 2.067 . S
O52 C50 1.270 . S
C53 O46 1.262 . S
C53 O54 1.232 . S
O54 C53 1.232 . S
C55 O47 1.260 . S
C55 O48 1.257 . S
Zn56 O59 2.031 . S
Zn56 O61 2.049 . S
Zn56 O66 2.067 . S
Zn57 O58 1.962 . S
Zn57 O60 1.986 . S
Zn57 O62 1.996 . S
Zn57 O65 1.943 . S
O58 Zn57 1.962 . S
O58 C63 1.254 . S
O59 Zn56 2.031 . S
O59 C63 1.269 . S
O60 Zn57 1.986 . S
O60 C67 1.262 . S
O61 Zn56 2.049 . S
O61 C69 1.260 . S
O62 Zn57 1.996 . S
O62 C69 1.257 . S
C63 O58 1.254 . S
C63 O59 1.269 . S
C64 O65 1.249 . S
C64 O66 1.270 . S
O65 Zn57 1.943 . S
O65 C64 1.249 . S
O66 Zn56 2.067 . S
O66 C64 1.270 . S
C67 O60 1.262 . S
C67 O68 1.232 . S
O68 C67 1.232 . S
C69 O61 1.260 . S
C69 O62 1.257 . S
Zn70 O73 2.031 . S
Zn70 O75 2.049 . S
Zn70 O80 2.067 . S
Zn71 O72 1.962 . S
Zn71 O74 1.986 . S
Zn71 O76 1.996 . S
Zn71 O79 1.943 . S
O72 Zn71 1.962 . S
O72 C77 1.254 . S
O73 Zn70 2.031 . S
O73 C77 1.269 . S
O74 Zn71 1.986 . S
O74 C81 1.262 . S
O75 Zn70 2.049 . S
O75 C83 1.260 . S
O76 Zn71 1.996 . S
O76 C83 1.257 . S
C77 O72 1.254 . S
C77 O73 1.269 . S
C78 O79 1.249 . S
C78 O80 1.270 . S
O79 Zn71 1.943 . S
O79 C78 1.249 . S
O80 Zn70 2.067 . S
O80 C78 1.270 . S
C81 O74 1.262 . S
C81 O82 1.232 . S
O82 C81 1.232 . S
C83 O75 1.260 . S
C83 O76 1.257 . S
Zn84 O87 2.031 . S
Zn84 O89 2.049 . S
Zn84 O94 2.067 . S
Zn85 O86 1.962 . S
Zn85 O88 1.986 . S
Zn85 O90 1.996 . S
Zn85 O93 1.943 . S
O86 Zn85 1.962 . S
O86 C91 1.254 . S
O87 Zn84 2.031 . S
O87 C91 1.269 . S
O88 Zn85 1.986 . S
O88 C95 1.262 . S
O89 Zn84 2.049 . S
O89 C97 1.260 . S
O90 Zn85 1.996 . S
O90 C97 1.257 . S
C91 O86 1.254 . S
C91 O87 1.269 . S
C92 O93 1.249 . S
C92 O94 1.270 . S
O93 Zn85 1.943 . S
O93 C92 1.249 . S
O94 Zn84 2.067 . S
O94 C92 1.270 . S
C95 O88 1.262 . S
C95 O96 1.232 . S
O96 C95 1.232 . S
C97 O89 1.260 . S
C97 O90 1.257 . S
Zn98 O101 2.031 . S
Zn98 O103 2.049 . S
Zn98 O108 2.067 . S
Zn99 O100 1.962 . S
Zn99 O102 1.986 . S
Zn99 O104 1.996 . S
Zn99 O107 1.943 . S
O100 Zn99 1.962 . S
O100 C105 1.254 . S
O101 Zn98 2.031 . S
O101 C105 1.269 . S
O102 Zn99 1.986 . S
O102 C109 1.262 . S
O103 Zn98 2.049 . S
O103 C111 1.260 . S
O104 Zn99 1.996 . S
O104 C111 1.257 . S
C105 O100 1.254 . S
C105 O101 1.269 . S
C106 O107 1.249 . S
C106 O108 1.270 . S
O107 Zn99 1.943 . S
O107 C106 1.249 . S
O108 Zn98 2.067 . S
O108 C106 1.270 . S
C109 O102 1.262 . S
C109 O110 1.232 . S
O110 C109 1.232 . S
C111 O103 1.260 . S
C111 O104 1.257 . S
H112 C124 0.930 . S
H113 C126 0.930 . S
H114 C127 0.930 . S
H115 C131 0.959 . S
H116 C131 0.959 . S
H117 C131 0.961 . S
H118 C132 0.960 . S
H119 C132 0.961 . S
H120 C132 0.959 . S
H121 C135 0.929 . S
H122 C136 0.931 . S
H123 C138 0.930 . S
C124 H112 0.930 . S
C124 C125 1.399 . S
C124 C129 1.399 . S
C125 C124 1.399 . S
C125 C126 1.376 . S
C126 H113 0.930 . S
C126 C125 1.376 . S
C126 C127 1.388 . S
C127 H114 0.930 . S
C127 C126 1.388 . S
C127 C128 1.390 . S
C128 C127 1.390 . S
C128 C129 1.394 . S
C128 C134 1.465 . S
C129 C124 1.399 . S
C129 C128 1.394 . S
C129 C130 1.516 . S
C130 C129 1.516 . S
C130 C131 1.502 . S
C130 C132 1.561 . S
C130 C133 1.526 . S
C131 H115 0.959 . S
C131 H116 0.959 . S
C131 H117 0.961 . S
C131 C130 1.502 . S
C132 H118 0.960 . S
C132 H119 0.961 . S
C132 H120 0.959 . S
C132 C130 1.561 . S
C133 C130 1.526 . S
C133 C134 1.396 . S
C133 C138 1.390 . S
C134 C128 1.465 . S
C134 C133 1.396 . S
C134 C135 1.399 . S
C135 H121 0.929 . S
C135 C134 1.399 . S
C135 C136 1.385 . S
C136 H122 0.931 . S
C136 C135 1.385 . S
C136 C137 1.389 . S
C137 C136 1.389 . S
C137 C138 1.387 . S
C138 H123 0.930 . S
C138 C133 1.390 . S
C138 C137 1.387 . S
H139 C151 0.930 . S
H140 C153 0.930 . S
H141 C154 0.930 . S
H142 C158 0.959 . S
H143 C158 0.959 . S
H144 C158 0.961 . S
H145 C159 0.960 . S
H146 C159 0.961 . S
H147 C159 0.959 . S
H148 C162 0.929 . S
H149 C163 0.931 . S
H150 C165 0.930 . S
C151 H139 0.930 . S
C151 C152 1.399 . S
C151 C156 1.399 . S
C152 C151 1.399 . S
C152 C153 1.376 . S
C153 H140 0.930 . S
C153 C152 1.376 . S
C153 C154 1.388 . S
C154 H141 0.930 . S
C154 C153 1.388 . S
C154 C155 1.390 . S
C155 C154 1.390 . S
C155 C156 1.394 . S
C155 C161 1.465 . S
C156 C151 1.399 . S
C156 C155 1.394 . S
C156 C157 1.516 . S
C157 C156 1.516 . S
C157 C158 1.502 . S
C157 C159 1.561 . S
C157 C160 1.526 . S
C158 H142 0.959 . S
C158 H143 0.959 . S
C158 H144 0.961 . S
C158 C157 1.502 . S
C159 H145 0.960 . S
C159 H146 0.961 . S
C159 H147 0.959 . S
C159 C157 1.561 . S
C160 C157 1.526 . S
C160 C161 1.396 . S
C160 C165 1.390 . S
C161 C155 1.465 . S
C161 C160 1.396 . S
C161 C162 1.399 . S
C162 H148 0.929 . S
C162 C161 1.399 . S
C162 C163 1.385 . S
C163 H149 0.931 . S
C163 C162 1.385 . S
C163 C164 1.389 . S
C164 C163 1.389 . S
C164 C165 1.387 . S
C165 H150 0.930 . S
C165 C160 1.390 . S
C165 C164 1.387 . S
H166 C178 0.930 . S
H167 C180 0.930 . S
H168 C181 0.941 . S
H169 C185 0.959 . S
H170 C185 0.944 1_556 S
H171 C185 0.961 . S
H172 C186 0.960 . S
H173 C186 0.961 . S
H174 C186 0.959 . S
H175 C189 0.929 . S
H176 C190 0.931 . S
H177 C192 0.930 . S
C178 H166 0.930 . S
C178 C179 1.399 . S
C178 C183 1.399 . S
C179 C178 1.399 . S
C179 C180 1.376 . S
C180 H167 0.930 . S
C180 C179 1.376 . S
C180 C181 1.379 1_545 S
C181 H168 0.941 . S
C181 C180 1.379 1_565 S
C181 C182 1.385 1_565 S
C182 C181 1.385 1_545 S
C182 C183 1.416 . S
C182 C188 1.449 1_544 S
C183 C178 1.399 . S
C183 C182 1.416 . S
C183 C184 1.516 1_554 S
C184 C183 1.516 1_556 S
C184 C185 1.502 1_556 S
C184 C186 1.561 . S
C184 C187 1.526 1_545 S
C185 H169 0.959 . S
C185 H170 0.944 1_554 S
C185 H171 0.961 . S
C185 C184 1.502 1_554 S
C186 H172 0.960 . S
C186 H173 0.961 . S
C186 H174 0.959 . S
C186 C184 1.561 . S
C187 C184 1.526 1_565 S
C187 C188 1.396 . S
C187 C192 1.390 . S
C188 C182 1.449 1_566 S
C188 C187 1.396 . S
C188 C189 1.399 . S
C189 H175 0.929 . S
C189 C188 1.399 . S
C189 C190 1.385 . S
C190 H176 0.931 . S
C190 C189 1.385 . S
C190 C191 1.389 . S
C191 C190 1.389 . S
C191 C192 1.387 . S
C192 H177 0.930 . S
C192 C187 1.390 . S
C192 C191 1.387 . S
H193 C205 0.930 . S
H194 C207 0.930 . S
H195 C208 0.930 . S
H196 C212 0.959 . S
H197 C212 0.959 . S
H198 C212 0.961 . S
H199 C213 0.960 . S
H200 C213 0.961 . S
H201 C213 0.959 . S
H202 C216 0.929 . S
H203 C217 0.931 . S
H204 C219 0.930 . S
C205 H193 0.930 . S
C205 C206 1.399 . S
C205 C210 1.399 . S
C206 C205 1.399 . S
C206 C207 1.376 . S
C207 H194 0.930 . S
C207 C206 1.376 . S
C207 C208 1.388 1_655 S
C208 H195 0.930 . S
C208 C207 1.388 1_455 S
C208 C209 1.390 . S
C209 C208 1.390 . S
C209 C210 1.394 1_455 S
C209 C215 1.465 . S
C210 C205 1.399 . S
C210 C209 1.394 1_655 S
C210 C211 1.516 . S
C211 C210 1.516 . S
C211 C212 1.502 . S
C211 C213 1.561 . S
C211 C214 1.526 1_655 S
C212 H196 0.959 . S
C212 H197 0.959 . S
C212 H198 0.961 . S
C212 C211 1.502 . S
C213 H199 0.960 . S
C213 H200 0.961 . S
C213 H201 0.959 . S
C213 C211 1.561 . S
C214 C211 1.526 1_455 S
C214 C215 1.396 . S
C214 C219 1.390 . S
C215 C209 1.465 . S
C215 C214 1.396 . S
C215 C216 1.399 . S
C216 H202 0.929 . S
C216 C215 1.399 . S
C216 C217 1.385 . S
C217 H203 0.931 . S
C217 C216 1.385 . S
C217 C218 1.389 . S
C218 C217 1.389 . S
C218 C219 1.387 . S
C219 H204 0.930 . S
C219 C214 1.390 . S
C219 C218 1.387 . S
H220 C232 0.930 . S
H221 C234 0.930 . S
H222 C235 0.930 . S
H223 C239 0.935 1_545 S
H224 C239 0.951 1_545 S
H225 C239 0.984 . S
H226 C240 0.960 . S
H227 C240 0.961 . S
H228 C240 0.959 . S
H229 C243 0.929 . S
H230 C244 0.931 . S
H231 C246 0.930 . S
C232 H220 0.930 . S
C232 C233 1.399 . S
C232 C237 1.399 . S
C233 C232 1.399 . S
C233 C234 1.376 . S
C234 H221 0.930 . S
C234 C233 1.376 . S
C234 C235 1.388 . S
C235 H222 0.930 . S
C235 C234 1.388 . S
C235 C236 1.390 . S
C236 C235 1.390 . S
C236 C237 1.394 . S
C236 C242 1.465 1_565 S
C237 C232 1.399 . S
C237 C236 1.394 . S
C237 C238 1.516 . S
C238 C237 1.516 . S
C238 C239 1.511 . S
C238 C240 1.561 . S
C238 C241 1.526 1_565 S
C239 H223 0.935 1_565 S
C239 H224 0.951 1_565 S
C239 H225 0.984 . S
C239 C238 1.511 . S
C240 H226 0.960 . S
C240 H227 0.961 . S
C240 H228 0.959 . S
C240 C238 1.561 . S
C241 C238 1.526 1_545 S
C241 C242 1.396 . S
C241 C246 1.390 . S
C242 C236 1.465 1_545 S
C242 C241 1.396 . S
C242 C243 1.399 . S
C243 H229 0.929 . S
C243 C242 1.399 . S
C243 C244 1.385 . S
C244 H230 0.931 . S
C244 C243 1.385 . S
C244 C245 1.389 . S
C245 C244 1.389 . S
C245 C246 1.387 . S
C246 H231 0.930 . S
C246 C241 1.390 . S
C246 C245 1.387 . S
H247 C259 0.930 . S
H248 C261 0.930 . S
H249 C262 0.930 . S
H250 C266 0.959 . S
H251 C266 0.959 . S
H252 C266 0.961 . S
H253 C267 0.960 . S
H254 C267 0.961 . S
H255 C267 0.959 1_655 S
H256 C270 0.929 . S
H257 C271 0.931 . S
H258 C273 0.930 . S
C259 H247 0.930 . S
C259 C260 1.399 . S
C259 C264 1.399 . S
C260 C259 1.399 . S
C260 C261 1.376 . S
C261 H248 0.930 . S
C261 C260 1.376 . S
C261 C262 1.388 1_556 S
C262 H249 0.930 . S
C262 C261 1.388 1_554 S
C262 C263 1.390 . S
C263 C262 1.390 . S
C263 C264 1.394 1_554 S
C263 C269 1.465 . S
C264 C259 1.399 . S
C264 C263 1.394 1_556 S
C264 C265 1.516 1_655 S
C265 C264 1.516 1_455 S
C265 C266 1.502 . S
C265 C267 1.561 . S
C265 C268 1.526 1_556 S
C266 H250 0.959 . S
C266 H251 0.959 . S
C266 H252 0.961 . S
C266 C265 1.502 . S
C267 H253 0.960 . S
C267 H254 0.961 . S
C267 H255 0.959 1_455 S
C267 C265 1.561 . S
C268 C265 1.526 1_554 S
C268 C269 1.396 1_455 S
C268 C273 1.390 . S
C269 C263 1.465 . S
C269 C268 1.396 1_655 S
C269 C270 1.399 . S
C270 H256 0.929 . S
C270 C269 1.399 . S
C270 C271 1.385 1_655 S
C271 H257 0.931 . S
C271 C270 1.385 1_455 S
C271 C272 1.389 . S
C272 C271 1.389 . S
C272 C273 1.387 . S
C273 H258 0.930 . S
C273 C268 1.390 . S
C273 C272 1.387 . S
H274 C286 0.930 . S
H275 C288 0.930 . S
H276 C289 0.930 . S
H277 C293 0.959 . S
H278 C293 0.959 . S
H279 C293 0.961 . S
H280 C294 0.960 . S
H281 C294 0.961 . S
H282 C294 0.959 . S
H283 C297 0.929 . S
H284 C298 0.931 . S
H285 C300 0.930 . S
C286 H274 0.930 . S
C286 C287 1.399 . S
C286 C291 1.399 . S
C287 C286 1.399 . S
C287 C288 1.376 . S
C288 H275 0.930 . S
C288 C287 1.376 . S
C288 C289 1.388 . S
C289 H276 0.930 . S
C289 C288 1.388 . S
C289 C290 1.390 . S
C290 C289 1.390 . S
C290 C291 1.394 . S
C290 C296 1.465 . S
C291 C286 1.399 . S
C291 C290 1.394 . S
C291 C292 1.516 . S
C292 C291 1.516 . S
C292 C293 1.502 . S
C292 C294 1.561 . S
C292 C295 1.526 . S
C293 H277 0.959 . S
C293 H278 0.959 . S
C293 H279 0.961 . S
C293 C292 1.502 . S
C294 H280 0.960 . S
C294 H281 0.961 . S
C294 H282 0.959 . S
C294 C292 1.561 . S
C295 C292 1.526 . S
C295 C296 1.396 . S
C295 C300 1.390 . S
C296 C290 1.465 . S
C296 C295 1.396 . S
C296 C297 1.399 . S
C297 H283 0.929 . S
C297 C296 1.399 . S
C297 C298 1.385 . S
C298 H284 0.931 . S
C298 C297 1.385 . S
C298 C299 1.389 . S
C299 C298 1.389 . S
C299 C300 1.387 . S
C300 H285 0.930 . S
C300 C295 1.390 . S
C300 C299 1.387 . S
H301 C313 0.930 . S
H302 C315 0.930 . S
H303 C316 0.930 . S
H304 C320 0.959 . S
H305 C320 0.959 . S
H306 C320 0.961 . S
H307 C321 0.960 . S
H308 C321 0.961 . S
H309 C321 0.959 . S
H310 C324 0.929 . S
H311 C325 0.931 . S
H312 C327 0.930 . S
C313 H301 0.930 . S
C313 C314 1.399 . S
C313 C318 1.399 . S
C314 C313 1.399 . S
C314 C315 1.376 . S
C315 H302 0.930 . S
C315 C314 1.376 . S
C315 C316 1.388 . S
C316 H303 0.930 . S
C316 C315 1.388 . S
C316 C317 1.390 . S
C317 C316 1.390 . S
C317 C318 1.394 . S
C317 C323 1.465 . S
C318 C313 1.399 . S
C318 C317 1.394 . S
C318 C319 1.516 . S
C319 C318 1.516 . S
C319 C320 1.502 . S
C319 C321 1.561 . S
C319 C322 1.526 . S
C320 H304 0.959 . S
C320 H305 0.959 . S
C320 H306 0.961 . S
C320 C319 1.502 . S
C321 H307 0.960 . S
C321 H308 0.961 . S
C321 H309 0.959 . S
C321 C319 1.561 . S
C322 C319 1.526 . S
C322 C323 1.396 . S
C322 C327 1.390 . S
C323 C317 1.465 . S
C323 C322 1.396 . S
C323 C324 1.399 . S
C324 H310 0.929 . S
C324 C323 1.399 . S
C324 C325 1.385 . S
C325 H311 0.931 . S
C325 C324 1.385 . S
C325 C326 1.389 . S
C326 C325 1.389 . S
C326 C327 1.387 . S
C327 H312 0.930 . S
C327 C322 1.390 . S
C327 C326 1.387 . S
H328 C340 0.930 . S
H329 C342 0.930 . S
H330 C343 0.930 . S
H331 C347 0.959 . S
H332 C347 0.959 . S
H333 C347 0.961 . S
H334 C348 0.960 . S
H335 C348 0.961 . S
H336 C348 0.959 . S
H337 C351 0.929 . S
H338 C352 0.931 . S
H339 C354 0.930 . S
C340 H328 0.930 . S
C340 C341 1.399 . S
C340 C345 1.399 . S
C341 C340 1.399 . S
C341 C342 1.376 . S
C342 H329 0.930 . S
C342 C341 1.376 . S
C342 C343 1.388 . S
C343 H330 0.930 . S
C343 C342 1.388 . S
C343 C344 1.390 . S
C344 C343 1.390 . S
C344 C345 1.394 . S
C344 C350 1.465 . S
C345 C340 1.399 . S
C345 C344 1.394 . S
C345 C346 1.516 . S
C346 C345 1.516 . S
C346 C347 1.502 . S
C346 C348 1.561 . S
C346 C349 1.526 . S
C347 H331 0.959 . S
C347 H332 0.959 . S
C347 H333 0.961 . S
C347 C346 1.502 . S
C348 H334 0.960 . S
C348 H335 0.961 . S
C348 H336 0.959 . S
C348 C346 1.561 . S
C349 C346 1.526 . S
C349 C350 1.396 . S
C349 C354 1.390 . S
C350 C344 1.465 . S
C350 C349 1.396 . S
C350 C351 1.399 . S
C351 H337 0.929 . S
C351 C350 1.399 . S
C351 C352 1.385 . S
C352 H338 0.931 . S
C352 C351 1.385 . S
C352 C353 1.389 . S
C353 C352 1.389 . S
C353 C354 1.387 . S
C354 H339 0.930 . S
C354 C349 1.390 . S
C354 C353 1.387 . S
H355 C367 0.930 . S
H356 C369 0.930 . S
H357 C370 0.930 . S
H358 C374 0.959 . S
H359 C374 0.959 . S
H360 C374 0.961 . S
H361 C375 0.960 . S
H362 C375 0.961 . S
H363 C375 0.959 . S
H364 C378 0.929 1_556 S
H365 C379 0.931 . S
H366 C381 0.930 . S
C367 H355 0.930 . S
C367 C368 1.399 . S
C367 C372 1.399 . S
C368 C367 1.399 . S
C368 C369 1.376 . S
C369 H356 0.930 . S
C369 C368 1.376 . S
C369 C370 1.388 . S
C370 H357 0.930 . S
C370 C369 1.388 . S
C370 C371 1.390 . S
C371 C370 1.390 . S
C371 C372 1.394 . S
C371 C377 1.465 1_556 S
C372 C367 1.399 . S
C372 C371 1.394 . S
C372 C373 1.516 1_556 S
C373 C372 1.516 1_554 S
C373 C374 1.502 . S
C373 C375 1.561 . S
C373 C376 1.526 . S
C374 H358 0.959 . S
C374 H359 0.959 . S
C374 H360 0.961 . S
C374 C373 1.502 . S
C375 H361 0.960 . S
C375 H362 0.961 . S
C375 H363 0.959 . S
C375 C373 1.561 . S
C376 C373 1.526 . S
C376 C377 1.396 . S
C376 C381 1.390 . S
C377 C371 1.465 1_554 S
C377 C376 1.396 . S
C377 C378 1.399 . S
C378 H364 0.929 1_554 S
C378 C377 1.399 . S
C378 C379 1.385 . S
C379 H365 0.931 . S
C379 C378 1.385 . S
C379 C380 1.389 . S
C380 C379 1.389 . S
C380 C381 1.387 . S
C381 H366 0.930 . S
C381 C376 1.390 . S
C381 C380 1.387 . S
H382 C394 0.930 . S
H383 C396 0.930 . S
H384 C397 0.930 . S
H385 C401 0.959 . S
H386 C401 0.959 . S
H387 C401 0.961 . S
H388 C402 0.960 . S
H389 C402 0.961 . S
H390 C402 0.959 . S
H391 C405 0.929 . S
H392 C406 0.931 . S
H393 C408 0.930 . S
C394 H382 0.930 . S
C394 C395 1.399 . S
C394 C399 1.399 . S
C395 C394 1.399 . S
C395 C396 1.376 . S
C396 H383 0.930 . S
C396 C395 1.376 . S
C396 C397 1.388 . S
C397 H384 0.930 . S
C397 C396 1.388 . S
C397 C398 1.390 . S
C398 C397 1.390 . S
C398 C399 1.394 . S
C398 C404 1.465 . S
C399 C394 1.399 . S
C399 C398 1.394 . S
C399 C400 1.516 1_565 S
C400 C399 1.516 1_545 S
C400 C401 1.502 . S
C400 C402 1.561 . S
C400 C403 1.526 . S
C401 H385 0.959 . S
C401 H386 0.959 . S
C401 H387 0.961 . S
C401 C400 1.502 . S
C402 H388 0.960 . S
C402 H389 0.961 . S
C402 H390 0.959 . S
C402 C400 1.561 . S
C403 C400 1.526 . S
C403 C404 1.396 1_545 S
C403 C408 1.390 . S
C404 C398 1.465 . S
C404 C403 1.396 1_565 S
C404 C405 1.399 . S
C405 H391 0.929 . S
C405 C404 1.399 . S
C405 C406 1.385 1_565 S
C406 H392 0.931 . S
C406 C405 1.385 1_545 S
C406 C407 1.389 . S
C407 C406 1.389 . S
C407 C408 1.387 . S
C408 H393 0.930 . S
C408 C403 1.390 . S
C408 C407 1.387 . S
H409 C421 0.930 . S
H410 C423 0.930 . S
H411 C424 0.930 . S
H412 C428 0.959 . S
H413 C428 0.959 . S
H414 C428 0.961 . S
H415 C429 0.960 . S
H416 C429 0.961 . S
H417 C429 0.959 . S
H418 C432 0.924 1_655 S
H419 C433 0.931 . S
H420 C435 0.930 . S
C421 H409 0.930 . S
C421 C422 1.399 . S
C421 C426 1.399 . S
C422 C421 1.399 . S
C422 C423 1.376 . S
C423 H410 0.930 . S
C423 C422 1.376 . S
C423 C424 1.388 1_565 S
C424 H411 0.930 . S
C424 C423 1.388 1_545 S
C424 C425 1.390 1_545 S
C425 C424 1.390 1_565 S
C425 C426 1.394 . S
C425 C431 1.465 1_665 S
C426 C421 1.399 . S
C426 C425 1.394 . S
C426 C427 1.516 1_655 S
C427 C426 1.516 1_455 S
C427 C428 1.502 . S
C427 C429 1.561 . S
C427 C430 1.526 1_565 S
C428 H412 0.959 . S
C428 H413 0.959 . S
C428 H414 0.961 . S
C428 C427 1.502 . S
C429 H415 0.960 . S
C429 H416 0.961 . S
C429 H417 0.959 . S
C429 C427 1.561 . S
C430 C427 1.526 1_545 S
C430 C431 1.396 . S
C430 C435 1.390 . S
C431 C425 1.465 1_445 S
C431 C430 1.396 . S
C431 C432 1.400 . S
C432 H418 0.924 1_455 S
C432 C431 1.400 . S
C432 C433 1.390 . S
C433 H419 0.931 . S
C433 C432 1.390 . S
C433 C434 1.389 . S
C434 C433 1.389 . S
C434 C435 1.387 . S
C435 H420 0.930 . S
C435 C430 1.390 . S
C435 C434 1.387 . S
H436 C448 0.930 . S
H437 C450 0.930 . S
H438 C451 0.930 1_455 S
H439 C455 0.959 . S
H440 C455 0.959 . S
H441 C455 0.961 . S
H442 C456 0.960 . S
H443 C456 0.961 . S
H444 C456 0.959 . S
H445 C459 0.929 . S
H446 C460 0.931 . S
H447 C462 0.930 . S
C448 H436 0.930 . S
C448 C449 1.399 . S
C448 C453 1.399 . S
C449 C448 1.399 . S
C449 C450 1.376 . S
C450 H437 0.930 . S
C450 C449 1.376 . S
C450 C451 1.388 . S
C451 H438 0.930 1_655 S
C451 C450 1.388 . S
C451 C452 1.390 . S
C452 C451 1.390 . S
C452 C453 1.394 . S
C452 C458 1.465 1_655 S
C453 C448 1.399 . S
C453 C452 1.394 . S
C453 C454 1.516 . S
C454 C453 1.516 . S
C454 C455 1.502 . S
C454 C456 1.561 1_655 S
C454 C457 1.526 1_655 S
C455 H439 0.959 . S
C455 H440 0.959 . S
C455 H441 0.961 . S
C455 C454 1.502 . S
C456 H442 0.960 . S
C456 H443 0.961 . S
C456 H444 0.959 . S
C456 C454 1.561 1_455 S
C457 C454 1.526 1_455 S
C457 C458 1.396 . S
C457 C462 1.390 . S
C458 C452 1.465 1_455 S
C458 C457 1.396 . S
C458 C459 1.399 . S
C459 H445 0.929 . S
C459 C458 1.399 . S
C459 C460 1.385 . S
C460 H446 0.931 . S
C460 C459 1.385 . S
C460 C461 1.389 . S
C461 C460 1.389 . S
C461 C462 1.387 . S
C462 H447 0.930 . S
C462 C457 1.390 . S
C462 C461 1.387 . S
H463 C475 0.930 . S
H464 C477 0.930 . S
H465 C478 0.930 . S
H466 C482 0.959 . S
H467 C482 0.959 . S
H468 C482 0.961 . S
H469 C483 0.960 . S
H470 C483 0.961 . S
H471 C483 0.959 . S
H472 C486 0.929 . S
H473 C487 0.931 . S
H474 C489 0.930 . S
C475 H463 0.930 . S
C475 C476 1.399 . S
C475 C480 1.399 . S
C476 C475 1.399 . S
C476 C477 1.376 . S
C477 H464 0.930 . S
C477 C476 1.376 . S
C477 C478 1.388 . S
C478 H465 0.930 . S
C478 C477 1.388 . S
C478 C479 1.390 . S
C479 C478 1.390 . S
C479 C480 1.394 . S
C479 C485 1.465 . S
C480 C475 1.399 . S
C480 C479 1.394 . S
C480 C481 1.516 . S
C481 C480 1.516 . S
C481 C482 1.502 . S
C481 C483 1.561 . S
C481 C484 1.526 . S
C482 H466 0.959 . S
C482 H467 0.959 . S
C482 H468 0.961 . S
C482 C481 1.502 . S
C483 H469 0.960 . S
C483 H470 0.961 . S
C483 H471 0.959 . S
C483 C481 1.561 . S
C484 C481 1.526 . S
C484 C485 1.396 . S
C484 C489 1.390 . S
C485 C479 1.465 . S
C485 C484 1.396 . S
C485 C486 1.399 . S
C486 H472 0.929 . S
C486 C485 1.399 . S
C486 C487 1.385 . S
C487 H473 0.931 . S
C487 C486 1.385 . S
C487 C488 1.389 . S
C488 C487 1.389 . S
C488 C489 1.387 . S
C489 H474 0.930 . S
C489 C484 1.390 . S
C489 C488 1.387 . S
H490 C502 0.930 . S
H491 C504 0.930 . S
H492 C505 0.930 . S
H493 C509 0.959 . S
H494 C509 0.959 . S
H495 C509 0.961 . S
H496 C510 0.960 . S
H497 C510 0.961 . S
H498 C510 0.959 . S
H499 C513 0.929 . S
H500 C514 0.931 . S
H501 C516 0.930 . S
C502 H490 0.930 . S
C502 C503 1.399 . S
C502 C507 1.399 . S
C503 C502 1.399 . S
C503 C504 1.376 . S
C504 H491 0.930 . S
C504 C503 1.376 . S
C504 C505 1.388 1_554 S
C505 H492 0.930 . S
C505 C504 1.388 1_556 S
C505 C506 1.390 . S
C506 C505 1.390 . S
C506 C507 1.390 1_556 S
C506 C512 1.468 . S
C507 C502 1.399 . S
C507 C506 1.390 1_554 S
C507 C508 1.516 . S
C508 C507 1.516 . S
C508 C509 1.502 . S
C508 C510 1.561 . S
C508 C511 1.526 1_554 S
C509 H493 0.959 . S
C509 H494 0.959 . S
C509 H495 0.961 . S
C509 C508 1.502 . S
C510 H496 0.960 . S
C510 H497 0.961 . S
C510 H498 0.959 . S
C510 C508 1.561 . S
C511 C508 1.526 1_556 S
C511 C512 1.396 . S
C511 C516 1.390 . S
C512 C506 1.468 . S
C512 C511 1.396 . S
C512 C513 1.399 . S
C513 H499 0.929 . S
C513 C512 1.399 . S
C513 C514 1.385 . S
C514 H500 0.931 . S
C514 C513 1.385 . S
C514 C515 1.389 . S
C515 C514 1.389 . S
C515 C516 1.387 . S
C516 H501 0.930 . S
C516 C511 1.390 . S
C516 C515 1.387 . S
H517 C529 0.930 . S
H518 C531 0.930 . S
H519 C532 0.930 . S
H520 C536 0.959 . S
H521 C536 0.959 . S
H522 C536 0.961 . S
H523 C537 0.960 . S
H524 C537 0.961 . S
H525 C537 0.959 . S
H526 C540 0.929 . S
H527 C541 0.931 . S
H528 C543 0.930 . S
C529 H517 0.930 . S
C529 C530 1.399 . S
C529 C534 1.399 . S
C530 C529 1.399 . S
C530 C531 1.376 . S
C531 H518 0.930 . S
C531 C530 1.376 . S
C531 C532 1.388 . S
C532 H519 0.930 . S
C532 C531 1.388 . S
C532 C533 1.390 . S
C533 C532 1.390 . S
C533 C534 1.394 . S
C533 C539 1.465 . S
C534 C529 1.399 . S
C534 C533 1.394 . S
C534 C535 1.516 . S
C535 C534 1.516 . S
C535 C536 1.502 . S
C535 C537 1.561 . S
C535 C538 1.526 . S
C536 H520 0.959 . S
C536 H521 0.959 . S
C536 H522 0.961 . S
C536 C535 1.502 . S
C537 H523 0.960 . S
C537 H524 0.961 . S
C537 H525 0.959 . S
C537 C535 1.561 . S
C538 C535 1.526 . S
C538 C539 1.396 . S
C538 C543 1.390 . S
C539 C533 1.465 . S
C539 C538 1.396 . S
C539 C540 1.399 . S
C540 H526 0.929 . S
C540 C539 1.399 . S
C540 C541 1.385 . S
C541 H527 0.931 . S
C541 C540 1.385 . S
C541 C542 1.389 . S
C542 C541 1.389 . S
C542 C543 1.387 . S
C543 H528 0.930 . S
C543 C538 1.390 . S
C543 C542 1.387 . S
C125 C77 1.492 . S
C137 C13 1.348 . S
C152 C105 1.478 . S
C164 C27 1.442 . S
C179 C36 1.432 . S
C191 C92 1.486 . S
C206 C53 1.490 . S
C218 C67 1.478 . S
C233 C97 1.344 . S
C245 C7 1.501 . S
C260 C22 1.438 . S
C272 C64 1.488 . S
C287 C81 1.496 . S
C299 C39 1.500 . S
C314 C49 1.483 . S
C326 C111 1.372 . S
C341 C63 1.493 . S
C353 C83 1.404 . S
C368 C21 1.472 . S
C380 C41 1.420 . S
C395 C55 1.414 . S
C407 C35 1.491 . S
C422 C50 1.425 . S
C434 C8 1.451 . S
C449 C25 1.480 . S
C461 C11 1.474 . S
C476 C109 1.480 . S
C488 C95 1.473 . S
C503 C69 1.350 . S
C515 C91 1.491 . S
C530 C78 1.487 . S
C542 C106 1.454 . S
