# Generated by pormake.
# Topology wld, (5)-cn, num edge types: 1
# Building blocks:
#     Node 0, Type 0, BuildingBlock: XOMCOT_clean_sbu_1, # of connection points: 5
#     Node 1, Type 0, BuildingBlock: XOMCOT_clean_sbu_1, # of connection points: 5
#     Node 2, Type 0, BuildingBlock: XOMCOT_clean_sbu_1, # of connection points: 5
#     Node 3, Type 0, BuildingBlock: XOMCOT_clean_sbu_1, # of connection points: 5
#     Node 4, Type 0, BuildingBlock: XOMCOT_clean_sbu_1, # of connection points: 5
#     Node 5, Type 0, BuildingBlock: XOMCOT_clean_sbu_1, # of connection points: 5
#     Node 6, Type 0, BuildingBlock: XOMCOT_clean_sbu_1, # of connection points: 5
#     Node 7, Type 0, BuildingBlock: XOMCOT_clean_sbu_1, # of connection points: 5
#     Node 8, Type 0, BuildingBlock: XOMCOT_clean_sbu_1, # of connection points: 5
#     Node 9, Type 0, BuildingBlock: XOMCOT_clean_sbu_1, # of connection points: 5
#     Node 10, Type 0, BuildingBlock: XOMCOT_clean_sbu_1, # of connection points: 5
#     Node 11, Type 0, BuildingBlock: XOMCOT_clean_sbu_1, # of connection points: 5
#     Edge 12, Type (0, 0), BuildingBlock: UVAHIK_clean_linker_0, # of connection points: 2
#     Edge 13, Type (0, 0), BuildingBlock: UVAHIK_clean_linker_0, # of connection points: 2
#     Edge 14, Type (0, 0), BuildingBlock: UVAHIK_clean_linker_0, # of connection points: 2
#     Edge 15, Type (0, 0), BuildingBlock: UVAHIK_clean_linker_0, # of connection points: 2
#     Edge 16, Type (0, 0), BuildingBlock: UVAHIK_clean_linker_0, # of connection points: 2
#     Edge 17, Type (0, 0), BuildingBlock: UVAHIK_clean_linker_0, # of connection points: 2
#     Edge 18, Type (0, 0), BuildingBlock: UVAHIK_clean_linker_0, # of connection points: 2
#     Edge 19, Type (0, 0), BuildingBlock: UVAHIK_clean_linker_0, # of connection points: 2
#     Edge 20, Type (0, 0), BuildingBlock: UVAHIK_clean_linker_0, # of connection points: 2
#     Edge 21, Type (0, 0), BuildingBlock: UVAHIK_clean_linker_0, # of connection points: 2
#     Edge 22, Type (0, 0), BuildingBlock: UVAHIK_clean_linker_0, # of connection points: 2
#     Edge 23, Type (0, 0), BuildingBlock: UVAHIK_clean_linker_0, # of connection points: 2
#     Edge 24, Type (0, 0), BuildingBlock: UVAHIK_clean_linker_0, # of connection points: 2
#     Edge 25, Type (0, 0), BuildingBlock: UVAHIK_clean_linker_0, # of connection points: 2
#     Edge 26, Type (0, 0), BuildingBlock: UVAHIK_clean_linker_0, # of connection points: 2
#     Edge 27, Type (0, 0), BuildingBlock: UVAHIK_clean_linker_0, # of connection points: 2
#     Edge 28, Type (0, 0), BuildingBlock: UVAHIK_clean_linker_0, # of connection points: 2
#     Edge 29, Type (0, 0), BuildingBlock: UVAHIK_clean_linker_0, # of connection points: 2
#     Edge 30, Type (0, 0), BuildingBlock: UVAHIK_clean_linker_0, # of connection points: 2
#     Edge 31, Type (0, 0), BuildingBlock: UVAHIK_clean_linker_0, # of connection points: 2
#     Edge 32, Type (0, 0), BuildingBlock: UVAHIK_clean_linker_0, # of connection points: 2
#     Edge 33, Type (0, 0), BuildingBlock: UVAHIK_clean_linker_0, # of connection points: 2
#     Edge 34, Type (0, 0), BuildingBlock: UVAHIK_clean_linker_0, # of connection points: 2
#     Edge 35, Type (0, 0), BuildingBlock: UVAHIK_clean_linker_0, # of connection points: 2
#     Edge 36, Type (0, 0), BuildingBlock: UVAHIK_clean_linker_0, # of connection points: 2
#     Edge 37, Type (0, 0), BuildingBlock: UVAHIK_clean_linker_0, # of connection points: 2
#     Edge 38, Type (0, 0), BuildingBlock: UVAHIK_clean_linker_0, # of connection points: 2
#     Edge 39, Type (0, 0), BuildingBlock: UVAHIK_clean_linker_0, # of connection points: 2
#     Edge 40, Type (0, 0), BuildingBlock: UVAHIK_clean_linker_0, # of connection points: 2
#     Edge 41, Type (0, 0), BuildingBlock: UVAHIK_clean_linker_0, # of connection points: 2
# Relax obj value: 0.226
# Max RMSD: 0.209
# Mean RMSD: 0.209
data_MOF--net-wld--node1-XOMCOT_clean_sbu_1--edge1-UVAHIK_clean_linker_0
_symmetry_space_group_name_H-M    P1
_symmetry_Int_Tables_number       1
_symmetry_cell_setting            triclinic
loop_
_symmetry_equiv_pos_as_xyz
'x, y, z'
_cell_length_a     46.499077
_cell_length_b     46.498025
_cell_length_c     65.232588
_cell_angle_alpha  89.903024
_cell_angle_beta   90.047592
_cell_angle_gamma 120.0152
loop_
_atom_site_label
_atom_site_type_symbol
_atom_site_fract_x
_atom_site_fract_y
_atom_site_fract_z
_atom_type_partial_charge
C0 C 0.39338 0.16728 0.1262 0.0
C1 C 0.41767 0.15863 0.12561 0.0
N2 N 0.4394 0.17647 0.11071 0.0
N3 N 0.39988 0.19056 0.1118 0.0
C4 C 0.42795 0.1955 0.10251 0.0
H5 H 0.37202 0.15688 0.13625 0.0
Co6 Co 0.37274 0.20786 0.10551 0.0
C7 C 0.41836 0.27756 0.09166 0.0
O8 O 0.3984 0.28717 0.09933 0.0
N9 N 0.34384 0.22415 0.09877 0.0
C10 C 0.30396 0.2374 0.09881 0.0
C11 C 0.31964 0.22439 0.11013 0.0
C12 C 0.34124 0.23594 0.08026 0.0
N13 N 0.31769 0.24486 0.08003 0.0
O14 O 0.36287 0.18553 0.07985 0.0
H15 H 0.31267 0.21502 0.12549 0.0
H16 H 0.35696 0.23865 0.06732 0.0
O17 O 0.41075 0.24709 0.09316 0.0
C18 C 0.33496 0.1588 0.07895 0.0
O19 O 0.31538 0.14968 0.09506 0.0
N20 N 0.38152 0.22778 0.13164 0.0
C21 C 0.3846 0.25514 0.17003 0.0
C22 C 0.41179 0.27011 0.15665 0.0
C23 C 0.41012 0.25545 0.13769 0.0
C24 C 0.35708 0.21049 0.14562 0.0
C25 C 0.35769 0.22403 0.16478 0.0
H26 H 0.43177 0.26672 0.12801 0.0
H27 H 0.33596 0.18684 0.14137 0.0
H28 H 0.43904 0.21168 0.08945 0.0
H29 H 0.41921 0.14061 0.13539 0.0
H30 H 0.28346 0.24038 0.1039 0.0
H31 H 0.43386 0.29323 0.16063 0.0
H32 H 0.33644 0.21111 0.17482 0.0
C33 C 0.82165 0.22741 0.1361 0.0
C34 C 0.82745 0.25934 0.13771 0.0
N35 N 0.81398 0.2657 0.12126 0.0
N36 N 0.80452 0.21369 0.11873 0.0
C37 C 0.80014 0.2376 0.11002 0.0
H38 H 0.8307 0.21553 0.14644 0.0
Co39 Co 0.79567 0.17337 0.10773 0.0
C40 C 0.72512 0.14307 0.0936 0.0
O41 O 0.71882 0.11339 0.09943 0.0
N42 N 0.78815 0.13293 0.09625 0.0
C43 C 0.78865 0.08594 0.09076 0.0
C44 C 0.79858 0.11252 0.10365 0.0
C45 C 0.77385 0.11911 0.07806 0.0
N46 N 0.77277 0.08992 0.07475 0.0
O47 O 0.81942 0.19552 0.08352 0.0
H48 H 0.81325 0.11662 0.11725 0.0
H49 H 0.76366 0.12985 0.06765 0.0
O50 O 0.75432 0.16803 0.09598 0.0
C51 C 0.8507 0.2089 0.08583 0.0
O52 O 0.8622 0.20667 0.10383 0.0
N53 N 0.77457 0.15213 0.13249 0.0
C54 C 0.74799 0.11327 0.16746 0.0
C55 C 0.72999 0.12531 0.15673 0.0
C56 C 0.74422 0.14564 0.13955 0.0
C57 C 0.79407 0.145 0.14458 0.0
C58 C 0.78114 0.12503 0.16188 0.0
H59 H 0.73047 0.15554 0.13193 0.0
H60 H 0.8197 0.15418 0.14039 0.0
H61 H 0.78898 0.2352 0.0951 0.0
H62 H 0.84135 0.27687 0.14973 0.0
H63 H 0.79319 0.06545 0.09289 0.0
H64 H 0.70481 0.1182 0.16106 0.0
H65 H 0.79676 0.11824 0.17052 0.0
C66 C 0.77196 0.60422 0.12964 0.0
C67 C 0.7401 0.57766 0.12965 0.0
N68 N 0.73673 0.55823 0.11346 0.0
N69 N 0.78871 0.60135 0.11368 0.0
C70 C 0.7665 0.57333 0.10393 0.0
H71 H 0.78231 0.62439 0.14057 0.0
Co72 Co 0.83256 0.63104 0.10736 0.0
C73 C 0.86109 0.58968 0.09367 0.0
O74 O 0.8894 0.61098 0.10231 0.0
N75 N 0.87726 0.66258 0.10061 0.0
C76 C 0.92948 0.70461 0.10081 0.0
C77 C 0.90069 0.68785 0.11192 0.0
C78 C 0.89223 0.66585 0.08224 0.0
N79 N 0.92422 0.69061 0.08219 0.0
O80 O 0.81867 0.64082 0.08213 0.0
H81 H 0.89757 0.69477 0.12711 0.0
H82 H 0.88014 0.6496 0.06934 0.0
O83 O 0.83666 0.5951 0.09422 0.0
C84 C 0.81833 0.668 0.08261 0.0
O85 O 0.82791 0.68581 0.09948 0.0
N86 N 0.84496 0.62211 0.13314 0.0
C87 C 0.87044 0.61725 0.17074 0.0
C88 C 0.85687 0.59033 0.15714 0.0
C89 C 0.84325 0.59291 0.13863 0.0
C90 C 0.8528 0.64603 0.14758 0.0
C91 C 0.86656 0.64465 0.1663 0.0
H92 H 0.83178 0.57148 0.12876 0.0
H93 H 0.84973 0.6671 0.14414 0.0
H94 H 0.77212 0.56405 0.09022 0.0
H95 H 0.72078 0.57324 0.14056 0.0
H96 H 0.95239 0.72589 0.10595 0.0
H97 H 0.85737 0.56779 0.16058 0.0
H98 H 0.87558 0.6656 0.17663 0.0
C99 C 0.19185 0.4143 0.35916 0.0
C100 C 0.19059 0.4432 0.35804 0.0
N101 N 0.20148 0.45947 0.37599 0.0
N102 N 0.2039 0.41258 0.37763 0.0
C103 C 0.20943 0.44033 0.38756 0.0
H104 H 0.18351 0.39522 0.34754 0.0
Co105 Co 0.20683 0.37697 0.38811 0.0
C106 C 0.27781 0.40979 0.40037 0.0
O107 O 0.28016 0.38526 0.39211 0.0
N108 N 0.20766 0.33996 0.39924 0.0
C109 C 0.1884 0.28703 0.40797 0.0
C110 C 0.18385 0.30826 0.39549 0.0
C111 C 0.22509 0.33727 0.41505 0.0
N112 N 0.21459 0.30541 0.42016 0.0
O113 O 0.18359 0.37721 0.41203 0.0
H114 H 0.16318 0.30098 0.38516 0.0
H115 H 0.24361 0.35805 0.42375 0.0
O116 O 0.24967 0.40857 0.40069 0.0
C117 C 0.15227 0.36274 0.40959 0.0
O118 O 0.14002 0.35156 0.39126 0.0
N119 N 0.22838 0.37569 0.36365 0.0
C120 C 0.26019 0.37043 0.32883 0.0
C121 C 0.27287 0.40076 0.33914 0.0
C122 C 0.25599 0.40313 0.35616 0.0
C123 C 0.21406 0.34706 0.35251 0.0
C124 C 0.22978 0.3437 0.33525 0.0
H125 H 0.26562 0.42695 0.3636 0.0
H126 H 0.19028 0.3266 0.35683 0.0
H127 H 0.21825 0.44587 0.40321 0.0
H128 H 0.18086 0.45079 0.34536 0.0
H129 H 0.17318 0.26023 0.40836 0.0
H130 H 0.2956 0.42241 0.3341 0.0
H131 H 0.21861 0.32008 0.32732 0.0
C132 C 0.61533 0.76973 0.36789 0.0
C133 C 0.59369 0.73596 0.36651 0.0
N134 N 0.56944 0.72757 0.3805 0.0
N135 N 0.60466 0.78233 0.3827 0.0
C136 C 0.57687 0.75605 0.39015 0.0
H137 H 0.63742 0.78414 0.35876 0.0
Co138 Co 0.62391 0.82583 0.39194 0.0
C139 C 0.56831 0.82354 0.41503 0.0
O140 O 0.58688 0.83652 0.43138 0.0
N141 N 0.64275 0.86968 0.40129 0.0
C142 C 0.65077 0.92039 0.40646 0.0
C143 C 0.63246 0.89119 0.39604 0.0
C144 C 0.66741 0.88646 0.41499 0.0
N145 N 0.67273 0.91743 0.41844 0.0
O146 O 0.62944 0.81135 0.41836 0.0
H147 H 0.61207 0.88567 0.38579 0.0
H148 H 0.68086 0.87605 0.42253 0.0
O149 O 0.5806 0.81844 0.39896 0.0
C150 C 0.65455 0.80724 0.41779 0.0
O151 O 0.67202 0.81489 0.40078 0.0
N152 N 0.62096 0.83982 0.36565 0.0
C153 C 0.62694 0.86985 0.3278 0.0
C154 C 0.59571 0.85134 0.33713 0.0
C155 C 0.59313 0.83598 0.35605 0.0
C156 C 0.65116 0.85639 0.35636 0.0
C157 C 0.65474 0.87161 0.33742 0.0
H158 H 0.56901 0.82195 0.36313 0.0
H159 H 0.67279 0.85874 0.36415 0.0
H160 H 0.56265 0.75762 0.40278 0.0
H161 H 0.59542 0.71904 0.35588 0.0
H162 H 0.64707 0.94159 0.40597 0.0
H163 H 0.57365 0.84913 0.33 0.0
H164 H 0.67931 0.88583 0.3308 0.0
C165 C 0.22545 0.82406 0.35746 0.0
C166 C 0.25741 0.8296 0.35708 0.0
N167 N 0.26283 0.81756 0.37458 0.0
N168 N 0.21071 0.80834 0.37502 0.0
C169 C 0.23414 0.80501 0.38521 0.0
H170 H 0.21377 0.83119 0.34573 0.0
Co171 Co 0.16822 0.79624 0.38365 0.0
C172 C 0.1421 0.72719 0.4 0.0
O173 O 0.11208 0.71783 0.39318 0.0
N174 N 0.12534 0.78531 0.39271 0.0
C175 C 0.07555 0.78098 0.39519 0.0
C176 C 0.10329 0.79171 0.38321 0.0
C177 C 0.11099 0.77245 0.41107 0.0
N178 N 0.08029 0.76859 0.41267 0.0
O179 O 0.18612 0.82162 0.40787 0.0
H180 H 0.10702 0.80441 0.36881 0.0
H181 H 0.12267 0.76552 0.42293 0.0
O182 O 0.16535 0.75724 0.39737 0.0
C183 C 0.1955 0.8523 0.40602 0.0
O184 O 0.19199 0.86331 0.38816 0.0
N185 N 0.15128 0.77275 0.35887 0.0
C186 C 0.11908 0.7399 0.32311 0.0
C187 C 0.13323 0.72636 0.33613 0.0
C188 C 0.15025 0.74378 0.35365 0.0
C189 C 0.14218 0.7884 0.34481 0.0
C190 C 0.12523 0.77213 0.32704 0.0
H191 H 0.16229 0.73369 0.36291 0.0
H192 H 0.1474 0.81344 0.34768 0.0
H193 H 0.23049 0.79444 0.40041 0.0
H194 H 0.27512 0.84133 0.34476 0.0
H195 H 0.05388 0.78292 0.39151 0.0
H196 H 0.13084 0.70241 0.33294 0.0
H197 H 0.11586 0.78414 0.317 0.0
C198 C 0.59494 0.8173 0.85684 0.0
C199 C 0.56586 0.81786 0.85394 0.0
N200 N 0.5483 0.80803 0.87151 0.0
N201 N 0.59529 0.80666 0.87603 0.0
C202 C 0.56666 0.80137 0.88459 0.0
H203 H 0.61487 0.82487 0.84585 0.0
Co204 Co 0.62905 0.80365 0.88917 0.0
C205 C 0.59138 0.73204 0.90155 0.0
O206 O 0.61502 0.72703 0.89453 0.0
N207 N 0.66402 0.8026 0.90294 0.0
C208 C 0.71547 0.82346 0.91506 0.0
C209 C 0.69546 0.82832 0.90171 0.0
C210 C 0.66535 0.78323 0.91801 0.0
N211 N 0.69645 0.79493 0.92521 0.0
O212 O 0.62559 0.82703 0.91207 0.0
H213 H 0.70315 0.85006 0.89222 0.0
H214 H 0.64394 0.76237 0.92482 0.0
O215 O 0.59524 0.76127 0.90109 0.0
C216 C 0.63878 0.85829 0.90974 0.0
O217 O 0.65109 0.87128 0.89172 0.0
N218 N 0.63391 0.78214 0.86587 0.0
C219 C 0.64544 0.75276 0.83195 0.0
C220 C 0.61342 0.73934 0.84017 0.0
C221 C 0.60802 0.75492 0.85685 0.0
C222 C 0.66448 0.7969 0.85692 0.0
C223 C 0.67096 0.78236 0.84025 0.0
H224 H 0.58302 0.74488 0.86262 0.0
H225 H 0.68414 0.82026 0.86251 0.0
H226 H 0.55977 0.79344 0.9003 0.0
H227 H 0.55884 0.82615 0.84029 0.0
H228 H 0.74183 0.8399 0.91736 0.0
H229 H 0.59273 0.71721 0.8337 0.0
H230 H 0.69597 0.79401 0.83418 0.0
C231 C 0.15077 0.77583 0.86636 0.0
C232 C 0.139 0.74207 0.86531 0.0
N233 N 0.15723 0.7348 0.87813 0.0
N234 N 0.17615 0.7895 0.87982 0.0
C235 C 0.17923 0.76386 0.88681 0.0
H236 H 0.14152 0.78953 0.85787 0.0
Co237 Co 0.20173 0.83346 0.88804 0.0
C238 C 0.25694 0.83113 0.90861 0.0
O239 O 0.25243 0.84367 0.92553 0.0
N240 N 0.22845 0.8779 0.8965 0.0
C241 C 0.27221 0.92868 0.89901 0.0
C242 C 0.25829 0.89952 0.88832 0.0
C243 C 0.22502 0.89463 0.9124 0.0
N244 N 0.25154 0.92564 0.91439 0.0
O245 O 0.18519 0.82018 0.91526 0.0
H246 H 0.26999 0.89425 0.87572 0.0
H247 H 0.20421 0.88377 0.92285 0.0
O248 O 0.23843 0.82633 0.89311 0.0
C249 C 0.15616 0.81643 0.91643 0.0
O250 O 0.14436 0.82423 0.90036 0.0
N251 N 0.21518 0.84599 0.86097 0.0
C252 C 0.23956 0.87705 0.82348 0.0
C253 C 0.24951 0.85538 0.83152 0.0
C254 C 0.23651 0.83953 0.85023 0.0
C255 C 0.20315 0.86469 0.85258 0.0
C256 C 0.21509 0.88058 0.83381 0.0
H257 H 0.24477 0.82337 0.85643 0.0
H258 H 0.18566 0.86886 0.86115 0.0
H259 H 0.19694 0.76629 0.89841 0.0
H260 H 0.11903 0.7244 0.85565 0.0
H261 H 0.29612 0.9502 0.89578 0.0
H262 H 0.26787 0.85155 0.82371 0.0
H263 H 0.20675 0.89706 0.82808 0.0
C264 C 0.22613 0.40946 0.86282 0.0
C265 C 0.25861 0.43457 0.86188 0.0
N266 N 0.26479 0.45442 0.87826 0.0
N267 N 0.21177 0.4135 0.87966 0.0
C268 C 0.23591 0.44121 0.88878 0.0
H269 H 0.21419 0.38865 0.85242 0.0
Co270 Co 0.17021 0.38203 0.88923 0.0
C271 C 0.13749 0.41996 0.90166 0.0
O272 O 0.10933 0.39565 0.89453 0.0
N273 N 0.12845 0.34874 0.89937 0.0
C274 C 0.08015 0.30201 0.90378 0.0
C275 C 0.10692 0.31897 0.89103 0.0
C276 C 0.11488 0.34814 0.91787 0.0
N277 N 0.08501 0.32052 0.92061 0.0
O278 O 0.18986 0.37888 0.9141 0.0
H279 H 0.11031 0.30911 0.87693 0.0
H280 H 0.12635 0.3681 0.92892 0.0
O281 O 0.16377 0.41757 0.90085 0.0
C282 C 0.20133 0.35921 0.91268 0.0
O283 O 0.19866 0.34443 0.89504 0.0
N284 N 0.15176 0.38422 0.86377 0.0
C285 C 0.1193 0.38037 0.82714 0.0
C286 C 0.13314 0.40943 0.83891 0.0
C287 C 0.15033 0.41127 0.85686 0.0
C288 C 0.14297 0.35804 0.85094 0.0
C289 C 0.12584 0.3551 0.83278 0.0
H290 H 0.1622 0.43442 0.86514 0.0
H291 H 0.14895 0.33908 0.85494 0.0
H292 H 0.23301 0.45023 0.90348 0.0
H293 H 0.27662 0.43744 0.85037 0.0
H294 H 0.05903 0.27758 0.90104 0.0
H295 H 0.13053 0.43042 0.83437 0.0
H296 H 0.11687 0.33276 0.82369 0.0
C297 C 0.83446 0.59545 0.62839 0.0
C298 C 0.84051 0.56945 0.62711 0.0
N299 N 0.8227 0.54992 0.61137 0.0
N300 N 0.8128 0.59224 0.61359 0.0
C301 C 0.80608 0.56424 0.60344 0.0
H302 H 0.84632 0.61615 0.63886 0.0
Co303 Co 0.80128 0.62388 0.60669 0.0
C304 C 0.72971 0.58539 0.59468 0.0
O305 O 0.72486 0.60919 0.60153 0.0
N306 N 0.7909 0.65704 0.59932 0.0
C307 C 0.78325 0.70066 0.59914 0.0
C308 C 0.794 0.68297 0.61045 0.0
C309 C 0.77961 0.66066 0.58088 0.0
N310 N 0.77397 0.68648 0.58058 0.0
O311 O 0.82149 0.62885 0.58056 0.0
H312 H 0.8037 0.6894 0.62577 0.0
H313 H 0.77432 0.64379 0.56817 0.0
O314 O 0.75862 0.58853 0.59596 0.0
C315 C 0.85271 0.64858 0.58143 0.0
O316 O 0.8659 0.6622 0.59917 0.0
N317 N 0.78398 0.62039 0.63327 0.0
C318 C 0.76425 0.62845 0.67208 0.0
C319 C 0.7431 0.60088 0.66002 0.0
C320 C 0.75383 0.59682 0.64078 0.0
C321 C 0.80633 0.6444 0.64596 0.0
C322 C 0.79693 0.64918 0.66533 0.0
H323 H 0.73752 0.57506 0.63204 0.0
H324 H 0.83109 0.6614 0.64041 0.0
H325 H 0.79096 0.55567 0.58975 0.0
H326 H 0.85736 0.56566 0.63669 0.0
H327 H 0.78264 0.72255 0.60413 0.0
H328 H 0.71804 0.58345 0.66493 0.0
H329 H 0.81471 0.6698 0.67456 0.0
C330 C 0.3921 0.22743 0.62566 0.0
C331 C 0.41573 0.26059 0.62605 0.0
N332 N 0.43932 0.26591 0.61216 0.0
N333 N 0.40086 0.21188 0.6117 0.0
C334 C 0.42964 0.23602 0.60361 0.0
H335 H 0.3695 0.21559 0.6346 0.0
Co336 Co 0.3748 0.16788 0.60403 0.0
C337 C 0.42174 0.14605 0.58865 0.0
O338 O 0.40066 0.11492 0.59322 0.0
N339 N 0.34692 0.12309 0.59599 0.0
C340 C 0.30959 0.06908 0.59532 0.0
C341 C 0.32538 0.09677 0.60744 0.0
C342 C 0.34277 0.11066 0.57674 0.0
N343 N 0.32066 0.07777 0.57601 0.0
O344 O 0.36627 0.18232 0.57852 0.0
H345 H 0.32059 0.09703 0.62354 0.0
H346 H 0.35655 0.12532 0.5636 0.0
O347 O 0.41411 0.16848 0.59229 0.0
C348 C 0.33785 0.18004 0.57791 0.0
O349 O 0.31816 0.1677 0.59389 0.0
N350 N 0.38173 0.15465 0.63003 0.0
C351 C 0.37851 0.12472 0.66756 0.0
C352 C 0.40605 0.13485 0.65468 0.0
C353 C 0.40762 0.15062 0.63614 0.0
C354 C 0.35717 0.14907 0.64358 0.0
C355 C 0.35478 0.13366 0.66237 0.0
H356 H 0.42936 0.15876 0.62678 0.0
H357 H 0.33763 0.15391 0.63897 0.0
H358 H 0.44242 0.23217 0.59102 0.0
H359 H 0.41543 0.27937 0.63568 0.0
H360 H 0.29093 0.04452 0.60032 0.0
H361 H 0.42569 0.12974 0.65865 0.0
H362 H 0.33329 0.12669 0.67198 0.0
C363 C 0.77601 0.17153 0.63013 0.0
C364 C 0.74429 0.16664 0.63068 0.0
N365 N 0.74019 0.18199 0.61431 0.0
N366 N 0.79194 0.19014 0.61362 0.0
C367 C 0.76941 0.1958 0.60415 0.0
H368 H 0.78674 0.16199 0.64101 0.0
Co369 Co 0.83512 0.2033 0.60597 0.0
C370 C 0.86266 0.27266 0.5908 0.0
O371 O 0.89166 0.28084 0.59891 0.0
N372 N 0.8788 0.21542 0.59784 0.0
C373 C 0.93003 0.22324 0.59573 0.0
C374 C 0.90242 0.21214 0.60792 0.0
C375 C 0.8923 0.22706 0.57914 0.0
N376 N 0.92374 0.23289 0.57764 0.0
O377 O 0.81914 0.17865 0.5813 0.0
H378 H 0.90006 0.20162 0.62295 0.0
H379 H 0.87945 0.23195 0.567 0.0
O380 O 0.83859 0.24278 0.59245 0.0
C381 C 0.81439 0.14932 0.58291 0.0
O382 O 0.82022 0.13983 0.60067 0.0
N383 N 0.85003 0.22564 0.63123 0.0
C384 C 0.87807 0.25584 0.66845 0.0
C385 C 0.86496 0.27007 0.65513 0.0
C386 C 0.85003 0.25397 0.63683 0.0
C387 C 0.85824 0.20928 0.64529 0.0
C388 C 0.87309 0.22424 0.66382 0.0
H389 H 0.83877 0.26454 0.62726 0.0
H390 H 0.85419 0.18481 0.64177 0.0
H391 H 0.77439 0.20986 0.59011 0.0
H392 H 0.72556 0.15239 0.64206 0.0
H393 H 0.95275 0.22353 0.59978 0.0
H394 H 0.86656 0.29356 0.65873 0.0
H395 H 0.88185 0.21176 0.67393 0.0
C396 C 0.70222 0.18052 0.0851 0.0
C397 C 0.69706 0.1484 0.08847 0.0
C398 C 0.67519 0.18574 0.08304 0.0
C399 C 0.58306 0.14138 0.0757 0.0
H400 H 0.58915 0.2155 0.10649 0.0
C401 C 0.4688 0.14504 0.10618 0.0
C402 C 0.46837 0.17495 0.10458 0.0
C403 C 0.49715 0.14366 0.10081 0.0
C404 C 0.58721 0.19498 0.09756 0.0
H405 H 0.65942 0.0964 0.09131 0.0
H406 H 0.61262 0.10548 0.08816 0.0
H407 H 0.63822 0.20986 0.1026 0.0
H408 H 0.49726 0.22686 0.09603 0.0
H409 H 0.54715 0.22455 0.08684 0.0
H410 H 0.53159 0.1258 0.07149 0.0
C411 C 0.63741 0.1267 0.0868 0.0
C412 C 0.61538 0.19177 0.09525 0.0
C413 C 0.66436 0.12149 0.08876 0.0
C414 C 0.49683 0.20343 0.09729 0.0
C415 C 0.52541 0.20216 0.09216 0.0
C416 C 0.55485 0.14444 0.07818 0.0
C417 C 0.64241 0.15895 0.08435 0.0
C418 C 0.61352 0.16455 0.08464 0.0
C419 C 0.52587 0.17225 0.09393 0.0
C420 C 0.55648 0.17092 0.08947 0.0
H421 H 0.72709 0.20181 0.08468 0.0
H422 H 0.68 0.21084 0.08081 0.0
H423 H 0.58082 0.1205 0.06705 0.0
H424 H 0.44714 0.12264 0.11154 0.0
H425 H 0.49687 0.12034 0.10252 0.0
C426 C 0.84667 0.32673 0.12034 0.0
C427 C 0.81733 0.29718 0.11569 0.0
C428 C 0.85008 0.35742 0.11525 0.0
C429 C 0.81406 0.3984 0.08356 0.0
H430 H 0.86348 0.47016 0.12197 0.0
C431 C 0.82299 0.52918 0.08568 0.0
C432 C 0.8553 0.55608 0.08878 0.0
C433 C 0.81713 0.49653 0.08568 0.0
C434 C 0.84981 0.45039 0.11103 0.0
H435 H 0.76865 0.27637 0.10186 0.0
H436 H 0.77402 0.33026 0.09354 0.0
H437 H 0.85457 0.41515 0.12948 0.0
H438 H 0.90708 0.5699 0.09232 0.0
H439 H 0.8967 0.51319 0.09252 0.0
H440 H 0.80856 0.43416 0.06554 0.0
C441 C 0.79474 0.32973 0.10073 0.0
C442 C 0.84481 0.41885 0.11526 0.0
C443 C 0.79155 0.29888 0.10557 0.0
C444 C 0.88184 0.54981 0.09018 0.0
C445 C 0.87595 0.51733 0.09034 0.0
C446 C 0.81866 0.43006 0.07948 0.0
C447 C 0.82399 0.35943 0.1057 0.0
C448 C 0.82743 0.39251 0.10143 0.0
C449 C 0.84345 0.49039 0.08887 0.0
C450 C 0.8371 0.45641 0.09305 0.0
H451 H 0.86723 0.32611 0.12769 0.0
H452 H 0.87337 0.3796 0.11876 0.0
H453 H 0.80071 0.3788 0.0725 0.0
H454 H 0.80201 0.53312 0.08449 0.0
H455 H 0.79185 0.47609 0.0845 0.0
C456 C 0.70062 0.51794 0.08715 0.0
C457 C 0.70747 0.52763 0.10781 0.0
C458 C 0.67158 0.48868 0.08175 0.0
C459 C 0.60648 0.40863 0.10288 0.0
H460 H 0.55042 0.41257 0.06021 0.0
C461 C 0.46027 0.33629 0.08308 0.0
C462 C 0.45255 0.30322 0.08594 0.0
C463 C 0.49327 0.36173 0.0813 0.0
C464 C 0.56591 0.41104 0.07207 0.0
H465 H 0.68983 0.51374 0.13899 0.0
H466 H 0.63927 0.46292 0.12961 0.0
H467 H 0.6052 0.46085 0.0666 0.0
H468 H 0.47342 0.27074 0.08788 0.0
H469 H 0.53102 0.31515 0.08472 0.0
H470 H 0.56684 0.35941 0.10895 0.0
C471 C 0.65629 0.47784 0.11758 0.0
C472 C 0.59735 0.43857 0.07562 0.0
C473 C 0.68506 0.50716 0.12294 0.0
C474 C 0.47844 0.29589 0.08569 0.0
C475 C 0.5115 0.32139 0.08404 0.0
C476 C 0.57519 0.38107 0.09925 0.0
C477 C 0.6491 0.46836 0.09693 0.0
C478 C 0.6176 0.43792 0.09142 0.0
C479 C 0.51931 0.35469 0.08244 0.0
C480 C 0.55423 0.38222 0.08413 0.0
H481 H 0.71732 0.53332 0.07515 0.0
H482 H 0.66674 0.48192 0.06572 0.0
H483 H 0.6217 0.40728 0.115 0.0
H484 H 0.4409 0.34276 0.0831 0.0
H485 H 0.49842 0.38712 0.08022 0.0
C486 C 0.19641 0.49448 0.40271 0.0
C487 C 0.20126 0.48916 0.38209 0.0
C488 C 0.19384 0.52214 0.40833 0.0
C489 C 0.21118 0.60494 0.39021 0.0
H490 H 0.13831 0.58964 0.42603 0.0
C491 C 0.12617 0.66772 0.40549 0.0
C492 C 0.15075 0.70149 0.40553 0.0
C493 C 0.13488 0.64305 0.40687 0.0
C494 C 0.15883 0.59435 0.41606 0.0
H495 H 0.20851 0.50944 0.35137 0.0
H496 H 0.20368 0.55741 0.36109 0.0
H497 H 0.14968 0.54464 0.41937 0.0
H498 H 0.20364 0.73571 0.40869 0.0
H499 H 0.2188 0.69268 0.41124 0.0
H500 H 0.21948 0.65416 0.38618 0.0
C501 C 0.20202 0.54032 0.37296 0.0
C502 C 0.16555 0.56865 0.41239 0.0
C503 C 0.20442 0.51262 0.36733 0.0
C504 C 0.18407 0.70999 0.40839 0.0
C505 C 0.19281 0.68531 0.40973 0.0
C506 C 0.20453 0.63064 0.39392 0.0
C507 C 0.19629 0.54521 0.39348 0.0
C508 C 0.19137 0.57345 0.39908 0.0
C509 C 0.1684 0.65156 0.40835 0.0
C510 C 0.17785 0.62546 0.40656 0.0
H511 H 0.19356 0.47676 0.41444 0.0
H512 H 0.1897 0.52534 0.4243 0.0
H513 H 0.23151 0.60957 0.38009 0.0
H514 H 0.10024 0.66023 0.40338 0.0
H515 H 0.11544 0.61733 0.40563 0.0
C516 C 0.51119 0.69216 0.39142 0.0
C517 C 0.54118 0.69523 0.3844 0.0
C518 C 0.48376 0.66092 0.39541 0.0
C519 C 0.44906 0.57176 0.38361 0.0
H520 H 0.38978 0.55954 0.42881 0.0
C521 C 0.33962 0.44311 0.40302 0.0
C522 C 0.30866 0.44137 0.40483 0.0
C523 C 0.369 0.47372 0.40335 0.0
C524 C 0.40608 0.56264 0.4161 0.0
H525 H 0.56606 0.66801 0.37634 0.0
H526 H 0.51834 0.61336 0.3836 0.0
H527 H 0.43947 0.61362 0.42346 0.0
H528 H 0.28444 0.47035 0.4098 0.0
H529 H 0.3359 0.52389 0.41047 0.0
H530 H 0.4157 0.52083 0.37626 0.0
C531 C 0.51577 0.63508 0.38564 0.0
C532 C 0.43448 0.59363 0.41297 0.0
C533 C 0.54316 0.66636 0.38149 0.0
C534 C 0.30787 0.47079 0.40837 0.0
C535 C 0.33735 0.50148 0.40877 0.0
C536 C 0.42085 0.54078 0.38683 0.0
C537 C 0.48569 0.63195 0.39263 0.0
C538 C 0.4562 0.59865 0.39656 0.0
C539 C 0.36814 0.50331 0.40559 0.0
C540 C 0.39893 0.53591 0.40303 0.0
H541 H 0.50872 0.71391 0.39348 0.0
H542 H 0.46085 0.6595 0.40033 0.0
H543 H 0.46481 0.5748 0.3706 0.0
H544 H 0.34118 0.42092 0.40046 0.0
H545 H 0.3924 0.47431 0.40126 0.0
C546 C 0.52302 0.833 0.42832 0.0
C547 C 0.53413 0.81799 0.41413 0.0
C548 C 0.4921 0.83087 0.42572 0.0
C549 C 0.41846 0.81013 0.4205 0.0
H550 H 0.39969 0.82453 0.36465 0.0
C551 C 0.29183 0.7942 0.39446 0.0
C552 C 0.29288 0.81795 0.38061 0.0
C553 C 0.32088 0.79403 0.3998 0.0
C554 C 0.40464 0.82069 0.38035 0.0
H555 H 0.52057 0.78693 0.387 0.0
H556 H 0.46685 0.78313 0.38258 0.0
H557 H 0.4504 0.82343 0.3721 0.0
H558 H 0.32558 0.86083 0.36212 0.0
H559 H 0.37608 0.86038 0.37131 0.0
H560 H 0.37269 0.80784 0.42871 0.0
C561 C 0.48226 0.79722 0.3954 0.0
C562 C 0.43351 0.81965 0.38458 0.0
C563 C 0.51303 0.79936 0.39797 0.0
C564 C 0.32373 0.84181 0.3725 0.0
C565 C 0.35271 0.84159 0.3778 0.0
C566 C 0.38938 0.811 0.41623 0.0
C567 C 0.4718 0.81366 0.40892 0.0
C568 C 0.44076 0.81433 0.40468 0.0
C569 C 0.35159 0.81752 0.39135 0.0
C570 C 0.38225 0.81641 0.3961 0.0
H571 H 0.53872 0.84751 0.44093 0.0
H572 H 0.48474 0.84387 0.43637 0.0
H573 H 0.42332 0.80585 0.43612 0.0
H574 H 0.26848 0.7752 0.4008 0.0
H575 H 0.31916 0.77494 0.4101 0.0
C576 C 0.3097 0.83529 0.92179 0.0
C577 C 0.28471 0.82437 0.90678 0.0
C578 C 0.33721 0.83107 0.91897 0.0
C579 C 0.38635 0.82375 0.87792 0.0
H580 H 0.42121 0.79034 0.91987 0.0
C581 C 0.49377 0.79958 0.86066 0.0
C582 C 0.51775 0.80749 0.87599 0.0
C583 C 0.46442 0.79977 0.86494 0.0
C584 C 0.41206 0.80013 0.90806 0.0
H585 H 0.26799 0.79852 0.8777 0.0
H586 H 0.3161 0.79183 0.87268 0.0
H587 H 0.37173 0.79436 0.92695 0.0
H588 H 0.5301 0.82219 0.90773 0.0
H589 H 0.47938 0.82335 0.91512 0.0
H590 H 0.42688 0.83046 0.85918 0.0
C591 C 0.31468 0.80408 0.88644 0.0
C592 C 0.38368 0.80231 0.91213 0.0
C593 C 0.28716 0.808 0.88933 0.0
C594 C 0.51179 0.81547 0.8957 0.0
C595 C 0.48265 0.81605 0.89993 0.0
C596 C 0.41487 0.82194 0.87392 0.0
C597 C 0.34024 0.81605 0.90104 0.0
C598 C 0.37049 0.81397 0.89704 0.0
C599 C 0.45862 0.80833 0.88458 0.0
C600 C 0.42805 0.80998 0.8889 0.0
H601 H 0.30847 0.84787 0.93544 0.0
H602 H 0.35664 0.84056 0.93045 0.0
H603 H 0.37698 0.83333 0.86611 0.0
H604 H 0.49759 0.79294 0.84542 0.0
H605 H 0.44621 0.79303 0.85284 0.0
C606 C 0.17076 0.48193 0.90616 0.0
C607 C 0.13984 0.45242 0.90561 0.0
C608 C 0.17238 0.51284 0.90594 0.0
C609 C 0.124 0.54971 0.88705 0.0
H610 H 0.18505 0.627 0.91858 0.0
C611 C 0.12386 0.67361 0.88101 0.0
C612 C 0.1547 0.70306 0.88179 0.0
C613 C 0.12152 0.643 0.88527 0.0
C614 C 0.16812 0.60576 0.90947 0.0
H615 H 0.08646 0.43221 0.90603 0.0
H616 H 0.08938 0.48592 0.90571 0.0
H617 H 0.18251 0.57392 0.92464 0.0
H618 H 0.20742 0.72346 0.88698 0.0
H619 H 0.20357 0.67023 0.89392 0.0
H620 H 0.11017 0.58139 0.87144 0.0
C621 C 0.11232 0.48523 0.90592 0.0
C622 C 0.16661 0.57534 0.91303 0.0
C623 C 0.11069 0.45446 0.90621 0.0
C624 C 0.18321 0.70123 0.88662 0.0
C625 C 0.18096 0.67068 0.89068 0.0
C626 C 0.1257 0.58011 0.88336 0.0
C627 C 0.14312 0.51472 0.90511 0.0
C628 C 0.1445 0.547 0.90187 0.0
C629 C 0.15007 0.64114 0.89018 0.0
C630 C 0.1478 0.60858 0.89449 0.0
H631 H 0.19368 0.48122 0.90566 0.0
H632 H 0.19649 0.5352 0.90531 0.0
H633 H 0.10713 0.52842 0.87793 0.0
H634 H 0.10147 0.67435 0.87755 0.0
H635 H 0.09724 0.62086 0.88502 0.0
C636 C 0.55247 0.67071 0.90296 0.0
C637 C 0.55803 0.70309 0.90564 0.0
C638 C 0.52025 0.64352 0.90313 0.0
C639 C 0.43296 0.61328 0.91706 0.0
H640 H 0.4149 0.55744 0.86921 0.0
C641 C 0.29965 0.51017 0.89348 0.0
C642 C 0.29669 0.48154 0.88425 0.0
C643 C 0.3311 0.53726 0.89798 0.0
C644 C 0.4195 0.57233 0.88287 0.0
H645 H 0.53411 0.73197 0.91208 0.0
H646 H 0.47773 0.68423 0.9125 0.0
H647 H 0.47049 0.60375 0.87482 0.0
H648 H 0.32393 0.45784 0.87378 0.0
H649 H 0.37837 0.50424 0.88209 0.0
H650 H 0.38185 0.58146 0.92522 0.0
C651 C 0.49841 0.68005 0.91018 0.0
C652 C 0.45144 0.59898 0.88604 0.0
C653 C 0.53073 0.70739 0.90989 0.0
C654 C 0.32554 0.47992 0.88041 0.0
C655 C 0.35677 0.50664 0.88514 0.0
C656 C 0.4009 0.58624 0.91401 0.0
C657 C 0.49282 0.64798 0.90611 0.0
C658 C 0.45862 0.61964 0.90321 0.0
C659 C 0.36011 0.536 0.89355 0.0
C660 C 0.39384 0.56527 0.89692 0.0
H661 H 0.57288 0.66641 0.89982 0.0
H662 H 0.5167 0.61899 0.9003 0.0
H663 H 0.43784 0.62885 0.93043 0.0
H664 H 0.27773 0.51197 0.89657 0.0
H665 H 0.33267 0.55949 0.90434 0.0
C666 C 0.79545 0.49442 0.59515 0.0
C667 C 0.8239 0.52163 0.60353 0.0
C668 C 0.79653 0.46641 0.58836 0.0
C669 C 0.85426 0.43806 0.57205 0.0
H670 H 0.78998 0.35313 0.59538 0.0
C671 C 0.8821 0.3326 0.58435 0.0
C672 C 0.85623 0.29939 0.58408 0.0
C673 C 0.87551 0.35847 0.58136 0.0
C674 C 0.8077 0.37642 0.58828 0.0
H675 H 0.87599 0.54151 0.61055 0.0
H676 H 0.87797 0.4929 0.59864 0.0
H677 H 0.78287 0.4012 0.60013 0.0
H678 H 0.80341 0.26729 0.57891 0.0
H679 H 0.79195 0.31252 0.57341 0.0
H680 H 0.87953 0.41362 0.56055 0.0
C681 C 0.85482 0.49306 0.59738 0.0
C682 C 0.80364 0.40399 0.59107 0.0
C683 C 0.8536 0.52073 0.60442 0.0
C684 C 0.82389 0.29258 0.57942 0.0
C685 C 0.81728 0.31853 0.57639 0.0
C686 C 0.85818 0.41047 0.5691 0.0
C687 C 0.82625 0.46547 0.58946 0.0
C688 C 0.82748 0.43531 0.58356 0.0
C689 C 0.84289 0.35182 0.57789 0.0
C690 C 0.83558 0.37956 0.57779 0.0
H691 H 0.77224 0.49452 0.59436 0.0
H692 H 0.77417 0.44547 0.5823 0.0
H693 H 0.87272 0.46183 0.5658 0.0
H694 H 0.90734 0.3388 0.5878 0.0
H695 H 0.89585 0.38373 0.58286 0.0
C696 C 0.70339 0.52395 0.58836 0.0
C697 C 0.70041 0.5525 0.59021 0.0
C698 C 0.675 0.49236 0.58757 0.0
C699 C 0.58948 0.45041 0.60602 0.0
H700 H 0.57595 0.37739 0.571 0.0
C701 C 0.4668 0.32674 0.60831 0.0
C702 C 0.46807 0.29727 0.60704 0.0
C703 C 0.49494 0.35737 0.60419 0.0
C704 C 0.57953 0.39743 0.58105 0.0
H705 H 0.6653 0.57034 0.59111 0.0
H706 H 0.61608 0.51546 0.58972 0.0
H707 H 0.62584 0.43192 0.5668 0.0
H708 H 0.49964 0.27664 0.60015 0.0
H709 H 0.54927 0.33032 0.59346 0.0
H710 H 0.54405 0.41625 0.62072 0.0
C711 C 0.64029 0.51743 0.58924 0.0
C712 C 0.60804 0.42865 0.57857 0.0
C713 C 0.66854 0.5489 0.58995 0.0
C714 C 0.49795 0.29899 0.60113 0.0
C715 C 0.52632 0.32975 0.59723 0.0
C716 C 0.56128 0.41929 0.60862 0.0
C717 C 0.64318 0.48879 0.58869 0.0
C718 C 0.61313 0.45552 0.59095 0.0
C719 C 0.52526 0.35939 0.59897 0.0
C720 C 0.55572 0.39241 0.59609 0.0
H721 H 0.72755 0.52583 0.58849 0.0
H722 H 0.67798 0.4707 0.58716 0.0
H723 H 0.59309 0.47043 0.61611 0.0
H724 H 0.44393 0.3261 0.61239 0.0
H725 H 0.49288 0.37952 0.60515 0.0
C726 C 0.70418 0.18744 0.58839 0.0
C727 C 0.71078 0.18333 0.60891 0.0
C728 C 0.67529 0.18808 0.5832 0.0
C729 C 0.60899 0.20051 0.60544 0.0
H730 H 0.5566 0.14763 0.55935 0.0
C731 C 0.46468 0.13092 0.57956 0.0
C732 C 0.45663 0.15557 0.58419 0.0
C733 C 0.49778 0.13855 0.57884 0.0
C734 C 0.571 0.1626 0.57223 0.0
H735 H 0.69253 0.17756 0.64008 0.0
H736 H 0.64204 0.17808 0.63104 0.0
H737 H 0.61059 0.15279 0.56631 0.0
H738 H 0.47728 0.20806 0.59047 0.0
H739 H 0.53506 0.22145 0.58897 0.0
H740 H 0.56888 0.20914 0.61193 0.0
C741 C 0.65929 0.18109 0.61896 0.0
C742 C 0.60207 0.1658 0.57611 0.0
C743 C 0.68805 0.18033 0.62412 0.0
C744 C 0.48253 0.18846 0.58685 0.0
C745 C 0.51568 0.19609 0.58618 0.0
C746 C 0.57799 0.19736 0.60154 0.0
C747 C 0.65247 0.18482 0.59843 0.0
C748 C 0.62108 0.1842 0.59303 0.0
C749 C 0.52365 0.17102 0.58276 0.0
C750 C 0.55831 0.1778 0.58515 0.0
H751 H 0.721 0.18956 0.57627 0.0
H752 H 0.67085 0.19119 0.56727 0.0
H753 H 0.62324 0.21525 0.61842 0.0
H754 H 0.44536 0.10535 0.57734 0.0
H755 H 0.50295 0.11856 0.57632 0.0
C756 C 0.3484 0.142 0.04542 0.0
C757 C 0.32506 0.13733 0.06061 0.0
C758 C 0.3394 0.11993 0.02895 0.0
C759 C 0.26807 0.05675 -0.00045 0.0
H760 H 0.32657 0.02193 0.98781 0.0
C761 C 0.2327 0.94752 0.94301 0.0
C762 C 0.25829 0.94956 0.93049 0.0
C763 C 0.23976 0.97054 0.9588 0.0
C764 C 0.31014 0.0317 0.99065 0.0
H765 H 0.27369 0.10668 0.07006 0.0
H766 H 0.258 0.06839 0.04123 0.0
H767 H 0.3414 0.06336 0.01457 0.0
H768 H 0.31162 0.97775 0.92516 0.0
H769 H 0.32342 0.01805 0.95172 0.0
H770 H 0.23698 0.02536 0.97542 0.0
C771 C 0.28322 0.08903 0.04207 0.0
C772 C 0.31867 0.05545 0.00601 0.0
C773 C 0.29229 0.11086 0.05864 0.0
C774 C 0.291 0.97534 0.93412 0.0
C775 C 0.29796 0.99836 0.9497 0.0
C776 C 0.25964 0.03315 0.984 0.0
C777 C 0.3068 0.09301 0.02725 0.0
C778 C 0.2978 0.06829 0.0106 0.0
C779 C 0.27256 0.99615 0.96238 0.0
C780 C 0.28068 0.02045 0.9793 0.0
H781 H 0.37383 0.16218 0.04651 0.0
H782 H 0.358 0.12376 0.01761 0.0
H783 H 0.25158 0.06636 0.00272 0.0
H784 H 0.2072 0.92827 0.94064 0.0
H785 H 0.21959 0.96795 0.96838 0.0
C786 C 0.90816 0.24556 0.07283 0.0
C787 C 0.87412 0.22539 0.06871 0.0
C788 C 0.93109 0.25913 0.05687 0.0
C789 C 0.93946 0.27635 0.00092 0.0
H790 H 0.02143 0.27459 0.008 0.0
C791 C 0.0277 0.29331 0.93398 0.0
C792 C 0.06209 0.31282 0.93737 0.0
C793 C 0.00525 0.28536 0.9501 0.0
C794 C 0.99889 0.27569 0.00589 0.0
H795 H 0.83723 0.20432 0.0446 0.0
H796 H 0.87744 0.22749 0.01657 0.0
H797 H 0.98091 0.25554 0.03566 0.0
H798 H 0.09984 0.3395 0.96035 0.0
H799 H 0.06049 0.32555 0.98867 0.0
H800 H 0.95733 0.29581 0.97088 0.0
C801 C 0.88638 0.23326 0.03219 0.0
C802 C 0.97561 0.26479 0.02176 0.0
C803 C 0.86332 0.21988 0.04823 0.0
C804 C 0.07351 0.32454 0.95726 0.0
C805 C 0.051 0.31635 0.97347 0.0
C806 C 0.9627 0.28708 0.98498 0.0
C807 C 0.92063 0.2526 0.03634 0.0
C808 C 0.94556 0.2649 0.01947 0.0
C809 C 0.01661 0.29658 0.97005 0.0
C810 C 0.99261 0.28673 0.98727 0.0
H811 H 0.91725 0.25064 0.08846 0.0
H812 H 0.95713 0.27456 0.06067 0.0
H813 H 0.91683 0.27723 -0.00127 0.0
H814 H 0.01807 0.28433 0.91878 0.0
H815 H 0.97896 0.26984 0.947 0.0
C816 C 0.7861 0.65724 0.04986 0.0
C817 C 0.80677 0.67946 0.06499 0.0
C818 C 0.77316 0.66816 0.03422 0.0
C819 C 0.75717 0.73722 0.02244 0.0
H820 H 0.74554 0.70425 0.96674 0.0
C821 C 0.73277 0.80103 0.95444 0.0
C822 C 0.70695 0.78058 0.94101 0.0
C823 C 0.74344 0.78714 0.96952 0.0
C824 C 0.7484 0.71341 0.9823 0.0
H825 H 0.83152 0.73074 0.07504 0.0
H826 H 0.81013 0.74997 0.04755 0.0
H827 H 0.7681 0.68306 0.99278 0.0
H828 H 0.67226 0.72963 0.93266 0.0
H829 H 0.69124 0.70521 0.959 0.0
H830 H 0.73836 0.76821 0.0118 0.0
C831 C 0.80275 0.7239 0.04806 0.0
C832 C 0.76123 0.70125 -0.00277 0.0
C833 C 0.81525 0.71293 0.06377 0.0
C834 C 0.69202 0.74591 0.94294 0.0
C835 C 0.70304 0.73199 0.95785 0.0
C836 C 0.74476 0.74961 0.0075 0.0
C837 C 0.78096 0.70157 0.03333 0.0
C838 C 0.76612 0.71329 0.01746 0.0
C839 C 0.72879 0.7525 0.97131 0.0
C840 C 0.74051 0.73805 0.98726 0.0
H841 H 0.77908 0.63125 0.05049 0.0
H842 H 0.7563 0.65022 0.02322 0.0
H843 H 0.75969 0.74643 0.03796 0.0
H844 H 0.74453 0.8278 0.95339 0.0
H845 H 0.76349 0.80352 0.97962 0.0
C846 C 0.93458 0.24556 0.54062 0.0
C847 C 0.94644 0.24771 0.56071 0.0
C848 C 0.95673 0.26021 0.5243 0.0
C849 C 0.04366 0.32373 0.51234 0.0
H850 H 0.02666 0.27456 0.46159 0.0
C851 C 0.14124 0.3601 0.44743 0.0
C852 C 0.12953 0.35536 0.42715 0.0
C853 C 0.11891 0.34952 0.46387 0.0
C854 C 0.03156 0.28884 0.47555 0.0
H855 H 0.99096 0.2676 0.57938 0.0
H856 H 0.02946 0.29243 0.55093 0.0
H857 H 0.98743 0.25079 0.48982 0.0
H858 H 0.08544 0.33746 0.40824 0.0
H859 H 0.04674 0.31954 0.43682 0.0
H860 H 0.08804 0.36166 0.49806 0.0
C861 C 0.00305 0.27968 0.5478 0.0
C862 C 0.00905 0.2752 0.49174 0.0
C863 C 0.98094 0.26502 0.56409 0.0
C864 C 0.09526 0.34116 0.42368 0.0
C865 C 0.07302 0.33069 0.44006 0.0
C866 C 0.06623 0.33739 0.49612 0.0
C867 C 0.99123 0.27741 0.5277 0.0
C868 C 0.01485 0.29242 0.51034 0.0
C869 C 0.08449 0.33407 0.46033 0.0
C870 C 0.06043 0.32008 0.47755 0.0
H871 H 0.90821 0.23224 0.53743 0.0
H872 H 0.9468 0.25826 0.50901 0.0
H873 H 0.04864 0.33783 0.52639 0.0
H874 H 0.16751 0.3709 0.45059 0.0
H875 H 0.12852 0.35231 0.47932 0.0
C876 C 0.65178 0.79179 0.4551 0.0
C877 C 0.66394 0.79324 0.43519 0.0
C878 C 0.66226 0.77942 0.47135 0.0
C879 C 0.73031 0.76284 0.48519 0.0
H880 H 0.67041 0.70863 0.5284 0.0
C881 C 0.76554 0.69244 0.54372 0.0
C882 C 0.75957 0.69621 0.56436 0.0
C883 C 0.75257 0.70327 0.52809 0.0
C884 C 0.68743 0.72388 0.51646 0.0
H885 H 0.69547 0.78166 0.41656 0.0
H886 H 0.71278 0.75946 0.44447 0.0
H887 H 0.65006 0.73001 0.50112 0.0
H888 H 0.73421 0.71294 0.58481 0.0
H889 H 0.71153 0.73176 0.55756 0.0
H890 H 0.76749 0.7563 0.50034 0.0
C891 C 0.69614 0.7688 0.44785 0.0
C892 C 0.67584 0.73627 0.5009 0.0
C893 C 0.68601 0.78139 0.43177 0.0
C894 C 0.73963 0.71017 0.56905 0.0
C895 C 0.72635 0.72062 0.55345 0.0
C896 C 0.74175 0.7502 0.50059 0.0
C897 C 0.68485 0.76807 0.46791 0.0
C898 C 0.69712 0.75576 0.48499 0.0
C899 C 0.73299 0.71764 0.53282 0.0
C900 C 0.72044 0.73051 0.51635 0.0
H901 H 0.63475 0.80078 0.45816 0.0
H902 H 0.65321 0.7794 0.48664 0.0
H903 H 0.74766 0.77841 0.47349 0.0
H904 H 0.78089 0.68186 0.5397 0.0
H905 H 0.75786 0.70043 0.5123 0.0
C906 C 0.30064 0.02216 0.56125 0.0
C907 C 0.31104 0.05597 0.55855 0.0
C908 C 0.28992 1.00049 0.5446 0.0
C909 C 0.29193 0.9973 0.48805 0.0
H910 H 0.21372 0.91064 0.49579 0.0
C911 C 0.22175 0.90948 0.42077 0.0
C912 C 0.21018 0.87542 0.42347 0.0
C913 C 0.23537 0.93151 0.43716 0.0
C914 C 0.23583 0.93457 0.49345 0.0
H915 H 0.31882 0.09367 0.53617 0.0
H916 H 0.29983 0.05569 0.50695 0.0
H917 H 0.23516 0.94948 0.52434 0.0
H918 H 0.20406 0.83777 0.4455 0.0
H919 H 0.228 0.87635 0.47419 0.0
H920 H 0.29234 0.98239 0.45706 0.0
C921 C 0.30034 0.04605 0.52198 0.0
C922 C 0.24813 0.95685 0.50981 0.0
C923 C 0.3112 0.06781 0.5387 0.0
C924 C 0.21268 0.86386 0.44294 0.0
C925 C 0.22624 0.88593 0.45938 0.0
C926 C 0.27958 0.97501 0.47166 0.0
C927 C 0.28924 0.01206 0.5248 0.0
C928 C 0.27632 0.98848 0.50731 0.0
C929 C 0.23767 0.91999 0.45667 0.0
C930 C 0.25136 0.94341 0.47418 0.0
H931 H 0.30095 0.01241 0.57628 0.0
H932 H 0.28227 0.97464 0.54724 0.0
H933 H 0.31395 0.02129 0.4857 0.0
H934 H 0.22018 0.91921 0.40597 0.0
H935 H 0.24354 0.95751 0.43463 0.0
C936 C 0.75288 0.07706 0.03888 0.0
C937 C 0.75596 0.06643 0.05851 0.0
C938 C 0.73677 0.05394 0.02319 0.0
C939 C 0.71189 0.96751 0.00877 0.0
H940 H 0.65665 0.9787 0.96866 0.0
C941 C 0.63997 0.86816 0.94758 0.0
C942 C 0.6442 0.88029 0.92741 0.0
C943 C 0.64954 0.89 0.9642 0.0
C944 C 0.67207 0.97532 0.97975 0.0
H945 H 0.74327 0.02323 0.07733 0.0
H946 H 0.71495 0.98305 0.05023 0.0
H947 H 0.68215 0.01911 0.99635 0.0
H948 H 0.65996 0.9245 0.90889 0.0
H949 H 0.67655 0.96248 0.93786 0.0
H950 H 0.70195 0.92386 0.99218 0.0
C951 C 0.72576 0.0092 0.04668 0.0
C952 C 0.68681 0.99853 0.99554 0.0
C953 C 0.74203 0.03225 0.06224 0.0
C954 C 0.65653 0.9144 0.92425 0.0
C955 C 0.66587 0.93617 0.94086 0.0
C956 C 0.69702 0.94427 0.99309 0.0
C957 C 0.7232 0.01971 0.02689 0.0
C958 C 0.70702 0.99497 0.01019 0.0
C959 C 0.66327 0.92432 0.96098 0.0
C960 C 0.6771 0.94798 0.97834 0.0
H961 H 0.76353 0.10325 0.03555 0.0
H962 H 0.73558 0.06293 0.00807 0.0
H963 H 0.72781 0.96429 0.01953 0.0
H964 H 0.6305 0.842 0.95051 0.0
H965 H 0.64686 0.88012 0.97957 0.0
C966 C 0.98205 0.71232 0.07086 0.0
C967 C 0.94837 0.6997 0.06606 0.0
C968 C 0.00582 0.72207 0.05536 0.0
C969 C 0.01531 0.71494 -0.00071 0.0
H970 H 0.09988 0.7956 0.00741 0.0
C971 C 0.10051 0.79 0.93291 0.0
C972 C 0.13469 0.80142 0.93456 0.0
C973 C 0.07943 0.7752 0.94956 0.0
C974 C 0.07659 0.77277 0.00506 0.0
H975 H 0.91314 0.68717 0.04128 0.0
H976 H 0.95468 0.70492 0.0141 0.0
H977 H 0.05929 0.77429 0.03517 0.0
H978 H 0.17366 0.80644 0.95504 0.0
H979 H 0.13652 0.78095 0.98458 0.0
H980 H 0.03227 0.7143 0.96888 0.0
C981 C 0.96272 0.70664 0.02985 0.0
C982 C 0.05328 0.76049 0.02095 0.0
C983 C 0.93887 0.69656 0.0454 0.0
C984 C 0.14742 0.79786 0.95334 0.0
C985 C 0.12624 0.78338 0.9702 0.0
C986 C 0.03847 0.7274 0.98337 0.0
C987 C 0.99656 0.71972 0.03465 0.0
C988 C 0.02214 0.73166 0.01817 0.0
C989 C 0.092 0.77173 0.96837 0.0
C990 C 0.06912 0.75671 0.98599 0.0
H991 H 0.99001 0.71439 0.08666 0.0
H992 H 0.03148 0.73133 0.05965 0.0
H993 H 0.99195 0.69229 0.99674 0.0
H994 H 0.08983 0.79223 0.91865 0.0
H995 H 0.05325 0.7669 0.94779 0.0
C996 C 0.21566 0.36352 0.95014 0.0
C997 C 0.21681 0.35221 0.93037 0.0
C998 C 0.22912 0.35529 0.96683 0.0
C999 C 0.28723 0.3254 0.98015 0.0
H1000 H 0.23429 0.29276 0.02959 0.0
C1001 C 0.31353 0.25369 0.04296 0.0
C1002 C 0.30913 0.25976 0.06348 0.0
C1003 C 0.30424 0.26751 0.02699 0.0
C1004 C 0.24964 0.30226 0.01602 0.0
H1005 H 0.23364 0.32404 0.91253 0.0
H1006 H 0.25686 0.30969 0.94151 0.0
H1007 H 0.21512 0.31347 0.00147 0.0
H1008 H 0.29279 0.2862 0.08331 0.0
H1009 H 0.27677 0.31034 0.05557 0.0
H1010 H 0.32162 0.31392 0.99462 0.0
C1011 C 0.24583 0.32509 0.94417 0.0
C1012 C 0.23865 0.31416 -9e-05 0.0
C1013 C 0.23227 0.33313 0.92756 0.0
C1014 C 0.29585 0.28045 0.06768 0.0
C1015 C 0.28667 0.29431 0.05176 0.0
C1016 C 0.29827 0.31356 0.99628 0.0
C1017 C 0.2442 0.33581 0.96402 0.0
C1018 C 0.25713 0.32553 0.98171 0.0
C1019 C 0.29048 0.2878 0.03123 0.0
C1020 C 0.27945 0.30155 0.01433 0.0
H1021 H 0.20393 0.37829 0.95277 0.0
H1022 H 0.22774 0.36415 0.98194 0.0
H1023 H 0.30227 0.33444 0.96642 0.0
H1024 H 0.32339 0.23762 0.03922 0.0
H1025 H 0.30712 0.26164 0.01134 0.0
C1026 C 0.06743 0.75483 0.44943 0.0
C1027 C 0.05674 0.75343 0.42913 0.0
C1028 C 0.0443 0.74061 0.46534 0.0
C1029 C 0.95651 0.71294 0.47795 0.0
H1030 H 0.97245 0.66923 0.52359 0.0
C1031 C 0.86088 0.64807 0.54335 0.0
C1032 C 0.87425 0.65635 0.56322 0.0
C1033 C 0.88192 0.65698 0.52628 0.0
C1034 C 0.96772 0.68145 0.51096 0.0
H1035 H 0.01343 0.73485 0.4095 0.0
H1036 H 0.97321 0.70981 0.43708 0.0
H1037 H 0.01192 0.6907 0.49523 0.0
H1038 H 0.92003 0.67972 0.58079 0.0
H1039 H 0.95644 0.69506 0.55117 0.0
H1040 H 0.91233 0.70373 0.49376 0.0
C1041 C 0.99939 0.72262 0.44086 0.0
C1042 C 0.9904 0.69389 0.49476 0.0
C1043 C 0.02247 0.73699 0.42503 0.0
C1044 C 0.90891 0.67304 0.56569 0.0
C1045 C 0.92983 0.68163 0.54872 0.0
C1046 C 0.93374 0.70034 0.4941 0.0
C1047 C 0.00998 0.72447 0.46124 0.0
C1048 C 0.98527 0.71012 0.47815 0.0
C1049 C 0.91663 0.67395 0.52882 0.0
C1050 C 0.93931 0.68483 0.51089 0.0
H1051 H 0.09365 0.76757 0.45308 0.0
H1052 H 0.05335 0.7429 0.48089 0.0
H1053 H 0.95198 0.72571 0.46557 0.0
H1054 H 0.83426 0.63522 0.54099 0.0
H1055 H 0.87107 0.65057 0.51111 0.0
C1056 C 0.34975 0.21538 0.54641 0.0
C1057 C 0.32682 0.19143 0.55998 0.0
C1058 C 0.33881 0.22812 0.53064 0.0
C1059 C 0.26551 0.23591 0.51628 0.0
H1060 H 0.30791 0.26034 0.46297 0.0
C1061 C 0.20717 0.2647 0.44697 0.0
C1062 C 0.22801 0.29364 0.43582 0.0
C1063 C 0.22029 0.25307 0.46198 0.0
C1064 C 0.29603 0.25383 0.47786 0.0
H1065 H 0.27449 0.16061 0.56706 0.0
H1066 H 0.25539 0.18164 0.53928 0.0
H1067 H 0.32882 0.23745 0.48897 0.0
H1068 H 0.27891 0.33285 0.43141 0.0
H1069 H 0.302 0.31228 0.45761 0.0
H1070 H 0.23225 0.25151 0.50497 0.0
C1071 C 0.28186 0.19173 0.54115 0.0
C1072 C 0.30803 0.24082 0.49278 0.0
C1073 C 0.29279 0.17944 0.55701 0.0
C1074 C 0.26228 0.31065 0.43992 0.0
C1075 C 0.2755 0.29874 0.45474 0.0
C1076 C 0.25331 0.24849 0.50131 0.0
C1077 C 0.30471 0.2168 0.52804 0.0
C1078 C 0.29275 0.23144 0.51215 0.0
C1079 C 0.25459 0.2699 0.46597 0.0
C1080 C 0.26831 0.25741 0.48193 0.0
H1081 H 0.37616 0.22513 0.54841 0.0
H1082 H 0.35716 0.24754 0.52094 0.0
H1083 H 0.25363 0.22987 0.53117 0.0
H1084 H 0.18065 0.25124 0.44423 0.0
H1085 H 0.20364 0.23066 0.47034 0.0
C1086 C 0.79785 0.13607 0.54594 0.0
C1087 C 0.80313 0.12624 0.5653 0.0
C1088 C 0.78713 0.11383 0.52947 0.0
C1089 C 0.74382 0.02416 0.51831 0.0
H1090 H 0.78002 0.05227 0.46369 0.0
C1091 C 0.70221 0.93085 0.45173 0.0
C1092 C 0.69424 0.94127 0.43343 0.0
C1093 C 0.71949 0.95371 0.46732 0.0
C1094 C 0.76954 0.04409 0.47884 0.0
H1095 H 0.80173 0.08552 0.58249 0.0
H1096 H 0.78325 0.04701 0.55385 0.0
H1097 H 0.80147 0.09201 0.49193 0.0
H1098 H 0.70016 0.98414 0.41659 0.0
H1099 H 0.72959 0.02379 0.44382 0.0
H1100 H 0.71149 0.9765 0.50527 0.0
C1101 C 0.78698 0.0717 0.55141 0.0
C1102 C 0.78178 0.06687 0.49499 0.0
C1103 C 0.79772 0.09387 0.56781 0.0
C1104 C 0.70543 0.97524 0.43064 0.0
C1105 C 0.72266 0.99806 0.44619 0.0
C1106 C 0.73155 0.00145 0.50218 0.0
C1107 C 0.78138 0.08132 0.53208 0.0
C1108 C 0.76893 0.05718 0.51489 0.0
C1109 C 0.72923 0.98746 0.4649 0.0
C1110 C 0.7441 0.01116 0.48222 0.0
H1111 H 0.80187 0.16087 0.54352 0.0
H1112 H 0.78273 0.12187 0.51479 0.0
H1113 H 0.73304 0.01604 0.5334 0.0
H1114 H 0.69387 0.90487 0.4544 0.0
H1115 H 0.72463 0.94483 0.48144 0.0
C1116 C 0.31277 0.37665 0.31431 0.0
C1117 C 0.27891 0.3662 0.31191 0.0
C1118 C 0.32976 0.36977 0.2992 0.0
C1119 C 0.327 0.34765 0.2449 0.0
H1120 H 0.37545 0.30401 0.2624 0.0
C1121 C 0.3689 0.25608 0.20677 0.0
C1122 C 0.38277 0.27304 0.18833 0.0
C1123 C 0.36243 0.27191 0.22283 0.0
C1124 C 0.36216 0.31633 0.25732 0.0
H1125 H 0.23658 0.34164 0.29155 0.0
H1126 H 0.26631 0.32984 0.26504 0.0
H1127 H 0.35141 0.32418 0.28806 0.0
H1128 H 0.40209 0.3203 0.17259 0.0
H1129 H 0.39097 0.34791 0.20067 0.0
H1130 H 0.33687 0.33904 0.21419 0.0
C1131 C 0.27969 0.34326 0.27862 0.0
C1132 C 0.34864 0.32808 0.27198 0.0
C1133 C 0.26263 0.34979 0.29382 0.0
C1134 C 0.39163 0.30663 0.18667 0.0
C1135 C 0.38496 0.32236 0.20265 0.0
C1136 C 0.34078 0.33622 0.23027 0.0
C1137 C 0.31327 0.35271 0.28131 0.0
C1138 C 0.3304 0.34329 0.26588 0.0
C1139 C 0.36949 0.30489 0.22067 0.0
C1140 C 0.35801 0.31995 0.23632 0.0
H1141 H 0.32583 0.38912 0.3282 0.0
H1142 H 0.35569 0.37749 0.30158 0.0
H1143 H 0.31324 0.35949 0.2398 0.0
H1144 H 0.36209 0.23028 0.20854 0.0
H1145 H 0.35035 0.25778 0.23651 0.0
C1146 C 0.7098 0.08795 0.19786 0.0
C1147 C 0.73223 0.08744 0.18361 0.0
C1148 C 0.69528 0.06321 0.21291 0.0
C1149 C 0.70955 0.00228 0.24034 0.0
H1150 H 0.61589 0.95912 0.25397 0.0
C1151 C 0.65196 0.88926 0.29308 0.0
C1152 C 0.63143 0.88923 0.30885 0.0
C1153 C 0.66073 0.91151 0.27676 0.0
C1154 C 0.64213 0.97114 0.25042 0.0
H1155 H 0.75569 0.05968 0.1734 0.0
H1156 H 0.73078 0.01705 0.19961 0.0
H1157 H 0.63873 0.00318 0.22801 0.0
H1158 H 0.6026 0.91122 0.31944 0.0
H1159 H 0.61819 0.95045 0.29094 0.0
H1160 H 0.7133 0.97078 0.26271 0.0
C1161 C 0.7249 0.03684 0.19948 0.0
C1162 C 0.6552 0.99638 0.23562 0.0
C1163 C 0.73928 0.06139 0.18449 0.0
C1164 C 0.61828 0.91057 0.30739 0.0
C1165 C 0.62724 0.93304 0.29108 0.0
C1166 C 0.69658 0.97723 0.25509 0.0
C1167 C 0.703 0.0376 0.21398 0.0
C1168 C 0.689 0.01194 0.23029 0.0
C1169 C 0.6494 0.93443 0.27593 0.0
C1170 C 0.66267 0.96109 0.26017 0.0
H1171 H 0.70393 0.10774 0.19762 0.0
H1172 H 0.67862 0.06451 0.22398 0.0
H1173 H 0.73584 0.01428 0.23689 0.0
H1174 H 0.66204 0.87272 0.29369 0.0
H1175 H 0.67715 0.91136 0.26505 0.0
C1176 C 0.89016 0.63268 0.20707 0.0
C1177 C 0.89103 0.61817 0.18837 0.0
C1178 C 0.91342 0.63835 0.22238 0.0
C1179 C 0.99864 0.65524 0.22709 0.0
H1180 H 0.98068 0.64971 0.28542 0.0
C1181 C 0.07143 0.68687 0.3101 0.0
C1182 C 0.09628 0.7199 0.30638 0.0
C1183 C 0.04695 0.66924 0.29544 0.0
C1184 C 0.98607 0.65097 0.26919 0.0
H1185 H 0.91597 0.59672 0.17151 0.0
H1186 H 0.95615 0.60615 0.19836 0.0
H1187 H 0.93448 0.62622 0.26117 0.0
H1188 H 0.11612 0.7597 0.28397 0.0
H1189 H 0.07326 0.72897 0.25838 0.0
H1190 H 0.05021 0.68055 0.23507 0.0
C1191 C 0.93772 0.61347 0.20107 0.0
C1192 C 0.95963 0.6378 0.25532 0.0
C1193 C 0.91443 0.60773 0.18579 0.0
C1194 C 0.09709 0.73439 0.28732 0.0
C1195 C 0.07273 0.71669 0.27262 0.0
C1196 C 0.02505 0.66853 0.24094 0.0
C1197 C 0.93805 0.6297 0.21927 0.0
C1198 C 0.96567 0.64029 0.23412 0.0
C1199 C 0.04697 0.68421 0.27673 0.0
C1200 C 0.01905 0.66704 0.26211 0.0
H1201 H 0.87217 0.64063 0.20961 0.0
H1202 H 0.91314 0.65105 0.23622 0.0
H1203 H 0.00411 0.65787 0.21083 0.0
H1204 H 0.06998 0.67513 0.32472 0.0
H1205 H 0.02759 0.64413 0.29893 0.0
C1206 C 0.76156 0.67091 0.69404 0.0
C1207 C 0.7518 0.63744 0.69054 0.0
C1208 C 0.74908 0.67998 0.71065 0.0
C1209 C 0.67874 0.64894 0.74602 0.0
H1210 H 0.73799 0.7297 0.77545 0.0
C1211 C 0.64 0.70152 0.81538 0.0
C1212 C 0.65274 0.73607 0.81505 0.0
C1213 C 0.65018 0.6865 0.80074 0.0
C1214 C 0.7211 0.7072 0.7673 0.0
H1215 H 0.72116 0.58716 0.70188 0.0
H1216 H 0.69909 0.60316 0.7311 0.0
H1217 H 0.76051 0.70833 0.74987 0.0
H1218 H 0.68421 0.78152 0.79829 0.0
H1219 H 0.70205 0.75539 0.7729 0.0
H1220 H 0.63926 0.64818 0.76349 0.0
C1221 C 0.71644 0.62228 0.72081 0.0
C1222 C 0.73399 0.69493 0.75268 0.0
C1223 C 0.72908 0.61315 0.70411 0.0
C1224 C 0.67456 0.75498 0.79924 0.0
C1225 C 0.68479 0.74004 0.78471 0.0
C1226 C 0.6658 0.66121 0.76078 0.0
C1227 C 0.7264 0.65584 0.72423 0.0
C1228 C 0.71289 0.66615 0.7415 0.0
C1229 C 0.67335 0.70581 0.7856 0.0
C1230 C 0.68681 0.69092 0.77117 0.0
H1231 H 0.77822 0.69021 0.68359 0.0
H1232 H 0.75663 0.70595 0.71256 0.0
H1233 H 0.66185 0.6268 0.73756 0.0
H1234 H 0.6233 0.68633 0.82746 0.0
H1235 H 0.641 0.66005 0.80176 0.0
C1236 C 0.23872 0.90277 0.78985 0.0
C1237 C 0.2568 0.89848 0.80563 0.0
C1238 C 0.25519 0.92614 0.77437 0.0
C1239 C 0.33016 0.00525 0.76577 0.0
H1240 H 0.3082 0.98719 0.70811 0.0
C1241 C 0.37536 0.07345 0.68192 0.0
C1242 C 0.37244 0.10181 0.68493 0.0
C1243 C 0.36486 0.04896 0.69703 0.0
C1244 C 0.31477 0.99251 0.72415 0.0
H1245 H 0.30616 0.9148 0.8175 0.0
H1246 H 0.33494 0.9559 0.79048 0.0
H1247 H 0.28204 0.94198 0.73308 0.0
H1248 H 0.35786 0.12761 0.70647 0.0
H1249 H 0.33991 0.08486 0.73312 0.0
H1250 H 0.36223 0.05597 0.75688 0.0
C1251 C 0.30809 0.94105 0.79006 0.0
C1252 C 0.29965 0.96673 0.73841 0.0
C1253 C 0.29166 0.91734 0.80536 0.0
C1254 C 0.3603 0.10595 0.70375 0.0
C1255 C 0.35019 0.08161 0.71899 0.0
C1256 C 0.34491 0.03115 0.75154 0.0
C1257 C 0.28997 0.94599 0.7746 0.0
C1258 C 0.30712 0.97289 0.75935 0.0
C1259 C 0.3516 0.05251 0.71554 0.0
C1260 C 0.33727 0.02501 0.73061 0.0
H1261 H 0.21183 0.88851 0.78973 0.0
H1262 H 0.24065 0.92961 0.76266 0.0
H1263 H 0.3361 0.01069 0.78187 0.0
H1264 H 0.38424 0.06939 0.66747 0.0
H1265 H 0.36643 0.02687 0.69407 0.0
C1266 C 0.07199 0.38424 0.81192 0.0
C1267 C 0.09688 0.37573 0.80973 0.0
C1268 C 0.0484 0.37662 0.79651 0.0
C1269 C 0.9892 0.33372 0.76908 0.0
H1270 H 0.01175 0.34368 0.7113 0.0
C1271 C 0.89637 0.25858 0.70496 0.0
C1272 C 0.89881 0.27461 0.68623 0.0
C1273 C 0.91916 0.2752 0.72066 0.0
C1274 C 0.00506 0.34113 0.72738 0.0
H1275 H 0.11756 0.35399 0.78931 0.0
H1276 H 0.07625 0.34053 0.76239 0.0
H1277 H 0.05596 0.36611 0.73689 0.0
H1278 H 0.9262 0.32103 0.66957 0.0
H1279 H 0.96579 0.35012 0.69708 0.0
H1280 H 0.93828 0.30822 0.75955 0.0
C1281 C 0.07502 0.35315 0.77602 0.0
C1282 C 0.03037 0.35367 0.74201 0.0
C1283 C 0.09849 0.36059 0.79149 0.0
C1284 C 0.92352 0.30808 0.68388 0.0
C1285 C 0.94641 0.32463 0.69954 0.0
C1286 C 0.96388 0.32098 0.75445 0.0
C1287 C 0.04937 0.36052 0.77855 0.0
C1288 C 0.02269 0.34971 0.763 0.0
C1289 C 0.94493 0.30812 0.71789 0.0
C1290 C 0.97156 0.32419 0.73345 0.0
H1291 H 0.06993 0.39565 0.82589 0.0
H1292 H 0.02909 0.38286 0.79878 0.0
H1293 H 0.98253 0.33004 0.78517 0.0
H1294 H 0.87739 0.23289 0.70727 0.0
H1295 H 0.9175 0.26176 0.7346 0.0
loop_
_geom_bond_atom_site_label_1
_geom_bond_atom_site_label_2
_geom_bond_distance
_geom_bond_site_symmetry_2
_ccdc_geom_bond_type
C0 C1 1.351 . S
C0 N3 1.368 . S
C0 H5 0.931 . S
C1 C0 1.351 . S
C1 N2 1.373 . S
C1 H29 0.930 . S
N2 C1 1.373 . S
N2 C4 1.340 . S
N3 C0 1.368 . S
N3 C4 1.321 . S
N3 Co6 2.135 . S
C4 N2 1.340 . S
C4 N3 1.321 . S
C4 H28 0.930 . S
H5 C0 0.931 . S
Co6 N3 2.135 . S
Co6 N9 2.121 . S
Co6 O14 2.055 . S
Co6 O17 2.039 . S
Co6 N20 2.140 . S
C7 O8 1.227 . S
C7 O17 1.265 . S
O8 C7 1.227 . S
N9 Co6 2.121 . S
N9 C11 1.375 . S
N9 C12 1.313 . S
C10 C11 1.338 . S
C10 N13 1.377 . S
C10 H30 0.930 . S
C11 N9 1.375 . S
C11 C10 1.338 . S
C11 H15 0.931 . S
C12 N9 1.313 . S
C12 N13 1.344 . S
C12 H16 0.930 . S
N13 C10 1.377 . S
N13 C12 1.344 . S
O14 Co6 2.055 . S
O14 C18 1.253 . S
H15 C11 0.931 . S
H16 C12 0.930 . S
O17 Co6 2.039 . S
O17 C7 1.265 . S
C18 O14 1.253 . S
C18 O19 1.227 . S
O19 C18 1.227 . S
N20 Co6 2.140 . S
N20 C23 1.346 . S
N20 C24 1.345 . S
C21 C22 1.387 . S
C21 C25 1.391 . S
C22 C21 1.387 . S
C22 C23 1.369 . S
C22 H31 0.929 . S
C23 N20 1.346 . S
C23 C22 1.369 . S
C23 H26 0.928 . S
C24 N20 1.345 . S
C24 C25 1.371 . S
C24 H27 0.931 . S
C25 C21 1.391 . S
C25 C24 1.371 . S
C25 H32 0.930 . S
H26 C23 0.928 . S
H27 C24 0.931 . S
H28 C4 0.930 . S
H29 C1 0.930 . S
H30 C10 0.930 . S
H31 C22 0.929 . S
H32 C25 0.930 . S
C33 C34 1.351 . S
C33 N36 1.368 . S
C33 H38 0.931 . S
C34 C33 1.351 . S
C34 N35 1.373 . S
C34 H62 0.930 . S
N35 C34 1.373 . S
N35 C37 1.340 . S
N36 C33 1.368 . S
N36 C37 1.321 . S
N36 Co39 2.135 . S
C37 N35 1.340 . S
C37 N36 1.321 . S
C37 H61 0.930 . S
H38 C33 0.931 . S
Co39 N36 2.135 . S
Co39 N42 2.121 . S
Co39 O47 2.055 . S
Co39 O50 2.039 . S
Co39 N53 2.140 . S
C40 O41 1.227 . S
C40 O50 1.265 . S
O41 C40 1.227 . S
N42 Co39 2.121 . S
N42 C44 1.375 . S
N42 C45 1.313 . S
C43 C44 1.338 . S
C43 N46 1.377 . S
C43 H63 0.930 . S
C44 N42 1.375 . S
C44 C43 1.338 . S
C44 H48 0.931 . S
C45 N42 1.313 . S
C45 N46 1.344 . S
C45 H49 0.930 . S
N46 C43 1.377 . S
N46 C45 1.344 . S
O47 Co39 2.055 . S
O47 C51 1.253 . S
H48 C44 0.931 . S
H49 C45 0.930 . S
O50 Co39 2.039 . S
O50 C40 1.265 . S
C51 O47 1.253 . S
C51 O52 1.227 . S
O52 C51 1.227 . S
N53 Co39 2.140 . S
N53 C56 1.346 . S
N53 C57 1.345 . S
C54 C55 1.387 . S
C54 C58 1.391 . S
C55 C54 1.387 . S
C55 C56 1.369 . S
C55 H64 0.929 . S
C56 N53 1.346 . S
C56 C55 1.369 . S
C56 H59 0.928 . S
C57 N53 1.345 . S
C57 C58 1.371 . S
C57 H60 0.931 . S
C58 C54 1.391 . S
C58 C57 1.371 . S
C58 H65 0.930 . S
H59 C56 0.928 . S
H60 C57 0.931 . S
H61 C37 0.930 . S
H62 C34 0.930 . S
H63 C43 0.930 . S
H64 C55 0.929 . S
H65 C58 0.930 . S
C66 C67 1.351 . S
C66 N69 1.368 . S
C66 H71 0.931 . S
C67 C66 1.351 . S
C67 N68 1.373 . S
C67 H95 0.930 . S
N68 C67 1.373 . S
N68 C70 1.340 . S
N69 C66 1.368 . S
N69 C70 1.321 . S
N69 Co72 2.135 . S
C70 N68 1.340 . S
C70 N69 1.321 . S
C70 H94 0.930 . S
H71 C66 0.931 . S
Co72 N69 2.135 . S
Co72 N75 2.121 . S
Co72 O80 2.055 . S
Co72 O83 2.039 . S
Co72 N86 2.140 . S
C73 O74 1.227 . S
C73 O83 1.265 . S
O74 C73 1.227 . S
N75 Co72 2.121 . S
N75 C77 1.375 . S
N75 C78 1.313 . S
C76 C77 1.338 . S
C76 N79 1.377 . S
C76 H96 0.930 . S
C77 N75 1.375 . S
C77 C76 1.338 . S
C77 H81 0.931 . S
C78 N75 1.313 . S
C78 N79 1.344 . S
C78 H82 0.930 . S
N79 C76 1.377 . S
N79 C78 1.344 . S
O80 Co72 2.055 . S
O80 C84 1.253 . S
H81 C77 0.931 . S
H82 C78 0.930 . S
O83 Co72 2.039 . S
O83 C73 1.265 . S
C84 O80 1.253 . S
C84 O85 1.227 . S
O85 C84 1.227 . S
N86 Co72 2.140 . S
N86 C89 1.346 . S
N86 C90 1.345 . S
C87 C88 1.387 . S
C87 C91 1.391 . S
C88 C87 1.387 . S
C88 C89 1.369 . S
C88 H97 0.929 . S
C89 N86 1.346 . S
C89 C88 1.369 . S
C89 H92 0.928 . S
C90 N86 1.345 . S
C90 C91 1.371 . S
C90 H93 0.931 . S
C91 C87 1.391 . S
C91 C90 1.371 . S
C91 H98 0.930 . S
H92 C89 0.928 . S
H93 C90 0.931 . S
H94 C70 0.930 . S
H95 C67 0.930 . S
H96 C76 0.930 . S
H97 C88 0.929 . S
H98 C91 0.930 . S
C99 C100 1.351 . S
C99 N102 1.368 . S
C99 H104 0.931 . S
C100 C99 1.351 . S
C100 N101 1.373 . S
C100 H128 0.930 . S
N101 C100 1.373 . S
N101 C103 1.340 . S
N102 C99 1.368 . S
N102 C103 1.321 . S
N102 Co105 2.135 . S
C103 N101 1.340 . S
C103 N102 1.321 . S
C103 H127 0.930 . S
H104 C99 0.931 . S
Co105 N102 2.135 . S
Co105 N108 2.121 . S
Co105 O113 2.055 . S
Co105 O116 2.039 . S
Co105 N119 2.140 . S
C106 O107 1.227 . S
C106 O116 1.265 . S
O107 C106 1.227 . S
N108 Co105 2.121 . S
N108 C110 1.375 . S
N108 C111 1.313 . S
C109 C110 1.338 . S
C109 N112 1.377 . S
C109 H129 0.930 . S
C110 N108 1.375 . S
C110 C109 1.338 . S
C110 H114 0.931 . S
C111 N108 1.313 . S
C111 N112 1.344 . S
C111 H115 0.930 . S
N112 C109 1.377 . S
N112 C111 1.344 . S
O113 Co105 2.055 . S
O113 C117 1.253 . S
H114 C110 0.931 . S
H115 C111 0.930 . S
O116 Co105 2.039 . S
O116 C106 1.265 . S
C117 O113 1.253 . S
C117 O118 1.227 . S
O118 C117 1.227 . S
N119 Co105 2.140 . S
N119 C122 1.346 . S
N119 C123 1.345 . S
C120 C121 1.387 . S
C120 C124 1.391 . S
C121 C120 1.387 . S
C121 C122 1.369 . S
C121 H130 0.929 . S
C122 N119 1.346 . S
C122 C121 1.369 . S
C122 H125 0.928 . S
C123 N119 1.345 . S
C123 C124 1.371 . S
C123 H126 0.931 . S
C124 C120 1.391 . S
C124 C123 1.371 . S
C124 H131 0.930 . S
H125 C122 0.928 . S
H126 C123 0.931 . S
H127 C103 0.930 . S
H128 C100 0.930 . S
H129 C109 0.930 . S
H130 C121 0.929 . S
H131 C124 0.930 . S
C132 C133 1.351 . S
C132 N135 1.368 . S
C132 H137 0.931 . S
C133 C132 1.351 . S
C133 N134 1.373 . S
C133 H161 0.930 . S
N134 C133 1.373 . S
N134 C136 1.340 . S
N135 C132 1.368 . S
N135 C136 1.321 . S
N135 Co138 2.135 . S
C136 N134 1.340 . S
C136 N135 1.321 . S
C136 H160 0.930 . S
H137 C132 0.931 . S
Co138 N135 2.135 . S
Co138 N141 2.121 . S
Co138 O146 2.055 . S
Co138 O149 2.039 . S
Co138 N152 2.140 . S
C139 O140 1.227 . S
C139 O149 1.265 . S
O140 C139 1.227 . S
N141 Co138 2.121 . S
N141 C143 1.375 . S
N141 C144 1.313 . S
C142 C143 1.338 . S
C142 N145 1.377 . S
C142 H162 0.930 . S
C143 N141 1.375 . S
C143 C142 1.338 . S
C143 H147 0.931 . S
C144 N141 1.313 . S
C144 N145 1.344 . S
C144 H148 0.930 . S
N145 C142 1.377 . S
N145 C144 1.344 . S
O146 Co138 2.055 . S
O146 C150 1.253 . S
H147 C143 0.931 . S
H148 C144 0.930 . S
O149 Co138 2.039 . S
O149 C139 1.265 . S
C150 O146 1.253 . S
C150 O151 1.227 . S
O151 C150 1.227 . S
N152 Co138 2.140 . S
N152 C155 1.346 . S
N152 C156 1.345 . S
C153 C154 1.387 . S
C153 C157 1.391 . S
C154 C153 1.387 . S
C154 C155 1.369 . S
C154 H163 0.929 . S
C155 N152 1.346 . S
C155 C154 1.369 . S
C155 H158 0.928 . S
C156 N152 1.345 . S
C156 C157 1.371 . S
C156 H159 0.931 . S
C157 C153 1.391 . S
C157 C156 1.371 . S
C157 H164 0.930 . S
H158 C155 0.928 . S
H159 C156 0.931 . S
H160 C136 0.930 . S
H161 C133 0.930 . S
H162 C142 0.930 . S
H163 C154 0.929 . S
H164 C157 0.930 . S
C165 C166 1.351 . S
C165 N168 1.368 . S
C165 H170 0.931 . S
C166 C165 1.351 . S
C166 N167 1.373 . S
C166 H194 0.930 . S
N167 C166 1.373 . S
N167 C169 1.340 . S
N168 C165 1.368 . S
N168 C169 1.321 . S
N168 Co171 2.135 . S
C169 N167 1.340 . S
C169 N168 1.321 . S
C169 H193 0.930 . S
H170 C165 0.931 . S
Co171 N168 2.135 . S
Co171 N174 2.121 . S
Co171 O179 2.055 . S
Co171 O182 2.039 . S
Co171 N185 2.140 . S
C172 O173 1.227 . S
C172 O182 1.265 . S
O173 C172 1.227 . S
N174 Co171 2.121 . S
N174 C176 1.375 . S
N174 C177 1.313 . S
C175 C176 1.338 . S
C175 N178 1.377 . S
C175 H195 0.930 . S
C176 N174 1.375 . S
C176 C175 1.338 . S
C176 H180 0.931 . S
C177 N174 1.313 . S
C177 N178 1.344 . S
C177 H181 0.930 . S
N178 C175 1.377 . S
N178 C177 1.344 . S
O179 Co171 2.055 . S
O179 C183 1.253 . S
H180 C176 0.931 . S
H181 C177 0.930 . S
O182 Co171 2.039 . S
O182 C172 1.265 . S
C183 O179 1.253 . S
C183 O184 1.227 . S
O184 C183 1.227 . S
N185 Co171 2.140 . S
N185 C188 1.346 . S
N185 C189 1.345 . S
C186 C187 1.387 . S
C186 C190 1.391 . S
C187 C186 1.387 . S
C187 C188 1.369 . S
C187 H196 0.929 . S
C188 N185 1.346 . S
C188 C187 1.369 . S
C188 H191 0.928 . S
C189 N185 1.345 . S
C189 C190 1.371 . S
C189 H192 0.931 . S
C190 C186 1.391 . S
C190 C189 1.371 . S
C190 H197 0.930 . S
H191 C188 0.928 . S
H192 C189 0.931 . S
H193 C169 0.930 . S
H194 C166 0.930 . S
H195 C175 0.930 . S
H196 C187 0.929 . S
H197 C190 0.930 . S
C198 C199 1.351 . S
C198 N201 1.368 . S
C198 H203 0.931 . S
C199 C198 1.351 . S
C199 N200 1.373 . S
C199 H227 0.930 . S
N200 C199 1.373 . S
N200 C202 1.340 . S
N201 C198 1.368 . S
N201 C202 1.321 . S
N201 Co204 2.135 . S
C202 N200 1.340 . S
C202 N201 1.321 . S
C202 H226 0.930 . S
H203 C198 0.931 . S
Co204 N201 2.135 . S
Co204 N207 2.121 . S
Co204 O212 2.055 . S
Co204 O215 2.039 . S
Co204 N218 2.140 . S
C205 O206 1.227 . S
C205 O215 1.265 . S
O206 C205 1.227 . S
N207 Co204 2.121 . S
N207 C209 1.375 . S
N207 C210 1.313 . S
C208 C209 1.338 . S
C208 N211 1.377 . S
C208 H228 0.930 . S
C209 N207 1.375 . S
C209 C208 1.338 . S
C209 H213 0.931 . S
C210 N207 1.313 . S
C210 N211 1.344 . S
C210 H214 0.930 . S
N211 C208 1.377 . S
N211 C210 1.344 . S
O212 Co204 2.055 . S
O212 C216 1.253 . S
H213 C209 0.931 . S
H214 C210 0.930 . S
O215 Co204 2.039 . S
O215 C205 1.265 . S
C216 O212 1.253 . S
C216 O217 1.227 . S
O217 C216 1.227 . S
N218 Co204 2.140 . S
N218 C221 1.346 . S
N218 C222 1.345 . S
C219 C220 1.387 . S
C219 C223 1.391 . S
C220 C219 1.387 . S
C220 C221 1.369 . S
C220 H229 0.929 . S
C221 N218 1.346 . S
C221 C220 1.369 . S
C221 H224 0.928 . S
C222 N218 1.345 . S
C222 C223 1.371 . S
C222 H225 0.931 . S
C223 C219 1.391 . S
C223 C222 1.371 . S
C223 H230 0.930 . S
H224 C221 0.928 . S
H225 C222 0.931 . S
H226 C202 0.930 . S
H227 C199 0.930 . S
H228 C208 0.930 . S
H229 C220 0.929 . S
H230 C223 0.930 . S
C231 C232 1.351 . S
C231 N234 1.368 . S
C231 H236 0.931 . S
C232 C231 1.351 . S
C232 N233 1.373 . S
C232 H260 0.930 . S
N233 C232 1.373 . S
N233 C235 1.340 . S
N234 C231 1.368 . S
N234 C235 1.321 . S
N234 Co237 2.135 . S
C235 N233 1.340 . S
C235 N234 1.321 . S
C235 H259 0.930 . S
H236 C231 0.931 . S
Co237 N234 2.135 . S
Co237 N240 2.121 . S
Co237 O245 2.055 . S
Co237 O248 2.039 . S
Co237 N251 2.140 . S
C238 O239 1.227 . S
C238 O248 1.265 . S
O239 C238 1.227 . S
N240 Co237 2.121 . S
N240 C242 1.375 . S
N240 C243 1.313 . S
C241 C242 1.338 . S
C241 N244 1.377 . S
C241 H261 0.930 . S
C242 N240 1.375 . S
C242 C241 1.338 . S
C242 H246 0.931 . S
C243 N240 1.313 . S
C243 N244 1.344 . S
C243 H247 0.930 . S
N244 C241 1.377 . S
N244 C243 1.344 . S
O245 Co237 2.055 . S
O245 C249 1.253 . S
H246 C242 0.931 . S
H247 C243 0.930 . S
O248 Co237 2.039 . S
O248 C238 1.265 . S
C249 O245 1.253 . S
C249 O250 1.227 . S
O250 C249 1.227 . S
N251 Co237 2.140 . S
N251 C254 1.346 . S
N251 C255 1.345 . S
C252 C253 1.387 . S
C252 C256 1.391 . S
C253 C252 1.387 . S
C253 C254 1.369 . S
C253 H262 0.929 . S
C254 N251 1.346 . S
C254 C253 1.369 . S
C254 H257 0.928 . S
C255 N251 1.345 . S
C255 C256 1.371 . S
C255 H258 0.931 . S
C256 C252 1.391 . S
C256 C255 1.371 . S
C256 H263 0.930 . S
H257 C254 0.928 . S
H258 C255 0.931 . S
H259 C235 0.930 . S
H260 C232 0.930 . S
H261 C241 0.930 . S
H262 C253 0.929 . S
H263 C256 0.930 . S
C264 C265 1.351 . S
C264 N267 1.368 . S
C264 H269 0.931 . S
C265 C264 1.351 . S
C265 N266 1.373 . S
C265 H293 0.930 . S
N266 C265 1.373 . S
N266 C268 1.340 . S
N267 C264 1.368 . S
N267 C268 1.321 . S
N267 Co270 2.135 . S
C268 N266 1.340 . S
C268 N267 1.321 . S
C268 H292 0.930 . S
H269 C264 0.931 . S
Co270 N267 2.135 . S
Co270 N273 2.121 . S
Co270 O278 2.055 . S
Co270 O281 2.039 . S
Co270 N284 2.140 . S
C271 O272 1.227 . S
C271 O281 1.265 . S
O272 C271 1.227 . S
N273 Co270 2.121 . S
N273 C275 1.375 . S
N273 C276 1.313 . S
C274 C275 1.338 . S
C274 N277 1.377 . S
C274 H294 0.930 . S
C275 N273 1.375 . S
C275 C274 1.338 . S
C275 H279 0.931 . S
C276 N273 1.313 . S
C276 N277 1.344 . S
C276 H280 0.930 . S
N277 C274 1.377 . S
N277 C276 1.344 . S
O278 Co270 2.055 . S
O278 C282 1.253 . S
H279 C275 0.931 . S
H280 C276 0.930 . S
O281 Co270 2.039 . S
O281 C271 1.265 . S
C282 O278 1.253 . S
C282 O283 1.227 . S
O283 C282 1.227 . S
N284 Co270 2.140 . S
N284 C287 1.346 . S
N284 C288 1.345 . S
C285 C286 1.387 . S
C285 C289 1.391 . S
C286 C285 1.387 . S
C286 C287 1.369 . S
C286 H295 0.929 . S
C287 N284 1.346 . S
C287 C286 1.369 . S
C287 H290 0.928 . S
C288 N284 1.345 . S
C288 C289 1.371 . S
C288 H291 0.931 . S
C289 C285 1.391 . S
C289 C288 1.371 . S
C289 H296 0.930 . S
H290 C287 0.928 . S
H291 C288 0.931 . S
H292 C268 0.930 . S
H293 C265 0.930 . S
H294 C274 0.930 . S
H295 C286 0.929 . S
H296 C289 0.930 . S
C297 C298 1.351 . S
C297 N300 1.368 . S
C297 H302 0.931 . S
C298 C297 1.351 . S
C298 N299 1.373 . S
C298 H326 0.930 . S
N299 C298 1.373 . S
N299 C301 1.340 . S
N300 C297 1.368 . S
N300 C301 1.321 . S
N300 Co303 2.135 . S
C301 N299 1.340 . S
C301 N300 1.321 . S
C301 H325 0.930 . S
H302 C297 0.931 . S
Co303 N300 2.135 . S
Co303 N306 2.121 . S
Co303 O311 2.055 . S
Co303 O314 2.039 . S
Co303 N317 2.140 . S
C304 O305 1.227 . S
C304 O314 1.265 . S
O305 C304 1.227 . S
N306 Co303 2.121 . S
N306 C308 1.375 . S
N306 C309 1.313 . S
C307 C308 1.338 . S
C307 N310 1.377 . S
C307 H327 0.930 . S
C308 N306 1.375 . S
C308 C307 1.338 . S
C308 H312 0.931 . S
C309 N306 1.313 . S
C309 N310 1.344 . S
C309 H313 0.930 . S
N310 C307 1.377 . S
N310 C309 1.344 . S
O311 Co303 2.055 . S
O311 C315 1.253 . S
H312 C308 0.931 . S
H313 C309 0.930 . S
O314 Co303 2.039 . S
O314 C304 1.265 . S
C315 O311 1.253 . S
C315 O316 1.227 . S
O316 C315 1.227 . S
N317 Co303 2.140 . S
N317 C320 1.346 . S
N317 C321 1.345 . S
C318 C319 1.387 . S
C318 C322 1.391 . S
C319 C318 1.387 . S
C319 C320 1.369 . S
C319 H328 0.929 . S
C320 N317 1.346 . S
C320 C319 1.369 . S
C320 H323 0.928 . S
C321 N317 1.345 . S
C321 C322 1.371 . S
C321 H324 0.931 . S
C322 C318 1.391 . S
C322 C321 1.371 . S
C322 H329 0.930 . S
H323 C320 0.928 . S
H324 C321 0.931 . S
H325 C301 0.930 . S
H326 C298 0.930 . S
H327 C307 0.930 . S
H328 C319 0.929 . S
H329 C322 0.930 . S
C330 C331 1.351 . S
C330 N333 1.368 . S
C330 H335 0.931 . S
C331 C330 1.351 . S
C331 N332 1.373 . S
C331 H359 0.930 . S
N332 C331 1.373 . S
N332 C334 1.340 . S
N333 C330 1.368 . S
N333 C334 1.321 . S
N333 Co336 2.135 . S
C334 N332 1.340 . S
C334 N333 1.321 . S
C334 H358 0.930 . S
H335 C330 0.931 . S
Co336 N333 2.135 . S
Co336 N339 2.121 . S
Co336 O344 2.055 . S
Co336 O347 2.039 . S
Co336 N350 2.140 . S
C337 O338 1.227 . S
C337 O347 1.265 . S
O338 C337 1.227 . S
N339 Co336 2.121 . S
N339 C341 1.375 . S
N339 C342 1.313 . S
C340 C341 1.338 . S
C340 N343 1.377 . S
C340 H360 0.930 . S
C341 N339 1.375 . S
C341 C340 1.338 . S
C341 H345 0.931 . S
C342 N339 1.313 . S
C342 N343 1.344 . S
C342 H346 0.930 . S
N343 C340 1.377 . S
N343 C342 1.344 . S
O344 Co336 2.055 . S
O344 C348 1.253 . S
H345 C341 0.931 . S
H346 C342 0.930 . S
O347 Co336 2.039 . S
O347 C337 1.265 . S
C348 O344 1.253 . S
C348 O349 1.227 . S
O349 C348 1.227 . S
N350 Co336 2.140 . S
N350 C353 1.346 . S
N350 C354 1.345 . S
C351 C352 1.387 . S
C351 C355 1.391 . S
C352 C351 1.387 . S
C352 C353 1.369 . S
C352 H361 0.929 . S
C353 N350 1.346 . S
C353 C352 1.369 . S
C353 H356 0.928 . S
C354 N350 1.345 . S
C354 C355 1.371 . S
C354 H357 0.931 . S
C355 C351 1.391 . S
C355 C354 1.371 . S
C355 H362 0.930 . S
H356 C353 0.928 . S
H357 C354 0.931 . S
H358 C334 0.930 . S
H359 C331 0.930 . S
H360 C340 0.930 . S
H361 C352 0.929 . S
H362 C355 0.930 . S
C363 C364 1.351 . S
C363 N366 1.368 . S
C363 H368 0.931 . S
C364 C363 1.351 . S
C364 N365 1.373 . S
C364 H392 0.930 . S
N365 C364 1.373 . S
N365 C367 1.340 . S
N366 C363 1.368 . S
N366 C367 1.321 . S
N366 Co369 2.135 . S
C367 N365 1.340 . S
C367 N366 1.321 . S
C367 H391 0.930 . S
H368 C363 0.931 . S
Co369 N366 2.135 . S
Co369 N372 2.121 . S
Co369 O377 2.055 . S
Co369 O380 2.039 . S
Co369 N383 2.140 . S
C370 O371 1.227 . S
C370 O380 1.265 . S
O371 C370 1.227 . S
N372 Co369 2.121 . S
N372 C374 1.375 . S
N372 C375 1.313 . S
C373 C374 1.338 . S
C373 N376 1.377 . S
C373 H393 0.930 . S
C374 N372 1.375 . S
C374 C373 1.338 . S
C374 H378 0.931 . S
C375 N372 1.313 . S
C375 N376 1.344 . S
C375 H379 0.930 . S
N376 C373 1.377 . S
N376 C375 1.344 . S
O377 Co369 2.055 . S
O377 C381 1.253 . S
H378 C374 0.931 . S
H379 C375 0.930 . S
O380 Co369 2.039 . S
O380 C370 1.265 . S
C381 O377 1.253 . S
C381 O382 1.227 . S
O382 C381 1.227 . S
N383 Co369 2.140 . S
N383 C386 1.346 . S
N383 C387 1.345 . S
C384 C385 1.387 . S
C384 C388 1.391 . S
C385 C384 1.387 . S
C385 C386 1.369 . S
C385 H394 0.929 . S
C386 N383 1.346 . S
C386 C385 1.369 . S
C386 H389 0.928 . S
C387 N383 1.345 . S
C387 C388 1.371 . S
C387 H390 0.931 . S
C388 C384 1.391 . S
C388 C387 1.371 . S
C388 H395 0.930 . S
H389 C386 0.928 . S
H390 C387 0.931 . S
H391 C367 0.930 . S
H392 C364 0.930 . S
H393 C373 0.930 . S
H394 C385 0.929 . S
H395 C388 0.930 . S
C396 C397 1.349 . S
C396 C398 1.327 . S
C396 H421 0.950 . S
C397 C396 1.349 . S
C397 C413 1.349 . S
C398 C396 1.327 . S
C398 C417 1.429 . S
C398 H422 0.950 . S
C399 C416 1.574 . S
C399 C418 1.368 . S
C399 H423 0.949 . S
H400 C404 0.949 . S
C401 C402 1.349 . S
C401 C403 1.327 . S
C401 H424 0.950 . S
C402 C401 1.349 . S
C402 C414 1.349 . S
C403 C401 1.327 . S
C403 C419 1.429 . S
C403 H425 0.950 . S
C404 H400 0.949 . S
C404 C412 1.574 . S
C404 C420 1.368 . S
H405 C413 0.950 . S
H406 C411 0.950 . S
H407 C412 0.949 . S
H408 C414 0.950 . S
H409 C415 0.950 . S
H410 C416 0.949 . S
C411 H406 0.950 . S
C411 C413 1.327 . S
C411 C417 1.429 . S
C412 C404 1.574 . S
C412 H407 0.949 . S
C412 C418 1.368 . S
C413 C397 1.349 . S
C413 H405 0.950 . S
C413 C411 1.327 . S
C414 C402 1.349 . S
C414 H408 0.950 . S
C414 C415 1.327 . S
C415 H409 0.950 . S
C415 C414 1.327 . S
C415 C419 1.429 . S
C416 C399 1.574 . S
C416 H410 0.949 . S
C416 C420 1.368 . S
C417 C398 1.429 . S
C417 C411 1.429 . S
C417 C418 1.523 . S
C418 C399 1.368 . S
C418 C412 1.368 . S
C418 C417 1.523 . S
C419 C403 1.429 . S
C419 C415 1.429 . S
C419 C420 1.523 . S
C420 C404 1.368 . S
C420 C416 1.368 . S
C420 C419 1.523 . S
H421 C396 0.950 . S
H422 C398 0.950 . S
H423 C399 0.949 . S
H424 C401 0.950 . S
H425 C403 0.950 . S
C426 C427 1.349 . S
C426 C428 1.327 . S
C426 H451 0.950 . S
C427 C426 1.349 . S
C427 C443 1.349 . S
C428 C426 1.327 . S
C428 C447 1.429 . S
C428 H452 0.950 . S
C429 C446 1.574 . S
C429 C448 1.368 . S
C429 H453 0.949 . S
H430 C434 0.949 . S
C431 C432 1.349 . S
C431 C433 1.327 . S
C431 H454 0.950 . S
C432 C431 1.349 . S
C432 C444 1.349 . S
C433 C431 1.327 . S
C433 C449 1.429 . S
C433 H455 0.950 . S
C434 H430 0.949 . S
C434 C442 1.574 . S
C434 C450 1.368 . S
H435 C443 0.950 . S
H436 C441 0.950 . S
H437 C442 0.949 . S
H438 C444 0.950 . S
H439 C445 0.950 . S
H440 C446 0.949 . S
C441 H436 0.950 . S
C441 C443 1.327 . S
C441 C447 1.429 . S
C442 C434 1.574 . S
C442 H437 0.949 . S
C442 C448 1.368 . S
C443 C427 1.349 . S
C443 H435 0.950 . S
C443 C441 1.327 . S
C444 C432 1.349 . S
C444 H438 0.950 . S
C444 C445 1.327 . S
C445 H439 0.950 . S
C445 C444 1.327 . S
C445 C449 1.429 . S
C446 C429 1.574 . S
C446 H440 0.949 . S
C446 C450 1.368 . S
C447 C428 1.429 . S
C447 C441 1.429 . S
C447 C448 1.523 . S
C448 C429 1.368 . S
C448 C442 1.368 . S
C448 C447 1.523 . S
C449 C433 1.429 . S
C449 C445 1.429 . S
C449 C450 1.523 . S
C450 C434 1.368 . S
C450 C446 1.368 . S
C450 C449 1.523 . S
H451 C426 0.950 . S
H452 C428 0.950 . S
H453 C429 0.949 . S
H454 C431 0.950 . S
H455 C433 0.950 . S
C456 C457 1.349 . S
C456 C458 1.327 . S
C456 H481 0.950 . S
C457 C456 1.349 . S
C457 C473 1.349 . S
C458 C456 1.327 . S
C458 C477 1.429 . S
C458 H482 0.950 . S
C459 C476 1.574 . S
C459 C478 1.368 . S
C459 H483 0.949 . S
H460 C464 0.949 . S
C461 C462 1.349 . S
C461 C463 1.327 . S
C461 H484 0.950 . S
C462 C461 1.349 . S
C462 C474 1.349 . S
C463 C461 1.327 . S
C463 C479 1.429 . S
C463 H485 0.950 . S
C464 H460 0.949 . S
C464 C472 1.574 . S
C464 C480 1.368 . S
H465 C473 0.950 . S
H466 C471 0.950 . S
H467 C472 0.949 . S
H468 C474 0.950 . S
H469 C475 0.950 . S
H470 C476 0.949 . S
C471 H466 0.950 . S
C471 C473 1.327 . S
C471 C477 1.429 . S
C472 C464 1.574 . S
C472 H467 0.949 . S
C472 C478 1.368 . S
C473 C457 1.349 . S
C473 H465 0.950 . S
C473 C471 1.327 . S
C474 C462 1.349 . S
C474 H468 0.950 . S
C474 C475 1.327 . S
C475 H469 0.950 . S
C475 C474 1.327 . S
C475 C479 1.429 . S
C476 C459 1.574 . S
C476 H470 0.949 . S
C476 C480 1.368 . S
C477 C458 1.429 . S
C477 C471 1.429 . S
C477 C478 1.523 . S
C478 C459 1.368 . S
C478 C472 1.368 . S
C478 C477 1.523 . S
C479 C463 1.429 . S
C479 C475 1.429 . S
C479 C480 1.523 . S
C480 C464 1.368 . S
C480 C476 1.368 . S
C480 C479 1.523 . S
H481 C456 0.950 . S
H482 C458 0.950 . S
H483 C459 0.949 . S
H484 C461 0.950 . S
H485 C463 0.950 . S
C486 C487 1.349 . S
C486 C488 1.327 . S
C486 H511 0.950 . S
C487 C486 1.349 . S
C487 C503 1.349 . S
C488 C486 1.327 . S
C488 C507 1.429 . S
C488 H512 0.950 . S
C489 C506 1.574 . S
C489 C508 1.368 . S
C489 H513 0.949 . S
H490 C494 0.949 . S
C491 C492 1.349 . S
C491 C493 1.327 . S
C491 H514 0.950 . S
C492 C491 1.349 . S
C492 C504 1.349 . S
C493 C491 1.327 . S
C493 C509 1.429 . S
C493 H515 0.950 . S
C494 H490 0.949 . S
C494 C502 1.574 . S
C494 C510 1.368 . S
H495 C503 0.950 . S
H496 C501 0.950 . S
H497 C502 0.949 . S
H498 C504 0.950 . S
H499 C505 0.950 . S
H500 C506 0.949 . S
C501 H496 0.950 . S
C501 C503 1.327 . S
C501 C507 1.429 . S
C502 C494 1.574 . S
C502 H497 0.949 . S
C502 C508 1.368 . S
C503 C487 1.349 . S
C503 H495 0.950 . S
C503 C501 1.327 . S
C504 C492 1.349 . S
C504 H498 0.950 . S
C504 C505 1.327 . S
C505 H499 0.950 . S
C505 C504 1.327 . S
C505 C509 1.429 . S
C506 C489 1.574 . S
C506 H500 0.949 . S
C506 C510 1.368 . S
C507 C488 1.429 . S
C507 C501 1.429 . S
C507 C508 1.523 . S
C508 C489 1.368 . S
C508 C502 1.368 . S
C508 C507 1.523 . S
C509 C493 1.429 . S
C509 C505 1.429 . S
C509 C510 1.523 . S
C510 C494 1.368 . S
C510 C506 1.368 . S
C510 C509 1.523 . S
H511 C486 0.950 . S
H512 C488 0.950 . S
H513 C489 0.949 . S
H514 C491 0.950 . S
H515 C493 0.950 . S
C516 C517 1.349 . S
C516 C518 1.327 . S
C516 H541 0.950 . S
C517 C516 1.349 . S
C517 C533 1.349 . S
C518 C516 1.327 . S
C518 C537 1.429 . S
C518 H542 0.950 . S
C519 C536 1.574 . S
C519 C538 1.368 . S
C519 H543 0.949 . S
H520 C524 0.949 . S
C521 C522 1.349 . S
C521 C523 1.327 . S
C521 H544 0.950 . S
C522 C521 1.349 . S
C522 C534 1.349 . S
C523 C521 1.327 . S
C523 C539 1.429 . S
C523 H545 0.950 . S
C524 H520 0.949 . S
C524 C532 1.574 . S
C524 C540 1.368 . S
H525 C533 0.950 . S
H526 C531 0.950 . S
H527 C532 0.949 . S
H528 C534 0.950 . S
H529 C535 0.950 . S
H530 C536 0.949 . S
C531 H526 0.950 . S
C531 C533 1.327 . S
C531 C537 1.429 . S
C532 C524 1.574 . S
C532 H527 0.949 . S
C532 C538 1.368 . S
C533 C517 1.349 . S
C533 H525 0.950 . S
C533 C531 1.327 . S
C534 C522 1.349 . S
C534 H528 0.950 . S
C534 C535 1.327 . S
C535 H529 0.950 . S
C535 C534 1.327 . S
C535 C539 1.429 . S
C536 C519 1.574 . S
C536 H530 0.949 . S
C536 C540 1.368 . S
C537 C518 1.429 . S
C537 C531 1.429 . S
C537 C538 1.523 . S
C538 C519 1.368 . S
C538 C532 1.368 . S
C538 C537 1.523 . S
C539 C523 1.429 . S
C539 C535 1.429 . S
C539 C540 1.523 . S
C540 C524 1.368 . S
C540 C536 1.368 . S
C540 C539 1.523 . S
H541 C516 0.950 . S
H542 C518 0.950 . S
H543 C519 0.949 . S
H544 C521 0.950 . S
H545 C523 0.950 . S
C546 C547 1.349 . S
C546 C548 1.327 . S
C546 H571 0.950 . S
C547 C546 1.349 . S
C547 C563 1.349 . S
C548 C546 1.327 . S
C548 C567 1.429 . S
C548 H572 0.950 . S
C549 C566 1.574 . S
C549 C568 1.368 . S
C549 H573 0.949 . S
H550 C554 0.949 . S
C551 C552 1.349 . S
C551 C553 1.327 . S
C551 H574 0.950 . S
C552 C551 1.349 . S
C552 C564 1.349 . S
C553 C551 1.327 . S
C553 C569 1.429 . S
C553 H575 0.950 . S
C554 H550 0.949 . S
C554 C562 1.574 . S
C554 C570 1.368 . S
H555 C563 0.950 . S
H556 C561 0.950 . S
H557 C562 0.949 . S
H558 C564 0.950 . S
H559 C565 0.950 . S
H560 C566 0.949 . S
C561 H556 0.950 . S
C561 C563 1.327 . S
C561 C567 1.429 . S
C562 C554 1.574 . S
C562 H557 0.949 . S
C562 C568 1.368 . S
C563 C547 1.349 . S
C563 H555 0.950 . S
C563 C561 1.327 . S
C564 C552 1.349 . S
C564 H558 0.950 . S
C564 C565 1.327 . S
C565 H559 0.950 . S
C565 C564 1.327 . S
C565 C569 1.429 . S
C566 C549 1.574 . S
C566 H560 0.949 . S
C566 C570 1.368 . S
C567 C548 1.429 . S
C567 C561 1.429 . S
C567 C568 1.523 . S
C568 C549 1.368 . S
C568 C562 1.368 . S
C568 C567 1.523 . S
C569 C553 1.429 . S
C569 C565 1.429 . S
C569 C570 1.523 . S
C570 C554 1.368 . S
C570 C566 1.368 . S
C570 C569 1.523 . S
H571 C546 0.950 . S
H572 C548 0.950 . S
H573 C549 0.949 . S
H574 C551 0.950 . S
H575 C553 0.950 . S
C576 C577 1.349 . S
C576 C578 1.327 . S
C576 H601 0.950 . S
C577 C576 1.349 . S
C577 C593 1.349 . S
C578 C576 1.327 . S
C578 C597 1.429 . S
C578 H602 0.950 . S
C579 C596 1.574 . S
C579 C598 1.368 . S
C579 H603 0.949 . S
H580 C584 0.949 . S
C581 C582 1.349 . S
C581 C583 1.327 . S
C581 H604 0.950 . S
C582 C581 1.349 . S
C582 C594 1.349 . S
C583 C581 1.327 . S
C583 C599 1.429 . S
C583 H605 0.950 . S
C584 H580 0.949 . S
C584 C592 1.574 . S
C584 C600 1.368 . S
H585 C593 0.950 . S
H586 C591 0.950 . S
H587 C592 0.949 . S
H588 C594 0.950 . S
H589 C595 0.950 . S
H590 C596 0.949 . S
C591 H586 0.950 . S
C591 C593 1.327 . S
C591 C597 1.429 . S
C592 C584 1.574 . S
C592 H587 0.949 . S
C592 C598 1.368 . S
C593 C577 1.349 . S
C593 H585 0.950 . S
C593 C591 1.327 . S
C594 C582 1.349 . S
C594 H588 0.950 . S
C594 C595 1.327 . S
C595 H589 0.950 . S
C595 C594 1.327 . S
C595 C599 1.429 . S
C596 C579 1.574 . S
C596 H590 0.949 . S
C596 C600 1.368 . S
C597 C578 1.429 . S
C597 C591 1.429 . S
C597 C598 1.523 . S
C598 C579 1.368 . S
C598 C592 1.368 . S
C598 C597 1.523 . S
C599 C583 1.429 . S
C599 C595 1.429 . S
C599 C600 1.523 . S
C600 C584 1.368 . S
C600 C596 1.368 . S
C600 C599 1.523 . S
H601 C576 0.950 . S
H602 C578 0.950 . S
H603 C579 0.949 . S
H604 C581 0.950 . S
H605 C583 0.950 . S
C606 C607 1.349 . S
C606 C608 1.327 . S
C606 H631 0.950 . S
C607 C606 1.349 . S
C607 C623 1.349 . S
C608 C606 1.327 . S
C608 C627 1.429 . S
C608 H632 0.950 . S
C609 C626 1.574 . S
C609 C628 1.368 . S
C609 H633 0.949 . S
H610 C614 0.949 . S
C611 C612 1.349 . S
C611 C613 1.327 . S
C611 H634 0.950 . S
C612 C611 1.349 . S
C612 C624 1.349 . S
C613 C611 1.327 . S
C613 C629 1.429 . S
C613 H635 0.950 . S
C614 H610 0.949 . S
C614 C622 1.574 . S
C614 C630 1.368 . S
H615 C623 0.950 . S
H616 C621 0.950 . S
H617 C622 0.949 . S
H618 C624 0.950 . S
H619 C625 0.950 . S
H620 C626 0.949 . S
C621 H616 0.950 . S
C621 C623 1.327 . S
C621 C627 1.429 . S
C622 C614 1.574 . S
C622 H617 0.949 . S
C622 C628 1.368 . S
C623 C607 1.349 . S
C623 H615 0.950 . S
C623 C621 1.327 . S
C624 C612 1.349 . S
C624 H618 0.950 . S
C624 C625 1.327 . S
C625 H619 0.950 . S
C625 C624 1.327 . S
C625 C629 1.429 . S
C626 C609 1.574 . S
C626 H620 0.949 . S
C626 C630 1.368 . S
C627 C608 1.429 . S
C627 C621 1.429 . S
C627 C628 1.523 . S
C628 C609 1.368 . S
C628 C622 1.368 . S
C628 C627 1.523 . S
C629 C613 1.429 . S
C629 C625 1.429 . S
C629 C630 1.523 . S
C630 C614 1.368 . S
C630 C626 1.368 . S
C630 C629 1.523 . S
H631 C606 0.950 . S
H632 C608 0.950 . S
H633 C609 0.949 . S
H634 C611 0.950 . S
H635 C613 0.950 . S
C636 C637 1.349 . S
C636 C638 1.327 . S
C636 H661 0.950 . S
C637 C636 1.349 . S
C637 C653 1.349 . S
C638 C636 1.327 . S
C638 C657 1.429 . S
C638 H662 0.950 . S
C639 C656 1.574 . S
C639 C658 1.368 . S
C639 H663 0.949 . S
H640 C644 0.949 . S
C641 C642 1.349 . S
C641 C643 1.327 . S
C641 H664 0.950 . S
C642 C641 1.349 . S
C642 C654 1.349 . S
C643 C641 1.327 . S
C643 C659 1.429 . S
C643 H665 0.950 . S
C644 H640 0.949 . S
C644 C652 1.574 . S
C644 C660 1.368 . S
H645 C653 0.950 . S
H646 C651 0.950 . S
H647 C652 0.949 . S
H648 C654 0.950 . S
H649 C655 0.950 . S
H650 C656 0.949 . S
C651 H646 0.950 . S
C651 C653 1.327 . S
C651 C657 1.429 . S
C652 C644 1.574 . S
C652 H647 0.949 . S
C652 C658 1.368 . S
C653 C637 1.349 . S
C653 H645 0.950 . S
C653 C651 1.327 . S
C654 C642 1.349 . S
C654 H648 0.950 . S
C654 C655 1.327 . S
C655 H649 0.950 . S
C655 C654 1.327 . S
C655 C659 1.429 . S
C656 C639 1.574 . S
C656 H650 0.949 . S
C656 C660 1.368 . S
C657 C638 1.429 . S
C657 C651 1.429 . S
C657 C658 1.523 . S
C658 C639 1.368 . S
C658 C652 1.368 . S
C658 C657 1.523 . S
C659 C643 1.429 . S
C659 C655 1.429 . S
C659 C660 1.523 . S
C660 C644 1.368 . S
C660 C656 1.368 . S
C660 C659 1.523 . S
H661 C636 0.950 . S
H662 C638 0.950 . S
H663 C639 0.949 . S
H664 C641 0.950 . S
H665 C643 0.950 . S
C666 C667 1.349 . S
C666 C668 1.327 . S
C666 H691 0.950 . S
C667 C666 1.349 . S
C667 C683 1.349 . S
C668 C666 1.327 . S
C668 C687 1.429 . S
C668 H692 0.950 . S
C669 C686 1.574 . S
C669 C688 1.368 . S
C669 H693 0.949 . S
H670 C674 0.949 . S
C671 C672 1.349 . S
C671 C673 1.327 . S
C671 H694 0.950 . S
C672 C671 1.349 . S
C672 C684 1.349 . S
C673 C671 1.327 . S
C673 C689 1.429 . S
C673 H695 0.950 . S
C674 H670 0.949 . S
C674 C682 1.574 . S
C674 C690 1.368 . S
H675 C683 0.950 . S
H676 C681 0.950 . S
H677 C682 0.949 . S
H678 C684 0.950 . S
H679 C685 0.950 . S
H680 C686 0.949 . S
C681 H676 0.950 . S
C681 C683 1.327 . S
C681 C687 1.429 . S
C682 C674 1.574 . S
C682 H677 0.949 . S
C682 C688 1.368 . S
C683 C667 1.349 . S
C683 H675 0.950 . S
C683 C681 1.327 . S
C684 C672 1.349 . S
C684 H678 0.950 . S
C684 C685 1.327 . S
C685 H679 0.950 . S
C685 C684 1.327 . S
C685 C689 1.429 . S
C686 C669 1.574 . S
C686 H680 0.949 . S
C686 C690 1.368 . S
C687 C668 1.429 . S
C687 C681 1.429 . S
C687 C688 1.523 . S
C688 C669 1.368 . S
C688 C682 1.368 . S
C688 C687 1.523 . S
C689 C673 1.429 . S
C689 C685 1.429 . S
C689 C690 1.523 . S
C690 C674 1.368 . S
C690 C686 1.368 . S
C690 C689 1.523 . S
H691 C666 0.950 . S
H692 C668 0.950 . S
H693 C669 0.949 . S
H694 C671 0.950 . S
H695 C673 0.950 . S
C696 C697 1.349 . S
C696 C698 1.327 . S
C696 H721 0.950 . S
C697 C696 1.349 . S
C697 C713 1.349 . S
C698 C696 1.327 . S
C698 C717 1.429 . S
C698 H722 0.950 . S
C699 C716 1.574 . S
C699 C718 1.368 . S
C699 H723 0.949 . S
H700 C704 0.949 . S
C701 C702 1.349 . S
C701 C703 1.327 . S
C701 H724 0.950 . S
C702 C701 1.349 . S
C702 C714 1.349 . S
C703 C701 1.327 . S
C703 C719 1.429 . S
C703 H725 0.950 . S
C704 H700 0.949 . S
C704 C712 1.574 . S
C704 C720 1.368 . S
H705 C713 0.950 . S
H706 C711 0.950 . S
H707 C712 0.949 . S
H708 C714 0.950 . S
H709 C715 0.950 . S
H710 C716 0.949 . S
C711 H706 0.950 . S
C711 C713 1.327 . S
C711 C717 1.429 . S
C712 C704 1.574 . S
C712 H707 0.949 . S
C712 C718 1.368 . S
C713 C697 1.349 . S
C713 H705 0.950 . S
C713 C711 1.327 . S
C714 C702 1.349 . S
C714 H708 0.950 . S
C714 C715 1.327 . S
C715 H709 0.950 . S
C715 C714 1.327 . S
C715 C719 1.429 . S
C716 C699 1.574 . S
C716 H710 0.949 . S
C716 C720 1.368 . S
C717 C698 1.429 . S
C717 C711 1.429 . S
C717 C718 1.523 . S
C718 C699 1.368 . S
C718 C712 1.368 . S
C718 C717 1.523 . S
C719 C703 1.429 . S
C719 C715 1.429 . S
C719 C720 1.523 . S
C720 C704 1.368 . S
C720 C716 1.368 . S
C720 C719 1.523 . S
H721 C696 0.950 . S
H722 C698 0.950 . S
H723 C699 0.949 . S
H724 C701 0.950 . S
H725 C703 0.950 . S
C726 C727 1.349 . S
C726 C728 1.327 . S
C726 H751 0.950 . S
C727 C726 1.349 . S
C727 C743 1.349 . S
C728 C726 1.327 . S
C728 C747 1.429 . S
C728 H752 0.950 . S
C729 C746 1.574 . S
C729 C748 1.368 . S
C729 H753 0.949 . S
H730 C734 0.949 . S
C731 C732 1.349 . S
C731 C733 1.327 . S
C731 H754 0.950 . S
C732 C731 1.349 . S
C732 C744 1.349 . S
C733 C731 1.327 . S
C733 C749 1.429 . S
C733 H755 0.950 . S
C734 H730 0.949 . S
C734 C742 1.574 . S
C734 C750 1.368 . S
H735 C743 0.950 . S
H736 C741 0.950 . S
H737 C742 0.949 . S
H738 C744 0.950 . S
H739 C745 0.950 . S
H740 C746 0.949 . S
C741 H736 0.950 . S
C741 C743 1.327 . S
C741 C747 1.429 . S
C742 C734 1.574 . S
C742 H737 0.949 . S
C742 C748 1.368 . S
C743 C727 1.349 . S
C743 H735 0.950 . S
C743 C741 1.327 . S
C744 C732 1.349 . S
C744 H738 0.950 . S
C744 C745 1.327 . S
C745 H739 0.950 . S
C745 C744 1.327 . S
C745 C749 1.429 . S
C746 C729 1.574 . S
C746 H740 0.949 . S
C746 C750 1.368 . S
C747 C728 1.429 . S
C747 C741 1.429 . S
C747 C748 1.523 . S
C748 C729 1.368 . S
C748 C742 1.368 . S
C748 C747 1.523 . S
C749 C733 1.429 . S
C749 C745 1.429 . S
C749 C750 1.523 . S
C750 C734 1.368 . S
C750 C746 1.368 . S
C750 C749 1.523 . S
H751 C726 0.950 . S
H752 C728 0.950 . S
H753 C729 0.949 . S
H754 C731 0.950 . S
H755 C733 0.950 . S
C756 C757 1.349 . S
C756 C758 1.327 . S
C756 H781 0.950 . S
C757 C756 1.349 . S
C757 C773 1.349 . S
C758 C756 1.327 . S
C758 C777 1.429 . S
C758 H782 0.950 . S
C759 C776 1.574 . S
C759 C778 1.368 . S
C759 H783 0.949 . S
H760 C764 0.949 . S
C761 C762 1.349 . S
C761 C763 1.327 . S
C761 H784 0.950 . S
C762 C761 1.349 . S
C762 C774 1.349 . S
C763 C761 1.327 . S
C763 C779 1.429 1_565 S
C763 H785 0.950 . S
C764 H760 0.949 . S
C764 C772 1.574 1_556 S
C764 C780 1.368 . S
H765 C773 0.950 . S
H766 C771 0.950 . S
H767 C772 0.949 . S
H768 C774 0.950 . S
H769 C775 0.950 . S
H770 C776 0.952 . S
C771 H766 0.950 . S
C771 C773 1.327 . S
C771 C777 1.429 . S
C772 C764 1.574 1_554 S
C772 H767 0.949 . S
C772 C778 1.368 . S
C773 C757 1.349 . S
C773 H765 0.950 . S
C773 C771 1.327 . S
C774 C762 1.349 . S
C774 H768 0.950 . S
C774 C775 1.327 1_565 S
C775 H769 0.950 . S
C775 C774 1.327 1_545 S
C775 C779 1.429 . S
C776 C759 1.574 . S
C776 H770 0.952 . S
C776 C780 1.368 1_554 S
C777 C758 1.429 . S
C777 C771 1.429 . S
C777 C778 1.523 . S
C778 C759 1.368 . S
C778 C772 1.368 . S
C778 C777 1.523 . S
C779 C763 1.429 1_545 S
C779 C775 1.429 . S
C779 C780 1.523 . S
C780 C764 1.368 . S
C780 C776 1.368 1_556 S
C780 C779 1.523 . S
H781 C756 0.950 . S
H782 C758 0.950 . S
H783 C759 0.949 . S
H784 C761 0.950 . S
H785 C763 0.950 . S
C786 C787 1.349 . S
C786 C788 1.327 . S
C786 H811 0.950 . S
C787 C786 1.349 . S
C787 C803 1.349 . S
C788 C786 1.327 . S
C788 C807 1.429 . S
C788 H812 0.950 . S
C789 C806 1.585 . S
C789 C808 1.355 1_556 S
C789 H813 0.951 . S
H790 C794 0.949 1_455 S
C791 C792 1.349 . S
C791 C793 1.327 1_455 S
C791 H814 0.950 . S
C792 C791 1.349 . S
C792 C804 1.349 . S
C793 C791 1.327 1_655 S
C793 C809 1.429 . S
C793 H815 0.950 . S
C794 H790 0.949 1_655 S
C794 C802 1.574 . S
C794 C810 1.368 1_554 S
H795 C803 0.950 . S
H796 C801 0.950 . S
H797 C802 0.949 . S
H798 C804 0.950 . S
H799 C805 0.950 . S
H800 C806 0.949 . S
C801 H796 0.950 . S
C801 C803 1.327 . S
C801 C807 1.429 . S
C802 C794 1.574 . S
C802 H797 0.949 . S
C802 C808 1.368 . S
C803 C787 1.349 . S
C803 H795 0.950 . S
C803 C801 1.327 . S
C804 C792 1.349 . S
C804 H798 0.950 . S
C804 C805 1.327 . S
C805 H799 0.950 . S
C805 C804 1.327 . S
C805 C809 1.429 1_455 S
C806 C789 1.585 . S
C806 H800 0.949 . S
C806 C810 1.368 . S
C807 C788 1.429 . S
C807 C801 1.429 . S
C807 C808 1.523 . S
C808 C789 1.355 1_554 S
C808 C802 1.368 . S
C808 C807 1.523 . S
C809 C793 1.429 . S
C809 C805 1.429 1_655 S
C809 C810 1.523 . S
C810 C794 1.368 1_556 S
C810 C806 1.368 . S
C810 C809 1.523 . S
H811 C786 0.950 . S
H812 C788 0.950 . S
H813 C789 0.951 . S
H814 C791 0.950 . S
H815 C793 0.950 . S
C816 C817 1.349 . S
C816 C818 1.327 . S
C816 H841 0.950 . S
C817 C816 1.349 . S
C817 C833 1.349 . S
C818 C816 1.327 . S
C818 C837 1.429 . S
C818 H842 0.950 . S
C819 C836 1.574 1_554 S
C819 C838 1.368 . S
C819 H843 0.949 . S
H820 C824 0.962 . S
C821 C822 1.349 . S
C821 C823 1.327 . S
C821 H844 0.950 . S
C822 C821 1.349 . S
C822 C834 1.349 . S
C823 C821 1.327 . S
C823 C839 1.429 . S
C823 H845 0.950 . S
C824 H820 0.962 . S
C824 C832 1.535 1_556 S
C824 C840 1.395 . S
H825 C833 0.950 . S
H826 C831 0.950 . S
H827 C832 0.949 . S
H828 C834 0.950 . S
H829 C835 0.950 . S
H830 C836 0.949 . S
C831 H826 0.950 . S
C831 C833 1.327 . S
C831 C837 1.429 . S
C832 C824 1.535 1_554 S
C832 H827 0.949 . S
C832 C838 1.368 . S
C833 C817 1.349 . S
C833 H825 0.950 . S
C833 C831 1.327 . S
C834 C822 1.349 . S
C834 H828 0.950 . S
C834 C835 1.327 . S
C835 H829 0.950 . S
C835 C834 1.327 . S
C835 C839 1.429 . S
C836 C819 1.574 1_556 S
C836 H830 0.949 . S
C836 C840 1.368 . S
C837 C818 1.429 . S
C837 C831 1.429 . S
C837 C838 1.523 . S
C838 C819 1.368 . S
C838 C832 1.368 . S
C838 C837 1.523 . S
C839 C823 1.429 . S
C839 C835 1.429 . S
C839 C840 1.523 . S
C840 C824 1.395 . S
C840 C836 1.368 . S
C840 C839 1.523 . S
H841 C816 0.950 . S
H842 C818 0.950 . S
H843 C819 0.949 . S
H844 C821 0.950 . S
H845 C823 0.950 . S
C846 C847 1.349 . S
C846 C848 1.327 . S
C846 H871 0.950 . S
C847 C846 1.349 . S
C847 C863 1.349 . S
C848 C846 1.327 . S
C848 C867 1.429 1_655 S
C848 H872 0.950 . S
C849 C866 1.574 . S
C849 C868 1.368 . S
C849 H873 0.949 . S
H850 C854 0.949 . S
C851 C852 1.349 . S
C851 C853 1.327 . S
C851 H874 0.950 . S
C852 C851 1.349 . S
C852 C864 1.349 . S
C853 C851 1.327 . S
C853 C869 1.429 . S
C853 H875 0.950 . S
C854 H850 0.949 . S
C854 C862 1.574 . S
C854 C870 1.368 . S
H855 C863 0.950 . S
H856 C861 0.950 . S
H857 C862 0.949 1_655 S
H858 C864 0.950 . S
H859 C865 0.950 . S
H860 C866 0.949 . S
C861 H856 0.950 . S
C861 C863 1.327 1_455 S
C861 C867 1.429 . S
C862 C854 1.574 . S
C862 H857 0.949 1_455 S
C862 C868 1.368 . S
C863 C847 1.349 . S
C863 H855 0.950 . S
C863 C861 1.327 1_655 S
C864 C852 1.349 . S
C864 H858 0.950 . S
C864 C865 1.327 . S
C865 H859 0.950 . S
C865 C864 1.327 . S
C865 C869 1.429 . S
C866 C849 1.574 . S
C866 H860 0.949 . S
C866 C870 1.368 . S
C867 C848 1.429 1_455 S
C867 C861 1.429 . S
C867 C868 1.523 . S
C868 C849 1.368 . S
C868 C862 1.368 . S
C868 C867 1.523 . S
C869 C853 1.429 . S
C869 C865 1.429 . S
C869 C870 1.523 . S
C870 C854 1.368 . S
C870 C866 1.368 . S
C870 C869 1.523 . S
H871 C846 0.950 . S
H872 C848 0.950 . S
H873 C849 0.949 . S
H874 C851 0.950 . S
H875 C853 0.950 . S
C876 C877 1.349 . S
C876 C878 1.327 . S
C876 H901 0.950 . S
C877 C876 1.349 . S
C877 C893 1.349 . S
C878 C876 1.327 . S
C878 C897 1.429 . S
C878 H902 0.950 . S
C879 C896 1.574 . S
C879 C898 1.368 . S
C879 H903 0.949 . S
H880 C884 0.949 . S
C881 C882 1.349 . S
C881 C883 1.327 . S
C881 H904 0.950 . S
C882 C881 1.349 . S
C882 C894 1.349 . S
C883 C881 1.327 . S
C883 C899 1.429 . S
C883 H905 0.950 . S
C884 H880 0.949 . S
C884 C892 1.574 . S
C884 C900 1.368 . S
H885 C893 0.950 . S
H886 C891 0.950 . S
H887 C892 0.949 . S
H888 C894 0.950 . S
H889 C895 0.950 . S
H890 C896 0.949 . S
C891 H886 0.950 . S
C891 C893 1.327 . S
C891 C897 1.429 . S
C892 C884 1.574 . S
C892 H887 0.949 . S
C892 C898 1.368 . S
C893 C877 1.349 . S
C893 H885 0.950 . S
C893 C891 1.327 . S
C894 C882 1.349 . S
C894 H888 0.950 . S
C894 C895 1.327 . S
C895 H889 0.950 . S
C895 C894 1.327 . S
C895 C899 1.429 . S
C896 C879 1.574 . S
C896 H890 0.949 . S
C896 C900 1.368 . S
C897 C878 1.429 . S
C897 C891 1.429 . S
C897 C898 1.523 . S
C898 C879 1.368 . S
C898 C892 1.368 . S
C898 C897 1.523 . S
C899 C883 1.429 . S
C899 C895 1.429 . S
C899 C900 1.523 . S
C900 C884 1.368 . S
C900 C896 1.368 . S
C900 C899 1.523 . S
H901 C876 0.950 . S
H902 C878 0.950 . S
H903 C879 0.949 . S
H904 C881 0.950 . S
H905 C883 0.950 . S
C906 C907 1.349 . S
C906 C908 1.327 1_545 S
C906 H931 0.950 . S
C907 C906 1.349 . S
C907 C923 1.349 . S
C908 C906 1.327 1_565 S
C908 C927 1.429 . S
C908 H932 0.950 . S
C909 C926 1.574 . S
C909 C928 1.368 . S
C909 H933 0.949 1_565 S
H910 C914 0.949 . S
C911 C912 1.349 . S
C911 C913 1.327 . S
C911 H934 0.950 . S
C912 C911 1.349 . S
C912 C924 1.349 . S
C913 C911 1.327 . S
C913 C929 1.429 . S
C913 H935 0.950 . S
C914 H910 0.949 . S
C914 C922 1.574 . S
C914 C930 1.368 . S
H915 C923 0.950 . S
H916 C921 0.950 . S
H917 C922 0.949 . S
H918 C924 0.950 . S
H919 C925 0.950 . S
H920 C926 0.949 . S
C921 H916 0.950 . S
C921 C923 1.327 . S
C921 C927 1.429 1_545 S
C922 C914 1.574 . S
C922 H917 0.949 . S
C922 C928 1.368 . S
C923 C907 1.349 . S
C923 H915 0.950 . S
C923 C921 1.327 . S
C924 C912 1.349 . S
C924 H918 0.950 . S
C924 C925 1.327 . S
C925 H919 0.950 . S
C925 C924 1.327 . S
C925 C929 1.429 . S
C926 C909 1.574 . S
C926 H920 0.949 . S
C926 C930 1.368 . S
C927 C908 1.429 . S
C927 C921 1.429 1_565 S
C927 C928 1.523 . S
C928 C909 1.368 . S
C928 C922 1.368 . S
C928 C927 1.523 . S
C929 C913 1.429 . S
C929 C925 1.429 . S
C929 C930 1.523 . S
C930 C914 1.368 . S
C930 C926 1.368 . S
C930 C929 1.523 . S
H931 C906 0.950 . S
H932 C908 0.950 . S
H933 C909 0.949 1_545 S
H934 C911 0.950 . S
H935 C913 0.950 . S
C936 C937 1.349 . S
C936 C938 1.327 . S
C936 H961 0.950 . S
C937 C936 1.349 . S
C937 C953 1.349 . S
C938 C936 1.327 . S
C938 C957 1.429 1_545 S
C938 H962 0.950 . S
C939 C956 1.598 . S
C939 C958 1.368 . S
C939 H963 0.949 . S
H940 C944 0.949 . S
C941 C942 1.349 . S
C941 C943 1.327 . S
C941 H964 0.950 . S
C942 C941 1.349 . S
C942 C954 1.349 . S
C943 C941 1.327 . S
C943 C959 1.429 . S
C943 H965 0.950 . S
C944 H940 0.949 . S
C944 C952 1.574 . S
C944 C960 1.368 . S
H945 C953 0.950 . S
H946 C951 0.950 . S
H947 C952 0.949 1_545 S
H948 C954 0.950 . S
H949 C955 0.950 . S
H950 C956 0.955 . S
C951 H946 0.950 . S
C951 C953 1.327 1_565 S
C951 C957 1.429 . S
C952 C944 1.574 . S
C952 H947 0.949 1_565 S
C952 C958 1.368 1_556 S
C953 C937 1.349 . S
C953 H945 0.950 . S
C953 C951 1.327 1_545 S
C954 C942 1.349 . S
C954 H948 0.950 . S
C954 C955 1.327 . S
C955 H949 0.950 . S
C955 C954 1.327 . S
C955 C959 1.429 . S
C956 C939 1.598 . S
C956 H950 0.955 . S
C956 C960 1.339 1_554 S
C957 C938 1.429 1_565 S
C957 C951 1.429 . S
C957 C958 1.523 . S
C958 C939 1.368 . S
C958 C952 1.368 1_554 S
C958 C957 1.523 . S
C959 C943 1.429 . S
C959 C955 1.429 . S
C959 C960 1.523 . S
C960 C944 1.368 . S
C960 C956 1.339 1_556 S
C960 C959 1.523 . S
H961 C936 0.950 . S
H962 C938 0.950 . S
H963 C939 0.949 . S
H964 C941 0.950 . S
H965 C943 0.950 . S
C966 C967 1.349 . S
C966 C968 1.327 1_655 S
C966 H991 0.950 . S
C967 C966 1.349 . S
C967 C983 1.349 . S
C968 C966 1.327 1_455 S
C968 C987 1.429 . S
C968 H992 0.950 . S
C969 C986 1.574 . S
C969 C988 1.368 1_556 S
C969 H993 0.949 1_455 S
H970 C974 0.951 . S
C971 C972 1.349 . S
C971 C973 1.327 . S
C971 H994 0.950 . S
C972 C971 1.349 . S
C972 C984 1.349 . S
C973 C971 1.327 . S
C973 C989 1.429 . S
C973 H995 0.950 . S
C974 H970 0.951 . S
C974 C982 1.582 . S
C974 C990 1.358 1_554 S
H975 C983 0.950 . S
H976 C981 0.950 . S
H977 C982 0.949 . S
H978 C984 0.950 . S
H979 C985 0.950 . S
H980 C986 0.949 . S
C981 H976 0.950 . S
C981 C983 1.327 . S
C981 C987 1.429 1_655 S
C982 C974 1.582 . S
C982 H977 0.949 . S
C982 C988 1.368 . S
C983 C967 1.349 . S
C983 H975 0.950 . S
C983 C981 1.327 . S
C984 C972 1.349 . S
C984 H978 0.950 . S
C984 C985 1.327 . S
C985 H979 0.950 . S
C985 C984 1.327 . S
C985 C989 1.429 . S
C986 C969 1.574 . S
C986 H980 0.949 . S
C986 C990 1.368 . S
C987 C968 1.429 . S
C987 C981 1.429 1_455 S
C987 C988 1.523 . S
C988 C969 1.368 1_554 S
C988 C982 1.368 . S
C988 C987 1.523 . S
C989 C973 1.429 . S
C989 C985 1.429 . S
C989 C990 1.523 . S
C990 C974 1.358 1_556 S
C990 C986 1.368 . S
C990 C989 1.523 . S
H991 C966 0.950 . S
H992 C968 0.950 . S
H993 C969 0.949 1_655 S
H994 C971 0.950 . S
H995 C973 0.950 . S
C996 C997 1.349 . S
C996 C998 1.327 . S
C996 H1021 0.950 . S
C997 C996 1.349 . S
C997 C1013 1.349 . S
C998 C996 1.327 . S
C998 C1017 1.429 . S
C998 H1022 0.950 . S
C999 C1016 1.574 . S
C999 C1018 1.368 . S
C999 H1023 0.949 . S
H1000 C1004 0.949 . S
C1001 C1002 1.349 . S
C1001 C1003 1.327 . S
C1001 H1024 0.950 . S
C1002 C1001 1.349 . S
C1002 C1014 1.349 . S
C1003 C1001 1.327 . S
C1003 C1019 1.429 . S
C1003 H1025 0.950 . S
C1004 H1000 0.949 . S
C1004 C1012 1.564 1_554 S
C1004 C1020 1.368 . S
H1005 C1013 0.950 . S
H1006 C1011 0.950 . S
H1007 C1012 0.947 1_554 S
H1008 C1014 0.950 . S
H1009 C1015 0.950 . S
H1010 C1016 0.949 . S
C1011 H1006 0.950 . S
C1011 C1013 1.327 . S
C1011 C1017 1.429 . S
C1012 C1004 1.564 1_556 S
C1012 H1007 0.947 1_556 S
C1012 C1018 1.380 . S
C1013 C997 1.349 . S
C1013 H1005 0.950 . S
C1013 C1011 1.327 . S
C1014 C1002 1.349 . S
C1014 H1008 0.950 . S
C1014 C1015 1.327 . S
C1015 H1009 0.950 . S
C1015 C1014 1.327 . S
C1015 C1019 1.429 . S
C1016 C999 1.574 . S
C1016 H1010 0.949 . S
C1016 C1020 1.368 1_556 S
C1017 C998 1.429 . S
C1017 C1011 1.429 . S
C1017 C1018 1.523 . S
C1018 C999 1.368 . S
C1018 C1012 1.380 . S
C1018 C1017 1.523 . S
C1019 C1003 1.429 . S
C1019 C1015 1.429 . S
C1019 C1020 1.523 . S
C1020 C1004 1.368 . S
C1020 C1016 1.368 1_554 S
C1020 C1019 1.523 . S
H1021 C996 0.950 . S
H1022 C998 0.950 . S
H1023 C999 0.949 . S
H1024 C1001 0.950 . S
H1025 C1003 0.950 . S
C1026 C1027 1.349 . S
C1026 C1028 1.327 . S
C1026 H1051 0.950 . S
C1027 C1026 1.349 . S
C1027 C1043 1.349 . S
C1028 C1026 1.327 . S
C1028 C1047 1.429 1_455 S
C1028 H1052 0.950 . S
C1029 C1046 1.574 . S
C1029 C1048 1.368 . S
C1029 H1053 0.949 . S
H1030 C1034 0.949 . S
C1031 C1032 1.349 . S
C1031 C1033 1.327 . S
C1031 H1054 0.950 . S
C1032 C1031 1.349 . S
C1032 C1044 1.349 . S
C1033 C1031 1.327 . S
C1033 C1049 1.429 . S
C1033 H1055 0.950 . S
C1034 H1030 0.949 . S
C1034 C1042 1.574 . S
C1034 C1050 1.368 . S
H1035 C1043 0.950 . S
H1036 C1041 0.950 . S
H1037 C1042 0.949 . S
H1038 C1044 0.950 . S
H1039 C1045 0.950 . S
H1040 C1046 0.949 . S
C1041 H1036 0.950 . S
C1041 C1043 1.327 1_655 S
C1041 C1047 1.429 . S
C1042 C1034 1.574 . S
C1042 H1037 0.949 . S
C1042 C1048 1.368 . S
C1043 C1027 1.349 . S
C1043 H1035 0.950 . S
C1043 C1041 1.327 1_455 S
C1044 C1032 1.349 . S
C1044 H1038 0.950 . S
C1044 C1045 1.327 . S
C1045 H1039 0.950 . S
C1045 C1044 1.327 . S
C1045 C1049 1.429 . S
C1046 C1029 1.574 . S
C1046 H1040 0.949 . S
C1046 C1050 1.368 . S
C1047 C1028 1.429 1_655 S
C1047 C1041 1.429 . S
C1047 C1048 1.523 . S
C1048 C1029 1.368 . S
C1048 C1042 1.368 . S
C1048 C1047 1.523 . S
C1049 C1033 1.429 . S
C1049 C1045 1.429 . S
C1049 C1050 1.523 . S
C1050 C1034 1.368 . S
C1050 C1046 1.368 . S
C1050 C1049 1.523 . S
H1051 C1026 0.950 . S
H1052 C1028 0.950 . S
H1053 C1029 0.949 . S
H1054 C1031 0.950 . S
H1055 C1033 0.950 . S
C1056 C1057 1.349 . S
C1056 C1058 1.327 . S
C1056 H1081 0.950 . S
C1057 C1056 1.349 . S
C1057 C1073 1.349 . S
C1058 C1056 1.327 . S
C1058 C1077 1.429 . S
C1058 H1082 0.950 . S
C1059 C1076 1.574 . S
C1059 C1078 1.368 . S
C1059 H1083 0.949 . S
H1060 C1064 0.949 . S
C1061 C1062 1.349 . S
C1061 C1063 1.327 . S
C1061 H1084 0.950 . S
C1062 C1061 1.349 . S
C1062 C1074 1.349 . S
C1063 C1061 1.327 . S
C1063 C1079 1.429 . S
C1063 H1085 0.950 . S
C1064 H1060 0.949 . S
C1064 C1072 1.574 . S
C1064 C1080 1.368 . S
H1065 C1073 0.950 . S
H1066 C1071 0.950 . S
H1067 C1072 0.949 . S
H1068 C1074 0.950 . S
H1069 C1075 0.950 . S
H1070 C1076 0.949 . S
C1071 H1066 0.950 . S
C1071 C1073 1.327 . S
C1071 C1077 1.429 . S
C1072 C1064 1.574 . S
C1072 H1067 0.949 . S
C1072 C1078 1.368 . S
C1073 C1057 1.349 . S
C1073 H1065 0.950 . S
C1073 C1071 1.327 . S
C1074 C1062 1.349 . S
C1074 H1068 0.950 . S
C1074 C1075 1.327 . S
C1075 H1069 0.950 . S
C1075 C1074 1.327 . S
C1075 C1079 1.429 . S
C1076 C1059 1.574 . S
C1076 H1070 0.949 . S
C1076 C1080 1.368 . S
C1077 C1058 1.429 . S
C1077 C1071 1.429 . S
C1077 C1078 1.523 . S
C1078 C1059 1.368 . S
C1078 C1072 1.368 . S
C1078 C1077 1.523 . S
C1079 C1063 1.429 . S
C1079 C1075 1.429 . S
C1079 C1080 1.523 . S
C1080 C1064 1.368 . S
C1080 C1076 1.368 . S
C1080 C1079 1.523 . S
H1081 C1056 0.950 . S
H1082 C1058 0.950 . S
H1083 C1059 0.949 . S
H1084 C1061 0.950 . S
H1085 C1063 0.950 . S
C1086 C1087 1.349 . S
C1086 C1088 1.327 . S
C1086 H1111 0.950 . S
C1087 C1086 1.349 . S
C1087 C1103 1.349 . S
C1088 C1086 1.327 . S
C1088 C1107 1.429 . S
C1088 H1112 0.950 . S
C1089 C1106 1.574 . S
C1089 C1108 1.368 . S
C1089 H1113 0.949 . S
H1090 C1094 0.949 . S
C1091 C1092 1.349 . S
C1091 C1093 1.327 . S
C1091 H1114 0.950 . S
C1092 C1091 1.349 . S
C1092 C1104 1.349 . S
C1093 C1091 1.327 . S
C1093 C1109 1.429 1_565 S
C1093 H1115 0.950 . S
C1094 H1090 0.949 . S
C1094 C1102 1.574 . S
C1094 C1110 1.368 . S
H1095 C1103 0.950 . S
H1096 C1101 0.950 . S
H1097 C1102 0.949 . S
H1098 C1104 0.950 . S
H1099 C1105 0.950 . S
H1100 C1106 0.949 1_565 S
C1101 H1096 0.950 . S
C1101 C1103 1.327 . S
C1101 C1107 1.429 . S
C1102 C1094 1.574 . S
C1102 H1097 0.949 . S
C1102 C1108 1.368 . S
C1103 C1087 1.349 . S
C1103 H1095 0.950 . S
C1103 C1101 1.327 . S
C1104 C1092 1.349 . S
C1104 H1098 0.950 . S
C1104 C1105 1.327 1_565 S
C1105 H1099 0.950 . S
C1105 C1104 1.327 1_545 S
C1105 C1109 1.429 . S
C1106 C1089 1.574 . S
C1106 H1100 0.949 1_545 S
C1106 C1110 1.368 . S
C1107 C1088 1.429 . S
C1107 C1101 1.429 . S
C1107 C1108 1.523 . S
C1108 C1089 1.368 . S
C1108 C1102 1.368 . S
C1108 C1107 1.523 . S
C1109 C1093 1.429 1_545 S
C1109 C1105 1.429 . S
C1109 C1110 1.523 . S
C1110 C1094 1.368 . S
C1110 C1106 1.368 . S
C1110 C1109 1.523 . S
H1111 C1086 0.950 . S
H1112 C1088 0.950 . S
H1113 C1089 0.949 . S
H1114 C1091 0.950 . S
H1115 C1093 0.950 . S
C1116 C1117 1.349 . S
C1116 C1118 1.327 . S
C1116 H1141 0.950 . S
C1117 C1116 1.349 . S
C1117 C1133 1.349 . S
C1118 C1116 1.327 . S
C1118 C1137 1.429 . S
C1118 H1142 0.950 . S
C1119 C1136 1.574 . S
C1119 C1138 1.368 . S
C1119 H1143 0.949 . S
H1120 C1124 0.949 . S
C1121 C1122 1.349 . S
C1121 C1123 1.327 . S
C1121 H1144 0.950 . S
C1122 C1121 1.349 . S
C1122 C1134 1.349 . S
C1123 C1121 1.327 . S
C1123 C1139 1.429 . S
C1123 H1145 0.950 . S
C1124 H1120 0.949 . S
C1124 C1132 1.574 . S
C1124 C1140 1.368 . S
H1125 C1133 0.950 . S
H1126 C1131 0.950 . S
H1127 C1132 0.949 . S
H1128 C1134 0.950 . S
H1129 C1135 0.950 . S
H1130 C1136 0.949 . S
C1131 H1126 0.950 . S
C1131 C1133 1.327 . S
C1131 C1137 1.429 . S
C1132 C1124 1.574 . S
C1132 H1127 0.949 . S
C1132 C1138 1.368 . S
C1133 C1117 1.349 . S
C1133 H1125 0.950 . S
C1133 C1131 1.327 . S
C1134 C1122 1.349 . S
C1134 H1128 0.950 . S
C1134 C1135 1.327 . S
C1135 H1129 0.950 . S
C1135 C1134 1.327 . S
C1135 C1139 1.429 . S
C1136 C1119 1.574 . S
C1136 H1130 0.949 . S
C1136 C1140 1.368 . S
C1137 C1118 1.429 . S
C1137 C1131 1.429 . S
C1137 C1138 1.523 . S
C1138 C1119 1.368 . S
C1138 C1132 1.368 . S
C1138 C1137 1.523 . S
C1139 C1123 1.429 . S
C1139 C1135 1.429 . S
C1139 C1140 1.523 . S
C1140 C1124 1.368 . S
C1140 C1136 1.368 . S
C1140 C1139 1.523 . S
H1141 C1116 0.950 . S
H1142 C1118 0.950 . S
H1143 C1119 0.949 . S
H1144 C1121 0.950 . S
H1145 C1123 0.950 . S
C1146 C1147 1.349 . S
C1146 C1148 1.327 . S
C1146 H1171 0.950 . S
C1147 C1146 1.349 . S
C1147 C1163 1.349 . S
C1148 C1146 1.327 . S
C1148 C1167 1.429 . S
C1148 H1172 0.950 . S
C1149 C1166 1.574 . S
C1149 C1168 1.368 1_565 S
C1149 H1173 0.949 . S
H1150 C1154 0.949 . S
C1151 C1152 1.349 . S
C1151 C1153 1.327 . S
C1151 H1174 0.950 . S
C1152 C1151 1.349 . S
C1152 C1164 1.349 . S
C1153 C1151 1.327 . S
C1153 C1169 1.429 . S
C1153 H1175 0.950 . S
C1154 H1150 0.949 . S
C1154 C1162 1.574 . S
C1154 C1170 1.368 1_545 S
H1155 C1163 0.950 . S
H1156 C1161 0.950 . S
H1157 C1162 0.949 . S
H1158 C1164 0.950 . S
H1159 C1165 0.950 . S
H1160 C1166 0.949 . S
C1161 H1156 0.950 . S
C1161 C1163 1.327 . S
C1161 C1167 1.429 . S
C1162 C1154 1.574 . S
C1162 H1157 0.949 . S
C1162 C1168 1.368 . S
C1163 C1147 1.349 . S
C1163 H1155 0.950 . S
C1163 C1161 1.327 . S
C1164 C1152 1.349 . S
C1164 H1158 0.950 . S
C1164 C1165 1.327 . S
C1165 H1159 0.950 . S
C1165 C1164 1.327 . S
C1165 C1169 1.429 . S
C1166 C1149 1.574 . S
C1166 H1160 0.949 . S
C1166 C1170 1.368 . S
C1167 C1148 1.429 . S
C1167 C1161 1.429 . S
C1167 C1168 1.523 . S
C1168 C1149 1.368 1_545 S
C1168 C1162 1.368 . S
C1168 C1167 1.523 . S
C1169 C1153 1.429 . S
C1169 C1165 1.429 . S
C1169 C1170 1.523 . S
C1170 C1154 1.368 1_565 S
C1170 C1166 1.368 . S
C1170 C1169 1.523 . S
H1171 C1146 0.950 . S
H1172 C1148 0.950 . S
H1173 C1149 0.949 . S
H1174 C1151 0.950 . S
H1175 C1153 0.950 . S
C1176 C1177 1.349 . S
C1176 C1178 1.327 . S
C1176 H1201 0.950 . S
C1177 C1176 1.349 . S
C1177 C1193 1.349 . S
C1178 C1176 1.327 . S
C1178 C1197 1.429 . S
C1178 H1202 0.950 . S
C1179 C1196 1.574 1_655 S
C1179 C1198 1.368 . S
C1179 H1203 0.949 . S
H1180 C1184 0.949 . S
C1181 C1182 1.349 . S
C1181 C1183 1.327 . S
C1181 H1204 0.950 . S
C1182 C1181 1.349 . S
C1182 C1194 1.349 . S
C1183 C1181 1.327 . S
C1183 C1199 1.429 . S
C1183 H1205 0.950 . S
C1184 H1180 0.949 . S
C1184 C1192 1.574 1_455 S
C1184 C1200 1.368 . S
H1185 C1193 0.950 . S
H1186 C1191 0.950 . S
H1187 C1192 0.949 . S
H1188 C1194 0.950 . S
H1189 C1195 0.950 . S
H1190 C1196 0.949 . S
C1191 H1186 0.950 . S
C1191 C1193 1.327 . S
C1191 C1197 1.429 . S
C1192 C1184 1.574 1_655 S
C1192 H1187 0.949 . S
C1192 C1198 1.368 . S
C1193 C1177 1.349 . S
C1193 H1185 0.950 . S
C1193 C1191 1.327 . S
C1194 C1182 1.349 . S
C1194 H1188 0.950 . S
C1194 C1195 1.327 . S
C1195 H1189 0.950 . S
C1195 C1194 1.327 . S
C1195 C1199 1.429 . S
C1196 C1179 1.574 1_455 S
C1196 H1190 0.949 . S
C1196 C1200 1.368 . S
C1197 C1178 1.429 . S
C1197 C1191 1.429 . S
C1197 C1198 1.523 . S
C1198 C1179 1.368 . S
C1198 C1192 1.368 . S
C1198 C1197 1.523 . S
C1199 C1183 1.429 . S
C1199 C1195 1.429 . S
C1199 C1200 1.523 . S
C1200 C1184 1.368 . S
C1200 C1196 1.368 . S
C1200 C1199 1.523 . S
H1201 C1176 0.950 . S
H1202 C1178 0.950 . S
H1203 C1179 0.949 . S
H1204 C1181 0.950 . S
H1205 C1183 0.950 . S
C1206 C1207 1.349 . S
C1206 C1208 1.327 . S
C1206 H1231 0.950 . S
C1207 C1206 1.349 . S
C1207 C1223 1.349 . S
C1208 C1206 1.327 . S
C1208 C1227 1.429 . S
C1208 H1232 0.950 . S
C1209 C1226 1.574 . S
C1209 C1228 1.368 . S
C1209 H1233 0.949 . S
H1210 C1214 0.949 . S
C1211 C1212 1.349 . S
C1211 C1213 1.327 . S
C1211 H1234 0.950 . S
C1212 C1211 1.349 . S
C1212 C1224 1.349 . S
C1213 C1211 1.327 . S
C1213 C1229 1.429 . S
C1213 H1235 0.950 . S
C1214 H1210 0.949 . S
C1214 C1222 1.574 . S
C1214 C1230 1.368 . S
H1215 C1223 0.950 . S
H1216 C1221 0.950 . S
H1217 C1222 0.949 . S
H1218 C1224 0.950 . S
H1219 C1225 0.950 . S
H1220 C1226 0.949 . S
C1221 H1216 0.950 . S
C1221 C1223 1.327 . S
C1221 C1227 1.429 . S
C1222 C1214 1.574 . S
C1222 H1217 0.949 . S
C1222 C1228 1.368 . S
C1223 C1207 1.349 . S
C1223 H1215 0.950 . S
C1223 C1221 1.327 . S
C1224 C1212 1.349 . S
C1224 H1218 0.950 . S
C1224 C1225 1.327 . S
C1225 H1219 0.950 . S
C1225 C1224 1.327 . S
C1225 C1229 1.429 . S
C1226 C1209 1.574 . S
C1226 H1220 0.949 . S
C1226 C1230 1.368 . S
C1227 C1208 1.429 . S
C1227 C1221 1.429 . S
C1227 C1228 1.523 . S
C1228 C1209 1.368 . S
C1228 C1222 1.368 . S
C1228 C1227 1.523 . S
C1229 C1213 1.429 . S
C1229 C1225 1.429 . S
C1229 C1230 1.523 . S
C1230 C1214 1.368 . S
C1230 C1226 1.368 . S
C1230 C1229 1.523 . S
H1231 C1206 0.950 . S
H1232 C1208 0.950 . S
H1233 C1209 0.949 . S
H1234 C1211 0.950 . S
H1235 C1213 0.950 . S
C1236 C1237 1.349 . S
C1236 C1238 1.327 . S
C1236 H1261 0.950 . S
C1237 C1236 1.349 . S
C1237 C1253 1.349 . S
C1238 C1236 1.327 . S
C1238 C1257 1.429 . S
C1238 H1262 0.950 . S
C1239 C1256 1.574 . S
C1239 C1258 1.368 1_545 S
C1239 H1263 0.949 . S
H1240 C1244 0.949 . S
C1241 C1242 1.349 . S
C1241 C1243 1.327 . S
C1241 H1264 0.950 . S
C1242 C1241 1.349 . S
C1242 C1254 1.349 . S
C1243 C1241 1.327 . S
C1243 C1259 1.429 . S
C1243 H1265 0.950 . S
C1244 H1240 0.949 . S
C1244 C1252 1.574 . S
C1244 C1260 1.368 1_565 S
H1245 C1253 0.950 . S
H1246 C1251 0.950 . S
H1247 C1252 0.949 . S
H1248 C1254 0.950 . S
H1249 C1255 0.950 . S
H1250 C1256 0.949 . S
C1251 H1246 0.950 . S
C1251 C1253 1.327 . S
C1251 C1257 1.429 . S
C1252 C1244 1.574 . S
C1252 H1247 0.949 . S
C1252 C1258 1.368 . S
C1253 C1237 1.349 . S
C1253 H1245 0.950 . S
C1253 C1251 1.327 . S
C1254 C1242 1.349 . S
C1254 H1248 0.950 . S
C1254 C1255 1.327 . S
C1255 H1249 0.950 . S
C1255 C1254 1.327 . S
C1255 C1259 1.429 . S
C1256 C1239 1.574 . S
C1256 H1250 0.949 . S
C1256 C1260 1.368 . S
C1257 C1238 1.429 . S
C1257 C1251 1.429 . S
C1257 C1258 1.523 . S
C1258 C1239 1.368 1_565 S
C1258 C1252 1.368 . S
C1258 C1257 1.523 . S
C1259 C1243 1.429 . S
C1259 C1255 1.429 . S
C1259 C1260 1.523 . S
C1260 C1244 1.368 1_545 S
C1260 C1256 1.368 . S
C1260 C1259 1.523 . S
H1261 C1236 0.950 . S
H1262 C1238 0.950 . S
H1263 C1239 0.949 . S
H1264 C1241 0.950 . S
H1265 C1243 0.950 . S
C1266 C1267 1.349 . S
C1266 C1268 1.327 . S
C1266 H1291 0.950 . S
C1267 C1266 1.349 . S
C1267 C1283 1.349 . S
C1268 C1266 1.327 . S
C1268 C1287 1.429 . S
C1268 H1292 0.950 . S
C1269 C1286 1.574 . S
C1269 C1288 1.368 1_655 S
C1269 H1293 0.949 . S
H1270 C1274 0.949 . S
C1271 C1272 1.349 . S
C1271 C1273 1.327 . S
C1271 H1294 0.950 . S
C1272 C1271 1.349 . S
C1272 C1284 1.349 . S
C1273 C1271 1.327 . S
C1273 C1289 1.429 . S
C1273 H1295 0.950 . S
C1274 H1270 0.949 . S
C1274 C1282 1.574 . S
C1274 C1290 1.368 1_455 S
H1275 C1283 0.950 . S
H1276 C1281 0.950 . S
H1277 C1282 0.949 . S
H1278 C1284 0.950 . S
H1279 C1285 0.950 . S
H1280 C1286 0.949 . S
C1281 H1276 0.950 . S
C1281 C1283 1.327 . S
C1281 C1287 1.429 . S
C1282 C1274 1.574 . S
C1282 H1277 0.949 . S
C1282 C1288 1.368 . S
C1283 C1267 1.349 . S
C1283 H1275 0.950 . S
C1283 C1281 1.327 . S
C1284 C1272 1.349 . S
C1284 H1278 0.950 . S
C1284 C1285 1.327 . S
C1285 H1279 0.950 . S
C1285 C1284 1.327 . S
C1285 C1289 1.429 . S
C1286 C1269 1.574 . S
C1286 H1280 0.949 . S
C1286 C1290 1.368 . S
C1287 C1268 1.429 . S
C1287 C1281 1.429 . S
C1287 C1288 1.523 . S
C1288 C1269 1.368 1_455 S
C1288 C1282 1.368 . S
C1288 C1287 1.523 . S
C1289 C1273 1.429 . S
C1289 C1285 1.429 . S
C1289 C1290 1.523 . S
C1290 C1274 1.368 1_655 S
C1290 C1286 1.368 . S
C1290 C1289 1.523 . S
H1291 C1266 0.950 . S
H1292 C1268 0.950 . S
H1293 C1269 0.949 . S
H1294 C1271 0.950 . S
H1295 C1273 0.950 . S
C397 C40 1.439 . S
C402 N2 1.360 . S
C427 N35 1.360 . S
C432 C73 1.438 . S
C457 N68 1.360 . S
C462 C7 1.438 . S
C487 N101 1.360 . S
C492 C172 1.439 . S
C517 N134 1.360 . S
C522 C106 1.438 . S
C547 C139 1.438 . S
C552 N167 1.360 . S
C577 C238 1.439 . S
C582 N200 1.360 . S
C607 C271 1.438 . S
C612 N233 1.360 . S
C637 C205 1.438 . S
C642 N266 1.360 . S
C667 N299 1.360 . S
C672 C370 1.439 . S
C697 C304 1.438 . S
C702 N332 1.360 . S
C727 N365 1.360 . S
C732 C337 1.438 . S
C757 C18 1.281 . S
C762 N244 1.255 . S
C787 C51 1.281 . S
C792 N277 1.255 . S
C817 C84 1.281 . S
C822 N211 1.255 . S
C847 N376 1.255 . S
C852 C117 1.281 . S
C877 C150 1.281 . S
C882 N310 1.255 . S
C907 N343 1.255 . S
C912 C183 1.281 . S
C937 N46 1.255 . S
C942 C216 1.281 . S
C967 N79 1.255 . S
C972 C249 1.281 . S
C997 C282 1.281 . S
C1002 N13 1.255 . S
C1027 N178 1.255 . S
C1032 C315 1.281 . S
C1057 C348 1.281 . S
C1062 N112 1.255 . S
C1087 C381 1.281 . S
C1092 N145 1.255 . S
C1117 C120 1.253 . S
C1122 C21 1.253 . S
C1147 C54 1.253 . S
C1152 C153 1.253 . S
C1177 C87 1.253 . S
C1182 C186 1.253 . S
C1207 C318 1.253 . S
C1212 C219 1.253 . S
C1237 C252 1.253 . S
C1242 C351 1.253 . S
C1267 C285 1.253 . S
C1272 C384 1.253 . S
